# Generated by pormake.
# Topology ptr, (4,4)-cn, num edge types: 1
# Building blocks:
#     Node 0, Type 0, BuildingBlock: KUFVIS_clean_sbu_0, # of connection points: 4
#     Node 1, Type 0, BuildingBlock: KUFVIS_clean_sbu_0, # of connection points: 4
#     Node 2, Type 0, BuildingBlock: KUFVIS_clean_sbu_0, # of connection points: 4
#     Node 3, Type 0, BuildingBlock: KUFVIS_clean_sbu_0, # of connection points: 4
#     Node 4, Type 0, BuildingBlock: KUFVIS_clean_sbu_0, # of connection points: 4
#     Node 5, Type 0, BuildingBlock: KUFVIS_clean_sbu_0, # of connection points: 4
#     Node 6, Type 0, BuildingBlock: KUFVIS_clean_sbu_0, # of connection points: 4
#     Node 7, Type 0, BuildingBlock: KUFVIS_clean_sbu_0, # of connection points: 4
#     Node 8, Type 0, BuildingBlock: KUFVIS_clean_sbu_0, # of connection points: 4
#     Node 9, Type 0, BuildingBlock: KUFVIS_clean_sbu_0, # of connection points: 4
#     Node 10, Type 0, BuildingBlock: KUFVIS_clean_sbu_0, # of connection points: 4
#     Node 11, Type 0, BuildingBlock: KUFVIS_clean_sbu_0, # of connection points: 4
#     Node 12, Type 0, BuildingBlock: KUFVIS_clean_sbu_0, # of connection points: 4
#     Node 13, Type 0, BuildingBlock: KUFVIS_clean_sbu_0, # of connection points: 4
#     Node 14, Type 0, BuildingBlock: KUFVIS_clean_sbu_0, # of connection points: 4
#     Node 15, Type 0, BuildingBlock: KUFVIS_clean_sbu_0, # of connection points: 4
#     Node 16, Type 0, BuildingBlock: KUFVIS_clean_sbu_0, # of connection points: 4
#     Node 17, Type 0, BuildingBlock: KUFVIS_clean_sbu_0, # of connection points: 4
#     Node 18, Type 1, BuildingBlock: AZAVOO_clean_linker_0, # of connection points: 4
#     Node 19, Type 1, BuildingBlock: AZAVOO_clean_linker_0, # of connection points: 4
#     Node 20, Type 1, BuildingBlock: AZAVOO_clean_linker_0, # of connection points: 4
#     Node 21, Type 1, BuildingBlock: AZAVOO_clean_linker_0, # of connection points: 4
#     Node 22, Type 1, BuildingBlock: AZAVOO_clean_linker_0, # of connection points: 4
#     Node 23, Type 1, BuildingBlock: AZAVOO_clean_linker_0, # of connection points: 4
#     Node 24, Type 1, BuildingBlock: AZAVOO_clean_linker_0, # of connection points: 4
#     Node 25, Type 1, BuildingBlock: AZAVOO_clean_linker_0, # of connection points: 4
#     Node 26, Type 1, BuildingBlock: AZAVOO_clean_linker_0, # of connection points: 4
#     Node 27, Type 1, BuildingBlock: AZAVOO_clean_linker_0, # of connection points: 4
#     Node 28, Type 1, BuildingBlock: AZAVOO_clean_linker_0, # of connection points: 4
#     Node 29, Type 1, BuildingBlock: AZAVOO_clean_linker_0, # of connection points: 4
#     Node 30, Type 1, BuildingBlock: AZAVOO_clean_linker_0, # of connection points: 4
#     Node 31, Type 1, BuildingBlock: AZAVOO_clean_linker_0, # of connection points: 4
#     Node 32, Type 1, BuildingBlock: AZAVOO_clean_linker_0, # of connection points: 4
#     Node 33, Type 1, BuildingBlock: AZAVOO_clean_linker_0, # of connection points: 4
#     Node 34, Type 1, BuildingBlock: AZAVOO_clean_linker_0, # of connection points: 4
#     Node 35, Type 1, BuildingBlock: AZAVOO_clean_linker_0, # of connection points: 4
#     Edge 36, Type (0, 1), BuildingBlock: ZUJKAS_clean_linker_0, # of connection points: 2
#     Edge 37, Type (0, 1), BuildingBlock: ZUJKAS_clean_linker_0, # of connection points: 2
#     Edge 38, Type (0, 1), BuildingBlock: ZUJKAS_clean_linker_0, # of connection points: 2
#     Edge 39, Type (0, 1), BuildingBlock: ZUJKAS_clean_linker_0, # of connection points: 2
#     Edge 40, Type (0, 1), BuildingBlock: ZUJKAS_clean_linker_0, # of connection points: 2
#     Edge 41, Type (0, 1), BuildingBlock: ZUJKAS_clean_linker_0, # of connection points: 2
#     Edge 42, Type (0, 1), BuildingBlock: ZUJKAS_clean_linker_0, # of connection points: 2
#     Edge 43, Type (0, 1), BuildingBlock: ZUJKAS_clean_linker_0, # of connection points: 2
#     Edge 44, Type (0, 1), BuildingBlock: ZUJKAS_clean_linker_0, # of connection points: 2
#     Edge 45, Type (0, 1), BuildingBlock: ZUJKAS_clean_linker_0, # of connection points: 2
#     Edge 46, Type (0, 1), BuildingBlock: ZUJKAS_clean_linker_0, # of connection points: 2
#     Edge 47, Type (0, 1), BuildingBlock: ZUJKAS_clean_linker_0, # of connection points: 2
#     Edge 48, Type (0, 1), BuildingBlock: ZUJKAS_clean_linker_0, # of connection points: 2
#     Edge 49, Type (0, 1), BuildingBlock: ZUJKAS_clean_linker_0, # of connection points: 2
#     Edge 50, Type (0, 1), BuildingBlock: ZUJKAS_clean_linker_0, # of connection points: 2
#     Edge 51, Type (0, 1), BuildingBlock: ZUJKAS_clean_linker_0, # of connection points: 2
#     Edge 52, Type (0, 1), BuildingBlock: ZUJKAS_clean_linker_0, # of connection points: 2
#     Edge 53, Type (0, 1), BuildingBlock: ZUJKAS_clean_linker_0, # of connection points: 2
#     Edge 54, Type (0, 1), BuildingBlock: ZUJKAS_clean_linker_0, # of connection points: 2
#     Edge 55, Type (0, 1), BuildingBlock: ZUJKAS_clean_linker_0, # of connection points: 2
#     Edge 56, Type (0, 1), BuildingBlock: ZUJKAS_clean_linker_0, # of connection points: 2
#     Edge 57, Type (0, 1), BuildingBlock: ZUJKAS_clean_linker_0, # of connection points: 2
#     Edge 58, Type (0, 1), BuildingBlock: ZUJKAS_clean_linker_0, # of connection points: 2
#     Edge 59, Type (0, 1), BuildingBlock: ZUJKAS_clean_linker_0, # of connection points: 2
#     Edge 60, Type (0, 1), BuildingBlock: ZUJKAS_clean_linker_0, # of connection points: 2
#     Edge 61, Type (0, 1), BuildingBlock: ZUJKAS_clean_linker_0, # of connection points: 2
#     Edge 62, Type (0, 1), BuildingBlock: ZUJKAS_clean_linker_0, # of connection points: 2
#     Edge 63, Type (0, 1), BuildingBlock: ZUJKAS_clean_linker_0, # of connection points: 2
#     Edge 64, Type (0, 1), BuildingBlock: ZUJKAS_clean_linker_0, # of connection points: 2
#     Edge 65, Type (0, 1), BuildingBlock: ZUJKAS_clean_linker_0, # of connection points: 2
#     Edge 66, Type (0, 1), BuildingBlock: ZUJKAS_clean_linker_0, # of connection points: 2
#     Edge 67, Type (0, 1), BuildingBlock: ZUJKAS_clean_linker_0, # of connection points: 2
#     Edge 68, Type (0, 1), BuildingBlock: ZUJKAS_clean_linker_0, # of connection points: 2
#     Edge 69, Type (0, 1), BuildingBlock: ZUJKAS_clean_linker_0, # of connection points: 2
#     Edge 70, Type (0, 1), BuildingBlock: ZUJKAS_clean_linker_0, # of connection points: 2
#     Edge 71, Type (0, 1), BuildingBlock: ZUJKAS_clean_linker_0, # of connection points: 2
#     Edge 72, Type (0, 1), BuildingBlock: ZUJKAS_clean_linker_0, # of connection points: 2
#     Edge 73, Type (0, 1), BuildingBlock: ZUJKAS_clean_linker_0, # of connection points: 2
#     Edge 74, Type (0, 1), BuildingBlock: ZUJKAS_clean_linker_0, # of connection points: 2
#     Edge 75, Type (0, 1), BuildingBlock: ZUJKAS_clean_linker_0, # of connection points: 2
#     Edge 76, Type (0, 1), BuildingBlock: ZUJKAS_clean_linker_0, # of connection points: 2
#     Edge 77, Type (0, 1), BuildingBlock: ZUJKAS_clean_linker_0, # of connection points: 2
#     Edge 78, Type (0, 1), BuildingBlock: ZUJKAS_clean_linker_0, # of connection points: 2
#     Edge 79, Type (0, 1), BuildingBlock: ZUJKAS_clean_linker_0, # of connection points: 2
#     Edge 80, Type (0, 1), BuildingBlock: ZUJKAS_clean_linker_0, # of connection points: 2
#     Edge 81, Type (0, 1), BuildingBlock: ZUJKAS_clean_linker_0, # of connection points: 2
#     Edge 82, Type (0, 1), BuildingBlock: ZUJKAS_clean_linker_0, # of connection points: 2
#     Edge 83, Type (0, 1), BuildingBlock: ZUJKAS_clean_linker_0, # of connection points: 2
#     Edge 84, Type (0, 1), BuildingBlock: ZUJKAS_clean_linker_0, # of connection points: 2
#     Edge 85, Type (0, 1), BuildingBlock: ZUJKAS_clean_linker_0, # of connection points: 2
#     Edge 86, Type (0, 1), BuildingBlock: ZUJKAS_clean_linker_0, # of connection points: 2
#     Edge 87, Type (0, 1), BuildingBlock: ZUJKAS_clean_linker_0, # of connection points: 2
#     Edge 88, Type (0, 1), BuildingBlock: ZUJKAS_clean_linker_0, # of connection points: 2
#     Edge 89, Type (0, 1), BuildingBlock: ZUJKAS_clean_linker_0, # of connection points: 2
#     Edge 90, Type (0, 1), BuildingBlock: ZUJKAS_clean_linker_0, # of connection points: 2
#     Edge 91, Type (0, 1), BuildingBlock: ZUJKAS_clean_linker_0, # of connection points: 2
#     Edge 92, Type (0, 1), BuildingBlock: ZUJKAS_clean_linker_0, # of connection points: 2
#     Edge 93, Type (0, 1), BuildingBlock: ZUJKAS_clean_linker_0, # of connection points: 2
#     Edge 94, Type (0, 1), BuildingBlock: ZUJKAS_clean_linker_0, # of connection points: 2
#     Edge 95, Type (0, 1), BuildingBlock: ZUJKAS_clean_linker_0, # of connection points: 2
#     Edge 96, Type (0, 1), BuildingBlock: ZUJKAS_clean_linker_0, # of connection points: 2
#     Edge 97, Type (0, 1), BuildingBlock: ZUJKAS_clean_linker_0, # of connection points: 2
#     Edge 98, Type (0, 1), BuildingBlock: ZUJKAS_clean_linker_0, # of connection points: 2
#     Edge 99, Type (0, 1), BuildingBlock: ZUJKAS_clean_linker_0, # of connection points: 2
#     Edge 100, Type (0, 1), BuildingBlock: ZUJKAS_clean_linker_0, # of connection points: 2
#     Edge 101, Type (0, 1), BuildingBlock: ZUJKAS_clean_linker_0, # of connection points: 2
#     Edge 102, Type (0, 1), BuildingBlock: ZUJKAS_clean_linker_0, # of connection points: 2
#     Edge 103, Type (0, 1), BuildingBlock: ZUJKAS_clean_linker_0, # of connection points: 2
#     Edge 104, Type (0, 1), BuildingBlock: ZUJKAS_clean_linker_0, # of connection points: 2
#     Edge 105, Type (0, 1), BuildingBlock: ZUJKAS_clean_linker_0, # of connection points: 2
#     Edge 106, Type (0, 1), BuildingBlock: ZUJKAS_clean_linker_0, # of connection points: 2
#     Edge 107, Type (0, 1), BuildingBlock: ZUJKAS_clean_linker_0, # of connection points: 2
# Relax obj value: 0.054
# Max RMSD: 0.197
# Mean RMSD: 0.131
data_MOF--net-ptr--node1-KUFVIS_clean_sbu_0--node2-AZAVOO_clean_linker_0--edge1-ZUJKAS_clean_linker_0
_symmetry_space_group_name_H-M    P1
_symmetry_Int_Tables_number       1
_symmetry_cell_setting            triclinic
loop_
_symmetry_equiv_pos_as_xyz
'x, y, z'
_cell_length_a     101.68688
_cell_length_b     99.782712
_cell_length_c     86.357075
_cell_angle_alpha  92.084541
_cell_angle_beta   92.740153
_cell_angle_gamma 119.6078
loop_
_atom_site_label
_atom_site_type_symbol
_atom_site_fract_x
_atom_site_fract_y
_atom_site_fract_z
_atom_type_partial_charge
Mn0 Mn 0.00484 0.35878 0.01492 0.0
Mn1 Mn 0.03854 0.39194 0.01811 0.0
C2 C 0.00926 0.37753 0.99791 0.0
C3 C 0.99011 0.33307 0.00555 0.0
C4 C 0.01329 0.38532 0.03924 0.0
O5 O 0.01809 0.35371 0.02899 0.0
O6 O 0.04055 0.37556 0.0287 0.0
C7 C 0.05562 0.38172 0.99873 0.0
N8 N 0.05052 0.39178 0.00181 0.0
C9 C 0.06281 0.4066 0.98031 0.0
C10 C 0.06828 0.39646 0.97697 0.0
C11 C 0.06463 0.38394 0.98619 0.0
C12 C 0.0539 0.40381 0.99296 0.0
H13 H 0.0528 0.37207 0.00578 0.0
C14 C 0.03228 0.36175 0.03272 0.0
O15 O 0.98676 0.33842 0.01778 0.0
O16 O 0.00216 0.34261 0.99897 0.0
N17 N 0.03853 0.40889 0.00843 0.0
C18 C 0.03198 0.41732 0.01291 0.0
C19 C 0.03437 0.43017 0.00476 0.0
C20 C 0.04362 0.43432 0.99223 0.0
C21 C 0.05039 0.42559 0.98795 0.0
C22 C 0.0477 0.41298 0.99659 0.0
H23 H 0.02493 0.41425 0.02259 0.0
O24 O 0.99552 0.36684 0.99986 0.0
O25 O 0.02012 0.37667 0.0056 0.0
O26 O 0.00356 0.37221 0.03263 0.0
O27 O 0.02678 0.39329 0.03505 0.0
C28 C 0.05953 0.42877 0.97532 0.0
C29 C 0.0657 0.41924 0.97147 0.0
H30 H 0.0752 0.3981 0.96728 0.0
H31 H 0.06875 0.37602 0.98364 0.0
H32 H 0.02911 0.43686 0.00814 0.0
H33 H 0.04541 0.44422 0.98595 0.0
H34 H 0.06174 0.43839 0.96838 0.0
H35 H 0.07256 0.42169 0.96162 0.0
Mn36 Mn 0.63244 0.63003 0.05986 0.0
Mn37 Mn 0.6318 0.59596 0.05526 0.0
C38 C 0.61816 0.61038 0.07537 0.0
C39 C 0.64387 0.65535 0.07061 0.0
C40 C 0.61406 0.60552 0.03346 0.0
O41 O 0.65035 0.63511 0.04709 0.0
O42 O 0.65013 0.61242 0.0463 0.0
C43 C 0.65875 0.60334 0.0762 0.0
N44 N 0.64367 0.59419 0.07203 0.0
C45 C 0.64083 0.57757 0.09265 0.0
C46 C 0.65635 0.58676 0.09711 0.0
C47 C 0.66534 0.59972 0.08887 0.0
C48 C 0.63491 0.58172 0.07991 0.0
H49 H 0.66569 0.61333 0.06992 0.0
C50 C 0.65598 0.62664 0.04325 0.0
O51 O 0.63519 0.65102 0.0578 0.0
O52 O 0.64606 0.645 0.07708 0.0
N53 N 0.61482 0.57894 0.0634 0.0
C54 C 0.59993 0.57166 0.05801 0.0
C55 C 0.58936 0.55861 0.06517 0.0
C56 C 0.59422 0.5531 0.07767 0.0
C57 C 0.60961 0.56069 0.0829 0.0
C58 C 0.61965 0.57356 0.07523 0.0
H59 H 0.59613 0.57581 0.04838 0.0
O60 O 0.61535 0.62161 0.07362 0.0
O61 O 0.62949 0.61115 0.06825 0.0
O62 O 0.61782 0.61835 0.04083 0.0
O63 O 0.61895 0.59651 0.03765 0.0
C64 C 0.61536 0.55614 0.0956 0.0
C65 C 0.63095 0.5646 0.10049 0.0
H66 H 0.66146 0.58405 0.1069 0.0
H67 H 0.67731 0.60691 0.09228 0.0
H68 H 0.57749 0.55282 0.06107 0.0
H69 H 0.58602 0.54306 0.08319 0.0
H70 H 0.60786 0.54628 0.10181 0.0
H71 H 0.6352 0.56112 0.11039 0.0
Mn72 Mn 0.37276 0.99823 0.02148 0.0
Mn73 Mn 0.40395 0.03338 0.02164 0.0
C74 C 0.39402 0.00394 0.03745 0.0
C75 C 0.34905 0.98289 0.03093 0.0
C76 C 0.39545 0.0078 0.9964 0.0
O77 O 0.36494 0.01085 0.01055 0.0
O78 O 0.38597 0.03422 0.01268 0.0
C79 C 0.39544 0.04994 0.04463 0.0
N80 N 0.40539 0.04548 0.03996 0.0
C81 C 0.4229 0.05952 0.06204 0.0
C82 C 0.41289 0.06435 0.06705 0.0
C83 C 0.39907 0.05947 0.05834 0.0
C84 C 0.41861 0.04992 0.04836 0.0
H85 H 0.38484 0.04628 0.03793 0.0
C86 C 0.37187 0.02527 0.00859 0.0
O87 O 0.35238 0.97915 0.0177 0.0
O88 O 0.35945 0.9954 0.03853 0.0
N89 N 0.42228 0.03459 0.03006 0.0
C90 C 0.43037 0.0284 0.02397 0.0
C91 C 0.44436 0.03187 0.03147 0.0
C92 C 0.44999 0.04188 0.04499 0.0
C93 C 0.44153 0.04823 0.05095 0.0
C94 C 0.42763 0.04427 0.04303 0.0
H95 H 0.42619 0.02085 0.01348 0.0
O96 O 0.38359 0.98972 0.03391 0.0
O97 O 0.39143 0.01447 0.03195 0.0
O98 O 0.38351 0.99745 0.0021 0.0
O99 O 0.40353 0.02154 0.00265 0.0
C100 C 0.44632 0.05833 0.06445 0.0
C101 C 0.43695 0.06383 0.07009 0.0
H102 H 0.41568 0.07175 0.07758 0.0
H103 H 0.39126 0.06311 0.06216 0.0
H104 H 0.45083 0.02692 0.0268 0.0
H105 H 0.46082 0.04458 0.0507 0.0
H106 H 0.45715 0.06185 0.07067 0.0
H107 H 0.44065 0.07137 0.08062 0.0
Mn108 Mn 0.99611 0.64494 0.03727 0.0
Mn109 Mn 0.03004 0.64653 0.04095 0.0
C110 C 0.00034 0.62828 0.02187 0.0
C111 C 0.98134 0.65458 0.02633 0.0
C112 C 0.00563 0.63117 0.06355 0.0
O113 O 0.00954 0.66523 0.04995 0.0
O114 O 0.03218 0.66638 0.0494 0.0
C115 C 0.04596 0.67038 0.01881 0.0
N116 N 0.04117 0.6559 0.02348 0.0
C117 C 0.05248 0.64993 0.0024 0.0
C118 C 0.05762 0.66482 0.99742 0.0
C119 C 0.0543 0.67507 0.00563 0.0
C120 C 0.04416 0.64589 0.01557 0.0
H121 H 0.04341 0.67828 0.02509 0.0
C122 C 0.02387 0.67218 0.053 0.0
O123 O 0.97802 0.6476 0.03918 0.0
O124 O 0.99325 0.65605 0.02003 0.0
N125 N 0.02989 0.62823 0.03323 0.0
C126 C 0.02396 0.61423 0.03945 0.0
C127 C 0.02614 0.60259 0.03251 0.0
C128 C 0.03459 0.60555 0.0194 0.0
C129 C 0.04087 0.62015 0.01342 0.0
C130 C 0.03834 0.6313 0.02084 0.0
H131 H 0.01755 0.61192 0.04959 0.0
O132 O 0.98661 0.62541 0.02365 0.0
O133 O 0.01119 0.64113 0.02867 0.0
O134 O 0.99541 0.63297 0.0563 0.0
O135 O 0.01902 0.63632 0.05912 0.0
C136 C 0.0495 0.62408 0.00035 0.0
C137 C 0.0552 0.63891 0.99477 0.0
H138 H 0.06407 0.66849 0.98727 0.0
H139 H 0.05817 0.68656 0.00182 0.0
H140 H 0.02132 0.59137 0.03725 0.0
H141 H 0.03618 0.59652 0.01403 0.0
H142 H 0.05174 0.61573 0.99444 0.0
H143 H 0.06165 0.64172 0.98459 0.0
Mn144 Mn 0.36783 0.3775 0.00749 0.0
Mn145 Mn 0.39934 0.37524 0.00249 0.0
C146 C 0.38929 0.39191 0.02418 0.0
C147 C 0.34438 0.36754 0.01811 0.0
C148 C 0.38907 0.39308 0.98208 0.0
O149 O 0.3602 0.35813 0.99307 0.0
O150 O 0.38135 0.35618 0.9929 0.0
C151 C 0.39358 0.34934 0.02196 0.0
N152 N 0.40257 0.36427 0.01854 0.0
C153 C 0.42135 0.36828 0.03897 0.0
C154 C 0.41232 0.35292 0.04267 0.0
C155 C 0.39836 0.34343 0.03415 0.0
C156 C 0.416 0.37352 0.02668 0.0
H157 H 0.38283 0.34202 0.01545 0.0
C158 C 0.36719 0.35096 0.9893 0.0
O159 O 0.34734 0.37574 0.00607 0.0
O160 O 0.35496 0.36506 0.02378 0.0
N161 N 0.41753 0.39288 0.01138 0.0
C162 C 0.42445 0.40764 0.0069 0.0
C163 C 0.43845 0.41869 0.0144 0.0
C164 C 0.44521 0.41443 0.02636 0.0
C165 C 0.43781 0.3992 0.03085 0.0
C166 C 0.42397 0.38865 0.02283 0.0
H167 H 0.41938 0.41097 0.99764 0.0
O168 O 0.37881 0.39572 0.02291 0.0
O169 O 0.38675 0.37968 0.01579 0.0
O170 O 0.37781 0.39113 0.98958 0.0
O171 O 0.39727 0.38706 0.98562 0.0
C172 C 0.44357 0.3941 0.04306 0.0
C173 C 0.43531 0.37867 0.04716 0.0
H174 H 0.41594 0.34833 0.0521 0.0
H175 H 0.3913 0.33158 0.03698 0.0
H176 H 0.44406 0.43043 0.01093 0.0
H177 H 0.45606 0.42298 0.03203 0.0
H178 H 0.45424 0.402 0.04949 0.0
H179 H 0.43974 0.37495 0.05671 0.0
Mn180 Mn 0.63158 0.01 0.0407 0.0
Mn181 Mn 0.6002 0.97516 0.04088 0.0
C182 C 0.61032 0.00454 0.02491 0.0
C183 C 0.6552 0.02478 0.031 0.0
C184 C 0.61036 0.00056 0.06676 0.0
O185 O 0.63896 0.99692 0.05145 0.0
O186 O 0.61817 0.97332 0.04776 0.0
C187 C 0.60585 0.95805 0.01579 0.0
N188 N 0.59689 0.96319 0.02184 0.0
C189 C 0.57813 0.95092 0.00029 0.0
C190 C 0.5871 0.94541 0.99387 0.0
C191 C 0.60104 0.94902 0.00163 0.0
C192 C 0.58348 0.95982 0.01446 0.0
H193 H 0.61658 0.96084 0.02171 0.0
C194 C 0.6322 0.98229 0.05223 0.0
O195 O 0.65218 0.02872 0.04431 0.0
O196 O 0.64452 0.0124 0.02345 0.0
N197 N 0.58205 0.97533 0.03432 0.0
C198 C 0.57522 0.98235 0.04159 0.0
C199 C 0.5613 0.98017 0.03517 0.0
C200 C 0.55452 0.97076 0.0214 0.0
C201 C 0.56181 0.96373 0.01407 0.0
C202 C 0.57558 0.96619 0.0211 0.0
H203 H 0.58032 0.98952 0.05223 0.0
O204 O 0.62086 0.01876 0.02832 0.0
O205 O 0.61277 0.99403 0.0306 0.0
O206 O 0.62137 0.0112 0.0602 0.0
O207 O 0.60239 0.9867 0.06081 0.0
C208 C 0.55604 0.95454 0.99998 0.0
C209 C 0.56422 0.94819 0.99306 0.0
H210 H 0.58347 0.93851 0.98291 0.0
H211 H 0.60807 0.94487 0.9967 0.0
H212 H 0.55578 0.98569 0.04085 0.0
H213 H 0.54375 0.96906 0.01655 0.0
H214 H 0.54541 0.95244 0.99426 0.0
H215 H 0.55978 0.94134 0.98211 0.0
Mn216 Mn 0.66769 0.69621 0.35106 0.0
Mn217 Mn 0.7008 0.72961 0.35808 0.0
C218 C 0.67388 0.71573 0.33455 0.0
C219 C 0.6541 0.67085 0.34043 0.0
C220 C 0.67323 0.72089 0.3763 0.0
O221 O 0.67975 0.69082 0.36655 0.0
O222 O 0.70238 0.71277 0.36811 0.0
C223 C 0.7208 0.7221 0.34037 0.0
N224 N 0.71474 0.73137 0.34314 0.0
C225 C 0.7289 0.74822 0.32361 0.0
C226 C 0.73537 0.73891 0.32061 0.0
C227 C 0.73128 0.72578 0.329 0.0
C228 C 0.7186 0.74404 0.33514 0.0
H229 H 0.71765 0.71198 0.34677 0.0
C230 C 0.69375 0.69874 0.37133 0.0
O231 O 0.64943 0.67559 0.35203 0.0
O232 O 0.66683 0.68079 0.33519 0.0
N233 N 0.70089 0.74684 0.34891 0.0
C234 C 0.69288 0.75402 0.35251 0.0
C235 C 0.69525 0.76708 0.34477 0.0
C236 C 0.7059 0.77269 0.33351 0.0
C237 C 0.71409 0.76518 0.33009 0.0
C238 C 0.71132 0.75228 0.33826 0.0
H239 H 0.68469 0.74977 0.36116 0.0
O240 O 0.6599 0.70484 0.33494 0.0
O241 O 0.68389 0.71469 0.34361 0.0
O242 O 0.66414 0.7085 0.36817 0.0
O243 O 0.68724 0.72919 0.37397 0.0
C244 C 0.72464 0.76979 0.31865 0.0
C245 C 0.73203 0.76131 0.3154 0.0
H246 H 0.74338 0.74165 0.31178 0.0
H247 H 0.73617 0.71849 0.32669 0.0
H248 H 0.68886 0.77279 0.34745 0.0
H249 H 0.70761 0.7827 0.32748 0.0
H250 H 0.72696 0.77968 0.31209 0.0
H251 H 0.73994 0.76482 0.30641 0.0
Mn252 Mn 0.2999 0.96042 0.395 0.0
Mn253 Mn 0.29932 0.92645 0.38945 0.0
C254 C 0.28502 0.93997 0.4096 0.0
C255 C 0.31072 0.98544 0.40652 0.0
C256 C 0.28172 0.93637 0.36804 0.0
O257 O 0.31836 0.96625 0.38278 0.0
O258 O 0.31729 0.94321 0.38045 0.0
C259 C 0.32673 0.93423 0.40982 0.0
N260 N 0.31167 0.92479 0.40577 0.0
C261 C 0.30993 0.90701 0.42469 0.0
C262 C 0.32544 0.9165 0.42905 0.0
C263 C 0.33385 0.93022 0.42165 0.0
C264 C 0.30341 0.91174 0.41303 0.0
H265 H 0.33327 0.94469 0.40403 0.0
C266 C 0.32357 0.95762 0.37818 0.0
O267 O 0.30252 0.9814 0.3934 0.0
O268 O 0.31278 0.97496 0.41289 0.0
N269 N 0.28277 0.909 0.39749 0.0
C270 C 0.26786 0.90135 0.39218 0.0
C271 C 0.25785 0.8874 0.39841 0.0
C272 C 0.26334 0.88128 0.40975 0.0
C273 C 0.27875 0.88933 0.415 0.0
C274 C 0.28814 0.90326 0.40849 0.0
H275 H 0.26365 0.90584 0.38322 0.0
O276 O 0.28224 0.95123 0.40803 0.0
O277 O 0.29673 0.94115 0.40292 0.0
O278 O 0.28597 0.94935 0.37537 0.0
O279 O 0.28604 0.92694 0.37227 0.0
C280 C 0.28519 0.88404 0.42636 0.0
C281 C 0.30071 0.89298 0.43137 0.0
H282 H 0.331 0.91336 0.43806 0.0
H283 H 0.34582 0.93762 0.42496 0.0
H284 H 0.24597 0.88126 0.39432 0.0
H285 H 0.25561 0.8704 0.41437 0.0
H286 H 0.27827 0.87318 0.43144 0.0
H287 H 0.30546 0.88891 0.44029 0.0
Mn288 Mn 0.04153 0.3237 0.35418 0.0
Mn289 Mn 0.07565 0.35617 0.35477 0.0
C290 C 0.0609 0.32758 0.37209 0.0
C291 C 0.01696 0.31101 0.36239 0.0
C292 C 0.06503 0.32927 0.33064 0.0
O293 O 0.03693 0.33799 0.34177 0.0
O294 O 0.05992 0.35959 0.34394 0.0
C295 C 0.06963 0.37648 0.37553 0.0
N296 N 0.07805 0.36968 0.37226 0.0
C297 C 0.09439 0.3817 0.39558 0.0
C298 C 0.08596 0.38891 0.39914 0.0
C299 C 0.07351 0.38626 0.38908 0.0
C300 C 0.09004 0.37213 0.38187 0.0
H301 H 0.06001 0.37441 0.36786 0.0
C302 C 0.04579 0.35211 0.33931 0.0
O303 O 0.02027 0.30623 0.34974 0.0
O304 O 0.02784 0.32317 0.37004 0.0
N305 N 0.09187 0.35452 0.36497 0.0
C306 C 0.09832 0.34606 0.36026 0.0
C307 C 0.11072 0.34711 0.36924 0.0
C308 C 0.1164 0.35689 0.3829 0.0
C309 C 0.10965 0.36557 0.38745 0.0
C310 C 0.09742 0.36418 0.37795 0.0
H311 H 0.094 0.33851 0.34978 0.0
O312 O 0.04968 0.31374 0.36847 0.0
O313 O 0.06039 0.33867 0.36516 0.0
O314 O 0.05225 0.32042 0.33598 0.0
O315 O 0.07433 0.34281 0.33669 0.0
C316 C 0.11439 0.37534 0.40118 0.0
C317 C 0.10675 0.38338 0.40526 0.0
H318 H 0.08886 0.3964 0.40964 0.0
H319 H 0.0669 0.39173 0.3918 0.0
H320 H 0.11586 0.34035 0.36567 0.0
H321 H 0.1259 0.35758 0.38985 0.0
H322 H 0.12376 0.37659 0.4088 0.0
H323 H 0.11037 0.39069 0.41595 0.0
Mn324 Mn 0.66356 0.96877 0.3726 0.0
Mn325 Mn 0.69709 0.97156 0.38403 0.0
C326 C 0.67141 0.95333 0.36 0.0
C327 C 0.64928 0.97694 0.35797 0.0
C328 C 0.66883 0.95479 0.40154 0.0
O329 O 0.67445 0.98924 0.38575 0.0
O330 O 0.69701 0.99066 0.39108 0.0
C331 C 0.71697 0.9967 0.36475 0.0
N332 N 0.71159 0.98208 0.36927 0.0
C333 C 0.72806 0.97798 0.35307 0.0
C334 C 0.73383 0.99302 0.34828 0.0
C335 C 0.72821 0.0024 0.3541 0.0
C336 C 0.7168 0.97291 0.36363 0.0
H337 H 0.71271 0.00395 0.36925 0.0
C338 C 0.68811 0.99627 0.39172 0.0
O339 O 0.64458 0.96989 0.37059 0.0
O340 O 0.66243 0.9795 0.35398 0.0
N341 N 0.69888 0.95395 0.37797 0.0
C342 C 0.69167 0.93954 0.3833 0.0
C343 C 0.69597 0.92872 0.37865 0.0
C344 C 0.70771 0.93288 0.3687 0.0
C345 C 0.71487 0.94774 0.36323 0.0
C346 C 0.71018 0.95806 0.36838 0.0
H347 H 0.6828 0.93635 0.39116 0.0
O348 O 0.65719 0.9495 0.35917 0.0
O349 O 0.68066 0.96624 0.36794 0.0
O350 O 0.65998 0.95674 0.39211 0.0
O351 O 0.68293 0.96026 0.3998 0.0
C352 C 0.72647 0.95272 0.35291 0.0
C353 C 0.73296 0.96778 0.34772 0.0
H354 H 0.74252 0.99747 0.34009 0.0
H355 H 0.73257 0.014 0.35042 0.0
H356 H 0.69037 0.91726 0.38286 0.0
H357 H 0.71116 0.92457 0.36539 0.0
H358 H 0.73041 0.94504 0.34878 0.0
H359 H 0.74172 0.97141 0.33962 0.0
Mn360 Mn 0.03441 0.71516 0.3442 0.0
Mn361 Mn 0.06845 0.71703 0.34398 0.0
C362 C 0.05363 0.73086 0.36277 0.0
C363 C 0.0098 0.70297 0.35231 0.0
C364 C 0.05796 0.73307 0.32128 0.0
O365 O 0.03 0.69632 0.33021 0.0
O366 O 0.05266 0.69738 0.33281 0.0
C367 C 0.06274 0.69125 0.36361 0.0
N368 N 0.07103 0.70648 0.36086 0.0
C369 C 0.08756 0.71169 0.3839 0.0
C370 C 0.07925 0.69605 0.38692 0.0
C371 C 0.06677 0.68579 0.37674 0.0
C372 C 0.08306 0.71644 0.37058 0.0
H373 H 0.0531 0.68335 0.35585 0.0
C374 C 0.03866 0.69073 0.3277 0.0
O375 O 0.01315 0.71111 0.34021 0.0
O376 O 0.02062 0.70171 0.35937 0.0
N377 N 0.08466 0.7354 0.3546 0.0
C378 C 0.09096 0.75027 0.35049 0.0
C379 C 0.10333 0.76205 0.35971 0.0
C380 C 0.10913 0.75842 0.37301 0.0
C381 C 0.10254 0.74303 0.37693 0.0
C382 C 0.09033 0.73176 0.36722 0.0
H383 H 0.08655 0.75313 0.3403 0.0
O384 O 0.04237 0.73327 0.35977 0.0
O385 O 0.05319 0.71928 0.35492 0.0
O386 O 0.04535 0.72946 0.32699 0.0
O387 O 0.06699 0.72855 0.32649 0.0
C388 C 0.10742 0.73846 0.39026 0.0
C389 C 0.09993 0.72281 0.39375 0.0
H390 H 0.08226 0.69181 0.39709 0.0
H391 H 0.06026 0.67372 0.37904 0.0
H392 H 0.10834 0.7739 0.35662 0.0
H393 H 0.11858 0.76756 0.38016 0.0
H394 H 0.11679 0.74693 0.39803 0.0
H395 H 0.10365 0.71948 0.40415 0.0
Mn396 Mn 0.29243 0.34204 0.37375 0.0
Mn397 Mn 0.26276 0.30693 0.37883 0.0
C398 C 0.26999 0.33305 0.35853 0.0
C399 C 0.31509 0.35674 0.36232 0.0
C400 C 0.27178 0.33536 0.40039 0.0
O401 O 0.30203 0.33196 0.38646 0.0
O402 O 0.28183 0.30825 0.38758 0.0
C403 C 0.27052 0.28795 0.35817 0.0
N404 N 0.26053 0.29254 0.36232 0.0
C405 C 0.24155 0.27473 0.34288 0.0
C406 C 0.25161 0.26974 0.33844 0.0
C407 C 0.26619 0.27645 0.34607 0.0
C408 C 0.24656 0.28633 0.35492 0.0
H409 H 0.28171 0.29299 0.36409 0.0
C410 C 0.29597 0.31806 0.39032 0.0
O411 O 0.31213 0.36189 0.37495 0.0
O412 O 0.3049 0.34319 0.35637 0.0
N413 N 0.24354 0.30383 0.37078 0.0
C414 C 0.23555 0.31057 0.37587 0.0
C415 C 0.2209 0.30555 0.36906 0.0
C416 C 0.21452 0.29347 0.35734 0.0
C417 C 0.22292 0.28663 0.3524 0.0
C418 C 0.23752 0.29223 0.35948 0.0
H419 H 0.24032 0.3197 0.38502 0.0
O420 O 0.27986 0.3477 0.36004 0.0
O421 O 0.27375 0.32403 0.36566 0.0
O422 O 0.28274 0.34501 0.39297 0.0
O423 O 0.26394 0.32096 0.39619 0.0
C424 C 0.21741 0.2745 0.34071 0.0
C425 C 0.22677 0.26868 0.33582 0.0
H426 H 0.24828 0.26083 0.32916 0.0
H427 H 0.27404 0.2727 0.34269 0.0
H428 H 0.21449 0.31089 0.37293 0.0
H429 H 0.20319 0.28958 0.35217 0.0
H430 H 0.20603 0.26967 0.33526 0.0
H431 H 0.22251 0.25957 0.3266 0.0
Mn432 Mn 0.33601 0.03192 0.6826 0.0
Mn433 Mn 0.36778 0.06687 0.68731 0.0
C434 C 0.33993 0.05024 0.66518 0.0
C435 C 0.32348 0.0061 0.67342 0.0
C436 C 0.34073 0.05747 0.70652 0.0
O437 O 0.34967 0.02847 0.69788 0.0
O438 O 0.37104 0.05157 0.69851 0.0
C439 C 0.3881 0.05969 0.66977 0.0
N440 N 0.38142 0.06846 0.67209 0.0
C441 C 0.39423 0.0844 0.65143 0.0
C442 C 0.40132 0.07559 0.64887 0.0
C443 C 0.3982 0.06316 0.65805 0.0
C444 C 0.38427 0.08039 0.66327 0.0
H445 H 0.38572 0.05013 0.6768 0.0
C446 C 0.36356 0.0376 0.70237 0.0
O447 O 0.31895 0.01088 0.68511 0.0
O448 O 0.33546 0.01629 0.6672 0.0
N449 N 0.36642 0.0829 0.67709 0.0
C450 C 0.35822 0.08986 0.68067 0.0
C451 C 0.35994 0.10247 0.67248 0.0
C452 C 0.37017 0.10787 0.66083 0.0
C453 C 0.37852 0.10055 0.65738 0.0
C454 C 0.37645 0.08815 0.66604 0.0
H455 H 0.35043 0.08586 0.68971 0.0
O456 O 0.32639 0.03875 0.66644 0.0
O457 O 0.35085 0.05048 0.6739 0.0
O458 O 0.33227 0.04422 0.6995 0.0
O459 O 0.35433 0.06657 0.70326 0.0
C460 C 0.3887 0.10497 0.64558 0.0
C461 C 0.3965 0.09685 0.64257 0.0
H462 H 0.4091 0.07821 0.63983 0.0
H463 H 0.40358 0.05628 0.6561 0.0
H464 H 0.35344 0.10805 0.67519 0.0
H465 H 0.37152 0.11765 0.6546 0.0
H466 H 0.39046 0.11446 0.63863 0.0
H467 H 0.40414 0.10023 0.63333 0.0
Mn468 Mn 0.96529 0.29171 0.72197 0.0
Mn469 Mn 0.96652 0.25856 0.71827 0.0
C470 C 0.95059 0.2715 0.73671 0.0
C471 C 0.97498 0.31674 0.73298 0.0
C472 C 0.94906 0.26715 0.69502 0.0
O473 O 0.98432 0.29793 0.71065 0.0
O474 O 0.98488 0.27566 0.71005 0.0
C475 C 0.99291 0.26724 0.74061 0.0
N476 N 0.97807 0.25751 0.73581 0.0
C477 C 0.97517 0.24109 0.75663 0.0
C478 C 0.99045 0.25089 0.76174 0.0
C479 C 0.99934 0.26405 0.75372 0.0
C480 C 0.96939 0.24488 0.7435 0.0
H481 H 0.99979 0.27737 0.73447 0.0
C482 C 0.99054 0.28992 0.70726 0.0
O483 O 0.9672 0.31233 0.7196 0.0
O484 O 0.97732 0.30667 0.73984 0.0
N485 N 0.94962 0.24102 0.72584 0.0
C486 C 0.93494 0.23307 0.71974 0.0
C487 C 0.92445 0.21979 0.72666 0.0
C488 C 0.9292 0.21469 0.73961 0.0
C489 C 0.94441 0.22291 0.7455 0.0
C490 C 0.95435 0.23607 0.73814 0.0
H491 H 0.93125 0.23689 0.70975 0.0
O492 O 0.94724 0.28228 0.73442 0.0
O493 O 0.96267 0.27304 0.73059 0.0
O494 O 0.95209 0.27986 0.70219 0.0
O495 O 0.9541 0.25845 0.69987 0.0
C496 C 0.95008 0.21866 0.75849 0.0
C497 C 0.96542 0.22779 0.76412 0.0
H498 H 0.99544 0.24847 0.77186 0.0
H499 H 0.01112 0.2717 0.75763 0.0
H500 H 0.91274 0.21349 0.72202 0.0
H501 H 0.92106 0.20449 0.74496 0.0
H502 H 0.94271 0.20845 0.76433 0.0
H503 H 0.96958 0.22452 0.77424 0.0
Mn504 Mn 0.70667 0.65881 0.68586 0.0
Mn505 Mn 0.73778 0.69354 0.68351 0.0
C506 C 0.72827 0.66569 0.70186 0.0
C507 C 0.68324 0.64435 0.69617 0.0
C508 C 0.72758 0.66651 0.65951 0.0
O509 O 0.69876 0.67094 0.67395 0.0
O510 O 0.71955 0.6946 0.67593 0.0
C511 C 0.7322 0.7123 0.70682 0.0
N512 N 0.74119 0.70684 0.70154 0.0
C513 C 0.76026 0.72092 0.72247 0.0
C514 C 0.75124 0.72676 0.7281 0.0
C515 C 0.73713 0.72239 0.72025 0.0
C516 C 0.75477 0.71094 0.70901 0.0
H517 H 0.72134 0.70895 0.70083 0.0
C518 C 0.70544 0.6854 0.67205 0.0
O519 O 0.68625 0.63976 0.6832 0.0
O520 O 0.69382 0.65723 0.70304 0.0
N521 N 0.75614 0.69408 0.69068 0.0
C522 C 0.76301 0.68667 0.68429 0.0
C523 C 0.77711 0.68953 0.69091 0.0
C524 C 0.78402 0.7 0.70396 0.0
C525 C 0.77668 0.7074 0.71042 0.0
C526 C 0.76272 0.70422 0.70321 0.0
H527 H 0.75781 0.67868 0.67419 0.0
O528 O 0.71793 0.65127 0.69927 0.0
O529 O 0.72551 0.67557 0.69515 0.0
O530 O 0.71664 0.65643 0.66662 0.0
O531 O 0.73554 0.68067 0.66456 0.0
C532 C 0.78258 0.71768 0.7238 0.0
C533 C 0.77435 0.72438 0.72986 0.0
H534 H 0.75498 0.73449 0.73849 0.0
H535 H 0.73008 0.7268 0.72456 0.0
H536 H 0.78267 0.68372 0.68592 0.0
H537 H 0.79494 0.70223 0.70897 0.0
H538 H 0.79335 0.72035 0.72963 0.0
H539 H 0.7789 0.73207 0.74028 0.0
Mn540 Mn 0.33236 0.30594 0.70322 0.0
Mn541 Mn 0.36584 0.30741 0.71148 0.0
C542 C 0.33891 0.29077 0.68826 0.0
C543 C 0.31868 0.31614 0.69094 0.0
C544 C 0.33834 0.29016 0.73005 0.0
O545 O 0.34413 0.32542 0.7177 0.0
O546 O 0.36682 0.32661 0.72013 0.0
C547 C 0.38515 0.33311 0.69249 0.0
N548 N 0.3796 0.31821 0.69621 0.0
C549 C 0.3946 0.31416 0.67789 0.0
C550 C 0.40055 0.32949 0.67393 0.0
C551 C 0.39575 0.33898 0.68121 0.0
C552 C 0.38401 0.30893 0.68916 0.0
H553 H 0.38153 0.34046 0.69811 0.0
C554 C 0.35813 0.33225 0.72252 0.0
O555 O 0.31384 0.30801 0.70293 0.0
O556 O 0.3315 0.31843 0.6862 0.0
N557 N 0.36666 0.28966 0.70368 0.0
C558 C 0.35932 0.27497 0.70832 0.0
C559 C 0.36251 0.26388 0.7018 0.0
C560 C 0.37338 0.26807 0.6908 0.0
C561 C 0.38096 0.28331 0.68639 0.0
C562 C 0.37725 0.29384 0.69321 0.0
H563 H 0.35105 0.27172 0.71688 0.0
O564 O 0.32488 0.28752 0.68822 0.0
O565 O 0.34877 0.30309 0.69668 0.0
O566 O 0.32908 0.29234 0.7215 0.0
O567 O 0.35236 0.2958 0.72767 0.0
C568 C 0.39197 0.28846 0.67541 0.0
C569 C 0.39868 0.30383 0.67106 0.0
H570 H 0.40875 0.33406 0.66525 0.0
H571 H 0.40026 0.35081 0.67817 0.0
H572 H 0.35663 0.25214 0.70529 0.0
H573 H 0.37578 0.25947 0.68577 0.0
H574 H 0.39526 0.28066 0.67013 0.0
H575 H 0.40694 0.30757 0.6624 0.0
Mn576 Mn 0.70168 0.04499 0.67314 0.0
Mn577 Mn 0.73268 0.04145 0.66928 0.0
C578 C 0.72327 0.05963 0.68958 0.0
C579 C 0.6784 0.03655 0.6838 0.0
C580 C 0.72326 0.05902 0.64755 0.0
O581 O 0.69349 0.02485 0.65973 0.0
O582 O 0.71442 0.02249 0.65998 0.0
C583 C 0.72576 0.01602 0.68983 0.0
N584 N 0.73521 0.03072 0.68602 0.0
C585 C 0.75346 0.03473 0.70703 0.0
C586 C 0.74398 0.01961 0.71112 0.0
C587 C 0.73004 0.01023 0.70251 0.0
C588 C 0.74859 0.03987 0.69428 0.0
H589 H 0.71504 0.00878 0.68324 0.0
C590 C 0.70028 0.01736 0.65639 0.0
O591 O 0.68154 0.04401 0.67124 0.0
O592 O 0.68863 0.03377 0.68989 0.0
N593 N 0.75112 0.05895 0.67799 0.0
C594 C 0.75858 0.07351 0.67303 0.0
C595 C 0.77252 0.08448 0.68071 0.0
C596 C 0.77871 0.08033 0.69328 0.0
C597 C 0.7709 0.06523 0.69807 0.0
C598 C 0.75706 0.05479 0.68997 0.0
H599 H 0.7539 0.07675 0.66333 0.0
O600 O 0.71311 0.06382 0.68776 0.0
O601 O 0.72035 0.04691 0.68189 0.0
O602 O 0.71196 0.05755 0.6547 0.0
O603 O 0.73128 0.05297 0.65174 0.0
C604 C 0.77623 0.06018 0.71066 0.0
C605 C 0.76748 0.04498 0.71521 0.0
H606 H 0.74722 0.01511 0.72092 0.0
H607 H 0.72263 0.99857 0.70564 0.0
H608 H 0.77848 0.09611 0.67694 0.0
H609 H 0.78944 0.08885 0.69923 0.0
H610 H 0.78696 0.06797 0.71707 0.0
H611 H 0.77157 0.04132 0.72509 0.0
Mn612 Mn 0.95852 0.68056 0.70714 0.0
Mn613 Mn 0.92413 0.64841 0.70563 0.0
C614 C 0.93962 0.67736 0.68895 0.0
C615 C 0.98328 0.693 0.6996 0.0
C616 C 0.93493 0.67485 0.73041 0.0
O617 O 0.96244 0.66583 0.71955 0.0
O618 O 0.93956 0.64424 0.71592 0.0
C619 C 0.92959 0.62825 0.68403 0.0
N620 N 0.92148 0.63529 0.68768 0.0
C621 C 0.90506 0.62411 0.66428 0.0
C622 C 0.91318 0.61666 0.66031 0.0
C623 C 0.92552 0.61877 0.67022 0.0
C624 C 0.9096 0.63335 0.67823 0.0
H625 H 0.93912 0.62988 0.69159 0.0
C626 C 0.95354 0.6515 0.72112 0.0
O627 O 0.97978 0.69767 0.71219 0.0
O628 O 0.97245 0.68106 0.6916 0.0
N629 N 0.90824 0.65082 0.69576 0.0
C630 C 0.90214 0.6595 0.70084 0.0
C631 C 0.88993 0.65903 0.69203 0.0
C632 C 0.88407 0.6496 0.67816 0.0
C633 C 0.89047 0.64069 0.67321 0.0
C634 C 0.90253 0.64152 0.68254 0.0
H635 H 0.90659 0.66678 0.71149 0.0
O636 O 0.95099 0.69105 0.69282 0.0
O637 O 0.93976 0.66604 0.69576 0.0
O638 O 0.94765 0.6838 0.72506 0.0
O639 O 0.92564 0.66134 0.72424 0.0
C640 C 0.88552 0.63123 0.65926 0.0
C641 C 0.89283 0.62297 0.65478 0.0
H642 H 0.91013 0.60941 0.64963 0.0
H643 H 0.93189 0.61312 0.6672 0.0
H644 H 0.88506 0.66596 0.69591 0.0
H645 H 0.87472 0.64935 0.67135 0.0
H646 H 0.87625 0.6304 0.65178 0.0
H647 H 0.88907 0.61592 0.64392 0.0
H648 H 0.16331 0.33586 0.05355 0.0
H649 H 0.24853 0.29636 0.17519 0.0
H650 H 0.15702 0.33697 0.1384 0.0
H651 H 0.13599 0.33948 0.12692 0.0
H652 H 0.10612 0.29035 0.12896 0.0
H653 H 0.12743 0.28796 0.14033 0.0
H654 H 0.18243 0.33834 0.11906 0.0
H655 H 0.17781 0.34181 0.09182 0.0
H656 H 0.14169 0.29422 0.086 0.0
H657 H 0.14655 0.29087 0.11322 0.0
H658 H 0.20863 0.33784 0.14007 0.0
H659 H 0.22825 0.34378 0.12202 0.0
H660 H 0.19938 0.29994 0.09623 0.0
H661 H 0.17994 0.29388 0.11476 0.0
H662 H 0.20781 0.3322 0.17385 0.0
H663 H 0.23073 0.33166 0.1828 0.0
H664 H 0.21359 0.28729 0.15754 0.0
H665 H 0.19064 0.2879 0.14882 0.0
H666 H 0.181 0.33158 0.1888 0.0
H667 H 0.18903 0.33204 0.216 0.0
H668 H 0.18063 0.28529 0.20842 0.0
H669 H 0.1729 0.28511 0.18106 0.0
H670 H 0.1544 0.33172 0.17205 0.0
H671 H 0.1383 0.3306 0.19274 0.0
H672 H 0.12473 0.28256 0.19714 0.0
H673 H 0.1407 0.28375 0.17624 0.0
O674 O 0.16499 0.33422 0.06427 0.0
O675 O 0.14648 0.3097 0.06191 0.0
O676 O 0.24785 0.31965 0.18468 0.0
O677 O 0.23957 0.29686 0.17184 0.0
C678 C 0.15698 0.31078 0.14538 0.0
C679 C 0.16761 0.31227 0.13462 0.0
C680 C 0.18098 0.31219 0.1397 0.0
C681 C 0.18354 0.31027 0.15549 0.0
C682 C 0.17289 0.30878 0.16622 0.0
C683 C 0.15956 0.30895 0.16116 0.0
C684 C 0.14371 0.31229 0.14014 0.0
C685 C 0.14588 0.3268 0.13657 0.0
C686 C 0.13384 0.3282 0.13009 0.0
C687 C 0.11939 0.3151 0.12704 0.0
C688 C 0.11715 0.30062 0.13107 0.0
C689 C 0.12924 0.29924 0.13765 0.0
C690 C 0.16487 0.31434 0.11806 0.0
C691 C 0.17359 0.32866 0.11185 0.0
C692 C 0.17089 0.33061 0.0963 0.0
C693 C 0.15938 0.31828 0.08672 0.0
C694 C 0.15064 0.30395 0.09304 0.0
C695 C 0.15339 0.302 0.10858 0.0
C696 C 0.1929 0.31541 0.12877 0.0
C697 C 0.2066 0.32946 0.1306 0.0
C698 C 0.21772 0.3329 0.12016 0.0
C699 C 0.21535 0.32239 0.1076 0.0
C700 C 0.20162 0.30823 0.10585 0.0
C701 C 0.19048 0.30478 0.11636 0.0
C702 C 0.19753 0.31003 0.16079 0.0
C703 C 0.20899 0.32233 0.17035 0.0
C704 C 0.22209 0.32202 0.1754 0.0
C705 C 0.22398 0.30941 0.1709 0.0
C706 C 0.21249 0.29716 0.16123 0.0
C707 C 0.19938 0.29748 0.15622 0.0
C708 C 0.17636 0.30831 0.183 0.0
C709 C 0.18069 0.32136 0.19309 0.0
C710 C 0.18522 0.32157 0.20864 0.0
C711 C 0.1855 0.3087 0.2144 0.0
C712 C 0.18075 0.29546 0.20431 0.0
C713 C 0.17624 0.29529 0.18872 0.0
C714 C 0.14865 0.3078 0.17261 0.0
C715 C 0.14773 0.32089 0.1773 0.0
C716 C 0.13865 0.32026 0.18921 0.0
C717 C 0.1303 0.30651 0.19664 0.0
C718 C 0.1309 0.29327 0.19156 0.0
C719 C 0.14004 0.29394 0.17967 0.0
C720 C 0.15651 0.32041 0.07023 0.0
C721 C 0.23787 0.30901 0.17625 0.0
H722 H 0.68006 0.84086 0.06955 0.0
H723 H 0.73176 0.95964 0.20688 0.0
H724 H 0.6764 0.82691 0.15178 0.0
H725 H 0.67071 0.80189 0.13976 0.0
H726 H 0.71693 0.81291 0.15153 0.0
H727 H 0.7225 0.838 0.16362 0.0
H728 H 0.67884 0.85452 0.13574 0.0
H729 H 0.67516 0.84843 0.10762 0.0
H730 H 0.7195 0.85238 0.10808 0.0
H731 H 0.72308 0.85862 0.13618 0.0
H732 H 0.68202 0.88068 0.16086 0.0
H733 H 0.67834 0.89864 0.14527 0.0
H734 H 0.71923 0.9099 0.12276 0.0
H735 H 0.72319 0.89215 0.13894 0.0
H736 H 0.68746 0.88338 0.19333 0.0
H737 H 0.69148 0.90802 0.20478 0.0
H738 H 0.73616 0.93125 0.18759 0.0
H739 H 0.73208 0.90647 0.17642 0.0
H740 H 0.68299 0.85381 0.20514 0.0
H741 H 0.68124 0.86239 0.23134 0.0
H742 H 0.72914 0.89589 0.23421 0.0
H743 H 0.73072 0.88719 0.20779 0.0
H744 H 0.67932 0.8286 0.19008 0.0
H745 H 0.67712 0.81027 0.20908 0.0
H746 H 0.72609 0.8318 0.21435 0.0
H747 H 0.72803 0.85075 0.19608 0.0
O748 O 0.68178 0.84336 0.08067 0.0
O749 O 0.70463 0.84549 0.08154 0.0
O750 O 0.70691 0.9372 0.21124 0.0
O751 O 0.72988 0.94974 0.20246 0.0
C752 C 0.70329 0.84968 0.16504 0.0
C753 C 0.70344 0.86067 0.15504 0.0
C754 C 0.70518 0.87477 0.16136 0.0
C755 C 0.70731 0.87809 0.17762 0.0
C756 C 0.70698 0.86704 0.18761 0.0
C757 C 0.70499 0.85285 0.18131 0.0
C758 C 0.69987 0.83427 0.15846 0.0
C759 C 0.68529 0.8239 0.15177 0.0
C760 C 0.68209 0.80967 0.14485 0.0
C761 C 0.69342 0.80549 0.14457 0.0
C762 C 0.70795 0.81577 0.15164 0.0
C763 C 0.71117 0.83008 0.15851 0.0
C764 C 0.70127 0.85713 0.13796 0.0
C765 C 0.68778 0.85418 0.12972 0.0
C766 C 0.68569 0.85065 0.11367 0.0
C767 C 0.69705 0.84994 0.10559 0.0
C768 C 0.71054 0.85285 0.11393 0.0
C769 C 0.71262 0.85641 0.12997 0.0
C770 C 0.70299 0.8853 0.15121 0.0
C771 C 0.69029 0.88714 0.15271 0.0
C772 C 0.68821 0.89737 0.14381 0.0
C773 C 0.69862 0.90575 0.133 0.0
C774 C 0.71111 0.90358 0.1311 0.0
C775 C 0.71336 0.89349 0.14027 0.0
C776 C 0.70956 0.89312 0.18422 0.0
C777 C 0.69815 0.89379 0.19216 0.0
C778 C 0.70046 0.90789 0.19862 0.0
C779 C 0.71417 0.92161 0.19714 0.0
C780 C 0.72549 0.92091 0.18898 0.0
C781 C 0.72319 0.90678 0.18257 0.0
C782 C 0.707 0.8698 0.20461 0.0
C783 C 0.69323 0.86257 0.21165 0.0
C784 C 0.69225 0.86755 0.22662 0.0
C785 C 0.70503 0.87993 0.23482 0.0
C786 C 0.71905 0.88647 0.2281 0.0
C787 C 0.72002 0.88143 0.21311 0.0
C788 C 0.70382 0.841 0.19183 0.0
C789 C 0.68954 0.82929 0.19535 0.0
C790 C 0.68834 0.81873 0.20613 0.0
C791 C 0.70144 0.81947 0.21335 0.0
C792 C 0.71575 0.83102 0.20933 0.0
C793 C 0.71692 0.84178 0.19878 0.0
C794 C 0.69477 0.84614 0.08855 0.0
C795 C 0.7167 0.93661 0.20405 0.0
H796 H 0.13988 0.85068 0.05699 0.0
H797 H 0.26796 0.94508 0.17917 0.0
H798 H 0.13234 0.85652 0.13752 0.0
H799 H 0.1092 0.833 0.12721 0.0
H800 H 0.12497 0.80523 0.15012 0.0
H801 H 0.14822 0.82866 0.15993 0.0
H802 H 0.1607 0.88117 0.11949 0.0
H803 H 0.15196 0.87234 0.09222 0.0
H804 H 0.1522 0.82988 0.1 0.0
H805 H 0.16113 0.83895 0.12718 0.0
H806 H 0.1942 0.9082 0.13631 0.0
H807 H 0.21404 0.91994 0.11822 0.0
H808 H 0.21178 0.87589 0.10921 0.0
H809 H 0.1928 0.86463 0.12807 0.0
H810 H 0.19247 0.91205 0.1741 0.0
H811 H 0.2174 0.93456 0.18142 0.0
H812 H 0.23881 0.90881 0.16589 0.0
H813 H 0.21382 0.88633 0.1588 0.0
H814 H 0.16644 0.88777 0.1962 0.0
H815 H 0.17773 0.89707 0.22299 0.0
H816 H 0.21162 0.8842 0.21429 0.0
H817 H 0.20006 0.87447 0.18789 0.0
H818 H 0.1347 0.85985 0.17663 0.0
H819 H 0.11793 0.8435 0.19575 0.0
H820 H 0.15115 0.83033 0.20962 0.0
H821 H 0.16751 0.84621 0.19015 0.0
O822 O 0.14342 0.85399 0.06779 0.0
O823 O 0.14365 0.83232 0.07243 0.0
O824 O 0.24639 0.94906 0.18428 0.0
O825 O 0.25797 0.93635 0.17639 0.0
C826 C 0.15693 0.8583 0.15377 0.0
C827 C 0.16658 0.86604 0.14193 0.0
C828 C 0.18126 0.8787 0.14586 0.0
C829 C 0.18612 0.88393 0.16162 0.0
C830 C 0.17663 0.87602 0.1735 0.0
C831 C 0.16202 0.86318 0.16959 0.0
C832 C 0.14196 0.84431 0.14949 0.0
C833 C 0.13068 0.84536 0.14048 0.0
C834 C 0.11752 0.83196 0.13459 0.0
C835 C 0.11533 0.81734 0.13789 0.0
C836 C 0.12629 0.81636 0.14756 0.0
C837 C 0.13956 0.82973 0.1532 0.0
C838 C 0.16145 0.86066 0.12533 0.0
C839 C 0.1589 0.86999 0.11526 0.0
C840 C 0.15388 0.8649 0.0997 0.0
C841 C 0.15133 0.85038 0.09394 0.0
C842 C 0.15401 0.84111 0.10407 0.0
C843 C 0.15907 0.84623 0.1196 0.0
C844 C 0.19207 0.88556 0.13358 0.0
C845 C 0.19799 0.90111 0.13038 0.0
C846 C 0.20925 0.90776 0.11991 0.0
C847 C 0.21465 0.89891 0.11227 0.0
C848 C 0.20819 0.88317 0.11508 0.0
C849 C 0.19715 0.87663 0.12572 0.0
C850 C 0.20134 0.89761 0.16582 0.0
C851 C 0.20256 0.91131 0.17229 0.0
C852 C 0.21681 0.92414 0.17645 0.0
C853 C 0.23011 0.92349 0.17421 0.0
C854 C 0.22882 0.90971 0.16774 0.0
C855 C 0.21456 0.89688 0.16362 0.0
C856 C 0.18256 0.88064 0.19004 0.0
C857 C 0.17617 0.88678 0.20018 0.0
C858 C 0.18261 0.89209 0.2154 0.0
C859 C 0.19564 0.89152 0.22054 0.0
C860 C 0.20172 0.88498 0.21049 0.0
C861 C 0.19514 0.87944 0.19545 0.0
C862 C 0.15235 0.85426 0.18201 0.0
C863 C 0.13835 0.85348 0.18387 0.0
C864 C 0.12884 0.8442 0.19485 0.0
C865 C 0.13315 0.83553 0.20417 0.0
C866 C 0.14735 0.83664 0.20248 0.0
C867 C 0.15681 0.84586 0.19148 0.0
C868 C 0.14591 0.84497 0.07743 0.0
C869 C 0.24527 0.9371 0.17861 0.0
H870 H 0.28449 0.16252 0.99348 0.0
H871 H 0.30491 0.05822 0.87848 0.0
H872 H 0.27533 0.16317 0.91128 0.0
H873 H 0.28105 0.18909 0.92075 0.0
H874 H 0.32534 0.20829 0.90288 0.0
H875 H 0.31976 0.18237 0.89405 0.0
H876 H 0.27192 0.1336 0.93037 0.0
H877 H 0.27287 0.14235 0.95746 0.0
H878 H 0.3191 0.17881 0.95431 0.0
H879 H 0.31806 0.16982 0.92731 0.0
H880 H 0.27289 0.10267 0.91507 0.0
H881 H 0.27785 0.08637 0.93228 0.0
H882 H 0.32324 0.12427 0.94409 0.0
H883 H 0.31828 0.14033 0.9268 0.0
H884 H 0.26969 0.09968 0.87804 0.0
H885 H 0.26923 0.07529 0.87193 0.0
H886 H 0.31589 0.09597 0.89056 0.0
H887 H 0.31624 0.12032 0.89641 0.0
H888 H 0.27215 0.1225 0.85491 0.0
H889 H 0.27454 0.11143 0.83 0.0
H890 H 0.32186 0.12794 0.84341 0.0
H891 H 0.3192 0.1384 0.86825 0.0
H892 H 0.27425 0.15934 0.87337 0.0
H893 H 0.27675 0.17695 0.85308 0.0
H894 H 0.3197 0.18111 0.84295 0.0
H895 H 0.31759 0.16426 0.8637 0.0
O896 O 0.28438 0.15923 0.98278 0.0
O897 O 0.3081 0.17782 0.98053 0.0
O898 O 0.28088 0.05771 0.87108 0.0
O899 O 0.30479 0.06773 0.88071 0.0
C900 C 0.29467 0.15513 0.89821 0.0
C901 C 0.29417 0.14579 0.9104 0.0
C902 C 0.29352 0.13152 0.90699 0.0
C903 C 0.29316 0.12649 0.8914 0.0
C904 C 0.2938 0.13584 0.87925 0.0
C905 C 0.29445 0.15014 0.88258 0.0
C906 C 0.29714 0.17089 0.90202 0.0
C907 C 0.28618 0.17302 0.90927 0.0
C908 C 0.28944 0.18783 0.91458 0.0
C909 C 0.30371 0.20072 0.91269 0.0
C910 C 0.31435 0.19857 0.90475 0.0
C911 C 0.31112 0.18379 0.89954 0.0
C912 C 0.29486 0.15115 0.92685 0.0
C913 C 0.28224 0.14346 0.93557 0.0
C914 C 0.28281 0.14849 0.95103 0.0
C915 C 0.29605 0.16131 0.95804 0.0
C916 C 0.30872 0.16893 0.94926 0.0
C917 C 0.30814 0.16386 0.93382 0.0
C918 C 0.29522 0.12269 0.9197 0.0
C919 C 0.28377 0.10753 0.92167 0.0
C920 C 0.28665 0.09823 0.93141 0.0
C921 C 0.30096 0.10402 0.93947 0.0
C922 C 0.31205 0.11952 0.9382 0.0
C923 C 0.30922 0.12874 0.92835 0.0
C924 C 0.29296 0.1117 0.88775 0.0
C925 C 0.2798 0.0989 0.88076 0.0
C926 C 0.27957 0.085 0.8773 0.0
C927 C 0.29252 0.08367 0.88079 0.0
C928 C 0.30571 0.09658 0.88775 0.0
C929 C 0.30594 0.11049 0.89114 0.0
C930 C 0.2955 0.13121 0.86332 0.0
C931 C 0.28305 0.12389 0.85228 0.0
C932 C 0.28445 0.1176 0.8381 0.0
C933 C 0.29834 0.1186 0.83484 0.0
C934 C 0.31092 0.12663 0.8457 0.0
C935 C 0.30948 0.13277 0.85982 0.0
C936 C 0.29559 0.16022 0.86982 0.0
C937 C 0.28418 0.16403 0.86674 0.0
C938 C 0.28561 0.17407 0.85521 0.0
C939 C 0.29833 0.18019 0.8464 0.0
C940 C 0.30967 0.1763 0.84943 0.0
C941 C 0.30842 0.16659 0.86118 0.0
C942 C 0.2966 0.16666 0.97445 0.0
C943 C 0.29232 0.0689 0.87721 0.0
H944 H 0.8363 0.16373 0.99973 0.0
H945 H 0.74826 0.04288 0.86791 0.0
H946 H 0.84123 0.1737 0.91711 0.0
H947 H 0.86259 0.19701 0.93006 0.0
H948 H 0.89258 0.17928 0.9199 0.0
H949 H 0.871 0.15585 0.90689 0.0
H950 H 0.8162 0.14943 0.93364 0.0
H951 H 0.82125 0.15651 0.96158 0.0
H952 H 0.85701 0.1449 0.96262 0.0
H953 H 0.8517 0.13768 0.93469 0.0
H954 H 0.79006 0.12449 0.91049 0.0
H955 H 0.77077 0.11161 0.9288 0.0
H956 H 0.79789 0.09399 0.95032 0.0
H957 H 0.81729 0.10713 0.93194 0.0
H958 H 0.79047 0.11978 0.8758 0.0
H959 H 0.76727 0.09655 0.86539 0.0
H960 H 0.78332 0.0682 0.88671 0.0
H961 H 0.80654 0.09153 0.89688 0.0
H962 H 0.81794 0.14633 0.86194 0.0
H963 H 0.80972 0.13889 0.83442 0.0
H964 H 0.81626 0.09944 0.83814 0.0
H965 H 0.82426 0.1069 0.86579 0.0
H966 H 0.84497 0.17348 0.88257 0.0
H967 H 0.86172 0.1899 0.86357 0.0
H968 H 0.87276 0.15448 0.85108 0.0
H969 H 0.85603 0.13815 0.87024 0.0
O970 O 0.83443 0.16079 0.98871 0.0
O971 O 0.85274 0.15472 0.9886 0.0
O972 O 0.74963 0.06735 0.8611 0.0
O973 O 0.75733 0.05225 0.87188 0.0
C974 C 0.84118 0.14835 0.90491 0.0
C975 C 0.83055 0.13878 0.91518 0.0
C976 C 0.81704 0.12548 0.90927 0.0
C977 C 0.81439 0.12142 0.89313 0.0
C978 C 0.82511 0.13088 0.88286 0.0
C979 C 0.8385 0.1444 0.88874 0.0
C980 C 0.85457 0.16306 0.9112 0.0
C981 C 0.85243 0.1749 0.91759 0.0
C982 C 0.86461 0.18814 0.92505 0.0
C983 C 0.8792 0.18985 0.92618 0.0
C984 C 0.88146 0.17826 0.91917 0.0
C985 C 0.86919 0.16491 0.91176 0.0
C986 C 0.83351 0.14294 0.93219 0.0
C987 C 0.82503 0.14831 0.93995 0.0
C988 C 0.82799 0.15241 0.9559 0.0
C989 C 0.83953 0.15126 0.96434 0.0
C990 C 0.84803 0.1459 0.95648 0.0
C991 C 0.84503 0.14178 0.94054 0.0
C992 C 0.80501 0.11666 0.91983 0.0
C993 C 0.79174 0.11768 0.91903 0.0
C994 C 0.78073 0.1103 0.9295 0.0
C995 C 0.78277 0.10174 0.94101 0.0
C996 C 0.79605 0.10062 0.9417 0.0
C997 C 0.80708 0.10801 0.93117 0.0
C998 C 0.80022 0.10732 0.88699 0.0
C999 C 0.78898 0.10854 0.87813 0.0
C1000 C 0.77573 0.09525 0.87224 0.0
C1001 C 0.77345 0.08051 0.87519 0.0
C1002 C 0.78471 0.07936 0.88419 0.0
C1003 C 0.79797 0.09266 0.89004 0.0
C1004 C 0.82168 0.12715 0.86584 0.0
C1005 C 0.81783 0.13623 0.85673 0.0
C1006 C 0.81318 0.13198 0.841 0.0
C1007 C 0.81229 0.11854 0.83408 0.0
C1008 C 0.81663 0.10974 0.84316 0.0
C1009 C 0.82128 0.11401 0.85891 0.0
C1010 C 0.84937 0.15467 0.87786 0.0
C1011 C 0.8512 0.16938 0.87591 0.0
C1012 C 0.86076 0.17873 0.86505 0.0
C1013 C 0.86856 0.17348 0.85583 0.0
C1014 C 0.86679 0.15878 0.85791 0.0
C1015 C 0.85732 0.14948 0.86888 0.0
C1016 C 0.84268 0.15568 0.98127 0.0
C1017 C 0.7594 0.06635 0.86894 0.0
H1018 H 0.85306 0.70455 0.0135 0.0
H1019 H 0.73752 0.67089 0.87863 0.0
H1020 H 0.86938 0.71789 0.93396 0.0
H1021 H 0.89051 0.71655 0.94721 0.0
H1022 H 0.87361 0.67078 0.92533 0.0
H1023 H 0.85269 0.67231 0.91208 0.0
H1024 H 0.83992 0.71507 0.94983 0.0
H1025 H 0.84568 0.7148 0.97763 0.0
H1026 H 0.84232 0.67015 0.9695 0.0
H1027 H 0.83638 0.67049 0.94177 0.0
H1028 H 0.80985 0.71055 0.93148 0.0
H1029 H 0.78903 0.70418 0.94831 0.0
H1030 H 0.78384 0.65883 0.95266 0.0
H1031 H 0.80442 0.66521 0.9357 0.0
H1032 H 0.81245 0.71423 0.89396 0.0
H1033 H 0.78833 0.71177 0.88408 0.0
H1034 H 0.76519 0.66363 0.89421 0.0
H1035 H 0.78941 0.66622 0.90389 0.0
H1036 H 0.83829 0.7168 0.87529 0.0
H1037 H 0.82986 0.71527 0.84781 0.0
H1038 H 0.80003 0.66609 0.84937 0.0
H1039 H 0.80857 0.66774 0.87668 0.0
H1040 H 0.8689 0.71989 0.89471 0.0
H1041 H 0.88616 0.72173 0.87492 0.0
H1042 H 0.85634 0.67353 0.86037 0.0
H1043 H 0.8394 0.67178 0.88033 0.0
O1044 O 0.85067 0.70437 0.00248 0.0
O1045 O 0.8489 0.68147 0.99767 0.0
O1046 O 0.75966 0.69697 0.87741 0.0
O1047 O 0.74721 0.67219 0.88246 0.0
C1048 C 0.84534 0.6948 0.91628 0.0
C1049 C 0.83457 0.69321 0.92692 0.0
C1050 C 0.82053 0.69165 0.92148 0.0
C1051 C 0.81735 0.69197 0.90546 0.0
C1052 C 0.82802 0.69338 0.89482 0.0
C1053 C 0.84201 0.69478 0.9002 0.0
C1054 C 0.85954 0.69521 0.92204 0.0
C1055 C 0.87047 0.70774 0.93178 0.0
C1056 C 0.88243 0.70689 0.93944 0.0
C1057 C 0.88367 0.6935 0.93743 0.0
C1058 C 0.87311 0.68132 0.92701 0.0
C1059 C 0.86114 0.68217 0.91939 0.0
C1060 C 0.83783 0.69285 0.9438 0.0
C1061 C 0.84038 0.70523 0.9541 0.0
C1062 C 0.8437 0.70505 0.96996 0.0
C1063 C 0.84451 0.69248 0.97578 0.0
C1064 C 0.84183 0.68003 0.9654 0.0
C1065 C 0.83847 0.68021 0.94956 0.0
C1066 C 0.80862 0.68834 0.93241 0.0
C1067 C 0.80425 0.69929 0.93616 0.0
C1068 C 0.79242 0.69566 0.94581 0.0
C1069 C 0.78476 0.68098 0.95173 0.0
C1070 C 0.78938 0.67015 0.94811 0.0
C1071 C 0.80121 0.67381 0.93854 0.0
C1072 C 0.80264 0.69043 0.89969 0.0
C1073 C 0.80215 0.70317 0.89402 0.0
C1074 C 0.78836 0.70173 0.8884 0.0
C1075 C 0.77482 0.6875 0.88838 0.0
C1076 C 0.77539 0.67475 0.89408 0.0
C1077 C 0.78919 0.67621 0.89966 0.0
C1078 C 0.82399 0.69238 0.87792 0.0
C1079 C 0.83008 0.7057 0.86959 0.0
C1080 C 0.8252 0.70481 0.85397 0.0
C1081 C 0.81428 0.69056 0.84645 0.0
C1082 C 0.80859 0.67719 0.85477 0.0
C1083 C 0.81338 0.67811 0.87037 0.0
C1084 C 0.85291 0.69572 0.88889 0.0
C1085 C 0.86622 0.70972 0.88732 0.0
C1086 C 0.87599 0.71076 0.87597 0.0
C1087 C 0.87261 0.69777 0.86607 0.0
C1088 C 0.85938 0.68369 0.86793 0.0
C1089 C 0.84964 0.68268 0.87924 0.0
C1090 C 0.84815 0.69238 0.99262 0.0
C1091 C 0.76014 0.6859 0.88241 0.0
H1092 H 0.82321 0.66377 0.38161 0.0
H1093 H 0.91515 0.63725 0.50687 0.0
H1094 H 0.8193 0.66959 0.46671 0.0
H1095 H 0.79783 0.67195 0.45642 0.0
H1096 H 0.7679 0.62328 0.46126 0.0
H1097 H 0.78968 0.62101 0.47147 0.0
H1098 H 0.84385 0.67039 0.44727 0.0
H1099 H 0.83849 0.67214 0.41972 0.0
H1100 H 0.80321 0.62416 0.41652 0.0
H1101 H 0.80882 0.62252 0.44405 0.0
H1102 H 0.8707 0.67241 0.46863 0.0
H1103 H 0.89027 0.67819 0.45057 0.0
H1104 H 0.86268 0.63284 0.42712 0.0
H1105 H 0.8433 0.62699 0.44567 0.0
H1106 H 0.87069 0.66889 0.50288 0.0
H1107 H 0.89452 0.67037 0.51214 0.0
H1108 H 0.87947 0.62534 0.48926 0.0
H1109 H 0.85561 0.62393 0.48024 0.0
H1110 H 0.84151 0.66701 0.51741 0.0
H1111 H 0.85078 0.67048 0.54463 0.0
H1112 H 0.85069 0.62712 0.54005 0.0
H1113 H 0.8405 0.62333 0.51299 0.0
H1114 H 0.81537 0.6649 0.50037 0.0
H1115 H 0.79902 0.66365 0.52073 0.0
H1116 H 0.78848 0.61681 0.52784 0.0
H1117 H 0.80514 0.61832 0.5076 0.0
O1118 O 0.82517 0.66281 0.39247 0.0
O1119 O 0.80711 0.63813 0.39147 0.0
O1120 O 0.91302 0.66007 0.51496 0.0
O1121 O 0.90583 0.63697 0.50336 0.0
C1122 C 0.81942 0.64389 0.47509 0.0
C1123 C 0.83 0.64526 0.46434 0.0
C1124 C 0.84378 0.64608 0.46956 0.0
C1125 C 0.84683 0.64525 0.48553 0.0
C1126 C 0.8362 0.64382 0.49629 0.0
C1127 C 0.8224 0.64297 0.49104 0.0
C1128 C 0.80601 0.64513 0.46977 0.0
C1129 C 0.80808 0.65946 0.46565 0.0
C1130 C 0.79579 0.6608 0.45989 0.0
C1131 C 0.78115 0.64781 0.45811 0.0
C1132 C 0.77906 0.63346 0.46244 0.0
C1133 C 0.79142 0.63215 0.46832 0.0
C1134 C 0.82679 0.6463 0.4476 0.0
C1135 C 0.83504 0.66025 0.44056 0.0
C1136 C 0.83192 0.66123 0.42484 0.0
C1137 C 0.82043 0.64828 0.41591 0.0
C1138 C 0.81215 0.63434 0.42306 0.0
C1139 C 0.81531 0.63337 0.43877 0.0
C1140 C 0.85563 0.64925 0.45853 0.0
C1141 C 0.86894 0.66368 0.45967 0.0
C1142 C 0.88003 0.66702 0.44922 0.0
C1143 C 0.87801 0.65602 0.43731 0.0
C1144 C 0.86465 0.64152 0.43622 0.0
C1145 C 0.85354 0.63818 0.44675 0.0
C1146 C 0.86139 0.64625 0.491 0.0
C1147 C 0.87253 0.65933 0.49996 0.0
C1148 C 0.88615 0.66016 0.50519 0.0
C1149 C 0.88889 0.64795 0.50146 0.0
C1150 C 0.87772 0.63493 0.49236 0.0
C1151 C 0.86409 0.6341 0.48717 0.0
C1152 C 0.84029 0.6449 0.51322 0.0
C1153 C 0.8431 0.65806 0.5224 0.0
C1154 C 0.8486 0.66012 0.5379 0.0
C1155 C 0.85168 0.64918 0.5445 0.0
C1156 C 0.84832 0.63571 0.53541 0.0
C1157 C 0.8426 0.63356 0.51992 0.0
C1158 C 0.81137 0.64167 0.50243 0.0
C1159 C 0.80932 0.65428 0.50614 0.0
C1160 C 0.79993 0.65352 0.51778 0.0
C1161 C 0.7924 0.64012 0.52596 0.0
C1162 C 0.79424 0.62737 0.52193 0.0
C1163 C 0.80366 0.62816 0.5103 0.0
C1164 C 0.81712 0.64937 0.39922 0.0
C1165 C 0.90332 0.64876 0.50702 0.0
H1166 H 0.34395 0.16801 0.39853 0.0
H1167 H 0.38939 0.29094 0.53099 0.0
H1168 H 0.33897 0.15681 0.48326 0.0
H1169 H 0.33371 0.13109 0.47371 0.0
H1170 H 0.38111 0.14518 0.48255 0.0
H1171 H 0.38626 0.17093 0.49224 0.0
H1172 H 0.34097 0.18248 0.46408 0.0
H1173 H 0.33785 0.17556 0.43614 0.0
H1174 H 0.3841 0.18454 0.43755 0.0
H1175 H 0.38709 0.19156 0.46548 0.0
H1176 H 0.34183 0.20643 0.48303 0.0
H1177 H 0.33821 0.22485 0.4682 0.0
H1178 H 0.38513 0.24688 0.45733 0.0
H1179 H 0.38854 0.22801 0.47205 0.0
H1180 H 0.34805 0.21427 0.51839 0.0
H1181 H 0.35033 0.23871 0.5282 0.0
H1182 H 0.39645 0.26311 0.51477 0.0
H1183 H 0.39405 0.23855 0.50517 0.0
H1184 H 0.34584 0.18659 0.53434 0.0
H1185 H 0.34475 0.19601 0.56047 0.0
H1186 H 0.39239 0.23005 0.56145 0.0
H1187 H 0.39329 0.22061 0.53515 0.0
H1188 H 0.34183 0.1588 0.51632 0.0
H1189 H 0.33899 0.14038 0.53563 0.0
H1190 H 0.38698 0.16727 0.54927 0.0
H1191 H 0.38974 0.18553 0.52968 0.0
O1192 O 0.34545 0.17086 0.40958 0.0
O1193 O 0.36928 0.1756 0.41093 0.0
O1194 O 0.36446 0.26801 0.534 0.0
O1195 O 0.38818 0.28112 0.52721 0.0
C1196 C 0.36594 0.18114 0.49426 0.0
C1197 C 0.36613 0.19169 0.48367 0.0
C1198 C 0.36769 0.20589 0.48927 0.0
C1199 C 0.36957 0.2098 0.50539 0.0
C1200 C 0.36936 0.19927 0.516 0.0
C1201 C 0.36742 0.18488 0.51043 0.0
C1202 C 0.36298 0.16568 0.48841 0.0
C1203 C 0.3482 0.15432 0.48314 0.0
C1204 C 0.34522 0.13965 0.47778 0.0
C1205 C 0.35701 0.13615 0.47745 0.0
C1206 C 0.37185 0.14761 0.48262 0.0
C1207 C 0.37479 0.16226 0.48818 0.0
C1208 C 0.3643 0.18765 0.46672 0.0
C1209 C 0.35044 0.18306 0.45829 0.0
C1210 C 0.34868 0.17906 0.44235 0.0
C1211 C 0.36074 0.17952 0.43459 0.0
C1212 C 0.3746 0.18409 0.44315 0.0
C1213 C 0.37635 0.18811 0.45908 0.0
C1214 C 0.36541 0.21591 0.47855 0.0
C1215 C 0.35125 0.21508 0.47723 0.0
C1216 C 0.34927 0.22571 0.46891 0.0
C1217 C 0.36147 0.23748 0.46183 0.0
C1218 C 0.37554 0.23792 0.46264 0.0
C1219 C 0.3775 0.22719 0.471 0.0
C1220 C 0.37092 0.22467 0.51117 0.0
C1221 C 0.35865 0.22491 0.51765 0.0
C1222 C 0.35998 0.23888 0.5232 0.0
C1223 C 0.37359 0.25287 0.52229 0.0
C1224 C 0.38582 0.25256 0.51567 0.0
C1225 C 0.38449 0.23856 0.51016 0.0
C1226 C 0.36965 0.20289 0.53288 0.0
C1227 C 0.35614 0.19576 0.54039 0.0
C1228 C 0.35555 0.20119 0.55533 0.0
C1229 C 0.36846 0.21389 0.563 0.0
C1230 C 0.3822 0.22041 0.55576 0.0
C1231 C 0.38278 0.21495 0.54082 0.0
C1232 C 0.366 0.17339 0.52157 0.0
C1233 C 0.35175 0.16058 0.52334 0.0
C1234 C 0.35013 0.15017 0.53446 0.0
C1235 C 0.36276 0.15243 0.54399 0.0
C1236 C 0.37709 0.16517 0.54198 0.0
C1237 C 0.37868 0.17561 0.53088 0.0
C1238 C 0.35881 0.17523 0.41767 0.0
C1239 C 0.37507 0.26775 0.5282 0.0
H1240 H 0.80372 0.18364 0.38418 0.0
H1241 H 0.93431 0.27114 0.50535 0.0
H1242 H 0.797 0.18513 0.46683 0.0
H1243 H 0.77325 0.16192 0.45731 0.0
H1244 H 0.79145 0.13346 0.4736 0.0
H1245 H 0.81491 0.15662 0.48322 0.0
H1246 H 0.82481 0.21074 0.44787 0.0
H1247 H 0.81574 0.20329 0.42046 0.0
H1248 H 0.81785 0.16129 0.42441 0.0
H1249 H 0.82708 0.16898 0.45174 0.0
H1250 H 0.85756 0.23716 0.46428 0.0
H1251 H 0.87687 0.25078 0.44599 0.0
H1252 H 0.87866 0.20906 0.43539 0.0
H1253 H 0.85936 0.19559 0.45358 0.0
H1254 H 0.859 0.23983 0.50194 0.0
H1255 H 0.88429 0.26179 0.50927 0.0
H1256 H 0.9044 0.23544 0.49174 0.0
H1257 H 0.87904 0.21351 0.48464 0.0
H1258 H 0.83499 0.21715 0.52315 0.0
H1259 H 0.84703 0.2256 0.54966 0.0
H1260 H 0.87587 0.20625 0.5402 0.0
H1261 H 0.86407 0.19828 0.51374 0.0
H1262 H 0.80085 0.1872 0.50416 0.0
H1263 H 0.78445 0.17038 0.52319 0.0
H1264 H 0.81759 0.15641 0.53468 0.0
H1265 H 0.83344 0.17259 0.5151 0.0
O1266 O 0.80737 0.18639 0.39502 0.0
O1267 O 0.80858 0.16493 0.39769 0.0
O1268 O 0.91328 0.27564 0.51157 0.0
O1269 O 0.92419 0.26262 0.50261 0.0
C1270 C 0.82256 0.18648 0.48019 0.0
C1271 C 0.83193 0.19491 0.46844 0.0
C1272 C 0.84661 0.2075 0.47252 0.0
C1273 C 0.85182 0.21183 0.48834 0.0
C1274 C 0.84255 0.20331 0.50007 0.0
C1275 C 0.8279 0.19063 0.49603 0.0
C1276 C 0.80764 0.17253 0.47574 0.0
C1277 C 0.79571 0.17384 0.46851 0.0
C1278 C 0.78221 0.1606 0.46302 0.0
C1279 C 0.78043 0.14582 0.46469 0.0
C1280 C 0.79229 0.14462 0.47236 0.0
C1281 C 0.80575 0.15784 0.47783 0.0
C1282 C 0.8265 0.19036 0.4518 0.0
C1283 C 0.82333 0.19996 0.44277 0.0
C1284 C 0.81813 0.19566 0.42713 0.0
C1285 C 0.81603 0.18167 0.42025 0.0
C1286 C 0.81931 0.17212 0.42935 0.0
C1287 C 0.82454 0.17645 0.44497 0.0
C1288 C 0.85705 0.21539 0.46024 0.0
C1289 C 0.86201 0.23094 0.45784 0.0
C1290 C 0.87308 0.23871 0.44746 0.0
C1291 C 0.87935 0.23102 0.43926 0.0
C1292 C 0.87394 0.21528 0.44134 0.0
C1293 C 0.86293 0.20756 0.45175 0.0
C1294 C 0.86721 0.22513 0.4927 0.0
C1295 C 0.86889 0.23883 0.49972 0.0
C1296 C 0.88334 0.25135 0.50388 0.0
C1297 C 0.89637 0.25038 0.50106 0.0
C1298 C 0.89461 0.23659 0.49405 0.0
C1299 C 0.88015 0.22406 0.48994 0.0
C1300 C 0.84874 0.20721 0.51654 0.0
C1301 C 0.84383 0.21465 0.52691 0.0
C1302 C 0.85069 0.21942 0.54204 0.0
C1303 C 0.86254 0.21675 0.54701 0.0
C1304 C 0.86703 0.2088 0.53667 0.0
C1305 C 0.86023 0.20413 0.52158 0.0
C1306 C 0.81839 0.1812 0.5083 0.0
C1307 C 0.80455 0.18051 0.51083 0.0
C1308 C 0.79524 0.17096 0.52179 0.0
C1309 C 0.79966 0.16198 0.53048 0.0
C1310 C 0.81368 0.16294 0.52804 0.0
C1311 C 0.82288 0.17236 0.517 0.0
C1312 C 0.81044 0.17711 0.40365 0.0
C1313 C 0.91175 0.26367 0.50542 0.0
H1314 H 0.97922 0.50074 0.3268 0.0
H1315 H 0.007 0.41194 0.19812 0.0
H1316 H 0.96741 0.5059 0.24546 0.0
H1317 H 0.97096 0.53064 0.25627 0.0
H1318 H 0.01507 0.55427 0.23793 0.0
H1319 H 0.01162 0.52951 0.22767 0.0
H1320 H 0.96654 0.4763 0.26191 0.0
H1321 H 0.96762 0.48296 0.28968 0.0
H1322 H 0.01281 0.52168 0.28714 0.0
H1323 H 0.01165 0.51478 0.25943 0.0
H1324 H 0.96792 0.44726 0.24122 0.0
H1325 H 0.97222 0.42949 0.25678 0.0
H1326 H 0.01593 0.46717 0.27434 0.0
H1327 H 0.01196 0.48474 0.25817 0.0
H1328 H 0.9659 0.44685 0.20606 0.0
H1329 H 0.96782 0.42449 0.19665 0.0
H1330 H 0.01467 0.44726 0.21507 0.0
H1331 H 0.01265 0.46964 0.2242 0.0
H1332 H 0.96436 0.46986 0.18731 0.0
H1333 H 0.96467 0.45778 0.16215 0.0
H1334 H 0.01301 0.47629 0.17044 0.0
H1335 H 0.0125 0.488 0.19558 0.0
H1336 H 0.96481 0.50351 0.20798 0.0
H1337 H 0.96453 0.52152 0.18966 0.0
H1338 H 0.00878 0.53144 0.17639 0.0
H1339 H 0.00924 0.51407 0.1953 0.0
O1340 O 0.97904 0.49831 0.31582 0.0
O1341 O 0.00221 0.51811 0.31387 0.0
O1342 O 0.98184 0.40948 0.19234 0.0
O1343 O 0.00591 0.42059 0.20178 0.0
C1344 C 0.98791 0.5009 0.23063 0.0
C1345 C 0.98826 0.491 0.24181 0.0
C1346 C 0.9883 0.47734 0.23695 0.0
C1347 C 0.98811 0.47367 0.22096 0.0
C1348 C 0.9877 0.4835 0.20982 0.0
C1349 C 0.98743 0.49704 0.2146 0.0
C1350 C 0.98927 0.51592 0.23583 0.0
C1351 C 0.97777 0.51646 0.2437 0.0
C1352 C 0.97979 0.53059 0.24977 0.0
C1353 C 0.99335 0.54441 0.24804 0.0
C1354 C 0.0046 0.54382 0.23967 0.0
C1355 C 0.0026 0.52971 0.23366 0.0
C1356 C 0.98897 0.49511 0.25865 0.0
C1357 C 0.97667 0.4862 0.26739 0.0
C1358 C 0.97731 0.49004 0.28324 0.0
C1359 C 0.99029 0.50287 0.29062 0.0
C1360 C 0.00263 0.51175 0.28181 0.0
C1361 C 0.00198 0.50787 0.26598 0.0
C1362 C 0.98964 0.4673 0.24852 0.0
C1363 C 0.97833 0.45172 0.24858 0.0
C1364 C 0.98079 0.44161 0.25743 0.0
C1365 C 0.9944 0.44703 0.26668 0.0
C1366 C 0.0053 0.46279 0.26737 0.0
C1367 C 0.00301 0.47283 0.25822 0.0
C1368 C 0.98914 0.45985 0.21579 0.0
C1369 C 0.97656 0.44698 0.20803 0.0
C1370 C 0.97769 0.43423 0.20269 0.0
C1371 C 0.99141 0.4341 0.20509 0.0
C1372 C 0.00394 0.44698 0.21301 0.0
C1373 C 0.00282 0.45975 0.21829 0.0
C1374 C 0.98839 0.47974 0.19323 0.0
C1375 C 0.97506 0.47168 0.18342 0.0
C1376 C 0.97526 0.46477 0.16911 0.0
C1377 C 0.98882 0.46585 0.16448 0.0
C1378 C 0.00234 0.47498 0.17385 0.0
C1379 C 0.00211 0.48183 0.1881 0.0
C1380 C 0.98698 0.50737 0.20288 0.0
C1381 C 0.97442 0.50958 0.20108 0.0
C1382 C 0.97425 0.5198 0.19054 0.0
C1383 C 0.98663 0.52795 0.18151 0.0
C1384 C 0.99914 0.52556 0.18328 0.0
C1385 C 0.99935 0.51545 0.19393 0.0
C1386 C 0.99093 0.50694 0.30746 0.0
C1387 C 0.9927 0.42062 0.19934 0.0
H1388 H 0.50801 0.50515 0.33528 0.0
H1389 H 0.40968 0.38368 0.20267 0.0
H1390 H 0.50765 0.51246 0.24978 0.0
H1391 H 0.52943 0.53601 0.26184 0.0
H1392 H 0.55772 0.51529 0.25678 0.0
H1393 H 0.53571 0.49162 0.24464 0.0
H1394 H 0.48753 0.49369 0.26924 0.0
H1395 H 0.49375 0.50082 0.29712 0.0
H1396 H 0.51875 0.47616 0.29864 0.0
H1397 H 0.51236 0.46905 0.27074 0.0
H1398 H 0.46251 0.47258 0.25496 0.0
H1399 H 0.44225 0.4599 0.27227 0.0
H1400 H 0.45343 0.42351 0.27636 0.0
H1401 H 0.47441 0.437 0.2598 0.0
H1402 H 0.45462 0.4599 0.21615 0.0
H1403 H 0.43028 0.43789 0.20598 0.0
H1404 H 0.44616 0.40669 0.21948 0.0
H1405 H 0.47047 0.42882 0.22948 0.0
H1406 H 0.48253 0.4837 0.1981 0.0
H1407 H 0.47341 0.47585 0.1708 0.0
H1408 H 0.47798 0.43525 0.17487 0.0
H1409 H 0.48772 0.4436 0.20202 0.0
H1410 H 0.50787 0.50928 0.21598 0.0
H1411 H 0.5245 0.52532 0.19665 0.0
H1412 H 0.53929 0.49201 0.18857 0.0
H1413 H 0.52258 0.476 0.208 0.0
O1414 O 0.50562 0.50213 0.32429 0.0
O1415 O 0.51835 0.48932 0.32444 0.0
O1416 O 0.41157 0.40911 0.19985 0.0
O1417 O 0.41916 0.39258 0.20663 0.0
C1418 C 0.50646 0.48574 0.2406 0.0
C1419 C 0.49588 0.47664 0.25111 0.0
C1420 C 0.48203 0.46363 0.24552 0.0
C1421 C 0.47904 0.45927 0.22947 0.0
C1422 C 0.48973 0.4682 0.21894 0.0
C1423 C 0.5034 0.48154 0.22451 0.0
C1424 C 0.52012 0.50035 0.2465 0.0
C1425 C 0.51857 0.51305 0.25121 0.0
C1426 C 0.53099 0.52643 0.25815 0.0
C1427 C 0.54521 0.52739 0.26044 0.0
C1428 C 0.54689 0.51485 0.25513 0.0
C1429 C 0.53437 0.50137 0.24824 0.0
C1430 C 0.49939 0.48075 0.26805 0.0
C1431 C 0.49424 0.48974 0.27565 0.0
C1432 C 0.49786 0.49384 0.29156 0.0
C1433 C 0.50673 0.48904 0.30012 0.0
C1434 C 0.51188 0.48003 0.2924 0.0
C1435 C 0.50824 0.47593 0.27649 0.0
C1436 C 0.46992 0.45572 0.25621 0.0
C1437 C 0.46066 0.46196 0.25977 0.0
C1438 C 0.44897 0.45457 0.26953 0.0
C1439 C 0.44604 0.44055 0.27566 0.0
C1440 C 0.45544 0.43437 0.27207 0.0
C1441 C 0.46735 0.44196 0.26249 0.0
C1442 C 0.46423 0.4459 0.22357 0.0
C1443 C 0.45278 0.44829 0.2169 0.0
C1444 C 0.43892 0.43571 0.21111 0.0
C1445 C 0.43627 0.42052 0.21193 0.0
C1446 C 0.44781 0.41822 0.21868 0.0
C1447 C 0.46168 0.43082 0.22444 0.0
C1448 C 0.48585 0.46425 0.20199 0.0
C1449 C 0.4819 0.47331 0.19297 0.0
C1450 C 0.47652 0.4687 0.17744 0.0
C1451 C 0.47483 0.45484 0.17068 0.0
C1452 C 0.47929 0.44606 0.17964 0.0
C1453 C 0.48478 0.45075 0.19517 0.0
C1454 C 0.51409 0.49154 0.21339 0.0
C1455 C 0.51481 0.50553 0.21013 0.0
C1456 C 0.52421 0.5146 0.19903 0.0
C1457 C 0.53314 0.50987 0.19108 0.0
C1458 C 0.53261 0.49597 0.19461 0.0
C1459 C 0.52308 0.48682 0.20563 0.0
C1460 C 0.51061 0.49347 0.31701 0.0
C1461 C 0.42158 0.40711 0.20576 0.0
H1462 H 0.5141 0.01539 0.34352 0.0
H1463 H 0.3975 0.98226 0.21054 0.0
H1464 H 0.52944 0.028 0.26351 0.0
H1465 H 0.55157 0.02758 0.2754 0.0
H1466 H 0.53473 0.9816 0.25406 0.0
H1467 H 0.5128 0.98227 0.24207 0.0
H1468 H 0.50104 0.02588 0.27982 0.0
H1469 H 0.50695 0.02571 0.30759 0.0
H1470 H 0.50212 0.98039 0.29976 0.0
H1471 H 0.49606 0.98064 0.27204 0.0
H1472 H 0.47268 0.0238 0.25994 0.0
H1473 H 0.45305 0.02085 0.27712 0.0
H1474 H 0.44452 0.97498 0.286 0.0
H1475 H 0.46392 0.97793 0.26854 0.0
H1476 H 0.47285 0.02437 0.22288 0.0
H1477 H 0.44875 0.0221 0.21322 0.0
H1478 H 0.42499 0.97499 0.22659 0.0
H1479 H 0.44917 0.97736 0.23601 0.0
H1480 H 0.50041 0.0266 0.20531 0.0
H1481 H 0.49148 0.02641 0.17835 0.0
H1482 H 0.45702 0.97855 0.18003 0.0
H1483 H 0.46606 0.97883 0.20688 0.0
H1484 H 0.5297 0.02948 0.22725 0.0
H1485 H 0.54795 0.03217 0.20841 0.0
H1486 H 0.51681 0.98594 0.18865 0.0
H1487 H 0.49894 0.98318 0.20792 0.0
O1488 O 0.51167 0.01518 0.33251 0.0
O1489 O 0.50914 0.99193 0.32785 0.0
O1490 O 0.41994 0.00772 0.20753 0.0
O1491 O 0.40718 0.98349 0.21428 0.0
C1492 C 0.50524 0.00465 0.2463 0.0
C1493 C 0.49472 0.00352 0.25707 0.0
C1494 C 0.48087 0.00248 0.25179 0.0
C1495 C 0.47742 0.00236 0.23573 0.0
C1496 C 0.48785 0.00336 0.22493 0.0
C1497 C 0.50185 0.00468 0.23023 0.0
C1498 C 0.51952 0.00516 0.25196 0.0
C1499 C 0.53068 0.01794 0.26125 0.0
C1500 C 0.54324 0.01762 0.26811 0.0
C1501 C 0.54488 0.0045 0.26579 0.0
C1502 C 0.53393 0.99195 0.25596 0.0
C1503 C 0.52138 0.99229 0.24911 0.0
C1504 C 0.49816 0.00329 0.27394 0.0
C1505 C 0.50121 0.01591 0.28415 0.0
C1506 C 0.50461 0.01579 0.29999 0.0
C1507 C 0.50503 0.00305 0.3059 0.0
C1508 C 0.50191 0.99039 0.2956 0.0
C1509 C 0.49847 0.99052 0.27977 0.0
C1510 C 0.4697 0.00108 0.26301 0.0
C1511 C 0.46661 0.01316 0.26568 0.0
C1512 C 0.45546 0.01148 0.27554 0.0
C1513 C 0.44719 0.99766 0.28288 0.0
C1514 C 0.45054 0.98568 0.28036 0.0
C1515 C 0.4617 0.98739 0.27052 0.0
C1516 C 0.46274 0.00104 0.23017 0.0
C1517 C 0.46242 0.01357 0.22369 0.0
C1518 C 0.44865 0.01225 0.21821 0.0
C1519 C 0.43494 0.99836 0.21914 0.0
C1520 C 0.43532 0.98585 0.2257 0.0
C1521 C 0.44911 0.98718 0.23114 0.0
C1522 C 0.48381 0.00276 0.20806 0.0
C1523 C 0.49113 0.01601 0.19973 0.0
C1524 C 0.48602 0.01587 0.18436 0.0
C1525 C 0.47345 0.0025 0.17715 0.0
C1526 C 0.46657 0.98908 0.18536 0.0
C1527 C 0.47175 0.9892 0.20065 0.0
C1528 C 0.51299 0.00615 0.21893 0.0
C1529 C 0.5269 0.01991 0.21892 0.0
C1530 C 0.53725 0.02146 0.20806 0.0
C1531 C 0.53384 0.00929 0.19698 0.0
C1532 C 0.5199 0.99547 0.19713 0.0
C1533 C 0.50961 0.99391 0.20804 0.0
C1534 C 0.50873 0.00299 0.32272 0.0
C1535 C 0.42028 0.99687 0.21329 0.0
H1536 H 0.50195 0.0222 0.72285 0.0
H1537 H 0.59088 0.98714 0.84403 0.0
H1538 H 0.49582 0.02309 0.80673 0.0
H1539 H 0.47398 0.02443 0.79566 0.0
H1540 H 0.44537 0.9755 0.80039 0.0
H1541 H 0.46748 0.97426 0.8113 0.0
H1542 H 0.52212 0.02511 0.78808 0.0
H1543 H 0.5171 0.02837 0.76089 0.0
H1544 H 0.48067 0.9809 0.75574 0.0
H1545 H 0.48594 0.97775 0.78291 0.0
H1546 H 0.54885 0.02458 0.80779 0.0
H1547 H 0.56792 0.02877 0.78947 0.0
H1548 H 0.5374 0.98413 0.7659 0.0
H1549 H 0.51859 0.97985 0.78466 0.0
H1550 H 0.54762 0.02019 0.84305 0.0
H1551 H 0.57111 0.02072 0.85189 0.0
H1552 H 0.55551 0.97669 0.8265 0.0
H1553 H 0.532 0.97623 0.8179 0.0
H1554 H 0.5192 0.01732 0.85937 0.0
H1555 H 0.52733 0.01702 0.8864 0.0
H1556 H 0.52392 0.97266 0.87581 0.0
H1557 H 0.51512 0.97277 0.84901 0.0
H1558 H 0.493 0.01796 0.84071 0.0
H1559 H 0.47601 0.01623 0.86063 0.0
H1560 H 0.46523 0.96919 0.86694 0.0
H1561 H 0.48193 0.97092 0.84664 0.0
O1562 O 0.50379 0.02064 0.73355 0.0
O1563 O 0.48514 0.99618 0.73154 0.0
O1564 O 0.58915 0.0098 0.85364 0.0
O1565 O 0.58169 0.98721 0.84071 0.0
C1566 C 0.49684 0.9977 0.81488 0.0
C1567 C 0.5074 0.99929 0.80399 0.0
C1568 C 0.52091 0.99941 0.8089 0.0
C1569 C 0.52377 0.99777 0.82469 0.0
C1570 C 0.51313 0.99603 0.83556 0.0
C1571 C 0.49962 0.99597 0.83066 0.0
C1572 C 0.4832 0.99858 0.80973 0.0
C1573 C 0.48479 0.01271 0.80554 0.0
C1574 C 0.47229 0.01346 0.79932 0.0
C1575 C 0.45795 6e-05 0.79717 0.0
C1576 C 0.45631 0.98598 0.80181 0.0
C1577 C 0.46886 0.98526 0.80811 0.0
C1578 C 0.50443 0.00119 0.78743 0.0
C1579 C 0.51312 0.01541 0.78103 0.0
C1580 C 0.5102 0.01725 0.76551 0.0
C1581 C 0.49848 0.0049 0.75614 0.0
C1582 C 0.48978 0.99065 0.76263 0.0
C1583 C 0.49275 0.98882 0.77814 0.0
C1584 C 0.53237 0.00188 0.7976 0.0
C1585 C 0.54633 0.01568 0.79871 0.0
C1586 C 0.55714 0.01811 0.78813 0.0
C1587 C 0.55418 0.0068 0.77616 0.0
C1588 C 0.54012 0.99299 0.77507 0.0
C1589 C 0.52932 0.99056 0.7857 0.0
C1590 C 0.5381 0.99814 0.8299 0.0
C1591 C 0.54928 0.01065 0.83947 0.0
C1592 C 0.56269 0.01093 0.84447 0.0
C1593 C 0.56518 0.99873 0.83991 0.0
C1594 C 0.55396 0.98626 0.83023 0.0
C1595 C 0.54053 0.98598 0.82528 0.0
C1596 C 0.51659 0.99507 0.85224 0.0
C1597 C 0.5199 0.00739 0.863 0.0
C1598 C 0.5247 0.00727 0.87839 0.0
C1599 C 0.52641 0.99488 0.88325 0.0
C1600 C 0.52256 0.9823 0.87253 0.0
C1601 C 0.51764 0.98238 0.85718 0.0
C1602 C 0.48866 0.99455 0.84217 0.0
C1603 C 0.48679 0.00722 0.84623 0.0
C1604 C 0.4772 0.00624 0.85773 0.0
C1605 C 0.46931 0.99259 0.86545 0.0
C1606 C 0.471 0.97981 0.86112 0.0
C1607 C 0.48059 0.9808 0.8496 0.0
C1608 C 0.49535 0.00691 0.73967 0.0
C1609 C 0.57941 0.99897 0.8452 0.0
H1610 H 0.98335 0.48472 0.73537 0.0
H1611 H 0.02422 0.6081 0.86759 0.0
H1612 H 0.98409 0.47527 0.82123 0.0
H1613 H 0.98174 0.45118 0.81014 0.0
H1614 H 0.03049 0.4715 0.81533 0.0
H1615 H 0.03271 0.49562 0.82642 0.0
H1616 H 0.9821 0.50024 0.80105 0.0
H1617 H 0.97816 0.49258 0.77323 0.0
H1618 H 0.0253 0.50486 0.77268 0.0
H1619 H 0.02911 0.51262 0.80049 0.0
H1620 H 0.98218 0.52563 0.82047 0.0
H1621 H 0.97733 0.54253 0.80433 0.0
H1622 H 0.02274 0.56242 0.78913 0.0
H1623 H 0.02757 0.54553 0.80565 0.0
H1624 H 0.98761 0.53138 0.85436 0.0
H1625 H 0.98802 0.55481 0.86455 0.0
H1626 H 0.03368 0.58233 0.85066 0.0
H1627 H 0.03317 0.55876 0.84072 0.0
H1628 H 0.98868 0.50748 0.87045 0.0
H1629 H 0.98796 0.51816 0.89622 0.0
H1630 H 0.03572 0.55127 0.89649 0.0
H1631 H 0.03631 0.54072 0.87054 0.0
H1632 H 0.98859 0.47991 0.85641 0.0
H1633 H 0.99019 0.46326 0.87572 0.0
H1634 H 0.03892 0.4926 0.88095 0.0
H1635 H 0.03718 0.50916 0.86156 0.0
O1636 O 0.98518 0.48789 0.74635 0.0
O1637 O 0.00949 0.49433 0.74669 0.0
O1638 O 0.00032 0.58396 0.8707 0.0
O1639 O 0.02374 0.59865 0.86363 0.0
C1640 C 0.00984 0.50192 0.8303 0.0
C1641 C 0.0082 0.51149 0.81962 0.0
C1642 C 0.0083 0.52503 0.82511 0.0
C1643 C 0.0103 0.52914 0.84119 0.0
C1644 C 0.0119 0.51956 0.85184 0.0
C1645 C 0.01168 0.50595 0.8464 0.0
C1646 C 0.00855 0.48712 0.82459 0.0
C1647 C 0.99423 0.47444 0.8201 0.0
C1648 C 0.99292 0.4607 0.81385 0.0
C1649 C 0.00594 0.45947 0.81188 0.0
C1650 C 0.02028 0.47217 0.81661 0.0
C1651 C 0.02157 0.48589 0.823 0.0
C1652 C 0.0059 0.50704 0.80272 0.0
C1653 C 0.99157 0.50135 0.79487 0.0
C1654 C 0.98935 0.49694 0.77899 0.0
C1655 C 0.00142 0.49811 0.77072 0.0
C1656 C 0.01577 0.50382 0.77869 0.0
C1657 C 0.01798 0.50825 0.79456 0.0
C1658 C 0.00521 0.53441 0.8142 0.0
C1659 C 0.99102 0.53354 0.81353 0.0
C1660 C 0.98825 0.54314 0.80424 0.0
C1661 C 0.99965 0.55379 0.79543 0.0
C1662 C 0.01379 0.55441 0.79589 0.0
C1663 C 0.01654 0.54474 0.8052 0.0
C1664 C 0.0104 0.54341 0.84693 0.0
C1665 C 0.9977 0.54249 0.8536 0.0
C1666 C 0.99796 0.55588 0.85937 0.0
C1667 C 0.01091 0.57045 0.85845 0.0
C1668 C 0.02355 0.57131 0.85158 0.0
C1669 C 0.02329 0.55788 0.84587 0.0
C1670 C 0.01255 0.52334 0.8687 0.0
C1671 C 0.99909 0.51669 0.8763 0.0
C1672 C 0.99866 0.52285 0.89092 0.0
C1673 C 0.01177 0.53555 0.89821 0.0
C1674 C 0.02551 0.5414 0.89111 0.0
C1675 C 0.02588 0.53539 0.87636 0.0
C1676 C 0.01277 0.49566 0.85764 0.0
C1677 C 0.9996 0.48266 0.86169 0.0
C1678 C 0.00053 0.47325 0.87275 0.0
C1679 C 0.01468 0.47667 0.87985 0.0
C1680 C 0.02789 0.48962 0.87556 0.0
C1681 C 0.02692 0.49909 0.86458 0.0
C1682 C 0.999 0.49335 0.75387 0.0
C1683 C 0.01127 0.58472 0.86464 0.0
H1684 H 0.47914 0.51326 0.72197 0.0
H1685 H 0.60175 0.60831 0.8485 0.0
H1686 H 0.46683 0.51761 0.80256 0.0
H1687 H 0.44463 0.49343 0.79192 0.0
H1688 H 0.46265 0.46754 0.81494 0.0
H1689 H 0.48492 0.49169 0.82507 0.0
H1690 H 0.49561 0.54323 0.78483 0.0
H1691 H 0.4884 0.53444 0.75734 0.0
H1692 H 0.4914 0.49358 0.76597 0.0
H1693 H 0.49878 0.50259 0.79338 0.0
H1694 H 0.52721 0.57098 0.80235 0.0
H1695 H 0.54674 0.58377 0.78403 0.0
H1696 H 0.54997 0.54236 0.77761 0.0
H1697 H 0.5305 0.52973 0.79587 0.0
H1698 H 0.52629 0.57513 0.83998 0.0
H1699 H 0.55098 0.59771 0.84801 0.0
H1700 H 0.57308 0.57193 0.83484 0.0
H1701 H 0.54831 0.54939 0.82702 0.0
H1702 H 0.5005 0.55237 0.8605 0.0
H1703 H 0.50979 0.56061 0.88789 0.0
H1704 H 0.54154 0.54405 0.88297 0.0
H1705 H 0.53203 0.53566 0.85584 0.0
H1706 H 0.46882 0.52308 0.84069 0.0
H1707 H 0.45151 0.50773 0.85996 0.0
H1708 H 0.48321 0.49305 0.87531 0.0
H1709 H 0.5004 0.50847 0.85614 0.0
O1710 O 0.48205 0.51654 0.73287 0.0
O1711 O 0.48368 0.49569 0.73794 0.0
O1712 O 0.57993 0.61227 0.8521 0.0
O1713 O 0.59185 0.59955 0.84544 0.0
C1714 C 0.4919 0.52087 0.81921 0.0
C1715 C 0.50195 0.52889 0.80778 0.0
C1716 C 0.51629 0.54188 0.81223 0.0
C1717 C 0.52049 0.547 0.82809 0.0
C1718 C 0.51051 0.53891 0.83953 0.0
C1719 C 0.49619 0.52587 0.8351 0.0
C1720 C 0.47749 0.50639 0.81454 0.0
C1721 C 0.46584 0.50669 0.80545 0.0
C1722 C 0.45315 0.49289 0.79947 0.0
C1723 C 0.45196 0.47858 0.80249 0.0
C1724 C 0.46335 0.47837 0.81221 0.0
C1725 C 0.476 0.49214 0.81814 0.0
C1726 C 0.49762 0.5235 0.7911 0.0
C1727 C 0.49472 0.5324 0.78074 0.0
C1728 C 0.49059 0.52734 0.76506 0.0
C1729 C 0.48929 0.51329 0.75946 0.0
C1730 C 0.49227 0.50444 0.7699 0.0
C1731 C 0.49644 0.50953 0.78557 0.0
C1732 C 0.52741 0.54941 0.8004 0.0
C1733 C 0.53209 0.56467 0.79689 0.0
C1734 C 0.54327 0.57196 0.78649 0.0
C1735 C 0.54991 0.56407 0.77936 0.0
C1736 C 0.54495 0.54868 0.78271 0.0
C1737 C 0.53384 0.54145 0.79316 0.0
C1738 C 0.53553 0.56068 0.83284 0.0
C1739 C 0.53648 0.5744 0.83885 0.0
C1740 C 0.55059 0.58727 0.84342 0.0
C1741 C 0.56401 0.58663 0.84204 0.0
C1742 C 0.56298 0.57283 0.83603 0.0
C1743 C 0.54886 0.55995 0.83151 0.0
C1744 C 0.51564 0.54347 0.85622 0.0
C1745 C 0.50938 0.55045 0.86542 0.0
C1746 C 0.51475 0.55522 0.881 0.0
C1747 C 0.52638 0.55295 0.88759 0.0
C1748 C 0.53243 0.54576 0.87832 0.0
C1749 C 0.52711 0.54107 0.8628 0.0
C1750 C 0.48592 0.517 0.84712 0.0
C1751 C 0.47202 0.5166 0.8483 0.0
C1752 C 0.46213 0.50778 0.85924 0.0
C1753 C 0.466 0.49921 0.86922 0.0
C1754 C 0.47999 0.49973 0.86802 0.0
C1755 C 0.48983 0.5085 0.85705 0.0
C1756 C 0.48484 0.50792 0.7428 0.0
C1757 C 0.57903 0.60028 0.84684 0.0
H1758 H 0.62808 0.82505 0.66433 0.0
H1759 H 0.64167 0.72822 0.52944 0.0
H1760 H 0.61085 0.8278 0.58071 0.0
H1761 H 0.61586 0.85313 0.59153 0.0
H1762 H 0.66141 0.87386 0.57663 0.0
H1763 H 0.65644 0.84853 0.56636 0.0
H1764 H 0.61032 0.79881 0.60007 0.0
H1765 H 0.61345 0.80654 0.62783 0.0
H1766 H 0.65983 0.84168 0.62268 0.0
H1767 H 0.65658 0.83371 0.59499 0.0
H1768 H 0.6099 0.76957 0.58529 0.0
H1769 H 0.61596 0.75272 0.60045 0.0
H1770 H 0.6635 0.78728 0.60285 0.0
H1771 H 0.65735 0.80379 0.58742 0.0
H1772 H 0.60427 0.76322 0.55418 0.0
H1773 H 0.60414 0.73958 0.54521 0.0
H1774 H 0.65253 0.76603 0.54109 0.0
H1775 H 0.65247 0.78955 0.55013 0.0
H1776 H 0.6041 0.77981 0.52834 0.0
H1777 H 0.60517 0.76867 0.50286 0.0
H1778 H 0.65233 0.80333 0.50242 0.0
H1779 H 0.6515 0.8138 0.5282 0.0
H1780 H 0.60553 0.81878 0.53897 0.0
H1781 H 0.60604 0.8362 0.51928 0.0
H1782 H 0.65451 0.85545 0.51847 0.0
H1783 H 0.65387 0.83814 0.5381 0.0
O1784 O 0.62711 0.82215 0.65335 0.0
O1785 O 0.65085 0.84008 0.65006 0.0
O1786 O 0.61655 0.72426 0.53554 0.0
O1787 O 0.6414 0.73735 0.53312 0.0
C1788 C 0.63085 0.82094 0.56751 0.0
C1789 C 0.63115 0.81106 0.5787 0.0
C1790 C 0.63011 0.79689 0.57387 0.0
C1791 C 0.62838 0.7924 0.5579 0.0
C1792 C 0.62803 0.8022 0.54669 0.0
C1793 C 0.62938 0.81653 0.5515 0.0
C1794 C 0.63324 0.83638 0.57263 0.0
C1795 C 0.62182 0.83788 0.57964 0.0
C1796 C 0.6247 0.85234 0.58575 0.0
C1797 C 0.63906 0.86549 0.585 0.0
C1798 C 0.6503 0.86394 0.57757 0.0
C1799 C 0.64743 0.84952 0.57151 0.0
C1800 C 0.63317 0.81579 0.59553 0.0
C1801 C 0.62114 0.80816 0.60498 0.0
C1802 C 0.62296 0.81261 0.62082 0.0
C1803 C 0.63688 0.82477 0.62747 0.0
C1804 C 0.64895 0.83231 0.61793 0.0
C1805 C 0.64711 0.82782 0.60211 0.0
C1806 C 0.6332 0.78784 0.58524 0.0
C1807 C 0.62157 0.77355 0.58934 0.0
C1808 C 0.62505 0.76399 0.59801 0.0
C1809 C 0.64023 0.7686 0.60266 0.0
C1810 C 0.65173 0.78329 0.59919 0.0
C1811 C 0.64824 0.7928 0.59054 0.0
C1812 C 0.62838 0.77803 0.55282 0.0
C1813 C 0.61482 0.76384 0.5514 0.0
C1814 C 0.61479 0.75038 0.54625 0.0
C1815 C 0.62833 0.75092 0.54242 0.0
C1816 C 0.64191 0.7652 0.54393 0.0
C1817 C 0.64192 0.77864 0.5491 0.0
C1818 C 0.62765 0.79782 0.53 0.0
C1819 C 0.61454 0.78524 0.52255 0.0
C1820 C 0.61516 0.77888 0.50809 0.0
C1821 C 0.62879 0.7853 0.50076 0.0
C1822 C 0.64165 0.79841 0.5078 0.0
C1823 C 0.64114 0.80449 0.52242 0.0
C1824 C 0.62963 0.8271 0.53977 0.0
C1825 C 0.61622 0.82678 0.5345 0.0
C1826 C 0.61655 0.83675 0.52334 0.0
C1827 C 0.6303 0.84708 0.51725 0.0
C1828 C 0.64371 0.84743 0.52274 0.0
C1829 C 0.64338 0.83758 0.53395 0.0
C1830 C 0.63876 0.82951 0.64429 0.0
C1831 C 0.62834 0.73668 0.53683 0.0
H1832 H 0.17152 0.83507 0.67496 0.0
H1833 H 0.07617 0.71832 0.543 0.0
H1834 H 0.17566 0.84732 0.59069 0.0
H1835 H 0.19856 0.87073 0.60132 0.0
H1836 H 0.22526 0.84886 0.59238 0.0
H1837 H 0.20218 0.8254 0.58157 0.0
H1838 H 0.15013 0.82301 0.60915 0.0
H1839 H 0.15598 0.82949 0.63715 0.0
H1840 H 0.18951 0.81485 0.63621 0.0
H1841 H 0.18343 0.80827 0.60823 0.0
H1842 H 0.1225 0.79861 0.58684 0.0
H1843 H 0.10295 0.78462 0.60459 0.0
H1844 H 0.12912 0.7647 0.62328 0.0
H1845 H 0.14878 0.77893 0.60544 0.0
H1846 H 0.12171 0.79478 0.55176 0.0
H1847 H 0.0976 0.77244 0.54173 0.0
H1848 H 0.11212 0.74197 0.56079 0.0
H1849 H 0.13626 0.76441 0.57059 0.0
H1850 H 0.15063 0.82179 0.53759 0.0
H1851 H 0.1416 0.81566 0.51017 0.0
H1852 H 0.14193 0.77255 0.5118 0.0
H1853 H 0.15181 0.77926 0.53903 0.0
H1854 H 0.17713 0.84666 0.55789 0.0
H1855 H 0.19376 0.86321 0.53887 0.0
H1856 H 0.20292 0.82694 0.52421 0.0
H1857 H 0.18633 0.81049 0.54338 0.0
O1858 O 0.16935 0.83239 0.6639 0.0
O1859 O 0.18651 0.82479 0.66277 0.0
O1860 O 0.07869 0.74352 0.53721 0.0
O1861 O 0.08561 0.72736 0.54683 0.0
C1862 C 0.17327 0.82059 0.57928 0.0
C1863 C 0.16277 0.8112 0.58971 0.0
C1864 C 0.14877 0.79843 0.58396 0.0
C1865 C 0.14546 0.79476 0.56777 0.0
C1866 C 0.15599 0.80415 0.55731 0.0
C1867 C 0.16989 0.81714 0.56308 0.0
C1868 C 0.18732 0.83474 0.58538 0.0
C1869 C 0.18647 0.84763 0.59096 0.0
C1870 C 0.19954 0.86097 0.59693 0.0
C1871 C 0.21366 0.86159 0.59758 0.0
C1872 C 0.21449 0.84863 0.59202 0.0
C1873 C 0.20139 0.83531 0.58583 0.0
C1874 C 0.1663 0.8151 0.60671 0.0
C1875 C 0.15867 0.82113 0.61504 0.0
C1876 C 0.16207 0.82486 0.63102 0.0
C1877 C 0.1732 0.82267 0.63893 0.0
C1878 C 0.18087 0.81667 0.63049 0.0
C1879 C 0.17743 0.81291 0.61452 0.0
C1880 C 0.13698 0.78968 0.59478 0.0
C1881 C 0.12396 0.79115 0.5947 0.0
C1882 C 0.11279 0.78311 0.60482 0.0
C1883 C 0.11443 0.77346 0.61528 0.0
C1884 C 0.12759 0.77213 0.61544 0.0
C1885 C 0.13877 0.78017 0.60524 0.0
C1886 C 0.13075 0.7812 0.56181 0.0
C1887 C 0.11968 0.78327 0.55368 0.0
C1888 C 0.10591 0.77049 0.548 0.0
C1889 C 0.10294 0.75541 0.55044 0.0
C1890 C 0.11404 0.75341 0.55869 0.0
C1891 C 0.12783 0.7662 0.56433 0.0
C1892 C 0.15189 0.80098 0.5403 0.0
C1893 C 0.1491 0.8112 0.53191 0.0
C1894 C 0.14375 0.80757 0.51629 0.0
C1895 C 0.14086 0.79352 0.50879 0.0
C1896 C 0.14417 0.78354 0.51712 0.0
C1897 C 0.14971 0.78729 0.53272 0.0
C1898 C 0.18063 0.82743 0.55211 0.0
C1899 C 0.18294 0.8424 0.55076 0.0
C1900 C 0.19243 0.85182 0.53989 0.0
C1901 C 0.19964 0.84637 0.53005 0.0
C1902 C 0.1974 0.8314 0.53153 0.0
C1903 C 0.188 0.82203 0.5425 0.0
C1904 C 0.1768 0.82666 0.6559 0.0
C1905 C 0.08834 0.74178 0.54441 0.0
H1906 H 0.19792 0.36884 0.68038 0.0
H1907 H 0.0785 0.33976 0.53875 0.0
H1908 H 0.21288 0.3821 0.58821 0.0
H1909 H 0.23389 0.37913 0.59943 0.0
H1910 H 0.20216 0.33135 0.60654 0.0
H1911 H 0.18158 0.33432 0.59483 0.0
H1912 H 0.19283 0.38207 0.61564 0.0
H1913 H 0.19831 0.38104 0.64333 0.0
H1914 H 0.16323 0.333 0.64089 0.0
H1915 H 0.158 0.33414 0.61316 0.0
H1916 H 0.15679 0.37726 0.61248 0.0
H1917 H 0.13643 0.37086 0.63002 0.0
H1918 H 0.11207 0.3244 0.60847 0.0
H1919 H 0.13242 0.33083 0.59122 0.0
H1920 H 0.14603 0.37985 0.57859 0.0
H1921 H 0.12193 0.3777 0.56913 0.0
H1922 H 0.1081 0.33271 0.54686 0.0
H1923 H 0.13215 0.33493 0.55655 0.0
H1924 H 0.16259 0.38158 0.54718 0.0
H1925 H 0.15226 0.37814 0.52023 0.0
H1926 H 0.15184 0.33467 0.51482 0.0
H1927 H 0.16134 0.33784 0.54195 0.0
H1928 H 0.19813 0.38664 0.55379 0.0
H1929 H 0.21507 0.38864 0.53369 0.0
H1930 H 0.20348 0.34117 0.53891 0.0
H1931 H 0.18699 0.33952 0.55929 0.0
O1932 O 0.19555 0.369 0.66943 0.0
O1933 O 0.17735 0.34435 0.66757 0.0
O1934 O 0.09573 0.36405 0.55439 0.0
O1935 O 0.08811 0.3409 0.54267 0.0
C1936 C 0.18268 0.36018 0.58509 0.0
C1937 C 0.17192 0.35892 0.59558 0.0
C1938 C 0.15823 0.35807 0.58999 0.0
C1939 C 0.15549 0.35896 0.57399 0.0
C1940 C 0.16642 0.36064 0.56352 0.0
C1941 C 0.18009 0.36138 0.56911 0.0
C1942 C 0.19573 0.35843 0.59076 0.0
C1943 C 0.21059 0.37097 0.592 0.0
C1944 C 0.22252 0.36927 0.59853 0.0
C1945 C 0.21974 0.35499 0.60391 0.0
C1946 C 0.20482 0.34243 0.6023 0.0
C1947 C 0.19299 0.34412 0.59572 0.0
C1948 C 0.17493 0.35823 0.61245 0.0
C1949 C 0.18633 0.37135 0.62113 0.0
C1950 C 0.18943 0.37072 0.63694 0.0
C1951 C 0.18118 0.35695 0.64434 0.0
C1952 C 0.16977 0.3438 0.63556 0.0
C1953 C 0.1667 0.34444 0.61974 0.0
C1954 C 0.14603 0.35451 0.6006 0.0
C1955 C 0.14703 0.36572 0.61161 0.0
C1956 C 0.1354 0.36207 0.62154 0.0
C1957 C 0.1227 0.3471 0.62066 0.0
C1958 C 0.1218 0.33595 0.60958 0.0
C1959 C 0.13334 0.33963 0.59965 0.0
C1960 C 0.14086 0.35759 0.56816 0.0
C1961 C 0.13776 0.36954 0.57168 0.0
C1962 C 0.12401 0.36828 0.56625 0.0
C1963 C 0.1131 0.35504 0.5572 0.0
C1964 C 0.11625 0.34307 0.55376 0.0
C1965 C 0.12999 0.34432 0.55924 0.0
C1966 C 0.16271 0.35996 0.54654 0.0
C1967 C 0.16046 0.37144 0.54007 0.0
C1968 C 0.15463 0.36947 0.52464 0.0
C1969 C 0.15107 0.35604 0.51538 0.0
C1970 C 0.15417 0.34501 0.52169 0.0
C1971 C 0.15982 0.3469 0.53714 0.0
C1972 C 0.19141 0.36296 0.55802 0.0
C1973 C 0.19948 0.37677 0.55073 0.0
C1974 C 0.20904 0.37784 0.53916 0.0
C1975 C 0.21061 0.36505 0.53459 0.0
C1976 C 0.20277 0.35134 0.54228 0.0
C1977 C 0.19329 0.35034 0.5539 0.0
C1978 C 0.18453 0.35632 0.66113 0.0
C1979 C 0.09848 0.35366 0.55137 0.0
H1980 H 0.98471 0.37485 0.04905 0.0
H1981 H 0.97706 0.38728 0.06886 0.0
H1982 H 0.02359 0.42342 0.07803 0.0
H1983 H 0.03132 0.41133 0.05817 0.0
H1984 H 0.98548 0.39421 0.10003 0.0
H1985 H 0.00199 0.44785 0.07029 0.0
H1986 H 0.00048 0.43076 0.06059 0.0
H1987 H 0.01733 0.44389 0.07261 0.0
C1988 C 0.99333 0.38542 0.0553 0.0
C1989 C 0.00863 0.39213 0.05192 0.0
C1990 C 0.98892 0.39253 0.06659 0.0
C1991 C 0.9997 0.40646 0.07464 0.0
C1992 C 0.01502 0.41291 0.07163 0.0
H1993 H 0.00317 0.44904 0.16246 0.0
H1994 H 0.00352 0.43375 0.14 0.0
C1995 C 0.01943 0.40588 0.06034 0.0
C1996 C 0.99514 0.41416 0.08649 0.0
H1997 H 0.99863 0.44902 0.0976 0.0
C1998 C 0.98815 0.40613 0.0994 0.0
C1999 C 0.99832 0.4296 0.0855 0.0
C2000 C 0.00479 0.43847 0.07141 0.0
C2001 C 0.98507 0.41341 0.11178 0.0
C2002 C 0.98937 0.42921 0.11133 0.0
C2003 C 0.99553 0.43697 0.09802 0.0
C2004 C 0.98865 0.43819 0.12498 0.0
C2005 C 0.97741 0.40417 0.1253 0.0
C2006 C 0.98049 0.44613 0.12387 0.0
C2007 C 0.98045 0.45513 0.13669 0.0
C2008 C 0.98874 0.45646 0.15072 0.0
C2009 C 0.99688 0.44847 0.15174 0.0
C2010 C 0.99689 0.43951 0.13898 0.0
H2011 H 0.97049 0.39165 0.12172 0.0
H2012 H 0.98619 0.40564 0.1344 0.0
H2013 H 0.96999 0.4081 0.13045 0.0
H2014 H 0.97417 0.44538 0.1131 0.0
H2015 H 0.97414 0.4612 0.13555 0.0
H2016 H 0.58788 0.59328 0.07764 0.0
H2017 H 0.5748 0.57565 0.09778 0.0
H2018 H 0.61798 0.58531 0.11952 0.0
H2019 H 0.63102 0.60339 0.09971 0.0
H2020 H 0.57437 0.54948 0.10533 0.0
H2021 H 0.59863 0.59276 0.15582 0.0
H2022 H 0.60071 0.5982 0.13602 0.0
H2023 H 0.61266 0.59161 0.14492 0.0
C2024 C 0.5945 0.59157 0.08674 0.0
C2025 C 0.61036 0.5992 0.08693 0.0
C2026 C 0.58707 0.58152 0.0982 0.0
C2027 C 0.5954 0.57923 0.11022 0.0
C2028 C 0.61131 0.58707 0.11052 0.0
H2029 H 0.56277 0.51852 0.18712 0.0
H2030 H 0.57858 0.53463 0.16719 0.0
C2031 C 0.61874 0.59717 0.09908 0.0
C2032 C 0.58735 0.56854 0.12232 0.0
H2033 H 0.5833 0.56662 0.16137 0.0
C2034 C 0.57638 0.55323 0.11758 0.0
C2035 C 0.58994 0.57345 0.13832 0.0
C2036 C 0.60102 0.58993 0.1441 0.0
C2037 C 0.56787 0.54273 0.12838 0.0
C2038 C 0.57035 0.54771 0.1443 0.0
C2039 C 0.58152 0.56288 0.14912 0.0
C2040 C 0.5608 0.53761 0.15601 0.0
C2041 C 0.5562 0.52642 0.12273 0.0
C2042 C 0.54565 0.53409 0.15629 0.0
C2043 C 0.53668 0.52504 0.16766 0.0
C2044 C 0.54268 0.51929 0.17891 0.0
C2045 C 0.55784 0.52271 0.17851 0.0
C2046 C 0.56687 0.53192 0.16721 0.0
H2047 H 0.55777 0.52353 0.11066 0.0
H2048 H 0.55676 0.51803 0.13047 0.0
H2049 H 0.54471 0.52506 0.12297 0.0
H2050 H 0.54083 0.5385 0.1478 0.0
H2051 H 0.525 0.52246 0.16761 0.0
H2052 H 0.4013 0.02173 0.06445 0.0
H2053 H 0.41818 0.02312 0.08643 0.0
H2054 H 0.42991 0.99357 0.05988 0.0
H2055 H 0.41287 0.99207 0.03796 0.0
H2056 H 0.42031 0.9828 0.08775 0.0
H2057 H 0.4637 0.04491 0.09658 0.0
H2058 H 0.44457 0.04127 0.09369 0.0
H2059 H 0.45288 0.03605 0.0783 0.0
C2060 C 0.40795 0.01604 0.06315 0.0
C2061 C 0.4062 0.00718 0.04942 0.0
C2062 C 0.41757 0.01681 0.0757 0.0
C2063 C 0.42553 0.00865 0.07474 0.0
C2064 C 0.42401 7e-05 0.06085 0.0
H2065 H 0.48856 0.01467 0.15125 0.0
H2066 H 0.4776 0.01547 0.1256 0.0
C2067 C 0.41433 0.99925 0.04834 0.0
C2068 C 0.43399 0.00761 0.08873 0.0
H2069 H 0.46157 0.02932 0.11747 0.0
C2070 C 0.42945 0.99297 0.09416 0.0
C2071 C 0.44605 0.02082 0.09698 0.0
C2072 C 0.45223 0.03667 0.09107 0.0
C2073 C 0.43629 0.99123 0.10786 0.0
C2074 C 0.44773 0.00454 0.1166 0.0
C2075 C 0.45266 0.01913 0.11089 0.0
C2076 C 0.45437 0.00363 0.13194 0.0
C2077 C 0.43124 0.97513 0.11277 0.0
C2078 C 0.44499 0.99688 0.14405 0.0
C2079 C 0.4512 0.99635 0.15863 0.0
C2080 C 0.46696 0.00274 0.16147 0.0
C2081 C 0.47638 0.00968 0.1494 0.0
C2082 C 0.47013 0.0101 0.13475 0.0
H2083 H 0.42634 0.96647 0.10267 0.0
H2084 H 0.4408 0.97437 0.11859 0.0
H2085 H 0.4223 0.97203 0.12103 0.0
H2086 H 0.43285 0.99224 0.14232 0.0
H2087 H 0.44368 0.99124 0.1678 0.0
H2088 H 0.38223 0.98019 0.97839 0.0
H2089 H 0.3923 0.97384 0.95566 0.0
H2090 H 0.43076 0.01997 0.95954 0.0
H2091 H 0.42098 0.02644 0.98201 0.0
H2092 H 0.40126 0.99027 0.92637 0.0
H2093 H 0.44893 0.99039 0.96047 0.0
H2094 H 0.43224 0.98823 0.96916 0.0
H2095 H 0.44696 0.00703 0.9648 0.0
C2096 C 0.3928 0.98899 0.97437 0.0
C2097 C 0.4008 0.00381 0.98215 0.0
C2098 C 0.39852 0.98534 0.96139 0.0
C2099 C 0.41238 0.99638 0.9561 0.0
C2100 C 0.42016 0.01122 0.96359 0.0
H2101 H 0.47585 0.01487 0.88858 0.0
H2102 H 0.46057 0.01383 0.90995 0.0
C2103 C 0.41448 0.01489 0.97644 0.0
C2104 C 0.41899 0.99267 0.9428 0.0
H2105 H 0.45101 0.9924 0.93311 0.0
C2106 C 0.41199 0.99043 0.9278 0.0
C2107 C 0.43299 0.9929 0.94477 0.0
C2108 C 0.44068 0.99462 0.96068 0.0
C2109 C 0.41909 0.9893 0.91461 0.0
C2110 C 0.43343 0.99023 0.91657 0.0
C2111 C 0.44007 0.99178 0.93163 0.0
C2112 C 0.44227 0.99071 0.90321 0.0
C2113 C 0.41158 0.98791 0.89868 0.0
C2114 C 0.43708 0.97802 0.89234 0.0
C2115 C 0.44578 0.97861 0.88 0.0
C2116 C 0.45984 0.99191 0.87835 0.0
C2117 C 0.46497 0.00456 0.88932 0.0
C2118 C 0.4563 0.00394 0.90162 0.0
H2119 H 0.40196 0.99019 0.89912 0.0
H2120 H 0.4199 0.99608 0.89099 0.0
H2121 H 0.40715 0.97602 0.89338 0.0
H2122 H 0.42639 0.9676 0.89348 0.0
H2123 H 0.44146 0.9687 0.87172 0.0
H2124 H 0.99649 0.39552 0.99503 0.0
H2125 H 0.99925 0.41264 0.97426 0.0
H2126 H 0.02991 0.40062 0.95292 0.0
H2127 H 0.02665 0.38305 0.97343 0.0
H2128 H 0.02421 0.43793 0.96598 0.0
H2129 H 0.99995 0.39308 0.9168 0.0
H2130 H 0.99844 0.38831 0.93683 0.0
H2131 H 0.01579 0.39384 0.92774 0.0
C2132 C 0.00383 0.39662 0.98589 0.0
C2133 C 0.01178 0.38848 0.98599 0.0
C2134 C 0.00541 0.40636 0.97407 0.0
C2135 C 0.01471 0.40784 0.962 0.0
C2136 C 0.0225 0.39949 0.96199 0.0
H2137 H 0.03429 0.4654 0.88263 0.0
H2138 H 0.03565 0.44926 0.90274 0.0
C2139 C 0.02085 0.38968 0.9738 0.0
C2140 C 0.01625 0.41825 0.94956 0.0
H2141 H 0.00998 0.41905 0.91047 0.0
C2142 C 0.02119 0.43382 0.95384 0.0
C2143 C 0.01223 0.41283 0.93372 0.0
C2144 C 0.00617 0.39608 0.92847 0.0
C2145 C 0.02212 0.44409 0.94274 0.0
C2146 C 0.01786 0.43861 0.92698 0.0
C2147 C 0.01327 0.42317 0.9226 0.0
C2148 C 0.01727 0.44853 0.91501 0.0
C2149 C 0.02755 0.46072 0.94792 0.0
C2150 C 0.0064 0.45327 0.91524 0.0
C2151 C 0.00555 0.46239 0.9038 0.0
C2152 C 0.0156 0.46694 0.89193 0.0
C2153 C 0.0265 0.46217 0.89173 0.0
C2154 C 0.02725 0.45293 0.90314 0.0
H2155 H 0.03361 0.4639 0.95968 0.0
H2156 H 0.03522 0.46861 0.93959 0.0
H2157 H 0.01764 0.46252 0.94833 0.0
H2158 H 0.9985 0.44982 0.92424 0.0
H2159 H 0.99713 0.46601 0.90431 0.0
H2160 H 0.60153 0.57814 0.01573 0.0
H2161 H 0.58461 0.5705 0.99212 0.0
H2162 H 0.58541 0.61411 0.99548 0.0
H2163 H 0.60249 0.62199 0.01909 0.0
H2164 H 0.55546 0.5684 0.98767 0.0
H2165 H 0.59817 0.61124 0.95119 0.0
H2166 H 0.60342 0.60637 0.96952 0.0
H2167 H 0.59535 0.61881 0.96916 0.0
C2168 C 0.59817 0.58616 0.01148 0.0
C2169 C 0.6035 0.60075 0.01929 0.0
C2170 C 0.58844 0.58173 0.998 0.0
C2171 C 0.58391 0.59181 0.99198 0.0
C2172 C 0.58897 0.60626 0.99983 0.0
H2173 H 0.53344 0.58051 0.90283 0.0
H2174 H 0.54559 0.59022 0.92912 0.0
C2175 C 0.59869 0.61071 0.01336 0.0
C2176 C 0.57401 0.58713 0.97739 0.0
H2177 H 0.57375 0.59483 0.93923 0.0
C2178 C 0.5594 0.57422 0.97708 0.0
C2179 C 0.57918 0.59482 0.96365 0.0
C2180 C 0.59492 0.60852 0.96326 0.0
C2181 C 0.54987 0.56865 0.96332 0.0
C2182 C 0.55523 0.57602 0.94946 0.0
C2183 C 0.56966 0.58922 0.94988 0.0
C2184 C 0.54655 0.56963 0.93419 0.0
C2185 C 0.53416 0.55493 0.96375 0.0
C2186 C 0.54301 0.55482 0.92836 0.0
C2187 C 0.53602 0.54923 0.91342 0.0
C2188 C 0.53255 0.55839 0.90394 0.0
C2189 C 0.53581 0.57311 0.90992 0.0
C2190 C 0.54283 0.5787 0.92489 0.0
H2191 H 0.53012 0.55382 0.97562 0.0
H2192 H 0.52591 0.55581 0.95556 0.0
H2193 H 0.5344 0.54423 0.96035 0.0
H2194 H 0.54605 0.54774 0.93521 0.0
H2195 H 0.53354 0.5378 0.90921 0.0
H2196 H 0.01506 0.63696 0.99561 0.0
H2197 H 0.01712 0.62022 0.97552 0.0
H2198 H 0.99329 0.58104 0.00301 0.0
H2199 H 0.99044 0.59767 0.02258 0.0
H2200 H 0.03011 0.60378 0.9745 0.0
H2201 H 0.96845 0.56381 0.9633 0.0
H2202 H 0.97597 0.58138 0.97557 0.0
H2203 H 0.97472 0.56422 0.98314 0.0
C2204 C 0.01035 0.62477 0.99731 0.0
C2205 C 0.00285 0.61855 0.01066 0.0
C2206 C 0.01148 0.61521 0.98586 0.0
C2207 C 0.0051 0.59928 0.98758 0.0
C2208 C 0.99788 0.59317 0.00115 0.0
H2209 H 0.0282 0.54276 0.92629 0.0
H2210 H 0.02669 0.55748 0.9489 0.0
C2211 C 0.99641 0.60267 0.0124 0.0
C2212 C 0.006 0.58913 0.97514 0.0
H2213 H 0.98465 0.55624 0.95163 0.0
C2214 C 0.02018 0.59338 0.96953 0.0
C2215 C 0.99296 0.57571 0.96836 0.0
C2216 C 0.97716 0.5711 0.97278 0.0
C2217 C 0.02173 0.58465 0.95739 0.0
C2218 C 0.00879 0.57093 0.95101 0.0
C2219 C 0.99461 0.56664 0.95666 0.0
C2220 C 0.00944 0.5614 0.93776 0.0
C2221 C 0.03713 0.59058 0.95116 0.0
C2222 C 0.99981 0.55813 0.92426 0.0
C2223 C 0.00037 0.54939 0.9116 0.0
C2224 C 0.01067 0.54387 0.91213 0.0
C2225 C 0.02022 0.54698 0.92565 0.0
C2226 C 0.01945 0.5555 0.93847 0.0
H2227 H 0.04462 0.60315 0.95419 0.0
H2228 H 0.04272 0.58449 0.95637 0.0
H2229 H 0.03616 0.58852 0.93833 0.0
H2230 H 0.992 0.56255 0.9234 0.0
H2231 H 0.99302 0.54728 0.90121 0.0
H2232 H 0.37773 0.41172 0.97262 0.0
H2233 H 0.38644 0.42972 0.95191 0.0
H2234 H 0.41925 0.41588 0.94156 0.0
H2235 H 0.41064 0.39789 0.96193 0.0
H2236 H 0.41568 0.45456 0.94994 0.0
H2237 H 0.39903 0.41315 0.89869 0.0
H2238 H 0.39135 0.40738 0.91729 0.0
H2239 H 0.4096 0.40964 0.91365 0.0
C2240 C 0.38665 0.41235 0.96579 0.0
C2241 C 0.39344 0.40329 0.96895 0.0
C2242 C 0.39163 0.42266 0.95399 0.0
C2243 C 0.40333 0.42395 0.94505 0.0
C2244 C 0.40998 0.41483 0.94808 0.0
H2245 H 0.47291 0.4957 0.89927 0.0
H2246 H 0.45582 0.47821 0.91733 0.0
C2247 C 0.40508 0.4046 0.95984 0.0
C2248 C 0.4094 0.43547 0.93318 0.0
H2249 H 0.41884 0.43919 0.89556 0.0
C2250 C 0.41614 0.45121 0.93797 0.0
C2251 C 0.40978 0.4311 0.91751 0.0
C2252 C 0.40191 0.41438 0.91143 0.0
C2253 C 0.42407 0.4627 0.92774 0.0
C2254 C 0.42549 0.45831 0.91242 0.0
C2255 C 0.41793 0.44258 0.90737 0.0
C2256 C 0.43558 0.4697 0.90178 0.0
C2257 C 0.43103 0.47943 0.93353 0.0
C2258 C 0.42995 0.47055 0.88691 0.0
C2259 C 0.43975 0.4804 0.87645 0.0
C2260 C 0.4554 0.48949 0.88063 0.0
C2261 C 0.46095 0.48875 0.89563 0.0
C2262 C 0.45115 0.47891 0.90605 0.0
H2263 H 0.42485 0.48084 0.94316 0.0
H2264 H 0.44293 0.48376 0.93806 0.0
H2265 H 0.43104 0.48668 0.92406 0.0
H2266 H 0.41799 0.46342 0.88332 0.0
H2267 H 0.43514 0.48054 0.86493 0.0
H2268 H 0.59152 0.01651 0.02165 0.0
H2269 H 0.57503 0.01357 0.99855 0.0
H2270 H 0.58748 0.98249 0.97616 0.0
H2271 H 0.60456 0.98618 0.99884 0.0
H2272 H 0.59066 0.00419 0.95796 0.0
H2273 H 0.53402 0.97991 0.98116 0.0
H2274 H 0.5481 0.99749 0.99164 0.0
H2275 H 0.55005 0.98054 0.99173 0.0
C2276 C 0.59043 0.00882 0.01187 0.0
C2277 C 0.59879 0.00109 0.01216 0.0
C2278 C 0.58094 0.00704 0.99875 0.0
C2279 C 0.57973 0.99752 0.98573 0.0
C2280 C 0.58807 0.98974 0.98612 0.0
H2281 H 0.51826 0.97126 0.90266 0.0
H2282 H 0.53099 0.97196 0.92771 0.0
C2283 C 0.59767 0.99169 0.99913 0.0
C2284 C 0.57104 0.99683 0.97113 0.0
H2285 H 0.53621 0.98909 0.95577 0.0
C2286 C 0.57873 0.00078 0.95749 0.0
C2287 C 0.55545 0.99233 0.97047 0.0
C2288 C 0.54636 0.98719 0.9845 0.0
C2289 C 0.57132 0.00045 0.94325 0.0
C2290 C 0.55587 0.99645 0.94271 0.0
C2291 C 0.5481 0.99232 0.95628 0.0
C2292 C 0.54759 0.99628 0.92807 0.0
C2293 C 0.58005 0.00412 0.92888 0.0
C2294 C 0.55249 0.0098 0.9202 0.0
C2295 C 0.54538 0.0094 0.90582 0.0
C2296 C 0.5331 0.99549 0.89912 0.0
C2297 C 0.52784 0.98209 0.90737 0.0
C2298 C 0.53502 0.9825 0.92173 0.0
H2299 H 0.59024 0.00279 0.93046 0.0
H2300 H 0.57283 0.99653 0.91865 0.0
H2301 H 0.58391 0.01628 0.92635 0.0
H2302 H 0.562 0.02062 0.92504 0.0
H2303 H 0.54984 0.01991 0.89975 0.0
H2304 H 0.59249 0.98037 0.0872 0.0
H2305 H 0.58354 0.9861 0.11086 0.0
H2306 H 0.60913 0.03481 0.10417 0.0
H2307 H 0.61828 0.0292 0.0803 0.0
H2308 H 0.60198 0.00781 0.13872 0.0
H2309 H 0.56265 0.02258 0.10621 0.0
H2310 H 0.56984 0.01117 0.0971 0.0
H2311 H 0.58212 0.0315 0.10143 0.0
C2312 C 0.59633 0.99233 0.09075 0.0
C2313 C 0.60603 0.00433 0.08177 0.0
C2314 C 0.59123 0.99557 0.10432 0.0
C2315 C 0.59559 0.01084 0.10916 0.0
C2316 C 0.60559 0.02293 0.10053 0.0
H2317 H 0.55107 0.03472 0.18093 0.0
H2318 H 0.56825 0.03721 0.16093 0.0
C2319 C 0.61083 0.01971 0.08695 0.0
C2320 C 0.58903 0.01381 0.12289 0.0
H2321 H 0.56109 0.02115 0.13315 0.0
C2322 C 0.59319 0.01093 0.13758 0.0
C2323 C 0.57762 0.01794 0.12131 0.0
C2324 C 0.57267 0.02094 0.10569 0.0
C2325 C 0.58594 0.01171 0.15075 0.0
C2326 C 0.57394 0.01503 0.14904 0.0
C2327 C 0.57024 0.01854 0.13443 0.0
C2328 C 0.56443 0.01393 0.16197 0.0
C2329 C 0.59116 0.00889 0.16631 0.0
C2330 C 0.55652 0.0 0.16916 0.0
C2331 C 0.54682 0.99859 0.1807 0.0
C2332 C 0.54466 0.01102 0.18516 0.0
C2333 C 0.55264 0.02499 0.17796 0.0
C2334 C 0.5624 0.02641 0.16645 0.0
H2335 H 0.60322 0.01178 0.16663 0.0
H2336 H 0.58987 0.01578 0.17589 0.0
H2337 H 0.58424 0.99646 0.16841 0.0
H2338 H 0.5576 0.99008 0.16564 0.0
H2339 H 0.54098 0.98772 0.18609 0.0
H2340 H 0.97731 0.61096 0.07246 0.0
H2341 H 0.97118 0.59402 0.09404 0.0
H2342 H 0.01883 0.6135 0.10734 0.0
H2343 H 0.02511 0.63035 0.08587 0.0
H2344 H 0.9829 0.5723 0.09747 0.0
H2345 H 0.99873 0.61409 0.14861 0.0
H2346 H 0.99411 0.61788 0.12938 0.0
H2347 H 0.0124 0.6199 0.13421 0.0
C2348 C 0.98648 0.61182 0.08013 0.0
C2349 C 0.00171 0.622 0.07742 0.0
C2350 C 0.98295 0.60212 0.09241 0.0
C2351 C 0.99456 0.60265 0.10233 0.0
C2352 C 0.00972 0.61308 0.09993 0.0
H2353 H 0.01042 0.55596 0.17529 0.0
H2354 H 0.01069 0.57346 0.15613 0.0
C2355 C 0.01327 0.62264 0.08759 0.0
C2356 C 0.99104 0.59152 0.11446 0.0
H2357 H 0.99541 0.58931 0.15353 0.0
C2358 C 0.98539 0.57592 0.10976 0.0
C2359 C 0.99443 0.59637 0.13042 0.0
C2360 C 1.00014 0.61295 0.13603 0.0
C2361 C 0.98372 0.56512 0.12058 0.0
C2362 C 0.98742 0.57003 0.13657 0.0
C2363 C 0.99259 0.58556 0.14128 0.0
C2364 C 0.9869 0.55946 0.14847 0.0
C2365 C 0.97875 0.54875 0.11469 0.0
C2366 C 0.97337 0.54586 0.15071 0.0
C2367 C 0.97324 0.53566 0.16147 0.0
C2368 C 0.98659 0.53897 0.17036 0.0
C2369 C 1.0 0.55286 0.16841 0.0
C2370 C 1.00015 0.56296 0.15757 0.0
H2371 H 0.98002 0.54788 0.10205 0.0
H2372 H 0.98538 0.54426 0.12098 0.0
H2373 H 0.9666 0.54123 0.11664 0.0
H2374 H 0.96294 0.54308 0.14405 0.0
H2375 H 0.96272 0.52505 0.1626 0.0
H2376 H 0.4081 0.42237 0.03276 0.0
H2377 H 0.42475 0.43333 0.05675 0.0
H2378 H 0.41235 0.38737 0.06953 0.0
H2379 H 0.39514 0.37648 0.04603 0.0
H2380 H 0.40946 0.40343 0.0926 0.0
H2381 H 0.46586 0.43953 0.07032 0.0
H2382 H 0.45168 0.44365 0.06242 0.0
H2383 H 0.44977 0.42495 0.05829 0.0
C2384 C 0.40922 0.4147 0.04059 0.0
C2385 C 0.40083 0.39864 0.03735 0.0
C2386 C 0.4188 0.42094 0.05421 0.0
C2387 C 0.42009 0.4112 0.0648 0.0
C2388 C 0.4117 0.39513 0.06147 0.0
H2389 H 0.48265 0.4407 0.14791 0.0
H2390 H 0.46951 0.42982 0.12219 0.0
C2391 C 0.40202 0.38892 0.04797 0.0
C2392 C 0.42893 0.41758 0.08004 0.0
H2393 H 0.46384 0.44372 0.09725 0.0
C2394 C 0.42138 0.41215 0.09358 0.0
C2395 C 0.44452 0.42888 0.08137 0.0
C2396 C 0.4535 0.43452 0.06733 0.0
C2397 C 0.42889 0.41787 0.10838 0.0
C2398 C 0.4443 0.42962 0.10969 0.0
C2399 C 0.45197 0.43484 0.0962 0.0
C2400 C 0.45257 0.43666 0.12501 0.0
C2401 C 0.42029 0.41113 0.12248 0.0
C2402 C 0.44757 0.44436 0.13495 0.0
C2403 C 0.45494 0.45044 0.14966 0.0
C2404 C 0.46759 0.4491 0.15467 0.0
C2405 C 0.47283 0.44174 0.14449 0.0
C2406 C 0.4654 0.43562 0.12977 0.0
H2407 H 0.41023 0.39953 0.11955 0.0
H2408 H 0.42766 0.41013 0.13174 0.0
H2409 H 0.41623 0.41883 0.12717 0.0
H2410 H 0.43786 0.44554 0.13139 0.0
H2411 H 0.45049 0.45587 0.15725 0.0
H2412 H 0.68811 0.73649 0.40377 0.0
H2413 H 0.67848 0.74588 0.42444 0.0
H2414 H 0.63565 0.72778 0.39736 0.0
H2415 H 0.64498 0.71756 0.37709 0.0
H2416 H 0.67057 0.76644 0.42472 0.0
H2417 H 0.62018 0.7118 0.43768 0.0
H2418 H 0.63413 0.7122 0.4253 0.0
H2419 H 0.61941 0.71577 0.41769 0.0
C2420 C 0.67657 0.73436 0.40234 0.0
C2421 C 0.66724 0.7262 0.38892 0.0
C2422 C 0.67108 0.73974 0.41413 0.0
C2423 C 0.65623 0.73733 0.41263 0.0
C2424 C 0.64695 0.72935 0.39909 0.0
H2425 H 0.63377 0.79547 0.47162 0.0
H2426 H 0.63892 0.78339 0.44919 0.0
C2427 C 0.65233 0.72361 0.38745 0.0
C2428 C 0.65083 0.74386 0.42493 0.0
H2429 H 0.62209 0.735 0.44865 0.0
C2430 C 0.66 0.75951 0.43001 0.0
C2431 C 0.63711 0.73483 0.43198 0.0
C2432 C 0.62723 0.71769 0.428 0.0
C2433 C 0.65596 0.76635 0.44196 0.0
C2434 C 0.64194 0.7575 0.44856 0.0
C2435 C 0.63272 0.74186 0.44344 0.0
C2436 C 0.63708 0.76399 0.4614 0.0
C2437 C 0.6671 0.78282 0.44777 0.0
C2438 C 0.63334 0.75661 0.47537 0.0
C2439 C 0.62989 0.76322 0.48794 0.0
C2440 C 0.63027 0.77739 0.48678 0.0
C2441 C 0.63347 0.78454 0.4727 0.0
C2442 C 0.63657 0.77773 0.45999 0.0
H2443 H 0.67884 0.7862 0.44491 0.0
H2444 H 0.66392 0.79072 0.44208 0.0
H2445 H 0.66713 0.78454 0.46055 0.0
H2446 H 0.63359 0.74599 0.47674 0.0
H2447 H 0.62756 0.75762 0.49879 0.0
H2448 H 0.29696 0.93176 0.43386 0.0
H2449 H 0.28327 0.91552 0.45466 0.0
H2450 H 0.24083 0.90652 0.43158 0.0
H2451 H 0.2546 0.92315 0.41106 0.0
H2452 H 0.24274 0.91521 0.46157 0.0
H2453 H 0.25888 0.86957 0.4573 0.0
H2454 H 0.27443 0.88903 0.45776 0.0
H2455 H 0.26021 0.88154 0.44169 0.0
C2456 C 0.28468 0.92593 0.43305 0.0
C2457 C 0.27676 0.92831 0.4207 0.0
C2458 C 0.27685 0.91664 0.44493 0.0
C2459 C 0.26096 0.90954 0.44459 0.0
C2460 C 0.25306 0.91179 0.43208 0.0
H2461 H 0.19959 0.83752 0.49976 0.0
H2462 H 0.21473 0.85355 0.47963 0.0
C2463 C 0.2609 0.92122 0.42034 0.0
C2464 C 0.25257 0.90068 0.45773 0.0
H2465 H 0.24543 0.86964 0.47859 0.0
C2466 C 0.24332 0.90523 0.46527 0.0
C2467 C 0.25327 0.88763 0.46258 0.0
C2468 C 0.26215 0.88152 0.45439 0.0
C2469 C 0.23466 0.89702 0.47737 0.0
C2470 C 0.23555 0.8841 0.48229 0.0
C2471 C 0.24488 0.87963 0.47487 0.0
C2472 C 0.22638 0.87459 0.49463 0.0
C2473 C 0.22433 0.90199 0.48444 0.0
C2474 C 0.22804 0.88105 0.5098 0.0
C2475 C 0.21938 0.8719 0.52133 0.0
C2476 C 0.20905 0.85608 0.51794 0.0
C2477 C 0.20758 0.84962 0.50278 0.0
C2478 C 0.21616 0.85878 0.49125 0.0
H2479 H 0.22211 0.90952 0.47685 0.0
H2480 H 0.2133 0.89181 0.48664 0.0
H2481 H 0.22976 0.90861 0.49572 0.0
H2482 H 0.23612 0.89313 0.51275 0.0
H2483 H 0.22091 0.87715 0.53296 0.0
H2484 H 0.07805 0.31422 0.37895 0.0
H2485 H 0.09407 0.31869 0.40301 0.0
H2486 H 0.08157 0.35146 0.42091 0.0
H2487 H 0.06539 0.34674 0.39711 0.0
H2488 H 0.11885 0.34625 0.41639 0.0
H2489 H 0.07187 0.32191 0.45543 0.0
H2490 H 0.06868 0.31887 0.43455 0.0
H2491 H 0.07211 0.33674 0.4441 0.0
C2492 C 0.07881 0.32237 0.38806 0.0
C2493 C 0.07094 0.3305 0.38612 0.0
C2494 C 0.08793 0.32494 0.40174 0.0
C2495 C 0.08893 0.33534 0.41376 0.0
C2496 C 0.08082 0.34325 0.41187 0.0
H2497 H 0.15578 0.37661 0.49302 0.0
H2498 H 0.14126 0.37162 0.46798 0.0
C2499 C 0.07176 0.34071 0.39822 0.0
C2500 C 0.09841 0.33796 0.42833 0.0
H2501 H 0.09688 0.33575 0.46758 0.0
C2502 C 0.11407 0.3439 0.42759 0.0
C2503 C 0.0921 0.33471 0.44289 0.0
C2504 C 0.07525 0.32756 0.44433 0.0
C2505 C 0.12364 0.34692 0.44109 0.0
C2506 C 0.11738 0.34414 0.45571 0.0
C2507 C 0.10169 0.33799 0.45639 0.0
C2508 C 0.12676 0.34717 0.47049 0.0
C2509 C 0.1403 0.35281 0.43955 0.0
C2510 C 0.12327 0.33517 0.48033 0.0
C2511 C 0.13135 0.33803 0.49473 0.0
C2512 C 0.14314 0.35299 0.49962 0.0
C2513 C 0.14673 0.36498 0.48965 0.0
C2514 C 0.13856 0.36211 0.47525 0.0
H2515 H 0.14249 0.3503 0.4276 0.0
H2516 H 0.14665 0.36552 0.44207 0.0
H2517 H 0.1448 0.34758 0.4479 0.0
H2518 H 0.11413 0.32358 0.47695 0.0
H2519 H 0.12803 0.32857 0.50221 0.0
H2520 H 0.09228 0.34386 0.31783 0.0
H2521 H 0.10007 0.33549 0.29499 0.0
H2522 H 0.0565 0.29388 0.28901 0.0
H2523 H 0.04839 0.30226 0.312 0.0
H2524 H 0.10154 0.30805 0.28984 0.0
H2525 H 0.06209 0.31251 0.24598 0.0
H2526 H 0.06597 0.32154 0.26542 0.0
H2527 H 0.05394 0.30102 0.26216 0.0
C2528 C 0.08424 0.33293 0.31171 0.0
C2529 C 0.06963 0.32379 0.31677 0.0
C2530 C 0.08878 0.32815 0.29864 0.0
C2531 C 0.07884 0.31415 0.29022 0.0
C2532 C 0.06428 0.30484 0.29523 0.0
H2533 H 0.10172 0.28419 0.20296 0.0
H2534 H 0.08796 0.28371 0.22575 0.0
C2535 C 0.0597 0.30962 0.30841 0.0
C2536 C 0.08404 0.30955 0.27628 0.0
H2537 H 0.08008 0.3066 0.23658 0.0
C2538 C 0.09672 0.30753 0.2782 0.0
C2539 C 0.07769 0.3088 0.26112 0.0
C2540 C 0.06422 0.31116 0.25841 0.0
C2541 C 0.10356 0.30534 0.26536 0.0
C2542 C 0.09771 0.30541 0.2502 0.0
C2543 C 0.08456 0.30662 0.24824 0.0
C2544 C 0.10585 0.30555 0.23637 0.0
C2545 C 0.1172 0.30327 0.26812 0.0
C2546 C 0.12033 0.31809 0.23471 0.0
C2547 C 0.12817 0.31842 0.22176 0.0
C2548 C 0.12167 0.30622 0.21015 0.0
C2549 C 0.10707 0.2937 0.21177 0.0
C2550 C 0.09918 0.29343 0.22473 0.0
H2551 H 0.11761 0.29912 0.2798 0.0
H2552 H 0.11716 0.29496 0.25918 0.0
H2553 H 0.12767 0.31455 0.26743 0.0
H2554 H 0.12559 0.32767 0.24346 0.0
H2555 H 0.13944 0.32814 0.22096 0.0
H2556 H 0.66108 0.73315 0.3275 0.0
H2557 H 0.66677 0.75041 0.30628 0.0
H2558 H 0.70121 0.73985 0.29293 0.0
H2559 H 0.69477 0.72185 0.31353 0.0
H2560 H 0.69102 0.77577 0.3011 0.0
H2561 H 0.67908 0.73316 0.25195 0.0
H2562 H 0.67444 0.72752 0.27141 0.0
H2563 H 0.69349 0.73461 0.26581 0.0
C2564 C 0.66983 0.73455 0.31997 0.0
C2565 C 0.67791 0.7267 0.32239 0.0
C2566 C 0.6731 0.7444 0.30789 0.0
C2567 C 0.68436 0.74638 0.29791 0.0
C2568 C 0.69228 0.73831 0.30024 0.0
H2569 H 0.72048 0.82499 0.2395 0.0
H2570 H 0.71768 0.80738 0.25949 0.0
C2571 C 0.68884 0.7283 0.31219 0.0
C2572 C 0.68788 0.75707 0.28526 0.0
H2573 H 0.69102 0.75953 0.24616 0.0
C2574 C 0.69096 0.7722 0.28907 0.0
C2575 C 0.68764 0.75236 0.26953 0.0
C2576 C 0.68333 0.73599 0.2644 0.0
C2577 C 0.69363 0.78269 0.27763 0.0
C2578 C 0.69389 0.77815 0.26196 0.0
C2579 C 0.69097 0.76307 0.25817 0.0
C2580 C 0.69637 0.78855 0.24919 0.0
C2581 C 0.69551 0.79828 0.28244 0.0
C2582 C 0.68584 0.78355 0.2362 0.0
C2583 C 0.68773 0.79338 0.22437 0.0
C2584 C 0.70009 0.80857 0.22535 0.0
C2585 C 0.71086 0.81339 0.2382 0.0
C2586 C 0.70913 0.8034 0.24985 0.0
H2587 H 0.69043 0.79808 0.2936 0.0
H2588 H 0.70778 0.80691 0.28413 0.0
H2589 H 0.69017 0.80214 0.27347 0.0
H2590 H 0.67599 0.77207 0.2353 0.0
H2591 H 0.67942 0.78905 0.2145 0.0
H2592 H 0.26477 0.90775 0.3529 0.0
H2593 H 0.24872 0.90091 0.32873 0.0
H2594 H 0.25951 0.94833 0.32637 0.0
H2595 H 0.27525 0.95524 0.35084 0.0
H2596 H 0.22964 0.92831 0.31799 0.0
H2597 H 0.2657 0.91079 0.28675 0.0
H2598 H 0.2586 0.9003 0.30367 0.0
H2599 H 0.27146 0.92083 0.30576 0.0
C2600 C 0.26372 0.91675 0.34729 0.0
C2601 C 0.27145 0.93209 0.35374 0.0
C2602 C 0.25457 0.91281 0.33343 0.0
C2603 C 0.25319 0.92417 0.32557 0.0
C2604 C 0.26048 0.9394 0.33221 0.0
H2605 H 0.22525 0.91267 0.22762 0.0
H2606 H 0.23861 0.92185 0.25341 0.0
C2607 C 0.2695 0.94332 0.34618 0.0
C2608 C 0.2445 0.92025 0.31022 0.0
H2609 H 0.24221 0.90477 0.27365 0.0
C2610 C 0.23241 0.92322 0.30826 0.0
C2611 C 0.2483 0.91387 0.29745 0.0
C2612 C 0.26182 0.91141 0.29843 0.0
C2613 C 0.22386 0.91976 0.29392 0.0
C2614 C 0.22729 0.9128 0.28135 0.0
C2615 C 0.23949 0.91 0.28331 0.0
C2616 C 0.21868 0.90852 0.26591 0.0
C2617 C 0.21147 0.9239 0.29231 0.0
C2618 C 0.20296 0.89817 0.26432 0.0
C2619 C 0.19527 0.89308 0.24955 0.0
C2620 C 0.20326 0.89802 0.23618 0.0
C2621 C 0.21888 0.90861 0.23779 0.0
C2622 C 0.2265 0.91386 0.2525 0.0
H2623 H 0.2133 0.93312 0.30119 0.0
H2624 H 0.21078 0.92785 0.2806 0.0
H2625 H 0.20042 0.91355 0.29402 0.0
H2626 H 0.19674 0.89359 0.27446 0.0
H2627 H 0.18323 0.88481 0.24857 0.0
H2628 H 0.66023 0.92234 0.35576 0.0
H2629 H 0.66682 0.90874 0.33601 0.0
H2630 H 0.70018 0.95249 0.32045 0.0
H2631 H 0.69318 0.96602 0.33974 0.0
H2632 H 0.67853 0.93092 0.29694 0.0
H2633 H 0.70334 0.90211 0.33252 0.0
H2634 H 0.68873 0.90519 0.33996 0.0
H2635 H 0.70718 0.92136 0.33795 0.0
C2636 C 0.66917 0.92899 0.34829 0.0
C2637 C 0.6766 0.9452 0.34957 0.0
C2638 C 0.673 0.92125 0.33712 0.0
C2639 C 0.68426 0.92961 0.32702 0.0
C2640 C 0.69166 0.94582 0.3283 0.0
H2641 H 0.71752 0.91062 0.24354 0.0
H2642 H 0.71259 0.92226 0.26628 0.0
C2643 C 0.68776 0.95354 0.33939 0.0
C2644 C 0.68724 0.92156 0.31406 0.0
H2645 H 0.70187 0.89808 0.30551 0.0
C2646 C 0.68362 0.92373 0.29881 0.0
C2647 C 0.69369 0.91202 0.31654 0.0
C2648 C 0.69848 0.90992 0.33261 0.0
C2649 C 0.68635 0.91668 0.28597 0.0
C2650 C 0.69321 0.90751 0.28845 0.0
C2651 C 0.69659 0.90511 0.30368 0.0
C2652 C 0.69711 0.90045 0.27535 0.0
C2653 C 0.68167 0.91896 0.26987 0.0
C2654 C 0.69064 0.88435 0.27334 0.0
C2655 C 0.69366 0.87765 0.26049 0.0
C2656 C 0.70327 0.88695 0.24947 0.0
C2657 C 0.71021 0.90312 0.25189 0.0
C2658 C 0.70722 0.90979 0.26475 0.0
H2659 H 0.67288 0.92249 0.27011 0.0
H2660 H 0.69169 0.92824 0.26475 0.0
H2661 H 0.67719 0.90824 0.26216 0.0
H2662 H 0.68294 0.87695 0.2815 0.0
H2663 H 0.68828 0.86518 0.25904 0.0
H2664 H 0.08237 0.74068 0.30429 0.0
H2665 H 0.0913 0.75854 0.28375 0.0
H2666 H 0.05394 0.767 0.28795 0.0
H2667 H 0.04473 0.749 0.3087 0.0
H2668 H 0.0669 0.75784 0.25376 0.0
H2669 H 0.10268 0.80978 0.2941 0.0
H2670 H 0.10039 0.79131 0.29884 0.0
H2671 H 0.08453 0.79448 0.29914 0.0
C2672 C 0.07593 0.74623 0.30088 0.0
C2673 C 0.06281 0.74338 0.30823 0.0
C2674 C 0.08109 0.75644 0.2891 0.0
C2675 C 0.07329 0.76406 0.28442 0.0
C2676 C 0.06008 0.76117 0.29146 0.0
H2677 H 0.11529 0.8408 0.22357 0.0
H2678 H 0.09856 0.82352 0.24217 0.0
C2679 C 0.05484 0.75088 0.30328 0.0
C2680 C 0.07937 0.77526 0.27234 0.0
H2681 H 0.10636 0.81242 0.26737 0.0
C2682 C 0.07535 0.76985 0.25668 0.0
C2683 C 0.09029 0.79088 0.27625 0.0
C2684 C 0.09479 0.7971 0.29298 0.0
C2685 C 0.08242 0.77959 0.24476 0.0
C2686 C 0.09405 0.79501 0.24868 0.0
C2687 C 0.09752 0.80059 0.26436 0.0
C2688 C 0.10349 0.80518 0.23683 0.0
C2689 C 0.07749 0.7732 0.2281 0.0
C2690 C 0.11192 0.80068 0.22776 0.0
C2691 C 0.12139 0.81046 0.21709 0.0
C2692 C 0.1228 0.82507 0.21536 0.0
C2693 C 0.11434 0.82957 0.22447 0.0
C2694 C 0.10483 0.81974 0.23516 0.0
H2695 H 0.0656 0.76349 0.22694 0.0
H2696 H 0.07843 0.78226 0.2204 0.0
H2697 H 0.08485 0.76869 0.22406 0.0
H2698 H 0.11136 0.78966 0.22909 0.0
H2699 H 0.12759 0.80653 0.21015 0.0
H2700 H 0.25006 0.34343 0.35422 0.0
H2701 H 0.23184 0.33721 0.33169 0.0
H2702 H 0.2444 0.30489 0.31266 0.0
H2703 H 0.26261 0.31118 0.33508 0.0
H2704 H 0.24069 0.34238 0.30166 0.0
H2705 H 0.19817 0.28049 0.30529 0.0
H2706 H 0.20946 0.29307 0.32199 0.0
H2707 H 0.21757 0.28515 0.30892 0.0
C2708 C 0.24857 0.33469 0.3454 0.0
C2709 C 0.25731 0.32739 0.34655 0.0
C2710 C 0.23821 0.33116 0.33256 0.0
C2711 C 0.23656 0.32038 0.32063 0.0
C2712 C 0.24514 0.31289 0.32193 0.0
H2713 H 0.20381 0.29754 0.22492 0.0
H2714 H 0.21494 0.3002 0.25135 0.0
C2715 C 0.2555 0.31644 0.33476 0.0
C2716 C 0.22731 0.31833 0.306 0.0
H2717 H 0.19873 0.29108 0.28099 0.0
C2718 C 0.23137 0.33121 0.29724 0.0
C2719 C 0.21518 0.30376 0.30026 0.0
C2720 C 0.2097 0.28981 0.30963 0.0
C2721 C 0.22397 0.32978 0.28263 0.0
C2722 C 0.21218 0.3151 0.27671 0.0
C2723 C 0.20787 0.30229 0.28558 0.0
C2724 C 0.20462 0.31275 0.26102 0.0
C2725 C 0.22913 0.34382 0.27335 0.0
C2726 C 0.19489 0.31866 0.25785 0.0
C2727 C 0.18834 0.31701 0.2428 0.0
C2728 C 0.19147 0.30945 0.23065 0.0
C2729 C 0.20097 0.30323 0.23401 0.0
C2730 C 0.20743 0.30482 0.24908 0.0
H2731 H 0.2398 0.35386 0.27863 0.0
H2732 H 0.23091 0.34119 0.26128 0.0
H2733 H 0.22019 0.34713 0.27271 0.0
H2734 H 0.19246 0.32466 0.26701 0.0
H2735 H 0.18089 0.3217 0.24066 0.0
H2736 H 0.28318 0.36533 0.4125 0.0
H2737 H 0.27512 0.37404 0.43525 0.0
H2738 H 0.24295 0.32672 0.44285 0.0
H2739 H 0.25064 0.31794 0.4202 0.0
H2740 H 0.23046 0.34571 0.44334 0.0
H2741 H 0.28392 0.371 0.48157 0.0
H2742 H 0.28552 0.37818 0.46256 0.0
H2743 H 0.28052 0.3584 0.4645 0.0
C2744 C 0.27446 0.35678 0.41908 0.0
C2745 C 0.26757 0.34092 0.41447 0.0
C2746 C 0.26992 0.36178 0.43212 0.0
C2747 C 0.25853 0.35101 0.44082 0.0
C2748 C 0.25176 0.33523 0.43631 0.0
H2749 H 0.22881 0.3521 0.53151 0.0
H2750 H 0.24125 0.35065 0.50849 0.0
C2751 C 0.25622 0.33024 0.42332 0.0
C2752 C 0.25307 0.35594 0.45432 0.0
H2753 H 0.26333 0.37231 0.49147 0.0
C2754 C 0.23767 0.35164 0.45383 0.0
C2755 C 0.26249 0.36357 0.468 0.0
C2756 C 0.27901 0.36798 0.46934 0.0
C2757 C 0.23129 0.35437 0.46678 0.0
C2758 C 0.24069 0.36198 0.4805 0.0
C2759 C 0.25619 0.36659 0.4809 0.0
C2760 C 0.23436 0.36422 0.49487 0.0
C2761 C 0.21442 0.34845 0.46583 0.0
C2762 C 0.22671 0.37268 0.495 0.0
C2763 C 0.21933 0.37329 0.50804 0.0
C2764 C 0.21966 0.36563 0.52131 0.0
C2765 C 0.22804 0.35786 0.5214 0.0
C2766 C 0.23529 0.35715 0.5083 0.0
H2767 H 0.20838 0.33972 0.45592 0.0
H2768 H 0.20945 0.34317 0.4767 0.0
H2769 H 0.21233 0.35823 0.46415 0.0
H2770 H 0.22609 0.37848 0.48486 0.0
H2771 H 0.21293 0.3793 0.50747 0.0
H2772 H 0.63886 0.93744 0.40752 0.0
H2773 H 0.62839 0.9198 0.42825 0.0
H2774 H 0.67362 0.93214 0.44592 0.0
H2775 H 0.6842 0.9498 0.42542 0.0
H2776 H 0.63255 0.89441 0.43285 0.0
H2777 H 0.65371 0.93517 0.48514 0.0
H2778 H 0.65294 0.94124 0.46582 0.0
H2779 H 0.66837 0.93841 0.4725 0.0
C2780 C 0.64661 0.93659 0.41595 0.0
C2781 C 0.66239 0.94507 0.41478 0.0
C2782 C 0.64059 0.92649 0.42778 0.0
C2783 C 0.65024 0.92483 0.43873 0.0
C2784 C 0.66598 0.93348 0.43777 0.0
H2785 H 0.6451 0.85275 0.49072 0.0
H2786 H 0.64733 0.87103 0.47155 0.0
C2787 C 0.672 0.94351 0.42596 0.0
C2788 C 0.64399 0.91319 0.45043 0.0
H2789 H 0.64643 0.90874 0.48927 0.0
C2790 C 0.63534 0.89754 0.44521 0.0
C2791 C 0.64748 0.91731 0.46655 0.0
C2792 C 0.656 0.93396 0.47287 0.0
C2793 C 0.63088 0.88586 0.45564 0.0
C2794 C 0.63533 0.88997 0.47164 0.0
C2795 C 0.64317 0.90562 0.47697 0.0
C2796 C 0.63309 0.87827 0.48284 0.0
C2797 C 0.62173 0.86921 0.44941 0.0
C2798 C 0.62449 0.87642 0.49564 0.0
C2799 C 0.62324 0.866 0.50667 0.0
C2800 C 0.63078 0.85745 0.50517 0.0
C2801 C 0.63927 0.85926 0.49225 0.0
C2802 C 0.64042 0.86958 0.48121 0.0
H2803 H 0.61551 0.86806 0.43806 0.0
H2804 H 0.6295 0.86456 0.44761 0.0
H2805 H 0.61345 0.86206 0.4577 0.0
H2806 H 0.61887 0.88314 0.49716 0.0
H2807 H 0.61675 0.86493 0.51659 0.0
H2808 H 0.05797 0.71642 0.3866 0.0
H2809 H 0.07398 0.72825 0.41077 0.0
H2810 H 0.08672 0.77353 0.39558 0.0
H2811 H 0.07088 0.76161 0.37115 0.0
H2812 H 0.11138 0.771 0.4085 0.0
H2813 H 0.06347 0.74835 0.44647 0.0
H2814 H 0.06388 0.73365 0.43424 0.0
H2815 H 0.06074 0.74807 0.42563 0.0
C2816 C 0.06437 0.7289 0.38838 0.0
C2817 C 0.06365 0.73819 0.37694 0.0
C2818 C 0.07334 0.73563 0.40222 0.0
C2819 C 0.08144 0.75175 0.40499 0.0
C2820 C 0.08059 0.76106 0.39362 0.0
H2821 H 0.11835 0.79804 0.49604 0.0
H2822 H 0.10528 0.7893 0.47021 0.0
C2823 C 0.07157 0.7543 0.37974 0.0
C2824 C 0.09065 0.75883 0.41985 0.0
H2825 H 0.08824 0.75983 0.45909 0.0
C2826 C 0.10635 0.76865 0.41958 0.0
C2827 C 0.08399 0.75585 0.43424 0.0
C2828 C 0.06708 0.74603 0.43521 0.0
C2829 C 0.11564 0.7754 0.43339 0.0
C2830 C 0.10904 0.77201 0.44781 0.0
C2831 C 0.0933 0.76234 0.44803 0.0
C2832 C 0.11809 0.77848 0.4629 0.0
C2833 C 0.13237 0.78628 0.43238 0.0
C2834 C 0.12974 0.7754 0.46736 0.0
C2835 C 0.13745 0.78062 0.48209 0.0
C2836 C 0.13351 0.78886 0.49271 0.0
C2837 C 0.12192 0.79202 0.4881 0.0
C2838 C 0.11432 0.7869 0.47336 0.0
H2839 H 0.13483 0.79097 0.42074 0.0
H2840 H 0.13676 0.79608 0.44133 0.0
H2841 H 0.13861 0.77992 0.43437 0.0
H2842 H 0.13264 0.76864 0.4596 0.0
H2843 H 0.14638 0.77807 0.48521 0.0
H2844 H 0.3561 0.082 0.72795 0.0
H2845 H 0.34564 0.09079 0.74822 0.0
H2846 H 0.30054 0.05428 0.73294 0.0
H2847 H 0.31094 0.04509 0.71288 0.0
H2848 H 0.32561 0.10119 0.74601 0.0
H2849 H 0.3022 0.04831 0.77884 0.0
H2850 H 0.31493 0.05163 0.76376 0.0
H2851 H 0.29521 0.04505 0.7588 0.0
C2852 C 0.34396 0.07577 0.72893 0.0
C2853 C 0.33438 0.06275 0.71888 0.0
C2854 C 0.33799 0.08084 0.7405 0.0
C2855 C 0.32234 0.07306 0.74223 0.0
C2856 C 0.3127 0.06023 0.73205 0.0
H2857 H 0.28635 0.1169 0.8051 0.0
H2858 H 0.28978 0.10475 0.78159 0.0
C2859 C 0.31867 0.05503 0.72056 0.0
C2860 C 0.31624 0.07855 0.75467 0.0
H2861 H 0.29767 0.06814 0.78784 0.0
C2862 C 0.31942 0.09396 0.75512 0.0
C2863 C 0.30822 0.06908 0.76656 0.0
C2864 C 0.30503 0.05264 0.7671 0.0
C2865 C 0.31522 0.1003 0.76739 0.0
C2866 C 0.30725 0.09085 0.77931 0.0
C2867 C 0.30366 0.07531 0.77861 0.0
C2868 C 0.304 0.09723 0.79345 0.0
C2869 C 0.31999 0.11725 0.76785 0.0
C2870 C 0.31031 0.09646 0.80795 0.0
C2871 C 0.30817 0.10311 0.82135 0.0
C2872 C 0.29972 0.1108 0.82055 0.0
C2873 C 0.29295 0.11111 0.80608 0.0
C2874 C 0.29503 0.10432 0.79263 0.0
H2875 H 0.32879 0.12355 0.75964 0.0
H2876 H 0.30999 0.1185 0.76453 0.0
H2877 H 0.3245 0.12282 0.77972 0.0
H2878 H 0.31718 0.09093 0.80887 0.0
H2879 H 0.3132 0.10229 0.83236 0.0
H2880 H 0.92025 0.25267 0.73727 0.0
H2881 H 0.90681 0.23531 0.75749 0.0
H2882 H 0.94964 0.2487 0.78271 0.0
H2883 H 0.96305 0.26589 0.76236 0.0
H2884 H 0.92982 0.21725 0.78179 0.0
H2885 H 0.9016 0.24999 0.80013 0.0
H2886 H 0.89794 0.24379 0.77984 0.0
H2887 H 0.91693 0.25752 0.78746 0.0
C2888 C 0.92673 0.25174 0.74708 0.0
C2889 C 0.94263 0.2602 0.74814 0.0
C2890 C 0.91909 0.24195 0.75865 0.0
C2891 C 0.92722 0.24087 0.77169 0.0
C2892 C 0.94314 0.24935 0.77274 0.0
H2893 H 0.88894 0.20445 0.85853 0.0
H2894 H 0.90388 0.2206 0.83831 0.0
C2895 C 0.95079 0.25906 0.76111 0.0
C2896 C 0.91914 0.23111 0.78437 0.0
H2897 H 0.89345 0.22579 0.81091 0.0
C2898 C 0.92188 0.21911 0.78817 0.0
C2899 C 0.90901 0.23377 0.79289 0.0
C2900 C 0.90628 0.24706 0.79001 0.0
C2901 C 0.91454 0.20948 0.80006 0.0
C2902 C 0.90399 0.21178 0.80819 0.0
C2903 C 0.90145 0.22396 0.80457 0.0
C2904 C 0.89548 0.20178 0.82056 0.0
C2905 C 0.91836 0.19712 0.80396 0.0
C2906 C 0.88578 0.18586 0.81728 0.0
C2907 C 0.87726 0.17661 0.82882 0.0
C2908 C 0.87816 0.18316 0.84381 0.0
C2909 C 0.88792 0.1991 0.84706 0.0
C2910 C 0.89649 0.20832 0.83555 0.0
H2911 H 0.9295 0.19966 0.79984 0.0
H2912 H 0.91863 0.19588 0.81668 0.0
H2913 H 0.90957 0.1859 0.79816 0.0
H2914 H 0.88453 0.18063 0.80571 0.0
H2915 H 0.86965 0.16441 0.82589 0.0
H2916 H 0.7338 0.68596 0.7262 0.0
H2917 H 0.75127 0.69209 0.74919 0.0
H2918 H 0.76427 0.65976 0.73113 0.0
H2919 H 0.74742 0.65438 0.70761 0.0
H2920 H 0.74926 0.6731 0.77008 0.0
H2921 H 0.80518 0.69493 0.74574 0.0
H2922 H 0.78865 0.69241 0.73445 0.0
H2923 H 0.79123 0.6761 0.73747 0.0
C2924 C 0.74087 0.68066 0.72689 0.0
C2925 C 0.73983 0.67025 0.7149 0.0
C2926 C 0.75069 0.684 0.7401 0.0
C2927 C 0.75936 0.67663 0.7418 0.0
C2928 C 0.75813 0.666 0.72989 0.0
H2929 H 0.80895 0.66915 0.82271 0.0
H2930 H 0.79627 0.66619 0.79691 0.0
C2931 C 0.74843 0.66283 0.71653 0.0
C2932 C 0.76852 0.67911 0.75666 0.0
H2933 H 0.804 0.68934 0.77242 0.0
C2934 C 0.76125 0.67678 0.77055 0.0
C2935 C 0.78417 0.68377 0.75733 0.0
C2936 C 0.79282 0.68708 0.74296 0.0
C2937 C 0.76914 0.67893 0.78502 0.0
C2938 C 0.78473 0.6836 0.78565 0.0
C2939 C 0.79203 0.68578 0.77183 0.0
C2940 C 0.79356 0.68621 0.80065 0.0
C2941 C 0.76071 0.67599 0.79955 0.0
C2942 C 0.79652 0.69866 0.81107 0.0
C2943 C 0.80376 0.70039 0.82577 0.0
C2944 C 0.8081 0.68965 0.83029 0.0
C2945 C 0.80558 0.67749 0.8196 0.0
C2946 C 0.79842 0.67583 0.80486 0.0
H2947 H 0.74821 0.6697 0.79691 0.0
H2948 H 0.76374 0.66919 0.8074 0.0
H2949 H 0.76398 0.6872 0.80589 0.0
H2950 H 0.79292 0.70683 0.80794 0.0
H2951 H 0.80543 0.70979 0.8338 0.0
H2952 H 0.7474 0.6852 0.63931 0.0
H2953 H 0.75586 0.67771 0.61636 0.0
H2954 H 0.72647 0.62963 0.62375 0.0
H2955 H 0.71767 0.63703 0.64678 0.0
H2956 H 0.77059 0.66099 0.61586 0.0
H2957 H 0.71723 0.63164 0.57743 0.0
H2958 H 0.71951 0.64381 0.59449 0.0
H2959 H 0.71608 0.62451 0.59642 0.0
C2960 C 0.74258 0.67301 0.63604 0.0
C2961 C 0.73184 0.66172 0.64496 0.0
C2962 C 0.74746 0.66875 0.62289 0.0
C2963 C 0.74174 0.65313 0.61826 0.0
C2964 C 0.73085 0.64177 0.62695 0.0
H2965 H 0.79085 0.62736 0.55389 0.0
H2966 H 0.77736 0.62846 0.57614 0.0
C2967 C 0.72588 0.64603 0.64015 0.0
C2968 C 0.74793 0.64898 0.60483 0.0
H2969 H 0.7387 0.63163 0.56804 0.0
C2970 C 0.76361 0.6545 0.60543 0.0
C2971 C 0.7388 0.64062 0.5912 0.0
C2972 C 0.72199 0.63488 0.58971 0.0
C2973 C 0.77048 0.65213 0.59271 0.0
C2974 C 0.76136 0.64368 0.5791 0.0
C2975 C 0.74564 0.63799 0.57854 0.0
C2976 C 0.76813 0.64144 0.56507 0.0
C2977 C 0.78752 0.6592 0.59378 0.0
C2978 C 0.76687 0.64778 0.55121 0.0
C2979 C 0.77437 0.64696 0.53836 0.0
C2980 C 0.78329 0.63978 0.53911 0.0
C2981 C 0.78402 0.63289 0.55283 0.0
C2982 C 0.77645 0.63366 0.56565 0.0
H2983 H 0.79307 0.66833 0.60343 0.0
H2984 H 0.79048 0.65009 0.59596 0.0
H2985 H 0.79224 0.66432 0.58277 0.0
H2986 H 0.76042 0.65375 0.55047 0.0
H2987 H 0.77333 0.65213 0.52789 0.0
H2988 H 0.32536 0.06613 0.65864 0.0
H2989 H 0.32931 0.08284 0.63715 0.0
H2990 H 0.36404 0.07365 0.62174 0.0
H2991 H 0.35962 0.05648 0.64287 0.0
H2992 H 0.35424 0.10895 0.63156 0.0
H2993 H 0.33901 0.06606 0.58172 0.0
H2994 H 0.33503 0.06051 0.60135 0.0
H2995 H 0.35372 0.06714 0.59493 0.0
C2996 C 0.33378 0.06769 0.65059 0.0
C2997 C 0.34257 0.06055 0.65259 0.0
C2998 C 0.33603 0.0772 0.63835 0.0
C2999 C 0.34689 0.07941 0.62777 0.0
C3000 C 0.35541 0.07191 0.62958 0.0
H3001 H 0.38057 0.13979 0.55147 0.0
H3002 H 0.37735 0.12234 0.57209 0.0
C3003 C 0.35309 0.06235 0.64178 0.0
C3004 C 0.34968 0.09005 0.61524 0.0
H3005 H 0.35056 0.09245 0.57591 0.0
C3006 C 0.35349 0.10534 0.61941 0.0
C3007 C 0.34855 0.08529 0.59935 0.0
C3008 C 0.34371 0.06882 0.59403 0.0
C3009 C 0.3564 0.11606 0.60818 0.0
C3010 C 0.35523 0.11128 0.59234 0.0
C3011 C 0.35152 0.09605 0.58811 0.0
C3012 C 0.35722 0.12181 0.57995 0.0
C3013 C 0.36085 0.13246 0.61336 0.0
C3014 C 0.34687 0.12709 0.57751 0.0
C3015 C 0.34867 0.137 0.56581 0.0
C3016 C 0.36085 0.14179 0.55631 0.0
C3017 C 0.37117 0.13641 0.55872 0.0
C3018 C 0.36931 0.12641 0.57041 0.0
H3019 H 0.36484 0.13519 0.62588 0.0
H3020 H 0.36994 0.14082 0.60645 0.0
H3021 H 0.35085 0.13406 0.61155 0.0
H3022 H 0.33737 0.1235 0.58466 0.0
H3023 H 0.34063 0.14108 0.56431 0.0
H3024 H 0.94279 0.24297 0.67424 0.0
H3025 H 0.92706 0.23519 0.64977 0.0
H3026 H 0.91686 0.27184 0.65817 0.0
H3027 H 0.93287 0.27997 0.68251 0.0
H3028 H 0.89702 0.22539 0.64378 0.0
H3029 H 0.93185 0.27954 0.615 0.0
H3030 H 0.93843 0.27513 0.63283 0.0
H3031 H 0.92537 0.28236 0.63315 0.0
C3032 C 0.93725 0.24943 0.6709 0.0
C3033 C 0.93924 0.2622 0.68031 0.0
C3034 C 0.92823 0.24494 0.6569 0.0
C3035 C 0.92098 0.25308 0.65201 0.0
C3036 C 0.92264 0.26561 0.66152 0.0
H3037 H 0.85034 0.21698 0.57471 0.0
H3038 H 0.86377 0.22633 0.60051 0.0
C3039 C 0.93175 0.27019 0.67548 0.0
C3040 C 0.91169 0.24838 0.63697 0.0
H3041 H 0.90878 0.261 0.60142 0.0
C3042 C 0.89955 0.23317 0.63452 0.0
C3043 C 0.91512 0.25852 0.62486 0.0
C3044 C 0.92848 0.27475 0.62648 0.0
C3045 C 0.89083 0.22778 0.62024 0.0
C3046 C 0.89413 0.23799 0.60821 0.0
C3047 C 0.90618 0.25324 0.61071 0.0
C3048 C 0.88589 0.23284 0.59259 0.0
C3049 C 0.87851 0.21106 0.61801 0.0
C3050 C 0.89393 0.23389 0.57952 0.0
C3051 C 0.88635 0.22882 0.56476 0.0
C3052 C 0.87053 0.22253 0.56275 0.0
C3053 C 0.86253 0.22178 0.57584 0.0
C3054 C 0.87015 0.22695 0.59062 0.0
H3055 H 0.87989 0.20396 0.62687 0.0
H3056 H 0.86733 0.21028 0.6191 0.0
H3057 H 0.87842 0.20603 0.60629 0.0
H3058 H 0.90609 0.23851 0.58074 0.0
H3059 H 0.89293 0.22991 0.55491 0.0
H3060 H 0.35891 0.30271 0.66616 0.0
H3061 H 0.36456 0.28845 0.6463 0.0
H3062 H 0.33342 0.2455 0.66513 0.0
H3063 H 0.3276 0.2598 0.68482 0.0
H3064 H 0.37618 0.26894 0.64871 0.0
H3065 H 0.31799 0.23768 0.61977 0.0
H3066 H 0.32406 0.25373 0.63395 0.0
H3067 H 0.31885 0.23482 0.64011 0.0
C3068 C 0.35346 0.29024 0.66613 0.0
C3069 C 0.34314 0.2823 0.67717 0.0
C3070 C 0.3566 0.28211 0.65476 0.0
C3071 C 0.34927 0.2659 0.65411 0.0
C3072 C 0.339 0.25798 0.66523 0.0
H3073 H 0.35276 0.19951 0.58796 0.0
H3074 H 0.34876 0.21164 0.61109 0.0
C3075 C 0.33576 0.26612 0.67652 0.0
C3076 C 0.35233 0.25734 0.64172 0.0
H3077 H 0.33558 0.23073 0.6108 0.0
C3078 C 0.36731 0.26055 0.64049 0.0
C3079 C 0.34072 0.24643 0.6309 0.0
C3080 C 0.32452 0.24303 0.63111 0.0
C3081 C 0.371 0.25309 0.62882 0.0
C3082 C 0.35943 0.24231 0.61793 0.0
C3083 C 0.34441 0.23893 0.61924 0.0
C3084 C 0.36274 0.23502 0.60456 0.0
C3085 C 0.38725 0.25675 0.62832 0.0
C3086 C 0.37192 0.24417 0.59325 0.0
C3087 C 0.37416 0.2373 0.58002 0.0
C3088 C 0.3672 0.22112 0.5778 0.0
C3089 C 0.3582 0.21199 0.58928 0.0
C3090 C 0.35594 0.21889 0.60252 0.0
H3091 H 0.39375 0.26173 0.63975 0.0
H3092 H 0.38786 0.24626 0.62485 0.0
H3093 H 0.39282 0.26539 0.61963 0.0
H3094 H 0.37697 0.25662 0.59442 0.0
H3095 H 0.38086 0.24466 0.57125 0.0
H3096 H 0.71591 0.08106 0.63958 0.0
H3097 H 0.72565 0.09862 0.61858 0.0
H3098 H 0.75099 0.07675 0.60433 0.0
H3099 H 0.74148 0.0593 0.62522 0.0
H3100 H 0.75888 0.11885 0.61507 0.0
H3101 H 0.72741 0.0785 0.56356 0.0
H3102 H 0.72074 0.07498 0.58284 0.0
H3103 H 0.73573 0.07148 0.57765 0.0
C3104 C 0.72338 0.07985 0.63184 0.0
C3105 C 0.72791 0.06877 0.6341 0.0
C3106 C 0.72895 0.08991 0.61989 0.0
C3107 C 0.73891 0.08886 0.60985 0.0
C3108 C 0.74316 0.07761 0.61184 0.0
H3109 H 0.79451 0.13303 0.53633 0.0
H3110 H 0.77895 0.11621 0.55567 0.0
C3111 C 0.73776 0.06769 0.62385 0.0
C3112 C 0.74576 0.1001 0.59789 0.0
H3113 H 0.74877 0.10258 0.55879 0.0
C3114 C 0.75654 0.11541 0.60274 0.0
C3115 C 0.7427 0.09549 0.58186 0.0
C3116 C 0.73093 0.07925 0.57609 0.0
C3117 C 0.76492 0.12609 0.59198 0.0
C3118 C 0.76213 0.12139 0.57592 0.0
C3119 C 0.75094 0.10618 0.57108 0.0
C3120 C 0.77132 0.13173 0.56404 0.0
C3121 C 0.77722 0.14205 0.598 0.0
C3122 C 0.77208 0.14601 0.56214 0.0
C3123 C 0.78122 0.15583 0.55124 0.0
C3124 C 0.78965 0.15147 0.54189 0.0
C3125 C 0.78849 0.13695 0.54355 0.0
C3126 C 0.77946 0.12723 0.55451 0.0
H3127 H 0.7804 0.14254 0.61058 0.0
H3128 H 0.78754 0.14586 0.59156 0.0
H3129 H 0.77308 0.15036 0.59639 0.0
H3130 H 0.76564 0.14959 0.56911 0.0
H3131 H 0.78187 0.16693 0.55034 0.0
H3132 H 0.93545 0.6586 0.66376 0.0
H3133 H 0.91962 0.65428 0.6398 0.0
H3134 H 0.90709 0.68697 0.65786 0.0
H3135 H 0.92277 0.69105 0.68209 0.0
H3136 H 0.88238 0.65951 0.64404 0.0
H3137 H 0.92991 0.68436 0.60572 0.0
H3138 H 0.92961 0.66943 0.61693 0.0
H3139 H 0.93282 0.68717 0.62663 0.0
C3140 C 0.92917 0.66472 0.66263 0.0
C3141 C 0.92987 0.67478 0.67481 0.0
C3142 C 0.9203 0.6624 0.64891 0.0
C3143 C 0.91229 0.67039 0.64703 0.0
C3144 C 0.91317 0.68067 0.65913 0.0
H3145 H 0.87434 0.67681 0.55776 0.0
H3146 H 0.88775 0.68206 0.58332 0.0
C3147 C 0.9221 0.68301 0.67289 0.0
C3148 C 0.90299 0.66796 0.63239 0.0
H3149 H 0.90504 0.67023 0.5932 0.0
C3150 C 0.88731 0.66192 0.63291 0.0
C3151 C 0.90952 0.6713 0.61794 0.0
C3152 C 0.92641 0.67856 0.61673 0.0
C3153 C 0.87789 0.65884 0.61928 0.0
C3154 C 0.88435 0.66166 0.60478 0.0
C3155 C 0.90008 0.66795 0.60432 0.0
C3156 C 0.87515 0.65849 0.58987 0.0
C3157 C 0.86117 0.6528 0.62057 0.0
C3158 C 0.86353 0.64347 0.58506 0.0
C3159 C 0.85563 0.64045 0.57048 0.0
C3160 C 0.85933 0.65237 0.56039 0.0
C3161 C 0.87094 0.6674 0.56533 0.0
C3162 C 0.87873 0.67041 0.5799 0.0
H3163 H 0.8588 0.65533 0.63243 0.0
H3164 H 0.85668 0.65788 0.61205 0.0
H3165 H 0.85495 0.64007 0.61814 0.0
H3166 H 0.86079 0.63402 0.59243 0.0
H3167 H 0.8467 0.62877 0.56708 0.0
H3168 H 0.90766 0.66055 0.74329 0.0
H3169 H 0.90038 0.66895 0.76656 0.0
H3170 H 0.94461 0.70967 0.77282 0.0
H3171 H 0.95217 0.70129 0.74946 0.0
H3172 H 0.93449 0.69368 0.8001 0.0
H3173 H 0.89086 0.70432 0.77164 0.0
H3174 H 0.88828 0.68563 0.76598 0.0
H3175 H 0.90498 0.70274 0.76104 0.0
C3176 C 0.91589 0.67133 0.74953 0.0
C3177 C 0.93052 0.68025 0.74444 0.0
C3178 C 0.91164 0.67616 0.76279 0.0
C3179 C 0.92187 0.69004 0.77126 0.0
C3180 C 0.93652 0.69897 0.76635 0.0
H3181 H 0.88584 0.72094 0.8463 0.0
H3182 H 0.90036 0.72173 0.8242 0.0
C3183 C 0.94079 0.69417 0.75299 0.0
C3184 C 0.91727 0.69476 0.78556 0.0
H3185 H 0.88958 0.70093 0.79902 0.0
C3186 C 0.92482 0.69552 0.79988 0.0
C3187 C 0.90482 0.6974 0.78522 0.0
C3188 C 0.89686 0.69764 0.77013 0.0
C3189 C 0.91968 0.69797 0.81394 0.0
C3190 C 0.90654 0.69947 0.81363 0.0
C3191 C 0.89955 0.69961 0.79926 0.0
C3192 C 0.89923 0.69987 0.82795 0.0
C3193 C 0.92825 0.69874 0.829 0.0
C3194 C 0.89383 0.68736 0.83744 0.0
C3195 C 0.88561 0.68691 0.85009 0.0
C3196 C 0.8825 0.69892 0.85346 0.0
C3197 C 0.8882 0.71161 0.84414 0.0
C3198 C 0.89643 0.71204 0.83146 0.0
H3199 H 0.9403 0.70243 0.82727 0.0
H3200 H 0.92787 0.70685 0.83788 0.0
H3201 H 0.92302 0.68708 0.83354 0.0
H3202 H 0.89557 0.67768 0.83477 0.0
H3203 H 0.88148 0.67704 0.85711 0.0
H3204 H 0.31003 0.26536 0.73198 0.0
H3205 H 0.30165 0.24699 0.75228 0.0
H3206 H 0.34523 0.27404 0.77792 0.0
H3207 H 0.35387 0.29192 0.75729 0.0
H3208 H 0.33826 0.24564 0.77634 0.0
H3209 H 0.28775 0.24766 0.79428 0.0
H3210 H 0.28621 0.24265 0.77388 0.0
H3211 H 0.30086 0.26141 0.78183 0.0
C3212 C 0.31772 0.26749 0.74208 0.0
C3213 C 0.3326 0.28006 0.74307 0.0
C3214 C 0.31288 0.25704 0.75374 0.0
C3215 C 0.32271 0.25921 0.7668 0.0
C3216 C 0.33742 0.27207 0.76798 0.0
H3217 H 0.29757 0.20707 0.84962 0.0
H3218 H 0.30308 0.22615 0.83018 0.0
C3219 C 0.34235 0.28231 0.7562 0.0
C3220 C 0.31821 0.24752 0.77862 0.0
H3221 H 0.29062 0.22662 0.80281 0.0
C3222 C 0.32789 0.2416 0.78221 0.0
C3223 C 0.30477 0.24233 0.78645 0.0
C3224 C 0.29439 0.24897 0.78404 0.0
C3225 C 0.32452 0.23063 0.79327 0.0
C3226 C 0.31071 0.22484 0.80051 0.0
C3227 C 0.30109 0.23087 0.79709 0.0
C3228 C 0.30628 0.2128 0.81192 0.0
C3229 C 0.33607 0.22573 0.79736 0.0
C3230 C 0.3058 0.19876 0.80801 0.0
C3231 C 0.30296 0.18804 0.81916 0.0
C3232 C 0.3001 0.19096 0.8343 0.0
C3233 C 0.29973 0.20458 0.838 0.0
C3234 C 0.30287 0.21546 0.82691 0.0
H3235 H 0.34764 0.23461 0.79468 0.0
H3236 H 0.33637 0.22359 0.80986 0.0
H3237 H 0.33308 0.21492 0.79037 0.0
H3238 H 0.30787 0.19619 0.79639 0.0
H3239 H 0.30309 0.1775 0.81601 0.0
H3240 H 0.72757 0.04513 0.71341 0.0
H3241 H 0.74545 0.05686 0.73638 0.0
H3242 H 0.76267 0.10178 0.71823 0.0
H3243 H 0.7444 0.09001 0.69539 0.0
H3244 H 0.77595 0.07326 0.74022 0.0
H3245 H 0.75173 0.10932 0.7606 0.0
H3246 H 0.74248 0.09435 0.74511 0.0
H3247 H 0.75815 0.11286 0.7414 0.0
C3248 C 0.73532 0.05749 0.71429 0.0
C3249 C 0.73493 0.06669 0.70259 0.0
C3250 C 0.74547 0.06418 0.72741 0.0
C3251 C 0.75527 0.08023 0.72913 0.0
C3252 C 0.75501 0.08942 0.7173 0.0
H3253 H 0.81732 0.13612 0.80897 0.0
H3254 H 0.80506 0.12752 0.78261 0.0
C3255 C 0.7447 0.08272 0.70424 0.0
C3256 C 0.76545 0.08722 0.74351 0.0
H3257 H 0.77334 0.11226 0.77516 0.0
C3258 C 0.77549 0.0819 0.74775 0.0
C3259 C 0.76471 0.09839 0.75347 0.0
C3260 C 0.7536 0.10398 0.75003 0.0
C3261 C 0.78479 0.0874 0.76165 0.0
C3262 C 0.78385 0.09834 0.7717 0.0
C3263 C 0.77407 0.10393 0.76735 0.0
C3264 C 0.79214 0.10339 0.78726 0.0
C3265 C 0.79551 0.08142 0.76548 0.0
C3266 C 0.7889 0.09267 0.79857 0.0
C3267 C 0.79576 0.09754 0.81365 0.0
C3268 C 0.80598 0.11327 0.81772 0.0
C3269 C 0.8094 0.12395 0.80625 0.0
C3270 C 0.80248 0.11906 0.79118 0.0
H3271 H 0.79799 0.07665 0.75489 0.0
H3272 H 0.80636 0.09069 0.77134 0.0
H3273 H 0.79022 0.07201 0.77347 0.0
H3274 H 0.78068 0.08057 0.79588 0.0
H3275 H 0.79263 0.08905 0.82225 0.0
H3276 H 0.06242 0.3744 0.04205 0.0
H3277 H 0.07442 0.36312 0.05793 0.0
H3278 H 0.03104 0.32216 0.06076 0.0
H3279 H 0.0188 0.33338 0.04499 0.0
H3280 H 0.04806 0.33382 0.0895 0.0
H3281 H 0.08224 0.32795 0.04442 0.0
H3282 H 0.08476 0.34705 0.04679 0.0
H3283 H 0.06653 0.33114 0.03981 0.0
C3284 C 0.05538 0.36297 0.04598 0.0
C3285 C 0.03962 0.3548 0.04219 0.0
C3286 C 0.0623 0.35651 0.05499 0.0
C3287 C 0.05364 0.34172 0.06031 0.0
C3288 C 0.03792 0.33356 0.05667 0.0
H3289 H 0.09962 0.29632 0.10296 0.0
H3290 H 0.08134 0.30047 0.08739 0.0
C3291 C 0.03096 0.34 0.04764 0.0
C3292 C 0.06103 0.33505 0.07006 0.0
H3293 H 0.08921 0.32587 0.07068 0.0
C3294 C 0.05694 0.3319 0.08536 0.0
C3295 C 0.07242 0.33232 0.06453 0.0
C3296 C 0.07666 0.33464 0.04794 0.0
C3297 C 0.06445 0.32675 0.09551 0.0
C3298 C 0.07646 0.32492 0.09025 0.0
C3299 C 0.08007 0.3274 0.07474 0.0
C3300 C 0.08605 0.32132 0.10079 0.0
C3301 C 0.05951 0.32341 0.11179 0.0
C3302 C 0.09461 0.33156 0.11358 0.0
C3303 C 0.10498 0.32917 0.12252 0.0
C3304 C 0.10706 0.31655 0.11878 0.0
C3305 C 0.09813 0.30603 0.10626 0.0
C3306 C 0.08776 0.30844 0.0973 0.0
H3307 H 0.04757 0.3207 0.11246 0.0
H3308 H 0.06061 0.31359 0.11595 0.0
H3309 H 0.06679 0.33376 0.11974 0.0
H3310 H 0.09369 0.34173 0.1163 0.0
H3311 H 0.11163 0.33742 0.13216 0.0
H3312 H 0.66212 0.66751 0.09753 0.0
H3313 H 0.67185 0.69338 0.11018 0.0
H3314 H 0.6506 0.70495 0.07262 0.0
H3315 H 0.64072 0.67912 0.05996 0.0
H3316 H 0.69049 0.72331 0.0989 0.0
H3317 H 0.63349 0.71321 0.11207 0.0
H3318 H 0.63698 0.69768 0.10657 0.0
H3319 H 0.63517 0.70922 0.09203 0.0
C3320 C 0.65957 0.67558 0.09193 0.0
C3321 C 0.65055 0.67124 0.07781 0.0
C3322 C 0.66515 0.69035 0.09916 0.0
C3323 C 0.66174 0.70095 0.09244 0.0
C3324 C 0.65313 0.69681 0.07812 0.0
H3325 H 0.67758 0.79245 0.11662 0.0
H3326 H 0.67087 0.76727 0.10419 0.0
C3327 C 0.64755 0.68207 0.07088 0.0
C3328 C 0.66692 0.71627 0.10051 0.0
H3329 H 0.65395 0.73883 0.11668 0.0
C3330 C 0.68254 0.72672 0.10288 0.0
C3331 C 0.65648 0.72059 0.10572 0.0
C3332 C 0.63959 0.70956 0.10412 0.0
C3333 C 0.68801 0.74161 0.10993 0.0
C3334 C 0.67755 0.746 0.11494 0.0
C3335 C 0.66194 0.73545 0.11275 0.0
C3336 C 0.68244 0.76158 0.12222 0.0
C3337 C 0.70488 0.75267 0.11157 0.0
C3338 C 0.69118 0.76672 0.1365 0.0
C3339 C 0.69501 0.78112 0.14366 0.0
C3340 C 0.69002 0.79052 0.13674 0.0
C3341 C 0.68141 0.78537 0.12236 0.0
C3342 C 0.67763 0.77103 0.1152 0.0
H3343 H 0.71106 0.74885 0.10391 0.0
H3344 H 0.70748 0.76446 0.10877 0.0
H3345 H 0.70922 0.7533 0.12377 0.0
H3346 H 0.69474 0.75946 0.14226 0.0
H3347 H 0.7015 0.78469 0.15482 0.0
H3348 H 0.33771 0.99132 0.05486 0.0
H3349 H 0.31395 0.97568 0.06667 0.0
H3350 H 0.30305 0.93741 0.0338 0.0
H3351 H 0.32679 0.95326 0.02154 0.0
H3352 H 0.27821 0.94068 0.03883 0.0
H3353 H 0.30743 0.94197 0.09505 0.0
H3354 H 0.31314 0.961 0.08915 0.0
H3355 H 0.31732 0.94834 0.07766 0.0
C3356 C 0.33027 0.97958 0.05009 0.0
C3357 C 0.33421 0.97345 0.03738 0.0
C3358 C 0.31671 0.97063 0.05692 0.0
C3359 C 0.30691 0.95525 0.05139 0.0
C3360 C 0.31053 0.94922 0.03834 0.0
H3361 H 0.23788 0.89274 0.10923 0.0
H3362 H 0.25909 0.90487 0.09298 0.0
C3363 C 0.32408 0.95826 0.03136 0.0
C3364 C 0.29304 0.94554 0.05945 0.0
H3365 H 0.28101 0.9335 0.09519 0.0
C3366 C 0.2788 0.93897 0.05112 0.0
C3367 C 0.29382 0.94308 0.07543 0.0
C3368 C 0.30876 0.94883 0.0848 0.0
C3369 C 0.2653 0.93042 0.05847 0.0
C3370 C 0.26609 0.92872 0.07465 0.0
C3371 C 0.28036 0.93493 0.08283 0.0
C3372 C 0.25235 0.92052 0.08343 0.0
C3373 C 0.25038 0.92314 0.04877 0.0
C3374 C 0.2414 0.9252 0.08349 0.0
C3375 C 0.229 0.91802 0.09257 0.0
C3376 C 0.22742 0.90617 0.102 0.0
C3377 C 0.23846 0.90156 0.1019 0.0
C3378 C 0.25072 0.9086 0.09269 0.0
H3379 H 0.25188 0.92132 0.03635 0.0
H3380 H 0.24212 0.91185 0.05301 0.0
H3381 H 0.24554 0.93094 0.04943 0.0
H3382 H 0.24258 0.93463 0.07676 0.0
H3383 H 0.2207 0.92182 0.09223 0.0
H3384 H 0.34124 0.01111 0.0007 0.0
H3385 H 0.32703 0.02258 0.98904 0.0
H3386 H 0.36837 0.06627 0.98885 0.0
H3387 H 0.38272 0.05499 0.00044 0.0
H3388 H 0.32553 0.04936 0.00096 0.0
H3389 H 0.34927 0.05684 0.94326 0.0
H3390 H 0.35039 0.04402 0.95684 0.0
H3391 H 0.36318 0.06448 0.95956 0.0
C3392 C 0.34735 0.02315 0.99813 0.0
C3393 C 0.36317 0.03209 0.00144 0.0
C3394 C 0.33918 0.02968 0.99151 0.0
C3395 C 0.34669 0.0452 0.98794 0.0
C3396 C 0.36241 0.05419 0.99132 0.0
H3397 H 0.31655 0.10989 0.96793 0.0
H3398 H 0.32595 0.09416 0.98012 0.0
C3399 C 0.37058 0.04772 0.99799 0.0
C3400 C 0.3381 0.05211 0.98081 0.0
H3401 H 0.33499 0.06927 0.94845 0.0
C3402 C 0.3275 0.05362 0.98944 0.0
C3403 C 0.34058 0.05747 0.96572 0.0
C3404 C 0.35137 0.05553 0.95571 0.0
C3405 C 0.31964 0.06084 0.98353 0.0
C3406 C 0.32258 0.06676 0.96868 0.0
C3407 C 0.33283 0.06479 0.95988 0.0
C3408 C 0.31554 0.07546 0.96218 0.0
C3409 C 0.30826 0.06207 0.99318 0.0
C3410 C 0.30657 0.07016 0.94806 0.0
C3411 C 0.30123 0.07914 0.94105 0.0
C3412 C 0.30491 0.09367 0.94796 0.0
C3413 C 0.31357 0.09876 0.96232 0.0
C3414 C 0.31884 0.08974 0.96936 0.0
H3415 H 0.30445 0.05359 0.00226 0.0
H3416 H 0.31358 0.07383 0.99907 0.0
H3417 H 0.29818 0.0602 0.98578 0.0
H3418 H 0.30401 0.05923 0.94228 0.0
H3419 H 0.29481 0.07502 0.92987 0.0
H3420 H 0.96325 0.31111 0.0156 0.0
H3421 H 0.9458 0.28551 0.003 0.0
H3422 H 0.97691 0.29348 0.9676 0.0
H3423 H 0.99447 0.31901 0.98017 0.0
H3424 H 0.93304 0.281 0.97219 0.0
H3425 H 0.96503 0.24958 0.97991 0.0
H3426 H 0.96962 0.26695 0.99156 0.0
H3427 H 0.97533 0.26815 0.97206 0.0
C3428 C 0.96649 0.30732 0.00527 0.0
C3429 C 0.98022 0.31709 0.99886 0.0
C3430 C 0.95651 0.29271 0.99809 0.0
C3431 C 0.96015 0.28756 0.98447 0.0
C3432 C 0.97402 0.29712 0.97826 0.0
H3433 H 0.90825 0.20818 0.91799 0.0
H3434 H 0.92842 0.23177 0.93222 0.0
C3435 C 0.984 0.31174 0.98542 0.0
C3436 C 0.94886 0.27281 0.97603 0.0
H3437 H 0.94249 0.2372 0.96307 0.0
C3438 C 0.93506 0.27139 0.97027 0.0
C3439 C 0.95164 0.26039 0.97339 0.0
C3440 C 0.96615 0.26122 0.97964 0.0
C3441 C 0.92397 0.2579 0.96185 0.0
C3442 C 0.92664 0.24537 0.95941 0.0
C3443 C 0.9405 0.24683 0.96501 0.0
C3444 C 0.91495 0.23059 0.95133 0.0
C3445 C 0.9096 0.25727 0.95542 0.0
C3446 C 0.90092 0.22195 0.9576 0.0
C3447 C 0.88944 0.20859 0.94952 0.0
C3448 C 0.89182 0.20352 0.93507 0.0
C3449 C 0.90611 0.21182 0.9291 0.0
C3450 C 0.91761 0.22528 0.93719 0.0
H3451 H 0.91104 0.26902 0.95467 0.0
H3452 H 0.90591 0.25117 0.94367 0.0
H3453 H 0.90043 0.25089 0.9632 0.0
H3454 H 0.89878 0.22568 0.96867 0.0
H3455 H 0.87866 0.20222 0.95458 0.0
H3456 H 0.6704 0.65533 0.03174 0.0
H3457 H 0.69284 0.66624 0.01683 0.0
H3458 H 0.69552 0.62465 0.02026 0.0
H3459 H 0.67316 0.61362 0.03526 0.0
H3460 H 0.72388 0.65324 0.02673 0.0
H3461 H 0.69287 0.65138 0.9711 0.0
H3462 H 0.69005 0.6608 0.98772 0.0
H3463 H 0.68332 0.64042 0.98719 0.0
C3464 C 0.67576 0.64848 0.02938 0.0
C3465 C 0.66987 0.63353 0.03463 0.0
C3466 C 0.68855 0.65473 0.02079 0.0
C3467 C 0.69569 0.64616 0.0173 0.0
C3468 C 0.6901 0.63141 0.0228 0.0
H3469 H 0.7576 0.65416 0.94941 0.0
H3470 H 0.7364 0.64672 0.96578 0.0
C3471 C 0.67729 0.62512 0.03133 0.0
C3472 C 0.70893 0.65247 0.00779 0.0
H3473 H 0.71944 0.66243 0.97113 0.0
C3474 C 0.72296 0.65534 0.0146 0.0
C3475 C 0.7076 0.65505 0.99194 0.0
C3476 C 0.69265 0.65167 0.98395 0.0
C3477 C 0.73575 0.66069 0.00593 0.0
C3478 C 0.73443 0.66333 0.9901 0.0
C3479 C 0.72041 0.66051 0.98331 0.0
C3480 C 0.74726 0.66815 0.98016 0.0
C3481 C 0.75046 0.66308 0.01362 0.0
C3482 C 0.7603 0.68276 0.98273 0.0
C3483 C 0.77246 0.68704 0.97341 0.0
C3484 C 0.77176 0.67675 0.9614 0.0
C3485 C 0.75857 0.66223 0.95873 0.0
C3486 C 0.74642 0.658 0.96799 0.0
H3487 H 0.74887 0.65789 0.02503 0.0
H3488 H 0.7556 0.65798 0.00603 0.0
H3489 H 0.75858 0.67565 0.01556 0.0
H3490 H 0.76107 0.69081 0.99197 0.0
H3491 H 0.7825 0.69827 0.97576 0.0
H3492 H 0.95396 0.65051 0.03465 0.0
H3493 H 0.93768 0.65866 0.02089 0.0
H3494 H 0.9709 0.67944 0.98728 0.0
H3495 H 0.98721 0.67145 0.00091 0.0
H3496 H 0.95825 0.69798 0.99842 0.0
H3497 H 0.91458 0.6379 0.97785 0.0
H3498 H 0.91967 0.6414 0.99842 0.0
H3499 H 0.93344 0.64287 0.98533 0.0
C3500 C 0.95783 0.65691 0.02439 0.0
C3501 C 0.97182 0.66024 0.0188 0.0
C3502 C 0.9485 0.66149 0.01652 0.0
C3503 C 0.95304 0.66949 0.00299 0.0
C3504 C 0.96719 0.67325 0.99768 0.0
H3505 H 0.90074 0.68073 0.92819 0.0
H3506 H 0.918 0.67575 0.94451 0.0
C3507 C 0.97647 0.66862 0.00548 0.0
C3508 C 0.94292 0.67357 0.99398 0.0
H3509 H 0.90977 0.65783 0.97105 0.0
C3510 C 0.9476 0.68923 0.99249 0.0
C3511 C 0.92916 0.66209 0.98611 0.0
C3512 C 0.9239 0.64511 0.98685 0.0
C3513 C 0.93884 0.69373 0.98334 0.0
C3514 C 0.92503 0.68224 0.97558 0.0
C3515 C 0.92036 0.66659 0.97707 0.0
C3516 C 0.91531 0.68616 0.96565 0.0
C3517 C 0.94458 0.7107 0.98173 0.0
C3518 C 0.90814 0.69372 0.97214 0.0
C3519 C 0.8982 0.69651 0.96288 0.0
C3520 C 0.89523 0.69174 0.94694 0.0
C3521 C 0.90267 0.68442 0.94044 0.0
C3522 C 0.91257 0.68161 0.94972 0.0
H3523 H 0.9568 0.71787 0.98566 0.0
H3524 H 0.94289 0.7129 0.96948 0.0
H3525 H 0.93809 0.71447 0.98895 0.0
H3526 H 0.90989 0.69707 0.98447 0.0
H3527 H 0.89244 0.70189 0.96832 0.0
H3528 H 0.33751 0.33618 0.97712 0.0
H3529 H 0.32315 0.31024 0.96395 0.0
H3530 H 0.36271 0.30499 0.9691 0.0
H3531 H 0.37713 0.33072 0.98219 0.0
H3532 H 0.33103 0.29791 0.93605 0.0
H3533 H 0.32801 0.26704 0.98908 0.0
H3534 H 0.3318 0.28677 0.98979 0.0
H3535 H 0.34665 0.28252 0.98609 0.0
C3536 C 0.34317 0.32953 0.97542 0.0
C3537 C 0.35848 0.33555 0.98079 0.0
C3538 C 0.33494 0.31473 0.96789 0.0
C3539 C 0.34185 0.30569 0.96577 0.0
C3540 C 0.35714 0.31175 0.97084 0.0
H3541 H 0.33049 0.22134 0.92846 0.0
H3542 H 0.33762 0.24661 0.94077 0.0
C3543 C 0.36538 0.32651 0.97826 0.0
C3544 C 0.33325 0.28987 0.95828 0.0
H3545 H 0.32271 0.2525 0.96476 0.0
C3546 C 0.32892 0.28789 0.94232 0.0
C3547 C 0.33051 0.2769 0.96658 0.0
C3548 C 0.33435 0.27833 0.98387 0.0
C3549 C 0.32276 0.27334 0.93422 0.0
C3550 C 0.32072 0.26051 0.94242 0.0
C3551 C 0.32436 0.26239 0.95851 0.0
C3552 C 0.31618 0.24533 0.93438 0.0
C3553 C 0.31924 0.27193 0.91688 0.0
C3554 C 0.30172 0.23622 0.92671 0.0
C3555 C 0.29763 0.22175 0.91951 0.0
C3556 C 0.30795 0.2162 0.91989 0.0
C3557 C 0.32239 0.22539 0.92765 0.0
C3558 C 0.32644 0.23979 0.93482 0.0
H3559 H 0.32371 0.28339 0.91197 0.0
H3560 H 0.32411 0.26549 0.91098 0.0
H3561 H 0.30676 0.26537 0.91423 0.0
H3562 H 0.29357 0.24022 0.92644 0.0
H3563 H 0.28643 0.21494 0.9136 0.0
H3564 H 0.6794 0.05269 0.04231 0.0
H3565 H 0.70367 0.06762 0.03059 0.0
H3566 H 0.6887 0.03204 0.9934 0.0
H3567 H 0.66464 0.01715 0.00493 0.0
H3568 H 0.71922 0.04328 0.00705 0.0
H3569 H 0.70773 0.08993 0.98944 0.0
H3570 H 0.70597 0.08531 0.00946 0.0
H3571 H 0.69285 0.07144 0.99464 0.0
C3572 C 0.68133 0.04806 0.03166 0.0
C3573 C 0.67008 0.0338 0.02449 0.0
C3574 C 0.69516 0.0566 0.02498 0.0
C3575 C 0.69789 0.05095 0.01109 0.0
C3576 C 0.6868 0.03659 0.00413 0.0
H3577 H 0.75195 0.08617 0.93526 0.0
H3578 H 0.73274 0.07488 0.954 0.0
C3579 C 0.67302 0.02812 0.01072 0.0
C3580 C 0.71206 0.05999 0.00335 0.0
H3581 H 0.72987 0.09089 0.9813 0.0
C3582 C 0.72172 0.05383 0.00162 0.0
C3583 C 0.71514 0.07365 0.99617 0.0
C3584 C 0.70488 0.08051 0.99738 0.0
C3585 C 0.73417 0.06073 0.99249 0.0
C3586 C 0.73702 0.07417 0.985 0.0
C3587 C 0.72763 0.0806 0.98712 0.0
C3588 C 0.74888 0.08099 0.97388 0.0
C3589 C 0.74376 0.05322 0.9903 0.0
C3590 C 0.76433 0.08815 0.97888 0.0
C3591 C 0.77537 0.0947 0.96819 0.0
C3592 C 0.77113 0.09423 0.95233 0.0
C3593 C 0.75561 0.08692 0.94741 0.0
C3594 C 0.74462 0.08043 0.95808 0.0
H3595 H 0.73868 0.04163 0.995 0.0
H3596 H 0.74531 0.05203 0.97778 0.0
H3597 H 0.75514 0.06063 0.99639 0.0
H3598 H 0.76783 0.08885 0.99107 0.0
H3599 H 0.78722 0.10044 0.97239 0.0
H3600 H 0.62367 0.95162 0.05197 0.0
H3601 H 0.6375 0.94007 0.06416 0.0
H3602 H 0.6742 0.9854 0.07975 0.0
H3603 H 0.6606 0.99713 0.06736 0.0
H3604 H 0.68408 0.96537 0.06847 0.0
H3605 H 0.64091 0.93826 0.1113 0.0
H3606 H 0.63328 0.93318 0.09144 0.0
H3607 H 0.64153 0.95287 0.09917 0.0
C3608 C 0.6347 0.95917 0.05795 0.0
C3609 C 0.64093 0.97531 0.05887 0.0
C3610 C 0.64258 0.95253 0.06492 0.0
C3611 C 0.65673 0.96188 0.07308 0.0
C3612 C 0.66325 0.97799 0.07355 0.0
H3613 H 0.69405 0.92883 0.14387 0.0
H3614 H 0.68602 0.94416 0.12879 0.0
C3615 C 0.65543 0.98466 0.0665 0.0
C3616 C 0.66442 0.95482 0.08171 0.0
H3617 H 0.6599 0.93115 0.11089 0.0
C3618 C 0.67885 0.95791 0.07778 0.0
C3619 C 0.65764 0.94532 0.094 0.0
C3620 C 0.64256 0.94231 0.09936 0.0
C3621 C 0.68661 0.95152 0.08571 0.0
C3622 C 0.6796 0.94162 0.09767 0.0
C3623 C 0.66524 0.93869 0.10167 0.0
C3624 C 0.68683 0.93416 0.10642 0.0
C3625 C 0.7023 0.95562 0.0814 0.0
C3626 C 0.69033 0.92375 0.09883 0.0
C3627 C 0.69508 0.91509 0.10746 0.0
C3628 C 0.69612 0.91657 0.12376 0.0
C3629 C 0.69323 0.92744 0.1313 0.0
C3630 C 0.68866 0.93619 0.1227 0.0
H3631 H 0.70764 0.96644 0.07524 0.0
H3632 H 0.70977 0.95702 0.09187 0.0
H3633 H 0.70153 0.94618 0.07353 0.0
H3634 H 0.68869 0.92177 0.0863 0.0
H3635 H 0.69711 0.90665 0.10143 0.0
H3636 H 0.05411 0.69342 0.05601 0.0
H3637 H 0.06667 0.7181 0.07135 0.0
H3638 H 0.02338 0.71057 0.0849 0.0
H3639 H 0.0106 0.68592 0.06923 0.0
H3640 H 0.04183 0.7404 0.07795 0.0
H3641 H 0.07303 0.72216 0.11826 0.0
H3642 H 0.07653 0.7201 0.0984 0.0
H3643 H 0.0577 0.70869 0.10466 0.0
C3644 C 0.04722 0.69698 0.06223 0.0
C3645 C 0.03135 0.68759 0.06154 0.0
C3646 C 0.05444 0.71108 0.07106 0.0
C3647 C 0.04599 0.71598 0.07959 0.0
C3648 C 0.03011 0.70692 0.07851 0.0
H3649 H 0.09594 0.79099 0.15131 0.0
H3650 H 0.07661 0.7664 0.13805 0.0
C3651 C 0.02284 0.69285 0.06954 0.0
C3652 C 0.05383 0.7305 0.08969 0.0
H3653 H 0.08192 0.7493 0.11868 0.0
C3654 C 0.05048 0.74232 0.08699 0.0
C3655 C 0.06485 0.73285 0.10172 0.0
C3656 C 0.06813 0.72021 0.10606 0.0
C3657 C 0.05837 0.75669 0.09554 0.0
C3658 C 0.07015 0.7594 0.1068 0.0
C3659 C 0.07301 0.74732 0.10994 0.0
C3660 C 0.08021 0.77479 0.11498 0.0
C3661 C 0.05394 0.76877 0.09242 0.0
C3662 C 0.0885 0.78774 0.10647 0.0
C3663 C 0.09938 0.80181 0.11404 0.0
C3664 C 0.10238 0.8031 0.13024 0.0
C3665 C 0.09384 0.79026 0.1388 0.0
C3666 C 0.08282 0.77625 0.13124 0.0
H3667 H 0.04185 0.76336 0.08796 0.0
H3668 H 0.05576 0.77625 0.10306 0.0
H3669 H 0.06093 0.77614 0.0834 0.0
H3670 H 0.08707 0.78682 0.0939 0.0
H3671 H 0.10601 0.81145 0.10714 0.0
H3672 H 0.33573 0.35011 0.04312 0.0
H3673 H 0.31246 0.34139 0.05633 0.0
H3674 H 0.29693 0.36292 0.02333 0.0
H3675 H 0.32024 0.37164 0.00989 0.0
H3676 H 0.30305 0.36086 0.06995 0.0
H3677 H 0.25997 0.31904 0.02483 0.0
H3678 H 0.27998 0.32563 0.02431 0.0
H3679 H 0.27258 0.33786 0.01851 0.0
C3680 C 0.32732 0.35289 0.03855 0.0
C3681 C 0.32984 0.36159 0.02546 0.0
C3682 C 0.31402 0.34789 0.04613 0.0
C3683 C 0.30292 0.35139 0.04074 0.0
C3684 C 0.30526 0.35987 0.02753 0.0
H3685 H 0.23288 0.35018 0.09539 0.0
H3686 H 0.25367 0.35705 0.07858 0.0
C3687 C 0.31861 0.36491 0.01991 0.0
C3688 C 0.28938 0.34691 0.04959 0.0
H3689 H 0.25075 0.32463 0.04749 0.0
C3690 C 0.29162 0.35295 0.06503 0.0
C3691 C 0.2745 0.33648 0.04319 0.0
C3692 C 0.27153 0.32924 0.02684 0.0
C3693 C 0.27937 0.34891 0.07423 0.0
C3694 C 0.26447 0.33871 0.06775 0.0
C3695 C 0.2622 0.33255 0.05236 0.0
C3696 C 0.25117 0.33422 0.07697 0.0
C3697 C 0.28248 0.35539 0.09091 0.0
C3698 C 0.24264 0.319 0.08127 0.0
C3699 C 0.23079 0.31504 0.09097 0.0
C3700 C 0.22725 0.32624 0.09647 0.0
C3701 C 0.23552 0.34135 0.09164 0.0
C3702 C 0.24735 0.34529 0.08199 0.0
H3703 H 0.2946 0.36035 0.09503 0.0
H3704 H 0.27955 0.36471 0.09192 0.0
H3705 H 0.27541 0.34631 0.09866 0.0
H3706 H 0.24543 0.31029 0.07749 0.0
H3707 H 0.22473 0.30333 0.09454 0.0
H3708 H 0.67953 0.66958 0.38195 0.0
H3709 H 0.69108 0.65735 0.39722 0.0
H3710 H 0.73471 0.69866 0.39753 0.0
H3711 H 0.72341 0.71095 0.38222 0.0
H3712 H 0.73445 0.67069 0.38886 0.0
H3713 H 0.70697 0.66764 0.44386 0.0
H3714 H 0.69465 0.65981 0.42633 0.0
H3715 H 0.70771 0.68018 0.42896 0.0
C3716 C 0.69157 0.6761 0.38532 0.0
C3717 C 0.70052 0.69129 0.38087 0.0
C3718 C 0.69813 0.6691 0.3941 0.0
C3719 C 0.7137 0.67717 0.39861 0.0
C3720 C 0.72265 0.69227 0.39419 0.0
H3721 H 0.77436 0.67061 0.4644 0.0
H3722 H 0.75587 0.67525 0.45 0.0
C3723 C 0.71614 0.69929 0.38545 0.0
C3724 C 0.72093 0.66987 0.4076 0.0
H3725 H 0.72387 0.65789 0.44349 0.0
C3726 C 0.73204 0.66772 0.40075 0.0
C3727 C 0.71777 0.66612 0.42312 0.0
C3728 C 0.70621 0.66862 0.43112 0.0
C3729 C 0.7404 0.66229 0.40914 0.0
C3730 C 0.73738 0.6587 0.42473 0.0
C3731 C 0.72602 0.66051 0.43149 0.0
C3732 C 0.74698 0.65459 0.4346 0.0
C3733 C 0.75287 0.66113 0.40147 0.0
C3734 C 0.74773 0.64116 0.43104 0.0
C3735 C 0.75837 0.63853 0.43918 0.0
C3736 C 0.7684 0.6493 0.45103 0.0
C3737 C 0.76696 0.66225 0.45515 0.0
C3738 C 0.75634 0.66486 0.44702 0.0
H3739 H 0.75556 0.66703 0.39045 0.0
H3740 H 0.76338 0.66625 0.40937 0.0
H3741 H 0.74925 0.64878 0.39877 0.0
H3742 H 0.74043 0.63299 0.42161 0.0
H3743 H 0.75924 0.62847 0.43571 0.0
H3744 H 0.32373 0.99572 0.43611 0.0
H3745 H 0.33252 0.0213 0.44903 0.0
H3746 H 0.32118 0.03631 0.40675 0.0
H3747 H 0.31196 0.01068 0.39393 0.0
H3748 H 0.35437 0.05011 0.44347 0.0
H3749 H 0.29813 0.04631 0.43746 0.0
H3750 H 0.30061 0.02986 0.43344 0.0
H3751 H 0.30447 0.04378 0.41912 0.0
C3752 C 0.32314 0.00449 0.42957 0.0
C3753 C 0.31699 0.00115 0.41406 0.0
C3754 C 0.32818 0.0191 0.43696 0.0
C3755 C 0.3272 0.03062 0.42896 0.0
C3756 C 0.32164 0.02748 0.41328 0.0
H3757 H 0.37205 0.12893 0.45627 0.0
H3758 H 0.36545 0.10321 0.44527 0.0
C3759 C 0.31646 0.01284 0.40594 0.0
C3760 C 0.33184 0.04586 0.43703 0.0
H3761 H 0.31916 0.07099 0.44558 0.0
C3762 C 0.34666 0.05466 0.44401 0.0
C3763 C 0.32168 0.05166 0.438 0.0
C3764 C 0.30529 0.04235 0.43175 0.0
C3765 C 0.35169 0.06924 0.45164 0.0
C3766 C 0.34174 0.07534 0.45195 0.0
C3767 C 0.32685 0.0664 0.44522 0.0
C3768 C 0.34641 0.09092 0.45923 0.0
C3769 C 0.36751 0.07781 0.45954 0.0
C3770 C 0.33775 0.09263 0.47052 0.0
C3771 C 0.34135 0.1073 0.47661 0.0
C3772 C 0.35373 0.12057 0.47158 0.0
C3773 C 0.36258 0.11887 0.4605 0.0
C3774 C 0.35885 0.10418 0.45426 0.0
H3775 H 0.37178 0.0698 0.4624 0.0
H3776 H 0.37531 0.08611 0.45158 0.0
H3777 H 0.36792 0.08436 0.47039 0.0
H3778 H 0.32809 0.08258 0.47452 0.0
H3779 H 0.33442 0.10829 0.48523 0.0
H3780 H 0.00714 0.31986 0.38745 0.0
H3781 H 0.98267 0.30575 0.39849 0.0
H3782 H 0.96769 0.26941 0.36212 0.0
H3783 H 0.99226 0.28362 0.3508 0.0
H3784 H 0.94556 0.27828 0.36929 0.0
H3785 H 0.97056 0.26664 0.42206 0.0
H3786 H 0.97963 0.28669 0.41814 0.0
H3787 H 0.98059 0.27303 0.40474 0.0
C3788 C 0.99865 0.3089 0.38172 0.0
C3789 C 0.0017 0.30279 0.36832 0.0
C3790 C 0.98468 0.30082 0.3881 0.0
C3791 C 0.97349 0.28641 0.3813 0.0
C3792 C 0.97624 0.28048 0.3676 0.0
H3793 H 0.88384 0.22135 0.41083 0.0
H3794 H 0.9061 0.23454 0.3958 0.0
C3795 C 0.99027 0.2886 0.36116 0.0
C3796 C 0.9591 0.27749 0.3888 0.0
H3797 H 0.94515 0.26151 0.42275 0.0
C3798 C 0.94541 0.27447 0.38092 0.0
C3799 C 0.95896 0.27251 0.40395 0.0
C3800 C 0.97319 0.27474 0.41268 0.0
C3801 C 0.93164 0.26709 0.38806 0.0
C3802 C 0.93159 0.26245 0.40336 0.0
C3803 C 0.94524 0.2652 0.41107 0.0
C3804 C 0.91758 0.25488 0.41176 0.0
C3805 C 0.91734 0.26473 0.37938 0.0
C3806 C 0.91671 0.26188 0.42576 0.0
C3807 C 0.90409 0.25433 0.43444 0.0
C3808 C 0.89212 0.23955 0.42932 0.0
C3809 C 0.89291 0.23268 0.41513 0.0
C3810 C 0.90555 0.24026 0.40645 0.0
H3811 H 0.91984 0.27203 0.36931 0.0
H3812 H 0.91042 0.25246 0.37492 0.0
H3813 H 0.91045 0.26741 0.38719 0.0
H3814 H 0.92593 0.27311 0.43012 0.0
H3815 H 0.90397 0.25985 0.44542 0.0
H3816 H 0.01722 0.34798 0.33989 0.0
H3817 H 0.00735 0.36325 0.32758 0.0
H3818 H 0.04996 0.39007 0.30722 0.0
H3819 H 0.06013 0.37543 0.32026 0.0
H3820 H 0.04165 0.40841 0.3185 0.0
H3821 H 0.9916 0.36135 0.28438 0.0
H3822 H 0.99091 0.35828 0.3047 0.0
H3823 H 0.0058 0.35824 0.29422 0.0
C3824 C 0.0244 0.35704 0.33265 0.0
C3825 C 0.03942 0.36052 0.33099 0.0
C3826 C 0.01872 0.36569 0.32552 0.0
C3827 C 0.02778 0.37764 0.31618 0.0
C3828 C 0.04272 0.38092 0.31434 0.0
H3829 H 0.99506 0.42241 0.25331 0.0
H3830 H 0.00303 0.40562 0.26568 0.0
C3831 C 0.04852 0.37254 0.32177 0.0
C3832 C 0.02209 0.38731 0.309 0.0
H3833 H 0.99271 0.38581 0.28664 0.0
C3834 C 0.03099 0.40345 0.31144 0.0
C3835 C 0.00827 0.38089 0.29961 0.0
C3836 C 0.99869 0.36375 0.29543 0.0
C3837 C 0.02653 0.41333 0.30478 0.0
C3838 C 0.01236 0.4069 0.29603 0.0
C3839 C 0.00346 0.39076 0.29355 0.0
C3840 C 0.00687 0.41669 0.28879 0.0
C3841 C 0.03734 0.43053 0.3068 0.0
C3842 C 0.00603 0.4283 0.29768 0.0
C3843 C 0.00181 0.43811 0.29056 0.0
C3844 C 0.99784 0.43611 0.27452 0.0
C3845 C 0.99799 0.42407 0.26574 0.0
C3846 C 0.00254 0.41451 0.27279 0.0
H3847 H 0.04922 0.43318 0.30938 0.0
H3848 H 0.03688 0.43635 0.29624 0.0
H3849 H 0.03424 0.43549 0.31674 0.0
H3850 H 0.00881 0.4299 0.31012 0.0
H3851 H 0.00165 0.44726 0.29754 0.0
H3852 H 0.6264 0.64834 0.34798 0.0
H3853 H 0.61003 0.62319 0.33407 0.0
H3854 H 0.64424 0.63262 0.30189 0.0
H3855 H 0.66077 0.65784 0.31577 0.0
H3856 H 0.6005 0.62038 0.30138 0.0
H3857 H 0.63054 0.58772 0.31456 0.0
H3858 H 0.63367 0.60441 0.32656 0.0
H3859 H 0.64168 0.60686 0.30811 0.0
C3860 C 0.63055 0.64499 0.33808 0.0
C3861 C 0.64486 0.65509 0.33294 0.0
C3862 C 0.62118 0.63062 0.33016 0.0
C3863 C 0.62599 0.62604 0.31705 0.0
C3864 C 0.64043 0.63587 0.31213 0.0
H3865 H 0.57471 0.54375 0.25274 0.0
H3866 H 0.59525 0.56782 0.26593 0.0
C3867 C 0.64981 0.6503 0.32003 0.0
C3868 C 0.61533 0.61153 0.30785 0.0
H3869 H 0.60839 0.57514 0.29745 0.0
C3870 C 0.60223 0.61049 0.3005 0.0
C3871 C 0.61776 0.59877 0.30657 0.0
C3872 C 0.63162 0.59935 0.31442 0.0
C3873 C 0.59135 0.59692 0.29204 0.0
C3874 C 0.59347 0.58394 0.29122 0.0
C3875 C 0.60679 0.5851 0.29819 0.0
C3876 C 0.58156 0.5689 0.28383 0.0
C3877 C 0.57767 0.59662 0.28403 0.0
C3878 C 0.56727 0.56138 0.28982 0.0
C3879 C 0.5556 0.54776 0.28235 0.0
C3880 C 0.55802 0.54131 0.26879 0.0
C3881 C 0.57254 0.54848 0.26317 0.0
C3882 C 0.58425 0.56221 0.27065 0.0
H3883 H 0.57983 0.60845 0.28202 0.0
H3884 H 0.5743 0.58975 0.27268 0.0
H3885 H 0.568 0.59121 0.29146 0.0
H3886 H 0.56509 0.56618 0.30019 0.0
H3887 H 0.54463 0.54229 0.28715 0.0
H3888 H 0.34137 0.945 0.37195 0.0
H3889 H 0.36343 0.95529 0.35662 0.0
H3890 H 0.35933 0.99561 0.34925 0.0
H3891 H 0.33713 0.98541 0.36468 0.0
H3892 H 0.36195 0.97917 0.3214 0.0
H3893 H 0.40677 0.99327 0.3686 0.0
H3894 H 0.39025 0.97447 0.36885 0.0
H3895 H 0.3886 0.99144 0.37215 0.0
C3896 C 0.34516 0.95611 0.36717 0.0
C3897 C 0.33744 0.96437 0.36954 0.0
C3898 C 0.35784 0.962 0.35848 0.0
C3899 C 0.36306 0.97625 0.35195 0.0
C3900 C 0.35549 0.98462 0.3543 0.0
H3901 H 0.44742 0.01845 0.30467 0.0
H3902 H 0.42702 0.01487 0.32104 0.0
C3903 C 0.34284 0.97879 0.36314 0.0
C3904 C 0.37601 0.98192 0.34206 0.0
H3905 H 0.41341 0.99218 0.34266 0.0
C3906 C 0.37326 0.98222 0.32604 0.0
C3907 C 0.39074 0.986 0.3482 0.0
C3908 C 0.39437 0.98643 0.36542 0.0
C3909 C 0.38476 0.98586 0.31588 0.0
C3910 C 0.39931 0.98914 0.32193 0.0
C3911 C 0.40221 0.98953 0.33804 0.0
C3912 C 0.41145 0.99153 0.31169 0.0
C3913 C 0.38122 0.98601 0.29875 0.0
C3914 C 0.40949 0.97954 0.30114 0.0
C3915 C 0.42108 0.98155 0.29179 0.0
C3916 C 0.4349 0.99558 0.29285 0.0
C3917 C 0.43685 0.00758 0.30346 0.0
C3918 C 0.42525 0.00553 0.31286 0.0
H3919 H 0.37119 0.98753 0.29656 0.0
H3920 H 0.39105 0.99539 0.29346 0.0
H3921 H 0.37863 0.97483 0.29283 0.0
H3922 H 0.39903 0.96855 0.30025 0.0
H3923 H 0.41917 0.97215 0.28364 0.0
H3924 H 0.6207 0.97137 0.36267 0.0
H3925 H 0.60444 0.97731 0.34594 0.0
H3926 H 0.63989 0.99819 0.31459 0.0
H3927 H 0.65631 0.99233 0.33131 0.0
H3928 H 0.62492 0.01562 0.3221 0.0
H3929 H 0.58451 0.95432 0.3028 0.0
H3930 H 0.58815 0.95824 0.3235 0.0
H3931 H 0.60321 0.9606 0.31182 0.0
C3932 C 0.62508 0.97728 0.35225 0.0
C3933 C 0.63977 0.9813 0.34827 0.0
C3934 C 0.61574 0.9806 0.34267 0.0
C3935 C 0.6209 0.98798 0.32893 0.0
C3936 C 0.63569 0.99241 0.32512 0.0
H3937 H 0.5619 0.99228 0.25483 0.0
H3938 H 0.58137 0.98916 0.26941 0.0
C3939 C 0.64504 0.98904 0.33467 0.0
C3940 C 0.61075 0.99094 0.3185 0.0
H3941 H 0.57719 0.97272 0.29616 0.0
C3942 C 0.61452 0.00627 0.31634 0.0
C3943 C 0.59732 0.9787 0.31085 0.0
C3944 C 0.59307 0.96202 0.31221 0.0
C3945 C 0.60495 0.00967 0.30709 0.0
C3946 C 0.59121 0.99742 0.29995 0.0
C3947 C 0.58768 0.9821 0.30174 0.0
C3948 C 0.58012 0.00017 0.29089 0.0
C3949 C 0.60962 0.02635 0.30498 0.0
C3950 C 0.57294 0.00735 0.29817 0.0
C3951 C 0.56175 0.00905 0.28992 0.0
C3952 C 0.55747 0.00355 0.27422 0.0
C3953 C 0.56482 0.99651 0.26693 0.0
C3954 C 0.57599 0.99479 0.27521 0.0
H3955 H 0.62201 0.03407 0.30768 0.0
H3956 H 0.60657 0.02787 0.29291 0.0
H3957 H 0.60359 0.03002 0.31299 0.0
H3958 H 0.5757 0.01127 0.31036 0.0
H3959 H 0.55611 0.01423 0.29599 0.0
H3960 H 0.00982 0.67271 0.31374 0.0
H3961 H 0.99923 0.64713 0.30005 0.0
H3962 H 0.04223 0.64883 0.30785 0.0
H3963 H 0.05291 0.67419 0.32155 0.0
H3964 H 0.00993 0.63796 0.27326 0.0
H3965 H 0.01117 0.60786 0.32556 0.0
H3966 H 0.01245 0.62659 0.32669 0.0
H3967 H 0.02887 0.62493 0.32301 0.0
C3968 C 0.01704 0.66766 0.31254 0.0
C3969 C 0.03221 0.67552 0.31884 0.0
C3970 C 0.01096 0.65305 0.3047 0.0
C3971 C 0.0199 0.64603 0.30318 0.0
C3972 C 0.03508 0.65396 0.30916 0.0
H3973 H 0.01938 0.5667 0.26383 0.0
H3974 H 0.02411 0.59105 0.27662 0.0
C3975 C 0.04118 0.66852 0.31692 0.0
C3976 C 0.01353 0.63044 0.2953 0.0
H3977 H 0.00804 0.59443 0.301 0.0
C3978 C 0.00927 0.62834 0.27932 0.0
C3979 C 0.01265 0.61795 0.30331 0.0
C3980 C 0.01639 0.61935 0.32062 0.0
C3981 C 0.00493 0.61425 0.27095 0.0
C3982 C 0.00466 0.60197 0.27886 0.0
C3983 C 0.00835 0.60391 0.29496 0.0
C3984 C 0.00162 0.58735 0.27058 0.0
C3985 C 0.00134 0.61283 0.25361 0.0
C3986 C 0.98736 0.57718 0.26298 0.0
C3987 C 0.98464 0.56324 0.25554 0.0
C3988 C 0.99614 0.55928 0.25561 0.0
C3989 C 0.01037 0.56952 0.26329 0.0
C3990 C 0.01306 0.58339 0.27072 0.0
H3991 H 0.00469 0.6242 0.24889 0.0
H3992 H 0.00721 0.60752 0.24755 0.0
H3993 H 0.98895 0.60522 0.25093 0.0
H3994 H 0.97831 0.57993 0.26295 0.0
H3995 H 0.97357 0.55562 0.24968 0.0
H3996 H 0.3346 0.38797 0.3656 0.0
H3997 H 0.35735 0.40283 0.35158 0.0
H3998 H 0.35093 0.36053 0.32895 0.0
H3999 H 0.32792 0.34577 0.34232 0.0
H4000 H 0.38374 0.40358 0.35036 0.0
H4001 H 0.35319 0.38426 0.29205 0.0
H4002 H 0.3434 0.38041 0.30962 0.0
H4003 H 0.35068 0.36824 0.3028 0.0
C4004 C 0.33807 0.38188 0.35762 0.0
C4005 C 0.32939 0.36576 0.35485 0.0
C4006 C 0.35106 0.39036 0.34963 0.0
C4007 C 0.35562 0.38283 0.33889 0.0
C4008 C 0.34735 0.36665 0.33675 0.0
H4009 H 0.44422 0.42363 0.3008 0.0
H4010 H 0.42257 0.40979 0.31631 0.0
C4011 C 0.33425 0.35822 0.34448 0.0
C4012 C 0.36894 0.39183 0.32981 0.0
H4013 H 0.38016 0.39685 0.29285 0.0
C4014 C 0.38295 0.4022 0.33778 0.0
C4015 C 0.36785 0.39025 0.31337 0.0
C4016 C 0.35293 0.38032 0.30396 0.0
C4017 C 0.39596 0.41083 0.32976 0.0
C4018 C 0.39502 0.40863 0.31337 0.0
C4019 C 0.38095 0.39841 0.30542 0.0
C4020 C 0.40832 0.41705 0.30407 0.0
C4021 C 0.41044 0.42245 0.33895 0.0
C4022 C 0.40736 0.42525 0.29162 0.0
C4023 C 0.41951 0.43272 0.28238 0.0
C4024 C 0.43305 0.43237 0.28549 0.0
C4025 C 0.43398 0.4241 0.29796 0.0
C4026 C 0.42168 0.41639 0.30705 0.0
H4027 H 0.40813 0.42615 0.35031 0.0
H4028 H 0.41757 0.4171 0.34136 0.0
H4029 H 0.41699 0.43286 0.33244 0.0
H4030 H 0.39713 0.42581 0.28897 0.0
H4031 H 0.41817 0.43861 0.27267 0.0
H4032 H 0.28699 0.2909 0.40392 0.0
H4033 H 0.30291 0.28116 0.41481 0.0
H4034 H 0.343 0.32271 0.40411 0.0
H4035 H 0.32712 0.33277 0.39335 0.0
H4036 H 0.32308 0.27558 0.39914 0.0
H4037 H 0.3523 0.31826 0.44979 0.0
H4038 H 0.33556 0.31619 0.43926 0.0
H4039 H 0.3536 0.32599 0.43108 0.0
C4040 C 0.29919 0.29808 0.40397 0.0
C4041 C 0.30577 0.31264 0.39777 0.0
C4042 C 0.30828 0.29246 0.41018 0.0
C4043 C 0.32412 0.30124 0.41034 0.0
C4044 C 0.33079 0.31586 0.40431 0.0
H4045 H 0.37156 0.24981 0.43398 0.0
H4046 H 0.36594 0.26782 0.42044 0.0
C4047 C 0.32169 0.32156 0.39814 0.0
C4048 C 0.33341 0.29467 0.41644 0.0
H4049 H 0.35792 0.29815 0.44677 0.0
C4050 C 0.33086 0.2806 0.40944 0.0
C4051 C 0.34353 0.30128 0.42987 0.0
C4052 C 0.3464 0.31621 0.43806 0.0
C4053 C 0.33756 0.27253 0.41593 0.0
C4054 C 0.34737 0.27892 0.42962 0.0
C4055 C 0.35048 0.29336 0.43622 0.0
C4056 C 0.35273 0.26984 0.43838 0.0
C4057 C 0.33333 0.2568 0.40863 0.0
C4058 C 0.34778 0.26562 0.45322 0.0
C4059 C 0.3511 0.25554 0.461 0.0
C4060 C 0.35941 0.24941 0.45408 0.0
C4061 C 0.36508 0.25429 0.43956 0.0
C4062 C 0.36178 0.26447 0.43177 0.0
H4063 H 0.32354 0.2524 0.39982 0.0
H4064 H 0.34312 0.25755 0.40277 0.0
H4065 H 0.33043 0.24829 0.41762 0.0
H4066 H 0.34086 0.26969 0.45857 0.0
H4067 H 0.34691 0.25231 0.47235 0.0
H4068 H 0.71505 0.01283 0.409 0.0
H4069 H 0.72643 0.03906 0.4206 0.0
H4070 H 0.68733 0.0419 0.4038 0.0
H4071 H 0.6756 0.01532 0.39213 0.0
H4072 H 0.73312 0.06507 0.40368 0.0
H4073 H 0.69472 0.05787 0.45046 0.0
H4074 H 0.69543 0.04171 0.44126 0.0
H4075 H 0.68617 0.05048 0.43106 0.0
C4076 C 0.70873 0.0189 0.4078 0.0
C4077 C 0.6944 0.01193 0.39955 0.0
C4078 C 0.71529 0.03393 0.41448 0.0
C4079 C 0.70771 0.04239 0.41311 0.0
C4080 C 0.69328 0.03547 0.40514 0.0
H4081 H 0.76513 0.14208 0.43642 0.0
H4082 H 0.74493 0.118 0.42332 0.0
C4083 C 0.68663 0.02031 0.39845 0.0
C4084 C 0.71553 0.05869 0.41944 0.0
H4085 H 0.71602 0.08255 0.4491 0.0
C4086 C 0.7293 0.06899 0.41347 0.0
C4087 C 0.7105 0.06366 0.43225 0.0
C4088 C 0.69595 0.05289 0.43926 0.0
C4089 C 0.73853 0.08396 0.42037 0.0
C4090 C 0.73368 0.08889 0.4334 0.0
C4091 C 0.71963 0.07876 0.43904 0.0
C4092 C 0.7438 0.10388 0.4422 0.0
C4093 C 0.7538 0.09402 0.41418 0.0
C4094 C 0.74923 0.10406 0.45749 0.0
C4095 C 0.76059 0.11784 0.46512 0.0
C4096 C 0.76678 0.13171 0.45757 0.0
C4097 C 0.76061 0.13164 0.44261 0.0
C4098 C 0.74916 0.11786 0.43503 0.0
H4099 H 0.75707 0.08734 0.40623 0.0
H4100 H 0.75336 0.10316 0.40759 0.0
H4101 H 0.76278 0.09974 0.42384 0.0
H4102 H 0.74518 0.09342 0.46328 0.0
H4103 H 0.76486 0.11755 0.47676 0.0
H4104 H 0.00026 0.68509 0.37691 0.0
H4105 H 0.97628 0.67568 0.38889 0.0
H4106 H 0.9611 0.69605 0.3542 0.0
H4107 H 0.98517 0.70551 0.34199 0.0
H4108 H 0.96612 0.69531 0.40098 0.0
H4109 H 0.92445 0.6517 0.35604 0.0
H4110 H 0.94455 0.65846 0.35635 0.0
H4111 H 0.93717 0.67036 0.34942 0.0
C4112 C 0.99177 0.68743 0.37166 0.0
C4113 C 0.99464 0.6961 0.35851 0.0
C4114 C 0.97806 0.68203 0.37855 0.0
C4115 C 0.96688 0.68508 0.37239 0.0
C4116 C 0.9695 0.69337 0.359 0.0
H4117 H 0.89459 0.6832 0.42366 0.0
H4118 H 0.91559 0.69003 0.40716 0.0
C4119 C 0.98327 0.69882 0.35208 0.0
C4120 C 0.95306 0.68056 0.38078 0.0
H4121 H 0.91451 0.65735 0.37807 0.0
C4122 C 0.95483 0.68703 0.39596 0.0
C4123 C 0.93838 0.66966 0.37423 0.0
C4124 C 0.93593 0.66201 0.35816 0.0
C4125 C 0.94233 0.68295 0.40478 0.0
C4126 C 0.92762 0.67223 0.39817 0.0
C4127 C 0.92581 0.66565 0.38303 0.0
C4128 C 0.91409 0.66764 0.40704 0.0
C4129 C 0.94495 0.68994 0.42121 0.0
C4130 C 0.90604 0.65265 0.41209 0.0
C4131 C 0.89408 0.64873 0.42163 0.0
C4132 C 0.88994 0.65973 0.42623 0.0
C4133 C 0.89769 0.67456 0.42062 0.0
C4134 C 0.90964 0.67846 0.41113 0.0
H4135 H 0.95707 0.69548 0.42559 0.0
H4136 H 0.94149 0.69888 0.42156 0.0
H4137 H 0.93801 0.681 0.42916 0.0
H4138 H 0.90933 0.64415 0.40905 0.0
H4139 H 0.88844 0.63725 0.42582 0.0
H4140 H 0.35192 0.00915 0.71443 0.0
H4141 H 0.36539 0.99982 0.73112 0.0
H4142 H 0.40663 0.04347 0.73005 0.0
H4143 H 0.39342 0.05289 0.7133 0.0
H4144 H 0.40985 0.01724 0.72393 0.0
H4145 H 0.38025 0.01341 0.77755 0.0
H4146 H 0.36835 0.00362 0.76013 0.0
H4147 H 0.37963 0.02431 0.76157 0.0
C4148 C 0.36385 0.0168 0.71777 0.0
C4149 C 0.37156 0.03181 0.71254 0.0
C4150 C 0.37149 0.01146 0.72737 0.0
C4151 C 0.38694 0.02103 0.73194 0.0
C4152 C 0.39468 0.03594 0.72668 0.0
H4153 H 0.44961 0.02201 0.80176 0.0
H4154 H 0.43074 0.0251 0.78605 0.0
C4155 C 0.38708 0.0413 0.71712 0.0
C4156 C 0.39528 0.01553 0.74192 0.0
H4157 H 0.39876 0.00566 0.77873 0.0
C4158 C 0.40737 0.01458 0.73587 0.0
C4159 C 0.39203 0.0122 0.75751 0.0
C4160 C 0.37944 0.01352 0.76469 0.0
C4161 C 0.4165 0.01063 0.74509 0.0
C4162 C 0.41329 0.00733 0.7607 0.0
C4163 C 0.40106 0.00806 0.7667 0.0
C4164 C 0.42327 0.00429 0.77124 0.0
C4165 C 0.42988 0.01061 0.73822 0.0
C4166 C 0.42495 0.99131 0.76839 0.0
C4167 C 0.43579 0.98956 0.77728 0.0
C4168 C 0.44508 0.00077 0.78918 0.0
C4169 C 0.44278 0.01332 0.79252 0.0
C4170 C 0.43194 0.01505 0.78363 0.0
H4171 H 0.43249 0.01632 0.72709 0.0
H4172 H 0.44014 0.01658 0.74646 0.0
H4173 H 0.42729 0.99851 0.73593 0.0
H4174 H 0.41821 0.98279 0.75899 0.0
H4175 H 0.43736 0.97982 0.77438 0.0
H4176 H 0.97418 0.34104 0.72031 0.0
H4177 H 0.98173 0.36632 0.73316 0.0
H4178 H 0.99486 0.35271 0.77539 0.0
H4179 H 0.98773 0.32759 0.7625 0.0
H4180 H 0.96978 0.37211 0.75768 0.0
H4181 H 0.03113 0.3949 0.77206 0.0
H4182 H 0.01988 0.37828 0.75865 0.0
H4183 H 0.01958 0.37628 0.77928 0.0
C4184 C 0.97887 0.34351 0.73227 0.0
C4185 C 0.98039 0.33235 0.74039 0.0
C4186 C 0.98317 0.35796 0.7396 0.0
C4187 C 0.98906 0.3615 0.75517 0.0
C4188 C 0.99071 0.3504 0.76325 0.0
H4189 H 0.98612 0.42965 0.81776 0.0
H4190 H 0.98252 0.40603 0.80408 0.0
C4191 C 0.98653 0.336 0.7559 0.0
C4192 C 0.99245 0.37636 0.76324 0.0
H4193 H 0.01999 0.40807 0.78491 0.0
C4194 C 0.9808 0.38002 0.76353 0.0
C4195 C 0.00688 0.38677 0.77073 0.0
C4196 C 0.02013 0.38395 0.77005 0.0
C4197 C 0.98306 0.39365 0.77135 0.0
C4198 C 0.99726 0.4037 0.77945 0.0
C4199 C 0.00904 0.40023 0.77888 0.0
C4200 C 1.00011 0.41794 0.78843 0.0
C4201 C 0.97026 0.39723 0.77065 0.0
C4202 C 0.01163 0.43244 0.78461 0.0
C4203 C 0.0138 0.44594 0.79252 0.0
C4204 C 0.00448 0.44516 0.80437 0.0
C4205 C 0.99329 0.4306 0.80851 0.0
C4206 C 0.9912 0.41711 0.80068 0.0
H4207 H 0.96195 0.39086 0.76057 0.0
H4208 H 0.96414 0.39367 0.78138 0.0
H4209 H 0.97461 0.4098 0.76984 0.0
H4210 H 0.01867 0.43332 0.77525 0.0
H4211 H 0.02244 0.457 0.78902 0.0
H4212 H 0.65924 0.616 0.68578 0.0
H4213 H 0.63494 0.60149 0.69751 0.0
H4214 H 0.64974 0.63808 0.73357 0.0
H4215 H 0.67387 0.65261 0.72199 0.0
H4216 H 0.63048 0.5916 0.72848 0.0
H4217 H 0.60794 0.6311 0.71708 0.0
H4218 H 0.62329 0.63158 0.70694 0.0
H4219 H 0.62687 0.64061 0.72625 0.0
C4220 C 0.65726 0.62097 0.69616 0.0
C4221 C 0.66846 0.63547 0.70293 0.0
C4222 C 0.6434 0.61268 0.70283 0.0
C4223 C 0.64047 0.61883 0.71626 0.0
C4224 C 0.65165 0.63326 0.72304 0.0
H4225 H 0.57408 0.59346 0.78336 0.0
H4226 H 0.59525 0.60601 0.76689 0.0
C4227 C 0.66548 0.6415 0.71644 0.0
C4228 C 0.626 0.61003 0.72365 0.0
H4229 H 0.59562 0.61239 0.73557 0.0
C4230 C 0.62273 0.596 0.72986 0.0
C4231 C 0.61596 0.61586 0.72545 0.0
C4232 C 0.61858 0.63054 0.71846 0.0
C4233 C 0.60999 0.58796 0.73842 0.0
C4234 C 0.60014 0.59399 0.74053 0.0
C4235 C 0.60321 0.60782 0.73397 0.0
C4236 C 0.58691 0.58645 0.75005 0.0
C4237 C 0.60756 0.57344 0.74566 0.0
C4238 C 0.57504 0.57141 0.74587 0.0
C4239 C 0.5629 0.56422 0.75525 0.0
C4240 C 0.56235 0.57199 0.76892 0.0
C4241 C 0.57407 0.58721 0.77283 0.0
C4242 C 0.58621 0.59438 0.76348 0.0
H4243 H 0.61793 0.57237 0.74598 0.0
H4244 H 0.60408 0.57318 0.75769 0.0
H4245 H 0.59838 0.56324 0.73871 0.0
H4246 H 0.57518 0.56522 0.73538 0.0
H4247 H 0.55393 0.55258 0.75178 0.0
H4248 H 0.71496 0.7158 0.66784 0.0
H4249 H 0.70011 0.72689 0.65725 0.0
H4250 H 0.66057 0.68153 0.65073 0.0
H4251 H 0.67537 0.67018 0.66122 0.0
H4252 H 0.66573 0.69911 0.6248 0.0
H4253 H 0.66767 0.73248 0.67835 0.0
H4254 H 0.68611 0.73611 0.67365 0.0
H4255 H 0.67221 0.71711 0.67854 0.0
C4256 C 0.7031 0.70812 0.66419 0.0
C4257 C 0.69638 0.69207 0.66542 0.0
C4258 C 0.6946 0.71452 0.65825 0.0
C4259 C 0.67918 0.70506 0.65349 0.0
C4260 C 0.67243 0.68903 0.65449 0.0
H4261 H 0.62642 0.74984 0.62616 0.0
H4262 H 0.63345 0.73224 0.63851 0.0
C4263 C 0.68093 0.68258 0.66048 0.0
C4264 C 0.6704 0.71199 0.64686 0.0
H4265 H 0.66128 0.74011 0.65433 0.0
C4266 C 0.66454 0.7079 0.63131 0.0
C4267 C 0.66862 0.72325 0.65546 0.0
C4268 C 0.67385 0.72739 0.67248 0.0
C4269 C 0.65774 0.71546 0.62387 0.0
C4270 C 0.657 0.72754 0.63215 0.0
C4271 C 0.66203 0.73097 0.64795 0.0
C4272 C 0.65218 0.73754 0.62433 0.0
C4273 C 0.65165 0.71064 0.60712 0.0
C4274 C 0.66048 0.74642 0.61242 0.0
C4275 C 0.65652 0.75642 0.6054 0.0
C4276 C 0.64423 0.75785 0.61022 0.0
C4277 C 0.63588 0.7489 0.62214 0.0
C4278 C 0.6399 0.7389 0.62922 0.0
H4279 H 0.64872 0.69852 0.60406 0.0
H4280 H 0.64141 0.71174 0.60468 0.0
H4281 H 0.66046 0.71819 0.59948 0.0
H4282 H 0.67018 0.74576 0.60868 0.0
H4283 H 0.66306 0.76299 0.59611 0.0
H4284 H 0.30159 0.9814 0.68692 0.0
H4285 H 0.28541 0.9552 0.67515 0.0
H4286 H 0.30899 0.96831 0.63325 0.0
H4287 H 0.32557 0.99437 0.64519 0.0
H4288 H 0.26618 0.94801 0.65086 0.0
H4289 H 0.30583 0.92699 0.63757 0.0
H4290 H 0.31139 0.94395 0.65034 0.0
H4291 H 0.31116 0.94517 0.62958 0.0
C4292 C 0.30351 0.97861 0.67531 0.0
C4293 C 0.31481 0.98992 0.66695 0.0
C4294 C 0.29427 0.96364 0.6686 0.0
C4295 C 0.29607 0.95972 0.65337 0.0
C4296 C 0.30762 0.97091 0.64515 0.0
H4297 H 0.22321 0.89132 0.59098 0.0
H4298 H 0.24408 0.91481 0.60435 0.0
C4299 C 0.31702 0.98585 0.65195 0.0
C4300 C 0.28483 0.94453 0.64555 0.0
H4301 H 0.281 0.91319 0.62409 0.0
C4302 C 0.26944 0.94033 0.64516 0.0
C4303 C 0.28904 0.93443 0.63824 0.0
C4304 C 0.30524 0.93778 0.63908 0.0
C4305 C 0.2582 0.92654 0.63736 0.0
C4306 C 0.26248 0.91687 0.6293 0.0
C4307 C 0.2778 0.92078 0.63005 0.0
C4308 C 0.25111 0.9027 0.62003 0.0
C4309 C 0.24181 0.92241 0.63795 0.0
C4310 C 0.24869 0.88814 0.62387 0.0
C4311 C 0.23688 0.8747 0.6161 0.0
C4312 C 0.22732 0.87567 0.60444 0.0
C4313 C 0.23027 0.89028 0.60011 0.0
C4314 C 0.24214 0.90367 0.60775 0.0
H4315 H 0.24019 0.92849 0.64808 0.0
H4316 H 0.23817 0.92593 0.62727 0.0
H4317 H 0.23433 0.90978 0.63862 0.0
H4318 H 0.25557 0.88717 0.63326 0.0
H4319 H 0.2348 0.86357 0.61967 0.0
H4320 H 0.00864 0.27771 0.70042 0.0
H4321 H 0.03183 0.28949 0.68683 0.0
H4322 H 0.02834 0.33057 0.68268 0.0
H4323 H 0.00516 0.31897 0.69646 0.0
H4324 H 0.03436 0.29929 0.65675 0.0
H4325 H 0.07259 0.34788 0.69944 0.0
H4326 H 0.05502 0.33174 0.70452 0.0
H4327 H 0.05481 0.34677 0.69386 0.0
C4328 C 0.01281 0.28929 0.69673 0.0
C4329 C 0.00497 0.29736 0.69954 0.0
C4330 C 0.0261 0.29601 0.68897 0.0
C4331 C 0.03189 0.31096 0.6839 0.0
C4332 C 0.02422 0.31913 0.68676 0.0
H4333 H 0.10893 0.36381 0.62853 0.0
H4334 H 0.087 0.35579 0.64411 0.0
C4335 C 0.01091 0.31243 0.69457 0.0
C4336 C 0.04551 0.31754 0.67489 0.0
H4337 H 0.08225 0.34674 0.67531 0.0
C4338 C 0.04483 0.30966 0.66082 0.0
C4339 C 0.0591 0.33114 0.68016 0.0
C4340 C 0.06055 0.33985 0.69538 0.0
C4341 C 0.05741 0.31496 0.65189 0.0
C4342 C 0.07112 0.32835 0.65733 0.0
C4343 C 0.07173 0.33645 0.67123 0.0
C4344 C 0.08503 0.33376 0.64891 0.0
C4345 C 0.05586 0.30623 0.63664 0.0
C4346 C 0.09143 0.32424 0.64687 0.0
C4347 C 0.10389 0.32877 0.63802 0.0
C4348 C 0.11028 0.34298 0.63112 0.0
C4349 C 0.10427 0.35282 0.63374 0.0
C4350 C 0.09174 0.34824 0.64258 0.0
H4351 H 0.04379 0.29899 0.63217 0.0
H4352 H 0.06216 0.31427 0.62771 0.0
H4353 H 0.06063 0.29847 0.63836 0.0
H4354 H 0.08664 0.31318 0.65197 0.0
H4355 H 0.10847 0.32109 0.63647 0.0
H4356 H 0.28875 0.30717 0.69283 0.0
H4357 H 0.27372 0.31586 0.67774 0.0
H4358 H 0.31369 0.34784 0.65588 0.0
H4359 H 0.32862 0.33872 0.67045 0.0
H4360 H 0.27478 0.34278 0.67597 0.0
H4361 H 0.28553 0.32528 0.6184 0.0
H4362 H 0.2909 0.31989 0.6363 0.0
H4363 H 0.3026 0.33885 0.62967 0.0
C4364 C 0.29433 0.31606 0.68481 0.0
C4365 C 0.30981 0.32214 0.68268 0.0
C4366 C 0.28574 0.32103 0.6762 0.0
C4367 C 0.29249 0.33226 0.66539 0.0
C4368 C 0.30811 0.33882 0.66376 0.0
H4369 H 0.24332 0.37574 0.62429 0.0
H4370 H 0.26225 0.3717 0.63866 0.0
C4371 C 0.31665 0.33367 0.67218 0.0
C4372 C 0.28312 0.33697 0.65582 0.0
H4373 H 0.27248 0.33943 0.61838 0.0
C4374 C 0.27428 0.34205 0.66338 0.0
C4375 C 0.28232 0.33585 0.63936 0.0
C4376 C 0.29072 0.32953 0.63044 0.0
C4377 C 0.26458 0.3459 0.65497 0.0
C4378 C 0.26407 0.34513 0.63853 0.0
C4379 C 0.27301 0.34019 0.63098 0.0
C4380 C 0.25353 0.3483 0.6289 0.0
C4381 C 0.25456 0.35016 0.6638 0.0
C4382 C 0.24288 0.33684 0.618 0.0
C4383 C 0.23231 0.33926 0.60947 0.0
C4384 C 0.23208 0.35317 0.61173 0.0
C4385 C 0.24318 0.3649 0.6222 0.0
C4386 C 0.25387 0.36252 0.63062 0.0
H4387 H 0.2534 0.34625 0.6758 0.0
H4388 H 0.25964 0.36291 0.66468 0.0
H4389 H 0.24306 0.34503 0.65776 0.0
H4390 H 0.24249 0.32583 0.61632 0.0
H4391 H 0.22417 0.3301 0.60125 0.0
H4392 H 0.71013 0.99695 0.64989 0.0
H4393 H 0.6956 0.97084 0.63775 0.0
H4394 H 0.65578 0.97564 0.63281 0.0
H4395 H 0.67027 0.00202 0.64503 0.0
H4396 H 0.66715 0.94606 0.64933 0.0
H4397 H 0.66114 0.95997 0.58834 0.0
H4398 H 0.676 0.97382 0.60218 0.0
H4399 H 0.65678 0.96936 0.60388 0.0
C4400 C 0.69831 0.99259 0.64616 0.0
C4401 C 0.6914 0.00167 0.64844 0.0
C4402 C 0.69002 0.97762 0.63924 0.0
C4403 C 0.67467 0.97138 0.63434 0.0
C4404 C 0.66767 0.98035 0.63642 0.0
H4405 H 0.62146 0.87934 0.58458 0.0
H4406 H 0.62774 0.90446 0.59727 0.0
C4407 C 0.67597 0.99538 0.64343 0.0
C4408 C 0.6661 0.9553 0.62746 0.0
H4409 H 0.65259 0.93392 0.59278 0.0
C4410 C 0.66376 0.94335 0.63701 0.0
C4411 C 0.6616 0.95184 0.61142 0.0
C4412 C 0.664 0.96437 0.60075 0.0
C4413 C 0.65754 0.92807 0.63082 0.0
C4414 C 0.65389 0.92474 0.61462 0.0
C4415 C 0.65548 0.93655 0.60518 0.0
C4416 C 0.64978 0.90944 0.60714 0.0
C4417 C 0.65519 0.91568 0.64166 0.0
C4418 C 0.66016 0.90406 0.60835 0.0
C4419 C 0.65661 0.8898 0.6012 0.0
C4420 C 0.64264 0.88064 0.59256 0.0
C4421 C 0.63226 0.88608 0.59129 0.0
C4422 C 0.63585 0.90042 0.59845 0.0
H4423 H 0.65386 0.91894 0.65368 0.0
H4424 H 0.64504 0.90446 0.63765 0.0
H4425 H 0.66526 0.91409 0.64204 0.0
H4426 H 0.67109 0.91096 0.61477 0.0
H4427 H 0.66479 0.88588 0.60257 0.0
H4428 H 0.00783 0.72006 0.71192 0.0
H4429 H 0.03262 0.73446 0.70115 0.0
H4430 H 0.01817 0.69889 0.66403 0.0
H4431 H 0.99354 0.68443 0.67472 0.0
H4432 H 0.04839 0.71007 0.67716 0.0
H4433 H 0.03713 0.75715 0.66078 0.0
H4434 H 0.03565 0.75275 0.68085 0.0
H4435 H 0.02234 0.73873 0.66621 0.0
C4436 C 0.01001 0.71525 0.70155 0.0
C4437 C 0.99869 0.70119 0.69408 0.0
C4438 C 0.02414 0.72351 0.6954 0.0
C4439 C 0.02713 0.71781 0.6817 0.0
C4440 C 0.01607 0.70349 0.6746 0.0
H4441 H 0.08381 0.75819 0.60835 0.0
H4442 H 0.06384 0.74516 0.62598 0.0
C4443 C 0.00198 0.69527 0.68071 0.0
C4444 C 0.04139 0.727 0.67412 0.0
H4445 H 0.05992 0.75897 0.65363 0.0
C4446 C 0.05106 0.72087 0.67217 0.0
C4447 C 0.04468 0.74098 0.6675 0.0
C4448 C 0.03439 0.7478 0.66879 0.0
C4449 C 0.06378 0.7282 0.66346 0.0
C4450 C 0.06692 0.74205 0.65666 0.0
C4451 C 0.05747 0.74837 0.65894 0.0
C4452 C 0.07925 0.74958 0.64612 0.0
C4453 C 0.07339 0.72076 0.66102 0.0
C4454 C 0.09454 0.75634 0.65163 0.0
C4455 C 0.10602 0.76388 0.64157 0.0
C4456 C 0.10237 0.76484 0.62588 0.0
C4457 C 0.08701 0.75787 0.62042 0.0
C4458 C 0.07558 0.75036 0.63045 0.0
H4459 H 0.06797 0.7088 0.66485 0.0
H4460 H 0.07559 0.72045 0.64857 0.0
H4461 H 0.0845 0.7277 0.66778 0.0
H4462 H 0.09759 0.75603 0.66375 0.0
H4463 H 0.11775 0.76929 0.64617 0.0
H4464 H 0.98235 0.66217 0.7345 0.0
H4465 H 0.99234 0.64718 0.7472 0.0
H4466 H 0.94887 0.60581 0.73815 0.0
H4467 H 0.9387 0.62061 0.72563 0.0
H4468 H 0.96143 0.61025 0.76881 0.0
H4469 H 0.00288 0.61642 0.7259 0.0
H4470 H 0.00444 0.63412 0.73378 0.0
H4471 H 0.98785 0.62073 0.72169 0.0
C4472 C 0.9749 0.64988 0.73519 0.0
C4473 C 0.9597 0.64261 0.72902 0.0
C4474 C 0.98067 0.64133 0.74236 0.0
C4475 C 0.97139 0.62537 0.7434 0.0
C4476 C 0.95623 0.61812 0.73739 0.0
H4477 H 0.97418 0.54723 0.77727 0.0
H4478 H 0.96842 0.56551 0.76474 0.0
C4479 C 0.95044 0.62663 0.73025 0.0
C4480 C 0.97723 0.61615 0.7511 0.0
H4481 H 0.00206 0.60265 0.74787 0.0
C4482 C 0.97034 0.60863 0.76427 0.0
C4483 C 0.98892 0.61415 0.74516 0.0
C4484 C 0.99641 0.62167 0.73079 0.0
C4485 C 0.9747 0.59897 0.77157 0.0
C4486 C 0.98608 0.59662 0.76539 0.0
C4487 C 0.9933 0.60447 0.75249 0.0
C4488 C 0.99015 0.58556 0.7719 0.0
C4489 C 0.96707 0.59131 0.78584 0.0
C4490 C 0.00447 0.59078 0.77958 0.0
C4491 C 0.00779 0.58036 0.7868 0.0
C4492 C 0.99683 0.56459 0.78637 0.0
C4493 C 0.98275 0.55935 0.77805 0.0
C4494 C 0.97945 0.56975 0.77087 0.0
H4495 H 0.96134 0.59713 0.79123 0.0
H4496 H 0.95836 0.57912 0.78252 0.0
H4497 H 0.9754 0.59131 0.79463 0.0
H4498 H 0.01288 0.60295 0.78042 0.0
H4499 H 0.0187 0.58476 0.79323 0.0
H4500 H 0.344 0.34825 0.73229 0.0
H4501 H 0.35605 0.37429 0.74539 0.0
H4502 H 0.39973 0.3772 0.74466 0.0
H4503 H 0.38801 0.35147 0.7317 0.0
H4504 H 0.37618 0.38571 0.77488 0.0
H4505 H 0.40421 0.41625 0.72349 0.0
H4506 H 0.38801 0.39694 0.72196 0.0
H4507 H 0.40668 0.39999 0.72711 0.0
C4508 C 0.35617 0.35443 0.73494 0.0
C4509 C 0.36502 0.34774 0.73087 0.0
C4510 C 0.363 0.36928 0.74242 0.0
C4511 C 0.37878 0.37769 0.74577 0.0
C4512 C 0.38756 0.37096 0.74196 0.0
H4513 H 0.45443 0.45506 0.7887 0.0
H4514 H 0.43443 0.43125 0.77515 0.0
C4515 C 0.38079 0.35618 0.7346 0.0
C4516 C 0.38636 0.3935 0.75334 0.0
H4517 H 0.41476 0.43001 0.74838 0.0
C4518 C 0.38436 0.39553 0.76904 0.0
C4519 C 0.39695 0.40623 0.74562 0.0
C4520 C 0.39902 0.40482 0.72857 0.0
C4521 C 0.39353 0.40977 0.77754 0.0
C4522 C 0.40482 0.4222 0.77003 0.0
C4523 C 0.40614 0.4204 0.7541 0.0
C4524 C 0.41653 0.43653 0.77878 0.0
C4525 C 0.39179 0.4112 0.79467 0.0
C4526 C 0.41305 0.44738 0.7853 0.0
C4527 C 0.42451 0.46105 0.79316 0.0
C4528 C 0.43957 0.46399 0.79462 0.0
C4529 C 0.44292 0.45302 0.78805 0.0
C4530 C 0.43153 0.43947 0.7802 0.0
H4531 H 0.38338 0.40004 0.79903 0.0
H4532 H 0.40288 0.41547 0.80138 0.0
H4533 H 0.38803 0.41976 0.79689 0.0
H4534 H 0.40155 0.44536 0.78418 0.0
H4535 H 0.42159 0.46928 0.79812 0.0
H4536 H 0.66962 0.02126 0.71017 0.0
H4537 H 0.64722 0.01543 0.724 0.0
H4538 H 0.63275 0.03606 0.68893 0.0
H4539 H 0.65519 0.04188 0.67489 0.0
H4540 H 0.64026 0.03774 0.73577 0.0
H4541 H 0.59419 0.99405 0.69419 0.0
H4542 H 0.61379 0.99901 0.69332 0.0
H4543 H 0.60748 0.01173 0.68622 0.0
C4544 C 0.66161 0.02442 0.70527 0.0
C4545 C 0.6642 0.03205 0.69142 0.0
C4546 C 0.64882 0.02109 0.71321 0.0
C4547 C 0.63828 0.02521 0.70744 0.0
C4548 C 0.64063 0.03257 0.69346 0.0
H4549 H 0.57272 0.0335 0.76254 0.0
H4550 H 0.59277 0.03808 0.74536 0.0
C4551 C 0.65349 0.03594 0.68549 0.0
C4552 C 0.62535 0.02257 0.71663 0.0
H4553 H 0.58669 0.00244 0.7164 0.0
C4554 C 0.62854 0.03005 0.73153 0.0
C4555 C 0.6101 0.01243 0.71109 0.0
C4556 C 0.6061 0.00372 0.69538 0.0
C4557 C 0.61689 0.02769 0.74106 0.0
C4558 C 0.60163 0.01772 0.73547 0.0
C4559 C 0.59841 0.01017 0.72059 0.0
C4560 C 0.58892 0.01472 0.74513 0.0
C4561 C 0.62101 0.03563 0.75719 0.0
C4562 C 0.57988 -2e-05 0.75038 0.0
C4563 C 0.56846 0.99733 0.76027 0.0
C4564 C 0.56582 0.00939 0.76503 0.0
C4565 C 0.57464 0.02404 0.75936 0.0
C4566 C 0.58607 0.02667 0.7495 0.0
H4567 H 0.63318 0.0402 0.76091 0.0
H4568 H 0.61882 0.04548 0.75734 0.0
H4569 H 0.61399 0.02757 0.76578 0.0
H4570 H 0.58192 0.99061 0.74713 0.0
H4571 H 0.56198 0.98595 0.76452 0.0
loop_
_geom_bond_atom_site_label_1
_geom_bond_atom_site_label_2
_geom_bond_distance
_geom_bond_site_symmetry_2
_ccdc_geom_bond_type
Mn0 O5 2.095 1_655 S
Mn0 O15 2.162 . S
Mn0 O16 2.297 . S
Mn0 O24 2.385 . S
Mn0 O25 2.209 1_655 S
Mn0 O26 2.094 . S
Mn1 O6 2.121 . S
Mn1 N8 2.257 . S
Mn1 N17 2.282 . S
Mn1 O25 2.215 . S
Mn1 O27 2.117 . S
C2 O24 1.236 1_455 S
C2 O25 1.290 . S
C3 O15 1.281 . S
C3 O16 1.236 . S
C4 O26 1.240 1_455 S
C4 O27 1.264 . S
O5 Mn0 2.095 1_455 S
O5 C14 1.250 . S
O6 Mn1 2.121 . S
O6 C14 1.258 . S
C7 N8 1.326 . S
C7 C11 1.496 . S
C7 H13 0.929 . S
N8 Mn1 2.257 . S
N8 C7 1.326 . S
N8 C12 1.362 . S
C9 C10 1.258 . S
C9 C12 1.431 1_556 S
C9 C29 1.449 . S
C10 C9 1.258 . S
C10 C11 1.456 1_556 S
C10 H30 0.931 . S
C11 C7 1.496 . S
C11 C10 1.456 1_554 S
C11 H31 0.919 1_554 S
C12 N8 1.362 . S
C12 C9 1.431 1_554 S
C12 C22 1.476 . S
H13 C7 0.929 . S
C14 O5 1.250 . S
C14 O6 1.258 . S
O15 Mn0 2.162 . S
O15 C3 1.281 . S
O16 Mn0 2.297 . S
O16 C3 1.236 . S
N17 Mn1 2.282 . S
N17 C18 1.328 . S
N17 C22 1.318 . S
C18 N17 1.328 . S
C18 C19 1.457 . S
C18 H23 0.929 . S
C19 C18 1.457 . S
C19 C20 1.291 . S
C19 H32 0.931 . S
C20 C19 1.291 . S
C20 C21 1.373 . S
C20 H33 0.929 . S
C21 C20 1.373 . S
C21 C22 1.396 . S
C21 C28 1.403 1_554 S
C22 C12 1.476 . S
C22 N17 1.318 . S
C22 C21 1.396 . S
H23 C18 0.929 . S
O24 Mn0 2.385 . S
O24 C2 1.236 1_655 S
O25 Mn0 2.209 1_455 S
O25 Mn1 2.215 . S
O25 C2 1.290 . S
O26 Mn0 2.094 . S
O26 C4 1.240 1_655 S
O27 Mn1 2.117 . S
O27 C4 1.264 . S
C28 C21 1.403 1_556 S
C28 C29 1.399 . S
C28 H34 0.929 . S
C29 C9 1.449 . S
C29 C28 1.399 . S
C29 H35 0.930 . S
H30 C10 0.931 . S
H31 C11 0.919 1_556 S
H32 C19 0.931 . S
H33 C20 0.929 . S
H34 C28 0.929 . S
H35 C29 0.930 . S
Mn36 O41 2.095 . S
Mn36 O51 2.162 . S
Mn36 O52 2.297 . S
Mn36 O60 2.385 . S
Mn36 O61 2.209 . S
Mn36 O62 2.094 . S
Mn37 O42 2.121 . S
Mn37 N44 2.257 . S
Mn37 N53 2.282 . S
Mn37 O61 2.215 . S
Mn37 O63 2.117 . S
C38 O60 1.234 . S
C38 O61 1.283 . S
C39 O51 1.281 . S
C39 O52 1.236 . S
C40 O62 1.240 . S
C40 O63 1.264 . S
O41 Mn36 2.095 . S
O41 C50 1.250 . S
O42 Mn37 2.121 . S
O42 C50 1.258 . S
C43 N44 1.326 . S
C43 C47 1.460 . S
C43 H49 0.929 . S
N44 Mn37 2.257 . S
N44 C43 1.326 . S
N44 C48 1.362 . S
C45 C46 1.258 . S
C45 C48 1.431 . S
C45 C65 1.449 . S
C46 C45 1.258 . S
C46 C47 1.477 . S
C46 H66 0.931 . S
C47 C43 1.460 . S
C47 C46 1.477 . S
C47 H67 0.930 . S
C48 N44 1.362 . S
C48 C45 1.431 . S
C48 C58 1.476 . S
H49 C43 0.929 . S
C50 O41 1.250 . S
C50 O42 1.258 . S
O51 Mn36 2.162 . S
O51 C39 1.281 . S
O52 Mn36 2.297 . S
O52 C39 1.236 . S
N53 Mn37 2.282 . S
N53 C54 1.328 . S
N53 C58 1.318 . S
C54 N53 1.328 . S
C54 C55 1.457 . S
C54 H59 0.929 . S
C55 C54 1.457 . S
C55 C56 1.291 . S
C55 H68 0.931 . S
C56 C55 1.291 . S
C56 C57 1.373 . S
C56 H69 0.929 . S
C57 C56 1.373 . S
C57 C58 1.396 . S
C57 C64 1.403 . S
C58 C48 1.476 . S
C58 N53 1.318 . S
C58 C57 1.396 . S
H59 C54 0.929 . S
O60 Mn36 2.385 . S
O60 C38 1.234 . S
O61 Mn36 2.209 . S
O61 Mn37 2.215 . S
O61 C38 1.283 . S
O62 Mn36 2.094 . S
O62 C40 1.240 . S
O63 Mn37 2.117 . S
O63 C40 1.264 . S
C64 C57 1.403 . S
C64 C65 1.399 . S
C64 H70 0.929 . S
C65 C45 1.449 . S
C65 C64 1.399 . S
C65 H71 0.930 . S
H66 C46 0.931 . S
H67 C47 0.930 . S
H68 C55 0.931 . S
H69 C56 0.929 . S
H70 C64 0.929 . S
H71 C65 0.930 . S
Mn72 O77 2.095 1_565 S
Mn72 O87 2.162 . S
Mn72 O88 2.297 . S
Mn72 O96 2.385 . S
Mn72 O97 2.209 1_565 S
Mn72 O98 2.094 . S
Mn73 O78 2.121 . S
Mn73 N80 2.257 . S
Mn73 N89 2.282 . S
Mn73 O97 2.215 . S
Mn73 O99 2.117 . S
C74 O96 1.234 1_545 S
C74 O97 1.283 . S
C75 O87 1.281 . S
C75 O88 1.236 . S
C76 O98 1.240 1_556 S
C76 O99 1.264 1_566 S
O77 Mn72 2.095 1_545 S
O77 C86 1.250 . S
O78 Mn73 2.121 . S
O78 C86 1.258 . S
C79 N80 1.326 . S
C79 C83 1.460 . S
C79 H85 0.929 . S
N80 Mn73 2.257 . S
N80 C79 1.326 . S
N80 C84 1.362 . S
C81 C82 1.258 . S
C81 C84 1.431 . S
C81 C101 1.449 . S
C82 C81 1.258 . S
C82 C83 1.477 . S
C82 H102 0.931 . S
C83 C79 1.460 . S
C83 C82 1.477 . S
C83 H103 0.930 . S
C84 N80 1.362 . S
C84 C81 1.431 . S
C84 C94 1.476 . S
H85 C79 0.929 . S
C86 O77 1.250 . S
C86 O78 1.258 . S
O87 Mn72 2.162 . S
O87 C75 1.281 . S
O88 Mn72 2.297 . S
O88 C75 1.236 . S
N89 Mn73 2.282 . S
N89 C90 1.328 . S
N89 C94 1.318 . S
C90 N89 1.328 . S
C90 C91 1.457 . S
C90 H95 0.929 . S
C91 C90 1.457 . S
C91 C92 1.291 . S
C91 H104 0.931 . S
C92 C91 1.291 . S
C92 C93 1.373 . S
C92 H105 0.929 . S
C93 C92 1.373 . S
C93 C94 1.396 . S
C93 C100 1.403 . S
C94 C84 1.476 . S
C94 N89 1.318 . S
C94 C93 1.396 . S
H95 C90 0.929 . S
O96 Mn72 2.385 . S
O96 C74 1.234 1_565 S
O97 Mn72 2.209 1_545 S
O97 Mn73 2.215 . S
O97 C74 1.283 . S
O98 Mn72 2.094 . S
O98 C76 1.240 1_554 S
O99 Mn73 2.117 . S
O99 C76 1.264 1_544 S
C100 C93 1.403 . S
C100 C101 1.399 . S
C100 H106 0.929 . S
C101 C81 1.449 . S
C101 C100 1.399 . S
C101 H107 0.930 . S
H102 C82 0.931 . S
H103 C83 0.930 . S
H104 C91 0.931 . S
H105 C92 0.929 . S
H106 C100 0.929 . S
H107 C101 0.930 . S
Mn108 O113 2.095 1_655 S
Mn108 O123 2.162 . S
Mn108 O124 2.297 . S
Mn108 O132 2.385 . S
Mn108 O133 2.209 1_655 S
Mn108 O134 2.094 . S
Mn109 O114 2.121 . S
Mn109 N116 2.257 . S
Mn109 N125 2.282 . S
Mn109 O133 2.215 . S
Mn109 O135 2.117 . S
C110 O132 1.234 1_455 S
C110 O133 1.283 . S
C111 O123 1.281 . S
C111 O124 1.236 . S
C112 O134 1.240 . S
C112 O135 1.264 1_655 S
O113 Mn108 2.095 1_455 S
O113 C122 1.250 . S
O114 Mn109 2.121 . S
O114 C122 1.258 . S
C115 N116 1.326 . S
C115 C119 1.460 . S
C115 H121 0.929 . S
N116 Mn109 2.257 . S
N116 C115 1.326 . S
N116 C120 1.362 . S
C117 C118 1.258 . S
C117 C120 1.431 . S
C117 C137 1.449 . S
C118 C117 1.258 . S
C118 C119 1.477 . S
C118 H138 0.931 . S
C119 C115 1.460 . S
C119 C118 1.477 . S
C119 H139 0.930 . S
C120 N116 1.362 . S
C120 C117 1.431 . S
C120 C130 1.476 . S
H121 C115 0.929 . S
C122 O113 1.250 . S
C122 O114 1.258 . S
O123 Mn108 2.162 . S
O123 C111 1.281 . S
O124 Mn108 2.297 . S
O124 C111 1.236 . S
N125 Mn109 2.282 . S
N125 C126 1.328 . S
N125 C130 1.318 . S
C126 N125 1.328 . S
C126 C127 1.457 . S
C126 H131 0.929 . S
C127 C126 1.457 . S
C127 C128 1.291 . S
C127 H140 0.931 . S
C128 C127 1.291 . S
C128 C129 1.373 . S
C128 H141 0.929 . S
C129 C128 1.373 . S
C129 C130 1.396 . S
C129 C136 1.403 . S
C130 C120 1.476 . S
C130 N125 1.318 . S
C130 C129 1.396 . S
H131 C126 0.929 . S
O132 Mn108 2.385 . S
O132 C110 1.234 1_655 S
O133 Mn108 2.209 1_455 S
O133 Mn109 2.215 . S
O133 C110 1.283 . S
O134 Mn108 2.094 . S
O134 C112 1.240 . S
O135 Mn109 2.117 . S
O135 C112 1.264 1_455 S
C136 C129 1.403 . S
C136 C137 1.399 . S
C136 H142 0.929 . S
C137 C117 1.449 . S
C137 C136 1.399 . S
C137 H143 0.972 . S
H138 C118 0.931 . S
H139 C119 0.930 . S
H140 C127 0.931 . S
H141 C128 0.929 . S
H142 C136 0.929 . S
H143 C137 0.972 . S
Mn144 O149 2.095 1_554 S
Mn144 O159 2.162 . S
Mn144 O160 2.297 . S
Mn144 O168 2.385 . S
Mn144 O169 2.209 . S
Mn144 O170 2.094 1_554 S
Mn145 O150 2.121 . S
Mn145 N152 2.257 1_556 S
Mn145 N161 2.282 1_556 S
Mn145 O169 2.215 1_556 S
Mn145 O171 2.117 . S
C146 O168 1.234 . S
C146 O169 1.283 . S
C147 O159 1.281 . S
C147 O160 1.236 . S
C148 O170 1.240 . S
C148 O171 1.264 . S
O149 Mn144 2.095 1_556 S
O149 C158 1.250 . S
O150 Mn145 2.121 . S
O150 C158 1.258 . S
C151 N152 1.326 . S
C151 C155 1.460 . S
C151 H157 0.929 . S
N152 Mn145 2.257 1_554 S
N152 C151 1.326 . S
N152 C156 1.362 . S
C153 C154 1.258 . S
C153 C156 1.431 . S
C153 C173 1.449 . S
C154 C153 1.258 . S
C154 C155 1.477 . S
C154 H174 0.931 . S
C155 C151 1.460 . S
C155 C154 1.477 . S
C155 H175 0.930 . S
C156 N152 1.362 . S
C156 C153 1.431 . S
C156 C166 1.476 . S
H157 C151 0.929 . S
C158 O149 1.250 . S
C158 O150 1.258 . S
O159 Mn144 2.162 . S
O159 C147 1.281 . S
O160 Mn144 2.297 . S
O160 C147 1.236 . S
N161 Mn145 2.282 1_554 S
N161 C162 1.328 . S
N161 C166 1.318 . S
C162 N161 1.328 . S
C162 C163 1.457 . S
C162 H167 0.929 . S
C163 C162 1.457 . S
C163 C164 1.291 . S
C163 H176 0.931 . S
C164 C163 1.291 . S
C164 C165 1.373 . S
C164 H177 0.929 . S
C165 C164 1.373 . S
C165 C166 1.396 . S
C165 C172 1.403 . S
C166 C156 1.476 . S
C166 N161 1.318 . S
C166 C165 1.396 . S
H167 C162 0.929 . S
O168 Mn144 2.385 . S
O168 C146 1.234 . S
O169 Mn144 2.209 . S
O169 Mn145 2.215 1_554 S
O169 C146 1.283 . S
O170 Mn144 2.094 1_556 S
O170 C148 1.240 . S
O171 Mn145 2.117 . S
O171 C148 1.264 . S
C172 C165 1.403 . S
C172 C173 1.399 . S
C172 H178 0.929 . S
C173 C153 1.449 . S
C173 C172 1.399 . S
C173 H179 0.930 . S
H174 C154 0.931 . S
H175 C155 0.930 . S
H176 C163 0.931 . S
H177 C164 0.929 . S
H178 C172 0.929 . S
H179 C173 0.930 . S
Mn180 O185 2.102 1_545 S
Mn180 O195 2.162 . S
Mn180 O196 2.297 . S
Mn180 O204 2.385 . S
Mn180 O205 2.209 1_545 S
Mn180 O206 2.094 . S
Mn181 O186 2.121 . S
Mn181 N188 2.257 . S
Mn181 N197 2.282 . S
Mn181 O205 2.215 . S
Mn181 O207 2.161 . S
C182 O204 1.234 . S
C182 O205 1.283 1_545 S
C183 O195 1.281 . S
C183 O196 1.236 . S
C184 O206 1.240 . S
C184 O207 1.223 1_545 S
O185 Mn180 2.102 1_565 S
O185 C194 1.242 . S
O186 Mn181 2.121 . S
O186 C194 1.258 . S
C187 N188 1.326 . S
C187 C191 1.460 . S
C187 H193 0.929 . S
N188 Mn181 2.257 . S
N188 C187 1.326 . S
N188 C192 1.362 . S
C189 C190 1.258 . S
C189 C192 1.431 . S
C189 C209 1.449 . S
C190 C189 1.258 . S
C190 C191 1.477 . S
C190 H210 0.931 . S
C191 C187 1.460 . S
C191 C190 1.477 . S
C191 H211 0.930 . S
C192 N188 1.362 . S
C192 C189 1.431 . S
C192 C202 1.476 . S
H193 C187 0.929 . S
C194 O185 1.242 . S
C194 O186 1.258 . S
O195 Mn180 2.162 . S
O195 C183 1.281 . S
O196 Mn180 2.297 . S
O196 C183 1.236 . S
N197 Mn181 2.282 . S
N197 C198 1.328 . S
N197 C202 1.318 . S
C198 N197 1.328 . S
C198 C199 1.457 . S
C198 H203 0.933 . S
C199 C198 1.457 . S
C199 C200 1.291 . S
C199 H212 0.931 . S
C200 C199 1.291 . S
C200 C201 1.373 . S
C200 H213 0.929 . S
C201 C200 1.373 . S
C201 C202 1.396 . S
C201 C208 1.403 . S
C202 C192 1.476 . S
C202 N197 1.318 . S
C202 C201 1.396 . S
H203 C198 0.933 . S
O204 Mn180 2.385 . S
O204 C182 1.234 . S
O205 Mn180 2.209 1_565 S
O205 Mn181 2.215 . S
O205 C182 1.283 1_565 S
O206 Mn180 2.094 . S
O206 C184 1.240 . S
O207 Mn181 2.161 . S
O207 C184 1.223 1_565 S
C208 C201 1.403 . S
C208 C209 1.399 . S
C208 H214 0.929 . S
C209 C189 1.449 . S
C209 C208 1.399 . S
C209 H215 0.930 1_554 S
H210 C190 0.931 . S
H211 C191 0.930 . S
H212 C199 0.931 . S
H213 C200 0.929 . S
H214 C208 0.929 . S
H215 C209 0.930 1_556 S
Mn216 O221 2.095 . S
Mn216 O231 2.162 . S
Mn216 O232 2.297 . S
Mn216 O240 2.385 . S
Mn216 O241 2.209 . S
Mn216 O242 2.094 . S
Mn217 O222 2.121 . S
Mn217 N224 2.257 . S
Mn217 N233 2.282 . S
Mn217 O241 2.215 . S
Mn217 O243 2.117 . S
C218 O240 1.234 . S
C218 O241 1.283 . S
C219 O231 1.281 . S
C219 O232 1.236 . S
C220 O242 1.240 . S
C220 O243 1.264 . S
O221 Mn216 2.095 . S
O221 C230 1.250 . S
O222 Mn217 2.121 . S
O222 C230 1.258 . S
C223 N224 1.326 . S
C223 C227 1.460 . S
C223 H229 0.929 . S
N224 Mn217 2.257 . S
N224 C223 1.326 . S
N224 C228 1.362 . S
C225 C226 1.258 . S
C225 C228 1.431 . S
C225 C245 1.449 . S
C226 C225 1.258 . S
C226 C227 1.477 . S
C226 H246 0.931 . S
C227 C223 1.460 . S
C227 C226 1.477 . S
C227 H247 0.930 . S
C228 N224 1.362 . S
C228 C225 1.431 . S
C228 C238 1.476 . S
H229 C223 0.929 . S
C230 O221 1.250 . S
C230 O222 1.258 . S
O231 Mn216 2.162 . S
O231 C219 1.281 . S
O232 Mn216 2.297 . S
O232 C219 1.236 . S
N233 Mn217 2.282 . S
N233 C234 1.328 . S
N233 C238 1.318 . S
C234 N233 1.328 . S
C234 C235 1.457 . S
C234 H239 0.929 . S
C235 C234 1.457 . S
C235 C236 1.291 . S
C235 H248 0.931 . S
C236 C235 1.291 . S
C236 C237 1.373 . S
C236 H249 0.929 . S
C237 C236 1.373 . S
C237 C238 1.396 . S
C237 C244 1.403 . S
C238 C228 1.476 . S
C238 N233 1.318 . S
C238 C237 1.396 . S
H239 C234 0.929 . S
O240 Mn216 2.385 . S
O240 C218 1.234 . S
O241 Mn216 2.209 . S
O241 Mn217 2.215 . S
O241 C218 1.283 . S
O242 Mn216 2.094 . S
O242 C220 1.240 . S
O243 Mn217 2.117 . S
O243 C220 1.264 . S
C244 C237 1.403 . S
C244 C245 1.399 . S
C244 H250 0.929 . S
C245 C225 1.449 . S
C245 C244 1.399 . S
C245 H251 0.930 . S
H246 C226 0.931 . S
H247 C227 0.930 . S
H248 C235 0.931 . S
H249 C236 0.929 . S
H250 C244 0.929 . S
H251 C245 0.930 . S
Mn252 O257 2.095 . S
Mn252 O267 2.162 . S
Mn252 O268 2.297 . S
Mn252 O276 2.385 . S
Mn252 O277 2.209 . S
Mn252 O278 2.094 . S
Mn253 O258 2.121 . S
Mn253 N260 2.257 . S
Mn253 N269 2.282 . S
Mn253 O277 2.215 . S
Mn253 O279 2.117 . S
C254 O276 1.234 . S
C254 O277 1.283 . S
C255 O267 1.281 . S
C255 O268 1.236 . S
C256 O278 1.240 . S
C256 O279 1.264 . S
O257 Mn252 2.095 . S
O257 C266 1.250 . S
O258 Mn253 2.121 . S
O258 C266 1.258 . S
C259 N260 1.326 . S
C259 C263 1.460 . S
C259 H265 0.929 . S
N260 Mn253 2.257 . S
N260 C259 1.326 . S
N260 C264 1.362 . S
C261 C262 1.258 . S
C261 C264 1.431 . S
C261 C281 1.449 . S
C262 C261 1.258 . S
C262 C263 1.477 . S
C262 H282 0.931 . S
C263 C259 1.460 . S
C263 C262 1.477 . S
C263 H283 0.930 . S
C264 N260 1.362 . S
C264 C261 1.431 . S
C264 C274 1.476 . S
H265 C259 0.929 . S
C266 O257 1.250 . S
C266 O258 1.258 . S
O267 Mn252 2.162 . S
O267 C255 1.281 . S
O268 Mn252 2.297 . S
O268 C255 1.236 . S
N269 Mn253 2.282 . S
N269 C270 1.328 . S
N269 C274 1.318 . S
C270 N269 1.328 . S
C270 C271 1.457 . S
C270 H275 0.929 . S
C271 C270 1.457 . S
C271 C272 1.291 . S
C271 H284 0.931 . S
C272 C271 1.291 . S
C272 C273 1.373 . S
C272 H285 0.929 . S
C273 C272 1.373 . S
C273 C274 1.396 . S
C273 C280 1.403 . S
C274 C264 1.476 . S
C274 N269 1.318 . S
C274 C273 1.396 . S
H275 C270 0.929 . S
O276 Mn252 2.385 . S
O276 C254 1.234 . S
O277 Mn252 2.209 . S
O277 Mn253 2.215 . S
O277 C254 1.283 . S
O278 Mn252 2.094 . S
O278 C256 1.240 . S
O279 Mn253 2.117 . S
O279 C256 1.264 . S
C280 C273 1.403 . S
C280 C281 1.399 . S
C280 H286 0.929 . S
C281 C261 1.449 . S
C281 C280 1.399 . S
C281 H287 0.930 . S
H282 C262 0.931 . S
H283 C263 0.930 . S
H284 C271 0.931 . S
H285 C272 0.929 . S
H286 C280 0.929 . S
H287 C281 0.930 . S
Mn288 O293 2.095 . S
Mn288 O303 2.162 . S
Mn288 O304 2.297 . S
Mn288 O312 2.385 . S
Mn288 O313 2.209 . S
Mn288 O314 2.094 . S
Mn289 O294 2.121 . S
Mn289 N296 2.257 . S
Mn289 N305 2.282 . S
Mn289 O313 2.215 . S
Mn289 O315 2.117 . S
C290 O312 1.234 . S
C290 O313 1.283 . S
C291 O303 1.281 . S
C291 O304 1.236 . S
C292 O314 1.240 . S
C292 O315 1.264 . S
O293 Mn288 2.095 . S
O293 C302 1.250 . S
O294 Mn289 2.121 . S
O294 C302 1.258 . S
C295 N296 1.326 . S
C295 C299 1.460 . S
C295 H301 0.929 . S
N296 Mn289 2.257 . S
N296 C295 1.326 . S
N296 C300 1.362 . S
C297 C298 1.258 . S
C297 C300 1.431 . S
C297 C317 1.449 . S
C298 C297 1.258 . S
C298 C299 1.477 . S
C298 H318 0.931 . S
C299 C295 1.460 . S
C299 C298 1.477 . S
C299 H319 0.930 . S
C300 N296 1.362 . S
C300 C297 1.431 . S
C300 C310 1.476 . S
H301 C295 0.929 . S
C302 O293 1.250 . S
C302 O294 1.258 . S
O303 Mn288 2.162 . S
O303 C291 1.281 . S
O304 Mn288 2.297 . S
O304 C291 1.236 . S
N305 Mn289 2.282 . S
N305 C306 1.328 . S
N305 C310 1.318 . S
C306 N305 1.328 . S
C306 C307 1.457 . S
C306 H311 0.929 . S
C307 C306 1.457 . S
C307 C308 1.291 . S
C307 H320 0.931 . S
C308 C307 1.291 . S
C308 C309 1.373 . S
C308 H321 0.929 . S
C309 C308 1.373 . S
C309 C310 1.396 . S
C309 C316 1.403 . S
C310 C300 1.476 . S
C310 N305 1.318 . S
C310 C309 1.396 . S
H311 C306 0.929 . S
O312 Mn288 2.385 . S
O312 C290 1.234 . S
O313 Mn288 2.209 . S
O313 Mn289 2.215 . S
O313 C290 1.283 . S
O314 Mn288 2.094 . S
O314 C292 1.240 . S
O315 Mn289 2.117 . S
O315 C292 1.264 . S
C316 C309 1.403 . S
C316 C317 1.399 . S
C316 H322 0.929 . S
C317 C297 1.449 . S
C317 C316 1.399 . S
C317 H323 0.930 . S
H318 C298 0.931 . S
H319 C299 0.930 . S
H320 C307 0.931 . S
H321 C308 0.929 . S
H322 C316 0.929 . S
H323 C317 0.930 . S
Mn324 O329 2.095 . S
Mn324 O339 2.162 . S
Mn324 O340 2.297 . S
Mn324 O348 2.385 . S
Mn324 O349 2.209 . S
Mn324 O350 2.094 . S
Mn325 O330 2.121 . S
Mn325 N332 2.257 . S
Mn325 N341 2.282 . S
Mn325 O349 2.215 . S
Mn325 O351 2.117 . S
C326 O348 1.234 . S
C326 O349 1.283 . S
C327 O339 1.281 . S
C327 O340 1.236 . S
C328 O350 1.240 . S
C328 O351 1.264 . S
O329 Mn324 2.095 . S
O329 C338 1.250 . S
O330 Mn325 2.121 . S
O330 C338 1.258 . S
C331 N332 1.326 . S
C331 C335 1.460 . S
C331 H337 0.929 . S
N332 Mn325 2.257 . S
N332 C331 1.326 . S
N332 C336 1.362 . S
C333 C334 1.258 . S
C333 C336 1.431 . S
C333 C353 1.449 . S
C334 C333 1.258 . S
C334 C335 1.477 . S
C334 H354 0.931 . S
C335 C331 1.460 . S
C335 C334 1.477 . S
C335 H355 0.930 1_565 S
C336 N332 1.362 . S
C336 C333 1.431 . S
C336 C346 1.476 . S
H337 C331 0.929 . S
C338 O329 1.250 . S
C338 O330 1.258 . S
O339 Mn324 2.162 . S
O339 C327 1.281 . S
O340 Mn324 2.297 . S
O340 C327 1.236 . S
N341 Mn325 2.282 . S
N341 C342 1.328 . S
N341 C346 1.318 . S
C342 N341 1.328 . S
C342 C343 1.457 . S
C342 H347 0.929 . S
C343 C342 1.457 . S
C343 C344 1.291 . S
C343 H356 0.931 . S
C344 C343 1.291 . S
C344 C345 1.373 . S
C344 H357 0.929 . S
C345 C344 1.373 . S
C345 C346 1.396 . S
C345 C352 1.403 . S
C346 C336 1.476 . S
C346 N341 1.318 . S
C346 C345 1.396 . S
H347 C342 0.929 . S
O348 Mn324 2.385 . S
O348 C326 1.234 . S
O349 Mn324 2.209 . S
O349 Mn325 2.215 . S
O349 C326 1.283 . S
O350 Mn324 2.094 . S
O350 C328 1.240 . S
O351 Mn325 2.117 . S
O351 C328 1.264 . S
C352 C345 1.403 . S
C352 C353 1.399 . S
C352 H358 0.929 . S
C353 C333 1.449 . S
C353 C352 1.399 . S
C353 H359 0.930 . S
H354 C334 0.931 . S
H355 C335 0.930 1_545 S
H356 C343 0.931 . S
H357 C344 0.929 . S
H358 C352 0.929 . S
H359 C353 0.930 . S
Mn360 O365 2.095 . S
Mn360 O375 2.162 . S
Mn360 O376 2.297 . S
Mn360 O384 2.385 . S
Mn360 O385 2.209 . S
Mn360 O386 2.094 . S
Mn361 O366 2.121 . S
Mn361 N368 2.257 . S
Mn361 N377 2.282 . S
Mn361 O385 2.215 . S
Mn361 O387 2.117 . S
C362 O384 1.234 . S
C362 O385 1.283 . S
C363 O375 1.281 . S
C363 O376 1.236 . S
C364 O386 1.240 . S
C364 O387 1.264 . S
O365 Mn360 2.095 . S
O365 C374 1.250 . S
O366 Mn361 2.121 . S
O366 C374 1.258 . S
C367 N368 1.326 . S
C367 C371 1.460 . S
C367 H373 0.929 . S
N368 Mn361 2.257 . S
N368 C367 1.326 . S
N368 C372 1.362 . S
C369 C370 1.258 . S
C369 C372 1.431 . S
C369 C389 1.449 . S
C370 C369 1.258 . S
C370 C371 1.477 . S
C370 H390 0.931 . S
C371 C367 1.460 . S
C371 C370 1.477 . S
C371 H391 0.930 . S
C372 N368 1.362 . S
C372 C369 1.431 . S
C372 C382 1.476 . S
H373 C367 0.929 . S
C374 O365 1.250 . S
C374 O366 1.258 . S
O375 Mn360 2.162 . S
O375 C363 1.281 . S
O376 Mn360 2.297 . S
O376 C363 1.236 . S
N377 Mn361 2.282 . S
N377 C378 1.328 . S
N377 C382 1.318 . S
C378 N377 1.328 . S
C378 C379 1.457 . S
C378 H383 0.929 . S
C379 C378 1.457 . S
C379 C380 1.291 . S
C379 H392 0.931 . S
C380 C379 1.291 . S
C380 C381 1.373 . S
C380 H393 0.929 . S
C381 C380 1.373 . S
C381 C382 1.396 . S
C381 C388 1.403 . S
C382 C372 1.476 . S
C382 N377 1.318 . S
C382 C381 1.396 . S
H383 C378 0.929 . S
O384 Mn360 2.385 . S
O384 C362 1.234 . S
O385 Mn360 2.209 . S
O385 Mn361 2.215 . S
O385 C362 1.283 . S
O386 Mn360 2.094 . S
O386 C364 1.240 . S
O387 Mn361 2.117 . S
O387 C364 1.264 . S
C388 C381 1.403 . S
C388 C389 1.399 . S
C388 H394 0.929 . S
C389 C369 1.449 . S
C389 C388 1.399 . S
C389 H395 0.930 . S
H390 C370 0.931 . S
H391 C371 0.930 . S
H392 C379 0.931 . S
H393 C380 0.929 . S
H394 C388 0.929 . S
H395 C389 0.930 . S
Mn396 O401 2.095 . S
Mn396 O411 2.162 . S
Mn396 O412 2.297 . S
Mn396 O420 2.385 . S
Mn396 O421 2.209 . S
Mn396 O422 2.094 . S
Mn397 O402 2.121 . S
Mn397 N404 2.257 . S
Mn397 N413 2.282 . S
Mn397 O421 2.215 . S
Mn397 O423 2.117 . S
C398 O420 1.234 . S
C398 O421 1.283 . S
C399 O411 1.281 . S
C399 O412 1.236 . S
C400 O422 1.240 . S
C400 O423 1.264 . S
O401 Mn396 2.095 . S
O401 C410 1.250 . S
O402 Mn397 2.121 . S
O402 C410 1.258 . S
C403 N404 1.326 . S
C403 C407 1.460 . S
C403 H409 0.929 . S
N404 Mn397 2.257 . S
N404 C403 1.326 . S
N404 C408 1.362 . S
C405 C406 1.258 . S
C405 C408 1.431 . S
C405 C425 1.449 . S
C406 C405 1.258 . S
C406 C407 1.477 . S
C406 H426 0.931 . S
C407 C403 1.460 . S
C407 C406 1.477 . S
C407 H427 0.930 . S
C408 N404 1.362 . S
C408 C405 1.431 . S
C408 C418 1.476 . S
H409 C403 0.929 . S
C410 O401 1.250 . S
C410 O402 1.258 . S
O411 Mn396 2.162 . S
O411 C399 1.281 . S
O412 Mn396 2.297 . S
O412 C399 1.236 . S
N413 Mn397 2.282 . S
N413 C414 1.328 . S
N413 C418 1.318 . S
C414 N413 1.328 . S
C414 C415 1.457 . S
C414 H419 0.929 . S
C415 C414 1.457 . S
C415 C416 1.291 . S
C415 H428 0.931 . S
C416 C415 1.291 . S
C416 C417 1.373 . S
C416 H429 0.929 . S
C417 C416 1.373 . S
C417 C418 1.396 . S
C417 C424 1.403 . S
C418 C408 1.476 . S
C418 N413 1.318 . S
C418 C417 1.396 . S
H419 C414 0.929 . S
O420 Mn396 2.385 . S
O420 C398 1.234 . S
O421 Mn396 2.209 . S
O421 Mn397 2.215 . S
O421 C398 1.283 . S
O422 Mn396 2.094 . S
O422 C400 1.240 . S
O423 Mn397 2.117 . S
O423 C400 1.264 . S
C424 C417 1.403 . S
C424 C425 1.399 . S
C424 H430 0.929 . S
C425 C405 1.449 . S
C425 C424 1.399 . S
C425 H431 0.930 . S
H426 C406 0.931 . S
H427 C407 0.930 . S
H428 C415 0.931 . S
H429 C416 0.929 . S
H430 C424 0.929 . S
H431 C425 0.930 . S
Mn432 O437 2.095 . S
Mn432 O447 2.162 . S
Mn432 O448 2.297 . S
Mn432 O456 2.385 . S
Mn432 O457 2.209 . S
Mn432 O458 2.094 . S
Mn433 O438 2.121 . S
Mn433 N440 2.257 . S
Mn433 N449 2.282 . S
Mn433 O457 2.215 . S
Mn433 O459 2.117 . S
C434 O456 1.234 . S
C434 O457 1.283 . S
C435 O447 1.281 . S
C435 O448 1.236 . S
C436 O458 1.240 . S
C436 O459 1.264 . S
O437 Mn432 2.095 . S
O437 C446 1.250 . S
O438 Mn433 2.121 . S
O438 C446 1.258 . S
C439 N440 1.326 . S
C439 C443 1.460 . S
C439 H445 0.929 . S
N440 Mn433 2.257 . S
N440 C439 1.326 . S
N440 C444 1.362 . S
C441 C442 1.258 . S
C441 C444 1.431 . S
C441 C461 1.449 . S
C442 C441 1.258 . S
C442 C443 1.477 . S
C442 H462 0.931 . S
C443 C439 1.460 . S
C443 C442 1.477 . S
C443 H463 0.930 . S
C444 N440 1.362 . S
C444 C441 1.431 . S
C444 C454 1.476 . S
H445 C439 0.929 . S
C446 O437 1.250 . S
C446 O438 1.258 . S
O447 Mn432 2.162 . S
O447 C435 1.281 . S
O448 Mn432 2.297 . S
O448 C435 1.236 . S
N449 Mn433 2.282 . S
N449 C450 1.328 . S
N449 C454 1.318 . S
C450 N449 1.328 . S
C450 C451 1.457 . S
C450 H455 0.929 . S
C451 C450 1.457 . S
C451 C452 1.291 . S
C451 H464 0.931 . S
C452 C451 1.291 . S
C452 C453 1.373 . S
C452 H465 0.929 . S
C453 C452 1.373 . S
C453 C454 1.396 . S
C453 C460 1.403 . S
C454 C444 1.476 . S
C454 N449 1.318 . S
C454 C453 1.396 . S
H455 C450 0.929 . S
O456 Mn432 2.385 . S
O456 C434 1.234 . S
O457 Mn432 2.209 . S
O457 Mn433 2.215 . S
O457 C434 1.283 . S
O458 Mn432 2.094 . S
O458 C436 1.240 . S
O459 Mn433 2.117 . S
O459 C436 1.264 . S
C460 C453 1.403 . S
C460 C461 1.399 . S
C460 H466 0.929 . S
C461 C441 1.449 . S
C461 C460 1.399 . S
C461 H467 0.930 . S
H462 C442 0.931 . S
H463 C443 0.930 . S
H464 C451 0.931 . S
H465 C452 0.929 . S
H466 C460 0.929 . S
H467 C461 0.930 . S
Mn468 O473 2.095 . S
Mn468 O483 2.162 . S
Mn468 O484 2.297 . S
Mn468 O492 2.385 . S
Mn468 O493 2.209 . S
Mn468 O494 2.094 . S
Mn469 O474 2.121 . S
Mn469 N476 2.257 . S
Mn469 N485 2.282 . S
Mn469 O493 2.215 . S
Mn469 O495 2.117 . S
C470 O492 1.234 . S
C470 O493 1.283 . S
C471 O483 1.281 . S
C471 O484 1.236 . S
C472 O494 1.240 . S
C472 O495 1.264 . S
O473 Mn468 2.095 . S
O473 C482 1.250 . S
O474 Mn469 2.121 . S
O474 C482 1.258 . S
C475 N476 1.326 . S
C475 C479 1.460 . S
C475 H481 0.929 . S
N476 Mn469 2.257 . S
N476 C475 1.326 . S
N476 C480 1.362 . S
C477 C478 1.258 . S
C477 C480 1.431 . S
C477 C497 1.449 . S
C478 C477 1.258 . S
C478 C479 1.477 . S
C478 H498 0.931 . S
C479 C475 1.460 . S
C479 C478 1.477 . S
C479 H499 0.880 1_655 S
C480 N476 1.362 . S
C480 C477 1.431 . S
C480 C490 1.476 . S
H481 C475 0.929 . S
C482 O473 1.250 . S
C482 O474 1.258 . S
O483 Mn468 2.162 . S
O483 C471 1.281 . S
O484 Mn468 2.297 . S
O484 C471 1.236 . S
N485 Mn469 2.282 . S
N485 C486 1.328 . S
N485 C490 1.318 . S
C486 N485 1.328 . S
C486 C487 1.457 . S
C486 H491 0.929 . S
C487 C486 1.457 . S
C487 C488 1.291 . S
C487 H500 0.931 . S
C488 C487 1.291 . S
C488 C489 1.373 . S
C488 H501 0.929 . S
C489 C488 1.373 . S
C489 C490 1.396 . S
C489 C496 1.403 . S
C490 C480 1.476 . S
C490 N485 1.318 . S
C490 C489 1.396 . S
H491 C486 0.929 . S
O492 Mn468 2.385 . S
O492 C470 1.234 . S
O493 Mn468 2.209 . S
O493 Mn469 2.215 . S
O493 C470 1.283 . S
O494 Mn468 2.094 . S
O494 C472 1.240 . S
O495 Mn469 2.117 . S
O495 C472 1.264 . S
C496 C489 1.403 . S
C496 C497 1.399 . S
C496 H502 0.929 . S
C497 C477 1.449 . S
C497 C496 1.399 . S
C497 H503 0.930 . S
H498 C478 0.931 . S
H499 C479 0.880 1_455 S
H500 C487 0.931 . S
H501 C488 0.929 . S
H502 C496 0.929 . S
H503 C497 0.930 . S
Mn504 O509 2.095 . S
Mn504 O519 2.162 . S
Mn504 O520 2.297 . S
Mn504 O528 2.385 . S
Mn504 O529 2.209 . S
Mn504 O530 2.094 . S
Mn505 O510 2.121 . S
Mn505 N512 2.257 . S
Mn505 N521 2.282 . S
Mn505 O529 2.215 . S
Mn505 O531 2.117 . S
C506 O528 1.234 . S
C506 O529 1.283 . S
C507 O519 1.281 . S
C507 O520 1.236 . S
C508 O530 1.240 . S
C508 O531 1.264 . S
O509 Mn504 2.095 . S
O509 C518 1.250 . S
O510 Mn505 2.121 . S
O510 C518 1.258 . S
C511 N512 1.326 . S
C511 C515 1.460 . S
C511 H517 0.929 . S
N512 Mn505 2.257 . S
N512 C511 1.326 . S
N512 C516 1.362 . S
C513 C514 1.258 . S
C513 C516 1.431 . S
C513 C533 1.449 . S
C514 C513 1.258 . S
C514 C515 1.477 . S
C514 H534 0.931 . S
C515 C511 1.460 . S
C515 C514 1.477 . S
C515 H535 0.930 . S
C516 N512 1.362 . S
C516 C513 1.431 . S
C516 C526 1.476 . S
H517 C511 0.929 . S
C518 O509 1.250 . S
C518 O510 1.258 . S
O519 Mn504 2.162 . S
O519 C507 1.281 . S
O520 Mn504 2.297 . S
O520 C507 1.236 . S
N521 Mn505 2.282 . S
N521 C522 1.328 . S
N521 C526 1.318 . S
C522 N521 1.328 . S
C522 C523 1.457 . S
C522 H527 0.929 . S
C523 C522 1.457 . S
C523 C524 1.291 . S
C523 H536 0.931 . S
C524 C523 1.291 . S
C524 C525 1.373 . S
C524 H537 0.929 . S
C525 C524 1.373 . S
C525 C526 1.396 . S
C525 C532 1.403 . S
C526 C516 1.476 . S
C526 N521 1.318 . S
C526 C525 1.396 . S
H527 C522 0.929 . S
O528 Mn504 2.385 . S
O528 C506 1.234 . S
O529 Mn504 2.209 . S
O529 Mn505 2.215 . S
O529 C506 1.283 . S
O530 Mn504 2.094 . S
O530 C508 1.240 . S
O531 Mn505 2.117 . S
O531 C508 1.264 . S
C532 C525 1.403 . S
C532 C533 1.399 . S
C532 H538 0.929 . S
C533 C513 1.449 . S
C533 C532 1.399 . S
C533 H539 0.930 . S
H534 C514 0.931 . S
H535 C515 0.930 . S
H536 C523 0.931 . S
H537 C524 0.929 . S
H538 C532 0.929 . S
H539 C533 0.930 . S
Mn540 O545 2.095 . S
Mn540 O555 2.162 . S
Mn540 O556 2.297 . S
Mn540 O564 2.385 . S
Mn540 O565 2.209 . S
Mn540 O566 2.094 . S
Mn541 O546 2.121 . S
Mn541 N548 2.257 . S
Mn541 N557 2.282 . S
Mn541 O565 2.215 . S
Mn541 O567 2.117 . S
C542 O564 1.234 . S
C542 O565 1.283 . S
C543 O555 1.281 . S
C543 O556 1.236 . S
C544 O566 1.240 . S
C544 O567 1.264 . S
O545 Mn540 2.095 . S
O545 C554 1.250 . S
O546 Mn541 2.121 . S
O546 C554 1.258 . S
C547 N548 1.326 . S
C547 C551 1.460 . S
C547 H553 0.929 . S
N548 Mn541 2.257 . S
N548 C547 1.326 . S
N548 C552 1.362 . S
C549 C550 1.258 . S
C549 C552 1.431 . S
C549 C569 1.449 . S
C550 C549 1.258 . S
C550 C551 1.477 . S
C550 H570 0.931 . S
C551 C547 1.460 . S
C551 C550 1.477 . S
C551 H571 0.930 . S
C552 N548 1.362 . S
C552 C549 1.431 . S
C552 C562 1.476 . S
H553 C547 0.929 . S
C554 O545 1.250 . S
C554 O546 1.258 . S
O555 Mn540 2.162 . S
O555 C543 1.281 . S
O556 Mn540 2.297 . S
O556 C543 1.236 . S
N557 Mn541 2.282 . S
N557 C558 1.328 . S
N557 C562 1.318 . S
C558 N557 1.328 . S
C558 C559 1.457 . S
C558 H563 0.929 . S
C559 C558 1.457 . S
C559 C560 1.291 . S
C559 H572 0.931 . S
C560 C559 1.291 . S
C560 C561 1.373 . S
C560 H573 0.929 . S
C561 C560 1.373 . S
C561 C562 1.396 . S
C561 C568 1.403 . S
C562 C552 1.476 . S
C562 N557 1.318 . S
C562 C561 1.396 . S
H563 C558 0.929 . S
O564 Mn540 2.385 . S
O564 C542 1.234 . S
O565 Mn540 2.209 . S
O565 Mn541 2.215 . S
O565 C542 1.283 . S
O566 Mn540 2.094 . S
O566 C544 1.240 . S
O567 Mn541 2.117 . S
O567 C544 1.264 . S
C568 C561 1.403 . S
C568 C569 1.399 . S
C568 H574 0.929 . S
C569 C549 1.449 . S
C569 C568 1.399 . S
C569 H575 0.930 . S
H570 C550 0.931 . S
H571 C551 0.930 . S
H572 C559 0.931 . S
H573 C560 0.929 . S
H574 C568 0.929 . S
H575 C569 0.930 . S
Mn576 O581 2.095 . S
Mn576 O591 2.162 . S
Mn576 O592 2.297 . S
Mn576 O600 2.385 . S
Mn576 O601 2.209 . S
Mn576 O602 2.094 . S
Mn577 O582 2.121 . S
Mn577 N584 2.257 . S
Mn577 N593 2.282 . S
Mn577 O601 2.215 . S
Mn577 O603 2.117 . S
C578 O600 1.234 . S
C578 O601 1.283 . S
C579 O591 1.281 . S
C579 O592 1.236 . S
C580 O602 1.240 . S
C580 O603 1.264 . S
O581 Mn576 2.095 . S
O581 C590 1.250 . S
O582 Mn577 2.121 . S
O582 C590 1.258 . S
C583 N584 1.326 . S
C583 C587 1.460 . S
C583 H589 0.929 . S
N584 Mn577 2.257 . S
N584 C583 1.326 . S
N584 C588 1.362 . S
C585 C586 1.258 . S
C585 C588 1.431 . S
C585 C605 1.449 . S
C586 C585 1.258 . S
C586 C587 1.477 . S
C586 H606 0.931 . S
C587 C583 1.460 . S
C587 C586 1.477 . S
C587 H607 0.934 . S
C588 N584 1.362 . S
C588 C585 1.431 . S
C588 C598 1.476 . S
H589 C583 0.929 . S
C590 O581 1.250 . S
C590 O582 1.258 . S
O591 Mn576 2.162 . S
O591 C579 1.281 . S
O592 Mn576 2.297 . S
O592 C579 1.236 . S
N593 Mn577 2.282 . S
N593 C594 1.328 . S
N593 C598 1.318 . S
C594 N593 1.328 . S
C594 C595 1.457 . S
C594 H599 0.929 . S
C595 C594 1.457 . S
C595 C596 1.291 . S
C595 H608 0.931 . S
C596 C595 1.291 . S
C596 C597 1.373 . S
C596 H609 0.929 . S
C597 C596 1.373 . S
C597 C598 1.396 . S
C597 C604 1.403 . S
C598 C588 1.476 . S
C598 N593 1.318 . S
C598 C597 1.396 . S
H599 C594 0.929 . S
O600 Mn576 2.385 . S
O600 C578 1.234 . S
O601 Mn576 2.209 . S
O601 Mn577 2.215 . S
O601 C578 1.283 . S
O602 Mn576 2.094 . S
O602 C580 1.240 . S
O603 Mn577 2.117 . S
O603 C580 1.264 . S
C604 C597 1.403 . S
C604 C605 1.399 . S
C604 H610 0.929 . S
C605 C585 1.449 . S
C605 C604 1.399 . S
C605 H611 0.930 . S
H606 C586 0.931 . S
H607 C587 0.934 . S
H608 C595 0.931 . S
H609 C596 0.929 . S
H610 C604 0.929 . S
H611 C605 0.930 . S
Mn612 O617 2.095 . S
Mn612 O627 2.162 . S
Mn612 O628 2.297 . S
Mn612 O636 2.385 . S
Mn612 O637 2.209 . S
Mn612 O638 2.094 . S
Mn613 O618 2.121 . S
Mn613 N620 2.257 . S
Mn613 N629 2.282 . S
Mn613 O637 2.215 . S
Mn613 O639 2.117 . S
C614 O636 1.234 . S
C614 O637 1.283 . S
C615 O627 1.281 . S
C615 O628 1.236 . S
C616 O638 1.240 . S
C616 O639 1.264 . S
O617 Mn612 2.095 . S
O617 C626 1.250 . S
O618 Mn613 2.121 . S
O618 C626 1.258 . S
C619 N620 1.326 . S
C619 C623 1.460 . S
C619 H625 0.929 . S
N620 Mn613 2.257 . S
N620 C619 1.326 . S
N620 C624 1.362 . S
C621 C622 1.258 . S
C621 C624 1.431 . S
C621 C641 1.449 . S
C622 C621 1.258 . S
C622 C623 1.477 . S
C622 H642 0.931 . S
C623 C619 1.460 . S
C623 C622 1.477 . S
C623 H643 0.930 . S
C624 N620 1.362 . S
C624 C621 1.431 . S
C624 C634 1.476 . S
H625 C619 0.929 . S
C626 O617 1.250 . S
C626 O618 1.258 . S
O627 Mn612 2.162 . S
O627 C615 1.281 . S
O628 Mn612 2.297 . S
O628 C615 1.236 . S
N629 Mn613 2.282 . S
N629 C630 1.328 . S
N629 C634 1.318 . S
C630 N629 1.328 . S
C630 C631 1.457 . S
C630 H635 0.929 . S
C631 C630 1.457 . S
C631 C632 1.291 . S
C631 H644 0.931 . S
C632 C631 1.291 . S
C632 C633 1.373 . S
C632 H645 0.929 . S
C633 C632 1.373 . S
C633 C634 1.396 . S
C633 C640 1.403 . S
C634 C624 1.476 . S
C634 N629 1.318 . S
C634 C633 1.396 . S
H635 C630 0.929 . S
O636 Mn612 2.385 . S
O636 C614 1.234 . S
O637 Mn612 2.209 . S
O637 Mn613 2.215 . S
O637 C614 1.283 . S
O638 Mn612 2.094 . S
O638 C616 1.240 . S
O639 Mn613 2.117 . S
O639 C616 1.264 . S
C640 C633 1.403 . S
C640 C641 1.399 . S
C640 H646 0.929 . S
C641 C621 1.449 . S
C641 C640 1.399 . S
C641 H647 0.930 . S
H642 C622 0.931 . S
H643 C623 0.930 . S
H644 C631 0.931 . S
H645 C632 0.929 . S
H646 C640 0.929 . S
H647 C641 0.930 . S
H648 O674 0.856 . S
H649 O677 0.854 . S
H650 C685 0.930 . S
H651 C686 0.930 . S
H652 C688 0.930 . S
H653 C689 0.930 . S
H654 C691 0.931 . S
H655 C692 0.930 . S
H656 C694 0.930 . S
H657 C695 0.929 . S
H658 C697 0.930 . S
H659 C698 0.931 . S
H660 C700 0.930 . S
H661 C701 0.929 . S
H662 C703 0.931 . S
H663 C704 0.930 . S
H664 C706 0.930 . S
H665 C707 0.932 . S
H666 C709 0.930 . S
H667 C710 0.929 . S
H668 C712 0.931 . S
H669 C713 0.930 . S
H670 C715 0.929 . S
H671 C716 0.931 . S
H672 C718 0.930 . S
H673 C719 0.929 . S
O674 H648 0.856 . S
O674 C720 1.300 . S
O675 C720 1.209 . S
O676 C721 1.199 . S
O677 H649 0.854 . S
O677 C721 1.297 . S
C678 C679 1.404 . S
C678 C683 1.397 . S
C678 C684 1.492 . S
C679 C678 1.404 . S
C679 C680 1.396 . S
C679 C690 1.492 . S
C680 C679 1.396 . S
C680 C681 1.397 . S
C680 C696 1.509 . S
C681 C680 1.397 . S
C681 C682 1.412 . S
C681 C702 1.485 . S
C682 C681 1.412 . S
C682 C683 1.388 . S
C682 C708 1.490 . S
C683 C678 1.397 . S
C683 C682 1.388 . S
C683 C714 1.519 . S
C684 C678 1.492 . S
C684 C685 1.363 . S
C684 C689 1.390 . S
C685 H650 0.930 . S
C685 C684 1.363 . S
C685 C686 1.372 . S
C686 H651 0.930 . S
C686 C685 1.372 . S
C686 C687 1.383 . S
C687 C686 1.383 . S
C687 C688 1.395 . S
C688 H652 0.930 . S
C688 C687 1.395 . S
C688 C689 1.362 . S
C689 H653 0.930 . S
C689 C684 1.390 . S
C689 C688 1.362 . S
C690 C679 1.492 . S
C690 C691 1.377 . S
C690 C695 1.397 . S
C691 H654 0.931 . S
C691 C690 1.377 . S
C691 C692 1.376 . S
C692 H655 0.930 . S
C692 C691 1.376 . S
C692 C693 1.376 . S
C693 C692 1.376 . S
C693 C694 1.378 . S
C693 C720 1.486 . S
C694 H656 0.930 . S
C694 C693 1.378 . S
C694 C695 1.376 . S
C695 H657 0.929 . S
C695 C690 1.397 . S
C695 C694 1.376 . S
C696 C680 1.509 . S
C696 C697 1.391 . S
C696 C701 1.386 . S
C697 H658 0.930 . S
C697 C696 1.391 . S
C697 C698 1.375 . S
C698 H659 0.931 . S
C698 C697 1.375 . S
C698 C699 1.375 . S
C699 C698 1.375 . S
C699 C700 1.361 . S
C700 H660 0.930 . S
C700 C699 1.361 . S
C700 C701 1.399 . S
C701 H661 0.929 . S
C701 C696 1.386 . S
C701 C700 1.399 . S
C702 C681 1.485 . S
C702 C703 1.394 . S
C702 C707 1.360 . S
C703 H662 0.931 . S
C703 C702 1.394 . S
C703 C704 1.372 . S
C704 H663 0.930 . S
C704 C703 1.372 . S
C704 C705 1.397 . S
C705 C704 1.397 . S
C705 C706 1.390 . S
C705 C721 1.476 . S
C706 H664 0.930 . S
C706 C705 1.390 . S
C706 C707 1.366 . S
C707 H665 0.932 . S
C707 C702 1.360 . S
C707 C706 1.366 . S
C708 C682 1.490 . S
C708 C709 1.380 . S
C708 C713 1.386 . S
C709 H666 0.930 . S
C709 C708 1.380 . S
C709 C710 1.381 . S
C710 H667 0.929 . S
C710 C709 1.381 . S
C710 C711 1.371 . S
C711 C710 1.371 . S
C711 C712 1.380 . S
C712 H668 0.931 . S
C712 C711 1.380 . S
C712 C713 1.387 . S
C713 H669 0.930 . S
C713 C708 1.386 . S
C713 C712 1.387 . S
C714 C683 1.519 . S
C714 C715 1.377 . S
C714 C719 1.361 . S
C715 H670 0.929 . S
C715 C714 1.377 . S
C715 C716 1.386 . S
C716 H671 0.931 . S
C716 C715 1.386 . S
C716 C717 1.363 . S
C717 C716 1.363 . S
C717 C718 1.385 . S
C718 H672 0.930 . S
C718 C717 1.385 . S
C718 C719 1.396 . S
C719 H673 0.929 . S
C719 C714 1.361 . S
C719 C718 1.396 . S
C720 O674 1.300 . S
C720 O675 1.209 . S
C720 C693 1.486 . S
C721 O676 1.199 . S
C721 O677 1.297 . S
C721 C705 1.476 . S
H722 O748 0.856 . S
H723 O751 0.854 . S
H724 C759 0.930 . S
H725 C760 0.930 . S
H726 C762 0.930 . S
H727 C763 0.930 . S
H728 C765 0.931 . S
H729 C766 0.930 . S
H730 C768 0.930 . S
H731 C769 0.929 . S
H732 C771 0.930 . S
H733 C772 0.931 . S
H734 C774 0.930 . S
H735 C775 0.929 . S
H736 C777 0.931 . S
H737 C778 0.930 . S
H738 C780 0.930 . S
H739 C781 0.932 . S
H740 C783 0.930 . S
H741 C784 0.929 . S
H742 C786 0.931 . S
H743 C787 0.930 . S
H744 C789 0.929 . S
H745 C790 0.931 . S
H746 C792 0.930 . S
H747 C793 0.929 . S
O748 H722 0.856 . S
O748 C794 1.300 . S
O749 C794 1.209 . S
O750 C795 1.199 . S
O751 H723 0.854 . S
O751 C795 1.297 . S
C752 C753 1.404 . S
C752 C757 1.397 . S
C752 C758 1.492 . S
C753 C752 1.404 . S
C753 C754 1.396 . S
C753 C764 1.492 . S
C754 C753 1.396 . S
C754 C755 1.397 . S
C754 C770 1.509 . S
C755 C754 1.397 . S
C755 C756 1.412 . S
C755 C776 1.485 . S
C756 C755 1.412 . S
C756 C757 1.388 . S
C756 C782 1.490 . S
C757 C752 1.397 . S
C757 C756 1.388 . S
C757 C788 1.519 . S
C758 C752 1.492 . S
C758 C759 1.363 . S
C758 C763 1.390 . S
C759 H724 0.930 . S
C759 C758 1.363 . S
C759 C760 1.372 . S
C760 H725 0.930 . S
C760 C759 1.372 . S
C760 C761 1.383 . S
C761 C760 1.383 . S
C761 C762 1.395 . S
C762 H726 0.930 . S
C762 C761 1.395 . S
C762 C763 1.362 . S
C763 H727 0.930 . S
C763 C758 1.390 . S
C763 C762 1.362 . S
C764 C753 1.492 . S
C764 C765 1.377 . S
C764 C769 1.397 . S
C765 H728 0.931 . S
C765 C764 1.377 . S
C765 C766 1.376 . S
C766 H729 0.930 . S
C766 C765 1.376 . S
C766 C767 1.376 . S
C767 C766 1.376 . S
C767 C768 1.378 . S
C767 C794 1.486 . S
C768 H730 0.930 . S
C768 C767 1.378 . S
C768 C769 1.376 . S
C769 H731 0.929 . S
C769 C764 1.397 . S
C769 C768 1.376 . S
C770 C754 1.509 . S
C770 C771 1.391 . S
C770 C775 1.386 . S
C771 H732 0.930 . S
C771 C770 1.391 . S
C771 C772 1.375 . S
C772 H733 0.931 . S
C772 C771 1.375 . S
C772 C773 1.375 . S
C773 C772 1.375 . S
C773 C774 1.361 . S
C774 H734 0.930 . S
C774 C773 1.361 . S
C774 C775 1.399 . S
C775 H735 0.929 . S
C775 C770 1.386 . S
C775 C774 1.399 . S
C776 C755 1.485 . S
C776 C777 1.394 . S
C776 C781 1.360 . S
C777 H736 0.931 . S
C777 C776 1.394 . S
C777 C778 1.372 . S
C778 H737 0.930 . S
C778 C777 1.372 . S
C778 C779 1.397 . S
C779 C778 1.397 . S
C779 C780 1.390 . S
C779 C795 1.476 . S
C780 H738 0.930 . S
C780 C779 1.390 . S
C780 C781 1.366 . S
C781 H739 0.932 . S
C781 C776 1.360 . S
C781 C780 1.366 . S
C782 C756 1.490 . S
C782 C783 1.380 . S
C782 C787 1.386 . S
C783 H740 0.930 . S
C783 C782 1.380 . S
C783 C784 1.381 . S
C784 H741 0.929 . S
C784 C783 1.381 . S
C784 C785 1.371 . S
C785 C784 1.371 . S
C785 C786 1.380 . S
C786 H742 0.931 . S
C786 C785 1.380 . S
C786 C787 1.387 . S
C787 H743 0.930 . S
C787 C782 1.386 . S
C787 C786 1.387 . S
C788 C757 1.519 . S
C788 C789 1.377 . S
C788 C793 1.361 . S
C789 H744 0.929 . S
C789 C788 1.377 . S
C789 C790 1.386 . S
C790 H745 0.931 . S
C790 C789 1.386 . S
C790 C791 1.363 . S
C791 C790 1.363 . S
C791 C792 1.385 . S
C792 H746 0.930 . S
C792 C791 1.385 . S
C792 C793 1.396 . S
C793 H747 0.929 . S
C793 C788 1.361 . S
C793 C792 1.396 . S
C794 O748 1.300 . S
C794 O749 1.209 . S
C794 C767 1.486 . S
C795 O750 1.199 . S
C795 O751 1.297 . S
C795 C779 1.476 . S
H796 O822 0.856 . S
H797 O825 0.854 . S
H798 C833 0.930 . S
H799 C834 0.930 . S
H800 C836 0.930 . S
H801 C837 0.930 . S
H802 C839 0.931 . S
H803 C840 0.930 . S
H804 C842 0.930 . S
H805 C843 0.929 . S
H806 C845 0.930 . S
H807 C846 0.931 . S
H808 C848 0.930 . S
H809 C849 0.929 . S
H810 C851 0.931 . S
H811 C852 0.930 . S
H812 C854 0.930 . S
H813 C855 0.932 . S
H814 C857 0.930 . S
H815 C858 0.929 . S
H816 C860 0.931 . S
H817 C861 0.930 . S
H818 C863 0.929 . S
H819 C864 0.931 . S
H820 C866 0.930 . S
H821 C867 0.929 . S
O822 H796 0.856 . S
O822 C868 1.300 . S
O823 C868 1.209 . S
O824 C869 1.199 . S
O825 H797 0.854 . S
O825 C869 1.297 . S
C826 C827 1.404 . S
C826 C831 1.397 . S
C826 C832 1.492 . S
C827 C826 1.404 . S
C827 C828 1.396 . S
C827 C838 1.492 . S
C828 C827 1.396 . S
C828 C829 1.397 . S
C828 C844 1.509 . S
C829 C828 1.397 . S
C829 C830 1.412 . S
C829 C850 1.485 . S
C830 C829 1.412 . S
C830 C831 1.388 . S
C830 C856 1.490 . S
C831 C826 1.397 . S
C831 C830 1.388 . S
C831 C862 1.519 . S
C832 C826 1.492 . S
C832 C833 1.363 . S
C832 C837 1.390 . S
C833 H798 0.930 . S
C833 C832 1.363 . S
C833 C834 1.372 . S
C834 H799 0.930 . S
C834 C833 1.372 . S
C834 C835 1.383 . S
C835 C834 1.383 . S
C835 C836 1.395 . S
C836 H800 0.930 . S
C836 C835 1.395 . S
C836 C837 1.362 . S
C837 H801 0.930 . S
C837 C832 1.390 . S
C837 C836 1.362 . S
C838 C827 1.492 . S
C838 C839 1.377 . S
C838 C843 1.397 . S
C839 H802 0.931 . S
C839 C838 1.377 . S
C839 C840 1.376 . S
C840 H803 0.930 . S
C840 C839 1.376 . S
C840 C841 1.376 . S
C841 C840 1.376 . S
C841 C842 1.378 . S
C841 C868 1.486 . S
C842 H804 0.930 . S
C842 C841 1.378 . S
C842 C843 1.376 . S
C843 H805 0.929 . S
C843 C838 1.397 . S
C843 C842 1.376 . S
C844 C828 1.509 . S
C844 C845 1.391 . S
C844 C849 1.386 . S
C845 H806 0.930 . S
C845 C844 1.391 . S
C845 C846 1.375 . S
C846 H807 0.931 . S
C846 C845 1.375 . S
C846 C847 1.375 . S
C847 C846 1.375 . S
C847 C848 1.361 . S
C848 H808 0.930 . S
C848 C847 1.361 . S
C848 C849 1.399 . S
C849 H809 0.929 . S
C849 C844 1.386 . S
C849 C848 1.399 . S
C850 C829 1.485 . S
C850 C851 1.394 . S
C850 C855 1.360 . S
C851 H810 0.931 . S
C851 C850 1.394 . S
C851 C852 1.372 . S
C852 H811 0.930 . S
C852 C851 1.372 . S
C852 C853 1.397 . S
C853 C852 1.397 . S
C853 C854 1.390 . S
C853 C869 1.476 . S
C854 H812 0.930 . S
C854 C853 1.390 . S
C854 C855 1.366 . S
C855 H813 0.932 . S
C855 C850 1.360 . S
C855 C854 1.366 . S
C856 C830 1.490 . S
C856 C857 1.380 . S
C856 C861 1.386 . S
C857 H814 0.930 . S
C857 C856 1.380 . S
C857 C858 1.381 . S
C858 H815 0.929 . S
C858 C857 1.381 . S
C858 C859 1.371 . S
C859 C858 1.371 . S
C859 C860 1.380 . S
C860 H816 0.931 . S
C860 C859 1.380 . S
C860 C861 1.387 . S
C861 H817 0.930 . S
C861 C856 1.386 . S
C861 C860 1.387 . S
C862 C831 1.519 . S
C862 C863 1.377 . S
C862 C867 1.361 . S
C863 H818 0.929 . S
C863 C862 1.377 . S
C863 C864 1.386 . S
C864 H819 0.931 . S
C864 C863 1.386 . S
C864 C865 1.363 . S
C865 C864 1.363 . S
C865 C866 1.385 . S
C866 H820 0.930 . S
C866 C865 1.385 . S
C866 C867 1.396 . S
C867 H821 0.929 . S
C867 C862 1.361 . S
C867 C866 1.396 . S
C868 O822 1.300 . S
C868 O823 1.209 . S
C868 C841 1.486 . S
C869 O824 1.199 . S
C869 O825 1.297 . S
C869 C853 1.476 . S
H870 O896 0.856 . S
H871 O899 0.854 . S
H872 C907 0.930 . S
H873 C908 0.930 . S
H874 C910 0.930 . S
H875 C911 0.930 . S
H876 C913 0.931 . S
H877 C914 0.930 . S
H878 C916 0.930 . S
H879 C917 0.929 . S
H880 C919 0.930 . S
H881 C920 0.931 . S
H882 C922 0.930 . S
H883 C923 0.929 . S
H884 C925 0.931 . S
H885 C926 0.930 . S
H886 C928 0.930 . S
H887 C929 0.932 . S
H888 C931 0.930 . S
H889 C932 0.929 . S
H890 C934 0.931 . S
H891 C935 0.930 . S
H892 C937 0.929 . S
H893 C938 0.931 . S
H894 C940 0.930 . S
H895 C941 0.929 . S
O896 H870 0.856 . S
O896 C942 1.300 . S
O897 C942 1.209 . S
O898 C943 1.199 . S
O899 H871 0.854 . S
O899 C943 1.297 . S
C900 C901 1.404 . S
C900 C905 1.397 . S
C900 C906 1.492 . S
C901 C900 1.404 . S
C901 C902 1.396 . S
C901 C912 1.492 . S
C902 C901 1.396 . S
C902 C903 1.397 . S
C902 C918 1.509 . S
C903 C902 1.397 . S
C903 C904 1.412 . S
C903 C924 1.485 . S
C904 C903 1.412 . S
C904 C905 1.388 . S
C904 C930 1.490 . S
C905 C900 1.397 . S
C905 C904 1.388 . S
C905 C936 1.519 . S
C906 C900 1.492 . S
C906 C907 1.363 . S
C906 C911 1.390 . S
C907 H872 0.930 . S
C907 C906 1.363 . S
C907 C908 1.372 . S
C908 H873 0.930 . S
C908 C907 1.372 . S
C908 C909 1.383 . S
C909 C908 1.383 . S
C909 C910 1.395 . S
C910 H874 0.930 . S
C910 C909 1.395 . S
C910 C911 1.362 . S
C911 H875 0.930 . S
C911 C906 1.390 . S
C911 C910 1.362 . S
C912 C901 1.492 . S
C912 C913 1.377 . S
C912 C917 1.397 . S
C913 H876 0.931 . S
C913 C912 1.377 . S
C913 C914 1.376 . S
C914 H877 0.930 . S
C914 C913 1.376 . S
C914 C915 1.376 . S
C915 C914 1.376 . S
C915 C916 1.378 . S
C915 C942 1.486 . S
C916 H878 0.930 . S
C916 C915 1.378 . S
C916 C917 1.376 . S
C917 H879 0.929 . S
C917 C912 1.397 . S
C917 C916 1.376 . S
C918 C902 1.509 . S
C918 C919 1.391 . S
C918 C923 1.386 . S
C919 H880 0.930 . S
C919 C918 1.391 . S
C919 C920 1.375 . S
C920 H881 0.931 . S
C920 C919 1.375 . S
C920 C921 1.375 . S
C921 C920 1.375 . S
C921 C922 1.361 . S
C922 H882 0.930 . S
C922 C921 1.361 . S
C922 C923 1.399 . S
C923 H883 0.929 . S
C923 C918 1.386 . S
C923 C922 1.399 . S
C924 C903 1.485 . S
C924 C925 1.394 . S
C924 C929 1.360 . S
C925 H884 0.931 . S
C925 C924 1.394 . S
C925 C926 1.372 . S
C926 H885 0.930 . S
C926 C925 1.372 . S
C926 C927 1.397 . S
C927 C926 1.397 . S
C927 C928 1.390 . S
C927 C943 1.476 . S
C928 H886 0.930 . S
C928 C927 1.390 . S
C928 C929 1.366 . S
C929 H887 0.932 . S
C929 C924 1.360 . S
C929 C928 1.366 . S
C930 C904 1.490 . S
C930 C931 1.380 . S
C930 C935 1.386 . S
C931 H888 0.930 . S
C931 C930 1.380 . S
C931 C932 1.381 . S
C932 H889 0.929 . S
C932 C931 1.381 . S
C932 C933 1.371 . S
C933 C932 1.371 . S
C933 C934 1.380 . S
C934 H890 0.931 . S
C934 C933 1.380 . S
C934 C935 1.387 . S
C935 H891 0.930 . S
C935 C930 1.386 . S
C935 C934 1.387 . S
C936 C905 1.519 . S
C936 C937 1.377 . S
C936 C941 1.361 . S
C937 H892 0.929 . S
C937 C936 1.377 . S
C937 C938 1.386 . S
C938 H893 0.931 . S
C938 C937 1.386 . S
C938 C939 1.363 . S
C939 C938 1.363 . S
C939 C940 1.385 . S
C940 H894 0.930 . S
C940 C939 1.385 . S
C940 C941 1.396 . S
C941 H895 0.929 . S
C941 C936 1.361 . S
C941 C940 1.396 . S
C942 O896 1.300 . S
C942 O897 1.209 . S
C942 C915 1.486 . S
C943 O898 1.199 . S
C943 O899 1.297 . S
C943 C927 1.476 . S
H944 O970 0.856 . S
H945 O973 0.854 . S
H946 C981 0.930 . S
H947 C982 0.930 . S
H948 C984 0.930 . S
H949 C985 0.930 . S
H950 C987 0.931 . S
H951 C988 0.930 . S
H952 C990 0.930 . S
H953 C991 0.929 . S
H954 C993 0.930 . S
H955 C994 0.931 . S
H956 C996 0.930 . S
H957 C997 0.929 . S
H958 C999 0.931 . S
H959 C1000 0.930 . S
H960 C1002 0.930 . S
H961 C1003 0.932 . S
H962 C1005 0.930 . S
H963 C1006 0.929 . S
H964 C1008 0.931 . S
H965 C1009 0.930 . S
H966 C1011 0.929 . S
H967 C1012 0.931 . S
H968 C1014 0.930 . S
H969 C1015 0.929 . S
O970 H944 0.856 . S
O970 C1016 1.300 . S
O971 C1016 1.209 . S
O972 C1017 1.199 . S
O973 H945 0.854 . S
O973 C1017 1.297 . S
C974 C975 1.404 . S
C974 C979 1.397 . S
C974 C980 1.492 . S
C975 C974 1.404 . S
C975 C976 1.396 . S
C975 C986 1.492 . S
C976 C975 1.396 . S
C976 C977 1.397 . S
C976 C992 1.509 . S
C977 C976 1.397 . S
C977 C978 1.412 . S
C977 C998 1.485 . S
C978 C977 1.412 . S
C978 C979 1.388 . S
C978 C1004 1.490 . S
C979 C974 1.397 . S
C979 C978 1.388 . S
C979 C1010 1.519 . S
C980 C974 1.492 . S
C980 C981 1.363 . S
C980 C985 1.390 . S
C981 H946 0.930 . S
C981 C980 1.363 . S
C981 C982 1.372 . S
C982 H947 0.930 . S
C982 C981 1.372 . S
C982 C983 1.383 . S
C983 C982 1.383 . S
C983 C984 1.395 . S
C984 H948 0.930 . S
C984 C983 1.395 . S
C984 C985 1.362 . S
C985 H949 0.930 . S
C985 C980 1.390 . S
C985 C984 1.362 . S
C986 C975 1.492 . S
C986 C987 1.377 . S
C986 C991 1.397 . S
C987 H950 0.931 . S
C987 C986 1.377 . S
C987 C988 1.376 . S
C988 H951 0.930 . S
C988 C987 1.376 . S
C988 C989 1.376 . S
C989 C988 1.376 . S
C989 C990 1.378 . S
C989 C1016 1.486 . S
C990 H952 0.930 . S
C990 C989 1.378 . S
C990 C991 1.376 . S
C991 H953 0.929 . S
C991 C986 1.397 . S
C991 C990 1.376 . S
C992 C976 1.509 . S
C992 C993 1.391 . S
C992 C997 1.386 . S
C993 H954 0.930 . S
C993 C992 1.391 . S
C993 C994 1.375 . S
C994 H955 0.931 . S
C994 C993 1.375 . S
C994 C995 1.375 . S
C995 C994 1.375 . S
C995 C996 1.361 . S
C996 H956 0.930 . S
C996 C995 1.361 . S
C996 C997 1.399 . S
C997 H957 0.929 . S
C997 C992 1.386 . S
C997 C996 1.399 . S
C998 C977 1.485 . S
C998 C999 1.394 . S
C998 C1003 1.360 . S
C999 H958 0.931 . S
C999 C998 1.394 . S
C999 C1000 1.372 . S
C1000 H959 0.930 . S
C1000 C999 1.372 . S
C1000 C1001 1.397 . S
C1001 C1000 1.397 . S
C1001 C1002 1.390 . S
C1001 C1017 1.476 . S
C1002 H960 0.930 . S
C1002 C1001 1.390 . S
C1002 C1003 1.366 . S
C1003 H961 0.932 . S
C1003 C998 1.360 . S
C1003 C1002 1.366 . S
C1004 C978 1.490 . S
C1004 C1005 1.380 . S
C1004 C1009 1.386 . S
C1005 H962 0.930 . S
C1005 C1004 1.380 . S
C1005 C1006 1.381 . S
C1006 H963 0.929 . S
C1006 C1005 1.381 . S
C1006 C1007 1.371 . S
C1007 C1006 1.371 . S
C1007 C1008 1.380 . S
C1008 H964 0.931 . S
C1008 C1007 1.380 . S
C1008 C1009 1.387 . S
C1009 H965 0.930 . S
C1009 C1004 1.386 . S
C1009 C1008 1.387 . S
C1010 C979 1.519 . S
C1010 C1011 1.377 . S
C1010 C1015 1.361 . S
C1011 H966 0.929 . S
C1011 C1010 1.377 . S
C1011 C1012 1.386 . S
C1012 H967 0.931 . S
C1012 C1011 1.386 . S
C1012 C1013 1.363 . S
C1013 C1012 1.363 . S
C1013 C1014 1.385 . S
C1014 H968 0.930 . S
C1014 C1013 1.385 . S
C1014 C1015 1.396 . S
C1015 H969 0.929 . S
C1015 C1010 1.361 . S
C1015 C1014 1.396 . S
C1016 O970 1.300 . S
C1016 O971 1.209 . S
C1016 C989 1.486 . S
C1017 O972 1.199 . S
C1017 O973 1.297 . S
C1017 C1001 1.476 . S
H1018 O1044 0.849 1_554 S
H1019 O1047 0.854 . S
H1020 C1055 0.930 . S
H1021 C1056 0.930 . S
H1022 C1058 0.930 . S
H1023 C1059 0.930 . S
H1024 C1061 0.931 . S
H1025 C1062 0.930 . S
H1026 C1064 0.930 . S
H1027 C1065 0.929 . S
H1028 C1067 0.930 . S
H1029 C1068 0.931 . S
H1030 C1070 0.930 . S
H1031 C1071 0.929 . S
H1032 C1073 0.931 . S
H1033 C1074 0.930 . S
H1034 C1076 0.930 . S
H1035 C1077 0.932 . S
H1036 C1079 0.930 . S
H1037 C1080 0.929 . S
H1038 C1082 0.931 . S
H1039 C1083 0.930 . S
H1040 C1085 0.929 . S
H1041 C1086 0.931 . S
H1042 C1088 0.930 . S
H1043 C1089 0.929 . S
O1044 H1018 0.849 1_556 S
O1044 C1090 1.305 . S
O1045 C1090 1.209 . S
O1046 C1091 1.199 . S
O1047 H1019 0.854 . S
O1047 C1091 1.297 . S
C1048 C1049 1.404 . S
C1048 C1053 1.397 . S
C1048 C1054 1.492 . S
C1049 C1048 1.404 . S
C1049 C1050 1.396 . S
C1049 C1060 1.492 . S
C1050 C1049 1.396 . S
C1050 C1051 1.397 . S
C1050 C1066 1.509 . S
C1051 C1050 1.397 . S
C1051 C1052 1.412 . S
C1051 C1072 1.485 . S
C1052 C1051 1.412 . S
C1052 C1053 1.388 . S
C1052 C1078 1.490 . S
C1053 C1048 1.397 . S
C1053 C1052 1.388 . S
C1053 C1084 1.519 . S
C1054 C1048 1.492 . S
C1054 C1055 1.363 . S
C1054 C1059 1.390 . S
C1055 H1020 0.930 . S
C1055 C1054 1.363 . S
C1055 C1056 1.372 . S
C1056 H1021 0.930 . S
C1056 C1055 1.372 . S
C1056 C1057 1.383 . S
C1057 C1056 1.383 . S
C1057 C1058 1.395 . S
C1058 H1022 0.930 . S
C1058 C1057 1.395 . S
C1058 C1059 1.362 . S
C1059 H1023 0.930 . S
C1059 C1054 1.390 . S
C1059 C1058 1.362 . S
C1060 C1049 1.492 . S
C1060 C1061 1.377 . S
C1060 C1065 1.397 . S
C1061 H1024 0.931 . S
C1061 C1060 1.377 . S
C1061 C1062 1.376 . S
C1062 H1025 0.930 . S
C1062 C1061 1.376 . S
C1062 C1063 1.376 . S
C1063 C1062 1.376 . S
C1063 C1064 1.378 . S
C1063 C1090 1.486 . S
C1064 H1026 0.930 . S
C1064 C1063 1.378 . S
C1064 C1065 1.376 . S
C1065 H1027 0.929 . S
C1065 C1060 1.397 . S
C1065 C1064 1.376 . S
C1066 C1050 1.509 . S
C1066 C1067 1.391 . S
C1066 C1071 1.386 . S
C1067 H1028 0.930 . S
C1067 C1066 1.391 . S
C1067 C1068 1.375 . S
C1068 H1029 0.931 . S
C1068 C1067 1.375 . S
C1068 C1069 1.375 . S
C1069 C1068 1.375 . S
C1069 C1070 1.361 . S
C1070 H1030 0.930 . S
C1070 C1069 1.361 . S
C1070 C1071 1.399 . S
C1071 H1031 0.929 . S
C1071 C1066 1.386 . S
C1071 C1070 1.399 . S
C1072 C1051 1.485 . S
C1072 C1073 1.394 . S
C1072 C1077 1.360 . S
C1073 H1032 0.931 . S
C1073 C1072 1.394 . S
C1073 C1074 1.372 . S
C1074 H1033 0.930 . S
C1074 C1073 1.372 . S
C1074 C1075 1.397 . S
C1075 C1074 1.397 . S
C1075 C1076 1.390 . S
C1075 C1091 1.476 . S
C1076 H1034 0.930 . S
C1076 C1075 1.390 . S
C1076 C1077 1.366 . S
C1077 H1035 0.932 . S
C1077 C1072 1.360 . S
C1077 C1076 1.366 . S
C1078 C1052 1.490 . S
C1078 C1079 1.380 . S
C1078 C1083 1.386 . S
C1079 H1036 0.930 . S
C1079 C1078 1.380 . S
C1079 C1080 1.381 . S
C1080 H1037 0.929 . S
C1080 C1079 1.381 . S
C1080 C1081 1.371 . S
C1081 C1080 1.371 . S
C1081 C1082 1.380 . S
C1082 H1038 0.931 . S
C1082 C1081 1.380 . S
C1082 C1083 1.387 . S
C1083 H1039 0.930 . S
C1083 C1078 1.386 . S
C1083 C1082 1.387 . S
C1084 C1053 1.519 . S
C1084 C1085 1.377 . S
C1084 C1089 1.361 . S
C1085 H1040 0.929 . S
C1085 C1084 1.377 . S
C1085 C1086 1.386 . S
C1086 H1041 0.931 . S
C1086 C1085 1.386 . S
C1086 C1087 1.363 . S
C1087 C1086 1.363 . S
C1087 C1088 1.385 . S
C1088 H1042 0.930 . S
C1088 C1087 1.385 . S
C1088 C1089 1.396 . S
C1089 H1043 0.929 . S
C1089 C1084 1.361 . S
C1089 C1088 1.396 . S
C1090 O1044 1.305 . S
C1090 O1045 1.209 . S
C1090 C1063 1.486 . S
C1091 O1046 1.199 . S
C1091 O1047 1.297 . S
C1091 C1075 1.476 . S
H1092 O1118 0.856 . S
H1093 O1121 0.854 . S
H1094 C1129 0.930 . S
H1095 C1130 0.930 . S
H1096 C1132 0.930 . S
H1097 C1133 0.930 . S
H1098 C1135 0.931 . S
H1099 C1136 0.930 . S
H1100 C1138 0.930 . S
H1101 C1139 0.929 . S
H1102 C1141 0.930 . S
H1103 C1142 0.931 . S
H1104 C1144 0.930 . S
H1105 C1145 0.929 . S
H1106 C1147 0.931 . S
H1107 C1148 0.930 . S
H1108 C1150 0.930 . S
H1109 C1151 0.932 . S
H1110 C1153 0.930 . S
H1111 C1154 0.929 . S
H1112 C1156 0.931 . S
H1113 C1157 0.930 . S
H1114 C1159 0.929 . S
H1115 C1160 0.931 . S
H1116 C1162 0.930 . S
H1117 C1163 0.929 . S
O1118 H1092 0.856 . S
O1118 C1164 1.300 . S
O1119 C1164 1.209 . S
O1120 C1165 1.199 . S
O1121 H1093 0.854 . S
O1121 C1165 1.297 . S
C1122 C1123 1.404 . S
C1122 C1127 1.397 . S
C1122 C1128 1.492 . S
C1123 C1122 1.404 . S
C1123 C1124 1.396 . S
C1123 C1134 1.492 . S
C1124 C1123 1.396 . S
C1124 C1125 1.397 . S
C1124 C1140 1.509 . S
C1125 C1124 1.397 . S
C1125 C1126 1.412 . S
C1125 C1146 1.485 . S
C1126 C1125 1.412 . S
C1126 C1127 1.388 . S
C1126 C1152 1.490 . S
C1127 C1122 1.397 . S
C1127 C1126 1.388 . S
C1127 C1158 1.519 . S
C1128 C1122 1.492 . S
C1128 C1129 1.363 . S
C1128 C1133 1.390 . S
C1129 H1094 0.930 . S
C1129 C1128 1.363 . S
C1129 C1130 1.372 . S
C1130 H1095 0.930 . S
C1130 C1129 1.372 . S
C1130 C1131 1.383 . S
C1131 C1130 1.383 . S
C1131 C1132 1.395 . S
C1132 H1096 0.930 . S
C1132 C1131 1.395 . S
C1132 C1133 1.362 . S
C1133 H1097 0.930 . S
C1133 C1128 1.390 . S
C1133 C1132 1.362 . S
C1134 C1123 1.492 . S
C1134 C1135 1.377 . S
C1134 C1139 1.397 . S
C1135 H1098 0.931 . S
C1135 C1134 1.377 . S
C1135 C1136 1.376 . S
C1136 H1099 0.930 . S
C1136 C1135 1.376 . S
C1136 C1137 1.376 . S
C1137 C1136 1.376 . S
C1137 C1138 1.378 . S
C1137 C1164 1.486 . S
C1138 H1100 0.930 . S
C1138 C1137 1.378 . S
C1138 C1139 1.376 . S
C1139 H1101 0.929 . S
C1139 C1134 1.397 . S
C1139 C1138 1.376 . S
C1140 C1124 1.509 . S
C1140 C1141 1.391 . S
C1140 C1145 1.386 . S
C1141 H1102 0.930 . S
C1141 C1140 1.391 . S
C1141 C1142 1.375 . S
C1142 H1103 0.931 . S
C1142 C1141 1.375 . S
C1142 C1143 1.375 . S
C1143 C1142 1.375 . S
C1143 C1144 1.361 . S
C1144 H1104 0.930 . S
C1144 C1143 1.361 . S
C1144 C1145 1.399 . S
C1145 H1105 0.929 . S
C1145 C1140 1.386 . S
C1145 C1144 1.399 . S
C1146 C1125 1.485 . S
C1146 C1147 1.394 . S
C1146 C1151 1.360 . S
C1147 H1106 0.931 . S
C1147 C1146 1.394 . S
C1147 C1148 1.372 . S
C1148 H1107 0.930 . S
C1148 C1147 1.372 . S
C1148 C1149 1.397 . S
C1149 C1148 1.397 . S
C1149 C1150 1.390 . S
C1149 C1165 1.476 . S
C1150 H1108 0.930 . S
C1150 C1149 1.390 . S
C1150 C1151 1.366 . S
C1151 H1109 0.932 . S
C1151 C1146 1.360 . S
C1151 C1150 1.366 . S
C1152 C1126 1.490 . S
C1152 C1153 1.380 . S
C1152 C1157 1.386 . S
C1153 H1110 0.930 . S
C1153 C1152 1.380 . S
C1153 C1154 1.381 . S
C1154 H1111 0.929 . S
C1154 C1153 1.381 . S
C1154 C1155 1.371 . S
C1155 C1154 1.371 . S
C1155 C1156 1.380 . S
C1156 H1112 0.931 . S
C1156 C1155 1.380 . S
C1156 C1157 1.387 . S
C1157 H1113 0.930 . S
C1157 C1152 1.386 . S
C1157 C1156 1.387 . S
C1158 C1127 1.519 . S
C1158 C1159 1.377 . S
C1158 C1163 1.361 . S
C1159 H1114 0.929 . S
C1159 C1158 1.377 . S
C1159 C1160 1.386 . S
C1160 H1115 0.931 . S
C1160 C1159 1.386 . S
C1160 C1161 1.363 . S
C1161 C1160 1.363 . S
C1161 C1162 1.385 . S
C1162 H1116 0.930 . S
C1162 C1161 1.385 . S
C1162 C1163 1.396 . S
C1163 H1117 0.929 . S
C1163 C1158 1.361 . S
C1163 C1162 1.396 . S
C1164 O1118 1.300 . S
C1164 O1119 1.209 . S
C1164 C1137 1.486 . S
C1165 O1120 1.199 . S
C1165 O1121 1.297 . S
C1165 C1149 1.476 . S
H1166 O1192 0.856 . S
H1167 O1195 0.854 . S
H1168 C1203 0.930 . S
H1169 C1204 0.930 . S
H1170 C1206 0.930 . S
H1171 C1207 0.930 . S
H1172 C1209 0.931 . S
H1173 C1210 0.930 . S
H1174 C1212 0.930 . S
H1175 C1213 0.929 . S
H1176 C1215 0.930 . S
H1177 C1216 0.931 . S
H1178 C1218 0.930 . S
H1179 C1219 0.929 . S
H1180 C1221 0.931 . S
H1181 C1222 0.930 . S
H1182 C1224 0.930 . S
H1183 C1225 0.932 . S
H1184 C1227 0.930 . S
H1185 C1228 0.929 . S
H1186 C1230 0.931 . S
H1187 C1231 0.930 . S
H1188 C1233 0.929 . S
H1189 C1234 0.931 . S
H1190 C1236 0.930 . S
H1191 C1237 0.929 . S
O1192 H1166 0.856 . S
O1192 C1238 1.300 . S
O1193 C1238 1.209 . S
O1194 C1239 1.199 . S
O1195 H1167 0.854 . S
O1195 C1239 1.297 . S
C1196 C1197 1.404 . S
C1196 C1201 1.397 . S
C1196 C1202 1.492 . S
C1197 C1196 1.404 . S
C1197 C1198 1.396 . S
C1197 C1208 1.492 . S
C1198 C1197 1.396 . S
C1198 C1199 1.397 . S
C1198 C1214 1.509 . S
C1199 C1198 1.397 . S
C1199 C1200 1.412 . S
C1199 C1220 1.485 . S
C1200 C1199 1.412 . S
C1200 C1201 1.388 . S
C1200 C1226 1.490 . S
C1201 C1196 1.397 . S
C1201 C1200 1.388 . S
C1201 C1232 1.519 . S
C1202 C1196 1.492 . S
C1202 C1203 1.363 . S
C1202 C1207 1.390 . S
C1203 H1168 0.930 . S
C1203 C1202 1.363 . S
C1203 C1204 1.372 . S
C1204 H1169 0.930 . S
C1204 C1203 1.372 . S
C1204 C1205 1.383 . S
C1205 C1204 1.383 . S
C1205 C1206 1.395 . S
C1206 H1170 0.930 . S
C1206 C1205 1.395 . S
C1206 C1207 1.362 . S
C1207 H1171 0.930 . S
C1207 C1202 1.390 . S
C1207 C1206 1.362 . S
C1208 C1197 1.492 . S
C1208 C1209 1.377 . S
C1208 C1213 1.397 . S
C1209 H1172 0.931 . S
C1209 C1208 1.377 . S
C1209 C1210 1.376 . S
C1210 H1173 0.930 . S
C1210 C1209 1.376 . S
C1210 C1211 1.376 . S
C1211 C1210 1.376 . S
C1211 C1212 1.378 . S
C1211 C1238 1.486 . S
C1212 H1174 0.930 . S
C1212 C1211 1.378 . S
C1212 C1213 1.376 . S
C1213 H1175 0.929 . S
C1213 C1208 1.397 . S
C1213 C1212 1.376 . S
C1214 C1198 1.509 . S
C1214 C1215 1.391 . S
C1214 C1219 1.386 . S
C1215 H1176 0.930 . S
C1215 C1214 1.391 . S
C1215 C1216 1.375 . S
C1216 H1177 0.931 . S
C1216 C1215 1.375 . S
C1216 C1217 1.375 . S
C1217 C1216 1.375 . S
C1217 C1218 1.361 . S
C1218 H1178 0.930 . S
C1218 C1217 1.361 . S
C1218 C1219 1.399 . S
C1219 H1179 0.929 . S
C1219 C1214 1.386 . S
C1219 C1218 1.399 . S
C1220 C1199 1.485 . S
C1220 C1221 1.394 . S
C1220 C1225 1.360 . S
C1221 H1180 0.931 . S
C1221 C1220 1.394 . S
C1221 C1222 1.372 . S
C1222 H1181 0.930 . S
C1222 C1221 1.372 . S
C1222 C1223 1.397 . S
C1223 C1222 1.397 . S
C1223 C1224 1.390 . S
C1223 C1239 1.476 . S
C1224 H1182 0.930 . S
C1224 C1223 1.390 . S
C1224 C1225 1.366 . S
C1225 H1183 0.932 . S
C1225 C1220 1.360 . S
C1225 C1224 1.366 . S
C1226 C1200 1.490 . S
C1226 C1227 1.380 . S
C1226 C1231 1.386 . S
C1227 H1184 0.930 . S
C1227 C1226 1.380 . S
C1227 C1228 1.381 . S
C1228 H1185 0.929 . S
C1228 C1227 1.381 . S
C1228 C1229 1.371 . S
C1229 C1228 1.371 . S
C1229 C1230 1.380 . S
C1230 H1186 0.931 . S
C1230 C1229 1.380 . S
C1230 C1231 1.387 . S
C1231 H1187 0.930 . S
C1231 C1226 1.386 . S
C1231 C1230 1.387 . S
C1232 C1201 1.519 . S
C1232 C1233 1.377 . S
C1232 C1237 1.361 . S
C1233 H1188 0.929 . S
C1233 C1232 1.377 . S
C1233 C1234 1.386 . S
C1234 H1189 0.931 . S
C1234 C1233 1.386 . S
C1234 C1235 1.363 . S
C1235 C1234 1.363 . S
C1235 C1236 1.385 . S
C1236 H1190 0.930 . S
C1236 C1235 1.385 . S
C1236 C1237 1.396 . S
C1237 H1191 0.929 . S
C1237 C1232 1.361 . S
C1237 C1236 1.396 . S
C1238 O1192 1.300 . S
C1238 O1193 1.209 . S
C1238 C1211 1.486 . S
C1239 O1194 1.199 . S
C1239 O1195 1.297 . S
C1239 C1223 1.476 . S
H1240 O1266 0.856 . S
H1241 O1269 0.854 . S
H1242 C1277 0.930 . S
H1243 C1278 0.930 . S
H1244 C1280 0.930 . S
H1245 C1281 0.930 . S
H1246 C1283 0.931 . S
H1247 C1284 0.930 . S
H1248 C1286 0.930 . S
H1249 C1287 0.929 . S
H1250 C1289 0.930 . S
H1251 C1290 0.931 . S
H1252 C1292 0.930 . S
H1253 C1293 0.929 . S
H1254 C1295 0.931 . S
H1255 C1296 0.930 . S
H1256 C1298 0.930 . S
H1257 C1299 0.932 . S
H1258 C1301 0.930 . S
H1259 C1302 0.929 . S
H1260 C1304 0.931 . S
H1261 C1305 0.930 . S
H1262 C1307 0.929 . S
H1263 C1308 0.931 . S
H1264 C1310 0.930 . S
H1265 C1311 0.929 . S
O1266 H1240 0.856 . S
O1266 C1312 1.300 . S
O1267 C1312 1.209 . S
O1268 C1313 1.199 . S
O1269 H1241 0.854 . S
O1269 C1313 1.297 . S
C1270 C1271 1.404 . S
C1270 C1275 1.397 . S
C1270 C1276 1.492 . S
C1271 C1270 1.404 . S
C1271 C1272 1.396 . S
C1271 C1282 1.492 . S
C1272 C1271 1.396 . S
C1272 C1273 1.397 . S
C1272 C1288 1.509 . S
C1273 C1272 1.397 . S
C1273 C1274 1.412 . S
C1273 C1294 1.485 . S
C1274 C1273 1.412 . S
C1274 C1275 1.388 . S
C1274 C1300 1.490 . S
C1275 C1270 1.397 . S
C1275 C1274 1.388 . S
C1275 C1306 1.519 . S
C1276 C1270 1.492 . S
C1276 C1277 1.363 . S
C1276 C1281 1.390 . S
C1277 H1242 0.930 . S
C1277 C1276 1.363 . S
C1277 C1278 1.372 . S
C1278 H1243 0.930 . S
C1278 C1277 1.372 . S
C1278 C1279 1.383 . S
C1279 C1278 1.383 . S
C1279 C1280 1.395 . S
C1280 H1244 0.930 . S
C1280 C1279 1.395 . S
C1280 C1281 1.362 . S
C1281 H1245 0.930 . S
C1281 C1276 1.390 . S
C1281 C1280 1.362 . S
C1282 C1271 1.492 . S
C1282 C1283 1.377 . S
C1282 C1287 1.397 . S
C1283 H1246 0.931 . S
C1283 C1282 1.377 . S
C1283 C1284 1.376 . S
C1284 H1247 0.930 . S
C1284 C1283 1.376 . S
C1284 C1285 1.376 . S
C1285 C1284 1.376 . S
C1285 C1286 1.378 . S
C1285 C1312 1.486 . S
C1286 H1248 0.930 . S
C1286 C1285 1.378 . S
C1286 C1287 1.376 . S
C1287 H1249 0.929 . S
C1287 C1282 1.397 . S
C1287 C1286 1.376 . S
C1288 C1272 1.509 . S
C1288 C1289 1.391 . S
C1288 C1293 1.386 . S
C1289 H1250 0.930 . S
C1289 C1288 1.391 . S
C1289 C1290 1.375 . S
C1290 H1251 0.931 . S
C1290 C1289 1.375 . S
C1290 C1291 1.375 . S
C1291 C1290 1.375 . S
C1291 C1292 1.361 . S
C1292 H1252 0.930 . S
C1292 C1291 1.361 . S
C1292 C1293 1.399 . S
C1293 H1253 0.929 . S
C1293 C1288 1.386 . S
C1293 C1292 1.399 . S
C1294 C1273 1.485 . S
C1294 C1295 1.394 . S
C1294 C1299 1.360 . S
C1295 H1254 0.931 . S
C1295 C1294 1.394 . S
C1295 C1296 1.372 . S
C1296 H1255 0.930 . S
C1296 C1295 1.372 . S
C1296 C1297 1.397 . S
C1297 C1296 1.397 . S
C1297 C1298 1.390 . S
C1297 C1313 1.476 . S
C1298 H1256 0.930 . S
C1298 C1297 1.390 . S
C1298 C1299 1.366 . S
C1299 H1257 0.932 . S
C1299 C1294 1.360 . S
C1299 C1298 1.366 . S
C1300 C1274 1.490 . S
C1300 C1301 1.380 . S
C1300 C1305 1.386 . S
C1301 H1258 0.930 . S
C1301 C1300 1.380 . S
C1301 C1302 1.381 . S
C1302 H1259 0.929 . S
C1302 C1301 1.381 . S
C1302 C1303 1.371 . S
C1303 C1302 1.371 . S
C1303 C1304 1.380 . S
C1304 H1260 0.931 . S
C1304 C1303 1.380 . S
C1304 C1305 1.387 . S
C1305 H1261 0.930 . S
C1305 C1300 1.386 . S
C1305 C1304 1.387 . S
C1306 C1275 1.519 . S
C1306 C1307 1.377 . S
C1306 C1311 1.361 . S
C1307 H1262 0.929 . S
C1307 C1306 1.377 . S
C1307 C1308 1.386 . S
C1308 H1263 0.931 . S
C1308 C1307 1.386 . S
C1308 C1309 1.363 . S
C1309 C1308 1.363 . S
C1309 C1310 1.385 . S
C1310 H1264 0.930 . S
C1310 C1309 1.385 . S
C1310 C1311 1.396 . S
C1311 H1265 0.929 . S
C1311 C1306 1.361 . S
C1311 C1310 1.396 . S
C1312 O1266 1.300 . S
C1312 O1267 1.209 . S
C1312 C1285 1.486 . S
C1313 O1268 1.199 . S
C1313 O1269 1.297 . S
C1313 C1297 1.476 . S
H1314 O1340 0.856 . S
H1315 O1343 0.854 . S
H1316 C1351 0.930 . S
H1317 C1352 0.930 . S
H1318 C1354 0.930 . S
H1319 C1355 0.930 . S
H1320 C1357 0.931 . S
H1321 C1358 0.922 1_655 S
H1322 C1360 0.930 . S
H1323 C1361 0.929 . S
H1324 C1363 0.930 . S
H1325 C1364 0.937 . S
H1326 C1366 0.930 . S
H1327 C1367 0.929 . S
H1328 C1369 0.931 . S
H1329 C1370 0.930 . S
H1330 C1372 0.930 . S
H1331 C1373 0.932 . S
H1332 C1375 0.930 . S
H1333 C1376 0.929 . S
H1334 C1378 0.931 . S
H1335 C1379 0.930 . S
H1336 C1381 0.929 . S
H1337 C1382 0.931 . S
H1338 C1384 0.930 . S
H1339 C1385 0.929 . S
O1340 H1314 0.856 . S
O1340 C1386 1.300 . S
O1341 C1386 1.209 . S
O1342 C1387 1.199 1_655 S
O1343 H1315 0.854 . S
O1343 C1387 1.297 . S
C1344 C1345 1.404 . S
C1344 C1349 1.394 . S
C1344 C1350 1.492 . S
C1345 C1344 1.404 . S
C1345 C1346 1.396 . S
C1345 C1356 1.492 . S
C1346 C1345 1.396 . S
C1346 C1347 1.397 . S
C1346 C1362 1.509 . S
C1347 C1346 1.397 . S
C1347 C1348 1.421 . S
C1347 C1368 1.485 . S
C1348 C1347 1.421 . S
C1348 C1349 1.404 . S
C1348 C1374 1.491 1_455 S
C1349 C1344 1.394 . S
C1349 C1348 1.404 . S
C1349 C1380 1.498 1_455 S
C1350 C1344 1.492 . S
C1350 C1351 1.363 1_455 S
C1350 C1355 1.390 . S
C1351 H1316 0.930 . S
C1351 C1350 1.363 1_655 S
C1351 C1352 1.372 . S
C1352 H1317 0.930 . S
C1352 C1351 1.372 . S
C1352 C1353 1.383 . S
C1353 C1352 1.383 . S
C1353 C1354 1.395 1_655 S
C1354 H1318 0.930 . S
C1354 C1353 1.395 1_455 S
C1354 C1355 1.362 . S
C1355 H1319 0.930 . S
C1355 C1350 1.390 . S
C1355 C1354 1.362 . S
C1356 C1345 1.492 . S
C1356 C1357 1.377 1_455 S
C1356 C1361 1.397 . S
C1357 H1320 0.931 . S
C1357 C1356 1.377 1_655 S
C1357 C1358 1.377 1_655 S
C1358 H1321 0.922 1_455 S
C1358 C1357 1.377 1_455 S
C1358 C1359 1.383 . S
C1359 C1358 1.383 . S
C1359 C1360 1.378 . S
C1359 C1386 1.486 . S
C1360 H1322 0.930 . S
C1360 C1359 1.378 . S
C1360 C1361 1.376 . S
C1361 H1323 0.929 . S
C1361 C1356 1.397 . S
C1361 C1360 1.376 . S
C1362 C1346 1.509 . S
C1362 C1363 1.391 1_455 S
C1362 C1367 1.386 . S
C1363 H1324 0.930 . S
C1363 C1362 1.391 1_655 S
C1363 C1364 1.382 . S
C1364 H1325 0.937 . S
C1364 C1363 1.382 . S
C1364 C1365 1.362 1_655 S
C1365 C1364 1.362 1_455 S
C1365 C1366 1.361 . S
C1366 H1326 0.930 . S
C1366 C1365 1.361 . S
C1366 C1367 1.399 . S
C1367 H1327 0.929 . S
C1367 C1362 1.386 . S
C1367 C1366 1.399 . S
C1368 C1347 1.485 . S
C1368 C1369 1.394 1_455 S
C1368 C1373 1.360 . S
C1369 H1328 0.931 . S
C1369 C1368 1.394 1_655 S
C1369 C1370 1.372 . S
C1370 H1329 0.930 . S
C1370 C1369 1.372 . S
C1370 C1371 1.397 1_655 S
C1371 C1370 1.397 1_455 S
C1371 C1372 1.390 . S
C1371 C1387 1.476 . S
C1372 H1330 0.930 . S
C1372 C1371 1.390 . S
C1372 C1373 1.366 . S
C1373 H1331 0.932 . S
C1373 C1368 1.360 . S
C1373 C1372 1.366 . S
C1374 C1348 1.491 1_655 S
C1374 C1375 1.380 . S
C1374 C1379 1.386 1_655 S
C1375 H1332 0.930 . S
C1375 C1374 1.380 . S
C1375 C1376 1.381 . S
C1376 H1333 0.929 . S
C1376 C1375 1.381 . S
C1376 C1377 1.371 . S
C1377 C1376 1.371 . S
C1377 C1378 1.380 1_655 S
C1378 H1334 0.931 . S
C1378 C1377 1.380 1_455 S
C1378 C1379 1.387 . S
C1379 H1335 0.930 . S
C1379 C1374 1.386 1_455 S
C1379 C1378 1.387 . S
C1380 C1349 1.498 1_655 S
C1380 C1381 1.387 . S
C1380 C1385 1.354 1_655 S
C1381 H1336 0.929 . S
C1381 C1380 1.387 . S
C1381 C1382 1.386 . S
C1382 H1337 0.931 . S
C1382 C1381 1.386 . S
C1382 C1383 1.354 1_655 S
C1383 C1382 1.354 1_455 S
C1383 C1384 1.398 . S
C1384 H1338 0.930 . S
C1384 C1383 1.398 . S
C1384 C1385 1.396 . S
C1385 H1339 0.929 . S
C1385 C1380 1.354 1_455 S
C1385 C1384 1.396 . S
C1386 O1340 1.300 . S
C1386 O1341 1.209 . S
C1386 C1359 1.486 . S
C1387 O1342 1.199 1_455 S
C1387 O1343 1.297 . S
C1387 C1371 1.476 . S
H1388 O1414 0.856 . S
H1389 O1417 0.854 . S
H1390 C1425 0.930 . S
H1391 C1426 0.930 . S
H1392 C1428 0.930 . S
H1393 C1429 0.930 . S
H1394 C1431 0.931 . S
H1395 C1432 0.930 . S
H1396 C1434 0.930 . S
H1397 C1435 0.929 . S
H1398 C1437 0.930 . S
H1399 C1438 0.931 . S
H1400 C1440 0.930 . S
H1401 C1441 0.929 . S
H1402 C1443 0.931 . S
H1403 C1444 0.930 . S
H1404 C1446 0.930 . S
H1405 C1447 0.932 . S
H1406 C1449 0.930 . S
H1407 C1450 0.929 . S
H1408 C1452 0.931 . S
H1409 C1453 0.930 . S
H1410 C1455 0.929 . S
H1411 C1456 0.931 . S
H1412 C1458 0.930 . S
H1413 C1459 0.929 . S
O1414 H1388 0.856 . S
O1414 C1460 1.300 . S
O1415 C1460 1.209 . S
O1416 C1461 1.199 . S
O1417 H1389 0.854 . S
O1417 C1461 1.297 . S
C1418 C1419 1.404 . S
C1418 C1423 1.397 . S
C1418 C1424 1.492 . S
C1419 C1418 1.404 . S
C1419 C1420 1.396 . S
C1419 C1430 1.492 . S
C1420 C1419 1.396 . S
C1420 C1421 1.397 . S
C1420 C1436 1.509 . S
C1421 C1420 1.397 . S
C1421 C1422 1.412 . S
C1421 C1442 1.485 . S
C1422 C1421 1.412 . S
C1422 C1423 1.388 . S
C1422 C1448 1.490 . S
C1423 C1418 1.397 . S
C1423 C1422 1.388 . S
C1423 C1454 1.519 . S
C1424 C1418 1.492 . S
C1424 C1425 1.363 . S
C1424 C1429 1.390 . S
C1425 H1390 0.930 . S
C1425 C1424 1.363 . S
C1425 C1426 1.372 . S
C1426 H1391 0.930 . S
C1426 C1425 1.372 . S
C1426 C1427 1.383 . S
C1427 C1426 1.383 . S
C1427 C1428 1.395 . S
C1428 H1392 0.930 . S
C1428 C1427 1.395 . S
C1428 C1429 1.362 . S
C1429 H1393 0.930 . S
C1429 C1424 1.390 . S
C1429 C1428 1.362 . S
C1430 C1419 1.492 . S
C1430 C1431 1.377 . S
C1430 C1435 1.397 . S
C1431 H1394 0.931 . S
C1431 C1430 1.377 . S
C1431 C1432 1.376 . S
C1432 H1395 0.930 . S
C1432 C1431 1.376 . S
C1432 C1433 1.376 . S
C1433 C1432 1.376 . S
C1433 C1434 1.378 . S
C1433 C1460 1.486 . S
C1434 H1396 0.930 . S
C1434 C1433 1.378 . S
C1434 C1435 1.376 . S
C1435 H1397 0.929 . S
C1435 C1430 1.397 . S
C1435 C1434 1.376 . S
C1436 C1420 1.509 . S
C1436 C1437 1.391 . S
C1436 C1441 1.386 . S
C1437 H1398 0.930 . S
C1437 C1436 1.391 . S
C1437 C1438 1.375 . S
C1438 H1399 0.931 . S
C1438 C1437 1.375 . S
C1438 C1439 1.375 . S
C1439 C1438 1.375 . S
C1439 C1440 1.361 . S
C1440 H1400 0.930 . S
C1440 C1439 1.361 . S
C1440 C1441 1.399 . S
C1441 H1401 0.929 . S
C1441 C1436 1.386 . S
C1441 C1440 1.399 . S
C1442 C1421 1.485 . S
C1442 C1443 1.394 . S
C1442 C1447 1.360 . S
C1443 H1402 0.931 . S
C1443 C1442 1.394 . S
C1443 C1444 1.372 . S
C1444 H1403 0.930 . S
C1444 C1443 1.372 . S
C1444 C1445 1.397 . S
C1445 C1444 1.397 . S
C1445 C1446 1.390 . S
C1445 C1461 1.476 . S
C1446 H1404 0.930 . S
C1446 C1445 1.390 . S
C1446 C1447 1.366 . S
C1447 H1405 0.932 . S
C1447 C1442 1.360 . S
C1447 C1446 1.366 . S
C1448 C1422 1.490 . S
C1448 C1449 1.380 . S
C1448 C1453 1.386 . S
C1449 H1406 0.930 . S
C1449 C1448 1.380 . S
C1449 C1450 1.381 . S
C1450 H1407 0.929 . S
C1450 C1449 1.381 . S
C1450 C1451 1.371 . S
C1451 C1450 1.371 . S
C1451 C1452 1.380 . S
C1452 H1408 0.931 . S
C1452 C1451 1.380 . S
C1452 C1453 1.387 . S
C1453 H1409 0.930 . S
C1453 C1448 1.386 . S
C1453 C1452 1.387 . S
C1454 C1423 1.519 . S
C1454 C1455 1.377 . S
C1454 C1459 1.361 . S
C1455 H1410 0.929 . S
C1455 C1454 1.377 . S
C1455 C1456 1.386 . S
C1456 H1411 0.931 . S
C1456 C1455 1.386 . S
C1456 C1457 1.363 . S
C1457 C1456 1.363 . S
C1457 C1458 1.385 . S
C1458 H1412 0.930 . S
C1458 C1457 1.385 . S
C1458 C1459 1.396 . S
C1459 H1413 0.929 . S
C1459 C1454 1.361 . S
C1459 C1458 1.396 . S
C1460 O1414 1.300 . S
C1460 O1415 1.209 . S
C1460 C1433 1.486 . S
C1461 O1416 1.199 . S
C1461 O1417 1.297 . S
C1461 C1445 1.476 . S
H1462 O1488 0.856 . S
H1463 O1491 0.854 . S
H1464 C1499 0.930 . S
H1465 C1500 0.930 . S
H1466 C1502 0.930 . S
H1467 C1503 0.930 . S
H1468 C1505 0.931 . S
H1469 C1506 0.960 . S
H1470 C1508 0.930 . S
H1471 C1509 0.929 . S
H1472 C1511 0.930 . S
H1473 C1512 1.006 . S
H1474 C1514 0.930 . S
H1475 C1515 0.929 . S
H1476 C1517 0.931 . S
H1477 C1518 0.930 . S
H1478 C1520 0.930 . S
H1479 C1521 0.932 . S
H1480 C1523 0.930 . S
H1481 C1524 0.929 . S
H1482 C1526 0.931 . S
H1483 C1527 0.930 . S
H1484 C1529 0.929 . S
H1485 C1530 0.931 . S
H1486 C1532 0.930 . S
H1487 C1533 0.929 . S
O1488 H1462 0.856 . S
O1488 C1534 1.300 . S
O1489 C1534 1.209 . S
O1490 C1535 1.199 1_545 S
O1491 H1463 0.854 . S
O1491 C1535 1.297 . S
C1492 C1493 1.404 . S
C1492 C1497 1.412 . S
C1492 C1498 1.492 . S
C1493 C1492 1.404 . S
C1493 C1494 1.396 . S
C1493 C1504 1.492 . S
C1494 C1493 1.396 . S
C1494 C1495 1.397 . S
C1494 C1510 1.509 . S
C1495 C1494 1.397 . S
C1495 C1496 1.409 . S
C1495 C1516 1.485 . S
C1496 C1495 1.409 . S
C1496 C1497 1.374 . S
C1496 C1522 1.484 1_565 S
C1497 C1492 1.412 . S
C1497 C1496 1.374 . S
C1497 C1528 1.533 1_565 S
C1498 C1492 1.492 . S
C1498 C1499 1.363 1_565 S
C1498 C1503 1.390 . S
C1499 H1464 0.930 . S
C1499 C1498 1.363 1_545 S
C1499 C1500 1.372 . S
C1500 H1465 0.930 . S
C1500 C1499 1.372 . S
C1500 C1501 1.383 . S
C1501 C1500 1.383 . S
C1501 C1502 1.395 1_545 S
C1502 H1466 0.930 . S
C1502 C1501 1.395 1_565 S
C1502 C1503 1.362 . S
C1503 H1467 0.930 . S
C1503 C1498 1.390 . S
C1503 C1502 1.362 . S
C1504 C1493 1.492 . S
C1504 C1505 1.377 1_565 S
C1504 C1509 1.397 . S
C1505 H1468 0.931 . S
C1505 C1504 1.377 1_545 S
C1505 C1506 1.390 . S
C1506 H1469 0.960 . S
C1506 C1505 1.390 . S
C1506 C1507 1.333 1_545 S
C1507 C1506 1.333 1_565 S
C1507 C1508 1.378 . S
C1507 C1534 1.486 . S
C1508 H1470 0.930 . S
C1508 C1507 1.378 . S
C1508 C1509 1.376 . S
C1509 H1471 0.929 . S
C1509 C1504 1.397 . S
C1509 C1508 1.376 . S
C1510 C1494 1.509 . S
C1510 C1511 1.391 1_565 S
C1510 C1515 1.386 . S
C1511 H1472 0.930 . S
C1511 C1510 1.391 1_545 S
C1511 C1512 1.364 . S
C1512 H1473 1.006 . S
C1512 C1511 1.364 . S
C1512 C1513 1.316 1_545 S
C1513 C1512 1.316 1_565 S
C1513 C1514 1.361 . S
C1514 H1474 0.930 . S
C1514 C1513 1.361 . S
C1514 C1515 1.399 . S
C1515 H1475 0.929 . S
C1515 C1510 1.386 . S
C1515 C1514 1.399 . S
C1516 C1495 1.485 . S
C1516 C1517 1.394 1_565 S
C1516 C1521 1.360 . S
C1517 H1476 0.931 . S
C1517 C1516 1.394 1_545 S
C1517 C1518 1.372 . S
C1518 H1477 0.930 . S
C1518 C1517 1.372 . S
C1518 C1519 1.397 1_545 S
C1519 C1518 1.397 1_565 S
C1519 C1520 1.390 . S
C1519 C1535 1.476 . S
C1520 H1478 0.930 . S
C1520 C1519 1.390 . S
C1520 C1521 1.366 . S
C1521 H1479 0.932 . S
C1521 C1516 1.360 . S
C1521 C1520 1.366 . S
C1522 C1496 1.484 1_545 S
C1522 C1523 1.380 . S
C1522 C1527 1.386 1_545 S
C1523 H1480 0.930 . S
C1523 C1522 1.380 . S
C1523 C1524 1.381 . S
C1524 H1481 0.929 . S
C1524 C1523 1.381 . S
C1524 C1525 1.371 . S
C1525 C1524 1.371 . S
C1525 C1526 1.380 1_545 S
C1526 H1482 0.931 . S
C1526 C1525 1.380 1_565 S
C1526 C1527 1.387 . S
C1527 H1483 0.930 . S
C1527 C1522 1.386 1_565 S
C1527 C1526 1.387 . S
C1528 C1497 1.533 1_545 S
C1528 C1529 1.376 . S
C1528 C1533 1.363 1_545 S
C1529 H1484 0.929 . S
C1529 C1528 1.376 . S
C1529 C1530 1.386 . S
C1530 H1485 0.931 . S
C1530 C1529 1.386 . S
C1530 C1531 1.324 1_545 S
C1531 C1530 1.324 1_565 S
C1531 C1532 1.406 . S
C1532 H1486 0.930 . S
C1532 C1531 1.406 . S
C1532 C1533 1.396 . S
C1533 H1487 0.929 . S
C1533 C1528 1.363 1_565 S
C1533 C1532 1.396 . S
C1534 O1488 1.300 . S
C1534 O1489 1.209 . S
C1534 C1507 1.486 . S
C1535 O1490 1.199 1_565 S
C1535 O1491 1.297 . S
C1535 C1519 1.476 . S
H1536 O1562 0.856 . S
H1537 O1565 0.854 . S
H1538 C1573 0.930 . S
H1539 C1574 0.930 . S
H1540 C1576 0.930 . S
H1541 C1577 0.930 . S
H1542 C1579 0.931 . S
H1543 C1580 0.930 . S
H1544 C1582 0.930 . S
H1545 C1583 0.929 . S
H1546 C1585 0.930 . S
H1547 C1586 0.931 . S
H1548 C1588 0.930 . S
H1549 C1589 0.929 . S
H1550 C1591 0.931 . S
H1551 C1592 0.930 . S
H1552 C1594 0.930 . S
H1553 C1595 0.932 . S
H1554 C1597 0.930 . S
H1555 C1598 0.929 . S
H1556 C1600 0.931 . S
H1557 C1601 0.930 . S
H1558 C1603 0.929 . S
H1559 C1604 0.931 . S
H1560 C1606 0.930 . S
H1561 C1607 0.929 . S
O1562 H1536 0.856 . S
O1562 C1608 1.300 . S
O1563 C1608 1.209 1_565 S
O1564 C1609 1.199 1_545 S
O1565 H1537 0.854 . S
O1565 C1609 1.297 . S
C1566 C1567 1.380 . S
C1566 C1571 1.380 1_545 S
C1566 C1572 1.543 . S
C1567 C1566 1.380 . S
C1567 C1568 1.426 . S
C1567 C1578 1.492 . S
C1568 C1567 1.426 . S
C1568 C1569 1.384 1_545 S
C1568 C1584 1.504 . S
C1569 C1568 1.384 1_565 S
C1569 C1570 1.416 . S
C1569 C1590 1.446 . S
C1570 C1569 1.416 . S
C1570 C1571 1.375 . S
C1570 C1596 1.491 . S
C1571 C1566 1.380 1_565 S
C1571 C1570 1.375 . S
C1571 C1602 1.520 . S
C1572 C1566 1.543 . S
C1572 C1573 1.363 . S
C1572 C1577 1.390 1_545 S
C1573 H1538 0.930 . S
C1573 C1572 1.363 . S
C1573 C1574 1.372 . S
C1574 H1539 0.930 . S
C1574 C1573 1.372 . S
C1574 C1575 1.383 . S
C1575 C1574 1.383 . S
C1575 C1576 1.395 1_545 S
C1576 H1540 0.930 . S
C1576 C1575 1.395 1_565 S
C1576 C1577 1.362 . S
C1577 H1541 0.930 . S
C1577 C1572 1.390 1_565 S
C1577 C1576 1.362 . S
C1578 C1567 1.492 . S
C1578 C1579 1.377 . S
C1578 C1583 1.397 1_545 S
C1579 H1542 0.931 . S
C1579 C1578 1.377 . S
C1579 C1580 1.376 . S
C1580 H1543 0.930 . S
C1580 C1579 1.376 . S
C1580 C1581 1.376 . S
C1581 C1580 1.376 . S
C1581 C1582 1.378 1_545 S
C1581 C1608 1.486 . S
C1582 H1544 0.930 . S
C1582 C1581 1.378 1_565 S
C1582 C1583 1.376 . S
C1583 H1545 0.929 . S
C1583 C1578 1.397 1_565 S
C1583 C1582 1.376 . S
C1584 C1568 1.504 . S
C1584 C1585 1.409 . S
C1584 C1589 1.357 1_545 S
C1585 H1546 0.930 . S
C1585 C1584 1.409 . S
C1585 C1586 1.375 . S
C1586 H1547 0.931 . S
C1586 C1585 1.375 . S
C1586 C1587 1.377 . S
C1587 C1586 1.377 . S
C1587 C1588 1.360 1_545 S
C1588 H1548 0.930 . S
C1588 C1587 1.360 1_565 S
C1588 C1589 1.399 . S
C1589 H1549 0.929 . S
C1589 C1584 1.357 1_565 S
C1589 C1588 1.399 . S
C1590 C1569 1.446 . S
C1590 C1591 1.362 1_565 S
C1590 C1595 1.441 . S
C1591 H1550 0.931 . S
C1591 C1590 1.362 1_545 S
C1591 C1592 1.372 . S
C1592 H1551 0.930 . S
C1592 C1591 1.372 . S
C1592 C1593 1.397 1_545 S
C1593 C1592 1.397 1_565 S
C1593 C1594 1.390 . S
C1593 C1609 1.476 . S
C1594 H1552 0.930 . S
C1594 C1593 1.390 . S
C1594 C1595 1.366 . S
C1595 H1553 0.932 . S
C1595 C1590 1.441 . S
C1595 C1594 1.366 . S
C1596 C1570 1.491 . S
C1596 C1597 1.369 1_565 S
C1596 C1601 1.400 . S
C1597 H1554 0.930 . S
C1597 C1596 1.369 1_545 S
C1597 C1598 1.381 . S
C1598 H1555 0.929 . S
C1598 C1597 1.381 . S
C1598 C1599 1.447 . S
C1599 C1598 1.447 . S
C1599 C1600 1.316 1_545 S
C1600 H1556 0.931 . S
C1600 C1599 1.316 1_565 S
C1600 C1601 1.387 . S
C1601 H1557 0.930 . S
C1601 C1596 1.400 . S
C1601 C1600 1.387 . S
C1602 C1571 1.520 . S
C1602 C1603 1.377 1_565 S
C1602 C1607 1.361 . S
C1603 H1558 0.929 . S
C1603 C1602 1.377 1_545 S
C1603 C1604 1.386 . S
C1604 H1559 0.931 . S
C1604 C1603 1.386 . S
C1604 C1605 1.363 1_545 S
C1605 C1604 1.363 1_565 S
C1605 C1606 1.385 . S
C1606 H1560 0.930 . S
C1606 C1605 1.385 . S
C1606 C1607 1.396 . S
C1607 H1561 0.929 . S
C1607 C1602 1.361 . S
C1607 C1606 1.396 . S
C1608 O1562 1.300 . S
C1608 O1563 1.209 1_545 S
C1608 C1581 1.486 . S
C1609 O1564 1.199 1_565 S
C1609 O1565 1.297 . S
C1609 C1593 1.476 . S
H1610 O1636 0.856 . S
H1611 O1639 0.854 . S
H1612 C1647 0.930 . S
H1613 C1648 0.930 . S
H1614 C1650 0.930 . S
H1615 C1651 0.930 . S
H1616 C1653 0.931 . S
H1617 C1654 0.930 . S
H1618 C1656 0.930 . S
H1619 C1657 0.929 . S
H1620 C1659 0.930 . S
H1621 C1660 0.931 . S
H1622 C1662 0.930 . S
H1623 C1663 0.929 . S
H1624 C1665 0.931 . S
H1625 C1666 0.930 . S
H1626 C1668 0.930 . S
H1627 C1669 0.932 . S
H1628 C1671 0.930 . S
H1629 C1672 0.929 . S
H1630 C1674 0.931 . S
H1631 C1675 0.930 . S
H1632 C1677 0.929 . S
H1633 C1678 0.931 . S
H1634 C1680 0.930 . S
H1635 C1681 0.929 . S
O1636 H1610 0.856 . S
O1636 C1682 1.300 . S
O1637 C1682 1.209 1_455 S
O1638 C1683 1.199 1_655 S
O1639 H1611 0.854 . S
O1639 C1683 1.297 . S
C1640 C1641 1.404 . S
C1640 C1645 1.396 1_655 S
C1640 C1646 1.492 . S
C1641 C1640 1.404 . S
C1641 C1642 1.396 . S
C1641 C1652 1.492 . S
C1642 C1641 1.396 . S
C1642 C1643 1.398 1_655 S
C1642 C1658 1.509 . S
C1643 C1642 1.398 1_455 S
C1643 C1644 1.397 . S
C1643 C1664 1.484 . S
C1644 C1643 1.397 . S
C1644 C1645 1.416 . S
C1644 C1670 1.484 . S
C1645 C1640 1.396 1_455 S
C1645 C1644 1.416 . S
C1645 C1676 1.515 . S
C1646 C1640 1.492 . S
C1646 C1647 1.363 . S
C1646 C1651 1.390 1_655 S
C1647 H1612 0.930 . S
C1647 C1646 1.363 . S
C1647 C1648 1.372 . S
C1648 H1613 0.930 . S
C1648 C1647 1.372 . S
C1648 C1649 1.383 . S
C1649 C1648 1.383 . S
C1649 C1650 1.395 1_655 S
C1650 H1614 0.930 . S
C1650 C1649 1.395 1_455 S
C1650 C1651 1.362 . S
C1651 H1615 0.930 . S
C1651 C1646 1.390 1_455 S
C1651 C1650 1.362 . S
C1652 C1641 1.492 . S
C1652 C1653 1.377 . S
C1652 C1657 1.397 1_655 S
C1653 H1616 0.931 . S
C1653 C1652 1.377 . S
C1653 C1654 1.376 . S
C1654 H1617 0.930 . S
C1654 C1653 1.376 . S
C1654 C1655 1.376 . S
C1655 C1654 1.376 . S
C1655 C1656 1.378 1_655 S
C1655 C1682 1.486 . S
C1656 H1618 0.930 . S
C1656 C1655 1.378 1_455 S
C1656 C1657 1.376 . S
C1657 H1619 0.929 . S
C1657 C1652 1.397 1_455 S
C1657 C1656 1.376 . S
C1658 C1642 1.509 . S
C1658 C1659 1.391 . S
C1658 C1663 1.386 1_655 S
C1659 H1620 0.930 . S
C1659 C1658 1.391 . S
C1659 C1660 1.375 . S
C1660 H1621 0.931 . S
C1660 C1659 1.375 . S
C1660 C1661 1.375 . S
C1661 C1660 1.375 . S
C1661 C1662 1.361 1_655 S
C1662 H1622 0.930 . S
C1662 C1661 1.361 1_455 S
C1662 C1663 1.399 . S
C1663 H1623 0.929 . S
C1663 C1658 1.386 1_455 S
C1663 C1662 1.399 . S
C1664 C1643 1.484 . S
C1664 C1665 1.394 1_455 S
C1664 C1669 1.360 . S
C1665 H1624 0.931 . S
C1665 C1664 1.394 1_655 S
C1665 C1666 1.372 . S
C1666 H1625 0.930 . S
C1666 C1665 1.372 . S
C1666 C1667 1.397 1_655 S
C1667 C1666 1.397 1_455 S
C1667 C1668 1.390 . S
C1667 C1683 1.476 . S
C1668 H1626 0.930 . S
C1668 C1667 1.390 . S
C1668 C1669 1.366 . S
C1669 H1627 0.932 . S
C1669 C1664 1.360 . S
C1669 C1668 1.366 . S
C1670 C1644 1.484 . S
C1670 C1671 1.380 1_455 S
C1670 C1675 1.386 . S
C1671 H1628 0.930 . S
C1671 C1670 1.380 1_655 S
C1671 C1672 1.381 . S
C1672 H1629 0.929 . S
C1672 C1671 1.381 . S
C1672 C1673 1.371 1_655 S
C1673 C1672 1.371 1_455 S
C1673 C1674 1.380 . S
C1674 H1630 0.931 . S
C1674 C1673 1.380 . S
C1674 C1675 1.387 . S
C1675 H1631 0.930 . S
C1675 C1670 1.386 . S
C1675 C1674 1.387 . S
C1676 C1645 1.515 . S
C1676 C1677 1.377 1_455 S
C1676 C1681 1.361 . S
C1677 H1632 0.929 . S
C1677 C1676 1.377 1_655 S
C1677 C1678 1.386 . S
C1678 H1633 0.931 . S
C1678 C1677 1.386 . S
C1678 C1679 1.363 1_655 S
C1679 C1678 1.363 1_455 S
C1679 C1680 1.385 . S
C1680 H1634 0.930 . S
C1680 C1679 1.385 . S
C1680 C1681 1.396 . S
C1681 H1635 0.929 . S
C1681 C1676 1.361 . S
C1681 C1680 1.396 . S
C1682 O1636 1.300 . S
C1682 O1637 1.209 1_655 S
C1682 C1655 1.486 . S
C1683 O1638 1.199 1_455 S
C1683 O1639 1.297 . S
C1683 C1667 1.476 . S
H1684 O1710 0.856 . S
H1685 O1713 0.854 . S
H1686 C1721 0.930 . S
H1687 C1722 0.930 . S
H1688 C1724 0.930 . S
H1689 C1725 0.930 . S
H1690 C1727 0.931 . S
H1691 C1728 0.930 . S
H1692 C1730 0.930 . S
H1693 C1731 0.929 . S
H1694 C1733 0.930 . S
H1695 C1734 0.931 . S
H1696 C1736 0.930 . S
H1697 C1737 0.929 . S
H1698 C1739 0.931 . S
H1699 C1740 0.930 . S
H1700 C1742 0.930 . S
H1701 C1743 0.932 . S
H1702 C1745 0.930 . S
H1703 C1746 0.929 . S
H1704 C1748 0.931 . S
H1705 C1749 0.930 . S
H1706 C1751 0.929 . S
H1707 C1752 0.931 . S
H1708 C1754 0.930 . S
H1709 C1755 0.929 . S
O1710 H1684 0.856 . S
O1710 C1756 1.300 . S
O1711 C1756 1.209 . S
O1712 C1757 1.199 . S
O1713 H1685 0.854 . S
O1713 C1757 1.297 . S
C1714 C1715 1.404 . S
C1714 C1719 1.397 . S
C1714 C1720 1.492 . S
C1715 C1714 1.404 . S
C1715 C1716 1.396 . S
C1715 C1726 1.492 . S
C1716 C1715 1.396 . S
C1716 C1717 1.397 . S
C1716 C1732 1.509 . S
C1717 C1716 1.397 . S
C1717 C1718 1.412 . S
C1717 C1738 1.485 . S
C1718 C1717 1.412 . S
C1718 C1719 1.388 . S
C1718 C1744 1.490 . S
C1719 C1714 1.397 . S
C1719 C1718 1.388 . S
C1719 C1750 1.519 . S
C1720 C1714 1.492 . S
C1720 C1721 1.363 . S
C1720 C1725 1.390 . S
C1721 H1686 0.930 . S
C1721 C1720 1.363 . S
C1721 C1722 1.372 . S
C1722 H1687 0.930 . S
C1722 C1721 1.372 . S
C1722 C1723 1.383 . S
C1723 C1722 1.383 . S
C1723 C1724 1.395 . S
C1724 H1688 0.930 . S
C1724 C1723 1.395 . S
C1724 C1725 1.362 . S
C1725 H1689 0.930 . S
C1725 C1720 1.390 . S
C1725 C1724 1.362 . S
C1726 C1715 1.492 . S
C1726 C1727 1.377 . S
C1726 C1731 1.397 . S
C1727 H1690 0.931 . S
C1727 C1726 1.377 . S
C1727 C1728 1.376 . S
C1728 H1691 0.930 . S
C1728 C1727 1.376 . S
C1728 C1729 1.376 . S
C1729 C1728 1.376 . S
C1729 C1730 1.378 . S
C1729 C1756 1.486 . S
C1730 H1692 0.930 . S
C1730 C1729 1.378 . S
C1730 C1731 1.376 . S
C1731 H1693 0.929 . S
C1731 C1726 1.397 . S
C1731 C1730 1.376 . S
C1732 C1716 1.509 . S
C1732 C1733 1.391 . S
C1732 C1737 1.386 . S
C1733 H1694 0.930 . S
C1733 C1732 1.391 . S
C1733 C1734 1.375 . S
C1734 H1695 0.931 . S
C1734 C1733 1.375 . S
C1734 C1735 1.375 . S
C1735 C1734 1.375 . S
C1735 C1736 1.361 . S
C1736 H1696 0.930 . S
C1736 C1735 1.361 . S
C1736 C1737 1.399 . S
C1737 H1697 0.929 . S
C1737 C1732 1.386 . S
C1737 C1736 1.399 . S
C1738 C1717 1.485 . S
C1738 C1739 1.394 . S
C1738 C1743 1.360 . S
C1739 H1698 0.931 . S
C1739 C1738 1.394 . S
C1739 C1740 1.372 . S
C1740 H1699 0.930 . S
C1740 C1739 1.372 . S
C1740 C1741 1.397 . S
C1741 C1740 1.397 . S
C1741 C1742 1.390 . S
C1741 C1757 1.476 . S
C1742 H1700 0.930 . S
C1742 C1741 1.390 . S
C1742 C1743 1.366 . S
C1743 H1701 0.932 . S
C1743 C1738 1.360 . S
C1743 C1742 1.366 . S
C1744 C1718 1.490 . S
C1744 C1745 1.380 . S
C1744 C1749 1.386 . S
C1745 H1702 0.930 . S
C1745 C1744 1.380 . S
C1745 C1746 1.381 . S
C1746 H1703 0.929 . S
C1746 C1745 1.381 . S
C1746 C1747 1.371 . S
C1747 C1746 1.371 . S
C1747 C1748 1.380 . S
C1748 H1704 0.931 . S
C1748 C1747 1.380 . S
C1748 C1749 1.387 . S
C1749 H1705 0.930 . S
C1749 C1744 1.386 . S
C1749 C1748 1.387 . S
C1750 C1719 1.519 . S
C1750 C1751 1.377 . S
C1750 C1755 1.361 . S
C1751 H1706 0.929 . S
C1751 C1750 1.377 . S
C1751 C1752 1.386 . S
C1752 H1707 0.931 . S
C1752 C1751 1.386 . S
C1752 C1753 1.363 . S
C1753 C1752 1.363 . S
C1753 C1754 1.385 . S
C1754 H1708 0.930 . S
C1754 C1753 1.385 . S
C1754 C1755 1.396 . S
C1755 H1709 0.929 . S
C1755 C1750 1.361 . S
C1755 C1754 1.396 . S
C1756 O1710 1.300 . S
C1756 O1711 1.209 . S
C1756 C1729 1.486 . S
C1757 O1712 1.199 . S
C1757 O1713 1.297 . S
C1757 C1741 1.476 . S
H1758 O1784 0.856 . S
H1759 O1787 0.854 . S
H1760 C1795 0.930 . S
H1761 C1796 0.930 . S
H1762 C1798 0.930 . S
H1763 C1799 0.930 . S
H1764 C1801 0.931 . S
H1765 C1802 0.930 . S
H1766 C1804 0.930 . S
H1767 C1805 0.929 . S
H1768 C1807 0.930 . S
H1769 C1808 0.931 . S
H1770 C1810 0.930 . S
H1771 C1811 0.929 . S
H1772 C1813 0.931 . S
H1773 C1814 0.930 . S
H1774 C1816 0.930 . S
H1775 C1817 0.932 . S
H1776 C1819 0.930 . S
H1777 C1820 0.929 . S
H1778 C1822 0.931 . S
H1779 C1823 0.930 . S
H1780 C1825 0.929 . S
H1781 C1826 0.931 . S
H1782 C1828 0.930 . S
H1783 C1829 0.929 . S
O1784 H1758 0.856 . S
O1784 C1830 1.300 . S
O1785 C1830 1.209 . S
O1786 C1831 1.199 . S
O1787 H1759 0.854 . S
O1787 C1831 1.297 . S
C1788 C1789 1.404 . S
C1788 C1793 1.397 . S
C1788 C1794 1.492 . S
C1789 C1788 1.404 . S
C1789 C1790 1.396 . S
C1789 C1800 1.492 . S
C1790 C1789 1.396 . S
C1790 C1791 1.397 . S
C1790 C1806 1.509 . S
C1791 C1790 1.397 . S
C1791 C1792 1.412 . S
C1791 C1812 1.485 . S
C1792 C1791 1.412 . S
C1792 C1793 1.388 . S
C1792 C1818 1.490 . S
C1793 C1788 1.397 . S
C1793 C1792 1.388 . S
C1793 C1824 1.519 . S
C1794 C1788 1.492 . S
C1794 C1795 1.363 . S
C1794 C1799 1.390 . S
C1795 H1760 0.930 . S
C1795 C1794 1.363 . S
C1795 C1796 1.372 . S
C1796 H1761 0.930 . S
C1796 C1795 1.372 . S
C1796 C1797 1.383 . S
C1797 C1796 1.383 . S
C1797 C1798 1.395 . S
C1798 H1762 0.930 . S
C1798 C1797 1.395 . S
C1798 C1799 1.362 . S
C1799 H1763 0.930 . S
C1799 C1794 1.390 . S
C1799 C1798 1.362 . S
C1800 C1789 1.492 . S
C1800 C1801 1.377 . S
C1800 C1805 1.397 . S
C1801 H1764 0.931 . S
C1801 C1800 1.377 . S
C1801 C1802 1.376 . S
C1802 H1765 0.930 . S
C1802 C1801 1.376 . S
C1802 C1803 1.376 . S
C1803 C1802 1.376 . S
C1803 C1804 1.378 . S
C1803 C1830 1.486 . S
C1804 H1766 0.930 . S
C1804 C1803 1.378 . S
C1804 C1805 1.376 . S
C1805 H1767 0.929 . S
C1805 C1800 1.397 . S
C1805 C1804 1.376 . S
C1806 C1790 1.509 . S
C1806 C1807 1.391 . S
C1806 C1811 1.386 . S
C1807 H1768 0.930 . S
C1807 C1806 1.391 . S
C1807 C1808 1.375 . S
C1808 H1769 0.931 . S
C1808 C1807 1.375 . S
C1808 C1809 1.375 . S
C1809 C1808 1.375 . S
C1809 C1810 1.361 . S
C1810 H1770 0.930 . S
C1810 C1809 1.361 . S
C1810 C1811 1.399 . S
C1811 H1771 0.929 . S
C1811 C1806 1.386 . S
C1811 C1810 1.399 . S
C1812 C1791 1.485 . S
C1812 C1813 1.394 . S
C1812 C1817 1.360 . S
C1813 H1772 0.931 . S
C1813 C1812 1.394 . S
C1813 C1814 1.372 . S
C1814 H1773 0.930 . S
C1814 C1813 1.372 . S
C1814 C1815 1.397 . S
C1815 C1814 1.397 . S
C1815 C1816 1.390 . S
C1815 C1831 1.476 . S
C1816 H1774 0.930 . S
C1816 C1815 1.390 . S
C1816 C1817 1.366 . S
C1817 H1775 0.932 . S
C1817 C1812 1.360 . S
C1817 C1816 1.366 . S
C1818 C1792 1.490 . S
C1818 C1819 1.380 . S
C1818 C1823 1.386 . S
C1819 H1776 0.930 . S
C1819 C1818 1.380 . S
C1819 C1820 1.381 . S
C1820 H1777 0.929 . S
C1820 C1819 1.381 . S
C1820 C1821 1.371 . S
C1821 C1820 1.371 . S
C1821 C1822 1.380 . S
C1822 H1778 0.931 . S
C1822 C1821 1.380 . S
C1822 C1823 1.387 . S
C1823 H1779 0.930 . S
C1823 C1818 1.386 . S
C1823 C1822 1.387 . S
C1824 C1793 1.519 . S
C1824 C1825 1.377 . S
C1824 C1829 1.361 . S
C1825 H1780 0.929 . S
C1825 C1824 1.377 . S
C1825 C1826 1.386 . S
C1826 H1781 0.931 . S
C1826 C1825 1.386 . S
C1826 C1827 1.363 . S
C1827 C1826 1.363 . S
C1827 C1828 1.385 . S
C1828 H1782 0.930 . S
C1828 C1827 1.385 . S
C1828 C1829 1.396 . S
C1829 H1783 0.929 . S
C1829 C1824 1.361 . S
C1829 C1828 1.396 . S
C1830 O1784 1.300 . S
C1830 O1785 1.209 . S
C1830 C1803 1.486 . S
C1831 O1786 1.199 . S
C1831 O1787 1.297 . S
C1831 C1815 1.476 . S
H1832 O1858 0.856 . S
H1833 O1861 0.854 . S
H1834 C1869 0.930 . S
H1835 C1870 0.930 . S
H1836 C1872 0.930 . S
H1837 C1873 0.930 . S
H1838 C1875 0.931 . S
H1839 C1876 0.930 . S
H1840 C1878 0.930 . S
H1841 C1879 0.929 . S
H1842 C1881 0.930 . S
H1843 C1882 0.931 . S
H1844 C1884 0.930 . S
H1845 C1885 0.929 . S
H1846 C1887 0.931 . S
H1847 C1888 0.930 . S
H1848 C1890 0.930 . S
H1849 C1891 0.932 . S
H1850 C1893 0.930 . S
H1851 C1894 0.929 . S
H1852 C1896 0.931 . S
H1853 C1897 0.930 . S
H1854 C1899 0.929 . S
H1855 C1900 0.931 . S
H1856 C1902 0.930 . S
H1857 C1903 0.929 . S
O1858 H1832 0.856 . S
O1858 C1904 1.300 . S
O1859 C1904 1.209 . S
O1860 C1905 1.199 . S
O1861 H1833 0.854 . S
O1861 C1905 1.297 . S
C1862 C1863 1.404 . S
C1862 C1867 1.397 . S
C1862 C1868 1.492 . S
C1863 C1862 1.404 . S
C1863 C1864 1.396 . S
C1863 C1874 1.492 . S
C1864 C1863 1.396 . S
C1864 C1865 1.397 . S
C1864 C1880 1.509 . S
C1865 C1864 1.397 . S
C1865 C1866 1.412 . S
C1865 C1886 1.485 . S
C1866 C1865 1.412 . S
C1866 C1867 1.388 . S
C1866 C1892 1.490 . S
C1867 C1862 1.397 . S
C1867 C1866 1.388 . S
C1867 C1898 1.519 . S
C1868 C1862 1.492 . S
C1868 C1869 1.363 . S
C1868 C1873 1.390 . S
C1869 H1834 0.930 . S
C1869 C1868 1.363 . S
C1869 C1870 1.372 . S
C1870 H1835 0.930 . S
C1870 C1869 1.372 . S
C1870 C1871 1.383 . S
C1871 C1870 1.383 . S
C1871 C1872 1.395 . S
C1872 H1836 0.930 . S
C1872 C1871 1.395 . S
C1872 C1873 1.362 . S
C1873 H1837 0.930 . S
C1873 C1868 1.390 . S
C1873 C1872 1.362 . S
C1874 C1863 1.492 . S
C1874 C1875 1.377 . S
C1874 C1879 1.397 . S
C1875 H1838 0.931 . S
C1875 C1874 1.377 . S
C1875 C1876 1.376 . S
C1876 H1839 0.930 . S
C1876 C1875 1.376 . S
C1876 C1877 1.376 . S
C1877 C1876 1.376 . S
C1877 C1878 1.378 . S
C1877 C1904 1.486 . S
C1878 H1840 0.930 . S
C1878 C1877 1.378 . S
C1878 C1879 1.376 . S
C1879 H1841 0.929 . S
C1879 C1874 1.397 . S
C1879 C1878 1.376 . S
C1880 C1864 1.509 . S
C1880 C1881 1.391 . S
C1880 C1885 1.386 . S
C1881 H1842 0.930 . S
C1881 C1880 1.391 . S
C1881 C1882 1.375 . S
C1882 H1843 0.931 . S
C1882 C1881 1.375 . S
C1882 C1883 1.375 . S
C1883 C1882 1.375 . S
C1883 C1884 1.361 . S
C1884 H1844 0.930 . S
C1884 C1883 1.361 . S
C1884 C1885 1.399 . S
C1885 H1845 0.929 . S
C1885 C1880 1.386 . S
C1885 C1884 1.399 . S
C1886 C1865 1.485 . S
C1886 C1887 1.394 . S
C1886 C1891 1.360 . S
C1887 H1846 0.931 . S
C1887 C1886 1.394 . S
C1887 C1888 1.372 . S
C1888 H1847 0.930 . S
C1888 C1887 1.372 . S
C1888 C1889 1.397 . S
C1889 C1888 1.397 . S
C1889 C1890 1.390 . S
C1889 C1905 1.476 . S
C1890 H1848 0.930 . S
C1890 C1889 1.390 . S
C1890 C1891 1.366 . S
C1891 H1849 0.932 . S
C1891 C1886 1.360 . S
C1891 C1890 1.366 . S
C1892 C1866 1.490 . S
C1892 C1893 1.380 . S
C1892 C1897 1.386 . S
C1893 H1850 0.930 . S
C1893 C1892 1.380 . S
C1893 C1894 1.381 . S
C1894 H1851 0.929 . S
C1894 C1893 1.381 . S
C1894 C1895 1.371 . S
C1895 C1894 1.371 . S
C1895 C1896 1.380 . S
C1896 H1852 0.931 . S
C1896 C1895 1.380 . S
C1896 C1897 1.387 . S
C1897 H1853 0.930 . S
C1897 C1892 1.386 . S
C1897 C1896 1.387 . S
C1898 C1867 1.519 . S
C1898 C1899 1.377 . S
C1898 C1903 1.361 . S
C1899 H1854 0.929 . S
C1899 C1898 1.377 . S
C1899 C1900 1.386 . S
C1900 H1855 0.931 . S
C1900 C1899 1.386 . S
C1900 C1901 1.363 . S
C1901 C1900 1.363 . S
C1901 C1902 1.385 . S
C1902 H1856 0.930 . S
C1902 C1901 1.385 . S
C1902 C1903 1.396 . S
C1903 H1857 0.929 . S
C1903 C1898 1.361 . S
C1903 C1902 1.396 . S
C1904 O1858 1.300 . S
C1904 O1859 1.209 . S
C1904 C1877 1.486 . S
C1905 O1860 1.199 . S
C1905 O1861 1.297 . S
C1905 C1889 1.476 . S
H1906 O1932 0.856 . S
H1907 O1935 0.854 . S
H1908 C1943 0.930 . S
H1909 C1944 0.930 . S
H1910 C1946 0.930 . S
H1911 C1947 0.930 . S
H1912 C1949 0.931 . S
H1913 C1950 0.930 . S
H1914 C1952 0.930 . S
H1915 C1953 0.929 . S
H1916 C1955 0.930 . S
H1917 C1956 0.931 . S
H1918 C1958 0.930 . S
H1919 C1959 0.929 . S
H1920 C1961 0.931 . S
H1921 C1962 0.930 . S
H1922 C1964 0.930 . S
H1923 C1965 0.932 . S
H1924 C1967 0.930 . S
H1925 C1968 0.929 . S
H1926 C1970 0.931 . S
H1927 C1971 0.930 . S
H1928 C1973 0.929 . S
H1929 C1974 0.931 . S
H1930 C1976 0.930 . S
H1931 C1977 0.929 . S
O1932 H1906 0.856 . S
O1932 C1978 1.300 . S
O1933 C1978 1.209 . S
O1934 C1979 1.199 . S
O1935 H1907 0.854 . S
O1935 C1979 1.297 . S
C1936 C1937 1.404 . S
C1936 C1941 1.397 . S
C1936 C1942 1.492 . S
C1937 C1936 1.404 . S
C1937 C1938 1.396 . S
C1937 C1948 1.492 . S
C1938 C1937 1.396 . S
C1938 C1939 1.397 . S
C1938 C1954 1.509 . S
C1939 C1938 1.397 . S
C1939 C1940 1.412 . S
C1939 C1960 1.485 . S
C1940 C1939 1.412 . S
C1940 C1941 1.388 . S
C1940 C1966 1.490 . S
C1941 C1936 1.397 . S
C1941 C1940 1.388 . S
C1941 C1972 1.519 . S
C1942 C1936 1.492 . S
C1942 C1943 1.363 . S
C1942 C1947 1.390 . S
C1943 H1908 0.930 . S
C1943 C1942 1.363 . S
C1943 C1944 1.372 . S
C1944 H1909 0.930 . S
C1944 C1943 1.372 . S
C1944 C1945 1.383 . S
C1945 C1944 1.383 . S
C1945 C1946 1.395 . S
C1946 H1910 0.930 . S
C1946 C1945 1.395 . S
C1946 C1947 1.362 . S
C1947 H1911 0.930 . S
C1947 C1942 1.390 . S
C1947 C1946 1.362 . S
C1948 C1937 1.492 . S
C1948 C1949 1.377 . S
C1948 C1953 1.397 . S
C1949 H1912 0.931 . S
C1949 C1948 1.377 . S
C1949 C1950 1.376 . S
C1950 H1913 0.930 . S
C1950 C1949 1.376 . S
C1950 C1951 1.376 . S
C1951 C1950 1.376 . S
C1951 C1952 1.378 . S
C1951 C1978 1.486 . S
C1952 H1914 0.930 . S
C1952 C1951 1.378 . S
C1952 C1953 1.376 . S
C1953 H1915 0.929 . S
C1953 C1948 1.397 . S
C1953 C1952 1.376 . S
C1954 C1938 1.509 . S
C1954 C1955 1.391 . S
C1954 C1959 1.386 . S
C1955 H1916 0.930 . S
C1955 C1954 1.391 . S
C1955 C1956 1.375 . S
C1956 H1917 0.931 . S
C1956 C1955 1.375 . S
C1956 C1957 1.375 . S
C1957 C1956 1.375 . S
C1957 C1958 1.361 . S
C1958 H1918 0.930 . S
C1958 C1957 1.361 . S
C1958 C1959 1.399 . S
C1959 H1919 0.929 . S
C1959 C1954 1.386 . S
C1959 C1958 1.399 . S
C1960 C1939 1.485 . S
C1960 C1961 1.394 . S
C1960 C1965 1.360 . S
C1961 H1920 0.931 . S
C1961 C1960 1.394 . S
C1961 C1962 1.372 . S
C1962 H1921 0.930 . S
C1962 C1961 1.372 . S
C1962 C1963 1.397 . S
C1963 C1962 1.397 . S
C1963 C1964 1.390 . S
C1963 C1979 1.476 . S
C1964 H1922 0.930 . S
C1964 C1963 1.390 . S
C1964 C1965 1.366 . S
C1965 H1923 0.932 . S
C1965 C1960 1.360 . S
C1965 C1964 1.366 . S
C1966 C1940 1.490 . S
C1966 C1967 1.380 . S
C1966 C1971 1.386 . S
C1967 H1924 0.930 . S
C1967 C1966 1.380 . S
C1967 C1968 1.381 . S
C1968 H1925 0.929 . S
C1968 C1967 1.381 . S
C1968 C1969 1.371 . S
C1969 C1968 1.371 . S
C1969 C1970 1.380 . S
C1970 H1926 0.931 . S
C1970 C1969 1.380 . S
C1970 C1971 1.387 . S
C1971 H1927 0.930 . S
C1971 C1966 1.386 . S
C1971 C1970 1.387 . S
C1972 C1941 1.519 . S
C1972 C1973 1.377 . S
C1972 C1977 1.361 . S
C1973 H1928 0.929 . S
C1973 C1972 1.377 . S
C1973 C1974 1.386 . S
C1974 H1929 0.931 . S
C1974 C1973 1.386 . S
C1974 C1975 1.363 . S
C1975 C1974 1.363 . S
C1975 C1976 1.385 . S
C1976 H1930 0.930 . S
C1976 C1975 1.385 . S
C1976 C1977 1.396 . S
C1977 H1931 0.929 . S
C1977 C1972 1.361 . S
C1977 C1976 1.396 . S
C1978 O1932 1.300 . S
C1978 O1933 1.209 . S
C1978 C1951 1.486 . S
C1979 O1934 1.199 . S
C1979 O1935 1.297 . S
C1979 C1963 1.476 . S
H1980 C1988 0.929 . S
H1981 C1990 0.930 . S
H1982 C1992 0.931 1_455 S
H1983 C1995 0.929 . S
H1984 C1998 0.930 . S
H1985 C2000 0.960 . S
H1986 C2000 0.960 . S
H1987 C2000 0.960 . S
C1988 H1980 0.929 . S
C1988 C1989 1.425 . S
C1988 C1990 1.384 . S
C1989 C1988 1.425 . S
C1989 C1995 1.378 1_655 S
C1990 H1981 0.930 . S
C1990 C1988 1.384 . S
C1990 C1991 1.372 . S
C1991 C1990 1.372 . S
C1991 C1992 1.397 . S
C1991 C1996 1.490 . S
C1992 H1982 0.931 1_655 S
C1992 C1991 1.397 . S
C1992 C1995 1.388 1_655 S
H1993 C2009 0.930 . S
H1994 C2010 0.931 . S
C1995 H1983 0.929 . S
C1995 C1989 1.378 1_455 S
C1995 C1992 1.388 1_455 S
C1996 C1991 1.490 . S
C1996 C1998 1.395 . S
C1996 C1999 1.403 1_655 S
H1997 C2003 0.930 . S
C1998 H1984 0.930 . S
C1998 C1996 1.395 . S
C1998 C2001 1.403 . S
C1999 C1996 1.403 1_455 S
C1999 C2000 1.524 . S
C1999 C2003 1.400 . S
C2000 H1985 0.960 . S
C2000 H1986 0.960 . S
C2000 H1987 0.960 . S
C2000 C1999 1.524 . S
C2001 C1998 1.403 . S
C2001 C2002 1.392 . S
C2001 C2005 1.495 . S
C2002 C2001 1.392 . S
C2002 C2003 1.385 1_655 S
C2002 C2004 1.478 . S
C2003 H1997 0.930 . S
C2003 C1999 1.400 . S
C2003 C2002 1.385 1_455 S
C2004 C2002 1.478 . S
C2004 C2006 1.381 . S
C2004 C2010 1.383 . S
C2005 C2001 1.495 . S
C2005 H2011 0.959 . S
C2005 H2012 0.961 . S
C2005 H2013 0.960 . S
C2006 C2004 1.381 . S
C2006 C2007 1.394 . S
C2006 H2014 0.930 . S
C2007 C2006 1.394 . S
C2007 C2008 1.383 . S
C2007 H2015 0.929 . S
C2008 C2007 1.383 . S
C2008 C2009 1.377 . S
C2009 H1993 0.930 . S
C2009 C2008 1.377 . S
C2009 C2010 1.379 . S
C2010 H1994 0.931 . S
C2010 C2004 1.383 . S
C2010 C2009 1.379 . S
H2011 C2005 0.959 . S
H2012 C2005 0.961 . S
H2013 C2005 0.960 . S
H2014 C2006 0.930 . S
H2015 C2007 0.929 . S
H2016 C2024 0.929 . S
H2017 C2026 0.930 . S
H2018 C2028 0.930 . S
H2019 C2031 0.929 . S
H2020 C2034 0.930 . S
H2021 C2036 0.960 . S
H2022 C2036 0.960 . S
H2023 C2036 0.960 . S
C2024 H2016 0.929 . S
C2024 C2025 1.377 . S
C2024 C2026 1.384 . S
C2025 C2024 1.377 . S
C2025 C2031 1.390 . S
C2026 H2017 0.930 . S
C2026 C2024 1.384 . S
C2026 C2027 1.372 . S
C2027 C2026 1.372 . S
C2027 C2028 1.400 . S
C2027 C2032 1.490 . S
C2028 H2018 0.930 . S
C2028 C2027 1.400 . S
C2028 C2031 1.386 . S
H2029 C2045 0.930 . S
H2030 C2046 0.931 . S
C2031 H2019 0.929 . S
C2031 C2025 1.390 . S
C2031 C2028 1.386 . S
C2032 C2027 1.490 . S
C2032 C2034 1.395 . S
C2032 C2035 1.403 . S
H2033 C2039 0.930 . S
C2034 H2020 0.930 . S
C2034 C2032 1.395 . S
C2034 C2037 1.403 . S
C2035 C2032 1.403 . S
C2035 C2036 1.524 . S
C2035 C2039 1.400 . S
C2036 H2021 0.960 . S
C2036 H2022 0.960 . S
C2036 H2023 0.960 . S
C2036 C2035 1.524 . S
C2037 C2034 1.403 . S
C2037 C2038 1.392 . S
C2037 C2041 1.495 . S
C2038 C2037 1.392 . S
C2038 C2039 1.385 . S
C2038 C2040 1.478 . S
C2039 H2033 0.930 . S
C2039 C2035 1.400 . S
C2039 C2038 1.385 . S
C2040 C2038 1.478 . S
C2040 C2042 1.381 . S
C2040 C2046 1.383 . S
C2041 C2037 1.495 . S
C2041 H2047 0.959 . S
C2041 H2048 0.961 . S
C2041 H2049 0.960 . S
C2042 C2040 1.381 . S
C2042 C2043 1.394 . S
C2042 H2050 0.930 . S
C2043 C2042 1.394 . S
C2043 C2044 1.383 . S
C2043 H2051 0.929 . S
C2044 C2043 1.383 . S
C2044 C2045 1.377 . S
C2045 H2029 0.930 . S
C2045 C2044 1.377 . S
C2045 C2046 1.379 . S
C2046 H2030 0.931 . S
C2046 C2040 1.383 . S
C2046 C2045 1.379 . S
H2047 C2041 0.959 . S
H2048 C2041 0.961 . S
H2049 C2041 0.960 . S
H2050 C2042 0.930 . S
H2051 C2043 0.929 . S
H2052 C2060 0.936 . S
H2053 C2062 0.945 . S
H2054 C2064 0.930 . S
H2055 C2067 0.929 . S
H2056 C2070 0.930 . S
H2057 C2072 0.960 . S
H2058 C2072 0.960 . S
H2059 C2072 0.960 . S
C2060 H2052 0.936 . S
C2060 C2061 1.353 1_565 S
C2060 C2062 1.394 . S
C2061 C2060 1.353 1_545 S
C2061 C2067 1.390 . S
C2062 H2053 0.945 . S
C2062 C2060 1.394 . S
C2062 C2063 1.370 1_565 S
C2063 C2062 1.370 1_545 S
C2063 C2064 1.400 . S
C2063 C2068 1.490 . S
C2064 H2054 0.930 . S
C2064 C2063 1.400 . S
C2064 C2067 1.386 . S
H2065 C2081 0.930 . S
H2066 C2082 0.931 . S
C2067 H2055 0.929 . S
C2067 C2061 1.390 . S
C2067 C2064 1.386 . S
C2068 C2063 1.490 . S
C2068 C2070 1.395 1_545 S
C2068 C2071 1.403 . S
H2069 C2075 0.930 . S
C2070 H2056 0.930 . S
C2070 C2068 1.395 1_565 S
C2070 C2073 1.403 . S
C2071 C2068 1.403 . S
C2071 C2072 1.524 . S
C2071 C2075 1.400 . S
C2072 H2057 0.960 . S
C2072 H2058 0.960 . S
C2072 H2059 0.960 . S
C2072 C2071 1.524 . S
C2073 C2070 1.403 . S
C2073 C2074 1.392 1_565 S
C2073 C2077 1.495 . S
C2074 C2073 1.392 1_545 S
C2074 C2075 1.385 . S
C2074 C2076 1.478 . S
C2075 H2069 0.930 . S
C2075 C2071 1.400 . S
C2075 C2074 1.385 . S
C2076 C2074 1.478 . S
C2076 C2078 1.381 . S
C2076 C2082 1.383 . S
C2077 C2073 1.495 . S
C2077 H2083 0.959 . S
C2077 H2084 0.961 . S
C2077 H2085 0.960 . S
C2078 C2076 1.381 . S
C2078 C2079 1.394 . S
C2078 H2086 0.930 1_545 S
C2079 C2078 1.394 . S
C2079 C2080 1.383 . S
C2079 H2087 0.911 1_545 S
C2080 C2079 1.383 . S
C2080 C2081 1.377 . S
C2081 H2065 0.930 . S
C2081 C2080 1.377 . S
C2081 C2082 1.379 . S
C2082 H2066 0.931 . S
C2082 C2076 1.383 . S
C2082 C2081 1.379 . S
H2083 C2077 0.959 . S
H2084 C2077 0.961 . S
H2085 C2077 0.960 . S
H2086 C2078 0.930 1_565 S
H2087 C2079 0.911 1_565 S
H2088 C2096 0.929 . S
H2089 C2098 0.930 . S
H2090 C2100 0.930 . S
H2091 C2103 0.929 . S
H2092 C2106 0.930 . S
H2093 C2108 0.960 . S
H2094 C2108 0.960 . S
H2095 C2108 0.960 . S
C2096 H2088 0.929 . S
C2096 C2097 1.377 . S
C2096 C2098 1.384 . S
C2097 C2096 1.377 . S
C2097 C2103 1.390 1_565 S
C2098 H2089 0.930 . S
C2098 C2096 1.384 . S
C2098 C2099 1.372 . S
C2099 C2098 1.372 . S
C2099 C2100 1.400 1_565 S
C2099 C2104 1.490 . S
C2100 H2090 0.930 . S
C2100 C2099 1.400 1_545 S
C2100 C2103 1.386 . S
H2101 C2117 0.930 . S
H2102 C2118 0.931 . S
C2103 H2091 0.929 . S
C2103 C2097 1.390 1_545 S
C2103 C2100 1.386 . S
C2104 C2099 1.490 . S
C2104 C2106 1.395 . S
C2104 C2107 1.403 . S
H2105 C2111 0.930 . S
C2106 H2092 0.930 . S
C2106 C2104 1.395 . S
C2106 C2109 1.403 . S
C2107 C2104 1.403 . S
C2107 C2108 1.524 . S
C2107 C2111 1.400 . S
C2108 H2093 0.960 . S
C2108 H2094 0.960 . S
C2108 H2095 0.960 . S
C2108 C2107 1.524 . S
C2109 C2106 1.403 . S
C2109 C2110 1.392 . S
C2109 C2113 1.494 . S
C2110 C2109 1.392 . S
C2110 C2111 1.385 . S
C2110 C2112 1.478 . S
C2111 H2105 0.930 . S
C2111 C2107 1.400 . S
C2111 C2110 1.385 . S
C2112 C2110 1.478 . S
C2112 C2114 1.381 . S
C2112 C2118 1.383 1_565 S
C2113 C2109 1.494 . S
C2113 H2119 0.961 1_565 S
C2113 H2120 0.962 1_565 S
C2113 H2121 0.958 . S
C2114 C2112 1.381 . S
C2114 C2115 1.394 . S
C2114 H2122 0.930 . S
C2115 C2114 1.394 . S
C2115 C2116 1.383 . S
C2115 H2123 0.929 . S
C2116 C2115 1.383 . S
C2116 C2117 1.377 1_565 S
C2117 H2101 0.930 . S
C2117 C2116 1.377 1_545 S
C2117 C2118 1.379 . S
C2118 H2102 0.931 . S
C2118 C2112 1.383 1_545 S
C2118 C2117 1.379 . S
H2119 C2113 0.961 1_545 S
H2120 C2113 0.962 1_545 S
H2121 C2113 0.958 . S
H2122 C2114 0.930 . S
H2123 C2115 0.929 . S
H2124 C2132 0.929 . S
H2125 C2134 0.930 . S
H2126 C2136 0.930 . S
H2127 C2139 0.929 . S
H2128 C2142 0.930 . S
H2129 C2144 0.960 . S
H2130 C2144 0.960 1_655 S
H2131 C2144 0.960 . S
C2132 H2124 0.929 . S
C2132 C2133 1.377 1_655 S
C2132 C2134 1.384 . S
C2133 C2132 1.377 1_455 S
C2133 C2139 1.390 . S
C2134 H2125 0.930 . S
C2134 C2132 1.384 . S
C2134 C2135 1.372 1_655 S
C2135 C2134 1.372 1_455 S
C2135 C2136 1.400 . S
C2135 C2140 1.490 . S
C2136 H2126 0.930 . S
C2136 C2135 1.400 . S
C2136 C2139 1.386 . S
H2137 C2153 0.930 . S
H2138 C2154 0.931 . S
C2139 H2127 0.929 . S
C2139 C2133 1.390 . S
C2139 C2136 1.386 . S
C2140 C2135 1.490 . S
C2140 C2142 1.395 . S
C2140 C2143 1.403 . S
H2141 C2147 0.930 . S
C2142 H2128 0.930 . S
C2142 C2140 1.395 . S
C2142 C2145 1.403 . S
C2143 C2140 1.403 . S
C2143 C2144 1.524 . S
C2143 C2147 1.400 . S
C2144 H2129 0.960 . S
C2144 H2130 0.960 1_455 S
C2144 H2131 0.960 . S
C2144 C2143 1.524 . S
C2145 C2142 1.403 . S
C2145 C2146 1.392 . S
C2145 C2149 1.495 . S
C2146 C2145 1.392 . S
C2146 C2147 1.385 . S
C2146 C2148 1.478 . S
C2147 H2141 0.930 . S
C2147 C2143 1.400 . S
C2147 C2146 1.385 . S
C2148 C2146 1.478 . S
C2148 C2150 1.381 1_455 S
C2148 C2154 1.383 . S
C2149 C2145 1.495 . S
C2149 H2155 0.959 . S
C2149 H2156 0.961 . S
C2149 H2157 0.960 . S
C2150 C2148 1.381 1_655 S
C2150 C2151 1.394 . S
C2150 H2158 0.930 . S
C2151 C2150 1.394 . S
C2151 C2152 1.383 1_655 S
C2151 H2159 0.929 . S
C2152 C2151 1.383 1_455 S
C2152 C2153 1.377 . S
C2153 H2137 0.930 . S
C2153 C2152 1.377 . S
C2153 C2154 1.379 . S
C2154 H2138 0.931 . S
C2154 C2148 1.383 . S
C2154 C2153 1.379 . S
H2155 C2149 0.959 . S
H2156 C2149 0.961 . S
H2157 C2149 0.960 . S
H2158 C2150 0.930 . S
H2159 C2151 0.929 . S
H2160 C2168 0.929 . S
H2161 C2170 0.930 . S
H2162 C2172 0.930 . S
H2163 C2175 0.929 . S
H2164 C2178 0.930 . S
H2165 C2180 0.960 . S
H2166 C2180 0.960 . S
H2167 C2180 0.960 . S
C2168 H2160 0.929 . S
C2168 C2169 1.377 . S
C2168 C2170 1.384 1_554 S
C2169 C2168 1.377 . S
C2169 C2175 1.390 . S
C2170 H2161 0.930 . S
C2170 C2168 1.384 1_556 S
C2170 C2171 1.372 . S
C2171 C2170 1.372 . S
C2171 C2172 1.400 . S
C2171 C2176 1.490 . S
C2172 H2162 0.930 . S
C2172 C2171 1.400 . S
C2172 C2175 1.386 1_556 S
H2173 C2189 0.930 . S
H2174 C2190 0.931 . S
C2175 H2163 0.929 . S
C2175 C2169 1.390 . S
C2175 C2172 1.386 1_554 S
C2176 C2171 1.490 . S
C2176 C2178 1.395 . S
C2176 C2179 1.403 . S
H2177 C2183 0.930 . S
C2178 H2164 0.930 . S
C2178 C2176 1.395 . S
C2178 C2181 1.403 . S
C2179 C2176 1.403 . S
C2179 C2180 1.524 . S
C2179 C2183 1.400 . S
C2180 H2165 0.960 . S
C2180 H2166 0.960 . S
C2180 H2167 0.960 . S
C2180 C2179 1.524 . S
C2181 C2178 1.403 . S
C2181 C2182 1.392 . S
C2181 C2185 1.495 . S
C2182 C2181 1.392 . S
C2182 C2183 1.385 . S
C2182 C2184 1.478 . S
C2183 H2177 0.930 . S
C2183 C2179 1.400 . S
C2183 C2182 1.385 . S
C2184 C2182 1.478 . S
C2184 C2186 1.381 . S
C2184 C2190 1.383 . S
C2185 C2181 1.495 . S
C2185 H2191 0.959 . S
C2185 H2192 0.961 . S
C2185 H2193 0.960 . S
C2186 C2184 1.381 . S
C2186 C2187 1.394 . S
C2186 H2194 0.930 . S
C2187 C2186 1.394 . S
C2187 C2188 1.383 . S
C2187 H2195 0.929 . S
C2188 C2187 1.383 . S
C2188 C2189 1.377 . S
C2189 H2173 0.930 . S
C2189 C2188 1.377 . S
C2189 C2190 1.379 . S
C2190 H2174 0.931 . S
C2190 C2184 1.383 . S
C2190 C2189 1.379 . S
H2191 C2185 0.959 . S
H2192 C2185 0.961 . S
H2193 C2185 0.960 . S
H2194 C2186 0.930 . S
H2195 C2187 0.929 . S
H2196 C2204 0.932 . S
H2197 C2206 0.950 . S
H2198 C2208 0.932 . S
H2199 C2211 0.929 . S
H2200 C2214 0.930 . S
H2201 C2216 0.960 . S
H2202 C2216 0.960 . S
H2203 C2216 0.960 . S
C2204 H2196 0.932 . S
C2204 C2205 1.376 1_656 S
C2204 C2206 1.402 . S
C2205 C2204 1.376 1_454 S
C2205 C2211 1.390 . S
C2206 H2197 0.950 . S
C2206 C2204 1.402 . S
C2206 C2207 1.335 1_655 S
C2207 C2206 1.335 1_455 S
C2207 C2208 1.391 1_556 S
C2207 C2212 1.490 . S
C2208 H2198 0.932 . S
C2208 C2207 1.391 1_554 S
C2208 C2211 1.392 . S
H2209 C2225 0.930 . S
H2210 C2226 0.931 . S
C2211 H2199 0.929 . S
C2211 C2205 1.390 . S
C2211 C2208 1.392 . S
C2212 C2207 1.490 . S
C2212 C2214 1.395 . S
C2212 C2215 1.403 1_455 S
H2213 C2219 0.930 . S
C2214 H2200 0.930 . S
C2214 C2212 1.395 . S
C2214 C2217 1.403 . S
C2215 C2212 1.403 1_655 S
C2215 C2216 1.524 . S
C2215 C2219 1.400 . S
C2216 H2201 0.960 . S
C2216 H2202 0.960 . S
C2216 H2203 0.960 . S
C2216 C2215 1.524 . S
C2217 C2214 1.403 . S
C2217 C2218 1.392 . S
C2217 C2221 1.495 . S
C2218 C2217 1.392 . S
C2218 C2219 1.385 1_455 S
C2218 C2220 1.478 . S
C2219 H2213 0.930 . S
C2219 C2215 1.400 . S
C2219 C2218 1.385 1_655 S
C2220 C2218 1.478 . S
C2220 C2222 1.381 1_455 S
C2220 C2226 1.383 . S
C2221 C2217 1.495 . S
C2221 H2227 0.959 . S
C2221 H2228 0.961 . S
C2221 H2229 0.960 . S
C2222 C2220 1.381 1_655 S
C2222 C2223 1.394 . S
C2222 H2230 0.930 . S
C2223 C2222 1.394 . S
C2223 C2224 1.383 1_655 S
C2223 H2231 0.929 . S
C2224 C2223 1.383 1_455 S
C2224 C2225 1.377 . S
C2225 H2209 0.930 . S
C2225 C2224 1.377 . S
C2225 C2226 1.379 . S
C2226 H2210 0.931 . S
C2226 C2220 1.383 . S
C2226 C2225 1.379 . S
H2227 C2221 0.959 . S
H2228 C2221 0.961 . S
H2229 C2221 0.960 . S
H2230 C2222 0.930 . S
H2231 C2223 0.929 . S
H2232 C2240 0.929 . S
H2233 C2242 0.930 . S
H2234 C2244 0.930 . S
H2235 C2247 0.929 . S
H2236 C2250 0.930 . S
H2237 C2252 0.960 . S
H2238 C2252 0.960 . S
H2239 C2252 0.960 . S
C2240 H2232 0.929 . S
C2240 C2241 1.377 . S
C2240 C2242 1.384 . S
C2241 C2240 1.377 . S
C2241 C2247 1.390 . S
C2242 H2233 0.930 . S
C2242 C2240 1.384 . S
C2242 C2243 1.372 . S
C2243 C2242 1.372 . S
C2243 C2244 1.400 . S
C2243 C2248 1.490 . S
C2244 H2234 0.930 . S
C2244 C2243 1.400 . S
C2244 C2247 1.386 . S
H2245 C2261 0.930 . S
H2246 C2262 0.931 . S
C2247 H2235 0.929 . S
C2247 C2241 1.390 . S
C2247 C2244 1.386 . S
C2248 C2243 1.490 . S
C2248 C2250 1.395 . S
C2248 C2251 1.403 . S
H2249 C2255 0.930 . S
C2250 H2236 0.930 . S
C2250 C2248 1.395 . S
C2250 C2253 1.403 . S
C2251 C2248 1.403 . S
C2251 C2252 1.524 . S
C2251 C2255 1.400 . S
C2252 H2237 0.960 . S
C2252 H2238 0.960 . S
C2252 H2239 0.960 . S
C2252 C2251 1.524 . S
C2253 C2250 1.403 . S
C2253 C2254 1.392 . S
C2253 C2257 1.495 . S
C2254 C2253 1.392 . S
C2254 C2255 1.385 . S
C2254 C2256 1.478 . S
C2255 H2249 0.930 . S
C2255 C2251 1.400 . S
C2255 C2254 1.385 . S
C2256 C2254 1.478 . S
C2256 C2258 1.381 . S
C2256 C2262 1.383 . S
C2257 C2253 1.495 . S
C2257 H2263 0.959 . S
C2257 H2264 0.961 . S
C2257 H2265 0.960 . S
C2258 C2256 1.381 . S
C2258 C2259 1.394 . S
C2258 H2266 0.930 . S
C2259 C2258 1.394 . S
C2259 C2260 1.383 . S
C2259 H2267 0.929 . S
C2260 C2259 1.383 . S
C2260 C2261 1.377 . S
C2261 H2245 0.930 . S
C2261 C2260 1.377 . S
C2261 C2262 1.379 . S
C2262 H2246 0.931 . S
C2262 C2256 1.383 . S
C2262 C2261 1.379 . S
H2263 C2257 0.959 . S
H2264 C2257 0.961 . S
H2265 C2257 0.960 . S
H2266 C2258 0.930 . S
H2267 C2259 0.929 . S
H2268 C2276 0.919 1_554 S
H2269 C2278 0.930 . S
H2270 C2280 0.930 . S
H2271 C2283 0.929 . S
H2272 C2286 0.930 . S
H2273 C2288 0.928 . S
H2274 C2288 0.909 1_545 S
H2275 C2288 1.039 . S
C2276 H2268 0.919 1_556 S
C2276 C2277 1.345 1_556 S
C2276 C2278 1.430 . S
C2277 C2276 1.345 1_554 S
C2277 C2283 1.390 1_545 S
C2278 H2269 0.930 . S
C2278 C2276 1.430 . S
C2278 C2279 1.372 . S
C2279 C2278 1.372 . S
C2279 C2280 1.400 1_545 S
C2279 C2284 1.490 . S
C2280 H2270 0.930 . S
C2280 C2279 1.400 1_565 S
C2280 C2283 1.386 1_556 S
H2281 C2297 0.930 . S
H2282 C2298 0.931 . S
C2283 H2271 0.929 . S
C2283 C2277 1.390 1_565 S
C2283 C2280 1.386 1_554 S
C2284 C2279 1.490 . S
C2284 C2286 1.395 . S
C2284 C2287 1.392 . S
H2285 C2291 0.978 1_565 S
C2286 H2272 0.930 . S
C2286 C2284 1.395 . S
C2286 C2289 1.403 . S
C2287 C2284 1.392 . S
C2287 C2288 1.543 1_545 S
C2287 C2291 1.401 . S
C2288 H2273 0.928 . S
C2288 H2274 0.909 1_565 S
C2288 H2275 1.039 . S
C2288 C2287 1.543 1_565 S
C2289 C2286 1.403 . S
C2289 C2290 1.392 . S
C2289 C2293 1.495 . S
C2290 C2289 1.392 . S
C2290 C2291 1.384 . S
C2290 C2292 1.478 . S
C2291 H2285 0.978 1_545 S
C2291 C2287 1.401 . S
C2291 C2290 1.384 . S
C2292 C2290 1.478 . S
C2292 C2294 1.381 . S
C2292 C2298 1.383 1_545 S
C2293 C2289 1.495 . S
C2293 H2299 0.959 . S
C2293 H2300 0.961 1_545 S
C2293 H2301 0.960 . S
C2294 C2292 1.381 . S
C2294 C2295 1.394 . S
C2294 H2302 0.930 . S
C2295 C2294 1.394 . S
C2295 C2296 1.383 . S
C2295 H2303 0.929 . S
C2296 C2295 1.383 . S
C2296 C2297 1.377 1_545 S
C2297 H2281 0.930 . S
C2297 C2296 1.377 1_565 S
C2297 C2298 1.379 . S
C2298 H2282 0.931 . S
C2298 C2292 1.383 1_565 S
C2298 C2297 1.379 . S
H2299 C2293 0.959 . S
H2300 C2293 0.961 1_565 S
H2301 C2293 0.960 . S
H2302 C2294 0.930 . S
H2303 C2295 0.929 . S
H2304 C2312 0.929 . S
H2305 C2314 0.902 1_565 S
H2306 C2316 0.930 . S
H2307 C2319 0.929 . S
H2308 C2322 0.930 . S
H2309 C2324 0.960 . S
H2310 C2324 0.960 . S
H2311 C2324 0.906 1_545 S
C2312 H2304 0.929 . S
C2312 C2313 1.377 . S
C2312 C2314 1.384 . S
C2313 C2312 1.377 . S
C2313 C2319 1.390 . S
C2314 H2305 0.902 1_545 S
C2314 C2312 1.384 . S
C2314 C2315 1.372 . S
C2315 C2314 1.372 . S
C2315 C2316 1.400 . S
C2315 C2320 1.490 . S
C2316 H2306 0.930 . S
C2316 C2315 1.400 . S
C2316 C2319 1.386 . S
H2317 C2333 0.930 . S
H2318 C2334 0.931 . S
C2319 H2307 0.929 . S
C2319 C2313 1.390 . S
C2319 C2316 1.386 . S
C2320 C2315 1.490 . S
C2320 C2322 1.395 . S
C2320 C2323 1.403 . S
H2321 C2327 0.934 1_565 S
C2322 H2308 0.930 . S
C2322 C2320 1.395 . S
C2322 C2325 1.403 . S
C2323 C2320 1.403 . S
C2323 C2324 1.524 1_545 S
C2323 C2327 1.390 . S
C2324 H2309 0.960 . S
C2324 H2310 0.960 . S
C2324 H2311 0.906 1_565 S
C2324 C2323 1.524 1_565 S
C2325 C2322 1.403 . S
C2325 C2326 1.392 . S
C2325 C2329 1.495 . S
C2326 C2325 1.392 . S
C2326 C2327 1.395 . S
C2326 C2328 1.478 . S
C2327 H2321 0.934 1_545 S
C2327 C2323 1.390 . S
C2327 C2326 1.395 . S
C2328 C2326 1.478 . S
C2328 C2330 1.381 1_545 S
C2328 C2334 1.383 . S
C2329 C2325 1.495 . S
C2329 H2335 0.959 . S
C2329 H2336 0.961 . S
C2329 H2337 0.960 . S
C2330 C2328 1.381 1_565 S
C2330 C2331 1.394 . S
C2330 H2338 0.930 . S
C2331 C2330 1.394 . S
C2331 C2332 1.317 1_565 S
C2331 H2339 0.929 . S
C2332 C2331 1.317 1_545 S
C2332 C2333 1.431 . S
C2333 H2317 0.930 . S
C2333 C2332 1.431 . S
C2333 C2334 1.379 . S
C2334 H2318 0.931 . S
C2334 C2328 1.383 . S
C2334 C2333 1.379 . S
H2335 C2329 0.959 . S
H2336 C2329 0.961 . S
H2337 C2329 0.960 . S
H2338 C2330 0.930 . S
H2339 C2331 0.929 . S
H2340 C2348 0.929 . S
H2341 C2350 0.930 . S
H2342 C2352 0.930 . S
H2343 C2355 0.929 . S
H2344 C2358 0.930 . S
H2345 C2360 0.962 . S
H2346 C2360 0.941 1_655 S
H2347 C2360 0.970 . S
C2348 H2340 0.929 . S
C2348 C2349 1.377 . S
C2348 C2350 1.384 . S
C2349 C2348 1.377 . S
C2349 C2355 1.390 1_655 S
C2350 H2341 0.930 . S
C2350 C2348 1.384 . S
C2350 C2351 1.372 . S
C2351 C2350 1.372 . S
C2351 C2352 1.400 1_655 S
C2351 C2356 1.490 . S
C2352 H2342 0.930 . S
C2352 C2351 1.400 1_455 S
C2352 C2355 1.386 . S
H2353 C2369 0.930 . S
H2354 C2370 0.931 . S
C2355 H2343 0.929 . S
C2355 C2349 1.390 1_455 S
C2355 C2352 1.386 . S
C2356 C2351 1.490 . S
C2356 C2358 1.395 . S
C2356 C2359 1.403 . S
H2357 C2363 0.932 1_455 S
C2358 H2344 0.930 . S
C2358 C2356 1.395 . S
C2358 C2361 1.403 . S
C2359 C2356 1.403 . S
C2359 C2360 1.532 1_655 S
C2359 C2363 1.412 . S
C2360 H2345 0.962 . S
C2360 H2346 0.941 1_455 S
C2360 H2347 0.970 . S
C2360 C2359 1.532 1_455 S
C2361 C2358 1.403 . S
C2361 C2362 1.392 . S
C2361 C2365 1.495 . S
C2362 C2361 1.392 . S
C2362 C2363 1.373 . S
C2362 C2364 1.478 . S
C2363 H2357 0.932 1_655 S
C2363 C2359 1.412 . S
C2363 C2362 1.373 . S
C2364 C2362 1.478 . S
C2364 C2366 1.381 . S
C2364 C2370 1.383 1_655 S
C2365 C2361 1.495 . S
C2365 H2371 0.959 . S
C2365 H2372 0.961 1_655 S
C2365 H2373 0.960 . S
C2366 C2364 1.381 . S
C2366 C2367 1.394 . S
C2366 H2374 0.930 . S
C2367 C2366 1.394 . S
C2367 C2368 1.368 1_655 S
C2367 H2375 0.929 . S
C2368 C2367 1.368 1_455 S
C2368 C2369 1.386 . S
C2369 H2353 0.930 . S
C2369 C2368 1.386 . S
C2369 C2370 1.379 . S
C2370 H2354 0.931 . S
C2370 C2364 1.383 1_455 S
C2370 C2369 1.379 . S
H2371 C2365 0.959 . S
H2372 C2365 0.961 1_455 S
H2373 C2365 0.960 . S
H2374 C2366 0.930 . S
H2375 C2367 0.929 . S
H2376 C2384 0.929 . S
H2377 C2386 0.930 . S
H2378 C2388 0.930 . S
H2379 C2391 0.929 . S
H2380 C2394 0.930 . S
H2381 C2396 0.960 . S
H2382 C2396 0.960 . S
H2383 C2396 0.960 . S
C2384 H2376 0.929 . S
C2384 C2385 1.377 . S
C2384 C2386 1.384 . S
C2385 C2384 1.377 . S
C2385 C2391 1.390 . S
C2386 H2377 0.930 . S
C2386 C2384 1.384 . S
C2386 C2387 1.372 . S
C2387 C2386 1.372 . S
C2387 C2388 1.400 . S
C2387 C2392 1.490 . S
C2388 H2378 0.930 . S
C2388 C2387 1.400 . S
C2388 C2391 1.386 . S
H2389 C2405 0.930 . S
H2390 C2406 0.931 . S
C2391 H2379 0.929 . S
C2391 C2385 1.390 . S
C2391 C2388 1.386 . S
C2392 C2387 1.490 . S
C2392 C2394 1.395 . S
C2392 C2395 1.403 . S
H2393 C2399 0.930 . S
C2394 H2380 0.930 . S
C2394 C2392 1.395 . S
C2394 C2397 1.403 . S
C2395 C2392 1.403 . S
C2395 C2396 1.524 . S
C2395 C2399 1.400 . S
C2396 H2381 0.960 . S
C2396 H2382 0.960 . S
C2396 H2383 0.960 . S
C2396 C2395 1.524 . S
C2397 C2394 1.403 . S
C2397 C2398 1.392 . S
C2397 C2401 1.495 . S
C2398 C2397 1.392 . S
C2398 C2399 1.385 . S
C2398 C2400 1.478 . S
C2399 H2393 0.930 . S
C2399 C2395 1.400 . S
C2399 C2398 1.385 . S
C2400 C2398 1.478 . S
C2400 C2402 1.381 . S
C2400 C2406 1.383 . S
C2401 C2397 1.495 . S
C2401 H2407 0.959 . S
C2401 H2408 0.961 . S
C2401 H2409 0.960 . S
C2402 C2400 1.381 . S
C2402 C2403 1.394 . S
C2402 H2410 0.930 . S
C2403 C2402 1.394 . S
C2403 C2404 1.383 . S
C2403 H2411 0.929 . S
C2404 C2403 1.383 . S
C2404 C2405 1.377 . S
C2405 H2389 0.930 . S
C2405 C2404 1.377 . S
C2405 C2406 1.379 . S
C2406 H2390 0.931 . S
C2406 C2400 1.383 . S
C2406 C2405 1.379 . S
H2407 C2401 0.959 . S
H2408 C2401 0.961 . S
H2409 C2401 0.960 . S
H2410 C2402 0.930 . S
H2411 C2403 0.929 . S
H2412 C2420 0.929 . S
H2413 C2422 0.930 . S
H2414 C2424 0.930 . S
H2415 C2427 0.929 . S
H2416 C2430 0.930 . S
H2417 C2432 0.960 . S
H2418 C2432 0.960 . S
H2419 C2432 0.960 . S
C2420 H2412 0.929 . S
C2420 C2421 1.377 . S
C2420 C2422 1.384 . S
C2421 C2420 1.377 . S
C2421 C2427 1.390 . S
C2422 H2413 0.930 . S
C2422 C2420 1.384 . S
C2422 C2423 1.372 . S
C2423 C2422 1.372 . S
C2423 C2424 1.400 . S
C2423 C2428 1.490 . S
C2424 H2414 0.930 . S
C2424 C2423 1.400 . S
C2424 C2427 1.386 . S
H2425 C2441 0.930 . S
H2426 C2442 0.931 . S
C2427 H2415 0.929 . S
C2427 C2421 1.390 . S
C2427 C2424 1.386 . S
C2428 C2423 1.490 . S
C2428 C2430 1.395 . S
C2428 C2431 1.403 . S
H2429 C2435 0.930 . S
C2430 H2416 0.930 . S
C2430 C2428 1.395 . S
C2430 C2433 1.403 . S
C2431 C2428 1.403 . S
C2431 C2432 1.524 . S
C2431 C2435 1.400 . S
C2432 H2417 0.960 . S
C2432 H2418 0.960 . S
C2432 H2419 0.960 . S
C2432 C2431 1.524 . S
C2433 C2430 1.403 . S
C2433 C2434 1.392 . S
C2433 C2437 1.495 . S
C2434 C2433 1.392 . S
C2434 C2435 1.385 . S
C2434 C2436 1.478 . S
C2435 H2429 0.930 . S
C2435 C2431 1.400 . S
C2435 C2434 1.385 . S
C2436 C2434 1.478 . S
C2436 C2438 1.381 . S
C2436 C2442 1.383 . S
C2437 C2433 1.495 . S
C2437 H2443 0.959 . S
C2437 H2444 0.961 . S
C2437 H2445 0.960 . S
C2438 C2436 1.381 . S
C2438 C2439 1.394 . S
C2438 H2446 0.930 . S
C2439 C2438 1.394 . S
C2439 C2440 1.383 . S
C2439 H2447 0.929 . S
C2440 C2439 1.383 . S
C2440 C2441 1.377 . S
C2441 H2425 0.930 . S
C2441 C2440 1.377 . S
C2441 C2442 1.379 . S
C2442 H2426 0.931 . S
C2442 C2436 1.383 . S
C2442 C2441 1.379 . S
H2443 C2437 0.959 . S
H2444 C2437 0.961 . S
H2445 C2437 0.960 . S
H2446 C2438 0.930 . S
H2447 C2439 0.929 . S
H2448 C2456 0.929 . S
H2449 C2458 0.930 . S
H2450 C2460 0.930 . S
H2451 C2463 0.929 . S
H2452 C2466 0.930 . S
H2453 C2468 0.960 . S
H2454 C2468 0.960 . S
H2455 C2468 0.960 . S
C2456 H2448 0.929 . S
C2456 C2457 1.377 . S
C2456 C2458 1.384 . S
C2457 C2456 1.377 . S
C2457 C2463 1.390 . S
C2458 H2449 0.930 . S
C2458 C2456 1.384 . S
C2458 C2459 1.372 . S
C2459 C2458 1.372 . S
C2459 C2460 1.400 . S
C2459 C2464 1.490 . S
C2460 H2450 0.930 . S
C2460 C2459 1.400 . S
C2460 C2463 1.386 . S
H2461 C2477 0.930 . S
H2462 C2478 0.931 . S
C2463 H2451 0.929 . S
C2463 C2457 1.390 . S
C2463 C2460 1.386 . S
C2464 C2459 1.490 . S
C2464 C2466 1.395 . S
C2464 C2467 1.403 . S
H2465 C2471 0.930 . S
C2466 H2452 0.930 . S
C2466 C2464 1.395 . S
C2466 C2469 1.403 . S
C2467 C2464 1.403 . S
C2467 C2468 1.524 . S
C2467 C2471 1.400 . S
C2468 H2453 0.960 . S
C2468 H2454 0.960 . S
C2468 H2455 0.960 . S
C2468 C2467 1.524 . S
C2469 C2466 1.403 . S
C2469 C2470 1.392 . S
C2469 C2473 1.495 . S
C2470 C2469 1.392 . S
C2470 C2471 1.385 . S
C2470 C2472 1.478 . S
C2471 H2465 0.930 . S
C2471 C2467 1.400 . S
C2471 C2470 1.385 . S
C2472 C2470 1.478 . S
C2472 C2474 1.381 . S
C2472 C2478 1.383 . S
C2473 C2469 1.495 . S
C2473 H2479 0.959 . S
C2473 H2480 0.961 . S
C2473 H2481 0.960 . S
C2474 C2472 1.381 . S
C2474 C2475 1.394 . S
C2474 H2482 0.930 . S
C2475 C2474 1.394 . S
C2475 C2476 1.383 . S
C2475 H2483 0.929 . S
C2476 C2475 1.383 . S
C2476 C2477 1.377 . S
C2477 H2461 0.930 . S
C2477 C2476 1.377 . S
C2477 C2478 1.379 . S
C2478 H2462 0.931 . S
C2478 C2472 1.383 . S
C2478 C2477 1.379 . S
H2479 C2473 0.959 . S
H2480 C2473 0.961 . S
H2481 C2473 0.960 . S
H2482 C2474 0.930 . S
H2483 C2475 0.929 . S
H2484 C2492 0.929 . S
H2485 C2494 0.930 . S
H2486 C2496 0.930 . S
H2487 C2499 0.929 . S
H2488 C2502 0.930 . S
H2489 C2504 0.960 . S
H2490 C2504 0.960 . S
H2491 C2504 0.960 . S
C2492 H2484 0.929 . S
C2492 C2493 1.377 . S
C2492 C2494 1.384 . S
C2493 C2492 1.377 . S
C2493 C2499 1.390 . S
C2494 H2485 0.930 . S
C2494 C2492 1.384 . S
C2494 C2495 1.372 . S
C2495 C2494 1.372 . S
C2495 C2496 1.400 . S
C2495 C2500 1.490 . S
C2496 H2486 0.930 . S
C2496 C2495 1.400 . S
C2496 C2499 1.386 . S
H2497 C2513 0.930 . S
H2498 C2514 0.931 . S
C2499 H2487 0.929 . S
C2499 C2493 1.390 . S
C2499 C2496 1.386 . S
C2500 C2495 1.490 . S
C2500 C2502 1.395 . S
C2500 C2503 1.403 . S
H2501 C2507 0.930 . S
C2502 H2488 0.930 . S
C2502 C2500 1.395 . S
C2502 C2505 1.403 . S
C2503 C2500 1.403 . S
C2503 C2504 1.524 . S
C2503 C2507 1.400 . S
C2504 H2489 0.960 . S
C2504 H2490 0.960 . S
C2504 H2491 0.960 . S
C2504 C2503 1.524 . S
C2505 C2502 1.403 . S
C2505 C2506 1.392 . S
C2505 C2509 1.495 . S
C2506 C2505 1.392 . S
C2506 C2507 1.385 . S
C2506 C2508 1.478 . S
C2507 H2501 0.930 . S
C2507 C2503 1.400 . S
C2507 C2506 1.385 . S
C2508 C2506 1.478 . S
C2508 C2510 1.381 . S
C2508 C2514 1.383 . S
C2509 C2505 1.495 . S
C2509 H2515 0.959 . S
C2509 H2516 0.961 . S
C2509 H2517 0.960 . S
C2510 C2508 1.381 . S
C2510 C2511 1.394 . S
C2510 H2518 0.930 . S
C2511 C2510 1.394 . S
C2511 C2512 1.383 . S
C2511 H2519 0.929 . S
C2512 C2511 1.383 . S
C2512 C2513 1.377 . S
C2513 H2497 0.930 . S
C2513 C2512 1.377 . S
C2513 C2514 1.379 . S
C2514 H2498 0.931 . S
C2514 C2508 1.383 . S
C2514 C2513 1.379 . S
H2515 C2509 0.959 . S
H2516 C2509 0.961 . S
H2517 C2509 0.960 . S
H2518 C2510 0.930 . S
H2519 C2511 0.929 . S
H2520 C2528 0.929 . S
H2521 C2530 0.930 . S
H2522 C2532 0.930 . S
H2523 C2535 0.929 . S
H2524 C2538 0.930 . S
H2525 C2540 0.960 . S
H2526 C2540 0.960 . S
H2527 C2540 0.960 . S
C2528 H2520 0.929 . S
C2528 C2529 1.377 . S
C2528 C2530 1.384 . S
C2529 C2528 1.377 . S
C2529 C2535 1.390 . S
C2530 H2521 0.930 . S
C2530 C2528 1.384 . S
C2530 C2531 1.372 . S
C2531 C2530 1.372 . S
C2531 C2532 1.400 . S
C2531 C2536 1.490 . S
C2532 H2522 0.930 . S
C2532 C2531 1.400 . S
C2532 C2535 1.386 . S
H2533 C2549 0.930 . S
H2534 C2550 0.931 . S
C2535 H2523 0.929 . S
C2535 C2529 1.390 . S
C2535 C2532 1.386 . S
C2536 C2531 1.490 . S
C2536 C2538 1.395 . S
C2536 C2539 1.403 . S
H2537 C2543 0.930 . S
C2538 H2524 0.930 . S
C2538 C2536 1.395 . S
C2538 C2541 1.403 . S
C2539 C2536 1.403 . S
C2539 C2540 1.524 . S
C2539 C2543 1.400 . S
C2540 H2525 0.960 . S
C2540 H2526 0.960 . S
C2540 H2527 0.960 . S
C2540 C2539 1.524 . S
C2541 C2538 1.403 . S
C2541 C2542 1.392 . S
C2541 C2545 1.495 . S
C2542 C2541 1.392 . S
C2542 C2543 1.385 . S
C2542 C2544 1.478 . S
C2543 H2537 0.930 . S
C2543 C2539 1.400 . S
C2543 C2542 1.385 . S
C2544 C2542 1.478 . S
C2544 C2546 1.381 . S
C2544 C2550 1.383 . S
C2545 C2541 1.495 . S
C2545 H2551 0.959 . S
C2545 H2552 0.961 . S
C2545 H2553 0.960 . S
C2546 C2544 1.381 . S
C2546 C2547 1.394 . S
C2546 H2554 0.930 . S
C2547 C2546 1.394 . S
C2547 C2548 1.383 . S
C2547 H2555 0.929 . S
C2548 C2547 1.383 . S
C2548 C2549 1.377 . S
C2549 H2533 0.930 . S
C2549 C2548 1.377 . S
C2549 C2550 1.379 . S
C2550 H2534 0.931 . S
C2550 C2544 1.383 . S
C2550 C2549 1.379 . S
H2551 C2545 0.959 . S
H2552 C2545 0.961 . S
H2553 C2545 0.960 . S
H2554 C2546 0.930 . S
H2555 C2547 0.929 . S
H2556 C2564 0.929 . S
H2557 C2566 0.930 . S
H2558 C2568 0.930 . S
H2559 C2571 0.929 . S
H2560 C2574 0.930 . S
H2561 C2576 0.960 . S
H2562 C2576 0.960 . S
H2563 C2576 0.960 . S
C2564 H2556 0.929 . S
C2564 C2565 1.377 . S
C2564 C2566 1.384 . S
C2565 C2564 1.377 . S
C2565 C2571 1.390 . S
C2566 H2557 0.930 . S
C2566 C2564 1.384 . S
C2566 C2567 1.372 . S
C2567 C2566 1.372 . S
C2567 C2568 1.400 . S
C2567 C2572 1.490 . S
C2568 H2558 0.930 . S
C2568 C2567 1.400 . S
C2568 C2571 1.386 . S
H2569 C2585 0.930 . S
H2570 C2586 0.931 . S
C2571 H2559 0.929 . S
C2571 C2565 1.390 . S
C2571 C2568 1.386 . S
C2572 C2567 1.490 . S
C2572 C2574 1.395 . S
C2572 C2575 1.403 . S
H2573 C2579 0.930 . S
C2574 H2560 0.930 . S
C2574 C2572 1.395 . S
C2574 C2577 1.403 . S
C2575 C2572 1.403 . S
C2575 C2576 1.524 . S
C2575 C2579 1.400 . S
C2576 H2561 0.960 . S
C2576 H2562 0.960 . S
C2576 H2563 0.960 . S
C2576 C2575 1.524 . S
C2577 C2574 1.403 . S
C2577 C2578 1.392 . S
C2577 C2581 1.495 . S
C2578 C2577 1.392 . S
C2578 C2579 1.385 . S
C2578 C2580 1.478 . S
C2579 H2573 0.930 . S
C2579 C2575 1.400 . S
C2579 C2578 1.385 . S
C2580 C2578 1.478 . S
C2580 C2582 1.381 . S
C2580 C2586 1.383 . S
C2581 C2577 1.495 . S
C2581 H2587 0.959 . S
C2581 H2588 0.961 . S
C2581 H2589 0.960 . S
C2582 C2580 1.381 . S
C2582 C2583 1.394 . S
C2582 H2590 0.930 . S
C2583 C2582 1.394 . S
C2583 C2584 1.383 . S
C2583 H2591 0.929 . S
C2584 C2583 1.383 . S
C2584 C2585 1.377 . S
C2585 H2569 0.930 . S
C2585 C2584 1.377 . S
C2585 C2586 1.379 . S
C2586 H2570 0.931 . S
C2586 C2580 1.383 . S
C2586 C2585 1.379 . S
H2587 C2581 0.959 . S
H2588 C2581 0.961 . S
H2589 C2581 0.960 . S
H2590 C2582 0.930 . S
H2591 C2583 0.929 . S
H2592 C2600 0.929 . S
H2593 C2602 0.930 . S
H2594 C2604 0.930 . S
H2595 C2607 0.929 . S
H2596 C2610 0.930 . S
H2597 C2612 0.960 . S
H2598 C2612 0.960 . S
H2599 C2612 0.960 . S
C2600 H2592 0.929 . S
C2600 C2601 1.377 . S
C2600 C2602 1.384 . S
C2601 C2600 1.377 . S
C2601 C2607 1.390 . S
C2602 H2593 0.930 . S
C2602 C2600 1.384 . S
C2602 C2603 1.372 . S
C2603 C2602 1.372 . S
C2603 C2604 1.400 . S
C2603 C2608 1.490 . S
C2604 H2594 0.930 . S
C2604 C2603 1.400 . S
C2604 C2607 1.386 . S
H2605 C2621 0.930 . S
H2606 C2622 0.931 . S
C2607 H2595 0.929 . S
C2607 C2601 1.390 . S
C2607 C2604 1.386 . S
C2608 C2603 1.490 . S
C2608 C2610 1.395 . S
C2608 C2611 1.403 . S
H2609 C2615 0.930 . S
C2610 H2596 0.930 . S
C2610 C2608 1.395 . S
C2610 C2613 1.403 . S
C2611 C2608 1.403 . S
C2611 C2612 1.524 . S
C2611 C2615 1.400 . S
C2612 H2597 0.960 . S
C2612 H2598 0.960 . S
C2612 H2599 0.960 . S
C2612 C2611 1.524 . S
C2613 C2610 1.403 . S
C2613 C2614 1.392 . S
C2613 C2617 1.495 . S
C2614 C2613 1.392 . S
C2614 C2615 1.385 . S
C2614 C2616 1.478 . S
C2615 H2609 0.930 . S
C2615 C2611 1.400 . S
C2615 C2614 1.385 . S
C2616 C2614 1.478 . S
C2616 C2618 1.381 . S
C2616 C2622 1.383 . S
C2617 C2613 1.495 . S
C2617 H2623 0.959 . S
C2617 H2624 0.961 . S
C2617 H2625 0.960 . S
C2618 C2616 1.381 . S
C2618 C2619 1.394 . S
C2618 H2626 0.930 . S
C2619 C2618 1.394 . S
C2619 C2620 1.383 . S
C2619 H2627 0.929 . S
C2620 C2619 1.383 . S
C2620 C2621 1.377 . S
C2621 H2605 0.930 . S
C2621 C2620 1.377 . S
C2621 C2622 1.379 . S
C2622 H2606 0.931 . S
C2622 C2616 1.383 . S
C2622 C2621 1.379 . S
H2623 C2617 0.959 . S
H2624 C2617 0.961 . S
H2625 C2617 0.960 . S
H2626 C2618 0.930 . S
H2627 C2619 0.929 . S
H2628 C2636 0.929 . S
H2629 C2638 0.930 . S
H2630 C2640 0.930 . S
H2631 C2643 0.929 . S
H2632 C2646 0.930 . S
H2633 C2648 0.960 . S
H2634 C2648 0.960 . S
H2635 C2648 0.960 . S
C2636 H2628 0.929 . S
C2636 C2637 1.377 . S
C2636 C2638 1.384 . S
C2637 C2636 1.377 . S
C2637 C2643 1.390 . S
C2638 H2629 0.930 . S
C2638 C2636 1.384 . S
C2638 C2639 1.372 . S
C2639 C2638 1.372 . S
C2639 C2640 1.400 . S
C2639 C2644 1.490 . S
C2640 H2630 0.930 . S
C2640 C2639 1.400 . S
C2640 C2643 1.386 . S
H2641 C2657 0.930 . S
H2642 C2658 0.931 . S
C2643 H2631 0.929 . S
C2643 C2637 1.390 . S
C2643 C2640 1.386 . S
C2644 C2639 1.490 . S
C2644 C2646 1.395 . S
C2644 C2647 1.403 . S
H2645 C2651 0.930 . S
C2646 H2632 0.930 . S
C2646 C2644 1.395 . S
C2646 C2649 1.403 . S
C2647 C2644 1.403 . S
C2647 C2648 1.524 . S
C2647 C2651 1.400 . S
C2648 H2633 0.960 . S
C2648 H2634 0.960 . S
C2648 H2635 0.960 . S
C2648 C2647 1.524 . S
C2649 C2646 1.403 . S
C2649 C2650 1.392 . S
C2649 C2653 1.495 . S
C2650 C2649 1.392 . S
C2650 C2651 1.385 . S
C2650 C2652 1.478 . S
C2651 H2645 0.930 . S
C2651 C2647 1.400 . S
C2651 C2650 1.385 . S
C2652 C2650 1.478 . S
C2652 C2654 1.381 . S
C2652 C2658 1.383 . S
C2653 C2649 1.495 . S
C2653 H2659 0.959 . S
C2653 H2660 0.961 . S
C2653 H2661 0.960 . S
C2654 C2652 1.381 . S
C2654 C2655 1.394 . S
C2654 H2662 0.930 . S
C2655 C2654 1.394 . S
C2655 C2656 1.383 . S
C2655 H2663 0.929 . S
C2656 C2655 1.383 . S
C2656 C2657 1.377 . S
C2657 H2641 0.930 . S
C2657 C2656 1.377 . S
C2657 C2658 1.379 . S
C2658 H2642 0.931 . S
C2658 C2652 1.383 . S
C2658 C2657 1.379 . S
H2659 C2653 0.959 . S
H2660 C2653 0.961 . S
H2661 C2653 0.960 . S
H2662 C2654 0.930 . S
H2663 C2655 0.929 . S
H2664 C2672 0.929 . S
H2665 C2674 0.930 . S
H2666 C2676 0.930 . S
H2667 C2679 0.929 . S
H2668 C2682 0.930 . S
H2669 C2684 0.960 . S
H2670 C2684 0.960 . S
H2671 C2684 0.960 . S
C2672 H2664 0.929 . S
C2672 C2673 1.377 . S
C2672 C2674 1.384 . S
C2673 C2672 1.377 . S
C2673 C2679 1.390 . S
C2674 H2665 0.930 . S
C2674 C2672 1.384 . S
C2674 C2675 1.372 . S
C2675 C2674 1.372 . S
C2675 C2676 1.400 . S
C2675 C2680 1.490 . S
C2676 H2666 0.930 . S
C2676 C2675 1.400 . S
C2676 C2679 1.386 . S
H2677 C2693 0.930 . S
H2678 C2694 0.931 . S
C2679 H2667 0.929 . S
C2679 C2673 1.390 . S
C2679 C2676 1.386 . S
C2680 C2675 1.490 . S
C2680 C2682 1.395 . S
C2680 C2683 1.403 . S
H2681 C2687 0.930 . S
C2682 H2668 0.930 . S
C2682 C2680 1.395 . S
C2682 C2685 1.403 . S
C2683 C2680 1.403 . S
C2683 C2684 1.524 . S
C2683 C2687 1.400 . S
C2684 H2669 0.960 . S
C2684 H2670 0.960 . S
C2684 H2671 0.960 . S
C2684 C2683 1.524 . S
C2685 C2682 1.403 . S
C2685 C2686 1.392 . S
C2685 C2689 1.495 . S
C2686 C2685 1.392 . S
C2686 C2687 1.385 . S
C2686 C2688 1.478 . S
C2687 H2681 0.930 . S
C2687 C2683 1.400 . S
C2687 C2686 1.385 . S
C2688 C2686 1.478 . S
C2688 C2690 1.381 . S
C2688 C2694 1.383 . S
C2689 C2685 1.495 . S
C2689 H2695 0.959 . S
C2689 H2696 0.961 . S
C2689 H2697 0.960 . S
C2690 C2688 1.381 . S
C2690 C2691 1.394 . S
C2690 H2698 0.930 . S
C2691 C2690 1.394 . S
C2691 C2692 1.383 . S
C2691 H2699 0.929 . S
C2692 C2691 1.383 . S
C2692 C2693 1.377 . S
C2693 H2677 0.930 . S
C2693 C2692 1.377 . S
C2693 C2694 1.379 . S
C2694 H2678 0.931 . S
C2694 C2688 1.383 . S
C2694 C2693 1.379 . S
H2695 C2689 0.959 . S
H2696 C2689 0.961 . S
H2697 C2689 0.960 . S
H2698 C2690 0.930 . S
H2699 C2691 0.929 . S
H2700 C2708 0.929 . S
H2701 C2710 0.930 . S
H2702 C2712 0.930 . S
H2703 C2715 0.929 . S
H2704 C2718 0.930 . S
H2705 C2720 0.960 . S
H2706 C2720 0.960 . S
H2707 C2720 0.960 . S
C2708 H2700 0.929 . S
C2708 C2709 1.377 . S
C2708 C2710 1.384 . S
C2709 C2708 1.377 . S
C2709 C2715 1.390 . S
C2710 H2701 0.930 . S
C2710 C2708 1.384 . S
C2710 C2711 1.372 . S
C2711 C2710 1.372 . S
C2711 C2712 1.400 . S
C2711 C2716 1.490 . S
C2712 H2702 0.930 . S
C2712 C2711 1.400 . S
C2712 C2715 1.386 . S
H2713 C2729 0.930 . S
H2714 C2730 0.931 . S
C2715 H2703 0.929 . S
C2715 C2709 1.390 . S
C2715 C2712 1.386 . S
C2716 C2711 1.490 . S
C2716 C2718 1.395 . S
C2716 C2719 1.403 . S
H2717 C2723 0.930 . S
C2718 H2704 0.930 . S
C2718 C2716 1.395 . S
C2718 C2721 1.403 . S
C2719 C2716 1.403 . S
C2719 C2720 1.524 . S
C2719 C2723 1.400 . S
C2720 H2705 0.960 . S
C2720 H2706 0.960 . S
C2720 H2707 0.960 . S
C2720 C2719 1.524 . S
C2721 C2718 1.403 . S
C2721 C2722 1.392 . S
C2721 C2725 1.495 . S
C2722 C2721 1.392 . S
C2722 C2723 1.385 . S
C2722 C2724 1.478 . S
C2723 H2717 0.930 . S
C2723 C2719 1.400 . S
C2723 C2722 1.385 . S
C2724 C2722 1.478 . S
C2724 C2726 1.381 . S
C2724 C2730 1.383 . S
C2725 C2721 1.495 . S
C2725 H2731 0.959 . S
C2725 H2732 0.961 . S
C2725 H2733 0.960 . S
C2726 C2724 1.381 . S
C2726 C2727 1.394 . S
C2726 H2734 0.930 . S
C2727 C2726 1.394 . S
C2727 C2728 1.383 . S
C2727 H2735 0.929 . S
C2728 C2727 1.383 . S
C2728 C2729 1.377 . S
C2729 H2713 0.930 . S
C2729 C2728 1.377 . S
C2729 C2730 1.379 . S
C2730 H2714 0.931 . S
C2730 C2724 1.383 . S
C2730 C2729 1.379 . S
H2731 C2725 0.959 . S
H2732 C2725 0.961 . S
H2733 C2725 0.960 . S
H2734 C2726 0.930 . S
H2735 C2727 0.929 . S
H2736 C2744 0.929 . S
H2737 C2746 0.930 . S
H2738 C2748 0.930 . S
H2739 C2751 0.929 . S
H2740 C2754 0.930 . S
H2741 C2756 0.960 . S
H2742 C2756 0.960 . S
H2743 C2756 0.960 . S
C2744 H2736 0.929 . S
C2744 C2745 1.377 . S
C2744 C2746 1.384 . S
C2745 C2744 1.377 . S
C2745 C2751 1.390 . S
C2746 H2737 0.930 . S
C2746 C2744 1.384 . S
C2746 C2747 1.372 . S
C2747 C2746 1.372 . S
C2747 C2748 1.400 . S
C2747 C2752 1.490 . S
C2748 H2738 0.930 . S
C2748 C2747 1.400 . S
C2748 C2751 1.386 . S
H2749 C2765 0.930 . S
H2750 C2766 0.931 . S
C2751 H2739 0.929 . S
C2751 C2745 1.390 . S
C2751 C2748 1.386 . S
C2752 C2747 1.490 . S
C2752 C2754 1.395 . S
C2752 C2755 1.403 . S
H2753 C2759 0.930 . S
C2754 H2740 0.930 . S
C2754 C2752 1.395 . S
C2754 C2757 1.403 . S
C2755 C2752 1.403 . S
C2755 C2756 1.524 . S
C2755 C2759 1.400 . S
C2756 H2741 0.960 . S
C2756 H2742 0.960 . S
C2756 H2743 0.960 . S
C2756 C2755 1.524 . S
C2757 C2754 1.403 . S
C2757 C2758 1.392 . S
C2757 C2761 1.495 . S
C2758 C2757 1.392 . S
C2758 C2759 1.385 . S
C2758 C2760 1.478 . S
C2759 H2753 0.930 . S
C2759 C2755 1.400 . S
C2759 C2758 1.385 . S
C2760 C2758 1.478 . S
C2760 C2762 1.381 . S
C2760 C2766 1.383 . S
C2761 C2757 1.495 . S
C2761 H2767 0.959 . S
C2761 H2768 0.961 . S
C2761 H2769 0.960 . S
C2762 C2760 1.381 . S
C2762 C2763 1.394 . S
C2762 H2770 0.930 . S
C2763 C2762 1.394 . S
C2763 C2764 1.383 . S
C2763 H2771 0.929 . S
C2764 C2763 1.383 . S
C2764 C2765 1.377 . S
C2765 H2749 0.930 . S
C2765 C2764 1.377 . S
C2765 C2766 1.379 . S
C2766 H2750 0.931 . S
C2766 C2760 1.383 . S
C2766 C2765 1.379 . S
H2767 C2761 0.959 . S
H2768 C2761 0.961 . S
H2769 C2761 0.960 . S
H2770 C2762 0.930 . S
H2771 C2763 0.929 . S
H2772 C2780 0.929 . S
H2773 C2782 0.930 . S
H2774 C2784 0.930 . S
H2775 C2787 0.929 . S
H2776 C2790 0.930 . S
H2777 C2792 0.960 . S
H2778 C2792 0.960 . S
H2779 C2792 0.960 . S
C2780 H2772 0.929 . S
C2780 C2781 1.377 . S
C2780 C2782 1.384 . S
C2781 C2780 1.377 . S
C2781 C2787 1.390 . S
C2782 H2773 0.930 . S
C2782 C2780 1.384 . S
C2782 C2783 1.372 . S
C2783 C2782 1.372 . S
C2783 C2784 1.400 . S
C2783 C2788 1.490 . S
C2784 H2774 0.930 . S
C2784 C2783 1.400 . S
C2784 C2787 1.386 . S
H2785 C2801 0.930 . S
H2786 C2802 0.931 . S
C2787 H2775 0.929 . S
C2787 C2781 1.390 . S
C2787 C2784 1.386 . S
C2788 C2783 1.490 . S
C2788 C2790 1.395 . S
C2788 C2791 1.403 . S
H2789 C2795 0.930 . S
C2790 H2776 0.930 . S
C2790 C2788 1.395 . S
C2790 C2793 1.403 . S
C2791 C2788 1.403 . S
C2791 C2792 1.524 . S
C2791 C2795 1.400 . S
C2792 H2777 0.960 . S
C2792 H2778 0.960 . S
C2792 H2779 0.960 . S
C2792 C2791 1.524 . S
C2793 C2790 1.403 . S
C2793 C2794 1.392 . S
C2793 C2797 1.495 . S
C2794 C2793 1.392 . S
C2794 C2795 1.385 . S
C2794 C2796 1.478 . S
C2795 H2789 0.930 . S
C2795 C2791 1.400 . S
C2795 C2794 1.385 . S
C2796 C2794 1.478 . S
C2796 C2798 1.381 . S
C2796 C2802 1.383 . S
C2797 C2793 1.495 . S
C2797 H2803 0.959 . S
C2797 H2804 0.961 . S
C2797 H2805 0.960 . S
C2798 C2796 1.381 . S
C2798 C2799 1.394 . S
C2798 H2806 0.930 . S
C2799 C2798 1.394 . S
C2799 C2800 1.383 . S
C2799 H2807 0.929 . S
C2800 C2799 1.383 . S
C2800 C2801 1.377 . S
C2801 H2785 0.930 . S
C2801 C2800 1.377 . S
C2801 C2802 1.379 . S
C2802 H2786 0.931 . S
C2802 C2796 1.383 . S
C2802 C2801 1.379 . S
H2803 C2797 0.959 . S
H2804 C2797 0.961 . S
H2805 C2797 0.960 . S
H2806 C2798 0.930 . S
H2807 C2799 0.929 . S
H2808 C2816 0.929 . S
H2809 C2818 0.930 . S
H2810 C2820 0.930 . S
H2811 C2823 0.929 . S
H2812 C2826 0.930 . S
H2813 C2828 0.960 . S
H2814 C2828 0.960 . S
H2815 C2828 0.960 . S
C2816 H2808 0.929 . S
C2816 C2817 1.377 . S
C2816 C2818 1.384 . S
C2817 C2816 1.377 . S
C2817 C2823 1.390 . S
C2818 H2809 0.930 . S
C2818 C2816 1.384 . S
C2818 C2819 1.372 . S
C2819 C2818 1.372 . S
C2819 C2820 1.400 . S
C2819 C2824 1.490 . S
C2820 H2810 0.930 . S
C2820 C2819 1.400 . S
C2820 C2823 1.386 . S
H2821 C2837 0.930 . S
H2822 C2838 0.931 . S
C2823 H2811 0.929 . S
C2823 C2817 1.390 . S
C2823 C2820 1.386 . S
C2824 C2819 1.490 . S
C2824 C2826 1.395 . S
C2824 C2827 1.403 . S
H2825 C2831 0.930 . S
C2826 H2812 0.930 . S
C2826 C2824 1.395 . S
C2826 C2829 1.403 . S
C2827 C2824 1.403 . S
C2827 C2828 1.524 . S
C2827 C2831 1.400 . S
C2828 H2813 0.960 . S
C2828 H2814 0.960 . S
C2828 H2815 0.960 . S
C2828 C2827 1.524 . S
C2829 C2826 1.403 . S
C2829 C2830 1.392 . S
C2829 C2833 1.495 . S
C2830 C2829 1.392 . S
C2830 C2831 1.385 . S
C2830 C2832 1.478 . S
C2831 H2825 0.930 . S
C2831 C2827 1.400 . S
C2831 C2830 1.385 . S
C2832 C2830 1.478 . S
C2832 C2834 1.381 . S
C2832 C2838 1.383 . S
C2833 C2829 1.495 . S
C2833 H2839 0.959 . S
C2833 H2840 0.961 . S
C2833 H2841 0.960 . S
C2834 C2832 1.381 . S
C2834 C2835 1.394 . S
C2834 H2842 0.930 . S
C2835 C2834 1.394 . S
C2835 C2836 1.383 . S
C2835 H2843 0.929 . S
C2836 C2835 1.383 . S
C2836 C2837 1.377 . S
C2837 H2821 0.930 . S
C2837 C2836 1.377 . S
C2837 C2838 1.379 . S
C2838 H2822 0.931 . S
C2838 C2832 1.383 . S
C2838 C2837 1.379 . S
H2839 C2833 0.959 . S
H2840 C2833 0.961 . S
H2841 C2833 0.960 . S
H2842 C2834 0.930 . S
H2843 C2835 0.929 . S
H2844 C2852 0.929 . S
H2845 C2854 0.930 . S
H2846 C2856 0.930 . S
H2847 C2859 0.929 . S
H2848 C2862 0.930 . S
H2849 C2864 0.960 . S
H2850 C2864 0.960 . S
H2851 C2864 0.960 . S
C2852 H2844 0.929 . S
C2852 C2853 1.377 . S
C2852 C2854 1.384 . S
C2853 C2852 1.377 . S
C2853 C2859 1.390 . S
C2854 H2845 0.930 . S
C2854 C2852 1.384 . S
C2854 C2855 1.372 . S
C2855 C2854 1.372 . S
C2855 C2856 1.400 . S
C2855 C2860 1.490 . S
C2856 H2846 0.930 . S
C2856 C2855 1.400 . S
C2856 C2859 1.386 . S
H2857 C2873 0.930 . S
H2858 C2874 0.931 . S
C2859 H2847 0.929 . S
C2859 C2853 1.390 . S
C2859 C2856 1.386 . S
C2860 C2855 1.490 . S
C2860 C2862 1.395 . S
C2860 C2863 1.403 . S
H2861 C2867 0.930 . S
C2862 H2848 0.930 . S
C2862 C2860 1.395 . S
C2862 C2865 1.403 . S
C2863 C2860 1.403 . S
C2863 C2864 1.524 . S
C2863 C2867 1.400 . S
C2864 H2849 0.960 . S
C2864 H2850 0.960 . S
C2864 H2851 0.960 . S
C2864 C2863 1.524 . S
C2865 C2862 1.403 . S
C2865 C2866 1.392 . S
C2865 C2869 1.495 . S
C2866 C2865 1.392 . S
C2866 C2867 1.385 . S
C2866 C2868 1.478 . S
C2867 H2861 0.930 . S
C2867 C2863 1.400 . S
C2867 C2866 1.385 . S
C2868 C2866 1.478 . S
C2868 C2870 1.381 . S
C2868 C2874 1.383 . S
C2869 C2865 1.495 . S
C2869 H2875 0.959 . S
C2869 H2876 0.961 . S
C2869 H2877 0.960 . S
C2870 C2868 1.381 . S
C2870 C2871 1.394 . S
C2870 H2878 0.930 . S
C2871 C2870 1.394 . S
C2871 C2872 1.383 . S
C2871 H2879 0.929 . S
C2872 C2871 1.383 . S
C2872 C2873 1.377 . S
C2873 H2857 0.930 . S
C2873 C2872 1.377 . S
C2873 C2874 1.379 . S
C2874 H2858 0.931 . S
C2874 C2868 1.383 . S
C2874 C2873 1.379 . S
H2875 C2869 0.959 . S
H2876 C2869 0.961 . S
H2877 C2869 0.960 . S
H2878 C2870 0.930 . S
H2879 C2871 0.929 . S
H2880 C2888 0.929 . S
H2881 C2890 0.930 . S
H2882 C2892 0.930 . S
H2883 C2895 0.929 . S
H2884 C2898 0.930 . S
H2885 C2900 0.960 . S
H2886 C2900 0.960 . S
H2887 C2900 0.960 . S
C2888 H2880 0.929 . S
C2888 C2889 1.377 . S
C2888 C2890 1.384 . S
C2889 C2888 1.377 . S
C2889 C2895 1.390 . S
C2890 H2881 0.930 . S
C2890 C2888 1.384 . S
C2890 C2891 1.372 . S
C2891 C2890 1.372 . S
C2891 C2892 1.400 . S
C2891 C2896 1.490 . S
C2892 H2882 0.930 . S
C2892 C2891 1.400 . S
C2892 C2895 1.386 . S
H2893 C2909 0.930 . S
H2894 C2910 0.931 . S
C2895 H2883 0.929 . S
C2895 C2889 1.390 . S
C2895 C2892 1.386 . S
C2896 C2891 1.490 . S
C2896 C2898 1.395 . S
C2896 C2899 1.403 . S
H2897 C2903 0.930 . S
C2898 H2884 0.930 . S
C2898 C2896 1.395 . S
C2898 C2901 1.403 . S
C2899 C2896 1.403 . S
C2899 C2900 1.524 . S
C2899 C2903 1.400 . S
C2900 H2885 0.960 . S
C2900 H2886 0.960 . S
C2900 H2887 0.960 . S
C2900 C2899 1.524 . S
C2901 C2898 1.403 . S
C2901 C2902 1.392 . S
C2901 C2905 1.495 . S
C2902 C2901 1.392 . S
C2902 C2903 1.385 . S
C2902 C2904 1.478 . S
C2903 H2897 0.930 . S
C2903 C2899 1.400 . S
C2903 C2902 1.385 . S
C2904 C2902 1.478 . S
C2904 C2906 1.381 . S
C2904 C2910 1.383 . S
C2905 C2901 1.495 . S
C2905 H2911 0.959 . S
C2905 H2912 0.961 . S
C2905 H2913 0.960 . S
C2906 C2904 1.381 . S
C2906 C2907 1.394 . S
C2906 H2914 0.930 . S
C2907 C2906 1.394 . S
C2907 C2908 1.383 . S
C2907 H2915 0.929 . S
C2908 C2907 1.383 . S
C2908 C2909 1.377 . S
C2909 H2893 0.930 . S
C2909 C2908 1.377 . S
C2909 C2910 1.379 . S
C2910 H2894 0.931 . S
C2910 C2904 1.383 . S
C2910 C2909 1.379 . S
H2911 C2905 0.959 . S
H2912 C2905 0.961 . S
H2913 C2905 0.960 . S
H2914 C2906 0.930 . S
H2915 C2907 0.929 . S
H2916 C2924 0.929 . S
H2917 C2926 0.930 . S
H2918 C2928 0.930 . S
H2919 C2931 0.929 . S
H2920 C2934 0.930 . S
H2921 C2936 0.960 . S
H2922 C2936 0.960 . S
H2923 C2936 0.960 . S
C2924 H2916 0.929 . S
C2924 C2925 1.377 . S
C2924 C2926 1.384 . S
C2925 C2924 1.377 . S
C2925 C2931 1.390 . S
C2926 H2917 0.930 . S
C2926 C2924 1.384 . S
C2926 C2927 1.372 . S
C2927 C2926 1.372 . S
C2927 C2928 1.400 . S
C2927 C2932 1.490 . S
C2928 H2918 0.930 . S
C2928 C2927 1.400 . S
C2928 C2931 1.386 . S
H2929 C2945 0.930 . S
H2930 C2946 0.931 . S
C2931 H2919 0.929 . S
C2931 C2925 1.390 . S
C2931 C2928 1.386 . S
C2932 C2927 1.490 . S
C2932 C2934 1.395 . S
C2932 C2935 1.403 . S
H2933 C2939 0.930 . S
C2934 H2920 0.930 . S
C2934 C2932 1.395 . S
C2934 C2937 1.403 . S
C2935 C2932 1.403 . S
C2935 C2936 1.524 . S
C2935 C2939 1.400 . S
C2936 H2921 0.960 . S
C2936 H2922 0.960 . S
C2936 H2923 0.960 . S
C2936 C2935 1.524 . S
C2937 C2934 1.403 . S
C2937 C2938 1.392 . S
C2937 C2941 1.495 . S
C2938 C2937 1.392 . S
C2938 C2939 1.385 . S
C2938 C2940 1.478 . S
C2939 H2933 0.930 . S
C2939 C2935 1.400 . S
C2939 C2938 1.385 . S
C2940 C2938 1.478 . S
C2940 C2942 1.381 . S
C2940 C2946 1.383 . S
C2941 C2937 1.495 . S
C2941 H2947 0.959 . S
C2941 H2948 0.961 . S
C2941 H2949 0.960 . S
C2942 C2940 1.381 . S
C2942 C2943 1.394 . S
C2942 H2950 0.930 . S
C2943 C2942 1.394 . S
C2943 C2944 1.383 . S
C2943 H2951 0.929 . S
C2944 C2943 1.383 . S
C2944 C2945 1.377 . S
C2945 H2929 0.930 . S
C2945 C2944 1.377 . S
C2945 C2946 1.379 . S
C2946 H2930 0.931 . S
C2946 C2940 1.383 . S
C2946 C2945 1.379 . S
H2947 C2941 0.959 . S
H2948 C2941 0.961 . S
H2949 C2941 0.960 . S
H2950 C2942 0.930 . S
H2951 C2943 0.929 . S
H2952 C2960 0.929 . S
H2953 C2962 0.930 . S
H2954 C2964 0.930 . S
H2955 C2967 0.929 . S
H2956 C2970 0.930 . S
H2957 C2972 0.960 . S
H2958 C2972 0.960 . S
H2959 C2972 0.960 . S
C2960 H2952 0.929 . S
C2960 C2961 1.377 . S
C2960 C2962 1.384 . S
C2961 C2960 1.377 . S
C2961 C2967 1.390 . S
C2962 H2953 0.930 . S
C2962 C2960 1.384 . S
C2962 C2963 1.372 . S
C2963 C2962 1.372 . S
C2963 C2964 1.400 . S
C2963 C2968 1.490 . S
C2964 H2954 0.930 . S
C2964 C2963 1.400 . S
C2964 C2967 1.386 . S
H2965 C2981 0.930 . S
H2966 C2982 0.931 . S
C2967 H2955 0.929 . S
C2967 C2961 1.390 . S
C2967 C2964 1.386 . S
C2968 C2963 1.490 . S
C2968 C2970 1.395 . S
C2968 C2971 1.403 . S
H2969 C2975 0.930 . S
C2970 H2956 0.930 . S
C2970 C2968 1.395 . S
C2970 C2973 1.403 . S
C2971 C2968 1.403 . S
C2971 C2972 1.524 . S
C2971 C2975 1.400 . S
C2972 H2957 0.960 . S
C2972 H2958 0.960 . S
C2972 H2959 0.960 . S
C2972 C2971 1.524 . S
C2973 C2970 1.403 . S
C2973 C2974 1.392 . S
C2973 C2977 1.495 . S
C2974 C2973 1.392 . S
C2974 C2975 1.385 . S
C2974 C2976 1.478 . S
C2975 H2969 0.930 . S
C2975 C2971 1.400 . S
C2975 C2974 1.385 . S
C2976 C2974 1.478 . S
C2976 C2978 1.381 . S
C2976 C2982 1.383 . S
C2977 C2973 1.495 . S
C2977 H2983 0.959 . S
C2977 H2984 0.961 . S
C2977 H2985 0.960 . S
C2978 C2976 1.381 . S
C2978 C2979 1.394 . S
C2978 H2986 0.930 . S
C2979 C2978 1.394 . S
C2979 C2980 1.383 . S
C2979 H2987 0.929 . S
C2980 C2979 1.383 . S
C2980 C2981 1.377 . S
C2981 H2965 0.930 . S
C2981 C2980 1.377 . S
C2981 C2982 1.379 . S
C2982 H2966 0.931 . S
C2982 C2976 1.383 . S
C2982 C2981 1.379 . S
H2983 C2977 0.959 . S
H2984 C2977 0.961 . S
H2985 C2977 0.960 . S
H2986 C2978 0.930 . S
H2987 C2979 0.929 . S
H2988 C2996 0.929 . S
H2989 C2998 0.930 . S
H2990 C3000 0.930 . S
H2991 C3003 0.929 . S
H2992 C3006 0.930 . S
H2993 C3008 0.960 . S
H2994 C3008 0.960 . S
H2995 C3008 0.960 . S
C2996 H2988 0.929 . S
C2996 C2997 1.377 . S
C2996 C2998 1.384 . S
C2997 C2996 1.377 . S
C2997 C3003 1.390 . S
C2998 H2989 0.930 . S
C2998 C2996 1.384 . S
C2998 C2999 1.372 . S
C2999 C2998 1.372 . S
C2999 C3000 1.400 . S
C2999 C3004 1.490 . S
C3000 H2990 0.930 . S
C3000 C2999 1.400 . S
C3000 C3003 1.386 . S
H3001 C3017 0.930 . S
H3002 C3018 0.931 . S
C3003 H2991 0.929 . S
C3003 C2997 1.390 . S
C3003 C3000 1.386 . S
C3004 C2999 1.490 . S
C3004 C3006 1.395 . S
C3004 C3007 1.403 . S
H3005 C3011 0.930 . S
C3006 H2992 0.930 . S
C3006 C3004 1.395 . S
C3006 C3009 1.403 . S
C3007 C3004 1.403 . S
C3007 C3008 1.524 . S
C3007 C3011 1.400 . S
C3008 H2993 0.960 . S
C3008 H2994 0.960 . S
C3008 H2995 0.960 . S
C3008 C3007 1.524 . S
C3009 C3006 1.403 . S
C3009 C3010 1.392 . S
C3009 C3013 1.495 . S
C3010 C3009 1.392 . S
C3010 C3011 1.385 . S
C3010 C3012 1.478 . S
C3011 H3005 0.930 . S
C3011 C3007 1.400 . S
C3011 C3010 1.385 . S
C3012 C3010 1.478 . S
C3012 C3014 1.381 . S
C3012 C3018 1.383 . S
C3013 C3009 1.495 . S
C3013 H3019 0.959 . S
C3013 H3020 0.961 . S
C3013 H3021 0.960 . S
C3014 C3012 1.381 . S
C3014 C3015 1.394 . S
C3014 H3022 0.930 . S
C3015 C3014 1.394 . S
C3015 C3016 1.383 . S
C3015 H3023 0.929 . S
C3016 C3015 1.383 . S
C3016 C3017 1.377 . S
C3017 H3001 0.930 . S
C3017 C3016 1.377 . S
C3017 C3018 1.379 . S
C3018 H3002 0.931 . S
C3018 C3012 1.383 . S
C3018 C3017 1.379 . S
H3019 C3013 0.959 . S
H3020 C3013 0.961 . S
H3021 C3013 0.960 . S
H3022 C3014 0.930 . S
H3023 C3015 0.929 . S
H3024 C3032 0.929 . S
H3025 C3034 0.930 . S
H3026 C3036 0.930 . S
H3027 C3039 0.929 . S
H3028 C3042 0.930 . S
H3029 C3044 0.960 . S
H3030 C3044 0.960 . S
H3031 C3044 0.960 . S
C3032 H3024 0.929 . S
C3032 C3033 1.377 . S
C3032 C3034 1.384 . S
C3033 C3032 1.377 . S
C3033 C3039 1.390 . S
C3034 H3025 0.930 . S
C3034 C3032 1.384 . S
C3034 C3035 1.372 . S
C3035 C3034 1.372 . S
C3035 C3036 1.400 . S
C3035 C3040 1.490 . S
C3036 H3026 0.930 . S
C3036 C3035 1.400 . S
C3036 C3039 1.386 . S
H3037 C3053 0.930 . S
H3038 C3054 0.931 . S
C3039 H3027 0.929 . S
C3039 C3033 1.390 . S
C3039 C3036 1.386 . S
C3040 C3035 1.490 . S
C3040 C3042 1.395 . S
C3040 C3043 1.403 . S
H3041 C3047 0.930 . S
C3042 H3028 0.930 . S
C3042 C3040 1.395 . S
C3042 C3045 1.403 . S
C3043 C3040 1.403 . S
C3043 C3044 1.524 . S
C3043 C3047 1.400 . S
C3044 H3029 0.960 . S
C3044 H3030 0.960 . S
C3044 H3031 0.960 . S
C3044 C3043 1.524 . S
C3045 C3042 1.403 . S
C3045 C3046 1.392 . S
C3045 C3049 1.495 . S
C3046 C3045 1.392 . S
C3046 C3047 1.385 . S
C3046 C3048 1.478 . S
C3047 H3041 0.930 . S
C3047 C3043 1.400 . S
C3047 C3046 1.385 . S
C3048 C3046 1.478 . S
C3048 C3050 1.381 . S
C3048 C3054 1.383 . S
C3049 C3045 1.495 . S
C3049 H3055 0.959 . S
C3049 H3056 0.961 . S
C3049 H3057 0.960 . S
C3050 C3048 1.381 . S
C3050 C3051 1.394 . S
C3050 H3058 0.930 . S
C3051 C3050 1.394 . S
C3051 C3052 1.383 . S
C3051 H3059 0.929 . S
C3052 C3051 1.383 . S
C3052 C3053 1.377 . S
C3053 H3037 0.930 . S
C3053 C3052 1.377 . S
C3053 C3054 1.379 . S
C3054 H3038 0.931 . S
C3054 C3048 1.383 . S
C3054 C3053 1.379 . S
H3055 C3049 0.959 . S
H3056 C3049 0.961 . S
H3057 C3049 0.960 . S
H3058 C3050 0.930 . S
H3059 C3051 0.929 . S
H3060 C3068 0.929 . S
H3061 C3070 0.930 . S
H3062 C3072 0.930 . S
H3063 C3075 0.929 . S
H3064 C3078 0.930 . S
H3065 C3080 0.960 . S
H3066 C3080 0.960 . S
H3067 C3080 0.960 . S
C3068 H3060 0.929 . S
C3068 C3069 1.377 . S
C3068 C3070 1.384 . S
C3069 C3068 1.377 . S
C3069 C3075 1.390 . S
C3070 H3061 0.930 . S
C3070 C3068 1.384 . S
C3070 C3071 1.372 . S
C3071 C3070 1.372 . S
C3071 C3072 1.400 . S
C3071 C3076 1.490 . S
C3072 H3062 0.930 . S
C3072 C3071 1.400 . S
C3072 C3075 1.386 . S
H3073 C3089 0.930 . S
H3074 C3090 0.931 . S
C3075 H3063 0.929 . S
C3075 C3069 1.390 . S
C3075 C3072 1.386 . S
C3076 C3071 1.490 . S
C3076 C3078 1.395 . S
C3076 C3079 1.403 . S
H3077 C3083 0.930 . S
C3078 H3064 0.930 . S
C3078 C3076 1.395 . S
C3078 C3081 1.403 . S
C3079 C3076 1.403 . S
C3079 C3080 1.524 . S
C3079 C3083 1.400 . S
C3080 H3065 0.960 . S
C3080 H3066 0.960 . S
C3080 H3067 0.960 . S
C3080 C3079 1.524 . S
C3081 C3078 1.403 . S
C3081 C3082 1.392 . S
C3081 C3085 1.495 . S
C3082 C3081 1.392 . S
C3082 C3083 1.385 . S
C3082 C3084 1.478 . S
C3083 H3077 0.930 . S
C3083 C3079 1.400 . S
C3083 C3082 1.385 . S
C3084 C3082 1.478 . S
C3084 C3086 1.381 . S
C3084 C3090 1.383 . S
C3085 C3081 1.495 . S
C3085 H3091 0.959 . S
C3085 H3092 0.961 . S
C3085 H3093 0.960 . S
C3086 C3084 1.381 . S
C3086 C3087 1.394 . S
C3086 H3094 0.930 . S
C3087 C3086 1.394 . S
C3087 C3088 1.383 . S
C3087 H3095 0.929 . S
C3088 C3087 1.383 . S
C3088 C3089 1.377 . S
C3089 H3073 0.930 . S
C3089 C3088 1.377 . S
C3089 C3090 1.379 . S
C3090 H3074 0.931 . S
C3090 C3084 1.383 . S
C3090 C3089 1.379 . S
H3091 C3085 0.959 . S
H3092 C3085 0.961 . S
H3093 C3085 0.960 . S
H3094 C3086 0.930 . S
H3095 C3087 0.929 . S
H3096 C3104 0.929 . S
H3097 C3106 0.930 . S
H3098 C3108 0.930 . S
H3099 C3111 0.929 . S
H3100 C3114 0.930 . S
H3101 C3116 0.960 . S
H3102 C3116 0.960 . S
H3103 C3116 0.960 . S
C3104 H3096 0.929 . S
C3104 C3105 1.377 . S
C3104 C3106 1.384 . S
C3105 C3104 1.377 . S
C3105 C3111 1.390 . S
C3106 H3097 0.930 . S
C3106 C3104 1.384 . S
C3106 C3107 1.372 . S
C3107 C3106 1.372 . S
C3107 C3108 1.400 . S
C3107 C3112 1.490 . S
C3108 H3098 0.930 . S
C3108 C3107 1.400 . S
C3108 C3111 1.386 . S
H3109 C3125 0.930 . S
H3110 C3126 0.931 . S
C3111 H3099 0.929 . S
C3111 C3105 1.390 . S
C3111 C3108 1.386 . S
C3112 C3107 1.490 . S
C3112 C3114 1.395 . S
C3112 C3115 1.403 . S
H3113 C3119 0.930 . S
C3114 H3100 0.930 . S
C3114 C3112 1.395 . S
C3114 C3117 1.403 . S
C3115 C3112 1.403 . S
C3115 C3116 1.524 . S
C3115 C3119 1.400 . S
C3116 H3101 0.960 . S
C3116 H3102 0.960 . S
C3116 H3103 0.960 . S
C3116 C3115 1.524 . S
C3117 C3114 1.403 . S
C3117 C3118 1.392 . S
C3117 C3121 1.495 . S
C3118 C3117 1.392 . S
C3118 C3119 1.385 . S
C3118 C3120 1.478 . S
C3119 H3113 0.930 . S
C3119 C3115 1.400 . S
C3119 C3118 1.385 . S
C3120 C3118 1.478 . S
C3120 C3122 1.381 . S
C3120 C3126 1.383 . S
C3121 C3117 1.495 . S
C3121 H3127 0.959 . S
C3121 H3128 0.961 . S
C3121 H3129 0.960 . S
C3122 C3120 1.381 . S
C3122 C3123 1.394 . S
C3122 H3130 0.930 . S
C3123 C3122 1.394 . S
C3123 C3124 1.383 . S
C3123 H3131 0.929 . S
C3124 C3123 1.383 . S
C3124 C3125 1.377 . S
C3125 H3109 0.930 . S
C3125 C3124 1.377 . S
C3125 C3126 1.379 . S
C3126 H3110 0.931 . S
C3126 C3120 1.383 . S
C3126 C3125 1.379 . S
H3127 C3121 0.959 . S
H3128 C3121 0.961 . S
H3129 C3121 0.960 . S
H3130 C3122 0.930 . S
H3131 C3123 0.929 . S
H3132 C3140 0.929 . S
H3133 C3142 0.930 . S
H3134 C3144 0.930 . S
H3135 C3147 0.929 . S
H3136 C3150 0.930 . S
H3137 C3152 0.960 . S
H3138 C3152 0.960 . S
H3139 C3152 0.960 . S
C3140 H3132 0.929 . S
C3140 C3141 1.377 . S
C3140 C3142 1.384 . S
C3141 C3140 1.377 . S
C3141 C3147 1.390 . S
C3142 H3133 0.930 . S
C3142 C3140 1.384 . S
C3142 C3143 1.372 . S
C3143 C3142 1.372 . S
C3143 C3144 1.400 . S
C3143 C3148 1.490 . S
C3144 H3134 0.930 . S
C3144 C3143 1.400 . S
C3144 C3147 1.386 . S
H3145 C3161 0.930 . S
H3146 C3162 0.931 . S
C3147 H3135 0.929 . S
C3147 C3141 1.390 . S
C3147 C3144 1.386 . S
C3148 C3143 1.490 . S
C3148 C3150 1.395 . S
C3148 C3151 1.403 . S
H3149 C3155 0.930 . S
C3150 H3136 0.930 . S
C3150 C3148 1.395 . S
C3150 C3153 1.403 . S
C3151 C3148 1.403 . S
C3151 C3152 1.524 . S
C3151 C3155 1.400 . S
C3152 H3137 0.960 . S
C3152 H3138 0.960 . S
C3152 H3139 0.960 . S
C3152 C3151 1.524 . S
C3153 C3150 1.403 . S
C3153 C3154 1.392 . S
C3153 C3157 1.495 . S
C3154 C3153 1.392 . S
C3154 C3155 1.385 . S
C3154 C3156 1.478 . S
C3155 H3149 0.930 . S
C3155 C3151 1.400 . S
C3155 C3154 1.385 . S
C3156 C3154 1.478 . S
C3156 C3158 1.381 . S
C3156 C3162 1.383 . S
C3157 C3153 1.495 . S
C3157 H3163 0.959 . S
C3157 H3164 0.961 . S
C3157 H3165 0.960 . S
C3158 C3156 1.381 . S
C3158 C3159 1.394 . S
C3158 H3166 0.930 . S
C3159 C3158 1.394 . S
C3159 C3160 1.383 . S
C3159 H3167 0.929 . S
C3160 C3159 1.383 . S
C3160 C3161 1.377 . S
C3161 H3145 0.930 . S
C3161 C3160 1.377 . S
C3161 C3162 1.379 . S
C3162 H3146 0.931 . S
C3162 C3156 1.383 . S
C3162 C3161 1.379 . S
H3163 C3157 0.959 . S
H3164 C3157 0.961 . S
H3165 C3157 0.960 . S
H3166 C3158 0.930 . S
H3167 C3159 0.929 . S
H3168 C3176 0.929 . S
H3169 C3178 0.930 . S
H3170 C3180 0.930 . S
H3171 C3183 0.929 . S
H3172 C3186 0.930 . S
H3173 C3188 0.960 . S
H3174 C3188 0.960 . S
H3175 C3188 0.960 . S
C3176 H3168 0.929 . S
C3176 C3177 1.377 . S
C3176 C3178 1.384 . S
C3177 C3176 1.377 . S
C3177 C3183 1.390 . S
C3178 H3169 0.930 . S
C3178 C3176 1.384 . S
C3178 C3179 1.372 . S
C3179 C3178 1.372 . S
C3179 C3180 1.400 . S
C3179 C3184 1.490 . S
C3180 H3170 0.930 . S
C3180 C3179 1.400 . S
C3180 C3183 1.386 . S
H3181 C3197 0.930 . S
H3182 C3198 0.931 . S
C3183 H3171 0.929 . S
C3183 C3177 1.390 . S
C3183 C3180 1.386 . S
C3184 C3179 1.490 . S
C3184 C3186 1.395 . S
C3184 C3187 1.403 . S
H3185 C3191 0.930 . S
C3186 H3172 0.930 . S
C3186 C3184 1.395 . S
C3186 C3189 1.403 . S
C3187 C3184 1.403 . S
C3187 C3188 1.524 . S
C3187 C3191 1.400 . S
C3188 H3173 0.960 . S
C3188 H3174 0.960 . S
C3188 H3175 0.960 . S
C3188 C3187 1.524 . S
C3189 C3186 1.403 . S
C3189 C3190 1.392 . S
C3189 C3193 1.495 . S
C3190 C3189 1.392 . S
C3190 C3191 1.385 . S
C3190 C3192 1.478 . S
C3191 H3185 0.930 . S
C3191 C3187 1.400 . S
C3191 C3190 1.385 . S
C3192 C3190 1.478 . S
C3192 C3194 1.381 . S
C3192 C3198 1.383 . S
C3193 C3189 1.495 . S
C3193 H3199 0.959 . S
C3193 H3200 0.961 . S
C3193 H3201 0.960 . S
C3194 C3192 1.381 . S
C3194 C3195 1.394 . S
C3194 H3202 0.930 . S
C3195 C3194 1.394 . S
C3195 C3196 1.383 . S
C3195 H3203 0.929 . S
C3196 C3195 1.383 . S
C3196 C3197 1.377 . S
C3197 H3181 0.930 . S
C3197 C3196 1.377 . S
C3197 C3198 1.379 . S
C3198 H3182 0.931 . S
C3198 C3192 1.383 . S
C3198 C3197 1.379 . S
H3199 C3193 0.959 . S
H3200 C3193 0.961 . S
H3201 C3193 0.960 . S
H3202 C3194 0.930 . S
H3203 C3195 0.929 . S
H3204 C3212 0.929 . S
H3205 C3214 0.930 . S
H3206 C3216 0.930 . S
H3207 C3219 0.929 . S
H3208 C3222 0.930 . S
H3209 C3224 0.960 . S
H3210 C3224 0.960 . S
H3211 C3224 0.960 . S
C3212 H3204 0.929 . S
C3212 C3213 1.377 . S
C3212 C3214 1.384 . S
C3213 C3212 1.377 . S
C3213 C3219 1.390 . S
C3214 H3205 0.930 . S
C3214 C3212 1.384 . S
C3214 C3215 1.372 . S
C3215 C3214 1.372 . S
C3215 C3216 1.400 . S
C3215 C3220 1.490 . S
C3216 H3206 0.930 . S
C3216 C3215 1.400 . S
C3216 C3219 1.386 . S
H3217 C3233 0.930 . S
H3218 C3234 0.931 . S
C3219 H3207 0.929 . S
C3219 C3213 1.390 . S
C3219 C3216 1.386 . S
C3220 C3215 1.490 . S
C3220 C3222 1.395 . S
C3220 C3223 1.403 . S
H3221 C3227 0.930 . S
C3222 H3208 0.930 . S
C3222 C3220 1.395 . S
C3222 C3225 1.403 . S
C3223 C3220 1.403 . S
C3223 C3224 1.524 . S
C3223 C3227 1.400 . S
C3224 H3209 0.960 . S
C3224 H3210 0.960 . S
C3224 H3211 0.960 . S
C3224 C3223 1.524 . S
C3225 C3222 1.403 . S
C3225 C3226 1.392 . S
C3225 C3229 1.495 . S
C3226 C3225 1.392 . S
C3226 C3227 1.385 . S
C3226 C3228 1.478 . S
C3227 H3221 0.930 . S
C3227 C3223 1.400 . S
C3227 C3226 1.385 . S
C3228 C3226 1.478 . S
C3228 C3230 1.381 . S
C3228 C3234 1.383 . S
C3229 C3225 1.495 . S
C3229 H3235 0.959 . S
C3229 H3236 0.961 . S
C3229 H3237 0.960 . S
C3230 C3228 1.381 . S
C3230 C3231 1.394 . S
C3230 H3238 0.930 . S
C3231 C3230 1.394 . S
C3231 C3232 1.383 . S
C3231 H3239 0.929 . S
C3232 C3231 1.383 . S
C3232 C3233 1.377 . S
C3233 H3217 0.930 . S
C3233 C3232 1.377 . S
C3233 C3234 1.379 . S
C3234 H3218 0.931 . S
C3234 C3228 1.383 . S
C3234 C3233 1.379 . S
H3235 C3229 0.959 . S
H3236 C3229 0.961 . S
H3237 C3229 0.960 . S
H3238 C3230 0.930 . S
H3239 C3231 0.929 . S
H3240 C3248 0.929 . S
H3241 C3250 0.930 . S
H3242 C3252 0.930 . S
H3243 C3255 0.929 . S
H3244 C3258 0.930 . S
H3245 C3260 0.960 . S
H3246 C3260 0.960 . S
H3247 C3260 0.960 . S
C3248 H3240 0.929 . S
C3248 C3249 1.377 . S
C3248 C3250 1.384 . S
C3249 C3248 1.377 . S
C3249 C3255 1.390 . S
C3250 H3241 0.930 . S
C3250 C3248 1.384 . S
C3250 C3251 1.372 . S
C3251 C3250 1.372 . S
C3251 C3252 1.400 . S
C3251 C3256 1.490 . S
C3252 H3242 0.930 . S
C3252 C3251 1.400 . S
C3252 C3255 1.386 . S
H3253 C3269 0.930 . S
H3254 C3270 0.931 . S
C3255 H3243 0.929 . S
C3255 C3249 1.390 . S
C3255 C3252 1.386 . S
C3256 C3251 1.490 . S
C3256 C3258 1.395 . S
C3256 C3259 1.403 . S
H3257 C3263 0.930 . S
C3258 H3244 0.930 . S
C3258 C3256 1.395 . S
C3258 C3261 1.403 . S
C3259 C3256 1.403 . S
C3259 C3260 1.524 . S
C3259 C3263 1.400 . S
C3260 H3245 0.960 . S
C3260 H3246 0.960 . S
C3260 H3247 0.960 . S
C3260 C3259 1.524 . S
C3261 C3258 1.403 . S
C3261 C3262 1.392 . S
C3261 C3265 1.495 . S
C3262 C3261 1.392 . S
C3262 C3263 1.385 . S
C3262 C3264 1.478 . S
C3263 H3257 0.930 . S
C3263 C3259 1.400 . S
C3263 C3262 1.385 . S
C3264 C3262 1.478 . S
C3264 C3266 1.381 . S
C3264 C3270 1.383 . S
C3265 C3261 1.495 . S
C3265 H3271 0.959 . S
C3265 H3272 0.961 . S
C3265 H3273 0.960 . S
C3266 C3264 1.381 . S
C3266 C3267 1.394 . S
C3266 H3274 0.930 . S
C3267 C3266 1.394 . S
C3267 C3268 1.383 . S
C3267 H3275 0.929 . S
C3268 C3267 1.383 . S
C3268 C3269 1.377 . S
C3269 H3253 0.930 . S
C3269 C3268 1.377 . S
C3269 C3270 1.379 . S
C3270 H3254 0.931 . S
C3270 C3264 1.383 . S
C3270 C3269 1.379 . S
H3271 C3265 0.959 . S
H3272 C3265 0.961 . S
H3273 C3265 0.960 . S
H3274 C3266 0.930 . S
H3275 C3267 0.929 . S
H3276 C3284 0.929 . S
H3277 C3286 0.930 . S
H3278 C3288 0.930 . S
H3279 C3291 0.929 . S
H3280 C3294 0.930 . S
H3281 C3296 0.960 . S
H3282 C3296 0.960 . S
H3283 C3296 0.960 . S
C3284 H3276 0.929 . S
C3284 C3285 1.377 . S
C3284 C3286 1.384 . S
C3285 C3284 1.377 . S
C3285 C3291 1.390 . S
C3286 H3277 0.930 . S
C3286 C3284 1.384 . S
C3286 C3287 1.372 . S
C3287 C3286 1.372 . S
C3287 C3288 1.400 . S
C3287 C3292 1.490 . S
C3288 H3278 0.930 . S
C3288 C3287 1.400 . S
C3288 C3291 1.386 . S
H3289 C3305 0.930 . S
H3290 C3306 0.931 . S
C3291 H3279 0.929 . S
C3291 C3285 1.390 . S
C3291 C3288 1.386 . S
C3292 C3287 1.490 . S
C3292 C3294 1.395 . S
C3292 C3295 1.403 . S
H3293 C3299 0.930 . S
C3294 H3280 0.930 . S
C3294 C3292 1.395 . S
C3294 C3297 1.403 . S
C3295 C3292 1.403 . S
C3295 C3296 1.524 . S
C3295 C3299 1.400 . S
C3296 H3281 0.960 . S
C3296 H3282 0.960 . S
C3296 H3283 0.960 . S
C3296 C3295 1.524 . S
C3297 C3294 1.403 . S
C3297 C3298 1.392 . S
C3297 C3301 1.495 . S
C3298 C3297 1.392 . S
C3298 C3299 1.385 . S
C3298 C3300 1.478 . S
C3299 H3293 0.930 . S
C3299 C3295 1.400 . S
C3299 C3298 1.385 . S
C3300 C3298 1.478 . S
C3300 C3302 1.381 . S
C3300 C3306 1.383 . S
C3301 C3297 1.495 . S
C3301 H3307 0.959 . S
C3301 H3308 0.961 . S
C3301 H3309 0.960 . S
C3302 C3300 1.381 . S
C3302 C3303 1.394 . S
C3302 H3310 0.930 . S
C3303 C3302 1.394 . S
C3303 C3304 1.383 . S
C3303 H3311 0.929 . S
C3304 C3303 1.383 . S
C3304 C3305 1.377 . S
C3305 H3289 0.930 . S
C3305 C3304 1.377 . S
C3305 C3306 1.379 . S
C3306 H3290 0.931 . S
C3306 C3300 1.383 . S
C3306 C3305 1.379 . S
H3307 C3301 0.959 . S
H3308 C3301 0.961 . S
H3309 C3301 0.960 . S
H3310 C3302 0.930 . S
H3311 C3303 0.929 . S
H3312 C3320 0.929 . S
H3313 C3322 0.930 . S
H3314 C3324 0.930 . S
H3315 C3327 0.929 . S
H3316 C3330 0.930 . S
H3317 C3332 0.960 . S
H3318 C3332 0.960 . S
H3319 C3332 0.960 . S
C3320 H3312 0.929 . S
C3320 C3321 1.377 . S
C3320 C3322 1.384 . S
C3321 C3320 1.377 . S
C3321 C3327 1.390 . S
C3322 H3313 0.930 . S
C3322 C3320 1.384 . S
C3322 C3323 1.372 . S
C3323 C3322 1.372 . S
C3323 C3324 1.400 . S
C3323 C3328 1.490 . S
C3324 H3314 0.930 . S
C3324 C3323 1.400 . S
C3324 C3327 1.386 . S
H3325 C3341 0.930 . S
H3326 C3342 0.931 . S
C3327 H3315 0.929 . S
C3327 C3321 1.390 . S
C3327 C3324 1.386 . S
C3328 C3323 1.490 . S
C3328 C3330 1.395 . S
C3328 C3331 1.403 . S
H3329 C3335 0.930 . S
C3330 H3316 0.930 . S
C3330 C3328 1.395 . S
C3330 C3333 1.403 . S
C3331 C3328 1.403 . S
C3331 C3332 1.524 . S
C3331 C3335 1.400 . S
C3332 H3317 0.960 . S
C3332 H3318 0.960 . S
C3332 H3319 0.960 . S
C3332 C3331 1.524 . S
C3333 C3330 1.403 . S
C3333 C3334 1.392 . S
C3333 C3337 1.495 . S
C3334 C3333 1.392 . S
C3334 C3335 1.385 . S
C3334 C3336 1.478 . S
C3335 H3329 0.930 . S
C3335 C3331 1.400 . S
C3335 C3334 1.385 . S
C3336 C3334 1.478 . S
C3336 C3338 1.381 . S
C3336 C3342 1.383 . S
C3337 C3333 1.495 . S
C3337 H3343 0.959 . S
C3337 H3344 0.961 . S
C3337 H3345 0.960 . S
C3338 C3336 1.381 . S
C3338 C3339 1.394 . S
C3338 H3346 0.930 . S
C3339 C3338 1.394 . S
C3339 C3340 1.383 . S
C3339 H3347 0.929 . S
C3340 C3339 1.383 . S
C3340 C3341 1.377 . S
C3341 H3325 0.930 . S
C3341 C3340 1.377 . S
C3341 C3342 1.379 . S
C3342 H3326 0.931 . S
C3342 C3336 1.383 . S
C3342 C3341 1.379 . S
H3343 C3337 0.959 . S
H3344 C3337 0.961 . S
H3345 C3337 0.960 . S
H3346 C3338 0.930 . S
H3347 C3339 0.929 . S
H3348 C3356 0.929 . S
H3349 C3358 0.930 . S
H3350 C3360 0.930 . S
H3351 C3363 0.929 . S
H3352 C3366 0.930 . S
H3353 C3368 0.960 . S
H3354 C3368 0.960 . S
H3355 C3368 0.960 . S
C3356 H3348 0.929 . S
C3356 C3357 1.377 . S
C3356 C3358 1.384 . S
C3357 C3356 1.377 . S
C3357 C3363 1.390 . S
C3358 H3349 0.930 . S
C3358 C3356 1.384 . S
C3358 C3359 1.372 . S
C3359 C3358 1.372 . S
C3359 C3360 1.400 . S
C3359 C3364 1.490 . S
C3360 H3350 0.930 . S
C3360 C3359 1.400 . S
C3360 C3363 1.386 . S
H3361 C3377 0.930 . S
H3362 C3378 0.931 . S
C3363 H3351 0.929 . S
C3363 C3357 1.390 . S
C3363 C3360 1.386 . S
C3364 C3359 1.490 . S
C3364 C3366 1.395 . S
C3364 C3367 1.403 . S
H3365 C3371 0.930 . S
C3366 H3352 0.930 . S
C3366 C3364 1.395 . S
C3366 C3369 1.403 . S
C3367 C3364 1.403 . S
C3367 C3368 1.524 . S
C3367 C3371 1.400 . S
C3368 H3353 0.960 . S
C3368 H3354 0.960 . S
C3368 H3355 0.960 . S
C3368 C3367 1.524 . S
C3369 C3366 1.403 . S
C3369 C3370 1.392 . S
C3369 C3373 1.495 . S
C3370 C3369 1.392 . S
C3370 C3371 1.385 . S
C3370 C3372 1.478 . S
C3371 H3365 0.930 . S
C3371 C3367 1.400 . S
C3371 C3370 1.385 . S
C3372 C3370 1.478 . S
C3372 C3374 1.381 . S
C3372 C3378 1.383 . S
C3373 C3369 1.495 . S
C3373 H3379 0.959 . S
C3373 H3380 0.961 . S
C3373 H3381 0.960 . S
C3374 C3372 1.381 . S
C3374 C3375 1.394 . S
C3374 H3382 0.930 . S
C3375 C3374 1.394 . S
C3375 C3376 1.383 . S
C3375 H3383 0.929 . S
C3376 C3375 1.383 . S
C3376 C3377 1.377 . S
C3377 H3361 0.930 . S
C3377 C3376 1.377 . S
C3377 C3378 1.379 . S
C3378 H3362 0.931 . S
C3378 C3372 1.383 . S
C3378 C3377 1.379 . S
H3379 C3373 0.959 . S
H3380 C3373 0.961 . S
H3381 C3373 0.960 . S
H3382 C3374 0.930 . S
H3383 C3375 0.929 . S
H3384 C3392 0.929 . S
H3385 C3394 0.930 . S
H3386 C3396 0.930 . S
H3387 C3399 0.929 . S
H3388 C3402 0.930 . S
H3389 C3404 0.960 . S
H3390 C3404 0.960 . S
H3391 C3404 0.960 . S
C3392 H3384 0.929 . S
C3392 C3393 1.377 1_556 S
C3392 C3394 1.384 . S
C3393 C3392 1.377 1_554 S
C3393 C3399 1.390 . S
C3394 H3385 0.930 . S
C3394 C3392 1.384 . S
C3394 C3395 1.372 . S
C3395 C3394 1.372 . S
C3395 C3396 1.400 1_556 S
C3395 C3400 1.490 . S
C3396 H3386 0.930 . S
C3396 C3395 1.400 1_554 S
C3396 C3399 1.386 . S
H3397 C3413 0.930 . S
H3398 C3414 0.931 . S
C3399 H3387 0.929 . S
C3399 C3393 1.390 . S
C3399 C3396 1.386 . S
C3400 C3395 1.490 . S
C3400 C3402 1.395 . S
C3400 C3403 1.403 . S
H3401 C3407 0.930 . S
C3402 H3388 0.930 . S
C3402 C3400 1.395 . S
C3402 C3405 1.403 . S
C3403 C3400 1.403 . S
C3403 C3404 1.524 . S
C3403 C3407 1.400 . S
C3404 H3389 0.960 . S
C3404 H3390 0.960 . S
C3404 H3391 0.960 . S
C3404 C3403 1.524 . S
C3405 C3402 1.403 . S
C3405 C3406 1.392 . S
C3405 C3409 1.495 . S
C3406 C3405 1.392 . S
C3406 C3407 1.385 . S
C3406 C3408 1.478 . S
C3407 H3401 0.930 . S
C3407 C3403 1.400 . S
C3407 C3406 1.385 . S
C3408 C3406 1.478 . S
C3408 C3410 1.381 . S
C3408 C3414 1.383 . S
C3409 C3405 1.495 . S
C3409 H3415 0.959 . S
C3409 H3416 0.961 . S
C3409 H3417 0.960 . S
C3410 C3408 1.381 . S
C3410 C3411 1.394 . S
C3410 H3418 0.930 . S
C3411 C3410 1.394 . S
C3411 C3412 1.383 . S
C3411 H3419 0.929 . S
C3412 C3411 1.383 . S
C3412 C3413 1.377 . S
C3413 H3397 0.930 . S
C3413 C3412 1.377 . S
C3413 C3414 1.379 . S
C3414 H3398 0.931 . S
C3414 C3408 1.383 . S
C3414 C3413 1.379 . S
H3415 C3409 0.959 . S
H3416 C3409 0.961 . S
H3417 C3409 0.960 . S
H3418 C3410 0.930 . S
H3419 C3411 0.929 . S
H3420 C3428 0.929 . S
H3421 C3430 0.965 . S
H3422 C3432 0.930 . S
H3423 C3435 0.929 . S
H3424 C3438 0.930 . S
H3425 C3440 0.960 . S
H3426 C3440 0.960 . S
H3427 C3440 0.960 . S
C3428 H3420 0.929 . S
C3428 C3429 1.377 1_554 S
C3428 C3430 1.384 1_554 S
C3429 C3428 1.377 1_556 S
C3429 C3435 1.390 . S
C3430 H3421 0.965 . S
C3430 C3428 1.384 1_556 S
C3430 C3431 1.372 . S
C3431 C3430 1.372 . S
C3431 C3432 1.400 . S
C3431 C3436 1.490 . S
C3432 H3422 0.930 . S
C3432 C3431 1.400 . S
C3432 C3435 1.386 . S
H3433 C3449 0.930 . S
H3434 C3450 0.931 . S
C3435 H3423 0.929 . S
C3435 C3429 1.390 . S
C3435 C3432 1.386 . S
C3436 C3431 1.490 . S
C3436 C3438 1.395 . S
C3436 C3439 1.403 . S
H3437 C3443 0.930 . S
C3438 H3424 0.930 . S
C3438 C3436 1.395 . S
C3438 C3441 1.403 . S
C3439 C3436 1.403 . S
C3439 C3440 1.524 . S
C3439 C3443 1.400 . S
C3440 H3425 0.960 . S
C3440 H3426 0.960 . S
C3440 H3427 0.960 . S
C3440 C3439 1.524 . S
C3441 C3438 1.403 . S
C3441 C3442 1.392 . S
C3441 C3445 1.495 . S
C3442 C3441 1.392 . S
C3442 C3443 1.385 . S
C3442 C3444 1.478 . S
C3443 H3437 0.930 . S
C3443 C3439 1.400 . S
C3443 C3442 1.385 . S
C3444 C3442 1.478 . S
C3444 C3446 1.381 . S
C3444 C3450 1.383 . S
C3445 C3441 1.495 . S
C3445 H3451 0.959 . S
C3445 H3452 0.961 . S
C3445 H3453 0.960 . S
C3446 C3444 1.381 . S
C3446 C3447 1.394 . S
C3446 H3454 0.930 . S
C3447 C3446 1.394 . S
C3447 C3448 1.383 . S
C3447 H3455 0.929 . S
C3448 C3447 1.383 . S
C3448 C3449 1.377 . S
C3449 H3433 0.930 . S
C3449 C3448 1.377 . S
C3449 C3450 1.379 . S
C3450 H3434 0.931 . S
C3450 C3444 1.383 . S
C3450 C3449 1.379 . S
H3451 C3445 0.959 . S
H3452 C3445 0.961 . S
H3453 C3445 0.960 . S
H3454 C3446 0.930 . S
H3455 C3447 0.929 . S
H3456 C3464 0.929 . S
H3457 C3466 0.930 . S
H3458 C3468 0.878 1_556 S
H3459 C3471 0.929 . S
H3460 C3474 0.930 . S
H3461 C3476 0.960 . S
H3462 C3476 0.960 . S
H3463 C3476 0.960 . S
C3464 H3456 0.929 . S
C3464 C3465 1.377 . S
C3464 C3466 1.384 . S
C3465 C3464 1.377 . S
C3465 C3471 1.390 . S
C3466 H3457 0.930 . S
C3466 C3464 1.384 . S
C3466 C3467 1.372 . S
C3467 C3466 1.372 . S
C3467 C3468 1.400 . S
C3467 C3472 1.490 . S
C3468 H3458 0.878 1_554 S
C3468 C3467 1.400 . S
C3468 C3471 1.386 . S
H3469 C3485 0.930 . S
H3470 C3486 0.931 . S
C3471 H3459 0.929 . S
C3471 C3465 1.390 . S
C3471 C3468 1.386 . S
C3472 C3467 1.490 . S
C3472 C3474 1.395 . S
C3472 C3475 1.403 1_554 S
H3473 C3479 0.930 . S
C3474 H3460 0.930 . S
C3474 C3472 1.395 . S
C3474 C3477 1.403 . S
C3475 C3472 1.403 1_556 S
C3475 C3476 1.524 . S
C3475 C3479 1.400 . S
C3476 H3461 0.960 . S
C3476 H3462 0.960 . S
C3476 H3463 0.960 . S
C3476 C3475 1.524 . S
C3477 C3474 1.403 . S
C3477 C3478 1.392 1_554 S
C3477 C3481 1.495 . S
C3478 C3477 1.392 1_556 S
C3478 C3479 1.385 . S
C3478 C3480 1.478 . S
C3479 H3473 0.930 . S
C3479 C3475 1.400 . S
C3479 C3478 1.385 . S
C3480 C3478 1.478 . S
C3480 C3482 1.381 . S
C3480 C3486 1.383 . S
C3481 C3477 1.495 . S
C3481 H3487 0.959 . S
C3481 H3488 0.961 . S
C3481 H3489 0.960 . S
C3482 C3480 1.381 . S
C3482 C3483 1.394 . S
C3482 H3490 0.876 1_556 S
C3483 C3482 1.394 . S
C3483 C3484 1.383 . S
C3483 H3491 0.929 . S
C3484 C3483 1.383 . S
C3484 C3485 1.377 . S
C3485 H3469 0.930 . S
C3485 C3484 1.377 . S
C3485 C3486 1.379 . S
C3486 H3470 0.931 . S
C3486 C3480 1.383 . S
C3486 C3485 1.379 . S
H3487 C3481 0.959 . S
H3488 C3481 0.961 . S
H3489 C3481 0.960 . S
H3490 C3482 0.876 1_554 S
H3491 C3483 0.929 . S
H3492 C3500 0.929 . S
H3493 C3502 0.930 . S
H3494 C3504 0.930 . S
H3495 C3507 0.944 . S
H3496 C3510 0.930 1_554 S
H3497 C3512 0.960 . S
H3498 C3512 0.960 . S
H3499 C3512 0.960 . S
C3500 H3492 0.929 . S
C3500 C3501 1.377 . S
C3500 C3502 1.384 . S
C3501 C3500 1.377 . S
C3501 C3507 1.356 1_554 S
C3502 H3493 0.930 . S
C3502 C3500 1.384 . S
C3502 C3503 1.372 1_554 S
C3503 C3502 1.372 1_556 S
C3503 C3504 1.400 . S
C3503 C3508 1.490 . S
C3504 H3494 0.930 . S
C3504 C3503 1.400 . S
C3504 C3507 1.407 . S
H3505 C3521 0.930 . S
H3506 C3522 0.931 . S
C3507 H3495 0.944 . S
C3507 C3501 1.356 1_556 S
C3507 C3504 1.407 . S
C3508 C3503 1.490 . S
C3508 C3510 1.395 . S
C3508 C3511 1.403 . S
H3509 C3515 0.930 . S
C3510 H3496 0.930 1_556 S
C3510 C3508 1.395 . S
C3510 C3513 1.403 . S
C3511 C3508 1.403 . S
C3511 C3512 1.524 . S
C3511 C3515 1.400 . S
C3512 H3497 0.960 . S
C3512 H3498 0.960 . S
C3512 H3499 0.960 . S
C3512 C3511 1.524 . S
C3513 C3510 1.403 . S
C3513 C3514 1.392 . S
C3513 C3517 1.495 . S
C3514 C3513 1.392 . S
C3514 C3515 1.385 . S
C3514 C3516 1.478 . S
C3515 H3509 0.930 . S
C3515 C3511 1.400 . S
C3515 C3514 1.385 . S
C3516 C3514 1.478 . S
C3516 C3518 1.381 . S
C3516 C3522 1.383 . S
C3517 C3513 1.495 . S
C3517 H3523 0.959 1_556 S
C3517 H3524 0.961 . S
C3517 H3525 0.960 . S
C3518 C3516 1.381 . S
C3518 C3519 1.394 . S
C3518 H3526 0.930 . S
C3519 C3518 1.394 . S
C3519 C3520 1.383 . S
C3519 H3527 0.929 . S
C3520 C3519 1.383 . S
C3520 C3521 1.377 . S
C3521 H3505 0.930 . S
C3521 C3520 1.377 . S
C3521 C3522 1.379 . S
C3522 H3506 0.931 . S
C3522 C3516 1.383 . S
C3522 C3521 1.379 . S
H3523 C3517 0.959 1_554 S
H3524 C3517 0.961 . S
H3525 C3517 0.960 . S
H3526 C3518 0.930 . S
H3527 C3519 0.929 . S
H3528 C3536 0.929 . S
H3529 C3538 0.930 . S
H3530 C3540 0.930 . S
H3531 C3543 0.929 . S
H3532 C3546 0.930 . S
H3533 C3548 0.960 . S
H3534 C3548 0.960 . S
H3535 C3548 0.960 . S
C3536 H3528 0.929 . S
C3536 C3537 1.377 . S
C3536 C3538 1.384 . S
C3537 C3536 1.377 . S
C3537 C3543 1.390 . S
C3538 H3529 0.930 . S
C3538 C3536 1.384 . S
C3538 C3539 1.372 . S
C3539 C3538 1.372 . S
C3539 C3540 1.400 . S
C3539 C3544 1.490 . S
C3540 H3530 0.930 . S
C3540 C3539 1.400 . S
C3540 C3543 1.386 . S
H3541 C3557 0.930 . S
H3542 C3558 0.931 . S
C3543 H3531 0.929 . S
C3543 C3537 1.390 . S
C3543 C3540 1.386 . S
C3544 C3539 1.490 . S
C3544 C3546 1.395 . S
C3544 C3547 1.403 . S
H3545 C3551 0.930 . S
C3546 H3532 0.930 . S
C3546 C3544 1.395 . S
C3546 C3549 1.403 . S
C3547 C3544 1.403 . S
C3547 C3548 1.524 . S
C3547 C3551 1.400 . S
C3548 H3533 0.960 . S
C3548 H3534 0.960 . S
C3548 H3535 0.960 . S
C3548 C3547 1.524 . S
C3549 C3546 1.403 . S
C3549 C3550 1.392 . S
C3549 C3553 1.495 . S
C3550 C3549 1.392 . S
C3550 C3551 1.385 . S
C3550 C3552 1.478 . S
C3551 H3545 0.930 . S
C3551 C3547 1.400 . S
C3551 C3550 1.385 . S
C3552 C3550 1.478 . S
C3552 C3554 1.381 . S
C3552 C3558 1.383 . S
C3553 C3549 1.495 . S
C3553 H3559 0.959 . S
C3553 H3560 0.961 . S
C3553 H3561 0.960 . S
C3554 C3552 1.381 . S
C3554 C3555 1.394 . S
C3554 H3562 0.930 . S
C3555 C3554 1.394 . S
C3555 C3556 1.383 . S
C3555 H3563 0.929 . S
C3556 C3555 1.383 . S
C3556 C3557 1.377 . S
C3557 H3541 0.930 . S
C3557 C3556 1.377 . S
C3557 C3558 1.379 . S
C3558 H3542 0.931 . S
C3558 C3552 1.383 . S
C3558 C3557 1.379 . S
H3559 C3553 0.959 . S
H3560 C3553 0.961 . S
H3561 C3553 0.960 . S
H3562 C3554 0.930 . S
H3563 C3555 0.929 . S
H3564 C3572 0.929 . S
H3565 C3574 0.930 . S
H3566 C3576 0.930 . S
H3567 C3579 0.904 1_556 S
H3568 C3582 0.930 . S
H3569 C3584 0.960 . S
H3570 C3584 0.960 1_554 S
H3571 C3584 0.960 . S
C3572 H3564 0.929 . S
C3572 C3573 1.377 . S
C3572 C3574 1.384 . S
C3573 C3572 1.377 . S
C3573 C3579 1.390 . S
C3574 H3565 0.930 . S
C3574 C3572 1.384 . S
C3574 C3575 1.372 . S
C3575 C3574 1.372 . S
C3575 C3576 1.400 1_554 S
C3575 C3580 1.490 1_554 S
C3576 H3566 0.930 . S
C3576 C3575 1.400 1_556 S
C3576 C3579 1.386 1_556 S
H3577 C3593 0.930 . S
H3578 C3594 0.931 . S
C3579 H3567 0.904 1_554 S
C3579 C3573 1.390 . S
C3579 C3576 1.386 1_554 S
C3580 C3575 1.490 1_556 S
C3580 C3582 1.395 . S
C3580 C3583 1.403 . S
H3581 C3587 0.930 . S
C3582 H3568 0.930 . S
C3582 C3580 1.395 . S
C3582 C3585 1.403 . S
C3583 C3580 1.403 . S
C3583 C3584 1.524 . S
C3583 C3587 1.400 . S
C3584 H3569 0.960 . S
C3584 H3570 0.960 1_556 S
C3584 H3571 0.960 . S
C3584 C3583 1.524 . S
C3585 C3582 1.403 . S
C3585 C3586 1.392 . S
C3585 C3589 1.495 . S
C3586 C3585 1.392 . S
C3586 C3587 1.385 . S
C3586 C3588 1.478 . S
C3587 H3581 0.930 . S
C3587 C3583 1.400 . S
C3587 C3586 1.385 . S
C3588 C3586 1.478 . S
C3588 C3590 1.381 . S
C3588 C3594 1.383 . S
C3589 C3585 1.495 . S
C3589 H3595 0.959 . S
C3589 H3596 0.961 . S
C3589 H3597 0.960 . S
C3590 C3588 1.381 . S
C3590 C3591 1.394 . S
C3590 H3598 0.930 . S
C3591 C3590 1.394 . S
C3591 C3592 1.383 . S
C3591 H3599 0.929 . S
C3592 C3591 1.383 . S
C3592 C3593 1.377 . S
C3593 H3577 0.930 . S
C3593 C3592 1.377 . S
C3593 C3594 1.379 . S
C3594 H3578 0.931 . S
C3594 C3588 1.383 . S
C3594 C3593 1.379 . S
H3595 C3589 0.959 . S
H3596 C3589 0.961 . S
H3597 C3589 0.960 . S
H3598 C3590 0.930 . S
H3599 C3591 0.929 . S
H3600 C3608 0.929 . S
H3601 C3610 0.930 . S
H3602 C3612 0.930 . S
H3603 C3615 0.929 . S
H3604 C3618 0.930 . S
H3605 C3620 0.960 . S
H3606 C3620 0.960 . S
H3607 C3620 0.960 . S
C3608 H3600 0.929 . S
C3608 C3609 1.377 . S
C3608 C3610 1.384 . S
C3609 C3608 1.377 . S
C3609 C3615 1.390 . S
C3610 H3601 0.930 . S
C3610 C3608 1.384 . S
C3610 C3611 1.372 . S
C3611 C3610 1.372 . S
C3611 C3612 1.400 . S
C3611 C3616 1.490 . S
C3612 H3602 0.930 . S
C3612 C3611 1.400 . S
C3612 C3615 1.386 . S
H3613 C3629 0.930 . S
H3614 C3630 0.931 . S
C3615 H3603 0.929 . S
C3615 C3609 1.390 . S
C3615 C3612 1.386 . S
C3616 C3611 1.490 . S
C3616 C3618 1.395 . S
C3616 C3619 1.403 . S
H3617 C3623 0.930 . S
C3618 H3604 0.930 . S
C3618 C3616 1.395 . S
C3618 C3621 1.403 . S
C3619 C3616 1.403 . S
C3619 C3620 1.524 . S
C3619 C3623 1.400 . S
C3620 H3605 0.960 . S
C3620 H3606 0.960 . S
C3620 H3607 0.960 . S
C3620 C3619 1.524 . S
C3621 C3618 1.403 . S
C3621 C3622 1.392 . S
C3621 C3625 1.495 . S
C3622 C3621 1.392 . S
C3622 C3623 1.385 . S
C3622 C3624 1.478 . S
C3623 H3617 0.930 . S
C3623 C3619 1.400 . S
C3623 C3622 1.385 . S
C3624 C3622 1.478 . S
C3624 C3626 1.381 . S
C3624 C3630 1.383 . S
C3625 C3621 1.495 . S
C3625 H3631 0.959 . S
C3625 H3632 0.961 . S
C3625 H3633 0.960 . S
C3626 C3624 1.381 . S
C3626 C3627 1.394 . S
C3626 H3634 0.930 . S
C3627 C3626 1.394 . S
C3627 C3628 1.383 . S
C3627 H3635 0.929 . S
C3628 C3627 1.383 . S
C3628 C3629 1.377 . S
C3629 H3613 0.930 . S
C3629 C3628 1.377 . S
C3629 C3630 1.379 . S
C3630 H3614 0.931 . S
C3630 C3624 1.383 . S
C3630 C3629 1.379 . S
H3631 C3625 0.959 . S
H3632 C3625 0.961 . S
H3633 C3625 0.960 . S
H3634 C3626 0.930 . S
H3635 C3627 0.929 . S
H3636 C3644 0.929 . S
H3637 C3646 0.930 . S
H3638 C3648 0.930 . S
H3639 C3651 0.929 . S
H3640 C3654 0.930 . S
H3641 C3656 0.960 . S
H3642 C3656 0.960 . S
H3643 C3656 0.960 . S
C3644 H3636 0.929 . S
C3644 C3645 1.377 . S
C3644 C3646 1.384 . S
C3645 C3644 1.377 . S
C3645 C3651 1.390 . S
C3646 H3637 0.930 . S
C3646 C3644 1.384 . S
C3646 C3647 1.372 . S
C3647 C3646 1.372 . S
C3647 C3648 1.400 . S
C3647 C3652 1.490 . S
C3648 H3638 0.930 . S
C3648 C3647 1.400 . S
C3648 C3651 1.386 . S
H3649 C3665 0.930 . S
H3650 C3666 0.931 . S
C3651 H3639 0.929 . S
C3651 C3645 1.390 . S
C3651 C3648 1.386 . S
C3652 C3647 1.490 . S
C3652 C3654 1.395 . S
C3652 C3655 1.403 . S
H3653 C3659 0.930 . S
C3654 H3640 0.930 . S
C3654 C3652 1.395 . S
C3654 C3657 1.403 . S
C3655 C3652 1.403 . S
C3655 C3656 1.524 . S
C3655 C3659 1.400 . S
C3656 H3641 0.960 . S
C3656 H3642 0.960 . S
C3656 H3643 0.960 . S
C3656 C3655 1.524 . S
C3657 C3654 1.403 . S
C3657 C3658 1.392 . S
C3657 C3661 1.495 . S
C3658 C3657 1.392 . S
C3658 C3659 1.385 . S
C3658 C3660 1.478 . S
C3659 H3653 0.930 . S
C3659 C3655 1.400 . S
C3659 C3658 1.385 . S
C3660 C3658 1.478 . S
C3660 C3662 1.381 . S
C3660 C3666 1.383 . S
C3661 C3657 1.495 . S
C3661 H3667 0.959 . S
C3661 H3668 0.961 . S
C3661 H3669 0.960 . S
C3662 C3660 1.381 . S
C3662 C3663 1.394 . S
C3662 H3670 0.930 . S
C3663 C3662 1.394 . S
C3663 C3664 1.383 . S
C3663 H3671 0.929 . S
C3664 C3663 1.383 . S
C3664 C3665 1.377 . S
C3665 H3649 0.930 . S
C3665 C3664 1.377 . S
C3665 C3666 1.379 . S
C3666 H3650 0.931 . S
C3666 C3660 1.383 . S
C3666 C3665 1.379 . S
H3667 C3661 0.959 . S
H3668 C3661 0.961 . S
H3669 C3661 0.960 . S
H3670 C3662 0.930 . S
H3671 C3663 0.929 . S
H3672 C3680 0.929 . S
H3673 C3682 0.930 . S
H3674 C3684 0.930 . S
H3675 C3687 0.929 . S
H3676 C3690 0.930 . S
H3677 C3692 0.960 . S
H3678 C3692 0.960 . S
H3679 C3692 0.960 . S
C3680 H3672 0.929 . S
C3680 C3681 1.377 . S
C3680 C3682 1.384 . S
C3681 C3680 1.377 . S
C3681 C3687 1.390 . S
C3682 H3673 0.930 . S
C3682 C3680 1.384 . S
C3682 C3683 1.372 . S
C3683 C3682 1.372 . S
C3683 C3684 1.400 . S
C3683 C3688 1.490 . S
C3684 H3674 0.930 . S
C3684 C3683 1.400 . S
C3684 C3687 1.386 . S
H3685 C3701 0.930 . S
H3686 C3702 0.931 . S
C3687 H3675 0.929 . S
C3687 C3681 1.390 . S
C3687 C3684 1.386 . S
C3688 C3683 1.490 . S
C3688 C3690 1.395 . S
C3688 C3691 1.403 . S
H3689 C3695 0.930 . S
C3690 H3676 0.930 . S
C3690 C3688 1.395 . S
C3690 C3693 1.403 . S
C3691 C3688 1.403 . S
C3691 C3692 1.524 . S
C3691 C3695 1.400 . S
C3692 H3677 0.960 . S
C3692 H3678 0.960 . S
C3692 H3679 0.960 . S
C3692 C3691 1.524 . S
C3693 C3690 1.403 . S
C3693 C3694 1.392 . S
C3693 C3697 1.495 . S
C3694 C3693 1.392 . S
C3694 C3695 1.385 . S
C3694 C3696 1.478 . S
C3695 H3689 0.930 . S
C3695 C3691 1.400 . S
C3695 C3694 1.385 . S
C3696 C3694 1.478 . S
C3696 C3698 1.381 . S
C3696 C3702 1.383 . S
C3697 C3693 1.495 . S
C3697 H3703 0.959 . S
C3697 H3704 0.961 . S
C3697 H3705 0.960 . S
C3698 C3696 1.381 . S
C3698 C3699 1.394 . S
C3698 H3706 0.930 . S
C3699 C3698 1.394 . S
C3699 C3700 1.383 . S
C3699 H3707 0.929 . S
C3700 C3699 1.383 . S
C3700 C3701 1.377 . S
C3701 H3685 0.930 . S
C3701 C3700 1.377 . S
C3701 C3702 1.379 . S
C3702 H3686 0.931 . S
C3702 C3696 1.383 . S
C3702 C3701 1.379 . S
H3703 C3697 0.959 . S
H3704 C3697 0.961 . S
H3705 C3697 0.960 . S
H3706 C3698 0.930 . S
H3707 C3699 0.929 . S
H3708 C3716 0.929 . S
H3709 C3718 0.930 . S
H3710 C3720 0.930 . S
H3711 C3723 0.929 . S
H3712 C3726 0.930 . S
H3713 C3728 0.960 . S
H3714 C3728 0.960 . S
H3715 C3728 0.960 . S
C3716 H3708 0.929 . S
C3716 C3717 1.377 . S
C3716 C3718 1.384 . S
C3717 C3716 1.377 . S
C3717 C3723 1.390 . S
C3718 H3709 0.930 . S
C3718 C3716 1.384 . S
C3718 C3719 1.372 . S
C3719 C3718 1.372 . S
C3719 C3720 1.400 . S
C3719 C3724 1.490 . S
C3720 H3710 0.930 . S
C3720 C3719 1.400 . S
C3720 C3723 1.386 . S
H3721 C3737 0.930 . S
H3722 C3738 0.931 . S
C3723 H3711 0.929 . S
C3723 C3717 1.390 . S
C3723 C3720 1.386 . S
C3724 C3719 1.490 . S
C3724 C3726 1.395 . S
C3724 C3727 1.403 . S
H3725 C3731 0.930 . S
C3726 H3712 0.930 . S
C3726 C3724 1.395 . S
C3726 C3729 1.403 . S
C3727 C3724 1.403 . S
C3727 C3728 1.524 . S
C3727 C3731 1.400 . S
C3728 H3713 0.960 . S
C3728 H3714 0.960 . S
C3728 H3715 0.960 . S
C3728 C3727 1.524 . S
C3729 C3726 1.403 . S
C3729 C3730 1.392 . S
C3729 C3733 1.495 . S
C3730 C3729 1.392 . S
C3730 C3731 1.385 . S
C3730 C3732 1.478 . S
C3731 H3725 0.930 . S
C3731 C3727 1.400 . S
C3731 C3730 1.385 . S
C3732 C3730 1.478 . S
C3732 C3734 1.381 . S
C3732 C3738 1.383 . S
C3733 C3729 1.495 . S
C3733 H3739 0.959 . S
C3733 H3740 0.961 . S
C3733 H3741 0.960 . S
C3734 C3732 1.381 . S
C3734 C3735 1.394 . S
C3734 H3742 0.930 . S
C3735 C3734 1.394 . S
C3735 C3736 1.383 . S
C3735 H3743 0.929 . S
C3736 C3735 1.383 . S
C3736 C3737 1.377 . S
C3737 H3721 0.930 . S
C3737 C3736 1.377 . S
C3737 C3738 1.379 . S
C3738 H3722 0.931 . S
C3738 C3732 1.383 . S
C3738 C3737 1.379 . S
H3739 C3733 0.959 . S
H3740 C3733 0.961 . S
H3741 C3733 0.960 . S
H3742 C3734 0.930 . S
H3743 C3735 0.929 . S
H3744 C3752 0.929 . S
H3745 C3754 0.930 . S
H3746 C3756 0.930 . S
H3747 C3759 0.929 . S
H3748 C3762 0.930 . S
H3749 C3764 0.960 . S
H3750 C3764 0.960 . S
H3751 C3764 0.960 . S
C3752 H3744 0.929 . S
C3752 C3753 1.377 . S
C3752 C3754 1.384 . S
C3753 C3752 1.377 . S
C3753 C3759 1.390 . S
C3754 H3745 0.930 . S
C3754 C3752 1.384 . S
C3754 C3755 1.372 . S
C3755 C3754 1.372 . S
C3755 C3756 1.400 . S
C3755 C3760 1.490 . S
C3756 H3746 0.930 . S
C3756 C3755 1.400 . S
C3756 C3759 1.386 . S
H3757 C3773 0.930 . S
H3758 C3774 0.931 . S
C3759 H3747 0.929 . S
C3759 C3753 1.390 . S
C3759 C3756 1.386 . S
C3760 C3755 1.490 . S
C3760 C3762 1.395 . S
C3760 C3763 1.403 . S
H3761 C3767 0.930 . S
C3762 H3748 0.930 . S
C3762 C3760 1.395 . S
C3762 C3765 1.403 . S
C3763 C3760 1.403 . S
C3763 C3764 1.524 . S
C3763 C3767 1.400 . S
C3764 H3749 0.960 . S
C3764 H3750 0.960 . S
C3764 H3751 0.960 . S
C3764 C3763 1.524 . S
C3765 C3762 1.403 . S
C3765 C3766 1.392 . S
C3765 C3769 1.495 . S
C3766 C3765 1.392 . S
C3766 C3767 1.385 . S
C3766 C3768 1.478 . S
C3767 H3761 0.930 . S
C3767 C3763 1.400 . S
C3767 C3766 1.385 . S
C3768 C3766 1.478 . S
C3768 C3770 1.381 . S
C3768 C3774 1.383 . S
C3769 C3765 1.495 . S
C3769 H3775 0.959 . S
C3769 H3776 0.961 . S
C3769 H3777 0.960 . S
C3770 C3768 1.381 . S
C3770 C3771 1.394 . S
C3770 H3778 0.930 . S
C3771 C3770 1.394 . S
C3771 C3772 1.383 . S
C3771 H3779 0.929 . S
C3772 C3771 1.383 . S
C3772 C3773 1.377 . S
C3773 H3757 0.930 . S
C3773 C3772 1.377 . S
C3773 C3774 1.379 . S
C3774 H3758 0.931 . S
C3774 C3768 1.383 . S
C3774 C3773 1.379 . S
H3775 C3769 0.959 . S
H3776 C3769 0.961 . S
H3777 C3769 0.960 . S
H3778 C3770 0.930 . S
H3779 C3771 0.929 . S
H3780 C3788 0.929 . S
H3781 C3790 0.930 . S
H3782 C3792 0.930 . S
H3783 C3795 0.929 . S
H3784 C3798 0.930 . S
H3785 C3800 0.960 . S
H3786 C3800 0.960 . S
H3787 C3800 0.960 . S
C3788 H3780 0.929 . S
C3788 C3789 1.377 . S
C3788 C3790 1.384 . S
C3789 C3788 1.377 . S
C3789 C3795 1.390 . S
C3790 H3781 0.930 . S
C3790 C3788 1.384 . S
C3790 C3791 1.372 . S
C3791 C3790 1.372 . S
C3791 C3792 1.400 . S
C3791 C3796 1.490 . S
C3792 H3782 0.930 . S
C3792 C3791 1.400 . S
C3792 C3795 1.386 . S
H3793 C3809 0.930 . S
H3794 C3810 0.931 . S
C3795 H3783 0.929 . S
C3795 C3789 1.390 . S
C3795 C3792 1.386 . S
C3796 C3791 1.490 . S
C3796 C3798 1.395 . S
C3796 C3799 1.403 . S
H3797 C3803 0.930 . S
C3798 H3784 0.930 . S
C3798 C3796 1.395 . S
C3798 C3801 1.403 . S
C3799 C3796 1.403 . S
C3799 C3800 1.524 . S
C3799 C3803 1.400 . S
C3800 H3785 0.960 . S
C3800 H3786 0.960 . S
C3800 H3787 0.960 . S
C3800 C3799 1.524 . S
C3801 C3798 1.403 . S
C3801 C3802 1.392 . S
C3801 C3805 1.495 . S
C3802 C3801 1.392 . S
C3802 C3803 1.385 . S
C3802 C3804 1.478 . S
C3803 H3797 0.930 . S
C3803 C3799 1.400 . S
C3803 C3802 1.385 . S
C3804 C3802 1.478 . S
C3804 C3806 1.381 . S
C3804 C3810 1.383 . S
C3805 C3801 1.495 . S
C3805 H3811 0.959 . S
C3805 H3812 0.961 . S
C3805 H3813 0.960 . S
C3806 C3804 1.381 . S
C3806 C3807 1.394 . S
C3806 H3814 0.930 . S
C3807 C3806 1.394 . S
C3807 C3808 1.383 . S
C3807 H3815 0.929 . S
C3808 C3807 1.383 . S
C3808 C3809 1.377 . S
C3809 H3793 0.930 . S
C3809 C3808 1.377 . S
C3809 C3810 1.379 . S
C3810 H3794 0.931 . S
C3810 C3804 1.383 . S
C3810 C3809 1.379 . S
H3811 C3805 0.959 . S
H3812 C3805 0.961 . S
H3813 C3805 0.960 . S
H3814 C3806 0.930 . S
H3815 C3807 0.929 . S
H3816 C3824 0.929 . S
H3817 C3826 0.930 . S
H3818 C3828 0.930 . S
H3819 C3831 0.929 . S
H3820 C3834 0.930 . S
H3821 C3836 0.969 . S
H3822 C3836 0.960 1_455 S
H3823 C3836 0.957 . S
C3824 H3816 0.929 . S
C3824 C3825 1.377 . S
C3824 C3826 1.384 . S
C3825 C3824 1.377 . S
C3825 C3831 1.390 . S
C3826 H3817 0.930 . S
C3826 C3824 1.384 . S
C3826 C3827 1.372 . S
C3827 C3826 1.372 . S
C3827 C3828 1.400 . S
C3827 C3832 1.490 . S
C3828 H3818 0.930 . S
C3828 C3827 1.400 . S
C3828 C3831 1.386 . S
H3829 C3845 0.930 . S
H3830 C3846 0.931 . S
C3831 H3819 0.929 . S
C3831 C3825 1.390 . S
C3831 C3828 1.386 . S
C3832 C3827 1.490 . S
C3832 C3834 1.395 . S
C3832 C3835 1.403 . S
H3833 C3839 0.930 . S
C3834 H3820 0.930 . S
C3834 C3832 1.395 . S
C3834 C3837 1.403 . S
C3835 C3832 1.403 . S
C3835 C3836 1.519 1_455 S
C3835 C3839 1.400 . S
C3836 H3821 0.969 . S
C3836 H3822 0.960 1_655 S
C3836 H3823 0.957 . S
C3836 C3835 1.519 1_655 S
C3837 C3834 1.403 . S
C3837 C3838 1.392 . S
C3837 C3841 1.495 . S
C3838 C3837 1.392 . S
C3838 C3839 1.385 . S
C3838 C3840 1.478 . S
C3839 H3833 0.930 . S
C3839 C3835 1.400 . S
C3839 C3838 1.385 . S
C3840 C3838 1.478 . S
C3840 C3842 1.381 . S
C3840 C3846 1.383 . S
C3841 C3837 1.495 . S
C3841 H3847 0.959 . S
C3841 H3848 0.961 . S
C3841 H3849 0.960 . S
C3842 C3840 1.381 . S
C3842 C3843 1.394 . S
C3842 H3850 0.930 . S
C3843 C3842 1.394 . S
C3843 C3844 1.383 . S
C3843 H3851 0.929 . S
C3844 C3843 1.383 . S
C3844 C3845 1.377 . S
C3845 H3829 0.930 . S
C3845 C3844 1.377 . S
C3845 C3846 1.379 . S
C3846 H3830 0.931 . S
C3846 C3840 1.383 . S
C3846 C3845 1.379 . S
H3847 C3841 0.959 . S
H3848 C3841 0.961 . S
H3849 C3841 0.960 . S
H3850 C3842 0.930 . S
H3851 C3843 0.929 . S
H3852 C3860 0.929 . S
H3853 C3862 0.930 . S
H3854 C3864 0.930 . S
H3855 C3867 0.929 . S
H3856 C3870 0.930 . S
H3857 C3872 0.960 . S
H3858 C3872 0.960 . S
H3859 C3872 0.960 . S
C3860 H3852 0.929 . S
C3860 C3861 1.377 . S
C3860 C3862 1.384 . S
C3861 C3860 1.377 . S
C3861 C3867 1.390 . S
C3862 H3853 0.930 . S
C3862 C3860 1.384 . S
C3862 C3863 1.372 . S
C3863 C3862 1.372 . S
C3863 C3864 1.400 . S
C3863 C3868 1.490 . S
C3864 H3854 0.930 . S
C3864 C3863 1.400 . S
C3864 C3867 1.386 . S
H3865 C3881 0.930 . S
H3866 C3882 0.931 . S
C3867 H3855 0.929 . S
C3867 C3861 1.390 . S
C3867 C3864 1.386 . S
C3868 C3863 1.490 . S
C3868 C3870 1.395 . S
C3868 C3871 1.403 . S
H3869 C3875 0.930 . S
C3870 H3856 0.930 . S
C3870 C3868 1.395 . S
C3870 C3873 1.403 . S
C3871 C3868 1.403 . S
C3871 C3872 1.524 . S
C3871 C3875 1.400 . S
C3872 H3857 0.960 . S
C3872 H3858 0.960 . S
C3872 H3859 0.960 . S
C3872 C3871 1.524 . S
C3873 C3870 1.403 . S
C3873 C3874 1.392 . S
C3873 C3877 1.495 . S
C3874 C3873 1.392 . S
C3874 C3875 1.385 . S
C3874 C3876 1.478 . S
C3875 H3869 0.930 . S
C3875 C3871 1.400 . S
C3875 C3874 1.385 . S
C3876 C3874 1.478 . S
C3876 C3878 1.381 . S
C3876 C3882 1.383 . S
C3877 C3873 1.495 . S
C3877 H3883 0.959 . S
C3877 H3884 0.961 . S
C3877 H3885 0.960 . S
C3878 C3876 1.381 . S
C3878 C3879 1.394 . S
C3878 H3886 0.930 . S
C3879 C3878 1.394 . S
C3879 C3880 1.383 . S
C3879 H3887 0.929 . S
C3880 C3879 1.383 . S
C3880 C3881 1.377 . S
C3881 H3865 0.930 . S
C3881 C3880 1.377 . S
C3881 C3882 1.379 . S
C3882 H3866 0.931 . S
C3882 C3876 1.383 . S
C3882 C3881 1.379 . S
H3883 C3877 0.959 . S
H3884 C3877 0.961 . S
H3885 C3877 0.960 . S
H3886 C3878 0.930 . S
H3887 C3879 0.929 . S
H3888 C3896 0.929 . S
H3889 C3898 0.930 . S
H3890 C3900 0.930 . S
H3891 C3903 0.929 . S
H3892 C3906 0.930 . S
H3893 C3908 0.960 . S
H3894 C3908 0.960 . S
H3895 C3908 0.960 . S
C3896 H3888 0.929 . S
C3896 C3897 1.377 . S
C3896 C3898 1.384 . S
C3897 C3896 1.377 . S
C3897 C3903 1.390 . S
C3898 H3889 0.930 . S
C3898 C3896 1.384 . S
C3898 C3899 1.372 . S
C3899 C3898 1.372 . S
C3899 C3900 1.400 . S
C3899 C3904 1.490 . S
C3900 H3890 0.930 . S
C3900 C3899 1.400 . S
C3900 C3903 1.386 . S
H3901 C3917 0.930 1_545 S
H3902 C3918 0.879 1_545 S
C3903 H3891 0.929 . S
C3903 C3897 1.390 . S
C3903 C3900 1.386 . S
C3904 C3899 1.490 . S
C3904 C3906 1.395 . S
C3904 C3907 1.403 . S
H3905 C3911 0.930 . S
C3906 H3892 0.930 . S
C3906 C3904 1.395 . S
C3906 C3909 1.403 . S
C3907 C3904 1.403 . S
C3907 C3908 1.524 . S
C3907 C3911 1.400 . S
C3908 H3893 0.960 . S
C3908 H3894 0.960 . S
C3908 H3895 0.960 . S
C3908 C3907 1.524 . S
C3909 C3906 1.403 . S
C3909 C3910 1.392 . S
C3909 C3913 1.495 . S
C3910 C3909 1.392 . S
C3910 C3911 1.385 . S
C3910 C3912 1.478 . S
C3911 H3905 0.930 . S
C3911 C3907 1.400 . S
C3911 C3910 1.385 . S
C3912 C3910 1.478 . S
C3912 C3914 1.381 . S
C3912 C3918 1.383 . S
C3913 C3909 1.495 . S
C3913 H3919 0.959 . S
C3913 H3920 0.961 . S
C3913 H3921 0.960 . S
C3914 C3912 1.381 . S
C3914 C3915 1.394 . S
C3914 H3922 0.930 . S
C3915 C3914 1.394 . S
C3915 C3916 1.383 . S
C3915 H3923 0.929 . S
C3916 C3915 1.383 . S
C3916 C3917 1.377 . S
C3917 H3901 0.930 1_565 S
C3917 C3916 1.377 . S
C3917 C3918 1.379 . S
C3918 H3902 0.879 1_565 S
C3918 C3912 1.383 . S
C3918 C3917 1.379 . S
H3919 C3913 0.959 . S
H3920 C3913 0.961 . S
H3921 C3913 0.960 . S
H3922 C3914 0.930 . S
H3923 C3915 0.929 . S
H3924 C3932 0.929 . S
H3925 C3934 0.930 . S
H3926 C3936 0.930 . S
H3927 C3939 0.929 . S
H3928 C3942 0.918 1_545 S
H3929 C3944 0.960 . S
H3930 C3944 0.960 . S
H3931 C3944 0.960 . S
C3932 H3924 0.929 . S
C3932 C3933 1.377 . S
C3932 C3934 1.384 . S
C3933 C3932 1.377 . S
C3933 C3939 1.390 . S
C3934 H3925 0.930 . S
C3934 C3932 1.384 . S
C3934 C3935 1.372 . S
C3935 C3934 1.372 . S
C3935 C3936 1.400 . S
C3935 C3940 1.490 . S
C3936 H3926 0.930 . S
C3936 C3935 1.400 . S
C3936 C3939 1.386 . S
H3937 C3953 0.932 . S
H3938 C3954 0.931 . S
C3939 H3927 0.929 . S
C3939 C3933 1.390 . S
C3939 C3936 1.386 . S
C3940 C3935 1.490 . S
C3940 C3942 1.432 . S
C3940 C3943 1.403 . S
H3941 C3947 0.930 . S
C3942 H3928 0.918 1_565 S
C3942 C3940 1.432 . S
C3942 C3945 1.379 1_565 S
C3943 C3940 1.403 . S
C3943 C3944 1.524 . S
C3943 C3947 1.400 . S
C3944 H3929 0.960 . S
C3944 H3930 0.960 . S
C3944 H3931 0.960 . S
C3944 C3943 1.524 . S
C3945 C3942 1.379 1_545 S
C3945 C3946 1.392 1_545 S
C3945 C3949 1.495 . S
C3946 C3945 1.392 1_565 S
C3946 C3947 1.385 . S
C3946 C3948 1.478 . S
C3947 H3941 0.930 . S
C3947 C3943 1.400 . S
C3947 C3946 1.385 . S
C3948 C3946 1.478 . S
C3948 C3950 1.381 . S
C3948 C3954 1.383 . S
C3949 C3945 1.495 . S
C3949 H3955 0.959 . S
C3949 H3956 0.961 . S
C3949 H3957 0.960 . S
C3950 C3948 1.381 . S
C3950 C3951 1.352 1_565 S
C3950 H3958 0.930 . S
C3951 C3950 1.352 1_545 S
C3951 C3952 1.389 . S
C3951 H3959 0.973 . S
C3952 C3951 1.389 . S
C3952 C3953 1.404 . S
C3953 H3937 0.932 . S
C3953 C3952 1.404 . S
C3953 C3954 1.352 1_545 S
C3954 H3938 0.931 . S
C3954 C3948 1.383 . S
C3954 C3953 1.352 1_565 S
H3955 C3949 0.959 . S
H3956 C3949 0.961 . S
H3957 C3949 0.960 . S
H3958 C3950 0.930 . S
H3959 C3951 0.973 . S
H3960 C3968 0.929 . S
H3961 C3970 0.930 . S
H3962 C3972 0.930 . S
H3963 C3975 0.929 . S
H3964 C3978 0.930 . S
H3965 C3980 0.960 . S
H3966 C3980 0.960 . S
H3967 C3980 0.960 . S
C3968 H3960 0.929 . S
C3968 C3969 1.377 . S
C3968 C3970 1.384 . S
C3969 C3968 1.377 . S
C3969 C3975 1.390 . S
C3970 H3961 0.930 . S
C3970 C3968 1.384 . S
C3970 C3971 1.372 . S
C3971 C3970 1.372 . S
C3971 C3972 1.400 . S
C3971 C3976 1.490 . S
C3972 H3962 0.930 . S
C3972 C3971 1.400 . S
C3972 C3975 1.386 . S
H3973 C3989 0.930 . S
H3974 C3990 0.931 . S
C3975 H3963 0.929 . S
C3975 C3969 1.390 . S
C3975 C3972 1.386 . S
C3976 C3971 1.490 . S
C3976 C3978 1.395 . S
C3976 C3979 1.403 . S
H3977 C3983 0.930 . S
C3978 H3964 0.930 . S
C3978 C3976 1.395 . S
C3978 C3981 1.403 . S
C3979 C3976 1.403 . S
C3979 C3980 1.524 . S
C3979 C3983 1.400 . S
C3980 H3965 0.960 . S
C3980 H3966 0.960 . S
C3980 H3967 0.960 . S
C3980 C3979 1.524 . S
C3981 C3978 1.403 . S
C3981 C3982 1.392 . S
C3981 C3985 1.495 . S
C3982 C3981 1.392 . S
C3982 C3983 1.385 . S
C3982 C3984 1.478 . S
C3983 H3977 0.930 . S
C3983 C3979 1.400 . S
C3983 C3982 1.385 . S
C3984 C3982 1.478 . S
C3984 C3986 1.381 1_455 S
C3984 C3990 1.383 . S
C3985 C3981 1.495 . S
C3985 H3991 0.959 . S
C3985 H3992 0.961 . S
C3985 H3993 0.960 . S
C3986 C3984 1.381 1_655 S
C3986 C3987 1.394 . S
C3986 H3994 0.930 . S
C3987 C3986 1.394 . S
C3987 C3988 1.383 . S
C3987 H3995 0.929 . S
C3988 C3987 1.383 . S
C3988 C3989 1.377 1_655 S
C3989 H3973 0.930 . S
C3989 C3988 1.377 1_455 S
C3989 C3990 1.379 . S
C3990 H3974 0.931 . S
C3990 C3984 1.383 . S
C3990 C3989 1.379 . S
H3991 C3985 0.959 . S
H3992 C3985 0.961 . S
H3993 C3985 0.960 . S
H3994 C3986 0.930 . S
H3995 C3987 0.929 . S
H3996 C4004 0.929 . S
H3997 C4006 0.930 . S
H3998 C4008 0.930 . S
H3999 C4011 0.929 . S
H4000 C4014 0.930 . S
H4001 C4016 0.960 . S
H4002 C4016 0.960 . S
H4003 C4016 0.960 . S
C4004 H3996 0.929 . S
C4004 C4005 1.377 . S
C4004 C4006 1.384 . S
C4005 C4004 1.377 . S
C4005 C4011 1.390 . S
C4006 H3997 0.930 . S
C4006 C4004 1.384 . S
C4006 C4007 1.372 . S
C4007 C4006 1.372 . S
C4007 C4008 1.400 . S
C4007 C4012 1.490 . S
C4008 H3998 0.930 . S
C4008 C4007 1.400 . S
C4008 C4011 1.386 . S
H4009 C4025 0.930 . S
H4010 C4026 0.931 . S
C4011 H3999 0.929 . S
C4011 C4005 1.390 . S
C4011 C4008 1.386 . S
C4012 C4007 1.490 . S
C4012 C4014 1.395 . S
C4012 C4015 1.403 . S
H4013 C4019 0.930 . S
C4014 H4000 0.930 . S
C4014 C4012 1.395 . S
C4014 C4017 1.403 . S
C4015 C4012 1.403 . S
C4015 C4016 1.524 . S
C4015 C4019 1.400 . S
C4016 H4001 0.960 . S
C4016 H4002 0.960 . S
C4016 H4003 0.960 . S
C4016 C4015 1.524 . S
C4017 C4014 1.403 . S
C4017 C4018 1.392 . S
C4017 C4021 1.495 . S
C4018 C4017 1.392 . S
C4018 C4019 1.385 . S
C4018 C4020 1.478 . S
C4019 H4013 0.930 . S
C4019 C4015 1.400 . S
C4019 C4018 1.385 . S
C4020 C4018 1.478 . S
C4020 C4022 1.381 . S
C4020 C4026 1.383 . S
C4021 C4017 1.495 . S
C4021 H4027 0.959 . S
C4021 H4028 0.961 . S
C4021 H4029 0.960 . S
C4022 C4020 1.381 . S
C4022 C4023 1.394 . S
C4022 H4030 0.930 . S
C4023 C4022 1.394 . S
C4023 C4024 1.383 . S
C4023 H4031 0.929 . S
C4024 C4023 1.383 . S
C4024 C4025 1.377 . S
C4025 H4009 0.930 . S
C4025 C4024 1.377 . S
C4025 C4026 1.379 . S
C4026 H4010 0.931 . S
C4026 C4020 1.383 . S
C4026 C4025 1.379 . S
H4027 C4021 0.959 . S
H4028 C4021 0.961 . S
H4029 C4021 0.960 . S
H4030 C4022 0.930 . S
H4031 C4023 0.929 . S
H4032 C4040 0.929 . S
H4033 C4042 0.930 . S
H4034 C4044 0.930 . S
H4035 C4047 0.929 . S
H4036 C4050 0.930 . S
H4037 C4052 0.960 . S
H4038 C4052 0.960 . S
H4039 C4052 0.960 . S
C4040 H4032 0.929 . S
C4040 C4041 1.377 . S
C4040 C4042 1.384 . S
C4041 C4040 1.377 . S
C4041 C4047 1.390 . S
C4042 H4033 0.930 . S
C4042 C4040 1.384 . S
C4042 C4043 1.372 . S
C4043 C4042 1.372 . S
C4043 C4044 1.400 . S
C4043 C4048 1.490 . S
C4044 H4034 0.930 . S
C4044 C4043 1.400 . S
C4044 C4047 1.386 . S
H4045 C4061 0.930 . S
H4046 C4062 0.931 . S
C4047 H4035 0.929 . S
C4047 C4041 1.390 . S
C4047 C4044 1.386 . S
C4048 C4043 1.490 . S
C4048 C4050 1.395 . S
C4048 C4051 1.403 . S
H4049 C4055 0.930 . S
C4050 H4036 0.930 . S
C4050 C4048 1.395 . S
C4050 C4053 1.403 . S
C4051 C4048 1.403 . S
C4051 C4052 1.524 . S
C4051 C4055 1.400 . S
C4052 H4037 0.960 . S
C4052 H4038 0.960 . S
C4052 H4039 0.960 . S
C4052 C4051 1.524 . S
C4053 C4050 1.403 . S
C4053 C4054 1.392 . S
C4053 C4057 1.495 . S
C4054 C4053 1.392 . S
C4054 C4055 1.385 . S
C4054 C4056 1.478 . S
C4055 H4049 0.930 . S
C4055 C4051 1.400 . S
C4055 C4054 1.385 . S
C4056 C4054 1.478 . S
C4056 C4058 1.381 . S
C4056 C4062 1.383 . S
C4057 C4053 1.495 . S
C4057 H4063 0.959 . S
C4057 H4064 0.961 . S
C4057 H4065 0.960 . S
C4058 C4056 1.381 . S
C4058 C4059 1.394 . S
C4058 H4066 0.930 . S
C4059 C4058 1.394 . S
C4059 C4060 1.383 . S
C4059 H4067 0.929 . S
C4060 C4059 1.383 . S
C4060 C4061 1.377 . S
C4061 H4045 0.930 . S
C4061 C4060 1.377 . S
C4061 C4062 1.379 . S
C4062 H4046 0.931 . S
C4062 C4056 1.383 . S
C4062 C4061 1.379 . S
H4063 C4057 0.959 . S
H4064 C4057 0.961 . S
H4065 C4057 0.960 . S
H4066 C4058 0.930 . S
H4067 C4059 0.929 . S
H4068 C4076 0.929 . S
H4069 C4078 0.930 . S
H4070 C4080 0.930 . S
H4071 C4083 0.929 . S
H4072 C4086 0.930 . S
H4073 C4088 0.960 . S
H4074 C4088 0.960 . S
H4075 C4088 0.960 . S
C4076 H4068 0.929 . S
C4076 C4077 1.377 . S
C4076 C4078 1.384 . S
C4077 C4076 1.377 . S
C4077 C4083 1.390 . S
C4078 H4069 0.930 . S
C4078 C4076 1.384 . S
C4078 C4079 1.372 . S
C4079 C4078 1.372 . S
C4079 C4080 1.400 . S
C4079 C4084 1.490 . S
C4080 H4070 0.930 . S
C4080 C4079 1.400 . S
C4080 C4083 1.386 . S
H4081 C4097 0.930 . S
H4082 C4098 0.931 . S
C4083 H4071 0.929 . S
C4083 C4077 1.390 . S
C4083 C4080 1.386 . S
C4084 C4079 1.490 . S
C4084 C4086 1.395 . S
C4084 C4087 1.403 . S
H4085 C4091 0.930 . S
C4086 H4072 0.930 . S
C4086 C4084 1.395 . S
C4086 C4089 1.403 . S
C4087 C4084 1.403 . S
C4087 C4088 1.524 . S
C4087 C4091 1.400 . S
C4088 H4073 0.960 . S
C4088 H4074 0.960 . S
C4088 H4075 0.960 . S
C4088 C4087 1.524 . S
C4089 C4086 1.403 . S
C4089 C4090 1.392 . S
C4089 C4093 1.495 . S
C4090 C4089 1.392 . S
C4090 C4091 1.385 . S
C4090 C4092 1.478 . S
C4091 H4085 0.930 . S
C4091 C4087 1.400 . S
C4091 C4090 1.385 . S
C4092 C4090 1.478 . S
C4092 C4094 1.381 . S
C4092 C4098 1.383 . S
C4093 C4089 1.495 . S
C4093 H4099 0.959 . S
C4093 H4100 0.961 . S
C4093 H4101 0.960 . S
C4094 C4092 1.381 . S
C4094 C4095 1.394 . S
C4094 H4102 0.930 . S
C4095 C4094 1.394 . S
C4095 C4096 1.383 . S
C4095 H4103 0.929 . S
C4096 C4095 1.383 . S
C4096 C4097 1.377 . S
C4097 H4081 0.930 . S
C4097 C4096 1.377 . S
C4097 C4098 1.379 . S
C4098 H4082 0.931 . S
C4098 C4092 1.383 . S
C4098 C4097 1.379 . S
H4099 C4093 0.959 . S
H4100 C4093 0.961 . S
H4101 C4093 0.960 . S
H4102 C4094 0.930 . S
H4103 C4095 0.929 . S
H4104 C4112 0.929 . S
H4105 C4114 0.930 . S
H4106 C4116 0.930 . S
H4107 C4119 0.929 . S
H4108 C4122 0.930 . S
H4109 C4124 0.960 . S
H4110 C4124 0.960 . S
H4111 C4124 0.960 . S
C4112 H4104 0.929 . S
C4112 C4113 1.377 . S
C4112 C4114 1.384 . S
C4113 C4112 1.377 . S
C4113 C4119 1.390 . S
C4114 H4105 0.930 . S
C4114 C4112 1.384 . S
C4114 C4115 1.372 . S
C4115 C4114 1.372 . S
C4115 C4116 1.400 . S
C4115 C4120 1.490 . S
C4116 H4106 0.930 . S
C4116 C4115 1.400 . S
C4116 C4119 1.386 . S
H4117 C4133 0.930 . S
H4118 C4134 0.931 . S
C4119 H4107 0.929 . S
C4119 C4113 1.390 . S
C4119 C4116 1.386 . S
C4120 C4115 1.490 . S
C4120 C4122 1.395 . S
C4120 C4123 1.403 . S
H4121 C4127 0.930 . S
C4122 H4108 0.930 . S
C4122 C4120 1.395 . S
C4122 C4125 1.403 . S
C4123 C4120 1.403 . S
C4123 C4124 1.524 . S
C4123 C4127 1.400 . S
C4124 H4109 0.960 . S
C4124 H4110 0.960 . S
C4124 H4111 0.960 . S
C4124 C4123 1.524 . S
C4125 C4122 1.403 . S
C4125 C4126 1.392 . S
C4125 C4129 1.495 . S
C4126 C4125 1.392 . S
C4126 C4127 1.385 . S
C4126 C4128 1.478 . S
C4127 H4121 0.930 . S
C4127 C4123 1.400 . S
C4127 C4126 1.385 . S
C4128 C4126 1.478 . S
C4128 C4130 1.381 . S
C4128 C4134 1.383 . S
C4129 C4125 1.495 . S
C4129 H4135 0.959 . S
C4129 H4136 0.961 . S
C4129 H4137 0.960 . S
C4130 C4128 1.381 . S
C4130 C4131 1.394 . S
C4130 H4138 0.930 . S
C4131 C4130 1.394 . S
C4131 C4132 1.383 . S
C4131 H4139 0.929 . S
C4132 C4131 1.383 . S
C4132 C4133 1.377 . S
C4133 H4117 0.930 . S
C4133 C4132 1.377 . S
C4133 C4134 1.379 . S
C4134 H4118 0.931 . S
C4134 C4128 1.383 . S
C4134 C4133 1.379 . S
H4135 C4129 0.959 . S
H4136 C4129 0.961 . S
H4137 C4129 0.960 . S
H4138 C4130 0.930 . S
H4139 C4131 0.929 . S
H4140 C4148 0.929 . S
H4141 C4150 0.930 . S
H4142 C4152 0.930 . S
H4143 C4155 0.929 . S
H4144 C4158 0.930 . S
H4145 C4160 0.960 1_565 S
H4146 C4160 0.960 1_565 S
H4147 C4160 0.960 . S
C4148 H4140 0.929 . S
C4148 C4149 1.377 . S
C4148 C4150 1.384 . S
C4149 C4148 1.377 . S
C4149 C4155 1.390 . S
C4150 H4141 0.930 . S
C4150 C4148 1.384 . S
C4150 C4151 1.372 . S
C4151 C4150 1.372 . S
C4151 C4152 1.400 . S
C4151 C4156 1.490 . S
C4152 H4142 0.930 . S
C4152 C4151 1.400 . S
C4152 C4155 1.386 . S
H4153 C4169 0.930 . S
H4154 C4170 0.931 . S
C4155 H4143 0.929 . S
C4155 C4149 1.390 . S
C4155 C4152 1.386 . S
C4156 C4151 1.490 . S
C4156 C4158 1.395 . S
C4156 C4159 1.403 . S
H4157 C4163 0.930 . S
C4158 H4144 0.930 . S
C4158 C4156 1.395 . S
C4158 C4161 1.403 . S
C4159 C4156 1.403 . S
C4159 C4160 1.524 . S
C4159 C4163 1.400 . S
C4160 H4145 0.960 1_545 S
C4160 H4146 0.960 1_545 S
C4160 H4147 0.960 . S
C4160 C4159 1.524 . S
C4161 C4158 1.403 . S
C4161 C4162 1.392 . S
C4161 C4165 1.495 . S
C4162 C4161 1.392 . S
C4162 C4163 1.385 . S
C4162 C4164 1.478 . S
C4163 H4157 0.930 . S
C4163 C4159 1.400 . S
C4163 C4162 1.385 . S
C4164 C4162 1.478 . S
C4164 C4166 1.381 . S
C4164 C4170 1.383 . S
C4165 C4161 1.495 . S
C4165 H4171 0.959 . S
C4165 H4172 0.961 . S
C4165 H4173 0.960 . S
C4166 C4164 1.381 . S
C4166 C4167 1.394 . S
C4166 H4174 0.930 . S
C4167 C4166 1.394 . S
C4167 C4168 1.383 . S
C4167 H4175 0.902 1_545 S
C4168 C4167 1.383 . S
C4168 C4169 1.377 . S
C4169 H4153 0.930 . S
C4169 C4168 1.377 . S
C4169 C4170 1.379 . S
C4170 H4154 0.931 . S
C4170 C4164 1.383 . S
C4170 C4169 1.379 . S
H4171 C4165 0.959 . S
H4172 C4165 0.961 . S
H4173 C4165 0.960 . S
H4174 C4166 0.930 . S
H4175 C4167 0.902 1_565 S
H4176 C4184 0.929 . S
H4177 C4186 0.930 . S
H4178 C4188 0.930 . S
H4179 C4191 0.929 . S
H4180 C4194 0.930 . S
H4181 C4196 0.960 . S
H4182 C4196 0.960 . S
H4183 C4196 0.960 . S
C4184 H4176 0.929 . S
C4184 C4185 1.377 . S
C4184 C4186 1.384 . S
C4185 C4184 1.377 . S
C4185 C4191 1.390 . S
C4186 H4177 0.930 . S
C4186 C4184 1.384 . S
C4186 C4187 1.372 . S
C4187 C4186 1.372 . S
C4187 C4188 1.400 . S
C4187 C4192 1.490 . S
C4188 H4178 0.930 . S
C4188 C4187 1.400 . S
C4188 C4191 1.386 . S
H4189 C4205 0.930 . S
H4190 C4206 0.931 . S
C4191 H4179 0.929 . S
C4191 C4185 1.390 . S
C4191 C4188 1.386 . S
C4192 C4187 1.490 . S
C4192 C4194 1.395 . S
C4192 C4195 1.403 . S
H4193 C4199 0.930 . S
C4194 H4180 0.930 . S
C4194 C4192 1.395 . S
C4194 C4197 1.403 . S
C4195 C4192 1.403 . S
C4195 C4196 1.524 . S
C4195 C4199 1.400 . S
C4196 H4181 0.960 . S
C4196 H4182 0.960 . S
C4196 H4183 0.960 . S
C4196 C4195 1.524 . S
C4197 C4194 1.403 . S
C4197 C4198 1.392 . S
C4197 C4201 1.495 . S
C4198 C4197 1.392 . S
C4198 C4199 1.385 . S
C4198 C4200 1.478 . S
C4199 H4193 0.930 . S
C4199 C4195 1.400 . S
C4199 C4198 1.385 . S
C4200 C4198 1.478 . S
C4200 C4202 1.381 . S
C4200 C4206 1.383 . S
C4201 C4197 1.495 . S
C4201 H4207 0.959 . S
C4201 H4208 0.961 . S
C4201 H4209 0.960 . S
C4202 C4200 1.381 . S
C4202 C4203 1.397 . S
C4202 H4210 0.930 1_655 S
C4203 C4202 1.397 . S
C4203 C4204 1.376 . S
C4203 H4211 0.934 1_655 S
C4204 C4203 1.376 . S
C4204 C4205 1.377 . S
C4205 H4189 0.930 . S
C4205 C4204 1.377 . S
C4205 C4206 1.379 . S
C4206 H4190 0.931 . S
C4206 C4200 1.383 . S
C4206 C4205 1.379 . S
H4207 C4201 0.959 . S
H4208 C4201 0.961 . S
H4209 C4201 0.960 . S
H4210 C4202 0.930 1_455 S
H4211 C4203 0.934 1_455 S
H4212 C4220 0.929 . S
H4213 C4222 0.930 . S
H4214 C4224 0.930 . S
H4215 C4227 0.929 . S
H4216 C4230 0.930 . S
H4217 C4232 0.960 . S
H4218 C4232 0.960 . S
H4219 C4232 0.960 . S
C4220 H4212 0.929 . S
C4220 C4221 1.377 . S
C4220 C4222 1.384 . S
C4221 C4220 1.377 . S
C4221 C4227 1.390 . S
C4222 H4213 0.930 . S
C4222 C4220 1.384 . S
C4222 C4223 1.372 . S
C4223 C4222 1.372 . S
C4223 C4224 1.400 . S
C4223 C4228 1.490 . S
C4224 H4214 0.930 . S
C4224 C4223 1.400 . S
C4224 C4227 1.386 . S
H4225 C4241 0.930 . S
H4226 C4242 0.931 . S
C4227 H4215 0.929 . S
C4227 C4221 1.390 . S
C4227 C4224 1.386 . S
C4228 C4223 1.490 . S
C4228 C4230 1.395 . S
C4228 C4231 1.403 . S
H4229 C4235 0.930 . S
C4230 H4216 0.930 . S
C4230 C4228 1.395 . S
C4230 C4233 1.403 . S
C4231 C4228 1.403 . S
C4231 C4232 1.524 . S
C4231 C4235 1.400 . S
C4232 H4217 0.960 . S
C4232 H4218 0.960 . S
C4232 H4219 0.960 . S
C4232 C4231 1.524 . S
C4233 C4230 1.403 . S
C4233 C4234 1.392 . S
C4233 C4237 1.495 . S
C4234 C4233 1.392 . S
C4234 C4235 1.385 . S
C4234 C4236 1.478 . S
C4235 H4229 0.930 . S
C4235 C4231 1.400 . S
C4235 C4234 1.385 . S
C4236 C4234 1.478 . S
C4236 C4238 1.381 . S
C4236 C4242 1.383 . S
C4237 C4233 1.495 . S
C4237 H4243 0.959 . S
C4237 H4244 0.961 . S
C4237 H4245 0.960 . S
C4238 C4236 1.381 . S
C4238 C4239 1.394 . S
C4238 H4246 0.930 . S
C4239 C4238 1.394 . S
C4239 C4240 1.383 . S
C4239 H4247 0.929 . S
C4240 C4239 1.383 . S
C4240 C4241 1.377 . S
C4241 H4225 0.930 . S
C4241 C4240 1.377 . S
C4241 C4242 1.379 . S
C4242 H4226 0.931 . S
C4242 C4236 1.383 . S
C4242 C4241 1.379 . S
H4243 C4237 0.959 . S
H4244 C4237 0.961 . S
H4245 C4237 0.960 . S
H4246 C4238 0.930 . S
H4247 C4239 0.929 . S
H4248 C4256 0.929 . S
H4249 C4258 0.930 . S
H4250 C4260 0.930 . S
H4251 C4263 0.929 . S
H4252 C4266 0.930 . S
H4253 C4268 0.960 . S
H4254 C4268 0.960 . S
H4255 C4268 0.960 . S
C4256 H4248 0.929 . S
C4256 C4257 1.377 . S
C4256 C4258 1.384 . S
C4257 C4256 1.377 . S
C4257 C4263 1.390 . S
C4258 H4249 0.930 . S
C4258 C4256 1.384 . S
C4258 C4259 1.372 . S
C4259 C4258 1.372 . S
C4259 C4260 1.400 . S
C4259 C4264 1.490 . S
C4260 H4250 0.930 . S
C4260 C4259 1.400 . S
C4260 C4263 1.386 . S
H4261 C4277 0.930 . S
H4262 C4278 0.931 . S
C4263 H4251 0.929 . S
C4263 C4257 1.390 . S
C4263 C4260 1.386 . S
C4264 C4259 1.490 . S
C4264 C4266 1.395 . S
C4264 C4267 1.403 . S
H4265 C4271 0.930 . S
C4266 H4252 0.930 . S
C4266 C4264 1.395 . S
C4266 C4269 1.403 . S
C4267 C4264 1.403 . S
C4267 C4268 1.524 . S
C4267 C4271 1.400 . S
C4268 H4253 0.960 . S
C4268 H4254 0.960 . S
C4268 H4255 0.960 . S
C4268 C4267 1.524 . S
C4269 C4266 1.403 . S
C4269 C4270 1.392 . S
C4269 C4273 1.495 . S
C4270 C4269 1.392 . S
C4270 C4271 1.385 . S
C4270 C4272 1.478 . S
C4271 H4265 0.930 . S
C4271 C4267 1.400 . S
C4271 C4270 1.385 . S
C4272 C4270 1.478 . S
C4272 C4274 1.381 . S
C4272 C4278 1.383 . S
C4273 C4269 1.495 . S
C4273 H4279 0.959 . S
C4273 H4280 0.961 . S
C4273 H4281 0.960 . S
C4274 C4272 1.381 . S
C4274 C4275 1.394 . S
C4274 H4282 0.930 . S
C4275 C4274 1.394 . S
C4275 C4276 1.383 . S
C4275 H4283 0.929 . S
C4276 C4275 1.383 . S
C4276 C4277 1.377 . S
C4277 H4261 0.930 . S
C4277 C4276 1.377 . S
C4277 C4278 1.379 . S
C4278 H4262 0.931 . S
C4278 C4272 1.383 . S
C4278 C4277 1.379 . S
H4279 C4273 0.959 . S
H4280 C4273 0.961 . S
H4281 C4273 0.960 . S
H4282 C4274 0.930 . S
H4283 C4275 0.929 . S
H4284 C4292 0.929 . S
H4285 C4294 0.930 . S
H4286 C4296 0.930 . S
H4287 C4299 0.929 . S
H4288 C4302 0.930 . S
H4289 C4304 0.960 . S
H4290 C4304 0.960 . S
H4291 C4304 0.960 . S
C4292 H4284 0.929 . S
C4292 C4293 1.377 . S
C4292 C4294 1.384 . S
C4293 C4292 1.377 . S
C4293 C4299 1.390 . S
C4294 H4285 0.930 . S
C4294 C4292 1.384 . S
C4294 C4295 1.372 . S
C4295 C4294 1.372 . S
C4295 C4296 1.400 . S
C4295 C4300 1.490 . S
C4296 H4286 0.930 . S
C4296 C4295 1.400 . S
C4296 C4299 1.386 . S
H4297 C4313 0.930 . S
H4298 C4314 0.931 . S
C4299 H4287 0.929 . S
C4299 C4293 1.390 . S
C4299 C4296 1.386 . S
C4300 C4295 1.490 . S
C4300 C4302 1.395 . S
C4300 C4303 1.403 . S
H4301 C4307 0.930 . S
C4302 H4288 0.930 . S
C4302 C4300 1.395 . S
C4302 C4305 1.403 . S
C4303 C4300 1.403 . S
C4303 C4304 1.524 . S
C4303 C4307 1.400 . S
C4304 H4289 0.960 . S
C4304 H4290 0.960 . S
C4304 H4291 0.960 . S
C4304 C4303 1.524 . S
C4305 C4302 1.403 . S
C4305 C4306 1.392 . S
C4305 C4309 1.495 . S
C4306 C4305 1.392 . S
C4306 C4307 1.385 . S
C4306 C4308 1.478 . S
C4307 H4301 0.930 . S
C4307 C4303 1.400 . S
C4307 C4306 1.385 . S
C4308 C4306 1.478 . S
C4308 C4310 1.381 . S
C4308 C4314 1.383 . S
C4309 C4305 1.495 . S
C4309 H4315 0.959 . S
C4309 H4316 0.961 . S
C4309 H4317 0.960 . S
C4310 C4308 1.381 . S
C4310 C4311 1.394 . S
C4310 H4318 0.930 . S
C4311 C4310 1.394 . S
C4311 C4312 1.383 . S
C4311 H4319 0.929 . S
C4312 C4311 1.383 . S
C4312 C4313 1.377 . S
C4313 H4297 0.930 . S
C4313 C4312 1.377 . S
C4313 C4314 1.379 . S
C4314 H4298 0.931 . S
C4314 C4308 1.383 . S
C4314 C4313 1.379 . S
H4315 C4309 0.959 . S
H4316 C4309 0.961 . S
H4317 C4309 0.960 . S
H4318 C4310 0.930 . S
H4319 C4311 0.929 . S
H4320 C4328 0.929 . S
H4321 C4330 0.930 . S
H4322 C4332 0.930 . S
H4323 C4335 0.929 1_655 S
H4324 C4338 0.930 . S
H4325 C4340 0.960 . S
H4326 C4340 0.960 . S
H4327 C4340 0.960 . S
C4328 H4320 0.929 . S
C4328 C4329 1.377 . S
C4328 C4330 1.384 . S
C4329 C4328 1.377 . S
C4329 C4335 1.390 . S
C4330 H4321 0.930 . S
C4330 C4328 1.384 . S
C4330 C4331 1.372 . S
C4331 C4330 1.372 . S
C4331 C4332 1.400 . S
C4331 C4336 1.490 . S
C4332 H4322 0.930 . S
C4332 C4331 1.400 . S
C4332 C4335 1.386 . S
H4333 C4349 0.930 . S
H4334 C4350 0.931 . S
C4335 H4323 0.929 1_455 S
C4335 C4329 1.390 . S
C4335 C4332 1.386 . S
C4336 C4331 1.490 . S
C4336 C4338 1.395 . S
C4336 C4339 1.403 . S
H4337 C4343 0.930 . S
C4338 H4324 0.930 . S
C4338 C4336 1.395 . S
C4338 C4341 1.403 . S
C4339 C4336 1.403 . S
C4339 C4340 1.524 . S
C4339 C4343 1.400 . S
C4340 H4325 0.960 . S
C4340 H4326 0.960 . S
C4340 H4327 0.960 . S
C4340 C4339 1.524 . S
C4341 C4338 1.403 . S
C4341 C4342 1.392 . S
C4341 C4345 1.495 . S
C4342 C4341 1.392 . S
C4342 C4343 1.385 . S
C4342 C4344 1.478 . S
C4343 H4337 0.930 . S
C4343 C4339 1.400 . S
C4343 C4342 1.385 . S
C4344 C4342 1.478 . S
C4344 C4346 1.381 . S
C4344 C4350 1.383 . S
C4345 C4341 1.495 . S
C4345 H4351 0.959 . S
C4345 H4352 0.961 . S
C4345 H4353 0.960 . S
C4346 C4344 1.381 . S
C4346 C4347 1.394 . S
C4346 H4354 0.930 . S
C4347 C4346 1.394 . S
C4347 C4348 1.383 . S
C4347 H4355 0.929 . S
C4348 C4347 1.383 . S
C4348 C4349 1.377 . S
C4349 H4333 0.930 . S
C4349 C4348 1.377 . S
C4349 C4350 1.379 . S
C4350 H4334 0.931 . S
C4350 C4344 1.383 . S
C4350 C4349 1.379 . S
H4351 C4345 0.959 . S
H4352 C4345 0.961 . S
H4353 C4345 0.960 . S
H4354 C4346 0.930 . S
H4355 C4347 0.929 . S
H4356 C4364 0.929 . S
H4357 C4366 0.930 . S
H4358 C4368 0.930 . S
H4359 C4371 0.929 . S
H4360 C4374 0.930 . S
H4361 C4376 0.960 . S
H4362 C4376 0.960 . S
H4363 C4376 0.960 . S
C4364 H4356 0.929 . S
C4364 C4365 1.377 . S
C4364 C4366 1.384 . S
C4365 C4364 1.377 . S
C4365 C4371 1.390 . S
C4366 H4357 0.930 . S
C4366 C4364 1.384 . S
C4366 C4367 1.372 . S
C4367 C4366 1.372 . S
C4367 C4368 1.400 . S
C4367 C4372 1.490 . S
C4368 H4358 0.930 . S
C4368 C4367 1.400 . S
C4368 C4371 1.386 . S
H4369 C4385 0.930 . S
H4370 C4386 0.931 . S
C4371 H4359 0.929 . S
C4371 C4365 1.390 . S
C4371 C4368 1.386 . S
C4372 C4367 1.490 . S
C4372 C4374 1.395 . S
C4372 C4375 1.403 . S
H4373 C4379 0.930 . S
C4374 H4360 0.930 . S
C4374 C4372 1.395 . S
C4374 C4377 1.403 . S
C4375 C4372 1.403 . S
C4375 C4376 1.524 . S
C4375 C4379 1.400 . S
C4376 H4361 0.960 . S
C4376 H4362 0.960 . S
C4376 H4363 0.960 . S
C4376 C4375 1.524 . S
C4377 C4374 1.403 . S
C4377 C4378 1.392 . S
C4377 C4381 1.495 . S
C4378 C4377 1.392 . S
C4378 C4379 1.385 . S
C4378 C4380 1.478 . S
C4379 H4373 0.930 . S
C4379 C4375 1.400 . S
C4379 C4378 1.385 . S
C4380 C4378 1.478 . S
C4380 C4382 1.381 . S
C4380 C4386 1.383 . S
C4381 C4377 1.495 . S
C4381 H4387 0.959 . S
C4381 H4388 0.961 . S
C4381 H4389 0.960 . S
C4382 C4380 1.381 . S
C4382 C4383 1.394 . S
C4382 H4390 0.930 . S
C4383 C4382 1.394 . S
C4383 C4384 1.383 . S
C4383 H4391 0.929 . S
C4384 C4383 1.383 . S
C4384 C4385 1.377 . S
C4385 H4369 0.930 . S
C4385 C4384 1.377 . S
C4385 C4386 1.379 . S
C4386 H4370 0.931 . S
C4386 C4380 1.383 . S
C4386 C4385 1.379 . S
H4387 C4381 0.959 . S
H4388 C4381 0.961 . S
H4389 C4381 0.960 . S
H4390 C4382 0.930 . S
H4391 C4383 0.929 . S
H4392 C4400 0.929 . S
H4393 C4402 0.930 . S
H4394 C4404 0.930 . S
H4395 C4407 0.929 . S
H4396 C4410 0.930 . S
H4397 C4412 0.960 . S
H4398 C4412 0.960 . S
H4399 C4412 0.960 . S
C4400 H4392 0.929 . S
C4400 C4401 1.377 . S
C4400 C4402 1.384 . S
C4401 C4400 1.377 . S
C4401 C4407 1.390 . S
C4402 H4393 0.930 . S
C4402 C4400 1.384 . S
C4402 C4403 1.372 . S
C4403 C4402 1.372 . S
C4403 C4404 1.400 . S
C4403 C4408 1.490 . S
C4404 H4394 0.930 . S
C4404 C4403 1.400 . S
C4404 C4407 1.386 . S
H4405 C4421 0.930 . S
H4406 C4422 0.931 . S
C4407 H4395 0.929 . S
C4407 C4401 1.390 . S
C4407 C4404 1.386 . S
C4408 C4403 1.490 . S
C4408 C4410 1.395 . S
C4408 C4411 1.403 . S
H4409 C4415 0.930 . S
C4410 H4396 0.930 . S
C4410 C4408 1.395 . S
C4410 C4413 1.403 . S
C4411 C4408 1.403 . S
C4411 C4412 1.524 . S
C4411 C4415 1.400 . S
C4412 H4397 0.960 . S
C4412 H4398 0.960 . S
C4412 H4399 0.960 . S
C4412 C4411 1.524 . S
C4413 C4410 1.403 . S
C4413 C4414 1.392 . S
C4413 C4417 1.495 . S
C4414 C4413 1.392 . S
C4414 C4415 1.385 . S
C4414 C4416 1.478 . S
C4415 H4409 0.930 . S
C4415 C4411 1.400 . S
C4415 C4414 1.385 . S
C4416 C4414 1.478 . S
C4416 C4418 1.381 . S
C4416 C4422 1.383 . S
C4417 C4413 1.495 . S
C4417 H4423 0.959 . S
C4417 H4424 0.961 . S
C4417 H4425 0.960 . S
C4418 C4416 1.381 . S
C4418 C4419 1.394 . S
C4418 H4426 0.930 . S
C4419 C4418 1.394 . S
C4419 C4420 1.383 . S
C4419 H4427 0.929 . S
C4420 C4419 1.383 . S
C4420 C4421 1.377 . S
C4421 H4405 0.930 . S
C4421 C4420 1.377 . S
C4421 C4422 1.379 . S
C4422 H4406 0.931 . S
C4422 C4416 1.383 . S
C4422 C4421 1.379 . S
H4423 C4417 0.959 . S
H4424 C4417 0.961 . S
H4425 C4417 0.960 . S
H4426 C4418 0.930 . S
H4427 C4419 0.929 . S
H4428 C4436 0.929 . S
H4429 C4438 0.930 . S
H4430 C4440 0.930 . S
H4431 C4443 0.929 1_655 S
H4432 C4446 0.930 . S
H4433 C4448 0.960 . S
H4434 C4448 0.960 . S
H4435 C4448 0.960 . S
C4436 H4428 0.929 . S
C4436 C4437 1.377 . S
C4436 C4438 1.384 . S
C4437 C4436 1.377 . S
C4437 C4443 1.390 . S
C4438 H4429 0.930 . S
C4438 C4436 1.384 . S
C4438 C4439 1.372 . S
C4439 C4438 1.372 . S
C4439 C4440 1.400 . S
C4439 C4444 1.490 . S
C4440 H4430 0.930 . S
C4440 C4439 1.400 . S
C4440 C4443 1.386 . S
H4441 C4457 0.930 . S
H4442 C4458 0.931 . S
C4443 H4431 0.929 1_455 S
C4443 C4437 1.390 . S
C4443 C4440 1.386 . S
C4444 C4439 1.490 . S
C4444 C4446 1.395 . S
C4444 C4447 1.403 . S
H4445 C4451 0.930 . S
C4446 H4432 0.930 . S
C4446 C4444 1.395 . S
C4446 C4449 1.403 . S
C4447 C4444 1.403 . S
C4447 C4448 1.524 . S
C4447 C4451 1.400 . S
C4448 H4433 0.960 . S
C4448 H4434 0.960 . S
C4448 H4435 0.960 . S
C4448 C4447 1.524 . S
C4449 C4446 1.403 . S
C4449 C4450 1.392 . S
C4449 C4453 1.495 . S
C4450 C4449 1.392 . S
C4450 C4451 1.385 . S
C4450 C4452 1.478 . S
C4451 H4445 0.930 . S
C4451 C4447 1.400 . S
C4451 C4450 1.385 . S
C4452 C4450 1.478 . S
C4452 C4454 1.381 . S
C4452 C4458 1.383 . S
C4453 C4449 1.495 . S
C4453 H4459 0.959 . S
C4453 H4460 0.961 . S
C4453 H4461 0.960 . S
C4454 C4452 1.381 . S
C4454 C4455 1.394 . S
C4454 H4462 0.930 . S
C4455 C4454 1.394 . S
C4455 C4456 1.383 . S
C4455 H4463 0.929 . S
C4456 C4455 1.383 . S
C4456 C4457 1.377 . S
C4457 H4441 0.930 . S
C4457 C4456 1.377 . S
C4457 C4458 1.379 . S
C4458 H4442 0.931 . S
C4458 C4452 1.383 . S
C4458 C4457 1.379 . S
H4459 C4453 0.959 . S
H4460 C4453 0.961 . S
H4461 C4453 0.960 . S
H4462 C4454 0.930 . S
H4463 C4455 0.929 . S
H4464 C4472 0.929 . S
H4465 C4474 0.930 . S
H4466 C4476 0.930 . S
H4467 C4479 0.929 . S
H4468 C4482 0.930 . S
H4469 C4484 0.960 1_455 S
H4470 C4484 0.960 1_455 S
H4471 C4484 0.960 . S
C4472 H4464 0.929 . S
C4472 C4473 1.377 . S
C4472 C4474 1.384 . S
C4473 C4472 1.377 . S
C4473 C4479 1.390 . S
C4474 H4465 0.930 . S
C4474 C4472 1.384 . S
C4474 C4475 1.372 . S
C4475 C4474 1.372 . S
C4475 C4476 1.400 . S
C4475 C4480 1.490 . S
C4476 H4466 0.930 . S
C4476 C4475 1.400 . S
C4476 C4479 1.386 . S
H4477 C4493 0.930 . S
H4478 C4494 0.931 . S
C4479 H4467 0.929 . S
C4479 C4473 1.390 . S
C4479 C4476 1.386 . S
C4480 C4475 1.490 . S
C4480 C4482 1.395 . S
C4480 C4483 1.403 . S
H4481 C4487 0.930 . S
C4482 H4468 0.930 . S
C4482 C4480 1.395 . S
C4482 C4485 1.403 . S
C4483 C4480 1.403 . S
C4483 C4484 1.524 . S
C4483 C4487 1.400 . S
C4484 H4469 0.960 1_655 S
C4484 H4470 0.960 1_655 S
C4484 H4471 0.960 . S
C4484 C4483 1.524 . S
C4485 C4482 1.403 . S
C4485 C4486 1.392 . S
C4485 C4489 1.495 . S
C4486 C4485 1.392 . S
C4486 C4487 1.385 . S
C4486 C4488 1.478 . S
C4487 H4481 0.930 . S
C4487 C4483 1.400 . S
C4487 C4486 1.385 . S
C4488 C4486 1.478 . S
C4488 C4490 1.381 . S
C4488 C4494 1.383 . S
C4489 C4485 1.495 . S
C4489 H4495 0.959 . S
C4489 H4496 0.961 . S
C4489 H4497 0.960 . S
C4490 C4488 1.381 . S
C4490 C4491 1.405 . S
C4490 H4498 0.930 . S
C4491 C4490 1.405 . S
C4491 C4492 1.379 . S
C4491 H4499 0.923 1_655 S
C4492 C4491 1.379 . S
C4492 C4493 1.377 . S
C4493 H4477 0.930 . S
C4493 C4492 1.377 . S
C4493 C4494 1.379 . S
C4494 H4478 0.931 . S
C4494 C4488 1.383 . S
C4494 C4493 1.379 . S
H4495 C4489 0.959 . S
H4496 C4489 0.961 . S
H4497 C4489 0.960 . S
H4498 C4490 0.930 . S
H4499 C4491 0.923 1_455 S
H4500 C4508 0.929 . S
H4501 C4510 0.930 . S
H4502 C4512 0.930 . S
H4503 C4515 0.929 . S
H4504 C4518 0.930 . S
H4505 C4520 0.960 . S
H4506 C4520 0.960 . S
H4507 C4520 0.960 . S
C4508 H4500 0.929 . S
C4508 C4509 1.377 . S
C4508 C4510 1.384 . S
C4509 C4508 1.377 . S
C4509 C4515 1.390 . S
C4510 H4501 0.930 . S
C4510 C4508 1.384 . S
C4510 C4511 1.372 . S
C4511 C4510 1.372 . S
C4511 C4512 1.400 . S
C4511 C4516 1.490 . S
C4512 H4502 0.930 . S
C4512 C4511 1.400 . S
C4512 C4515 1.386 . S
H4513 C4529 0.930 . S
H4514 C4530 0.931 . S
C4515 H4503 0.929 . S
C4515 C4509 1.390 . S
C4515 C4512 1.386 . S
C4516 C4511 1.490 . S
C4516 C4518 1.395 . S
C4516 C4519 1.403 . S
H4517 C4523 0.930 . S
C4518 H4504 0.930 . S
C4518 C4516 1.395 . S
C4518 C4521 1.403 . S
C4519 C4516 1.403 . S
C4519 C4520 1.524 . S
C4519 C4523 1.400 . S
C4520 H4505 0.960 . S
C4520 H4506 0.960 . S
C4520 H4507 0.960 . S
C4520 C4519 1.524 . S
C4521 C4518 1.403 . S
C4521 C4522 1.392 . S
C4521 C4525 1.495 . S
C4522 C4521 1.392 . S
C4522 C4523 1.385 . S
C4522 C4524 1.478 . S
C4523 H4517 0.930 . S
C4523 C4519 1.400 . S
C4523 C4522 1.385 . S
C4524 C4522 1.478 . S
C4524 C4526 1.381 . S
C4524 C4530 1.383 . S
C4525 C4521 1.495 . S
C4525 H4531 0.959 . S
C4525 H4532 0.961 . S
C4525 H4533 0.960 . S
C4526 C4524 1.381 . S
C4526 C4527 1.394 . S
C4526 H4534 0.930 . S
C4527 C4526 1.394 . S
C4527 C4528 1.383 . S
C4527 H4535 0.929 . S
C4528 C4527 1.383 . S
C4528 C4529 1.377 . S
C4529 H4513 0.930 . S
C4529 C4528 1.377 . S
C4529 C4530 1.379 . S
C4530 H4514 0.931 . S
C4530 C4524 1.383 . S
C4530 C4529 1.379 . S
H4531 C4525 0.959 . S
H4532 C4525 0.961 . S
H4533 C4525 0.960 . S
H4534 C4526 0.930 . S
H4535 C4527 0.929 . S
H4536 C4544 0.929 . S
H4537 C4546 0.930 . S
H4538 C4548 0.930 . S
H4539 C4551 0.929 . S
H4540 C4554 0.930 . S
H4541 C4556 0.960 . S
H4542 C4556 0.960 1_565 S
H4543 C4556 0.960 . S
C4544 H4536 0.929 . S
C4544 C4545 1.377 . S
C4544 C4546 1.384 . S
C4545 C4544 1.377 . S
C4545 C4551 1.390 . S
C4546 H4537 0.930 . S
C4546 C4544 1.384 . S
C4546 C4547 1.372 . S
C4547 C4546 1.372 . S
C4547 C4548 1.400 . S
C4547 C4552 1.490 . S
C4548 H4538 0.930 . S
C4548 C4547 1.400 . S
C4548 C4551 1.386 . S
H4549 C4565 0.930 . S
H4550 C4566 0.931 . S
C4551 H4539 0.929 . S
C4551 C4545 1.390 . S
C4551 C4548 1.386 . S
C4552 C4547 1.490 . S
C4552 C4554 1.395 . S
C4552 C4555 1.403 . S
H4553 C4559 0.930 . S
C4554 H4540 0.930 . S
C4554 C4552 1.395 . S
C4554 C4557 1.403 . S
C4555 C4552 1.403 . S
C4555 C4556 1.524 . S
C4555 C4559 1.400 . S
C4556 H4541 0.960 . S
C4556 H4542 0.960 1_545 S
C4556 H4543 0.960 . S
C4556 C4555 1.524 . S
C4557 C4554 1.403 . S
C4557 C4558 1.392 . S
C4557 C4561 1.495 . S
C4558 C4557 1.392 . S
C4558 C4559 1.385 . S
C4558 C4560 1.478 . S
C4559 H4553 0.930 . S
C4559 C4555 1.400 . S
C4559 C4558 1.385 . S
C4560 C4558 1.478 . S
C4560 C4562 1.378 1_545 S
C4560 C4566 1.383 . S
C4561 C4557 1.495 . S
C4561 H4567 0.959 . S
C4561 H4568 0.961 . S
C4561 H4569 0.960 . S
C4562 C4560 1.378 1_565 S
C4562 C4563 1.394 . S
C4562 H4570 0.934 . S
C4563 C4562 1.394 . S
C4563 C4564 1.383 1_565 S
C4563 H4571 0.929 . S
C4564 C4563 1.383 1_545 S
C4564 C4565 1.377 . S
C4565 H4549 0.930 . S
C4565 C4564 1.377 . S
C4565 C4566 1.379 . S
C4566 H4550 0.931 . S
C4566 C4560 1.383 . S
C4566 C4565 1.379 . S
H4567 C4561 0.959 . S
H4568 C4561 0.961 . S
H4569 C4561 0.960 . S
H4570 C4562 0.934 . S
H4571 C4563 0.929 . S
C1989 C4 1.039 1_655 S
C2008 C1377 1.077 . S
C2025 C38 1.720 . S
C2044 C1457 1.670 . S
C2080 C1525 1.218 . S
C2061 C74 1.247 . S
C2097 C76 1.662 . S
C2116 C1605 1.665 . S
C2133 C2 1.514 1_556 S
C2152 C1679 1.541 . S
C2169 C40 1.559 . S
C2188 C1747 1.515 . S
C2205 C110 1.026 . S
C2224 C1673 0.990 . S
C2260 C1753 1.418 . S
C2241 C148 1.412 . S
C2296 C1599 1.264 . S
C2277 C182 1.290 . S
C2313 C184 1.680 . S
C2332 C1531 1.752 1_545 S
C2368 C1383 1.419 . S
C2349 C112 1.413 . S
C2385 C146 1.469 . S
C2404 C1451 1.439 . S
C2421 C220 1.388 . S
C2440 C1821 1.268 . S
C2457 C254 1.772 . S
C2476 C1901 1.695 . S
C2512 C1969 1.489 . S
C2493 C290 1.575 . S
C2529 C292 1.834 . S
C2548 C717 1.795 . S
C2565 C218 1.802 . S
C2584 C791 1.737 . S
C2601 C256 1.577 . S
C2620 C859 1.531 . S
C2637 C326 1.149 . S
C2656 C785 1.100 . S
C2673 C364 1.494 . S
C2692 C865 1.500 . S
C2728 C711 1.453 . S
C2709 C398 1.474 . S
C2764 C1975 1.893 . S
C2745 C400 1.899 . S
C2800 C1827 1.455 . S
C2781 C328 1.460 . S
C2836 C1895 1.530 . S
C2817 C362 1.532 . S
C2853 C436 1.270 . S
C2872 C933 1.157 . S
C2889 C470 1.787 . S
C2908 C1013 1.752 . S
C2925 C506 1.608 . S
C2944 C1081 1.529 . S
C2961 C508 1.953 . S
C2980 C1161 1.887 . S
C3016 C1235 1.733 . S
C2997 C434 1.770 . S
C3052 C1303 1.530 . S
C3033 C472 1.618 . S
C3088 C1229 1.296 . S
C3069 C542 1.307 . S
C3124 C1309 1.456 . S
C3105 C580 1.466 . S
C3141 C614 1.403 . S
C3160 C1155 1.404 . S
C3196 C1087 1.767 . S
C3177 C616 1.752 . S
C3213 C544 1.515 . S
C3232 C939 1.504 . S
C3268 C1007 1.476 . S
C3249 C578 1.486 . S
C3304 C687 2.040 . S
C3285 C14 2.018 . S
C3321 C39 1.465 . S
C3340 C761 1.460 . S
C3376 C847 1.456 . S
C3357 C75 1.455 . S
C3412 C921 1.085 . S
C3393 C86 1.062 . S
C3448 C983 1.614 . S
C3429 C3 1.650 1_556 S
C3484 C1069 1.567 . S
C3465 C50 1.544 . S
C3501 C111 2.159 . S
C3520 C1057 2.077 . S
C3537 C158 1.580 . S
C3556 C909 1.516 . S
C3573 C183 1.796 . S
C3592 C995 1.769 . S
C3609 C194 1.461 . S
C3628 C773 1.438 . S
C3664 C835 1.695 . S
C3645 C122 1.745 . S
C3681 C147 1.660 . S
C3700 C699 1.610 . S
C3736 C1131 1.954 . S
C3717 C230 1.961 . S
C3753 C255 1.648 1_545 S
C3772 C1205 1.641 . S
C3789 C291 1.518 1_655 S
C3808 C1291 1.515 . S
C3844 C1365 0.880 . S
C3825 C302 0.870 . S
C3861 C219 1.556 . S
C3880 C1427 1.536 . S
C3897 C266 1.346 . S
C3916 C1513 1.401 . S
C3933 C327 1.755 . S
C3952 C1501 1.707 . S
C3969 C374 1.293 . S
C3988 C1353 1.298 . S
C4024 C1439 1.676 . S
C4005 C399 1.729 . S
C4041 C410 1.433 . S
C4060 C1217 1.360 . S
C4077 C338 1.793 1_545 S
C4096 C1279 1.725 . S
C4132 C1143 1.735 . S
C4113 C363 1.799 1_655 S
C4168 C1575 1.788 . S
C4149 C446 1.760 . S
C4185 C471 1.260 . S
C4204 C1649 1.232 . S
C4221 C507 1.386 . S
C4240 C1735 1.359 . S
C4276 C1809 1.047 . S
C4257 C518 1.065 . S
C4312 C1871 1.671 . S
C4293 C435 1.703 1_565 S
C4329 C482 1.668 1_455 S
C4348 C1957 1.694 . S
C4365 C543 2.079 . S
C4384 C1945 1.964 . S
C4401 C590 1.739 1_565 S
C4420 C1797 1.673 . S
C4456 C1883 1.808 . S
C4437 C615 1.843 1_455 S
C4492 C1661 0.984 . S
C4473 C626 1.011 . S
C4528 C1723 1.651 . S
C4509 C554 1.688 . S
C4545 C579 1.399 . S
C4564 C1587 1.368 . S
