# Generated by pormake.
# Topology pyr, (3,6)-cn, num edge types: 1
# Building blocks:
#     Node 0, Type 0, BuildingBlock: PAMTOO_clean_linker_0, # of connection points: 3
#     Node 1, Type 0, BuildingBlock: PAMTOO_clean_linker_0, # of connection points: 3
#     Node 2, Type 0, BuildingBlock: PAMTOO_clean_linker_0, # of connection points: 3
#     Node 3, Type 0, BuildingBlock: PAMTOO_clean_linker_0, # of connection points: 3
#     Node 4, Type 0, BuildingBlock: PAMTOO_clean_linker_0, # of connection points: 3
#     Node 5, Type 0, BuildingBlock: PAMTOO_clean_linker_0, # of connection points: 3
#     Node 6, Type 0, BuildingBlock: PAMTOO_clean_linker_0, # of connection points: 3
#     Node 7, Type 0, BuildingBlock: PAMTOO_clean_linker_0, # of connection points: 3
#     Node 8, Type 1, BuildingBlock: JUFBIX_clean_sbu_0, # of connection points: 6
#     Node 9, Type 1, BuildingBlock: JUFBIX_clean_sbu_0, # of connection points: 6
#     Node 10, Type 1, BuildingBlock: JUFBIX_clean_sbu_0, # of connection points: 6
#     Node 11, Type 1, BuildingBlock: JUFBIX_clean_sbu_0, # of connection points: 6
#     Edge 12, Type (0, 1), BuildingBlock: ZUJKAS_clean_linker_0, # of connection points: 2
#     Edge 13, Type (0, 1), BuildingBlock: ZUJKAS_clean_linker_0, # of connection points: 2
#     Edge 14, Type (0, 1), BuildingBlock: ZUJKAS_clean_linker_0, # of connection points: 2
#     Edge 15, Type (0, 1), BuildingBlock: ZUJKAS_clean_linker_0, # of connection points: 2
#     Edge 16, Type (0, 1), BuildingBlock: ZUJKAS_clean_linker_0, # of connection points: 2
#     Edge 17, Type (0, 1), BuildingBlock: ZUJKAS_clean_linker_0, # of connection points: 2
#     Edge 18, Type (0, 1), BuildingBlock: ZUJKAS_clean_linker_0, # of connection points: 2
#     Edge 19, Type (0, 1), BuildingBlock: ZUJKAS_clean_linker_0, # of connection points: 2
#     Edge 20, Type (0, 1), BuildingBlock: ZUJKAS_clean_linker_0, # of connection points: 2
#     Edge 21, Type (0, 1), BuildingBlock: ZUJKAS_clean_linker_0, # of connection points: 2
#     Edge 22, Type (0, 1), BuildingBlock: ZUJKAS_clean_linker_0, # of connection points: 2
#     Edge 23, Type (0, 1), BuildingBlock: ZUJKAS_clean_linker_0, # of connection points: 2
#     Edge 24, Type (0, 1), BuildingBlock: ZUJKAS_clean_linker_0, # of connection points: 2
#     Edge 25, Type (0, 1), BuildingBlock: ZUJKAS_clean_linker_0, # of connection points: 2
#     Edge 26, Type (0, 1), BuildingBlock: ZUJKAS_clean_linker_0, # of connection points: 2
#     Edge 27, Type (0, 1), BuildingBlock: ZUJKAS_clean_linker_0, # of connection points: 2
#     Edge 28, Type (0, 1), BuildingBlock: ZUJKAS_clean_linker_0, # of connection points: 2
#     Edge 29, Type (0, 1), BuildingBlock: ZUJKAS_clean_linker_0, # of connection points: 2
#     Edge 30, Type (0, 1), BuildingBlock: ZUJKAS_clean_linker_0, # of connection points: 2
#     Edge 31, Type (0, 1), BuildingBlock: ZUJKAS_clean_linker_0, # of connection points: 2
#     Edge 32, Type (0, 1), BuildingBlock: ZUJKAS_clean_linker_0, # of connection points: 2
#     Edge 33, Type (0, 1), BuildingBlock: ZUJKAS_clean_linker_0, # of connection points: 2
#     Edge 34, Type (0, 1), BuildingBlock: ZUJKAS_clean_linker_0, # of connection points: 2
#     Edge 35, Type (0, 1), BuildingBlock: ZUJKAS_clean_linker_0, # of connection points: 2
# Relax obj value: 0.106
# Max RMSD: 0.200
# Mean RMSD: 0.137
data_MOF--net-pry--node1-JUFBIX_clean_sbu_0--node2-PAMTOO_clean_linker_0--edge1-ZUJKAS_clean_linker_0
_symmetry_space_group_name_H-M    P1
_symmetry_Int_Tables_number       1
_symmetry_cell_setting            triclinic
loop_
_symmetry_equiv_pos_as_xyz
'x, y, z'
_cell_length_a     47.261344
_cell_length_b     46.533121
_cell_length_c     48.106117
_cell_angle_alpha  85.501231
_cell_angle_beta   90.285831
_cell_angle_gamma 95.206084
loop_
_atom_site_label
_atom_site_type_symbol
_atom_site_fract_x
_atom_site_fract_y
_atom_site_fract_z
_atom_type_partial_charge
H0 H 0.16698 0.19263 0.21934 0.0
H1 H 0.23094 0.13203 0.22535 0.0
H2 H 0.23302 0.19724 0.15706 0.0
H3 H 0.24276 0.13542 0.14458 0.0
C4 C 0.25772 0.1309 0.16199 0.0
O5 O 0.25844 0.15326 0.17962 0.0
H6 H 0.24929 0.11038 0.1737 0.0
C7 C 0.18574 0.18456 0.21112 0.0
C8 C 0.19827 0.19829 0.18627 0.0
C9 C 0.19717 0.16067 0.22572 0.0
C10 C 0.22173 0.15033 0.21473 0.0
C11 C 0.23437 0.16315 0.18971 0.0
C12 C 0.22261 0.18706 0.17577 0.0
H13 H 0.41575 0.94366 0.65375 0.0
H14 H 0.41072 0.87978 0.59344 0.0
H15 H 0.48658 0.89389 0.64149 0.0
H16 H 0.49466 0.88244 0.58017 0.0
C17 C 0.47525 0.86722 0.57858 0.0
O18 O 0.46124 0.86341 0.6038 0.0
H19 H 0.46126 0.87647 0.56217 0.0
C20 C 0.42572 0.92797 0.64249 0.0
C21 C 0.45326 0.92108 0.6498 0.0
C22 C 0.41009 0.91316 0.62226 0.0
C23 C 0.42249 0.89165 0.60893 0.0
C24 C 0.45013 0.88516 0.61562 0.0
C25 C 0.46547 0.89975 0.63598 0.0
H26 H 0.73544 0.32426 0.91923 0.0
H27 H 0.66977 0.34446 0.86041 0.0
H28 H 0.74484 0.40242 0.86432 0.0
H29 H 0.69435 0.43167 0.86092 0.0
C30 C 0.68041 0.41664 0.8488 0.0
O31 O 0.69523 0.39414 0.84158 0.0
H32 H 0.66185 0.40812 0.86212 0.0
C33 C 0.72768 0.33827 0.90241 0.0
C34 C 0.74384 0.36419 0.89334 0.0
C35 C 0.70105 0.33065 0.8905 0.0
C36 C 0.69022 0.34976 0.86992 0.0
C37 C 0.70594 0.37569 0.86104 0.0
C38 C 0.7328 0.38258 0.87221 0.0
H39 H 0.95459 0.66681 0.49209 0.0
H40 H 0.95086 0.61987 0.41813 0.0
H41 H 0.01576 0.68877 0.42592 0.0
H42 H 0.99531 0.6894 0.36939 0.0
C43 C 0.98263 0.668 0.37131 0.0
O44 O 0.99311 0.65125 0.39332 0.0
H45 H 0.96003 0.6717 0.375 0.0
C46 C 0.96345 0.66252 0.47226 0.0
C47 C 0.98746 0.67991 0.46148 0.0
C48 C 0.94988 0.64079 0.45679 0.0
C49 C 0.96105 0.6362 0.43064 0.0
C50 C 0.9847 0.65352 0.41975 0.0
C51 C 0.99813 0.67489 0.43527 0.0
H52 H 0.84522 0.90103 0.84052 0.0
H53 H 0.84451 0.8363 0.91002 0.0
H54 H 0.90891 0.83996 0.84721 0.0
H55 H 0.8838 0.78147 0.86725 0.0
C56 C 0.88275 0.78443 0.88995 0.0
O57 O 0.89018 0.81328 0.89435 0.0
H58 H 0.86034 0.77851 0.89663 0.0
C59 C 0.85399 0.88253 0.85126 0.0
C60 C 0.87867 0.87222 0.84035 0.0
C61 C 0.84133 0.87005 0.87659 0.0
C62 C 0.85375 0.84648 0.89074 0.0
C63 C 0.878 0.83557 0.8801 0.0
C64 C 0.89028 0.84858 0.85513 0.0
H65 H 0.7024 0.14308 0.35534 0.0
H66 H 0.62769 0.18764 0.36573 0.0
H67 H 0.69829 0.20026 0.42112 0.0
H68 H 0.63894 0.19121 0.44582 0.0
C69 C 0.62883 0.20586 0.43008 0.0
O70 O 0.64741 0.21445 0.40841 0.0
H71 H 0.6094 0.19396 0.42204 0.0
C72 C 0.69117 0.15822 0.36614 0.0
C73 C 0.70395 0.17114 0.38905 0.0
C74 C 0.66364 0.16386 0.3576 0.0
C75 C 0.6488 0.18266 0.37223 0.0
C76 C 0.66135 0.19557 0.39511 0.0
C77 C 0.68877 0.18981 0.40355 0.0
H78 H 0.35382 0.69579 0.13954 0.0
H79 H 0.34972 0.62201 0.19985 0.0
H80 H 0.42135 0.68521 0.19907 0.0
H81 H 0.43469 0.62702 0.20596 0.0
C82 C 0.41712 0.61719 0.21992 0.0
O83 O 0.39786 0.63716 0.22356 0.0
H84 H 0.40613 0.5983 0.21023 0.0
C85 C 0.3632 0.68346 0.15669 0.0
C86 C 0.38953 0.69378 0.16763 0.0
C87 C 0.34851 0.65767 0.16821 0.0
C88 C 0.36043 0.64216 0.19088 0.0
C89 C 0.38655 0.65224 0.20185 0.0
C90 C 0.40094 0.67801 0.19045 0.0
H91 H 0.06278 0.35296 0.66563 0.0
H92 H 0.12945 0.42274 0.66171 0.0
H93 H 0.11926 0.36761 0.59476 0.0
H94 H 0.17537 0.3755 0.6183 0.0
C95 C 0.1763 0.39867 0.62286 0.0
O96 O 0.15091 0.40952 0.61523 0.0
H97 H 0.17973 0.39987 0.64566 0.0
C98 C 0.07999 0.36571 0.65435 0.0
C99 C 0.08878 0.35747 0.62844 0.0
C100 C 0.09425 0.3895 0.66647 0.0
C101 C 0.11726 0.40524 0.65221 0.0
C102 C 0.12632 0.39703 0.62664 0.0
C103 C 0.11175 0.37372 0.61451 0.0
Co104 Co 0.01838 0.02145 0.52546 0.0
C105 C 0.04492 0.97054 0.52242 0.0
Co106 Co 0.06026 0.02158 0.54575 0.0
C107 C 0.96926 0.04077 0.49624 0.0
C108 C 0.96409 0.99563 0.50956 0.0
N109 N 0.98284 0.01928 0.50927 0.0
N110 N 0.94265 0.03153 0.48856 0.0
C111 C 0.93944 1.00305 0.4968 0.0
H112 H 0.97842 0.06296 0.49336 0.0
H113 H 0.96787 0.97444 0.51897 0.0
C114 C 0.03342 0.07235 0.54919 0.0
N115 N 0.09598 0.02384 0.56201 0.0
C116 C 0.11138 1.00211 0.57164 0.0
C117 C 0.11327 0.04822 0.56456 0.0
N118 N 0.13755 0.01199 0.57996 0.0
C119 C 0.13872 0.04102 0.57568 0.0
C120 C 0.06244 0.04267 0.48872 0.0
O121 O 0.01383 0.05954 0.53539 0.0
O122 O 0.05526 0.0594 0.55578 0.0
O123 O 0.07722 0.03752 0.51051 0.0
O124 O 0.03553 0.03722 0.49041 0.0
O125 O 0.0647 0.98361 0.53577 0.0
H126 H 0.10825 0.06985 0.5577 0.0
H127 H 0.10386 0.97943 0.57192 0.0
O128 O 0.0231 0.98347 0.51564 0.0
O129 O 1.00147 0.00567 0.56064 0.0
O130 O 0.04314 1.00557 0.58074 0.0
C131 C 0.01622 1.00018 0.58236 0.0
H132 H 0.92059 0.98855 0.49404 0.0
H133 H 0.15722 0.05589 0.57885 0.0
Co134 Co 0.53888 1.00191 1.00068 0.0
C135 C 0.53407 0.95634 0.04224 0.0
Co136 Co 0.5647 0.00931 0.038 0.0
C137 C 0.52313 0.9962 0.94316 0.0
C138 C 0.48843 0.98428 0.97143 0.0
N139 N 0.51608 0.99438 0.97043 0.0
N140 N 0.50098 0.98737 0.92713 0.0
C141 C 0.47909 0.97995 0.94489 0.0
H142 H 0.54432 1.003 0.93537 0.0
H143 H 0.47597 0.97987 0.99034 0.0
C144 C 0.56934 0.055 0.99659 0.0
N145 N 0.58744 0.01679 0.06838 0.0
C146 C 0.57934 0.01915 0.09489 0.0
C147 C 0.61581 0.0235 0.06818 0.0
N148 N 0.60148 0.02732 0.11119 0.0
C149 C 0.6245 0.02991 0.09446 0.0
C150 C 0.59356 0.98315 0.99658 0.0
O151 O 0.55152 0.03886 0.98365 0.0
O152 O 0.57792 0.04599 0.02051 0.0
O153 O 0.59548 0.99193 0.021 0.0
O154 O 0.57027 0.9854 0.98346 0.0
O155 O 0.55137 0.97276 0.05545 0.0
H156 H 0.62919 0.02485 0.04986 0.0
H157 H 0.55751 0.01562 0.10195 0.0
O158 O 0.52629 0.96491 0.01791 0.0
O159 O 0.50769 0.01859 0.01799 0.0
O160 O 0.53362 0.02656 0.05475 0.0
C161 C 0.51003 0.02815 0.04207 0.0
H162 H 0.45784 0.97189 0.93914 0.0
H163 H 0.64585 0.03747 0.10037 0.0
Co164 Co 0.57987 0.53888 0.52686 0.0
C165 C 0.53762 0.53589 0.48624 0.0
Co166 Co 0.53796 0.51962 0.54235 0.0
C167 C 0.64061 0.5501 0.51811 0.0
C168 C 0.61672 0.58091 0.49511 0.0
N169 N 0.61385 0.55709 0.51308 0.0
N170 N 0.66002 0.56855 0.50378 0.0
C171 C 0.64502 0.58796 0.48932 0.0
H172 H 0.64568 0.53161 0.53169 0.0
H173 H 0.59929 0.59245 0.48678 0.0
C174 C 0.58019 0.52239 0.58295 0.0
N175 N 0.50401 0.50124 0.55601 0.0
C176 C 0.47715 0.50771 0.55055 0.0
C177 C 0.50125 0.47638 0.57258 0.0
N178 N 0.45782 0.48758 0.56279 0.0
C179 C 0.47291 0.46789 0.5767 0.0
C180 C 0.57365 0.48034 0.5236 0.0
O181 O 0.59591 0.53381 0.56295 0.0
O182 O 0.55418 0.51492 0.57832 0.0
O183 O 0.54957 0.48332 0.53403 0.0
O184 O 0.59108 0.50249 0.51832 0.0
O185 O 0.52197 0.52448 0.50627 0.0
H186 H 0.51876 0.46483 0.58067 0.0
H187 H 0.47189 0.52621 0.53709 0.0
O188 O 0.56357 0.54365 0.49084 0.0
O189 O 0.56838 0.57518 0.53543 0.0
O190 O 0.52659 0.55601 0.55046 0.0
C191 C 0.54409 0.57817 0.54546 0.0
H192 H 0.6539 0.60621 0.4758 0.0
H193 H 0.46404 0.44866 0.58888 0.0
Co194 Co 0.06079 0.49614 0.01611 0.0
C195 C 1.00731 0.4667 0.01649 0.0
Co196 Co 0.03787 0.497 0.05572 0.0
C197 C 0.07702 0.47572 0.96402 0.0
C198 C 0.09718 0.51781 0.97008 0.0
N199 N 0.07981 0.49607 0.98259 0.0
N200 N 0.09161 0.48402 0.94025 0.0
C201 C 0.10451 0.51044 0.9441 0.0
H202 H 0.06387 0.4555 0.96762 0.0
H203 H 0.10311 0.53824 0.97876 0.0
C204 C 0.09133 0.52664 0.05528 0.0
N205 N 0.01861 0.49707 0.08897 0.0
C206 C 0.018 0.51901 0.1056 0.0
C207 C 1.00247 0.4748 0.10214 0.0
N208 N 1.00218 0.51134 0.12876 0.0
C209 C 0.99232 0.48349 0.12656 0.0
C210 C 0.07143 0.44998 0.05487 0.0
O211 O 0.09216 0.51821 0.03086 0.0
O212 O 0.06916 0.51988 0.07003 0.0
O213 O 0.05473 0.46251 0.06967 0.0
O214 O 0.0769 0.46077 0.03005 0.0
O215 O 1.00676 0.47408 0.04129 0.0
H216 H 0.99852 0.45352 0.09456 0.0
H217 H 0.02957 0.53998 0.10103 0.0
O218 O 0.02916 0.47425 1.00157 0.0
O219 O 0.04459 0.53134 1.00249 0.0
O220 O 0.02109 0.5317 0.04152 0.0
C221 C 0.02722 0.54323 0.01712 0.0
H222 H 0.1171 0.52418 0.92871 0.0
H223 H 0.9787 0.47025 0.14146 0.0
H224 H 0.22296 0.14019 0.2742 0.0
H225 H 0.20052 0.11934 0.31799 0.0
H226 H 0.11791 0.13006 0.28255 0.0
H227 H 0.14006 0.15015 0.2386 0.0
H228 H 0.16542 0.14336 0.3542 0.0
H229 H 0.10747 0.04632 0.31414 0.0
H230 H 0.13522 0.06801 0.29444 0.0
H231 H 0.09998 0.07962 0.29535 0.0
C232 C 0.19999 0.13774 0.27549 0.0
C233 C 0.18349 0.14696 0.25252 0.0
C234 C 0.18714 0.12595 0.30075 0.0
C235 C 0.15736 0.12263 0.30377 0.0
C236 C 0.14085 0.13177 0.28087 0.0
H237 H 0.03737 0.05888 0.43865 0.0
H238 H 0.06048 0.07852 0.39482 0.0
C239 C 0.15366 0.14365 0.25569 0.0
C240 C 0.14363 0.11045 0.33096 0.0
H241 H 0.0958 0.05671 0.36004 0.0
C242 C 0.15034 0.12429 0.35545 0.0
C243 C 0.12374 0.08562 0.3329 0.0
C244 C 0.11632 0.06882 0.30789 0.0
C245 C 0.13741 0.11453 0.38136 0.0
C246 C 0.11754 0.08964 0.38334 0.0
C247 C 0.1109 0.07576 0.35884 0.0
C248 C 0.10344 0.07767 0.41047 0.0
C249 C 0.14457 0.13168 0.40621 0.0
C250 C 0.11958 0.07009 0.43419 0.0
C251 C 0.10634 0.05896 0.45943 0.0
C252 C 0.07649 0.0547 0.46173 0.0
C253 C 0.06035 0.06188 0.43787 0.0
C254 C 0.07362 0.07312 0.41265 0.0
H255 H 0.15284 0.15431 0.39972 0.0
H256 H 0.12572 0.13217 0.41979 0.0
H257 H 0.16135 0.12148 0.41865 0.0
H258 H 0.14255 0.07248 0.43317 0.0
H259 H 0.11961 0.0535 0.47714 0.0
H260 H 0.47912 0.89278 0.69312 0.0
H261 H 0.49485 0.91205 0.73695 0.0
H262 H 0.4753 0.99728 0.70527 0.0
H263 H 0.45907 0.97797 0.66136 0.0
H264 H 0.5339 0.95583 0.75386 0.0
H265 H 0.4222 0.97881 0.77214 0.0
H266 H 0.43191 0.95801 0.74417 0.0
H267 H 0.43864 0.99677 0.74114 0.0
C268 C 0.47885 0.91576 0.6952 0.0
C269 C 0.46759 0.93384 0.67398 0.0
C270 C 0.4878 0.92674 0.72027 0.0
C271 C 0.4857 0.95595 0.72451 0.0
C272 C 0.47651 0.97453 0.70258 0.0
H273 H 0.53372 0.01986 0.88806 0.0
H274 H 0.53264 0.01564 0.83753 0.0
C275 C 0.46731 0.96351 0.67756 0.0
C276 C 0.49033 0.96592 0.75277 0.0
H277 H 0.45484 0.98756 0.80794 0.0
C278 C 0.51678 0.96315 0.76564 0.0
C279 C 0.46776 0.97509 0.7681 0.0
C280 C 0.43845 0.97716 0.75586 0.0
C281 C 0.52102 0.96851 0.79376 0.0
C282 C 0.4983 0.97723 0.80913 0.0
C283 C 0.47221 0.98098 0.79597 0.0
C284 C 0.5 0.97977 0.83954 0.0
C285 C 0.54924 0.96342 0.80717 0.0
C286 C 0.48182 0.96125 0.85726 0.0
C287 C 0.48228 0.96371 0.88593 0.0
C288 C 0.50094 0.98478 0.89752 0.0
C289 C 0.51934 1.00322 0.87975 0.0
C290 C 0.51878 1.00082 0.85093 0.0
H291 H 0.56278 0.95189 0.79377 0.0
H292 H 0.56081 0.98455 0.81105 0.0
H293 H 0.54606 0.9506 0.82756 0.0
H294 H 0.46723 0.9448 0.84886 0.0
H295 H 0.4682 0.94886 0.89904 0.0
H296 H 0.7123 0.45489 0.81322 0.0
H297 H 0.69756 0.47896 0.76887 0.0
H298 H 0.61279 0.43713 0.78097 0.0
H299 H 0.62746 0.41313 0.82522 0.0
H300 H 0.67429 0.44972 0.72269 0.0
H301 H 0.60053 0.52363 0.76196 0.0
H302 H 0.62692 0.50737 0.7838 0.0
H303 H 0.59433 0.48664 0.77592 0.0
C304 C 0.69045 0.45128 0.80649 0.0
C305 C 0.67083 0.4327 0.8227 0.0
C306 C 0.68209 0.46491 0.78126 0.0
C307 C 0.65399 0.46019 0.77199 0.0
C308 C 0.6344 0.44155 0.78814 0.0
H309 H 0.55283 0.49478 0.62857 0.0
H310 H 0.57293 0.48238 0.67425 0.0
C311 C 0.64277 0.42782 0.81329 0.0
C312 C 0.64548 0.47326 0.7446 0.0
H313 H 0.59851 0.51697 0.71333 0.0
C314 C 0.658 0.46473 0.72056 0.0
C315 C 0.62421 0.49276 0.74206 0.0
C316 C 0.61085 0.50339 0.7673 0.0
C317 C 0.64889 0.47422 0.69388 0.0
C318 C 0.62714 0.49324 0.69132 0.0
C319 C 0.6152 0.5024 0.7154 0.0
C320 C 0.61511 0.50228 0.66391 0.0
C321 C 0.6617 0.46276 0.66876 0.0
C322 C 0.63209 0.51807 0.64311 0.0
C323 C 0.62069 0.52507 0.61683 0.0
C324 C 0.59207 0.51662 0.61108 0.0
C325 C 0.57496 0.50159 0.63228 0.0
C326 C 0.58639 0.4945 0.65843 0.0
H327 H 0.67345 0.44355 0.67455 0.0
H328 H 0.64501 0.45671 0.65341 0.0
H329 H 0.67687 0.47985 0.65844 0.0
H330 H 0.65418 0.52476 0.64714 0.0
H331 H 0.63436 0.53683 0.60097 0.0
H332 H 1.00342 0.69054 0.32033 0.0
H333 H 1.004 0.66634 0.27689 0.0
H334 H 0.96506 0.58772 0.31958 0.0
H335 H 0.96372 0.61213 0.36281 0.0
H336 H 0.03088 0.61945 0.26588 0.0
H337 H 0.91488 0.59627 0.25176 0.0
H338 H 0.9297 0.62089 0.27632 0.0
H339 H 0.92682 0.58243 0.28521 0.0
C340 C 0.99501 0.66809 0.32036 0.0
C341 C 0.98393 0.65298 0.3449 0.0
C342 C 0.99528 0.65434 0.29559 0.0
C343 C 0.98423 0.62536 0.29494 0.0
C344 C 0.97314 0.61026 0.31947 0.0
H345 H 0.98773 0.49233 0.18209 0.0
H346 H 0.9823 0.52183 0.22111 0.0
C347 C 0.97269 0.62406 0.34419 0.0
C348 C 0.98542 0.61056 0.26889 0.0
H349 H 0.94487 0.57116 0.22389 0.0
C350 C 1.01205 0.60918 0.25651 0.0
C351 C 0.96077 0.59728 0.25667 0.0
C352 C 0.9314 0.59952 0.26801 0.0
C353 C 0.0148 0.59404 0.23275 0.0
C354 C 0.99028 0.58008 0.22108 0.0
C355 C 0.9636 0.58185 0.23308 0.0
C356 C 0.99216 0.56263 0.19696 0.0
C357 C 0.04396 0.5923 0.22069 0.0
C358 C 0.99902 0.57597 0.17043 0.0
C359 C 1.00187 0.55919 0.14794 0.0
C360 C 0.99799 0.52877 0.15165 0.0
C361 C 0.99058 0.51562 0.17829 0.0
C362 C 0.98759 0.53243 0.2007 0.0
H363 H 0.06113 0.60078 0.23452 0.0
H364 H 0.04721 0.56955 0.21705 0.0
H365 H 0.04582 0.60519 0.20027 0.0
H366 H 1.00228 0.59933 0.16718 0.0
H367 H 1.00705 0.57011 0.12769 0.0
H368 H 0.3085 0.1231 0.18991 0.0
H369 H 0.35316 0.10909 0.17094 0.0
H370 H 0.31621 0.11094 0.0888 0.0
H371 H 0.27226 0.12557 0.1075 0.0
H372 H 0.36432 0.062 0.14655 0.0
H373 H 0.39061 0.15464 0.0694 0.0
H374 H 0.36359 0.15516 0.09564 0.0
H375 H 0.35558 0.13793 0.0639 0.0
C376 C 0.31026 0.12134 0.16769 0.0
C377 C 0.28694 0.12636 0.15018 0.0
C378 C 0.33577 0.11304 0.15682 0.0
C379 C 0.33868 0.10942 0.12814 0.0
C380 C 0.31529 0.11441 0.11075 0.0
H381 H 0.45808 0.03868 0.01905 0.0
H382 H 0.41793 0.05842 0.04069 0.0
C383 C 0.28995 0.12278 0.12155 0.0
C384 C 0.3653 0.09892 0.11656 0.0
H385 H 0.41452 0.1122 0.06374 0.0
C386 C 0.37542 0.07325 0.12865 0.0
C387 C 0.38017 0.11331 0.09309 0.0
C388 C 0.37211 0.14193 0.07994 0.0
C389 C 0.39903 0.06126 0.11755 0.0
C390 C 0.41342 0.07531 0.09371 0.0
C391 C 0.40357 0.10115 0.08184 0.0
C392 C 0.43838 0.06337 0.08057 0.0
C393 C 0.40781 0.03306 0.13096 0.0
C394 C 0.46375 0.05978 0.09541 0.0
C395 C 0.48694 0.0486 0.08297 0.0
C396 C 0.48549 0.0406 0.05527 0.0
C397 C 0.46014 0.04445 0.04039 0.0
C398 C 0.43705 0.05582 0.05278 0.0
H399 H 0.39086 0.02158 0.14467 0.0
H400 H 0.4132 0.01853 0.1149 0.0
H401 H 0.42697 0.03748 0.14391 0.0
H402 H 0.46575 0.06584 0.11665 0.0
H403 H 0.50601 0.04611 0.09516 0.0
H404 H 0.3892 0.9658 0.61326 0.0
H405 H 0.33952 0.9757 0.6063 0.0
H406 H 0.31416 0.88407 0.61121 0.0
H407 H 0.36384 0.87394 0.61838 0.0
H408 H 0.29963 0.95184 0.56199 0.0
H409 H 0.26673 0.92213 0.67244 0.0
H410 H 0.30335 0.93254 0.66279 0.0
H411 H 0.287 0.89781 0.65508 0.0
C412 C 0.37303 0.94778 0.61283 0.0
C413 C 0.38032 0.91912 0.61638 0.0
C414 C 0.34477 0.95345 0.60877 0.0
C415 C 0.32334 0.93058 0.60847 0.0
C416 C 0.3305 0.90194 0.61155 0.0
H417 H 0.14798 0.96018 0.56201 0.0
H418 H 0.19132 0.93555 0.5701 0.0
C419 C 0.35883 0.89623 0.61542 0.0
C420 C 0.29348 0.93699 0.60519 0.0
H421 H 0.23237 0.94026 0.64186 0.0
C422 C 0.28474 0.94898 0.57928 0.0
C423 C 0.27437 0.93329 0.62795 0.0
C424 C 0.28317 0.92086 0.65625 0.0
C425 C 0.25739 0.95805 0.57567 0.0
C426 C 0.23844 0.95491 0.59858 0.0
C427 C 0.24698 0.94235 0.62435 0.0
C428 C 0.21073 0.96716 0.59667 0.0
C429 C 0.2493 0.97205 0.54775 0.0
C430 C 0.20706 0.99243 0.60976 0.0
C431 C 0.18243 0.00648 0.60521 0.0
C432 C 0.16098 0.99538 0.58763 0.0
C433 C 0.16405 0.96913 0.5758 0.0
C434 C 0.18882 0.95516 0.58023 0.0
H435 H 0.26769 0.97614 0.53322 0.0
H436 H 0.23269 0.95768 0.53804 0.0
H437 H 0.24033 0.99291 0.55042 0.0
H438 H 0.22378 1.00191 0.62259 0.0
H439 H 0.18042 0.02645 0.61485 0.0
H440 H 0.76703 0.41845 0.9039 0.0
H441 H 0.81314 0.43192 0.92404 0.0
H442 H 0.82929 0.34196 0.935 0.0
H443 H 0.78426 0.32841 0.91248 0.0
H444 H 0.83234 0.42074 0.9735 0.0
H445 H 0.90205 0.37469 0.89956 0.0
H446 H 0.86471 0.3771 0.89312 0.0
H447 H 0.87645 0.34793 0.91586 0.0
C448 C 0.78062 0.4015 0.90985 0.0
C449 C 0.77188 0.37231 0.90619 0.0
C450 C 0.80691 0.40925 0.92172 0.0
C451 C 0.82495 0.38802 0.93064 0.0
C452 C 0.81612 0.35882 0.9276 0.0
H453 H 0.96397 0.43409 0.0444 0.0
H454 H 0.9204 0.41172 0.02449 0.0
C455 C 0.79004 0.35107 0.91516 0.0
C456 C 0.85248 0.39665 0.94395 0.0
H457 H 0.92396 0.39156 0.94053 0.0
C458 C 0.85239 0.41443 0.96621 0.0
C459 C 0.87867 0.38865 0.93426 0.0
C460 C 0.88057 0.3713 0.90921 0.0
C461 C 0.87769 0.42478 0.97881 0.0
C462 C 0.9038 0.41599 0.96976 0.0
C463 C 0.90391 0.39797 0.94768 0.0
C464 C 0.93137 0.42668 0.98179 0.0
C465 C 0.87612 0.44597 1.00087 0.0
C466 C 0.95277 0.44091 0.96428 0.0
C467 C 0.97801 0.45293 0.97553 0.0
C468 C 0.98209 0.45125 1.00454 0.0
C469 C 0.96115 0.43605 0.02199 0.0
C470 C 0.93618 0.42347 0.01066 0.0
H471 H 0.85609 0.45678 0.99938 0.0
H472 H 0.87667 0.43419 0.0218 0.0
H473 H 0.89427 0.46292 0.99915 0.0
H474 H 0.94963 0.4435 0.94193 0.0
H475 H 0.99382 0.46449 0.96158 0.0
H476 H 0.93475 0.6184 0.50985 0.0
H477 H 0.88811 0.59552 0.52561 0.0
H478 H 0.85657 0.60567 0.44147 0.0
H479 H 0.90257 0.6286 0.42571 0.0
H480 H 0.83744 0.62038 0.52195 0.0
H481 H 0.8291 0.52204 0.46422 0.0
H482 H 0.86256 0.54306 0.46916 0.0
H483 H 0.83896 0.55368 0.44144 0.0
C484 C 0.9179 0.61552 0.49471 0.0
C485 C 0.92249 0.62506 0.46647 0.0
C486 C 0.89136 0.60232 0.50372 0.0
C487 C 0.86909 0.59829 0.4846 0.0
C488 C 0.8737 0.60767 0.45644 0.0
H489 H 0.69562 0.58604 0.4609 0.0
H490 H 0.74742 0.58832 0.46134 0.0
C491 C 0.90008 0.62082 0.44745 0.0
C492 C 0.84017 0.58678 0.49399 0.0
H493 H 0.78434 0.53989 0.47655 0.0
C494 C 0.82599 0.60226 0.51268 0.0
C495 C 0.82535 0.56302 0.482 0.0
C496 C 0.83991 0.54432 0.46333 0.0
C497 C 0.79676 0.59611 0.51783 0.0
C498 C 0.78155 0.57386 0.50405 0.0
C499 C 0.7961 0.55708 0.48693 0.0
C500 C 0.75017 0.57045 0.50404 0.0
C501 C 0.78191 0.61471 0.53638 0.0
C502 C 0.73462 0.55922 0.52784 0.0
C503 C 0.70489 0.5579 0.52764 0.0
C504 C 0.69042 0.56801 0.5037 0.0
C505 C 0.70617 0.57856 0.47977 0.0
C506 C 0.73573 0.57967 0.47992 0.0
H507 H 0.79654 0.63237 0.54411 0.0
H508 H 0.76424 0.62444 0.52486 0.0
H509 H 0.77257 0.6011 0.55462 0.0
H510 H 0.74548 0.55188 0.54659 0.0
H511 H 0.6933 0.5498 0.5464 0.0
H512 H 0.19565 0.21461 0.1296 0.0
H513 H 0.17624 0.25726 0.10648 0.0
H514 H 0.15208 0.28349 0.18628 0.0
H515 H 0.17289 0.24211 0.2096 0.0
H516 H 0.12448 0.27462 0.10288 0.0
H517 H 0.19094 0.35817 0.15507 0.0
H518 H 0.19813 0.32066 0.15804 0.0
H519 H 0.17161 0.33315 0.17984 0.0
C520 C 0.18672 0.22967 0.14239 0.0
C521 C 0.18614 0.22452 0.17171 0.0
C522 C 0.17531 0.25408 0.12901 0.0
C523 C 0.16301 0.27426 0.14446 0.0
C524 C 0.16203 0.26895 0.17367 0.0
H525 H 0.06895 0.42587 0.10888 0.0
H526 H 0.09122 0.38356 0.12904 0.0
C527 C 0.1736 0.24473 0.18706 0.0
C528 C 0.15062 0.30032 0.13013 0.0
H529 H 0.15037 0.37404 0.13052 0.0
C530 C 0.13042 0.29635 0.10881 0.0
C531 C 0.15821 0.32898 0.13753 0.0
C532 C 0.18112 0.33557 0.15866 0.0
C533 C 0.11717 0.31979 0.09548 0.0
C534 C 0.12428 0.34826 0.1034 0.0
C535 C 0.14467 0.3523 0.12446 0.0
C536 C 0.11046 0.37402 0.09054 0.0
C537 C 0.095 0.31378 0.07352 0.0
C538 C 0.11388 0.38323 0.06206 0.0
C539 C 0.10124 0.40771 0.0504 0.0
C540 C 0.08472 0.4236 0.06689 0.0
C541 C 0.08135 0.41425 0.09539 0.0
C542 C 0.09418 0.38999 0.10704 0.0
H543 H 0.08759 0.2904 0.07391 0.0
H544 H 0.07639 0.32621 0.07639 0.0
H545 H 0.1042 0.3207 0.05263 0.0
H546 H 0.12665 0.37169 0.04886 0.0
H547 H 0.10447 0.4142 0.02845 0.0
H548 H 0.72156 0.27789 0.90128 0.0
H549 H 0.69502 0.23201 0.91674 0.0
H550 H 0.61717 0.27385 0.91458 0.0
H551 H 0.64376 0.32019 0.90012 0.0
H552 H 0.62282 0.23927 0.96257 0.0
H553 H 0.64346 0.17954 0.87073 0.0
H554 H 0.67551 0.19513 0.88581 0.0
H555 H 0.6502 0.21837 0.87058 0.0
C556 C 0.69881 0.2774 0.90425 0.0
C557 C 0.68477 0.3027 0.89946 0.0
C558 C 0.68363 0.25107 0.9127 0.0
C559 C 0.65407 0.24944 0.91625 0.0
C560 C 0.63995 0.27463 0.91166 0.0
H561 H 0.55393 0.08216 0.94695 0.0
H562 H 0.5717 0.13039 0.92686 0.0
C563 C 0.65515 0.30103 0.90325 0.0
C564 C 0.63819 0.22163 0.92601 0.0
H565 H 0.62636 0.15083 0.91184 0.0
C566 C 0.62331 0.21999 0.95133 0.0
C567 C 0.63845 0.19665 0.91108 0.0
C568 C 0.65251 0.19752 0.88289 0.0
C569 C 0.60969 0.19371 0.96273 0.0
C570 C 0.61151 0.16836 0.94867 0.0
C571 C 0.62532 0.17024 0.92275 0.0
C572 C 0.60024 0.1395 0.96103 0.0
C573 C 0.59354 0.19334 0.98976 0.0
C574 C 0.61072 0.12854 0.98666 0.0
C575 C 0.6006 0.10112 0.9982 0.0
C576 C 0.57999 0.08399 0.98417 0.0
C577 C 0.56975 0.09487 0.9583 0.0
C578 C 0.57986 0.12239 0.9468 0.0
H579 H 0.58682 0.21507 0.99317 0.0
H580 H 0.57441 0.17758 0.99017 0.0
H581 H 0.6075 0.18695 1.00736 0.0
H582 H 0.62697 0.1411 0.99763 0.0
H583 H 0.60909 0.09332 0.01806 0.0
H584 H 0.95807 0.71895 0.48622 0.0
H585 H 0.97679 0.76571 0.50153 0.0
H586 H 0.06193 0.74691 0.48261 0.0
H587 H 0.04341 0.69969 0.46758 0.0
H588 H 0.02076 0.78417 0.54124 0.0
H589 H 0.04604 0.81978 0.4301 0.0
H590 H 0.02304 0.78756 0.44007 0.0
H591 H 0.06075 0.78756 0.44457 0.0
C592 C 0.98086 0.72429 0.48612 0.0
C593 C 0.99925 0.70569 0.47547 0.0
C594 C 0.9915 0.7511 0.49475 0.0
C595 C 0.02065 0.75983 0.49278 0.0
C596 C 0.0393 0.74063 0.4839 0.0
H597 H 0.08382 0.93329 0.54124 0.0
H598 H 0.08267 0.88144 0.53458 0.0
C599 C 0.02869 0.71375 0.47531 0.0
C600 C 0.03082 0.79002 0.49748 0.0
H601 H 0.05252 0.85489 0.46251 0.0
C602 C 0.0282 0.79961 0.52419 0.0
C603 C 0.0402 0.81002 0.47502 0.0
C604 C 0.04257 0.80093 0.44574 0.0
C605 C 0.03394 0.82896 0.52889 0.0
C606 C 0.0426 0.84903 0.50628 0.0
C607 C 0.04609 0.8393 0.47977 0.0
C608 C 0.04487 0.88054 0.50902 0.0
C609 C 0.02935 0.83859 0.55762 0.0
C610 C 0.02444 0.89714 0.49621 0.0
C611 C 0.02499 0.92659 0.49994 0.0
C612 C 0.04615 0.94003 0.51642 0.0
C613 C 0.06725 0.92354 0.52844 0.0
C614 C 0.06657 0.89394 0.52479 0.0
H615 H 0.01948 0.82076 0.57212 0.0
H616 H 0.05008 0.84655 0.56644 0.0
H617 H 0.01555 0.85674 0.55645 0.0
H618 H 1.00759 0.88712 0.48389 0.0
H619 H 1.00849 0.93868 0.49034 0.0
H620 H 0.52754 0.8459 0.58009 0.0
H621 H 0.53834 0.79653 0.57261 0.0
H622 H 0.44987 0.77334 0.55529 0.0
H623 H 0.43925 0.82294 0.56194 0.0
H624 H 0.51767 0.74765 0.60272 0.0
H625 H 0.48803 0.74029 0.49158 0.0
H626 H 0.49257 0.77432 0.50737 0.0
H627 H 0.46015 0.75112 0.51253 0.0
C628 C 0.5106 0.83039 0.57401 0.0
C629 C 0.48269 0.83818 0.57102 0.0
C630 C 0.51672 0.80223 0.56991 0.0
C631 C 0.49498 0.7814 0.56297 0.0
C632 C 0.46709 0.78924 0.55987 0.0
H633 H 0.49133 0.59428 0.55681 0.0
H634 H 0.47838 0.64344 0.56227 0.0
C635 C 0.46102 0.81746 0.56374 0.0
C636 C 0.5012 0.75106 0.56084 0.0
H637 H 0.49698 0.69624 0.51735 0.0
C638 C 0.51326 0.73647 0.58401 0.0
C639 C 0.49531 0.7365 0.53643 0.0
C640 C 0.48355 0.75142 0.51047 0.0
C641 C 0.51952 0.70766 0.58342 0.0
C642 C 0.51353 0.69318 0.55911 0.0
C643 C 0.50128 0.70754 0.53602 0.0
C644 C 0.52127 0.66352 0.55677 0.0
C645 C 0.53247 0.69274 0.60873 0.0
C646 C 0.54962 0.65886 0.55194 0.0
C647 C 0.55705 0.631 0.54865 0.0
C648 C 0.53622 0.60734 0.5503 0.0
C649 C 0.50784 0.61207 0.55557 0.0
C650 C 0.50039 0.64006 0.55861 0.0
H651 H 0.53234 0.70566 0.62719 0.0
H652 H 0.52078 0.67121 0.61398 0.0
H653 H 0.5548 0.68917 0.60404 0.0
H654 H 0.56592 0.67685 0.55037 0.0
H655 H 0.57909 0.62806 0.54464 0.0
H656 H 0.85352 0.89357 0.79181 0.0
H657 H 0.87662 0.91513 0.7486 0.0
H658 H 0.95871 0.90482 0.78547 0.0
H659 H 0.93587 0.88324 0.82854 0.0
H660 H 0.91248 0.96301 0.73633 0.0
H661 H 0.96828 0.86784 0.71393 0.0
H662 H 0.94108 0.86597 0.74035 0.0
H663 H 0.97684 0.88014 0.74762 0.0
C664 C 0.87651 0.89596 0.79084 0.0
C665 C 0.89267 0.88621 0.81385 0.0
C666 C 0.88976 0.90825 0.76595 0.0
C667 C 0.91957 0.91113 0.76322 0.0
C668 C 0.93573 0.9021 0.78642 0.0
H669 H 0.04104 0.98292 0.63227 0.0
H670 H 0.0176 0.96215 0.67562 0.0
C671 C 0.92254 0.88973 0.81122 0.0
C672 C 0.93373 0.92401 0.73646 0.0
H673 H 0.98174 0.91164 0.68642 0.0
C674 C 0.92747 0.95162 0.72538 0.0
C675 C 0.95344 0.90941 0.72187 0.0
C676 C 0.96013 0.8791 0.73136 0.0
C677 C 0.94066 0.96513 0.7008 0.0
C678 C 0.96049 0.9506 0.68635 0.0
C679 C 0.96672 0.92299 0.69738 0.0
C680 C 0.9748 0.96352 0.65972 0.0
C681 C 0.93372 0.99525 0.69093 0.0
C682 C 0.95881 0.971 0.63591 0.0
C683 C 0.9722 0.98286 0.611 0.0
C684 C 1.00206 0.98756 0.60906 0.0
C685 C 0.01806 0.97982 0.63286 0.0
C686 C 1.00463 0.96784 0.65775 0.0
H687 H 0.92455 0.00637 0.70792 0.0
H688 H 0.95293 0.00865 0.68266 0.0
H689 H 0.91782 0.99389 0.67393 0.0
H690 H 0.93585 0.96739 0.63644 0.0
H691 H 0.95906 0.9883 0.59319 0.0
H692 H 0.61006 0.13679 0.35345 0.0
H693 H 0.58997 0.11146 0.31389 0.0
H694 H 0.66804 0.1342 0.26808 0.0
H695 H 0.68808 0.15969 0.3072 0.0
H696 H 0.61398 0.1436 0.23826 0.0
H697 H 0.61954 0.03305 0.29071 0.0
H698 H 0.60319 0.05955 0.30905 0.0
H699 H 0.64063 0.06422 0.3022 0.0
C700 C 0.62276 0.13662 0.33479 0.0
C701 C 0.65067 0.15 0.33338 0.0
C702 C 0.61135 0.12203 0.31238 0.0
C703 C 0.62769 0.12083 0.28832 0.0
C704 C 0.65521 0.13485 0.28659 0.0
H705 H 0.64307 0.02507 0.14979 0.0
H706 H 0.64397 0.04588 0.19494 0.0
C707 C 0.66665 0.14924 0.30896 0.0
C708 C 0.61667 0.10459 0.26485 0.0
H709 H 0.60662 0.03624 0.2434 0.0
C710 C 0.61181 0.12012 0.2394 0.0
C711 C 0.61416 0.07401 0.26661 0.0
C712 C 0.61973 0.05654 0.29352 0.0
C713 C 0.60553 0.10584 0.21523 0.0
C714 C 0.60388 0.07526 0.21677 0.0
C715 C 0.60772 0.05968 0.24246 0.0
C716 C 0.60143 0.05944 0.19134 0.0
C717 C 0.6023 0.12359 0.18795 0.0
C718 C 0.57688 0.05946 0.17487 0.0
C719 C 0.57638 0.04774 0.14899 0.0
C720 C 0.60047 0.03586 0.13924 0.0
C721 C 0.62442 0.03451 0.15655 0.0
C722 C 0.62487 0.04616 0.1824 0.0
H723 H 0.60839 0.14701 0.18969 0.0
H724 H 0.61555 0.11596 0.1715 0.0
H725 H 0.57981 0.12099 0.18113 0.0
H726 H 0.55851 0.06941 0.18161 0.0
H727 H 0.55766 0.04927 0.13611 0.0
H728 H 0.42113 0.64484 0.26903 0.0
H729 H 0.44258 0.62829 0.31289 0.0
H730 H 0.46566 0.552 0.27618 0.0
H731 H 0.44297 0.56791 0.23236 0.0
H732 H 0.44409 0.53859 0.32736 0.0
H733 H 0.52567 0.63136 0.33047 0.0
H734 H 0.49052 0.64292 0.32801 0.0
H735 H 0.50448 0.625 0.2999 0.0
C736 C 0.43044 0.62437 0.27032 0.0
C737 C 0.4298 0.60726 0.24743 0.0
C738 C 0.44306 0.61512 0.29534 0.0
C739 C 0.45611 0.58913 0.29769 0.0
C740 C 0.45571 0.57214 0.27481 0.0
H741 H 0.56689 0.54877 0.43753 0.0
H742 H 0.54748 0.55882 0.39099 0.0
C743 C 0.44276 0.5812 0.24986 0.0
C744 C 0.46966 0.57947 0.32421 0.0
H745 H 0.51777 0.6015 0.373 0.0
C746 C 0.4604 0.55221 0.33724 0.0
C747 C 0.49131 0.59703 0.33681 0.0
C748 C 0.50379 0.62556 0.32291 0.0
C749 C 0.47162 0.54238 0.36295 0.0
C750 C 0.49204 0.56069 0.37633 0.0
C751 C 0.50185 0.5876 0.36291 0.0
C752 C 0.50351 0.55259 0.4043 0.0
C753 C 0.46173 0.51234 0.37527 0.0
C754 C 0.48524 0.5457 0.42727 0.0
C755 C 0.49627 0.53955 0.45385 0.0
C756 C 0.5258 0.54078 0.458 0.0
C757 C 0.54404 0.54769 0.43499 0.0
C758 C 0.53299 0.55344 0.40839 0.0
H759 H 0.45367 0.49816 0.35888 0.0
H760 H 0.47912 0.50206 0.38672 0.0
H761 H 0.44405 0.51369 0.39006 0.0
H762 H 0.46246 0.54572 0.42477 0.0
H763 H 0.48171 0.53458 0.47124 0.0
H764 H 0.08351 0.35143 0.71223 0.0
H765 H 0.07755 0.36283 0.76053 0.0
H766 H 0.08529 0.45396 0.73421 0.0
H767 H 0.09044 0.44272 0.68579 0.0
H768 H 0.11787 0.39439 0.79009 0.0
H769 H 0.01671 0.44607 0.78641 0.0
H770 H 0.02726 0.4244 0.75936 0.0
H771 H 0.04155 0.46152 0.76004 0.0
C772 C 0.08313 0.37386 0.71662 0.0
C773 C 0.08733 0.3962 0.69518 0.0
C774 C 0.07995 0.38033 0.74425 0.0
C775 C 0.0807 0.40921 0.7509 0.0
C776 C 0.08412 0.43151 0.72948 0.0
H777 H 0.13171 0.48908 0.89972 0.0
H778 H 0.1283 0.46785 0.85481 0.0
C779 C 0.08732 0.42507 0.70186 0.0
C780 C 0.08031 0.41619 0.78039 0.0
H781 H 0.04663 0.45435 0.8259 0.0
C782 C 0.1021 0.4072 0.79805 0.0
C783 C 0.05953 0.43259 0.79079 0.0
C784 C 0.03477 0.44147 0.77325 0.0
C785 C 0.10432 0.41517 0.82555 0.0
C786 C 0.08447 0.43296 0.83544 0.0
C787 C 0.06201 0.44096 0.81816 0.0
C788 C 0.08718 0.44443 0.86327 0.0
C789 C 0.12793 0.40455 0.84373 0.0
C790 C 0.06505 0.43858 0.88276 0.0
C791 C 0.06681 0.45093 0.90834 0.0
C792 C 0.09069 0.46955 0.9148 0.0
C793 C 0.11298 0.47501 0.89532 0.0
C794 C 0.1112 0.46265 0.86977 0.0
H795 H 0.13581 0.38476 0.83619 0.0
H796 H 0.14599 0.42158 0.84322 0.0
H797 H 0.12081 0.39977 0.8657 0.0
H798 H 0.04623 0.42476 0.87803 0.0
H799 H 0.04904 0.44661 0.9226 0.0
H800 H 0.79431 0.88934 0.84887 0.0
H801 H 0.75268 0.90856 0.8684 0.0
H802 H 0.78758 0.89645 0.95091 0.0
H803 H 0.82937 0.87763 0.93158 0.0
H804 H 0.71228 0.88227 0.90876 0.0
H805 H 0.76874 0.98126 0.94686 0.0
H806 H 0.78441 0.96013 0.92208 0.0
H807 H 0.78352 0.94819 0.95854 0.0
C808 C 0.79335 0.89099 0.87116 0.0
C809 C 0.81555 0.88187 0.8885 0.0
C810 C 0.76932 0.90188 0.88237 0.0
C811 C 0.76687 0.90443 0.91121 0.0
C812 C 0.78891 0.89523 0.92858 0.0
H813 H 0.64411 0.97019 0.02107 0.0
H814 H 0.68466 0.95069 1.00014 0.0
C815 C 0.81281 0.88412 0.91744 0.0
C816 C 0.74122 0.91625 0.92317 0.0
H817 H 0.72063 0.97067 0.96053 0.0
C818 C 0.71412 0.9017 0.91995 0.0
C819 C 0.74334 0.94155 0.93797 0.0
C820 C 0.7715 0.9589 0.94143 0.0
C821 C 0.68945 0.91118 0.9316 0.0
C822 C 0.69151 0.93661 0.94634 0.0
C823 C 0.71867 0.95123 0.94937 0.0
C824 C 0.66604 0.94821 0.9591 0.0
C825 C 0.66159 0.8931 0.92878 0.0
C826 C 0.64166 0.95384 0.94327 0.0
C827 C 0.61813 0.96477 0.95538 0.0
C828 C 0.61836 0.97091 0.98363 0.0
C829 C 0.64292 0.9657 0.99932 0.0
C830 C 0.66631 0.95455 0.98728 0.0
H831 H 0.6649 0.87038 0.92506 0.0
H832 H 0.64824 0.89295 0.94773 0.0
H833 H 0.64979 0.90223 0.91066 0.0
H834 H 0.64089 0.95016 0.92134 0.0
H835 H 0.59986 0.96877 0.94245 0.0
H836 H 0.72242 0.15811 0.44205 0.0
H837 H 0.76833 0.14136 0.45609 0.0
H838 H 0.79623 0.15153 0.37035 0.0
H839 H 0.75037 0.16834 0.35616 0.0
H840 H 0.80157 0.09729 0.39533 0.0
H841 H 0.84877 0.1808 0.46207 0.0
H842 H 0.81297 0.1678 0.47175 0.0
H843 H 0.81989 0.18713 0.43827 0.0
C844 C 0.73859 0.15747 0.4263 0.0
C845 C 0.73278 0.16434 0.398 0.0
C846 C 0.76484 0.14798 0.43435 0.0
C847 C 0.78575 0.1455 0.41428 0.0
C848 C 0.78037 0.15339 0.38615 0.0
H849 H 0.95144 0.08296 0.45748 0.0
H850 H 0.91505 0.11253 0.43729 0.0
C851 C 0.75415 0.16281 0.37808 0.0
C852 C 0.81184 0.13165 0.42225 0.0
H853 H 0.86833 0.13473 0.46672 0.0
C854 C 0.8164 0.10571 0.41063 0.0
C855 C 0.83127 0.14281 0.44201 0.0
C856 C 0.82819 0.17133 0.45406 0.0
C857 C 0.83919 0.08993 0.4192 0.0
C858 C 0.85762 0.10022 0.44014 0.0
C859 C 0.85392 0.12682 0.45084 0.0
C860 C 0.87973 0.08269 0.45235 0.0
C861 C 0.8431 0.06211 0.40614 0.0
C862 C 0.87177 0.05641 0.46773 0.0
C863 C 0.89238 0.03962 0.47946 0.0
C864 C 0.92143 0.0488 0.47606 0.0
C865 C 0.92931 0.07534 0.46073 0.0
C866 C 0.90859 0.09221 0.44908 0.0
H867 H 0.83203 0.06112 0.38576 0.0
H868 H 0.86599 0.05962 0.40298 0.0
H869 H 0.8341 0.04354 0.42023 0.0
H870 H 0.84953 0.049 0.47087 0.0
H871 H 0.88545 0.0197 0.4916 0.0
H872 H 0.30022 0.63592 0.19642 0.0
H873 H 0.25542 0.61588 0.17675 0.0
H874 H 0.28969 0.63502 0.09378 0.0
H875 H 0.33469 0.65468 0.11325 0.0
H876 H 0.21855 0.64419 0.135 0.0
H877 H 0.26317 0.54616 0.10059 0.0
H878 H 0.28034 0.56795 0.12638 0.0
H879 H 0.28263 0.58027 0.09008 0.0
C880 C 0.29823 0.63574 0.17399 0.0
C881 C 0.32099 0.64669 0.15636 0.0
C882 C 0.27262 0.62449 0.16282 0.0
C883 C 0.26947 0.62378 0.13389 0.0
C884 C 0.2919 0.63518 0.1162 0.0
H885 H 0.13967 0.54863 0.02752 0.0
H886 H 0.18186 0.57424 0.04663 0.0
C887 C 0.31746 0.64656 0.12733 0.0
C888 C 0.24288 0.61058 0.12221 0.0
H889 H 0.21589 0.55302 0.08765 0.0
C890 C 0.21785 0.62424 0.12467 0.0
C891 C 0.24222 0.58459 0.1088 0.0
C892 C 0.26843 0.56867 0.10641 0.0
C893 C 0.19211 0.61279 0.11353 0.0
C894 C 0.19142 0.5867 0.10018 0.0
C895 C 0.2165 0.57306 0.09783 0.0
C896 C 0.16497 0.57298 0.08848 0.0
C897 C 0.16609 0.62905 0.1156 0.0
C898 C 0.14146 0.56383 0.10569 0.0
C899 C 0.11721 0.54932 0.0948 0.0
C900 C 0.11624 0.54339 0.06658 0.0
C901 C 0.13976 0.55281 0.04936 0.0
C902 C 0.16388 0.56745 0.06023 0.0
H903 H 0.17182 0.65215 0.11923 0.0
H904 H 0.15307 0.62801 0.09637 0.0
H905 H 0.15285 0.61914 0.13344 0.0
H906 H 0.1421 0.5673 0.12769 0.0
H907 H 0.0995 0.54219 0.10862 0.0
H908 H 0.22004 0.37778 0.59627 0.0
H909 H 0.26368 0.40456 0.57797 0.0
H910 H 0.23224 0.48471 0.59792 0.0
H911 H 0.18863 0.45769 0.61708 0.0
H912 H 0.27583 0.44884 0.53672 0.0
H913 H 0.30586 0.48398 0.64189 0.0
H914 H 0.27675 0.45706 0.63691 0.0
H915 H 0.27274 0.49468 0.62796 0.0
C916 C 0.22223 0.40116 0.59631 0.0
C917 C 0.20093 0.41574 0.60783 0.0
C918 C 0.24714 0.41644 0.58584 0.0
C919 C 0.25134 0.44658 0.58686 0.0
C920 C 0.22959 0.46141 0.5973 0.0
H921 H 0.42503 0.53242 0.56205 0.0
H922 H 0.37271 0.5291 0.56292 0.0
C923 C 0.20465 0.44604 0.60798 0.0
C924 C 0.2794 0.46165 0.57877 0.0
H925 H 0.34007 0.49306 0.60663 0.0
C926 C 0.28971 0.45903 0.55184 0.0
C927 C 0.29745 0.47504 0.59851 0.0
C928 C 0.28785 0.47777 0.628 0.0
C929 C 0.31806 0.4679 0.54465 0.0
C930 C 0.3365 0.47954 0.56493 0.0
C931 C 0.32573 0.48415 0.59116 0.0
C932 C 0.36765 0.48261 0.56106 0.0
C933 C 0.32844 0.46362 0.51581 0.0
C934 C 0.38191 0.45761 0.55976 0.0
C935 C 0.41149 0.45943 0.55966 0.0
C936 C 0.4274 0.4863 0.56071 0.0
C937 C 0.41316 0.5115 0.56105 0.0
C938 C 0.38341 0.50963 0.56157 0.0
H939 H 0.31069 0.46272 0.50057 0.0
H940 H 0.34472 0.48127 0.5085 0.0
H941 H 0.33826 0.44281 0.51629 0.0
H942 H 0.37012 0.43652 0.55981 0.0
H943 H 0.42198 0.43975 0.5591 0.0
H944 H 0.87834 0.7612 0.94454 0.0
H945 H 0.90485 0.72314 0.9679 0.0
H946 H 0.95579 0.72221 0.89394 0.0
H947 H 0.92967 0.76054 0.87087 0.0
H948 H 0.9076 0.66847 0.95402 0.0
H949 H 0.01703 0.722 0.95201 0.0
H950 H 0.98641 0.74181 0.94461 0.0
H951 H 1.00114 0.72232 0.91807 0.0
C952 C 0.89562 0.75329 0.93351 0.0
C953 C 0.90187 0.76398 0.90583 0.0
C954 C 0.91069 0.73135 0.94682 0.0
C955 C 0.93268 0.71967 0.93294 0.0
C956 C 0.93947 0.73102 0.90553 0.0
H957 H 0.03554 0.57316 0.96567 0.0
H958 H 0.01268 0.61551 0.94633 0.0
C959 C 0.92441 0.75297 0.89224 0.0
C960 C 0.94718 0.69455 0.94643 0.0
H961 H 1.01233 0.67085 0.96289 0.0
C962 C 0.9305 0.66918 0.95616 0.0
C963 C 0.97714 0.69506 0.94926 0.0
C964 C 0.99647 0.72185 0.94069 0.0
C965 C 0.94277 0.64439 0.96785 0.0
C966 C 0.97272 0.64484 0.97052 0.0
C967 C 0.98942 0.67024 0.96092 0.0
C968 C 0.98708 0.61912 0.98283 0.0
C969 C 0.92345 0.61758 0.97643 0.0
C970 C 0.98091 0.60697 0.01011 0.0
C971 C 0.994 0.58262 0.02128 0.0
C972 C 0.01383 0.56974 1.00557 0.0
C973 C 0.02038 0.58229 0.97846 0.0
C974 C 1.00729 0.60665 0.96733 0.0
H975 H 0.90234 0.61799 0.9662 0.0
H976 H 0.93301 0.59774 0.9712 0.0
H977 H 0.92003 0.61627 0.99931 0.0
H978 H 0.96597 0.61639 0.02291 0.0
H979 H 0.98847 0.57383 0.04227 0.0
H980 H 0.41911 0.73679 0.19454 0.0
H981 H 0.44532 0.78092 0.17358 0.0
H982 H 0.42139 0.75618 0.09162 0.0
H983 H 0.39569 0.71169 0.11226 0.0
H984 H 0.4911 0.78488 0.1312 0.0
H985 H 0.39583 0.8398 0.09646 0.0
H986 H 0.39421 0.81011 0.12312 0.0
H987 H 0.39681 0.80325 0.08706 0.0
C988 C 0.41962 0.74059 0.17204 0.0
C989 C 0.4052 0.72076 0.15507 0.0
C990 C 0.43449 0.76585 0.16015 0.0
C991 C 0.43499 0.77182 0.13114 0.0
C992 C 0.42085 0.75207 0.11411 0.0
H993 H 0.50146 0.91417 0.01756 0.0
H994 H 0.47935 0.86864 0.03957 0.0
C995 C 0.40608 0.72675 0.12595 0.0
C996 C 0.45041 0.7987 0.1186 0.0
H997 H 0.44053 0.86255 0.08165 0.0
C998 C 0.48014 0.80198 0.12045 0.0
C999 C 0.43591 0.82078 0.1046 0.0
C1000 C 0.40391 0.81857 0.10278 0.0
C1001 C 0.49589 0.82664 0.10802 0.0
C1002 C 0.48138 0.84878 0.09397 0.0
C1003 C 0.4516 0.84551 0.09237 0.0
C1004 C 0.49652 0.87549 0.08056 0.0
C1005 C 0.5279 0.8284 0.10938 0.0
C1006 C 0.51361 0.89441 0.0963 0.0
C1007 C 0.52648 0.9204 0.08373 0.0
C1008 C 0.52215 0.92806 0.05527 0.0
C1009 C 0.50521 0.90893 0.03953 0.0
C1010 C 0.49254 0.8829 0.05207 0.0
H1011 H 0.5357 0.80671 0.11396 0.0
H1012 H 0.53757 0.83828 0.08949 0.0
H1013 H 0.53535 0.84209 0.12631 0.0
H1014 H 0.51644 0.88942 0.11845 0.0
H1015 H 0.53923 0.9348 0.09645 0.0
H1016 H 0.03248 0.33628 0.62796 0.0
H1017 H 0.01261 0.2896 0.61247 0.0
H1018 H 0.09636 0.27076 0.58861 0.0
H1019 H 0.11641 0.3167 0.60443 0.0
H1020 H 0.05128 0.2588 0.54827 0.0
H1021 H 0.02681 0.21058 0.65621 0.0
H1022 H 0.0134 0.2447 0.64545 0.0
H1023 H 0.05093 0.24273 0.64949 0.0
C1024 C 0.04663 0.32217 0.61941 0.0
C1025 C 0.07603 0.33029 0.61737 0.0
C1026 C 0.03524 0.2956 0.61052 0.0
C1027 C 0.05308 0.27679 0.59952 0.0
C1028 C 0.08224 0.28511 0.59688 0.0
H1029 H 0.0691 0.10253 0.58321 0.0
H1030 H 0.06774 0.15247 0.5947 0.0
C1031 C 0.09363 0.31149 0.6058 0.0
C1032 C 0.04205 0.24776 0.59175 0.0
H1033 H 0.02161 0.17953 0.62006 0.0
C1034 C 0.04418 0.24153 0.5638 0.0
C1035 C 0.03304 0.22537 0.61221 0.0
C1036 C 0.03097 0.23092 0.64258 0.0
C1037 C 0.03877 0.21314 0.55594 0.0
C1038 C 0.0309 0.19056 0.57659 0.0
C1039 C 0.02748 0.19701 0.60432 0.0
C1040 C 0.03001 0.15985 0.57053 0.0
C1041 C 0.0432 0.20715 0.52597 0.0
C1042 C 1.00896 0.14738 0.55338 0.0
C1043 C 1.00964 0.11867 0.54674 0.0
C1044 C 0.03145 0.10216 0.55712 0.0
C1045 C 0.0521 0.11467 0.57475 0.0
C1046 C 0.05131 0.14318 0.58144 0.0
H1047 H 0.05222 0.22669 0.51312 0.0
H1048 H 0.05769 0.18978 0.52481 0.0
H1049 H 0.02255 0.19951 0.5168 0.0
H1050 H 0.99223 0.15991 0.54495 0.0
H1051 H 0.99341 0.10961 0.53315 0.0
H1052 H 0.6366 0.2205 0.48407 0.0
H1053 H 0.62565 0.26538 0.50358 0.0
H1054 H 0.59349 0.29612 0.42359 0.0
H1055 H 0.60341 0.25087 0.40443 0.0
H1056 H 0.64706 0.31945 0.48894 0.0
H1057 H 0.53056 0.3121 0.47411 0.0
H1058 H 0.55111 0.28177 0.4705 0.0
H1059 H 0.54896 0.30914 0.44212 0.0
C1060 C 0.62677 0.2367 0.47086 0.0
C1061 C 0.62068 0.23235 0.44283 0.0
C1062 C 0.62063 0.2623 0.48195 0.0
C1063 C 0.60837 0.2839 0.46515 0.0
C1064 C 0.60224 0.27946 0.43714 0.0
H1065 H 0.61566 0.46676 0.48935 0.0
H1066 H 0.62497 0.41852 0.47681 0.0
C1067 C 0.60807 0.25376 0.42616 0.0
C1068 C 0.60337 0.31171 0.47642 0.0
H1069 H 0.55297 0.35879 0.48273 0.0
C1070 C 0.62642 0.32794 0.48788 0.0
C1071 C 0.57635 0.32256 0.47535 0.0
C1072 C 0.55029 0.30532 0.46513 0.0
C1073 C 0.62336 0.35511 0.49766 0.0
C1074 C 0.5967 0.36664 0.49516 0.0
C1075 C 0.5735 0.35008 0.48434 0.0
C1076 C 0.5922 0.39579 0.50366 0.0
C1077 C 0.64862 0.37094 0.51087 0.0
C1078 C 0.57033 0.39909 0.52243 0.0
C1079 C 0.5646 0.42658 0.52915 0.0
C1080 C 0.58079 0.45133 0.51735 0.0
C1081 C 0.60302 0.44804 0.49893 0.0
C1082 C 0.60848 0.42048 0.49191 0.0
H1083 H 0.66408 0.35577 0.51906 0.0
H1084 H 0.65972 0.38641 0.49492 0.0
H1085 H 0.64198 0.38325 0.52821 0.0
H1086 H 0.55747 0.38035 0.5317 0.0
H1087 H 0.54739 0.42844 0.54351 0.0
loop_
_geom_bond_atom_site_label_1
_geom_bond_atom_site_label_2
_geom_bond_distance
_geom_bond_site_symmetry_2
_ccdc_geom_bond_type
H0 C7 0.929 . S
H1 C10 0.930 . S
H2 C12 0.929 . S
H3 C4 0.969 . S
C4 H3 0.969 . S
C4 O5 1.550 . S
C4 H6 0.973 . S
O5 C4 1.550 . S
O5 C11 1.412 . S
H6 C4 0.973 . S
C7 H0 0.929 . S
C7 C8 1.400 . S
C7 C9 1.364 . S
C8 C7 1.400 . S
C8 C12 1.377 . S
C9 C7 1.364 . S
C9 C10 1.374 . S
C10 H1 0.930 . S
C10 C9 1.374 . S
C10 C11 1.383 . S
C11 O5 1.412 . S
C11 C10 1.383 . S
C11 C12 1.394 . S
C12 H2 0.929 . S
C12 C8 1.377 . S
C12 C11 1.394 . S
H13 C20 0.929 . S
H14 C23 0.930 . S
H15 C25 0.929 . S
H16 C17 0.969 . S
C17 H16 0.969 . S
C17 O18 1.550 . S
C17 H19 0.973 . S
O18 C17 1.550 . S
O18 C24 1.412 . S
H19 C17 0.973 . S
C20 H13 0.929 . S
C20 C21 1.400 . S
C20 C22 1.364 . S
C21 C20 1.400 . S
C21 C25 1.377 . S
C22 C20 1.364 . S
C22 C23 1.374 . S
C23 H14 0.930 . S
C23 C22 1.374 . S
C23 C24 1.383 . S
C24 O18 1.412 . S
C24 C23 1.383 . S
C24 C25 1.394 . S
C25 H15 0.929 . S
C25 C21 1.377 . S
C25 C24 1.394 . S
H26 C33 0.929 . S
H27 C36 0.930 . S
H28 C38 0.929 . S
H29 C30 0.969 . S
C30 H29 0.969 . S
C30 O31 1.550 . S
C30 H32 0.973 . S
O31 C30 1.550 . S
O31 C37 1.412 . S
H32 C30 0.973 . S
C33 H26 0.929 . S
C33 C34 1.400 . S
C33 C35 1.364 . S
C34 C33 1.400 . S
C34 C38 1.377 . S
C35 C33 1.364 . S
C35 C36 1.374 . S
C36 H27 0.930 . S
C36 C35 1.374 . S
C36 C37 1.383 . S
C37 O31 1.412 . S
C37 C36 1.383 . S
C37 C38 1.394 . S
C38 H28 0.929 . S
C38 C34 1.377 . S
C38 C37 1.394 . S
H39 C46 0.929 . S
H40 C49 0.930 . S
H41 C51 0.929 . S
H42 C43 0.969 . S
C43 H42 0.969 . S
C43 O44 1.550 . S
C43 H45 0.973 . S
O44 C43 1.550 . S
O44 C50 1.412 . S
H45 C43 0.973 . S
C46 H39 0.929 . S
C46 C47 1.400 . S
C46 C48 1.364 . S
C47 C46 1.400 . S
C47 C51 1.377 . S
C48 C46 1.364 . S
C48 C49 1.374 . S
C49 H40 0.930 . S
C49 C48 1.374 . S
C49 C50 1.383 . S
C50 O44 1.412 . S
C50 C49 1.383 . S
C50 C51 1.394 . S
C51 H41 0.929 . S
C51 C47 1.377 . S
C51 C50 1.394 . S
H52 C59 0.929 . S
H53 C62 0.930 . S
H54 C64 0.929 . S
H55 C56 0.969 . S
C56 H55 0.969 . S
C56 O57 1.550 . S
C56 H58 0.973 . S
O57 C56 1.550 . S
O57 C63 1.412 . S
H58 C56 0.973 . S
C59 H52 0.929 . S
C59 C60 1.400 . S
C59 C61 1.364 . S
C60 C59 1.400 . S
C60 C64 1.377 . S
C61 C59 1.364 . S
C61 C62 1.374 . S
C62 H53 0.930 . S
C62 C61 1.374 . S
C62 C63 1.383 . S
C63 O57 1.412 . S
C63 C62 1.383 . S
C63 C64 1.394 . S
C64 H54 0.929 . S
C64 C60 1.377 . S
C64 C63 1.394 . S
H65 C72 0.929 . S
H66 C75 0.930 . S
H67 C77 0.929 . S
H68 C69 0.969 . S
C69 H68 0.969 . S
C69 O70 1.550 . S
C69 H71 0.973 . S
O70 C69 1.550 . S
O70 C76 1.412 . S
H71 C69 0.973 . S
C72 H65 0.929 . S
C72 C73 1.400 . S
C72 C74 1.364 . S
C73 C72 1.400 . S
C73 C77 1.377 . S
C74 C72 1.364 . S
C74 C75 1.374 . S
C75 H66 0.930 . S
C75 C74 1.374 . S
C75 C76 1.383 . S
C76 O70 1.412 . S
C76 C75 1.383 . S
C76 C77 1.394 . S
C77 H67 0.929 . S
C77 C73 1.377 . S
C77 C76 1.394 . S
H78 C85 0.929 . S
H79 C88 0.930 . S
H80 C90 0.929 . S
H81 C82 0.969 . S
C82 H81 0.969 . S
C82 O83 1.550 . S
C82 H84 0.973 . S
O83 C82 1.550 . S
O83 C89 1.412 . S
H84 C82 0.973 . S
C85 H78 0.929 . S
C85 C86 1.400 . S
C85 C87 1.364 . S
C86 C85 1.400 . S
C86 C90 1.377 . S
C87 C85 1.364 . S
C87 C88 1.374 . S
C88 H79 0.930 . S
C88 C87 1.374 . S
C88 C89 1.383 . S
C89 O83 1.412 . S
C89 C88 1.383 . S
C89 C90 1.394 . S
C90 H80 0.929 . S
C90 C86 1.377 . S
C90 C89 1.394 . S
H91 C98 0.929 . S
H92 C101 0.930 . S
H93 C103 0.929 . S
H94 C95 0.969 . S
C95 H94 0.969 . S
C95 O96 1.550 . S
C95 H97 0.973 . S
O96 C95 1.550 . S
O96 C102 1.412 . S
H97 C95 0.973 . S
C98 H91 0.929 . S
C98 C99 1.400 . S
C98 C100 1.364 . S
C99 C98 1.400 . S
C99 C103 1.377 . S
C100 C98 1.364 . S
C100 C101 1.374 . S
C101 H92 0.930 . S
C101 C100 1.374 . S
C101 C102 1.383 . S
C102 O96 1.412 . S
C102 C101 1.383 . S
C102 C103 1.394 . S
C103 H93 0.929 . S
C103 C99 1.377 . S
C103 C102 1.394 . S
Co104 N109 2.057 . S
Co104 O121 2.021 1_655 S
Co104 O124 2.062 1_655 S
Co104 O128 2.117 1_545 S
Co104 O129 2.020 . S
C105 O125 1.259 . S
C105 O128 1.258 1_455 S
Co106 N115 2.057 . S
Co106 O122 2.117 . S
Co106 O123 2.020 . S
Co106 O125 2.021 1_545 S
Co106 O130 2.062 1_545 S
C107 N109 1.316 . S
C107 N110 1.347 . S
C107 H112 0.931 . S
C108 N109 1.375 . S
C108 C111 1.350 . S
C108 H113 0.930 1_545 S
N109 Co104 2.057 . S
N109 C107 1.316 . S
N109 C108 1.375 . S
N110 C107 1.347 . S
N110 C111 1.373 . S
C111 C108 1.350 . S
C111 N110 1.373 . S
C111 H132 0.931 . S
H112 C107 0.931 . S
H113 C108 0.930 1_565 S
C114 O121 1.259 . S
C114 O122 1.258 . S
N115 Co106 2.057 . S
N115 C116 1.316 1_545 S
N115 C117 1.375 . S
C116 N115 1.316 1_565 S
C116 N118 1.347 . S
C116 H127 0.931 . S
C117 N115 1.375 . S
C117 C119 1.350 . S
C117 H126 0.930 . S
N118 C116 1.347 . S
N118 C119 1.373 1_565 S
C119 C117 1.350 . S
C119 N118 1.373 1_545 S
C119 H133 0.931 . S
C120 O123 1.256 . S
C120 O124 1.255 . S
O121 Co104 2.021 1_455 S
O121 C114 1.259 . S
O122 Co106 2.117 . S
O122 C114 1.258 . S
O123 Co106 2.020 . S
O123 C120 1.256 . S
O124 Co104 2.062 1_455 S
O124 C120 1.255 . S
O125 C105 1.259 . S
O125 Co106 2.021 1_565 S
H126 C117 0.930 . S
H127 C116 0.931 . S
O128 Co104 2.117 1_565 S
O128 C105 1.258 1_655 S
O129 Co104 2.020 . S
O129 C131 1.256 1_645 S
O130 Co106 2.062 1_565 S
O130 C131 1.255 . S
C131 O129 1.256 1_465 S
C131 O130 1.255 . S
H132 C111 0.931 . S
H133 C119 0.931 . S
Co134 N139 2.057 1_545 S
Co134 O151 2.021 . S
Co134 O154 2.062 1_545 S
Co134 O158 2.117 1_546 S
Co134 O159 2.025 . S
C135 O155 1.259 . S
C135 O158 1.258 . S
Co136 N145 2.057 . S
Co136 O152 2.117 . S
Co136 O153 2.020 . S
Co136 O155 2.021 1_545 S
Co136 O160 2.062 . S
C137 N139 1.316 . S
C137 N140 1.347 . S
C137 H142 0.931 1_565 S
C138 N139 1.375 . S
C138 C141 1.350 . S
C138 H143 0.930 . S
N139 Co134 2.057 1_565 S
N139 C137 1.316 . S
N139 C138 1.375 . S
N140 C137 1.347 . S
N140 C141 1.373 . S
C141 C138 1.350 . S
C141 N140 1.373 . S
C141 H162 0.931 . S
H142 C137 0.931 1_545 S
H143 C138 0.930 . S
C144 O151 1.259 . S
C144 O152 1.258 1_556 S
N145 Co136 2.057 . S
N145 C146 1.316 . S
N145 C147 1.375 . S
C146 N145 1.316 . S
C146 N148 1.347 . S
C146 H157 0.931 . S
C147 N145 1.375 . S
C147 C149 1.350 . S
C147 H156 0.930 . S
N148 C146 1.347 . S
N148 C149 1.373 . S
C149 C147 1.350 . S
C149 N148 1.373 . S
C149 H163 0.931 . S
C150 O153 1.256 1_566 S
C150 O154 1.255 . S
O151 Co134 2.021 . S
O151 C144 1.259 . S
O152 Co136 2.117 . S
O152 C144 1.258 1_554 S
O153 Co136 2.020 . S
O153 C150 1.256 1_544 S
O154 Co134 2.062 1_565 S
O154 C150 1.255 . S
O155 C135 1.259 . S
O155 Co136 2.021 1_565 S
H156 C147 0.930 . S
H157 C146 0.931 . S
O158 Co134 2.117 1_564 S
O158 C135 1.258 . S
O159 Co134 2.025 . S
O159 C161 1.244 1_556 S
O160 Co136 2.062 . S
O160 C161 1.255 . S
C161 O159 1.244 1_554 S
C161 O160 1.255 . S
H162 C141 0.931 . S
H163 C149 0.931 . S
Co164 N169 2.057 . S
Co164 O181 2.021 . S
Co164 O184 2.062 . S
Co164 O188 2.117 . S
Co164 O189 2.020 . S
C165 O185 1.259 . S
C165 O188 1.258 . S
Co166 N175 2.057 . S
Co166 O182 2.117 . S
Co166 O183 2.020 . S
Co166 O185 2.021 . S
Co166 O190 2.062 . S
C167 N169 1.316 . S
C167 N170 1.347 . S
C167 H172 0.931 . S
C168 N169 1.375 . S
C168 C171 1.350 . S
C168 H173 0.930 . S
N169 Co164 2.057 . S
N169 C167 1.316 . S
N169 C168 1.375 . S
N170 C167 1.347 . S
N170 C171 1.373 . S
C171 C168 1.350 . S
C171 N170 1.373 . S
C171 H192 0.931 . S
H172 C167 0.931 . S
H173 C168 0.930 . S
C174 O181 1.259 . S
C174 O182 1.258 . S
N175 Co166 2.057 . S
N175 C176 1.316 . S
N175 C177 1.375 . S
C176 N175 1.316 . S
C176 N178 1.347 . S
C176 H187 0.931 . S
C177 N175 1.375 . S
C177 C179 1.350 . S
C177 H186 0.930 . S
N178 C176 1.347 . S
N178 C179 1.373 . S
C179 C177 1.350 . S
C179 N178 1.373 . S
C179 H193 0.931 . S
C180 O183 1.256 . S
C180 O184 1.255 . S
O181 Co164 2.021 . S
O181 C174 1.259 . S
O182 Co166 2.117 . S
O182 C174 1.258 . S
O183 Co166 2.020 . S
O183 C180 1.256 . S
O184 Co164 2.062 . S
O184 C180 1.255 . S
O185 C165 1.259 . S
O185 Co166 2.021 . S
H186 C177 0.930 . S
H187 C176 0.931 . S
O188 Co164 2.117 . S
O188 C165 1.258 . S
O189 Co164 2.020 . S
O189 C191 1.256 . S
O190 Co166 2.062 . S
O190 C191 1.255 . S
C191 O189 1.256 . S
C191 O190 1.255 . S
H192 C171 0.931 . S
H193 C179 0.931 . S
Co194 N199 2.057 . S
Co194 O211 2.021 1_556 S
Co194 O214 2.062 1_556 S
Co194 O218 2.117 . S
Co194 O219 2.020 . S
C195 O215 1.259 . S
C195 O218 1.258 1_654 S
Co196 N205 2.057 . S
Co196 O212 2.117 . S
Co196 O213 2.020 . S
Co196 O215 2.021 1_455 S
Co196 O220 2.062 . S
C197 N199 1.316 . S
C197 N200 1.347 . S
C197 H202 0.931 . S
C198 N199 1.375 . S
C198 C201 1.350 . S
C198 H203 0.930 . S
N199 Co194 2.057 . S
N199 C197 1.316 . S
N199 C198 1.375 . S
N200 C197 1.347 . S
N200 C201 1.373 . S
C201 C198 1.350 . S
C201 N200 1.373 . S
C201 H222 0.931 . S
H202 C197 0.931 . S
H203 C198 0.930 . S
C204 O211 1.259 . S
C204 O212 1.258 . S
N205 Co196 2.057 . S
N205 C206 1.316 1_455 S
N205 C207 1.375 . S
C206 N205 1.316 1_655 S
C206 N208 1.347 1_655 S
C206 H217 0.931 . S
C207 N205 1.375 . S
C207 C209 1.350 . S
C207 H216 0.930 . S
N208 C206 1.347 1_455 S
N208 C209 1.373 . S
C209 C207 1.350 . S
C209 N208 1.373 . S
C209 H223 0.931 . S
C210 O213 1.256 . S
C210 O214 1.255 . S
O211 Co194 2.021 1_554 S
O211 C204 1.259 . S
O212 Co196 2.117 . S
O212 C204 1.258 . S
O213 Co196 2.020 . S
O213 C210 1.256 . S
O214 Co194 2.062 1_554 S
O214 C210 1.255 . S
O215 C195 1.259 . S
O215 Co196 2.021 1_655 S
H216 C207 0.930 . S
H217 C206 0.931 . S
O218 Co194 2.117 . S
O218 C195 1.258 1_456 S
O219 Co194 2.020 . S
O219 C221 1.256 1_556 S
O220 Co196 2.062 . S
O220 C221 1.255 . S
C221 O219 1.256 1_554 S
C221 O220 1.255 . S
H222 C201 0.931 . S
H223 C209 0.931 . S
H224 C232 0.929 . S
H225 C234 0.930 . S
H226 C236 0.930 . S
H227 C239 0.929 . S
H228 C242 0.930 . S
H229 C244 0.960 . S
H230 C244 0.960 . S
H231 C244 0.960 . S
C232 H224 0.929 . S
C232 C233 1.377 . S
C232 C234 1.384 . S
C233 C232 1.377 . S
C233 C239 1.390 . S
C234 H225 0.930 . S
C234 C232 1.384 . S
C234 C235 1.372 . S
C235 C234 1.372 . S
C235 C236 1.400 . S
C235 C240 1.490 . S
C236 H226 0.930 . S
C236 C235 1.400 . S
C236 C239 1.386 . S
H237 C253 0.930 . S
H238 C254 0.931 . S
C239 H227 0.929 . S
C239 C233 1.390 . S
C239 C236 1.386 . S
C240 C235 1.490 . S
C240 C242 1.395 . S
C240 C243 1.403 . S
H241 C247 0.930 . S
C242 H228 0.930 . S
C242 C240 1.395 . S
C242 C245 1.403 . S
C243 C240 1.403 . S
C243 C244 1.524 . S
C243 C247 1.400 . S
C244 H229 0.960 . S
C244 H230 0.960 . S
C244 H231 0.960 . S
C244 C243 1.524 . S
C245 C242 1.403 . S
C245 C246 1.392 . S
C245 C249 1.495 . S
C246 C245 1.392 . S
C246 C247 1.385 . S
C246 C248 1.478 . S
C247 H241 0.930 . S
C247 C243 1.400 . S
C247 C246 1.385 . S
C248 C246 1.478 . S
C248 C250 1.381 . S
C248 C254 1.383 . S
C249 C245 1.495 . S
C249 H255 0.959 . S
C249 H256 0.961 . S
C249 H257 0.960 . S
C250 C248 1.381 . S
C250 C251 1.394 . S
C250 H258 0.930 . S
C251 C250 1.394 . S
C251 C252 1.383 . S
C251 H259 0.929 . S
C252 C251 1.383 . S
C252 C253 1.377 . S
C253 H237 0.930 . S
C253 C252 1.377 . S
C253 C254 1.379 . S
C254 H238 0.931 . S
C254 C248 1.383 . S
C254 C253 1.379 . S
H255 C249 0.959 . S
H256 C249 0.961 . S
H257 C249 0.960 . S
H258 C250 0.930 . S
H259 C251 0.929 . S
H260 C268 0.929 . S
H261 C270 0.930 . S
H262 C272 0.930 . S
H263 C275 0.929 . S
H264 C278 0.930 . S
H265 C280 0.960 . S
H266 C280 0.960 . S
H267 C280 0.960 . S
C268 H260 0.929 . S
C268 C269 1.377 . S
C268 C270 1.384 . S
C269 C268 1.377 . S
C269 C275 1.390 . S
C270 H261 0.930 . S
C270 C268 1.384 . S
C270 C271 1.372 . S
C271 C270 1.372 . S
C271 C272 1.400 . S
C271 C276 1.490 . S
C272 H262 0.930 . S
C272 C271 1.400 . S
C272 C275 1.386 . S
H273 C289 0.930 1_545 S
H274 C290 0.931 . S
C275 H263 0.929 . S
C275 C269 1.390 . S
C275 C272 1.386 . S
C276 C271 1.490 . S
C276 C278 1.395 . S
C276 C279 1.403 . S
H277 C283 0.930 . S
C278 H264 0.930 . S
C278 C276 1.395 . S
C278 C281 1.403 . S
C279 C276 1.403 . S
C279 C280 1.524 . S
C279 C283 1.400 . S
C280 H265 0.960 . S
C280 H266 0.960 . S
C280 H267 0.960 . S
C280 C279 1.524 . S
C281 C278 1.403 . S
C281 C282 1.392 . S
C281 C285 1.495 . S
C282 C281 1.392 . S
C282 C283 1.385 . S
C282 C284 1.478 . S
C283 H277 0.930 . S
C283 C279 1.400 . S
C283 C282 1.385 . S
C284 C282 1.478 . S
C284 C286 1.381 . S
C284 C290 1.383 . S
C285 C281 1.495 . S
C285 H291 0.959 . S
C285 H292 0.961 . S
C285 H293 0.960 . S
C286 C284 1.381 . S
C286 C287 1.394 . S
C286 H294 0.930 . S
C287 C286 1.394 . S
C287 C288 1.383 . S
C287 H295 0.929 . S
C288 C287 1.383 . S
C288 C289 1.377 . S
C289 H273 0.930 1_565 S
C289 C288 1.377 . S
C289 C290 1.379 . S
C290 H274 0.931 . S
C290 C284 1.383 . S
C290 C289 1.379 . S
H291 C285 0.959 . S
H292 C285 0.961 . S
H293 C285 0.960 . S
H294 C286 0.930 . S
H295 C287 0.929 . S
H296 C304 0.929 . S
H297 C306 0.930 . S
H298 C308 0.930 . S
H299 C311 0.929 . S
H300 C314 0.930 . S
H301 C316 0.960 . S
H302 C316 0.960 . S
H303 C316 0.960 . S
C304 H296 0.929 . S
C304 C305 1.377 . S
C304 C306 1.384 . S
C305 C304 1.377 . S
C305 C311 1.390 . S
C306 H297 0.930 . S
C306 C304 1.384 . S
C306 C307 1.372 . S
C307 C306 1.372 . S
C307 C308 1.400 . S
C307 C312 1.490 . S
C308 H298 0.930 . S
C308 C307 1.400 . S
C308 C311 1.386 . S
H309 C325 0.930 . S
H310 C326 0.931 . S
C311 H299 0.929 . S
C311 C305 1.390 . S
C311 C308 1.386 . S
C312 C307 1.490 . S
C312 C314 1.395 . S
C312 C315 1.403 . S
H313 C319 0.930 . S
C314 H300 0.930 . S
C314 C312 1.395 . S
C314 C317 1.403 . S
C315 C312 1.403 . S
C315 C316 1.524 . S
C315 C319 1.400 . S
C316 H301 0.960 . S
C316 H302 0.960 . S
C316 H303 0.960 . S
C316 C315 1.524 . S
C317 C314 1.403 . S
C317 C318 1.392 . S
C317 C321 1.495 . S
C318 C317 1.392 . S
C318 C319 1.385 . S
C318 C320 1.478 . S
C319 H313 0.930 . S
C319 C315 1.400 . S
C319 C318 1.385 . S
C320 C318 1.478 . S
C320 C322 1.381 . S
C320 C326 1.383 . S
C321 C317 1.495 . S
C321 H327 0.959 . S
C321 H328 0.961 . S
C321 H329 0.960 . S
C322 C320 1.381 . S
C322 C323 1.394 . S
C322 H330 0.930 . S
C323 C322 1.394 . S
C323 C324 1.383 . S
C323 H331 0.929 . S
C324 C323 1.383 . S
C324 C325 1.377 . S
C325 H309 0.930 . S
C325 C324 1.377 . S
C325 C326 1.379 . S
C326 H310 0.931 . S
C326 C320 1.383 . S
C326 C325 1.379 . S
H327 C321 0.959 . S
H328 C321 0.961 . S
H329 C321 0.960 . S
H330 C322 0.930 . S
H331 C323 0.929 . S
H332 C340 0.929 . S
H333 C342 0.930 . S
H334 C344 0.930 . S
H335 C347 0.929 . S
H336 C350 0.930 1_455 S
H337 C352 0.960 . S
H338 C352 0.960 . S
H339 C352 0.960 . S
C340 H332 0.929 . S
C340 C341 1.377 . S
C340 C342 1.384 . S
C341 C340 1.377 . S
C341 C347 1.390 . S
C342 H333 0.930 . S
C342 C340 1.384 . S
C342 C343 1.372 . S
C343 C342 1.372 . S
C343 C344 1.400 . S
C343 C348 1.490 . S
C344 H334 0.930 . S
C344 C343 1.400 . S
C344 C347 1.386 . S
H345 C361 0.930 . S
H346 C362 0.930 . S
C347 H335 0.929 . S
C347 C341 1.390 . S
C347 C344 1.386 . S
C348 C343 1.490 . S
C348 C350 1.395 . S
C348 C351 1.403 . S
H349 C355 0.930 . S
C350 H336 0.930 1_655 S
C350 C348 1.395 . S
C350 C353 1.403 1_655 S
C351 C348 1.403 . S
C351 C352 1.524 . S
C351 C355 1.400 . S
C352 H337 0.960 . S
C352 H338 0.960 . S
C352 H339 0.960 . S
C352 C351 1.524 . S
C353 C350 1.403 1_455 S
C353 C354 1.392 1_455 S
C353 C357 1.495 . S
C354 C353 1.392 1_655 S
C354 C355 1.385 . S
C354 C356 1.478 . S
C355 H349 0.930 . S
C355 C351 1.400 . S
C355 C354 1.385 . S
C356 C354 1.478 . S
C356 C358 1.381 . S
C356 C362 1.384 1_655 S
C357 C353 1.495 . S
C357 H363 0.959 . S
C357 H364 0.961 . S
C357 H365 0.960 . S
C358 C356 1.381 . S
C358 C359 1.394 . S
C358 H366 0.930 . S
C359 C358 1.394 . S
C359 C360 1.383 . S
C359 H367 0.929 . S
C360 C359 1.383 . S
C360 C361 1.377 1_655 S
C361 H345 0.930 . S
C361 C360 1.377 1_455 S
C361 C362 1.379 . S
C362 H346 0.930 . S
C362 C356 1.384 1_455 S
C362 C361 1.379 . S
H363 C357 0.959 . S
H364 C357 0.961 . S
H365 C357 0.960 . S
H366 C358 0.930 . S
H367 C359 0.929 . S
H368 C376 0.929 . S
H369 C378 0.930 . S
H370 C380 0.930 . S
H371 C383 0.929 . S
H372 C386 0.930 . S
H373 C388 0.960 . S
H374 C388 0.960 . S
H375 C388 0.960 . S
C376 H368 0.929 . S
C376 C377 1.377 . S
C376 C378 1.384 . S
C377 C376 1.377 . S
C377 C383 1.390 . S
C378 H369 0.930 . S
C378 C376 1.384 . S
C378 C379 1.372 . S
C379 C378 1.372 . S
C379 C380 1.400 . S
C379 C384 1.490 . S
C380 H370 0.930 . S
C380 C379 1.400 . S
C380 C383 1.386 . S
H381 C397 0.920 1_565 S
H382 C398 0.931 . S
C383 H371 0.929 . S
C383 C377 1.390 . S
C383 C380 1.386 . S
C384 C379 1.490 . S
C384 C386 1.395 . S
C384 C387 1.403 . S
H385 C391 0.930 . S
C386 H372 0.930 . S
C386 C384 1.395 . S
C386 C389 1.403 . S
C387 C384 1.403 . S
C387 C388 1.524 . S
C387 C391 1.400 . S
C388 H373 0.960 . S
C388 H374 0.960 . S
C388 H375 0.960 . S
C388 C387 1.524 . S
C389 C386 1.403 . S
C389 C390 1.392 . S
C389 C393 1.495 . S
C390 C389 1.392 . S
C390 C391 1.385 . S
C390 C392 1.478 . S
C391 H385 0.930 . S
C391 C387 1.400 . S
C391 C390 1.385 . S
C392 C390 1.478 . S
C392 C394 1.381 . S
C392 C398 1.383 . S
C393 C389 1.495 . S
C393 H399 0.959 . S
C393 H400 0.961 . S
C393 H401 0.960 . S
C394 C392 1.381 . S
C394 C395 1.394 . S
C394 H402 0.930 . S
C395 C394 1.394 . S
C395 C396 1.383 . S
C395 H403 0.929 . S
C396 C395 1.383 . S
C396 C397 1.377 . S
C397 H381 0.920 1_545 S
C397 C396 1.377 . S
C397 C398 1.379 . S
C398 H382 0.931 . S
C398 C392 1.383 . S
C398 C397 1.379 . S
H399 C393 0.959 . S
H400 C393 0.961 . S
H401 C393 0.960 . S
H402 C394 0.930 . S
H403 C395 0.929 . S
H404 C412 0.929 . S
H405 C414 0.930 . S
H406 C416 0.930 . S
H407 C419 0.929 . S
H408 C422 0.930 . S
H409 C424 0.960 . S
H410 C424 0.960 . S
H411 C424 0.960 . S
C412 H404 0.929 . S
C412 C413 1.377 . S
C412 C414 1.384 . S
C413 C412 1.377 . S
C413 C419 1.390 . S
C414 H405 0.930 . S
C414 C412 1.384 . S
C414 C415 1.372 . S
C415 C414 1.372 . S
C415 C416 1.400 . S
C415 C420 1.490 . S
C416 H406 0.930 . S
C416 C415 1.400 . S
C416 C419 1.386 . S
H417 C433 0.930 . S
H418 C434 0.931 . S
C419 H407 0.929 . S
C419 C413 1.390 . S
C419 C416 1.386 . S
C420 C415 1.490 . S
C420 C422 1.395 . S
C420 C423 1.403 . S
H421 C427 0.930 . S
C422 H408 0.930 . S
C422 C420 1.395 . S
C422 C425 1.403 . S
C423 C420 1.403 . S
C423 C424 1.524 . S
C423 C427 1.400 . S
C424 H409 0.960 . S
C424 H410 0.960 . S
C424 H411 0.960 . S
C424 C423 1.524 . S
C425 C422 1.403 . S
C425 C426 1.392 . S
C425 C429 1.460 1_565 S
C426 C425 1.392 . S
C426 C427 1.385 . S
C426 C428 1.478 . S
C427 H421 0.930 . S
C427 C423 1.400 . S
C427 C426 1.385 . S
C428 C426 1.478 . S
C428 C430 1.381 . S
C428 C434 1.383 . S
C429 C425 1.460 1_545 S
C429 H435 0.972 . S
C429 H436 0.965 . S
C429 H437 0.980 . S
C430 C428 1.381 . S
C430 C431 1.394 . S
C430 H438 0.930 . S
C431 C430 1.394 . S
C431 C432 1.383 . S
C431 H439 0.929 . S
C432 C431 1.383 . S
C432 C433 1.377 . S
C433 H417 0.930 . S
C433 C432 1.377 . S
C433 C434 1.379 . S
C434 H418 0.931 . S
C434 C428 1.383 . S
C434 C433 1.379 . S
H435 C429 0.972 . S
H436 C429 0.965 . S
H437 C429 0.980 . S
H438 C430 0.930 . S
H439 C431 0.929 . S
H440 C448 0.929 . S
H441 C450 0.930 . S
H442 C452 0.930 . S
H443 C455 0.929 . S
H444 C458 0.930 . S
H445 C460 0.960 . S
H446 C460 0.960 . S
H447 C460 0.960 . S
C448 H440 0.929 . S
C448 C449 1.377 . S
C448 C450 1.384 . S
C449 C448 1.377 . S
C449 C455 1.390 . S
C450 H441 0.930 . S
C450 C448 1.384 . S
C450 C451 1.372 . S
C451 C450 1.372 . S
C451 C452 1.400 . S
C451 C456 1.490 . S
C452 H442 0.930 . S
C452 C451 1.400 . S
C452 C455 1.386 . S
H453 C469 0.930 . S
H454 C470 0.931 . S
C455 H443 0.929 . S
C455 C449 1.390 . S
C455 C452 1.386 . S
C456 C451 1.490 . S
C456 C458 1.395 . S
C456 C459 1.403 . S
H457 C463 0.930 . S
C458 H444 0.930 . S
C458 C456 1.395 . S
C458 C461 1.403 . S
C459 C456 1.403 . S
C459 C460 1.524 . S
C459 C463 1.400 . S
C460 H445 0.960 . S
C460 H446 0.960 . S
C460 H447 0.960 . S
C460 C459 1.524 . S
C461 C458 1.403 . S
C461 C462 1.392 . S
C461 C465 1.495 . S
C462 C461 1.392 . S
C462 C463 1.385 . S
C462 C464 1.478 . S
C463 H457 0.930 . S
C463 C459 1.400 . S
C463 C462 1.385 . S
C464 C462 1.478 . S
C464 C466 1.381 . S
C464 C470 1.383 1_556 S
C465 C461 1.495 . S
C465 H471 0.959 . S
C465 H472 0.961 1_556 S
C465 H473 0.960 . S
C466 C464 1.381 . S
C466 C467 1.394 . S
C466 H474 0.930 . S
C467 C466 1.394 . S
C467 C468 1.383 1_556 S
C467 H475 0.929 . S
C468 C467 1.383 1_554 S
C468 C469 1.377 . S
C469 H453 0.930 . S
C469 C468 1.377 . S
C469 C470 1.379 . S
C470 H454 0.931 . S
C470 C464 1.383 1_554 S
C470 C469 1.379 . S
H471 C465 0.959 . S
H472 C465 0.961 1_554 S
H473 C465 0.960 . S
H474 C466 0.930 . S
H475 C467 0.929 . S
H476 C484 0.929 . S
H477 C486 0.930 . S
H478 C488 0.930 . S
H479 C491 0.929 . S
H480 C494 0.930 . S
H481 C496 0.960 . S
H482 C496 0.960 . S
H483 C496 0.960 . S
C484 H476 0.929 . S
C484 C485 1.377 . S
C484 C486 1.384 . S
C485 C484 1.377 . S
C485 C491 1.390 . S
C486 H477 0.930 . S
C486 C484 1.384 . S
C486 C487 1.372 . S
C487 C486 1.372 . S
C487 C488 1.400 . S
C487 C492 1.490 . S
C488 H478 0.930 . S
C488 C487 1.400 . S
C488 C491 1.386 . S
H489 C505 0.930 . S
H490 C506 0.931 . S
C491 H479 0.929 . S
C491 C485 1.390 . S
C491 C488 1.386 . S
C492 C487 1.490 . S
C492 C494 1.395 . S
C492 C495 1.403 . S
H493 C499 0.930 . S
C494 H480 0.930 . S
C494 C492 1.395 . S
C494 C497 1.403 . S
C495 C492 1.403 . S
C495 C496 1.524 . S
C495 C499 1.400 . S
C496 H481 0.960 . S
C496 H482 0.960 . S
C496 H483 0.960 . S
C496 C495 1.524 . S
C497 C494 1.403 . S
C497 C498 1.392 . S
C497 C501 1.495 . S
C498 C497 1.392 . S
C498 C499 1.385 . S
C498 C500 1.478 . S
C499 H493 0.930 . S
C499 C495 1.400 . S
C499 C498 1.385 . S
C500 C498 1.478 . S
C500 C502 1.381 . S
C500 C506 1.383 . S
C501 C497 1.495 . S
C501 H507 0.959 . S
C501 H508 0.961 . S
C501 H509 0.960 . S
C502 C500 1.381 . S
C502 C503 1.394 . S
C502 H510 0.930 . S
C503 C502 1.394 . S
C503 C504 1.383 . S
C503 H511 0.929 . S
C504 C503 1.383 . S
C504 C505 1.377 . S
C505 H489 0.930 . S
C505 C504 1.377 . S
C505 C506 1.379 . S
C506 H490 0.931 . S
C506 C500 1.383 . S
C506 C505 1.379 . S
H507 C501 0.959 . S
H508 C501 0.961 . S
H509 C501 0.960 . S
H510 C502 0.930 . S
H511 C503 0.929 . S
H512 C520 0.929 . S
H513 C522 0.930 . S
H514 C524 0.930 . S
H515 C527 0.929 . S
H516 C530 0.930 . S
H517 C532 0.960 . S
H518 C532 0.960 . S
H519 C532 0.960 . S
C520 H512 0.929 . S
C520 C521 1.377 . S
C520 C522 1.384 . S
C521 C520 1.377 . S
C521 C527 1.390 . S
C522 H513 0.930 . S
C522 C520 1.384 . S
C522 C523 1.372 . S
C523 C522 1.372 . S
C523 C524 1.400 . S
C523 C528 1.490 . S
C524 H514 0.930 . S
C524 C523 1.400 . S
C524 C527 1.386 . S
H525 C541 0.930 . S
H526 C542 0.931 . S
C527 H515 0.929 . S
C527 C521 1.390 . S
C527 C524 1.386 . S
C528 C523 1.490 . S
C528 C530 1.395 . S
C528 C531 1.403 . S
H529 C535 0.930 . S
C530 H516 0.930 . S
C530 C528 1.395 . S
C530 C533 1.403 . S
C531 C528 1.403 . S
C531 C532 1.524 . S
C531 C535 1.400 . S
C532 H517 0.960 . S
C532 H518 0.960 . S
C532 H519 0.960 . S
C532 C531 1.524 . S
C533 C530 1.403 . S
C533 C534 1.392 . S
C533 C537 1.495 . S
C534 C533 1.392 . S
C534 C535 1.385 . S
C534 C536 1.478 . S
C535 H529 0.930 . S
C535 C531 1.400 . S
C535 C534 1.385 . S
C536 C534 1.478 . S
C536 C538 1.381 . S
C536 C542 1.383 . S
C537 C533 1.495 . S
C537 H543 0.959 . S
C537 H544 0.961 . S
C537 H545 0.960 . S
C538 C536 1.381 . S
C538 C539 1.394 . S
C538 H546 0.930 . S
C539 C538 1.394 . S
C539 C540 1.383 . S
C539 H547 0.929 . S
C540 C539 1.383 . S
C540 C541 1.377 . S
C541 H525 0.930 . S
C541 C540 1.377 . S
C541 C542 1.379 . S
C542 H526 0.931 . S
C542 C536 1.383 . S
C542 C541 1.379 . S
H543 C537 0.959 . S
H544 C537 0.961 . S
H545 C537 0.960 . S
H546 C538 0.930 . S
H547 C539 0.929 . S
H548 C556 0.929 . S
H549 C558 0.930 . S
H550 C560 0.930 . S
H551 C563 0.929 . S
H552 C566 0.930 . S
H553 C568 0.960 . S
H554 C568 0.960 . S
H555 C568 0.960 . S
C556 H548 0.929 . S
C556 C557 1.377 . S
C556 C558 1.384 . S
C557 C556 1.377 . S
C557 C563 1.390 . S
C558 H549 0.930 . S
C558 C556 1.384 . S
C558 C559 1.372 . S
C559 C558 1.372 . S
C559 C560 1.400 . S
C559 C564 1.490 . S
C560 H550 0.930 . S
C560 C559 1.400 . S
C560 C563 1.386 . S
H561 C577 0.930 . S
H562 C578 0.931 . S
C563 H551 0.929 . S
C563 C557 1.390 . S
C563 C560 1.386 . S
C564 C559 1.490 . S
C564 C566 1.395 . S
C564 C567 1.403 . S
H565 C571 0.930 . S
C566 H552 0.930 . S
C566 C564 1.395 . S
C566 C569 1.403 . S
C567 C564 1.403 . S
C567 C568 1.524 . S
C567 C571 1.400 . S
C568 H553 0.960 . S
C568 H554 0.960 . S
C568 H555 0.960 . S
C568 C567 1.524 . S
C569 C566 1.403 . S
C569 C570 1.392 . S
C569 C573 1.522 . S
C570 C569 1.392 . S
C570 C571 1.385 . S
C570 C572 1.478 . S
C571 H565 0.930 . S
C571 C567 1.400 . S
C571 C570 1.385 . S
C572 C570 1.478 . S
C572 C574 1.381 . S
C572 C578 1.383 . S
C573 C569 1.522 . S
C573 H579 0.948 1_556 S
C573 H580 0.941 1_556 S
C573 H581 0.965 . S
C574 C572 1.381 . S
C574 C575 1.394 . S
C574 H582 0.930 . S
C575 C574 1.394 . S
C575 C576 1.383 . S
C575 H583 0.929 . S
C576 C575 1.383 . S
C576 C577 1.377 . S
C577 H561 0.930 . S
C577 C576 1.377 . S
C577 C578 1.379 . S
C578 H562 0.931 . S
C578 C572 1.383 . S
C578 C577 1.379 . S
H579 C573 0.948 1_554 S
H580 C573 0.941 1_554 S
H581 C573 0.965 . S
H582 C574 0.930 . S
H583 C575 0.929 . S
H584 C592 0.929 . S
H585 C594 0.930 . S
H586 C596 0.930 . S
H587 C599 0.929 . S
H588 C602 0.930 . S
H589 C604 0.960 . S
H590 C604 0.960 . S
H591 C604 0.960 . S
C592 H584 0.929 . S
C592 C593 1.377 . S
C592 C594 1.384 . S
C593 C592 1.377 . S
C593 C599 1.390 . S
C594 H585 0.930 . S
C594 C592 1.384 . S
C594 C595 1.372 . S
C595 C594 1.372 . S
C595 C596 1.400 . S
C595 C600 1.490 . S
C596 H586 0.930 . S
C596 C595 1.400 . S
C596 C599 1.386 . S
H597 C613 0.930 . S
H598 C614 0.931 . S
C599 H587 0.929 . S
C599 C593 1.390 . S
C599 C596 1.386 . S
C600 C595 1.490 . S
C600 C602 1.395 . S
C600 C603 1.403 . S
H601 C607 0.930 . S
C602 H588 0.930 . S
C602 C600 1.395 . S
C602 C605 1.403 . S
C603 C600 1.403 . S
C603 C604 1.524 . S
C603 C607 1.400 . S
C604 H589 0.960 . S
C604 H590 0.960 . S
C604 H591 0.960 . S
C604 C603 1.524 . S
C605 C602 1.403 . S
C605 C606 1.392 . S
C605 C609 1.495 . S
C606 C605 1.392 . S
C606 C607 1.385 . S
C606 C608 1.478 . S
C607 H601 0.930 . S
C607 C603 1.400 . S
C607 C606 1.385 . S
C608 C606 1.478 . S
C608 C610 1.381 . S
C608 C614 1.383 1_655 S
C609 C605 1.495 . S
C609 H615 0.959 . S
C609 H616 0.961 1_655 S
C609 H617 0.960 . S
C610 C608 1.381 . S
C610 C611 1.394 . S
C610 H618 0.930 . S
C611 C610 1.394 . S
C611 C612 1.383 . S
C611 H619 0.929 . S
C612 C611 1.383 . S
C612 C613 1.377 1_655 S
C613 H597 0.930 . S
C613 C612 1.377 1_455 S
C613 C614 1.379 . S
C614 H598 0.931 . S
C614 C608 1.383 1_455 S
C614 C613 1.379 . S
H615 C609 0.959 . S
H616 C609 0.961 1_455 S
H617 C609 0.960 . S
H618 C610 0.930 . S
H619 C611 0.929 . S
H620 C628 0.929 . S
H621 C630 0.930 . S
H622 C632 0.930 . S
H623 C635 0.929 . S
H624 C638 0.930 . S
H625 C640 0.960 . S
H626 C640 0.960 . S
H627 C640 0.960 . S
C628 H620 0.929 . S
C628 C629 1.377 . S
C628 C630 1.384 . S
C629 C628 1.377 . S
C629 C635 1.390 . S
C630 H621 0.930 . S
C630 C628 1.384 . S
C630 C631 1.372 . S
C631 C630 1.372 . S
C631 C632 1.400 . S
C631 C636 1.490 . S
C632 H622 0.930 . S
C632 C631 1.400 . S
C632 C635 1.386 . S
H633 C649 0.930 . S
H634 C650 0.931 . S
C635 H623 0.929 . S
C635 C629 1.390 . S
C635 C632 1.386 . S
C636 C631 1.490 . S
C636 C638 1.395 . S
C636 C639 1.403 . S
H637 C643 0.930 . S
C638 H624 0.930 . S
C638 C636 1.395 . S
C638 C641 1.403 . S
C639 C636 1.403 . S
C639 C640 1.524 . S
C639 C643 1.400 . S
C640 H625 0.960 . S
C640 H626 0.960 . S
C640 H627 0.960 . S
C640 C639 1.524 . S
C641 C638 1.403 . S
C641 C642 1.392 . S
C641 C645 1.495 . S
C642 C641 1.392 . S
C642 C643 1.385 . S
C642 C644 1.478 . S
C643 H637 0.930 . S
C643 C639 1.400 . S
C643 C642 1.385 . S
C644 C642 1.478 . S
C644 C646 1.381 . S
C644 C650 1.383 . S
C645 C641 1.495 . S
C645 H651 0.959 . S
C645 H652 0.961 . S
C645 H653 0.960 . S
C646 C644 1.381 . S
C646 C647 1.394 . S
C646 H654 0.930 . S
C647 C646 1.394 . S
C647 C648 1.383 . S
C647 H655 0.929 . S
C648 C647 1.383 . S
C648 C649 1.377 . S
C649 H633 0.930 . S
C649 C648 1.377 . S
C649 C650 1.379 . S
C650 H634 0.931 . S
C650 C644 1.383 . S
C650 C649 1.379 . S
H651 C645 0.959 . S
H652 C645 0.961 . S
H653 C645 0.960 . S
H654 C646 0.930 . S
H655 C647 0.929 . S
H656 C664 0.929 . S
H657 C666 0.930 . S
H658 C668 0.930 . S
H659 C671 0.929 . S
H660 C674 0.930 . S
H661 C676 0.960 . S
H662 C676 0.960 . S
H663 C676 0.960 . S
C664 H656 0.929 . S
C664 C665 1.377 . S
C664 C666 1.384 . S
C665 C664 1.377 . S
C665 C671 1.390 . S
C666 H657 0.930 . S
C666 C664 1.384 . S
C666 C667 1.372 . S
C667 C666 1.372 . S
C667 C668 1.400 . S
C667 C672 1.490 . S
C668 H658 0.930 . S
C668 C667 1.400 . S
C668 C671 1.386 . S
H669 C685 0.930 . S
H670 C686 0.931 . S
C671 H659 0.929 . S
C671 C665 1.390 . S
C671 C668 1.386 . S
C672 C667 1.490 . S
C672 C674 1.395 . S
C672 C675 1.403 . S
H673 C679 0.930 . S
C674 H660 0.930 . S
C674 C672 1.395 . S
C674 C677 1.403 . S
C675 C672 1.403 . S
C675 C676 1.524 . S
C675 C679 1.400 . S
C676 H661 0.960 . S
C676 H662 0.960 . S
C676 H663 0.960 . S
C676 C675 1.524 . S
C677 C674 1.403 . S
C677 C678 1.392 . S
C677 C681 1.495 1_565 S
C678 C677 1.392 . S
C678 C679 1.385 . S
C678 C680 1.478 . S
C679 H673 0.930 . S
C679 C675 1.400 . S
C679 C678 1.385 . S
C680 C678 1.478 . S
C680 C682 1.381 . S
C680 C686 1.383 1_655 S
C681 C677 1.495 1_545 S
C681 H687 0.959 . S
C681 H688 0.961 . S
C681 H689 0.960 . S
C682 C680 1.381 . S
C682 C683 1.394 . S
C682 H690 0.930 . S
C683 C682 1.394 . S
C683 C684 1.383 . S
C683 H691 0.929 . S
C684 C683 1.383 . S
C684 C685 1.377 1_655 S
C685 H669 0.930 . S
C685 C684 1.377 1_455 S
C685 C686 1.379 . S
C686 H670 0.931 . S
C686 C680 1.383 1_455 S
C686 C685 1.379 . S
H687 C681 0.959 . S
H688 C681 0.961 . S
H689 C681 0.960 . S
H690 C682 0.930 . S
H691 C683 0.929 . S
H692 C700 0.929 . S
H693 C702 0.930 . S
H694 C704 0.930 . S
H695 C707 0.929 . S
H696 C710 0.930 . S
H697 C712 0.960 . S
H698 C712 0.960 . S
H699 C712 0.960 . S
C700 H692 0.929 . S
C700 C701 1.377 . S
C700 C702 1.384 . S
C701 C700 1.377 . S
C701 C707 1.390 . S
C702 H693 0.930 . S
C702 C700 1.384 . S
C702 C703 1.372 . S
C703 C702 1.372 . S
C703 C704 1.400 . S
C703 C708 1.490 . S
C704 H694 0.930 . S
C704 C703 1.400 . S
C704 C707 1.386 . S
H705 C721 0.930 . S
H706 C722 0.931 . S
C707 H695 0.929 . S
C707 C701 1.390 . S
C707 C704 1.386 . S
C708 C703 1.490 . S
C708 C710 1.395 . S
C708 C711 1.403 . S
H709 C715 0.930 . S
C710 H696 0.930 . S
C710 C708 1.395 . S
C710 C713 1.403 . S
C711 C708 1.403 . S
C711 C712 1.524 . S
C711 C715 1.400 . S
C712 H697 0.960 . S
C712 H698 0.960 . S
C712 H699 0.960 . S
C712 C711 1.524 . S
C713 C710 1.403 . S
C713 C714 1.392 . S
C713 C717 1.495 . S
C714 C713 1.392 . S
C714 C715 1.385 . S
C714 C716 1.478 . S
C715 H709 0.930 . S
C715 C711 1.400 . S
C715 C714 1.385 . S
C716 C714 1.478 . S
C716 C718 1.381 . S
C716 C722 1.383 . S
C717 C713 1.495 . S
C717 H723 0.959 . S
C717 H724 0.961 . S
C717 H725 0.960 . S
C718 C716 1.381 . S
C718 C719 1.394 . S
C718 H726 0.930 . S
C719 C718 1.394 . S
C719 C720 1.383 . S
C719 H727 0.929 . S
C720 C719 1.383 . S
C720 C721 1.377 . S
C721 H705 0.930 . S
C721 C720 1.377 . S
C721 C722 1.379 . S
C722 H706 0.931 . S
C722 C716 1.383 . S
C722 C721 1.379 . S
H723 C717 0.959 . S
H724 C717 0.961 . S
H725 C717 0.960 . S
H726 C718 0.930 . S
H727 C719 0.929 . S
H728 C736 0.929 . S
H729 C738 0.930 . S
H730 C740 0.930 . S
H731 C743 0.929 . S
H732 C746 0.930 . S
H733 C748 0.960 . S
H734 C748 0.960 . S
H735 C748 0.960 . S
C736 H728 0.929 . S
C736 C737 1.377 . S
C736 C738 1.384 . S
C737 C736 1.377 . S
C737 C743 1.390 . S
C738 H729 0.930 . S
C738 C736 1.384 . S
C738 C739 1.372 . S
C739 C738 1.372 . S
C739 C740 1.400 . S
C739 C744 1.490 . S
C740 H730 0.930 . S
C740 C739 1.400 . S
C740 C743 1.386 . S
H741 C757 0.930 . S
H742 C758 0.931 . S
C743 H731 0.929 . S
C743 C737 1.390 . S
C743 C740 1.386 . S
C744 C739 1.490 . S
C744 C746 1.395 . S
C744 C747 1.403 . S
H745 C751 0.930 . S
C746 H732 0.930 . S
C746 C744 1.395 . S
C746 C749 1.403 . S
C747 C744 1.403 . S
C747 C748 1.524 . S
C747 C751 1.400 . S
C748 H733 0.960 . S
C748 H734 0.960 . S
C748 H735 0.960 . S
C748 C747 1.524 . S
C749 C746 1.403 . S
C749 C750 1.392 . S
C749 C753 1.495 . S
C750 C749 1.392 . S
C750 C751 1.385 . S
C750 C752 1.478 . S
C751 H745 0.930 . S
C751 C747 1.400 . S
C751 C750 1.385 . S
C752 C750 1.478 . S
C752 C754 1.381 . S
C752 C758 1.383 . S
C753 C749 1.495 . S
C753 H759 0.959 . S
C753 H760 0.961 . S
C753 H761 0.960 . S
C754 C752 1.381 . S
C754 C755 1.394 . S
C754 H762 0.930 . S
C755 C754 1.394 . S
C755 C756 1.383 . S
C755 H763 0.929 . S
C756 C755 1.383 . S
C756 C757 1.377 . S
C757 H741 0.930 . S
C757 C756 1.377 . S
C757 C758 1.379 . S
C758 H742 0.931 . S
C758 C752 1.383 . S
C758 C757 1.379 . S
H759 C753 0.959 . S
H760 C753 0.961 . S
H761 C753 0.960 . S
H762 C754 0.930 . S
H763 C755 0.929 . S
H764 C772 0.929 . S
H765 C774 0.930 . S
H766 C776 0.930 . S
H767 C779 0.929 . S
H768 C782 0.930 . S
H769 C784 0.960 . S
H770 C784 0.960 . S
H771 C784 0.960 . S
C772 H764 0.929 . S
C772 C773 1.377 . S
C772 C774 1.384 . S
C773 C772 1.377 . S
C773 C779 1.390 . S
C774 H765 0.930 . S
C774 C772 1.384 . S
C774 C775 1.372 . S
C775 C774 1.372 . S
C775 C776 1.400 . S
C775 C780 1.490 . S
C776 H766 0.930 . S
C776 C775 1.400 . S
C776 C779 1.386 . S
H777 C793 0.930 . S
H778 C794 0.931 . S
C779 H767 0.929 . S
C779 C773 1.390 . S
C779 C776 1.386 . S
C780 C775 1.490 . S
C780 C782 1.395 . S
C780 C783 1.403 . S
H781 C787 0.930 . S
C782 H768 0.930 . S
C782 C780 1.395 . S
C782 C785 1.403 . S
C783 C780 1.403 . S
C783 C784 1.524 . S
C783 C787 1.400 . S
C784 H769 0.960 . S
C784 H770 0.960 . S
C784 H771 0.960 . S
C784 C783 1.524 . S
C785 C782 1.403 . S
C785 C786 1.392 . S
C785 C789 1.495 . S
C786 C785 1.392 . S
C786 C787 1.385 . S
C786 C788 1.478 . S
C787 H781 0.930 . S
C787 C783 1.400 . S
C787 C786 1.385 . S
C788 C786 1.478 . S
C788 C790 1.381 . S
C788 C794 1.383 . S
C789 C785 1.495 . S
C789 H795 0.959 . S
C789 H796 0.961 . S
C789 H797 0.960 . S
C790 C788 1.381 . S
C790 C791 1.394 . S
C790 H798 0.930 . S
C791 C790 1.394 . S
C791 C792 1.383 . S
C791 H799 0.929 . S
C792 C791 1.383 . S
C792 C793 1.377 . S
C793 H777 0.930 . S
C793 C792 1.377 . S
C793 C794 1.379 . S
C794 H778 0.931 . S
C794 C788 1.383 . S
C794 C793 1.379 . S
H795 C789 0.959 . S
H796 C789 0.961 . S
H797 C789 0.960 . S
H798 C790 0.930 . S
H799 C791 0.929 . S
H800 C808 0.929 . S
H801 C810 0.930 . S
H802 C812 0.930 . S
H803 C815 0.929 . S
H804 C818 0.930 . S
H805 C820 0.960 . S
H806 C820 0.960 . S
H807 C820 0.960 . S
C808 H800 0.929 . S
C808 C809 1.377 . S
C808 C810 1.384 . S
C809 C808 1.377 . S
C809 C815 1.390 . S
C810 H801 0.930 . S
C810 C808 1.384 . S
C810 C811 1.372 . S
C811 C810 1.372 . S
C811 C812 1.400 . S
C811 C816 1.490 . S
C812 H802 0.930 . S
C812 C811 1.400 . S
C812 C815 1.386 . S
H813 C829 0.930 . S
H814 C830 0.931 1_554 S
C815 H803 0.929 . S
C815 C809 1.390 . S
C815 C812 1.386 . S
C816 C811 1.490 . S
C816 C818 1.395 . S
C816 C819 1.403 . S
H817 C823 0.930 . S
C818 H804 0.930 . S
C818 C816 1.395 . S
C818 C821 1.403 . S
C819 C816 1.403 . S
C819 C820 1.524 . S
C819 C823 1.400 . S
C820 H805 0.960 . S
C820 H806 0.960 . S
C820 H807 0.960 . S
C820 C819 1.524 . S
C821 C818 1.403 . S
C821 C822 1.392 . S
C821 C825 1.495 . S
C822 C821 1.392 . S
C822 C823 1.385 . S
C822 C824 1.478 . S
C823 H817 0.930 . S
C823 C819 1.400 . S
C823 C822 1.385 . S
C824 C822 1.478 . S
C824 C826 1.381 . S
C824 C830 1.383 . S
C825 C821 1.495 . S
C825 H831 0.959 . S
C825 H832 0.961 . S
C825 H833 0.960 . S
C826 C824 1.381 . S
C826 C827 1.394 . S
C826 H834 0.930 . S
C827 C826 1.394 . S
C827 C828 1.383 . S
C827 H835 0.929 . S
C828 C827 1.383 . S
C828 C829 1.377 1_556 S
C829 H813 0.930 . S
C829 C828 1.377 1_554 S
C829 C830 1.379 1_554 S
C830 H814 0.931 1_556 S
C830 C824 1.383 . S
C830 C829 1.379 1_556 S
H831 C825 0.959 . S
H832 C825 0.961 . S
H833 C825 0.960 . S
H834 C826 0.930 . S
H835 C827 0.929 . S
H836 C844 0.929 . S
H837 C846 0.930 . S
H838 C848 0.930 . S
H839 C851 0.929 . S
H840 C854 0.930 . S
H841 C856 0.960 . S
H842 C856 0.960 . S
H843 C856 0.960 . S
C844 H836 0.929 . S
C844 C845 1.377 . S
C844 C846 1.384 . S
C845 C844 1.377 . S
C845 C851 1.390 . S
C846 H837 0.930 . S
C846 C844 1.384 . S
C846 C847 1.372 . S
C847 C846 1.372 . S
C847 C848 1.400 . S
C847 C852 1.490 . S
C848 H838 0.930 . S
C848 C847 1.400 . S
C848 C851 1.386 . S
H849 C865 0.930 . S
H850 C866 0.931 . S
C851 H839 0.929 . S
C851 C845 1.390 . S
C851 C848 1.386 . S
C852 C847 1.490 . S
C852 C854 1.395 . S
C852 C855 1.403 . S
H853 C859 0.930 . S
C854 H840 0.930 . S
C854 C852 1.395 . S
C854 C857 1.403 . S
C855 C852 1.403 . S
C855 C856 1.524 . S
C855 C859 1.400 . S
C856 H841 0.960 . S
C856 H842 0.960 . S
C856 H843 0.960 . S
C856 C855 1.524 . S
C857 C854 1.403 . S
C857 C858 1.392 . S
C857 C861 1.495 . S
C858 C857 1.392 . S
C858 C859 1.385 . S
C858 C860 1.478 . S
C859 H853 0.930 . S
C859 C855 1.400 . S
C859 C858 1.385 . S
C860 C858 1.478 . S
C860 C862 1.381 . S
C860 C866 1.383 . S
C861 C857 1.495 . S
C861 H867 0.959 . S
C861 H868 0.961 . S
C861 H869 0.960 . S
C862 C860 1.381 . S
C862 C863 1.394 . S
C862 H870 0.930 . S
C863 C862 1.394 . S
C863 C864 1.383 . S
C863 H871 0.929 . S
C864 C863 1.383 . S
C864 C865 1.377 . S
C865 H849 0.930 . S
C865 C864 1.377 . S
C865 C866 1.379 . S
C866 H850 0.931 . S
C866 C860 1.383 . S
C866 C865 1.379 . S
H867 C861 0.959 . S
H868 C861 0.961 . S
H869 C861 0.960 . S
H870 C862 0.930 . S
H871 C863 0.929 . S
H872 C880 0.929 . S
H873 C882 0.930 . S
H874 C884 0.930 . S
H875 C887 0.929 . S
H876 C890 0.930 . S
H877 C892 0.960 . S
H878 C892 0.960 . S
H879 C892 0.960 . S
C880 H872 0.929 . S
C880 C881 1.377 . S
C880 C882 1.384 . S
C881 C880 1.377 . S
C881 C887 1.390 . S
C882 H873 0.930 . S
C882 C880 1.384 . S
C882 C883 1.372 . S
C883 C882 1.372 . S
C883 C884 1.400 . S
C883 C888 1.490 . S
C884 H874 0.930 . S
C884 C883 1.400 . S
C884 C887 1.386 . S
H885 C901 0.930 . S
H886 C902 0.931 . S
C887 H875 0.929 . S
C887 C881 1.390 . S
C887 C884 1.386 . S
C888 C883 1.490 . S
C888 C890 1.395 . S
C888 C891 1.403 . S
H889 C895 0.930 . S
C890 H876 0.930 . S
C890 C888 1.395 . S
C890 C893 1.403 . S
C891 C888 1.403 . S
C891 C892 1.524 . S
C891 C895 1.400 . S
C892 H877 0.960 . S
C892 H878 0.960 . S
C892 H879 0.960 . S
C892 C891 1.524 . S
C893 C890 1.403 . S
C893 C894 1.392 . S
C893 C897 1.495 . S
C894 C893 1.392 . S
C894 C895 1.385 . S
C894 C896 1.478 . S
C895 H889 0.930 . S
C895 C891 1.400 . S
C895 C894 1.385 . S
C896 C894 1.478 . S
C896 C898 1.381 . S
C896 C902 1.383 . S
C897 C893 1.495 . S
C897 H903 0.959 . S
C897 H904 0.961 . S
C897 H905 0.960 . S
C898 C896 1.381 . S
C898 C899 1.394 . S
C898 H906 0.930 . S
C899 C898 1.394 . S
C899 C900 1.383 . S
C899 H907 0.929 . S
C900 C899 1.383 . S
C900 C901 1.377 . S
C901 H885 0.930 . S
C901 C900 1.377 . S
C901 C902 1.379 . S
C902 H886 0.931 . S
C902 C896 1.383 . S
C902 C901 1.379 . S
H903 C897 0.959 . S
H904 C897 0.961 . S
H905 C897 0.960 . S
H906 C898 0.930 . S
H907 C899 0.929 . S
H908 C916 0.929 . S
H909 C918 0.930 . S
H910 C920 0.930 . S
H911 C923 0.929 . S
H912 C926 0.930 . S
H913 C928 0.960 . S
H914 C928 0.960 . S
H915 C928 0.960 . S
C916 H908 0.929 . S
C916 C917 1.377 . S
C916 C918 1.384 . S
C917 C916 1.377 . S
C917 C923 1.390 . S
C918 H909 0.930 . S
C918 C916 1.384 . S
C918 C919 1.372 . S
C919 C918 1.372 . S
C919 C920 1.400 . S
C919 C924 1.490 . S
C920 H910 0.930 . S
C920 C919 1.400 . S
C920 C923 1.386 . S
H921 C937 0.930 . S
H922 C938 0.931 . S
C923 H911 0.929 . S
C923 C917 1.390 . S
C923 C920 1.386 . S
C924 C919 1.490 . S
C924 C926 1.395 . S
C924 C927 1.403 . S
H925 C931 0.930 . S
C926 H912 0.930 . S
C926 C924 1.395 . S
C926 C929 1.403 . S
C927 C924 1.403 . S
C927 C928 1.524 . S
C927 C931 1.400 . S
C928 H913 0.960 . S
C928 H914 0.960 . S
C928 H915 0.960 . S
C928 C927 1.524 . S
C929 C926 1.403 . S
C929 C930 1.392 . S
C929 C933 1.495 . S
C930 C929 1.392 . S
C930 C931 1.385 . S
C930 C932 1.478 . S
C931 H925 0.930 . S
C931 C927 1.400 . S
C931 C930 1.385 . S
C932 C930 1.478 . S
C932 C934 1.381 . S
C932 C938 1.383 . S
C933 C929 1.495 . S
C933 H939 0.959 . S
C933 H940 0.961 . S
C933 H941 0.960 . S
C934 C932 1.381 . S
C934 C935 1.394 . S
C934 H942 0.930 . S
C935 C934 1.394 . S
C935 C936 1.383 . S
C935 H943 0.929 . S
C936 C935 1.383 . S
C936 C937 1.377 . S
C937 H921 0.930 . S
C937 C936 1.377 . S
C937 C938 1.379 . S
C938 H922 0.931 . S
C938 C932 1.383 . S
C938 C937 1.379 . S
H939 C933 0.959 . S
H940 C933 0.961 . S
H941 C933 0.960 . S
H942 C934 0.930 . S
H943 C935 0.929 . S
H944 C952 0.929 . S
H945 C954 0.930 . S
H946 C956 0.930 . S
H947 C959 0.929 . S
H948 C962 0.930 . S
H949 C964 0.960 . S
H950 C964 0.960 1_554 S
H951 C964 0.960 . S
C952 H944 0.929 . S
C952 C953 1.377 . S
C952 C954 1.384 . S
C953 C952 1.377 . S
C953 C959 1.390 . S
C954 H945 0.930 . S
C954 C952 1.384 . S
C954 C955 1.372 . S
C955 C954 1.372 . S
C955 C956 1.400 . S
C955 C960 1.490 . S
C956 H946 0.930 . S
C956 C955 1.400 . S
C956 C959 1.386 . S
H957 C973 0.930 . S
H958 C974 0.931 . S
C959 H947 0.929 . S
C959 C953 1.390 . S
C959 C956 1.386 . S
C960 C955 1.490 . S
C960 C962 1.395 . S
C960 C963 1.403 . S
H961 C967 0.930 . S
C962 H948 0.930 . S
C962 C960 1.395 . S
C962 C965 1.403 . S
C963 C960 1.403 . S
C963 C964 1.524 1_655 S
C963 C967 1.400 1_655 S
C964 H949 0.960 . S
C964 H950 0.960 1_556 S
C964 H951 0.960 . S
C964 C963 1.524 1_455 S
C965 C962 1.403 . S
C965 C966 1.392 . S
C965 C969 1.495 . S
C966 C965 1.392 . S
C966 C967 1.385 1_655 S
C966 C968 1.478 . S
C967 H961 0.930 . S
C967 C963 1.400 1_455 S
C967 C966 1.385 1_455 S
C968 C966 1.478 . S
C968 C970 1.381 1_556 S
C968 C974 1.383 1_655 S
C969 C965 1.495 . S
C969 H975 0.959 . S
C969 H976 0.961 . S
C969 H977 0.960 . S
C970 C968 1.381 1_554 S
C970 C971 1.394 . S
C970 H978 0.930 . S
C971 C970 1.394 . S
C971 C972 1.379 1_654 S
C971 H979 0.929 . S
C972 C971 1.379 1_456 S
C972 C973 1.383 . S
C973 H957 0.930 . S
C973 C972 1.383 . S
C973 C974 1.379 . S
C974 H958 0.931 . S
C974 C968 1.383 1_455 S
C974 C973 1.379 . S
H975 C969 0.959 . S
H976 C969 0.961 . S
H977 C969 0.960 . S
H978 C970 0.930 . S
H979 C971 0.929 . S
H980 C988 0.929 . S
H981 C990 0.930 . S
H982 C992 0.930 . S
H983 C995 0.929 . S
H984 C998 0.930 . S
H985 C1000 0.960 . S
H986 C1000 0.960 . S
H987 C1000 0.960 . S
C988 H980 0.929 . S
C988 C989 1.377 . S
C988 C990 1.384 . S
C989 C988 1.377 . S
C989 C995 1.390 . S
C990 H981 0.930 . S
C990 C988 1.384 . S
C990 C991 1.372 . S
C991 C990 1.372 . S
C991 C992 1.400 . S
C991 C996 1.490 . S
C992 H982 0.930 . S
C992 C991 1.400 . S
C992 C995 1.386 . S
H993 C1009 0.930 . S
H994 C1010 0.931 . S
C995 H983 0.929 . S
C995 C989 1.390 . S
C995 C992 1.386 . S
C996 C991 1.490 . S
C996 C998 1.395 . S
C996 C999 1.403 . S
H997 C1003 0.930 . S
C998 H984 0.930 . S
C998 C996 1.395 . S
C998 C1001 1.403 . S
C999 C996 1.403 . S
C999 C1000 1.524 . S
C999 C1003 1.400 . S
C1000 H985 0.960 . S
C1000 H986 0.960 . S
C1000 H987 0.960 . S
C1000 C999 1.524 . S
C1001 C998 1.403 . S
C1001 C1002 1.392 . S
C1001 C1005 1.495 . S
C1002 C1001 1.392 . S
C1002 C1003 1.385 . S
C1002 C1004 1.478 . S
C1003 H997 0.930 . S
C1003 C999 1.400 . S
C1003 C1002 1.385 . S
C1004 C1002 1.478 . S
C1004 C1006 1.381 . S
C1004 C1010 1.383 . S
C1005 C1001 1.495 . S
C1005 H1011 0.959 . S
C1005 H1012 0.961 . S
C1005 H1013 0.960 . S
C1006 C1004 1.381 . S
C1006 C1007 1.394 . S
C1006 H1014 0.930 . S
C1007 C1006 1.394 . S
C1007 C1008 1.383 . S
C1007 H1015 0.929 . S
C1008 C1007 1.383 . S
C1008 C1009 1.377 . S
C1009 H993 0.930 . S
C1009 C1008 1.377 . S
C1009 C1010 1.379 . S
C1010 H994 0.931 . S
C1010 C1004 1.383 . S
C1010 C1009 1.379 . S
H1011 C1005 0.959 . S
H1012 C1005 0.961 . S
H1013 C1005 0.960 . S
H1014 C1006 0.930 . S
H1015 C1007 0.929 . S
H1016 C1024 0.929 . S
H1017 C1026 0.930 . S
H1018 C1028 0.930 . S
H1019 C1031 0.929 . S
H1020 C1034 0.930 . S
H1021 C1036 0.960 . S
H1022 C1036 0.960 . S
H1023 C1036 0.960 . S
C1024 H1016 0.929 . S
C1024 C1025 1.377 . S
C1024 C1026 1.384 . S
C1025 C1024 1.377 . S
C1025 C1031 1.390 . S
C1026 H1017 0.930 . S
C1026 C1024 1.384 . S
C1026 C1027 1.372 . S
C1027 C1026 1.372 . S
C1027 C1028 1.400 . S
C1027 C1032 1.490 . S
C1028 H1018 0.930 . S
C1028 C1027 1.400 . S
C1028 C1031 1.386 . S
H1029 C1045 0.930 . S
H1030 C1046 0.931 . S
C1031 H1019 0.929 . S
C1031 C1025 1.390 . S
C1031 C1028 1.386 . S
C1032 C1027 1.490 . S
C1032 C1034 1.395 . S
C1032 C1035 1.403 . S
H1033 C1039 0.930 . S
C1034 H1020 0.930 . S
C1034 C1032 1.395 . S
C1034 C1037 1.403 . S
C1035 C1032 1.403 . S
C1035 C1036 1.524 . S
C1035 C1039 1.400 . S
C1036 H1021 0.960 . S
C1036 H1022 0.960 . S
C1036 H1023 0.960 . S
C1036 C1035 1.524 . S
C1037 C1034 1.403 . S
C1037 C1038 1.392 . S
C1037 C1041 1.495 . S
C1038 C1037 1.392 . S
C1038 C1039 1.385 . S
C1038 C1040 1.478 . S
C1039 H1033 0.930 . S
C1039 C1035 1.400 . S
C1039 C1038 1.385 . S
C1040 C1038 1.478 . S
C1040 C1042 1.381 . S
C1040 C1046 1.383 . S
C1041 C1037 1.495 . S
C1041 H1047 0.959 . S
C1041 H1048 0.961 . S
C1041 H1049 0.960 . S
C1042 C1040 1.381 . S
C1042 C1043 1.394 . S
C1042 H1050 0.930 . S
C1043 C1042 1.394 . S
C1043 C1044 1.383 . S
C1043 H1051 0.929 . S
C1044 C1043 1.383 . S
C1044 C1045 1.377 . S
C1045 H1029 0.930 . S
C1045 C1044 1.377 . S
C1045 C1046 1.379 . S
C1046 H1030 0.931 . S
C1046 C1040 1.383 . S
C1046 C1045 1.379 . S
H1047 C1041 0.959 . S
H1048 C1041 0.961 . S
H1049 C1041 0.960 . S
H1050 C1042 0.930 . S
H1051 C1043 0.929 . S
H1052 C1060 0.929 . S
H1053 C1062 0.930 . S
H1054 C1064 0.930 . S
H1055 C1067 0.929 . S
H1056 C1070 0.930 . S
H1057 C1072 0.960 . S
H1058 C1072 0.960 . S
H1059 C1072 0.960 . S
C1060 H1052 0.929 . S
C1060 C1061 1.377 . S
C1060 C1062 1.384 . S
C1061 C1060 1.377 . S
C1061 C1067 1.390 . S
C1062 H1053 0.930 . S
C1062 C1060 1.384 . S
C1062 C1063 1.372 . S
C1063 C1062 1.372 . S
C1063 C1064 1.400 . S
C1063 C1068 1.490 . S
C1064 H1054 0.930 . S
C1064 C1063 1.400 . S
C1064 C1067 1.386 . S
H1065 C1081 0.930 . S
H1066 C1082 0.931 . S
C1067 H1055 0.929 . S
C1067 C1061 1.390 . S
C1067 C1064 1.386 . S
C1068 C1063 1.490 . S
C1068 C1070 1.395 . S
C1068 C1071 1.403 . S
H1069 C1075 0.930 . S
C1070 H1056 0.930 . S
C1070 C1068 1.395 . S
C1070 C1073 1.403 . S
C1071 C1068 1.403 . S
C1071 C1072 1.524 . S
C1071 C1075 1.400 . S
C1072 H1057 0.960 . S
C1072 H1058 0.960 . S
C1072 H1059 0.960 . S
C1072 C1071 1.524 . S
C1073 C1070 1.403 . S
C1073 C1074 1.392 . S
C1073 C1077 1.495 . S
C1074 C1073 1.392 . S
C1074 C1075 1.385 . S
C1074 C1076 1.478 . S
C1075 H1069 0.930 . S
C1075 C1071 1.400 . S
C1075 C1074 1.385 . S
C1076 C1074 1.478 . S
C1076 C1078 1.381 . S
C1076 C1082 1.383 . S
C1077 C1073 1.495 . S
C1077 H1083 0.959 . S
C1077 H1084 0.961 . S
C1077 H1085 0.960 . S
C1078 C1076 1.381 . S
C1078 C1079 1.394 . S
C1078 H1086 0.930 . S
C1079 C1078 1.394 . S
C1079 C1080 1.383 . S
C1079 H1087 0.929 . S
C1080 C1079 1.383 . S
C1080 C1081 1.377 . S
C1081 H1065 0.930 . S
C1081 C1080 1.377 . S
C1081 C1082 1.379 . S
C1082 H1066 0.931 . S
C1082 C1076 1.383 . S
C1082 C1081 1.379 . S
H1083 C1077 0.959 . S
H1084 C1077 0.961 . S
H1085 C1077 0.960 . S
H1086 C1078 0.930 . S
H1087 C1079 0.929 . S
C233 C9 2.629 . S
C252 C120 2.635 . S
C269 C21 1.041 . S
C288 N140 1.047 . S
C324 C174 1.586 . S
C305 C30 1.561 . S
C341 C43 0.965 . S
C360 N208 0.973 1_655 S
C396 C161 2.264 . S
C377 C4 2.242 . S
C432 N118 1.647 . S
C413 C22 1.708 . S
C468 C195 1.539 . S
C449 C34 1.541 . S
C504 N170 0.785 . S
C485 C48 0.807 . S
C521 C8 1.879 . S
C540 C210 1.884 . S
C576 C144 1.738 . S
C557 C35 1.726 . S
C593 C47 1.486 . S
C612 C105 1.491 1_655 S
C629 C17 1.150 . S
C648 C191 1.167 . S
C684 C131 2.185 1_655 S
C665 C60 2.169 . S
C701 C74 1.383 . S
C720 N148 1.337 . S
C737 C82 1.325 . S
C756 C165 1.331 . S
C773 C100 1.558 . S
C792 N200 1.525 . S
C809 C61 2.702 . S
C828 C150 2.719 . S
C864 N110 1.179 . S
C845 C73 1.229 . S
C900 C204 1.989 . S
C881 C87 1.989 . S
C936 N178 0.620 . S
C917 C95 0.596 . S
C953 C56 1.854 . S
C972 C221 1.926 1_556 S
C1008 C135 1.742 . S
C989 C86 1.733 . S
C1044 C114 1.394 . S
C1025 C99 1.385 . S
C1061 C69 1.285 . S
C1080 C180 1.307 . S
