# Generated by pormake.
# Topology ptr, (4,4)-cn, num edge types: 1
# Building blocks:
#     Node 0, Type 0, BuildingBlock: UXUYUI_clean_sbu_0, # of connection points: 4
#     Node 1, Type 0, BuildingBlock: UXUYUI_clean_sbu_0, # of connection points: 4
#     Node 2, Type 0, BuildingBlock: UXUYUI_clean_sbu_0, # of connection points: 4
#     Node 3, Type 0, BuildingBlock: UXUYUI_clean_sbu_0, # of connection points: 4
#     Node 4, Type 0, BuildingBlock: UXUYUI_clean_sbu_0, # of connection points: 4
#     Node 5, Type 0, BuildingBlock: UXUYUI_clean_sbu_0, # of connection points: 4
#     Node 6, Type 0, BuildingBlock: UXUYUI_clean_sbu_0, # of connection points: 4
#     Node 7, Type 0, BuildingBlock: UXUYUI_clean_sbu_0, # of connection points: 4
#     Node 8, Type 0, BuildingBlock: UXUYUI_clean_sbu_0, # of connection points: 4
#     Node 9, Type 0, BuildingBlock: UXUYUI_clean_sbu_0, # of connection points: 4
#     Node 10, Type 0, BuildingBlock: UXUYUI_clean_sbu_0, # of connection points: 4
#     Node 11, Type 0, BuildingBlock: UXUYUI_clean_sbu_0, # of connection points: 4
#     Node 12, Type 0, BuildingBlock: UXUYUI_clean_sbu_0, # of connection points: 4
#     Node 13, Type 0, BuildingBlock: UXUYUI_clean_sbu_0, # of connection points: 4
#     Node 14, Type 0, BuildingBlock: UXUYUI_clean_sbu_0, # of connection points: 4
#     Node 15, Type 0, BuildingBlock: UXUYUI_clean_sbu_0, # of connection points: 4
#     Node 16, Type 0, BuildingBlock: UXUYUI_clean_sbu_0, # of connection points: 4
#     Node 17, Type 0, BuildingBlock: UXUYUI_clean_sbu_0, # of connection points: 4
#     Node 18, Type 1, BuildingBlock: GIZVER_clean_linker_0, # of connection points: 4
#     Node 19, Type 1, BuildingBlock: GIZVER_clean_linker_0, # of connection points: 4
#     Node 20, Type 1, BuildingBlock: GIZVER_clean_linker_0, # of connection points: 4
#     Node 21, Type 1, BuildingBlock: GIZVER_clean_linker_0, # of connection points: 4
#     Node 22, Type 1, BuildingBlock: GIZVER_clean_linker_0, # of connection points: 4
#     Node 23, Type 1, BuildingBlock: GIZVER_clean_linker_0, # of connection points: 4
#     Node 24, Type 1, BuildingBlock: GIZVER_clean_linker_0, # of connection points: 4
#     Node 25, Type 1, BuildingBlock: GIZVER_clean_linker_0, # of connection points: 4
#     Node 26, Type 1, BuildingBlock: GIZVER_clean_linker_0, # of connection points: 4
#     Node 27, Type 1, BuildingBlock: GIZVER_clean_linker_0, # of connection points: 4
#     Node 28, Type 1, BuildingBlock: GIZVER_clean_linker_0, # of connection points: 4
#     Node 29, Type 1, BuildingBlock: GIZVER_clean_linker_0, # of connection points: 4
#     Node 30, Type 1, BuildingBlock: GIZVER_clean_linker_0, # of connection points: 4
#     Node 31, Type 1, BuildingBlock: GIZVER_clean_linker_0, # of connection points: 4
#     Node 32, Type 1, BuildingBlock: GIZVER_clean_linker_0, # of connection points: 4
#     Node 33, Type 1, BuildingBlock: GIZVER_clean_linker_0, # of connection points: 4
#     Node 34, Type 1, BuildingBlock: GIZVER_clean_linker_0, # of connection points: 4
#     Node 35, Type 1, BuildingBlock: GIZVER_clean_linker_0, # of connection points: 4
#     Edge 36, Type (0, 1), BuildingBlock: UVAHIK_clean_linker_0, # of connection points: 2
#     Edge 37, Type (0, 1), BuildingBlock: UVAHIK_clean_linker_0, # of connection points: 2
#     Edge 38, Type (0, 1), BuildingBlock: UVAHIK_clean_linker_0, # of connection points: 2
#     Edge 39, Type (0, 1), BuildingBlock: UVAHIK_clean_linker_0, # of connection points: 2
#     Edge 40, Type (0, 1), BuildingBlock: UVAHIK_clean_linker_0, # of connection points: 2
#     Edge 41, Type (0, 1), BuildingBlock: UVAHIK_clean_linker_0, # of connection points: 2
#     Edge 42, Type (0, 1), BuildingBlock: UVAHIK_clean_linker_0, # of connection points: 2
#     Edge 43, Type (0, 1), BuildingBlock: UVAHIK_clean_linker_0, # of connection points: 2
#     Edge 44, Type (0, 1), BuildingBlock: UVAHIK_clean_linker_0, # of connection points: 2
#     Edge 45, Type (0, 1), BuildingBlock: UVAHIK_clean_linker_0, # of connection points: 2
#     Edge 46, Type (0, 1), BuildingBlock: UVAHIK_clean_linker_0, # of connection points: 2
#     Edge 47, Type (0, 1), BuildingBlock: UVAHIK_clean_linker_0, # of connection points: 2
#     Edge 48, Type (0, 1), BuildingBlock: UVAHIK_clean_linker_0, # of connection points: 2
#     Edge 49, Type (0, 1), BuildingBlock: UVAHIK_clean_linker_0, # of connection points: 2
#     Edge 50, Type (0, 1), BuildingBlock: UVAHIK_clean_linker_0, # of connection points: 2
#     Edge 51, Type (0, 1), BuildingBlock: UVAHIK_clean_linker_0, # of connection points: 2
#     Edge 52, Type (0, 1), BuildingBlock: UVAHIK_clean_linker_0, # of connection points: 2
#     Edge 53, Type (0, 1), BuildingBlock: UVAHIK_clean_linker_0, # of connection points: 2
#     Edge 54, Type (0, 1), BuildingBlock: UVAHIK_clean_linker_0, # of connection points: 2
#     Edge 55, Type (0, 1), BuildingBlock: UVAHIK_clean_linker_0, # of connection points: 2
#     Edge 56, Type (0, 1), BuildingBlock: UVAHIK_clean_linker_0, # of connection points: 2
#     Edge 57, Type (0, 1), BuildingBlock: UVAHIK_clean_linker_0, # of connection points: 2
#     Edge 58, Type (0, 1), BuildingBlock: UVAHIK_clean_linker_0, # of connection points: 2
#     Edge 59, Type (0, 1), BuildingBlock: UVAHIK_clean_linker_0, # of connection points: 2
#     Edge 60, Type (0, 1), BuildingBlock: UVAHIK_clean_linker_0, # of connection points: 2
#     Edge 61, Type (0, 1), BuildingBlock: UVAHIK_clean_linker_0, # of connection points: 2
#     Edge 62, Type (0, 1), BuildingBlock: UVAHIK_clean_linker_0, # of connection points: 2
#     Edge 63, Type (0, 1), BuildingBlock: UVAHIK_clean_linker_0, # of connection points: 2
#     Edge 64, Type (0, 1), BuildingBlock: UVAHIK_clean_linker_0, # of connection points: 2
#     Edge 65, Type (0, 1), BuildingBlock: UVAHIK_clean_linker_0, # of connection points: 2
#     Edge 66, Type (0, 1), BuildingBlock: UVAHIK_clean_linker_0, # of connection points: 2
#     Edge 67, Type (0, 1), BuildingBlock: UVAHIK_clean_linker_0, # of connection points: 2
#     Edge 68, Type (0, 1), BuildingBlock: UVAHIK_clean_linker_0, # of connection points: 2
#     Edge 69, Type (0, 1), BuildingBlock: UVAHIK_clean_linker_0, # of connection points: 2
#     Edge 70, Type (0, 1), BuildingBlock: UVAHIK_clean_linker_0, # of connection points: 2
#     Edge 71, Type (0, 1), BuildingBlock: UVAHIK_clean_linker_0, # of connection points: 2
#     Edge 72, Type (0, 1), BuildingBlock: UVAHIK_clean_linker_0, # of connection points: 2
#     Edge 73, Type (0, 1), BuildingBlock: UVAHIK_clean_linker_0, # of connection points: 2
#     Edge 74, Type (0, 1), BuildingBlock: UVAHIK_clean_linker_0, # of connection points: 2
#     Edge 75, Type (0, 1), BuildingBlock: UVAHIK_clean_linker_0, # of connection points: 2
#     Edge 76, Type (0, 1), BuildingBlock: UVAHIK_clean_linker_0, # of connection points: 2
#     Edge 77, Type (0, 1), BuildingBlock: UVAHIK_clean_linker_0, # of connection points: 2
#     Edge 78, Type (0, 1), BuildingBlock: UVAHIK_clean_linker_0, # of connection points: 2
#     Edge 79, Type (0, 1), BuildingBlock: UVAHIK_clean_linker_0, # of connection points: 2
#     Edge 80, Type (0, 1), BuildingBlock: UVAHIK_clean_linker_0, # of connection points: 2
#     Edge 81, Type (0, 1), BuildingBlock: UVAHIK_clean_linker_0, # of connection points: 2
#     Edge 82, Type (0, 1), BuildingBlock: UVAHIK_clean_linker_0, # of connection points: 2
#     Edge 83, Type (0, 1), BuildingBlock: UVAHIK_clean_linker_0, # of connection points: 2
#     Edge 84, Type (0, 1), BuildingBlock: UVAHIK_clean_linker_0, # of connection points: 2
#     Edge 85, Type (0, 1), BuildingBlock: UVAHIK_clean_linker_0, # of connection points: 2
#     Edge 86, Type (0, 1), BuildingBlock: UVAHIK_clean_linker_0, # of connection points: 2
#     Edge 87, Type (0, 1), BuildingBlock: UVAHIK_clean_linker_0, # of connection points: 2
#     Edge 88, Type (0, 1), BuildingBlock: UVAHIK_clean_linker_0, # of connection points: 2
#     Edge 89, Type (0, 1), BuildingBlock: UVAHIK_clean_linker_0, # of connection points: 2
#     Edge 90, Type (0, 1), BuildingBlock: UVAHIK_clean_linker_0, # of connection points: 2
#     Edge 91, Type (0, 1), BuildingBlock: UVAHIK_clean_linker_0, # of connection points: 2
#     Edge 92, Type (0, 1), BuildingBlock: UVAHIK_clean_linker_0, # of connection points: 2
#     Edge 93, Type (0, 1), BuildingBlock: UVAHIK_clean_linker_0, # of connection points: 2
#     Edge 94, Type (0, 1), BuildingBlock: UVAHIK_clean_linker_0, # of connection points: 2
#     Edge 95, Type (0, 1), BuildingBlock: UVAHIK_clean_linker_0, # of connection points: 2
#     Edge 96, Type (0, 1), BuildingBlock: UVAHIK_clean_linker_0, # of connection points: 2
#     Edge 97, Type (0, 1), BuildingBlock: UVAHIK_clean_linker_0, # of connection points: 2
#     Edge 98, Type (0, 1), BuildingBlock: UVAHIK_clean_linker_0, # of connection points: 2
#     Edge 99, Type (0, 1), BuildingBlock: UVAHIK_clean_linker_0, # of connection points: 2
#     Edge 100, Type (0, 1), BuildingBlock: UVAHIK_clean_linker_0, # of connection points: 2
#     Edge 101, Type (0, 1), BuildingBlock: UVAHIK_clean_linker_0, # of connection points: 2
#     Edge 102, Type (0, 1), BuildingBlock: UVAHIK_clean_linker_0, # of connection points: 2
#     Edge 103, Type (0, 1), BuildingBlock: UVAHIK_clean_linker_0, # of connection points: 2
#     Edge 104, Type (0, 1), BuildingBlock: UVAHIK_clean_linker_0, # of connection points: 2
#     Edge 105, Type (0, 1), BuildingBlock: UVAHIK_clean_linker_0, # of connection points: 2
#     Edge 106, Type (0, 1), BuildingBlock: UVAHIK_clean_linker_0, # of connection points: 2
#     Edge 107, Type (0, 1), BuildingBlock: UVAHIK_clean_linker_0, # of connection points: 2
# Relax obj value: 0.092
# Max RMSD: 0.230
# Mean RMSD: 0.120
data_MOF--net-ptr--node1-UXUYUI_clean_sbu_0--node2-GIZVER_clean_linker_0--edge1-UVAHIK_clean_linker_0
_symmetry_space_group_name_H-M    P1
_symmetry_Int_Tables_number       1
_symmetry_cell_setting            triclinic
loop_
_symmetry_equiv_pos_as_xyz
'x, y, z'
_cell_length_a     121.61556
_cell_length_b     121.65893
_cell_length_c     68.965501
_cell_angle_alpha  90.177393
_cell_angle_beta   90.207556
_cell_angle_gamma 120.06407
loop_
_atom_site_label
_atom_site_type_symbol
_atom_site_fract_x
_atom_site_fract_y
_atom_site_fract_z
_atom_type_partial_charge
Li0 Li 0.99331 0.35121 0.01077 0.0
Li1 Li 0.01563 0.36286 0.01393 0.0
Li2 Li 0.00223 0.37138 0.02621 0.0
Li3 Li 0.00485 0.37037 0.99057 0.0
C4 C 0.99754 0.34699 0.0482 0.0
N5 N 0.98559 0.3271 0.07392 0.0
C6 C 0.00353 0.34032 0.05426 0.0
C7 C 0.98551 0.34359 0.05534 0.0
C8 C 0.99732 0.33028 0.06725 0.0
C9 C 0.97961 0.33349 0.06828 0.0
C10 C 0.00118 0.3429 0.9818 0.0
C11 C 0.98653 0.3268 0.95963 0.0
N12 N 0.99015 0.31862 0.96652 0.0
C13 C 0.00478 0.33435 0.98865 0.0
C14 C 0.99202 0.33912 0.96713 0.0
C15 C 0.99909 0.32212 0.98073 0.0
C16 C 0.96806 0.33209 0.00152 0.0
N17 N 0.97901 0.33418 0.01016 0.0
C18 C 0.96999 0.31199 0.01632 0.0
C19 C 0.98015 0.3244 0.01733 0.0
C20 C 0.95858 0.30943 0.00719 0.0
C21 C 0.95772 0.31974 -0.00025 0.0
H22 H 0.96746 0.33998 0.99555 0.0
H23 H 0.98904 0.32617 0.02354 0.0
C24 C 0.03593 0.36476 0.03634 0.0
N25 N 0.03083 0.36235 0.01821 0.0
C26 C 0.04687 0.36411 0.04016 0.0
C27 C 0.04719 0.35867 0.0065 0.0
C28 C 0.03631 0.35955 0.0033 0.0
C29 C 0.05255 0.36083 0.02521 0.0
H30 H 0.03144 0.3671 0.04787 0.0
H31 H 0.0321 0.35781 0.98897 0.0
C32 C 0.98158 0.36952 0.01002 0.0
N33 N 0.96721 0.38036 0.02054 0.0
C34 C 0.98423 0.38118 0.00221 0.0
C35 C 0.97153 0.3633 0.02298 0.0
C36 C 0.97688 0.38653 0.00776 0.0
C37 C 0.9644 0.36896 0.02817 0.0
C38 C 0.03039 0.3877 0.01522 0.0
C39 C 0.03408 0.39213 0.0342 0.0
C40 C 0.03963 0.3904 0.00115 0.0
C41 C 0.04701 0.39922 0.03878 0.0
C42 C 0.05246 0.3975 0.00633 0.0
N43 N 0.05585 0.40173 0.02488 0.0
C44 C 0.99564 0.37848 0.0624 0.0
C45 C 0.00501 0.39437 0.03834 0.0
C46 C 0.9946 0.38698 0.07491 0.0
N47 N 1.00074 0.38231 0.04449 0.0
C48 C 0.00416 0.40316 0.05031 0.0
C49 C 0.99891 0.39952 0.0689 0.0
H50 H 0.99243 0.36888 0.06704 0.0
H51 H 0.00902 0.39713 0.02399 0.0
C52 C 0.99744 0.37491 0.95332 0.0
N53 N 0.00619 0.37978 0.96788 0.0
C54 C 0.99769 0.38275 0.93832 0.0
C55 C 0.01596 0.40038 0.95358 0.0
C56 C 0.01539 0.39222 0.96817 0.0
C57 C 0.00694 0.39574 0.93849 0.0
H58 H 0.99 0.36507 0.95372 0.0
H59 H 0.02196 0.39597 0.98023 0.0
O60 O 0.00349 0.35684 0.0355 0.0
O61 O 0.00643 0.35482 0.98967 0.0
O62 O 0.98887 0.36429 0.00515 0.0
O63 O 0.01779 0.38041 0.01058 0.0
H64 H 0.01282 0.34278 0.04884 0.0
H65 H 0.98073 0.3486 0.05075 0.0
H66 H 0.00182 0.32501 0.07199 0.0
H67 H 0.97027 0.33071 0.07382 0.0
H68 H 0.97936 0.32372 0.94836 0.0
H69 H 0.01171 0.33704 0.00021 0.0
H70 H 0.98905 0.34558 0.96178 0.0
H71 H 0.00172 0.31537 0.98598 0.0
H72 H 0.97117 0.30449 0.02257 0.0
H73 H 0.9493 0.31832 0.99217 0.0
H74 H 0.0508 0.36615 0.0547 0.0
H75 H 0.05115 0.35601 0.99456 0.0
H76 H 0.99199 0.38615 0.99219 0.0
H77 H 0.96925 0.3542 0.02897 0.0
H78 H 0.97889 0.39559 0.00195 0.0
H79 H 0.95663 0.36428 0.03827 0.0
H80 H 0.02705 0.38998 0.04532 0.0
H81 H 0.03692 0.3869 0.98645 0.0
H82 H 0.05001 0.40267 0.05342 0.0
H83 H 0.05972 0.39961 0.99562 0.0
H84 H 0.99067 0.38383 0.08922 0.0
H85 H 0.00745 0.41266 0.04498 0.0
H86 H 0.99059 0.37872 0.92693 0.0
H87 H 0.02307 0.41035 0.95464 0.0
Li88 Li 0.64916 0.64014 0.01182 0.0
Li89 Li 0.63766 0.65167 0.01594 0.0
Li90 Li 0.62978 0.6306 0.03047 0.0
Li91 Li 0.62861 0.63311 0.99565 0.0
C92 C 0.65697 0.65184 0.0461 0.0
N93 N 0.68035 0.66276 0.06448 0.0
C94 C 0.6643 0.66504 0.04799 0.0
C95 C 0.66149 0.64419 0.05366 0.0
C96 C 0.6761 0.67038 0.05733 0.0
C97 C 0.67335 0.64989 0.06285 0.0
C98 C 0.64534 0.64937 0.97221 0.0
C99 C 0.63781 0.65228 0.94132 0.0
N100 N 0.64528 0.64853 0.93218 0.0
C101 C 0.65297 0.64558 0.96252 0.0
C102 C 0.63772 0.6528 0.96155 0.0
C103 C 0.6528 0.64521 0.94226 0.0
C104 C 0.6669 0.63192 0.00463 0.0
N105 N 0.66566 0.64217 0.0088 0.0
C106 C 0.68816 0.65595 0.00735 0.0
C107 C 0.67596 0.65406 0.00995 0.0
C108 C 0.68972 0.64556 0.00291 0.0
C109 C 0.67892 0.63342 0.00152 0.0
H110 H 0.65854 0.62262 0.00332 0.0
H111 H 0.67467 0.6621 0.01265 0.0
C112 C 0.6372 0.67142 0.03703 0.0
N113 N 0.63979 0.66817 0.01948 0.0
C114 C 0.6387 0.68345 0.03998 0.0
C115 C 0.6458 0.68869 0.00686 0.0
C116 C 0.64405 0.67651 0.00451 0.0
C117 C 0.64313 0.69233 0.02481 0.0
H118 H 0.63398 0.66465 0.04876 0.0
H119 H 0.64622 0.67375 0.99079 0.0
C120 C 0.62926 0.6106 0.01527 0.0
N121 N 0.61763 0.58602 0.02906 0.0
C122 C 0.61691 0.60176 0.00934 0.0
C123 C 0.63572 0.60692 0.02813 0.0
C124 C 0.61119 0.58939 0.01649 0.0
C125 C 0.62967 0.59446 0.03496 0.0
C126 C 0.61343 0.64295 0.02127 0.0
C127 C 0.60947 0.64245 0.04041 0.0
C128 C 0.6111 0.65 0.00758 0.0
C129 C 0.60324 0.64904 0.04555 0.0
C130 C 0.60487 0.65648 0.01331 0.0
N131 N 0.6011 0.65587 0.03201 0.0
C132 C 0.62614 0.61748 0.06658 0.0
C133 C 0.60772 0.61191 0.04777 0.0
C134 C 0.61896 0.60793 0.07992 0.0
N135 N 0.62044 0.61917 0.05079 0.0
C136 C 0.60018 0.60233 0.06076 0.0
C137 C 0.6058 0.6001 0.07698 0.0
H138 H 0.63629 0.6233 0.06855 0.0
H139 H 0.60346 0.61339 0.03498 0.0
C140 C 0.62215 0.61794 0.96197 0.0
N141 N 0.6184 0.62443 0.9737 0.0
C142 C 0.61403 0.60993 0.94746 0.0
C143 C 0.59847 0.61568 0.95711 0.0
C144 C 0.60689 0.62356 0.97144 0.0
C145 C 0.6019 0.60853 0.94512 0.0
H146 H 0.63124 0.61858 0.96443 0.0
H147 H 0.60404 0.62862 0.98122 0.0
O148 O 0.64544 0.64645 0.03688 0.0
O149 O 0.64516 0.64955 0.99203 0.0
O150 O 0.63487 0.62287 0.00894 0.0
O151 O 0.61975 0.63675 0.01602 0.0
H152 H 0.66098 0.67111 0.04218 0.0
H153 H 0.65603 0.63398 0.0521 0.0
H154 H 0.6819 0.68058 0.05883 0.0
H155 H 0.67701 0.64409 0.06862 0.0
H156 H 0.63191 0.65483 0.93289 0.0
H157 H 0.65889 0.64286 0.97052 0.0
H158 H 0.63169 0.65567 0.96884 0.0
H159 H 0.65863 0.64225 0.93456 0.0
H160 H 0.69626 0.66549 0.00814 0.0
H161 H 0.67977 0.6252 0.99798 0.0
H162 H 0.63636 0.68573 0.054 0.0
H163 H 0.64943 0.69526 0.99485 0.0
H164 H 0.6117 0.60447 -0.00042 0.0
H165 H 0.64524 0.61367 0.03301 0.0
H166 H 0.6016 0.58248 0.01213 0.0
H167 H 0.63452 0.5915 0.04502 0.0
H168 H 0.61133 0.63717 0.05125 0.0
H169 H 0.61423 0.65062 0.99276 0.0
H170 H 0.60017 0.64878 0.06032 0.0
H171 H 0.60307 0.66204 0.0029 0.0
H172 H 0.62374 0.60648 0.09209 0.0
H173 H 0.59006 0.59672 0.05805 0.0
H174 H 0.617 0.60446 0.93877 0.0
H175 H 0.58928 0.615 0.95569 0.0
Li176 Li 0.36413 0.9984 0.98787 0.0
Li177 Li 0.36299 0.99972 0.0229 0.0
Li178 Li 0.34357 0.98736 0.00329 0.0
Li179 Li 0.35524 0.01061 0.00301 0.0
C180 C 0.3634 0.97773 0.00055 0.0
N181 N 0.37542 0.96528 0.98621 0.0
C182 C 0.37522 0.98048 0.008 0.0
C183 C 0.35765 0.96859 0.98592 0.0
C184 C 0.38115 0.97409 0.00054 0.0
C185 C 0.3639 0.96242 0.97883 0.0
C186 C 0.37985 0.02637 0.00191 0.0
C187 C 0.38794 0.04786 0.01322 0.0
N188 N 0.39327 0.05225 0.99557 0.0
C189 C 0.38542 0.03109 0.98389 0.0
C190 C 0.38114 0.03481 0.01672 0.0
C191 C 0.39217 0.04421 0.98098 0.0
C192 C 0.37059 0.99248 0.95068 0.0
N193 N 0.37489 0.99783 0.96844 0.0
C194 C 0.3958 0.00196 0.96117 0.0
C195 C 0.38722 0.00257 0.97381 0.0
C196 C 0.39167 0.99636 0.94277 0.0
C197 C 0.37887 0.99164 0.93753 0.0
H198 H 0.36073 0.98872 0.94681 0.0
H199 H 0.39034 0.00674 0.98808 0.0
C200 C 0.36772 0.98924 0.05635 0.0
N201 N 0.37197 0.99997 0.04566 0.0
C202 C 0.37531 0.98865 0.07109 0.0
C203 C 0.39137 0.01024 0.06378 0.0
C204 C 0.38347 0.01041 0.04921 0.0
C205 C 0.38743 0.99917 0.0747 0.0
H206 H 0.35865 0.98097 0.05289 0.0
H207 H 0.38679 0.01868 0.04014 0.0
C208 C 0.33838 0.99378 0.96847 0.0
N209 N 0.31688 0.98303 0.9453 0.0
C210 C 0.33136 0.99993 0.96603 0.0
C211 C 0.33452 0.98222 0.95902 0.0
C212 C 0.32051 0.99433 0.95427 0.0
C213 C 0.3236 0.97692 0.94742 0.0
C214 C 0.34485 0.99789 0.04454 0.0
C215 C 0.33683 0.98589 0.05234 0.0
C216 C 0.3516 0.00831 0.05691 0.0
C217 C 0.33574 0.98451 0.07246 0.0
C218 C 0.35026 0.00653 0.07695 0.0
N219 N 0.34243 0.99476 0.08424 0.0
C220 C 0.32511 0.96115 0.00677 0.0
C221 C 0.31688 0.97476 0.00027 0.0
C222 C 0.31283 0.9507 0.00799 0.0
N223 N 0.32689 0.97289 0.00303 0.0
C224 C 0.30447 0.96456 0.00085 0.0
C225 C 0.30224 0.9523 0.00513 0.0
H226 H 0.33323 0.95997 0.0094 0.0
H227 H 0.31854 0.98424 0.99785 0.0
C228 C 0.35763 0.03273 0.98528 0.0
N229 N 0.35313 0.02508 0.00104 0.0
C230 C 0.35612 0.04334 0.98371 0.0
C231 C 0.34492 0.0377 0.01421 0.0
C232 C 0.34683 0.02732 0.01535 0.0
C233 C 0.34966 0.04589 0.99827 0.0
H234 H 0.36231 0.03054 0.97387 0.0
H235 H 0.3432 0.02098 0.02759 0.0
O236 O 0.35762 0.98416 0.00724 0.0
O237 O 0.37305 0.01355 0.00498 0.0
O238 O 0.34898 0.99908 0.98003 0.0
O239 O 0.34626 0.9994 0.0249 0.0
H240 H 0.37986 0.9876 0.01921 0.0
H241 H 0.34852 0.96638 0.97997 0.0
H242 H 0.39034 0.97618 0.00606 0.0
H243 H 0.3596 0.95538 0.96742 0.0
H244 H 0.38894 0.0545 0.02451 0.0
H245 H 0.38442 0.02471 0.97219 0.0
H246 H 0.37679 0.03132 0.0307 0.0
H247 H 0.39649 0.048 0.96708 0.0
H248 H 0.4056 0.00592 0.96572 0.0
H249 H 0.37524 0.98714 0.92357 0.0
H250 H 0.37186 0.97996 0.07926 0.0
H251 H 0.40071 0.01849 0.0658 0.0
H252 H 0.33421 0.00887 0.97324 0.0
H253 H 0.33978 0.9773 0.96087 0.0
H254 H 0.31496 0.99894 0.95231 0.0
H255 H 0.32045 0.96793 0.94014 0.0
H256 H 0.33158 0.97772 0.04298 0.0
H257 H 0.35788 0.01764 0.05109 0.0
H258 H 0.3296 0.97527 0.07871 0.0
H259 H 0.35547 0.01449 0.0867 0.0
H260 H 0.31169 0.94156 0.01179 0.0
H261 H 0.29673 0.96634 0.99819 0.0
H262 H 0.35972 0.04933 0.97103 0.0
H263 H 0.33988 0.03937 0.02572 0.0
Li264 Li 0.01384 0.6569 0.00151 0.0
Li265 Li 0.00117 0.63731 0.02176 0.0
Li266 Li 0.00187 0.63572 0.98718 0.0
Li267 Li 0.9898 0.64417 0.00139 0.0
C268 C 0.02344 0.63735 -0.00038 0.0
N269 N 0.03705 0.62639 0.98592 0.0
C270 C 0.02019 0.62507 0.00529 0.0
C271 C 0.03367 0.6441 0.98713 0.0
C272 C 0.02717 0.61968 0.99815 0.0
C273 C 0.04042 0.63839 0.98034 0.0
C274 C 0.00306 0.65583 0.04277 0.0
C275 C 0.99445 0.65124 0.0751 0.0
N276 N 0.00627 0.65897 0.08248 0.0
C277 C 0.01512 0.66379 0.05067 0.0
C278 C 0.99262 0.64955 0.05506 0.0
C279 C 0.01655 0.66524 0.07079 0.0
C280 C 0.02713 0.68287 0.99218 0.0
N281 N 0.02832 0.67339 0.00044 0.0
C282 C 0.04993 0.68789 0.00897 0.0
C283 C 0.03944 0.67561 0.00857 0.0
C284 C 0.04899 0.69798 0.00077 0.0
C285 C 0.03742 0.69527 0.99203 0.0
H286 H 0.01814 0.68079 0.98584 0.0
H287 H 0.04005 0.66789 0.01522 0.0
C288 C 0.99153 0.61765 0.04934 0.0
N289 N 0.00175 0.62905 0.04476 0.0
C290 C 0.9924 0.6103 0.06408 0.0
C291 C 0.01426 0.62663 0.06934 0.0
C292 C 0.01295 0.6337 0.05452 0.0
C293 C 0.00396 0.61463 0.07402 0.0
H294 H 0.98289 0.61395 0.04093 0.0
H295 H 0.02102 0.64264 0.05022 0.0
C296 C 0.00275 0.65124 0.95942 0.0
N297 N 0.0047 0.6508 0.91955 0.0
C298 C 0.9926 0.64212 0.94836 0.0
C299 C 0.01389 0.66017 0.9502 0.0
C300 C 0.99377 0.64204 0.92823 0.0
C301 C 0.01468 0.65979 0.93003 0.0
C302 C 0.97405 0.61978 0.00281 0.0
C303 C 0.96815 0.61337 0.98561 0.0
C304 C 0.96659 0.61923 0.01856 0.0
C305 C 0.95489 0.60655 0.98448 0.0
C306 C 0.95337 0.61235 0.01684 0.0
N307 N 0.94784 0.6062 -3e-05 0.0
C308 C 0.99598 0.61213 0.97182 0.0
C309 C 0.01145 0.6292 0.95326 0.0
C310 C 0.99697 0.60335 0.96001 0.0
N311 N 0.00303 0.62477 0.96816 0.0
C312 C 0.0128 0.62074 0.94111 0.0
C313 C 0.00549 0.60762 0.94444 0.0
H314 H 0.98985 0.60885 0.98432 0.0
H315 H 0.01742 0.63929 0.95115 0.0
C316 C 0.97356 0.65333 0.0134 0.0
N317 N 0.97518 0.64619 -0.0003 0.0
C318 C 0.96286 0.65476 0.01289 0.0
C319 C 0.95566 0.64146 0.98423 0.0
C320 C 0.96662 0.64052 0.98504 0.0
C321 C 0.95369 0.64863 0.9983 0.0
H322 H 0.98059 0.65791 0.02474 0.0
H323 H 0.96821 0.63516 0.97406 0.0
O324 O 0.01651 0.64265 0.00601 0.0
O325 O 0.00152 0.65406 0.02313 0.0
O326 O 0.00177 0.65151 0.97915 0.0
O327 O 0.98704 0.62661 0.00417 0.0
H328 H 0.01225 0.6197 0.01488 0.0
H329 H 0.03624 0.65359 0.98253 0.0
H330 H 0.02471 0.61015 0.00228 0.0
H331 H 0.04831 0.64346 0.97055 0.0
H332 H 0.98646 0.64639 0.08477 0.0
H333 H 0.0233 0.66872 0.04141 0.0
H334 H 0.98322 0.6434 0.0492 0.0
H335 H 0.02584 0.67132 0.07711 0.0
H336 H 0.05853 0.6895 0.0162 0.0
H337 H 0.03627 0.70265 0.98527 0.0
H338 H 0.9843 0.60101 0.06694 0.0
H339 H 0.02332 0.63036 0.07672 0.0
H340 H 0.98398 0.63505 0.95525 0.0
H341 H 0.02187 0.66724 0.95852 0.0
H342 H 0.98602 0.63498 0.9195 0.0
H343 H 0.02325 0.66661 0.92271 0.0
H344 H 0.9737 0.61381 0.97313 0.0
H345 H 0.97096 0.62418 0.03193 0.0
H346 H 0.95021 0.60161 0.97123 0.0
H347 H 0.9475 0.61192 0.02889 0.0
H348 H 0.99139 0.59334 0.96339 0.0
H349 H 0.01952 0.62443 0.92931 0.0
H350 H 0.96165 0.66042 0.02392 0.0
H351 H 0.94888 0.63678 0.97257 0.0
Li352 Li 0.35226 0.36621 0.01275 0.0
Li353 Li 0.37303 0.37298 0.02753 0.0
Li354 Li 0.37139 0.37528 0.99232 0.0
Li355 Li 0.36374 0.35455 0.00689 0.0
C356 C 0.36452 0.39237 0.00653 0.0
N357 N 0.35912 0.41015 0.9914 0.0
C358 C 0.37007 0.40453 0.01464 0.0
C359 C 0.35624 0.38923 0.99071 0.0
C360 C 0.36721 0.41339 0.00679 0.0
C361 C 0.35363 0.39836 0.98328 0.0
C362 C 0.35619 0.3553 0.05115 0.0
C363 C 0.36165 0.34817 0.08031 0.0
N364 N 0.35527 0.35258 0.09097 0.0
C365 C 0.34957 0.35963 0.06237 0.0
C366 C 0.36218 0.3494 0.06016 0.0
C367 C 0.34925 0.35821 0.08249 0.0
C368 C 0.32577 0.35443 0.00807 0.0
N369 N 0.33601 0.36462 0.01622 0.0
C370 C 0.3228 0.37218 0.02917 0.0
C371 C 0.33477 0.37344 0.02662 0.0
C372 C 0.31204 0.36177 0.02086 0.0
C373 C 0.31364 0.35284 0.01013 0.0
H374 H 0.32703 0.34747 0.00015 0.0
H375 H 0.34307 0.38141 0.03306 0.0
C376 C 0.39603 0.38387 0.04836 0.0
N377 N 0.38387 0.38149 0.04913 0.0
C378 C 0.40476 0.39109 0.06279 0.0
C379 C 0.38833 0.39336 0.07867 0.0
C380 C 0.37991 0.38612 0.06382 0.0
C381 C 0.401 0.39603 0.07818 0.0
H382 H 0.39914 0.38057 0.03619 0.0
H383 H 0.37032 0.38449 0.06376 0.0
C384 C 0.35373 0.35371 0.97003 0.0
N385 N 0.35167 0.34166 0.93503 0.0
C386 C 0.36462 0.35569 0.96031 0.0
C387 C 0.34177 0.34562 0.9619 0.0
C388 C 0.3634 0.34951 0.94266 0.0
C389 C 0.34093 0.33961 0.94421 0.0
C390 C 0.3894 0.36439 0.00414 0.0
C391 C 0.39669 0.36695 0.98736 0.0
C392 C 0.3904 0.357 0.01875 0.0
C393 C 0.40468 0.36185 0.98534 0.0
C394 C 0.39849 0.35207 0.01619 0.0
N395 N 0.40539 0.35456 -0.00034 0.0
C396 C 0.39263 0.39503 0.97522 0.0
C397 C 0.37446 0.38663 0.95477 0.0
C398 C 0.4 0.40383 0.96114 0.0
N399 N 0.38017 0.3866 0.97174 0.0
C400 C 0.38149 0.39527 0.94024 0.0
C401 C 0.39447 0.40399 0.94332 0.0
H402 H 0.39685 0.39482 0.98895 0.0
H403 H 0.36447 0.37995 0.95252 0.0
C404 C 0.35268 0.32847 0.0151 0.0
N405 N 0.36127 0.33782 0.00348 0.0
C406 C 0.35059 0.31611 0.01357 0.0
C407 C 0.36623 0.32322 0.98811 0.0
C408 C 0.36791 0.33538 0.99001 0.0
C409 C 0.35745 0.31334 -5e-05 0.0
H410 H 0.3474 0.33061 0.02557 0.0
H411 H 0.37465 0.34287 0.98083 0.0
O412 O 0.36729 0.38363 0.01404 0.0
O413 O 0.35667 0.35667 0.03145 0.0
O414 O 0.3547 0.35964 0.98739 0.0
O415 O 0.38145 0.36923 0.00632 0.0
H416 H 0.37651 0.40709 0.02689 0.0
H417 H 0.35186 0.37986 0.98423 0.0
H418 H 0.37143 0.42285 0.01293 0.0
H419 H 0.34724 0.39606 0.97104 0.0
H420 H 0.36629 0.34367 0.08748 0.0
H421 H 0.34483 0.36415 0.05565 0.0
H422 H 0.36712 0.34576 0.05168 0.0
H423 H 0.34424 0.36161 0.09136 0.0
H424 H 0.32199 0.37931 0.03747 0.0
H425 H 0.30557 0.34457 0.00376 0.0
H426 H 0.41448 0.39316 0.06148 0.0
H427 H 0.38498 0.39693 0.09027 0.0
H428 H 0.37393 0.36189 0.96637 0.0
H429 H 0.33322 0.344 0.96914 0.0
H430 H 0.37177 0.35095 0.93503 0.0
H431 H 0.33174 0.33332 0.93777 0.0
H432 H 0.39617 0.37277 0.97598 0.0
H433 H 0.38495 0.35507 0.03191 0.0
H434 H 0.41032 0.36369 0.97239 0.0
H435 H 0.39928 0.34627 0.02734 0.0
H436 H 0.40999 0.41026 0.96406 0.0
H437 H 0.37681 0.39519 0.9268 0.0
H438 H 0.34357 0.30879 0.02279 0.0
H439 H 0.37191 0.32164 0.97762 0.0
Li440 Li 0.6414 0.98899 0.00945 0.0
Li441 Li 0.63367 1.00024 0.02778 0.0
Li442 Li 0.63131 0.99884 0.99136 0.0
Li443 Li 0.65238 0.0118 0.00863 0.0
C444 C 0.61635 0.97223 0.00975 0.0
N445 N 0.60192 0.94606 0.00733 0.0
C446 C 0.61629 0.96472 0.0251 0.0
C447 C 0.60903 0.96641 0.99318 0.0
C448 C 0.60895 0.95151 0.02358 0.0
C449 C 0.6018 0.95317 0.99224 0.0
C450 C 0.65019 0.00098 0.05098 0.0
C451 C 0.6533 0.01207 0.08137 0.0
N452 N 0.64918 0.00095 0.09101 0.0
C453 C 0.646 0.98968 0.06119 0.0
C454 C 0.6539 0.01228 0.06114 0.0
C455 C 0.64556 0.98986 0.08143 0.0
C456 C 0.65367 0.97542 0.02019 0.0
N457 N 0.64439 0.97486 0.00846 0.0
C458 C 0.63983 0.95456 0.99627 0.0
C459 C 0.63776 0.96486 0.99618 0.0
C460 C 0.64902 0.95468 0.00877 0.0
C461 C 0.65614 0.96539 0.02062 0.0
H462 H 0.65912 0.98365 0.02935 0.0
H463 H 0.63083 0.96484 0.98635 0.0
C464 C 0.62271 0.01077 0.05216 0.0
N465 N 0.62425 1.00052 0.04976 0.0
C466 C 0.61417 0.01055 0.06584 0.0
C467 C 0.60921 0.98937 0.07478 0.0
C468 C 0.61787 0.99002 0.06096 0.0
C469 C 0.60703 0.99961 0.07701 0.0
H470 H 0.62766 0.0189 0.04283 0.0
H471 H 0.61913 0.98195 0.05872 0.0
C472 C 0.65368 0.99497 0.97603 0.0
N473 N 0.66547 0.9838 0.95676 0.0
C474 C 0.6659 0.9978 0.9815 0.0
C475 C 0.64748 0.98654 0.96068 0.0
C476 C 0.6717 0.99203 0.9716 0.0
C477 C 0.6536 0.98098 0.95114 0.0
C478 C 0.64247 0.02659 0.0052 0.0
C479 C 0.64127 0.03065 0.98678 0.0
C480 C 0.64943 0.03559 0.01956 0.0
C481 C 0.64717 0.04365 0.98297 0.0
C482 C 0.65521 0.0485 0.01517 0.0
N483 N 0.65398 0.05223 0.99711 0.0
C484 C 0.60853 0.99492 0.97607 0.0
C485 C 0.62462 0.00103 0.95235 0.0
C486 C 0.60004 0.99469 0.96222 0.0
N487 N 0.62052 0.99804 0.97093 0.0
C488 C 0.61646 0.00108 0.93804 0.0
C489 C 0.60401 0.9979 0.94296 0.0
H490 H 0.60563 0.99272 0.99103 0.0
H491 H 0.63427 0.00361 0.94876 0.0
C492 C 0.6775 0.03091 0.01995 0.0
N493 N 0.66858 0.02669 0.00562 0.0
C494 C 0.68946 0.0416 0.01702 0.0
C495 C 0.68279 0.04332 0.98466 0.0
C496 C 0.67102 0.03259 0.98818 0.0
C497 C 0.69227 0.04792 -0.00088 0.0
H498 H 0.67542 0.02587 0.03352 0.0
H499 H 0.66381 0.0289 0.97694 0.0
O500 O 0.62345 0.9852 0.01093 0.0
O501 O 0.65047 0.00097 0.03113 0.0
O502 O 0.64774 1.00026 0.98586 0.0
O503 O 0.63698 0.01389 0.00909 0.0
H504 H 0.62207 0.96901 0.03785 0.0
H505 H 0.60902 0.97202 0.98108 0.0
H506 H 0.60891 0.94559 0.03529 0.0
H507 H 0.59613 0.94855 0.97948 0.0
H508 H 0.6561 0.02073 0.08941 0.0
H509 H 0.64299 0.98082 0.05362 0.0
H510 H 0.65711 0.0211 0.05351 0.0
H511 H 0.64229 0.98117 0.0895 0.0
H512 H 0.63431 0.94659 0.98663 0.0
H513 H 0.66331 0.96587 0.03049 0.0
H514 H 0.61269 0.0186 0.06692 0.0
H515 H 0.60403 0.98082 0.08328 0.0
H516 H 0.67079 0.00427 0.99342 0.0
H517 H 0.63798 0.98421 0.95637 0.0
H518 H 0.68112 0.99406 0.97575 0.0
H519 H 0.6489 0.97437 0.93931 0.0
H520 H 0.63593 0.02386 0.97548 0.0
H521 H 0.65046 0.03265 0.0339 0.0
H522 H 0.64637 0.04691 0.96874 0.0
H523 H 0.6607 0.05556 0.02612 0.0
H524 H 0.59058 0.99234 0.96664 0.0
H525 H 0.61985 0.00356 0.92331 0.0
H526 H 0.69653 0.04468 0.02846 0.0
H527 H 0.68444 0.04795 0.97073 0.0
Li528 Li 0.65856 0.68639 0.33632 0.0
Li529 Li 0.68156 0.69668 0.34097 0.0
Li530 Li 0.6686 0.70442 0.35603 0.0
Li531 Li 0.67158 0.70643 0.32054 0.0
C532 C 0.66636 0.68742 0.38024 0.0
N533 N 0.66323 0.6872 0.41995 0.0
C534 C 0.6764 0.68981 0.39273 0.0
C535 C 0.65466 0.68469 0.38797 0.0
C536 C 0.67465 0.68971 0.41275 0.0
C537 C 0.65328 0.68469 0.40807 0.0
C538 C 0.66767 0.67874 0.30803 0.0
C539 C 0.65845 0.66384 0.28151 0.0
N540 N 0.65809 0.65456 0.2929 0.0
C541 C 0.66726 0.66906 0.31945 0.0
C542 C 0.66327 0.67613 0.28888 0.0
C543 C 0.66237 0.6569 0.31155 0.0
C544 C 0.63695 0.66747 0.31575 0.0
N545 N 0.64346 0.6701 0.3328 0.0
C546 C 0.62913 0.64921 0.34444 0.0
C547 C 0.63978 0.66127 0.34705 0.0
C548 C 0.62226 0.64621 0.32693 0.0
C549 C 0.62626 0.65557 0.31253 0.0
H550 H 0.64014 0.67457 0.30452 0.0
H551 H 0.64526 0.66348 0.36031 0.0
C552 C 0.7046 0.70175 0.35858 0.0
N553 N 0.69664 0.69557 0.34347 0.0
C554 C 0.71564 0.70108 0.36127 0.0
C555 C 0.71048 0.68828 0.33218 0.0
C556 C 0.69951 0.68916 0.33011 0.0
C557 C 0.71865 0.69415 0.34808 0.0
H558 H 0.70234 0.70717 0.36861 0.0
H559 H 0.69335 0.68478 0.31774 0.0
C560 C 0.64367 0.69621 0.32954 0.0
N561 N 0.61874 0.68576 0.31714 0.0
C562 C 0.64095 0.69798 0.31047 0.0
C563 C 0.63368 0.68927 0.34236 0.0
C564 C 0.62829 0.6926 0.30447 0.0
C565 C 0.62115 0.68401 0.3358 0.0
C566 C 0.69651 0.72243 0.3348 0.0
C567 C 0.70476 0.73335 0.34532 0.0
C568 C 0.70048 0.71983 0.31724 0.0
C569 C 0.71688 0.74153 0.33806 0.0
C570 C 0.71267 0.72825 0.31048 0.0
N571 N 0.72055 0.73883 0.32094 0.0
C572 C 0.67809 0.72045 0.38899 0.0
C573 C 0.65704 0.71455 0.37981 0.0
C574 C 0.67815 0.72872 0.40316 0.0
N575 N 0.66769 0.71373 0.37753 0.0
C576 C 0.65666 0.72266 0.39379 0.0
C577 C 0.66741 0.7301 0.40542 0.0
H578 H 0.68649 0.71972 0.38665 0.0
H579 H 0.64896 0.70922 0.37035 0.0
C580 C 0.67177 0.71425 0.28116 0.0
N581 N 0.67438 0.71795 0.30003 0.0
C582 C 0.67301 0.72298 0.26697 0.0
C583 C 0.68015 0.73924 0.2918 0.0
C584 C 0.67857 0.73017 0.30552 0.0
C585 C 0.67716 0.73563 0.2723 0.0
H586 H 0.66837 0.70448 0.27722 0.0
H587 H 0.68043 0.7328 0.32068 0.0
O588 O 0.66795 0.68773 0.36056 0.0
O589 O 0.67209 0.69062 0.31577 0.0
O590 O 0.65602 0.70137 0.33563 0.0
O591 O 0.68468 0.71426 0.34187 0.0
H592 H 0.68543 0.69167 0.38707 0.0
H593 H 0.64675 0.68268 0.37856 0.0
H594 H 0.68237 0.69161 0.42258 0.0
H595 H 0.6443 0.6827 0.41422 0.0
H596 H 0.65495 0.66167 0.26674 0.0
H597 H 0.67054 0.67089 0.33435 0.0
H598 H 0.66344 0.68345 0.27985 0.0
H599 H 0.66192 0.64931 0.32026 0.0
H600 H 0.62651 0.64223 0.35581 0.0
H601 H 0.62119 0.65373 0.29889 0.0
H602 H 0.7216 0.70574 0.37378 0.0
H603 H 0.71256 0.68312 0.32137 0.0
H604 H 0.64849 0.70339 0.30036 0.0
H605 H 0.63554 0.68784 0.35718 0.0
H606 H 0.62607 0.69384 0.28972 0.0
H607 H 0.61334 0.67854 0.34554 0.0
H608 H 0.70183 0.73547 0.35897 0.0
H609 H 0.69425 0.7114 0.30893 0.0
H610 H 0.72336 0.75003 0.34605 0.0
H611 H 0.71587 0.72636 0.29692 0.0
H612 H 0.6867 0.73436 0.41165 0.0
H613 H 0.64812 0.72327 0.39522 0.0
H614 H 0.67066 0.71986 0.25204 0.0
H615 H 0.68324 0.74887 0.29649 0.0
Li616 Li 0.29567 0.9651 0.33022 0.0
Li617 Li 0.29703 0.96341 0.36518 0.0
Li618 Li 0.30447 0.98409 0.34953 0.0
Li619 Li 0.31638 0.97289 0.34644 0.0
C620 C 0.28042 0.97523 0.35516 0.0
N621 N 0.26826 0.98842 0.36541 0.0
C622 C 0.27722 0.97562 0.3745 0.0
C623 C 0.27741 0.98154 0.34102 0.0
C624 C 0.27107 0.98232 0.37938 0.0
C625 C 0.27128 0.98817 0.3465 0.0
C626 C 0.2969 0.94329 0.35099 0.0
C627 C 0.29772 0.92756 0.37119 0.0
N628 N 0.28566 0.91894 0.36563 0.0
C629 C 0.28454 0.93426 0.34539 0.0
C630 C 0.30357 0.93992 0.36392 0.0
C631 C 0.27901 0.922 0.35298 0.0
C632 C 0.28969 0.9501 0.2963 0.0
N633 N 0.28543 0.95589 0.30859 0.0
C634 C 0.26537 0.9464 0.29223 0.0
C635 C 0.27356 0.95422 0.30683 0.0
C636 C 0.26945 0.9402 0.27939 0.0
C637 C 0.28185 0.94224 0.28143 0.0
H638 H 0.29906 0.95134 0.29838 0.0
H639 H 0.27032 0.95871 0.31706 0.0
C640 C 0.29355 0.9506 0.4016 0.0
N641 N 0.28781 0.95222 0.3858 0.0
C642 C 0.28642 0.94099 0.41491 0.0
C643 C 0.26761 0.93526 0.39574 0.0
C644 C 0.27508 0.9449 0.3828 0.0
C645 C 0.27328 0.93304 0.4119 0.0
H646 H 0.30369 0.95645 0.40356 0.0
H647 H 0.2708 0.94632 0.37 0.0
C648 C 0.31235 0.98112 0.30615 0.0
N649 N 0.31268 0.97972 0.26618 0.0
C650 C 0.32074 0.9781 0.29704 0.0
C651 C 0.30417 0.9835 0.29494 0.0
C652 C 0.32076 0.97743 0.27681 0.0
C653 C 0.30446 0.98271 0.27476 0.0
C654 C 0.3239 0.98504 0.3806 0.0
C655 C 0.33109 0.99824 0.38259 0.0
C656 C 0.32844 0.97748 0.38845 0.0
C657 C 0.34275 0.00367 0.39233 0.0
C658 C 0.34016 0.98327 0.39805 0.0
N659 N 0.34702 0.99613 0.39978 0.0
C660 C 0.30463 0.00476 0.3692 0.0
C661 C 0.30943 0.00794 0.33571 0.0
C662 C 0.30617 0.0169 0.37093 0.0
N663 N 0.30628 1.00055 0.35177 0.0
C664 C 0.31108 0.02013 0.33677 0.0
C665 C 0.30951 0.0248 0.35458 0.0
H666 H 0.30227 0.99874 0.3818 0.0
H667 H 0.31078 0.00441 0.32207 0.0
C668 C 0.3346 0.96518 0.3398 0.0
N669 N 0.33304 0.97526 0.34379 0.0
C670 C 0.34676 0.96696 0.337 0.0
C671 C 0.35548 0.98941 0.34286 0.0
C672 C 0.34315 0.98723 0.3451 0.0
C673 C 0.35746 0.97923 0.3385 0.0
H674 H 0.32637 0.9558 0.33831 0.0
H675 H 0.34163 0.99513 0.34779 0.0
O676 O 0.28671 0.96897 0.35014 0.0
O677 O 0.30231 0.95545 0.34424 0.0
O678 O 0.31203 0.98162 0.32595 0.0
O679 O 0.31249 0.97956 0.371 0.0
H680 H 0.27961 0.97093 0.38566 0.0
H681 H 0.27996 0.98147 0.32602 0.0
H682 H 0.26858 0.98274 0.3943 0.0
H683 H 0.26897 0.99315 0.33574 0.0
H684 H 0.30274 0.92485 0.38131 0.0
H685 H 0.27918 0.93673 0.33555 0.0
H686 H 0.31312 0.94681 0.3685 0.0
H687 H 0.26942 0.91494 0.3489 0.0
H688 H 0.25593 0.94515 0.29108 0.0
H689 H 0.2853 0.93749 0.27205 0.0
H690 H 0.29123 0.93956 0.42705 0.0
H691 H 0.2575 0.92955 0.393 0.0
H692 H 0.32713 0.97621 0.30546 0.0
H693 H 0.29752 0.98573 0.30177 0.0
H694 H 0.32718 0.97506 0.26956 0.0
H695 H 0.29812 0.98444 0.26591 0.0
H696 H 0.32776 0.00425 0.37654 0.0
H697 H 0.3231 0.96727 0.38679 0.0
H698 H 0.34844 0.01388 0.39392 0.0
H699 H 0.34384 0.97754 0.40405 0.0
H700 H 0.30506 0.02017 0.38501 0.0
H701 H 0.31353 0.02583 0.32376 0.0
H702 H 0.34769 0.95883 0.33318 0.0
H703 H 0.36334 0.99902 0.34445 0.0
Li704 Li 0.03879 0.33479 0.32796 0.0
Li705 Li 0.03878 0.33854 0.36303 0.0
Li706 Li 0.01867 0.32488 0.34707 0.0
Li707 Li 0.03068 0.34809 0.34203 0.0
C708 C 0.03069 0.3106 0.34219 0.0
N709 N 0.02536 0.28732 0.32731 0.0
C710 C 0.03526 0.3035 0.35154 0.0
C711 C 0.02342 0.30587 0.32527 0.0
C712 C 0.03246 0.29175 0.34379 0.0
C713 C 0.02082 0.29408 0.31798 0.0
C714 C 0.05521 0.36338 0.33707 0.0
C715 C 0.0635 0.38568 0.3435 0.0
N716 N 0.06851 0.38843 0.32537 0.0
C717 C 0.0605 0.36643 0.31855 0.0
C718 C 0.05679 0.37308 0.34971 0.0
C719 C 0.06717 0.37915 0.3129 0.0
C720 C 0.04743 0.33529 0.28916 0.0
N721 N 0.04807 0.33237 0.30799 0.0
C722 C 0.06349 0.32638 0.30029 0.0
C723 C 0.05591 0.32804 0.31373 0.0
C724 C 0.06319 0.32946 0.28079 0.0
C725 C 0.05503 0.33397 0.27522 0.0
H726 H 0.04125 0.33891 0.28506 0.0
H727 H 0.05642 0.32605 0.32888 0.0
C728 C 0.04563 0.32973 0.39605 0.0
N729 N 0.0487 0.34025 0.38539 0.0
C730 C 0.05376 0.33018 0.41078 0.0
C731 C 0.06784 0.35237 0.40365 0.0
C732 C 0.05946 0.35148 0.38904 0.0
C733 C 0.06518 0.34155 0.41445 0.0
H734 H 0.03708 0.32088 0.39266 0.0
H735 H 0.0618 0.35962 0.3801 0.0
C736 C 0.0135 0.33268 0.30916 0.0
N737 N 0.99488 0.3295 0.28291 0.0
C738 C 0.00566 0.33775 0.31309 0.0
C739 C 0.01191 0.32604 0.29184 0.0
C740 C 0.99629 0.33603 0.29965 0.0
C741 C 0.00243 0.32451 0.27877 0.0
C742 C 0.02274 0.33927 0.38582 0.0
C743 C 0.01576 0.32823 0.39664 0.0
C744 C 0.03027 0.35086 0.39534 0.0
C745 C 0.01651 0.32894 0.41687 0.0
C746 C 0.03078 0.35118 0.41559 0.0
N747 N 0.02395 0.3403 0.42584 0.0
C748 C 0.00145 0.30003 0.36003 0.0
C749 C 0.9916 0.30949 0.34249 0.0
C750 C 0.98973 0.28907 0.36293 0.0
N751 N 0.00222 0.30994 0.34982 0.0
C752 C 0.97966 0.29872 0.34506 0.0
C753 C 0.9786 0.28832 0.35547 0.0
H754 H 0.00993 0.30069 0.36624 0.0
H755 H 0.9923 0.31755 0.335 0.0
C756 C 0.03212 0.36802 0.31915 0.0
N757 N 0.02885 0.3625 0.33689 0.0
C758 C 0.03076 0.37849 0.31488 0.0
C759 C 0.02245 0.37724 0.34709 0.0
C760 C 0.02405 0.36684 0.35077 0.0
C761 C 0.0258 0.38321 0.32892 0.0
H762 H 0.03578 0.36426 0.3083 0.0
H763 H 0.02131 0.36213 0.36463 0.0
O764 O 0.03344 0.32216 0.34959 0.0
O765 O 0.04848 0.35095 0.34277 0.0
O766 O 0.02293 0.33449 0.3219 0.0
O767 O 0.02238 0.33871 0.36599 0.0
H768 H 0.04093 0.30706 0.36463 0.0
H769 H 0.01979 0.31122 0.31787 0.0
H770 H 0.03594 0.28615 0.35086 0.0
H771 H 0.0152 0.29031 0.3049 0.0
H772 H 0.06469 0.39326 0.35307 0.0
H773 H 0.05945 0.35908 0.30861 0.0
H774 H 0.0527 0.37091 0.36405 0.0
H775 H 0.07127 0.38164 0.29857 0.0
H776 H 0.0698 0.32307 0.30519 0.0
H777 H 0.05455 0.33645 0.2603 0.0
H778 H 0.05127 0.32165 0.41891 0.0
H779 H 0.0766 0.36128 0.40581 0.0
H780 H 0.00662 0.34277 0.32652 0.0
H781 H 0.01793 0.3221 0.2885 0.0
H782 H 0.99012 0.33985 0.30255 0.0
H783 H 1.00108 0.31937 0.26532 0.0
H784 H 0.00988 0.31919 0.38952 0.0
H785 H 0.03579 0.35949 0.38719 0.0
H786 H 0.01119 0.32045 0.42543 0.0
H787 H 0.03664 0.36007 0.42314 0.0
H788 H 0.9894 0.28128 0.37097 0.0
H789 H 0.97133 0.29869 0.33941 0.0
H790 H 0.03363 0.38285 0.30077 0.0
H791 H 0.01837 0.38038 0.35822 0.0
Li792 Li 0.67584 0.98266 0.34314 0.0
Li793 Li 0.66228 0.96183 0.35713 0.0
Li794 Li 0.66636 0.96436 0.322 0.0
Li795 Li 0.6527 0.97147 0.33691 0.0
C796 C 0.69116 0.97214 0.34494 0.0
N797 N 0.71695 0.98113 0.34809 0.0
C798 C 0.69611 0.9695 0.36146 0.0
C799 C 0.6993 0.97918 0.3299 0.0
C800 C 0.70918 0.97418 0.36281 0.0
C801 C 0.71232 0.98369 0.3318 0.0
C802 C 0.66664 0.98314 0.38006 0.0
C803 C 0.66784 0.99649 0.40687 0.0
N804 N 0.67657 0.99428 0.41566 0.0
C805 C 0.67558 0.98098 0.3894 0.0
C806 C 0.66269 0.99094 0.38888 0.0
C807 C 0.6805 0.9867 0.40737 0.0
C808 C 0.69127 0.00878 0.33575 0.0
N809 N 0.69039 0.99918 0.3469 0.0
C810 C 0.71022 0.01328 0.36229 0.0
C811 C 0.69955 0.00124 0.36013 0.0
C812 C 0.71144 0.02342 0.35096 0.0
C813 C 0.70174 0.02103 0.33755 0.0
H814 H 0.68379 0.00694 0.32547 0.0
H815 H 0.69867 0.99354 0.36895 0.0
C816 C 0.66351 0.94187 0.37401 0.0
N817 N 0.65949 0.95028 0.37749 0.0
C818 C 0.66186 0.93288 0.38791 0.0
C819 C 0.65175 0.94124 0.40864 0.0
C820 C 0.65359 0.95008 0.39429 0.0
C821 C 0.65596 0.93251 0.40555 0.0
H822 H 0.66808 0.94222 0.36041 0.0
H823 H 0.65032 0.95677 0.39655 0.0
C824 C 0.66767 0.98288 0.29891 0.0
N825 N 0.66946 0.98694 0.25936 0.0
C826 C 0.65672 0.97919 0.2878 0.0
C827 C 0.67954 0.98882 0.28996 0.0
C828 C 0.65782 0.98128 0.26781 0.0
C829 C 0.68025 0.99073 0.26994 0.0
C830 C 0.63821 0.94524 0.34246 0.0
C831 C 0.6314 0.93315 0.33409 0.0
C832 C 0.63315 0.94838 0.35828 0.0
C833 C 0.61957 0.92439 0.3417 0.0
C834 C 0.6213 0.93935 0.36546 0.0
N835 N 0.61481 0.92764 0.35709 0.0
C836 C 0.67738 0.95216 0.30236 0.0
C837 C 0.66098 0.95261 0.28441 0.0
C838 C 0.6789 0.94501 0.28789 0.0
N839 N 0.66861 0.95588 0.30036 0.0
C840 C 0.6622 0.94548 0.26949 0.0
C841 C 0.67122 0.94152 0.27118 0.0
H842 H 0.68295 0.95434 0.31548 0.0
H843 H 0.65372 0.95523 0.28347 0.0
C844 C 0.63883 0.984 0.34174 0.0
N845 N 0.63835 0.9736 0.33356 0.0
C846 C 0.62854 0.98603 0.33995 0.0
C847 C 0.61749 0.96664 0.32115 0.0
C848 C 0.62799 0.96497 0.32336 0.0
C849 C 0.61767 0.97729 0.32951 0.0
H850 H 0.64724 0.99075 0.34962 0.0
H851 H 0.62791 0.95685 0.3168 0.0
O852 O 0.67839 0.96773 0.34343 0.0
O853 O 0.66169 0.97765 0.36243 0.0
O854 O 0.66678 0.98092 0.3185 0.0
O855 O 0.64982 0.95388 0.33519 0.0
H856 H 0.68995 0.96394 0.37316 0.0
H857 H 0.6956 0.98114 0.31693 0.0
H858 H 0.71316 0.97227 0.37556 0.0
H859 H 0.71873 0.98922 0.32032 0.0
H860 H 0.66488 0.00256 0.41385 0.0
H861 H 0.67872 0.97496 0.38283 0.0
H862 H 0.65573 0.99268 0.38194 0.0
H863 H 0.68746 0.98511 0.41471 0.0
H864 H 0.71751 0.01456 0.37261 0.0
H865 H 0.70214 0.02856 0.32872 0.0
H866 H 0.66541 0.92646 0.38501 0.0
H867 H 0.64701 0.94118 0.42193 0.0
H868 H 0.64746 0.97466 0.29449 0.0
H869 H 0.68813 0.99201 0.29839 0.0
H870 H 0.64941 0.97838 0.25901 0.0
H871 H 0.68938 0.99527 0.26281 0.0
H872 H 0.63521 0.93058 0.32185 0.0
H873 H 0.63829 0.95768 0.36495 0.0
H874 H 0.61418 0.915 0.33536 0.0
H875 H 0.61726 0.94165 0.37769 0.0
H876 H 0.68572 0.94189 0.29012 0.0
H877 H 0.65607 0.94302 0.25688 0.0
H878 H 0.62908 0.99431 0.34679 0.0
H879 H 0.60943 0.95978 0.31268 0.0
Li880 Li 0.0381 0.70694 0.36268 0.0
Li881 Li 0.01747 0.69843 0.34911 0.0
Li882 Li 0.02995 0.68721 0.34406 0.0
Li883 Li 0.03546 0.708 0.32823 0.0
C884 C 0.02508 0.68823 0.38754 0.0
N885 N 0.02917 0.68458 0.42585 0.0
C886 C 0.02394 0.69556 0.4022 0.0
C887 C 0.02828 0.67903 0.39239 0.0
C888 C 0.02607 0.69358 0.42147 0.0
C889 C 0.0303 0.67732 0.41184 0.0
C890 C 0.02408 0.72188 0.35271 0.0
C891 C 0.00973 0.72893 0.34199 0.0
N892 N 0.00869 0.73203 0.36059 0.0
C893 C 0.02289 0.72517 0.37171 0.0
C894 C 0.01749 0.72383 0.3377 0.0
C895 C 0.01507 0.73029 0.3754 0.0
C896 C 0.05414 0.72937 0.38305 0.0
N897 N 0.04994 0.7167 0.38292 0.0
C898 C 0.06465 0.71935 0.40813 0.0
C899 C 0.05505 0.71162 0.39503 0.0
C900 C 0.06913 0.73247 0.40862 0.0
C901 C 0.0637 0.73745 0.3959 0.0
H902 H 0.05036 0.7333 0.37272 0.0
H903 H 0.05197 0.70163 0.39416 0.0
C904 C 0.9923 0.6917 0.33755 0.0
N905 N 1.00049 0.6952 0.35283 0.0
C906 C 0.97992 0.68939 0.34017 0.0
C907 C 0.98465 0.69432 0.3742 0.0
C908 C 0.99687 0.69645 0.37093 0.0
C909 C 0.97593 0.69067 0.35874 0.0
H910 H 0.99534 0.69064 0.32332 0.0
H911 H 0.00352 0.69923 0.38284 0.0
C912 C 0.05896 0.70899 0.34659 0.0
N913 N 0.08409 0.72209 0.35834 0.0
C914 C 0.06644 0.72196 0.34276 0.0
C915 C 0.06426 0.70266 0.35631 0.0
C916 C 0.07913 0.72842 0.34885 0.0
C917 C 0.07698 0.70946 0.36214 0.0
C918 C 0.01916 0.69008 0.30499 0.0
C919 C 0.02233 0.68192 0.29538 0.0
C920 C 0.01556 0.69749 0.29423 0.0
C921 C 0.02197 0.68142 0.27513 0.0
C922 C 0.01534 0.69674 0.27401 0.0
N923 N 0.01853 0.68879 0.26495 0.0
C924 C 0.01868 0.66049 0.34561 0.0
C925 C 0.03966 0.67137 0.33333 0.0
C926 C 0.01804 0.64879 0.34294 0.0
N927 N 0.02938 0.67144 0.34084 0.0
C928 C 0.03944 0.6599 0.3304 0.0
C929 C 0.0285 0.64839 0.33513 0.0
H930 H 0.01061 0.66086 0.35141 0.0
H931 H 0.04798 0.68022 0.32942 0.0
C932 C 0.04529 0.73005 0.30501 0.0
N933 N 0.04364 0.71816 0.3062 0.0
C934 C 0.05264 0.7382 0.2902 0.0
C935 C 0.05633 0.72168 0.27802 0.0
C936 C 0.04899 0.71388 0.29313 0.0
C937 C 0.05837 0.73408 0.27657 0.0
H938 H 0.04126 0.73336 0.31592 0.0
H939 H 0.04786 0.70454 0.29481 0.0
O940 O 0.02296 0.68995 0.36858 0.0
O941 O 0.03147 0.71658 0.34886 0.0
O942 O 0.04643 0.70259 0.34125 0.0
O943 O 0.01964 0.69084 0.32481 0.0
H944 H 0.02169 0.70287 0.39875 0.0
H945 H 0.02927 0.6733 0.38129 0.0
H946 H 0.0253 0.69925 0.43293 0.0
H947 H 0.03281 0.67025 0.41578 0.0
H948 H 0.00452 0.7304 0.33053 0.0
H949 H 0.02782 0.72364 0.38355 0.0
H950 H 0.01824 0.72129 0.32293 0.0
H951 H 0.01401 0.7328 0.39005 0.0
H952 H 0.06855 0.71511 0.41769 0.0
H953 H 0.06706 0.74754 0.39545 0.0
H954 H 0.97349 0.68644 0.32787 0.0
H955 H 0.98212 0.69566 0.3887 0.0
H956 H 0.06246 0.72702 0.33543 0.0
H957 H 0.05854 0.69266 0.35962 0.0
H958 H 0.08501 0.73848 0.3461 0.0
H959 H 0.08119 0.70471 0.36979 0.0
H960 H 0.0251 0.67608 0.30343 0.0
H961 H 0.01309 0.70387 0.30141 0.0
H962 H 0.02445 0.67519 0.26751 0.0
H963 H 0.01265 0.70249 0.26551 0.0
H964 H 0.00936 0.64015 0.34653 0.0
H965 H 0.04776 0.66006 0.32451 0.0
H966 H 0.05393 0.74767 0.28956 0.0
H967 H 0.06076 0.7182 0.26803 0.0
Li968 Li 0.302 0.33222 0.36266 0.0
Li969 Li 0.30927 0.32043 0.34468 0.0
Li970 Li 0.32051 0.34322 0.34298 0.0
Li971 Li 0.29921 0.3302 0.32633 0.0
C972 C 0.31856 0.33298 0.38571 0.0
N973 N 0.31781 0.33345 0.42574 0.0
C974 C 0.31434 0.32179 0.39624 0.0
C975 C 0.32244 0.34442 0.39556 0.0
C976 C 0.31404 0.32222 0.41647 0.0
C977 C 0.32197 0.34445 0.41579 0.0
C978 C 0.28415 0.30395 0.34591 0.0
C979 C 0.26918 0.28463 0.32935 0.0
N980 N 0.26938 0.27777 0.34474 0.0
C981 C 0.28418 0.29669 0.36157 0.0
C982 C 0.27658 0.29787 0.32966 0.0
C983 C 0.27666 0.28347 0.36069 0.0
C984 C 0.29219 0.34381 0.38722 0.0
N985 N 0.29304 0.33316 0.38479 0.0
C986 C 0.27832 0.32284 0.41051 0.0
C987 C 0.28646 0.32285 0.39629 0.0
C988 C 0.27689 0.33353 0.41286 0.0
C989 C 0.28419 0.34423 0.40131 0.0
H990 H 0.2973 0.35179 0.37768 0.0
H991 H 0.2872 0.31448 0.39405 0.0
C992 C 0.32148 0.30685 0.35564 0.0
N993 N 0.31202 0.30614 0.34418 0.0
C994 C 0.32384 0.29675 0.35634 0.0
C995 C 0.30702 0.28552 0.33287 0.0
C996 C 0.30508 0.2959 0.33246 0.0
C997 C 0.31642 0.28581 0.3451 0.0
H998 H 0.32717 0.31526 0.36433 0.0
H999 H 0.298 0.29575 0.3228 0.0
C1000 C 0.31085 0.35822 0.33893 0.0
N1001 N 0.3225 0.38368 0.32958 0.0
C1002 C 0.30931 0.36193 0.32043 0.0
C1003 C 0.31823 0.36748 0.35273 0.0
C1004 C 0.31529 0.37484 0.31597 0.0
C1005 C 0.32408 0.3803 0.34771 0.0
C1006 C 0.321 0.32556 0.31085 0.0
C1007 C 0.33325 0.32824 0.31583 0.0
C1008 C 0.31433 0.31683 0.29605 0.0
C1009 C 0.3386 0.32201 0.30599 0.0
C1010 C 0.32002 0.31081 0.28654 0.0
N1011 N 0.33193 0.31349 0.29169 0.0
C1012 C 0.3457 0.36213 0.35393 0.0
C1013 C 0.33925 0.36389 0.32217 0.0
C1014 C 0.35764 0.37285 0.35108 0.0
N1015 N 0.33678 0.35795 0.33959 0.0
C1016 C 0.35101 0.37466 0.31874 0.0
C1017 C 0.36045 0.37926 0.33327 0.0
H1018 H 0.3436 0.35706 0.36748 0.0
H1019 H 0.33203 0.36024 0.31094 0.0
C1020 C 0.2763 0.32606 0.3112 0.0
N1021 N 0.28826 0.32913 0.30596 0.0
C1022 C 0.26768 0.32554 0.29734 0.0
C1023 C 0.28394 0.33161 0.27296 0.0
C1024 C 0.29222 0.33183 0.28729 0.0
C1025 C 0.2715 0.32844 0.27797 0.0
H1026 H 0.27351 0.32409 0.32624 0.0
H1027 H 0.30185 0.33438 0.28362 0.0
O1028 O 0.31868 0.33272 0.36586 0.0
O1029 O 0.29142 0.31692 0.34648 0.0
O1030 O 0.30527 0.3456 0.34344 0.0
O1031 O 0.31549 0.33131 0.32064 0.0
H1032 H 0.31121 0.31283 0.38892 0.0
H1033 H 0.32566 0.35316 0.38768 0.0
H1034 H 0.31074 0.31362 0.42479 0.0
H1035 H 0.32489 0.35323 0.42358 0.0
H1036 H 0.26331 0.27981 0.31685 0.0
H1037 H 0.29014 0.30117 0.37408 0.0
H1038 H 0.27651 0.30328 0.31731 0.0
H1039 H 0.27668 0.27775 0.37265 0.0
H1040 H 0.27298 0.31445 0.41929 0.0
H1041 H 0.28328 0.35262 0.40247 0.0
H1042 H 0.33119 0.29736 0.36597 0.0
H1043 H 0.30126 0.27736 0.32369 0.0
H1044 H 0.30363 0.35493 0.30956 0.0
H1045 H 0.31956 0.36481 0.3671 0.0
H1046 H 0.31422 0.37784 0.30168 0.0
H1047 H 0.32989 0.38755 0.35821 0.0
H1048 H 0.3385 0.33495 0.32732 0.0
H1049 H 0.30481 0.31461 0.29213 0.0
H1050 H 0.34804 0.32392 0.30976 0.0
H1051 H 0.31495 0.30397 0.27513 0.0
H1052 H 0.36468 0.37591 0.36257 0.0
H1053 H 0.35266 0.37935 0.30486 0.0
H1054 H 0.25823 0.32322 0.30181 0.0
H1055 H 0.28721 0.33387 0.25814 0.0
Li1056 Li 0.3244 0.01789 0.67417 0.0
Li1057 Li 0.34672 0.02997 0.67739 0.0
Li1058 Li 0.33337 0.03715 0.69369 0.0
Li1059 Li 0.33591 0.03787 0.65683 0.0
C1060 C 0.32951 0.01435 0.71437 0.0
N1061 N 0.31963 0.99923 0.74673 0.0
C1062 C 0.33367 0.00594 0.71965 0.0
C1063 C 0.32044 0.01519 0.7257 0.0
C1064 C 0.32852 0.99834 0.73601 0.0
C1065 C 0.31553 0.00743 0.74196 0.0
C1066 C 0.33809 0.01212 0.64751 0.0
C1067 C 0.3409 0.99966 0.62285 0.0
N1068 N 0.34008 0.99131 0.63663 0.0
C1069 C 0.33726 0.00342 0.66142 0.0
C1070 C 0.33991 0.01024 0.62806 0.0
C1071 C 0.33829 0.99296 0.65564 0.0
C1072 C 0.30599 0.99742 0.65238 0.0
N1073 N 0.30996 0.00099 0.67098 0.0
C1074 C 0.29347 0.98093 0.68255 0.0
C1075 C 0.30389 0.99302 0.68599 0.0
C1076 C 0.28916 0.977 0.66348 0.0
C1077 C 0.29556 0.98548 0.64829 0.0
H1078 H 0.31089 0.00394 0.64067 0.0
H1079 H 0.30704 0.99593 0.70066 0.0
C1080 C 0.36618 0.03049 0.69959 0.0
N1081 N 0.36201 0.02945 0.68102 0.0
C1082 C 0.37712 0.02992 0.7037 0.0
C1083 C 0.37935 0.02729 0.66945 0.0
C1084 C 0.36842 0.02805 0.66598 0.0
C1085 C 0.3838 0.02811 0.68857 0.0
H1086 H 0.36098 0.03177 0.71122 0.0
H1087 H 0.36499 0.02742 0.6513 0.0
C1088 C 0.30765 0.02513 0.66864 0.0
N1089 N 0.28204 0.0108 0.66009 0.0
C1090 C 0.30347 0.02342 0.64939 0.0
C1091 C 0.29881 0.01965 0.68356 0.0
C1092 C 0.29047 0.01613 0.64536 0.0
C1093 C 0.2859 0.0124 0.67893 0.0
C1094 C 0.3617 0.05456 0.67726 0.0
C1095 C 0.3684 0.05996 0.69445 0.0
C1096 C 0.36833 0.05619 0.66002 0.0
C1097 C 0.38167 0.06685 0.69411 0.0
C1098 C 0.3816 0.06315 0.66028 0.0
N1099 N 0.38794 0.06829 0.67718 0.0
C1100 C 0.33972 0.04989 0.72998 0.0
C1101 C 0.32286 0.05003 0.71279 0.0
C1102 C 0.33943 0.05797 0.74415 0.0
N1103 N 0.33167 0.04633 0.71453 0.0
C1104 C 0.32211 0.05795 0.72676 0.0
C1105 C 0.33066 0.06223 0.74246 0.0
H1106 H 0.34656 0.04671 0.73101 0.0
H1107 H 0.31666 0.04713 0.70024 0.0
C1108 C 0.34383 0.04922 0.61939 0.0
N1109 N 0.33696 0.0481 0.63552 0.0
C1110 C 0.34541 0.05802 0.60508 0.0
C1111 C 0.33245 0.06392 0.62403 0.0
C1112 C 0.33124 0.05514 0.63801 0.0
C1113 C 0.33976 0.06557 0.60743 0.0
H1114 H 0.34832 0.04352 0.61787 0.0
H1115 H 0.32598 0.05414 0.65114 0.0
O1116 O 0.33463 0.022 0.69859 0.0
O1117 O 0.3371 0.02245 0.65276 0.0
O1118 O 0.32035 0.03194 0.67282 0.0
O1119 O 0.34872 0.04741 0.67738 0.0
H1120 H 0.34083 0.00531 0.71123 0.0
H1121 H 0.31713 0.02164 0.7219 0.0
H1122 H 0.33162 0.99176 0.74022 0.0
H1123 H 0.30845 0.00792 0.75078 0.0
H1124 H 0.34231 0.99808 0.60784 0.0
H1125 H 0.33582 0.0047 0.6765 0.0
H1126 H 0.34055 0.01689 0.61711 0.0
H1127 H 0.33767 0.98615 0.66627 0.0
H1128 H 0.28896 0.9747 0.69473 0.0
H1129 H 0.29248 0.98301 0.63337 0.0
H1130 H 0.38032 0.03093 0.71861 0.0
H1131 H 0.3841 0.02581 0.65733 0.0
H1132 H 0.3102 0.02754 0.63766 0.0
H1133 H 0.30189 0.02088 0.69854 0.0
H1134 H 0.2871 0.01465 0.63052 0.0
H1135 H 0.27896 0.00803 0.69032 0.0
H1136 H 0.36343 0.05876 0.70793 0.0
H1137 H 0.3633 0.05194 0.64665 0.0
H1138 H 0.38698 0.07104 0.70732 0.0
H1139 H 0.38686 0.06441 0.64706 0.0
H1140 H 0.34609 0.06099 0.75618 0.0
H1141 H 0.31529 0.06112 0.72488 0.0
H1142 H 0.35105 0.05897 0.59241 0.0
H1143 H 0.32807 0.06966 0.62651 0.0
Li1144 Li 0.98243 0.30472 0.67521 0.0
Li1145 Li 0.97126 0.31629 0.67707 0.0
Li1146 Li 0.96301 0.2967 0.69616 0.0
Li1147 Li 0.96075 0.29633 0.6612 0.0
C1148 C 0.98641 0.32436 0.70699 0.0
N1149 N 0.9989 0.34871 0.7222 0.0
C1150 C 0.99864 0.33313 0.70074 0.0
C1151 C 0.98051 0.32801 0.72091 0.0
C1152 C 0.00482 0.34537 0.70865 0.0
C1153 C 0.98698 0.34036 0.72843 0.0
C1154 C 0.98273 0.32142 0.64119 0.0
C1155 C 0.98177 0.33606 0.61868 0.0
N1156 N 0.99462 0.3421 0.61683 0.0
C1157 C 0.99593 0.32775 0.639 0.0
C1158 C 0.97558 0.32557 0.63088 0.0
C1159 C 0.00176 0.33819 0.62663 0.0
C1160 C 1.00076 0.30161 0.65515 0.0
N1161 N 0.99819 0.30517 0.67245 0.0
C1162 C 0.01865 0.31041 0.68482 0.0
C1163 C 0.00669 0.30919 0.68736 0.0
C1164 C 0.02181 0.30731 0.66681 0.0
C1165 C 0.01256 0.30261 0.65199 0.0
H1166 H 0.99373 0.29828 0.64365 0.0
H1167 H 0.0043 0.31172 0.70111 0.0
C1168 C 0.96448 0.33475 0.68675 0.0
N1169 N 0.97358 0.33319 0.6779 0.0
C1170 C 0.96605 0.34688 0.68908 0.0
C1171 C 0.98614 0.35556 0.67255 0.0
C1172 C 0.98433 0.34334 0.67105 0.0
C1173 C 0.97704 0.35757 0.68196 0.0
H1174 H 0.95615 0.32659 0.69255 0.0
H1175 H 0.99173 0.34207 0.66486 0.0
C1176 C 0.97084 0.2793 0.6852 0.0
N1177 N 0.97824 0.26339 0.70189 0.0
C1178 C 0.96777 0.26779 0.67624 0.0
C1179 C 0.97766 0.28272 0.70266 0.0
C1180 C 0.9716 0.25987 0.6849 0.0
C1181 C 0.98132 0.27455 0.71086 0.0
C1182 C 0.942 0.29933 0.6728 0.0
C1183 C 0.93136 0.28782 0.67796 0.0
C1184 C 0.94082 0.30701 0.65891 0.0
C1185 C 0.91972 0.28407 0.66883 0.0
C1186 C 0.92902 0.30294 0.65012 0.0
N1187 N 0.91881 0.29164 0.6552 0.0
C1188 C 0.95536 0.29137 0.7363 0.0
C1189 C 0.94596 0.27426 0.71386 0.0
C1190 C 0.94788 0.28341 0.75126 0.0
N1191 N 0.95416 0.28669 0.71801 0.0
C1192 C 0.93843 0.26597 0.72834 0.0
C1193 C 0.93924 0.27054 0.7473 0.0
H1194 H 0.962 0.30126 0.73927 0.0
H1195 H 0.94512 0.27082 0.69914 0.0
C1196 C 0.94838 0.29023 0.62397 0.0
N1197 N 0.94911 0.28579 0.64171 0.0
C1198 C 0.93904 0.28225 0.6107 0.0
C1199 C 0.93155 0.26529 0.63413 0.0
C1200 C 0.94103 0.27357 0.64689 0.0
C1201 C 0.93041 0.2696 0.61577 0.0
H1202 H 0.95495 0.29996 0.62017 0.0
H1203 H 0.9418 0.27036 0.66117 0.0
O1204 O 0.98009 0.31242 0.69907 0.0
O1205 O 0.97686 0.3111 0.65309 0.0
O1206 O 0.96719 0.28715 0.6768 0.0
O1207 O 0.95357 0.30298 0.68111 0.0
H1208 H 0.00324 0.33061 0.6896 0.0
H1209 H 0.97093 0.32147 0.72556 0.0
H1210 H 0.01426 0.35226 0.70388 0.0
H1211 H 0.9825 0.34333 0.73911 0.0
H1212 H 0.97635 0.33941 0.61071 0.0
H1213 H 0.00165 0.32476 0.64693 0.0
H1214 H 0.96539 0.32085 0.63243 0.0
H1215 H 0.01196 0.34321 0.62488 0.0
H1216 H 0.02546 0.31412 0.69663 0.0
H1217 H 0.01445 0.29984 0.63802 0.0
H1218 H 0.95888 0.34785 0.6969 0.0
H1219 H 0.99469 0.36334 0.66651 0.0
H1220 H 0.9625 0.26501 0.66271 0.0
H1221 H 0.98011 0.29159 0.70982 0.0
H1222 H 0.9693 0.25094 0.67813 0.0
H1223 H 0.98661 0.27709 0.72435 0.0
H1224 H 0.9321 0.28178 0.68872 0.0
H1225 H 0.94893 0.316 0.65491 0.0
H1226 H 0.91143 0.27514 0.67255 0.0
H1227 H 0.92798 0.30875 0.63925 0.0
H1228 H 0.94885 0.28726 0.76575 0.0
H1229 H 0.93178 0.25617 0.7246 0.0
H1230 H 0.93864 0.28592 0.5966 0.0
H1231 H 0.92502 0.25568 0.63876 0.0
Li1232 Li 0.69305 0.68064 0.66696 0.0
Li1233 Li 0.68137 0.65782 0.67153 0.0
Li1234 Li 0.70209 0.67102 0.68793 0.0
Li1235 Li 0.70067 0.66683 0.65366 0.0
C1236 C 0.68735 0.67949 0.70617 0.0
N1237 N 0.69004 0.69607 0.7357 0.0
C1238 C 0.67756 0.67616 0.71949 0.0
C1239 C 0.6985 0.69126 0.70784 0.0
C1240 C 0.67911 0.68467 0.73433 0.0
C1241 C 0.69967 0.69951 0.72287 0.0
C1242 C 0.67454 0.66039 0.63542 0.0
C1243 C 0.65964 0.64079 0.61947 0.0
N1244 N 0.65279 0.64622 0.61351 0.0
C1245 C 0.66742 0.66581 0.629 0.0
C1246 C 0.67069 0.64781 0.63048 0.0
C1247 C 0.65643 0.65848 0.61799 0.0
C1248 C 0.70053 0.70709 0.66361 0.0
N1249 N 0.69065 0.69497 0.66459 0.0
C1250 C 0.67577 0.70238 0.6647 0.0
C1251 C 0.67845 0.69248 0.66539 0.0
C1252 C 0.68577 0.715 0.66325 0.0
C1253 C 0.6983 0.71726 0.66272 0.0
H1254 H 0.71019 0.70896 0.66378 0.0
H1255 H 0.67079 0.68278 0.66683 0.0
C1256 C 0.66271 0.63236 0.68012 0.0
N1257 N 0.6646 0.6439 0.67466 0.0
C1258 C 0.65039 0.62222 0.68283 0.0
C1259 C 0.64222 0.636 0.67397 0.0
C1260 C 0.65469 0.64591 0.67173 0.0
C1261 C 0.6399 0.62395 0.67977 0.0
H1262 H 0.67078 0.63109 0.68267 0.0
H1263 H 0.65649 0.65524 0.66763 0.0
C1264 C 0.71826 0.69278 0.65417 0.0
N1265 N 0.73333 0.71119 0.62769 0.0
C1266 C 0.71337 0.6932 0.63596 0.0
C1267 C 0.73085 0.7017 0.65882 0.0
C1268 C 0.72113 0.70259 0.62281 0.0
C1269 C 0.73831 0.71094 0.64526 0.0
C1270 C 0.70105 0.6475 0.66977 0.0
C1271 C 0.71356 0.65157 0.6755 0.0
C1272 C 0.69451 0.63662 0.65822 0.0
C1273 C 0.71937 0.64476 0.66938 0.0
C1274 C 0.70066 0.63007 0.65238 0.0
N1275 N 0.71286 0.63425 0.65802 0.0
C1276 C 0.70887 0.66289 0.72178 0.0
C1277 C 0.72319 0.68417 0.71279 0.0
C1278 C 0.71718 0.66353 0.73635 0.0
N1279 N 0.71213 0.67306 0.71017 0.0
C1280 C 0.73176 0.68524 0.72721 0.0
C1281 C 0.72893 0.67474 0.73893 0.0
H1282 H 0.70005 0.65413 0.71917 0.0
H1283 H 0.72557 0.69205 0.70321 0.0
C1284 C 0.70472 0.65744 0.61731 0.0
N1285 N 0.71013 0.66444 0.63363 0.0
C1286 C 0.71218 0.65548 0.60388 0.0
C1287 C 0.73058 0.66815 0.62413 0.0
C1288 C 0.72279 0.66975 0.6372 0.0
C1289 C 0.7253 0.6609 0.60725 0.0
H1290 H 0.69465 0.65329 0.61479 0.0
H1291 H 0.72681 0.67504 0.65046 0.0
O1292 O 0.68589 0.67129 0.69147 0.0
O1293 O 0.68523 0.66738 0.64644 0.0
O1294 O 0.71094 0.68357 0.66728 0.0
O1295 O 0.6953 0.65423 0.67521 0.0
H1296 H 0.66886 0.6671 0.71833 0.0
H1297 H 0.70613 0.69405 0.69758 0.0
H1298 H 0.67161 0.68222 0.74475 0.0
H1299 H 0.70824 0.70866 0.72431 0.0
H1300 H 0.65649 0.63101 0.61571 0.0
H1301 H 0.67035 0.67558 0.63243 0.0
H1302 H 0.67606 0.64347 0.63538 0.0
H1303 H 0.6508 0.66254 0.61298 0.0
H1304 H 0.66599 0.70017 0.66557 0.0
H1305 H 0.70632 0.72679 0.66146 0.0
H1306 H 0.64914 0.61322 0.68772 0.0
H1307 H 0.63451 0.63781 0.67116 0.0
H1308 H 0.70371 0.6864 0.63194 0.0
H1309 H 0.73486 0.70146 0.67273 0.0
H1310 H 0.71746 0.70302 0.6087 0.0
H1311 H 0.74806 0.71789 0.6487 0.0
H1312 H 0.71882 0.66004 0.68426 0.0
H1313 H 0.68481 0.63327 0.65373 0.0
H1314 H 0.72908 0.64787 0.67357 0.0
H1315 H 0.69574 0.62168 0.64335 0.0
H1316 H 0.71454 0.65525 0.74523 0.0
H1317 H 0.74075 0.69402 0.72854 0.0
H1318 H 0.70777 0.64989 0.59096 0.0
H1319 H 0.74061 0.67232 0.62743 0.0
Li1320 Li 0.34702 0.31709 0.67199 0.0
Li1321 Li 0.33412 0.29702 0.68802 0.0
Li1322 Li 0.33576 0.29786 0.65317 0.0
Li1323 Li 0.32422 0.30642 0.66935 0.0
C1324 C 0.36033 0.30445 0.66308 0.0
N1325 N 0.38219 0.30891 0.64426 0.0
C1326 C 0.36687 0.29834 0.66914 0.0
C1327 C 0.3649 0.31283 0.64745 0.0
C1328 C 0.37791 0.30072 0.65944 0.0
C1329 C 0.37597 0.31496 0.63812 0.0
C1330 C 0.34108 0.31878 0.71017 0.0
C1331 C 0.34465 0.33191 0.73843 0.0
N1332 N 0.35418 0.32984 0.74412 0.0
C1333 C 0.3509 0.31678 0.71632 0.0
C1334 C 0.33791 0.32639 0.72131 0.0
C1335 C 0.35741 0.32246 0.73351 0.0
C1336 C 0.36184 0.34356 0.66651 0.0
N1337 N 0.36203 0.33332 0.67394 0.0
C1338 C 0.38355 0.34639 0.68441 0.0
C1339 C 0.3726 0.3345 0.68273 0.0
C1340 C 0.38363 0.35719 0.67705 0.0
C1341 C 0.3726 0.35565 0.66788 0.0
H1342 H 0.35328 0.34234 0.65966 0.0
H1343 H 0.37253 0.32622 0.68847 0.0
C1344 C 0.33579 0.27732 0.70452 0.0
N1345 N 0.33253 0.2862 0.70889 0.0
C1346 C 0.33466 0.2685 0.71837 0.0
C1347 C 0.32669 0.27804 0.74099 0.0
C1348 C 0.328 0.28672 0.72666 0.0
C1349 C 0.33007 0.26878 0.73691 0.0
H1350 H 0.33916 0.27703 0.69014 0.0
H1351 H 0.32535 0.29381 0.72969 0.0
C1352 C 0.33055 0.31384 0.6312 0.0
N1353 N 0.31788 0.31272 0.59725 0.0
C1354 C 0.32013 0.30236 0.62508 0.0
C1355 C 0.33454 0.32474 0.62003 0.0
C1356 C 0.31385 0.30199 0.60788 0.0
C1357 C 0.32801 0.32398 0.60291 0.0
C1358 C 0.30906 0.28085 0.67832 0.0
C1359 C 0.30082 0.26856 0.6715 0.0
C1360 C 0.30585 0.2853 0.69484 0.0
C1361 C 0.2895 0.2609 0.68136 0.0
C1362 C 0.29444 0.27735 0.70429 0.0
N1363 N 0.28657 0.26541 0.69741 0.0
C1364 C 0.33098 0.27556 0.6352 0.0
C1365 C 0.34302 0.29361 0.61548 0.0
C1366 C 0.3319 0.26767 0.6214 0.0
N1367 N 0.33656 0.28825 0.63207 0.0
C1368 C 0.34434 0.28608 0.60138 0.0
C1369 C 0.33879 0.27294 0.60436 0.0
H1370 H 0.32608 0.27162 0.64868 0.0
H1371 H 0.34739 0.30375 0.6134 0.0
C1372 C 0.31118 0.31985 0.67544 0.0
N1373 N 0.31002 0.309 0.66781 0.0
C1374 C 0.3009 0.32198 0.67493 0.0
C1375 C 0.28847 0.30172 0.65874 0.0
C1376 C 0.29899 0.30003 0.65943 0.0
C1377 C 0.28933 0.3128 0.66659 0.0
H1378 H 0.32009 0.32683 0.68198 0.0
H1379 H 0.29833 0.29153 0.65332 0.0
O1380 O 0.34947 0.30213 0.67242 0.0
O1381 O 0.33457 0.3134 0.69334 0.0
O1382 O 0.33688 0.31453 0.64801 0.0
O1383 O 0.32018 0.28842 0.66875 0.0
H1384 H 0.36345 0.29183 0.68123 0.0
H1385 H 0.35997 0.31764 0.64252 0.0
H1386 H 0.38307 0.29606 0.66397 0.0
H1387 H 0.37961 0.32141 0.626 0.0
H1388 H 0.3423 0.33783 0.74719 0.0
H1389 H 0.35349 0.3109 0.70795 0.0
H1390 H 0.33032 0.32803 0.71676 0.0
H1391 H 0.36504 0.32099 0.73842 0.0
H1392 H 0.39188 0.34709 0.69135 0.0
H1393 H 0.37219 0.36373 0.66221 0.0
H1394 H 0.33718 0.26141 0.7145 0.0
H1395 H 0.32321 0.27866 0.75514 0.0
H1396 H 0.31689 0.2938 0.63347 0.0
H1397 H 0.34261 0.3337 0.62455 0.0
H1398 H 0.30576 0.29317 0.603 0.0
H1399 H 0.33099 0.33235 0.59413 0.0
H1400 H 0.30315 0.26498 0.6587 0.0
H1401 H 0.31205 0.29479 0.70033 0.0
H1402 H 0.28304 0.25136 0.67624 0.0
H1403 H 0.29184 0.28067 0.71709 0.0
H1404 H 0.32761 0.2576 0.62431 0.0
H1405 H 0.34967 0.29046 0.58835 0.0
H1406 H 0.30194 0.33062 0.68121 0.0
H1407 H 0.27979 0.2945 0.65188 0.0
Li1408 Li 0.68293 0.03027 0.68001 0.0
Li1409 Li 0.70291 0.03849 0.69626 0.0
Li1410 Li 0.70277 0.0405 0.66224 0.0
Li1411 Li 0.6957 0.01946 0.67751 0.0
C1412 C 0.69251 0.05538 0.67224 0.0
N1413 N 0.68409 0.06986 0.65346 0.0
C1414 C 0.69484 0.06692 0.68025 0.0
C1415 C 0.68584 0.05118 0.65469 0.0
C1416 C 0.69052 0.07411 0.67053 0.0
C1417 C 0.68168 0.05864 0.64542 0.0
C1418 C 0.68651 0.02031 0.72002 0.0
C1419 C 0.6876 0.00989 0.74905 0.0
N1420 N 0.68499 0.01767 0.75984 0.0
C1421 C 0.68376 0.02815 0.73137 0.0
C1422 C 0.6884 0.01106 0.72888 0.0
C1423 C 0.68307 0.0267 0.7515 0.0
C1424 C 0.65714 0.01868 0.66885 0.0
N1425 N 0.66609 0.02744 0.68096 0.0
C1426 C 0.65092 0.03226 0.69448 0.0
C1427 C 0.66326 0.03427 0.69354 0.0
C1428 C 0.6414 0.02322 0.68217 0.0
C1429 C 0.6447 0.01645 0.66912 0.0
H1430 H 0.65967 0.01341 0.65897 0.0
H1431 H 0.6706 0.04127 0.7029 0.0
C1432 C 0.71852 0.06084 0.71616 0.0
N1433 N 0.71316 0.04806 0.718 0.0
C1434 C 0.72749 0.06903 0.72963 0.0
C1435 C 0.7253 0.05076 0.7468 0.0
C1436 C 0.71629 0.04291 0.73305 0.0
C1437 C 0.73112 0.06402 0.74505 0.0
H1438 H 0.71619 0.06471 0.70376 0.0
H1439 H 0.71219 0.03276 0.73403 0.0
C1440 C 0.6886 0.01871 0.63904 0.0
N1441 N 0.6914 0.00824 0.60507 0.0
C1442 C 0.70052 0.0206 0.63376 0.0
C1443 C 0.67812 0.01151 0.62697 0.0
C1444 C 0.70174 0.01523 0.61656 0.0
C1445 C 0.67972 0.0063 0.60987 0.0
C1446 C 0.72289 0.03599 0.688 0.0
C1447 C 0.73467 0.04714 0.68686 0.0
C1448 C 0.72143 0.0263 0.70044 0.0
C1449 C 0.74478 0.04844 0.69827 0.0
C1450 C 0.73177 0.02794 0.71156 0.0
N1451 N 0.74313 0.0389 0.71028 0.0
C1452 C 0.72277 0.06253 0.64755 0.0
C1453 C 0.70788 0.05026 0.62305 0.0
C1454 C 0.73044 0.07164 0.63403 0.0
N1455 N 0.7119 0.05198 0.64183 0.0
C1456 C 0.71522 0.05919 0.60903 0.0
C1457 C 0.72675 0.06998 0.61445 0.0
H1458 H 0.72542 0.06391 0.6627 0.0
H1459 H 0.69899 0.042 0.61893 0.0
C1460 C 0.68378 0.99287 0.68114 0.0
N1461 N 0.69453 0.00332 0.67499 0.0
C1462 C 0.68253 0.98085 0.67953 0.0
C1463 C 0.70342 0.99059 0.66516 0.0
C1464 C 0.70428 0.00242 0.66713 0.0
C1465 C 0.69242 0.97959 0.67136 0.0
H1466 H 0.67616 0.9939 0.68727 0.0
H1467 H 0.71274 0.01089 0.66243 0.0
O1468 O 0.69666 0.04825 0.68175 0.0
O1469 O 0.68722 0.02157 0.70032 0.0
O1470 O 0.68711 0.02376 0.65593 0.0
O1471 O 0.71278 0.03462 0.67723 0.0
H1472 H 0.6999 0.07028 0.69388 0.0
H1473 H 0.68385 0.04226 0.64826 0.0
H1474 H 0.69226 0.08306 0.67658 0.0
H1475 H 0.67652 0.05551 0.63184 0.0
H1476 H 0.68908 0.00281 0.75612 0.0
H1477 H 0.68235 0.0354 0.72473 0.0
H1478 H 0.69052 0.0049 0.7203 0.0
H1479 H 0.68103 0.03276 0.76048 0.0
H1480 H 0.64885 0.03758 0.70501 0.0
H1481 H 0.63779 0.00955 0.65913 0.0
H1482 H 0.73189 0.07919 0.72756 0.0
H1483 H 0.72782 0.04652 0.75852 0.0
H1484 H 0.70879 0.02622 0.64273 0.0
H1485 H 0.66882 0.00995 0.63074 0.0
H1486 H 0.71091 0.01663 0.61232 0.0
H1487 H 0.67168 1.0007 0.60042 0.0
H1488 H 0.73603 0.05473 0.6773 0.0
H1489 H 0.71234 0.01771 0.70186 0.0
H1490 H 0.75393 0.05705 0.69758 0.0
H1491 H 0.73074 0.02055 0.72134 0.0
H1492 H 0.73911 0.07996 0.63888 0.0
H1493 H 0.71204 0.05757 0.59407 0.0
H1494 H 0.67384 0.97261 0.68426 0.0
H1495 H 0.71132 0.99008 0.65899 0.0
Li1496 Li 0.96555 0.66924 0.69121 0.0
Li1497 Li 0.97113 0.65396 0.67573 0.0
Li1498 Li 0.98398 0.67771 0.67133 0.0
Li1499 Li 0.96359 0.66586 0.6566 0.0
C1500 C 0.9809 0.66728 0.71529 0.0
N1501 N 0.97989 0.6663 0.7553 0.0
C1502 C 0.97651 0.6557 0.72479 0.0
C1503 C 0.98483 0.67837 0.72614 0.0
C1504 C 0.97607 0.6554 0.74503 0.0
C1505 C 0.98422 0.67767 0.74636 0.0
C1506 C 0.94219 0.64745 0.67171 0.0
C1507 C 0.9241 0.63093 0.65452 0.0
N1508 N 0.91733 0.63673 0.65895 0.0
C1509 C 0.93505 0.65324 0.67609 0.0
C1510 C 0.93669 0.63621 0.66082 0.0
C1511 C 0.9225 0.64767 0.66951 0.0
C1512 C 0.95671 0.68199 0.71579 0.0
N1513 N 0.95703 0.67109 0.71299 0.0
C1514 C 0.94197 0.6608 0.73827 0.0
C1515 C 0.94999 0.66064 0.724 0.0
C1516 C 0.94115 0.6718 0.74114 0.0
C1517 C 0.94886 0.68259 0.72998 0.0
H1518 H 0.9621 0.69003 0.70645 0.0
H1519 H 0.95024 0.65202 0.72116 0.0
C1520 C 0.98316 0.63939 0.67876 0.0
N1521 N 0.97169 0.63875 0.67916 0.0
C1522 C 0.98403 0.62852 0.68213 0.0
C1523 C 0.96122 0.61653 0.68585 0.0
C1524 C 0.96083 0.62765 0.68267 0.0
C1525 C 0.97296 0.61686 0.68584 0.0
H1526 H 0.99166 0.6484 0.67616 0.0
H1527 H 0.95186 0.62747 0.6833 0.0
C1528 C 0.97764 0.69468 0.66677 0.0
N1529 N 0.99328 0.72011 0.65842 0.0
C1530 C 0.97869 0.69898 0.64772 0.0
C1531 C 0.98452 0.70333 0.68158 0.0
C1532 C 0.98664 0.71187 0.6438 0.0
C1533 C 0.99239 0.71614 0.67706 0.0
C1534 C 0.97714 0.65996 0.63268 0.0
C1535 C 0.97865 0.66837 0.61779 0.0
C1536 C 0.97417 0.64756 0.62811 0.0
C1537 C 0.97708 0.6642 0.59854 0.0
C1538 C 0.97269 0.64376 0.60868 0.0
N1539 N 0.97416 0.65209 0.59443 0.0
C1540 C 0.0092 0.69578 0.68367 0.0
C1541 C 0.0049 0.69643 0.65032 0.0
C1542 C 0.02165 0.70581 0.6814 0.0
N1543 N 1.00111 0.69134 0.66824 0.0
C1544 C 0.01719 0.70649 0.64741 0.0
C1545 C 0.02581 0.71131 0.66304 0.0
H1546 H 0.00602 0.69149 0.69774 0.0
H1547 H 0.99833 0.69276 0.63828 0.0
C1548 C 0.94755 0.67216 0.63637 0.0
N1549 N 0.95218 0.66405 0.63582 0.0
C1550 C 0.93794 0.6706 0.62362 0.0
C1551 C 0.93795 0.65232 0.60985 0.0
C1552 C 0.94756 0.65423 0.62292 0.0
C1553 C 0.93291 0.66049 0.61026 0.0
H1554 H 0.95101 0.6796 0.64721 0.0
H1555 H 0.95089 0.64751 0.62331 0.0
O1556 O 0.98115 0.66773 0.69546 0.0
O1557 O 0.95462 0.65297 0.67754 0.0
O1558 O 0.97012 0.68205 0.67086 0.0
O1559 O 0.97874 0.66386 0.65162 0.0
H1560 H 0.97339 0.64701 0.71665 0.0
H1561 H 0.98817 0.68739 0.71904 0.0
H1562 H 0.97265 0.6465 0.75257 0.0
H1563 H 0.98716 0.68617 0.75493 0.0
H1564 H 0.91975 0.62229 0.64598 0.0
H1565 H 0.93921 0.66205 0.68419 0.0
H1566 H 0.94215 0.63175 0.65688 0.0
H1567 H 0.9169 0.65209 0.67269 0.0
H1568 H 0.93626 0.65231 0.74668 0.0
H1569 H 0.94837 0.6912 0.73154 0.0
H1570 H 0.99332 0.62936 0.68234 0.0
H1571 H 0.95241 0.60778 0.68839 0.0
H1572 H 0.97359 0.69243 0.63602 0.0
H1573 H 0.98396 0.70017 0.69636 0.0
H1574 H 0.98759 0.71531 0.62911 0.0
H1575 H 0.99784 0.72291 0.68836 0.0
H1576 H 0.98077 0.67792 0.62103 0.0
H1577 H 0.97298 0.64092 0.63941 0.0
H1578 H 0.97813 0.67058 0.58689 0.0
H1579 H 0.97036 0.63419 0.60493 0.0
H1580 H 0.02799 0.70909 0.69383 0.0
H1581 H 0.01984 0.71055 0.63306 0.0
H1582 H 0.9344 0.67717 0.62439 0.0
H1583 H 0.93417 0.64426 0.60005 0.0
H1584 H 0.14952 0.31453 0.13829 0.0
H1585 H 0.151 0.32411 0.07783 0.0
H1586 H 0.1349 0.33837 0.11924 0.0
H1587 H 0.15322 0.30228 0.11287 0.0
H1588 H 0.15463 0.30685 0.08797 0.0
H1589 H 0.17074 0.31631 0.13675 0.0
H1590 H 0.20805 0.3368 0.11189 0.0
H1591 H 0.17524 0.32129 0.0748 0.0
C1592 C 0.14783 0.31959 0.12683 0.0
C1593 C 0.14209 0.32684 0.13121 0.0
C1594 C 0.15126 0.31872 0.10765 0.0
C1595 C 0.1487 0.325 0.09271 0.0
C1596 C 0.143 0.33229 0.09698 0.0
C1597 C 0.13986 0.33322 0.11619 0.0
C1598 C 0.1571 0.31062 0.10305 0.0
C1599 C 0.17135 0.31818 0.10555 0.0
C1600 C 0.1768 0.32021 0.12421 0.0
C1601 C 0.19006 0.32708 0.12669 0.0
C1602 C 0.19779 0.33194 0.11031 0.0
C1603 C 0.19252 0.32985 0.09168 0.0
C1604 C 0.1793 0.32303 0.08927 0.0
H1605 H 0.6917 0.83738 0.13089 0.0
H1606 H 0.68252 0.82971 0.07004 0.0
H1607 H 0.66749 0.79911 0.11085 0.0
H1608 H 0.70418 0.85353 0.10577 0.0
H1609 H 0.69955 0.85059 0.08078 0.0
H1610 H 0.69057 0.85716 0.1297 0.0
H1611 H 0.66906 0.87317 0.10571 0.0
H1612 H 0.68482 0.8566 0.06786 0.0
C1613 C 0.68665 0.83074 0.11922 0.0
C1614 C 0.67918 0.81773 0.12327 0.0
C1615 C 0.6877 0.83518 0.10007 0.0
C1616 C 0.68147 0.82643 0.08488 0.0
C1617 C 0.67401 0.81343 0.08885 0.0
C1618 C 0.67281 0.80923 0.108 0.0
C1619 C 0.69582 0.84916 0.09582 0.0
C1620 C 0.68827 0.85581 0.09853 0.0
C1621 C 0.6864 0.85918 0.11727 0.0
C1622 C 0.67934 0.86531 0.11999 0.0
C1623 C 0.67409 0.86798 0.10381 0.0
C1624 C 0.67614 0.86499 0.08505 0.0
C1625 C 0.68317 0.85884 0.0824 0.0
H1626 H 0.162 0.81216 0.13911 0.0
H1627 H 0.16512 0.81234 0.07687 0.0
H1628 H 0.12842 0.7962 0.10337 0.0
H1629 H 0.18176 0.81623 0.12389 0.0
H1630 H 0.18292 0.81566 0.09816 0.0
H1631 H 0.18786 0.83606 0.14034 0.0
H1632 H 0.20544 0.87036 0.10693 0.0
H1633 H 0.18681 0.83423 0.07782 0.0
C1634 C 0.15757 0.8103 0.1249 0.0
C1635 C 0.14426 0.8038 0.12325 0.0
C1636 C 0.16518 0.81357 0.10818 0.0
C1637 C 0.15936 0.81038 0.08975 0.0
C1638 C 0.14609 0.80422 0.08797 0.0
C1639 C 0.13869 0.80128 0.10474 0.0
C1640 C 0.17936 0.81924 0.11004 0.0
C1641 C 0.1861 0.83354 0.10919 0.0
C1642 C 0.1899 0.84079 0.12643 0.0
C1643 C 0.19712 0.8541 0.12566 0.0
C1644 C 0.19979 0.86009 0.10758 0.0
C1645 C 0.19618 0.85304 0.09029 0.0
C1646 C 0.18933 0.83974 0.09114 0.0
H1647 H 0.34589 0.18827 0.8811 0.0
H1648 H 0.35085 0.19045 0.94309 0.0
H1649 H 0.3319 0.20806 0.91556 0.0
H1650 H 0.36245 0.18505 0.89736 0.0
H1651 H 0.36281 0.18394 0.9231 0.0
H1652 H 0.34616 0.1673 0.87767 0.0
H1653 H 0.32961 0.13049 0.90405 0.0
H1654 H 0.349 0.16405 0.93941 0.0
C1655 C 0.34403 0.19097 0.89516 0.0
C1656 C 0.33815 0.19836 0.89634 0.0
C1657 C 0.34847 0.18792 0.91203 0.0
C1658 C 0.34691 0.19226 0.93018 0.0
C1659 C 0.34093 0.19956 0.93156 0.0
C1660 C 0.33624 0.20216 0.91464 0.0
C1661 C 0.3563 0.1815 0.9104 0.0
C1662 C 0.34799 0.16727 0.90882 0.0
C1663 C 0.34372 0.16147 0.89055 0.0
C1664 C 0.33699 0.14818 0.88873 0.0
C1665 C 0.33417 0.14073 0.90546 0.0
C1666 C 0.33855 0.14636 0.92373 0.0
C1667 C 0.34532 0.15965 0.92539 0.0
H1668 H 0.85304 0.17031 0.88937 0.0
H1669 H 0.85556 0.17478 0.95156 0.0
H1670 H 0.87116 0.20758 0.91495 0.0
H1671 H 0.85128 0.15295 0.91296 0.0
H1672 H 0.848 0.15409 0.93788 0.0
H1673 H 0.83534 0.14882 0.88739 0.0
H1674 H 0.79669 0.1335 0.90555 0.0
H1675 H 0.82679 0.1496 0.94786 0.0
C1676 C 0.85568 0.17635 0.9021 0.0
C1677 C 0.86204 0.1896 0.8999 0.0
C1678 C 0.853 0.17089 0.92071 0.0
C1679 C 0.85708 0.17885 0.93718 0.0
C1680 C 0.86347 0.1921 0.9351 0.0
C1681 C 0.86568 0.19734 0.91649 0.0
C1682 C 0.84669 0.15665 0.92292 0.0
C1683 C 0.8327 0.15031 0.9181 0.0
C1684 C 0.82852 0.14699 0.89877 0.0
C1685 C 0.81555 0.14111 0.89414 0.0
C1686 C 0.80676 0.13856 0.90896 0.0
C1687 C 0.81069 0.14143 0.92835 0.0
C1688 C 0.8237 0.14742 0.93288 0.0
H1689 H 0.83621 0.65718 0.87402 0.0
H1690 H 0.83673 0.6524 0.93576 0.0
H1691 H 0.87167 0.6702 0.90391 0.0
H1692 H 0.81723 0.64046 0.89212 0.0
H1693 H 0.81715 0.64058 0.91796 0.0
H1694 H 0.81673 0.65797 0.87349 0.0
H1695 H 0.79617 0.67349 0.90183 0.0
H1696 H 0.81044 0.65344 0.93509 0.0
C1697 C 0.84149 0.65886 0.88744 0.0
C1698 C 0.85479 0.66473 0.88696 0.0
C1699 C 0.8349 0.65455 0.90504 0.0
C1700 C 0.84177 0.65615 0.92228 0.0
C1701 C 0.85507 0.66192 0.922 0.0
C1702 C 0.86148 0.66641 0.90436 0.0
C1703 C 0.82058 0.64685 0.90503 0.0
C1704 C 0.81469 0.65521 0.90448 0.0
C1705 C 0.81324 0.65998 0.88669 0.0
C1706 C 0.80679 0.66682 0.88574 0.0
C1707 C 0.80187 0.66894 0.90279 0.0
C1708 C 0.80301 0.66408 0.92065 0.0
C1709 C 0.80965 0.65739 0.92145 0.0
H1710 H 0.8098 0.6417 0.46565 0.0
H1711 H 0.81368 0.65423 0.40634 0.0
H1712 H 0.79619 0.66666 0.44839 0.0
H1713 H 0.81468 0.63081 0.43877 0.0
H1714 H 0.81818 0.63749 0.41497 0.0
H1715 H 0.82998 0.64225 0.46647 0.0
H1716 H 0.86899 0.66595 0.45027 0.0
H1717 H 0.83969 0.65342 0.40683 0.0
C1718 C 0.80866 0.64737 0.4546 0.0
C1719 C 0.80282 0.65445 0.45934 0.0
C1720 C 0.81294 0.64752 0.43561 0.0
C1721 C 0.81084 0.65442 0.42116 0.0
C1722 C 0.80488 0.66142 0.4258 0.0
C1723 C 0.80116 0.66159 0.44495 0.0
C1724 C 0.81929 0.63992 0.43069 0.0
C1725 C 0.83321 0.64725 0.43611 0.0
C1726 C 0.83702 0.6475 0.45551 0.0
C1727 C 0.84991 0.65443 0.46075 0.0
C1728 C 0.85897 0.66105 0.44644 0.0
C1729 C 0.85541 0.66064 0.427 0.0
C1730 C 0.84249 0.65379 0.42187 0.0
H1731 H 0.36284 0.17035 0.4649 0.0
H1732 H 0.35141 0.16155 0.40497 0.0
H1733 H 0.33841 0.13169 0.44713 0.0
H1734 H 0.37416 0.18614 0.43873 0.0
H1735 H 0.36855 0.1827 0.4142 0.0
H1736 H 0.36118 0.18976 0.46405 0.0
H1737 H 0.33828 0.20481 0.44239 0.0
H1738 H 0.35336 0.18847 0.40276 0.0
C1739 C 0.35741 0.1635 0.45364 0.0
C1740 C 0.35023 0.15058 0.45829 0.0
C1741 C 0.35766 0.16757 0.43448 0.0
C1742 C 0.35097 0.15851 0.41984 0.0
C1743 C 0.34392 0.14553 0.42434 0.0
C1744 C 0.34345 0.14173 0.44364 0.0
C1745 C 0.36542 0.18149 0.42957 0.0
C1746 C 0.35781 0.18799 0.43307 0.0
C1747 C 0.3565 0.1915 0.45203 0.0
C1748 C 0.34931 0.19741 0.45549 0.0
C1749 C 0.34342 0.19979 0.43988 0.0
C1750 C 0.34498 0.19676 0.42087 0.0
C1751 C 0.3521 0.19077 0.41748 0.0
H1752 H 0.82537 0.14868 0.47177 0.0
H1753 H 0.82829 0.14605 0.4099 0.0
H1754 H 0.79165 0.12849 0.437 0.0
H1755 H 0.84514 0.15174 0.45623 0.0
H1756 H 0.84657 0.15212 0.43051 0.0
H1757 H 0.84476 0.16988 0.4738 0.0
H1758 H 0.86903 0.20609 0.44779 0.0
H1759 H 0.8554 0.17194 0.4139 0.0
C1760 C 0.82087 0.14592 0.45763 0.0
C1761 C 0.80759 0.13851 0.45628 0.0
C1762 C 0.82841 0.14883 0.44089 0.0
C1763 C 0.82251 0.14435 0.4227 0.0
C1764 C 0.80922 0.13702 0.42117 0.0
C1765 C 0.80189 0.1345 0.43797 0.0
C1766 C 0.84266 0.15505 0.44276 0.0
C1767 C 0.84897 0.16935 0.44355 0.0
C1768 C 0.84944 0.17547 0.4611 0.0
C1769 C 0.85648 0.18877 0.46259 0.0
C1770 C 0.86293 0.1959 0.44626 0.0
C1771 C 0.86273 0.18997 0.42866 0.0
C1772 C 0.85549 0.17666 0.42731 0.0
H1773 H 0.02491 0.52642 0.20378 0.0
H1774 H 0.02808 0.52991 0.26599 0.0
H1775 H 0.01144 0.54822 0.23391 0.0
H1776 H 0.04029 0.52248 0.22218 0.0
H1777 H 0.04036 0.52257 0.24806 0.0
H1778 H 0.02098 0.5049 0.20414 0.0
H1779 H 0.00497 0.46876 0.23249 0.0
H1780 H 0.02839 0.50297 0.2648 0.0
C1781 C 0.02301 0.52972 0.21727 0.0
C1782 C 0.01719 0.53719 0.21685 0.0
C1783 C 0.02678 0.52688 0.23498 0.0
C1784 C 0.02482 0.53173 0.25238 0.0
C1785 C 0.01916 0.53936 0.25213 0.0
C1786 C 0.0152 0.54182 0.23433 0.0
C1787 C 0.03402 0.5198 0.2351 0.0
C1788 C 0.02517 0.5056 0.23473 0.0
C1789 C 0.01934 0.4994 0.21723 0.0
C1790 C 0.01188 0.4861 0.21635 0.0
C1791 C 0.01012 0.47905 0.23327 0.0
C1792 C 0.01611 0.48503 0.25071 0.0
C1793 C 0.02353 0.49833 0.25144 0.0
H1794 H 0.52353 0.49896 0.22303 0.0
H1795 H 0.5216 0.50954 0.28216 0.0
H1796 H 0.53836 0.53814 0.2382 0.0
H1797 H 0.51899 0.48387 0.25069 0.0
H1798 H 0.5163 0.48788 0.27451 0.0
H1799 H 0.50316 0.4804 0.22358 0.0
H1800 H 0.46466 0.46545 0.24218 0.0
H1801 H 0.495 0.48187 0.28407 0.0
C1802 C 0.5251 0.50613 0.23376 0.0
C1803 C 0.53102 0.51892 0.22825 0.0
C1804 C 0.5213 0.5026 0.25309 0.0
C1805 C 0.52404 0.5121 0.2671 0.0
C1806 C 0.53012 0.52493 0.26171 0.0
C1807 C 0.53329 0.5282 0.24225 0.0
C1808 C 0.51479 0.48879 0.25881 0.0
C1809 C 0.50075 0.4823 0.25425 0.0
C1810 C 0.49644 0.47874 0.23503 0.0
C1811 C 0.48344 0.47289 0.23056 0.0
C1812 C 0.47476 0.47051 0.24546 0.0
C1813 C 0.47881 0.47354 0.26477 0.0
C1814 C 0.49184 0.47955 0.26914 0.0
H1815 H 0.49587 0.97734 0.20325 0.0
H1816 H 0.4981 0.97491 0.26533 0.0
H1817 H 0.53222 0.99422 0.23175 0.0
H1818 H 0.47761 0.96095 0.22271 0.0
H1819 H 0.47817 0.96165 0.24859 0.0
H1820 H 0.47535 0.97717 0.20359 0.0
H1821 H 0.457 0.99462 0.23319 0.0
H1822 H 0.4722 0.97521 0.26589 0.0
C1823 C 0.50147 0.97982 0.21646 0.0
C1824 C 0.51479 0.98667 0.2154 0.0
C1825 C 0.49536 0.97575 0.23447 0.0
C1826 C 0.50272 0.97844 0.25149 0.0
C1827 C 0.51604 0.98527 0.25057 0.0
C1828 C 0.52194 0.98954 0.23256 0.0
C1829 C 0.48109 0.9676 0.2353 0.0
C1830 C 0.47485 0.97564 0.23484 0.0
C1831 C 0.47255 0.97974 0.21699 0.0
C1832 C 0.4663 0.98679 0.21636 0.0
C1833 C 0.46245 0.98979 0.23374 0.0
C1834 C 0.46442 0.9856 0.25164 0.0
C1835 C 0.47076 0.97862 0.25214 0.0
H1836 H 0.4822 0.98496 0.80404 0.0
H1837 H 0.48467 0.99595 0.74411 0.0
H1838 H 0.46887 0.01007 0.78643 0.0
H1839 H 0.48627 0.97331 0.77834 0.0
H1840 H 0.48754 0.97805 0.75354 0.0
H1841 H 0.504 0.988 0.80222 0.0
H1842 H 0.54118 0.00668 0.77684 0.0
H1843 H 0.50816 0.99113 0.74008 0.0
C1844 C 0.48095 0.99047 0.79284 0.0
C1845 C 0.47549 0.99792 0.79755 0.0
C1846 C 0.48458 0.98996 0.77365 0.0
C1847 C 0.48233 0.99667 0.75903 0.0
C1848 C 0.47677 0.00406 0.76362 0.0
C1849 C 0.47365 0.00481 0.78294 0.0
C1850 C 0.49019 0.98172 0.76865 0.0
C1851 C 0.50446 0.98905 0.77093 0.0
C1852 C 0.51001 0.99142 0.78955 0.0
C1853 C 0.52328 0.99796 0.79182 0.0
C1854 C 0.53094 0.00217 0.77528 0.0
C1855 C 0.52559 0.9997 0.75663 0.0
C1856 C 0.51233 0.99319 0.75449 0.0
H1857 H 0.01575 0.49744 0.802 0.0
H1858 H 0.00825 0.49129 0.74062 0.0
H1859 H 0.99402 0.45953 0.77929 0.0
H1860 H 0.02908 0.51408 0.77641 0.0
H1861 H 0.02298 0.51223 0.75228 0.0
H1862 H 0.01881 0.51869 0.80384 0.0
H1863 H 0.99526 0.53447 0.78928 0.0
H1864 H 0.0061 0.51695 0.74485 0.0
C1865 C 0.01112 0.49107 0.78986 0.0
C1866 C 0.00434 0.47791 0.79296 0.0
C1867 C 0.01228 0.49602 0.77107 0.0
C1868 C 0.00689 0.48761 0.75525 0.0
C1869 C 1.00018 0.47444 0.75821 0.0
C1870 C 0.99868 0.46971 0.77711 0.0
C1871 C 0.02015 0.51015 0.76776 0.0
C1872 C 0.01299 0.51676 0.77376 0.0
C1873 C 0.01331 0.52046 0.79321 0.0
C1874 C 0.00671 0.52663 0.79892 0.0
C1875 C 0.99984 0.52915 0.78504 0.0
C1876 C 0.99966 0.52584 0.7655 0.0
C1877 C 0.00616 0.51951 0.75993 0.0
H1878 H 0.49497 0.48173 0.80286 0.0
H1879 H 0.4986 0.4794 0.74113 0.0
H1880 H 0.46162 0.46187 0.7671 0.0
H1881 H 0.51499 0.48474 0.78745 0.0
H1882 H 0.51686 0.48622 0.7618 0.0
H1883 H 0.51631 0.50221 0.80746 0.0
H1884 H 0.53646 0.53933 0.78217 0.0
H1885 H 0.5225 0.50623 0.7458 0.0
C1886 C 0.49059 0.47895 0.78863 0.0
C1887 C 0.47732 0.47159 0.78693 0.0
C1888 C 0.49833 0.48195 0.77211 0.0
C1889 C 0.49266 0.47755 0.75377 0.0
C1890 C 0.47939 0.47024 0.75184 0.0
C1891 C 0.47185 0.4677 0.76842 0.0
C1892 C 0.51257 0.48844 0.77436 0.0
C1893 C 0.5184 0.50264 0.77634 0.0
C1894 C 0.51979 0.5082 0.79476 0.0
C1895 C 0.52616 0.52146 0.79694 0.0
C1896 C 0.53089 0.5291 0.78043 0.0
C1897 C 0.52969 0.52374 0.76195 0.0
C1898 C 0.52328 0.51046 0.75996 0.0
H1899 H 0.67931 0.85522 0.54548 0.0
H1900 H 0.68606 0.85813 0.60706 0.0
H1901 H 0.66511 0.87422 0.58135 0.0
H1902 H 0.69718 0.85345 0.56061 0.0
H1903 H 0.69794 0.8521 0.58623 0.0
H1904 H 0.68246 0.83533 0.54071 0.0
H1905 H 0.66722 0.79862 0.56679 0.0
H1906 H 0.68334 0.8321 0.60276 0.0
C1907 C 0.6777 0.85792 0.55972 0.0
C1908 C 0.67137 0.86486 0.56149 0.0
C1909 C 0.68289 0.85533 0.57616 0.0
C1910 C 0.68162 0.85965 0.59451 0.0
C1911 C 0.67526 0.86656 0.59651 0.0
C1912 C 0.66982 0.86869 0.58001 0.0
C1913 C 0.69122 0.84951 0.57378 0.0
C1914 C 0.68347 0.83525 0.57197 0.0
C1915 C 0.68 0.82947 0.55356 0.0
C1916 C 0.67391 0.81621 0.55165 0.0
C1917 C 0.67114 0.80877 0.56837 0.0
C1918 C 0.67452 0.81434 0.5869 0.0
C1919 C 0.68051 0.82763 0.5886 0.0
H1920 H 0.19138 0.8305 0.55651 0.0
H1921 H 0.18835 0.84117 0.61513 0.0
H1922 H 0.20559 0.86964 0.57102 0.0
H1923 H 0.18644 0.81549 0.58441 0.0
H1924 H 0.18334 0.81953 0.60795 0.0
H1925 H 0.17109 0.8126 0.55635 0.0
H1926 H 0.1322 0.79658 0.57347 0.0
H1927 H 0.16175 0.8126 0.61666 0.0
C1928 C 0.19268 0.83767 0.56707 0.0
C1929 C 0.19852 0.85042 0.56142 0.0
C1930 C 0.18858 0.83418 0.5863 0.0
C1931 C 0.19102 0.8437 0.60013 0.0
C1932 C 0.19712 0.85652 0.59463 0.0
C1933 C 0.20054 0.85972 0.57521 0.0
C1934 C 0.18206 0.82037 0.59214 0.0
C1935 C 0.16808 0.81374 0.58702 0.0
C1936 C 0.16414 0.81054 0.56758 0.0
C1937 C 0.15122 0.8046 0.56257 0.0
C1938 C 0.14223 0.80169 0.57718 0.0
C1939 C 0.1459 0.80438 0.59669 0.0
C1940 C 0.15887 0.81051 0.60159 0.0
H1941 H 0.17044 0.31855 0.54335 0.0
H1942 H 0.17209 0.31603 0.60543 0.0
H1943 H 0.20646 0.33307 0.57208 0.0
H1944 H 0.15173 0.30304 0.56205 0.0
H1945 H 0.15234 0.30272 0.58788 0.0
H1946 H 0.15255 0.32242 0.54567 0.0
H1947 H 0.13097 0.3359 0.57656 0.0
H1948 H 0.1438 0.31332 0.60602 0.0
C1949 C 0.17595 0.32074 0.55662 0.0
C1950 C 0.18926 0.32681 0.55568 0.0
C1951 C 0.1697 0.31698 0.57456 0.0
C1952 C 0.1769 0.3193 0.59166 0.0
C1953 C 0.19021 0.32523 0.59092 0.0
C1954 C 0.19627 0.32915 0.57291 0.0
C1955 C 0.15539 0.3092 0.57519 0.0
C1956 C 0.14945 0.3175 0.57601 0.0
C1957 C 0.14859 0.32349 0.55911 0.0
C1958 C 0.14205 0.33028 0.55924 0.0
C1959 C 0.13663 0.33128 0.57659 0.0
C1960 C 0.13713 0.32513 0.59344 0.0
C1961 C 0.14367 0.31835 0.59315 0.0
C1962 C 0.00827 0.42145 0.08306 0.0
C1963 C 0.99816 0.40885 0.082 0.0
C1964 C 0.00771 0.43021 0.09554 0.0
C1965 C 0.99239 0.43191 0.14032 0.0
H1966 H 0.00662 0.46726 0.126 0.0
C1967 C 0.99536 0.46833 0.19598 0.0
C1968 C 0.00741 0.47928 0.19753 0.0
C1969 C 0.99218 0.46037 0.17977 0.0
C1970 C 0.00262 0.45743 0.13022 0.0
H1971 H 0.97939 0.39567 0.09291 0.0
H1972 H 0.97843 0.41098 0.11481 0.0
H1973 H 0.00503 0.45182 0.1018 0.0
H1974 H 0.02526 0.49089 0.18276 0.0
H1975 H 0.01975 0.47703 0.15453 0.0
H1976 H 0.99032 0.43752 0.16883 0.0
C1977 C 0.98686 0.41403 0.10611 0.0
C1978 C 0.00173 0.44859 0.11638 0.0
C1979 C 0.98742 0.40525 0.0936 0.0
C1980 C 0.01585 0.4826 0.18191 0.0
C1981 C 0.01269 0.47462 0.16571 0.0
C1982 C 0.99329 0.44074 0.15415 0.0
C1983 C 0.99703 0.4266 0.10729 0.0
C1984 C 0.99683 0.43577 0.12138 0.0
C1985 C 1.001 0.46317 0.16479 0.0
C1986 C 0.99863 0.45365 0.14937 0.0
H1987 H 0.01678 0.42449 0.07455 0.0
H1988 H 0.01582 0.43974 0.09636 0.0
H1989 H 0.98873 0.42216 0.14474 0.0
H1990 H 0.9886 0.46563 0.20771 0.0
H1991 H 0.98299 0.45176 0.17931 0.0
C1992 C 0.60029 0.59117 0.1107 0.0
C1993 C 0.59794 0.58962 0.09061 0.0
C1994 C 0.59263 0.58144 0.12349 0.0
C1995 C 0.5606 0.55416 0.12813 0.0
H1996 H 0.57498 0.546 0.17229 0.0
C1997 C 0.54446 0.51968 0.20034 0.0
C1998 C 0.53593 0.52301 0.2084 0.0
C1999 C 0.5511 0.5256 0.18344 0.0
C2000 C 0.57081 0.54802 0.15988 0.0
H2001 H 0.58594 0.57637 0.06824 0.0
H2002 H 0.57243 0.55955 0.09066 0.0
H2003 H 0.58905 0.56093 0.14798 0.0
H2004 H 0.52696 0.53438 0.20456 0.0
H2005 H 0.53841 0.5446 0.17495 0.0
H2006 H 0.54236 0.54151 0.14032 0.0
C2007 C 0.58015 0.56835 0.09646 0.0
C2008 C 0.57887 0.55668 0.14609 0.0
C2009 C 0.58786 0.57802 0.08364 0.0
C2010 C 0.53351 0.53168 0.1986 0.0
C2011 C 0.54003 0.53748 0.18163 0.0
C2012 C 0.55254 0.54559 0.14202 0.0
C2013 C 0.5824 0.56998 0.11652 0.0
C2014 C 0.57386 0.56 0.13025 0.0
C2015 C 0.5492 0.53482 0.17423 0.0
C2016 C 0.55757 0.54259 0.1582 0.0
H2017 H 0.60784 0.60001 0.11661 0.0
H2018 H 0.59449 0.58304 0.13892 0.0
H2019 H 0.55646 0.55659 0.11612 0.0
H2020 H 0.54656 0.51309 0.20772 0.0
H2021 H 0.55804 0.5233 0.17795 0.0
C2022 C 0.40427 0.00886 0.10062 0.0
C2023 C 0.39629 0.99839 0.08881 0.0
C2024 C 0.41313 0.00837 0.11303 0.0
C2025 C 0.43052 0.991 0.12127 0.0
H2026 H 0.43532 0.00522 0.17306 0.0
C2027 C 0.45548 0.98019 0.18398 0.0
C2028 C 0.46227 0.98981 0.19776 0.0
C2029 C 0.44914 0.98222 0.16866 0.0
C2030 C 0.43428 0.0014 0.15853 0.0
H2031 H 0.3914 0.9792 0.0808 0.0
H2032 H 0.40657 0.97822 0.10285 0.0
H2033 H 0.42039 0.00654 0.15103 0.0
H2034 H 0.46872 0.0094 0.20538 0.0
H2035 H 0.45785 0.01303 0.17848 0.0
H2036 H 0.44428 0.98564 0.12902 0.0
C2037 C 0.40612 0.98688 0.10231 0.0
C2038 C 0.42568 0.00214 0.1459 0.0
C2039 C 0.39727 0.98737 0.08988 0.0
C2040 C 0.46343 0.00178 0.19508 0.0
C2041 C 0.45713 0.00382 0.17976 0.0
C2042 C 0.43913 0.99024 0.13395 0.0
C2043 C 0.4142 0.9974 0.11396 0.0
C2044 C 0.42363 0.99688 0.12716 0.0
C2045 C 0.44951 0.99391 0.16683 0.0
C2046 C 0.44106 0.99538 0.15276 0.0
H2047 H 0.4037 0.01746 0.10026 0.0
H2048 H 0.41927 0.01668 0.12169 0.0
H2049 H 0.42931 0.98703 0.10682 0.0
H2050 H 0.45433 0.97083 0.1858 0.0
H2051 H 0.44331 0.97437 0.159 0.0
C2052 C 0.41002 0.99292 0.93598 0.0
C2053 C 0.40073 0.99564 0.92914 0.0
C2054 C 0.41896 0.99288 0.92335 0.0
C2055 C 0.43395 0.00557 0.87599 0.0
H2056 H 0.4449 0.98069 0.87995 0.0
C2057 C 0.47292 0.00893 0.82629 0.0
C2058 C 0.47031 0.99757 0.81706 0.0
C2059 C 0.46592 0.00872 0.84241 0.0
C2060 C 0.44193 0.98769 0.87864 0.0
H2061 H 0.39346 1.00025 0.90355 0.0
H2062 H 0.40882 0.99985 0.88144 0.0
H2063 H 0.42891 0.97977 0.90227 0.0
H2064 H 0.4589 0.97707 0.81804 0.0
H2065 H 0.44649 0.97665 0.84607 0.0
H2066 H 0.44654 0.01322 0.85198 0.0
C2067 C 0.40934 0.99797 0.89666 0.0
C2068 C 0.43284 0.98723 0.89153 0.0
C2069 C 0.40042 0.99803 0.90929 0.0
C2070 C 0.46117 0.98595 0.82503 0.0
C2071 C 0.45406 0.98574 0.84108 0.0
C2072 C 0.44298 0.00601 0.86311 0.0
C2073 C 0.41882 0.99555 0.90357 0.0
C2074 C 0.42867 0.9961 0.89023 0.0
C2075 C 0.45603 0.99715 0.84949 0.0
C2076 C 0.44705 0.99705 0.86419 0.0
H2077 H 0.41041 0.99084 0.95114 0.0
H2078 H 0.42616 0.99104 0.92918 0.0
H2079 H 0.43112 0.01267 0.87476 0.0
H2080 H 0.47999 0.01801 0.82046 0.0
H2081 H 0.46791 0.01767 0.84885 0.0
C2082 C 0.01827 0.41483 0.91694 0.0
C2083 C 0.00683 0.40461 0.92375 0.0
C2084 C 0.01819 0.4237 0.90422 0.0
C2085 C 0.99748 0.43595 0.88639 0.0
H2086 H 0.02228 0.44987 0.84515 0.0
C2087 C 0.99325 0.46211 0.81936 0.0
C2088 C 0.00444 0.4724 0.81206 0.0
C2089 C 0.99373 0.45521 0.83518 0.0
C2090 C 0.01542 0.44622 0.85679 0.0
H2091 H 0.98628 0.39569 0.92225 0.0
H2092 H 0.98614 0.41084 0.89946 0.0
H2093 H 0.02262 0.43455 0.86738 0.0
H2094 H 0.0248 0.48397 0.81619 0.0
H2095 H 0.02565 0.47194 0.84393 0.0
H2096 H 0.99006 0.44738 0.87526 0.0
C2097 C 0.9952 0.41217 0.90431 0.0
C2098 C 0.0156 0.43742 0.86955 0.0
C2099 C 0.99529 0.40334 0.91715 0.0
C2100 C 0.01602 0.47615 0.82161 0.0
C2101 C 0.01652 0.46917 0.83733 0.0
C2102 C 0.99724 0.44468 0.8735 0.0
C2103 C 0.00666 0.42254 0.89783 0.0
C2104 C 0.00659 0.4321 0.88446 0.0
C2105 C 0.00543 0.45841 0.8439 0.0
C2106 C 0.00618 0.44987 0.85852 0.0
H2107 H 0.02734 0.41603 0.92151 0.0
H2108 H 0.0272 0.43161 0.89969 0.0
H2109 H 0.99055 0.43225 0.89792 0.0
H2110 H 0.9842 0.45905 0.81226 0.0
H2111 H 0.98504 0.44694 0.83985 0.0
C2112 C 0.59664 0.5974 0.91279 0.0
C2113 C 0.59264 0.59913 0.93106 0.0
C2114 C 0.58805 0.58808 0.90003 0.0
C2115 C 0.55389 0.56802 0.88887 0.0
H2116 H 0.56519 0.54792 0.86058 0.0
C2117 C 0.52917 0.53875 0.81999 0.0
C2118 C 0.52959 0.52759 0.81638 0.0
C2119 C 0.53501 0.54612 0.83648 0.0
C2120 C 0.56179 0.5533 0.86857 0.0
H2121 H 0.57642 0.59238 0.95021 0.0
H2122 H 0.56143 0.57621 0.92784 0.0
H2123 H 0.57942 0.56379 0.8839 0.0
H2124 H 0.53563 0.5149 0.82798 0.0
H2125 H 0.54559 0.52762 0.85701 0.0
H2126 H 0.53625 0.55752 0.87343 0.0
C2127 C 0.57119 0.58215 0.92333 0.0
C2128 C 0.57003 0.56254 0.88172 0.0
C2129 C 0.57979 0.59146 0.93612 0.0
C2130 C 0.53509 0.52342 0.83038 0.0
C2131 C 0.54094 0.5308 0.84688 0.0
C2132 C 0.54564 0.55879 0.87564 0.0
C2133 C 0.57525 0.58027 0.90522 0.0
C2134 C 0.56624 0.57012 0.89184 0.0
C2135 C 0.54139 0.54247 0.84973 0.0
C2136 C 0.54955 0.55141 0.86519 0.0
H2137 H 0.60642 0.60327 0.90832 0.0
H2138 H 0.59143 0.58702 0.88602 0.0
H2139 H 0.55071 0.57375 0.89639 0.0
H2140 H 0.5249 0.54213 0.80952 0.0
H2141 H 0.5352 0.55506 0.83819 0.0
C2142 C 0.01892 0.60068 0.92648 0.0
C2143 C 0.00685 0.59839 0.93204 0.0
C2144 C 0.02016 0.59186 0.91499 0.0
C2145 C 0.00241 0.55827 0.89804 0.0
H2146 H 0.02595 0.57096 0.85505 0.0
C2147 C 0.99686 0.52978 0.82856 0.0
C2148 C 0.00778 0.53163 0.81886 0.0
C2149 C 0.99792 0.53654 0.84551 0.0
C2150 C 0.01952 0.56724 0.86722 0.0
H2151 H 0.98662 0.58516 0.92975 0.0
H2152 H 0.98873 0.5699 0.90952 0.0
H2153 H 0.02556 0.58586 0.87829 0.0
H2154 H 0.02835 0.54138 0.81982 0.0
H2155 H 0.03022 0.55322 0.84961 0.0
H2156 H 0.99603 0.53966 0.88643 0.0
C2157 C 0.99728 0.57834 0.91438 0.0
C2158 C 0.01928 0.57579 0.88054 0.0
C2159 C 0.99606 0.58711 0.92591 0.0
C2160 C 0.01978 0.53973 0.8271 0.0
C2161 C 0.02085 0.54659 0.84401 0.0
C2162 C 0.00261 0.54972 0.88466 0.0
C2163 C 0.00934 0.58059 0.90877 0.0
C2164 C 0.01052 0.57143 0.89586 0.0
C2165 C 0.00993 0.54535 0.85304 0.0
C2166 C 0.01098 0.55413 0.86887 0.0
H2167 H 0.02743 0.60919 0.93124 0.0
H2168 H 0.02959 0.59383 0.91112 0.0
H2169 H 0.99574 0.55457 0.90991 0.0
H2170 H 0.98751 0.52355 0.8225 0.0
H2171 H 0.98933 0.53543 0.85203 0.0
C2172 C 0.41159 0.42554 0.93239 0.0
C2173 C 0.40232 0.41295 0.92786 0.0
C2174 C 0.41944 0.43372 0.91795 0.0
C2175 C 0.42232 0.43756 0.8645 0.0
H2176 H 0.4585 0.45772 0.87505 0.0
C2177 C 0.45912 0.45394 0.80448 0.0
C2178 C 0.46909 0.46663 0.80434 0.0
C2179 C 0.45099 0.44913 0.82026 0.0
C2180 C 0.4484 0.45232 0.87201 0.0
H2181 H 0.39403 0.3991 0.90458 0.0
H2182 H 0.4077 0.4133 0.87946 0.0
H2183 H 0.4439 0.44597 0.90136 0.0
H2184 H 0.47863 0.48408 0.82114 0.0
H2185 H 0.46443 0.47547 0.8492 0.0
H2186 H 0.42688 0.4435 0.83503 0.0
C2187 C 0.40878 0.41696 0.8941 0.0
C2188 C 0.44003 0.44559 0.88704 0.0
C2189 C 0.40093 0.4088 0.90852 0.0
C2190 C 0.47101 0.47428 0.82078 0.0
C2191 C 0.46289 0.46938 0.83678 0.0
C2192 C 0.43068 0.44421 0.84951 0.0
C2193 C 0.41819 0.42949 0.89865 0.0
C2194 C 0.42692 0.43786 0.88333 0.0
C2195 C 0.45269 0.4568 0.83649 0.0
C2196 C 0.44382 0.45138 0.853 0.0
H2197 H 0.41278 0.42908 0.94713 0.0
H2198 H 0.42649 0.44336 0.92189 0.0
H2199 H 0.41226 0.43196 0.86125 0.0
H2200 H 0.45761 0.44761 0.79241 0.0
H2201 H 0.44343 0.4393 0.81985 0.0
C2202 C 0.58256 0.98841 0.92707 0.0
C2203 C 0.59526 0.99827 0.92828 0.0
C2204 C 0.57422 0.98893 0.91359 0.0
C2205 C 0.57392 0.00502 0.86814 0.0
H2206 H 0.53849 0.99192 0.88104 0.0
C2207 C 0.54059 0.01076 0.81582 0.0
C2208 C 0.52939 0.99942 0.81107 0.0
C2209 C 0.54786 0.01136 0.83192 0.0
C2210 C 0.54835 0.99559 0.87725 0.0
H2211 H 0.60914 0.01651 0.91661 0.0
H2212 H 0.59458 0.01758 0.89334 0.0
H2213 H 0.55297 0.99146 0.90528 0.0
H2214 H 0.51657 0.98011 0.82029 0.0
H2215 H 0.52922 0.98124 0.84866 0.0
H2216 H 0.56932 0.00921 0.84019 0.0
C2217 C 0.5911 0.00927 0.90243 0.0
C2218 C 0.55665 0.99527 0.89108 0.0
C2219 C 0.59945 0.00868 0.91578 0.0
C2220 C 0.52511 0.98901 0.82364 0.0
C2221 C 0.53237 0.98964 0.83985 0.0
C2222 C 0.56567 0.00545 0.85443 0.0
C2223 C 0.57837 0.99939 0.90112 0.0
C2224 C 0.56953 0.99993 0.88665 0.0
C2225 C 0.54406 1.00067 0.84371 0.0
C2226 C 0.5528 1.0007 0.8588 0.0
H2227 H 0.5791 0.98021 0.93642 0.0
H2228 H 0.56458 0.98103 0.91277 0.0
H2229 H 0.58369 0.00845 0.86402 0.0
H2230 H 0.54402 0.01901 0.80659 0.0
H2231 H 0.5567 0.02008 0.83478 0.0
C2232 C 0.58491 0.98728 0.09005 0.0
C2233 C 0.59676 0.99854 0.08986 0.0
C2234 C 0.57503 0.98633 0.10151 0.0
C2235 C 0.56406 0.00567 0.12787 0.0
H2236 H 0.54345 0.97436 0.15586 0.0
C2237 C 0.53272 0.00102 0.19363 0.0
C2238 C 0.52148 0.98939 0.19654 0.0
C2239 C 0.54061 0.00259 0.17794 0.0
C2240 C 0.54894 0.98309 0.14786 0.0
H2241 H 0.60756 0.0176 0.10168 0.0
H2242 H 0.59035 0.0159 0.12195 0.0
H2243 H 0.56011 0.97613 0.13452 0.0
H2244 H 0.50924 0.9706 0.18451 0.0
H2245 H 0.52289 0.97342 0.15689 0.0
H2246 H 0.55302 0.0127 0.1417 0.0
C2247 C 0.58862 0.00787 0.11294 0.0
C2248 C 0.55853 0.98412 0.13565 0.0
C2249 C 0.5985 0.00884 0.1014 0.0
C2250 C 0.5178 0.9797 0.18262 0.0
C2251 C 0.5257 0.98125 0.16694 0.0
C2252 C 0.55446 0.00465 0.14016 0.0
C2253 C 0.57676 0.9966 0.11312 0.0
C2254 C 0.56629 0.99545 0.12562 0.0
C2255 C 0.53742 0.99254 0.16485 0.0
C2256 C 0.54685 0.99337 0.15041 0.0
H2257 H 0.58316 0.97926 0.081 0.0
H2258 H 0.56596 0.97759 0.10104 0.0
H2259 H 0.56972 0.01446 0.12012 0.0
H2260 H 0.53574 0.00869 0.20406 0.0
H2261 H 0.54957 0.01139 0.1768 0.0
C2262 C 0.99569 0.59878 0.10112 0.0
C2263 C 0.00547 0.60625 0.08809 0.0
C2264 C 0.9968 0.59029 0.11345 0.0
C2265 C 0.02037 0.58327 0.1353 0.0
H2266 H 0.9909 0.55016 0.1445 0.0
C2267 C 0.02391 0.54692 0.18394 0.0
C2268 C 0.01453 0.54158 0.1983 0.0
C2269 C 0.02242 0.55333 0.16825 0.0
C2270 C 0.9992 0.55938 0.14211 0.0
H2271 H 0.02403 0.61058 0.07774 0.0
H2272 H 0.02597 0.5958 0.09929 0.0
H2273 H 0.98926 0.56481 0.12216 0.0
H2274 H 0.99585 0.53791 0.20676 0.0
H2275 H 0.99327 0.54914 0.17949 0.0
H2276 H 0.03027 0.57795 0.15543 0.0
C2277 C 0.01752 0.59664 0.10017 0.0
C2278 C 0.99825 0.5678 0.12938 0.0
C2279 C 0.01643 0.60514 0.08785 0.0
C2280 C 0.00327 0.54202 0.19597 0.0
C2281 C 0.00177 0.54839 0.18028 0.0
C2282 C 0.02132 0.57486 0.14799 0.0
C2283 C 0.00768 0.58904 0.11303 0.0
C2284 C 0.00879 0.5799 0.12599 0.0
C2285 C 0.0115 0.55447 0.16658 0.0
C2286 C 0.01071 0.56287 0.15171 0.0
H2287 H 0.98719 0.59952 0.1018 0.0
H2288 H 0.98915 0.58476 0.12344 0.0
H2289 H 0.02863 0.59258 0.13322 0.0
H2290 H 0.03272 0.54681 0.18541 0.0
H2291 H 0.03 0.55775 0.15777 0.0
C2292 C 0.41994 0.40191 0.09963 0.0
C2293 C 0.41044 0.40439 0.09301 0.0
C2294 C 0.42924 0.41015 0.11272 0.0
C2295 C 0.4442 0.44301 0.13243 0.0
H2296 H 0.45505 0.42911 0.17394 0.0
C2297 C 0.46922 0.47016 0.20251 0.0
C2298 C 0.47855 0.46804 0.21082 0.0
C2299 C 0.46274 0.46362 0.18575 0.0
C2300 C 0.45229 0.43316 0.16222 0.0
H2301 H 0.4033 0.4175 0.09513 0.0
H2302 H 0.41921 0.43158 0.11853 0.0
H2303 H 0.43959 0.41487 0.15016 0.0
H2304 H 0.48893 0.45798 0.20763 0.0
H2305 H 0.47759 0.44652 0.17822 0.0
H2306 H 0.45663 0.4613 0.14502 0.0
C2307 C 0.41963 0.4234 0.11326 0.0
C2308 C 0.44341 0.42499 0.14859 0.0
C2309 C 0.41037 0.4152 0.10008 0.0
C2310 C 0.48183 0.45984 0.20143 0.0
C2311 C 0.47526 0.4532 0.18474 0.0
C2312 C 0.45303 0.45118 0.14617 0.0
C2313 C 0.42925 0.42103 0.11965 0.0
C2314 C 0.43914 0.4298 0.13364 0.0
C2315 C 0.46539 0.45475 0.17708 0.0
C2316 C 0.45707 0.44632 0.16132 0.0
H2317 H 0.4202 0.39359 0.09467 0.0
H2318 H 0.43655 0.40807 0.11719 0.0
H2319 H 0.44133 0.44707 0.12089 0.0
H2320 H 0.46654 0.47647 0.20947 0.0
H2321 H 0.45514 0.46497 0.18026 0.0
C2322 C 0.66222 0.7471 0.41366 0.0
C2323 C 0.66763 0.73969 0.41907 0.0
C2324 C 0.66267 0.75635 0.42622 0.0
C2325 C 0.68028 0.77623 0.46835 0.0
H2326 H 0.65053 0.77973 0.47509 0.0
C2327 C 0.68187 0.81452 0.51896 0.0
C2328 C 0.6719 0.80999 0.53239 0.0
C2329 C 0.681 0.80722 0.5027 0.0
C2330 C 0.65892 0.77888 0.47333 0.0
H2331 H 0.6776 0.7361 0.44209 0.0
H2332 H 0.67839 0.75226 0.46402 0.0
H2333 H 0.64976 0.76393 0.45235 0.0
H2334 H 0.65282 0.7948 0.53854 0.0
H2335 H 0.65132 0.78202 0.51029 0.0
H2336 H 0.68932 0.79087 0.48976 0.0
C2337 C 0.67395 0.75102 0.44992 0.0
C2338 C 0.65852 0.76989 0.46021 0.0
C2339 C 0.67349 0.74174 0.43737 0.0
C2340 C 0.66069 0.79847 0.52849 0.0
C2341 C 0.65981 0.79119 0.51224 0.0
C2342 C 0.6807 0.78523 0.48141 0.0
C2343 C 0.66858 0.75845 0.44446 0.0
C2344 C 0.66914 0.76836 0.45777 0.0
C2345 C 0.67013 0.79527 0.49953 0.0
C2346 C 0.66998 0.78657 0.48423 0.0
H2347 H 0.65785 0.74594 0.39953 0.0
H2348 H 0.65859 0.76203 0.42147 0.0
H2349 H 0.68869 0.7754 0.46661 0.0
H2350 H 0.69067 0.82331 0.52163 0.0
H2351 H 0.68903 0.81071 0.49299 0.0
C2352 C 0.26773 0.9238 0.44542 0.0
C2353 C 0.26552 0.92238 0.4253 0.0
C2354 C 0.26016 0.91389 0.45799 0.0
C2355 C 0.22842 0.88595 0.46173 0.0
H2356 H 0.24282 0.87824 0.50636 0.0
C2357 C 0.21241 0.85148 0.53398 0.0
C2358 C 0.20354 0.85447 0.54162 0.0
C2359 C 0.21914 0.85747 0.51717 0.0
C2360 C 0.23866 0.88013 0.4938 0.0
H2361 H 0.25393 0.90919 0.4026 0.0
H2362 H 0.24058 0.89201 0.42462 0.0
H2363 H 0.25689 0.8935 0.4824 0.0
H2364 H 0.19404 0.86528 0.53712 0.0
H2365 H 0.20563 0.87563 0.50768 0.0
H2366 H 0.21018 0.87282 0.47341 0.0
C2367 C 0.24809 0.90085 0.43063 0.0
C2368 C 0.24671 0.88897 0.48021 0.0
C2369 C 0.25571 0.91072 0.41805 0.0
C2370 C 0.20085 0.86284 0.53148 0.0
C2371 C 0.20745 0.86871 0.5146 0.0
C2372 C 0.22036 0.87717 0.4754 0.0
C2373 C 0.25018 0.90235 0.45074 0.0
C2374 C 0.24168 0.89214 0.46422 0.0
C2375 C 0.21697 0.86642 0.50763 0.0
C2376 C 0.2254 0.87434 0.49176 0.0
H2377 H 0.27509 0.93269 0.45152 0.0
H2378 H 0.26188 0.91539 0.47345 0.0
H2379 H 0.22426 0.88824 0.4496 0.0
H2380 H 0.21471 0.84512 0.54164 0.0
H2381 H 0.22634 0.85545 0.51201 0.0
C2382 C 0.08144 0.35248 0.44089 0.0
C2383 C 0.07464 0.34195 0.42855 0.0
C2384 C 0.09069 0.353 0.45359 0.0
C2385 C 0.11138 0.3392 0.46201 0.0
H2386 H 0.11177 0.34963 0.51529 0.0
C2387 C 0.13404 0.32633 0.52501 0.0
C2388 C 0.13902 0.33465 0.54096 0.0
C2389 C 0.12852 0.32918 0.50945 0.0
C2390 C 0.112 0.34694 0.50037 0.0
H2391 H 0.07235 0.32379 0.4197 0.0
H2392 H 0.08825 0.32457 0.4421 0.0
H2393 H 0.09718 0.35063 0.4921 0.0
H2394 H 0.14315 0.35295 0.55235 0.0
H2395 H 0.13368 0.35803 0.52502 0.0
H2396 H 0.12603 0.33527 0.47042 0.0
C2397 C 0.08654 0.33249 0.44184 0.0
C2398 C 0.10359 0.34748 0.48709 0.0
C2399 C 0.07729 0.33195 0.4292 0.0
C2400 C 0.13924 0.3463 0.54035 0.0
C2401 C 0.13375 0.34917 0.52476 0.0
C2402 C 0.11982 0.33869 0.47531 0.0
C2403 C 0.09337 0.34302 0.45415 0.0
C2404 C 0.10302 0.3434 0.46784 0.0
C2405 C 0.1279 0.34042 0.50948 0.0
C2406 C 0.12008 0.34235 0.49473 0.0
H2407 H 0.07958 0.3603 0.4408 0.0
H2408 H 0.09583 0.36127 0.46283 0.0
H2409 H 0.11133 0.33621 0.44719 0.0
H2410 H 0.13358 0.31721 0.52516 0.0
H2411 H 0.12401 0.32218 0.49802 0.0
C2412 C 0.07931 0.33865 0.25433 0.0
C2413 C 0.07176 0.32845 0.26661 0.0
C2414 C 0.088 0.33802 0.24183 0.0
C2415 C 0.09465 0.31593 0.21572 0.0
H2416 H 0.12905 0.34447 0.21315 0.0
C2417 C 0.1303 0.31569 0.16139 0.0
C2418 C 0.1373 0.327 0.15095 0.0
C2419 C 0.12377 0.31549 0.17817 0.0
C2420 C 0.11946 0.33645 0.21357 0.0
H2421 H 0.06714 0.30949 0.27517 0.0
H2422 H 0.08219 0.30829 0.25299 0.0
H2423 H 0.11415 0.34485 0.23637 0.0
H2424 H 0.14381 0.34717 0.1508 0.0
H2425 H 0.13217 0.34678 0.17952 0.0
H2426 H 0.09967 0.30774 0.19238 0.0
C2427 C 0.08145 0.3168 0.25318 0.0
C2428 C 0.11095 0.33667 0.2269 0.0
C2429 C 0.07289 0.3175 0.2659 0.0
C2430 C 0.13833 0.33826 0.15837 0.0
C2431 C 0.13174 0.33804 0.17501 0.0
C2432 C 0.10311 0.31577 0.2022 0.0
C2433 C 0.08918 0.32711 0.24118 0.0
C2434 C 0.09842 0.3265 0.2279 0.0
C2435 C 0.12405 0.32659 0.18481 0.0
C2436 C 0.11557 0.32612 0.20073 0.0
H2437 H 0.07871 0.34724 0.25472 0.0
H2438 H 0.09375 0.34605 0.23257 0.0
H2439 H 0.08501 0.308 0.21612 0.0
H2440 H 0.12929 0.30685 0.15603 0.0
H2441 H 0.11816 0.30654 0.18558 0.0
C2442 C 0.68842 0.75712 0.25677 0.0
C2443 C 0.67774 0.74488 0.25783 0.0
C2444 C 0.68874 0.76594 0.24348 0.0
C2445 C 0.67262 0.76792 0.19871 0.0
H2446 H 0.6893 0.80379 0.21172 0.0
C2447 C 0.6672 0.8026 0.14994 0.0
C2448 C 0.67873 0.81255 0.1429 0.0
C2449 C 0.66706 0.79557 0.16597 0.0
C2450 C 0.68464 0.7938 0.20794 0.0
H2451 H 0.65891 0.73235 0.24626 0.0
H2452 H 0.65924 0.74776 0.22353 0.0
H2453 H 0.6891 0.78872 0.23534 0.0
H2454 H 0.69902 0.82367 0.14819 0.0
H2455 H 0.69873 0.81149 0.17662 0.0
H2456 H 0.66794 0.77299 0.17152 0.0
C2457 C 0.66759 0.7505 0.23242 0.0
C2458 C 0.68458 0.78516 0.22138 0.0
C2459 C 0.66736 0.74165 0.24548 0.0
C2460 C 0.68999 0.81609 0.15333 0.0
C2461 C 0.68983 0.8091 0.16954 0.0
C2462 C 0.67252 0.77651 0.18547 0.0
C2463 C 0.6783 0.76276 0.23115 0.0
C2464 C 0.67854 0.77208 0.21693 0.0
C2465 C 0.67843 0.79844 0.17545 0.0
C2466 C 0.67848 0.78951 0.18995 0.0
H2467 H 0.69658 0.75982 0.26609 0.0
H2468 H 0.69723 0.77519 0.24273 0.0
H2469 H 0.66817 0.75802 0.19449 0.0
H2470 H 0.65834 0.7998 0.14239 0.0
H2471 H 0.65811 0.78754 0.17047 0.0
C2472 C 0.26519 0.9314 0.24553 0.0
C2473 C 0.26073 0.93138 0.2643 0.0
C2474 C 0.25708 0.92293 0.23143 0.0
C2475 C 0.22757 0.89226 0.22512 0.0
H2476 H 0.23003 0.90398 0.17225 0.0
C2477 C 0.19642 0.86043 0.16037 0.0
C2478 C 0.20324 0.86189 0.14324 0.0
C2479 C 0.20232 0.86861 0.17622 0.0
C2480 C 0.22926 0.90055 0.18694 0.0
H2481 H 0.24427 0.92236 0.28303 0.0
H2482 H 0.23005 0.90763 0.25826 0.0
H2483 H 0.24241 0.91909 0.19773 0.0
H2484 H 0.22177 0.87239 0.1298 0.0
H2485 H 0.23194 0.88654 0.15715 0.0
H2486 H 0.2145 0.87364 0.2141 0.0
C2487 C 0.23984 0.91418 0.25452 0.0
C2488 C 0.23637 0.9092 0.20153 0.0
C2489 C 0.24796 0.9227 0.26863 0.0
C2490 C 0.21615 0.87127 0.14258 0.0
C2491 C 0.22199 0.87939 0.15825 0.0
C2492 C 0.22042 0.88357 0.21046 0.0
C2493 C 0.24432 0.91421 0.23576 0.0
C2494 C 0.23584 0.90513 0.2207 0.0
C2495 C 0.21511 0.87834 0.1751 0.0
C2496 C 0.22144 0.88759 0.19115 0.0
H2497 H 0.27495 0.93802 0.2417 0.0
H2498 H 0.26087 0.92309 0.21718 0.0
H2499 H 0.22699 0.88883 0.23976 0.0
H2500 H 0.18647 0.85325 0.16128 0.0
H2501 H 0.19681 0.86757 0.18909 0.0
C2502 C 0.6614 0.92345 0.24723 0.0
C2503 C 0.67231 0.93333 0.25616 0.0
C2504 C 0.6624 0.91531 0.23392 0.0
C2505 C 0.68536 0.91275 0.20176 0.0
H2506 H 0.66002 0.87691 0.20157 0.0
C2507 C 0.68937 0.87766 0.15038 0.0
C2508 C 0.67838 0.87014 0.13928 0.0
C2509 C 0.68885 0.88423 0.1667 0.0
C2510 C 0.66715 0.8869 0.20145 0.0
H2511 H 0.69287 0.94258 0.25765 0.0
H2512 H 0.69458 0.92821 0.23487 0.0
H2513 H 0.65871 0.89106 0.22546 0.0
H2514 H 0.6581 0.86287 0.13725 0.0
H2515 H 0.65717 0.87428 0.16579 0.0
H2516 H 0.69375 0.9086 0.1777 0.0
C2517 C 0.68525 0.92681 0.23799 0.0
C2518 C 0.66637 0.89503 0.21506 0.0
C2519 C 0.68425 0.93498 0.25123 0.0
C2520 C 0.66673 0.86866 0.14552 0.0
C2521 C 0.66619 0.87514 0.1619 0.0
C2522 C 0.68618 0.90462 0.18825 0.0
C2523 C 0.67433 0.91683 0.22924 0.0
C2524 C 0.67539 0.90808 0.21523 0.0
C2525 C 0.67731 0.88331 0.1723 0.0
C2526 C 0.67701 0.89163 0.18782 0.0
H2527 H 0.65203 0.9218 0.25084 0.0
H2528 H 0.6538 0.90785 0.22723 0.0
H2529 H 0.69235 0.92278 0.20126 0.0
H2530 H 0.69849 0.87904 0.14582 0.0
H2531 H 0.69755 0.89035 0.17459 0.0
C2532 C 0.06623 0.7384 0.24232 0.0
C2533 C 0.06683 0.7428 0.26136 0.0
C2534 C 0.07452 0.74644 0.22818 0.0
C2535 C 0.10568 0.77518 0.222 0.0
H2536 H 0.09344 0.77347 0.16948 0.0
C2537 C 0.13797 0.80514 0.15772 0.0
C2538 C 0.13599 0.79821 0.14044 0.0
C2539 C 0.12966 0.79969 0.1734 0.0
C2540 C 0.09701 0.77403 0.18407 0.0
H2541 H 0.07661 0.75913 0.28049 0.0
H2542 H 0.09103 0.77324 0.25567 0.0
H2543 H 0.07842 0.76151 0.19501 0.0
H2544 H 0.12426 0.77988 0.12656 0.0
H2545 H 0.10988 0.77052 0.15358 0.0
H2546 H 0.12435 0.78754 0.21085 0.0
C2547 C 0.08417 0.76353 0.25175 0.0
C2548 C 0.08841 0.76717 0.19869 0.0
C2549 C 0.07583 0.75549 0.26589 0.0
C2550 C 0.12583 0.78563 0.13942 0.0
C2551 C 0.11757 0.78025 0.15493 0.0
C2552 C 0.11432 0.78207 0.20732 0.0
C2553 C 0.08363 0.75908 0.23274 0.0
C2554 C 0.09267 0.76742 0.21772 0.0
C2555 C 0.11925 0.78724 0.172 0.0
C2556 C 0.1101 0.78131 0.18811 0.0
H2557 H 0.05935 0.7287 0.23835 0.0
H2558 H 0.07395 0.74267 0.21373 0.0
H2559 H 0.10926 0.77552 0.23652 0.0
H2560 H 0.14574 0.81483 0.15894 0.0
H2561 H 0.1312 0.80528 0.18643 0.0
C2562 C 0.26661 0.33877 0.25054 0.0
C2563 C 0.26262 0.32849 0.26325 0.0
C2564 C 0.25812 0.33906 0.23714 0.0
C2565 C 0.22356 0.32429 0.22581 0.0
H2566 H 0.23609 0.33843 0.17496 0.0
C2567 C 0.19205 0.31775 0.15806 0.0
C2568 C 0.19613 0.32835 0.14593 0.0
C2569 C 0.19931 0.31834 0.17425 0.0
C2570 C 0.23248 0.3346 0.18919 0.0
H2571 H 0.24671 0.31036 0.27172 0.0
H2572 H 0.23197 0.31063 0.24792 0.0
H2573 H 0.25062 0.33797 0.19879 0.0
H2574 H 0.21034 0.34818 0.14226 0.0
H2575 H 0.22304 0.34916 0.17037 0.0
H2576 H 0.20527 0.32055 0.21572 0.0
C2577 C 0.24154 0.31866 0.24863 0.0
C2578 C 0.24082 0.33435 0.20289 0.0
C2579 C 0.25 0.31845 0.26219 0.0
C2580 C 0.20709 0.33979 0.15112 0.0
C2581 C 0.21437 0.34035 0.16717 0.0
C2582 C 0.21517 0.32441 0.21196 0.0
C2583 C 0.24547 0.329 0.23596 0.0
C2584 C 0.2365 0.32923 0.22142 0.0
C2585 C 0.21079 0.32952 0.17851 0.0
C2586 C 0.21958 0.32961 0.19355 0.0
H2587 H 0.27623 0.34673 0.25125 0.0
H2588 H 0.26144 0.3473 0.2279 0.0
H2589 H 0.21992 0.32045 0.24 0.0
H2590 H 0.1837 0.30878 0.15437 0.0
H2591 H 0.19635 0.30984 0.18273 0.0
C2592 C 0.25505 0.32242 0.42709 0.0
C2593 C 0.26723 0.33322 0.42631 0.0
C2594 C 0.24576 0.32218 0.4392 0.0
C2595 C 0.23723 0.34305 0.46679 0.0
H2596 H 0.2157 0.31215 0.49514 0.0
C2597 C 0.20762 0.3403 0.53398 0.0
C2598 C 0.19592 0.32913 0.53685 0.0
C2599 C 0.21521 0.34139 0.51812 0.0
C2600 C 0.22146 0.32078 0.48707 0.0
H2601 H 0.27924 0.35223 0.43773 0.0
H2602 H 0.26306 0.35176 0.45916 0.0
H2603 H 0.23144 0.31279 0.47287 0.0
H2604 H 0.18265 0.31067 0.52467 0.0
H2605 H 0.1958 0.31267 0.49677 0.0
H2606 H 0.22739 0.3511 0.48149 0.0
C2607 C 0.26062 0.34355 0.45012 0.0
C2608 C 0.23053 0.32116 0.47432 0.0
C2609 C 0.26991 0.3438 0.43792 0.0
C2610 C 0.19157 0.31943 0.5228 0.0
C2611 C 0.19918 0.32051 0.50696 0.0
C2612 C 0.22817 0.34268 0.47965 0.0
C2613 C 0.24843 0.33273 0.4509 0.0
C2614 C 0.23858 0.33231 0.46409 0.0
C2615 C 0.21128 0.33131 0.50482 0.0
C2616 C 0.22023 0.33155 0.49001 0.0
H2617 H 0.2526 0.31421 0.41802 0.0
H2618 H 0.23641 0.31378 0.43916 0.0
H2619 H 0.24314 0.35173 0.45892 0.0
H2620 H 0.21116 0.34796 0.54451 0.0
H2621 H 0.22449 0.34982 0.51693 0.0
C2622 C 0.65706 0.92721 0.44034 0.0
C2623 C 0.65461 0.92334 0.42083 0.0
C2624 C 0.65653 0.91885 0.45461 0.0
C2625 C 0.65936 0.89038 0.46135 0.0
H2626 H 0.64752 0.89164 0.51298 0.0
C2627 C 0.66215 0.86187 0.52763 0.0
C2628 C 0.66774 0.86958 0.54411 0.0
C2629 C 0.65868 0.86658 0.51159 0.0
C2630 C 0.65081 0.89114 0.4986 0.0
H2631 H 0.64923 0.90749 0.40113 0.0
H2632 H 0.64832 0.89287 0.42613 0.0
H2633 H 0.64447 0.90324 0.48675 0.0
H2634 H 0.67476 0.88851 0.55605 0.0
H2635 H 0.66845 0.89646 0.52858 0.0
H2636 H 0.66593 0.87846 0.47347 0.0
C2637 C 0.65083 0.90244 0.4303 0.0
C2638 C 0.64912 0.89783 0.4836 0.0
C2639 C 0.65136 0.91082 0.41599 0.0
C2640 C 0.67004 0.88212 0.54397 0.0
C2641 C 0.66647 0.88673 0.52817 0.0
C2642 C 0.661 0.88362 0.47639 0.0
C2643 C 0.65351 0.9064 0.44976 0.0
C2644 C 0.65373 0.89786 0.46494 0.0
C2645 C 0.66067 0.87901 0.51189 0.0
C2646 C 0.65709 0.88428 0.49527 0.0
H2647 H 0.65979 0.93683 0.44452 0.0
H2648 H 0.65889 0.9223 0.4694 0.0
H2649 H 0.66309 0.89026 0.44716 0.0
H2650 H 0.66029 0.85219 0.52726 0.0
H2651 H 0.65428 0.86047 0.49912 0.0
C2652 C 0.07916 0.75097 0.43168 0.0
C2653 C 0.07958 0.741 0.42201 0.0
C2654 C 0.089 0.75907 0.44415 0.0
C2655 C 0.11468 0.76062 0.47439 0.0
H2656 H 0.1256 0.79651 0.47678 0.0
C2657 C 0.15082 0.79326 0.53191 0.0
C2658 C 0.14678 0.80051 0.54239 0.0
C2659 C 0.14488 0.78746 0.51438 0.0
C2660 C 0.12266 0.78651 0.47628 0.0
H2661 H 0.0908 0.73188 0.41758 0.0
H2662 H 0.10797 0.746 0.43952 0.0
H2663 H 0.11054 0.78317 0.45173 0.0
H2664 H 0.13407 0.80815 0.54216 0.0
H2665 H 0.12369 0.79803 0.51171 0.0
H2666 H 0.12649 0.76386 0.49927 0.0
C2667 C 0.09995 0.74745 0.43757 0.0
C2668 C 0.11401 0.77886 0.46197 0.0
C2669 C 0.09009 0.73934 0.42506 0.0
C2670 C 0.1373 0.80253 0.53442 0.0
C2671 C 0.13143 0.7968 0.5169 0.0
C2672 C 0.12333 0.76827 0.4887 0.0
C2673 C 0.0995 0.7574 0.44727 0.0
C2674 C 0.10969 0.76577 0.46115 0.0
C2675 C 0.13488 0.78888 0.50697 0.0
C2676 C 0.12719 0.78124 0.49009 0.0
H2677 H 0.07111 0.75239 0.42986 0.0
H2678 H 0.08824 0.76648 0.45169 0.0
H2679 H 0.11146 0.75055 0.47427 0.0
H2680 H 0.15806 0.7915 0.53778 0.0
H2681 H 0.14785 0.78153 0.50694 0.0
C2682 C 0.31959 0.06998 0.76452 0.0
C2683 C 0.33088 0.07165 0.75634 0.0
C2684 C 0.31985 0.07908 0.77726 0.0
C2685 C 0.34208 0.10625 0.8085 0.0
H2686 H 0.31441 0.11345 0.80956 0.0
C2687 C 0.34493 0.146 0.85642 0.0
C2688 C 0.3348 0.14193 0.86948 0.0
C2689 C 0.34394 0.13852 0.84038 0.0
C2690 C 0.32219 0.11152 0.80937 0.0
H2691 H 0.35122 0.08426 0.75455 0.0
H2692 H 0.35169 0.10029 0.77626 0.0
H2693 H 0.31387 0.098 0.78622 0.0
H2694 H 0.31534 0.12741 0.87514 0.0
H2695 H 0.31355 0.11437 0.84688 0.0
H2696 H 0.35044 0.11984 0.83149 0.0
C2697 C 0.34266 0.0918 0.77344 0.0
C2698 C 0.32186 0.10262 0.79612 0.0
C2699 C 0.34241 0.08263 0.76095 0.0
C2700 C 0.32331 0.13073 0.86533 0.0
C2701 C 0.32227 0.12331 0.84915 0.0
C2702 C 0.34248 0.11524 0.82151 0.0
C2703 C 0.3314 0.09014 0.78186 0.0
C2704 C 0.33178 0.0998 0.7956 0.0
C2705 C 0.33276 0.12689 0.83697 0.0
C2706 C 0.33253 0.11793 0.82216 0.0
H2707 H 0.31058 0.06156 0.76125 0.0
H2708 H 0.31102 0.07735 0.78369 0.0
H2709 H 0.34975 0.10416 0.8089 0.0
H2710 H 0.35394 0.15451 0.85933 0.0
H2711 H 0.35211 0.14156 0.83108 0.0
C2712 C 0.92424 0.26585 0.77498 0.0
C2713 C 0.93078 0.26193 0.76258 0.0
C2714 C 0.9157 0.25749 0.78863 0.0
C2715 C 0.8967 0.22313 0.80055 0.0
H2716 H 0.89497 0.23595 0.85129 0.0
C2717 C 0.87257 0.19164 0.86783 0.0
C2718 C 0.86629 0.19566 0.88063 0.0
C2719 C 0.87892 0.19896 0.85164 0.0
C2720 C 0.8952 0.23225 0.83709 0.0
H2721 H 0.93377 0.24631 0.7551 0.0
H2722 H 0.91911 0.23181 0.77922 0.0
H2723 H 0.90961 0.25046 0.82732 0.0
H2724 H 0.86077 0.20983 0.88557 0.0
H2725 H 0.87182 0.22257 0.85733 0.0
H2726 H 0.88247 0.20481 0.81068 0.0
C2727 C 0.92029 0.24122 0.77808 0.0
C2728 C 0.90361 0.24058 0.82332 0.0
C2729 C 0.92875 0.24955 0.76433 0.0
C2730 C 0.8657 0.20661 0.87613 0.0
C2731 C 0.87206 0.21393 0.86002 0.0
C2732 C 0.88834 0.21477 0.81441 0.0
C2733 C 0.91359 0.24504 0.79032 0.0
C2734 C 0.90449 0.23614 0.80487 0.0
C2735 C 0.87911 0.21042 0.84799 0.0
C2736 C 0.88751 0.21925 0.83283 0.0
H2737 H 0.92546 0.27527 0.77377 0.0
H2738 H 0.91057 0.26071 0.7976 0.0
H2739 H 0.89697 0.21941 0.78639 0.0
H2740 H 0.87329 0.18331 0.871 0.0
H2741 H 0.8843 0.19604 0.84266 0.0
C2742 C 0.74588 0.68619 0.76426 0.0
C2743 C 0.73848 0.67525 0.75296 0.0
C2744 C 0.75515 0.68677 0.77696 0.0
C2745 C 0.77465 0.67186 0.78723 0.0
H2746 H 0.77675 0.68517 0.83908 0.0
C2747 C 0.79779 0.6611 0.85213 0.0
C2748 C 0.80346 0.67027 0.86689 0.0
C2749 C 0.79209 0.66333 0.83616 0.0
C2750 C 0.7765 0.68166 0.82454 0.0
H2751 H 0.73515 0.65643 0.74594 0.0
H2752 H 0.75109 0.65733 0.7684 0.0
H2753 H 0.76208 0.68577 0.81563 0.0
H2754 H 0.8086 0.68937 0.87571 0.0
H2755 H 0.79883 0.69338 0.84766 0.0
H2756 H 0.7889 0.6675 0.79633 0.0
C2757 C 0.74983 0.66552 0.7673 0.0
C2758 C 0.76805 0.68197 0.81111 0.0
C2759 C 0.74056 0.66492 0.75464 0.0
C2760 C 0.80416 0.68208 0.86464 0.0
C2761 C 0.7985 0.68434 0.84865 0.0
C2762 C 0.78313 0.67155 0.80068 0.0
C2763 C 0.75725 0.67645 0.77859 0.0
C2764 C 0.76688 0.6769 0.79239 0.0
C2765 C 0.79197 0.67481 0.83461 0.0
C2766 C 0.78402 0.67629 0.81959 0.0
H2767 H 0.74446 0.69428 0.76338 0.0
H2768 H 0.76075 0.69536 0.78537 0.0
H2769 H 0.77413 0.66807 0.7728 0.0
H2770 H 0.79698 0.65185 0.85358 0.0
H2771 H 0.78707 0.65575 0.8257 0.0
C2772 C 0.74534 0.66933 0.58815 0.0
C2773 C 0.73352 0.65902 0.59341 0.0
C2774 C 0.75336 0.66758 0.57567 0.0
C2775 C 0.75346 0.6455 0.53877 0.0
H2776 H 0.78995 0.66568 0.54629 0.0
C2777 C 0.78835 0.64189 0.48639 0.0
C2778 C 0.79736 0.6537 0.47876 0.0
C2779 C 0.78136 0.6413 0.50282 0.0
C2780 C 0.77978 0.65996 0.54405 0.0
H2781 H 0.72083 0.63878 0.58985 0.0
H2782 H 0.73491 0.63565 0.56819 0.0
H2783 H 0.77578 0.6669 0.57004 0.0
H2784 H 0.80673 0.67407 0.48286 0.0
H2785 H 0.79469 0.67307 0.51171 0.0
H2786 H 0.75752 0.63867 0.51267 0.0
C2787 C 0.73791 0.64514 0.57345 0.0
C2788 C 0.77165 0.66071 0.55758 0.0
C2789 C 0.72983 0.64692 0.58584 0.0
C2790 C 0.79983 0.66486 0.48851 0.0
C2791 C 0.79298 0.66427 0.50504 0.0
C2792 C 0.7616 0.64468 0.52534 0.0
C2793 C 0.7498 0.65545 0.56827 0.0
C2794 C 0.75839 0.65372 0.55487 0.0
C2795 C 0.78339 0.65251 0.51201 0.0
C2796 C 0.77485 0.65211 0.52762 0.0
H2797 H 0.74836 0.6788 0.59355 0.0
H2798 H 0.76228 0.6758 0.57164 0.0
H2799 H 0.74332 0.64009 0.53608 0.0
H2800 H 0.78621 0.63315 0.47902 0.0
H2801 H 0.7741 0.63211 0.50799 0.0
C2802 C 0.33158 0.07701 0.58709 0.0
C2803 C 0.34177 0.07547 0.59309 0.0
C2804 C 0.33356 0.08675 0.5744 0.0
C2805 C 0.35638 0.10901 0.53852 0.0
H2806 H 0.33659 0.12577 0.54469 0.0
C2807 C 0.36203 0.14838 0.4864 0.0
C2808 C 0.35047 0.14589 0.47796 0.0
C2809 C 0.36208 0.14176 0.50293 0.0
C2810 C 0.3422 0.12119 0.54283 0.0
H2811 H 0.36205 0.08297 0.59057 0.0
H2812 H 0.36557 0.10009 0.56857 0.0
H2813 H 0.33455 0.10997 0.56832 0.0
H2814 H 0.33 0.13526 0.48074 0.0
H2815 H 0.33007 0.12386 0.50976 0.0
H2816 H 0.36394 0.12019 0.51293 0.0
C2817 C 0.35599 0.09363 0.57339 0.0
C2818 C 0.34098 0.11208 0.55628 0.0
C2819 C 0.35398 0.08382 0.58598 0.0
C2820 C 0.33903 0.13734 0.48704 0.0
C2821 C 0.33908 0.13086 0.50366 0.0
C2822 C 0.35767 0.1182 0.52517 0.0
C2823 C 0.34581 0.09527 0.56751 0.0
C2824 C 0.34785 0.10567 0.55406 0.0
C2825 C 0.35059 0.13268 0.5114 0.0
C2826 C 0.35042 0.12421 0.52698 0.0
H2827 H 0.32204 0.07063 0.59216 0.0
H2828 H 0.32544 0.08751 0.56984 0.0
H2829 H 0.36172 0.10419 0.5362 0.0
H2830 H 0.37097 0.15485 0.47954 0.0
H2831 H 0.37109 0.14342 0.5087 0.0
C2832 C 0.91717 0.24817 0.6002 0.0
C2833 C 0.92031 0.26093 0.60201 0.0
C2834 C 0.9078 0.24005 0.58709 0.0
C2835 C 0.89218 0.24054 0.54186 0.0
H2836 H 0.86882 0.20522 0.554 0.0
C2837 C 0.85879 0.20677 0.48332 0.0
C2838 C 0.85882 0.19528 0.48165 0.0
C2839 C 0.86357 0.21428 0.5 0.0
C2840 C 0.87529 0.21505 0.55038 0.0
H2841 H 0.91576 0.27506 0.59183 0.0
H2842 H 0.89949 0.26089 0.56877 0.0
H2843 H 0.8828 0.21957 0.5793 0.0
H2844 H 0.8632 0.18227 0.49657 0.0
H2845 H 0.87164 0.19537 0.52558 0.0
H2846 H 0.88507 0.23601 0.51285 0.0
C2847 C 0.90438 0.25722 0.57739 0.0
C2848 C 0.8833 0.22326 0.56486 0.0
C2849 C 0.91374 0.26534 0.59054 0.0
C2850 C 0.86291 0.19101 0.49752 0.0
C2851 C 0.86777 0.19855 0.51416 0.0
C2852 C 0.88421 0.23234 0.52739 0.0
C2853 C 0.90136 0.2445 0.57544 0.0
C2854 C 0.89199 0.23604 0.56066 0.0
C2855 C 0.86858 0.21048 0.51531 0.0
C2856 C 0.87583 0.21944 0.53137 0.0
H2857 H 0.92216 0.24451 0.60859 0.0
H2858 H 0.90585 0.23036 0.5857 0.0
H2859 H 0.89888 0.25029 0.53809 0.0
H2860 H 0.85556 0.21021 0.47136 0.0
H2861 H 0.8638 0.22328 0.50059 0.0
C2862 C 0.33007 0.25314 0.58422 0.0
C2863 C 0.34049 0.26476 0.59016 0.0
C2864 C 0.33172 0.24518 0.57141 0.0
C2865 C 0.35442 0.24514 0.53557 0.0
H2866 H 0.33332 0.20859 0.54039 0.0
C2867 C 0.36019 0.21087 0.48456 0.0
C2868 C 0.34887 0.20235 0.47492 0.0
C2869 C 0.35988 0.21752 0.50094 0.0
C2870 C 0.3393 0.21878 0.53893 0.0
H2871 H 0.36083 0.27711 0.58763 0.0
H2872 H 0.36383 0.26311 0.56562 0.0
H2873 H 0.33153 0.22248 0.56423 0.0
H2874 H 0.32836 0.19343 0.47541 0.0
H2875 H 0.3278 0.20485 0.50427 0.0
H2876 H 0.36219 0.24138 0.51029 0.0
C2877 C 0.3543 0.26025 0.57042 0.0
C2878 C 0.33822 0.22676 0.55248 0.0
C2879 C 0.35261 0.26828 0.58304 0.0
C2880 C 0.33721 0.19996 0.48264 0.0
C2881 C 0.33689 0.20646 0.49915 0.0
C2882 C 0.35561 0.23716 0.52219 0.0
C2883 C 0.34388 0.24857 0.56444 0.0
C2884 C 0.34561 0.24005 0.55078 0.0
C2885 C 0.34824 0.21561 0.50808 0.0
C2886 C 0.34792 0.22391 0.52356 0.0
H2887 H 0.3206 0.25026 0.58937 0.0
H2888 H 0.32343 0.23642 0.56681 0.0
H2889 H 0.36014 0.25531 0.53357 0.0
H2890 H 0.3693 0.21295 0.47878 0.0
H2891 H 0.36876 0.22446 0.50765 0.0
C2892 C 0.7482 0.08395 0.59995 0.0
C2893 C 0.73504 0.07931 0.59973 0.0
C2894 C 0.75597 0.09228 0.58562 0.0
C2895 C 0.75426 0.1016 0.53543 0.0
H2896 H 0.78936 0.12731 0.54522 0.0
C2897 C 0.79062 0.12033 0.47461 0.0
C2898 C 0.79965 0.13334 0.47387 0.0
C2899 C 0.78275 0.11523 0.49061 0.0
C2900 C 0.77953 0.1203 0.54228 0.0
H2901 H 0.71978 0.08017 0.58482 0.0
H2902 H 0.73337 0.09486 0.5599 0.0
H2903 H 0.77542 0.11616 0.57243 0.0
H2904 H 0.80783 0.15116 0.48965 0.0
H2905 H 0.79391 0.14219 0.51792 0.0
H2906 H 0.75831 0.10574 0.50536 0.0
C2907 C 0.73766 0.09185 0.57091 0.0
C2908 C 0.77158 0.11379 0.55784 0.0
C2909 C 0.72986 0.08344 0.58517 0.0
C2910 C 0.80091 0.14111 0.48983 0.0
C2911 C 0.79296 0.13597 0.50596 0.0
C2912 C 0.76217 0.10812 0.51993 0.0
C2913 C 0.75079 0.09623 0.57078 0.0
C2914 C 0.75891 0.10416 0.55457 0.0
C2915 C 0.78368 0.12299 0.50638 0.0
C2916 C 0.77499 0.1173 0.52312 0.0
H2917 H 0.75244 0.08083 0.61088 0.0
H2918 H 0.76599 0.09525 0.58581 0.0
H2919 H 0.74461 0.0942 0.53228 0.0
H2920 H 0.78967 0.11402 0.4628 0.0
H2921 H 0.77599 0.10514 0.49069 0.0
C2922 C 0.91218 0.65978 0.60419 0.0
C2923 C 0.92223 0.65832 0.59723 0.0
C2924 C 0.90229 0.65804 0.59186 0.0
C2925 C 0.88696 0.64396 0.54461 0.0
H2926 H 0.87616 0.66901 0.54664 0.0
C2927 C 0.86376 0.66532 0.4895 0.0
C2928 C 0.8543 0.65409 0.48071 0.0
C2929 C 0.86978 0.66487 0.5065 0.0
C2930 C 0.87903 0.66191 0.54594 0.0
H2931 H 0.9297 0.65377 0.57187 0.0
H2932 H 0.91247 0.65079 0.5503 0.0
H2933 H 0.89154 0.66993 0.57032 0.0
H2934 H 0.84315 0.63363 0.48345 0.0
H2935 H 0.85357 0.63282 0.5134 0.0
H2936 H 0.87491 0.63629 0.5197 0.0
C2937 C 0.91214 0.65311 0.56539 0.0
C2938 C 0.88777 0.66237 0.55961 0.0
C2939 C 0.92204 0.65485 0.57773 0.0
C2940 C 0.85037 0.64244 0.48996 0.0
C2941 C 0.85644 0.64197 0.50697 0.0
C2942 C 0.87822 0.64349 0.53096 0.0
C2943 C 0.90219 0.65477 0.57227 0.0
C2944 C 0.89204 0.65356 0.55886 0.0
C2945 C 0.86648 0.65316 0.51509 0.0
C2946 C 0.87435 0.65262 0.53121 0.0
H2947 H 0.91192 0.6622 0.61925 0.0
H2948 H 0.89468 0.65921 0.59769 0.0
H2949 H 0.88991 0.63692 0.54381 0.0
H2950 H 0.86692 0.67444 0.48271 0.0
H2951 H 0.87752 0.67365 0.51225 0.0
C2952 C 0.9349 0.68216 0.76712 0.0
C2953 C 0.93171 0.67175 0.75481 0.0
C2954 C 0.92588 0.68205 0.77979 0.0
C2955 C 0.89559 0.65987 0.80374 0.0
H2956 H 0.89392 0.69035 0.81415 0.0
C2957 C 0.85721 0.65819 0.85348 0.0
C2958 C 0.86172 0.66741 0.86829 0.0
C2959 C 0.86486 0.65949 0.83759 0.0
C2960 C 0.8943 0.68178 0.81141 0.0
H2961 H 0.91646 0.65326 0.74564 0.0
H2962 H 0.90074 0.6531 0.76755 0.0
H2963 H 0.90929 0.691 0.79074 0.0
H2964 H 0.87737 0.6857 0.87729 0.0
H2965 H 0.89078 0.68794 0.8496 0.0
H2966 H 0.88073 0.65067 0.82446 0.0
C2967 C 0.91027 0.66123 0.76781 0.0
C2968 C 0.90314 0.68215 0.79807 0.0
C2969 C 0.91929 0.66131 0.75525 0.0
C2970 C 0.87369 0.67838 0.86618 0.0
C2971 C 0.88133 0.6797 0.85026 0.0
C2972 C 0.88676 0.65949 0.81697 0.0
C2973 C 0.91346 0.67156 0.78033 0.0
C2974 C 0.90393 0.67121 0.79415 0.0
C2975 C 0.87717 0.67006 0.83614 0.0
C2976 C 0.88604 0.67044 0.82104 0.0
H2977 H 0.94442 0.69031 0.76717 0.0
H2978 H 0.92871 0.69009 0.78941 0.0
H2979 H 0.89609 0.65133 0.80139 0.0
H2980 H 0.84808 0.64957 0.85473 0.0
H2981 H 0.86131 0.652 0.82678 0.0
C2982 C 0.31827 0.25378 0.76408 0.0
C2983 C 0.3289 0.2595 0.75187 0.0
C2984 C 0.31732 0.2452 0.77833 0.0
C2985 C 0.33073 0.22506 0.79408 0.0
H2986 H 0.32051 0.22979 0.84516 0.0
C2987 C 0.32994 0.19613 0.86197 0.0
C2988 C 0.3355 0.20362 0.87864 0.0
C2989 C 0.3275 0.20138 0.84556 0.0
C2990 C 0.32334 0.22832 0.83096 0.0
H2991 H 0.34687 0.26069 0.74506 0.0
H2992 H 0.34526 0.24584 0.76998 0.0
H2993 H 0.31933 0.24186 0.81797 0.0
H2994 H 0.34349 0.22263 0.89069 0.0
H2995 H 0.33911 0.23162 0.86244 0.0
H2996 H 0.33525 0.2119 0.8074 0.0
C2997 C 0.33753 0.24776 0.7683 0.0
C2998 C 0.32255 0.23514 0.81532 0.0
C2999 C 0.33847 0.25632 0.75406 0.0
C3000 C 0.33879 0.21647 0.87837 0.0
C3001 C 0.33631 0.22165 0.86214 0.0
C3002 C 0.3315 0.2182 0.80976 0.0
C3003 C 0.32698 0.24217 0.78071 0.0
C3004 C 0.32651 0.23382 0.79678 0.0
C3005 C 0.33055 0.21417 0.8456 0.0
C3006 C 0.32813 0.22002 0.82845 0.0
H3007 H 0.31064 0.25587 0.76254 0.0
H3008 H 0.309 0.24093 0.78749 0.0
H3009 H 0.33367 0.22369 0.7799 0.0
H3010 H 0.32733 0.18622 0.86173 0.0
H3011 H 0.32307 0.19541 0.83297 0.0
C3012 C 0.74154 0.08354 0.766 0.0
C3013 C 0.74128 0.07262 0.75871 0.0
C3014 C 0.75133 0.09187 0.77837 0.0
C3015 C 0.77602 0.09355 0.81163 0.0
H3016 H 0.78886 0.12981 0.80852 0.0
C3017 C 0.81425 0.12838 0.86477 0.0
C3018 C 0.81079 0.1364 0.8743 0.0
C3019 C 0.8078 0.12182 0.84795 0.0
C3020 C 0.78538 0.11971 0.80953 0.0
H3021 H 0.75119 0.06196 0.7584 0.0
H3022 H 0.76836 0.07655 0.77991 0.0
H3023 H 0.77331 0.11555 0.78469 0.0
H3024 H 0.7986 0.14462 0.87306 0.0
H3025 H 0.78739 0.13326 0.84367 0.0
H3026 H 0.78795 0.0977 0.83664 0.0
C3027 C 0.76087 0.07857 0.77635 0.0
C3028 C 0.77643 0.11153 0.79596 0.0
C3029 C 0.75103 0.0702 0.76406 0.0
C3030 C 0.80141 0.13845 0.86599 0.0
C3031 C 0.79505 0.13199 0.84913 0.0
C3032 C 0.78503 0.10174 0.82513 0.0
C3033 C 0.76115 0.08952 0.78365 0.0
C3034 C 0.77144 0.09832 0.79708 0.0
C3035 C 0.79787 0.12327 0.8403 0.0
C3036 C 0.78962 0.11488 0.82445 0.0
H3037 H 0.73408 0.08558 0.76229 0.0
H3038 H 0.75108 0.10005 0.78403 0.0
H3039 H 0.77229 0.08343 0.8131 0.0
H3040 H 0.82139 0.12657 0.87095 0.0
H3041 H 0.81027 0.11527 0.84133 0.0
C3042 C 0.06465 0.35404 0.04695 0.0
C3043 C 0.06376 0.35931 0.02929 0.0
C3044 C 0.07515 0.35269 0.05103 0.0
C3045 C 0.10072 0.34948 0.0292 0.0
H3046 H 0.11563 0.35944 0.08057 0.0
C3047 C 0.14205 0.35069 0.08324 0.0
C3048 C 0.13892 0.33795 0.08162 0.0
C3049 C 0.13533 0.35519 0.07263 0.0
C3050 C 0.11176 0.3568 0.06603 0.0
H3051 H 0.07329 0.36718 0.00201 0.0
H3052 H 0.09155 0.36453 0.00909 0.0
H3053 H 0.09876 0.36349 0.07094 0.0
H3054 H 0.12714 0.32018 0.06651 0.0
H3055 H 0.11527 0.32798 0.04802 0.0
H3056 H 0.11358 0.34248 0.02455 0.0
C3057 C 0.08406 0.36149 0.01971 0.0
C3058 C 0.10197 0.35899 0.06062 0.0
C3059 C 0.07358 0.36297 0.01567 0.0
C3060 C 0.1298 0.33009 0.06785 0.0
C3061 C 0.12299 0.33456 0.05731 0.0
C3062 C 0.1105 0.34718 0.03469 0.0
C3063 C 0.08499 0.35645 0.03753 0.0
C3064 C 0.09618 0.35514 0.04232 0.0
C3065 C 0.12525 0.34697 0.06036 0.0
C3066 C 0.11601 0.35068 0.05329 0.0
H3067 H 0.05715 0.3508 0.05759 0.0
H3068 H 0.07549 0.34854 0.06474 0.0
H3069 H 0.09638 0.34639 0.01501 0.0
H3070 H 0.1491 0.35693 0.09373 0.0
H3071 H 0.13749 0.36488 0.07497 0.0
C3072 C 0.64246 0.71161 0.01305 0.0
C3073 C 0.64517 0.70535 0.02785 0.0
C3074 C 0.64432 0.72381 0.01611 0.0
C3075 C 0.6462 0.74518 0.05524 0.0
H3076 H 0.66452 0.77251 0.01867 0.0
C3077 C 0.67647 0.80197 0.06071 0.0
C3078 C 0.66845 0.80374 0.07332 0.0
C3079 C 0.67193 0.79049 0.0506 0.0
C3080 C 0.65931 0.76494 0.02894 0.0
H3081 H 0.65238 0.70729 0.05725 0.0
H3082 H 0.65534 0.72836 0.06266 0.0
H3083 H 0.66023 0.75102 0.01087 0.0
H3084 H 0.64919 0.79564 0.08375 0.0
H3085 H 0.64112 0.77576 0.06566 0.0
H3086 H 0.64562 0.75899 0.07365 0.0
C3087 C 0.65163 0.72376 0.04877 0.0
C3088 C 0.6568 0.75265 0.02444 0.0
C3089 C 0.64989 0.71165 0.04568 0.0
C3090 C 0.65553 0.79446 0.07409 0.0
C3091 C 0.65097 0.78305 0.0639 0.0
C3092 C 0.64861 0.75738 0.05967 0.0
C3093 C 0.6488 0.72995 0.03408 0.0
C3094 C 0.65047 0.74272 0.03777 0.0
C3095 C 0.65929 0.78065 0.05296 0.0
C3096 C 0.65538 0.76747 0.04674 0.0
H3097 H 0.63868 0.707 -0.00079 0.0
H3098 H 0.64199 0.72834 0.00457 0.0
H3099 H 0.64117 0.73768 0.0657 0.0
H3100 H 0.6865 0.80895 0.06008 0.0
H3101 H 0.67859 0.78895 0.04234 0.0
C3102 C 0.28584 0.9289 0.00349 0.0
C3103 C 0.28902 0.94149 0.00778 0.0
C3104 C 0.27372 0.91874 0.00762 0.0
C3105 C 0.24641 0.91121 0.03956 0.0
H3106 H 0.23028 0.87924 0.01132 0.0
C3107 C 0.20044 0.87071 0.06778 0.0
C3108 C 0.20141 0.85994 0.07193 0.0
C3109 C 0.20876 0.87977 0.0547 0.0
C3110 C 0.23466 0.88815 0.01925 0.0
H3111 H 0.28154 0.95309 0.01927 0.0
H3112 H 0.26042 0.9356 0.02518 0.0
H3113 H 0.24976 0.89729 -0.00128 0.0
H3114 H 0.21086 0.84948 0.0642 0.0
H3115 H 0.22542 0.86533 0.04126 0.0
H3116 H 0.23149 0.90212 0.06014 0.0
C3117 C 0.2674 0.9335 0.01924 0.0
C3118 C 0.24586 0.89847 0.01214 0.0
C3119 C 0.27954 0.94362 0.01548 0.0
C3120 C 0.20986 0.85766 0.06114 0.0
C3121 C 0.21822 0.86676 0.04805 0.0
C3122 C 0.2352 0.90101 0.04648 0.0
C3123 C 0.26441 0.92089 0.0159 0.0
C3124 C 0.25198 0.9101 0.02236 0.0
C3125 C 0.21823 0.87824 0.0456 0.0
C3126 C 0.22926 0.88932 0.03656 0.0
H3127 H 0.29274 0.92684 0.99717 0.0
H3128 H 0.27185 0.90917 0.00493 0.0
H3129 H 0.25095 0.91982 0.04819 0.0
H3130 H 0.19396 0.87263 0.07587 0.0
H3131 H 0.20839 0.88842 0.05281 0.0
C3132 C 0.35769 0.06891 0.99169 0.0
C3133 C 0.34758 0.05685 0.99652 0.0
C3134 C 0.35561 0.07911 0.98905 0.0
C3135 C 0.33131 0.08578 0.97278 0.0
H3136 H 0.35366 0.11967 0.99295 0.0
C3137 C 0.32644 0.12729 0.94472 0.0
C3138 C 0.33794 0.13821 0.94005 0.0
C3139 C 0.32636 0.118 0.9567 0.0
C3140 C 0.34736 0.11029 0.98709 0.0
H3141 H 0.32743 0.04601 0.00263 0.0
H3142 H 0.32373 0.06383 0.99759 0.0
H3143 H 0.35626 0.102 0.00379 0.0
H3144 H 0.35827 0.14835 0.94496 0.0
H3145 H 0.35826 0.13207 0.96526 0.0
H3146 H 0.32291 0.09399 0.95512 0.0
C3147 C 0.33327 0.06539 0.99606 0.0
C3148 C 0.34883 0.10018 0.99339 0.0
C3149 C 0.3354 0.05523 -0.00099 0.0
C3150 C 0.34925 0.14009 0.94857 0.0
C3151 C 0.34921 0.13071 0.96025 0.0
C3152 C 0.32996 0.0959 0.96624 0.0
C3153 C 0.34334 0.07739 0.9909 0.0
C3154 C 0.34096 0.08787 0.98602 0.0
C3155 C 0.33782 0.11931 0.96387 0.0
C3156 C 0.33814 0.10836 0.973 0.0
H3157 H 0.36719 0.07042 0.98982 0.0
H3158 H 0.36351 0.08824 0.9849 0.0
H3159 H 0.32519 0.07641 0.9667 0.0
H3160 H 0.31759 0.12567 0.93834 0.0
H3161 H 0.31736 0.10954 0.95959 0.0
C3162 C 0.95036 0.28602 0.00245 0.0
C3163 C 0.9479 0.29608 0.00484 0.0
C3164 C 0.94044 0.27357 -0.00024 0.0
C3165 C 0.90496 0.25295 0.00164 0.0
H3166 H 0.91154 0.23233 0.96582 0.0
C3167 C 0.86784 0.21122 0.95454 0.0
C3168 C 0.86963 0.20077 0.95173 0.0
C3169 C 0.87624 0.22142 0.96625 0.0
C3170 C 0.90961 0.23787 0.97614 0.0
H3171 H 0.93281 0.30066 0.00672 0.0
H3172 H 0.91564 0.27917 0.00063 0.0
H3173 H 0.92868 0.2532 0.97498 0.0
H3174 H 0.88094 0.19233 0.95993 0.0
H3175 H 0.89575 0.21026 0.98028 0.0
H3176 H 0.88556 0.23773 0.0015 0.0
C3177 C 0.92525 0.28083 0.00146 0.0
C3178 C 0.91946 0.24988 0.98147 0.0
C3179 C 0.93517 0.29326 0.00459 0.0
C3180 C 0.8793 0.20022 0.96205 0.0
C3181 C 0.88782 0.2105 0.97353 0.0
C3182 C 0.89502 0.24099 0.99597 0.0
C3183 C 0.92775 0.2708 -0.00116 0.0
C3184 C 0.91729 0.25767 0.99418 0.0
C3185 C 0.88667 0.22141 0.97506 0.0
C3186 C 0.89725 0.23338 0.98307 0.0
H3187 H 0.95998 0.28772 0.00221 0.0
H3188 H 0.94281 0.26614 0.99822 0.0
H3189 H 0.90292 0.25852 0.01173 0.0
H3190 H 0.86049 0.21187 0.94659 0.0
H3191 H 0.87518 0.22973 0.96709 0.0
C3192 C 0.70456 0.64284 0.98117 0.0
C3193 C 0.70249 0.64754 0.99856 0.0
C3194 C 0.71677 0.64549 0.97622 0.0
C3195 C 0.7476 0.65285 0.99412 0.0
H3196 H 0.75998 0.66949 0.94461 0.0
C3197 C 0.79445 0.67525 0.94083 0.0
C3198 C 0.79549 0.66441 0.93736 0.0
C3199 C 0.7848 0.67453 0.95258 0.0
C3200 C 0.75673 0.66499 0.95858 0.0
H3201 H 0.7114 0.6583 0.02472 0.0
H3202 H 0.73283 0.66265 0.01623 0.0
H3203 H 0.73915 0.66493 0.95604 0.0
H3204 H 0.78802 0.64467 0.94516 0.0
H3205 H 0.77133 0.64353 0.96606 0.0
H3206 H 0.76502 0.65241 0.99618 0.0
C3207 C 0.72498 0.65704 0.00642 0.0
C3208 C 0.74479 0.66229 0.96501 0.0
C3209 C 0.71279 0.65461 0.01121 0.0
C3210 C 0.78754 0.65322 0.94761 0.0
C3211 C 0.77794 0.65254 0.95954 0.0
C3212 C 0.7595 0.65533 0.98748 0.0
C3213 C 0.72709 0.65268 0.98873 0.0
C3214 C 0.74006 0.6561 0.98272 0.0
C3215 C 0.77609 0.66301 0.96132 0.0
C3216 C 0.76414 0.66137 0.96959 0.0
H3217 H 0.6968 0.63745 0.97111 0.0
H3218 H 0.71819 0.642 0.96252 0.0
H3219 H 0.7441 0.64803 0.00782 0.0
H3220 H 0.80058 0.68407 0.9334 0.0
H3221 H 0.78368 0.6828 0.95397 0.0
C3222 C 0.94316 0.66179 0.99685 0.0
C3223 C 0.94217 0.6498 0.99741 0.0
C3224 C 0.93233 0.66284 0.994 0.0
C3225 C 0.89978 0.64418 0.97363 0.0
H3226 H 0.8968 0.67277 0.99179 0.0
C3227 C 0.85825 0.64977 0.94842 0.0
C3228 C 0.86227 0.6614 0.93905 0.0
C3229 C 0.8665 0.64826 0.96084 0.0
C3230 C 0.89749 0.66469 0.98673 0.0
H3231 H 0.92913 0.62952 0.99675 0.0
H3232 H 0.91015 0.63128 0.99262 0.0
H3233 H 0.91422 0.66997 0.00367 0.0
H3234 H 0.87754 0.6809 0.9368 0.0
H3235 H 0.89196 0.67829 0.95854 0.0
H3236 H 0.88318 0.63898 0.95657 0.0
C3237 C 0.91928 0.63991 0.9936 0.0
C3238 C 0.9075 0.66312 0.99341 0.0
C3239 C 0.93013 0.63888 0.99608 0.0
C3240 C 0.87424 0.67181 0.94376 0.0
C3241 C 0.88247 0.67033 0.95627 0.0
C3242 C 0.88972 0.64566 0.96719 0.0
C3243 C 0.92026 0.65191 0.99195 0.0
C3244 C 0.90893 0.65297 0.98663 0.0
C3245 C 0.87889 0.65838 0.9642 0.0
C3246 C 0.88859 0.65605 0.97337 0.0
H3247 H 0.95237 0.67034 0.99776 0.0
H3248 H 0.93353 0.67224 0.99257 0.0
H3249 H 0.90066 0.63641 0.96768 0.0
H3250 H 0.84912 0.64154 0.94499 0.0
H3251 H 0.86345 0.63899 0.96695 0.0
C3252 C 0.35605 0.29554 0.97957 0.0
C3253 C 0.35548 0.30027 0.99794 0.0
C3254 C 0.35478 0.28354 0.97762 0.0
C3255 C 0.34147 0.25231 -0.0006 0.0
H3256 H 0.36565 0.24967 0.96602 0.0
C3257 C 0.33139 0.20822 0.9549 0.0
C3258 C 0.34166 0.20663 0.94955 0.0
C3259 C 0.33328 0.21812 0.96733 0.0
C3260 C 0.35895 0.2502 0.97574 0.0
H3261 H 0.35285 0.29587 0.02866 0.0
H3262 H 0.35025 0.27467 0.02506 0.0
H3263 H 0.36867 0.27047 0.97405 0.0
H3264 H 0.36157 0.21314 0.95495 0.0
H3265 H 0.36479 0.2302 0.97701 0.0
H3266 H 0.33146 0.23193 0.00041 0.0
C3267 C 0.35179 0.28039 0.01226 0.0
C3268 C 0.36061 0.26214 0.98011 0.0
C3269 C 0.35322 0.2925 0.01427 0.0
C3270 C 0.35346 0.21411 0.95877 0.0
C3271 C 0.35534 0.22399 0.97124 0.0
C3272 C 0.33973 0.2403 0.99486 0.0
C3273 C 0.35275 0.27589 0.99393 0.0
C3274 C 0.35172 0.2633 0.99154 0.0
C3275 C 0.34547 0.22658 0.97467 0.0
C3276 C 0.34831 0.23911 0.9826 0.0
H3277 H 0.35743 0.30107 0.96661 0.0
H3278 H 0.35529 0.28019 0.96326 0.0
H3279 H 0.33448 0.25296 0.00825 0.0
H3280 H 0.32215 0.20249 0.94817 0.0
H3281 H 0.32545 0.21981 0.96969 0.0
C3282 C 0.71067 0.06047 0.97695 0.0
C3283 C 0.70507 0.05903 0.99525 0.0
C3284 C 0.72249 0.07101 0.97295 0.0
C3285 C 0.75192 0.09625 0.9951 0.0
H3286 H 0.75572 0.11203 0.94494 0.0
C3287 C 0.79079 0.13918 0.9423 0.0
C3288 C 0.80082 0.13664 0.94354 0.0
C3289 C 0.77964 0.13191 0.95274 0.0
C3290 C 0.75482 0.10793 0.95917 0.0
H3291 H 0.70767 0.06753 0.02382 0.0
H3292 H 0.72848 0.08596 0.01682 0.0
H3293 H 0.73509 0.09476 0.95455 0.0
H3294 H 0.80755 0.12526 0.95774 0.0
H3295 H 0.78799 0.1124 0.97586 0.0
H3296 H 0.77179 0.10939 -0.00046 0.0
C3297 C 0.72366 0.07886 0.00562 0.0
C3298 C 0.74301 0.09788 0.96455 0.0
C3299 C 0.71175 0.06829 0.00962 0.0
C3300 C 0.79997 0.12748 0.95671 0.0
C3301 C 0.78875 0.1201 0.96705 0.0
C3302 C 0.76382 0.10632 0.98967 0.0
C3303 C 0.72907 0.08039 0.98715 0.0
C3304 C 0.74146 0.09176 0.9824 0.0
C3305 C 0.77823 0.12184 0.96443 0.0
C3306 C 0.76544 0.11216 0.9715 0.0
H3307 H 0.70597 0.05338 0.96568 0.0
H3308 H 0.72654 0.07178 0.95871 0.0
H3309 H 0.75102 0.0917 0.00894 0.0
H3310 H 0.79126 0.14624 0.93227 0.0
H3311 H 0.77183 0.13371 0.95077 0.0
C3312 C 0.66312 0.94513 0.01122 0.0
C3313 C 0.65085 0.94352 0.01011 0.0
C3314 C 0.66479 0.9347 0.01418 0.0
C3315 C 0.64898 0.90378 0.03732 0.0
H3316 H 0.67492 0.89905 0.01264 0.0
C3317 C 0.65914 0.86585 0.06604 0.0
C3318 C 0.67204 0.86979 0.06854 0.0
C3319 C 0.65544 0.87269 0.05405 0.0
C3320 C 0.66767 0.90025 0.01974 0.0
H3321 H 0.63073 0.92967 0.01071 0.0
H3322 H 0.63366 0.91144 0.01598 0.0
H3323 H 0.67074 0.91558 0.001 0.0
H3324 H 0.69117 0.88346 0.05991 0.0
H3325 H 0.68485 0.89568 0.03945 0.0
H3326 H 0.64631 0.88908 0.05676 0.0
C3327 C 0.64197 0.92079 0.01454 0.0
C3328 C 0.66526 0.90971 0.01302 0.0
C3329 C 0.6403 0.9312 0.01139 0.0
C3330 C 0.68114 0.88015 0.05792 0.0
C3331 C 0.67748 0.88714 0.04619 0.0
C3332 C 0.65147 0.89446 0.04418 0.0
C3333 C 0.65423 0.92245 0.01629 0.0
C3334 C 0.65601 0.91168 0.02194 0.0
C3335 C 0.66461 0.88381 0.04475 0.0
C3336 C 0.66098 0.89268 0.0357 0.0
H3337 H 0.67143 0.9545 0.0101 0.0
H3338 H 0.67436 0.93629 0.01563 0.0
H3339 H 0.64193 0.90519 0.0447 0.0
H3340 H 0.65198 0.8579 0.0742 0.0
H3341 H 0.64543 0.86961 0.05288 0.0
C3342 C 0.07243 0.71401 0.00156 0.0
C3343 C 0.05975 0.7113 0.00237 0.0
C3344 C 0.08248 0.72632 0.00509 0.0
C3345 C 0.08867 0.75531 0.03121 0.0
H3346 H 0.12227 0.76923 0.009 0.0
C3347 C 0.12921 0.80026 0.06368 0.0
C3348 C 0.13954 0.79884 0.06927 0.0
C3349 C 0.12051 0.79213 0.04982 0.0
C3350 C 0.11292 0.76549 0.01527 0.0
H3351 H 0.04781 0.71967 0.00672 0.0
H3352 H 0.06527 0.74111 0.01206 0.0
H3353 H 0.10459 0.7497 0.99551 0.0
H3354 H 0.14958 0.78868 0.06352 0.0
H3355 H 0.13434 0.77439 0.03945 0.0
H3356 H 0.09695 0.77074 0.05132 0.0
C3357 C 0.06746 0.73366 0.00915 0.0
C3358 C 0.1028 0.75428 0.0076 0.0
C3359 C 0.05742 0.72135 0.00582 0.0
C3360 C 0.14175 0.79004 0.05934 0.0
C3361 C 0.13298 0.78183 0.04556 0.0
C3362 C 0.09873 0.76649 0.03878 0.0
C3363 C 0.0801 0.73625 0.00937 0.0
C3364 C 0.0906 0.74891 0.01576 0.0
C3365 C 0.1219 0.78234 0.04145 0.0
C3366 C 0.11103 0.7716 0.03119 0.0
H3367 H 0.07462 0.70657 0.99858 0.0
H3368 H 0.09207 0.72791 0.00526 0.0
H3369 H 0.0795 0.75137 0.03816 0.0
H3370 H 0.12736 0.80703 0.07107 0.0
H3371 H 0.11223 0.79296 0.04662 0.0
C3372 C 0.29035 0.35617 0.00854 0.0
C3373 C 0.29917 0.35999 0.02389 0.0
C3374 C 0.27812 0.35418 0.01163 0.0
C3375 C 0.25909 0.36075 0.0472 0.0
H3376 H 0.23045 0.3314 0.02345 0.0
C3377 C 0.20893 0.34671 0.0709 0.0
C3378 C 0.20124 0.33378 0.07508 0.0
C3379 C 0.21974 0.35086 0.05943 0.0
C3380 C 0.23833 0.33964 0.03021 0.0
H3381 H 0.30203 0.36458 0.05455 0.0
H3382 H 0.28072 0.36091 0.06006 0.0
H3383 H 0.25199 0.33686 0.01478 0.0
H3384 H 0.19829 0.31495 0.07001 0.0
H3385 H 0.21729 0.3221 0.05045 0.0
H3386 H 0.24558 0.36307 0.06362 0.0
C3387 C 0.2833 0.35977 0.04548 0.0
C3388 C 0.25071 0.34287 0.02506 0.0
C3389 C 0.29552 0.36184 0.04236 0.0
C3390 C 0.20399 0.32495 0.06661 0.0
C3391 C 0.21491 0.3291 0.0554 0.0
C3392 C 0.24675 0.35746 0.05247 0.0
C3393 C 0.27441 0.3559 0.03018 0.0
C3394 C 0.26125 0.35328 0.03388 0.0
C3395 C 0.22324 0.34216 0.05239 0.0
C3396 C 0.23619 0.34669 0.0444 0.0
H3397 H 0.29293 0.3548 0.9941 0.0
H3398 H 0.27159 0.35136 -0.00054 0.0
H3399 H 0.26696 0.369 0.05397 0.0
H3400 H 0.207 0.35366 0.0775 0.0
H3401 H 0.22574 0.36095 0.05703 0.0
C3402 C 0.72947 0.68114 0.34745 0.0
C3403 C 0.73003 0.69279 0.3512 0.0
C3404 C 0.73986 0.67957 0.35161 0.0
C3405 C 0.76719 0.69182 0.38436 0.0
H3406 H 0.77724 0.67213 0.35229 0.0
C3407 C 0.80427 0.68022 0.41281 0.0
C3408 C 0.80106 0.66748 0.41071 0.0
C3409 C 0.79808 0.68511 0.40174 0.0
C3410 C 0.77453 0.67762 0.36145 0.0
H3411 H 0.74225 0.71211 0.36137 0.0
H3412 H 0.7603 0.70929 0.3689 0.0
H3413 H 0.76132 0.67714 0.34029 0.0
H3414 H 0.7895 0.65005 0.3947 0.0
H3415 H 0.77842 0.65843 0.37565 0.0
H3416 H 0.77983 0.69185 0.40589 0.0
C3417 C 0.75175 0.70134 0.36292 0.0
C3418 C 0.76542 0.68049 0.35455 0.0
C3419 C 0.74139 0.70293 0.35867 0.0
C3420 C 0.79223 0.65996 0.39639 0.0
C3421 C 0.78589 0.66479 0.38549 0.0
C3422 C 0.77619 0.68887 0.39131 0.0
C3423 C 0.75104 0.68958 0.3597 0.0
C3424 C 0.76153 0.68748 0.36606 0.0
C3425 C 0.78836 0.67728 0.38862 0.0
C3426 C 0.77987 0.68158 0.38008 0.0
H3427 H 0.72084 0.67306 0.34196 0.0
H3428 H 0.73895 0.67034 0.34921 0.0
H3429 H 0.76425 0.69703 0.39373 0.0
H3430 H 0.81107 0.68619 0.42377 0.0
H3431 H 0.80049 0.69487 0.40416 0.0
C3432 C 0.32201 0.04803 0.34659 0.0
C3433 C 0.31175 0.03796 0.35623 0.0
C3434 C 0.32455 0.0605 0.34892 0.0
C3435 C 0.31077 0.07993 0.36636 0.0
H3436 H 0.34587 0.10488 0.37768 0.0
C3437 C 0.32608 0.12489 0.41195 0.0
C3438 C 0.33812 0.1356 0.40905 0.0
C3439 C 0.32191 0.11406 0.40041 0.0
C3440 C 0.33606 0.09816 0.37409 0.0
H3441 H 0.29583 0.03308 0.37529 0.0
H3442 H 0.30041 0.05488 0.37968 0.0
H3443 H 0.34047 0.08362 0.36755 0.0
H3444 H 0.35474 0.14381 0.39068 0.0
H3445 H 0.34735 0.12496 0.37017 0.0
H3446 H 0.30633 0.09441 0.37355 0.0
C3447 C 0.30642 0.05311 0.37016 0.0
C3448 C 0.33295 0.08592 0.36833 0.0
C3449 C 0.3039 0.04063 0.36785 0.0
C3450 C 0.34541 0.1357 0.39323 0.0
C3451 C 0.34124 0.12484 0.38165 0.0
C3452 C 0.31388 0.0922 0.3721 0.0
C3453 C 0.31688 0.06321 0.36092 0.0
C3454 C 0.32024 0.07657 0.36484 0.0
C3455 C 0.3297 0.11371 0.38568 0.0
C3456 C 0.32653 0.10138 0.37649 0.0
H3457 H 0.32833 0.04633 0.33766 0.0
H3458 H 0.33261 0.06805 0.34146 0.0
H3459 H 0.30091 0.073 0.36345 0.0
H3460 H 0.32022 0.12462 0.42395 0.0
H3461 H 0.313 0.10568 0.40401 0.0
C3462 C 0.95645 0.2721 0.34468 0.0
C3463 C 0.96595 0.27696 0.35913 0.0
C3464 C 0.94451 0.26152 0.34834 0.0
C3465 C 0.92812 0.23424 0.38163 0.0
H3466 H 0.8976 0.23455 0.36614 0.0
C3467 C 0.87383 0.20995 0.40902 0.0
C3468 C 0.87166 0.1977 0.41306 0.0
C3469 C 0.88424 0.21837 0.39789 0.0
C3470 C 0.90603 0.2343 0.37052 0.0
H3471 H 0.9702 0.27463 0.3889 0.0
H3472 H 0.9495 0.25624 0.39524 0.0
H3473 H 0.91838 0.25196 0.35652 0.0
H3474 H 0.87814 0.18434 0.40713 0.0
H3475 H 0.89602 0.19888 0.3872 0.0
H3476 H 0.91593 0.21696 0.3964 0.0
C3477 C 0.95133 0.26043 0.38094 0.0
C3478 C 0.91794 0.24422 0.36486 0.0
C3479 C 0.96322 0.27099 0.3773 0.0
C3480 C 0.87948 0.19369 0.40427 0.0
C3481 C 0.88986 0.20209 0.39306 0.0
C3482 C 0.91626 0.22435 0.38727 0.0
C3483 C 0.94183 0.25555 0.36652 0.0
C3484 C 0.92913 0.24444 0.37074 0.0
C3485 C 0.89268 0.2147 0.39045 0.0
C3486 C 0.90507 0.22437 0.38212 0.0
H3487 H 0.95828 0.27639 0.33045 0.0
H3488 H 0.93744 0.25793 0.33688 0.0
H3489 H 0.93655 0.23401 0.38615 0.0
H3490 H 0.86787 0.21327 0.41537 0.0
H3491 H 0.8861 0.228 0.39623 0.0
C3492 C 0.02619 0.4034 0.33863 0.0
C3493 C 0.02391 0.39413 0.32447 0.0
C3494 C 0.02438 0.41363 0.33435 0.0
C3495 C 0.00859 0.42414 0.29862 0.0
H3496 H 0.03303 0.4579 0.31706 0.0
C3497 C 0.02766 0.47845 0.27355 0.0
C3498 C 0.01612 0.47706 0.26688 0.0
C3499 C 0.02779 0.46902 0.28493 0.0
C3500 C 0.02612 0.44854 0.31176 0.0
H3501 H 0.01772 0.38829 0.29478 0.0
H3502 H 0.01504 0.40627 0.28713 0.0
H3503 H 0.03497 0.43977 0.32723 0.0
H3504 H 0.99565 0.46542 0.26826 0.0
H3505 H 0.99579 0.44921 0.28888 0.0
H3506 H 1.00018 0.43288 0.28222 0.0
C3507 C 0.01801 0.40556 0.30168 0.0
C3508 C 0.02715 0.43811 0.31778 0.0
C3509 C 0.01975 0.39533 0.30597 0.0
C3510 C 0.00468 0.46666 0.27317 0.0
C3511 C 0.00478 0.45732 0.28478 0.0
C3512 C 0.00762 0.43455 0.29249 0.0
C3513 C 0.02027 0.41484 0.3158 0.0
C3514 C 0.01855 0.42581 0.31094 0.0
C3515 C 0.01634 0.45807 0.29004 0.0
C3516 C 0.01651 0.44693 0.29868 0.0
H3517 H 0.02953 0.40286 0.35297 0.0
H3518 H 0.02612 0.42053 0.34563 0.0
H3519 H 0.00164 0.41478 0.29337 0.0
H3520 H 0.03662 0.48631 0.26869 0.0
H3521 H 0.03688 0.46992 0.28851 0.0
C3522 C 0.6094 0.62746 0.30518 0.0
C3523 C 0.61118 0.63331 0.32342 0.0
C3524 C 0.59892 0.61547 0.3016 0.0
C3525 C 0.57457 0.58629 0.32524 0.0
H3526 H 0.55806 0.58057 0.27506 0.0
C3527 C 0.53181 0.54505 0.2738 0.0
C3528 C 0.53466 0.53529 0.2762 0.0
C3529 C 0.53887 0.55659 0.28361 0.0
C3530 C 0.56236 0.582 0.28931 0.0
H3531 H 0.60333 0.63106 0.35229 0.0
H3532 H 0.58497 0.61001 0.34602 0.0
H3533 H 0.57503 0.60166 0.28372 0.0
H3534 H 0.5464 0.52951 0.29173 0.0
H3535 H 0.55893 0.54975 0.30866 0.0
H3536 H 0.56187 0.56652 0.33072 0.0
C3537 C 0.59178 0.61472 0.33454 0.0
C3538 C 0.57225 0.59409 0.29414 0.0
C3539 C 0.60229 0.62677 0.33812 0.0
C3540 C 0.54394 0.53686 0.28983 0.0
C3541 C 0.55113 0.54848 0.29949 0.0
C3542 C 0.56463 0.57413 0.32039 0.0
C3543 C 0.58992 0.609 0.31617 0.0
C3544 C 0.57866 0.59634 0.31197 0.0
C3545 C 0.54907 0.55869 0.29576 0.0
C3546 C 0.55853 0.5718 0.30221 0.0
H3547 H 0.61621 0.63209 0.29366 0.0
H3548 H 0.59793 0.61121 0.28742 0.0
H3549 H 0.57934 0.58772 0.33908 0.0
H3550 H 0.52467 0.54402 0.26336 0.0
H3551 H 0.53681 0.56413 0.28078 0.0
C3552 C 0.37384 0.97224 0.33916 0.0
C3553 C 0.3705 0.98147 0.33461 0.0
C3554 C 0.38578 0.97403 0.33421 0.0
C3555 C 0.41217 0.99275 0.30016 0.0
H3556 H 0.42928 0.97832 0.32912 0.0
C3557 C 0.45872 0.99881 0.27247 0.0
C3558 C 0.45818 0.98717 0.26902 0.0
C3559 C 0.45004 0.99947 0.28492 0.0
C3560 C 0.42462 0.98244 0.32096 0.0
H3561 H 0.37748 1.00006 0.32167 0.0
H3562 H 0.39836 0.00347 0.31424 0.0
H3563 H 0.40996 0.97703 0.34213 0.0
H3564 H 0.44903 0.96738 0.27737 0.0
H3565 H 0.43391 0.96856 0.29932 0.0
H3566 H 0.42674 0.99812 0.27902 0.0
C3567 C 0.39162 0.99463 0.32106 0.0
C3568 C 0.4135 0.98163 0.32832 0.0
C3569 C 0.37964 0.99275 0.32567 0.0
C3570 C 0.44971 0.9765 0.27984 0.0
C3571 C 0.44102 0.97717 0.29237 0.0
C3572 C 0.42332 0.9937 0.29299 0.0
C3573 C 0.39477 0.98518 0.32482 0.0
C3574 C 0.40705 0.98666 0.31788 0.0
C3575 C 0.44069 0.98851 0.29421 0.0
C3576 C 0.4296 0.98846 0.30319 0.0
H3577 H 0.3672 0.96354 0.34639 0.0
H3578 H 0.38778 0.96647 0.33723 0.0
H3579 H 0.40736 0.99643 0.29138 0.0
H3580 H 0.46526 0.00722 0.26447 0.0
H3581 H 0.45015 0.0084 0.28636 0.0
C3582 C 0.6088 0.99172 0.32346 0.0
C3583 C 0.60674 0.97944 0.32689 0.0
C3584 C 0.59858 0.99367 0.31996 0.0
C3585 C 0.5634 0.97853 0.32314 0.0
H3586 H 0.56777 1.00036 0.27955 0.0
C3587 C 0.52221 0.97547 0.27708 0.0
C3588 C 0.52406 0.98644 0.26754 0.0
C3589 C 0.53173 0.97595 0.28911 0.0
C3590 C 0.56642 0.99446 0.29205 0.0
H3591 H 0.59223 0.95966 0.33014 0.0
H3592 H 0.57444 0.96301 0.32346 0.0
H3593 H 0.58566 0.99858 0.29106 0.0
H3594 H 0.53661 0.00671 0.26459 0.0
H3595 H 0.55308 0.00765 0.28604 0.0
H3596 H 0.54397 0.97412 0.32362 0.0
C3597 C 0.58395 0.97116 0.32371 0.0
C3598 C 0.57671 0.99341 0.29864 0.0
C3599 C 0.59418 0.96921 0.32725 0.0
C3600 C 0.53502 0.99811 0.2717 0.0
C3601 C 0.54448 0.9986 0.28383 0.0
C3602 C 0.55306 0.97958 0.31653 0.0
C3603 C 0.58605 0.98339 0.31973 0.0
C3604 C 0.5753 0.98529 0.31406 0.0
C3605 C 0.54323 0.98742 0.29186 0.0
C3606 C 0.55441 0.98741 0.3007 0.0
H3607 H 0.61834 0.99981 0.32292 0.0
H3608 H 0.60053 0.00323 0.31718 0.0
H3609 H 0.56204 0.97232 0.33523 0.0
H3610 H 0.5139 0.96634 0.27396 0.0
H3611 H 0.53046 0.96714 0.29497 0.0
C3612 C 0.03303 0.63422 0.31428 0.0
C3613 C 0.02791 0.63605 0.33139 0.0
C3614 C 0.0324 0.62263 0.31052 0.0
C3615 C 0.0144 0.58867 0.32259 0.0
H3616 H 0.04233 0.58853 0.29592 0.0
C3617 C 0.00848 0.54808 0.27304 0.0
C3618 C 0.01892 0.54638 0.26965 0.0
C3619 C 0.00948 0.55737 0.28603 0.0
C3620 C 0.03452 0.5883 0.30374 0.0
H3621 H 0.01821 0.62715 0.3581 0.0
H3622 H 0.01708 0.60685 0.35148 0.0
H3623 H 0.04479 0.60845 0.30778 0.0
H3624 H 0.03816 0.55216 0.27876 0.0
H3625 H 0.03977 0.56809 0.30194 0.0
H3626 H 0.00409 0.56849 0.31837 0.0
C3627 C 0.02149 0.61438 0.34091 0.0
C3628 C 0.03587 0.59979 0.31027 0.0
C3629 C 0.02213 0.626 0.34468 0.0
C3630 C 0.02993 0.55324 0.28102 0.0
C3631 C 0.03092 0.5625 0.29412 0.0
C3632 C 0.01305 0.57714 0.31609 0.0
C3633 C 0.02663 0.61257 0.32377 0.0
C3634 C 0.0257 0.60017 0.31924 0.0
C3635 C 0.02093 0.56511 0.29604 0.0
C3636 C 0.02298 0.57686 0.30608 0.0
H3637 H 0.03731 0.64165 0.30354 0.0
H3638 H 0.03618 0.62148 0.29696 0.0
H3639 H 0.00637 0.58861 0.32944 0.0
H3640 H 0.9998 0.5428 0.26467 0.0
H3641 H 0.00158 0.55909 0.28706 0.0
C3642 C 0.3789 0.39223 0.31137 0.0
C3643 C 0.37318 0.39052 0.32962 0.0
C3644 C 0.39069 0.4029 0.30764 0.0
C3645 C 0.41985 0.42801 0.3306 0.0
H3646 H 0.42399 0.44434 0.28085 0.0
C3647 C 0.4681 0.4596 0.2931 0.0
C3648 C 0.46902 0.46886 0.28006 0.0
C3649 C 0.45684 0.45219 0.30333 0.0
C3650 C 0.42299 0.44009 0.29498 0.0
H3651 H 0.37552 0.39872 0.35839 0.0
H3652 H 0.39625 0.41736 0.35188 0.0
H3653 H 0.40332 0.42689 0.28989 0.0
H3654 H 0.45955 0.47859 0.26895 0.0
H3655 H 0.44006 0.46599 0.28727 0.0
H3656 H 0.43966 0.44117 0.3355 0.0
C3657 C 0.39156 0.41036 0.3405 0.0
C3658 C 0.41116 0.42993 0.30002 0.0
C3659 C 0.37969 0.39968 0.34421 0.0
C3660 C 0.45903 0.47147 0.2789 0.0
C3661 C 0.44784 0.46416 0.28923 0.0
C3662 C 0.43177 0.43818 0.32551 0.0
C3663 C 0.39711 0.41215 0.3221 0.0
C3664 C 0.40949 0.42361 0.3177 0.0
C3665 C 0.44635 0.45397 0.30072 0.0
C3666 C 0.43351 0.44423 0.30749 0.0
H3667 H 0.37433 0.38524 0.29993 0.0
H3668 H 0.39484 0.40387 0.29344 0.0
H3669 H 0.41886 0.4233 0.34432 0.0
H3670 H 0.47563 0.45733 0.29406 0.0
H3671 H 0.45602 0.44441 0.31199 0.0
C3672 C 0.33042 0.27615 0.34713 0.0
C3673 C 0.31818 0.27463 0.34672 0.0
C3674 C 0.33208 0.26572 0.35027 0.0
C3675 C 0.31687 0.23541 0.3751 0.0
H3676 H 0.34155 0.2296 0.34848 0.0
C3677 C 0.32742 0.19767 0.40357 0.0
C3678 C 0.34034 0.2014 0.40483 0.0
C3679 C 0.32342 0.20438 0.39188 0.0
C3680 C 0.33466 0.23111 0.35614 0.0
H3681 H 0.29806 0.26095 0.34882 0.0
H3682 H 0.30097 0.24274 0.35446 0.0
H3683 H 0.33723 0.24604 0.33689 0.0
H3684 H 0.35915 0.21457 0.39428 0.0
H3685 H 0.35232 0.22659 0.37436 0.0
H3686 H 0.31475 0.22113 0.39501 0.0
C3687 C 0.30927 0.252 0.35229 0.0
C3688 C 0.33217 0.24051 0.34944 0.0
C3689 C 0.30761 0.2624 0.34894 0.0
C3690 C 0.3491 0.21142 0.39328 0.0
C3691 C 0.34515 0.2183 0.38186 0.0
C3692 C 0.31946 0.22615 0.38193 0.0
C3693 C 0.32153 0.25358 0.35328 0.0
C3694 C 0.32337 0.24286 0.35903 0.0
C3695 C 0.33232 0.21519 0.38163 0.0
C3696 C 0.32853 0.22398 0.37274 0.0
H3697 H 0.33873 0.28545 0.34529 0.0
H3698 H 0.34164 0.26725 0.35111 0.0
H3699 H 0.31018 0.23713 0.38297 0.0
H3700 H 0.32052 0.18997 0.41243 0.0
H3701 H 0.31342 0.20146 0.39165 0.0
C3702 C 0.72825 0.04434 0.33719 0.0
C3703 C 0.72271 0.03636 0.35328 0.0
C3704 C 0.73903 0.05638 0.33949 0.0
C3705 C 0.76617 0.07427 0.37224 0.0
H3706 H 0.76746 0.1046 0.35197 0.0
C3707 C 0.80716 0.12228 0.39431 0.0
C3708 C 0.80287 0.12984 0.40321 0.0
C3709 C 0.79915 0.11236 0.38185 0.0
C3710 C 0.76729 0.0962 0.35754 0.0
H3711 H 0.72398 0.03508 0.38453 0.0
H3712 H 0.74287 0.05584 0.38841 0.0
H3713 H 0.74941 0.08364 0.34378 0.0
H3714 H 0.78756 0.13405 0.40408 0.0
H3715 H 0.77352 0.11668 0.38255 0.0
H3716 H 0.78363 0.08664 0.38671 0.0
C3717 C 0.73896 0.05272 0.37398 0.0
C3718 C 0.757 0.08422 0.35279 0.0
C3719 C 0.72814 0.04079 0.37173 0.0
C3720 C 0.79104 0.12827 0.39758 0.0
C3721 C 0.78302 0.11834 0.38515 0.0
C3722 C 0.77646 0.08617 0.37685 0.0
C3723 C 0.74457 0.0606 0.3579 0.0
C3724 C 0.75617 0.07317 0.36061 0.0
C3725 C 0.78671 0.10982 0.37809 0.0
C3726 C 0.77699 0.09731 0.37 0.0
H3727 H 0.72441 0.0412 0.32274 0.0
H3728 H 0.7432 0.06226 0.32685 0.0
H3729 H 0.76584 0.0659 0.37826 0.0
H3730 H 0.81621 0.12323 0.39837 0.0
H3731 H 0.80236 0.10611 0.3763 0.0
C3732 C 0.95639 0.68212 0.37929 0.0
C3733 C 0.96277 0.68812 0.36215 0.0
C3734 C 0.94432 0.68027 0.38311 0.0
C3735 C 0.91563 0.67771 0.3612 0.0
H3736 H 0.91043 0.68636 0.41321 0.0
C3737 C 0.87555 0.6789 0.41486 0.0
C3738 C 0.86556 0.66638 0.4123 0.0
C3739 C 0.88691 0.68326 0.40477 0.0
C3740 C 0.91173 0.68408 0.39851 0.0
H3741 H 0.96124 0.69656 0.33533 0.0
H3742 H 0.93997 0.69309 0.34195 0.0
H3743 H 0.9313 0.69026 0.40385 0.0
H3744 H 0.85914 0.64894 0.39607 0.0
H3745 H 0.87906 0.6565 0.37848 0.0
H3746 H 0.89589 0.67129 0.35607 0.0
C3747 C 0.94441 0.68988 0.3524 0.0
C3748 C 0.92367 0.68616 0.39324 0.0
C3749 C 0.95657 0.69183 0.34861 0.0
C3750 C 0.86668 0.65868 0.39815 0.0
C3751 C 0.8781 0.66301 0.38812 0.0
C3752 C 0.90358 0.67552 0.36654 0.0
C3753 C 0.93826 0.68426 0.36984 0.0
C3754 C 0.92572 0.68282 0.37466 0.0
C3755 C 0.88855 0.67514 0.39208 0.0
C3756 C 0.90148 0.67858 0.38534 0.0
H3757 H 0.9607 0.67883 0.38981 0.0
H3758 H 0.9397 0.67567 0.39651 0.0
H3759 H 0.91695 0.67502 0.34678 0.0
H3760 H 0.87487 0.68503 0.42564 0.0
H3761 H 0.89468 0.69275 0.40781 0.0
C3762 C 0.4057 0.03199 0.68038 0.0
C3763 C 0.39515 0.02688 0.69287 0.0
C3764 C 0.41642 0.03101 0.68485 0.0
C3765 C 0.43321 0.02765 0.7264 0.0
H3766 H 0.44826 0.01463 0.69008 0.0
C3767 C 0.47475 0.02216 0.75087 0.0
C3768 C 0.47255 0.00975 0.74844 0.0
C3769 C 0.46779 0.02633 0.74017 0.0
C3770 C 0.44421 0.01837 0.7003 0.0
H3771 H 0.38751 0.01625 0.71944 0.0
H3772 H 0.40627 0.0149 0.72741 0.0
H3773 H 0.43052 0.01746 0.67961 0.0
H3774 H 0.46224 0.99239 0.73169 0.0
H3775 H 0.45001 0.99966 0.71297 0.0
H3776 H 0.44649 0.02824 0.74727 0.0
C3777 C 0.40628 0.01977 0.71428 0.0
C3778 C 0.43412 0.02004 0.6943 0.0
C3779 C 0.39554 0.02061 0.70973 0.0
C3780 C 0.46418 0.00204 0.73374 0.0
C3781 C 0.45716 0.0062 0.72305 0.0
C3782 C 0.44333 0.02611 0.73232 0.0
C3783 C 0.41687 0.02504 0.70199 0.0
C3784 C 0.42835 0.02442 0.70746 0.0
C3785 C 0.45843 0.01815 0.7269 0.0
C3786 C 0.44882 0.02125 0.71947 0.0
H3787 H 0.4058 0.03699 0.66736 0.0
H3788 H 0.42449 0.0352 0.67517 0.0
H3789 H 0.42902 0.03116 0.73679 0.0
H3790 H 0.48124 0.02832 0.76202 0.0
H3791 H 0.46917 0.03569 0.74316 0.0
C3792 C 0.99171 0.38104 0.68734 0.0
C3793 C 0.97928 0.37071 0.68503 0.0
C3794 C 0.99387 0.39328 0.69073 0.0
C3795 C 0.97789 0.41289 0.69169 0.0
H3796 H 0.00618 0.43396 0.72587 0.0
C3797 C 0.98427 0.45459 0.74111 0.0
C3798 C 0.99649 0.46535 0.74186 0.0
C3799 C 0.98183 0.44424 0.7293 0.0
C3800 C 0.99836 0.42826 0.71606 0.0
H3801 H 0.95939 0.36549 0.68408 0.0
H3802 H 0.9631 0.38657 0.69155 0.0
H3803 H 0.00261 0.4133 0.71599 0.0
H3804 H 0.01547 0.47414 0.72996 0.0
H3805 H 0.01124 0.45593 0.70954 0.0
H3806 H 0.97324 0.42776 0.69321 0.0
C3807 C 0.97124 0.3853 0.69005 0.0
C3808 C 0.99631 0.41639 0.71027 0.0
C3809 C 0.96909 0.37307 0.68614 0.0
C3810 C 0.00594 0.46601 0.72947 0.0
C3811 C 0.00355 0.45558 0.71792 0.0
C3812 C 0.97979 0.4247 0.6979 0.0
C3813 C 0.98368 0.39557 0.69258 0.0
C3814 C 0.98603 0.40848 0.69803 0.0
C3815 C 0.99163 0.44443 0.71835 0.0
C3816 C 0.99005 0.43247 0.71014 0.0
H3817 H 0.99987 0.37971 0.68697 0.0
H3818 H 0.00361 0.40092 0.69209 0.0
H3819 H 0.97 0.40722 0.68202 0.0
H3820 H 0.97688 0.45386 0.75065 0.0
H3821 H 0.97259 0.43571 0.72996 0.0
C3822 C 0.62317 0.60072 0.67946 0.0
C3823 C 0.62669 0.61343 0.68338 0.0
C3824 C 0.61101 0.59082 0.68406 0.0
C3825 C 0.5842 0.58403 0.71651 0.0
H3826 H 0.56687 0.55248 0.68732 0.0
C3827 C 0.53689 0.54373 0.74311 0.0
C3828 C 0.53681 0.53224 0.74563 0.0
C3829 C 0.54598 0.55325 0.73136 0.0
C3830 C 0.5716 0.56126 0.69556 0.0
H3831 H 0.61991 0.62561 0.69481 0.0
H3832 H 0.59867 0.6085 0.70189 0.0
H3833 H 0.58662 0.5702 0.67489 0.0
H3834 H 0.54549 0.52128 0.73651 0.0
H3835 H 0.56134 0.53788 0.71588 0.0
H3836 H 0.56933 0.57511 0.73726 0.0
C3837 C 0.6054 0.60612 0.69573 0.0
C3838 C 0.58294 0.57139 0.68852 0.0
C3839 C 0.61758 0.61599 0.69137 0.0
C3840 C 0.54525 0.53 0.73474 0.0
C3841 C 0.55436 0.53953 0.72296 0.0
C3842 C 0.57285 0.57399 0.72342 0.0
C3843 C 0.60202 0.59339 0.69252 0.0
C3844 C 0.58948 0.58285 0.69905 0.0
C3845 C 0.55518 0.55146 0.72188 0.0
C3846 C 0.56649 0.56243 0.71317 0.0
H3847 H 0.62983 0.59836 0.67299 0.0
H3848 H 0.60883 0.58114 0.68151 0.0
H3849 H 0.58906 0.59256 0.72529 0.0
H3850 H 0.53038 0.54565 0.75114 0.0
H3851 H 0.54623 0.56226 0.73049 0.0
C3852 C 0.67273 0.72445 0.65136 0.0
C3853 C 0.68321 0.72574 0.662 0.0
C3854 C 0.67081 0.73479 0.64908 0.0
C3855 C 0.68884 0.76917 0.6464 0.0
H3856 H 0.65579 0.76667 0.6473 0.0
C3857 C 0.68358 0.81001 0.61677 0.0
C3858 C 0.67337 0.80622 0.60376 0.0
C3859 C 0.68387 0.80126 0.62957 0.0
C3860 C 0.66509 0.76754 0.64693 0.0
H3861 H 0.69947 0.73879 0.67951 0.0
H3862 H 0.69629 0.75689 0.67503 0.0
H3863 H 0.65802 0.74883 0.65845 0.0
H3864 H 0.65479 0.79068 0.59559 0.0
H3865 H 0.65551 0.77534 0.61714 0.0
H3866 H 0.69587 0.78745 0.63382 0.0
C3867 C 0.68962 0.74788 0.66839 0.0
C3868 C 0.66635 0.75732 0.65336 0.0
C3869 C 0.69148 0.73752 0.67083 0.0
C3870 C 0.66293 0.79383 0.60513 0.0
C3871 C 0.66329 0.78505 0.61772 0.0
C3872 C 0.68757 0.7793 0.63975 0.0
C3873 C 0.67938 0.74666 0.65725 0.0
C3874 C 0.6782 0.75795 0.65278 0.0
C3875 C 0.67403 0.78849 0.62947 0.0
C3876 C 0.67562 0.77853 0.63949 0.0
H3877 H 0.66625 0.7156 0.64415 0.0
H3878 H 0.66293 0.73362 0.6402 0.0
H3879 H 0.69807 0.76988 0.64556 0.0
H3880 H 0.69179 0.81947 0.61615 0.0
H3881 H 0.69213 0.80436 0.63881 0.0
C3882 C 0.27802 0.95733 0.64277 0.0
C3883 C 0.27813 0.96413 0.65938 0.0
C3884 C 0.26757 0.94542 0.63855 0.0
C3885 C 0.24013 0.91774 0.6597 0.0
H3886 H 0.2278 0.91157 0.60661 0.0
C3887 C 0.19932 0.87713 0.60537 0.0
C3888 C 0.20141 0.86696 0.60899 0.0
C3889 C 0.20643 0.88868 0.61513 0.0
C3890 C 0.23096 0.91317 0.62158 0.0
H3891 H 0.26728 0.96355 0.68468 0.0
H3892 H 0.24912 0.94258 0.67743 0.0
H3893 H 0.24509 0.93243 0.61595 0.0
H3894 H 0.21167 0.86047 0.62686 0.0
H3895 H 0.22417 0.88069 0.64398 0.0
H3896 H 0.22611 0.89829 0.66515 0.0
C3897 C 0.25718 0.94655 0.66774 0.0
C3898 C 0.24099 0.92509 0.62686 0.0
C3899 C 0.2676 0.95855 0.67189 0.0
C3900 C 0.20981 0.86813 0.62392 0.0
C3901 C 0.21699 0.87974 0.63367 0.0
C3902 C 0.23013 0.90571 0.65436 0.0
C3903 C 0.25701 0.93994 0.6509 0.0
C3904 C 0.2458 0.92746 0.64588 0.0
C3905 C 0.21583 0.89031 0.62864 0.0
C3906 C 0.22551 0.90328 0.63518 0.0
H3907 H 0.28605 0.96116 0.63305 0.0
H3908 H 0.2678 0.94044 0.62565 0.0
H3909 H 0.24369 0.91931 0.67447 0.0
H3910 H 0.19283 0.87642 0.59398 0.0
H3911 H 0.20513 0.89657 0.61124 0.0
C3912 C 0.0416 0.30722 0.67766 0.0
C3913 C 0.03482 0.30951 0.66319 0.0
C3914 C 0.05397 0.30967 0.67424 0.0
C3915 C 0.08132 0.32772 0.64133 0.0
H3916 H 0.09178 0.30397 0.6582 0.0
C3917 C 0.11904 0.31215 0.61549 0.0
C3918 C 0.12891 0.32413 0.60989 0.0
C3919 C 0.10908 0.3111 0.62691 0.0
C3920 C 0.08902 0.3107 0.65339 0.0
H3921 H 0.03586 0.31632 0.63382 0.0
H3922 H 0.0571 0.32012 0.62766 0.0
H3923 H 0.07092 0.30052 0.66728 0.0
H3924 H 0.13685 0.34441 0.6133 0.0
H3925 H 0.11981 0.34265 0.63403 0.0
H3926 H 0.09896 0.33749 0.62644 0.0
C3927 C 0.05299 0.31665 0.6418 0.0
C3928 C 0.07709 0.30879 0.65877 0.0
C3929 C 0.04069 0.31426 0.64522 0.0
C3930 C 0.12929 0.33506 0.61738 0.0
C3931 C 0.11945 0.33402 0.62906 0.0
C3932 C 0.09315 0.32958 0.63584 0.0
C3933 C 0.05984 0.31447 0.65628 0.0
C3934 C 0.07298 0.31712 0.65239 0.0
C3935 C 0.10889 0.32204 0.63313 0.0
C3936 C 0.09708 0.32095 0.64144 0.0
H3937 H 0.03733 0.30346 0.69161 0.0
H3938 H 0.05899 0.30794 0.68576 0.0
H3939 H 0.07858 0.33449 0.6365 0.0
H3940 H 0.11845 0.30358 0.60969 0.0
H3941 H 0.10111 0.30171 0.62958 0.0
C3942 C 0.26597 0.30471 0.66969 0.0
C3943 C 0.27823 0.31477 0.66571 0.0
C3944 C 0.25539 0.30622 0.66737 0.0
C3945 C 0.24527 0.33021 0.65989 0.0
H3946 H 0.21743 0.30266 0.63169 0.0
C3947 C 0.21005 0.33609 0.61119 0.0
C3948 C 0.19785 0.3256 0.60805 0.0
C3949 C 0.2186 0.33518 0.62375 0.0
C3950 C 0.22494 0.31034 0.63999 0.0
H3951 H 0.28906 0.33444 0.65677 0.0
H3952 H 0.27059 0.33705 0.65244 0.0
H3953 H 0.23498 0.30022 0.64293 0.0
H3954 H 0.18461 0.30637 0.61714 0.0
H3955 H 0.19937 0.30491 0.63952 0.0
H3956 H 0.23535 0.34049 0.65622 0.0
C3957 C 0.26914 0.32804 0.65767 0.0
C3958 C 0.23506 0.30895 0.64641 0.0
C3959 C 0.27974 0.32654 0.66008 0.0
C3960 C 0.19393 0.31463 0.61923 0.0
C3961 C 0.20246 0.31374 0.63187 0.0
C3962 C 0.23511 0.33161 0.65344 0.0
C3963 C 0.25681 0.31782 0.66092 0.0
C3964 C 0.24548 0.31894 0.6561 0.0
C3965 C 0.21508 0.32377 0.63353 0.0
C3966 C 0.22494 0.32178 0.64306 0.0
H3967 H 0.26453 0.2956 0.67441 0.0
H3968 H 0.24606 0.29823 0.67036 0.0
H3969 H 0.25306 0.33802 0.66757 0.0
H3970 H 0.21328 0.34473 0.60295 0.0
H3971 H 0.22823 0.3431 0.62464 0.0
C3972 C 0.69523 0.96386 0.65164 0.0
C3973 C 0.69119 0.96688 0.66887 0.0
C3974 C 0.69403 0.95192 0.64908 0.0
C3975 C 0.67616 0.91882 0.6661 0.0
H3976 H 0.70186 0.91632 0.63653 0.0
C3977 C 0.66603 0.87537 0.62027 0.0
C3978 C 0.67617 0.87363 0.61466 0.0
C3979 C 0.66806 0.88515 0.63304 0.0
C3980 C 0.69469 0.91675 0.64522 0.0
H3981 H 0.6828 0.95975 0.69702 0.0
H3982 H 0.68072 0.93884 0.69256 0.0
H3983 H 0.70553 0.93701 0.64644 0.0
H3984 H 0.69598 0.87969 0.6202 0.0
H3985 H 0.69935 0.89628 0.64325 0.0
H3986 H 0.66531 0.8985 0.66482 0.0
C3987 C 0.68471 0.94569 0.68095 0.0
C3988 C 0.69671 0.92868 0.65061 0.0
C3989 C 0.68589 0.95766 0.6835 0.0
C3990 C 0.68795 0.88078 0.62409 0.0
C3991 C 0.68995 0.89046 0.63709 0.0
C3992 C 0.67416 0.90683 0.66081 0.0
C3993 C 0.68879 0.94269 0.6637 0.0
C3994 C 0.6873 0.92991 0.66051 0.0
C3995 C 0.68025 0.8933 0.64074 0.0
C3996 C 0.68323 0.90566 0.64975 0.0
H3997 H 0.69912 0.97064 0.63993 0.0
H3998 H 0.69697 0.94984 0.6354 0.0
H3999 H 0.66871 0.91941 0.67375 0.0
H4000 H 0.65675 0.86982 0.61356 0.0
H4001 H 0.66031 0.88694 0.6355 0.0
C4002 C 0.04516 0.73168 0.67395 0.0
C4003 C 0.03902 0.72195 0.66002 0.0
C4004 C 0.05733 0.74198 0.67047 0.0
C4005 C 0.07798 0.75977 0.63011 0.0
H4006 H 0.10585 0.77239 0.66709 0.0
C4007 C 0.13492 0.79035 0.62491 0.0
C4008 C 0.13582 0.79945 0.61157 0.0
C4009 C 0.12356 0.78283 0.63488 0.0
C4010 C 0.09812 0.769 0.65668 0.0
H4011 H 0.04121 0.71515 0.63197 0.0
H4012 H 0.06221 0.73317 0.62581 0.0
H4013 H 0.08489 0.75467 0.67598 0.0
H4014 H 0.12619 0.80883 0.59968 0.0
H4015 H 0.1065 0.79597 0.6174 0.0
H4016 H 0.09108 0.77373 0.61061 0.0
C4017 C 0.05755 0.73292 0.63929 0.0
C4018 C 0.08614 0.75892 0.6618 0.0
C4019 C 0.04548 0.72261 0.64281 0.0
C4020 C 0.12568 0.80181 0.60983 0.0
C4021 C 0.11439 0.79438 0.61984 0.0
C4022 C 0.08985 0.76987 0.62509 0.0
C4023 C 0.06354 0.7428 0.65294 0.0
C4024 C 0.07602 0.75406 0.64839 0.0
C4025 C 0.11297 0.78436 0.63167 0.0
C4026 C 0.10012 0.77452 0.63819 0.0
H4027 H 0.04043 0.73154 0.6873 0.0
H4028 H 0.06171 0.7495 0.68121 0.0
H4029 H 0.07032 0.75632 0.61956 0.0
H4030 H 0.14258 0.78828 0.62635 0.0
H4031 H 0.12277 0.77518 0.64386 0.0
C4032 C 0.98284 0.60303 0.68171 0.0
C4033 C 0.97371 0.60528 0.6905 0.0
C4034 C 0.98401 0.59257 0.68706 0.0
C4035 C 0.97639 0.57024 0.72789 0.0
H4036 H 0.98661 0.55235 0.69219 0.0
C4037 C 0.98185 0.52911 0.75486 0.0
C4038 C 0.99378 0.53039 0.75109 0.0
C4039 C 0.97768 0.53615 0.74442 0.0
C4040 C 0.98374 0.55726 0.70229 0.0
H4041 H 0.95848 0.59799 0.71161 0.0
H4042 H 0.96011 0.57956 0.72016 0.0
H4043 H 0.9826 0.56892 0.68003 0.0
H4044 H 0.01022 0.5392 0.73238 0.0
H4045 H 0.00291 0.55153 0.71401 0.0
H4046 H 0.97759 0.55872 0.75013 0.0
C4047 C 0.9666 0.58604 0.70948 0.0
C4048 C 0.9815 0.5668 0.69537 0.0
C4049 C 0.96553 0.59655 0.70431 0.0
C4050 C 1.00094 0.53796 0.73549 0.0
C4051 C 0.99677 0.54505 0.72502 0.0
C4052 C 0.9785 0.56068 0.73473 0.0
C4053 C 0.97601 0.58403 0.70121 0.0
C4054 C 0.97787 0.57347 0.70813 0.0
C4055 C 0.98537 0.54465 0.73001 0.0
C4056 C 0.98227 0.55412 0.72206 0.0
H4057 H 0.98917 0.6094 0.67078 0.0
H4058 H 0.99143 0.59141 0.68047 0.0
H4059 H 0.97394 0.57535 0.73828 0.0
H4060 H 0.97609 0.52322 0.76668 0.0
H4061 H 0.96873 0.53544 0.74831 0.0
C4062 C 0.40199 0.3733 0.69692 0.0
C4063 C 0.39507 0.36999 0.67944 0.0
C4064 C 0.41272 0.38527 0.69936 0.0
C4065 C 0.42814 0.4181 0.68163 0.0
H4066 H 0.45637 0.42076 0.71169 0.0
C4067 C 0.46128 0.46141 0.72805 0.0
C4068 C 0.47324 0.46328 0.7336 0.0
C4069 C 0.45357 0.45168 0.71512 0.0
C4070 C 0.44876 0.42028 0.70287 0.0
H4071 H 0.39407 0.3767 0.65075 0.0
H4072 H 0.41288 0.39772 0.65507 0.0
H4073 H 0.43929 0.40001 0.70187 0.0
H4074 H 0.48715 0.45751 0.72791 0.0
H4075 H 0.47395 0.44094 0.70469 0.0
H4076 H 0.4376 0.43843 0.68284 0.0
C4077 C 0.40991 0.39102 0.66691 0.0
C4078 C 0.43883 0.40832 0.69751 0.0
C4079 C 0.39912 0.379 0.66446 0.0
C4080 C 0.47797 0.45631 0.72403 0.0
C4081 C 0.47031 0.44666 0.71092 0.0
C4082 C 0.43813 0.43012 0.68694 0.0
C4083 C 0.41686 0.39427 0.68438 0.0
C4084 C 0.42819 0.40706 0.68743 0.0
C4085 C 0.45772 0.4437 0.70726 0.0
C4086 C 0.44838 0.43134 0.69817 0.0
H4087 H 0.39898 0.36671 0.70891 0.0
H4088 H 0.41765 0.38755 0.71318 0.0
H4089 H 0.42009 0.41746 0.67384 0.0
H4090 H 0.45747 0.4668 0.73491 0.0
H4091 H 0.44397 0.44977 0.71266 0.0
C4092 C 0.62555 0.0305 0.68759 0.0
C4093 C 0.62807 0.02066 0.68333 0.0
C4094 C 0.61308 0.02794 0.69004 0.0
C4095 C 0.58122 0.00136 0.70243 0.0
H4096 H 0.57103 0.02628 0.69178 0.0
C4097 C 0.53289 0.99291 0.72755 0.0
C4098 C 0.53413 0.00271 0.73981 0.0
C4099 C 0.5428 0.99491 0.71516 0.0
C4100 C 0.57372 0.0192 0.69469 0.0
H4101 H 0.61925 1.0004 0.67771 0.0
H4102 H 0.59758 0.99607 0.68108 0.0
H4103 H 0.59161 0.02994 0.68044 0.0
H4104 H 0.54609 0.02252 0.74756 0.0
H4105 H 0.56332 0.0261 0.72574 0.0
H4106 H 0.56345 0.99074 0.71694 0.0
C4107 C 0.60526 0.00574 0.68304 0.0
C4108 C 0.58554 0.02132 0.68834 0.0
C4109 C 0.61774 0.00827 0.68083 0.0
C4110 C 0.54492 0.01483 0.7382 0.0
C4111 C 0.55476 0.01687 0.72568 0.0
C4112 C 0.56937 0.99918 0.70857 0.0
C4113 C 0.60277 0.01549 0.68807 0.0
C4114 C 0.58959 0.01258 0.69258 0.0
C4115 C 0.55405 0.00678 0.7147 0.0
C4116 C 0.56562 0.00822 0.7052 0.0
H4117 H 0.63322 0.04021 0.68925 0.0
H4118 H 0.61159 0.0357 0.69411 0.0
H4119 H 0.58403 0.9945 0.7063 0.0
H4120 H 0.5247 0.98345 0.72865 0.0
H4121 H 0.54196 0.987 0.70672 0.0
loop_
_geom_bond_atom_site_label_1
_geom_bond_atom_site_label_2
_geom_bond_distance
_geom_bond_site_symmetry_2
_ccdc_geom_bond_type
Li0 N17 1.990 . S
Li0 O60 1.956 . S
Li0 O61 1.970 1_654 S
Li0 O62 1.961 . S
Li1 N25 1.990 . S
Li1 O60 1.970 1_455 S
Li1 O61 1.956 1_554 S
Li1 O63 1.961 . S
Li2 N47 1.990 . S
Li2 O60 1.961 . S
Li2 O62 1.956 . S
Li2 O63 1.970 1_655 S
Li3 N53 1.990 . S
Li3 O61 1.961 . S
Li3 O62 1.970 1_456 S
Li3 O63 1.956 1_556 S
C4 C6 1.348 1_655 S
C4 C7 1.356 . S
C4 O60 1.325 . S
N5 C8 1.314 . S
N5 C9 1.279 . S
C6 C4 1.348 1_455 S
C6 C8 1.353 1_455 S
C6 H64 0.929 . S
C7 C4 1.356 . S
C7 C9 1.358 . S
C7 H65 0.930 . S
C8 N5 1.314 . S
C8 C6 1.353 1_655 S
C8 H66 0.930 1_655 S
C9 N5 1.279 . S
C9 C7 1.358 . S
C9 H67 0.930 . S
C10 C13 1.348 1_455 S
C10 C14 1.356 . S
C10 O61 1.325 . S
C11 N12 1.279 . S
C11 C14 1.358 . S
C11 H68 0.930 . S
N12 C11 1.279 . S
N12 C15 1.314 . S
C13 C10 1.348 1_655 S
C13 C15 1.333 1_655 S
C13 H69 0.951 . S
C14 C10 1.356 . S
C14 C11 1.358 . S
C14 H70 0.930 . S
C15 N12 1.314 . S
C15 C13 1.333 1_455 S
C15 H71 0.930 1_455 S
C16 N17 1.314 1_556 S
C16 C21 1.353 . S
C16 H22 0.930 . S
N17 Li0 1.990 . S
N17 C16 1.314 1_554 S
N17 C19 1.279 . S
C18 C19 1.358 . S
C18 C20 1.356 1_554 S
C18 H72 0.930 . S
C19 N17 1.279 . S
C19 C18 1.358 . S
C19 H23 0.930 . S
C20 C18 1.356 1_556 S
C20 C21 1.348 . S
C21 C16 1.353 . S
C21 C20 1.348 . S
C21 H73 0.929 . S
H22 C16 0.930 . S
H23 C19 0.930 . S
C24 N25 1.314 . S
C24 C26 1.353 . S
C24 H30 0.930 . S
N25 Li1 1.990 . S
N25 C24 1.314 . S
N25 C28 1.279 . S
C26 C24 1.353 . S
C26 C29 1.348 . S
C26 H74 0.929 . S
C27 C28 1.358 . S
C27 C29 1.356 . S
C27 H75 0.930 . S
C28 N25 1.279 . S
C28 C27 1.358 . S
C28 H31 0.930 1_554 S
C29 C26 1.348 . S
C29 C27 1.356 . S
H30 C24 0.930 . S
H31 C28 0.930 1_556 S
C32 C34 1.348 1_554 S
C32 C35 1.356 . S
C32 O62 1.325 . S
N33 C36 1.314 . S
N33 C37 1.279 1_556 S
C34 C32 1.348 1_556 S
C34 C36 1.353 . S
C34 H76 0.929 . S
C35 C32 1.356 . S
C35 C37 1.358 . S
C35 H77 0.930 . S
C36 N33 1.314 . S
C36 C34 1.353 . S
C36 H78 0.930 . S
C37 N33 1.279 1_554 S
C37 C35 1.358 . S
C37 H79 0.930 . S
C38 C39 1.348 . S
C38 C40 1.356 . S
C38 O63 1.325 . S
C39 C38 1.348 . S
C39 C41 1.353 . S
C39 H80 0.929 . S
C40 C38 1.356 . S
C40 C42 1.358 . S
C40 H81 0.930 . S
C41 C39 1.353 . S
C41 N43 1.314 . S
C41 H82 0.930 . S
C42 C40 1.358 . S
C42 N43 1.279 . S
C42 H83 0.930 . S
N43 C41 1.314 . S
N43 C42 1.279 . S
C44 C46 1.353 . S
C44 N47 1.314 . S
C44 H50 0.930 1_655 S
C45 N47 1.279 . S
C45 C48 1.358 . S
C45 H51 0.930 . S
C46 C44 1.353 . S
C46 C49 1.348 . S
C46 H84 0.925 1_655 S
N47 Li2 1.990 . S
N47 C44 1.314 . S
N47 C45 1.279 . S
C48 C45 1.358 . S
C48 C49 1.356 . S
C48 H85 0.930 . S
C49 C46 1.348 . S
C49 C48 1.356 . S
H50 C44 0.930 1_455 S
H51 C45 0.930 . S
C52 N53 1.314 . S
C52 C54 1.353 . S
C52 H58 0.930 1_455 S
N53 Li3 1.990 . S
N53 C52 1.314 . S
N53 C56 1.279 . S
C54 C52 1.353 . S
C54 C57 1.348 . S
C54 H86 0.954 . S
C55 C56 1.358 . S
C55 C57 1.356 . S
C55 H87 0.930 . S
C56 N53 1.279 . S
C56 C55 1.358 . S
C56 H59 0.930 . S
C57 C54 1.348 . S
C57 C55 1.356 . S
H58 C52 0.930 1_655 S
H59 C56 0.930 . S
O60 Li0 1.956 . S
O60 Li1 1.970 1_655 S
O60 Li2 1.961 . S
O60 C4 1.325 . S
O61 Li0 1.970 1_456 S
O61 Li1 1.956 1_556 S
O61 Li3 1.961 . S
O61 C10 1.325 . S
O62 Li0 1.961 . S
O62 Li2 1.956 . S
O62 Li3 1.970 1_654 S
O62 C32 1.325 . S
O63 Li1 1.961 . S
O63 Li2 1.970 1_455 S
O63 Li3 1.956 1_554 S
O63 C38 1.325 . S
H64 C6 0.929 . S
H65 C7 0.930 . S
H66 C8 0.930 1_455 S
H67 C9 0.930 . S
H68 C11 0.930 . S
H69 C13 0.951 . S
H70 C14 0.930 . S
H71 C15 0.930 1_655 S
H72 C18 0.930 . S
H73 C21 0.929 . S
H74 C26 0.929 . S
H75 C27 0.930 . S
H76 C34 0.929 . S
H77 C35 0.930 . S
H78 C36 0.930 . S
H79 C37 0.930 . S
H80 C39 0.929 . S
H81 C40 0.930 . S
H82 C41 0.930 . S
H83 C42 0.930 . S
H84 C46 0.925 1_455 S
H85 C48 0.930 . S
H86 C54 0.954 . S
H87 C55 0.930 . S
Li88 N105 1.990 . S
Li88 O148 1.956 . S
Li88 O149 1.970 1_554 S
Li88 O150 1.961 . S
Li89 N113 1.990 . S
Li89 O148 1.970 . S
Li89 O149 1.956 1_554 S
Li89 O151 1.961 . S
Li90 N135 1.990 . S
Li90 O148 1.961 . S
Li90 O150 1.956 . S
Li90 O151 1.970 . S
Li91 N141 1.990 . S
Li91 O149 1.961 . S
Li91 O150 1.970 1_556 S
Li91 O151 1.956 1_556 S
C92 C94 1.348 . S
C92 C95 1.356 . S
C92 O148 1.325 . S
N93 C96 1.314 . S
N93 C97 1.279 . S
C94 C92 1.348 . S
C94 C96 1.353 . S
C94 H152 0.929 . S
C95 C92 1.356 . S
C95 C97 1.358 . S
C95 H153 0.930 . S
C96 N93 1.314 . S
C96 C94 1.353 . S
C96 H154 0.930 . S
C97 N93 1.279 . S
C97 C95 1.358 . S
C97 H155 0.930 . S
C98 C101 1.348 . S
C98 C102 1.356 . S
C98 O149 1.325 . S
C99 N100 1.279 . S
C99 C102 1.358 . S
C99 H156 0.930 . S
N100 C99 1.279 . S
N100 C103 1.314 . S
C101 C98 1.348 . S
C101 C103 1.353 . S
C101 H157 0.929 . S
C102 C98 1.356 . S
C102 C99 1.358 . S
C102 H158 0.930 . S
C103 N100 1.314 . S
C103 C101 1.353 . S
C103 H159 0.930 . S
C104 N105 1.315 1_556 S
C104 C109 1.353 . S
C104 H110 0.930 . S
N105 Li88 1.990 . S
N105 C104 1.315 1_554 S
N105 C107 1.279 . S
C106 C107 1.358 . S
C106 C108 1.356 1_554 S
C106 H160 0.930 . S
C107 N105 1.279 . S
C107 C106 1.358 . S
C107 H111 0.930 . S
C108 C106 1.356 1_556 S
C108 C109 1.348 . S
C109 C104 1.353 . S
C109 C108 1.348 . S
C109 H161 0.929 . S
H110 C104 0.930 . S
H111 C107 0.930 . S
C112 N113 1.314 . S
C112 C114 1.353 . S
C112 H118 0.930 . S
N113 Li89 1.990 . S
N113 C112 1.314 . S
N113 C116 1.279 . S
C114 C112 1.353 . S
C114 C117 1.348 . S
C114 H162 0.929 . S
C115 C116 1.358 . S
C115 C117 1.356 . S
C115 H163 0.930 . S
C116 N113 1.279 . S
C116 C115 1.358 . S
C116 H119 0.931 1_554 S
C117 C114 1.348 . S
C117 C115 1.356 . S
H118 C112 0.930 . S
H119 C116 0.931 1_556 S
C120 C122 1.360 . S
C120 C123 1.347 1_556 S
C120 O150 1.321 1_556 S
N121 C124 1.314 . S
N121 C125 1.279 1_556 S
C122 C120 1.360 . S
C122 C124 1.353 . S
C122 H164 0.929 . S
C123 C120 1.347 1_554 S
C123 C125 1.358 . S
C123 H165 0.930 . S
C124 N121 1.314 . S
C124 C122 1.353 . S
C124 H166 0.930 . S
C125 N121 1.279 1_554 S
C125 C123 1.358 . S
C125 H167 0.930 . S
C126 C127 1.348 . S
C126 C128 1.356 . S
C126 O151 1.325 . S
C127 C126 1.348 . S
C127 C129 1.353 . S
C127 H168 0.929 . S
C128 C126 1.356 . S
C128 C130 1.358 . S
C128 H169 0.930 . S
C129 C127 1.353 . S
C129 N131 1.314 . S
C129 H170 0.930 . S
C130 C128 1.358 . S
C130 N131 1.279 . S
C130 H171 0.930 . S
N131 C129 1.314 . S
N131 C130 1.279 . S
C132 C134 1.353 . S
C132 N135 1.314 . S
C132 H138 0.930 . S
C133 N135 1.279 . S
C133 C136 1.358 . S
C133 H139 0.930 . S
C134 C132 1.353 . S
C134 C137 1.348 . S
C134 H172 0.929 . S
N135 Li90 1.990 . S
N135 C132 1.314 . S
N135 C133 1.279 . S
C136 C133 1.358 . S
C136 C137 1.356 . S
C136 H173 0.930 . S
C137 C134 1.348 . S
C137 C136 1.356 . S
H138 C132 0.930 . S
H139 C133 0.930 . S
C140 N141 1.314 . S
C140 C142 1.353 . S
C140 H146 0.930 . S
N141 Li91 1.990 . S
N141 C140 1.314 . S
N141 C144 1.279 . S
C142 C140 1.353 . S
C142 C145 1.348 . S
C142 H174 0.929 . S
C143 C144 1.358 . S
C143 C145 1.356 . S
C143 H175 0.930 . S
C144 N141 1.279 . S
C144 C143 1.358 . S
C144 H147 0.930 . S
C145 C142 1.348 . S
C145 C143 1.356 . S
H146 C140 0.930 . S
H147 C144 0.930 . S
O148 Li88 1.956 . S
O148 Li89 1.970 . S
O148 Li90 1.961 . S
O148 C92 1.325 . S
O149 Li88 1.970 1_556 S
O149 Li89 1.956 1_556 S
O149 Li91 1.961 . S
O149 C98 1.325 . S
O150 Li88 1.961 . S
O150 Li90 1.956 . S
O150 Li91 1.970 1_554 S
O150 C120 1.321 1_554 S
O151 Li89 1.961 . S
O151 Li90 1.970 . S
O151 Li91 1.956 1_554 S
O151 C126 1.325 . S
H152 C94 0.929 . S
H153 C95 0.930 . S
H154 C96 0.930 . S
H155 C97 0.930 . S
H156 C99 0.930 . S
H157 C101 0.929 . S
H158 C102 0.930 . S
H159 C103 0.930 . S
H160 C106 0.930 . S
H161 C109 0.929 . S
H162 C114 0.929 . S
H163 C115 0.930 . S
H164 C122 0.929 . S
H165 C123 0.930 . S
H166 C124 0.930 . S
H167 C125 0.930 . S
H168 C127 0.929 . S
H169 C128 0.930 . S
H170 C129 0.930 . S
H171 C130 0.930 . S
H172 C134 0.929 . S
H173 C136 0.930 . S
H174 C142 0.929 . S
H175 C143 0.930 . S
Li176 N193 1.990 . S
Li176 O236 1.956 1_556 S
Li176 O237 1.970 1_566 S
Li176 O238 1.961 . S
Li177 N201 1.990 . S
Li177 O236 1.970 1_545 S
Li177 O237 1.956 . S
Li177 O239 1.961 . S
Li178 N223 1.990 . S
Li178 O236 1.961 . S
Li178 O238 1.956 1_554 S
Li178 O239 1.970 1_565 S
Li179 N229 1.990 . S
Li179 O237 1.961 . S
Li179 O238 1.970 1_544 S
Li179 O239 1.956 . S
C180 C182 1.348 . S
C180 C183 1.356 . S
C180 O236 1.325 . S
N181 C184 1.314 . S
N181 C185 1.279 . S
C182 C180 1.348 . S
C182 C184 1.353 . S
C182 H240 0.929 . S
C183 C180 1.356 . S
C183 C185 1.358 . S
C183 H241 0.949 . S
C184 N181 1.314 . S
C184 C182 1.353 . S
C184 H242 0.930 . S
C185 N181 1.279 . S
C185 C183 1.358 . S
C185 H243 0.930 . S
C186 C189 1.348 1_554 S
C186 C190 1.356 . S
C186 O237 1.325 . S
C187 N188 1.279 1_554 S
C187 C190 1.358 . S
C187 H244 0.930 . S
N188 C187 1.279 1_556 S
N188 C191 1.314 . S
C189 C186 1.348 1_556 S
C189 C191 1.353 . S
C189 H245 0.929 . S
C190 C186 1.356 . S
C190 C187 1.358 . S
C190 H246 0.930 . S
C191 N188 1.314 . S
C191 C189 1.353 . S
C191 H247 0.930 . S
C192 N193 1.314 . S
C192 C197 1.353 . S
C192 H198 0.930 1_565 S
N193 Li176 1.990 . S
N193 C192 1.314 . S
N193 C195 1.279 . S
C194 C195 1.358 . S
C194 C196 1.356 . S
C194 H248 0.930 . S
C195 N193 1.279 . S
C195 C194 1.358 . S
C195 H199 0.930 . S
C196 C194 1.356 . S
C196 C197 1.348 . S
C197 C192 1.353 . S
C197 C196 1.348 . S
C197 H249 0.929 . S
H198 C192 0.930 1_545 S
H199 C195 0.930 . S
C200 N201 1.314 . S
C200 C202 1.353 . S
C200 H206 0.930 1_545 S
N201 Li177 1.990 . S
N201 C200 1.314 . S
N201 C204 1.279 . S
C202 C200 1.353 . S
C202 C205 1.348 . S
C202 H250 0.929 . S
C203 C204 1.358 . S
C203 C205 1.356 . S
C203 H251 0.930 . S
C204 N201 1.279 . S
C204 C203 1.358 . S
C204 H207 0.930 . S
C205 C202 1.348 . S
C205 C203 1.356 . S
H206 C200 0.930 1_565 S
H207 C204 0.930 . S
C208 C210 1.348 1_565 S
C208 C211 1.356 . S
C208 O238 1.325 . S
N209 C212 1.314 . S
N209 C213 1.279 . S
C210 C208 1.348 1_545 S
C210 C212 1.353 1_545 S
C210 H252 0.929 . S
C211 C208 1.356 . S
C211 C213 1.358 . S
C211 H253 0.930 . S
C212 N209 1.314 . S
C212 C210 1.353 1_565 S
C212 H254 0.930 1_565 S
C213 N209 1.279 . S
C213 C211 1.358 . S
C213 H255 0.930 . S
C214 C215 1.348 1_545 S
C214 C216 1.356 . S
C214 O239 1.325 . S
C215 C214 1.348 1_565 S
C215 C217 1.347 1_565 S
C215 H256 0.936 . S
C216 C214 1.356 . S
C216 C218 1.358 . S
C216 H257 0.930 . S
C217 C215 1.347 1_545 S
C217 N219 1.314 . S
C217 H258 0.930 1_545 S
C218 C216 1.358 . S
C218 N219 1.279 . S
C218 H259 0.930 . S
N219 C217 1.314 . S
N219 C218 1.279 . S
C220 C222 1.353 . S
C220 N223 1.314 . S
C220 H226 0.930 . S
C221 N223 1.279 . S
C221 C224 1.358 . S
C221 H227 0.930 1_554 S
C222 C220 1.353 . S
C222 C225 1.348 . S
C222 H260 0.929 . S
N223 Li178 1.990 . S
N223 C220 1.314 . S
N223 C221 1.279 . S
C224 C221 1.358 . S
C224 C225 1.356 . S
C224 H261 0.930 . S
C225 C222 1.348 . S
C225 C224 1.356 . S
H226 C220 0.930 . S
H227 C221 0.930 1_556 S
C228 N229 1.314 1_556 S
C228 C230 1.353 . S
C228 H234 0.930 . S
N229 Li179 1.990 . S
N229 C228 1.314 1_554 S
N229 C232 1.279 . S
C230 C228 1.353 . S
C230 C233 1.348 . S
C230 H262 0.929 . S
C231 C232 1.358 . S
C231 C233 1.356 1_554 S
C231 H263 0.930 . S
C232 N229 1.279 . S
C232 C231 1.358 . S
C232 H235 0.930 . S
C233 C230 1.348 . S
C233 C231 1.356 1_556 S
H234 C228 0.930 . S
H235 C232 0.930 . S
O236 Li176 1.956 1_554 S
O236 Li177 1.970 1_565 S
O236 Li178 1.961 . S
O236 C180 1.325 . S
O237 Li176 1.970 1_544 S
O237 Li177 1.956 . S
O237 Li179 1.961 . S
O237 C186 1.325 . S
O238 Li176 1.961 . S
O238 Li178 1.956 1_556 S
O238 Li179 1.970 1_566 S
O238 C208 1.325 . S
O239 Li177 1.961 . S
O239 Li178 1.970 1_545 S
O239 Li179 1.956 . S
O239 C214 1.325 . S
H240 C182 0.929 . S
H241 C183 0.949 . S
H242 C184 0.930 . S
H243 C185 0.930 . S
H244 C187 0.930 . S
H245 C189 0.929 . S
H246 C190 0.930 . S
H247 C191 0.930 . S
H248 C194 0.930 . S
H249 C197 0.929 . S
H250 C202 0.929 . S
H251 C203 0.930 . S
H252 C210 0.929 . S
H253 C211 0.930 . S
H254 C212 0.930 1_545 S
H255 C213 0.930 . S
H256 C215 0.936 . S
H257 C216 0.930 . S
H258 C217 0.930 1_565 S
H259 C218 0.930 . S
H260 C222 0.929 . S
H261 C224 0.930 . S
H262 C230 0.929 . S
H263 C231 0.930 . S
Li264 N281 1.990 . S
Li264 O324 1.956 . S
Li264 O325 1.970 1_455 S
Li264 O326 1.961 1_554 S
Li265 N289 1.990 . S
Li265 O324 1.970 1_655 S
Li265 O325 1.956 . S
Li265 O327 1.961 . S
Li266 N311 1.990 . S
Li266 O324 1.961 1_556 S
Li266 O326 1.956 . S
Li266 O327 1.970 1_456 S
Li267 N317 1.991 1_554 S
Li267 O325 1.961 . S
Li267 O326 1.970 1_654 S
Li267 O327 1.956 . S
C268 C270 1.348 . S
C268 C271 1.356 . S
C268 O324 1.325 . S
N269 C272 1.314 . S
N269 C273 1.279 . S
C270 C268 1.348 . S
C270 C272 1.353 . S
C270 H328 0.929 . S
C271 C268 1.356 . S
C271 C273 1.358 . S
C271 H329 0.930 1_554 S
C272 N269 1.314 . S
C272 C270 1.353 . S
C272 H330 0.930 . S
C273 N269 1.279 . S
C273 C271 1.358 . S
C273 H331 0.930 1_554 S
C274 C277 1.348 1_655 S
C274 C278 1.356 . S
C274 O325 1.325 . S
C275 N276 1.279 . S
C275 C278 1.358 . S
C275 H332 0.930 . S
N276 C275 1.279 . S
N276 C279 1.252 1_655 S
C277 C274 1.348 1_455 S
C277 C279 1.390 . S
C277 H333 0.929 . S
C278 C274 1.356 . S
C278 C275 1.358 . S
C278 H334 0.930 . S
C279 N276 1.252 1_455 S
C279 C277 1.390 . S
C279 H335 0.962 . S
C280 N281 1.314 . S
C280 C285 1.353 . S
C280 H286 0.930 . S
N281 Li264 1.990 . S
N281 C280 1.314 . S
N281 C283 1.279 . S
C282 C283 1.358 . S
C282 C284 1.356 . S
C282 H336 0.930 . S
C283 N281 1.279 . S
C283 C282 1.358 . S
C283 H287 0.930 . S
C284 C282 1.356 . S
C284 C285 1.348 . S
C285 C280 1.353 . S
C285 C284 1.348 . S
C285 H337 0.929 . S
H286 C280 0.930 . S
H287 C283 0.930 . S
C288 N289 1.314 . S
C288 C290 1.353 . S
C288 H294 0.930 . S
N289 Li265 1.990 . S
N289 C288 1.314 . S
N289 C292 1.279 . S
C290 C288 1.353 . S
C290 C293 1.348 . S
C290 H338 0.929 . S
C291 C292 1.358 . S
C291 C293 1.356 . S
C291 H339 0.930 . S
C292 N289 1.279 . S
C292 C291 1.358 . S
C292 H295 0.930 . S
C293 C290 1.348 . S
C293 C291 1.356 . S
H294 C288 0.930 . S
H295 C292 0.930 . S
C296 C298 1.348 1_455 S
C296 C299 1.356 . S
C296 O326 1.325 . S
N297 C300 1.267 1_455 S
N297 C301 1.279 . S
C298 C296 1.348 1_655 S
C298 C300 1.351 . S
C298 H340 0.929 . S
C299 C296 1.356 . S
C299 C301 1.358 . S
C299 H341 0.930 . S
C300 N297 1.267 1_655 S
C300 C298 1.351 . S
C300 H342 0.988 . S
C301 N297 1.279 . S
C301 C299 1.358 . S
C301 H343 0.930 . S
C302 C303 1.334 1_554 S
C302 C304 1.366 . S
C302 O327 1.327 . S
C303 C302 1.334 1_556 S
C303 C305 1.353 . S
C303 H344 0.929 . S
C304 C302 1.366 . S
C304 C306 1.358 . S
C304 H345 0.930 . S
C305 C303 1.353 . S
C305 N307 1.314 . S
C305 H346 0.930 . S
C306 C304 1.358 . S
C306 N307 1.279 1_554 S
C306 H347 0.930 . S
N307 C305 1.314 . S
N307 C306 1.279 1_556 S
C308 C310 1.353 . S
C308 N311 1.314 . S
C308 H314 0.930 . S
C309 N311 1.279 . S
C309 C312 1.358 . S
C309 H315 0.930 . S
C310 C308 1.353 . S
C310 C313 1.348 . S
C310 H348 0.929 . S
N311 Li266 1.990 . S
N311 C308 1.314 . S
N311 C309 1.279 . S
C312 C309 1.358 . S
C312 C313 1.356 . S
C312 H349 0.930 . S
C313 C310 1.348 . S
C313 C312 1.356 . S
H314 C308 0.930 . S
H315 C309 0.930 . S
C316 N317 1.315 1_554 S
C316 C318 1.360 . S
C316 H322 0.930 . S
N317 Li267 1.991 1_556 S
N317 C316 1.315 1_556 S
N317 C320 1.278 . S
C318 C316 1.360 . S
C318 C321 1.330 1_554 S
C318 H350 0.942 . S
C319 C320 1.358 . S
C319 C321 1.356 . S
C319 H351 0.930 . S
C320 N317 1.278 . S
C320 C319 1.358 . S
C320 H323 0.930 . S
C321 C318 1.330 1_556 S
C321 C319 1.356 . S
H322 C316 0.930 . S
H323 C320 0.930 . S
O324 Li264 1.956 . S
O324 Li265 1.970 1_455 S
O324 Li266 1.961 1_554 S
O324 C268 1.325 . S
O325 Li264 1.970 1_655 S
O325 Li265 1.956 . S
O325 Li267 1.961 . S
O325 C274 1.325 . S
O326 Li264 1.961 1_556 S
O326 Li266 1.956 . S
O326 Li267 1.970 1_456 S
O326 C296 1.325 . S
O327 Li265 1.961 . S
O327 Li266 1.970 1_654 S
O327 Li267 1.956 . S
O327 C302 1.327 . S
H328 C270 0.929 . S
H329 C271 0.930 1_556 S
H330 C272 0.930 . S
H331 C273 0.930 1_556 S
H332 C275 0.930 . S
H333 C277 0.929 . S
H334 C278 0.930 . S
H335 C279 0.962 . S
H336 C282 0.930 . S
H337 C285 0.929 . S
H338 C290 0.929 . S
H339 C291 0.930 . S
H340 C298 0.929 . S
H341 C299 0.930 . S
H342 C300 0.988 . S
H343 C301 0.930 . S
H344 C303 0.929 . S
H345 C304 0.930 . S
H346 C305 0.930 . S
H347 C306 0.930 . S
H348 C310 0.929 . S
H349 C312 0.930 . S
H350 C318 0.942 . S
H351 C319 0.930 . S
Li352 N369 1.990 . S
Li352 O412 1.956 . S
Li352 O413 1.970 . S
Li352 O414 1.961 1_554 S
Li353 N377 1.990 . S
Li353 O412 1.970 . S
Li353 O413 1.956 . S
Li353 O415 1.961 . S
Li354 N399 1.990 . S
Li354 O412 1.961 1_556 S
Li354 O414 1.956 . S
Li354 O415 1.970 1_556 S
Li355 N405 1.990 1_554 S
Li355 O413 1.961 . S
Li355 O414 1.970 1_554 S
Li355 O415 1.956 . S
C356 C358 1.348 . S
C356 C359 1.356 . S
C356 O412 1.325 . S
N357 C360 1.314 . S
N357 C361 1.279 . S
C358 C356 1.348 . S
C358 C360 1.353 . S
C358 H416 0.929 . S
C359 C356 1.356 . S
C359 C361 1.358 . S
C359 H417 0.930 1_554 S
C360 N357 1.314 . S
C360 C358 1.353 . S
C360 H418 0.930 . S
C361 N357 1.279 . S
C361 C359 1.358 . S
C361 H419 0.930 . S
C362 C365 1.348 . S
C362 C366 1.356 . S
C362 O413 1.325 . S
C363 N364 1.279 . S
C363 C366 1.358 . S
C363 H420 0.930 . S
N364 C363 1.279 . S
N364 C367 1.314 . S
C365 C362 1.348 . S
C365 C367 1.353 . S
C365 H421 0.929 . S
C366 C362 1.356 . S
C366 C363 1.358 . S
C366 H422 0.930 . S
C367 N364 1.314 . S
C367 C365 1.353 . S
C367 H423 0.930 . S
C368 N369 1.314 . S
C368 C373 1.353 . S
C368 H374 0.930 . S
N369 Li352 1.990 . S
N369 C368 1.314 . S
N369 C371 1.279 . S
C370 C371 1.358 . S
C370 C372 1.356 . S
C370 H424 0.930 . S
C371 N369 1.279 . S
C371 C370 1.358 . S
C371 H375 0.930 . S
C372 C370 1.356 . S
C372 C373 1.348 . S
C373 C368 1.353 . S
C373 C372 1.348 . S
C373 H425 0.929 . S
H374 C368 0.930 . S
H375 C371 0.930 . S
C376 N377 1.314 . S
C376 C378 1.353 . S
C376 H382 0.930 . S
N377 Li353 1.990 . S
N377 C376 1.314 . S
N377 C380 1.279 . S
C378 C376 1.353 . S
C378 C381 1.348 . S
C378 H426 0.929 . S
C379 C380 1.358 . S
C379 C381 1.356 . S
C379 H427 0.930 . S
C380 N377 1.279 . S
C380 C379 1.358 . S
C380 H383 0.930 . S
C381 C378 1.348 . S
C381 C379 1.356 . S
H382 C376 0.930 . S
H383 C380 0.930 . S
C384 C386 1.348 . S
C384 C387 1.356 . S
C384 O414 1.325 . S
N385 C388 1.314 . S
N385 C389 1.279 . S
C386 C384 1.348 . S
C386 C388 1.353 . S
C386 H428 0.929 . S
C387 C384 1.356 . S
C387 C389 1.358 . S
C387 H429 0.930 . S
C388 N385 1.314 . S
C388 C386 1.353 . S
C388 H430 0.930 . S
C389 N385 1.279 . S
C389 C387 1.358 . S
C389 H431 0.930 . S
C390 C391 1.376 . S
C390 C392 1.337 1_556 S
C390 O415 1.318 1_556 S
C391 C390 1.376 . S
C391 C393 1.353 . S
C391 H432 0.929 . S
C392 C390 1.337 1_554 S
C392 C394 1.358 . S
C392 H433 0.930 . S
C393 C391 1.353 . S
C393 N395 1.314 . S
C393 H434 0.930 . S
C394 C392 1.358 . S
C394 N395 1.279 1_554 S
C394 H435 0.930 . S
N395 C393 1.314 . S
N395 C394 1.279 1_556 S
C396 C398 1.353 . S
C396 N399 1.314 . S
C396 H402 0.930 . S
C397 N399 1.279 . S
C397 C400 1.358 . S
C397 H403 0.930 . S
C398 C396 1.353 . S
C398 C401 1.348 . S
C398 H436 0.929 . S
N399 Li354 1.990 . S
N399 C396 1.314 . S
N399 C397 1.279 . S
C400 C397 1.358 . S
C400 C401 1.356 . S
C400 H437 0.930 . S
C401 C398 1.348 . S
C401 C400 1.356 . S
H402 C396 0.930 . S
H403 C397 0.930 . S
C404 N405 1.314 1_554 S
C404 C406 1.353 1_554 S
C404 H410 0.930 . S
N405 Li355 1.990 1_556 S
N405 C404 1.314 1_556 S
N405 C408 1.279 . S
C406 C404 1.353 1_556 S
C406 C409 1.348 . S
C406 H438 0.929 1_556 S
C407 C408 1.358 . S
C407 C409 1.356 . S
C407 H439 0.930 . S
C408 N405 1.279 . S
C408 C407 1.358 . S
C408 H411 0.930 . S
C409 C406 1.348 . S
C409 C407 1.356 . S
H410 C404 0.930 . S
H411 C408 0.930 . S
O412 Li352 1.956 . S
O412 Li353 1.970 . S
O412 Li354 1.961 1_554 S
O412 C356 1.325 . S
O413 Li352 1.970 . S
O413 Li353 1.956 . S
O413 Li355 1.961 . S
O413 C362 1.325 . S
O414 Li352 1.961 1_556 S
O414 Li354 1.956 . S
O414 Li355 1.970 1_556 S
O414 C384 1.325 . S
O415 Li353 1.961 . S
O415 Li354 1.970 1_554 S
O415 Li355 1.956 . S
O415 C390 1.318 1_554 S
H416 C358 0.929 . S
H417 C359 0.930 1_556 S
H418 C360 0.930 . S
H419 C361 0.930 . S
H420 C363 0.930 . S
H421 C365 0.929 . S
H422 C366 0.930 . S
H423 C367 0.930 . S
H424 C370 0.930 . S
H425 C373 0.929 . S
H426 C378 0.929 . S
H427 C379 0.930 . S
H428 C386 0.929 . S
H429 C387 0.930 . S
H430 C388 0.930 . S
H431 C389 0.930 . S
H432 C391 0.929 . S
H433 C392 0.930 . S
H434 C393 0.930 . S
H435 C394 0.930 . S
H436 C398 0.929 . S
H437 C400 0.930 . S
H438 C406 0.929 1_554 S
H439 C407 0.930 . S
Li440 N457 1.990 . S
Li440 O500 1.956 . S
Li440 O501 1.970 1_565 S
Li440 O502 1.961 1_554 S
Li441 N465 1.990 . S
Li441 O500 1.970 1_545 S
Li441 O501 1.956 . S
Li441 O503 1.961 . S
Li442 N487 1.990 . S
Li442 O500 1.961 1_556 S
Li442 O502 1.956 . S
Li442 O503 1.970 1_566 S
Li443 N493 1.990 . S
Li443 O501 1.961 . S
Li443 O502 1.970 1_544 S
Li443 O503 1.956 . S
C444 C446 1.348 . S
C444 C447 1.356 . S
C444 O500 1.325 . S
N445 C448 1.314 . S
N445 C449 1.279 . S
C446 C444 1.348 . S
C446 C448 1.353 . S
C446 H504 0.929 . S
C447 C444 1.356 . S
C447 C449 1.358 . S
C447 H505 0.930 1_554 S
C448 N445 1.314 . S
C448 C446 1.353 . S
C448 H506 0.930 . S
C449 N445 1.279 . S
C449 C447 1.358 . S
C449 H507 0.930 1_554 S
C450 C453 1.348 1_545 S
C450 C454 1.356 . S
C450 O501 1.325 . S
C451 N452 1.279 . S
C451 C454 1.358 . S
C451 H508 0.930 . S
N452 C451 1.279 . S
N452 C455 1.283 1_545 S
C453 C450 1.348 1_565 S
C453 C455 1.351 . S
C453 H509 0.929 . S
C454 C450 1.356 . S
C454 C451 1.358 . S
C454 H510 0.930 . S
C455 N452 1.283 1_565 S
C455 C453 1.351 . S
C455 H511 0.968 . S
C456 N457 1.314 . S
C456 C461 1.353 . S
C456 H462 0.930 . S
N457 Li440 1.990 . S
N457 C456 1.314 . S
N457 C459 1.279 . S
C458 C459 1.358 . S
C458 C460 1.356 . S
C458 H512 0.930 . S
C459 N457 1.279 . S
C459 C458 1.358 . S
C459 H463 0.930 . S
C460 C458 1.356 . S
C460 C461 1.348 . S
C461 C456 1.353 . S
C461 C460 1.348 . S
C461 H513 0.929 . S
H462 C456 0.930 . S
H463 C459 0.930 . S
C464 N465 1.314 . S
C464 C466 1.353 . S
C464 H470 0.930 . S
N465 Li441 1.990 . S
N465 C464 1.314 . S
N465 C468 1.279 . S
C466 C464 1.353 . S
C466 C469 1.348 . S
C466 H514 0.929 . S
C467 C468 1.358 . S
C467 C469 1.356 . S
C467 H515 0.930 . S
C468 N465 1.279 . S
C468 C467 1.358 . S
C468 H471 0.930 . S
C469 C466 1.348 . S
C469 C467 1.356 . S
H470 C464 0.930 . S
H471 C468 0.930 . S
C472 C474 1.348 1_565 S
C472 C475 1.356 . S
C472 O502 1.325 . S
N473 C476 1.279 1_565 S
N473 C477 1.279 . S
C474 C472 1.348 1_545 S
C474 C476 1.374 . S
C474 H516 0.929 . S
C475 C472 1.356 . S
C475 C477 1.358 . S
C475 H517 0.930 . S
C476 N473 1.279 1_545 S
C476 C474 1.374 . S
C476 H518 0.948 . S
C477 N473 1.279 . S
C477 C475 1.358 . S
C477 H519 0.930 . S
C478 C479 1.348 1_554 S
C478 C480 1.356 . S
C478 O503 1.325 . S
C479 C478 1.348 1_556 S
C479 C481 1.353 . S
C479 H520 0.929 . S
C480 C478 1.356 . S
C480 C482 1.358 . S
C480 H521 0.930 . S
C481 C479 1.353 . S
C481 N483 1.314 . S
C481 H522 0.930 . S
C482 C480 1.358 . S
C482 N483 1.279 1_554 S
C482 H523 0.930 . S
N483 C481 1.314 . S
N483 C482 1.279 1_556 S
C484 C486 1.353 . S
C484 N487 1.314 . S
C484 H490 0.930 . S
C485 N487 1.279 . S
C485 C488 1.358 . S
C485 H491 0.930 . S
C486 C484 1.353 . S
C486 C489 1.348 . S
C486 H524 0.929 . S
N487 Li442 1.990 . S
N487 C484 1.314 . S
N487 C485 1.279 . S
C488 C485 1.358 . S
C488 C489 1.356 . S
C488 H525 0.930 . S
C489 C486 1.348 . S
C489 C488 1.356 . S
H490 C484 0.930 . S
H491 C485 0.930 . S
C492 N493 1.314 . S
C492 C494 1.353 . S
C492 H498 0.930 . S
N493 Li443 1.990 . S
N493 C492 1.314 . S
N493 C496 1.279 1_554 S
C494 C492 1.353 . S
C494 C497 1.348 1_554 S
C494 H526 0.929 . S
C495 C496 1.358 . S
C495 C497 1.356 . S
C495 H527 0.930 . S
C496 N493 1.279 1_556 S
C496 C495 1.358 . S
C496 H499 0.930 . S
C497 C494 1.348 1_556 S
C497 C495 1.356 . S
H498 C492 0.930 . S
H499 C496 0.930 . S
O500 Li440 1.956 . S
O500 Li441 1.970 1_565 S
O500 Li442 1.961 1_554 S
O500 C444 1.325 . S
O501 Li440 1.970 1_545 S
O501 Li441 1.956 . S
O501 Li443 1.961 . S
O501 C450 1.325 . S
O502 Li440 1.961 1_556 S
O502 Li442 1.956 . S
O502 Li443 1.970 1_566 S
O502 C472 1.325 . S
O503 Li441 1.961 . S
O503 Li442 1.970 1_544 S
O503 Li443 1.956 . S
O503 C478 1.325 . S
H504 C446 0.929 . S
H505 C447 0.930 1_556 S
H506 C448 0.930 . S
H507 C449 0.930 1_556 S
H508 C451 0.930 . S
H509 C453 0.929 . S
H510 C454 0.930 . S
H511 C455 0.968 . S
H512 C458 0.930 . S
H513 C461 0.929 . S
H514 C466 0.929 . S
H515 C467 0.930 . S
H516 C474 0.929 . S
H517 C475 0.930 . S
H518 C476 0.948 . S
H519 C477 0.930 . S
H520 C479 0.929 . S
H521 C480 0.930 . S
H522 C481 0.930 . S
H523 C482 0.930 . S
H524 C486 0.929 . S
H525 C488 0.930 . S
H526 C494 0.929 . S
H527 C495 0.930 . S
Li528 N545 1.990 . S
Li528 O588 1.956 . S
Li528 O589 1.970 . S
Li528 O590 1.961 . S
Li529 N553 1.990 . S
Li529 O588 1.970 . S
Li529 O589 1.956 . S
Li529 O591 1.961 . S
Li530 N575 1.990 . S
Li530 O588 1.961 . S
Li530 O590 1.956 . S
Li530 O591 1.970 . S
Li531 N581 1.990 . S
Li531 O589 1.961 . S
Li531 O590 1.970 . S
Li531 O591 1.956 . S
C532 C534 1.348 . S
C532 C535 1.356 . S
C532 O588 1.325 . S
N533 C536 1.314 . S
N533 C537 1.279 . S
C534 C532 1.348 . S
C534 C536 1.353 . S
C534 H592 0.929 . S
C535 C532 1.356 . S
C535 C537 1.358 . S
C535 H593 0.930 . S
C536 N533 1.314 . S
C536 C534 1.353 . S
C536 H594 0.930 . S
C537 N533 1.279 . S
C537 C535 1.358 . S
C537 H595 0.930 . S
C538 C541 1.348 . S
C538 C542 1.356 . S
C538 O589 1.325 . S
C539 N540 1.279 . S
C539 C542 1.358 . S
C539 H596 0.930 . S
N540 C539 1.279 . S
N540 C543 1.314 . S
C541 C538 1.348 . S
C541 C543 1.353 . S
C541 H597 0.929 . S
C542 C538 1.356 . S
C542 C539 1.358 . S
C542 H598 0.930 . S
C543 N540 1.314 . S
C543 C541 1.353 . S
C543 H599 0.930 . S
C544 N545 1.314 . S
C544 C549 1.353 . S
C544 H550 0.930 . S
N545 Li528 1.990 . S
N545 C544 1.314 . S
N545 C547 1.279 . S
C546 C547 1.358 . S
C546 C548 1.356 . S
C546 H600 0.930 . S
C547 N545 1.279 . S
C547 C546 1.358 . S
C547 H551 0.930 . S
C548 C546 1.356 . S
C548 C549 1.348 . S
C549 C544 1.353 . S
C549 C548 1.348 . S
C549 H601 0.929 . S
H550 C544 0.930 . S
H551 C547 0.930 . S
C552 N553 1.314 . S
C552 C554 1.353 . S
C552 H558 0.930 . S
N553 Li529 1.990 . S
N553 C552 1.314 . S
N553 C556 1.279 . S
C554 C552 1.353 . S
C554 C557 1.348 . S
C554 H602 0.929 . S
C555 C556 1.358 . S
C555 C557 1.356 . S
C555 H603 0.930 . S
C556 N553 1.279 . S
C556 C555 1.358 . S
C556 H559 0.930 . S
C557 C554 1.348 . S
C557 C555 1.356 . S
H558 C552 0.930 . S
H559 C556 0.930 . S
C560 C562 1.348 . S
C560 C563 1.356 . S
C560 O590 1.325 . S
N561 C564 1.314 . S
N561 C565 1.279 . S
C562 C560 1.348 . S
C562 C564 1.353 . S
C562 H604 0.929 . S
C563 C560 1.356 . S
C563 C565 1.358 . S
C563 H605 0.930 . S
C564 N561 1.314 . S
C564 C562 1.353 . S
C564 H606 0.930 . S
C565 N561 1.279 . S
C565 C563 1.358 . S
C565 H607 0.930 . S
C566 C567 1.348 . S
C566 C568 1.356 . S
C566 O591 1.325 . S
C567 C566 1.348 . S
C567 C569 1.353 . S
C567 H608 0.929 . S
C568 C566 1.356 . S
C568 C570 1.358 . S
C568 H609 0.930 . S
C569 C567 1.353 . S
C569 N571 1.314 . S
C569 H610 0.930 . S
C570 C568 1.358 . S
C570 N571 1.279 . S
C570 H611 0.930 . S
N571 C569 1.314 . S
N571 C570 1.279 . S
C572 C574 1.353 . S
C572 N575 1.314 . S
C572 H578 0.930 . S
C573 N575 1.279 . S
C573 C576 1.358 . S
C573 H579 0.930 . S
C574 C572 1.353 . S
C574 C577 1.348 . S
C574 H612 0.929 . S
N575 Li530 1.990 . S
N575 C572 1.314 . S
N575 C573 1.279 . S
C576 C573 1.358 . S
C576 C577 1.356 . S
C576 H613 0.930 . S
C577 C574 1.348 . S
C577 C576 1.356 . S
H578 C572 0.930 . S
H579 C573 0.930 . S
C580 N581 1.314 . S
C580 C582 1.353 . S
C580 H586 0.930 . S
N581 Li531 1.990 . S
N581 C580 1.314 . S
N581 C584 1.279 . S
C582 C580 1.353 . S
C582 C585 1.348 . S
C582 H614 0.929 . S
C583 C584 1.358 . S
C583 C585 1.356 . S
C583 H615 0.930 . S
C584 N581 1.279 . S
C584 C583 1.358 . S
C584 H587 0.930 . S
C585 C582 1.348 . S
C585 C583 1.356 . S
H586 C580 0.930 . S
H587 C584 0.930 . S
O588 Li528 1.956 . S
O588 Li529 1.970 . S
O588 Li530 1.961 . S
O588 C532 1.325 . S
O589 Li528 1.970 . S
O589 Li529 1.956 . S
O589 Li531 1.961 . S
O589 C538 1.325 . S
O590 Li528 1.961 . S
O590 Li530 1.956 . S
O590 Li531 1.970 . S
O590 C560 1.325 . S
O591 Li529 1.961 . S
O591 Li530 1.970 . S
O591 Li531 1.956 . S
O591 C566 1.325 . S
H592 C534 0.929 . S
H593 C535 0.930 . S
H594 C536 0.930 . S
H595 C537 0.930 . S
H596 C539 0.930 . S
H597 C541 0.929 . S
H598 C542 0.930 . S
H599 C543 0.930 . S
H600 C546 0.930 . S
H601 C549 0.929 . S
H602 C554 0.929 . S
H603 C555 0.930 . S
H604 C562 0.929 . S
H605 C563 0.930 . S
H606 C564 0.930 . S
H607 C565 0.930 . S
H608 C567 0.929 . S
H609 C568 0.930 . S
H610 C569 0.930 . S
H611 C570 0.930 . S
H612 C574 0.929 . S
H613 C576 0.930 . S
H614 C582 0.929 . S
H615 C583 0.930 . S
Li616 N633 1.990 . S
Li616 O676 1.956 . S
Li616 O677 1.970 . S
Li616 O678 1.961 . S
Li617 N641 1.990 . S
Li617 O676 1.970 . S
Li617 O677 1.956 . S
Li617 O679 1.961 . S
Li618 N663 1.990 1_565 S
Li618 O676 1.961 . S
Li618 O678 1.956 . S
Li618 O679 1.970 . S
Li619 N669 1.990 . S
Li619 O677 1.961 . S
Li619 O678 1.970 . S
Li619 O679 1.956 . S
C620 C622 1.348 . S
C620 C623 1.356 . S
C620 O676 1.325 . S
N621 C624 1.314 . S
N621 C625 1.279 . S
C622 C620 1.348 . S
C622 C624 1.353 . S
C622 H680 0.929 . S
C623 C620 1.356 . S
C623 C625 1.358 . S
C623 H681 0.930 . S
C624 N621 1.314 . S
C624 C622 1.353 . S
C624 H682 0.930 . S
C625 N621 1.279 . S
C625 C623 1.358 . S
C625 H683 0.930 . S
C626 C629 1.348 . S
C626 C630 1.356 . S
C626 O677 1.325 . S
C627 N628 1.279 . S
C627 C630 1.358 . S
C627 H684 0.930 . S
N628 C627 1.279 . S
N628 C631 1.314 . S
C629 C626 1.348 . S
C629 C631 1.353 . S
C629 H685 0.929 . S
C630 C626 1.356 . S
C630 C627 1.358 . S
C630 H686 0.930 . S
C631 N628 1.314 . S
C631 C629 1.353 . S
C631 H687 0.930 . S
C632 N633 1.314 . S
C632 C637 1.353 . S
C632 H638 0.930 . S
N633 Li616 1.990 . S
N633 C632 1.314 . S
N633 C635 1.279 . S
C634 C635 1.358 . S
C634 C636 1.356 . S
C634 H688 0.930 . S
C635 N633 1.279 . S
C635 C634 1.358 . S
C635 H639 0.930 . S
C636 C634 1.356 . S
C636 C637 1.348 . S
C637 C632 1.353 . S
C637 C636 1.348 . S
C637 H689 0.929 . S
H638 C632 0.930 . S
H639 C635 0.930 . S
C640 N641 1.314 . S
C640 C642 1.353 . S
C640 H646 0.930 . S
N641 Li617 1.990 . S
N641 C640 1.314 . S
N641 C644 1.279 . S
C642 C640 1.353 . S
C642 C645 1.348 . S
C642 H690 0.929 . S
C643 C644 1.358 . S
C643 C645 1.356 . S
C643 H691 0.930 . S
C644 N641 1.279 . S
C644 C643 1.358 . S
C644 H647 0.930 . S
C645 C642 1.348 . S
C645 C643 1.356 . S
H646 C640 0.930 . S
H647 C644 0.930 . S
C648 C650 1.348 1_565 S
C648 C651 1.356 1_565 S
C648 O678 1.325 . S
N649 C652 1.314 . S
N649 C653 1.279 . S
C650 C648 1.348 1_545 S
C650 C652 1.353 . S
C650 H692 0.929 . S
C651 C648 1.356 1_545 S
C651 C653 1.358 . S
C651 H693 0.948 1_545 S
C652 N649 1.314 . S
C652 C650 1.353 . S
C652 H694 0.930 . S
C653 N649 1.279 . S
C653 C651 1.358 . S
C653 H695 0.930 . S
C654 C655 1.348 1_565 S
C654 C656 1.356 . S
C654 O679 1.325 . S
C655 C654 1.348 1_545 S
C655 C657 1.353 . S
C655 H696 0.929 . S
C656 C654 1.356 . S
C656 C658 1.358 . S
C656 H697 0.930 . S
C657 C655 1.353 . S
C657 N659 1.401 . S
C657 H698 0.930 . S
C658 C656 1.358 . S
C658 N659 1.191 1_565 S
C658 H699 0.930 . S
N659 C657 1.401 . S
N659 C658 1.191 1_545 S
C660 C662 1.353 . S
C660 N663 1.314 . S
C660 H666 0.930 . S
C661 N663 1.279 . S
C661 C664 1.358 . S
C661 H667 0.930 . S
C662 C660 1.353 . S
C662 C665 1.348 . S
C662 H700 0.929 . S
N663 Li618 1.990 1_545 S
N663 C660 1.314 . S
N663 C661 1.279 . S
C664 C661 1.358 . S
C664 C665 1.356 . S
C664 H701 0.930 . S
C665 C662 1.348 . S
C665 C664 1.356 . S
H666 C660 0.930 . S
H667 C661 0.930 . S
C668 N669 1.314 . S
C668 C670 1.353 . S
C668 H674 0.930 . S
N669 Li619 1.990 . S
N669 C668 1.314 . S
N669 C672 1.279 . S
C670 C668 1.353 . S
C670 C673 1.348 . S
C670 H702 0.929 . S
C671 C672 1.358 . S
C671 C673 1.356 . S
C671 H703 0.930 . S
C672 N669 1.279 . S
C672 C671 1.358 . S
C672 H675 0.930 . S
C673 C670 1.348 . S
C673 C671 1.356 . S
H674 C668 0.930 . S
H675 C672 0.930 . S
O676 Li616 1.956 . S
O676 Li617 1.970 . S
O676 Li618 1.961 . S
O676 C620 1.325 . S
O677 Li616 1.970 . S
O677 Li617 1.956 . S
O677 Li619 1.961 . S
O677 C626 1.325 . S
O678 Li616 1.961 . S
O678 Li618 1.956 . S
O678 Li619 1.970 . S
O678 C648 1.325 . S
O679 Li617 1.961 . S
O679 Li618 1.970 . S
O679 Li619 1.956 . S
O679 C654 1.325 . S
H680 C622 0.929 . S
H681 C623 0.930 . S
H682 C624 0.930 . S
H683 C625 0.930 . S
H684 C627 0.930 . S
H685 C629 0.929 . S
H686 C630 0.930 . S
H687 C631 0.930 . S
H688 C634 0.930 . S
H689 C637 0.929 . S
H690 C642 0.929 . S
H691 C643 0.930 . S
H692 C650 0.929 . S
H693 C651 0.948 1_565 S
H694 C652 0.930 . S
H695 C653 0.930 . S
H696 C655 0.929 . S
H697 C656 0.930 . S
H698 C657 0.930 . S
H699 C658 0.930 . S
H700 C662 0.929 . S
H701 C664 0.930 . S
H702 C670 0.929 . S
H703 C671 0.930 . S
Li704 N721 1.990 . S
Li704 O764 1.956 . S
Li704 O765 1.970 . S
Li704 O766 1.961 . S
Li705 N729 1.990 . S
Li705 O764 1.970 . S
Li705 O765 1.956 . S
Li705 O767 1.961 . S
Li706 N751 1.990 1_455 S
Li706 O764 1.961 . S
Li706 O766 1.956 . S
Li706 O767 1.970 . S
Li707 N757 1.990 . S
Li707 O765 1.961 . S
Li707 O766 1.970 . S
Li707 O767 1.956 . S
C708 C710 1.348 . S
C708 C711 1.356 . S
C708 O764 1.325 . S
N709 C712 1.314 . S
N709 C713 1.279 . S
C710 C708 1.348 . S
C710 C712 1.353 . S
C710 H768 0.929 . S
C711 C708 1.356 . S
C711 C713 1.358 . S
C711 H769 0.930 . S
C712 N709 1.314 . S
C712 C710 1.353 . S
C712 H770 0.930 . S
C713 N709 1.279 . S
C713 C711 1.358 . S
C713 H771 0.930 . S
C714 C717 1.348 . S
C714 C718 1.356 . S
C714 O765 1.325 . S
C715 N716 1.279 . S
C715 C718 1.358 . S
C715 H772 0.930 . S
N716 C715 1.279 . S
N716 C719 1.314 . S
C717 C714 1.348 . S
C717 C719 1.353 . S
C717 H773 0.929 . S
C718 C714 1.356 . S
C718 C715 1.358 . S
C718 H774 0.930 . S
C719 N716 1.314 . S
C719 C717 1.353 . S
C719 H775 0.930 . S
C720 N721 1.314 . S
C720 C725 1.353 . S
C720 H726 0.930 . S
N721 Li704 1.990 . S
N721 C720 1.314 . S
N721 C723 1.279 . S
C722 C723 1.358 . S
C722 C724 1.356 . S
C722 H776 0.930 . S
C723 N721 1.279 . S
C723 C722 1.358 . S
C723 H727 0.930 . S
C724 C722 1.356 . S
C724 C725 1.348 . S
C725 C720 1.353 . S
C725 C724 1.348 . S
C725 H777 0.929 . S
H726 C720 0.930 . S
H727 C723 0.930 . S
C728 N729 1.314 . S
C728 C730 1.353 . S
C728 H734 0.930 . S
N729 Li705 1.990 . S
N729 C728 1.314 . S
N729 C732 1.279 . S
C730 C728 1.353 . S
C730 C733 1.348 . S
C730 H778 0.929 . S
C731 C732 1.358 . S
C731 C733 1.356 . S
C731 H779 0.930 . S
C732 N729 1.279 . S
C732 C731 1.358 . S
C732 H735 0.930 . S
C733 C730 1.348 . S
C733 C731 1.356 . S
H734 C728 0.930 . S
H735 C732 0.930 . S
C736 C738 1.348 1_455 S
C736 C739 1.356 1_455 S
C736 O766 1.325 . S
N737 C740 1.314 . S
N737 C741 1.279 . S
C738 C736 1.348 1_655 S
C738 C740 1.353 . S
C738 H780 0.929 . S
C739 C736 1.356 1_655 S
C739 C741 1.358 . S
C739 H781 0.930 1_655 S
C740 N737 1.314 . S
C740 C738 1.353 . S
C740 H782 0.930 . S
C741 N737 1.279 . S
C741 C739 1.358 . S
C741 H783 0.930 . S
C742 C743 1.348 1_455 S
C742 C744 1.356 . S
C742 O767 1.325 . S
C743 C742 1.348 1_655 S
C743 C745 1.353 . S
C743 H784 0.929 . S
C744 C742 1.356 . S
C744 C746 1.358 . S
C744 H785 0.930 . S
C745 C743 1.353 . S
C745 N747 1.310 1_655 S
C745 H786 0.930 . S
C746 C744 1.358 . S
C746 N747 1.298 . S
C746 H787 0.930 . S
N747 C745 1.310 1_455 S
N747 C746 1.298 . S
C748 C750 1.353 . S
C748 N751 1.314 . S
C748 H754 0.930 . S
C749 N751 1.279 . S
C749 C752 1.358 . S
C749 H755 0.930 . S
C750 C748 1.353 . S
C750 C753 1.348 . S
C750 H788 0.929 . S
N751 Li706 1.990 1_655 S
N751 C748 1.314 . S
N751 C749 1.279 . S
C752 C749 1.358 . S
C752 C753 1.356 . S
C752 H789 0.930 . S
C753 C750 1.348 . S
C753 C752 1.356 . S
H754 C748 0.930 . S
H755 C749 0.930 . S
C756 N757 1.314 . S
C756 C758 1.353 . S
C756 H762 0.930 . S
N757 Li707 1.990 . S
N757 C756 1.314 . S
N757 C760 1.279 . S
C758 C756 1.353 . S
C758 C761 1.348 . S
C758 H790 0.929 . S
C759 C760 1.358 . S
C759 C761 1.356 . S
C759 H791 0.930 . S
C760 N757 1.279 . S
C760 C759 1.358 . S
C760 H763 0.930 . S
C761 C758 1.348 . S
C761 C759 1.356 . S
H762 C756 0.930 . S
H763 C760 0.930 . S
O764 Li704 1.956 . S
O764 Li705 1.970 . S
O764 Li706 1.961 . S
O764 C708 1.325 . S
O765 Li704 1.970 . S
O765 Li705 1.956 . S
O765 Li707 1.961 . S
O765 C714 1.325 . S
O766 Li704 1.961 . S
O766 Li706 1.956 . S
O766 Li707 1.970 . S
O766 C736 1.325 . S
O767 Li705 1.961 . S
O767 Li706 1.970 . S
O767 Li707 1.956 . S
O767 C742 1.325 . S
H768 C710 0.929 . S
H769 C711 0.930 . S
H770 C712 0.930 . S
H771 C713 0.930 . S
H772 C715 0.930 . S
H773 C717 0.929 . S
H774 C718 0.930 . S
H775 C719 0.930 . S
H776 C722 0.930 . S
H777 C725 0.929 . S
H778 C730 0.929 . S
H779 C731 0.930 . S
H780 C738 0.929 . S
H781 C739 0.930 1_455 S
H782 C740 0.930 . S
H783 C741 0.930 . S
H784 C743 0.929 . S
H785 C744 0.930 . S
H786 C745 0.930 . S
H787 C746 0.930 . S
H788 C750 0.929 . S
H789 C752 0.930 . S
H790 C758 0.929 . S
H791 C759 0.930 . S
Li792 N809 1.990 1_565 S
Li792 O852 1.956 . S
Li792 O853 1.970 . S
Li792 O854 1.961 . S
Li793 N817 1.990 . S
Li793 O852 1.970 . S
Li793 O853 1.956 . S
Li793 O855 1.961 . S
Li794 N839 1.990 . S
Li794 O852 1.961 . S
Li794 O854 1.956 . S
Li794 O855 1.970 . S
Li795 N845 1.990 . S
Li795 O853 1.961 . S
Li795 O854 1.970 . S
Li795 O855 1.956 . S
C796 C798 1.348 . S
C796 C799 1.356 . S
C796 O852 1.325 . S
N797 C800 1.314 . S
N797 C801 1.279 . S
C798 C796 1.348 . S
C798 C800 1.353 . S
C798 H856 0.929 . S
C799 C796 1.356 . S
C799 C801 1.358 . S
C799 H857 0.930 . S
C800 N797 1.314 . S
C800 C798 1.353 . S
C800 H858 0.930 . S
C801 N797 1.279 . S
C801 C799 1.358 . S
C801 H859 0.930 . S
C802 C805 1.326 1_565 S
C802 C806 1.356 . S
C802 O853 1.325 . S
C803 N804 1.286 . S
C803 C806 1.358 . S
C803 H860 0.930 . S
N804 C803 1.286 . S
N804 C807 1.316 1_565 S
C805 C802 1.326 1_545 S
C805 C807 1.380 . S
C805 H861 0.927 . S
C806 C802 1.356 . S
C806 C803 1.358 . S
C806 H862 0.930 . S
C807 N804 1.316 1_545 S
C807 C805 1.380 . S
C807 H863 0.930 . S
C808 N809 1.314 . S
C808 C813 1.353 . S
C808 H814 0.930 . S
N809 Li792 1.990 1_545 S
N809 C808 1.314 . S
N809 C811 1.279 . S
C810 C811 1.358 . S
C810 C812 1.356 . S
C810 H864 0.930 . S
C811 N809 1.279 . S
C811 C810 1.358 . S
C811 H815 0.930 . S
C812 C810 1.356 . S
C812 C813 1.348 . S
C813 C808 1.353 . S
C813 C812 1.348 . S
C813 H865 0.929 . S
H814 C808 0.930 . S
H815 C811 0.930 . S
C816 N817 1.314 . S
C816 C818 1.353 . S
C816 H822 0.930 . S
N817 Li793 1.990 . S
N817 C816 1.314 . S
N817 C820 1.279 . S
C818 C816 1.353 . S
C818 C821 1.348 . S
C818 H866 0.929 . S
C819 C820 1.358 . S
C819 C821 1.356 . S
C819 H867 0.930 . S
C820 N817 1.279 . S
C820 C819 1.358 . S
C820 H823 0.930 . S
C821 C818 1.348 . S
C821 C819 1.356 . S
H822 C816 0.930 . S
H823 C820 0.930 . S
C824 C826 1.348 . S
C824 C827 1.356 1_565 S
C824 O854 1.325 . S
N825 C828 1.314 . S
N825 C829 1.279 . S
C826 C824 1.348 . S
C826 C828 1.353 1_565 S
C826 H868 0.929 . S
C827 C824 1.356 1_545 S
C827 C829 1.358 . S
C827 H869 0.930 . S
C828 N825 1.314 . S
C828 C826 1.353 1_545 S
C828 H870 0.930 . S
C829 N825 1.279 . S
C829 C827 1.358 . S
C829 H871 0.930 . S
C830 C831 1.348 . S
C830 C832 1.356 . S
C830 O855 1.325 . S
C831 C830 1.348 . S
C831 C833 1.353 . S
C831 H872 0.929 . S
C832 C830 1.356 . S
C832 C834 1.358 . S
C832 H873 0.930 . S
C833 C831 1.353 . S
C833 N835 1.314 . S
C833 H874 0.930 . S
C834 C832 1.358 . S
C834 N835 1.279 . S
C834 H875 0.930 . S
N835 C833 1.314 . S
N835 C834 1.279 . S
C836 C838 1.353 . S
C836 N839 1.314 . S
C836 H842 0.930 . S
C837 N839 1.279 . S
C837 C840 1.358 . S
C837 H843 0.930 . S
C838 C836 1.353 . S
C838 C841 1.348 . S
C838 H876 0.929 . S
N839 Li794 1.990 . S
N839 C836 1.314 . S
N839 C837 1.279 . S
C840 C837 1.358 . S
C840 C841 1.356 . S
C840 H877 0.930 . S
C841 C838 1.348 . S
C841 C840 1.356 . S
H842 C836 0.930 . S
H843 C837 0.930 . S
C844 N845 1.314 . S
C844 C846 1.353 . S
C844 H850 0.930 . S
N845 Li795 1.990 . S
N845 C844 1.314 . S
N845 C848 1.279 . S
C846 C844 1.353 . S
C846 C849 1.348 . S
C846 H878 0.845 1_565 S
C847 C848 1.358 . S
C847 C849 1.356 . S
C847 H879 0.930 . S
C848 N845 1.279 . S
C848 C847 1.358 . S
C848 H851 0.930 . S
C849 C846 1.348 . S
C849 C847 1.356 . S
H850 C844 0.930 . S
H851 C848 0.930 . S
O852 Li792 1.956 . S
O852 Li793 1.970 . S
O852 Li794 1.961 . S
O852 C796 1.325 . S
O853 Li792 1.970 . S
O853 Li793 1.956 . S
O853 Li795 1.961 . S
O853 C802 1.325 . S
O854 Li792 1.961 . S
O854 Li794 1.956 . S
O854 Li795 1.970 . S
O854 C824 1.325 . S
O855 Li793 1.961 . S
O855 Li794 1.970 . S
O855 Li795 1.956 . S
O855 C830 1.325 . S
H856 C798 0.929 . S
H857 C799 0.930 . S
H858 C800 0.930 . S
H859 C801 0.930 . S
H860 C803 0.930 . S
H861 C805 0.927 . S
H862 C806 0.930 . S
H863 C807 0.930 . S
H864 C810 0.930 . S
H865 C813 0.929 . S
H866 C818 0.929 . S
H867 C819 0.930 . S
H868 C826 0.929 . S
H869 C827 0.930 . S
H870 C828 0.930 . S
H871 C829 0.930 . S
H872 C831 0.929 . S
H873 C832 0.930 . S
H874 C833 0.930 . S
H875 C834 0.930 . S
H876 C838 0.929 . S
H877 C840 0.930 . S
H878 C846 0.845 1_545 S
H879 C847 0.930 . S
Li880 N897 1.990 . S
Li880 O940 1.956 . S
Li880 O941 1.970 . S
Li880 O942 1.961 . S
Li881 N905 1.990 1_455 S
Li881 O940 1.970 . S
Li881 O941 1.956 . S
Li881 O943 1.961 . S
Li882 N927 1.990 . S
Li882 O940 1.961 . S
Li882 O942 1.956 . S
Li882 O943 1.970 . S
Li883 N933 1.990 . S
Li883 O941 1.961 . S
Li883 O942 1.970 . S
Li883 O943 1.956 . S
C884 C886 1.353 1_455 S
C884 C887 1.356 . S
C884 O940 1.325 . S
N885 C888 1.247 1_455 S
N885 C889 1.353 . S
C886 C884 1.353 1_655 S
C886 C888 1.353 . S
C886 H944 0.924 . S
C887 C884 1.356 . S
C887 C889 1.358 . S
C887 H945 0.930 . S
C888 N885 1.247 1_655 S
C888 C886 1.353 . S
C888 H946 0.930 . S
C889 N885 1.353 . S
C889 C887 1.358 . S
C889 H947 0.930 . S
C890 C893 1.348 . S
C890 C894 1.356 . S
C890 O941 1.325 . S
C891 N892 1.279 . S
C891 C894 1.358 . S
C891 H948 0.930 . S
N892 C891 1.279 . S
N892 C895 1.314 . S
C893 C890 1.348 . S
C893 C895 1.353 . S
C893 H949 0.929 . S
C894 C890 1.356 . S
C894 C891 1.358 . S
C894 H950 0.930 . S
C895 N892 1.314 . S
C895 C893 1.353 . S
C895 H951 0.930 . S
C896 N897 1.314 . S
C896 C901 1.353 . S
C896 H902 0.930 . S
N897 Li880 1.990 . S
N897 C896 1.314 . S
N897 C899 1.279 . S
C898 C899 1.358 . S
C898 C900 1.356 . S
C898 H952 0.930 . S
C899 N897 1.279 . S
C899 C898 1.358 . S
C899 H903 0.930 . S
C900 C898 1.356 . S
C900 C901 1.348 . S
C901 C896 1.353 . S
C901 C900 1.348 . S
C901 H953 0.929 . S
H902 C896 0.930 . S
H903 C899 0.930 . S
C904 N905 1.314 . S
C904 C906 1.353 . S
C904 H910 0.930 . S
N905 Li881 1.990 1_655 S
N905 C904 1.314 . S
N905 C908 1.279 . S
C906 C904 1.353 . S
C906 C909 1.348 . S
C906 H954 0.929 . S
C907 C908 1.358 . S
C907 C909 1.356 . S
C907 H955 0.930 . S
C908 N905 1.279 . S
C908 C907 1.358 . S
C908 H911 0.930 . S
C909 C906 1.348 . S
C909 C907 1.356 . S
H910 C904 0.930 . S
H911 C908 0.930 . S
C912 C914 1.348 . S
C912 C915 1.356 . S
C912 O942 1.325 . S
N913 C916 1.314 . S
N913 C917 1.279 . S
C914 C912 1.348 . S
C914 C916 1.353 . S
C914 H956 0.929 . S
C915 C912 1.356 . S
C915 C917 1.358 . S
C915 H957 0.930 . S
C916 N913 1.314 . S
C916 C914 1.353 . S
C916 H958 0.930 . S
C917 N913 1.279 . S
C917 C915 1.358 . S
C917 H959 0.930 . S
C918 C919 1.348 . S
C918 C920 1.356 1_455 S
C918 O943 1.325 . S
C919 C918 1.348 . S
C919 C921 1.353 1_455 S
C919 H960 0.929 . S
C920 C918 1.356 1_655 S
C920 C922 1.358 . S
C920 H961 0.930 . S
C921 C919 1.353 1_655 S
C921 N923 1.314 . S
C921 H962 0.930 . S
C922 C920 1.358 . S
C922 N923 1.279 . S
C922 H963 0.930 . S
N923 C921 1.314 . S
N923 C922 1.279 . S
C924 C926 1.353 . S
C924 N927 1.314 . S
C924 H930 0.930 . S
C925 N927 1.279 . S
C925 C928 1.358 . S
C925 H931 0.930 . S
C926 C924 1.353 . S
C926 C929 1.348 . S
C926 H964 0.891 1_455 S
N927 Li882 1.990 . S
N927 C924 1.314 . S
N927 C925 1.279 . S
C928 C925 1.358 . S
C928 C929 1.356 . S
C928 H965 0.930 . S
C929 C926 1.348 . S
C929 C928 1.356 . S
H930 C924 0.930 . S
H931 C925 0.930 . S
C932 N933 1.314 . S
C932 C934 1.353 . S
C932 H938 0.930 . S
N933 Li883 1.990 . S
N933 C932 1.314 . S
N933 C936 1.279 . S
C934 C932 1.353 . S
C934 C937 1.348 . S
C934 H966 0.929 . S
C935 C936 1.358 . S
C935 C937 1.356 . S
C935 H967 0.930 . S
C936 N933 1.279 . S
C936 C935 1.358 . S
C936 H939 0.930 . S
C937 C934 1.348 . S
C937 C935 1.356 . S
H938 C932 0.930 . S
H939 C936 0.930 . S
O940 Li880 1.956 . S
O940 Li881 1.970 . S
O940 Li882 1.961 . S
O940 C884 1.325 . S
O941 Li880 1.970 . S
O941 Li881 1.956 . S
O941 Li883 1.961 . S
O941 C890 1.325 . S
O942 Li880 1.961 . S
O942 Li882 1.956 . S
O942 Li883 1.970 . S
O942 C912 1.325 . S
O943 Li881 1.961 . S
O943 Li882 1.970 . S
O943 Li883 1.956 . S
O943 C918 1.325 . S
H944 C886 0.924 . S
H945 C887 0.930 . S
H946 C888 0.930 . S
H947 C889 0.930 . S
H948 C891 0.930 . S
H949 C893 0.929 . S
H950 C894 0.930 . S
H951 C895 0.930 . S
H952 C898 0.930 . S
H953 C901 0.929 . S
H954 C906 0.929 . S
H955 C907 0.930 . S
H956 C914 0.929 . S
H957 C915 0.930 . S
H958 C916 0.930 . S
H959 C917 0.930 . S
H960 C919 0.929 . S
H961 C920 0.930 . S
H962 C921 0.930 . S
H963 C922 0.930 . S
H964 C926 0.891 1_655 S
H965 C928 0.930 . S
H966 C934 0.929 . S
H967 C935 0.930 . S
Li968 N985 1.990 . S
Li968 O1028 1.956 . S
Li968 O1029 1.970 . S
Li968 O1030 1.961 . S
Li969 N993 1.990 . S
Li969 O1028 1.970 . S
Li969 O1029 1.956 . S
Li969 O1031 1.961 . S
Li970 N1015 1.990 . S
Li970 O1028 1.961 . S
Li970 O1030 1.956 . S
Li970 O1031 1.970 . S
Li971 N1021 1.990 . S
Li971 O1029 1.961 . S
Li971 O1030 1.970 . S
Li971 O1031 1.956 . S
C972 C974 1.348 . S
C972 C975 1.356 . S
C972 O1028 1.325 . S
N973 C976 1.314 . S
N973 C977 1.279 . S
C974 C972 1.348 . S
C974 C976 1.353 . S
C974 H1032 0.929 . S
C975 C972 1.356 . S
C975 C977 1.358 . S
C975 H1033 0.930 . S
C976 N973 1.314 . S
C976 C974 1.353 . S
C976 H1034 0.930 . S
C977 N973 1.279 . S
C977 C975 1.358 . S
C977 H1035 0.930 . S
C978 C981 1.348 . S
C978 C982 1.356 . S
C978 O1029 1.325 . S
C979 N980 1.279 . S
C979 C982 1.358 . S
C979 H1036 0.930 . S
N980 C979 1.279 . S
N980 C983 1.314 . S
C981 C978 1.348 . S
C981 C983 1.353 . S
C981 H1037 0.929 . S
C982 C978 1.356 . S
C982 C979 1.358 . S
C982 H1038 0.930 . S
C983 N980 1.314 . S
C983 C981 1.353 . S
C983 H1039 0.930 . S
C984 N985 1.314 . S
C984 C989 1.353 . S
C984 H990 0.930 . S
N985 Li968 1.990 . S
N985 C984 1.314 . S
N985 C987 1.279 . S
C986 C987 1.358 . S
C986 C988 1.356 . S
C986 H1040 0.930 . S
C987 N985 1.279 . S
C987 C986 1.358 . S
C987 H991 0.930 . S
C988 C986 1.356 . S
C988 C989 1.348 . S
C989 C984 1.353 . S
C989 C988 1.348 . S
C989 H1041 0.929 . S
H990 C984 0.930 . S
H991 C987 0.930 . S
C992 N993 1.314 . S
C992 C994 1.353 . S
C992 H998 0.930 . S
N993 Li969 1.990 . S
N993 C992 1.314 . S
N993 C996 1.279 . S
C994 C992 1.353 . S
C994 C997 1.348 . S
C994 H1042 0.929 . S
C995 C996 1.358 . S
C995 C997 1.356 . S
C995 H1043 0.930 . S
C996 N993 1.279 . S
C996 C995 1.358 . S
C996 H999 0.930 . S
C997 C994 1.348 . S
C997 C995 1.356 . S
H998 C992 0.930 . S
H999 C996 0.930 . S
C1000 C1002 1.348 . S
C1000 C1003 1.356 . S
C1000 O1030 1.325 . S
N1001 C1004 1.314 . S
N1001 C1005 1.279 . S
C1002 C1000 1.348 . S
C1002 C1004 1.353 . S
C1002 H1044 0.929 . S
C1003 C1000 1.356 . S
C1003 C1005 1.358 . S
C1003 H1045 0.930 . S
C1004 N1001 1.314 . S
C1004 C1002 1.353 . S
C1004 H1046 0.930 . S
C1005 N1001 1.279 . S
C1005 C1003 1.358 . S
C1005 H1047 0.930 . S
C1006 C1007 1.348 . S
C1006 C1008 1.356 . S
C1006 O1031 1.325 . S
C1007 C1006 1.348 . S
C1007 C1009 1.353 . S
C1007 H1048 0.929 . S
C1008 C1006 1.356 . S
C1008 C1010 1.358 . S
C1008 H1049 0.930 . S
C1009 C1007 1.353 . S
C1009 N1011 1.314 . S
C1009 H1050 0.930 . S
C1010 C1008 1.358 . S
C1010 N1011 1.279 . S
C1010 H1051 0.930 . S
N1011 C1009 1.314 . S
N1011 C1010 1.279 . S
C1012 C1014 1.353 . S
C1012 N1015 1.314 . S
C1012 H1018 0.930 . S
C1013 N1015 1.279 . S
C1013 C1016 1.358 . S
C1013 H1019 0.930 . S
C1014 C1012 1.353 . S
C1014 C1017 1.348 . S
C1014 H1052 0.929 . S
N1015 Li970 1.990 . S
N1015 C1012 1.314 . S
N1015 C1013 1.279 . S
C1016 C1013 1.358 . S
C1016 C1017 1.356 . S
C1016 H1053 0.930 . S
C1017 C1014 1.348 . S
C1017 C1016 1.356 . S
H1018 C1012 0.930 . S
H1019 C1013 0.930 . S
C1020 N1021 1.314 . S
C1020 C1022 1.353 . S
C1020 H1026 0.930 . S
N1021 Li971 1.990 . S
N1021 C1020 1.314 . S
N1021 C1024 1.279 . S
C1022 C1020 1.353 . S
C1022 C1025 1.348 . S
C1022 H1054 0.929 . S
C1023 C1024 1.358 . S
C1023 C1025 1.356 . S
C1023 H1055 0.930 . S
C1024 N1021 1.279 . S
C1024 C1023 1.358 . S
C1024 H1027 0.930 . S
C1025 C1022 1.348 . S
C1025 C1023 1.356 . S
H1026 C1020 0.930 . S
H1027 C1024 0.930 . S
O1028 Li968 1.956 . S
O1028 Li969 1.970 . S
O1028 Li970 1.961 . S
O1028 C972 1.325 . S
O1029 Li968 1.970 . S
O1029 Li969 1.956 . S
O1029 Li971 1.961 . S
O1029 C978 1.325 . S
O1030 Li968 1.961 . S
O1030 Li970 1.956 . S
O1030 Li971 1.970 . S
O1030 C1000 1.325 . S
O1031 Li969 1.961 . S
O1031 Li970 1.970 . S
O1031 Li971 1.956 . S
O1031 C1006 1.325 . S
H1032 C974 0.929 . S
H1033 C975 0.930 . S
H1034 C976 0.930 . S
H1035 C977 0.930 . S
H1036 C979 0.930 . S
H1037 C981 0.929 . S
H1038 C982 0.930 . S
H1039 C983 0.930 . S
H1040 C986 0.930 . S
H1041 C989 0.929 . S
H1042 C994 0.929 . S
H1043 C995 0.930 . S
H1044 C1002 0.929 . S
H1045 C1003 0.930 . S
H1046 C1004 0.930 . S
H1047 C1005 0.930 . S
H1048 C1007 0.929 . S
H1049 C1008 0.930 . S
H1050 C1009 0.930 . S
H1051 C1010 0.930 . S
H1052 C1014 0.929 . S
H1053 C1016 0.930 . S
H1054 C1022 0.929 . S
H1055 C1023 0.930 . S
Li1056 N1073 1.990 1_545 S
Li1056 O1116 1.956 . S
Li1056 O1117 1.970 . S
Li1056 O1118 1.961 . S
Li1057 N1081 1.990 . S
Li1057 O1116 1.970 . S
Li1057 O1117 1.956 . S
Li1057 O1119 1.961 . S
Li1058 N1103 1.990 . S
Li1058 O1116 1.961 . S
Li1058 O1118 1.956 . S
Li1058 O1119 1.970 . S
Li1059 N1109 1.990 . S
Li1059 O1117 1.961 . S
Li1059 O1118 1.970 . S
Li1059 O1119 1.956 . S
C1060 C1062 1.348 1_545 S
C1060 C1063 1.356 1_545 S
C1060 O1116 1.325 . S
N1061 C1064 1.314 . S
N1061 C1065 1.279 . S
C1062 C1060 1.348 1_565 S
C1062 C1064 1.353 . S
C1062 H1120 0.929 . S
C1063 C1060 1.356 1_565 S
C1063 C1065 1.358 . S
C1063 H1121 0.930 1_565 S
C1064 N1061 1.314 . S
C1064 C1062 1.353 . S
C1064 H1122 0.930 . S
C1065 N1061 1.279 . S
C1065 C1063 1.358 . S
C1065 H1123 0.930 . S
C1066 C1069 1.348 1_545 S
C1066 C1070 1.356 . S
C1066 O1117 1.325 . S
C1067 N1068 1.264 1_545 S
C1067 C1070 1.358 . S
C1067 H1124 0.930 . S
N1068 C1067 1.264 1_565 S
N1068 C1071 1.318 . S
C1069 C1066 1.348 1_565 S
C1069 C1071 1.353 . S
C1069 H1125 0.929 . S
C1070 C1066 1.356 . S
C1070 C1067 1.358 . S
C1070 H1126 0.930 . S
C1071 N1068 1.318 . S
C1071 C1069 1.353 . S
C1071 H1127 0.930 . S
C1072 N1073 1.314 . S
C1072 C1077 1.353 . S
C1072 H1078 0.930 . S
N1073 Li1056 1.990 1_565 S
N1073 C1072 1.314 . S
N1073 C1075 1.279 . S
C1074 C1075 1.358 . S
C1074 C1076 1.356 . S
C1074 H1128 0.930 . S
C1075 N1073 1.279 . S
C1075 C1074 1.358 . S
C1075 H1079 0.930 . S
C1076 C1074 1.356 . S
C1076 C1077 1.348 . S
C1077 C1072 1.353 . S
C1077 C1076 1.348 . S
C1077 H1129 0.929 . S
H1078 C1072 0.930 . S
H1079 C1075 0.930 . S
C1080 N1081 1.314 . S
C1080 C1082 1.353 . S
C1080 H1086 0.930 . S
N1081 Li1057 1.990 . S
N1081 C1080 1.314 . S
N1081 C1084 1.279 . S
C1082 C1080 1.353 . S
C1082 C1085 1.348 . S
C1082 H1130 0.929 . S
C1083 C1084 1.358 . S
C1083 C1085 1.356 . S
C1083 H1131 0.930 . S
C1084 N1081 1.279 . S
C1084 C1083 1.358 . S
C1084 H1087 0.930 . S
C1085 C1082 1.348 . S
C1085 C1083 1.356 . S
H1086 C1080 0.930 . S
H1087 C1084 0.930 . S
C1088 C1090 1.348 . S
C1088 C1091 1.356 . S
C1088 O1118 1.325 . S
N1089 C1092 1.314 . S
N1089 C1093 1.279 . S
C1090 C1088 1.348 . S
C1090 C1092 1.353 . S
C1090 H1132 0.929 . S
C1091 C1088 1.356 . S
C1091 C1093 1.358 . S
C1091 H1133 0.930 . S
C1092 N1089 1.314 . S
C1092 C1090 1.353 . S
C1092 H1134 0.930 . S
C1093 N1089 1.279 . S
C1093 C1091 1.358 . S
C1093 H1135 0.930 . S
C1094 C1095 1.348 . S
C1094 C1096 1.356 . S
C1094 O1119 1.325 . S
C1095 C1094 1.348 . S
C1095 C1097 1.353 . S
C1095 H1136 0.929 . S
C1096 C1094 1.356 . S
C1096 C1098 1.358 . S
C1096 H1137 0.930 . S
C1097 C1095 1.353 . S
C1097 N1099 1.314 . S
C1097 H1138 0.930 . S
C1098 C1096 1.358 . S
C1098 N1099 1.279 . S
C1098 H1139 0.930 . S
N1099 C1097 1.314 . S
N1099 C1098 1.279 . S
C1100 C1102 1.353 . S
C1100 N1103 1.314 . S
C1100 H1106 0.930 . S
C1101 N1103 1.279 . S
C1101 C1104 1.358 . S
C1101 H1107 0.930 . S
C1102 C1100 1.353 . S
C1102 C1105 1.348 . S
C1102 H1140 0.929 . S
N1103 Li1058 1.990 . S
N1103 C1100 1.314 . S
N1103 C1101 1.279 . S
C1104 C1101 1.358 . S
C1104 C1105 1.356 . S
C1104 H1141 0.930 . S
C1105 C1102 1.348 . S
C1105 C1104 1.356 . S
H1106 C1100 0.930 . S
H1107 C1101 0.930 . S
C1108 N1109 1.314 . S
C1108 C1110 1.353 . S
C1108 H1114 0.930 . S
N1109 Li1059 1.990 . S
N1109 C1108 1.314 . S
N1109 C1112 1.279 . S
C1110 C1108 1.353 . S
C1110 C1113 1.348 . S
C1110 H1142 0.929 . S
C1111 C1112 1.358 . S
C1111 C1113 1.356 . S
C1111 H1143 0.930 . S
C1112 N1109 1.279 . S
C1112 C1111 1.358 . S
C1112 H1115 0.930 . S
C1113 C1110 1.348 . S
C1113 C1111 1.356 . S
H1114 C1108 0.930 . S
H1115 C1112 0.930 . S
O1116 Li1056 1.956 . S
O1116 Li1057 1.970 . S
O1116 Li1058 1.961 . S
O1116 C1060 1.325 . S
O1117 Li1056 1.970 . S
O1117 Li1057 1.956 . S
O1117 Li1059 1.961 . S
O1117 C1066 1.325 . S
O1118 Li1056 1.961 . S
O1118 Li1058 1.956 . S
O1118 Li1059 1.970 . S
O1118 C1088 1.325 . S
O1119 Li1057 1.961 . S
O1119 Li1058 1.970 . S
O1119 Li1059 1.956 . S
O1119 C1094 1.325 . S
H1120 C1062 0.929 . S
H1121 C1063 0.930 1_545 S
H1122 C1064 0.930 . S
H1123 C1065 0.930 . S
H1124 C1067 0.930 . S
H1125 C1069 0.929 . S
H1126 C1070 0.930 . S
H1127 C1071 0.930 . S
H1128 C1074 0.930 . S
H1129 C1077 0.929 . S
H1130 C1082 0.929 . S
H1131 C1083 0.930 . S
H1132 C1090 0.929 . S
H1133 C1091 0.930 . S
H1134 C1092 0.930 . S
H1135 C1093 0.930 . S
H1136 C1095 0.929 . S
H1137 C1096 0.930 . S
H1138 C1097 0.930 . S
H1139 C1098 0.930 . S
H1140 C1102 0.929 . S
H1141 C1104 0.930 . S
H1142 C1110 0.929 . S
H1143 C1111 0.930 . S
Li1144 N1161 1.990 1_655 S
Li1144 O1204 1.956 . S
Li1144 O1205 1.970 . S
Li1144 O1206 1.961 . S
Li1145 N1169 1.990 . S
Li1145 O1204 1.970 . S
Li1145 O1205 1.956 . S
Li1145 O1207 1.961 . S
Li1146 N1191 1.990 . S
Li1146 O1204 1.961 . S
Li1146 O1206 1.956 . S
Li1146 O1207 1.970 . S
Li1147 N1197 1.990 . S
Li1147 O1205 1.961 . S
Li1147 O1206 1.970 . S
Li1147 O1207 1.956 . S
C1148 C1150 1.348 1_655 S
C1148 C1151 1.356 1_655 S
C1148 O1204 1.325 . S
N1149 C1152 1.314 . S
N1149 C1153 1.279 . S
C1150 C1148 1.348 1_455 S
C1150 C1152 1.353 . S
C1150 H1208 0.929 . S
C1151 C1148 1.356 1_455 S
C1151 C1153 1.358 . S
C1151 H1209 0.948 1_455 S
C1152 N1149 1.314 . S
C1152 C1150 1.353 . S
C1152 H1210 0.930 . S
C1153 N1149 1.279 . S
C1153 C1151 1.358 . S
C1153 H1211 0.930 . S
C1154 C1157 1.348 1_655 S
C1154 C1158 1.356 . S
C1154 O1205 1.325 . S
C1155 N1156 1.257 1_655 S
C1155 C1158 1.358 . S
C1155 H1212 0.930 . S
N1156 C1155 1.257 1_455 S
N1156 C1159 1.335 . S
C1157 C1154 1.348 1_455 S
C1157 C1159 1.353 . S
C1157 H1213 0.929 . S
C1158 C1154 1.356 . S
C1158 C1155 1.358 . S
C1158 H1214 0.930 . S
C1159 N1156 1.335 . S
C1159 C1157 1.353 . S
C1159 H1215 0.930 . S
C1160 N1161 1.314 . S
C1160 C1165 1.353 . S
C1160 H1166 0.930 . S
N1161 Li1144 1.990 1_455 S
N1161 C1160 1.314 . S
N1161 C1163 1.279 . S
C1162 C1163 1.358 . S
C1162 C1164 1.356 . S
C1162 H1216 0.930 . S
C1163 N1161 1.279 . S
C1163 C1162 1.358 . S
C1163 H1167 0.930 . S
C1164 C1162 1.356 . S
C1164 C1165 1.348 . S
C1165 C1160 1.353 . S
C1165 C1164 1.348 . S
C1165 H1217 0.929 . S
H1166 C1160 0.930 . S
H1167 C1163 0.930 . S
C1168 N1169 1.314 . S
C1168 C1170 1.353 . S
C1168 H1174 0.930 . S
N1169 Li1145 1.990 . S
N1169 C1168 1.314 . S
N1169 C1172 1.279 . S
C1170 C1168 1.353 . S
C1170 C1173 1.348 . S
C1170 H1218 0.929 . S
C1171 C1172 1.358 . S
C1171 C1173 1.356 . S
C1171 H1219 0.930 . S
C1172 N1169 1.279 . S
C1172 C1171 1.358 . S
C1172 H1175 0.930 . S
C1173 C1170 1.348 . S
C1173 C1171 1.356 . S
H1174 C1168 0.930 . S
H1175 C1172 0.930 . S
C1176 C1178 1.348 . S
C1176 C1179 1.356 . S
C1176 O1206 1.325 . S
N1177 C1180 1.314 . S
N1177 C1181 1.279 . S
C1178 C1176 1.348 . S
C1178 C1180 1.353 . S
C1178 H1220 0.929 . S
C1179 C1176 1.356 . S
C1179 C1181 1.358 . S
C1179 H1221 0.930 . S
C1180 N1177 1.314 . S
C1180 C1178 1.353 . S
C1180 H1222 0.930 . S
C1181 N1177 1.279 . S
C1181 C1179 1.358 . S
C1181 H1223 0.930 . S
C1182 C1183 1.348 . S
C1182 C1184 1.356 . S
C1182 O1207 1.325 . S
C1183 C1182 1.348 . S
C1183 C1185 1.353 . S
C1183 H1224 0.929 . S
C1184 C1182 1.356 . S
C1184 C1186 1.358 . S
C1184 H1225 0.930 . S
C1185 C1183 1.353 . S
C1185 N1187 1.314 . S
C1185 H1226 0.930 . S
C1186 C1184 1.358 . S
C1186 N1187 1.279 . S
C1186 H1227 0.930 . S
N1187 C1185 1.314 . S
N1187 C1186 1.279 . S
C1188 C1190 1.353 . S
C1188 N1191 1.314 . S
C1188 H1194 0.930 . S
C1189 N1191 1.279 . S
C1189 C1192 1.358 . S
C1189 H1195 0.930 . S
C1190 C1188 1.353 . S
C1190 C1193 1.348 . S
C1190 H1228 0.929 . S
N1191 Li1146 1.990 . S
N1191 C1188 1.314 . S
N1191 C1189 1.279 . S
C1192 C1189 1.358 . S
C1192 C1193 1.356 . S
C1192 H1229 0.930 . S
C1193 C1190 1.348 . S
C1193 C1192 1.356 . S
H1194 C1188 0.930 . S
H1195 C1189 0.930 . S
C1196 N1197 1.314 . S
C1196 C1198 1.353 . S
C1196 H1202 0.930 . S
N1197 Li1147 1.990 . S
N1197 C1196 1.314 . S
N1197 C1200 1.279 . S
C1198 C1196 1.353 . S
C1198 C1201 1.348 . S
C1198 H1230 0.929 . S
C1199 C1200 1.358 . S
C1199 C1201 1.356 . S
C1199 H1231 0.930 . S
C1200 N1197 1.279 . S
C1200 C1199 1.358 . S
C1200 H1203 0.930 . S
C1201 C1198 1.348 . S
C1201 C1199 1.356 . S
H1202 C1196 0.930 . S
H1203 C1200 0.930 . S
O1204 Li1144 1.956 . S
O1204 Li1145 1.970 . S
O1204 Li1146 1.961 . S
O1204 C1148 1.325 . S
O1205 Li1144 1.970 . S
O1205 Li1145 1.956 . S
O1205 Li1147 1.961 . S
O1205 C1154 1.325 . S
O1206 Li1144 1.961 . S
O1206 Li1146 1.956 . S
O1206 Li1147 1.970 . S
O1206 C1176 1.325 . S
O1207 Li1145 1.961 . S
O1207 Li1146 1.970 . S
O1207 Li1147 1.956 . S
O1207 C1182 1.325 . S
H1208 C1150 0.929 . S
H1209 C1151 0.948 1_655 S
H1210 C1152 0.930 . S
H1211 C1153 0.930 . S
H1212 C1155 0.930 . S
H1213 C1157 0.929 . S
H1214 C1158 0.930 . S
H1215 C1159 0.930 . S
H1216 C1162 0.930 . S
H1217 C1165 0.929 . S
H1218 C1170 0.929 . S
H1219 C1171 0.930 . S
H1220 C1178 0.929 . S
H1221 C1179 0.930 . S
H1222 C1180 0.930 . S
H1223 C1181 0.930 . S
H1224 C1183 0.929 . S
H1225 C1184 0.930 . S
H1226 C1185 0.930 . S
H1227 C1186 0.930 . S
H1228 C1190 0.929 . S
H1229 C1192 0.930 . S
H1230 C1198 0.929 . S
H1231 C1199 0.930 . S
Li1232 N1249 1.990 . S
Li1232 O1292 1.956 . S
Li1232 O1293 1.970 . S
Li1232 O1294 1.961 . S
Li1233 N1257 1.990 . S
Li1233 O1292 1.970 . S
Li1233 O1293 1.956 . S
Li1233 O1295 1.961 . S
Li1234 N1279 1.990 . S
Li1234 O1292 1.961 . S
Li1234 O1294 1.956 . S
Li1234 O1295 1.970 . S
Li1235 N1285 1.990 . S
Li1235 O1293 1.961 . S
Li1235 O1294 1.970 . S
Li1235 O1295 1.956 . S
C1236 C1238 1.348 . S
C1236 C1239 1.356 . S
C1236 O1292 1.325 . S
N1237 C1240 1.314 . S
N1237 C1241 1.279 . S
C1238 C1236 1.348 . S
C1238 C1240 1.353 . S
C1238 H1296 0.929 . S
C1239 C1236 1.356 . S
C1239 C1241 1.358 . S
C1239 H1297 0.930 . S
C1240 N1237 1.314 . S
C1240 C1238 1.353 . S
C1240 H1298 0.930 . S
C1241 N1237 1.279 . S
C1241 C1239 1.358 . S
C1241 H1299 0.930 . S
C1242 C1245 1.348 . S
C1242 C1246 1.356 . S
C1242 O1293 1.325 . S
C1243 N1244 1.279 . S
C1243 C1246 1.358 . S
C1243 H1300 0.930 . S
N1244 C1243 1.279 . S
N1244 C1247 1.314 . S
C1245 C1242 1.348 . S
C1245 C1247 1.353 . S
C1245 H1301 0.929 . S
C1246 C1242 1.356 . S
C1246 C1243 1.358 . S
C1246 H1302 0.930 . S
C1247 N1244 1.314 . S
C1247 C1245 1.353 . S
C1247 H1303 0.930 . S
C1248 N1249 1.314 . S
C1248 C1253 1.353 . S
C1248 H1254 0.930 . S
N1249 Li1232 1.990 . S
N1249 C1248 1.314 . S
N1249 C1251 1.279 . S
C1250 C1251 1.358 . S
C1250 C1252 1.356 . S
C1250 H1304 0.930 . S
C1251 N1249 1.279 . S
C1251 C1250 1.358 . S
C1251 H1255 0.930 . S
C1252 C1250 1.356 . S
C1252 C1253 1.348 . S
C1253 C1248 1.353 . S
C1253 C1252 1.348 . S
C1253 H1305 0.929 . S
H1254 C1248 0.930 . S
H1255 C1251 0.930 . S
C1256 N1257 1.314 . S
C1256 C1258 1.353 . S
C1256 H1262 0.930 . S
N1257 Li1233 1.990 . S
N1257 C1256 1.314 . S
N1257 C1260 1.279 . S
C1258 C1256 1.353 . S
C1258 C1261 1.348 . S
C1258 H1306 0.929 . S
C1259 C1260 1.358 . S
C1259 C1261 1.356 . S
C1259 H1307 0.930 . S
C1260 N1257 1.279 . S
C1260 C1259 1.358 . S
C1260 H1263 0.930 . S
C1261 C1258 1.348 . S
C1261 C1259 1.356 . S
H1262 C1256 0.930 . S
H1263 C1260 0.930 . S
C1264 C1266 1.348 . S
C1264 C1267 1.356 . S
C1264 O1294 1.325 . S
N1265 C1268 1.314 . S
N1265 C1269 1.279 . S
C1266 C1264 1.348 . S
C1266 C1268 1.353 . S
C1266 H1308 0.929 . S
C1267 C1264 1.356 . S
C1267 C1269 1.358 . S
C1267 H1309 0.930 . S
C1268 N1265 1.314 . S
C1268 C1266 1.353 . S
C1268 H1310 0.930 . S
C1269 N1265 1.279 . S
C1269 C1267 1.358 . S
C1269 H1311 0.930 . S
C1270 C1271 1.348 . S
C1270 C1272 1.356 . S
C1270 O1295 1.325 . S
C1271 C1270 1.348 . S
C1271 C1273 1.353 . S
C1271 H1312 0.929 . S
C1272 C1270 1.356 . S
C1272 C1274 1.358 . S
C1272 H1313 0.930 . S
C1273 C1271 1.353 . S
C1273 N1275 1.314 . S
C1273 H1314 0.930 . S
C1274 C1272 1.358 . S
C1274 N1275 1.279 . S
C1274 H1315 0.930 . S
N1275 C1273 1.314 . S
N1275 C1274 1.279 . S
C1276 C1278 1.353 . S
C1276 N1279 1.314 . S
C1276 H1282 0.930 . S
C1277 N1279 1.279 . S
C1277 C1280 1.358 . S
C1277 H1283 0.930 . S
C1278 C1276 1.353 . S
C1278 C1281 1.348 . S
C1278 H1316 0.929 . S
N1279 Li1234 1.990 . S
N1279 C1276 1.314 . S
N1279 C1277 1.279 . S
C1280 C1277 1.358 . S
C1280 C1281 1.356 . S
C1280 H1317 0.930 . S
C1281 C1278 1.348 . S
C1281 C1280 1.356 . S
H1282 C1276 0.930 . S
H1283 C1277 0.930 . S
C1284 N1285 1.314 . S
C1284 C1286 1.353 . S
C1284 H1290 0.930 . S
N1285 Li1235 1.990 . S
N1285 C1284 1.314 . S
N1285 C1288 1.279 . S
C1286 C1284 1.353 . S
C1286 C1289 1.348 . S
C1286 H1318 0.929 . S
C1287 C1288 1.358 . S
C1287 C1289 1.356 . S
C1287 H1319 0.930 . S
C1288 N1285 1.279 . S
C1288 C1287 1.358 . S
C1288 H1291 0.930 . S
C1289 C1286 1.348 . S
C1289 C1287 1.356 . S
H1290 C1284 0.930 . S
H1291 C1288 0.930 . S
O1292 Li1232 1.956 . S
O1292 Li1233 1.970 . S
O1292 Li1234 1.961 . S
O1292 C1236 1.325 . S
O1293 Li1232 1.970 . S
O1293 Li1233 1.956 . S
O1293 Li1235 1.961 . S
O1293 C1242 1.325 . S
O1294 Li1232 1.961 . S
O1294 Li1234 1.956 . S
O1294 Li1235 1.970 . S
O1294 C1264 1.325 . S
O1295 Li1233 1.961 . S
O1295 Li1234 1.970 . S
O1295 Li1235 1.956 . S
O1295 C1270 1.325 . S
H1296 C1238 0.929 . S
H1297 C1239 0.930 . S
H1298 C1240 0.930 . S
H1299 C1241 0.930 . S
H1300 C1243 0.930 . S
H1301 C1245 0.929 . S
H1302 C1246 0.930 . S
H1303 C1247 0.930 . S
H1304 C1250 0.930 . S
H1305 C1253 0.929 . S
H1306 C1258 0.929 . S
H1307 C1259 0.930 . S
H1308 C1266 0.929 . S
H1309 C1267 0.930 . S
H1310 C1268 0.930 . S
H1311 C1269 0.930 . S
H1312 C1271 0.929 . S
H1313 C1272 0.930 . S
H1314 C1273 0.930 . S
H1315 C1274 0.930 . S
H1316 C1278 0.929 . S
H1317 C1280 0.930 . S
H1318 C1286 0.929 . S
H1319 C1287 0.930 . S
Li1320 N1337 1.990 . S
Li1320 O1380 1.956 . S
Li1320 O1381 1.970 . S
Li1320 O1382 1.961 . S
Li1321 N1345 1.990 . S
Li1321 O1380 1.970 . S
Li1321 O1381 1.956 . S
Li1321 O1383 1.961 . S
Li1322 N1367 1.990 . S
Li1322 O1380 1.961 . S
Li1322 O1382 1.956 . S
Li1322 O1383 1.970 . S
Li1323 N1373 1.990 . S
Li1323 O1381 1.961 . S
Li1323 O1382 1.970 . S
Li1323 O1383 1.956 . S
C1324 C1326 1.348 . S
C1324 C1327 1.356 . S
C1324 O1380 1.325 . S
N1325 C1328 1.314 . S
N1325 C1329 1.279 . S
C1326 C1324 1.348 . S
C1326 C1328 1.353 . S
C1326 H1384 0.929 . S
C1327 C1324 1.356 . S
C1327 C1329 1.358 . S
C1327 H1385 0.930 . S
C1328 N1325 1.314 . S
C1328 C1326 1.353 . S
C1328 H1386 0.930 . S
C1329 N1325 1.279 . S
C1329 C1327 1.358 . S
C1329 H1387 0.930 . S
C1330 C1333 1.348 . S
C1330 C1334 1.356 . S
C1330 O1381 1.325 . S
C1331 N1332 1.279 . S
C1331 C1334 1.358 . S
C1331 H1388 0.930 . S
N1332 C1331 1.279 . S
N1332 C1335 1.314 . S
C1333 C1330 1.348 . S
C1333 C1335 1.353 . S
C1333 H1389 0.929 . S
C1334 C1330 1.356 . S
C1334 C1331 1.358 . S
C1334 H1390 0.930 . S
C1335 N1332 1.314 . S
C1335 C1333 1.353 . S
C1335 H1391 0.930 . S
C1336 N1337 1.314 . S
C1336 C1341 1.353 . S
C1336 H1342 0.930 . S
N1337 Li1320 1.990 . S
N1337 C1336 1.314 . S
N1337 C1339 1.279 . S
C1338 C1339 1.358 . S
C1338 C1340 1.356 . S
C1338 H1392 0.930 . S
C1339 N1337 1.279 . S
C1339 C1338 1.358 . S
C1339 H1343 0.930 . S
C1340 C1338 1.356 . S
C1340 C1341 1.348 . S
C1341 C1336 1.353 . S
C1341 C1340 1.348 . S
C1341 H1393 0.929 . S
H1342 C1336 0.930 . S
H1343 C1339 0.930 . S
C1344 N1345 1.314 . S
C1344 C1346 1.353 . S
C1344 H1350 0.930 . S
N1345 Li1321 1.990 . S
N1345 C1344 1.314 . S
N1345 C1348 1.279 . S
C1346 C1344 1.353 . S
C1346 C1349 1.348 . S
C1346 H1394 0.929 . S
C1347 C1348 1.358 . S
C1347 C1349 1.356 . S
C1347 H1395 0.930 . S
C1348 N1345 1.279 . S
C1348 C1347 1.358 . S
C1348 H1351 0.930 . S
C1349 C1346 1.348 . S
C1349 C1347 1.356 . S
H1350 C1344 0.930 . S
H1351 C1348 0.930 . S
C1352 C1354 1.348 . S
C1352 C1355 1.356 . S
C1352 O1382 1.325 . S
N1353 C1356 1.314 . S
N1353 C1357 1.279 . S
C1354 C1352 1.348 . S
C1354 C1356 1.353 . S
C1354 H1396 0.929 . S
C1355 C1352 1.356 . S
C1355 C1357 1.358 . S
C1355 H1397 0.930 . S
C1356 N1353 1.314 . S
C1356 C1354 1.353 . S
C1356 H1398 0.930 . S
C1357 N1353 1.279 . S
C1357 C1355 1.358 . S
C1357 H1399 0.930 . S
C1358 C1359 1.348 . S
C1358 C1360 1.356 . S
C1358 O1383 1.325 . S
C1359 C1358 1.348 . S
C1359 C1361 1.353 . S
C1359 H1400 0.929 . S
C1360 C1358 1.356 . S
C1360 C1362 1.358 . S
C1360 H1401 0.930 . S
C1361 C1359 1.353 . S
C1361 N1363 1.314 . S
C1361 H1402 0.930 . S
C1362 C1360 1.358 . S
C1362 N1363 1.279 . S
C1362 H1403 0.930 . S
N1363 C1361 1.314 . S
N1363 C1362 1.279 . S
C1364 C1366 1.353 . S
C1364 N1367 1.314 . S
C1364 H1370 0.930 . S
C1365 N1367 1.279 . S
C1365 C1368 1.358 . S
C1365 H1371 0.930 . S
C1366 C1364 1.353 . S
C1366 C1369 1.348 . S
C1366 H1404 0.929 . S
N1367 Li1322 1.990 . S
N1367 C1364 1.314 . S
N1367 C1365 1.279 . S
C1368 C1365 1.358 . S
C1368 C1369 1.356 . S
C1368 H1405 0.930 . S
C1369 C1366 1.348 . S
C1369 C1368 1.356 . S
H1370 C1364 0.930 . S
H1371 C1365 0.930 . S
C1372 N1373 1.314 . S
C1372 C1374 1.353 . S
C1372 H1378 0.930 . S
N1373 Li1323 1.990 . S
N1373 C1372 1.314 . S
N1373 C1376 1.279 . S
C1374 C1372 1.353 . S
C1374 C1377 1.348 . S
C1374 H1406 0.929 . S
C1375 C1376 1.358 . S
C1375 C1377 1.356 . S
C1375 H1407 0.930 . S
C1376 N1373 1.279 . S
C1376 C1375 1.358 . S
C1376 H1379 0.930 . S
C1377 C1374 1.348 . S
C1377 C1375 1.356 . S
H1378 C1372 0.930 . S
H1379 C1376 0.930 . S
O1380 Li1320 1.956 . S
O1380 Li1321 1.970 . S
O1380 Li1322 1.961 . S
O1380 C1324 1.325 . S
O1381 Li1320 1.970 . S
O1381 Li1321 1.956 . S
O1381 Li1323 1.961 . S
O1381 C1330 1.325 . S
O1382 Li1320 1.961 . S
O1382 Li1322 1.956 . S
O1382 Li1323 1.970 . S
O1382 C1352 1.325 . S
O1383 Li1321 1.961 . S
O1383 Li1322 1.970 . S
O1383 Li1323 1.956 . S
O1383 C1358 1.325 . S
H1384 C1326 0.929 . S
H1385 C1327 0.930 . S
H1386 C1328 0.930 . S
H1387 C1329 0.930 . S
H1388 C1331 0.930 . S
H1389 C1333 0.929 . S
H1390 C1334 0.930 . S
H1391 C1335 0.930 . S
H1392 C1338 0.930 . S
H1393 C1341 0.929 . S
H1394 C1346 0.929 . S
H1395 C1347 0.930 . S
H1396 C1354 0.929 . S
H1397 C1355 0.930 . S
H1398 C1356 0.930 . S
H1399 C1357 0.930 . S
H1400 C1359 0.929 . S
H1401 C1360 0.930 . S
H1402 C1361 0.930 . S
H1403 C1362 0.930 . S
H1404 C1366 0.929 . S
H1405 C1368 0.930 . S
H1406 C1374 0.929 . S
H1407 C1375 0.930 . S
Li1408 N1425 1.990 . S
Li1408 O1468 1.956 . S
Li1408 O1469 1.970 . S
Li1408 O1470 1.961 . S
Li1409 N1433 1.990 . S
Li1409 O1468 1.970 . S
Li1409 O1469 1.956 . S
Li1409 O1471 1.961 . S
Li1410 N1455 1.990 . S
Li1410 O1468 1.961 . S
Li1410 O1470 1.956 . S
Li1410 O1471 1.970 . S
Li1411 N1461 1.990 1_545 S
Li1411 O1469 1.961 . S
Li1411 O1470 1.970 . S
Li1411 O1471 1.956 . S
C1412 C1414 1.348 . S
C1412 C1415 1.356 . S
C1412 O1468 1.325 . S
N1413 C1416 1.314 . S
N1413 C1417 1.279 . S
C1414 C1412 1.348 . S
C1414 C1416 1.353 . S
C1414 H1472 0.929 . S
C1415 C1412 1.356 . S
C1415 C1417 1.358 . S
C1415 H1473 0.930 . S
C1416 N1413 1.314 . S
C1416 C1414 1.353 . S
C1416 H1474 0.930 . S
C1417 N1413 1.279 . S
C1417 C1415 1.358 . S
C1417 H1475 0.930 . S
C1418 C1421 1.348 . S
C1418 C1422 1.356 1_545 S
C1418 O1469 1.325 . S
C1419 N1420 1.279 . S
C1419 C1422 1.358 . S
C1419 H1476 0.930 . S
N1420 C1419 1.279 . S
N1420 C1423 1.314 . S
C1421 C1418 1.348 . S
C1421 C1423 1.353 1_545 S
C1421 H1477 0.929 . S
C1422 C1418 1.356 1_565 S
C1422 C1419 1.358 . S
C1422 H1478 0.930 . S
C1423 N1420 1.314 . S
C1423 C1421 1.353 1_565 S
C1423 H1479 0.930 . S
C1424 N1425 1.314 . S
C1424 C1429 1.353 . S
C1424 H1430 0.930 . S
N1425 Li1408 1.990 . S
N1425 C1424 1.314 . S
N1425 C1427 1.279 . S
C1426 C1427 1.358 . S
C1426 C1428 1.356 . S
C1426 H1480 0.930 . S
C1427 N1425 1.279 . S
C1427 C1426 1.358 . S
C1427 H1431 0.930 . S
C1428 C1426 1.356 . S
C1428 C1429 1.348 . S
C1429 C1424 1.353 . S
C1429 C1428 1.348 . S
C1429 H1481 0.929 1_545 S
H1430 C1424 0.930 . S
H1431 C1427 0.930 . S
C1432 N1433 1.314 . S
C1432 C1434 1.353 . S
C1432 H1438 0.930 . S
N1433 Li1409 1.990 . S
N1433 C1432 1.314 . S
N1433 C1436 1.279 . S
C1434 C1432 1.353 . S
C1434 C1437 1.348 . S
C1434 H1482 0.929 . S
C1435 C1436 1.358 . S
C1435 C1437 1.356 . S
C1435 H1483 0.930 . S
C1436 N1433 1.279 . S
C1436 C1435 1.358 . S
C1436 H1439 0.930 . S
C1437 C1434 1.348 . S
C1437 C1435 1.356 . S
H1438 C1432 0.930 . S
H1439 C1436 0.930 . S
C1440 C1442 1.301 1_545 S
C1440 C1443 1.356 . S
C1440 O1470 1.325 . S
N1441 C1444 1.309 1_545 S
N1441 C1445 1.285 . S
C1442 C1440 1.301 1_565 S
C1442 C1444 1.353 . S
C1442 H1484 0.978 . S
C1443 C1440 1.356 . S
C1443 C1445 1.358 . S
C1443 H1485 0.930 . S
C1444 N1441 1.309 1_565 S
C1444 C1442 1.353 . S
C1444 H1486 0.930 . S
C1445 N1441 1.285 . S
C1445 C1443 1.358 . S
C1445 H1487 0.930 . S
C1446 C1447 1.348 . S
C1446 C1448 1.356 . S
C1446 O1471 1.325 . S
C1447 C1446 1.348 . S
C1447 C1449 1.353 . S
C1447 H1488 0.929 . S
C1448 C1446 1.356 . S
C1448 C1450 1.358 . S
C1448 H1489 0.930 . S
C1449 C1447 1.353 . S
C1449 N1451 1.314 . S
C1449 H1490 0.930 . S
C1450 C1448 1.358 . S
C1450 N1451 1.279 . S
C1450 H1491 0.930 . S
N1451 C1449 1.314 . S
N1451 C1450 1.279 . S
C1452 C1454 1.353 . S
C1452 N1455 1.314 . S
C1452 H1458 0.930 . S
C1453 N1455 1.279 . S
C1453 C1456 1.358 . S
C1453 H1459 0.930 . S
C1454 C1452 1.353 . S
C1454 C1457 1.348 . S
C1454 H1492 0.929 . S
N1455 Li1410 1.990 . S
N1455 C1452 1.314 . S
N1455 C1453 1.279 . S
C1456 C1453 1.358 . S
C1456 C1457 1.356 . S
C1456 H1493 0.930 . S
C1457 C1454 1.348 . S
C1457 C1456 1.356 . S
H1458 C1452 0.930 . S
H1459 C1453 0.930 . S
C1460 N1461 1.314 . S
C1460 C1462 1.353 . S
C1460 H1466 0.930 . S
N1461 Li1411 1.990 1_565 S
N1461 C1460 1.314 . S
N1461 C1464 1.279 . S
C1462 C1460 1.353 . S
C1462 C1465 1.348 . S
C1462 H1494 0.929 . S
C1463 C1464 1.358 . S
C1463 C1465 1.356 . S
C1463 H1495 0.930 . S
C1464 N1461 1.279 . S
C1464 C1463 1.358 . S
C1464 H1467 0.930 . S
C1465 C1462 1.348 . S
C1465 C1463 1.356 . S
H1466 C1460 0.930 . S
H1467 C1464 0.930 . S
O1468 Li1408 1.956 . S
O1468 Li1409 1.970 . S
O1468 Li1410 1.961 . S
O1468 C1412 1.325 . S
O1469 Li1408 1.970 . S
O1469 Li1409 1.956 . S
O1469 Li1411 1.961 . S
O1469 C1418 1.325 . S
O1470 Li1408 1.961 . S
O1470 Li1410 1.956 . S
O1470 Li1411 1.970 . S
O1470 C1440 1.325 . S
O1471 Li1409 1.961 . S
O1471 Li1410 1.970 . S
O1471 Li1411 1.956 . S
O1471 C1446 1.325 . S
H1472 C1414 0.929 . S
H1473 C1415 0.930 . S
H1474 C1416 0.930 . S
H1475 C1417 0.930 . S
H1476 C1419 0.930 . S
H1477 C1421 0.929 . S
H1478 C1422 0.930 . S
H1479 C1423 0.930 . S
H1480 C1426 0.930 . S
H1481 C1429 0.929 1_565 S
H1482 C1434 0.929 . S
H1483 C1435 0.930 . S
H1484 C1442 0.978 . S
H1485 C1443 0.930 . S
H1486 C1444 0.930 . S
H1487 C1445 0.930 . S
H1488 C1447 0.929 . S
H1489 C1448 0.930 . S
H1490 C1449 0.930 . S
H1491 C1450 0.930 . S
H1492 C1454 0.929 . S
H1493 C1456 0.930 . S
H1494 C1462 0.929 . S
H1495 C1463 0.930 . S
Li1496 N1513 1.990 . S
Li1496 O1556 1.956 . S
Li1496 O1557 1.970 . S
Li1496 O1558 1.961 . S
Li1497 N1521 1.990 . S
Li1497 O1556 1.970 . S
Li1497 O1557 1.956 . S
Li1497 O1559 1.961 . S
Li1498 N1543 1.990 1_655 S
Li1498 O1556 1.961 . S
Li1498 O1558 1.956 . S
Li1498 O1559 1.970 . S
Li1499 N1549 1.990 . S
Li1499 O1557 1.961 . S
Li1499 O1558 1.970 . S
Li1499 O1559 1.956 . S
C1500 C1502 1.348 . S
C1500 C1503 1.356 1_655 S
C1500 O1556 1.325 . S
N1501 C1504 1.314 . S
N1501 C1505 1.279 . S
C1502 C1500 1.348 . S
C1502 C1504 1.353 1_655 S
C1502 H1560 0.929 . S
C1503 C1500 1.356 1_455 S
C1503 C1505 1.358 . S
C1503 H1561 0.930 . S
C1504 N1501 1.314 . S
C1504 C1502 1.353 1_455 S
C1504 H1562 0.930 . S
C1505 N1501 1.279 . S
C1505 C1503 1.358 . S
C1505 H1563 0.930 . S
C1506 C1509 1.348 . S
C1506 C1510 1.356 . S
C1506 O1557 1.325 . S
C1507 N1508 1.279 . S
C1507 C1510 1.358 . S
C1507 H1564 0.930 . S
N1508 C1507 1.279 . S
N1508 C1511 1.314 . S
C1509 C1506 1.348 . S
C1509 C1511 1.353 . S
C1509 H1565 0.929 . S
C1510 C1506 1.356 . S
C1510 C1507 1.358 . S
C1510 H1566 0.930 . S
C1511 N1508 1.314 . S
C1511 C1509 1.353 . S
C1511 H1567 0.930 . S
C1512 N1513 1.314 . S
C1512 C1517 1.353 . S
C1512 H1518 0.930 . S
N1513 Li1496 1.990 . S
N1513 C1512 1.314 . S
N1513 C1515 1.279 . S
C1514 C1515 1.358 . S
C1514 C1516 1.356 . S
C1514 H1568 0.930 . S
C1515 N1513 1.279 . S
C1515 C1514 1.358 . S
C1515 H1519 0.930 . S
C1516 C1514 1.356 . S
C1516 C1517 1.348 . S
C1517 C1512 1.353 . S
C1517 C1516 1.348 . S
C1517 H1569 0.929 . S
H1518 C1512 0.930 . S
H1519 C1515 0.930 . S
C1520 N1521 1.314 . S
C1520 C1522 1.353 . S
C1520 H1526 0.930 . S
N1521 Li1497 1.990 . S
N1521 C1520 1.314 . S
N1521 C1524 1.279 . S
C1522 C1520 1.353 . S
C1522 C1525 1.348 . S
C1522 H1570 0.867 1_655 S
C1523 C1524 1.358 . S
C1523 C1525 1.356 . S
C1523 H1571 0.930 . S
C1524 N1521 1.279 . S
C1524 C1523 1.358 . S
C1524 H1527 0.930 . S
C1525 C1522 1.348 . S
C1525 C1523 1.356 . S
H1526 C1520 0.930 . S
H1527 C1524 0.930 . S
C1528 C1530 1.348 . S
C1528 C1531 1.356 . S
C1528 O1558 1.325 . S
N1529 C1532 1.314 . S
N1529 C1533 1.279 . S
C1530 C1528 1.348 . S
C1530 C1532 1.353 . S
C1530 H1572 0.929 . S
C1531 C1528 1.356 . S
C1531 C1533 1.358 . S
C1531 H1573 0.930 . S
C1532 N1529 1.314 . S
C1532 C1530 1.353 . S
C1532 H1574 0.930 . S
C1533 N1529 1.279 . S
C1533 C1531 1.358 . S
C1533 H1575 0.930 . S
C1534 C1535 1.350 1_655 S
C1534 C1536 1.356 . S
C1534 O1559 1.325 . S
C1535 C1534 1.350 1_455 S
C1535 C1537 1.350 . S
C1535 H1576 0.930 . S
C1536 C1534 1.356 . S
C1536 C1538 1.358 . S
C1536 H1577 0.930 . S
C1537 C1535 1.350 . S
C1537 N1539 1.326 1_455 S
C1537 H1578 0.930 . S
C1538 C1536 1.358 . S
C1538 N1539 1.323 . S
C1538 H1579 0.930 . S
N1539 C1537 1.326 1_655 S
N1539 C1538 1.323 . S
C1540 C1542 1.353 . S
C1540 N1543 1.314 . S
C1540 H1546 0.930 . S
C1541 N1543 1.279 . S
C1541 C1544 1.358 . S
C1541 H1547 0.930 . S
C1542 C1540 1.353 . S
C1542 C1545 1.348 . S
C1542 H1580 0.929 . S
N1543 Li1498 1.990 1_455 S
N1543 C1540 1.314 . S
N1543 C1541 1.279 . S
C1544 C1541 1.358 . S
C1544 C1545 1.356 . S
C1544 H1581 0.930 . S
C1545 C1542 1.348 . S
C1545 C1544 1.356 . S
H1546 C1540 0.930 . S
H1547 C1541 0.930 . S
C1548 N1549 1.314 . S
C1548 C1550 1.353 . S
C1548 H1554 0.930 . S
N1549 Li1499 1.990 . S
N1549 C1548 1.314 . S
N1549 C1552 1.279 . S
C1550 C1548 1.353 . S
C1550 C1553 1.348 . S
C1550 H1582 0.929 . S
C1551 C1552 1.358 . S
C1551 C1553 1.356 . S
C1551 H1583 0.930 . S
C1552 N1549 1.279 . S
C1552 C1551 1.358 . S
C1552 H1555 0.930 . S
C1553 C1550 1.348 . S
C1553 C1551 1.356 . S
H1554 C1548 0.930 . S
H1555 C1552 0.930 . S
O1556 Li1496 1.956 . S
O1556 Li1497 1.970 . S
O1556 Li1498 1.961 . S
O1556 C1500 1.325 . S
O1557 Li1496 1.970 . S
O1557 Li1497 1.956 . S
O1557 Li1499 1.961 . S
O1557 C1506 1.325 . S
O1558 Li1496 1.961 . S
O1558 Li1498 1.956 . S
O1558 Li1499 1.970 . S
O1558 C1528 1.325 . S
O1559 Li1497 1.961 . S
O1559 Li1498 1.970 . S
O1559 Li1499 1.956 . S
O1559 C1534 1.325 . S
H1560 C1502 0.929 . S
H1561 C1503 0.930 . S
H1562 C1504 0.930 . S
H1563 C1505 0.930 . S
H1564 C1507 0.930 . S
H1565 C1509 0.929 . S
H1566 C1510 0.930 . S
H1567 C1511 0.930 . S
H1568 C1514 0.930 . S
H1569 C1517 0.929 . S
H1570 C1522 0.867 1_455 S
H1571 C1523 0.930 . S
H1572 C1530 0.929 . S
H1573 C1531 0.930 . S
H1574 C1532 0.930 . S
H1575 C1533 0.930 . S
H1576 C1535 0.930 . S
H1577 C1536 0.930 . S
H1578 C1537 0.930 . S
H1579 C1538 0.930 . S
H1580 C1542 0.929 . S
H1581 C1544 0.930 . S
H1582 C1550 0.929 . S
H1583 C1551 0.930 . S
H1584 C1592 0.930 . S
H1585 C1595 0.930 . S
H1586 C1597 0.930 . S
H1587 C1598 0.970 . S
H1588 C1598 0.970 . S
H1589 C1600 0.930 . S
H1590 C1602 0.930 . S
H1591 C1604 0.930 . S
C1592 H1584 0.930 . S
C1592 C1593 1.382 . S
C1592 C1594 1.426 . S
C1593 C1592 1.382 . S
C1593 C1597 1.389 . S
C1594 C1592 1.426 . S
C1594 C1595 1.375 . S
C1594 C1598 1.532 . S
C1595 H1585 0.930 . S
C1595 C1594 1.375 . S
C1595 C1596 1.416 . S
C1596 C1595 1.416 . S
C1596 C1597 1.371 . S
C1597 H1586 0.930 . S
C1597 C1593 1.389 . S
C1597 C1596 1.371 . S
C1598 H1587 0.970 . S
C1598 H1588 0.970 . S
C1598 C1594 1.532 . S
C1598 C1599 1.499 . S
C1599 C1598 1.499 . S
C1599 C1600 1.370 . S
C1599 C1604 1.415 . S
C1600 H1589 0.930 . S
C1600 C1599 1.370 . S
C1600 C1601 1.407 . S
C1601 C1600 1.407 . S
C1601 C1602 1.365 . S
C1602 H1590 0.930 . S
C1602 C1601 1.365 . S
C1602 C1603 1.393 . S
C1603 C1602 1.393 . S
C1603 C1604 1.387 . S
C1604 H1591 0.930 . S
C1604 C1599 1.415 . S
C1604 C1603 1.387 . S
H1605 C1613 0.930 . S
H1606 C1616 0.930 . S
H1607 C1618 0.930 . S
H1608 C1619 0.970 . S
H1609 C1619 0.970 . S
H1610 C1621 0.930 . S
H1611 C1623 0.930 . S
H1612 C1625 0.930 . S
C1613 H1605 0.930 . S
C1613 C1614 1.382 . S
C1613 C1615 1.426 . S
C1614 C1613 1.382 . S
C1614 C1618 1.389 . S
C1615 C1613 1.426 . S
C1615 C1616 1.375 . S
C1615 C1619 1.532 . S
C1616 H1606 0.930 . S
C1616 C1615 1.375 . S
C1616 C1617 1.416 . S
C1617 C1616 1.416 . S
C1617 C1618 1.371 . S
C1618 H1607 0.930 . S
C1618 C1614 1.389 . S
C1618 C1617 1.371 . S
C1619 H1608 0.970 . S
C1619 H1609 0.970 . S
C1619 C1615 1.532 . S
C1619 C1620 1.499 . S
C1620 C1619 1.499 . S
C1620 C1621 1.370 . S
C1620 C1625 1.415 . S
C1621 H1610 0.930 . S
C1621 C1620 1.370 . S
C1621 C1622 1.407 . S
C1622 C1621 1.407 . S
C1622 C1623 1.365 . S
C1623 H1611 0.930 . S
C1623 C1622 1.365 . S
C1623 C1624 1.393 . S
C1624 C1623 1.393 . S
C1624 C1625 1.387 . S
C1625 H1612 0.930 . S
C1625 C1620 1.415 . S
C1625 C1624 1.387 . S
H1626 C1634 0.930 . S
H1627 C1637 0.930 . S
H1628 C1639 0.930 . S
H1629 C1640 0.970 . S
H1630 C1640 0.970 . S
H1631 C1642 0.930 . S
H1632 C1644 0.930 . S
H1633 C1646 0.930 . S
C1634 H1626 0.930 . S
C1634 C1635 1.382 . S
C1634 C1636 1.426 . S
C1635 C1634 1.382 . S
C1635 C1639 1.389 . S
C1636 C1634 1.426 . S
C1636 C1637 1.375 . S
C1636 C1640 1.532 . S
C1637 H1627 0.930 . S
C1637 C1636 1.375 . S
C1637 C1638 1.416 . S
C1638 C1637 1.416 . S
C1638 C1639 1.371 . S
C1639 H1628 0.930 . S
C1639 C1635 1.389 . S
C1639 C1638 1.371 . S
C1640 H1629 0.970 . S
C1640 H1630 0.970 . S
C1640 C1636 1.532 . S
C1640 C1641 1.499 . S
C1641 C1640 1.499 . S
C1641 C1642 1.370 . S
C1641 C1646 1.415 . S
C1642 H1631 0.930 . S
C1642 C1641 1.370 . S
C1642 C1643 1.407 . S
C1643 C1642 1.407 . S
C1643 C1644 1.365 . S
C1644 H1632 0.930 . S
C1644 C1643 1.365 . S
C1644 C1645 1.393 . S
C1645 C1644 1.393 . S
C1645 C1646 1.387 . S
C1646 H1633 0.930 . S
C1646 C1641 1.415 . S
C1646 C1645 1.387 . S
H1647 C1655 0.930 . S
H1648 C1658 0.930 . S
H1649 C1660 0.930 . S
H1650 C1661 0.970 . S
H1651 C1661 0.970 . S
H1652 C1663 0.930 . S
H1653 C1665 0.930 . S
H1654 C1667 0.930 . S
C1655 H1647 0.930 . S
C1655 C1656 1.382 . S
C1655 C1657 1.426 . S
C1656 C1655 1.382 . S
C1656 C1660 1.389 . S
C1657 C1655 1.426 . S
C1657 C1658 1.375 . S
C1657 C1661 1.532 . S
C1658 H1648 0.930 . S
C1658 C1657 1.375 . S
C1658 C1659 1.416 . S
C1659 C1658 1.416 . S
C1659 C1660 1.371 . S
C1660 H1649 0.930 . S
C1660 C1656 1.389 . S
C1660 C1659 1.371 . S
C1661 H1650 0.970 . S
C1661 H1651 0.970 . S
C1661 C1657 1.532 . S
C1661 C1662 1.499 . S
C1662 C1661 1.499 . S
C1662 C1663 1.370 . S
C1662 C1667 1.415 . S
C1663 H1652 0.930 . S
C1663 C1662 1.370 . S
C1663 C1664 1.407 . S
C1664 C1663 1.407 . S
C1664 C1665 1.365 . S
C1665 H1653 0.930 . S
C1665 C1664 1.365 . S
C1665 C1666 1.393 . S
C1666 C1665 1.393 . S
C1666 C1667 1.387 . S
C1667 H1654 0.930 . S
C1667 C1662 1.415 . S
C1667 C1666 1.387 . S
H1668 C1676 0.930 . S
H1669 C1679 0.930 . S
H1670 C1681 0.930 . S
H1671 C1682 0.970 . S
H1672 C1682 0.970 . S
H1673 C1684 0.930 . S
H1674 C1686 0.930 . S
H1675 C1688 0.930 . S
C1676 H1668 0.930 . S
C1676 C1677 1.382 . S
C1676 C1678 1.426 . S
C1677 C1676 1.382 . S
C1677 C1681 1.389 . S
C1678 C1676 1.426 . S
C1678 C1679 1.375 . S
C1678 C1682 1.532 . S
C1679 H1669 0.930 . S
C1679 C1678 1.375 . S
C1679 C1680 1.416 . S
C1680 C1679 1.416 . S
C1680 C1681 1.371 . S
C1681 H1670 0.930 . S
C1681 C1677 1.389 . S
C1681 C1680 1.371 . S
C1682 H1671 0.970 . S
C1682 H1672 0.970 . S
C1682 C1678 1.532 . S
C1682 C1683 1.499 . S
C1683 C1682 1.499 . S
C1683 C1684 1.370 . S
C1683 C1688 1.415 . S
C1684 H1673 0.930 . S
C1684 C1683 1.370 . S
C1684 C1685 1.407 . S
C1685 C1684 1.407 . S
C1685 C1686 1.365 . S
C1686 H1674 0.930 . S
C1686 C1685 1.365 . S
C1686 C1687 1.393 . S
C1687 C1686 1.393 . S
C1687 C1688 1.387 . S
C1688 H1675 0.930 . S
C1688 C1683 1.415 . S
C1688 C1687 1.387 . S
H1689 C1697 0.930 . S
H1690 C1700 0.930 . S
H1691 C1702 0.930 . S
H1692 C1703 0.970 . S
H1693 C1703 0.970 . S
H1694 C1705 0.930 . S
H1695 C1707 0.930 . S
H1696 C1709 0.930 . S
C1697 H1689 0.930 . S
C1697 C1698 1.382 . S
C1697 C1699 1.426 . S
C1698 C1697 1.382 . S
C1698 C1702 1.389 . S
C1699 C1697 1.426 . S
C1699 C1700 1.375 . S
C1699 C1703 1.532 . S
C1700 H1690 0.930 . S
C1700 C1699 1.375 . S
C1700 C1701 1.416 . S
C1701 C1700 1.416 . S
C1701 C1702 1.371 . S
C1702 H1691 0.930 . S
C1702 C1698 1.389 . S
C1702 C1701 1.371 . S
C1703 H1692 0.970 . S
C1703 H1693 0.970 . S
C1703 C1699 1.532 . S
C1703 C1704 1.499 . S
C1704 C1703 1.499 . S
C1704 C1705 1.370 . S
C1704 C1709 1.415 . S
C1705 H1694 0.930 . S
C1705 C1704 1.370 . S
C1705 C1706 1.407 . S
C1706 C1705 1.407 . S
C1706 C1707 1.365 . S
C1707 H1695 0.930 . S
C1707 C1706 1.365 . S
C1707 C1708 1.393 . S
C1708 C1707 1.393 . S
C1708 C1709 1.387 . S
C1709 H1696 0.930 . S
C1709 C1704 1.415 . S
C1709 C1708 1.387 . S
H1710 C1718 0.930 . S
H1711 C1721 0.930 . S
H1712 C1723 0.930 . S
H1713 C1724 0.970 . S
H1714 C1724 0.970 . S
H1715 C1726 0.930 . S
H1716 C1728 0.930 . S
H1717 C1730 0.930 . S
C1718 H1710 0.930 . S
C1718 C1719 1.382 . S
C1718 C1720 1.426 . S
C1719 C1718 1.382 . S
C1719 C1723 1.389 . S
C1720 C1718 1.426 . S
C1720 C1721 1.375 . S
C1720 C1724 1.532 . S
C1721 H1711 0.930 . S
C1721 C1720 1.375 . S
C1721 C1722 1.416 . S
C1722 C1721 1.416 . S
C1722 C1723 1.371 . S
C1723 H1712 0.930 . S
C1723 C1719 1.389 . S
C1723 C1722 1.371 . S
C1724 H1713 0.970 . S
C1724 H1714 0.970 . S
C1724 C1720 1.532 . S
C1724 C1725 1.499 . S
C1725 C1724 1.499 . S
C1725 C1726 1.370 . S
C1725 C1730 1.415 . S
C1726 H1715 0.930 . S
C1726 C1725 1.370 . S
C1726 C1727 1.407 . S
C1727 C1726 1.407 . S
C1727 C1728 1.365 . S
C1728 H1716 0.930 . S
C1728 C1727 1.365 . S
C1728 C1729 1.393 . S
C1729 C1728 1.393 . S
C1729 C1730 1.387 . S
C1730 H1717 0.930 . S
C1730 C1725 1.415 . S
C1730 C1729 1.387 . S
H1731 C1739 0.930 . S
H1732 C1742 0.930 . S
H1733 C1744 0.930 . S
H1734 C1745 0.970 . S
H1735 C1745 0.970 . S
H1736 C1747 0.930 . S
H1737 C1749 0.930 . S
H1738 C1751 0.930 . S
C1739 H1731 0.930 . S
C1739 C1740 1.382 . S
C1739 C1741 1.426 . S
C1740 C1739 1.382 . S
C1740 C1744 1.389 . S
C1741 C1739 1.426 . S
C1741 C1742 1.375 . S
C1741 C1745 1.532 . S
C1742 H1732 0.930 . S
C1742 C1741 1.375 . S
C1742 C1743 1.416 . S
C1743 C1742 1.416 . S
C1743 C1744 1.371 . S
C1744 H1733 0.930 . S
C1744 C1740 1.389 . S
C1744 C1743 1.371 . S
C1745 H1734 0.970 . S
C1745 H1735 0.970 . S
C1745 C1741 1.532 . S
C1745 C1746 1.499 . S
C1746 C1745 1.499 . S
C1746 C1747 1.370 . S
C1746 C1751 1.415 . S
C1747 H1736 0.930 . S
C1747 C1746 1.370 . S
C1747 C1748 1.407 . S
C1748 C1747 1.407 . S
C1748 C1749 1.365 . S
C1749 H1737 0.930 . S
C1749 C1748 1.365 . S
C1749 C1750 1.393 . S
C1750 C1749 1.393 . S
C1750 C1751 1.387 . S
C1751 H1738 0.930 . S
C1751 C1746 1.415 . S
C1751 C1750 1.387 . S
H1752 C1760 0.930 . S
H1753 C1763 0.930 . S
H1754 C1765 0.930 . S
H1755 C1766 0.970 . S
H1756 C1766 0.970 . S
H1757 C1768 0.930 . S
H1758 C1770 0.930 . S
H1759 C1772 0.930 . S
C1760 H1752 0.930 . S
C1760 C1761 1.382 . S
C1760 C1762 1.426 . S
C1761 C1760 1.382 . S
C1761 C1765 1.389 . S
C1762 C1760 1.426 . S
C1762 C1763 1.375 . S
C1762 C1766 1.532 . S
C1763 H1753 0.930 . S
C1763 C1762 1.375 . S
C1763 C1764 1.416 . S
C1764 C1763 1.416 . S
C1764 C1765 1.371 . S
C1765 H1754 0.930 . S
C1765 C1761 1.389 . S
C1765 C1764 1.371 . S
C1766 H1755 0.970 . S
C1766 H1756 0.970 . S
C1766 C1762 1.532 . S
C1766 C1767 1.499 . S
C1767 C1766 1.499 . S
C1767 C1768 1.370 . S
C1767 C1772 1.415 . S
C1768 H1757 0.930 . S
C1768 C1767 1.370 . S
C1768 C1769 1.407 . S
C1769 C1768 1.407 . S
C1769 C1770 1.365 . S
C1770 H1758 0.930 . S
C1770 C1769 1.365 . S
C1770 C1771 1.393 . S
C1771 C1770 1.393 . S
C1771 C1772 1.387 . S
C1772 H1759 0.930 . S
C1772 C1767 1.415 . S
C1772 C1771 1.387 . S
H1773 C1781 0.930 . S
H1774 C1784 0.930 . S
H1775 C1786 0.930 . S
H1776 C1787 0.970 . S
H1777 C1787 0.970 . S
H1778 C1789 0.930 . S
H1779 C1791 0.930 . S
H1780 C1793 0.930 . S
C1781 H1773 0.930 . S
C1781 C1782 1.382 . S
C1781 C1783 1.426 . S
C1782 C1781 1.382 . S
C1782 C1786 1.389 1_455 S
C1783 C1781 1.426 . S
C1783 C1784 1.375 . S
C1783 C1787 1.532 . S
C1784 H1774 0.930 . S
C1784 C1783 1.375 . S
C1784 C1785 1.416 . S
C1785 C1784 1.416 . S
C1785 C1786 1.371 1_455 S
C1786 H1775 0.930 . S
C1786 C1782 1.389 1_655 S
C1786 C1785 1.371 1_655 S
C1787 H1776 0.970 . S
C1787 H1777 0.970 . S
C1787 C1783 1.532 . S
C1787 C1788 1.499 . S
C1788 C1787 1.499 . S
C1788 C1789 1.370 . S
C1788 C1793 1.415 . S
C1789 H1778 0.930 . S
C1789 C1788 1.370 . S
C1789 C1790 1.409 . S
C1790 C1789 1.409 . S
C1790 C1791 1.368 1_455 S
C1791 H1779 0.930 . S
C1791 C1790 1.368 1_655 S
C1791 C1792 1.393 1_655 S
C1792 C1791 1.393 1_455 S
C1792 C1793 1.387 . S
C1793 H1780 0.930 . S
C1793 C1788 1.415 . S
C1793 C1792 1.387 . S
H1794 C1802 0.930 . S
H1795 C1805 0.930 . S
H1796 C1807 0.930 . S
H1797 C1808 0.970 . S
H1798 C1808 0.970 . S
H1799 C1810 0.930 . S
H1800 C1812 0.930 . S
H1801 C1814 0.930 . S
C1802 H1794 0.930 . S
C1802 C1803 1.382 . S
C1802 C1804 1.426 . S
C1803 C1802 1.382 . S
C1803 C1807 1.389 . S
C1804 C1802 1.426 . S
C1804 C1805 1.375 . S
C1804 C1808 1.532 . S
C1805 H1795 0.930 . S
C1805 C1804 1.375 . S
C1805 C1806 1.416 . S
C1806 C1805 1.416 . S
C1806 C1807 1.371 . S
C1807 H1796 0.930 . S
C1807 C1803 1.389 . S
C1807 C1806 1.371 . S
C1808 H1797 0.970 . S
C1808 H1798 0.970 . S
C1808 C1804 1.532 . S
C1808 C1809 1.499 . S
C1809 C1808 1.499 . S
C1809 C1810 1.370 . S
C1809 C1814 1.415 . S
C1810 H1799 0.930 . S
C1810 C1809 1.370 . S
C1810 C1811 1.407 . S
C1811 C1810 1.407 . S
C1811 C1812 1.365 . S
C1812 H1800 0.930 . S
C1812 C1811 1.365 . S
C1812 C1813 1.393 . S
C1813 C1812 1.393 . S
C1813 C1814 1.387 . S
C1814 H1801 0.930 . S
C1814 C1809 1.415 . S
C1814 C1813 1.387 . S
H1815 C1823 0.930 . S
H1816 C1826 0.930 . S
H1817 C1828 0.941 . S
H1818 C1829 0.970 . S
H1819 C1829 0.970 . S
H1820 C1831 0.930 . S
H1821 C1833 0.930 . S
H1822 C1835 0.930 . S
C1823 H1815 0.930 . S
C1823 C1824 1.382 . S
C1823 C1825 1.426 . S
C1824 C1823 1.382 . S
C1824 C1828 1.393 1_565 S
C1825 C1823 1.426 . S
C1825 C1826 1.375 . S
C1825 C1829 1.532 . S
C1826 H1816 0.930 . S
C1826 C1825 1.375 . S
C1826 C1827 1.416 . S
C1827 C1826 1.416 . S
C1827 C1828 1.371 1_565 S
C1828 H1817 0.941 . S
C1828 C1824 1.393 1_545 S
C1828 C1827 1.371 1_545 S
C1829 H1818 0.970 . S
C1829 H1819 0.970 . S
C1829 C1825 1.532 . S
C1829 C1830 1.499 . S
C1830 C1829 1.499 . S
C1830 C1831 1.370 . S
C1830 C1835 1.415 . S
C1831 H1820 0.930 . S
C1831 C1830 1.370 . S
C1831 C1832 1.427 . S
C1832 C1831 1.427 . S
C1832 C1833 1.357 1_565 S
C1833 H1821 0.930 . S
C1833 C1832 1.357 1_545 S
C1833 C1834 1.393 1_545 S
C1834 C1833 1.393 1_565 S
C1834 C1835 1.387 . S
C1835 H1822 0.930 . S
C1835 C1830 1.415 . S
C1835 C1834 1.387 . S
H1836 C1844 0.930 . S
H1837 C1847 0.930 . S
H1838 C1849 0.930 . S
H1839 C1850 0.970 . S
H1840 C1850 0.970 . S
H1841 C1852 0.930 . S
H1842 C1854 0.930 . S
H1843 C1856 0.930 . S
C1844 H1836 0.930 . S
C1844 C1845 1.382 . S
C1844 C1846 1.426 . S
C1845 C1844 1.382 . S
C1845 C1849 1.389 1_565 S
C1846 C1844 1.426 . S
C1846 C1847 1.375 . S
C1846 C1850 1.532 . S
C1847 H1837 0.930 . S
C1847 C1846 1.375 . S
C1847 C1848 1.470 . S
C1848 C1847 1.470 . S
C1848 C1849 1.351 1_565 S
C1849 H1838 0.930 . S
C1849 C1845 1.389 1_545 S
C1849 C1848 1.351 1_545 S
C1850 H1839 0.970 . S
C1850 H1840 0.970 . S
C1850 C1846 1.532 . S
C1850 C1851 1.499 . S
C1851 C1850 1.499 . S
C1851 C1852 1.370 . S
C1851 C1856 1.415 . S
C1852 H1841 0.930 . S
C1852 C1851 1.370 . S
C1852 C1853 1.407 . S
C1853 C1852 1.407 . S
C1853 C1854 1.365 1_565 S
C1854 H1842 0.930 . S
C1854 C1853 1.365 1_545 S
C1854 C1855 1.393 1_545 S
C1855 C1854 1.393 1_565 S
C1855 C1856 1.387 . S
C1856 H1843 0.930 . S
C1856 C1851 1.415 . S
C1856 C1855 1.387 . S
H1857 C1865 0.930 . S
H1858 C1868 0.930 . S
H1859 C1870 0.930 . S
H1860 C1871 0.970 . S
H1861 C1871 0.970 . S
H1862 C1873 0.930 . S
H1863 C1875 0.930 . S
H1864 C1877 0.930 . S
C1865 H1857 0.930 . S
C1865 C1866 1.382 . S
C1865 C1867 1.426 . S
C1866 C1865 1.382 . S
C1866 C1870 1.389 1_455 S
C1867 C1865 1.426 . S
C1867 C1868 1.375 . S
C1867 C1871 1.532 . S
C1868 H1858 0.930 . S
C1868 C1867 1.375 . S
C1868 C1869 1.420 . S
C1869 C1868 1.420 . S
C1869 C1870 1.379 1_455 S
C1870 H1859 0.930 . S
C1870 C1866 1.389 1_655 S
C1870 C1869 1.379 1_655 S
C1871 H1860 0.970 . S
C1871 H1861 0.970 . S
C1871 C1867 1.532 . S
C1871 C1872 1.499 . S
C1872 C1871 1.499 . S
C1872 C1873 1.370 . S
C1872 C1877 1.415 . S
C1873 H1862 0.930 . S
C1873 C1872 1.370 . S
C1873 C1874 1.407 . S
C1874 C1873 1.407 . S
C1874 C1875 1.365 1_455 S
C1875 H1863 0.930 . S
C1875 C1874 1.365 1_655 S
C1875 C1876 1.393 1_655 S
C1876 C1875 1.393 1_455 S
C1876 C1877 1.387 . S
C1877 H1864 0.930 . S
C1877 C1872 1.415 . S
C1877 C1876 1.387 . S
H1878 C1886 0.930 . S
H1879 C1889 0.930 . S
H1880 C1891 0.930 . S
H1881 C1892 0.970 . S
H1882 C1892 0.970 . S
H1883 C1894 0.930 . S
H1884 C1896 0.930 . S
H1885 C1898 0.930 . S
C1886 H1878 0.930 . S
C1886 C1887 1.382 . S
C1886 C1888 1.426 . S
C1887 C1886 1.382 . S
C1887 C1891 1.389 . S
C1888 C1886 1.426 . S
C1888 C1889 1.375 . S
C1888 C1892 1.532 . S
C1889 H1879 0.930 . S
C1889 C1888 1.375 . S
C1889 C1890 1.416 . S
C1890 C1889 1.416 . S
C1890 C1891 1.371 . S
C1891 H1880 0.930 . S
C1891 C1887 1.389 . S
C1891 C1890 1.371 . S
C1892 H1881 0.970 . S
C1892 H1882 0.970 . S
C1892 C1888 1.532 . S
C1892 C1893 1.499 . S
C1893 C1892 1.499 . S
C1893 C1894 1.370 . S
C1893 C1898 1.415 . S
C1894 H1883 0.930 . S
C1894 C1893 1.370 . S
C1894 C1895 1.407 . S
C1895 C1894 1.407 . S
C1895 C1896 1.365 . S
C1896 H1884 0.930 . S
C1896 C1895 1.365 . S
C1896 C1897 1.393 . S
C1897 C1896 1.393 . S
C1897 C1898 1.387 . S
C1898 H1885 0.930 . S
C1898 C1893 1.415 . S
C1898 C1897 1.387 . S
H1899 C1907 0.930 . S
H1900 C1910 0.930 . S
H1901 C1912 0.930 . S
H1902 C1913 0.970 . S
H1903 C1913 0.970 . S
H1904 C1915 0.930 . S
H1905 C1917 0.930 . S
H1906 C1919 0.930 . S
C1907 H1899 0.930 . S
C1907 C1908 1.382 . S
C1907 C1909 1.426 . S
C1908 C1907 1.382 . S
C1908 C1912 1.389 . S
C1909 C1907 1.426 . S
C1909 C1910 1.375 . S
C1909 C1913 1.532 . S
C1910 H1900 0.930 . S
C1910 C1909 1.375 . S
C1910 C1911 1.416 . S
C1911 C1910 1.416 . S
C1911 C1912 1.371 . S
C1912 H1901 0.930 . S
C1912 C1908 1.389 . S
C1912 C1911 1.371 . S
C1913 H1902 0.970 . S
C1913 H1903 0.970 . S
C1913 C1909 1.532 . S
C1913 C1914 1.499 . S
C1914 C1913 1.499 . S
C1914 C1915 1.370 . S
C1914 C1919 1.415 . S
C1915 H1904 0.930 . S
C1915 C1914 1.370 . S
C1915 C1916 1.407 . S
C1916 C1915 1.407 . S
C1916 C1917 1.365 . S
C1917 H1905 0.930 . S
C1917 C1916 1.365 . S
C1917 C1918 1.393 . S
C1918 C1917 1.393 . S
C1918 C1919 1.387 . S
C1919 H1906 0.930 . S
C1919 C1914 1.415 . S
C1919 C1918 1.387 . S
H1920 C1928 0.930 . S
H1921 C1931 0.930 . S
H1922 C1933 0.930 . S
H1923 C1934 0.970 . S
H1924 C1934 0.970 . S
H1925 C1936 0.930 . S
H1926 C1938 0.930 . S
H1927 C1940 0.930 . S
C1928 H1920 0.930 . S
C1928 C1929 1.382 . S
C1928 C1930 1.426 . S
C1929 C1928 1.382 . S
C1929 C1933 1.389 . S
C1930 C1928 1.426 . S
C1930 C1931 1.375 . S
C1930 C1934 1.532 . S
C1931 H1921 0.930 . S
C1931 C1930 1.375 . S
C1931 C1932 1.416 . S
C1932 C1931 1.416 . S
C1932 C1933 1.371 . S
C1933 H1922 0.930 . S
C1933 C1929 1.389 . S
C1933 C1932 1.371 . S
C1934 H1923 0.970 . S
C1934 H1924 0.970 . S
C1934 C1930 1.532 . S
C1934 C1935 1.499 . S
C1935 C1934 1.499 . S
C1935 C1936 1.370 . S
C1935 C1940 1.415 . S
C1936 H1925 0.930 . S
C1936 C1935 1.370 . S
C1936 C1937 1.407 . S
C1937 C1936 1.407 . S
C1937 C1938 1.365 . S
C1938 H1926 0.930 . S
C1938 C1937 1.365 . S
C1938 C1939 1.393 . S
C1939 C1938 1.393 . S
C1939 C1940 1.387 . S
C1940 H1927 0.930 . S
C1940 C1935 1.415 . S
C1940 C1939 1.387 . S
H1941 C1949 0.930 . S
H1942 C1952 0.930 . S
H1943 C1954 0.930 . S
H1944 C1955 0.970 . S
H1945 C1955 0.970 . S
H1946 C1957 0.930 . S
H1947 C1959 0.930 . S
H1948 C1961 0.930 . S
C1949 H1941 0.930 . S
C1949 C1950 1.382 . S
C1949 C1951 1.426 . S
C1950 C1949 1.382 . S
C1950 C1954 1.389 . S
C1951 C1949 1.426 . S
C1951 C1952 1.375 . S
C1951 C1955 1.532 . S
C1952 H1942 0.930 . S
C1952 C1951 1.375 . S
C1952 C1953 1.416 . S
C1953 C1952 1.416 . S
C1953 C1954 1.371 . S
C1954 H1943 0.930 . S
C1954 C1950 1.389 . S
C1954 C1953 1.371 . S
C1955 H1944 0.970 . S
C1955 H1945 0.970 . S
C1955 C1951 1.532 . S
C1955 C1956 1.499 . S
C1956 C1955 1.499 . S
C1956 C1957 1.370 . S
C1956 C1961 1.415 . S
C1957 H1946 0.930 . S
C1957 C1956 1.370 . S
C1957 C1958 1.407 . S
C1958 C1957 1.407 . S
C1958 C1959 1.365 . S
C1959 H1947 0.930 . S
C1959 C1958 1.365 . S
C1959 C1960 1.393 . S
C1960 C1959 1.393 . S
C1960 C1961 1.387 . S
C1961 H1948 0.930 . S
C1961 C1956 1.415 . S
C1961 C1960 1.387 . S
C1962 C1963 1.349 . S
C1962 C1964 1.327 . S
C1962 H1987 0.950 . S
C1963 C1962 1.349 . S
C1963 C1979 1.349 . S
C1964 C1962 1.327 . S
C1964 C1983 1.429 . S
C1964 H1988 0.950 . S
C1965 C1982 1.574 . S
C1965 C1984 1.368 . S
C1965 H1989 0.949 . S
H1966 C1970 0.949 . S
C1967 C1968 1.349 . S
C1967 C1969 1.327 . S
C1967 H1990 0.950 . S
C1968 C1967 1.349 . S
C1968 C1980 1.366 . S
C1969 C1967 1.327 . S
C1969 C1985 1.429 . S
C1969 H1991 0.950 . S
C1970 H1966 0.949 . S
C1970 C1978 1.574 . S
C1970 C1986 1.368 . S
H1971 C1979 0.950 . S
H1972 C1977 0.950 . S
H1973 C1978 0.949 . S
H1974 C1980 0.981 1_455 S
H1975 C1981 0.951 . S
H1976 C1982 0.949 . S
C1977 H1972 0.950 . S
C1977 C1979 1.327 . S
C1977 C1983 1.429 . S
C1978 C1970 1.574 . S
C1978 H1973 0.949 . S
C1978 C1984 1.368 . S
C1979 C1963 1.349 . S
C1979 H1971 0.950 . S
C1979 C1977 1.327 . S
C1980 C1968 1.366 . S
C1980 H1974 0.981 1_655 S
C1980 C1981 1.293 . S
C1981 H1975 0.951 . S
C1981 C1980 1.293 . S
C1981 C1985 1.429 . S
C1982 C1965 1.574 . S
C1982 H1976 0.949 . S
C1982 C1986 1.368 . S
C1983 C1964 1.429 . S
C1983 C1977 1.429 . S
C1983 C1984 1.523 . S
C1984 C1965 1.368 . S
C1984 C1978 1.368 . S
C1984 C1983 1.523 . S
C1985 C1969 1.429 . S
C1985 C1981 1.429 . S
C1985 C1986 1.523 . S
C1986 C1970 1.368 . S
C1986 C1982 1.368 . S
C1986 C1985 1.523 . S
H1987 C1962 0.950 . S
H1988 C1964 0.950 . S
H1989 C1965 0.949 . S
H1990 C1967 0.950 . S
H1991 C1969 0.950 . S
C1992 C1993 1.349 . S
C1992 C1994 1.327 . S
C1992 H2017 0.950 . S
C1993 C1992 1.349 . S
C1993 C2009 1.349 . S
C1994 C1992 1.327 . S
C1994 C2013 1.429 . S
C1994 H2018 0.950 . S
C1995 C2012 1.574 . S
C1995 C2014 1.368 . S
C1995 H2019 0.949 . S
H1996 C2000 0.949 . S
C1997 C1998 1.349 . S
C1997 C1999 1.327 . S
C1997 H2020 0.950 . S
C1998 C1997 1.349 . S
C1998 C2010 1.349 . S
C1999 C1997 1.327 . S
C1999 C2015 1.429 . S
C1999 H2021 0.950 . S
C2000 H1996 0.949 . S
C2000 C2008 1.574 . S
C2000 C2016 1.368 . S
H2001 C2009 0.950 . S
H2002 C2007 0.950 . S
H2003 C2008 0.949 . S
H2004 C2010 0.950 . S
H2005 C2011 0.950 . S
H2006 C2012 0.949 . S
C2007 H2002 0.950 . S
C2007 C2009 1.327 . S
C2007 C2013 1.429 . S
C2008 C2000 1.574 . S
C2008 H2003 0.949 . S
C2008 C2014 1.368 . S
C2009 C1993 1.349 . S
C2009 H2001 0.950 . S
C2009 C2007 1.327 . S
C2010 C1998 1.349 . S
C2010 H2004 0.950 . S
C2010 C2011 1.327 . S
C2011 H2005 0.950 . S
C2011 C2010 1.327 . S
C2011 C2015 1.429 . S
C2012 C1995 1.574 . S
C2012 H2006 0.949 . S
C2012 C2016 1.368 . S
C2013 C1994 1.429 . S
C2013 C2007 1.429 . S
C2013 C2014 1.523 . S
C2014 C1995 1.368 . S
C2014 C2008 1.368 . S
C2014 C2013 1.523 . S
C2015 C1999 1.429 . S
C2015 C2011 1.429 . S
C2015 C2016 1.523 . S
C2016 C2000 1.368 . S
C2016 C2012 1.368 . S
C2016 C2015 1.523 . S
H2017 C1992 0.950 . S
H2018 C1994 0.950 . S
H2019 C1995 0.949 . S
H2020 C1997 0.950 . S
H2021 C1999 0.950 . S
C2022 C2023 1.349 . S
C2022 C2024 1.327 . S
C2022 H2047 0.950 . S
C2023 C2022 1.349 . S
C2023 C2039 1.349 . S
C2024 C2022 1.327 . S
C2024 C2043 1.429 . S
C2024 H2048 0.950 . S
C2025 C2042 1.574 . S
C2025 C2044 1.368 1_565 S
C2025 H2049 0.949 . S
H2026 C2030 0.949 . S
C2027 C2028 1.349 1_565 S
C2027 C2029 1.327 . S
C2027 H2050 0.950 . S
C2028 C2027 1.349 1_545 S
C2028 C2040 1.349 . S
C2029 C2027 1.327 . S
C2029 C2045 1.429 1_565 S
C2029 H2051 0.950 . S
C2030 H2026 0.949 . S
C2030 C2038 1.574 . S
C2030 C2046 1.368 . S
H2031 C2039 0.950 1_565 S
H2032 C2037 0.950 1_565 S
H2033 C2038 0.949 . S
H2034 C2040 0.950 . S
H2035 C2041 0.950 . S
H2036 C2042 0.949 . S
C2037 H2032 0.950 1_545 S
C2037 C2039 1.327 . S
C2037 C2043 1.429 . S
C2038 C2030 1.574 . S
C2038 H2033 0.949 . S
C2038 C2044 1.368 . S
C2039 C2023 1.349 . S
C2039 H2031 0.950 1_545 S
C2039 C2037 1.327 . S
C2040 C2028 1.349 . S
C2040 H2034 0.950 . S
C2040 C2041 1.327 . S
C2041 H2035 0.950 . S
C2041 C2040 1.327 . S
C2041 C2045 1.429 . S
C2042 C2025 1.574 . S
C2042 H2036 0.949 . S
C2042 C2046 1.368 1_565 S
C2043 C2024 1.429 . S
C2043 C2037 1.429 . S
C2043 C2044 1.523 . S
C2044 C2025 1.368 1_545 S
C2044 C2038 1.368 . S
C2044 C2043 1.523 . S
C2045 C2029 1.429 1_545 S
C2045 C2041 1.429 . S
C2045 C2046 1.523 . S
C2046 C2030 1.368 . S
C2046 C2042 1.368 1_545 S
C2046 C2045 1.523 . S
H2047 C2022 0.950 . S
H2048 C2024 0.950 . S
H2049 C2025 0.949 . S
H2050 C2027 0.950 . S
H2051 C2029 0.950 . S
C2052 C2053 1.349 . S
C2052 C2054 1.327 . S
C2052 H2077 0.950 . S
C2053 C2052 1.349 . S
C2053 C2069 1.323 1_565 S
C2054 C2052 1.327 . S
C2054 C2073 1.429 . S
C2054 H2078 0.950 . S
C2055 C2072 1.574 . S
C2055 C2074 1.368 1_545 S
C2055 H2079 0.949 . S
H2056 C2060 0.949 . S
C2057 C2058 1.349 1_545 S
C2057 C2059 1.327 . S
C2057 H2080 0.950 . S
C2058 C2057 1.349 1_565 S
C2058 C2070 1.349 . S
C2059 C2057 1.327 . S
C2059 C2075 1.429 1_545 S
C2059 H2081 0.950 . S
C2060 H2056 0.949 . S
C2060 C2068 1.574 . S
C2060 C2076 1.368 . S
H2061 C2069 0.992 . S
H2062 C2067 0.950 . S
H2063 C2068 0.949 . S
H2064 C2070 0.950 . S
H2065 C2071 0.950 . S
H2066 C2072 0.949 . S
C2067 H2062 0.950 . S
C2067 C2069 1.313 . S
C2067 C2073 1.429 1_545 S
C2068 C2060 1.574 . S
C2068 H2063 0.949 . S
C2068 C2074 1.368 . S
C2069 C2053 1.323 1_545 S
C2069 H2061 0.992 . S
C2069 C2067 1.313 . S
C2070 C2058 1.349 . S
C2070 H2064 0.950 . S
C2070 C2071 1.327 . S
C2071 H2065 0.950 . S
C2071 C2070 1.327 . S
C2071 C2075 1.429 . S
C2072 C2055 1.574 . S
C2072 H2066 0.949 . S
C2072 C2076 1.368 1_545 S
C2073 C2054 1.429 . S
C2073 C2067 1.429 1_565 S
C2073 C2074 1.523 . S
C2074 C2055 1.368 1_565 S
C2074 C2068 1.368 . S
C2074 C2073 1.523 . S
C2075 C2059 1.429 1_565 S
C2075 C2071 1.429 . S
C2075 C2076 1.523 . S
C2076 C2060 1.368 . S
C2076 C2072 1.368 1_565 S
C2076 C2075 1.523 . S
H2077 C2052 0.950 . S
H2078 C2054 0.950 . S
H2079 C2055 0.949 . S
H2080 C2057 0.950 . S
H2081 C2059 0.950 . S
C2082 C2083 1.349 . S
C2082 C2084 1.327 . S
C2082 H2107 0.950 . S
C2083 C2082 1.349 . S
C2083 C2099 1.359 . S
C2084 C2082 1.327 . S
C2084 C2103 1.429 . S
C2084 H2108 0.950 . S
C2085 C2102 1.574 . S
C2085 C2104 1.368 1_655 S
C2085 H2109 0.949 . S
H2086 C2090 0.949 . S
C2087 C2088 1.349 1_655 S
C2087 C2089 1.327 . S
C2087 H2110 0.950 . S
C2088 C2087 1.349 1_455 S
C2088 C2100 1.349 . S
C2089 C2087 1.327 . S
C2089 C2105 1.429 1_655 S
C2089 H2111 0.950 . S
C2090 H2086 0.949 . S
C2090 C2098 1.574 . S
C2090 C2106 1.368 . S
H2091 C2099 0.944 1_655 S
H2092 C2097 0.950 . S
H2093 C2098 0.949 . S
H2094 C2100 0.950 . S
H2095 C2101 0.950 . S
H2096 C2102 0.949 . S
C2097 H2092 0.950 . S
C2097 C2099 1.322 1_655 S
C2097 C2103 1.429 1_655 S
C2098 C2090 1.574 . S
C2098 H2093 0.949 . S
C2098 C2104 1.368 . S
C2099 C2083 1.359 . S
C2099 H2091 0.944 1_455 S
C2099 C2097 1.322 1_455 S
C2100 C2088 1.349 . S
C2100 H2094 0.950 . S
C2100 C2101 1.327 . S
C2101 H2095 0.950 . S
C2101 C2100 1.327 . S
C2101 C2105 1.429 . S
C2102 C2085 1.574 . S
C2102 H2096 0.949 . S
C2102 C2106 1.368 1_655 S
C2103 C2084 1.429 . S
C2103 C2097 1.429 1_455 S
C2103 C2104 1.523 . S
C2104 C2085 1.368 1_455 S
C2104 C2098 1.368 . S
C2104 C2103 1.523 . S
C2105 C2089 1.429 1_455 S
C2105 C2101 1.429 . S
C2105 C2106 1.523 . S
C2106 C2090 1.368 . S
C2106 C2102 1.368 1_455 S
C2106 C2105 1.523 . S
H2107 C2082 0.950 . S
H2108 C2084 0.950 . S
H2109 C2085 0.949 . S
H2110 C2087 0.950 . S
H2111 C2089 0.950 . S
C2112 C2113 1.349 . S
C2112 C2114 1.327 . S
C2112 H2137 0.950 . S
C2113 C2112 1.349 . S
C2113 C2129 1.349 . S
C2114 C2112 1.327 . S
C2114 C2133 1.429 . S
C2114 H2138 0.950 . S
C2115 C2132 1.574 . S
C2115 C2134 1.368 . S
C2115 H2139 0.949 . S
H2116 C2120 0.949 . S
C2117 C2118 1.349 . S
C2117 C2119 1.327 . S
C2117 H2140 0.950 . S
C2118 C2117 1.349 . S
C2118 C2130 1.349 . S
C2119 C2117 1.327 . S
C2119 C2135 1.429 . S
C2119 H2141 0.950 . S
C2120 H2116 0.949 . S
C2120 C2128 1.574 . S
C2120 C2136 1.368 . S
H2121 C2129 0.950 . S
H2122 C2127 0.950 . S
H2123 C2128 0.949 . S
H2124 C2130 0.950 . S
H2125 C2131 0.950 . S
H2126 C2132 0.949 . S
C2127 H2122 0.950 . S
C2127 C2129 1.327 . S
C2127 C2133 1.429 . S
C2128 C2120 1.574 . S
C2128 H2123 0.949 . S
C2128 C2134 1.368 . S
C2129 C2113 1.349 . S
C2129 H2121 0.950 . S
C2129 C2127 1.327 . S
C2130 C2118 1.349 . S
C2130 H2124 0.950 . S
C2130 C2131 1.327 . S
C2131 H2125 0.950 . S
C2131 C2130 1.327 . S
C2131 C2135 1.429 . S
C2132 C2115 1.574 . S
C2132 H2126 0.949 . S
C2132 C2136 1.368 . S
C2133 C2114 1.429 . S
C2133 C2127 1.429 . S
C2133 C2134 1.523 . S
C2134 C2115 1.368 . S
C2134 C2128 1.368 . S
C2134 C2133 1.523 . S
C2135 C2119 1.429 . S
C2135 C2131 1.429 . S
C2135 C2136 1.523 . S
C2136 C2120 1.368 . S
C2136 C2132 1.368 . S
C2136 C2135 1.523 . S
H2137 C2112 0.950 . S
H2138 C2114 0.950 . S
H2139 C2115 0.949 . S
H2140 C2117 0.950 . S
H2141 C2119 0.950 . S
C2142 C2143 1.349 . S
C2142 C2144 1.327 . S
C2142 H2167 0.950 . S
C2143 C2142 1.349 . S
C2143 C2159 1.349 . S
C2144 C2142 1.327 . S
C2144 C2163 1.429 . S
C2144 H2168 0.950 . S
C2145 C2162 1.570 1_455 S
C2145 C2164 1.367 . S
C2145 H2169 0.953 1_455 S
H2146 C2150 0.949 . S
C2147 C2148 1.349 1_655 S
C2147 C2149 1.327 . S
C2147 H2170 0.950 . S
C2148 C2147 1.349 1_455 S
C2148 C2160 1.349 . S
C2149 C2147 1.327 . S
C2149 C2165 1.429 1_655 S
C2149 H2171 0.950 . S
C2150 H2146 0.949 . S
C2150 C2158 1.574 . S
C2150 C2166 1.368 . S
H2151 C2159 0.946 . S
H2152 C2157 0.950 1_655 S
H2153 C2158 0.949 . S
H2154 C2160 0.950 . S
H2155 C2161 0.950 . S
H2156 C2162 0.949 . S
C2157 H2152 0.950 1_455 S
C2157 C2159 1.327 . S
C2157 C2163 1.429 . S
C2158 C2150 1.574 . S
C2158 H2153 0.949 . S
C2158 C2164 1.368 . S
C2159 C2143 1.349 . S
C2159 H2151 0.946 . S
C2159 C2157 1.327 . S
C2160 C2148 1.349 . S
C2160 H2154 0.950 . S
C2160 C2161 1.327 . S
C2161 H2155 0.950 . S
C2161 C2160 1.327 . S
C2161 C2165 1.429 . S
C2162 C2145 1.570 1_655 S
C2162 H2156 0.949 . S
C2162 C2166 1.368 1_655 S
C2163 C2144 1.429 . S
C2163 C2157 1.429 . S
C2163 C2164 1.523 . S
C2164 C2145 1.367 . S
C2164 C2158 1.368 . S
C2164 C2163 1.523 . S
C2165 C2149 1.429 1_455 S
C2165 C2161 1.429 . S
C2165 C2166 1.523 . S
C2166 C2150 1.368 . S
C2166 C2162 1.368 1_455 S
C2166 C2165 1.523 . S
H2167 C2142 0.950 . S
H2168 C2144 0.950 . S
H2169 C2145 0.953 1_655 S
H2170 C2147 0.950 . S
H2171 C2149 0.950 . S
C2172 C2173 1.349 . S
C2172 C2174 1.327 . S
C2172 H2197 0.950 . S
C2173 C2172 1.349 . S
C2173 C2189 1.349 . S
C2174 C2172 1.327 . S
C2174 C2193 1.429 . S
C2174 H2198 0.950 . S
C2175 C2192 1.574 . S
C2175 C2194 1.368 . S
C2175 H2199 0.949 . S
H2176 C2180 0.949 . S
C2177 C2178 1.349 . S
C2177 C2179 1.327 . S
C2177 H2200 0.950 . S
C2178 C2177 1.349 . S
C2178 C2190 1.349 . S
C2179 C2177 1.327 . S
C2179 C2195 1.429 . S
C2179 H2201 0.950 . S
C2180 H2176 0.949 . S
C2180 C2188 1.574 . S
C2180 C2196 1.368 . S
H2181 C2189 0.950 . S
H2182 C2187 0.950 . S
H2183 C2188 0.949 . S
H2184 C2190 0.950 . S
H2185 C2191 0.950 . S
H2186 C2192 0.949 . S
C2187 H2182 0.950 . S
C2187 C2189 1.327 . S
C2187 C2193 1.429 . S
C2188 C2180 1.574 . S
C2188 H2183 0.949 . S
C2188 C2194 1.368 . S
C2189 C2173 1.349 . S
C2189 H2181 0.950 . S
C2189 C2187 1.327 . S
C2190 C2178 1.349 . S
C2190 H2184 0.950 . S
C2190 C2191 1.327 . S
C2191 H2185 0.950 . S
C2191 C2190 1.327 . S
C2191 C2195 1.429 . S
C2192 C2175 1.574 . S
C2192 H2186 0.949 . S
C2192 C2196 1.368 . S
C2193 C2174 1.429 . S
C2193 C2187 1.429 . S
C2193 C2194 1.523 . S
C2194 C2175 1.368 . S
C2194 C2188 1.368 . S
C2194 C2193 1.523 . S
C2195 C2179 1.429 . S
C2195 C2191 1.429 . S
C2195 C2196 1.523 . S
C2196 C2180 1.368 . S
C2196 C2192 1.368 . S
C2196 C2195 1.523 . S
H2197 C2172 0.950 . S
H2198 C2174 0.950 . S
H2199 C2175 0.949 . S
H2200 C2177 0.950 . S
H2201 C2179 0.950 . S
C2202 C2203 1.349 . S
C2202 C2204 1.327 . S
C2202 H2227 0.950 . S
C2203 C2202 1.349 . S
C2203 C2219 1.349 . S
C2204 C2202 1.327 . S
C2204 C2223 1.429 . S
C2204 H2228 0.950 . S
C2205 C2222 1.574 . S
C2205 C2224 1.368 1_545 S
C2205 H2229 0.949 . S
H2206 C2210 0.949 . S
C2207 C2208 1.349 1_545 S
C2207 C2209 1.327 . S
C2207 H2230 0.950 . S
C2208 C2207 1.349 1_565 S
C2208 C2220 1.349 . S
C2209 C2207 1.327 . S
C2209 C2225 1.429 1_545 S
C2209 H2231 0.950 . S
C2210 H2206 0.949 . S
C2210 C2218 1.574 . S
C2210 C2226 1.368 . S
H2211 C2219 0.950 1_545 S
H2212 C2217 0.941 1_545 S
H2213 C2218 0.949 . S
H2214 C2220 0.950 . S
H2215 C2221 0.950 . S
H2216 C2222 0.949 . S
C2217 H2212 0.941 1_565 S
C2217 C2219 1.333 . S
C2217 C2223 1.430 . S
C2218 C2210 1.574 . S
C2218 H2213 0.949 . S
C2218 C2224 1.368 . S
C2219 C2203 1.349 . S
C2219 H2211 0.950 1_565 S
C2219 C2217 1.333 . S
C2220 C2208 1.349 . S
C2220 H2214 0.950 . S
C2220 C2221 1.327 . S
C2221 H2215 0.950 . S
C2221 C2220 1.327 . S
C2221 C2225 1.429 . S
C2222 C2205 1.574 . S
C2222 H2216 0.949 . S
C2222 C2226 1.368 1_545 S
C2223 C2204 1.429 . S
C2223 C2217 1.430 . S
C2223 C2224 1.523 . S
C2224 C2205 1.368 1_565 S
C2224 C2218 1.368 . S
C2224 C2223 1.523 . S
C2225 C2209 1.429 1_565 S
C2225 C2221 1.429 . S
C2225 C2226 1.523 . S
C2226 C2210 1.368 . S
C2226 C2222 1.368 1_565 S
C2226 C2225 1.523 . S
H2227 C2202 0.950 . S
H2228 C2204 0.950 . S
H2229 C2205 0.949 . S
H2230 C2207 0.950 . S
H2231 C2209 0.950 . S
C2232 C2233 1.349 . S
C2232 C2234 1.331 1_545 S
C2232 H2257 0.950 1_545 S
C2233 C2232 1.349 . S
C2233 C2249 1.349 . S
C2234 C2232 1.331 1_565 S
C2234 C2253 1.415 1_565 S
C2234 H2258 0.959 . S
C2235 C2252 1.574 . S
C2235 C2254 1.368 . S
C2235 H2259 0.949 . S
H2236 C2240 0.949 . S
C2237 C2238 1.349 . S
C2237 C2239 1.327 . S
C2237 H2260 0.950 . S
C2238 C2237 1.349 . S
C2238 C2250 1.349 1_545 S
C2239 C2237 1.327 . S
C2239 C2255 1.429 . S
C2239 H2261 0.950 . S
C2240 H2236 0.949 . S
C2240 C2248 1.574 . S
C2240 C2256 1.368 1_565 S
H2241 C2249 0.950 . S
H2242 C2247 0.950 . S
H2243 C2248 0.949 . S
H2244 C2250 0.950 . S
H2245 C2251 0.950 . S
H2246 C2252 0.949 . S
C2247 H2242 0.950 . S
C2247 C2249 1.327 . S
C2247 C2253 1.429 . S
C2248 C2240 1.574 . S
C2248 H2243 0.949 . S
C2248 C2254 1.368 1_565 S
C2249 C2233 1.349 . S
C2249 H2241 0.950 . S
C2249 C2247 1.327 . S
C2250 C2238 1.349 1_565 S
C2250 H2244 0.950 . S
C2250 C2251 1.327 . S
C2251 H2245 0.950 . S
C2251 C2250 1.327 . S
C2251 C2255 1.429 1_565 S
C2252 C2235 1.574 . S
C2252 H2246 0.949 . S
C2252 C2256 1.368 . S
C2253 C2234 1.415 1_545 S
C2253 C2247 1.429 . S
C2253 C2254 1.523 . S
C2254 C2235 1.368 . S
C2254 C2248 1.368 1_545 S
C2254 C2253 1.523 . S
C2255 C2239 1.429 . S
C2255 C2251 1.429 1_545 S
C2255 C2256 1.523 . S
C2256 C2240 1.368 1_545 S
C2256 C2252 1.368 . S
C2256 C2255 1.523 . S
H2257 C2232 0.950 1_565 S
H2258 C2234 0.959 . S
H2259 C2235 0.949 . S
H2260 C2237 0.950 . S
H2261 C2239 0.950 . S
C2262 C2263 1.349 . S
C2262 C2264 1.327 . S
C2262 H2287 0.950 . S
C2263 C2262 1.349 . S
C2263 C2279 1.416 . S
C2264 C2262 1.327 . S
C2264 C2283 1.429 . S
C2264 H2288 0.950 . S
C2265 C2282 1.574 . S
C2265 C2284 1.368 1_455 S
C2265 H2289 0.949 . S
H2266 C2270 0.949 . S
C2267 C2268 1.349 1_455 S
C2267 C2269 1.327 . S
C2267 H2290 0.950 . S
C2268 C2267 1.349 1_655 S
C2268 C2280 1.349 . S
C2269 C2267 1.327 . S
C2269 C2285 1.429 1_455 S
C2269 H2291 0.950 . S
C2270 H2266 0.949 . S
C2270 C2278 1.574 . S
C2270 C2286 1.368 . S
H2271 C2279 0.933 1_455 S
H2272 C2277 0.987 . S
H2273 C2278 0.949 . S
H2274 C2280 0.950 . S
H2275 C2281 0.950 . S
H2276 C2282 0.949 . S
C2277 H2272 0.987 . S
C2277 C2279 1.263 1_455 S
C2277 C2283 1.419 1_455 S
C2278 C2270 1.574 . S
C2278 H2273 0.949 . S
C2278 C2284 1.368 . S
C2279 C2263 1.416 . S
C2279 H2271 0.933 1_655 S
C2279 C2277 1.263 1_655 S
C2280 C2268 1.349 . S
C2280 H2274 0.950 . S
C2280 C2281 1.327 . S
C2281 H2275 0.950 . S
C2281 C2280 1.327 . S
C2281 C2285 1.429 . S
C2282 C2265 1.574 . S
C2282 H2276 0.949 . S
C2282 C2286 1.368 1_455 S
C2283 C2264 1.429 . S
C2283 C2277 1.419 1_655 S
C2283 C2284 1.523 . S
C2284 C2265 1.368 1_655 S
C2284 C2278 1.368 . S
C2284 C2283 1.523 . S
C2285 C2269 1.429 1_655 S
C2285 C2281 1.429 . S
C2285 C2286 1.523 . S
C2286 C2270 1.368 . S
C2286 C2282 1.368 1_655 S
C2286 C2285 1.523 . S
H2287 C2262 0.950 . S
H2288 C2264 0.950 . S
H2289 C2265 0.949 . S
H2290 C2267 0.950 . S
H2291 C2269 0.950 . S
C2292 C2293 1.349 . S
C2292 C2294 1.327 . S
C2292 H2317 0.950 . S
C2293 C2292 1.349 . S
C2293 C2309 1.349 . S
C2294 C2292 1.327 . S
C2294 C2313 1.429 . S
C2294 H2318 0.950 . S
C2295 C2312 1.574 . S
C2295 C2314 1.368 . S
C2295 H2319 0.949 . S
H2296 C2300 0.949 . S
C2297 C2298 1.349 . S
C2297 C2299 1.327 . S
C2297 H2320 0.950 . S
C2298 C2297 1.349 . S
C2298 C2310 1.349 . S
C2299 C2297 1.327 . S
C2299 C2315 1.429 . S
C2299 H2321 0.950 . S
C2300 H2296 0.949 . S
C2300 C2308 1.574 . S
C2300 C2316 1.368 . S
H2301 C2309 0.950 . S
H2302 C2307 0.950 . S
H2303 C2308 0.949 . S
H2304 C2310 0.950 . S
H2305 C2311 0.950 . S
H2306 C2312 0.949 . S
C2307 H2302 0.950 . S
C2307 C2309 1.327 . S
C2307 C2313 1.429 . S
C2308 C2300 1.574 . S
C2308 H2303 0.949 . S
C2308 C2314 1.368 . S
C2309 C2293 1.349 . S
C2309 H2301 0.950 . S
C2309 C2307 1.327 . S
C2310 C2298 1.349 . S
C2310 H2304 0.950 . S
C2310 C2311 1.327 . S
C2311 H2305 0.950 . S
C2311 C2310 1.327 . S
C2311 C2315 1.429 . S
C2312 C2295 1.574 . S
C2312 H2306 0.949 . S
C2312 C2316 1.368 . S
C2313 C2294 1.429 . S
C2313 C2307 1.429 . S
C2313 C2314 1.523 . S
C2314 C2295 1.368 . S
C2314 C2308 1.368 . S
C2314 C2313 1.523 . S
C2315 C2299 1.429 . S
C2315 C2311 1.429 . S
C2315 C2316 1.523 . S
C2316 C2300 1.368 . S
C2316 C2312 1.368 . S
C2316 C2315 1.523 . S
H2317 C2292 0.950 . S
H2318 C2294 0.950 . S
H2319 C2295 0.949 . S
H2320 C2297 0.950 . S
H2321 C2299 0.950 . S
C2322 C2323 1.349 . S
C2322 C2324 1.327 . S
C2322 H2347 0.950 . S
C2323 C2322 1.349 . S
C2323 C2339 1.349 . S
C2324 C2322 1.327 . S
C2324 C2343 1.429 . S
C2324 H2348 0.950 . S
C2325 C2342 1.574 . S
C2325 C2344 1.368 . S
C2325 H2349 0.949 . S
H2326 C2330 0.949 . S
C2327 C2328 1.349 . S
C2327 C2329 1.327 . S
C2327 H2350 0.950 . S
C2328 C2327 1.349 . S
C2328 C2340 1.349 . S
C2329 C2327 1.327 . S
C2329 C2345 1.429 . S
C2329 H2351 0.950 . S
C2330 H2326 0.949 . S
C2330 C2338 1.574 . S
C2330 C2346 1.368 . S
H2331 C2339 0.950 . S
H2332 C2337 0.950 . S
H2333 C2338 0.949 . S
H2334 C2340 0.950 . S
H2335 C2341 0.950 . S
H2336 C2342 0.949 . S
C2337 H2332 0.950 . S
C2337 C2339 1.327 . S
C2337 C2343 1.429 . S
C2338 C2330 1.574 . S
C2338 H2333 0.949 . S
C2338 C2344 1.368 . S
C2339 C2323 1.349 . S
C2339 H2331 0.950 . S
C2339 C2337 1.327 . S
C2340 C2328 1.349 . S
C2340 H2334 0.950 . S
C2340 C2341 1.327 . S
C2341 H2335 0.950 . S
C2341 C2340 1.327 . S
C2341 C2345 1.429 . S
C2342 C2325 1.574 . S
C2342 H2336 0.949 . S
C2342 C2346 1.368 . S
C2343 C2324 1.429 . S
C2343 C2337 1.429 . S
C2343 C2344 1.523 . S
C2344 C2325 1.368 . S
C2344 C2338 1.368 . S
C2344 C2343 1.523 . S
C2345 C2329 1.429 . S
C2345 C2341 1.429 . S
C2345 C2346 1.523 . S
C2346 C2330 1.368 . S
C2346 C2342 1.368 . S
C2346 C2345 1.523 . S
H2347 C2322 0.950 . S
H2348 C2324 0.950 . S
H2349 C2325 0.949 . S
H2350 C2327 0.950 . S
H2351 C2329 0.950 . S
C2352 C2353 1.349 . S
C2352 C2354 1.327 . S
C2352 H2377 0.950 . S
C2353 C2352 1.349 . S
C2353 C2369 1.349 . S
C2354 C2352 1.327 . S
C2354 C2373 1.429 . S
C2354 H2378 0.950 . S
C2355 C2372 1.574 . S
C2355 C2374 1.368 . S
C2355 H2379 0.949 . S
H2356 C2360 0.949 . S
C2357 C2358 1.349 . S
C2357 C2359 1.327 . S
C2357 H2380 0.950 . S
C2358 C2357 1.349 . S
C2358 C2370 1.349 . S
C2359 C2357 1.327 . S
C2359 C2375 1.429 . S
C2359 H2381 0.950 . S
C2360 H2356 0.949 . S
C2360 C2368 1.574 . S
C2360 C2376 1.368 . S
H2361 C2369 0.950 . S
H2362 C2367 0.950 . S
H2363 C2368 0.949 . S
H2364 C2370 0.950 . S
H2365 C2371 0.950 . S
H2366 C2372 0.949 . S
C2367 H2362 0.950 . S
C2367 C2369 1.327 . S
C2367 C2373 1.429 . S
C2368 C2360 1.574 . S
C2368 H2363 0.949 . S
C2368 C2374 1.368 . S
C2369 C2353 1.349 . S
C2369 H2361 0.950 . S
C2369 C2367 1.327 . S
C2370 C2358 1.349 . S
C2370 H2364 0.950 . S
C2370 C2371 1.327 . S
C2371 H2365 0.950 . S
C2371 C2370 1.327 . S
C2371 C2375 1.429 . S
C2372 C2355 1.574 . S
C2372 H2366 0.949 . S
C2372 C2376 1.368 . S
C2373 C2354 1.429 . S
C2373 C2367 1.429 . S
C2373 C2374 1.523 . S
C2374 C2355 1.368 . S
C2374 C2368 1.368 . S
C2374 C2373 1.523 . S
C2375 C2359 1.429 . S
C2375 C2371 1.429 . S
C2375 C2376 1.523 . S
C2376 C2360 1.368 . S
C2376 C2372 1.368 . S
C2376 C2375 1.523 . S
H2377 C2352 0.950 . S
H2378 C2354 0.950 . S
H2379 C2355 0.949 . S
H2380 C2357 0.950 . S
H2381 C2359 0.950 . S
C2382 C2383 1.349 . S
C2382 C2384 1.327 . S
C2382 H2407 0.950 . S
C2383 C2382 1.349 . S
C2383 C2399 1.349 . S
C2384 C2382 1.327 . S
C2384 C2403 1.429 . S
C2384 H2408 0.950 . S
C2385 C2402 1.574 . S
C2385 C2404 1.368 . S
C2385 H2409 0.949 . S
H2386 C2390 0.949 . S
C2387 C2388 1.349 . S
C2387 C2389 1.327 . S
C2387 H2410 0.950 . S
C2388 C2387 1.349 . S
C2388 C2400 1.349 . S
C2389 C2387 1.327 . S
C2389 C2405 1.429 . S
C2389 H2411 0.950 . S
C2390 H2386 0.949 . S
C2390 C2398 1.574 . S
C2390 C2406 1.368 . S
H2391 C2399 0.950 . S
H2392 C2397 0.950 . S
H2393 C2398 0.949 . S
H2394 C2400 0.950 . S
H2395 C2401 0.950 . S
H2396 C2402 0.949 . S
C2397 H2392 0.950 . S
C2397 C2399 1.327 . S
C2397 C2403 1.429 . S
C2398 C2390 1.574 . S
C2398 H2393 0.949 . S
C2398 C2404 1.368 . S
C2399 C2383 1.349 . S
C2399 H2391 0.950 . S
C2399 C2397 1.327 . S
C2400 C2388 1.349 . S
C2400 H2394 0.950 . S
C2400 C2401 1.327 . S
C2401 H2395 0.950 . S
C2401 C2400 1.327 . S
C2401 C2405 1.429 . S
C2402 C2385 1.574 . S
C2402 H2396 0.949 . S
C2402 C2406 1.368 . S
C2403 C2384 1.429 . S
C2403 C2397 1.429 . S
C2403 C2404 1.523 . S
C2404 C2385 1.368 . S
C2404 C2398 1.368 . S
C2404 C2403 1.523 . S
C2405 C2389 1.429 . S
C2405 C2401 1.429 . S
C2405 C2406 1.523 . S
C2406 C2390 1.368 . S
C2406 C2402 1.368 . S
C2406 C2405 1.523 . S
H2407 C2382 0.950 . S
H2408 C2384 0.950 . S
H2409 C2385 0.949 . S
H2410 C2387 0.950 . S
H2411 C2389 0.950 . S
C2412 C2413 1.349 . S
C2412 C2414 1.327 . S
C2412 H2437 0.950 . S
C2413 C2412 1.349 . S
C2413 C2429 1.349 . S
C2414 C2412 1.327 . S
C2414 C2433 1.429 . S
C2414 H2438 0.950 . S
C2415 C2432 1.574 . S
C2415 C2434 1.368 . S
C2415 H2439 0.949 . S
H2416 C2420 0.949 . S
C2417 C2418 1.349 . S
C2417 C2419 1.327 . S
C2417 H2440 0.950 . S
C2418 C2417 1.349 . S
C2418 C2430 1.349 . S
C2419 C2417 1.327 . S
C2419 C2435 1.429 . S
C2419 H2441 0.950 . S
C2420 H2416 0.949 . S
C2420 C2428 1.574 . S
C2420 C2436 1.368 . S
H2421 C2429 0.950 . S
H2422 C2427 0.950 . S
H2423 C2428 0.949 . S
H2424 C2430 0.950 . S
H2425 C2431 0.950 . S
H2426 C2432 0.949 . S
C2427 H2422 0.950 . S
C2427 C2429 1.327 . S
C2427 C2433 1.429 . S
C2428 C2420 1.574 . S
C2428 H2423 0.949 . S
C2428 C2434 1.368 . S
C2429 C2413 1.349 . S
C2429 H2421 0.950 . S
C2429 C2427 1.327 . S
C2430 C2418 1.349 . S
C2430 H2424 0.950 . S
C2430 C2431 1.327 . S
C2431 H2425 0.950 . S
C2431 C2430 1.327 . S
C2431 C2435 1.429 . S
C2432 C2415 1.574 . S
C2432 H2426 0.949 . S
C2432 C2436 1.368 . S
C2433 C2414 1.429 . S
C2433 C2427 1.429 . S
C2433 C2434 1.523 . S
C2434 C2415 1.368 . S
C2434 C2428 1.368 . S
C2434 C2433 1.523 . S
C2435 C2419 1.429 . S
C2435 C2431 1.429 . S
C2435 C2436 1.523 . S
C2436 C2420 1.368 . S
C2436 C2432 1.368 . S
C2436 C2435 1.523 . S
H2437 C2412 0.950 . S
H2438 C2414 0.950 . S
H2439 C2415 0.949 . S
H2440 C2417 0.950 . S
H2441 C2419 0.950 . S
C2442 C2443 1.349 . S
C2442 C2444 1.327 . S
C2442 H2467 0.950 . S
C2443 C2442 1.349 . S
C2443 C2459 1.349 . S
C2444 C2442 1.327 . S
C2444 C2463 1.429 . S
C2444 H2468 0.950 . S
C2445 C2462 1.574 . S
C2445 C2464 1.368 . S
C2445 H2469 0.949 . S
H2446 C2450 0.949 . S
C2447 C2448 1.349 . S
C2447 C2449 1.327 . S
C2447 H2470 0.950 . S
C2448 C2447 1.349 . S
C2448 C2460 1.349 . S
C2449 C2447 1.327 . S
C2449 C2465 1.429 . S
C2449 H2471 0.950 . S
C2450 H2446 0.949 . S
C2450 C2458 1.574 . S
C2450 C2466 1.368 . S
H2451 C2459 0.950 . S
H2452 C2457 0.950 . S
H2453 C2458 0.949 . S
H2454 C2460 0.950 . S
H2455 C2461 0.950 . S
H2456 C2462 0.949 . S
C2457 H2452 0.950 . S
C2457 C2459 1.327 . S
C2457 C2463 1.429 . S
C2458 C2450 1.574 . S
C2458 H2453 0.949 . S
C2458 C2464 1.368 . S
C2459 C2443 1.349 . S
C2459 H2451 0.950 . S
C2459 C2457 1.327 . S
C2460 C2448 1.349 . S
C2460 H2454 0.950 . S
C2460 C2461 1.327 . S
C2461 H2455 0.950 . S
C2461 C2460 1.327 . S
C2461 C2465 1.429 . S
C2462 C2445 1.574 . S
C2462 H2456 0.949 . S
C2462 C2466 1.368 . S
C2463 C2444 1.429 . S
C2463 C2457 1.429 . S
C2463 C2464 1.523 . S
C2464 C2445 1.368 . S
C2464 C2458 1.368 . S
C2464 C2463 1.523 . S
C2465 C2449 1.429 . S
C2465 C2461 1.429 . S
C2465 C2466 1.523 . S
C2466 C2450 1.368 . S
C2466 C2462 1.368 . S
C2466 C2465 1.523 . S
H2467 C2442 0.950 . S
H2468 C2444 0.950 . S
H2469 C2445 0.949 . S
H2470 C2447 0.950 . S
H2471 C2449 0.950 . S
C2472 C2473 1.349 . S
C2472 C2474 1.327 . S
C2472 H2497 0.950 . S
C2473 C2472 1.349 . S
C2473 C2489 1.349 . S
C2474 C2472 1.327 . S
C2474 C2493 1.429 . S
C2474 H2498 0.950 . S
C2475 C2492 1.574 . S
C2475 C2494 1.368 . S
C2475 H2499 0.949 . S
H2476 C2480 0.949 . S
C2477 C2478 1.349 . S
C2477 C2479 1.327 . S
C2477 H2500 0.950 . S
C2478 C2477 1.349 . S
C2478 C2490 1.349 . S
C2479 C2477 1.327 . S
C2479 C2495 1.429 . S
C2479 H2501 0.950 . S
C2480 H2476 0.949 . S
C2480 C2488 1.574 . S
C2480 C2496 1.368 . S
H2481 C2489 0.950 . S
H2482 C2487 0.950 . S
H2483 C2488 0.949 . S
H2484 C2490 0.950 . S
H2485 C2491 0.950 . S
H2486 C2492 0.949 . S
C2487 H2482 0.950 . S
C2487 C2489 1.327 . S
C2487 C2493 1.429 . S
C2488 C2480 1.574 . S
C2488 H2483 0.949 . S
C2488 C2494 1.368 . S
C2489 C2473 1.349 . S
C2489 H2481 0.950 . S
C2489 C2487 1.327 . S
C2490 C2478 1.349 . S
C2490 H2484 0.950 . S
C2490 C2491 1.327 . S
C2491 H2485 0.950 . S
C2491 C2490 1.327 . S
C2491 C2495 1.429 . S
C2492 C2475 1.574 . S
C2492 H2486 0.949 . S
C2492 C2496 1.368 . S
C2493 C2474 1.429 . S
C2493 C2487 1.429 . S
C2493 C2494 1.523 . S
C2494 C2475 1.368 . S
C2494 C2488 1.368 . S
C2494 C2493 1.523 . S
C2495 C2479 1.429 . S
C2495 C2491 1.429 . S
C2495 C2496 1.523 . S
C2496 C2480 1.368 . S
C2496 C2492 1.368 . S
C2496 C2495 1.523 . S
H2497 C2472 0.950 . S
H2498 C2474 0.950 . S
H2499 C2475 0.949 . S
H2500 C2477 0.950 . S
H2501 C2479 0.950 . S
C2502 C2503 1.349 . S
C2502 C2504 1.327 . S
C2502 H2527 0.950 . S
C2503 C2502 1.349 . S
C2503 C2519 1.349 . S
C2504 C2502 1.327 . S
C2504 C2523 1.429 . S
C2504 H2528 0.950 . S
C2505 C2522 1.574 . S
C2505 C2524 1.368 . S
C2505 H2529 0.949 . S
H2506 C2510 0.949 . S
C2507 C2508 1.349 . S
C2507 C2509 1.327 . S
C2507 H2530 0.950 . S
C2508 C2507 1.349 . S
C2508 C2520 1.349 . S
C2509 C2507 1.327 . S
C2509 C2525 1.429 . S
C2509 H2531 0.950 . S
C2510 H2506 0.949 . S
C2510 C2518 1.574 . S
C2510 C2526 1.368 . S
H2511 C2519 0.950 . S
H2512 C2517 0.950 . S
H2513 C2518 0.949 . S
H2514 C2520 0.950 . S
H2515 C2521 0.950 . S
H2516 C2522 0.949 . S
C2517 H2512 0.950 . S
C2517 C2519 1.327 . S
C2517 C2523 1.429 . S
C2518 C2510 1.574 . S
C2518 H2513 0.949 . S
C2518 C2524 1.368 . S
C2519 C2503 1.349 . S
C2519 H2511 0.950 . S
C2519 C2517 1.327 . S
C2520 C2508 1.349 . S
C2520 H2514 0.950 . S
C2520 C2521 1.327 . S
C2521 H2515 0.950 . S
C2521 C2520 1.327 . S
C2521 C2525 1.429 . S
C2522 C2505 1.574 . S
C2522 H2516 0.949 . S
C2522 C2526 1.368 . S
C2523 C2504 1.429 . S
C2523 C2517 1.429 . S
C2523 C2524 1.523 . S
C2524 C2505 1.368 . S
C2524 C2518 1.368 . S
C2524 C2523 1.523 . S
C2525 C2509 1.429 . S
C2525 C2521 1.429 . S
C2525 C2526 1.523 . S
C2526 C2510 1.368 . S
C2526 C2522 1.368 . S
C2526 C2525 1.523 . S
H2527 C2502 0.950 . S
H2528 C2504 0.950 . S
H2529 C2505 0.949 . S
H2530 C2507 0.950 . S
H2531 C2509 0.950 . S
C2532 C2533 1.349 . S
C2532 C2534 1.327 . S
C2532 H2557 0.950 . S
C2533 C2532 1.349 . S
C2533 C2549 1.349 . S
C2534 C2532 1.327 . S
C2534 C2553 1.429 . S
C2534 H2558 0.950 . S
C2535 C2552 1.574 . S
C2535 C2554 1.368 . S
C2535 H2559 0.949 . S
H2536 C2540 0.949 . S
C2537 C2538 1.349 . S
C2537 C2539 1.327 . S
C2537 H2560 0.950 . S
C2538 C2537 1.349 . S
C2538 C2550 1.349 . S
C2539 C2537 1.327 . S
C2539 C2555 1.429 . S
C2539 H2561 0.950 . S
C2540 H2536 0.949 . S
C2540 C2548 1.574 . S
C2540 C2556 1.368 . S
H2541 C2549 0.950 . S
H2542 C2547 0.950 . S
H2543 C2548 0.949 . S
H2544 C2550 0.950 . S
H2545 C2551 0.950 . S
H2546 C2552 0.949 . S
C2547 H2542 0.950 . S
C2547 C2549 1.327 . S
C2547 C2553 1.429 . S
C2548 C2540 1.574 . S
C2548 H2543 0.949 . S
C2548 C2554 1.368 . S
C2549 C2533 1.349 . S
C2549 H2541 0.950 . S
C2549 C2547 1.327 . S
C2550 C2538 1.349 . S
C2550 H2544 0.950 . S
C2550 C2551 1.327 . S
C2551 H2545 0.950 . S
C2551 C2550 1.327 . S
C2551 C2555 1.429 . S
C2552 C2535 1.574 . S
C2552 H2546 0.949 . S
C2552 C2556 1.368 . S
C2553 C2534 1.429 . S
C2553 C2547 1.429 . S
C2553 C2554 1.523 . S
C2554 C2535 1.368 . S
C2554 C2548 1.368 . S
C2554 C2553 1.523 . S
C2555 C2539 1.429 . S
C2555 C2551 1.429 . S
C2555 C2556 1.523 . S
C2556 C2540 1.368 . S
C2556 C2552 1.368 . S
C2556 C2555 1.523 . S
H2557 C2532 0.950 . S
H2558 C2534 0.950 . S
H2559 C2535 0.949 . S
H2560 C2537 0.950 . S
H2561 C2539 0.950 . S
C2562 C2563 1.349 . S
C2562 C2564 1.327 . S
C2562 H2587 0.950 . S
C2563 C2562 1.349 . S
C2563 C2579 1.349 . S
C2564 C2562 1.327 . S
C2564 C2583 1.429 . S
C2564 H2588 0.950 . S
C2565 C2582 1.574 . S
C2565 C2584 1.368 . S
C2565 H2589 0.949 . S
H2566 C2570 0.949 . S
C2567 C2568 1.349 . S
C2567 C2569 1.327 . S
C2567 H2590 0.950 . S
C2568 C2567 1.349 . S
C2568 C2580 1.349 . S
C2569 C2567 1.327 . S
C2569 C2585 1.429 . S
C2569 H2591 0.950 . S
C2570 H2566 0.949 . S
C2570 C2578 1.574 . S
C2570 C2586 1.368 . S
H2571 C2579 0.950 . S
H2572 C2577 0.950 . S
H2573 C2578 0.949 . S
H2574 C2580 0.950 . S
H2575 C2581 0.950 . S
H2576 C2582 0.949 . S
C2577 H2572 0.950 . S
C2577 C2579 1.327 . S
C2577 C2583 1.429 . S
C2578 C2570 1.574 . S
C2578 H2573 0.949 . S
C2578 C2584 1.368 . S
C2579 C2563 1.349 . S
C2579 H2571 0.950 . S
C2579 C2577 1.327 . S
C2580 C2568 1.349 . S
C2580 H2574 0.950 . S
C2580 C2581 1.327 . S
C2581 H2575 0.950 . S
C2581 C2580 1.327 . S
C2581 C2585 1.429 . S
C2582 C2565 1.574 . S
C2582 H2576 0.949 . S
C2582 C2586 1.368 . S
C2583 C2564 1.429 . S
C2583 C2577 1.429 . S
C2583 C2584 1.523 . S
C2584 C2565 1.368 . S
C2584 C2578 1.368 . S
C2584 C2583 1.523 . S
C2585 C2569 1.429 . S
C2585 C2581 1.429 . S
C2585 C2586 1.523 . S
C2586 C2570 1.368 . S
C2586 C2582 1.368 . S
C2586 C2585 1.523 . S
H2587 C2562 0.950 . S
H2588 C2564 0.950 . S
H2589 C2565 0.949 . S
H2590 C2567 0.950 . S
H2591 C2569 0.950 . S
C2592 C2593 1.349 . S
C2592 C2594 1.327 . S
C2592 H2617 0.950 . S
C2593 C2592 1.349 . S
C2593 C2609 1.349 . S
C2594 C2592 1.327 . S
C2594 C2613 1.429 . S
C2594 H2618 0.950 . S
C2595 C2612 1.574 . S
C2595 C2614 1.368 . S
C2595 H2619 0.949 . S
H2596 C2600 0.949 . S
C2597 C2598 1.349 . S
C2597 C2599 1.327 . S
C2597 H2620 0.950 . S
C2598 C2597 1.349 . S
C2598 C2610 1.349 . S
C2599 C2597 1.327 . S
C2599 C2615 1.429 . S
C2599 H2621 0.950 . S
C2600 H2596 0.949 . S
C2600 C2608 1.574 . S
C2600 C2616 1.368 . S
H2601 C2609 0.950 . S
H2602 C2607 0.950 . S
H2603 C2608 0.949 . S
H2604 C2610 0.950 . S
H2605 C2611 0.950 . S
H2606 C2612 0.949 . S
C2607 H2602 0.950 . S
C2607 C2609 1.327 . S
C2607 C2613 1.429 . S
C2608 C2600 1.574 . S
C2608 H2603 0.949 . S
C2608 C2614 1.368 . S
C2609 C2593 1.349 . S
C2609 H2601 0.950 . S
C2609 C2607 1.327 . S
C2610 C2598 1.349 . S
C2610 H2604 0.950 . S
C2610 C2611 1.327 . S
C2611 H2605 0.950 . S
C2611 C2610 1.327 . S
C2611 C2615 1.429 . S
C2612 C2595 1.574 . S
C2612 H2606 0.949 . S
C2612 C2616 1.368 . S
C2613 C2594 1.429 . S
C2613 C2607 1.429 . S
C2613 C2614 1.523 . S
C2614 C2595 1.368 . S
C2614 C2608 1.368 . S
C2614 C2613 1.523 . S
C2615 C2599 1.429 . S
C2615 C2611 1.429 . S
C2615 C2616 1.523 . S
C2616 C2600 1.368 . S
C2616 C2612 1.368 . S
C2616 C2615 1.523 . S
H2617 C2592 0.950 . S
H2618 C2594 0.950 . S
H2619 C2595 0.949 . S
H2620 C2597 0.950 . S
H2621 C2599 0.950 . S
C2622 C2623 1.349 . S
C2622 C2624 1.327 . S
C2622 H2647 0.950 . S
C2623 C2622 1.349 . S
C2623 C2639 1.349 . S
C2624 C2622 1.327 . S
C2624 C2643 1.429 . S
C2624 H2648 0.950 . S
C2625 C2642 1.574 . S
C2625 C2644 1.368 . S
C2625 H2649 0.949 . S
H2626 C2630 0.949 . S
C2627 C2628 1.349 . S
C2627 C2629 1.327 . S
C2627 H2650 0.950 . S
C2628 C2627 1.349 . S
C2628 C2640 1.349 . S
C2629 C2627 1.327 . S
C2629 C2645 1.429 . S
C2629 H2651 0.950 . S
C2630 H2626 0.949 . S
C2630 C2638 1.574 . S
C2630 C2646 1.368 . S
H2631 C2639 0.950 . S
H2632 C2637 0.950 . S
H2633 C2638 0.949 . S
H2634 C2640 0.950 . S
H2635 C2641 0.950 . S
H2636 C2642 0.949 . S
C2637 H2632 0.950 . S
C2637 C2639 1.327 . S
C2637 C2643 1.429 . S
C2638 C2630 1.574 . S
C2638 H2633 0.949 . S
C2638 C2644 1.368 . S
C2639 C2623 1.349 . S
C2639 H2631 0.950 . S
C2639 C2637 1.327 . S
C2640 C2628 1.349 . S
C2640 H2634 0.950 . S
C2640 C2641 1.327 . S
C2641 H2635 0.950 . S
C2641 C2640 1.327 . S
C2641 C2645 1.429 . S
C2642 C2625 1.574 . S
C2642 H2636 0.949 . S
C2642 C2646 1.368 . S
C2643 C2624 1.429 . S
C2643 C2637 1.429 . S
C2643 C2644 1.523 . S
C2644 C2625 1.368 . S
C2644 C2638 1.368 . S
C2644 C2643 1.523 . S
C2645 C2629 1.429 . S
C2645 C2641 1.429 . S
C2645 C2646 1.523 . S
C2646 C2630 1.368 . S
C2646 C2642 1.368 . S
C2646 C2645 1.523 . S
H2647 C2622 0.950 . S
H2648 C2624 0.950 . S
H2649 C2625 0.949 . S
H2650 C2627 0.950 . S
H2651 C2629 0.950 . S
C2652 C2653 1.349 . S
C2652 C2654 1.327 . S
C2652 H2677 0.950 . S
C2653 C2652 1.349 . S
C2653 C2669 1.349 . S
C2654 C2652 1.327 . S
C2654 C2673 1.429 . S
C2654 H2678 0.950 . S
C2655 C2672 1.574 . S
C2655 C2674 1.368 . S
C2655 H2679 0.949 . S
H2656 C2660 0.949 . S
C2657 C2658 1.349 . S
C2657 C2659 1.327 . S
C2657 H2680 0.950 . S
C2658 C2657 1.349 . S
C2658 C2670 1.349 . S
C2659 C2657 1.327 . S
C2659 C2675 1.429 . S
C2659 H2681 0.950 . S
C2660 H2656 0.949 . S
C2660 C2668 1.574 . S
C2660 C2676 1.368 . S
H2661 C2669 0.950 . S
H2662 C2667 0.950 . S
H2663 C2668 0.949 . S
H2664 C2670 0.950 . S
H2665 C2671 0.950 . S
H2666 C2672 0.949 . S
C2667 H2662 0.950 . S
C2667 C2669 1.327 . S
C2667 C2673 1.429 . S
C2668 C2660 1.574 . S
C2668 H2663 0.949 . S
C2668 C2674 1.368 . S
C2669 C2653 1.349 . S
C2669 H2661 0.950 . S
C2669 C2667 1.327 . S
C2670 C2658 1.349 . S
C2670 H2664 0.950 . S
C2670 C2671 1.327 . S
C2671 H2665 0.950 . S
C2671 C2670 1.327 . S
C2671 C2675 1.429 . S
C2672 C2655 1.574 . S
C2672 H2666 0.949 . S
C2672 C2676 1.368 . S
C2673 C2654 1.429 . S
C2673 C2667 1.429 . S
C2673 C2674 1.523 . S
C2674 C2655 1.368 . S
C2674 C2668 1.368 . S
C2674 C2673 1.523 . S
C2675 C2659 1.429 . S
C2675 C2671 1.429 . S
C2675 C2676 1.523 . S
C2676 C2660 1.368 . S
C2676 C2672 1.368 . S
C2676 C2675 1.523 . S
H2677 C2652 0.950 . S
H2678 C2654 0.950 . S
H2679 C2655 0.949 . S
H2680 C2657 0.950 . S
H2681 C2659 0.950 . S
C2682 C2683 1.349 . S
C2682 C2684 1.327 . S
C2682 H2707 0.950 . S
C2683 C2682 1.349 . S
C2683 C2699 1.349 . S
C2684 C2682 1.327 . S
C2684 C2703 1.429 . S
C2684 H2708 0.950 . S
C2685 C2702 1.574 . S
C2685 C2704 1.368 . S
C2685 H2709 0.949 . S
H2686 C2690 0.949 . S
C2687 C2688 1.349 . S
C2687 C2689 1.327 . S
C2687 H2710 0.950 . S
C2688 C2687 1.349 . S
C2688 C2700 1.349 . S
C2689 C2687 1.327 . S
C2689 C2705 1.429 . S
C2689 H2711 0.950 . S
C2690 H2686 0.949 . S
C2690 C2698 1.574 . S
C2690 C2706 1.368 . S
H2691 C2699 0.950 . S
H2692 C2697 0.950 . S
H2693 C2698 0.949 . S
H2694 C2700 0.950 . S
H2695 C2701 0.950 . S
H2696 C2702 0.949 . S
C2697 H2692 0.950 . S
C2697 C2699 1.327 . S
C2697 C2703 1.429 . S
C2698 C2690 1.574 . S
C2698 H2693 0.949 . S
C2698 C2704 1.368 . S
C2699 C2683 1.349 . S
C2699 H2691 0.950 . S
C2699 C2697 1.327 . S
C2700 C2688 1.349 . S
C2700 H2694 0.950 . S
C2700 C2701 1.327 . S
C2701 H2695 0.950 . S
C2701 C2700 1.327 . S
C2701 C2705 1.429 . S
C2702 C2685 1.574 . S
C2702 H2696 0.949 . S
C2702 C2706 1.368 . S
C2703 C2684 1.429 . S
C2703 C2697 1.429 . S
C2703 C2704 1.523 . S
C2704 C2685 1.368 . S
C2704 C2698 1.368 . S
C2704 C2703 1.523 . S
C2705 C2689 1.429 . S
C2705 C2701 1.429 . S
C2705 C2706 1.523 . S
C2706 C2690 1.368 . S
C2706 C2702 1.368 . S
C2706 C2705 1.523 . S
H2707 C2682 0.950 . S
H2708 C2684 0.950 . S
H2709 C2685 0.949 . S
H2710 C2687 0.950 . S
H2711 C2689 0.950 . S
C2712 C2713 1.349 . S
C2712 C2714 1.327 . S
C2712 H2737 0.950 . S
C2713 C2712 1.349 . S
C2713 C2729 1.349 . S
C2714 C2712 1.327 . S
C2714 C2733 1.429 . S
C2714 H2738 0.950 . S
C2715 C2732 1.574 . S
C2715 C2734 1.368 . S
C2715 H2739 0.949 . S
H2716 C2720 0.949 . S
C2717 C2718 1.349 . S
C2717 C2719 1.327 . S
C2717 H2740 0.950 . S
C2718 C2717 1.349 . S
C2718 C2730 1.349 . S
C2719 C2717 1.327 . S
C2719 C2735 1.429 . S
C2719 H2741 0.950 . S
C2720 H2716 0.949 . S
C2720 C2728 1.574 . S
C2720 C2736 1.368 . S
H2721 C2729 0.950 . S
H2722 C2727 0.950 . S
H2723 C2728 0.949 . S
H2724 C2730 0.950 . S
H2725 C2731 0.950 . S
H2726 C2732 0.949 . S
C2727 H2722 0.950 . S
C2727 C2729 1.327 . S
C2727 C2733 1.429 . S
C2728 C2720 1.574 . S
C2728 H2723 0.949 . S
C2728 C2734 1.368 . S
C2729 C2713 1.349 . S
C2729 H2721 0.950 . S
C2729 C2727 1.327 . S
C2730 C2718 1.349 . S
C2730 H2724 0.950 . S
C2730 C2731 1.327 . S
C2731 H2725 0.950 . S
C2731 C2730 1.327 . S
C2731 C2735 1.429 . S
C2732 C2715 1.574 . S
C2732 H2726 0.949 . S
C2732 C2736 1.368 . S
C2733 C2714 1.429 . S
C2733 C2727 1.429 . S
C2733 C2734 1.523 . S
C2734 C2715 1.368 . S
C2734 C2728 1.368 . S
C2734 C2733 1.523 . S
C2735 C2719 1.429 . S
C2735 C2731 1.429 . S
C2735 C2736 1.523 . S
C2736 C2720 1.368 . S
C2736 C2732 1.368 . S
C2736 C2735 1.523 . S
H2737 C2712 0.950 . S
H2738 C2714 0.950 . S
H2739 C2715 0.949 . S
H2740 C2717 0.950 . S
H2741 C2719 0.950 . S
C2742 C2743 1.349 . S
C2742 C2744 1.327 . S
C2742 H2767 0.950 . S
C2743 C2742 1.349 . S
C2743 C2759 1.349 . S
C2744 C2742 1.327 . S
C2744 C2763 1.429 . S
C2744 H2768 0.950 . S
C2745 C2762 1.574 . S
C2745 C2764 1.368 . S
C2745 H2769 0.949 . S
H2746 C2750 0.949 . S
C2747 C2748 1.349 . S
C2747 C2749 1.327 . S
C2747 H2770 0.950 . S
C2748 C2747 1.349 . S
C2748 C2760 1.349 . S
C2749 C2747 1.327 . S
C2749 C2765 1.429 . S
C2749 H2771 0.950 . S
C2750 H2746 0.949 . S
C2750 C2758 1.574 . S
C2750 C2766 1.368 . S
H2751 C2759 0.950 . S
H2752 C2757 0.950 . S
H2753 C2758 0.949 . S
H2754 C2760 0.950 . S
H2755 C2761 0.950 . S
H2756 C2762 0.949 . S
C2757 H2752 0.950 . S
C2757 C2759 1.327 . S
C2757 C2763 1.429 . S
C2758 C2750 1.574 . S
C2758 H2753 0.949 . S
C2758 C2764 1.368 . S
C2759 C2743 1.349 . S
C2759 H2751 0.950 . S
C2759 C2757 1.327 . S
C2760 C2748 1.349 . S
C2760 H2754 0.950 . S
C2760 C2761 1.327 . S
C2761 H2755 0.950 . S
C2761 C2760 1.327 . S
C2761 C2765 1.429 . S
C2762 C2745 1.574 . S
C2762 H2756 0.949 . S
C2762 C2766 1.368 . S
C2763 C2744 1.429 . S
C2763 C2757 1.429 . S
C2763 C2764 1.523 . S
C2764 C2745 1.368 . S
C2764 C2758 1.368 . S
C2764 C2763 1.523 . S
C2765 C2749 1.429 . S
C2765 C2761 1.429 . S
C2765 C2766 1.523 . S
C2766 C2750 1.368 . S
C2766 C2762 1.368 . S
C2766 C2765 1.523 . S
H2767 C2742 0.950 . S
H2768 C2744 0.950 . S
H2769 C2745 0.949 . S
H2770 C2747 0.950 . S
H2771 C2749 0.950 . S
C2772 C2773 1.349 . S
C2772 C2774 1.327 . S
C2772 H2797 0.950 . S
C2773 C2772 1.349 . S
C2773 C2789 1.349 . S
C2774 C2772 1.327 . S
C2774 C2793 1.429 . S
C2774 H2798 0.950 . S
C2775 C2792 1.574 . S
C2775 C2794 1.368 . S
C2775 H2799 0.949 . S
H2776 C2780 0.949 . S
C2777 C2778 1.349 . S
C2777 C2779 1.327 . S
C2777 H2800 0.950 . S
C2778 C2777 1.349 . S
C2778 C2790 1.349 . S
C2779 C2777 1.327 . S
C2779 C2795 1.429 . S
C2779 H2801 0.950 . S
C2780 H2776 0.949 . S
C2780 C2788 1.574 . S
C2780 C2796 1.368 . S
H2781 C2789 0.950 . S
H2782 C2787 0.950 . S
H2783 C2788 0.949 . S
H2784 C2790 0.950 . S
H2785 C2791 0.950 . S
H2786 C2792 0.949 . S
C2787 H2782 0.950 . S
C2787 C2789 1.327 . S
C2787 C2793 1.429 . S
C2788 C2780 1.574 . S
C2788 H2783 0.949 . S
C2788 C2794 1.368 . S
C2789 C2773 1.349 . S
C2789 H2781 0.950 . S
C2789 C2787 1.327 . S
C2790 C2778 1.349 . S
C2790 H2784 0.950 . S
C2790 C2791 1.327 . S
C2791 H2785 0.950 . S
C2791 C2790 1.327 . S
C2791 C2795 1.429 . S
C2792 C2775 1.574 . S
C2792 H2786 0.949 . S
C2792 C2796 1.368 . S
C2793 C2774 1.429 . S
C2793 C2787 1.429 . S
C2793 C2794 1.523 . S
C2794 C2775 1.368 . S
C2794 C2788 1.368 . S
C2794 C2793 1.523 . S
C2795 C2779 1.429 . S
C2795 C2791 1.429 . S
C2795 C2796 1.523 . S
C2796 C2780 1.368 . S
C2796 C2792 1.368 . S
C2796 C2795 1.523 . S
H2797 C2772 0.950 . S
H2798 C2774 0.950 . S
H2799 C2775 0.949 . S
H2800 C2777 0.950 . S
H2801 C2779 0.950 . S
C2802 C2803 1.349 . S
C2802 C2804 1.327 . S
C2802 H2827 0.950 . S
C2803 C2802 1.349 . S
C2803 C2819 1.349 . S
C2804 C2802 1.327 . S
C2804 C2823 1.429 . S
C2804 H2828 0.950 . S
C2805 C2822 1.574 . S
C2805 C2824 1.368 . S
C2805 H2829 0.949 . S
H2806 C2810 0.949 . S
C2807 C2808 1.349 . S
C2807 C2809 1.327 . S
C2807 H2830 0.950 . S
C2808 C2807 1.349 . S
C2808 C2820 1.349 . S
C2809 C2807 1.327 . S
C2809 C2825 1.429 . S
C2809 H2831 0.950 . S
C2810 H2806 0.949 . S
C2810 C2818 1.574 . S
C2810 C2826 1.368 . S
H2811 C2819 0.950 . S
H2812 C2817 0.950 . S
H2813 C2818 0.949 . S
H2814 C2820 0.950 . S
H2815 C2821 0.950 . S
H2816 C2822 0.949 . S
C2817 H2812 0.950 . S
C2817 C2819 1.327 . S
C2817 C2823 1.429 . S
C2818 C2810 1.574 . S
C2818 H2813 0.949 . S
C2818 C2824 1.368 . S
C2819 C2803 1.349 . S
C2819 H2811 0.950 . S
C2819 C2817 1.327 . S
C2820 C2808 1.349 . S
C2820 H2814 0.950 . S
C2820 C2821 1.327 . S
C2821 H2815 0.950 . S
C2821 C2820 1.327 . S
C2821 C2825 1.429 . S
C2822 C2805 1.574 . S
C2822 H2816 0.949 . S
C2822 C2826 1.368 . S
C2823 C2804 1.429 . S
C2823 C2817 1.429 . S
C2823 C2824 1.523 . S
C2824 C2805 1.368 . S
C2824 C2818 1.368 . S
C2824 C2823 1.523 . S
C2825 C2809 1.429 . S
C2825 C2821 1.429 . S
C2825 C2826 1.523 . S
C2826 C2810 1.368 . S
C2826 C2822 1.368 . S
C2826 C2825 1.523 . S
H2827 C2802 0.950 . S
H2828 C2804 0.950 . S
H2829 C2805 0.949 . S
H2830 C2807 0.950 . S
H2831 C2809 0.950 . S
C2832 C2833 1.349 . S
C2832 C2834 1.327 . S
C2832 H2857 0.950 . S
C2833 C2832 1.349 . S
C2833 C2849 1.349 . S
C2834 C2832 1.327 . S
C2834 C2853 1.429 . S
C2834 H2858 0.950 . S
C2835 C2852 1.574 . S
C2835 C2854 1.368 . S
C2835 H2859 0.949 . S
H2836 C2840 0.949 . S
C2837 C2838 1.349 . S
C2837 C2839 1.327 . S
C2837 H2860 0.950 . S
C2838 C2837 1.349 . S
C2838 C2850 1.349 . S
C2839 C2837 1.327 . S
C2839 C2855 1.429 . S
C2839 H2861 0.950 . S
C2840 H2836 0.949 . S
C2840 C2848 1.574 . S
C2840 C2856 1.368 . S
H2841 C2849 0.950 . S
H2842 C2847 0.950 . S
H2843 C2848 0.949 . S
H2844 C2850 0.950 . S
H2845 C2851 0.950 . S
H2846 C2852 0.949 . S
C2847 H2842 0.950 . S
C2847 C2849 1.327 . S
C2847 C2853 1.429 . S
C2848 C2840 1.574 . S
C2848 H2843 0.949 . S
C2848 C2854 1.368 . S
C2849 C2833 1.349 . S
C2849 H2841 0.950 . S
C2849 C2847 1.327 . S
C2850 C2838 1.349 . S
C2850 H2844 0.950 . S
C2850 C2851 1.327 . S
C2851 H2845 0.950 . S
C2851 C2850 1.327 . S
C2851 C2855 1.429 . S
C2852 C2835 1.574 . S
C2852 H2846 0.949 . S
C2852 C2856 1.368 . S
C2853 C2834 1.429 . S
C2853 C2847 1.429 . S
C2853 C2854 1.523 . S
C2854 C2835 1.368 . S
C2854 C2848 1.368 . S
C2854 C2853 1.523 . S
C2855 C2839 1.429 . S
C2855 C2851 1.429 . S
C2855 C2856 1.523 . S
C2856 C2840 1.368 . S
C2856 C2852 1.368 . S
C2856 C2855 1.523 . S
H2857 C2832 0.950 . S
H2858 C2834 0.950 . S
H2859 C2835 0.949 . S
H2860 C2837 0.950 . S
H2861 C2839 0.950 . S
C2862 C2863 1.349 . S
C2862 C2864 1.327 . S
C2862 H2887 0.950 . S
C2863 C2862 1.349 . S
C2863 C2879 1.349 . S
C2864 C2862 1.327 . S
C2864 C2883 1.429 . S
C2864 H2888 0.950 . S
C2865 C2882 1.574 . S
C2865 C2884 1.368 . S
C2865 H2889 0.949 . S
H2866 C2870 0.949 . S
C2867 C2868 1.349 . S
C2867 C2869 1.327 . S
C2867 H2890 0.950 . S
C2868 C2867 1.349 . S
C2868 C2880 1.349 . S
C2869 C2867 1.327 . S
C2869 C2885 1.429 . S
C2869 H2891 0.950 . S
C2870 H2866 0.949 . S
C2870 C2878 1.574 . S
C2870 C2886 1.368 . S
H2871 C2879 0.950 . S
H2872 C2877 0.950 . S
H2873 C2878 0.949 . S
H2874 C2880 0.950 . S
H2875 C2881 0.950 . S
H2876 C2882 0.949 . S
C2877 H2872 0.950 . S
C2877 C2879 1.327 . S
C2877 C2883 1.429 . S
C2878 C2870 1.574 . S
C2878 H2873 0.949 . S
C2878 C2884 1.368 . S
C2879 C2863 1.349 . S
C2879 H2871 0.950 . S
C2879 C2877 1.327 . S
C2880 C2868 1.349 . S
C2880 H2874 0.950 . S
C2880 C2881 1.327 . S
C2881 H2875 0.950 . S
C2881 C2880 1.327 . S
C2881 C2885 1.429 . S
C2882 C2865 1.574 . S
C2882 H2876 0.949 . S
C2882 C2886 1.368 . S
C2883 C2864 1.429 . S
C2883 C2877 1.429 . S
C2883 C2884 1.523 . S
C2884 C2865 1.368 . S
C2884 C2878 1.368 . S
C2884 C2883 1.523 . S
C2885 C2869 1.429 . S
C2885 C2881 1.429 . S
C2885 C2886 1.523 . S
C2886 C2870 1.368 . S
C2886 C2882 1.368 . S
C2886 C2885 1.523 . S
H2887 C2862 0.950 . S
H2888 C2864 0.950 . S
H2889 C2865 0.949 . S
H2890 C2867 0.950 . S
H2891 C2869 0.950 . S
C2892 C2893 1.349 . S
C2892 C2894 1.327 . S
C2892 H2917 0.950 . S
C2893 C2892 1.349 . S
C2893 C2909 1.349 . S
C2894 C2892 1.327 . S
C2894 C2913 1.429 . S
C2894 H2918 0.950 . S
C2895 C2912 1.574 . S
C2895 C2914 1.368 . S
C2895 H2919 0.949 . S
H2896 C2900 0.949 . S
C2897 C2898 1.349 . S
C2897 C2899 1.327 . S
C2897 H2920 0.950 . S
C2898 C2897 1.349 . S
C2898 C2910 1.349 . S
C2899 C2897 1.327 . S
C2899 C2915 1.429 . S
C2899 H2921 0.950 . S
C2900 H2896 0.949 . S
C2900 C2908 1.574 . S
C2900 C2916 1.368 . S
H2901 C2909 0.950 . S
H2902 C2907 0.950 . S
H2903 C2908 0.949 . S
H2904 C2910 0.950 . S
H2905 C2911 0.950 . S
H2906 C2912 0.949 . S
C2907 H2902 0.950 . S
C2907 C2909 1.327 . S
C2907 C2913 1.429 . S
C2908 C2900 1.574 . S
C2908 H2903 0.949 . S
C2908 C2914 1.368 . S
C2909 C2893 1.349 . S
C2909 H2901 0.950 . S
C2909 C2907 1.327 . S
C2910 C2898 1.349 . S
C2910 H2904 0.950 . S
C2910 C2911 1.327 . S
C2911 H2905 0.950 . S
C2911 C2910 1.327 . S
C2911 C2915 1.429 . S
C2912 C2895 1.574 . S
C2912 H2906 0.949 . S
C2912 C2916 1.368 . S
C2913 C2894 1.429 . S
C2913 C2907 1.429 . S
C2913 C2914 1.523 . S
C2914 C2895 1.368 . S
C2914 C2908 1.368 . S
C2914 C2913 1.523 . S
C2915 C2899 1.429 . S
C2915 C2911 1.429 . S
C2915 C2916 1.523 . S
C2916 C2900 1.368 . S
C2916 C2912 1.368 . S
C2916 C2915 1.523 . S
H2917 C2892 0.950 . S
H2918 C2894 0.950 . S
H2919 C2895 0.949 . S
H2920 C2897 0.950 . S
H2921 C2899 0.950 . S
C2922 C2923 1.349 . S
C2922 C2924 1.327 . S
C2922 H2947 0.950 . S
C2923 C2922 1.349 . S
C2923 C2939 1.349 . S
C2924 C2922 1.327 . S
C2924 C2943 1.429 . S
C2924 H2948 0.950 . S
C2925 C2942 1.574 . S
C2925 C2944 1.368 . S
C2925 H2949 0.949 . S
H2926 C2930 0.949 . S
C2927 C2928 1.349 . S
C2927 C2929 1.327 . S
C2927 H2950 0.950 . S
C2928 C2927 1.349 . S
C2928 C2940 1.349 . S
C2929 C2927 1.327 . S
C2929 C2945 1.429 . S
C2929 H2951 0.950 . S
C2930 H2926 0.949 . S
C2930 C2938 1.574 . S
C2930 C2946 1.368 . S
H2931 C2939 0.950 . S
H2932 C2937 0.950 . S
H2933 C2938 0.949 . S
H2934 C2940 0.950 . S
H2935 C2941 0.950 . S
H2936 C2942 0.949 . S
C2937 H2932 0.950 . S
C2937 C2939 1.327 . S
C2937 C2943 1.429 . S
C2938 C2930 1.574 . S
C2938 H2933 0.949 . S
C2938 C2944 1.368 . S
C2939 C2923 1.349 . S
C2939 H2931 0.950 . S
C2939 C2937 1.327 . S
C2940 C2928 1.349 . S
C2940 H2934 0.950 . S
C2940 C2941 1.327 . S
C2941 H2935 0.950 . S
C2941 C2940 1.327 . S
C2941 C2945 1.429 . S
C2942 C2925 1.574 . S
C2942 H2936 0.949 . S
C2942 C2946 1.368 . S
C2943 C2924 1.429 . S
C2943 C2937 1.429 . S
C2943 C2944 1.523 . S
C2944 C2925 1.368 . S
C2944 C2938 1.368 . S
C2944 C2943 1.523 . S
C2945 C2929 1.429 . S
C2945 C2941 1.429 . S
C2945 C2946 1.523 . S
C2946 C2930 1.368 . S
C2946 C2942 1.368 . S
C2946 C2945 1.523 . S
H2947 C2922 0.950 . S
H2948 C2924 0.950 . S
H2949 C2925 0.949 . S
H2950 C2927 0.950 . S
H2951 C2929 0.950 . S
C2952 C2953 1.349 . S
C2952 C2954 1.327 . S
C2952 H2977 0.950 . S
C2953 C2952 1.349 . S
C2953 C2969 1.349 . S
C2954 C2952 1.327 . S
C2954 C2973 1.429 . S
C2954 H2978 0.950 . S
C2955 C2972 1.574 . S
C2955 C2974 1.368 . S
C2955 H2979 0.949 . S
H2956 C2960 0.949 . S
C2957 C2958 1.349 . S
C2957 C2959 1.327 . S
C2957 H2980 0.950 . S
C2958 C2957 1.349 . S
C2958 C2970 1.349 . S
C2959 C2957 1.327 . S
C2959 C2975 1.429 . S
C2959 H2981 0.950 . S
C2960 H2956 0.949 . S
C2960 C2968 1.574 . S
C2960 C2976 1.368 . S
H2961 C2969 0.950 . S
H2962 C2967 0.950 . S
H2963 C2968 0.949 . S
H2964 C2970 0.950 . S
H2965 C2971 0.950 . S
H2966 C2972 0.949 . S
C2967 H2962 0.950 . S
C2967 C2969 1.327 . S
C2967 C2973 1.429 . S
C2968 C2960 1.574 . S
C2968 H2963 0.949 . S
C2968 C2974 1.368 . S
C2969 C2953 1.349 . S
C2969 H2961 0.950 . S
C2969 C2967 1.327 . S
C2970 C2958 1.349 . S
C2970 H2964 0.950 . S
C2970 C2971 1.327 . S
C2971 H2965 0.950 . S
C2971 C2970 1.327 . S
C2971 C2975 1.429 . S
C2972 C2955 1.574 . S
C2972 H2966 0.949 . S
C2972 C2976 1.368 . S
C2973 C2954 1.429 . S
C2973 C2967 1.429 . S
C2973 C2974 1.523 . S
C2974 C2955 1.368 . S
C2974 C2968 1.368 . S
C2974 C2973 1.523 . S
C2975 C2959 1.429 . S
C2975 C2971 1.429 . S
C2975 C2976 1.523 . S
C2976 C2960 1.368 . S
C2976 C2972 1.368 . S
C2976 C2975 1.523 . S
H2977 C2952 0.950 . S
H2978 C2954 0.950 . S
H2979 C2955 0.949 . S
H2980 C2957 0.950 . S
H2981 C2959 0.950 . S
C2982 C2983 1.349 . S
C2982 C2984 1.327 . S
C2982 H3007 0.950 . S
C2983 C2982 1.349 . S
C2983 C2999 1.349 . S
C2984 C2982 1.327 . S
C2984 C3003 1.429 . S
C2984 H3008 0.950 . S
C2985 C3002 1.574 . S
C2985 C3004 1.368 . S
C2985 H3009 0.949 . S
H2986 C2990 0.949 . S
C2987 C2988 1.349 . S
C2987 C2989 1.327 . S
C2987 H3010 0.950 . S
C2988 C2987 1.349 . S
C2988 C3000 1.349 . S
C2989 C2987 1.327 . S
C2989 C3005 1.429 . S
C2989 H3011 0.950 . S
C2990 H2986 0.949 . S
C2990 C2998 1.574 . S
C2990 C3006 1.368 . S
H2991 C2999 0.950 . S
H2992 C2997 0.950 . S
H2993 C2998 0.949 . S
H2994 C3000 0.950 . S
H2995 C3001 0.950 . S
H2996 C3002 0.949 . S
C2997 H2992 0.950 . S
C2997 C2999 1.327 . S
C2997 C3003 1.429 . S
C2998 C2990 1.574 . S
C2998 H2993 0.949 . S
C2998 C3004 1.368 . S
C2999 C2983 1.349 . S
C2999 H2991 0.950 . S
C2999 C2997 1.327 . S
C3000 C2988 1.349 . S
C3000 H2994 0.950 . S
C3000 C3001 1.327 . S
C3001 H2995 0.950 . S
C3001 C3000 1.327 . S
C3001 C3005 1.429 . S
C3002 C2985 1.574 . S
C3002 H2996 0.949 . S
C3002 C3006 1.368 . S
C3003 C2984 1.429 . S
C3003 C2997 1.429 . S
C3003 C3004 1.523 . S
C3004 C2985 1.368 . S
C3004 C2998 1.368 . S
C3004 C3003 1.523 . S
C3005 C2989 1.429 . S
C3005 C3001 1.429 . S
C3005 C3006 1.523 . S
C3006 C2990 1.368 . S
C3006 C3002 1.368 . S
C3006 C3005 1.523 . S
H3007 C2982 0.950 . S
H3008 C2984 0.950 . S
H3009 C2985 0.949 . S
H3010 C2987 0.950 . S
H3011 C2989 0.950 . S
C3012 C3013 1.349 . S
C3012 C3014 1.327 . S
C3012 H3037 0.950 . S
C3013 C3012 1.349 . S
C3013 C3029 1.349 . S
C3014 C3012 1.327 . S
C3014 C3033 1.429 . S
C3014 H3038 0.950 . S
C3015 C3032 1.574 . S
C3015 C3034 1.368 . S
C3015 H3039 0.949 . S
H3016 C3020 0.949 . S
C3017 C3018 1.349 . S
C3017 C3019 1.327 . S
C3017 H3040 0.950 . S
C3018 C3017 1.349 . S
C3018 C3030 1.349 . S
C3019 C3017 1.327 . S
C3019 C3035 1.429 . S
C3019 H3041 0.950 . S
C3020 H3016 0.949 . S
C3020 C3028 1.574 . S
C3020 C3036 1.368 . S
H3021 C3029 0.950 . S
H3022 C3027 0.950 . S
H3023 C3028 0.949 . S
H3024 C3030 0.950 . S
H3025 C3031 0.950 . S
H3026 C3032 0.949 . S
C3027 H3022 0.950 . S
C3027 C3029 1.327 . S
C3027 C3033 1.429 . S
C3028 C3020 1.574 . S
C3028 H3023 0.949 . S
C3028 C3034 1.368 . S
C3029 C3013 1.349 . S
C3029 H3021 0.950 . S
C3029 C3027 1.327 . S
C3030 C3018 1.349 . S
C3030 H3024 0.950 . S
C3030 C3031 1.327 . S
C3031 H3025 0.950 . S
C3031 C3030 1.327 . S
C3031 C3035 1.429 . S
C3032 C3015 1.574 . S
C3032 H3026 0.949 . S
C3032 C3036 1.368 . S
C3033 C3014 1.429 . S
C3033 C3027 1.429 . S
C3033 C3034 1.523 . S
C3034 C3015 1.368 . S
C3034 C3028 1.368 . S
C3034 C3033 1.523 . S
C3035 C3019 1.429 . S
C3035 C3031 1.429 . S
C3035 C3036 1.523 . S
C3036 C3020 1.368 . S
C3036 C3032 1.368 . S
C3036 C3035 1.523 . S
H3037 C3012 0.950 . S
H3038 C3014 0.950 . S
H3039 C3015 0.949 . S
H3040 C3017 0.950 . S
H3041 C3019 0.950 . S
C3042 C3043 1.349 . S
C3042 C3044 1.327 . S
C3042 H3067 0.950 . S
C3043 C3042 1.349 . S
C3043 C3059 1.349 . S
C3044 C3042 1.327 . S
C3044 C3063 1.429 . S
C3044 H3068 0.950 . S
C3045 C3062 1.574 . S
C3045 C3064 1.368 . S
C3045 H3069 0.949 . S
H3046 C3050 0.949 . S
C3047 C3048 1.349 . S
C3047 C3049 1.327 . S
C3047 H3070 0.950 . S
C3048 C3047 1.349 . S
C3048 C3060 1.349 . S
C3049 C3047 1.327 . S
C3049 C3065 1.429 . S
C3049 H3071 0.950 . S
C3050 H3046 0.949 . S
C3050 C3058 1.574 . S
C3050 C3066 1.368 . S
H3051 C3059 0.950 . S
H3052 C3057 0.950 . S
H3053 C3058 0.949 . S
H3054 C3060 0.950 . S
H3055 C3061 0.950 . S
H3056 C3062 0.949 . S
C3057 H3052 0.950 . S
C3057 C3059 1.327 . S
C3057 C3063 1.429 . S
C3058 C3050 1.574 . S
C3058 H3053 0.949 . S
C3058 C3064 1.368 . S
C3059 C3043 1.349 . S
C3059 H3051 0.950 . S
C3059 C3057 1.327 . S
C3060 C3048 1.349 . S
C3060 H3054 0.950 . S
C3060 C3061 1.327 . S
C3061 H3055 0.950 . S
C3061 C3060 1.327 . S
C3061 C3065 1.429 . S
C3062 C3045 1.574 . S
C3062 H3056 0.949 . S
C3062 C3066 1.368 . S
C3063 C3044 1.429 . S
C3063 C3057 1.429 . S
C3063 C3064 1.523 . S
C3064 C3045 1.368 . S
C3064 C3058 1.368 . S
C3064 C3063 1.523 . S
C3065 C3049 1.429 . S
C3065 C3061 1.429 . S
C3065 C3066 1.523 . S
C3066 C3050 1.368 . S
C3066 C3062 1.368 . S
C3066 C3065 1.523 . S
H3067 C3042 0.950 . S
H3068 C3044 0.950 . S
H3069 C3045 0.949 . S
H3070 C3047 0.950 . S
H3071 C3049 0.950 . S
C3072 C3073 1.349 . S
C3072 C3074 1.327 . S
C3072 H3097 0.950 . S
C3073 C3072 1.349 . S
C3073 C3089 1.349 . S
C3074 C3072 1.327 . S
C3074 C3093 1.429 . S
C3074 H3098 0.950 . S
C3075 C3092 1.574 . S
C3075 C3094 1.368 . S
C3075 H3099 0.949 . S
H3076 C3080 0.949 . S
C3077 C3078 1.349 . S
C3077 C3079 1.327 . S
C3077 H3100 0.950 . S
C3078 C3077 1.349 . S
C3078 C3090 1.349 . S
C3079 C3077 1.327 . S
C3079 C3095 1.429 . S
C3079 H3101 0.950 . S
C3080 H3076 0.949 . S
C3080 C3088 1.574 . S
C3080 C3096 1.368 . S
H3081 C3089 0.950 . S
H3082 C3087 0.950 . S
H3083 C3088 0.949 . S
H3084 C3090 0.950 . S
H3085 C3091 0.950 . S
H3086 C3092 0.949 . S
C3087 H3082 0.950 . S
C3087 C3089 1.327 . S
C3087 C3093 1.429 . S
C3088 C3080 1.574 . S
C3088 H3083 0.949 . S
C3088 C3094 1.368 . S
C3089 C3073 1.349 . S
C3089 H3081 0.950 . S
C3089 C3087 1.327 . S
C3090 C3078 1.349 . S
C3090 H3084 0.950 . S
C3090 C3091 1.327 . S
C3091 H3085 0.950 . S
C3091 C3090 1.327 . S
C3091 C3095 1.429 . S
C3092 C3075 1.574 . S
C3092 H3086 0.949 . S
C3092 C3096 1.368 . S
C3093 C3074 1.429 . S
C3093 C3087 1.429 . S
C3093 C3094 1.523 . S
C3094 C3075 1.368 . S
C3094 C3088 1.368 . S
C3094 C3093 1.523 . S
C3095 C3079 1.429 . S
C3095 C3091 1.429 . S
C3095 C3096 1.523 . S
C3096 C3080 1.368 . S
C3096 C3092 1.368 . S
C3096 C3095 1.523 . S
H3097 C3072 0.950 . S
H3098 C3074 0.950 . S
H3099 C3075 0.949 . S
H3100 C3077 0.950 . S
H3101 C3079 0.950 . S
C3102 C3103 1.349 . S
C3102 C3104 1.327 . S
C3102 H3127 0.950 . S
C3103 C3102 1.349 . S
C3103 C3119 1.349 . S
C3104 C3102 1.327 . S
C3104 C3123 1.429 . S
C3104 H3128 0.950 . S
C3105 C3122 1.574 . S
C3105 C3124 1.368 . S
C3105 H3129 0.949 . S
H3106 C3110 0.949 . S
C3107 C3108 1.349 . S
C3107 C3109 1.327 . S
C3107 H3130 0.950 . S
C3108 C3107 1.349 . S
C3108 C3120 1.349 . S
C3109 C3107 1.327 . S
C3109 C3125 1.429 . S
C3109 H3131 0.950 . S
C3110 H3106 0.949 . S
C3110 C3118 1.574 . S
C3110 C3126 1.368 . S
H3111 C3119 0.950 . S
H3112 C3117 0.950 . S
H3113 C3118 0.949 . S
H3114 C3120 0.950 . S
H3115 C3121 0.950 . S
H3116 C3122 0.949 . S
C3117 H3112 0.950 . S
C3117 C3119 1.327 . S
C3117 C3123 1.429 . S
C3118 C3110 1.574 . S
C3118 H3113 0.949 . S
C3118 C3124 1.368 . S
C3119 C3103 1.349 . S
C3119 H3111 0.950 . S
C3119 C3117 1.327 . S
C3120 C3108 1.349 . S
C3120 H3114 0.950 . S
C3120 C3121 1.327 . S
C3121 H3115 0.950 . S
C3121 C3120 1.327 . S
C3121 C3125 1.429 . S
C3122 C3105 1.574 . S
C3122 H3116 0.949 . S
C3122 C3126 1.368 . S
C3123 C3104 1.429 . S
C3123 C3117 1.429 . S
C3123 C3124 1.523 . S
C3124 C3105 1.368 . S
C3124 C3118 1.368 . S
C3124 C3123 1.523 . S
C3125 C3109 1.429 . S
C3125 C3121 1.429 . S
C3125 C3126 1.523 . S
C3126 C3110 1.368 . S
C3126 C3122 1.368 . S
C3126 C3125 1.523 . S
H3127 C3102 0.950 . S
H3128 C3104 0.950 . S
H3129 C3105 0.949 . S
H3130 C3107 0.950 . S
H3131 C3109 0.950 . S
C3132 C3133 1.349 . S
C3132 C3134 1.327 . S
C3132 H3157 0.949 . S
C3133 C3132 1.349 . S
C3133 C3149 1.349 . S
C3134 C3132 1.327 . S
C3134 C3153 1.429 . S
C3134 H3158 0.950 . S
C3135 C3152 1.574 . S
C3135 C3154 1.368 . S
C3135 H3159 0.949 . S
H3136 C3140 0.949 . S
C3137 C3138 1.349 . S
C3137 C3139 1.327 . S
C3137 H3160 0.950 . S
C3138 C3137 1.349 . S
C3138 C3150 1.349 . S
C3139 C3137 1.327 . S
C3139 C3155 1.429 . S
C3139 H3161 0.950 . S
C3140 H3136 0.949 . S
C3140 C3148 1.574 . S
C3140 C3156 1.368 . S
H3141 C3149 0.950 . S
H3142 C3147 0.950 . S
H3143 C3148 0.949 . S
H3144 C3150 0.950 . S
H3145 C3151 0.950 . S
H3146 C3152 0.949 . S
C3147 H3142 0.950 . S
C3147 C3149 1.327 . S
C3147 C3153 1.429 . S
C3148 C3140 1.574 . S
C3148 H3143 0.949 . S
C3148 C3154 1.368 . S
C3149 C3133 1.349 . S
C3149 H3141 0.950 . S
C3149 C3147 1.327 . S
C3150 C3138 1.349 . S
C3150 H3144 0.950 . S
C3150 C3151 1.327 . S
C3151 H3145 0.950 . S
C3151 C3150 1.327 . S
C3151 C3155 1.429 . S
C3152 C3135 1.574 . S
C3152 H3146 0.949 . S
C3152 C3156 1.368 . S
C3153 C3134 1.429 . S
C3153 C3147 1.429 . S
C3153 C3154 1.523 . S
C3154 C3135 1.368 . S
C3154 C3148 1.368 . S
C3154 C3153 1.523 . S
C3155 C3139 1.429 . S
C3155 C3151 1.429 . S
C3155 C3156 1.523 . S
C3156 C3140 1.368 . S
C3156 C3152 1.368 . S
C3156 C3155 1.523 . S
H3157 C3132 0.949 . S
H3158 C3134 0.950 . S
H3159 C3135 0.949 . S
H3160 C3137 0.950 . S
H3161 C3139 0.950 . S
C3162 C3163 1.349 . S
C3162 C3164 1.327 . S
C3162 H3187 0.950 . S
C3163 C3162 1.349 . S
C3163 C3179 1.349 . S
C3164 C3162 1.327 . S
C3164 C3183 1.429 . S
C3164 H3188 0.950 . S
C3165 C3182 1.574 . S
C3165 C3184 1.368 . S
C3165 H3189 0.949 . S
H3166 C3170 0.949 . S
C3167 C3168 1.349 . S
C3167 C3169 1.327 . S
C3167 H3190 0.950 . S
C3168 C3167 1.349 . S
C3168 C3180 1.349 . S
C3169 C3167 1.327 . S
C3169 C3185 1.429 . S
C3169 H3191 0.950 . S
C3170 H3166 0.949 . S
C3170 C3178 1.574 . S
C3170 C3186 1.368 . S
H3171 C3179 0.950 1_554 S
H3172 C3177 0.950 . S
H3173 C3178 0.949 . S
H3174 C3180 0.950 . S
H3175 C3181 0.950 . S
H3176 C3182 0.949 . S
C3177 H3172 0.950 . S
C3177 C3179 1.327 . S
C3177 C3183 1.429 . S
C3178 C3170 1.574 . S
C3178 H3173 0.949 . S
C3178 C3184 1.368 . S
C3179 C3163 1.349 . S
C3179 H3171 0.950 1_556 S
C3179 C3177 1.327 . S
C3180 C3168 1.349 . S
C3180 H3174 0.950 . S
C3180 C3181 1.327 . S
C3181 H3175 0.950 . S
C3181 C3180 1.327 . S
C3181 C3185 1.429 . S
C3182 C3165 1.574 . S
C3182 H3176 0.949 . S
C3182 C3186 1.368 . S
C3183 C3164 1.429 . S
C3183 C3177 1.429 . S
C3183 C3184 1.523 . S
C3184 C3165 1.368 . S
C3184 C3178 1.368 . S
C3184 C3183 1.523 . S
C3185 C3169 1.429 . S
C3185 C3181 1.429 . S
C3185 C3186 1.523 . S
C3186 C3170 1.368 . S
C3186 C3182 1.368 . S
C3186 C3185 1.523 . S
H3187 C3162 0.950 . S
H3188 C3164 0.950 . S
H3189 C3165 0.949 . S
H3190 C3167 0.950 . S
H3191 C3169 0.950 . S
C3192 C3193 1.349 . S
C3192 C3194 1.327 . S
C3192 H3217 0.950 . S
C3193 C3192 1.349 . S
C3193 C3209 1.349 . S
C3194 C3192 1.327 . S
C3194 C3213 1.429 . S
C3194 H3218 0.950 . S
C3195 C3212 1.574 . S
C3195 C3214 1.368 . S
C3195 H3219 0.949 . S
H3196 C3200 0.949 . S
C3197 C3198 1.349 . S
C3197 C3199 1.327 . S
C3197 H3220 0.950 . S
C3198 C3197 1.349 . S
C3198 C3210 1.349 . S
C3199 C3197 1.327 . S
C3199 C3215 1.429 . S
C3199 H3221 0.950 . S
C3200 H3196 0.949 . S
C3200 C3208 1.574 . S
C3200 C3216 1.368 . S
H3201 C3209 0.950 1_554 S
H3202 C3207 0.987 . S
H3203 C3208 0.949 . S
H3204 C3210 0.950 . S
H3205 C3211 0.950 . S
H3206 C3212 0.949 . S
C3207 H3202 0.987 . S
C3207 C3209 1.327 . S
C3207 C3213 1.429 . S
C3208 C3200 1.574 . S
C3208 H3203 0.949 . S
C3208 C3214 1.368 . S
C3209 C3193 1.349 . S
C3209 H3201 0.950 1_556 S
C3209 C3207 1.327 . S
C3210 C3198 1.349 . S
C3210 H3204 0.950 . S
C3210 C3211 1.327 . S
C3211 H3205 0.950 . S
C3211 C3210 1.327 . S
C3211 C3215 1.429 . S
C3212 C3195 1.574 . S
C3212 H3206 0.949 . S
C3212 C3216 1.368 . S
C3213 C3194 1.429 . S
C3213 C3207 1.429 . S
C3213 C3214 1.523 . S
C3214 C3195 1.368 . S
C3214 C3208 1.368 . S
C3214 C3213 1.523 . S
C3215 C3199 1.429 . S
C3215 C3211 1.429 . S
C3215 C3216 1.523 . S
C3216 C3200 1.368 . S
C3216 C3212 1.368 . S
C3216 C3215 1.523 . S
H3217 C3192 0.950 . S
H3218 C3194 0.950 . S
H3219 C3195 0.949 . S
H3220 C3197 0.950 . S
H3221 C3199 0.950 . S
C3222 C3223 1.349 . S
C3222 C3224 1.327 . S
C3222 H3247 0.950 . S
C3223 C3222 1.349 . S
C3223 C3239 1.349 . S
C3224 C3222 1.327 . S
C3224 C3243 1.429 . S
C3224 H3248 0.950 . S
C3225 C3242 1.574 . S
C3225 C3244 1.368 . S
C3225 H3249 0.949 . S
H3226 C3230 0.949 . S
C3227 C3228 1.349 . S
C3227 C3229 1.327 . S
C3227 H3250 0.950 . S
C3228 C3227 1.349 . S
C3228 C3240 1.349 . S
C3229 C3227 1.327 . S
C3229 C3245 1.429 . S
C3229 H3251 0.950 . S
C3230 H3226 0.949 . S
C3230 C3238 1.574 . S
C3230 C3246 1.368 . S
H3231 C3239 0.950 . S
H3232 C3237 0.950 . S
H3233 C3238 0.949 . S
H3234 C3240 0.950 . S
H3235 C3241 0.950 . S
H3236 C3242 0.949 . S
C3237 H3232 0.950 . S
C3237 C3239 1.327 . S
C3237 C3243 1.429 . S
C3238 C3230 1.574 . S
C3238 H3233 0.949 . S
C3238 C3244 1.368 . S
C3239 C3223 1.349 . S
C3239 H3231 0.950 . S
C3239 C3237 1.327 . S
C3240 C3228 1.349 . S
C3240 H3234 0.950 . S
C3240 C3241 1.327 . S
C3241 H3235 0.950 . S
C3241 C3240 1.327 . S
C3241 C3245 1.429 . S
C3242 C3225 1.574 . S
C3242 H3236 0.949 . S
C3242 C3246 1.368 . S
C3243 C3224 1.429 . S
C3243 C3237 1.429 . S
C3243 C3244 1.523 . S
C3244 C3225 1.368 . S
C3244 C3238 1.368 . S
C3244 C3243 1.523 . S
C3245 C3229 1.429 . S
C3245 C3241 1.429 . S
C3245 C3246 1.523 . S
C3246 C3230 1.368 . S
C3246 C3242 1.368 . S
C3246 C3245 1.523 . S
H3247 C3222 0.950 . S
H3248 C3224 0.950 . S
H3249 C3225 0.949 . S
H3250 C3227 0.950 . S
H3251 C3229 0.950 . S
C3252 C3253 1.349 . S
C3252 C3254 1.327 . S
C3252 H3277 0.950 . S
C3253 C3252 1.349 . S
C3253 C3269 1.349 . S
C3254 C3252 1.327 . S
C3254 C3273 1.429 . S
C3254 H3278 0.950 . S
C3255 C3272 1.574 . S
C3255 C3274 1.368 . S
C3255 H3279 0.949 . S
H3256 C3260 0.949 . S
C3257 C3258 1.349 . S
C3257 C3259 1.327 . S
C3257 H3280 0.950 . S
C3258 C3257 1.349 . S
C3258 C3270 1.349 . S
C3259 C3257 1.327 . S
C3259 C3275 1.429 . S
C3259 H3281 0.950 . S
C3260 H3256 0.949 . S
C3260 C3268 1.574 . S
C3260 C3276 1.368 . S
H3261 C3269 0.950 1_554 S
H3262 C3267 0.950 . S
H3263 C3268 0.949 . S
H3264 C3270 0.950 . S
H3265 C3271 0.950 . S
H3266 C3272 0.949 . S
C3267 H3262 0.950 . S
C3267 C3269 1.327 . S
C3267 C3273 1.429 . S
C3268 C3260 1.574 . S
C3268 H3263 0.949 . S
C3268 C3274 1.368 . S
C3269 C3253 1.349 . S
C3269 H3261 0.950 1_556 S
C3269 C3267 1.327 . S
C3270 C3258 1.349 . S
C3270 H3264 0.950 . S
C3270 C3271 1.327 . S
C3271 H3265 0.950 . S
C3271 C3270 1.327 . S
C3271 C3275 1.429 . S
C3272 C3255 1.574 . S
C3272 H3266 0.949 . S
C3272 C3276 1.368 . S
C3273 C3254 1.429 . S
C3273 C3267 1.429 . S
C3273 C3274 1.523 . S
C3274 C3255 1.368 . S
C3274 C3268 1.368 . S
C3274 C3273 1.523 . S
C3275 C3259 1.429 . S
C3275 C3271 1.429 . S
C3275 C3276 1.523 . S
C3276 C3260 1.368 . S
C3276 C3272 1.368 . S
C3276 C3275 1.523 . S
H3277 C3252 0.950 . S
H3278 C3254 0.950 . S
H3279 C3255 0.949 . S
H3280 C3257 0.950 . S
H3281 C3259 0.950 . S
C3282 C3283 1.349 . S
C3282 C3284 1.327 . S
C3282 H3307 0.950 . S
C3283 C3282 1.349 . S
C3283 C3299 1.332 1_556 S
C3284 C3282 1.327 . S
C3284 C3303 1.429 . S
C3284 H3308 0.950 . S
C3285 C3302 1.574 . S
C3285 C3304 1.368 . S
C3285 H3309 0.949 . S
H3286 C3290 0.949 . S
C3287 C3288 1.349 . S
C3287 C3289 1.327 . S
C3287 H3310 0.950 . S
C3288 C3287 1.349 . S
C3288 C3300 1.349 . S
C3289 C3287 1.327 . S
C3289 C3305 1.429 . S
C3289 H3311 0.950 . S
C3290 H3286 0.949 . S
C3290 C3298 1.574 . S
C3290 C3306 1.368 . S
H3291 C3299 0.977 . S
H3292 C3297 0.950 1_554 S
H3293 C3298 0.949 . S
H3294 C3300 0.950 . S
H3295 C3301 0.950 . S
H3296 C3302 0.949 . S
C3297 H3292 0.950 1_556 S
C3297 C3299 1.318 1_556 S
C3297 C3303 1.429 . S
C3298 C3290 1.574 . S
C3298 H3293 0.949 . S
C3298 C3304 1.368 . S
C3299 C3283 1.332 1_554 S
C3299 H3291 0.977 . S
C3299 C3297 1.318 1_554 S
C3300 C3288 1.349 . S
C3300 H3294 0.950 . S
C3300 C3301 1.327 . S
C3301 H3295 0.950 . S
C3301 C3300 1.327 . S
C3301 C3305 1.429 . S
C3302 C3285 1.574 . S
C3302 H3296 0.949 . S
C3302 C3306 1.368 . S
C3303 C3284 1.429 . S
C3303 C3297 1.429 . S
C3303 C3304 1.523 . S
C3304 C3285 1.368 . S
C3304 C3298 1.368 . S
C3304 C3303 1.523 . S
C3305 C3289 1.429 . S
C3305 C3301 1.429 . S
C3305 C3306 1.523 . S
C3306 C3290 1.368 . S
C3306 C3302 1.368 . S
C3306 C3305 1.523 . S
H3307 C3282 0.950 . S
H3308 C3284 0.950 . S
H3309 C3285 0.949 . S
H3310 C3287 0.950 . S
H3311 C3289 0.950 . S
C3312 C3313 1.349 . S
C3312 C3314 1.327 . S
C3312 H3337 0.950 . S
C3313 C3312 1.349 . S
C3313 C3329 1.349 . S
C3314 C3312 1.327 . S
C3314 C3333 1.429 . S
C3314 H3338 0.950 . S
C3315 C3332 1.574 . S
C3315 C3334 1.368 . S
C3315 H3339 0.949 . S
H3316 C3320 0.949 . S
C3317 C3318 1.349 . S
C3317 C3319 1.327 . S
C3317 H3340 0.950 . S
C3318 C3317 1.349 . S
C3318 C3330 1.349 . S
C3319 C3317 1.327 . S
C3319 C3335 1.429 . S
C3319 H3341 0.950 . S
C3320 H3316 0.949 . S
C3320 C3328 1.574 . S
C3320 C3336 1.368 . S
H3321 C3329 0.950 . S
H3322 C3327 0.950 . S
H3323 C3328 0.949 . S
H3324 C3330 0.950 . S
H3325 C3331 0.950 . S
H3326 C3332 0.949 . S
C3327 H3322 0.950 . S
C3327 C3329 1.327 . S
C3327 C3333 1.429 . S
C3328 C3320 1.574 . S
C3328 H3323 0.949 . S
C3328 C3334 1.368 . S
C3329 C3313 1.349 . S
C3329 H3321 0.950 . S
C3329 C3327 1.327 . S
C3330 C3318 1.349 . S
C3330 H3324 0.950 . S
C3330 C3331 1.327 . S
C3331 H3325 0.950 . S
C3331 C3330 1.327 . S
C3331 C3335 1.429 . S
C3332 C3315 1.574 . S
C3332 H3326 0.949 . S
C3332 C3336 1.368 . S
C3333 C3314 1.429 . S
C3333 C3327 1.429 . S
C3333 C3334 1.523 . S
C3334 C3315 1.368 . S
C3334 C3328 1.368 . S
C3334 C3333 1.523 . S
C3335 C3319 1.429 . S
C3335 C3331 1.429 . S
C3335 C3336 1.523 . S
C3336 C3320 1.368 . S
C3336 C3332 1.368 . S
C3336 C3335 1.523 . S
H3337 C3312 0.950 . S
H3338 C3314 0.950 . S
H3339 C3315 0.949 . S
H3340 C3317 0.950 . S
H3341 C3319 0.950 . S
C3342 C3343 1.349 . S
C3342 C3344 1.327 . S
C3342 H3367 0.950 . S
C3343 C3342 1.349 . S
C3343 C3359 1.349 . S
C3344 C3342 1.327 . S
C3344 C3363 1.429 . S
C3344 H3368 0.950 . S
C3345 C3362 1.574 . S
C3345 C3364 1.368 . S
C3345 H3369 0.949 . S
H3346 C3350 0.949 . S
C3347 C3348 1.349 . S
C3347 C3349 1.327 . S
C3347 H3370 0.950 . S
C3348 C3347 1.349 . S
C3348 C3360 1.349 . S
C3349 C3347 1.327 . S
C3349 C3365 1.429 . S
C3349 H3371 0.950 . S
C3350 H3346 0.949 . S
C3350 C3358 1.574 . S
C3350 C3366 1.368 . S
H3351 C3359 0.950 . S
H3352 C3357 0.950 . S
H3353 C3358 0.949 . S
H3354 C3360 0.950 . S
H3355 C3361 0.950 . S
H3356 C3362 0.949 . S
C3357 H3352 0.950 . S
C3357 C3359 1.327 . S
C3357 C3363 1.429 . S
C3358 C3350 1.574 . S
C3358 H3353 0.949 . S
C3358 C3364 1.368 . S
C3359 C3343 1.349 . S
C3359 H3351 0.950 . S
C3359 C3357 1.327 . S
C3360 C3348 1.349 . S
C3360 H3354 0.950 . S
C3360 C3361 1.327 . S
C3361 H3355 0.950 . S
C3361 C3360 1.327 . S
C3361 C3365 1.429 . S
C3362 C3345 1.574 . S
C3362 H3356 0.949 . S
C3362 C3366 1.368 . S
C3363 C3344 1.429 . S
C3363 C3357 1.429 . S
C3363 C3364 1.523 . S
C3364 C3345 1.368 . S
C3364 C3358 1.368 . S
C3364 C3363 1.523 . S
C3365 C3349 1.429 . S
C3365 C3361 1.429 . S
C3365 C3366 1.523 . S
C3366 C3350 1.368 . S
C3366 C3362 1.368 . S
C3366 C3365 1.523 . S
H3367 C3342 0.950 . S
H3368 C3344 0.950 . S
H3369 C3345 0.949 . S
H3370 C3347 0.950 . S
H3371 C3349 0.950 . S
C3372 C3373 1.349 . S
C3372 C3374 1.327 . S
C3372 H3397 0.950 . S
C3373 C3372 1.349 . S
C3373 C3389 1.349 . S
C3374 C3372 1.327 . S
C3374 C3393 1.429 . S
C3374 H3398 0.950 . S
C3375 C3392 1.574 . S
C3375 C3394 1.368 . S
C3375 H3399 0.949 . S
H3376 C3380 0.949 . S
C3377 C3378 1.349 . S
C3377 C3379 1.327 . S
C3377 H3400 0.950 . S
C3378 C3377 1.349 . S
C3378 C3390 1.349 . S
C3379 C3377 1.327 . S
C3379 C3395 1.429 . S
C3379 H3401 0.950 . S
C3380 H3376 0.949 . S
C3380 C3388 1.574 . S
C3380 C3396 1.368 . S
H3381 C3389 0.950 . S
H3382 C3387 0.950 . S
H3383 C3388 0.949 . S
H3384 C3390 0.950 . S
H3385 C3391 0.950 . S
H3386 C3392 0.949 . S
C3387 H3382 0.950 . S
C3387 C3389 1.327 . S
C3387 C3393 1.429 . S
C3388 C3380 1.574 . S
C3388 H3383 0.949 . S
C3388 C3394 1.368 . S
C3389 C3373 1.349 . S
C3389 H3381 0.950 . S
C3389 C3387 1.327 . S
C3390 C3378 1.349 . S
C3390 H3384 0.950 . S
C3390 C3391 1.327 . S
C3391 H3385 0.950 . S
C3391 C3390 1.327 . S
C3391 C3395 1.429 . S
C3392 C3375 1.574 . S
C3392 H3386 0.949 . S
C3392 C3396 1.368 . S
C3393 C3374 1.429 . S
C3393 C3387 1.429 . S
C3393 C3394 1.523 . S
C3394 C3375 1.368 . S
C3394 C3388 1.368 . S
C3394 C3393 1.523 . S
C3395 C3379 1.429 . S
C3395 C3391 1.429 . S
C3395 C3396 1.523 . S
C3396 C3380 1.368 . S
C3396 C3392 1.368 . S
C3396 C3395 1.523 . S
H3397 C3372 0.950 . S
H3398 C3374 0.950 . S
H3399 C3375 0.949 . S
H3400 C3377 0.950 . S
H3401 C3379 0.950 . S
C3402 C3403 1.349 . S
C3402 C3404 1.327 . S
C3402 H3427 0.950 . S
C3403 C3402 1.349 . S
C3403 C3419 1.349 . S
C3404 C3402 1.327 . S
C3404 C3423 1.429 . S
C3404 H3428 0.950 . S
C3405 C3422 1.574 . S
C3405 C3424 1.368 . S
C3405 H3429 0.949 . S
H3406 C3410 0.949 . S
C3407 C3408 1.349 . S
C3407 C3409 1.327 . S
C3407 H3430 0.950 . S
C3408 C3407 1.349 . S
C3408 C3420 1.349 . S
C3409 C3407 1.327 . S
C3409 C3425 1.429 . S
C3409 H3431 0.950 . S
C3410 H3406 0.949 . S
C3410 C3418 1.574 . S
C3410 C3426 1.368 . S
H3411 C3419 0.950 . S
H3412 C3417 0.950 . S
H3413 C3418 0.949 . S
H3414 C3420 0.950 . S
H3415 C3421 0.950 . S
H3416 C3422 0.949 . S
C3417 H3412 0.950 . S
C3417 C3419 1.327 . S
C3417 C3423 1.429 . S
C3418 C3410 1.574 . S
C3418 H3413 0.949 . S
C3418 C3424 1.368 . S
C3419 C3403 1.349 . S
C3419 H3411 0.950 . S
C3419 C3417 1.327 . S
C3420 C3408 1.349 . S
C3420 H3414 0.950 . S
C3420 C3421 1.327 . S
C3421 H3415 0.950 . S
C3421 C3420 1.327 . S
C3421 C3425 1.429 . S
C3422 C3405 1.574 . S
C3422 H3416 0.949 . S
C3422 C3426 1.368 . S
C3423 C3404 1.429 . S
C3423 C3417 1.429 . S
C3423 C3424 1.523 . S
C3424 C3405 1.368 . S
C3424 C3418 1.368 . S
C3424 C3423 1.523 . S
C3425 C3409 1.429 . S
C3425 C3421 1.429 . S
C3425 C3426 1.523 . S
C3426 C3410 1.368 . S
C3426 C3422 1.368 . S
C3426 C3425 1.523 . S
H3427 C3402 0.950 . S
H3428 C3404 0.950 . S
H3429 C3405 0.949 . S
H3430 C3407 0.950 . S
H3431 C3409 0.950 . S
C3432 C3433 1.349 . S
C3432 C3434 1.327 . S
C3432 H3457 0.950 . S
C3433 C3432 1.349 . S
C3433 C3449 1.349 . S
C3434 C3432 1.327 . S
C3434 C3453 1.429 . S
C3434 H3458 0.950 . S
C3435 C3452 1.574 . S
C3435 C3454 1.368 . S
C3435 H3459 0.949 . S
H3436 C3440 0.949 . S
C3437 C3438 1.349 . S
C3437 C3439 1.327 . S
C3437 H3460 0.950 . S
C3438 C3437 1.349 . S
C3438 C3450 1.349 . S
C3439 C3437 1.327 . S
C3439 C3455 1.429 . S
C3439 H3461 0.950 . S
C3440 H3436 0.949 . S
C3440 C3448 1.574 . S
C3440 C3456 1.368 . S
H3441 C3449 0.950 . S
H3442 C3447 0.950 . S
H3443 C3448 0.949 . S
H3444 C3450 0.950 . S
H3445 C3451 0.950 . S
H3446 C3452 0.949 . S
C3447 H3442 0.950 . S
C3447 C3449 1.327 . S
C3447 C3453 1.429 . S
C3448 C3440 1.574 . S
C3448 H3443 0.949 . S
C3448 C3454 1.368 . S
C3449 C3433 1.349 . S
C3449 H3441 0.950 . S
C3449 C3447 1.327 . S
C3450 C3438 1.349 . S
C3450 H3444 0.950 . S
C3450 C3451 1.327 . S
C3451 H3445 0.950 . S
C3451 C3450 1.327 . S
C3451 C3455 1.429 . S
C3452 C3435 1.574 . S
C3452 H3446 0.949 . S
C3452 C3456 1.368 . S
C3453 C3434 1.429 . S
C3453 C3447 1.429 . S
C3453 C3454 1.523 . S
C3454 C3435 1.368 . S
C3454 C3448 1.368 . S
C3454 C3453 1.523 . S
C3455 C3439 1.429 . S
C3455 C3451 1.429 . S
C3455 C3456 1.523 . S
C3456 C3440 1.368 . S
C3456 C3452 1.368 . S
C3456 C3455 1.523 . S
H3457 C3432 0.950 . S
H3458 C3434 0.950 . S
H3459 C3435 0.949 . S
H3460 C3437 0.950 . S
H3461 C3439 0.950 . S
C3462 C3463 1.349 . S
C3462 C3464 1.327 . S
C3462 H3487 0.950 . S
C3463 C3462 1.349 . S
C3463 C3479 1.349 . S
C3464 C3462 1.327 . S
C3464 C3483 1.429 . S
C3464 H3488 0.950 . S
C3465 C3482 1.574 . S
C3465 C3484 1.368 . S
C3465 H3489 0.949 . S
H3466 C3470 0.949 . S
C3467 C3468 1.349 . S
C3467 C3469 1.327 . S
C3467 H3490 0.950 . S
C3468 C3467 1.349 . S
C3468 C3480 1.349 . S
C3469 C3467 1.327 . S
C3469 C3485 1.429 . S
C3469 H3491 0.950 . S
C3470 H3466 0.949 . S
C3470 C3478 1.574 . S
C3470 C3486 1.368 . S
H3471 C3479 0.950 . S
H3472 C3477 0.950 . S
H3473 C3478 0.949 . S
H3474 C3480 0.950 . S
H3475 C3481 0.950 . S
H3476 C3482 0.949 . S
C3477 H3472 0.950 . S
C3477 C3479 1.327 . S
C3477 C3483 1.429 . S
C3478 C3470 1.574 . S
C3478 H3473 0.949 . S
C3478 C3484 1.368 . S
C3479 C3463 1.349 . S
C3479 H3471 0.950 . S
C3479 C3477 1.327 . S
C3480 C3468 1.349 . S
C3480 H3474 0.950 . S
C3480 C3481 1.327 . S
C3481 H3475 0.950 . S
C3481 C3480 1.327 . S
C3481 C3485 1.429 . S
C3482 C3465 1.574 . S
C3482 H3476 0.949 . S
C3482 C3486 1.368 . S
C3483 C3464 1.429 . S
C3483 C3477 1.429 . S
C3483 C3484 1.523 . S
C3484 C3465 1.368 . S
C3484 C3478 1.368 . S
C3484 C3483 1.523 . S
C3485 C3469 1.429 . S
C3485 C3481 1.429 . S
C3485 C3486 1.523 . S
C3486 C3470 1.368 . S
C3486 C3482 1.368 . S
C3486 C3485 1.523 . S
H3487 C3462 0.950 . S
H3488 C3464 0.950 . S
H3489 C3465 0.949 . S
H3490 C3467 0.950 . S
H3491 C3469 0.950 . S
C3492 C3493 1.349 . S
C3492 C3494 1.327 . S
C3492 H3517 0.950 . S
C3493 C3492 1.349 . S
C3493 C3509 1.349 . S
C3494 C3492 1.327 . S
C3494 C3513 1.429 . S
C3494 H3518 0.950 . S
C3495 C3512 1.574 . S
C3495 C3514 1.368 . S
C3495 H3519 0.949 . S
H3496 C3500 0.949 . S
C3497 C3498 1.349 . S
C3497 C3499 1.327 . S
C3497 H3520 0.950 1_455 S
C3498 C3497 1.349 . S
C3498 C3510 1.349 . S
C3499 C3497 1.327 . S
C3499 C3515 1.429 . S
C3499 H3521 0.950 . S
C3500 H3496 0.949 . S
C3500 C3508 1.574 . S
C3500 C3516 1.368 . S
H3501 C3509 0.950 . S
H3502 C3507 0.950 . S
H3503 C3508 0.949 . S
H3504 C3510 0.950 . S
H3505 C3511 0.950 . S
H3506 C3512 0.949 . S
C3507 H3502 0.950 . S
C3507 C3509 1.327 . S
C3507 C3513 1.429 . S
C3508 C3500 1.574 . S
C3508 H3503 0.949 . S
C3508 C3514 1.368 . S
C3509 C3493 1.349 . S
C3509 H3501 0.950 . S
C3509 C3507 1.327 . S
C3510 C3498 1.349 . S
C3510 H3504 0.950 . S
C3510 C3511 1.327 . S
C3511 H3505 0.950 . S
C3511 C3510 1.327 . S
C3511 C3515 1.429 . S
C3512 C3495 1.574 . S
C3512 H3506 0.949 . S
C3512 C3516 1.368 . S
C3513 C3494 1.429 . S
C3513 C3507 1.429 . S
C3513 C3514 1.523 . S
C3514 C3495 1.368 . S
C3514 C3508 1.368 . S
C3514 C3513 1.523 . S
C3515 C3499 1.429 . S
C3515 C3511 1.429 . S
C3515 C3516 1.523 . S
C3516 C3500 1.368 . S
C3516 C3512 1.368 . S
C3516 C3515 1.523 . S
H3517 C3492 0.950 . S
H3518 C3494 0.950 . S
H3519 C3495 0.949 . S
H3520 C3497 0.950 1_655 S
H3521 C3499 0.950 . S
C3522 C3523 1.349 . S
C3522 C3524 1.327 . S
C3522 H3547 0.950 . S
C3523 C3522 1.349 . S
C3523 C3539 1.349 . S
C3524 C3522 1.327 . S
C3524 C3543 1.429 . S
C3524 H3548 0.950 . S
C3525 C3542 1.574 . S
C3525 C3544 1.368 . S
C3525 H3549 0.949 . S
H3526 C3530 0.949 . S
C3527 C3528 1.349 . S
C3527 C3529 1.327 . S
C3527 H3550 0.950 . S
C3528 C3527 1.349 . S
C3528 C3540 1.349 . S
C3529 C3527 1.327 . S
C3529 C3545 1.429 . S
C3529 H3551 0.950 . S
C3530 H3526 0.949 . S
C3530 C3538 1.574 . S
C3530 C3546 1.368 . S
H3531 C3539 0.950 . S
H3532 C3537 0.950 . S
H3533 C3538 0.949 . S
H3534 C3540 0.950 . S
H3535 C3541 0.950 . S
H3536 C3542 0.949 . S
C3537 H3532 0.950 . S
C3537 C3539 1.327 . S
C3537 C3543 1.429 . S
C3538 C3530 1.574 . S
C3538 H3533 0.949 . S
C3538 C3544 1.368 . S
C3539 C3523 1.349 . S
C3539 H3531 0.950 . S
C3539 C3537 1.327 . S
C3540 C3528 1.349 . S
C3540 H3534 0.950 . S
C3540 C3541 1.327 . S
C3541 H3535 0.950 . S
C3541 C3540 1.327 . S
C3541 C3545 1.429 . S
C3542 C3525 1.574 . S
C3542 H3536 0.949 . S
C3542 C3546 1.368 . S
C3543 C3524 1.429 . S
C3543 C3537 1.429 . S
C3543 C3544 1.523 . S
C3544 C3525 1.368 . S
C3544 C3538 1.368 . S
C3544 C3543 1.523 . S
C3545 C3529 1.429 . S
C3545 C3541 1.429 . S
C3545 C3546 1.523 . S
C3546 C3530 1.368 . S
C3546 C3542 1.368 . S
C3546 C3545 1.523 . S
H3547 C3522 0.950 . S
H3548 C3524 0.950 . S
H3549 C3525 0.949 . S
H3550 C3527 0.950 . S
H3551 C3529 0.950 . S
C3552 C3553 1.349 . S
C3552 C3554 1.327 . S
C3552 H3577 0.950 . S
C3553 C3552 1.349 . S
C3553 C3569 1.349 . S
C3554 C3552 1.327 . S
C3554 C3573 1.429 . S
C3554 H3578 0.950 . S
C3555 C3572 1.547 . S
C3555 C3574 1.323 1_545 S
C3555 H3579 1.017 . S
H3556 C3560 0.949 . S
C3557 C3558 1.349 1_545 S
C3557 C3559 1.327 . S
C3557 H3580 0.950 . S
C3558 C3557 1.349 1_565 S
C3558 C3570 1.349 . S
C3559 C3557 1.327 . S
C3559 C3575 1.429 1_545 S
C3559 H3581 0.950 . S
C3560 H3556 0.949 . S
C3560 C3568 1.574 . S
C3560 C3576 1.368 . S
H3561 C3569 0.950 1_545 S
H3562 C3567 0.950 1_545 S
H3563 C3568 0.949 . S
H3564 C3570 0.950 . S
H3565 C3571 0.950 . S
H3566 C3572 0.949 . S
C3567 H3562 0.950 1_565 S
C3567 C3569 1.327 . S
C3567 C3573 1.429 . S
C3568 C3560 1.574 . S
C3568 H3563 0.949 . S
C3568 C3574 1.368 . S
C3569 C3553 1.349 . S
C3569 H3561 0.950 1_565 S
C3569 C3567 1.327 . S
C3570 C3558 1.349 . S
C3570 H3564 0.950 . S
C3570 C3571 1.327 . S
C3571 H3565 0.950 . S
C3571 C3570 1.327 . S
C3571 C3575 1.429 . S
C3572 C3555 1.547 . S
C3572 H3566 0.949 . S
C3572 C3576 1.368 1_545 S
C3573 C3554 1.429 . S
C3573 C3567 1.429 . S
C3573 C3574 1.523 . S
C3574 C3555 1.323 1_565 S
C3574 C3568 1.368 . S
C3574 C3573 1.523 . S
C3575 C3559 1.429 1_565 S
C3575 C3571 1.429 . S
C3575 C3576 1.523 . S
C3576 C3560 1.368 . S
C3576 C3572 1.368 1_565 S
C3576 C3575 1.523 . S
H3577 C3552 0.950 . S
H3578 C3554 0.950 . S
H3579 C3555 1.017 . S
H3580 C3557 0.950 . S
H3581 C3559 0.950 . S
C3582 C3583 1.349 . S
C3582 C3584 1.327 . S
C3582 H3607 0.943 1_565 S
C3583 C3582 1.349 . S
C3583 C3599 1.349 . S
C3584 C3582 1.327 . S
C3584 C3603 1.429 . S
C3584 H3608 0.950 1_565 S
C3585 C3602 1.574 . S
C3585 C3604 1.368 . S
C3585 H3609 0.949 . S
H3586 C3590 0.949 . S
C3587 C3588 1.349 . S
C3587 C3589 1.327 . S
C3587 H3610 0.950 . S
C3588 C3587 1.349 . S
C3588 C3600 1.349 1_565 S
C3589 C3587 1.327 . S
C3589 C3605 1.429 . S
C3589 H3611 0.950 . S
C3590 H3586 0.949 . S
C3590 C3598 1.613 . S
C3590 C3606 1.368 1_545 S
H3591 C3599 0.950 . S
H3592 C3597 0.950 . S
H3593 C3598 0.958 . S
H3594 C3600 0.950 . S
H3595 C3601 0.950 . S
H3596 C3602 0.949 . S
C3597 H3592 0.950 . S
C3597 C3599 1.327 . S
C3597 C3603 1.429 . S
C3598 C3590 1.613 . S
C3598 H3593 0.958 . S
C3598 C3604 1.323 1_545 S
C3599 C3583 1.349 . S
C3599 H3591 0.950 . S
C3599 C3597 1.327 . S
C3600 C3588 1.349 1_545 S
C3600 H3594 0.950 . S
C3600 C3601 1.327 . S
C3601 H3595 0.950 . S
C3601 C3600 1.327 . S
C3601 C3605 1.429 1_545 S
C3602 C3585 1.574 . S
C3602 H3596 0.949 . S
C3602 C3606 1.368 . S
C3603 C3584 1.429 . S
C3603 C3597 1.429 . S
C3603 C3604 1.523 . S
C3604 C3585 1.368 . S
C3604 C3598 1.323 1_565 S
C3604 C3603 1.523 . S
C3605 C3589 1.429 . S
C3605 C3601 1.429 1_565 S
C3605 C3606 1.523 . S
C3606 C3590 1.368 1_565 S
C3606 C3602 1.368 . S
C3606 C3605 1.523 . S
H3607 C3582 0.943 1_545 S
H3608 C3584 0.950 1_545 S
H3609 C3585 0.949 . S
H3610 C3587 0.950 . S
H3611 C3589 0.950 . S
C3612 C3613 1.349 . S
C3612 C3614 1.327 . S
C3612 H3637 0.950 . S
C3613 C3612 1.349 . S
C3613 C3629 1.349 . S
C3614 C3612 1.327 . S
C3614 C3633 1.429 . S
C3614 H3638 0.950 . S
C3615 C3632 1.575 . S
C3615 C3634 1.370 1_655 S
C3615 H3639 0.946 . S
H3616 C3620 0.949 . S
C3617 C3618 1.349 1_655 S
C3617 C3619 1.327 . S
C3617 H3640 0.950 . S
C3618 C3617 1.349 1_455 S
C3618 C3630 1.349 . S
C3619 C3617 1.327 . S
C3619 C3635 1.429 1_655 S
C3619 H3641 0.950 . S
C3620 H3616 0.949 . S
C3620 C3628 1.574 . S
C3620 C3636 1.368 . S
H3621 C3629 0.976 . S
H3622 C3627 0.950 1_655 S
H3623 C3628 0.949 . S
H3624 C3630 0.950 . S
H3625 C3631 0.950 . S
H3626 C3632 0.949 . S
C3627 H3622 0.950 1_455 S
C3627 C3629 1.327 . S
C3627 C3633 1.429 . S
C3628 C3620 1.574 . S
C3628 H3623 0.949 . S
C3628 C3634 1.368 . S
C3629 C3613 1.349 . S
C3629 H3621 0.976 . S
C3629 C3627 1.327 . S
C3630 C3618 1.349 . S
C3630 H3624 0.950 . S
C3630 C3631 1.327 . S
C3631 H3625 0.950 . S
C3631 C3630 1.327 . S
C3631 C3635 1.429 . S
C3632 C3615 1.575 . S
C3632 H3626 0.949 . S
C3632 C3636 1.368 1_655 S
C3633 C3614 1.429 . S
C3633 C3627 1.429 . S
C3633 C3634 1.523 . S
C3634 C3615 1.370 1_455 S
C3634 C3628 1.368 . S
C3634 C3633 1.523 . S
C3635 C3619 1.429 1_455 S
C3635 C3631 1.429 . S
C3635 C3636 1.523 . S
C3636 C3620 1.368 . S
C3636 C3632 1.368 1_455 S
C3636 C3635 1.523 . S
H3637 C3612 0.950 . S
H3638 C3614 0.950 . S
H3639 C3615 0.946 . S
H3640 C3617 0.950 . S
H3641 C3619 0.950 . S
C3642 C3643 1.349 . S
C3642 C3644 1.327 . S
C3642 H3667 0.950 . S
C3643 C3642 1.349 . S
C3643 C3659 1.349 . S
C3644 C3642 1.327 . S
C3644 C3663 1.429 . S
C3644 H3668 0.950 . S
C3645 C3662 1.574 . S
C3645 C3664 1.368 . S
C3645 H3669 0.949 . S
H3646 C3650 0.949 . S
C3647 C3648 1.349 . S
C3647 C3649 1.327 . S
C3647 H3670 0.950 . S
C3648 C3647 1.349 . S
C3648 C3660 1.349 . S
C3649 C3647 1.327 . S
C3649 C3665 1.429 . S
C3649 H3671 0.950 . S
C3650 H3646 0.949 . S
C3650 C3658 1.574 . S
C3650 C3666 1.368 . S
H3651 C3659 0.950 . S
H3652 C3657 0.950 . S
H3653 C3658 0.949 . S
H3654 C3660 0.950 . S
H3655 C3661 0.950 . S
H3656 C3662 0.949 . S
C3657 H3652 0.950 . S
C3657 C3659 1.327 . S
C3657 C3663 1.429 . S
C3658 C3650 1.574 . S
C3658 H3653 0.949 . S
C3658 C3664 1.368 . S
C3659 C3643 1.349 . S
C3659 H3651 0.950 . S
C3659 C3657 1.327 . S
C3660 C3648 1.349 . S
C3660 H3654 0.950 . S
C3660 C3661 1.327 . S
C3661 H3655 0.950 . S
C3661 C3660 1.327 . S
C3661 C3665 1.429 . S
C3662 C3645 1.574 . S
C3662 H3656 0.949 . S
C3662 C3666 1.368 . S
C3663 C3644 1.429 . S
C3663 C3657 1.429 . S
C3663 C3664 1.523 . S
C3664 C3645 1.368 . S
C3664 C3658 1.368 . S
C3664 C3663 1.523 . S
C3665 C3649 1.429 . S
C3665 C3661 1.429 . S
C3665 C3666 1.523 . S
C3666 C3650 1.368 . S
C3666 C3662 1.368 . S
C3666 C3665 1.523 . S
H3667 C3642 0.950 . S
H3668 C3644 0.950 . S
H3669 C3645 0.949 . S
H3670 C3647 0.950 . S
H3671 C3649 0.950 . S
C3672 C3673 1.349 . S
C3672 C3674 1.327 . S
C3672 H3697 0.950 . S
C3673 C3672 1.349 . S
C3673 C3689 1.349 . S
C3674 C3672 1.327 . S
C3674 C3693 1.429 . S
C3674 H3698 0.950 . S
C3675 C3692 1.574 . S
C3675 C3694 1.368 . S
C3675 H3699 0.949 . S
H3676 C3680 0.949 . S
C3677 C3678 1.349 . S
C3677 C3679 1.327 . S
C3677 H3700 0.950 . S
C3678 C3677 1.349 . S
C3678 C3690 1.349 . S
C3679 C3677 1.327 . S
C3679 C3695 1.429 . S
C3679 H3701 0.950 . S
C3680 H3676 0.949 . S
C3680 C3688 1.574 . S
C3680 C3696 1.368 . S
H3681 C3689 0.950 . S
H3682 C3687 0.950 . S
H3683 C3688 0.949 . S
H3684 C3690 0.950 . S
H3685 C3691 0.950 . S
H3686 C3692 0.949 . S
C3687 H3682 0.950 . S
C3687 C3689 1.327 . S
C3687 C3693 1.429 . S
C3688 C3680 1.574 . S
C3688 H3683 0.949 . S
C3688 C3694 1.368 . S
C3689 C3673 1.349 . S
C3689 H3681 0.950 . S
C3689 C3687 1.327 . S
C3690 C3678 1.349 . S
C3690 H3684 0.950 . S
C3690 C3691 1.327 . S
C3691 H3685 0.950 . S
C3691 C3690 1.327 . S
C3691 C3695 1.429 . S
C3692 C3675 1.574 . S
C3692 H3686 0.949 . S
C3692 C3696 1.368 . S
C3693 C3674 1.429 . S
C3693 C3687 1.429 . S
C3693 C3694 1.523 . S
C3694 C3675 1.368 . S
C3694 C3688 1.368 . S
C3694 C3693 1.523 . S
C3695 C3679 1.429 . S
C3695 C3691 1.429 . S
C3695 C3696 1.523 . S
C3696 C3680 1.368 . S
C3696 C3692 1.368 . S
C3696 C3695 1.523 . S
H3697 C3672 0.950 . S
H3698 C3674 0.950 . S
H3699 C3675 0.949 . S
H3700 C3677 0.950 . S
H3701 C3679 0.950 . S
C3702 C3703 1.349 . S
C3702 C3704 1.327 . S
C3702 H3727 0.950 . S
C3703 C3702 1.349 . S
C3703 C3719 1.349 . S
C3704 C3702 1.327 . S
C3704 C3723 1.429 . S
C3704 H3728 0.950 . S
C3705 C3722 1.574 . S
C3705 C3724 1.368 . S
C3705 H3729 0.949 . S
H3706 C3710 0.949 . S
C3707 C3708 1.349 . S
C3707 C3709 1.327 . S
C3707 H3730 0.950 . S
C3708 C3707 1.349 . S
C3708 C3720 1.349 . S
C3709 C3707 1.327 . S
C3709 C3725 1.429 . S
C3709 H3731 0.950 . S
C3710 H3706 0.949 . S
C3710 C3718 1.574 . S
C3710 C3726 1.368 . S
H3711 C3719 0.950 . S
H3712 C3717 0.950 . S
H3713 C3718 0.949 . S
H3714 C3720 0.950 . S
H3715 C3721 0.950 . S
H3716 C3722 0.949 . S
C3717 H3712 0.950 . S
C3717 C3719 1.327 . S
C3717 C3723 1.429 . S
C3718 C3710 1.574 . S
C3718 H3713 0.949 . S
C3718 C3724 1.368 . S
C3719 C3703 1.349 . S
C3719 H3711 0.950 . S
C3719 C3717 1.327 . S
C3720 C3708 1.349 . S
C3720 H3714 0.950 . S
C3720 C3721 1.327 . S
C3721 H3715 0.950 . S
C3721 C3720 1.327 . S
C3721 C3725 1.429 . S
C3722 C3705 1.574 . S
C3722 H3716 0.949 . S
C3722 C3726 1.368 . S
C3723 C3704 1.429 . S
C3723 C3717 1.429 . S
C3723 C3724 1.523 . S
C3724 C3705 1.368 . S
C3724 C3718 1.368 . S
C3724 C3723 1.523 . S
C3725 C3709 1.429 . S
C3725 C3721 1.429 . S
C3725 C3726 1.523 . S
C3726 C3710 1.368 . S
C3726 C3722 1.368 . S
C3726 C3725 1.523 . S
H3727 C3702 0.950 . S
H3728 C3704 0.950 . S
H3729 C3705 0.949 . S
H3730 C3707 0.950 . S
H3731 C3709 0.950 . S
C3732 C3733 1.349 . S
C3732 C3734 1.327 . S
C3732 H3757 0.950 . S
C3733 C3732 1.349 . S
C3733 C3749 1.349 . S
C3734 C3732 1.327 . S
C3734 C3753 1.429 . S
C3734 H3758 0.950 . S
C3735 C3752 1.574 . S
C3735 C3754 1.368 . S
C3735 H3759 0.949 . S
H3736 C3740 0.949 . S
C3737 C3738 1.349 . S
C3737 C3739 1.327 . S
C3737 H3760 0.950 . S
C3738 C3737 1.349 . S
C3738 C3750 1.349 . S
C3739 C3737 1.327 . S
C3739 C3755 1.429 . S
C3739 H3761 0.950 . S
C3740 H3736 0.949 . S
C3740 C3748 1.574 . S
C3740 C3756 1.368 . S
H3741 C3749 0.950 . S
H3742 C3747 0.950 . S
H3743 C3748 0.949 . S
H3744 C3750 0.950 . S
H3745 C3751 0.950 . S
H3746 C3752 0.949 . S
C3747 H3742 0.950 . S
C3747 C3749 1.327 . S
C3747 C3753 1.429 . S
C3748 C3740 1.574 . S
C3748 H3743 0.949 . S
C3748 C3754 1.368 . S
C3749 C3733 1.349 . S
C3749 H3741 0.950 . S
C3749 C3747 1.327 . S
C3750 C3738 1.349 . S
C3750 H3744 0.950 . S
C3750 C3751 1.327 . S
C3751 H3745 0.950 . S
C3751 C3750 1.327 . S
C3751 C3755 1.429 . S
C3752 C3735 1.574 . S
C3752 H3746 0.949 . S
C3752 C3756 1.368 . S
C3753 C3734 1.429 . S
C3753 C3747 1.429 . S
C3753 C3754 1.523 . S
C3754 C3735 1.368 . S
C3754 C3748 1.368 . S
C3754 C3753 1.523 . S
C3755 C3739 1.429 . S
C3755 C3751 1.429 . S
C3755 C3756 1.523 . S
C3756 C3740 1.368 . S
C3756 C3752 1.368 . S
C3756 C3755 1.523 . S
H3757 C3732 0.950 . S
H3758 C3734 0.950 . S
H3759 C3735 0.949 . S
H3760 C3737 0.950 . S
H3761 C3739 0.950 . S
C3762 C3763 1.349 . S
C3762 C3764 1.327 . S
C3762 H3787 0.950 . S
C3763 C3762 1.349 . S
C3763 C3779 1.349 . S
C3764 C3762 1.327 . S
C3764 C3783 1.429 . S
C3764 H3788 0.950 . S
C3765 C3782 1.574 . S
C3765 C3784 1.368 . S
C3765 H3789 0.949 . S
H3766 C3770 0.949 . S
C3767 C3768 1.349 . S
C3767 C3769 1.327 . S
C3767 H3790 0.950 . S
C3768 C3767 1.349 . S
C3768 C3780 1.349 . S
C3769 C3767 1.327 . S
C3769 C3785 1.429 . S
C3769 H3791 0.950 . S
C3770 H3766 0.949 . S
C3770 C3778 1.574 . S
C3770 C3786 1.368 . S
H3771 C3779 0.950 . S
H3772 C3777 0.950 . S
H3773 C3778 0.949 . S
H3774 C3780 0.967 . S
H3775 C3781 0.950 . S
H3776 C3782 0.949 . S
C3777 H3772 0.950 . S
C3777 C3779 1.327 . S
C3777 C3783 1.429 . S
C3778 C3770 1.574 . S
C3778 H3773 0.949 . S
C3778 C3784 1.368 . S
C3779 C3763 1.349 . S
C3779 H3771 0.950 . S
C3779 C3777 1.327 . S
C3780 C3768 1.349 . S
C3780 H3774 0.967 . S
C3780 C3781 1.327 . S
C3781 H3775 0.950 . S
C3781 C3780 1.327 . S
C3781 C3785 1.429 . S
C3782 C3765 1.574 . S
C3782 H3776 0.949 . S
C3782 C3786 1.368 . S
C3783 C3764 1.429 . S
C3783 C3777 1.429 . S
C3783 C3784 1.523 . S
C3784 C3765 1.368 . S
C3784 C3778 1.368 . S
C3784 C3783 1.523 . S
C3785 C3769 1.429 . S
C3785 C3781 1.429 . S
C3785 C3786 1.523 . S
C3786 C3770 1.368 . S
C3786 C3782 1.368 . S
C3786 C3785 1.523 . S
H3787 C3762 0.950 . S
H3788 C3764 0.950 . S
H3789 C3765 0.949 . S
H3790 C3767 0.950 . S
H3791 C3769 0.950 . S
C3792 C3793 1.349 . S
C3792 C3794 1.327 . S
C3792 H3817 0.950 . S
C3793 C3792 1.349 . S
C3793 C3809 1.349 . S
C3794 C3792 1.327 . S
C3794 C3813 1.429 . S
C3794 H3818 0.956 . S
C3795 C3812 1.574 . S
C3795 C3814 1.368 . S
C3795 H3819 0.949 . S
H3796 C3800 0.928 1_455 S
C3797 C3798 1.349 . S
C3797 C3799 1.327 . S
C3797 H3820 0.950 . S
C3798 C3797 1.349 . S
C3798 C3810 1.349 1_655 S
C3799 C3797 1.327 . S
C3799 C3815 1.429 . S
C3799 H3821 0.950 . S
C3800 H3796 0.928 1_655 S
C3800 C3808 1.549 . S
C3800 C3816 1.421 . S
H3801 C3809 0.950 . S
H3802 C3807 0.950 . S
H3803 C3808 0.949 1_455 S
H3804 C3810 0.950 . S
H3805 C3811 0.950 . S
H3806 C3812 0.949 . S
C3807 H3802 0.950 . S
C3807 C3809 1.327 . S
C3807 C3813 1.429 . S
C3808 C3800 1.549 . S
C3808 H3803 0.949 1_655 S
C3808 C3814 1.368 . S
C3809 C3793 1.349 . S
C3809 H3801 0.950 . S
C3809 C3807 1.327 . S
C3810 C3798 1.349 1_455 S
C3810 H3804 0.950 . S
C3810 C3811 1.327 . S
C3811 H3805 0.950 . S
C3811 C3810 1.327 . S
C3811 C3815 1.429 1_455 S
C3812 C3795 1.574 . S
C3812 H3806 0.949 . S
C3812 C3816 1.368 . S
C3813 C3794 1.429 . S
C3813 C3807 1.429 . S
C3813 C3814 1.523 . S
C3814 C3795 1.368 . S
C3814 C3808 1.368 . S
C3814 C3813 1.523 . S
C3815 C3799 1.429 . S
C3815 C3811 1.429 1_655 S
C3815 C3816 1.523 . S
C3816 C3800 1.421 . S
C3816 C3812 1.368 . S
C3816 C3815 1.523 . S
H3817 C3792 0.950 . S
H3818 C3794 0.956 . S
H3819 C3795 0.949 . S
H3820 C3797 0.950 . S
H3821 C3799 0.950 . S
C3822 C3823 1.349 . S
C3822 C3824 1.327 . S
C3822 H3847 0.950 . S
C3823 C3822 1.349 . S
C3823 C3839 1.349 . S
C3824 C3822 1.327 . S
C3824 C3843 1.429 . S
C3824 H3848 0.950 . S
C3825 C3842 1.574 . S
C3825 C3844 1.368 . S
C3825 H3849 0.949 . S
H3826 C3830 0.949 . S
C3827 C3828 1.349 . S
C3827 C3829 1.327 . S
C3827 H3850 0.950 . S
C3828 C3827 1.349 . S
C3828 C3840 1.349 . S
C3829 C3827 1.327 . S
C3829 C3845 1.429 . S
C3829 H3851 0.950 . S
C3830 H3826 0.949 . S
C3830 C3838 1.574 . S
C3830 C3846 1.368 . S
H3831 C3839 0.950 . S
H3832 C3837 0.950 . S
H3833 C3838 0.949 . S
H3834 C3840 0.950 . S
H3835 C3841 0.950 . S
H3836 C3842 0.949 . S
C3837 H3832 0.950 . S
C3837 C3839 1.327 . S
C3837 C3843 1.429 . S
C3838 C3830 1.574 . S
C3838 H3833 0.949 . S
C3838 C3844 1.368 . S
C3839 C3823 1.349 . S
C3839 H3831 0.950 . S
C3839 C3837 1.327 . S
C3840 C3828 1.349 . S
C3840 H3834 0.950 . S
C3840 C3841 1.327 . S
C3841 H3835 0.950 . S
C3841 C3840 1.327 . S
C3841 C3845 1.429 . S
C3842 C3825 1.574 . S
C3842 H3836 0.949 . S
C3842 C3846 1.368 . S
C3843 C3824 1.429 . S
C3843 C3837 1.429 . S
C3843 C3844 1.523 . S
C3844 C3825 1.368 . S
C3844 C3838 1.368 . S
C3844 C3843 1.523 . S
C3845 C3829 1.429 . S
C3845 C3841 1.429 . S
C3845 C3846 1.523 . S
C3846 C3830 1.368 . S
C3846 C3842 1.368 . S
C3846 C3845 1.523 . S
H3847 C3822 0.950 . S
H3848 C3824 0.950 . S
H3849 C3825 0.949 . S
H3850 C3827 0.950 . S
H3851 C3829 0.950 . S
C3852 C3853 1.349 . S
C3852 C3854 1.327 . S
C3852 H3877 0.950 . S
C3853 C3852 1.349 . S
C3853 C3869 1.349 . S
C3854 C3852 1.327 . S
C3854 C3873 1.429 . S
C3854 H3878 0.950 . S
C3855 C3872 1.574 . S
C3855 C3874 1.368 . S
C3855 H3879 0.949 . S
H3856 C3860 0.949 . S
C3857 C3858 1.349 . S
C3857 C3859 1.327 . S
C3857 H3880 0.950 . S
C3858 C3857 1.349 . S
C3858 C3870 1.349 . S
C3859 C3857 1.327 . S
C3859 C3875 1.429 . S
C3859 H3881 0.950 . S
C3860 H3856 0.949 . S
C3860 C3868 1.574 . S
C3860 C3876 1.368 . S
H3861 C3869 0.950 . S
H3862 C3867 0.950 . S
H3863 C3868 0.949 . S
H3864 C3870 0.950 . S
H3865 C3871 0.950 . S
H3866 C3872 0.949 . S
C3867 H3862 0.950 . S
C3867 C3869 1.327 . S
C3867 C3873 1.429 . S
C3868 C3860 1.574 . S
C3868 H3863 0.949 . S
C3868 C3874 1.368 . S
C3869 C3853 1.349 . S
C3869 H3861 0.950 . S
C3869 C3867 1.327 . S
C3870 C3858 1.349 . S
C3870 H3864 0.950 . S
C3870 C3871 1.327 . S
C3871 H3865 0.950 . S
C3871 C3870 1.327 . S
C3871 C3875 1.429 . S
C3872 C3855 1.574 . S
C3872 H3866 0.949 . S
C3872 C3876 1.368 . S
C3873 C3854 1.429 . S
C3873 C3867 1.429 . S
C3873 C3874 1.523 . S
C3874 C3855 1.368 . S
C3874 C3868 1.368 . S
C3874 C3873 1.523 . S
C3875 C3859 1.429 . S
C3875 C3871 1.429 . S
C3875 C3876 1.523 . S
C3876 C3860 1.368 . S
C3876 C3872 1.368 . S
C3876 C3875 1.523 . S
H3877 C3852 0.950 . S
H3878 C3854 0.950 . S
H3879 C3855 0.949 . S
H3880 C3857 0.950 . S
H3881 C3859 0.950 . S
C3882 C3883 1.349 . S
C3882 C3884 1.327 . S
C3882 H3907 0.950 . S
C3883 C3882 1.349 . S
C3883 C3899 1.349 . S
C3884 C3882 1.327 . S
C3884 C3903 1.429 . S
C3884 H3908 0.950 . S
C3885 C3902 1.574 . S
C3885 C3904 1.368 . S
C3885 H3909 0.949 . S
H3886 C3890 0.949 . S
C3887 C3888 1.349 . S
C3887 C3889 1.327 . S
C3887 H3910 0.950 . S
C3888 C3887 1.349 . S
C3888 C3900 1.349 . S
C3889 C3887 1.327 . S
C3889 C3905 1.429 . S
C3889 H3911 0.950 . S
C3890 H3886 0.949 . S
C3890 C3898 1.574 . S
C3890 C3906 1.368 . S
H3891 C3899 0.950 . S
H3892 C3897 0.950 . S
H3893 C3898 0.949 . S
H3894 C3900 0.950 . S
H3895 C3901 0.950 . S
H3896 C3902 0.949 . S
C3897 H3892 0.950 . S
C3897 C3899 1.327 . S
C3897 C3903 1.429 . S
C3898 C3890 1.574 . S
C3898 H3893 0.949 . S
C3898 C3904 1.368 . S
C3899 C3883 1.349 . S
C3899 H3891 0.950 . S
C3899 C3897 1.327 . S
C3900 C3888 1.349 . S
C3900 H3894 0.950 . S
C3900 C3901 1.327 . S
C3901 H3895 0.950 . S
C3901 C3900 1.327 . S
C3901 C3905 1.429 . S
C3902 C3885 1.574 . S
C3902 H3896 0.949 . S
C3902 C3906 1.368 . S
C3903 C3884 1.429 . S
C3903 C3897 1.429 . S
C3903 C3904 1.523 . S
C3904 C3885 1.368 . S
C3904 C3898 1.368 . S
C3904 C3903 1.523 . S
C3905 C3889 1.429 . S
C3905 C3901 1.429 . S
C3905 C3906 1.523 . S
C3906 C3890 1.368 . S
C3906 C3902 1.368 . S
C3906 C3905 1.523 . S
H3907 C3882 0.950 . S
H3908 C3884 0.950 . S
H3909 C3885 0.949 . S
H3910 C3887 0.950 . S
H3911 C3889 0.950 . S
C3912 C3913 1.349 . S
C3912 C3914 1.327 . S
C3912 H3937 0.950 . S
C3913 C3912 1.349 . S
C3913 C3929 1.349 . S
C3914 C3912 1.327 . S
C3914 C3933 1.429 . S
C3914 H3938 0.950 . S
C3915 C3932 1.574 . S
C3915 C3934 1.368 . S
C3915 H3939 0.949 . S
H3916 C3920 0.949 . S
C3917 C3918 1.349 . S
C3917 C3919 1.327 . S
C3917 H3940 0.950 . S
C3918 C3917 1.349 . S
C3918 C3930 1.349 . S
C3919 C3917 1.327 . S
C3919 C3935 1.429 . S
C3919 H3941 0.950 . S
C3920 H3916 0.949 . S
C3920 C3928 1.574 . S
C3920 C3936 1.368 . S
H3921 C3929 0.950 . S
H3922 C3927 0.950 . S
H3923 C3928 0.949 . S
H3924 C3930 0.950 . S
H3925 C3931 0.950 . S
H3926 C3932 0.949 . S
C3927 H3922 0.950 . S
C3927 C3929 1.327 . S
C3927 C3933 1.429 . S
C3928 C3920 1.574 . S
C3928 H3923 0.949 . S
C3928 C3934 1.368 . S
C3929 C3913 1.349 . S
C3929 H3921 0.950 . S
C3929 C3927 1.327 . S
C3930 C3918 1.349 . S
C3930 H3924 0.950 . S
C3930 C3931 1.327 . S
C3931 H3925 0.950 . S
C3931 C3930 1.327 . S
C3931 C3935 1.429 . S
C3932 C3915 1.574 . S
C3932 H3926 0.949 . S
C3932 C3936 1.368 . S
C3933 C3914 1.429 . S
C3933 C3927 1.429 . S
C3933 C3934 1.523 . S
C3934 C3915 1.368 . S
C3934 C3928 1.368 . S
C3934 C3933 1.523 . S
C3935 C3919 1.429 . S
C3935 C3931 1.429 . S
C3935 C3936 1.523 . S
C3936 C3920 1.368 . S
C3936 C3932 1.368 . S
C3936 C3935 1.523 . S
H3937 C3912 0.950 . S
H3938 C3914 0.950 . S
H3939 C3915 0.949 . S
H3940 C3917 0.950 . S
H3941 C3919 0.950 . S
C3942 C3943 1.349 . S
C3942 C3944 1.327 . S
C3942 H3967 0.950 . S
C3943 C3942 1.349 . S
C3943 C3959 1.349 . S
C3944 C3942 1.327 . S
C3944 C3963 1.429 . S
C3944 H3968 0.950 . S
C3945 C3962 1.574 . S
C3945 C3964 1.368 . S
C3945 H3969 0.949 . S
H3946 C3950 0.949 . S
C3947 C3948 1.349 . S
C3947 C3949 1.327 . S
C3947 H3970 0.950 . S
C3948 C3947 1.349 . S
C3948 C3960 1.349 . S
C3949 C3947 1.327 . S
C3949 C3965 1.429 . S
C3949 H3971 0.950 . S
C3950 H3946 0.949 . S
C3950 C3958 1.574 . S
C3950 C3966 1.368 . S
H3951 C3959 0.950 . S
H3952 C3957 0.950 . S
H3953 C3958 0.949 . S
H3954 C3960 0.950 . S
H3955 C3961 0.950 . S
H3956 C3962 0.949 . S
C3957 H3952 0.950 . S
C3957 C3959 1.327 . S
C3957 C3963 1.429 . S
C3958 C3950 1.574 . S
C3958 H3953 0.949 . S
C3958 C3964 1.368 . S
C3959 C3943 1.349 . S
C3959 H3951 0.950 . S
C3959 C3957 1.327 . S
C3960 C3948 1.349 . S
C3960 H3954 0.950 . S
C3960 C3961 1.327 . S
C3961 H3955 0.950 . S
C3961 C3960 1.327 . S
C3961 C3965 1.429 . S
C3962 C3945 1.574 . S
C3962 H3956 0.949 . S
C3962 C3966 1.368 . S
C3963 C3944 1.429 . S
C3963 C3957 1.429 . S
C3963 C3964 1.523 . S
C3964 C3945 1.368 . S
C3964 C3958 1.368 . S
C3964 C3963 1.523 . S
C3965 C3949 1.429 . S
C3965 C3961 1.429 . S
C3965 C3966 1.523 . S
C3966 C3950 1.368 . S
C3966 C3962 1.368 . S
C3966 C3965 1.523 . S
H3967 C3942 0.950 . S
H3968 C3944 0.950 . S
H3969 C3945 0.949 . S
H3970 C3947 0.950 . S
H3971 C3949 0.950 . S
C3972 C3973 1.349 . S
C3972 C3974 1.327 . S
C3972 H3997 0.950 . S
C3973 C3972 1.349 . S
C3973 C3989 1.349 . S
C3974 C3972 1.327 . S
C3974 C3993 1.429 . S
C3974 H3998 0.950 . S
C3975 C3992 1.574 . S
C3975 C3994 1.368 . S
C3975 H3999 0.949 . S
H3976 C3980 0.949 . S
C3977 C3978 1.349 . S
C3977 C3979 1.327 . S
C3977 H4000 0.950 . S
C3978 C3977 1.349 . S
C3978 C3990 1.349 . S
C3979 C3977 1.327 . S
C3979 C3995 1.429 . S
C3979 H4001 0.950 . S
C3980 H3976 0.949 . S
C3980 C3988 1.574 . S
C3980 C3996 1.368 . S
H3981 C3989 0.950 . S
H3982 C3987 0.950 . S
H3983 C3988 0.949 . S
H3984 C3990 0.950 . S
H3985 C3991 0.950 . S
H3986 C3992 0.949 . S
C3987 H3982 0.950 . S
C3987 C3989 1.327 . S
C3987 C3993 1.429 . S
C3988 C3980 1.574 . S
C3988 H3983 0.949 . S
C3988 C3994 1.368 . S
C3989 C3973 1.349 . S
C3989 H3981 0.950 . S
C3989 C3987 1.327 . S
C3990 C3978 1.349 . S
C3990 H3984 0.950 . S
C3990 C3991 1.327 . S
C3991 H3985 0.950 . S
C3991 C3990 1.327 . S
C3991 C3995 1.429 . S
C3992 C3975 1.574 . S
C3992 H3986 0.949 . S
C3992 C3996 1.368 . S
C3993 C3974 1.429 . S
C3993 C3987 1.429 . S
C3993 C3994 1.523 . S
C3994 C3975 1.368 . S
C3994 C3988 1.368 . S
C3994 C3993 1.523 . S
C3995 C3979 1.429 . S
C3995 C3991 1.429 . S
C3995 C3996 1.523 . S
C3996 C3980 1.368 . S
C3996 C3992 1.368 . S
C3996 C3995 1.523 . S
H3997 C3972 0.950 . S
H3998 C3974 0.950 . S
H3999 C3975 0.949 . S
H4000 C3977 0.950 . S
H4001 C3979 0.950 . S
C4002 C4003 1.349 . S
C4002 C4004 1.327 . S
C4002 H4027 0.950 . S
C4003 C4002 1.349 . S
C4003 C4019 1.349 . S
C4004 C4002 1.327 . S
C4004 C4023 1.429 . S
C4004 H4028 0.950 . S
C4005 C4022 1.574 . S
C4005 C4024 1.368 . S
C4005 H4029 0.949 . S
H4006 C4010 0.949 . S
C4007 C4008 1.349 . S
C4007 C4009 1.327 . S
C4007 H4030 0.950 . S
C4008 C4007 1.349 . S
C4008 C4020 1.349 . S
C4009 C4007 1.327 . S
C4009 C4025 1.429 . S
C4009 H4031 0.950 . S
C4010 H4006 0.949 . S
C4010 C4018 1.574 . S
C4010 C4026 1.368 . S
H4011 C4019 0.950 . S
H4012 C4017 0.950 . S
H4013 C4018 0.949 . S
H4014 C4020 0.950 . S
H4015 C4021 0.950 . S
H4016 C4022 0.949 . S
C4017 H4012 0.950 . S
C4017 C4019 1.327 . S
C4017 C4023 1.429 . S
C4018 C4010 1.574 . S
C4018 H4013 0.949 . S
C4018 C4024 1.368 . S
C4019 C4003 1.349 . S
C4019 H4011 0.950 . S
C4019 C4017 1.327 . S
C4020 C4008 1.349 . S
C4020 H4014 0.950 . S
C4020 C4021 1.327 . S
C4021 H4015 0.950 . S
C4021 C4020 1.327 . S
C4021 C4025 1.429 . S
C4022 C4005 1.574 . S
C4022 H4016 0.949 . S
C4022 C4026 1.368 . S
C4023 C4004 1.429 . S
C4023 C4017 1.429 . S
C4023 C4024 1.523 . S
C4024 C4005 1.368 . S
C4024 C4018 1.368 . S
C4024 C4023 1.523 . S
C4025 C4009 1.429 . S
C4025 C4021 1.429 . S
C4025 C4026 1.523 . S
C4026 C4010 1.368 . S
C4026 C4022 1.368 . S
C4026 C4025 1.523 . S
H4027 C4002 0.950 . S
H4028 C4004 0.950 . S
H4029 C4005 0.949 . S
H4030 C4007 0.950 . S
H4031 C4009 0.950 . S
C4032 C4033 1.349 . S
C4032 C4034 1.327 . S
C4032 H4057 0.950 . S
C4033 C4032 1.349 . S
C4033 C4049 1.349 . S
C4034 C4032 1.327 . S
C4034 C4053 1.429 . S
C4034 H4058 0.950 . S
C4035 C4052 1.574 . S
C4035 C4054 1.368 . S
C4035 H4059 0.949 . S
H4036 C4040 0.971 . S
C4037 C4038 1.349 . S
C4037 C4039 1.327 . S
C4037 H4060 0.950 . S
C4038 C4037 1.349 . S
C4038 C4050 1.349 1_655 S
C4039 C4037 1.327 . S
C4039 C4055 1.429 . S
C4039 H4061 0.950 . S
C4040 H4036 0.971 . S
C4040 C4048 1.574 . S
C4040 C4056 1.368 . S
H4041 C4049 0.950 . S
H4042 C4047 0.950 . S
H4043 C4048 0.949 . S
H4044 C4050 0.950 . S
H4045 C4051 0.949 1_455 S
H4046 C4052 0.949 . S
C4047 H4042 0.950 . S
C4047 C4049 1.327 . S
C4047 C4053 1.429 . S
C4048 C4040 1.574 . S
C4048 H4043 0.949 . S
C4048 C4054 1.368 . S
C4049 C4033 1.349 . S
C4049 H4041 0.950 . S
C4049 C4047 1.327 . S
C4050 C4038 1.349 1_455 S
C4050 H4044 0.950 . S
C4050 C4051 1.324 1_455 S
C4051 H4045 0.949 1_655 S
C4051 C4050 1.324 1_655 S
C4051 C4055 1.433 . S
C4052 C4035 1.574 . S
C4052 H4046 0.949 . S
C4052 C4056 1.368 . S
C4053 C4034 1.429 . S
C4053 C4047 1.429 . S
C4053 C4054 1.523 . S
C4054 C4035 1.368 . S
C4054 C4048 1.368 . S
C4054 C4053 1.523 . S
C4055 C4039 1.429 . S
C4055 C4051 1.433 . S
C4055 C4056 1.523 . S
C4056 C4040 1.368 . S
C4056 C4052 1.368 . S
C4056 C4055 1.523 . S
H4057 C4032 0.950 . S
H4058 C4034 0.950 . S
H4059 C4035 0.949 . S
H4060 C4037 0.950 . S
H4061 C4039 0.950 . S
C4062 C4063 1.349 . S
C4062 C4064 1.327 . S
C4062 H4087 0.950 . S
C4063 C4062 1.349 . S
C4063 C4079 1.349 . S
C4064 C4062 1.327 . S
C4064 C4083 1.429 . S
C4064 H4088 0.950 . S
C4065 C4082 1.574 . S
C4065 C4084 1.368 . S
C4065 H4089 0.949 . S
H4066 C4070 0.949 . S
C4067 C4068 1.349 . S
C4067 C4069 1.327 . S
C4067 H4090 0.950 . S
C4068 C4067 1.349 . S
C4068 C4080 1.349 . S
C4069 C4067 1.327 . S
C4069 C4085 1.429 . S
C4069 H4091 0.950 . S
C4070 H4066 0.949 . S
C4070 C4078 1.574 . S
C4070 C4086 1.368 . S
H4071 C4079 0.950 . S
H4072 C4077 0.950 . S
H4073 C4078 0.949 . S
H4074 C4080 0.950 . S
H4075 C4081 0.950 . S
H4076 C4082 0.949 . S
C4077 H4072 0.950 . S
C4077 C4079 1.327 . S
C4077 C4083 1.429 . S
C4078 C4070 1.574 . S
C4078 H4073 0.949 . S
C4078 C4084 1.368 . S
C4079 C4063 1.349 . S
C4079 H4071 0.950 . S
C4079 C4077 1.327 . S
C4080 C4068 1.349 . S
C4080 H4074 0.950 . S
C4080 C4081 1.327 . S
C4081 H4075 0.950 . S
C4081 C4080 1.327 . S
C4081 C4085 1.429 . S
C4082 C4065 1.574 . S
C4082 H4076 0.949 . S
C4082 C4086 1.368 . S
C4083 C4064 1.429 . S
C4083 C4077 1.429 . S
C4083 C4084 1.523 . S
C4084 C4065 1.368 . S
C4084 C4078 1.368 . S
C4084 C4083 1.523 . S
C4085 C4069 1.429 . S
C4085 C4081 1.429 . S
C4085 C4086 1.523 . S
C4086 C4070 1.368 . S
C4086 C4082 1.368 . S
C4086 C4085 1.523 . S
H4087 C4062 0.950 . S
H4088 C4064 0.950 . S
H4089 C4065 0.949 . S
H4090 C4067 0.950 . S
H4091 C4069 0.950 . S
C4092 C4093 1.349 . S
C4092 C4094 1.327 . S
C4092 H4117 0.950 . S
C4093 C4092 1.349 . S
C4093 C4109 1.349 . S
C4094 C4092 1.327 . S
C4094 C4113 1.429 . S
C4094 H4118 0.950 . S
C4095 C4112 1.574 . S
C4095 C4114 1.368 1_565 S
C4095 H4119 0.949 . S
H4096 C4100 0.949 . S
C4097 C4098 1.349 1_565 S
C4097 C4099 1.327 . S
C4097 H4120 0.950 . S
C4098 C4097 1.349 1_545 S
C4098 C4110 1.349 . S
C4099 C4097 1.327 . S
C4099 C4115 1.429 1_565 S
C4099 H4121 0.950 . S
C4100 H4096 0.949 . S
C4100 C4108 1.574 . S
C4100 C4116 1.368 . S
H4101 C4109 0.950 1_565 S
H4102 C4107 0.950 1_565 S
H4103 C4108 0.949 . S
H4104 C4110 0.950 . S
H4105 C4111 0.950 . S
H4106 C4112 0.949 . S
C4107 H4102 0.950 1_545 S
C4107 C4109 1.327 . S
C4107 C4113 1.429 . S
C4108 C4100 1.574 . S
C4108 H4103 0.949 . S
C4108 C4114 1.368 . S
C4109 C4093 1.349 . S
C4109 H4101 0.950 1_545 S
C4109 C4107 1.327 . S
C4110 C4098 1.349 . S
C4110 H4104 0.950 . S
C4110 C4111 1.327 . S
C4111 H4105 0.950 . S
C4111 C4110 1.327 . S
C4111 C4115 1.429 . S
C4112 C4095 1.574 . S
C4112 H4106 0.949 . S
C4112 C4116 1.368 1_565 S
C4113 C4094 1.429 . S
C4113 C4107 1.429 . S
C4113 C4114 1.523 . S
C4114 C4095 1.368 1_545 S
C4114 C4108 1.368 . S
C4114 C4113 1.523 . S
C4115 C4099 1.429 1_545 S
C4115 C4111 1.429 . S
C4115 C4116 1.523 . S
C4116 C4100 1.368 . S
C4116 C4112 1.368 1_545 S
C4116 C4115 1.523 . S
H4117 C4092 0.950 . S
H4118 C4094 0.950 . S
H4119 C4095 0.949 . S
H4120 C4097 0.950 . S
H4121 C4099 0.950 . S
C1963 C49 1.679 . S
C1968 C1790 1.631 1_655 S
C1993 C137 1.686 . S
C1998 C1803 1.650 . S
C2028 C1832 1.614 1_545 S
C2023 C205 1.678 . S
C2053 C196 1.662 . S
C2058 C1845 1.614 . S
C2083 C57 1.680 . S
C2088 C1866 1.641 . S
C2113 C145 1.687 . S
C2118 C1895 1.612 . S
C2143 C313 1.683 . S
C2148 C1874 1.615 . S
C2178 C1887 1.619 . S
C2173 C401 1.678 . S
C2208 C1853 1.621 . S
C2203 C489 1.680 . S
C2233 C469 1.666 . S
C2238 C1824 1.628 1_545 S
C2268 C1782 1.649 1_655 S
C2263 C293 1.686 . S
C2293 C381 1.679 . S
C2298 C1811 1.628 . S
C2323 C577 1.730 . S
C2328 C1916 1.651 . S
C2353 C645 1.709 . S
C2358 C1929 1.674 . S
C2388 C1958 1.607 . S
C2383 C733 1.686 . S
C2413 C724 1.683 . S
C2418 C1593 1.648 . S
C2443 C585 1.716 . S
C2448 C1614 1.680 . S
C2473 C636 1.722 . S
C2478 C1643 1.645 . S
C2503 C841 1.688 . S
C2508 C1622 1.639 . S
C2533 C937 1.714 . S
C2538 C1635 1.651 . S
C2568 C1601 1.653 . S
C2563 C1025 1.702 . S
C2598 C1950 1.644 . S
C2593 C988 1.706 . S
C2628 C1908 1.615 . S
C2623 C821 1.680 . S
C2658 C1937 1.651 . S
C2653 C900 1.699 . S
C2683 C1105 1.698 . S
C2688 C1664 1.623 . S
C2713 C1193 1.723 . S
C2718 C1677 1.689 . S
C2743 C1281 1.711 . S
C2748 C1706 1.635 . S
C2773 C1289 1.714 . S
C2778 C1719 1.679 . S
C2808 C1740 1.655 . S
C2803 C1113 1.691 . S
C2838 C1769 1.628 . S
C2833 C1201 1.710 . S
C2868 C1748 1.672 . S
C2863 C1369 1.721 . S
C2898 C1761 1.633 . S
C2893 C1457 1.699 . S
C2923 C1553 1.675 . S
C2928 C1727 1.626 . S
C2958 C1698 1.614 . S
C2953 C1516 1.673 . S
C2983 C1349 1.707 . S
C2988 C1656 1.646 . S
C3018 C1685 1.667 . S
C3013 C1437 1.714 . S
C3048 C1596 1.221 . S
C3043 C29 1.305 . S
C3073 C117 1.248 . S
C3078 C1617 1.161 . S
C3108 C1645 1.202 . S
C3103 C225 1.310 . S
C3138 C1666 1.185 . S
C3133 C233 1.288 . S
C3168 C1680 1.226 . S
C3163 C20 1.310 . S
C3198 C1708 1.148 . S
C3193 C108 1.256 . S
C3223 C321 1.336 . S
C3228 C1701 1.192 . S
C3253 C409 1.274 . S
C3258 C1659 1.124 . S
C3283 C497 1.334 . S
C3288 C1687 1.265 . S
C3313 C460 1.318 . S
C3318 C1624 1.259 . S
C3348 C1638 1.180 . S
C3343 C284 1.331 . S
C3373 C372 1.283 . S
C3378 C1603 1.209 . S
C3408 C1722 1.188 . S
C3403 C557 1.279 . S
C3433 C665 1.340 . S
C3438 C1743 1.241 . S
C3463 C753 1.344 . S
C3468 C1771 1.226 . S
C3498 C1792 1.070 . S
C3493 C761 1.144 . S
C3523 C548 1.262 . S
C3528 C1806 1.172 . S
C3553 C673 1.167 . S
C3558 C1834 1.089 . S
C3583 C849 1.178 . S
C3588 C1827 1.062 . S
C3613 C929 1.174 . S
C3618 C1785 1.066 . S
C3648 C1813 1.213 . S
C3643 C1017 1.287 . S
C3673 C997 1.288 . S
C3678 C1750 1.214 . S
C3703 C812 1.371 . S
C3708 C1764 1.206 . S
C3738 C1729 1.288 . S
C3733 C909 1.370 . S
C3768 C1848 1.038 1_545 S
C3763 C1085 1.162 . S
C3793 C1173 1.160 . S
C3798 C1869 1.070 1_655 S
C3823 C1261 1.261 . S
C3828 C1897 1.155 . S
C3858 C1918 1.153 . S
C3853 C1252 1.259 . S
C3888 C1932 1.247 . S
C3883 C1076 1.347 . S
C3913 C1164 1.345 . S
C3918 C1960 1.229 . S
C3943 C1377 1.307 . S
C3948 C1953 1.152 . S
C3973 C1465 1.364 . S
C3978 C1911 1.203 . S
C4008 C1939 1.286 . S
C4003 C1545 1.368 . S
C4038 C1876 1.090 1_655 S
C4033 C1525 1.154 . S
C4068 C1890 1.139 . S
C4063 C1340 1.288 . S
C4093 C1428 1.181 . S
C4098 C1855 1.109 1_545 S
