# Generated by pormake.
# Topology llk, (3,12)-cn, num edge types: 1
# Building blocks:
#     Node 0, Type 0, BuildingBlock: PAMTOO_clean_linker_0, # of connection points: 3
#     Node 1, Type 0, BuildingBlock: PAMTOO_clean_linker_0, # of connection points: 3
#     Node 2, Type 0, BuildingBlock: PAMTOO_clean_linker_0, # of connection points: 3
#     Node 3, Type 0, BuildingBlock: PAMTOO_clean_linker_0, # of connection points: 3
#     Node 4, Type 0, BuildingBlock: PAMTOO_clean_linker_0, # of connection points: 3
#     Node 5, Type 0, BuildingBlock: PAMTOO_clean_linker_0, # of connection points: 3
#     Node 6, Type 0, BuildingBlock: PAMTOO_clean_linker_0, # of connection points: 3
#     Node 7, Type 0, BuildingBlock: PAMTOO_clean_linker_0, # of connection points: 3
#     Node 8, Type 0, BuildingBlock: PAMTOO_clean_linker_0, # of connection points: 3
#     Node 9, Type 0, BuildingBlock: PAMTOO_clean_linker_0, # of connection points: 3
#     Node 10, Type 0, BuildingBlock: PAMTOO_clean_linker_0, # of connection points: 3
#     Node 11, Type 0, BuildingBlock: PAMTOO_clean_linker_0, # of connection points: 3
#     Node 12, Type 0, BuildingBlock: PAMTOO_clean_linker_0, # of connection points: 3
#     Node 13, Type 0, BuildingBlock: PAMTOO_clean_linker_0, # of connection points: 3
#     Node 14, Type 0, BuildingBlock: PAMTOO_clean_linker_0, # of connection points: 3
#     Node 15, Type 0, BuildingBlock: PAMTOO_clean_linker_0, # of connection points: 3
#     Node 16, Type 0, BuildingBlock: PAMTOO_clean_linker_0, # of connection points: 3
#     Node 17, Type 0, BuildingBlock: PAMTOO_clean_linker_0, # of connection points: 3
#     Node 18, Type 0, BuildingBlock: PAMTOO_clean_linker_0, # of connection points: 3
#     Node 19, Type 0, BuildingBlock: PAMTOO_clean_linker_0, # of connection points: 3
#     Node 20, Type 0, BuildingBlock: PAMTOO_clean_linker_0, # of connection points: 3
#     Node 21, Type 0, BuildingBlock: PAMTOO_clean_linker_0, # of connection points: 3
#     Node 22, Type 0, BuildingBlock: PAMTOO_clean_linker_0, # of connection points: 3
#     Node 23, Type 0, BuildingBlock: PAMTOO_clean_linker_0, # of connection points: 3
#     Node 24, Type 1, BuildingBlock: QEWDON_clean_sbu_0, # of connection points: 12
#     Node 25, Type 1, BuildingBlock: QEWDON_clean_sbu_0, # of connection points: 12
#     Node 26, Type 1, BuildingBlock: QEWDON_clean_sbu_0, # of connection points: 12
#     Node 27, Type 1, BuildingBlock: QEWDON_clean_sbu_0, # of connection points: 12
#     Node 28, Type 1, BuildingBlock: QEWDON_clean_sbu_0, # of connection points: 12
#     Node 29, Type 1, BuildingBlock: QEWDON_clean_sbu_0, # of connection points: 12
#     Edge 30, Type (0, 1), BuildingBlock: UVAHIK_clean_linker_0, # of connection points: 2
#     Edge 31, Type (0, 1), BuildingBlock: UVAHIK_clean_linker_0, # of connection points: 2
#     Edge 32, Type (0, 1), BuildingBlock: UVAHIK_clean_linker_0, # of connection points: 2
#     Edge 33, Type (0, 1), BuildingBlock: UVAHIK_clean_linker_0, # of connection points: 2
#     Edge 34, Type (0, 1), BuildingBlock: UVAHIK_clean_linker_0, # of connection points: 2
#     Edge 35, Type (0, 1), BuildingBlock: UVAHIK_clean_linker_0, # of connection points: 2
#     Edge 36, Type (0, 1), BuildingBlock: UVAHIK_clean_linker_0, # of connection points: 2
#     Edge 37, Type (0, 1), BuildingBlock: UVAHIK_clean_linker_0, # of connection points: 2
#     Edge 38, Type (0, 1), BuildingBlock: UVAHIK_clean_linker_0, # of connection points: 2
#     Edge 39, Type (0, 1), BuildingBlock: UVAHIK_clean_linker_0, # of connection points: 2
#     Edge 40, Type (0, 1), BuildingBlock: UVAHIK_clean_linker_0, # of connection points: 2
#     Edge 41, Type (0, 1), BuildingBlock: UVAHIK_clean_linker_0, # of connection points: 2
#     Edge 42, Type (0, 1), BuildingBlock: UVAHIK_clean_linker_0, # of connection points: 2
#     Edge 43, Type (0, 1), BuildingBlock: UVAHIK_clean_linker_0, # of connection points: 2
#     Edge 44, Type (0, 1), BuildingBlock: UVAHIK_clean_linker_0, # of connection points: 2
#     Edge 45, Type (0, 1), BuildingBlock: UVAHIK_clean_linker_0, # of connection points: 2
#     Edge 46, Type (0, 1), BuildingBlock: UVAHIK_clean_linker_0, # of connection points: 2
#     Edge 47, Type (0, 1), BuildingBlock: UVAHIK_clean_linker_0, # of connection points: 2
#     Edge 48, Type (0, 1), BuildingBlock: UVAHIK_clean_linker_0, # of connection points: 2
#     Edge 49, Type (0, 1), BuildingBlock: UVAHIK_clean_linker_0, # of connection points: 2
#     Edge 50, Type (0, 1), BuildingBlock: UVAHIK_clean_linker_0, # of connection points: 2
#     Edge 51, Type (0, 1), BuildingBlock: UVAHIK_clean_linker_0, # of connection points: 2
#     Edge 52, Type (0, 1), BuildingBlock: UVAHIK_clean_linker_0, # of connection points: 2
#     Edge 53, Type (0, 1), BuildingBlock: UVAHIK_clean_linker_0, # of connection points: 2
#     Edge 54, Type (0, 1), BuildingBlock: UVAHIK_clean_linker_0, # of connection points: 2
#     Edge 55, Type (0, 1), BuildingBlock: UVAHIK_clean_linker_0, # of connection points: 2
#     Edge 56, Type (0, 1), BuildingBlock: UVAHIK_clean_linker_0, # of connection points: 2
#     Edge 57, Type (0, 1), BuildingBlock: UVAHIK_clean_linker_0, # of connection points: 2
#     Edge 58, Type (0, 1), BuildingBlock: UVAHIK_clean_linker_0, # of connection points: 2
#     Edge 59, Type (0, 1), BuildingBlock: UVAHIK_clean_linker_0, # of connection points: 2
#     Edge 60, Type (0, 1), BuildingBlock: UVAHIK_clean_linker_0, # of connection points: 2
#     Edge 61, Type (0, 1), BuildingBlock: UVAHIK_clean_linker_0, # of connection points: 2
#     Edge 62, Type (0, 1), BuildingBlock: UVAHIK_clean_linker_0, # of connection points: 2
#     Edge 63, Type (0, 1), BuildingBlock: UVAHIK_clean_linker_0, # of connection points: 2
#     Edge 64, Type (0, 1), BuildingBlock: UVAHIK_clean_linker_0, # of connection points: 2
#     Edge 65, Type (0, 1), BuildingBlock: UVAHIK_clean_linker_0, # of connection points: 2
#     Edge 66, Type (0, 1), BuildingBlock: UVAHIK_clean_linker_0, # of connection points: 2
#     Edge 67, Type (0, 1), BuildingBlock: UVAHIK_clean_linker_0, # of connection points: 2
#     Edge 68, Type (0, 1), BuildingBlock: UVAHIK_clean_linker_0, # of connection points: 2
#     Edge 69, Type (0, 1), BuildingBlock: UVAHIK_clean_linker_0, # of connection points: 2
#     Edge 70, Type (0, 1), BuildingBlock: UVAHIK_clean_linker_0, # of connection points: 2
#     Edge 71, Type (0, 1), BuildingBlock: UVAHIK_clean_linker_0, # of connection points: 2
#     Edge 72, Type (0, 1), BuildingBlock: UVAHIK_clean_linker_0, # of connection points: 2
#     Edge 73, Type (0, 1), BuildingBlock: UVAHIK_clean_linker_0, # of connection points: 2
#     Edge 74, Type (0, 1), BuildingBlock: UVAHIK_clean_linker_0, # of connection points: 2
#     Edge 75, Type (0, 1), BuildingBlock: UVAHIK_clean_linker_0, # of connection points: 2
#     Edge 76, Type (0, 1), BuildingBlock: UVAHIK_clean_linker_0, # of connection points: 2
#     Edge 77, Type (0, 1), BuildingBlock: UVAHIK_clean_linker_0, # of connection points: 2
#     Edge 78, Type (0, 1), BuildingBlock: UVAHIK_clean_linker_0, # of connection points: 2
#     Edge 79, Type (0, 1), BuildingBlock: UVAHIK_clean_linker_0, # of connection points: 2
#     Edge 80, Type (0, 1), BuildingBlock: UVAHIK_clean_linker_0, # of connection points: 2
#     Edge 81, Type (0, 1), BuildingBlock: UVAHIK_clean_linker_0, # of connection points: 2
#     Edge 82, Type (0, 1), BuildingBlock: UVAHIK_clean_linker_0, # of connection points: 2
#     Edge 83, Type (0, 1), BuildingBlock: UVAHIK_clean_linker_0, # of connection points: 2
#     Edge 84, Type (0, 1), BuildingBlock: UVAHIK_clean_linker_0, # of connection points: 2
#     Edge 85, Type (0, 1), BuildingBlock: UVAHIK_clean_linker_0, # of connection points: 2
#     Edge 86, Type (0, 1), BuildingBlock: UVAHIK_clean_linker_0, # of connection points: 2
#     Edge 87, Type (0, 1), BuildingBlock: UVAHIK_clean_linker_0, # of connection points: 2
#     Edge 88, Type (0, 1), BuildingBlock: UVAHIK_clean_linker_0, # of connection points: 2
#     Edge 89, Type (0, 1), BuildingBlock: UVAHIK_clean_linker_0, # of connection points: 2
#     Edge 90, Type (0, 1), BuildingBlock: UVAHIK_clean_linker_0, # of connection points: 2
#     Edge 91, Type (0, 1), BuildingBlock: UVAHIK_clean_linker_0, # of connection points: 2
#     Edge 92, Type (0, 1), BuildingBlock: UVAHIK_clean_linker_0, # of connection points: 2
#     Edge 93, Type (0, 1), BuildingBlock: UVAHIK_clean_linker_0, # of connection points: 2
#     Edge 94, Type (0, 1), BuildingBlock: UVAHIK_clean_linker_0, # of connection points: 2
#     Edge 95, Type (0, 1), BuildingBlock: UVAHIK_clean_linker_0, # of connection points: 2
#     Edge 96, Type (0, 1), BuildingBlock: UVAHIK_clean_linker_0, # of connection points: 2
#     Edge 97, Type (0, 1), BuildingBlock: UVAHIK_clean_linker_0, # of connection points: 2
#     Edge 98, Type (0, 1), BuildingBlock: UVAHIK_clean_linker_0, # of connection points: 2
#     Edge 99, Type (0, 1), BuildingBlock: UVAHIK_clean_linker_0, # of connection points: 2
#     Edge 100, Type (0, 1), BuildingBlock: UVAHIK_clean_linker_0, # of connection points: 2
#     Edge 101, Type (0, 1), BuildingBlock: UVAHIK_clean_linker_0, # of connection points: 2
# Relax obj value: 0.089
# Max RMSD: 0.173
# Mean RMSD: 0.130
data_MOF--net-llk--node1-QEWDON_clean_sbu_0--node2-PAMTOO_clean_linker_0--edge1-UVAHIK_clean_linker_0
_symmetry_space_group_name_H-M    P1
_symmetry_Int_Tables_number       1
_symmetry_cell_setting            triclinic
loop_
_symmetry_equiv_pos_as_xyz
'x, y, z'
_cell_length_a     56.951664
_cell_length_b     61.507656
_cell_length_c     59.316517
_cell_angle_alpha  89.939018
_cell_angle_beta   90.030167
_cell_angle_gamma 89.675234
loop_
_atom_site_label
_atom_site_type_symbol
_atom_site_fract_x
_atom_site_fract_y
_atom_site_fract_z
_atom_type_partial_charge
H0 H 0.03576 0.32945 0.26541 0.0
H1 H 0.04149 0.27202 0.30648 0.0
H2 H 0.04578 0.26691 0.23423 0.0
H3 H 0.02934 0.22075 0.25731 0.0
C4 C 0.0288 0.23044 0.27309 0.0
O5 O 0.047 0.24522 0.27271 0.0
H6 H 0.0114 0.23885 0.2734 0.0
C7 C 0.03783 0.31196 0.2668 0.0
C8 C 0.04087 0.29951 0.24721 0.0
C9 C 0.03795 0.30227 0.2882 0.0
C10 C 0.04113 0.27972 0.29004 0.0
C11 C 0.0436 0.26694 0.27061 0.0
C12 C 0.04338 0.2768 0.24916 0.0
H13 H 0.76152 0.03214 0.29247 0.0
H14 H 0.72588 0.03262 0.2285 0.0
H15 H 0.79904 0.04948 0.23229 0.0
H16 H 0.76721 0.06788 0.18176 0.0
C17 C 0.7544 0.06264 0.19475 0.0
O18 O 0.76303 0.04427 0.20534 0.0
H19 H 0.75235 0.07636 0.20688 0.0
C20 C 0.76171 0.03468 0.27435 0.0
C21 C 0.7825 0.04114 0.26384 0.0
C22 C 0.74117 0.03162 0.26183 0.0
C23 C 0.7416 0.03504 0.23846 0.0
C24 C 0.76247 0.04156 0.22788 0.0
C25 C 0.78292 0.04468 0.24057 0.0
H26 H 0.03482 0.76437 0.31829 0.0
H27 H 0.03007 0.71955 0.26282 0.0
H28 H 0.02558 0.7884 0.25073 0.0
H29 H -0.0004 0.76072 0.2118 0.0
C30 C 0.00468 0.74586 0.22132 0.0
O31 O 0.026 0.74945 0.23184 0.0
H32 H 0.99057 0.74284 0.23394 0.0
C33 C 0.03298 0.7613 0.30037 0.0
C34 C 0.03048 0.77891 0.28556 0.0
C35 C 0.0325 0.73985 0.29248 0.0
C36 C 0.03047 0.73603 0.26924 0.0
C37 C 0.02799 0.75347 0.25419 0.0
C38 C 0.02771 0.77495 0.26237 0.0
H39 H 0.32219 0.00222 0.2541 0.0
H40 H 0.25173 0.98921 0.27588 0.0
H41 H 0.26766 0.99076 0.20514 0.0
H42 H 0.20479 0.99424 0.21927 0.0
C43 C 0.21718 0.99988 0.23246 0.0
O44 O 0.23477 0.98452 0.2349 0.0
H45 H 0.22453 0.01565 0.22658 0.0
C46 C 0.30395 0.99913 0.24998 0.0
C47 C 0.29701 0.99706 0.22737 0.0
C48 C 0.28773 0.99644 0.26747 0.0
C49 C 0.2643 0.99165 0.26242 0.0
C50 C 0.25716 0.98973 0.23989 0.0
C51 C 0.27344 0.9924 0.22246 0.0
H52 H 0.00011 0.70108 0.75426 0.0
H53 H 0.99586 0.76098 0.71685 0.0
H54 H 0.00937 0.76236 0.78803 0.0
H55 H 0.98672 0.81111 0.76443 0.0
C56 C 0.9869 0.80068 0.74917 0.0
O57 O 0.00518 0.78586 0.75103 0.0
H58 H 0.96968 0.7922 0.74827 0.0
C59 C 0.00025 0.7187 0.75379 0.0
C60 C 0.00498 0.73028 0.77367 0.0
C61 C 0.99673 0.72952 0.7332 0.0
C62 C -0.00197 0.75228 0.73262 0.0
C63 C 0.00223 0.76409 0.75236 0.0
C64 C 0.00537 0.75315 0.77296 0.0
H65 H 0.32246 0.9978 0.77129 0.0
H66 H 0.26136 0.02088 0.73589 0.0
H67 H 0.25743 0.00732 0.80697 0.0
H68 H 0.2 0.01053 0.7765 0.0
C69 C 0.21588 0.00531 0.76706 0.0
O70 O 0.23367 0.01991 0.77133 0.0
H71 H 0.22071 0.98883 0.77343 0.0
C72 C 0.30391 0.00198 0.77129 0.0
C73 C 0.29121 1.00138 0.79147 0.0
C74 C 0.29334 0.00913 0.75133 0.0
C75 C 0.26962 0.01521 0.75129 0.0
C76 C 0.25657 0.0141 0.7713 0.0
C77 C 0.26745 0.00755 0.79145 0.0
H78 H 0.01471 0.27336 0.69778 0.0
H79 H 0.02381 0.31308 0.75694 0.0
H80 H 0.03015 0.24356 0.76167 0.0
H81 H 0.01971 0.26536 0.81162 0.0
C82 C 0.01652 0.28001 0.80105 0.0
O83 O 0.0329 0.28041 0.7839 0.0
H84 H -0.0017 0.27861 0.79433 0.0
C85 C 0.01765 0.27491 0.71578 0.0
C86 C 0.02183 0.25616 0.72859 0.0
C87 C 0.01821 0.29557 0.72574 0.0
C88 C 0.02307 0.29728 0.74892 0.0
C89 C 0.02717 0.27854 0.76187 0.0
C90 C 0.02648 0.25797 0.75172 0.0
H91 H 0.78324 0.02127 0.7318 0.0
H92 H 0.74247 0.05284 0.7834 0.0
H93 H 0.81708 0.04491 0.79163 0.0
H94 H 0.78667 0.05608 0.8437 0.0
C95 C 0.77634 0.0476 0.83052 0.0
O96 O 0.77843 0.05898 0.81055 0.0
H97 H 0.78403 0.03096 0.82887 0.0
C98 C 0.78207 0.02845 0.74847 0.0
C99 C 0.80259 0.03166 0.76097 0.0
C100 C 0.7604 0.03626 0.75621 0.0
C101 C 0.75909 0.04654 0.77728 0.0
C102 C 0.7795 0.04905 0.7903 0.0
C103 C 0.80127 0.04207 0.78192 0.0
H104 H 0.2494 0.31912 0.02264 0.0
H105 H 0.28567 0.26003 0.00487 0.0
H106 H 0.21118 0.25924 0.01649 0.0
H107 H 0.23914 0.20644 0.01862 0.0
C108 C 0.25204 0.21966 0.02128 0.0
O109 O 0.24793 0.23578 0.00552 0.0
H110 H 0.24928 0.22593 0.03871 0.0
C111 C 0.24914 0.30175 0.01951 0.0
C112 C 0.22785 0.29046 0.02071 0.0
C113 C 0.27003 0.29095 0.01374 0.0
C114 C 0.26967 0.26854 0.0095 0.0
C115 C 0.24844 0.25717 0.01056 0.0
C116 C 0.22755 0.26813 0.01598 0.0
H117 H 0.23576 0.71649 0.02937 0.0
H118 H 0.27836 0.7733 0.02003 0.0
H119 H 0.20302 0.77913 0.02072 0.0
H120 H 0.22796 0.81605 0.99139 0.0
C121 C 0.24545 0.81049 0.99749 0.0
O122 O 0.24263 0.80047 0.01813 0.0
H123 H 0.25297 0.79904 0.98482 0.0
C124 C 0.23724 0.73395 0.02718 0.0
C125 C 0.21689 0.74671 0.02556 0.0
C126 C 0.25943 0.74333 0.02491 0.0
C127 C 0.26126 0.76583 0.02167 0.0
C128 C 0.24088 0.77873 0.02045 0.0
C129 C 0.21869 0.76914 0.02204 0.0
H130 H 0.80444 0.32425 0.00304 0.0
H131 H 0.76301 0.26625 0.00894 0.0
H132 H 0.83738 0.26138 0.99718 0.0
H133 H 0.81053 0.22231 0.97583 0.0
C134 C 0.79365 0.22829 0.98298 0.0
O135 O 0.79839 0.23947 0.00263 0.0
H136 H 0.78509 0.23905 0.97024 0.0
C137 C 0.80322 0.30665 0.0032 0.0
C138 C 0.82342 0.29404 -0.0004 0.0
C139 C 0.78143 0.29679 0.00677 0.0
C140 C 0.77983 0.27406 0.00653 0.0
C141 C 0.80004 0.26134 0.00314 0.0
C142 C 0.82187 0.27131 -8e-05 0.0
H143 H 0.78231 0.70974 0.98789 0.0
H144 H 0.74135 0.76774 0.99729 0.0
H145 H 0.81659 0.77171 0.9937 0.0
H146 H 0.79226 0.81408 0.01981 0.0
C147 C 0.77537 0.80574 0.01639 0.0
O148 O 0.77755 0.79427 0.99648 0.0
H149 H 0.77161 0.79474 0.03085 0.0
C150 C 0.78127 0.72727 0.98977 0.0
C151 C 0.80199 0.7395 0.9904 0.0
C152 C 0.75934 0.73734 0.99252 0.0
C153 C 0.75825 0.75993 0.99537 0.0
C154 C 0.77884 0.77235 0.99548 0.0
C155 C 0.80072 0.76208 0.99343 0.0
H156 H 0.52722 0.82338 0.74545 0.0
H157 H 0.53891 0.76747 0.78773 0.0
H158 H 0.54153 0.76092 0.71562 0.0
H159 H 0.53111 0.71372 0.73896 0.0
C160 C 0.52754 0.72465 0.75346 0.0
O161 O 0.54493 0.74024 0.75432 0.0
H162 H 0.50999 0.7322 0.75035 0.0
C163 C 0.53052 0.80607 0.74722 0.0
C164 C 0.53373 0.79331 0.72785 0.0
C165 C 0.53254 0.79704 0.76886 0.0
C166 C 0.5375 0.77477 0.77114 0.0
C167 C 0.54047 0.76175 0.75196 0.0
C168 C 0.53899 0.77107 0.73035 0.0
H169 H 0.29713 0.54835 0.79709 0.0
H170 H 0.26911 0.52293 0.73507 0.0
H171 H 0.3435 0.53098 0.74267 0.0
H172 H 0.32552 0.52573 0.68522 0.0
C173 C 0.31135 0.532 0.69634 0.0
O174 O 0.31021 0.51898 0.71529 0.0
H175 H 0.31611 0.54898 0.70095 0.0
C176 C 0.29971 0.54294 0.77986 0.0
C177 C 0.32256 0.54085 0.77126 0.0
C178 C 0.28034 0.53628 0.76701 0.0
C179 C 0.28388 0.52835 0.74508 0.0
C180 C 0.30664 0.527 0.73618 0.0
C181 C 0.32591 0.53293 0.74937 0.0
H182 H 0.48744 0.26326 0.81258 0.0
H183 H 0.48927 0.22181 0.75405 0.0
H184 H 0.49267 0.29112 0.74623 0.0
H185 H 0.47189 0.26596 0.70048 0.0
C186 C 0.474 0.25087 0.71061 0.0
O187 O 0.49286 0.25335 0.72506 0.0
H188 H 0.45734 0.24857 0.72017 0.0
C189 C 0.48769 0.2612 0.79443 0.0
C190 C 0.48946 0.27961 0.78057 0.0
C191 C 0.48778 0.24021 0.78512 0.0
C192 C 0.48913 0.23785 0.7616 0.0
C193 C 0.49053 0.25611 0.74758 0.0
C194 C 0.49085 0.27703 0.75707 0.0
H195 H 0.80374 0.49686 0.76307 0.0
H196 H 0.74068 0.49785 0.80254 0.0
H197 H 0.73647 0.49375 0.73017 0.0
H198 H 0.6891 0.51482 0.75331 0.0
C199 C 0.69727 0.51163 0.77002 0.0
O200 O 0.7121 0.49387 0.76804 0.0
H201 H 0.70709 0.52647 0.77505 0.0
C202 C 0.78472 0.49636 0.76407 0.0
C203 C 0.77148 0.49512 0.74424 0.0
C204 C 0.77374 0.4976 0.7851 0.0
C205 C 0.7492 0.49717 0.78628 0.0
C206 C 0.73571 0.49558 0.76654 0.0
C207 C 0.74686 0.49487 0.74542 0.0
H208 H 0.49747 0.21639 0.26742 0.0
H209 H 0.49869 0.27183 0.22322 0.0
H210 H 0.50427 0.28076 0.29488 0.0
H211 H 0.48345 0.32464 0.26797 0.0
C212 C 0.48486 0.31438 0.25263 0.0
O213 O 0.50382 0.30038 0.25509 0.0
H214 H 0.46815 0.30514 0.25115 0.0
C215 C 0.49788 0.23386 0.265 0.0
C216 C 0.5002 0.24741 0.28387 0.0
C217 C 0.49722 0.24234 0.24307 0.0
C218 C 0.49912 0.26489 0.24001 0.0
C219 C 0.50152 0.27873 0.2586 0.0
C220 C 0.50223 0.27001 0.28057 0.0
H221 H 0.79959 0.50017 0.27102 0.0
H222 H 0.74094 0.51716 0.2289 0.0
H223 H 0.73202 0.51296 0.3008 0.0
H224 H 0.67935 0.50976 0.27475 0.0
C225 C 0.69292 0.50471 0.26235 0.0
O226 O 0.71057 0.52009 0.26247 0.0
H227 H 0.69971 0.48851 0.26785 0.0
C228 C 0.78102 0.50385 0.26921 0.0
C229 C 0.76687 0.50566 0.28844 0.0
C230 C 0.77187 0.50826 0.24779 0.0
C231 C 0.74804 0.51366 0.24544 0.0
C232 C 0.73356 0.51487 0.26457 0.0
C233 C 0.74313 0.51137 0.28606 0.0
H234 H 0.55039 0.77255 0.2054 0.0
H235 H 0.55604 0.80967 0.26662 0.0
H236 H 0.55479 0.73986 0.2695 0.0
H237 H 0.54231 0.76259 0.32002 0.0
C238 C 0.54081 0.77667 0.30836 0.0
O239 O 0.55912 0.77575 0.29314 0.0
H240 H 0.5235 0.77516 0.2997 0.0
C241 C 0.55215 0.77317 0.2236 0.0
C242 C 0.55239 0.75378 0.23607 0.0
C243 C 0.55314 0.79338 0.23447 0.0
C244 C 0.555 0.79416 0.25803 0.0
C245 C 0.55594 0.77488 0.27059 0.0
C246 C 0.55428 0.75471 0.25966 0.0
H247 H 0.29012 0.52819 0.21335 0.0
H248 H 0.25114 0.54685 0.27225 0.0
H249 H 0.32661 0.54935 0.27291 0.0
H250 H 0.2961 0.54956 0.32973 0.0
C251 C 0.28783 0.54138 0.31509 0.0
O252 O 0.28851 0.55527 0.29681 0.0
H253 H 0.29835 0.5264 0.31174 0.0
C254 C 0.28989 0.53317 0.23089 0.0
C255 C 0.31102 0.53811 0.24182 0.0
C256 C 0.2683 0.53637 0.24165 0.0
C257 C 0.26779 0.54399 0.2639 0.0
C258 C 0.2889 0.54803 0.27534 0.0
C259 C 0.31045 0.54541 0.26421 0.0
H260 H 0.77243 0.83277 0.50194 0.0
H261 H 0.81077 0.7749 0.48364 0.0
H262 H 0.73636 0.77185 0.49484 0.0
H263 H 0.75867 0.72256 0.49686 0.0
C264 C 0.77402 0.73317 0.50005 0.0
O265 O 0.77416 0.74948 0.48398 0.0
H266 H 0.77167 0.74012 0.51727 0.0
C267 C 0.77278 0.81546 0.49852 0.0
C268 C 0.75181 0.8036 0.4996 0.0
C269 C 0.79412 0.80544 0.49249 0.0
C270 C 0.79454 0.78296 0.48837 0.0
C271 C 0.77374 0.77091 0.48918 0.0
C272 C 0.75236 0.78128 0.49444 0.0
H273 H 0.76659 0.2088 0.49679 0.0
H274 H 0.81136 0.26474 0.5 0.0
H275 H 0.73635 0.27264 0.50382 0.0
H276 H 0.76361 0.31589 0.48211 0.0
C277 C 0.77991 0.30612 0.4845 0.0
O278 O 0.77696 0.29295 0.50318 0.0
H279 H 0.78275 0.29633 0.46893 0.0
C280 C 0.7688 0.22625 0.49823 0.0
C281 C 0.74887 0.23956 0.50029 0.0
C282 C 0.79145 0.23503 0.49837 0.0
C283 C 0.79401 0.25765 0.49989 0.0
C284 C 0.77418 0.27119 0.50163 0.0
C285 C 0.75159 0.26215 0.50213 0.0
H286 H 0.2674 0.83167 0.51808 0.0
H287 H 0.22664 0.77428 0.53102 0.0
H288 H 0.30098 0.76882 0.51999 0.0
H289 H 0.27512 0.72762 0.50281 0.0
C290 C 0.25787 0.73426 0.50835 0.0
O291 O 0.2616 0.74717 0.5271 0.0
H292 H 0.25057 0.74398 0.49409 0.0
C293 C 0.26633 0.81422 0.52044 0.0
C294 C 0.28682 0.80154 0.51865 0.0
C295 C 0.24452 0.80465 0.52507 0.0
C296 C 0.24329 0.78199 0.52753 0.0
C297 C 0.26349 0.76907 0.52555 0.0
C298 C 0.28538 0.77886 0.5215 0.0
H299 H 0.27028 0.19923 0.52121 0.0
H300 H 0.22453 0.25519 0.51975 0.0
H301 H 0.29929 0.2634 0.51551 0.0
H302 H 0.27217 0.30458 0.5394 0.0
C303 C 0.25524 0.29644 0.53564 0.0
O304 O 0.25827 0.28354 0.51676 0.0
H305 H 0.25033 0.28651 0.55062 0.0
C306 C 0.26772 0.21669 0.52022 0.0
C307 C 0.28736 0.23018 0.51822 0.0
C308 C 0.2449 0.22547 0.52068 0.0
C309 C 0.24198 0.24811 0.51963 0.0
C310 C 0.26152 0.26178 0.51801 0.0
C311 C 0.28424 0.25281 0.51711 0.0
Zn312 Zn 0.9658 0.99088 0.46052 0.0
Zn313 Zn 0.96754 0.04328 0.46589 0.0
O314 O 0.98795 0.01674 0.46155 0.0
H315 H 0.00347 0.01634 0.45501 0.0
C316 C 0.9571 0.9755 0.50904 0.0
O317 O 0.94491 0.9937 0.50895 0.0
Zn318 Zn 0.05615 0.04573 0.54901 0.0
Zn319 Zn 0.05077 0.99417 0.55207 0.0
O320 O 0.03268 0.02261 0.55652 0.0
H321 H 0.01976 0.0246 0.56688 0.0
Zn322 Zn 0.98535 0.00172 0.53904 0.0
O323 O -0.00099 0.02991 0.52638 0.0
Zn324 Zn 0.98592 0.05358 0.54607 0.0
H325 H 0.00554 0.03196 0.51155 0.0
Zn326 Zn 0.04468 0.9926 0.46629 0.0
O327 O 0.03969 0.01925 0.48517 0.0
H328 H 0.04133 0.0182 0.50132 0.0
Zn329 Zn 0.04559 0.04499 0.46517 0.0
C330 C 0.0704 0.96716 0.49938 0.0
O331 O 0.0768 0.98676 0.50554 0.0
O332 O 0.93183 1.0009 0.45485 0.0
O333 O 0.93418 0.0369 0.45716 0.0
O334 O 0.08571 0.99907 0.55885 0.0
O335 O 0.08853 0.03513 0.55878 0.0
O336 O 0.96475 0.00561 0.56724 0.0
O337 O 0.96501 0.04155 0.57038 0.0
C338 C 0.00116 0.07046 0.44537 0.0
O339 O 0.06351 0.99958 0.4378 0.0
O340 O 0.06465 0.03577 0.43775 0.0
O341 O 0.03867 0.9657 0.56738 0.0
C342 C 0.92241 0.01968 0.45347 0.0
O343 O 0.97513 0.96466 0.4401 0.0
C344 C 0.02839 0.07987 0.57131 0.0
O345 O 0.97658 0.97496 0.51948 0.0
C346 C 0.09761 0.0163 0.56187 0.0
O347 O 0.05592 0.9651 0.48323 0.0
C348 C 0.96187 0.06985 0.50683 0.0
O349 O 0.97909 0.06813 0.44681 0.0
O350 O 0.01399 0.05683 0.4559 0.0
C351 C 0.95836 0.02295 0.57721 0.0
O352 O 0.04869 0.07216 0.56722 0.0
O353 O 0.0102 0.0713 0.56272 0.0
C354 C 0.06628 0.06675 0.50406 0.0
O355 O 0.96643 0.07394 0.52732 0.0
O356 O 0.96969 0.05248 0.49804 0.0
C357 C 0.07025 0.01744 0.42913 0.0
O358 O 0.06416 0.06685 0.4827 0.0
O359 O 0.05498 0.05293 0.51569 0.0
C360 C 0.0193 0.96394 0.57786 0.0
O361 O 0.00487 0.98064 0.57846 0.0
C362 C 0.99498 0.95512 0.43983 0.0
O363 O 0.01148 0.96153 0.45375 0.0
Zn364 Zn 0.49117 0.05974 0.02944 0.0
Zn365 Zn 0.48727 0.05765 0.97529 0.0
O366 O 0.49353 0.03971 0.00266 0.0
H367 H 0.49455 0.02412 0.00395 0.0
C368 C 0.53423 0.07901 0.07519 0.0
O369 O 0.52868 0.05841 0.07734 0.0
Zn370 Zn 0.54657 0.97959 0.97246 0.0
Zn371 Zn 0.53993 0.97973 0.02636 0.0
O372 O 0.53368 0.99741 0.99769 0.0
H373 H 0.5315 0.01296 0.9973 0.0
Zn374 Zn 0.56202 0.06675 0.03364 0.0
O375 O 0.54232 0.06361 0.00561 0.0
Zn376 Zn 0.56519 0.05859 0.98034 0.0
H377 H 0.52732 0.07094 0.0046 0.0
Zn378 Zn 0.47942 0.97171 0.03073 0.0
O379 O 0.49818 0.9698 0.00159 0.0
H380 H 0.49135 0.97024 0.01648 0.0
Zn381 Zn 0.4747 0.97659 0.97762 0.0
C382 C 0.51098 0.94746 0.06118 0.0
O383 O 0.52034 0.94123 0.042 0.0
O384 O 0.4717 0.08689 0.02145 0.0
O385 O 0.46766 0.08426 0.98419 0.0
O386 O 0.56446 0.95525 0.02134 0.0
O387 O 0.56952 0.95745 0.98427 0.0
O388 O 0.59541 0.07665 0.02592 0.0
O389 O 0.59752 0.06986 0.98917 0.0
C390 C 0.46635 0.01924 0.95458 0.0
O391 O 0.4451 0.96294 0.02547 0.0
O392 O 0.44252 0.96663 0.98824 0.0
O393 O 0.54841 0.99736 0.05486 0.0
C394 C 0.46327 0.09385 0.00286 0.0
O395 O 0.48067 0.04511 0.0591 0.0
C396 C 0.57025 0.01767 0.95453 0.0
O397 O 0.54718 0.08501 0.05894 0.0
C398 C 0.57485 0.94929 0.00336 0.0
O399 O 0.49385 0.96077 0.06091 0.0
C400 C 0.53208 0.07544 0.94965 0.0
O401 O 0.46941 0.03964 0.95263 0.0
O402 O 0.47595 0.00893 0.97075 0.0
C403 C 0.60675 0.07666 0.00745 0.0
O404 O 0.56469 0.99805 0.95081 0.0
O405 O 0.56393 0.02667 0.97283 0.0
C406 C 0.50424 0.95555 0.9445 0.0
O407 O 0.55413 0.0748 0.95274 0.0
O408 O 0.51923 0.06583 0.96396 0.0
C409 C 0.43341 0.9617 0.00723 0.0
O410 O 0.48304 0.95902 0.95019 0.0
O411 O 0.52064 0.96483 0.95529 0.0
C412 C 0.56223 0.01293 0.05059 0.0
O413 O 0.56701 0.01733 0.0294 0.0
C414 C 0.47087 0.02662 0.05822 0.0
O415 O 0.46911 0.01674 0.03869 0.0
Zn416 Zn 0.99167 0.49841 0.97347 0.0
Zn417 Zn 0.98191 0.54984 0.97941 0.0
O418 O 0.00698 0.52708 0.98118 0.0
H419 H 0.01827 0.52807 0.99326 0.0
C420 C 0.98257 0.46201 0.0255 0.0
O421 O 0.98415 0.47878 0.0119 0.0
Zn422 Zn 0.06537 0.54243 0.03964 0.0
Zn423 Zn 0.06544 0.49026 0.04539 0.0
O424 O 0.04369 0.51668 0.04183 0.0
H425 H 0.02809 0.51611 0.03547 0.0
Zn426 Zn 0.98992 0.49613 0.05897 0.0
O427 O 0.98118 0.52057 0.03747 0.0
Zn428 Zn 0.98394 0.54621 0.05795 0.0
H429 H 0.96985 0.51899 0.02545 0.0
Zn430 Zn 0.06366 0.49398 0.95293 0.0
O431 O 0.05705 0.51854 0.97383 0.0
H432 H 0.05647 0.51597 0.98988 0.0
Zn433 Zn 0.05947 0.54664 0.95686 0.0
C434 C 0.06929 0.45777 0.98558 0.0
O435 O 0.04822 0.46363 0.99236 0.0
O436 O 0.95799 0.50247 0.96209 0.0
O437 O 0.95191 0.53804 0.96558 0.0
O438 O 0.09781 0.49913 0.05776 0.0
O439 O 0.09685 0.53506 0.05363 0.0
O440 O 0.9746 0.50199 0.08983 0.0
O441 O 0.97025 0.53794 0.08841 0.0
C442 C 0.01283 0.57501 0.95142 0.0
O443 O 0.08023 0.50538 0.92457 0.0
O444 O 0.07632 0.54148 0.92651 0.0
O445 O 0.05303 0.46105 0.05897 0.0
C446 C 0.94504 0.51922 0.95951 0.0
O447 O 0.0098 0.47376 0.95671 0.0
C448 C 0.03172 0.56948 0.06331 0.0
O449 O 0.98533 0.4649 0.04654 0.0
C450 C 0.10725 0.51772 0.06014 0.0
O451 O 0.07876 0.4676 0.96908 0.0
C452 C 0.96539 0.57185 0.02286 0.0
O453 O 0.9923 0.57479 0.9598 0.0
O454 O 0.0266 0.55937 0.95651 0.0
C455 C 0.96741 0.51978 0.09851 0.0
O456 O 0.05302 0.56823 0.05712 0.0
O457 O 0.01816 0.55403 0.05774 0.0
C458 C 0.0779 0.56615 0.99714 0.0
O459 O 0.96526 0.57059 0.04423 0.0
O460 O 0.97753 0.5582 0.01184 0.0
C461 C 0.08387 0.52431 0.91653 0.0
O462 O 0.0776 0.56769 0.97577 0.0
O463 O 0.06852 0.54991 0.00667 0.0
C464 C 0.03846 0.46125 0.0752 0.0
O465 O 0.03 0.48002 0.08209 0.0
C466 C 0.00438 0.47288 0.93595 0.0
O467 O 0.99051 0.48806 0.92766 0.0
Zn468 Zn 0.48354 0.4805 0.98697 0.0
Zn469 Zn 0.48371 0.48109 0.0409 0.0
O470 O 0.49034 0.49914 0.01361 0.0
H471 H 0.48787 0.51455 0.01166 0.0
C472 C 0.52262 0.44976 0.94169 0.0
O473 O 0.5049 0.45821 0.95286 0.0
Zn474 Zn 0.54703 0.55558 0.04642 0.0
Zn475 Zn 0.54289 0.54592 0.99492 0.0
O476 O 0.52782 0.53831 0.02516 0.0
H477 H 0.52167 0.52434 0.02941 0.0
Zn478 Zn 0.55561 0.469 0.97753 0.0
O479 O 0.5361 0.47092 0.0064 0.0
Zn480 Zn 0.55957 0.47477 0.03178 0.0
H481 H 0.52072 0.46452 0.00781 0.0
Zn482 Zn 0.48158 0.56984 0.98968 0.0
O483 O 0.50195 0.57278 0.01794 0.0
H484 H 0.51567 0.58186 0.01932 0.0
Zn485 Zn 0.48009 0.56436 0.04309 0.0
C486 C 0.51034 0.58499 0.94892 0.0
O487 O 0.52789 0.57319 0.95663 0.0
O488 O 0.4617 0.45529 0.99521 0.0
O489 O 0.46124 0.45642 0.03282 0.0
O490 O 0.56345 0.57356 0.99432 0.0
O491 O 0.56689 0.5784 0.03116 0.0
O492 O 0.58939 0.45974 0.98509 0.0
O493 O 0.59154 0.46347 0.02233 0.0
C494 C 0.47015 0.52154 0.06413 0.0
O495 O 0.44718 0.57665 0.99761 0.0
O496 O 0.44765 0.57607 0.03511 0.0
O497 O 0.55453 0.52196 0.97312 0.0
C498 C 0.45453 0.4481 0.01415 0.0
O499 O 0.4759 0.49803 0.9582 0.0
C500 C 0.57122 0.51476 0.0575 0.0
O501 O 0.54343 0.45257 0.94889 0.0
C502 C 0.57164 0.58403 0.01102 0.0
O503 O 0.49108 0.58553 0.95976 0.0
C504 C 0.52814 0.45764 0.06408 0.0
O505 O 0.47042 0.50083 0.06485 0.0
O506 O 0.47885 0.53156 0.04735 0.0
C507 C 0.60071 0.45799 0.00353 0.0
O508 O 0.56858 0.53479 0.06222 0.0
O509 O 0.56037 0.50647 0.04088 0.0
C510 C 0.51104 0.58054 0.08009 0.0
O511 O 0.54974 0.45733 0.05892 0.0
O512 O 0.51451 0.46857 0.05136 0.0
C513 C 0.437 0.57961 0.01648 0.0
O514 O 0.49041 0.57877 0.07201 0.0
O515 O 0.5287 0.57221 0.07008 0.0
C516 C 0.54232 0.51692 0.95602 0.0
O517 O 0.52106 0.52509 0.95406 0.0
C518 C 0.46085 0.51326 0.9599 0.0
O519 O 0.45082 0.51689 0.97949 0.0
Zn520 Zn 0.98202 0.49649 0.48005 0.0
Zn521 Zn 0.97376 0.54883 0.48056 0.0
O522 O -0.00198 0.52533 0.48496 0.0
H523 H 0.01261 0.52706 0.49301 0.0
C524 C 0.95503 0.46698 0.52291 0.0
O525 O 0.94839 0.48633 0.51594 0.0
Zn526 Zn 0.06287 0.55032 0.53799 0.0
Zn527 Zn 0.06134 0.49795 0.54176 0.0
O528 O 0.04126 0.5247 0.53707 0.0
H529 H 0.02591 0.52445 0.53022 0.0
Zn530 Zn 0.98195 0.4941 0.55358 0.0
O531 O 0.97947 0.52152 0.53472 0.0
Zn532 Zn 0.98099 0.54627 0.55658 0.0
H533 H 0.97184 0.52168 0.52021 0.0
Zn534 Zn 0.05786 0.49267 0.46288 0.0
O535 O 0.05769 0.51997 0.48184 0.0
H536 H 0.06109 0.52005 0.49777 0.0
Zn537 Zn 0.0558 0.54541 0.46069 0.0
C538 C 0.08655 0.46623 0.49348 0.0
O539 O 0.09154 0.48558 0.50144 0.0
O540 O 0.94919 0.50065 0.46653 0.0
O541 O 0.94436 0.53661 0.46556 0.0
O542 O 0.09366 0.50566 0.5548 0.0
O543 O 0.09382 0.54183 0.55261 0.0
O544 O 0.96816 0.49987 0.58503 0.0
O545 O 0.96816 0.53604 0.58673 0.0
C546 C 0.00949 0.57184 0.45583 0.0
O547 O 0.06935 0.49941 0.4308 0.0
O548 O 0.06726 0.53556 0.42975 0.0
O549 O 0.04568 0.47096 0.55609 0.0
C550 C 0.93703 0.5174 0.46146 0.0
O551 O 0.00072 0.47066 0.4662 0.0
C552 C 0.0261 0.5733 0.56135 0.0
O553 O 0.97008 0.46557 0.53869 0.0
C554 C 0.1036 0.52387 0.5582 0.0
O555 O 0.07199 0.46468 0.47731 0.0
C556 C 0.95566 0.57302 0.52515 0.0
O557 O 0.98798 0.57243 0.46163 0.0
O558 O 0.02192 0.55557 0.46175 0.0
C559 C 0.96344 0.51752 0.59535 0.0
O560 O 0.04756 0.57445 0.55558 0.0
O561 O 0.01469 0.55631 0.55619 0.0
C562 C 0.08037 0.57087 0.49305 0.0
O563 O 0.95978 0.57043 0.54603 0.0
O564 O 0.9663 0.56047 0.51149 0.0
C565 C 0.07221 0.51736 0.42045 0.0
O566 O 0.07792 0.56871 0.47189 0.0
O567 O 0.06755 0.5593 0.50576 0.0
C568 C 0.03109 0.4737 0.57205 0.0
O569 O 0.02547 0.4936 0.57811 0.0
C570 C 0.01197 0.47367 0.44798 0.0
O571 O 0.0128 0.49338 0.43944 0.0
Zn572 Zn 0.48679 0.00229 0.464 0.0
Zn573 Zn 0.47637 0.05285 0.47046 0.0
O574 O 0.50209 0.03173 0.46263 0.0
H575 H 0.51434 0.0341 0.45166 0.0
C576 C 0.4633 0.96424 0.51661 0.0
O577 O 0.45888 0.98199 0.50498 0.0
Zn578 Zn 0.57391 0.04868 0.5439 0.0
Zn579 Zn 0.5784 0.99642 0.54573 0.0
O580 O 0.5547 0.02126 0.54518 0.0
H581 H 0.53874 0.01974 0.53998 0.0
Zn582 Zn 0.49219 0.99367 0.5462 0.0
O583 O 0.49377 0.02183 0.52787 0.0
Zn584 Zn 0.49211 0.04651 0.55031 0.0
H585 H 0.49321 0.00759 0.5347 0.0
Zn586 Zn 0.55457 0.00342 0.47857 0.0
O587 O 0.54218 0.03248 0.49067 0.0
H588 H 0.54722 0.01794 0.4868 0.0
Zn589 Zn 0.55007 0.05502 0.46696 0.0
C590 C 0.57047 0.9607 0.48845 0.0
O591 O 0.55937 0.95904 0.46912 0.0
O592 O 0.45181 0.00545 0.45591 0.0
O593 O 0.44528 0.04114 0.45837 0.0
O594 O 0.61017 0.00696 0.55787 0.0
O595 O 0.60675 0.04301 0.55618 0.0
O596 O 0.48102 0.99955 0.57859 0.0
O597 O 0.47832 0.03565 0.57962 0.0
C598 C 0.50534 0.08668 0.45307 0.0
O599 O 0.56731 0.00554 0.4462 0.0
O600 O 0.56297 0.04078 0.43861 0.0
O601 O 0.56843 0.96559 0.55705 0.0
C602 C 0.43829 0.02192 0.45369 0.0
O603 O 0.50452 0.97769 0.44677 0.0
C604 C 0.53662 0.07264 0.56466 0.0
O605 O 0.47726 0.96518 0.53332 0.0
C606 C 0.61846 0.02589 0.56123 0.0
O607 O 0.57074 0.97914 0.49815 0.0
C608 C 0.46745 0.07106 0.51679 0.0
O609 O 0.48395 0.08179 0.45639 0.0
O610 O 0.5212 0.07325 0.45919 0.0
C611 C 0.47553 0.01706 0.58879 0.0
O612 O 0.5588 0.07207 0.56266 0.0
O613 O 0.52498 0.05739 0.5555 0.0
C614 C 0.58242 0.07296 0.499 0.0
O615 O 0.47164 0.07041 0.53781 0.0
O616 O 0.47643 0.05657 0.50414 0.0
C617 C 0.5693 0.02163 0.43283 0.0
O618 O 0.57554 0.07436 0.47868 0.0
O619 O 0.57281 0.05897 0.51173 0.0
C620 C 0.54911 0.96157 0.56691 0.0
O621 O 0.5337 0.97734 0.56953 0.0
C622 C 0.50595 0.95833 0.45416 0.0
O623 O 0.49659 0.95365 0.47379 0.0
C624 C 0.22401 0.19206 0.50792 0.0
C625 C 0.22427 0.21083 0.52135 0.0
C626 C 0.20495 0.17798 0.50852 0.0
C627 C 0.15502 0.16042 0.54316 0.0
H628 H 0.13579 0.13414 0.48675 0.0
C629 C 0.07705 0.09894 0.52758 0.0
C630 C 0.08377 0.08121 0.5141 0.0
C631 C 0.09309 0.11566 0.53199 0.0
C632 C 0.14099 0.14134 0.50264 0.0
H633 H 0.20463 0.22963 0.54592 0.0
H634 H 0.17094 0.20497 0.54676 0.0
H635 H 0.16491 0.16288 0.48647 0.0
H636 H 0.11237 0.06615 0.49579 0.0
H637 H 0.14033 0.09505 0.50361 0.0
H638 H 0.13084 0.13851 0.55919 0.0
C639 C 0.1857 0.20113 0.53593 0.0
C640 C 0.15769 0.15776 0.5025 0.0
C641 C 0.20486 0.21532 0.5353 0.0
C642 C 0.10693 0.07965 0.50634 0.0
C643 C 0.12282 0.09622 0.51068 0.0
C644 C 0.13805 0.14397 0.54328 0.0
C645 C 0.18555 0.18233 0.52247 0.0
C646 C 0.16548 0.16702 0.52278 0.0
C647 C 0.11579 0.11479 0.5227 0.0
C648 C 0.13149 0.13386 0.52304 0.0
H649 H 0.23851 0.18828 0.49676 0.0
H650 H 0.20557 0.16349 0.49817 0.0
H651 H 0.16067 0.16727 0.55906 0.0
H652 H 0.05907 0.10066 0.53323 0.0
H653 H 0.0873 0.12986 0.54127 0.0
C654 C 0.81202 0.20095 0.51017 0.0
C655 C 0.81211 0.22024 0.4975 0.0
C656 C 0.83025 0.18591 0.50821 0.0
C657 C 0.87792 0.16821 0.47007 0.0
H658 H 0.89581 0.13413 0.52245 0.0
C659 C 0.9558 0.10559 0.48838 0.0
C660 C 0.947 0.0851 0.49427 0.0
C661 C 0.94036 0.1227 0.48336 0.0
C662 C 0.89091 0.14355 0.50771 0.0
H663 H 0.8319 0.23929 0.47341 0.0
H664 H 0.86437 0.21312 0.47044 0.0
H665 H 0.86857 0.16447 0.52681 0.0
H666 H 0.91569 0.06575 0.49826 0.0
H667 H 0.8886 0.09583 0.48995 0.0
H668 H 0.90105 0.14719 0.45124 0.0
C669 C 0.84981 0.20946 0.48152 0.0
C670 C 0.87526 0.16085 0.51014 0.0
C671 C 0.83138 0.22456 0.48341 0.0
C672 C 0.92277 0.08137 0.49336 0.0
C673 C 0.90734 0.09853 0.4887 0.0
C674 C 0.89395 0.15098 0.46772 0.0
C675 C 0.84931 0.18984 0.49376 0.0
C676 C 0.86809 0.1731 0.49129 0.0
C677 C 0.91604 0.11947 0.48462 0.0
C678 C 0.9001 0.1383 0.48649 0.0
H679 H 0.79763 0.1973 0.52148 0.0
H680 H 0.82903 0.17089 0.51768 0.0
H681 H 0.87267 0.17722 0.45519 0.0
H682 H 0.97447 0.10877 0.48931 0.0
H683 H 0.94735 0.1388 0.48046 0.0
C684 C 0.81383 0.83893 0.47818 0.0
C685 C 0.81546 0.81894 0.48957 0.0
C686 C 0.83321 0.85259 0.47661 0.0
C687 C 0.88839 0.8654 0.50564 0.0
H688 H 0.89692 0.90323 0.45394 0.0
C689 C 0.9563 0.9348 0.50598 0.0
C690 C 0.94639 0.95517 0.5006 0.0
C691 C 0.94415 0.91561 0.50124 0.0
C692 C 0.89482 0.89272 0.46846 0.0
H693 H 0.83901 0.79719 0.5075 0.0
H694 H 0.87319 0.82109 0.50455 0.0
H695 H 0.86874 0.87354 0.45196 0.0
H696 H 0.91658 0.97123 0.48489 0.0
H697 H 0.89573 0.93785 0.47623 0.0
H698 H 0.91415 0.88493 0.52228 0.0
C699 C 0.85673 0.82628 0.49709 0.0
C700 C 0.87863 0.87576 0.46738 0.0
C701 C 0.83724 0.81252 0.49864 0.0
C702 C 0.92479 0.95585 0.48916 0.0
C703 C 0.91283 0.93669 0.48416 0.0
C704 C 0.90472 0.88229 0.50666 0.0
C705 C 0.85484 0.84662 0.48629 0.0
C706 C 0.87467 0.86232 0.4862 0.0
C707 C 0.92205 0.9164 0.49072 0.0
C708 C 0.9076 0.89651 0.48831 0.0
H709 H 0.7974 0.84418 0.47068 0.0
H710 H 0.83094 0.86821 0.46842 0.0
H711 H 0.88566 0.85553 0.52053 0.0
H712 H 0.97292 0.93368 0.5148 0.0
H713 H 0.95177 0.90019 0.50631 0.0
C714 C 0.20199 0.812 0.51658 0.0
C715 C 0.22308 0.81839 0.52688 0.0
C716 C 0.18227 0.82561 0.51713 0.0
C717 C 0.15682 0.87412 0.54558 0.0
H718 H 0.12466 0.88223 0.48855 0.0
C719 C 0.1018 0.95017 0.52322 0.0
C720 C 0.08255 0.94781 0.50861 0.0
C721 C 0.11566 0.93219 0.52898 0.0
C722 C 0.13308 0.87987 0.50475 0.0
H723 H 0.2397 0.84364 0.54666 0.0
H724 H 0.20551 0.86759 0.54717 0.0
H725 H 0.15525 0.85474 0.49173 0.0
H726 H 0.06154 0.92449 0.49015 0.0
H727 H 0.08557 0.89312 0.50042 0.0
H728 H 0.13501 0.8998 0.55835 0.0
C729 C 0.2041 0.85199 0.53885 0.0
C730 C 0.15067 0.86409 0.50657 0.0
C731 C 0.2238 0.83839 0.5383 0.0
C732 C 0.07646 0.9269 0.50119 0.0
C733 C 0.09028 0.90893 0.50698 0.0
C734 C 0.13919 0.88994 0.54376 0.0
C735 C 0.1832 0.8459 0.528 0.0
C736 C 0.16301 0.86126 0.52688 0.0
C737 C 0.1105 0.9115 0.52029 0.0
C738 C 0.12738 0.89322 0.52321 0.0
H739 H 0.20091 0.79675 0.50754 0.0
H740 H 0.16635 0.82035 0.50881 0.0
H741 H 0.16578 0.87211 0.56156 0.0
H742 H 0.1069 0.96605 0.52932 0.0
H743 H 0.13118 0.93476 0.53918 0.0
C744 C 0.51046 0.23028 0.20475 0.0
C745 C 0.49598 0.22722 0.22362 0.0
C746 C 0.51183 0.2144 0.188 0.0
C747 C 0.48399 0.1641 0.16601 0.0
H748 H 0.54718 0.15272 0.14457 0.0
C749 C 0.51258 0.08972 0.11054 0.0
C750 C 0.52663 0.09535 0.09196 0.0
C751 C 0.50672 0.10538 0.12679 0.0
C752 C 0.52942 0.15577 0.15035 0.0
H753 H 0.47024 0.20587 0.23886 0.0
H754 H 0.47325 0.17785 0.21004 0.0
H755 H 0.54047 0.18157 0.17178 0.0
H756 H 0.5448 0.12197 0.07546 0.0
H757 H 0.53472 0.14891 0.10364 0.0
H758 H 0.47321 0.13783 0.14459 0.0
C759 C 0.48344 0.19254 0.20807 0.0
C760 C 0.52552 0.17241 0.1658 0.0
C761 C 0.48191 0.20851 0.22472 0.0
C762 C 0.53414 0.11696 0.08964 0.0
C763 C 0.52844 0.13244 0.10583 0.0
C764 C 0.48795 0.14725 0.15059 0.0
C765 C 0.49891 0.19504 0.18984 0.0
C766 C 0.50273 0.17704 0.17356 0.0
C767 C 0.51502 0.12676 0.12471 0.0
C768 C 0.51067 0.14322 0.14238 0.0
H769 H 0.52157 0.24445 0.2034 0.0
H770 H 0.52351 0.21706 0.17387 0.0
H771 H 0.46621 0.16727 0.17162 0.0
H772 H 0.50643 0.07321 0.11272 0.0
H773 H 0.49632 0.10065 0.14125 0.0
C774 C 0.79524 0.52927 0.22 0.0
C775 C 0.78818 0.50907 0.22855 0.0
C776 C 0.81451 0.53059 0.20549 0.0
C777 C 0.85348 0.49882 0.16817 0.0
H778 H 0.90036 0.54131 0.18521 0.0
C779 C 0.94435 0.49863 0.12685 0.0
C780 C 0.95186 0.51885 0.1185 0.0
C781 C 0.9256 0.49745 0.14195 0.0
C782 C 0.88738 0.52948 0.18015 0.0
H783 H 0.79473 0.47442 0.22816 0.0
H784 H 0.82805 0.47657 0.2022 0.0
H785 H 0.86329 0.53962 0.20583 0.0
H786 H 0.94696 0.55377 0.12116 0.0
H787 H 0.91433 0.55168 0.14759 0.0
H788 H 0.87743 0.48874 0.14242 0.0
C789 C 0.81882 0.49138 0.2067 0.0
C790 C 0.86612 0.52857 0.19188 0.0
C791 C 0.79977 0.49011 0.22147 0.0
C792 C 0.94152 0.53792 0.12712 0.0
C793 C 0.92281 0.53673 0.1423 0.0
C794 C 0.87469 0.49976 0.15641 0.0
C795 C 0.82686 0.5117 0.19915 0.0
C796 C 0.84895 0.51322 0.18601 0.0
C797 C 0.91405 0.51645 0.14916 0.0
C798 C 0.89191 0.51506 0.1623 0.0
H799 H 0.7867 0.54411 0.22557 0.0
H800 H 0.82018 0.54644 0.19973 0.0
H801 H 0.8405 0.48696 0.16316 0.0
H802 H 0.95202 0.48359 0.12076 0.0
H803 H 0.9196 0.4816 0.14736 0.0
C804 C 0.56736 0.81711 0.20329 0.0
C805 C 0.55154 0.8135 0.221 0.0
C806 C 0.5645 0.83502 0.18904 0.0
C807 C 0.5184 0.87058 0.16696 0.0
H808 H 0.57048 0.9041 0.1435 0.0
C809 C 0.50386 0.93843 0.10173 0.0
C810 C 0.51827 0.93702 0.08254 0.0
C811 C 0.50914 0.92633 0.12103 0.0
C812 C 0.55579 0.89484 0.14989 0.0
H813 H 0.52062 0.82571 0.23811 0.0
H814 H 0.51536 0.85703 0.21299 0.0
H815 H 0.57742 0.87734 0.17336 0.0
H816 H 0.55029 0.92292 0.06903 0.0
H817 H 0.55958 0.90188 0.10283 0.0
H818 H 0.49686 0.88761 0.14318 0.0
C819 C 0.53005 0.84609 0.21018 0.0
C820 C 0.55975 0.87954 0.16695 0.0
C821 C 0.53312 0.82833 0.22463 0.0
C822 C 0.53875 0.92421 0.08349 0.0
C823 C 0.54415 0.91227 0.1029 0.0
C824 C 0.51444 0.88586 0.14994 0.0
C825 C 0.54554 0.84946 0.19206 0.0
C826 C 0.54114 0.86706 0.17545 0.0
C827 C 0.52906 0.91276 0.12164 0.0
C828 C 0.53314 0.89795 0.14102 0.0
H829 H 0.58168 0.80582 0.20023 0.0
H830 H 0.57658 0.83705 0.17511 0.0
H831 H 0.50377 0.86094 0.17287 0.0
H832 H 0.48799 0.94822 0.10156 0.0
H833 H 0.49736 0.92724 0.13533 0.0
C834 C 0.2412 0.51336 0.2193 0.0
C835 C 0.24677 0.5338 0.22821 0.0
C836 C 0.22489 0.5116 0.20182 0.0
C837 C 0.20455 0.54309 0.1537 0.0
H838 H 0.15768 0.49804 0.14766 0.0
C839 C 0.1364 0.54003 0.08147 0.0
C840 C 0.12858 0.51952 0.07427 0.0
C841 C 0.15261 0.54171 0.09905 0.0
C842 C 0.17099 0.51049 0.14892 0.0
H843 H 0.23926 0.56828 0.22679 0.0
H844 H 0.21064 0.56528 0.19607 0.0
H845 H 0.17956 0.50138 0.18283 0.0
H846 H 0.13364 0.48471 0.07821 0.0
H847 H 0.16229 0.4877 0.1085 0.0
H848 H 0.19625 0.55204 0.11971 0.0
C849 C 0.21881 0.55063 0.20263 0.0
C850 C 0.18334 0.51249 0.16914 0.0
C851 C 0.23488 0.55233 0.22034 0.0
C852 C 0.139 0.50077 0.08356 0.0
C853 C 0.15526 0.50247 0.10108 0.0
C854 C 0.1923 0.541 0.13341 0.0
C855 C 0.21426 0.53033 0.19271 0.0
C856 C 0.20022 0.52883 0.17175 0.0
C857 C 0.16144 0.52294 0.10969 0.0
C858 C 0.17538 0.52466 0.13078 0.0
H859 H 0.25049 0.49893 0.22497 0.0
H860 H 0.2218 0.49577 0.19444 0.0
H861 H 0.21781 0.55558 0.15509 0.0
H862 H 0.12888 0.55482 0.07458 0.0
H863 H 0.15704 0.55774 0.10521 0.0
C864 C 0.51095 0.8259 0.79006 0.0
C865 C 0.52996 0.81134 0.78879 0.0
C866 C 0.50972 0.84124 0.80731 0.0
C867 C 0.53403 0.85618 0.86326 0.0
H868 H 0.5097 0.91301 0.84658 0.0
C869 C 0.53179 0.93041 0.92408 0.0
C870 C 0.50962 0.94048 0.92576 0.0
C871 C 0.53621 0.91501 0.90722 0.0
C872 C 0.5165 0.89721 0.85148 0.0
H873 H 0.56227 0.80093 0.80485 0.0
H874 H 0.56038 0.82807 0.83498 0.0
H875 H 0.51369 0.88489 0.81796 0.0
H876 H 0.47496 0.94277 0.91075 0.0
H877 H 0.48287 0.91629 0.88108 0.0
H878 H 0.53704 0.86885 0.89683 0.0
C879 C 0.54623 0.82745 0.8228 0.0
C880 C 0.51865 0.88102 0.83514 0.0
C881 C 0.54733 0.81189 0.80559 0.0
C882 C 0.49219 0.93526 0.90992 0.0
C883 C 0.49674 0.92018 0.89288 0.0
C884 C 0.53211 0.87251 0.87959 0.0
C885 C 0.52762 0.8426 0.82359 0.0
C886 C 0.52694 0.86014 0.84089 0.0
C887 C 0.51869 0.90972 0.8915 0.0
C888 C 0.52289 0.89304 0.87392 0.0
H889 H 0.49718 0.82562 0.77746 0.0
H890 H 0.49477 0.8522 0.80774 0.0
H891 H 0.54038 0.84028 0.86833 0.0
H892 H 0.54553 0.93404 0.93611 0.0
H893 H 0.55332 0.90725 0.90643 0.0
C894 C 0.2467 0.51535 0.78252 0.0
C895 C 0.25691 0.5355 0.77761 0.0
C896 C 0.22607 0.5143 0.79522 0.0
C897 C 0.17477 0.54591 0.81486 0.0
H898 H 0.1759 0.50548 0.86506 0.0
C899 C 0.10669 0.54649 0.8883 0.0
C900 C 0.09964 0.52614 0.89667 0.0
C901 C 0.12422 0.54787 0.87177 0.0
C902 C 0.17513 0.51664 0.85094 0.0
H903 H 0.25347 0.57035 0.7813 0.0
H904 H 0.2169 0.56863 0.80308 0.0
H905 H 0.20933 0.50718 0.83954 0.0
H906 H 0.10473 0.49124 0.89321 0.0
H907 H 0.13496 0.49373 0.86458 0.0
H908 H 0.14051 0.55541 0.82642 0.0
C909 C 0.22487 0.55364 0.79722 0.0
C910 C 0.19431 0.51761 0.83632 0.0
C911 C 0.24575 0.55465 0.78484 0.0
C912 C 0.10974 0.50724 0.88734 0.0
C913 C 0.12727 0.50863 0.871 0.0
C914 C 0.15549 0.54489 0.82949 0.0
C915 C 0.2151 0.53343 0.80299 0.0
C916 C 0.19435 0.53222 0.8181 0.0
C917 C 0.13514 0.52894 0.8634 0.0
C918 C 0.15544 0.5302 0.84767 0.0
H919 H 0.2552 0.50038 0.77728 0.0
H920 H 0.21887 0.49851 0.79926 0.0
H921 H 0.17426 0.55723 0.80088 0.0
H922 H 0.09929 0.56137 0.89507 0.0
H923 H 0.12993 0.56378 0.86626 0.0
C924 C 0.4739 0.21978 0.81931 0.0
C925 C 0.48832 0.22087 0.8001 0.0
C926 C 0.47589 0.20232 0.83434 0.0
C927 C 0.5193 0.16276 0.85394 0.0
H928 H 0.46655 0.13215 0.88011 0.0
C929 C 0.53586 0.08966 0.91073 0.0
C930 C 0.52248 0.08793 0.93049 0.0
C931 C 0.52921 0.10403 0.89369 0.0
C932 C 0.48144 0.14068 0.87312 0.0
H933 H 0.51587 0.20437 0.78144 0.0
H934 H 0.51924 0.17391 0.80756 0.0
H935 H 0.45952 0.16118 0.85256 0.0
H936 H 0.49108 0.09905 0.94758 0.0
H937 H 0.4797 0.12487 0.918 0.0
H938 H 0.54128 0.14303 0.87472 0.0
C939 C 0.50644 0.18656 0.81102 0.0
C940 C 0.47741 0.15725 0.85732 0.0
C941 C 0.50434 0.2039 0.79595 0.0
C942 C 0.5016 0.10002 0.93243 0.0
C943 C 0.49512 0.11479 0.91546 0.0
C944 C 0.52332 0.14643 0.86979 0.0
C945 C 0.49249 0.18575 0.83054 0.0
C946 C 0.49634 0.16829 0.84743 0.0
C947 C 0.50929 0.11744 0.89619 0.0
C948 C 0.5045 0.13497 0.87943 0.0
H949 H 0.46128 0.23257 0.82285 0.0
H950 H 0.46501 0.20216 0.84931 0.0
H951 H 0.53422 0.17133 0.84701 0.0
H952 H 0.55188 0.08027 0.90869 0.0
H953 H 0.54012 0.10506 0.87878 0.0
C954 C 0.78496 0.51697 0.82053 0.0
C955 C 0.78823 0.49952 0.80562 0.0
C956 C 0.80043 0.52001 0.83857 0.0
C957 C 0.86047 0.50429 0.8569 0.0
H958 H 0.83998 0.52508 0.91544 0.0
C959 C 0.91876 0.49751 0.93469 0.0
C960 C 0.92326 0.51708 0.94611 0.0
C961 C 0.90079 0.49634 0.91883 0.0
C962 C 0.84588 0.51942 0.8991 0.0
H963 H 0.80927 0.471 0.79826 0.0
H964 H 0.8357 0.47568 0.83015 0.0
H965 H 0.81126 0.52081 0.88503 0.0
H966 H 0.91139 0.55037 0.95084 0.0
H967 H 0.87939 0.54802 0.92329 0.0
H968 H 0.89491 0.50228 0.87118 0.0
C969 C 0.82181 0.48753 0.8276 0.0
C970 C 0.82951 0.51703 0.88167 0.0
C971 C 0.80658 0.48469 0.80946 0.0
C972 C 0.90839 0.53507 0.94231 0.0
C973 C 0.89011 0.53376 0.92658 0.0
C974 C 0.87667 0.50639 0.87434 0.0
C975 C 0.81926 0.50548 0.8421 0.0
C976 C 0.83659 0.50912 0.86045 0.0
C977 C 0.88668 0.51457 0.91425 0.0
C978 C 0.86948 0.51368 0.89566 0.0
H979 H 0.771 0.52871 0.81771 0.0
H980 H 0.79806 0.5341 0.84927 0.0
H981 H 0.8667 0.49881 0.84061 0.0
H982 H 0.92982 0.48331 0.93715 0.0
H983 H 0.89826 0.48128 0.9097 0.0
C984 C 0.72118 0.72623 0.01002 0.0
C985 C 0.73769 0.72411 0.99258 0.0
C986 C 0.70159 0.71263 0.01083 0.0
C987 C 0.68084 0.65963 0.98864 0.0
H988 H 0.6208 0.67874 0.01249 0.0
C989 C 0.59893 0.60523 0.98631 0.0
C990 C 0.58772 0.60249 0.00721 0.0
C991 C 0.6157 0.62151 0.98342 0.0
C992 C 0.6375 0.67322 0.00582 0.0
H993 H 0.74619 0.70701 0.96175 0.0
H994 H 0.71169 0.68381 0.96263 0.0
H995 H 0.65298 0.70469 0.00919 0.0
H996 H 0.58447 0.61537 0.04114 0.0
H997 H 0.61352 0.64398 0.03592 0.0
H998 H 0.66522 0.62826 0.98504 0.0
C999 C 0.71416 0.69536 0.97617 0.0
C1000 C 0.65599 0.68802 0.00403 0.0
C1001 C 0.73388 0.70872 0.97556 0.0
C1002 C 0.59291 0.61696 0.02486 0.0
C1003 C 0.60943 0.63343 0.02186 0.0
C1004 C 0.6623 0.64497 0.99015 0.0
C1005 C 0.69797 0.69682 0.99403 0.0
C1006 C 0.67795 0.68139 0.99549 0.0
C1007 C 0.62132 0.63557 0.00126 0.0
C1008 C 0.6405 0.65157 0.99883 0.0
H1009 H 0.72384 0.7379 0.02343 0.0
H1010 H 0.6897 0.71409 0.02499 0.0
H1011 H 0.69761 0.65372 0.98253 0.0
H1012 H 0.5953 0.59438 0.97237 0.0
H1013 H 0.6245 0.62296 0.96731 0.0
C1014 C 0.29246 0.72516 0.00475 0.0
C1015 C 0.28021 0.72897 0.02486 0.0
C1016 C 0.30893 0.70825 0.00346 0.0
C1017 C 0.32423 0.65644 0.03239 0.0
H1018 H 0.38006 0.65931 0.99523 0.0
C1019 C 0.40308 0.59657 0.03709 0.0
C1020 C 0.41391 0.59081 0.01663 0.0
C1021 C 0.38431 0.61132 0.03732 0.0
C1022 C 0.36436 0.6582 0.00545 0.0
H1023 H 0.2761 0.71917 0.05964 0.0
H1024 H 0.30574 0.6904 0.05789 0.0
H1025 H 0.35428 0.69093 0.9979 0.0
H1026 H 0.41197 0.59442 0.98021 0.0
H1027 H 0.3794 0.6202 0.98076 0.0
H1028 H 0.3349 0.62385 0.04045 0.0
C1029 C 0.30217 0.69983 0.04284 0.0
C1030 C 0.34957 0.67632 0.007 0.0
C1031 C 0.28548 0.71648 0.04399 0.0
C1032 C 0.40428 0.59868 0.99632 0.0
C1033 C 0.3857 0.61356 0.99659 0.0
C1034 C 0.33919 0.63841 0.03105 0.0
C1035 C 0.31356 0.69502 0.02237 0.0
C1036 C 0.32937 0.67574 0.02059 0.0
C1037 C 0.37615 0.62064 0.01712 0.0
C1038 C 0.35942 0.63914 0.01761 0.0
H1039 H 0.2883 0.73443 0.98971 0.0
H1040 H 0.31716 0.70495 0.98737 0.0
H1041 H 0.30852 0.65516 0.04257 0.0
H1042 H 0.40993 0.59067 0.05302 0.0
H1043 H 0.37719 0.61648 0.0534 0.0
C1044 C 0.29258 0.32092 0.99605 0.0
C1045 C 0.29183 0.3036 0.01138 0.0
C1046 C 0.31191 0.33471 0.99548 0.0
C1047 C 0.3732 0.34212 0.0164 0.0
H1048 H 0.35759 0.40291 0.00675 0.0
C1049 C 0.43496 0.41639 0.03298 0.0
C1050 C 0.43744 0.43012 0.01417 0.0
C1051 C 0.41851 0.39954 0.03269 0.0
C1052 C 0.36218 0.38598 0.00941 0.0
H1053 H 0.31079 0.2864 0.03755 0.0
H1054 H 0.34444 0.31102 0.03724 0.0
H1055 H 0.32667 0.37586 0.00575 0.0
H1056 H 0.42469 0.43702 0.9804 0.0
H1057 H 0.39559 0.4081 0.98028 0.0
H1058 H 0.40879 0.35279 0.02083 0.0
C1059 C 0.33037 0.31375 0.02528 0.0
C1060 C 0.34453 0.3704 0.00863 0.0
C1061 C 0.31111 0.29969 0.02555 0.0
C1062 C 0.42325 0.42668 0.99513 0.0
C1063 C 0.40656 0.41019 0.99504 0.0
C1064 C 0.39086 0.35785 0.01755 0.0
C1065 C 0.33072 0.33178 0.01061 0.0
C1066 C 0.3498 0.34821 0.01181 0.0
C1067 C 0.404 0.39654 0.01381 0.0
C1068 C 0.38547 0.37985 0.01381 0.0
H1069 H 0.27795 0.32403 0.98479 0.0
H1070 H 0.31185 0.34795 0.98343 0.0
H1071 H 0.37797 0.32521 0.01874 0.0
H1072 H 0.44577 0.41861 0.04782 0.0
H1073 H 0.41672 0.38921 0.04739 0.0
C1074 C 0.76001 0.32588 0.02751 0.0
C1075 C 0.76053 0.31067 0.00993 0.0
C1076 C 0.74217 0.34149 0.02854 0.0
C1077 C 0.68458 0.3577 0.00336 0.0
H1078 H 0.70464 0.41547 0.02096 0.0
C1079 C 0.62959 0.43368 0.98431 0.0
C1080 C 0.6231 0.44571 0.00351 0.0
C1081 C 0.64744 0.41815 0.98556 0.0
C1082 C 0.69884 0.39939 0.01612 0.0
H1083 H 0.74271 0.29914 0.9801 0.0
H1084 H 0.71186 0.32684 0.98132 0.0
H1085 H 0.73229 0.38511 0.02315 0.0
H1086 H 0.63169 0.45221 0.03851 0.0
H1087 H 0.66351 0.42535 0.04041 0.0
H1088 H 0.65137 0.37237 0.99553 0.0
C1089 C 0.72478 0.3265 0.9947 0.0
C1090 C 0.71456 0.38193 0.01754 0.0
C1091 C 0.74244 0.31064 0.99392 0.0
C1092 C 0.63619 0.44314 0.02346 0.0
C1093 C 0.65436 0.42778 0.02458 0.0
C1094 C 0.66903 0.37523 0.0016 0.0
C1095 C 0.72477 0.34248 0.01172 0.0
C1096 C 0.70765 0.36084 0.01114 0.0
C1097 C 0.65946 0.41461 0.00588 0.0
C1098 C 0.67607 0.39621 0.00788 0.0
H1099 H 0.77381 0.32606 0.04009 0.0
H1100 H 0.74238 0.3531 0.04225 0.0
H1101 H 0.67848 0.34169 0.99868 0.0
H1102 H 0.61996 0.43527 0.96864 0.0
H1103 H 0.65136 0.40837 0.97084 0.0
C1104 C 0.9794 0.6981 0.71204 0.0
C1105 C 0.99355 0.71677 0.7122 0.0
C1106 C 0.97873 0.68461 0.69311 0.0
C1107 C 0.01628 0.66931 0.64569 0.0
H1108 H 0.96152 0.6385 0.62394 0.0
C1109 C 0.02492 0.61253 0.57086 0.0
C1110 C 0.01539 0.5917 0.57357 0.0
C1111 C 0.01838 0.6294 0.5852 0.0
C1112 C 0.97695 0.64694 0.62991 0.0
H1113 H 0.01722 0.73645 0.69221 0.0
H1114 H 0.01564 0.71321 0.65905 0.0
H1115 H 0.95721 0.66558 0.65398 0.0
H1116 H 0.99051 0.57247 0.59247 0.0
H1117 H 0.97921 0.60201 0.61797 0.0
H1118 H 0.03617 0.65052 0.62225 0.0
C1119 C 0.00535 0.70881 0.6737 0.0
C1120 C 0.97449 0.66243 0.64707 0.0
C1121 C 0.00605 0.72227 0.69261 0.0
C1122 C -0.00203 0.58841 0.58993 0.0
C1123 C 0.99155 0.60533 0.60453 0.0
C1124 C 0.01873 0.65392 0.62865 0.0
C1125 C 0.9922 0.68953 0.67396 0.0
C1126 C 0.99417 0.67377 0.65511 0.0
C1127 C 0.00241 0.62577 0.60282 0.0
C1128 C -0.00088 0.64257 0.6205 0.0
H1129 H 0.96931 0.69362 0.72679 0.0
H1130 H 0.96849 0.66984 0.69388 0.0
H1131 H 0.0319 0.6773 0.6519 0.0
H1132 H 0.03818 0.61559 0.55816 0.0
H1133 H 0.02659 0.64511 0.58305 0.0
C1134 C 0.31929 0.03113 0.72694 0.0
C1135 C 0.30811 0.01132 0.73122 0.0
C1136 C 0.3377 0.03212 0.71145 0.0
C1137 C 0.36712 0.00212 0.66533 0.0
H1138 H 0.4223 0.03344 0.6854 0.0
C1139 C 0.45349 0.99545 0.61733 0.0
C1140 C 0.46233 0.0156 0.61014 0.0
C1141 C 0.43661 0.99451 0.63429 0.0
C1142 C 0.40698 0.02469 0.67962 0.0
H1143 H 0.30651 0.97723 0.72262 0.0
H1144 H 0.33851 0.97887 0.69521 0.0
H1145 H 0.38688 0.03353 0.70869 0.0
H1146 H 0.46232 0.05031 0.61679 0.0
H1147 H 0.43293 0.04857 0.64665 0.0
H1148 H 0.38727 0.99317 0.63635 0.0
C1149 C 0.33304 0.99371 0.70356 0.0
C1150 C 0.38667 0.02486 0.6928 0.0
C1151 C 0.31471 0.99273 0.71913 0.0
C1152 C 0.45563 0.03456 0.62176 0.0
C1153 C 0.43886 0.03358 0.6389 0.0
C1154 C 0.38745 0.00184 0.65224 0.0
C1155 C 0.3452 0.01327 0.70008 0.0
C1156 C 0.3665 0.01362 0.68575 0.0
C1157 C 0.42846 0.01366 0.64456 0.0
C1158 C 0.40754 0.01313 0.65925 0.0
H1159 H 0.31464 0.04554 0.73648 0.0
H1160 H 0.34653 0.04747 0.70888 0.0
H1161 H 0.3518 0.99352 0.65933 0.0
H1162 H 0.45846 0.98049 0.60891 0.0
H1163 H 0.42915 0.97891 0.63869 0.0
C1164 C -0.00251 0.31562 0.69469 0.0
C1165 C 0.01499 0.31515 0.71141 0.0
C1166 C 0.99588 0.33306 0.67966 0.0
C1167 C 0.01461 0.38996 0.67098 0.0
H1168 H 0.00461 0.3768 0.60776 0.0
C1169 C 0.00934 0.45811 0.60494 0.0
C1170 C 0.02321 0.45491 0.58562 0.0
C1171 C 0.00469 0.44082 0.61954 0.0
C1172 C 0.00742 0.38073 0.62535 0.0
H1173 H 0.04432 0.33271 0.72569 0.0
H1174 H 0.04156 0.36318 0.69945 0.0
H1175 H 0.00442 0.34747 0.63547 0.0
H1176 H 0.04174 0.43074 0.56569 0.0
H1177 H 0.03384 0.40067 0.59125 0.0
H1178 H 0.01853 0.42308 0.6608 0.0
C1179 C 0.02886 0.35021 0.69813 0.0
C1180 C 0.00708 0.36396 0.64126 0.0
C1181 C 0.03043 0.33278 0.7132 0.0
C1182 C 0.03113 0.43379 0.58051 0.0
C1183 C 0.02648 0.41651 0.59511 0.0
C1184 C 0.01495 0.40671 0.65508 0.0
C1185 C 0.01174 0.35042 0.68101 0.0
C1186 C 0.01091 0.36836 0.66424 0.0
C1187 C 0.01378 0.41996 0.61512 0.0
C1188 C 0.01157 0.40228 0.63206 0.0
H1189 H 0.98516 0.30237 0.69308 0.0
H1190 H 0.98225 0.33289 0.66693 0.0
H1191 H 0.01737 0.39394 0.68856 0.0
H1192 H 0.00277 0.47413 0.60927 0.0
H1193 H 0.99443 0.44391 0.63458 0.0
C1194 C 0.73348 0.01582 0.73112 0.0
C1195 C 0.74035 0.03571 0.7405 0.0
C1196 C 0.71969 0.01538 0.71167 0.0
C1197 C 0.70873 0.04856 0.66139 0.0
H1198 H 0.66109 0.00544 0.64899 0.0
C1199 C 0.64661 0.04825 0.5838 0.0
C1200 C 0.63977 0.02787 0.57539 0.0
C1201 C 0.6619 0.04958 0.60219 0.0
C1202 C 0.67464 0.01736 0.65209 0.0
H1203 H 0.73731 0.07071 0.73789 0.0
H1204 H 0.71281 0.07003 0.70394 0.0
H1205 H 0.67808 0.00771 0.6866 0.0
H1206 H 0.64615 0.99307 0.57774 0.0
H1207 H 0.67281 0.9955 0.60967 0.0
H1208 H 0.70503 0.05831 0.62682 0.0
C1209 C 0.71824 0.05477 0.71149 0.0
C1210 C 0.68424 0.01875 0.67368 0.0
C1211 C 0.7319 0.05518 0.73109 0.0
C1212 C 0.65067 0.00904 0.58404 0.0
C1213 C 0.66583 0.01038 0.60245 0.0
C1214 C 0.69903 0.04723 0.63977 0.0
C1215 C 0.71273 0.03487 0.70113 0.0
C1216 C 0.70144 0.03432 0.67858 0.0
C1217 C 0.67058 0.03057 0.61244 0.0
C1218 C 0.68196 0.03153 0.63489 0.0
H1219 H 0.74008 1.00064 0.73799 0.0
H1220 H 0.71584 0.9998 0.70409 0.0
H1221 H 0.72229 0.06046 0.66452 0.0
H1222 H 0.63877 0.06311 0.57737 0.0
H1223 H 0.66541 0.06539 0.60944 0.0
C1224 C 0.01684 0.33131 0.30945 0.0
C1225 C 0.03539 0.31625 0.30834 0.0
C1226 C 0.01609 0.34683 0.32655 0.0
C1227 C 0.04103 0.36272 0.38186 0.0
H1228 H 0.02239 0.42023 0.36154 0.0
C1229 C 0.01652 0.43349 0.442 0.0
C1230 C 0.02102 0.45489 0.43492 0.0
C1231 C 0.02181 0.41587 0.42797 0.0
C1232 C 0.028 0.40438 0.3675 0.0
H1233 H 0.06719 0.3049 0.32465 0.0
H1234 H 0.06614 0.33236 0.35456 0.0
H1235 H 0.02371 0.39047 0.33483 0.0
H1236 H 0.03627 0.47443 0.40826 0.0
H1237 H 0.04603 0.44374 0.38411 0.0
H1238 H 0.04562 0.37692 0.41457 0.0
C1239 C 0.052 0.332 0.34235 0.0
C1240 C 0.02835 0.38718 0.35222 0.0
C1241 C 0.05262 0.31629 0.32528 0.0
C1242 C 0.03236 0.45818 0.41417 0.0
C1243 C 0.03779 0.44057 0.40023 0.0
C1244 C 0.04072 0.38002 0.39722 0.0
C1245 C 0.03405 0.34783 0.3428 0.0
C1246 C 0.03454 0.36607 0.35924 0.0
C1247 C 0.03182 0.41927 0.4066 0.0
C1248 C 0.034 0.40104 0.39023 0.0
H1249 H 0.00321 0.33142 0.29669 0.0
H1250 H 0.00166 0.35837 0.32674 0.0
H1251 H 0.04587 0.34666 0.38782 0.0
H1252 H 0.00789 0.43037 0.45794 0.0
H1253 H 0.01687 0.39972 0.43339 0.0
C1254 C 0.71978 0.00771 0.28868 0.0
C1255 C 0.71947 0.02542 0.27375 0.0
C1256 C 0.70079 0.00393 0.30296 0.0
C1257 C 0.63897 0.02041 0.31531 0.0
H1258 H 0.65698 0.00534 0.37646 0.0
C1259 C 0.58192 0.03507 0.39485 0.0
C1260 C 0.58159 0.01845 0.41113 0.0
C1261 C 0.59619 0.03322 0.37578 0.0
C1262 C 0.65164 0.00924 0.35939 0.0
H1263 H 0.69892 0.05256 0.26126 0.0
H1264 H 0.66582 0.04636 0.28662 0.0
H1265 H 0.68681 0.00705 0.34726 0.0
H1266 H 0.59512 0.98637 0.41959 0.0
H1267 H 0.62025 0.98336 0.38648 0.0
H1268 H 0.60383 0.02357 0.32802 0.0
C1269 C 0.68047 0.03507 0.28703 0.0
C1270 C 0.66871 0.01015 0.34258 0.0
C1271 C 0.6994 0.03867 0.27251 0.0
C1272 C 0.59497 0.9995 0.40741 0.0
C1273 C 0.60946 0.99779 0.38852 0.0
C1274 C 0.6219 0.01975 0.33225 0.0
C1275 C 0.68123 0.018 0.30287 0.0
C1276 C 0.66264 0.01583 0.32033 0.0
C1277 C 0.61058 0.01483 0.3728 0.0
C1278 C 0.62813 0.01424 0.35444 0.0
H1279 H 0.73507 0.9972 0.28979 0.0
H1280 H 0.70176 0.99031 0.31452 0.0
H1281 H 0.63361 0.02458 0.29833 0.0
H1282 H 0.57173 0.04983 0.39718 0.0
H1283 H 0.59683 0.04662 0.36395 0.0
C1284 C 0.04714 0.70332 0.30574 0.0
C1285 C 0.03275 0.7217 0.3089 0.0
C1286 C 0.04743 0.6866 0.32178 0.0
C1287 C 0.01091 0.66351 0.36672 0.0
H1288 H 0.06866 0.63787 0.38949 0.0
C1289 C 0.00837 0.61051 0.44435 0.0
C1290 C 0.01897 0.58995 0.44246 0.0
C1291 C 0.01352 0.62684 0.42894 0.0
C1292 C 0.05244 0.64481 0.38313 0.0
H1293 H 0.0071 0.73684 0.33098 0.0
H1294 H 0.00782 0.708 0.35892 0.0
H1295 H 0.07028 0.66541 0.35951 0.0
H1296 H 0.04443 0.57077 0.42402 0.0
H1297 H 0.05343 0.59945 0.39668 0.0
H1298 H 0.993 0.64322 0.39016 0.0
C1299 C 0.01881 0.70636 0.34411 0.0
C1300 C 0.05334 0.66047 0.36598 0.0
C1301 C 0.01857 0.72299 0.32821 0.0
C1302 C 0.03618 0.58651 0.42589 0.0
C1303 C 0.04125 0.6029 0.41025 0.0
C1304 C 0.01003 0.64801 0.38377 0.0
C1305 C 0.03314 0.68795 0.34106 0.0
C1306 C 0.03256 0.6702 0.35791 0.0
C1307 C 0.02918 0.62289 0.41112 0.0
C1308 C 0.03076 0.63878 0.39245 0.0
H1309 H 0.05834 0.70202 0.29104 0.0
H1310 H 0.05854 0.67251 0.31897 0.0
H1311 H 0.99458 0.67034 0.36048 0.0
H1312 H 0.99527 0.6137 0.4572 0.0
H1313 H 0.00441 0.64229 0.43035 0.0
C1314 C 0.29628 0.01755 0.30232 0.0
C1315 C 0.29601 0.99761 0.29093 0.0
C1316 C 0.30759 0.01933 0.32318 0.0
C1317 C 0.35507 0.99258 0.35532 0.0
H1318 H 0.33489 0.03059 0.40382 0.0
C1319 C 0.40825 0.99761 0.43642 0.0
C1320 C 0.41547 0.01874 0.44214 0.0
C1321 C 0.38997 0.99444 0.42114 0.0
C1322 C 0.34069 0.01994 0.39038 0.0
H1323 H 0.30647 0.9638 0.29219 0.0
H1324 H 0.32576 0.96661 0.3289 0.0
H1325 H 0.30964 0.02571 0.37075 0.0
H1326 H 0.40753 0.05306 0.43796 0.0
H1327 H 0.37538 0.04743 0.41131 0.0
H1328 H 0.38611 0.9869 0.37475 0.0
C1329 C 0.3176 0.981 0.32175 0.0
C1330 C 0.32631 0.01718 0.37143 0.0
C1331 C 0.30638 0.97928 0.3009 0.0
C1332 C 0.40252 0.03658 0.43382 0.0
C1333 C 0.38408 0.03337 0.41857 0.0
C1334 C 0.36928 0.99519 0.37426 0.0
C1335 C 0.31889 1.00117 0.33289 0.0
C1336 C 0.33339 0.00351 0.35363 0.0
C1337 C 0.37834 0.01229 0.41135 0.0
C1338 C 0.36231 0.00893 0.39197 0.0
H1339 H 0.28858 0.03191 0.29465 0.0
H1340 H 0.30844 0.03514 0.33114 0.0
H1341 H 0.36143 0.9824 0.34172 0.0
H1342 H 0.41756 0.98345 0.44273 0.0
H1343 H 0.38559 0.97799 0.41621 0.0
C1344 C 0.01674 0.21816 0.31213 0.0
C1345 C 0.03118 0.21545 0.29317 0.0
C1346 C 0.01792 0.20345 0.33013 0.0
C1347 C 0.03715 0.14706 0.34381 0.0
H1348 H 0.02362 0.16559 0.40491 0.0
C1349 C 0.0316 0.08634 0.41923 0.0
C1350 C 0.01063 0.08846 0.43151 0.0
C1351 C 0.03823 0.10254 0.40376 0.0
C1352 C 0.02749 0.16016 0.38794 0.0
H1353 H 0.05908 0.19606 0.27862 0.0
H1354 H 0.06159 0.17051 0.31024 0.0
H1355 H 0.02765 0.19269 0.37517 0.0
H1356 H 0.98081 0.10958 0.43812 0.0
H1357 H 0.99256 0.1378 0.41177 0.0
H1358 H 0.03676 0.11445 0.35673 0.0
C1359 C 0.04884 0.18361 0.31101 0.0
C1360 C 0.02966 0.17569 0.37082 0.0
C1361 C 0.04755 0.1983 0.29296 0.0
C1362 C 0.99706 0.10746 0.42886 0.0
C1363 C 0.00386 0.12371 0.41383 0.0
C1364 C 0.03517 0.13151 0.36101 0.0
C1365 C 0.03381 0.18579 0.32974 0.0
C1366 C 0.03395 0.16936 0.34839 0.0
C1367 C 0.02425 0.1213 0.40074 0.0
C1368 C 0.02977 0.13785 0.38317 0.0
H1369 H 0.0041 0.23137 0.31279 0.0
H1370 H 0.00584 0.2056 0.34404 0.0
H1371 H 0.04019 0.14146 0.32676 0.0
H1372 H 0.04228 0.07181 0.4208 0.0
H1373 H 0.0541 0.10027 0.39397 0.0
C1374 C 0.81643 0.02432 0.28294 0.0
C1375 C 0.80355 0.04314 0.27785 0.0
C1376 C 0.83064 0.02365 0.30207 0.0
C1377 C 0.83099 0.04884 0.35797 0.0
H1378 H 0.88563 0.012 0.36681 0.0
C1379 C 0.89024 0.04254 0.4373 0.0
C1380 C 0.89952 0.02178 0.44197 0.0
C1381 C 0.87468 0.04545 0.41935 0.0
C1382 C 0.87016 0.02211 0.36456 0.0
H1383 H 0.79664 0.07654 0.28711 0.0
H1384 H 0.82235 0.0758 0.32017 0.0
H1385 H 0.8715 0.01903 0.32871 0.0
H1386 H 0.89645 0.98735 0.43435 0.0
H1387 H 0.86947 0.99258 0.40299 0.0
H1388 H 0.83016 0.05224 0.39397 0.0
C1389 C 0.82109 0.06138 0.3098 0.0
C1390 C 0.86218 0.02626 0.34277 0.0
C1391 C 0.80673 0.06196 0.29073 0.0
C1392 C 0.89009 0.00364 0.43083 0.0
C1393 C 0.87474 0.00659 0.41279 0.0
C1394 C 0.83919 0.04491 0.37979 0.0
C1395 C 0.83211 0.04184 0.31636 0.0
C1396 C 0.84233 0.03947 0.33922 0.0
C1397 C 0.86827 0.02764 0.406 0.0
C1398 C 0.85863 0.03127 0.38324 0.0
H1399 H 0.8138 0.00955 0.27334 0.0
H1400 H 0.83877 0.00831 0.30663 0.0
H1401 H 0.81534 0.05873 0.35589 0.0
H1402 H 0.89679 0.0568 0.44592 0.0
H1403 H 0.86963 0.06183 0.41457 0.0
C1404 C 0.04866 0.80812 0.30865 0.0
C1405 C 0.02985 0.80104 0.29529 0.0
C1406 C 0.04633 0.82654 0.32224 0.0
C1407 C 0.00809 0.87446 0.33471 0.0
H1408 H 0.03398 0.86753 0.39481 0.0
C1409 C 0.98179 0.93071 0.40851 0.0
C1410 C -0.00037 0.93759 0.42322 0.0
C1411 C 0.98625 0.91476 0.39227 0.0
C1412 C 0.02688 0.86988 0.37804 0.0
H1413 H 0.99417 0.80796 0.28496 0.0
H1414 H 0.98985 0.84013 0.3089 0.0
H1415 H 0.04075 0.83946 0.36667 0.0
H1416 H 0.03614 0.93285 0.43254 0.0
H1417 H 0.04395 0.90505 0.40411 0.0
H1418 H 0.99386 0.90474 0.34633 0.0
C1419 C 0.0066 0.83172 0.30862 0.0
C1420 C 0.03082 0.85379 0.36182 0.0
C1421 C 0.00905 0.81336 0.29483 0.0
C1422 C 0.02199 0.92792 0.4215 0.0
C1423 C 0.02644 0.91192 0.40525 0.0
C1424 C 0.00408 0.89053 0.35097 0.0
C1425 C 0.02499 0.83814 0.32304 0.0
C1426 C 0.02145 0.85582 0.33993 0.0
C1427 C 0.00865 0.90525 0.39034 0.0
C1428 C 0.01336 0.88839 0.37287 0.0
H1429 H 0.06484 0.79879 0.30933 0.0
H1430 H 0.06105 0.83127 0.33267 0.0
H1431 H 0.00084 0.87672 0.31799 0.0
H1432 H 0.96432 0.93771 0.40944 0.0
H1433 H 0.97204 0.90974 0.38135 0.0
C1434 C 0.19874 0.98441 0.26764 0.0
C1435 C 0.20392 0.00259 0.25425 0.0
C1436 C 0.18561 0.98674 0.28733 0.0
C1437 C 0.16364 0.02715 0.32865 0.0
H1438 H 0.1167 0.98301 0.33984 0.0
C1439 C 0.09109 0.03549 0.39688 0.0
C1440 C 0.08593 0.01664 0.4093 0.0
C1441 C 0.10626 0.03445 0.37836 0.0
C1442 C 0.1299 0.99535 0.33712 0.0
H1443 H 0.19886 0.0373 0.25045 0.0
H1444 H 0.17531 0.04139 0.28469 0.0
H1445 H 0.14206 0.97987 0.30711 0.0
H1446 H 0.09317 0.98204 0.4124 0.0
H1447 H 0.11967 0.98034 0.38046 0.0
H1448 H 0.15118 0.04267 0.35873 0.0
C1449 C 0.18209 0.02544 0.28037 0.0
C1450 C 0.14447 0.99354 0.31836 0.0
C1451 C 0.19543 0.02311 0.26073 0.0
C1452 C 0.09645 0.99683 0.40301 0.0
C1453 C 0.11165 0.99583 0.38465 0.0
C1454 C 0.14897 0.02898 0.34747 0.0
C1455 C 0.17689 0.00724 0.2938 0.0
C1456 C 0.16157 0.00935 0.31392 0.0
C1457 C 0.11657 0.01456 0.37199 0.0
C1458 C 0.13201 0.01303 0.35193 0.0
H1459 H 0.20481 0.96834 0.26286 0.0
H1460 H 0.18219 0.97244 0.29745 0.0
H1461 H 0.1768 0.03949 0.32581 0.0
H1462 H 0.08328 0.051 0.40134 0.0
H1463 H 0.10957 0.04912 0.36879 0.0
C1464 C 0.01213 0.81862 0.71897 0.0
C1465 C 0.98991 0.81497 0.72855 0.0
C1466 C 0.01471 0.83284 0.70074 0.0
C1467 C 0.98095 0.86345 0.65665 0.0
H1468 H 0.03715 0.89871 0.65533 0.0
C1469 C 0.9925 0.94142 0.60199 0.0
C1470 C 0.01441 0.94422 0.59146 0.0
C1471 C 0.98878 0.92393 0.61669 0.0
C1472 C 0.02148 0.88881 0.6553 0.0
H1473 H 0.95317 0.82395 0.72694 0.0
H1474 H 0.95768 0.84927 0.69551 0.0
H1475 H 0.03216 0.87198 0.6851 0.0
H1476 H 0.04925 0.93029 0.5874 0.0
H1477 H 0.0428 0.90002 0.61319 0.0
H1478 H 0.97005 0.88109 0.62714 0.0
C1479 C 0.97303 0.84056 0.70152 0.0
C1480 C 0.01862 0.87337 0.67236 0.0
C1481 C 0.97042 0.82614 0.71963 0.0
C1482 C 0.03219 0.9287 0.59529 0.0
C1483 C 0.02856 0.9114 0.61016 0.0
C1484 C 0.98372 0.87913 0.6397 0.0
C1485 C 0.99526 0.84423 0.69189 0.0
C1486 C -0.00167 0.86042 0.67331 0.0
C1487 C 0.00698 0.90904 0.62135 0.0
C1488 C 0.00404 0.89195 0.63885 0.0
H1489 H 0.02763 0.81058 0.7256 0.0
H1490 H 0.03206 0.83492 0.69363 0.0
H1491 H 0.96526 0.8536 0.65658 0.0
H1492 H 0.97839 0.95303 0.59932 0.0
H1493 H 0.97198 0.92257 0.62511 0.0
C1494 C 0.20675 0.02437 0.73035 0.0
C1495 C 0.2101 0.00487 0.74226 0.0
C1496 C 0.20019 0.02406 0.70766 0.0
C1497 C 0.16959 0.98978 0.66668 0.0
H1498 H 0.19266 0.03191 0.6234 0.0
C1499 C 0.12944 0.99355 0.57902 0.0
C1500 C 0.1204 0.01429 0.57378 0.0
C1501 C 0.14629 0.99102 0.59594 0.0
C1502 C 0.18613 0.02001 0.63528 0.0
H1503 H 0.20898 0.96976 0.73998 0.0
H1504 H 0.19744 0.96914 0.70025 0.0
H1505 H 0.2103 0.02985 0.66098 0.0
H1506 H 0.12427 0.04883 0.58012 0.0
H1507 H 0.15367 0.04438 0.60958 0.0
H1508 H 0.145 0.98035 0.64137 0.0
C1509 C 0.20002 0.98469 0.70841 0.0
C1510 C 0.19615 0.01888 0.65681 0.0
C1511 C 0.20671 0.98502 0.73109 0.0
C1512 C 0.13067 0.03261 0.58387 0.0
C1513 C 0.14758 0.03006 0.60079 0.0
C1514 C 0.15965 0.99088 0.6452 0.0
C1515 C 0.19653 0.00422 0.69647 0.0
C1516 C 0.18768 0.00402 0.67289 0.0
C1517 C 0.15456 0.00917 0.60784 0.0
C1518 C 0.16752 0.00624 0.62937 0.0
H1519 H 0.20893 0.03988 0.73871 0.0
H1520 H 0.19724 0.0394 0.69909 0.0
H1521 H 0.16237 0.97841 0.67874 0.0
H1522 H 0.12224 0.97909 0.57131 0.0
H1523 H 0.15178 0.97475 0.60064 0.0
C1524 C 0.00387 0.22093 0.71699 0.0
C1525 C 0.02307 0.2351 0.7169 0.0
C1526 C 0.00345 0.20307 0.70235 0.0
C1527 C 0.02931 0.18621 0.64802 0.0
H1528 H 0.00472 0.12923 0.66248 0.0
C1529 C 0.04513 0.1117 0.59179 0.0
C1530 C 0.02589 0.09822 0.58722 0.0
C1531 C 0.04323 0.12837 0.60764 0.0
C1532 C 0.0114 0.14516 0.65818 0.0
H1533 H 0.0572 0.24157 0.70255 0.0
H1534 H 0.05697 0.2101 0.67755 0.0
H1535 H 0.00508 0.15765 0.69141 0.0
H1536 H 0.98957 0.09158 0.5957 0.0
H1537 H 0.98639 0.12067 0.62372 0.0
H1538 H 0.036 0.17371 0.615 0.0
C1539 C 0.04197 0.21287 0.68842 0.0
C1540 C 0.01162 0.16141 0.67472 0.0
C1541 C 0.04229 0.2307 0.70289 0.0
C1542 C 0.00465 0.10182 0.59877 0.0
C1543 C 0.00287 0.11832 0.61491 0.0
C1544 C 0.02923 0.17 0.63163 0.0
C1545 C 0.02224 0.19925 0.68742 0.0
C1546 C 0.02095 0.18202 0.6699 0.0
C1547 C 0.02216 0.13174 0.61949 0.0
C1548 C 0.02059 0.14924 0.6366 0.0
H1549 H 0.98875 0.2243 0.72753 0.0
H1550 H 0.98797 0.19293 0.70195 0.0
H1551 H 0.03596 0.2021 0.64352 0.0
H1552 H 0.0617 0.10935 0.58314 0.0
H1553 H 0.05843 0.13838 0.61096 0.0
C1554 C 0.82939 0.00593 0.74118 0.0
C1555 C 0.82528 0.02666 0.75023 0.0
C1556 C 0.8476 0.00261 0.72582 0.0
C1557 C 0.89894 0.02914 0.69829 0.0
H1558 H 0.87748 0.99693 0.64604 0.0
C1559 C 0.93837 0.04043 0.61006 0.0
C1560 C 0.94378 0.02154 0.59774 0.0
C1561 C 0.92569 0.0391 0.63009 0.0
C1562 C 0.88385 0.00572 0.66062 0.0
H1563 H 0.83757 0.05985 0.7516 0.0
H1564 H 0.86908 0.05431 0.72444 0.0
H1565 H 0.85375 0.9974 0.68013 0.0
H1566 H 0.93969 0.98648 0.59658 0.0
H1567 H 0.91725 0.98426 0.63157 0.0
H1568 H 0.92856 0.03821 0.6782 0.0
C1569 C 0.8587 0.04043 0.72945 0.0
C1570 C 0.87035 0.0059 0.68023 0.0
C1571 C 0.84067 0.04365 0.74505 0.0
C1572 C 0.93582 1.00133 0.60567 0.0
C1573 C 0.92296 1.00004 0.62566 0.0
C1574 C 0.91232 0.02912 0.67858 0.0
C1575 C 0.86174 0.02009 0.71897 0.0
C1576 C 0.87757 0.01786 0.69921 0.0
C1577 C 0.91802 0.0189 0.63816 0.0
C1578 C 0.90471 0.01766 0.65948 0.0
H1579 H 0.81765 0.99262 0.745 0.0
H1580 H 0.84984 0.98663 0.71847 0.0
H1581 H 0.90517 0.03827 0.71268 0.0
H1582 H 0.94415 0.05627 0.6044 0.0
H1583 H 0.92174 0.05392 0.63922 0.0
C1584 C 0.33197 0.015 0.21006 0.0
C1585 C 0.31469 0.99883 0.20916 0.0
C1586 C 0.34988 0.01557 0.19405 0.0
C1587 C 0.36638 0.99713 0.13733 0.0
H1588 H 0.42964 0.0081 0.15867 0.0
C1589 C 0.44405 0.99957 0.07598 0.0
C1590 C 0.45795 0.01828 0.07794 0.0
C1591 C 0.42854 0.99384 0.09317 0.0
C1592 C 0.41207 0.00506 0.15247 0.0
H1593 H 0.30228 0.97087 0.19046 0.0
H1594 H 0.33356 0.97197 0.16233 0.0
H1595 H 0.39745 0.00566 0.18567 0.0
H1596 H 0.46794 0.04464 0.1002 0.0
H1597 H 0.44079 0.03474 0.13009 0.0
H1598 H 0.38088 0.99699 0.1041 0.0
C1599 C 0.33317 0.98424 0.1754 0.0
C1600 C 0.39364 0.00374 0.1679 0.0
C1601 C 0.31524 0.98366 0.19146 0.0
C1602 C 0.45732 0.03022 0.09811 0.0
C1603 C 0.44184 0.02448 0.1153 0.0
C1604 C 0.38481 0.99847 0.1219 0.0
C1605 C 0.35088 0.99999 0.17678 0.0
C1606 C 0.37055 1.00012 0.16045 0.0
C1607 C 0.42672 0.00667 0.11267 0.0
C1608 C 0.40778 0.00279 0.12928 0.0
H1609 H 0.33175 0.02715 0.22327 0.0
H1610 H 0.36298 0.02822 0.19522 0.0
H1611 H 0.34874 0.9945 0.13109 0.0
H1612 H 0.44433 0.9899 0.06076 0.0
H1613 H 0.41742 0.97979 0.09087 0.0
C1614 C 0.0574 0.32874 0.22296 0.0
C1615 C 0.04219 0.31098 0.22519 0.0
C1616 C 0.05606 0.34238 0.20421 0.0
C1617 C 0.03373 0.34938 0.1463 0.0
H1618 H 0.03317 0.41026 0.16334 0.0
C1619 C 0.0461 0.42173 0.0838 0.0
C1620 C 0.03382 0.44116 0.08836 0.0
C1621 C 0.04437 0.40388 0.0984 0.0
C1622 C 0.03301 0.39336 0.15823 0.0
H1623 H 0.01463 0.29272 0.20887 0.0
H1624 H 0.01225 0.31675 0.1757 0.0
H1625 H 0.03662 0.38249 0.19227 0.0
H1626 H 0.00863 0.45638 0.11087 0.0
H1627 H 0.0055 0.4253 0.13612 0.0
H1628 H 0.03022 0.36051 0.11208 0.0
C1629 C 0.02523 0.32004 0.18859 0.0
C1630 C 0.0353 0.37741 0.17484 0.0
C1631 C 0.02661 0.30627 0.2075 0.0
C1632 C 0.01861 0.44181 0.107 0.0
C1633 C 0.01688 0.424 0.12156 0.0
C1634 C 0.03161 0.36545 0.12955 0.0
C1635 C 0.03942 0.33868 0.18717 0.0
C1636 C 0.03597 0.35524 0.16911 0.0
C1637 C 0.03033 0.40507 0.11787 0.0
C1638 C 0.03131 0.38765 0.13535 0.0
H1639 H 0.06979 0.33258 0.23623 0.0
H1640 H 0.06763 0.35628 0.20339 0.0
H1641 H 0.03418 0.33243 0.14138 0.0
H1642 H 0.05789 0.42062 0.06951 0.0
H1643 H 0.055 0.38958 0.09508 0.0
C1644 C 0.72981 0.03869 0.16998 0.0
C1645 C 0.73149 0.05734 0.18345 0.0
C1646 C 0.70902 0.03401 0.15863 0.0
C1647 C 0.64569 0.04791 0.15377 0.0
H1648 H 0.65574 0.0296 0.09199 0.0
C1649 C 0.57338 0.017 0.09143 0.0
C1650 C 0.57647 0.02281 0.06867 0.0
C1651 C 0.58989 0.02327 0.10767 0.0
C1652 C 0.65258 0.0349 0.10913 0.0
H1653 H 0.71282 0.08566 0.19585 0.0
H1654 H 0.67647 0.07785 0.17535 0.0
H1655 H 0.68921 0.03536 0.11634 0.0
H1656 H 0.59847 0.04066 0.04546 0.0
H1657 H 0.62632 0.05247 0.07367 0.0
H1658 H 0.60879 0.04775 0.14605 0.0
C1659 C 0.69106 0.06655 0.17404 0.0
C1660 C 0.6718 0.03788 0.12323 0.0
C1661 C 0.71189 0.07114 0.18559 0.0
C1662 C 0.59532 0.03625 0.06283 0.0
C1663 C 0.61154 0.04271 0.07897 0.0
C1664 C 0.6263 0.04487 0.13954 0.0
C1665 C 0.68957 0.04812 0.16011 0.0
C1666 C 0.66866 0.04445 0.14569 0.0
C1667 C 0.60964 0.03547 0.10134 0.0
C1668 C 0.62964 0.03857 0.11699 0.0
H1669 H 0.7447 0.02781 0.16807 0.0
H1670 H 0.70831 0.01948 0.14836 0.0
H1671 H 0.64273 0.05284 0.17106 0.0
H1672 H 0.55896 0.00667 0.09647 0.0
H1673 H 0.58797 0.01748 0.12482 0.0
C1674 C 0.99276 0.70836 0.20792 0.0
C1675 C 0.00665 0.72698 0.20514 0.0
C1676 C 0.99365 0.69144 0.19215 0.0
C1677 C 0.0115 0.6798 0.13297 0.0
H1678 H 0.00741 0.61959 0.15194 0.0
C1679 C 0.03709 0.60789 0.07559 0.0
C1680 C 0.02388 0.58865 0.07654 0.0
C1681 C 0.03239 0.62513 0.09023 0.0
C1682 C 0.0082 0.63633 0.14633 0.0
H1683 H 0.0327 0.74232 0.18404 0.0
H1684 H 0.03479 0.71261 0.15673 0.0
H1685 H 0.00556 0.64848 0.18006 0.0
H1686 H 0.99491 0.57276 0.09325 0.0
H1687 H 0.98658 0.603 0.11902 0.0
H1688 H 0.01468 0.66758 0.0993 0.0
C1689 C 0.02277 0.7112 0.17079 0.0
C1690 C 0.00718 0.65294 0.16247 0.0
C1691 C 0.02178 0.72815 0.18652 0.0
C1692 C 0.00523 0.5874 0.09196 0.0
C1693 C 0.00066 0.60463 0.10688 0.0
C1694 C 0.01264 0.6632 0.11688 0.0
C1695 C 0.00853 0.69268 0.17325 0.0
C1696 C 0.00904 0.67492 0.15604 0.0
C1697 C 0.01446 0.62357 0.10641 0.0
C1698 C 0.01123 0.64125 0.12335 0.0
H1699 H 0.98088 0.70705 0.22211 0.0
H1700 H 0.98225 0.6776 0.19454 0.0
H1701 H 0.01245 0.69649 0.12727 0.0
H1702 H 0.0516 0.60941 0.06389 0.0
H1703 H 0.0435 0.63934 0.08949 0.0
C1704 C 0.3175 0.97707 0.81388 0.0
C1705 C 0.30381 0.99607 0.81251 0.0
C1706 C 0.33323 0.97408 0.83168 0.0
C1707 C 0.35182 0.99651 0.88717 0.0
H1708 H 0.41351 0.97682 0.86808 0.0
C1709 C 0.42963 0.99892 0.94811 0.0
C1710 C 0.44994 0.00842 0.93932 0.0
C1711 C 0.41175 0.99206 0.93374 0.0
C1712 C 0.39638 0.98231 0.87368 0.0
H1713 H 0.29503 0.02646 0.82888 0.0
H1714 H 0.3228 0.02155 0.8598 0.0
H1715 H 0.38073 0.97538 0.84177 0.0
H1716 H 0.46798 0.0181 0.9089 0.0
H1717 H 0.43668 0.00624 0.88356 0.0
H1718 H 0.36776 0.0047 0.91859 0.0
C1719 C 0.32109 0.00866 0.8475 0.0
C1720 C 0.37749 0.98124 0.8587 0.0
C1721 C 0.30515 0.01152 0.82982 0.0
C1722 C 0.45254 0.01043 0.91593 0.0
C1723 C 0.43468 0.00355 0.9015 0.0
C1724 C 0.37072 0.99767 0.90209 0.0
C1725 C 0.3358 0.99018 0.84828 0.0
C1726 C 0.35508 0.98876 0.86512 0.0
C1727 C 0.41378 0.99485 0.91031 0.0
C1728 C 0.39332 0.991 0.89536 0.0
H1729 H 0.31669 0.96495 0.80066 0.0
H1730 H 0.34395 0.95948 0.83201 0.0
H1731 H 0.33475 0.00217 0.89276 0.0
H1732 H 0.42683 0.99824 0.96613 0.0
H1733 H 0.39589 0.98544 0.94102 0.0
C1734 C 0.03555 0.30136 0.83244 0.0
C1735 C 0.01875 0.30023 0.81514 0.0
C1736 C 0.03763 0.3202 0.8455 0.0
C1737 C 0.02397 0.3789 0.84497 0.0
H1738 H 0.02607 0.37441 0.91017 0.0
C1739 C -0.00037 0.45091 0.90106 0.0
C1740 C 0.0109 0.45393 0.92187 0.0
C1741 C 0.00408 0.43245 0.88815 0.0
C1742 C 0.02595 0.37599 0.89198 0.0
H1743 H 0.99166 0.318 0.79722 0.0
H1744 H 0.99505 0.35086 0.82012 0.0
H1745 H 0.02724 0.34143 0.88725 0.0
H1746 H 0.03614 0.44008 0.94528 0.0
H1747 H 0.04448 0.40786 0.92226 0.0
H1748 H 0.02262 0.41331 0.84952 0.0
C1749 C 0.00663 0.33725 0.82366 0.0
C1750 C 0.02655 0.35707 0.87885 0.0
C1751 C 0.00453 0.31842 0.81067 0.0
C1752 C 0.02717 0.43819 0.9293 0.0
C1753 C 0.03182 0.41969 0.91618 0.0
C1754 C 0.02358 0.39775 0.85804 0.0
C1755 C 0.02315 0.33834 0.84127 0.0
C1756 C 0.02494 0.35833 0.85522 0.0
C1757 C 0.02019 0.41655 0.89548 0.0
C1758 C 0.02388 0.39655 0.88173 0.0
H1759 H 0.04698 0.28762 0.83588 0.0
H1760 H 0.05072 0.32066 0.85874 0.0
H1761 H 0.02326 0.38043 0.82679 0.0
H1762 H 0.98678 0.46254 0.89493 0.0
H1763 H 0.99432 0.4304 0.87263 0.0
C1764 C 0.74196 0.02757 0.84725 0.0
C1765 C 0.75109 0.04671 0.83791 0.0
C1766 C 0.71912 0.02723 0.85582 0.0
C1767 C 0.6747 0.06364 0.88008 0.0
H1768 H 0.63489 0.01296 0.87499 0.0
C1769 C 0.58117 0.02593 0.91486 0.0
C1770 C 0.58496 0.02901 0.93801 0.0
C1771 C 0.59815 0.03231 0.89923 0.0
C1772 C 0.64557 0.02743 0.87623 0.0
H1773 H 0.74374 0.08051 0.83031 0.0
H1774 H 0.70363 0.07987 0.84492 0.0
H1775 H 0.67119 0.01471 0.85331 0.0
H1776 H 0.60928 0.04081 0.96301 0.0
H1777 H 0.63857 0.05273 0.93591 0.0
H1778 H 0.64933 0.0761 0.90345 0.0
C1779 C 0.71411 0.06514 0.84568 0.0
C1780 C 0.66651 0.02829 0.86404 0.0
C1781 C 0.73697 0.06548 0.83718 0.0
C1782 C 0.60537 0.03949 0.94525 0.0
C1783 C 0.62229 0.04598 0.92968 0.0
C1784 C 0.65379 0.06275 0.89233 0.0
C1785 C 0.70503 0.04609 0.85534 0.0
C1786 C 0.68156 0.04619 0.86622 0.0
C1787 C 0.61924 0.04173 0.90658 0.0
C1788 C 0.63928 0.04442 0.89092 0.0
H1789 H 0.75266 0.01299 0.84834 0.0
H1790 H 0.71281 0.0124 0.86353 0.0
H1791 H 0.68599 0.07759 0.88227 0.0
H1792 H 0.56561 0.01762 0.90895 0.0
H1793 H 0.59528 0.02898 0.88152 0.0
C1794 C 0.0279 0.70124 0.79341 0.0
C1795 C 0.01105 0.71798 0.79446 0.0
C1796 C 0.03203 0.68776 0.81195 0.0
C1797 C 0.02195 0.68134 0.87352 0.0
H1798 H 0.02752 0.61995 0.85939 0.0
C1799 C 0.00704 0.61328 0.9388 0.0
C1800 C 0.01972 0.59365 0.93706 0.0
C1801 C 0.00995 0.62984 0.92297 0.0
C1802 C 0.02649 0.63704 0.86368 0.0
H1803 H 0.98603 0.73439 0.81608 0.0
H1804 H 0.99298 0.71054 0.84865 0.0
H1805 H 0.02431 0.64636 0.82903 0.0
H1806 H 0.04628 0.57646 0.91792 0.0
H1807 H 0.05158 0.6056 0.8901 0.0
H1808 H 0.0236 0.67185 0.90827 0.0
C1809 C 0.00318 0.70797 0.83347 0.0
C1810 C 0.02457 0.65225 0.84622 0.0
C1811 C -0.00085 0.72162 0.81486 0.0
C1812 C 0.03638 0.59143 0.91977 0.0
C1813 C 0.03918 0.60803 0.90372 0.0
C1814 C 0.02386 0.66609 0.89102 0.0
C1815 C 0.01931 0.69054 0.83205 0.0
C1816 C 0.02213 0.67459 0.85088 0.0
C1817 C 0.02554 0.62723 0.90483 0.0
C1818 C 0.02593 0.64371 0.88633 0.0
H1819 H 0.03764 0.69832 0.77801 0.0
H1820 H 0.04502 0.67492 0.81039 0.0
H1821 H 0.0204 0.69841 0.87774 0.0
H1822 H 0.99409 0.61555 0.95198 0.0
H1823 H -0.00102 0.64422 0.92433 0.0
C1824 C 0.20468 0.316 0.04477 0.0
C1825 C 0.206 0.3026 0.02568 0.0
C1826 C 0.18577 0.33029 0.0476 0.0
C1827 C 0.12761 0.34714 0.02359 0.0
H1828 H 0.14965 0.40488 0.03861 0.0
C1829 C 0.07059 0.42469 0.01047 0.0
C1830 C 0.08226 0.44016 0.99716 0.0
C1831 C 0.08308 0.40731 0.02011 0.0
C1832 C 0.14314 0.38881 0.03463 0.0
H1833 H 0.18823 0.29272 0.99515 0.0
H1834 H 0.15552 0.31814 -0.00041 0.0
H1835 H 0.17553 0.3738 0.04396 0.0
H1836 H 0.11624 0.45033 0.98459 0.0
H1837 H 0.13789 0.42033 0.00141 0.0
H1838 H 0.0957 0.36263 0.01281 0.0
C1839 C 0.16869 0.31732 0.01275 0.0
C1840 C 0.15789 0.37091 0.03788 0.0
C1841 C 0.18747 0.3028 0.0101 0.0
C1842 C 0.1067 0.43852 0.99452 0.0
C1843 C 0.11915 0.42145 0.00437 0.0
C1844 C 0.11282 0.36511 0.02032 0.0
C1845 C 0.16801 0.33175 0.03117 0.0
C1846 C 0.15064 0.34993 0.03165 0.0
C1847 C 0.10747 0.40545 0.01694 0.0
C1848 C 0.12082 0.3862 0.02499 0.0
H1849 H 0.21872 0.31594 0.05711 0.0
H1850 H 0.18556 0.34081 0.06223 0.0
H1851 H 0.12133 0.33117 0.01897 0.0
H1852 H 0.05176 0.42565 0.01291 0.0
H1853 H 0.07368 0.39524 0.02981 0.0
C1854 C 0.18249 0.73114 0.00598 0.0
C1855 C 0.19408 0.73578 0.02624 0.0
C1856 C 0.16488 0.71547 0.00552 0.0
C1857 C 0.12607 0.68035 0.03907 0.0
H1858 H 0.14571 0.63577 0.99676 0.0
C1859 C 0.07425 0.60296 0.01308 0.0
C1860 C 0.0877 0.58401 0.01017 0.0
C1861 C 0.08503 0.62231 0.01949 0.0
C1862 C 0.14012 0.64802 0.00875 0.0
H1863 H 0.19563 0.72924 0.06203 0.0
H1864 H 0.16436 0.70209 0.06138 0.0
H1865 H 0.16597 0.67049 0.99734 0.0
H1866 H 0.12227 0.56958 0.01289 0.0
H1867 H 0.14132 0.60351 0.02421 0.0
H1868 H 0.10005 0.65762 0.05035 0.0
C1869 C 0.16876 0.71053 0.04592 0.0
C1870 C 0.15144 0.668 0.00883 0.0
C1871 C 0.18659 0.726 0.04632 0.0
C1872 C 0.11167 0.58408 0.0153 0.0
C1873 C 0.1225 0.60344 0.02158 0.0
C1874 C 0.11442 0.66037 0.03874 0.0
C1875 C 0.15859 0.7044 0.02535 0.0
C1876 C 0.14466 0.68429 0.02407 0.0
C1877 C 0.10943 0.62289 0.02271 0.0
C1878 C 0.12164 0.64396 0.02379 0.0
H1879 H 0.18834 0.73834 0.99029 0.0
H1880 H 0.1572 0.71102 0.98947 0.0
H1881 H 0.12064 0.69269 0.05104 0.0
H1882 H 0.05572 0.60313 0.00886 0.0
H1883 H 0.07463 0.6371 0.02014 0.0
C1884 C 0.28944 0.20393 0.03755 0.0
C1885 C 0.27645 0.21041 0.01856 0.0
C1886 C 0.31149 0.19411 0.03505 0.0
C1887 C 0.34662 0.16314 0.99378 0.0
H1888 H 0.39801 0.17519 0.03471 0.0
C1889 C 0.436 0.12022 0.98358 0.0
C1890 C 0.44593 0.11191 0.00352 0.0
C1891 C 0.41732 0.13507 0.98451 0.0
C1892 C 0.3838 0.17156 0.0232 0.0
H1893 H 0.27602 0.21128 0.98205 0.0
H1894 H 0.31473 0.19464 0.97762 0.0
H1895 H 0.3612 0.19539 0.0383 0.0
H1896 H 0.44469 0.11353 0.04009 0.0
H1897 H 0.41204 0.13896 0.04165 0.0
H1898 H 0.3689 0.13901 0.97899 0.0
C1899 C 0.3079 0.19704 0.99447 0.0
C1900 C 0.36269 0.18313 0.02528 0.0
C1901 C 0.28583 0.20674 0.99699 0.0
C1902 C 0.43752 0.11959 0.02436 0.0
C1903 C 0.4188 0.1343 0.02528 0.0
C1904 C 0.36767 0.15157 0.99172 0.0
C1905 C 0.32092 0.19042 0.01346 0.0
C1906 C 0.34378 0.17892 0.0107 0.0
C1907 C 0.4081 0.14185 0.00538 0.0
C1908 C 0.38646 0.15548 0.00652 0.0
H1909 H 0.28238 0.20619 0.05435 0.0
H1910 H 0.32084 0.18885 0.05001 0.0
H1911 H 0.33229 0.1592 0.98251 0.0
H1912 H 0.44217 0.11479 0.96724 0.0
H1913 H 0.40977 0.1409 0.96885 0.0
C1914 C 0.86393 0.30405 0.01145 0.0
C1915 C 0.84586 0.30509 0.99545 0.0
C1916 C 0.88326 0.31787 0.00967 0.0
C1917 C 0.89725 0.37139 0.9854 0.0
H1918 H 0.95909 0.35916 0.00982 0.0
C1919 C 0.96512 0.43918 0.99493 0.0
C1920 C 0.97407 0.4409 0.01695 0.0
C1921 C 0.95364 0.4203 0.98805 0.0
C1922 C 0.94192 0.36276 0.00286 0.0
H1923 H 0.83426 0.31994 0.96428 0.0
H1924 H 0.86843 0.34345 0.96053 0.0
H1925 H 0.93116 0.32951 0.00489 0.0
H1926 H 0.97965 0.42358 0.0484 0.0
H1927 H 0.95964 0.39066 0.03637 0.0
H1928 H 0.90776 0.40464 0.98384 0.0
C1929 C 0.86749 0.33256 0.97485 0.0
C1930 C 0.92589 0.34581 0.0001 0.0
C1931 C 0.84805 0.319 0.97685 0.0
C1932 C 0.97277 0.42282 0.03139 0.0
C1933 C 0.96144 0.40389 0.02444 0.0
C1934 C 0.9133 0.38824 0.98798 0.0
C1935 C 0.88489 0.33279 0.9917 0.0
C1936 C 0.90315 0.35001 0.99184 0.0
C1937 C 0.9511 0.4027 0.00297 0.0
C1938 C 0.93561 0.38421 0.99723 0.0
H1939 H 0.8624 0.29353 0.02604 0.0
H1940 H 0.89615 0.31772 0.02309 0.0
H1941 H 0.87979 0.37539 0.97942 0.0
H1942 H 0.96598 0.45278 0.98333 0.0
H1943 H 0.94608 0.41972 0.9713 0.0
C1944 C 0.75643 0.84168 0.02666 0.0
C1945 C 0.75562 0.8221 0.01452 0.0
C1946 C 0.73762 0.85642 0.02571 0.0
C1947 C 0.68476 0.86933 0.99132 0.0
H1948 H 0.66451 0.90079 0.04452 0.0
C1949 C 0.61077 0.9326 0.98661 0.0
C1950 C 0.59504 0.93418 0.00477 0.0
C1951 C 0.6309 0.91974 0.98827 0.0
C1952 C 0.6698 0.89193 0.02958 0.0
H1953 H 0.7341 0.80259 0.99224 0.0
H1954 H 0.7013 0.82737 0.99145 0.0
H1955 H 0.69884 0.87696 0.04663 0.0
H1956 H 0.58792 0.92326 0.03886 0.0
H1957 H 0.62269 0.89997 0.04143 0.0
H1958 H 0.65522 0.88325 0.97451 0.0
C1959 C 0.71667 0.83188 0.00109 0.0
C1960 C 0.68971 0.87855 0.0307 0.0
C1961 C 0.73547 0.8174 0.00182 0.0
C1962 C 0.59971 0.92234 0.02456 0.0
C1963 C 0.61976 0.90919 0.02611 0.0
C1964 C 0.66476 0.88241 0.99029 0.0
C1965 C 0.71752 0.85165 0.01286 0.0
C1966 C 0.69729 0.86695 0.01161 0.0
C1967 C 0.63565 0.90782 0.00799 0.0
C1968 C 0.65698 0.89387 0.00938 0.0
H1969 H 0.77163 0.84558 0.03683 0.0
H1970 H 0.73891 0.87159 0.03487 0.0
H1971 H 0.69031 0.86097 0.97616 0.0
H1972 H 0.60791 0.94177 0.97124 0.0
H1973 H 0.64294 0.91949 0.97416 0.0
C1974 C 0.82924 0.71421 0.97056 0.0
C1975 C 0.82476 0.72817 0.98876 0.0
C1976 C 0.84856 0.70018 0.97102 0.0
C1977 C 0.88063 0.66976 0.01286 0.0
H1978 H 0.91964 0.65097 0.96283 0.0
C1979 C 0.92633 0.58804 0.0166 0.0
C1980 C 0.95036 0.58791 0.01173 0.0
C1981 C 0.91241 0.60568 0.01032 0.0
C1982 C 0.90894 0.65615 0.97694 0.0
H1983 H 0.83744 0.73959 0.02102 0.0
H1984 H 0.87125 0.71481 0.02202 0.0
H1985 H 0.89503 0.68368 0.95896 0.0
H1986 H 0.97881 0.60523 0.99572 0.0
H1987 H 0.9544 0.63665 0.98499 0.0
H1988 H 0.89409 0.64235 0.03081 0.0
C1989 C 0.85987 0.71476 0.00737 0.0
C1990 C 0.89488 0.67478 0.97473 0.0
C1991 C 0.84068 0.72899 0.00677 0.0
C1992 C 0.96016 0.60502 -0.00067 0.0
C1993 C 0.94624 0.62293 0.99327 0.0
C1994 C 0.89447 0.65118 0.015 0.0
C1995 C 0.86348 0.6997 0.98986 0.0
C1996 C 0.88045 0.68162 0.99264 0.0
C1997 C 0.92242 0.62374 -0.00048 0.0
C1998 C 0.90848 0.64396 0.99698 0.0
H1999 H 0.81713 0.71343 0.95649 0.0
H2000 H 0.85084 0.68867 0.95737 0.0
H2001 H 0.86942 0.67442 0.02681 0.0
H2002 H 0.91854 0.57488 0.02613 0.0
H2003 H 0.89398 0.60563 0.01484 0.0
C2004 C 0.26046 0.84669 0.98411 0.0
C2005 C 0.26184 0.8295 -0.00034 0.0
C2006 C 0.27631 0.86392 0.98521 0.0
C2007 C 0.31599 0.89258 0.02315 0.0
H2008 H 0.35183 0.90611 0.96946 0.0
C2009 C 0.4026 0.93987 0.02663 0.0
C2010 C 0.40973 0.95202 0.0078 0.0
C2011 C 0.38187 0.92791 0.026 0.0
C2012 C 0.34164 0.903 0.98451 0.0
H2013 H 0.28164 0.81636 0.02793 0.0
H2014 H 0.30884 0.84674 0.03019 0.0
H2015 H 0.32045 0.87948 0.96749 0.0
H2016 H 0.39994 0.96237 0.97417 0.0
H2017 H 0.36318 0.94237 0.97339 0.0
H2018 H 0.3369 0.91613 0.04023 0.0
C2019 C 0.29523 0.84704 0.01742 0.0
C2020 C 0.32375 0.88763 0.98336 0.0
C2021 C 0.27964 0.82967 0.01611 0.0
C2022 C 0.39499 0.95303 0.98885 0.0
C2023 C 0.37402 0.94137 0.98836 0.0
C2024 C 0.33361 0.90824 0.02425 0.0
C2025 C 0.29374 0.86426 0.00195 0.0
C2026 C 0.3111 0.88199 0.00276 0.0
C2027 C 0.36755 0.92811 0.00666 0.0
C2028 C 0.34702 0.91333 0.00504 0.0
H2029 H 0.2472 0.84668 0.971 0.0
H2030 H 0.27494 0.87699 0.97302 0.0
H2031 H 0.30626 0.88862 0.03829 0.0
H2032 H 0.4136 0.93865 0.04148 0.0
H2033 H 0.37774 0.9177 0.04032 0.0
C2034 C 0.76082 0.21026 0.00497 0.0
C2035 C 0.77745 0.2095 0.98746 0.0
C2036 C 0.74502 0.19321 0.00799 0.0
C2037 C 0.71431 0.1513 0.97696 0.0
H2038 H 0.70292 0.12571 0.03569 0.0
C2039 C 0.64458 0.08506 0.98776 0.0
C2040 C 0.63015 0.08692 0.00685 0.0
C2041 C 0.66526 0.0971 0.98617 0.0
C2042 C 0.70572 0.13279 0.0192 0.0
H2043 H 0.78985 0.19094 0.95882 0.0
H2044 H 0.76194 0.16119 0.96393 0.0
H2045 H 0.73332 0.15322 0.03142 0.0
H2046 H 0.62663 0.10214 0.0397 0.0
H2047 H 0.66197 0.12363 0.03659 0.0
H2048 H 0.6861 0.13187 0.96482 0.0
C2049 C 0.76154 0.17475 0.97556 0.0
C2050 C 0.72319 0.14848 0.01678 0.0
C2051 C 0.77754 0.19166 0.97272 0.0
C2052 C 0.63736 0.10029 0.02474 0.0
C2053 C 0.6578 0.11256 0.02301 0.0
C2054 C 0.69662 0.13587 0.97942 0.0
C2055 C 0.74514 0.17538 0.99323 0.0
C2056 C 0.72751 0.15798 0.99567 0.0
C2057 C 0.67176 0.11151 0.00349 0.0
C2058 C 0.69194 0.12653 0.00061 0.0
H2059 H 0.75984 0.22408 0.01623 0.0
H2060 H 0.73225 0.19427 0.02149 0.0
H2061 H 0.71711 0.15858 0.96055 0.0
H2062 H 0.63964 0.07471 0.97381 0.0
H2063 H 0.67587 0.09545 0.97112 0.0
C2064 C 0.50698 0.71021 0.78813 0.0
C2065 C 0.52733 0.71132 0.77483 0.0
C2066 C 0.50625 0.69669 0.80708 0.0
C2067 C 0.53529 0.64842 0.83263 0.0
H2068 H 0.50129 0.66691 0.88593 0.0
C2069 C 0.53457 0.59935 0.91672 0.0
C2070 C 0.51299 0.59829 0.92819 0.0
C2071 C 0.5371 0.61276 0.89775 0.0
C2072 C 0.51067 0.6614 0.8711 0.0
H2073 H 0.56291 0.69944 0.77097 0.0
H2074 H 0.56191 0.67609 0.80445 0.0
H2075 H 0.50468 0.69153 0.85398 0.0
H2076 H 0.47693 0.60993 0.92816 0.0
H2077 H 0.48132 0.63306 0.89519 0.0
H2078 H 0.54131 0.61826 0.84995 0.0
C2079 C 0.54637 0.68539 0.80006 0.0
C2080 C 0.51261 0.67553 0.85274 0.0
C2081 C 0.54705 0.69888 0.78103 0.0
C2082 C 0.49389 0.61051 0.91993 0.0
C2083 C 0.49643 0.62388 0.90106 0.0
C2084 C 0.53342 0.63429 0.85108 0.0
C2085 C 0.52588 0.684 0.81325 0.0
C2086 C 0.52475 0.66918 0.83316 0.0
C2087 C 0.51812 0.62541 0.88989 0.0
C2088 C 0.52088 0.64054 0.87045 0.0
H2089 H 0.49147 0.71951 0.78363 0.0
H2090 H 0.49005 0.69582 0.81658 0.0
H2091 H 0.54452 0.64285 0.81775 0.0
H2092 H 0.54962 0.59011 0.92259 0.0
H2093 H 0.55407 0.61363 0.88959 0.0
C2094 C 0.35698 0.52637 0.79212 0.0
C2095 C 0.34288 0.5442 0.78619 0.0
C2096 C 0.3747 0.52861 0.80814 0.0
C2097 C 0.39166 0.56409 0.8558 0.0
H2098 H 0.44328 0.52289 0.85804 0.0
C2099 C 0.43073 0.53496 0.93913 0.0
C2100 C 0.45298 0.52511 0.93963 0.0
C2101 C 0.42173 0.54327 0.91898 0.0
C2102 C 0.4294 0.53498 0.85764 0.0
H2103 H 0.33663 0.57854 0.7913 0.0
H2104 H 0.36853 0.58292 0.81859 0.0
H2105 H 0.42058 0.52649 0.82384 0.0
H2106 H 0.48426 0.51815 0.92018 0.0
H2107 H 0.46924 0.53376 0.88526 0.0
H2108 H 0.40101 0.5731 0.88937 0.0
C2109 C 0.36548 0.56698 0.8115 0.0
C2110 C 0.41599 0.53672 0.83803 0.0
C2111 C 0.34734 0.56458 0.79578 0.0
C2112 C 0.46687 0.52533 0.92012 0.0
C2113 C 0.45814 0.53415 0.90007 0.0
C2114 C 0.40546 0.56275 0.87524 0.0
C2115 C 0.37905 0.54889 0.8183 0.0
C2116 C 0.3962 0.55048 0.83723 0.0
C2117 C 0.43504 0.54236 0.89897 0.0
C2118 C 0.42379 0.54739 0.87684 0.0
H2119 H 0.35358 0.51044 0.78508 0.0
H2120 H 0.38422 0.51414 0.81323 0.0
H2121 H 0.37664 0.57495 0.85595 0.0
H2122 H 0.41965 0.5351 0.95397 0.0
H2123 H 0.4038 0.54917 0.91895 0.0
C2124 C 0.51461 0.30902 0.7959 0.0
C2125 C 0.49208 0.30112 0.79129 0.0
C2126 C 0.51754 0.32728 0.80961 0.0
C2127 C 0.48709 0.37454 0.83565 0.0
H2128 H 0.5348 0.36734 0.88175 0.0
C2129 C 0.49568 0.43081 0.91438 0.0
C2130 C 0.51855 0.43563 0.92178 0.0
C2131 C 0.49206 0.41609 0.89668 0.0
C2132 C 0.52163 0.36982 0.86881 0.0
H2133 H 0.45492 0.30617 0.79669 0.0
H2134 H 0.45991 0.33844 0.8205 0.0
H2135 H 0.52939 0.33911 0.85364 0.0
H2136 H 0.55555 0.42951 0.91556 0.0
H2137 H 0.54925 0.40412 0.88482 0.0
H2138 H 0.47925 0.40528 0.85113 0.0
C2139 C 0.47534 0.33066 0.81343 0.0
C2140 C 0.51854 0.3536 0.85265 0.0
C2141 C 0.47244 0.31223 0.79983 0.0
C2142 C 0.53768 0.42602 0.91052 0.0
C2143 C 0.53407 0.41134 0.89292 0.0
C2144 C 0.49023 0.39087 0.85187 0.0
C2145 C 0.49797 0.33802 0.819 0.0
C2146 C 0.5013 0.35575 0.8358 0.0
C2147 C 0.51123 0.40584 0.88605 0.0
C2148 C 0.50763 0.38872 0.86861 0.0
H2149 H 0.52999 0.30048 0.7897 0.0
H2150 H 0.53519 0.33268 0.81334 0.0
H2151 H 0.47373 0.37674 0.82284 0.0
H2152 H 0.48054 0.438 0.9226 0.0
H2153 H 0.47423 0.41218 0.89186 0.0
C2154 C 0.65536 0.51377 0.78402 0.0
C2155 C 0.67875 0.50731 0.78765 0.0
C2156 C 0.63846 0.51091 0.80087 0.0
C2157 C 0.62751 0.48177 0.85508 0.0
H2158 H 0.58247 0.52833 0.86457 0.0
C2159 C 0.5772 0.49898 0.93811 0.0
C2160 C 0.55403 0.50684 0.93634 0.0
C2161 C 0.59023 0.49429 0.91874 0.0
C2162 C 0.59466 0.515 0.86189 0.0
H2163 H 0.70278 0.49327 0.81203 0.0
H2164 H 0.67366 0.48868 0.84144 0.0
H2165 H 0.60972 0.53046 0.83312 0.0
H2166 H 0.52568 0.51388 0.91296 0.0
H2167 H 0.54847 0.50579 0.87923 0.0
H2168 H 0.61295 0.46689 0.88465 0.0
C2169 C 0.6681 0.49535 0.82539 0.0
C2170 C 0.61029 0.5162 0.84383 0.0
C2171 C 0.68491 0.49815 0.80854 0.0
C2172 C 0.54351 0.50803 0.91494 0.0
C2173 C 0.5566 0.50353 0.89559 0.0
C2174 C 0.61199 0.48069 0.87332 0.0
C2175 C 0.64466 0.50175 0.82183 0.0
C2176 C 0.62707 0.4997 0.84028 0.0
C2177 C 0.58036 0.49753 0.89728 0.0
C2178 C 0.5955 0.49737 0.87696 0.0
H2179 H 0.65018 0.52117 0.76819 0.0
H2180 H 0.62055 0.51589 0.79745 0.0
H2181 H 0.63996 0.46861 0.85266 0.0
H2182 H 0.58575 0.4977 0.95438 0.0
H2183 H 0.60852 0.48965 0.92055 0.0
C2184 C 0.50859 0.34145 0.23003 0.0
C2185 C 0.48816 0.32898 0.23232 0.0
C2186 C 0.51104 0.35605 0.21204 0.0
C2187 C 0.48649 0.3705 0.15547 0.0
H2188 H 0.51918 0.42459 0.16637 0.0
C2189 C 0.49694 0.43827 0.08688 0.0
C2190 C 0.52014 0.4456 0.08439 0.0
C2191 C 0.49072 0.42516 0.10539 0.0
C2192 C 0.51001 0.40954 0.16302 0.0
H2193 H 0.45415 0.32219 0.21767 0.0
H2194 H 0.45819 0.34784 0.18648 0.0
H2195 H 0.51334 0.39912 0.19729 0.0
H2196 H 0.5547 0.44556 0.09982 0.0
H2197 H 0.54383 0.42337 0.13193 0.0
H2198 H 0.48321 0.38114 0.12111 0.0
C2199 C 0.4726 0.34608 0.19826 0.0
C2200 C 0.5068 0.39482 0.18075 0.0
C2201 C 0.47022 0.33141 0.2162 0.0
C2202 C 0.53667 0.44019 0.10115 0.0
C2203 C 0.53042 0.42752 0.11969 0.0
C2204 C 0.48957 0.38535 0.13774 0.0
C2205 C 0.49299 0.35876 0.19599 0.0
C2206 C 0.49536 0.37489 0.17718 0.0
C2207 C 0.50748 0.41957 0.12196 0.0
C2208 C 0.50174 0.40488 0.14122 0.0
H2209 H 0.5226 0.34002 0.24231 0.0
H2210 H 0.52718 0.36518 0.21072 0.0
H2211 H 0.47778 0.35528 0.15195 0.0
H2212 H 0.48383 0.44209 0.07422 0.0
H2213 H 0.47286 0.41935 0.10673 0.0
C2214 C 0.66348 0.48731 0.23664 0.0
C2215 C 0.68156 0.50249 0.23947 0.0
C2216 C 0.65242 0.48485 0.21574 0.0
C2217 C 0.64444 0.5137 0.16102 0.0
H2218 H 0.62098 0.45791 0.14075 0.0
C2219 C 0.61013 0.5048 0.07238 0.0
C2220 C 0.5858 0.50165 0.07263 0.0
C2221 C 0.62356 0.49952 0.09129 0.0
C2222 C 0.62762 0.4735 0.14626 0.0
H2223 H 0.70183 0.52744 0.22248 0.0
H2224 H 0.68393 0.52217 0.186 0.0
H2225 H 0.64104 0.46055 0.17724 0.0
H2226 H 0.55643 0.48958 0.09195 0.0
H2227 H 0.58011 0.47962 0.12493 0.0
H2228 H 0.63149 0.52649 0.12988 0.0
C2229 C 0.6777 0.51246 0.19997 0.0
C2230 C 0.63888 0.47513 0.1672 0.0
C2231 C 0.68835 0.51523 0.22094 0.0
C2232 C 0.57532 0.49141 0.09118 0.0
C2233 C 0.58881 0.48589 0.11006 0.0
C2234 C 0.63371 0.51196 0.14003 0.0
C2235 C 0.65943 0.49739 0.19709 0.0
C2236 C 0.64745 0.49529 0.17485 0.0
C2237 C 0.61278 0.49105 0.11066 0.0
C2238 C 0.62525 0.4919 0.13245 0.0
H2239 H 0.65776 0.47745 0.25073 0.0
H2240 H 0.63814 0.47339 0.21437 0.0
H2241 H 0.65003 0.52963 0.16651 0.0
H2242 H 0.61839 0.51314 0.05839 0.0
H2243 H 0.64203 0.50365 0.09147 0.0
C2244 C 0.56574 0.7275 0.20671 0.0
C2245 C 0.55009 0.73282 0.22411 0.0
C2246 C 0.56206 0.7091 0.19343 0.0
C2247 C 0.52618 0.65838 0.18843 0.0
H2248 H 0.54272 0.6647 0.12536 0.0
C2249 C 0.49672 0.60173 0.11384 0.0
C2250 C 0.51525 0.5947 0.0999 0.0
C2251 C 0.50078 0.61692 0.13103 0.0
C2252 C 0.5381 0.66268 0.14296 0.0
H2253 H 0.51863 0.72301 0.24171 0.0
H2254 H 0.51154 0.69123 0.21799 0.0
H2255 H 0.55031 0.69435 0.15132 0.0
H2256 H 0.55269 0.59765 0.09361 0.0
H2257 H 0.55948 0.62433 0.12311 0.0
H2258 H 0.5131 0.62682 0.17941 0.0
C2259 C 0.52707 0.70084 0.21489 0.0
C2260 C 0.54264 0.6796 0.15795 0.0
C2261 C 0.53105 0.71907 0.22848 0.0
C2262 C 0.53798 0.60265 0.104 0.0
C2263 C 0.54191 0.61802 0.12083 0.0
C2264 C 0.52125 0.64154 0.17325 0.0
C2265 C 0.54227 0.69585 0.19686 0.0
C2266 C 0.53705 0.67764 0.18099 0.0
C2267 C 0.52332 0.62557 0.13425 0.0
C2268 C 0.52744 0.64349 0.15043 0.0
H2269 H 0.58065 0.73782 0.20315 0.0
H2270 H 0.5746 0.70551 0.18022 0.0
H2271 H 0.52181 0.65612 0.20603 0.0
H2272 H 0.47904 0.59585 0.11118 0.0
H2273 H 0.48616 0.62255 0.14118 0.0
C2274 C 0.34673 0.55671 0.22708 0.0
C2275 C 0.33298 0.53788 0.22858 0.0
C2276 C 0.36416 0.55839 0.21058 0.0
C2277 C 0.37652 0.5369 0.15435 0.0
H2278 H 0.43823 0.56229 0.16166 0.0
C2279 C 0.43722 0.54391 0.07872 0.0
C2280 C 0.45872 0.53335 0.0825 0.0
C2281 C 0.42327 0.55023 0.09697 0.0
C2282 C 0.42095 0.55533 0.15939 0.0
H2283 H 0.32789 0.50538 0.21552 0.0
H2284 H 0.3586 0.5081 0.187 0.0
H2285 H 0.41196 0.55945 0.19425 0.0
H2286 H 0.48348 0.52231 0.10772 0.0
H2287 H 0.45929 0.53351 0.1397 0.0
H2288 H 0.38557 0.53213 0.11979 0.0
C2289 C 0.35554 0.52179 0.19812 0.0
C2290 C 0.40595 0.55373 0.17798 0.0
C2291 C 0.33813 0.52014 0.21452 0.0
C2292 C 0.46698 0.53062 0.10457 0.0
C2293 C 0.45317 0.53711 0.12281 0.0
C2294 C 0.39139 0.53862 0.13581 0.0
C2295 C 0.36807 0.54123 0.19539 0.0
C2296 C 0.3838 0.54403 0.17572 0.0
C2297 C 0.43071 0.54602 0.11918 0.0
C2298 C 0.41392 0.54749 0.13819 0.0
H2299 H 0.34291 0.57069 0.23758 0.0
H2300 H 0.37354 0.57356 0.20885 0.0
H2301 H 0.35935 0.52976 0.15198 0.0
H2302 H 0.43036 0.54566 0.06179 0.0
H2303 H 0.40609 0.5572 0.0937 0.0
C2304 C 0.78739 0.51389 0.71054 0.0
C2305 C 0.7843 0.49458 0.72272 0.0
C2306 C 0.80566 0.51558 0.69489 0.0
C2307 C 0.86444 0.49214 0.68698 0.0
H2308 H 0.86524 0.52706 0.63257 0.0
C2309 C 0.94305 0.49637 0.62547 0.0
C2310 C 0.94771 0.51648 0.61515 0.0
C2311 C 0.92379 0.49407 0.63983 0.0
C2312 C 0.86531 0.51748 0.64791 0.0
H2313 H 0.7963 0.46144 0.72712 0.0
H2314 H 0.82765 0.46401 0.69916 0.0
H2315 H 0.82806 0.52071 0.65198 0.0
H2316 H 0.93699 0.55038 0.6134 0.0
H2317 H 0.90349 0.54631 0.63858 0.0
H2318 H 0.90165 0.48886 0.68288 0.0
C2319 C 0.81643 0.47803 0.70197 0.0
C2320 C 0.84401 0.51376 0.65894 0.0
C2321 C 0.7983 0.47641 0.71768 0.0
C2322 C 0.93389 0.53464 0.62101 0.0
C2323 C 0.91451 0.53227 0.63521 0.0
C2324 C 0.88569 0.49579 0.67592 0.0
C2325 C 0.82109 0.49796 0.69128 0.0
C2326 C 0.84333 0.50103 0.67861 0.0
C2327 C 0.90877 0.51179 0.64407 0.0
C2328 C 0.88637 0.50855 0.65631 0.0
H2329 H 0.77702 0.5282 0.71453 0.0
H2330 H 0.80878 0.53118 0.68699 0.0
H2331 H 0.86467 0.48271 0.70241 0.0
H2332 H 0.95343 0.48208 0.6214 0.0
H2333 H 0.91986 0.47809 0.64648 0.0
C2334 C 0.55046 0.80138 0.68955 0.0
C2335 C 0.53228 0.80385 0.70535 0.0
C2336 C 0.55098 0.81435 0.67012 0.0
C2337 C 0.51552 0.85316 0.6353 0.0
H2338 H 0.57557 0.88086 0.62527 0.0
C2339 C 0.525 0.93606 0.59039 0.0
C2340 C 0.5452 0.93997 0.57742 0.0
C2341 C 0.52251 0.91652 0.60225 0.0
C2342 C 0.55875 0.87303 0.62747 0.0
H2343 H 0.49951 0.82056 0.7124 0.0
H2344 H 0.50045 0.84321 0.67875 0.0
H2345 H 0.57273 0.85116 0.65218 0.0
H2346 H 0.57802 0.92585 0.56575 0.0
H2347 H 0.57355 0.89177 0.58625 0.0
H2348 H 0.50143 0.87553 0.61103 0.0
C2349 C 0.51432 0.83133 0.6812 0.0
C2350 C 0.55712 0.85593 0.64293 0.0
C2351 C 0.51387 0.81847 0.7006 0.0
C2352 C 0.56234 0.92349 0.57576 0.0
C2353 C 0.55984 0.90396 0.58762 0.0
C2354 C 0.51714 0.87028 0.61982 0.0
C2355 C 0.53324 0.82993 0.66604 0.0
C2356 C 0.5354 0.84606 0.64739 0.0
C2357 C 0.54014 0.90041 0.60141 0.0
C2358 C 0.5387 0.88072 0.61604 0.0
H2359 H 0.5649 0.79027 0.6928 0.0
H2360 H 0.56564 0.81265 0.65862 0.0
H2361 H 0.49857 0.84571 0.63809 0.0
H2362 H 0.51141 0.94835 0.59198 0.0
H2363 H 0.50719 0.91446 0.61284 0.0
C2364 C 0.2804 0.55009 0.67227 0.0
C2365 C 0.2885 0.53146 0.6836 0.0
C2366 C 0.26002 0.5493 0.65919 0.0
C2367 C 0.22304 0.51054 0.62819 0.0
H2368 H 0.17806 0.55809 0.6275 0.0
C2369 C 0.13421 0.50546 0.58178 0.0
C2370 C 0.1261 0.52423 0.57062 0.0
C2371 C 0.15421 0.50623 0.59535 0.0
C2372 C 0.19061 0.5448 0.62731 0.0
H2373 H 0.28204 0.49728 0.68977 0.0
H2374 H 0.2461 0.49599 0.66744 0.0
H2375 H 0.21197 0.55975 0.65255 0.0
H2376 H 0.13317 0.5583 0.56418 0.0
H2377 H 0.16842 0.5595 0.58749 0.0
H2378 H 0.20174 0.4956 0.60294 0.0
C2379 C 0.25552 0.5112 0.66854 0.0
C2380 C 0.21001 0.54574 0.64169 0.0
C2381 C 0.27596 0.51198 0.6815 0.0
C2382 C 0.13886 0.54361 0.57271 0.0
C2383 C 0.15895 0.54433 0.58619 0.0
C2384 C 0.20366 0.50961 0.61382 0.0
C2385 C 0.24744 0.5298 0.65705 0.0
C2386 C 0.22648 0.52864 0.64224 0.0
C2387 C 0.16664 0.52574 0.59793 0.0
C2388 C 0.18728 0.52676 0.61315 0.0
H2389 H 0.29004 0.56519 0.67328 0.0
H2390 H 0.25448 0.56381 0.65025 0.0
H2391 H 0.23559 0.49725 0.62794 0.0
H2392 H 0.12473 0.49029 0.58064 0.0
H2393 H 0.15952 0.49167 0.60434 0.0
C2394 C 0.46413 0.21332 0.6958 0.0
C2395 C 0.47835 0.23189 0.69498 0.0
C2396 C 0.46787 0.19605 0.68081 0.0
C2397 C 0.4972 0.18274 0.62628 0.0
H2398 H 0.49056 0.12308 0.64642 0.0
C2399 C 0.53846 0.11044 0.57942 0.0
C2400 C 0.52568 0.09107 0.57702 0.0
C2401 C 0.52979 0.12761 0.59236 0.0
C2402 C 0.49212 0.13965 0.64044 0.0
H2403 H 0.5079 0.24683 0.67829 0.0
H2404 H 0.51492 0.21656 0.65246 0.0
H2405 H 0.48195 0.15286 0.6724 0.0
H2406 H 0.49342 0.07483 0.58605 0.0
H2407 H 0.47825 0.10493 0.60921 0.0
H2408 H 0.50811 0.16948 0.59457 0.0
C2409 C 0.50045 0.21544 0.66423 0.0
C2410 C 0.4872 0.15677 0.65534 0.0
C2411 C 0.49662 0.23273 0.67914 0.0
C2412 C 0.50364 0.0895 0.58754 0.0
C2413 C 0.49506 0.10668 0.60089 0.0
C2414 C 0.50226 0.16566 0.61149 0.0
C2415 C 0.48603 0.19689 0.66473 0.0
C2416 C 0.49002 0.17858 0.64857 0.0
C2417 C 0.50815 0.12589 0.60352 0.0
C2418 C 0.50013 0.14391 0.61848 0.0
H2419 H 0.44994 0.21225 0.70789 0.0
H2420 H 0.45625 0.1822 0.68161 0.0
H2421 H 0.49902 0.19926 0.62022 0.0
H2422 H 0.55546 0.1123 0.57148 0.0
H2423 H 0.54044 0.14204 0.59419 0.0
C2424 C 0.77693 0.52034 0.3264 0.0
C2425 C 0.77777 0.50317 0.31087 0.0
C2426 C 0.79086 0.51971 0.3458 0.0
C2427 C 0.84571 0.49384 0.36574 0.0
H2428 H 0.83011 0.52251 0.42203 0.0
C2429 C 0.90907 0.49351 0.44068 0.0
C2430 C 0.91489 0.51428 0.44883 0.0
C2431 C 0.88984 0.49074 0.42645 0.0
C2432 C 0.83463 0.51447 0.40638 0.0
H2433 H 0.79229 0.47128 0.30398 0.0
H2434 H 0.81585 0.46967 0.3383 0.0
H2435 H 0.80019 0.51912 0.39262 0.0
H2436 H 0.90417 0.54819 0.44948 0.0
H2437 H 0.87024 0.54318 0.42471 0.0
H2438 H 0.88006 0.48912 0.37953 0.0
C2439 C 0.80516 0.48398 0.33524 0.0
C2440 C 0.81757 0.51257 0.38951 0.0
C2441 C 0.79152 0.48477 0.31571 0.0
C2442 C 0.90024 0.53201 0.4434 0.0
C2443 C 0.88078 0.52915 0.42932 0.0
C2444 C 0.86258 0.49549 0.38266 0.0
C2445 C 0.80566 0.50178 0.35012 0.0
C2446 C 0.82299 0.50241 0.36888 0.0
C2447 C 0.87581 0.50858 0.42028 0.0
C2448 C 0.85728 0.50598 0.40304 0.0
H2449 H 0.76662 0.5348 0.32285 0.0
H2450 H 0.79094 0.53381 0.35671 0.0
H2451 H 0.85079 0.48643 0.34991 0.0
H2452 H 0.91986 0.47944 0.44459 0.0
H2453 H 0.88622 0.47468 0.41986 0.0
C2454 C 0.52411 0.81311 0.32009 0.0
C2455 C 0.54202 0.79743 0.32177 0.0
C2456 C 0.5246 0.83176 0.33352 0.0
C2457 C 0.54959 0.85236 0.38687 0.0
H2458 H 0.52364 0.90697 0.36539 0.0
C2459 C 0.51501 0.91907 0.44664 0.0
C2460 C 0.51635 0.94095 0.43996 0.0
C2461 C 0.52265 0.90249 0.43225 0.0
C2462 C 0.53132 0.89198 0.37163 0.0
H2463 H 0.57492 0.78923 0.33799 0.0
H2464 H 0.57611 0.82207 0.36126 0.0
H2465 H 0.52889 0.87693 0.33924 0.0
H2466 H 0.5283 0.96266 0.41355 0.0
H2467 H 0.54191 0.93377 0.38858 0.0
H2468 H 0.55217 0.86751 0.41926 0.0
C2469 C 0.5614 0.81978 0.34996 0.0
C2470 C 0.53401 0.87462 0.35666 0.0
C2471 C 0.56083 0.80106 0.33657 0.0
C2472 C 0.52666 0.94594 0.41907 0.0
C2473 C 0.53439 0.92937 0.4047 0.0
C2474 C 0.547 0.86978 0.40184 0.0
C2475 C 0.54312 0.83524 0.34882 0.0
C2476 C 0.54266 0.85441 0.36419 0.0
C2477 C 0.53193 0.9074 0.41087 0.0
C2478 C 0.53733 0.88967 0.39452 0.0
H2479 H 0.50946 0.81071 0.30873 0.0
H2480 H 0.51005 0.84311 0.33237 0.0
H2481 H 0.55621 0.83703 0.39333 0.0
H2482 H 0.50731 0.91465 0.46269 0.0
H2483 H 0.52029 0.88579 0.43753 0.0
C2484 C 0.24706 0.55307 0.32606 0.0
C2485 C 0.26274 0.53618 0.32079 0.0
C2486 C 0.22363 0.54858 0.331 0.0
C2487 C 0.18602 0.50586 0.35317 0.0
H2488 H 0.13583 0.54373 0.33222 0.0
C2489 C 0.09428 0.49752 0.39026 0.0
C2490 C 0.08577 0.51725 0.39915 0.0
C2491 C 0.11239 0.49746 0.37438 0.0
C2492 C 0.14963 0.53297 0.33815 0.0
H2493 H 0.26646 0.50138 0.31643 0.0
H2494 H 0.2254 0.49338 0.3255 0.0
H2495 H 0.17551 0.54816 0.3173 0.0
H2496 H 0.08755 0.55238 0.39618 0.0
H2497 H 0.11911 0.55226 0.36871 0.0
H2498 H 0.16056 0.49132 0.37478 0.0
C2499 C 0.23122 0.51011 0.32572 0.0
C2500 C 0.17233 0.53553 0.32965 0.0
C2501 C 0.25466 0.51466 0.32056 0.0
C2502 C 0.09386 0.53688 0.38991 0.0
C2503 C 0.11196 0.53681 0.37403 0.0
C2504 C 0.16335 0.50335 0.36172 0.0
C2505 C 0.21547 0.52705 0.33096 0.0
C2506 C 0.19088 0.5224 0.33755 0.0
C2507 C 0.12225 0.51711 0.36699 0.0
C2508 C 0.14503 0.51727 0.35478 0.0
H2509 H 0.25299 0.56978 0.32633 0.0
H2510 H 0.21202 0.56193 0.33536 0.0
H2511 H 0.19998 0.49563 0.35973 0.0
H2512 H 0.08817 0.48207 0.39672 0.0
H2513 H 0.11956 0.48202 0.36885 0.0
C2514 C 0.51988 0.24098 0.32147 0.0
C2515 C 0.50117 0.23706 0.30654 0.0
C2516 C 0.52334 0.22753 0.34038 0.0
C2517 C 0.51562 0.17152 0.35593 0.0
H2518 H 0.51668 0.18761 0.4191 0.0
C2519 C 0.53024 0.10775 0.42598 0.0
C2520 C 0.51106 0.10692 0.44084 0.0
C2521 C 0.53322 0.12573 0.41175 0.0
C2522 C 0.51671 0.18298 0.40149 0.0
H2523 H 0.47036 0.21729 0.30075 0.0
H2524 H 0.47661 0.1938 0.33335 0.0
H2525 H 0.51289 0.21603 0.39002 0.0
H2526 H 0.48099 0.12476 0.45365 0.0
H2527 H 0.48665 0.1564 0.42932 0.0
H2528 H 0.51907 0.13856 0.36716 0.0
C2529 C 0.48871 0.20704 0.33037 0.0
C2530 C 0.51459 0.19918 0.38493 0.0
C2531 C 0.48512 0.22052 0.31177 0.0
C2532 C 0.49586 0.12495 0.44227 0.0
C2533 C 0.49917 0.1431 0.42845 0.0
C2534 C 0.5182 0.15542 0.37238 0.0
C2535 C 0.50823 0.20995 0.34442 0.0
C2536 C 0.51341 0.19349 0.36204 0.0
C2537 C 0.51745 0.1434 0.41258 0.0
C2538 C 0.51823 0.16091 0.39534 0.0
H2539 H 0.53261 0.25351 0.31777 0.0
H2540 H 0.5385 0.23009 0.35107 0.0
H2541 H 0.51483 0.16675 0.33836 0.0
H2542 H 0.54214 0.09402 0.42448 0.0
H2543 H 0.54746 0.12558 0.39964 0.0
C2544 C 0.72896 0.83042 0.52284 0.0
C2545 C 0.7295 0.81514 0.50522 0.0
C2546 C 0.70932 0.84377 0.52612 0.0
C2547 C 0.6467 0.8525 0.51031 0.0
H2548 H 0.66249 0.91339 0.51706 0.0
C2549 C 0.58332 0.92188 0.48578 0.0
C2550 C 0.58457 0.94202 0.49689 0.0
C2551 C 0.59869 0.90494 0.49137 0.0
C2552 C 0.65761 0.89645 0.51569 0.0
H2553 H 0.70927 0.80108 0.47802 0.0
H2554 H 0.6749 0.82448 0.48367 0.0
H2555 H 0.69338 0.88605 0.51838 0.0
H2556 H 0.60214 0.9597 0.52355 0.0
H2557 H 0.62867 0.92988 0.53374 0.0
H2558 H 0.61092 0.86301 0.50721 0.0
C2559 C 0.68966 0.82604 0.49506 0.0
C2560 C 0.67541 0.88071 0.51639 0.0
C2561 C 0.70935 0.81262 0.4918 0.0
C2562 C 0.60073 0.94441 0.51463 0.0
C2563 C 0.61609 0.92736 0.52031 0.0
C2564 C 0.62884 0.86826 0.50973 0.0
C2565 C 0.68969 0.84223 0.51185 0.0
C2566 C 0.67027 0.85856 0.51328 0.0
C2567 C 0.61571 0.90759 0.50832 0.0
C2568 C 0.63411 0.89052 0.51193 0.0
H2569 H 0.74406 0.83247 0.53374 0.0
H2570 H 0.70975 0.85571 0.53953 0.0
H2571 H 0.64208 0.83556 0.5082 0.0
H2572 H 0.571 0.9194 0.47211 0.0
H2573 H 0.59793 0.89012 0.48156 0.0
C2574 C 0.71249 0.22925 0.5213 0.0
C2575 C 0.72569 0.22895 0.50128 0.0
C2576 C 0.69468 0.21393 0.52474 0.0
C2577 C 0.68559 0.15812 0.51039 0.0
H2578 H 0.61966 0.16387 0.52556 0.0
C2579 C 0.62008 0.09137 0.49224 0.0
C2580 C 0.60105 0.08768 0.50668 0.0
C2581 C 0.63572 0.10817 0.49648 0.0
C2582 C 0.63818 0.162 0.52186 0.0
H2583 H 0.72934 0.2141 0.46841 0.0
H2584 H 0.69827 0.18753 0.47431 0.0
H2585 H 0.6441 0.19655 0.52227 0.0
H2586 H 0.58354 0.09831 0.53712 0.0
H2587 H 0.6112 0.128 0.54476 0.0
H2588 H 0.67999 0.12383 0.50966 0.0
C2589 C 0.70178 0.19933 0.48742 0.0
C2590 C 0.65205 0.18069 0.51983 0.0
C2591 C 0.71939 0.21459 0.48398 0.0
C2592 C 0.5984 0.10057 0.52604 0.0
C2593 C 0.61401 0.11771 0.5302 0.0
C2594 C 0.67191 0.13956 0.51263 0.0
C2595 C 0.69008 0.19818 0.5082 0.0
C2596 C 0.67566 0.17886 0.51327 0.0
C2597 C 0.6326 0.12189 0.51518 0.0
C2598 C 0.64785 0.14128 0.51755 0.0
H2599 H 0.71724 0.24007 0.53495 0.0
H2600 H 0.68583 0.21333 0.54088 0.0
H2601 H 0.70392 0.15629 0.5058 0.0
H2602 H 0.62232 0.08176 0.47708 0.0
H2603 H 0.64957 0.11109 0.48436 0.0
C2604 C 0.80558 0.711 0.51912 0.0
C2605 C 0.79606 0.71938 0.49907 0.0
C2606 C 0.82468 0.69668 0.51861 0.0
C2607 C 0.85578 0.65702 0.48259 0.0
H2608 H 0.90285 0.66176 0.52952 0.0
C2609 C 0.93524 0.59615 0.49543 0.0
C2610 C 0.93831 0.58979 0.51805 0.0
C2611 C 0.91926 0.61289 0.48986 0.0
C2612 C 0.88986 0.66018 0.51628 0.0
H2613 H 0.7985 0.71861 0.46263 0.0
H2614 H 0.83239 0.69377 0.4617 0.0
H2615 H 0.87275 0.68972 0.52596 0.0
H2616 H 0.92614 0.59534 0.5523 0.0
H2617 H 0.89865 0.62386 0.54264 0.0
H2618 H 0.87287 0.62705 0.47333 0.0
C2619 C 0.82508 0.69842 0.47785 0.0
C2620 C 0.87255 0.6762 0.51428 0.0
C2621 C 0.80586 0.7128 0.47838 0.0
C2622 C 0.92464 0.60001 0.53474 0.0
C2623 C 0.90886 0.61651 0.52923 0.0
C2624 C 0.87323 0.64089 0.4846 0.0
C2625 C 0.83474 0.69019 0.49799 0.0
C2626 C 0.85483 0.67452 0.49789 0.0
C2627 C 0.90624 0.62349 0.50685 0.0
C2628 C 0.88999 0.64197 0.50197 0.0
H2629 H 0.79796 0.71526 0.53526 0.0
H2630 H 0.83122 0.69026 0.53443 0.0
H2631 H 0.84238 0.65522 0.46977 0.0
H2632 H 0.94541 0.5885 0.48219 0.0
H2633 H 0.91751 0.61788 0.47242 0.0
C2634 C 0.31102 0.82624 0.49476 0.0
C2635 C 0.30936 0.81256 0.51366 0.0
C2636 C 0.33045 0.83972 0.49185 0.0
C2637 C 0.39076 0.85215 0.51284 0.0
H2638 H 0.37381 0.91073 0.49461 0.0
C2639 C 0.45072 0.92665 0.52768 0.0
C2640 C 0.44988 0.94403 0.51225 0.0
C2641 C 0.4359 0.90874 0.52519 0.0
C2642 C 0.37905 0.89439 0.49931 0.0
H2643 H 0.32714 0.8015 0.54382 0.0
H2644 H 0.36108 0.82539 0.53905 0.0
H2645 H 0.34412 0.88265 0.4951 0.0
H2646 H 0.43382 0.95548 0.48126 0.0
H2647 H 0.40835 0.92404 0.47662 0.0
H2648 H 0.4257 0.86418 0.51749 0.0
C2649 C 0.34754 0.82548 0.52623 0.0
C2650 C 0.36194 0.8782 0.49961 0.0
C2651 C 0.32812 0.81178 0.52901 0.0
C2652 C 0.43474 0.94252 0.49361 0.0
C2653 C 0.42001 0.92452 0.49103 0.0
C2654 C 0.40795 0.8684 0.51253 0.0
C2655 C 0.34861 0.84011 0.50795 0.0
C2656 C 0.36746 0.85688 0.50652 0.0
C2657 C 0.41995 0.90764 0.50711 0.0
C2658 C 0.40227 0.88981 0.50594 0.0
H2659 H 0.29684 0.82701 0.48259 0.0
H2660 H 0.33091 0.85031 0.47727 0.0
H2661 H 0.39575 0.83588 0.51802 0.0
H2662 H 0.46217 0.92725 0.54225 0.0
H2663 H 0.43627 0.89621 0.53803 0.0
C2664 C 0.2373 0.33346 0.54244 0.0
C2665 C 0.23607 0.31311 0.53179 0.0
C2666 C 0.21917 0.34871 0.5399 0.0
C2667 C 0.17033 0.36362 0.50213 0.0
H2668 H 0.14956 0.39876 0.55265 0.0
C2669 C 0.09573 0.42633 0.49182 0.0
C2670 C 0.09975 0.44686 0.50142 0.0
C2671 C 0.11004 0.40859 0.49744 0.0
C2672 C 0.15526 0.38918 0.53834 0.0
H2673 H 0.2142 0.29238 0.51109 0.0
H2674 H 0.18268 0.31901 0.5065 0.0
H2675 H 0.17952 0.37075 0.55843 0.0
H2676 H 0.12116 0.46457 0.52537 0.0
H2677 H 0.1463 0.43379 0.53487 0.0
H2678 H 0.14656 0.38228 0.4819 0.0
C2679 C 0.19791 0.32337 0.51642 0.0
C2680 C 0.17244 0.37314 0.54165 0.0
C2681 C 0.21598 0.3081 0.51906 0.0
C2682 C 0.11765 0.44901 0.51757 0.0
C2683 C 0.132 0.43129 0.52314 0.0
C2684 C 0.15324 0.37969 0.4988 0.0
C2685 C 0.19931 0.34388 0.52676 0.0
C2686 C 0.18033 0.36031 0.52354 0.0
C2687 C 0.12872 0.41097 0.51276 0.0
C2688 C 0.14563 0.39282 0.5168 0.0
H2689 H 0.25234 0.33757 0.55274 0.0
H2690 H 0.22087 0.36441 0.54798 0.0
H2691 H 0.17623 0.35421 0.48776 0.0
H2692 H 0.08192 0.42407 0.47948 0.0
H2693 H 0.1067 0.39307 0.48948 0.0
C2694 C 0.32134 0.21648 0.49567 0.0
C2695 C 0.31082 0.21993 0.51676 0.0
C2696 C 0.34075 0.20251 0.49365 0.0
C2697 C 0.36565 0.15474 0.52243 0.0
H2698 H 0.41823 0.16178 0.4816 0.0
C2699 C 0.42807 0.08357 0.50444 0.0
C2700 C 0.45184 0.08819 0.50806 0.0
C2701 C 0.4117 0.10049 0.50227 0.0
C2702 C 0.40361 0.15962 0.49305 0.0
H2703 H 0.3127 0.21258 0.55235 0.0
H2704 H 0.34701 0.18868 0.54905 0.0
H2705 H 0.38938 0.19129 0.48584 0.0
H2706 H 0.47755 0.11375 0.51114 0.0
H2707 H 0.44904 0.14347 0.5066 0.0
H2708 H 0.37978 0.12324 0.52978 0.0
C2709 C 0.34013 0.19638 0.53398 0.0
C2710 C 0.38707 0.17646 0.49542 0.0
C2711 C 0.3207 0.21022 0.53596 0.0
C2712 C 0.45929 0.10989 0.50801 0.0
C2713 C 0.44298 0.12684 0.50548 0.0
C2714 C 0.38199 0.13791 0.5199 0.0
C2715 C 0.34987 0.19171 0.5127 0.0
C2716 C 0.36795 0.17425 0.51027 0.0
C2717 C 0.41888 0.12233 0.50352 0.0
C2718 C 0.40115 0.14012 0.50519 0.0
H2719 H 0.31369 0.22356 0.48061 0.0
H2720 H 0.34769 0.19917 0.47701 0.0
H2721 H 0.35096 0.15229 0.53373 0.0
H2722 H 0.42194 0.06693 0.50482 0.0
H2723 H 0.39328 0.09651 0.50056 0.0
C2724 C 0.80209 0.34007 0.47448 0.0
C2725 C 0.80069 0.32102 0.48744 0.0
C2726 C 0.82149 0.35379 0.47633 0.0
C2727 C 0.86932 0.36792 0.51542 0.0
H2728 H 0.89508 0.39761 0.46338 0.0
C2729 C 0.94617 0.42715 0.5251 0.0
C2730 C 0.9427 0.44743 0.51465 0.0
C2731 C 0.93197 0.40949 0.51951 0.0
C2732 C 0.88804 0.38946 0.47807 0.0
H2733 H 0.81926 0.30089 0.51181 0.0
H2734 H 0.85303 0.32467 0.51496 0.0
H2735 H 0.86363 0.3712 0.45829 0.0
H2736 H 0.92279 0.46466 0.48897 0.0
H2737 H 0.89798 0.43398 0.47936 0.0
H2738 H 0.89328 0.38644 0.53527 0.0
C2739 C 0.83887 0.32931 0.50371 0.0
C2740 C 0.86999 0.37439 0.47517 0.0
C2741 C 0.81949 0.31561 0.50184 0.0
C2742 C 0.92579 0.4493 0.49748 0.0
C2743 C 0.91165 0.43164 0.49185 0.0
C2744 C 0.88734 0.38295 0.51832 0.0
C2745 C 0.84005 0.34863 0.49109 0.0
C2746 C 0.8602 0.36366 0.49386 0.0
C2747 C 0.91409 0.41173 0.50329 0.0
C2748 C 0.8967 0.39413 0.49972 0.0
H2749 H 0.78805 0.3444 0.46296 0.0
H2750 H 0.82175 0.36863 0.4665 0.0
H2751 H 0.86197 0.36019 0.53022 0.0
H2752 H 0.9592 0.42512 0.53826 0.0
H2753 H 0.93456 0.39423 0.52832 0.0
C2754 C 0.24536 0.69513 0.50486 0.0
C2755 C 0.24083 0.71607 0.51328 0.0
C2756 C 0.22838 0.67887 0.50628 0.0
C2757 C 0.17334 0.66156 0.53382 0.0
H2758 H 0.16372 0.63117 0.47741 0.0
C2759 C 0.09522 0.60172 0.51696 0.0
C2760 C 0.09948 0.58474 0.50166 0.0
C2761 C 0.1127 0.61728 0.52127 0.0
C2762 C 0.16636 0.63911 0.49349 0.0
H2763 H 0.21487 0.73631 0.5299 0.0
H2764 H 0.18515 0.7077 0.53264 0.0
H2765 H 0.19375 0.65878 0.47991 0.0
H2766 H 0.12561 0.5696 0.4803 0.0
H2767 H 0.1563 0.59563 0.4887 0.0
H2768 H 0.14594 0.64157 0.54744 0.0
C2769 C 0.20203 0.70385 0.52521 0.0
C2770 C 0.1836 0.65508 0.49486 0.0
C2771 C 0.21904 0.72023 0.52364 0.0
C2772 C 0.12183 0.58268 0.492 0.0
C2773 C 0.13933 0.59781 0.49663 0.0
C2774 C 0.15613 0.64529 0.53253 0.0
C2775 C 0.20633 0.68312 0.51605 0.0
C2776 C 0.1875 0.66639 0.51505 0.0
C2777 C 0.13478 0.61589 0.51054 0.0
C2778 C 0.1526 0.63364 0.51237 0.0
H2779 H 0.26184 0.6915 0.49652 0.0
H2780 H 0.23234 0.66302 0.49926 0.0
H2781 H 0.17592 0.67003 0.54962 0.0
H2782 H 0.07801 0.6037 0.52449 0.0
H2783 H 0.10848 0.63092 0.53207 0.0
loop_
_geom_bond_atom_site_label_1
_geom_bond_atom_site_label_2
_geom_bond_distance
_geom_bond_site_symmetry_2
_ccdc_geom_bond_type
H0 C7 0.929 . S
H1 C10 0.930 . S
H2 C12 0.929 . S
H3 C4 0.969 . S
C4 H3 0.969 . S
C4 O5 1.550 . S
C4 H6 0.973 . S
O5 C4 1.550 . S
O5 C11 1.412 . S
H6 C4 0.973 . S
C7 H0 0.929 . S
C7 C8 1.400 . S
C7 C9 1.364 . S
C8 C7 1.400 . S
C8 C12 1.377 . S
C9 C7 1.364 . S
C9 C10 1.374 . S
C10 H1 0.930 . S
C10 C9 1.374 . S
C10 C11 1.383 . S
C11 O5 1.412 . S
C11 C10 1.383 . S
C11 C12 1.394 . S
C12 H2 0.929 . S
C12 C8 1.377 . S
C12 C11 1.394 . S
H13 C20 0.929 . S
H14 C23 0.930 . S
H15 C25 0.929 . S
H16 C17 0.969 . S
C17 H16 0.969 . S
C17 O18 1.550 . S
C17 H19 0.973 . S
O18 C17 1.550 . S
O18 C24 1.412 . S
H19 C17 0.973 . S
C20 H13 0.929 . S
C20 C21 1.400 . S
C20 C22 1.364 . S
C21 C20 1.400 . S
C21 C25 1.377 . S
C22 C20 1.364 . S
C22 C23 1.374 . S
C23 H14 0.930 . S
C23 C22 1.374 . S
C23 C24 1.383 . S
C24 O18 1.412 . S
C24 C23 1.383 . S
C24 C25 1.394 . S
C25 H15 0.929 . S
C25 C21 1.377 . S
C25 C24 1.394 . S
H26 C33 0.929 . S
H27 C36 0.930 . S
H28 C38 0.929 . S
H29 C30 0.969 . S
C30 H29 0.969 . S
C30 O31 1.550 . S
C30 H32 0.973 . S
O31 C30 1.550 . S
O31 C37 1.412 . S
H32 C30 0.973 . S
C33 H26 0.929 . S
C33 C34 1.400 . S
C33 C35 1.364 . S
C34 C33 1.400 . S
C34 C38 1.377 . S
C35 C33 1.364 . S
C35 C36 1.374 . S
C36 H27 0.930 . S
C36 C35 1.374 . S
C36 C37 1.383 . S
C37 O31 1.412 . S
C37 C36 1.383 . S
C37 C38 1.394 . S
C38 H28 0.929 . S
C38 C34 1.377 . S
C38 C37 1.394 . S
H39 C46 0.929 . S
H40 C49 0.930 . S
H41 C51 0.929 . S
H42 C43 0.969 . S
C43 H42 0.969 . S
C43 O44 1.550 1_545 S
C43 H45 0.973 1_545 S
O44 C43 1.550 1_565 S
O44 C50 1.412 1_565 S
H45 C43 0.973 1_565 S
C46 H39 0.929 . S
C46 C47 1.400 . S
C46 C48 1.364 . S
C47 C46 1.400 . S
C47 C51 1.377 . S
C48 C46 1.364 . S
C48 C49 1.374 . S
C49 H40 0.930 . S
C49 C48 1.374 . S
C49 C50 1.383 . S
C50 O44 1.412 1_545 S
C50 C49 1.383 . S
C50 C51 1.394 . S
C51 H41 0.929 . S
C51 C47 1.377 . S
C51 C50 1.394 . S
H52 C59 0.930 . S
H53 C62 0.930 . S
H54 C64 0.928 . S
H55 C56 0.969 . S
C56 H55 0.969 . S
C56 O57 1.550 1_655 S
C56 H58 0.973 1_655 S
O57 C56 1.550 1_455 S
O57 C63 1.403 1_455 S
H58 C56 0.973 1_455 S
C59 H52 0.930 . S
C59 C60 1.400 . S
C59 C61 1.364 . S
C60 C59 1.400 . S
C60 C64 1.377 . S
C61 C59 1.364 . S
C61 C62 1.374 . S
C62 H53 0.930 . S
C62 C61 1.374 . S
C62 C63 1.382 1_455 S
C63 O57 1.403 1_655 S
C63 C62 1.382 1_655 S
C63 C64 1.394 1_655 S
C64 H54 0.928 . S
C64 C60 1.377 . S
C64 C63 1.394 1_455 S
H65 C72 0.929 . S
H66 C75 0.930 . S
H67 C77 0.929 . S
H68 C69 0.941 1_565 S
C69 H68 0.941 1_545 S
C69 O70 1.561 . S
C69 H71 0.986 . S
O70 C69 1.561 . S
O70 C76 1.412 . S
H71 C69 0.986 . S
C72 H65 0.929 . S
C72 C73 1.400 . S
C72 C74 1.364 . S
C73 C72 1.400 . S
C73 C77 1.377 . S
C74 C72 1.364 . S
C74 C75 1.374 . S
C75 H66 0.930 . S
C75 C74 1.374 . S
C75 C76 1.383 . S
C76 O70 1.412 . S
C76 C75 1.383 . S
C76 C77 1.394 . S
C77 H67 0.929 . S
C77 C73 1.377 . S
C77 C76 1.394 . S
H78 C85 0.929 . S
H79 C88 0.930 . S
H80 C90 0.929 . S
H81 C82 0.969 . S
C82 H81 0.969 . S
C82 O83 1.550 . S
C82 H84 0.973 . S
O83 C82 1.550 . S
O83 C89 1.412 . S
H84 C82 0.973 . S
C85 H78 0.929 . S
C85 C86 1.400 . S
C85 C87 1.364 . S
C86 C85 1.400 . S
C86 C90 1.377 . S
C87 C85 1.364 . S
C87 C88 1.374 . S
C88 H79 0.930 . S
C88 C87 1.374 . S
C88 C89 1.383 . S
C89 O83 1.412 . S
C89 C88 1.383 . S
C89 C90 1.394 . S
C90 H80 0.929 . S
C90 C86 1.377 . S
C90 C89 1.394 . S
H91 C98 0.929 . S
H92 C101 0.930 . S
H93 C103 0.929 . S
H94 C95 0.969 . S
C95 H94 0.969 . S
C95 O96 1.550 . S
C95 H97 0.973 . S
O96 C95 1.550 . S
O96 C102 1.412 . S
H97 C95 0.973 . S
C98 H91 0.929 . S
C98 C99 1.400 . S
C98 C100 1.364 . S
C99 C98 1.400 . S
C99 C103 1.377 . S
C100 C98 1.364 . S
C100 C101 1.374 . S
C101 H92 0.930 . S
C101 C100 1.374 . S
C101 C102 1.383 . S
C102 O96 1.412 . S
C102 C101 1.383 . S
C102 C103 1.394 . S
C103 H93 0.929 . S
C103 C99 1.377 . S
C103 C102 1.394 . S
H104 C111 0.929 . S
H105 C114 0.930 . S
H106 C116 0.929 . S
H107 C108 0.969 . S
C108 H107 0.969 . S
C108 O109 1.550 . S
C108 H110 0.973 . S
O109 C108 1.550 . S
O109 C115 1.412 . S
H110 C108 0.973 . S
C111 H104 0.929 . S
C111 C112 1.400 . S
C111 C113 1.364 . S
C112 C111 1.400 . S
C112 C116 1.377 . S
C113 C111 1.364 . S
C113 C114 1.374 . S
C114 H105 0.930 . S
C114 C113 1.374 . S
C114 C115 1.383 . S
C115 O109 1.412 . S
C115 C114 1.383 . S
C115 C116 1.394 . S
C116 H106 0.929 . S
C116 C112 1.377 . S
C116 C115 1.394 . S
H117 C124 0.929 . S
H118 C127 0.930 . S
H119 C129 0.929 . S
H120 C121 0.969 1_556 S
C121 H120 0.969 1_554 S
C121 O122 1.550 . S
C121 H123 0.973 . S
O122 C121 1.550 . S
O122 C128 1.412 . S
H123 C121 0.973 . S
C124 H117 0.929 . S
C124 C125 1.400 . S
C124 C126 1.364 . S
C125 C124 1.400 . S
C125 C129 1.377 . S
C126 C124 1.364 . S
C126 C127 1.374 . S
C127 H118 0.930 . S
C127 C126 1.374 . S
C127 C128 1.383 . S
C128 O122 1.412 . S
C128 C127 1.383 . S
C128 C129 1.394 . S
C129 H119 0.929 . S
C129 C125 1.377 . S
C129 C128 1.394 . S
H130 C137 0.928 . S
H131 C140 0.933 . S
H132 C142 0.928 . S
H133 C134 0.969 . S
C134 H133 0.969 . S
C134 O135 1.550 1_556 S
C134 H136 0.973 1_556 S
O135 C134 1.550 1_554 S
O135 C141 1.411 1_554 S
H136 C134 0.973 1_554 S
C137 H130 0.928 . S
C137 C138 1.399 . S
C137 C139 1.364 . S
C138 C137 1.399 . S
C138 C142 1.377 . S
C139 C137 1.364 . S
C139 C140 1.374 . S
C140 H131 0.933 . S
C140 C139 1.374 . S
C140 C141 1.382 1_554 S
C141 O135 1.411 1_556 S
C141 C140 1.382 1_556 S
C141 C142 1.394 1_556 S
C142 H132 0.928 . S
C142 C138 1.377 . S
C142 C141 1.394 1_554 S
H143 C150 0.929 . S
H144 C153 0.930 . S
H145 C155 0.929 . S
H146 C147 0.969 . S
C147 H146 0.969 . S
C147 O148 1.550 1_554 S
C147 H149 0.973 . S
O148 C147 1.550 1_556 S
O148 C154 1.412 1_556 S
H149 C147 0.973 . S
C150 H143 0.929 . S
C150 C151 1.400 . S
C150 C152 1.364 . S
C151 C150 1.400 . S
C151 C155 1.377 . S
C152 C150 1.364 . S
C152 C153 1.374 . S
C153 H144 0.930 . S
C153 C152 1.374 . S
C153 C154 1.383 . S
C154 O148 1.412 1_554 S
C154 C153 1.383 . S
C154 C155 1.394 . S
C155 H145 0.929 . S
C155 C151 1.377 . S
C155 C154 1.394 . S
H156 C163 0.929 . S
H157 C166 0.930 . S
H158 C168 0.929 . S
H159 C160 0.969 . S
C160 H159 0.969 . S
C160 O161 1.550 . S
C160 H162 0.973 . S
O161 C160 1.550 . S
O161 C167 1.412 . S
H162 C160 0.973 . S
C163 H156 0.929 . S
C163 C164 1.400 . S
C163 C165 1.364 . S
C164 C163 1.400 . S
C164 C168 1.377 . S
C165 C163 1.364 . S
C165 C166 1.374 . S
C166 H157 0.930 . S
C166 C165 1.374 . S
C166 C167 1.383 . S
C167 O161 1.412 . S
C167 C166 1.383 . S
C167 C168 1.394 . S
C168 H158 0.929 . S
C168 C164 1.377 . S
C168 C167 1.394 . S
H169 C176 0.929 . S
H170 C179 0.930 . S
H171 C181 0.929 . S
H172 C173 0.969 . S
C173 H172 0.969 . S
C173 O174 1.550 . S
C173 H175 0.973 . S
O174 C173 1.550 . S
O174 C180 1.412 . S
H175 C173 0.973 . S
C176 H169 0.929 . S
C176 C177 1.400 . S
C176 C178 1.364 . S
C177 C176 1.400 . S
C177 C181 1.377 . S
C178 C176 1.364 . S
C178 C179 1.374 . S
C179 H170 0.930 . S
C179 C178 1.374 . S
C179 C180 1.383 . S
C180 O174 1.412 . S
C180 C179 1.383 . S
C180 C181 1.394 . S
C181 H171 0.929 . S
C181 C177 1.377 . S
C181 C180 1.394 . S
H182 C189 0.929 . S
H183 C192 0.930 . S
H184 C194 0.929 . S
H185 C186 0.969 . S
C186 H185 0.969 . S
C186 O187 1.550 . S
C186 H188 0.973 . S
O187 C186 1.550 . S
O187 C193 1.412 . S
H188 C186 0.973 . S
C189 H182 0.929 . S
C189 C190 1.400 . S
C189 C191 1.364 . S
C190 C189 1.400 . S
C190 C194 1.377 . S
C191 C189 1.364 . S
C191 C192 1.374 . S
C192 H183 0.930 . S
C192 C191 1.374 . S
C192 C193 1.383 . S
C193 O187 1.412 . S
C193 C192 1.383 . S
C193 C194 1.394 . S
C194 H184 0.929 . S
C194 C190 1.377 . S
C194 C193 1.394 . S
H195 C202 0.929 . S
H196 C205 0.930 . S
H197 C207 0.929 . S
H198 C199 0.969 . S
C199 H198 0.969 . S
C199 O200 1.550 . S
C199 H201 0.973 . S
O200 C199 1.550 . S
O200 C206 1.412 . S
H201 C199 0.973 . S
C202 H195 0.929 . S
C202 C203 1.400 . S
C202 C204 1.364 . S
C203 C202 1.400 . S
C203 C207 1.377 . S
C204 C202 1.364 . S
C204 C205 1.374 . S
C205 H196 0.930 . S
C205 C204 1.374 . S
C205 C206 1.383 . S
C206 O200 1.412 . S
C206 C205 1.383 . S
C206 C207 1.394 . S
C207 H197 0.929 . S
C207 C203 1.377 . S
C207 C206 1.394 . S
H208 C215 0.929 . S
H209 C218 0.930 . S
H210 C220 0.929 . S
H211 C212 0.969 . S
C212 H211 0.969 . S
C212 O213 1.550 . S
C212 H214 0.973 . S
O213 C212 1.550 . S
O213 C219 1.412 . S
H214 C212 0.973 . S
C215 H208 0.929 . S
C215 C216 1.400 . S
C215 C217 1.364 . S
C216 C215 1.400 . S
C216 C220 1.377 . S
C217 C215 1.364 . S
C217 C218 1.374 . S
C218 H209 0.930 . S
C218 C217 1.374 . S
C218 C219 1.383 . S
C219 O213 1.412 . S
C219 C218 1.383 . S
C219 C220 1.394 . S
C220 H210 0.929 . S
C220 C216 1.377 . S
C220 C219 1.394 . S
H221 C228 0.929 . S
H222 C231 0.930 . S
H223 C233 0.929 . S
H224 C225 0.969 . S
C225 H224 0.969 . S
C225 O226 1.550 . S
C225 H227 0.973 . S
O226 C225 1.550 . S
O226 C232 1.412 . S
H227 C225 0.973 . S
C228 H221 0.929 . S
C228 C229 1.400 . S
C228 C230 1.364 . S
C229 C228 1.400 . S
C229 C233 1.377 . S
C230 C228 1.364 . S
C230 C231 1.374 . S
C231 H222 0.930 . S
C231 C230 1.374 . S
C231 C232 1.383 . S
C232 O226 1.412 . S
C232 C231 1.383 . S
C232 C233 1.394 . S
C233 H223 0.929 . S
C233 C229 1.377 . S
C233 C232 1.394 . S
H234 C241 0.929 . S
H235 C244 0.930 . S
H236 C246 0.929 . S
H237 C238 0.969 . S
C238 H237 0.969 . S
C238 O239 1.550 . S
C238 H240 0.973 . S
O239 C238 1.550 . S
O239 C245 1.412 . S
H240 C238 0.973 . S
C241 H234 0.929 . S
C241 C242 1.400 . S
C241 C243 1.364 . S
C242 C241 1.400 . S
C242 C246 1.377 . S
C243 C241 1.364 . S
C243 C244 1.374 . S
C244 H235 0.930 . S
C244 C243 1.374 . S
C244 C245 1.383 . S
C245 O239 1.412 . S
C245 C244 1.383 . S
C245 C246 1.394 . S
C246 H236 0.929 . S
C246 C242 1.377 . S
C246 C245 1.394 . S
H247 C254 0.929 . S
H248 C257 0.930 . S
H249 C259 0.929 . S
H250 C251 0.969 . S
C251 H250 0.969 . S
C251 O252 1.550 . S
C251 H253 0.973 . S
O252 C251 1.550 . S
O252 C258 1.412 . S
H253 C251 0.973 . S
C254 H247 0.929 . S
C254 C255 1.400 . S
C254 C256 1.364 . S
C255 C254 1.400 . S
C255 C259 1.377 . S
C256 C254 1.364 . S
C256 C257 1.374 . S
C257 H248 0.930 . S
C257 C256 1.374 . S
C257 C258 1.383 . S
C258 O252 1.412 . S
C258 C257 1.383 . S
C258 C259 1.394 . S
C259 H249 0.929 . S
C259 C255 1.377 . S
C259 C258 1.394 . S
H260 C267 0.929 . S
H261 C270 0.930 . S
H262 C272 0.929 . S
H263 C264 0.969 . S
C264 H263 0.969 . S
C264 O265 1.550 . S
C264 H266 0.973 . S
O265 C264 1.550 . S
O265 C271 1.412 . S
H266 C264 0.973 . S
C267 H260 0.929 . S
C267 C268 1.400 . S
C267 C269 1.364 . S
C268 C267 1.400 . S
C268 C272 1.377 . S
C269 C267 1.364 . S
C269 C270 1.374 . S
C270 H261 0.930 . S
C270 C269 1.374 . S
C270 C271 1.383 . S
C271 O265 1.412 . S
C271 C270 1.383 . S
C271 C272 1.394 . S
C272 H262 0.929 . S
C272 C268 1.377 . S
C272 C271 1.394 . S
H273 C280 0.929 . S
H274 C283 0.930 . S
H275 C285 0.929 . S
H276 C277 0.969 . S
C277 H276 0.969 . S
C277 O278 1.550 . S
C277 H279 0.973 . S
O278 C277 1.550 . S
O278 C284 1.412 . S
H279 C277 0.973 . S
C280 H273 0.929 . S
C280 C281 1.400 . S
C280 C282 1.364 . S
C281 C280 1.400 . S
C281 C285 1.377 . S
C282 C280 1.364 . S
C282 C283 1.374 . S
C283 H274 0.930 . S
C283 C282 1.374 . S
C283 C284 1.383 . S
C284 O278 1.412 . S
C284 C283 1.383 . S
C284 C285 1.394 . S
C285 H275 0.929 . S
C285 C281 1.377 . S
C285 C284 1.394 . S
H286 C293 0.929 . S
H287 C296 0.930 . S
H288 C298 0.929 . S
H289 C290 0.969 . S
C290 H289 0.969 . S
C290 O291 1.550 . S
C290 H292 0.973 . S
O291 C290 1.550 . S
O291 C297 1.412 . S
H292 C290 0.973 . S
C293 H286 0.929 . S
C293 C294 1.400 . S
C293 C295 1.364 . S
C294 C293 1.400 . S
C294 C298 1.377 . S
C295 C293 1.364 . S
C295 C296 1.374 . S
C296 H287 0.930 . S
C296 C295 1.374 . S
C296 C297 1.383 . S
C297 O291 1.412 . S
C297 C296 1.383 . S
C297 C298 1.394 . S
C298 H288 0.929 . S
C298 C294 1.377 . S
C298 C297 1.394 . S
H299 C306 0.929 . S
H300 C309 0.930 . S
H301 C311 0.929 . S
H302 C303 0.969 . S
C303 H302 0.969 . S
C303 O304 1.550 . S
C303 H305 0.973 . S
O304 C303 1.550 . S
O304 C310 1.412 . S
H305 C303 0.973 . S
C306 H299 0.929 . S
C306 C307 1.400 . S
C306 C308 1.364 . S
C307 C306 1.400 . S
C307 C311 1.377 . S
C308 C306 1.364 . S
C308 C309 1.374 . S
C309 H300 0.930 . S
C309 C308 1.374 . S
C309 C310 1.383 . S
C310 O304 1.412 . S
C310 C309 1.383 . S
C310 C311 1.394 . S
C311 H301 0.929 . S
C311 C307 1.377 . S
C311 C310 1.394 . S
Zn312 O314 1.933 1_565 S
Zn312 O332 1.979 1_565 S
Zn312 O343 1.955 . S
Zn313 O314 1.911 . S
Zn313 O333 1.970 . S
Zn313 O349 1.945 . S
Zn313 O356 1.981 . S
O314 Zn312 1.933 1_545 S
O314 Zn313 1.911 . S
O314 H315 0.841 1_655 S
H315 O314 0.841 1_455 S
C316 O317 1.246 . S
C316 O345 1.276 . S
O317 C316 1.246 . S
Zn318 O320 1.911 . S
Zn318 O335 1.970 . S
Zn318 O352 1.945 . S
Zn318 O359 1.981 . S
Zn319 O320 1.933 1_565 S
Zn319 O334 1.985 . S
Zn319 O341 1.955 . S
O320 Zn318 1.911 . S
O320 Zn319 1.933 1_545 S
O320 H321 0.841 . S
H321 O320 0.841 . S
Zn322 O323 1.933 1_565 S
Zn322 O336 1.981 1_565 S
Zn322 O345 1.955 . S
O323 Zn322 1.933 1_545 S
O323 Zn324 1.911 . S
O323 H325 0.841 . S
Zn324 O323 1.911 . S
Zn324 O337 1.970 . S
Zn324 O353 1.981 1_655 S
Zn324 O355 1.945 . S
H325 O323 0.841 . S
Zn326 O327 1.933 1_565 S
Zn326 O339 1.985 . S
Zn326 O347 1.955 . S
O327 Zn326 1.933 1_545 S
O327 H328 0.841 . S
O327 Zn329 1.911 . S
H328 O327 0.841 . S
Zn329 O327 1.911 . S
Zn329 O340 1.970 . S
Zn329 O350 1.981 . S
Zn329 O358 1.945 . S
C330 O331 1.246 . S
C330 O347 1.276 . S
O331 C330 1.246 . S
O332 Zn312 1.979 1_545 S
O332 C342 1.269 . S
O333 Zn313 1.970 . S
O333 C342 1.263 . S
O334 Zn319 1.985 . S
O334 C346 1.245 1_565 S
O335 Zn318 1.970 . S
O335 C346 1.263 . S
O336 Zn322 1.981 1_545 S
O336 C351 1.264 . S
O337 Zn324 1.970 . S
O337 C351 1.263 . S
C338 O349 1.262 1_455 S
C338 O350 1.245 . S
O339 Zn326 1.985 . S
O339 C357 1.245 1_565 S
O340 Zn329 1.970 . S
O340 C357 1.263 . S
O341 Zn319 1.955 . S
O341 C360 1.276 . S
C342 O332 1.269 . S
C342 O333 1.263 . S
O343 Zn312 1.955 . S
O343 C362 1.276 1_655 S
C344 O352 1.262 . S
C344 O353 1.245 . S
O345 C316 1.276 . S
O345 Zn322 1.955 . S
C346 O334 1.245 1_545 S
C346 O335 1.263 . S
O347 Zn326 1.955 . S
O347 C330 1.276 . S
C348 O355 1.262 . S
C348 O356 1.245 . S
O349 Zn313 1.945 . S
O349 C338 1.262 1_655 S
O350 Zn329 1.981 . S
O350 C338 1.245 . S
C351 O336 1.264 . S
C351 O337 1.263 . S
O352 Zn318 1.945 . S
O352 C344 1.262 . S
O353 Zn324 1.981 1_455 S
O353 C344 1.245 . S
C354 O358 1.262 . S
C354 O359 1.245 . S
O355 Zn324 1.945 . S
O355 C348 1.262 . S
O356 Zn313 1.981 . S
O356 C348 1.245 . S
C357 O339 1.245 1_545 S
C357 O340 1.263 . S
O358 Zn329 1.945 . S
O358 C354 1.262 . S
O359 Zn318 1.981 . S
O359 C354 1.245 . S
C360 O341 1.276 . S
C360 O361 1.246 1_455 S
O361 C360 1.246 1_655 S
C362 O343 1.276 1_455 S
C362 O363 1.246 . S
O363 C362 1.246 . S
Zn364 O366 1.933 . S
Zn364 O384 1.985 . S
Zn364 O395 1.955 . S
Zn365 O366 1.911 1_556 S
Zn365 O385 1.970 . S
Zn365 O401 1.945 . S
Zn365 O408 1.981 . S
O366 Zn364 1.933 . S
O366 Zn365 1.911 1_554 S
O366 H367 0.841 . S
H367 O366 0.841 . S
C368 O369 1.246 . S
C368 O397 1.276 . S
O369 C368 1.246 . S
Zn370 O372 1.911 1_556 S
Zn370 O387 1.970 . S
Zn370 O404 1.945 . S
Zn370 O411 1.981 . S
Zn371 O372 1.933 . S
Zn371 O386 1.985 . S
Zn371 O393 1.968 . S
O372 Zn370 1.911 1_554 S
O372 Zn371 1.933 . S
O372 H373 0.841 1_565 S
H373 O372 0.841 1_545 S
Zn374 O375 1.933 . S
Zn374 O388 1.985 . S
Zn374 O397 1.955 . S
O375 Zn374 1.933 . S
O375 Zn376 1.911 1_554 S
O375 H377 0.841 . S
Zn376 O375 1.911 1_556 S
Zn376 O389 1.970 . S
Zn376 O405 1.981 . S
Zn376 O407 1.945 . S
H377 O375 0.841 . S
Zn378 O379 1.933 . S
Zn378 O391 1.985 . S
Zn378 O399 1.955 . S
O379 Zn378 1.933 . S
O379 H380 0.841 . S
O379 Zn381 1.911 1_554 S
H380 O379 0.841 . S
Zn381 O379 1.911 1_556 S
Zn381 O392 1.970 . S
Zn381 O402 1.981 1_565 S
Zn381 O410 1.945 . S
C382 O383 1.246 . S
C382 O399 1.276 . S
O383 C382 1.246 . S
O384 Zn364 1.985 . S
O384 C394 1.245 . S
O385 Zn365 1.970 . S
O385 C394 1.263 1_556 S
O386 Zn371 1.985 . S
O386 C398 1.245 . S
O387 Zn370 1.970 . S
O387 C398 1.263 1_556 S
O388 Zn374 1.985 . S
O388 C403 1.245 . S
O389 Zn376 1.970 . S
O389 C403 1.263 1_556 S
C390 O401 1.262 . S
C390 O402 1.245 . S
O391 Zn378 1.985 . S
O391 C409 1.245 . S
O392 Zn381 1.970 . S
O392 C409 1.263 1_556 S
O393 Zn371 1.968 . S
O393 C412 1.235 1_565 S
C394 O384 1.245 . S
C394 O385 1.263 1_554 S
O395 Zn364 1.955 . S
O395 C414 1.276 . S
C396 O404 1.262 1_545 S
C396 O405 1.245 . S
O397 C368 1.276 . S
O397 Zn374 1.955 . S
C398 O386 1.245 . S
C398 O387 1.263 1_554 S
O399 Zn378 1.955 . S
O399 C382 1.276 . S
C400 O407 1.262 . S
C400 O408 1.245 . S
O401 Zn365 1.945 . S
O401 C390 1.262 . S
O402 Zn381 1.981 1_545 S
O402 C390 1.245 . S
C403 O388 1.245 . S
C403 O389 1.263 1_554 S
O404 Zn370 1.945 . S
O404 C396 1.262 1_565 S
O405 Zn376 1.981 . S
O405 C396 1.245 . S
C406 O410 1.262 . S
C406 O411 1.245 . S
O407 Zn376 1.945 . S
O407 C400 1.262 . S
O408 Zn365 1.981 . S
O408 C400 1.245 . S
C409 O391 1.245 . S
C409 O392 1.263 1_554 S
O410 Zn381 1.945 . S
O410 C406 1.262 . S
O411 Zn370 1.981 . S
O411 C406 1.245 . S
C412 O393 1.235 1_545 S
C412 O413 1.246 . S
O413 C412 1.246 . S
C414 O395 1.276 . S
C414 O415 1.246 . S
O415 C414 1.246 . S
Zn416 O418 1.926 1_655 S
Zn416 O436 2.009 . S
Zn416 O447 1.947 1_655 S
Zn417 O418 1.911 1_655 S
Zn417 O437 1.970 . S
Zn417 O453 1.945 1_655 S
Zn417 O460 1.981 . S
O418 Zn416 1.926 1_455 S
O418 Zn417 1.911 1_455 S
O418 H419 0.841 . S
H419 O418 0.841 . S
C420 O421 1.246 1_554 S
C420 O449 1.276 . S
O421 C420 1.246 1_556 S
Zn422 O424 1.911 . S
Zn422 O439 1.970 . S
Zn422 O456 1.945 . S
Zn422 O463 1.981 . S
Zn423 O424 1.933 . S
Zn423 O438 1.985 . S
Zn423 O445 1.955 . S
O424 Zn422 1.911 . S
O424 Zn423 1.933 . S
O424 H425 0.841 . S
H425 O424 0.841 . S
Zn426 O427 1.931 . S
Zn426 O440 1.985 . S
Zn426 O449 1.955 . S
O427 Zn426 1.931 . S
O427 Zn428 1.909 . S
O427 H429 0.839 1_655 S
Zn428 O427 1.909 . S
Zn428 O441 1.970 . S
Zn428 O457 1.981 1_655 S
Zn428 O459 1.945 . S
H429 O427 0.839 1_455 S
Zn430 O431 1.933 . S
Zn430 O443 1.985 . S
Zn430 O451 1.955 . S
O431 Zn430 1.933 . S
O431 H432 0.841 1_556 S
O431 Zn433 1.911 . S
H432 O431 0.841 1_554 S
Zn433 O431 1.911 . S
Zn433 O444 1.970 . S
Zn433 O454 1.981 . S
Zn433 O462 1.945 . S
C434 O435 1.246 . S
C434 O451 1.276 1_554 S
O435 C434 1.246 . S
O436 Zn416 2.009 . S
O436 C446 1.245 . S
O437 Zn417 1.970 . S
O437 C446 1.263 . S
O438 Zn423 1.985 . S
O438 C450 1.245 . S
O439 Zn422 1.970 . S
O439 C450 1.263 . S
O440 Zn426 1.985 . S
O440 C455 1.245 . S
O441 Zn428 1.970 . S
O441 C455 1.263 . S
C442 O453 1.262 . S
C442 O454 1.245 . S
O443 Zn430 1.985 . S
O443 C461 1.245 . S
O444 Zn433 1.970 . S
O444 C461 1.263 . S
O445 Zn423 1.955 . S
O445 C464 1.276 . S
C446 O436 1.245 . S
C446 O437 1.263 . S
O447 Zn416 1.947 1_455 S
O447 C466 1.276 . S
C448 O456 1.262 . S
C448 O457 1.245 . S
O449 C420 1.276 . S
O449 Zn426 1.955 . S
C450 O438 1.245 . S
C450 O439 1.263 . S
O451 Zn430 1.955 . S
O451 C434 1.276 1_556 S
C452 O459 1.262 . S
C452 O460 1.245 1_554 S
O453 Zn417 1.945 1_455 S
O453 C442 1.262 . S
O454 Zn433 1.981 . S
O454 C442 1.245 . S
C455 O440 1.245 . S
C455 O441 1.263 . S
O456 Zn422 1.945 . S
O456 C448 1.262 . S
O457 Zn428 1.981 1_455 S
O457 C448 1.245 . S
C458 O462 1.262 1_554 S
C458 O463 1.245 . S
O459 Zn428 1.945 . S
O459 C452 1.262 . S
O460 Zn417 1.981 . S
O460 C452 1.245 1_556 S
C461 O443 1.245 . S
C461 O444 1.263 . S
O462 Zn433 1.945 . S
O462 C458 1.262 1_556 S
O463 Zn422 1.981 . S
O463 C458 1.245 . S
C464 O445 1.276 . S
C464 O465 1.246 . S
O465 C464 1.246 . S
C466 O447 1.276 . S
C466 O467 1.246 . S
O467 C466 1.246 . S
Zn468 O470 1.933 1_556 S
Zn468 O488 1.985 . S
Zn468 O499 1.955 . S
Zn469 O470 1.911 . S
Zn469 O489 1.970 . S
Zn469 O505 1.945 . S
Zn469 O512 1.981 . S
O470 Zn468 1.933 1_554 S
O470 Zn469 1.911 . S
O470 H471 0.841 . S
H471 O470 0.841 . S
C472 O473 1.246 . S
C472 O501 1.276 . S
O473 C472 1.246 . S
Zn474 O476 1.911 . S
Zn474 O491 1.970 . S
Zn474 O508 1.945 . S
Zn474 O515 1.981 . S
Zn475 O476 1.933 1_556 S
Zn475 O490 1.985 . S
Zn475 O497 1.955 . S
O476 Zn474 1.911 . S
O476 Zn475 1.933 1_554 S
O476 H477 0.841 . S
H477 O476 0.841 . S
Zn478 O479 1.933 1_556 S
Zn478 O492 1.985 . S
Zn478 O501 1.955 . S
O479 Zn478 1.933 1_554 S
O479 Zn480 1.911 . S
O479 H481 0.841 . S
Zn480 O479 1.911 . S
Zn480 O493 1.970 . S
Zn480 O509 1.981 . S
Zn480 O511 1.945 . S
H481 O479 0.841 . S
Zn482 O483 1.933 1_556 S
Zn482 O495 1.985 . S
Zn482 O503 1.955 . S
O483 Zn482 1.933 1_554 S
O483 H484 0.841 . S
O483 Zn485 1.911 . S
H484 O483 0.841 . S
Zn485 O483 1.911 . S
Zn485 O496 1.970 . S
Zn485 O506 1.981 . S
Zn485 O514 1.945 . S
C486 O487 1.246 . S
C486 O503 1.276 . S
O487 C486 1.246 . S
O488 Zn468 1.985 . S
O488 C498 1.245 1_556 S
O489 Zn469 1.970 . S
O489 C498 1.263 . S
O490 Zn475 1.985 . S
O490 C502 1.245 1_556 S
O491 Zn474 1.970 . S
O491 C502 1.263 . S
O492 Zn478 1.985 . S
O492 C507 1.245 1_556 S
O493 Zn480 1.970 . S
O493 C507 1.263 . S
C494 O505 1.262 . S
C494 O506 1.245 . S
O495 Zn482 1.985 . S
O495 C513 1.245 1_556 S
O496 Zn485 1.970 . S
O496 C513 1.263 . S
O497 Zn475 1.955 . S
O497 C516 1.276 . S
C498 O488 1.245 1_554 S
C498 O489 1.263 . S
O499 Zn468 1.955 . S
O499 C518 1.276 . S
C500 O508 1.262 . S
C500 O509 1.245 . S
O501 C472 1.276 . S
O501 Zn478 1.955 . S
C502 O490 1.245 1_554 S
C502 O491 1.263 . S
O503 Zn482 1.955 . S
O503 C486 1.276 . S
C504 O511 1.262 . S
C504 O512 1.245 . S
O505 Zn469 1.945 . S
O505 C494 1.262 . S
O506 Zn485 1.981 . S
O506 C494 1.245 . S
C507 O492 1.245 1_554 S
C507 O493 1.263 . S
O508 Zn474 1.945 . S
O508 C500 1.262 . S
O509 Zn480 1.981 . S
O509 C500 1.245 . S
C510 O514 1.262 . S
C510 O515 1.245 . S
O511 Zn480 1.945 . S
O511 C504 1.262 . S
O512 Zn469 1.981 . S
O512 C504 1.245 . S
C513 O495 1.245 1_554 S
C513 O496 1.263 . S
O514 Zn485 1.945 . S
O514 C510 1.262 . S
O515 Zn474 1.981 . S
O515 C510 1.245 . S
C516 O497 1.276 . S
C516 O517 1.246 . S
O517 C516 1.246 . S
C518 O499 1.276 . S
C518 O519 1.246 . S
O519 C518 1.246 . S
Zn520 O522 1.933 1_655 S
Zn520 O540 1.985 . S
Zn520 O551 1.955 1_655 S
Zn521 O522 1.911 1_655 S
Zn521 O541 1.970 . S
Zn521 O557 1.952 . S
Zn521 O564 1.981 . S
O522 Zn520 1.933 1_455 S
O522 Zn521 1.911 1_455 S
O522 H523 0.841 . S
H523 O522 0.841 . S
C524 O525 1.246 . S
C524 O553 1.276 . S
O525 C524 1.246 . S
Zn526 O528 1.911 . S
Zn526 O543 1.970 . S
Zn526 O560 1.945 . S
Zn526 O567 1.981 . S
Zn527 O528 1.933 . S
Zn527 O542 1.985 . S
Zn527 O549 1.955 . S
O528 Zn526 1.911 . S
O528 Zn527 1.933 . S
O528 H529 0.841 . S
H529 O528 0.841 . S
Zn530 O531 1.933 . S
Zn530 O544 1.985 . S
Zn530 O553 1.955 . S
O531 Zn530 1.933 . S
O531 Zn532 1.911 . S
O531 H533 0.841 . S
Zn532 O531 1.911 . S
Zn532 O545 1.970 . S
Zn532 O561 1.981 1_655 S
Zn532 O563 1.945 . S
H533 O531 0.841 . S
Zn534 O535 1.933 . S
Zn534 O547 1.985 . S
Zn534 O555 1.955 . S
O535 Zn534 1.933 . S
O535 H536 0.841 . S
O535 Zn537 1.911 . S
H536 O535 0.841 . S
Zn537 O535 1.911 . S
Zn537 O548 1.970 . S
Zn537 O558 1.981 . S
Zn537 O566 1.945 . S
C538 O539 1.246 . S
C538 O555 1.276 . S
O539 C538 1.246 . S
O540 Zn520 1.985 . S
O540 C550 1.245 . S
O541 Zn521 1.970 . S
O541 C550 1.263 . S
O542 Zn527 1.985 . S
O542 C554 1.245 . S
O543 Zn526 1.970 . S
O543 C554 1.263 . S
O544 Zn530 1.985 . S
O544 C559 1.245 . S
O545 Zn532 1.970 . S
O545 C559 1.263 . S
C546 O557 1.241 1_455 S
C546 O558 1.245 . S
O547 Zn534 1.985 . S
O547 C565 1.245 . S
O548 Zn537 1.970 . S
O548 C565 1.263 . S
O549 Zn527 1.955 . S
O549 C568 1.276 . S
C550 O540 1.245 . S
C550 O541 1.263 . S
O551 Zn520 1.955 1_455 S
O551 C570 1.276 . S
C552 O560 1.262 . S
C552 O561 1.245 . S
O553 C524 1.276 . S
O553 Zn530 1.955 . S
C554 O542 1.245 . S
C554 O543 1.263 . S
O555 Zn534 1.955 . S
O555 C538 1.276 . S
C556 O563 1.262 . S
C556 O564 1.245 . S
O557 Zn521 1.952 . S
O557 C546 1.241 1_655 S
O558 Zn537 1.981 . S
O558 C546 1.245 . S
C559 O544 1.245 . S
C559 O545 1.263 . S
O560 Zn526 1.945 . S
O560 C552 1.262 . S
O561 Zn532 1.981 1_455 S
O561 C552 1.245 . S
C562 O566 1.262 . S
C562 O567 1.245 . S
O563 Zn532 1.945 . S
O563 C556 1.262 . S
O564 Zn521 1.981 . S
O564 C556 1.245 . S
C565 O547 1.245 . S
C565 O548 1.263 . S
O566 Zn537 1.945 . S
O566 C562 1.262 . S
O567 Zn526 1.981 . S
O567 C562 1.245 . S
C568 O549 1.276 . S
C568 O569 1.246 . S
O569 C568 1.246 . S
C570 O551 1.276 . S
C570 O571 1.246 . S
O571 C570 1.246 . S
Zn572 O574 1.933 1_565 S
Zn572 O592 1.985 . S
Zn572 O603 1.955 . S
Zn573 O574 1.911 . S
Zn573 O593 1.970 . S
Zn573 O609 1.945 . S
Zn573 O616 1.981 . S
O574 Zn572 1.933 1_545 S
O574 Zn573 1.911 . S
O574 H575 0.841 . S
H575 O574 0.841 . S
C576 O577 1.246 . S
C576 O605 1.276 . S
O577 C576 1.246 . S
Zn578 O580 1.911 . S
Zn578 O595 1.970 . S
Zn578 O612 1.945 . S
Zn578 O619 1.981 . S
Zn579 O580 1.933 1_565 S
Zn579 O594 1.985 1_565 S
Zn579 O601 1.955 . S
O580 Zn578 1.911 . S
O580 Zn579 1.933 1_545 S
O580 H581 0.841 . S
H581 O580 0.841 . S
Zn582 O583 1.933 1_565 S
Zn582 O596 1.985 . S
Zn582 O605 1.955 . S
O583 Zn582 1.933 1_545 S
O583 Zn584 1.911 . S
O583 H585 0.841 . S
Zn584 O583 1.911 . S
Zn584 O597 1.970 . S
Zn584 O613 1.981 . S
Zn584 O615 1.945 . S
H585 O583 0.841 . S
Zn586 O587 1.933 1_565 S
Zn586 O599 1.985 1_565 S
Zn586 O607 1.955 . S
O587 Zn586 1.933 1_545 S
O587 H588 0.841 . S
O587 Zn589 1.911 . S
H588 O587 0.841 . S
Zn589 O587 1.911 . S
Zn589 O600 1.970 . S
Zn589 O610 1.981 . S
Zn589 O618 1.945 . S
C590 O591 1.246 . S
C590 O607 1.276 . S
O591 C590 1.246 . S
O592 Zn572 1.985 . S
O592 C602 1.245 1_565 S
O593 Zn573 1.970 . S
O593 C602 1.263 . S
O594 Zn579 1.985 1_545 S
O594 C606 1.245 . S
O595 Zn578 1.970 . S
O595 C606 1.263 . S
O596 Zn582 1.985 . S
O596 C611 1.245 1_565 S
O597 Zn584 1.970 . S
O597 C611 1.263 . S
C598 O609 1.262 . S
C598 O610 1.245 . S
O599 Zn586 1.985 1_545 S
O599 C617 1.245 . S
O600 Zn589 1.970 . S
O600 C617 1.263 . S
O601 Zn579 1.955 . S
O601 C620 1.276 . S
C602 O592 1.245 1_545 S
C602 O593 1.263 . S
O603 Zn572 1.955 . S
O603 C622 1.276 . S
C604 O612 1.262 . S
C604 O613 1.245 . S
O605 C576 1.276 . S
O605 Zn582 1.955 . S
C606 O594 1.245 . S
C606 O595 1.263 . S
O607 Zn586 1.955 . S
O607 C590 1.276 . S
C608 O615 1.262 . S
C608 O616 1.245 . S
O609 Zn573 1.945 . S
O609 C598 1.262 . S
O610 Zn589 1.981 . S
O610 C598 1.245 . S
C611 O596 1.245 1_545 S
C611 O597 1.263 . S
O612 Zn578 1.945 . S
O612 C604 1.262 . S
O613 Zn584 1.981 . S
O613 C604 1.245 . S
C614 O618 1.262 . S
C614 O619 1.245 . S
O615 Zn584 1.945 . S
O615 C608 1.262 . S
O616 Zn573 1.981 . S
O616 C608 1.245 . S
C617 O599 1.245 . S
C617 O600 1.263 . S
O618 Zn589 1.945 . S
O618 C614 1.262 . S
O619 Zn578 1.981 . S
O619 C614 1.245 . S
C620 O601 1.276 . S
C620 O621 1.246 . S
O621 C620 1.246 . S
C622 O603 1.276 . S
C622 O623 1.246 . S
O623 C622 1.246 . S
C624 C625 1.349 . S
C624 C626 1.327 . S
C624 H649 0.950 . S
C625 C624 1.349 . S
C625 C641 1.349 . S
C626 C624 1.327 . S
C626 C645 1.429 . S
C626 H650 0.950 . S
C627 C644 1.574 . S
C627 C646 1.368 . S
C627 H651 0.949 . S
H628 C632 0.949 . S
C629 C630 1.349 . S
C629 C631 1.327 . S
C629 H652 0.950 . S
C630 C629 1.349 . S
C630 C642 1.349 . S
C631 C629 1.327 . S
C631 C647 1.429 . S
C631 H653 0.950 . S
C632 H628 0.949 . S
C632 C640 1.574 . S
C632 C648 1.368 . S
H633 C641 0.950 . S
H634 C639 0.950 . S
H635 C640 0.949 . S
H636 C642 0.950 . S
H637 C643 0.950 . S
H638 C644 0.949 . S
C639 H634 0.950 . S
C639 C641 1.327 . S
C639 C645 1.429 . S
C640 C632 1.574 . S
C640 H635 0.949 . S
C640 C646 1.368 . S
C641 C625 1.349 . S
C641 H633 0.950 . S
C641 C639 1.327 . S
C642 C630 1.349 . S
C642 H636 0.950 . S
C642 C643 1.327 . S
C643 H637 0.950 . S
C643 C642 1.327 . S
C643 C647 1.429 . S
C644 C627 1.574 . S
C644 H638 0.949 . S
C644 C648 1.368 . S
C645 C626 1.429 . S
C645 C639 1.429 . S
C645 C646 1.523 . S
C646 C627 1.368 . S
C646 C640 1.368 . S
C646 C645 1.523 . S
C647 C631 1.429 . S
C647 C643 1.429 . S
C647 C648 1.523 . S
C648 C632 1.368 . S
C648 C644 1.368 . S
C648 C647 1.523 . S
H649 C624 0.950 . S
H650 C626 0.950 . S
H651 C627 0.949 . S
H652 C629 0.950 . S
H653 C631 0.950 . S
C654 C655 1.349 . S
C654 C656 1.327 . S
C654 H679 0.950 . S
C655 C654 1.349 . S
C655 C671 1.349 . S
C656 C654 1.327 . S
C656 C675 1.429 . S
C656 H680 0.950 . S
C657 C674 1.574 . S
C657 C676 1.368 . S
C657 H681 0.949 . S
H658 C662 0.949 . S
C659 C660 1.349 . S
C659 C661 1.327 . S
C659 H682 0.950 . S
C660 C659 1.349 . S
C660 C672 1.349 . S
C661 C659 1.327 . S
C661 C677 1.429 . S
C661 H683 0.950 . S
C662 H658 0.949 . S
C662 C670 1.574 . S
C662 C678 1.368 . S
H663 C671 0.950 . S
H664 C669 0.950 . S
H665 C670 0.949 . S
H666 C672 0.950 . S
H667 C673 0.950 . S
H668 C674 0.949 . S
C669 H664 0.950 . S
C669 C671 1.327 . S
C669 C675 1.429 . S
C670 C662 1.574 . S
C670 H665 0.949 . S
C670 C676 1.368 . S
C671 C655 1.349 . S
C671 H663 0.950 . S
C671 C669 1.327 . S
C672 C660 1.349 . S
C672 H666 0.950 . S
C672 C673 1.327 . S
C673 H667 0.950 . S
C673 C672 1.327 . S
C673 C677 1.429 . S
C674 C657 1.574 . S
C674 H668 0.949 . S
C674 C678 1.368 . S
C675 C656 1.429 . S
C675 C669 1.429 . S
C675 C676 1.523 . S
C676 C657 1.368 . S
C676 C670 1.368 . S
C676 C675 1.523 . S
C677 C661 1.429 . S
C677 C673 1.429 . S
C677 C678 1.523 . S
C678 C662 1.368 . S
C678 C674 1.368 . S
C678 C677 1.523 . S
H679 C654 0.950 . S
H680 C656 0.950 . S
H681 C657 0.949 . S
H682 C659 0.950 . S
H683 C661 0.950 . S
C684 C685 1.349 . S
C684 C686 1.327 . S
C684 H709 0.950 . S
C685 C684 1.349 . S
C685 C701 1.349 . S
C686 C684 1.327 . S
C686 C705 1.429 . S
C686 H710 0.950 . S
C687 C704 1.574 . S
C687 C706 1.368 . S
C687 H711 0.949 . S
H688 C692 0.949 . S
C689 C690 1.349 . S
C689 C691 1.327 . S
C689 H712 0.950 . S
C690 C689 1.349 . S
C690 C702 1.349 . S
C691 C689 1.327 . S
C691 C707 1.429 . S
C691 H713 0.950 . S
C692 H688 0.949 . S
C692 C700 1.574 . S
C692 C708 1.368 . S
H693 C701 0.950 . S
H694 C699 0.950 . S
H695 C700 0.949 . S
H696 C702 0.950 . S
H697 C703 0.950 . S
H698 C704 0.949 . S
C699 H694 0.950 . S
C699 C701 1.327 . S
C699 C705 1.429 . S
C700 C692 1.574 . S
C700 H695 0.949 . S
C700 C706 1.368 . S
C701 C685 1.349 . S
C701 H693 0.950 . S
C701 C699 1.327 . S
C702 C690 1.349 . S
C702 H696 0.950 . S
C702 C703 1.327 . S
C703 H697 0.950 . S
C703 C702 1.327 . S
C703 C707 1.429 . S
C704 C687 1.574 . S
C704 H698 0.949 . S
C704 C708 1.368 . S
C705 C686 1.429 . S
C705 C699 1.429 . S
C705 C706 1.523 . S
C706 C687 1.368 . S
C706 C700 1.368 . S
C706 C705 1.523 . S
C707 C691 1.429 . S
C707 C703 1.429 . S
C707 C708 1.523 . S
C708 C692 1.368 . S
C708 C704 1.368 . S
C708 C707 1.523 . S
H709 C684 0.950 . S
H710 C686 0.950 . S
H711 C687 0.949 . S
H712 C689 0.950 . S
H713 C691 0.950 . S
C714 C715 1.349 . S
C714 C716 1.327 . S
C714 H739 0.950 . S
C715 C714 1.349 . S
C715 C731 1.349 . S
C716 C714 1.327 . S
C716 C735 1.429 . S
C716 H740 0.950 . S
C717 C734 1.574 . S
C717 C736 1.368 . S
C717 H741 0.949 . S
H718 C722 0.949 . S
C719 C720 1.349 . S
C719 C721 1.327 . S
C719 H742 0.950 . S
C720 C719 1.349 . S
C720 C732 1.349 . S
C721 C719 1.327 . S
C721 C737 1.429 . S
C721 H743 0.950 . S
C722 H718 0.949 . S
C722 C730 1.574 . S
C722 C738 1.368 . S
H723 C731 0.950 . S
H724 C729 0.950 . S
H725 C730 0.949 . S
H726 C732 0.950 . S
H727 C733 0.950 . S
H728 C734 0.949 . S
C729 H724 0.950 . S
C729 C731 1.327 . S
C729 C735 1.429 . S
C730 C722 1.574 . S
C730 H725 0.949 . S
C730 C736 1.368 . S
C731 C715 1.349 . S
C731 H723 0.950 . S
C731 C729 1.327 . S
C732 C720 1.349 . S
C732 H726 0.950 . S
C732 C733 1.327 . S
C733 H727 0.950 . S
C733 C732 1.327 . S
C733 C737 1.429 . S
C734 C717 1.574 . S
C734 H728 0.949 . S
C734 C738 1.368 . S
C735 C716 1.429 . S
C735 C729 1.429 . S
C735 C736 1.523 . S
C736 C717 1.368 . S
C736 C730 1.368 . S
C736 C735 1.523 . S
C737 C721 1.429 . S
C737 C733 1.429 . S
C737 C738 1.523 . S
C738 C722 1.368 . S
C738 C734 1.368 . S
C738 C737 1.523 . S
H739 C714 0.950 . S
H740 C716 0.950 . S
H741 C717 0.949 . S
H742 C719 0.950 . S
H743 C721 0.950 . S
C744 C745 1.349 . S
C744 C746 1.327 . S
C744 H769 0.950 . S
C745 C744 1.349 . S
C745 C761 1.349 . S
C746 C744 1.327 . S
C746 C765 1.429 . S
C746 H770 0.950 . S
C747 C764 1.574 . S
C747 C766 1.368 . S
C747 H771 0.949 . S
H748 C752 0.949 . S
C749 C750 1.349 . S
C749 C751 1.327 . S
C749 H772 0.950 . S
C750 C749 1.349 . S
C750 C762 1.349 . S
C751 C749 1.327 . S
C751 C767 1.429 . S
C751 H773 0.950 . S
C752 H748 0.949 . S
C752 C760 1.574 . S
C752 C768 1.368 . S
H753 C761 0.950 . S
H754 C759 0.950 . S
H755 C760 0.949 . S
H756 C762 0.950 . S
H757 C763 0.950 . S
H758 C764 0.949 . S
C759 H754 0.950 . S
C759 C761 1.327 . S
C759 C765 1.429 . S
C760 C752 1.574 . S
C760 H755 0.949 . S
C760 C766 1.368 . S
C761 C745 1.349 . S
C761 H753 0.950 . S
C761 C759 1.327 . S
C762 C750 1.349 . S
C762 H756 0.950 . S
C762 C763 1.327 . S
C763 H757 0.950 . S
C763 C762 1.327 . S
C763 C767 1.429 . S
C764 C747 1.574 . S
C764 H758 0.949 . S
C764 C768 1.368 . S
C765 C746 1.429 . S
C765 C759 1.429 . S
C765 C766 1.523 . S
C766 C747 1.368 . S
C766 C760 1.368 . S
C766 C765 1.523 . S
C767 C751 1.429 . S
C767 C763 1.429 . S
C767 C768 1.523 . S
C768 C752 1.368 . S
C768 C764 1.368 . S
C768 C767 1.523 . S
H769 C744 0.950 . S
H770 C746 0.950 . S
H771 C747 0.949 . S
H772 C749 0.950 . S
H773 C751 0.950 . S
C774 C775 1.349 . S
C774 C776 1.327 . S
C774 H799 0.950 . S
C775 C774 1.349 . S
C775 C791 1.349 . S
C776 C774 1.327 . S
C776 C795 1.429 . S
C776 H800 0.950 . S
C777 C794 1.574 . S
C777 C796 1.368 . S
C777 H801 0.949 . S
H778 C782 0.949 . S
C779 C780 1.349 . S
C779 C781 1.327 . S
C779 H802 0.950 . S
C780 C779 1.349 . S
C780 C792 1.349 . S
C781 C779 1.327 . S
C781 C797 1.429 . S
C781 H803 0.950 . S
C782 H778 0.949 . S
C782 C790 1.574 . S
C782 C798 1.368 . S
H783 C791 0.950 . S
H784 C789 0.950 . S
H785 C790 0.949 . S
H786 C792 0.950 . S
H787 C793 0.950 . S
H788 C794 0.949 . S
C789 H784 0.950 . S
C789 C791 1.327 . S
C789 C795 1.429 . S
C790 C782 1.574 . S
C790 H785 0.949 . S
C790 C796 1.368 . S
C791 C775 1.349 . S
C791 H783 0.950 . S
C791 C789 1.327 . S
C792 C780 1.349 . S
C792 H786 0.950 . S
C792 C793 1.327 . S
C793 H787 0.950 . S
C793 C792 1.327 . S
C793 C797 1.429 . S
C794 C777 1.574 . S
C794 H788 0.949 . S
C794 C798 1.368 . S
C795 C776 1.429 . S
C795 C789 1.429 . S
C795 C796 1.523 . S
C796 C777 1.368 . S
C796 C790 1.368 . S
C796 C795 1.523 . S
C797 C781 1.429 . S
C797 C793 1.429 . S
C797 C798 1.523 . S
C798 C782 1.368 . S
C798 C794 1.368 . S
C798 C797 1.523 . S
H799 C774 0.950 . S
H800 C776 0.950 . S
H801 C777 0.949 . S
H802 C779 0.950 . S
H803 C781 0.950 . S
C804 C805 1.349 . S
C804 C806 1.327 . S
C804 H829 0.950 . S
C805 C804 1.349 . S
C805 C821 1.349 . S
C806 C804 1.327 . S
C806 C825 1.429 . S
C806 H830 0.950 . S
C807 C824 1.574 . S
C807 C826 1.368 . S
C807 H831 0.949 . S
H808 C812 0.949 . S
C809 C810 1.349 . S
C809 C811 1.327 . S
C809 H832 0.950 . S
C810 C809 1.349 . S
C810 C822 1.349 . S
C811 C809 1.327 . S
C811 C827 1.429 . S
C811 H833 0.950 . S
C812 H808 0.949 . S
C812 C820 1.574 . S
C812 C828 1.368 . S
H813 C821 0.950 . S
H814 C819 0.950 . S
H815 C820 0.949 . S
H816 C822 0.950 . S
H817 C823 0.950 . S
H818 C824 0.949 . S
C819 H814 0.950 . S
C819 C821 1.327 . S
C819 C825 1.429 . S
C820 C812 1.574 . S
C820 H815 0.949 . S
C820 C826 1.368 . S
C821 C805 1.349 . S
C821 H813 0.950 . S
C821 C819 1.327 . S
C822 C810 1.349 . S
C822 H816 0.950 . S
C822 C823 1.327 . S
C823 H817 0.950 . S
C823 C822 1.327 . S
C823 C827 1.429 . S
C824 C807 1.574 . S
C824 H818 0.949 . S
C824 C828 1.368 . S
C825 C806 1.429 . S
C825 C819 1.429 . S
C825 C826 1.523 . S
C826 C807 1.368 . S
C826 C820 1.368 . S
C826 C825 1.523 . S
C827 C811 1.429 . S
C827 C823 1.429 . S
C827 C828 1.523 . S
C828 C812 1.368 . S
C828 C824 1.368 . S
C828 C827 1.523 . S
H829 C804 0.950 . S
H830 C806 0.950 . S
H831 C807 0.949 . S
H832 C809 0.950 . S
H833 C811 0.950 . S
C834 C835 1.349 . S
C834 C836 1.327 . S
C834 H859 0.950 . S
C835 C834 1.349 . S
C835 C851 1.349 . S
C836 C834 1.327 . S
C836 C855 1.429 . S
C836 H860 0.950 . S
C837 C854 1.574 . S
C837 C856 1.368 . S
C837 H861 0.949 . S
H838 C842 0.949 . S
C839 C840 1.349 . S
C839 C841 1.327 . S
C839 H862 0.950 . S
C840 C839 1.349 . S
C840 C852 1.349 . S
C841 C839 1.327 . S
C841 C857 1.429 . S
C841 H863 0.950 . S
C842 H838 0.949 . S
C842 C850 1.574 . S
C842 C858 1.368 . S
H843 C851 0.950 . S
H844 C849 0.950 . S
H845 C850 0.949 . S
H846 C852 0.950 . S
H847 C853 0.950 . S
H848 C854 0.949 . S
C849 H844 0.950 . S
C849 C851 1.327 . S
C849 C855 1.429 . S
C850 C842 1.574 . S
C850 H845 0.949 . S
C850 C856 1.368 . S
C851 C835 1.349 . S
C851 H843 0.950 . S
C851 C849 1.327 . S
C852 C840 1.349 . S
C852 H846 0.950 . S
C852 C853 1.327 . S
C853 H847 0.950 . S
C853 C852 1.327 . S
C853 C857 1.429 . S
C854 C837 1.574 . S
C854 H848 0.949 . S
C854 C858 1.368 . S
C855 C836 1.429 . S
C855 C849 1.429 . S
C855 C856 1.523 . S
C856 C837 1.368 . S
C856 C850 1.368 . S
C856 C855 1.523 . S
C857 C841 1.429 . S
C857 C853 1.429 . S
C857 C858 1.523 . S
C858 C842 1.368 . S
C858 C854 1.368 . S
C858 C857 1.523 . S
H859 C834 0.950 . S
H860 C836 0.950 . S
H861 C837 0.949 . S
H862 C839 0.950 . S
H863 C841 0.950 . S
C864 C865 1.349 . S
C864 C866 1.327 . S
C864 H889 0.950 . S
C865 C864 1.349 . S
C865 C881 1.349 . S
C866 C864 1.327 . S
C866 C885 1.429 . S
C866 H890 0.950 . S
C867 C884 1.574 . S
C867 C886 1.368 . S
C867 H891 0.949 . S
H868 C872 0.949 . S
C869 C870 1.349 . S
C869 C871 1.327 . S
C869 H892 0.950 . S
C870 C869 1.349 . S
C870 C882 1.349 . S
C871 C869 1.327 . S
C871 C887 1.429 . S
C871 H893 0.950 . S
C872 H868 0.949 . S
C872 C880 1.574 . S
C872 C888 1.368 . S
H873 C881 0.950 . S
H874 C879 0.950 . S
H875 C880 0.949 . S
H876 C882 0.950 . S
H877 C883 0.950 . S
H878 C884 0.949 . S
C879 H874 0.950 . S
C879 C881 1.327 . S
C879 C885 1.429 . S
C880 C872 1.574 . S
C880 H875 0.949 . S
C880 C886 1.368 . S
C881 C865 1.349 . S
C881 H873 0.950 . S
C881 C879 1.327 . S
C882 C870 1.349 . S
C882 H876 0.950 . S
C882 C883 1.327 . S
C883 H877 0.950 . S
C883 C882 1.327 . S
C883 C887 1.429 . S
C884 C867 1.574 . S
C884 H878 0.949 . S
C884 C888 1.368 . S
C885 C866 1.429 . S
C885 C879 1.429 . S
C885 C886 1.523 . S
C886 C867 1.368 . S
C886 C880 1.368 . S
C886 C885 1.523 . S
C887 C871 1.429 . S
C887 C883 1.429 . S
C887 C888 1.523 . S
C888 C872 1.368 . S
C888 C884 1.368 . S
C888 C887 1.523 . S
H889 C864 0.950 . S
H890 C866 0.950 . S
H891 C867 0.949 . S
H892 C869 0.950 . S
H893 C871 0.950 . S
C894 C895 1.349 . S
C894 C896 1.327 . S
C894 H919 0.950 . S
C895 C894 1.349 . S
C895 C911 1.349 . S
C896 C894 1.327 . S
C896 C915 1.429 . S
C896 H920 0.950 . S
C897 C914 1.574 . S
C897 C916 1.368 . S
C897 H921 0.949 . S
H898 C902 0.949 . S
C899 C900 1.349 . S
C899 C901 1.327 . S
C899 H922 0.950 . S
C900 C899 1.349 . S
C900 C912 1.349 . S
C901 C899 1.327 . S
C901 C917 1.429 . S
C901 H923 0.950 . S
C902 H898 0.949 . S
C902 C910 1.574 . S
C902 C918 1.368 . S
H903 C911 0.950 . S
H904 C909 0.950 . S
H905 C910 0.949 . S
H906 C912 0.950 . S
H907 C913 0.950 . S
H908 C914 0.949 . S
C909 H904 0.950 . S
C909 C911 1.327 . S
C909 C915 1.429 . S
C910 C902 1.574 . S
C910 H905 0.949 . S
C910 C916 1.368 . S
C911 C895 1.349 . S
C911 H903 0.950 . S
C911 C909 1.327 . S
C912 C900 1.349 . S
C912 H906 0.950 . S
C912 C913 1.327 . S
C913 H907 0.950 . S
C913 C912 1.327 . S
C913 C917 1.429 . S
C914 C897 1.574 . S
C914 H908 0.949 . S
C914 C918 1.368 . S
C915 C896 1.429 . S
C915 C909 1.429 . S
C915 C916 1.523 . S
C916 C897 1.368 . S
C916 C910 1.368 . S
C916 C915 1.523 . S
C917 C901 1.429 . S
C917 C913 1.429 . S
C917 C918 1.523 . S
C918 C902 1.368 . S
C918 C914 1.368 . S
C918 C917 1.523 . S
H919 C894 0.950 . S
H920 C896 0.950 . S
H921 C897 0.949 . S
H922 C899 0.950 . S
H923 C901 0.950 . S
C924 C925 1.349 . S
C924 C926 1.327 . S
C924 H949 0.950 . S
C925 C924 1.349 . S
C925 C941 1.349 . S
C926 C924 1.327 . S
C926 C945 1.429 . S
C926 H950 0.950 . S
C927 C944 1.574 . S
C927 C946 1.368 . S
C927 H951 0.949 . S
H928 C932 0.949 . S
C929 C930 1.349 . S
C929 C931 1.327 . S
C929 H952 0.950 . S
C930 C929 1.349 . S
C930 C942 1.349 . S
C931 C929 1.327 . S
C931 C947 1.429 . S
C931 H953 0.950 . S
C932 H928 0.949 . S
C932 C940 1.574 . S
C932 C948 1.368 . S
H933 C941 0.950 . S
H934 C939 0.950 . S
H935 C940 0.949 . S
H936 C942 0.950 . S
H937 C943 0.950 . S
H938 C944 0.949 . S
C939 H934 0.950 . S
C939 C941 1.327 . S
C939 C945 1.429 . S
C940 C932 1.574 . S
C940 H935 0.949 . S
C940 C946 1.368 . S
C941 C925 1.349 . S
C941 H933 0.950 . S
C941 C939 1.327 . S
C942 C930 1.349 . S
C942 H936 0.950 . S
C942 C943 1.327 . S
C943 H937 0.950 . S
C943 C942 1.327 . S
C943 C947 1.429 . S
C944 C927 1.574 . S
C944 H938 0.949 . S
C944 C948 1.368 . S
C945 C926 1.429 . S
C945 C939 1.429 . S
C945 C946 1.523 . S
C946 C927 1.368 . S
C946 C940 1.368 . S
C946 C945 1.523 . S
C947 C931 1.429 . S
C947 C943 1.429 . S
C947 C948 1.523 . S
C948 C932 1.368 . S
C948 C944 1.368 . S
C948 C947 1.523 . S
H949 C924 0.950 . S
H950 C926 0.950 . S
H951 C927 0.949 . S
H952 C929 0.950 . S
H953 C931 0.950 . S
C954 C955 1.349 . S
C954 C956 1.327 . S
C954 H979 0.950 . S
C955 C954 1.349 . S
C955 C971 1.349 . S
C956 C954 1.327 . S
C956 C975 1.429 . S
C956 H980 0.950 . S
C957 C974 1.574 . S
C957 C976 1.368 . S
C957 H981 0.949 . S
H958 C962 0.949 . S
C959 C960 1.349 . S
C959 C961 1.327 . S
C959 H982 0.950 . S
C960 C959 1.349 . S
C960 C972 1.349 . S
C961 C959 1.327 . S
C961 C977 1.429 . S
C961 H983 0.950 . S
C962 H958 0.949 . S
C962 C970 1.574 . S
C962 C978 1.368 . S
H963 C971 0.950 . S
H964 C969 0.950 . S
H965 C970 0.949 . S
H966 C972 0.950 . S
H967 C973 0.950 . S
H968 C974 0.949 . S
C969 H964 0.950 . S
C969 C971 1.327 . S
C969 C975 1.429 . S
C970 C962 1.574 . S
C970 H965 0.949 . S
C970 C976 1.368 . S
C971 C955 1.349 . S
C971 H963 0.950 . S
C971 C969 1.327 . S
C972 C960 1.349 . S
C972 H966 0.950 . S
C972 C973 1.327 . S
C973 H967 0.950 . S
C973 C972 1.327 . S
C973 C977 1.429 . S
C974 C957 1.574 . S
C974 H968 0.949 . S
C974 C978 1.368 . S
C975 C956 1.429 . S
C975 C969 1.429 . S
C975 C976 1.523 . S
C976 C957 1.368 . S
C976 C970 1.368 . S
C976 C975 1.523 . S
C977 C961 1.429 . S
C977 C973 1.429 . S
C977 C978 1.523 . S
C978 C962 1.368 . S
C978 C974 1.368 . S
C978 C977 1.523 . S
H979 C954 0.950 . S
H980 C956 0.950 . S
H981 C957 0.949 . S
H982 C959 0.950 . S
H983 C961 0.950 . S
C984 C985 1.349 . S
C984 C986 1.327 . S
C984 H1009 0.950 . S
C985 C984 1.349 . S
C985 C1001 1.349 1_554 S
C986 C984 1.327 . S
C986 C1005 1.429 . S
C986 H1010 0.950 . S
C987 C1004 1.574 . S
C987 C1006 1.368 1_556 S
C987 H1011 0.949 . S
H988 C992 0.949 . S
C989 C990 1.349 1_556 S
C989 C991 1.327 . S
C989 H1012 0.950 . S
C990 C989 1.349 1_554 S
C990 C1002 1.349 . S
C991 C989 1.327 . S
C991 C1007 1.429 1_556 S
C991 H1013 0.950 . S
C992 H988 0.949 . S
C992 C1000 1.574 . S
C992 C1008 1.368 . S
H993 C1001 0.950 . S
H994 C999 0.950 . S
H995 C1000 0.949 . S
H996 C1002 0.950 . S
H997 C1003 0.950 . S
H998 C1004 0.949 . S
C999 H994 0.950 . S
C999 C1001 1.327 . S
C999 C1005 1.429 1_556 S
C1000 C992 1.574 . S
C1000 H995 0.949 . S
C1000 C1006 1.368 . S
C1001 C985 1.349 1_556 S
C1001 H993 0.950 . S
C1001 C999 1.327 . S
C1002 C990 1.349 . S
C1002 H996 0.950 . S
C1002 C1003 1.327 . S
C1003 H997 0.950 . S
C1003 C1002 1.327 . S
C1003 C1007 1.429 . S
C1004 C987 1.574 . S
C1004 H998 0.949 . S
C1004 C1008 1.368 1_556 S
C1005 C986 1.429 . S
C1005 C999 1.429 1_554 S
C1005 C1006 1.523 . S
C1006 C987 1.368 1_554 S
C1006 C1000 1.368 . S
C1006 C1005 1.523 . S
C1007 C991 1.429 1_554 S
C1007 C1003 1.429 . S
C1007 C1008 1.523 . S
C1008 C992 1.368 . S
C1008 C1004 1.368 1_554 S
C1008 C1007 1.523 . S
H1009 C984 0.950 . S
H1010 C986 0.950 . S
H1011 C987 0.949 . S
H1012 C989 0.950 . S
H1013 C991 0.950 . S
C1014 C1015 1.349 1_556 S
C1014 C1016 1.327 . S
C1014 H1039 0.950 . S
C1015 C1014 1.349 1_554 S
C1015 C1031 1.349 . S
C1016 C1014 1.327 . S
C1016 C1035 1.429 1_556 S
C1016 H1040 0.950 . S
C1017 C1034 1.574 . S
C1017 C1036 1.368 . S
C1017 H1041 0.949 . S
H1018 C1022 0.949 . S
C1019 C1020 1.349 . S
C1019 C1021 1.327 . S
C1019 H1042 0.950 . S
C1020 C1019 1.349 . S
C1020 C1032 1.349 1_554 S
C1021 C1019 1.327 . S
C1021 C1037 1.429 . S
C1021 H1043 0.950 . S
C1022 H1018 0.949 . S
C1022 C1030 1.574 . S
C1022 C1038 1.368 1_556 S
H1023 C1031 0.950 . S
H1024 C1029 0.950 . S
H1025 C1030 0.949 . S
H1026 C1032 0.950 . S
H1027 C1033 0.950 . S
H1028 C1034 0.949 . S
C1029 H1024 0.950 . S
C1029 C1031 1.327 . S
C1029 C1035 1.429 . S
C1030 C1022 1.574 . S
C1030 H1025 0.949 . S
C1030 C1036 1.368 1_556 S
C1031 C1015 1.349 . S
C1031 H1023 0.950 . S
C1031 C1029 1.327 . S
C1032 C1020 1.349 1_556 S
C1032 H1026 0.950 . S
C1032 C1033 1.327 . S
C1033 H1027 0.950 . S
C1033 C1032 1.327 . S
C1033 C1037 1.429 1_556 S
C1034 C1017 1.574 . S
C1034 H1028 0.949 . S
C1034 C1038 1.368 . S
C1035 C1016 1.429 1_554 S
C1035 C1029 1.429 . S
C1035 C1036 1.523 . S
C1036 C1017 1.368 . S
C1036 C1030 1.368 1_554 S
C1036 C1035 1.523 . S
C1037 C1021 1.429 . S
C1037 C1033 1.429 1_554 S
C1037 C1038 1.523 . S
C1038 C1022 1.368 1_554 S
C1038 C1034 1.368 . S
C1038 C1037 1.523 . S
H1039 C1014 0.950 . S
H1040 C1016 0.950 . S
H1041 C1017 0.949 . S
H1042 C1019 0.950 . S
H1043 C1021 0.950 . S
C1044 C1045 1.349 . S
C1044 C1046 1.327 . S
C1044 H1069 0.950 . S
C1045 C1044 1.349 . S
C1045 C1061 1.349 . S
C1046 C1044 1.327 . S
C1046 C1065 1.429 . S
C1046 H1070 0.950 . S
C1047 C1064 1.574 . S
C1047 C1066 1.368 . S
C1047 H1071 0.949 . S
H1048 C1052 0.949 . S
C1049 C1050 1.349 . S
C1049 C1051 1.327 . S
C1049 H1072 0.950 . S
C1050 C1049 1.349 . S
C1050 C1062 1.349 . S
C1051 C1049 1.327 . S
C1051 C1067 1.429 . S
C1051 H1073 0.950 . S
C1052 H1048 0.949 . S
C1052 C1060 1.574 . S
C1052 C1068 1.368 . S
H1053 C1061 0.950 . S
H1054 C1059 0.950 . S
H1055 C1060 0.949 . S
H1056 C1062 0.950 . S
H1057 C1063 0.950 . S
H1058 C1064 0.949 . S
C1059 H1054 0.950 . S
C1059 C1061 1.327 . S
C1059 C1065 1.429 . S
C1060 C1052 1.574 . S
C1060 H1055 0.949 . S
C1060 C1066 1.368 . S
C1061 C1045 1.349 . S
C1061 H1053 0.950 . S
C1061 C1059 1.327 . S
C1062 C1050 1.349 . S
C1062 H1056 0.950 . S
C1062 C1063 1.327 . S
C1063 H1057 0.950 . S
C1063 C1062 1.327 . S
C1063 C1067 1.429 . S
C1064 C1047 1.574 . S
C1064 H1058 0.949 . S
C1064 C1068 1.368 . S
C1065 C1046 1.429 . S
C1065 C1059 1.429 . S
C1065 C1066 1.523 . S
C1066 C1047 1.368 . S
C1066 C1060 1.368 . S
C1066 C1065 1.523 . S
C1067 C1051 1.429 . S
C1067 C1063 1.429 . S
C1067 C1068 1.523 . S
C1068 C1052 1.368 . S
C1068 C1064 1.368 . S
C1068 C1067 1.523 . S
H1069 C1044 0.950 . S
H1070 C1046 0.950 . S
H1071 C1047 0.949 . S
H1072 C1049 0.950 . S
H1073 C1051 0.950 . S
C1074 C1075 1.349 . S
C1074 C1076 1.327 . S
C1074 H1099 0.950 . S
C1075 C1074 1.349 . S
C1075 C1091 1.349 1_554 S
C1076 C1074 1.327 . S
C1076 C1095 1.429 . S
C1076 H1100 0.950 . S
C1077 C1094 1.574 . S
C1077 C1096 1.368 1_556 S
C1077 H1101 0.949 . S
H1078 C1082 0.949 . S
C1079 C1080 1.349 1_556 S
C1079 C1081 1.327 . S
C1079 H1102 0.950 . S
C1080 C1079 1.349 1_554 S
C1080 C1092 1.349 . S
C1081 C1079 1.327 . S
C1081 C1097 1.429 1_556 S
C1081 H1103 0.950 . S
C1082 H1078 0.949 . S
C1082 C1090 1.574 . S
C1082 C1098 1.368 . S
H1083 C1091 0.950 . S
H1084 C1089 0.950 . S
H1085 C1090 0.949 . S
H1086 C1092 0.950 . S
H1087 C1093 0.950 . S
H1088 C1094 0.949 . S
C1089 H1084 0.950 . S
C1089 C1091 1.327 . S
C1089 C1095 1.429 1_556 S
C1090 C1082 1.574 . S
C1090 H1085 0.949 . S
C1090 C1096 1.368 . S
C1091 C1075 1.349 1_556 S
C1091 H1083 0.950 . S
C1091 C1089 1.327 . S
C1092 C1080 1.349 . S
C1092 H1086 0.950 . S
C1092 C1093 1.327 . S
C1093 H1087 0.950 . S
C1093 C1092 1.327 . S
C1093 C1097 1.429 . S
C1094 C1077 1.574 . S
C1094 H1088 0.949 . S
C1094 C1098 1.368 1_556 S
C1095 C1076 1.429 . S
C1095 C1089 1.429 1_554 S
C1095 C1096 1.523 . S
C1096 C1077 1.368 1_554 S
C1096 C1090 1.368 . S
C1096 C1095 1.523 . S
C1097 C1081 1.429 1_554 S
C1097 C1093 1.429 . S
C1097 C1098 1.523 . S
C1098 C1082 1.368 . S
C1098 C1094 1.368 1_554 S
C1098 C1097 1.523 . S
H1099 C1074 0.950 . S
H1100 C1076 0.950 . S
H1101 C1077 0.949 . S
H1102 C1079 0.950 . S
H1103 C1081 0.950 . S
C1104 C1105 1.349 1_655 S
C1104 C1106 1.327 . S
C1104 H1129 0.950 . S
C1105 C1104 1.349 1_455 S
C1105 C1121 1.349 . S
C1106 C1104 1.327 . S
C1106 C1125 1.429 1_655 S
C1106 H1130 0.950 . S
C1107 C1124 1.574 . S
C1107 C1126 1.368 . S
C1107 H1131 0.949 . S
H1108 C1112 0.949 . S
C1109 C1110 1.349 . S
C1109 C1111 1.327 . S
C1109 H1132 0.950 . S
C1110 C1109 1.349 . S
C1110 C1122 1.349 1_455 S
C1111 C1109 1.327 . S
C1111 C1127 1.429 . S
C1111 H1133 0.950 . S
C1112 H1108 0.949 . S
C1112 C1120 1.574 . S
C1112 C1128 1.368 1_655 S
H1113 C1121 0.950 . S
H1114 C1119 0.950 . S
H1115 C1120 0.949 . S
H1116 C1122 0.950 . S
H1117 C1123 0.950 . S
H1118 C1124 0.949 . S
C1119 H1114 0.950 . S
C1119 C1121 1.327 . S
C1119 C1125 1.429 . S
C1120 C1112 1.574 . S
C1120 H1115 0.949 . S
C1120 C1126 1.368 1_655 S
C1121 C1105 1.349 . S
C1121 H1113 0.950 . S
C1121 C1119 1.327 . S
C1122 C1110 1.349 1_655 S
C1122 H1116 0.950 . S
C1122 C1123 1.327 . S
C1123 H1117 0.950 . S
C1123 C1122 1.327 . S
C1123 C1127 1.429 1_655 S
C1124 C1107 1.574 . S
C1124 H1118 0.949 . S
C1124 C1128 1.368 . S
C1125 C1106 1.429 1_455 S
C1125 C1119 1.429 . S
C1125 C1126 1.523 . S
C1126 C1107 1.368 . S
C1126 C1120 1.368 1_455 S
C1126 C1125 1.523 . S
C1127 C1111 1.429 . S
C1127 C1123 1.429 1_455 S
C1127 C1128 1.523 . S
C1128 C1112 1.368 1_455 S
C1128 C1124 1.368 . S
C1128 C1127 1.523 . S
H1129 C1104 0.950 . S
H1130 C1106 0.950 . S
H1131 C1107 0.949 . S
H1132 C1109 0.950 . S
H1133 C1111 0.950 . S
C1134 C1135 1.349 . S
C1134 C1136 1.327 . S
C1134 H1159 0.950 . S
C1135 C1134 1.349 . S
C1135 C1151 1.349 1_545 S
C1136 C1134 1.327 . S
C1136 C1155 1.429 . S
C1136 H1160 0.950 . S
C1137 C1154 1.574 . S
C1137 C1156 1.368 1_565 S
C1137 H1161 0.949 . S
H1138 C1142 0.949 . S
C1139 C1140 1.385 . S
C1139 C1141 1.323 1_545 S
C1139 H1162 0.919 1_545 S
C1140 C1139 1.385 . S
C1140 C1152 1.349 . S
C1141 C1139 1.323 1_565 S
C1141 C1157 1.409 1_565 S
C1141 H1163 0.973 . S
C1142 H1138 0.949 . S
C1142 C1150 1.574 . S
C1142 C1158 1.368 . S
H1143 C1151 0.950 . S
H1144 C1149 0.950 . S
H1145 C1150 0.949 . S
H1146 C1152 0.950 . S
H1147 C1153 0.950 . S
H1148 C1154 0.949 . S
C1149 H1144 0.950 . S
C1149 C1151 1.327 . S
C1149 C1155 1.429 1_565 S
C1150 C1142 1.574 . S
C1150 H1145 0.949 . S
C1150 C1156 1.368 . S
C1151 C1135 1.349 1_565 S
C1151 H1143 0.950 . S
C1151 C1149 1.327 . S
C1152 C1140 1.349 . S
C1152 H1146 0.950 . S
C1152 C1153 1.327 . S
C1153 H1147 0.950 . S
C1153 C1152 1.327 . S
C1153 C1157 1.429 . S
C1154 C1137 1.574 . S
C1154 H1148 0.949 . S
C1154 C1158 1.368 1_565 S
C1155 C1136 1.429 . S
C1155 C1149 1.429 1_545 S
C1155 C1156 1.523 . S
C1156 C1137 1.368 1_545 S
C1156 C1150 1.368 . S
C1156 C1155 1.523 . S
C1157 C1141 1.409 1_545 S
C1157 C1153 1.429 . S
C1157 C1158 1.523 . S
C1158 C1142 1.368 . S
C1158 C1154 1.368 1_545 S
C1158 C1157 1.523 . S
H1159 C1134 0.950 . S
H1160 C1136 0.950 . S
H1161 C1137 0.949 . S
H1162 C1139 0.919 1_565 S
H1163 C1141 0.973 . S
C1164 C1165 1.349 . S
C1164 C1166 1.327 . S
C1164 H1189 0.950 . S
C1165 C1164 1.349 . S
C1165 C1181 1.349 . S
C1166 C1164 1.327 . S
C1166 C1185 1.429 . S
C1166 H1190 0.950 . S
C1167 C1184 1.574 . S
C1167 C1186 1.368 . S
C1167 H1191 0.949 . S
H1168 C1172 0.949 . S
C1169 C1170 1.349 . S
C1169 C1171 1.327 . S
C1169 H1192 0.950 . S
C1170 C1169 1.349 . S
C1170 C1182 1.349 . S
C1171 C1169 1.327 . S
C1171 C1187 1.429 . S
C1171 H1193 0.950 . S
C1172 H1168 0.949 . S
C1172 C1180 1.574 . S
C1172 C1188 1.368 . S
H1173 C1181 0.950 . S
H1174 C1179 0.950 . S
H1175 C1180 0.949 . S
H1176 C1182 0.970 . S
H1177 C1183 0.950 . S
H1178 C1184 0.949 . S
C1179 H1174 0.950 . S
C1179 C1181 1.327 . S
C1179 C1185 1.429 . S
C1180 C1172 1.574 . S
C1180 H1175 0.949 . S
C1180 C1186 1.368 . S
C1181 C1165 1.349 . S
C1181 H1173 0.950 . S
C1181 C1179 1.327 . S
C1182 C1170 1.349 . S
C1182 H1176 0.970 . S
C1182 C1183 1.327 . S
C1183 H1177 0.950 . S
C1183 C1182 1.327 . S
C1183 C1187 1.429 . S
C1184 C1167 1.574 . S
C1184 H1178 0.949 . S
C1184 C1188 1.368 . S
C1185 C1166 1.429 . S
C1185 C1179 1.429 . S
C1185 C1186 1.523 . S
C1186 C1167 1.368 . S
C1186 C1180 1.368 . S
C1186 C1185 1.523 . S
C1187 C1171 1.429 . S
C1187 C1183 1.429 . S
C1187 C1188 1.523 . S
C1188 C1172 1.368 . S
C1188 C1184 1.368 . S
C1188 C1187 1.523 . S
H1189 C1164 0.950 . S
H1190 C1166 0.950 . S
H1191 C1167 0.949 . S
H1192 C1169 0.950 . S
H1193 C1171 0.950 . S
C1194 C1195 1.349 . S
C1194 C1196 1.327 . S
C1194 H1219 0.950 . S
C1195 C1194 1.349 . S
C1195 C1211 1.349 . S
C1196 C1194 1.327 . S
C1196 C1215 1.429 . S
C1196 H1220 0.968 . S
C1197 C1214 1.574 . S
C1197 C1216 1.368 . S
C1197 H1221 0.949 . S
H1198 C1202 0.949 1_565 S
C1199 C1200 1.349 . S
C1199 C1201 1.327 . S
C1199 H1222 0.950 . S
C1200 C1199 1.349 . S
C1200 C1212 1.349 . S
C1201 C1199 1.327 . S
C1201 C1217 1.429 . S
C1201 H1223 0.950 . S
C1202 H1198 0.949 1_545 S
C1202 C1210 1.574 . S
C1202 C1218 1.368 . S
H1203 C1211 0.950 . S
H1204 C1209 0.950 . S
H1205 C1210 0.949 1_565 S
H1206 C1212 0.950 1_565 S
H1207 C1213 0.950 1_565 S
H1208 C1214 0.949 . S
C1209 H1204 0.950 . S
C1209 C1211 1.327 . S
C1209 C1215 1.429 . S
C1210 C1202 1.574 . S
C1210 H1205 0.949 1_545 S
C1210 C1216 1.368 . S
C1211 C1195 1.349 . S
C1211 H1203 0.950 . S
C1211 C1209 1.327 . S
C1212 C1200 1.349 . S
C1212 H1206 0.950 1_545 S
C1212 C1213 1.327 . S
C1213 H1207 0.950 1_545 S
C1213 C1212 1.327 . S
C1213 C1217 1.429 . S
C1214 C1197 1.574 . S
C1214 H1208 0.949 . S
C1214 C1218 1.368 . S
C1215 C1196 1.429 . S
C1215 C1209 1.429 . S
C1215 C1216 1.523 . S
C1216 C1197 1.368 . S
C1216 C1210 1.368 . S
C1216 C1215 1.523 . S
C1217 C1201 1.429 . S
C1217 C1213 1.429 . S
C1217 C1218 1.523 . S
C1218 C1202 1.368 . S
C1218 C1214 1.368 . S
C1218 C1217 1.523 . S
H1219 C1194 0.950 . S
H1220 C1196 0.968 . S
H1221 C1197 0.949 . S
H1222 C1199 0.950 . S
H1223 C1201 0.950 . S
C1224 C1225 1.349 . S
C1224 C1226 1.327 . S
C1224 H1249 0.950 . S
C1225 C1224 1.349 . S
C1225 C1241 1.349 . S
C1226 C1224 1.327 . S
C1226 C1245 1.429 . S
C1226 H1250 0.950 . S
C1227 C1244 1.574 . S
C1227 C1246 1.368 . S
C1227 H1251 0.949 . S
H1228 C1232 0.949 . S
C1229 C1230 1.349 . S
C1229 C1231 1.327 . S
C1229 H1252 0.950 . S
C1230 C1229 1.349 . S
C1230 C1242 1.349 . S
C1231 C1229 1.327 . S
C1231 C1247 1.429 . S
C1231 H1253 0.950 . S
C1232 H1228 0.949 . S
C1232 C1240 1.574 . S
C1232 C1248 1.368 . S
H1233 C1241 0.950 . S
H1234 C1239 0.950 . S
H1235 C1240 0.949 . S
H1236 C1242 0.950 . S
H1237 C1243 0.950 . S
H1238 C1244 0.949 . S
C1239 H1234 0.950 . S
C1239 C1241 1.327 . S
C1239 C1245 1.429 . S
C1240 C1232 1.574 . S
C1240 H1235 0.949 . S
C1240 C1246 1.368 . S
C1241 C1225 1.349 . S
C1241 H1233 0.950 . S
C1241 C1239 1.327 . S
C1242 C1230 1.349 . S
C1242 H1236 0.950 . S
C1242 C1243 1.327 . S
C1243 H1237 0.950 . S
C1243 C1242 1.327 . S
C1243 C1247 1.429 . S
C1244 C1227 1.574 . S
C1244 H1238 0.949 . S
C1244 C1248 1.368 . S
C1245 C1226 1.429 . S
C1245 C1239 1.429 . S
C1245 C1246 1.523 . S
C1246 C1227 1.368 . S
C1246 C1240 1.368 . S
C1246 C1245 1.523 . S
C1247 C1231 1.429 . S
C1247 C1243 1.429 . S
C1247 C1248 1.523 . S
C1248 C1232 1.368 . S
C1248 C1244 1.368 . S
C1248 C1247 1.523 . S
H1249 C1224 0.950 . S
H1250 C1226 0.950 . S
H1251 C1227 0.949 . S
H1252 C1229 0.950 . S
H1253 C1231 0.950 . S
C1254 C1255 1.349 . S
C1254 C1256 1.327 . S
C1254 H1279 0.950 . S
C1255 C1254 1.349 . S
C1255 C1271 1.349 . S
C1256 C1254 1.327 . S
C1256 C1275 1.429 . S
C1256 H1280 0.950 . S
C1257 C1274 1.574 . S
C1257 C1276 1.368 . S
C1257 H1281 0.949 . S
H1258 C1262 0.949 . S
C1259 C1260 1.349 . S
C1259 C1261 1.327 . S
C1259 H1282 0.950 . S
C1260 C1259 1.349 . S
C1260 C1272 1.349 . S
C1261 C1259 1.327 . S
C1261 C1277 1.429 . S
C1261 H1283 0.950 . S
C1262 H1258 0.949 . S
C1262 C1270 1.574 . S
C1262 C1278 1.368 . S
H1263 C1271 0.950 . S
H1264 C1269 0.950 . S
H1265 C1270 0.949 . S
H1266 C1272 0.950 1_565 S
H1267 C1273 0.950 . S
H1268 C1274 0.949 . S
C1269 H1264 0.950 . S
C1269 C1271 1.327 . S
C1269 C1275 1.429 . S
C1270 C1262 1.574 . S
C1270 H1265 0.949 . S
C1270 C1276 1.368 . S
C1271 C1255 1.349 . S
C1271 H1263 0.950 . S
C1271 C1269 1.327 . S
C1272 C1260 1.349 . S
C1272 H1266 0.950 1_545 S
C1272 C1273 1.327 . S
C1273 H1267 0.950 . S
C1273 C1272 1.327 . S
C1273 C1277 1.429 . S
C1274 C1257 1.574 . S
C1274 H1268 0.949 . S
C1274 C1278 1.368 . S
C1275 C1256 1.429 . S
C1275 C1269 1.429 . S
C1275 C1276 1.523 . S
C1276 C1257 1.368 . S
C1276 C1270 1.368 . S
C1276 C1275 1.523 . S
C1277 C1261 1.429 . S
C1277 C1273 1.429 . S
C1277 C1278 1.523 . S
C1278 C1262 1.368 . S
C1278 C1274 1.368 . S
C1278 C1277 1.523 . S
H1279 C1254 0.950 . S
H1280 C1256 0.950 . S
H1281 C1257 0.949 . S
H1282 C1259 0.950 . S
H1283 C1261 0.950 . S
C1284 C1285 1.349 . S
C1284 C1286 1.327 . S
C1284 H1309 0.950 . S
C1285 C1284 1.349 . S
C1285 C1301 1.349 . S
C1286 C1284 1.327 . S
C1286 C1305 1.429 . S
C1286 H1310 0.950 . S
C1287 C1304 1.574 . S
C1287 C1306 1.368 . S
C1287 H1311 0.949 1_455 S
H1288 C1292 0.949 . S
C1289 C1290 1.349 . S
C1289 C1291 1.327 . S
C1289 H1312 0.950 1_455 S
C1290 C1289 1.349 . S
C1290 C1302 1.349 . S
C1291 C1289 1.327 . S
C1291 C1307 1.429 . S
C1291 H1313 0.950 1_455 S
C1292 H1288 0.949 . S
C1292 C1300 1.574 . S
C1292 C1308 1.368 . S
H1293 C1301 0.950 1_655 S
H1294 C1299 0.950 1_655 S
H1295 C1300 0.949 . S
H1296 C1302 0.950 . S
H1297 C1303 0.950 . S
H1298 C1304 0.949 1_655 S
C1299 H1294 0.950 1_455 S
C1299 C1301 1.327 . S
C1299 C1305 1.429 . S
C1300 C1292 1.574 . S
C1300 H1295 0.949 . S
C1300 C1306 1.368 . S
C1301 C1285 1.349 . S
C1301 H1293 0.950 1_455 S
C1301 C1299 1.327 . S
C1302 C1290 1.349 . S
C1302 H1296 0.950 . S
C1302 C1303 1.327 . S
C1303 H1297 0.950 . S
C1303 C1302 1.327 . S
C1303 C1307 1.429 . S
C1304 C1287 1.574 . S
C1304 H1298 0.949 1_455 S
C1304 C1308 1.368 . S
C1305 C1286 1.429 . S
C1305 C1299 1.429 . S
C1305 C1306 1.523 . S
C1306 C1287 1.368 . S
C1306 C1300 1.368 . S
C1306 C1305 1.523 . S
C1307 C1291 1.429 . S
C1307 C1303 1.429 . S
C1307 C1308 1.523 . S
C1308 C1292 1.368 . S
C1308 C1304 1.368 . S
C1308 C1307 1.523 . S
H1309 C1284 0.950 . S
H1310 C1286 0.950 . S
H1311 C1287 0.949 1_655 S
H1312 C1289 0.950 1_655 S
H1313 C1291 0.950 1_655 S
C1314 C1315 1.349 . S
C1314 C1316 1.327 . S
C1314 H1339 0.950 . S
C1315 C1314 1.349 . S
C1315 C1331 1.349 1_545 S
C1316 C1314 1.327 . S
C1316 C1335 1.429 . S
C1316 H1340 0.950 . S
C1317 C1334 1.574 . S
C1317 C1336 1.368 1_565 S
C1317 H1341 0.949 . S
H1318 C1322 0.949 . S
C1319 C1320 1.349 1_565 S
C1319 C1321 1.327 . S
C1319 H1342 0.950 . S
C1320 C1319 1.349 1_545 S
C1320 C1332 1.349 . S
C1321 C1319 1.327 . S
C1321 C1337 1.429 1_565 S
C1321 H1343 0.950 . S
C1322 H1318 0.949 . S
C1322 C1330 1.574 . S
C1322 C1338 1.368 . S
H1323 C1331 0.950 . S
H1324 C1329 0.950 . S
H1325 C1330 0.949 . S
H1326 C1332 0.950 . S
H1327 C1333 0.950 . S
H1328 C1334 0.949 . S
C1329 H1324 0.950 . S
C1329 C1331 1.327 . S
C1329 C1335 1.429 1_565 S
C1330 C1322 1.574 . S
C1330 H1325 0.949 . S
C1330 C1336 1.368 . S
C1331 C1315 1.349 1_565 S
C1331 H1323 0.950 . S
C1331 C1329 1.327 . S
C1332 C1320 1.349 . S
C1332 H1326 0.950 . S
C1332 C1333 1.327 . S
C1333 H1327 0.950 . S
C1333 C1332 1.327 . S
C1333 C1337 1.429 . S
C1334 C1317 1.574 . S
C1334 H1328 0.949 . S
C1334 C1338 1.368 1_565 S
C1335 C1316 1.429 . S
C1335 C1329 1.429 1_545 S
C1335 C1336 1.523 . S
C1336 C1317 1.368 1_545 S
C1336 C1330 1.368 . S
C1336 C1335 1.523 . S
C1337 C1321 1.429 1_545 S
C1337 C1333 1.429 . S
C1337 C1338 1.523 . S
C1338 C1322 1.368 . S
C1338 C1334 1.368 1_545 S
C1338 C1337 1.523 . S
H1339 C1314 0.950 . S
H1340 C1316 0.950 . S
H1341 C1317 0.949 . S
H1342 C1319 0.950 . S
H1343 C1321 0.950 . S
C1344 C1345 1.349 . S
C1344 C1346 1.327 . S
C1344 H1369 0.950 . S
C1345 C1344 1.349 . S
C1345 C1361 1.349 . S
C1346 C1344 1.327 . S
C1346 C1365 1.429 . S
C1346 H1370 0.950 . S
C1347 C1364 1.574 . S
C1347 C1366 1.368 . S
C1347 H1371 0.949 . S
H1348 C1352 0.949 . S
C1349 C1350 1.349 . S
C1349 C1351 1.327 . S
C1349 H1372 0.950 . S
C1350 C1349 1.349 . S
C1350 C1362 1.349 . S
C1351 C1349 1.327 . S
C1351 C1367 1.429 . S
C1351 H1373 0.950 . S
C1352 H1348 0.949 . S
C1352 C1360 1.574 . S
C1352 C1368 1.368 . S
H1353 C1361 0.950 . S
H1354 C1359 0.950 . S
H1355 C1360 0.949 . S
H1356 C1362 0.950 . S
H1357 C1363 0.950 . S
H1358 C1364 0.949 . S
C1359 H1354 0.950 . S
C1359 C1361 1.327 . S
C1359 C1365 1.429 . S
C1360 C1352 1.574 . S
C1360 H1355 0.949 . S
C1360 C1366 1.368 . S
C1361 C1345 1.349 . S
C1361 H1353 0.950 . S
C1361 C1359 1.327 . S
C1362 C1350 1.349 . S
C1362 H1356 0.950 . S
C1362 C1363 1.327 . S
C1363 H1357 0.950 . S
C1363 C1362 1.327 . S
C1363 C1367 1.429 . S
C1364 C1347 1.574 . S
C1364 H1358 0.949 . S
C1364 C1368 1.368 . S
C1365 C1346 1.429 . S
C1365 C1359 1.429 . S
C1365 C1366 1.523 . S
C1366 C1347 1.368 . S
C1366 C1360 1.368 . S
C1366 C1365 1.523 . S
C1367 C1351 1.429 . S
C1367 C1363 1.429 . S
C1367 C1368 1.523 . S
C1368 C1352 1.368 . S
C1368 C1364 1.368 . S
C1368 C1367 1.523 . S
H1369 C1344 0.950 . S
H1370 C1346 0.950 . S
H1371 C1347 0.949 . S
H1372 C1349 0.950 . S
H1373 C1351 0.950 . S
C1374 C1375 1.349 . S
C1374 C1376 1.327 . S
C1374 H1399 0.950 . S
C1375 C1374 1.349 . S
C1375 C1391 1.349 . S
C1376 C1374 1.327 . S
C1376 C1395 1.429 . S
C1376 H1400 0.950 . S
C1377 C1394 1.574 . S
C1377 C1396 1.368 . S
C1377 H1401 0.949 . S
H1378 C1382 0.949 . S
C1379 C1380 1.349 . S
C1379 C1381 1.327 . S
C1379 H1402 0.950 . S
C1380 C1379 1.349 . S
C1380 C1392 1.349 . S
C1381 C1379 1.327 . S
C1381 C1397 1.429 . S
C1381 H1403 0.950 . S
C1382 H1378 0.949 . S
C1382 C1390 1.574 . S
C1382 C1398 1.368 . S
H1383 C1391 0.950 . S
H1384 C1389 0.950 . S
H1385 C1390 0.949 . S
H1386 C1392 0.950 1_565 S
H1387 C1393 0.967 . S
H1388 C1394 0.949 . S
C1389 H1384 0.950 . S
C1389 C1391 1.327 . S
C1389 C1395 1.429 . S
C1390 C1382 1.574 . S
C1390 H1385 0.949 . S
C1390 C1396 1.368 . S
C1391 C1375 1.349 . S
C1391 H1383 0.950 . S
C1391 C1389 1.327 . S
C1392 C1380 1.349 . S
C1392 H1386 0.950 1_545 S
C1392 C1393 1.327 . S
C1393 H1387 0.967 . S
C1393 C1392 1.327 . S
C1393 C1397 1.429 . S
C1394 C1377 1.574 . S
C1394 H1388 0.949 . S
C1394 C1398 1.368 . S
C1395 C1376 1.429 . S
C1395 C1389 1.429 . S
C1395 C1396 1.523 . S
C1396 C1377 1.368 . S
C1396 C1390 1.368 . S
C1396 C1395 1.523 . S
C1397 C1381 1.429 . S
C1397 C1393 1.429 . S
C1397 C1398 1.523 . S
C1398 C1382 1.368 . S
C1398 C1394 1.368 . S
C1398 C1397 1.523 . S
H1399 C1374 0.950 . S
H1400 C1376 0.950 . S
H1401 C1377 0.949 . S
H1402 C1379 0.950 . S
H1403 C1381 0.950 . S
C1404 C1405 1.349 . S
C1404 C1406 1.327 . S
C1404 H1429 0.950 . S
C1405 C1404 1.349 . S
C1405 C1421 1.349 . S
C1406 C1404 1.327 . S
C1406 C1425 1.429 . S
C1406 H1430 0.950 . S
C1407 C1424 1.574 . S
C1407 C1426 1.368 . S
C1407 H1431 0.949 1_455 S
H1408 C1412 0.949 . S
C1409 C1410 1.349 . S
C1409 C1411 1.327 . S
C1409 H1432 0.950 1_455 S
C1410 C1409 1.349 . S
C1410 C1422 1.349 . S
C1411 C1409 1.327 . S
C1411 C1427 1.429 . S
C1411 H1433 0.950 1_455 S
C1412 H1408 0.949 . S
C1412 C1420 1.574 . S
C1412 C1428 1.368 . S
H1413 C1421 0.950 1_655 S
H1414 C1419 0.950 1_655 S
H1415 C1420 0.949 . S
H1416 C1422 0.950 . S
H1417 C1423 0.950 . S
H1418 C1424 0.949 1_655 S
C1419 H1414 0.950 1_455 S
C1419 C1421 1.327 . S
C1419 C1425 1.429 . S
C1420 C1412 1.574 . S
C1420 H1415 0.949 . S
C1420 C1426 1.368 . S
C1421 C1405 1.349 . S
C1421 H1413 0.950 1_455 S
C1421 C1419 1.327 . S
C1422 C1410 1.349 . S
C1422 H1416 0.950 . S
C1422 C1423 1.327 . S
C1423 H1417 0.950 . S
C1423 C1422 1.327 . S
C1423 C1427 1.429 . S
C1424 C1407 1.574 . S
C1424 H1418 0.949 1_455 S
C1424 C1428 1.368 . S
C1425 C1406 1.429 . S
C1425 C1419 1.429 . S
C1425 C1426 1.523 . S
C1426 C1407 1.368 . S
C1426 C1420 1.368 . S
C1426 C1425 1.523 . S
C1427 C1411 1.429 . S
C1427 C1423 1.429 . S
C1427 C1428 1.523 . S
C1428 C1412 1.368 . S
C1428 C1424 1.368 . S
C1428 C1427 1.523 . S
H1429 C1404 0.950 . S
H1430 C1406 0.950 . S
H1431 C1407 0.949 1_655 S
H1432 C1409 0.950 1_655 S
H1433 C1411 0.950 1_655 S
C1434 C1435 1.349 1_565 S
C1434 C1436 1.327 . S
C1434 H1459 0.950 . S
C1435 C1434 1.349 1_545 S
C1435 C1451 1.349 . S
C1436 C1434 1.327 . S
C1436 C1455 1.429 1_565 S
C1436 H1460 0.950 . S
C1437 C1454 1.574 . S
C1437 C1456 1.368 . S
C1437 H1461 0.949 . S
H1438 C1442 0.949 . S
C1439 C1440 1.349 . S
C1439 C1441 1.327 . S
C1439 H1462 0.950 . S
C1440 C1439 1.349 . S
C1440 C1452 1.349 1_545 S
C1441 C1439 1.327 . S
C1441 C1457 1.429 . S
C1441 H1463 0.950 . S
C1442 H1438 0.949 . S
C1442 C1450 1.574 . S
C1442 C1458 1.368 1_565 S
H1443 C1451 0.950 . S
H1444 C1449 0.950 . S
H1445 C1450 0.949 . S
H1446 C1452 0.950 . S
H1447 C1453 0.950 . S
H1448 C1454 0.949 . S
C1449 H1444 0.950 . S
C1449 C1451 1.327 . S
C1449 C1455 1.429 . S
C1450 C1442 1.574 . S
C1450 H1445 0.949 . S
C1450 C1456 1.368 1_565 S
C1451 C1435 1.349 . S
C1451 H1443 0.950 . S
C1451 C1449 1.327 . S
C1452 C1440 1.349 1_565 S
C1452 H1446 0.950 . S
C1452 C1453 1.327 . S
C1453 H1447 0.950 . S
C1453 C1452 1.327 . S
C1453 C1457 1.429 1_565 S
C1454 C1437 1.574 . S
C1454 H1448 0.949 . S
C1454 C1458 1.368 . S
C1455 C1436 1.429 1_545 S
C1455 C1449 1.429 . S
C1455 C1456 1.523 . S
C1456 C1437 1.368 . S
C1456 C1450 1.368 1_545 S
C1456 C1455 1.523 . S
C1457 C1441 1.429 . S
C1457 C1453 1.429 1_545 S
C1457 C1458 1.523 . S
C1458 C1442 1.368 1_545 S
C1458 C1454 1.368 . S
C1458 C1457 1.523 . S
H1459 C1434 0.950 . S
H1460 C1436 0.950 . S
H1461 C1437 0.949 . S
H1462 C1439 0.950 . S
H1463 C1441 0.950 . S
C1464 C1465 1.316 1_455 S
C1464 C1466 1.327 . S
C1464 H1489 0.950 . S
C1465 C1464 1.316 1_655 S
C1465 C1481 1.381 . S
C1466 C1464 1.327 . S
C1466 C1485 1.431 . S
C1466 H1490 0.950 . S
C1467 C1484 1.574 . S
C1467 C1486 1.340 1_655 S
C1467 H1491 0.949 . S
H1468 C1472 0.949 . S
C1469 C1470 1.349 1_655 S
C1469 C1471 1.327 . S
C1469 H1492 0.950 . S
C1470 C1469 1.349 1_455 S
C1470 C1482 1.349 . S
C1471 C1469 1.327 . S
C1471 C1487 1.429 1_655 S
C1471 H1493 0.950 . S
C1472 H1468 0.949 . S
C1472 C1480 1.574 . S
C1472 C1488 1.368 . S
H1473 C1481 0.950 . S
H1474 C1479 0.950 . S
H1475 C1480 0.949 . S
H1476 C1482 0.950 . S
H1477 C1483 0.950 . S
H1478 C1484 0.949 . S
C1479 H1474 0.950 . S
C1479 C1481 1.327 . S
C1479 C1485 1.426 1_655 S
C1480 C1472 1.574 . S
C1480 H1475 0.949 . S
C1480 C1486 1.398 . S
C1481 C1465 1.381 . S
C1481 H1473 0.950 . S
C1481 C1479 1.327 . S
C1482 C1470 1.349 . S
C1482 H1476 0.950 . S
C1482 C1483 1.327 . S
C1483 H1477 0.950 . S
C1483 C1482 1.327 . S
C1483 C1487 1.429 . S
C1484 C1467 1.574 . S
C1484 H1478 0.949 . S
C1484 C1488 1.368 1_655 S
C1485 C1466 1.431 . S
C1485 C1479 1.426 1_455 S
C1485 C1486 1.522 . S
C1486 C1467 1.340 1_455 S
C1486 C1480 1.398 . S
C1486 C1485 1.522 . S
C1487 C1471 1.429 1_455 S
C1487 C1483 1.429 . S
C1487 C1488 1.523 . S
C1488 C1472 1.368 . S
C1488 C1484 1.368 1_455 S
C1488 C1487 1.523 . S
H1489 C1464 0.950 . S
H1490 C1466 0.950 . S
H1491 C1467 0.949 . S
H1492 C1469 0.950 . S
H1493 C1471 0.950 . S
C1494 C1495 1.349 . S
C1494 C1496 1.327 . S
C1494 H1519 0.950 . S
C1495 C1494 1.349 . S
C1495 C1511 1.349 1_545 S
C1496 C1494 1.327 . S
C1496 C1515 1.429 . S
C1496 H1520 0.950 . S
C1497 C1514 1.576 . S
C1497 C1516 1.368 1_565 S
C1497 H1521 0.949 . S
H1498 C1502 0.949 . S
C1499 C1500 1.349 . S
C1499 C1501 1.327 . S
C1499 H1522 0.950 1_545 S
C1500 C1499 1.349 . S
C1500 C1512 1.349 . S
C1501 C1499 1.327 . S
C1501 C1517 1.429 . S
C1501 H1523 0.950 1_545 S
C1502 H1498 0.949 . S
C1502 C1510 1.574 . S
C1502 C1518 1.368 . S
H1503 C1511 0.950 . S
H1504 C1509 0.950 . S
H1505 C1510 0.949 . S
H1506 C1512 0.950 . S
H1507 C1513 0.950 . S
H1508 C1514 0.962 . S
C1509 H1504 0.950 . S
C1509 C1511 1.327 . S
C1509 C1515 1.429 1_565 S
C1510 C1502 1.574 . S
C1510 H1505 0.949 . S
C1510 C1516 1.368 . S
C1511 C1495 1.349 1_565 S
C1511 H1503 0.950 . S
C1511 C1509 1.327 . S
C1512 C1500 1.349 . S
C1512 H1506 0.950 . S
C1512 C1513 1.327 . S
C1513 H1507 0.950 . S
C1513 C1512 1.327 . S
C1513 C1517 1.429 . S
C1514 C1497 1.576 . S
C1514 H1508 0.962 . S
C1514 C1518 1.353 1_565 S
C1515 C1496 1.429 . S
C1515 C1509 1.429 1_545 S
C1515 C1516 1.523 . S
C1516 C1497 1.368 1_545 S
C1516 C1510 1.368 . S
C1516 C1515 1.523 . S
C1517 C1501 1.429 . S
C1517 C1513 1.429 . S
C1517 C1518 1.523 . S
C1518 C1502 1.368 . S
C1518 C1514 1.353 1_545 S
C1518 C1517 1.523 . S
H1519 C1494 0.950 . S
H1520 C1496 0.950 . S
H1521 C1497 0.949 . S
H1522 C1499 0.950 1_565 S
H1523 C1501 0.950 1_565 S
C1524 C1525 1.349 . S
C1524 C1526 1.327 . S
C1524 H1549 0.950 . S
C1525 C1524 1.349 . S
C1525 C1541 1.349 . S
C1526 C1524 1.327 . S
C1526 C1545 1.429 . S
C1526 H1550 0.950 . S
C1527 C1544 1.574 . S
C1527 C1546 1.368 . S
C1527 H1551 0.949 . S
H1528 C1532 0.949 1_655 S
C1529 C1530 1.349 . S
C1529 C1531 1.327 . S
C1529 H1552 0.950 . S
C1530 C1529 1.349 . S
C1530 C1542 1.370 . S
C1531 C1529 1.327 . S
C1531 C1547 1.429 . S
C1531 H1553 0.950 . S
C1532 H1528 0.949 1_455 S
C1532 C1540 1.574 . S
C1532 C1548 1.368 . S
H1533 C1541 0.950 . S
H1534 C1539 0.950 . S
H1535 C1540 0.943 1_655 S
H1536 C1542 0.928 1_655 S
H1537 C1543 0.950 1_655 S
H1538 C1544 0.949 . S
C1539 H1534 0.950 . S
C1539 C1541 1.327 . S
C1539 C1545 1.429 . S
C1540 C1532 1.574 . S
C1540 H1535 0.943 1_455 S
C1540 C1546 1.368 . S
C1541 C1525 1.349 . S
C1541 H1533 0.950 . S
C1541 C1539 1.327 . S
C1542 C1530 1.370 . S
C1542 H1536 0.928 1_455 S
C1542 C1543 1.331 . S
C1543 H1537 0.950 1_455 S
C1543 C1542 1.331 . S
C1543 C1547 1.429 . S
C1544 C1527 1.574 . S
C1544 H1538 0.949 . S
C1544 C1548 1.368 . S
C1545 C1526 1.429 . S
C1545 C1539 1.429 . S
C1545 C1546 1.523 . S
C1546 C1527 1.368 . S
C1546 C1540 1.368 . S
C1546 C1545 1.523 . S
C1547 C1531 1.429 . S
C1547 C1543 1.429 . S
C1547 C1548 1.523 . S
C1548 C1532 1.368 . S
C1548 C1544 1.368 . S
C1548 C1547 1.523 . S
H1549 C1524 0.950 . S
H1550 C1526 0.950 . S
H1551 C1527 0.949 . S
H1552 C1529 0.950 . S
H1553 C1531 0.950 . S
C1554 C1555 1.349 . S
C1554 C1556 1.327 . S
C1554 H1579 0.971 . S
C1555 C1554 1.349 . S
C1555 C1571 1.349 . S
C1556 C1554 1.327 . S
C1556 C1575 1.429 . S
C1556 H1580 0.950 1_545 S
C1557 C1574 1.574 . S
C1557 C1576 1.368 . S
C1557 H1581 0.949 . S
H1558 C1562 0.949 1_565 S
C1559 C1560 1.349 . S
C1559 C1561 1.327 . S
C1559 H1582 0.950 . S
C1560 C1559 1.349 . S
C1560 C1572 1.349 . S
C1561 C1559 1.327 . S
C1561 C1577 1.429 . S
C1561 H1583 0.950 . S
C1562 H1558 0.949 1_545 S
C1562 C1570 1.574 . S
C1562 C1578 1.368 . S
H1563 C1571 0.950 . S
H1564 C1569 0.950 . S
H1565 C1570 0.949 1_565 S
H1566 C1572 0.950 1_565 S
H1567 C1573 0.950 1_565 S
H1568 C1574 0.949 . S
C1569 H1564 0.950 . S
C1569 C1571 1.327 . S
C1569 C1575 1.429 . S
C1570 C1562 1.574 . S
C1570 H1565 0.949 1_545 S
C1570 C1576 1.368 . S
C1571 C1555 1.349 . S
C1571 H1563 0.950 . S
C1571 C1569 1.327 . S
C1572 C1560 1.349 . S
C1572 H1566 0.950 1_545 S
C1572 C1573 1.327 . S
C1573 H1567 0.950 1_545 S
C1573 C1572 1.327 . S
C1573 C1577 1.429 . S
C1574 C1557 1.574 . S
C1574 H1568 0.949 . S
C1574 C1578 1.368 . S
C1575 C1556 1.429 . S
C1575 C1569 1.429 . S
C1575 C1576 1.523 . S
C1576 C1557 1.368 . S
C1576 C1570 1.368 . S
C1576 C1575 1.523 . S
C1577 C1561 1.429 . S
C1577 C1573 1.429 . S
C1577 C1578 1.523 . S
C1578 C1562 1.368 . S
C1578 C1574 1.368 . S
C1578 C1577 1.523 . S
H1579 C1554 0.971 . S
H1580 C1556 0.950 1_565 S
H1581 C1557 0.949 . S
H1582 C1559 0.950 . S
H1583 C1561 0.950 . S
C1584 C1585 1.349 . S
C1584 C1586 1.327 . S
C1584 H1609 0.950 . S
C1585 C1584 1.349 . S
C1585 C1601 1.349 1_545 S
C1586 C1584 1.327 . S
C1586 C1605 1.429 . S
C1586 H1610 0.950 . S
C1587 C1604 1.574 . S
C1587 C1606 1.368 1_565 S
C1587 H1611 0.949 . S
H1588 C1592 0.949 . S
C1589 C1590 1.349 1_565 S
C1589 C1591 1.327 . S
C1589 H1612 0.950 . S
C1590 C1589 1.349 1_545 S
C1590 C1602 1.349 . S
C1591 C1589 1.327 . S
C1591 C1607 1.429 1_565 S
C1591 H1613 0.950 . S
C1592 H1588 0.949 . S
C1592 C1600 1.574 . S
C1592 C1608 1.368 . S
H1593 C1601 0.950 . S
H1594 C1599 0.950 . S
H1595 C1600 0.949 . S
H1596 C1602 0.950 . S
H1597 C1603 0.950 . S
H1598 C1604 0.949 . S
C1599 H1594 0.950 . S
C1599 C1601 1.327 . S
C1599 C1605 1.429 1_565 S
C1600 C1592 1.574 . S
C1600 H1595 0.949 . S
C1600 C1606 1.368 . S
C1601 C1585 1.349 1_565 S
C1601 H1593 0.950 . S
C1601 C1599 1.327 . S
C1602 C1590 1.349 . S
C1602 H1596 0.950 . S
C1602 C1603 1.327 . S
C1603 H1597 0.950 . S
C1603 C1602 1.327 . S
C1603 C1607 1.429 . S
C1604 C1587 1.574 . S
C1604 H1598 0.949 . S
C1604 C1608 1.368 1_565 S
C1605 C1586 1.429 . S
C1605 C1599 1.429 1_545 S
C1605 C1606 1.523 . S
C1606 C1587 1.368 1_545 S
C1606 C1600 1.368 . S
C1606 C1605 1.523 . S
C1607 C1591 1.429 1_545 S
C1607 C1603 1.429 . S
C1607 C1608 1.523 . S
C1608 C1592 1.368 . S
C1608 C1604 1.368 1_545 S
C1608 C1607 1.523 . S
H1609 C1584 0.950 . S
H1610 C1586 0.950 . S
H1611 C1587 0.949 . S
H1612 C1589 0.950 . S
H1613 C1591 0.950 . S
C1614 C1615 1.349 . S
C1614 C1616 1.327 . S
C1614 H1639 0.950 . S
C1615 C1614 1.349 . S
C1615 C1631 1.349 . S
C1616 C1614 1.327 . S
C1616 C1635 1.429 . S
C1616 H1640 0.950 . S
C1617 C1634 1.574 . S
C1617 C1636 1.368 . S
C1617 H1641 0.949 . S
H1618 C1622 0.949 . S
C1619 C1620 1.349 . S
C1619 C1621 1.327 . S
C1619 H1642 0.950 . S
C1620 C1619 1.349 . S
C1620 C1632 1.349 . S
C1621 C1619 1.327 . S
C1621 C1637 1.429 . S
C1621 H1643 0.950 . S
C1622 H1618 0.949 . S
C1622 C1630 1.574 . S
C1622 C1638 1.368 . S
H1623 C1631 0.950 . S
H1624 C1629 0.950 . S
H1625 C1630 0.949 . S
H1626 C1632 0.950 . S
H1627 C1633 0.950 . S
H1628 C1634 0.949 . S
C1629 H1624 0.950 . S
C1629 C1631 1.327 . S
C1629 C1635 1.429 . S
C1630 C1622 1.574 . S
C1630 H1625 0.949 . S
C1630 C1636 1.368 . S
C1631 C1615 1.349 . S
C1631 H1623 0.950 . S
C1631 C1629 1.327 . S
C1632 C1620 1.349 . S
C1632 H1626 0.950 . S
C1632 C1633 1.327 . S
C1633 H1627 0.950 . S
C1633 C1632 1.327 . S
C1633 C1637 1.429 . S
C1634 C1617 1.574 . S
C1634 H1628 0.949 . S
C1634 C1638 1.368 . S
C1635 C1616 1.429 . S
C1635 C1629 1.429 . S
C1635 C1636 1.523 . S
C1636 C1617 1.368 . S
C1636 C1630 1.368 . S
C1636 C1635 1.523 . S
C1637 C1621 1.429 . S
C1637 C1633 1.429 . S
C1637 C1638 1.523 . S
C1638 C1622 1.368 . S
C1638 C1634 1.368 . S
C1638 C1637 1.523 . S
H1639 C1614 0.950 . S
H1640 C1616 0.950 . S
H1641 C1617 0.949 . S
H1642 C1619 0.950 . S
H1643 C1621 0.950 . S
C1644 C1645 1.349 . S
C1644 C1646 1.327 . S
C1644 H1669 0.950 . S
C1645 C1644 1.349 . S
C1645 C1661 1.349 . S
C1646 C1644 1.327 . S
C1646 C1665 1.429 . S
C1646 H1670 0.950 . S
C1647 C1664 1.574 . S
C1647 C1666 1.368 . S
C1647 H1671 0.949 . S
H1648 C1652 0.949 . S
C1649 C1650 1.349 . S
C1649 C1651 1.327 . S
C1649 H1672 0.950 . S
C1650 C1649 1.349 . S
C1650 C1662 1.349 . S
C1651 C1649 1.327 . S
C1651 C1667 1.429 . S
C1651 H1673 0.950 . S
C1652 H1648 0.949 . S
C1652 C1660 1.574 . S
C1652 C1668 1.368 . S
H1653 C1661 0.950 . S
H1654 C1659 0.950 . S
H1655 C1660 0.949 . S
H1656 C1662 0.950 . S
H1657 C1663 0.950 . S
H1658 C1664 0.949 . S
C1659 H1654 0.950 . S
C1659 C1661 1.327 . S
C1659 C1665 1.429 . S
C1660 C1652 1.574 . S
C1660 H1655 0.949 . S
C1660 C1666 1.368 . S
C1661 C1645 1.349 . S
C1661 H1653 0.950 . S
C1661 C1659 1.327 . S
C1662 C1650 1.349 . S
C1662 H1656 0.950 . S
C1662 C1663 1.327 . S
C1663 H1657 0.950 . S
C1663 C1662 1.327 . S
C1663 C1667 1.429 . S
C1664 C1647 1.574 . S
C1664 H1658 0.949 . S
C1664 C1668 1.368 . S
C1665 C1646 1.429 . S
C1665 C1659 1.429 . S
C1665 C1666 1.523 . S
C1666 C1647 1.368 . S
C1666 C1660 1.368 . S
C1666 C1665 1.523 . S
C1667 C1651 1.429 . S
C1667 C1663 1.429 . S
C1667 C1668 1.523 . S
C1668 C1652 1.368 . S
C1668 C1664 1.368 . S
C1668 C1667 1.523 . S
H1669 C1644 0.950 . S
H1670 C1646 0.950 . S
H1671 C1647 0.949 . S
H1672 C1649 0.950 . S
H1673 C1651 0.950 . S
C1674 C1675 1.349 . S
C1674 C1676 1.327 . S
C1674 H1699 0.950 . S
C1675 C1674 1.349 . S
C1675 C1691 1.349 . S
C1676 C1674 1.327 . S
C1676 C1695 1.429 . S
C1676 H1700 0.950 . S
C1677 C1694 1.574 . S
C1677 C1696 1.368 . S
C1677 H1701 0.949 . S
H1678 C1682 0.949 . S
C1679 C1680 1.349 . S
C1679 C1681 1.327 . S
C1679 H1702 0.950 . S
C1680 C1679 1.349 . S
C1680 C1692 1.349 . S
C1681 C1679 1.327 . S
C1681 C1697 1.429 . S
C1681 H1703 0.950 . S
C1682 H1678 0.949 . S
C1682 C1690 1.574 . S
C1682 C1698 1.368 . S
H1683 C1691 0.950 . S
H1684 C1689 0.950 . S
H1685 C1690 0.949 . S
H1686 C1692 0.950 . S
H1687 C1693 0.950 . S
H1688 C1694 0.949 . S
C1689 H1684 0.950 . S
C1689 C1691 1.327 . S
C1689 C1695 1.429 . S
C1690 C1682 1.574 . S
C1690 H1685 0.949 . S
C1690 C1696 1.368 . S
C1691 C1675 1.349 . S
C1691 H1683 0.950 . S
C1691 C1689 1.327 . S
C1692 C1680 1.349 . S
C1692 H1686 0.950 . S
C1692 C1693 1.327 . S
C1693 H1687 0.950 . S
C1693 C1692 1.327 . S
C1693 C1697 1.429 . S
C1694 C1677 1.574 . S
C1694 H1688 0.949 . S
C1694 C1698 1.368 . S
C1695 C1676 1.429 . S
C1695 C1689 1.429 . S
C1695 C1696 1.523 . S
C1696 C1677 1.368 . S
C1696 C1690 1.368 . S
C1696 C1695 1.523 . S
C1697 C1681 1.429 . S
C1697 C1693 1.429 . S
C1697 C1698 1.523 . S
C1698 C1682 1.368 . S
C1698 C1694 1.368 . S
C1698 C1697 1.523 . S
H1699 C1674 0.950 . S
H1700 C1676 0.950 . S
H1701 C1677 0.949 . S
H1702 C1679 0.950 . S
H1703 C1681 0.950 . S
C1704 C1705 1.349 1_565 S
C1704 C1706 1.327 . S
C1704 H1729 0.950 . S
C1705 C1704 1.349 1_545 S
C1705 C1721 1.349 . S
C1706 C1704 1.327 . S
C1706 C1725 1.429 1_565 S
C1706 H1730 0.950 . S
C1707 C1724 1.574 . S
C1707 C1726 1.368 . S
C1707 H1731 0.949 . S
H1708 C1712 0.949 . S
C1709 C1710 1.349 . S
C1709 C1711 1.327 . S
C1709 H1732 0.950 . S
C1710 C1709 1.349 . S
C1710 C1722 1.349 1_545 S
C1711 C1709 1.327 . S
C1711 C1727 1.429 . S
C1711 H1733 0.950 . S
C1712 H1708 0.949 . S
C1712 C1720 1.574 . S
C1712 C1728 1.368 1_565 S
H1713 C1721 0.950 . S
H1714 C1719 0.950 . S
H1715 C1720 0.949 . S
H1716 C1722 0.950 . S
H1717 C1723 0.950 . S
H1718 C1724 0.949 . S
C1719 H1714 0.950 . S
C1719 C1721 1.327 . S
C1719 C1725 1.429 . S
C1720 C1712 1.574 . S
C1720 H1715 0.949 . S
C1720 C1726 1.368 1_565 S
C1721 C1705 1.349 . S
C1721 H1713 0.950 . S
C1721 C1719 1.327 . S
C1722 C1710 1.349 1_565 S
C1722 H1716 0.950 . S
C1722 C1723 1.327 . S
C1723 H1717 0.950 . S
C1723 C1722 1.327 . S
C1723 C1727 1.429 1_565 S
C1724 C1707 1.574 . S
C1724 H1718 0.949 . S
C1724 C1728 1.368 . S
C1725 C1706 1.429 1_545 S
C1725 C1719 1.429 . S
C1725 C1726 1.523 . S
C1726 C1707 1.368 . S
C1726 C1720 1.368 1_545 S
C1726 C1725 1.523 . S
C1727 C1711 1.429 . S
C1727 C1723 1.429 1_545 S
C1727 C1728 1.523 . S
C1728 C1712 1.368 1_545 S
C1728 C1724 1.368 . S
C1728 C1727 1.523 . S
H1729 C1704 0.950 . S
H1730 C1706 0.950 . S
H1731 C1707 0.949 . S
H1732 C1709 0.950 . S
H1733 C1711 0.950 . S
C1734 C1735 1.349 . S
C1734 C1736 1.327 . S
C1734 H1759 0.950 . S
C1735 C1734 1.349 . S
C1735 C1751 1.349 . S
C1736 C1734 1.327 . S
C1736 C1755 1.429 . S
C1736 H1760 0.950 . S
C1737 C1754 1.574 . S
C1737 C1756 1.368 . S
C1737 H1761 0.949 . S
H1738 C1742 0.949 . S
C1739 C1740 1.349 . S
C1739 C1741 1.327 . S
C1739 H1762 0.950 . S
C1740 C1739 1.349 . S
C1740 C1752 1.349 . S
C1741 C1739 1.327 . S
C1741 C1757 1.429 . S
C1741 H1763 0.950 . S
C1742 H1738 0.949 . S
C1742 C1750 1.574 . S
C1742 C1758 1.368 . S
H1743 C1751 0.979 . S
H1744 C1749 0.950 . S
H1745 C1750 0.949 . S
H1746 C1752 0.950 . S
H1747 C1753 0.950 . S
H1748 C1754 0.949 . S
C1749 H1744 0.950 . S
C1749 C1751 1.327 . S
C1749 C1755 1.429 . S
C1750 C1742 1.574 . S
C1750 H1745 0.949 . S
C1750 C1756 1.368 . S
C1751 C1735 1.349 . S
C1751 H1743 0.979 . S
C1751 C1749 1.327 . S
C1752 C1740 1.349 . S
C1752 H1746 0.950 . S
C1752 C1753 1.327 . S
C1753 H1747 0.950 . S
C1753 C1752 1.327 . S
C1753 C1757 1.429 . S
C1754 C1737 1.574 . S
C1754 H1748 0.949 . S
C1754 C1758 1.368 . S
C1755 C1736 1.429 . S
C1755 C1749 1.429 . S
C1755 C1756 1.523 . S
C1756 C1737 1.368 . S
C1756 C1750 1.368 . S
C1756 C1755 1.523 . S
C1757 C1741 1.429 . S
C1757 C1753 1.429 . S
C1757 C1758 1.523 . S
C1758 C1742 1.368 . S
C1758 C1754 1.368 . S
C1758 C1757 1.523 . S
H1759 C1734 0.950 . S
H1760 C1736 0.950 . S
H1761 C1737 0.949 . S
H1762 C1739 0.950 . S
H1763 C1741 0.950 . S
C1764 C1765 1.349 . S
C1764 C1766 1.327 . S
C1764 H1789 0.950 . S
C1765 C1764 1.349 . S
C1765 C1781 1.349 . S
C1766 C1764 1.327 . S
C1766 C1785 1.429 . S
C1766 H1790 0.950 . S
C1767 C1784 1.574 . S
C1767 C1786 1.368 . S
C1767 H1791 0.949 . S
H1768 C1772 0.949 . S
C1769 C1770 1.349 . S
C1769 C1771 1.327 . S
C1769 H1792 0.950 . S
C1770 C1769 1.349 . S
C1770 C1782 1.349 . S
C1771 C1769 1.327 . S
C1771 C1787 1.429 . S
C1771 H1793 0.950 . S
C1772 H1768 0.949 . S
C1772 C1780 1.574 . S
C1772 C1788 1.368 . S
H1773 C1781 0.950 . S
H1774 C1779 0.950 . S
H1775 C1780 0.949 . S
H1776 C1782 0.919 1_565 S
H1777 C1783 0.946 . S
H1778 C1784 0.949 . S
C1779 H1774 0.950 . S
C1779 C1781 1.327 . S
C1779 C1785 1.429 . S
C1780 C1772 1.574 . S
C1780 H1775 0.949 . S
C1780 C1786 1.368 . S
C1781 C1765 1.349 . S
C1781 H1773 0.950 . S
C1781 C1779 1.327 . S
C1782 C1770 1.349 . S
C1782 H1776 0.919 1_545 S
C1782 C1783 1.327 . S
C1783 H1777 0.946 . S
C1783 C1782 1.327 . S
C1783 C1787 1.429 . S
C1784 C1767 1.574 . S
C1784 H1778 0.949 . S
C1784 C1788 1.368 . S
C1785 C1766 1.429 . S
C1785 C1779 1.429 . S
C1785 C1786 1.523 . S
C1786 C1767 1.368 . S
C1786 C1780 1.368 . S
C1786 C1785 1.523 . S
C1787 C1771 1.429 . S
C1787 C1783 1.429 . S
C1787 C1788 1.523 . S
C1788 C1772 1.368 . S
C1788 C1784 1.368 . S
C1788 C1787 1.523 . S
H1789 C1764 0.950 . S
H1790 C1766 0.950 . S
H1791 C1767 0.949 . S
H1792 C1769 0.950 . S
H1793 C1771 0.950 . S
C1794 C1795 1.349 . S
C1794 C1796 1.327 . S
C1794 H1819 0.950 . S
C1795 C1794 1.349 . S
C1795 C1811 1.349 1_455 S
C1796 C1794 1.327 . S
C1796 C1815 1.429 . S
C1796 H1820 0.950 . S
C1797 C1814 1.574 . S
C1797 C1816 1.368 . S
C1797 H1821 0.949 1_455 S
H1798 C1802 0.949 . S
C1799 C1800 1.349 . S
C1799 C1801 1.327 . S
C1799 H1822 0.950 . S
C1800 C1799 1.349 . S
C1800 C1812 1.349 . S
C1801 C1799 1.327 . S
C1801 C1817 1.429 . S
C1801 H1823 0.950 . S
C1802 H1798 0.949 . S
C1802 C1810 1.574 . S
C1802 C1818 1.368 . S
H1803 C1811 0.950 . S
H1804 C1809 0.950 . S
H1805 C1810 0.949 . S
H1806 C1812 0.950 . S
H1807 C1813 0.950 . S
H1808 C1814 0.949 1_655 S
C1809 H1804 0.950 . S
C1809 C1811 1.327 . S
C1809 C1815 1.429 1_655 S
C1810 C1802 1.574 . S
C1810 H1805 0.949 . S
C1810 C1816 1.368 . S
C1811 C1795 1.349 1_655 S
C1811 H1803 0.950 . S
C1811 C1809 1.327 . S
C1812 C1800 1.349 . S
C1812 H1806 0.950 . S
C1812 C1813 1.327 . S
C1813 H1807 0.950 . S
C1813 C1812 1.327 . S
C1813 C1817 1.429 . S
C1814 C1797 1.574 . S
C1814 H1808 0.949 1_455 S
C1814 C1818 1.368 . S
C1815 C1796 1.429 . S
C1815 C1809 1.429 1_455 S
C1815 C1816 1.523 . S
C1816 C1797 1.368 . S
C1816 C1810 1.368 . S
C1816 C1815 1.523 . S
C1817 C1801 1.429 . S
C1817 C1813 1.429 . S
C1817 C1818 1.523 . S
C1818 C1802 1.368 . S
C1818 C1814 1.368 . S
C1818 C1817 1.523 . S
H1819 C1794 0.950 . S
H1820 C1796 0.950 . S
H1821 C1797 0.949 1_655 S
H1822 C1799 0.950 . S
H1823 C1801 0.950 . S
C1824 C1825 1.349 . S
C1824 C1826 1.327 . S
C1824 H1849 0.950 . S
C1825 C1824 1.349 . S
C1825 C1841 1.381 . S
C1826 C1824 1.327 . S
C1826 C1845 1.429 . S
C1826 H1850 0.950 . S
C1827 C1844 1.575 . S
C1827 C1846 1.336 1_556 S
C1827 H1851 0.979 . S
H1828 C1832 0.949 . S
C1829 C1830 1.342 1_556 S
C1829 C1831 1.327 . S
C1829 H1852 0.957 . S
C1830 C1829 1.342 1_554 S
C1830 C1842 1.349 . S
C1831 C1829 1.327 . S
C1831 C1847 1.412 1_556 S
C1831 H1853 0.967 . S
C1832 H1828 0.949 . S
C1832 C1840 1.574 . S
C1832 C1848 1.368 . S
H1833 C1841 0.919 1_556 S
H1834 C1839 0.941 1_556 S
H1835 C1840 0.949 . S
H1836 C1842 0.950 . S
H1837 C1843 0.950 . S
H1838 C1844 0.949 . S
C1839 H1834 0.941 1_554 S
C1839 C1841 1.327 . S
C1839 C1845 1.437 . S
C1840 C1832 1.574 . S
C1840 H1835 0.949 . S
C1840 C1846 1.368 . S
C1841 C1825 1.381 . S
C1841 H1833 0.919 1_554 S
C1841 C1839 1.327 . S
C1842 C1830 1.349 . S
C1842 H1836 0.950 . S
C1842 C1843 1.327 . S
C1843 H1837 0.950 . S
C1843 C1842 1.327 . S
C1843 C1847 1.429 . S
C1844 C1827 1.575 . S
C1844 H1838 0.949 . S
C1844 C1848 1.368 1_556 S
C1845 C1826 1.429 . S
C1845 C1839 1.437 . S
C1845 C1846 1.523 . S
C1846 C1827 1.336 1_554 S
C1846 C1840 1.368 . S
C1846 C1845 1.523 . S
C1847 C1831 1.412 1_554 S
C1847 C1843 1.429 . S
C1847 C1848 1.523 . S
C1848 C1832 1.368 . S
C1848 C1844 1.368 1_554 S
C1848 C1847 1.523 . S
H1849 C1824 0.950 . S
H1850 C1826 0.950 . S
H1851 C1827 0.979 . S
H1852 C1829 0.957 . S
H1853 C1831 0.967 . S
C1854 C1855 1.349 1_556 S
C1854 C1856 1.327 . S
C1854 H1879 0.950 . S
C1855 C1854 1.349 1_554 S
C1855 C1871 1.349 . S
C1856 C1854 1.327 . S
C1856 C1875 1.429 1_556 S
C1856 H1880 0.950 . S
C1857 C1874 1.574 . S
C1857 C1876 1.368 . S
C1857 H1881 0.949 . S
H1858 C1862 0.949 . S
C1859 C1860 1.349 . S
C1859 C1861 1.327 . S
C1859 H1882 0.950 . S
C1860 C1859 1.349 . S
C1860 C1872 1.349 1_554 S
C1861 C1859 1.327 . S
C1861 C1877 1.429 . S
C1861 H1883 0.950 . S
C1862 H1858 0.949 . S
C1862 C1870 1.574 . S
C1862 C1878 1.368 1_556 S
H1863 C1871 0.950 . S
H1864 C1869 0.950 . S
H1865 C1870 0.949 . S
H1866 C1872 0.950 . S
H1867 C1873 0.950 . S
H1868 C1874 0.949 . S
C1869 H1864 0.950 . S
C1869 C1871 1.327 . S
C1869 C1875 1.429 . S
C1870 C1862 1.574 . S
C1870 H1865 0.949 . S
C1870 C1876 1.368 1_556 S
C1871 C1855 1.349 . S
C1871 H1863 0.950 . S
C1871 C1869 1.327 . S
C1872 C1860 1.349 1_556 S
C1872 H1866 0.950 . S
C1872 C1873 1.327 . S
C1873 H1867 0.950 . S
C1873 C1872 1.327 . S
C1873 C1877 1.429 1_556 S
C1874 C1857 1.574 . S
C1874 H1868 0.949 . S
C1874 C1878 1.368 . S
C1875 C1856 1.429 1_554 S
C1875 C1869 1.429 . S
C1875 C1876 1.523 . S
C1876 C1857 1.368 . S
C1876 C1870 1.368 1_554 S
C1876 C1875 1.523 . S
C1877 C1861 1.429 . S
C1877 C1873 1.429 1_554 S
C1877 C1878 1.523 . S
C1878 C1862 1.368 1_554 S
C1878 C1874 1.368 . S
C1878 C1877 1.523 . S
H1879 C1854 0.950 . S
H1880 C1856 0.950 . S
H1881 C1857 0.949 . S
H1882 C1859 0.950 . S
H1883 C1861 0.950 . S
C1884 C1885 1.349 . S
C1884 C1886 1.327 . S
C1884 H1909 0.950 . S
C1885 C1884 1.349 . S
C1885 C1901 1.349 1_554 S
C1886 C1884 1.327 . S
C1886 C1905 1.429 . S
C1886 H1910 0.950 . S
C1887 C1904 1.574 . S
C1887 C1906 1.368 1_556 S
C1887 H1911 0.949 . S
H1888 C1892 0.949 . S
C1889 C1890 1.349 1_556 S
C1889 C1891 1.327 . S
C1889 H1912 0.950 . S
C1890 C1889 1.349 1_554 S
C1890 C1902 1.349 . S
C1891 C1889 1.327 . S
C1891 C1907 1.429 1_556 S
C1891 H1913 0.950 . S
C1892 H1888 0.949 . S
C1892 C1900 1.574 . S
C1892 C1908 1.368 . S
H1893 C1901 0.950 . S
H1894 C1899 0.950 . S
H1895 C1900 0.949 . S
H1896 C1902 0.950 . S
H1897 C1903 0.950 . S
H1898 C1904 0.949 . S
C1899 H1894 0.950 . S
C1899 C1901 1.327 . S
C1899 C1905 1.429 1_556 S
C1900 C1892 1.574 . S
C1900 H1895 0.949 . S
C1900 C1906 1.368 . S
C1901 C1885 1.349 1_556 S
C1901 H1893 0.950 . S
C1901 C1899 1.327 . S
C1902 C1890 1.349 . S
C1902 H1896 0.950 . S
C1902 C1903 1.327 . S
C1903 H1897 0.950 . S
C1903 C1902 1.327 . S
C1903 C1907 1.429 . S
C1904 C1887 1.574 . S
C1904 H1898 0.949 . S
C1904 C1908 1.368 1_556 S
C1905 C1886 1.429 . S
C1905 C1899 1.429 1_554 S
C1905 C1906 1.523 . S
C1906 C1887 1.368 1_554 S
C1906 C1900 1.368 . S
C1906 C1905 1.523 . S
C1907 C1891 1.429 1_554 S
C1907 C1903 1.429 . S
C1907 C1908 1.523 . S
C1908 C1892 1.368 . S
C1908 C1904 1.368 1_554 S
C1908 C1907 1.523 . S
H1909 C1884 0.950 . S
H1910 C1886 0.950 . S
H1911 C1887 0.949 . S
H1912 C1889 0.950 . S
H1913 C1891 0.950 . S
C1914 C1915 1.366 . S
C1914 C1916 1.327 . S
C1914 H1939 0.950 . S
C1915 C1914 1.366 . S
C1915 C1931 1.332 1_554 S
C1916 C1914 1.327 . S
C1916 C1935 1.451 . S
C1916 H1940 0.950 . S
C1917 C1934 1.574 . S
C1917 C1936 1.341 1_556 S
C1917 H1941 0.949 . S
H1918 C1922 0.949 . S
C1919 C1920 1.349 1_556 S
C1919 C1921 1.327 . S
C1919 H1942 0.950 . S
C1920 C1919 1.349 1_554 S
C1920 C1932 1.349 . S
C1921 C1919 1.327 . S
C1921 C1937 1.395 1_556 S
C1921 H1943 0.950 . S
C1922 H1918 0.949 . S
C1922 C1930 1.574 . S
C1922 C1938 1.403 . S
H1923 C1931 0.950 . S
H1924 C1929 0.950 . S
H1925 C1930 0.949 . S
H1926 C1932 0.950 . S
H1927 C1933 0.950 . S
H1928 C1934 0.949 . S
C1929 H1924 0.950 . S
C1929 C1931 1.327 . S
C1929 C1935 1.406 1_556 S
C1930 C1922 1.574 . S
C1930 H1925 0.949 . S
C1930 C1936 1.397 . S
C1931 C1915 1.332 1_556 S
C1931 H1923 0.950 . S
C1931 C1929 1.327 . S
C1932 C1920 1.349 . S
C1932 H1926 0.950 . S
C1932 C1933 1.327 . S
C1933 H1927 0.950 . S
C1933 C1932 1.327 . S
C1933 C1937 1.463 . S
C1934 C1917 1.574 . S
C1934 H1928 0.949 . S
C1934 C1938 1.335 1_556 S
C1935 C1916 1.451 . S
C1935 C1929 1.406 1_554 S
C1935 C1936 1.523 . S
C1936 C1917 1.341 1_554 S
C1936 C1930 1.397 . S
C1936 C1935 1.523 . S
C1937 C1921 1.395 1_554 S
C1937 C1933 1.463 . S
C1937 C1938 1.523 . S
C1938 C1922 1.403 . S
C1938 C1934 1.335 1_554 S
C1938 C1937 1.523 . S
H1939 C1914 0.950 . S
H1940 C1916 0.950 . S
H1941 C1917 0.949 . S
H1942 C1919 0.950 . S
H1943 C1921 0.950 . S
C1944 C1945 1.349 . S
C1944 C1946 1.327 . S
C1944 H1969 0.950 . S
C1945 C1944 1.349 . S
C1945 C1961 1.349 1_554 S
C1946 C1944 1.327 . S
C1946 C1965 1.429 . S
C1946 H1970 0.950 . S
C1947 C1964 1.574 . S
C1947 C1966 1.368 1_556 S
C1947 H1971 0.949 . S
H1948 C1952 0.949 . S
C1949 C1950 1.349 1_556 S
C1949 C1951 1.327 . S
C1949 H1972 0.950 . S
C1950 C1949 1.349 1_554 S
C1950 C1962 1.349 . S
C1951 C1949 1.327 . S
C1951 C1967 1.429 1_556 S
C1951 H1973 0.950 . S
C1952 H1948 0.949 . S
C1952 C1960 1.574 . S
C1952 C1968 1.368 . S
H1953 C1961 0.950 . S
H1954 C1959 0.950 . S
H1955 C1960 0.949 . S
H1956 C1962 0.950 . S
H1957 C1963 0.950 . S
H1958 C1964 0.949 . S
C1959 H1954 0.950 . S
C1959 C1961 1.327 . S
C1959 C1965 1.429 1_556 S
C1960 C1952 1.574 . S
C1960 H1955 0.949 . S
C1960 C1966 1.368 . S
C1961 C1945 1.349 1_556 S
C1961 H1953 0.950 . S
C1961 C1959 1.327 . S
C1962 C1950 1.349 . S
C1962 H1956 0.950 . S
C1962 C1963 1.327 . S
C1963 H1957 0.950 . S
C1963 C1962 1.327 . S
C1963 C1967 1.429 . S
C1964 C1947 1.574 . S
C1964 H1958 0.949 . S
C1964 C1968 1.368 1_556 S
C1965 C1946 1.429 . S
C1965 C1959 1.429 1_554 S
C1965 C1966 1.523 . S
C1966 C1947 1.368 1_554 S
C1966 C1960 1.368 . S
C1966 C1965 1.523 . S
C1967 C1951 1.429 1_554 S
C1967 C1963 1.429 . S
C1967 C1968 1.523 . S
C1968 C1952 1.368 . S
C1968 C1964 1.368 1_554 S
C1968 C1967 1.523 . S
H1969 C1944 0.950 . S
H1970 C1946 0.950 . S
H1971 C1947 0.949 . S
H1972 C1949 0.950 . S
H1973 C1951 0.950 . S
C1974 C1975 1.349 1_556 S
C1974 C1976 1.327 . S
C1974 H1999 0.950 . S
C1975 C1974 1.349 1_554 S
C1975 C1991 1.349 . S
C1976 C1974 1.327 . S
C1976 C1995 1.429 1_556 S
C1976 H2000 0.950 . S
C1977 C1994 1.574 . S
C1977 C1996 1.368 . S
C1977 H2001 0.949 . S
H1978 C1982 0.949 . S
C1979 C1980 1.349 . S
C1979 C1981 1.327 . S
C1979 H2002 0.950 . S
C1980 C1979 1.349 . S
C1980 C1992 1.349 1_554 S
C1981 C1979 1.327 . S
C1981 C1997 1.429 . S
C1981 H2003 0.950 . S
C1982 H1978 0.949 . S
C1982 C1990 1.574 . S
C1982 C1998 1.368 1_556 S
H1983 C1991 0.950 . S
H1984 C1989 0.950 . S
H1985 C1990 0.949 . S
H1986 C1992 0.950 . S
H1987 C1993 0.950 . S
H1988 C1994 0.949 . S
C1989 H1984 0.950 . S
C1989 C1991 1.327 . S
C1989 C1995 1.429 . S
C1990 C1982 1.574 . S
C1990 H1985 0.949 . S
C1990 C1996 1.368 1_556 S
C1991 C1975 1.349 . S
C1991 H1983 0.950 . S
C1991 C1989 1.327 . S
C1992 C1980 1.349 1_556 S
C1992 H1986 0.950 . S
C1992 C1993 1.327 . S
C1993 H1987 0.950 . S
C1993 C1992 1.327 . S
C1993 C1997 1.429 1_556 S
C1994 C1977 1.574 . S
C1994 H1988 0.949 . S
C1994 C1998 1.368 . S
C1995 C1976 1.429 1_554 S
C1995 C1989 1.429 . S
C1995 C1996 1.523 . S
C1996 C1977 1.368 . S
C1996 C1990 1.368 1_554 S
C1996 C1995 1.523 . S
C1997 C1981 1.429 . S
C1997 C1993 1.429 1_554 S
C1997 C1998 1.523 . S
C1998 C1982 1.368 1_554 S
C1998 C1994 1.368 . S
C1998 C1997 1.523 . S
H1999 C1974 0.950 . S
H2000 C1976 0.950 . S
H2001 C1977 0.949 . S
H2002 C1979 0.950 . S
H2003 C1981 0.950 . S
C2004 C2005 1.349 1_556 S
C2004 C2006 1.327 . S
C2004 H2029 0.950 . S
C2005 C2004 1.349 1_554 S
C2005 C2021 1.349 . S
C2006 C2004 1.327 . S
C2006 C2025 1.429 1_556 S
C2006 H2030 0.950 . S
C2007 C2024 1.574 . S
C2007 C2026 1.368 . S
C2007 H2031 0.949 . S
H2008 C2012 0.949 . S
C2009 C2010 1.349 . S
C2009 C2011 1.327 . S
C2009 H2032 0.950 . S
C2010 C2009 1.349 . S
C2010 C2022 1.349 1_554 S
C2011 C2009 1.327 . S
C2011 C2027 1.429 . S
C2011 H2033 0.950 . S
C2012 H2008 0.949 . S
C2012 C2020 1.574 . S
C2012 C2028 1.368 1_556 S
H2013 C2021 0.950 . S
H2014 C2019 0.950 . S
H2015 C2020 0.949 . S
H2016 C2022 0.950 . S
H2017 C2023 0.950 . S
H2018 C2024 0.949 . S
C2019 H2014 0.950 . S
C2019 C2021 1.327 . S
C2019 C2025 1.429 . S
C2020 C2012 1.574 . S
C2020 H2015 0.949 . S
C2020 C2026 1.368 1_556 S
C2021 C2005 1.349 . S
C2021 H2013 0.950 . S
C2021 C2019 1.327 . S
C2022 C2010 1.349 1_556 S
C2022 H2016 0.950 . S
C2022 C2023 1.327 . S
C2023 H2017 0.950 . S
C2023 C2022 1.327 . S
C2023 C2027 1.429 1_556 S
C2024 C2007 1.574 . S
C2024 H2018 0.949 . S
C2024 C2028 1.368 . S
C2025 C2006 1.429 1_554 S
C2025 C2019 1.429 . S
C2025 C2026 1.523 . S
C2026 C2007 1.368 . S
C2026 C2020 1.368 1_554 S
C2026 C2025 1.523 . S
C2027 C2011 1.429 . S
C2027 C2023 1.429 1_554 S
C2027 C2028 1.523 . S
C2028 C2012 1.368 1_554 S
C2028 C2024 1.368 . S
C2028 C2027 1.523 . S
H2029 C2004 0.950 . S
H2030 C2006 0.950 . S
H2031 C2007 0.949 . S
H2032 C2009 0.950 . S
H2033 C2011 0.950 . S
C2034 C2035 1.378 . S
C2034 C2036 1.327 . S
C2034 H2059 0.950 . S
C2035 C2034 1.378 . S
C2035 C2051 1.322 1_554 S
C2036 C2034 1.327 . S
C2036 C2055 1.429 . S
C2036 H2060 0.950 . S
C2037 C2054 1.574 . S
C2037 C2056 1.368 1_556 S
C2037 H2061 0.949 . S
H2038 C2042 0.949 . S
C2039 C2040 1.349 1_556 S
C2039 C2041 1.327 . S
C2039 H2062 0.950 . S
C2040 C2039 1.349 1_554 S
C2040 C2052 1.349 . S
C2041 C2039 1.327 . S
C2041 C2057 1.429 1_556 S
C2041 H2063 0.950 . S
C2042 H2038 0.949 . S
C2042 C2050 1.574 . S
C2042 C2058 1.368 . S
H2043 C2051 0.950 . S
H2044 C2049 0.950 . S
H2045 C2050 0.949 . S
H2046 C2052 0.950 . S
H2047 C2053 0.950 . S
H2048 C2054 0.949 . S
C2049 H2044 0.950 . S
C2049 C2051 1.327 . S
C2049 C2055 1.429 1_556 S
C2050 C2042 1.574 . S
C2050 H2045 0.949 . S
C2050 C2056 1.368 . S
C2051 C2035 1.322 1_556 S
C2051 H2043 0.950 . S
C2051 C2049 1.327 . S
C2052 C2040 1.349 . S
C2052 H2046 0.950 . S
C2052 C2053 1.327 . S
C2053 H2047 0.950 . S
C2053 C2052 1.327 . S
C2053 C2057 1.429 . S
C2054 C2037 1.574 . S
C2054 H2048 0.949 . S
C2054 C2058 1.368 1_556 S
C2055 C2036 1.429 . S
C2055 C2049 1.429 1_554 S
C2055 C2056 1.523 . S
C2056 C2037 1.368 1_554 S
C2056 C2050 1.368 . S
C2056 C2055 1.523 . S
C2057 C2041 1.429 1_554 S
C2057 C2053 1.429 . S
C2057 C2058 1.523 . S
C2058 C2042 1.368 . S
C2058 C2054 1.368 1_554 S
C2058 C2057 1.523 . S
H2059 C2034 0.950 . S
H2060 C2036 0.950 . S
H2061 C2037 0.949 . S
H2062 C2039 0.950 . S
H2063 C2041 0.950 . S
C2064 C2065 1.349 . S
C2064 C2066 1.327 . S
C2064 H2089 0.950 . S
C2065 C2064 1.349 . S
C2065 C2081 1.349 . S
C2066 C2064 1.327 . S
C2066 C2085 1.429 . S
C2066 H2090 0.950 . S
C2067 C2084 1.574 . S
C2067 C2086 1.368 . S
C2067 H2091 0.949 . S
H2068 C2072 0.949 . S
C2069 C2070 1.349 . S
C2069 C2071 1.327 . S
C2069 H2092 0.950 . S
C2070 C2069 1.349 . S
C2070 C2082 1.349 . S
C2071 C2069 1.327 . S
C2071 C2087 1.429 . S
C2071 H2093 0.950 . S
C2072 H2068 0.949 . S
C2072 C2080 1.574 . S
C2072 C2088 1.368 . S
H2073 C2081 0.950 . S
H2074 C2079 0.950 . S
H2075 C2080 0.949 . S
H2076 C2082 0.950 . S
H2077 C2083 0.950 . S
H2078 C2084 0.949 . S
C2079 H2074 0.950 . S
C2079 C2081 1.327 . S
C2079 C2085 1.429 . S
C2080 C2072 1.574 . S
C2080 H2075 0.949 . S
C2080 C2086 1.368 . S
C2081 C2065 1.349 . S
C2081 H2073 0.950 . S
C2081 C2079 1.327 . S
C2082 C2070 1.349 . S
C2082 H2076 0.950 . S
C2082 C2083 1.327 . S
C2083 H2077 0.950 . S
C2083 C2082 1.327 . S
C2083 C2087 1.429 . S
C2084 C2067 1.574 . S
C2084 H2078 0.949 . S
C2084 C2088 1.368 . S
C2085 C2066 1.429 . S
C2085 C2079 1.429 . S
C2085 C2086 1.523 . S
C2086 C2067 1.368 . S
C2086 C2080 1.368 . S
C2086 C2085 1.523 . S
C2087 C2071 1.429 . S
C2087 C2083 1.429 . S
C2087 C2088 1.523 . S
C2088 C2072 1.368 . S
C2088 C2084 1.368 . S
C2088 C2087 1.523 . S
H2089 C2064 0.950 . S
H2090 C2066 0.950 . S
H2091 C2067 0.949 . S
H2092 C2069 0.950 . S
H2093 C2071 0.950 . S
C2094 C2095 1.349 . S
C2094 C2096 1.327 . S
C2094 H2119 0.950 . S
C2095 C2094 1.349 . S
C2095 C2111 1.349 . S
C2096 C2094 1.327 . S
C2096 C2115 1.429 . S
C2096 H2120 0.950 . S
C2097 C2114 1.574 . S
C2097 C2116 1.368 . S
C2097 H2121 0.949 . S
H2098 C2102 0.949 . S
C2099 C2100 1.349 . S
C2099 C2101 1.327 . S
C2099 H2122 0.950 . S
C2100 C2099 1.349 . S
C2100 C2112 1.349 . S
C2101 C2099 1.327 . S
C2101 C2117 1.429 . S
C2101 H2123 0.950 . S
C2102 H2098 0.949 . S
C2102 C2110 1.574 . S
C2102 C2118 1.368 . S
H2103 C2111 0.950 . S
H2104 C2109 0.950 . S
H2105 C2110 0.949 . S
H2106 C2112 0.950 . S
H2107 C2113 0.950 . S
H2108 C2114 0.949 . S
C2109 H2104 0.950 . S
C2109 C2111 1.327 . S
C2109 C2115 1.429 . S
C2110 C2102 1.574 . S
C2110 H2105 0.949 . S
C2110 C2116 1.368 . S
C2111 C2095 1.349 . S
C2111 H2103 0.950 . S
C2111 C2109 1.327 . S
C2112 C2100 1.349 . S
C2112 H2106 0.950 . S
C2112 C2113 1.327 . S
C2113 H2107 0.950 . S
C2113 C2112 1.327 . S
C2113 C2117 1.429 . S
C2114 C2097 1.574 . S
C2114 H2108 0.949 . S
C2114 C2118 1.368 . S
C2115 C2096 1.429 . S
C2115 C2109 1.429 . S
C2115 C2116 1.523 . S
C2116 C2097 1.368 . S
C2116 C2110 1.368 . S
C2116 C2115 1.523 . S
C2117 C2101 1.429 . S
C2117 C2113 1.429 . S
C2117 C2118 1.523 . S
C2118 C2102 1.368 . S
C2118 C2114 1.368 . S
C2118 C2117 1.523 . S
H2119 C2094 0.950 . S
H2120 C2096 0.950 . S
H2121 C2097 0.949 . S
H2122 C2099 0.950 . S
H2123 C2101 0.950 . S
C2124 C2125 1.349 . S
C2124 C2126 1.327 . S
C2124 H2149 0.950 . S
C2125 C2124 1.349 . S
C2125 C2141 1.349 . S
C2126 C2124 1.327 . S
C2126 C2145 1.429 . S
C2126 H2150 0.950 . S
C2127 C2144 1.574 . S
C2127 C2146 1.368 . S
C2127 H2151 0.949 . S
H2128 C2132 0.949 . S
C2129 C2130 1.349 . S
C2129 C2131 1.327 . S
C2129 H2152 0.950 . S
C2130 C2129 1.349 . S
C2130 C2142 1.349 . S
C2131 C2129 1.327 . S
C2131 C2147 1.429 . S
C2131 H2153 0.950 . S
C2132 H2128 0.949 . S
C2132 C2140 1.574 . S
C2132 C2148 1.368 . S
H2133 C2141 0.950 . S
H2134 C2139 0.950 . S
H2135 C2140 0.949 . S
H2136 C2142 0.950 . S
H2137 C2143 0.950 . S
H2138 C2144 0.949 . S
C2139 H2134 0.950 . S
C2139 C2141 1.327 . S
C2139 C2145 1.429 . S
C2140 C2132 1.574 . S
C2140 H2135 0.949 . S
C2140 C2146 1.368 . S
C2141 C2125 1.349 . S
C2141 H2133 0.950 . S
C2141 C2139 1.327 . S
C2142 C2130 1.349 . S
C2142 H2136 0.950 . S
C2142 C2143 1.327 . S
C2143 H2137 0.950 . S
C2143 C2142 1.327 . S
C2143 C2147 1.429 . S
C2144 C2127 1.574 . S
C2144 H2138 0.949 . S
C2144 C2148 1.368 . S
C2145 C2126 1.429 . S
C2145 C2139 1.429 . S
C2145 C2146 1.523 . S
C2146 C2127 1.368 . S
C2146 C2140 1.368 . S
C2146 C2145 1.523 . S
C2147 C2131 1.429 . S
C2147 C2143 1.429 . S
C2147 C2148 1.523 . S
C2148 C2132 1.368 . S
C2148 C2144 1.368 . S
C2148 C2147 1.523 . S
H2149 C2124 0.950 . S
H2150 C2126 0.950 . S
H2151 C2127 0.949 . S
H2152 C2129 0.950 . S
H2153 C2131 0.950 . S
C2154 C2155 1.349 . S
C2154 C2156 1.327 . S
C2154 H2179 0.950 . S
C2155 C2154 1.349 . S
C2155 C2171 1.349 . S
C2156 C2154 1.327 . S
C2156 C2175 1.429 . S
C2156 H2180 0.950 . S
C2157 C2174 1.574 . S
C2157 C2176 1.368 . S
C2157 H2181 0.949 . S
H2158 C2162 0.949 . S
C2159 C2160 1.349 . S
C2159 C2161 1.327 . S
C2159 H2182 0.950 . S
C2160 C2159 1.349 . S
C2160 C2172 1.349 . S
C2161 C2159 1.327 . S
C2161 C2177 1.429 . S
C2161 H2183 0.950 . S
C2162 H2158 0.949 . S
C2162 C2170 1.574 . S
C2162 C2178 1.368 . S
H2163 C2171 0.950 . S
H2164 C2169 0.950 . S
H2165 C2170 0.949 . S
H2166 C2172 0.950 . S
H2167 C2173 0.950 . S
H2168 C2174 0.949 . S
C2169 H2164 0.950 . S
C2169 C2171 1.327 . S
C2169 C2175 1.429 . S
C2170 C2162 1.574 . S
C2170 H2165 0.949 . S
C2170 C2176 1.368 . S
C2171 C2155 1.349 . S
C2171 H2163 0.950 . S
C2171 C2169 1.327 . S
C2172 C2160 1.349 . S
C2172 H2166 0.950 . S
C2172 C2173 1.327 . S
C2173 H2167 0.950 . S
C2173 C2172 1.327 . S
C2173 C2177 1.429 . S
C2174 C2157 1.574 . S
C2174 H2168 0.949 . S
C2174 C2178 1.368 . S
C2175 C2156 1.429 . S
C2175 C2169 1.429 . S
C2175 C2176 1.523 . S
C2176 C2157 1.368 . S
C2176 C2170 1.368 . S
C2176 C2175 1.523 . S
C2177 C2161 1.429 . S
C2177 C2173 1.429 . S
C2177 C2178 1.523 . S
C2178 C2162 1.368 . S
C2178 C2174 1.368 . S
C2178 C2177 1.523 . S
H2179 C2154 0.950 . S
H2180 C2156 0.950 . S
H2181 C2157 0.949 . S
H2182 C2159 0.950 . S
H2183 C2161 0.950 . S
C2184 C2185 1.349 . S
C2184 C2186 1.327 . S
C2184 H2209 0.950 . S
C2185 C2184 1.349 . S
C2185 C2201 1.349 . S
C2186 C2184 1.327 . S
C2186 C2205 1.429 . S
C2186 H2210 0.950 . S
C2187 C2204 1.574 . S
C2187 C2206 1.368 . S
C2187 H2211 0.949 . S
H2188 C2192 0.949 . S
C2189 C2190 1.349 . S
C2189 C2191 1.327 . S
C2189 H2212 0.950 . S
C2190 C2189 1.349 . S
C2190 C2202 1.349 . S
C2191 C2189 1.327 . S
C2191 C2207 1.429 . S
C2191 H2213 0.950 . S
C2192 H2188 0.949 . S
C2192 C2200 1.574 . S
C2192 C2208 1.368 . S
H2193 C2201 0.950 . S
H2194 C2199 0.950 . S
H2195 C2200 0.949 . S
H2196 C2202 0.950 . S
H2197 C2203 0.950 . S
H2198 C2204 0.949 . S
C2199 H2194 0.950 . S
C2199 C2201 1.327 . S
C2199 C2205 1.429 . S
C2200 C2192 1.574 . S
C2200 H2195 0.949 . S
C2200 C2206 1.368 . S
C2201 C2185 1.349 . S
C2201 H2193 0.950 . S
C2201 C2199 1.327 . S
C2202 C2190 1.349 . S
C2202 H2196 0.950 . S
C2202 C2203 1.327 . S
C2203 H2197 0.950 . S
C2203 C2202 1.327 . S
C2203 C2207 1.429 . S
C2204 C2187 1.574 . S
C2204 H2198 0.949 . S
C2204 C2208 1.368 . S
C2205 C2186 1.429 . S
C2205 C2199 1.429 . S
C2205 C2206 1.523 . S
C2206 C2187 1.368 . S
C2206 C2200 1.368 . S
C2206 C2205 1.523 . S
C2207 C2191 1.429 . S
C2207 C2203 1.429 . S
C2207 C2208 1.523 . S
C2208 C2192 1.368 . S
C2208 C2204 1.368 . S
C2208 C2207 1.523 . S
H2209 C2184 0.950 . S
H2210 C2186 0.950 . S
H2211 C2187 0.949 . S
H2212 C2189 0.950 . S
H2213 C2191 0.950 . S
C2214 C2215 1.349 . S
C2214 C2216 1.327 . S
C2214 H2239 0.950 . S
C2215 C2214 1.349 . S
C2215 C2231 1.349 . S
C2216 C2214 1.327 . S
C2216 C2235 1.429 . S
C2216 H2240 0.950 . S
C2217 C2234 1.574 . S
C2217 C2236 1.368 . S
C2217 H2241 0.949 . S
H2218 C2222 0.949 . S
C2219 C2220 1.349 . S
C2219 C2221 1.327 . S
C2219 H2242 0.950 . S
C2220 C2219 1.349 . S
C2220 C2232 1.349 . S
C2221 C2219 1.327 . S
C2221 C2237 1.429 . S
C2221 H2243 0.950 . S
C2222 H2218 0.949 . S
C2222 C2230 1.574 . S
C2222 C2238 1.368 . S
H2223 C2231 0.950 . S
H2224 C2229 0.950 . S
H2225 C2230 0.949 . S
H2226 C2232 0.950 . S
H2227 C2233 0.950 . S
H2228 C2234 0.949 . S
C2229 H2224 0.950 . S
C2229 C2231 1.327 . S
C2229 C2235 1.429 . S
C2230 C2222 1.574 . S
C2230 H2225 0.949 . S
C2230 C2236 1.368 . S
C2231 C2215 1.349 . S
C2231 H2223 0.950 . S
C2231 C2229 1.327 . S
C2232 C2220 1.349 . S
C2232 H2226 0.950 . S
C2232 C2233 1.327 . S
C2233 H2227 0.950 . S
C2233 C2232 1.327 . S
C2233 C2237 1.429 . S
C2234 C2217 1.574 . S
C2234 H2228 0.949 . S
C2234 C2238 1.368 . S
C2235 C2216 1.429 . S
C2235 C2229 1.429 . S
C2235 C2236 1.523 . S
C2236 C2217 1.368 . S
C2236 C2230 1.368 . S
C2236 C2235 1.523 . S
C2237 C2221 1.429 . S
C2237 C2233 1.429 . S
C2237 C2238 1.523 . S
C2238 C2222 1.368 . S
C2238 C2234 1.368 . S
C2238 C2237 1.523 . S
H2239 C2214 0.950 . S
H2240 C2216 0.950 . S
H2241 C2217 0.949 . S
H2242 C2219 0.950 . S
H2243 C2221 0.950 . S
C2244 C2245 1.349 . S
C2244 C2246 1.327 . S
C2244 H2269 0.950 . S
C2245 C2244 1.349 . S
C2245 C2261 1.349 . S
C2246 C2244 1.327 . S
C2246 C2265 1.429 . S
C2246 H2270 0.950 . S
C2247 C2264 1.574 . S
C2247 C2266 1.368 . S
C2247 H2271 0.949 . S
H2248 C2252 0.949 . S
C2249 C2250 1.349 . S
C2249 C2251 1.327 . S
C2249 H2272 0.950 . S
C2250 C2249 1.349 . S
C2250 C2262 1.349 . S
C2251 C2249 1.327 . S
C2251 C2267 1.429 . S
C2251 H2273 0.950 . S
C2252 H2248 0.949 . S
C2252 C2260 1.574 . S
C2252 C2268 1.368 . S
H2253 C2261 0.950 . S
H2254 C2259 0.950 . S
H2255 C2260 0.949 . S
H2256 C2262 0.950 . S
H2257 C2263 0.950 . S
H2258 C2264 0.949 . S
C2259 H2254 0.950 . S
C2259 C2261 1.327 . S
C2259 C2265 1.429 . S
C2260 C2252 1.574 . S
C2260 H2255 0.949 . S
C2260 C2266 1.368 . S
C2261 C2245 1.349 . S
C2261 H2253 0.950 . S
C2261 C2259 1.327 . S
C2262 C2250 1.349 . S
C2262 H2256 0.950 . S
C2262 C2263 1.327 . S
C2263 H2257 0.950 . S
C2263 C2262 1.327 . S
C2263 C2267 1.429 . S
C2264 C2247 1.574 . S
C2264 H2258 0.949 . S
C2264 C2268 1.368 . S
C2265 C2246 1.429 . S
C2265 C2259 1.429 . S
C2265 C2266 1.523 . S
C2266 C2247 1.368 . S
C2266 C2260 1.368 . S
C2266 C2265 1.523 . S
C2267 C2251 1.429 . S
C2267 C2263 1.429 . S
C2267 C2268 1.523 . S
C2268 C2252 1.368 . S
C2268 C2264 1.368 . S
C2268 C2267 1.523 . S
H2269 C2244 0.950 . S
H2270 C2246 0.950 . S
H2271 C2247 0.949 . S
H2272 C2249 0.950 . S
H2273 C2251 0.950 . S
C2274 C2275 1.349 . S
C2274 C2276 1.327 . S
C2274 H2299 0.950 . S
C2275 C2274 1.349 . S
C2275 C2291 1.349 . S
C2276 C2274 1.327 . S
C2276 C2295 1.429 . S
C2276 H2300 0.950 . S
C2277 C2294 1.574 . S
C2277 C2296 1.368 . S
C2277 H2301 0.949 . S
H2278 C2282 0.949 . S
C2279 C2280 1.349 . S
C2279 C2281 1.327 . S
C2279 H2302 0.950 . S
C2280 C2279 1.349 . S
C2280 C2292 1.349 . S
C2281 C2279 1.327 . S
C2281 C2297 1.429 . S
C2281 H2303 0.950 . S
C2282 H2278 0.949 . S
C2282 C2290 1.574 . S
C2282 C2298 1.368 . S
H2283 C2291 0.950 . S
H2284 C2289 0.950 . S
H2285 C2290 0.949 . S
H2286 C2292 0.950 . S
H2287 C2293 0.950 . S
H2288 C2294 0.949 . S
C2289 H2284 0.950 . S
C2289 C2291 1.327 . S
C2289 C2295 1.429 . S
C2290 C2282 1.574 . S
C2290 H2285 0.949 . S
C2290 C2296 1.368 . S
C2291 C2275 1.349 . S
C2291 H2283 0.950 . S
C2291 C2289 1.327 . S
C2292 C2280 1.349 . S
C2292 H2286 0.950 . S
C2292 C2293 1.327 . S
C2293 H2287 0.950 . S
C2293 C2292 1.327 . S
C2293 C2297 1.429 . S
C2294 C2277 1.574 . S
C2294 H2288 0.949 . S
C2294 C2298 1.368 . S
C2295 C2276 1.429 . S
C2295 C2289 1.429 . S
C2295 C2296 1.523 . S
C2296 C2277 1.368 . S
C2296 C2290 1.368 . S
C2296 C2295 1.523 . S
C2297 C2281 1.429 . S
C2297 C2293 1.429 . S
C2297 C2298 1.523 . S
C2298 C2282 1.368 . S
C2298 C2294 1.368 . S
C2298 C2297 1.523 . S
H2299 C2274 0.950 . S
H2300 C2276 0.950 . S
H2301 C2277 0.949 . S
H2302 C2279 0.950 . S
H2303 C2281 0.950 . S
C2304 C2305 1.349 . S
C2304 C2306 1.327 . S
C2304 H2329 0.950 . S
C2305 C2304 1.349 . S
C2305 C2321 1.349 . S
C2306 C2304 1.327 . S
C2306 C2325 1.429 . S
C2306 H2330 0.950 . S
C2307 C2324 1.574 . S
C2307 C2326 1.368 . S
C2307 H2331 0.949 . S
H2308 C2312 0.949 . S
C2309 C2310 1.349 . S
C2309 C2311 1.327 . S
C2309 H2332 0.950 . S
C2310 C2309 1.349 . S
C2310 C2322 1.349 . S
C2311 C2309 1.327 . S
C2311 C2327 1.429 . S
C2311 H2333 0.950 . S
C2312 H2308 0.949 . S
C2312 C2320 1.574 . S
C2312 C2328 1.368 . S
H2313 C2321 0.950 . S
H2314 C2319 0.950 . S
H2315 C2320 0.949 . S
H2316 C2322 0.950 . S
H2317 C2323 0.950 . S
H2318 C2324 0.949 . S
C2319 H2314 0.950 . S
C2319 C2321 1.327 . S
C2319 C2325 1.429 . S
C2320 C2312 1.574 . S
C2320 H2315 0.949 . S
C2320 C2326 1.368 . S
C2321 C2305 1.349 . S
C2321 H2313 0.950 . S
C2321 C2319 1.327 . S
C2322 C2310 1.349 . S
C2322 H2316 0.950 . S
C2322 C2323 1.327 . S
C2323 H2317 0.950 . S
C2323 C2322 1.327 . S
C2323 C2327 1.429 . S
C2324 C2307 1.574 . S
C2324 H2318 0.949 . S
C2324 C2328 1.368 . S
C2325 C2306 1.429 . S
C2325 C2319 1.429 . S
C2325 C2326 1.523 . S
C2326 C2307 1.368 . S
C2326 C2320 1.368 . S
C2326 C2325 1.523 . S
C2327 C2311 1.429 . S
C2327 C2323 1.429 . S
C2327 C2328 1.523 . S
C2328 C2312 1.368 . S
C2328 C2324 1.368 . S
C2328 C2327 1.523 . S
H2329 C2304 0.950 . S
H2330 C2306 0.950 . S
H2331 C2307 0.949 . S
H2332 C2309 0.950 . S
H2333 C2311 0.950 . S
C2334 C2335 1.349 . S
C2334 C2336 1.327 . S
C2334 H2359 0.950 . S
C2335 C2334 1.349 . S
C2335 C2351 1.349 . S
C2336 C2334 1.327 . S
C2336 C2355 1.429 . S
C2336 H2360 0.950 . S
C2337 C2354 1.574 . S
C2337 C2356 1.368 . S
C2337 H2361 0.949 . S
H2338 C2342 0.949 . S
C2339 C2340 1.349 . S
C2339 C2341 1.327 . S
C2339 H2362 0.950 . S
C2340 C2339 1.349 . S
C2340 C2352 1.349 . S
C2341 C2339 1.327 . S
C2341 C2357 1.429 . S
C2341 H2363 0.950 . S
C2342 H2338 0.949 . S
C2342 C2350 1.574 . S
C2342 C2358 1.368 . S
H2343 C2351 0.950 . S
H2344 C2349 0.950 . S
H2345 C2350 0.949 . S
H2346 C2352 0.950 . S
H2347 C2353 0.950 . S
H2348 C2354 0.949 . S
C2349 H2344 0.950 . S
C2349 C2351 1.327 . S
C2349 C2355 1.429 . S
C2350 C2342 1.574 . S
C2350 H2345 0.949 . S
C2350 C2356 1.368 . S
C2351 C2335 1.349 . S
C2351 H2343 0.950 . S
C2351 C2349 1.327 . S
C2352 C2340 1.349 . S
C2352 H2346 0.950 . S
C2352 C2353 1.327 . S
C2353 H2347 0.950 . S
C2353 C2352 1.327 . S
C2353 C2357 1.429 . S
C2354 C2337 1.574 . S
C2354 H2348 0.949 . S
C2354 C2358 1.368 . S
C2355 C2336 1.429 . S
C2355 C2349 1.429 . S
C2355 C2356 1.523 . S
C2356 C2337 1.368 . S
C2356 C2350 1.368 . S
C2356 C2355 1.523 . S
C2357 C2341 1.429 . S
C2357 C2353 1.429 . S
C2357 C2358 1.523 . S
C2358 C2342 1.368 . S
C2358 C2354 1.368 . S
C2358 C2357 1.523 . S
H2359 C2334 0.950 . S
H2360 C2336 0.950 . S
H2361 C2337 0.949 . S
H2362 C2339 0.950 . S
H2363 C2341 0.950 . S
C2364 C2365 1.349 . S
C2364 C2366 1.327 . S
C2364 H2389 0.950 . S
C2365 C2364 1.349 . S
C2365 C2381 1.349 . S
C2366 C2364 1.327 . S
C2366 C2385 1.429 . S
C2366 H2390 0.950 . S
C2367 C2384 1.574 . S
C2367 C2386 1.368 . S
C2367 H2391 0.949 . S
H2368 C2372 0.949 . S
C2369 C2370 1.349 . S
C2369 C2371 1.327 . S
C2369 H2392 0.950 . S
C2370 C2369 1.349 . S
C2370 C2382 1.349 . S
C2371 C2369 1.327 . S
C2371 C2387 1.429 . S
C2371 H2393 0.950 . S
C2372 H2368 0.949 . S
C2372 C2380 1.574 . S
C2372 C2388 1.368 . S
H2373 C2381 0.950 . S
H2374 C2379 0.950 . S
H2375 C2380 0.949 . S
H2376 C2382 0.950 . S
H2377 C2383 0.950 . S
H2378 C2384 0.949 . S
C2379 H2374 0.950 . S
C2379 C2381 1.327 . S
C2379 C2385 1.429 . S
C2380 C2372 1.574 . S
C2380 H2375 0.949 . S
C2380 C2386 1.368 . S
C2381 C2365 1.349 . S
C2381 H2373 0.950 . S
C2381 C2379 1.327 . S
C2382 C2370 1.349 . S
C2382 H2376 0.950 . S
C2382 C2383 1.327 . S
C2383 H2377 0.950 . S
C2383 C2382 1.327 . S
C2383 C2387 1.429 . S
C2384 C2367 1.574 . S
C2384 H2378 0.949 . S
C2384 C2388 1.368 . S
C2385 C2366 1.429 . S
C2385 C2379 1.429 . S
C2385 C2386 1.523 . S
C2386 C2367 1.368 . S
C2386 C2380 1.368 . S
C2386 C2385 1.523 . S
C2387 C2371 1.429 . S
C2387 C2383 1.429 . S
C2387 C2388 1.523 . S
C2388 C2372 1.368 . S
C2388 C2384 1.368 . S
C2388 C2387 1.523 . S
H2389 C2364 0.950 . S
H2390 C2366 0.950 . S
H2391 C2367 0.949 . S
H2392 C2369 0.950 . S
H2393 C2371 0.950 . S
C2394 C2395 1.349 . S
C2394 C2396 1.327 . S
C2394 H2419 0.950 . S
C2395 C2394 1.349 . S
C2395 C2411 1.349 . S
C2396 C2394 1.327 . S
C2396 C2415 1.429 . S
C2396 H2420 0.950 . S
C2397 C2414 1.574 . S
C2397 C2416 1.368 . S
C2397 H2421 0.949 . S
H2398 C2402 0.949 . S
C2399 C2400 1.349 . S
C2399 C2401 1.327 . S
C2399 H2422 0.950 . S
C2400 C2399 1.349 . S
C2400 C2412 1.349 . S
C2401 C2399 1.327 . S
C2401 C2417 1.429 . S
C2401 H2423 0.950 . S
C2402 H2398 0.949 . S
C2402 C2410 1.574 . S
C2402 C2418 1.368 . S
H2403 C2411 0.950 . S
H2404 C2409 0.950 . S
H2405 C2410 0.949 . S
H2406 C2412 0.950 . S
H2407 C2413 0.950 . S
H2408 C2414 0.949 . S
C2409 H2404 0.950 . S
C2409 C2411 1.327 . S
C2409 C2415 1.429 . S
C2410 C2402 1.574 . S
C2410 H2405 0.949 . S
C2410 C2416 1.368 . S
C2411 C2395 1.349 . S
C2411 H2403 0.950 . S
C2411 C2409 1.327 . S
C2412 C2400 1.349 . S
C2412 H2406 0.950 . S
C2412 C2413 1.327 . S
C2413 H2407 0.950 . S
C2413 C2412 1.327 . S
C2413 C2417 1.429 . S
C2414 C2397 1.574 . S
C2414 H2408 0.949 . S
C2414 C2418 1.368 . S
C2415 C2396 1.429 . S
C2415 C2409 1.429 . S
C2415 C2416 1.523 . S
C2416 C2397 1.368 . S
C2416 C2410 1.368 . S
C2416 C2415 1.523 . S
C2417 C2401 1.429 . S
C2417 C2413 1.429 . S
C2417 C2418 1.523 . S
C2418 C2402 1.368 . S
C2418 C2414 1.368 . S
C2418 C2417 1.523 . S
H2419 C2394 0.950 . S
H2420 C2396 0.950 . S
H2421 C2397 0.949 . S
H2422 C2399 0.950 . S
H2423 C2401 0.950 . S
C2424 C2425 1.349 . S
C2424 C2426 1.327 . S
C2424 H2449 0.950 . S
C2425 C2424 1.349 . S
C2425 C2441 1.349 . S
C2426 C2424 1.327 . S
C2426 C2445 1.429 . S
C2426 H2450 0.950 . S
C2427 C2444 1.574 . S
C2427 C2446 1.368 . S
C2427 H2451 0.949 . S
H2428 C2432 0.949 . S
C2429 C2430 1.349 . S
C2429 C2431 1.327 . S
C2429 H2452 0.950 . S
C2430 C2429 1.349 . S
C2430 C2442 1.349 . S
C2431 C2429 1.327 . S
C2431 C2447 1.429 . S
C2431 H2453 0.950 . S
C2432 H2428 0.949 . S
C2432 C2440 1.574 . S
C2432 C2448 1.368 . S
H2433 C2441 0.950 . S
H2434 C2439 0.950 . S
H2435 C2440 0.949 . S
H2436 C2442 0.950 . S
H2437 C2443 0.950 . S
H2438 C2444 0.949 . S
C2439 H2434 0.950 . S
C2439 C2441 1.327 . S
C2439 C2445 1.429 . S
C2440 C2432 1.574 . S
C2440 H2435 0.949 . S
C2440 C2446 1.368 . S
C2441 C2425 1.349 . S
C2441 H2433 0.950 . S
C2441 C2439 1.327 . S
C2442 C2430 1.349 . S
C2442 H2436 0.950 . S
C2442 C2443 1.327 . S
C2443 H2437 0.950 . S
C2443 C2442 1.327 . S
C2443 C2447 1.429 . S
C2444 C2427 1.574 . S
C2444 H2438 0.949 . S
C2444 C2448 1.368 . S
C2445 C2426 1.429 . S
C2445 C2439 1.429 . S
C2445 C2446 1.523 . S
C2446 C2427 1.368 . S
C2446 C2440 1.368 . S
C2446 C2445 1.523 . S
C2447 C2431 1.429 . S
C2447 C2443 1.429 . S
C2447 C2448 1.523 . S
C2448 C2432 1.368 . S
C2448 C2444 1.368 . S
C2448 C2447 1.523 . S
H2449 C2424 0.950 . S
H2450 C2426 0.950 . S
H2451 C2427 0.949 . S
H2452 C2429 0.950 . S
H2453 C2431 0.950 . S
C2454 C2455 1.349 . S
C2454 C2456 1.327 . S
C2454 H2479 0.950 . S
C2455 C2454 1.349 . S
C2455 C2471 1.349 . S
C2456 C2454 1.327 . S
C2456 C2475 1.429 . S
C2456 H2480 0.950 . S
C2457 C2474 1.574 . S
C2457 C2476 1.368 . S
C2457 H2481 0.949 . S
H2458 C2462 0.949 . S
C2459 C2460 1.349 . S
C2459 C2461 1.327 . S
C2459 H2482 0.950 . S
C2460 C2459 1.349 . S
C2460 C2472 1.349 . S
C2461 C2459 1.327 . S
C2461 C2477 1.429 . S
C2461 H2483 0.950 . S
C2462 H2458 0.949 . S
C2462 C2470 1.574 . S
C2462 C2478 1.368 . S
H2463 C2471 0.950 . S
H2464 C2469 0.950 . S
H2465 C2470 0.949 . S
H2466 C2472 0.950 . S
H2467 C2473 0.950 . S
H2468 C2474 0.949 . S
C2469 H2464 0.950 . S
C2469 C2471 1.327 . S
C2469 C2475 1.429 . S
C2470 C2462 1.574 . S
C2470 H2465 0.949 . S
C2470 C2476 1.368 . S
C2471 C2455 1.349 . S
C2471 H2463 0.950 . S
C2471 C2469 1.327 . S
C2472 C2460 1.349 . S
C2472 H2466 0.950 . S
C2472 C2473 1.327 . S
C2473 H2467 0.950 . S
C2473 C2472 1.327 . S
C2473 C2477 1.429 . S
C2474 C2457 1.574 . S
C2474 H2468 0.949 . S
C2474 C2478 1.368 . S
C2475 C2456 1.429 . S
C2475 C2469 1.429 . S
C2475 C2476 1.523 . S
C2476 C2457 1.368 . S
C2476 C2470 1.368 . S
C2476 C2475 1.523 . S
C2477 C2461 1.429 . S
C2477 C2473 1.429 . S
C2477 C2478 1.523 . S
C2478 C2462 1.368 . S
C2478 C2474 1.368 . S
C2478 C2477 1.523 . S
H2479 C2454 0.950 . S
H2480 C2456 0.950 . S
H2481 C2457 0.949 . S
H2482 C2459 0.950 . S
H2483 C2461 0.950 . S
C2484 C2485 1.349 . S
C2484 C2486 1.327 . S
C2484 H2509 0.950 . S
C2485 C2484 1.349 . S
C2485 C2501 1.349 . S
C2486 C2484 1.327 . S
C2486 C2505 1.429 . S
C2486 H2510 0.950 . S
C2487 C2504 1.574 . S
C2487 C2506 1.368 . S
C2487 H2511 0.949 . S
H2488 C2492 0.949 . S
C2489 C2490 1.349 . S
C2489 C2491 1.327 . S
C2489 H2512 0.950 . S
C2490 C2489 1.349 . S
C2490 C2502 1.349 . S
C2491 C2489 1.327 . S
C2491 C2507 1.429 . S
C2491 H2513 0.950 . S
C2492 H2488 0.949 . S
C2492 C2500 1.574 . S
C2492 C2508 1.368 . S
H2493 C2501 0.950 . S
H2494 C2499 0.950 . S
H2495 C2500 0.949 . S
H2496 C2502 0.950 . S
H2497 C2503 0.950 . S
H2498 C2504 0.949 . S
C2499 H2494 0.950 . S
C2499 C2501 1.327 . S
C2499 C2505 1.429 . S
C2500 C2492 1.574 . S
C2500 H2495 0.949 . S
C2500 C2506 1.368 . S
C2501 C2485 1.349 . S
C2501 H2493 0.950 . S
C2501 C2499 1.327 . S
C2502 C2490 1.349 . S
C2502 H2496 0.950 . S
C2502 C2503 1.327 . S
C2503 H2497 0.950 . S
C2503 C2502 1.327 . S
C2503 C2507 1.429 . S
C2504 C2487 1.574 . S
C2504 H2498 0.949 . S
C2504 C2508 1.368 . S
C2505 C2486 1.429 . S
C2505 C2499 1.429 . S
C2505 C2506 1.523 . S
C2506 C2487 1.368 . S
C2506 C2500 1.368 . S
C2506 C2505 1.523 . S
C2507 C2491 1.429 . S
C2507 C2503 1.429 . S
C2507 C2508 1.523 . S
C2508 C2492 1.368 . S
C2508 C2504 1.368 . S
C2508 C2507 1.523 . S
H2509 C2484 0.950 . S
H2510 C2486 0.950 . S
H2511 C2487 0.949 . S
H2512 C2489 0.950 . S
H2513 C2491 0.950 . S
C2514 C2515 1.349 . S
C2514 C2516 1.327 . S
C2514 H2539 0.950 . S
C2515 C2514 1.349 . S
C2515 C2531 1.349 . S
C2516 C2514 1.327 . S
C2516 C2535 1.429 . S
C2516 H2540 0.950 . S
C2517 C2534 1.574 . S
C2517 C2536 1.368 . S
C2517 H2541 0.949 . S
H2518 C2522 0.949 . S
C2519 C2520 1.349 . S
C2519 C2521 1.327 . S
C2519 H2542 0.950 . S
C2520 C2519 1.349 . S
C2520 C2532 1.349 . S
C2521 C2519 1.327 . S
C2521 C2537 1.429 . S
C2521 H2543 0.950 . S
C2522 H2518 0.949 . S
C2522 C2530 1.574 . S
C2522 C2538 1.368 . S
H2523 C2531 0.950 . S
H2524 C2529 0.950 . S
H2525 C2530 0.949 . S
H2526 C2532 0.950 . S
H2527 C2533 0.950 . S
H2528 C2534 0.949 . S
C2529 H2524 0.950 . S
C2529 C2531 1.327 . S
C2529 C2535 1.429 . S
C2530 C2522 1.574 . S
C2530 H2525 0.949 . S
C2530 C2536 1.368 . S
C2531 C2515 1.349 . S
C2531 H2523 0.950 . S
C2531 C2529 1.327 . S
C2532 C2520 1.349 . S
C2532 H2526 0.950 . S
C2532 C2533 1.327 . S
C2533 H2527 0.950 . S
C2533 C2532 1.327 . S
C2533 C2537 1.429 . S
C2534 C2517 1.574 . S
C2534 H2528 0.949 . S
C2534 C2538 1.368 . S
C2535 C2516 1.429 . S
C2535 C2529 1.429 . S
C2535 C2536 1.523 . S
C2536 C2517 1.368 . S
C2536 C2530 1.368 . S
C2536 C2535 1.523 . S
C2537 C2521 1.429 . S
C2537 C2533 1.429 . S
C2537 C2538 1.523 . S
C2538 C2522 1.368 . S
C2538 C2534 1.368 . S
C2538 C2537 1.523 . S
H2539 C2514 0.950 . S
H2540 C2516 0.950 . S
H2541 C2517 0.949 . S
H2542 C2519 0.950 . S
H2543 C2521 0.950 . S
C2544 C2545 1.349 . S
C2544 C2546 1.327 . S
C2544 H2569 0.950 . S
C2545 C2544 1.349 . S
C2545 C2561 1.349 . S
C2546 C2544 1.327 . S
C2546 C2565 1.429 . S
C2546 H2570 0.950 . S
C2547 C2564 1.574 . S
C2547 C2566 1.368 . S
C2547 H2571 0.949 . S
H2548 C2552 0.949 . S
C2549 C2550 1.349 . S
C2549 C2551 1.327 . S
C2549 H2572 0.950 . S
C2550 C2549 1.349 . S
C2550 C2562 1.349 . S
C2551 C2549 1.327 . S
C2551 C2567 1.429 . S
C2551 H2573 0.950 . S
C2552 H2548 0.949 . S
C2552 C2560 1.574 . S
C2552 C2568 1.368 . S
H2553 C2561 0.950 . S
H2554 C2559 0.950 . S
H2555 C2560 0.949 . S
H2556 C2562 0.950 . S
H2557 C2563 0.950 . S
H2558 C2564 0.949 . S
C2559 H2554 0.950 . S
C2559 C2561 1.327 . S
C2559 C2565 1.429 . S
C2560 C2552 1.574 . S
C2560 H2555 0.949 . S
C2560 C2566 1.368 . S
C2561 C2545 1.349 . S
C2561 H2553 0.950 . S
C2561 C2559 1.327 . S
C2562 C2550 1.349 . S
C2562 H2556 0.950 . S
C2562 C2563 1.327 . S
C2563 H2557 0.950 . S
C2563 C2562 1.327 . S
C2563 C2567 1.429 . S
C2564 C2547 1.574 . S
C2564 H2558 0.949 . S
C2564 C2568 1.368 . S
C2565 C2546 1.429 . S
C2565 C2559 1.429 . S
C2565 C2566 1.523 . S
C2566 C2547 1.368 . S
C2566 C2560 1.368 . S
C2566 C2565 1.523 . S
C2567 C2551 1.429 . S
C2567 C2563 1.429 . S
C2567 C2568 1.523 . S
C2568 C2552 1.368 . S
C2568 C2564 1.368 . S
C2568 C2567 1.523 . S
H2569 C2544 0.950 . S
H2570 C2546 0.950 . S
H2571 C2547 0.949 . S
H2572 C2549 0.950 . S
H2573 C2551 0.950 . S
C2574 C2575 1.349 . S
C2574 C2576 1.327 . S
C2574 H2599 0.950 . S
C2575 C2574 1.349 . S
C2575 C2591 1.349 . S
C2576 C2574 1.327 . S
C2576 C2595 1.429 . S
C2576 H2600 0.950 . S
C2577 C2594 1.574 . S
C2577 C2596 1.368 . S
C2577 H2601 0.949 . S
H2578 C2582 0.949 . S
C2579 C2580 1.349 . S
C2579 C2581 1.327 . S
C2579 H2602 0.950 . S
C2580 C2579 1.349 . S
C2580 C2592 1.349 . S
C2581 C2579 1.327 . S
C2581 C2597 1.429 . S
C2581 H2603 0.950 . S
C2582 H2578 0.949 . S
C2582 C2590 1.574 . S
C2582 C2598 1.368 . S
H2583 C2591 0.950 . S
H2584 C2589 0.950 . S
H2585 C2590 0.949 . S
H2586 C2592 0.950 . S
H2587 C2593 0.950 . S
H2588 C2594 0.949 . S
C2589 H2584 0.950 . S
C2589 C2591 1.327 . S
C2589 C2595 1.429 . S
C2590 C2582 1.574 . S
C2590 H2585 0.949 . S
C2590 C2596 1.368 . S
C2591 C2575 1.349 . S
C2591 H2583 0.950 . S
C2591 C2589 1.327 . S
C2592 C2580 1.349 . S
C2592 H2586 0.950 . S
C2592 C2593 1.327 . S
C2593 H2587 0.950 . S
C2593 C2592 1.327 . S
C2593 C2597 1.429 . S
C2594 C2577 1.574 . S
C2594 H2588 0.949 . S
C2594 C2598 1.368 . S
C2595 C2576 1.429 . S
C2595 C2589 1.429 . S
C2595 C2596 1.523 . S
C2596 C2577 1.368 . S
C2596 C2590 1.368 . S
C2596 C2595 1.523 . S
C2597 C2581 1.429 . S
C2597 C2593 1.429 . S
C2597 C2598 1.523 . S
C2598 C2582 1.368 . S
C2598 C2594 1.368 . S
C2598 C2597 1.523 . S
H2599 C2574 0.950 . S
H2600 C2576 0.950 . S
H2601 C2577 0.949 . S
H2602 C2579 0.950 . S
H2603 C2581 0.950 . S
C2604 C2605 1.349 . S
C2604 C2606 1.327 . S
C2604 H2629 0.950 . S
C2605 C2604 1.349 . S
C2605 C2621 1.349 . S
C2606 C2604 1.327 . S
C2606 C2625 1.429 . S
C2606 H2630 0.950 . S
C2607 C2624 1.574 . S
C2607 C2626 1.368 . S
C2607 H2631 0.949 . S
H2608 C2612 0.949 . S
C2609 C2610 1.349 . S
C2609 C2611 1.327 . S
C2609 H2632 0.950 . S
C2610 C2609 1.349 . S
C2610 C2622 1.349 . S
C2611 C2609 1.327 . S
C2611 C2627 1.429 . S
C2611 H2633 0.950 . S
C2612 H2608 0.949 . S
C2612 C2620 1.574 . S
C2612 C2628 1.368 . S
H2613 C2621 0.950 . S
H2614 C2619 0.950 . S
H2615 C2620 0.949 . S
H2616 C2622 0.950 . S
H2617 C2623 0.950 . S
H2618 C2624 0.949 . S
C2619 H2614 0.950 . S
C2619 C2621 1.327 . S
C2619 C2625 1.429 . S
C2620 C2612 1.574 . S
C2620 H2615 0.949 . S
C2620 C2626 1.368 . S
C2621 C2605 1.349 . S
C2621 H2613 0.950 . S
C2621 C2619 1.327 . S
C2622 C2610 1.349 . S
C2622 H2616 0.950 . S
C2622 C2623 1.327 . S
C2623 H2617 0.950 . S
C2623 C2622 1.327 . S
C2623 C2627 1.429 . S
C2624 C2607 1.574 . S
C2624 H2618 0.949 . S
C2624 C2628 1.368 . S
C2625 C2606 1.429 . S
C2625 C2619 1.429 . S
C2625 C2626 1.523 . S
C2626 C2607 1.368 . S
C2626 C2620 1.368 . S
C2626 C2625 1.523 . S
C2627 C2611 1.429 . S
C2627 C2623 1.429 . S
C2627 C2628 1.523 . S
C2628 C2612 1.368 . S
C2628 C2624 1.368 . S
C2628 C2627 1.523 . S
H2629 C2604 0.950 . S
H2630 C2606 0.950 . S
H2631 C2607 0.949 . S
H2632 C2609 0.950 . S
H2633 C2611 0.950 . S
C2634 C2635 1.349 . S
C2634 C2636 1.327 . S
C2634 H2659 0.950 . S
C2635 C2634 1.349 . S
C2635 C2651 1.349 . S
C2636 C2634 1.327 . S
C2636 C2655 1.429 . S
C2636 H2660 0.950 . S
C2637 C2654 1.574 . S
C2637 C2656 1.368 . S
C2637 H2661 0.949 . S
H2638 C2642 0.949 . S
C2639 C2640 1.349 . S
C2639 C2641 1.327 . S
C2639 H2662 0.950 . S
C2640 C2639 1.349 . S
C2640 C2652 1.349 . S
C2641 C2639 1.327 . S
C2641 C2657 1.429 . S
C2641 H2663 0.950 . S
C2642 H2638 0.949 . S
C2642 C2650 1.574 . S
C2642 C2658 1.368 . S
H2643 C2651 0.950 . S
H2644 C2649 0.950 . S
H2645 C2650 0.949 . S
H2646 C2652 0.950 . S
H2647 C2653 0.950 . S
H2648 C2654 0.949 . S
C2649 H2644 0.950 . S
C2649 C2651 1.327 . S
C2649 C2655 1.429 . S
C2650 C2642 1.574 . S
C2650 H2645 0.949 . S
C2650 C2656 1.368 . S
C2651 C2635 1.349 . S
C2651 H2643 0.950 . S
C2651 C2649 1.327 . S
C2652 C2640 1.349 . S
C2652 H2646 0.950 . S
C2652 C2653 1.327 . S
C2653 H2647 0.950 . S
C2653 C2652 1.327 . S
C2653 C2657 1.429 . S
C2654 C2637 1.574 . S
C2654 H2648 0.949 . S
C2654 C2658 1.368 . S
C2655 C2636 1.429 . S
C2655 C2649 1.429 . S
C2655 C2656 1.523 . S
C2656 C2637 1.368 . S
C2656 C2650 1.368 . S
C2656 C2655 1.523 . S
C2657 C2641 1.429 . S
C2657 C2653 1.429 . S
C2657 C2658 1.523 . S
C2658 C2642 1.368 . S
C2658 C2654 1.368 . S
C2658 C2657 1.523 . S
H2659 C2634 0.950 . S
H2660 C2636 0.950 . S
H2661 C2637 0.949 . S
H2662 C2639 0.950 . S
H2663 C2641 0.950 . S
C2664 C2665 1.349 . S
C2664 C2666 1.327 . S
C2664 H2689 0.950 . S
C2665 C2664 1.349 . S
C2665 C2681 1.349 . S
C2666 C2664 1.327 . S
C2666 C2685 1.429 . S
C2666 H2690 0.950 . S
C2667 C2684 1.574 . S
C2667 C2686 1.368 . S
C2667 H2691 0.949 . S
H2668 C2672 0.949 . S
C2669 C2670 1.349 . S
C2669 C2671 1.327 . S
C2669 H2692 0.950 . S
C2670 C2669 1.349 . S
C2670 C2682 1.349 . S
C2671 C2669 1.327 . S
C2671 C2687 1.429 . S
C2671 H2693 0.950 . S
C2672 H2668 0.949 . S
C2672 C2680 1.574 . S
C2672 C2688 1.368 . S
H2673 C2681 0.950 . S
H2674 C2679 0.950 . S
H2675 C2680 0.949 . S
H2676 C2682 0.950 . S
H2677 C2683 0.950 . S
H2678 C2684 0.949 . S
C2679 H2674 0.950 . S
C2679 C2681 1.327 . S
C2679 C2685 1.429 . S
C2680 C2672 1.574 . S
C2680 H2675 0.949 . S
C2680 C2686 1.368 . S
C2681 C2665 1.349 . S
C2681 H2673 0.950 . S
C2681 C2679 1.327 . S
C2682 C2670 1.349 . S
C2682 H2676 0.950 . S
C2682 C2683 1.327 . S
C2683 H2677 0.950 . S
C2683 C2682 1.327 . S
C2683 C2687 1.429 . S
C2684 C2667 1.574 . S
C2684 H2678 0.949 . S
C2684 C2688 1.368 . S
C2685 C2666 1.429 . S
C2685 C2679 1.429 . S
C2685 C2686 1.523 . S
C2686 C2667 1.368 . S
C2686 C2680 1.368 . S
C2686 C2685 1.523 . S
C2687 C2671 1.429 . S
C2687 C2683 1.429 . S
C2687 C2688 1.523 . S
C2688 C2672 1.368 . S
C2688 C2684 1.368 . S
C2688 C2687 1.523 . S
H2689 C2664 0.950 . S
H2690 C2666 0.950 . S
H2691 C2667 0.949 . S
H2692 C2669 0.950 . S
H2693 C2671 0.950 . S
C2694 C2695 1.349 . S
C2694 C2696 1.327 . S
C2694 H2719 0.950 . S
C2695 C2694 1.349 . S
C2695 C2711 1.349 . S
C2696 C2694 1.327 . S
C2696 C2715 1.429 . S
C2696 H2720 0.950 . S
C2697 C2714 1.574 . S
C2697 C2716 1.368 . S
C2697 H2721 0.949 . S
H2698 C2702 0.949 . S
C2699 C2700 1.349 . S
C2699 C2701 1.327 . S
C2699 H2722 0.950 . S
C2700 C2699 1.349 . S
C2700 C2712 1.349 . S
C2701 C2699 1.327 . S
C2701 C2717 1.429 . S
C2701 H2723 0.950 . S
C2702 H2698 0.949 . S
C2702 C2710 1.574 . S
C2702 C2718 1.368 . S
H2703 C2711 0.950 . S
H2704 C2709 0.950 . S
H2705 C2710 0.949 . S
H2706 C2712 0.950 . S
H2707 C2713 0.950 . S
H2708 C2714 0.949 . S
C2709 H2704 0.950 . S
C2709 C2711 1.327 . S
C2709 C2715 1.429 . S
C2710 C2702 1.574 . S
C2710 H2705 0.949 . S
C2710 C2716 1.368 . S
C2711 C2695 1.349 . S
C2711 H2703 0.950 . S
C2711 C2709 1.327 . S
C2712 C2700 1.349 . S
C2712 H2706 0.950 . S
C2712 C2713 1.327 . S
C2713 H2707 0.950 . S
C2713 C2712 1.327 . S
C2713 C2717 1.429 . S
C2714 C2697 1.574 . S
C2714 H2708 0.949 . S
C2714 C2718 1.368 . S
C2715 C2696 1.429 . S
C2715 C2709 1.429 . S
C2715 C2716 1.523 . S
C2716 C2697 1.368 . S
C2716 C2710 1.368 . S
C2716 C2715 1.523 . S
C2717 C2701 1.429 . S
C2717 C2713 1.429 . S
C2717 C2718 1.523 . S
C2718 C2702 1.368 . S
C2718 C2714 1.368 . S
C2718 C2717 1.523 . S
H2719 C2694 0.950 . S
H2720 C2696 0.950 . S
H2721 C2697 0.949 . S
H2722 C2699 0.950 . S
H2723 C2701 0.950 . S
C2724 C2725 1.349 . S
C2724 C2726 1.327 . S
C2724 H2749 0.950 . S
C2725 C2724 1.349 . S
C2725 C2741 1.349 . S
C2726 C2724 1.327 . S
C2726 C2745 1.429 . S
C2726 H2750 0.950 . S
C2727 C2744 1.574 . S
C2727 C2746 1.368 . S
C2727 H2751 0.949 . S
H2728 C2732 0.949 . S
C2729 C2730 1.349 . S
C2729 C2731 1.327 . S
C2729 H2752 0.950 . S
C2730 C2729 1.349 . S
C2730 C2742 1.349 . S
C2731 C2729 1.327 . S
C2731 C2747 1.429 . S
C2731 H2753 0.950 . S
C2732 H2728 0.949 . S
C2732 C2740 1.574 . S
C2732 C2748 1.368 . S
H2733 C2741 0.950 . S
H2734 C2739 0.950 . S
H2735 C2740 0.949 . S
H2736 C2742 0.950 . S
H2737 C2743 0.950 . S
H2738 C2744 0.949 . S
C2739 H2734 0.950 . S
C2739 C2741 1.327 . S
C2739 C2745 1.429 . S
C2740 C2732 1.574 . S
C2740 H2735 0.949 . S
C2740 C2746 1.368 . S
C2741 C2725 1.349 . S
C2741 H2733 0.950 . S
C2741 C2739 1.327 . S
C2742 C2730 1.349 . S
C2742 H2736 0.950 . S
C2742 C2743 1.327 . S
C2743 H2737 0.950 . S
C2743 C2742 1.327 . S
C2743 C2747 1.429 . S
C2744 C2727 1.574 . S
C2744 H2738 0.949 . S
C2744 C2748 1.368 . S
C2745 C2726 1.429 . S
C2745 C2739 1.429 . S
C2745 C2746 1.523 . S
C2746 C2727 1.368 . S
C2746 C2740 1.368 . S
C2746 C2745 1.523 . S
C2747 C2731 1.429 . S
C2747 C2743 1.429 . S
C2747 C2748 1.523 . S
C2748 C2732 1.368 . S
C2748 C2744 1.368 . S
C2748 C2747 1.523 . S
H2749 C2724 0.950 . S
H2750 C2726 0.950 . S
H2751 C2727 0.949 . S
H2752 C2729 0.950 . S
H2753 C2731 0.950 . S
C2754 C2755 1.349 . S
C2754 C2756 1.327 . S
C2754 H2779 0.950 . S
C2755 C2754 1.349 . S
C2755 C2771 1.349 . S
C2756 C2754 1.327 . S
C2756 C2775 1.429 . S
C2756 H2780 0.950 . S
C2757 C2774 1.574 . S
C2757 C2776 1.368 . S
C2757 H2781 0.949 . S
H2758 C2762 0.949 . S
C2759 C2760 1.349 . S
C2759 C2761 1.327 . S
C2759 H2782 0.950 . S
C2760 C2759 1.349 . S
C2760 C2772 1.349 . S
C2761 C2759 1.327 . S
C2761 C2777 1.429 . S
C2761 H2783 0.950 . S
C2762 H2758 0.949 . S
C2762 C2770 1.574 . S
C2762 C2778 1.368 . S
H2763 C2771 0.950 . S
H2764 C2769 0.950 . S
H2765 C2770 0.949 . S
H2766 C2772 0.950 . S
H2767 C2773 0.950 . S
H2768 C2774 0.949 . S
C2769 H2764 0.950 . S
C2769 C2771 1.327 . S
C2769 C2775 1.429 . S
C2770 C2762 1.574 . S
C2770 H2765 0.949 . S
C2770 C2776 1.368 . S
C2771 C2755 1.349 . S
C2771 H2763 0.950 . S
C2771 C2769 1.327 . S
C2772 C2760 1.349 . S
C2772 H2766 0.950 . S
C2772 C2773 1.327 . S
C2773 H2767 0.950 . S
C2773 C2772 1.327 . S
C2773 C2777 1.429 . S
C2774 C2757 1.574 . S
C2774 H2768 0.949 . S
C2774 C2778 1.368 . S
C2775 C2756 1.429 . S
C2775 C2769 1.429 . S
C2775 C2776 1.523 . S
C2776 C2757 1.368 . S
C2776 C2770 1.368 . S
C2776 C2775 1.523 . S
C2777 C2761 1.429 . S
C2777 C2773 1.429 . S
C2777 C2778 1.523 . S
C2778 C2762 1.368 . S
C2778 C2774 1.368 . S
C2778 C2777 1.523 . S
H2779 C2754 0.950 . S
H2780 C2756 0.950 . S
H2781 C2757 0.949 . S
H2782 C2759 0.950 . S
H2783 C2761 0.950 . S
C630 C354 1.415 . S
C625 C308 1.480 . S
C655 C282 1.253 . S
C660 C348 1.201 . S
C690 C316 1.346 . S
C685 C269 1.415 . S
C715 C295 1.689 . S
C720 C330 1.582 . S
C750 C368 1.998 . S
C745 C217 2.101 . S
C780 C455 1.526 . S
C775 C230 1.558 . S
C805 C243 2.166 . S
C810 C382 2.058 . S
C840 C450 0.895 . S
C835 C256 0.906 . S
C865 C165 2.165 . S
C870 C406 2.073 . S
C900 C461 1.349 . S
C895 C178 1.380 . S
C925 C191 2.107 . S
C930 C400 2.009 . S
C955 C204 1.216 . S
C960 C446 1.192 . S
C990 C502 1.232 . S
C985 C152 1.255 . S
C1015 C126 1.476 . S
C1020 C513 1.450 . S
C1045 C113 1.086 . S
C1050 C498 1.073 . S
C1080 C507 1.741 . S
C1075 C139 1.766 . S
C1105 C61 1.561 . S
C1110 C552 1.487 . S
C1135 C74 0.672 . S
C1140 C611 0.678 . S
C1165 C87 1.749 . S
C1170 C568 1.655 . S
C1195 C100 0.889 . S
C1200 C606 0.877 . S
C1230 C570 1.655 . S
C1225 C9 1.757 . S
C1260 C617 0.418 . S
C1255 C22 0.377 . S
C1285 C35 1.571 . S
C1290 C546 1.502 . S
C1320 C602 1.053 . S
C1315 C48 1.079 . S
C1350 C338 1.469 . S
C1345 C4 1.337 . S
C1375 C21 1.201 . S
C1380 C342 1.208 . S
C1405 C34 1.877 . S
C1410 C362 1.820 . S
C1435 C43 0.743 . S
C1440 C357 0.736 . S
C1465 C56 1.394 . S
C1470 C360 1.487 . S
C1500 C346 0.999 . S
C1495 C69 0.925 . S
C1525 C86 1.826 . S
C1530 C344 1.770 . S
C1560 C351 0.851 . S
C1555 C99 0.845 . S
C1590 C414 1.649 . S
C1585 C47 1.703 . S
C1615 C8 2.099 . S
C1620 C464 2.018 . S
C1650 C412 0.883 . S
C1645 C17 0.850 . S
C1680 C448 1.604 . S
C1675 C30 1.471 . S
C1705 C73 1.336 . S
C1710 C390 1.303 . S
C1740 C466 1.675 . S
C1735 C82 1.564 . S
C1770 C396 1.151 . S
C1765 C95 1.052 . S
C1800 C442 1.944 . S
C1795 C60 2.028 . S
C1830 C434 1.425 . S
C1825 C112 1.440 . S
C1855 C125 1.224 . S
C1860 C458 1.228 . S
C1890 C394 1.037 . S
C1885 C108 0.944 . S
C1920 C420 1.492 . S
C1915 C138 1.526 . S
C1945 C147 0.919 . S
C1950 C398 1.007 . S
C1975 C151 1.641 . S
C1980 C452 1.611 . S
C2010 C409 1.337 . S
C2005 C121 1.171 . S
C2040 C403 1.384 . S
C2035 C134 1.210 1_554 S
C2070 C486 1.854 . S
C2065 C160 1.690 . S
C2100 C518 1.383 . S
C2095 C177 1.388 . S
C2125 C190 2.203 . S
C2130 C472 2.133 . S
C2160 C516 0.934 . S
C2155 C199 0.878 . S
C2190 C504 1.795 . S
C2185 C212 1.651 . S
C2215 C225 1.052 . S
C2220 C500 1.180 . S
C2245 C242 2.242 . S
C2250 C510 2.206 . S
C2280 C494 0.999 . S
C2275 C255 1.010 . S
C2310 C559 1.510 . S
C2305 C203 1.498 . S
C2335 C164 1.766 . S
C2340 C620 1.727 . S
C2370 C554 0.773 . S
C2365 C173 0.762 . S
C2400 C604 1.436 . S
C2395 C186 1.267 . S
C2430 C550 1.164 . S
C2425 C229 1.156 . S
C2455 C238 1.222 . S
C2460 C622 1.379 . S
C2490 C565 1.010 . S
C2485 C251 0.913 . S
C2520 C598 1.604 . S
C2515 C216 1.652 . S
C2550 C590 1.557 . S
C2545 C268 1.595 . S
C2575 C281 1.690 . S
C2580 C614 1.633 . S
C2610 C556 1.273 . S
C2605 C264 1.173 . S
C2635 C294 2.054 . S
C2640 C576 1.955 . S
C2670 C538 1.335 . S
C2665 C303 1.242 . S
C2700 C608 1.724 . S
C2695 C307 1.782 . S
C2730 C524 1.280 . S
C2725 C277 1.194 . S
C2755 C290 1.162 . S
C2760 C562 1.259 . S
