# Generated by pormake.
# Topology zzz, (3,6)-cn, num edge types: 1
# Building blocks:
#     Node 0, Type 0, BuildingBlock: CUQRIR_clean_linker_1, # of connection points: 3
#     Node 1, Type 0, BuildingBlock: CUQRIR_clean_linker_1, # of connection points: 3
#     Node 2, Type 0, BuildingBlock: CUQRIR_clean_linker_1, # of connection points: 3
#     Node 3, Type 0, BuildingBlock: CUQRIR_clean_linker_1, # of connection points: 3
#     Node 4, Type 0, BuildingBlock: CUQRIR_clean_linker_1, # of connection points: 3
#     Node 5, Type 0, BuildingBlock: CUQRIR_clean_linker_1, # of connection points: 3
#     Node 6, Type 0, BuildingBlock: CUQRIR_clean_linker_1, # of connection points: 3
#     Node 7, Type 0, BuildingBlock: CUQRIR_clean_linker_1, # of connection points: 3
#     Node 8, Type 1, BuildingBlock: GEDQOX_clean_sbu_0, # of connection points: 6
#     Node 9, Type 1, BuildingBlock: GEDQOX_clean_sbu_0, # of connection points: 6
#     Node 10, Type 1, BuildingBlock: GEDQOX_clean_sbu_0, # of connection points: 6
#     Node 11, Type 1, BuildingBlock: GEDQOX_clean_sbu_0, # of connection points: 6
#     Edge 12, Type (0, 1), BuildingBlock: OJICUG_clean_linker_0, # of connection points: 2
#     Edge 13, Type (0, 1), BuildingBlock: OJICUG_clean_linker_0, # of connection points: 2
#     Edge 14, Type (0, 1), BuildingBlock: OJICUG_clean_linker_0, # of connection points: 2
#     Edge 15, Type (0, 1), BuildingBlock: OJICUG_clean_linker_0, # of connection points: 2
#     Edge 16, Type (0, 1), BuildingBlock: OJICUG_clean_linker_0, # of connection points: 2
#     Edge 17, Type (0, 1), BuildingBlock: OJICUG_clean_linker_0, # of connection points: 2
#     Edge 18, Type (0, 1), BuildingBlock: OJICUG_clean_linker_0, # of connection points: 2
#     Edge 19, Type (0, 1), BuildingBlock: OJICUG_clean_linker_0, # of connection points: 2
#     Edge 20, Type (0, 1), BuildingBlock: OJICUG_clean_linker_0, # of connection points: 2
#     Edge 21, Type (0, 1), BuildingBlock: OJICUG_clean_linker_0, # of connection points: 2
#     Edge 22, Type (0, 1), BuildingBlock: OJICUG_clean_linker_0, # of connection points: 2
#     Edge 23, Type (0, 1), BuildingBlock: OJICUG_clean_linker_0, # of connection points: 2
#     Edge 24, Type (0, 1), BuildingBlock: OJICUG_clean_linker_0, # of connection points: 2
#     Edge 25, Type (0, 1), BuildingBlock: OJICUG_clean_linker_0, # of connection points: 2
#     Edge 26, Type (0, 1), BuildingBlock: OJICUG_clean_linker_0, # of connection points: 2
#     Edge 27, Type (0, 1), BuildingBlock: OJICUG_clean_linker_0, # of connection points: 2
#     Edge 28, Type (0, 1), BuildingBlock: OJICUG_clean_linker_0, # of connection points: 2
#     Edge 29, Type (0, 1), BuildingBlock: OJICUG_clean_linker_0, # of connection points: 2
#     Edge 30, Type (0, 1), BuildingBlock: OJICUG_clean_linker_0, # of connection points: 2
#     Edge 31, Type (0, 1), BuildingBlock: OJICUG_clean_linker_0, # of connection points: 2
#     Edge 32, Type (0, 1), BuildingBlock: OJICUG_clean_linker_0, # of connection points: 2
#     Edge 33, Type (0, 1), BuildingBlock: OJICUG_clean_linker_0, # of connection points: 2
#     Edge 34, Type (0, 1), BuildingBlock: OJICUG_clean_linker_0, # of connection points: 2
#     Edge 35, Type (0, 1), BuildingBlock: OJICUG_clean_linker_0, # of connection points: 2
# Relax obj value: 0.145
# Max RMSD: 0.234
# Mean RMSD: 0.095
data_MOF--net-zzz--node1-GEDQOX_clean_sbu_0--node2-CUQRIR_clean_linker_1--edge1-OJICUG_clean_linker_0
_symmetry_space_group_name_H-M    P1
_symmetry_Int_Tables_number       1
_symmetry_cell_setting            triclinic
loop_
_symmetry_equiv_pos_as_xyz
'x, y, z'
_cell_length_a     36.587275
_cell_length_b     35.795432
_cell_length_c     11.855955
_cell_angle_alpha  74.507082
_cell_angle_beta   88.796282
_cell_angle_gamma 101.95915
loop_
_atom_site_label
_atom_site_type_symbol
_atom_site_fract_x
_atom_site_fract_y
_atom_site_fract_z
_atom_type_partial_charge
C0 C 0.77974 0.58444 0.16516 0.0
N1 N 0.81357 0.57525 0.18206 0.0
N2 N 0.76626 0.5756 0.06766 0.0
C3 C 0.75725 0.59649 0.25154 0.0
C4 C 0.79274 0.56028 1.0266 0.0
N5 N 0.82136 0.55989 0.09633 0.0
C6 C 0.79094 0.54703 0.91641 0.0
H7 H 0.73715 0.56968 0.30556 0.0
H8 H 0.74076 0.61771 0.20426 0.0
H9 H 0.77516 0.6099 0.31096 0.0
H10 H 0.77198 0.56169 0.85655 0.0
H11 H 0.77992 0.51441 0.93988 0.0
H12 H 0.81929 0.55392 0.87046 0.0
C13 C 1.00489 0.75036 0.34039 0.0
N14 N 0.01253 0.78967 0.33456 0.0
N15 N 0.01593 0.74446 0.23655 0.0
C16 C 0.98477 0.71827 0.44372 0.0
C17 C 0.03048 0.7818 0.16823 0.0
N18 N 0.02883 0.80856 0.22823 0.0
C19 C 0.04714 0.79245 0.04358 0.0
H20 H 1.00572 0.70775 0.50333 0.0
H21 H 0.96893 0.69316 0.41408 0.0
H22 H 0.96541 0.72962 0.49268 0.0
H23 H 0.02424 0.79354 0.98369 0.0
H24 H 0.06236 0.76991 0.03108 0.0
H25 H 0.06663 0.82209 1.01918 0.0
C26 C 0.80378 0.99886 0.24879 0.0
N27 N 0.76907 0.00638 0.24751 0.0
N28 N 0.81937 0.00683 0.13734 0.0
C29 C 0.82362 0.98742 0.3584 0.0
C30 C 0.79264 0.01947 0.06878 0.0
N31 N 0.76236 0.01962 0.13574 0.0
C32 C 0.79465 0.02799 0.93732 0.0
H33 H 0.85339 1.0037 0.34413 0.0
H34 H 0.8228 0.95511 0.381 0.0
H35 H 0.81001 0.99374 0.43361 0.0
H36 H 0.81464 0.0127 0.90631 0.0
H37 H 0.80416 0.06047 0.89708 0.0
H38 H 0.76654 0.01823 0.90789 0.0
C39 C 0.55472 0.83991 0.64616 0.0
N40 N 0.55089 0.80083 0.64786 0.0
N41 N 0.5454 0.86175 0.54089 0.0
C42 C 0.56921 0.85712 0.7425 0.0
C43 C 0.53507 0.83455 0.48169 0.0
N44 N 0.53925 0.79891 0.54429 0.0
C45 C 0.52218 0.84287 0.35884 0.0
H46 H 0.5499 0.87485 0.76407 0.0
H47 H 0.59688 0.87756 0.71133 0.0
H48 H 0.57213 0.83348 0.82198 0.0
H49 H 0.54684 0.85023 0.29438 0.0
H50 H 0.50792 0.86812 0.34013 0.0
H51 H 0.50267 0.81633 0.34659 0.0
C52 C 0.30481 0.52638 0.83951 0.0
N53 N 0.27133 0.53668 0.83162 0.0
N54 N 0.32213 0.53612 0.9309 0.0
C55 C 0.32137 0.50909 0.75352 0.0
C56 C 0.29802 0.55299 0.9776 0.0
N57 N 0.26729 0.55362 0.91655 0.0
C58 C 0.30554 0.57046 0.07904 0.0
H59 H 0.30518 0.47829 0.76489 0.0
H60 H 0.35123 0.50851 0.76599 0.0
H61 H 0.31876 0.52657 0.66259 0.0
H62 H 0.31903 0.60246 0.04439 0.0
H63 H 0.32482 0.55552 0.13669 0.0
H64 H 0.27919 0.56791 0.13125 0.0
C65 C 0.07589 0.35568 0.65054 0.0
N66 N 0.07907 0.31785 0.66151 0.0
N67 N 0.07283 0.36253 0.75816 0.0
C68 C 0.07391 0.38477 0.53544 0.0
C69 C 0.07321 0.32691 0.8343 0.0
N70 N 0.07695 0.30025 0.77556 0.0
C71 C 0.06649 0.31717 0.96576 0.0
H72 H 0.09698 0.38511 0.47264 0.0
H73 H 0.07566 0.4148 0.54598 0.0
H74 H 0.04704 0.37508 0.49896 0.0
H75 H 0.04268 0.32927 0.98887 0.0
H76 H 0.09179 0.33136 1.00144 0.0
H77 H 0.06078 0.28471 1.00827 0.0
C78 C 0.28652 0.11101 0.7493 0.0
N79 N 0.32208 0.10598 0.75572 0.0
N80 N 0.26922 0.10264 0.85868 0.0
C81 C 0.2677 0.1199 0.63658 0.0
C82 C 0.29585 0.092 0.93132 0.0
N83 N 0.32778 0.09372 0.86852 0.0
C84 C 0.29184 0.08321 0.06272 0.0
H85 H 0.26793 0.15209 0.6078 0.0
H86 H 0.23816 0.10295 0.64941 0.0
H87 H 0.28257 0.11241 0.56593 0.0
H88 H 0.28314 0.05061 0.10204 0.0
H89 H 0.27042 0.09749 0.09076 0.0
H90 H 0.31906 0.09388 0.09595 0.0
C91 C 0.54245 0.27154 0.35378 0.0
N92 N 0.52698 0.30347 0.34939 0.0
N93 N 0.53123 0.24281 0.45734 0.0
C94 C 0.56774 0.26765 0.2586 0.0
C95 C 0.50863 0.25836 0.51429 0.0
N96 N 0.5075 0.29554 0.45216 0.0
C97 C 0.49352 0.24031 0.64119 0.0
H98 H 0.55293 0.24368 0.22219 0.0
H99 H 0.59313 0.25857 0.29615 0.0
H100 H 0.57589 0.29557 0.18662 0.0
H101 H 0.51721 0.23936 0.6981 0.0
H102 H 0.47741 0.20941 0.65437 0.0
H103 H 0.47475 0.25748 0.66884 0.0
Nd104 Nd 0.03743 0.04927 0.86618 0.0
Nd105 Nd 0.04978 0.0601 0.11573 0.0
C106 C 0.01776 0.01677 0.69115 0.0
C107 C 0.01497 0.97868 0.65649 0.0
C108 C 0.97999 0.95264 0.66009 0.0
C109 C 0.97693 0.91851 0.61955 0.0
C110 C 0.00879 0.90909 0.57446 0.0
C111 C 0.04374 0.93515 0.57108 0.0
C112 C 0.04676 0.96934 0.6108 0.0
C113 C 0.11035 0.07849 0.90381 0.0
C114 C 0.04642 0.97495 0.08992 0.0
C115 C 0.06817 0.09187 0.29289 0.0
C116 C 0.06919 0.12916 0.3304 0.0
C117 C 0.09936 0.16252 0.29376 0.0
C118 C 0.10112 0.19616 0.33579 0.0
C119 C 0.07281 0.1977 0.4162 0.0
C120 C 0.04267 0.16423 0.45271 0.0
C121 C 0.04095 0.13064 0.4108 0.0
C122 C 0.97716 0.03039 0.07746 0.0
C123 C 0.04149 0.1345 0.89079 0.0
O124 O 0.99378 0.01766 0.77352 0.0
O125 O 0.05115 0.03787 0.69619 0.0
O126 O 0.09536 0.09018 0.80584 0.0
O127 O 0.08752 0.05082 0.97714 0.0
O128 O 0.03131 0.98802 0.99161 0.0
O129 O 0.06256 0.99866 0.15152 0.0
O130 O 0.09232 0.09274 0.20854 0.0
O131 O 0.03539 0.06946 0.28848 0.0
O132 O 0.99218 0.01848 0.17516 0.0
O133 O 0.99981 0.05849 1.00504 0.0
O134 O 0.05579 0.12159 0.99073 0.0
O135 O 0.02612 0.11119 0.82732 0.0
H136 H 0.95475 0.95892 0.69295 0.0
H137 H 0.9495 0.89936 0.62406 0.0
H138 H 0.06888 0.92969 0.53477 0.0
H139 H 0.07413 0.98881 0.60391 0.0
H140 H 0.12195 0.16258 0.23318 0.0
H141 H 0.12473 0.22111 0.30445 0.0
H142 H 0.02067 0.16341 0.51641 0.0
H143 H 0.01763 0.1054 0.44325 0.0
Nd144 Nd 0.54515 0.03351 0.91741 0.0
Nd145 Nd 0.54725 0.08628 0.07867 0.0
C146 C 0.54716 0.98373 0.78955 0.0
C147 C 0.57831 0.98139 0.71066 0.0
C148 C 0.60482 0.95891 0.75503 0.0
C149 C 0.63706 0.96122 0.68535 0.0
C150 C 0.64359 0.98609 0.56978 0.0
C151 C 0.61615 0.0069 0.52337 0.0
C152 C 0.58393 1.00458 0.59284 0.0
C153 C 0.56715 0.11425 0.80248 0.0
C154 C 0.62336 0.06201 1.01885 0.0
C155 C 0.53857 0.14316 0.17102 0.0
C156 C 0.50819 0.14057 0.25937 0.0
C157 C 0.48331 0.16616 0.23256 0.0
C158 C 0.451 0.15999 0.30671 0.0
C159 C 0.44279 0.12805 0.40979 0.0
C160 C 0.46807 0.10273 0.43687 0.0
C161 C 0.5003 0.10895 0.3629 0.0
C162 C 0.53638 0.01023 0.22754 0.0
C163 C 0.46581 0.05028 0.99837 0.0
O164 O 0.55171 0.9747 0.90206 0.0
O165 O 0.5325 0.01489 0.75561 0.0
O166 O 0.58415 0.08757 0.78623 0.0
O167 O 0.54124 0.09756 0.88326 0.0
O168 O 0.60125 0.03255 0.99105 0.0
O169 O 0.61067 0.09224 0.03604 0.0
O170 O 0.52747 0.14156 0.06801 0.0
O171 O 0.56334 0.12162 0.20519 0.0
O172 O 0.5363 0.04164 0.2607 0.0
O173 O 0.53954 0.01855 0.11594 0.0
O174 O 0.4848 0.07222 0.05931 0.0
O175 O 0.48169 0.03013 0.94075 0.0
H176 H 0.6013 0.94047 0.845 0.0
H177 H 0.65755 0.94464 0.72345 0.0
H178 H 0.61986 0.0255 0.43351 0.0
H179 H 0.56395 0.02191 0.55498 0.0
H180 H 0.48828 0.19026 0.1522 0.0
H181 H 0.43211 0.17987 0.28176 0.0
H182 H 0.46352 0.0785 0.51677 0.0
H183 H 0.51867 0.08844 0.38632 0.0
Nd184 Nd 0.535 0.55091 0.10088 0.0
Nd185 Nd 0.55398 0.55414 0.87474 0.0
C186 C 0.51251 0.56175 0.29577 0.0
C187 C 0.51901 0.60082 0.31576 0.0
C188 C 0.49871 0.62851 0.25708 0.0
C189 C 0.50847 0.66743 0.26152 0.0
C190 C 0.53806 0.67874 0.32642 0.0
C191 C 0.5599 0.65215 0.37892 0.0
C192 C 0.5502 0.61313 0.37457 0.0
C193 C 0.60983 0.5554 0.06033 0.0
C194 C 0.55543 0.63993 0.90327 0.0
C195 C 0.57323 0.54068 0.67941 0.0
C196 C 0.56192 0.50179 0.65779 0.0
C197 C 0.57282 0.46873 0.73115 0.0
C198 C 0.55682 0.43077 0.72531 0.0
C199 C 0.53045 0.42528 0.64386 0.0
C200 C 0.51865 0.458 0.57302 0.0
C201 C 0.53422 0.49603 0.58039 0.0
C202 C 0.47912 0.55004 0.91673 0.0
C203 C 0.53612 0.46613 0.07648 0.0
O204 O 0.48941 0.55632 0.216 0.0
O205 O 0.54295 0.54888 0.28572 0.0
O206 O 0.58885 0.52915 0.14644 0.0
O207 O 0.59149 0.57756 0.9965 0.0
O208 O 0.53478 0.61802 1.00136 0.0
O209 O 0.57264 0.62176 0.84279 0.0
O210 O 0.59669 0.54307 0.76029 0.0
O211 O 0.54542 0.55757 0.68888 0.0
O212 O 0.50025 0.57658 0.83175 0.0
O213 O 0.49751 0.52751 0.97902 0.0
O214 O 0.55668 0.48811 0.97864 0.0
O215 O 0.51757 0.48363 0.13457 0.0
H216 H 0.47524 0.62028 0.20784 0.0
H217 H 0.4913 0.68798 0.22184 0.0
H218 H 0.58256 0.66074 0.43075 0.0
H219 H 0.56703 0.59264 0.4171 0.0
H220 H 0.59324 0.47194 0.79467 0.0
H221 H 0.56612 0.40576 0.78122 0.0
H222 H 0.49863 0.45442 0.50855 0.0
H223 H 0.52418 0.52089 0.52728 0.0
Nd224 Nd 0.04229 0.57686 0.87592 0.0
Nd225 Nd 0.03966 0.52835 0.12909 0.0
C226 C 0.02258 0.62633 0.69339 0.0
C227 C 0.99094 0.61895 0.61959 0.0
C228 C 0.95825 0.63249 0.63521 0.0
C229 C 0.92734 0.62411 0.57141 0.0
C230 C 0.92819 0.60156 0.49143 0.0
C231 C 0.96052 0.58729 0.47704 0.0
C232 C 0.99162 0.59596 0.5402 0.0
C233 C 0.04203 0.50062 0.867 0.0
C234 C 0.96223 0.52434 1.02262 0.0
C235 C 0.0593 0.48795 0.33027 0.0
C236 C 0.09223 0.49631 0.39808 0.0
C237 C 0.1216 0.47648 0.39743 0.0
C238 C 0.15189 0.48278 0.46525 0.0
C239 C 0.15422 0.51036 0.5309 0.0
C240 C 0.12584 0.53155 0.5279 0.0
C241 C 0.09492 0.52432 0.46316 0.0
C242 C 0.02477 0.60201 0.10739 0.0
C243 C 0.12142 0.5771 0.98284 0.0
O244 O 0.01286 0.62491 0.80166 0.0
O245 O 0.05063 0.60921 0.68588 0.0
O246 O 0.04248 0.53025 0.77645 0.0
O247 O 0.04114 0.51122 0.96065 0.0
O248 O 0.98083 0.55464 0.93855 0.0
O249 O 0.97949 0.5022 0.10106 0.0
O250 O 0.06563 0.48023 0.23078 0.0
O251 O 0.03525 0.51066 0.32357 0.0
O252 O 0.00742 0.56945 0.18277 0.0
O253 O 0.05044 0.59541 0.04556 0.0
O254 O 0.10188 0.55396 0.07972 0.0
O255 O 0.10539 0.59327 0.88899 0.0
H256 H 0.95663 0.64989 0.69644 0.0
H257 H 0.90273 0.63531 0.58459 0.0
H258 H 0.96197 0.56994 0.41555 0.0
H259 H 0.01602 0.58441 0.52722 0.0
H260 H 0.12068 0.45529 0.34667 0.0
H261 H 0.17364 0.46629 0.46593 0.0
H262 H 0.12719 0.55306 0.57781 0.0
H263 H 0.07317 0.54066 0.46451 0.0
C264 C 0.2122 0.12986 0.82888 0.0
C265 C 0.23009 0.10003 0.88852 0.0
H266 H 0.15993 0.14603 0.78586 0.0
C267 C 0.20833 0.06562 0.96782 0.0
H268 H 0.22837 0.15714 0.76991 0.0
C269 C 0.16924 0.05986 0.98045 0.0
C270 C 0.15127 0.08799 0.91161 0.0
H271 H 0.22127 0.04203 1.01449 0.0
H272 H 0.153 0.03218 0.03754 0.0
C273 C 0.17312 0.12362 0.83876 0.0
C274 C 0.5802 0.21308 0.56493 0.0
C275 C 0.54557 0.20839 0.51462 0.0
H276 H 0.61437 0.1869 0.69671 0.0
C277 C 0.52016 0.17161 0.55369 0.0
H278 H 0.59969 0.24171 0.54014 0.0
C279 C 0.52782 0.14093 0.64467 0.0
C280 C 0.56144 0.14619 0.69933 0.0
H281 H 0.49265 0.16835 0.52171 0.0
H282 H 0.50665 0.11359 0.67586 0.0
C283 C 0.58822 0.18208 0.65605 0.0
C284 C 0.38544 0.57711 0.89035 0.0
C285 C 0.36127 0.54072 0.94604 0.0
H286 H 0.44215 0.60842 0.8374 0.0
C287 C 0.37591 0.50812 1.00377 0.0
H288 H 0.37422 0.60237 0.84576 0.0
C289 C 0.41475 0.5115 1.00032 0.0
C290 C 0.43886 0.54726 0.93666 0.0
H291 H 0.35728 0.47988 0.04705 0.0
H292 H 0.42576 0.48575 0.0418 0.0
C293 C 0.42401 0.58035 0.88505 0.0
C294 C 0.0855 0.41306 0.86964 0.0
C295 C 0.06474 0.39676 0.78851 0.0
H296 H 0.09376 0.45807 0.96219 0.0
C297 C 0.0345 0.41283 0.7432 0.0
H298 H 0.10916 0.40145 0.9053 0.0
C299 C 0.02616 0.44542 0.77411 0.0
C300 C 0.04695 0.46188 0.85435 0.0
H301 H 0.01744 0.40027 0.68317 0.0
H302 H 1.00363 0.45822 0.73379 0.0
C303 C 0.0765 0.44513 0.90311 0.0
C304 C 0.87926 0.04428 1.02451 0.0
C305 C 0.85791 0.00917 0.10178 0.0
H306 H 0.93422 0.07823 0.95343 0.0
C307 C 0.8758 0.97852 0.15435 0.0
H308 H 0.86621 0.06847 0.9834 0.0
C309 C 0.91479 0.98456 0.14017 0.0
C310 C 0.93633 0.02094 0.07045 0.0
H311 H 0.85981 0.95078 0.21158 0.0
H312 H 0.92825 0.96151 0.18794 0.0
C313 C 0.91818 0.04996 1.00781 0.0
C314 C 0.52532 0.92529 0.50945 0.0
C315 C 0.55118 0.90397 0.48465 0.0
H316 H 0.50072 0.97606 0.44772 0.0
C317 C 0.57322 0.91935 0.37652 0.0
H318 H 0.50724 0.91382 0.59011 0.0
C319 C 0.56584 0.95142 0.28947 0.0
C320 C 0.5398 0.97245 0.31316 0.0
H321 H 0.59287 0.90315 0.35386 0.0
H322 H 0.58 0.95932 0.20291 0.0
C323 C 0.52062 0.95997 0.42599 0.0
C324 C 0.70455 0.53188 0.09399 0.0
C325 C 0.72783 0.56928 0.0436 0.0
H326 H 0.64822 0.49832 0.13928 0.0
C327 C 0.71252 0.60124 0.98537 0.0
H328 H 0.71638 0.50715 0.13916 0.0
C329 C 0.67366 0.59627 0.98398 0.0
C330 C 0.65025 0.55955 0.04351 0.0
H331 H 0.73052 0.63025 0.94645 0.0
H332 H 0.66196 0.62157 0.94294 0.0
C333 C 0.66588 0.52706 0.09479 0.0
C334 C 0.03235 0.67858 0.27829 0.0
C335 C 0.01619 0.70777 0.20636 0.0
H336 H 0.04846 0.62279 0.30143 0.0
C337 C 1.00376 0.70231 0.09878 0.0
H338 H 0.04243 0.68202 0.36091 0.0
C339 C 0.00832 0.66902 0.06278 0.0
C340 C 0.02514 0.64031 0.13409 0.0
H341 H 0.99052 0.72389 0.0424 0.0
H342 H 0.99785 0.66523 0.98084 0.0
C343 C 0.0365 0.64515 0.24298 0.0
C344 C 0.09635 0.23769 0.81399 0.0
C345 C 0.06828 0.25823 0.82089 0.0
H346 H 0.10882 0.18136 0.82335 0.0
C347 C 0.03055 0.23808 0.84243 0.0
H348 H 0.12542 0.25338 0.7945 0.0
C349 C 0.02087 0.19735 0.85581 0.0
C350 C 0.04903 0.17707 0.84625 0.0
H351 H 0.00873 0.25428 0.84452 0.0
H352 H 0.99183 0.18162 0.87664 0.0
C353 C 0.08675 0.19723 0.82622 0.0
C354 C 0.39606 0.11008 0.87441 0.0
C355 C 0.36173 0.08292 0.91152 0.0
H356 H 0.45575 0.11998 0.87078 0.0
C357 C 0.36139 0.04398 0.97912 0.0
H358 H 0.3969 0.1402 0.82266 0.0
C359 C 0.39519 0.03218 1.00672 0.0
C360 C 0.42944 0.05939 0.96673 0.0
H361 H 0.33504 0.02257 1.00749 0.0
H362 H 0.3946 1.0022 0.05924 0.0
C363 C 0.42954 0.09841 0.90138 0.0
C364 C 0.54623 0.33998 0.54397 0.0
C365 C 0.51075 0.3255 0.51161 0.0
H366 H 0.58005 0.38288 0.61251 0.0
C367 C 0.47997 0.34018 0.5369 0.0
H368 H 0.56995 0.32817 0.52525 0.0
C369 C 0.48546 0.37143 0.58868 0.0
C370 C 0.52169 0.38742 0.61504 0.0
H371 H 0.45239 0.32833 0.51353 0.0
H372 H 0.46198 0.38405 0.60398 0.0
C373 C 0.55173 0.37066 0.59538 0.0
C374 C 0.21073 0.54249 0.0438 0.0
C375 C 0.23404 0.56556 0.94448 0.0
H376 H 0.15735 0.52916 0.13626 0.0
C377 C 0.22247 0.59703 0.86595 0.0
H378 H 0.21932 0.51797 0.10453 0.0
C379 C 0.18628 0.60299 0.88095 0.0
C380 C 0.1619 0.5781 0.97683 0.0
H381 H 0.24081 0.61573 0.79038 0.0
H382 H 0.17694 0.62574 0.81539 0.0
C383 C 0.17522 0.54905 0.06101 0.0
C384 C 0.06573 0.87412 0.22514 0.0
C385 C 0.03686 0.85054 0.18243 0.0
H386 H 0.09126 0.9332 0.231 0.0
C387 C 0.01137 0.8676 0.11219 0.0
H388 H 0.08503 0.86056 0.28165 0.0
C389 C 0.01424 0.9081 0.08569 0.0
C390 C 0.04299 0.93216 0.12832 0.0
H391 H 0.98832 0.8492 0.08259 0.0
H392 H 0.99355 0.92048 0.03259 0.0
C393 C 0.0688 0.91507 0.19832 0.0
C394 C 0.72823 0.06893 1.02354 0.0
C395 C 0.72817 0.03082 0.09727 0.0
H396 H 0.69438 0.10967 0.9399 0.0
C397 C 0.69409 0.00499 0.14529 0.0
H398 H 0.75445 0.08936 0.98591 0.0
C399 C 0.66089 0.01747 0.12645 0.0
C400 C 0.66028 0.05504 0.05263 0.0
H401 H 0.69324 0.97533 0.2005 0.0
H402 H 0.63537 0.99715 0.16829 0.0
C403 C 0.69422 0.08092 1.00006 0.0
C404 C 0.57171 0.76973 0.42198 0.0
C405 C 0.54015 0.7676 0.49436 0.0
H406 H 0.59568 0.74226 0.30764 0.0
C407 C 0.50769 0.73856 0.50427 0.0
H408 H 0.59649 0.79325 0.41293 0.0
C409 C 0.50663 0.71097 0.44211 0.0
C410 C 0.53829 0.71233 0.37115 0.0
H411 H 0.48322 0.73788 0.5584 0.0
H412 H 0.48154 0.68771 0.45249 0.0
C413 C 0.571 0.74159 0.36096 0.0
C414 C 0.85727 0.51107 0.06811 0.0
C415 C 0.85606 0.54928 0.07674 0.0
H416 H 0.89291 0.47212 0.04469 0.0
C417 C 0.88922 0.57704 0.07313 0.0
H418 H 0.83156 0.48933 0.07125 0.0
C419 C 0.92322 0.56683 0.06444 0.0
C420 C 0.92505 0.52913 0.0537 0.0
H421 H 0.88875 0.60676 0.07757 0.0
H422 H 0.94837 0.58932 0.06129 0.0
C423 C 0.89195 0.501 0.05562 0.0
C424 C 0.11125 0.28578 0.54082 0.0
C425 C 0.07843 0.29635 0.57309 0.0
H426 H 0.13549 0.2465 0.46936 0.0
C427 C 0.04403 0.27623 0.54585 0.0
H428 H 0.13799 0.29963 0.56507 0.0
C429 C 0.0423 0.24531 0.49207 0.0
C430 C 0.07499 0.23334 0.46406 0.0
H431 H 0.01822 0.28273 0.57347 0.0
H432 H 0.01505 0.23014 0.47514 0.0
C433 C 0.10963 0.25487 0.487 0.0
C434 C 0.36656 0.14946 0.59174 0.0
C435 C 0.34909 0.11119 0.65973 0.0
H436 H 0.41059 0.18507 0.46255 0.0
C437 C 0.36094 0.07834 0.6416 0.0
H438 H 0.35806 0.17511 0.60658 0.0
C439 C 0.39042 0.08368 0.55781 0.0
C440 C 0.40919 0.12215 0.49192 0.0
H441 H 0.34777 0.04863 0.69423 0.0
H442 H 0.39873 0.05758 0.54583 0.0
C443 C 0.39652 0.15497 0.50929 0.0
C444 C 0.49805 0.35651 0.23405 0.0
C445 C 0.53052 0.34152 0.25988 0.0
H446 H 0.47436 0.40674 0.15758 0.0
C447 C 0.56545 0.36759 0.21572 0.0
H448 H 0.47082 0.33773 0.2691 0.0
C449 C 0.56749 0.40743 0.14869 0.0
C450 C 0.53475 0.42248 0.12715 0.0
H451 H 0.59115 0.35796 0.23845 0.0
H452 H 0.59475 0.42712 0.12018 0.0
C453 C 0.5001 0.39621 0.1703 0.0
C454 C 0.22023 0.49156 0.77089 0.0
C455 C 0.24388 0.52928 0.75077 0.0
H456 H 0.17311 0.45595 0.71532 0.0
C457 C 0.2392 0.56026 0.65495 0.0
H458 H 0.2236 0.46745 0.84477 0.0
C459 C 0.21002 0.55415 0.58309 0.0
C460 C 0.18586 0.51657 0.60419 0.0
H461 H 0.25775 0.58931 0.63741 0.0
H462 H 0.20629 0.57869 0.51105 0.0
C463 C 0.19154 0.48513 0.69744 0.0
C464 C 0.03295 0.81922 0.49481 0.0
C465 C 1.00514 0.8102 0.42036 0.0
H466 H 0.05614 0.85702 0.60091 0.0
C467 C 0.97653 0.83166 0.40529 0.0
H468 H 0.05605 0.80429 0.50462 0.0
C469 C 0.97666 0.86239 0.45914 0.0
C470 C 1.00581 0.87306 0.52837 0.0
H471 H 0.95554 0.82649 0.34486 0.0
H472 H 0.95511 0.87936 0.44061 0.0
C473 C 0.03339 0.85018 0.54767 0.0
C474 C 0.72993 0.03495 0.35751 0.0
C475 C 0.74336 1.00205 0.34646 0.0
H476 H 0.68776 0.05566 0.436 0.0
C477 C 0.72617 0.96405 0.41796 0.0
H478 H 0.74276 0.06442 0.30254 0.0
C479 C 0.69437 0.95879 0.49361 0.0
C480 C 0.67931 0.99151 0.49859 0.0
H481 H 0.73581 0.93827 0.40907 0.0
H482 H 0.68049 0.92897 0.54352 0.0
C483 C 0.69815 0.02976 0.43229 0.0
C484 C 0.58683 0.7481 0.71202 0.0
C485 C 0.55774 0.76599 0.7357 0.0
H486 H 0.60874 0.69528 0.74351 0.0
C487 C 0.52963 0.74286 0.82474 0.0
H488 H 0.60841 0.7644 0.64226 0.0
C489 C 0.52989 0.70285 0.88466 0.0
C490 C 0.55776 0.68426 0.85504 0.0
H491 H 0.50605 0.75495 0.84259 0.0
H492 H 0.50694 0.68577 0.94907 0.0
C493 C 0.58669 0.70806 0.76951 0.0
C494 C 0.85184 0.54882 0.34021 0.0
C495 C 0.83764 0.58068 0.2739 0.0
H496 H 0.89206 0.5305 0.46004 0.0
C497 C 0.85175 0.61896 0.28503 0.0
H498 H 0.84147 0.51913 0.33198 0.0
C499 C 0.88039 0.6255 0.35854 0.0
C500 C 0.89582 0.59393 0.42087 0.0
H501 H 0.84188 0.64405 0.23223 0.0
H502 H 0.89162 0.65554 0.36268 0.0
C503 C 0.8809 0.55541 0.41226 0.0
loop_
_geom_bond_atom_site_label_1
_geom_bond_atom_site_label_2
_geom_bond_distance
_geom_bond_site_symmetry_2
_ccdc_geom_bond_type
C0 N1 1.317 . S
C0 N2 1.348 1_554 S
C0 C3 1.485 . S
N1 C0 1.317 . S
N1 N5 1.370 1_554 S
N2 C0 1.348 1_556 S
N2 C4 1.346 . S
C3 C0 1.485 . S
C3 H7 0.960 . S
C3 H8 0.961 . S
C3 H9 0.960 . S
C4 N2 1.346 . S
C4 N5 1.307 . S
C4 C6 1.486 . S
N5 N1 1.370 1_556 S
N5 C4 1.307 . S
C6 C4 1.486 . S
C6 H10 0.960 . S
C6 H11 0.960 . S
C6 H12 0.959 . S
H7 C3 0.960 . S
H8 C3 0.961 . S
H9 C3 0.960 . S
H10 C6 0.960 . S
H11 C6 0.960 . S
H12 C6 0.959 . S
C13 N14 1.317 . S
C13 N15 1.348 . S
C13 C16 1.485 . S
N14 C13 1.317 . S
N14 N18 1.370 . S
N15 C13 1.348 . S
N15 C17 1.346 . S
C16 C13 1.485 . S
C16 H20 0.960 1_655 S
C16 H21 0.961 . S
C16 H22 0.960 . S
C17 N15 1.346 . S
C17 N18 1.307 . S
C17 C19 1.486 1_554 S
N18 N14 1.370 . S
N18 C17 1.307 . S
C19 C17 1.486 1_556 S
C19 H23 0.960 . S
C19 H24 0.960 1_655 S
C19 H25 0.959 . S
H20 C16 0.960 1_455 S
H21 C16 0.961 . S
H22 C16 0.960 . S
H23 C19 0.960 . S
H24 C19 0.960 1_455 S
H25 C19 0.959 . S
C26 N27 1.317 . S
C26 N28 1.348 . S
C26 C29 1.485 . S
N27 C26 1.317 . S
N27 N31 1.370 . S
N28 C26 1.348 . S
N28 C30 1.346 1_554 S
C29 C26 1.485 . S
C29 H33 0.960 1_565 S
C29 H34 0.961 . S
C29 H35 0.960 . S
C30 N28 1.346 1_556 S
C30 N31 1.307 1_556 S
C30 C32 1.486 . S
N31 N27 1.370 . S
N31 C30 1.307 1_554 S
C32 C30 1.486 . S
C32 H36 0.960 . S
C32 H37 0.960 1_565 S
C32 H38 0.959 . S
H33 C29 0.960 1_545 S
H34 C29 0.961 . S
H35 C29 0.960 . S
H36 C32 0.960 . S
H37 C32 0.960 1_545 S
H38 C32 0.959 . S
C39 N40 1.317 . S
C39 N41 1.348 . S
C39 C42 1.485 . S
N40 C39 1.317 . S
N40 N44 1.370 . S
N41 C39 1.348 . S
N41 C43 1.346 . S
C42 C39 1.485 . S
C42 H46 0.960 . S
C42 H47 0.961 . S
C42 H48 0.960 . S
C43 N41 1.346 . S
C43 N44 1.307 . S
C43 C45 1.486 . S
N44 N40 1.370 . S
N44 C43 1.307 . S
C45 C43 1.486 . S
C45 H49 0.960 . S
C45 H50 0.960 . S
C45 H51 0.959 . S
H46 C42 0.960 . S
H47 C42 0.961 . S
H48 C42 0.960 . S
H49 C45 0.960 . S
H50 C45 0.960 . S
H51 C45 0.959 . S
C52 N53 1.317 . S
C52 N54 1.348 . S
C52 C55 1.485 . S
N53 C52 1.317 . S
N53 N57 1.370 . S
N54 C52 1.348 . S
N54 C56 1.346 1_556 S
C55 C52 1.485 . S
C55 H59 0.960 . S
C55 H60 0.961 . S
C55 H61 0.960 . S
C56 N54 1.346 1_554 S
C56 N57 1.307 1_554 S
C56 C58 1.486 . S
N57 N53 1.370 . S
N57 C56 1.307 1_556 S
C58 C56 1.486 . S
C58 H62 0.960 . S
C58 H63 0.960 . S
C58 H64 0.959 . S
H59 C55 0.960 . S
H60 C55 0.961 . S
H61 C55 0.960 . S
H62 C58 0.960 . S
H63 C58 0.960 . S
H64 C58 0.959 . S
C65 N66 1.317 . S
C65 N67 1.348 . S
C65 C68 1.485 . S
N66 C65 1.317 . S
N66 N70 1.370 . S
N67 C65 1.348 . S
N67 C69 1.346 . S
C68 C65 1.485 . S
C68 H72 0.960 . S
C68 H73 0.961 . S
C68 H74 0.960 . S
C69 N67 1.346 . S
C69 N70 1.307 . S
C69 C71 1.486 1_556 S
N70 N66 1.370 . S
N70 C69 1.307 . S
C71 C69 1.486 1_554 S
C71 H75 0.960 . S
C71 H76 0.960 . S
C71 H77 0.959 . S
H72 C68 0.960 . S
H73 C68 0.961 . S
H74 C68 0.960 . S
H75 C71 0.960 . S
H76 C71 0.960 . S
H77 C71 0.959 . S
C78 N79 1.317 . S
C78 N80 1.348 . S
C78 C81 1.485 . S
N79 C78 1.317 . S
N79 N83 1.370 . S
N80 C78 1.348 . S
N80 C82 1.346 . S
C81 C78 1.485 . S
C81 H85 0.960 . S
C81 H86 0.961 . S
C81 H87 0.960 . S
C82 N80 1.346 . S
C82 N83 1.307 . S
C82 C84 1.486 1_556 S
N83 N79 1.370 . S
N83 C82 1.307 . S
C84 C82 1.486 1_554 S
C84 H88 0.960 . S
C84 H89 0.960 . S
C84 H90 0.959 . S
H85 C81 0.960 . S
H86 C81 0.961 . S
H87 C81 0.960 . S
H88 C84 0.960 . S
H89 C84 0.960 . S
H90 C84 0.959 . S
C91 N92 1.317 . S
C91 N93 1.348 . S
C91 C94 1.485 . S
N92 C91 1.317 . S
N92 N96 1.370 . S
N93 C91 1.348 . S
N93 C95 1.346 . S
C94 C91 1.485 . S
C94 H98 0.960 . S
C94 H99 0.961 . S
C94 H100 0.960 . S
C95 N93 1.346 . S
C95 N96 1.307 . S
C95 C97 1.486 . S
N96 N92 1.370 . S
N96 C95 1.307 . S
C97 C95 1.486 . S
C97 H101 0.960 . S
C97 H102 0.960 . S
C97 H103 0.959 . S
H98 C94 0.960 . S
H99 C94 0.961 . S
H100 C94 0.960 . S
H101 C97 0.960 . S
H102 C97 0.960 . S
H103 C97 0.959 . S
Nd104 C106 2.836 1_545 S
Nd104 O124 2.500 1_455 S
Nd104 O125 2.492 . S
Nd104 O126 2.487 . S
Nd104 O127 2.682 . S
Nd104 O128 2.410 1_545 S
Nd104 O133 2.414 1_455 S
Nd104 O135 2.424 . S
Nd105 C115 2.836 . S
Nd105 O127 2.414 1_554 S
Nd105 O129 2.424 1_545 S
Nd105 O130 2.500 . S
Nd105 O131 2.492 . S
Nd105 O132 2.487 1_455 S
Nd105 O133 2.682 1_454 S
Nd105 O134 2.410 . S
C106 Nd104 2.836 1_565 S
C106 C107 1.498 . S
C106 O124 1.258 1_465 S
C106 O125 1.239 1_565 S
C107 C106 1.498 . S
C107 C108 1.366 1_455 S
C107 C112 1.407 . S
C108 C107 1.366 1_655 S
C108 C109 1.392 . S
C108 H136 0.930 . S
C109 C108 1.392 . S
C109 C110 1.398 1_655 S
C109 H137 0.929 . S
C110 C109 1.398 1_455 S
C110 C111 1.352 . S
C111 C110 1.352 . S
C111 C112 1.384 . S
C111 H138 0.930 . S
C112 C107 1.407 . S
C112 C111 1.384 . S
C112 H139 0.929 . S
C113 O126 1.241 . S
C113 O127 1.273 . S
C114 O128 1.251 1_554 S
C114 O129 1.268 . S
C115 Nd105 2.836 . S
C115 C116 1.498 . S
C115 O130 1.258 . S
C115 O131 1.239 . S
C116 C115 1.498 . S
C116 C117 1.366 . S
C116 C121 1.407 . S
C117 C116 1.366 . S
C117 C118 1.392 . S
C117 H140 0.930 . S
C118 C117 1.392 . S
C118 C119 1.398 . S
C118 H141 0.929 . S
C119 C118 1.398 . S
C119 C120 1.352 . S
C120 C119 1.352 . S
C120 C121 1.384 . S
C120 H142 0.930 . S
C121 C116 1.407 . S
C121 C120 1.384 . S
C121 H143 0.929 . S
C122 O132 1.241 . S
C122 O133 1.273 1_554 S
C123 O134 1.251 1_556 S
C123 O135 1.268 . S
O124 Nd104 2.500 1_655 S
O124 C106 1.258 1_645 S
O125 Nd104 2.492 . S
O125 C106 1.239 1_545 S
O126 Nd104 2.487 . S
O126 C113 1.241 . S
O127 Nd104 2.682 . S
O127 Nd105 2.414 1_556 S
O127 C113 1.273 . S
O128 Nd104 2.410 1_565 S
O128 C114 1.251 1_556 S
O129 Nd105 2.424 1_565 S
O129 C114 1.268 . S
O130 Nd105 2.500 . S
O130 C115 1.258 . S
O131 Nd105 2.492 . S
O131 C115 1.239 . S
O132 Nd105 2.487 1_655 S
O132 C122 1.241 . S
O133 Nd104 2.414 1_655 S
O133 Nd105 2.682 1_656 S
O133 C122 1.273 1_556 S
O134 Nd105 2.410 . S
O134 C123 1.251 1_554 S
O135 Nd104 2.424 . S
O135 C123 1.268 . S
H136 C108 0.930 . S
H137 C109 0.929 . S
H138 C111 0.930 . S
H139 C112 0.929 . S
H140 C117 0.930 . S
H141 C118 0.929 . S
H142 C120 0.930 . S
H143 C121 0.929 . S
Nd144 C146 2.836 . S
Nd144 O164 2.500 1_545 S
Nd144 O165 2.492 . S
Nd144 O166 2.487 . S
Nd144 O167 2.682 . S
Nd144 O168 2.410 . S
Nd144 O173 2.414 1_556 S
Nd144 O175 2.424 . S
Nd145 C155 2.836 . S
Nd145 O167 2.414 1_554 S
Nd145 O169 2.424 . S
Nd145 O170 2.500 . S
Nd145 O171 2.492 . S
Nd145 O172 2.487 1_545 S
Nd145 O173 2.682 . S
Nd145 O174 2.410 . S
C146 Nd144 2.836 . S
C146 C147 1.498 1_545 S
C146 O164 1.258 1_545 S
C146 O165 1.239 . S
C147 C146 1.498 1_565 S
C147 C148 1.366 . S
C147 C152 1.407 1_565 S
C148 C147 1.366 . S
C148 C149 1.392 . S
C148 H176 0.930 . S
C149 C148 1.392 . S
C149 C150 1.398 . S
C149 H177 0.929 . S
C150 C149 1.398 . S
C150 C151 1.352 . S
C151 C150 1.352 . S
C151 C152 1.384 1_565 S
C151 H178 0.930 1_565 S
C152 C147 1.407 1_545 S
C152 C151 1.384 1_545 S
C152 H179 0.929 . S
C153 O166 1.241 . S
C153 O167 1.273 . S
C154 O168 1.251 . S
C154 O169 1.268 1_556 S
C155 Nd145 2.836 . S
C155 C156 1.498 . S
C155 O170 1.258 . S
C155 O171 1.239 . S
C156 C155 1.498 . S
C156 C157 1.366 . S
C156 C161 1.407 . S
C157 C156 1.366 . S
C157 C158 1.392 . S
C157 H180 0.930 . S
C158 C157 1.392 . S
C158 C159 1.398 . S
C158 H181 0.929 . S
C159 C158 1.398 . S
C159 C160 1.352 . S
C160 C159 1.352 . S
C160 C161 1.384 . S
C160 H182 0.930 . S
C161 C156 1.407 . S
C161 C160 1.384 . S
C161 H183 0.929 . S
C162 O172 1.241 . S
C162 O173 1.273 1_565 S
C163 O174 1.251 1_556 S
C163 O175 1.268 . S
O164 Nd144 2.500 1_565 S
O164 C146 1.258 1_565 S
O165 Nd144 2.492 . S
O165 C146 1.239 . S
O166 Nd144 2.487 . S
O166 C153 1.241 . S
O167 Nd144 2.682 . S
O167 Nd145 2.414 1_556 S
O167 C153 1.273 . S
O168 Nd144 2.410 . S
O168 C154 1.251 . S
O169 Nd145 2.424 . S
O169 C154 1.268 1_554 S
O170 Nd145 2.500 . S
O170 C155 1.258 . S
O171 Nd145 2.492 . S
O171 C155 1.239 . S
O172 Nd145 2.487 1_565 S
O172 C162 1.241 . S
O173 Nd144 2.414 1_554 S
O173 Nd145 2.682 . S
O173 C162 1.273 1_545 S
O174 Nd145 2.410 . S
O174 C163 1.251 1_554 S
O175 Nd144 2.424 . S
O175 C163 1.268 . S
H176 C148 0.930 . S
H177 C149 0.929 . S
H178 C151 0.930 1_545 S
H179 C152 0.929 . S
H180 C157 0.930 . S
H181 C158 0.929 . S
H182 C160 0.930 . S
H183 C161 0.929 . S
Nd184 C186 2.836 . S
Nd184 O204 2.500 . S
Nd184 O205 2.492 . S
Nd184 O206 2.487 . S
Nd184 O207 2.682 1_554 S
Nd184 O208 2.410 1_554 S
Nd184 O213 2.414 1_554 S
Nd184 O215 2.424 . S
Nd185 C195 2.836 . S
Nd185 O207 2.414 . S
Nd185 O209 2.424 . S
Nd185 O210 2.500 . S
Nd185 O211 2.492 . S
Nd185 O212 2.487 . S
Nd185 O213 2.682 . S
Nd185 O214 2.410 . S
C186 Nd184 2.836 . S
C186 C187 1.498 . S
C186 O204 1.258 . S
C186 O205 1.239 . S
C187 C186 1.498 . S
C187 C188 1.366 . S
C187 C192 1.407 . S
C188 C187 1.366 . S
C188 C189 1.392 . S
C188 H216 0.930 . S
C189 C188 1.392 . S
C189 C190 1.398 . S
C189 H217 0.929 . S
C190 C189 1.398 . S
C190 C191 1.352 . S
C191 C190 1.352 . S
C191 C192 1.384 . S
C191 H218 0.930 . S
C192 C187 1.407 . S
C192 C191 1.384 . S
C192 H219 0.929 . S
C193 O206 1.241 1_556 S
C193 O207 1.273 . S
C194 O208 1.251 . S
C194 O209 1.268 . S
C195 Nd185 2.836 . S
C195 C196 1.498 . S
C195 O210 1.258 . S
C195 O211 1.239 . S
C196 C195 1.498 . S
C196 C197 1.366 . S
C196 C201 1.407 . S
C197 C196 1.366 . S
C197 C198 1.392 . S
C197 H220 0.930 . S
C198 C197 1.392 . S
C198 C199 1.398 . S
C198 H221 0.929 . S
C199 C198 1.398 . S
C199 C200 1.352 . S
C200 C199 1.352 . S
C200 C201 1.384 . S
C200 H222 0.930 . S
C201 C196 1.407 . S
C201 C200 1.384 . S
C201 H223 0.929 . S
C202 O212 1.241 . S
C202 O213 1.273 . S
C203 O214 1.251 1_554 S
C203 O215 1.268 . S
O204 Nd184 2.500 . S
O204 C186 1.258 . S
O205 Nd184 2.492 . S
O205 C186 1.239 . S
O206 Nd184 2.487 . S
O206 C193 1.241 1_554 S
O207 Nd184 2.682 1_556 S
O207 Nd185 2.414 . S
O207 C193 1.273 . S
O208 Nd184 2.410 1_556 S
O208 C194 1.251 . S
O209 Nd185 2.424 . S
O209 C194 1.268 . S
O210 Nd185 2.500 . S
O210 C195 1.258 . S
O211 Nd185 2.492 . S
O211 C195 1.239 . S
O212 Nd185 2.487 . S
O212 C202 1.241 . S
O213 Nd184 2.414 1_556 S
O213 Nd185 2.682 . S
O213 C202 1.273 . S
O214 Nd185 2.410 . S
O214 C203 1.251 1_556 S
O215 Nd184 2.424 . S
O215 C203 1.268 . S
H216 C188 0.930 . S
H217 C189 0.929 . S
H218 C191 0.930 . S
H219 C192 0.929 . S
H220 C197 0.930 . S
H221 C198 0.929 . S
H222 C200 0.930 . S
H223 C201 0.929 . S
Nd224 C226 2.836 1_455 S
Nd224 O244 2.500 1_455 S
Nd224 O245 2.492 1_455 S
Nd224 O246 2.487 . S
Nd224 O247 2.682 . S
Nd224 O248 2.410 1_455 S
Nd224 O253 2.414 . S
Nd224 O255 2.424 . S
Nd225 C235 2.836 . S
Nd225 O247 2.414 1_554 S
Nd225 O249 2.424 1_455 S
Nd225 O250 2.500 . S
Nd225 O251 2.492 . S
Nd225 O252 2.487 . S
Nd225 O253 2.682 1_554 S
Nd225 O254 2.410 . S
C226 Nd224 2.836 1_655 S
C226 C227 1.498 . S
C226 O244 1.258 . S
C226 O245 1.239 . S
C227 C226 1.498 . S
C227 C228 1.366 . S
C227 C232 1.407 . S
C228 C227 1.366 . S
C228 C229 1.392 . S
C228 H256 0.930 . S
C229 C228 1.392 . S
C229 C230 1.398 . S
C229 H257 0.929 . S
C230 C229 1.398 . S
C230 C231 1.352 . S
C231 C230 1.352 . S
C231 C232 1.384 . S
C231 H258 0.930 . S
C232 C227 1.407 . S
C232 C231 1.384 . S
C232 H259 0.929 . S
C233 O246 1.241 . S
C233 O247 1.273 . S
C234 O248 1.251 . S
C234 O249 1.268 1_556 S
C235 Nd225 2.836 . S
C235 C236 1.498 . S
C235 O250 1.258 . S
C235 O251 1.239 . S
C236 C235 1.498 . S
C236 C237 1.366 . S
C236 C241 1.407 . S
C237 C236 1.366 . S
C237 C238 1.392 . S
C237 H260 0.930 . S
C238 C237 1.392 . S
C238 C239 1.398 . S
C238 H261 0.929 . S
C239 C238 1.398 . S
C239 C240 1.352 . S
C240 C239 1.352 . S
C240 C241 1.384 . S
C240 H262 0.930 . S
C241 C236 1.407 . S
C241 C240 1.384 . S
C241 H263 0.929 . S
C242 O252 1.241 . S
C242 O253 1.273 1_554 S
C243 O254 1.251 1_556 S
C243 O255 1.268 . S
O244 Nd224 2.500 1_655 S
O244 C226 1.258 . S
O245 Nd224 2.492 1_655 S
O245 C226 1.239 . S
O246 Nd224 2.487 . S
O246 C233 1.241 . S
O247 Nd224 2.682 . S
O247 Nd225 2.414 1_556 S
O247 C233 1.273 . S
O248 Nd224 2.410 1_655 S
O248 C234 1.251 . S
O249 Nd225 2.424 1_655 S
O249 C234 1.268 1_554 S
O250 Nd225 2.500 . S
O250 C235 1.258 . S
O251 Nd225 2.492 . S
O251 C235 1.239 . S
O252 Nd225 2.487 . S
O252 C242 1.241 . S
O253 Nd224 2.414 . S
O253 Nd225 2.682 1_556 S
O253 C242 1.273 1_556 S
O254 Nd225 2.410 . S
O254 C243 1.251 1_554 S
O255 Nd224 2.424 . S
O255 C243 1.268 . S
H256 C228 0.930 . S
H257 C229 0.929 . S
H258 C231 0.930 . S
H259 C232 0.929 . S
H260 C237 0.930 . S
H261 C238 0.929 . S
H262 C240 0.930 . S
H263 C241 0.929 . S
C264 C265 1.387 . S
C264 H268 0.950 . S
C264 C273 1.390 . S
C265 C264 1.387 . S
C265 C267 1.387 1_556 S
H266 C273 0.950 . S
C267 C265 1.387 1_554 S
C267 C269 1.390 . S
C267 H271 0.950 . S
H268 C264 0.950 . S
C269 C267 1.390 . S
C269 C270 1.387 1_554 S
C269 H272 0.950 . S
C270 C269 1.387 1_556 S
C270 C273 1.387 . S
H271 C267 0.950 . S
H272 C269 0.950 . S
C273 C264 1.390 . S
C273 H266 0.950 . S
C273 C270 1.387 . S
C274 C275 1.387 . S
C274 H278 0.950 . S
C274 C283 1.390 . S
C275 C274 1.387 . S
C275 C277 1.387 . S
H276 C283 0.950 . S
C277 C275 1.387 . S
C277 C279 1.390 . S
C277 H281 0.950 . S
H278 C274 0.950 . S
C279 C277 1.390 . S
C279 C280 1.387 . S
C279 H282 0.950 . S
C280 C279 1.387 . S
C280 C283 1.387 . S
H281 C277 0.950 . S
H282 C279 0.950 . S
C283 C274 1.390 . S
C283 H276 0.950 . S
C283 C280 1.387 . S
C284 C285 1.387 . S
C284 H288 0.950 . S
C284 C293 1.390 . S
C285 C284 1.387 . S
C285 C287 1.387 1_556 S
H286 C293 0.950 . S
C287 C285 1.387 1_554 S
C287 C289 1.390 . S
C287 H291 0.950 . S
H288 C284 0.950 . S
C289 C287 1.390 . S
C289 C290 1.387 1_554 S
C289 H292 0.950 . S
C290 C289 1.387 1_556 S
C290 C293 1.387 . S
H291 C287 0.950 . S
H292 C289 0.950 . S
C293 C284 1.390 . S
C293 H286 0.950 . S
C293 C290 1.387 . S
C294 C295 1.387 . S
C294 H298 0.950 . S
C294 C303 1.390 . S
C295 C294 1.387 . S
C295 C297 1.387 . S
H296 C303 0.950 1_554 S
C297 C295 1.387 . S
C297 C299 1.390 . S
C297 H301 0.950 . S
H298 C294 0.950 . S
C299 C297 1.390 . S
C299 C300 1.387 . S
C299 H302 0.950 . S
C300 C299 1.387 . S
C300 C303 1.387 . S
H301 C297 0.950 . S
H302 C299 0.950 . S
C303 C294 1.390 . S
C303 H296 0.950 1_556 S
C303 C300 1.387 . S
C304 C305 1.387 1_546 S
C304 H308 0.950 . S
C304 C313 1.390 . S
C305 C304 1.387 1_564 S
C305 C307 1.387 . S
H306 C313 0.950 . S
C307 C305 1.387 . S
C307 C309 1.390 . S
C307 H311 0.950 . S
H308 C304 0.950 . S
C309 C307 1.390 . S
C309 C310 1.387 1_565 S
C309 H312 0.950 . S
C310 C309 1.387 1_545 S
C310 C313 1.387 1_554 S
H311 C307 0.950 . S
H312 C309 0.950 . S
C313 C304 1.390 . S
C313 H306 0.950 . S
C313 C310 1.387 1_556 S
C314 C315 1.387 . S
C314 H318 0.950 . S
C314 C323 1.390 . S
C315 C314 1.387 . S
C315 C317 1.387 . S
H316 C323 0.950 . S
C317 C315 1.387 . S
C317 C319 1.390 . S
C317 H321 0.950 . S
H318 C314 0.950 . S
C319 C317 1.390 . S
C319 C320 1.387 . S
C319 H322 0.950 . S
C320 C319 1.387 . S
C320 C323 1.387 . S
H321 C317 0.950 . S
H322 C319 0.950 . S
C323 C314 1.390 . S
C323 H316 0.950 . S
C323 C320 1.387 . S
C324 C325 1.387 1_554 S
C324 H328 0.950 . S
C324 C333 1.390 . S
C325 C324 1.387 1_556 S
C325 C327 1.387 . S
H326 C333 0.950 . S
C327 C325 1.387 . S
C327 C329 1.390 . S
C327 H331 0.950 . S
H328 C324 0.950 . S
C329 C327 1.390 . S
C329 C330 1.387 . S
C329 H332 0.950 . S
C330 C329 1.387 . S
C330 C333 1.387 1_556 S
H331 C327 0.950 . S
H332 C329 0.950 . S
C333 C324 1.390 . S
C333 H326 0.950 . S
C333 C330 1.387 1_554 S
C334 C335 1.387 . S
C334 H338 0.950 . S
C334 C343 1.390 . S
C335 C334 1.387 . S
C335 C337 1.387 1_554 S
H336 C343 0.950 . S
C337 C335 1.387 1_556 S
C337 C339 1.390 . S
C337 H341 0.950 . S
H338 C334 0.950 . S
C339 C337 1.390 . S
C339 C340 1.387 1_556 S
C339 H342 0.950 . S
C340 C339 1.387 1_554 S
C340 C343 1.387 . S
H341 C337 0.950 . S
H342 C339 0.950 . S
C343 C334 1.390 . S
C343 H336 0.950 . S
C343 C340 1.387 . S
C344 C345 1.387 . S
C344 H348 0.950 . S
C344 C353 1.390 . S
C345 C344 1.387 . S
C345 C347 1.387 . S
H346 C353 0.950 . S
C347 C345 1.387 . S
C347 C349 1.390 . S
C347 H351 0.950 . S
H348 C344 0.950 . S
C349 C347 1.390 . S
C349 C350 1.387 . S
C349 H352 0.950 . S
C350 C349 1.387 . S
C350 C353 1.387 . S
H351 C347 0.950 . S
H352 C349 0.950 . S
C353 C344 1.390 . S
C353 H346 0.950 . S
C353 C350 1.387 . S
C354 C355 1.387 . S
C354 H358 0.950 . S
C354 C363 1.390 . S
C355 C354 1.387 . S
C355 C357 1.387 1_556 S
H356 C363 0.950 . S
C357 C355 1.387 1_554 S
C357 C359 1.390 . S
C357 H361 0.950 . S
H358 C354 0.950 . S
C359 C357 1.390 . S
C359 C360 1.387 1_554 S
C359 H362 0.950 . S
C360 C359 1.387 1_556 S
C360 C363 1.387 . S
H361 C357 0.950 . S
H362 C359 0.950 . S
C363 C354 1.390 . S
C363 H356 0.950 . S
C363 C360 1.387 . S
C364 C365 1.387 . S
C364 H368 0.950 . S
C364 C373 1.390 . S
C365 C364 1.387 . S
C365 C367 1.387 . S
H366 C373 0.950 . S
C367 C365 1.387 . S
C367 C369 1.390 . S
C367 H371 0.950 . S
H368 C364 0.950 . S
C369 C367 1.390 . S
C369 C370 1.387 . S
C369 H372 0.950 . S
C370 C369 1.387 . S
C370 C373 1.387 . S
H371 C367 0.950 . S
H372 C369 0.950 . S
C373 C364 1.390 . S
C373 H366 0.950 . S
C373 C370 1.387 . S
C374 C375 1.384 1_554 S
C374 H378 0.950 . S
C374 C383 1.390 . S
C375 C374 1.384 1_556 S
C375 C377 1.391 . S
H376 C383 0.950 . S
C377 C375 1.391 . S
C377 C379 1.390 . S
C377 H381 0.950 . S
H378 C374 0.950 . S
C379 C377 1.390 . S
C379 C380 1.387 . S
C379 H382 0.950 . S
C380 C379 1.387 . S
C380 C383 1.387 1_556 S
H381 C377 0.950 . S
H382 C379 0.950 . S
C383 C374 1.390 . S
C383 H376 0.950 . S
C383 C380 1.387 1_554 S
C384 C385 1.387 . S
C384 H388 0.950 . S
C384 C393 1.390 1_655 S
C385 C384 1.387 . S
C385 C387 1.387 1_654 S
H386 C393 0.950 . S
C387 C385 1.387 1_456 S
C387 C389 1.390 . S
C387 H391 0.950 . S
H388 C384 0.950 . S
C389 C387 1.390 . S
C389 C390 1.387 1_556 S
C389 H392 0.950 . S
C390 C389 1.387 1_554 S
C390 C393 1.387 . S
H391 C387 0.950 . S
H392 C389 0.950 . S
C393 C384 1.390 1_455 S
C393 H386 0.950 . S
C393 C390 1.387 . S
C394 C395 1.387 1_546 S
C394 H398 0.950 . S
C394 C403 1.390 . S
C395 C394 1.387 1_564 S
C395 C397 1.383 1_565 S
H396 C403 0.950 . S
C397 C395 1.383 1_545 S
C397 C399 1.396 . S
C397 H401 0.948 1_545 S
H398 C394 0.950 . S
C399 C397 1.396 . S
C399 C400 1.387 1_554 S
C399 H402 0.950 . S
C400 C399 1.387 1_556 S
C400 C403 1.387 . S
H401 C397 0.948 1_565 S
H402 C399 0.950 . S
C403 C394 1.390 . S
C403 H396 0.950 . S
C403 C400 1.387 . S
C404 C405 1.387 . S
C404 H408 0.950 . S
C404 C413 1.390 . S
C405 C404 1.387 . S
C405 C407 1.387 . S
H406 C413 0.950 . S
C407 C405 1.387 . S
C407 C409 1.390 . S
C407 H411 0.950 . S
H408 C404 0.950 . S
C409 C407 1.390 . S
C409 C410 1.387 . S
C409 H412 0.950 . S
C410 C409 1.387 . S
C410 C413 1.387 . S
H411 C407 0.950 . S
H412 C409 0.950 . S
C413 C404 1.390 . S
C413 H406 0.950 . S
C413 C410 1.387 . S
C414 C415 1.387 . S
C414 H418 0.950 . S
C414 C423 1.390 . S
C415 C414 1.387 . S
C415 C417 1.387 1_556 S
H416 C423 0.950 . S
C417 C415 1.387 1_554 S
C417 C419 1.390 . S
C417 H421 0.950 . S
H418 C414 0.950 . S
C419 C417 1.390 . S
C419 C420 1.387 1_554 S
C419 H422 0.950 . S
C420 C419 1.387 1_556 S
C420 C423 1.387 . S
H421 C417 0.950 . S
H422 C419 0.950 . S
C423 C414 1.390 . S
C423 H416 0.950 . S
C423 C420 1.387 . S
C424 C425 1.387 . S
C424 H428 0.950 . S
C424 C433 1.390 . S
C425 C424 1.387 . S
C425 C427 1.387 . S
H426 C433 0.950 . S
C427 C425 1.387 . S
C427 C429 1.390 . S
C427 H431 0.950 . S
H428 C424 0.950 . S
C429 C427 1.390 . S
C429 C430 1.387 . S
C429 H432 0.950 . S
C430 C429 1.387 . S
C430 C433 1.387 . S
H431 C427 0.950 . S
H432 C429 0.950 . S
C433 C424 1.390 . S
C433 H426 0.950 . S
C433 C430 1.387 . S
C434 C435 1.387 . S
C434 H438 0.950 . S
C434 C443 1.390 . S
C435 C434 1.387 . S
C435 C437 1.387 . S
H436 C443 0.950 . S
C437 C435 1.387 . S
C437 C439 1.390 . S
C437 H441 0.950 . S
H438 C434 0.950 . S
C439 C437 1.390 . S
C439 C440 1.387 . S
C439 H442 0.950 . S
C440 C439 1.387 . S
C440 C443 1.387 . S
H441 C437 0.950 . S
H442 C439 0.950 . S
C443 C434 1.390 . S
C443 H436 0.950 . S
C443 C440 1.387 . S
C444 C445 1.387 . S
C444 H448 0.950 . S
C444 C453 1.390 . S
C445 C444 1.387 . S
C445 C447 1.387 . S
H446 C453 0.950 . S
C447 C445 1.387 . S
C447 C449 1.390 . S
C447 H451 0.950 . S
H448 C444 0.950 . S
C449 C447 1.390 . S
C449 C450 1.387 . S
C449 H452 0.950 . S
C450 C449 1.387 . S
C450 C453 1.387 . S
H451 C447 0.950 . S
H452 C449 0.950 . S
C453 C444 1.390 . S
C453 H446 0.950 . S
C453 C450 1.387 . S
C454 C455 1.387 . S
C454 H458 0.950 . S
C454 C463 1.390 . S
C455 C454 1.387 . S
C455 C457 1.387 . S
H456 C463 0.950 . S
C457 C455 1.387 . S
C457 C459 1.390 . S
C457 H461 0.950 . S
H458 C454 0.950 . S
C459 C457 1.390 . S
C459 C460 1.387 . S
C459 H462 0.950 . S
C460 C459 1.387 . S
C460 C463 1.387 . S
H461 C457 0.950 . S
H462 C459 0.950 . S
C463 C454 1.390 . S
C463 H456 0.950 . S
C463 C460 1.387 . S
C464 C465 1.387 . S
C464 H468 0.950 . S
C464 C473 1.390 . S
C465 C464 1.387 . S
C465 C467 1.387 . S
H466 C473 0.950 . S
C467 C465 1.387 . S
C467 C469 1.388 . S
C467 H471 0.950 . S
H468 C464 0.950 . S
C469 C467 1.388 . S
C469 C470 1.385 . S
C469 H472 0.955 1_655 S
C470 C469 1.385 . S
C470 C473 1.387 . S
H471 C467 0.950 . S
H472 C469 0.955 1_455 S
C473 C464 1.390 . S
C473 H466 0.950 . S
C473 C470 1.387 . S
C474 C475 1.387 1_545 S
C474 H478 0.950 . S
C474 C483 1.390 1_545 S
C475 C474 1.387 1_565 S
C475 C477 1.387 . S
H476 C483 0.950 1_545 S
C477 C475 1.387 . S
C477 C479 1.390 . S
C477 H481 0.950 . S
H478 C474 0.950 . S
C479 C477 1.390 . S
C479 C480 1.387 . S
C479 H482 0.950 . S
C480 C479 1.387 . S
C480 C483 1.387 . S
H481 C477 0.950 . S
H482 C479 0.950 . S
C483 C474 1.390 1_565 S
C483 H476 0.950 1_565 S
C483 C480 1.387 . S
C484 C485 1.387 . S
C484 H488 0.950 . S
C484 C493 1.390 . S
C485 C484 1.387 . S
C485 C487 1.387 . S
H486 C493 0.950 . S
C487 C485 1.387 . S
C487 C489 1.390 . S
C487 H491 0.950 . S
H488 C484 0.950 . S
C489 C487 1.390 . S
C489 C490 1.387 . S
C489 H492 0.950 . S
C490 C489 1.387 . S
C490 C493 1.387 . S
H491 C487 0.950 . S
H492 C489 0.950 . S
C493 C484 1.390 . S
C493 H486 0.950 . S
C493 C490 1.387 . S
C494 C495 1.387 . S
C494 H498 0.950 . S
C494 C503 1.390 . S
C495 C494 1.387 . S
C495 C497 1.387 . S
H496 C503 0.950 . S
C497 C495 1.387 . S
C497 C499 1.390 . S
C497 H501 0.950 . S
H498 C494 0.950 . S
C499 C497 1.390 . S
C499 C500 1.387 . S
C499 H502 0.950 . S
C500 C499 1.387 . S
C500 C503 1.387 . S
H501 C497 0.950 . S
H502 C499 0.950 . S
C503 C494 1.390 . S
C503 H496 0.950 . S
C503 C500 1.387 . S
C265 N80 1.602 . S
C270 C113 1.601 . S
C280 C153 1.385 . S
C275 N93 1.449 . S
C290 C202 1.425 . S
C285 N54 1.446 . S
C300 C233 1.799 . S
C295 N67 1.903 . S
C310 C122 1.600 . S
C305 N28 1.618 . S
C315 N41 1.457 . S
C320 C162 1.383 . S
C325 N2 1.450 . S
C330 C193 1.422 . S
C335 N15 1.917 1_455 S
C340 C242 1.800 . S
C350 C123 1.157 . S
C345 N70 1.114 . S
C360 C163 1.624 . S
C355 N83 1.547 . S
C370 C199 0.911 . S
C365 N96 0.907 . S
C375 N57 1.370 . S
C380 C243 1.416 . S
C385 N18 1.120 . S
C390 C114 1.158 . S
C400 C154 1.624 . S
C395 N31 1.555 . S
C410 C190 0.911 . S
C405 N44 0.908 . S
C415 N5 1.372 . S
C420 C234 1.415 . S
C425 N66 1.654 . S
C430 C119 1.658 . S
C435 N79 1.583 . S
C440 C159 1.516 . S
C450 C203 1.973 . S
C445 N92 1.905 . S
C460 C239 1.485 . S
C455 N53 1.530 . S
C465 N14 1.659 . S
C470 C110 1.657 1_655 S
C480 C150 1.516 . S
C475 N27 1.566 . S
C490 C194 1.974 . S
C485 N40 1.909 . S
C495 N1 1.507 . S
C500 C230 1.483 . S
