# Generated by pormake.
# Topology ptr, (4,4)-cn, num edge types: 1
# Building blocks:
#     Node 0, Type 0, BuildingBlock: QUQFOY_clean_sbu_1, # of connection points: 4
#     Node 1, Type 0, BuildingBlock: QUQFOY_clean_sbu_1, # of connection points: 4
#     Node 2, Type 0, BuildingBlock: QUQFOY_clean_sbu_1, # of connection points: 4
#     Node 3, Type 0, BuildingBlock: QUQFOY_clean_sbu_1, # of connection points: 4
#     Node 4, Type 0, BuildingBlock: QUQFOY_clean_sbu_1, # of connection points: 4
#     Node 5, Type 0, BuildingBlock: QUQFOY_clean_sbu_1, # of connection points: 4
#     Node 6, Type 0, BuildingBlock: QUQFOY_clean_sbu_1, # of connection points: 4
#     Node 7, Type 0, BuildingBlock: QUQFOY_clean_sbu_1, # of connection points: 4
#     Node 8, Type 0, BuildingBlock: QUQFOY_clean_sbu_1, # of connection points: 4
#     Node 9, Type 0, BuildingBlock: QUQFOY_clean_sbu_1, # of connection points: 4
#     Node 10, Type 0, BuildingBlock: QUQFOY_clean_sbu_1, # of connection points: 4
#     Node 11, Type 0, BuildingBlock: QUQFOY_clean_sbu_1, # of connection points: 4
#     Node 12, Type 0, BuildingBlock: QUQFOY_clean_sbu_1, # of connection points: 4
#     Node 13, Type 0, BuildingBlock: QUQFOY_clean_sbu_1, # of connection points: 4
#     Node 14, Type 0, BuildingBlock: QUQFOY_clean_sbu_1, # of connection points: 4
#     Node 15, Type 0, BuildingBlock: QUQFOY_clean_sbu_1, # of connection points: 4
#     Node 16, Type 0, BuildingBlock: QUQFOY_clean_sbu_1, # of connection points: 4
#     Node 17, Type 0, BuildingBlock: QUQFOY_clean_sbu_1, # of connection points: 4
#     Node 18, Type 1, BuildingBlock: NAHDIM_clean_linker_0, # of connection points: 4
#     Node 19, Type 1, BuildingBlock: NAHDIM_clean_linker_0, # of connection points: 4
#     Node 20, Type 1, BuildingBlock: NAHDIM_clean_linker_0, # of connection points: 4
#     Node 21, Type 1, BuildingBlock: NAHDIM_clean_linker_0, # of connection points: 4
#     Node 22, Type 1, BuildingBlock: NAHDIM_clean_linker_0, # of connection points: 4
#     Node 23, Type 1, BuildingBlock: NAHDIM_clean_linker_0, # of connection points: 4
#     Node 24, Type 1, BuildingBlock: NAHDIM_clean_linker_0, # of connection points: 4
#     Node 25, Type 1, BuildingBlock: NAHDIM_clean_linker_0, # of connection points: 4
#     Node 26, Type 1, BuildingBlock: NAHDIM_clean_linker_0, # of connection points: 4
#     Node 27, Type 1, BuildingBlock: NAHDIM_clean_linker_0, # of connection points: 4
#     Node 28, Type 1, BuildingBlock: NAHDIM_clean_linker_0, # of connection points: 4
#     Node 29, Type 1, BuildingBlock: NAHDIM_clean_linker_0, # of connection points: 4
#     Node 30, Type 1, BuildingBlock: NAHDIM_clean_linker_0, # of connection points: 4
#     Node 31, Type 1, BuildingBlock: NAHDIM_clean_linker_0, # of connection points: 4
#     Node 32, Type 1, BuildingBlock: NAHDIM_clean_linker_0, # of connection points: 4
#     Node 33, Type 1, BuildingBlock: NAHDIM_clean_linker_0, # of connection points: 4
#     Node 34, Type 1, BuildingBlock: NAHDIM_clean_linker_0, # of connection points: 4
#     Node 35, Type 1, BuildingBlock: NAHDIM_clean_linker_0, # of connection points: 4
#     Edge 36, Type (0, 1), BuildingBlock: XUDNAN_clean_linker_2, # of connection points: 2
#     Edge 37, Type (0, 1), BuildingBlock: XUDNAN_clean_linker_2, # of connection points: 2
#     Edge 38, Type (0, 1), BuildingBlock: XUDNAN_clean_linker_2, # of connection points: 2
#     Edge 39, Type (0, 1), BuildingBlock: XUDNAN_clean_linker_2, # of connection points: 2
#     Edge 40, Type (0, 1), BuildingBlock: XUDNAN_clean_linker_2, # of connection points: 2
#     Edge 41, Type (0, 1), BuildingBlock: XUDNAN_clean_linker_2, # of connection points: 2
#     Edge 42, Type (0, 1), BuildingBlock: XUDNAN_clean_linker_2, # of connection points: 2
#     Edge 43, Type (0, 1), BuildingBlock: XUDNAN_clean_linker_2, # of connection points: 2
#     Edge 44, Type (0, 1), BuildingBlock: XUDNAN_clean_linker_2, # of connection points: 2
#     Edge 45, Type (0, 1), BuildingBlock: XUDNAN_clean_linker_2, # of connection points: 2
#     Edge 46, Type (0, 1), BuildingBlock: XUDNAN_clean_linker_2, # of connection points: 2
#     Edge 47, Type (0, 1), BuildingBlock: XUDNAN_clean_linker_2, # of connection points: 2
#     Edge 48, Type (0, 1), BuildingBlock: XUDNAN_clean_linker_2, # of connection points: 2
#     Edge 49, Type (0, 1), BuildingBlock: XUDNAN_clean_linker_2, # of connection points: 2
#     Edge 50, Type (0, 1), BuildingBlock: XUDNAN_clean_linker_2, # of connection points: 2
#     Edge 51, Type (0, 1), BuildingBlock: XUDNAN_clean_linker_2, # of connection points: 2
#     Edge 52, Type (0, 1), BuildingBlock: XUDNAN_clean_linker_2, # of connection points: 2
#     Edge 53, Type (0, 1), BuildingBlock: XUDNAN_clean_linker_2, # of connection points: 2
#     Edge 54, Type (0, 1), BuildingBlock: XUDNAN_clean_linker_2, # of connection points: 2
#     Edge 55, Type (0, 1), BuildingBlock: XUDNAN_clean_linker_2, # of connection points: 2
#     Edge 56, Type (0, 1), BuildingBlock: XUDNAN_clean_linker_2, # of connection points: 2
#     Edge 57, Type (0, 1), BuildingBlock: XUDNAN_clean_linker_2, # of connection points: 2
#     Edge 58, Type (0, 1), BuildingBlock: XUDNAN_clean_linker_2, # of connection points: 2
#     Edge 59, Type (0, 1), BuildingBlock: XUDNAN_clean_linker_2, # of connection points: 2
#     Edge 60, Type (0, 1), BuildingBlock: XUDNAN_clean_linker_2, # of connection points: 2
#     Edge 61, Type (0, 1), BuildingBlock: XUDNAN_clean_linker_2, # of connection points: 2
#     Edge 62, Type (0, 1), BuildingBlock: XUDNAN_clean_linker_2, # of connection points: 2
#     Edge 63, Type (0, 1), BuildingBlock: XUDNAN_clean_linker_2, # of connection points: 2
#     Edge 64, Type (0, 1), BuildingBlock: XUDNAN_clean_linker_2, # of connection points: 2
#     Edge 65, Type (0, 1), BuildingBlock: XUDNAN_clean_linker_2, # of connection points: 2
#     Edge 66, Type (0, 1), BuildingBlock: XUDNAN_clean_linker_2, # of connection points: 2
#     Edge 67, Type (0, 1), BuildingBlock: XUDNAN_clean_linker_2, # of connection points: 2
#     Edge 68, Type (0, 1), BuildingBlock: XUDNAN_clean_linker_2, # of connection points: 2
#     Edge 69, Type (0, 1), BuildingBlock: XUDNAN_clean_linker_2, # of connection points: 2
#     Edge 70, Type (0, 1), BuildingBlock: XUDNAN_clean_linker_2, # of connection points: 2
#     Edge 71, Type (0, 1), BuildingBlock: XUDNAN_clean_linker_2, # of connection points: 2
#     Edge 72, Type (0, 1), BuildingBlock: XUDNAN_clean_linker_2, # of connection points: 2
#     Edge 73, Type (0, 1), BuildingBlock: XUDNAN_clean_linker_2, # of connection points: 2
#     Edge 74, Type (0, 1), BuildingBlock: XUDNAN_clean_linker_2, # of connection points: 2
#     Edge 75, Type (0, 1), BuildingBlock: XUDNAN_clean_linker_2, # of connection points: 2
#     Edge 76, Type (0, 1), BuildingBlock: XUDNAN_clean_linker_2, # of connection points: 2
#     Edge 77, Type (0, 1), BuildingBlock: XUDNAN_clean_linker_2, # of connection points: 2
#     Edge 78, Type (0, 1), BuildingBlock: XUDNAN_clean_linker_2, # of connection points: 2
#     Edge 79, Type (0, 1), BuildingBlock: XUDNAN_clean_linker_2, # of connection points: 2
#     Edge 80, Type (0, 1), BuildingBlock: XUDNAN_clean_linker_2, # of connection points: 2
#     Edge 81, Type (0, 1), BuildingBlock: XUDNAN_clean_linker_2, # of connection points: 2
#     Edge 82, Type (0, 1), BuildingBlock: XUDNAN_clean_linker_2, # of connection points: 2
#     Edge 83, Type (0, 1), BuildingBlock: XUDNAN_clean_linker_2, # of connection points: 2
#     Edge 84, Type (0, 1), BuildingBlock: XUDNAN_clean_linker_2, # of connection points: 2
#     Edge 85, Type (0, 1), BuildingBlock: XUDNAN_clean_linker_2, # of connection points: 2
#     Edge 86, Type (0, 1), BuildingBlock: XUDNAN_clean_linker_2, # of connection points: 2
#     Edge 87, Type (0, 1), BuildingBlock: XUDNAN_clean_linker_2, # of connection points: 2
#     Edge 88, Type (0, 1), BuildingBlock: XUDNAN_clean_linker_2, # of connection points: 2
#     Edge 89, Type (0, 1), BuildingBlock: XUDNAN_clean_linker_2, # of connection points: 2
#     Edge 90, Type (0, 1), BuildingBlock: XUDNAN_clean_linker_2, # of connection points: 2
#     Edge 91, Type (0, 1), BuildingBlock: XUDNAN_clean_linker_2, # of connection points: 2
#     Edge 92, Type (0, 1), BuildingBlock: XUDNAN_clean_linker_2, # of connection points: 2
#     Edge 93, Type (0, 1), BuildingBlock: XUDNAN_clean_linker_2, # of connection points: 2
#     Edge 94, Type (0, 1), BuildingBlock: XUDNAN_clean_linker_2, # of connection points: 2
#     Edge 95, Type (0, 1), BuildingBlock: XUDNAN_clean_linker_2, # of connection points: 2
#     Edge 96, Type (0, 1), BuildingBlock: XUDNAN_clean_linker_2, # of connection points: 2
#     Edge 97, Type (0, 1), BuildingBlock: XUDNAN_clean_linker_2, # of connection points: 2
#     Edge 98, Type (0, 1), BuildingBlock: XUDNAN_clean_linker_2, # of connection points: 2
#     Edge 99, Type (0, 1), BuildingBlock: XUDNAN_clean_linker_2, # of connection points: 2
#     Edge 100, Type (0, 1), BuildingBlock: XUDNAN_clean_linker_2, # of connection points: 2
#     Edge 101, Type (0, 1), BuildingBlock: XUDNAN_clean_linker_2, # of connection points: 2
#     Edge 102, Type (0, 1), BuildingBlock: XUDNAN_clean_linker_2, # of connection points: 2
#     Edge 103, Type (0, 1), BuildingBlock: XUDNAN_clean_linker_2, # of connection points: 2
#     Edge 104, Type (0, 1), BuildingBlock: XUDNAN_clean_linker_2, # of connection points: 2
#     Edge 105, Type (0, 1), BuildingBlock: XUDNAN_clean_linker_2, # of connection points: 2
#     Edge 106, Type (0, 1), BuildingBlock: XUDNAN_clean_linker_2, # of connection points: 2
#     Edge 107, Type (0, 1), BuildingBlock: XUDNAN_clean_linker_2, # of connection points: 2
# Relax obj value: 0.010
# Max RMSD: 0.100
# Mean RMSD: 0.055
data_MOF--net-ptr--node1-QUQFOY_clean_sbu_1--node2-NAHDIM_clean_linker_0--edge1-XUDNAN_clean_linker_2
_symmetry_space_group_name_H-M    P1
_symmetry_Int_Tables_number       1
_symmetry_cell_setting            triclinic
loop_
_symmetry_equiv_pos_as_xyz
'x, y, z'
_cell_length_a     96.636581
_cell_length_b     96.180631
_cell_length_c     82.467457
_cell_angle_alpha  90.850501
_cell_angle_beta   90.333547
_cell_angle_gamma 119.92521
loop_
_atom_site_label
_atom_site_type_symbol
_atom_site_fract_x
_atom_site_fract_y
_atom_site_fract_z
_atom_type_partial_charge
O0 O 0.00767 0.36626 0.03543 0.0
Cd1 Cd 0.02078 0.36131 0.01902 0.0
Cd2 Cd 0.99149 0.34563 0.00308 0.0
O3 O 0.98377 0.35154 0.02406 0.0
O4 O 0.03935 0.36194 0.03096 0.0
O5 O 0.01961 0.34003 0.01944 0.0
C6 C 0.03273 0.34673 0.02782 0.0
C7 C 0.98037 0.3191 0.9936 0.0
C8 C 0.99266 0.3608 0.03549 0.0
C9 C 0.01857 0.37415 0.98681 0.0
O10 O 0.00376 0.36377 0.98685 0.0
O11 O 0.02782 0.37473 0.99819 0.0
O12 O 0.97326 0.32721 0.99093 0.0
O13 O 0.99353 0.32598 0.00191 0.0
O14 O 0.63873 0.62836 0.03917 0.0
Cd15 Cd 0.64228 0.64539 0.02227 0.0
Cd16 Cd 0.66379 0.63786 0.01087 0.0
O17 O 0.65798 0.62391 0.03128 0.0
O18 O 0.6338 0.65883 0.03165 0.0
O19 O 0.6594 0.66818 0.02667 0.0
C20 C 0.64828 0.67067 0.03205 0.0
C21 C 0.69002 0.65678 0.00486 0.0
C22 C 0.64677 0.62129 0.04097 0.0
C23 C 0.63621 0.63096 0.98878 0.0
O24 O 0.6483 0.62932 0.99125 0.0
O25 O 0.63197 0.63767 0.9995 0.0
O26 O 0.68474 0.64162 0.00269 0.0
O27 O 0.68053 0.66114 0.01114 0.0
O28 O 0.36824 0.01245 0.98172 0.0
Cd29 Cd 0.36071 0.02108 1.00069 0.0
Cd30 Cd 0.34201 0.98979 0.00564 0.0
O31 O 0.35032 0.9868 0.98356 0.0
O32 O 0.36806 0.04385 0.9955 0.0
O33 O 0.34254 0.02528 0.99668 0.0
C34 C 0.35327 0.03994 0.9939 0.0
C35 C 0.31512 0.9768 0.01243 0.0
C36 C 0.3621 0.99808 0.97638 0.0
C37 C 0.36729 0.00882 0.03096 0.0
O38 O 0.35704 0.99505 0.02541 0.0
O39 O 0.37007 0.02136 0.02341 0.0
O40 O 0.32284 0.96911 0.01116 0.0
O41 O 0.32246 0.9918 0.00874 0.0
O42 O 0.99855 0.64291 0.99265 0.0
Cd43 Cd 0.98726 0.64763 0.01125 0.0
Cd44 Cd 0.01798 0.6688 0.02017 0.0
O45 O 0.02345 0.66111 0.99889 0.0
O46 O 0.9655 0.64199 0.00301 0.0
O47 O 0.98441 0.66673 0.00943 0.0
C48 C 0.97023 0.65714 0.00379 0.0
C49 C 0.02785 0.696 0.02578 0.0
C50 C 0.01337 0.6499 0.98958 0.0
C51 C 0.99803 0.64189 0.04311 0.0
O52 O 0.01152 0.65389 0.0398 0.0
O53 O 0.98617 0.63738 0.03345 0.0
O54 O 0.03675 0.68963 0.02762 0.0
O55 O 0.0135 0.68699 0.02028 0.0
O56 O 0.36713 0.37465 0.98494 0.0
Cd57 Cd 0.36189 0.35675 0.00128 0.0
Cd58 Cd 0.34239 0.36688 0.01456 0.0
O59 O 0.34942 0.38088 0.99404 0.0
O60 O 0.36171 0.33791 0.99031 0.0
O61 O 0.3402 0.33744 1.00017 0.0
C62 C 0.34649 0.33012 0.99266 0.0
C63 C 0.31553 0.35452 0.02205 0.0
C64 C 0.36009 0.38279 0.98392 0.0
C65 C 0.37036 0.36998 0.03492 0.0
O66 O 0.35866 0.3725 0.03348 0.0
O67 O 0.37381 0.36334 0.0234 0.0
O68 O 0.32486 0.36978 0.02385 0.0
O69 O 0.32136 0.34625 0.01571 0.0
O70 O 0.63205 0.98951 0.0313 0.0
Cd71 Cd 0.64095 0.98321 0.01163 0.0
Cd72 Cd 0.65834 0.01554 0.00902 0.0
O73 O 0.64822 0.01574 0.03106 0.0
O74 O 0.6379 0.96146 0.01621 0.0
O75 O 0.66159 0.9834 0.01502 0.0
C76 C 0.65323 0.96825 0.01781 0.0
C77 C 0.68582 0.02959 0.00465 0.0
C78 C 0.637 0.00338 0.0376 0.0
C79 C 0.63491 0.99674 0.98186 0.0
O80 O 0.64438 0.01033 0.9884 0.0
O81 O 0.63223 0.98388 0.98873 0.0
O82 O 0.67772 0.03694 0.00541 0.0
O83 O 0.6784 0.01437 0.00718 0.0
O84 O 0.67181 0.6973 0.3623 0.0
Cd85 Cd 0.68266 0.69095 0.34448 0.0
Cd86 Cd 0.65199 0.67667 0.3331 0.0
O87 O 0.64648 0.68388 0.35466 0.0
O88 O 0.70405 0.6987 0.35471 0.0
O89 O 0.68725 0.67307 0.34949 0.0
C90 C 0.70063 0.68399 0.35579 0.0
C91 C 0.64069 0.64987 0.32506 0.0
C92 C 0.65728 0.69307 0.36479 0.0
C93 C 0.67715 0.70262 0.31287 0.0
O94 O 0.66233 0.69359 0.3154 0.0
O95 O 0.68748 0.70264 0.32253 0.0
O96 O 0.63308 0.65761 0.32307 0.0
O97 O 0.65457 0.65728 0.33216 0.0
O98 O 0.30041 0.96083 0.37741 0.0
Cd99 Cd 0.30449 0.98028 0.36374 0.0
Cd100 Cd 0.31603 0.96495 0.34165 0.0
O101 O 0.30998 0.94954 0.36086 0.0
O102 O 0.29918 0.99292 0.37924 0.0
O103 O 0.32319 0.00239 0.36895 0.0
C104 C 0.31371 0.00445 0.37838 0.0
C105 C 0.33943 0.97049 0.32813 0.0
C106 C 0.30357 0.94975 0.37419 0.0
C107 C 0.28869 0.96961 0.33055 0.0
O108 O 0.29797 0.96415 0.32745 0.0
O109 O 0.28963 0.97656 0.34408 0.0
O110 O 0.3266 0.95675 0.32677 0.0
O111 O 0.33907 0.98134 0.33723 0.0
O112 O 0.03955 0.34045 0.32704 0.0
Cd113 Cd 0.02882 0.34815 0.34353 0.0
Cd114 Cd 0.0132 0.31663 0.34994 0.0
O115 O 0.02441 0.31426 0.32952 0.0
O116 O 0.03416 0.3699 0.33605 0.0
O117 O 0.00949 0.34941 0.33655 0.0
C118 C 0.01916 0.36417 0.33299 0.0
C119 C 0.98563 0.30375 0.35315 0.0
C120 C 0.03582 0.32625 0.32268 0.0
C121 C 0.03526 0.33933 0.37598 0.0
O122 O 0.02671 0.32486 0.37103 0.0
O123 O 0.03696 0.35081 0.36718 0.0
O124 O 0.99336 0.29612 0.35508 0.0
O125 O 0.99353 0.31847 0.3486 0.0
O126 O 0.66021 0.95464 0.32275 0.0
Cd127 Cd 0.65202 0.96255 0.34174 0.0
Cd128 Cd 0.68312 0.97787 0.35067 0.0
O129 O 0.6859 0.96894 0.3287 0.0
O130 O 0.63085 0.95888 0.3341 0.0
O131 O 0.6516 0.98305 0.33884 0.0
C132 C 0.63701 0.97425 0.3338 0.0
C133 C 0.69779 0.0053 0.3565 0.0
C134 C 0.67462 0.95914 0.31934 0.0
C135 C 0.66003 0.95322 0.37345 0.0
O136 O 0.67459 0.96272 0.37013 0.0
O137 O 0.64896 0.95177 0.36393 0.0
O138 O 0.70433 0.99644 0.35707 0.0
O139 O 0.68289 0.99858 0.35234 0.0
O140 O 0.03772 0.70668 0.32253 0.0
Cd141 Cd 0.03355 0.68987 0.33994 0.0
Cd142 Cd 0.01283 0.69908 0.35046 0.0
O143 O 0.01911 0.7124 0.32959 0.0
O144 O 0.04254 0.6767 0.33106 0.0
O145 O 0.01676 0.66685 0.33524 0.0
C146 C 0.02818 0.66468 0.33019 0.0
C147 C 0.98604 0.68245 0.35684 0.0
C148 C 0.03022 0.71423 0.32014 0.0
C149 C 0.04019 0.70563 0.3729 0.0
O150 O 0.02849 0.70781 0.36996 0.0
O151 O 0.04392 0.69801 0.36274 0.0
O152 O 0.9928 0.69785 0.3583 0.0
O153 O 0.99443 0.67643 0.35123 0.0
O154 O 0.29836 0.33253 0.36629 0.0
Cd155 Cd 0.30648 0.32537 0.34661 0.0
Cd156 Cd 0.32076 0.3569 0.33985 0.0
O157 O 0.31212 0.35859 0.36232 0.0
O158 O 0.30466 0.30452 0.35264 0.0
O159 O 0.32779 0.32662 0.34895 0.0
C160 C 0.32006 0.31171 0.35294 0.0
C161 C 0.34749 0.37369 0.33324 0.0
C162 C 0.30254 0.3468 0.37081 0.0
C163 C 0.29585 0.33378 0.31598 0.0
O164 O 0.305 0.34831 0.32039 0.0
O165 O 0.29505 0.32244 0.32443 0.0
O166 O 0.33762 0.37901 0.33409 0.0
O167 O 0.3423 0.35885 0.33668 0.0
O168 O 0.33343 0.03907 0.6989 0.0
Cd169 Cd 0.34975 0.03634 0.68512 0.0
Cd170 Cd 0.3231 0.0202 0.66504 0.0
O171 O 0.31194 0.02546 0.68343 0.0
O172 O 0.36866 0.0451 0.70005 0.0
O173 O 0.35611 0.01993 0.69122 0.0
C174 C 0.36735 0.03111 0.70005 0.0
C175 C 0.31289 0.99351 0.65679 0.0
C176 C 0.31864 0.03368 0.69623 0.0
C177 C 0.35116 0.04918 0.6514 0.0
O178 O 0.33672 0.03822 0.64911 0.0
O179 O 0.35844 0.05004 0.66461 0.0
O180 O 0.30616 0.00157 0.65237 0.0
O181 O 0.32554 0.00068 0.66594 0.0
O182 O 0.96774 0.30161 0.69545 0.0
Cd183 Cd 0.97673 0.31838 0.67746 0.0
Cd184 Cd 0.9832 0.29544 0.66499 0.0
O185 O 0.97438 0.28401 0.68669 0.0
O186 O 0.9722 0.33484 0.68671 0.0
O187 O 0.99671 0.33962 0.68263 0.0
C188 C 0.98732 0.34456 0.68789 0.0
C189 C 0.00905 0.30284 0.65722 0.0
C190 C 0.96818 0.28876 0.69739 0.0
C191 C 0.96147 0.30228 0.64521 0.0
O192 O 0.96717 0.293 0.64698 0.0
O193 O 0.96463 0.31342 0.65556 0.0
O194 O 0.99759 0.28814 0.65598 0.0
O195 O 0.00585 0.31341 0.6632 0.0
O196 O 0.69494 0.67098 0.64883 0.0
Cd197 Cd 0.69005 0.67983 0.66965 0.0
Cd198 Cd 0.67541 0.64809 0.67631 0.0
O199 O 0.68211 0.64496 0.65339 0.0
O200 O 0.69742 0.70262 0.66417 0.0
O201 O 0.67213 0.68491 0.66845 0.0
C202 C 0.68275 0.69925 0.6645 0.0
C203 C 0.64919 0.63865 0.68423 0.0
C204 C 0.69067 0.65669 0.64432 0.0
C205 C 0.70263 0.66994 0.69824 0.0
O206 O 0.69267 0.6555 0.69417 0.0
O207 O 0.70294 0.68148 0.69058 0.0
O208 O 0.65515 0.62923 0.68374 0.0
O209 O 0.65803 0.65326 0.6796 0.0
O210 O 0.33621 0.3006 0.65524 0.0
Cd211 Cd 0.32231 0.30399 0.672 0.0
Cd212 Cd 0.35183 0.32273 0.68707 0.0
O213 O 0.35984 0.31601 0.66687 0.0
O214 O 0.30361 0.30357 0.66068 0.0
O215 O 0.3233 0.32512 0.67282 0.0
C216 C 0.31014 0.31864 0.66451 0.0
C217 C 0.36402 0.34967 0.69548 0.0
C218 C 0.35131 0.30666 0.65533 0.0
C219 C 0.32591 0.29406 0.70504 0.0
O220 O 0.34006 0.30595 0.70466 0.0
O221 O 0.31635 0.29089 0.69306 0.0
O222 O 0.37048 0.34107 0.6987 0.0
O223 O 0.35092 0.3431 0.68709 0.0
O224 O 0.70831 0.03524 0.64215 0.0
Cd225 Cd 0.70113 0.01898 0.66072 0.0
Cd226 Cd 0.6897 0.03799 0.67205 0.0
O227 O 0.69791 0.04995 0.65046 0.0
O228 O 0.70343 0.00061 0.65245 0.0
O229 O 0.68012 0.9984 0.65828 0.0
C230 C 0.68812 0.9918 0.65314 0.0
C231 C 0.6629 0.02499 0.67905 0.0
C232 C 0.70566 0.04679 0.64002 0.0
C233 C 0.71432 0.03613 0.69275 0.0
O234 O 0.70594 0.04279 0.6906 0.0
O235 O 0.71377 0.0259 0.68246 0.0
O236 O 0.67182 0.04031 0.68121 0.0
O237 O 0.66912 0.0172 0.67235 0.0
O238 O 0.95649 0.66146 0.70107 0.0
Cd239 Cd 0.96476 0.65382 0.68192 0.0
Cd240 Cd 0.97964 0.68529 0.67491 0.0
O241 O 0.97069 0.68747 0.69699 0.0
O242 O 0.961 0.63236 0.68841 0.0
O243 O 0.98514 0.65326 0.68531 0.0
C244 C 0.97628 0.63846 0.68931 0.0
C245 C 0.00665 0.70118 0.66899 0.0
C246 C 0.9608 0.6758 0.70543 0.0
C247 C 0.95524 0.66232 0.65062 0.0
O248 O 0.96437 0.67687 0.65502 0.0
O249 O 0.95409 0.651 0.65935 0.0
O250 O 0.99721 0.70704 0.66924 0.0
O251 O 0.00084 0.68629 0.67268 0.0
C252 C 0.21172 0.27251 0.07879 0.0
C253 C 0.21261 0.2886 0.07547 0.0
C254 C 0.20149 0.29655 0.09816 0.0
C255 C 0.20518 0.30972 0.10831 0.0
C256 C 0.19327 0.31078 0.11695 0.0
C257 C 0.17733 0.29787 0.11603 0.0
C258 C 0.17353 0.28435 0.10594 0.0
C259 C 0.18562 0.28393 0.09691 0.0
C260 C 0.19781 0.32576 0.12697 0.0
C261 C 0.15674 0.27026 0.10474 0.0
C262 C 0.0773 0.30449 0.06528 0.0
C263 C 0.08541 0.29874 0.07642 0.0
C264 C 0.10907 0.30855 0.09393 0.0
C265 C 0.10497 0.29336 0.09992 0.0
C266 C 0.11541 0.2914 0.11032 0.0
C267 C 0.13012 0.30493 0.11508 0.0
C268 C 0.13406 0.3203 0.1095 0.0
C269 C 0.12349 0.32188 0.09895 0.0
C270 C 0.11086 0.27481 0.11595 0.0
C271 C 0.14956 0.335 0.1145 0.0
C272 C 0.1058 0.30717 0.22123 0.0
C273 C 0.10289 0.2915 0.21832 0.0
C274 C 0.11364 0.28879 0.20928 0.0
C275 C 0.12764 0.30201 0.20325 0.0
C276 C 0.13065 0.3178 0.20634 0.0
C277 C 0.11955 0.32013 0.21511 0.0
C278 C 0.11001 0.2718 0.20613 0.0
C279 C 0.1456 0.33223 0.20043 0.0
C280 C 0.22496 0.27568 0.21602 0.0
C281 C 0.22244 0.28953 0.22151 0.0
C282 C 0.19594 0.28663 0.21961 0.0
C283 C 0.18018 0.27418 0.2177 0.0
C284 C 0.16875 0.27659 0.2096 0.0
C285 C 0.17315 0.29197 0.20367 0.0
C286 C 0.18887 0.30487 0.20649 0.0
C287 C 0.20013 0.30204 0.21437 0.0
C288 C 0.15207 0.26261 0.20701 0.0
C289 C 0.19385 0.32157 0.20092 0.0
C290 C 0.16462 0.29862 0.12545 0.0
C291 C 0.15374 0.30151 0.11703 0.0
C292 C 0.14175 0.3028 0.12511 0.0
C293 C 0.14082 0.3017 0.1422 0.0
C294 C 0.12923 0.30344 0.15079 0.0
C295 C 0.12853 0.30249 0.16763 0.0
C296 C 0.13946 0.29989 0.17654 0.0
C297 C 0.13915 0.29936 0.19369 0.0
C298 C 0.1502 0.29672 0.20215 0.0
C299 C 0.16156 0.29443 0.19395 0.0
C300 C 0.16198 0.29482 0.17679 0.0
C301 C 0.17304 0.29227 0.16812 0.0
C302 C 0.17376 0.29326 0.1513 0.0
C303 C 0.1635 0.29689 0.14249 0.0
C304 C 0.15178 0.29878 0.15092 0.0
C305 C 0.15105 0.2978 0.1681 0.0
C306 C 0.07878 0.30824 0.25188 0.0
C307 C 0.08358 0.29984 0.23986 0.0
O308 O 0.21362 0.29635 0.09011 0.0
O309 O 0.20682 0.28339 0.2265 0.0
O310 O 0.09575 0.31035 0.22991 0.0
O311 O 0.09961 0.31078 0.0832 0.0
H312 H 0.20161 0.28609 0.06862 0.0
H313 H 0.20132 0.26498 0.08647 0.0
H314 H 0.22266 0.27445 0.08532 0.0
H315 H 0.2102 0.26577 0.06724 0.0
H316 H 0.21747 0.31939 0.10919 0.0
H317 H 0.18262 0.27361 0.08918 0.0
H318 H 0.18874 0.32955 0.12556 0.0
H319 H 0.20964 0.33586 0.12356 0.0
H320 H 0.19843 0.32329 0.13997 0.0
H321 H 0.15625 0.25971 0.09848 0.0
H322 H 0.1491 0.27376 0.09783 0.0
H323 H 0.15162 0.26668 0.11701 0.0
H324 H 0.08618 0.28822 0.07169 0.0
H325 H 0.07733 0.29914 0.05304 0.0
H326 H 0.08652 0.3171 0.06196 0.0
H327 H 0.05576 0.29892 0.07747 0.0
H328 H 0.09374 0.28292 0.09642 0.0
H329 H 0.12652 0.33357 0.09441 0.0
H330 H 0.12024 0.2719 0.11254 0.0
H331 H 0.09925 0.26543 0.11069 0.0
H332 H 0.11003 0.27445 0.12937 0.0
H333 H 0.15021 0.34625 0.11037 0.0
H334 H 0.1597 0.33419 0.10927 0.0
H335 H 0.15102 0.33561 0.12791 0.0
H336 H 0.07363 0.28946 0.23321 0.0
H337 H 0.09222 0.28137 0.22294 0.0
H338 H 0.12169 0.33217 0.21746 0.0
H339 H 0.11075 0.26974 0.19295 0.0
H340 H 0.09799 0.2628 0.2104 0.0
H341 H 0.11907 0.26988 0.21247 0.0
H342 H 0.147 0.34368 0.20536 0.0
H343 H 0.1452 0.33248 0.18699 0.0
H344 H 0.15629 0.33142 0.20394 0.0
H345 H 0.22481 0.29707 0.21061 0.0
H346 H 0.23759 0.2803 0.21256 0.0
H347 H 0.21721 0.26945 0.20527 0.0
H348 H 0.22183 0.26677 0.22574 0.0
H349 H 0.17701 0.2624 0.22206 0.0
H350 H 0.21218 0.31186 0.21644 0.0
H351 H 0.14883 0.26107 0.19391 0.0
H352 H 0.14345 0.26508 0.21345 0.0
H353 H 0.1508 0.25121 0.21151 0.0
H354 H 0.20573 0.33064 0.20596 0.0
H355 H 0.18489 0.325 0.20458 0.0
H356 H 0.19445 0.32185 0.18749 0.0
H357 H 0.15457 0.30269 0.10395 0.0
H358 H 0.12062 0.30564 0.14459 0.0
H359 H 0.11935 0.30394 0.17358 0.0
H360 H 0.15002 0.29654 0.2153 0.0
H361 H 0.18134 0.28958 0.17423 0.0
H362 H 0.18255 0.29122 0.1453 0.0
H363 H 0.06594 0.30417 0.24869 0.0
H364 H 0.08338 0.3208 0.2474 0.0
H365 H 0.08595 0.30346 0.27473 0.0
C366 C 0.684 0.88521 0.06106 0.0
C367 C 0.6819 0.89602 0.07345 0.0
C368 C 0.69653 0.89362 0.09654 0.0
C369 C 0.68369 0.88157 0.10504 0.0
C370 C 0.68616 0.87222 0.11634 0.0
C371 C 0.70177 0.87489 0.11914 0.0
C372 C 0.71482 0.88749 0.11115 0.0
C373 C 0.71203 0.89685 0.10009 0.0
C374 C 0.67199 0.85916 0.12495 0.0
C375 C 0.73161 0.89071 0.11391 0.0
C376 C 0.69573 0.79125 0.06591 0.0
C377 C 0.69293 0.77957 0.07965 0.0
C378 C 0.68972 0.7948 0.10229 0.0
C379 C 0.70574 0.80712 0.10361 0.0
C380 C 0.71004 0.82084 0.11333 0.0
C381 C 0.69813 0.82218 0.12195 0.0
C382 C 0.68213 0.80945 0.12121 0.0
C383 C 0.67818 0.79589 0.11144 0.0
C384 C 0.72725 0.83409 0.11414 0.0
C385 C 0.66912 0.81038 0.13036 0.0
C386 C 0.70636 0.80703 0.22964 0.0
C387 C 0.72144 0.82024 0.22696 0.0
C388 C 0.72339 0.83265 0.21676 0.0
C389 C 0.70981 0.83199 0.20937 0.0
C390 C 0.69445 0.81876 0.21224 0.0
C391 C 0.69291 0.80629 0.22207 0.0
C392 C 0.73997 0.84647 0.21396 0.0
C393 C 0.67958 0.81779 0.20502 0.0
C394 C 0.73223 0.95686 0.21658 0.0
C395 C 0.72029 0.93959 0.22113 0.0
C396 C 0.7248 0.91682 0.21947 0.0
C397 C 0.7372 0.91364 0.21674 0.0
C398 C 0.73418 0.89895 0.20981 0.0
C399 C 0.71828 0.88704 0.20593 0.0
C400 C 0.70557 0.88981 0.20965 0.0
C401 C 0.70897 0.90473 0.21629 0.0
C402 C 0.74802 0.89633 0.20623 0.0
C403 C 0.68842 0.87715 0.20629 0.0
C404 C 0.70411 0.86356 0.1293 0.0
C405 C 0.70167 0.84937 0.12182 0.0
C406 C 0.70211 0.83734 0.13072 0.0
C407 C 0.70517 0.83949 0.14762 0.0
C408 C 0.70558 0.82759 0.15696 0.0
C409 C 0.70792 0.82953 0.1737 0.0
C410 C 0.70993 0.84344 0.18173 0.0
C411 C 0.71158 0.84521 0.19883 0.0
C412 C 0.71422 0.8595 0.20632 0.0
C413 C 0.71506 0.87205 0.19724 0.0
C414 C 0.71281 0.87024 0.1802 0.0
C415 C 0.713 0.88239 0.17073 0.0
C416 C 0.71014 0.88024 0.15406 0.0
C417 C 0.7074 0.86603 0.14616 0.0
C418 C 0.70773 0.85385 0.15538 0.0
C419 C 0.71023 0.85587 0.17244 0.0
C420 C 0.69433 0.77023 0.25338 0.0
C421 C 0.69174 0.78076 0.24228 0.0
O422 O 0.69438 0.90217 0.08476 0.0
O423 O 0.72853 0.93169 0.22498 0.0
O424 O 0.70531 0.79544 0.23968 0.0
O425 O 0.68473 0.78178 0.09225 0.0
H426 H 0.67033 0.88876 0.07959 0.0
H427 H 0.68368 0.87487 0.06723 0.0
H428 H 0.69563 0.89201 0.05485 0.0
H429 H 0.67419 0.88043 0.05184 0.0
H430 H 0.6717 0.87938 0.10298 0.0
H431 H 0.7219 0.90632 0.09366 0.0
H432 H 0.66971 0.84729 0.12035 0.0
H433 H 0.66099 0.85991 0.12302 0.0
H434 H 0.67453 0.85985 0.13817 0.0
H435 H 0.74054 0.90125 0.10712 0.0
H436 H 0.73239 0.88001 0.11006 0.0
H437 H 0.73471 0.89285 0.12704 0.0
H438 H 0.7046 0.78147 0.08428 0.0
H439 H 0.70168 0.78891 0.05559 0.0
H440 H 0.70355 0.80386 0.07006 0.0
H441 H 0.68421 0.78991 0.06156 0.0
H442 H 0.71488 0.80622 0.09696 0.0
H443 H 0.6659 0.78622 0.1105 0.0
H444 H 0.72837 0.84498 0.10844 0.0
H445 H 0.73531 0.8307 0.10784 0.0
H446 H 0.73125 0.83724 0.12699 0.0
H447 H 0.65729 0.79937 0.12862 0.0
H448 H 0.66822 0.82083 0.12623 0.0
H449 H 0.67213 0.8122 0.14351 0.0
H450 H 0.68088 0.7816 0.24495 0.0
H451 H 0.73175 0.82074 0.23281 0.0
H452 H 0.68113 0.79614 0.22389 0.0
H453 H 0.74183 0.84906 0.20082 0.0
H454 H 0.74937 0.84405 0.21857 0.0
H455 H 0.74138 0.85738 0.22028 0.0
H456 H 0.66854 0.80835 0.2107 0.0
H457 H 0.67887 0.81494 0.19185 0.0
H458 H 0.67995 0.82947 0.20645 0.0
H459 H 0.71266 0.934 0.21009 0.0
H460 H 0.72588 0.96352 0.21381 0.0
H461 H 0.73885 0.95681 0.20563 0.0
H462 H 0.74105 0.96323 0.22656 0.0
H463 H 0.74935 0.92296 0.2195 0.0
H464 H 0.69926 0.90693 0.21894 0.0
H465 H 0.74792 0.89339 0.19314 0.0
H466 H 0.74675 0.88597 0.21317 0.0
H467 H 0.75972 0.90701 0.20944 0.0
H468 H 0.67988 0.88036 0.21176 0.0
H469 H 0.68604 0.86543 0.21108 0.0
H470 H 0.6862 0.87559 0.19299 0.0
H471 H 0.69891 0.84744 0.10892 0.0
H472 H 0.70394 0.81657 0.15144 0.0
H473 H 0.70802 0.81992 0.18029 0.0
H474 H 0.71553 0.86082 0.21942 0.0
H475 H 0.71511 0.89363 0.17612 0.0
H476 H 0.71014 0.88987 0.14743 0.0
H477 H 0.69088 0.75057 0.23817 0.0
H478 H 0.6866 0.76871 0.26414 0.0
H479 H 0.70588 0.77818 0.26018 0.0
C480 C 0.24155 0.92428 0.10429 0.0
C481 C 0.23074 0.91771 0.08914 0.0
C482 C 0.20397 0.90808 0.10039 0.0
C483 C 0.19157 0.91147 0.10214 0.0
C484 C 0.178 0.90157 0.11122 0.0
C485 C 0.17679 0.88785 0.11864 0.0
C486 C 0.18926 0.8843 0.11693 0.0
C487 C 0.20274 0.89446 0.10789 0.0
C488 C 0.16493 0.90571 0.11285 0.0
C489 C 0.18829 0.86966 0.12455 0.0
C490 C 0.06144 0.79493 0.09946 0.0
C491 C 0.07208 0.79924 0.0845 0.0
C492 C 0.0987 0.81492 0.09758 0.0
C493 C 0.11176 0.81378 0.10315 0.0
C494 C 0.12394 0.82612 0.11255 0.0
C495 C 0.12308 0.84006 0.1163 0.0
C496 C 0.11006 0.84148 0.11045 0.0
C497 C 0.09796 0.82888 0.10114 0.0
C498 C 0.13766 0.82421 0.11859 0.0
C499 C 0.10891 0.85628 0.11414 0.0
C500 C 0.09661 0.81301 0.22047 0.0
C501 C 0.10865 0.81158 0.21237 0.0
C502 C 0.12098 0.8247 0.20449 0.0
C503 C 0.121 0.83941 0.20406 0.0
C504 C 0.10893 0.84092 0.21216 0.0
C505 C 0.09703 0.82775 0.22044 0.0
C506 C 0.13402 0.82276 0.1966 0.0
C507 C 0.1085 0.85638 0.21192 0.0
C508 C 0.22078 0.95299 0.22565 0.0
C509 C 0.21212 0.94147 0.23944 0.0
C510 C 0.19687 0.9149 0.22589 0.0
C511 C 0.19633 0.90027 0.2231 0.0
C512 C 0.18422 0.8881 0.21344 0.0
C513 C 0.17224 0.8906 0.20651 0.0
C514 C 0.17259 0.90531 0.20936 0.0
C515 C 0.18497 0.91737 0.21889 0.0
C516 C 0.18427 0.87259 0.21057 0.0
C517 C 0.15988 0.9083 0.20231 0.0
C518 C 0.16222 0.8768 0.12765 0.0
C519 C 0.14937 0.86475 0.11875 0.0
C520 C 0.13578 0.85307 0.12647 0.0
C521 C 0.13487 0.85335 0.14357 0.0
C522 C 0.12148 0.8416 0.15172 0.0
C523 C 0.12094 0.84164 0.16857 0.0
C524 C 0.13377 0.85342 0.17793 0.0
C525 C 0.13365 0.85312 0.19508 0.0
C526 C 0.14629 0.86542 0.20399 0.0
C527 C 0.15934 0.87786 0.19625 0.0
C528 C 0.16004 0.87792 0.17911 0.0
C529 C 0.17336 0.88978 0.17094 0.0
C530 C 0.17406 0.88953 0.15408 0.0
C531 C 0.16145 0.87746 0.14475 0.0
C532 C 0.14777 0.86558 0.15273 0.0
C533 C 0.14715 0.8657 0.16993 0.0
C534 C 0.06975 0.7772 0.21165 0.0
C535 C 0.07978 0.78447 0.22714 0.0
O536 O 0.21679 0.91824 0.09143 0.0
O537 O 0.20906 0.92615 0.2353 0.0
O538 O 0.08452 0.80066 0.22847 0.0
O539 O 0.0872 0.80224 0.08892 0.0
H540 H 0.22778 0.90512 0.08667 0.0
H541 H 0.23549 0.91697 0.115 0.0
H542 H 0.24463 0.93687 0.10696 0.0
H543 H 0.25274 0.9239 0.10246 0.0
H544 H 0.19258 0.92198 0.09636 0.0
H545 H 0.21215 0.89156 0.10677 0.0
H546 H 0.15379 0.89608 0.10703 0.0
H547 H 0.16807 0.9173 0.10716 0.0
H548 H 0.16241 0.90639 0.12587 0.0
H549 H 0.19875 0.86826 0.12165 0.0
H550 H 0.17727 0.85872 0.12028 0.0
H551 H 0.18759 0.87051 0.13793 0.0
H552 H 0.07293 0.81 0.0787 0.0
H553 H 0.04926 0.79238 0.09594 0.0
H554 H 0.0664 0.80503 0.10844 0.0
H555 H 0.06054 0.78421 0.10537 0.0
H556 H 0.11225 0.803 0.10027 0.0
H557 H 0.08802 0.83003 0.09675 0.0
H558 H 0.14903 0.83391 0.11372 0.0
H559 H 0.13635 0.81244 0.11493 0.0
H560 H 0.13851 0.82536 0.13202 0.0
H561 H 0.09823 0.85574 0.10839 0.0
H562 H 0.11977 0.86707 0.10983 0.0
H563 H 0.10838 0.85774 0.12747 0.0
H564 H 0.09038 0.78288 0.22669 0.0
H565 H 0.10874 0.80041 0.2122 0.0
H566 H 0.08778 0.82882 0.22673 0.0
H567 H 0.13232 0.82201 0.18324 0.0
H568 H 0.13393 0.81172 0.20054 0.0
H569 H 0.14593 0.83327 0.1995 0.0
H570 H 0.09744 0.85511 0.21736 0.0
H571 H 0.10935 0.8605 0.19927 0.0
H572 H 0.11894 0.86583 0.21884 0.0
H573 H 0.20072 0.94129 0.24186 0.0
H574 H 0.22337 0.9653 0.22901 0.0
H575 H 0.21324 0.94909 0.21447 0.0
H576 H 0.23219 0.95331 0.22296 0.0
H577 H 0.20555 0.89845 0.2285 0.0
H578 H 0.18519 0.92863 0.22073 0.0
H579 H 0.18379 0.86999 0.19735 0.0
H580 H 0.17349 0.86256 0.216 0.0
H581 H 0.19502 0.87293 0.21592 0.0
H582 H 0.1611 0.91984 0.20669 0.0
H583 H 0.14784 0.8984 0.20549 0.0
H584 H 0.16063 0.90851 0.18888 0.0
H585 H 0.15013 0.8642 0.10565 0.0
H586 H 0.11131 0.83214 0.14517 0.0
H587 H 0.11035 0.83226 0.17419 0.0
H588 H 0.1461 0.86519 0.21714 0.0
H589 H 0.18347 0.8993 0.17749 0.0
H590 H 0.18465 0.89889 0.14844 0.0
H591 H 0.06579 0.76421 0.21059 0.0
H592 H 0.07695 0.78322 0.20085 0.0
H593 H 0.05907 0.77871 0.2117 0.0
C594 C 0.30249 0.10865 0.95656 0.0
C595 C 0.30846 0.10153 0.9434 0.0
C596 C 0.31372 0.12081 0.92152 0.0
C597 C 0.29772 0.11602 0.91777 0.0
C598 C 0.29393 0.12499 0.90717 0.0
C599 C 0.30637 0.13885 0.89999 0.0
C600 C 0.32245 0.14325 0.90318 0.0
C601 C 0.32589 0.13415 0.91391 0.0
C602 C 0.27665 0.11989 0.90389 0.0
C603 C 0.33601 0.15779 0.89556 0.0
C604 C 0.28333 0.23243 0.91601 0.0
C605 C 0.29093 0.22827 0.93012 0.0
C606 C 0.30148 0.21271 0.91614 0.0
C607 C 0.31529 0.21364 0.90982 0.0
C608 C 0.31469 0.20079 0.90092 0.0
C609 C 0.29988 0.18653 0.89847 0.0
C610 C 0.28584 0.18539 0.90496 0.0
C611 C 0.28675 0.19851 0.91364 0.0
C612 C 0.32991 0.20245 0.89415 0.0
C613 C 0.26988 0.17027 0.90273 0.0
C614 C 0.27315 0.19304 0.79536 0.0
C615 C 0.28917 0.19868 0.79967 0.0
C616 C 0.2937 0.18875 0.8077 0.0
C617 C 0.28185 0.17306 0.81197 0.0
C618 C 0.26574 0.16724 0.80718 0.0
C619 C 0.26167 0.17724 0.79865 0.0
C620 C 0.31111 0.19514 0.81176 0.0
C621 C 0.25275 0.15056 0.81133 0.0
C622 C 0.27548 0.06264 0.79883 0.0
C623 C 0.27712 0.07284 0.78409 0.0
C624 C 0.28907 0.10042 0.79539 0.0
C625 C 0.30306 0.11534 0.79642 0.0
C626 C 0.30364 0.12824 0.80521 0.0
C627 C 0.28982 0.12615 0.81313 0.0
C628 C 0.27559 0.11111 0.81216 0.0
C629 C 0.27535 0.09838 0.80336 0.0
C630 C 0.31903 0.14411 0.80605 0.0
C631 C 0.26061 0.1085 0.82044 0.0
C632 C 0.30261 0.14932 0.89001 0.0
C633 C 0.30244 0.16221 0.89786 0.0
C634 C 0.29917 0.17273 0.88935 0.0
C635 C 0.29573 0.17024 0.87251 0.0
C636 C 0.292 0.18033 0.86364 0.0
C637 C 0.28861 0.17779 0.84708 0.0
C638 C 0.28924 0.1653 0.83864 0.0
C639 C 0.28617 0.16284 0.82171 0.0
C640 C 0.28675 0.15018 0.81379 0.0
C641 C 0.29015 0.13974 0.8223 0.0
C642 C 0.29334 0.14207 0.83919 0.0
C643 C 0.29691 0.13186 0.84811 0.0
C644 C 0.29993 0.13418 0.86475 0.0
C645 C 0.29954 0.14683 0.87311 0.0
C646 C 0.29604 0.15731 0.86435 0.0
C647 C 0.29291 0.15491 0.84737 0.0
C648 C 0.25827 0.21973 0.79586 0.0
C649 C 0.27312 0.21814 0.79343 0.0
O650 O 0.31805 0.11318 0.9325 0.0
O651 O 0.28945 0.08847 0.78667 0.0
O652 O 0.26846 0.20265 0.78819 0.0
O653 O 0.30302 0.22576 0.92449 0.0
H654 H 0.29809 0.09158 0.9368 0.0
H655 H 0.29475 0.11291 0.95124 0.0
H656 H 0.31271 0.11895 0.96292 0.0
H657 H 0.29534 0.09939 0.96557 0.0
H658 H 0.28814 0.10547 0.92321 0.0
H659 H 0.33819 0.13765 0.91671 0.0
H660 H 0.2743 0.1296 0.90786 0.0
H661 H 0.26834 0.10873 0.91025 0.0
H662 H 0.27407 0.1179 0.89066 0.0
H663 H 0.34778 0.15878 0.89812 0.0
H664 H 0.33629 0.16878 0.90031 0.0
H665 H 0.33413 0.15729 0.88221 0.0
H666 H 0.28167 0.21727 0.93607 0.0
H667 H 0.27367 0.2345 0.92049 0.0
H668 H 0.27801 0.22244 0.90692 0.0
H669 H 0.29244 0.24341 0.90992 0.0
H670 H 0.3266 0.22459 0.9118 0.0
H671 H 0.27589 0.19749 0.91841 0.0
H672 H 0.32842 0.19966 0.88092 0.0
H673 H 0.33255 0.1937 0.89999 0.0
H674 H 0.34028 0.2147 0.89618 0.0
H675 H 0.26015 0.17101 0.90909 0.0
H676 H 0.27058 0.15986 0.90735 0.0
H677 H 0.26676 0.16799 0.88961 0.0
H678 H 0.27911 0.22059 0.80558 0.0
H679 H 0.29811 0.21081 0.79669 0.0
H680 H 0.24937 0.17298 0.79505 0.0
H681 H 0.31323 0.19821 0.8249 0.0
H682 H 0.319 0.2061 0.80489 0.0
H683 H 0.31454 0.18591 0.8091 0.0
H684 H 0.24064 0.14861 0.80856 0.0
H685 H 0.25347 0.14831 0.8244 0.0
H686 H 0.25441 0.14161 0.80424 0.0
H687 H 0.2657 0.07278 0.78202 0.0
H688 H 0.26571 0.05008 0.79669 0.0
H689 H 0.27258 0.06745 0.8098 0.0
H690 H 0.28681 0.06262 0.80123 0.0
H691 H 0.3136 0.11683 0.79029 0.0
H692 H 0.26441 0.08694 0.80284 0.0
H693 H 0.3227 0.14767 0.81892 0.0
H694 H 0.31715 0.15354 0.80059 0.0
H695 H 0.32887 0.14367 0.7996 0.0
H696 H 0.25038 0.0962 0.81823 0.0
H697 H 0.25727 0.11731 0.81607 0.0
H698 H 0.26285 0.11053 0.83372 0.0
H699 H 0.30501 0.16417 0.91079 0.0
H700 H 0.29154 0.19027 0.86943 0.0
H701 H 0.2856 0.18583 0.84097 0.0
H702 H 0.28431 0.14829 0.80084 0.0
H703 H 0.2974 0.12194 0.84231 0.0
H704 H 0.30261 0.12596 0.87099 0.0
H705 H 0.26177 0.23216 0.79981 0.0
H706 H 0.25073 0.2114 0.8054 0.0
H707 H 0.25102 0.21667 0.7845 0.0
C708 C 0.80477 0.10845 0.97189 0.0
C709 C 0.7914 0.10168 0.95901 0.0
C710 C 0.80618 0.10572 0.93402 0.0
C711 C 0.80492 0.11839 0.92731 0.0
C712 C 0.81614 0.12865 0.91614 0.0
C713 C 0.82886 0.12619 0.91159 0.0
C714 C 0.8297 0.11296 0.91771 0.0
C715 C 0.8182 0.10276 0.92874 0.0
C716 C 0.81459 0.14234 0.90944 0.0
C717 C 0.84299 0.10987 0.91294 0.0
C718 C 0.93621 0.23164 0.95635 0.0
C719 C 0.92727 0.21723 0.94567 0.0
C720 C 0.90229 0.20285 0.93 0.0
C721 C 0.90523 0.19083 0.9239 0.0
C722 C 0.89382 0.17815 0.91412 0.0
C723 C 0.87933 0.17765 0.91005 0.0
C724 C 0.87657 0.19001 0.91572 0.0
C725 C 0.88807 0.20239 0.9257 0.0
C726 C 0.89711 0.16512 0.90836 0.0
C727 C 0.86135 0.18998 0.91149 0.0
C728 C 0.90037 0.19785 0.80308 0.0
C729 C 0.90162 0.18413 0.80592 0.0
C730 C 0.89029 0.17162 0.81536 0.0
C731 C 0.87735 0.17274 0.82186 0.0
C732 C 0.87585 0.18634 0.81865 0.0
C733 C 0.88746 0.19875 0.8094 0.0
C734 C 0.89217 0.15723 0.81847 0.0
C735 C 0.86201 0.18779 0.82503 0.0
C736 C 0.7665 0.06588 0.80947 0.0
C737 C 0.77444 0.07773 0.79576 0.0
C738 C 0.80228 0.09553 0.80514 0.0
C739 C 0.81681 0.0959 0.80728 0.0
C740 C 0.82934 0.10816 0.8165 0.0
C741 C 0.82738 0.12061 0.82341 0.0
C742 C 0.81284 0.12053 0.82102 0.0
C743 C 0.80036 0.10791 0.81211 0.0
C744 C 0.84466 0.10782 0.81882 0.0
C745 C 0.81054 0.13394 0.82771 0.0
C746 C 0.84187 0.13815 0.9014 0.0
C747 C 0.85438 0.15149 0.90932 0.0
C748 C 0.86668 0.16376 0.90064 0.0
C749 C 0.86659 0.16274 0.88351 0.0
C750 C 0.87865 0.17495 0.87437 0.0
C751 C 0.87838 0.1739 0.85751 0.0
C752 C 0.86594 0.16067 0.84912 0.0
C753 C 0.86533 0.15969 0.83197 0.0
C754 C 0.85278 0.1464 0.82404 0.0
C755 C 0.84069 0.13395 0.83275 0.0
C756 C 0.84109 0.13469 0.84991 0.0
C757 C 0.82913 0.12238 0.85908 0.0
C758 C 0.82935 0.12347 0.87594 0.0
C759 C 0.84165 0.1368 0.88429 0.0
C760 C 0.85403 0.14919 0.87532 0.0
C761 C 0.85372 0.14815 0.85811 0.0
C762 C 0.93827 0.21713 0.8002 0.0
C763 C 0.92511 0.21265 0.78734 0.0
O764 O 0.79603 0.09621 0.94558 0.0
O765 O 0.79074 0.08327 0.79598 0.0
O766 O 0.91125 0.21053 0.7945 0.0
O767 O 0.91267 0.21489 0.94016 0.0
H768 H 0.78908 0.11147 0.9556 0.0
H769 H 0.81562 0.11888 0.96702 0.0
H770 H 0.80785 0.09921 0.97546 0.0
H771 H 0.80105 0.11258 0.98282 0.0
H772 H 0.79518 0.12028 0.9307 0.0
H773 H 0.81889 0.09278 0.93376 0.0
H774 H 0.82479 0.1539 0.91386 0.0
H775 H 0.80331 0.14184 0.91311 0.0
H776 H 0.81504 0.14216 0.89599 0.0
H777 H 0.8417 0.0988 0.91838 0.0
H778 H 0.85465 0.12021 0.91688 0.0
H779 H 0.84319 0.10875 0.89953 0.0
H780 H 0.92679 0.20615 0.95025 0.0
H781 H 0.93712 0.22685 0.96846 0.0
H782 H 0.9273 0.23519 0.96059 0.0
H783 H 0.95672 0.24705 0.9426 0.0
H784 H 0.91629 0.19113 0.92687 0.0
H785 H 0.88593 0.21174 0.93035 0.0
H786 H 0.88736 0.15324 0.91217 0.0
H787 H 0.90864 0.16686 0.91316 0.0
H788 H 0.89739 0.16491 0.89491 0.0
H789 H 0.86192 0.20145 0.91502 0.0
H790 H 0.85125 0.18008 0.91788 0.0
H791 H 0.85879 0.18782 0.89826 0.0
H792 H 0.92265 0.20141 0.78083 0.0
H793 H 0.9114 0.1831 0.80094 0.0
H794 H 0.88653 0.20932 0.80706 0.0
H795 H 0.89204 0.15525 0.83172 0.0
H796 H 0.90342 0.15859 0.81345 0.0
H797 H 0.88194 0.14635 0.81288 0.0
H798 H 0.86186 0.19849 0.82034 0.0
H799 H 0.86274 0.1887 0.83848 0.0
H800 H 0.85055 0.17689 0.82163 0.0
H801 H 0.77201 0.08774 0.79748 0.0
H802 H 0.75341 0.06122 0.80929 0.0
H803 H 0.77141 0.07202 0.82137 0.0
H804 H 0.76872 0.05564 0.80825 0.0
H805 H 0.81826 0.0864 0.80181 0.0
H806 H 0.78941 0.10816 0.81046 0.0
H807 H 0.848 0.10923 0.8319 0.0
H808 H 0.85444 0.11804 0.81242 0.0
H809 H 0.84372 0.0965 0.81407 0.0
H810 H 0.79918 0.13299 0.82342 0.0
H811 H 0.8206 0.14574 0.82414 0.0
H812 H 0.81047 0.13366 0.84116 0.0
H813 H 0.85444 0.15245 0.92245 0.0
H814 H 0.88843 0.18548 0.88016 0.0
H815 H 0.888 0.18364 0.85111 0.0
H816 H 0.85228 0.14586 0.81088 0.0
H817 H 0.81939 0.11181 0.8533 0.0
H818 H 0.81975 0.11372 0.88236 0.0
H819 H 0.94943 0.21912 0.79437 0.0
H820 H 0.93469 0.20737 0.80903 0.0
H821 H 0.94073 0.22823 0.80697 0.0
C822 C 0.80666 0.71945 0.96311 0.0
C823 C 0.79358 0.71713 0.9509 0.0
C824 C 0.80257 0.70793 0.92722 0.0
C825 C 0.81588 0.72282 0.92355 0.0
C826 C 0.82731 0.72379 0.91249 0.0
C827 C 0.82537 0.70961 0.90493 0.0
C828 C 0.8116 0.69471 0.90801 0.0
C829 C 0.80032 0.69411 0.91905 0.0
C830 C 0.84174 0.73989 0.90925 0.0
C831 C 0.8091 0.67935 0.90014 0.0
C832 C 0.88086 0.67628 0.95693 0.0
C833 C 0.89455 0.67956 0.94544 0.0
C834 C 0.89152 0.69727 0.92631 0.0
C835 C 0.87841 0.68516 0.91753 0.0
C836 C 0.86957 0.68895 0.90675 0.0
C837 C 0.87381 0.70518 0.90475 0.0
C838 C 0.88737 0.71745 0.91303 0.0
C839 C 0.89615 0.71332 0.9236 0.0
C840 C 0.85531 0.67554 0.89791 0.0
C841 C 0.89226 0.73486 0.91106 0.0
C842 C 0.90786 0.72075 0.80272 0.0
C843 C 0.89583 0.70523 0.80664 0.0
C844 C 0.88168 0.70272 0.81392 0.0
C845 C 0.87965 0.71603 0.8175 0.0
C846 C 0.89144 0.73157 0.81281 0.0
C847 C 0.90533 0.73368 0.80528 0.0
C848 C 0.86907 0.6859 0.81814 0.0
C849 C 0.88957 0.746 0.81618 0.0
C850 C 0.76713 0.69642 0.76829 0.0
C851 C 0.78148 0.70625 0.7787 0.0
C852 C 0.79709 0.70131 0.79904 0.0
C853 C 0.79775 0.68919 0.80749 0.0
C854 C 0.81152 0.69221 0.81614 0.0
C855 C 0.82484 0.70797 0.81683 0.0
C856 C 0.82424 0.72037 0.80836 0.0
C857 C 0.8104 0.71689 0.79942 0.0
C858 C 0.81179 0.67848 0.82451 0.0
C859 C 0.83816 0.7373 0.80887 0.0
C860 C 0.83848 0.71016 0.89515 0.0
C861 C 0.85046 0.70895 0.90347 0.0
C862 C 0.86307 0.70899 0.89525 0.0
C863 C 0.86419 0.71092 0.87827 0.0
C864 C 0.87717 0.71191 0.86973 0.0
C865 C 0.87793 0.71338 0.85294 0.0
C866 C 0.86541 0.71327 0.844 0.0
C867 C 0.86565 0.71391 0.82686 0.0
C868 C 0.85247 0.71262 0.81835 0.0
C869 C 0.83924 0.71133 0.82653 0.0
C870 C 0.83935 0.7119 0.84369 0.0
C871 C 0.82679 0.71182 0.85233 0.0
C872 C 0.82665 0.71163 0.86921 0.0
C873 C 0.83889 0.7112 0.87806 0.0
C874 C 0.85185 0.71164 0.86961 0.0
C875 C 0.85225 0.71237 0.85242 0.0
C876 C 0.94692 0.72917 0.80817 0.0
C877 C 0.93057 0.71634 0.80152 0.0
O878 O 0.79182 0.70622 0.93872 0.0
O879 O 0.78341 0.6974 0.79073 0.0
O880 O 0.92203 0.72364 0.79655 0.0
O881 O 0.89975 0.69402 0.93768 0.0
H882 H 0.79674 0.72884 0.94544 0.0
H883 H 0.81846 0.72478 0.95723 0.0
H884 H 0.80395 0.70776 0.96827 0.0
H885 H 0.80757 0.72771 0.97315 0.0
H886 H 0.8176 0.7337 0.92945 0.0
H887 H 0.78992 0.6827 0.92181 0.0
H888 H 0.8526 0.74019 0.91419 0.0
H889 H 0.8408 0.74996 0.91486 0.0
H890 H 0.8433 0.74174 0.89597 0.0
H891 H 0.79739 0.66886 0.90322 0.0
H892 H 0.81873 0.67703 0.90415 0.0
H893 H 0.80979 0.68052 0.88676 0.0
H894 H 0.89036 0.66964 0.93627 0.0
H895 H 0.87691 0.66486 0.96336 0.0
H896 H 0.87044 0.67516 0.95004 0.0
H897 H 0.88475 0.68622 0.96603 0.0
H898 H 0.8748 0.67268 0.91914 0.0
H899 H 0.90637 0.72262 0.93027 0.0
H900 H 0.85624 0.67777 0.88468 0.0
H901 H 0.84424 0.67518 0.90209 0.0
H902 H 0.85419 0.66363 0.89994 0.0
H903 H 0.9037 0.74305 0.91747 0.0
H904 H 0.8828 0.73705 0.91591 0.0
H905 H 0.89351 0.73781 0.89798 0.0
H906 H 0.92457 0.7082 0.81181 0.0
H907 H 0.89751 0.6951 0.80404 0.0
H908 H 0.91458 0.74556 0.80192 0.0
H909 H 0.86854 0.6847 0.83152 0.0
H910 H 0.87154 0.67671 0.81281 0.0
H911 H 0.85715 0.68347 0.81379 0.0
H912 H 0.89997 0.75732 0.81207 0.0
H913 H 0.88807 0.74712 0.82939 0.0
H914 H 0.87865 0.74439 0.80992 0.0
H915 H 0.78314 0.71801 0.78308 0.0
H916 H 0.75924 0.70181 0.77038 0.0
H917 H 0.75919 0.68516 0.77513 0.0
H918 H 0.77664 0.69596 0.7451 0.0
H919 H 0.78743 0.67721 0.80705 0.0
H920 H 0.80997 0.72637 0.79294 0.0
H921 H 0.8109 0.67974 0.83781 0.0
H922 H 0.82319 0.67866 0.82218 0.0
H923 H 0.80172 0.66664 0.82047 0.0
H924 H 0.8352 0.7459 0.80316 0.0
H925 H 0.84836 0.73769 0.80236 0.0
H926 H 0.84209 0.74126 0.82162 0.0
H927 H 0.8497 0.70749 0.91652 0.0
H928 H 0.88694 0.71167 0.87596 0.0
H929 H 0.88829 0.71423 0.84703 0.0
H930 H 0.85243 0.71239 0.80519 0.0
H931 H 0.81692 0.71189 0.84612 0.0
H932 H 0.81666 0.7115 0.87524 0.0
H933 H 0.95414 0.72362 0.81177 0.0
H934 H 0.94531 0.73515 0.81905 0.0
H935 H 0.95354 0.73849 0.79903 0.0
C936 C 0.86443 0.62674 0.38485 0.0
C937 C 0.8767 0.63516 0.39858 0.0
C938 C 0.86273 0.62576 0.42387 0.0
C939 C 0.8663 0.64014 0.43192 0.0
C940 C 0.85572 0.64059 0.44322 0.0
C941 C 0.84126 0.62636 0.44647 0.0
C942 C 0.83806 0.61169 0.439 0.0
C943 C 0.84897 0.61155 0.42789 0.0
C944 C 0.85977 0.65637 0.4513 0.0
C945 C 0.82287 0.59628 0.44237 0.0
C946 C 0.75259 0.65473 0.4023 0.0
C947 C 0.75765 0.64442 0.41074 0.0
C948 C 0.78012 0.64777 0.42781 0.0
C949 C 0.77368 0.63148 0.43145 0.0
C950 C 0.78214 0.62647 0.44146 0.0
C951 C 0.79717 0.63799 0.4481 0.0
C952 C 0.80336 0.65444 0.44489 0.0
C953 C 0.79479 0.65907 0.43468 0.0
C954 C 0.77522 0.60884 0.44468 0.0
C955 C 0.81925 0.66711 0.45188 0.0
C956 C 0.77501 0.63755 0.55621 0.0
C957 C 0.77039 0.62176 0.55163 0.0
C958 C 0.77997 0.61825 0.54154 0.0
C959 C 0.7946 0.6309 0.53594 0.0
C960 C 0.79935 0.64693 0.54042 0.0
C961 C 0.78949 0.65011 0.55039 0.0
C962 C 0.77453 0.60103 0.53693 0.0
C963 C 0.81495 0.66073 0.53477 0.0
C964 C 0.89187 0.60328 0.54759 0.0
C965 C 0.8879 0.61633 0.55235 0.0
C966 C 0.86113 0.61272 0.54957 0.0
C967 C 0.84541 0.60033 0.54715 0.0
C968 C 0.83408 0.60308 0.53931 0.0
C969 C 0.83856 0.61871 0.53412 0.0
C970 C 0.85423 0.6315 0.5374 0.0
C971 C 0.86538 0.62835 0.54504 0.0
C972 C 0.81742 0.58922 0.53624 0.0
C973 C 0.85925 0.64844 0.53263 0.0
C974 C 0.82896 0.62716 0.45653 0.0
C975 C 0.81834 0.6308 0.44869 0.0
C976 C 0.80706 0.63286 0.45733 0.0
C977 C 0.80619 0.63108 0.47436 0.0
C978 C 0.79511 0.6332 0.48348 0.0
C979 C 0.79461 0.63181 0.50028 0.0
C980 C 0.80526 0.62836 0.50862 0.0
C981 C 0.8052 0.62744 0.52573 0.0
C982 C 0.81601 0.62407 0.53362 0.0
C983 C 0.82701 0.62163 0.5249 0.0
C984 C 0.82725 0.6225 0.50777 0.0
C985 C 0.83817 0.62014 0.4986 0.0
C986 C 0.8387 0.62157 0.48182 0.0
C987 C 0.82824 0.62527 0.47353 0.0
C988 C 0.81685 0.62731 0.48248 0.0
C989 C 0.81639 0.62596 0.49963 0.0
C990 C 0.78017 0.66051 0.58659 0.0
C991 C 0.76794 0.6547 0.57252 0.0
O992 O 0.87224 0.62541 0.41202 0.0
O993 O 0.87188 0.60918 0.55624 0.0
O994 O 0.76529 0.64007 0.56631 0.0
O995 O 0.77283 0.65316 0.41758 0.0
H996 H 0.87683 0.64657 0.40148 0.0
H997 H 0.85256 0.62465 0.38871 0.0
H998 H 0.86333 0.61496 0.38164 0.0
H999 H 0.86797 0.63432 0.37392 0.0
H1000 H 0.8773 0.65102 0.42924 0.0
H1001 H 0.84646 0.60047 0.42178 0.0
H1002 H 0.85136 0.66022 0.44689 0.0
H1003 H 0.87214 0.66598 0.44874 0.0
H1004 H 0.85838 0.65497 0.46463 0.0
H1005 H 0.8225 0.58574 0.43622 0.0
H1006 H 0.81245 0.59724 0.43816 0.0
H1007 H 0.82167 0.59425 0.45563 0.0
H1008 H 0.75549 0.63343 0.40387 0.0
H1009 H 0.75094 0.6506 0.3892 0.0
H1010 H 0.76376 0.66651 0.40002 0.0
H1011 H 0.73349 0.65305 0.41659 0.0
H1012 H 0.76226 0.62262 0.42628 0.0
H1013 H 0.79959 0.67162 0.43188 0.0
H1014 H 0.78335 0.60474 0.43994 0.0
H1015 H 0.76323 0.60139 0.43895 0.0
H1016 H 0.77426 0.60686 0.45795 0.0
H1017 H 0.82148 0.67945 0.44983 0.0
H1018 H 0.82894 0.66588 0.44613 0.0
H1019 H 0.81983 0.66547 0.46512 0.0
H1020 H 0.77273 0.66381 0.56286 0.0
H1021 H 0.75923 0.61212 0.55609 0.0
H1022 H 0.79337 0.66245 0.55364 0.0
H1023 H 0.77439 0.59965 0.52353 0.0
H1024 H 0.76244 0.59262 0.54154 0.0
H1025 H 0.78311 0.59764 0.54193 0.0
H1026 H 0.81727 0.67247 0.53985 0.0
H1027 H 0.81482 0.66121 0.52134 0.0
H1028 H 0.82498 0.65885 0.53838 0.0
H1029 H 0.89043 0.62383 0.54139 0.0
H1030 H 0.90479 0.60872 0.54494 0.0
H1031 H 0.88493 0.59675 0.53651 0.0
H1032 H 0.88875 0.59444 0.55739 0.0
H1033 H 0.84218 0.58836 0.55094 0.0
H1034 H 0.87737 0.63812 0.5475 0.0
H1035 H 0.81449 0.58807 0.52307 0.0
H1036 H 0.80868 0.59157 0.5426 0.0
H1037 H 0.81599 0.57767 0.54047 0.0
H1038 H 0.87126 0.65726 0.53758 0.0
H1039 H 0.85045 0.65181 0.53701 0.0
H1040 H 0.85952 0.6492 0.51921 0.0
H1041 H 0.81912 0.63246 0.43567 0.0
H1042 H 0.78672 0.636 0.47771 0.0
H1043 H 0.78585 0.63359 0.50668 0.0
H1044 H 0.81605 0.62361 0.54676 0.0
H1045 H 0.84654 0.61728 0.50431 0.0
H1046 H 0.84746 0.6198 0.4754 0.0
H1047 H 0.77629 0.65136 0.59617 0.0
H1048 H 0.78169 0.67185 0.592 0.0
H1049 H 0.79198 0.66289 0.58228 0.0
C1050 C 0.35954 0.23222 0.38589 0.0
C1051 C 0.35318 0.2387 0.39923 0.0
C1052 C 0.36358 0.23341 0.42387 0.0
C1053 C 0.34952 0.22164 0.43102 0.0
C1054 C 0.34987 0.21068 0.44184 0.0
C1055 C 0.36458 0.2115 0.44556 0.0
C1056 C 0.37887 0.2238 0.43891 0.0
C1057 C 0.37819 0.23475 0.42829 0.0
C1058 C 0.33446 0.198 0.44904 0.0
C1059 C 0.39476 0.22509 0.44266 0.0
C1060 C 0.34146 0.08978 0.41198 0.0
C1061 C 0.35068 0.10736 0.41524 0.0
C1062 C 0.34667 0.12744 0.43001 0.0
C1063 C 0.3629 0.13922 0.43124 0.0
C1064 C 0.3677 0.15377 0.4397 0.0
C1065 C 0.35606 0.15652 0.44704 0.0
C1066 C 0.33972 0.14468 0.44574 0.0
C1067 C 0.33527 0.13031 0.4372 0.0
C1068 C 0.3852 0.16617 0.44088 0.0
C1069 C 0.32698 0.1472 0.45342 0.0
C1070 C 0.37484 0.14152 0.55131 0.0
C1071 C 0.38826 0.15249 0.54256 0.0
C1072 C 0.38801 0.16477 0.53377 0.0
C1073 C 0.37401 0.16598 0.53346 0.0
C1074 C 0.36051 0.15499 0.54224 0.0
C1075 C 0.36115 0.14296 0.5511 0.0
C1076 C 0.40272 0.17642 0.52473 0.0
C1077 C 0.34537 0.1559 0.54214 0.0
C1078 C 0.3899 0.28477 0.5444 0.0
C1079 C 0.38133 0.27066 0.55582 0.0
C1080 C 0.38631 0.24861 0.54923 0.0
C1081 C 0.39888 0.24669 0.54365 0.0
C1082 C 0.39597 0.23265 0.53528 0.0
C1083 C 0.38005 0.22014 0.53269 0.0
C1084 C 0.36728 0.22173 0.5389 0.0
C1085 C 0.37054 0.23593 0.54718 0.0
C1086 C 0.40987 0.23123 0.52904 0.0
C1087 C 0.3502 0.20842 0.53674 0.0
C1088 C 0.36483 0.19884 0.45549 0.0
C1089 C 0.36141 0.18448 0.44758 0.0
C1090 C 0.36086 0.17177 0.45609 0.0
C1091 C 0.36405 0.1734 0.47298 0.0
C1092 C 0.36368 0.16087 0.48189 0.0
C1093 C 0.36673 0.16254 0.49852 0.0
C1094 C 0.37026 0.1768 0.5069 0.0
C1095 C 0.37348 0.17864 0.5238 0.0
C1096 C 0.37662 0.19286 0.5318 0.0
C1097 C 0.37675 0.20544 0.52337 0.0
C1098 C 0.37382 0.20393 0.50642 0.0
C1099 C 0.37405 0.21641 0.49751 0.0
C1100 C 0.37112 0.21479 0.48084 0.0
C1101 C 0.36788 0.20064 0.47242 0.0
C1102 C 0.36755 0.18789 0.48117 0.0
C1103 C 0.37056 0.18955 0.49817 0.0
C1104 C 0.38625 0.11575 0.54628 0.0
C1105 C 0.38641 0.1254 0.56132 0.0
O1106 O 0.36338 0.24353 0.41266 0.0
O1107 O 0.38989 0.26263 0.55691 0.0
O1108 O 0.37449 0.12939 0.55999 0.0
O1109 O 0.34143 0.11315 0.42211 0.0
H1110 H 0.34112 0.22887 0.40247 0.0
H1111 H 0.35992 0.22155 0.39025 0.0
H1112 H 0.37179 0.24147 0.38244 0.0
H1113 H 0.35158 0.22854 0.37499 0.0
H1114 H 0.33826 0.221 0.42821 0.0
H1115 H 0.389 0.24405 0.4229 0.0
H1116 H 0.33138 0.18608 0.44381 0.0
H1117 H 0.32439 0.20016 0.44656 0.0
H1118 H 0.33589 0.19757 0.46236 0.0
H1119 H 0.40477 0.23528 0.43644 0.0
H1120 H 0.39445 0.2138 0.43888 0.0
H1121 H 0.39713 0.22669 0.45594 0.0
H1122 H 0.35829 0.11479 0.40517 0.0
H1123 H 0.34159 0.08848 0.39838 0.0
H1124 H 0.32841 0.08612 0.41227 0.0
H1125 H 0.35188 0.08025 0.42813 0.0
H1126 H 0.37183 0.13715 0.42565 0.0
H1127 H 0.32279 0.12114 0.43617 0.0
H1128 H 0.38721 0.17759 0.43563 0.0
H1129 H 0.39281 0.16226 0.43448 0.0
H1130 H 0.38902 0.16866 0.45383 0.0
H1131 H 0.31481 0.13673 0.45143 0.0
H1132 H 0.32733 0.15797 0.4483 0.0
H1133 H 0.32933 0.14939 0.46667 0.0
H1134 H 0.39826 0.1365 0.56244 0.0
H1135 H 0.39898 0.15163 0.54242 0.0
H1136 H 0.35085 0.13448 0.55785 0.0
H1137 H 0.40014 0.17481 0.51149 0.0
H1138 H 0.41308 0.17474 0.52727 0.0
H1139 H 0.40604 0.18895 0.52808 0.0
H1140 H 0.33564 0.14597 0.54891 0.0
H1141 H 0.34124 0.15548 0.52945 0.0
H1142 H 0.34779 0.1675 0.5477 0.0
H1143 H 0.36922 0.26279 0.55052 0.0
H1144 H 0.38332 0.29147 0.54349 0.0
H1145 H 0.39046 0.28024 0.53209 0.0
H1146 H 0.40229 0.2931 0.54878 0.0
H1147 H 0.41102 0.2564 0.54559 0.0
H1148 H 0.36076 0.23694 0.55224 0.0
H1149 H 0.4087 0.22925 0.51569 0.0
H1150 H 0.40976 0.22067 0.53445 0.0
H1151 H 0.42154 0.2421 0.53193 0.0
H1152 H 0.34163 0.2113 0.5427 0.0
H1153 H 0.34878 0.19717 0.54185 0.0
H1154 H 0.34713 0.20614 0.52361 0.0
H1155 H 0.35885 0.18308 0.43464 0.0
H1156 H 0.36104 0.14962 0.4761 0.0
H1157 H 0.36626 0.15248 0.50474 0.0
H1158 H 0.37904 0.19419 0.54477 0.0
H1159 H 0.3765 0.22759 0.50334 0.0
H1160 H 0.37142 0.22477 0.47462 0.0
H1161 H 0.37444 0.10469 0.54468 0.0
H1162 H 0.39564 0.11235 0.54746 0.0
H1163 H 0.38869 0.12302 0.53523 0.0
C1164 C 0.86568 0.22982 0.38134 0.0
C1165 C 0.87615 0.24134 0.39499 0.0
C1166 C 0.86599 0.22341 0.41829 0.0
C1167 C 0.85235 0.22481 0.42093 0.0
C1168 C 0.84047 0.21466 0.43163 0.0
C1169 C 0.84201 0.2026 0.43967 0.0
C1170 C 0.85579 0.20126 0.43725 0.0
C1171 C 0.8677 0.21185 0.42676 0.0
C1172 C 0.82613 0.21671 0.4342 0.0
C1173 C 0.85779 0.18848 0.44554 0.0
C1174 C 0.72673 0.11423 0.41195 0.0
C1175 C 0.74122 0.11327 0.40583 0.0
C1176 C 0.76308 0.12717 0.42595 0.0
C1177 C 0.77348 0.12493 0.43596 0.0
C1178 C 0.78657 0.13796 0.44374 0.0
C1179 C 0.78895 0.15362 0.44194 0.0
C1180 C 0.77844 0.156 0.43184 0.0
C1181 C 0.76573 0.14278 0.42377 0.0
C1182 C 0.79777 0.13491 0.45394 0.0
C1183 C 0.78053 0.17249 0.42961 0.0
C1184 C 0.75841 0.14561 0.5455 0.0
C1185 C 0.76904 0.14041 0.5408 0.0
C1186 C 0.78311 0.15066 0.53256 0.0
C1187 C 0.78637 0.1663 0.52862 0.0
C1188 C 0.77589 0.17171 0.53385 0.0
C1189 C 0.76216 0.16135 0.54248 0.0
C1190 C 0.79435 0.1447 0.52792 0.0
C1191 C 0.779 0.18832 0.53003 0.0
C1192 C 0.89577 0.27318 0.5361 0.0
C1193 C 0.88661 0.26619 0.55175 0.0
C1194 C 0.8676 0.23809 0.54383 0.0
C1195 C 0.86503 0.22246 0.54408 0.0
C1196 C 0.85203 0.20983 0.53575 0.0
C1197 C 0.84114 0.21289 0.52719 0.0
C1198 C 0.84339 0.2286 0.52721 0.0
C1199 C 0.85671 0.24109 0.53533 0.0
C1200 C 0.85003 0.19323 0.53597 0.0
C1201 C 0.83176 0.23223 0.51858 0.0
C1202 C 0.8288 0.19102 0.45 0.0
C1203 C 0.81577 0.17798 0.44226 0.0
C1204 C 0.80223 0.16742 0.45089 0.0
C1205 C 0.80154 0.16998 0.46774 0.0
C1206 C 0.78776 0.16019 0.47663 0.0
C1207 C 0.78732 0.16253 0.49327 0.0
C1208 C 0.80068 0.17467 0.50171 0.0
C1209 C 0.80051 0.17684 0.51872 0.0
C1210 C 0.81391 0.18929 0.52662 0.0
C1211 C 0.82752 0.19973 0.51802 0.0
C1212 C 0.82797 0.19765 0.50105 0.0
C1213 C 0.84149 0.2079 0.49202 0.0
C1214 C 0.84173 0.20589 0.47529 0.0
C1215 C 0.82863 0.19329 0.46698 0.0
C1216 C 0.81492 0.18273 0.47586 0.0
C1217 C 0.81453 0.18501 0.49289 0.0
C1218 C 0.71774 0.11814 0.54372 0.0
C1219 C 0.73403 0.11996 0.54789 0.0
O1220 O 0.8776 0.23276 0.40766 0.0
O1221 O 0.88067 0.24976 0.5519 0.0
O1222 O 0.74443 0.13567 0.55284 0.0
O1223 O 0.75056 0.11393 0.41897 0.0
H1224 H 0.87063 0.24838 0.39943 0.0
H1225 H 0.8535 0.22159 0.38579 0.0
H1226 H 0.87091 0.22252 0.37681 0.0
H1227 H 0.8646 0.23664 0.37112 0.0
H1228 H 0.85078 0.23375 0.41474 0.0
H1229 H 0.87826 0.21085 0.42477 0.0
H1230 H 0.81534 0.20616 0.42893 0.0
H1231 H 0.82749 0.22769 0.42846 0.0
H1232 H 0.8241 0.21732 0.44737 0.0
H1233 H 0.86893 0.18865 0.44196 0.0
H1234 H 0.84744 0.17646 0.44252 0.0
H1235 H 0.85802 0.19025 0.45889 0.0
H1236 H 0.74816 0.12358 0.39774 0.0
H1237 H 0.71939 0.11429 0.40156 0.0
H1238 H 0.73068 0.12546 0.41913 0.0
H1239 H 0.71932 0.10398 0.4199 0.0
H1240 H 0.77137 0.11286 0.43754 0.0
H1241 H 0.75779 0.14474 0.41608 0.0
H1242 H 0.8104 0.14395 0.45153 0.0
H1243 H 0.79606 0.12273 0.45162 0.0
H1244 H 0.79556 0.13595 0.46697 0.0
H1245 H 0.76996 0.17199 0.42362 0.0
H1246 H 0.79109 0.17959 0.42196 0.0
H1247 H 0.7827 0.1789 0.44148 0.0
H1248 H 0.7382 0.11701 0.53645 0.0
H1249 H 0.76636 0.12836 0.54362 0.0
H1250 H 0.75396 0.16529 0.54638 0.0
H1251 H 0.79344 0.14226 0.51465 0.0
H1252 H 0.79155 0.13347 0.53421 0.0
H1253 H 0.80689 0.15396 0.53084 0.0
H1254 H 0.76894 0.19014 0.53362 0.0
H1255 H 0.78105 0.1905 0.51685 0.0
H1256 H 0.78996 0.19738 0.53658 0.0
H1257 H 0.87663 0.26878 0.5526 0.0
H1258 H 0.90062 0.28636 0.53597 0.0
H1259 H 0.8877 0.26775 0.52539 0.0
H1260 H 0.9058 0.27069 0.53502 0.0
H1261 H 0.87344 0.22024 0.55068 0.0
H1262 H 0.85842 0.25307 0.53491 0.0
H1263 H 0.84902 0.18855 0.52336 0.0
H1264 H 0.83881 0.18498 0.54224 0.0
H1265 H 0.86014 0.19306 0.54225 0.0
H1266 H 0.83407 0.24454 0.5214 0.0
H1267 H 0.81933 0.22347 0.52199 0.0
H1268 H 0.8327 0.23104 0.50528 0.0
H1269 H 0.81609 0.17613 0.42929 0.0
H1270 H 0.77712 0.15061 0.47083 0.0
H1271 H 0.77637 0.15462 0.49943 0.0
H1272 H 0.8137 0.19094 0.53965 0.0
H1273 H 0.85204 0.21766 0.49777 0.0
H1274 H 0.85241 0.21423 0.46897 0.0
H1275 H 0.70909 0.10552 0.54013 0.0
H1276 H 0.71895 0.12594 0.5334 0.0
H1277 H 0.71295 0.12173 0.55419 0.0
C1278 C 0.01261 0.43293 0.24446 0.0
C1279 C 0.00858 0.43821 0.26055 0.0
C1280 C 0.99382 0.45133 0.25083 0.0
C1281 C 0.97856 0.44915 0.24823 0.0
C1282 C 0.97629 0.46047 0.23983 0.0
C1283 C 0.9897 0.47442 0.23403 0.0
C1284 C 0.00522 0.4769 0.23686 0.0
C1285 C 0.00715 0.46533 0.24519 0.0
C1286 C 0.95957 0.45745 0.237 0.0
C1287 C 0.01978 0.49174 0.23097 0.0
C1288 C 0.9745 0.54476 0.29838 0.0
C1289 C 0.98765 0.5548 0.28636 0.0
C1290 C 0.98209 0.54362 0.25907 0.0
C1291 C 0.99694 0.54578 0.25437 0.0
C1292 C 0.99792 0.53537 0.24291 0.0
C1293 C 0.98372 0.52243 0.23618 0.0
C1294 C 0.96873 0.5206 0.24051 0.0
C1295 C 0.96815 0.53144 0.25172 0.0
C1296 C 0.01411 0.53793 0.23835 0.0
C1297 C 0.95333 0.50685 0.23378 0.0
C1298 C 0.96893 0.54143 0.13343 0.0
C1299 C 0.98463 0.54569 0.13771 0.0
C1300 C 0.988 0.53453 0.14489 0.0
C1301 C 0.97531 0.51891 0.14812 0.0
C1302 C 0.95954 0.51445 0.14321 0.0
C1303 C 0.9566 0.52575 0.13568 0.0
C1304 C 0.00505 0.5395 0.14928 0.0
C1305 C 0.94572 0.49789 0.14626 0.0
C1306 C 0.96989 0.40823 0.13957 0.0
C1307 C 0.96657 0.4141 0.12363 0.0
C1308 C 0.97764 0.44292 0.12976 0.0
C1309 C 0.99153 0.45792 0.12922 0.0
C1310 C 0.99278 0.47131 0.13768 0.0
C1311 C 0.97962 0.46972 0.1466 0.0
C1312 C 0.96528 0.45474 0.14666 0.0
C1313 C 0.96451 0.44147 0.13849 0.0
C1314 C 0.00825 0.48707 0.13735 0.0
C1315 C 0.95077 0.45267 0.15556 0.0
C1316 C 0.98748 0.48636 0.22485 0.0
C1317 C 0.9866 0.49842 0.23362 0.0
C1318 C 0.98452 0.51007 0.22581 0.0
C1319 C 0.98322 0.50969 0.20868 0.0
C1320 C 0.98111 0.52116 0.20037 0.0
C1321 C 0.97946 0.52043 0.18354 0.0
C1322 C 0.98016 0.50837 0.17431 0.0
C1323 C 0.97839 0.50746 0.15719 0.0
C1324 C 0.97879 0.49506 0.14848 0.0
C1325 C 0.98091 0.48346 0.15637 0.0
C1326 C 0.98305 0.48441 0.17343 0.0
C1327 C 0.98554 0.47315 0.18173 0.0
C1328 C 0.98703 0.47378 0.19854 0.0
C1329 C 0.98621 0.48577 0.20773 0.0
C1330 C 0.98402 0.49745 0.19962 0.0
C1331 C 0.98251 0.4968 0.18243 0.0
C1332 C 0.95608 0.56758 0.14158 0.0
C1333 C 0.97036 0.56735 0.13396 0.0
O1334 O 0.99505 0.43961 0.25867 0.0
O1335 O 0.97747 0.43029 0.12179 0.0
O1336 O 0.96536 0.55227 0.12719 0.0
O1337 O 0.98097 0.55289 0.27099 0.0
H1338 H 0.01882 0.44994 0.26464 0.0
H1339 H 0.01521 0.44196 0.235 0.0
H1340 H 0.00245 0.42127 0.24013 0.0
H1341 H 0.02335 0.43165 0.246 0.0
H1342 H 0.96835 0.43837 0.25264 0.0
H1343 H 0.01909 0.46735 0.24715 0.0
H1344 H 0.95836 0.46733 0.24265 0.0
H1345 H 0.95037 0.44589 0.24209 0.0
H1346 H 0.95724 0.45733 0.22378 0.0
H1347 H 0.03109 0.49222 0.23464 0.0
H1348 H 0.01989 0.50263 0.23583 0.0
H1349 H 0.01929 0.49207 0.21753 0.0
H1350 H 0.99602 0.54997 0.28667 0.0
H1351 H 0.97949 0.54686 0.31093 0.0
H1352 H 0.96929 0.53181 0.29525 0.0
H1353 H 0.96473 0.54766 0.29793 0.0
H1354 H 0.00774 0.55551 0.25982 0.0
H1355 H 0.95676 0.53 0.25537 0.0
H1356 H 0.01583 0.52838 0.24373 0.0
H1357 H 0.02395 0.54976 0.24275 0.0
H1358 H 0.01489 0.53708 0.22497 0.0
H1359 H 0.94266 0.50662 0.23904 0.0
H1360 H 0.95279 0.49528 0.23627 0.0
H1361 H 0.95285 0.50783 0.22043 0.0
H1362 H 0.97919 0.57006 0.144 0.0
H1363 H 0.99424 0.55773 0.13543 0.0
H1364 H 0.94456 0.52256 0.13206 0.0
H1365 H 0.00666 0.54079 0.16266 0.0
H1366 H 0.01369 0.5511 0.14382 0.0
H1367 H 0.00787 0.53015 0.1452 0.0
H1368 H 0.93404 0.49674 0.14289 0.0
H1369 H 0.94552 0.49497 0.15927 0.0
H1370 H 0.94722 0.48889 0.13908 0.0
H1371 H 0.95424 0.41217 0.12377 0.0
H1372 H 0.96135 0.39522 0.14097 0.0
H1373 H 0.96847 0.41479 0.15003 0.0
H1374 H 0.98227 0.41026 0.13987 0.0
H1375 H 0.00158 0.45901 0.12242 0.0
H1376 H 0.95357 0.43009 0.13905 0.0
H1377 H 0.01264 0.49134 0.14994 0.0
H1378 H 0.00619 0.49625 0.13158 0.0
H1379 H 0.01767 0.48614 0.13057 0.0
H1380 H 0.93988 0.44113 0.15231 0.0
H1381 H 0.94853 0.46266 0.15285 0.0
H1382 H 0.95291 0.45294 0.16883 0.0
H1383 H 0.98754 0.49874 0.24676 0.0
H1384 H 0.98055 0.53076 0.20682 0.0
H1385 H 0.97761 0.52946 0.17787 0.0
H1386 H 0.97705 0.49421 0.13542 0.0
H1387 H 0.9863 0.46365 0.17531 0.0
H1388 H 0.98878 0.4647 0.20425 0.0
H1389 H 0.95982 0.57965 0.14692 0.0
H1390 H 0.95121 0.55869 0.15141 0.0
H1391 H 0.94644 0.56447 0.13242 0.0
C1392 C 0.46298 0.41637 0.29209 0.0
C1393 C 0.45491 0.42541 0.28541 0.0
C1394 C 0.46344 0.43396 0.2583 0.0
C1395 C 0.46195 0.44708 0.25371 0.0
C1396 C 0.47334 0.45891 0.24372 0.0
C1397 C 0.48654 0.45756 0.23839 0.0
C1398 C 0.48784 0.44406 0.24277 0.0
C1399 C 0.47614 0.43231 0.25258 0.0
C1400 C 0.47149 0.47303 0.23917 0.0
C1401 C 0.50181 0.44229 0.23747 0.0
C1402 C 0.59328 0.5618 0.28928 0.0
C1403 C 0.5839 0.54737 0.2787 0.0
C1404 C 0.55918 0.53391 0.26247 0.0
C1405 C 0.56187 0.52178 0.2562 0.0
C1406 C 0.55061 0.50963 0.24581 0.0
C1407 C 0.53651 0.50975 0.24131 0.0
C1408 C 0.53393 0.52212 0.24732 0.0
C1409 C 0.54528 0.53399 0.25788 0.0
C1410 C 0.55371 0.49654 0.23978 0.0
C1411 C 0.51913 0.52273 0.24266 0.0
C1412 C 0.57178 0.53029 0.13795 0.0
C1413 C 0.57257 0.51826 0.14673 0.0
C1414 C 0.55909 0.50637 0.1546 0.0
C1415 C 0.54461 0.5067 0.15402 0.0
C1416 C 0.54376 0.51876 0.14521 0.0
C1417 C 0.55734 0.53032 0.13719 0.0
C1418 C 0.56035 0.49347 0.16358 0.0
C1419 C 0.52854 0.51948 0.14433 0.0
C1420 C 0.4536 0.39046 0.12574 0.0
C1421 C 0.44968 0.40401 0.12448 0.0
C1422 C 0.47289 0.42988 0.12963 0.0
C1423 C 0.48562 0.42936 0.13714 0.0
C1424 C 0.49618 0.44184 0.14767 0.0
C1425 C 0.49395 0.45513 0.15059 0.0
C1426 C 0.48108 0.45567 0.1429 0.0
C1427 C 0.47068 0.44299 0.13246 0.0
C1428 C 0.50983 0.44093 0.15555 0.0
C1429 C 0.47845 0.46972 0.14562 0.0
C1430 C 0.49957 0.47082 0.22929 0.0
C1431 C 0.51131 0.48387 0.2383 0.0
C1432 C 0.52424 0.49664 0.23077 0.0
C1433 C 0.52556 0.49644 0.2137 0.0
C1434 C 0.53832 0.50911 0.2057 0.0
C1435 C 0.53983 0.50855 0.18896 0.0
C1436 C 0.52862 0.49532 0.17958 0.0
C1437 C 0.53038 0.49439 0.16264 0.0
C1438 C 0.51882 0.48123 0.15363 0.0
C1439 C 0.50551 0.4688 0.16105 0.0
C1440 C 0.50368 0.46937 0.17803 0.0
C1441 C 0.49059 0.45698 0.18596 0.0
C1442 C 0.48912 0.45749 0.20273 0.0
C1443 C 0.5007 0.47039 0.21221 0.0
C1444 C 0.51383 0.48319 0.20442 0.0
C1445 C 0.51534 0.48266 0.18732 0.0
C1446 C 0.60847 0.55403 0.14631 0.0
C1447 C 0.60018 0.54526 0.13043 0.0
O1448 O 0.45295 0.42317 0.26874 0.0
O1449 O 0.46291 0.41789 0.11933 0.0
O1450 O 0.5845 0.54206 0.13009 0.0
O1451 O 0.56954 0.54557 0.27301 0.0
H1452 H 0.4631 0.43836 0.28849 0.0
H1453 H 0.47553 0.42217 0.28799 0.0
H1454 H 0.45679 0.4037 0.28768 0.0
H1455 H 0.4631 0.41671 0.30557 0.0
H1456 H 0.452 0.44815 0.25821 0.0
H1457 H 0.47709 0.42203 0.2562 0.0
H1458 H 0.48106 0.48407 0.24523 0.0
H1459 H 0.45973 0.47145 0.24277 0.0
H1460 H 0.47281 0.47483 0.22587 0.0
H1461 H 0.50129 0.43132 0.24229 0.0
H1462 H 0.51316 0.45292 0.24165 0.0
H1463 H 0.50203 0.44175 0.22403 0.0
H1464 H 0.58288 0.53609 0.2834 0.0
H1465 H 0.59389 0.55696 0.30147 0.0
H1466 H 0.58474 0.56589 0.29336 0.0
H1467 H 0.61407 0.57643 0.27554 0.0
H1468 H 0.57264 0.52161 0.25944 0.0
H1469 H 0.54331 0.5434 0.26268 0.0
H1470 H 0.55511 0.49724 0.22642 0.0
H1471 H 0.54336 0.48459 0.24247 0.0
H1472 H 0.56463 0.49746 0.24536 0.0
H1473 H 0.51959 0.53392 0.2471 0.0
H1474 H 0.50851 0.51231 0.24785 0.0
H1475 H 0.51754 0.52185 0.22927 0.0
H1476 H 0.60043 0.53384 0.12938 0.0
H1477 H 0.58359 0.51798 0.14752 0.0
H1478 H 0.5568 0.5396 0.13039 0.0
H1479 H 0.55944 0.49508 0.17681 0.0
H1480 H 0.57182 0.49377 0.16131 0.0
H1481 H 0.55036 0.48144 0.15993 0.0
H1482 H 0.53017 0.53033 0.13805 0.0
H1483 H 0.52411 0.51942 0.15675 0.0
H1484 H 0.5192 0.50869 0.13771 0.0
H1485 H 0.4463 0.406 0.13686 0.0
H1486 H 0.44267 0.37898 0.12854 0.0
H1487 H 0.46244 0.39324 0.13569 0.0
H1488 H 0.45871 0.38893 0.11428 0.0
H1489 H 0.48734 0.41924 0.13465 0.0
H1490 H 0.46082 0.44326 0.12645 0.0
H1491 H 0.5092 0.44177 0.16894 0.0
H1492 H 0.52135 0.45125 0.15176 0.0
H1493 H 0.50973 0.42963 0.15231 0.0
H1494 H 0.46761 0.4681 0.13915 0.0
H1495 H 0.48897 0.48084 0.14134 0.0
H1496 H 0.47726 0.47139 0.15878 0.0
H1497 H 0.51047 0.48402 0.25141 0.0
H1498 H 0.54737 0.51955 0.2123 0.0
H1499 H 0.54997 0.51861 0.18348 0.0
H1500 H 0.5203 0.48057 0.14065 0.0
H1501 H 0.48138 0.4467 0.1793 0.0
H1502 H 0.47884 0.44758 0.20821 0.0
H1503 H 0.60831 0.56547 0.14758 0.0
H1504 H 0.62106 0.55669 0.14657 0.0
H1505 H 0.60232 0.54647 0.15685 0.0
C1506 C 0.45498 0.01125 0.28896 0.0
C1507 C 0.44338 0.00949 0.27523 0.0
C1508 C 0.45748 0.00556 0.25227 0.0
C1509 C 0.47015 0.02146 0.25147 0.0
C1510 C 0.48342 0.0253 0.24173 0.0
C1511 C 0.48401 0.01303 0.23261 0.0
C1512 C 0.47105 0.99712 0.23302 0.0
C1513 C 0.4579 0.99365 0.24275 0.0
C1514 C 0.49696 0.04241 0.24137 0.0
C1515 C 0.47126 0.98372 0.22347 0.0
C1516 C 0.58204 0.99784 0.24301 0.0
C1517 C 0.57322 0.99731 0.2586 0.0
C1518 C 0.55908 0.01161 0.25077 0.0
C1519 C 0.54742 0.9992 0.24084 0.0
C1520 C 0.5361 0.00133 0.23218 0.0
C1521 C 0.53652 0.01623 0.23326 0.0
C1522 C 0.54814 0.02871 0.24328 0.0
C1523 C 0.55923 0.02619 0.25196 0.0
C1524 C 0.52369 0.98763 0.22182 0.0
C1525 C 0.54891 0.04474 0.24469 0.0
C1526 C 0.57355 0.03825 0.13342 0.0
C1527 C 0.56133 0.02254 0.13632 0.0
C1528 C 0.54688 0.01964 0.14317 0.0
C1529 C 0.54472 0.03277 0.14735 0.0
C1530 C 0.55673 0.04855 0.14366 0.0
C1531 C 0.57093 0.05106 0.13653 0.0
C1532 C 0.53409 0.0026 0.14631 0.0
C1533 C 0.55474 0.0628 0.1477 0.0
C1534 C 0.44138 0.03877 0.13476 0.0
C1535 C 0.44627 0.03392 0.11892 0.0
C1536 C 0.46396 0.02422 0.12919 0.0
C1537 C 0.4648 0.0104 0.13217 0.0
C1538 C 0.47792 0.0112 0.14041 0.0
C1539 C 0.49053 0.02627 0.14586 0.0
C1540 C 0.49003 0.0404 0.14248 0.0
C1541 C 0.47679 0.03925 0.1341 0.0
C1542 C 0.47816 0.99591 0.1436 0.0
C1543 C 0.50337 0.05666 0.14802 0.0
C1544 C 0.49857 0.01661 0.22343 0.0
C1545 C 0.51088 0.01603 0.23182 0.0
C1546 C 0.5247 0.01861 0.22393 0.0
C1547 C 0.52649 0.02214 0.20723 0.0
C1548 C 0.54042 0.02522 0.19902 0.0
C1549 C 0.54183 0.02809 0.18246 0.0
C1550 C 0.5293 0.02781 0.17342 0.0
C1551 C 0.53037 0.03008 0.15645 0.0
C1552 C 0.51765 0.02965 0.14784 0.0
C1553 C 0.50384 0.02714 0.15576 0.0
C1554 C 0.50262 0.025 0.17274 0.0
C1555 C 0.48897 0.02262 0.18111 0.0
C1556 C 0.4877 0.02009 0.19775 0.0
C1557 C 0.49997 0.01975 0.20664 0.0
C1558 C 0.51397 0.02245 0.1985 0.0
C1559 C 0.51532 0.02516 0.18155 0.0
C1560 C 0.61185 0.04683 0.14169 0.0
C1561 C 0.59648 0.03421 0.1331 0.0
O1562 O 0.44476 0.00107 0.26211 0.0
O1563 O 0.45051 0.02235 0.12177 0.0
O1564 O 0.58798 0.04141 0.12774 0.0
O1565 O 0.57038 0.0101 0.25929 0.0
H1566 H 0.44598 0.02157 0.27131 0.0
H1567 H 0.46755 0.01837 0.28503 0.0
H1568 H 0.45276 0.99926 0.29272 0.0
H1569 H 0.45351 0.01757 0.29962 0.0
H1570 H 0.46983 0.03088 0.25849 0.0
H1571 H 0.448 0.98146 0.24332 0.0
H1572 H 0.50787 0.04316 0.24677 0.0
H1573 H 0.49421 0.05078 0.24817 0.0
H1574 H 0.49966 0.04637 0.22863 0.0
H1575 H 0.46027 0.97197 0.22518 0.0
H1576 H 0.48176 0.98269 0.22725 0.0
H1577 H 0.47246 0.98647 0.21036 0.0
H1578 H 0.56168 0.98582 0.25887 0.0
H1579 H 0.58444 0.98769 0.24254 0.0
H1580 H 0.59356 0.00931 0.24244 0.0
H1581 H 0.57473 0.99684 0.23216 0.0
H1582 H 0.54699 0.98779 0.2397 0.0
H1583 H 0.5682 0.0357 0.25964 0.0
H1584 H 0.51156 0.98533 0.2249 0.0
H1585 H 0.52408 0.97638 0.22337 0.0
H1586 H 0.52566 0.9909 0.20885 0.0
H1587 H 0.55919 0.05351 0.25231 0.0
H1588 H 0.53772 0.04311 0.25011 0.0
H1589 H 0.54986 0.04976 0.23245 0.0
H1590 H 0.58968 0.02508 0.14241 0.0
H1591 H 0.56311 0.01254 0.13328 0.0
H1592 H 0.58034 0.06312 0.13394 0.0
H1593 H 0.53323 0.00053 0.15957 0.0
H1594 H 0.53665 0.99371 0.14034 0.0
H1595 H 0.5223 0.00049 0.14192 0.0
H1596 H 0.56542 0.07435 0.14456 0.0
H1597 H 0.55245 0.06304 0.16086 0.0
H1598 H 0.54424 0.06169 0.14099 0.0
H1599 H 0.45652 0.04466 0.1136 0.0
H1600 H 0.43756 0.04771 0.13232 0.0
H1601 H 0.45154 0.0443 0.14353 0.0
H1602 H 0.43138 0.02813 0.14045 0.0
H1603 H 0.45493 0.99887 0.12822 0.0
H1604 H 0.4765 0.05012 0.13165 0.0
H1605 H 0.47756 0.99387 0.15685 0.0
H1606 H 0.48952 0.997 0.1393 0.0
H1607 H 0.46802 0.98529 0.13754 0.0
H1608 H 0.50122 0.06653 0.14446 0.0
H1609 H 0.5148 0.05882 0.14274 0.0
H1610 H 0.50472 0.05695 0.16142 0.0
H1611 H 0.50953 0.01317 0.2446 0.0
H1612 H 0.55037 0.0254 0.20531 0.0
H1613 H 0.55283 0.03036 0.17682 0.0
H1614 H 0.51846 0.0312 0.13481 0.0
H1615 H 0.47907 0.02261 0.17489 0.0
H1616 H 0.4769 0.01825 0.20353 0.0
H1617 H 0.6191 0.04139 0.1456 0.0
H1618 H 0.60882 0.05159 0.15263 0.0
H1619 H 0.6191 0.05703 0.13365 0.0
C1620 C 0.56992 0.97296 0.75752 0.0
C1621 C 0.56502 0.97969 0.74323 0.0
C1622 C 0.55156 0.99232 0.7574 0.0
C1623 C 0.55364 0.0069 0.76343 0.0
C1624 C 0.54206 0.00751 0.77314 0.0
C1625 C 0.5279 0.99312 0.77671 0.0
C1626 C 0.52554 0.97832 0.77041 0.0
C1627 C 0.53741 0.97804 0.76091 0.0
C1628 C 0.54499 0.0235 0.77967 0.0
C1629 C 0.51046 0.96278 0.77378 0.0
C1630 C 0.42879 0.01191 0.74104 0.0
C1631 C 0.43714 0.00339 0.7467 0.0
C1632 C 0.46106 0.00915 0.7626 0.0
C1633 C 0.45696 0.99304 0.76453 0.0
C1634 C 0.46709 0.98911 0.77315 0.0
C1635 C 0.48155 0.00151 0.78002 0.0
C1636 C 0.48561 0.0177 0.77823 0.0
C1637 C 0.47529 0.02129 0.76953 0.0
C1638 C 0.46241 0.97172 0.77488 0.0
C1639 C 0.50089 0.03122 0.78545 0.0
C1640 C 0.45391 0.98732 0.88722 0.0
C1641 C 0.45065 0.97325 0.87883 0.0
C1642 C 0.46198 0.97279 0.86861 0.0
C1643 C 0.47692 0.98685 0.86662 0.0
C1644 C 0.48021 0.00124 0.87477 0.0
C1645 C 0.46868 0.00135 0.88496 0.0
C1646 C 0.45808 0.95725 0.86006 0.0
C1647 C 0.49597 0.01648 0.87277 0.0
C1648 C 0.57383 0.96036 0.87251 0.0
C1649 C 0.57116 0.97318 0.88076 0.0
C1650 C 0.54489 0.97073 0.87814 0.0
C1651 C 0.5294 0.95866 0.87409 0.0
C1652 C 0.51857 0.96228 0.8665 0.0
C1653 C 0.52328 0.97845 0.86327 0.0
C1654 C 0.5387 0.99081 0.86815 0.0
C1655 C 0.54938 0.98681 0.87548 0.0
C1656 C 0.50217 0.94879 0.86169 0.0
C1657 C 0.5439 0.00823 0.86553 0.0
C1658 C 0.51558 0.99356 0.78707 0.0
C1659 C 0.50452 0.99689 0.77971 0.0
C1660 C 0.49266 0.99759 0.78871 0.0
C1661 C 0.49172 0.99485 0.80559 0.0
C1662 C 0.47998 0.9955 0.81503 0.0
C1663 C 0.47914 0.99277 0.83163 0.0
C1664 C 0.49002 0.98929 0.83942 0.0
C1665 C 0.48923 0.98644 0.85625 0.0
C1666 C 0.50028 0.98309 0.86364 0.0
C1667 C 0.51214 0.98238 0.85464 0.0
C1668 C 0.51309 0.98515 0.83776 0.0
C1669 C 0.52481 0.98447 0.8283 0.0
C1670 C 0.52572 0.98733 0.81174 0.0
C1671 C 0.51482 0.99075 0.80393 0.0
C1672 C 0.50283 0.9914 0.8132 0.0
C1673 C 0.50199 0.98862 0.83014 0.0
C1674 C 0.45492 0.99886 0.92306 0.0
C1675 C 0.44432 0.99824 0.90881 0.0
O1676 O 0.5635 0.99266 0.74839 0.0
O1677 O 0.55518 0.96649 0.88465 0.0
O1678 O 0.44259 0.9867 0.89742 0.0
O1679 O 0.45175 0.01354 0.75419 0.0
H1680 H 0.55346 0.97016 0.73796 0.0
H1681 H 0.5607 0.96865 0.76703 0.0
H1682 H 0.58142 0.98237 0.76298 0.0
H1683 H 0.57127 0.96266 0.75339 0.0
H1684 H 0.56454 0.01786 0.76065 0.0
H1685 H 0.53548 0.96661 0.75633 0.0
H1686 H 0.53585 0.02607 0.77459 0.0
H1687 H 0.55701 0.03348 0.77658 0.0
H1688 H 0.54379 0.0231 0.79306 0.0
H1689 H 0.50991 0.9524 0.76708 0.0
H1690 H 0.49984 0.96374 0.77038 0.0
H1691 H 0.50978 0.96039 0.78697 0.0
H1692 H 0.43749 0.99475 0.73778 0.0
H1693 H 0.42799 0.01022 0.72744 0.0
H1694 H 0.43803 0.02506 0.74067 0.0
H1695 H 0.40819 0.00292 0.75593 0.0
H1696 H 0.44593 0.98351 0.75928 0.0
H1697 H 0.47834 0.03367 0.76804 0.0
H1698 H 0.4717 0.96958 0.76946 0.0
H1699 H 0.45073 0.96345 0.76892 0.0
H1700 H 0.46171 0.9688 0.78793 0.0
H1701 H 0.5021 0.04316 0.78339 0.0
H1702 H 0.51127 0.031 0.78003 0.0
H1703 H 0.50133 0.02958 0.79871 0.0
H1704 H 0.44977 0.01017 0.90304 0.0
H1705 H 0.43922 0.96251 0.88055 0.0
H1706 H 0.47139 0.01243 0.89115 0.0
H1707 H 0.45891 0.95896 0.84674 0.0
H1708 H 0.44593 0.94736 0.8629 0.0
H1709 H 0.46694 0.95367 0.86364 0.0
H1710 H 0.49654 0.02682 0.87955 0.0
H1711 H 0.49798 0.01946 0.85972 0.0
H1712 H 0.50584 0.01466 0.87713 0.0
H1713 H 0.57462 0.98279 0.87168 0.0
H1714 H 0.58667 0.96536 0.86972 0.0
H1715 H 0.56687 0.95631 0.86094 0.0
H1716 H 0.56986 0.94976 0.88031 0.0
H1717 H 0.52598 0.94631 0.87647 0.0
H1718 H 0.56118 0.99624 0.87922 0.0
H1719 H 0.49986 0.94949 0.8486 0.0
H1720 H 0.49301 0.95003 0.86861 0.0
H1721 H 0.50073 0.9368 0.86404 0.0
H1722 H 0.5556 0.01645 0.87148 0.0
H1723 H 0.53482 0.011 0.87033 0.0
H1724 H 0.54492 0.01059 0.85234 0.0
H1725 H 0.5052 0.99904 0.76678 0.0
H1726 H 0.47129 0.99812 0.80969 0.0
H1727 H 0.46985 0.99343 0.83828 0.0
H1728 H 0.49959 0.98093 0.87656 0.0
H1729 H 0.53346 0.98178 0.8336 0.0
H1730 H 0.53508 0.98676 0.80511 0.0
H1731 H 0.44972 0.98695 0.92884 0.0
H1732 H 0.45609 0.00793 0.9323 0.0
H1733 H 0.46708 0.00227 0.9189 0.0
C1734 C 0.00119 0.55053 0.72981 0.0
C1735 C 0.99828 0.56044 0.74264 0.0
C1736 C 0.01069 0.55564 0.76629 0.0
C1737 C 0.99711 0.54227 0.77245 0.0
C1738 C 0.99861 0.53204 0.78338 0.0
C1739 C 0.01398 0.53512 0.78816 0.0
C1740 C 0.02767 0.54888 0.78243 0.0
C1741 C 0.02582 0.5591 0.77175 0.0
C1742 C 0.98373 0.51772 0.78957 0.0
C1743 C 0.04425 0.5525 0.78723 0.0
C1744 C 0.99444 0.41956 0.77859 0.0
C1745 C 0.99756 0.42868 0.7627 0.0
C1746 C 0.0111 0.4568 0.77241 0.0
C1747 C 0.02595 0.4707 0.77444 0.0
C1748 C 0.02749 0.4842 0.78284 0.0
C1749 C 0.01375 0.48379 0.78925 0.0
C1750 C 0.99862 0.46989 0.787 0.0
C1751 C 0.99744 0.45651 0.77867 0.0
C1752 C 0.0438 0.49885 0.78507 0.0
C1753 C 0.98372 0.46914 0.79358 0.0
C1754 C 0.02793 0.46733 0.8931 0.0
C1755 C 0.04094 0.47926 0.88459 0.0
C1756 C 0.03971 0.49137 0.87656 0.0
C1757 C 0.02506 0.49134 0.87656 0.0
C1758 C 0.01202 0.47953 0.88528 0.0
C1759 C 0.01372 0.4678 0.89361 0.0
C1760 C 0.05408 0.50412 0.8679 0.0
C1761 C 0.99621 0.47912 0.88554 0.0
C1762 C 0.03167 0.604 0.87921 0.0
C1763 C 0.02559 0.59406 0.89455 0.0
C1764 C 0.0313 0.57213 0.89064 0.0
C1765 C 0.04437 0.57041 0.88655 0.0
C1766 C 0.04225 0.55634 0.87891 0.0
C1767 C 0.0266 0.54355 0.87563 0.0
C1768 C 0.0133 0.54487 0.88053 0.0
C1769 C 0.01577 0.55917 0.88798 0.0
C1770 C 0.05671 0.55525 0.87404 0.0
C1771 C 0.99647 0.53124 0.8777 0.0
C1772 C 0.01564 0.52327 0.79813 0.0
C1773 C 0.01457 0.50987 0.79008 0.0
C1774 C 0.01523 0.49777 0.7986 0.0
C1775 C 0.01702 0.49896 0.81567 0.0
C1776 C 0.01747 0.48686 0.82461 0.0
C1777 C 0.01927 0.48815 0.8414 0.0
C1778 C 0.02093 0.5017 0.8499 0.0
C1779 C 0.02329 0.50334 0.86693 0.0
C1780 C 0.02484 0.51696 0.87498 0.0
C1781 C 0.0242 0.5291 0.86646 0.0
C1782 C 0.02187 0.52767 0.84943 0.0
C1783 C 0.02116 0.53966 0.84047 0.0
C1784 C 0.01895 0.53818 0.8237 0.0
C1785 C 0.01766 0.52481 0.8152 0.0
C1786 C 0.01834 0.51258 0.82398 0.0
C1787 C 0.02032 0.51396 0.84112 0.0
C1788 C 0.03506 0.4399 0.88257 0.0
C1789 C 0.03932 0.44988 0.89835 0.0
O1790 O 0.00969 0.56532 0.755 0.0
O1791 O 0.03417 0.58629 0.89745 0.0
O1792 O 0.02854 0.45523 0.90092 0.0
O1793 O 0.0106 0.44401 0.76452 0.0
H1794 H 0.98616 0.55291 0.7476 0.0
H1795 H 1.00002 0.53951 0.73527 0.0
H1796 H 0.01337 0.5576 0.72478 0.0
H1797 H 0.99225 0.54681 0.71976 0.0
H1798 H 0.98528 0.53971 0.76888 0.0
H1799 H 0.03623 0.56954 0.7671 0.0
H1800 H 0.98272 0.50657 0.78427 0.0
H1801 H 0.97273 0.51806 0.78635 0.0
H1802 H 0.98448 0.51711 0.80296 0.0
H1803 H 0.05369 0.56354 0.78152 0.0
H1804 H 0.04591 0.54225 0.78364 0.0
H1805 H 0.04579 0.55401 0.80061 0.0
H1806 H 0.98682 0.42942 0.7592 0.0
H1807 H 0.98409 0.40722 0.77706 0.0
H1808 H 0.99163 0.42572 0.78843 0.0
H1809 H 0.0051 0.41881 0.78237 0.0
H1810 H 0.03642 0.47085 0.76956 0.0
H1811 H 0.9858 0.44593 0.77723 0.0
H1812 H 0.04658 0.50158 0.79821 0.0
H1813 H 0.04388 0.50937 0.77961 0.0
H1814 H 0.05333 0.49723 0.77944 0.0
H1815 H 0.97274 0.45769 0.79027 0.0
H1816 H 0.98252 0.47925 0.78888 0.0
H1817 H 0.98465 0.47042 0.807 0.0
H1818 H 0.0516 0.46025 0.89742 0.0
H1819 H 0.05216 0.47938 0.88415 0.0
H1820 H 0.00377 0.45866 0.90026 0.0
H1821 H 0.05202 0.50224 0.85459 0.0
H1822 H 0.06516 0.50388 0.87099 0.0
H1823 H 0.05593 0.51622 0.871 0.0
H1824 H 0.98699 0.46869 0.89223 0.0
H1825 H 0.99183 0.47857 0.87293 0.0
H1826 H 0.9978 0.49031 0.89137 0.0
H1827 H 0.01272 0.58529 0.89254 0.0
H1828 H 0.02512 0.61057 0.877 0.0
H1829 H 0.02968 0.59596 0.86857 0.0
H1830 H 0.04466 0.61278 0.88033 0.0
H1831 H 0.0563 0.58036 0.88897 0.0
H1832 H 0.00554 0.56 0.89187 0.0
H1833 H 0.05626 0.55283 0.86078 0.0
H1834 H 0.05666 0.54507 0.88028 0.0
H1835 H 0.06807 0.56641 0.8771 0.0
H1836 H 0.98745 0.53359 0.88344 0.0
H1837 H 0.99522 0.51997 0.88257 0.0
H1838 H 0.99388 0.52931 0.86447 0.0
H1839 H 0.01302 0.50874 0.77699 0.0
H1840 H 0.01642 0.47623 0.81874 0.0
H1841 H 0.01944 0.4784 0.84763 0.0
H1842 H 0.02684 0.51826 0.88801 0.0
H1843 H 0.02227 0.55032 0.84632 0.0
H1844 H 0.01842 0.54773 0.81746 0.0
H1845 H 0.02268 0.42957 0.88295 0.0
H1846 H 0.04346 0.43531 0.88062 0.0
H1847 H 0.03594 0.44741 0.8721 0.0
C1848 C 0.531 0.57586 0.72049 0.0
C1849 C 0.54287 0.58471 0.73448 0.0
C1850 C 0.53193 0.56414 0.75551 0.0
C1851 C 0.51899 0.56626 0.75973 0.0
C1852 C 0.50726 0.55582 0.7704 0.0
C1853 C 0.50827 0.5428 0.77686 0.0
C1854 C 0.52132 0.54069 0.77278 0.0
C1855 C 0.53307 0.55151 0.76231 0.0
C1856 C 0.49363 0.55859 0.77464 0.0
C1857 C 0.52274 0.52687 0.77931 0.0
C1858 C 0.387 0.44143 0.7757 0.0
C1859 C 0.40197 0.44434 0.76665 0.0
C1860 C 0.42467 0.47163 0.76711 0.0
C1861 C 0.43702 0.46836 0.77045 0.0
C1862 C 0.45165 0.48031 0.77709 0.0
C1863 C 0.45393 0.4958 0.78039 0.0
C1864 C 0.44179 0.49932 0.77626 0.0
C1865 C 0.42734 0.48718 0.7695 0.0
C1866 C 0.46452 0.4763 0.78097 0.0
C1867 C 0.44391 0.51576 0.77944 0.0
C1868 C 0.43679 0.48012 0.89031 0.0
C1869 C 0.44755 0.47581 0.88402 0.0
C1870 C 0.4594 0.4857 0.87312 0.0
C1871 C 0.46038 0.50021 0.86829 0.0
C1872 C 0.44922 0.50442 0.87419 0.0
C1873 C 0.43752 0.49434 0.8851 0.0
C1874 C 0.47106 0.4808 0.867 0.0
C1875 C 0.44984 0.51974 0.86914 0.0
C1876 C 0.56612 0.608 0.88302 0.0
C1877 C 0.56076 0.59506 0.8959 0.0
C1878 C 0.54297 0.56963 0.88121 0.0
C1879 C 0.54161 0.55523 0.8756 0.0
C1880 C 0.52774 0.54355 0.86754 0.0
C1881 C 0.51496 0.54647 0.86489 0.0
C1882 C 0.51617 0.56099 0.87059 0.0
C1883 C 0.53015 0.57243 0.87874 0.0
C1884 C 0.52676 0.52811 0.86178 0.0
C1885 C 0.5027 0.56443 0.86798 0.0
C1886 C 0.49539 0.53115 0.78743 0.0
C1887 C 0.4814 0.5191 0.77993 0.0
C1888 C 0.46859 0.50803 0.78907 0.0
C1889 C 0.46971 0.5088 0.80621 0.0
C1890 C 0.45701 0.49786 0.81577 0.0
C1891 C 0.45821 0.49868 0.83262 0.0
C1892 C 0.47215 0.51046 0.84057 0.0
C1893 C 0.47352 0.51137 0.85769 0.0
C1894 C 0.48758 0.52323 0.86519 0.0
C1895 C 0.50036 0.53437 0.85607 0.0
C1896 C 0.49918 0.53376 0.83894 0.0
C1897 C 0.51172 0.54495 0.82941 0.0
C1898 C 0.51049 0.54418 0.81256 0.0
C1899 C 0.49671 0.53214 0.80457 0.0
C1900 C 0.48384 0.52085 0.81397 0.0
C1901 C 0.48506 0.52168 0.83117 0.0
C1902 C 0.42671 0.48654 0.92425 0.0
C1903 C 0.41656 0.47375 0.91132 0.0
O1904 O 0.5434 0.57377 0.74491 0.0
O1905 O 0.55688 0.58041 0.88875 0.0
O1906 O 0.42616 0.47038 0.90148 0.0
O1907 O 0.41009 0.4601 0.76158 0.0
H1908 H 0.53911 0.59232 0.74125 0.0
H1909 H 0.51878 0.56827 0.72517 0.0
H1910 H 0.53446 0.56803 0.71367 0.0
H1911 H 0.53069 0.5846 0.71204 0.0
H1912 H 0.51786 0.57598 0.75475 0.0
H1913 H 0.54307 0.54995 0.75909 0.0
H1914 H 0.48242 0.54889 0.76903 0.0
H1915 H 0.49557 0.57029 0.77028 0.0
H1916 H 0.492 0.55818 0.78797 0.0
H1917 H 0.53307 0.52631 0.77419 0.0
H1918 H 0.51165 0.51537 0.77648 0.0
H1919 H 0.52417 0.52808 0.7927 0.0
H1920 H 0.40929 0.44199 0.77547 0.0
H1921 H 0.38021 0.4288 0.77973 0.0
H1922 H 0.37914 0.44393 0.76786 0.0
H1923 H 0.3905 0.44946 0.7866 0.0
H1924 H 0.43525 0.4565 0.76789 0.0
H1925 H 0.41783 0.48964 0.76658 0.0
H1926 H 0.47595 0.48522 0.77547 0.0
H1927 H 0.46139 0.4641 0.77651 0.0
H1928 H 0.46648 0.47695 0.7943 0.0
H1929 H 0.43329 0.51655 0.77559 0.0
H1930 H 0.45447 0.52485 0.77285 0.0
H1931 H 0.44617 0.51884 0.79259 0.0
H1932 H 0.41001 0.47816 0.90377 0.0
H1933 H 0.44685 0.46478 0.88797 0.0
H1934 H 0.42916 0.49779 0.88958 0.0
H1935 H 0.47063 0.48017 0.85354 0.0
H1936 H 0.46852 0.46899 0.87165 0.0
H1937 H 0.48338 0.48999 0.87076 0.0
H1938 H 0.43984 0.52096 0.87416 0.0
H1939 H 0.44941 0.52015 0.85571 0.0
H1940 H 0.46129 0.5302 0.87338 0.0
H1941 H 0.55022 0.5941 0.90231 0.0
H1942 H 0.56943 0.61978 0.88881 0.0
H1943 H 0.55633 0.60498 0.87411 0.0
H1944 H 0.57658 0.60909 0.87637 0.0
H1945 H 0.55154 0.55316 0.87758 0.0
H1946 H 0.53096 0.5835 0.88298 0.0
H1947 H 0.52561 0.52714 0.84835 0.0
H1948 H 0.51597 0.5177 0.86675 0.0
H1949 H 0.53744 0.52735 0.86546 0.0
H1950 H 0.50569 0.57652 0.87264 0.0
H1951 H 0.49187 0.55529 0.87419 0.0
H1952 H 0.49974 0.56355 0.85483 0.0
H1953 H 0.48041 0.51843 0.76679 0.0
H1954 H 0.44597 0.48852 0.81034 0.0
H1955 H 0.44808 0.48993 0.83934 0.0
H1956 H 0.48859 0.52382 0.87833 0.0
H1957 H 0.52264 0.55444 0.83488 0.0
H1958 H 0.52051 0.55312 0.80586 0.0
H1959 H 0.4336 0.48247 0.93171 0.0
H1960 H 0.41896 0.48895 0.93234 0.0
H1961 H 0.43527 0.498 0.91855 0.0
C1962 C 0.63153 0.7678 0.62745 0.0
C1963 C 0.63672 0.75979 0.61447 0.0
C1964 C 0.64108 0.77785 0.59163 0.0
C1965 C 0.62495 0.77294 0.58843 0.0
C1966 C 0.62074 0.78142 0.5776 0.0
C1967 C 0.63287 0.79492 0.56968 0.0
C1968 C 0.64906 0.79943 0.57233 0.0
C1969 C 0.65293 0.79079 0.58325 0.0
C1970 C 0.60336 0.77621 0.57489 0.0
C1971 C 0.6623 0.81366 0.56396 0.0
C1972 C 0.60563 0.88401 0.59757 0.0
C1973 C 0.62098 0.88439 0.60325 0.0
C1974 C 0.62769 0.86955 0.58312 0.0
C1975 C 0.63997 0.87121 0.57307 0.0
C1976 C 0.63952 0.85784 0.56551 0.0
C1977 C 0.62605 0.84241 0.56755 0.0
C1978 C 0.61354 0.84061 0.57773 0.0
C1979 C 0.61456 0.85418 0.58556 0.0
C1980 C 0.65344 0.86027 0.55528 0.0
C1981 C 0.59897 0.82438 0.58013 0.0
C1982 C 0.60777 0.85492 0.46633 0.0
C1983 C 0.6233 0.85871 0.47085 0.0
C1984 C 0.62616 0.84721 0.47799 0.0
C1985 C 0.61317 0.83167 0.48085 0.0
C1986 C 0.59764 0.82758 0.47543 0.0
C1987 C 0.59519 0.83925 0.46803 0.0
C1988 C 0.64299 0.85183 0.48297 0.0
C1989 C 0.58356 0.81108 0.47804 0.0
C1990 C 0.60959 0.72353 0.46475 0.0
C1991 C 0.61733 0.73554 0.45106 0.0
C1992 C 0.6257 0.7616 0.46497 0.0
C1993 C 0.63901 0.77581 0.47049 0.0
C1994 C 0.63732 0.7877 0.47881 0.0
C1995 C 0.62185 0.78511 0.48199 0.0
C1996 C 0.60829 0.77085 0.47624 0.0
C1997 C 0.61034 0.75929 0.46763 0.0
C1998 C 0.6521 0.80296 0.48426 0.0
C1999 C 0.59162 0.76777 0.4793 0.0
C2000 C 0.62873 0.80506 0.55962 0.0
C2001 C 0.62835 0.81789 0.56738 0.0
C2002 C 0.625 0.82829 0.55876 0.0
C2003 C 0.62171 0.82575 0.54191 0.0
C2004 C 0.61774 0.83563 0.53296 0.0
C2005 C 0.61546 0.83366 0.51624 0.0
C2006 C 0.61707 0.82174 0.5078 0.0
C2007 C 0.61563 0.82024 0.49069 0.0
C2008 C 0.61707 0.80811 0.4827 0.0
C2009 C 0.6199 0.79733 0.49135 0.0
C2010 C 0.62148 0.79873 0.50848 0.0
C2011 C 0.62435 0.78814 0.5176 0.0
C2012 C 0.62657 0.79007 0.53437 0.0
C2013 C 0.62593 0.80261 0.54267 0.0
C2014 C 0.62253 0.81309 0.53378 0.0
C2015 C 0.62027 0.81113 0.51668 0.0
C2016 C 0.59875 0.88589 0.47097 0.0
C2017 C 0.61169 0.88197 0.46606 0.0
O2018 O 0.64584 0.77073 0.60277 0.0
O2019 O 0.62838 0.75054 0.45735 0.0
O2020 O 0.60452 0.86616 0.46056 0.0
O2021 O 0.62888 0.88311 0.58982 0.0
H2022 H 0.62598 0.74958 0.60861 0.0
H2023 H 0.62365 0.7719 0.62213 0.0
H2024 H 0.6421 0.77836 0.63306 0.0
H2025 H 0.62475 0.75913 0.63707 0.0
H2026 H 0.6156 0.76269 0.59449 0.0
H2027 H 0.66532 0.79438 0.58562 0.0
H2028 H 0.60106 0.78587 0.57918 0.0
H2029 H 0.5953 0.76502 0.58136 0.0
H2030 H 0.6004 0.77423 0.56173 0.0
H2031 H 0.67423 0.81511 0.56666 0.0
H2032 H 0.66234 0.82477 0.5679 0.0
H2033 H 0.66019 0.8123 0.55063 0.0
H2034 H 0.61765 0.87414 0.61146 0.0
H2035 H 0.59855 0.88394 0.60817 0.0
H2036 H 0.59806 0.87298 0.59022 0.0
H2037 H 0.6085 0.8945 0.58992 0.0
H2038 H 0.65007 0.88311 0.57129 0.0
H2039 H 0.60491 0.8527 0.59326 0.0
H2040 H 0.65004 0.85922 0.54225 0.0
H2041 H 0.6567 0.85094 0.55778 0.0
H2042 H 0.66412 0.87228 0.55748 0.0
H2043 H 0.58959 0.82519 0.58712 0.0
H2044 H 0.60245 0.8166 0.58675 0.0
H2045 H 0.59384 0.81848 0.56819 0.0
H2046 H 0.61887 0.88371 0.47732 0.0
H2047 H 0.63318 0.87069 0.46894 0.0
H2048 H 0.58329 0.83638 0.4642 0.0
H2049 H 0.64425 0.85328 0.49637 0.0
H2050 H 0.65197 0.86327 0.47751 0.0
H2051 H 0.64564 0.84224 0.47936 0.0
H2052 H 0.57217 0.80992 0.4735 0.0
H2053 H 0.58242 0.80836 0.49116 0.0
H2054 H 0.58553 0.80197 0.47169 0.0
H2055 H 0.60794 0.73644 0.44404 0.0
H2056 H 0.60105 0.71145 0.45961 0.0
H2057 H 0.60288 0.72722 0.47294 0.0
H2058 H 0.61882 0.7227 0.4721 0.0
H2059 H 0.65081 0.77756 0.46826 0.0
H2060 H 0.59991 0.7485 0.46318 0.0
H2061 H 0.65315 0.80328 0.49769 0.0
H2062 H 0.65121 0.81358 0.48066 0.0
H2063 H 0.66315 0.80397 0.4791 0.0
H2064 H 0.58231 0.75553 0.47525 0.0
H2065 H 0.58971 0.77667 0.47272 0.0
H2066 H 0.59012 0.76929 0.49243 0.0
H2067 H 0.63099 0.81999 0.58029 0.0
H2068 H 0.61649 0.8451 0.53876 0.0
H2069 H 0.61258 0.84174 0.51002 0.0
H2070 H 0.61615 0.80715 0.46956 0.0
H2071 H 0.62506 0.77833 0.51186 0.0
H2072 H 0.62894 0.7817 0.54075 0.0
H2073 H 0.59034 0.88366 0.46072 0.0
H2074 H 0.60425 0.89865 0.47503 0.0
H2075 H 0.59182 0.8782 0.48117 0.0
C2076 C 0.10666 0.73212 0.6012 0.0
C2077 C 0.10872 0.74657 0.61142 0.0
C2078 C 0.12473 0.76973 0.59391 0.0
C2079 C 0.12428 0.78169 0.58491 0.0
C2080 C 0.13779 0.79322 0.5768 0.0
C2081 C 0.15209 0.79257 0.57748 0.0
C2082 C 0.15272 0.78059 0.58669 0.0
C2083 C 0.13907 0.76935 0.59491 0.0
C2084 C 0.13672 0.80599 0.56738 0.0
C2085 C 0.16777 0.77953 0.58766 0.0
C2086 C 0.23971 0.87191 0.63372 0.0
C2087 C 0.249 0.88082 0.61869 0.0
C2088 C 0.2278 0.86843 0.59766 0.0
C2089 C 0.22764 0.85375 0.5963 0.0
C2090 C 0.21606 0.84103 0.58667 0.0
C2091 C 0.20427 0.84291 0.57835 0.0
C2092 C 0.20442 0.85767 0.57963 0.0
C2093 C 0.21629 0.87028 0.58914 0.0
C2094 C 0.21638 0.82551 0.58545 0.0
C2095 C 0.19196 0.86007 0.57104 0.0
C2096 C 0.23611 0.85801 0.47348 0.0
C2097 C 0.23706 0.84551 0.48111 0.0
C2098 C 0.22414 0.8339 0.48988 0.0
C2099 C 0.21007 0.83488 0.49122 0.0
C2100 C 0.20907 0.84743 0.48358 0.0
C2101 C 0.22211 0.8588 0.47478 0.0
C2102 C 0.22555 0.8206 0.49781 0.0
C2103 C 0.19425 0.84885 0.4848 0.0
C2104 C 0.10393 0.71682 0.4766 0.0
C2105 C 0.10832 0.73362 0.47105 0.0
C2106 C 0.13565 0.75563 0.47424 0.0
C2107 C 0.15053 0.75724 0.4778 0.0
C2108 C 0.16231 0.77081 0.4863 0.0
C2109 C 0.15925 0.78326 0.49088 0.0
C2110 C 0.1445 0.78207 0.48645 0.0
C2111 C 0.13279 0.76818 0.47829 0.0
C2112 C 0.17793 0.77169 0.49063 0.0
C2113 C 0.14105 0.7954 0.49045 0.0
C2114 C 0.16625 0.80423 0.56826 0.0
C2115 C 0.17828 0.81765 0.57659 0.0
C2116 C 0.19168 0.82931 0.56854 0.0
C2117 C 0.19302 0.82775 0.55161 0.0
C2118 C 0.20617 0.83937 0.54306 0.0
C2119 C 0.20727 0.83784 0.52637 0.0
C2120 C 0.19538 0.8245 0.51761 0.0
C2121 C 0.19642 0.82281 0.50066 0.0
C2122 C 0.18441 0.80938 0.49233 0.0
C2123 C 0.17137 0.79737 0.50049 0.0
C2124 C 0.17016 0.79883 0.51747 0.0
C2125 C 0.15733 0.78691 0.52614 0.0
C2126 C 0.15605 0.78862 0.54276 0.0
C2127 C 0.16762 0.80225 0.55141 0.0
C2128 C 0.18093 0.81417 0.54303 0.0
C2129 C 0.18215 0.81251 0.52602 0.0
C2130 C 0.27426 0.87934 0.47682 0.0
C2131 C 0.2632 0.87125 0.4621 0.0
O2132 O 0.11099 0.75876 0.60106 0.0
O2133 O 0.1243 0.74184 0.4669 0.0
O2134 O 0.2483 0.86957 0.46485 0.0
O2135 O 0.23864 0.88101 0.60707 0.0
H2136 H 0.11924 0.75073 0.6197 0.0
H2137 H 0.11623 0.73597 0.59209 0.0
H2138 H 0.09499 0.72627 0.59461 0.0
H2139 H 0.10753 0.72328 0.60901 0.0
H2140 H 0.1132 0.78194 0.58422 0.0
H2141 H 0.13968 0.76021 0.60184 0.0
H2142 H 0.14688 0.81803 0.57071 0.0
H2143 H 0.12537 0.80596 0.56956 0.0
H2144 H 0.13751 0.80397 0.55421 0.0
H2145 H 0.16599 0.76879 0.59427 0.0
H2146 H 0.17729 0.79041 0.59398 0.0
H2147 H 0.17201 0.77913 0.57526 0.0
H2148 H 0.25528 0.87475 0.61358 0.0
H2149 H 0.24798 0.87182 0.64309 0.0
H2150 H 0.23083 0.85927 0.63053 0.0
H2151 H 0.23328 0.87778 0.63893 0.0
H2152 H 0.23646 0.85203 0.60268 0.0
H2153 H 0.21648 0.88162 0.59019 0.0
H2154 H 0.20548 0.81577 0.59102 0.0
H2155 H 0.22701 0.82633 0.59164 0.0
H2156 H 0.21633 0.82211 0.57251 0.0
H2157 H 0.19321 0.87196 0.57393 0.0
H2158 H 0.17984 0.85054 0.57448 0.0
H2159 H 0.19297 0.85903 0.55773 0.0
H2160 H 0.262 0.85927 0.45983 0.0
H2161 H 0.24779 0.84468 0.48037 0.0
H2162 H 0.22147 0.86847 0.4689 0.0
H2163 H 0.22459 0.82142 0.51116 0.0
H2164 H 0.23703 0.8211 0.4951 0.0
H2165 H 0.21557 0.80877 0.49362 0.0
H2166 H 0.1955 0.85954 0.47851 0.0
H2167 H 0.19157 0.84961 0.49775 0.0
H2168 H 0.1839 0.83794 0.4794 0.0
H2169 H 0.10614 0.73958 0.48164 0.0
H2170 H 0.09109 0.70992 0.47973 0.0
H2171 H 0.11112 0.71777 0.48755 0.0
H2172 H 0.10638 0.71015 0.46698 0.0
H2173 H 0.15268 0.74757 0.47438 0.0
H2174 H 0.12144 0.76716 0.47499 0.0
H2175 H 0.18053 0.7743 0.50381 0.0
H2176 H 0.18776 0.78165 0.484 0.0
H2177 H 0.17789 0.76039 0.4875 0.0
H2178 H 0.13006 0.79365 0.4842 0.0
H2179 H 0.15126 0.80715 0.48697 0.0
H2180 H 0.13948 0.79588 0.50372 0.0
H2181 H 0.17721 0.81903 0.58953 0.0
H2182 H 0.2157 0.84987 0.54915 0.0
H2183 H 0.21759 0.84724 0.52042 0.0
H2184 H 0.1853 0.8082 0.47933 0.0
H2185 H 0.14807 0.77614 0.52015 0.0
H2186 H 0.14586 0.77909 0.54874 0.0
H2187 H 0.27552 0.89129 0.47943 0.0
H2188 H 0.28626 0.88087 0.47454 0.0
H2189 H 0.26937 0.87187 0.48771 0.0
C2190 C 0.13005 0.35595 0.62891 0.0
C2191 C 0.11833 0.35165 0.61456 0.0
C2192 C 0.13421 0.34875 0.59269 0.0
C2193 C 0.14565 0.3651 0.59139 0.0
C2194 C 0.1591 0.36998 0.58159 0.0
C2195 C 0.16105 0.35832 0.57283 0.0
C2196 C 0.14927 0.34193 0.57371 0.0
C2197 C 0.13599 0.3374 0.58361 0.0
C2198 C 0.17135 0.38758 0.5807 0.0
C2199 C 0.15085 0.32917 0.56443 0.0
C2200 C 0.2779 0.38379 0.59147 0.0
C2201 C 0.26546 0.37536 0.60463 0.0
C2202 C 0.23996 0.36483 0.58949 0.0
C2203 C 0.22733 0.351 0.58242 0.0
C2204 C 0.21517 0.35158 0.57361 0.0
C2205 C 0.2156 0.36642 0.572 0.0
C2206 C 0.22829 0.38049 0.5792 0.0
C2207 C 0.2404 0.3796 0.5878 0.0
C2208 C 0.20184 0.33634 0.56605 0.0
C2209 C 0.22902 0.39647 0.57777 0.0
C2210 C 0.24843 0.38858 0.47002 0.0
C2211 C 0.23711 0.37268 0.47355 0.0
C2212 C 0.2228 0.36905 0.48124 0.0
C2213 C 0.2199 0.38165 0.4857 0.0
C2214 C 0.231 0.3976 0.48148 0.0
C2215 C 0.24505 0.40082 0.47347 0.0
C2216 C 0.21093 0.35181 0.48487 0.0
C2217 C 0.22822 0.41131 0.48582 0.0
C2218 C 0.11306 0.38167 0.47844 0.0
C2219 C 0.11707 0.37623 0.46243 0.0
C2220 C 0.13637 0.36809 0.47155 0.0
C2221 C 0.13817 0.3548 0.47438 0.0
C2222 C 0.15211 0.35653 0.48166 0.0
C2223 C 0.16452 0.372 0.48636 0.0
C2224 C 0.16306 0.3856 0.48302 0.0
C2225 C 0.14903 0.38354 0.47554 0.0
C2226 C 0.15338 0.34177 0.48472 0.0
C2227 C 0.17616 0.40227 0.48775 0.0
C2228 C 0.17571 0.36312 0.5633 0.0
C2229 C 0.18877 0.36362 0.57125 0.0
C2230 C 0.20265 0.36711 0.56292 0.0
C2231 C 0.20369 0.37037 0.54616 0.0
C2232 C 0.2175 0.37402 0.53742 0.0
C2233 C 0.21828 0.37689 0.52086 0.0
C2234 C 0.20517 0.37593 0.51233 0.0
C2235 C 0.20563 0.37823 0.49537 0.0
C2236 C 0.19231 0.37707 0.48729 0.0
C2237 C 0.17851 0.37378 0.49571 0.0
C2238 C 0.1779 0.3716 0.51268 0.0
C2239 C 0.16424 0.36839 0.52153 0.0
C2240 C 0.16354 0.36576 0.53813 0.0
C2241 C 0.17648 0.36625 0.54653 0.0
C2242 C 0.1905 0.36981 0.53792 0.0
C2243 C 0.19122 0.37251 0.52097 0.0
C2244 C 0.28844 0.39948 0.47393 0.0
C2245 C 0.27215 0.38598 0.46788 0.0
O2246 O 0.12138 0.34329 0.60258 0.0
O2247 O 0.12217 0.36531 0.46523 0.0
O2248 O 0.26273 0.39247 0.46341 0.0
O2249 O 0.25136 0.36328 0.59773 0.0
H2250 H 0.11944 0.3628 0.60944 0.0
H2251 H 0.1425 0.36408 0.62512 0.0
H2252 H 0.12935 0.34495 0.6339 0.0
H2253 H 0.12724 0.36221 0.63866 0.0
H2254 H 0.14427 0.37409 0.59806 0.0
H2255 H 0.12702 0.32484 0.58455 0.0
H2256 H 0.18299 0.38964 0.58553 0.0
H2257 H 0.16782 0.39525 0.5877 0.0
H2258 H 0.17311 0.39133 0.56786 0.0
H2259 H 0.14047 0.31698 0.56613 0.0
H2260 H 0.16186 0.32922 0.56847 0.0
H2261 H 0.15202 0.33182 0.55129 0.0
H2262 H 0.26318 0.38424 0.61109 0.0
H2263 H 0.28924 0.39344 0.59698 0.0
H2264 H 0.27358 0.38936 0.58257 0.0
H2265 H 0.28032 0.37507 0.58489 0.0
H2266 H 0.22707 0.33968 0.58376 0.0
H2267 H 0.25008 0.39047 0.59313 0.0
H2268 H 0.20076 0.33799 0.5529 0.0
H2269 H 0.19036 0.3335 0.57171 0.0
H2270 H 0.20375 0.32595 0.56758 0.0
H2271 H 0.23941 0.40625 0.58447 0.0
H2272 H 0.2179 0.39561 0.58254 0.0
H2273 H 0.22982 0.39968 0.5648 0.0
H2274 H 0.26689 0.37789 0.47837 0.0
H2275 H 0.23947 0.36311 0.47032 0.0
H2276 H 0.25376 0.41302 0.47042 0.0
H2277 H 0.21093 0.34995 0.49811 0.0
H2278 H 0.2138 0.3433 0.47853 0.0
H2279 H 0.19868 0.34894 0.48123 0.0
H2280 H 0.23843 0.42313 0.48249 0.0
H2281 H 0.2262 0.41144 0.49905 0.0
H2282 H 0.21732 0.40959 0.47943 0.0
H2283 H 0.12659 0.38685 0.45619 0.0
H2284 H 0.10846 0.38998 0.47603 0.0
H2285 H 0.12383 0.38811 0.48635 0.0
H2286 H 0.10389 0.37119 0.48512 0.0
H2287 H 0.12843 0.34296 0.4711 0.0
H2288 H 0.148 0.394 0.47312 0.0
H2289 H 0.15313 0.33982 0.49798 0.0
H2290 H 0.16491 0.34349 0.48017 0.0
H2291 H 0.14346 0.33084 0.47882 0.0
H2292 H 0.1732 0.41164 0.48439 0.0
H2293 H 0.18741 0.40482 0.48172 0.0
H2294 H 0.17838 0.40304 0.50105 0.0
H2295 H 0.188 0.36094 0.58407 0.0
H2296 H 0.22788 0.3747 0.54328 0.0
H2297 H 0.22926 0.3797 0.51481 0.0
H2298 H 0.19264 0.37862 0.47426 0.0
H2299 H 0.15388 0.36779 0.51572 0.0
H2300 H 0.15269 0.36324 0.54428 0.0
H2301 H 0.29635 0.39458 0.4771 0.0
H2302 H 0.28687 0.40528 0.48497 0.0
H2303 H 0.2943 0.4088 0.46461 0.0
H2304 H 0.0085 0.38504 0.05814 0.0
H2305 H 0.96096 0.34848 0.04225 0.0
H2306 H 0.94926 0.35806 0.06311 0.0
H2307 H 1.00027 0.38369 0.10114 0.0
H2308 H 0.01271 0.40506 0.10419 0.0
H2309 H 0.01733 0.39488 0.08847 0.0
H2310 H 0.01663 0.41411 0.06724 0.0
H2311 H 0.01189 0.42428 0.08287 0.0
H2312 H 0.99902 0.41594 0.06526 0.0
H2313 H 0.94272 0.3718 0.08531 0.0
H2314 H 0.94171 0.38882 0.10745 0.0
H2315 H 0.99346 0.41682 0.10861 0.0
C2316 C 0.99562 0.37891 0.05914 0.0
C2317 C 0.98564 0.36595 0.04857 0.0
C2318 C 0.96885 0.35842 0.05019 0.0
C2319 C 0.9621 0.36377 0.06201 0.0
C2320 C 0.97228 0.3767 0.07206 0.0
C2321 C 0.98868 0.38417 0.07078 0.0
C2322 C 0.99693 0.3981 0.08281 0.0
C2323 C 0.00743 0.39525 0.09487 0.0
C2324 C 0.00669 0.41405 0.07401 0.0
C2325 C 0.98259 0.3973 0.09106 0.0
C2326 C 0.9685 0.38485 0.08468 0.0
C2327 C 0.95367 0.38164 0.09034 0.0
C2328 C 0.95321 0.39141 0.10285 0.0
C2329 C 0.96748 0.40435 0.1095 0.0
C2330 C 0.98236 0.40721 0.10355 0.0
H2331 H 0.6243 0.61373 0.06452 0.0
H2332 H 0.65969 0.60209 0.04699 0.0
H2333 H 0.65178 0.58158 0.06802 0.0
H2334 H 0.62947 0.60887 0.10724 0.0
H2335 H 0.60852 0.6003 0.11145 0.0
H2336 H 0.61731 0.61434 0.09528 0.0
H2337 H 0.59629 0.59353 0.07506 0.0
H2338 H 0.58751 0.57938 0.09114 0.0
H2339 H 0.59421 0.57387 0.07307 0.0
H2340 H 0.63945 0.56178 0.09049 0.0
H2341 H 0.62402 0.54461 0.11319 0.0
H2342 H 0.59703 0.5695 0.11615 0.0
C2343 C 0.63048 0.60695 0.06513 0.0
C2344 C 0.64263 0.60953 0.05407 0.0
C2345 C 0.65038 0.60037 0.05533 0.0
C2346 C 0.64595 0.58867 0.06723 0.0
C2347 C 0.63382 0.58633 0.07781 0.0
C2348 C 0.62626 0.59528 0.07694 0.0
C2349 C 0.6135 0.59033 0.08967 0.0
C2350 C 0.61744 0.60429 0.10162 0.0
C2351 C 0.5969 0.58389 0.08176 0.0
C2352 C 0.61495 0.57709 0.09775 0.0
C2353 C 0.62673 0.57496 0.09074 0.0
C2354 C 0.63018 0.56332 0.09606 0.0
C2355 C 0.62133 0.55359 0.10888 0.0
C2356 C 0.60911 0.55548 0.11617 0.0
C2357 C 0.60607 0.56756 0.11062 0.0
H2358 H 0.39473 0.03504 0.04285 0.0
H2359 H 0.36072 0.9852 0.05267 0.0
H2360 H 0.37678 0.98644 0.07655 0.0
H2361 H 0.42941 0.03314 0.05293 0.0
H2362 H 0.44002 0.05291 0.06216 0.0
H2363 H 0.42532 0.04857 0.04644 0.0
H2364 H 0.41015 0.05785 0.06553 0.0
H2365 H 0.42487 0.06233 0.08128 0.0
H2366 H 0.40403 0.04891 0.08514 0.0
H2367 H 0.39682 0.99271 0.0988 0.0
H2368 H 0.41977 0.00366 0.11797 0.0
H2369 H 0.44112 0.04921 0.09348 0.0
C2370 C 0.39054 0.02446 0.05015 0.0
C2371 C 0.37642 0.01004 0.0459 0.0
C2372 C 0.37148 0.99639 0.05566 0.0
C2373 C 0.38051 0.99697 0.06928 0.0
C2374 C 0.39447 0.01128 0.07297 0.0
C2375 C 0.39947 0.02479 0.06374 0.0
C2376 C 0.41528 0.03846 0.07002 0.0
C2377 C 0.42827 0.04356 0.05712 0.0
C2378 C 0.41347 0.05273 0.07584 0.0
C2379 C 0.41845 0.03045 0.08411 0.0
C2380 C 0.40624 0.0148 0.08565 0.0
C2381 C 0.40648 0.00494 0.0977 0.0
C2382 C 0.41958 0.01122 0.10847 0.0
C2383 C 0.43237 0.02716 0.10698 0.0
C2384 C 0.43164 0.03691 0.09473 0.0
H2385 H 0.38704 0.01954 0.95827 0.0
H2386 H 0.35524 0.96847 0.96428 0.0
H2387 H 0.37112 0.96273 0.94472 0.0
H2388 H 0.3957 0.01751 0.91451 0.0
H2389 H 0.41619 0.03315 0.9173 0.0
H2390 H 0.40085 0.03309 0.92968 0.0
H2391 H 0.41652 0.03374 0.95557 0.0
H2392 H 0.43181 0.03368 0.94332 0.0
H2393 H 0.42185 0.01841 0.95822 0.0
H2394 H 0.39285 0.96273 0.92791 0.0
H2395 H 0.41784 0.96846 0.9143 0.0
H2396 H 0.43504 0.01947 0.91908 0.0
C2397 C 0.38312 0.00713 0.95517 0.0
C2398 C 0.36986 0.99446 0.9628 0.0
C2399 C 0.36529 0.97839 0.95853 0.0
C2400 C 0.37424 0.97501 0.94742 0.0
C2401 C 0.3876 0.98782 0.94057 0.0
C2402 C 0.39189 0.00357 0.94414 0.0
C2403 C 0.40747 0.01519 0.93629 0.0
C2404 C 0.40489 0.02533 0.9237 0.0
C2405 C 0.42015 0.02587 0.94912 0.0
C2406 C 0.41162 0.00354 0.92823 0.0
C2407 C 0.39995 0.98781 0.93066 0.0
C2408 C 0.40185 0.97499 0.92553 0.0
C2409 C 0.41606 0.97835 0.91779 0.0
C2410 C 0.42815 0.99442 0.91517 0.0
C2411 C 0.42578 0.00709 0.92043 0.0
H2412 H 0.00146 0.38077 0.96461 0.0
H2413 H 0.04991 0.3948 0.97967 0.0
H2414 H 0.06036 0.41552 0.95868 0.0
H2415 H 0.00875 0.38656 0.92157 0.0
H2416 H 0.99543 0.3944 0.91876 0.0
H2417 H 0.9918 0.3803 0.93456 0.0
H2418 H 0.99178 0.40041 0.9558 0.0
H2419 H 0.99551 0.41461 0.94008 0.0
H2420 H 0.00879 0.42039 0.95744 0.0
H2421 H 0.06553 0.43477 0.93629 0.0
H2422 H 0.06518 0.45148 0.91406 0.0
H2423 H 0.01337 0.42547 0.91396 0.0
C2424 C 0.01428 0.38808 0.96341 0.0
C2425 C 0.02488 0.3861 0.97376 0.0
C2426 C 0.04156 0.39608 0.97189 0.0
C2427 C 0.0476 0.40788 0.96001 0.0
C2428 C 0.03682 0.40961 0.95015 0.0
C2429 C 0.02051 0.4 0.95171 0.0
C2430 C 0.01151 0.40461 0.93984 0.0
C2431 C 0.00127 0.39064 0.92798 0.0
C2432 C 0.0013 0.41035 0.94883 0.0
C2433 C 0.02532 0.41832 0.93133 0.0
C2434 C 0.0398 0.42096 0.93745 0.0
C2435 C 0.05427 0.43288 0.93147 0.0
C2436 C 0.05395 0.44234 0.91889 0.0
C2437 C 0.03926 0.43998 0.91249 0.0
C2438 C 0.02477 0.42772 0.91879 0.0
H2439 H 0.60822 0.63006 0.9802 0.0
H2440 H 0.64348 0.61833 0.96241 0.0
H2441 H 0.62824 0.60822 0.93671 0.0
H2442 H 0.574 0.59559 0.96293 0.0
H2443 H 0.56366 0.60626 0.95795 0.0
H2444 H 0.57752 0.61295 0.97485 0.0
H2445 H 0.59333 0.64119 0.96247 0.0
H2446 H 0.57951 0.6346 0.94553 0.0
H2447 H 0.60058 0.64315 0.94206 0.0
H2448 H 0.60934 0.59948 0.91294 0.0
H2449 H 0.58751 0.59201 0.89291 0.0
H2450 H 0.56435 0.60898 0.92626 0.0
C2451 C 0.61278 0.62541 0.97089 0.0
C2452 C 0.62707 0.62501 0.97334 0.0
C2453 C 0.63256 0.61876 0.96085 0.0
C2454 C 0.62401 0.61301 0.94619 0.0
C2455 C 0.60998 0.61355 0.9442 0.0
C2456 C 0.60437 0.61956 0.9562 0.0
C2457 C 0.58882 0.61856 0.95105 0.0
C2458 C 0.5752 0.60769 0.96237 0.0
C2459 C 0.59068 0.63538 0.95023 0.0
C2460 C 0.58653 0.61098 0.93431 0.0
C2461 C 0.59891 0.60825 0.93057 0.0
C2462 C 0.59952 0.60145 0.91576 0.0
C2463 C 0.58707 0.59721 0.9045 0.0
C2464 C 0.57409 0.59961 0.90819 0.0
C2465 C 0.57398 0.60678 0.92323 0.0
H2466 H 0.99482 0.62863 0.96563 0.0
H2467 H 0.04419 0.65875 0.98137 0.0
H2468 H 0.05289 0.64834 0.95835 0.0
H2469 H 0.99764 0.59475 0.95384 0.0
H2470 H 0.98445 0.58967 0.93649 0.0
H2471 H 0.98222 0.6001 0.95367 0.0
H2472 H 0.98502 0.62279 0.93502 0.0
H2473 H 0.98715 0.61238 0.91774 0.0
H2474 H 0.00225 0.63283 0.92231 0.0
H2475 H 0.05599 0.63352 0.93428 0.0
H2476 H 0.05324 0.61607 0.91064 0.0
H2477 H 0.00189 0.59612 0.91082 0.0
C2478 C 0.00749 0.63315 0.96422 0.0
C2479 C 0.01882 0.64449 0.97533 0.0
C2480 C 0.03528 0.65009 0.97298 0.0
C2481 C 0.04034 0.64424 0.95996 0.0
C2482 C 0.0288 0.6329 0.94936 0.0
C2483 C 0.01273 0.62752 0.9513 0.0
C2484 C 0.00268 0.61511 0.93843 0.0
C2485 C 0.99107 0.59895 0.94607 0.0
C2486 C 0.99375 0.62114 0.92774 0.0
C2487 C 0.01558 0.61411 0.92909 0.0
C2488 C 0.03058 0.62449 0.93553 0.0
C2489 C 0.04431 0.62541 0.92909 0.0
C2490 C 0.04265 0.61546 0.91573 0.0
C2491 C 0.02735 0.60471 0.909 0.0
C2492 C 0.01371 0.60417 0.91575 0.0
H2493 H 0.38753 0.3964 0.96618 0.0
H2494 H 0.34358 0.39738 0.97354 0.0
H2495 H 0.35229 0.41918 0.95384 0.0
H2496 H 0.4125 0.43818 0.96471 0.0
H2497 H 0.42554 0.43759 0.94951 0.0
H2498 H 0.41513 0.42094 0.9628 0.0
H2499 H 0.40282 0.40167 0.93792 0.0
H2500 H 0.41321 0.4183 0.92453 0.0
H2501 H 0.39183 0.40575 0.92281 0.0
H2502 H 0.36652 0.44205 0.93483 0.0
H2503 H 0.3856 0.46486 0.91848 0.0
H2504 H 0.42055 0.44945 0.92409 0.0
C2505 C 0.37959 0.40098 0.96343 0.0
C2506 C 0.36481 0.3951 0.97131 0.0
C2507 C 0.35494 0.40167 0.96762 0.0
C2508 C 0.35975 0.41402 0.9564 0.0
C2509 C 0.37449 0.4197 0.94902 0.0
C2510 C 0.38429 0.41342 0.9524 0.0
C2511 C 0.40005 0.42244 0.94372 0.0
C2512 C 0.41413 0.43025 0.95591 0.0
C2513 C 0.40209 0.41138 0.93152 0.0
C2514 C 0.39769 0.43493 0.93514 0.0
C2515 C 0.38279 0.43302 0.9382 0.0
C2516 C 0.37812 0.44353 0.93215 0.0
C2517 C 0.38901 0.4564 0.92285 0.0
C2518 C 0.40438 0.45868 0.91966 0.0
C2519 C 0.40872 0.44775 0.92593 0.0
H2520 H 0.60942 0.97064 0.96669 0.0
H2521 H 0.64237 0.02165 0.96167 0.0
H2522 H 0.62911 0.02128 0.93596 0.0
H2523 H 0.60703 0.95984 0.92444 0.0
H2524 H 0.58603 0.94522 0.92472 0.0
H2525 H 0.59808 0.94943 0.94284 0.0
H2526 H 0.57882 0.95607 0.95842 0.0
H2527 H 0.56675 0.95196 0.94033 0.0
H2528 H 0.57468 0.97109 0.95074 0.0
H2529 H 0.61283 0.01547 0.91056 0.0
H2530 H 0.5945 0.00437 0.88688 0.0
H2531 H 0.57133 0.95741 0.90862 0.0
C2532 C 0.61387 0.98171 0.96016 0.0
C2533 C 0.62697 0.99617 0.96623 0.0
C2534 C 0.63234 0.01043 0.95733 0.0
C2535 C 0.62489 0.01036 0.94269 0.0
C2536 C 0.61197 0.99597 0.93712 0.0
C2537 C 0.60646 0.98191 0.94555 0.0
C2538 C 0.59232 0.9681 0.93681 0.0
C2539 C 0.5961 0.95487 0.93191 0.0
C2540 C 0.57725 0.96142 0.9472 0.0
C2541 C 0.5909 0.97659 0.92208 0.0
C2542 C 0.60236 0.99266 0.92253 0.0
C2543 C 0.60375 0.00291 0.91009 0.0
C2544 C 0.59329 0.99651 0.8967 0.0
C2545 C 0.58157 0.98003 0.89586 0.0
C2546 C 0.58022 0.97004 0.9089 0.0
H2547 H 0.63908 0.03078 0.05104 0.0
H2548 H 0.61757 0.97945 0.05789 0.0
H2549 H 0.60436 0.98167 0.08247 0.0
H2550 H 0.64637 0.04256 0.09317 0.0
H2551 H 0.64146 0.05826 0.09128 0.0
H2552 H 0.64931 0.05269 0.0742 0.0
H2553 H 0.62468 0.04745 0.05682 0.0
H2554 H 0.61672 0.05295 0.07387 0.0
H2555 H 0.60492 0.03369 0.06385 0.0
H2556 H 0.59391 0.98941 0.1066 0.0
H2557 H 0.58692 0.00229 0.12872 0.0
H2558 H 0.61414 0.04834 0.10568 0.0
C2559 C 0.63164 0.02002 0.05774 0.0
C2560 C 0.6294 0.00494 0.05253 0.0
C2561 C 0.61945 0.99113 0.06159 0.0
C2562 C 0.61189 0.99225 0.07559 0.0
C2563 C 0.61426 0.00725 0.08033 0.0
C2564 C 0.62385 0.02088 0.07168 0.0
C2565 C 0.62429 0.03552 0.07937 0.0
C2566 C 0.64137 0.04799 0.08483 0.0
C2567 C 0.61723 0.04283 0.06779 0.0
C2568 C 0.6136 0.02798 0.09377 0.0
C2569 C 0.60796 0.01167 0.0941 0.0
C2570 C 0.59821 0.00217 0.10646 0.0
C2571 C 0.59429 0.00958 0.11895 0.0
C2572 C 0.60008 0.02632 0.11899 0.0
C2573 C 0.60963 0.03554 0.10604 0.0
H2574 H 0.97308 0.61252 0.05193 0.0
H2575 H 0.01961 0.65094 0.06817 0.0
H2576 H 0.01784 0.6358 0.09264 0.0
H2577 H 0.95515 0.60262 0.09143 0.0
H2578 H 0.9441 0.58133 0.08714 0.0
H2579 H 0.94891 0.59528 0.07092 0.0
H2580 H 0.96262 0.58181 0.05558 0.0
H2581 H 0.95794 0.56789 0.07181 0.0
H2582 H 0.97833 0.58008 0.06555 0.0
H2583 H 0.01111 0.61673 0.1154 0.0
H2584 H 0.99955 0.59496 0.13526 0.0
H2585 H 0.95772 0.56854 0.10414 0.0
C2586 C 0.98285 0.6178 0.06068 0.0
C2587 C 0.99648 0.63295 0.05811 0.0
C2588 C 0.00905 0.63936 0.06982 0.0
C2589 C 0.00817 0.63084 0.08378 0.0
C2590 C 0.99467 0.6159 0.08585 0.0
C2591 C 0.98222 0.60941 0.07466 0.0
C2592 C 0.96911 0.59305 0.07982 0.0
C2593 C 0.95339 0.59308 0.08249 0.0
C2594 C 0.96688 0.57994 0.06745 0.0
C2595 C 0.97613 0.59143 0.09569 0.0
C2596 C 0.99089 0.60475 0.09892 0.0
C2597 C 0.99959 0.6062 0.11299 0.0
C2598 C 0.99296 0.59378 0.12417 0.0
C2599 C 0.9778 0.58005 0.12119 0.0
C2600 C 0.96937 0.57885 0.10667 0.0
H2601 H 0.40051 0.37443 0.04009 0.0
H2602 H 0.36207 0.37716 0.06415 0.0
H2603 H 0.37811 0.38615 0.08946 0.0
H2604 H 0.41325 0.36026 0.07419 0.0
H2605 H 0.43419 0.37214 0.06976 0.0
H2606 H 0.41954 0.36555 0.05357 0.0
H2607 H 0.43098 0.39499 0.04479 0.0
H2608 H 0.44564 0.40168 0.06097 0.0
H2609 H 0.43246 0.40983 0.05939 0.0
H2610 H 0.39812 0.39462 0.11222 0.0
H2611 H 0.42108 0.40248 0.13084 0.0
H2612 H 0.44708 0.3955 0.09182 0.0
C2613 C 0.39543 0.37682 0.05071 0.0
C2614 C 0.37999 0.37503 0.05014 0.0
C2615 C 0.37386 0.37846 0.06427 0.0
C2616 C 0.38288 0.38356 0.07872 0.0
C2617 C 0.39807 0.3853 0.07885 0.0
C2618 C 0.40436 0.38211 0.06522 0.0
C2619 C 0.42116 0.38532 0.06856 0.0
C2620 C 0.42208 0.3699 0.06639 0.0
C2621 C 0.43328 0.39876 0.05779 0.0
C2622 C 0.42327 0.39071 0.08621 0.0
C2623 C 0.40978 0.39055 0.09191 0.0
C2624 C 0.40877 0.39481 0.1079 0.0
C2625 C 0.42185 0.39926 0.11838 0.0
C2626 C 0.4358 0.39945 0.11285 0.0
C2627 C 0.43653 0.39531 0.09646 0.0
H2628 H 0.62972 0.694 0.37131 0.0
H2629 H 0.67602 0.70612 0.39176 0.0
H2630 H 0.67048 0.71757 0.41607 0.0
H2631 H 0.63033 0.72961 0.38511 0.0
H2632 H 0.60935 0.71987 0.38957 0.0
H2633 H 0.61637 0.71166 0.37402 0.0
H2634 H 0.60322 0.68436 0.38847 0.0
H2635 H 0.59608 0.69246 0.40403 0.0
H2636 H 0.60807 0.68365 0.40948 0.0
H2637 H 0.66048 0.72817 0.43785 0.0
H2638 H 0.64656 0.7378 0.45582 0.0
H2639 H 0.60694 0.71963 0.42138 0.0
C2640 C 0.63859 0.69889 0.38099 0.0
C2641 C 0.65329 0.69912 0.37963 0.0
C2642 C 0.66469 0.70583 0.39248 0.0
C2643 C 0.66165 0.71234 0.40638 0.0
C2644 C 0.64718 0.71212 0.40726 0.0
C2645 C 0.63582 0.70559 0.39496 0.0
C2646 C 0.62149 0.70747 0.39883 0.0
C2647 C 0.61926 0.71777 0.38612 0.0
C2648 C 0.60632 0.69101 0.40029 0.0
C2649 C 0.62669 0.71617 0.41514 0.0
C2650 C 0.64151 0.71862 0.41979 0.0
C2651 C 0.64889 0.72639 0.43434 0.0
C2652 C 0.64094 0.73187 0.44442 0.0
C2653 C 0.62583 0.72976 0.43983 0.0
C2654 C 0.61857 0.72162 0.42506 0.0
H2655 H 0.28746 0.94494 0.40278 0.0
H2656 H 0.30997 0.92503 0.3721 0.0
H2657 H 0.30222 0.90293 0.39123 0.0
H2658 H 0.29855 0.93537 0.44118 0.0
H2659 H 0.27992 0.9305 0.45059 0.0
H2660 H 0.28755 0.94494 0.43465 0.0
H2661 H 0.26105 0.92838 0.41841 0.0
H2662 H 0.25336 0.91385 0.43426 0.0
H2663 H 0.25399 0.90751 0.41373 0.0
H2664 H 0.29184 0.88286 0.41358 0.0
H2665 H 0.27947 0.86624 0.43759 0.0
H2666 H 0.2636 0.89913 0.45347 0.0
C2667 C 0.29086 0.936 0.4001 0.0
C2668 C 0.29936 0.93676 0.38592 0.0
C2669 C 0.30347 0.92473 0.38287 0.0
C2670 C 0.29912 0.91212 0.39366 0.0
C2671 C 0.29066 0.91169 0.40744 0.0
C2672 C 0.28659 0.92332 0.4107 0.0
C2673 C 0.27728 0.91996 0.42626 0.0
C2674 C 0.28637 0.9335 0.43892 0.0
C2675 C 0.26042 0.91726 0.42296 0.0
C2676 C 0.27672 0.9046 0.43122 0.0
C2677 C 0.28452 0.90004 0.42022 0.0
C2678 C 0.28563 0.88627 0.42224 0.0
C2679 C 0.27854 0.87689 0.43586 0.0
C2680 C 0.27034 0.88125 0.44721 0.0
C2681 C 0.26958 0.89538 0.44486 0.0
H2682 H 0.06154 0.36752 0.386 0.0
H2683 H 0.02954 0.31864 0.40073 0.0
H2684 H 0.04611 0.32337 0.42533 0.0
H2685 H 0.09688 0.36843 0.39746 0.0
H2686 H 0.10717 0.38905 0.4045 0.0
H2687 H 0.09186 0.38258 0.38903 0.0
H2688 H 0.07659 0.39296 0.40654 0.0
H2689 H 0.09195 0.39962 0.42203 0.0
H2690 H 0.0714 0.38614 0.42703 0.0
H2691 H 0.06698 0.3327 0.44724 0.0
H2692 H 0.09096 0.34603 0.46502 0.0
H2693 H 0.10981 0.38861 0.43575 0.0
C2694 C 0.05781 0.35793 0.39459 0.0
C2695 C 0.04418 0.34274 0.39152 0.0
C2696 C 0.03991 0.33038 0.40287 0.0
C2697 C 0.04922 0.33296 0.41688 0.0
C2698 C 0.06278 0.34795 0.41935 0.0
C2699 C 0.06706 0.36025 0.40857 0.0
C2700 C 0.08281 0.37485 0.41351 0.0
C2701 C 0.09542 0.37896 0.40034 0.0
C2702 C 0.08055 0.38924 0.41752 0.0
C2703 C 0.08685 0.36871 0.4286 0.0
C2704 C 0.07505 0.35323 0.43183 0.0
C2705 C 0.07627 0.34485 0.44487 0.0
C2706 C 0.08994 0.35247 0.45484 0.0
C2707 C 0.10232 0.36825 0.45161 0.0
C2708 C 0.1006 0.37651 0.43842 0.0
H2709 H 0.02975 0.29845 0.30647 0.0
H2710 H 0.06461 0.3491 0.31162 0.0
H2711 H 0.08256 0.34566 0.2932 0.0
H2712 H 0.05553 0.28299 0.30606 0.0
H2713 H 0.04388 0.2672 0.29143 0.0
H2714 H 0.03427 0.27497 0.30437 0.0
H2715 H 0.02254 0.28158 0.27942 0.0
H2716 H 0.03189 0.27367 0.26623 0.0
H2717 H 0.03567 0.29386 0.26373 0.0
H2718 H 0.10334 0.3393 0.27662 0.0
H2719 H 0.11614 0.32334 0.25671 0.0
H2720 H 0.06135 0.27143 0.26101 0.0
C2721 C 0.04112 0.30875 0.30352 0.0
C2722 C 0.04579 0.32401 0.3105 0.0
C2723 C 0.0607 0.3373 0.3064 0.0
C2724 C 0.07104 0.33548 0.29598 0.0
C2725 C 0.06633 0.32036 0.28945 0.0
C2726 C 0.05141 0.30689 0.29283 0.0
C2727 C 0.04793 0.29086 0.28467 0.0
C2728 C 0.04524 0.27827 0.29739 0.0
C2729 C 0.03366 0.28462 0.27281 0.0
C2730 C 0.06299 0.29557 0.27562 0.0
C2731 C 0.07554 0.31605 0.27912 0.0
C2732 C 0.09593 0.32681 0.27312 0.0
C2733 C 0.10425 0.31681 0.26161 0.0
C2734 C 0.08903 0.29625 0.25407 0.0
C2735 C 0.06945 0.28387 0.26428 0.0
H2736 H 0.65829 0.7086 0.29283 0.0
H2737 H 0.70758 0.72157 0.30168 0.0
H2738 H 0.71599 0.74053 0.27907 0.0
H2739 H 0.65844 0.70932 0.24995 0.0
H2740 H 0.64464 0.71677 0.24908 0.0
H2741 H 0.64409 0.70466 0.26578 0.0
H2742 H 0.64752 0.72689 0.28602 0.0
H2743 H 0.64825 0.73931 0.26955 0.0
H2744 H 0.66435 0.74685 0.28429 0.0
H2745 H 0.72326 0.76045 0.25202 0.0
H2746 H 0.72034 0.77929 0.22632 0.0
H2747 H 0.65977 0.7505 0.23756 0.0
C2748 C 0.67083 0.71539 0.28989 0.0
C2749 C 0.68228 0.71361 0.29895 0.0
C2750 C 0.69859 0.72273 0.29489 0.0
C2751 C 0.70348 0.73353 0.28207 0.0
C2752 C 0.69198 0.73519 0.27344 0.0
C2753 C 0.67564 0.72625 0.27717 0.0
C2754 C 0.66414 0.72935 0.26682 0.0
C2755 C 0.65212 0.71413 0.25735 0.0
C2756 C 0.65556 0.73599 0.27729 0.0
C2757 C 0.67524 0.7418 0.25546 0.0
C2758 C 0.6945 0.7458 0.2602 0.0
C2759 C 0.71175 0.75908 0.24892 0.0
C2760 C 0.70995 0.77017 0.23241 0.0
C2761 C 0.68995 0.76892 0.23106 0.0
C2762 C 0.67146 0.75184 0.23944 0.0
H2763 H 0.2823 0.95422 0.30081 0.0
H2764 H 0.26715 0.98022 0.33284 0.0
H2765 H 0.24618 0.97609 0.31298 0.0
H2766 H 0.27591 0.96918 0.26316 0.0
H2767 H 0.2688 0.95035 0.25236 0.0
H2768 H 0.28287 0.95568 0.26895 0.0
H2769 H 0.26352 0.92916 0.28309 0.0
H2770 H 0.24937 0.92378 0.26658 0.0
H2771 H 0.24336 0.92458 0.28707 0.0
H2772 H 0.2266 0.96881 0.28982 0.0
H2773 H 0.2098 0.95885 0.26493 0.0
H2774 H 0.23773 0.93766 0.2481 0.0
C2775 C 0.27464 0.95913 0.30364 0.0
C2776 C 0.2764 0.96756 0.31841 0.0
C2777 C 0.26607 0.97373 0.32163 0.0
C2778 C 0.25411 0.97145 0.31042 0.0
C2779 C 0.25265 0.963 0.29605 0.0
C2780 C 0.26265 0.95697 0.29261 0.0
C2781 C 0.25842 0.94814 0.27638 0.0
C2782 C 0.27233 0.95633 0.26451 0.0
C2783 C 0.25336 0.93036 0.27841 0.0
C2784 C 0.24442 0.95008 0.27126 0.0
C2785 C 0.2413 0.95871 0.28276 0.0
C2786 C 0.2289 0.962 0.28075 0.0
C2787 C 0.2194 0.95626 0.26663 0.0
C2788 C 0.22227 0.94723 0.25477 0.0
C2789 C 0.23509 0.9443 0.25709 0.0
H2790 H 0.70368 0.9637 0.30925 0.0
H2791 H 0.65367 0.94138 0.29488 0.0
H2792 H 0.65967 0.93261 0.26895 0.0
H2793 H 0.71973 0.97854 0.27084 0.0
H2794 H 0.73606 0.97461 0.27272 0.0
H2795 H 0.72775 0.97838 0.2906 0.0
H2796 H 0.72246 0.95137 0.3024 0.0
H2797 H 0.73079 0.94752 0.28455 0.0
H2798 H 0.71091 0.93307 0.29071 0.0
H2799 H 0.6713 0.92798 0.24382 0.0
H2800 H 0.68781 0.92721 0.22143 0.0
H2801 H 0.73 0.95136 0.25246 0.0
C2802 C 0.69396 0.95684 0.30072 0.0
C2803 C 0.6782 0.95325 0.30413 0.0
C2804 C 0.66584 0.94426 0.2926 0.0
C2805 C 0.66911 0.93921 0.27782 0.0
C2806 C 0.68478 0.94308 0.27479 0.0
C2807 C 0.69699 0.95158 0.28595 0.0
C2808 C 0.71285 0.95451 0.2795 0.0
C2809 C 0.7248 0.97258 0.27834 0.0
C2810 C 0.71965 0.94611 0.28991 0.0
C2811 C 0.70769 0.94662 0.26284 0.0
C2812 C 0.69144 0.94008 0.26039 0.0
C2813 C 0.68401 0.93289 0.24565 0.0
C2814 C 0.69347 0.93251 0.23302 0.0
C2815 C 0.71016 0.93922 0.23522 0.0
C2816 C 0.71727 0.94612 0.25045 0.0
H2817 H 0.05199 0.71935 0.29656 0.0
H2818 H 0.01906 0.73477 0.31294 0.0
H2819 H 0.02783 0.75438 0.29085 0.0
H2820 H 0.08368 0.75771 0.28634 0.0
H2821 H 0.08941 0.75058 0.26871 0.0
H2822 H 0.08011 0.73744 0.28544 0.0
H2823 H 0.05806 0.71657 0.26604 0.0
H2824 H 0.06735 0.72962 0.24923 0.0
H2825 H 0.04667 0.72263 0.25358 0.0
H2826 H 0.04087 0.77285 0.26705 0.0
H2827 H 0.05677 0.78815 0.24353 0.0
H2828 H 0.08086 0.76032 0.24323 0.0
C2829 C 0.04653 0.72677 0.2955 0.0
C2830 C 0.03484 0.72551 0.30652 0.0
C2831 C 0.02802 0.73548 0.30464 0.0
C2832 C 0.03294 0.74667 0.29214 0.0
C2833 C 0.04462 0.74769 0.28159 0.0
C2834 C 0.05125 0.73793 0.28313 0.0
C2835 C 0.06368 0.7414 0.27037 0.0
C2836 C 0.08019 0.74713 0.27819 0.0
C2837 C 0.05863 0.72668 0.25914 0.0
C2838 C 0.06319 0.7548 0.26152 0.0
C2839 C 0.05211 0.75827 0.2681 0.0
C2840 C 0.04962 0.77026 0.26186 0.0
C2841 C 0.05873 0.77893 0.24857 0.0
C2842 C 0.07028 0.77565 0.24181 0.0
C2843 C 0.07233 0.76329 0.24833 0.0
H2844 H 0.27024 0.30488 0.30587 0.0
H2845 H 0.2993 0.35462 0.2921 0.0
H2846 H 0.28311 0.34895 0.26709 0.0
H2847 H 0.26473 0.28742 0.26609 0.0
H2848 H 0.24431 0.27209 0.26922 0.0
H2849 H 0.25809 0.28007 0.28618 0.0
H2850 H 0.23899 0.2875 0.30095 0.0
H2851 H 0.22517 0.27957 0.28402 0.0
H2852 H 0.23262 0.29996 0.291 0.0
H2853 H 0.26444 0.33777 0.24313 0.0
H2854 H 0.24437 0.32175 0.22189 0.0
H2855 H 0.22653 0.27961 0.25173 0.0
C2856 C 0.27321 0.31457 0.29759 0.0
C2857 C 0.28608 0.33019 0.30094 0.0
C2858 C 0.28949 0.34257 0.28983 0.0
C2859 C 0.28036 0.33947 0.27558 0.0
C2860 C 0.26774 0.32398 0.27266 0.0
C2861 C 0.2641 0.31174 0.28337 0.0
C2862 C 0.24989 0.29615 0.27731 0.0
C2863 C 0.25454 0.28317 0.27453 0.0
C2864 C 0.23584 0.29047 0.28902 0.0
C2865 C 0.24628 0.30151 0.26142 0.0
C2866 C 0.25673 0.3176 0.25898 0.0
C2867 C 0.25614 0.32517 0.24493 0.0
C2868 C 0.2447 0.31598 0.23295 0.0
C2869 C 0.23399 0.29942 0.23507 0.0
C2870 C 0.23463 0.29222 0.24969 0.0
H2871 H 0.30467 0.37492 0.38213 0.0
H2872 H 0.28575 0.32485 0.39398 0.0
H2873 H 0.27496 0.32916 0.41936 0.0
H2874 H 0.31644 0.39094 0.42239 0.0
H2875 H 0.31074 0.40603 0.42014 0.0
H2876 H 0.31672 0.39896 0.40269 0.0
H2877 H 0.28997 0.39144 0.38817 0.0
H2878 H 0.28387 0.39845 0.40561 0.0
H2879 H 0.2714 0.37825 0.39791 0.0
H2880 H 0.26711 0.33904 0.44393 0.0
H2881 H 0.26271 0.35393 0.46607 0.0
H2882 H 0.28561 0.39727 0.43788 0.0
C2883 C 0.29824 0.36486 0.39005 0.0
C2884 C 0.29609 0.34954 0.38604 0.0
C2885 C 0.28755 0.33668 0.39673 0.0
C2886 C 0.28135 0.339 0.41119 0.0
C2887 C 0.28366 0.35422 0.41476 0.0
C2888 C 0.29184 0.36692 0.40449 0.0
C2889 C 0.29275 0.38209 0.41128 0.0
C2890 C 0.3102 0.39528 0.41431 0.0
C2891 C 0.28397 0.38789 0.40007 0.0
C2892 C 0.284 0.37597 0.42708 0.0
C2893 C 0.27885 0.35985 0.42883 0.0
C2894 C 0.271 0.35164 0.44267 0.0
C2895 C 0.26855 0.36019 0.45516 0.0
C2896 C 0.2739 0.37676 0.45374 0.0
C2897 C 0.28145 0.38463 0.43934 0.0
H2898 H 0.63092 0.92798 0.38184 0.0
H2899 H 0.67999 0.95692 0.39892 0.0
H2900 H 0.67325 0.94119 0.42394 0.0
H2901 H 0.61241 0.92392 0.4201 0.0
H2902 H 0.59693 0.90346 0.41631 0.0
H2903 H 0.6057 0.91681 0.39962 0.0
H2904 H 0.61298 0.89681 0.38618 0.0
H2905 H 0.60426 0.8834 0.40285 0.0
H2906 H 0.62469 0.89028 0.39744 0.0
H2907 H 0.66092 0.92305 0.44758 0.0
H2908 H 0.64389 0.90354 0.46801 0.0
H2909 H 0.60321 0.88568 0.435 0.0
C2910 C 0.64026 0.93102 0.39082 0.0
C2911 C 0.65599 0.94372 0.38842 0.0
C2912 C 0.66787 0.94723 0.40046 0.0
C2913 C 0.66416 0.93837 0.41472 0.0
C2914 C 0.64856 0.92593 0.41669 0.0
C2915 C 0.63681 0.9222 0.40505 0.0
C2916 C 0.62095 0.90831 0.41017 0.0
C2917 C 0.60826 0.91344 0.41164 0.0
C2918 C 0.6154 0.89384 0.39846 0.0
C2919 C 0.62556 0.90494 0.42662 0.0
C2920 C 0.64154 0.91525 0.43015 0.0
C2921 C 0.64842 0.91484 0.4449 0.0
C2922 C 0.63867 0.90373 0.45642 0.0
C2923 C 0.62224 0.89315 0.4531 0.0
C2924 C 0.61572 0.89364 0.43787 0.0
H2925 H 0.06656 0.70408 0.38333 0.0
H2926 H 0.03472 0.72172 0.39738 0.0
H2927 H 0.04969 0.73218 0.42313 0.0
H2928 H 0.07052 0.69118 0.42239 0.0
H2929 H 0.09132 0.69721 0.42031 0.0
H2930 H 0.07857 0.69172 0.40259 0.0
H2931 H 0.09778 0.71917 0.38998 0.0
H2932 H 0.11058 0.72477 0.40771 0.0
H2933 H 0.10285 0.7374 0.40114 0.0
H2934 H 0.06717 0.73962 0.44788 0.0
H2935 H 0.08595 0.74325 0.47017 0.0
H2936 H 0.10694 0.72147 0.44003 0.0
C2937 C 0.06278 0.71022 0.39177 0.0
C2938 C 0.04944 0.71206 0.38828 0.0
C2939 C 0.04489 0.72015 0.39972 0.0
C2940 C 0.05334 0.72618 0.41439 0.0
C2941 C 0.06639 0.72413 0.41746 0.0
C2942 C 0.07113 0.71638 0.40649 0.0
C2943 C 0.08532 0.7154 0.41301 0.0
C2944 C 0.08117 0.69783 0.41467 0.0
C2945 C 0.1 0.72475 0.40232 0.0
C2946 C 0.08763 0.72358 0.42945 0.0
C2947 C 0.07662 0.72859 0.43173 0.0
C2948 C 0.07594 0.73588 0.4462 0.0
C2949 C 0.08665 0.7379 0.45877 0.0
C2950 C 0.0979 0.73268 0.45681 0.0
C2951 C 0.09852 0.72565 0.44183 0.0
H2952 H 0.32952 0.05195 0.72424 0.0
H2953 H 0.28669 0.02407 0.69471 0.0
H2954 H 0.27145 0.03108 0.71384 0.0
H2955 H 0.31033 0.04159 0.76308 0.0
H2956 H 0.32302 0.06126 0.77193 0.0
H2957 H 0.33044 0.05381 0.75602 0.0
H2958 H 0.33749 0.07896 0.73915 0.0
H2959 H 0.33001 0.08645 0.75497 0.0
H2960 H 0.32217 0.08386 0.73457 0.0
H2961 H 0.26092 0.04131 0.73617 0.0
H2962 H 0.2559 0.05389 0.7601 0.0
H2963 H 0.30564 0.07513 0.77484 0.0
C2964 C 0.31692 0.04724 0.72179 0.0
C2965 C 0.30931 0.03743 0.70794 0.0
C2966 C 0.2928 0.03158 0.70522 0.0
C2967 C 0.28404 0.03551 0.71602 0.0
C2968 C 0.29195 0.04529 0.72948 0.0
C2969 C 0.30801 0.05104 0.73241 0.0
C2970 C 0.31372 0.06143 0.74769 0.0
C2971 C 0.31973 0.05408 0.76043 0.0
C2972 C 0.32661 0.0787 0.74386 0.0
C2973 C 0.29836 0.06066 0.75288 0.0
C2974 C 0.28594 0.05129 0.74223 0.0
C2975 C 0.27058 0.04874 0.74455 0.0
C2976 C 0.26785 0.05596 0.75812 0.0
C2977 C 0.28044 0.06572 0.76913 0.0
C2978 C 0.29586 0.06796 0.76647 0.0
H2979 H 0.96409 0.25907 0.70504 0.0
H2980 H 0.95672 0.29741 0.72351 0.0
H2981 H 0.94505 0.28218 0.74825 0.0
H2982 H 0.92762 0.22652 0.7201 0.0
H2983 H 0.93631 0.21436 0.72528 0.0
H2984 H 0.94444 0.22834 0.70899 0.0
H2985 H 0.97237 0.24178 0.72292 0.0
H2986 H 0.96434 0.22781 0.73924 0.0
H2987 H 0.97463 0.24909 0.74357 0.0
H2988 H 0.93445 0.2632 0.77107 0.0
H2989 H 0.92494 0.2411 0.79046 0.0
H2990 H 0.93851 0.21464 0.75732 0.0
C2991 C 0.96007 0.26428 0.7143 0.0
C2992 C 0.96135 0.27946 0.71228 0.0
C2993 C 0.95587 0.28581 0.7247 0.0
C2994 C 0.94923 0.27726 0.73884 0.0
C2995 C 0.94809 0.26235 0.74042 0.0
C2996 C 0.95332 0.25587 0.72852 0.0
C2997 C 0.95052 0.2395 0.73328 0.0
C2998 C 0.93904 0.22641 0.72119 0.0
C2999 C 0.96641 0.23955 0.73485 0.0
C3000 C 0.94286 0.23782 0.74967 0.0
C3001 C 0.94164 0.25118 0.75355 0.0
C3002 C 0.9352 0.2526 0.76812 0.0
C3003 C 0.92978 0.23997 0.77902 0.0
C3004 C 0.93062 0.226 0.77521 0.0
C3005 C 0.93743 0.22504 0.7604 0.0
H3006 H 0.72567 0.69917 0.7106 0.0
H3007 H 0.70715 0.64799 0.71457 0.0
H3008 H 0.72892 0.65316 0.73363 0.0
H3009 H 0.76584 0.71185 0.70982 0.0
H3010 H 0.77196 0.73018 0.72125 0.0
H3011 H 0.75376 0.72129 0.70937 0.0
H3012 H 0.73766 0.72032 0.73457 0.0
H3013 H 0.75578 0.72951 0.74666 0.0
H3014 H 0.73903 0.71068 0.75259 0.0
H3015 H 0.75667 0.6607 0.75012 0.0
H3016 H 0.78714 0.67848 0.76719 0.0
H3017 H 0.7871 0.73049 0.7521 0.0
C3018 C 0.72616 0.68912 0.71572 0.0
C3019 C 0.71476 0.6732 0.71108 0.0
C3020 C 0.71571 0.6603 0.71794 0.0
C3021 C 0.72805 0.6631 0.72877 0.0
C3022 C 0.73935 0.67885 0.73286 0.0
C3023 C 0.73856 0.69201 0.72665 0.0
C3024 C 0.75221 0.70884 0.73193 0.0
C3025 C 0.76148 0.7186 0.71722 0.0
C3026 C 0.74579 0.71787 0.74203 0.0
C3027 C 0.76261 0.70497 0.74221 0.0
C3028 C 0.7534 0.68413 0.7428 0.0
C3029 C 0.76259 0.67363 0.75119 0.0
C3030 C 0.78188 0.68456 0.76092 0.0
C3031 C 0.78899 0.70644 0.7642 0.0
C3032 C 0.78183 0.71759 0.75141 0.0
H3033 H 0.7013 0.63558 0.63821 0.0
H3034 H 0.6956 0.67323 0.61657 0.0
H3035 H 0.71114 0.67317 0.59298 0.0
H3036 H 0.74045 0.65171 0.62947 0.0
H3037 H 0.74041 0.63326 0.62518 0.0
H3038 H 0.72569 0.63325 0.63839 0.0
H3039 H 0.70304 0.61151 0.62023 0.0
H3040 H 0.71774 0.61132 0.607 0.0
H3041 H 0.70246 0.6149 0.59886 0.0
H3042 H 0.73097 0.6727 0.57461 0.0
H3043 H 0.75389 0.67196 0.56262 0.0
H3044 H 0.74733 0.63464 0.59581 0.0
C3045 C 0.70273 0.64326 0.62814 0.0
C3046 C 0.69704 0.65421 0.62901 0.0
C3047 C 0.69972 0.66463 0.61599 0.0
C3048 C 0.70849 0.66463 0.60253 0.0
C3049 C 0.71454 0.65417 0.60229 0.0
C3050 C 0.71171 0.64358 0.61469 0.0
C3051 C 0.72146 0.63527 0.61257 0.0
C3052 C 0.73266 0.63858 0.62727 0.0
C3053 C 0.71052 0.61717 0.60948 0.0
C3054 C 0.73076 0.64343 0.59752 0.0
C3055 C 0.72633 0.65405 0.59163 0.0
C3056 C 0.73429 0.66416 0.57886 0.0
C3057 C 0.74733 0.66368 0.57215 0.0
C3058 C 0.75237 0.6532 0.57823 0.0
C3059 C 0.74363 0.64263 0.59079 0.0
H3060 H 0.33827 0.05435 0.62383 0.0
H3061 H 0.38284 0.07201 0.65084 0.0
H3062 H 0.39654 0.09328 0.63085 0.0
H3063 H 0.35535 0.06185 0.58368 0.0
H3064 H 0.34186 0.068 0.57572 0.0
H3065 H 0.33562 0.05382 0.59189 0.0
H3066 H 0.32892 0.07223 0.60939 0.0
H3067 H 0.33524 0.08651 0.59331 0.0
H3068 H 0.34411 0.0928 0.61328 0.0
H3069 H 0.40542 0.11277 0.60817 0.0
H3070 H 0.40889 0.12918 0.58414 0.0
H3071 H 0.35855 0.09932 0.57208 0.0
C3072 C 0.35094 0.0626 0.62548 0.0
C3073 C 0.35947 0.06146 0.63891 0.0
C3074 C 0.37602 0.07261 0.64067 0.0
C3075 C 0.38393 0.08475 0.62937 0.0
C3076 C 0.37513 0.08563 0.6164 0.0
C3077 C 0.35902 0.07486 0.61436 0.0
C3078 C 0.35232 0.07867 0.59948 0.0
C3079 C 0.34591 0.06476 0.58695 0.0
C3080 C 0.33938 0.0828 0.60415 0.0
C3081 C 0.36718 0.09328 0.59351 0.0
C3082 C 0.38021 0.09706 0.60343 0.0
C3083 C 0.3953 0.10997 0.60034 0.0
C3084 C 0.39714 0.11925 0.58672 0.0
C3085 C 0.38395 0.11568 0.57641 0.0
C3086 C 0.36879 0.10246 0.57988 0.0
H3087 H 0.95076 0.27893 0.6211 0.0
H3088 H 0.94753 0.32021 0.63799 0.0
H3089 H 0.92857 0.31574 0.61573 0.0
H3090 H 0.94846 0.28515 0.57795 0.0
H3091 H 0.93657 0.26401 0.57318 0.0
H3092 H 0.95038 0.27079 0.59014 0.0
H3093 H 0.92738 0.25247 0.60914 0.0
H3094 H 0.91348 0.24571 0.59227 0.0
H3095 H 0.90979 0.25442 0.61005 0.0
H3096 H 0.90933 0.30639 0.5923 0.0
H3097 H 0.89125 0.29283 0.56883 0.0
H3098 H 0.90715 0.25788 0.56689 0.0
C3099 C 0.94618 0.28711 0.62005 0.0
C3100 C 0.95066 0.29993 0.63133 0.0
C3101 C 0.94431 0.31031 0.62953 0.0
C3102 C 0.93352 0.30788 0.61692 0.0
C3103 C 0.92922 0.29505 0.60614 0.0
C3104 C 0.93539 0.28488 0.6075 0.0
C3105 C 0.92857 0.27183 0.59444 0.0
C3106 C 0.94178 0.27303 0.58327 0.0
C3107 C 0.91925 0.25512 0.60193 0.0
C3108 C 0.91749 0.27618 0.58565 0.0
C3109 C 0.91807 0.28963 0.59259 0.0
C3110 C 0.90875 0.29584 0.58676 0.0
C3111 C 0.89849 0.28804 0.57349 0.0
C3112 C 0.89754 0.27413 0.56628 0.0
C3113 C 0.90739 0.26831 0.57233 0.0
H3114 H 0.33719 0.28979 0.62717 0.0
H3115 H 0.38268 0.31439 0.65312 0.0
H3116 H 0.39522 0.30731 0.6309 0.0
H3117 H 0.34135 0.25719 0.611 0.0
H3118 H 0.33197 0.25649 0.59182 0.0
H3119 H 0.32655 0.26335 0.60985 0.0
H3120 H 0.33352 0.28999 0.59589 0.0
H3121 H 0.33889 0.28319 0.5778 0.0
H3122 H 0.35306 0.302 0.58742 0.0
H3123 H 0.40279 0.29754 0.60572 0.0
H3124 H 0.40492 0.28651 0.57913 0.0
H3125 H 0.35458 0.26867 0.5697 0.0
C3126 C 0.34979 0.29368 0.62824 0.0
C3127 C 0.35894 0.30262 0.64194 0.0
C3128 C 0.37542 0.30754 0.64275 0.0
C3129 C 0.38264 0.30355 0.63021 0.0
C3130 C 0.37325 0.29468 0.61691 0.0
C3131 C 0.3572 0.28987 0.61582 0.0
C3132 C 0.34981 0.2807 0.60011 0.0
C3133 C 0.33664 0.26341 0.6034 0.0
C3134 C 0.34345 0.2895 0.58969 0.0
C3135 C 0.36422 0.28109 0.59252 0.0
C3136 C 0.37761 0.28915 0.60242 0.0
C3137 C 0.39237 0.29116 0.5979 0.0
C3138 C 0.39346 0.28483 0.58283 0.0
C3139 C 0.37988 0.27659 0.57247 0.0
C3140 C 0.36511 0.27475 0.57745 0.0
H3141 H 0.70552 0.07461 0.63251 0.0
H3142 H 0.71956 0.04101 0.61398 0.0
H3143 H 0.72957 0.05684 0.58924 0.0
H3144 H 0.69204 0.08154 0.59477 0.0
H3145 H 0.69954 0.1026 0.59877 0.0
H3146 H 0.6939 0.08893 0.61535 0.0
H3147 H 0.72206 0.10617 0.62834 0.0
H3148 H 0.7278 0.11988 0.61177 0.0
H3149 H 0.73944 0.11055 0.61668 0.0
H3150 H 0.737 0.07548 0.56602 0.0
H3151 H 0.74124 0.09579 0.54571 0.0
H3152 H 0.72341 0.118 0.57945 0.0
C3153 C 0.71074 0.0706 0.62328 0.0
C3154 C 0.71173 0.05653 0.62523 0.0
C3155 C 0.71868 0.05174 0.61283 0.0
C3156 C 0.72443 0.06067 0.59872 0.0
C3157 C 0.72328 0.07445 0.59718 0.0
C3158 C 0.71666 0.07945 0.60912 0.0
C3159 C 0.71665 0.09459 0.60426 0.0
C3160 C 0.69951 0.09173 0.60322 0.0
C3161 C 0.72712 0.10863 0.61596 0.0
C3162 C 0.72405 0.09714 0.58763 0.0
C3163 C 0.72782 0.0854 0.58382 0.0
C3164 C 0.73421 0.08481 0.5689 0.0
C3165 C 0.73658 0.09639 0.55745 0.0
C3166 C 0.7326 0.10842 0.56096 0.0
C3167 C 0.72654 0.10893 0.57641 0.0
H3168 H 0.93053 0.63318 0.63982 0.0
H3169 H 0.95909 0.68313 0.6265 0.0
H3170 H 0.94412 0.67706 0.60059 0.0
H3171 H 0.92792 0.6161 0.60061 0.0
H3172 H 0.90755 0.60021 0.60263 0.0
H3173 H 0.92018 0.60855 0.62037 0.0
H3174 H 0.89951 0.61496 0.63317 0.0
H3175 H 0.88682 0.60666 0.61545 0.0
H3176 H 0.89313 0.6269 0.62218 0.0
H3177 H 0.92708 0.66536 0.57553 0.0
H3178 H 0.9088 0.64882 0.55323 0.0
H3179 H 0.89038 0.60681 0.5833 0.0
C3180 C 0.93361 0.64286 0.63148 0.0
C3181 C 0.94602 0.65863 0.6352 0.0
C3182 C 0.94962 0.67096 0.62396 0.0
C3183 C 0.94118 0.66764 0.6092 0.0
C3184 C 0.92906 0.65198 0.6059 0.0
C3185 C 0.92519 0.6398 0.61675 0.0
C3186 C 0.91174 0.62396 0.61016 0.0
C3187 C 0.91718 0.61148 0.60834 0.0
C3188 C 0.89692 0.61776 0.62088 0.0
C3189 C 0.90885 0.62909 0.5938 0.0
C3190 C 0.91896 0.6453 0.59159 0.0
C3191 C 0.91901 0.65268 0.57716 0.0
C3192 C 0.9086 0.6432 0.56457 0.0
C3193 C 0.89825 0.62653 0.56649 0.0
C3194 C 0.8982 0.6195 0.58145 0.0
H3195 H 0.96378 0.70432 0.71665 0.0
H3196 H 0.94291 0.65393 0.72822 0.0
H3197 H 0.93201 0.65861 0.75333 0.0
H3198 H 0.97519 0.71984 0.7571 0.0
H3199 H 0.97033 0.73552 0.75472 0.0
H3200 H 0.97621 0.72818 0.73741 0.0
H3201 H 0.95001 0.72179 0.72236 0.0
H3202 H 0.94403 0.72908 0.73966 0.0
H3203 H 0.93109 0.70906 0.73173 0.0
H3204 H 0.92426 0.66884 0.77769 0.0
H3205 H 0.9201 0.68405 0.79967 0.0
H3206 H 0.945 0.72753 0.77192 0.0
C3207 C 0.9569 0.69426 0.72444 0.0
C3208 C 0.95422 0.67875 0.72044 0.0
C3209 C 0.9451 0.66591 0.73097 0.0
C3210 C 0.93884 0.66844 0.74528 0.0
C3211 C 0.94169 0.68384 0.74886 0.0
C3212 C 0.95044 0.69653 0.73873 0.0
C3213 C 0.95187 0.71193 0.74553 0.0
C3214 C 0.96944 0.72461 0.74889 0.0
C3215 C 0.94376 0.71834 0.73414 0.0
C3216 C 0.94274 0.70594 0.76114 0.0
C3217 C 0.93696 0.6897 0.76281 0.0
C3218 C 0.92864 0.68155 0.77649 0.0
C3219 C 0.92633 0.69027 0.78889 0.0
C3220 C 0.93229 0.70697 0.78753 0.0
C3221 C 0.94036 0.7148 0.77331 0.0
H3222 H 0.2978 0.26559 0.70967 0.0
H3223 H 0.34247 0.29974 0.7336 0.0
H3224 H 0.33435 0.28336 0.75807 0.0
H3225 H 0.27315 0.25708 0.74442 0.0
H3226 H 0.26072 0.23603 0.73951 0.0
H3227 H 0.27017 0.25018 0.72357 0.0
H3228 H 0.2833 0.23397 0.71325 0.0
H3229 H 0.27393 0.21979 0.72921 0.0
H3230 H 0.2953 0.22983 0.72703 0.0
H3231 H 0.3212 0.26411 0.78032 0.0
H3232 H 0.30355 0.24301 0.79909 0.0
H3233 H 0.26771 0.22067 0.7608 0.0
C3234 C 0.30589 0.2696 0.72004 0.0
C3235 C 0.32079 0.28398 0.71966 0.0
C3236 C 0.33101 0.28878 0.73352 0.0
C3237 C 0.32653 0.27954 0.74751 0.0
C3238 C 0.31181 0.26546 0.74747 0.0
C3239 C 0.30164 0.26046 0.73412 0.0
C3240 C 0.28638 0.24492 0.73745 0.0
C3241 C 0.27174 0.2472 0.73616 0.0
C3242 C 0.28463 0.23132 0.72606 0.0
C3243 C 0.28951 0.24216 0.75482 0.0
C3244 C 0.30428 0.25414 0.76032 0.0
C3245 C 0.30965 0.25458 0.77613 0.0
C3246 C 0.29955 0.24255 0.78669 0.0
C3247 C 0.28428 0.23023 0.78141 0.0
C3248 C 0.27934 0.22993 0.76516 0.0
H3249 H 0.71699 0.05613 0.7181 0.0
H3250 H 0.73527 0.02569 0.7005 0.0
H3251 H 0.75271 0.03291 0.72485 0.0
H3252 H 0.75381 0.08756 0.73485 0.0
H3253 H 0.74458 0.09119 0.75209 0.0
H3254 H 0.73351 0.08353 0.73333 0.0
H3255 H 0.7112 0.05932 0.7484 0.0
H3256 H 0.72218 0.06692 0.76721 0.0
H3257 H 0.71625 0.04684 0.76025 0.0
H3258 H 0.7682 0.04356 0.75134 0.0
H3259 H 0.78044 0.05685 0.77771 0.0
H3260 H 0.75182 0.08009 0.77762 0.0
C3261 C 0.72466 0.05096 0.71932 0.0
C3262 C 0.72476 0.04035 0.70735 0.0
C3263 C 0.73496 0.03385 0.70949 0.0
C3264 C 0.74492 0.03788 0.72328 0.0
C3265 C 0.74451 0.04839 0.73483 0.0
C3266 C 0.73461 0.05481 0.73298 0.0
C3267 C 0.73635 0.06579 0.74713 0.0
C3268 C 0.74243 0.08304 0.74151 0.0
C3269 C 0.72056 0.05932 0.75629 0.0
C3270 C 0.74885 0.06463 0.7572 0.0
C3271 C 0.75341 0.05452 0.74994 0.0
C3272 C 0.76477 0.05155 0.75709 0.0
C3273 C 0.77168 0.05917 0.77201 0.0
C3274 C 0.76728 0.06972 0.77953 0.0
C3275 C 0.75559 0.07228 0.77204 0.0
H3276 H 0.05463 0.35456 0.05249 0.0
H3277 H 0.02548 0.31675 0.0177 0.0
H3278 H 0.03469 0.29937 0.02956 0.0
H3279 H 0.08841 0.34752 0.0555 0.0
H3280 H 0.09129 0.35296 0.07678 0.0
H3281 H 0.08322 0.36187 0.06337 0.0
H3282 H 0.05878 0.35236 0.0818 0.0
H3283 H 0.06644 0.34308 0.09517 0.0
H3284 H 0.04678 0.33134 0.08617 0.0
H3285 H 0.04169 0.27961 0.04701 0.0
H3286 H 0.05448 0.26752 0.07146 0.0
H3287 H 0.08202 0.32418 0.09824 0.0
C3288 C 0.05049 0.34271 0.04729 0.0
C3289 C 0.03945 0.33699 0.03416 0.0
C3290 C 0.03398 0.32137 0.02773 0.0
C3291 C 0.03917 0.31143 0.03436 0.0
C3292 C 0.04979 0.31716 0.04748 0.0
C3293 C 0.05555 0.33268 0.05418 0.0
C3294 C 0.06637 0.33697 0.06947 0.0
C3295 C 0.08332 0.35064 0.06608 0.0
C3296 C 0.05916 0.34118 0.084 0.0
C3297 C 0.0665 0.32172 0.07241 0.0
C3298 C 0.0553 0.3083 0.05678 0.0
C3299 C 0.04962 0.28753 0.05646 0.0
C3300 C 0.05658 0.27966 0.07216 0.0
C3301 C 0.0722 0.29539 0.08587 0.0
C3302 C 0.0743 0.31573 0.08898 0.0
H3303 H 0.6778 0.69654 0.03947 0.0
H3304 H 0.62709 0.68049 0.04008 0.0
H3305 H 0.63301 0.70655 0.05212 0.0
H3306 H 0.68746 0.71774 0.07762 0.0
H3307 H 0.7065 0.73382 0.07126 0.0
H3308 H 0.69841 0.71413 0.06209 0.0
H3309 H 0.70066 0.72607 0.03362 0.0
H3310 H 0.70883 0.74582 0.0427 0.0
H3311 H 0.69136 0.73795 0.02972 0.0
H3312 H 0.64429 0.73421 0.06394 0.0
H3313 H 0.66026 0.76164 0.07547 0.0
H3314 H 0.70362 0.75957 0.0681 0.0
C3315 C 0.66795 0.69855 0.04203 0.0
C3316 C 0.65198 0.6865 0.03879 0.0
C3317 C 0.63942 0.68954 0.04246 0.0
C3318 C 0.64265 0.70431 0.04929 0.0
C3319 C 0.65851 0.71588 0.05244 0.0
C3320 C 0.67096 0.71319 0.04897 0.0
C3321 C 0.68689 0.72754 0.05393 0.0
C3322 C 0.6953 0.72303 0.067 0.0
C3323 C 0.69756 0.73477 0.03911 0.0
C3324 C 0.68142 0.73868 0.06076 0.0
C3325 C 0.66501 0.73173 0.0597 0.0
C3326 C 0.65715 0.73974 0.06499 0.0
C3327 C 0.6663 0.75526 0.07159 0.0
C3328 C 0.68314 0.76254 0.07309 0.0
C3329 C 0.69075 0.75415 0.06742 0.0
H3330 H 0.29771 0.94591 0.0225 0.0
H3331 H 0.29673 0.99043 0.01977 0.0
H3332 H 0.2725 0.97878 0.03651 0.0
H3333 H 0.25342 0.9182 0.0232 0.0
H3334 H 0.25554 0.90529 0.0374 0.0
H3335 H 0.27096 0.91613 0.02288 0.0
H3336 H 0.29184 0.92857 0.04633 0.0
H3337 H 0.27651 0.91793 0.06089 0.0
H3338 H 0.28872 0.93946 0.06254 0.0
H3339 H 0.25113 0.96383 0.05716 0.0
H3340 H 0.23381 0.94643 0.07883 0.0
H3341 H 0.24883 0.9118 0.0678 0.0
C3342 C 0.29213 0.95306 0.02497 0.0
C3343 C 0.29908 0.96906 0.01974 0.0
C3344 C 0.29155 0.9781 0.02351 0.0
C3345 C 0.27778 0.97158 0.03303 0.0
C3346 C 0.27161 0.95596 0.03853 0.0
C3347 C 0.27845 0.94676 0.03445 0.0
C3348 C 0.27053 0.93092 0.0431 0.0
C3349 C 0.26211 0.9168 0.03092 0.0
C3350 C 0.28262 0.92913 0.05385 0.0
C3351 C 0.25858 0.93288 0.05319 0.0
C3352 C 0.25921 0.9473 0.05027 0.0
C3353 C 0.25022 0.95231 0.05921 0.0
C3354 C 0.24041 0.94236 0.07148 0.0
C3355 C 0.23961 0.92754 0.07464 0.0
C3356 C 0.2488 0.9228 0.06528 0.0
H3357 H 0.3241 0.03444 0.98245 0.0
H3358 H 0.37284 0.07232 0.99221 0.0
H3359 H 0.36653 0.09212 0.98088 0.0
H3360 H 0.3198 0.04888 0.94451 0.0
H3361 H 0.29923 0.04346 0.94722 0.0
H3362 H 0.3071 0.03227 0.95714 0.0
H3363 H 0.29838 0.03786 0.98499 0.0
H3364 H 0.29034 0.04894 0.97514 0.0
H3365 H 0.30492 0.05826 0.99131 0.0
H3366 H 0.35534 0.10771 0.96784 0.0
H3367 H 0.33985 0.11816 0.95386 0.0
H3368 H 0.29851 0.07025 0.9518 0.0
C3369 C 0.33336 0.04694 0.98243 0.0
C3370 C 0.34895 0.05185 0.98829 0.0
C3371 C 0.36081 0.06828 0.98782 0.0
C3372 C 0.35735 0.07963 0.98141 0.0
C3373 C 0.34198 0.07437 0.97547 0.0
C3374 C 0.33014 0.05844 0.97595 0.0
C3375 C 0.31477 0.05593 0.96819 0.0
C3376 C 0.30995 0.04446 0.95339 0.0
C3377 C 0.30131 0.04989 0.98065 0.0
C3378 C 0.31988 0.0729 0.96317 0.0
C3379 C 0.3356 0.08335 0.96757 0.0
C3380 C 0.34304 0.09965 0.96426 0.0
C3381 C 0.33419 0.10545 0.95624 0.0
C3382 C 0.3181 0.09495 0.95139 0.0
C3383 C 0.31086 0.07849 0.95508 0.0
H3384 H 0.95775 0.30403 0.96962 0.0
H3385 H 0.98934 0.29742 0.00205 0.0
H3386 H 0.98059 0.27083 0.98958 0.0
H3387 H 0.92495 0.26289 0.96739 0.0
H3388 H 0.9208 0.26469 0.94642 0.0
H3389 H 0.9292 0.28207 0.95979 0.0
H3390 H 0.95254 0.29706 0.94017 0.0
H3391 H 0.94452 0.27977 0.92676 0.0
H3392 H 0.96467 0.28841 0.93458 0.0
H3393 H 0.97297 0.2434 0.97183 0.0
H3394 H 0.95853 0.21727 0.94805 0.0
H3395 H 0.92884 0.24479 0.92421 0.0
C3396 C 0.96256 0.29678 0.97416 0.0
C3397 C 0.97413 0.30268 0.98682 0.0
C3398 C 0.98044 0.29311 0.99239 0.0
C3399 C 0.97553 0.27799 0.9854 0.0
C3400 C 0.96434 0.27252 0.97278 0.0
C3401 C 0.95775 0.28171 0.96693 0.0
C3402 C 0.94616 0.27452 0.95222 0.0
C3403 C 0.92928 0.27083 0.95672 0.0
C3404 C 0.95235 0.2856 0.93758 0.0
C3405 C 0.94633 0.25929 0.94875 0.0
C3406 C 0.95868 0.25794 0.96336 0.0
C3407 C 0.96444 0.24293 0.96298 0.0
C3408 C 0.95638 0.22727 0.94765 0.0
C3409 C 0.93976 0.22661 0.9353 0.0
C3410 C 0.93736 0.24464 0.93266 0.0
H3411 H 0.7124 0.65104 0.99097 0.0
H3412 H 0.70378 0.68956 0.00566 0.0
H3413 H 0.72952 0.70931 0.99387 0.0
H3414 H 0.75551 0.6729 0.99851 0.0
H3415 H 0.75944 0.66386 0.98115 0.0
H3416 H 0.74082 0.65299 0.99163 0.0
H3417 H 0.72539 0.64928 0.96461 0.0
H3418 H 0.74395 0.66028 0.95409 0.0
H3419 H 0.72933 0.66668 0.95318 0.0
H3420 H 0.75562 0.72469 0.9791 0.0
H3421 H 0.78052 0.73455 0.96353 0.0
H3422 H 0.77193 0.68588 0.95888 0.0
C3423 C 0.716 0.66364 0.99193 0.0
C3424 C 0.70609 0.66876 0.99927 0.0
C3425 C 0.71121 0.68536 1.00015 0.0
C3426 C 0.7258 0.69667 0.99346 0.0
C3427 C 0.73513 0.69117 0.98601 0.0
C3428 C 0.7305 0.67505 0.98535 0.0
C3429 C 0.74248 0.67219 0.97634 0.0
C3430 C 0.75001 0.66507 0.98758 0.0
C3431 C 0.73483 0.66148 0.96116 0.0
C3432 C 0.75449 0.68919 0.97184 0.0
C3433 C 0.75006 0.69998 0.97752 0.0
C3434 C 0.7592 0.71635 0.97461 0.0
C3435 C 0.77325 0.72182 0.96569 0.0
C3436 C 0.77795 0.71095 0.9597 0.0
C3437 C 0.76848 0.69444 0.96302 0.0
H3438 H 0.94228 0.6408 0.98629 0.0
H3439 H 0.97565 0.68789 0.00657 0.0
H3440 H 0.9599 0.69889 0.99414 0.0
H3441 H 0.93661 0.6543 0.94848 0.0
H3442 H 0.9157 0.63955 0.94663 0.0
H3443 H 0.92896 0.63513 0.958 0.0
H3444 H 0.91107 0.62885 0.98324 0.0
H3445 H 0.89767 0.63309 0.9719 0.0
H3446 H 0.9063 0.64361 0.99081 0.0
H3447 H 0.94066 0.70483 0.97893 0.0
H3448 H 0.9195 0.70514 0.96213 0.0
H3449 H 0.89945 0.65439 0.95122 0.0
C3450 C 0.94616 0.65338 0.98833 0.0
C3451 C 0.96014 0.66347 0.99749 0.0
C3452 C 0.96493 0.67992 0.99965 0.0
C3453 C 0.95608 0.68628 0.99263 0.0
C3454 C 0.9425 0.67606 0.98344 0.0
C3455 C 0.93755 0.65995 0.98132 0.0
C3456 C 0.92286 0.65162 0.97045 0.0
C3457 C 0.92624 0.64475 0.95498 0.0
C3458 C 0.90863 0.63852 0.97965 0.0
C3459 C 0.92037 0.66557 0.9667 0.0
C3460 C 0.93176 0.67956 0.97435 0.0
C3461 C 0.93175 0.69397 0.97278 0.0
C3462 C 0.91977 0.69407 0.96315 0.0
C3463 C 0.90812 0.67988 0.95501 0.0
C3464 C 0.90843 0.66548 0.95699 0.0
H3465 H 0.35349 0.31453 0.96876 0.0
H3466 H 0.31643 0.30831 0.00225 0.0
H3467 H 0.29887 0.281 0.991 0.0
H3468 H 0.32737 0.2952 0.93519 0.0
H3469 H 0.33842 0.28611 0.92732 0.0
H3470 H 0.34858 0.3046 0.93892 0.0
H3471 H 0.35944 0.29155 0.95881 0.0
H3472 H 0.34929 0.273 0.94725 0.0
H3473 H 0.34566 0.27323 0.96864 0.0
H3474 H 0.28496 0.25482 0.97542 0.0
H3475 H 0.27535 0.23194 0.95598 0.0
H3476 H 0.321 0.25565 0.93186 0.0
C3477 C 0.34177 0.30731 0.9739 0.0
C3478 C 0.33637 0.31346 0.98649 0.0
C3479 C 0.32083 0.3038 0.99265 0.0
C3480 C 0.31079 0.28827 0.98636 0.0
C3481 C 0.31641 0.28262 0.97384 0.0
C3482 C 0.3315 0.29186 0.96761 0.0
C3483 C 0.33426 0.28333 0.95346 0.0
C3484 C 0.33733 0.29288 0.9378 0.0
C3485 C 0.34797 0.28008 0.95727 0.0
C3486 C 0.31833 0.26788 0.95266 0.0
C3487 C 0.30826 0.26765 0.96462 0.0
C3488 C 0.29279 0.2548 0.96611 0.0
C3489 C 0.28745 0.24186 0.95506 0.0
C3490 C 0.29753 0.24183 0.94266 0.0
C3491 C 0.31314 0.25512 0.94144 0.0
H3492 H 0.70417 0.06128 0.99702 0.0
H3493 H 0.70564 0.01707 1.00079 0.0
H3494 H 0.733 0.03068 0.98997 0.0
H3495 H 0.72411 0.07337 0.95989 0.0
H3496 H 0.73498 0.09446 0.96515 0.0
H3497 H 0.716 0.08161 0.97427 0.0
H3498 H 0.72894 0.09045 0.00293 0.0
H3499 H 0.74795 0.10349 0.9939 0.0
H3500 H 0.74608 0.08854 0.00804 0.0
H3501 H 0.75977 0.04887 0.97729 0.0
H3502 H 0.78413 0.07054 0.96481 0.0
H3503 H 0.7649 0.1026 0.96943 0.0
C3504 C 0.71032 0.05451 0.99582 0.0
C3505 C 0.70277 0.03811 0.9998 0.0
C3506 C 0.7112 0.02966 0.99789 0.0
C3507 C 0.72674 0.03727 0.99172 0.0
C3508 C 0.73369 0.05336 0.98759 0.0
C3509 C 0.7258 0.06191 0.98969 0.0
C3510 C 0.73572 0.07894 0.98391 0.0
C3511 C 0.72719 0.08228 0.96998 0.0
C3512 C 0.73992 0.09107 0.99804 0.0
C3513 C 0.75034 0.07859 0.97801 0.0
C3514 C 0.74899 0.06375 0.98026 0.0
C3515 C 0.76096 0.06054 0.97551 0.0
C3516 C 0.77469 0.07286 0.96837 0.0
C3517 C 0.77628 0.08814 0.96595 0.0
C3518 C 0.76393 0.09098 0.97095 0.0
H3519 H 0.6385 0.93764 0.02925 0.0
H3520 H 0.68526 0.97874 0.02073 0.0
H3521 H 0.69792 0.96468 0.03351 0.0
H3522 H 0.64735 0.92913 0.06804 0.0
H3523 H 0.63557 0.90764 0.06552 0.0
H3524 H 0.63022 0.92034 0.05453 0.0
H3525 H 0.63153 0.90718 0.02735 0.0
H3526 H 0.63671 0.8943 0.03828 0.0
H3527 H 0.64945 0.90671 0.02243 0.0
H3528 H 0.70541 0.94636 0.04834 0.0
H3529 H 0.70697 0.92518 0.06363 0.0
H3530 H 0.65528 0.89663 0.06289 0.0
C3531 C 0.65141 0.94359 0.0298 0.0
C3532 C 0.66089 0.95926 0.02389 0.0
C3533 C 0.67775 0.96671 0.0251 0.0
C3534 C 0.68505 0.95883 0.03236 0.0
C3535 C 0.67533 0.94351 0.03837 0.0
C3536 C 0.65888 0.93595 0.03708 0.0
C3537 C 0.65109 0.91976 0.04506 0.0
C3538 C 0.64043 0.9192 0.05912 0.0
C3539 C 0.64164 0.90619 0.03253 0.0
C3540 C 0.66571 0.91945 0.05121 0.0
C3541 C 0.6796 0.9332 0.04717 0.0
C3542 C 0.69459 0.93557 0.05161 0.0
C3543 C 0.69537 0.92355 0.06037 0.0
C3544 C 0.68124 0.90946 0.0648 0.0
C3545 C 0.66627 0.90742 0.05997 0.0
H3546 H 0.05389 0.71537 0.0448 0.0
H3547 H 0.01431 0.71436 0.01862 0.0
H3548 H 0.02259 0.74168 0.02909 0.0
H3549 H 0.05021 0.73373 0.08003 0.0
H3550 H 0.07134 0.74558 0.08425 0.0
H3551 H 0.0635 0.72688 0.07312 0.0
H3552 H 0.08271 0.74149 0.04953 0.0
H3553 H 0.09066 0.76026 0.06064 0.0
H3554 H 0.08265 0.75839 0.04043 0.0
H3555 H 0.03434 0.76851 0.04386 0.0
H3556 H 0.04807 0.79221 0.06237 0.0
H3557 H 0.07877 0.77451 0.07983 0.0
C3558 C 0.04716 0.72102 0.04098 0.0
C3559 C 0.03356 0.71283 0.03077 0.0
C3560 C 0.02484 0.72048 0.02636 0.0
C3561 C 0.02947 0.736 0.03222 0.0
C3562 C 0.04279 0.74364 0.04251 0.0
C3563 C 0.05149 0.73638 0.04687 0.0
C3564 C 0.06455 0.74657 0.05907 0.0
C3565 C 0.06225 0.73766 0.07506 0.0
C3566 C 0.08112 0.752 0.05199 0.0
C3567 C 0.06164 0.76054 0.06117 0.0
C3568 C 0.04923 0.7588 0.05134 0.0
C3569 C 0.04419 0.77008 0.05149 0.0
C3570 C 0.05203 0.78348 0.062 0.0
C3571 C 0.06468 0.78541 0.0723 0.0
C3572 C 0.06941 0.77366 0.07187 0.0
H3573 H 0.29611 0.32287 0.02915 0.0
H3574 H 0.29765 0.36872 0.02833 0.0
H3575 H 0.27054 0.35613 0.03969 0.0
H3576 H 0.25318 0.29724 0.0199 0.0
H3577 H 0.2511 0.28196 0.03368 0.0
H3578 H 0.26983 0.29415 0.02376 0.0
H3579 H 0.28437 0.30252 0.05172 0.0
H3580 H 0.26571 0.2904 0.06171 0.0
H3581 H 0.2777 0.31142 0.06694 0.0
H3582 H 0.2439 0.3389 0.05241 0.0
H3583 H 0.22034 0.3187 0.06702 0.0
H3584 H 0.23695 0.28449 0.06053 0.0
C3585 C 0.2906 0.33018 0.03106 0.0
C3586 C 0.29889 0.34673 0.02772 0.0
C3587 C 0.29147 0.356 0.03074 0.0
C3588 C 0.27606 0.34894 0.03714 0.0
C3589 C 0.26829 0.33264 0.04053 0.0
C3590 C 0.27532 0.32338 0.03765 0.0
C3591 C 0.26496 0.30646 0.04357 0.0
C3592 C 0.25944 0.29423 0.02938 0.0
C3593 C 0.27371 0.30247 0.05677 0.0
C3594 C 0.25115 0.30773 0.05051 0.0
C3595 C 0.25318 0.32285 0.0484 0.0
C3596 C 0.24217 0.327 0.0541 0.0
C3597 C 0.22885 0.31546 0.06241 0.0
C3598 C 0.22671 0.3 0.06523 0.0
C3599 C 0.23799 0.29609 0.05887 0.0
H3600 H 0.6976 0.65429 0.36023 0.0
H3601 H 0.72703 0.70464 0.37346 0.0
H3602 H 0.74251 0.69809 0.39245 0.0
H3603 H 0.69377 0.63788 0.3979 0.0
H3604 H 0.69442 0.62041 0.39076 0.0
H3605 H 0.68731 0.63028 0.37751 0.0
H3606 H 0.70821 0.63395 0.35617 0.0
H3607 H 0.71531 0.6238 0.3691 0.0
H3608 H 0.72903 0.6436 0.36197 0.0
H3609 H 0.75472 0.68865 0.41731 0.0
H3610 H 0.76262 0.66933 0.43797 0.0
H3611 H 0.72226 0.61972 0.40388 0.0
C3612 C 0.7075 0.66386 0.36698 0.0
C3613 C 0.71109 0.67994 0.36542 0.0
C3614 C 0.72406 0.69223 0.3744 0.0
C3615 C 0.73292 0.68865 0.38527 0.0
C3616 C 0.72892 0.67274 0.38695 0.0
C3617 C 0.71648 0.66019 0.3778 0.0
C3618 C 0.71328 0.64307 0.38125 0.0
C3619 C 0.69619 0.63228 0.3872 0.0
C3620 C 0.71666 0.63567 0.36623 0.0
C3621 C 0.72514 0.64601 0.39453 0.0
C3622 C 0.73584 0.66665 0.39826 0.0
C3623 C 0.74933 0.67588 0.41505 0.0
C3624 C 0.75357 0.66391 0.4285 0.0
C3625 C 0.74553 0.64269 0.42114 0.0
C3626 C 0.72804 0.63242 0.40679 0.0
H3627 H 0.34201 0.03298 0.37636 0.0
H3628 H 0.29751 0.00942 0.40248 0.0
H3629 H 0.306 0.03387 0.41906 0.0
H3630 H 0.36807 0.05533 0.40911 0.0
H3631 H 0.38053 0.07229 0.39676 0.0
H3632 H 0.36987 0.05243 0.38775 0.0
H3633 H 0.35666 0.06206 0.36692 0.0
H3634 H 0.36713 0.08201 0.37575 0.0
H3635 H 0.34565 0.07153 0.37388 0.0
H3636 H 0.31769 0.0613 0.43802 0.0
H3637 H 0.33673 0.0944 0.4492 0.0
H3638 H 0.37775 0.10148 0.40538 0.0
C3639 C 0.33417 0.0331 0.38562 0.0
C3640 C 0.31914 0.01935 0.38817 0.0
C3641 C 0.30907 0.01981 0.40028 0.0
C3642 C 0.31378 0.03363 0.4098 0.0
C3643 C 0.32857 0.04702 0.40707 0.0
C3644 C 0.33892 0.04709 0.39506 0.0
C3645 C 0.35489 0.06299 0.39334 0.0
C3646 C 0.36918 0.06061 0.39696 0.0
C3647 C 0.35615 0.07006 0.37648 0.0
C3648 C 0.3537 0.07357 0.40611 0.0
C3649 C 0.33536 0.06226 0.41542 0.0
C3650 C 0.32891 0.06925 0.43234 0.0
C3651 C 0.341 0.08946 0.43992 0.0
C3652 C 0.3581 0.10241 0.42654 0.0
C3653 C 0.36714 0.09396 0.4122 0.0
H3654 H 0.96641 0.27405 0.36611 0.0
H3655 H 0.96616 0.3166 0.34963 0.0
H3656 H 0.93829 0.30519 0.35849 0.0
H3657 H 0.92512 0.24528 0.3546 0.0
H3658 H 0.92192 0.23318 0.37218 0.0
H3659 H 0.9416 0.24436 0.36382 0.0
H3660 H 0.95265 0.25817 0.39185 0.0
H3661 H 0.93298 0.24716 0.40025 0.0
H3662 H 0.94391 0.26877 0.40167 0.0
H3663 H 0.91094 0.28978 0.37004 0.0
H3664 H 0.88537 0.27082 0.3826 0.0
H3665 H 0.90314 0.23813 0.39157 0.0
C3666 C 0.96043 0.28088 0.36415 0.0
C3667 C 0.96847 0.29622 0.35711 0.0
C3668 C 0.96025 0.30482 0.35494 0.0
C3669 C 0.94442 0.29845 0.35996 0.0
C3670 C 0.93696 0.28346 0.36712 0.0
C3671 C 0.94462 0.27471 0.36912 0.0
C3672 C 0.93395 0.25901 0.37746 0.0
C3673 C 0.93044 0.24461 0.36635 0.0
C3674 C 0.94132 0.25824 0.39377 0.0
C3675 C 0.91913 0.26036 0.37994 0.0
C3676 C 0.92115 0.27457 0.37389 0.0
C3677 C 0.90922 0.27863 0.37484 0.0
C3678 C 0.89479 0.26783 0.38207 0.0
C3679 C 0.89239 0.25318 0.3884 0.0
C3680 C 0.90473 0.24938 0.38715 0.0
H3681 H 0.03702 0.39534 0.32364 0.0
H3682 H 0.98861 0.35493 0.32281 0.0
H3683 H 0.97993 0.37036 0.30601 0.0
H3684 H 0.02633 0.42726 0.32457 0.0
H3685 H 0.04259 0.43993 0.31158 0.0
H3686 H 0.04451 0.42633 0.32498 0.0
H3687 H 0.05128 0.41369 0.30049 0.0
H3688 H 0.0493 0.42716 0.28703 0.0
H3689 H 0.03761 0.4058 0.28341 0.0
H3690 H 0.97729 0.38913 0.28672 0.0
H3691 H 0.9807 0.41008 0.2675 0.0
H3692 H 0.03071 0.43822 0.28143 0.0
C3693 C 0.02452 0.38982 0.32022 0.0
C3694 C 0.01348 0.37394 0.32459 0.0
C3695 C 0.99727 0.36712 0.31969 0.0
C3696 C 0.99223 0.37579 0.31014 0.0
C3697 C 0.00352 0.3913 0.30572 0.0
C3698 C 0.0193 0.3983 0.31074 0.0
C3699 C 0.02928 0.41474 0.30358 0.0
C3700 C 0.03607 0.42784 0.31698 0.0
C3701 C 0.04265 0.41537 0.293 0.0
C3702 C 0.01675 0.41575 0.29342 0.0
C3703 C 0.00193 0.40218 0.29488 0.0
C3704 C 0.98875 0.39997 0.28578 0.0
C3705 C 0.99078 0.41194 0.27493 0.0
C3706 C 0.00586 0.42601 0.27336 0.0
C3707 C 0.01895 0.42783 0.28276 0.0
H3708 H 0.61787 0.635 0.30144 0.0
H3709 H 0.64894 0.62765 0.33387 0.0
H3710 H 0.63892 0.6005 0.32204 0.0
H3711 H 0.58396 0.59463 0.29982 0.0
H3712 H 0.57995 0.59634 0.27879 0.0
H3713 H 0.58905 0.61393 0.29186 0.0
H3714 H 0.61248 0.62774 0.27211 0.0
H3715 H 0.60375 0.61022 0.25899 0.0
H3716 H 0.62382 0.61815 0.26678 0.0
H3717 H 0.62968 0.57222 0.30495 0.0
H3718 H 0.61439 0.54594 0.28143 0.0
H3719 H 0.58686 0.57532 0.25686 0.0
C3720 C 0.6223 0.62748 0.30614 0.0
C3721 C 0.63402 0.63326 0.31865 0.0
C3722 C 0.6399 0.62338 0.32435 0.0
C3723 C 0.63425 0.60795 0.31773 0.0
C3724 C 0.62284 0.60256 0.30528 0.0
C3725 C 0.61684 0.61217 0.29921 0.0
C3726 C 0.60515 0.60518 0.28456 0.0
C3727 C 0.58855 0.60236 0.28902 0.0
C3728 C 0.6117 0.61596 0.26974 0.0
C3729 C 0.60451 0.58952 0.2814 0.0
C3730 C 0.61646 0.58769 0.29617 0.0
C3731 C 0.62134 0.57204 0.29605 0.0
C3732 C 0.61277 0.55627 0.28087 0.0
C3733 C 0.59657 0.55628 0.26835 0.0
C3734 C 0.59512 0.57482 0.26542 0.0
H3735 H 0.36668 0.99946 0.32278 0.0
H3736 H 0.34504 0.94813 0.31384 0.0
H3737 H 0.36898 0.95254 0.29915 0.0
H3738 H 0.38534 0.01127 0.28373 0.0
H3739 H 0.40309 0.02863 0.29161 0.0
H3740 H 0.38436 0.02155 0.30176 0.0
H3741 H 0.39723 0.01935 0.32855 0.0
H3742 H 0.41601 0.02647 0.31848 0.0
H3743 H 0.40708 0.00762 0.3288 0.0
H3744 H 0.39538 0.9622 0.28628 0.0
H3745 H 0.42239 0.97674 0.2749 0.0
H3746 H 0.42673 0.02199 0.29079 0.0
C3747 C 0.36702 0.98916 0.31778 0.0
C3748 C 0.354 0.97344 0.3195 0.0
C3749 C 0.35485 0.96029 0.31266 0.0
C3750 C 0.3684 0.96266 0.3043 0.0
C3751 C 0.38099 0.97827 0.30276 0.0
C3752 C 0.38043 0.99132 0.30921 0.0
C3753 C 0.39556 0.00686 0.30555 0.0
C3754 C 0.39186 0.01771 0.29503 0.0
C3755 C 0.4045 0.01558 0.32128 0.0
C3756 C 0.40469 0.00045 0.29611 0.0
C3757 C 0.39607 0.98392 0.29473 0.0
C3758 C 0.40217 0.97517 0.28705 0.0
C3759 C 0.41749 0.98355 0.28054 0.0
C3760 C 0.42646 0.00055 0.28147 0.0
C3761 C 0.41996 0.00904 0.28951 0.0
H3762 H 0.60727 0.95841 0.31985 0.0
H3763 H 0.64678 0.00623 0.33053 0.0
H3764 H 0.63321 0.01781 0.31482 0.0
H3765 H 0.60219 0.96489 0.27992 0.0
H3766 H 0.58073 0.95271 0.27949 0.0
H3767 H 0.59229 0.94841 0.29359 0.0
H3768 H 0.57626 0.9508 0.31751 0.0
H3769 H 0.56455 0.95503 0.30344 0.0
H3770 H 0.57501 0.96879 0.32007 0.0
H3771 H 0.61688 0.02383 0.29498 0.0
H3772 H 0.59898 0.02371 0.27328 0.0
H3773 H 0.57047 0.97193 0.27575 0.0
C3774 C 0.6129 0.97135 0.31928 0.0
C3775 C 0.62805 0.98142 0.32651 0.0
C3776 C 0.63513 0.99828 0.32519 0.0
C3777 C 0.6275 0.00496 0.3163 0.0
C3778 C 0.61277 0.99463 0.3089 0.0
C3779 C 0.6055 0.97818 0.31043 0.0
C3780 C 0.59038 0.96957 0.30022 0.0
C3781 C 0.59148 0.95824 0.28756 0.0
C3782 C 0.57568 0.96052 0.31095 0.0
C3783 C 0.5905 0.9837 0.29229 0.0
C3784 C 0.60338 0.99808 0.29757 0.0
C3785 C 0.60655 0.01266 0.29104 0.0
C3786 C 0.59633 0.0125 0.27876 0.0
C3787 C 0.5831 0.99785 0.27317 0.0
C3788 C 0.5802 0.98333 0.28012 0.0
H3789 H 0.99922 0.63847 0.32135 0.0
H3790 H 0.05016 0.65564 0.32317 0.0
H3791 H 0.04539 0.62999 0.31112 0.0
H3792 H 0.98621 0.59769 0.33131 0.0
H3793 H 0.96924 0.58927 0.3176 0.0
H3794 H 0.97664 0.60908 0.32623 0.0
H3795 H 0.9798 0.62051 0.29738 0.0
H3796 H 0.97247 0.60073 0.28866 0.0
H3797 H 0.99159 0.61701 0.28276 0.0
H3798 H 0.03518 0.60233 0.2996 0.0
H3799 H 0.02006 0.57421 0.28967 0.0
H3800 H 0.97584 0.57525 0.29405 0.0
C3801 C 0.00936 0.63681 0.31925 0.0
C3802 C 0.02507 0.64906 0.32327 0.0
C3803 C 0.03802 0.64645 0.32021 0.0
C3804 C 0.03544 0.63192 0.31333 0.0
C3805 C 0.01985 0.62014 0.30944 0.0
C3806 C 0.00701 0.62241 0.31223 0.0
C3807 C 0.99145 0.60773 0.30693 0.0
C3808 C 0.98023 0.60052 0.32138 0.0
C3809 C 0.98336 0.61174 0.29311 0.0
C3810 C 0.99755 0.59679 0.301 0.0
C3811 C 0.01396 0.60421 0.30253 0.0
C3812 C 0.02231 0.59639 0.29832 0.0
C3813 C 0.01363 0.58043 0.2927 0.0
C3814 C 0.99675 0.57241 0.29136 0.0
C3815 C 0.98869 0.58092 0.29517 0.0
H3816 H 0.36837 0.36469 0.32115 0.0
H3817 H 0.36373 0.40639 0.33239 0.0
H3818 H 0.3906 0.42401 0.32157 0.0
H3819 H 0.41076 0.38287 0.33042 0.0
H3820 H 0.41441 0.37282 0.31377 0.0
H3821 H 0.39513 0.36353 0.32318 0.0
H3822 H 0.38168 0.36118 0.29521 0.0
H3823 H 0.40092 0.37053 0.28575 0.0
H3824 H 0.38802 0.37892 0.2834 0.0
H3825 H 0.41772 0.43709 0.30911 0.0
H3826 H 0.44341 0.44475 0.29601 0.0
H3827 H 0.42986 0.39448 0.29154 0.0
C3828 C 0.37311 0.37755 0.32153 0.0
C3829 C 0.36402 0.38419 0.32773 0.0
C3830 C 0.3705 0.40105 0.32774 0.0
C3831 C 0.38575 0.41115 0.32162 0.0
C3832 C 0.39432 0.40422 0.31539 0.0
C3833 C 0.38824 0.38781 0.31526 0.0
C3834 C 0.3997 0.38342 0.30732 0.0
C3835 C 0.40533 0.37517 0.3194 0.0
C3836 C 0.39212 0.37289 0.29201 0.0
C3837 C 0.41317 0.39992 0.30307 0.0
C3838 C 0.40985 0.41175 0.3079 0.0
C3839 C 0.4205 0.42793 0.30537 0.0
C3840 C 0.43506 0.43217 0.29793 0.0
C3841 C 0.43889 0.4203 0.29314 0.0
C3842 C 0.42755 0.40392 0.29542 0.0
H3843 H 0.30674 0.28027 0.3615 0.0
H3844 H 0.35232 0.3242 0.35768 0.0
H3845 H 0.36595 0.31054 0.36928 0.0
H3846 H 0.31457 0.26817 0.39922 0.0
H3847 H 0.30427 0.24709 0.39392 0.0
H3848 H 0.29823 0.26013 0.38474 0.0
H3849 H 0.30214 0.25119 0.35612 0.0
H3850 H 0.30803 0.23799 0.36522 0.0
H3851 H 0.32105 0.25288 0.35116 0.0
H3852 H 0.37443 0.29204 0.38224 0.0
H3853 H 0.37705 0.26997 0.39426 0.0
H3854 H 0.32587 0.23846 0.38935 0.0
C3855 C 0.31961 0.28701 0.36294 0.0
C3856 C 0.32847 0.30331 0.35865 0.0
C3857 C 0.34529 0.31168 0.36081 0.0
C3858 C 0.35313 0.30404 0.36744 0.0
C3859 C 0.34398 0.28801 0.37178 0.0
C3860 C 0.3276 0.27958 0.36949 0.0
C3861 C 0.32045 0.26253 0.37525 0.0
C3862 C 0.30869 0.2593 0.38911 0.0
C3863 C 0.31245 0.25043 0.36109 0.0
C3864 C 0.33534 0.26267 0.38127 0.0
C3865 C 0.34881 0.27747 0.3792 0.0
C3866 C 0.36395 0.28042 0.38392 0.0
C3867 C 0.36532 0.26787 0.3908 0.0
C3868 C 0.35164 0.25261 0.39297 0.0
C3869 C 0.33651 0.25006 0.38807 0.0
H3870 H 0.68628 0.0247 0.36703 0.0
H3871 H 0.7302 0.02453 0.35687 0.0
H3872 H 0.74584 0.05278 0.36634 0.0
H3873 H 0.70015 0.06664 0.35641 0.0
H3874 H 0.68963 0.06961 0.37286 0.0
H3875 H 0.68189 0.04998 0.36359 0.0
H3876 H 0.68168 0.0382 0.39172 0.0
H3877 H 0.68945 0.05777 0.40104 0.0
H3878 H 0.69985 0.04675 0.40371 0.0
H3879 H 0.75669 0.08054 0.37809 0.0
H3880 H 0.76204 0.10538 0.3927 0.0
H3881 H 0.7109 0.08678 0.39628 0.0
C3882 C 0.69918 0.03072 0.36649 0.0
C3883 C 0.70705 0.02251 0.36107 0.0
C3884 C 0.72395 0.03064 0.36093 0.0
C3885 C 0.73293 0.0467 0.36622 0.0
C3886 C 0.72482 0.05439 0.37173 0.0
C3887 C 0.70833 0.04667 0.37197 0.0
C3888 C 0.70259 0.05725 0.37968 0.0
C3889 C 0.693 0.0611 0.3674 0.0
C3890 C 0.69282 0.04953 0.39494 0.0
C3891 C 0.71843 0.07203 0.38396 0.0
C3892 C 0.73109 0.07021 0.37906 0.0
C3893 C 0.74686 0.08211 0.38196 0.0
C3894 C 0.74978 0.09615 0.39028 0.0
C3895 C 0.73703 0.09817 0.39588 0.0
C3896 C 0.72111 0.0859 0.39239 0.0
H3897 H 0.96506 0.69201 0.36667 0.0
H3898 H 0.96943 0.6496 0.35923 0.0
H3899 H 0.94214 0.63276 0.36971 0.0
H3900 H 0.94363 0.6802 0.40365 0.0
H3901 H 0.93114 0.68864 0.39887 0.0
H3902 H 0.95087 0.69724 0.3906 0.0
H3903 H 0.93908 0.6934 0.36148 0.0
H3904 H 0.91933 0.68493 0.36968 0.0
H3905 H 0.92361 0.67378 0.35473 0.0
H3906 H 0.91441 0.62069 0.38174 0.0
H3907 H 0.8881 0.61432 0.39272 0.0
H3908 H 0.90218 0.66473 0.39167 0.0
C3909 C 0.96029 0.67917 0.36716 0.0
C3910 C 0.96939 0.67212 0.36214 0.0
C3911 C 0.96266 0.65527 0.36296 0.0
C3912 C 0.9472 0.64561 0.36895 0.0
C3913 C 0.93863 0.65301 0.37399 0.0
C3914 C 0.94491 0.6694 0.37301 0.0
C3915 C 0.93328 0.67444 0.37904 0.0
C3916 C 0.94015 0.6858 0.39392 0.0
C3917 C 0.92854 0.68208 0.36542 0.0
C3918 C 0.91944 0.65834 0.38361 0.0
C3919 C 0.92275 0.64611 0.3807 0.0
C3920 C 0.91171 0.63018 0.38404 0.0
C3921 C 0.89684 0.62668 0.39031 0.0
C3922 C 0.89317 0.63904 0.39313 0.0
C3923 C 0.90469 0.65505 0.38976 0.0
H3924 H 0.37016 0.00403 0.70078 0.0
H3925 H 0.38883 0.05141 0.72266 0.0
H3926 H 0.40619 0.0465 0.74074 0.0
H3927 H 0.36808 0.98275 0.73566 0.0
H3928 H 0.37352 0.96953 0.72537 0.0
H3929 H 0.3636 0.97817 0.71435 0.0
H3930 H 0.38646 0.99007 0.69377 0.0
H3931 H 0.39656 0.98145 0.70453 0.0
H3932 H 0.40673 0.0027 0.70089 0.0
H3933 H 0.42222 0.03806 0.7627 0.0
H3934 H 0.43627 0.02106 0.77836 0.0
H3935 H 0.40483 0.97453 0.73694 0.0
C3936 C 0.378 0.01331 0.70937 0.0
C3937 C 0.37815 0.02807 0.71035 0.0
C3938 C 0.38853 0.04002 0.72165 0.0
C3939 C 0.39843 0.03735 0.732 0.0
C3940 C 0.39803 0.02273 0.73091 0.0
C3941 C 0.38804 0.0106 0.71967 0.0
C3942 C 0.38884 0.99494 0.71997 0.0
C3943 C 0.37255 0.9805 0.72408 0.0
C3944 C 0.39501 0.99213 0.70383 0.0
C3945 C 0.40069 0.9983 0.73336 0.0
C3946 C 0.40698 0.01765 0.74071 0.0
C3947 C 0.41957 0.02635 0.75822 0.0
C3948 C 0.42759 0.01555 0.76858 0.0
C3949 C 0.42433 0.99703 0.75738 0.0
C3950 C 0.40763 0.98599 0.7423 0.0
H3951 H 0.96998 0.3585 0.69696 0.0
H3952 H 0.0181 0.3659 0.69801 0.0
H3953 H 0.02692 0.39029 0.71524 0.0
H3954 H 0.98115 0.40141 0.69719 0.0
H3955 H 0.96468 0.39773 0.71003 0.0
H3956 H 0.9629 0.38234 0.69603 0.0
H3957 H 0.9555 0.36258 0.71976 0.0
H3958 H 0.95737 0.3779 0.73382 0.0
H3959 H 0.96886 0.36807 0.73704 0.0
H3960 H 0.02941 0.41173 0.73533 0.0
H3961 H 0.02563 0.42885 0.75548 0.0
H3962 H 0.97588 0.40712 0.74076 0.0
C3963 C 0.98247 0.36543 0.70048 0.0
C3964 C 0.99338 0.36034 0.69612 0.0
C3965 C 0.00957 0.36967 0.70111 0.0
C3966 C 0.01467 0.38352 0.7109 0.0
C3967 C 0.00345 0.38791 0.71539 0.0
C3968 C 0.98772 0.37921 0.71016 0.0
C3969 C 0.97769 0.38563 0.71756 0.0
C3970 C 0.97123 0.39217 0.70442 0.0
C3971 C 0.96406 0.37278 0.72764 0.0
C3972 C 0.99009 0.39901 0.72821 0.0
C3973 C 0.00493 0.40029 0.72672 0.0
C3974 C 0.01795 0.41109 0.7363 0.0
C3975 C 0.0157 0.42077 0.74768 0.0
C3976 C 0.00057 0.41961 0.74933 0.0
C3977 C 0.98768 0.40859 0.73941 0.0
H3978 H 0.62779 0.60874 0.69545 0.0
H3979 H 0.63413 0.65616 0.68795 0.0
H3980 H 0.60797 0.64761 0.70033 0.0
H3981 H 0.58518 0.58653 0.68678 0.0
H3982 H 0.58119 0.57185 0.70207 0.0
H3983 H 0.60029 0.58163 0.69233 0.0
H3984 H 0.6144 0.59085 0.72044 0.0
H3985 H 0.59533 0.58124 0.73026 0.0
H3986 H 0.60909 0.60227 0.73401 0.0
H3987 H 0.58147 0.63419 0.71403 0.0
H3988 H 0.55577 0.61638 0.7271 0.0
H3989 H 0.5664 0.57756 0.72551 0.0
C3990 C 0.62363 0.61729 0.69629 0.0
C3991 C 0.63303 0.63313 0.6907 0.0
C3992 C 0.62715 0.64396 0.6921 0.0
C3993 C 0.61232 0.63923 0.69915 0.0
C3994 C 0.60347 0.62362 0.70473 0.0
C3995 C 0.60882 0.61276 0.70328 0.0
C3996 C 0.59695 0.5967 0.71027 0.0
C3997 C 0.59052 0.58339 0.69707 0.0
C3998 C 0.60439 0.59253 0.72459 0.0
C3999 C 0.58411 0.60024 0.71592 0.0
C4000 C 0.58815 0.61586 0.71265 0.0
C4001 C 0.5782 0.62195 0.7167 0.0
C4002 C 0.56369 0.61179 0.72419 0.0
C4003 C 0.55925 0.59572 0.72766 0.0
C4004 C 0.56961 0.58988 0.72334 0.0
H4005 H 0.6531 0.69394 0.65521 0.0
H4006 H 0.70254 0.73147 0.6616 0.0
H4007 H 0.69597 0.75113 0.65033 0.0
H4008 H 0.647 0.7067 0.61735 0.0
H4009 H 0.62672 0.70183 0.62102 0.0
H4010 H 0.63482 0.69089 0.63103 0.0
H4011 H 0.62783 0.69815 0.65902 0.0
H4012 H 0.61954 0.70898 0.64909 0.0
H4013 H 0.63499 0.7189 0.66437 0.0
H4014 H 0.68445 0.76646 0.63726 0.0
H4015 H 0.66859 0.77652 0.6233 0.0
H4016 H 0.62677 0.729 0.62455 0.0
C4017 C 0.66247 0.70636 0.65455 0.0
C4018 C 0.67832 0.71121 0.6594 0.0
C4019 C 0.69031 0.7275 0.65802 0.0
C4020 C 0.6867 0.73876 0.65163 0.0
C4021 C 0.67105 0.73354 0.64662 0.0
C4022 C 0.65909 0.71775 0.64805 0.0
C4023 C 0.64344 0.71514 0.64098 0.0
C4024 C 0.63766 0.70292 0.62675 0.0
C4025 C 0.6307 0.70999 0.65415 0.0
C4026 C 0.64852 0.73188 0.63518 0.0
C4027 C 0.66447 0.74232 0.63866 0.0
C4028 C 0.67195 0.7584 0.63442 0.0
C4029 C 0.66289 0.76398 0.62641 0.0
C4030 C 0.64656 0.75345 0.6225 0.0
C4031 C 0.6393 0.73724 0.62712 0.0
H4032 H 0.28357 0.97366 0.64275 0.0
H4033 H 0.32703 0.97497 0.65894 0.0
H4034 H 0.31585 0.94669 0.64991 0.0
H4035 H 0.25676 0.93371 0.65568 0.0
H4036 H 0.24319 0.92885 0.63869 0.0
H4037 H 0.25488 0.94933 0.64586 0.0
H4038 H 0.26623 0.95798 0.61705 0.0
H4039 H 0.25462 0.93751 0.60982 0.0
H4040 H 0.27595 0.94836 0.60722 0.0
H4041 H 0.29982 0.91821 0.63926 0.0
H4042 H 0.27966 0.89126 0.62895 0.0
H4043 H 0.24636 0.90834 0.6206 0.0
C4044 C 0.29078 0.96804 0.64433 0.0
C4045 C 0.30622 0.97655 0.65148 0.0
C4046 C 0.31518 0.96869 0.65349 0.0
C4047 C 0.30895 0.95265 0.64836 0.0
C4048 C 0.2937 0.94462 0.64134 0.0
C4049 C 0.28469 0.95201 0.63943 0.0
C4050 C 0.2684 0.94054 0.63207 0.0
C4051 C 0.25502 0.93796 0.64378 0.0
C4052 C 0.26618 0.94646 0.61556 0.0
C4053 C 0.26965 0.92553 0.63013 0.0
C4054 C 0.28438 0.92817 0.63543 0.0
C4055 C 0.28828 0.91605 0.63498 0.0
C4056 C 0.2768 0.90081 0.62905 0.0
C4057 C 0.26159 0.89779 0.62361 0.0
C4058 C 0.25799 0.91035 0.62429 0.0
H4059 H 0.03401 0.33305 0.65108 0.0
H4060 H 0.02052 0.2827 0.65024 0.0
H4061 H 0.04696 0.28973 0.63958 0.0
H4062 H 0.05539 0.34278 0.61392 0.0
H4063 H 0.07073 0.36243 0.62074 0.0
H4064 H 0.05104 0.35365 0.62913 0.0
H4065 H 0.06302 0.35726 0.65811 0.0
H4066 H 0.08277 0.36614 0.64981 0.0
H4067 H 0.0757 0.34899 0.66267 0.0
H4068 H 0.07468 0.30203 0.62902 0.0
H4069 H 0.10183 0.31885 0.61849 0.0
H4070 H 0.09721 0.36119 0.62504 0.0
C4071 C 0.03669 0.32354 0.64881 0.0
C4072 C 0.02522 0.30733 0.65156 0.0
C4073 C 0.02911 0.2952 0.64823 0.0
C4074 C 0.04411 0.29906 0.64219 0.0
C4075 C 0.05507 0.31511 0.63944 0.0
C4076 C 0.05158 0.32717 0.64261 0.0
C4077 C 0.06537 0.3434 0.63806 0.0
C4078 C 0.06033 0.35101 0.62467 0.0
C4079 C 0.07211 0.35461 0.65306 0.0
C4080 C 0.07711 0.33855 0.63181 0.0
C4081 C 0.07094 0.32218 0.63282 0.0
C4082 C 0.07959 0.31484 0.62802 0.0
C4083 C 0.09496 0.32448 0.62197 0.0
C4084 C 0.10144 0.34126 0.62049 0.0
C4085 C 0.0924 0.34835 0.62568 0.0
H4086 H 0.28905 0.31227 0.63925 0.0
H4087 H 0.31613 0.34752 0.67712 0.0
H4088 H 0.30623 0.36503 0.66696 0.0
H4089 H 0.29735 0.34041 0.60845 0.0
H4090 H 0.27802 0.32937 0.59865 0.0
H4091 H 0.28591 0.31887 0.60982 0.0
H4092 H 0.26056 0.30592 0.62746 0.0
H4093 H 0.25257 0.31638 0.6163 0.0
H4094 H 0.25463 0.31859 0.63806 0.0
H4095 H 0.29458 0.37932 0.65191 0.0
H4096 H 0.2824 0.38967 0.63257 0.0
H4097 H 0.26382 0.34568 0.60383 0.0
C4098 C 0.29264 0.32354 0.64558 0.0
C4099 C 0.30322 0.32848 0.65908 0.0
C4100 C 0.30797 0.34348 0.66681 0.0
C4101 C 0.30239 0.35349 0.66115 0.0
C4102 C 0.29215 0.34838 0.64767 0.0
C4103 C 0.28735 0.33379 0.63995 0.0
C4104 C 0.27716 0.33166 0.62505 0.0
C4105 C 0.28509 0.32998 0.60958 0.0
C4106 C 0.26022 0.31728 0.62683 0.0
C4107 C 0.2771 0.34738 0.62555 0.0
C4108 C 0.28568 0.35678 0.63879 0.0
C4109 C 0.28768 0.37199 0.6416 0.0
C4110 C 0.28071 0.37776 0.63059 0.0
C4111 C 0.27185 0.36834 0.61694 0.0
C4112 C 0.27017 0.35299 0.61437 0.0
H4113 H 0.6567 0.97255 0.64408 0.0
H4114 H 0.70149 0.97279 0.64975 0.0
H4115 H 0.68854 0.94478 0.63949 0.0
H4116 H 0.63008 0.93051 0.65462 0.0
H4117 H 0.61531 0.92764 0.63947 0.0
H4118 H 0.62769 0.94717 0.64872 0.0
H4119 H 0.63684 0.95932 0.62029 0.0
H4120 H 0.62453 0.93984 0.61098 0.0
H4121 H 0.64558 0.951 0.60679 0.0
H4122 H 0.67106 0.91716 0.62775 0.0
H4123 H 0.65069 0.89238 0.61379 0.0
H4124 H 0.61766 0.91071 0.61477 0.0
C4125 C 0.6637 0.9666 0.64341 0.0
C4126 C 0.68007 0.97478 0.64783 0.0
C4127 C 0.68893 0.96672 0.64647 0.0
C4128 C 0.68167 0.9508 0.64071 0.0
C4129 C 0.66556 0.94314 0.63627 0.0
C4130 C 0.65669 0.95077 0.63748 0.0
C4131 C 0.63989 0.9402 0.63083 0.0
C4132 C 0.62751 0.93614 0.64421 0.0
C4133 C 0.63652 0.94806 0.61637 0.0
C4134 C 0.64079 0.92553 0.6255 0.0
C4135 C 0.65563 0.9274 0.62895 0.0
C4136 C 0.65939 0.91557 0.62496 0.0
C4137 C 0.64776 0.90156 0.61701 0.0
C4138 C 0.6326 0.89952 0.6128 0.0
C4139 C 0.62906 0.91166 0.61746 0.0
H4140 H 0.0269 0.69083 0.65823 0.0
H4141 H 0.0238 0.73379 0.66692 0.0
H4142 H 0.05045 0.75018 0.65511 0.0
H4143 H 0.07054 0.70931 0.66558 0.0
H4144 H 0.07267 0.69766 0.64949 0.0
H4145 H 0.05425 0.68956 0.66045 0.0
H4146 H 0.03867 0.68488 0.63337 0.0
H4147 H 0.05702 0.69309 0.62235 0.0
H4148 H 0.04414 0.70152 0.6201 0.0
H4149 H 0.07653 0.76169 0.64073 0.0
H4150 H 0.09984 0.76744 0.62413 0.0
H4151 H 0.08564 0.71682 0.62428 0.0
C4152 C 0.03201 0.70373 0.65801 0.0
C4153 C 0.02333 0.71106 0.66362 0.0
C4154 C 0.03025 0.72793 0.66276 0.0
C4155 C 0.0454 0.73735 0.65611 0.0
C4156 C 0.05349 0.72972 0.65034 0.0
C4157 C 0.04707 0.7133 0.65126 0.0
C4158 C 0.05771 0.70798 0.64306 0.0
C4159 C 0.06418 0.7007 0.65538 0.0
C4160 C 0.04885 0.69617 0.62888 0.0
C4161 C 0.07088 0.72391 0.63706 0.0
C4162 C 0.06831 0.73631 0.64156 0.0
C4163 C 0.07864 0.75205 0.63708 0.0
C4164 C 0.0918 0.75517 0.62753 0.0
C4165 C 0.09441 0.74258 0.62215 0.0
C4166 C 0.08397 0.7268 0.62755 0.0
H4167 H 0.96021 0.60747 0.69939 0.0
H4168 H 0.00802 0.64802 0.69418 0.0
H4169 H 0.01919 0.63257 0.70704 0.0
H4170 H 0.96623 0.59613 0.73811 0.0
H4171 H 0.954 0.57488 0.73408 0.0
H4172 H 0.94993 0.58878 0.72361 0.0
H4173 H 0.95233 0.57709 0.69591 0.0
H4174 H 0.95624 0.56304 0.7063 0.0
H4175 H 0.97015 0.57622 0.69159 0.0
H4176 H 0.02492 0.6126 0.72142 0.0
H4177 H 0.02463 0.58984 0.73548 0.0
H4178 H 0.97297 0.56299 0.73136 0.0
C4179 C 0.97305 0.61308 0.70075 0.0
C4180 C 0.98325 0.62895 0.69572 0.0
C4181 C 0.99998 0.63585 0.69787 0.0
C4182 C 0.00643 0.62718 0.70519 0.0
C4183 C 0.99598 0.61163 0.71027 0.0
C4184 C 0.97965 0.60465 0.70804 0.0
C4185 C 0.9709 0.58796 0.71486 0.0
C4186 C 0.95961 0.58689 0.72847 0.0
C4187 C 0.96188 0.57533 0.70136 0.0
C4188 C 0.98482 0.58665 0.72146 0.0
C4189 C 0.99922 0.60037 0.71867 0.0
C4190 C 0.0137 0.60184 0.72371 0.0
C4191 C 0.01343 0.58891 0.73176 0.0
C4192 C 0.99875 0.57482 0.73485 0.0
C4193 C 0.98434 0.57373 0.72946 0.0
H4194 H 0.38464 0.36329 0.72126 0.0
H4195 H 0.358 0.373 0.68503 0.0
H4196 H 0.36717 0.39968 0.69775 0.0
H4197 H 0.3745 0.37967 0.75386 0.0
H4198 H 0.39345 0.38782 0.76438 0.0
H4199 H 0.38675 0.37056 0.75113 0.0
H4200 H 0.41283 0.38543 0.73477 0.0
H4201 H 0.41965 0.40275 0.74803 0.0
H4202 H 0.41849 0.40474 0.72644 0.0
H4203 H 0.37746 0.42432 0.71566 0.0
H4204 H 0.3872 0.44456 0.73804 0.0
H4205 H 0.40611 0.41817 0.76313 0.0
C4206 C 0.38108 0.3712 0.71576 0.0
C4207 C 0.37079 0.36619 0.70205 0.0
C4208 C 0.36599 0.37668 0.69547 0.0
C4209 C 0.37117 0.39186 0.70258 0.0
C4210 C 0.38107 0.39632 0.7163 0.0
C4211 C 0.38596 0.38628 0.72284 0.0
C4212 C 0.39533 0.39326 0.7385 0.0
C4213 C 0.387 0.38217 0.75281 0.0
C4214 C 0.4126 0.39676 0.73683 0.0
C4215 C 0.39468 0.40863 0.73992 0.0
C4216 C 0.38662 0.4103 0.72688 0.0
C4217 C 0.38394 0.42322 0.72585 0.0
C4218 C 0.3895 0.43464 0.73858 0.0
C4219 C 0.3975 0.43297 0.75222 0.0
C4220 C 0.40021 0.41985 0.75276 0.0
H4221 H 0.64965 0.03537 0.70208 0.0
H4222 H 0.63899 0.99505 0.66989 0.0
H4223 H 0.61197 0.9799 0.68138 0.0
H4224 H 0.63091 0.01216 0.73615 0.0
H4225 H 0.62358 0.02492 0.74372 0.0
H4226 H 0.64135 0.03326 0.73174 0.0
H4227 H 0.62868 0.04429 0.71159 0.0
H4228 H 0.61085 0.036 0.72354 0.0
H4229 H 0.60955 0.03078 0.70228 0.0
H4230 H 0.5868 0.96858 0.69749 0.0
H4231 H 0.56555 0.96156 0.7176 0.0
H4232 H 0.59309 0.00884 0.74007 0.0
C4233 C 0.64151 0.02349 0.69721 0.0
C4234 C 0.64632 0.01644 0.68495 0.0
C4235 C 0.63549 0.0007 0.6792 0.0
C4236 C 0.62012 0.99203 0.68563 0.0
C4237 C 0.61582 0.99923 0.69788 0.0
C4238 C 0.62621 0.01458 0.70365 0.0
C4239 C 0.61912 0.01908 0.71774 0.0
C4240 C 0.62935 0.02255 0.73325 0.0
C4241 C 0.61692 0.03339 0.71353 0.0
C4242 C 0.60318 0.0038 0.7191 0.0
C4243 C 0.60144 0.99257 0.70741 0.0
C4244 C 0.58794 0.97735 0.70656 0.0
C4245 C 0.57593 0.97348 0.71799 0.0
C4246 C 0.57747 0.98477 0.73013 0.0
C4247 C 0.59136 1.0001 0.73068 0.0
loop_
_geom_bond_atom_site_label_1
_geom_bond_atom_site_label_2
_geom_bond_distance
_geom_bond_site_symmetry_2
_ccdc_geom_bond_type
O0 Cd1 2.223 . S
O0 C8 1.315 . S
Cd1 O0 2.223 . S
Cd1 O4 2.297 . S
Cd1 O5 2.439 . S
Cd1 O11 2.240 1_554 S
Cd2 O3 2.240 . S
Cd2 O10 2.223 1_554 S
Cd2 O12 2.297 1_554 S
Cd2 O13 2.439 1_554 S
O3 Cd2 2.240 . S
O3 C8 1.279 1_655 S
O4 Cd1 2.297 . S
O4 C6 1.247 . S
O5 Cd1 2.439 . S
O5 C6 1.208 . S
C6 O4 1.247 . S
C6 O5 1.208 . S
C7 O12 1.247 . S
C7 O13 1.208 . S
C8 O0 1.315 . S
C8 O3 1.279 1_455 S
C9 O10 1.315 1_455 S
C9 O11 1.279 . S
O10 Cd2 2.223 1_556 S
O10 C9 1.315 1_655 S
O11 Cd1 2.240 1_556 S
O11 C9 1.279 . S
O12 Cd2 2.297 1_556 S
O12 C7 1.247 . S
O13 Cd2 2.439 1_556 S
O13 C7 1.208 . S
O14 Cd15 2.223 . S
O14 C22 1.315 . S
Cd15 O14 2.223 . S
Cd15 O18 2.297 . S
Cd15 O19 2.439 . S
Cd15 O25 2.240 1_554 S
Cd16 O17 2.240 . S
Cd16 O24 2.223 1_554 S
Cd16 O26 2.297 1_554 S
Cd16 O27 2.455 . S
O17 Cd16 2.240 . S
O17 C22 1.279 . S
O18 Cd15 2.297 . S
O18 C20 1.247 . S
O19 Cd15 2.439 . S
O19 C20 1.208 . S
C20 O18 1.247 . S
C20 O19 1.208 . S
C21 O26 1.247 . S
C21 O27 1.178 1_556 S
C22 O14 1.315 . S
C22 O17 1.279 . S
C23 O24 1.315 . S
C23 O25 1.279 . S
O24 Cd16 2.223 1_556 S
O24 C23 1.315 . S
O25 Cd15 2.240 1_556 S
O25 C23 1.279 . S
O26 Cd16 2.297 1_556 S
O26 C21 1.247 . S
O27 Cd16 2.455 . S
O27 C21 1.178 1_554 S
O28 Cd29 2.223 1_556 S
O28 C36 1.315 . S
Cd29 O28 2.223 1_554 S
Cd29 O32 2.297 1_554 S
Cd29 O33 2.439 1_554 S
Cd29 O39 2.240 . S
Cd30 O31 2.240 1_554 S
Cd30 O38 2.223 . S
Cd30 O40 2.297 . S
Cd30 O41 2.439 . S
O31 Cd30 2.240 1_556 S
O31 C36 1.279 1_565 S
O32 Cd29 2.297 1_556 S
O32 C34 1.247 . S
O33 Cd29 2.439 1_556 S
O33 C34 1.208 . S
C34 O32 1.247 . S
C34 O33 1.208 . S
C35 O40 1.247 . S
C35 O41 1.208 . S
C36 O28 1.315 . S
C36 O31 1.279 1_545 S
C37 O38 1.315 1_545 S
C37 O39 1.279 . S
O38 Cd30 2.223 . S
O38 C37 1.315 1_565 S
O39 Cd29 2.240 . S
O39 C37 1.279 . S
O40 Cd30 2.297 . S
O40 C35 1.247 . S
O41 Cd30 2.439 . S
O41 C35 1.208 . S
O42 Cd43 2.223 1_556 S
O42 C50 1.346 . S
Cd43 O42 2.223 1_554 S
Cd43 O46 2.297 1_554 S
Cd43 O47 2.439 1_554 S
Cd43 O53 2.240 . S
Cd44 O45 2.240 1_554 S
Cd44 O52 2.223 . S
Cd44 O54 2.297 . S
Cd44 O55 2.439 . S
O45 Cd44 2.240 1_556 S
O45 C50 1.280 1_455 S
O46 Cd43 2.297 1_556 S
O46 C48 1.247 . S
O47 Cd43 2.439 1_556 S
O47 C48 1.208 . S
C48 O46 1.247 . S
C48 O47 1.208 . S
C49 O54 1.247 . S
C49 O55 1.208 . S
C50 O42 1.346 . S
C50 O45 1.280 1_655 S
C51 O52 1.371 . S
C51 O53 1.228 1_455 S
O52 Cd44 2.223 . S
O52 C51 1.371 . S
O53 Cd43 2.240 . S
O53 C51 1.228 1_655 S
O54 Cd44 2.297 . S
O54 C49 1.247 . S
O55 Cd44 2.439 . S
O55 C49 1.208 . S
O56 Cd57 2.223 . S
O56 C64 1.315 . S
Cd57 O56 2.223 . S
Cd57 O60 2.297 . S
Cd57 O61 2.439 . S
Cd57 O67 2.240 1_556 S
Cd58 O59 2.240 1_554 S
Cd58 O66 2.223 . S
Cd58 O68 2.297 . S
Cd58 O69 2.439 . S
O59 Cd58 2.240 1_556 S
O59 C64 1.279 . S
O60 Cd57 2.297 . S
O60 C62 1.247 . S
O61 Cd57 2.439 . S
O61 C62 1.208 . S
C62 O60 1.247 . S
C62 O61 1.208 . S
C63 O68 1.247 . S
C63 O69 1.208 . S
C64 O56 1.315 . S
C64 O59 1.279 . S
C65 O66 1.315 . S
C65 O67 1.279 . S
O66 Cd58 2.223 . S
O66 C65 1.315 . S
O67 Cd57 2.240 1_554 S
O67 C65 1.279 . S
O68 Cd58 2.297 . S
O68 C63 1.247 . S
O69 Cd58 2.439 . S
O69 C63 1.208 . S
O70 Cd71 2.223 . S
O70 C78 1.309 . S
Cd71 O70 2.223 . S
Cd71 O74 2.297 . S
Cd71 O75 2.439 . S
Cd71 O81 2.240 1_554 S
Cd72 O73 2.240 . S
Cd72 O80 2.223 1_554 S
Cd72 O82 2.297 1_554 S
Cd72 O83 2.439 1_554 S
O73 Cd72 2.240 . S
O73 C78 1.279 1_545 S
O74 Cd71 2.297 . S
O74 C76 1.247 . S
O75 Cd71 2.439 . S
O75 C76 1.208 . S
C76 O74 1.247 . S
C76 O75 1.208 . S
C77 O82 1.247 . S
C77 O83 1.208 . S
C78 O70 1.309 . S
C78 O73 1.279 1_565 S
C79 O80 1.353 . S
C79 O81 1.244 1_545 S
O80 Cd72 2.223 1_556 S
O80 C79 1.353 . S
O81 Cd71 2.240 1_556 S
O81 C79 1.244 1_565 S
O82 Cd72 2.297 1_556 S
O82 C77 1.247 . S
O83 Cd72 2.439 1_556 S
O83 C77 1.208 . S
O84 Cd85 2.223 . S
O84 C92 1.315 . S
Cd85 O84 2.223 . S
Cd85 O88 2.297 . S
Cd85 O89 2.439 . S
Cd85 O95 2.240 . S
Cd86 O87 2.240 . S
Cd86 O94 2.223 . S
Cd86 O96 2.297 . S
Cd86 O97 2.439 . S
O87 Cd86 2.240 . S
O87 C92 1.279 . S
O88 Cd85 2.297 . S
O88 C90 1.247 . S
O89 Cd85 2.439 . S
O89 C90 1.208 . S
C90 O88 1.247 . S
C90 O89 1.208 . S
C91 O96 1.247 . S
C91 O97 1.208 . S
C92 O84 1.315 . S
C92 O87 1.279 . S
C93 O94 1.315 . S
C93 O95 1.279 . S
O94 Cd86 2.223 . S
O94 C93 1.315 . S
O95 Cd85 2.240 . S
O95 C93 1.279 . S
O96 Cd86 2.297 . S
O96 C91 1.247 . S
O97 Cd86 2.439 . S
O97 C91 1.208 . S
O98 Cd99 2.223 . S
O98 C106 1.315 . S
Cd99 O98 2.223 . S
Cd99 O102 2.297 1_565 S
Cd99 O103 2.439 1_565 S
Cd99 O109 2.240 . S
Cd100 O101 2.240 . S
Cd100 O108 2.223 . S
Cd100 O110 2.297 . S
Cd100 O111 2.439 . S
O101 Cd100 2.240 . S
O101 C106 1.279 . S
O102 Cd99 2.297 1_545 S
O102 C104 1.247 . S
O103 Cd99 2.439 1_545 S
O103 C104 1.208 . S
C104 O102 1.247 . S
C104 O103 1.208 . S
C105 O110 1.247 . S
C105 O111 1.208 . S
C106 O98 1.315 . S
C106 O101 1.279 . S
C107 O108 1.315 . S
C107 O109 1.279 . S
O108 Cd100 2.223 . S
O108 C107 1.315 . S
O109 Cd99 2.240 . S
O109 C107 1.279 . S
O110 Cd100 2.297 . S
O110 C105 1.247 . S
O111 Cd100 2.439 . S
O111 C105 1.208 . S
O112 Cd113 2.223 . S
O112 C120 1.315 . S
Cd113 O112 2.223 . S
Cd113 O116 2.297 . S
Cd113 O117 2.439 . S
Cd113 O123 2.240 . S
Cd114 O115 2.240 . S
Cd114 O122 2.223 . S
Cd114 O124 2.297 1_455 S
Cd114 O125 2.439 1_455 S
O115 Cd114 2.240 . S
O115 C120 1.279 . S
O116 Cd113 2.297 . S
O116 C118 1.247 . S
O117 Cd113 2.439 . S
O117 C118 1.208 . S
C118 O116 1.247 . S
C118 O117 1.208 . S
C119 O124 1.247 . S
C119 O125 1.208 . S
C120 O112 1.315 . S
C120 O115 1.279 . S
C121 O122 1.315 . S
C121 O123 1.279 . S
O122 Cd114 2.223 . S
O122 C121 1.315 . S
O123 Cd113 2.240 . S
O123 C121 1.279 . S
O124 Cd114 2.297 1_655 S
O124 C119 1.247 . S
O125 Cd114 2.439 1_655 S
O125 C119 1.208 . S
O126 Cd127 2.223 . S
O126 C134 1.315 . S
Cd127 O126 2.223 . S
Cd127 O130 2.297 . S
Cd127 O131 2.439 . S
Cd127 O137 2.240 . S
Cd128 O129 2.240 . S
Cd128 O136 2.223 . S
Cd128 O138 2.297 1_565 S
Cd128 O139 2.439 1_565 S
O129 Cd128 2.240 . S
O129 C134 1.279 . S
O130 Cd127 2.297 . S
O130 C132 1.247 . S
O131 Cd127 2.439 . S
O131 C132 1.208 . S
C132 O130 1.247 . S
C132 O131 1.208 . S
C133 O138 1.247 . S
C133 O139 1.208 . S
C134 O126 1.315 . S
C134 O129 1.279 . S
C135 O136 1.315 . S
C135 O137 1.279 . S
O136 Cd128 2.223 . S
O136 C135 1.315 . S
O137 Cd127 2.240 . S
O137 C135 1.279 . S
O138 Cd128 2.297 1_545 S
O138 C133 1.247 . S
O139 Cd128 2.439 1_545 S
O139 C133 1.208 . S
O140 Cd141 2.223 . S
O140 C148 1.315 . S
Cd141 O140 2.223 . S
Cd141 O144 2.297 . S
Cd141 O145 2.439 . S
Cd141 O151 2.240 . S
Cd142 O143 2.240 . S
Cd142 O150 2.223 . S
Cd142 O152 2.297 1_455 S
Cd142 O153 2.439 1_455 S
O143 Cd142 2.240 . S
O143 C148 1.279 . S
O144 Cd141 2.297 . S
O144 C146 1.247 . S
O145 Cd141 2.439 . S
O145 C146 1.208 . S
C146 O144 1.247 . S
C146 O145 1.208 . S
C147 O152 1.247 . S
C147 O153 1.208 . S
C148 O140 1.315 . S
C148 O143 1.279 . S
C149 O150 1.315 . S
C149 O151 1.279 . S
O150 Cd142 2.223 . S
O150 C149 1.315 . S
O151 Cd141 2.240 . S
O151 C149 1.279 . S
O152 Cd142 2.297 1_655 S
O152 C147 1.247 . S
O153 Cd142 2.439 1_655 S
O153 C147 1.208 . S
O154 Cd155 2.223 . S
O154 C162 1.315 . S
Cd155 O154 2.223 . S
Cd155 O158 2.297 . S
Cd155 O159 2.439 . S
Cd155 O165 2.240 . S
Cd156 O157 2.240 . S
Cd156 O164 2.223 . S
Cd156 O166 2.297 . S
Cd156 O167 2.439 . S
O157 Cd156 2.240 . S
O157 C162 1.279 . S
O158 Cd155 2.297 . S
O158 C160 1.247 . S
O159 Cd155 2.439 . S
O159 C160 1.208 . S
C160 O158 1.247 . S
C160 O159 1.208 . S
C161 O166 1.247 . S
C161 O167 1.208 . S
C162 O154 1.315 . S
C162 O157 1.279 . S
C163 O164 1.315 . S
C163 O165 1.279 . S
O164 Cd156 2.223 . S
O164 C163 1.315 . S
O165 Cd155 2.240 . S
O165 C163 1.279 . S
O166 Cd156 2.297 . S
O166 C161 1.247 . S
O167 Cd156 2.439 . S
O167 C161 1.208 . S
O168 Cd169 2.223 . S
O168 C176 1.315 . S
Cd169 O168 2.223 . S
Cd169 O172 2.297 . S
Cd169 O173 2.439 . S
Cd169 O179 2.240 . S
Cd170 O171 2.240 . S
Cd170 O178 2.223 . S
Cd170 O180 2.297 1_545 S
Cd170 O181 2.439 1_545 S
O171 Cd170 2.240 . S
O171 C176 1.279 . S
O172 Cd169 2.297 . S
O172 C174 1.247 . S
O173 Cd169 2.439 . S
O173 C174 1.208 . S
C174 O172 1.247 . S
C174 O173 1.208 . S
C175 O180 1.247 . S
C175 O181 1.208 . S
C176 O168 1.315 . S
C176 O171 1.279 . S
C177 O178 1.315 . S
C177 O179 1.279 . S
O178 Cd170 2.223 . S
O178 C177 1.315 . S
O179 Cd169 2.240 . S
O179 C177 1.279 . S
O180 Cd170 2.297 1_565 S
O180 C175 1.247 . S
O181 Cd170 2.439 1_565 S
O181 C175 1.208 . S
O182 Cd183 2.223 . S
O182 C190 1.315 . S
Cd183 O182 2.223 . S
Cd183 O186 2.297 . S
Cd183 O187 2.439 . S
Cd183 O193 2.240 . S
Cd184 O185 2.240 . S
Cd184 O192 2.223 . S
Cd184 O194 2.297 1_655 S
Cd184 O195 2.439 1_655 S
O185 Cd184 2.240 . S
O185 C190 1.279 . S
O186 Cd183 2.297 . S
O186 C188 1.247 . S
O187 Cd183 2.439 . S
O187 C188 1.208 . S
C188 O186 1.247 . S
C188 O187 1.208 . S
C189 O194 1.247 . S
C189 O195 1.208 . S
C190 O182 1.315 . S
C190 O185 1.279 . S
C191 O192 1.315 . S
C191 O193 1.279 . S
O192 Cd184 2.223 . S
O192 C191 1.315 . S
O193 Cd183 2.240 . S
O193 C191 1.279 . S
O194 Cd184 2.297 1_455 S
O194 C189 1.247 . S
O195 Cd184 2.439 1_455 S
O195 C189 1.208 . S
O196 Cd197 2.223 . S
O196 C204 1.315 . S
Cd197 O196 2.223 . S
Cd197 O200 2.297 . S
Cd197 O201 2.439 . S
Cd197 O207 2.240 . S
Cd198 O199 2.240 . S
Cd198 O206 2.223 . S
Cd198 O208 2.297 . S
Cd198 O209 2.439 . S
O199 Cd198 2.240 . S
O199 C204 1.279 . S
O200 Cd197 2.297 . S
O200 C202 1.247 . S
O201 Cd197 2.439 . S
O201 C202 1.208 . S
C202 O200 1.247 . S
C202 O201 1.208 . S
C203 O208 1.247 . S
C203 O209 1.208 . S
C204 O196 1.315 . S
C204 O199 1.279 . S
C205 O206 1.315 . S
C205 O207 1.279 . S
O206 Cd198 2.223 . S
O206 C205 1.315 . S
O207 Cd197 2.240 . S
O207 C205 1.279 . S
O208 Cd198 2.297 . S
O208 C203 1.247 . S
O209 Cd198 2.439 . S
O209 C203 1.208 . S
O210 Cd211 2.223 . S
O210 C218 1.315 . S
Cd211 O210 2.223 . S
Cd211 O214 2.297 . S
Cd211 O215 2.439 . S
Cd211 O221 2.240 . S
Cd212 O213 2.240 . S
Cd212 O220 2.223 . S
Cd212 O222 2.297 . S
Cd212 O223 2.439 . S
O213 Cd212 2.240 . S
O213 C218 1.279 . S
O214 Cd211 2.297 . S
O214 C216 1.247 . S
O215 Cd211 2.439 . S
O215 C216 1.208 . S
C216 O214 1.247 . S
C216 O215 1.208 . S
C217 O222 1.247 . S
C217 O223 1.208 . S
C218 O210 1.315 . S
C218 O213 1.279 . S
C219 O220 1.315 . S
C219 O221 1.279 . S
O220 Cd212 2.223 . S
O220 C219 1.315 . S
O221 Cd211 2.240 . S
O221 C219 1.279 . S
O222 Cd212 2.297 . S
O222 C217 1.247 . S
O223 Cd212 2.439 . S
O223 C217 1.208 . S
O224 Cd225 2.223 . S
O224 C232 1.315 . S
Cd225 O224 2.223 . S
Cd225 O228 2.297 1_545 S
Cd225 O229 2.439 1_545 S
Cd225 O235 2.240 . S
Cd226 O227 2.240 . S
Cd226 O234 2.223 . S
Cd226 O236 2.297 . S
Cd226 O237 2.439 . S
O227 Cd226 2.240 . S
O227 C232 1.279 . S
O228 Cd225 2.297 1_565 S
O228 C230 1.247 . S
O229 Cd225 2.439 1_565 S
O229 C230 1.208 . S
C230 O228 1.247 . S
C230 O229 1.208 . S
C231 O236 1.247 . S
C231 O237 1.208 . S
C232 O224 1.315 . S
C232 O227 1.279 . S
C233 O234 1.315 . S
C233 O235 1.279 . S
O234 Cd226 2.223 . S
O234 C233 1.315 . S
O235 Cd225 2.240 . S
O235 C233 1.279 . S
O236 Cd226 2.297 . S
O236 C231 1.247 . S
O237 Cd226 2.439 . S
O237 C231 1.208 . S
O238 Cd239 2.223 . S
O238 C246 1.315 . S
Cd239 O238 2.223 . S
Cd239 O242 2.297 . S
Cd239 O243 2.439 . S
Cd239 O249 2.240 . S
Cd240 O241 2.240 . S
Cd240 O248 2.223 . S
Cd240 O250 2.297 1_655 S
Cd240 O251 2.439 1_655 S
O241 Cd240 2.240 . S
O241 C246 1.279 . S
O242 Cd239 2.297 . S
O242 C244 1.247 . S
O243 Cd239 2.439 . S
O243 C244 1.208 . S
C244 O242 1.247 . S
C244 O243 1.208 . S
C245 O250 1.247 . S
C245 O251 1.208 . S
C246 O238 1.315 . S
C246 O241 1.279 . S
C247 O248 1.315 . S
C247 O249 1.279 . S
O248 Cd240 2.223 . S
O248 C247 1.315 . S
O249 Cd239 2.240 . S
O249 C247 1.279 . S
O250 Cd240 2.297 1_455 S
O250 C245 1.247 . S
O251 Cd240 2.439 1_455 S
O251 C245 1.208 . S
C252 C253 1.560 . S
C252 H313 0.959 . S
C252 H314 0.959 . S
C252 H315 0.960 . S
C253 C252 1.560 . S
C253 O308 1.426 . S
C253 H312 0.980 . S
C254 C255 1.407 . S
C254 C259 1.418 . S
C254 O308 1.334 . S
C255 C254 1.407 . S
C255 C256 1.360 . S
C255 H316 0.929 . S
C256 C255 1.360 . S
C256 C257 1.401 . S
C256 C260 1.527 . S
C257 C256 1.401 . S
C257 C258 1.405 . S
C257 C290 1.587 . S
C258 C257 1.405 . S
C258 C259 1.332 . S
C258 C261 1.496 . S
C259 C254 1.418 . S
C259 C258 1.332 . S
C259 H317 0.929 . S
C260 C256 1.527 . S
C260 H318 0.959 . S
C260 H319 0.961 . S
C260 H320 0.961 . S
C261 C258 1.496 . S
C261 H321 0.960 . S
C261 H322 0.960 . S
C261 H323 0.961 . S
C262 C263 1.517 . S
C262 H325 0.961 . S
C262 H326 0.960 . S
C262 H327 0.959 . S
C263 C262 1.517 . S
C263 O311 1.468 . S
C263 H324 0.980 . S
C264 C265 1.349 . S
C264 C269 1.367 . S
C264 O311 1.408 . S
C265 C264 1.349 . S
C265 C266 1.407 . S
C265 H328 0.930 . S
C266 C265 1.407 . S
C266 C267 1.449 . S
C266 C270 1.535 . S
C267 C266 1.449 . S
C267 C268 1.384 . S
C267 C292 1.553 . S
C268 C267 1.384 . S
C268 C269 1.364 . S
C268 C271 1.450 . S
C269 C264 1.367 . S
C269 C268 1.364 . S
C269 H329 0.931 . S
C270 C266 1.535 . S
C270 H330 0.959 . S
C270 H331 0.961 . S
C270 H332 0.959 . S
C271 C268 1.450 . S
C271 H333 0.960 . S
C271 H334 0.960 . S
C271 H335 0.960 . S
C272 C273 1.309 . S
C272 C277 1.304 . S
C272 O310 1.435 . S
C273 C272 1.309 . S
C273 C274 1.476 . S
C273 H337 0.930 . S
C274 C273 1.476 . S
C274 C275 1.400 . S
C274 C278 1.567 . S
C275 C274 1.400 . S
C275 C276 1.373 . S
C275 C297 1.432 . S
C276 C275 1.373 . S
C276 C277 1.339 . S
C276 C279 1.530 . S
C277 C272 1.304 . S
C277 C276 1.339 . S
C277 H338 0.930 . S
C278 C274 1.567 . S
C278 H339 0.961 . S
C278 H340 0.960 . S
C278 H341 0.958 . S
C279 C276 1.530 . S
C279 H342 0.961 . S
C279 H343 0.960 . S
C279 H344 0.960 . S
C280 C281 1.530 . S
C280 H346 0.961 . S
C280 H347 0.961 . S
C280 H348 0.959 . S
C281 C280 1.530 . S
C281 O309 1.412 . S
C281 H345 0.980 . S
C282 C283 1.288 . S
C282 C287 1.377 . S
C282 O309 1.393 . S
C283 C282 1.288 . S
C283 C284 1.369 . S
C283 H349 0.932 . S
C284 C283 1.369 . S
C284 C285 1.398 . S
C284 C288 1.527 . S
C285 C284 1.398 . S
C285 C286 1.380 . S
C285 C299 1.497 . S
C286 C285 1.380 . S
C286 C287 1.383 . S
C286 C289 1.603 . S
C287 C282 1.377 . S
C287 C286 1.383 . S
C287 H350 0.929 . S
C288 C284 1.527 . S
C288 H351 0.961 . S
C288 H352 0.959 . S
C288 H353 0.959 . S
C289 C286 1.603 . S
C289 H354 0.960 . S
C289 H355 0.962 . S
C289 H356 0.961 . S
C290 C257 1.587 . S
C290 C291 1.360 . S
C290 C303 1.412 . S
C291 C290 1.360 . S
C291 C292 1.365 . S
C291 H357 0.929 . S
C292 C267 1.553 . S
C292 C291 1.365 . S
C292 C293 1.404 . S
C293 C292 1.404 . S
C293 C294 1.395 . S
C293 C304 1.451 . S
C294 C293 1.395 . S
C294 C295 1.322 . S
C294 H358 0.930 . S
C295 C294 1.322 . S
C295 C296 1.459 . S
C295 H359 0.929 . S
C296 C295 1.459 . S
C296 C297 1.445 . S
C296 C305 1.395 . S
C297 C275 1.432 . S
C297 C296 1.445 . S
C297 C298 1.370 . S
C298 C297 1.370 . S
C298 C299 1.438 . S
C298 H360 0.930 . S
C299 C285 1.497 . S
C299 C298 1.438 . S
C299 C300 1.360 . S
C300 C299 1.360 . S
C300 C301 1.401 . S
C300 C305 1.446 . S
C301 C300 1.401 . S
C301 C302 1.347 . S
C301 H361 0.929 . S
C302 C301 1.347 . S
C302 C303 1.455 . S
C302 H362 0.930 . S
C303 C290 1.412 . S
C303 C302 1.455 . S
C303 C304 1.331 . S
C304 C293 1.451 . S
C304 C303 1.331 . S
C304 C305 1.497 . S
C305 C296 1.395 . S
C305 C300 1.446 . S
C305 C304 1.497 . S
C306 C307 1.582 . S
C306 H363 0.962 . S
C306 H364 0.959 . S
C306 H365 0.958 . S
C307 C306 1.582 . S
C307 O310 1.458 . S
C307 H336 0.980 . S
O308 C253 1.426 . S
O308 C254 1.334 . S
O309 C281 1.412 . S
O309 C282 1.393 . S
O310 C272 1.435 . S
O310 C307 1.458 . S
O311 C263 1.468 . S
O311 C264 1.408 . S
H312 C253 0.980 . S
H313 C252 0.959 . S
H314 C252 0.959 . S
H315 C252 0.960 . S
H316 C255 0.929 . S
H317 C259 0.929 . S
H318 C260 0.959 . S
H319 C260 0.961 . S
H320 C260 0.961 . S
H321 C261 0.960 . S
H322 C261 0.960 . S
H323 C261 0.961 . S
H324 C263 0.980 . S
H325 C262 0.961 . S
H326 C262 0.960 . S
H327 C262 0.959 . S
H328 C265 0.930 . S
H329 C269 0.931 . S
H330 C270 0.959 . S
H331 C270 0.961 . S
H332 C270 0.959 . S
H333 C271 0.960 . S
H334 C271 0.960 . S
H335 C271 0.960 . S
H336 C307 0.980 . S
H337 C273 0.930 . S
H338 C277 0.930 . S
H339 C278 0.961 . S
H340 C278 0.960 . S
H341 C278 0.958 . S
H342 C279 0.961 . S
H343 C279 0.960 . S
H344 C279 0.960 . S
H345 C281 0.980 . S
H346 C280 0.961 . S
H347 C280 0.961 . S
H348 C280 0.959 . S
H349 C283 0.932 . S
H350 C287 0.929 . S
H351 C288 0.961 . S
H352 C288 0.959 . S
H353 C288 0.959 . S
H354 C289 0.960 . S
H355 C289 0.962 . S
H356 C289 0.961 . S
H357 C291 0.929 . S
H358 C294 0.930 . S
H359 C295 0.929 . S
H360 C298 0.930 . S
H361 C301 0.929 . S
H362 C302 0.930 . S
H363 C306 0.962 . S
H364 C306 0.959 . S
H365 C306 0.958 . S
C366 C367 1.560 . S
C366 H427 0.959 . S
C366 H428 0.959 . S
C366 H429 0.960 . S
C367 C366 1.560 . S
C367 O422 1.426 . S
C367 H426 0.980 . S
C368 C369 1.407 . S
C368 C373 1.418 . S
C368 O422 1.334 . S
C369 C368 1.407 . S
C369 C370 1.360 . S
C369 H430 0.929 . S
C370 C369 1.360 . S
C370 C371 1.401 . S
C370 C374 1.527 . S
C371 C370 1.401 . S
C371 C372 1.405 . S
C371 C404 1.587 . S
C372 C371 1.405 . S
C372 C373 1.332 . S
C372 C375 1.496 . S
C373 C368 1.418 . S
C373 C372 1.332 . S
C373 H431 0.929 . S
C374 C370 1.527 . S
C374 H432 0.959 . S
C374 H433 0.961 . S
C374 H434 0.961 . S
C375 C372 1.496 . S
C375 H435 0.960 . S
C375 H436 0.960 . S
C375 H437 0.961 . S
C376 C377 1.517 . S
C376 H439 0.961 . S
C376 H440 0.960 . S
C376 H441 0.959 . S
C377 C376 1.517 . S
C377 O425 1.468 . S
C377 H438 0.980 . S
C378 C379 1.349 . S
C378 C383 1.367 . S
C378 O425 1.408 . S
C379 C378 1.349 . S
C379 C380 1.407 . S
C379 H442 0.930 . S
C380 C379 1.407 . S
C380 C381 1.449 . S
C380 C384 1.535 . S
C381 C380 1.449 . S
C381 C382 1.384 . S
C381 C406 1.553 . S
C382 C381 1.384 . S
C382 C383 1.364 . S
C382 C385 1.450 . S
C383 C378 1.367 . S
C383 C382 1.364 . S
C383 H443 0.931 . S
C384 C380 1.535 . S
C384 H444 0.959 . S
C384 H445 0.961 . S
C384 H446 0.959 . S
C385 C382 1.450 . S
C385 H447 0.960 . S
C385 H448 0.960 . S
C385 H449 0.960 . S
C386 C387 1.309 . S
C386 C391 1.304 . S
C386 O424 1.435 . S
C387 C386 1.309 . S
C387 C388 1.476 . S
C387 H451 0.930 . S
C388 C387 1.476 . S
C388 C389 1.400 . S
C388 C392 1.567 . S
C389 C388 1.400 . S
C389 C390 1.373 . S
C389 C411 1.432 . S
C390 C389 1.373 . S
C390 C391 1.339 . S
C390 C393 1.530 . S
C391 C386 1.304 . S
C391 C390 1.339 . S
C391 H452 0.930 . S
C392 C388 1.567 . S
C392 H453 0.961 . S
C392 H454 0.960 . S
C392 H455 0.958 . S
C393 C390 1.530 . S
C393 H456 0.961 . S
C393 H457 0.960 . S
C393 H458 0.960 . S
C394 C395 1.530 . S
C394 H460 0.961 . S
C394 H461 0.961 . S
C394 H462 0.959 . S
C395 C394 1.530 . S
C395 O423 1.412 . S
C395 H459 0.980 . S
C396 C397 1.288 . S
C396 C401 1.377 . S
C396 O423 1.393 . S
C397 C396 1.288 . S
C397 C398 1.369 . S
C397 H463 0.932 . S
C398 C397 1.369 . S
C398 C399 1.398 . S
C398 C402 1.527 . S
C399 C398 1.398 . S
C399 C400 1.380 . S
C399 C413 1.497 . S
C400 C399 1.380 . S
C400 C401 1.383 . S
C400 C403 1.603 . S
C401 C396 1.377 . S
C401 C400 1.383 . S
C401 H464 0.929 . S
C402 C398 1.527 . S
C402 H465 0.961 . S
C402 H466 0.959 . S
C402 H467 0.959 . S
C403 C400 1.603 . S
C403 H468 0.960 . S
C403 H469 0.962 . S
C403 H470 0.961 . S
C404 C371 1.587 . S
C404 C405 1.360 . S
C404 C417 1.412 . S
C405 C404 1.360 . S
C405 C406 1.365 . S
C405 H471 0.929 . S
C406 C381 1.553 . S
C406 C405 1.365 . S
C406 C407 1.404 . S
C407 C406 1.404 . S
C407 C408 1.395 . S
C407 C418 1.451 . S
C408 C407 1.395 . S
C408 C409 1.322 . S
C408 H472 0.930 . S
C409 C408 1.322 . S
C409 C410 1.459 . S
C409 H473 0.929 . S
C410 C409 1.459 . S
C410 C411 1.445 . S
C410 C419 1.395 . S
C411 C389 1.432 . S
C411 C410 1.445 . S
C411 C412 1.370 . S
C412 C411 1.370 . S
C412 C413 1.438 . S
C412 H474 0.930 . S
C413 C399 1.497 . S
C413 C412 1.438 . S
C413 C414 1.360 . S
C414 C413 1.360 . S
C414 C415 1.401 . S
C414 C419 1.446 . S
C415 C414 1.401 . S
C415 C416 1.347 . S
C415 H475 0.929 . S
C416 C415 1.347 . S
C416 C417 1.455 . S
C416 H476 0.930 . S
C417 C404 1.412 . S
C417 C416 1.455 . S
C417 C418 1.331 . S
C418 C407 1.451 . S
C418 C417 1.331 . S
C418 C419 1.497 . S
C419 C410 1.395 . S
C419 C414 1.446 . S
C419 C418 1.497 . S
C420 C421 1.582 . S
C420 H477 0.962 . S
C420 H478 0.959 . S
C420 H479 0.958 . S
C421 C420 1.582 . S
C421 O424 1.458 . S
C421 H450 0.980 . S
O422 C367 1.426 . S
O422 C368 1.334 . S
O423 C395 1.412 . S
O423 C396 1.393 . S
O424 C386 1.435 . S
O424 C421 1.458 . S
O425 C377 1.468 . S
O425 C378 1.408 . S
H426 C367 0.980 . S
H427 C366 0.959 . S
H428 C366 0.959 . S
H429 C366 0.960 . S
H430 C369 0.929 . S
H431 C373 0.929 . S
H432 C374 0.959 . S
H433 C374 0.961 . S
H434 C374 0.961 . S
H435 C375 0.960 . S
H436 C375 0.960 . S
H437 C375 0.961 . S
H438 C377 0.980 . S
H439 C376 0.961 . S
H440 C376 0.960 . S
H441 C376 0.959 . S
H442 C379 0.930 . S
H443 C383 0.931 . S
H444 C384 0.959 . S
H445 C384 0.961 . S
H446 C384 0.959 . S
H447 C385 0.960 . S
H448 C385 0.960 . S
H449 C385 0.960 . S
H450 C421 0.980 . S
H451 C387 0.930 . S
H452 C391 0.930 . S
H453 C392 0.961 . S
H454 C392 0.960 . S
H455 C392 0.958 . S
H456 C393 0.961 . S
H457 C393 0.960 . S
H458 C393 0.960 . S
H459 C395 0.980 . S
H460 C394 0.961 . S
H461 C394 0.961 . S
H462 C394 0.959 . S
H463 C397 0.932 . S
H464 C401 0.929 . S
H465 C402 0.961 . S
H466 C402 0.959 . S
H467 C402 0.959 . S
H468 C403 0.960 . S
H469 C403 0.962 . S
H470 C403 0.961 . S
H471 C405 0.929 . S
H472 C408 0.930 . S
H473 C409 0.929 . S
H474 C412 0.930 . S
H475 C415 0.929 . S
H476 C416 0.930 . S
H477 C420 0.962 . S
H478 C420 0.959 . S
H479 C420 0.958 . S
C480 C481 1.560 . S
C480 H541 0.959 . S
C480 H542 0.959 . S
C480 H543 0.960 . S
C481 C480 1.560 . S
C481 O536 1.426 . S
C481 H540 0.980 . S
C482 C483 1.407 . S
C482 C487 1.418 . S
C482 O536 1.334 . S
C483 C482 1.407 . S
C483 C484 1.360 . S
C483 H544 0.929 . S
C484 C483 1.360 . S
C484 C485 1.401 . S
C484 C488 1.527 . S
C485 C484 1.401 . S
C485 C486 1.405 . S
C485 C518 1.587 . S
C486 C485 1.405 . S
C486 C487 1.332 . S
C486 C489 1.496 . S
C487 C482 1.418 . S
C487 C486 1.332 . S
C487 H545 0.929 . S
C488 C484 1.527 . S
C488 H546 0.959 . S
C488 H547 0.961 . S
C488 H548 0.961 . S
C489 C486 1.496 . S
C489 H549 0.960 . S
C489 H550 0.960 . S
C489 H551 0.961 . S
C490 C491 1.517 . S
C490 H553 0.961 . S
C490 H554 0.960 . S
C490 H555 0.959 . S
C491 C490 1.517 . S
C491 O539 1.468 . S
C491 H552 0.980 . S
C492 C493 1.349 . S
C492 C497 1.367 . S
C492 O539 1.408 . S
C493 C492 1.349 . S
C493 C494 1.407 . S
C493 H556 0.930 . S
C494 C493 1.407 . S
C494 C495 1.449 . S
C494 C498 1.535 . S
C495 C494 1.449 . S
C495 C496 1.384 . S
C495 C520 1.553 . S
C496 C495 1.384 . S
C496 C497 1.364 . S
C496 C499 1.450 . S
C497 C492 1.367 . S
C497 C496 1.364 . S
C497 H557 0.931 . S
C498 C494 1.535 . S
C498 H558 0.959 . S
C498 H559 0.961 . S
C498 H560 0.959 . S
C499 C496 1.450 . S
C499 H561 0.960 . S
C499 H562 0.960 . S
C499 H563 0.960 . S
C500 C501 1.309 . S
C500 C505 1.304 . S
C500 O538 1.435 . S
C501 C500 1.309 . S
C501 C502 1.476 . S
C501 H565 0.930 . S
C502 C501 1.476 . S
C502 C503 1.400 . S
C502 C506 1.567 . S
C503 C502 1.400 . S
C503 C504 1.373 . S
C503 C525 1.432 . S
C504 C503 1.373 . S
C504 C505 1.339 . S
C504 C507 1.530 . S
C505 C500 1.304 . S
C505 C504 1.339 . S
C505 H566 0.930 . S
C506 C502 1.567 . S
C506 H567 0.961 . S
C506 H568 0.960 . S
C506 H569 0.958 . S
C507 C504 1.530 . S
C507 H570 0.961 . S
C507 H571 0.960 . S
C507 H572 0.960 . S
C508 C509 1.530 . S
C508 H574 0.961 . S
C508 H575 0.961 . S
C508 H576 0.959 . S
C509 C508 1.530 . S
C509 O537 1.412 . S
C509 H573 0.980 . S
C510 C511 1.288 . S
C510 C515 1.377 . S
C510 O537 1.393 . S
C511 C510 1.288 . S
C511 C512 1.369 . S
C511 H577 0.932 . S
C512 C511 1.369 . S
C512 C513 1.398 . S
C512 C516 1.527 . S
C513 C512 1.398 . S
C513 C514 1.380 . S
C513 C527 1.497 . S
C514 C513 1.380 . S
C514 C515 1.383 . S
C514 C517 1.603 . S
C515 C510 1.377 . S
C515 C514 1.383 . S
C515 H578 0.929 . S
C516 C512 1.527 . S
C516 H579 0.961 . S
C516 H580 0.959 . S
C516 H581 0.959 . S
C517 C514 1.603 . S
C517 H582 0.960 . S
C517 H583 0.962 . S
C517 H584 0.961 . S
C518 C485 1.587 . S
C518 C519 1.360 . S
C518 C531 1.412 . S
C519 C518 1.360 . S
C519 C520 1.365 . S
C519 H585 0.929 . S
C520 C495 1.553 . S
C520 C519 1.365 . S
C520 C521 1.404 . S
C521 C520 1.404 . S
C521 C522 1.395 . S
C521 C532 1.451 . S
C522 C521 1.395 . S
C522 C523 1.322 . S
C522 H586 0.930 . S
C523 C522 1.322 . S
C523 C524 1.459 . S
C523 H587 0.929 . S
C524 C523 1.459 . S
C524 C525 1.445 . S
C524 C533 1.395 . S
C525 C503 1.432 . S
C525 C524 1.445 . S
C525 C526 1.370 . S
C526 C525 1.370 . S
C526 C527 1.438 . S
C526 H588 0.930 . S
C527 C513 1.497 . S
C527 C526 1.438 . S
C527 C528 1.360 . S
C528 C527 1.360 . S
C528 C529 1.401 . S
C528 C533 1.446 . S
C529 C528 1.401 . S
C529 C530 1.347 . S
C529 H589 0.929 . S
C530 C529 1.347 . S
C530 C531 1.455 . S
C530 H590 0.930 . S
C531 C518 1.412 . S
C531 C530 1.455 . S
C531 C532 1.331 . S
C532 C521 1.451 . S
C532 C531 1.331 . S
C532 C533 1.497 . S
C533 C524 1.395 . S
C533 C528 1.446 . S
C533 C532 1.497 . S
C534 C535 1.582 . S
C534 H591 0.962 . S
C534 H592 0.959 . S
C534 H593 0.958 . S
C535 C534 1.582 . S
C535 O538 1.458 . S
C535 H564 0.980 . S
O536 C481 1.426 . S
O536 C482 1.334 . S
O537 C509 1.412 . S
O537 C510 1.393 . S
O538 C500 1.435 . S
O538 C535 1.458 . S
O539 C491 1.468 . S
O539 C492 1.408 . S
H540 C481 0.980 . S
H541 C480 0.959 . S
H542 C480 0.959 . S
H543 C480 0.960 . S
H544 C483 0.929 . S
H545 C487 0.929 . S
H546 C488 0.959 . S
H547 C488 0.961 . S
H548 C488 0.961 . S
H549 C489 0.960 . S
H550 C489 0.960 . S
H551 C489 0.961 . S
H552 C491 0.980 . S
H553 C490 0.961 . S
H554 C490 0.960 . S
H555 C490 0.959 . S
H556 C493 0.930 . S
H557 C497 0.931 . S
H558 C498 0.959 . S
H559 C498 0.961 . S
H560 C498 0.959 . S
H561 C499 0.960 . S
H562 C499 0.960 . S
H563 C499 0.960 . S
H564 C535 0.980 . S
H565 C501 0.930 . S
H566 C505 0.930 . S
H567 C506 0.961 . S
H568 C506 0.960 . S
H569 C506 0.958 . S
H570 C507 0.961 . S
H571 C507 0.960 . S
H572 C507 0.960 . S
H573 C509 0.980 . S
H574 C508 0.961 . S
H575 C508 0.961 . S
H576 C508 0.959 . S
H577 C511 0.932 . S
H578 C515 0.929 . S
H579 C516 0.961 . S
H580 C516 0.959 . S
H581 C516 0.959 . S
H582 C517 0.960 . S
H583 C517 0.962 . S
H584 C517 0.961 . S
H585 C519 0.929 . S
H586 C522 0.930 . S
H587 C523 0.929 . S
H588 C526 0.930 . S
H589 C529 0.929 . S
H590 C530 0.930 . S
H591 C534 0.962 . S
H592 C534 0.959 . S
H593 C534 0.958 . S
C594 C595 1.560 . S
C594 H655 0.959 . S
C594 H656 0.959 . S
C594 H657 0.960 . S
C595 C594 1.560 . S
C595 O650 1.426 . S
C595 H654 0.980 . S
C596 C597 1.407 . S
C596 C601 1.418 . S
C596 O650 1.334 . S
C597 C596 1.407 . S
C597 C598 1.360 . S
C597 H658 0.929 . S
C598 C597 1.360 . S
C598 C599 1.401 . S
C598 C602 1.527 . S
C599 C598 1.401 . S
C599 C600 1.405 . S
C599 C632 1.587 . S
C600 C599 1.405 . S
C600 C601 1.332 . S
C600 C603 1.496 . S
C601 C596 1.418 . S
C601 C600 1.332 . S
C601 H659 0.929 . S
C602 C598 1.527 . S
C602 H660 0.959 . S
C602 H661 0.961 . S
C602 H662 0.961 . S
C603 C600 1.496 . S
C603 H663 0.960 . S
C603 H664 0.960 . S
C603 H665 0.961 . S
C604 C605 1.517 . S
C604 H667 0.961 . S
C604 H668 0.960 . S
C604 H669 0.959 . S
C605 C604 1.517 . S
C605 O653 1.468 . S
C605 H666 0.980 . S
C606 C607 1.349 . S
C606 C611 1.367 . S
C606 O653 1.408 . S
C607 C606 1.349 . S
C607 C608 1.407 . S
C607 H670 0.930 . S
C608 C607 1.407 . S
C608 C609 1.449 . S
C608 C612 1.535 . S
C609 C608 1.449 . S
C609 C610 1.384 . S
C609 C634 1.553 . S
C610 C609 1.384 . S
C610 C611 1.364 . S
C610 C613 1.450 . S
C611 C606 1.367 . S
C611 C610 1.364 . S
C611 H671 0.931 . S
C612 C608 1.535 . S
C612 H672 0.959 . S
C612 H673 0.961 . S
C612 H674 0.959 . S
C613 C610 1.450 . S
C613 H675 0.960 . S
C613 H676 0.960 . S
C613 H677 0.960 . S
C614 C615 1.309 . S
C614 C619 1.304 . S
C614 O652 1.435 . S
C615 C614 1.309 . S
C615 C616 1.476 . S
C615 H679 0.930 . S
C616 C615 1.476 . S
C616 C617 1.400 . S
C616 C620 1.567 . S
C617 C616 1.400 . S
C617 C618 1.373 . S
C617 C639 1.432 . S
C618 C617 1.373 . S
C618 C619 1.339 . S
C618 C621 1.530 . S
C619 C614 1.304 . S
C619 C618 1.339 . S
C619 H680 0.930 . S
C620 C616 1.567 . S
C620 H681 0.961 . S
C620 H682 0.960 . S
C620 H683 0.958 . S
C621 C618 1.530 . S
C621 H684 0.961 . S
C621 H685 0.960 . S
C621 H686 0.960 . S
C622 C623 1.530 . S
C622 H688 0.961 . S
C622 H689 0.961 . S
C622 H690 0.959 . S
C623 C622 1.530 . S
C623 O651 1.412 . S
C623 H687 0.980 . S
C624 C625 1.288 . S
C624 C629 1.377 . S
C624 O651 1.393 . S
C625 C624 1.288 . S
C625 C626 1.369 . S
C625 H691 0.932 . S
C626 C625 1.369 . S
C626 C627 1.398 . S
C626 C630 1.527 . S
C627 C626 1.398 . S
C627 C628 1.380 . S
C627 C641 1.497 . S
C628 C627 1.380 . S
C628 C629 1.383 . S
C628 C631 1.603 . S
C629 C624 1.377 . S
C629 C628 1.383 . S
C629 H692 0.929 . S
C630 C626 1.527 . S
C630 H693 0.961 . S
C630 H694 0.959 . S
C630 H695 0.959 . S
C631 C628 1.603 . S
C631 H696 0.960 . S
C631 H697 0.962 . S
C631 H698 0.961 . S
C632 C599 1.587 . S
C632 C633 1.360 . S
C632 C645 1.412 . S
C633 C632 1.360 . S
C633 C634 1.365 . S
C633 H699 0.929 . S
C634 C609 1.553 . S
C634 C633 1.365 . S
C634 C635 1.404 . S
C635 C634 1.404 . S
C635 C636 1.395 . S
C635 C646 1.451 . S
C636 C635 1.395 . S
C636 C637 1.322 . S
C636 H700 0.930 . S
C637 C636 1.322 . S
C637 C638 1.459 . S
C637 H701 0.929 . S
C638 C637 1.459 . S
C638 C639 1.445 . S
C638 C647 1.395 . S
C639 C617 1.432 . S
C639 C638 1.445 . S
C639 C640 1.370 . S
C640 C639 1.370 . S
C640 C641 1.438 . S
C640 H702 0.930 . S
C641 C627 1.497 . S
C641 C640 1.438 . S
C641 C642 1.360 . S
C642 C641 1.360 . S
C642 C643 1.401 . S
C642 C647 1.446 . S
C643 C642 1.401 . S
C643 C644 1.347 . S
C643 H703 0.929 . S
C644 C643 1.347 . S
C644 C645 1.455 . S
C644 H704 0.930 . S
C645 C632 1.412 . S
C645 C644 1.455 . S
C645 C646 1.331 . S
C646 C635 1.451 . S
C646 C645 1.331 . S
C646 C647 1.497 . S
C647 C638 1.395 . S
C647 C642 1.446 . S
C647 C646 1.497 . S
C648 C649 1.582 . S
C648 H705 0.962 . S
C648 H706 0.959 . S
C648 H707 0.958 . S
C649 C648 1.582 . S
C649 O652 1.458 . S
C649 H678 0.980 . S
O650 C595 1.426 . S
O650 C596 1.334 . S
O651 C623 1.412 . S
O651 C624 1.393 . S
O652 C614 1.435 . S
O652 C649 1.458 . S
O653 C605 1.468 . S
O653 C606 1.408 . S
H654 C595 0.980 . S
H655 C594 0.959 . S
H656 C594 0.959 . S
H657 C594 0.960 . S
H658 C597 0.929 . S
H659 C601 0.929 . S
H660 C602 0.959 . S
H661 C602 0.961 . S
H662 C602 0.961 . S
H663 C603 0.960 . S
H664 C603 0.960 . S
H665 C603 0.961 . S
H666 C605 0.980 . S
H667 C604 0.961 . S
H668 C604 0.960 . S
H669 C604 0.959 . S
H670 C607 0.930 . S
H671 C611 0.931 . S
H672 C612 0.959 . S
H673 C612 0.961 . S
H674 C612 0.959 . S
H675 C613 0.960 . S
H676 C613 0.960 . S
H677 C613 0.960 . S
H678 C649 0.980 . S
H679 C615 0.930 . S
H680 C619 0.930 . S
H681 C620 0.961 . S
H682 C620 0.960 . S
H683 C620 0.958 . S
H684 C621 0.961 . S
H685 C621 0.960 . S
H686 C621 0.960 . S
H687 C623 0.980 . S
H688 C622 0.961 . S
H689 C622 0.961 . S
H690 C622 0.959 . S
H691 C625 0.932 . S
H692 C629 0.929 . S
H693 C630 0.961 . S
H694 C630 0.959 . S
H695 C630 0.959 . S
H696 C631 0.960 . S
H697 C631 0.962 . S
H698 C631 0.961 . S
H699 C633 0.929 . S
H700 C636 0.930 . S
H701 C637 0.929 . S
H702 C640 0.930 . S
H703 C643 0.929 . S
H704 C644 0.930 . S
H705 C648 0.962 . S
H706 C648 0.959 . S
H707 C648 0.958 . S
C708 C709 1.560 . S
C708 H769 0.959 . S
C708 H770 0.959 . S
C708 H771 0.960 . S
C709 C708 1.560 . S
C709 O764 1.426 . S
C709 H768 0.980 . S
C710 C711 1.407 . S
C710 C715 1.418 . S
C710 O764 1.334 . S
C711 C710 1.407 . S
C711 C712 1.360 . S
C711 H772 0.929 . S
C712 C711 1.360 . S
C712 C713 1.401 . S
C712 C716 1.527 . S
C713 C712 1.401 . S
C713 C714 1.405 . S
C713 C746 1.587 . S
C714 C713 1.405 . S
C714 C715 1.332 . S
C714 C717 1.496 . S
C715 C710 1.418 . S
C715 C714 1.332 . S
C715 H773 0.929 . S
C716 C712 1.527 . S
C716 H774 0.959 . S
C716 H775 0.961 . S
C716 H776 0.961 . S
C717 C714 1.496 . S
C717 H777 0.960 . S
C717 H778 0.960 . S
C717 H779 0.961 . S
C718 C719 1.517 . S
C718 H781 0.961 . S
C718 H782 0.960 . S
C718 H783 0.959 . S
C719 C718 1.517 . S
C719 O767 1.468 . S
C719 H780 0.980 . S
C720 C721 1.349 . S
C720 C725 1.367 . S
C720 O767 1.408 . S
C721 C720 1.349 . S
C721 C722 1.407 . S
C721 H784 0.930 . S
C722 C721 1.407 . S
C722 C723 1.449 . S
C722 C726 1.535 . S
C723 C722 1.449 . S
C723 C724 1.384 . S
C723 C748 1.553 . S
C724 C723 1.384 . S
C724 C725 1.364 . S
C724 C727 1.450 . S
C725 C720 1.367 . S
C725 C724 1.364 . S
C725 H785 0.931 . S
C726 C722 1.535 . S
C726 H786 0.959 . S
C726 H787 0.961 . S
C726 H788 0.959 . S
C727 C724 1.450 . S
C727 H789 0.960 . S
C727 H790 0.960 . S
C727 H791 0.960 . S
C728 C729 1.309 . S
C728 C733 1.304 . S
C728 O766 1.435 . S
C729 C728 1.309 . S
C729 C730 1.476 . S
C729 H793 0.930 . S
C730 C729 1.476 . S
C730 C731 1.400 . S
C730 C734 1.567 . S
C731 C730 1.400 . S
C731 C732 1.373 . S
C731 C753 1.432 . S
C732 C731 1.373 . S
C732 C733 1.339 . S
C732 C735 1.530 . S
C733 C728 1.304 . S
C733 C732 1.339 . S
C733 H794 0.930 . S
C734 C730 1.567 . S
C734 H795 0.961 . S
C734 H796 0.960 . S
C734 H797 0.958 . S
C735 C732 1.530 . S
C735 H798 0.961 . S
C735 H799 0.960 . S
C735 H800 0.960 . S
C736 C737 1.530 . S
C736 H802 0.961 . S
C736 H803 0.961 . S
C736 H804 0.959 . S
C737 C736 1.530 . S
C737 O765 1.412 . S
C737 H801 0.980 . S
C738 C739 1.288 . S
C738 C743 1.377 . S
C738 O765 1.393 . S
C739 C738 1.288 . S
C739 C740 1.369 . S
C739 H805 0.932 . S
C740 C739 1.369 . S
C740 C741 1.398 . S
C740 C744 1.527 . S
C741 C740 1.398 . S
C741 C742 1.380 . S
C741 C755 1.497 . S
C742 C741 1.380 . S
C742 C743 1.383 . S
C742 C745 1.603 . S
C743 C738 1.377 . S
C743 C742 1.383 . S
C743 H806 0.929 . S
C744 C740 1.527 . S
C744 H807 0.961 . S
C744 H808 0.959 . S
C744 H809 0.959 . S
C745 C742 1.603 . S
C745 H810 0.960 . S
C745 H811 0.962 . S
C745 H812 0.961 . S
C746 C713 1.587 . S
C746 C747 1.360 . S
C746 C759 1.412 . S
C747 C746 1.360 . S
C747 C748 1.365 . S
C747 H813 0.929 . S
C748 C723 1.553 . S
C748 C747 1.365 . S
C748 C749 1.404 . S
C749 C748 1.404 . S
C749 C750 1.395 . S
C749 C760 1.451 . S
C750 C749 1.395 . S
C750 C751 1.322 . S
C750 H814 0.930 . S
C751 C750 1.322 . S
C751 C752 1.459 . S
C751 H815 0.929 . S
C752 C751 1.459 . S
C752 C753 1.445 . S
C752 C761 1.395 . S
C753 C731 1.432 . S
C753 C752 1.445 . S
C753 C754 1.370 . S
C754 C753 1.370 . S
C754 C755 1.438 . S
C754 H816 0.930 . S
C755 C741 1.497 . S
C755 C754 1.438 . S
C755 C756 1.360 . S
C756 C755 1.360 . S
C756 C757 1.401 . S
C756 C761 1.446 . S
C757 C756 1.401 . S
C757 C758 1.347 . S
C757 H817 0.929 . S
C758 C757 1.347 . S
C758 C759 1.455 . S
C758 H818 0.930 . S
C759 C746 1.412 . S
C759 C758 1.455 . S
C759 C760 1.331 . S
C760 C749 1.451 . S
C760 C759 1.331 . S
C760 C761 1.497 . S
C761 C752 1.395 . S
C761 C756 1.446 . S
C761 C760 1.497 . S
C762 C763 1.582 . S
C762 H819 0.962 . S
C762 H820 0.959 . S
C762 H821 0.958 . S
C763 C762 1.582 . S
C763 O766 1.458 . S
C763 H792 0.980 . S
O764 C709 1.426 . S
O764 C710 1.334 . S
O765 C737 1.412 . S
O765 C738 1.393 . S
O766 C728 1.435 . S
O766 C763 1.458 . S
O767 C719 1.468 . S
O767 C720 1.408 . S
H768 C709 0.980 . S
H769 C708 0.959 . S
H770 C708 0.959 . S
H771 C708 0.960 . S
H772 C711 0.929 . S
H773 C715 0.929 . S
H774 C716 0.959 . S
H775 C716 0.961 . S
H776 C716 0.961 . S
H777 C717 0.960 . S
H778 C717 0.960 . S
H779 C717 0.961 . S
H780 C719 0.980 . S
H781 C718 0.961 . S
H782 C718 0.960 . S
H783 C718 0.959 . S
H784 C721 0.930 . S
H785 C725 0.931 . S
H786 C726 0.959 . S
H787 C726 0.961 . S
H788 C726 0.959 . S
H789 C727 0.960 . S
H790 C727 0.960 . S
H791 C727 0.960 . S
H792 C763 0.980 . S
H793 C729 0.930 . S
H794 C733 0.930 . S
H795 C734 0.961 . S
H796 C734 0.960 . S
H797 C734 0.958 . S
H798 C735 0.961 . S
H799 C735 0.960 . S
H800 C735 0.960 . S
H801 C737 0.980 . S
H802 C736 0.961 . S
H803 C736 0.961 . S
H804 C736 0.959 . S
H805 C739 0.932 . S
H806 C743 0.929 . S
H807 C744 0.961 . S
H808 C744 0.959 . S
H809 C744 0.959 . S
H810 C745 0.960 . S
H811 C745 0.962 . S
H812 C745 0.961 . S
H813 C747 0.929 . S
H814 C750 0.930 . S
H815 C751 0.929 . S
H816 C754 0.930 . S
H817 C757 0.929 . S
H818 C758 0.930 . S
H819 C762 0.962 . S
H820 C762 0.959 . S
H821 C762 0.958 . S
C822 C823 1.560 . S
C822 H883 0.959 . S
C822 H884 0.959 . S
C822 H885 0.960 . S
C823 C822 1.560 . S
C823 O878 1.426 . S
C823 H882 0.980 . S
C824 C825 1.407 . S
C824 C829 1.418 . S
C824 O878 1.334 . S
C825 C824 1.407 . S
C825 C826 1.360 . S
C825 H886 0.929 . S
C826 C825 1.360 . S
C826 C827 1.401 . S
C826 C830 1.527 . S
C827 C826 1.401 . S
C827 C828 1.405 . S
C827 C860 1.587 . S
C828 C827 1.405 . S
C828 C829 1.332 . S
C828 C831 1.496 . S
C829 C824 1.418 . S
C829 C828 1.332 . S
C829 H887 0.929 . S
C830 C826 1.527 . S
C830 H888 0.959 . S
C830 H889 0.961 . S
C830 H890 0.961 . S
C831 C828 1.496 . S
C831 H891 0.960 . S
C831 H892 0.960 . S
C831 H893 0.961 . S
C832 C833 1.517 . S
C832 H895 0.961 . S
C832 H896 0.960 . S
C832 H897 0.959 . S
C833 C832 1.517 . S
C833 O881 1.468 . S
C833 H894 0.980 . S
C834 C835 1.349 . S
C834 C839 1.367 . S
C834 O881 1.408 . S
C835 C834 1.349 . S
C835 C836 1.407 . S
C835 H898 0.930 . S
C836 C835 1.407 . S
C836 C837 1.449 . S
C836 C840 1.535 . S
C837 C836 1.449 . S
C837 C838 1.384 . S
C837 C862 1.553 . S
C838 C837 1.384 . S
C838 C839 1.364 . S
C838 C841 1.450 . S
C839 C834 1.367 . S
C839 C838 1.364 . S
C839 H899 0.931 . S
C840 C836 1.535 . S
C840 H900 0.959 . S
C840 H901 0.961 . S
C840 H902 0.959 . S
C841 C838 1.450 . S
C841 H903 0.960 . S
C841 H904 0.960 . S
C841 H905 0.960 . S
C842 C843 1.309 . S
C842 C847 1.304 . S
C842 O880 1.435 . S
C843 C842 1.309 . S
C843 C844 1.476 . S
C843 H907 0.930 . S
C844 C843 1.476 . S
C844 C845 1.400 . S
C844 C848 1.567 . S
C845 C844 1.400 . S
C845 C846 1.373 . S
C845 C867 1.432 . S
C846 C845 1.373 . S
C846 C847 1.339 . S
C846 C849 1.530 . S
C847 C842 1.304 . S
C847 C846 1.339 . S
C847 H908 0.930 . S
C848 C844 1.567 . S
C848 H909 0.961 . S
C848 H910 0.960 . S
C848 H911 0.958 . S
C849 C846 1.530 . S
C849 H912 0.961 . S
C849 H913 0.960 . S
C849 H914 0.960 . S
C850 C851 1.530 . S
C850 H916 0.961 . S
C850 H917 0.961 . S
C850 H918 0.959 . S
C851 C850 1.530 . S
C851 O879 1.412 . S
C851 H915 0.980 . S
C852 C853 1.288 . S
C852 C857 1.377 . S
C852 O879 1.393 . S
C853 C852 1.288 . S
C853 C854 1.369 . S
C853 H919 0.932 . S
C854 C853 1.369 . S
C854 C855 1.398 . S
C854 C858 1.527 . S
C855 C854 1.398 . S
C855 C856 1.380 . S
C855 C869 1.497 . S
C856 C855 1.380 . S
C856 C857 1.383 . S
C856 C859 1.603 . S
C857 C852 1.377 . S
C857 C856 1.383 . S
C857 H920 0.929 . S
C858 C854 1.527 . S
C858 H921 0.961 . S
C858 H922 0.959 . S
C858 H923 0.959 . S
C859 C856 1.603 . S
C859 H924 0.960 . S
C859 H925 0.962 . S
C859 H926 0.961 . S
C860 C827 1.587 . S
C860 C861 1.360 . S
C860 C873 1.412 . S
C861 C860 1.360 . S
C861 C862 1.365 . S
C861 H927 0.929 . S
C862 C837 1.553 . S
C862 C861 1.365 . S
C862 C863 1.404 . S
C863 C862 1.404 . S
C863 C864 1.395 . S
C863 C874 1.451 . S
C864 C863 1.395 . S
C864 C865 1.322 . S
C864 H928 0.930 . S
C865 C864 1.322 . S
C865 C866 1.459 . S
C865 H929 0.929 . S
C866 C865 1.459 . S
C866 C867 1.445 . S
C866 C875 1.395 . S
C867 C845 1.432 . S
C867 C866 1.445 . S
C867 C868 1.370 . S
C868 C867 1.370 . S
C868 C869 1.438 . S
C868 H930 0.930 . S
C869 C855 1.497 . S
C869 C868 1.438 . S
C869 C870 1.360 . S
C870 C869 1.360 . S
C870 C871 1.401 . S
C870 C875 1.446 . S
C871 C870 1.401 . S
C871 C872 1.347 . S
C871 H931 0.929 . S
C872 C871 1.347 . S
C872 C873 1.455 . S
C872 H932 0.930 . S
C873 C860 1.412 . S
C873 C872 1.455 . S
C873 C874 1.331 . S
C874 C863 1.451 . S
C874 C873 1.331 . S
C874 C875 1.497 . S
C875 C866 1.395 . S
C875 C870 1.446 . S
C875 C874 1.497 . S
C876 C877 1.582 . S
C876 H933 0.962 . S
C876 H934 0.959 . S
C876 H935 0.958 . S
C877 C876 1.582 . S
C877 O880 1.458 . S
C877 H906 0.980 . S
O878 C823 1.426 . S
O878 C824 1.334 . S
O879 C851 1.412 . S
O879 C852 1.393 . S
O880 C842 1.435 . S
O880 C877 1.458 . S
O881 C833 1.468 . S
O881 C834 1.408 . S
H882 C823 0.980 . S
H883 C822 0.959 . S
H884 C822 0.959 . S
H885 C822 0.960 . S
H886 C825 0.929 . S
H887 C829 0.929 . S
H888 C830 0.959 . S
H889 C830 0.961 . S
H890 C830 0.961 . S
H891 C831 0.960 . S
H892 C831 0.960 . S
H893 C831 0.961 . S
H894 C833 0.980 . S
H895 C832 0.961 . S
H896 C832 0.960 . S
H897 C832 0.959 . S
H898 C835 0.930 . S
H899 C839 0.931 . S
H900 C840 0.959 . S
H901 C840 0.961 . S
H902 C840 0.959 . S
H903 C841 0.960 . S
H904 C841 0.960 . S
H905 C841 0.960 . S
H906 C877 0.980 . S
H907 C843 0.930 . S
H908 C847 0.930 . S
H909 C848 0.961 . S
H910 C848 0.960 . S
H911 C848 0.958 . S
H912 C849 0.961 . S
H913 C849 0.960 . S
H914 C849 0.960 . S
H915 C851 0.980 . S
H916 C850 0.961 . S
H917 C850 0.961 . S
H918 C850 0.959 . S
H919 C853 0.932 . S
H920 C857 0.929 . S
H921 C858 0.961 . S
H922 C858 0.959 . S
H923 C858 0.959 . S
H924 C859 0.960 . S
H925 C859 0.962 . S
H926 C859 0.961 . S
H927 C861 0.929 . S
H928 C864 0.930 . S
H929 C865 0.929 . S
H930 C868 0.930 . S
H931 C871 0.929 . S
H932 C872 0.930 . S
H933 C876 0.962 . S
H934 C876 0.959 . S
H935 C876 0.958 . S
C936 C937 1.560 . S
C936 H997 0.959 . S
C936 H998 0.959 . S
C936 H999 0.960 . S
C937 C936 1.560 . S
C937 O992 1.426 . S
C937 H996 0.980 . S
C938 C939 1.407 . S
C938 C943 1.418 . S
C938 O992 1.334 . S
C939 C938 1.407 . S
C939 C940 1.360 . S
C939 H1000 0.929 . S
C940 C939 1.360 . S
C940 C941 1.401 . S
C940 C944 1.527 . S
C941 C940 1.401 . S
C941 C942 1.405 . S
C941 C974 1.587 . S
C942 C941 1.405 . S
C942 C943 1.332 . S
C942 C945 1.496 . S
C943 C938 1.418 . S
C943 C942 1.332 . S
C943 H1001 0.929 . S
C944 C940 1.527 . S
C944 H1002 0.959 . S
C944 H1003 0.961 . S
C944 H1004 0.961 . S
C945 C942 1.496 . S
C945 H1005 0.960 . S
C945 H1006 0.960 . S
C945 H1007 0.961 . S
C946 C947 1.517 . S
C946 H1009 0.961 . S
C946 H1010 0.960 . S
C946 H1011 0.959 . S
C947 C946 1.517 . S
C947 O995 1.468 . S
C947 H1008 0.980 . S
C948 C949 1.349 . S
C948 C953 1.367 . S
C948 O995 1.408 . S
C949 C948 1.349 . S
C949 C950 1.407 . S
C949 H1012 0.930 . S
C950 C949 1.407 . S
C950 C951 1.449 . S
C950 C954 1.535 . S
C951 C950 1.449 . S
C951 C952 1.384 . S
C951 C976 1.553 . S
C952 C951 1.384 . S
C952 C953 1.364 . S
C952 C955 1.450 . S
C953 C948 1.367 . S
C953 C952 1.364 . S
C953 H1013 0.931 . S
C954 C950 1.535 . S
C954 H1014 0.959 . S
C954 H1015 0.961 . S
C954 H1016 0.959 . S
C955 C952 1.450 . S
C955 H1017 0.960 . S
C955 H1018 0.960 . S
C955 H1019 0.960 . S
C956 C957 1.309 . S
C956 C961 1.304 . S
C956 O994 1.435 . S
C957 C956 1.309 . S
C957 C958 1.476 . S
C957 H1021 0.930 . S
C958 C957 1.476 . S
C958 C959 1.400 . S
C958 C962 1.567 . S
C959 C958 1.400 . S
C959 C960 1.373 . S
C959 C981 1.432 . S
C960 C959 1.373 . S
C960 C961 1.339 . S
C960 C963 1.530 . S
C961 C956 1.304 . S
C961 C960 1.339 . S
C961 H1022 0.930 . S
C962 C958 1.567 . S
C962 H1023 0.961 . S
C962 H1024 0.960 . S
C962 H1025 0.958 . S
C963 C960 1.530 . S
C963 H1026 0.961 . S
C963 H1027 0.960 . S
C963 H1028 0.960 . S
C964 C965 1.530 . S
C964 H1030 0.961 . S
C964 H1031 0.961 . S
C964 H1032 0.959 . S
C965 C964 1.530 . S
C965 O993 1.412 . S
C965 H1029 0.980 . S
C966 C967 1.288 . S
C966 C971 1.377 . S
C966 O993 1.393 . S
C967 C966 1.288 . S
C967 C968 1.369 . S
C967 H1033 0.932 . S
C968 C967 1.369 . S
C968 C969 1.398 . S
C968 C972 1.527 . S
C969 C968 1.398 . S
C969 C970 1.380 . S
C969 C983 1.497 . S
C970 C969 1.380 . S
C970 C971 1.383 . S
C970 C973 1.603 . S
C971 C966 1.377 . S
C971 C970 1.383 . S
C971 H1034 0.929 . S
C972 C968 1.527 . S
C972 H1035 0.961 . S
C972 H1036 0.959 . S
C972 H1037 0.959 . S
C973 C970 1.603 . S
C973 H1038 0.960 . S
C973 H1039 0.962 . S
C973 H1040 0.961 . S
C974 C941 1.587 . S
C974 C975 1.360 . S
C974 C987 1.412 . S
C975 C974 1.360 . S
C975 C976 1.365 . S
C975 H1041 0.929 . S
C976 C951 1.553 . S
C976 C975 1.365 . S
C976 C977 1.404 . S
C977 C976 1.404 . S
C977 C978 1.395 . S
C977 C988 1.451 . S
C978 C977 1.395 . S
C978 C979 1.322 . S
C978 H1042 0.930 . S
C979 C978 1.322 . S
C979 C980 1.459 . S
C979 H1043 0.929 . S
C980 C979 1.459 . S
C980 C981 1.445 . S
C980 C989 1.395 . S
C981 C959 1.432 . S
C981 C980 1.445 . S
C981 C982 1.370 . S
C982 C981 1.370 . S
C982 C983 1.438 . S
C982 H1044 0.930 . S
C983 C969 1.497 . S
C983 C982 1.438 . S
C983 C984 1.360 . S
C984 C983 1.360 . S
C984 C985 1.401 . S
C984 C989 1.446 . S
C985 C984 1.401 . S
C985 C986 1.347 . S
C985 H1045 0.929 . S
C986 C985 1.347 . S
C986 C987 1.455 . S
C986 H1046 0.930 . S
C987 C974 1.412 . S
C987 C986 1.455 . S
C987 C988 1.331 . S
C988 C977 1.451 . S
C988 C987 1.331 . S
C988 C989 1.497 . S
C989 C980 1.395 . S
C989 C984 1.446 . S
C989 C988 1.497 . S
C990 C991 1.582 . S
C990 H1047 0.962 . S
C990 H1048 0.959 . S
C990 H1049 0.958 . S
C991 C990 1.582 . S
C991 O994 1.458 . S
C991 H1020 0.980 . S
O992 C937 1.426 . S
O992 C938 1.334 . S
O993 C965 1.412 . S
O993 C966 1.393 . S
O994 C956 1.435 . S
O994 C991 1.458 . S
O995 C947 1.468 . S
O995 C948 1.408 . S
H996 C937 0.980 . S
H997 C936 0.959 . S
H998 C936 0.959 . S
H999 C936 0.960 . S
H1000 C939 0.929 . S
H1001 C943 0.929 . S
H1002 C944 0.959 . S
H1003 C944 0.961 . S
H1004 C944 0.961 . S
H1005 C945 0.960 . S
H1006 C945 0.960 . S
H1007 C945 0.961 . S
H1008 C947 0.980 . S
H1009 C946 0.961 . S
H1010 C946 0.960 . S
H1011 C946 0.959 . S
H1012 C949 0.930 . S
H1013 C953 0.931 . S
H1014 C954 0.959 . S
H1015 C954 0.961 . S
H1016 C954 0.959 . S
H1017 C955 0.960 . S
H1018 C955 0.960 . S
H1019 C955 0.960 . S
H1020 C991 0.980 . S
H1021 C957 0.930 . S
H1022 C961 0.930 . S
H1023 C962 0.961 . S
H1024 C962 0.960 . S
H1025 C962 0.958 . S
H1026 C963 0.961 . S
H1027 C963 0.960 . S
H1028 C963 0.960 . S
H1029 C965 0.980 . S
H1030 C964 0.961 . S
H1031 C964 0.961 . S
H1032 C964 0.959 . S
H1033 C967 0.932 . S
H1034 C971 0.929 . S
H1035 C972 0.961 . S
H1036 C972 0.959 . S
H1037 C972 0.959 . S
H1038 C973 0.960 . S
H1039 C973 0.962 . S
H1040 C973 0.961 . S
H1041 C975 0.929 . S
H1042 C978 0.930 . S
H1043 C979 0.929 . S
H1044 C982 0.930 . S
H1045 C985 0.929 . S
H1046 C986 0.930 . S
H1047 C990 0.962 . S
H1048 C990 0.959 . S
H1049 C990 0.958 . S
C1050 C1051 1.560 . S
C1050 H1111 0.959 . S
C1050 H1112 0.959 . S
C1050 H1113 0.960 . S
C1051 C1050 1.560 . S
C1051 O1106 1.426 . S
C1051 H1110 0.980 . S
C1052 C1053 1.407 . S
C1052 C1057 1.418 . S
C1052 O1106 1.334 . S
C1053 C1052 1.407 . S
C1053 C1054 1.360 . S
C1053 H1114 0.929 . S
C1054 C1053 1.360 . S
C1054 C1055 1.401 . S
C1054 C1058 1.527 . S
C1055 C1054 1.401 . S
C1055 C1056 1.405 . S
C1055 C1088 1.587 . S
C1056 C1055 1.405 . S
C1056 C1057 1.332 . S
C1056 C1059 1.496 . S
C1057 C1052 1.418 . S
C1057 C1056 1.332 . S
C1057 H1115 0.929 . S
C1058 C1054 1.527 . S
C1058 H1116 0.959 . S
C1058 H1117 0.961 . S
C1058 H1118 0.961 . S
C1059 C1056 1.496 . S
C1059 H1119 0.960 . S
C1059 H1120 0.960 . S
C1059 H1121 0.961 . S
C1060 C1061 1.517 . S
C1060 H1123 0.961 . S
C1060 H1124 0.960 . S
C1060 H1125 0.959 . S
C1061 C1060 1.517 . S
C1061 O1109 1.468 . S
C1061 H1122 0.980 . S
C1062 C1063 1.349 . S
C1062 C1067 1.367 . S
C1062 O1109 1.408 . S
C1063 C1062 1.349 . S
C1063 C1064 1.407 . S
C1063 H1126 0.930 . S
C1064 C1063 1.407 . S
C1064 C1065 1.449 . S
C1064 C1068 1.535 . S
C1065 C1064 1.449 . S
C1065 C1066 1.384 . S
C1065 C1090 1.553 . S
C1066 C1065 1.384 . S
C1066 C1067 1.364 . S
C1066 C1069 1.450 . S
C1067 C1062 1.367 . S
C1067 C1066 1.364 . S
C1067 H1127 0.931 . S
C1068 C1064 1.535 . S
C1068 H1128 0.959 . S
C1068 H1129 0.961 . S
C1068 H1130 0.959 . S
C1069 C1066 1.450 . S
C1069 H1131 0.960 . S
C1069 H1132 0.960 . S
C1069 H1133 0.960 . S
C1070 C1071 1.309 . S
C1070 C1075 1.304 . S
C1070 O1108 1.435 . S
C1071 C1070 1.309 . S
C1071 C1072 1.476 . S
C1071 H1135 0.930 . S
C1072 C1071 1.476 . S
C1072 C1073 1.400 . S
C1072 C1076 1.567 . S
C1073 C1072 1.400 . S
C1073 C1074 1.373 . S
C1073 C1095 1.432 . S
C1074 C1073 1.373 . S
C1074 C1075 1.339 . S
C1074 C1077 1.530 . S
C1075 C1070 1.304 . S
C1075 C1074 1.339 . S
C1075 H1136 0.930 . S
C1076 C1072 1.567 . S
C1076 H1137 0.961 . S
C1076 H1138 0.960 . S
C1076 H1139 0.958 . S
C1077 C1074 1.530 . S
C1077 H1140 0.961 . S
C1077 H1141 0.960 . S
C1077 H1142 0.960 . S
C1078 C1079 1.530 . S
C1078 H1144 0.961 . S
C1078 H1145 0.961 . S
C1078 H1146 0.959 . S
C1079 C1078 1.530 . S
C1079 O1107 1.412 . S
C1079 H1143 0.980 . S
C1080 C1081 1.288 . S
C1080 C1085 1.377 . S
C1080 O1107 1.393 . S
C1081 C1080 1.288 . S
C1081 C1082 1.369 . S
C1081 H1147 0.932 . S
C1082 C1081 1.369 . S
C1082 C1083 1.398 . S
C1082 C1086 1.527 . S
C1083 C1082 1.398 . S
C1083 C1084 1.380 . S
C1083 C1097 1.497 . S
C1084 C1083 1.380 . S
C1084 C1085 1.383 . S
C1084 C1087 1.603 . S
C1085 C1080 1.377 . S
C1085 C1084 1.383 . S
C1085 H1148 0.929 . S
C1086 C1082 1.527 . S
C1086 H1149 0.961 . S
C1086 H1150 0.959 . S
C1086 H1151 0.959 . S
C1087 C1084 1.603 . S
C1087 H1152 0.960 . S
C1087 H1153 0.962 . S
C1087 H1154 0.961 . S
C1088 C1055 1.587 . S
C1088 C1089 1.360 . S
C1088 C1101 1.412 . S
C1089 C1088 1.360 . S
C1089 C1090 1.365 . S
C1089 H1155 0.929 . S
C1090 C1065 1.553 . S
C1090 C1089 1.365 . S
C1090 C1091 1.404 . S
C1091 C1090 1.404 . S
C1091 C1092 1.395 . S
C1091 C1102 1.451 . S
C1092 C1091 1.395 . S
C1092 C1093 1.322 . S
C1092 H1156 0.930 . S
C1093 C1092 1.322 . S
C1093 C1094 1.459 . S
C1093 H1157 0.929 . S
C1094 C1093 1.459 . S
C1094 C1095 1.445 . S
C1094 C1103 1.395 . S
C1095 C1073 1.432 . S
C1095 C1094 1.445 . S
C1095 C1096 1.370 . S
C1096 C1095 1.370 . S
C1096 C1097 1.438 . S
C1096 H1158 0.930 . S
C1097 C1083 1.497 . S
C1097 C1096 1.438 . S
C1097 C1098 1.360 . S
C1098 C1097 1.360 . S
C1098 C1099 1.401 . S
C1098 C1103 1.446 . S
C1099 C1098 1.401 . S
C1099 C1100 1.347 . S
C1099 H1159 0.929 . S
C1100 C1099 1.347 . S
C1100 C1101 1.455 . S
C1100 H1160 0.930 . S
C1101 C1088 1.412 . S
C1101 C1100 1.455 . S
C1101 C1102 1.331 . S
C1102 C1091 1.451 . S
C1102 C1101 1.331 . S
C1102 C1103 1.497 . S
C1103 C1094 1.395 . S
C1103 C1098 1.446 . S
C1103 C1102 1.497 . S
C1104 C1105 1.582 . S
C1104 H1161 0.962 . S
C1104 H1162 0.959 . S
C1104 H1163 0.958 . S
C1105 C1104 1.582 . S
C1105 O1108 1.458 . S
C1105 H1134 0.980 . S
O1106 C1051 1.426 . S
O1106 C1052 1.334 . S
O1107 C1079 1.412 . S
O1107 C1080 1.393 . S
O1108 C1070 1.435 . S
O1108 C1105 1.458 . S
O1109 C1061 1.468 . S
O1109 C1062 1.408 . S
H1110 C1051 0.980 . S
H1111 C1050 0.959 . S
H1112 C1050 0.959 . S
H1113 C1050 0.960 . S
H1114 C1053 0.929 . S
H1115 C1057 0.929 . S
H1116 C1058 0.959 . S
H1117 C1058 0.961 . S
H1118 C1058 0.961 . S
H1119 C1059 0.960 . S
H1120 C1059 0.960 . S
H1121 C1059 0.961 . S
H1122 C1061 0.980 . S
H1123 C1060 0.961 . S
H1124 C1060 0.960 . S
H1125 C1060 0.959 . S
H1126 C1063 0.930 . S
H1127 C1067 0.931 . S
H1128 C1068 0.959 . S
H1129 C1068 0.961 . S
H1130 C1068 0.959 . S
H1131 C1069 0.960 . S
H1132 C1069 0.960 . S
H1133 C1069 0.960 . S
H1134 C1105 0.980 . S
H1135 C1071 0.930 . S
H1136 C1075 0.930 . S
H1137 C1076 0.961 . S
H1138 C1076 0.960 . S
H1139 C1076 0.958 . S
H1140 C1077 0.961 . S
H1141 C1077 0.960 . S
H1142 C1077 0.960 . S
H1143 C1079 0.980 . S
H1144 C1078 0.961 . S
H1145 C1078 0.961 . S
H1146 C1078 0.959 . S
H1147 C1081 0.932 . S
H1148 C1085 0.929 . S
H1149 C1086 0.961 . S
H1150 C1086 0.959 . S
H1151 C1086 0.959 . S
H1152 C1087 0.960 . S
H1153 C1087 0.962 . S
H1154 C1087 0.961 . S
H1155 C1089 0.929 . S
H1156 C1092 0.930 . S
H1157 C1093 0.929 . S
H1158 C1096 0.930 . S
H1159 C1099 0.929 . S
H1160 C1100 0.930 . S
H1161 C1104 0.962 . S
H1162 C1104 0.959 . S
H1163 C1104 0.958 . S
C1164 C1165 1.560 . S
C1164 H1225 0.959 . S
C1164 H1226 0.959 . S
C1164 H1227 0.960 . S
C1165 C1164 1.560 . S
C1165 O1220 1.426 . S
C1165 H1224 0.980 . S
C1166 C1167 1.407 . S
C1166 C1171 1.418 . S
C1166 O1220 1.334 . S
C1167 C1166 1.407 . S
C1167 C1168 1.360 . S
C1167 H1228 0.929 . S
C1168 C1167 1.360 . S
C1168 C1169 1.401 . S
C1168 C1172 1.527 . S
C1169 C1168 1.401 . S
C1169 C1170 1.405 . S
C1169 C1202 1.587 . S
C1170 C1169 1.405 . S
C1170 C1171 1.332 . S
C1170 C1173 1.496 . S
C1171 C1166 1.418 . S
C1171 C1170 1.332 . S
C1171 H1229 0.929 . S
C1172 C1168 1.527 . S
C1172 H1230 0.959 . S
C1172 H1231 0.961 . S
C1172 H1232 0.961 . S
C1173 C1170 1.496 . S
C1173 H1233 0.960 . S
C1173 H1234 0.960 . S
C1173 H1235 0.961 . S
C1174 C1175 1.517 . S
C1174 H1237 0.961 . S
C1174 H1238 0.960 . S
C1174 H1239 0.959 . S
C1175 C1174 1.517 . S
C1175 O1223 1.468 . S
C1175 H1236 0.980 . S
C1176 C1177 1.349 . S
C1176 C1181 1.367 . S
C1176 O1223 1.408 . S
C1177 C1176 1.349 . S
C1177 C1178 1.407 . S
C1177 H1240 0.930 . S
C1178 C1177 1.407 . S
C1178 C1179 1.449 . S
C1178 C1182 1.535 . S
C1179 C1178 1.449 . S
C1179 C1180 1.384 . S
C1179 C1204 1.553 . S
C1180 C1179 1.384 . S
C1180 C1181 1.364 . S
C1180 C1183 1.450 . S
C1181 C1176 1.367 . S
C1181 C1180 1.364 . S
C1181 H1241 0.931 . S
C1182 C1178 1.535 . S
C1182 H1242 0.959 . S
C1182 H1243 0.961 . S
C1182 H1244 0.959 . S
C1183 C1180 1.450 . S
C1183 H1245 0.960 . S
C1183 H1246 0.960 . S
C1183 H1247 0.960 . S
C1184 C1185 1.309 . S
C1184 C1189 1.304 . S
C1184 O1222 1.435 . S
C1185 C1184 1.309 . S
C1185 C1186 1.476 . S
C1185 H1249 0.930 . S
C1186 C1185 1.476 . S
C1186 C1187 1.400 . S
C1186 C1190 1.567 . S
C1187 C1186 1.400 . S
C1187 C1188 1.373 . S
C1187 C1209 1.432 . S
C1188 C1187 1.373 . S
C1188 C1189 1.339 . S
C1188 C1191 1.530 . S
C1189 C1184 1.304 . S
C1189 C1188 1.339 . S
C1189 H1250 0.930 . S
C1190 C1186 1.567 . S
C1190 H1251 0.961 . S
C1190 H1252 0.960 . S
C1190 H1253 0.958 . S
C1191 C1188 1.530 . S
C1191 H1254 0.961 . S
C1191 H1255 0.960 . S
C1191 H1256 0.960 . S
C1192 C1193 1.530 . S
C1192 H1258 0.961 . S
C1192 H1259 0.961 . S
C1192 H1260 0.959 . S
C1193 C1192 1.530 . S
C1193 O1221 1.412 . S
C1193 H1257 0.980 . S
C1194 C1195 1.288 . S
C1194 C1199 1.377 . S
C1194 O1221 1.393 . S
C1195 C1194 1.288 . S
C1195 C1196 1.369 . S
C1195 H1261 0.932 . S
C1196 C1195 1.369 . S
C1196 C1197 1.398 . S
C1196 C1200 1.527 . S
C1197 C1196 1.398 . S
C1197 C1198 1.380 . S
C1197 C1211 1.497 . S
C1198 C1197 1.380 . S
C1198 C1199 1.383 . S
C1198 C1201 1.603 . S
C1199 C1194 1.377 . S
C1199 C1198 1.383 . S
C1199 H1262 0.929 . S
C1200 C1196 1.527 . S
C1200 H1263 0.961 . S
C1200 H1264 0.959 . S
C1200 H1265 0.959 . S
C1201 C1198 1.603 . S
C1201 H1266 0.960 . S
C1201 H1267 0.962 . S
C1201 H1268 0.961 . S
C1202 C1169 1.587 . S
C1202 C1203 1.360 . S
C1202 C1215 1.412 . S
C1203 C1202 1.360 . S
C1203 C1204 1.365 . S
C1203 H1269 0.929 . S
C1204 C1179 1.553 . S
C1204 C1203 1.365 . S
C1204 C1205 1.404 . S
C1205 C1204 1.404 . S
C1205 C1206 1.395 . S
C1205 C1216 1.451 . S
C1206 C1205 1.395 . S
C1206 C1207 1.322 . S
C1206 H1270 0.930 . S
C1207 C1206 1.322 . S
C1207 C1208 1.459 . S
C1207 H1271 0.929 . S
C1208 C1207 1.459 . S
C1208 C1209 1.445 . S
C1208 C1217 1.395 . S
C1209 C1187 1.432 . S
C1209 C1208 1.445 . S
C1209 C1210 1.370 . S
C1210 C1209 1.370 . S
C1210 C1211 1.438 . S
C1210 H1272 0.930 . S
C1211 C1197 1.497 . S
C1211 C1210 1.438 . S
C1211 C1212 1.360 . S
C1212 C1211 1.360 . S
C1212 C1213 1.401 . S
C1212 C1217 1.446 . S
C1213 C1212 1.401 . S
C1213 C1214 1.347 . S
C1213 H1273 0.929 . S
C1214 C1213 1.347 . S
C1214 C1215 1.455 . S
C1214 H1274 0.930 . S
C1215 C1202 1.412 . S
C1215 C1214 1.455 . S
C1215 C1216 1.331 . S
C1216 C1205 1.451 . S
C1216 C1215 1.331 . S
C1216 C1217 1.497 . S
C1217 C1208 1.395 . S
C1217 C1212 1.446 . S
C1217 C1216 1.497 . S
C1218 C1219 1.582 . S
C1218 H1275 0.962 . S
C1218 H1276 0.959 . S
C1218 H1277 0.958 . S
C1219 C1218 1.582 . S
C1219 O1222 1.458 . S
C1219 H1248 0.980 . S
O1220 C1165 1.426 . S
O1220 C1166 1.334 . S
O1221 C1193 1.412 . S
O1221 C1194 1.393 . S
O1222 C1184 1.435 . S
O1222 C1219 1.458 . S
O1223 C1175 1.468 . S
O1223 C1176 1.408 . S
H1224 C1165 0.980 . S
H1225 C1164 0.959 . S
H1226 C1164 0.959 . S
H1227 C1164 0.960 . S
H1228 C1167 0.929 . S
H1229 C1171 0.929 . S
H1230 C1172 0.959 . S
H1231 C1172 0.961 . S
H1232 C1172 0.961 . S
H1233 C1173 0.960 . S
H1234 C1173 0.960 . S
H1235 C1173 0.961 . S
H1236 C1175 0.980 . S
H1237 C1174 0.961 . S
H1238 C1174 0.960 . S
H1239 C1174 0.959 . S
H1240 C1177 0.930 . S
H1241 C1181 0.931 . S
H1242 C1182 0.959 . S
H1243 C1182 0.961 . S
H1244 C1182 0.959 . S
H1245 C1183 0.960 . S
H1246 C1183 0.960 . S
H1247 C1183 0.960 . S
H1248 C1219 0.980 . S
H1249 C1185 0.930 . S
H1250 C1189 0.930 . S
H1251 C1190 0.961 . S
H1252 C1190 0.960 . S
H1253 C1190 0.958 . S
H1254 C1191 0.961 . S
H1255 C1191 0.960 . S
H1256 C1191 0.960 . S
H1257 C1193 0.980 . S
H1258 C1192 0.961 . S
H1259 C1192 0.961 . S
H1260 C1192 0.959 . S
H1261 C1195 0.932 . S
H1262 C1199 0.929 . S
H1263 C1200 0.961 . S
H1264 C1200 0.959 . S
H1265 C1200 0.959 . S
H1266 C1201 0.960 . S
H1267 C1201 0.962 . S
H1268 C1201 0.961 . S
H1269 C1203 0.929 . S
H1270 C1206 0.930 . S
H1271 C1207 0.929 . S
H1272 C1210 0.930 . S
H1273 C1213 0.929 . S
H1274 C1214 0.930 . S
H1275 C1218 0.962 . S
H1276 C1218 0.959 . S
H1277 C1218 0.958 . S
C1278 C1279 1.560 . S
C1278 H1339 0.959 . S
C1278 H1340 0.959 . S
C1278 H1341 0.960 . S
C1279 C1278 1.560 . S
C1279 O1334 1.426 . S
C1279 H1338 0.980 . S
C1280 C1281 1.407 1_455 S
C1280 C1285 1.418 . S
C1280 O1334 1.334 . S
C1281 C1280 1.407 1_655 S
C1281 C1282 1.360 . S
C1281 H1342 0.929 . S
C1282 C1281 1.360 . S
C1282 C1283 1.385 1_655 S
C1282 C1286 1.527 . S
C1283 C1282 1.385 1_455 S
C1283 C1284 1.484 . S
C1283 C1316 1.529 1_455 S
C1284 C1283 1.484 . S
C1284 C1285 1.332 . S
C1284 C1287 1.496 . S
C1285 C1280 1.418 . S
C1285 C1284 1.332 . S
C1285 H1343 0.929 . S
C1286 C1282 1.527 . S
C1286 H1344 0.959 . S
C1286 H1345 0.961 . S
C1286 H1346 0.961 . S
C1287 C1284 1.496 . S
C1287 H1347 0.960 . S
C1287 H1348 0.960 . S
C1287 H1349 0.961 . S
C1288 C1289 1.517 . S
C1288 H1351 0.961 . S
C1288 H1352 0.960 . S
C1288 H1353 0.959 . S
C1289 C1288 1.517 . S
C1289 O1337 1.468 . S
C1289 H1350 0.980 1_655 S
C1290 C1291 1.349 . S
C1290 C1295 1.367 . S
C1290 O1337 1.408 . S
C1291 C1290 1.349 . S
C1291 C1292 1.389 1_655 S
C1291 H1354 0.930 1_655 S
C1292 C1291 1.389 1_455 S
C1292 C1293 1.433 1_455 S
C1292 C1296 1.566 . S
C1293 C1292 1.433 1_655 S
C1293 C1294 1.384 . S
C1293 C1318 1.553 . S
C1294 C1293 1.384 . S
C1294 C1295 1.364 . S
C1294 C1297 1.450 . S
C1295 C1290 1.367 . S
C1295 C1294 1.364 . S
C1295 H1355 0.931 . S
C1296 C1292 1.566 . S
C1296 H1356 0.959 . S
C1296 H1357 0.961 . S
C1296 H1358 0.959 . S
C1297 C1294 1.450 . S
C1297 H1359 0.960 . S
C1297 H1360 0.960 . S
C1297 H1361 0.960 . S
C1298 C1299 1.309 . S
C1298 C1303 1.304 . S
C1298 O1336 1.435 . S
C1299 C1298 1.309 . S
C1299 C1300 1.440 1_655 S
C1299 H1363 0.930 1_655 S
C1300 C1299 1.440 1_455 S
C1300 C1301 1.378 1_455 S
C1300 C1304 1.625 . S
C1301 C1300 1.378 1_655 S
C1301 C1302 1.373 . S
C1301 C1323 1.432 . S
C1302 C1301 1.373 . S
C1302 C1303 1.339 . S
C1302 C1305 1.530 . S
C1303 C1298 1.304 . S
C1303 C1302 1.339 . S
C1303 H1364 0.930 . S
C1304 C1300 1.625 . S
C1304 H1365 0.961 . S
C1304 H1366 0.960 . S
C1304 H1367 0.958 . S
C1305 C1302 1.530 . S
C1305 H1368 0.961 . S
C1305 H1369 0.960 . S
C1305 H1370 0.960 . S
C1306 C1307 1.547 . S
C1306 H1372 0.961 . S
C1306 H1373 0.961 . S
C1306 H1374 0.959 . S
C1307 C1306 1.547 . S
C1307 O1335 1.416 . S
C1307 H1371 0.975 1_455 S
C1308 C1309 1.288 . S
C1308 C1313 1.377 1_455 S
C1308 O1335 1.393 . S
C1309 C1308 1.288 . S
C1309 C1310 1.369 . S
C1309 H1375 0.932 . S
C1310 C1309 1.369 . S
C1310 C1311 1.398 1_455 S
C1310 C1314 1.527 . S
C1311 C1310 1.398 1_655 S
C1311 C1312 1.380 . S
C1311 C1325 1.497 . S
C1312 C1311 1.380 . S
C1312 C1313 1.383 . S
C1312 C1315 1.603 . S
C1313 C1308 1.377 1_655 S
C1313 C1312 1.383 . S
C1313 H1376 0.929 . S
C1314 C1310 1.527 . S
C1314 H1377 0.961 . S
C1314 H1378 0.959 . S
C1314 H1379 0.959 . S
C1315 C1312 1.603 . S
C1315 H1380 0.960 . S
C1315 H1381 0.962 . S
C1315 H1382 0.961 . S
C1316 C1283 1.529 1_655 S
C1316 C1317 1.360 . S
C1316 C1329 1.412 . S
C1317 C1316 1.360 . S
C1317 C1318 1.365 . S
C1317 H1383 0.929 . S
C1318 C1293 1.553 . S
C1318 C1317 1.365 . S
C1318 C1319 1.404 . S
C1319 C1318 1.404 . S
C1319 C1320 1.395 . S
C1319 C1330 1.451 . S
C1320 C1319 1.395 . S
C1320 C1321 1.322 . S
C1320 H1384 0.930 . S
C1321 C1320 1.322 . S
C1321 C1322 1.459 . S
C1321 H1385 0.929 . S
C1322 C1321 1.459 . S
C1322 C1323 1.445 . S
C1322 C1331 1.395 . S
C1323 C1301 1.432 . S
C1323 C1322 1.445 . S
C1323 C1324 1.370 . S
C1324 C1323 1.370 . S
C1324 C1325 1.438 . S
C1324 H1386 0.930 . S
C1325 C1311 1.497 . S
C1325 C1324 1.438 . S
C1325 C1326 1.360 . S
C1326 C1325 1.360 . S
C1326 C1327 1.401 . S
C1326 C1331 1.446 . S
C1327 C1326 1.401 . S
C1327 C1328 1.347 . S
C1327 H1387 0.929 . S
C1328 C1327 1.347 . S
C1328 C1329 1.455 . S
C1328 H1388 0.930 . S
C1329 C1316 1.412 . S
C1329 C1328 1.455 . S
C1329 C1330 1.331 . S
C1330 C1319 1.451 . S
C1330 C1329 1.331 . S
C1330 C1331 1.497 . S
C1331 C1322 1.395 . S
C1331 C1326 1.446 . S
C1331 C1330 1.497 . S
C1332 C1333 1.582 . S
C1332 H1389 0.962 . S
C1332 H1390 0.959 . S
C1332 H1391 0.958 . S
C1333 C1332 1.582 . S
C1333 O1336 1.458 . S
C1333 H1362 0.980 . S
O1334 C1279 1.426 . S
O1334 C1280 1.334 . S
O1335 C1307 1.416 . S
O1335 C1308 1.393 . S
O1336 C1298 1.435 . S
O1336 C1333 1.458 . S
O1337 C1289 1.468 . S
O1337 C1290 1.408 . S
H1338 C1279 0.980 . S
H1339 C1278 0.959 . S
H1340 C1278 0.959 . S
H1341 C1278 0.960 . S
H1342 C1281 0.929 . S
H1343 C1285 0.929 . S
H1344 C1286 0.959 . S
H1345 C1286 0.961 . S
H1346 C1286 0.961 . S
H1347 C1287 0.960 . S
H1348 C1287 0.960 . S
H1349 C1287 0.961 . S
H1350 C1289 0.980 1_455 S
H1351 C1288 0.961 . S
H1352 C1288 0.960 . S
H1353 C1288 0.959 . S
H1354 C1291 0.930 1_455 S
H1355 C1295 0.931 . S
H1356 C1296 0.959 . S
H1357 C1296 0.961 . S
H1358 C1296 0.959 . S
H1359 C1297 0.960 . S
H1360 C1297 0.960 . S
H1361 C1297 0.960 . S
H1362 C1333 0.980 . S
H1363 C1299 0.930 1_455 S
H1364 C1303 0.930 . S
H1365 C1304 0.961 . S
H1366 C1304 0.960 . S
H1367 C1304 0.958 . S
H1368 C1305 0.961 . S
H1369 C1305 0.960 . S
H1370 C1305 0.960 . S
H1371 C1307 0.975 1_655 S
H1372 C1306 0.961 . S
H1373 C1306 0.961 . S
H1374 C1306 0.959 . S
H1375 C1309 0.932 . S
H1376 C1313 0.929 . S
H1377 C1314 0.961 . S
H1378 C1314 0.959 . S
H1379 C1314 0.959 . S
H1380 C1315 0.960 . S
H1381 C1315 0.962 . S
H1382 C1315 0.961 . S
H1383 C1317 0.929 . S
H1384 C1320 0.930 . S
H1385 C1321 0.929 . S
H1386 C1324 0.930 . S
H1387 C1327 0.929 . S
H1388 C1328 0.930 . S
H1389 C1332 0.962 . S
H1390 C1332 0.959 . S
H1391 C1332 0.958 . S
C1392 C1393 1.560 . S
C1392 H1453 0.959 . S
C1392 H1454 0.959 . S
C1392 H1455 0.960 . S
C1393 C1392 1.560 . S
C1393 O1448 1.426 . S
C1393 H1452 0.980 . S
C1394 C1395 1.407 . S
C1394 C1399 1.418 . S
C1394 O1448 1.334 . S
C1395 C1394 1.407 . S
C1395 C1396 1.360 . S
C1395 H1456 0.929 . S
C1396 C1395 1.360 . S
C1396 C1397 1.401 . S
C1396 C1400 1.527 . S
C1397 C1396 1.401 . S
C1397 C1398 1.405 . S
C1397 C1430 1.587 . S
C1398 C1397 1.405 . S
C1398 C1399 1.332 . S
C1398 C1401 1.496 . S
C1399 C1394 1.418 . S
C1399 C1398 1.332 . S
C1399 H1457 0.929 . S
C1400 C1396 1.527 . S
C1400 H1458 0.959 . S
C1400 H1459 0.961 . S
C1400 H1460 0.961 . S
C1401 C1398 1.496 . S
C1401 H1461 0.960 . S
C1401 H1462 0.960 . S
C1401 H1463 0.961 . S
C1402 C1403 1.517 . S
C1402 H1465 0.961 . S
C1402 H1466 0.960 . S
C1402 H1467 0.959 . S
C1403 C1402 1.517 . S
C1403 O1451 1.468 . S
C1403 H1464 0.980 . S
C1404 C1405 1.349 . S
C1404 C1409 1.367 . S
C1404 O1451 1.408 . S
C1405 C1404 1.349 . S
C1405 C1406 1.407 . S
C1405 H1468 0.930 . S
C1406 C1405 1.407 . S
C1406 C1407 1.449 . S
C1406 C1410 1.535 . S
C1407 C1406 1.449 . S
C1407 C1408 1.384 . S
C1407 C1432 1.553 . S
C1408 C1407 1.384 . S
C1408 C1409 1.364 . S
C1408 C1411 1.450 . S
C1409 C1404 1.367 . S
C1409 C1408 1.364 . S
C1409 H1469 0.931 . S
C1410 C1406 1.535 . S
C1410 H1470 0.959 . S
C1410 H1471 0.961 . S
C1410 H1472 0.959 . S
C1411 C1408 1.450 . S
C1411 H1473 0.960 . S
C1411 H1474 0.960 . S
C1411 H1475 0.960 . S
C1412 C1413 1.309 . S
C1412 C1417 1.304 . S
C1412 O1450 1.435 . S
C1413 C1412 1.309 . S
C1413 C1414 1.476 . S
C1413 H1477 0.930 . S
C1414 C1413 1.476 . S
C1414 C1415 1.400 . S
C1414 C1418 1.567 . S
C1415 C1414 1.400 . S
C1415 C1416 1.373 . S
C1415 C1437 1.432 . S
C1416 C1415 1.373 . S
C1416 C1417 1.339 . S
C1416 C1419 1.530 . S
C1417 C1412 1.304 . S
C1417 C1416 1.339 . S
C1417 H1478 0.930 . S
C1418 C1414 1.567 . S
C1418 H1479 0.961 . S
C1418 H1480 0.960 . S
C1418 H1481 0.958 . S
C1419 C1416 1.530 . S
C1419 H1482 0.961 . S
C1419 H1483 0.960 . S
C1419 H1484 0.960 . S
C1420 C1421 1.530 . S
C1420 H1486 0.961 . S
C1420 H1487 0.961 . S
C1420 H1488 0.959 . S
C1421 C1420 1.530 . S
C1421 O1449 1.412 . S
C1421 H1485 0.980 . S
C1422 C1423 1.288 . S
C1422 C1427 1.377 . S
C1422 O1449 1.393 . S
C1423 C1422 1.288 . S
C1423 C1424 1.369 . S
C1423 H1489 0.932 . S
C1424 C1423 1.369 . S
C1424 C1425 1.398 . S
C1424 C1428 1.527 . S
C1425 C1424 1.398 . S
C1425 C1426 1.380 . S
C1425 C1439 1.497 . S
C1426 C1425 1.380 . S
C1426 C1427 1.383 . S
C1426 C1429 1.603 . S
C1427 C1422 1.377 . S
C1427 C1426 1.383 . S
C1427 H1490 0.929 . S
C1428 C1424 1.527 . S
C1428 H1491 0.961 . S
C1428 H1492 0.959 . S
C1428 H1493 0.959 . S
C1429 C1426 1.603 . S
C1429 H1494 0.960 . S
C1429 H1495 0.962 . S
C1429 H1496 0.961 . S
C1430 C1397 1.587 . S
C1430 C1431 1.360 . S
C1430 C1443 1.412 . S
C1431 C1430 1.360 . S
C1431 C1432 1.365 . S
C1431 H1497 0.929 . S
C1432 C1407 1.553 . S
C1432 C1431 1.365 . S
C1432 C1433 1.404 . S
C1433 C1432 1.404 . S
C1433 C1434 1.395 . S
C1433 C1444 1.451 . S
C1434 C1433 1.395 . S
C1434 C1435 1.322 . S
C1434 H1498 0.930 . S
C1435 C1434 1.322 . S
C1435 C1436 1.459 . S
C1435 H1499 0.929 . S
C1436 C1435 1.459 . S
C1436 C1437 1.445 . S
C1436 C1445 1.395 . S
C1437 C1415 1.432 . S
C1437 C1436 1.445 . S
C1437 C1438 1.370 . S
C1438 C1437 1.370 . S
C1438 C1439 1.438 . S
C1438 H1500 0.930 . S
C1439 C1425 1.497 . S
C1439 C1438 1.438 . S
C1439 C1440 1.360 . S
C1440 C1439 1.360 . S
C1440 C1441 1.401 . S
C1440 C1445 1.446 . S
C1441 C1440 1.401 . S
C1441 C1442 1.347 . S
C1441 H1501 0.929 . S
C1442 C1441 1.347 . S
C1442 C1443 1.455 . S
C1442 H1502 0.930 . S
C1443 C1430 1.412 . S
C1443 C1442 1.455 . S
C1443 C1444 1.331 . S
C1444 C1433 1.451 . S
C1444 C1443 1.331 . S
C1444 C1445 1.497 . S
C1445 C1436 1.395 . S
C1445 C1440 1.446 . S
C1445 C1444 1.497 . S
C1446 C1447 1.582 . S
C1446 H1503 0.962 . S
C1446 H1504 0.959 . S
C1446 H1505 0.958 . S
C1447 C1446 1.582 . S
C1447 O1450 1.458 . S
C1447 H1476 0.980 . S
O1448 C1393 1.426 . S
O1448 C1394 1.334 . S
O1449 C1421 1.412 . S
O1449 C1422 1.393 . S
O1450 C1412 1.435 . S
O1450 C1447 1.458 . S
O1451 C1403 1.468 . S
O1451 C1404 1.408 . S
H1452 C1393 0.980 . S
H1453 C1392 0.959 . S
H1454 C1392 0.959 . S
H1455 C1392 0.960 . S
H1456 C1395 0.929 . S
H1457 C1399 0.929 . S
H1458 C1400 0.959 . S
H1459 C1400 0.961 . S
H1460 C1400 0.961 . S
H1461 C1401 0.960 . S
H1462 C1401 0.960 . S
H1463 C1401 0.961 . S
H1464 C1403 0.980 . S
H1465 C1402 0.961 . S
H1466 C1402 0.960 . S
H1467 C1402 0.959 . S
H1468 C1405 0.930 . S
H1469 C1409 0.931 . S
H1470 C1410 0.959 . S
H1471 C1410 0.961 . S
H1472 C1410 0.959 . S
H1473 C1411 0.960 . S
H1474 C1411 0.960 . S
H1475 C1411 0.960 . S
H1476 C1447 0.980 . S
H1477 C1413 0.930 . S
H1478 C1417 0.930 . S
H1479 C1418 0.961 . S
H1480 C1418 0.960 . S
H1481 C1418 0.958 . S
H1482 C1419 0.961 . S
H1483 C1419 0.960 . S
H1484 C1419 0.960 . S
H1485 C1421 0.980 . S
H1486 C1420 0.961 . S
H1487 C1420 0.961 . S
H1488 C1420 0.959 . S
H1489 C1423 0.932 . S
H1490 C1427 0.929 . S
H1491 C1428 0.961 . S
H1492 C1428 0.959 . S
H1493 C1428 0.959 . S
H1494 C1429 0.960 . S
H1495 C1429 0.962 . S
H1496 C1429 0.961 . S
H1497 C1431 0.929 . S
H1498 C1434 0.930 . S
H1499 C1435 0.929 . S
H1500 C1438 0.930 . S
H1501 C1441 0.929 . S
H1502 C1442 0.930 . S
H1503 C1446 0.962 . S
H1504 C1446 0.959 . S
H1505 C1446 0.958 . S
C1506 C1507 1.560 . S
C1506 H1567 0.959 . S
C1506 H1568 0.959 . S
C1506 H1569 0.960 . S
C1507 C1506 1.560 . S
C1507 O1562 1.426 . S
C1507 H1566 0.980 . S
C1508 C1509 1.407 1_565 S
C1508 C1513 1.418 . S
C1508 O1562 1.334 . S
C1509 C1508 1.407 1_545 S
C1509 C1510 1.360 . S
C1509 H1570 0.929 . S
C1510 C1509 1.360 . S
C1510 C1511 1.340 1_545 S
C1510 C1514 1.527 . S
C1511 C1510 1.340 1_565 S
C1511 C1512 1.463 . S
C1511 C1544 1.596 1_565 S
C1512 C1511 1.463 . S
C1512 C1513 1.332 . S
C1512 C1515 1.496 . S
C1513 C1508 1.418 . S
C1513 C1512 1.332 . S
C1513 H1571 0.929 . S
C1514 C1510 1.527 . S
C1514 H1572 0.959 . S
C1514 H1573 0.961 . S
C1514 H1574 0.961 . S
C1515 C1512 1.496 . S
C1515 H1575 0.960 . S
C1515 H1576 0.960 . S
C1515 H1577 0.961 . S
C1516 C1517 1.517 . S
C1516 H1579 0.972 . S
C1516 H1580 0.960 . S
C1516 H1581 0.959 . S
C1517 C1516 1.517 . S
C1517 O1565 1.468 . S
C1517 H1578 0.980 1_545 S
C1518 C1519 1.349 . S
C1518 C1523 1.367 . S
C1518 O1565 1.408 . S
C1519 C1518 1.349 . S
C1519 C1520 1.431 1_545 S
C1519 H1582 0.930 1_545 S
C1520 C1519 1.431 1_565 S
C1520 C1521 1.386 1_565 S
C1520 C1524 1.577 . S
C1521 C1520 1.386 1_545 S
C1521 C1522 1.384 . S
C1521 C1546 1.553 . S
C1522 C1521 1.384 . S
C1522 C1523 1.364 . S
C1522 C1525 1.450 . S
C1523 C1518 1.367 . S
C1523 C1522 1.364 . S
C1523 H1583 0.931 . S
C1524 C1520 1.577 . S
C1524 H1584 0.959 . S
C1524 H1585 0.961 . S
C1524 H1586 0.959 . S
C1525 C1522 1.450 . S
C1525 H1587 0.960 . S
C1525 H1588 0.960 . S
C1525 H1589 0.960 . S
C1526 C1527 1.309 . S
C1526 C1531 1.304 . S
C1526 O1564 1.435 . S
C1527 C1526 1.309 . S
C1527 C1528 1.502 1_545 S
C1527 H1591 0.930 1_545 S
C1528 C1527 1.502 1_565 S
C1528 C1529 1.318 1_565 S
C1528 C1532 1.624 . S
C1529 C1528 1.318 1_545 S
C1529 C1530 1.373 . S
C1529 C1551 1.432 . S
C1530 C1529 1.373 . S
C1530 C1531 1.339 . S
C1530 C1533 1.530 . S
C1531 C1526 1.304 . S
C1531 C1530 1.339 . S
C1531 H1592 0.930 . S
C1532 C1528 1.624 . S
C1532 H1593 0.961 . S
C1532 H1594 0.960 . S
C1532 H1595 0.958 . S
C1533 C1530 1.530 . S
C1533 H1596 0.961 . S
C1533 H1597 0.960 . S
C1533 H1598 0.960 . S
C1534 C1535 1.526 1_565 S
C1534 H1600 0.961 . S
C1534 H1601 0.961 . S
C1534 H1602 0.959 . S
C1535 C1534 1.526 1_545 S
C1535 O1563 1.381 1_545 S
C1535 H1599 0.996 . S
C1536 C1537 1.288 . S
C1536 C1541 1.377 1_565 S
C1536 O1563 1.393 . S
C1537 C1536 1.288 . S
C1537 C1538 1.369 . S
C1537 H1603 0.932 . S
C1538 C1537 1.369 . S
C1538 C1539 1.398 1_565 S
C1538 C1542 1.527 . S
C1539 C1538 1.398 1_545 S
C1539 C1540 1.380 . S
C1539 C1553 1.497 . S
C1540 C1539 1.380 . S
C1540 C1541 1.383 . S
C1540 C1543 1.603 . S
C1541 C1536 1.377 1_545 S
C1541 C1540 1.383 . S
C1541 H1604 0.929 . S
C1542 C1538 1.527 . S
C1542 H1605 0.961 . S
C1542 H1606 0.959 . S
C1542 H1607 0.959 . S
C1543 C1540 1.603 . S
C1543 H1608 0.960 . S
C1543 H1609 0.962 . S
C1543 H1610 0.961 . S
C1544 C1511 1.596 1_545 S
C1544 C1545 1.360 . S
C1544 C1557 1.412 . S
C1545 C1544 1.360 . S
C1545 C1546 1.365 . S
C1545 H1611 0.929 . S
C1546 C1521 1.553 . S
C1546 C1545 1.365 . S
C1546 C1547 1.404 . S
C1547 C1546 1.404 . S
C1547 C1548 1.395 . S
C1547 C1558 1.451 . S
C1548 C1547 1.395 . S
C1548 C1549 1.322 . S
C1548 H1612 0.930 . S
C1549 C1548 1.322 . S
C1549 C1550 1.459 . S
C1549 H1613 0.929 . S
C1550 C1549 1.459 . S
C1550 C1551 1.445 . S
C1550 C1559 1.395 . S
C1551 C1529 1.432 . S
C1551 C1550 1.445 . S
C1551 C1552 1.370 . S
C1552 C1551 1.370 . S
C1552 C1553 1.438 . S
C1552 H1614 0.930 . S
C1553 C1539 1.497 . S
C1553 C1552 1.438 . S
C1553 C1554 1.360 . S
C1554 C1553 1.360 . S
C1554 C1555 1.401 . S
C1554 C1559 1.446 . S
C1555 C1554 1.401 . S
C1555 C1556 1.347 . S
C1555 H1615 0.929 . S
C1556 C1555 1.347 . S
C1556 C1557 1.455 . S
C1556 H1616 0.930 . S
C1557 C1544 1.412 . S
C1557 C1556 1.455 . S
C1557 C1558 1.331 . S
C1558 C1547 1.451 . S
C1558 C1557 1.331 . S
C1558 C1559 1.497 . S
C1559 C1550 1.395 . S
C1559 C1554 1.446 . S
C1559 C1558 1.497 . S
C1560 C1561 1.582 . S
C1560 H1617 0.962 . S
C1560 H1618 0.959 . S
C1560 H1619 0.958 . S
C1561 C1560 1.582 . S
C1561 O1564 1.458 . S
C1561 H1590 0.980 . S
O1562 C1507 1.426 . S
O1562 C1508 1.334 . S
O1563 C1535 1.381 1_565 S
O1563 C1536 1.393 . S
O1564 C1526 1.435 . S
O1564 C1561 1.458 . S
O1565 C1517 1.468 . S
O1565 C1518 1.408 . S
H1566 C1507 0.980 . S
H1567 C1506 0.959 . S
H1568 C1506 0.959 . S
H1569 C1506 0.960 . S
H1570 C1509 0.929 . S
H1571 C1513 0.929 . S
H1572 C1514 0.959 . S
H1573 C1514 0.961 . S
H1574 C1514 0.961 . S
H1575 C1515 0.960 . S
H1576 C1515 0.960 . S
H1577 C1515 0.961 . S
H1578 C1517 0.980 1_565 S
H1579 C1516 0.972 . S
H1580 C1516 0.960 . S
H1581 C1516 0.959 . S
H1582 C1519 0.930 1_565 S
H1583 C1523 0.931 . S
H1584 C1524 0.959 . S
H1585 C1524 0.961 . S
H1586 C1524 0.959 . S
H1587 C1525 0.960 . S
H1588 C1525 0.960 . S
H1589 C1525 0.960 . S
H1590 C1561 0.980 . S
H1591 C1527 0.930 1_565 S
H1592 C1531 0.930 . S
H1593 C1532 0.961 . S
H1594 C1532 0.960 . S
H1595 C1532 0.958 . S
H1596 C1533 0.961 . S
H1597 C1533 0.960 . S
H1598 C1533 0.960 . S
H1599 C1535 0.996 . S
H1600 C1534 0.961 . S
H1601 C1534 0.961 . S
H1602 C1534 0.959 . S
H1603 C1537 0.932 . S
H1604 C1541 0.929 . S
H1605 C1542 0.961 . S
H1606 C1542 0.959 . S
H1607 C1542 0.959 . S
H1608 C1543 0.960 . S
H1609 C1543 0.962 . S
H1610 C1543 0.961 . S
H1611 C1545 0.929 . S
H1612 C1548 0.930 . S
H1613 C1549 0.929 . S
H1614 C1552 0.930 . S
H1615 C1555 0.929 . S
H1616 C1556 0.930 . S
H1617 C1560 0.962 . S
H1618 C1560 0.959 . S
H1619 C1560 0.958 . S
C1620 C1621 1.560 . S
C1620 H1681 0.959 . S
C1620 H1682 0.959 . S
C1620 H1683 0.960 . S
C1621 C1620 1.560 . S
C1621 O1676 1.426 . S
C1621 H1680 0.980 1_565 S
C1622 C1623 1.407 1_565 S
C1622 C1627 1.418 . S
C1622 O1676 1.334 . S
C1623 C1622 1.407 1_545 S
C1623 C1624 1.360 . S
C1623 H1684 0.929 . S
C1624 C1623 1.360 . S
C1624 C1625 1.401 . S
C1624 C1628 1.527 . S
C1625 C1624 1.401 . S
C1625 C1626 1.405 1_545 S
C1625 C1658 1.587 . S
C1626 C1625 1.405 1_565 S
C1626 C1627 1.332 . S
C1626 C1629 1.496 . S
C1627 C1622 1.418 . S
C1627 C1626 1.332 . S
C1627 H1685 0.929 . S
C1628 C1624 1.527 . S
C1628 H1686 0.959 . S
C1628 H1687 0.961 . S
C1628 H1688 0.961 . S
C1629 C1626 1.496 . S
C1629 H1689 0.960 . S
C1629 H1690 0.960 . S
C1629 H1691 0.961 . S
C1630 C1631 1.517 . S
C1630 H1693 0.961 . S
C1630 H1694 0.960 . S
C1630 H1695 0.959 . S
C1631 C1630 1.517 . S
C1631 O1679 1.468 . S
C1631 H1692 0.980 . S
C1632 C1633 1.349 . S
C1632 C1637 1.367 . S
C1632 O1679 1.408 . S
C1633 C1632 1.349 . S
C1633 C1634 1.407 . S
C1633 H1696 0.905 1_545 S
C1634 C1633 1.407 . S
C1634 C1635 1.449 . S
C1634 C1638 1.535 1_545 S
C1635 C1634 1.449 . S
C1635 C1636 1.384 . S
C1635 C1660 1.553 . S
C1636 C1635 1.384 . S
C1636 C1637 1.364 . S
C1636 C1639 1.450 . S
C1637 C1632 1.367 . S
C1637 C1636 1.364 . S
C1637 H1697 0.931 . S
C1638 C1634 1.535 1_565 S
C1638 H1698 0.959 . S
C1638 H1699 0.961 . S
C1638 H1700 0.959 . S
C1639 C1636 1.450 . S
C1639 H1701 0.960 . S
C1639 H1702 0.960 . S
C1639 H1703 0.960 . S
C1640 C1641 1.309 1_545 S
C1640 C1645 1.304 . S
C1640 O1678 1.435 . S
C1641 C1640 1.309 1_565 S
C1641 C1642 1.476 . S
C1641 H1705 0.930 . S
C1642 C1641 1.476 . S
C1642 C1643 1.400 1_565 S
C1642 C1646 1.567 . S
C1643 C1642 1.400 1_545 S
C1643 C1644 1.373 . S
C1643 C1665 1.432 . S
C1644 C1643 1.373 . S
C1644 C1645 1.339 . S
C1644 C1647 1.530 . S
C1645 C1640 1.304 . S
C1645 C1644 1.339 . S
C1645 H1706 0.930 . S
C1646 C1642 1.567 . S
C1646 H1707 0.961 . S
C1646 H1708 0.960 . S
C1646 H1709 0.958 . S
C1647 C1644 1.530 . S
C1647 H1710 0.961 . S
C1647 H1711 0.960 . S
C1647 H1712 0.960 . S
C1648 C1649 1.530 . S
C1648 H1714 0.961 . S
C1648 H1715 0.961 . S
C1648 H1716 0.959 . S
C1649 C1648 1.530 . S
C1649 O1677 1.412 . S
C1649 H1713 0.979 1_565 S
C1650 C1651 1.288 . S
C1650 C1655 1.377 1_565 S
C1650 O1677 1.393 . S
C1651 C1650 1.288 . S
C1651 C1652 1.369 . S
C1651 H1717 0.932 . S
C1652 C1651 1.369 . S
C1652 C1653 1.398 . S
C1652 C1656 1.527 . S
C1653 C1652 1.398 . S
C1653 C1654 1.380 1_565 S
C1653 C1667 1.497 1_565 S
C1654 C1653 1.380 1_545 S
C1654 C1655 1.383 . S
C1654 C1657 1.603 . S
C1655 C1650 1.377 1_545 S
C1655 C1654 1.383 . S
C1655 H1718 0.929 . S
C1656 C1652 1.527 . S
C1656 H1719 0.961 . S
C1656 H1720 0.959 . S
C1656 H1721 0.959 . S
C1657 C1654 1.603 . S
C1657 H1722 0.960 . S
C1657 H1723 0.962 . S
C1657 H1724 0.961 . S
C1658 C1625 1.587 . S
C1658 C1659 1.360 . S
C1658 C1671 1.412 . S
C1659 C1658 1.360 . S
C1659 C1660 1.365 . S
C1659 H1725 0.929 . S
C1660 C1635 1.553 . S
C1660 C1659 1.365 . S
C1660 C1661 1.404 . S
C1661 C1660 1.404 . S
C1661 C1662 1.395 . S
C1661 C1672 1.451 . S
C1662 C1661 1.395 . S
C1662 C1663 1.322 . S
C1662 H1726 0.930 . S
C1663 C1662 1.322 . S
C1663 C1664 1.459 . S
C1663 H1727 0.929 . S
C1664 C1663 1.459 . S
C1664 C1665 1.445 . S
C1664 C1673 1.395 . S
C1665 C1643 1.432 . S
C1665 C1664 1.445 . S
C1665 C1666 1.370 . S
C1666 C1665 1.370 . S
C1666 C1667 1.438 . S
C1666 H1728 0.930 . S
C1667 C1653 1.497 1_545 S
C1667 C1666 1.438 . S
C1667 C1668 1.360 . S
C1668 C1667 1.360 . S
C1668 C1669 1.401 . S
C1668 C1673 1.446 . S
C1669 C1668 1.401 . S
C1669 C1670 1.347 . S
C1669 H1729 0.975 . S
C1670 C1669 1.347 . S
C1670 C1671 1.455 . S
C1670 H1730 0.930 . S
C1671 C1658 1.412 . S
C1671 C1670 1.455 . S
C1671 C1672 1.331 . S
C1672 C1661 1.451 . S
C1672 C1671 1.331 . S
C1672 C1673 1.497 . S
C1673 C1664 1.395 . S
C1673 C1668 1.446 . S
C1673 C1672 1.497 . S
C1674 C1675 1.582 . S
C1674 H1731 0.962 . S
C1674 H1732 0.959 . S
C1674 H1733 0.958 . S
C1675 C1674 1.582 . S
C1675 O1678 1.458 . S
C1675 H1704 0.980 1_545 S
O1676 C1621 1.426 . S
O1676 C1622 1.334 . S
O1677 C1649 1.412 . S
O1677 C1650 1.393 . S
O1678 C1640 1.435 . S
O1678 C1675 1.458 . S
O1679 C1631 1.468 . S
O1679 C1632 1.408 . S
H1680 C1621 0.980 1_545 S
H1681 C1620 0.959 . S
H1682 C1620 0.959 . S
H1683 C1620 0.960 . S
H1684 C1623 0.929 . S
H1685 C1627 0.929 . S
H1686 C1628 0.959 . S
H1687 C1628 0.961 . S
H1688 C1628 0.961 . S
H1689 C1629 0.960 . S
H1690 C1629 0.960 . S
H1691 C1629 0.961 . S
H1692 C1631 0.980 . S
H1693 C1630 0.961 . S
H1694 C1630 0.960 . S
H1695 C1630 0.959 . S
H1696 C1633 0.905 1_565 S
H1697 C1637 0.931 . S
H1698 C1638 0.959 . S
H1699 C1638 0.961 . S
H1700 C1638 0.959 . S
H1701 C1639 0.960 . S
H1702 C1639 0.960 . S
H1703 C1639 0.960 . S
H1704 C1675 0.980 1_565 S
H1705 C1641 0.930 . S
H1706 C1645 0.930 . S
H1707 C1646 0.961 . S
H1708 C1646 0.960 . S
H1709 C1646 0.958 . S
H1710 C1647 0.961 . S
H1711 C1647 0.960 . S
H1712 C1647 0.960 . S
H1713 C1649 0.979 1_545 S
H1714 C1648 0.961 . S
H1715 C1648 0.961 . S
H1716 C1648 0.959 . S
H1717 C1651 0.932 . S
H1718 C1655 0.929 . S
H1719 C1656 0.961 . S
H1720 C1656 0.959 . S
H1721 C1656 0.959 . S
H1722 C1657 0.960 . S
H1723 C1657 0.962 . S
H1724 C1657 0.961 . S
H1725 C1659 0.929 . S
H1726 C1662 0.930 . S
H1727 C1663 0.929 . S
H1728 C1666 0.930 . S
H1729 C1669 0.975 . S
H1730 C1670 0.930 . S
H1731 C1674 0.962 . S
H1732 C1674 0.959 . S
H1733 C1674 0.958 . S
C1734 C1735 1.560 . S
C1734 H1795 0.959 . S
C1734 H1796 0.959 . S
C1734 H1797 0.960 . S
C1735 C1734 1.560 . S
C1735 O1790 1.426 . S
C1735 H1794 0.980 1_455 S
C1736 C1737 1.407 1_455 S
C1736 C1741 1.418 . S
C1736 O1790 1.334 . S
C1737 C1736 1.407 1_655 S
C1737 C1738 1.360 . S
C1737 H1798 0.929 . S
C1738 C1737 1.360 . S
C1738 C1739 1.401 . S
C1738 C1742 1.527 . S
C1739 C1738 1.401 . S
C1739 C1740 1.405 1_655 S
C1739 C1772 1.587 . S
C1740 C1739 1.405 1_455 S
C1740 C1741 1.332 . S
C1740 C1743 1.496 . S
C1741 C1736 1.418 . S
C1741 C1740 1.332 . S
C1741 H1799 0.929 . S
C1742 C1738 1.527 . S
C1742 H1800 0.959 . S
C1742 H1801 0.961 . S
C1742 H1802 0.961 . S
C1743 C1740 1.496 . S
C1743 H1803 0.960 . S
C1743 H1804 0.960 . S
C1743 H1805 0.961 . S
C1744 C1745 1.517 . S
C1744 H1807 0.961 . S
C1744 H1808 0.960 . S
C1744 H1809 0.959 . S
C1745 C1744 1.517 . S
C1745 O1793 1.468 . S
C1745 H1806 0.980 . S
C1746 C1747 1.349 . S
C1746 C1751 1.367 . S
C1746 O1793 1.408 . S
C1747 C1746 1.349 . S
C1747 C1748 1.407 . S
C1747 H1810 0.862 1_655 S
C1748 C1747 1.407 . S
C1748 C1749 1.449 . S
C1748 C1752 1.535 1_655 S
C1749 C1748 1.449 . S
C1749 C1750 1.384 . S
C1749 C1774 1.553 . S
C1750 C1749 1.384 . S
C1750 C1751 1.364 . S
C1750 C1753 1.450 . S
C1751 C1746 1.367 . S
C1751 C1750 1.364 . S
C1751 H1811 0.931 . S
C1752 C1748 1.535 1_455 S
C1752 H1812 0.959 . S
C1752 H1813 0.961 . S
C1752 H1814 0.959 . S
C1753 C1750 1.450 . S
C1753 H1815 0.960 . S
C1753 H1816 0.960 . S
C1753 H1817 0.960 . S
C1754 C1755 1.309 1_655 S
C1754 C1759 1.304 . S
C1754 O1792 1.435 . S
C1755 C1754 1.309 1_455 S
C1755 C1756 1.476 . S
C1755 H1819 0.930 . S
C1756 C1755 1.476 . S
C1756 C1757 1.400 1_455 S
C1756 C1760 1.567 . S
C1757 C1756 1.400 1_655 S
C1757 C1758 1.373 . S
C1757 C1779 1.432 . S
C1758 C1757 1.373 . S
C1758 C1759 1.339 . S
C1758 C1761 1.530 . S
C1759 C1754 1.304 . S
C1759 C1758 1.339 . S
C1759 H1820 0.930 . S
C1760 C1756 1.567 . S
C1760 H1821 0.961 . S
C1760 H1822 0.960 . S
C1760 H1823 0.958 . S
C1761 C1758 1.530 . S
C1761 H1824 0.961 . S
C1761 H1825 0.960 . S
C1761 H1826 0.960 . S
C1762 C1763 1.530 . S
C1762 H1828 0.961 . S
C1762 H1829 0.961 . S
C1762 H1830 0.959 . S
C1763 C1762 1.530 . S
C1763 O1791 1.412 . S
C1763 H1827 0.964 1_455 S
C1764 C1765 1.288 . S
C1764 C1769 1.377 1_455 S
C1764 O1791 1.393 . S
C1765 C1764 1.288 . S
C1765 C1766 1.369 . S
C1765 H1831 0.932 . S
C1766 C1765 1.369 . S
C1766 C1767 1.398 . S
C1766 C1770 1.527 . S
C1767 C1766 1.398 . S
C1767 C1768 1.380 1_455 S
C1767 C1781 1.497 1_455 S
C1768 C1767 1.380 1_655 S
C1768 C1769 1.383 . S
C1768 C1771 1.603 . S
C1769 C1764 1.377 1_655 S
C1769 C1768 1.383 . S
C1769 H1832 0.929 . S
C1770 C1766 1.527 . S
C1770 H1833 0.961 . S
C1770 H1834 0.959 . S
C1770 H1835 0.959 . S
C1771 C1768 1.603 . S
C1771 H1836 0.960 . S
C1771 H1837 0.962 . S
C1771 H1838 0.961 . S
C1772 C1739 1.587 . S
C1772 C1773 1.360 . S
C1772 C1785 1.412 . S
C1773 C1772 1.360 . S
C1773 C1774 1.365 . S
C1773 H1839 0.929 . S
C1774 C1749 1.553 . S
C1774 C1773 1.365 . S
C1774 C1775 1.404 . S
C1775 C1774 1.404 . S
C1775 C1776 1.395 . S
C1775 C1786 1.451 . S
C1776 C1775 1.395 . S
C1776 C1777 1.322 . S
C1776 H1840 0.930 . S
C1777 C1776 1.322 . S
C1777 C1778 1.459 . S
C1777 H1841 0.929 . S
C1778 C1777 1.459 . S
C1778 C1779 1.445 . S
C1778 C1787 1.395 . S
C1779 C1757 1.432 . S
C1779 C1778 1.445 . S
C1779 C1780 1.370 . S
C1780 C1779 1.370 . S
C1780 C1781 1.438 . S
C1780 H1842 0.930 . S
C1781 C1767 1.497 1_655 S
C1781 C1780 1.438 . S
C1781 C1782 1.360 . S
C1782 C1781 1.360 . S
C1782 C1783 1.401 . S
C1782 C1787 1.446 . S
C1783 C1782 1.401 . S
C1783 C1784 1.347 . S
C1783 H1843 0.929 . S
C1784 C1783 1.347 . S
C1784 C1785 1.455 . S
C1784 H1844 0.930 . S
C1785 C1772 1.412 . S
C1785 C1784 1.455 . S
C1785 C1786 1.331 . S
C1786 C1775 1.451 . S
C1786 C1785 1.331 . S
C1786 C1787 1.497 . S
C1787 C1778 1.395 . S
C1787 C1782 1.446 . S
C1787 C1786 1.497 . S
C1788 C1789 1.583 . S
C1788 H1845 0.962 . S
C1788 H1846 0.959 . S
C1788 H1847 0.958 . S
C1789 C1788 1.583 . S
C1789 O1792 1.485 . S
C1789 H1818 0.970 1_655 S
O1790 C1735 1.426 . S
O1790 C1736 1.334 . S
O1791 C1763 1.412 . S
O1791 C1764 1.393 . S
O1792 C1754 1.435 . S
O1792 C1789 1.485 . S
O1793 C1745 1.468 . S
O1793 C1746 1.408 . S
H1794 C1735 0.980 1_655 S
H1795 C1734 0.959 . S
H1796 C1734 0.959 . S
H1797 C1734 0.960 . S
H1798 C1737 0.929 . S
H1799 C1741 0.929 . S
H1800 C1742 0.959 . S
H1801 C1742 0.961 . S
H1802 C1742 0.961 . S
H1803 C1743 0.960 . S
H1804 C1743 0.960 . S
H1805 C1743 0.961 . S
H1806 C1745 0.980 . S
H1807 C1744 0.961 . S
H1808 C1744 0.960 . S
H1809 C1744 0.959 . S
H1810 C1747 0.862 1_455 S
H1811 C1751 0.931 . S
H1812 C1752 0.959 . S
H1813 C1752 0.961 . S
H1814 C1752 0.959 . S
H1815 C1753 0.960 . S
H1816 C1753 0.960 . S
H1817 C1753 0.960 . S
H1818 C1789 0.970 1_455 S
H1819 C1755 0.930 . S
H1820 C1759 0.930 . S
H1821 C1760 0.961 . S
H1822 C1760 0.960 . S
H1823 C1760 0.958 . S
H1824 C1761 0.961 . S
H1825 C1761 0.960 . S
H1826 C1761 0.960 . S
H1827 C1763 0.964 1_655 S
H1828 C1762 0.961 . S
H1829 C1762 0.961 . S
H1830 C1762 0.959 . S
H1831 C1765 0.932 . S
H1832 C1769 0.929 . S
H1833 C1770 0.961 . S
H1834 C1770 0.959 . S
H1835 C1770 0.959 . S
H1836 C1771 0.960 . S
H1837 C1771 0.962 . S
H1838 C1771 0.961 . S
H1839 C1773 0.929 . S
H1840 C1776 0.930 . S
H1841 C1777 0.929 . S
H1842 C1780 0.930 . S
H1843 C1783 0.929 . S
H1844 C1784 0.930 . S
H1845 C1788 0.962 . S
H1846 C1788 0.959 . S
H1847 C1788 0.958 . S
C1848 C1849 1.560 . S
C1848 H1909 0.959 . S
C1848 H1910 0.959 . S
C1848 H1911 0.960 . S
C1849 C1848 1.560 . S
C1849 O1904 1.426 . S
C1849 H1908 0.980 . S
C1850 C1851 1.407 . S
C1850 C1855 1.418 . S
C1850 O1904 1.334 . S
C1851 C1850 1.407 . S
C1851 C1852 1.360 . S
C1851 H1912 0.929 . S
C1852 C1851 1.360 . S
C1852 C1853 1.401 . S
C1852 C1856 1.527 . S
C1853 C1852 1.401 . S
C1853 C1854 1.405 . S
C1853 C1886 1.587 . S
C1854 C1853 1.405 . S
C1854 C1855 1.332 . S
C1854 C1857 1.496 . S
C1855 C1850 1.418 . S
C1855 C1854 1.332 . S
C1855 H1913 0.929 . S
C1856 C1852 1.527 . S
C1856 H1914 0.959 . S
C1856 H1915 0.961 . S
C1856 H1916 0.961 . S
C1857 C1854 1.496 . S
C1857 H1917 0.960 . S
C1857 H1918 0.960 . S
C1857 H1919 0.961 . S
C1858 C1859 1.517 . S
C1858 H1921 0.961 . S
C1858 H1922 0.960 . S
C1858 H1923 0.959 . S
C1859 C1858 1.517 . S
C1859 O1907 1.468 . S
C1859 H1920 0.980 . S
C1860 C1861 1.349 . S
C1860 C1865 1.367 . S
C1860 O1907 1.408 . S
C1861 C1860 1.349 . S
C1861 C1862 1.407 . S
C1861 H1924 0.930 . S
C1862 C1861 1.407 . S
C1862 C1863 1.449 . S
C1862 C1866 1.535 . S
C1863 C1862 1.449 . S
C1863 C1864 1.384 . S
C1863 C1888 1.553 . S
C1864 C1863 1.384 . S
C1864 C1865 1.364 . S
C1864 C1867 1.450 . S
C1865 C1860 1.367 . S
C1865 C1864 1.364 . S
C1865 H1925 0.931 . S
C1866 C1862 1.535 . S
C1866 H1926 0.959 . S
C1866 H1927 0.961 . S
C1866 H1928 0.959 . S
C1867 C1864 1.450 . S
C1867 H1929 0.960 . S
C1867 H1930 0.960 . S
C1867 H1931 0.960 . S
C1868 C1869 1.309 . S
C1868 C1873 1.304 . S
C1868 O1906 1.435 . S
C1869 C1868 1.309 . S
C1869 C1870 1.476 . S
C1869 H1933 0.930 . S
C1870 C1869 1.476 . S
C1870 C1871 1.400 . S
C1870 C1874 1.567 . S
C1871 C1870 1.400 . S
C1871 C1872 1.373 . S
C1871 C1893 1.432 . S
C1872 C1871 1.373 . S
C1872 C1873 1.339 . S
C1872 C1875 1.530 . S
C1873 C1868 1.304 . S
C1873 C1872 1.339 . S
C1873 H1934 0.930 . S
C1874 C1870 1.567 . S
C1874 H1935 0.961 . S
C1874 H1936 0.960 . S
C1874 H1937 0.958 . S
C1875 C1872 1.530 . S
C1875 H1938 0.961 . S
C1875 H1939 0.960 . S
C1875 H1940 0.960 . S
C1876 C1877 1.530 . S
C1876 H1942 0.961 . S
C1876 H1943 0.961 . S
C1876 H1944 0.959 . S
C1877 C1876 1.530 . S
C1877 O1905 1.412 . S
C1877 H1941 0.980 . S
C1878 C1879 1.288 . S
C1878 C1883 1.377 . S
C1878 O1905 1.393 . S
C1879 C1878 1.288 . S
C1879 C1880 1.369 . S
C1879 H1945 0.932 . S
C1880 C1879 1.369 . S
C1880 C1881 1.398 . S
C1880 C1884 1.527 . S
C1881 C1880 1.398 . S
C1881 C1882 1.380 . S
C1881 C1895 1.497 . S
C1882 C1881 1.380 . S
C1882 C1883 1.383 . S
C1882 C1885 1.603 . S
C1883 C1878 1.377 . S
C1883 C1882 1.383 . S
C1883 H1946 0.929 . S
C1884 C1880 1.527 . S
C1884 H1947 0.961 . S
C1884 H1948 0.959 . S
C1884 H1949 0.959 . S
C1885 C1882 1.603 . S
C1885 H1950 0.960 . S
C1885 H1951 0.962 . S
C1885 H1952 0.961 . S
C1886 C1853 1.587 . S
C1886 C1887 1.360 . S
C1886 C1899 1.412 . S
C1887 C1886 1.360 . S
C1887 C1888 1.365 . S
C1887 H1953 0.929 . S
C1888 C1863 1.553 . S
C1888 C1887 1.365 . S
C1888 C1889 1.404 . S
C1889 C1888 1.404 . S
C1889 C1890 1.395 . S
C1889 C1900 1.451 . S
C1890 C1889 1.395 . S
C1890 C1891 1.322 . S
C1890 H1954 0.930 . S
C1891 C1890 1.322 . S
C1891 C1892 1.459 . S
C1891 H1955 0.929 . S
C1892 C1891 1.459 . S
C1892 C1893 1.445 . S
C1892 C1901 1.395 . S
C1893 C1871 1.432 . S
C1893 C1892 1.445 . S
C1893 C1894 1.370 . S
C1894 C1893 1.370 . S
C1894 C1895 1.438 . S
C1894 H1956 0.930 . S
C1895 C1881 1.497 . S
C1895 C1894 1.438 . S
C1895 C1896 1.360 . S
C1896 C1895 1.360 . S
C1896 C1897 1.401 . S
C1896 C1901 1.446 . S
C1897 C1896 1.401 . S
C1897 C1898 1.347 . S
C1897 H1957 0.929 . S
C1898 C1897 1.347 . S
C1898 C1899 1.455 . S
C1898 H1958 0.930 . S
C1899 C1886 1.412 . S
C1899 C1898 1.455 . S
C1899 C1900 1.331 . S
C1900 C1889 1.451 . S
C1900 C1899 1.331 . S
C1900 C1901 1.497 . S
C1901 C1892 1.395 . S
C1901 C1896 1.446 . S
C1901 C1900 1.497 . S
C1902 C1903 1.582 . S
C1902 H1959 0.962 . S
C1902 H1960 0.959 . S
C1902 H1961 0.958 . S
C1903 C1902 1.582 . S
C1903 O1906 1.458 . S
C1903 H1932 0.980 . S
O1904 C1849 1.426 . S
O1904 C1850 1.334 . S
O1905 C1877 1.412 . S
O1905 C1878 1.393 . S
O1906 C1868 1.435 . S
O1906 C1903 1.458 . S
O1907 C1859 1.468 . S
O1907 C1860 1.408 . S
H1908 C1849 0.980 . S
H1909 C1848 0.959 . S
H1910 C1848 0.959 . S
H1911 C1848 0.960 . S
H1912 C1851 0.929 . S
H1913 C1855 0.929 . S
H1914 C1856 0.959 . S
H1915 C1856 0.961 . S
H1916 C1856 0.961 . S
H1917 C1857 0.960 . S
H1918 C1857 0.960 . S
H1919 C1857 0.961 . S
H1920 C1859 0.980 . S
H1921 C1858 0.961 . S
H1922 C1858 0.960 . S
H1923 C1858 0.959 . S
H1924 C1861 0.930 . S
H1925 C1865 0.931 . S
H1926 C1866 0.959 . S
H1927 C1866 0.961 . S
H1928 C1866 0.959 . S
H1929 C1867 0.960 . S
H1930 C1867 0.960 . S
H1931 C1867 0.960 . S
H1932 C1903 0.980 . S
H1933 C1869 0.930 . S
H1934 C1873 0.930 . S
H1935 C1874 0.961 . S
H1936 C1874 0.960 . S
H1937 C1874 0.958 . S
H1938 C1875 0.961 . S
H1939 C1875 0.960 . S
H1940 C1875 0.960 . S
H1941 C1877 0.980 . S
H1942 C1876 0.961 . S
H1943 C1876 0.961 . S
H1944 C1876 0.959 . S
H1945 C1879 0.932 . S
H1946 C1883 0.929 . S
H1947 C1884 0.961 . S
H1948 C1884 0.959 . S
H1949 C1884 0.959 . S
H1950 C1885 0.960 . S
H1951 C1885 0.962 . S
H1952 C1885 0.961 . S
H1953 C1887 0.929 . S
H1954 C1890 0.930 . S
H1955 C1891 0.929 . S
H1956 C1894 0.930 . S
H1957 C1897 0.929 . S
H1958 C1898 0.930 . S
H1959 C1902 0.962 . S
H1960 C1902 0.959 . S
H1961 C1902 0.958 . S
C1962 C1963 1.560 . S
C1962 H2023 0.959 . S
C1962 H2024 0.959 . S
C1962 H2025 0.960 . S
C1963 C1962 1.560 . S
C1963 O2018 1.426 . S
C1963 H2022 0.980 . S
C1964 C1965 1.407 . S
C1964 C1969 1.418 . S
C1964 O2018 1.334 . S
C1965 C1964 1.407 . S
C1965 C1966 1.360 . S
C1965 H2026 0.929 . S
C1966 C1965 1.360 . S
C1966 C1967 1.401 . S
C1966 C1970 1.527 . S
C1967 C1966 1.401 . S
C1967 C1968 1.405 . S
C1967 C2000 1.587 . S
C1968 C1967 1.405 . S
C1968 C1969 1.332 . S
C1968 C1971 1.496 . S
C1969 C1964 1.418 . S
C1969 C1968 1.332 . S
C1969 H2027 0.929 . S
C1970 C1966 1.527 . S
C1970 H2028 0.959 . S
C1970 H2029 0.961 . S
C1970 H2030 0.961 . S
C1971 C1968 1.496 . S
C1971 H2031 0.960 . S
C1971 H2032 0.960 . S
C1971 H2033 0.961 . S
C1972 C1973 1.517 . S
C1972 H2035 0.961 . S
C1972 H2036 0.960 . S
C1972 H2037 0.959 . S
C1973 C1972 1.517 . S
C1973 O2021 1.468 . S
C1973 H2034 0.980 . S
C1974 C1975 1.349 . S
C1974 C1979 1.367 . S
C1974 O2021 1.408 . S
C1975 C1974 1.349 . S
C1975 C1976 1.407 . S
C1975 H2038 0.930 . S
C1976 C1975 1.407 . S
C1976 C1977 1.449 . S
C1976 C1980 1.535 . S
C1977 C1976 1.449 . S
C1977 C1978 1.384 . S
C1977 C2002 1.553 . S
C1978 C1977 1.384 . S
C1978 C1979 1.364 . S
C1978 C1981 1.450 . S
C1979 C1974 1.367 . S
C1979 C1978 1.364 . S
C1979 H2039 0.931 . S
C1980 C1976 1.535 . S
C1980 H2040 0.959 . S
C1980 H2041 0.961 . S
C1980 H2042 0.959 . S
C1981 C1978 1.450 . S
C1981 H2043 0.960 . S
C1981 H2044 0.960 . S
C1981 H2045 0.960 . S
C1982 C1983 1.309 . S
C1982 C1987 1.304 . S
C1982 O2020 1.435 . S
C1983 C1982 1.309 . S
C1983 C1984 1.476 . S
C1983 H2047 0.930 . S
C1984 C1983 1.476 . S
C1984 C1985 1.400 . S
C1984 C1988 1.567 . S
C1985 C1984 1.400 . S
C1985 C1986 1.373 . S
C1985 C2007 1.432 . S
C1986 C1985 1.373 . S
C1986 C1987 1.339 . S
C1986 C1989 1.530 . S
C1987 C1982 1.304 . S
C1987 C1986 1.339 . S
C1987 H2048 0.930 . S
C1988 C1984 1.567 . S
C1988 H2049 0.961 . S
C1988 H2050 0.960 . S
C1988 H2051 0.958 . S
C1989 C1986 1.530 . S
C1989 H2052 0.961 . S
C1989 H2053 0.960 . S
C1989 H2054 0.960 . S
C1990 C1991 1.530 . S
C1990 H2056 0.961 . S
C1990 H2057 0.961 . S
C1990 H2058 0.959 . S
C1991 C1990 1.530 . S
C1991 O2019 1.412 . S
C1991 H2055 0.980 . S
C1992 C1993 1.288 . S
C1992 C1997 1.377 . S
C1992 O2019 1.393 . S
C1993 C1992 1.288 . S
C1993 C1994 1.369 . S
C1993 H2059 0.932 . S
C1994 C1993 1.369 . S
C1994 C1995 1.398 . S
C1994 C1998 1.527 . S
C1995 C1994 1.398 . S
C1995 C1996 1.380 . S
C1995 C2009 1.497 . S
C1996 C1995 1.380 . S
C1996 C1997 1.383 . S
C1996 C1999 1.603 . S
C1997 C1992 1.377 . S
C1997 C1996 1.383 . S
C1997 H2060 0.929 . S
C1998 C1994 1.527 . S
C1998 H2061 0.961 . S
C1998 H2062 0.959 . S
C1998 H2063 0.959 . S
C1999 C1996 1.603 . S
C1999 H2064 0.960 . S
C1999 H2065 0.962 . S
C1999 H2066 0.961 . S
C2000 C1967 1.587 . S
C2000 C2001 1.360 . S
C2000 C2013 1.412 . S
C2001 C2000 1.360 . S
C2001 C2002 1.365 . S
C2001 H2067 0.929 . S
C2002 C1977 1.553 . S
C2002 C2001 1.365 . S
C2002 C2003 1.404 . S
C2003 C2002 1.404 . S
C2003 C2004 1.395 . S
C2003 C2014 1.451 . S
C2004 C2003 1.395 . S
C2004 C2005 1.322 . S
C2004 H2068 0.930 . S
C2005 C2004 1.322 . S
C2005 C2006 1.459 . S
C2005 H2069 0.929 . S
C2006 C2005 1.459 . S
C2006 C2007 1.445 . S
C2006 C2015 1.395 . S
C2007 C1985 1.432 . S
C2007 C2006 1.445 . S
C2007 C2008 1.370 . S
C2008 C2007 1.370 . S
C2008 C2009 1.438 . S
C2008 H2070 0.930 . S
C2009 C1995 1.497 . S
C2009 C2008 1.438 . S
C2009 C2010 1.360 . S
C2010 C2009 1.360 . S
C2010 C2011 1.401 . S
C2010 C2015 1.446 . S
C2011 C2010 1.401 . S
C2011 C2012 1.347 . S
C2011 H2071 0.929 . S
C2012 C2011 1.347 . S
C2012 C2013 1.455 . S
C2012 H2072 0.930 . S
C2013 C2000 1.412 . S
C2013 C2012 1.455 . S
C2013 C2014 1.331 . S
C2014 C2003 1.451 . S
C2014 C2013 1.331 . S
C2014 C2015 1.497 . S
C2015 C2006 1.395 . S
C2015 C2010 1.446 . S
C2015 C2014 1.497 . S
C2016 C2017 1.582 . S
C2016 H2073 0.962 . S
C2016 H2074 0.959 . S
C2016 H2075 0.958 . S
C2017 C2016 1.582 . S
C2017 O2020 1.458 . S
C2017 H2046 0.980 . S
O2018 C1963 1.426 . S
O2018 C1964 1.334 . S
O2019 C1991 1.412 . S
O2019 C1992 1.393 . S
O2020 C1982 1.435 . S
O2020 C2017 1.458 . S
O2021 C1973 1.468 . S
O2021 C1974 1.408 . S
H2022 C1963 0.980 . S
H2023 C1962 0.959 . S
H2024 C1962 0.959 . S
H2025 C1962 0.960 . S
H2026 C1965 0.929 . S
H2027 C1969 0.929 . S
H2028 C1970 0.959 . S
H2029 C1970 0.961 . S
H2030 C1970 0.961 . S
H2031 C1971 0.960 . S
H2032 C1971 0.960 . S
H2033 C1971 0.961 . S
H2034 C1973 0.980 . S
H2035 C1972 0.961 . S
H2036 C1972 0.960 . S
H2037 C1972 0.959 . S
H2038 C1975 0.930 . S
H2039 C1979 0.931 . S
H2040 C1980 0.959 . S
H2041 C1980 0.961 . S
H2042 C1980 0.959 . S
H2043 C1981 0.960 . S
H2044 C1981 0.960 . S
H2045 C1981 0.960 . S
H2046 C2017 0.980 . S
H2047 C1983 0.930 . S
H2048 C1987 0.930 . S
H2049 C1988 0.961 . S
H2050 C1988 0.960 . S
H2051 C1988 0.958 . S
H2052 C1989 0.961 . S
H2053 C1989 0.960 . S
H2054 C1989 0.960 . S
H2055 C1991 0.980 . S
H2056 C1990 0.961 . S
H2057 C1990 0.961 . S
H2058 C1990 0.959 . S
H2059 C1993 0.932 . S
H2060 C1997 0.929 . S
H2061 C1998 0.961 . S
H2062 C1998 0.959 . S
H2063 C1998 0.959 . S
H2064 C1999 0.960 . S
H2065 C1999 0.962 . S
H2066 C1999 0.961 . S
H2067 C2001 0.929 . S
H2068 C2004 0.930 . S
H2069 C2005 0.929 . S
H2070 C2008 0.930 . S
H2071 C2011 0.929 . S
H2072 C2012 0.930 . S
H2073 C2016 0.962 . S
H2074 C2016 0.959 . S
H2075 C2016 0.958 . S
C2076 C2077 1.560 . S
C2076 H2137 0.959 . S
C2076 H2138 0.959 . S
C2076 H2139 0.960 . S
C2077 C2076 1.560 . S
C2077 O2132 1.426 . S
C2077 H2136 0.980 . S
C2078 C2079 1.407 . S
C2078 C2083 1.418 . S
C2078 O2132 1.334 . S
C2079 C2078 1.407 . S
C2079 C2080 1.360 . S
C2079 H2140 0.929 . S
C2080 C2079 1.360 . S
C2080 C2081 1.401 . S
C2080 C2084 1.527 . S
C2081 C2080 1.401 . S
C2081 C2082 1.405 . S
C2081 C2114 1.587 . S
C2082 C2081 1.405 . S
C2082 C2083 1.332 . S
C2082 C2085 1.496 . S
C2083 C2078 1.418 . S
C2083 C2082 1.332 . S
C2083 H2141 0.929 . S
C2084 C2080 1.527 . S
C2084 H2142 0.959 . S
C2084 H2143 0.961 . S
C2084 H2144 0.961 . S
C2085 C2082 1.496 . S
C2085 H2145 0.960 . S
C2085 H2146 0.960 . S
C2085 H2147 0.961 . S
C2086 C2087 1.517 . S
C2086 H2149 0.961 . S
C2086 H2150 0.960 . S
C2086 H2151 0.959 . S
C2087 C2086 1.517 . S
C2087 O2135 1.468 . S
C2087 H2148 0.980 . S
C2088 C2089 1.349 . S
C2088 C2093 1.367 . S
C2088 O2135 1.408 . S
C2089 C2088 1.349 . S
C2089 C2090 1.407 . S
C2089 H2152 0.930 . S
C2090 C2089 1.407 . S
C2090 C2091 1.449 . S
C2090 C2094 1.535 . S
C2091 C2090 1.449 . S
C2091 C2092 1.384 . S
C2091 C2116 1.553 . S
C2092 C2091 1.384 . S
C2092 C2093 1.364 . S
C2092 C2095 1.450 . S
C2093 C2088 1.367 . S
C2093 C2092 1.364 . S
C2093 H2153 0.931 . S
C2094 C2090 1.535 . S
C2094 H2154 0.959 . S
C2094 H2155 0.961 . S
C2094 H2156 0.959 . S
C2095 C2092 1.450 . S
C2095 H2157 0.960 . S
C2095 H2158 0.960 . S
C2095 H2159 0.960 . S
C2096 C2097 1.309 . S
C2096 C2101 1.304 . S
C2096 O2134 1.435 . S
C2097 C2096 1.309 . S
C2097 C2098 1.476 . S
C2097 H2161 0.930 . S
C2098 C2097 1.476 . S
C2098 C2099 1.400 . S
C2098 C2102 1.567 . S
C2099 C2098 1.400 . S
C2099 C2100 1.373 . S
C2099 C2121 1.432 . S
C2100 C2099 1.373 . S
C2100 C2101 1.339 . S
C2100 C2103 1.530 . S
C2101 C2096 1.304 . S
C2101 C2100 1.339 . S
C2101 H2162 0.930 . S
C2102 C2098 1.567 . S
C2102 H2163 0.961 . S
C2102 H2164 0.960 . S
C2102 H2165 0.958 . S
C2103 C2100 1.530 . S
C2103 H2166 0.961 . S
C2103 H2167 0.960 . S
C2103 H2168 0.960 . S
C2104 C2105 1.530 . S
C2104 H2170 0.961 . S
C2104 H2171 0.961 . S
C2104 H2172 0.959 . S
C2105 C2104 1.530 . S
C2105 O2133 1.412 . S
C2105 H2169 0.980 . S
C2106 C2107 1.288 . S
C2106 C2111 1.377 . S
C2106 O2133 1.393 . S
C2107 C2106 1.288 . S
C2107 C2108 1.369 . S
C2107 H2173 0.932 . S
C2108 C2107 1.369 . S
C2108 C2109 1.398 . S
C2108 C2112 1.527 . S
C2109 C2108 1.398 . S
C2109 C2110 1.380 . S
C2109 C2123 1.497 . S
C2110 C2109 1.380 . S
C2110 C2111 1.383 . S
C2110 C2113 1.603 . S
C2111 C2106 1.377 . S
C2111 C2110 1.383 . S
C2111 H2174 0.929 . S
C2112 C2108 1.527 . S
C2112 H2175 0.961 . S
C2112 H2176 0.959 . S
C2112 H2177 0.959 . S
C2113 C2110 1.603 . S
C2113 H2178 0.960 . S
C2113 H2179 0.962 . S
C2113 H2180 0.961 . S
C2114 C2081 1.587 . S
C2114 C2115 1.360 . S
C2114 C2127 1.412 . S
C2115 C2114 1.360 . S
C2115 C2116 1.365 . S
C2115 H2181 0.929 . S
C2116 C2091 1.553 . S
C2116 C2115 1.365 . S
C2116 C2117 1.404 . S
C2117 C2116 1.404 . S
C2117 C2118 1.395 . S
C2117 C2128 1.451 . S
C2118 C2117 1.395 . S
C2118 C2119 1.322 . S
C2118 H2182 0.930 . S
C2119 C2118 1.322 . S
C2119 C2120 1.459 . S
C2119 H2183 0.929 . S
C2120 C2119 1.459 . S
C2120 C2121 1.445 . S
C2120 C2129 1.395 . S
C2121 C2099 1.432 . S
C2121 C2120 1.445 . S
C2121 C2122 1.370 . S
C2122 C2121 1.370 . S
C2122 C2123 1.438 . S
C2122 H2184 0.930 . S
C2123 C2109 1.497 . S
C2123 C2122 1.438 . S
C2123 C2124 1.360 . S
C2124 C2123 1.360 . S
C2124 C2125 1.401 . S
C2124 C2129 1.446 . S
C2125 C2124 1.401 . S
C2125 C2126 1.347 . S
C2125 H2185 0.929 . S
C2126 C2125 1.347 . S
C2126 C2127 1.455 . S
C2126 H2186 0.930 . S
C2127 C2114 1.412 . S
C2127 C2126 1.455 . S
C2127 C2128 1.331 . S
C2128 C2117 1.451 . S
C2128 C2127 1.331 . S
C2128 C2129 1.497 . S
C2129 C2120 1.395 . S
C2129 C2124 1.446 . S
C2129 C2128 1.497 . S
C2130 C2131 1.582 . S
C2130 H2187 0.962 . S
C2130 H2188 0.959 . S
C2130 H2189 0.958 . S
C2131 C2130 1.582 . S
C2131 O2134 1.458 . S
C2131 H2160 0.980 . S
O2132 C2077 1.426 . S
O2132 C2078 1.334 . S
O2133 C2105 1.412 . S
O2133 C2106 1.393 . S
O2134 C2096 1.435 . S
O2134 C2131 1.458 . S
O2135 C2087 1.468 . S
O2135 C2088 1.408 . S
H2136 C2077 0.980 . S
H2137 C2076 0.959 . S
H2138 C2076 0.959 . S
H2139 C2076 0.960 . S
H2140 C2079 0.929 . S
H2141 C2083 0.929 . S
H2142 C2084 0.959 . S
H2143 C2084 0.961 . S
H2144 C2084 0.961 . S
H2145 C2085 0.960 . S
H2146 C2085 0.960 . S
H2147 C2085 0.961 . S
H2148 C2087 0.980 . S
H2149 C2086 0.961 . S
H2150 C2086 0.960 . S
H2151 C2086 0.959 . S
H2152 C2089 0.930 . S
H2153 C2093 0.931 . S
H2154 C2094 0.959 . S
H2155 C2094 0.961 . S
H2156 C2094 0.959 . S
H2157 C2095 0.960 . S
H2158 C2095 0.960 . S
H2159 C2095 0.960 . S
H2160 C2131 0.980 . S
H2161 C2097 0.930 . S
H2162 C2101 0.930 . S
H2163 C2102 0.961 . S
H2164 C2102 0.960 . S
H2165 C2102 0.958 . S
H2166 C2103 0.961 . S
H2167 C2103 0.960 . S
H2168 C2103 0.960 . S
H2169 C2105 0.980 . S
H2170 C2104 0.961 . S
H2171 C2104 0.961 . S
H2172 C2104 0.959 . S
H2173 C2107 0.932 . S
H2174 C2111 0.929 . S
H2175 C2112 0.961 . S
H2176 C2112 0.959 . S
H2177 C2112 0.959 . S
H2178 C2113 0.960 . S
H2179 C2113 0.962 . S
H2180 C2113 0.961 . S
H2181 C2115 0.929 . S
H2182 C2118 0.930 . S
H2183 C2119 0.929 . S
H2184 C2122 0.930 . S
H2185 C2125 0.929 . S
H2186 C2126 0.930 . S
H2187 C2130 0.962 . S
H2188 C2130 0.959 . S
H2189 C2130 0.958 . S
C2190 C2191 1.560 . S
C2190 H2251 0.959 . S
C2190 H2252 0.959 . S
C2190 H2253 0.960 . S
C2191 C2190 1.560 . S
C2191 O2246 1.426 . S
C2191 H2250 0.980 . S
C2192 C2193 1.407 . S
C2192 C2197 1.418 . S
C2192 O2246 1.334 . S
C2193 C2192 1.407 . S
C2193 C2194 1.360 . S
C2193 H2254 0.929 . S
C2194 C2193 1.360 . S
C2194 C2195 1.401 . S
C2194 C2198 1.527 . S
C2195 C2194 1.401 . S
C2195 C2196 1.405 . S
C2195 C2228 1.587 . S
C2196 C2195 1.405 . S
C2196 C2197 1.332 . S
C2196 C2199 1.496 . S
C2197 C2192 1.418 . S
C2197 C2196 1.332 . S
C2197 H2255 0.929 . S
C2198 C2194 1.527 . S
C2198 H2256 0.959 . S
C2198 H2257 0.961 . S
C2198 H2258 0.961 . S
C2199 C2196 1.496 . S
C2199 H2259 0.960 . S
C2199 H2260 0.960 . S
C2199 H2261 0.961 . S
C2200 C2201 1.517 . S
C2200 H2263 0.961 . S
C2200 H2264 0.960 . S
C2200 H2265 0.959 . S
C2201 C2200 1.517 . S
C2201 O2249 1.468 . S
C2201 H2262 0.980 . S
C2202 C2203 1.349 . S
C2202 C2207 1.367 . S
C2202 O2249 1.408 . S
C2203 C2202 1.349 . S
C2203 C2204 1.407 . S
C2203 H2266 0.930 . S
C2204 C2203 1.407 . S
C2204 C2205 1.449 . S
C2204 C2208 1.535 . S
C2205 C2204 1.449 . S
C2205 C2206 1.384 . S
C2205 C2230 1.553 . S
C2206 C2205 1.384 . S
C2206 C2207 1.364 . S
C2206 C2209 1.450 . S
C2207 C2202 1.367 . S
C2207 C2206 1.364 . S
C2207 H2267 0.931 . S
C2208 C2204 1.535 . S
C2208 H2268 0.959 . S
C2208 H2269 0.961 . S
C2208 H2270 0.959 . S
C2209 C2206 1.450 . S
C2209 H2271 0.960 . S
C2209 H2272 0.960 . S
C2209 H2273 0.960 . S
C2210 C2211 1.309 . S
C2210 C2215 1.304 . S
C2210 O2248 1.435 . S
C2211 C2210 1.309 . S
C2211 C2212 1.476 . S
C2211 H2275 0.930 . S
C2212 C2211 1.476 . S
C2212 C2213 1.400 . S
C2212 C2216 1.567 . S
C2213 C2212 1.400 . S
C2213 C2214 1.373 . S
C2213 C2235 1.432 . S
C2214 C2213 1.373 . S
C2214 C2215 1.339 . S
C2214 C2217 1.530 . S
C2215 C2210 1.304 . S
C2215 C2214 1.339 . S
C2215 H2276 0.930 . S
C2216 C2212 1.567 . S
C2216 H2277 0.961 . S
C2216 H2278 0.960 . S
C2216 H2279 0.958 . S
C2217 C2214 1.530 . S
C2217 H2280 0.961 . S
C2217 H2281 0.960 . S
C2217 H2282 0.960 . S
C2218 C2219 1.530 . S
C2218 H2284 0.961 . S
C2218 H2285 0.961 . S
C2218 H2286 0.959 . S
C2219 C2218 1.530 . S
C2219 O2247 1.412 . S
C2219 H2283 0.980 . S
C2220 C2221 1.288 . S
C2220 C2225 1.377 . S
C2220 O2247 1.393 . S
C2221 C2220 1.288 . S
C2221 C2222 1.369 . S
C2221 H2287 0.932 . S
C2222 C2221 1.369 . S
C2222 C2223 1.398 . S
C2222 C2226 1.527 . S
C2223 C2222 1.398 . S
C2223 C2224 1.380 . S
C2223 C2237 1.497 . S
C2224 C2223 1.380 . S
C2224 C2225 1.383 . S
C2224 C2227 1.603 . S
C2225 C2220 1.377 . S
C2225 C2224 1.383 . S
C2225 H2288 0.929 . S
C2226 C2222 1.527 . S
C2226 H2289 0.961 . S
C2226 H2290 0.959 . S
C2226 H2291 0.959 . S
C2227 C2224 1.603 . S
C2227 H2292 0.960 . S
C2227 H2293 0.962 . S
C2227 H2294 0.961 . S
C2228 C2195 1.587 . S
C2228 C2229 1.360 . S
C2228 C2241 1.412 . S
C2229 C2228 1.360 . S
C2229 C2230 1.365 . S
C2229 H2295 0.929 . S
C2230 C2205 1.553 . S
C2230 C2229 1.365 . S
C2230 C2231 1.404 . S
C2231 C2230 1.404 . S
C2231 C2232 1.395 . S
C2231 C2242 1.451 . S
C2232 C2231 1.395 . S
C2232 C2233 1.322 . S
C2232 H2296 0.930 . S
C2233 C2232 1.322 . S
C2233 C2234 1.459 . S
C2233 H2297 0.929 . S
C2234 C2233 1.459 . S
C2234 C2235 1.445 . S
C2234 C2243 1.395 . S
C2235 C2213 1.432 . S
C2235 C2234 1.445 . S
C2235 C2236 1.370 . S
C2236 C2235 1.370 . S
C2236 C2237 1.438 . S
C2236 H2298 0.930 . S
C2237 C2223 1.497 . S
C2237 C2236 1.438 . S
C2237 C2238 1.360 . S
C2238 C2237 1.360 . S
C2238 C2239 1.401 . S
C2238 C2243 1.446 . S
C2239 C2238 1.401 . S
C2239 C2240 1.347 . S
C2239 H2299 0.929 . S
C2240 C2239 1.347 . S
C2240 C2241 1.455 . S
C2240 H2300 0.930 . S
C2241 C2228 1.412 . S
C2241 C2240 1.455 . S
C2241 C2242 1.331 . S
C2242 C2231 1.451 . S
C2242 C2241 1.331 . S
C2242 C2243 1.497 . S
C2243 C2234 1.395 . S
C2243 C2238 1.446 . S
C2243 C2242 1.497 . S
C2244 C2245 1.582 . S
C2244 H2301 0.962 . S
C2244 H2302 0.959 . S
C2244 H2303 0.958 . S
C2245 C2244 1.582 . S
C2245 O2248 1.458 . S
C2245 H2274 0.980 . S
O2246 C2191 1.426 . S
O2246 C2192 1.334 . S
O2247 C2219 1.412 . S
O2247 C2220 1.393 . S
O2248 C2210 1.435 . S
O2248 C2245 1.458 . S
O2249 C2201 1.468 . S
O2249 C2202 1.408 . S
H2250 C2191 0.980 . S
H2251 C2190 0.959 . S
H2252 C2190 0.959 . S
H2253 C2190 0.960 . S
H2254 C2193 0.929 . S
H2255 C2197 0.929 . S
H2256 C2198 0.959 . S
H2257 C2198 0.961 . S
H2258 C2198 0.961 . S
H2259 C2199 0.960 . S
H2260 C2199 0.960 . S
H2261 C2199 0.961 . S
H2262 C2201 0.980 . S
H2263 C2200 0.961 . S
H2264 C2200 0.960 . S
H2265 C2200 0.959 . S
H2266 C2203 0.930 . S
H2267 C2207 0.931 . S
H2268 C2208 0.959 . S
H2269 C2208 0.961 . S
H2270 C2208 0.959 . S
H2271 C2209 0.960 . S
H2272 C2209 0.960 . S
H2273 C2209 0.960 . S
H2274 C2245 0.980 . S
H2275 C2211 0.930 . S
H2276 C2215 0.930 . S
H2277 C2216 0.961 . S
H2278 C2216 0.960 . S
H2279 C2216 0.958 . S
H2280 C2217 0.961 . S
H2281 C2217 0.960 . S
H2282 C2217 0.960 . S
H2283 C2219 0.980 . S
H2284 C2218 0.961 . S
H2285 C2218 0.961 . S
H2286 C2218 0.959 . S
H2287 C2221 0.932 . S
H2288 C2225 0.929 . S
H2289 C2226 0.961 . S
H2290 C2226 0.959 . S
H2291 C2226 0.959 . S
H2292 C2227 0.960 . S
H2293 C2227 0.962 . S
H2294 C2227 0.961 . S
H2295 C2229 0.929 . S
H2296 C2232 0.930 . S
H2297 C2233 0.929 . S
H2298 C2236 0.930 . S
H2299 C2239 0.929 . S
H2300 C2240 0.930 . S
H2301 C2244 0.962 . S
H2302 C2244 0.959 . S
H2303 C2244 0.958 . S
H2304 C2316 0.930 . S
H2305 C2318 0.976 . S
H2306 C2319 0.930 . S
H2307 C2323 0.959 . S
H2308 C2323 0.959 . S
H2309 C2323 0.961 . S
H2310 C2324 0.960 . S
H2311 C2324 0.961 . S
H2312 C2324 0.959 . S
H2313 C2327 0.929 . S
H2314 C2328 0.931 . S
H2315 C2330 0.930 . S
C2316 H2304 0.930 . S
C2316 C2317 1.399 . S
C2316 C2321 1.399 . S
C2317 C2316 1.399 . S
C2317 C2318 1.376 . S
C2318 H2305 0.976 . S
C2318 C2317 1.376 . S
C2318 C2319 1.388 . S
C2319 H2306 0.930 . S
C2319 C2318 1.388 . S
C2319 C2320 1.390 . S
C2320 C2319 1.390 . S
C2320 C2321 1.394 . S
C2320 C2326 1.465 . S
C2321 C2316 1.399 . S
C2321 C2320 1.394 . S
C2321 C2322 1.516 . S
C2322 C2321 1.516 . S
C2322 C2323 1.502 1_655 S
C2322 C2324 1.561 . S
C2322 C2325 1.526 . S
C2323 H2307 0.959 . S
C2323 H2308 0.959 . S
C2323 H2309 0.961 . S
C2323 C2322 1.502 1_455 S
C2324 H2310 0.960 . S
C2324 H2311 0.961 . S
C2324 H2312 0.959 . S
C2324 C2322 1.561 . S
C2325 C2322 1.526 . S
C2325 C2326 1.396 . S
C2325 C2330 1.390 . S
C2326 C2320 1.465 . S
C2326 C2325 1.396 . S
C2326 C2327 1.399 . S
C2327 H2313 0.929 . S
C2327 C2326 1.399 . S
C2327 C2328 1.385 . S
C2328 H2314 0.931 . S
C2328 C2327 1.385 . S
C2328 C2329 1.389 . S
C2329 C2328 1.389 . S
C2329 C2330 1.387 . S
C2330 H2315 0.930 . S
C2330 C2325 1.390 . S
C2330 C2329 1.387 . S
H2331 C2343 0.930 . S
H2332 C2345 0.930 . S
H2333 C2346 0.930 . S
H2334 C2350 0.959 . S
H2335 C2350 0.959 . S
H2336 C2350 0.961 . S
H2337 C2351 0.960 . S
H2338 C2351 0.961 . S
H2339 C2351 0.959 . S
H2340 C2354 0.929 . S
H2341 C2355 0.931 . S
H2342 C2357 0.930 . S
C2343 H2331 0.930 . S
C2343 C2344 1.399 . S
C2343 C2348 1.399 . S
C2344 C2343 1.399 . S
C2344 C2345 1.376 . S
C2345 H2332 0.930 . S
C2345 C2344 1.376 . S
C2345 C2346 1.388 . S
C2346 H2333 0.930 . S
C2346 C2345 1.388 . S
C2346 C2347 1.390 . S
C2347 C2346 1.390 . S
C2347 C2348 1.394 . S
C2347 C2353 1.465 . S
C2348 C2343 1.399 . S
C2348 C2347 1.394 . S
C2348 C2349 1.516 . S
C2349 C2348 1.516 . S
C2349 C2350 1.502 . S
C2349 C2351 1.561 . S
C2349 C2352 1.526 . S
C2350 H2334 0.959 . S
C2350 H2335 0.959 . S
C2350 H2336 0.961 . S
C2350 C2349 1.502 . S
C2351 H2337 0.960 . S
C2351 H2338 0.961 . S
C2351 H2339 0.959 . S
C2351 C2349 1.561 . S
C2352 C2349 1.526 . S
C2352 C2353 1.396 . S
C2352 C2357 1.390 . S
C2353 C2347 1.465 . S
C2353 C2352 1.396 . S
C2353 C2354 1.399 . S
C2354 H2340 0.929 . S
C2354 C2353 1.399 . S
C2354 C2355 1.385 . S
C2355 H2341 0.931 . S
C2355 C2354 1.385 . S
C2355 C2356 1.389 . S
C2356 C2355 1.389 . S
C2356 C2357 1.387 . S
C2357 H2342 0.930 . S
C2357 C2352 1.390 . S
C2357 C2356 1.387 . S
H2358 C2370 0.930 . S
H2359 C2372 0.930 . S
H2360 C2373 0.930 . S
H2361 C2377 0.959 . S
H2362 C2377 0.959 . S
H2363 C2377 0.961 . S
H2364 C2378 0.960 . S
H2365 C2378 0.961 . S
H2366 C2378 0.959 . S
H2367 C2381 0.929 . S
H2368 C2382 0.931 . S
H2369 C2384 0.930 . S
C2370 H2358 0.930 . S
C2370 C2371 1.399 . S
C2370 C2375 1.399 . S
C2371 C2370 1.399 . S
C2371 C2372 1.376 1_545 S
C2372 H2359 0.930 . S
C2372 C2371 1.376 1_565 S
C2372 C2373 1.388 . S
C2373 H2360 0.930 . S
C2373 C2372 1.388 . S
C2373 C2374 1.411 . S
C2374 C2373 1.411 . S
C2374 C2375 1.340 1_565 S
C2374 C2380 1.464 . S
C2375 C2370 1.399 . S
C2375 C2374 1.340 1_545 S
C2375 C2376 1.516 . S
C2376 C2375 1.516 . S
C2376 C2377 1.502 . S
C2376 C2378 1.561 . S
C2376 C2379 1.526 . S
C2377 H2361 0.959 . S
C2377 H2362 0.959 . S
C2377 H2363 0.961 . S
C2377 C2376 1.502 . S
C2378 H2364 0.960 . S
C2378 H2365 0.961 . S
C2378 H2366 0.959 . S
C2378 C2376 1.561 . S
C2379 C2376 1.526 . S
C2379 C2380 1.359 1_545 S
C2379 C2384 1.390 . S
C2380 C2374 1.464 . S
C2380 C2379 1.359 1_565 S
C2380 C2381 1.456 . S
C2381 H2367 0.929 . S
C2381 C2380 1.456 . S
C2381 C2382 1.385 . S
C2382 H2368 0.931 . S
C2382 C2381 1.385 . S
C2382 C2383 1.389 1_565 S
C2383 C2382 1.389 1_545 S
C2383 C2384 1.387 . S
C2384 H2369 0.930 . S
C2384 C2379 1.390 . S
C2384 C2383 1.387 . S
H2385 C2397 0.930 . S
H2386 C2399 0.930 . S
H2387 C2400 0.930 . S
H2388 C2404 0.959 . S
H2389 C2404 0.959 . S
H2390 C2404 0.961 . S
H2391 C2405 0.960 . S
H2392 C2405 0.961 . S
H2393 C2405 0.959 . S
H2394 C2408 0.929 . S
H2395 C2409 0.931 . S
H2396 C2411 0.930 . S
C2397 H2385 0.930 . S
C2397 C2398 1.399 1_545 S
C2397 C2402 1.399 . S
C2398 C2397 1.399 1_565 S
C2398 C2399 1.376 . S
C2399 H2386 0.930 . S
C2399 C2398 1.376 . S
C2399 C2400 1.388 . S
C2400 H2387 0.930 . S
C2400 C2399 1.388 . S
C2400 C2401 1.390 . S
C2401 C2400 1.390 . S
C2401 C2402 1.394 1_565 S
C2401 C2407 1.465 . S
C2402 C2397 1.399 . S
C2402 C2401 1.394 1_545 S
C2402 C2403 1.516 . S
C2403 C2402 1.516 . S
C2403 C2404 1.502 . S
C2403 C2405 1.561 . S
C2403 C2406 1.526 . S
C2404 H2388 0.959 . S
C2404 H2389 0.959 . S
C2404 H2390 0.961 . S
C2404 C2403 1.502 . S
C2405 H2391 0.960 . S
C2405 H2392 0.961 . S
C2405 H2393 0.959 . S
C2405 C2403 1.561 . S
C2406 C2403 1.526 . S
C2406 C2407 1.396 1_545 S
C2406 C2411 1.390 . S
C2407 C2401 1.465 . S
C2407 C2406 1.396 1_565 S
C2407 C2408 1.399 . S
C2408 H2394 0.929 . S
C2408 C2407 1.399 . S
C2408 C2409 1.385 . S
C2409 H2395 0.931 . S
C2409 C2408 1.385 . S
C2409 C2410 1.389 . S
C2410 C2409 1.389 . S
C2410 C2411 1.387 1_565 S
C2411 H2396 0.930 . S
C2411 C2406 1.390 . S
C2411 C2410 1.387 1_545 S
H2412 C2424 0.930 . S
H2413 C2426 0.930 . S
H2414 C2427 0.931 . S
H2415 C2431 0.959 1_655 S
H2416 C2431 0.959 . S
H2417 C2431 0.961 . S
H2418 C2432 0.960 . S
H2419 C2432 0.961 . S
H2420 C2432 0.959 . S
H2421 C2435 0.925 . S
H2422 C2436 0.940 . S
H2423 C2438 0.930 . S
C2424 H2412 0.930 . S
C2424 C2425 1.399 . S
C2424 C2429 1.399 . S
C2425 C2424 1.399 . S
C2425 C2426 1.376 . S
C2426 H2413 0.930 . S
C2426 C2425 1.376 . S
C2426 C2427 1.388 . S
C2427 H2414 0.931 . S
C2427 C2426 1.388 . S
C2427 C2428 1.390 . S
C2428 C2427 1.390 . S
C2428 C2429 1.394 . S
C2428 C2434 1.465 . S
C2429 C2424 1.399 . S
C2429 C2428 1.394 . S
C2429 C2430 1.516 . S
C2430 C2429 1.516 . S
C2430 C2431 1.502 . S
C2430 C2432 1.561 . S
C2430 C2433 1.526 . S
C2431 H2415 0.959 1_455 S
C2431 H2416 0.959 . S
C2431 H2417 0.961 . S
C2431 C2430 1.502 . S
C2432 H2418 0.960 . S
C2432 H2419 0.961 . S
C2432 H2420 0.959 . S
C2432 C2430 1.561 . S
C2433 C2430 1.526 . S
C2433 C2434 1.396 . S
C2433 C2438 1.390 . S
C2434 C2428 1.465 . S
C2434 C2433 1.396 . S
C2434 C2435 1.399 . S
C2435 H2421 0.925 . S
C2435 C2434 1.399 . S
C2435 C2436 1.385 . S
C2436 H2422 0.940 . S
C2436 C2435 1.385 . S
C2436 C2437 1.389 . S
C2437 C2436 1.389 . S
C2437 C2438 1.387 . S
C2438 H2423 0.930 . S
C2438 C2433 1.390 . S
C2438 C2437 1.387 . S
H2439 C2451 0.930 . S
H2440 C2453 0.930 . S
H2441 C2454 0.930 . S
H2442 C2458 0.959 . S
H2443 C2458 0.959 . S
H2444 C2458 0.961 . S
H2445 C2459 0.960 . S
H2446 C2459 0.961 . S
H2447 C2459 0.959 . S
H2448 C2462 0.929 . S
H2449 C2463 0.931 . S
H2450 C2465 0.930 . S
C2451 H2439 0.930 . S
C2451 C2452 1.399 . S
C2451 C2456 1.399 . S
C2452 C2451 1.399 . S
C2452 C2453 1.376 . S
C2453 H2440 0.930 . S
C2453 C2452 1.376 . S
C2453 C2454 1.388 . S
C2454 H2441 0.930 . S
C2454 C2453 1.388 . S
C2454 C2455 1.390 . S
C2455 C2454 1.390 . S
C2455 C2456 1.394 . S
C2455 C2461 1.465 . S
C2456 C2451 1.399 . S
C2456 C2455 1.394 . S
C2456 C2457 1.516 . S
C2457 C2456 1.516 . S
C2457 C2458 1.502 . S
C2457 C2459 1.561 . S
C2457 C2460 1.526 . S
C2458 H2442 0.959 . S
C2458 H2443 0.959 . S
C2458 H2444 0.961 . S
C2458 C2457 1.502 . S
C2459 H2445 0.960 . S
C2459 H2446 0.961 . S
C2459 H2447 0.959 . S
C2459 C2457 1.561 . S
C2460 C2457 1.526 . S
C2460 C2461 1.396 . S
C2460 C2465 1.390 . S
C2461 C2455 1.465 . S
C2461 C2460 1.396 . S
C2461 C2462 1.399 . S
C2462 H2448 0.929 . S
C2462 C2461 1.399 . S
C2462 C2463 1.385 . S
C2463 H2449 0.931 . S
C2463 C2462 1.385 . S
C2463 C2464 1.389 . S
C2464 C2463 1.389 . S
C2464 C2465 1.387 . S
C2465 H2450 0.930 . S
C2465 C2460 1.390 . S
C2465 C2464 1.387 . S
H2466 C2478 0.930 . S
H2467 C2480 0.930 1_554 S
H2468 C2481 0.930 . S
H2469 C2485 0.959 1_655 S
H2470 C2485 0.959 . S
H2471 C2485 0.961 . S
H2472 C2486 0.960 . S
H2473 C2486 0.961 . S
H2474 C2486 0.959 . S
H2475 C2489 0.929 . S
H2476 C2490 0.931 . S
H2477 C2492 0.930 . S
C2478 H2466 0.930 . S
C2478 C2479 1.399 . S
C2478 C2483 1.399 . S
C2479 C2478 1.399 . S
C2479 C2480 1.376 1_455 S
C2480 H2467 0.930 1_556 S
C2480 C2479 1.376 1_655 S
C2480 C2481 1.388 . S
C2481 H2468 0.930 . S
C2481 C2480 1.388 . S
C2481 C2482 1.390 1_655 S
C2482 C2481 1.390 1_455 S
C2482 C2483 1.394 . S
C2482 C2488 1.461 . S
C2483 C2478 1.399 . S
C2483 C2482 1.394 . S
C2483 C2484 1.516 . S
C2484 C2483 1.516 . S
C2484 C2485 1.502 . S
C2484 C2486 1.561 . S
C2484 C2487 1.526 . S
C2485 H2469 0.959 1_455 S
C2485 H2470 0.959 . S
C2485 H2471 0.961 . S
C2485 C2484 1.502 . S
C2486 H2472 0.960 . S
C2486 H2473 0.961 . S
C2486 H2474 0.959 . S
C2486 C2484 1.561 . S
C2487 C2484 1.526 . S
C2487 C2488 1.398 . S
C2487 C2492 1.390 . S
C2488 C2482 1.461 . S
C2488 C2487 1.398 . S
C2488 C2489 1.401 1_455 S
C2489 H2475 0.929 . S
C2489 C2488 1.401 1_655 S
C2489 C2490 1.385 . S
C2490 H2476 0.931 . S
C2490 C2489 1.385 . S
C2490 C2491 1.388 1_655 S
C2491 C2490 1.388 1_455 S
C2491 C2492 1.385 . S
C2492 H2477 0.930 . S
C2492 C2487 1.390 . S
C2492 C2491 1.385 . S
H2493 C2505 0.930 . S
H2494 C2507 0.930 . S
H2495 C2508 0.930 . S
H2496 C2512 0.959 . S
H2497 C2512 0.959 . S
H2498 C2512 0.961 . S
H2499 C2513 0.960 . S
H2500 C2513 0.961 . S
H2501 C2513 0.959 . S
H2502 C2516 0.929 . S
H2503 C2517 0.931 . S
H2504 C2519 0.930 . S
C2505 H2493 0.930 . S
C2505 C2506 1.399 . S
C2505 C2510 1.399 . S
C2506 C2505 1.399 . S
C2506 C2507 1.376 . S
C2507 H2494 0.930 . S
C2507 C2506 1.376 . S
C2507 C2508 1.388 . S
C2508 H2495 0.930 . S
C2508 C2507 1.388 . S
C2508 C2509 1.390 . S
C2509 C2508 1.390 . S
C2509 C2510 1.394 . S
C2509 C2515 1.465 . S
C2510 C2505 1.399 . S
C2510 C2509 1.394 . S
C2510 C2511 1.516 . S
C2511 C2510 1.516 . S
C2511 C2512 1.502 . S
C2511 C2513 1.561 . S
C2511 C2514 1.526 . S
C2512 H2496 0.959 . S
C2512 H2497 0.959 . S
C2512 H2498 0.961 . S
C2512 C2511 1.502 . S
C2513 H2499 0.960 . S
C2513 H2500 0.961 . S
C2513 H2501 0.959 . S
C2513 C2511 1.561 . S
C2514 C2511 1.526 . S
C2514 C2515 1.396 . S
C2514 C2519 1.390 . S
C2515 C2509 1.465 . S
C2515 C2514 1.396 . S
C2515 C2516 1.399 . S
C2516 H2502 0.929 . S
C2516 C2515 1.399 . S
C2516 C2517 1.385 . S
C2517 H2503 0.931 . S
C2517 C2516 1.385 . S
C2517 C2518 1.389 . S
C2518 C2517 1.389 . S
C2518 C2519 1.387 . S
C2519 H2504 0.930 . S
C2519 C2514 1.390 . S
C2519 C2518 1.387 . S
H2520 C2532 0.930 . S
H2521 C2534 0.930 . S
H2522 C2535 0.930 . S
H2523 C2539 0.959 . S
H2524 C2539 0.959 . S
H2525 C2539 0.961 . S
H2526 C2540 0.960 . S
H2527 C2540 0.961 . S
H2528 C2540 0.959 . S
H2529 C2543 0.929 . S
H2530 C2544 0.931 . S
H2531 C2546 0.930 . S
C2532 H2520 0.930 . S
C2532 C2533 1.399 . S
C2532 C2537 1.399 . S
C2533 C2532 1.399 . S
C2533 C2534 1.376 1_565 S
C2534 H2521 0.930 . S
C2534 C2533 1.376 1_545 S
C2534 C2535 1.388 . S
C2535 H2522 0.930 . S
C2535 C2534 1.388 . S
C2535 C2536 1.390 . S
C2536 C2535 1.390 . S
C2536 C2537 1.394 1_545 S
C2536 C2542 1.465 . S
C2537 C2532 1.399 . S
C2537 C2536 1.394 1_565 S
C2537 C2538 1.516 . S
C2538 C2537 1.516 . S
C2538 C2539 1.502 . S
C2538 C2540 1.561 . S
C2538 C2541 1.526 . S
C2539 H2523 0.959 . S
C2539 H2524 0.959 . S
C2539 H2525 0.961 . S
C2539 C2538 1.502 . S
C2540 H2526 0.960 . S
C2540 H2527 0.961 . S
C2540 H2528 0.959 . S
C2540 C2538 1.561 . S
C2541 C2538 1.526 . S
C2541 C2542 1.396 1_565 S
C2541 C2546 1.390 . S
C2542 C2536 1.465 . S
C2542 C2541 1.396 1_545 S
C2542 C2543 1.399 . S
C2543 H2529 0.929 . S
C2543 C2542 1.399 . S
C2543 C2544 1.385 . S
C2544 H2530 0.931 . S
C2544 C2543 1.385 . S
C2544 C2545 1.389 . S
C2545 C2544 1.389 . S
C2545 C2546 1.387 1_545 S
C2546 H2531 0.930 . S
C2546 C2541 1.390 . S
C2546 C2545 1.387 1_565 S
H2547 C2559 0.930 . S
H2548 C2561 0.930 . S
H2549 C2562 0.930 . S
H2550 C2566 0.959 . S
H2551 C2566 0.959 . S
H2552 C2566 0.961 . S
H2553 C2567 0.960 . S
H2554 C2567 0.961 . S
H2555 C2567 0.959 . S
H2556 C2570 0.929 . S
H2557 C2571 0.931 . S
H2558 C2573 0.930 . S
C2559 H2547 0.930 . S
C2559 C2560 1.399 . S
C2559 C2564 1.399 . S
C2560 C2559 1.399 . S
C2560 C2561 1.376 1_545 S
C2561 H2548 0.930 . S
C2561 C2560 1.376 1_565 S
C2561 C2562 1.388 . S
C2562 H2549 0.930 . S
C2562 C2561 1.388 . S
C2562 C2563 1.390 . S
C2563 C2562 1.390 . S
C2563 C2564 1.394 1_565 S
C2563 C2569 1.465 . S
C2564 C2559 1.399 . S
C2564 C2563 1.394 1_545 S
C2564 C2565 1.516 . S
C2565 C2564 1.516 . S
C2565 C2566 1.502 . S
C2565 C2567 1.561 . S
C2565 C2568 1.526 . S
C2566 H2550 0.959 . S
C2566 H2551 0.959 . S
C2566 H2552 0.961 . S
C2566 C2565 1.502 . S
C2567 H2553 0.960 . S
C2567 H2554 0.961 . S
C2567 H2555 0.959 . S
C2567 C2565 1.561 . S
C2568 C2565 1.526 . S
C2568 C2569 1.396 1_545 S
C2568 C2573 1.390 . S
C2569 C2563 1.465 . S
C2569 C2568 1.396 1_565 S
C2569 C2570 1.399 . S
C2570 H2556 0.929 . S
C2570 C2569 1.399 . S
C2570 C2571 1.385 . S
C2571 H2557 0.931 . S
C2571 C2570 1.385 . S
C2571 C2572 1.432 . S
C2572 C2571 1.432 . S
C2572 C2573 1.370 1_565 S
C2573 H2558 0.930 . S
C2573 C2568 1.390 . S
C2573 C2572 1.370 1_545 S
H2574 C2586 0.930 . S
H2575 C2588 0.930 . S
H2576 C2589 0.930 . S
H2577 C2593 0.959 . S
H2578 C2593 0.959 . S
H2579 C2593 0.961 . S
H2580 C2594 0.960 . S
H2581 C2594 0.961 . S
H2582 C2594 0.959 . S
H2583 C2597 0.929 . S
H2584 C2598 0.931 . S
H2585 C2600 0.930 . S
C2586 H2574 0.930 . S
C2586 C2587 1.399 . S
C2586 C2591 1.399 . S
C2587 C2586 1.399 . S
C2587 C2588 1.376 1_655 S
C2588 H2575 0.930 . S
C2588 C2587 1.376 1_455 S
C2588 C2589 1.388 . S
C2589 H2576 0.930 . S
C2589 C2588 1.388 . S
C2589 C2590 1.390 . S
C2590 C2589 1.390 . S
C2590 C2591 1.394 1_455 S
C2590 C2596 1.465 . S
C2591 C2586 1.399 . S
C2591 C2590 1.394 1_655 S
C2591 C2592 1.516 . S
C2592 C2591 1.516 . S
C2592 C2593 1.502 . S
C2592 C2594 1.561 . S
C2592 C2595 1.526 . S
C2593 H2577 0.959 . S
C2593 H2578 0.959 . S
C2593 H2579 0.961 . S
C2593 C2592 1.502 . S
C2594 H2580 0.960 . S
C2594 H2581 0.961 . S
C2594 H2582 0.959 . S
C2594 C2592 1.561 . S
C2595 C2592 1.526 . S
C2595 C2596 1.396 1_655 S
C2595 C2600 1.390 . S
C2596 C2590 1.465 . S
C2596 C2595 1.396 1_455 S
C2596 C2597 1.399 . S
C2597 H2583 0.929 . S
C2597 C2596 1.399 . S
C2597 C2598 1.385 . S
C2598 H2584 0.931 . S
C2598 C2597 1.385 . S
C2598 C2599 1.429 . S
C2599 C2598 1.429 . S
C2599 C2600 1.334 1_455 S
C2600 H2585 0.930 . S
C2600 C2595 1.390 . S
C2600 C2599 1.334 1_655 S
H2601 C2613 0.930 . S
H2602 C2615 0.930 . S
H2603 C2616 0.930 . S
H2604 C2620 0.959 . S
H2605 C2620 0.959 . S
H2606 C2620 0.961 . S
H2607 C2621 0.960 . S
H2608 C2621 0.961 . S
H2609 C2621 0.959 . S
H2610 C2624 0.929 . S
H2611 C2625 0.931 . S
H2612 C2627 0.930 . S
C2613 H2601 0.930 . S
C2613 C2614 1.399 . S
C2613 C2618 1.399 . S
C2614 C2613 1.399 . S
C2614 C2615 1.376 . S
C2615 H2602 0.930 . S
C2615 C2614 1.376 . S
C2615 C2616 1.388 . S
C2616 H2603 0.930 . S
C2616 C2615 1.388 . S
C2616 C2617 1.390 . S
C2617 C2616 1.390 . S
C2617 C2618 1.394 . S
C2617 C2623 1.465 . S
C2618 C2613 1.399 . S
C2618 C2617 1.394 . S
C2618 C2619 1.516 . S
C2619 C2618 1.516 . S
C2619 C2620 1.502 . S
C2619 C2621 1.561 . S
C2619 C2622 1.526 . S
C2620 H2604 0.959 . S
C2620 H2605 0.959 . S
C2620 H2606 0.961 . S
C2620 C2619 1.502 . S
C2621 H2607 0.960 . S
C2621 H2608 0.961 . S
C2621 H2609 0.959 . S
C2621 C2619 1.561 . S
C2622 C2619 1.526 . S
C2622 C2623 1.396 . S
C2622 C2627 1.390 . S
C2623 C2617 1.465 . S
C2623 C2622 1.396 . S
C2623 C2624 1.399 . S
C2624 H2610 0.929 . S
C2624 C2623 1.399 . S
C2624 C2625 1.385 . S
C2625 H2611 0.931 . S
C2625 C2624 1.385 . S
C2625 C2626 1.389 . S
C2626 C2625 1.389 . S
C2626 C2627 1.387 . S
C2627 H2612 0.930 . S
C2627 C2622 1.390 . S
C2627 C2626 1.387 . S
H2628 C2640 0.930 . S
H2629 C2642 0.930 . S
H2630 C2643 0.930 . S
H2631 C2647 0.959 . S
H2632 C2647 0.959 . S
H2633 C2647 0.961 . S
H2634 C2648 0.960 . S
H2635 C2648 0.961 . S
H2636 C2648 0.959 . S
H2637 C2651 0.929 . S
H2638 C2652 0.931 . S
H2639 C2654 0.930 . S
C2640 H2628 0.930 . S
C2640 C2641 1.399 . S
C2640 C2645 1.399 . S
C2641 C2640 1.399 . S
C2641 C2642 1.376 . S
C2642 H2629 0.930 . S
C2642 C2641 1.376 . S
C2642 C2643 1.388 . S
C2643 H2630 0.930 . S
C2643 C2642 1.388 . S
C2643 C2644 1.390 . S
C2644 C2643 1.390 . S
C2644 C2645 1.394 . S
C2644 C2650 1.465 . S
C2645 C2640 1.399 . S
C2645 C2644 1.394 . S
C2645 C2646 1.516 . S
C2646 C2645 1.516 . S
C2646 C2647 1.502 . S
C2646 C2648 1.561 . S
C2646 C2649 1.526 . S
C2647 H2631 0.959 . S
C2647 H2632 0.959 . S
C2647 H2633 0.961 . S
C2647 C2646 1.502 . S
C2648 H2634 0.960 . S
C2648 H2635 0.961 . S
C2648 H2636 0.959 . S
C2648 C2646 1.561 . S
C2649 C2646 1.526 . S
C2649 C2650 1.396 . S
C2649 C2654 1.390 . S
C2650 C2644 1.465 . S
C2650 C2649 1.396 . S
C2650 C2651 1.399 . S
C2651 H2637 0.929 . S
C2651 C2650 1.399 . S
C2651 C2652 1.385 . S
C2652 H2638 0.931 . S
C2652 C2651 1.385 . S
C2652 C2653 1.389 . S
C2653 C2652 1.389 . S
C2653 C2654 1.387 . S
C2654 H2639 0.930 . S
C2654 C2649 1.390 . S
C2654 C2653 1.387 . S
H2655 C2667 0.930 . S
H2656 C2669 0.930 . S
H2657 C2670 0.930 . S
H2658 C2674 0.959 . S
H2659 C2674 0.959 . S
H2660 C2674 0.961 . S
H2661 C2675 0.960 . S
H2662 C2675 0.961 . S
H2663 C2675 0.959 . S
H2664 C2678 0.929 . S
H2665 C2679 0.931 . S
H2666 C2681 0.930 . S
C2667 H2655 0.930 . S
C2667 C2668 1.399 . S
C2667 C2672 1.399 . S
C2668 C2667 1.399 . S
C2668 C2669 1.376 . S
C2669 H2656 0.930 . S
C2669 C2668 1.376 . S
C2669 C2670 1.388 . S
C2670 H2657 0.930 . S
C2670 C2669 1.388 . S
C2670 C2671 1.390 . S
C2671 C2670 1.390 . S
C2671 C2672 1.394 . S
C2671 C2677 1.465 . S
C2672 C2667 1.399 . S
C2672 C2671 1.394 . S
C2672 C2673 1.516 . S
C2673 C2672 1.516 . S
C2673 C2674 1.502 . S
C2673 C2675 1.561 . S
C2673 C2676 1.526 . S
C2674 H2658 0.959 . S
C2674 H2659 0.959 . S
C2674 H2660 0.961 . S
C2674 C2673 1.502 . S
C2675 H2661 0.960 . S
C2675 H2662 0.961 . S
C2675 H2663 0.959 . S
C2675 C2673 1.561 . S
C2676 C2673 1.526 . S
C2676 C2677 1.396 . S
C2676 C2681 1.390 . S
C2677 C2671 1.465 . S
C2677 C2676 1.396 . S
C2677 C2678 1.399 . S
C2678 H2664 0.929 . S
C2678 C2677 1.399 . S
C2678 C2679 1.385 . S
C2679 H2665 0.931 . S
C2679 C2678 1.385 . S
C2679 C2680 1.389 . S
C2680 C2679 1.389 . S
C2680 C2681 1.387 . S
C2681 H2666 0.930 . S
C2681 C2676 1.390 . S
C2681 C2680 1.387 . S
H2682 C2694 0.930 . S
H2683 C2696 0.930 . S
H2684 C2697 0.930 . S
H2685 C2701 0.959 . S
H2686 C2701 0.959 . S
H2687 C2701 0.961 . S
H2688 C2702 0.960 . S
H2689 C2702 0.961 . S
H2690 C2702 0.959 . S
H2691 C2705 0.929 . S
H2692 C2706 0.931 . S
H2693 C2708 0.930 . S
C2694 H2682 0.930 . S
C2694 C2695 1.399 . S
C2694 C2699 1.399 . S
C2695 C2694 1.399 . S
C2695 C2696 1.376 . S
C2696 H2683 0.930 . S
C2696 C2695 1.376 . S
C2696 C2697 1.388 . S
C2697 H2684 0.930 . S
C2697 C2696 1.388 . S
C2697 C2698 1.390 . S
C2698 C2697 1.390 . S
C2698 C2699 1.394 . S
C2698 C2704 1.465 . S
C2699 C2694 1.399 . S
C2699 C2698 1.394 . S
C2699 C2700 1.516 . S
C2700 C2699 1.516 . S
C2700 C2701 1.502 . S
C2700 C2702 1.561 . S
C2700 C2703 1.526 . S
C2701 H2685 0.959 . S
C2701 H2686 0.959 . S
C2701 H2687 0.961 . S
C2701 C2700 1.502 . S
C2702 H2688 0.960 . S
C2702 H2689 0.961 . S
C2702 H2690 0.959 . S
C2702 C2700 1.561 . S
C2703 C2700 1.526 . S
C2703 C2704 1.396 . S
C2703 C2708 1.390 . S
C2704 C2698 1.465 . S
C2704 C2703 1.396 . S
C2704 C2705 1.399 . S
C2705 H2691 0.929 . S
C2705 C2704 1.399 . S
C2705 C2706 1.385 . S
C2706 H2692 0.931 . S
C2706 C2705 1.385 . S
C2706 C2707 1.389 . S
C2707 C2706 1.389 . S
C2707 C2708 1.387 . S
C2708 H2693 0.930 . S
C2708 C2703 1.390 . S
C2708 C2707 1.387 . S
H2709 C2721 0.930 . S
H2710 C2723 0.930 . S
H2711 C2724 0.930 . S
H2712 C2728 0.959 . S
H2713 C2728 0.959 . S
H2714 C2728 0.961 . S
H2715 C2729 0.960 . S
H2716 C2729 0.961 . S
H2717 C2729 0.959 . S
H2718 C2732 0.929 . S
H2719 C2733 0.931 . S
H2720 C2735 0.930 . S
C2721 H2709 0.930 . S
C2721 C2722 1.399 . S
C2721 C2726 1.399 . S
C2722 C2721 1.399 . S
C2722 C2723 1.376 . S
C2723 H2710 0.930 . S
C2723 C2722 1.376 . S
C2723 C2724 1.388 . S
C2724 H2711 0.930 . S
C2724 C2723 1.388 . S
C2724 C2725 1.390 . S
C2725 C2724 1.390 . S
C2725 C2726 1.394 . S
C2725 C2731 1.465 . S
C2726 C2721 1.399 . S
C2726 C2725 1.394 . S
C2726 C2727 1.516 . S
C2727 C2726 1.516 . S
C2727 C2728 1.502 . S
C2727 C2729 1.561 . S
C2727 C2730 1.526 . S
C2728 H2712 0.959 . S
C2728 H2713 0.959 . S
C2728 H2714 0.961 . S
C2728 C2727 1.502 . S
C2729 H2715 0.960 . S
C2729 H2716 0.961 . S
C2729 H2717 0.959 . S
C2729 C2727 1.561 . S
C2730 C2727 1.526 . S
C2730 C2731 1.396 . S
C2730 C2735 1.390 . S
C2731 C2725 1.465 . S
C2731 C2730 1.396 . S
C2731 C2732 1.399 . S
C2732 H2718 0.929 . S
C2732 C2731 1.399 . S
C2732 C2733 1.385 . S
C2733 H2719 0.931 . S
C2733 C2732 1.385 . S
C2733 C2734 1.389 . S
C2734 C2733 1.389 . S
C2734 C2735 1.387 . S
C2735 H2720 0.930 . S
C2735 C2730 1.390 . S
C2735 C2734 1.387 . S
H2736 C2748 0.930 . S
H2737 C2750 0.930 . S
H2738 C2751 0.930 . S
H2739 C2755 0.959 . S
H2740 C2755 0.959 . S
H2741 C2755 0.961 . S
H2742 C2756 0.960 . S
H2743 C2756 0.961 . S
H2744 C2756 0.959 . S
H2745 C2759 0.929 . S
H2746 C2760 0.931 . S
H2747 C2762 0.930 . S
C2748 H2736 0.930 . S
C2748 C2749 1.399 . S
C2748 C2753 1.399 . S
C2749 C2748 1.399 . S
C2749 C2750 1.376 . S
C2750 H2737 0.930 . S
C2750 C2749 1.376 . S
C2750 C2751 1.388 . S
C2751 H2738 0.930 . S
C2751 C2750 1.388 . S
C2751 C2752 1.390 . S
C2752 C2751 1.390 . S
C2752 C2753 1.394 . S
C2752 C2758 1.465 . S
C2753 C2748 1.399 . S
C2753 C2752 1.394 . S
C2753 C2754 1.516 . S
C2754 C2753 1.516 . S
C2754 C2755 1.502 . S
C2754 C2756 1.561 . S
C2754 C2757 1.526 . S
C2755 H2739 0.959 . S
C2755 H2740 0.959 . S
C2755 H2741 0.961 . S
C2755 C2754 1.502 . S
C2756 H2742 0.960 . S
C2756 H2743 0.961 . S
C2756 H2744 0.959 . S
C2756 C2754 1.561 . S
C2757 C2754 1.526 . S
C2757 C2758 1.396 . S
C2757 C2762 1.390 . S
C2758 C2752 1.465 . S
C2758 C2757 1.396 . S
C2758 C2759 1.399 . S
C2759 H2745 0.929 . S
C2759 C2758 1.399 . S
C2759 C2760 1.385 . S
C2760 H2746 0.931 . S
C2760 C2759 1.385 . S
C2760 C2761 1.389 . S
C2761 C2760 1.389 . S
C2761 C2762 1.387 . S
C2762 H2747 0.930 . S
C2762 C2757 1.390 . S
C2762 C2761 1.387 . S
H2763 C2775 0.930 . S
H2764 C2777 0.930 . S
H2765 C2778 0.930 . S
H2766 C2782 0.959 . S
H2767 C2782 0.959 . S
H2768 C2782 0.961 . S
H2769 C2783 0.960 . S
H2770 C2783 0.961 . S
H2771 C2783 0.959 . S
H2772 C2786 0.929 . S
H2773 C2787 0.931 . S
H2774 C2789 0.930 . S
C2775 H2763 0.930 . S
C2775 C2776 1.399 . S
C2775 C2780 1.399 . S
C2776 C2775 1.399 . S
C2776 C2777 1.376 . S
C2777 H2764 0.930 . S
C2777 C2776 1.376 . S
C2777 C2778 1.388 . S
C2778 H2765 0.930 . S
C2778 C2777 1.388 . S
C2778 C2779 1.390 . S
C2779 C2778 1.390 . S
C2779 C2780 1.394 . S
C2779 C2785 1.465 . S
C2780 C2775 1.399 . S
C2780 C2779 1.394 . S
C2780 C2781 1.516 . S
C2781 C2780 1.516 . S
C2781 C2782 1.502 . S
C2781 C2783 1.561 . S
C2781 C2784 1.526 . S
C2782 H2766 0.959 . S
C2782 H2767 0.959 . S
C2782 H2768 0.961 . S
C2782 C2781 1.502 . S
C2783 H2769 0.960 . S
C2783 H2770 0.961 . S
C2783 H2771 0.959 . S
C2783 C2781 1.561 . S
C2784 C2781 1.526 . S
C2784 C2785 1.396 . S
C2784 C2789 1.390 . S
C2785 C2779 1.465 . S
C2785 C2784 1.396 . S
C2785 C2786 1.399 . S
C2786 H2772 0.929 . S
C2786 C2785 1.399 . S
C2786 C2787 1.385 . S
C2787 H2773 0.931 . S
C2787 C2786 1.385 . S
C2787 C2788 1.389 . S
C2788 C2787 1.389 . S
C2788 C2789 1.387 . S
C2789 H2774 0.930 . S
C2789 C2784 1.390 . S
C2789 C2788 1.387 . S
H2790 C2802 0.930 . S
H2791 C2804 0.930 . S
H2792 C2805 0.930 . S
H2793 C2809 0.959 . S
H2794 C2809 0.959 . S
H2795 C2809 0.961 . S
H2796 C2810 0.960 . S
H2797 C2810 0.961 . S
H2798 C2810 0.959 . S
H2799 C2813 0.929 . S
H2800 C2814 0.931 . S
H2801 C2816 0.930 . S
C2802 H2790 0.930 . S
C2802 C2803 1.399 . S
C2802 C2807 1.399 . S
C2803 C2802 1.399 . S
C2803 C2804 1.376 . S
C2804 H2791 0.930 . S
C2804 C2803 1.376 . S
C2804 C2805 1.388 . S
C2805 H2792 0.930 . S
C2805 C2804 1.388 . S
C2805 C2806 1.390 . S
C2806 C2805 1.390 . S
C2806 C2807 1.394 . S
C2806 C2812 1.465 . S
C2807 C2802 1.399 . S
C2807 C2806 1.394 . S
C2807 C2808 1.516 . S
C2808 C2807 1.516 . S
C2808 C2809 1.502 . S
C2808 C2810 1.561 . S
C2808 C2811 1.526 . S
C2809 H2793 0.959 . S
C2809 H2794 0.959 . S
C2809 H2795 0.961 . S
C2809 C2808 1.502 . S
C2810 H2796 0.960 . S
C2810 H2797 0.961 . S
C2810 H2798 0.959 . S
C2810 C2808 1.561 . S
C2811 C2808 1.526 . S
C2811 C2812 1.396 . S
C2811 C2816 1.390 . S
C2812 C2806 1.465 . S
C2812 C2811 1.396 . S
C2812 C2813 1.399 . S
C2813 H2799 0.929 . S
C2813 C2812 1.399 . S
C2813 C2814 1.385 . S
C2814 H2800 0.931 . S
C2814 C2813 1.385 . S
C2814 C2815 1.389 . S
C2815 C2814 1.389 . S
C2815 C2816 1.387 . S
C2816 H2801 0.930 . S
C2816 C2811 1.390 . S
C2816 C2815 1.387 . S
H2817 C2829 0.930 . S
H2818 C2831 0.930 . S
H2819 C2832 0.930 . S
H2820 C2836 0.959 . S
H2821 C2836 0.959 . S
H2822 C2836 0.961 . S
H2823 C2837 0.960 . S
H2824 C2837 0.961 . S
H2825 C2837 0.959 . S
H2826 C2840 0.929 . S
H2827 C2841 0.931 . S
H2828 C2843 0.930 . S
C2829 H2817 0.930 . S
C2829 C2830 1.399 . S
C2829 C2834 1.399 . S
C2830 C2829 1.399 . S
C2830 C2831 1.376 . S
C2831 H2818 0.930 . S
C2831 C2830 1.376 . S
C2831 C2832 1.388 . S
C2832 H2819 0.930 . S
C2832 C2831 1.388 . S
C2832 C2833 1.390 . S
C2833 C2832 1.390 . S
C2833 C2834 1.394 . S
C2833 C2839 1.465 . S
C2834 C2829 1.399 . S
C2834 C2833 1.394 . S
C2834 C2835 1.516 . S
C2835 C2834 1.516 . S
C2835 C2836 1.502 . S
C2835 C2837 1.561 . S
C2835 C2838 1.526 . S
C2836 H2820 0.959 . S
C2836 H2821 0.959 . S
C2836 H2822 0.961 . S
C2836 C2835 1.502 . S
C2837 H2823 0.960 . S
C2837 H2824 0.961 . S
C2837 H2825 0.959 . S
C2837 C2835 1.561 . S
C2838 C2835 1.526 . S
C2838 C2839 1.396 . S
C2838 C2843 1.390 . S
C2839 C2833 1.465 . S
C2839 C2838 1.396 . S
C2839 C2840 1.399 . S
C2840 H2826 0.929 . S
C2840 C2839 1.399 . S
C2840 C2841 1.385 . S
C2841 H2827 0.931 . S
C2841 C2840 1.385 . S
C2841 C2842 1.389 . S
C2842 C2841 1.389 . S
C2842 C2843 1.387 . S
C2843 H2828 0.930 . S
C2843 C2838 1.390 . S
C2843 C2842 1.387 . S
H2844 C2856 0.930 . S
H2845 C2858 0.930 . S
H2846 C2859 0.930 . S
H2847 C2863 0.959 . S
H2848 C2863 0.959 . S
H2849 C2863 0.961 . S
H2850 C2864 0.960 . S
H2851 C2864 0.961 . S
H2852 C2864 0.959 . S
H2853 C2867 0.929 . S
H2854 C2868 0.931 . S
H2855 C2870 0.930 . S
C2856 H2844 0.930 . S
C2856 C2857 1.399 . S
C2856 C2861 1.399 . S
C2857 C2856 1.399 . S
C2857 C2858 1.376 . S
C2858 H2845 0.930 . S
C2858 C2857 1.376 . S
C2858 C2859 1.388 . S
C2859 H2846 0.930 . S
C2859 C2858 1.388 . S
C2859 C2860 1.390 . S
C2860 C2859 1.390 . S
C2860 C2861 1.394 . S
C2860 C2866 1.465 . S
C2861 C2856 1.399 . S
C2861 C2860 1.394 . S
C2861 C2862 1.516 . S
C2862 C2861 1.516 . S
C2862 C2863 1.502 . S
C2862 C2864 1.561 . S
C2862 C2865 1.526 . S
C2863 H2847 0.959 . S
C2863 H2848 0.959 . S
C2863 H2849 0.961 . S
C2863 C2862 1.502 . S
C2864 H2850 0.960 . S
C2864 H2851 0.961 . S
C2864 H2852 0.959 . S
C2864 C2862 1.561 . S
C2865 C2862 1.526 . S
C2865 C2866 1.396 . S
C2865 C2870 1.390 . S
C2866 C2860 1.465 . S
C2866 C2865 1.396 . S
C2866 C2867 1.399 . S
C2867 H2853 0.929 . S
C2867 C2866 1.399 . S
C2867 C2868 1.385 . S
C2868 H2854 0.931 . S
C2868 C2867 1.385 . S
C2868 C2869 1.389 . S
C2869 C2868 1.389 . S
C2869 C2870 1.387 . S
C2870 H2855 0.930 . S
C2870 C2865 1.390 . S
C2870 C2869 1.387 . S
H2871 C2883 0.930 . S
H2872 C2885 0.930 . S
H2873 C2886 0.930 . S
H2874 C2890 0.959 . S
H2875 C2890 0.959 . S
H2876 C2890 0.961 . S
H2877 C2891 0.960 . S
H2878 C2891 0.961 . S
H2879 C2891 0.959 . S
H2880 C2894 0.929 . S
H2881 C2895 0.931 . S
H2882 C2897 0.930 . S
C2883 H2871 0.930 . S
C2883 C2884 1.399 . S
C2883 C2888 1.399 . S
C2884 C2883 1.399 . S
C2884 C2885 1.376 . S
C2885 H2872 0.930 . S
C2885 C2884 1.376 . S
C2885 C2886 1.388 . S
C2886 H2873 0.930 . S
C2886 C2885 1.388 . S
C2886 C2887 1.390 . S
C2887 C2886 1.390 . S
C2887 C2888 1.394 . S
C2887 C2893 1.465 . S
C2888 C2883 1.399 . S
C2888 C2887 1.394 . S
C2888 C2889 1.516 . S
C2889 C2888 1.516 . S
C2889 C2890 1.502 . S
C2889 C2891 1.561 . S
C2889 C2892 1.526 . S
C2890 H2874 0.959 . S
C2890 H2875 0.959 . S
C2890 H2876 0.961 . S
C2890 C2889 1.502 . S
C2891 H2877 0.960 . S
C2891 H2878 0.961 . S
C2891 H2879 0.959 . S
C2891 C2889 1.561 . S
C2892 C2889 1.526 . S
C2892 C2893 1.396 . S
C2892 C2897 1.390 . S
C2893 C2887 1.465 . S
C2893 C2892 1.396 . S
C2893 C2894 1.399 . S
C2894 H2880 0.929 . S
C2894 C2893 1.399 . S
C2894 C2895 1.385 . S
C2895 H2881 0.931 . S
C2895 C2894 1.385 . S
C2895 C2896 1.389 . S
C2896 C2895 1.389 . S
C2896 C2897 1.387 . S
C2897 H2882 0.930 . S
C2897 C2892 1.390 . S
C2897 C2896 1.387 . S
H2898 C2910 0.930 . S
H2899 C2912 0.930 . S
H2900 C2913 0.930 . S
H2901 C2917 0.959 . S
H2902 C2917 0.959 . S
H2903 C2917 0.961 . S
H2904 C2918 0.960 . S
H2905 C2918 0.961 . S
H2906 C2918 0.959 . S
H2907 C2921 0.929 . S
H2908 C2922 0.931 . S
H2909 C2924 0.930 . S
C2910 H2898 0.930 . S
C2910 C2911 1.399 . S
C2910 C2915 1.399 . S
C2911 C2910 1.399 . S
C2911 C2912 1.376 . S
C2912 H2899 0.930 . S
C2912 C2911 1.376 . S
C2912 C2913 1.388 . S
C2913 H2900 0.930 . S
C2913 C2912 1.388 . S
C2913 C2914 1.390 . S
C2914 C2913 1.390 . S
C2914 C2915 1.394 . S
C2914 C2920 1.465 . S
C2915 C2910 1.399 . S
C2915 C2914 1.394 . S
C2915 C2916 1.516 . S
C2916 C2915 1.516 . S
C2916 C2917 1.502 . S
C2916 C2918 1.561 . S
C2916 C2919 1.526 . S
C2917 H2901 0.959 . S
C2917 H2902 0.959 . S
C2917 H2903 0.961 . S
C2917 C2916 1.502 . S
C2918 H2904 0.960 . S
C2918 H2905 0.961 . S
C2918 H2906 0.959 . S
C2918 C2916 1.561 . S
C2919 C2916 1.526 . S
C2919 C2920 1.396 . S
C2919 C2924 1.390 . S
C2920 C2914 1.465 . S
C2920 C2919 1.396 . S
C2920 C2921 1.399 . S
C2921 H2907 0.929 . S
C2921 C2920 1.399 . S
C2921 C2922 1.385 . S
C2922 H2908 0.931 . S
C2922 C2921 1.385 . S
C2922 C2923 1.389 . S
C2923 C2922 1.389 . S
C2923 C2924 1.387 . S
C2924 H2909 0.930 . S
C2924 C2919 1.390 . S
C2924 C2923 1.387 . S
H2925 C2937 0.930 . S
H2926 C2939 0.930 . S
H2927 C2940 0.930 . S
H2928 C2944 0.959 . S
H2929 C2944 0.959 . S
H2930 C2944 0.961 . S
H2931 C2945 0.960 . S
H2932 C2945 0.961 . S
H2933 C2945 0.959 . S
H2934 C2948 0.929 . S
H2935 C2949 0.931 . S
H2936 C2951 0.930 . S
C2937 H2925 0.930 . S
C2937 C2938 1.399 . S
C2937 C2942 1.399 . S
C2938 C2937 1.399 . S
C2938 C2939 1.376 . S
C2939 H2926 0.930 . S
C2939 C2938 1.376 . S
C2939 C2940 1.388 . S
C2940 H2927 0.930 . S
C2940 C2939 1.388 . S
C2940 C2941 1.390 . S
C2941 C2940 1.390 . S
C2941 C2942 1.394 . S
C2941 C2947 1.465 . S
C2942 C2937 1.399 . S
C2942 C2941 1.394 . S
C2942 C2943 1.516 . S
C2943 C2942 1.516 . S
C2943 C2944 1.502 . S
C2943 C2945 1.561 . S
C2943 C2946 1.526 . S
C2944 H2928 0.959 . S
C2944 H2929 0.959 . S
C2944 H2930 0.961 . S
C2944 C2943 1.502 . S
C2945 H2931 0.960 . S
C2945 H2932 0.961 . S
C2945 H2933 0.959 . S
C2945 C2943 1.561 . S
C2946 C2943 1.526 . S
C2946 C2947 1.396 . S
C2946 C2951 1.390 . S
C2947 C2941 1.465 . S
C2947 C2946 1.396 . S
C2947 C2948 1.399 . S
C2948 H2934 0.929 . S
C2948 C2947 1.399 . S
C2948 C2949 1.385 . S
C2949 H2935 0.931 . S
C2949 C2948 1.385 . S
C2949 C2950 1.389 . S
C2950 C2949 1.389 . S
C2950 C2951 1.387 . S
C2951 H2936 0.930 . S
C2951 C2946 1.390 . S
C2951 C2950 1.387 . S
H2952 C2964 0.930 . S
H2953 C2966 0.930 . S
H2954 C2967 0.930 . S
H2955 C2971 0.959 . S
H2956 C2971 0.959 . S
H2957 C2971 0.961 . S
H2958 C2972 0.960 . S
H2959 C2972 0.961 . S
H2960 C2972 0.959 . S
H2961 C2975 0.929 . S
H2962 C2976 0.931 . S
H2963 C2978 0.930 . S
C2964 H2952 0.930 . S
C2964 C2965 1.399 . S
C2964 C2969 1.399 . S
C2965 C2964 1.399 . S
C2965 C2966 1.376 . S
C2966 H2953 0.930 . S
C2966 C2965 1.376 . S
C2966 C2967 1.388 . S
C2967 H2954 0.930 . S
C2967 C2966 1.388 . S
C2967 C2968 1.390 . S
C2968 C2967 1.390 . S
C2968 C2969 1.394 . S
C2968 C2974 1.465 . S
C2969 C2964 1.399 . S
C2969 C2968 1.394 . S
C2969 C2970 1.516 . S
C2970 C2969 1.516 . S
C2970 C2971 1.502 . S
C2970 C2972 1.561 . S
C2970 C2973 1.526 . S
C2971 H2955 0.959 . S
C2971 H2956 0.959 . S
C2971 H2957 0.961 . S
C2971 C2970 1.502 . S
C2972 H2958 0.960 . S
C2972 H2959 0.961 . S
C2972 H2960 0.959 . S
C2972 C2970 1.561 . S
C2973 C2970 1.526 . S
C2973 C2974 1.396 . S
C2973 C2978 1.390 . S
C2974 C2968 1.465 . S
C2974 C2973 1.396 . S
C2974 C2975 1.399 . S
C2975 H2961 0.929 . S
C2975 C2974 1.399 . S
C2975 C2976 1.385 . S
C2976 H2962 0.931 . S
C2976 C2975 1.385 . S
C2976 C2977 1.389 . S
C2977 C2976 1.389 . S
C2977 C2978 1.387 . S
C2978 H2963 0.930 . S
C2978 C2973 1.390 . S
C2978 C2977 1.387 . S
H2979 C2991 0.930 . S
H2980 C2993 0.930 . S
H2981 C2994 0.930 . S
H2982 C2998 0.959 . S
H2983 C2998 0.959 . S
H2984 C2998 0.961 . S
H2985 C2999 0.960 . S
H2986 C2999 0.961 . S
H2987 C2999 0.959 . S
H2988 C3002 0.929 . S
H2989 C3003 0.931 . S
H2990 C3005 0.930 . S
C2991 H2979 0.930 . S
C2991 C2992 1.399 . S
C2991 C2996 1.399 . S
C2992 C2991 1.399 . S
C2992 C2993 1.376 . S
C2993 H2980 0.930 . S
C2993 C2992 1.376 . S
C2993 C2994 1.388 . S
C2994 H2981 0.930 . S
C2994 C2993 1.388 . S
C2994 C2995 1.390 . S
C2995 C2994 1.390 . S
C2995 C2996 1.394 . S
C2995 C3001 1.465 . S
C2996 C2991 1.399 . S
C2996 C2995 1.394 . S
C2996 C2997 1.516 . S
C2997 C2996 1.516 . S
C2997 C2998 1.502 . S
C2997 C2999 1.561 . S
C2997 C3000 1.526 . S
C2998 H2982 0.959 . S
C2998 H2983 0.959 . S
C2998 H2984 0.961 . S
C2998 C2997 1.502 . S
C2999 H2985 0.960 . S
C2999 H2986 0.961 . S
C2999 H2987 0.959 . S
C2999 C2997 1.561 . S
C3000 C2997 1.526 . S
C3000 C3001 1.396 . S
C3000 C3005 1.390 . S
C3001 C2995 1.465 . S
C3001 C3000 1.396 . S
C3001 C3002 1.399 . S
C3002 H2988 0.929 . S
C3002 C3001 1.399 . S
C3002 C3003 1.385 . S
C3003 H2989 0.931 . S
C3003 C3002 1.385 . S
C3003 C3004 1.389 . S
C3004 C3003 1.389 . S
C3004 C3005 1.387 . S
C3005 H2990 0.930 . S
C3005 C3000 1.390 . S
C3005 C3004 1.387 . S
H3006 C3018 0.930 . S
H3007 C3020 0.930 . S
H3008 C3021 0.930 . S
H3009 C3025 0.959 . S
H3010 C3025 0.959 . S
H3011 C3025 0.961 . S
H3012 C3026 0.960 . S
H3013 C3026 0.961 . S
H3014 C3026 0.959 . S
H3015 C3029 0.929 . S
H3016 C3030 0.931 . S
H3017 C3032 0.930 . S
C3018 H3006 0.930 . S
C3018 C3019 1.399 . S
C3018 C3023 1.399 . S
C3019 C3018 1.399 . S
C3019 C3020 1.376 . S
C3020 H3007 0.930 . S
C3020 C3019 1.376 . S
C3020 C3021 1.388 . S
C3021 H3008 0.930 . S
C3021 C3020 1.388 . S
C3021 C3022 1.390 . S
C3022 C3021 1.390 . S
C3022 C3023 1.394 . S
C3022 C3028 1.465 . S
C3023 C3018 1.399 . S
C3023 C3022 1.394 . S
C3023 C3024 1.516 . S
C3024 C3023 1.516 . S
C3024 C3025 1.502 . S
C3024 C3026 1.561 . S
C3024 C3027 1.526 . S
C3025 H3009 0.959 . S
C3025 H3010 0.959 . S
C3025 H3011 0.961 . S
C3025 C3024 1.502 . S
C3026 H3012 0.960 . S
C3026 H3013 0.961 . S
C3026 H3014 0.959 . S
C3026 C3024 1.561 . S
C3027 C3024 1.526 . S
C3027 C3028 1.396 . S
C3027 C3032 1.390 . S
C3028 C3022 1.465 . S
C3028 C3027 1.396 . S
C3028 C3029 1.399 . S
C3029 H3015 0.929 . S
C3029 C3028 1.399 . S
C3029 C3030 1.385 . S
C3030 H3016 0.931 . S
C3030 C3029 1.385 . S
C3030 C3031 1.389 . S
C3031 C3030 1.389 . S
C3031 C3032 1.387 . S
C3032 H3017 0.930 . S
C3032 C3027 1.390 . S
C3032 C3031 1.387 . S
H3033 C3045 0.930 . S
H3034 C3047 0.930 . S
H3035 C3048 0.930 . S
H3036 C3052 0.959 . S
H3037 C3052 0.959 . S
H3038 C3052 0.961 . S
H3039 C3053 0.960 . S
H3040 C3053 0.961 . S
H3041 C3053 0.959 . S
H3042 C3056 0.929 . S
H3043 C3057 0.931 . S
H3044 C3059 0.930 . S
C3045 H3033 0.930 . S
C3045 C3046 1.399 . S
C3045 C3050 1.399 . S
C3046 C3045 1.399 . S
C3046 C3047 1.376 . S
C3047 H3034 0.930 . S
C3047 C3046 1.376 . S
C3047 C3048 1.388 . S
C3048 H3035 0.930 . S
C3048 C3047 1.388 . S
C3048 C3049 1.390 . S
C3049 C3048 1.390 . S
C3049 C3050 1.394 . S
C3049 C3055 1.465 . S
C3050 C3045 1.399 . S
C3050 C3049 1.394 . S
C3050 C3051 1.516 . S
C3051 C3050 1.516 . S
C3051 C3052 1.502 . S
C3051 C3053 1.561 . S
C3051 C3054 1.526 . S
C3052 H3036 0.959 . S
C3052 H3037 0.959 . S
C3052 H3038 0.961 . S
C3052 C3051 1.502 . S
C3053 H3039 0.960 . S
C3053 H3040 0.961 . S
C3053 H3041 0.959 . S
C3053 C3051 1.561 . S
C3054 C3051 1.526 . S
C3054 C3055 1.396 . S
C3054 C3059 1.390 . S
C3055 C3049 1.465 . S
C3055 C3054 1.396 . S
C3055 C3056 1.399 . S
C3056 H3042 0.929 . S
C3056 C3055 1.399 . S
C3056 C3057 1.385 . S
C3057 H3043 0.931 . S
C3057 C3056 1.385 . S
C3057 C3058 1.389 . S
C3058 C3057 1.389 . S
C3058 C3059 1.387 . S
C3059 H3044 0.930 . S
C3059 C3054 1.390 . S
C3059 C3058 1.387 . S
H3060 C3072 0.930 . S
H3061 C3074 0.930 . S
H3062 C3075 0.930 . S
H3063 C3079 0.959 . S
H3064 C3079 0.959 . S
H3065 C3079 0.961 . S
H3066 C3080 0.960 . S
H3067 C3080 0.961 . S
H3068 C3080 0.959 . S
H3069 C3083 0.929 . S
H3070 C3084 0.931 . S
H3071 C3086 0.930 . S
C3072 H3060 0.930 . S
C3072 C3073 1.399 . S
C3072 C3077 1.399 . S
C3073 C3072 1.399 . S
C3073 C3074 1.376 . S
C3074 H3061 0.930 . S
C3074 C3073 1.376 . S
C3074 C3075 1.388 . S
C3075 H3062 0.930 . S
C3075 C3074 1.388 . S
C3075 C3076 1.390 . S
C3076 C3075 1.390 . S
C3076 C3077 1.394 . S
C3076 C3082 1.465 . S
C3077 C3072 1.399 . S
C3077 C3076 1.394 . S
C3077 C3078 1.516 . S
C3078 C3077 1.516 . S
C3078 C3079 1.502 . S
C3078 C3080 1.561 . S
C3078 C3081 1.526 . S
C3079 H3063 0.959 . S
C3079 H3064 0.959 . S
C3079 H3065 0.961 . S
C3079 C3078 1.502 . S
C3080 H3066 0.960 . S
C3080 H3067 0.961 . S
C3080 H3068 0.959 . S
C3080 C3078 1.561 . S
C3081 C3078 1.526 . S
C3081 C3082 1.396 . S
C3081 C3086 1.390 . S
C3082 C3076 1.465 . S
C3082 C3081 1.396 . S
C3082 C3083 1.399 . S
C3083 H3069 0.929 . S
C3083 C3082 1.399 . S
C3083 C3084 1.385 . S
C3084 H3070 0.931 . S
C3084 C3083 1.385 . S
C3084 C3085 1.389 . S
C3085 C3084 1.389 . S
C3085 C3086 1.387 . S
C3086 H3071 0.930 . S
C3086 C3081 1.390 . S
C3086 C3085 1.387 . S
H3087 C3099 0.930 . S
H3088 C3101 0.930 . S
H3089 C3102 0.930 . S
H3090 C3106 0.959 . S
H3091 C3106 0.959 . S
H3092 C3106 0.961 . S
H3093 C3107 0.960 . S
H3094 C3107 0.961 . S
H3095 C3107 0.959 . S
H3096 C3110 0.929 . S
H3097 C3111 0.931 . S
H3098 C3113 0.930 . S
C3099 H3087 0.930 . S
C3099 C3100 1.399 . S
C3099 C3104 1.399 . S
C3100 C3099 1.399 . S
C3100 C3101 1.376 . S
C3101 H3088 0.930 . S
C3101 C3100 1.376 . S
C3101 C3102 1.388 . S
C3102 H3089 0.930 . S
C3102 C3101 1.388 . S
C3102 C3103 1.390 . S
C3103 C3102 1.390 . S
C3103 C3104 1.394 . S
C3103 C3109 1.465 . S
C3104 C3099 1.399 . S
C3104 C3103 1.394 . S
C3104 C3105 1.516 . S
C3105 C3104 1.516 . S
C3105 C3106 1.502 . S
C3105 C3107 1.561 . S
C3105 C3108 1.526 . S
C3106 H3090 0.959 . S
C3106 H3091 0.959 . S
C3106 H3092 0.961 . S
C3106 C3105 1.502 . S
C3107 H3093 0.960 . S
C3107 H3094 0.961 . S
C3107 H3095 0.959 . S
C3107 C3105 1.561 . S
C3108 C3105 1.526 . S
C3108 C3109 1.396 . S
C3108 C3113 1.390 . S
C3109 C3103 1.465 . S
C3109 C3108 1.396 . S
C3109 C3110 1.399 . S
C3110 H3096 0.929 . S
C3110 C3109 1.399 . S
C3110 C3111 1.385 . S
C3111 H3097 0.931 . S
C3111 C3110 1.385 . S
C3111 C3112 1.389 . S
C3112 C3111 1.389 . S
C3112 C3113 1.387 . S
C3113 H3098 0.930 . S
C3113 C3108 1.390 . S
C3113 C3112 1.387 . S
H3114 C3126 0.930 . S
H3115 C3128 0.930 . S
H3116 C3129 0.930 . S
H3117 C3133 0.959 . S
H3118 C3133 0.959 . S
H3119 C3133 0.961 . S
H3120 C3134 0.960 . S
H3121 C3134 0.961 . S
H3122 C3134 0.959 . S
H3123 C3137 0.929 . S
H3124 C3138 0.931 . S
H3125 C3140 0.930 . S
C3126 H3114 0.930 . S
C3126 C3127 1.399 . S
C3126 C3131 1.399 . S
C3127 C3126 1.399 . S
C3127 C3128 1.376 . S
C3128 H3115 0.930 . S
C3128 C3127 1.376 . S
C3128 C3129 1.388 . S
C3129 H3116 0.930 . S
C3129 C3128 1.388 . S
C3129 C3130 1.390 . S
C3130 C3129 1.390 . S
C3130 C3131 1.394 . S
C3130 C3136 1.465 . S
C3131 C3126 1.399 . S
C3131 C3130 1.394 . S
C3131 C3132 1.516 . S
C3132 C3131 1.516 . S
C3132 C3133 1.502 . S
C3132 C3134 1.561 . S
C3132 C3135 1.526 . S
C3133 H3117 0.959 . S
C3133 H3118 0.959 . S
C3133 H3119 0.961 . S
C3133 C3132 1.502 . S
C3134 H3120 0.960 . S
C3134 H3121 0.961 . S
C3134 H3122 0.959 . S
C3134 C3132 1.561 . S
C3135 C3132 1.526 . S
C3135 C3136 1.396 . S
C3135 C3140 1.390 . S
C3136 C3130 1.465 . S
C3136 C3135 1.396 . S
C3136 C3137 1.399 . S
C3137 H3123 0.929 . S
C3137 C3136 1.399 . S
C3137 C3138 1.385 . S
C3138 H3124 0.931 . S
C3138 C3137 1.385 . S
C3138 C3139 1.389 . S
C3139 C3138 1.389 . S
C3139 C3140 1.387 . S
C3140 H3125 0.930 . S
C3140 C3135 1.390 . S
C3140 C3139 1.387 . S
H3141 C3153 0.930 . S
H3142 C3155 0.930 . S
H3143 C3156 0.930 . S
H3144 C3160 0.959 . S
H3145 C3160 0.959 . S
H3146 C3160 0.961 . S
H3147 C3161 0.960 . S
H3148 C3161 0.961 . S
H3149 C3161 0.959 . S
H3150 C3164 0.929 . S
H3151 C3165 0.931 . S
H3152 C3167 0.930 . S
C3153 H3141 0.930 . S
C3153 C3154 1.399 . S
C3153 C3158 1.399 . S
C3154 C3153 1.399 . S
C3154 C3155 1.376 . S
C3155 H3142 0.930 . S
C3155 C3154 1.376 . S
C3155 C3156 1.388 . S
C3156 H3143 0.930 . S
C3156 C3155 1.388 . S
C3156 C3157 1.390 . S
C3157 C3156 1.390 . S
C3157 C3158 1.394 . S
C3157 C3163 1.465 . S
C3158 C3153 1.399 . S
C3158 C3157 1.394 . S
C3158 C3159 1.516 . S
C3159 C3158 1.516 . S
C3159 C3160 1.502 . S
C3159 C3161 1.561 . S
C3159 C3162 1.526 . S
C3160 H3144 0.959 . S
C3160 H3145 0.959 . S
C3160 H3146 0.961 . S
C3160 C3159 1.502 . S
C3161 H3147 0.960 . S
C3161 H3148 0.961 . S
C3161 H3149 0.959 . S
C3161 C3159 1.561 . S
C3162 C3159 1.526 . S
C3162 C3163 1.396 . S
C3162 C3167 1.390 . S
C3163 C3157 1.465 . S
C3163 C3162 1.396 . S
C3163 C3164 1.399 . S
C3164 H3150 0.929 . S
C3164 C3163 1.399 . S
C3164 C3165 1.385 . S
C3165 H3151 0.931 . S
C3165 C3164 1.385 . S
C3165 C3166 1.389 . S
C3166 C3165 1.389 . S
C3166 C3167 1.387 . S
C3167 H3152 0.930 . S
C3167 C3162 1.390 . S
C3167 C3166 1.387 . S
H3168 C3180 0.930 . S
H3169 C3182 0.930 . S
H3170 C3183 0.930 . S
H3171 C3187 0.959 . S
H3172 C3187 0.959 . S
H3173 C3187 0.961 . S
H3174 C3188 0.960 . S
H3175 C3188 0.961 . S
H3176 C3188 0.959 . S
H3177 C3191 0.929 . S
H3178 C3192 0.931 . S
H3179 C3194 0.930 . S
C3180 H3168 0.930 . S
C3180 C3181 1.399 . S
C3180 C3185 1.399 . S
C3181 C3180 1.399 . S
C3181 C3182 1.376 . S
C3182 H3169 0.930 . S
C3182 C3181 1.376 . S
C3182 C3183 1.388 . S
C3183 H3170 0.930 . S
C3183 C3182 1.388 . S
C3183 C3184 1.390 . S
C3184 C3183 1.390 . S
C3184 C3185 1.394 . S
C3184 C3190 1.465 . S
C3185 C3180 1.399 . S
C3185 C3184 1.394 . S
C3185 C3186 1.516 . S
C3186 C3185 1.516 . S
C3186 C3187 1.502 . S
C3186 C3188 1.561 . S
C3186 C3189 1.526 . S
C3187 H3171 0.959 . S
C3187 H3172 0.959 . S
C3187 H3173 0.961 . S
C3187 C3186 1.502 . S
C3188 H3174 0.960 . S
C3188 H3175 0.961 . S
C3188 H3176 0.959 . S
C3188 C3186 1.561 . S
C3189 C3186 1.526 . S
C3189 C3190 1.396 . S
C3189 C3194 1.390 . S
C3190 C3184 1.465 . S
C3190 C3189 1.396 . S
C3190 C3191 1.399 . S
C3191 H3177 0.929 . S
C3191 C3190 1.399 . S
C3191 C3192 1.385 . S
C3192 H3178 0.931 . S
C3192 C3191 1.385 . S
C3192 C3193 1.389 . S
C3193 C3192 1.389 . S
C3193 C3194 1.387 . S
C3194 H3179 0.930 . S
C3194 C3189 1.390 . S
C3194 C3193 1.387 . S
H3195 C3207 0.930 . S
H3196 C3209 0.930 . S
H3197 C3210 0.930 . S
H3198 C3214 0.959 . S
H3199 C3214 0.959 . S
H3200 C3214 0.961 . S
H3201 C3215 0.960 . S
H3202 C3215 0.961 . S
H3203 C3215 0.959 . S
H3204 C3218 0.929 . S
H3205 C3219 0.931 . S
H3206 C3221 0.930 . S
C3207 H3195 0.930 . S
C3207 C3208 1.399 . S
C3207 C3212 1.399 . S
C3208 C3207 1.399 . S
C3208 C3209 1.376 . S
C3209 H3196 0.930 . S
C3209 C3208 1.376 . S
C3209 C3210 1.388 . S
C3210 H3197 0.930 . S
C3210 C3209 1.388 . S
C3210 C3211 1.390 . S
C3211 C3210 1.390 . S
C3211 C3212 1.394 . S
C3211 C3217 1.465 . S
C3212 C3207 1.399 . S
C3212 C3211 1.394 . S
C3212 C3213 1.516 . S
C3213 C3212 1.516 . S
C3213 C3214 1.502 . S
C3213 C3215 1.561 . S
C3213 C3216 1.526 . S
C3214 H3198 0.959 . S
C3214 H3199 0.959 . S
C3214 H3200 0.961 . S
C3214 C3213 1.502 . S
C3215 H3201 0.960 . S
C3215 H3202 0.961 . S
C3215 H3203 0.959 . S
C3215 C3213 1.561 . S
C3216 C3213 1.526 . S
C3216 C3217 1.396 . S
C3216 C3221 1.390 . S
C3217 C3211 1.465 . S
C3217 C3216 1.396 . S
C3217 C3218 1.399 . S
C3218 H3204 0.929 . S
C3218 C3217 1.399 . S
C3218 C3219 1.385 . S
C3219 H3205 0.931 . S
C3219 C3218 1.385 . S
C3219 C3220 1.389 . S
C3220 C3219 1.389 . S
C3220 C3221 1.387 . S
C3221 H3206 0.930 . S
C3221 C3216 1.390 . S
C3221 C3220 1.387 . S
H3222 C3234 0.930 . S
H3223 C3236 0.930 . S
H3224 C3237 0.930 . S
H3225 C3241 0.959 . S
H3226 C3241 0.959 . S
H3227 C3241 0.961 . S
H3228 C3242 0.960 . S
H3229 C3242 0.961 . S
H3230 C3242 0.959 . S
H3231 C3245 0.929 . S
H3232 C3246 0.931 . S
H3233 C3248 0.930 . S
C3234 H3222 0.930 . S
C3234 C3235 1.399 . S
C3234 C3239 1.399 . S
C3235 C3234 1.399 . S
C3235 C3236 1.376 . S
C3236 H3223 0.930 . S
C3236 C3235 1.376 . S
C3236 C3237 1.388 . S
C3237 H3224 0.930 . S
C3237 C3236 1.388 . S
C3237 C3238 1.390 . S
C3238 C3237 1.390 . S
C3238 C3239 1.394 . S
C3238 C3244 1.465 . S
C3239 C3234 1.399 . S
C3239 C3238 1.394 . S
C3239 C3240 1.516 . S
C3240 C3239 1.516 . S
C3240 C3241 1.502 . S
C3240 C3242 1.561 . S
C3240 C3243 1.526 . S
C3241 H3225 0.959 . S
C3241 H3226 0.959 . S
C3241 H3227 0.961 . S
C3241 C3240 1.502 . S
C3242 H3228 0.960 . S
C3242 H3229 0.961 . S
C3242 H3230 0.959 . S
C3242 C3240 1.561 . S
C3243 C3240 1.526 . S
C3243 C3244 1.396 . S
C3243 C3248 1.390 . S
C3244 C3238 1.465 . S
C3244 C3243 1.396 . S
C3244 C3245 1.399 . S
C3245 H3231 0.929 . S
C3245 C3244 1.399 . S
C3245 C3246 1.385 . S
C3246 H3232 0.931 . S
C3246 C3245 1.385 . S
C3246 C3247 1.389 . S
C3247 C3246 1.389 . S
C3247 C3248 1.387 . S
C3248 H3233 0.930 . S
C3248 C3243 1.390 . S
C3248 C3247 1.387 . S
H3249 C3261 0.930 . S
H3250 C3263 0.930 . S
H3251 C3264 0.930 . S
H3252 C3268 0.959 . S
H3253 C3268 0.959 . S
H3254 C3268 0.961 . S
H3255 C3269 0.960 . S
H3256 C3269 0.961 . S
H3257 C3269 0.959 . S
H3258 C3272 0.929 . S
H3259 C3273 0.931 . S
H3260 C3275 0.930 . S
C3261 H3249 0.930 . S
C3261 C3262 1.399 . S
C3261 C3266 1.399 . S
C3262 C3261 1.399 . S
C3262 C3263 1.376 . S
C3263 H3250 0.930 . S
C3263 C3262 1.376 . S
C3263 C3264 1.388 . S
C3264 H3251 0.930 . S
C3264 C3263 1.388 . S
C3264 C3265 1.390 . S
C3265 C3264 1.390 . S
C3265 C3266 1.394 . S
C3265 C3271 1.465 . S
C3266 C3261 1.399 . S
C3266 C3265 1.394 . S
C3266 C3267 1.516 . S
C3267 C3266 1.516 . S
C3267 C3268 1.502 . S
C3267 C3269 1.561 . S
C3267 C3270 1.526 . S
C3268 H3252 0.959 . S
C3268 H3253 0.959 . S
C3268 H3254 0.961 . S
C3268 C3267 1.502 . S
C3269 H3255 0.960 . S
C3269 H3256 0.961 . S
C3269 H3257 0.959 . S
C3269 C3267 1.561 . S
C3270 C3267 1.526 . S
C3270 C3271 1.396 . S
C3270 C3275 1.390 . S
C3271 C3265 1.465 . S
C3271 C3270 1.396 . S
C3271 C3272 1.399 . S
C3272 H3258 0.929 . S
C3272 C3271 1.399 . S
C3272 C3273 1.385 . S
C3273 H3259 0.931 . S
C3273 C3272 1.385 . S
C3273 C3274 1.389 . S
C3274 C3273 1.389 . S
C3274 C3275 1.387 . S
C3275 H3260 0.930 . S
C3275 C3270 1.390 . S
C3275 C3274 1.387 . S
H3276 C3288 0.930 . S
H3277 C3290 0.930 . S
H3278 C3291 0.930 . S
H3279 C3295 0.959 . S
H3280 C3295 0.959 . S
H3281 C3295 0.961 . S
H3282 C3296 0.960 . S
H3283 C3296 0.961 . S
H3284 C3296 0.959 . S
H3285 C3299 0.929 . S
H3286 C3300 0.931 . S
H3287 C3302 0.930 . S
C3288 H3276 0.930 . S
C3288 C3289 1.399 . S
C3288 C3293 1.399 . S
C3289 C3288 1.399 . S
C3289 C3290 1.376 . S
C3290 H3277 0.930 . S
C3290 C3289 1.376 . S
C3290 C3291 1.388 . S
C3291 H3278 0.930 . S
C3291 C3290 1.388 . S
C3291 C3292 1.390 . S
C3292 C3291 1.390 . S
C3292 C3293 1.394 . S
C3292 C3298 1.465 . S
C3293 C3288 1.399 . S
C3293 C3292 1.394 . S
C3293 C3294 1.516 . S
C3294 C3293 1.516 . S
C3294 C3295 1.502 . S
C3294 C3296 1.561 . S
C3294 C3297 1.526 . S
C3295 H3279 0.959 . S
C3295 H3280 0.959 . S
C3295 H3281 0.961 . S
C3295 C3294 1.502 . S
C3296 H3282 0.960 . S
C3296 H3283 0.961 . S
C3296 H3284 0.959 . S
C3296 C3294 1.561 . S
C3297 C3294 1.526 . S
C3297 C3298 1.396 . S
C3297 C3302 1.390 . S
C3298 C3292 1.465 . S
C3298 C3297 1.396 . S
C3298 C3299 1.399 . S
C3299 H3285 0.929 . S
C3299 C3298 1.399 . S
C3299 C3300 1.385 . S
C3300 H3286 0.931 . S
C3300 C3299 1.385 . S
C3300 C3301 1.389 . S
C3301 C3300 1.389 . S
C3301 C3302 1.387 . S
C3302 H3287 0.930 . S
C3302 C3297 1.390 . S
C3302 C3301 1.387 . S
H3303 C3315 0.930 . S
H3304 C3317 0.930 . S
H3305 C3318 0.930 . S
H3306 C3322 0.959 . S
H3307 C3322 0.959 . S
H3308 C3322 0.961 . S
H3309 C3323 0.960 . S
H3310 C3323 0.961 . S
H3311 C3323 0.959 . S
H3312 C3326 0.929 . S
H3313 C3327 0.931 . S
H3314 C3329 0.930 . S
C3315 H3303 0.930 . S
C3315 C3316 1.399 . S
C3315 C3320 1.399 . S
C3316 C3315 1.399 . S
C3316 C3317 1.376 . S
C3317 H3304 0.930 . S
C3317 C3316 1.376 . S
C3317 C3318 1.388 . S
C3318 H3305 0.930 . S
C3318 C3317 1.388 . S
C3318 C3319 1.390 . S
C3319 C3318 1.390 . S
C3319 C3320 1.394 . S
C3319 C3325 1.465 . S
C3320 C3315 1.399 . S
C3320 C3319 1.394 . S
C3320 C3321 1.516 . S
C3321 C3320 1.516 . S
C3321 C3322 1.502 . S
C3321 C3323 1.561 . S
C3321 C3324 1.526 . S
C3322 H3306 0.959 . S
C3322 H3307 0.959 . S
C3322 H3308 0.961 . S
C3322 C3321 1.502 . S
C3323 H3309 0.960 . S
C3323 H3310 0.961 . S
C3323 H3311 0.959 . S
C3323 C3321 1.561 . S
C3324 C3321 1.526 . S
C3324 C3325 1.396 . S
C3324 C3329 1.390 . S
C3325 C3319 1.465 . S
C3325 C3324 1.396 . S
C3325 C3326 1.399 . S
C3326 H3312 0.929 . S
C3326 C3325 1.399 . S
C3326 C3327 1.385 . S
C3327 H3313 0.931 . S
C3327 C3326 1.385 . S
C3327 C3328 1.389 . S
C3328 C3327 1.389 . S
C3328 C3329 1.387 . S
C3329 H3314 0.930 . S
C3329 C3324 1.390 . S
C3329 C3328 1.387 . S
H3330 C3342 0.930 . S
H3331 C3344 0.930 . S
H3332 C3345 0.930 . S
H3333 C3349 0.959 . S
H3334 C3349 0.959 . S
H3335 C3349 0.961 . S
H3336 C3350 0.960 . S
H3337 C3350 0.961 . S
H3338 C3350 0.959 . S
H3339 C3353 0.929 . S
H3340 C3354 0.931 . S
H3341 C3356 0.930 . S
C3342 H3330 0.930 . S
C3342 C3343 1.399 . S
C3342 C3347 1.399 . S
C3343 C3342 1.399 . S
C3343 C3344 1.376 . S
C3344 H3331 0.930 . S
C3344 C3343 1.376 . S
C3344 C3345 1.388 . S
C3345 H3332 0.930 . S
C3345 C3344 1.388 . S
C3345 C3346 1.390 . S
C3346 C3345 1.390 . S
C3346 C3347 1.394 . S
C3346 C3352 1.465 . S
C3347 C3342 1.399 . S
C3347 C3346 1.394 . S
C3347 C3348 1.516 . S
C3348 C3347 1.516 . S
C3348 C3349 1.502 . S
C3348 C3350 1.561 . S
C3348 C3351 1.526 . S
C3349 H3333 0.959 . S
C3349 H3334 0.959 . S
C3349 H3335 0.961 . S
C3349 C3348 1.502 . S
C3350 H3336 0.960 . S
C3350 H3337 0.961 . S
C3350 H3338 0.959 . S
C3350 C3348 1.561 . S
C3351 C3348 1.526 . S
C3351 C3352 1.396 . S
C3351 C3356 1.390 . S
C3352 C3346 1.465 . S
C3352 C3351 1.396 . S
C3352 C3353 1.399 . S
C3353 H3339 0.929 . S
C3353 C3352 1.399 . S
C3353 C3354 1.385 . S
C3354 H3340 0.931 . S
C3354 C3353 1.385 . S
C3354 C3355 1.389 . S
C3355 C3354 1.389 . S
C3355 C3356 1.387 . S
C3356 H3341 0.930 . S
C3356 C3351 1.390 . S
C3356 C3355 1.387 . S
H3357 C3369 0.930 . S
H3358 C3371 0.930 . S
H3359 C3372 0.930 . S
H3360 C3376 0.959 . S
H3361 C3376 0.959 . S
H3362 C3376 0.961 . S
H3363 C3377 0.960 . S
H3364 C3377 0.961 . S
H3365 C3377 0.959 . S
H3366 C3380 0.929 . S
H3367 C3381 0.931 . S
H3368 C3383 0.930 . S
C3369 H3357 0.930 . S
C3369 C3370 1.399 . S
C3369 C3374 1.399 . S
C3370 C3369 1.399 . S
C3370 C3371 1.376 . S
C3371 H3358 0.930 . S
C3371 C3370 1.376 . S
C3371 C3372 1.388 . S
C3372 H3359 0.930 . S
C3372 C3371 1.388 . S
C3372 C3373 1.390 . S
C3373 C3372 1.390 . S
C3373 C3374 1.394 . S
C3373 C3379 1.465 . S
C3374 C3369 1.399 . S
C3374 C3373 1.394 . S
C3374 C3375 1.516 . S
C3375 C3374 1.516 . S
C3375 C3376 1.502 . S
C3375 C3377 1.561 . S
C3375 C3378 1.526 . S
C3376 H3360 0.959 . S
C3376 H3361 0.959 . S
C3376 H3362 0.961 . S
C3376 C3375 1.502 . S
C3377 H3363 0.960 . S
C3377 H3364 0.961 . S
C3377 H3365 0.959 . S
C3377 C3375 1.561 . S
C3378 C3375 1.526 . S
C3378 C3379 1.396 . S
C3378 C3383 1.390 . S
C3379 C3373 1.465 . S
C3379 C3378 1.396 . S
C3379 C3380 1.399 . S
C3380 H3366 0.929 . S
C3380 C3379 1.399 . S
C3380 C3381 1.385 . S
C3381 H3367 0.931 . S
C3381 C3380 1.385 . S
C3381 C3382 1.389 . S
C3382 C3381 1.389 . S
C3382 C3383 1.387 . S
C3383 H3368 0.930 . S
C3383 C3378 1.390 . S
C3383 C3382 1.387 . S
H3384 C3396 0.930 . S
H3385 C3398 0.930 . S
H3386 C3399 0.930 . S
H3387 C3403 0.959 . S
H3388 C3403 0.959 . S
H3389 C3403 0.961 . S
H3390 C3404 0.960 . S
H3391 C3404 0.961 . S
H3392 C3404 0.959 . S
H3393 C3407 0.929 . S
H3394 C3408 0.931 . S
H3395 C3410 0.930 . S
C3396 H3384 0.930 . S
C3396 C3397 1.399 . S
C3396 C3401 1.399 . S
C3397 C3396 1.399 . S
C3397 C3398 1.376 . S
C3398 H3385 0.930 . S
C3398 C3397 1.376 . S
C3398 C3399 1.388 . S
C3399 H3386 0.930 . S
C3399 C3398 1.388 . S
C3399 C3400 1.390 . S
C3400 C3399 1.390 . S
C3400 C3401 1.394 . S
C3400 C3406 1.465 . S
C3401 C3396 1.399 . S
C3401 C3400 1.394 . S
C3401 C3402 1.516 . S
C3402 C3401 1.516 . S
C3402 C3403 1.502 . S
C3402 C3404 1.561 . S
C3402 C3405 1.526 . S
C3403 H3387 0.959 . S
C3403 H3388 0.959 . S
C3403 H3389 0.961 . S
C3403 C3402 1.502 . S
C3404 H3390 0.960 . S
C3404 H3391 0.961 . S
C3404 H3392 0.959 . S
C3404 C3402 1.561 . S
C3405 C3402 1.526 . S
C3405 C3406 1.396 . S
C3405 C3410 1.390 . S
C3406 C3400 1.465 . S
C3406 C3405 1.396 . S
C3406 C3407 1.399 . S
C3407 H3393 0.929 . S
C3407 C3406 1.399 . S
C3407 C3408 1.385 . S
C3408 H3394 0.931 . S
C3408 C3407 1.385 . S
C3408 C3409 1.389 . S
C3409 C3408 1.389 . S
C3409 C3410 1.387 . S
C3410 H3395 0.930 . S
C3410 C3405 1.390 . S
C3410 C3409 1.387 . S
H3411 C3423 0.930 . S
H3412 C3425 0.930 . S
H3413 C3426 0.930 . S
H3414 C3430 0.959 . S
H3415 C3430 0.959 . S
H3416 C3430 0.961 . S
H3417 C3431 0.960 . S
H3418 C3431 0.961 . S
H3419 C3431 0.959 . S
H3420 C3434 0.929 . S
H3421 C3435 0.931 . S
H3422 C3437 0.930 . S
C3423 H3411 0.930 . S
C3423 C3424 1.399 . S
C3423 C3428 1.399 . S
C3424 C3423 1.399 . S
C3424 C3425 1.376 . S
C3425 H3412 0.930 . S
C3425 C3424 1.376 . S
C3425 C3426 1.388 . S
C3426 H3413 0.930 . S
C3426 C3425 1.388 . S
C3426 C3427 1.390 . S
C3427 C3426 1.390 . S
C3427 C3428 1.394 . S
C3427 C3433 1.465 . S
C3428 C3423 1.399 . S
C3428 C3427 1.394 . S
C3428 C3429 1.516 . S
C3429 C3428 1.516 . S
C3429 C3430 1.502 . S
C3429 C3431 1.561 . S
C3429 C3432 1.526 . S
C3430 H3414 0.959 . S
C3430 H3415 0.959 . S
C3430 H3416 0.961 . S
C3430 C3429 1.502 . S
C3431 H3417 0.960 . S
C3431 H3418 0.961 . S
C3431 H3419 0.959 . S
C3431 C3429 1.561 . S
C3432 C3429 1.526 . S
C3432 C3433 1.396 . S
C3432 C3437 1.390 . S
C3433 C3427 1.465 . S
C3433 C3432 1.396 . S
C3433 C3434 1.399 . S
C3434 H3420 0.929 . S
C3434 C3433 1.399 . S
C3434 C3435 1.385 . S
C3435 H3421 0.931 . S
C3435 C3434 1.385 . S
C3435 C3436 1.389 . S
C3436 C3435 1.389 . S
C3436 C3437 1.387 . S
C3437 H3422 0.930 . S
C3437 C3432 1.390 . S
C3437 C3436 1.387 . S
H3438 C3450 0.930 . S
H3439 C3452 0.930 . S
H3440 C3453 0.930 . S
H3441 C3457 0.959 . S
H3442 C3457 0.959 . S
H3443 C3457 0.961 . S
H3444 C3458 0.960 . S
H3445 C3458 0.961 . S
H3446 C3458 0.959 . S
H3447 C3461 0.929 . S
H3448 C3462 0.931 . S
H3449 C3464 0.930 . S
C3450 H3438 0.930 . S
C3450 C3451 1.399 . S
C3450 C3455 1.399 . S
C3451 C3450 1.399 . S
C3451 C3452 1.376 . S
C3452 H3439 0.930 . S
C3452 C3451 1.376 . S
C3452 C3453 1.388 . S
C3453 H3440 0.930 . S
C3453 C3452 1.388 . S
C3453 C3454 1.390 . S
C3454 C3453 1.390 . S
C3454 C3455 1.394 . S
C3454 C3460 1.465 . S
C3455 C3450 1.399 . S
C3455 C3454 1.394 . S
C3455 C3456 1.516 . S
C3456 C3455 1.516 . S
C3456 C3457 1.502 . S
C3456 C3458 1.561 . S
C3456 C3459 1.526 . S
C3457 H3441 0.959 . S
C3457 H3442 0.959 . S
C3457 H3443 0.961 . S
C3457 C3456 1.502 . S
C3458 H3444 0.960 . S
C3458 H3445 0.961 . S
C3458 H3446 0.959 . S
C3458 C3456 1.561 . S
C3459 C3456 1.526 . S
C3459 C3460 1.396 . S
C3459 C3464 1.390 . S
C3460 C3454 1.465 . S
C3460 C3459 1.396 . S
C3460 C3461 1.399 . S
C3461 H3447 0.929 . S
C3461 C3460 1.399 . S
C3461 C3462 1.385 . S
C3462 H3448 0.931 . S
C3462 C3461 1.385 . S
C3462 C3463 1.389 . S
C3463 C3462 1.389 . S
C3463 C3464 1.387 . S
C3464 H3449 0.930 . S
C3464 C3459 1.390 . S
C3464 C3463 1.387 . S
H3465 C3477 0.930 . S
H3466 C3479 0.930 . S
H3467 C3480 0.930 . S
H3468 C3484 0.959 . S
H3469 C3484 0.959 . S
H3470 C3484 0.961 . S
H3471 C3485 0.960 . S
H3472 C3485 0.961 . S
H3473 C3485 0.959 . S
H3474 C3488 0.929 . S
H3475 C3489 0.931 . S
H3476 C3491 0.930 . S
C3477 H3465 0.930 . S
C3477 C3478 1.399 . S
C3477 C3482 1.399 . S
C3478 C3477 1.399 . S
C3478 C3479 1.376 . S
C3479 H3466 0.930 . S
C3479 C3478 1.376 . S
C3479 C3480 1.388 . S
C3480 H3467 0.930 . S
C3480 C3479 1.388 . S
C3480 C3481 1.390 . S
C3481 C3480 1.390 . S
C3481 C3482 1.394 . S
C3481 C3487 1.465 . S
C3482 C3477 1.399 . S
C3482 C3481 1.394 . S
C3482 C3483 1.516 . S
C3483 C3482 1.516 . S
C3483 C3484 1.502 . S
C3483 C3485 1.561 . S
C3483 C3486 1.526 . S
C3484 H3468 0.959 . S
C3484 H3469 0.959 . S
C3484 H3470 0.961 . S
C3484 C3483 1.502 . S
C3485 H3471 0.960 . S
C3485 H3472 0.961 . S
C3485 H3473 0.959 . S
C3485 C3483 1.561 . S
C3486 C3483 1.526 . S
C3486 C3487 1.396 . S
C3486 C3491 1.390 . S
C3487 C3481 1.465 . S
C3487 C3486 1.396 . S
C3487 C3488 1.399 . S
C3488 H3474 0.929 . S
C3488 C3487 1.399 . S
C3488 C3489 1.385 . S
C3489 H3475 0.931 . S
C3489 C3488 1.385 . S
C3489 C3490 1.389 . S
C3490 C3489 1.389 . S
C3490 C3491 1.387 . S
C3491 H3476 0.930 . S
C3491 C3486 1.390 . S
C3491 C3490 1.387 . S
H3492 C3504 0.930 . S
H3493 C3506 0.930 . S
H3494 C3507 0.930 . S
H3495 C3511 0.959 . S
H3496 C3511 0.959 . S
H3497 C3511 0.961 . S
H3498 C3512 0.960 . S
H3499 C3512 0.961 . S
H3500 C3512 0.959 . S
H3501 C3515 0.929 . S
H3502 C3516 0.931 . S
H3503 C3518 0.930 . S
C3504 H3492 0.930 . S
C3504 C3505 1.399 . S
C3504 C3509 1.399 . S
C3505 C3504 1.399 . S
C3505 C3506 1.376 . S
C3506 H3493 0.930 . S
C3506 C3505 1.376 . S
C3506 C3507 1.388 . S
C3507 H3494 0.930 . S
C3507 C3506 1.388 . S
C3507 C3508 1.390 . S
C3508 C3507 1.390 . S
C3508 C3509 1.394 . S
C3508 C3514 1.465 . S
C3509 C3504 1.399 . S
C3509 C3508 1.394 . S
C3509 C3510 1.516 . S
C3510 C3509 1.516 . S
C3510 C3511 1.502 . S
C3510 C3512 1.561 . S
C3510 C3513 1.526 . S
C3511 H3495 0.959 . S
C3511 H3496 0.959 . S
C3511 H3497 0.961 . S
C3511 C3510 1.502 . S
C3512 H3498 0.960 . S
C3512 H3499 0.961 . S
C3512 H3500 0.959 . S
C3512 C3510 1.561 . S
C3513 C3510 1.526 . S
C3513 C3514 1.396 . S
C3513 C3518 1.390 . S
C3514 C3508 1.465 . S
C3514 C3513 1.396 . S
C3514 C3515 1.399 . S
C3515 H3501 0.929 . S
C3515 C3514 1.399 . S
C3515 C3516 1.385 . S
C3516 H3502 0.931 . S
C3516 C3515 1.385 . S
C3516 C3517 1.389 . S
C3517 C3516 1.389 . S
C3517 C3518 1.387 . S
C3518 H3503 0.930 . S
C3518 C3513 1.390 . S
C3518 C3517 1.387 . S
H3519 C3531 0.930 . S
H3520 C3533 0.930 . S
H3521 C3534 0.930 . S
H3522 C3538 0.959 . S
H3523 C3538 0.959 . S
H3524 C3538 0.961 . S
H3525 C3539 0.960 . S
H3526 C3539 0.961 . S
H3527 C3539 0.959 . S
H3528 C3542 0.929 . S
H3529 C3543 0.931 . S
H3530 C3545 0.930 . S
C3531 H3519 0.930 . S
C3531 C3532 1.399 . S
C3531 C3536 1.399 . S
C3532 C3531 1.399 . S
C3532 C3533 1.376 . S
C3533 H3520 0.930 . S
C3533 C3532 1.376 . S
C3533 C3534 1.388 . S
C3534 H3521 0.930 . S
C3534 C3533 1.388 . S
C3534 C3535 1.390 . S
C3535 C3534 1.390 . S
C3535 C3536 1.394 . S
C3535 C3541 1.465 . S
C3536 C3531 1.399 . S
C3536 C3535 1.394 . S
C3536 C3537 1.516 . S
C3537 C3536 1.516 . S
C3537 C3538 1.502 . S
C3537 C3539 1.561 . S
C3537 C3540 1.526 . S
C3538 H3522 0.959 . S
C3538 H3523 0.959 . S
C3538 H3524 0.961 . S
C3538 C3537 1.502 . S
C3539 H3525 0.960 . S
C3539 H3526 0.961 . S
C3539 H3527 0.959 . S
C3539 C3537 1.561 . S
C3540 C3537 1.526 . S
C3540 C3541 1.396 . S
C3540 C3545 1.390 . S
C3541 C3535 1.465 . S
C3541 C3540 1.396 . S
C3541 C3542 1.399 . S
C3542 H3528 0.929 . S
C3542 C3541 1.399 . S
C3542 C3543 1.385 . S
C3543 H3529 0.931 . S
C3543 C3542 1.385 . S
C3543 C3544 1.389 . S
C3544 C3543 1.389 . S
C3544 C3545 1.387 . S
C3545 H3530 0.930 . S
C3545 C3540 1.390 . S
C3545 C3544 1.387 . S
H3546 C3558 0.930 . S
H3547 C3560 0.930 . S
H3548 C3561 0.930 . S
H3549 C3565 0.959 . S
H3550 C3565 0.959 . S
H3551 C3565 0.961 . S
H3552 C3566 0.960 . S
H3553 C3566 0.961 . S
H3554 C3566 0.959 . S
H3555 C3569 0.929 . S
H3556 C3570 0.931 . S
H3557 C3572 0.930 . S
C3558 H3546 0.930 . S
C3558 C3559 1.399 . S
C3558 C3563 1.399 . S
C3559 C3558 1.399 . S
C3559 C3560 1.376 . S
C3560 H3547 0.930 . S
C3560 C3559 1.376 . S
C3560 C3561 1.388 . S
C3561 H3548 0.930 . S
C3561 C3560 1.388 . S
C3561 C3562 1.390 . S
C3562 C3561 1.390 . S
C3562 C3563 1.394 . S
C3562 C3568 1.465 . S
C3563 C3558 1.399 . S
C3563 C3562 1.394 . S
C3563 C3564 1.516 . S
C3564 C3563 1.516 . S
C3564 C3565 1.502 . S
C3564 C3566 1.561 . S
C3564 C3567 1.526 . S
C3565 H3549 0.959 . S
C3565 H3550 0.959 . S
C3565 H3551 0.961 . S
C3565 C3564 1.502 . S
C3566 H3552 0.960 . S
C3566 H3553 0.961 . S
C3566 H3554 0.959 . S
C3566 C3564 1.561 . S
C3567 C3564 1.526 . S
C3567 C3568 1.396 . S
C3567 C3572 1.390 . S
C3568 C3562 1.465 . S
C3568 C3567 1.396 . S
C3568 C3569 1.399 . S
C3569 H3555 0.929 . S
C3569 C3568 1.399 . S
C3569 C3570 1.385 . S
C3570 H3556 0.931 . S
C3570 C3569 1.385 . S
C3570 C3571 1.389 . S
C3571 C3570 1.389 . S
C3571 C3572 1.387 . S
C3572 H3557 0.930 . S
C3572 C3567 1.390 . S
C3572 C3571 1.387 . S
H3573 C3585 0.930 . S
H3574 C3587 0.930 . S
H3575 C3588 0.930 . S
H3576 C3592 0.959 . S
H3577 C3592 0.959 . S
H3578 C3592 0.961 . S
H3579 C3593 0.960 . S
H3580 C3593 0.961 . S
H3581 C3593 0.959 . S
H3582 C3596 0.929 . S
H3583 C3597 0.931 . S
H3584 C3599 0.930 . S
C3585 H3573 0.930 . S
C3585 C3586 1.399 . S
C3585 C3590 1.399 . S
C3586 C3585 1.399 . S
C3586 C3587 1.376 . S
C3587 H3574 0.930 . S
C3587 C3586 1.376 . S
C3587 C3588 1.388 . S
C3588 H3575 0.930 . S
C3588 C3587 1.388 . S
C3588 C3589 1.390 . S
C3589 C3588 1.390 . S
C3589 C3590 1.394 . S
C3589 C3595 1.465 . S
C3590 C3585 1.399 . S
C3590 C3589 1.394 . S
C3590 C3591 1.516 . S
C3591 C3590 1.516 . S
C3591 C3592 1.502 . S
C3591 C3593 1.561 . S
C3591 C3594 1.526 . S
C3592 H3576 0.959 . S
C3592 H3577 0.959 . S
C3592 H3578 0.961 . S
C3592 C3591 1.502 . S
C3593 H3579 0.960 . S
C3593 H3580 0.961 . S
C3593 H3581 0.959 . S
C3593 C3591 1.561 . S
C3594 C3591 1.526 . S
C3594 C3595 1.396 . S
C3594 C3599 1.390 . S
C3595 C3589 1.465 . S
C3595 C3594 1.396 . S
C3595 C3596 1.399 . S
C3596 H3582 0.929 . S
C3596 C3595 1.399 . S
C3596 C3597 1.385 . S
C3597 H3583 0.931 . S
C3597 C3596 1.385 . S
C3597 C3598 1.389 . S
C3598 C3597 1.389 . S
C3598 C3599 1.387 . S
C3599 H3584 0.930 . S
C3599 C3594 1.390 . S
C3599 C3598 1.387 . S
H3600 C3612 0.930 . S
H3601 C3614 0.930 . S
H3602 C3615 0.930 . S
H3603 C3619 0.959 . S
H3604 C3619 0.959 . S
H3605 C3619 0.961 . S
H3606 C3620 0.960 . S
H3607 C3620 0.961 . S
H3608 C3620 0.959 . S
H3609 C3623 0.929 . S
H3610 C3624 0.931 . S
H3611 C3626 0.930 . S
C3612 H3600 0.930 . S
C3612 C3613 1.399 . S
C3612 C3617 1.399 . S
C3613 C3612 1.399 . S
C3613 C3614 1.376 . S
C3614 H3601 0.930 . S
C3614 C3613 1.376 . S
C3614 C3615 1.388 . S
C3615 H3602 0.930 . S
C3615 C3614 1.388 . S
C3615 C3616 1.390 . S
C3616 C3615 1.390 . S
C3616 C3617 1.394 . S
C3616 C3622 1.465 . S
C3617 C3612 1.399 . S
C3617 C3616 1.394 . S
C3617 C3618 1.516 . S
C3618 C3617 1.516 . S
C3618 C3619 1.502 . S
C3618 C3620 1.561 . S
C3618 C3621 1.526 . S
C3619 H3603 0.959 . S
C3619 H3604 0.959 . S
C3619 H3605 0.961 . S
C3619 C3618 1.502 . S
C3620 H3606 0.960 . S
C3620 H3607 0.961 . S
C3620 H3608 0.959 . S
C3620 C3618 1.561 . S
C3621 C3618 1.526 . S
C3621 C3622 1.396 . S
C3621 C3626 1.390 . S
C3622 C3616 1.465 . S
C3622 C3621 1.396 . S
C3622 C3623 1.399 . S
C3623 H3609 0.929 . S
C3623 C3622 1.399 . S
C3623 C3624 1.385 . S
C3624 H3610 0.931 . S
C3624 C3623 1.385 . S
C3624 C3625 1.389 . S
C3625 C3624 1.389 . S
C3625 C3626 1.387 . S
C3626 H3611 0.930 . S
C3626 C3621 1.390 . S
C3626 C3625 1.387 . S
H3627 C3639 0.930 . S
H3628 C3641 0.930 . S
H3629 C3642 0.930 . S
H3630 C3646 0.959 . S
H3631 C3646 0.959 . S
H3632 C3646 0.961 . S
H3633 C3647 0.960 . S
H3634 C3647 0.961 . S
H3635 C3647 0.959 . S
H3636 C3650 0.929 . S
H3637 C3651 0.931 . S
H3638 C3653 0.930 . S
C3639 H3627 0.930 . S
C3639 C3640 1.399 . S
C3639 C3644 1.399 . S
C3640 C3639 1.399 . S
C3640 C3641 1.376 . S
C3641 H3628 0.930 . S
C3641 C3640 1.376 . S
C3641 C3642 1.388 . S
C3642 H3629 0.930 . S
C3642 C3641 1.388 . S
C3642 C3643 1.390 . S
C3643 C3642 1.390 . S
C3643 C3644 1.394 . S
C3643 C3649 1.465 . S
C3644 C3639 1.399 . S
C3644 C3643 1.394 . S
C3644 C3645 1.516 . S
C3645 C3644 1.516 . S
C3645 C3646 1.502 . S
C3645 C3647 1.561 . S
C3645 C3648 1.526 . S
C3646 H3630 0.959 . S
C3646 H3631 0.959 . S
C3646 H3632 0.961 . S
C3646 C3645 1.502 . S
C3647 H3633 0.960 . S
C3647 H3634 0.961 . S
C3647 H3635 0.959 . S
C3647 C3645 1.561 . S
C3648 C3645 1.526 . S
C3648 C3649 1.396 . S
C3648 C3653 1.390 . S
C3649 C3643 1.465 . S
C3649 C3648 1.396 . S
C3649 C3650 1.399 . S
C3650 H3636 0.929 . S
C3650 C3649 1.399 . S
C3650 C3651 1.385 . S
C3651 H3637 0.931 . S
C3651 C3650 1.385 . S
C3651 C3652 1.389 . S
C3652 C3651 1.389 . S
C3652 C3653 1.387 . S
C3653 H3638 0.930 . S
C3653 C3648 1.390 . S
C3653 C3652 1.387 . S
H3654 C3666 0.930 . S
H3655 C3668 0.930 . S
H3656 C3669 0.930 . S
H3657 C3673 0.959 . S
H3658 C3673 0.959 . S
H3659 C3673 0.961 . S
H3660 C3674 0.960 . S
H3661 C3674 0.961 . S
H3662 C3674 0.959 . S
H3663 C3677 0.929 . S
H3664 C3678 0.931 . S
H3665 C3680 0.930 . S
C3666 H3654 0.930 . S
C3666 C3667 1.399 . S
C3666 C3671 1.399 . S
C3667 C3666 1.399 . S
C3667 C3668 1.376 . S
C3668 H3655 0.930 . S
C3668 C3667 1.376 . S
C3668 C3669 1.388 . S
C3669 H3656 0.930 . S
C3669 C3668 1.388 . S
C3669 C3670 1.390 . S
C3670 C3669 1.390 . S
C3670 C3671 1.394 . S
C3670 C3676 1.465 . S
C3671 C3666 1.399 . S
C3671 C3670 1.394 . S
C3671 C3672 1.516 . S
C3672 C3671 1.516 . S
C3672 C3673 1.502 . S
C3672 C3674 1.561 . S
C3672 C3675 1.526 . S
C3673 H3657 0.959 . S
C3673 H3658 0.959 . S
C3673 H3659 0.961 . S
C3673 C3672 1.502 . S
C3674 H3660 0.960 . S
C3674 H3661 0.961 . S
C3674 H3662 0.959 . S
C3674 C3672 1.561 . S
C3675 C3672 1.526 . S
C3675 C3676 1.396 . S
C3675 C3680 1.390 . S
C3676 C3670 1.465 . S
C3676 C3675 1.396 . S
C3676 C3677 1.399 . S
C3677 H3663 0.929 . S
C3677 C3676 1.399 . S
C3677 C3678 1.385 . S
C3678 H3664 0.931 . S
C3678 C3677 1.385 . S
C3678 C3679 1.389 . S
C3679 C3678 1.389 . S
C3679 C3680 1.387 . S
C3680 H3665 0.930 . S
C3680 C3675 1.390 . S
C3680 C3679 1.387 . S
H3681 C3693 0.930 . S
H3682 C3695 0.930 . S
H3683 C3696 0.926 1_655 S
H3684 C3700 0.896 1_655 S
H3685 C3700 0.959 . S
H3686 C3700 0.961 . S
H3687 C3701 0.960 . S
H3688 C3701 0.961 . S
H3689 C3701 0.959 . S
H3690 C3704 0.929 1_655 S
H3691 C3705 0.931 1_655 S
H3692 C3707 0.930 . S
C3693 H3681 0.930 . S
C3693 C3694 1.399 . S
C3693 C3698 1.399 . S
C3694 C3693 1.399 . S
C3694 C3695 1.376 . S
C3695 H3682 0.930 . S
C3695 C3694 1.376 . S
C3695 C3696 1.388 . S
C3696 H3683 0.926 1_455 S
C3696 C3695 1.388 . S
C3696 C3697 1.390 . S
C3697 C3696 1.390 . S
C3697 C3698 1.394 . S
C3697 C3703 1.465 . S
C3698 C3693 1.399 . S
C3698 C3697 1.394 . S
C3698 C3699 1.516 . S
C3699 C3698 1.516 . S
C3699 C3700 1.502 . S
C3699 C3701 1.561 . S
C3699 C3702 1.526 . S
C3700 H3684 0.896 1_455 S
C3700 H3685 0.959 . S
C3700 H3686 0.961 . S
C3700 C3699 1.502 . S
C3701 H3687 0.960 . S
C3701 H3688 0.961 . S
C3701 H3689 0.959 . S
C3701 C3699 1.561 . S
C3702 C3699 1.526 . S
C3702 C3703 1.396 . S
C3702 C3707 1.390 . S
C3703 C3697 1.465 . S
C3703 C3702 1.396 . S
C3703 C3704 1.399 . S
C3704 H3690 0.929 1_455 S
C3704 C3703 1.399 . S
C3704 C3705 1.385 . S
C3705 H3691 0.931 1_455 S
C3705 C3704 1.385 . S
C3705 C3706 1.389 . S
C3706 C3705 1.389 . S
C3706 C3707 1.387 . S
C3707 H3692 0.930 . S
C3707 C3702 1.390 . S
C3707 C3706 1.387 . S
H3708 C3720 0.930 . S
H3709 C3722 0.930 . S
H3710 C3723 0.930 . S
H3711 C3727 0.959 . S
H3712 C3727 0.959 . S
H3713 C3727 0.961 . S
H3714 C3728 0.960 . S
H3715 C3728 0.961 . S
H3716 C3728 0.959 . S
H3717 C3731 0.929 . S
H3718 C3732 0.931 . S
H3719 C3734 0.930 . S
C3720 H3708 0.930 . S
C3720 C3721 1.399 . S
C3720 C3725 1.399 . S
C3721 C3720 1.399 . S
C3721 C3722 1.376 . S
C3722 H3709 0.930 . S
C3722 C3721 1.376 . S
C3722 C3723 1.388 . S
C3723 H3710 0.930 . S
C3723 C3722 1.388 . S
C3723 C3724 1.390 . S
C3724 C3723 1.390 . S
C3724 C3725 1.394 . S
C3724 C3730 1.465 . S
C3725 C3720 1.399 . S
C3725 C3724 1.394 . S
C3725 C3726 1.516 . S
C3726 C3725 1.516 . S
C3726 C3727 1.502 . S
C3726 C3728 1.561 . S
C3726 C3729 1.526 . S
C3727 H3711 0.959 . S
C3727 H3712 0.959 . S
C3727 H3713 0.961 . S
C3727 C3726 1.502 . S
C3728 H3714 0.960 . S
C3728 H3715 0.961 . S
C3728 H3716 0.959 . S
C3728 C3726 1.561 . S
C3729 C3726 1.526 . S
C3729 C3730 1.396 . S
C3729 C3734 1.390 . S
C3730 C3724 1.465 . S
C3730 C3729 1.396 . S
C3730 C3731 1.399 . S
C3731 H3717 0.929 . S
C3731 C3730 1.399 . S
C3731 C3732 1.385 . S
C3732 H3718 0.931 . S
C3732 C3731 1.385 . S
C3732 C3733 1.389 . S
C3733 C3732 1.389 . S
C3733 C3734 1.387 . S
C3734 H3719 0.930 . S
C3734 C3729 1.390 . S
C3734 C3733 1.387 . S
H3735 C3747 0.930 . S
H3736 C3749 0.930 . S
H3737 C3750 0.930 . S
H3738 C3754 0.959 . S
H3739 C3754 0.959 . S
H3740 C3754 0.961 . S
H3741 C3755 0.960 . S
H3742 C3755 0.961 . S
H3743 C3755 0.959 . S
H3744 C3758 0.929 . S
H3745 C3759 0.931 . S
H3746 C3761 0.930 . S
C3747 H3735 0.930 . S
C3747 C3748 1.399 1_545 S
C3747 C3752 1.395 1_545 S
C3748 C3747 1.399 1_565 S
C3748 C3749 1.376 . S
C3749 H3736 0.930 . S
C3749 C3748 1.376 . S
C3749 C3750 1.388 . S
C3750 H3737 0.930 . S
C3750 C3749 1.388 . S
C3750 C3751 1.390 . S
C3751 C3750 1.390 . S
C3751 C3752 1.401 . S
C3751 C3757 1.465 . S
C3752 C3747 1.395 1_565 S
C3752 C3751 1.401 . S
C3752 C3753 1.514 1_565 S
C3753 C3752 1.514 1_545 S
C3753 C3754 1.502 . S
C3753 C3755 1.561 . S
C3753 C3756 1.536 . S
C3754 H3738 0.959 . S
C3754 H3739 0.959 . S
C3754 H3740 0.961 . S
C3754 C3753 1.502 . S
C3755 H3741 0.960 . S
C3755 H3742 0.961 . S
C3755 H3743 0.959 . S
C3755 C3753 1.561 . S
C3756 C3753 1.536 . S
C3756 C3757 1.387 1_545 S
C3756 C3761 1.388 . S
C3757 C3751 1.465 . S
C3757 C3756 1.387 1_565 S
C3757 C3758 1.399 . S
C3758 H3744 0.929 . S
C3758 C3757 1.399 . S
C3758 C3759 1.385 . S
C3759 H3745 0.931 . S
C3759 C3758 1.385 . S
C3759 C3760 1.389 . S
C3760 C3759 1.389 . S
C3760 C3761 1.387 1_565 S
C3761 H3746 0.930 . S
C3761 C3756 1.388 . S
C3761 C3760 1.387 1_545 S
H3762 C3774 0.930 . S
H3763 C3776 0.930 . S
H3764 C3777 0.930 . S
H3765 C3781 0.959 . S
H3766 C3781 0.959 . S
H3767 C3781 0.961 . S
H3768 C3782 0.960 . S
H3769 C3782 0.961 . S
H3770 C3782 0.959 . S
H3771 C3785 0.929 . S
H3772 C3786 0.931 . S
H3773 C3788 0.930 . S
C3774 H3762 0.930 . S
C3774 C3775 1.399 . S
C3774 C3779 1.399 . S
C3775 C3774 1.399 . S
C3775 C3776 1.376 1_565 S
C3776 H3763 0.930 . S
C3776 C3775 1.376 1_545 S
C3776 C3777 1.388 . S
C3777 H3764 0.930 . S
C3777 C3776 1.388 . S
C3777 C3778 1.390 . S
C3778 C3777 1.390 . S
C3778 C3779 1.394 1_545 S
C3778 C3784 1.465 . S
C3779 C3774 1.399 . S
C3779 C3778 1.394 1_565 S
C3779 C3780 1.516 . S
C3780 C3779 1.516 . S
C3780 C3781 1.502 . S
C3780 C3782 1.561 . S
C3780 C3783 1.526 . S
C3781 H3765 0.959 . S
C3781 H3766 0.959 . S
C3781 H3767 0.961 . S
C3781 C3780 1.502 . S
C3782 H3768 0.960 . S
C3782 H3769 0.961 . S
C3782 H3770 0.959 . S
C3782 C3780 1.561 . S
C3783 C3780 1.526 . S
C3783 C3784 1.396 1_565 S
C3783 C3788 1.390 . S
C3784 C3778 1.465 . S
C3784 C3783 1.396 1_545 S
C3784 C3785 1.399 . S
C3785 H3771 0.929 . S
C3785 C3784 1.399 . S
C3785 C3786 1.385 . S
C3786 H3772 0.931 . S
C3786 C3785 1.385 . S
C3786 C3787 1.413 . S
C3787 C3786 1.413 . S
C3787 C3788 1.355 1_545 S
C3788 H3773 0.930 . S
C3788 C3783 1.390 . S
C3788 C3787 1.355 1_565 S
H3789 C3801 0.930 . S
H3790 C3803 0.930 . S
H3791 C3804 0.930 . S
H3792 C3808 0.959 . S
H3793 C3808 0.959 . S
H3794 C3808 0.961 . S
H3795 C3809 0.960 . S
H3796 C3809 0.961 . S
H3797 C3809 0.959 1_455 S
H3798 C3812 0.929 . S
H3799 C3813 0.931 . S
H3800 C3815 0.930 . S
C3801 H3789 0.930 . S
C3801 C3802 1.399 1_655 S
C3801 C3806 1.403 . S
C3802 C3801 1.399 1_455 S
C3802 C3803 1.376 . S
C3803 H3790 0.930 . S
C3803 C3802 1.376 . S
C3803 C3804 1.388 . S
C3804 H3791 0.930 . S
C3804 C3803 1.388 . S
C3804 C3805 1.390 . S
C3805 C3804 1.390 . S
C3805 C3806 1.386 1_455 S
C3805 C3811 1.465 . S
C3806 C3801 1.403 . S
C3806 C3805 1.386 1_655 S
C3806 C3807 1.519 . S
C3807 C3806 1.519 . S
C3807 C3808 1.502 . S
C3807 C3809 1.561 . S
C3807 C3810 1.526 . S
C3808 H3792 0.959 . S
C3808 H3793 0.959 . S
C3808 H3794 0.961 . S
C3808 C3807 1.502 . S
C3809 H3795 0.960 . S
C3809 H3796 0.961 . S
C3809 H3797 0.959 1_655 S
C3809 C3807 1.561 . S
C3810 C3807 1.526 . S
C3810 C3811 1.396 1_655 S
C3810 C3815 1.390 . S
C3811 C3805 1.465 . S
C3811 C3810 1.396 1_455 S
C3811 C3812 1.399 . S
C3812 H3798 0.929 . S
C3812 C3811 1.399 . S
C3812 C3813 1.385 . S
C3813 H3799 0.931 . S
C3813 C3812 1.385 . S
C3813 C3814 1.389 . S
C3814 C3813 1.389 . S
C3814 C3815 1.387 1_455 S
C3815 H3800 0.930 . S
C3815 C3810 1.390 . S
C3815 C3814 1.387 1_655 S
H3816 C3828 0.930 . S
H3817 C3830 0.930 . S
H3818 C3831 0.930 . S
H3819 C3835 0.959 . S
H3820 C3835 0.959 . S
H3821 C3835 0.961 . S
H3822 C3836 0.960 . S
H3823 C3836 0.961 . S
H3824 C3836 0.959 . S
H3825 C3839 0.929 . S
H3826 C3840 0.931 . S
H3827 C3842 0.930 . S
C3828 H3816 0.930 . S
C3828 C3829 1.399 . S
C3828 C3833 1.399 . S
C3829 C3828 1.399 . S
C3829 C3830 1.376 . S
C3830 H3817 0.930 . S
C3830 C3829 1.376 . S
C3830 C3831 1.388 . S
C3831 H3818 0.930 . S
C3831 C3830 1.388 . S
C3831 C3832 1.390 . S
C3832 C3831 1.390 . S
C3832 C3833 1.394 . S
C3832 C3838 1.465 . S
C3833 C3828 1.399 . S
C3833 C3832 1.394 . S
C3833 C3834 1.516 . S
C3834 C3833 1.516 . S
C3834 C3835 1.502 . S
C3834 C3836 1.561 . S
C3834 C3837 1.526 . S
C3835 H3819 0.959 . S
C3835 H3820 0.959 . S
C3835 H3821 0.961 . S
C3835 C3834 1.502 . S
C3836 H3822 0.960 . S
C3836 H3823 0.961 . S
C3836 H3824 0.959 . S
C3836 C3834 1.561 . S
C3837 C3834 1.526 . S
C3837 C3838 1.396 . S
C3837 C3842 1.390 . S
C3838 C3832 1.465 . S
C3838 C3837 1.396 . S
C3838 C3839 1.399 . S
C3839 H3825 0.929 . S
C3839 C3838 1.399 . S
C3839 C3840 1.385 . S
C3840 H3826 0.931 . S
C3840 C3839 1.385 . S
C3840 C3841 1.389 . S
C3841 C3840 1.389 . S
C3841 C3842 1.387 . S
C3842 H3827 0.930 . S
C3842 C3837 1.390 . S
C3842 C3841 1.387 . S
H3843 C3855 0.930 . S
H3844 C3857 0.930 . S
H3845 C3858 0.930 . S
H3846 C3862 0.959 . S
H3847 C3862 0.959 . S
H3848 C3862 0.961 . S
H3849 C3863 0.960 . S
H3850 C3863 0.961 . S
H3851 C3863 0.959 . S
H3852 C3866 0.929 . S
H3853 C3867 0.931 . S
H3854 C3869 0.930 . S
C3855 H3843 0.930 . S
C3855 C3856 1.399 . S
C3855 C3860 1.399 . S
C3856 C3855 1.399 . S
C3856 C3857 1.376 . S
C3857 H3844 0.930 . S
C3857 C3856 1.376 . S
C3857 C3858 1.388 . S
C3858 H3845 0.930 . S
C3858 C3857 1.388 . S
C3858 C3859 1.390 . S
C3859 C3858 1.390 . S
C3859 C3860 1.394 . S
C3859 C3865 1.465 . S
C3860 C3855 1.399 . S
C3860 C3859 1.394 . S
C3860 C3861 1.516 . S
C3861 C3860 1.516 . S
C3861 C3862 1.502 . S
C3861 C3863 1.561 . S
C3861 C3864 1.526 . S
C3862 H3846 0.959 . S
C3862 H3847 0.959 . S
C3862 H3848 0.961 . S
C3862 C3861 1.502 . S
C3863 H3849 0.960 . S
C3863 H3850 0.961 . S
C3863 H3851 0.959 . S
C3863 C3861 1.561 . S
C3864 C3861 1.526 . S
C3864 C3865 1.396 . S
C3864 C3869 1.390 . S
C3865 C3859 1.465 . S
C3865 C3864 1.396 . S
C3865 C3866 1.399 . S
C3866 H3852 0.929 . S
C3866 C3865 1.399 . S
C3866 C3867 1.385 . S
C3867 H3853 0.931 . S
C3867 C3866 1.385 . S
C3867 C3868 1.389 . S
C3868 C3867 1.389 . S
C3868 C3869 1.387 . S
C3869 H3854 0.930 . S
C3869 C3864 1.390 . S
C3869 C3868 1.387 . S
H3870 C3882 0.930 . S
H3871 C3884 0.930 . S
H3872 C3885 0.930 . S
H3873 C3889 0.959 . S
H3874 C3889 0.959 . S
H3875 C3889 0.961 . S
H3876 C3890 0.960 . S
H3877 C3890 0.961 . S
H3878 C3890 0.959 . S
H3879 C3893 0.929 . S
H3880 C3894 0.931 . S
H3881 C3896 0.930 . S
C3882 H3870 0.930 . S
C3882 C3883 1.399 . S
C3882 C3887 1.399 . S
C3883 C3882 1.399 . S
C3883 C3884 1.376 . S
C3884 H3871 0.930 . S
C3884 C3883 1.376 . S
C3884 C3885 1.388 . S
C3885 H3872 0.930 . S
C3885 C3884 1.388 . S
C3885 C3886 1.390 . S
C3886 C3885 1.390 . S
C3886 C3887 1.394 . S
C3886 C3892 1.465 . S
C3887 C3882 1.399 . S
C3887 C3886 1.394 . S
C3887 C3888 1.516 . S
C3888 C3887 1.516 . S
C3888 C3889 1.502 . S
C3888 C3890 1.561 . S
C3888 C3891 1.526 . S
C3889 H3873 0.959 . S
C3889 H3874 0.959 . S
C3889 H3875 0.961 . S
C3889 C3888 1.502 . S
C3890 H3876 0.960 . S
C3890 H3877 0.961 . S
C3890 H3878 0.959 . S
C3890 C3888 1.561 . S
C3891 C3888 1.526 . S
C3891 C3892 1.396 . S
C3891 C3896 1.390 . S
C3892 C3886 1.465 . S
C3892 C3891 1.396 . S
C3892 C3893 1.399 . S
C3893 H3879 0.929 . S
C3893 C3892 1.399 . S
C3893 C3894 1.385 . S
C3894 H3880 0.931 . S
C3894 C3893 1.385 . S
C3894 C3895 1.389 . S
C3895 C3894 1.389 . S
C3895 C3896 1.387 . S
C3896 H3881 0.930 . S
C3896 C3891 1.390 . S
C3896 C3895 1.387 . S
H3897 C3909 0.930 . S
H3898 C3911 0.930 . S
H3899 C3912 0.930 . S
H3900 C3916 0.959 . S
H3901 C3916 0.959 . S
H3902 C3916 0.961 . S
H3903 C3917 0.960 . S
H3904 C3917 0.961 . S
H3905 C3917 0.959 . S
H3906 C3920 0.929 . S
H3907 C3921 0.931 . S
H3908 C3923 0.930 . S
C3909 H3897 0.930 . S
C3909 C3910 1.399 . S
C3909 C3914 1.399 . S
C3910 C3909 1.399 . S
C3910 C3911 1.376 . S
C3911 H3898 0.930 . S
C3911 C3910 1.376 . S
C3911 C3912 1.388 . S
C3912 H3899 0.930 . S
C3912 C3911 1.388 . S
C3912 C3913 1.390 . S
C3913 C3912 1.390 . S
C3913 C3914 1.394 . S
C3913 C3919 1.465 . S
C3914 C3909 1.399 . S
C3914 C3913 1.394 . S
C3914 C3915 1.516 . S
C3915 C3914 1.516 . S
C3915 C3916 1.502 . S
C3915 C3917 1.561 . S
C3915 C3918 1.526 . S
C3916 H3900 0.959 . S
C3916 H3901 0.959 . S
C3916 H3902 0.961 . S
C3916 C3915 1.502 . S
C3917 H3903 0.960 . S
C3917 H3904 0.961 . S
C3917 H3905 0.959 . S
C3917 C3915 1.561 . S
C3918 C3915 1.526 . S
C3918 C3919 1.396 . S
C3918 C3923 1.390 . S
C3919 C3913 1.465 . S
C3919 C3918 1.396 . S
C3919 C3920 1.399 . S
C3920 H3906 0.929 . S
C3920 C3919 1.399 . S
C3920 C3921 1.385 . S
C3921 H3907 0.931 . S
C3921 C3920 1.385 . S
C3921 C3922 1.389 . S
C3922 C3921 1.389 . S
C3922 C3923 1.387 . S
C3923 H3908 0.930 . S
C3923 C3918 1.390 . S
C3923 C3922 1.387 . S
H3924 C3936 0.930 . S
H3925 C3938 0.930 . S
H3926 C3939 0.930 . S
H3927 C3943 0.959 . S
H3928 C3943 0.959 . S
H3929 C3943 0.961 . S
H3930 C3944 0.960 . S
H3931 C3944 0.961 . S
H3932 C3944 0.959 . S
H3933 C3947 0.929 . S
H3934 C3948 0.931 . S
H3935 C3950 0.930 . S
C3936 H3924 0.930 . S
C3936 C3937 1.399 1_565 S
C3936 C3941 1.387 . S
C3937 C3936 1.399 1_545 S
C3937 C3938 1.376 . S
C3938 H3925 0.930 . S
C3938 C3937 1.376 . S
C3938 C3939 1.388 . S
C3939 H3926 0.930 . S
C3939 C3938 1.388 . S
C3939 C3940 1.390 . S
C3940 C3939 1.390 . S
C3940 C3941 1.366 1_545 S
C3940 C3946 1.465 . S
C3941 C3936 1.387 . S
C3941 C3940 1.366 1_565 S
C3941 C3942 1.555 . S
C3942 C3941 1.555 . S
C3942 C3943 1.502 . S
C3942 C3944 1.561 . S
C3942 C3945 1.544 . S
C3943 H3927 0.959 . S
C3943 H3928 0.959 . S
C3943 H3929 0.961 . S
C3943 C3942 1.502 . S
C3944 H3930 0.960 . S
C3944 H3931 0.961 . S
C3944 H3932 0.959 . S
C3944 C3942 1.561 . S
C3945 C3942 1.544 . S
C3945 C3946 1.327 1_565 S
C3945 C3950 1.434 . S
C3946 C3940 1.465 . S
C3946 C3945 1.327 1_545 S
C3946 C3947 1.399 . S
C3947 H3933 0.929 . S
C3947 C3946 1.399 . S
C3947 C3948 1.385 . S
C3948 H3934 0.931 . S
C3948 C3947 1.385 . S
C3948 C3949 1.389 . S
C3949 C3948 1.389 . S
C3949 C3950 1.387 1_545 S
C3950 H3935 0.930 . S
C3950 C3945 1.434 . S
C3950 C3949 1.387 1_565 S
H3951 C3963 0.930 . S
H3952 C3965 0.930 . S
H3953 C3966 0.930 . S
H3954 C3970 0.959 . S
H3955 C3970 0.959 . S
H3956 C3970 0.961 . S
H3957 C3971 0.960 . S
H3958 C3971 0.961 . S
H3959 C3971 0.959 . S
H3960 C3974 0.929 . S
H3961 C3975 0.931 . S
H3962 C3977 0.930 . S
C3963 H3951 0.930 . S
C3963 C3964 1.399 . S
C3963 C3968 1.399 . S
C3964 C3963 1.399 . S
C3964 C3965 1.376 1_655 S
C3965 H3952 0.930 . S
C3965 C3964 1.376 1_455 S
C3965 C3966 1.388 . S
C3966 H3953 0.930 . S
C3966 C3965 1.388 . S
C3966 C3967 1.396 . S
C3967 C3966 1.396 . S
C3967 C3968 1.389 1_455 S
C3967 C3973 1.477 . S
C3968 C3963 1.399 . S
C3968 C3967 1.389 1_655 S
C3968 C3969 1.516 . S
C3969 C3968 1.516 . S
C3969 C3970 1.502 . S
C3969 C3971 1.561 . S
C3969 C3972 1.526 . S
C3970 H3954 0.959 . S
C3970 H3955 0.959 . S
C3970 H3956 0.961 . S
C3970 C3969 1.502 . S
C3971 H3957 0.960 . S
C3971 H3958 0.961 . S
C3971 H3959 0.959 . S
C3971 C3969 1.561 . S
C3972 C3969 1.526 . S
C3972 C3973 1.361 1_655 S
C3972 C3977 1.390 . S
C3973 C3967 1.477 . S
C3973 C3972 1.361 1_455 S
C3973 C3974 1.414 . S
C3974 H3960 0.929 . S
C3974 C3973 1.414 . S
C3974 C3975 1.385 . S
C3975 H3961 0.931 . S
C3975 C3974 1.385 . S
C3975 C3976 1.389 1_455 S
C3976 C3975 1.389 1_655 S
C3976 C3977 1.387 . S
C3977 H3962 0.930 . S
C3977 C3972 1.390 . S
C3977 C3976 1.387 . S
H3978 C3990 0.930 . S
H3979 C3992 0.930 . S
H3980 C3993 0.930 . S
H3981 C3997 0.959 . S
H3982 C3997 0.959 . S
H3983 C3997 0.961 . S
H3984 C3998 0.960 . S
H3985 C3998 0.961 . S
H3986 C3998 0.959 . S
H3987 C4001 0.929 . S
H3988 C4002 0.931 . S
H3989 C4004 0.930 . S
C3990 H3978 0.930 . S
C3990 C3991 1.399 . S
C3990 C3995 1.399 . S
C3991 C3990 1.399 . S
C3991 C3992 1.376 . S
C3992 H3979 0.930 . S
C3992 C3991 1.376 . S
C3992 C3993 1.388 . S
C3993 H3980 0.930 . S
C3993 C3992 1.388 . S
C3993 C3994 1.390 . S
C3994 C3993 1.390 . S
C3994 C3995 1.394 . S
C3994 C4000 1.465 . S
C3995 C3990 1.399 . S
C3995 C3994 1.394 . S
C3995 C3996 1.516 . S
C3996 C3995 1.516 . S
C3996 C3997 1.502 . S
C3996 C3998 1.561 . S
C3996 C3999 1.526 . S
C3997 H3981 0.959 . S
C3997 H3982 0.959 . S
C3997 H3983 0.961 . S
C3997 C3996 1.502 . S
C3998 H3984 0.960 . S
C3998 H3985 0.961 . S
C3998 H3986 0.959 . S
C3998 C3996 1.561 . S
C3999 C3996 1.526 . S
C3999 C4000 1.396 . S
C3999 C4004 1.390 . S
C4000 C3994 1.465 . S
C4000 C3999 1.396 . S
C4000 C4001 1.399 . S
C4001 H3987 0.929 . S
C4001 C4000 1.399 . S
C4001 C4002 1.385 . S
C4002 H3988 0.931 . S
C4002 C4001 1.385 . S
C4002 C4003 1.389 . S
C4003 C4002 1.389 . S
C4003 C4004 1.387 . S
C4004 H3989 0.930 . S
C4004 C3999 1.390 . S
C4004 C4003 1.387 . S
H4005 C4017 0.930 . S
H4006 C4019 0.930 . S
H4007 C4020 0.930 . S
H4008 C4024 0.959 . S
H4009 C4024 0.959 . S
H4010 C4024 0.961 . S
H4011 C4025 0.960 . S
H4012 C4025 0.961 . S
H4013 C4025 0.959 . S
H4014 C4028 0.929 . S
H4015 C4029 0.931 . S
H4016 C4031 0.930 . S
C4017 H4005 0.930 . S
C4017 C4018 1.399 . S
C4017 C4022 1.399 . S
C4018 C4017 1.399 . S
C4018 C4019 1.376 . S
C4019 H4006 0.930 . S
C4019 C4018 1.376 . S
C4019 C4020 1.388 . S
C4020 H4007 0.930 . S
C4020 C4019 1.388 . S
C4020 C4021 1.390 . S
C4021 C4020 1.390 . S
C4021 C4022 1.394 . S
C4021 C4027 1.465 . S
C4022 C4017 1.399 . S
C4022 C4021 1.394 . S
C4022 C4023 1.516 . S
C4023 C4022 1.516 . S
C4023 C4024 1.502 . S
C4023 C4025 1.561 . S
C4023 C4026 1.526 . S
C4024 H4008 0.959 . S
C4024 H4009 0.959 . S
C4024 H4010 0.961 . S
C4024 C4023 1.502 . S
C4025 H4011 0.960 . S
C4025 H4012 0.961 . S
C4025 H4013 0.959 . S
C4025 C4023 1.561 . S
C4026 C4023 1.526 . S
C4026 C4027 1.396 . S
C4026 C4031 1.390 . S
C4027 C4021 1.465 . S
C4027 C4026 1.396 . S
C4027 C4028 1.399 . S
C4028 H4014 0.929 . S
C4028 C4027 1.399 . S
C4028 C4029 1.385 . S
C4029 H4015 0.931 . S
C4029 C4028 1.385 . S
C4029 C4030 1.389 . S
C4030 C4029 1.389 . S
C4030 C4031 1.387 . S
C4031 H4016 0.930 . S
C4031 C4026 1.390 . S
C4031 C4030 1.387 . S
H4032 C4044 0.930 . S
H4033 C4046 0.930 . S
H4034 C4047 0.930 . S
H4035 C4051 0.959 . S
H4036 C4051 0.959 . S
H4037 C4051 0.961 . S
H4038 C4052 0.960 . S
H4039 C4052 0.961 . S
H4040 C4052 0.959 . S
H4041 C4055 0.929 . S
H4042 C4056 0.931 . S
H4043 C4058 0.930 . S
C4044 H4032 0.930 . S
C4044 C4045 1.399 . S
C4044 C4049 1.399 . S
C4045 C4044 1.399 . S
C4045 C4046 1.376 . S
C4046 H4033 0.930 . S
C4046 C4045 1.376 . S
C4046 C4047 1.388 . S
C4047 H4034 0.930 . S
C4047 C4046 1.388 . S
C4047 C4048 1.390 . S
C4048 C4047 1.390 . S
C4048 C4049 1.394 . S
C4048 C4054 1.465 . S
C4049 C4044 1.399 . S
C4049 C4048 1.394 . S
C4049 C4050 1.516 . S
C4050 C4049 1.516 . S
C4050 C4051 1.502 . S
C4050 C4052 1.561 . S
C4050 C4053 1.526 . S
C4051 H4035 0.959 . S
C4051 H4036 0.959 . S
C4051 H4037 0.961 . S
C4051 C4050 1.502 . S
C4052 H4038 0.960 . S
C4052 H4039 0.961 . S
C4052 H4040 0.959 . S
C4052 C4050 1.561 . S
C4053 C4050 1.526 . S
C4053 C4054 1.396 . S
C4053 C4058 1.390 . S
C4054 C4048 1.465 . S
C4054 C4053 1.396 . S
C4054 C4055 1.399 . S
C4055 H4041 0.929 . S
C4055 C4054 1.399 . S
C4055 C4056 1.385 . S
C4056 H4042 0.931 . S
C4056 C4055 1.385 . S
C4056 C4057 1.389 . S
C4057 C4056 1.389 . S
C4057 C4058 1.387 . S
C4058 H4043 0.930 . S
C4058 C4053 1.390 . S
C4058 C4057 1.387 . S
H4059 C4071 0.930 . S
H4060 C4073 0.930 . S
H4061 C4074 0.930 . S
H4062 C4078 0.959 . S
H4063 C4078 0.959 . S
H4064 C4078 0.961 . S
H4065 C4079 0.960 . S
H4066 C4079 0.961 . S
H4067 C4079 0.959 . S
H4068 C4082 0.929 . S
H4069 C4083 0.931 . S
H4070 C4085 0.930 . S
C4071 H4059 0.930 . S
C4071 C4072 1.399 . S
C4071 C4076 1.399 . S
C4072 C4071 1.399 . S
C4072 C4073 1.376 . S
C4073 H4060 0.930 . S
C4073 C4072 1.376 . S
C4073 C4074 1.388 . S
C4074 H4061 0.930 . S
C4074 C4073 1.388 . S
C4074 C4075 1.390 . S
C4075 C4074 1.390 . S
C4075 C4076 1.394 . S
C4075 C4081 1.465 . S
C4076 C4071 1.399 . S
C4076 C4075 1.394 . S
C4076 C4077 1.516 . S
C4077 C4076 1.516 . S
C4077 C4078 1.502 . S
C4077 C4079 1.561 . S
C4077 C4080 1.526 . S
C4078 H4062 0.959 . S
C4078 H4063 0.959 . S
C4078 H4064 0.961 . S
C4078 C4077 1.502 . S
C4079 H4065 0.960 . S
C4079 H4066 0.961 . S
C4079 H4067 0.959 . S
C4079 C4077 1.561 . S
C4080 C4077 1.526 . S
C4080 C4081 1.396 . S
C4080 C4085 1.390 . S
C4081 C4075 1.465 . S
C4081 C4080 1.396 . S
C4081 C4082 1.399 . S
C4082 H4068 0.929 . S
C4082 C4081 1.399 . S
C4082 C4083 1.385 . S
C4083 H4069 0.931 . S
C4083 C4082 1.385 . S
C4083 C4084 1.389 . S
C4084 C4083 1.389 . S
C4084 C4085 1.387 . S
C4085 H4070 0.930 . S
C4085 C4080 1.390 . S
C4085 C4084 1.387 . S
H4086 C4098 0.930 . S
H4087 C4100 0.930 . S
H4088 C4101 0.930 . S
H4089 C4105 0.959 . S
H4090 C4105 0.959 . S
H4091 C4105 0.961 . S
H4092 C4106 0.960 . S
H4093 C4106 0.961 . S
H4094 C4106 0.959 . S
H4095 C4109 0.929 . S
H4096 C4110 0.931 . S
H4097 C4112 0.930 . S
C4098 H4086 0.930 . S
C4098 C4099 1.399 . S
C4098 C4103 1.399 . S
C4099 C4098 1.399 . S
C4099 C4100 1.376 . S
C4100 H4087 0.930 . S
C4100 C4099 1.376 . S
C4100 C4101 1.388 . S
C4101 H4088 0.930 . S
C4101 C4100 1.388 . S
C4101 C4102 1.390 . S
C4102 C4101 1.390 . S
C4102 C4103 1.394 . S
C4102 C4108 1.465 . S
C4103 C4098 1.399 . S
C4103 C4102 1.394 . S
C4103 C4104 1.516 . S
C4104 C4103 1.516 . S
C4104 C4105 1.502 . S
C4104 C4106 1.561 . S
C4104 C4107 1.526 . S
C4105 H4089 0.959 . S
C4105 H4090 0.959 . S
C4105 H4091 0.961 . S
C4105 C4104 1.502 . S
C4106 H4092 0.960 . S
C4106 H4093 0.961 . S
C4106 H4094 0.959 . S
C4106 C4104 1.561 . S
C4107 C4104 1.526 . S
C4107 C4108 1.396 . S
C4107 C4112 1.390 . S
C4108 C4102 1.465 . S
C4108 C4107 1.396 . S
C4108 C4109 1.399 . S
C4109 H4095 0.929 . S
C4109 C4108 1.399 . S
C4109 C4110 1.385 . S
C4110 H4096 0.931 . S
C4110 C4109 1.385 . S
C4110 C4111 1.389 . S
C4111 C4110 1.389 . S
C4111 C4112 1.387 . S
C4112 H4097 0.930 . S
C4112 C4107 1.390 . S
C4112 C4111 1.387 . S
H4113 C4125 0.930 . S
H4114 C4127 0.930 . S
H4115 C4128 0.930 . S
H4116 C4132 0.959 . S
H4117 C4132 0.959 . S
H4118 C4132 0.961 . S
H4119 C4133 0.960 . S
H4120 C4133 0.961 . S
H4121 C4133 0.959 . S
H4122 C4136 0.929 . S
H4123 C4137 0.931 . S
H4124 C4139 0.930 . S
C4125 H4113 0.930 . S
C4125 C4126 1.399 . S
C4125 C4130 1.399 . S
C4126 C4125 1.399 . S
C4126 C4127 1.376 . S
C4127 H4114 0.930 . S
C4127 C4126 1.376 . S
C4127 C4128 1.388 . S
C4128 H4115 0.930 . S
C4128 C4127 1.388 . S
C4128 C4129 1.390 . S
C4129 C4128 1.390 . S
C4129 C4130 1.394 . S
C4129 C4135 1.465 . S
C4130 C4125 1.399 . S
C4130 C4129 1.394 . S
C4130 C4131 1.516 . S
C4131 C4130 1.516 . S
C4131 C4132 1.502 . S
C4131 C4133 1.561 . S
C4131 C4134 1.526 . S
C4132 H4116 0.959 . S
C4132 H4117 0.959 . S
C4132 H4118 0.961 . S
C4132 C4131 1.502 . S
C4133 H4119 0.960 . S
C4133 H4120 0.961 . S
C4133 H4121 0.959 . S
C4133 C4131 1.561 . S
C4134 C4131 1.526 . S
C4134 C4135 1.396 . S
C4134 C4139 1.390 . S
C4135 C4129 1.465 . S
C4135 C4134 1.396 . S
C4135 C4136 1.399 . S
C4136 H4122 0.929 . S
C4136 C4135 1.399 . S
C4136 C4137 1.385 . S
C4137 H4123 0.931 . S
C4137 C4136 1.385 . S
C4137 C4138 1.389 . S
C4138 C4137 1.389 . S
C4138 C4139 1.387 . S
C4139 H4124 0.930 . S
C4139 C4134 1.390 . S
C4139 C4138 1.387 . S
H4140 C4152 0.930 . S
H4141 C4154 0.930 . S
H4142 C4155 0.930 . S
H4143 C4159 0.959 . S
H4144 C4159 0.959 . S
H4145 C4159 0.961 . S
H4146 C4160 0.960 . S
H4147 C4160 0.961 . S
H4148 C4160 0.959 . S
H4149 C4163 0.929 . S
H4150 C4164 0.931 . S
H4151 C4166 0.930 . S
C4152 H4140 0.930 . S
C4152 C4153 1.399 . S
C4152 C4157 1.399 . S
C4153 C4152 1.399 . S
C4153 C4154 1.376 . S
C4154 H4141 0.930 . S
C4154 C4153 1.376 . S
C4154 C4155 1.388 . S
C4155 H4142 0.930 . S
C4155 C4154 1.388 . S
C4155 C4156 1.390 . S
C4156 C4155 1.390 . S
C4156 C4157 1.394 . S
C4156 C4162 1.465 . S
C4157 C4152 1.399 . S
C4157 C4156 1.394 . S
C4157 C4158 1.516 . S
C4158 C4157 1.516 . S
C4158 C4159 1.502 . S
C4158 C4160 1.561 . S
C4158 C4161 1.526 . S
C4159 H4143 0.959 . S
C4159 H4144 0.959 . S
C4159 H4145 0.961 . S
C4159 C4158 1.502 . S
C4160 H4146 0.960 . S
C4160 H4147 0.961 . S
C4160 H4148 0.959 . S
C4160 C4158 1.561 . S
C4161 C4158 1.526 . S
C4161 C4162 1.396 . S
C4161 C4166 1.390 . S
C4162 C4156 1.465 . S
C4162 C4161 1.396 . S
C4162 C4163 1.399 . S
C4163 H4149 0.929 . S
C4163 C4162 1.399 . S
C4163 C4164 1.385 . S
C4164 H4150 0.931 . S
C4164 C4163 1.385 . S
C4164 C4165 1.389 . S
C4165 C4164 1.389 . S
C4165 C4166 1.387 . S
C4166 H4151 0.930 . S
C4166 C4161 1.390 . S
C4166 C4165 1.387 . S
H4167 C4179 0.930 . S
H4168 C4181 0.930 . S
H4169 C4182 0.930 . S
H4170 C4186 0.959 . S
H4171 C4186 0.959 . S
H4172 C4186 0.961 . S
H4173 C4187 0.960 . S
H4174 C4187 0.961 . S
H4175 C4187 0.959 . S
H4176 C4190 0.912 . S
H4177 C4191 0.934 . S
H4178 C4193 0.930 . S
C4179 H4167 0.930 . S
C4179 C4180 1.399 . S
C4179 C4184 1.399 . S
C4180 C4179 1.399 . S
C4180 C4181 1.376 . S
C4181 H4168 0.930 . S
C4181 C4180 1.376 . S
C4181 C4182 1.388 . S
C4182 H4169 0.930 . S
C4182 C4181 1.388 . S
C4182 C4183 1.390 . S
C4183 C4182 1.390 . S
C4183 C4184 1.394 . S
C4183 C4189 1.465 . S
C4184 C4179 1.399 . S
C4184 C4183 1.394 . S
C4184 C4185 1.516 . S
C4185 C4184 1.516 . S
C4185 C4186 1.502 . S
C4185 C4187 1.561 1_655 S
C4185 C4188 1.526 . S
C4186 H4170 0.959 . S
C4186 H4171 0.959 . S
C4186 H4172 0.961 . S
C4186 C4185 1.502 . S
C4187 H4173 0.960 . S
C4187 H4174 0.961 . S
C4187 H4175 0.959 . S
C4187 C4185 1.561 1_455 S
C4188 C4185 1.526 . S
C4188 C4189 1.396 . S
C4188 C4193 1.390 . S
C4189 C4183 1.465 . S
C4189 C4188 1.396 . S
C4189 C4190 1.399 . S
C4190 H4176 0.912 . S
C4190 C4189 1.399 . S
C4190 C4191 1.385 . S
C4191 H4177 0.934 . S
C4191 C4190 1.385 . S
C4191 C4192 1.389 . S
C4192 C4191 1.389 . S
C4192 C4193 1.387 . S
C4193 H4178 0.930 . S
C4193 C4188 1.390 . S
C4193 C4192 1.387 . S
H4194 C4206 0.930 . S
H4195 C4208 0.930 . S
H4196 C4209 0.930 . S
H4197 C4213 0.959 . S
H4198 C4213 0.959 . S
H4199 C4213 0.961 . S
H4200 C4214 0.960 . S
H4201 C4214 0.961 . S
H4202 C4214 0.959 . S
H4203 C4217 0.929 . S
H4204 C4218 0.931 . S
H4205 C4220 0.930 . S
C4206 H4194 0.930 . S
C4206 C4207 1.399 . S
C4206 C4211 1.399 . S
C4207 C4206 1.399 . S
C4207 C4208 1.376 . S
C4208 H4195 0.930 . S
C4208 C4207 1.376 . S
C4208 C4209 1.388 . S
C4209 H4196 0.930 . S
C4209 C4208 1.388 . S
C4209 C4210 1.390 . S
C4210 C4209 1.390 . S
C4210 C4211 1.394 . S
C4210 C4216 1.465 . S
C4211 C4206 1.399 . S
C4211 C4210 1.394 . S
C4211 C4212 1.516 . S
C4212 C4211 1.516 . S
C4212 C4213 1.502 . S
C4212 C4214 1.561 . S
C4212 C4215 1.526 . S
C4213 H4197 0.959 . S
C4213 H4198 0.959 . S
C4213 H4199 0.961 . S
C4213 C4212 1.502 . S
C4214 H4200 0.960 . S
C4214 H4201 0.961 . S
C4214 H4202 0.959 . S
C4214 C4212 1.561 . S
C4215 C4212 1.526 . S
C4215 C4216 1.396 . S
C4215 C4220 1.390 . S
C4216 C4210 1.465 . S
C4216 C4215 1.396 . S
C4216 C4217 1.399 . S
C4217 H4203 0.929 . S
C4217 C4216 1.399 . S
C4217 C4218 1.385 . S
C4218 H4204 0.931 . S
C4218 C4217 1.385 . S
C4218 C4219 1.389 . S
C4219 C4218 1.389 . S
C4219 C4220 1.387 . S
C4220 H4205 0.930 . S
C4220 C4215 1.390 . S
C4220 C4219 1.387 . S
H4221 C4233 0.930 . S
H4222 C4235 0.930 . S
H4223 C4236 0.930 . S
H4224 C4240 0.959 . S
H4225 C4240 0.959 . S
H4226 C4240 0.961 . S
H4227 C4241 0.960 . S
H4228 C4241 0.961 . S
H4229 C4241 0.959 . S
H4230 C4244 0.929 . S
H4231 C4245 0.931 . S
H4232 C4247 0.930 . S
C4233 H4221 0.930 . S
C4233 C4234 1.399 . S
C4233 C4238 1.399 . S
C4234 C4233 1.399 . S
C4234 C4235 1.376 1_545 S
C4235 H4222 0.930 . S
C4235 C4234 1.376 1_565 S
C4235 C4236 1.388 . S
C4236 H4223 0.930 . S
C4236 C4235 1.388 . S
C4236 C4237 1.390 1_565 S
C4237 C4236 1.390 1_545 S
C4237 C4238 1.394 . S
C4237 C4243 1.467 1_545 S
C4238 C4233 1.399 . S
C4238 C4237 1.394 . S
C4238 C4239 1.516 . S
C4239 C4238 1.516 . S
C4239 C4240 1.502 . S
C4239 C4241 1.561 . S
C4239 C4242 1.526 . S
C4240 H4224 0.959 . S
C4240 H4225 0.959 . S
C4240 H4226 0.961 . S
C4240 C4239 1.502 . S
C4241 H4227 0.960 . S
C4241 H4228 0.961 . S
C4241 H4229 0.959 . S
C4241 C4239 1.561 . S
C4242 C4239 1.526 . S
C4242 C4243 1.393 1_545 S
C4242 C4247 1.390 . S
C4243 C4237 1.467 1_565 S
C4243 C4242 1.393 1_565 S
C4243 C4244 1.399 . S
C4244 H4230 0.929 . S
C4244 C4243 1.399 . S
C4244 C4245 1.385 . S
C4245 H4231 0.931 . S
C4245 C4244 1.385 . S
C4245 C4246 1.387 1_565 S
C4246 C4245 1.387 1_545 S
C4246 C4247 1.387 . S
C4247 H4232 0.930 . S
C4247 C4242 1.390 . S
C4247 C4246 1.387 . S
C2317 C8 1.359 1_655 S
C2329 C1307 1.019 1_655 S
C2344 C22 1.691 . S
C2356 C1447 1.042 . S
C2383 C1535 1.076 . S
C2371 C37 1.367 . S
C2398 C36 1.466 1_565 S
C2410 C1675 1.171 1_565 S
C2425 C9 1.401 . S
C2437 C1789 0.952 1_455 S
C2452 C23 1.700 . S
C2464 C1877 1.236 . S
C2479 C50 1.287 1_455 S
C2491 C1763 1.164 . S
C2518 C1903 1.245 . S
C2506 C64 1.602 . S
C2545 C1649 1.242 1_545 S
C2533 C79 1.372 1_565 S
C2560 C78 1.398 1_545 S
C2572 C1561 1.135 1_565 S
C2599 C1333 1.100 1_455 S
C2587 C51 1.377 1_655 S
C2614 C65 1.598 . S
C2626 C1421 1.392 . S
C2641 C92 1.737 . S
C2653 C1991 1.230 . S
C2668 C106 1.785 . S
C2680 C2131 1.198 . S
C2707 C2219 1.235 . S
C2695 C121 1.716 . S
C2722 C120 1.720 . S
C2734 C307 1.030 . S
C2749 C93 1.746 . S
C2761 C421 1.198 . S
C2776 C107 1.765 . S
C2788 C509 1.337 . S
C2803 C134 1.507 . S
C2815 C395 1.398 . S
C2830 C148 1.661 . S
C2842 C535 1.340 . S
C2869 C281 1.420 . S
C2857 C163 1.609 . S
C2896 C2245 1.523 . S
C2884 C162 1.762 . S
C2923 C2017 1.353 . S
C2911 C135 1.635 . S
C2950 C2105 1.580 . S
C2938 C149 1.707 . S
C2965 C176 1.620 . S
C2977 C623 1.176 . S
C2992 C190 1.738 . S
C3004 C763 1.050 . S
C3019 C205 1.709 . S
C3031 C851 1.195 . S
C3046 C204 1.854 . S
C3058 C991 1.154 . S
C3085 C1105 1.166 . S
C3073 C177 1.748 . S
C3112 C1193 1.318 . S
C3100 C191 1.795 . S
C3139 C1079 1.488 . S
C3127 C218 1.663 . S
C3166 C1219 1.477 . S
C3154 C232 1.681 . S
C3181 C247 1.607 . S
C3193 C965 1.401 . S
C3220 C877 1.419 . S
C3208 C246 1.620 . S
C3235 C219 1.633 . S
C3247 C649 1.384 . S
C3274 C737 1.450 . S
C3262 C233 1.664 . S
C3301 C263 1.049 . S
C3289 C6 1.752 . S
C3316 C20 1.536 . S
C3328 C377 0.872 . S
C3355 C481 1.273 . S
C3343 C35 1.647 . S
C3382 C595 1.206 . S
C3370 C34 1.556 . S
C3409 C719 1.026 . S
C3397 C7 1.705 . S
C3436 C823 1.198 . S
C3424 C21 1.577 . S
C3451 C48 1.845 . S
C3463 C833 1.300 . S
C3478 C62 1.622 . S
C3490 C605 1.133 . S
C3505 C77 1.746 . S
C3517 C709 1.532 . S
C3532 C76 1.668 . S
C3544 C367 1.438 . S
C3571 C491 1.368 . S
C3559 C49 1.791 . S
C3586 C63 1.652 . S
C3598 C253 1.468 . S
C3625 C947 0.854 . S
C3613 C90 1.658 . S
C3640 C104 1.658 . S
C3652 C1061 0.912 . S
C3667 C119 1.645 . S
C3679 C1165 1.186 . S
C3706 C1279 1.165 . S
C3694 C118 1.300 . S
C3721 C91 1.636 . S
C3733 C1403 1.024 . S
C3748 C105 1.362 . S
C3760 C1507 1.054 . S
C3775 C132 1.514 . S
C3787 C1517 0.875 . S
C3802 C146 1.380 . S
C3814 C1289 0.941 1_455 S
C3841 C1393 1.471 . S
C3829 C161 1.665 . S
C3856 C160 1.613 . S
C3868 C1051 1.425 . S
C3883 C133 1.752 . S
C3895 C1175 1.303 . S
C3922 C937 1.492 . S
C3910 C147 1.778 . S
C3949 C1631 0.862 . S
C3937 C174 1.457 . S
C3964 C188 1.423 . S
C3976 C1745 1.032 . S
C3991 C203 1.580 . S
C4003 C1849 1.113 . S
C4030 C1963 1.160 . S
C4018 C202 1.492 . S
C4057 C2087 0.977 . S
C4045 C175 1.703 . S
C4072 C189 1.662 . S
C4084 C2191 1.217 . S
C4099 C216 1.751 . S
C4111 C2201 1.217 . S
C4126 C230 1.742 . S
C4138 C1973 1.303 . S
C4165 C2077 1.481 . S
C4153 C245 1.712 . S
C4192 C1735 1.154 1_655 S
C4180 C244 1.322 . S
C4219 C1859 1.152 . S
C4207 C217 1.704 . S
C4234 C231 1.417 . S
C4246 C1621 1.062 1_545 S
