# Generated by pormake.
# Topology ctn, (3,4)-cn, num edge types: 1
# Building blocks:
#     Node 0, Type 0, BuildingBlock: KAKCAD_clean_linker_0, # of connection points: 3
#     Node 1, Type 0, BuildingBlock: KAKCAD_clean_linker_0, # of connection points: 3
#     Node 2, Type 0, BuildingBlock: KAKCAD_clean_linker_0, # of connection points: 3
#     Node 3, Type 0, BuildingBlock: KAKCAD_clean_linker_0, # of connection points: 3
#     Node 4, Type 0, BuildingBlock: KAKCAD_clean_linker_0, # of connection points: 3
#     Node 5, Type 0, BuildingBlock: KAKCAD_clean_linker_0, # of connection points: 3
#     Node 6, Type 0, BuildingBlock: KAKCAD_clean_linker_0, # of connection points: 3
#     Node 7, Type 0, BuildingBlock: KAKCAD_clean_linker_0, # of connection points: 3
#     Node 8, Type 0, BuildingBlock: KAKCAD_clean_linker_0, # of connection points: 3
#     Node 9, Type 0, BuildingBlock: KAKCAD_clean_linker_0, # of connection points: 3
#     Node 10, Type 0, BuildingBlock: KAKCAD_clean_linker_0, # of connection points: 3
#     Node 11, Type 0, BuildingBlock: KAKCAD_clean_linker_0, # of connection points: 3
#     Node 12, Type 0, BuildingBlock: KAKCAD_clean_linker_0, # of connection points: 3
#     Node 13, Type 0, BuildingBlock: KAKCAD_clean_linker_0, # of connection points: 3
#     Node 14, Type 0, BuildingBlock: KAKCAD_clean_linker_0, # of connection points: 3
#     Node 15, Type 0, BuildingBlock: KAKCAD_clean_linker_0, # of connection points: 3
#     Node 16, Type 1, BuildingBlock: AZAVOO_clean_sbu_0, # of connection points: 4
#     Node 17, Type 1, BuildingBlock: AZAVOO_clean_sbu_0, # of connection points: 4
#     Node 18, Type 1, BuildingBlock: AZAVOO_clean_sbu_0, # of connection points: 4
#     Node 19, Type 1, BuildingBlock: AZAVOO_clean_sbu_0, # of connection points: 4
#     Node 20, Type 1, BuildingBlock: AZAVOO_clean_sbu_0, # of connection points: 4
#     Node 21, Type 1, BuildingBlock: AZAVOO_clean_sbu_0, # of connection points: 4
#     Node 22, Type 1, BuildingBlock: AZAVOO_clean_sbu_0, # of connection points: 4
#     Node 23, Type 1, BuildingBlock: AZAVOO_clean_sbu_0, # of connection points: 4
#     Node 24, Type 1, BuildingBlock: AZAVOO_clean_sbu_0, # of connection points: 4
#     Node 25, Type 1, BuildingBlock: AZAVOO_clean_sbu_0, # of connection points: 4
#     Node 26, Type 1, BuildingBlock: AZAVOO_clean_sbu_0, # of connection points: 4
#     Node 27, Type 1, BuildingBlock: AZAVOO_clean_sbu_0, # of connection points: 4
#     Edge 28, Type (0, 1), BuildingBlock: MIFKUJ_clean_linker_0, # of connection points: 2
#     Edge 29, Type (0, 1), BuildingBlock: MIFKUJ_clean_linker_0, # of connection points: 2
#     Edge 30, Type (0, 1), BuildingBlock: MIFKUJ_clean_linker_0, # of connection points: 2
#     Edge 31, Type (0, 1), BuildingBlock: MIFKUJ_clean_linker_0, # of connection points: 2
#     Edge 32, Type (0, 1), BuildingBlock: MIFKUJ_clean_linker_0, # of connection points: 2
#     Edge 33, Type (0, 1), BuildingBlock: MIFKUJ_clean_linker_0, # of connection points: 2
#     Edge 34, Type (0, 1), BuildingBlock: MIFKUJ_clean_linker_0, # of connection points: 2
#     Edge 35, Type (0, 1), BuildingBlock: MIFKUJ_clean_linker_0, # of connection points: 2
#     Edge 36, Type (0, 1), BuildingBlock: MIFKUJ_clean_linker_0, # of connection points: 2
#     Edge 37, Type (0, 1), BuildingBlock: MIFKUJ_clean_linker_0, # of connection points: 2
#     Edge 38, Type (0, 1), BuildingBlock: MIFKUJ_clean_linker_0, # of connection points: 2
#     Edge 39, Type (0, 1), BuildingBlock: MIFKUJ_clean_linker_0, # of connection points: 2
#     Edge 40, Type (0, 1), BuildingBlock: MIFKUJ_clean_linker_0, # of connection points: 2
#     Edge 41, Type (0, 1), BuildingBlock: MIFKUJ_clean_linker_0, # of connection points: 2
#     Edge 42, Type (0, 1), BuildingBlock: MIFKUJ_clean_linker_0, # of connection points: 2
#     Edge 43, Type (0, 1), BuildingBlock: MIFKUJ_clean_linker_0, # of connection points: 2
#     Edge 44, Type (0, 1), BuildingBlock: MIFKUJ_clean_linker_0, # of connection points: 2
#     Edge 45, Type (0, 1), BuildingBlock: MIFKUJ_clean_linker_0, # of connection points: 2
#     Edge 46, Type (0, 1), BuildingBlock: MIFKUJ_clean_linker_0, # of connection points: 2
#     Edge 47, Type (0, 1), BuildingBlock: MIFKUJ_clean_linker_0, # of connection points: 2
#     Edge 48, Type (0, 1), BuildingBlock: MIFKUJ_clean_linker_0, # of connection points: 2
#     Edge 49, Type (0, 1), BuildingBlock: MIFKUJ_clean_linker_0, # of connection points: 2
#     Edge 50, Type (0, 1), BuildingBlock: MIFKUJ_clean_linker_0, # of connection points: 2
#     Edge 51, Type (0, 1), BuildingBlock: MIFKUJ_clean_linker_0, # of connection points: 2
#     Edge 52, Type (0, 1), BuildingBlock: MIFKUJ_clean_linker_0, # of connection points: 2
#     Edge 53, Type (0, 1), BuildingBlock: MIFKUJ_clean_linker_0, # of connection points: 2
#     Edge 54, Type (0, 1), BuildingBlock: MIFKUJ_clean_linker_0, # of connection points: 2
#     Edge 55, Type (0, 1), BuildingBlock: MIFKUJ_clean_linker_0, # of connection points: 2
#     Edge 56, Type (0, 1), BuildingBlock: MIFKUJ_clean_linker_0, # of connection points: 2
#     Edge 57, Type (0, 1), BuildingBlock: MIFKUJ_clean_linker_0, # of connection points: 2
#     Edge 58, Type (0, 1), BuildingBlock: MIFKUJ_clean_linker_0, # of connection points: 2
#     Edge 59, Type (0, 1), BuildingBlock: MIFKUJ_clean_linker_0, # of connection points: 2
#     Edge 60, Type (0, 1), BuildingBlock: MIFKUJ_clean_linker_0, # of connection points: 2
#     Edge 61, Type (0, 1), BuildingBlock: MIFKUJ_clean_linker_0, # of connection points: 2
#     Edge 62, Type (0, 1), BuildingBlock: MIFKUJ_clean_linker_0, # of connection points: 2
#     Edge 63, Type (0, 1), BuildingBlock: MIFKUJ_clean_linker_0, # of connection points: 2
#     Edge 64, Type (0, 1), BuildingBlock: MIFKUJ_clean_linker_0, # of connection points: 2
#     Edge 65, Type (0, 1), BuildingBlock: MIFKUJ_clean_linker_0, # of connection points: 2
#     Edge 66, Type (0, 1), BuildingBlock: MIFKUJ_clean_linker_0, # of connection points: 2
#     Edge 67, Type (0, 1), BuildingBlock: MIFKUJ_clean_linker_0, # of connection points: 2
#     Edge 68, Type (0, 1), BuildingBlock: MIFKUJ_clean_linker_0, # of connection points: 2
#     Edge 69, Type (0, 1), BuildingBlock: MIFKUJ_clean_linker_0, # of connection points: 2
#     Edge 70, Type (0, 1), BuildingBlock: MIFKUJ_clean_linker_0, # of connection points: 2
#     Edge 71, Type (0, 1), BuildingBlock: MIFKUJ_clean_linker_0, # of connection points: 2
#     Edge 72, Type (0, 1), BuildingBlock: MIFKUJ_clean_linker_0, # of connection points: 2
#     Edge 73, Type (0, 1), BuildingBlock: MIFKUJ_clean_linker_0, # of connection points: 2
#     Edge 74, Type (0, 1), BuildingBlock: MIFKUJ_clean_linker_0, # of connection points: 2
#     Edge 75, Type (0, 1), BuildingBlock: MIFKUJ_clean_linker_0, # of connection points: 2
# Relax obj value: 0.001
# Max RMSD: 0.043
# Mean RMSD: 0.022
data_MOF--net-ctn--node1-AZAVOO_clean_sbu_0--node2-KAKCAD_clean_linker_0--edge1-MIFKUJ_clean_linker_0
_symmetry_space_group_name_H-M    P1
_symmetry_Int_Tables_number       1
_symmetry_cell_setting            triclinic
loop_
_symmetry_equiv_pos_as_xyz
'x, y, z'
_cell_length_a     83.393425
_cell_length_b     84.429506
_cell_length_c     84.353548
_cell_angle_alpha  90.174679
_cell_angle_beta   92.778698
_cell_angle_gamma 92.921419
loop_
_atom_site_label
_atom_site_type_symbol
_atom_site_fract_x
_atom_site_fract_y
_atom_site_fract_z
_atom_type_partial_charge
C0 C 0.02845 0.06218 0.97373 0.0
C1 C 0.02779 0.07732 0.98058 0.0
C2 C 0.02988 0.04879 0.98329 0.0
C3 C 0.03061 0.05024 -8e-05 0.0
C4 C 0.02984 0.06535 0.00677 0.0
C5 C 0.02848 0.07874 0.99722 0.0
C6 C 0.0324 0.03607 0.0101 0.0
C7 C 0.04344 0.02472 0.00652 0.0
C8 C 0.04554 0.01146 0.0163 0.0
C9 C 0.03617 0.00946 0.02964 0.0
C10 C 0.02514 0.02075 0.03339 0.0
C11 C 0.02337 0.03403 0.02363 0.0
C12 C 0.01566 0.01894 0.04771 0.0
C13 C 0.00598 0.00513 0.05004 0.0
C14 C 0.01607 0.03122 0.059 0.0
C15 C 0.00699 0.0297 0.07245 0.0
C16 C 0.9971 0.016 0.07467 0.0
C17 C 0.05809 0.0002 0.01294 0.0
C18 C 0.06027 0.99518 0.99732 0.0
C19 C 0.06848 0.995 0.02524 0.0
C20 C 0.08099 0.98527 0.02196 0.0
C21 C 0.08333 0.98046 0.0063 0.0
C22 C 0.07273 0.98538 0.99404 0.0
C23 C 0.99661 0.00374 0.06334 0.0
H24 H 0.02772 0.06064 0.96096 0.0
H25 H 0.03025 0.03726 0.97768 0.0
H26 H 0.03063 0.06687 0.01955 0.0
H27 H 0.02832 0.09024 0.0029 0.0
H28 H 0.05089 0.02656 0.99644 0.0
H29 H 0.01473 0.04267 0.02646 0.0
H30 H 0.03761 0.99925 0.03725 0.0
H31 H 0.00544 0.99555 0.04142 0.0
H32 H 0.0235 0.04196 0.05746 0.0
H33 H 0.00748 0.03934 0.08099 0.0
H34 H 0.05238 0.99889 0.98761 0.0
H35 H 0.06722 0.99879 0.03738 0.0
H36 H 0.9891 0.99306 0.06486 0.0
H37 H 0.07428 0.98196 0.98185 0.0
H38 H 0.08883 0.98151 0.03169 0.0
C39 C 0.35306 0.74409 0.26 0.0
C40 C 0.36298 0.73148 0.26353 0.0
C41 C 0.33918 0.74169 0.25017 0.0
C42 C 0.33484 0.72659 0.24381 0.0
C43 C 0.34469 0.71394 0.24743 0.0
C44 C 0.3587 0.71639 0.25711 0.0
C45 C 0.32016 0.72412 0.23328 0.0
C46 C 0.31714 0.73464 0.22077 0.0
C47 C 0.30332 0.73246 0.21065 0.0
C48 C 0.29239 0.71962 0.2133 0.0
C49 C 0.29515 0.70899 0.22582 0.0
C50 C 0.30915 0.7113 0.23571 0.0
C51 C 0.28339 0.69553 0.22852 0.0
C52 C 0.26676 0.69759 0.22677 0.0
C53 C 0.28867 0.68048 0.23268 0.0
C54 C 0.2776 0.66778 0.23493 0.0
C55 C 0.26098 0.6698 0.23301 0.0
C56 C 0.30039 0.74347 0.19722 0.0
C57 C 0.30351 0.75991 0.19915 0.0
C58 C 0.29449 0.7376 0.18234 0.0
C59 C 0.29173 0.74791 0.1697 0.0
C60 C 0.29487 0.76435 0.1716 0.0
C61 C 0.30079 0.77023 0.18649 0.0
C62 C 0.2557 0.68488 0.22894 0.0
H63 H 0.35614 0.75586 0.26472 0.0
H64 H 0.33175 0.75162 0.24764 0.0
H65 H 0.34167 0.70221 0.24259 0.0
H66 H 0.36607 0.70645 0.25974 0.0
H67 H 0.32582 0.7443 0.21864 0.0
H68 H 0.3113 0.70338 0.24559 0.0
H69 H 0.2817 0.71789 0.20554 0.0
H70 H 0.26226 0.70906 0.22378 0.0
H71 H 0.30138 0.67843 0.23399 0.0
H72 H 0.28209 0.65639 0.23828 0.0
H73 H 0.30792 0.76483 0.21051 0.0
H74 H 0.29214 0.725 0.18038 0.0
H75 H 0.24301 0.68684 0.22721 0.0
H76 H 0.30347 0.7828 0.18832 0.0
H77 H 0.28697 0.743 0.15846 0.0
C78 C 0.00269 0.48448 0.10353 0.0
C79 C 0.01926 0.48229 0.10293 0.0
C80 C 0.99251 0.48237 0.08992 0.0
C81 C 0.99866 0.47804 0.07537 0.0
C82 C 0.01522 0.47581 0.07481 0.0
C83 C 0.02536 0.47786 0.08841 0.0
C84 C 0.98793 0.47591 0.06079 0.0
C85 C 0.97553 0.48628 0.05749 0.0
C86 C 0.96569 0.48458 0.04352 0.0
C87 C 0.96832 0.47233 0.0328 0.0
C88 C 0.98052 0.46173 0.03593 0.0
C89 C 0.99022 0.4636 0.04998 0.0
C90 C 0.98302 0.44863 0.02461 0.0
C91 C 0.96981 0.43999 0.01729 0.0
C92 C 0.99862 0.4446 0.02111 0.0
C93 C 0.00095 0.43212 0.01067 0.0
C94 C 0.98773 0.42338 0.00347 0.0
C95 C 0.95269 0.49561 0.04004 0.0
C96 C 0.94213 0.49945 0.0518 0.0
C97 C 0.95059 0.5022 0.02484 0.0
C98 C 0.9382 0.51239 0.02147 0.0
C99 C 0.92755 0.51612 0.03318 0.0
C100 C 0.92964 0.50953 0.04838 0.0
C101 C 0.97214 0.42754 0.00684 0.0
H102 H 0.99758 0.48803 0.11448 0.0
H103 H 0.97979 0.48402 0.09083 0.0
H104 H 0.02042 0.47266 0.06379 0.0
H105 H 0.03801 0.47583 0.08753 0.0
H106 H 0.97382 0.49601 0.06555 0.0
H107 H 0.99937 0.45521 0.05267 0.0
H108 H 0.96081 0.47104 0.02198 0.0
H109 H 0.95763 0.44267 0.01984 0.0
H110 H 0.00906 0.45114 0.0264 0.0
H111 H 0.01313 0.42914 0.00848 0.0
H112 H 0.9434 0.49445 0.06358 0.0
H113 H 0.95862 0.49956 0.01558 0.0
H114 H 0.96168 0.42118 0.00137 0.0
H115 H 0.92171 0.51231 0.05769 0.0
H116 H 0.93682 0.51719 0.00962 0.0
C117 C 0.71474 0.76876 0.16987 0.0
C118 C 0.72991 0.76607 0.16422 0.0
C119 C 0.71304 0.78049 0.18132 0.0
C120 C 0.72654 0.78954 0.18763 0.0
C121 C 0.74177 0.78656 0.18206 0.0
C122 C 0.74339 0.77508 0.17036 0.0
C123 C 0.72481 0.80195 0.2 0.0
C124 C 0.71326 0.79984 0.21152 0.0
C125 C 0.71157 0.81141 0.22326 0.0
C126 C 0.722 0.82504 0.22372 0.0
C127 C 0.73381 0.82733 0.21248 0.0
C128 C 0.73486 0.81587 0.20049 0.0
C129 C 0.74536 0.84141 0.21356 0.0
C130 C 0.74044 0.85631 0.21833 0.0
C131 C 0.7616 0.8399 0.21029 0.0
C132 C 0.77263 0.85288 0.21191 0.0
C133 C 0.76781 0.86769 0.21705 0.0
C134 C 0.69898 0.80918 0.23509 0.0
C135 C 0.68357 0.80274 0.23044 0.0
C136 C 0.70222 0.81348 0.25109 0.0
C137 C 0.69035 0.8114 0.26215 0.0
C138 C 0.67497 0.80488 0.25752 0.0
C139 C 0.67174 0.80058 0.24152 0.0
C140 C 0.75153 0.86926 0.22012 0.0
H141 H 0.70415 0.76202 0.16517 0.0
H142 H 0.70108 0.78258 0.18504 0.0
H143 H 0.75251 0.79296 0.18684 0.0
H144 H 0.75524 0.77307 0.16626 0.0
H145 H 0.70579 0.78897 0.21164 0.0
H146 H 0.74343 0.81792 0.19139 0.0
H147 H 0.72099 0.83384 0.23293 0.0
H148 H 0.728 0.858 0.22073 0.0
H149 H 0.7659 0.82859 0.20677 0.0
H150 H 0.78499 0.85125 0.20916 0.0
H151 H 0.6806 0.79947 0.21819 0.0
H152 H 0.714 0.81829 0.25514 0.0
H153 H 0.74737 0.88043 0.22424 0.0
H154 H 0.66011 0.79534 0.23756 0.0
H155 H 0.69323 0.81502 0.27432 0.0
C156 C 0.99811 0.99498 0.44025 0.0
C157 C 0.00362 0.99738 0.42489 0.0
C158 C 0.00885 0.99166 0.45294 0.0
C159 C 0.02535 0.99083 0.45059 0.0
C160 C 0.03088 0.99328 0.43528 0.0
C161 C 0.02016 0.99644 0.42259 0.0
C162 C 0.03682 0.98727 0.46397 0.0
C163 C 0.0333 0.97479 0.47445 0.0
C164 C 0.04446 0.97091 0.48665 0.0
C165 C 0.05904 0.97994 0.48863 0.0
C166 C 0.06263 0.99262 0.47846 0.0
C167 C 0.05153 0.9961 0.46606 0.0
C168 C 0.07789 0.00235 0.48092 0.0
C169 C 0.08285 0.00804 0.49614 0.0
C170 C 0.08747 0.00619 0.46808 0.0
C171 C 0.10169 0.0156 0.47041 0.0
C172 C 0.1065 0.02151 0.48559 0.0
C173 C 0.04123 0.95703 0.49693 0.0
C174 C 0.02674 0.95512 0.50467 0.0
C175 C 0.05267 0.94549 0.49892 0.0
C176 C 0.04965 0.93222 0.50836 0.0
C177 C 0.03521 0.93027 0.51629 0.0
C178 C 0.02381 0.94196 0.51435 0.0
C179 C 0.09695 0.01759 0.49843 0.0
H180 H 0.98552 0.99582 0.44254 0.0
H181 H 0.00427 0.98996 0.46465 0.0
H182 H 0.0435 0.99246 0.43305 0.0
H183 H 0.02483 0.99784 0.41089 0.0
H184 H 0.02215 0.96767 0.47272 0.0
H185 H 0.05418 0.00596 0.45823 0.0
H186 H 0.06765 0.97701 0.49808 0.0
H187 H 0.07565 0.00534 0.50623 0.0
H188 H 0.08398 0.00187 0.45624 0.0
H189 H 0.10876 0.01853 0.46029 0.0
H190 H 0.01777 0.96394 0.50339 0.0
H191 H 0.06386 0.94658 0.49289 0.0
H192 H 0.10042 0.02191 0.51028 0.0
H193 H 0.01266 0.94105 0.52043 0.0
H194 H 0.05857 0.92334 0.50916 0.0
C195 C 0.15529 0.70125 0.74025 0.0
C196 C 0.15253 0.71625 0.73378 0.0
C197 C 0.16845 0.69921 0.75086 0.0
C198 C 0.17895 0.71217 0.75536 0.0
C199 C 0.1761 0.72717 0.74896 0.0
C200 C 0.16308 0.72917 0.73824 0.0
C201 C 0.19286 0.71017 0.7667 0.0
C202 C 0.20314 0.69767 0.76483 0.0
C203 C 0.21676 0.69624 0.77511 0.0
C204 C 0.21983 0.70726 0.78753 0.0
C205 C 0.20952 0.71964 0.78979 0.0
C206 C 0.19611 0.72104 0.77924 0.0
C207 C 0.21276 0.73103 0.8032 0.0
C208 C 0.21818 0.72565 0.81818 0.0
C209 C 0.21053 0.74732 0.80117 0.0
C210 C 0.21375 0.75798 0.8138 0.0
C211 C 0.21935 0.75257 0.8287 0.0
C212 C 0.22807 0.6835 0.77272 0.0
C213 C 0.22237 0.66773 0.76994 0.0
C214 C 0.24474 0.68707 0.7734 0.0
C215 C 0.25548 0.67515 0.77139 0.0
C216 C 0.24982 0.65935 0.76874 0.0
C217 C 0.23314 0.65575 0.76807 0.0
C218 C 0.22147 0.73629 0.83076 0.0
H219 H 0.1474 0.69107 0.73695 0.0
H220 H 0.17032 0.68754 0.75569 0.0
H221 H 0.18406 0.73735 0.75211 0.0
H222 H 0.16117 0.74089 0.73355 0.0
H223 H 0.20087 0.68941 0.75502 0.0
H224 H 0.18796 0.73042 0.78097 0.0
H225 H 0.23034 0.70619 0.79546 0.0
H226 H 0.21971 0.71315 0.82027 0.0
H227 H 0.20656 0.7519 0.78974 0.0
H228 H 0.21214 0.77048 0.81183 0.0
H229 H 0.20959 0.66463 0.76946 0.0
H230 H 0.24948 0.69913 0.77537 0.0
H231 H 0.22547 0.73171 0.84218 0.0
H232 H 0.22843 0.6437 0.76593 0.0
H233 H 0.26825 0.67827 0.7721 0.0
C234 C 0.98685 0.57589 0.49183 0.0
C235 C 0.98339 0.57482 0.50792 0.0
C236 C 0.983 0.56313 0.48151 0.0
C237 C 0.9758 0.5489 0.4871 0.0
C238 C 0.97268 0.54777 0.50333 0.0
C239 C 0.97631 0.56063 0.51359 0.0
C240 C 0.97126 0.53547 0.47595 0.0
C241 C 0.98086 0.53227 0.46319 0.0
C242 C 0.97637 0.52007 0.45222 0.0
C243 C 0.9622 0.51073 0.45435 0.0
C244 C 0.95259 0.51354 0.46719 0.0
C245 C 0.95713 0.52598 0.47783 0.0
C246 C 0.93779 0.50347 0.46958 0.0
C247 C 0.92676 0.49972 0.45683 0.0
C248 C 0.93465 0.4975 0.48472 0.0
C249 C 0.92085 0.48785 0.48703 0.0
C250 C 0.90983 0.48407 0.47428 0.0
C251 C 0.98651 0.51722 0.43856 0.0
C252 C 0.99327 0.53009 0.4302 0.0
C253 C 0.98973 0.50173 0.43392 0.0
C254 C 0.99974 0.4992 0.4214 0.0
C255 C 0.00677 0.5121 0.41329 0.0
C256 C 0.00328 0.52756 0.41774 0.0
C257 C 0.91286 0.49019 0.45918 0.0
H258 H 0.99209 0.58678 0.48711 0.0
H259 H 0.98531 0.56461 0.46907 0.0
H260 H 0.96745 0.53693 0.50815 0.0
H261 H 0.97362 0.55949 0.52598 0.0
H262 H 0.99206 0.53913 0.4619 0.0
H263 H 0.94937 0.5285 0.48736 0.0
H264 H 0.95865 0.50125 0.44601 0.0
H265 H 0.92882 0.50427 0.44507 0.0
H266 H 0.94298 0.50011 0.49474 0.0
H267 H 0.91877 0.48341 0.49882 0.0
H268 H 0.99077 0.54216 0.43326 0.0
H269 H 0.98483 0.49156 0.44021 0.0
H270 H 0.90463 0.48737 0.44912 0.0
H271 H 0.00824 0.53775 0.41153 0.0
H272 H 0.00232 0.48715 0.41835 0.0
C273 C 0.8044 0.74283 0.82629 0.0
C274 C 0.78941 0.73845 0.8324 0.0
C275 C 0.80554 0.75368 0.81385 0.0
C276 C 0.79169 0.76027 0.80698 0.0
C277 C 0.77668 0.75561 0.81286 0.0
C278 C 0.77557 0.745 0.82547 0.0
C279 C 0.79284 0.77202 0.79384 0.0
C280 C 0.80438 0.77081 0.78235 0.0
C281 C 0.80552 0.78187 0.77 0.0
C282 C 0.79461 0.79401 0.76889 0.0
C283 C 0.78301 0.79556 0.78029 0.0
C284 C 0.78241 0.78461 0.79282 0.0
C285 C 0.77177 0.80878 0.77938 0.0
C286 C 0.77689 0.82386 0.77398 0.0
C287 C 0.75586 0.8065 0.78411 0.0
C288 C 0.74548 0.81901 0.78375 0.0
C289 C 0.75064 0.83411 0.77843 0.0
C290 C 0.81843 0.78102 0.75854 0.0
C291 C 0.8343 0.77853 0.76397 0.0
C292 C 0.81513 0.78308 0.7422 0.0
C293 C 0.82743 0.7827 0.73154 0.0
C294 C 0.84336 0.78036 0.73698 0.0
C295 C 0.84662 0.77824 0.75333 0.0
C296 C 0.76644 0.83629 0.77338 0.0
H297 H 0.81532 0.7379 0.83111 0.0
H298 H 0.81735 0.75708 0.80981 0.0
H299 H 0.76569 0.76016 0.80773 0.0
H300 H 0.76382 0.74219 0.82994 0.0
H301 H 0.81239 0.76109 0.78281 0.0
H302 H 0.77405 0.78615 0.80206 0.0
H303 H 0.79532 0.80237 0.7592 0.0
H304 H 0.78908 0.82621 0.77043 0.0
H305 H 0.75135 0.795 0.78808 0.0
H306 H 0.73349 0.81685 0.78791 0.0
H307 H 0.83727 0.77715 0.77652 0.0
H308 H 0.80298 0.78484 0.73765 0.0
H309 H 0.77081 0.84763 0.7689 0.0
H310 H 0.85876 0.77668 0.75799 0.0
H311 H 0.82443 0.7841 0.71901 0.0
C312 C 0.30868 0.24737 0.33257 0.0
C313 C 0.2939 0.23946 0.33556 0.0
C314 C 0.30981 0.25817 0.3201 0.0
C315 C 0.29615 0.26141 0.31047 0.0
C316 C 0.2814 0.25342 0.31339 0.0
C317 C 0.2803 0.2425 0.32575 0.0
C318 C 0.29724 0.27323 0.29754 0.0
C319 C 0.3098 0.27307 0.28705 0.0
C320 C 0.31087 0.28417 0.27473 0.0
C321 C 0.29922 0.29559 0.27304 0.0
C322 C 0.28666 0.29609 0.28357 0.0
C323 C 0.28576 0.28478 0.29574 0.0
C324 C 0.27475 0.30865 0.28214 0.0
C325 C 0.27967 0.32426 0.2782 0.0
C326 C 0.25845 0.30523 0.28497 0.0
C327 C 0.2474 0.31716 0.28406 0.0
C328 C 0.25236 0.33279 0.28021 0.0
C329 C 0.3241 0.28374 0.26357 0.0
C330 C 0.33994 0.28136 0.26921 0.0
C331 C 0.32096 0.2855 0.24716 0.0
C332 C 0.33332 0.28466 0.23663 0.0
C333 C 0.34912 0.28209 0.24225 0.0
C334 C 0.35232 0.28058 0.25868 0.0
C335 C 0.26862 0.33614 0.27717 0.0
H336 H 0.31937 0.24519 0.33989 0.0
H337 H 0.32131 0.26423 0.31817 0.0
H338 H 0.27071 0.2556 0.30607 0.0
H339 H 0.26873 0.23668 0.32786 0.0
H340 H 0.31852 0.264 0.28825 0.0
H341 H 0.27639 0.28523 0.30417 0.0
H342 H 0.29999 0.30416 0.26354 0.0
H343 H 0.29214 0.32741 0.27613 0.0
H344 H 0.25418 0.29331 0.28784 0.0
H345 H 0.23501 0.31415 0.2866 0.0
H346 H 0.34277 0.28013 0.2818 0.0
H347 H 0.30887 0.28723 0.24242 0.0
H348 H 0.27285 0.34797 0.27391 0.0
H349 H 0.36433 0.27846 0.26338 0.0
H350 H 0.3305 0.28603 0.22405 0.0
C351 C 0.50327 0.98052 0.60379 0.0
C352 C 0.51998 0.98264 0.6022 0.0
C353 C 0.49277 0.97873 0.59039 0.0
C354 C 0.49873 0.97877 0.57511 0.0
C355 C 0.51536 0.98096 0.57345 0.0
C356 C 0.52585 0.983 0.58682 0.0
C357 C 0.48767 0.9761 0.56095 0.0
C358 C 0.47376 0.98475 0.55889 0.0
C359 C 0.46313 0.9821 0.54556 0.0
C360 C 0.46638 0.9703 0.53453 0.0
C361 C 0.48024 0.96161 0.53641 0.0
C362 C 0.49094 0.96471 0.54953 0.0
C363 C 0.48334 0.94908 0.52478 0.0
C364 C 0.47125 0.93748 0.52048 0.0
C365 C 0.4983 0.94865 0.51789 0.0
C366 C 0.50106 0.93691 0.50675 0.0
C367 C 0.48899 0.9252 0.50244 0.0
C368 C 0.44881 0.99177 0.54292 0.0
C369 C 0.43948 0.99588 0.55561 0.0
C370 C 0.44439 0.997 0.52759 0.0
C371 C 0.43096 0.00605 0.52499 0.0
C372 C 0.42164 0.01021 0.53766 0.0
C373 C 0.42605 0.005 0.55301 0.0
C374 C 0.47408 0.92561 0.50955 0.0
H375 H 0.49828 0.9799 0.6154 0.0
H376 H 0.48 0.97689 0.592 0.0
H377 H 0.52025 0.98122 0.56178 0.0
H378 H 0.53856 0.98497 0.58505 0.0
H379 H 0.47149 0.99386 0.56746 0.0
H380 H 0.50153 0.95784 0.55115 0.0
H381 H 0.45813 0.96787 0.52439 0.0
H382 H 0.45968 0.93744 0.52579 0.0
H383 H 0.50776 0.95757 0.52092 0.0
H384 H 0.5126 0.93715 0.50138 0.0
H385 H 0.44246 0.99194 0.56755 0.0
H386 H 0.45141 0.99425 0.51756 0.0
H387 H 0.46461 0.91662 0.50688 0.0
H388 H 0.41925 0.00812 0.56308 0.0
H389 H 0.42783 0.00969 0.51298 0.0
C390 C 0.21373 0.26801 0.66914 0.0
C391 C 0.229 0.26203 0.66753 0.0
C392 C 0.21156 0.2801 0.68008 0.0
C393 C 0.22466 0.28658 0.68949 0.0
C394 C 0.23992 0.28061 0.68787 0.0
C395 C 0.24206 0.26842 0.67706 0.0
C396 C 0.22244 0.29949 0.70104 0.0
C397 C 0.20967 0.2984 0.7113 0.0
C398 C 0.20776 0.31032 0.72264 0.0
C399 C 0.21881 0.32348 0.72351 0.0
C400 C 0.23166 0.32483 0.71331 0.0
C401 C 0.2333 0.31277 0.70206 0.0
C402 C 0.24355 0.33863 0.71467 0.0
C403 C 0.23866 0.35389 0.71824 0.0
C404 C 0.25998 0.33659 0.71274 0.0
C405 C 0.2712 0.34942 0.71442 0.0
C406 C 0.26636 0.36462 0.7183 0.0
C407 C 0.19458 0.30874 0.73391 0.0
C408 C 0.17918 0.30259 0.72883 0.0
C409 C 0.19738 0.31313 0.74994 0.0
C410 C 0.18517 0.3113 0.76063 0.0
C411 C 0.16985 0.3049 0.75563 0.0
C412 C 0.16697 0.30067 0.73957 0.0
C413 C 0.24991 0.36668 0.72012 0.0
H414 H 0.20343 0.26324 0.66202 0.0
H415 H 0.19968 0.28453 0.68103 0.0
H416 H 0.2502 0.28528 0.69508 0.0
H417 H 0.25399 0.26415 0.67597 0.0
H418 H 0.20155 0.28795 0.71083 0.0
H419 H 0.24292 0.31378 0.69389 0.0
H420 H 0.21749 0.33264 0.7323 0.0
H421 H 0.22609 0.35599 0.71959 0.0
H422 H 0.26427 0.32501 0.71018 0.0
H423 H 0.28371 0.34738 0.71265 0.0
H424 H 0.17654 0.29926 0.71654 0.0
H425 H 0.20913 0.31772 0.75433 0.0
H426 H 0.24571 0.37814 0.72328 0.0
H427 H 0.15538 0.29556 0.73533 0.0
H428 H 0.18776 0.31491 0.77286 0.0
C429 C 0.85796 0.24263 0.7578 0.0
C430 C 0.86506 0.22922 0.76426 0.0
C431 C 0.84428 0.24096 0.74757 0.0
C432 C 0.8375 0.22581 0.74342 0.0
C433 C 0.84478 0.21239 0.74977 0.0
C434 C 0.85834 0.21409 0.76015 0.0
C435 C 0.82287 0.22404 0.73257 0.0
C436 C 0.82081 0.23431 0.71962 0.0
C437 C 0.807 0.23286 0.7094 0.0
C438 C 0.79525 0.22078 0.7121 0.0
C439 C 0.79712 0.21028 0.72487 0.0
C440 C 0.8109 0.21209 0.7351 0.0
C441 C 0.78476 0.1973 0.72735 0.0
C442 C 0.76829 0.19997 0.72525 0.0
C443 C 0.78939 0.18202 0.73149 0.0
C444 C 0.77783 0.16967 0.73333 0.0
C445 C 0.76136 0.17229 0.73104 0.0
C446 C 0.80486 0.24394 0.69589 0.0
C447 C 0.80886 0.26024 0.69781 0.0
C448 C 0.7986 0.23834 0.68103 0.0
C449 C 0.79625 0.2488 0.66844 0.0
C450 C 0.80016 0.26511 0.67037 0.0
C451 C 0.80654 0.2707 0.6852 0.0
C452 C 0.75673 0.18761 0.72707 0.0
H453 H 0.86277 0.25444 0.76094 0.0
H454 H 0.83887 0.25157 0.74315 0.0
H455 H 0.84009 0.20054 0.74662 0.0
H456 H 0.86369 0.20354 0.76484 0.0
H457 H 0.83016 0.24325 0.71724 0.0
H458 H 0.81213 0.20436 0.74527 0.0
H459 H 0.78462 0.21952 0.7042 0.0
H460 H 0.7643 0.21165 0.72224 0.0
H461 H 0.80197 0.17951 0.73304 0.0
H462 H 0.78183 0.15807 0.73661 0.0
H463 H 0.81356 0.26496 0.70915 0.0
H464 H 0.79558 0.22583 0.67909 0.0
H465 H 0.74416 0.19002 0.7251 0.0
H466 H 0.80982 0.28317 0.68705 0.0
H467 H 0.79113 0.24411 0.65724 0.0
C468 C 0.52558 0.56523 0.47294 0.0
C469 C 0.52389 0.58018 0.47989 0.0
C470 C 0.5274 0.55182 0.48241 0.0
C471 C 0.52748 0.55306 0.49903 0.0
C472 C 0.52574 0.56797 0.50598 0.0
C473 C 0.52402 0.58138 0.49653 0.0
C474 C 0.52941 0.53887 0.50913 0.0
C475 C 0.54128 0.52816 0.50616 0.0
C476 C 0.54352 0.51496 0.51602 0.0
C477 C 0.53337 0.51235 0.52872 0.0
C478 C 0.52158 0.52304 0.53189 0.0
C479 C 0.51969 0.53626 0.5221 0.0
C480 C 0.51162 0.52081 0.54582 0.0
C481 C 0.50253 0.50658 0.54795 0.0
C482 C 0.51116 0.53304 0.55707 0.0
C483 C 0.50185 0.53105 0.57031 0.0
C484 C 0.49261 0.5169 0.57236 0.0
C485 C 0.55701 0.50448 0.51361 0.0
C486 C 0.56099 0.50001 0.49827 0.0
C487 C 0.56637 0.49929 0.52671 0.0
C488 C 0.5794 0.48991 0.52453 0.0
C489 C 0.58343 0.48548 0.5092 0.0
C490 C 0.57407 0.49063 0.49608 0.0
C491 C 0.49293 0.50471 0.56104 0.0
H492 H 0.52532 0.56383 0.46016 0.0
H493 H 0.52855 0.54043 0.47673 0.0
H494 H 0.52601 0.56933 0.51876 0.0
H495 H 0.52309 0.59275 0.5023 0.0
H496 H 0.54925 0.5305 0.49657 0.0
H497 H 0.51048 0.54444 0.52449 0.0
H498 H 0.53487 0.50219 0.53638 0.0
H499 H 0.50269 0.49702 0.53937 0.0
H500 H 0.51814 0.54409 0.5557 0.0
H501 H 0.50171 0.54064 0.57886 0.0
H502 H 0.55392 0.50368 0.48794 0.0
H503 H 0.56387 0.50279 0.53866 0.0
H504 H 0.48593 0.49368 0.56244 0.0
H505 H 0.57674 0.48725 0.48414 0.0
H506 H 0.58654 0.48638 0.53487 0.0
C507 C 0.49846 0.49262 0.93776 0.0
C508 C 0.50506 0.49553 0.92296 0.0
C509 C 0.50846 0.49013 0.95124 0.0
C510 C 0.52527 0.49064 0.95023 0.0
C511 C 0.53184 0.49367 0.93545 0.0
C512 C 0.52186 0.49605 0.92198 0.0
C513 C 0.53593 0.48799 0.96451 0.0
C514 C 0.53226 0.47562 0.97506 0.0
C515 C 0.54237 0.47289 0.98852 0.0
C516 C 0.55621 0.48293 0.99142 0.0
C517 C 0.56018 0.49519 0.98088 0.0
C518 C 0.54999 0.49765 0.96747 0.0
C519 C 0.57513 0.50531 0.98372 0.0
C520 C 0.57908 0.512 0.99877 0.0
C521 C 0.58559 0.50829 0.97138 0.0
C522 C 0.59971 0.51778 0.97403 0.0
C523 C 0.60356 0.52462 0.98902 0.0
C524 C 0.53884 0.4592 0.99914 0.0
C525 C 0.52291 0.45461 0.00255 0.0
C526 C 0.55137 0.45028 0.00557 0.0
C527 C 0.54806 0.43705 0.015 0.0
C528 C 0.53214 0.43229 0.0181 0.0
C529 C 0.5196 0.44125 0.01185 0.0
C530 C 0.5931 0.52165 0.00136 0.0
H531 H 0.48556 0.49204 0.93888 0.0
H532 H 0.50304 0.48795 0.96249 0.0
H533 H 0.54473 0.494 0.93424 0.0
H534 H 0.52733 0.49844 0.91078 0.0
H535 H 0.52179 0.46775 0.97242 0.0
H536 H 0.55286 0.50731 0.95949 0.0
H537 H 0.56406 0.48108 0.00179 0.0
H538 H 0.57119 0.50995 0.00847 0.0
H539 H 0.58291 0.50318 0.9597 0.0
H540 H 0.60748 0.51998 0.96426 0.0
H541 H 0.51297 0.46133 0.99804 0.0
H542 H 0.56375 0.45323 0.00297 0.0
H543 H 0.59582 0.52671 0.01306 0.0
H544 H 0.50722 0.43794 0.01417 0.0
H545 H 0.55795 0.43022 0.01946 0.0
C546 C 0.66036 0.20511 0.23396 0.0
C547 C 0.65523 0.22037 0.23049 0.0
C548 C 0.67324 0.20303 0.24488 0.0
C549 C 0.68139 0.21619 0.25245 0.0
C550 C 0.67634 0.23147 0.24877 0.0
C551 C 0.66336 0.23352 0.238 0.0
C552 C 0.69498 0.21405 0.26427 0.0
C553 C 0.70612 0.20234 0.26204 0.0
C554 C 0.71901 0.20041 0.27313 0.0
C555 C 0.7207 0.21038 0.28655 0.0
C556 C 0.70976 0.22215 0.28897 0.0
C557 C 0.6969 0.22382 0.27784 0.0
C558 C 0.71185 0.23277 0.30308 0.0
C559 C 0.71623 0.22666 0.31806 0.0
C560 C 0.70976 0.24914 0.30163 0.0
C561 C 0.71219 0.25919 0.31483 0.0
C562 C 0.7168 0.2531 0.32976 0.0
C563 C 0.73085 0.18811 0.27072 0.0
C564 C 0.72576 0.17277 0.26546 0.0
C565 C 0.74735 0.19158 0.27397 0.0
C566 C 0.75848 0.17997 0.27218 0.0
C567 C 0.75341 0.16458 0.26703 0.0
C568 C 0.73692 0.16112 0.26366 0.0
C569 C 0.71867 0.23671 0.33124 0.0
H570 H 0.65421 0.19475 0.22844 0.0
H571 H 0.67661 0.19109 0.24758 0.0
H572 H 0.68252 0.24191 0.25409 0.0
H573 H 0.65983 0.24543 0.23536 0.0
H574 H 0.70504 0.19501 0.25144 0.0
H575 H 0.68816 0.23255 0.27996 0.0
H576 H 0.73062 0.20901 0.29513 0.0
H577 H 0.71766 0.21408 0.31964 0.0
H578 H 0.70658 0.25424 0.29021 0.0
H579 H 0.71083 0.27179 0.31326 0.0
H580 H 0.71313 0.16967 0.26297 0.0
H581 H 0.75171 0.20333 0.27786 0.0
H582 H 0.72191 0.23159 0.34264 0.0
H583 H 0.73262 0.14944 0.25952 0.0
H584 H 0.77106 0.18301 0.27504 0.0
C585 C 0.47866 0.07679 0.98763 0.0
C586 C 0.47909 0.07483 0.0042 0.0
C587 C 0.47547 0.06379 0.97747 0.0
C588 C 0.47249 0.04854 0.98362 0.0
C589 C 0.47302 0.04652 0.00016 0.0
C590 C 0.47635 0.0595 0.01034 0.0
C591 C 0.46853 0.03487 0.97279 0.0
C592 C 0.47752 0.03263 0.95939 0.0
C593 C 0.47364 0.01992 0.94885 0.0
C594 C 0.46046 0.00947 0.9518 0.0
C595 C 0.45134 0.01155 0.96517 0.0
C596 C 0.45553 0.02422 0.97565 0.0
C597 C 0.43724 0.00071 0.96812 0.0
C598 C 0.42582 0.99663 0.95579 0.0
C599 C 0.43492 0.99464 0.98338 0.0
C600 C 0.42148 0.9847 0.98626 0.0
C601 C 0.40998 0.98073 0.97397 0.0
C602 C 0.48348 0.01759 0.93487 0.0
C603 C 0.48877 0.03065 0.92587 0.0
C604 C 0.48808 0.00239 0.9307 0.0
C605 C 0.49808 0.00037 0.91808 0.0
C606 C 0.5037 0.01351 0.90935 0.0
C607 C 0.49874 0.02864 0.91327 0.0
C608 C 0.41229 0.9868 0.9587 0.0
H609 H 0.4804 0.08843 0.98246 0.0
H610 H 0.47494 0.06574 0.96477 0.0
H611 H 0.47096 0.03486 0.00523 0.0
H612 H 0.47686 0.05748 0.02302 0.0
H613 H 0.48781 0.04061 0.95738 0.0
H614 H 0.44833 0.0261 0.98578 0.0
H615 H 0.45727 0.99971 0.94369 0.0
H616 H 0.42723 0.00124 0.94394 0.0
H617 H 0.44358 0.99752 0.99309 0.0
H618 H 0.41997 0.98028 0.99816 0.0
H619 H 0.48519 0.04248 0.92858 0.0
H620 H 0.48435 0.9921 0.9375 0.0
H621 H 0.4037 0.98382 0.94897 0.0
H622 H 0.50259 0.03897 0.90659 0.0
H623 H 0.50181 0.98858 0.91546 0.0
Mg624 Mg 0.23937 0.85887 0.00479 0.0
O625 O 0.2636 0.87301 0.00259 0.0
O626 O 0.2828 0.85553 0.00553 0.0
Mg627 Mg 0.27132 0.83078 0.00892 0.0
C628 C 0.27841 0.86966 0.00329 0.0
C629 C 0.21192 0.87693 0.98851 0.0
O630 O 0.20785 0.86219 0.9844 0.0
O631 O 0.24105 0.84912 0.97968 0.0
O632 O 0.26003 0.83157 0.98351 0.0
O633 O 0.24103 0.86188 0.03113 0.0
O634 O 0.25058 0.84177 0.01846 0.0
C635 C 0.24977 0.83842 0.9745 0.0
C636 C 0.24885 0.84902 0.03167 0.0
O637 O 0.2252 0.87986 0.99627 0.0
Mg638 Mg 0.14861 0.50454 0.27131 0.0
O639 O 0.13372 0.50269 0.24753 0.0
O640 O 0.15126 0.50491 0.22833 0.0
Mg641 Mg 0.17679 0.50794 0.23936 0.0
C642 C 0.13689 0.50312 0.23285 0.0
C643 C 0.12732 0.50389 0.29873 0.0
O644 O 0.1399 0.51336 0.30262 0.0
O645 O 0.15636 0.47912 0.26823 0.0
O646 O 0.17438 0.48278 0.24963 0.0
O647 O 0.148 0.53102 0.27116 0.0
O648 O 0.16698 0.51773 0.26067 0.0
C649 C 0.16692 0.47384 0.25936 0.0
C650 C 0.16098 0.53117 0.26336 0.0
O651 O 0.1268 0.49692 0.28532 0.0
Mg652 Mg 0.7772 0.6478 0.01559 0.0
O653 O 0.75265 0.63391 0.0123 0.0
O654 O 0.7338 0.65185 0.01102 0.0
Mg655 Mg 0.74592 0.67666 0.01198 0.0
C656 C 0.73792 0.63749 0.01107 0.0
C657 C 0.80481 0.62765 0.0064 0.0
O658 O 0.80978 0.64209 0.00255 0.0
O659 O 0.77642 0.65411 0.98926 0.0
O660 O 0.75714 0.67167 0.98817 0.0
O661 O 0.77465 0.64866 0.04187 0.0
O662 O 0.76642 0.66703 0.02522 0.0
C663 C 0.7676 0.66366 0.98155 0.0
C664 C 0.76749 0.66176 0.03951 0.0
O665 O 0.79082 0.62549 0.01161 0.0
Mg666 Mg 0.90203 0.03121 0.24457 0.0
O667 O 0.88747 0.00749 0.24108 0.0
O668 O 0.90491 0.9889 0.23664 0.0
Mg669 Mg 0.93027 0.0006 0.23673 0.0
C670 C 0.89059 0.9931 0.23834 0.0
C671 C 0.88066 0.05796 0.25108 0.0
O672 O 0.89338 0.0645 0.24462 0.0
O673 O 0.9109 0.02369 0.26952 0.0
O674 O 0.92886 0.0062 0.26325 0.0
O675 O 0.90009 0.03535 0.21836 0.0
O676 O 0.91996 0.02325 0.23062 0.0
C677 C 0.92175 0.01409 0.27354 0.0
C678 C 0.91314 0.02779 0.21752 0.0
O679 O 0.88021 0.0431 0.25361 0.0
Mg680 Mg 0.27759 0.14734 0.5163 0.0
O681 O 0.25348 0.13285 0.5128 0.0
O682 O 0.23413 0.15028 0.51198 0.0
Mg683 Mg 0.24548 0.1754 0.51456 0.0
C684 C 0.23865 0.13606 0.51152 0.0
C685 C 0.2904 0.11335 0.51932 0.0
O686 O 0.27964 0.11268 0.53019 0.0
O687 O 0.27591 0.15467 0.49024 0.0
O688 O 0.25716 0.17265 0.49059 0.0
O689 O 0.27597 0.14701 0.54271 0.0
O690 O 0.26623 0.16559 0.52726 0.0
C691 C 0.26743 0.16501 0.48328 0.0
C692 C 0.26811 0.1598 0.54128 0.0
O693 O 0.29182 0.12575 0.51089 0.0
Mg694 Mg 0.40011 0.52862 0.74371 0.0
O695 O 0.38578 0.50472 0.74095 0.0
O696 O 0.40323 0.48623 0.73617 0.0
Mg697 Mg 0.4284 0.49821 0.73534 0.0
C698 C 0.38895 0.49034 0.73826 0.0
C699 C 0.37677 0.55418 0.74776 0.0
O700 O 0.38763 0.56003 0.73831 0.0
O701 O 0.40993 0.52163 0.76852 0.0
O702 O 0.42776 0.50419 0.76184 0.0
O703 O 0.39725 0.53229 0.71747 0.0
O704 O 0.4177 0.52069 0.72929 0.0
C705 C 0.42098 0.51216 0.77229 0.0
C706 C 0.41039 0.52494 0.71634 0.0
O707 O 0.37836 0.54029 0.75322 0.0
Mg708 Mg 0.74038 0.36025 0.50573 0.0
O709 O 0.76401 0.37507 0.50216 0.0
O710 O 0.7837 0.35804 0.50431 0.0
Mg711 Mg 0.7732 0.33303 0.50841 0.0
C712 C 0.77889 0.37203 0.50221 0.0
C713 C 0.71197 0.37986 0.50559 0.0
O714 O 0.7097 0.36804 0.51547 0.0
O715 O 0.74088 0.35035 0.48053 0.0
O716 O 0.76038 0.33324 0.48366 0.0
O717 O 0.74341 0.36347 0.53204 0.0
O718 O 0.75278 0.34357 0.51892 0.0
C719 C 0.74951 0.33971 0.47505 0.0
C720 C 0.75154 0.35081 0.53222 0.0
O721 O 0.72485 0.38062 0.49808 0.0
Mg722 Mg 0.64904 0.00814 0.77024 0.0
O723 O 0.63454 0.00454 0.7465 0.0
O724 O 0.65238 0.00472 0.72754 0.0
Mg725 Mg 0.67767 0.01011 0.73868 0.0
C726 C 0.63793 0.00334 0.73195 0.0
C727 C 0.62671 0.00892 0.79693 0.0
O728 O 0.63843 0.01959 0.80023 0.0
O729 O 0.65762 0.9828 0.76892 0.0
O730 O 0.67668 0.98602 0.75124 0.0
O731 O 0.64761 0.03447 0.76844 0.0
O732 O 0.66711 0.02113 0.75899 0.0
C733 C 0.6691 0.97753 0.76124 0.0
C734 C 0.6607 0.03452 0.7608 0.0
O735 O 0.62722 0.0007 0.78432 0.0
Mg736 Mg 0.03176 0.25703 0.89572 0.0
O737 O 0.00821 0.25203 0.88066 0.0
O738 O 0.99 0.2423 0.89715 0.0
Mg739 Mg 0.00132 0.2415 0.92226 0.0
C740 C 0.99404 0.24647 0.8833 0.0
C741 C 0.0585 0.27133 0.87706 0.0
O742 O 0.06529 0.26573 0.89013 0.0
O743 O 0.02176 0.27938 0.90595 0.0
O744 O 0.0042 0.26875 0.92261 0.0
O745 O 0.0388 0.23221 0.89202 0.0
O746 O 0.02482 0.23977 0.91201 0.0
C747 C 0.0114 0.28081 0.91647 0.0
C748 C 0.03099 0.22846 0.90447 0.0
O749 O 0.04325 0.27038 0.87539 0.0
Mg750 Mg 0.53136 0.75901 0.39349 0.0
O751 O 0.50834 0.75559 0.37724 0.0
O752 O 0.48836 0.74848 0.39295 0.0
Mg753 Mg 0.49832 0.74669 0.41846 0.0
C754 C 0.49355 0.75179 0.3793 0.0
C755 C 0.56008 0.77165 0.37628 0.0
O756 O 0.56593 0.76591 0.38969 0.0
O757 O 0.52292 0.78232 0.40305 0.0
O758 O 0.50322 0.77378 0.41853 0.0
O759 O 0.53649 0.73369 0.39035 0.0
O760 O 0.52209 0.74258 0.40948 0.0
C761 C 0.51196 0.78494 0.41265 0.0
C762 C 0.52777 0.7307 0.40238 0.0
O763 O 0.54491 0.77131 0.37381 0.0
Mg764 Mg 0.98838 0.74903 0.60434 0.0
O765 O 0.0118 0.74527 0.61926 0.0
O766 O 0.03091 0.74101 0.60222 0.0
Mg767 Mg 0.01995 0.74162 0.57695 0.0
C768 C 0.02631 0.7425 0.61634 0.0
C769 C 0.96564 0.76845 0.62389 0.0
O770 O 0.96295 0.77421 0.6096 0.0
O771 O 0.99761 0.77386 0.59727 0.0
O772 O 0.01638 0.76826 0.5803 0.0
O773 O 0.98248 0.72305 0.60466 0.0
O774 O 0.99627 0.73515 0.58611 0.0
C775 C 0.00838 0.7782 0.5877 0.0
C776 C 0.99059 0.7221 0.59202 0.0
O777 O 0.97626 0.75828 0.62594 0.0
Mg778 Mg 0.48904 0.24899 0.1027 0.0
O779 O 0.51291 0.24505 0.11677 0.0
O780 O 0.53054 0.23878 0.09889 0.0
Mg781 Mg 0.51851 0.23902 0.07399 0.0
C782 C 0.52695 0.24123 0.11321 0.0
C783 C 0.46279 0.25616 0.12388 0.0
O784 O 0.45625 0.2482 0.11158 0.0
O785 O 0.49898 0.27313 0.09452 0.0
O786 O 0.51563 0.26596 0.07611 0.0
O787 O 0.48189 0.22325 0.10418 0.0
O788 O 0.49541 0.23385 0.08467 0.0
C789 C 0.50877 0.27663 0.08372 0.0
C790 C 0.48931 0.22133 0.09124 0.0
O791 O 0.47786 0.25944 0.1243 0.0
H792 H 0.20154 0.77701 0.83818 0.0
H793 H 0.20681 0.79423 0.86148 0.0
H794 H 0.25059 0.77065 0.8728 0.0
H795 H 0.24536 0.75341 0.84964 0.0
H796 H 0.23304 0.77228 0.898 0.0
H797 H 0.25076 0.80875 0.85792 0.0
H798 H 0.2481 0.82421 0.83327 0.0
H799 H 0.20873 0.84812 0.85174 0.0
H800 H 0.21101 0.83264 0.87644 0.0
H801 H 0.26927 0.82 0.95812 0.0
H802 H 0.26396 0.80821 0.93189 0.0
H803 H 0.2196 0.83222 0.92672 0.0
H804 H 0.22494 0.84436 0.95303 0.0
H805 H 0.2356 0.83113 0.89845 0.0
H806 H 0.21808 0.79491 0.93852 0.0
H807 H 0.22083 0.77961 0.96327 0.0
H808 H 0.25971 0.75511 0.94457 0.0
H809 H 0.25734 0.77044 0.91978 0.0
C810 C 0.21241 0.77567 0.84552 0.0
C811 C 0.22298 0.76378 0.84215 0.0
C812 C 0.21541 0.78553 0.85882 0.0
C813 C 0.22913 0.78377 0.86886 0.0
C814 C 0.23989 0.77217 0.86527 0.0
C815 C 0.23686 0.76229 0.85206 0.0
C816 C 0.23189 0.7933 0.88366 0.0
C817 C 0.23381 0.78515 0.89804 0.0
C818 C 0.23233 0.81009 0.88379 0.0
C819 C 0.23095 0.81941 0.86896 0.0
C820 C 0.24145 0.81721 0.85667 0.0
C821 C 0.24002 0.826 0.8427 0.0
C822 C 0.22822 0.83711 0.84092 0.0
C823 C 0.21785 0.83949 0.85313 0.0
C824 C 0.21921 0.83072 0.86712 0.0
C825 C 0.25845 0.82295 0.95138 0.0
C826 C 0.2474 0.83294 0.9578 0.0
C827 C 0.25544 0.81618 0.93637 0.0
C828 C 0.24124 0.81909 0.92751 0.0
C829 C 0.2306 0.82977 0.93342 0.0
C830 C 0.23366 0.83666 0.94847 0.0
C831 C 0.2371 0.81006 0.91264 0.0
C832 C 0.23481 0.81827 0.89834 0.0
C833 C 0.23627 0.79327 0.91251 0.0
C834 C 0.23762 0.78392 0.92734 0.0
C835 C 0.22729 0.78634 0.93972 0.0
C836 C 0.22877 0.77765 0.95375 0.0
C837 C 0.24046 0.76642 0.9555 0.0
C838 C 0.25067 0.76382 0.9432 0.0
C839 C 0.24925 0.7725 0.92915 0.0
H840 H 0.24159 0.75971 0.96637 0.0
H841 H 0.22715 0.84391 0.8301 0.0
H842 H 0.00394 0.48999 0.38921 0.0
H843 H 0.02247 0.48641 0.36793 0.0
H844 H 0.05353 0.52485 0.38729 0.0
H845 H 0.03515 0.52848 0.40848 0.0
H846 H 0.04903 0.52787 0.35608 0.0
H847 H 0.06234 0.48561 0.3922 0.0
H848 H 0.05657 0.46161 0.40795 0.0
H849 H 0.04088 0.43599 0.36547 0.0
H850 H 0.04637 0.45992 0.34949 0.0
H851 H 0.12458 0.5196 0.32656 0.0
H852 H 0.10196 0.51869 0.34374 0.0
H853 H 0.07663 0.48412 0.31279 0.0
H854 H 0.09941 0.48498 0.29528 0.0
H855 H 0.07505 0.47742 0.34631 0.0
H856 H 0.06486 0.51943 0.31001 0.0
H857 H 0.07152 0.54351 0.29471 0.0
H858 H 0.08185 0.56974 0.33801 0.0
H859 H 0.07548 0.54575 0.35358 0.0
C860 C 0.01479 0.49758 0.38898 0.0
C861 C 0.01804 0.50958 0.40049 0.0
C862 C 0.02536 0.49553 0.37682 0.0
C863 C 0.03943 0.50533 0.37604 0.0
C864 C 0.0427 0.51722 0.38757 0.0
C865 C 0.03215 0.51931 0.39966 0.0
C866 C 0.05074 0.5035 0.36316 0.0
C867 C 0.05476 0.51685 0.35402 0.0
C868 C 0.05785 0.48899 0.36009 0.0
C869 C 0.05458 0.4746 0.36968 0.0
C870 C 0.05753 0.4749 0.38624 0.0
C871 C 0.05434 0.4613 0.3952 0.0
C872 C 0.04831 0.4473 0.38772 0.0
C873 C 0.04552 0.44685 0.37125 0.0
C874 C 0.04867 0.46043 0.36224 0.0
C875 C 0.11427 0.51171 0.32337 0.0
C876 C 0.11378 0.50243 0.30947 0.0
C877 C 0.10132 0.51125 0.33322 0.0
C878 C 0.08756 0.50148 0.32944 0.0
C879 C 0.08715 0.49177 0.31586 0.0
C880 C 0.10013 0.49231 0.30587 0.0
C881 C 0.07361 0.50191 0.33964 0.0
C882 C 0.06908 0.48834 0.34822 0.0
C883 C 0.06605 0.51624 0.34228 0.0
C884 C 0.06979 0.53075 0.33296 0.0
C885 C 0.06866 0.5303 0.31627 0.0
C886 C 0.07237 0.54394 0.30755 0.0
C887 C 0.07713 0.55814 0.31538 0.0
C888 C 0.07816 0.55873 0.33196 0.0
C889 C 0.07449 0.54512 0.34074 0.0
H890 H 0.08 0.56868 0.3086 0.0
H891 H 0.04585 0.43678 0.39468 0.0
H892 H 0.81087 0.73577 0.858 0.0
H893 H 0.80792 0.71906 0.88136 0.0
H894 H 0.76192 0.70043 0.86228 0.0
H895 H 0.76512 0.71626 0.83835 0.0
H896 H 0.76582 0.7172 0.89589 0.0
H897 H 0.78412 0.67548 0.86241 0.0
H898 H 0.80318 0.6641 0.84463 0.0
H899 H 0.84082 0.6695 0.88111 0.0
H900 H 0.82201 0.68115 0.89904 0.0
H901 H 0.74477 0.66806 0.95818 0.0
H902 H 0.74893 0.67686 0.93106 0.0
H903 H 0.8003 0.67594 0.93999 0.0
H904 H 0.79606 0.66611 0.96687 0.0
H905 H 0.79406 0.66866 0.9107 0.0
H906 H 0.77881 0.71081 0.9437 0.0
H907 H 0.76226 0.72444 0.9624 0.0
H908 H 0.72221 0.72154 0.92836 0.0
H909 H 0.73847 0.70769 0.90953 0.0
C910 C 0.80031 0.72781 0.85847 0.0
C911 C 0.78819 0.72751 0.84622 0.0
C912 C 0.79863 0.71834 0.87191 0.0
C913 C 0.78472 0.70856 0.87347 0.0
C914 C 0.77274 0.70795 0.86124 0.0
C915 C 0.77454 0.71716 0.84765 0.0
C916 C 0.78209 0.70001 0.88845 0.0
C917 C 0.77176 0.70643 0.89906 0.0
C918 C 0.79042 0.68639 0.89274 0.0
C919 C 0.8017 0.67936 0.88199 0.0
C920 C 0.7965 0.67441 0.86658 0.0
C921 C 0.80725 0.66787 0.85649 0.0
C922 C 0.82322 0.66613 0.86172 0.0
C923 C 0.82845 0.67088 0.87707 0.0
C924 C 0.81775 0.67744 0.8872 0.0
C925 C 0.75693 0.66944 0.95422 0.0
C926 C 0.77011 0.66657 0.9646 0.0
C927 C 0.75932 0.67458 0.93877 0.0
C928 C 0.77495 0.67761 0.93362 0.0
C929 C 0.78812 0.67383 0.9437 0.0
C930 C 0.78571 0.66822 0.95905 0.0
C931 C 0.77751 0.68568 0.91822 0.0
C932 C 0.78796 0.67933 0.90756 0.0
C933 C 0.76962 0.69968 0.91401 0.0
C934 C 0.75981 0.70807 0.92528 0.0
C935 C 0.76644 0.71299 0.94025 0.0
C936 C 0.75711 0.72076 0.95086 0.0
C937 C 0.74118 0.72382 0.94659 0.0
C938 C 0.73455 0.71914 0.93167 0.0
C939 C 0.74382 0.71134 0.92101 0.0
H940 H 0.73397 0.72984 0.95482 0.0
H941 H 0.83152 0.66106 0.85389 0.0
H942 H 0.97285 0.98473 0.41893 0.0
H943 H 0.95497 0.98887 0.39568 0.0
H944 H 0.991 0.02068 0.37622 0.0
H945 H 0.0085 0.0174 0.39983 0.0
H946 H 0.96284 0.03144 0.36946 0.0
H947 H 0.98616 0.98044 0.36557 0.0
H948 H 0.9923 0.9535 0.37441 0.0
H949 H 0.94185 0.94048 0.37458 0.0
H950 H 0.93542 0.96743 0.36592 0.0
H951 H 0.94591 0.9965 0.28563 0.0
H952 H 0.95585 0.99453 0.31299 0.0
H953 H 0.91937 0.02513 0.32771 0.0
H954 H 0.9095 0.02757 0.29997 0.0
H955 H 0.94418 0.98331 0.33862 0.0
H956 H 0.93482 0.04657 0.36046 0.0
H957 H 0.93217 0.07356 0.34979 0.0
H958 H 0.96045 0.06207 0.31053 0.0
H959 H 0.96342 0.0351 0.32107 0.0
C960 C 0.97685 0.99288 0.40988 0.0
C961 C 0.99225 0.00058 0.41122 0.0
C962 C 0.96666 0.99511 0.3965 0.0
C963 C 0.97173 0.00486 0.38404 0.0
C964 C 0.98681 0.01304 0.38563 0.0
C965 C 0.99692 0.01097 0.39907 0.0
C966 C 0.96187 0.00589 0.36893 0.0
C967 C 0.95863 0.02091 0.36279 0.0
C968 C 0.95647 0.99218 0.3601 0.0
C969 C 0.96031 0.97599 0.36529 0.0
C970 C 0.97638 0.97186 0.3676 0.0
C971 C 0.97991 0.95659 0.37257 0.0
C972 C 0.96747 0.9453 0.37511 0.0
C973 C 0.95147 0.94925 0.37265 0.0
C974 C 0.94788 0.96452 0.36771 0.0
C975 C 0.93988 0.0028 0.29461 0.0
C976 C 0.92693 0.01229 0.29051 0.0
C977 C 0.94558 0.00159 0.31034 0.0
C978 C 0.93846 0.00974 0.32245 0.0
C979 C 0.92521 0.01889 0.31854 0.0
C980 C 0.91954 0.02022 0.30269 0.0
C981 C 0.94546 0.00887 0.33897 0.0
C982 C 0.94809 0.99385 0.34543 0.0
C983 C 0.95074 0.02258 0.34784 0.0
C984 C 0.94915 0.03878 0.34145 0.0
C985 C 0.94048 0.04983 0.34956 0.0
C986 C 0.93893 0.06512 0.34354 0.0
C987 C 0.94608 0.06951 0.32945 0.0
C988 C 0.95486 0.05864 0.3214 0.0
C989 C 0.95647 0.04335 0.32738 0.0
H990 H 0.94485 0.08134 0.32481 0.0
H991 H 0.97023 0.93348 0.37894 0.0
H992 H 0.21773 0.26034 0.63662 0.0
H993 H 0.22266 0.24017 0.61687 0.0
H994 H 0.25052 0.21492 0.65207 0.0
H995 H 0.24587 0.23531 0.6718 0.0
H996 H 0.26582 0.21659 0.62609 0.0
H997 H 0.21215 0.20103 0.63803 0.0
H998 H 0.18345 0.2043 0.6422 0.0
H999 H 0.17608 0.21865 0.59372 0.0
H1000 H 0.2048 0.21569 0.5893 0.0
H1001 H 0.2722 0.15174 0.57258 0.0
H1002 H 0.26382 0.16631 0.59568 0.0
H1003 H 0.24151 0.20016 0.56466 0.0
H1004 H 0.24999 0.18589 0.54162 0.0
H1005 H 0.22284 0.19119 0.59044 0.0
H1006 H 0.27758 0.20908 0.5801 0.0
H1007 H 0.30626 0.20521 0.57634 0.0
H1008 H 0.31117 0.18517 0.62294 0.0
H1009 H 0.28244 0.18873 0.62688 0.0
C1010 C 0.22473 0.25038 0.64019 0.0
C1011 C 0.23139 0.24938 0.65575 0.0
C1012 C 0.22751 0.23882 0.6289 0.0
C1013 C 0.23677 0.22587 0.63302 0.0
C1014 C 0.24333 0.22479 0.64861 0.0
C1015 C 0.24069 0.23645 0.65986 0.0
C1016 C 0.24025 0.21392 0.62083 0.0
C1017 C 0.25636 0.2108 0.61853 0.0
C1018 C 0.22797 0.20648 0.61079 0.0
C1019 C 0.21067 0.20825 0.61337 0.0
C1020 C 0.20444 0.205 0.62828 0.0
C1021 C 0.18816 0.20678 0.63069 0.0
C1022 C 0.17795 0.21172 0.61824 0.0
C1023 C 0.184 0.21484 0.60335 0.0
C1024 C 0.20028 0.2131 0.60088 0.0
C1025 C 0.26535 0.16218 0.57067 0.0
C1026 C 0.26176 0.16764 0.55522 0.0
C1027 C 0.2606 0.17049 0.58388 0.0
C1028 C 0.25212 0.18435 0.58185 0.0
C1029 C 0.24799 0.18946 0.56647 0.0
C1030 C 0.25286 0.18126 0.55329 0.0
C1031 C 0.24833 0.19411 0.59567 0.0
C1032 C 0.2322 0.19683 0.59822 0.0
C1033 C 0.26055 0.20106 0.60605 0.0
C1034 C 0.27783 0.19899 0.60371 0.0
C1035 C 0.28474 0.20372 0.58949 0.0
C1036 C 0.30102 0.20161 0.58733 0.0
C1037 C 0.31052 0.1949 0.59938 0.0
C1038 C 0.30379 0.19033 0.61362 0.0
C1039 C 0.28751 0.1924 0.61582 0.0
H1040 H 0.32312 0.19327 0.59769 0.0
H1041 H 0.16535 0.21309 0.62013 0.0
H1042 H 0.50241 0.52059 0.60341 0.0
H1043 H 0.4858 0.51863 0.6266 0.0
H1044 H 0.44379 0.50754 0.59598 0.0
H1045 H 0.46047 0.50913 0.57271 0.0
H1046 H 0.4421 0.53378 0.61985 0.0
H1047 H 0.45461 0.47906 0.61521 0.0
H1048 H 0.47264 0.4571 0.61234 0.0
H1049 H 0.49814 0.47075 0.65609 0.0
H1050 H 0.48041 0.49296 0.65911 0.0
H1051 H 0.39451 0.52434 0.68713 0.0
H1052 H 0.40586 0.5197 0.66138 0.0
H1053 H 0.45237 0.51388 0.6848 0.0
H1054 H 0.44091 0.51767 0.71048 0.0
H1055 H 0.44892 0.49381 0.66232 0.0
H1056 H 0.44046 0.54978 0.66587 0.0
H1057 H 0.42471 0.57341 0.6692 0.0
H1058 H 0.39431 0.55959 0.62843 0.0
H1059 H 0.40978 0.53576 0.62498 0.0
C1060 C 0.48965 0.51762 0.60167 0.0
C1061 C 0.48267 0.51499 0.58634 0.0
C1062 C 0.48021 0.51647 0.61488 0.0
C1063 C 0.46361 0.51291 0.61295 0.0
C1064 C 0.45659 0.51026 0.59766 0.0
C1065 C 0.4661 0.5111 0.58444 0.0
C1066 C 0.45364 0.51255 0.62697 0.0
C1067 C 0.44329 0.52488 0.62903 0.0
C1068 C 0.45562 0.50116 0.63905 0.0
C1069 C 0.46625 0.48776 0.63732 0.0
C1070 C 0.46415 0.47747 0.62415 0.0
C1071 C 0.4743 0.46496 0.62251 0.0
C1072 C 0.48655 0.46255 0.63401 0.0
C1073 C 0.48865 0.47264 0.64719 0.0
C1074 C 0.47854 0.48518 0.64888 0.0
C1075 C 0.40713 0.52194 0.68674 0.0
C1076 C 0.41685 0.52144 0.70079 0.0
C1077 C 0.41363 0.51938 0.67202 0.0
C1078 C 0.43008 0.51674 0.67107 0.0
C1079 C 0.43967 0.51587 0.68516 0.0
C1080 C 0.4331 0.51809 0.69986 0.0
C1081 C 0.43753 0.5153 0.65549 0.0
C1082 C 0.44746 0.50263 0.6531 0.0
C1083 C 0.43545 0.52659 0.64324 0.0
C1084 C 0.42615 0.5409 0.64529 0.0
C1085 C 0.43034 0.55173 0.65769 0.0
C1086 C 0.42148 0.56516 0.65958 0.0
C1087 C 0.40849 0.56797 0.64906 0.0
C1088 C 0.40436 0.55738 0.63659 0.0
C1089 C 0.41317 0.54391 0.63466 0.0
H1090 H 0.40164 0.57838 0.65055 0.0
H1091 H 0.4944 0.45285 0.63272 0.0
H1092 H 0.78833 0.29478 0.67157 0.0
H1093 H 0.78259 0.31253 0.64941 0.0
H1094 H 0.79913 0.27816 0.6168 0.0
H1095 H 0.80554 0.26065 0.63895 0.0
H1096 H 0.80927 0.30747 0.60887 0.0
H1097 H 0.75895 0.28147 0.62264 0.0
H1098 H 0.73748 0.27357 0.64055 0.0
H1099 H 0.72917 0.32253 0.64934 0.0
H1100 H 0.75076 0.33073 0.63162 0.0
H1101 H 0.76838 0.32409 0.53617 0.0
H1102 H 0.7791 0.31312 0.56091 0.0
H1103 H 0.76211 0.35251 0.58688 0.0
H1104 H 0.75131 0.36367 0.56203 0.0
H1105 H 0.75335 0.32407 0.59982 0.0
H1106 H 0.80179 0.34975 0.58297 0.0
H1107 H 0.82271 0.35701 0.56425 0.0
H1108 H 0.83422 0.30819 0.56055 0.0
H1109 H 0.8132 0.30058 0.57906 0.0
C1110 C 0.791 0.29111 0.65972 0.0
C1111 C 0.79729 0.27623 0.65703 0.0
C1112 C 0.78757 0.30121 0.64705 0.0
C1113 C 0.79022 0.29657 0.63143 0.0
C1114 C 0.79694 0.28196 0.62875 0.0
C1115 C 0.80044 0.27189 0.64141 0.0
C1116 C 0.78547 0.30663 0.61777 0.0
C1117 C 0.79703 0.31103 0.60683 0.0
C1118 C 0.76958 0.31162 0.61534 0.0
C1119 C 0.75659 0.30671 0.62596 0.0
C1120 C 0.75263 0.29055 0.62849 0.0
C1121 C 0.74043 0.28602 0.63859 0.0
C1122 C 0.732 0.29754 0.64612 0.0
C1123 C 0.73573 0.31362 0.64353 0.0
C1124 C 0.74795 0.31822 0.63345 0.0
C1125 C 0.76716 0.33061 0.54707 0.0
C1126 C 0.75908 0.34482 0.5471 0.0
C1127 C 0.77332 0.32431 0.56123 0.0
C1128 C 0.77155 0.33209 0.57571 0.0
C1129 C 0.76365 0.34637 0.5758 0.0
C1130 C 0.75752 0.35273 0.5616 0.0
C1131 C 0.77709 0.32468 0.59078 0.0
C1132 C 0.76566 0.32075 0.60198 0.0
C1133 C 0.79307 0.32005 0.59339 0.0
C1134 C 0.80583 0.32458 0.58234 0.0
C1135 C 0.8087 0.34054 0.57808 0.0
C1136 C 0.82059 0.34472 0.56752 0.0
C1137 C 0.82977 0.33307 0.56119 0.0
C1138 C 0.8271 0.31721 0.56545 0.0
C1139 C 0.81521 0.31295 0.576 0.0
H1140 H 0.83897 0.33633 0.55301 0.0
H1141 H 0.72255 0.29401 0.65393 0.0
H1142 H 0.51534 0.99749 0.63062 0.0
H1143 H 0.53375 0.99988 0.65394 0.0
H1144 H 0.569 0.97489 0.62928 0.0
H1145 H 0.55023 0.97139 0.60637 0.0
H1146 H 0.56915 0.96508 0.65802 0.0
H1147 H 0.57059 0.01678 0.63435 0.0
H1148 H 0.55933 0.04124 0.6237 0.0
H1149 H 0.54057 0.05116 0.669 0.0
H1150 H 0.55155 0.02663 0.67986 0.0
H1151 H 0.64031 0.99235 0.70171 0.0
H1152 H 0.61877 0.98799 0.68126 0.0
H1153 H 0.58428 0.00346 0.71369 0.0
H1154 H 0.60577 0.0077 0.73439 0.0
H1155 H 0.58244 0.0178 0.68278 0.0
H1156 H 0.58373 0.96619 0.70647 0.0
H1157 H 0.59676 0.94231 0.7163 0.0
H1158 H 0.61246 0.93297 0.66961 0.0
H1159 H 0.59971 0.95693 0.65953 0.0
C1160 C 0.5269 0.99227 0.6302 0.0
C1161 C 0.53126 0.98431 0.61648 0.0
C1162 C 0.53754 0.99385 0.64351 0.0
C1163 C 0.55293 0.98783 0.64331 0.0
C1164 C 0.55724 0.97972 0.62973 0.0
C1165 C 0.54653 0.97791 0.61652 0.0
C1166 C 0.56459 0.98999 0.65718 0.0
C1167 C 0.57215 0.97665 0.6633 0.0
C1168 C 0.56832 0.00502 0.66436 0.0
C1169 C 0.56174 0.01978 0.65787 0.0
C1170 C 0.56396 0.02411 0.64201 0.0
C1171 C 0.55765 0.038 0.63594 0.0
C1172 C 0.5492 0.04772 0.64566 0.0
C1173 C 0.54709 0.0436 0.66148 0.0
C1174 C 0.55337 0.02971 0.6676 0.0
C1175 C 0.62814 0.99479 0.70455 0.0
C1176 C 0.62476 0.00038 0.7197 0.0
C1177 C 0.61584 0.99224 0.69285 0.0
C1178 C 0.59994 0.99534 0.696 0.0
C1179 C 0.59649 0.00098 0.71106 0.0
C1180 C 0.60877 0.00333 0.72287 0.0
C1181 C 0.58704 0.99296 0.68339 0.0
C1182 C 0.57929 0.00624 0.67753 0.0
C1183 C 0.58333 0.97795 0.67628 0.0
C1184 C 0.59087 0.96344 0.68228 0.0
C1185 C 0.59006 0.95911 0.69832 0.0
C1186 C 0.59738 0.94555 0.70393 0.0
C1187 C 0.60547 0.93615 0.69359 0.0
C1188 C 0.6062 0.94027 0.67761 0.0
C1189 C 0.59892 0.95383 0.67193 0.0
H1190 H 0.61113 0.92566 0.69797 0.0
H1191 H 0.54432 0.05847 0.64094 0.0
H1192 H 0.89241 0.24805 0.76133 0.0
H1193 H 0.91542 0.25151 0.7805 0.0
H1194 H 0.89249 0.2181 0.81187 0.0
H1195 H 0.86951 0.21458 0.79277 0.0
H1196 H 0.90416 0.24678 0.82668 0.0
H1197 H 0.92222 0.20642 0.79194 0.0
H1198 H 0.92859 0.1953 0.76607 0.0
H1199 H 0.96331 0.2338 0.75968 0.0
H1200 H 0.95697 0.24527 0.78544 0.0
H1201 H 0.96482 0.2304 0.88328 0.0
H1202 H 0.94412 0.22833 0.86193 0.0
H1203 H 0.97431 0.2569 0.83191 0.0
H1204 H 0.9954 0.25875 0.85321 0.0
H1205 H 0.95959 0.23289 0.81536 0.0
H1206 H 0.94298 0.27295 0.84987 0.0
H1207 H 0.93674 0.28512 0.8753 0.0
H1208 H 0.89938 0.24907 0.8815 0.0
H1209 H 0.90556 0.23655 0.8562 0.0
C1210 C 0.89231 0.24145 0.77232 0.0
C1211 C 0.8792 0.23103 0.77558 0.0
C1212 C 0.90547 0.24337 0.7832 0.0
C1213 C 0.90565 0.23501 0.79755 0.0
C1214 C 0.89257 0.22463 0.80084 0.0
C1215 C 0.87951 0.22256 0.7899 0.0
C1216 C 0.91928 0.23733 0.80938 0.0
C1217 C 0.91625 0.24359 0.82429 0.0
C1218 C 0.93514 0.23371 0.80599 0.0
C1219 C 0.93898 0.2268 0.79053 0.0
C1220 C 0.9311 0.2126 0.78495 0.0
C1221 C 0.93473 0.20621 0.77032 0.0
C1222 C 0.94631 0.21386 0.76121 0.0
C1223 C 0.95432 0.2279 0.76674 0.0
C1224 C 0.95072 0.23434 0.78135 0.0
C1225 C 0.96712 0.23627 0.87215 0.0
C1226 C 0.98174 0.24488 0.87002 0.0
C1227 C 0.95522 0.23511 0.85996 0.0
C1228 C 0.95752 0.24273 0.84542 0.0
C1229 C 0.97225 0.251 0.84306 0.0
C1230 C 0.98427 0.25207 0.85526 0.0
C1231 C 0.94442 0.24206 0.83283 0.0
C1232 C 0.94753 0.23618 0.81776 0.0
C1233 C 0.92864 0.24621 0.83598 0.0
C1234 C 0.92483 0.25374 0.85119 0.0
C1235 C 0.93352 0.26755 0.85671 0.0
C1236 C 0.92997 0.27452 0.87109 0.0
C1237 C 0.91769 0.26785 0.88002 0.0
C1238 C 0.9089 0.25422 0.87457 0.0
C1239 C 0.91241 0.24718 0.8602 0.0
H1240 H 0.91497 0.27327 0.89116 0.0
H1241 H 0.94911 0.2089 0.74989 0.0
H1242 H 0.517 0.91011 0.49826 0.0
H1243 H 0.52125 0.88838 0.47996 0.0
H1244 H 0.47186 0.88904 0.46251 0.0
H1245 H 0.46763 0.91129 0.4801 0.0
H1246 H 0.48319 0.85851 0.47386 0.0
H1247 H 0.49726 0.90178 0.4389 0.0
H1248 H 0.51239 0.92635 0.43171 0.0
H1249 H 0.55674 0.90285 0.43767 0.0
H1250 H 0.54187 0.87819 0.44513 0.0
H1251 H 0.48377 0.79868 0.41695 0.0
H1252 H 0.48004 0.82449 0.42904 0.0
H1253 H 0.53153 0.83319 0.43382 0.0
H1254 H 0.53521 0.80781 0.42065 0.0
H1255 H 0.51926 0.85973 0.42875 0.0
H1256 H 0.50768 0.81781 0.46509 0.0
H1257 H 0.49458 0.79294 0.47443 0.0
H1258 H 0.44843 0.81318 0.46902 0.0
H1259 H 0.46125 0.83811 0.45945 0.0
C1260 C 0.5071 0.90593 0.49029 0.0
C1261 C 0.49192 0.91246 0.49079 0.0
C1262 C 0.50956 0.89344 0.4799 0.0
C1263 C 0.49686 0.88715 0.46993 0.0
C1264 C 0.48179 0.89373 0.47018 0.0
C1265 C 0.47938 0.90636 0.48037 0.0
C1266 C 0.499 0.87306 0.45993 0.0
C1267 C 0.49087 0.85879 0.46383 0.0
C1268 C 0.50953 0.87339 0.44729 0.0
C1269 C 0.51846 0.88818 0.44273 0.0
C1270 C 0.51025 0.90189 0.43883 0.0
C1271 C 0.51878 0.91582 0.43467 0.0
C1272 C 0.53552 0.91617 0.43428 0.0
C1273 C 0.54377 0.90257 0.438 0.0
C1274 C 0.5353 0.88861 0.44218 0.0
C1275 C 0.49426 0.80626 0.42034 0.0
C1276 C 0.50977 0.80127 0.41802 0.0
C1277 C 0.49214 0.82095 0.42737 0.0
C1278 C 0.50551 0.8306 0.43288 0.0
C1279 C 0.52102 0.82595 0.4298 0.0
C1280 C 0.52312 0.81145 0.42229 0.0
C1281 C 0.50331 0.84504 0.44255 0.0
C1282 C 0.51149 0.85938 0.4387 0.0
C1283 C 0.49314 0.84471 0.45557 0.0
C1284 C 0.48541 0.82977 0.46141 0.0
C1285 C 0.49473 0.81692 0.4658 0.0
C1286 C 0.48736 0.80282 0.47115 0.0
C1287 C 0.47068 0.80147 0.47228 0.0
C1288 C 0.46135 0.81423 0.46811 0.0
C1289 C 0.46866 0.82836 0.46274 0.0
H1290 H 0.465 0.79054 0.47641 0.0
H1291 H 0.5421 0.92697 0.43105 0.0
H1292 H 0.17337 0.29441 0.78619 0.0
H1293 H 0.15265 0.28989 0.80526 0.0
H1294 H 0.11659 0.30398 0.77046 0.0
H1295 H 0.13746 0.30931 0.75145 0.0
H1296 H 0.11121 0.31609 0.79889 0.0
H1297 H 0.12079 0.26484 0.77893 0.0
H1298 H 0.13684 0.24254 0.77133 0.0
H1299 H 0.15444 0.2379 0.81969 0.0
H1300 H 0.13867 0.26032 0.82755 0.0
H1301 H 0.0488 0.28189 0.84746 0.0
H1302 H 0.06596 0.28877 0.8254 0.0
H1303 H 0.10807 0.28021 0.85523 0.0
H1304 H 0.09116 0.27336 0.87719 0.0
H1305 H 0.10765 0.26445 0.82673 0.0
H1306 H 0.09889 0.31736 0.84583 0.0
H1307 H 0.08226 0.33944 0.85284 0.0
H1308 H 0.06193 0.34019 0.80511 0.0
H1309 H 0.07829 0.31796 0.79787 0.0
C1310 C 0.16109 0.29679 0.78261 0.0
C1311 C 0.15711 0.30223 0.76725 0.0
C1312 C 0.1492 0.294 0.79349 0.0
C1313 C 0.13302 0.29633 0.78921 0.0
C1314 C 0.12899 0.302 0.77399 0.0
C1315 C 0.14092 0.3049 0.76309 0.0
C1316 C 0.12041 0.29273 0.80071 0.0
C1317 C 0.11024 0.30471 0.80479 0.0
C1318 C 0.11918 0.27791 0.80847 0.0
C1319 C 0.12863 0.26435 0.80381 0.0
C1320 C 0.12816 0.25913 0.78793 0.0
C1321 C 0.1372 0.24646 0.78357 0.0
C1322 C 0.14667 0.23883 0.79501 0.0
C1323 C 0.1471 0.24383 0.81084 0.0
C1324 C 0.1381 0.25651 0.81526 0.0
C1325 C 0.06173 0.28166 0.84936 0.0
C1326 C 0.06861 0.277 0.86406 0.0
C1327 C 0.0715 0.28561 0.83675 0.0
C1328 C 0.08828 0.28496 0.83869 0.0
C1329 C 0.09515 0.28071 0.85347 0.0
C1330 C 0.08544 0.27683 0.86603 0.0
C1331 C 0.09881 0.28795 0.82524 0.0
C1332 C 0.10854 0.27579 0.82073 0.0
C1333 C 0.09948 0.30252 0.81701 0.0
C1334 C 0.08967 0.31588 0.82136 0.0
C1335 C 0.09076 0.32214 0.83687 0.0
C1336 C 0.08141 0.3347 0.84088 0.0
C1337 C 0.07101 0.34118 0.82944 0.0
C1338 C 0.06997 0.33514 0.81396 0.0
C1339 C 0.07929 0.32257 0.8099 0.0
H1340 H 0.06378 0.3509 0.83257 0.0
H1341 H 0.15366 0.22902 0.79161 0.0
H1342 H 0.53964 0.58786 0.45296 0.0
H1343 H 0.53814 0.61212 0.4374 0.0
H1344 H 0.50387 0.62967 0.46899 0.0
H1345 H 0.50469 0.6051 0.48416 0.0
H1346 H 0.49572 0.63711 0.43919 0.0
H1347 H 0.54385 0.64144 0.47284 0.0
H1348 H 0.56983 0.63313 0.48432 0.0
H1349 H 0.58931 0.63418 0.43812 0.0
H1350 H 0.56335 0.64229 0.42632 0.0
H1351 H 0.50935 0.72041 0.42672 0.0
H1352 H 0.50656 0.69352 0.43723 0.0
H1353 H 0.53704 0.67696 0.40147 0.0
H1354 H 0.5398 0.70379 0.39077 0.0
H1355 H 0.54678 0.66845 0.43192 0.0
H1356 H 0.49831 0.66636 0.39887 0.0
H1357 H 0.47232 0.67563 0.38843 0.0
H1358 H 0.45346 0.67156 0.4348 0.0
H1359 H 0.47943 0.66248 0.44557 0.0
C1360 C 0.53155 0.59674 0.45644 0.0
C1361 C 0.52239 0.59457 0.46991 0.0
C1362 C 0.53083 0.61068 0.44762 0.0
C1363 C 0.52111 0.62283 0.4522 0.0
C1364 C 0.51153 0.62049 0.46529 0.0
C1365 C 0.51215 0.60651 0.47406 0.0
C1366 C 0.52141 0.63822 0.44375 0.0
C1367 C 0.50687 0.64403 0.43772 0.0
C1368 C 0.53598 0.64715 0.44161 0.0
C1369 C 0.55161 0.6423 0.44868 0.0
C1370 C 0.55363 0.63977 0.46511 0.0
C1371 C 0.56836 0.63512 0.47168 0.0
C1372 C 0.58119 0.63308 0.46195 0.0
C1373 C 0.57934 0.63573 0.44563 0.0
C1374 C 0.56463 0.64037 0.439 0.0
C1375 C 0.51524 0.71102 0.42091 0.0
C1376 C 0.52479 0.71425 0.4079 0.0
C1377 C 0.51361 0.69565 0.42692 0.0
C1378 C 0.52155 0.68326 0.42008 0.0
C1379 C 0.53081 0.68637 0.4069 0.0
C1380 C 0.53234 0.7017 0.40079 0.0
C1381 C 0.52111 0.66733 0.42737 0.0
C1382 C 0.53565 0.66145 0.43325 0.0
C1383 C 0.50653 0.65847 0.42951 0.0
C1384 C 0.49087 0.66387 0.42306 0.0
C1385 C 0.48867 0.66757 0.40687 0.0
C1386 C 0.47393 0.67276 0.40089 0.0
C1387 C 0.46126 0.67422 0.41095 0.0
C1388 C 0.46329 0.67044 0.42702 0.0
C1389 C 0.47801 0.66526 0.43307 0.0
H1390 H 0.44986 0.67824 0.4063 0.0
H1391 H 0.59259 0.62948 0.46706 0.0
H1392 H 0.8689 0.76111 0.73733 0.0
H1393 H 0.89067 0.76114 0.71896 0.0
H1394 H 0.86936 0.79898 0.69248 0.0
H1395 H 0.8477 0.79928 0.71099 0.0
H1396 H 0.87814 0.77502 0.67325 0.0
H1397 H 0.90216 0.80687 0.7161 0.0
H1398 H 0.91041 0.81308 0.74398 0.0
H1399 H 0.94006 0.77296 0.7457 0.0
H1400 H 0.93181 0.76637 0.71788 0.0
H1401 H 0.94262 0.79037 0.62372 0.0
H1402 H 0.92297 0.79429 0.64374 0.0
H1403 H 0.94448 0.75857 0.67308 0.0
H1404 H 0.96441 0.75481 0.65326 0.0
H1405 H 0.93566 0.78251 0.69098 0.0
H1406 H 0.91087 0.74968 0.64912 0.0
H1407 H 0.90242 0.74262 0.62147 0.0
H1408 H 0.87399 0.78358 0.61818 0.0
H1409 H 0.88245 0.79101 0.64576 0.0
C1410 C 0.86893 0.76959 0.72773 0.0
C1411 C 0.85654 0.78022 0.72569 0.0
C1412 C 0.88137 0.76956 0.71722 0.0
C1413 C 0.88171 0.78016 0.70444 0.0
C1414 C 0.86931 0.79069 0.70226 0.0
C1415 C 0.8569 0.79078 0.71281 0.0
C1416 C 0.8948 0.78001 0.69315 0.0
C1417 C 0.89071 0.77692 0.67708 0.0
C1418 C 0.91121 0.78207 0.69823 0.0
C1419 C 0.91624 0.78604 0.71495 0.0
C1420 C 0.91034 0.7993 0.72246 0.0
C1421 C 0.91503 0.8029 0.73825 0.0
C1422 C 0.92572 0.7934 0.74662 0.0
C1423 C 0.93177 0.78029 0.73921 0.0
C1424 C 0.9271 0.77663 0.72342 0.0
C1425 C 0.94331 0.78347 0.63451 0.0
C1426 C 0.95499 0.77215 0.63681 0.0
C1427 C 0.93201 0.78569 0.64592 0.0
C1428 C 0.93204 0.77649 0.65976 0.0
C1429 C 0.94417 0.76574 0.66246 0.0
C1430 C 0.95555 0.76359 0.65109 0.0
C1431 C 0.919 0.77752 0.67106 0.0
C1432 C 0.92309 0.78072 0.68713 0.0
C1433 C 0.90257 0.77545 0.66601 0.0
C1434 C 0.89743 0.77099 0.64944 0.0
C1435 C 0.90291 0.75725 0.64246 0.0
C1436 C 0.89811 0.75317 0.62681 0.0
C1437 C 0.88771 0.76267 0.61806 0.0
C1438 C 0.88206 0.77625 0.62496 0.0
C1439 C 0.88685 0.78039 0.6406 0.0
H1440 H 0.884 0.75949 0.60594 0.0
H1441 H 0.92934 0.79621 0.75884 0.0
H1442 H 0.00634 0.91376 0.52033 0.0
H1443 H 0.00157 0.88956 0.5356 0.0
H1444 H 0.052 0.8895 0.54934 0.0
H1445 H 0.05684 0.91416 0.53492 0.0
H1446 H 0.03648 0.86027 0.53385 0.0
H1447 H 0.03082 0.89774 0.57652 0.0
H1448 H 0.01917 0.92072 0.58891 0.0
H1449 H 0.97215 0.89751 0.58403 0.0
H1450 H 0.9835 0.87447 0.57138 0.0
H1451 H 0.0369 0.79363 0.58215 0.0
H1452 H 0.04136 0.82088 0.57311 0.0
H1453 H 0.9906 0.82801 0.57515 0.0
H1454 H 0.9863 0.80099 0.58521 0.0
H1455 H 0.00577 0.85429 0.58261 0.0
H1456 H 0.00914 0.81797 0.53957 0.0
H1457 H 0.01858 0.79495 0.52529 0.0
H1458 H 0.06676 0.81563 0.52801 0.0
H1459 H 0.05764 0.83869 0.54249 0.0
C1460 C 0.01639 0.90888 0.52689 0.0
C1461 C 0.03202 0.91596 0.52624 0.0
C1462 C 0.01363 0.89498 0.53554 0.0
C1463 C 0.02644 0.88779 0.54354 0.0
C1464 C 0.04198 0.89487 0.54316 0.0
C1465 C 0.04472 0.90891 0.53477 0.0
C1466 C 0.02384 0.87235 0.5515 0.0
C1467 C 0.02997 0.85895 0.54465 0.0
C1468 C 0.0148 0.87064 0.56519 0.0
C1469 C 0.00798 0.88446 0.57285 0.0
C1470 C 0.01797 0.8976 0.57794 0.0
C1471 C 0.01143 0.91062 0.58505 0.0
C1472 C 0.99492 0.91059 0.58722 0.0
C1473 C 0.98493 0.89752 0.58232 0.0
C1474 C 0.99141 0.88448 0.5752 0.0
C1475 C 0.02675 0.80112 0.5809 0.0
C1476 C 0.01124 0.7952 0.58422 0.0
C1477 C 0.02927 0.81665 0.57562 0.0
C1478 C 0.01624 0.82638 0.57291 0.0
C1479 C 0.00084 0.82073 0.57701 0.0
C1480 C 0.99838 0.8053 0.58275 0.0
C1481 C 0.0186 0.84206 0.56508 0.0
C1482 C 0.01234 0.85552 0.57185 0.0
C1483 C 0.0272 0.8438 0.55102 0.0
C1484 C 0.03273 0.82998 0.54225 0.0
C1485 C 0.02176 0.81756 0.53721 0.0
C1486 C 0.02706 0.80451 0.52907 0.0
C1487 C 0.04327 0.80381 0.52578 0.0
C1488 C 0.05421 0.81618 0.53058 0.0
C1489 C 0.04899 0.82925 0.53875 0.0
H1490 H 0.04734 0.7937 0.51948 0.0
H1491 H 0.98988 0.92069 0.59272 0.0
H1492 H 0.15276 0.7321 0.70569 0.0
H1493 H 0.13001 0.7366 0.68721 0.0
H1494 H 0.09833 0.7102 0.71764 0.0
H1495 H 0.12122 0.70538 0.73604 0.0
H1496 H 0.09077 0.70269 0.6879 0.0
H1497 H 0.09962 0.75132 0.71645 0.0
H1498 H 0.11514 0.7746 0.72791 0.0
H1499 H 0.1271 0.78989 0.68124 0.0
H1500 H 0.11184 0.76657 0.6695 0.0
H1501 H 0.0209 0.73328 0.64684 0.0
H1502 H 0.04115 0.72887 0.66829 0.0
H1503 H 0.07881 0.74348 0.63741 0.0
H1504 H 0.05878 0.74758 0.61588 0.0
H1505 H 0.0812 0.7573 0.66937 0.0
H1506 H 0.07335 0.70689 0.64159 0.0
H1507 H 0.05686 0.68391 0.63079 0.0
H1508 H 0.04161 0.67258 0.6775 0.0
H1509 H 0.05783 0.69567 0.68854 0.0
C1510 C 0.14093 0.7273 0.70846 0.0
C1511 C 0.13873 0.7185 0.72236 0.0
C1512 C 0.12792 0.72991 0.69791 0.0
C1513 C 0.11237 0.72402 0.70118 0.0
C1514 C 0.1102 0.71492 0.71489 0.0
C1515 C 0.12327 0.71215 0.72538 0.0
C1516 C 0.09847 0.72741 0.69022 0.0
C1517 C 0.08853 0.71467 0.68408 0.0
C1518 C 0.09555 0.74302 0.68511 0.0
C1519 C 0.10468 0.75712 0.69211 0.0
C1520 C 0.10565 0.75959 0.70863 0.0
C1521 C 0.11439 0.7728 0.71518 0.0
C1522 C 0.12212 0.7837 0.70531 0.0
C1523 C 0.12111 0.78143 0.68887 0.0
C1524 C 0.1124 0.76822 0.68226 0.0
C1525 C 0.03349 0.73565 0.64467 0.0
C1526 C 0.03826 0.74071 0.62967 0.0
C1527 C 0.04502 0.73308 0.6569 0.0
C1528 C 0.06144 0.73581 0.65436 0.0
C1529 C 0.06619 0.74131 0.63956 0.0
C1530 C 0.05473 0.74358 0.62728 0.0
C1531 C 0.0738 0.7326 0.66696 0.0
C1532 C 0.0834 0.74537 0.67338 0.0
C1533 C 0.07627 0.71707 0.67246 0.0
C1534 C 0.06664 0.70312 0.66585 0.0
C1535 C 0.06636 0.69959 0.64953 0.0
C1536 C 0.05709 0.68653 0.64337 0.0
C1537 C 0.04815 0.67682 0.65344 0.0
C1538 C 0.04851 0.68013 0.66971 0.0
C1539 C 0.05775 0.6932 0.67592 0.0
H1540 H 0.04097 0.66672 0.64866 0.0
H1541 H 0.12888 0.79392 0.71041 0.0
H1542 H 0.96254 0.58776 0.52751 0.0
H1543 H 0.96673 0.6123 0.54312 0.0
H1544 H 0.01528 0.61787 0.52785 0.0
H1545 H 0.01108 0.59342 0.51199 0.0
H1546 H 0.01005 0.62468 0.56247 0.0
H1547 H 0.99256 0.63791 0.50869 0.0
H1548 H 0.97454 0.6351 0.48467 0.0
H1549 H 0.93452 0.64733 0.51161 0.0
H1550 H 0.95227 0.64995 0.53585 0.0
H1551 H 0.00241 0.71666 0.56301 0.0
H1552 H 0.00446 0.69108 0.54977 0.0
H1553 H 0.98649 0.667 0.5908 0.0
H1554 H 0.98434 0.69256 0.60413 0.0
H1555 H 0.97884 0.66967 0.54255 0.0
H1556 H 0.00466 0.63055 0.59278 0.0
H1557 H 0.02265 0.63348 0.61682 0.0
H1558 H 0.04709 0.67399 0.59657 0.0
H1559 H 0.02944 0.67115 0.57231 0.0
C1560 C 0.97418 0.59409 0.5277 0.0
C1561 C 0.98648 0.58876 0.51853 0.0
C1562 C 0.97655 0.60807 0.53658 0.0
C1563 C 0.9913 0.61683 0.5366 0.0
C1564 C 0.00384 0.6112 0.52801 0.0
C1565 C 0.0014 0.59733 0.51891 0.0
C1566 C 0.9931 0.63254 0.54447 0.0
C1567 C 0.00326 0.63455 0.55816 0.0
C1568 C 0.98436 0.64539 0.53868 0.0
C1569 C 0.97371 0.64397 0.5241 0.0
C1570 C 0.97989 0.63986 0.50951 0.0
C1571 C 0.96973 0.63833 0.49586 0.0
C1572 C 0.95339 0.641 0.49662 0.0
C1573 C 0.94718 0.64524 0.51104 0.0
C1574 C 0.95728 0.64677 0.52473 0.0
C1575 C 0.9991 0.70592 0.56931 0.0
C1576 C 0.99317 0.70662 0.5846 0.0
C1577 C 1.00023 0.69133 0.5617 0.0
C1578 C 0.99567 0.67718 0.56933 0.0
C1579 C 0.9902 0.67779 0.58478 0.0
C1580 C 0.98892 0.6924 0.59234 0.0
C1581 C 0.99565 0.66186 0.56073 0.0
C1582 C 0.98572 0.65987 0.54689 0.0
C1583 C 0.00466 0.6491 0.56639 0.0
C1584 C 0.01561 0.65071 0.58078 0.0
C1585 C 0.01393 0.64003 0.59342 0.0
C1586 C 0.02406 0.64168 0.60709 0.0
C1587 C 0.03597 0.65394 0.60824 0.0
C1588 C 0.03783 0.66453 0.59569 0.0
C1589 C 0.02774 0.66291 0.58198 0.0
H1590 H 0.04379 0.65521 0.61883 0.0
H1591 H 0.94554 0.63981 0.48604 0.0
H1592 H 0.79902 0.86702 0.22876 0.0
H1593 H 0.8187 0.88915 0.23258 0.0
H1594 H 0.78336 0.92155 0.2158 0.0
H1595 H 0.76383 0.89929 0.21096 0.0
H1596 H 0.81074 0.92947 0.20383 0.0
H1597 H 0.79455 0.91784 0.2561 0.0
H1598 H 0.78884 0.90123 0.27935 0.0
H1599 H 0.83829 0.88928 0.28366 0.0
H1600 H 0.84426 0.90565 0.26029 0.0
H1601 H 0.8584 0.99752 0.23331 0.0
H1602 H 0.83652 0.97708 0.2302 0.0
H1603 H 0.87057 0.94068 0.23715 0.0
H1604 H 0.89251 0.96095 0.24011 0.0
H1605 H 0.84249 0.93631 0.2549 0.0
H1606 H 0.85763 0.94752 0.20126 0.0
H1607 H 0.86269 0.96496 0.17845 0.0
H1608 H 0.81386 0.97893 0.17768 0.0
H1609 H 0.80858 0.96174 0.20066 0.0
C1610 C 0.79544 0.8788 0.22564 0.0
C1611 C 0.77978 0.88131 0.21953 0.0
C1612 C 0.80668 0.89151 0.22807 0.0
C1613 C 0.80245 0.90709 0.22478 0.0
C1614 C 0.78689 0.90965 0.21854 0.0
C1615 C 0.77567 0.89691 0.21593 0.0
C1616 C 0.81439 0.92061 0.22761 0.0
C1617 C 0.81747 0.93111 0.2151 0.0
C1618 C 0.82334 0.9227 0.24225 0.0
C1619 C 0.81982 0.91288 0.25636 0.0
C1620 C 0.80419 0.91159 0.26194 0.0
C1621 C 0.80091 0.90222 0.27515 0.0
C1622 C 0.81319 0.89418 0.28296 0.0
C1623 C 0.82879 0.89551 0.27759 0.0
C1624 C 0.83213 0.90485 0.26437 0.0
C1625 C 0.86123 0.98517 0.23424 0.0
C1626 C 0.87721 0.98086 0.23691 0.0
C1627 C 0.84872 0.97352 0.23241 0.0
C1628 C 0.85197 0.95739 0.23339 0.0
C1629 C 0.86784 0.95307 0.23637 0.0
C1630 C 0.88036 0.96468 0.23798 0.0
C1631 C 0.83888 0.94495 0.23109 0.0
C1632 C 0.83562 0.9347 0.24371 0.0
C1633 C 0.82962 0.94322 0.21664 0.0
C1634 C 0.83277 0.95349 0.20279 0.0
C1635 C 0.84802 0.95443 0.19632 0.0
C1636 C 0.85091 0.96424 0.18334 0.0
C1637 C 0.83862 0.97309 0.17665 0.0
C1638 C 0.82338 0.9721 0.1829 0.0
C1639 C 0.82043 0.96231 0.19589 0.0
H1640 H 0.84088 0.98067 0.1666 0.0
H1641 H 0.81062 0.88694 0.29318 0.0
H1642 H 0.7507 0.13312 0.27518 0.0
H1643 H 0.77067 0.11311 0.27265 0.0
H1644 H 0.80323 0.14823 0.25283 0.0
H1645 H 0.78316 0.16811 0.25478 0.0
H1646 H 0.80295 0.12123 0.23654 0.0
H1647 H 0.80731 0.13631 0.29192 0.0
H1648 H 0.7972 0.14023 0.31857 0.0
H1649 H 0.78318 0.09068 0.32095 0.0
H1650 H 0.79303 0.0865 0.29421 0.0
H1651 H 0.87852 0.08968 0.24646 0.0
H1652 H 0.85534 0.10561 0.2496 0.0
H1653 H 0.82807 0.06445 0.26562 0.0
H1654 H 0.85142 0.04829 0.26258 0.0
H1655 H 0.82344 0.09163 0.2834 0.0
H1656 H 0.8213 0.07632 0.22875 0.0
H1657 H 0.83191 0.07259 0.2023 0.0
H1658 H 0.84196 0.12279 0.1986 0.0
H1659 H 0.83162 0.12681 0.22515 0.0
C1660 C 0.76204 0.13654 0.27012 0.0
C1661 C 0.76535 0.15225 0.26525 0.0
C1662 C 0.77351 0.12512 0.26883 0.0
C1663 C 0.78854 0.12921 0.26274 0.0
C1664 C 0.79175 0.1448 0.25763 0.0
C1665 C 0.7803 0.1562 0.25888 0.0
C1666 C 0.801 0.11733 0.26161 0.0
C1667 C 0.80751 0.11487 0.24682 0.0
C1668 C 0.80662 0.10863 0.27491 0.0
C1669 C 0.80073 0.11113 0.29099 0.0
C1670 C 0.80195 0.12627 0.29807 0.0
C1671 C 0.79629 0.12854 0.3132 0.0
C1672 C 0.78951 0.11572 0.32142 0.0
C1673 C 0.78841 0.1006 0.31455 0.0
C1674 C 0.79404 0.09828 0.29941 0.0
C1675 C 0.86765 0.08397 0.25073 0.0
C1676 C 0.8668 0.06766 0.25415 0.0
C1677 C 0.85438 0.09311 0.25247 0.0
C1678 C 0.8399 0.08616 0.25759 0.0
C1679 C 0.83912 0.07001 0.26157 0.0
C1680 C 0.85245 0.0608 0.2598 0.0
C1681 C 0.82561 0.09587 0.25842 0.0
C1682 C 0.81874 0.09788 0.2731 0.0
C1683 C 0.81965 0.1042 0.24503 0.0
C1684 C 0.82579 0.10185 0.229 0.0
C1685 C 0.82588 0.08656 0.22235 0.0
C1686 C 0.83183 0.08439 0.20733 0.0
C1687 C 0.83763 0.09744 0.19879 0.0
C1688 C 0.83747 0.11269 0.20524 0.0
C1689 C 0.83154 0.11492 0.22026 0.0
H1690 H 0.84224 0.09574 0.18716 0.0
H1691 H 0.78513 0.1175 0.33314 0.0
H1692 H 0.40911 0.95301 0.99054 0.0
H1693 H 0.38563 0.93542 0.99535 0.0
H1694 H 0.35515 0.96694 0.96918 0.0
H1695 H 0.37862 0.98469 0.9644 0.0
H1696 H 0.34239 0.95605 0.99793 0.0
H1697 H 0.3645 0.93487 0.95135 0.0
H1698 H 0.38599 0.92511 0.93539 0.0
H1699 H 0.39377 0.8878 0.96894 0.0
H1700 H 0.37248 0.89749 0.98523 0.0
H1701 H 0.27491 0.89967 0.99151 0.0
H1702 H 0.29626 0.91977 0.98647 0.0
H1703 H 0.33172 0.88854 0.00545 0.0
H1704 H 0.3106 0.86835 0.01012 0.0
H1705 H 0.34102 0.90037 0.97876 0.0
H1706 H 0.32015 0.92175 0.02604 0.0
H1707 H 0.2993 0.93154 0.04278 0.0
H1708 H 0.28967 0.96824 0.00902 0.0
H1709 H 0.31034 0.95852 0.99197 0.0
C1710 C 0.39739 0.95626 0.98591 0.0
C1711 C 0.3957 0.97019 0.97705 0.0
C1712 C 0.38401 0.94617 0.9886 0.0
C1713 C 0.36869 0.94984 0.98252 0.0
C1714 C 0.36688 0.9639 0.97394 0.0
C1715 C 0.3803 0.97394 0.97112 0.0
C1716 C 0.35465 0.93878 0.98489 0.0
C1717 C 0.34193 0.94393 0.99356 0.0
C1718 C 0.35425 0.92291 0.97941 0.0
C1719 C 0.36699 0.917 0.96958 0.0
C1720 C 0.37088 0.92466 0.95539 0.0
C1721 C 0.38301 0.91913 0.94628 0.0
C1722 C 0.39127 0.90587 0.95117 0.0
C1723 C 0.38738 0.89808 0.96517 0.0
C1724 C 0.37527 0.90358 0.97435 0.0
C1725 C 0.28724 0.89715 0.99472 0.0
C1726 C 0.29104 0.88237 0.00115 0.0
C1727 C 0.29944 0.90867 0.99188 0.0
C1728 C 0.31561 0.9057 0.99565 0.0
C1729 C 0.31935 0.89108 0.00236 0.0
C1730 C 0.30723 0.87954 0.00505 0.0
C1731 C 0.3288 0.91749 0.99212 0.0
C1732 C 0.34137 0.91249 0.98313 0.0
C1733 C 0.32909 0.93344 0.99742 0.0
C1734 C 0.31666 0.93929 0.00765 0.0
C1735 C 0.31349 0.93182 0.02212 0.0
C1736 C 0.30173 0.93738 0.03168 0.0
C1737 C 0.29313 0.95047 0.02695 0.0
C1738 C 0.29632 0.95807 0.01266 0.0
C1739 C 0.30806 0.95256 0.00305 0.0
H1740 H 0.28403 0.95476 0.03437 0.0
H1741 H 0.40065 0.9016 0.94409 0.0
H1742 H 0.22086 0.33098 0.26872 0.0
H1743 H 0.20222 0.35239 0.26663 0.0
H1744 H 0.23901 0.38513 0.28703 0.0
H1745 H 0.25736 0.36368 0.29001 0.0
H1746 H 0.21155 0.39152 0.29824 0.0
H1747 H 0.23049 0.38158 0.24601 0.0
H1748 H 0.23489 0.36528 0.22244 0.0
H1749 H 0.18398 0.35566 0.2154 0.0
H1750 H 0.1793 0.37176 0.23906 0.0
H1751 H 0.18893 0.459 0.24251 0.0
H1752 H 0.1991 0.43287 0.24687 0.0
H1753 H 0.16577 0.42431 0.28384 0.0
H1754 H 0.15572 0.45086 0.27983 0.0
H1755 H 0.1878 0.40364 0.24486 0.0
H1756 H 0.18423 0.40181 0.31265 0.0
H1757 H 0.18307 0.4201 0.33542 0.0
H1758 H 0.20854 0.45658 0.30993 0.0
H1759 H 0.21001 0.43845 0.2871 0.0
C1760 C 0.22491 0.34267 0.27303 0.0
C1761 C 0.24071 0.34561 0.27939 0.0
C1762 C 0.21426 0.35494 0.27169 0.0
C1763 C 0.21927 0.37044 0.27645 0.0
C1764 C 0.23486 0.37329 0.28323 0.0
C1765 C 0.24543 0.36103 0.28472 0.0
C1766 C 0.20866 0.38391 0.27381 0.0
C1767 C 0.20622 0.39407 0.28659 0.0
C1768 C 0.20177 0.38736 0.25861 0.0
C1769 C 0.20457 0.3777 0.2444 0.0
C1770 C 0.22025 0.37589 0.2395 0.0
C1771 C 0.22279 0.3667 0.22612 0.0
C1772 C 0.20972 0.35939 0.21746 0.0
C1773 C 0.19409 0.3613 0.22214 0.0
C1774 C 0.19148 0.37045 0.23553 0.0
C1775 C 0.18361 0.45158 0.25151 0.0
C1776 C 0.17161 0.45717 0.26095 0.0
C1777 C 0.18941 0.43655 0.25393 0.0
C1778 C 0.18336 0.42666 0.2658 0.0
C1779 C 0.17081 0.43183 0.27476 0.0
C1780 C 0.16503 0.44699 0.27241 0.0
C1781 C 0.19099 0.41143 0.26921 0.0
C1782 C 0.19282 0.4009 0.25659 0.0
C1783 C 0.19772 0.40789 0.28445 0.0
C1784 C 0.19703 0.41885 0.29812 0.0
C1785 C 0.1896 0.41373 0.31193 0.0
C1786 C 0.18889 0.42406 0.32484 0.0
C1787 C 0.19567 0.43951 0.32409 0.0
C1788 C 0.20324 0.44464 0.31046 0.0
C1789 C 0.204 0.43435 0.29754 0.0
H1790 H 0.1951 0.44749 0.33409 0.0
H1791 H 0.21171 0.35229 0.2071 0.0
H1792 H 0.10951 0.04957 0.50175 0.0
H1793 H 0.1334 0.06754 0.50521 0.0
H1794 H 0.16043 0.03556 0.47832 0.0
H1795 H 0.13646 0.01749 0.47475 0.0
H1796 H 0.17678 0.0479 0.50728 0.0
H1797 H 0.14937 0.06602 0.45999 0.0
H1798 H 0.12601 0.07443 0.4437 0.0
H1799 H 0.12086 0.1134 0.47557 0.0
H1800 H 0.14406 0.10507 0.4922 0.0
H1801 H 0.24234 0.10571 0.50102 0.0
H1802 H 0.22122 0.08487 0.49572 0.0
H1803 H 0.18583 0.11602 0.51184 0.0
H1804 H 0.20669 0.13698 0.51656 0.0
H1805 H 0.17487 0.1025 0.48594 0.0
H1806 H 0.2006 0.08374 0.53434 0.0
H1807 H 0.22344 0.07534 0.55142 0.0
H1808 H 0.23132 0.03787 0.5186 0.0
H1809 H 0.20863 0.04618 0.50123 0.0
C1810 C 0.12057 0.0463 0.49668 0.0
C1811 C 0.12114 0.03215 0.48797 0.0
C1812 C 0.13418 0.0566 0.49861 0.0
C1813 C 0.14863 0.05289 0.49196 0.0
C1814 C 0.14937 0.03861 0.48353 0.0
C1815 C 0.13568 0.02838 0.48142 0.0
C1816 C 0.1628 0.0642 0.49357 0.0
C1817 C 0.17651 0.05977 0.50243 0.0
C1818 C 0.16228 0.07973 0.48744 0.0
C1819 C 0.14837 0.08483 0.47742 0.0
C1820 C 0.14318 0.0763 0.4636 0.0
C1821 C 0.12998 0.08107 0.4543 0.0
C1822 C 0.12193 0.09442 0.45862 0.0
C1823 C 0.1271 0.10305 0.47225 0.0
C1824 C 0.14028 0.09832 0.48161 0.0
C1825 C 0.23006 0.10806 0.50351 0.0
C1826 C 0.22619 0.12302 0.50916 0.0
C1827 C 0.218 0.09612 0.50053 0.0
C1828 C 0.2019 0.0988 0.50349 0.0
C1829 C 0.19812 0.11366 0.50937 0.0
C1830 C 0.21009 0.12564 0.51211 0.0
C1831 C 0.18882 0.08643 0.50007 0.0
C1832 C 0.17527 0.09063 0.49078 0.0
C1833 C 0.18947 0.07075 0.50593 0.0
C1834 C 0.20304 0.06569 0.51641 0.0
C1835 C 0.20728 0.07378 0.53072 0.0
C1836 C 0.22018 0.06903 0.54046 0.0
C1837 C 0.22885 0.05611 0.53608 0.0
C1838 C 0.2246 0.04789 0.52197 0.0
C1839 C 0.21172 0.05261 0.51218 0.0
H1840 H 0.23884 0.05245 0.54363 0.0
H1841 H 0.11171 0.0981 0.4514 0.0
H1842 H 0.76268 0.14158 0.7209 0.0
H1843 H 0.74297 0.11964 0.72423 0.0
H1844 H 0.7123 0.15105 0.74761 0.0
H1845 H 0.73231 0.17297 0.7449 0.0
H1846 H 0.71432 0.12424 0.76347 0.0
H1847 H 0.70311 0.1378 0.70947 0.0
H1848 H 0.7091 0.14393 0.68175 0.0
H1849 H 0.72672 0.09745 0.67597 0.0
H1850 H 0.72105 0.09112 0.70374 0.0
H1851 H 0.65093 0.06471 0.76443 0.0
H1852 H 0.66532 0.08948 0.75735 0.0
H1853 H 0.70221 0.06289 0.73714 0.0
H1854 H 0.688 0.03814 0.74421 0.0
H1855 H 0.69428 0.08893 0.7189 0.0
H1856 H 0.70788 0.07685 0.77386 0.0
H1857 H 0.70174 0.07089 0.80158 0.0
H1858 H 0.67903 0.11518 0.80524 0.0
H1859 H 0.68485 0.12131 0.77744 0.0
C1860 C 0.7518 0.14382 0.72685 0.0
C1861 C 0.74911 0.15904 0.73266 0.0
C1862 C 0.74043 0.1313 0.72856 0.0
C1863 C 0.72604 0.13374 0.73596 0.0
C1864 C 0.72328 0.14891 0.74177 0.0
C1865 C 0.73468 0.16145 0.74011 0.0
C1866 C 0.71421 0.12027 0.73821 0.0
C1867 C 0.70969 0.11672 0.75366 0.0
C1868 C 0.70835 0.11029 0.72546 0.0
C1869 C 0.71176 0.11403 0.70874 0.0
C1870 C 0.70837 0.12893 0.70233 0.0
C1871 C 0.71169 0.13243 0.6866 0.0
C1872 C 0.71832 0.1211 0.67712 0.0
C1873 C 0.7216 0.10622 0.68334 0.0
C1874 C 0.71832 0.10266 0.69907 0.0
C1875 C 0.66199 0.06412 0.75828 0.0
C1876 C 0.66834 0.04943 0.75492 0.0
C1877 C 0.67021 0.07829 0.75429 0.0
C1878 C 0.6849 0.07801 0.74686 0.0
C1879 C 0.69088 0.06337 0.74285 0.0
C1880 C 0.68273 0.04922 0.74691 0.0
C1881 C 0.69461 0.09286 0.74414 0.0
C1882 C 0.69875 0.09662 0.72863 0.0
C1883 C 0.70007 0.10309 0.75681 0.0
C1884 C 0.69663 0.09945 0.77353 0.0
C1885 C 0.70146 0.08525 0.78054 0.0
C1886 C 0.69806 0.08186 0.79627 0.0
C1887 C 0.68996 0.09263 0.80515 0.0
C1888 C 0.68528 0.10684 0.79834 0.0
C1889 C 0.68863 0.11028 0.7826 0.0
H1890 H 0.68734 0.08998 0.81733 0.0
H1891 H 0.72087 0.12383 0.66494 0.0
H1892 H 0.41887 0.03563 0.51778 0.0
H1893 H 0.39566 0.05173 0.51303 0.0
H1894 H 0.36933 0.02376 0.54675 0.0
H1895 H 0.3923 0.00712 0.55107 0.0
H1896 H 0.35044 0.02977 0.52109 0.0
H1897 H 0.3863 0.06036 0.55677 0.0
H1898 H 0.4121 0.07354 0.56617 0.0
H1899 H 0.41174 0.10317 0.52488 0.0
H1900 H 0.38603 0.09001 0.51512 0.0
H1901 H 0.29119 0.08565 0.53603 0.0
H1902 H 0.31254 0.06685 0.53716 0.0
H1903 H 0.3378 0.09401 0.50208 0.0
H1904 H 0.31656 0.11294 0.50094 0.0
H1905 H 0.35705 0.08816 0.5279 0.0
H1906 H 0.32022 0.05785 0.49287 0.0
H1907 H 0.29416 0.04474 0.48418 0.0
H1908 H 0.29594 0.01471 0.52515 0.0
H1909 H 0.32191 0.0278 0.53421 0.0
C1910 C 0.40809 0.03275 0.52406 0.0
C1911 C 0.40749 0.02008 0.53485 0.0
C1912 C 0.39487 0.04208 0.52144 0.0
C1913 C 0.38082 0.03909 0.52969 0.0
C1914 C 0.38006 0.02632 0.54029 0.0
C1915 C 0.39327 0.01693 0.54287 0.0
C1916 C 0.36701 0.04944 0.52739 0.0
C1917 C 0.35183 0.04252 0.52277 0.0
C1918 C 0.36889 0.06611 0.52927 0.0
C1919 C 0.38432 0.07409 0.53514 0.0
C1920 C 0.39179 0.0696 0.54963 0.0
C1921 C 0.40638 0.07708 0.55503 0.0
C1922 C 0.41358 0.08916 0.5461 0.0
C1923 C 0.40617 0.0938 0.53177 0.0
C1924 C 0.39158 0.08634 0.52631 0.0
C1925 C 0.30116 0.08751 0.52837 0.0
C1926 C 0.3022 0.10086 0.51846 0.0
C1927 C 0.31334 0.07671 0.529 0.0
C1928 C 0.32676 0.07901 0.51969 0.0
C1929 C 0.32756 0.09202 0.50939 0.0
C1930 C 0.31537 0.1028 0.50872 0.0
C1931 C 0.34047 0.06852 0.52152 0.0
C1932 C 0.35565 0.07542 0.52614 0.0
C1933 C 0.33854 0.05184 0.51973 0.0
C1934 C 0.32295 0.04391 0.51429 0.0
C1935 C 0.31499 0.04854 0.5001 0.0
C1936 C 0.30025 0.0411 0.49509 0.0
C1937 C 0.29338 0.02893 0.50413 0.0
C1938 C 0.30126 0.02415 0.51817 0.0
C1939 C 0.31601 0.03157 0.52324 0.0
H1940 H 0.28196 0.02318 0.50024 0.0
H1941 H 0.42488 0.09493 0.55031 0.0
H1942 H 0.60639 0.48887 0.48705 0.0
H1943 H 0.62989 0.473 0.48424 0.0
H1944 H 0.61556 0.44398 0.52364 0.0
H1945 H 0.59209 0.4597 0.52646 0.0
H1946 H 0.64687 0.45292 0.52661 0.0
H1947 H 0.6101 0.43099 0.48507 0.0
H1948 H 0.59245 0.43224 0.46084 0.0
H1949 H 0.63232 0.45017 0.43467 0.0
H1950 H 0.65018 0.44922 0.45882 0.0
H1951 H 0.6851 0.382 0.52222 0.0
H1952 H 0.66548 0.40233 0.52058 0.0
H1953 H 0.69159 0.42599 0.48381 0.0
H1954 H 0.71153 0.40547 0.48538 0.0
H1955 H 0.65763 0.42342 0.4776 0.0
H1956 H 0.69505 0.44215 0.51869 0.0
H1957 H 0.71256 0.44034 0.54295 0.0
H1958 H 0.67142 0.42834 0.57004 0.0
H1959 H 0.65368 0.42984 0.54589 0.0
C1960 C 0.60816 0.47899 0.49499 0.0
C1961 C 0.59739 0.47557 0.50701 0.0
C1962 C 0.62161 0.46996 0.49339 0.0
C1963 C 0.62446 0.45728 0.50371 0.0
C1964 C 0.61366 0.45378 0.51561 0.0
C1965 C 0.60026 0.4628 0.51723 0.0
C1966 C 0.6388 0.44772 0.50243 0.0
C1967 C 0.64916 0.44641 0.51592 0.0
C1968 C 0.64214 0.43968 0.4883 0.0
C1969 C 0.63142 0.44021 0.47378 0.0
C1970 C 0.61507 0.43532 0.47418 0.0
C1971 C 0.60504 0.43595 0.46045 0.0
C1972 C 0.61125 0.44133 0.44623 0.0
C1973 C 0.62752 0.44604 0.4457 0.0
C1974 C 0.6376 0.44545 0.4594 0.0
C1975 C 0.68674 0.39147 0.51374 0.0
C1976 C 0.69995 0.39215 0.50398 0.0
C1977 C 0.6755 0.40313 0.51286 0.0
C1978 C 0.6772 0.41576 0.50223 0.0
C1979 C 0.69013 0.41635 0.49215 0.0
C1980 C 0.70151 0.40466 0.49309 0.0
C1981 C 0.66533 0.42826 0.50194 0.0
C1982 C 0.65548 0.43016 0.48819 0.0
C1983 C 0.66242 0.43686 0.51584 0.0
C1984 C 0.67304 0.43601 0.53044 0.0
C1985 C 0.68974 0.43901 0.5298 0.0
C1986 C 0.69971 0.43806 0.54353 0.0
C1987 C 0.69311 0.4342 0.55802 0.0
C1988 C 0.67652 0.43132 0.55881 0.0
C1989 C 0.6665 0.43224 0.5451 0.0
H1990 H 0.70084 0.43347 0.56865 0.0
H1991 H 0.60346 0.44181 0.43562 0.0
H1992 H 0.69931 0.27804 0.33869 0.0
H1993 H 0.70411 0.29501 0.36222 0.0
H1994 H 0.74589 0.26922 0.3759 0.0
H1995 H 0.74124 0.25232 0.35244 0.0
H1996 H 0.727 0.27245 0.40029 0.0
H1997 H 0.74926 0.30653 0.36028 0.0
H1998 H 0.74881 0.32148 0.33521 0.0
H1999 H 0.71056 0.34872 0.35123 0.0
H2000 H 0.71063 0.33377 0.37633 0.0
H2001 H 0.76714 0.3193 0.45885 0.0
H2002 H 0.76045 0.30701 0.43309 0.0
H2003 H 0.71805 0.33406 0.42793 0.0
H2004 H 0.72469 0.34661 0.45387 0.0
H2005 H 0.73445 0.33113 0.39938 0.0
H2006 H 0.71311 0.29778 0.43989 0.0
H2007 H 0.71391 0.28303 0.46507 0.0
H2008 H 0.75053 0.25434 0.44794 0.0
H2009 H 0.75012 0.2691 0.42273 0.0
C2010 C 0.70963 0.27612 0.34662 0.0
C2011 C 0.71985 0.26377 0.34374 0.0
C2012 C 0.71235 0.28582 0.36006 0.0
C2013 C 0.72539 0.28343 0.37078 0.0
C2014 C 0.7357 0.27123 0.36783 0.0
C2015 C 0.73298 0.26154 0.35445 0.0
C2016 C 0.72808 0.29315 0.38544 0.0
C2017 C 0.72878 0.28526 0.40005 0.0
C2018 C 0.72988 0.30992 0.38518 0.0
C2019 C 0.72982 0.31891 0.3701 0.0
C2020 C 0.74065 0.31561 0.3584 0.0
C2021 C 0.74049 0.3241 0.34419 0.0
C2022 C 0.72963 0.336 0.3416 0.0
C2023 C 0.71895 0.33947 0.35324 0.0
C2024 C 0.71905 0.331 0.36746 0.0
C2025 C 0.75646 0.32281 0.45223 0.0
C2026 C 0.74633 0.3338 0.45856 0.0
C2027 C 0.75266 0.31575 0.43749 0.0
C2028 C 0.73862 0.31943 0.42875 0.0
C2029 C 0.7289 0.33102 0.43456 0.0
C2030 C 0.73271 0.33814 0.44938 0.0
C2031 C 0.73375 0.31035 0.4141 0.0
C2032 C 0.73255 0.31833 0.39956 0.0
C2033 C 0.73147 0.29363 0.41437 0.0
C2034 C 0.73167 0.28463 0.42947 0.0
C2035 C 0.72141 0.28841 0.44154 0.0
C2036 C 0.72179 0.28003 0.45581 0.0
C2037 C 0.73229 0.26778 0.45811 0.0
C2038 C 0.74241 0.26385 0.44614 0.0
C2039 C 0.7421 0.2722 0.43185 0.0
H2040 H 0.73256 0.2613 0.46917 0.0
H2041 H 0.72953 0.34257 0.3306 0.0
H2042 H 0.50304 0.99028 0.88639 0.0
H2043 H 0.52205 0.98737 0.86543 0.0
H2044 H 0.54912 0.02941 0.88253 0.0
H2045 H 0.53028 0.03236 0.90343 0.0
H2046 H 0.54477 0.03001 0.85105 0.0
H2047 H 0.56173 0.99192 0.8903 0.0
H2048 H 0.55809 0.96871 0.90769 0.0
H2049 H 0.54553 0.93911 0.86703 0.0
H2050 H 0.5489 0.96221 0.84941 0.0
H2051 H 0.62165 0.02686 0.82285 0.0
H2052 H 0.59871 0.02537 0.83964 0.0
H2053 H 0.57753 0.98606 0.81182 0.0
H2054 H 0.60065 0.98747 0.79475 0.0
H2055 H 0.57593 0.98197 0.84532 0.0
H2056 H 0.56222 0.02006 0.80592 0.0
H2057 H 0.5667 0.04344 0.78895 0.0
H2058 H 0.57363 0.07326 0.83029 0.0
H2059 H 0.56943 0.05002 0.84753 0.0
C2060 C 0.51311 0.99883 0.88573 0.0
C2061 C 0.51511 0.01159 0.89655 0.0
C2062 C 0.52395 0.99716 0.87374 0.0
C2063 C 0.53706 0.00813 0.87245 0.0
C2064 C 0.53904 0.02086 0.88323 0.0
C2065 C 0.52822 0.02256 0.89515 0.0
C2066 C 0.54877 0.00656 0.85989 0.0
C2067 C 0.55163 0.01953 0.84986 0.0
C2068 C 0.55737 0.9927 0.85798 0.0
C2069 C 0.55537 0.97882 0.86856 0.0
C2070 C 0.55806 0.98049 0.88508 0.0
C2071 C 0.55607 0.96735 0.89498 0.0
C2072 C 0.55153 0.95246 0.88847 0.0
C2073 C 0.54901 0.95066 0.87205 0.0
C2074 C 0.55097 0.96377 0.86211 0.0
C2075 C 0.61218 0.01784 0.82026 0.0
C2076 C 0.61295 0.00733 0.80738 0.0
C2077 C 0.59903 0.01704 0.82987 0.0
C2078 C 0.58634 0.00574 0.82685 0.0
C2079 C 0.5872 0.99491 0.81429 0.0
C2080 C 0.60037 0.99576 0.80455 0.0
C2081 C 0.5722 0.00559 0.83685 0.0
C2082 C 0.56886 0.99233 0.84635 0.0
C2083 C 0.56317 0.01921 0.83834 0.0
C2084 C 0.56561 0.03326 0.82802 0.0
C2085 C 0.56481 0.03158 0.8114 0.0
C2086 C 0.56729 0.04481 0.80173 0.0
C2087 C 0.57048 0.05982 0.80854 0.0
C2088 C 0.57117 0.06163 0.82503 0.0
C2089 C 0.56872 0.04843 0.83476 0.0
H2090 H 0.57239 0.07005 0.80103 0.0
H2091 H 0.55 0.9423 0.89615 0.0
H2092 H 0.30575 0.24432 0.36596 0.0
H2093 H 0.30222 0.227 0.38878 0.0
H2094 H 0.27551 0.19243 0.35877 0.0
H2095 H 0.27871 0.20997 0.33593 0.0
H2096 H 0.26046 0.19573 0.38414 0.0
H2097 H 0.31438 0.18606 0.37437 0.0
H2098 H 0.34276 0.19233 0.3689 0.0
H2099 H 0.3499 0.21651 0.41373 0.0
H2100 H 0.32149 0.21059 0.41939 0.0
H2101 H 0.28716 0.15098 0.46271 0.0
H2102 H 0.29194 0.15859 0.43525 0.0
H2103 H 0.25863 0.19578 0.43854 0.0
H2104 H 0.25349 0.18808 0.46561 0.0
H2105 H 0.30451 0.18473 0.4236 0.0
H2106 H 0.23979 0.20298 0.40422 0.0
H2107 H 0.21173 0.19394 0.40837 0.0
H2108 H 0.22682 0.14714 0.41915 0.0
H2109 H 0.25493 0.15583 0.41483 0.0
C2110 C 0.29932 0.23293 0.36419 0.0
C2111 C 0.29253 0.22848 0.34917 0.0
C2112 C 0.29735 0.223 0.37723 0.0
C2113 C 0.2888 0.20827 0.37549 0.0
C2114 C 0.28217 0.20371 0.36043 0.0
C2115 C 0.28398 0.21374 0.3474 0.0
C2116 C 0.28599 0.19816 0.38959 0.0
C2117 C 0.27012 0.19321 0.3927 0.0
C2118 C 0.29862 0.19439 0.40055 0.0
C2119 C 0.31576 0.19795 0.39726 0.0
C2120 C 0.32197 0.19281 0.38302 0.0
C2121 C 0.33807 0.19629 0.37989 0.0
C2122 C 0.34812 0.20484 0.39095 0.0
C2123 C 0.3421 0.20989 0.40518 0.0
C2124 C 0.326 0.20646 0.40836 0.0
C2125 C 0.28072 0.16066 0.45751 0.0
C2126 C 0.2699 0.16888 0.46639 0.0
C2127 C 0.2835 0.16502 0.44183 0.0
C2128 C 0.27549 0.17763 0.43474 0.0
C2129 C 0.26467 0.18577 0.44358 0.0
C2130 C 0.26182 0.18139 0.45916 0.0
C2131 C 0.27893 0.18296 0.41842 0.0
C2132 C 0.2949 0.18701 0.41491 0.0
C2133 C 0.26644 0.18548 0.40687 0.0
C2134 C 0.2495 0.18011 0.40929 0.0
C2135 C 0.23712 0.19074 0.40738 0.0
C2136 C 0.2212 0.18568 0.40979 0.0
C2137 C 0.2175 0.16999 0.41406 0.0
C2138 C 0.2297 0.15931 0.41589 0.0
C2139 C 0.24564 0.1643 0.41348 0.0
H2140 H 0.20517 0.1661 0.41593 0.0
H2141 H 0.36059 0.20752 0.3885 0.0
H2142 H 0.50774 0.48285 0.89349 0.0
H2143 H 0.49129 0.48753 0.86941 0.0
H2144 H 0.46205 0.51813 0.89556 0.0
H2145 H 0.4785 0.51339 0.91983 0.0
H2146 H 0.44365 0.49933 0.87503 0.0
H2147 H 0.49003 0.5342 0.872 0.0
H2148 H 0.51896 0.54203 0.87318 0.0
H2149 H 0.52622 0.51023 0.83466 0.0
H2150 H 0.49737 0.50202 0.8334 0.0
H2151 H 0.41151 0.52797 0.79874 0.0
H2152 H 0.42344 0.52679 0.82591 0.0
H2153 H 0.45588 0.4922 0.81082 0.0
H2154 H 0.44419 0.49319 0.78395 0.0
H2155 H 0.47138 0.51742 0.82709 0.0
H2156 H 0.42496 0.48101 0.83228 0.0
H2157 H 0.39593 0.47365 0.83133 0.0
H2158 H 0.3886 0.50974 0.86583 0.0
H2159 H 0.41758 0.51746 0.86682 0.0
C2160 C 0.49786 0.49063 0.89412 0.0
C2161 C 0.49454 0.49789 0.90852 0.0
C2162 C 0.48845 0.49329 0.88035 0.0
C2163 C 0.47561 0.50342 0.88061 0.0
C2164 C 0.47193 0.51032 0.89507 0.0
C2165 C 0.48132 0.50759 0.90892 0.0
C2166 C 0.46635 0.50692 0.86565 0.0
C2167 C 0.44966 0.50356 0.86462 0.0
C2168 C 0.47418 0.51243 0.85205 0.0
C2169 C 0.49154 0.51741 0.85268 0.0
C2170 C 0.49781 0.52879 0.86385 0.0
C2171 C 0.51419 0.53331 0.86452 0.0
C2172 C 0.52442 0.52661 0.85402 0.0
C2173 C 0.51828 0.5154 0.84279 0.0
C2174 C 0.50191 0.51083 0.84208 0.0
C2175 C 0.42107 0.52 0.80126 0.0
C2176 C 0.42694 0.51076 0.78909 0.0
C2177 C 0.42785 0.51934 0.81678 0.0
C2178 C 0.4406 0.50946 0.82033 0.0
C2179 C 0.44614 0.49998 0.80831 0.0
C2180 C 0.43938 0.50056 0.79292 0.0
C2181 C 0.44881 0.50929 0.83632 0.0
C2182 C 0.46534 0.51339 0.83756 0.0
C2183 C 0.44079 0.50459 0.85007 0.0
C2184 C 0.42339 0.49995 0.84947 0.0
C2185 C 0.41713 0.48748 0.83955 0.0
C2186 C 0.40069 0.48322 0.83902 0.0
C2187 C 0.39042 0.49126 0.84847 0.0
C2188 C 0.39657 0.50355 0.85849 0.0
C2189 C 0.413 0.50787 0.85905 0.0
H2190 H 0.37769 0.48794 0.84805 0.0
H2191 H 0.5371 0.53012 0.85456 0.0
H2192 H 0.72092 0.73457 0.16493 0.0
H2193 H 0.72473 0.71447 0.14443 0.0
H2194 H 0.74628 0.75054 0.11499 0.0
H2195 H 0.74293 0.77053 0.13559 0.0
H2196 H 0.71962 0.72729 0.10038 0.0
H2197 H 0.77103 0.73122 0.13131 0.0
H2198 H 0.7874 0.73004 0.15638 0.0
H2199 H 0.76945 0.68215 0.16356 0.0
H2200 H 0.75277 0.68315 0.13862 0.0
H2201 H 0.75956 0.69253 0.03954 0.0
H2202 H 0.75035 0.70781 0.06151 0.0
H2203 H 0.75065 0.66616 0.09109 0.0
H2204 H 0.76072 0.65094 0.06919 0.0
H2205 H 0.76292 0.68937 0.10747 0.0
H2206 H 0.71462 0.6828 0.07595 0.0
H2207 H 0.69676 0.68256 0.05178 0.0
H2208 H 0.70568 0.73279 0.04678 0.0
H2209 H 0.72379 0.73331 0.07079 0.0
C2210 C 0.72642 0.73815 0.15404 0.0
C2211 C 0.73169 0.75402 0.15178 0.0
C2212 C 0.72859 0.72672 0.14241 0.0
C2213 C 0.73576 0.73109 0.12826 0.0
C2214 C 0.7407 0.74699 0.12584 0.0
C2215 C 0.73885 0.75834 0.1376 0.0
C2216 C 0.73851 0.71909 0.11604 0.0
C2217 C 0.72911 0.71902 0.10182 0.0
C2218 C 0.75044 0.70793 0.1183 0.0
C2219 C 0.7605 0.70733 0.13323 0.0
C2220 C 0.77044 0.7205 0.13833 0.0
C2221 C 0.77981 0.71985 0.15249 0.0
C2222 C 0.77942 0.70605 0.16159 0.0
C2223 C 0.76971 0.69285 0.15652 0.0
C2224 C 0.7603 0.69345 0.14237 0.0
C2225 C 0.7575 0.68656 0.05066 0.0
C2226 C 0.76079 0.67052 0.05263 0.0
C2227 C 0.75212 0.6953 0.06322 0.0
C2228 C 0.74944 0.6881 0.07792 0.0
C2229 C 0.75255 0.67199 0.07986 0.0
C2230 C 0.75826 0.66329 0.06734 0.0
C2231 C 0.74429 0.69773 0.0914 0.0
C2232 C 0.75321 0.69739 0.10596 0.0
C2233 C 0.73163 0.70827 0.08955 0.0
C2234 C 0.72066 0.70807 0.07514 0.0
C2235 C 0.71286 0.69379 0.06965 0.0
C2236 C 0.70268 0.6936 0.05598 0.0
C2237 C 0.70011 0.70765 0.04774 0.0
C2238 C 0.70769 0.72192 0.05318 0.0
C2239 C 0.71789 0.72217 0.06683 0.0
H2240 H 0.69223 0.70748 0.03715 0.0
H2241 H 0.78669 0.70557 0.17255 0.0
H2242 H 0.96473 0.0098 0.07532 0.0
H2243 H 0.94821 0.00932 0.0987 0.0
H2244 H 0.99083 0.01853 0.129 0.0
H2245 H 0.00731 0.01939 0.10566 0.0
H2246 H 0.96715 0.9928 0.13894 0.0
H2247 H 0.97158 0.04801 0.1218 0.0
H2248 H 0.96854 0.06919 0.10198 0.0
H2249 H 0.91801 0.05683 0.0961 0.0
H2250 H 0.92081 0.0354 0.11573 0.0
H2251 H 0.94348 0.01934 0.21246 0.0
H2252 H 0.9554 0.01482 0.18716 0.0
H2253 H 0.91006 0.02312 0.16245 0.0
H2254 H 0.89826 0.02842 0.18786 0.0
H2255 H 0.93223 0.03757 0.14766 0.0
H2256 H 0.92581 0.98487 0.16617 0.0
H2257 H 0.92738 0.96265 0.18498 0.0
H2258 H 0.97892 0.96794 0.1869 0.0
H2259 H 0.97767 0.99035 0.16827 0.0
C2260 C 0.97053 0.01158 0.087 0.0
C2261 C 0.98724 0.01467 0.08876 0.0
C2262 C 0.96112 0.01133 0.10029 0.0
C2263 C 0.96835 0.01389 0.11551 0.0
C2264 C 0.98508 0.01649 0.11733 0.0
C2265 C 0.99444 0.01705 0.10403 0.0
C2266 C 0.95846 0.01458 0.12956 0.0
C2267 C 0.95956 0.0026 0.14096 0.0
C2268 C 0.94812 0.02706 0.13179 0.0
C2269 C 0.94644 0.03999 0.12007 0.0
C2270 C 0.95986 0.04971 0.11616 0.0
C2271 C 0.95817 0.06178 0.10499 0.0
C2272 C 0.9431 0.06432 0.09774 0.0
C2273 C 0.92968 0.05483 0.10169 0.0
C2274 C 0.93131 0.04272 0.11284 0.0
C2275 C 0.93599 0.02006 0.20165 0.0
C2276 C 0.91992 0.02418 0.20214 0.0
C2277 C 0.9428 0.01737 0.18716 0.0
C2278 C 0.93357 0.01829 0.17284 0.0
C2279 C 0.91744 0.02228 0.17332 0.0
C2280 C 0.91069 0.02527 0.18784 0.0
C2281 C 0.94109 0.01591 0.15742 0.0
C2282 C 0.93957 0.02758 0.14568 0.0
C2283 C 0.95079 0.00293 0.15474 0.0
C2284 C 0.95163 0.98938 0.16589 0.0
C2285 C 0.93748 0.98137 0.17068 0.0
C2286 C 0.93831 0.96873 0.1813 0.0
C2287 C 0.95324 0.9639 0.18715 0.0
C2288 C 0.96736 0.97169 0.18236 0.0
C2289 C 0.9666 0.98435 0.17175 0.0
H2290 H 0.95386 0.95412 0.19537 0.0
H2291 H 0.94182 0.07368 0.0891 0.0
H2292 H 0.28186 0.79352 0.17226 0.0
H2293 H 0.27615 0.81099 0.14985 0.0
H2294 H 0.29479 0.77713 0.118 0.0
H2295 H 0.30117 0.75994 0.1404 0.0
H2296 H 0.30439 0.80653 0.11025 0.0
H2297 H 0.25418 0.77943 0.12252 0.0
H2298 H 0.23226 0.77104 0.13973 0.0
H2299 H 0.22241 0.81974 0.14796 0.0
H2300 H 0.24443 0.82842 0.13095 0.0
H2301 H 0.26534 0.82216 0.03633 0.0
H2302 H 0.27523 0.81125 0.06143 0.0
H2303 H 0.25726 0.85066 0.08661 0.0
H2304 H 0.24736 0.86179 0.0614 0.0
H2305 H 0.24827 0.82183 0.09935 0.0
H2306 H 0.29681 0.84851 0.08397 0.0
H2307 H 0.31819 0.85617 0.06588 0.0
H2308 H 0.33082 0.80763 0.06271 0.0
H2309 H 0.30935 0.79964 0.08059 0.0
C2310 C 0.28497 0.7899 0.16052 0.0
C2311 C 0.29186 0.77527 0.15811 0.0
C2312 C 0.28156 0.79983 0.1477 0.0
C2313 C 0.28484 0.79526 0.13222 0.0
C2314 C 0.29211 0.78088 0.12984 0.0
C2315 C 0.29559 0.77098 0.14264 0.0
C2316 C 0.28027 0.80516 0.11838 0.0
C2317 C 0.2921 0.8098 0.10781 0.0
C2318 C 0.26431 0.80977 0.11542 0.0
C2319 C 0.25107 0.80457 0.12562 0.0
C2320 C 0.24742 0.78835 0.12811 0.0
C2321 C 0.23496 0.78354 0.13781 0.0
C2322 C 0.22598 0.79485 0.14498 0.0
C2323 C 0.2294 0.81099 0.14243 0.0
C2324 C 0.24186 0.81586 0.13275 0.0
C2325 C 0.26371 0.82869 0.04714 0.0
C2326 C 0.25567 0.84293 0.04683 0.0
C2327 C 0.26939 0.82242 0.0615 0.0
C2328 C 0.26713 0.83023 0.07586 0.0
C2329 C 0.25918 0.84449 0.07563 0.0
C2330 C 0.25357 0.85084 0.06123 0.0
C2331 C 0.27233 0.82295 0.09109 0.0
C2332 C 0.26061 0.81879 0.10192 0.0
C2333 C 0.28836 0.81869 0.09422 0.0
C2334 C 0.30139 0.82346 0.08355 0.0
C2335 C 0.30407 0.83945 0.07933 0.0
C2336 C 0.31622 0.84386 0.06912 0.0
C2337 C 0.32584 0.83239 0.06313 0.0
C2338 C 0.32336 0.8165 0.06736 0.0
C2339 C 0.31121 0.81203 0.07755 0.0
H2340 H 0.33524 0.83583 0.05522 0.0
H2341 H 0.21634 0.79111 0.15248 0.0
H2342 H 0.04971 0.49612 0.10482 0.0
H2343 H 0.06816 0.49889 0.12812 0.0
H2344 H 0.03211 0.47707 0.1571 0.0
H2345 H 0.0136 0.4739 0.13372 0.0
H2346 H 0.04814 0.50384 0.17141 0.0
H2347 H 0.06134 0.45545 0.14659 0.0
H2348 H 0.06816 0.43839 0.12438 0.0
H2349 H 0.11105 0.46753 0.11792 0.0
H2350 H 0.10435 0.48491 0.13996 0.0
H2351 H 0.10531 0.4934 0.23659 0.0
H2352 H 0.08394 0.48938 0.2158 0.0
H2353 H 0.11697 0.50501 0.18055 0.0
H2354 H 0.13839 0.50866 0.20109 0.0
H2355 H 0.10088 0.47926 0.17063 0.0
H2356 H 0.08704 0.52864 0.19407 0.0
H2357 H 0.08022 0.5462 0.2159 0.0
H2358 H 0.03879 0.51579 0.22472 0.0
H2359 H 0.04548 0.49793 0.20306 0.0
C2360 C 0.04571 0.49176 0.1161 0.0
C2361 C 0.0302 0.48463 0.11733 0.0
C2362 C 0.05626 0.49343 0.12943 0.0
C2363 C 0.05156 0.48802 0.1443 0.0
C2364 C 0.03596 0.48132 0.14572 0.0
C2365 C 0.02539 0.47957 0.13235 0.0
C2366 C 0.06315 0.48913 0.15822 0.0
C2367 C 0.05958 0.49828 0.17138 0.0
C2368 C 0.07815 0.48205 0.15805 0.0
C2369 C 0.08227 0.47156 0.14485 0.0
C2370 C 0.07216 0.45829 0.14036 0.0
C2371 C 0.07601 0.44855 0.12781 0.0
C2372 C 0.09001 0.45189 0.11972 0.0
C2373 C 0.1002 0.46496 0.12419 0.0
C2374 C 0.09639 0.47475 0.13672 0.0
C2375 C 0.10799 0.49606 0.22442 0.0
C2376 C 0.12359 0.50132 0.22052 0.0
C2377 C 0.09574 0.49381 0.21255 0.0
C2378 C 0.0988 0.49699 0.1966 0.0
C2379 C 0.11432 0.5024 0.19275 0.0
C2380 C 0.12656 0.50452 0.20454 0.0
C2381 C 0.08609 0.49433 0.18374 0.0
C2382 C 0.08942 0.48479 0.17076 0.0
C2383 C 0.07092 0.50112 0.18408 0.0
C2384 C 0.06686 0.51186 0.19707 0.0
C2385 C 0.07655 0.52563 0.20075 0.0
C2386 C 0.07269 0.53565 0.21308 0.0
C2387 C 0.05911 0.53209 0.22172 0.0
C2388 C 0.04932 0.51852 0.21803 0.0
C2389 C 0.05314 0.50846 0.20573 0.0
H2390 H 0.05614 0.53986 0.23126 0.0
H2391 H 0.09297 0.44434 0.11001 0.0
H2392 H 0.39322 0.72203 0.25856 0.0
H2393 H 0.41747 0.72651 0.27588 0.0
H2394 H 0.38999 0.75093 0.30953 0.0
H2395 H 0.36589 0.74687 0.29205 0.0
H2396 H 0.41728 0.76642 0.30678 0.0
H2397 H 0.40127 0.71155 0.31456 0.0
H2398 H 0.39412 0.6839 0.30643 0.0
H2399 H 0.44058 0.68015 0.28732 0.0
H2400 H 0.44794 0.70786 0.29516 0.0
H2401 H 0.46144 0.75583 0.37953 0.0
H2402 H 0.44169 0.7537 0.35719 0.0
H2403 H 0.47913 0.7437 0.32569 0.0
H2404 H 0.49918 0.74617 0.34805 0.0
H2405 H 0.44974 0.72162 0.32477 0.0
H2406 H 0.46608 0.77667 0.32062 0.0
H2407 H 0.47234 0.80382 0.33073 0.0
H2408 H 0.4239 0.80656 0.34523 0.0
H2409 H 0.41742 0.77931 0.33543 0.0
C2410 C 0.39239 0.72831 0.26969 0.0
C2411 C 0.37768 0.73407 0.274 0.0
C2412 C 0.40623 0.73084 0.27959 0.0
C2413 C 0.40555 0.7389 0.29413 0.0
C2414 C 0.39086 0.74474 0.29836 0.0
C2415 C 0.37709 0.7424 0.28838 0.0
C2416 C 0.42003 0.74123 0.30503 0.0
C2417 C 0.42429 0.75659 0.31077 0.0
C2418 C 0.42947 0.72848 0.30999 0.0
C2419 C 0.42508 0.71183 0.30527 0.0
C2420 C 0.40991 0.70487 0.30851 0.0
C2421 C 0.40583 0.68918 0.30397 0.0
C2422 C 0.41687 0.68029 0.29632 0.0
C2423 C 0.43203 0.68706 0.29322 0.0
C2424 C 0.43617 0.70275 0.29771 0.0
C2425 C 0.46552 0.75326 0.36785 0.0
C2426 C 0.48186 0.75114 0.36554 0.0
C2427 C 0.45422 0.75209 0.3551 0.0
C2428 C 0.45899 0.74858 0.33984 0.0
C2429 C 0.47527 0.74645 0.33741 0.0
C2430 C 0.48668 0.74793 0.35015 0.0
C2431 C 0.4467 0.7467 0.32664 0.0
C2432 C 0.44284 0.73145 0.32053 0.0
C2433 C 0.43747 0.75947 0.32155 0.0
C2434 C 0.4413 0.77589 0.3274 0.0
C2435 C 0.4568 0.78301 0.32609 0.0
C2436 C 0.46038 0.79843 0.33174 0.0
C2437 C 0.44854 0.8069 0.33865 0.0
C2438 C 0.43307 0.79998 0.33989 0.0
C2439 C 0.42943 0.78455 0.33427 0.0
H2440 H 0.45133 0.81884 0.34301 0.0
H2441 H 0.41369 0.66815 0.29282 0.0
H2442 H 0.97097 0.39468 0.0022 0.0
H2443 H 0.97539 0.3719 0.98541 0.0
H2444 H 0.01478 0.39788 0.96438 0.0
H2445 H 0.01005 0.42103 0.98078 0.0
H2446 H 0.99634 0.38081 0.94212 0.0
H2447 H 0.02246 0.37094 0.99253 0.0
H2448 H 0.02482 0.36869 0.02168 0.0
H2449 H 0.98736 0.33181 0.02015 0.0
H2450 H 0.98461 0.334 0.99099 0.0
H2451 H 0.02779 0.30927 0.91114 0.0
H2452 H 0.02402 0.33483 0.92393 0.0
H2453 H 0.984 0.31394 0.94842 0.0
H2454 H 0.98774 0.28846 0.93592 0.0
H2455 H 0.00515 0.32935 0.96855 0.0
H2456 H 0.97856 0.34006 0.91789 0.0
H2457 H 0.97658 0.34241 0.88874 0.0
H2458 H 0.01567 0.37761 0.89068 0.0
H2459 H 0.01802 0.37531 0.91985 0.0
C2460 C 0.98042 0.39567 0.99384 0.0
C2461 C 0.99019 0.40968 0.99288 0.0
C2462 C 0.98303 0.38257 0.98435 0.0
C2463 C 0.99556 0.38311 0.97381 0.0
C2464 C 0.00509 0.39719 0.9725 0.0
C2465 C 0.00247 0.41034 0.98199 0.0
C2466 C 0.99889 0.36879 0.96452 0.0
C2467 C 0.9985 0.3696 0.94788 0.0
C2468 C 0.00156 0.35414 0.97205 0.0
C2469 C 0.00324 0.35273 0.98959 0.0
C2470 C 0.01464 0.36243 0.99842 0.0
C2471 C 0.01606 0.36115 0.01494 0.0
C2472 C 0.00623 0.35013 0.02276 0.0
C2473 C 0.99497 0.34035 0.01407 0.0
C2474 C 0.99348 0.34159 0.99755 0.0
C2475 C 0.01805 0.31018 0.91908 0.0
C2476 C 0.00816 0.29676 0.9226 0.0
C2477 C 0.0159 0.32481 0.92635 0.0
C2478 C 0.00374 0.32628 0.93715 0.0
C2479 C 0.99352 0.31305 0.94021 0.0
C2480 C 0.99568 0.29848 0.93301 0.0
C2481 C 0.00218 0.34123 0.94611 0.0
C2482 C 0.00303 0.34056 0.96275 0.0
C2483 C 1.00001 0.35597 0.93856 0.0
C2484 C 0.99858 0.35738 0.92104 0.0
C2485 C 0.98683 0.3482 0.91209 0.0
C2486 C 0.98562 0.34954 0.89557 0.0
C2487 C 0.99602 0.36012 0.88786 0.0
C2488 C 0.00763 0.3694 0.89666 0.0
C2489 C 0.0089 0.36809 0.91319 0.0
H2490 H 0.99507 0.36115 0.87506 0.0
H2491 H 0.00735 0.34916 0.03556 0.0
H2492 H 0.67893 0.79475 0.28822 0.0
H2493 H 0.65841 0.79037 0.30757 0.0
H2494 H 0.62199 0.80406 0.27295 0.0
H2495 H 0.64261 0.80927 0.25372 0.0
H2496 H 0.61676 0.81641 0.30106 0.0
H2497 H 0.62698 0.76485 0.28181 0.0
H2498 H 0.64341 0.74261 0.27484 0.0
H2499 H 0.66035 0.73891 0.32351 0.0
H2500 H 0.64419 0.76128 0.33074 0.0
H2501 H 0.55232 0.78248 0.34632 0.0
H2502 H 0.57085 0.7893 0.3254 0.0
H2503 H 0.61112 0.77973 0.35735 0.0
H2504 H 0.5928 0.77285 0.37819 0.0
H2505 H 0.61275 0.76483 0.32899 0.0
H2506 H 0.60273 0.81741 0.34767 0.0
H2507 H 0.58575 0.8394 0.35411 0.0
H2508 H 0.56743 0.84051 0.30569 0.0
H2509 H 0.58416 0.81838 0.29901 0.0
C2510 C 0.66661 0.79706 0.28475 0.0
C2511 C 0.66244 0.80233 0.26936 0.0
C2512 C 0.65484 0.79436 0.29579 0.0
C2513 C 0.63861 0.79662 0.29163 0.0
C2514 C 0.63442 0.80214 0.27639 0.0
C2515 C 0.64621 0.80496 0.26536 0.0
C2516 C 0.62606 0.79311 0.30321 0.0
C2517 C 0.61572 0.80504 0.307 0.0
C2518 C 0.62478 0.77834 0.31108 0.0
C2519 C 0.63447 0.76484 0.30679 0.0
C2520 C 0.6343 0.75937 0.29101 0.0
C2521 C 0.64355 0.74673 0.28702 0.0
C2522 C 0.65294 0.73938 0.29872 0.0
C2523 C 0.65308 0.74463 0.31445 0.0
C2524 C 0.64386 0.75728 0.31851 0.0
C2525 C 0.56513 0.78198 0.34892 0.0
C2526 C 0.57108 0.77706 0.36391 0.0
C2527 C 0.5757 0.78591 0.33697 0.0
C2528 C 0.59236 0.78503 0.33984 0.0
C2529 C 0.5983 0.78044 0.35487 0.0
C2530 C 0.58779 0.77655 0.36679 0.0
C2531 C 0.6037 0.78822 0.32707 0.0
C2532 C 0.61376 0.77617 0.323 0.0
C2533 C 0.60459 0.80281 0.31888 0.0
C2534 C 0.59456 0.81613 0.32288 0.0
C2535 C 0.59498 0.82225 0.33843 0.0
C2536 C 0.58542 0.83476 0.34211 0.0
C2537 C 0.57548 0.84132 0.33033 0.0
C2538 C 0.57511 0.83541 0.31481 0.0
C2539 C 0.58464 0.82289 0.31107 0.0
H2540 H 0.56809 0.851 0.3332 0.0
H2541 H 0.6601 0.72959 0.29561 0.0
H2542 H 0.04324 0.08397 0.95323 0.0
H2543 H 0.04231 0.10805 0.9373 0.0
H2544 H 0.00958 0.12746 0.9694 0.0
H2545 H 0.00988 0.10314 0.98499 0.0
H2546 H 0.00081 0.13418 0.93948 0.0
H2547 H 0.04996 0.13782 0.972 0.0
H2548 H 0.07603 0.12893 0.98269 0.0
H2549 H 0.09387 0.12907 0.93579 0.0
H2550 H 0.06782 0.13776 0.92478 0.0
H2551 H 0.01455 0.21696 0.92962 0.0
H2552 H 0.01257 0.18974 0.93913 0.0
H2553 H 0.0416 0.17501 0.90134 0.0
H2554 H 0.04347 0.2023 0.89155 0.0
H2555 H 0.05215 0.16469 0.9312 0.0
H2556 H 0.00319 0.16415 0.89937 0.0
H2557 H 0.97724 0.17407 0.88962 0.0
H2558 H 0.95905 0.16909 0.9362 0.0
H2559 H 0.98499 0.15937 0.9463 0.0
C2560 C 0.03562 0.09324 0.95676 0.0
C2561 C 0.02672 0.09166 0.97047 0.0
C2562 C 0.03523 0.10707 0.94772 0.0
C2563 C 0.02607 0.11965 0.95229 0.0
C2564 C 0.01679 0.11793 0.96568 0.0
C2565 C 0.01711 0.10408 0.97468 0.0
C2566 C 0.02655 0.13485 0.94351 0.0
C2567 C 0.01202 0.14091 0.93777 0.0
C2568 C 0.04122 0.14346 0.94095 0.0
C2569 C 0.05689 0.13825 0.94755 0.0
C2570 C 0.0594 0.13582 0.96395 0.0
C2571 C 0.07418 0.13085 0.97007 0.0
C2572 C 0.08658 0.12839 0.95992 0.0
C2573 C 0.08424 0.13095 0.94363 0.0
C2574 C 0.06948 0.1359 0.93744 0.0
C2575 C 0.02029 0.20794 0.92313 0.0
C2576 C 0.02906 0.21181 0.90974 0.0
C2577 C 0.01915 0.19236 0.9286 0.0
C2578 C 0.02682 0.18036 0.92085 0.0
C2579 C 0.03554 0.18412 0.90744 0.0
C2580 C 0.03656 0.1997 0.90186 0.0
C2581 C 0.02641 0.16408 0.92736 0.0
C2582 C 0.04096 0.15785 0.93271 0.0
C2583 C 0.01176 0.1554 0.92967 0.0
C2584 C 0.99609 0.16114 0.92362 0.0
C2585 C 0.9937 0.16529 0.90757 0.0
C2586 C 0.97898 0.17085 0.90197 0.0
C2587 C 0.96651 0.17224 0.91229 0.0
C2588 C 0.96873 0.16802 0.92822 0.0
C2589 C 0.98343 0.16246 0.93389 0.0
H2590 H 0.95513 0.17655 0.90793 0.0
H2591 H 0.09802 0.12454 0.96468 0.0
H2592 H 0.38013 0.29472 0.24488 0.0
H2593 H 0.4016 0.29143 0.22648 0.0
H2594 H 0.36889 0.26281 0.19574 0.0
H2595 H 0.34754 0.26574 0.2142 0.0
H2596 H 0.39744 0.24934 0.2005 0.0
H2597 H 0.37897 0.30107 0.18677 0.0
H2598 H 0.37275 0.32877 0.19209 0.0
H2599 H 0.42197 0.33959 0.20737 0.0
H2600 H 0.42844 0.31188 0.20233 0.0
H2601 H 0.43098 0.24856 0.12655 0.0
H2602 H 0.41429 0.25414 0.14856 0.0
H2603 H 0.4547 0.27869 0.17333 0.0
H2604 H 0.47169 0.27312 0.15115 0.0
H2605 H 0.42563 0.29464 0.17442 0.0
H2606 H 0.44455 0.24334 0.1856 0.0
H2607 H 0.45063 0.21571 0.17979 0.0
H2608 H 0.40052 0.20404 0.16929 0.0
H2609 H 0.39415 0.23167 0.1748 0.0
C2610 C 0.37755 0.28768 0.23423 0.0
C2611 C 0.36212 0.28053 0.23097 0.0
C2612 C 0.38979 0.28591 0.22368 0.0
C2613 C 0.38681 0.27696 0.20969 0.0
C2614 C 0.37144 0.26978 0.20645 0.0
C2615 C 0.35921 0.27159 0.21695 0.0
C2616 C 0.39969 0.27476 0.19846 0.0
C2617 C 0.40352 0.25924 0.19473 0.0
C2618 C 0.40802 0.28771 0.19133 0.0
C2619 C 0.40414 0.30436 0.19436 0.0
C2620 C 0.38844 0.30932 0.1914 0.0
C2621 C 0.38487 0.32503 0.19433 0.0
C2622 C 0.39695 0.33592 0.20011 0.0
C2623 C 0.41262 0.33113 0.20292 0.0
C2624 C 0.41624 0.31543 0.20002 0.0
C2625 C 0.43639 0.2552 0.13662 0.0
C2626 C 0.45272 0.26031 0.13712 0.0
C2627 C 0.42681 0.25833 0.14923 0.0
C2628 C 0.43331 0.26664 0.16265 0.0
C2629 C 0.44949 0.27219 0.16308 0.0
C2630 C 0.45917 0.26897 0.15043 0.0
C2631 C 0.42303 0.26921 0.17619 0.0
C2632 C 0.41971 0.28476 0.18038 0.0
C2633 C 0.41514 0.25629 0.18377 0.0
C2634 C 0.41889 0.23962 0.18051 0.0
C2635 C 0.43484 0.23492 0.18193 0.0
C2636 C 0.43833 0.21925 0.17871 0.0
C2637 C 0.42597 0.20813 0.17415 0.0
C2638 C 0.41008 0.21266 0.17282 0.0
C2639 C 0.40652 0.22833 0.17601 0.0
H2640 H 0.4287 0.19601 0.17166 0.0
H2641 H 0.39416 0.34808 0.20237 0.0
H2642 H 0.54668 0.42308 0.04609 0.0
H2643 H 0.54222 0.39795 0.06003 0.0
H2644 H 0.50568 0.38312 0.02432 0.0
H2645 H 0.50983 0.40836 0.0106 0.0
H2646 H 0.49653 0.37369 0.05199 0.0
H2647 H 0.54507 0.37116 0.0237 0.0
H2648 H 0.5723 0.38001 0.01621 0.0
H2649 H 0.59006 0.37505 0.06448 0.0
H2650 H 0.56287 0.36636 0.0723 0.0
H2651 H 0.52538 0.2881 0.05875 0.0
H2652 H 0.52898 0.31548 0.05021 0.0
H2653 H 0.50313 0.33095 0.09006 0.0
H2654 H 0.49903 0.30337 0.09849 0.0
H2655 H 0.54356 0.34081 0.06206 0.0
H2656 H 0.48274 0.36375 0.07937 0.0
H2657 H 0.455 0.35351 0.08343 0.0
H2658 H 0.46094 0.31504 0.05118 0.0
H2659 H 0.48863 0.32516 0.04679 0.0
C2660 C 0.53764 0.41447 0.04129 0.0
C2661 C 0.52866 0.41762 0.02722 0.0
C2662 C 0.53511 0.40012 0.04924 0.0
C2663 C 0.52379 0.38852 0.04309 0.0
C2664 C 0.51445 0.39188 0.02932 0.0
C2665 C 0.51683 0.40631 0.02148 0.0
C2666 C 0.52217 0.37259 0.0505 0.0
C2667 C 0.50683 0.36655 0.05428 0.0
C2668 C 0.53555 0.36313 0.0533 0.0
C2669 C 0.55191 0.36828 0.04861 0.0
C2670 C 0.55476 0.37206 0.03274 0.0
C2671 C 0.57019 0.37704 0.02843 0.0
C2672 C 0.58289 0.37814 0.03987 0.0
C2673 C 0.5802 0.37422 0.05564 0.0
C2674 C 0.56479 0.36926 0.06002 0.0
C2675 C 0.52049 0.29729 0.06579 0.0
C2676 C 0.51181 0.29348 0.07927 0.0
C2677 C 0.52261 0.31299 0.06089 0.0
C2678 C 0.51619 0.3253 0.06937 0.0
C2679 C 0.50796 0.32163 0.08315 0.0
C2680 C 0.50568 0.30586 0.088 0.0
C2681 C 0.5179 0.34184 0.06344 0.0
C2682 C 0.53328 0.34803 0.05997 0.0
C2683 C 0.50449 0.35123 0.06048 0.0
C2684 C 0.48781 0.34511 0.06292 0.0
C2685 C 0.4781 0.35313 0.07313 0.0
C2686 C 0.46239 0.34734 0.07548 0.0
C2687 C 0.45623 0.3336 0.06761 0.0
C2688 C 0.46575 0.32564 0.05732 0.0
C2689 C 0.48146 0.33139 0.05491 0.0
H2690 H 0.44407 0.32913 0.06946 0.0
H2691 H 0.59482 0.38199 0.03651 0.0
H2692 H 0.62976 0.23901 0.23391 0.0
H2693 H 0.60735 0.24307 0.21471 0.0
H2694 H 0.62734 0.21098 0.18198 0.0
H2695 H 0.64979 0.20688 0.20113 0.0
H2696 H 0.61823 0.23988 0.16827 0.0
H2697 H 0.59625 0.19837 0.20143 0.0
H2698 H 0.58891 0.18648 0.22691 0.0
H2699 H 0.55815 0.22465 0.23508 0.0
H2700 H 0.56549 0.23689 0.20974 0.0
H2701 H 0.5551 0.22643 0.11132 0.0
H2702 H 0.57611 0.22364 0.13202 0.0
H2703 H 0.54877 0.24941 0.16472 0.0
H2704 H 0.52731 0.2518 0.14408 0.0
H2705 H 0.56145 0.22547 0.17939 0.0
H2706 H 0.58203 0.26691 0.14678 0.0
H2707 H 0.58943 0.28014 0.12197 0.0
H2708 H 0.6229 0.2444 0.11358 0.0
H2709 H 0.61554 0.23082 0.13824 0.0
C2710 C 0.62938 0.23285 0.22261 0.0
C2711 C 0.6415 0.22262 0.219 0.0
C2712 C 0.61654 0.23511 0.2117 0.0
C2713 C 0.61567 0.22727 0.19697 0.0
C2714 C 0.6278 0.21712 0.19331 0.0
C2715 C 0.64054 0.21471 0.20427 0.0
C2716 C 0.60224 0.22981 0.18525 0.0
C2717 C 0.60582 0.23657 0.1706 0.0
C2718 C 0.58603 0.22603 0.18858 0.0
C2719 C 0.58155 0.21863 0.20377 0.0
C2720 C 0.58803 0.2043 0.20873 0.0
C2721 C 0.58384 0.19748 0.22313 0.0
C2722 C 0.5731 0.20483 0.23263 0.0
C2723 C 0.56649 0.21898 0.22772 0.0
C2724 C 0.57065 0.22586 0.21334 0.0
C2725 C 0.55352 0.23155 0.12289 0.0
C2726 C 0.53956 0.23946 0.126 0.0
C2727 C 0.56561 0.23 0.13473 0.0
C2728 C 0.56422 0.23661 0.14986 0.0
C2729 C 0.55016 0.24428 0.15311 0.0
C2730 C 0.53792 0.24566 0.1413 0.0
C2731 C 0.57742 0.23535 0.16222 0.0
C2732 C 0.57382 0.22887 0.17703 0.0
C2733 C 0.59362 0.23962 0.15914 0.0
C2734 C 0.59813 0.24777 0.1443 0.0
C2735 C 0.59089 0.2618 0.13959 0.0
C2736 C 0.59509 0.26938 0.12556 0.0
C2737 C 0.6066 0.26309 0.11619 0.0
C2738 C 0.61397 0.24924 0.12085 0.0
C2739 C 0.60981 0.24161 0.13486 0.0
H2740 H 0.60984 0.26897 0.10533 0.0
H2741 H 0.56988 0.19953 0.24378 0.0
H2742 H 0.49968 0.10087 0.00065 0.0
H2743 H 0.50289 0.12454 0.01737 0.0
H2744 H 0.46887 0.10389 0.04933 0.0
H2745 H 0.46488 0.08056 0.03217 0.0
H2746 H 0.46209 0.13293 0.04364 0.0
H2747 H 0.51031 0.10774 0.05896 0.0
H2748 H 0.53566 0.09472 0.05519 0.0
H2749 H 0.55515 0.1367 0.03306 0.0
H2750 H 0.52983 0.14991 0.03649 0.0
H2751 H 0.47687 0.19309 0.10213 0.0
H2752 H 0.47696 0.16706 0.08934 0.0
H2753 H 0.50447 0.18738 0.05176 0.0
H2754 H 0.50436 0.21346 0.06437 0.0
H2755 H 0.51495 0.15775 0.06207 0.0
H2756 H 0.46552 0.18188 0.0456 0.0
H2757 H 0.44016 0.19463 0.05011 0.0
H2758 H 0.42313 0.15372 0.07566 0.0
H2759 H 0.4485 0.14081 0.07149 0.0
C2760 C 0.4928 0.10137 0.01118 0.0
C2761 C 0.48197 0.08879 0.015 0.0
C2762 C 0.49483 0.11485 0.02088 0.0
C2763 C 0.48628 0.11594 0.03475 0.0
C2764 C 0.47565 0.1033 0.03872 0.0
C2765 C 0.4735 0.08989 0.02896 0.0
C2766 C 0.48775 0.13061 0.04461 0.0
C2767 C 0.47366 0.13816 0.04791 0.0
C2768 C 0.50284 0.13767 0.04995 0.0
C2769 C 0.5181 0.12977 0.04786 0.0
C2770 C 0.51995 0.11416 0.05317 0.0
C2771 C 0.53433 0.10675 0.05112 0.0
C2772 C 0.54699 0.11487 0.04386 0.0
C2773 C 0.54532 0.13042 0.03867 0.0
C2774 C 0.53097 0.13788 0.04068 0.0
C2775 C 0.48309 0.19201 0.09123 0.0
C2776 C 0.49058 0.20537 0.08425 0.0
C2777 C 0.4831 0.17712 0.08393 0.0
C2778 C 0.49061 0.17534 0.06955 0.0
C2779 C 0.49863 0.18852 0.06288 0.0
C2780 C 0.49854 0.20343 0.07011 0.0
C2781 C 0.48933 0.15994 0.06099 0.0
C2782 C 0.50343 0.15235 0.05791 0.0
C2783 C 0.47425 0.15274 0.05595 0.0
C2784 C 0.45897 0.16045 0.05838 0.0
C2785 C 0.45642 0.17566 0.05229 0.0
C2786 C 0.44203 0.1829 0.05476 0.0
C2787 C 0.43006 0.17501 0.06321 0.0
C2788 C 0.43243 0.15983 0.06915 0.0
C2789 C 0.4468 0.15254 0.06673 0.0
H2790 H 0.41893 0.18064 0.06511 0.0
H2791 H 0.55812 0.10911 0.04228 0.0
H2792 H 0.29696 0.36414 0.73177 0.0
H2793 H 0.31677 0.38618 0.7354 0.0
H2794 H 0.28279 0.41811 0.71493 0.0
H2795 H 0.26323 0.39589 0.71021 0.0
H2796 H 0.31061 0.4252 0.70416 0.0
H2797 H 0.29202 0.41625 0.75604 0.0
H2798 H 0.28512 0.40089 0.77979 0.0
H2799 H 0.33431 0.38876 0.78701 0.0
H2800 H 0.34147 0.40387 0.76316 0.0
H2801 H 0.35679 0.49446 0.73278 0.0
H2802 H 0.33505 0.47384 0.72999 0.0
H2803 H 0.36922 0.43785 0.73878 0.0
H2804 H 0.39104 0.45832 0.74137 0.0
H2805 H 0.34017 0.43428 0.75614 0.0
H2806 H 0.35763 0.44305 0.70277 0.0
H2807 H 0.36365 0.45955 0.67952 0.0
H2808 H 0.31485 0.47362 0.67616 0.0
H2809 H 0.3086 0.45737 0.69956 0.0
C2810 C 0.29372 0.37579 0.7278 0.0
C2811 C 0.27842 0.37817 0.72069 0.0
C2812 C 0.30502 0.38846 0.73013 0.0
C2813 C 0.30119 0.40391 0.72575 0.0
C2814 C 0.286 0.40633 0.71853 0.0
C2815 C 0.27475 0.39361 0.71599 0.0
C2816 C 0.31317 0.41743 0.72845 0.0
C2817 C 0.31685 0.42731 0.71562 0.0
C2818 C 0.32149 0.42016 0.74334 0.0
C2819 C 0.31725 0.41109 0.75773 0.0
C2820 C 0.30135 0.41022 0.76262 0.0
C2821 C 0.29739 0.40157 0.77612 0.0
C2822 C 0.30927 0.39383 0.78488 0.0
C2823 C 0.32513 0.39475 0.7802 0.0
C2824 C 0.32914 0.40337 0.7667 0.0
C2825 C 0.35967 0.48217 0.73421 0.0
C2826 C 0.37565 0.47802 0.73724 0.0
C2827 C 0.34725 0.47042 0.73256 0.0
C2828 C 0.35058 0.45436 0.73412 0.0
C2829 C 0.36643 0.4502 0.73754 0.0
C2830 C 0.37888 0.4619 0.73894 0.0
C2831 C 0.33761 0.44181 0.73185 0.0
C2832 C 0.33378 0.43216 0.74476 0.0
C2833 C 0.32898 0.43945 0.71713 0.0
C2834 C 0.3327 0.44914 0.70302 0.0
C2835 C 0.34822 0.44978 0.69716 0.0
C2836 C 0.35167 0.45906 0.68394 0.0
C2837 C 0.33965 0.46767 0.67639 0.0
C2838 C 0.32415 0.46697 0.68203 0.0
C2839 C 0.32065 0.45772 0.69527 0.0
H2840 H 0.34234 0.47485 0.66616 0.0
H2841 H 0.30618 0.38714 0.79533 0.0
H2842 H 0.24962 0.62981 0.78215 0.0
H2843 H 0.2693 0.60948 0.77929 0.0
H2844 H 0.29576 0.64024 0.748 0.0
H2845 H 0.27608 0.66046 0.75064 0.0
H2846 H 0.29219 0.60972 0.73678 0.0
H2847 H 0.30836 0.63668 0.7861 0.0
H2848 H 0.3044 0.64635 0.81318 0.0
H2849 H 0.29423 0.5986 0.82853 0.0
H2850 H 0.29791 0.58866 0.80147 0.0
H2851 H 0.37002 0.58335 0.73645 0.0
H2852 H 0.34652 0.59842 0.74083 0.0
H2853 H 0.32789 0.56134 0.77093 0.0
H2854 H 0.35162 0.54605 0.76664 0.0
H2855 H 0.32478 0.59152 0.78339 0.0
H2856 H 0.31152 0.56427 0.73469 0.0
H2857 H 0.31575 0.55462 0.70768 0.0
H2858 H 0.32025 0.6026 0.69108 0.0
H2859 H 0.31629 0.61255 0.71806 0.0
C2860 C 0.25956 0.63215 0.77455 0.0
C2861 C 0.26135 0.64675 0.76667 0.0
C2862 C 0.27084 0.62059 0.77302 0.0
C2863 C 0.28406 0.62341 0.76353 0.0
C2864 C 0.28567 0.63783 0.7554 0.0
C2865 C 0.27448 0.64942 0.75701 0.0
C2866 C 0.2964 0.61149 0.76211 0.0
C2867 C 0.29938 0.6058 0.74695 0.0
C2868 C 0.30541 0.60599 0.77546 0.0
C2869 C 0.30321 0.61195 0.79172 0.0
C2870 C 0.30513 0.62826 0.79522 0.0
C2871 C 0.30297 0.63378 0.81057 0.0
C2872 C 0.29901 0.6231 0.82256 0.0
C2873 C 0.29726 0.60686 0.81923 0.0
C2874 C 0.29938 0.60128 0.80389 0.0
C2875 C 0.36099 0.57835 0.74404 0.0
C2876 C 0.36268 0.56343 0.75113 0.0
C2877 C 0.3475 0.58698 0.74648 0.0
C2878 C 0.33533 0.5809 0.756 0.0
C2879 C 0.33711 0.5662 0.76346 0.0
C2880 C 0.35065 0.55748 0.76098 0.0
C2881 C 0.32084 0.59007 0.758 0.0
C2882 C 0.31743 0.59523 0.77324 0.0
C2883 C 0.31139 0.59507 0.74472 0.0
C2884 C 0.31372 0.58915 0.72844 0.0
C2885 C 0.31353 0.57277 0.72531 0.0
C2886 C 0.31586 0.56724 0.71 0.0
C2887 C 0.3183 0.57799 0.69768 0.0
C2888 C 0.31837 0.59429 0.70064 0.0
C2889 C 0.31606 0.59987 0.71594 0.0
H2890 H 0.32009 0.57369 0.68583 0.0
H2891 H 0.29735 0.6274 0.83443 0.0
H2892 H 0.87875 0.48807 0.46359 0.0
H2893 H 0.85507 0.47032 0.46757 0.0
H2894 H 0.88473 0.43855 0.49439 0.0
H2895 H 0.90839 0.45614 0.4904 0.0
H2896 H 0.86439 0.42326 0.47136 0.0
H2897 H 0.86144 0.462 0.51339 0.0
H2898 H 0.86007 0.48905 0.52419 0.0
H2899 H 0.81629 0.49516 0.49646 0.0
H2900 H 0.81753 0.46821 0.48531 0.0
H2901 H 0.81107 0.37189 0.5093 0.0
H2902 H 0.83167 0.39229 0.50375 0.0
H2903 H 0.79542 0.42181 0.4833 0.0
H2904 H 0.77452 0.40147 0.48926 0.0
H2905 H 0.81747 0.43937 0.50044 0.0
H2906 H 0.81899 0.40063 0.45949 0.0
H2907 H 0.81996 0.37385 0.44797 0.0
H2908 H 0.86585 0.36813 0.47203 0.0
H2909 H 0.86505 0.3948 0.48389 0.0
C2910 C 0.8802 0.47727 0.47029 0.0
C2911 C 0.89541 0.47349 0.47672 0.0
C2912 C 0.86667 0.46721 0.47264 0.0
C2913 C 0.86815 0.45318 0.48135 0.0
C2914 C 0.88333 0.44934 0.48766 0.0
C2915 C 0.89681 0.45944 0.48546 0.0
C2916 C 0.85399 0.44225 0.48372 0.0
C2917 C 0.85418 0.42673 0.47783 0.0
C2918 C 0.84044 0.44699 0.49166 0.0
C2919 C 0.83968 0.46316 0.49838 0.0
C2920 C 0.8516 0.46917 0.50948 0.0
C2921 C 0.85083 0.48447 0.51569 0.0
C2922 C 0.83813 0.49383 0.51097 0.0
C2923 C 0.82614 0.4879 0.50007 0.0
C2924 C 0.82687 0.47261 0.49382 0.0
C2925 C 0.80742 0.38272 0.50364 0.0
C2926 C 0.79115 0.38496 0.49955 0.0
C2927 C 0.81924 0.39437 0.50043 0.0
C2928 C 0.81515 0.40843 0.49275 0.0
C2929 C 0.79887 0.41099 0.48912 0.0
C2930 C 0.78694 0.39936 0.49252 0.0
C2931 C 0.82802 0.42022 0.48839 0.0
C2932 C 0.82758 0.43592 0.49383 0.0
C2933 C 0.84131 0.41571 0.47987 0.0
C2934 C 0.8419 0.39968 0.47267 0.0
C2935 C 0.82924 0.39363 0.46241 0.0
C2936 C 0.82977 0.37846 0.45581 0.0
C2937 C 0.84294 0.36928 0.45929 0.0
C2938 C 0.85564 0.37525 0.46935 0.0
C2939 C 0.85517 0.3904 0.476 0.0
H2940 H 0.84333 0.35754 0.45417 0.0
H2941 H 0.83755 0.50567 0.5158 0.0
H2942 H 0.7586 0.86556 0.78455 0.0
H2943 H 0.74111 0.88768 0.78353 0.0
H2944 H 0.70015 0.85558 0.77244 0.0
H2945 H 0.71784 0.83342 0.77211 0.0
H2946 H 0.69714 0.87992 0.75521 0.0
H2947 H 0.70738 0.87393 0.8103 0.0
H2948 H 0.72305 0.87041 0.83547 0.0
H2949 H 0.74822 0.91542 0.82918 0.0
H2950 H 0.73287 0.91912 0.80385 0.0
H2951 H 0.65189 0.95152 0.77243 0.0
H2952 H 0.66178 0.92488 0.77749 0.0
H2953 H 0.7087 0.94096 0.76303 0.0
H2954 H 0.69895 0.96722 0.75753 0.0
H2955 H 0.70303 0.92231 0.79627 0.0
H2956 H 0.69487 0.92298 0.73724 0.0
H2957 H 0.67701 0.92589 0.71335 0.0
H2958 H 0.64442 0.88938 0.73016 0.0
H2959 H 0.66202 0.88643 0.75427 0.0
C2960 C 0.74592 0.86314 0.78166 0.0
C2961 C 0.73972 0.8476 0.77836 0.0
C2962 C 0.73584 0.87583 0.78139 0.0
C2963 C 0.7192 0.87332 0.77828 0.0
C2964 C 0.71292 0.85785 0.775 0.0
C2965 C 0.72306 0.84513 0.77499 0.0
C2966 C 0.70861 0.88702 0.77782 0.0
C2967 C 0.69823 0.88898 0.7644 0.0
C2968 C 0.70976 0.89887 0.78983 0.0
C2969 C 0.71901 0.89676 0.80511 0.0
C2970 C 0.71632 0.88304 0.81423 0.0
C2971 C 0.72514 0.88102 0.82853 0.0
C2972 C 0.73663 0.89268 0.83391 0.0
C2973 C 0.73931 0.9064 0.825 0.0
C2974 C 0.73053 0.90848 0.81068 0.0
C2975 C 0.66429 0.94932 0.77031 0.0
C2976 C 0.67462 0.96142 0.76449 0.0
C2977 C 0.6699 0.93416 0.7732 0.0
C2978 C 0.68594 0.93107 0.7706 0.0
C2979 C 0.69627 0.94317 0.76507 0.0
C2980 C 0.69064 0.95814 0.76186 0.0
C2981 C 0.69225 0.91526 0.77352 0.0
C2982 C 0.70177 0.91297 0.78737 0.0
C2983 C 0.69004 0.90296 0.76215 0.0
C2984 C 0.67962 0.90464 0.74761 0.0
C2985 C 0.68382 0.91569 0.7359 0.0
C2986 C 0.67377 0.91732 0.72231 0.0
C2987 C 0.65956 0.90787 0.72026 0.0
C2988 C 0.65541 0.89672 0.73178 0.0
C2989 C 0.66541 0.89506 0.7454 0.0
H2990 H 0.65179 0.90916 0.70974 0.0
H2991 H 0.74345 0.89109 0.84498 0.0
H2992 H 0.6062 0.55362 0.00352 0.0
H2993 H 0.63023 0.57142 0.00705 0.0
H2994 H 0.65812 0.53725 0.98401 0.0
H2995 H 0.63406 0.51935 0.98042 0.0
H2996 H 0.67339 0.55125 0.01243 0.0
H2997 H 0.64777 0.56667 0.96307 0.0
H2998 H 0.62505 0.57449 0.94553 0.0
H2999 H 0.61985 0.61565 0.97448 0.0
H3000 H 0.6424 0.60794 0.99235 0.0
H3001 H 0.74065 0.60626 0.0028 0.0
H3002 H 0.71892 0.58579 0.99887 0.0
H3003 H 0.68453 0.61932 0.01219 0.0
H3004 H 0.706 0.63985 0.01563 0.0
H3005 H 0.67341 0.60419 0.98706 0.0
H3006 H 0.69765 0.58862 0.03722 0.0
H3007 H 0.71974 0.58086 0.05562 0.0
H3008 H 0.72704 0.5404 0.02637 0.0
H3009 H 0.70512 0.54803 0.00768 0.0
C3010 C 0.61748 0.54984 0.99934 0.0
C3011 C 0.61827 0.53513 0.99166 0.0
C3012 C 0.63117 0.56004 0.00129 0.0
C3013 C 0.6459 0.55567 0.9957 0.0
C3014 C 0.64684 0.54082 0.98839 0.0
C3015 C 0.6331 0.53068 0.98625 0.0
C3016 C 0.66018 0.56686 0.99715 0.0
C3017 C 0.67355 0.56275 0.00671 0.0
C3018 C 0.66019 0.58193 0.98991 0.0
C3019 C 0.64668 0.58664 0.97913 0.0
C3020 C 0.6417 0.57731 0.96578 0.0
C3021 C 0.62886 0.58174 0.95576 0.0
C3022 C 0.62099 0.59554 0.95891 0.0
C3023 C 0.62595 0.60496 0.97207 0.0
C3024 C 0.63877 0.60057 0.98214 0.0
C3025 C 0.72847 0.60922 0.00498 0.0
C3026 C 0.72506 0.62471 0.00948 0.0
C3027 C 0.71605 0.59749 0.00278 0.0
C3028 C 0.70006 0.60096 0.00534 0.0
C3029 C 0.69673 0.61635 0.01006 0.0
C3030 C 0.70905 0.62809 0.01205 0.0
C3031 C 0.68663 0.58881 0.00267 0.0
C3032 C 0.67338 0.5927 0.99278 0.0
C3033 C 0.6867 0.5736 0.00974 0.0
C3034 C 0.69987 0.56899 0.02097 0.0
C3035 C 0.70406 0.57814 0.03465 0.0
C3036 C 0.71653 0.57375 0.04514 0.0
C3037 C 0.72482 0.56017 0.04214 0.0
C3038 C 0.72063 0.55093 0.02866 0.0
C3039 C 0.70817 0.55527 0.01812 0.0
H3040 H 0.73447 0.5568 0.05028 0.0
H3041 H 0.61105 0.59895 0.95113 0.0
H3042 H 0.23198 0.66995 0.24708 0.0
H3043 H 0.2127 0.64762 0.25053 0.0
H3044 H 0.24419 0.61649 0.2279 0.0
H3045 H 0.26318 0.63889 0.22372 0.0
H3046 H 0.21399 0.61004 0.21771 0.0
H3047 H 0.24182 0.61812 0.26871 0.0
H3048 H 0.2517 0.63345 0.29246 0.0
H3049 H 0.20319 0.64261 0.30312 0.0
H3050 H 0.19303 0.62749 0.27931 0.0
H3051 H 0.18846 0.53498 0.24709 0.0
H3052 H 0.20268 0.55974 0.24024 0.0
H3053 H 0.16608 0.58624 0.26106 0.0
H3054 H 0.15165 0.56139 0.26795 0.0
H3055 H 0.19639 0.5964 0.27155 0.0
H3056 H 0.16863 0.58581 0.22152 0.0
H3057 H 0.15925 0.56973 0.19812 0.0
H3058 H 0.20809 0.56458 0.18585 0.0
H3059 H 0.21779 0.58044 0.20932 0.0
C3060 C 0.23473 0.6584 0.24265 0.0
C3061 C 0.2492 0.65622 0.23518 0.0
C3062 C 0.22375 0.64561 0.24477 0.0
C3063 C 0.22709 0.63033 0.23966 0.0
C3064 C 0.24138 0.62816 0.23199 0.0
C3065 C 0.25232 0.64095 0.22977 0.0
C3066 C 0.21583 0.61654 0.24247 0.0
C3067 C 0.21025 0.60698 0.2295 0.0
C3068 C 0.2106 0.61277 0.2578 0.0
C3069 C 0.21668 0.62183 0.27214 0.0
C3070 C 0.23327 0.62351 0.27605 0.0
C3071 C 0.23892 0.63214 0.28954 0.0
C3072 C 0.22808 0.63904 0.29927 0.0
C3073 C 0.21157 0.63728 0.29556 0.0
C3074 C 0.20586 0.62867 0.28208 0.0
C3075 C 0.18324 0.54603 0.24998 0.0
C3076 C 0.16885 0.54619 0.25799 0.0
C3077 C 0.1914 0.56021 0.24603 0.0
C3078 C 0.18537 0.57484 0.25002 0.0
C3079 C 0.1709 0.57507 0.25784 0.0
C3080 C 0.16266 0.56086 0.26172 0.0
C3081 C 0.19474 0.5898 0.24683 0.0
C3082 C 0.19998 0.59956 0.25973 0.0
C3083 C 0.19972 0.59369 0.23146 0.0
C3084 C 0.19394 0.58422 0.21726 0.0
C3085 C 0.17738 0.58115 0.21391 0.0
C3086 C 0.17201 0.57209 0.20062 0.0
C3087 C 0.18307 0.56611 0.19053 0.0
C3088 C 0.19954 0.56921 0.19369 0.0
C3089 C 0.20498 0.57825 0.20697 0.0
H3090 H 0.17889 0.55909 0.18024 0.0
H3091 H 0.23247 0.64572 0.3097 0.0
H3092 H 0.89609 0.51235 0.04088 0.0
H3093 H 0.87443 0.53031 0.03501 0.0
H3094 H 0.90752 0.56208 0.01134 0.0
H3095 H 0.92925 0.54426 0.01732 0.0
H3096 H 0.88927 0.57753 0.03218 0.0
H3097 H 0.88082 0.53932 0.98988 0.0
H3098 H 0.87652 0.51251 0.97829 0.0
H3099 H 0.83295 0.50545 0.00304 0.0
H3100 H 0.83711 0.53216 0.01497 0.0
H3101 H 0.83525 0.62864 0.99584 0.0
H3102 H 0.85512 0.60854 0.99912 0.0
H3103 H 0.82024 0.57732 0.02104 0.0
H3104 H 0.80013 0.59736 0.01762 0.0
H3105 H 0.83889 0.56109 0.00142 0.0
H3106 H 0.84715 0.59874 0.04392 0.0
H3107 H 0.85129 0.6253 0.05612 0.0
H3108 H 0.89509 0.63303 0.03188 0.0
H3109 H 0.89109 0.60659 0.01934 0.0
C3110 C 0.89874 0.52319 0.03448 0.0
C3111 C 0.91436 0.5269 0.02954 0.0
C3112 C 0.88634 0.53337 0.03102 0.0
C3113 C 0.88935 0.54746 0.02263 0.0
C3114 C 0.90494 0.55123 0.01778 0.0
C3115 C 0.91731 0.54101 0.02112 0.0
C3116 C 0.87635 0.55849 0.01924 0.0
C3117 C 0.87836 0.574 0.02526 0.0
C3118 C 0.86191 0.55372 0.01063 0.0
C3119 C 0.85937 0.53768 0.00345 0.0
C3120 C 0.87039 0.532 0.99297 0.0
C3121 C 0.86797 0.51683 0.98631 0.0
C3122 C 0.8545 0.50726 0.98996 0.0
C3123 C 0.8434 0.51287 0.00024 0.0
C3124 C 0.84577 0.52802 0.00694 0.0
C3125 C 0.8317 0.61744 0.00119 0.0
C3126 C 0.81614 0.61468 0.00663 0.0
C3127 C 0.84312 0.60597 0.0031 0.0
C3128 C 0.83925 0.59155 0.0106 0.0
C3129 C 0.82349 0.5884 0.0153 0.0
C3130 C 0.81202 0.59988 0.01335 0.0
C3131 C 0.85191 0.58018 0.01422 0.0
C3132 C 0.84982 0.56461 0.00831 0.0
C3133 C 0.86627 0.58484 0.02304 0.0
C3134 C 0.86873 0.60075 0.03057 0.0
C3135 C 0.8576 0.60615 0.04109 0.0
C3136 C 0.85993 0.62118 0.04808 0.0
C3137 C 0.87342 0.63086 0.04474 0.0
C3138 C 0.88463 0.62553 0.03443 0.0
C3139 C 0.88234 0.61052 0.02739 0.0
H3140 H 0.87521 0.64249 0.05018 0.0
H3141 H 0.85264 0.49552 0.9848 0.0
H3142 H 0.08303 0.95485 0.98627 0.0
H3143 H 0.10545 0.93843 0.98064 0.0
H3144 H 0.13669 0.96702 0.0128 0.0
H3145 H 0.11442 0.98371 0.01822 0.0
H3146 H 0.15131 0.96018 0.98528 0.0
H3147 H 0.12155 0.93196 0.0247 0.0
H3148 H 0.09734 0.91943 0.03601 0.0
H3149 H 0.09147 0.8873 0.99635 0.0
H3150 H 0.11554 0.8998 0.98469 0.0
H3151 H 0.21379 0.90699 0.001 0.0
H3152 H 0.19242 0.92571 0.00108 0.0
H3153 H 0.16184 0.89374 0.97159 0.0
H3154 H 0.18303 0.8748 0.97176 0.0
H3155 H 0.14657 0.90251 0.99636 0.0
H3156 H 0.17748 0.92977 0.95761 0.0
H3157 H 0.20176 0.94235 0.94649 0.0
H3158 H 0.20571 0.97619 0.98475 0.0
H3159 H 0.18157 0.96369 0.99622 0.0
C3160 C 0.09471 0.95773 0.99203 0.0
C3161 C 0.09693 0.97052 0.00276 0.0
C3162 C 0.10748 0.94829 0.98887 0.0
C3163 C 0.1227 0.95143 0.99641 0.0
C3164 C 0.12504 0.96438 0.00688 0.0
C3165 C 0.11227 0.97379 0.01008 0.0
C3166 C 0.13608 0.94097 0.99372 0.0
C3167 C 0.15036 0.94759 0.98782 0.0
C3168 C 0.13468 0.9245 0.99672 0.0
C3169 C 0.12024 0.91693 0.00374 0.0
C3170 C 0.11502 0.92231 0.01832 0.0
C3171 C 0.10134 0.9152 0.02481 0.0
C3172 C 0.09285 0.90261 0.01688 0.0
C3173 C 0.09805 0.89707 0.00247 0.0
C3174 C 0.11171 0.90416 0.99592 0.0
C3175 C 0.20263 0.90406 0.99428 0.0
C3176 C 0.20008 0.88934 0.98646 0.0
C3177 C 0.19042 0.91481 0.99429 0.0
C3178 C 0.17551 0.91116 0.9863 0.0
C3179 C 0.17322 0.89679 0.97789 0.0
C3180 C 0.18537 0.88599 0.97796 0.0
C3181 C 0.16189 0.92166 0.98784 0.0
C3182 C 0.14753 0.91506 0.99362 0.0
C3183 C 0.16326 0.93814 0.98473 0.0
C3184 C 0.17778 0.9457 0.97785 0.0
C3185 C 0.18359 0.93982 0.96372 0.0
C3186 C 0.19732 0.94695 0.95734 0.0
C3187 C 0.2053 0.96004 0.96493 0.0
C3188 C 0.19953 0.96605 0.97889 0.0
C3189 C 0.18581 0.95895 0.98533 0.0
H3190 H 0.21593 0.96554 0.95997 0.0
H3191 H 0.08226 0.89711 0.02192 0.0
loop_
_geom_bond_atom_site_label_1
_geom_bond_atom_site_label_2
_geom_bond_distance
_geom_bond_site_symmetry_2
_ccdc_geom_bond_type
C0 C1 1.386 . S
C0 C2 1.397 . S
C0 H24 0.931 . S
C1 C0 1.386 . S
C1 C5 1.397 1_556 S
C2 C0 1.397 . S
C2 C3 1.384 1_556 S
C2 H25 0.930 . S
C3 C2 1.384 1_554 S
C3 C4 1.377 . S
C3 C6 1.481 . S
C4 C3 1.377 . S
C4 C5 1.389 . S
C4 H26 0.929 . S
C5 C1 1.397 1_554 S
C5 C4 1.389 . S
C5 H27 0.931 . S
C6 C3 1.481 . S
C6 C7 1.387 . S
C6 C11 1.390 . S
C7 C6 1.387 . S
C7 C8 1.401 . S
C7 H28 0.930 . S
C8 C7 1.401 . S
C8 C9 1.376 . S
C8 C17 1.511 . S
C9 C8 1.376 . S
C9 C10 1.392 . S
C9 H30 0.931 . S
C10 C9 1.392 . S
C10 C11 1.361 . S
C10 C12 1.500 . S
C11 C6 1.390 . S
C11 C10 1.361 . S
C11 H29 0.931 . S
C12 C10 1.500 . S
C12 C13 1.371 . S
C12 C14 1.365 . S
C13 C12 1.371 . S
C13 C23 1.418 . S
C13 H31 0.931 . S
C14 C12 1.365 . S
C14 C15 1.409 1_455 S
C14 H32 0.929 . S
C15 C14 1.409 1_655 S
C15 C16 1.380 . S
C15 H33 0.930 . S
C16 C15 1.380 . S
C16 C23 1.336 1_655 S
C17 C8 1.511 . S
C17 C18 1.341 . S
C17 C19 1.371 . S
C18 C17 1.341 . S
C18 C22 1.394 . S
C18 H34 0.976 . S
C19 C17 1.371 . S
C19 C20 1.392 1_545 S
C19 H35 0.931 . S
C20 C19 1.392 1_565 S
C20 C21 1.331 . S
C20 H38 0.932 . S
C21 C20 1.331 . S
C21 C22 1.336 1_565 S
C22 C18 1.394 . S
C22 C21 1.336 1_545 S
C22 H37 0.929 1_554 S
C23 C13 1.418 . S
C23 C16 1.336 1_455 S
C23 H36 0.919 1_455 S
H24 C0 0.931 . S
H25 C2 0.930 . S
H26 C4 0.929 . S
H27 C5 0.931 . S
H28 C7 0.930 . S
H29 C11 0.931 . S
H30 C9 0.931 . S
H31 C13 0.931 . S
H32 C14 0.929 . S
H33 C15 0.930 . S
H34 C18 0.976 . S
H35 C19 0.931 . S
H36 C23 0.919 1_655 S
H37 C22 0.929 1_556 S
H38 C20 0.932 . S
C39 C40 1.386 . S
C39 C41 1.397 . S
C39 H63 0.931 . S
C40 C39 1.386 . S
C40 C44 1.397 . S
C41 C39 1.397 . S
C41 C42 1.384 . S
C41 H64 0.930 . S
C42 C41 1.384 . S
C42 C43 1.377 . S
C42 C45 1.481 . S
C43 C42 1.377 . S
C43 C44 1.389 . S
C43 H65 0.929 . S
C44 C40 1.397 . S
C44 C43 1.389 . S
C44 H66 0.931 . S
C45 C42 1.481 . S
C45 C46 1.387 . S
C45 C50 1.390 . S
C46 C45 1.387 . S
C46 C47 1.401 . S
C46 H67 0.930 . S
C47 C46 1.401 . S
C47 C48 1.376 . S
C47 C56 1.511 . S
C48 C47 1.376 . S
C48 C49 1.392 . S
C48 H69 0.931 . S
C49 C48 1.392 . S
C49 C50 1.361 . S
C49 C51 1.500 . S
C50 C45 1.390 . S
C50 C49 1.361 . S
C50 H68 0.931 . S
C51 C49 1.500 . S
C51 C52 1.371 . S
C51 C53 1.365 . S
C52 C51 1.371 . S
C52 C62 1.386 . S
C52 H70 0.931 . S
C53 C51 1.365 . S
C53 C54 1.409 . S
C53 H71 0.929 . S
C54 C53 1.409 . S
C54 C55 1.380 . S
C54 H72 0.930 . S
C55 C54 1.380 . S
C55 C62 1.357 . S
C56 C47 1.511 . S
C56 C57 1.341 . S
C56 C58 1.371 . S
C57 C56 1.341 . S
C57 C61 1.394 . S
C57 H73 0.930 . S
C58 C56 1.371 . S
C58 C59 1.392 . S
C58 H74 0.931 . S
C59 C58 1.392 . S
C59 C60 1.331 . S
C59 H77 0.932 . S
C60 C59 1.331 . S
C60 C61 1.336 . S
C61 C57 1.394 . S
C61 C60 1.336 . S
C61 H76 0.929 . S
C62 C52 1.386 . S
C62 C55 1.357 . S
C62 H75 0.928 . S
H63 C39 0.931 . S
H64 C41 0.930 . S
H65 C43 0.929 . S
H66 C44 0.931 . S
H67 C46 0.930 . S
H68 C50 0.931 . S
H69 C48 0.931 . S
H70 C52 0.931 . S
H71 C53 0.929 . S
H72 C54 0.930 . S
H73 C57 0.930 . S
H74 C58 0.931 . S
H75 C62 0.928 . S
H76 C61 0.929 . S
H77 C59 0.932 . S
C78 C79 1.386 . S
C78 C80 1.397 1_455 S
C78 H102 0.913 1_455 S
C79 C78 1.386 . S
C79 C83 1.397 . S
C80 C78 1.397 1_655 S
C80 C81 1.414 . S
C80 H103 0.930 . S
C81 C80 1.414 . S
C81 C82 1.310 1_655 S
C81 C84 1.520 . S
C82 C81 1.310 1_455 S
C82 C83 1.389 . S
C82 H104 0.929 . S
C83 C79 1.397 . S
C83 C82 1.389 . S
C83 H105 0.931 . S
C84 C81 1.520 . S
C84 C85 1.387 . S
C84 C89 1.390 . S
C85 C84 1.387 . S
C85 C86 1.401 . S
C85 H106 0.930 . S
C86 C85 1.401 . S
C86 C87 1.376 . S
C86 C95 1.511 . S
C87 C86 1.376 . S
C87 C88 1.392 . S
C87 H108 0.931 . S
C88 C87 1.392 . S
C88 C89 1.361 . S
C88 C90 1.500 . S
C89 C84 1.390 . S
C89 C88 1.361 . S
C89 H107 0.931 . S
C90 C88 1.500 . S
C90 C91 1.371 . S
C90 C92 1.365 . S
C91 C90 1.371 . S
C91 C101 1.386 . S
C91 H109 0.931 . S
C92 C90 1.365 . S
C92 C93 1.409 1_655 S
C92 H110 0.929 1_655 S
C93 C92 1.409 1_455 S
C93 C94 1.380 1_455 S
C93 H111 0.930 . S
C94 C93 1.380 1_655 S
C94 C101 1.357 . S
C95 C86 1.511 . S
C95 C96 1.341 . S
C95 C97 1.371 . S
C96 C95 1.341 . S
C96 C100 1.394 . S
C96 H112 0.930 . S
C97 C95 1.371 . S
C97 C98 1.392 . S
C97 H113 0.931 . S
C98 C97 1.392 . S
C98 C99 1.331 . S
C98 H116 0.932 . S
C99 C98 1.331 . S
C99 C100 1.336 . S
C100 C96 1.394 . S
C100 C99 1.336 . S
C100 H115 0.929 . S
C101 C91 1.386 . S
C101 C94 1.357 . S
C101 H114 0.929 1_554 S
H102 C78 0.913 1_655 S
H103 C80 0.930 . S
H104 C82 0.929 . S
H105 C83 0.931 . S
H106 C85 0.930 . S
H107 C89 0.931 . S
H108 C87 0.931 . S
H109 C91 0.931 . S
H110 C92 0.929 1_455 S
H111 C93 0.930 . S
H112 C96 0.930 . S
H113 C97 0.931 . S
H114 C101 0.929 1_556 S
H115 C100 0.929 . S
H116 C98 0.932 . S
C117 C118 1.386 . S
C117 C119 1.397 . S
C117 H141 0.931 . S
C118 C117 1.386 . S
C118 C122 1.397 . S
C119 C117 1.397 . S
C119 C120 1.384 . S
C119 H142 0.930 . S
C120 C119 1.384 . S
C120 C121 1.377 . S
C120 C123 1.481 . S
C121 C120 1.377 . S
C121 C122 1.389 . S
C121 H143 0.929 . S
C122 C118 1.397 . S
C122 C121 1.389 . S
C122 H144 0.931 . S
C123 C120 1.481 . S
C123 C124 1.387 . S
C123 C128 1.390 . S
C124 C123 1.387 . S
C124 C125 1.401 . S
C124 H145 0.930 . S
C125 C124 1.401 . S
C125 C126 1.376 . S
C125 C134 1.511 . S
C126 C125 1.376 . S
C126 C127 1.392 . S
C126 H147 0.931 . S
C127 C126 1.392 . S
C127 C128 1.361 . S
C127 C129 1.500 . S
C128 C123 1.390 . S
C128 C127 1.361 . S
C128 H146 0.931 . S
C129 C127 1.500 . S
C129 C130 1.371 . S
C129 C131 1.365 . S
C130 C129 1.371 . S
C130 C140 1.386 . S
C130 H148 0.931 . S
C131 C129 1.365 . S
C131 C132 1.409 . S
C131 H149 0.929 . S
C132 C131 1.409 . S
C132 C133 1.380 . S
C132 H150 0.930 . S
C133 C132 1.380 . S
C133 C140 1.357 . S
C134 C125 1.511 . S
C134 C135 1.341 . S
C134 C136 1.371 . S
C135 C134 1.341 . S
C135 C139 1.394 . S
C135 H151 0.930 . S
C136 C134 1.371 . S
C136 C137 1.392 . S
C136 H152 0.931 . S
C137 C136 1.392 . S
C137 C138 1.331 . S
C137 H155 0.932 . S
C138 C137 1.331 . S
C138 C139 1.336 . S
C139 C135 1.394 . S
C139 C138 1.336 . S
C139 H154 0.929 . S
C140 C130 1.386 . S
C140 C133 1.357 . S
C140 H153 0.928 . S
H141 C117 0.931 . S
H142 C119 0.930 . S
H143 C121 0.929 . S
H144 C122 0.931 . S
H145 C124 0.930 . S
H146 C128 0.931 . S
H147 C126 0.931 . S
H148 C130 0.931 . S
H149 C131 0.929 . S
H150 C132 0.930 . S
H151 C135 0.930 . S
H152 C136 0.931 . S
H153 C140 0.928 . S
H154 C139 0.929 . S
H155 C137 0.932 . S
C156 C157 1.386 . S
C156 C158 1.397 . S
C156 H180 0.931 1_455 S
C157 C156 1.386 . S
C157 C161 1.397 . S
C158 C156 1.397 . S
C158 C159 1.384 . S
C158 H181 0.930 . S
C159 C158 1.384 . S
C159 C160 1.377 . S
C159 C162 1.481 . S
C160 C159 1.377 . S
C160 C161 1.389 . S
C160 H182 0.929 . S
C161 C157 1.397 . S
C161 C160 1.389 . S
C161 H183 0.931 . S
C162 C159 1.481 . S
C162 C163 1.387 . S
C162 C167 1.390 . S
C163 C162 1.387 . S
C163 C164 1.401 . S
C163 H184 0.930 . S
C164 C163 1.401 . S
C164 C165 1.376 . S
C164 C173 1.511 . S
C165 C164 1.376 . S
C165 C166 1.392 . S
C165 H186 0.931 . S
C166 C165 1.392 . S
C166 C167 1.361 . S
C166 C168 1.500 . S
C167 C162 1.390 . S
C167 C166 1.361 . S
C167 H185 0.931 . S
C168 C166 1.500 . S
C168 C169 1.371 . S
C168 C170 1.364 1_565 S
C169 C168 1.371 . S
C169 C179 1.386 1_565 S
C169 H187 0.931 . S
C170 C168 1.364 1_545 S
C170 C171 1.410 . S
C170 H188 0.929 1_545 S
C171 C170 1.410 . S
C171 C172 1.380 . S
C171 H189 0.930 . S
C172 C171 1.380 . S
C172 C179 1.357 . S
C173 C164 1.511 . S
C173 C174 1.341 . S
C173 C175 1.371 . S
C174 C173 1.341 . S
C174 C178 1.394 . S
C174 H190 0.930 . S
C175 C173 1.371 . S
C175 C176 1.392 . S
C175 H191 0.931 . S
C176 C175 1.392 . S
C176 C177 1.331 . S
C176 H194 0.932 . S
C177 C176 1.331 . S
C177 C178 1.336 . S
C178 C174 1.394 . S
C178 C177 1.336 . S
C178 H193 0.929 . S
C179 C169 1.386 1_545 S
C179 C172 1.357 . S
C179 H192 0.928 . S
H180 C156 0.931 1_655 S
H181 C158 0.930 . S
H182 C160 0.929 . S
H183 C161 0.931 . S
H184 C163 0.930 . S
H185 C167 0.931 . S
H186 C165 0.931 . S
H187 C169 0.931 . S
H188 C170 0.929 1_565 S
H189 C171 0.930 . S
H190 C174 0.930 . S
H191 C175 0.931 . S
H192 C179 0.928 . S
H193 C178 0.929 . S
H194 C176 0.932 . S
C195 C196 1.386 . S
C195 C197 1.397 . S
C195 H219 0.931 . S
C196 C195 1.386 . S
C196 C200 1.397 . S
C197 C195 1.397 . S
C197 C198 1.384 . S
C197 H220 0.930 . S
C198 C197 1.384 . S
C198 C199 1.377 . S
C198 C201 1.481 . S
C199 C198 1.377 . S
C199 C200 1.389 . S
C199 H221 0.929 . S
C200 C196 1.397 . S
C200 C199 1.389 . S
C200 H222 0.931 . S
C201 C198 1.481 . S
C201 C202 1.387 . S
C201 C206 1.390 . S
C202 C201 1.387 . S
C202 C203 1.401 . S
C202 H223 0.930 . S
C203 C202 1.401 . S
C203 C204 1.376 . S
C203 C212 1.511 . S
C204 C203 1.376 . S
C204 C205 1.392 . S
C204 H225 0.931 . S
C205 C204 1.392 . S
C205 C206 1.361 . S
C205 C207 1.500 . S
C206 C201 1.390 . S
C206 C205 1.361 . S
C206 H224 0.931 . S
C207 C205 1.500 . S
C207 C208 1.371 . S
C207 C209 1.365 . S
C208 C207 1.371 . S
C208 C218 1.386 . S
C208 H226 0.931 . S
C209 C207 1.365 . S
C209 C210 1.409 . S
C209 H227 0.929 . S
C210 C209 1.409 . S
C210 C211 1.380 . S
C210 H228 0.930 . S
C211 C210 1.380 . S
C211 C218 1.357 . S
C212 C203 1.511 . S
C212 C213 1.341 . S
C212 C214 1.371 . S
C213 C212 1.341 . S
C213 C217 1.394 . S
C213 H229 0.930 . S
C214 C212 1.371 . S
C214 C215 1.392 . S
C214 H230 0.931 . S
C215 C214 1.392 . S
C215 C216 1.331 . S
C215 H233 0.932 . S
C216 C215 1.331 . S
C216 C217 1.336 . S
C217 C213 1.394 . S
C217 C216 1.336 . S
C217 H232 0.929 . S
C218 C208 1.386 . S
C218 C211 1.357 . S
C218 H231 0.928 . S
H219 C195 0.931 . S
H220 C197 0.930 . S
H221 C199 0.929 . S
H222 C200 0.931 . S
H223 C202 0.930 . S
H224 C206 0.931 . S
H225 C204 0.931 . S
H226 C208 0.931 . S
H227 C209 0.929 . S
H228 C210 0.930 . S
H229 C213 0.930 . S
H230 C214 0.931 . S
H231 C218 0.928 . S
H232 C217 0.929 . S
H233 C215 0.932 . S
C234 C235 1.386 . S
C234 C236 1.397 . S
C234 H258 0.931 . S
C235 C234 1.386 . S
C235 C239 1.397 . S
C236 C234 1.397 . S
C236 C237 1.384 . S
C236 H259 0.930 . S
C237 C236 1.384 . S
C237 C238 1.377 . S
C237 C240 1.481 . S
C238 C237 1.377 . S
C238 C239 1.389 . S
C238 H260 0.929 . S
C239 C235 1.397 . S
C239 C238 1.389 . S
C239 H261 0.931 . S
C240 C237 1.481 . S
C240 C241 1.387 . S
C240 C245 1.390 . S
C241 C240 1.387 . S
C241 C242 1.401 . S
C241 H262 0.930 . S
C242 C241 1.401 . S
C242 C243 1.376 . S
C242 C251 1.511 . S
C243 C242 1.376 . S
C243 C244 1.392 . S
C243 H264 0.931 . S
C244 C243 1.392 . S
C244 C245 1.361 . S
C244 C246 1.500 . S
C245 C240 1.390 . S
C245 C244 1.361 . S
C245 H263 0.931 . S
C246 C244 1.500 . S
C246 C247 1.371 . S
C246 C248 1.365 . S
C247 C246 1.371 . S
C247 C257 1.386 . S
C247 H265 0.931 . S
C248 C246 1.365 . S
C248 C249 1.409 . S
C248 H266 0.929 . S
C249 C248 1.409 . S
C249 C250 1.380 . S
C249 H267 0.930 . S
C250 C249 1.380 . S
C250 C257 1.357 . S
C251 C242 1.511 . S
C251 C252 1.366 . S
C251 C253 1.371 . S
C252 C251 1.366 . S
C252 C256 1.365 1_655 S
C252 H268 0.936 . S
C253 C251 1.371 . S
C253 C254 1.392 1_655 S
C253 H269 0.931 . S
C254 C253 1.392 1_455 S
C254 C255 1.331 . S
C254 H272 0.932 . S
C255 C254 1.331 . S
C255 C256 1.336 . S
C256 C252 1.365 1_455 S
C256 C255 1.336 . S
C256 H271 0.929 . S
C257 C247 1.386 . S
C257 C250 1.357 . S
C257 H270 0.928 . S
H258 C234 0.931 . S
H259 C236 0.930 . S
H260 C238 0.929 . S
H261 C239 0.931 . S
H262 C241 0.930 . S
H263 C245 0.931 . S
H264 C243 0.931 . S
H265 C247 0.931 . S
H266 C248 0.929 . S
H267 C249 0.930 . S
H268 C252 0.936 . S
H269 C253 0.931 . S
H270 C257 0.928 . S
H271 C256 0.929 . S
H272 C254 0.932 . S
C273 C274 1.386 . S
C273 C275 1.397 . S
C273 H297 0.931 . S
C274 C273 1.386 . S
C274 C278 1.397 . S
C275 C273 1.397 . S
C275 C276 1.384 . S
C275 H298 0.930 . S
C276 C275 1.384 . S
C276 C277 1.377 . S
C276 C279 1.481 . S
C277 C276 1.377 . S
C277 C278 1.389 . S
C277 H299 0.929 . S
C278 C274 1.397 . S
C278 C277 1.389 . S
C278 H300 0.931 . S
C279 C276 1.481 . S
C279 C280 1.387 . S
C279 C284 1.390 . S
C280 C279 1.387 . S
C280 C281 1.401 . S
C280 H301 0.930 . S
C281 C280 1.401 . S
C281 C282 1.376 . S
C281 C290 1.511 . S
C282 C281 1.376 . S
C282 C283 1.392 . S
C282 H303 0.931 . S
C283 C282 1.392 . S
C283 C284 1.361 . S
C283 C285 1.500 . S
C284 C279 1.390 . S
C284 C283 1.361 . S
C284 H302 0.931 . S
C285 C283 1.500 . S
C285 C286 1.371 . S
C285 C287 1.365 . S
C286 C285 1.371 . S
C286 C296 1.386 . S
C286 H304 0.931 . S
C287 C285 1.365 . S
C287 C288 1.409 . S
C287 H305 0.929 . S
C288 C287 1.409 . S
C288 C289 1.380 . S
C288 H306 0.930 . S
C289 C288 1.380 . S
C289 C296 1.357 . S
C290 C281 1.511 . S
C290 C291 1.341 . S
C290 C292 1.371 . S
C291 C290 1.341 . S
C291 C295 1.394 . S
C291 H307 0.930 . S
C292 C290 1.371 . S
C292 C293 1.392 . S
C292 H308 0.931 . S
C293 C292 1.392 . S
C293 C294 1.331 . S
C293 H311 0.932 . S
C294 C293 1.331 . S
C294 C295 1.336 . S
C295 C291 1.394 . S
C295 C294 1.336 . S
C295 H310 0.929 . S
C296 C286 1.386 . S
C296 C289 1.357 . S
C296 H309 0.928 . S
H297 C273 0.931 . S
H298 C275 0.930 . S
H299 C277 0.929 . S
H300 C278 0.931 . S
H301 C280 0.930 . S
H302 C284 0.931 . S
H303 C282 0.931 . S
H304 C286 0.931 . S
H305 C287 0.929 . S
H306 C288 0.930 . S
H307 C291 0.930 . S
H308 C292 0.931 . S
H309 C296 0.928 . S
H310 C295 0.929 . S
H311 C293 0.932 . S
C312 C313 1.386 . S
C312 C314 1.397 . S
C312 H336 0.931 . S
C313 C312 1.386 . S
C313 C317 1.397 . S
C314 C312 1.397 . S
C314 C315 1.384 . S
C314 H337 0.930 . S
C315 C314 1.384 . S
C315 C316 1.377 . S
C315 C318 1.481 . S
C316 C315 1.377 . S
C316 C317 1.389 . S
C316 H338 0.929 . S
C317 C313 1.397 . S
C317 C316 1.389 . S
C317 H339 0.931 . S
C318 C315 1.481 . S
C318 C319 1.387 . S
C318 C323 1.390 . S
C319 C318 1.387 . S
C319 C320 1.401 . S
C319 H340 0.930 . S
C320 C319 1.401 . S
C320 C321 1.376 . S
C320 C329 1.511 . S
C321 C320 1.376 . S
C321 C322 1.392 . S
C321 H342 0.931 . S
C322 C321 1.392 . S
C322 C323 1.361 . S
C322 C324 1.500 . S
C323 C318 1.390 . S
C323 C322 1.361 . S
C323 H341 0.931 . S
C324 C322 1.500 . S
C324 C325 1.371 . S
C324 C326 1.365 . S
C325 C324 1.371 . S
C325 C335 1.386 . S
C325 H343 0.931 . S
C326 C324 1.365 . S
C326 C327 1.409 . S
C326 H344 0.929 . S
C327 C326 1.409 . S
C327 C328 1.380 . S
C327 H345 0.930 . S
C328 C327 1.380 . S
C328 C335 1.357 . S
C329 C320 1.511 . S
C329 C330 1.341 . S
C329 C331 1.371 . S
C330 C329 1.341 . S
C330 C334 1.394 . S
C330 H346 0.930 . S
C331 C329 1.371 . S
C331 C332 1.392 . S
C331 H347 0.931 . S
C332 C331 1.392 . S
C332 C333 1.331 . S
C332 H350 0.932 . S
C333 C332 1.331 . S
C333 C334 1.336 . S
C334 C330 1.394 . S
C334 C333 1.336 . S
C334 H349 0.929 . S
C335 C325 1.386 . S
C335 C328 1.357 . S
C335 H348 0.928 . S
H336 C312 0.931 . S
H337 C314 0.930 . S
H338 C316 0.929 . S
H339 C317 0.931 . S
H340 C319 0.930 . S
H341 C323 0.931 . S
H342 C321 0.931 . S
H343 C325 0.931 . S
H344 C326 0.929 . S
H345 C327 0.930 . S
H346 C330 0.930 . S
H347 C331 0.931 . S
H348 C335 0.928 . S
H349 C334 0.929 . S
H350 C332 0.932 . S
C351 C352 1.386 . S
C351 C353 1.397 . S
C351 H375 0.931 . S
C352 C351 1.386 . S
C352 C356 1.397 . S
C353 C351 1.397 . S
C353 C354 1.384 . S
C353 H376 0.930 . S
C354 C353 1.384 . S
C354 C355 1.377 . S
C354 C357 1.481 . S
C355 C354 1.377 . S
C355 C356 1.389 . S
C355 H377 0.929 . S
C356 C352 1.397 . S
C356 C355 1.389 . S
C356 H378 0.931 . S
C357 C354 1.481 . S
C357 C358 1.387 . S
C357 C362 1.390 . S
C358 C357 1.387 . S
C358 C359 1.401 . S
C358 H379 0.930 . S
C359 C358 1.401 . S
C359 C360 1.376 . S
C359 C368 1.511 . S
C360 C359 1.376 . S
C360 C361 1.392 . S
C360 H381 0.931 . S
C361 C360 1.392 . S
C361 C362 1.361 . S
C361 C363 1.500 . S
C362 C357 1.390 . S
C362 C361 1.361 . S
C362 H380 0.931 . S
C363 C361 1.500 . S
C363 C364 1.371 . S
C363 C365 1.365 . S
C364 C363 1.371 . S
C364 C374 1.386 . S
C364 H382 0.931 . S
C365 C363 1.365 . S
C365 C366 1.409 . S
C365 H383 0.929 . S
C366 C365 1.409 . S
C366 C367 1.380 . S
C366 H384 0.930 . S
C367 C366 1.380 . S
C367 C374 1.357 . S
C368 C359 1.511 . S
C368 C369 1.341 . S
C368 C370 1.371 . S
C369 C368 1.341 . S
C369 C373 1.394 1_565 S
C369 H385 0.930 . S
C370 C368 1.371 . S
C370 C371 1.407 . S
C370 H386 0.931 . S
C371 C370 1.407 . S
C371 C372 1.319 1_565 S
C371 H389 0.925 1_565 S
C372 C371 1.319 1_545 S
C372 C373 1.336 . S
C373 C369 1.394 1_545 S
C373 C372 1.336 . S
C373 H388 0.929 . S
C374 C364 1.386 . S
C374 C367 1.357 . S
C374 H387 0.928 . S
H375 C351 0.931 . S
H376 C353 0.930 . S
H377 C355 0.929 . S
H378 C356 0.931 . S
H379 C358 0.930 . S
H380 C362 0.931 . S
H381 C360 0.931 . S
H382 C364 0.931 . S
H383 C365 0.929 . S
H384 C366 0.930 . S
H385 C369 0.930 . S
H386 C370 0.931 . S
H387 C374 0.928 . S
H388 C373 0.929 . S
H389 C371 0.925 1_545 S
C390 C391 1.386 . S
C390 C392 1.397 . S
C390 H414 0.931 . S
C391 C390 1.386 . S
C391 C395 1.397 . S
C392 C390 1.397 . S
C392 C393 1.384 . S
C392 H415 0.930 . S
C393 C392 1.384 . S
C393 C394 1.377 . S
C393 C396 1.481 . S
C394 C393 1.377 . S
C394 C395 1.389 . S
C394 H416 0.929 . S
C395 C391 1.397 . S
C395 C394 1.389 . S
C395 H417 0.931 . S
C396 C393 1.481 . S
C396 C397 1.387 . S
C396 C401 1.390 . S
C397 C396 1.387 . S
C397 C398 1.401 . S
C397 H418 0.930 . S
C398 C397 1.401 . S
C398 C399 1.376 . S
C398 C407 1.511 . S
C399 C398 1.376 . S
C399 C400 1.392 . S
C399 H420 0.931 . S
C400 C399 1.392 . S
C400 C401 1.361 . S
C400 C402 1.500 . S
C401 C396 1.390 . S
C401 C400 1.361 . S
C401 H419 0.931 . S
C402 C400 1.500 . S
C402 C403 1.371 . S
C402 C404 1.365 . S
C403 C402 1.371 . S
C403 C413 1.386 . S
C403 H421 0.931 . S
C404 C402 1.365 . S
C404 C405 1.409 . S
C404 H422 0.929 . S
C405 C404 1.409 . S
C405 C406 1.380 . S
C405 H423 0.930 . S
C406 C405 1.380 . S
C406 C413 1.357 . S
C407 C398 1.511 . S
C407 C408 1.341 . S
C407 C409 1.371 . S
C408 C407 1.341 . S
C408 C412 1.394 . S
C408 H424 0.930 . S
C409 C407 1.371 . S
C409 C410 1.392 . S
C409 H425 0.931 . S
C410 C409 1.392 . S
C410 C411 1.331 . S
C410 H428 0.932 . S
C411 C410 1.331 . S
C411 C412 1.336 . S
C412 C408 1.394 . S
C412 C411 1.336 . S
C412 H427 0.929 . S
C413 C403 1.386 . S
C413 C406 1.357 . S
C413 H426 0.928 . S
H414 C390 0.931 . S
H415 C392 0.930 . S
H416 C394 0.929 . S
H417 C395 0.931 . S
H418 C397 0.930 . S
H419 C401 0.931 . S
H420 C399 0.931 . S
H421 C403 0.931 . S
H422 C404 0.929 . S
H423 C405 0.930 . S
H424 C408 0.930 . S
H425 C409 0.931 . S
H426 C413 0.928 . S
H427 C412 0.929 . S
H428 C410 0.932 . S
C429 C430 1.386 . S
C429 C431 1.397 . S
C429 H453 0.931 . S
C430 C429 1.386 . S
C430 C434 1.397 . S
C431 C429 1.397 . S
C431 C432 1.384 . S
C431 H454 0.930 . S
C432 C431 1.384 . S
C432 C433 1.377 . S
C432 C435 1.481 . S
C433 C432 1.377 . S
C433 C434 1.389 . S
C433 H455 0.929 . S
C434 C430 1.397 . S
C434 C433 1.389 . S
C434 H456 0.931 . S
C435 C432 1.481 . S
C435 C436 1.387 . S
C435 C440 1.390 . S
C436 C435 1.387 . S
C436 C437 1.401 . S
C436 H457 0.930 . S
C437 C436 1.401 . S
C437 C438 1.376 . S
C437 C446 1.511 . S
C438 C437 1.376 . S
C438 C439 1.392 . S
C438 H459 0.931 . S
C439 C438 1.392 . S
C439 C440 1.361 . S
C439 C441 1.500 . S
C440 C435 1.390 . S
C440 C439 1.361 . S
C440 H458 0.931 . S
C441 C439 1.500 . S
C441 C442 1.371 . S
C441 C443 1.365 . S
C442 C441 1.371 . S
C442 C452 1.386 . S
C442 H460 0.931 . S
C443 C441 1.365 . S
C443 C444 1.409 . S
C443 H461 0.929 . S
C444 C443 1.409 . S
C444 C445 1.380 . S
C444 H462 0.930 . S
C445 C444 1.380 . S
C445 C452 1.357 . S
C446 C437 1.511 . S
C446 C447 1.341 . S
C446 C448 1.371 . S
C447 C446 1.341 . S
C447 C451 1.394 . S
C447 H463 0.930 . S
C448 C446 1.371 . S
C448 C449 1.392 . S
C448 H464 0.931 . S
C449 C448 1.392 . S
C449 C450 1.331 . S
C449 H467 0.932 . S
C450 C449 1.331 . S
C450 C451 1.336 . S
C451 C447 1.394 . S
C451 C450 1.336 . S
C451 H466 0.929 . S
C452 C442 1.386 . S
C452 C445 1.357 . S
C452 H465 0.928 . S
H453 C429 0.931 . S
H454 C431 0.930 . S
H455 C433 0.929 . S
H456 C434 0.931 . S
H457 C436 0.930 . S
H458 C440 0.931 . S
H459 C438 0.931 . S
H460 C442 0.931 . S
H461 C443 0.929 . S
H462 C444 0.930 . S
H463 C447 0.930 . S
H464 C448 0.931 . S
H465 C452 0.928 . S
H466 C451 0.929 . S
H467 C449 0.932 . S
C468 C469 1.386 . S
C468 C470 1.397 . S
C468 H492 0.931 . S
C469 C468 1.386 . S
C469 C473 1.397 . S
C470 C468 1.397 . S
C470 C471 1.384 . S
C470 H493 0.930 . S
C471 C470 1.384 . S
C471 C472 1.377 . S
C471 C474 1.481 . S
C472 C471 1.377 . S
C472 C473 1.389 . S
C472 H494 0.929 . S
C473 C469 1.397 . S
C473 C472 1.389 . S
C473 H495 0.931 . S
C474 C471 1.481 . S
C474 C475 1.387 . S
C474 C479 1.390 . S
C475 C474 1.387 . S
C475 C476 1.401 . S
C475 H496 0.930 . S
C476 C475 1.401 . S
C476 C477 1.376 . S
C476 C485 1.511 . S
C477 C476 1.376 . S
C477 C478 1.392 . S
C477 H498 0.931 . S
C478 C477 1.392 . S
C478 C479 1.361 . S
C478 C480 1.500 . S
C479 C474 1.390 . S
C479 C478 1.361 . S
C479 H497 0.931 . S
C480 C478 1.500 . S
C480 C481 1.371 . S
C480 C482 1.365 . S
C481 C480 1.371 . S
C481 C491 1.386 . S
C481 H499 0.931 . S
C482 C480 1.365 . S
C482 C483 1.409 . S
C482 H500 0.929 . S
C483 C482 1.409 . S
C483 C484 1.380 . S
C483 H501 0.930 . S
C484 C483 1.380 . S
C484 C491 1.357 . S
C485 C476 1.511 . S
C485 C486 1.341 . S
C485 C487 1.371 . S
C486 C485 1.341 . S
C486 C490 1.394 . S
C486 H502 0.930 . S
C487 C485 1.371 . S
C487 C488 1.392 . S
C487 H503 0.931 . S
C488 C487 1.392 . S
C488 C489 1.331 . S
C488 H506 0.932 . S
C489 C488 1.331 . S
C489 C490 1.336 . S
C490 C486 1.394 . S
C490 C489 1.336 . S
C490 H505 0.929 . S
C491 C481 1.386 . S
C491 C484 1.357 . S
C491 H504 0.928 . S
H492 C468 0.931 . S
H493 C470 0.930 . S
H494 C472 0.929 . S
H495 C473 0.931 . S
H496 C475 0.930 . S
H497 C479 0.931 . S
H498 C477 0.931 . S
H499 C481 0.931 . S
H500 C482 0.929 . S
H501 C483 0.930 . S
H502 C486 0.930 . S
H503 C487 0.931 . S
H504 C491 0.928 . S
H505 C490 0.929 . S
H506 C488 0.932 . S
C507 C508 1.386 . S
C507 C509 1.397 . S
C507 H531 0.931 . S
C508 C507 1.386 . S
C508 C512 1.397 . S
C509 C507 1.397 . S
C509 C510 1.384 . S
C509 H532 0.930 . S
C510 C509 1.384 . S
C510 C511 1.377 . S
C510 C513 1.481 . S
C511 C510 1.377 . S
C511 C512 1.389 . S
C511 H533 0.929 . S
C512 C508 1.397 . S
C512 C511 1.389 . S
C512 H534 0.931 . S
C513 C510 1.481 . S
C513 C514 1.387 . S
C513 C518 1.390 . S
C514 C513 1.387 . S
C514 C515 1.401 . S
C514 H535 0.930 . S
C515 C514 1.401 . S
C515 C516 1.376 . S
C515 C524 1.511 . S
C516 C515 1.376 . S
C516 C517 1.392 . S
C516 H537 0.931 . S
C517 C516 1.392 . S
C517 C518 1.361 . S
C517 C519 1.500 . S
C518 C513 1.390 . S
C518 C517 1.361 . S
C518 H536 0.931 . S
C519 C517 1.500 . S
C519 C520 1.371 . S
C519 C521 1.365 . S
C520 C519 1.371 . S
C520 C530 1.386 . S
C520 H538 0.931 . S
C521 C519 1.365 . S
C521 C522 1.409 . S
C521 H539 0.929 . S
C522 C521 1.409 . S
C522 C523 1.380 . S
C522 H540 0.930 . S
C523 C522 1.380 . S
C523 C530 1.357 . S
C524 C515 1.511 . S
C524 C525 1.341 . S
C524 C526 1.371 . S
C525 C524 1.341 . S
C525 C529 1.394 . S
C525 H541 0.930 . S
C526 C524 1.371 . S
C526 C527 1.392 1_556 S
C526 H542 0.931 . S
C527 C526 1.392 1_554 S
C527 C528 1.331 . S
C527 H545 0.932 . S
C528 C527 1.331 . S
C528 C529 1.336 1_554 S
C529 C525 1.394 . S
C529 C528 1.336 1_556 S
C529 H544 0.929 . S
C530 C520 1.386 . S
C530 C523 1.357 . S
C530 H543 0.928 . S
H531 C507 0.931 . S
H532 C509 0.930 . S
H533 C511 0.929 . S
H534 C512 0.931 . S
H535 C514 0.930 . S
H536 C518 0.931 . S
H537 C516 0.931 . S
H538 C520 0.931 . S
H539 C521 0.929 . S
H540 C522 0.930 . S
H541 C525 0.930 . S
H542 C526 0.931 . S
H543 C530 0.928 . S
H544 C529 0.929 . S
H545 C527 0.932 . S
C546 C547 1.386 . S
C546 C548 1.397 . S
C546 H570 0.931 . S
C547 C546 1.386 . S
C547 C551 1.397 . S
C548 C546 1.397 . S
C548 C549 1.384 . S
C548 H571 0.930 . S
C549 C548 1.384 . S
C549 C550 1.377 . S
C549 C552 1.481 . S
C550 C549 1.377 . S
C550 C551 1.389 . S
C550 H572 0.929 . S
C551 C547 1.397 . S
C551 C550 1.389 . S
C551 H573 0.931 . S
C552 C549 1.481 . S
C552 C553 1.387 . S
C552 C557 1.390 . S
C553 C552 1.387 . S
C553 C554 1.401 . S
C553 H574 0.930 . S
C554 C553 1.401 . S
C554 C555 1.376 . S
C554 C563 1.511 . S
C555 C554 1.376 . S
C555 C556 1.392 . S
C555 H576 0.931 . S
C556 C555 1.392 . S
C556 C557 1.361 . S
C556 C558 1.500 . S
C557 C552 1.390 . S
C557 C556 1.361 . S
C557 H575 0.931 . S
C558 C556 1.500 . S
C558 C559 1.371 . S
C558 C560 1.365 . S
C559 C558 1.371 . S
C559 C569 1.386 . S
C559 H577 0.931 . S
C560 C558 1.365 . S
C560 C561 1.409 . S
C560 H578 0.929 . S
C561 C560 1.409 . S
C561 C562 1.380 . S
C561 H579 0.930 . S
C562 C561 1.380 . S
C562 C569 1.357 . S
C563 C554 1.511 . S
C563 C564 1.341 . S
C563 C565 1.371 . S
C564 C563 1.341 . S
C564 C568 1.394 . S
C564 H580 0.930 . S
C565 C563 1.371 . S
C565 C566 1.392 . S
C565 H581 0.931 . S
C566 C565 1.392 . S
C566 C567 1.331 . S
C566 H584 0.932 . S
C567 C566 1.331 . S
C567 C568 1.336 . S
C568 C564 1.394 . S
C568 C567 1.336 . S
C568 H583 0.929 . S
C569 C559 1.386 . S
C569 C562 1.357 . S
C569 H582 0.928 . S
H570 C546 0.931 . S
H571 C548 0.930 . S
H572 C550 0.929 . S
H573 C551 0.931 . S
H574 C553 0.930 . S
H575 C557 0.931 . S
H576 C555 0.931 . S
H577 C559 0.931 . S
H578 C560 0.929 . S
H579 C561 0.930 . S
H580 C564 0.930 . S
H581 C565 0.931 . S
H582 C569 0.928 . S
H583 C568 0.929 . S
H584 C566 0.932 . S
C585 C586 1.386 1_556 S
C585 C587 1.397 . S
C585 H609 0.931 . S
C586 C585 1.386 1_554 S
C586 C590 1.397 . S
C587 C585 1.397 . S
C587 C588 1.384 . S
C587 H610 0.930 . S
C588 C587 1.384 . S
C588 C589 1.377 1_556 S
C588 C591 1.481 . S
C589 C588 1.377 1_554 S
C589 C590 1.389 . S
C589 H611 0.929 . S
C590 C586 1.397 . S
C590 C589 1.389 . S
C590 H612 0.931 . S
C591 C588 1.481 . S
C591 C592 1.387 . S
C591 C596 1.390 . S
C592 C591 1.387 . S
C592 C593 1.401 . S
C592 H613 0.930 . S
C593 C592 1.401 . S
C593 C594 1.376 . S
C593 C602 1.511 . S
C594 C593 1.376 . S
C594 C595 1.392 . S
C594 H615 0.931 . S
C595 C594 1.392 . S
C595 C596 1.361 . S
C595 C597 1.500 . S
C596 C591 1.390 . S
C596 C595 1.361 . S
C596 H614 0.931 . S
C597 C595 1.500 . S
C597 C598 1.371 . S
C597 C599 1.365 . S
C598 C597 1.371 . S
C598 C608 1.386 1_545 S
C598 H616 0.931 . S
C599 C597 1.365 . S
C599 C600 1.409 1_545 S
C599 H617 0.934 1_556 S
C600 C599 1.409 1_565 S
C600 C601 1.380 . S
C600 H618 0.930 1_556 S
C601 C600 1.380 . S
C601 C608 1.357 . S
C602 C593 1.511 . S
C602 C603 1.341 . S
C602 C604 1.371 . S
C603 C602 1.341 . S
C603 C607 1.394 . S
C603 H619 0.930 . S
C604 C602 1.371 . S
C604 C605 1.392 . S
C604 H620 0.931 . S
C605 C604 1.392 . S
C605 C606 1.331 . S
C605 H623 0.905 1_545 S
C606 C605 1.331 . S
C606 C607 1.336 . S
C607 C603 1.394 . S
C607 C606 1.336 . S
C607 H622 0.929 . S
C608 C598 1.386 1_565 S
C608 C601 1.357 . S
C608 H621 0.928 . S
H609 C585 0.931 . S
H610 C587 0.930 . S
H611 C589 0.929 . S
H612 C590 0.931 . S
H613 C592 0.930 . S
H614 C596 0.931 . S
H615 C594 0.931 . S
H616 C598 0.931 . S
H617 C599 0.934 1_554 S
H618 C600 0.930 1_554 S
H619 C603 0.930 . S
H620 C604 0.931 . S
H621 C608 0.928 . S
H622 C607 0.929 . S
H623 C605 0.905 1_565 S
Mg624 O625 2.036 . S
Mg624 O631 1.986 1_554 S
Mg624 O633 2.114 . S
Mg624 O634 2.251 . S
Mg624 O637 2.010 . S
O625 Mg624 2.036 . S
O625 C628 1.244 1_554 S
O626 Mg627 2.028 . S
O626 C628 1.248 . S
Mg627 O626 2.028 . S
Mg627 O632 2.032 . S
Mg627 O634 2.079 1_556 S
C628 O625 1.244 1_556 S
C628 O626 1.248 . S
C629 O630 1.264 . S
C629 O637 1.249 . S
O630 C629 1.264 . S
O631 Mg624 1.986 1_556 S
O631 C635 1.246 . S
O632 Mg627 2.032 . S
O632 C635 1.259 . S
O633 Mg624 2.114 . S
O633 C636 1.252 . S
O634 Mg624 2.251 . S
O634 Mg627 2.079 1_554 S
O634 C636 1.273 . S
C635 O631 1.246 . S
C635 O632 1.259 . S
C636 O633 1.252 . S
C636 O634 1.273 . S
O637 Mg624 2.010 . S
O637 C629 1.249 . S
Mg638 O639 2.028 . S
Mg638 O645 1.986 . S
Mg638 O647 2.114 . S
Mg638 O648 2.251 . S
Mg638 O651 2.010 . S
O639 Mg638 2.028 . S
O639 C642 1.250 . S
O640 Mg641 2.028 . S
O640 C642 1.248 . S
Mg641 O640 2.028 . S
Mg641 O646 2.032 . S
Mg641 O648 2.079 . S
C642 O639 1.250 . S
C642 O640 1.248 . S
C643 O644 1.264 . S
C643 O651 1.249 . S
O644 C643 1.264 . S
O645 Mg638 1.986 . S
O645 C649 1.246 . S
O646 Mg641 2.032 . S
O646 C649 1.259 . S
O647 Mg638 2.114 . S
O647 C650 1.252 . S
O648 Mg638 2.251 . S
O648 Mg641 2.079 . S
O648 C650 1.273 . S
C649 O645 1.246 . S
C649 O646 1.259 . S
C650 O647 1.252 . S
C650 O648 1.273 . S
O651 Mg638 2.010 . S
O651 C643 1.249 . S
Mg652 O653 2.028 . S
Mg652 O659 1.986 1_554 S
Mg652 O661 2.114 . S
Mg652 O662 2.251 . S
Mg652 O665 2.010 . S
O653 Mg652 2.028 . S
O653 C656 1.250 . S
O654 Mg655 2.029 . S
O654 C656 1.247 1_556 S
Mg655 O654 2.029 . S
Mg655 O660 2.032 . S
Mg655 O662 2.079 1_556 S
C656 O653 1.250 . S
C656 O654 1.247 1_554 S
C657 O658 1.264 . S
C657 O665 1.249 . S
O658 C657 1.264 . S
O659 Mg652 1.986 1_556 S
O659 C663 1.246 . S
O660 Mg655 2.032 . S
O660 C663 1.259 . S
O661 Mg652 2.114 . S
O661 C664 1.252 . S
O662 Mg652 2.251 . S
O662 Mg655 2.079 1_554 S
O662 C664 1.273 . S
C663 O659 1.246 . S
C663 O660 1.259 . S
C664 O661 1.252 . S
C664 O662 1.273 . S
O665 Mg652 2.010 . S
O665 C657 1.249 . S
Mg666 O667 2.028 . S
Mg666 O673 1.986 . S
Mg666 O675 2.114 . S
Mg666 O676 2.251 . S
Mg666 O679 2.010 . S
O667 Mg666 2.028 . S
O667 C670 1.250 1_545 S
O668 Mg669 2.028 . S
O668 C670 1.248 . S
Mg669 O668 2.028 . S
Mg669 O674 2.032 . S
Mg669 O676 2.079 1_565 S
C670 O667 1.250 1_565 S
C670 O668 1.248 . S
C671 O672 1.264 . S
C671 O679 1.249 . S
O672 C671 1.264 . S
O673 Mg666 1.986 . S
O673 C677 1.246 . S
O674 Mg669 2.032 . S
O674 C677 1.259 1_565 S
O675 Mg666 2.114 . S
O675 C678 1.252 . S
O676 Mg666 2.251 . S
O676 Mg669 2.079 1_545 S
O676 C678 1.273 . S
C677 O673 1.246 . S
C677 O674 1.259 1_545 S
C678 O675 1.252 . S
C678 O676 1.273 . S
O679 Mg666 2.010 . S
O679 C671 1.249 . S
Mg680 O681 2.028 . S
Mg680 O687 1.986 . S
Mg680 O689 2.114 . S
Mg680 O690 2.251 . S
Mg680 O693 2.010 . S
O681 Mg680 2.028 . S
O681 C684 1.250 . S
O682 Mg683 2.028 . S
O682 C684 1.248 . S
Mg683 O682 2.028 . S
Mg683 O688 2.032 . S
Mg683 O690 2.079 . S
C684 O681 1.250 . S
C684 O682 1.248 . S
C685 O686 1.264 . S
C685 O693 1.249 . S
O686 C685 1.264 . S
O687 Mg680 1.986 . S
O687 C691 1.246 . S
O688 Mg683 2.032 . S
O688 C691 1.259 . S
O689 Mg680 2.114 . S
O689 C692 1.252 . S
O690 Mg680 2.251 . S
O690 Mg683 2.079 . S
O690 C692 1.273 . S
C691 O687 1.246 . S
C691 O688 1.259 . S
C692 O689 1.252 . S
C692 O690 1.273 . S
O693 Mg680 2.010 . S
O693 C685 1.249 . S
Mg694 O695 2.028 . S
Mg694 O701 1.986 . S
Mg694 O703 2.114 . S
Mg694 O704 2.251 . S
Mg694 O707 2.010 . S
O695 Mg694 2.028 . S
O695 C698 1.250 . S
O696 Mg697 2.028 . S
O696 C698 1.248 . S
Mg697 O696 2.028 . S
Mg697 O702 2.032 . S
Mg697 O704 2.079 . S
C698 O695 1.250 . S
C698 O696 1.248 . S
C699 O700 1.264 . S
C699 O707 1.249 . S
O700 C699 1.264 . S
O701 Mg694 1.986 . S
O701 C705 1.246 . S
O702 Mg697 2.032 . S
O702 C705 1.259 . S
O703 Mg694 2.114 . S
O703 C706 1.252 . S
O704 Mg694 2.251 . S
O704 Mg697 2.079 . S
O704 C706 1.273 . S
C705 O701 1.246 . S
C705 O702 1.259 . S
C706 O703 1.252 . S
C706 O704 1.273 . S
O707 Mg694 2.010 . S
O707 C699 1.249 . S
Mg708 O709 2.028 . S
Mg708 O715 1.986 . S
Mg708 O717 2.114 . S
Mg708 O718 2.251 . S
Mg708 O721 2.010 . S
O709 Mg708 2.028 . S
O709 C712 1.250 . S
O710 Mg711 2.028 . S
O710 C712 1.248 . S
Mg711 O710 2.028 . S
Mg711 O716 2.032 . S
Mg711 O718 2.079 . S
C712 O709 1.250 . S
C712 O710 1.248 . S
C713 O714 1.264 . S
C713 O721 1.249 . S
O714 C713 1.264 . S
O715 Mg708 1.986 . S
O715 C719 1.246 . S
O716 Mg711 2.032 . S
O716 C719 1.259 . S
O717 Mg708 2.114 . S
O717 C720 1.252 . S
O718 Mg708 2.251 . S
O718 Mg711 2.079 . S
O718 C720 1.273 . S
C719 O715 1.246 . S
C719 O716 1.259 . S
C720 O717 1.252 . S
C720 O718 1.273 . S
O721 Mg708 2.010 . S
O721 C713 1.249 . S
Mg722 O723 2.028 1_545 S
Mg722 O729 1.986 1_545 S
Mg722 O731 2.114 . S
Mg722 O732 2.251 . S
Mg722 O735 2.010 . S
O723 Mg722 2.028 1_565 S
O723 C726 1.250 . S
O724 Mg725 2.028 . S
O724 C726 1.248 . S
Mg725 O724 2.028 . S
Mg725 O730 2.032 . S
Mg725 O732 2.079 1_565 S
C726 O723 1.250 . S
C726 O724 1.248 . S
C727 O728 1.264 . S
C727 O735 1.249 . S
O728 C727 1.264 . S
O729 Mg722 1.986 1_565 S
O729 C733 1.246 . S
O730 Mg725 2.032 . S
O730 C733 1.259 . S
O731 Mg722 2.114 . S
O731 C734 1.252 . S
O732 Mg722 2.251 . S
O732 Mg725 2.079 1_545 S
O732 C734 1.273 . S
C733 O729 1.246 . S
C733 O730 1.259 . S
C734 O731 1.252 . S
C734 O732 1.273 . S
O735 Mg722 2.010 . S
O735 C727 1.249 . S
Mg736 O737 2.028 . S
Mg736 O743 1.986 . S
Mg736 O745 2.114 . S
Mg736 O746 2.251 . S
Mg736 O749 2.010 . S
O737 Mg736 2.028 . S
O737 C740 1.250 1_455 S
O738 Mg739 2.028 . S
O738 C740 1.248 . S
Mg739 O738 2.028 . S
Mg739 O744 2.032 . S
Mg739 O746 2.079 1_655 S
C740 O737 1.250 1_655 S
C740 O738 1.248 . S
C741 O742 1.264 . S
C741 O749 1.249 . S
O742 C741 1.264 . S
O743 Mg736 1.986 . S
O743 C747 1.246 . S
O744 Mg739 2.032 . S
O744 C747 1.259 1_655 S
O745 Mg736 2.114 . S
O745 C748 1.252 . S
O746 Mg736 2.251 . S
O746 Mg739 2.079 1_455 S
O746 C748 1.273 . S
C747 O743 1.246 . S
C747 O744 1.259 1_455 S
C748 O745 1.252 . S
C748 O746 1.273 . S
O749 Mg736 2.010 . S
O749 C741 1.249 . S
Mg750 O751 2.028 . S
Mg750 O757 1.986 . S
Mg750 O759 2.114 . S
Mg750 O760 2.251 . S
Mg750 O763 2.010 . S
O751 Mg750 2.028 . S
O751 C754 1.250 . S
O752 Mg753 2.028 . S
O752 C754 1.248 . S
Mg753 O752 2.028 . S
Mg753 O758 2.032 . S
Mg753 O760 2.079 . S
C754 O751 1.250 . S
C754 O752 1.248 . S
C755 O756 1.264 . S
C755 O763 1.249 . S
O756 C755 1.264 . S
O757 Mg750 1.986 . S
O757 C761 1.246 . S
O758 Mg753 2.032 . S
O758 C761 1.259 . S
O759 Mg750 2.114 . S
O759 C762 1.252 . S
O760 Mg750 2.251 . S
O760 Mg753 2.079 . S
O760 C762 1.273 . S
C761 O757 1.246 . S
C761 O758 1.259 . S
C762 O759 1.252 . S
C762 O760 1.273 . S
O763 Mg750 2.010 . S
O763 C755 1.249 . S
Mg764 O765 2.028 1_655 S
Mg764 O771 2.001 . S
Mg764 O773 2.114 . S
Mg764 O774 2.251 1_655 S
Mg764 O777 2.010 . S
O765 Mg764 2.028 1_455 S
O765 C768 1.250 . S
O766 Mg767 2.028 . S
O766 C768 1.248 . S
Mg767 O766 2.028 . S
Mg767 O772 2.032 . S
Mg767 O774 2.079 . S
C768 O765 1.250 . S
C768 O766 1.248 . S
C769 O770 1.264 . S
C769 O777 1.249 . S
O770 C769 1.264 . S
O771 Mg764 2.001 . S
O771 C775 1.207 1_655 S
O772 Mg767 2.032 . S
O772 C775 1.259 . S
O773 Mg764 2.114 . S
O773 C776 1.252 . S
O774 Mg764 2.251 1_455 S
O774 Mg767 2.079 . S
O774 C776 1.273 1_455 S
C775 O771 1.207 1_455 S
C775 O772 1.259 . S
C776 O773 1.252 . S
C776 O774 1.273 1_655 S
O777 Mg764 2.010 . S
O777 C769 1.249 . S
Mg778 O779 2.028 . S
Mg778 O785 1.986 . S
Mg778 O787 2.114 . S
Mg778 O788 2.251 . S
Mg778 O791 2.010 . S
O779 Mg778 2.028 . S
O779 C782 1.250 . S
O780 Mg781 2.028 . S
O780 C782 1.248 . S
Mg781 O780 2.028 . S
Mg781 O786 2.032 . S
Mg781 O788 2.079 . S
C782 O779 1.250 . S
C782 O780 1.248 . S
C783 O784 1.264 . S
C783 O791 1.249 . S
O784 C783 1.264 . S
O785 Mg778 1.986 . S
O785 C789 1.246 . S
O786 Mg781 2.032 . S
O786 C789 1.259 . S
O787 Mg778 2.114 . S
O787 C790 1.252 . S
O788 Mg778 2.251 . S
O788 Mg781 2.079 . S
O788 C790 1.273 . S
C789 O785 1.246 . S
C789 O786 1.259 . S
C790 O787 1.252 . S
C790 O788 1.273 . S
O791 Mg778 2.010 . S
O791 C783 1.249 . S
H792 C810 0.951 . S
H793 C812 0.951 . S
H794 C814 0.950 . S
H795 C815 0.950 . S
H796 C817 0.950 . S
H797 C820 0.950 . S
H798 C821 0.950 . S
H799 C823 0.950 . S
H800 C824 0.950 . S
H801 C825 0.951 . S
H802 C827 0.951 . S
H803 C829 0.950 . S
H804 C830 0.950 . S
H805 C832 0.950 . S
H806 C835 0.950 . S
H807 C836 0.950 . S
H808 C838 0.950 . S
H809 C839 0.950 . S
C810 H792 0.951 . S
C810 C811 1.366 . S
C810 C812 1.388 . S
C811 C810 1.366 . S
C811 C815 1.385 . S
C812 H793 0.951 . S
C812 C810 1.388 . S
C812 C813 1.366 . S
C813 C812 1.366 . S
C813 C814 1.414 . S
C813 C816 1.499 . S
C814 H794 0.950 . S
C814 C813 1.414 . S
C814 C815 1.374 . S
C815 H795 0.950 . S
C815 C811 1.385 . S
C815 C814 1.374 . S
C816 C813 1.499 . S
C816 C817 1.373 . S
C816 C818 1.389 . S
C817 H796 0.950 . S
C817 C816 1.373 . S
C817 C833 1.377 . S
C818 C816 1.389 . S
C818 C819 1.524 . S
C818 C832 1.377 . S
C819 C818 1.524 . S
C819 C820 1.397 . S
C819 C824 1.363 . S
C820 H797 0.950 . S
C820 C819 1.397 . S
C820 C821 1.334 . S
C821 H798 0.950 . S
C821 C820 1.334 . S
C821 C822 1.287 . S
C822 C821 1.287 . S
C822 C823 1.524 . S
C822 H841 0.913 . S
C823 H799 0.950 . S
C823 C822 1.524 . S
C823 C824 1.415 . S
C824 H800 0.950 . S
C824 C819 1.363 . S
C824 C823 1.415 . S
C825 H801 0.951 . S
C825 C826 1.366 . S
C825 C827 1.388 . S
C826 C825 1.366 . S
C826 C830 1.385 . S
C827 H802 0.951 . S
C827 C825 1.388 . S
C827 C828 1.366 . S
C828 C827 1.366 . S
C828 C829 1.414 . S
C828 C831 1.499 . S
C829 H803 0.950 . S
C829 C828 1.414 . S
C829 C830 1.374 . S
C830 H804 0.950 . S
C830 C826 1.385 . S
C830 C829 1.374 . S
C831 C828 1.499 . S
C831 C832 1.373 . S
C831 C833 1.389 . S
C832 H805 0.950 . S
C832 C818 1.377 . S
C832 C831 1.373 . S
C833 C817 1.377 . S
C833 C831 1.389 . S
C833 C834 1.524 . S
C834 C833 1.524 . S
C834 C835 1.397 . S
C834 C839 1.363 . S
C835 H806 0.950 . S
C835 C834 1.397 . S
C835 C836 1.334 . S
C836 H807 0.950 . S
C836 C835 1.334 . S
C836 C837 1.287 . S
C837 C836 1.287 . S
C837 C838 1.524 . S
C837 H840 0.999 . S
C838 H808 0.950 . S
C838 C837 1.524 . S
C838 C839 1.415 . S
C839 H809 0.950 . S
C839 C834 1.363 . S
C839 C838 1.415 . S
H840 C837 0.999 . S
H841 C822 0.913 . S
H842 C860 0.951 . S
H843 C862 0.951 . S
H844 C864 0.950 . S
H845 C865 0.950 . S
H846 C867 0.950 . S
H847 C870 0.950 . S
H848 C871 0.950 . S
H849 C873 0.950 . S
H850 C874 0.950 . S
H851 C875 0.951 . S
H852 C877 0.951 . S
H853 C879 0.950 . S
H854 C880 0.950 . S
H855 C882 0.950 . S
H856 C885 0.950 . S
H857 C886 0.950 . S
H858 C888 0.950 . S
H859 C889 0.950 . S
C860 H842 0.951 . S
C860 C861 1.366 . S
C860 C862 1.388 . S
C861 C860 1.366 . S
C861 C865 1.385 . S
C862 H843 0.951 . S
C862 C860 1.388 . S
C862 C863 1.366 . S
C863 C862 1.366 . S
C863 C864 1.414 . S
C863 C866 1.499 . S
C864 H844 0.950 . S
C864 C863 1.414 . S
C864 C865 1.374 . S
C865 H845 0.950 . S
C865 C861 1.385 . S
C865 C864 1.374 . S
C866 C863 1.499 . S
C866 C867 1.373 . S
C866 C868 1.389 . S
C867 H846 0.950 . S
C867 C866 1.373 . S
C867 C883 1.377 . S
C868 C866 1.389 . S
C868 C869 1.524 . S
C868 C882 1.377 . S
C869 C868 1.524 . S
C869 C870 1.397 . S
C869 C874 1.363 . S
C870 H847 0.950 . S
C870 C869 1.397 . S
C870 C871 1.334 . S
C871 H848 0.950 . S
C871 C870 1.334 . S
C871 C872 1.287 . S
C872 C871 1.287 . S
C872 C873 1.524 . S
C872 H891 0.913 . S
C873 H849 0.950 . S
C873 C872 1.524 . S
C873 C874 1.415 . S
C874 H850 0.950 . S
C874 C869 1.363 . S
C874 C873 1.415 . S
C875 H851 0.951 . S
C875 C876 1.366 . S
C875 C877 1.388 . S
C876 C875 1.366 . S
C876 C880 1.385 . S
C877 H852 0.951 . S
C877 C875 1.388 . S
C877 C878 1.366 . S
C878 C877 1.366 . S
C878 C879 1.414 . S
C878 C881 1.499 . S
C879 H853 0.950 . S
C879 C878 1.414 . S
C879 C880 1.374 . S
C880 H854 0.950 . S
C880 C876 1.385 . S
C880 C879 1.374 . S
C881 C878 1.499 . S
C881 C882 1.373 . S
C881 C883 1.389 . S
C882 H855 0.950 . S
C882 C868 1.377 . S
C882 C881 1.373 . S
C883 C867 1.377 . S
C883 C881 1.389 . S
C883 C884 1.524 . S
C884 C883 1.524 . S
C884 C885 1.397 . S
C884 C889 1.363 . S
C885 H856 0.950 . S
C885 C884 1.397 . S
C885 C886 1.334 . S
C886 H857 0.950 . S
C886 C885 1.334 . S
C886 C887 1.287 . S
C887 C886 1.287 . S
C887 C888 1.524 . S
C887 H890 0.999 . S
C888 H858 0.950 . S
C888 C887 1.524 . S
C888 C889 1.415 . S
C889 H859 0.950 . S
C889 C884 1.363 . S
C889 C888 1.415 . S
H890 C887 0.999 . S
H891 C872 0.913 . S
H892 C910 0.951 . S
H893 C912 0.951 . S
H894 C914 0.950 . S
H895 C915 0.950 . S
H896 C917 0.950 . S
H897 C920 0.950 . S
H898 C921 0.950 . S
H899 C923 0.950 . S
H900 C924 0.950 . S
H901 C925 0.951 . S
H902 C927 0.951 . S
H903 C929 0.950 . S
H904 C930 0.950 . S
H905 C932 0.950 . S
H906 C935 0.950 . S
H907 C936 0.950 . S
H908 C938 0.950 . S
H909 C939 0.950 . S
C910 H892 0.951 . S
C910 C911 1.366 . S
C910 C912 1.388 . S
C911 C910 1.366 . S
C911 C915 1.385 . S
C912 H893 0.951 . S
C912 C910 1.388 . S
C912 C913 1.366 . S
C913 C912 1.366 . S
C913 C914 1.414 . S
C913 C916 1.499 . S
C914 H894 0.950 . S
C914 C913 1.414 . S
C914 C915 1.374 . S
C915 H895 0.950 . S
C915 C911 1.385 . S
C915 C914 1.374 . S
C916 C913 1.499 . S
C916 C917 1.373 . S
C916 C918 1.389 . S
C917 H896 0.950 . S
C917 C916 1.373 . S
C917 C933 1.377 . S
C918 C916 1.389 . S
C918 C919 1.524 . S
C918 C932 1.377 . S
C919 C918 1.524 . S
C919 C920 1.397 . S
C919 C924 1.363 . S
C920 H897 0.950 . S
C920 C919 1.397 . S
C920 C921 1.334 . S
C921 H898 0.950 . S
C921 C920 1.334 . S
C921 C922 1.287 . S
C922 C921 1.287 . S
C922 C923 1.524 . S
C922 H941 0.913 . S
C923 H899 0.950 . S
C923 C922 1.524 . S
C923 C924 1.415 . S
C924 H900 0.950 . S
C924 C919 1.363 . S
C924 C923 1.415 . S
C925 H901 0.951 . S
C925 C926 1.366 . S
C925 C927 1.388 . S
C926 C925 1.366 . S
C926 C930 1.385 . S
C927 H902 0.951 . S
C927 C925 1.388 . S
C927 C928 1.366 . S
C928 C927 1.366 . S
C928 C929 1.414 . S
C928 C931 1.499 . S
C929 H903 0.950 . S
C929 C928 1.414 . S
C929 C930 1.374 . S
C930 H904 0.950 . S
C930 C926 1.385 . S
C930 C929 1.374 . S
C931 C928 1.499 . S
C931 C932 1.373 . S
C931 C933 1.389 . S
C932 H905 0.950 . S
C932 C918 1.377 . S
C932 C931 1.373 . S
C933 C917 1.377 . S
C933 C931 1.389 . S
C933 C934 1.524 . S
C934 C933 1.524 . S
C934 C935 1.397 . S
C934 C939 1.363 . S
C935 H906 0.950 . S
C935 C934 1.397 . S
C935 C936 1.334 . S
C936 H907 0.950 . S
C936 C935 1.334 . S
C936 C937 1.287 . S
C937 C936 1.287 . S
C937 C938 1.524 . S
C937 H940 0.999 . S
C938 H908 0.950 . S
C938 C937 1.524 . S
C938 C939 1.415 . S
C939 H909 0.950 . S
C939 C934 1.363 . S
C939 C938 1.415 . S
H940 C937 0.999 . S
H941 C922 0.913 . S
H942 C960 0.951 . S
H943 C962 0.951 . S
H944 C964 0.950 1_545 S
H945 C965 0.950 . S
H946 C967 0.950 . S
H947 C970 0.950 . S
H948 C971 0.950 . S
H949 C973 0.950 . S
H950 C974 0.950 . S
H951 C975 0.951 . S
H952 C977 0.951 . S
H953 C979 0.950 . S
H954 C980 0.934 1_565 S
H955 C982 0.950 . S
H956 C985 0.950 . S
H957 C986 0.950 . S
H958 C988 0.950 . S
H959 C989 0.950 . S
C960 H942 0.951 . S
C960 C961 1.437 . S
C960 C962 1.388 . S
C961 C960 1.437 . S
C961 C965 1.357 1_655 S
C962 H943 0.951 . S
C962 C960 1.388 . S
C962 C963 1.366 . S
C963 C962 1.366 . S
C963 C964 1.414 . S
C963 C966 1.499 . S
C964 H944 0.950 1_565 S
C964 C963 1.414 . S
C964 C965 1.374 1_655 S
C965 H945 0.950 . S
C965 C961 1.357 1_455 S
C965 C964 1.374 1_455 S
C966 C963 1.499 . S
C966 C967 1.373 1_565 S
C966 C968 1.389 . S
C967 H946 0.950 . S
C967 C966 1.373 1_545 S
C967 C983 1.377 . S
C968 C966 1.389 . S
C968 C969 1.524 . S
C968 C982 1.377 . S
C969 C968 1.524 . S
C969 C970 1.397 . S
C969 C974 1.363 . S
C970 H947 0.950 . S
C970 C969 1.397 . S
C970 C971 1.334 . S
C971 H948 0.950 . S
C971 C970 1.334 . S
C971 C972 1.287 . S
C972 C971 1.287 . S
C972 C973 1.524 . S
C972 H991 0.913 . S
C973 H949 0.950 . S
C973 C972 1.524 . S
C973 C974 1.415 . S
C974 H950 0.950 . S
C974 C969 1.363 . S
C974 C973 1.415 . S
C975 H951 0.951 . S
C975 C976 1.366 . S
C975 C977 1.388 . S
C976 C975 1.366 . S
C976 C980 1.416 . S
C977 H952 0.951 . S
C977 C975 1.388 . S
C977 C978 1.366 . S
C978 C977 1.366 . S
C978 C979 1.414 1_545 S
C978 C981 1.499 . S
C979 H953 0.950 . S
C979 C978 1.414 1_565 S
C979 C980 1.363 1_565 S
C980 H954 0.934 1_545 S
C980 C976 1.416 . S
C980 C979 1.363 1_545 S
C981 C978 1.499 . S
C981 C982 1.373 1_545 S
C981 C983 1.389 . S
C982 H955 0.950 . S
C982 C968 1.377 . S
C982 C981 1.373 1_565 S
C983 C967 1.377 . S
C983 C981 1.389 . S
C983 C984 1.524 . S
C984 C983 1.524 . S
C984 C985 1.397 . S
C984 C989 1.363 . S
C985 H956 0.950 . S
C985 C984 1.397 . S
C985 C986 1.334 . S
C986 H957 0.950 . S
C986 C985 1.334 . S
C986 C987 1.287 . S
C987 C986 1.287 . S
C987 C988 1.524 . S
C987 H990 0.999 . S
C988 H958 0.950 . S
C988 C987 1.524 . S
C988 C989 1.415 . S
C989 H959 0.950 . S
C989 C984 1.363 . S
C989 C988 1.415 . S
H990 C987 0.999 . S
H991 C972 0.913 . S
H992 C1010 0.951 . S
H993 C1012 0.951 . S
H994 C1014 0.950 . S
H995 C1015 0.950 . S
H996 C1017 0.950 . S
H997 C1020 0.950 . S
H998 C1021 0.950 . S
H999 C1023 0.950 . S
H1000 C1024 0.950 . S
H1001 C1025 0.951 . S
H1002 C1027 0.951 . S
H1003 C1029 0.950 . S
H1004 C1030 0.950 . S
H1005 C1032 0.950 . S
H1006 C1035 0.950 . S
H1007 C1036 0.950 . S
H1008 C1038 0.950 . S
H1009 C1039 0.950 . S
C1010 H992 0.951 . S
C1010 C1011 1.366 . S
C1010 C1012 1.388 . S
C1011 C1010 1.366 . S
C1011 C1015 1.385 . S
C1012 H993 0.951 . S
C1012 C1010 1.388 . S
C1012 C1013 1.366 . S
C1013 C1012 1.366 . S
C1013 C1014 1.414 . S
C1013 C1016 1.499 . S
C1014 H994 0.950 . S
C1014 C1013 1.414 . S
C1014 C1015 1.374 . S
C1015 H995 0.950 . S
C1015 C1011 1.385 . S
C1015 C1014 1.374 . S
C1016 C1013 1.499 . S
C1016 C1017 1.373 . S
C1016 C1018 1.389 . S
C1017 H996 0.950 . S
C1017 C1016 1.373 . S
C1017 C1033 1.377 . S
C1018 C1016 1.389 . S
C1018 C1019 1.524 . S
C1018 C1032 1.377 . S
C1019 C1018 1.524 . S
C1019 C1020 1.397 . S
C1019 C1024 1.363 . S
C1020 H997 0.950 . S
C1020 C1019 1.397 . S
C1020 C1021 1.334 . S
C1021 H998 0.950 . S
C1021 C1020 1.334 . S
C1021 C1022 1.287 . S
C1022 C1021 1.287 . S
C1022 C1023 1.524 . S
C1022 H1041 0.913 . S
C1023 H999 0.950 . S
C1023 C1022 1.524 . S
C1023 C1024 1.415 . S
C1024 H1000 0.950 . S
C1024 C1019 1.363 . S
C1024 C1023 1.415 . S
C1025 H1001 0.951 . S
C1025 C1026 1.366 . S
C1025 C1027 1.388 . S
C1026 C1025 1.366 . S
C1026 C1030 1.385 . S
C1027 H1002 0.951 . S
C1027 C1025 1.388 . S
C1027 C1028 1.366 . S
C1028 C1027 1.366 . S
C1028 C1029 1.414 . S
C1028 C1031 1.499 . S
C1029 H1003 0.950 . S
C1029 C1028 1.414 . S
C1029 C1030 1.374 . S
C1030 H1004 0.950 . S
C1030 C1026 1.385 . S
C1030 C1029 1.374 . S
C1031 C1028 1.499 . S
C1031 C1032 1.373 . S
C1031 C1033 1.389 . S
C1032 H1005 0.950 . S
C1032 C1018 1.377 . S
C1032 C1031 1.373 . S
C1033 C1017 1.377 . S
C1033 C1031 1.389 . S
C1033 C1034 1.524 . S
C1034 C1033 1.524 . S
C1034 C1035 1.397 . S
C1034 C1039 1.363 . S
C1035 H1006 0.950 . S
C1035 C1034 1.397 . S
C1035 C1036 1.334 . S
C1036 H1007 0.950 . S
C1036 C1035 1.334 . S
C1036 C1037 1.287 . S
C1037 C1036 1.287 . S
C1037 C1038 1.524 . S
C1037 H1040 0.999 . S
C1038 H1008 0.950 . S
C1038 C1037 1.524 . S
C1038 C1039 1.415 . S
C1039 H1009 0.950 . S
C1039 C1034 1.363 . S
C1039 C1038 1.415 . S
H1040 C1037 0.999 . S
H1041 C1022 0.913 . S
H1042 C1060 0.951 . S
H1043 C1062 0.951 . S
H1044 C1064 0.950 . S
H1045 C1065 0.950 . S
H1046 C1067 0.950 . S
H1047 C1070 0.950 . S
H1048 C1071 0.950 . S
H1049 C1073 0.950 . S
H1050 C1074 0.950 . S
H1051 C1075 0.951 . S
H1052 C1077 0.951 . S
H1053 C1079 0.950 . S
H1054 C1080 0.950 . S
H1055 C1082 0.950 . S
H1056 C1085 0.950 . S
H1057 C1086 0.950 . S
H1058 C1088 0.950 . S
H1059 C1089 0.950 . S
C1060 H1042 0.951 . S
C1060 C1061 1.366 . S
C1060 C1062 1.388 . S
C1061 C1060 1.366 . S
C1061 C1065 1.385 . S
C1062 H1043 0.951 . S
C1062 C1060 1.388 . S
C1062 C1063 1.366 . S
C1063 C1062 1.366 . S
C1063 C1064 1.414 . S
C1063 C1066 1.499 . S
C1064 H1044 0.950 . S
C1064 C1063 1.414 . S
C1064 C1065 1.374 . S
C1065 H1045 0.950 . S
C1065 C1061 1.385 . S
C1065 C1064 1.374 . S
C1066 C1063 1.499 . S
C1066 C1067 1.373 . S
C1066 C1068 1.389 . S
C1067 H1046 0.950 . S
C1067 C1066 1.373 . S
C1067 C1083 1.377 . S
C1068 C1066 1.389 . S
C1068 C1069 1.524 . S
C1068 C1082 1.377 . S
C1069 C1068 1.524 . S
C1069 C1070 1.397 . S
C1069 C1074 1.363 . S
C1070 H1047 0.950 . S
C1070 C1069 1.397 . S
C1070 C1071 1.334 . S
C1071 H1048 0.950 . S
C1071 C1070 1.334 . S
C1071 C1072 1.287 . S
C1072 C1071 1.287 . S
C1072 C1073 1.524 . S
C1072 H1091 0.913 . S
C1073 H1049 0.950 . S
C1073 C1072 1.524 . S
C1073 C1074 1.415 . S
C1074 H1050 0.950 . S
C1074 C1069 1.363 . S
C1074 C1073 1.415 . S
C1075 H1051 0.951 . S
C1075 C1076 1.366 . S
C1075 C1077 1.388 . S
C1076 C1075 1.366 . S
C1076 C1080 1.385 . S
C1077 H1052 0.951 . S
C1077 C1075 1.388 . S
C1077 C1078 1.366 . S
C1078 C1077 1.366 . S
C1078 C1079 1.414 . S
C1078 C1081 1.499 . S
C1079 H1053 0.950 . S
C1079 C1078 1.414 . S
C1079 C1080 1.374 . S
C1080 H1054 0.950 . S
C1080 C1076 1.385 . S
C1080 C1079 1.374 . S
C1081 C1078 1.499 . S
C1081 C1082 1.373 . S
C1081 C1083 1.389 . S
C1082 H1055 0.950 . S
C1082 C1068 1.377 . S
C1082 C1081 1.373 . S
C1083 C1067 1.377 . S
C1083 C1081 1.389 . S
C1083 C1084 1.524 . S
C1084 C1083 1.524 . S
C1084 C1085 1.397 . S
C1084 C1089 1.363 . S
C1085 H1056 0.950 . S
C1085 C1084 1.397 . S
C1085 C1086 1.334 . S
C1086 H1057 0.950 . S
C1086 C1085 1.334 . S
C1086 C1087 1.287 . S
C1087 C1086 1.287 . S
C1087 C1088 1.524 . S
C1087 H1090 0.999 . S
C1088 H1058 0.950 . S
C1088 C1087 1.524 . S
C1088 C1089 1.415 . S
C1089 H1059 0.950 . S
C1089 C1084 1.363 . S
C1089 C1088 1.415 . S
H1090 C1087 0.999 . S
H1091 C1072 0.913 . S
H1092 C1110 0.951 . S
H1093 C1112 0.951 . S
H1094 C1114 0.950 . S
H1095 C1115 0.950 . S
H1096 C1117 0.950 . S
H1097 C1120 0.950 . S
H1098 C1121 0.950 . S
H1099 C1123 0.950 . S
H1100 C1124 0.950 . S
H1101 C1125 0.951 . S
H1102 C1127 0.951 . S
H1103 C1129 0.950 . S
H1104 C1130 0.950 . S
H1105 C1132 0.950 . S
H1106 C1135 0.950 . S
H1107 C1136 0.950 . S
H1108 C1138 0.950 . S
H1109 C1139 0.950 . S
C1110 H1092 0.951 . S
C1110 C1111 1.366 . S
C1110 C1112 1.388 . S
C1111 C1110 1.366 . S
C1111 C1115 1.385 . S
C1112 H1093 0.951 . S
C1112 C1110 1.388 . S
C1112 C1113 1.366 . S
C1113 C1112 1.366 . S
C1113 C1114 1.414 . S
C1113 C1116 1.499 . S
C1114 H1094 0.950 . S
C1114 C1113 1.414 . S
C1114 C1115 1.374 . S
C1115 H1095 0.950 . S
C1115 C1111 1.385 . S
C1115 C1114 1.374 . S
C1116 C1113 1.499 . S
C1116 C1117 1.373 . S
C1116 C1118 1.389 . S
C1117 H1096 0.950 . S
C1117 C1116 1.373 . S
C1117 C1133 1.377 . S
C1118 C1116 1.389 . S
C1118 C1119 1.524 . S
C1118 C1132 1.377 . S
C1119 C1118 1.524 . S
C1119 C1120 1.397 . S
C1119 C1124 1.363 . S
C1120 H1097 0.950 . S
C1120 C1119 1.397 . S
C1120 C1121 1.334 . S
C1121 H1098 0.950 . S
C1121 C1120 1.334 . S
C1121 C1122 1.287 . S
C1122 C1121 1.287 . S
C1122 C1123 1.524 . S
C1122 H1141 0.913 . S
C1123 H1099 0.950 . S
C1123 C1122 1.524 . S
C1123 C1124 1.415 . S
C1124 H1100 0.950 . S
C1124 C1119 1.363 . S
C1124 C1123 1.415 . S
C1125 H1101 0.951 . S
C1125 C1126 1.366 . S
C1125 C1127 1.388 . S
C1126 C1125 1.366 . S
C1126 C1130 1.385 . S
C1127 H1102 0.951 . S
C1127 C1125 1.388 . S
C1127 C1128 1.366 . S
C1128 C1127 1.366 . S
C1128 C1129 1.414 . S
C1128 C1131 1.499 . S
C1129 H1103 0.950 . S
C1129 C1128 1.414 . S
C1129 C1130 1.374 . S
C1130 H1104 0.950 . S
C1130 C1126 1.385 . S
C1130 C1129 1.374 . S
C1131 C1128 1.499 . S
C1131 C1132 1.373 . S
C1131 C1133 1.389 . S
C1132 H1105 0.950 . S
C1132 C1118 1.377 . S
C1132 C1131 1.373 . S
C1133 C1117 1.377 . S
C1133 C1131 1.389 . S
C1133 C1134 1.524 . S
C1134 C1133 1.524 . S
C1134 C1135 1.397 . S
C1134 C1139 1.363 . S
C1135 H1106 0.950 . S
C1135 C1134 1.397 . S
C1135 C1136 1.334 . S
C1136 H1107 0.950 . S
C1136 C1135 1.334 . S
C1136 C1137 1.287 . S
C1137 C1136 1.287 . S
C1137 C1138 1.524 . S
C1137 H1140 0.999 . S
C1138 H1108 0.950 . S
C1138 C1137 1.524 . S
C1138 C1139 1.415 . S
C1139 H1109 0.950 . S
C1139 C1134 1.363 . S
C1139 C1138 1.415 . S
H1140 C1137 0.999 . S
H1141 C1122 0.913 . S
H1142 C1160 0.951 . S
H1143 C1162 0.951 . S
H1144 C1164 0.950 . S
H1145 C1165 0.950 . S
H1146 C1167 0.950 . S
H1147 C1170 0.950 . S
H1148 C1171 0.950 . S
H1149 C1173 0.950 . S
H1150 C1174 0.950 . S
H1151 C1175 0.951 . S
H1152 C1177 0.951 . S
H1153 C1179 0.950 . S
H1154 C1180 0.958 . S
H1155 C1182 0.909 1_545 S
H1156 C1185 0.950 . S
H1157 C1186 0.950 . S
H1158 C1188 0.950 . S
H1159 C1189 0.950 . S
C1160 H1142 0.951 . S
C1160 C1161 1.366 . S
C1160 C1162 1.388 . S
C1161 C1160 1.366 . S
C1161 C1165 1.385 . S
C1162 H1143 0.951 . S
C1162 C1160 1.388 . S
C1162 C1163 1.366 . S
C1163 C1162 1.366 . S
C1163 C1164 1.414 . S
C1163 C1166 1.499 . S
C1164 H1144 0.950 . S
C1164 C1163 1.414 . S
C1164 C1165 1.374 . S
C1165 H1145 0.950 . S
C1165 C1161 1.385 . S
C1165 C1164 1.374 . S
C1166 C1163 1.499 . S
C1166 C1167 1.373 . S
C1166 C1168 1.389 . S
C1167 H1146 0.950 . S
C1167 C1166 1.373 . S
C1167 C1183 1.377 . S
C1168 C1166 1.389 . S
C1168 C1169 1.524 1_565 S
C1168 C1182 1.380 . S
C1169 C1168 1.524 1_545 S
C1169 C1170 1.397 . S
C1169 C1174 1.363 . S
C1170 H1147 0.950 . S
C1170 C1169 1.397 . S
C1170 C1171 1.334 . S
C1171 H1148 0.950 . S
C1171 C1170 1.334 . S
C1171 C1172 1.287 . S
C1172 C1171 1.287 . S
C1172 C1173 1.524 . S
C1172 H1191 0.913 . S
C1173 H1149 0.950 . S
C1173 C1172 1.524 . S
C1173 C1174 1.415 . S
C1174 H1150 0.950 . S
C1174 C1169 1.363 . S
C1174 C1173 1.415 . S
C1175 H1151 0.951 . S
C1175 C1176 1.366 . S
C1175 C1177 1.388 . S
C1176 C1175 1.366 . S
C1176 C1180 1.385 . S
C1177 H1152 0.951 . S
C1177 C1175 1.388 . S
C1177 C1178 1.366 . S
C1178 C1177 1.366 . S
C1178 C1179 1.414 . S
C1178 C1181 1.499 . S
C1179 H1153 0.950 . S
C1179 C1178 1.414 . S
C1179 C1180 1.374 . S
C1180 H1154 0.958 . S
C1180 C1176 1.385 . S
C1180 C1179 1.374 . S
C1181 C1178 1.499 . S
C1181 C1182 1.413 . S
C1181 C1183 1.389 . S
C1182 H1155 0.909 1_565 S
C1182 C1168 1.380 . S
C1182 C1181 1.413 . S
C1183 C1167 1.377 . S
C1183 C1181 1.389 . S
C1183 C1184 1.524 . S
C1184 C1183 1.524 . S
C1184 C1185 1.397 . S
C1184 C1189 1.363 . S
C1185 H1156 0.950 . S
C1185 C1184 1.397 . S
C1185 C1186 1.334 . S
C1186 H1157 0.950 . S
C1186 C1185 1.334 . S
C1186 C1187 1.287 . S
C1187 C1186 1.287 . S
C1187 C1188 1.524 . S
C1187 H1190 0.999 . S
C1188 H1158 0.950 . S
C1188 C1187 1.524 . S
C1188 C1189 1.415 . S
C1189 H1159 0.950 . S
C1189 C1184 1.363 . S
C1189 C1188 1.415 . S
H1190 C1187 0.999 . S
H1191 C1172 0.913 . S
H1192 C1210 0.951 . S
H1193 C1212 0.951 . S
H1194 C1214 0.950 . S
H1195 C1215 0.950 . S
H1196 C1217 0.950 . S
H1197 C1220 0.950 . S
H1198 C1221 0.950 . S
H1199 C1223 0.950 . S
H1200 C1224 0.950 . S
H1201 C1225 0.951 . S
H1202 C1227 0.951 . S
H1203 C1229 0.950 . S
H1204 C1230 0.950 . S
H1205 C1232 0.950 . S
H1206 C1235 0.950 . S
H1207 C1236 0.950 . S
H1208 C1238 0.950 . S
H1209 C1239 0.950 . S
C1210 H1192 0.951 . S
C1210 C1211 1.366 . S
C1210 C1212 1.388 . S
C1211 C1210 1.366 . S
C1211 C1215 1.385 . S
C1212 H1193 0.951 . S
C1212 C1210 1.388 . S
C1212 C1213 1.366 . S
C1213 C1212 1.366 . S
C1213 C1214 1.414 . S
C1213 C1216 1.499 . S
C1214 H1194 0.950 . S
C1214 C1213 1.414 . S
C1214 C1215 1.374 . S
C1215 H1195 0.950 . S
C1215 C1211 1.385 . S
C1215 C1214 1.374 . S
C1216 C1213 1.499 . S
C1216 C1217 1.373 . S
C1216 C1218 1.389 . S
C1217 H1196 0.950 . S
C1217 C1216 1.373 . S
C1217 C1233 1.377 . S
C1218 C1216 1.389 . S
C1218 C1219 1.524 . S
C1218 C1232 1.377 . S
C1219 C1218 1.524 . S
C1219 C1220 1.397 . S
C1219 C1224 1.363 . S
C1220 H1197 0.950 . S
C1220 C1219 1.397 . S
C1220 C1221 1.334 . S
C1221 H1198 0.950 . S
C1221 C1220 1.334 . S
C1221 C1222 1.287 . S
C1222 C1221 1.287 . S
C1222 C1223 1.524 . S
C1222 H1241 0.913 . S
C1223 H1199 0.950 . S
C1223 C1222 1.524 . S
C1223 C1224 1.415 . S
C1224 H1200 0.950 . S
C1224 C1219 1.363 . S
C1224 C1223 1.415 . S
C1225 H1201 0.951 . S
C1225 C1226 1.366 . S
C1225 C1227 1.388 . S
C1226 C1225 1.366 . S
C1226 C1230 1.385 . S
C1227 H1202 0.951 . S
C1227 C1225 1.388 . S
C1227 C1228 1.366 . S
C1228 C1227 1.366 . S
C1228 C1229 1.414 . S
C1228 C1231 1.499 . S
C1229 H1203 0.950 . S
C1229 C1228 1.414 . S
C1229 C1230 1.374 . S
C1230 H1204 0.950 . S
C1230 C1226 1.385 . S
C1230 C1229 1.374 . S
C1231 C1228 1.499 . S
C1231 C1232 1.373 . S
C1231 C1233 1.389 . S
C1232 H1205 0.950 . S
C1232 C1218 1.377 . S
C1232 C1231 1.373 . S
C1233 C1217 1.377 . S
C1233 C1231 1.389 . S
C1233 C1234 1.524 . S
C1234 C1233 1.524 . S
C1234 C1235 1.397 . S
C1234 C1239 1.363 . S
C1235 H1206 0.950 . S
C1235 C1234 1.397 . S
C1235 C1236 1.334 . S
C1236 H1207 0.950 . S
C1236 C1235 1.334 . S
C1236 C1237 1.287 . S
C1237 C1236 1.287 . S
C1237 C1238 1.524 . S
C1237 H1240 0.999 . S
C1238 H1208 0.950 . S
C1238 C1237 1.524 . S
C1238 C1239 1.415 . S
C1239 H1209 0.950 . S
C1239 C1234 1.363 . S
C1239 C1238 1.415 . S
H1240 C1237 0.999 . S
H1241 C1222 0.913 . S
H1242 C1260 0.951 . S
H1243 C1262 0.951 . S
H1244 C1264 0.950 . S
H1245 C1265 0.950 . S
H1246 C1267 0.950 . S
H1247 C1270 0.950 . S
H1248 C1271 0.950 . S
H1249 C1273 0.950 . S
H1250 C1274 0.950 . S
H1251 C1275 0.951 . S
H1252 C1277 0.951 . S
H1253 C1279 0.950 . S
H1254 C1280 0.950 . S
H1255 C1282 0.950 . S
H1256 C1285 0.950 . S
H1257 C1286 0.950 . S
H1258 C1288 0.950 . S
H1259 C1289 0.950 . S
C1260 H1242 0.951 . S
C1260 C1261 1.366 . S
C1260 C1262 1.388 . S
C1261 C1260 1.366 . S
C1261 C1265 1.385 . S
C1262 H1243 0.951 . S
C1262 C1260 1.388 . S
C1262 C1263 1.366 . S
C1263 C1262 1.366 . S
C1263 C1264 1.414 . S
C1263 C1266 1.499 . S
C1264 H1244 0.950 . S
C1264 C1263 1.414 . S
C1264 C1265 1.374 . S
C1265 H1245 0.950 . S
C1265 C1261 1.385 . S
C1265 C1264 1.374 . S
C1266 C1263 1.499 . S
C1266 C1267 1.373 . S
C1266 C1268 1.389 . S
C1267 H1246 0.950 . S
C1267 C1266 1.373 . S
C1267 C1283 1.377 . S
C1268 C1266 1.389 . S
C1268 C1269 1.524 . S
C1268 C1282 1.377 . S
C1269 C1268 1.524 . S
C1269 C1270 1.397 . S
C1269 C1274 1.363 . S
C1270 H1247 0.950 . S
C1270 C1269 1.397 . S
C1270 C1271 1.334 . S
C1271 H1248 0.950 . S
C1271 C1270 1.334 . S
C1271 C1272 1.287 . S
C1272 C1271 1.287 . S
C1272 C1273 1.524 . S
C1272 H1291 0.913 . S
C1273 H1249 0.950 . S
C1273 C1272 1.524 . S
C1273 C1274 1.415 . S
C1274 H1250 0.950 . S
C1274 C1269 1.363 . S
C1274 C1273 1.415 . S
C1275 H1251 0.951 . S
C1275 C1276 1.366 . S
C1275 C1277 1.388 . S
C1276 C1275 1.366 . S
C1276 C1280 1.385 . S
C1277 H1252 0.951 . S
C1277 C1275 1.388 . S
C1277 C1278 1.366 . S
C1278 C1277 1.366 . S
C1278 C1279 1.414 . S
C1278 C1281 1.499 . S
C1279 H1253 0.950 . S
C1279 C1278 1.414 . S
C1279 C1280 1.374 . S
C1280 H1254 0.950 . S
C1280 C1276 1.385 . S
C1280 C1279 1.374 . S
C1281 C1278 1.499 . S
C1281 C1282 1.373 . S
C1281 C1283 1.389 . S
C1282 H1255 0.950 . S
C1282 C1268 1.377 . S
C1282 C1281 1.373 . S
C1283 C1267 1.377 . S
C1283 C1281 1.389 . S
C1283 C1284 1.524 . S
C1284 C1283 1.524 . S
C1284 C1285 1.397 . S
C1284 C1289 1.363 . S
C1285 H1256 0.950 . S
C1285 C1284 1.397 . S
C1285 C1286 1.334 . S
C1286 H1257 0.950 . S
C1286 C1285 1.334 . S
C1286 C1287 1.287 . S
C1287 C1286 1.287 . S
C1287 C1288 1.524 . S
C1287 H1290 0.999 . S
C1288 H1258 0.950 . S
C1288 C1287 1.524 . S
C1288 C1289 1.415 . S
C1289 H1259 0.950 . S
C1289 C1284 1.363 . S
C1289 C1288 1.415 . S
H1290 C1287 0.999 . S
H1291 C1272 0.913 . S
H1292 C1310 0.951 . S
H1293 C1312 0.951 . S
H1294 C1314 0.950 . S
H1295 C1315 0.950 . S
H1296 C1317 0.950 . S
H1297 C1320 0.950 . S
H1298 C1321 0.950 . S
H1299 C1323 0.950 . S
H1300 C1324 0.950 . S
H1301 C1325 0.951 . S
H1302 C1327 0.951 . S
H1303 C1329 0.950 . S
H1304 C1330 0.950 . S
H1305 C1332 0.950 . S
H1306 C1335 0.950 . S
H1307 C1336 0.950 . S
H1308 C1338 0.950 . S
H1309 C1339 0.950 . S
C1310 H1292 0.951 . S
C1310 C1311 1.366 . S
C1310 C1312 1.388 . S
C1311 C1310 1.366 . S
C1311 C1315 1.385 . S
C1312 H1293 0.951 . S
C1312 C1310 1.388 . S
C1312 C1313 1.366 . S
C1313 C1312 1.366 . S
C1313 C1314 1.414 . S
C1313 C1316 1.499 . S
C1314 H1294 0.950 . S
C1314 C1313 1.414 . S
C1314 C1315 1.374 . S
C1315 H1295 0.950 . S
C1315 C1311 1.385 . S
C1315 C1314 1.374 . S
C1316 C1313 1.499 . S
C1316 C1317 1.373 . S
C1316 C1318 1.389 . S
C1317 H1296 0.950 . S
C1317 C1316 1.373 . S
C1317 C1333 1.377 . S
C1318 C1316 1.389 . S
C1318 C1319 1.524 . S
C1318 C1332 1.377 . S
C1319 C1318 1.524 . S
C1319 C1320 1.397 . S
C1319 C1324 1.363 . S
C1320 H1297 0.950 . S
C1320 C1319 1.397 . S
C1320 C1321 1.334 . S
C1321 H1298 0.950 . S
C1321 C1320 1.334 . S
C1321 C1322 1.287 . S
C1322 C1321 1.287 . S
C1322 C1323 1.524 . S
C1322 H1341 0.913 . S
C1323 H1299 0.950 . S
C1323 C1322 1.524 . S
C1323 C1324 1.415 . S
C1324 H1300 0.950 . S
C1324 C1319 1.363 . S
C1324 C1323 1.415 . S
C1325 H1301 0.951 . S
C1325 C1326 1.366 . S
C1325 C1327 1.388 . S
C1326 C1325 1.366 . S
C1326 C1330 1.385 . S
C1327 H1302 0.951 . S
C1327 C1325 1.388 . S
C1327 C1328 1.366 . S
C1328 C1327 1.366 . S
C1328 C1329 1.414 . S
C1328 C1331 1.499 . S
C1329 H1303 0.950 . S
C1329 C1328 1.414 . S
C1329 C1330 1.374 . S
C1330 H1304 0.950 . S
C1330 C1326 1.385 . S
C1330 C1329 1.374 . S
C1331 C1328 1.499 . S
C1331 C1332 1.373 . S
C1331 C1333 1.389 . S
C1332 H1305 0.950 . S
C1332 C1318 1.377 . S
C1332 C1331 1.373 . S
C1333 C1317 1.377 . S
C1333 C1331 1.389 . S
C1333 C1334 1.524 . S
C1334 C1333 1.524 . S
C1334 C1335 1.397 . S
C1334 C1339 1.363 . S
C1335 H1306 0.950 . S
C1335 C1334 1.397 . S
C1335 C1336 1.334 . S
C1336 H1307 0.950 . S
C1336 C1335 1.334 . S
C1336 C1337 1.287 . S
C1337 C1336 1.287 . S
C1337 C1338 1.524 . S
C1337 H1340 0.999 . S
C1338 H1308 0.950 . S
C1338 C1337 1.524 . S
C1338 C1339 1.415 . S
C1339 H1309 0.950 . S
C1339 C1334 1.363 . S
C1339 C1338 1.415 . S
H1340 C1337 0.999 . S
H1341 C1322 0.913 . S
H1342 C1360 0.951 . S
H1343 C1362 0.951 . S
H1344 C1364 0.950 . S
H1345 C1365 0.950 . S
H1346 C1367 0.950 . S
H1347 C1370 0.950 . S
H1348 C1371 0.950 . S
H1349 C1373 0.950 . S
H1350 C1374 0.950 . S
H1351 C1375 0.951 . S
H1352 C1377 0.951 . S
H1353 C1379 0.950 . S
H1354 C1380 0.950 . S
H1355 C1382 0.950 . S
H1356 C1385 0.950 . S
H1357 C1386 0.950 . S
H1358 C1388 0.950 . S
H1359 C1389 0.950 . S
C1360 H1342 0.951 . S
C1360 C1361 1.366 . S
C1360 C1362 1.388 . S
C1361 C1360 1.366 . S
C1361 C1365 1.385 . S
C1362 H1343 0.951 . S
C1362 C1360 1.388 . S
C1362 C1363 1.366 . S
C1363 C1362 1.366 . S
C1363 C1364 1.414 . S
C1363 C1366 1.499 . S
C1364 H1344 0.950 . S
C1364 C1363 1.414 . S
C1364 C1365 1.374 . S
C1365 H1345 0.950 . S
C1365 C1361 1.385 . S
C1365 C1364 1.374 . S
C1366 C1363 1.499 . S
C1366 C1367 1.373 . S
C1366 C1368 1.389 . S
C1367 H1346 0.950 . S
C1367 C1366 1.373 . S
C1367 C1383 1.377 . S
C1368 C1366 1.389 . S
C1368 C1369 1.524 . S
C1368 C1382 1.377 . S
C1369 C1368 1.524 . S
C1369 C1370 1.397 . S
C1369 C1374 1.363 . S
C1370 H1347 0.950 . S
C1370 C1369 1.397 . S
C1370 C1371 1.334 . S
C1371 H1348 0.950 . S
C1371 C1370 1.334 . S
C1371 C1372 1.287 . S
C1372 C1371 1.287 . S
C1372 C1373 1.524 . S
C1372 H1391 0.913 . S
C1373 H1349 0.950 . S
C1373 C1372 1.524 . S
C1373 C1374 1.415 . S
C1374 H1350 0.950 . S
C1374 C1369 1.363 . S
C1374 C1373 1.415 . S
C1375 H1351 0.951 . S
C1375 C1376 1.366 . S
C1375 C1377 1.388 . S
C1376 C1375 1.366 . S
C1376 C1380 1.385 . S
C1377 H1352 0.951 . S
C1377 C1375 1.388 . S
C1377 C1378 1.366 . S
C1378 C1377 1.366 . S
C1378 C1379 1.414 . S
C1378 C1381 1.499 . S
C1379 H1353 0.950 . S
C1379 C1378 1.414 . S
C1379 C1380 1.374 . S
C1380 H1354 0.950 . S
C1380 C1376 1.385 . S
C1380 C1379 1.374 . S
C1381 C1378 1.499 . S
C1381 C1382 1.373 . S
C1381 C1383 1.389 . S
C1382 H1355 0.950 . S
C1382 C1368 1.377 . S
C1382 C1381 1.373 . S
C1383 C1367 1.377 . S
C1383 C1381 1.389 . S
C1383 C1384 1.524 . S
C1384 C1383 1.524 . S
C1384 C1385 1.397 . S
C1384 C1389 1.363 . S
C1385 H1356 0.950 . S
C1385 C1384 1.397 . S
C1385 C1386 1.334 . S
C1386 H1357 0.950 . S
C1386 C1385 1.334 . S
C1386 C1387 1.287 . S
C1387 C1386 1.287 . S
C1387 C1388 1.524 . S
C1387 H1390 0.999 . S
C1388 H1358 0.950 . S
C1388 C1387 1.524 . S
C1388 C1389 1.415 . S
C1389 H1359 0.950 . S
C1389 C1384 1.363 . S
C1389 C1388 1.415 . S
H1390 C1387 0.999 . S
H1391 C1372 0.913 . S
H1392 C1410 0.951 . S
H1393 C1412 0.951 . S
H1394 C1414 0.950 . S
H1395 C1415 0.950 . S
H1396 C1417 0.950 . S
H1397 C1420 0.950 . S
H1398 C1421 0.950 . S
H1399 C1423 0.950 . S
H1400 C1424 0.950 . S
H1401 C1425 0.951 . S
H1402 C1427 0.951 . S
H1403 C1429 0.950 . S
H1404 C1430 0.950 . S
H1405 C1432 0.950 . S
H1406 C1435 0.950 . S
H1407 C1436 0.950 . S
H1408 C1438 0.950 . S
H1409 C1439 0.950 . S
C1410 H1392 0.951 . S
C1410 C1411 1.366 . S
C1410 C1412 1.388 . S
C1411 C1410 1.366 . S
C1411 C1415 1.385 . S
C1412 H1393 0.951 . S
C1412 C1410 1.388 . S
C1412 C1413 1.366 . S
C1413 C1412 1.366 . S
C1413 C1414 1.414 . S
C1413 C1416 1.499 . S
C1414 H1394 0.950 . S
C1414 C1413 1.414 . S
C1414 C1415 1.374 . S
C1415 H1395 0.950 . S
C1415 C1411 1.385 . S
C1415 C1414 1.374 . S
C1416 C1413 1.499 . S
C1416 C1417 1.373 . S
C1416 C1418 1.389 . S
C1417 H1396 0.950 . S
C1417 C1416 1.373 . S
C1417 C1433 1.377 . S
C1418 C1416 1.389 . S
C1418 C1419 1.524 . S
C1418 C1432 1.377 . S
C1419 C1418 1.524 . S
C1419 C1420 1.397 . S
C1419 C1424 1.363 . S
C1420 H1397 0.950 . S
C1420 C1419 1.397 . S
C1420 C1421 1.334 . S
C1421 H1398 0.950 . S
C1421 C1420 1.334 . S
C1421 C1422 1.287 . S
C1422 C1421 1.287 . S
C1422 C1423 1.524 . S
C1422 H1441 0.913 . S
C1423 H1399 0.950 . S
C1423 C1422 1.524 . S
C1423 C1424 1.415 . S
C1424 H1400 0.950 . S
C1424 C1419 1.363 . S
C1424 C1423 1.415 . S
C1425 H1401 0.951 . S
C1425 C1426 1.366 . S
C1425 C1427 1.388 . S
C1426 C1425 1.366 . S
C1426 C1430 1.385 . S
C1427 H1402 0.951 . S
C1427 C1425 1.388 . S
C1427 C1428 1.366 . S
C1428 C1427 1.366 . S
C1428 C1429 1.414 . S
C1428 C1431 1.499 . S
C1429 H1403 0.950 . S
C1429 C1428 1.414 . S
C1429 C1430 1.374 . S
C1430 H1404 0.950 . S
C1430 C1426 1.385 . S
C1430 C1429 1.374 . S
C1431 C1428 1.499 . S
C1431 C1432 1.373 . S
C1431 C1433 1.389 . S
C1432 H1405 0.950 . S
C1432 C1418 1.377 . S
C1432 C1431 1.373 . S
C1433 C1417 1.377 . S
C1433 C1431 1.389 . S
C1433 C1434 1.524 . S
C1434 C1433 1.524 . S
C1434 C1435 1.397 . S
C1434 C1439 1.363 . S
C1435 H1406 0.950 . S
C1435 C1434 1.397 . S
C1435 C1436 1.334 . S
C1436 H1407 0.950 . S
C1436 C1435 1.334 . S
C1436 C1437 1.287 . S
C1437 C1436 1.287 . S
C1437 C1438 1.524 . S
C1437 H1440 0.999 . S
C1438 H1408 0.950 . S
C1438 C1437 1.524 . S
C1438 C1439 1.415 . S
C1439 H1409 0.950 . S
C1439 C1434 1.363 . S
C1439 C1438 1.415 . S
H1440 C1437 0.999 . S
H1441 C1422 0.913 . S
H1442 C1460 0.951 . S
H1443 C1462 0.951 . S
H1444 C1464 0.950 . S
H1445 C1465 0.950 . S
H1446 C1467 0.950 . S
H1447 C1470 0.950 . S
H1448 C1471 0.944 1_455 S
H1449 C1473 0.950 . S
H1450 C1474 0.950 . S
H1451 C1475 0.951 . S
H1452 C1477 0.951 . S
H1453 C1479 0.950 1_655 S
H1454 C1480 0.950 . S
H1455 C1482 0.902 1_655 S
H1456 C1485 0.950 . S
H1457 C1486 0.950 . S
H1458 C1488 0.950 . S
H1459 C1489 0.950 . S
C1460 H1442 0.951 . S
C1460 C1461 1.366 . S
C1460 C1462 1.388 . S
C1461 C1460 1.366 . S
C1461 C1465 1.385 . S
C1462 H1443 0.951 . S
C1462 C1460 1.388 . S
C1462 C1463 1.366 . S
C1463 C1462 1.366 . S
C1463 C1464 1.414 . S
C1463 C1466 1.499 . S
C1464 H1444 0.950 . S
C1464 C1463 1.414 . S
C1464 C1465 1.374 . S
C1465 H1445 0.950 . S
C1465 C1461 1.385 . S
C1465 C1464 1.374 . S
C1466 C1463 1.499 . S
C1466 C1467 1.373 . S
C1466 C1468 1.389 . S
C1467 H1446 0.950 . S
C1467 C1466 1.373 . S
C1467 C1483 1.377 . S
C1468 C1466 1.389 . S
C1468 C1469 1.519 . S
C1468 C1482 1.377 . S
C1469 C1468 1.519 . S
C1469 C1470 1.395 . S
C1469 C1474 1.370 1_455 S
C1470 H1447 0.950 . S
C1470 C1469 1.395 . S
C1470 C1471 1.334 1_455 S
C1471 H1448 0.944 1_655 S
C1471 C1470 1.334 1_655 S
C1471 C1472 1.287 . S
C1472 C1471 1.287 . S
C1472 C1473 1.524 . S
C1472 H1491 0.913 . S
C1473 H1449 0.950 . S
C1473 C1472 1.524 . S
C1473 C1474 1.415 . S
C1474 H1450 0.950 . S
C1474 C1469 1.370 1_655 S
C1474 C1473 1.415 . S
C1475 H1451 0.951 . S
C1475 C1476 1.366 . S
C1475 C1477 1.388 . S
C1476 C1475 1.366 . S
C1476 C1480 1.385 1_455 S
C1477 H1452 0.951 . S
C1477 C1475 1.388 . S
C1477 C1478 1.366 . S
C1478 C1477 1.366 . S
C1478 C1479 1.414 . S
C1478 C1481 1.499 . S
C1479 H1453 0.950 1_455 S
C1479 C1478 1.414 . S
C1479 C1480 1.374 1_455 S
C1480 H1454 0.950 . S
C1480 C1476 1.385 1_655 S
C1480 C1479 1.374 1_655 S
C1481 C1478 1.499 . S
C1481 C1482 1.373 . S
C1481 C1483 1.389 . S
C1482 H1455 0.902 1_455 S
C1482 C1468 1.377 . S
C1482 C1481 1.373 . S
C1483 C1467 1.377 . S
C1483 C1481 1.389 . S
C1483 C1484 1.524 . S
C1484 C1483 1.524 . S
C1484 C1485 1.397 . S
C1484 C1489 1.363 . S
C1485 H1456 0.950 . S
C1485 C1484 1.397 . S
C1485 C1486 1.334 . S
C1486 H1457 0.950 . S
C1486 C1485 1.334 . S
C1486 C1487 1.287 . S
C1487 C1486 1.287 . S
C1487 C1488 1.524 . S
C1487 H1490 0.999 . S
C1488 H1458 0.950 . S
C1488 C1487 1.524 . S
C1488 C1489 1.415 . S
C1489 H1459 0.950 . S
C1489 C1484 1.363 . S
C1489 C1488 1.415 . S
H1490 C1487 0.999 . S
H1491 C1472 0.913 . S
H1492 C1510 0.951 . S
H1493 C1512 0.951 . S
H1494 C1514 0.950 . S
H1495 C1515 0.950 . S
H1496 C1517 0.950 . S
H1497 C1520 0.950 . S
H1498 C1521 0.950 . S
H1499 C1523 0.950 . S
H1500 C1524 0.950 . S
H1501 C1525 0.951 . S
H1502 C1527 0.951 . S
H1503 C1529 0.950 . S
H1504 C1530 0.950 . S
H1505 C1532 0.950 . S
H1506 C1535 0.950 . S
H1507 C1536 0.950 . S
H1508 C1538 0.950 . S
H1509 C1539 0.950 . S
C1510 H1492 0.951 . S
C1510 C1511 1.366 . S
C1510 C1512 1.388 . S
C1511 C1510 1.366 . S
C1511 C1515 1.385 . S
C1512 H1493 0.951 . S
C1512 C1510 1.388 . S
C1512 C1513 1.366 . S
C1513 C1512 1.366 . S
C1513 C1514 1.414 . S
C1513 C1516 1.499 . S
C1514 H1494 0.950 . S
C1514 C1513 1.414 . S
C1514 C1515 1.374 . S
C1515 H1495 0.950 . S
C1515 C1511 1.385 . S
C1515 C1514 1.374 . S
C1516 C1513 1.499 . S
C1516 C1517 1.373 . S
C1516 C1518 1.389 . S
C1517 H1496 0.950 . S
C1517 C1516 1.373 . S
C1517 C1533 1.377 . S
C1518 C1516 1.389 . S
C1518 C1519 1.524 . S
C1518 C1532 1.377 . S
C1519 C1518 1.524 . S
C1519 C1520 1.397 . S
C1519 C1524 1.363 . S
C1520 H1497 0.950 . S
C1520 C1519 1.397 . S
C1520 C1521 1.334 . S
C1521 H1498 0.950 . S
C1521 C1520 1.334 . S
C1521 C1522 1.287 . S
C1522 C1521 1.287 . S
C1522 C1523 1.524 . S
C1522 H1541 0.913 . S
C1523 H1499 0.950 . S
C1523 C1522 1.524 . S
C1523 C1524 1.415 . S
C1524 H1500 0.950 . S
C1524 C1519 1.363 . S
C1524 C1523 1.415 . S
C1525 H1501 0.951 . S
C1525 C1526 1.366 . S
C1525 C1527 1.388 . S
C1526 C1525 1.366 . S
C1526 C1530 1.385 . S
C1527 H1502 0.951 . S
C1527 C1525 1.388 . S
C1527 C1528 1.366 . S
C1528 C1527 1.366 . S
C1528 C1529 1.414 . S
C1528 C1531 1.499 . S
C1529 H1503 0.950 . S
C1529 C1528 1.414 . S
C1529 C1530 1.374 . S
C1530 H1504 0.950 . S
C1530 C1526 1.385 . S
C1530 C1529 1.374 . S
C1531 C1528 1.499 . S
C1531 C1532 1.373 . S
C1531 C1533 1.389 . S
C1532 H1505 0.950 . S
C1532 C1518 1.377 . S
C1532 C1531 1.373 . S
C1533 C1517 1.377 . S
C1533 C1531 1.389 . S
C1533 C1534 1.524 . S
C1534 C1533 1.524 . S
C1534 C1535 1.397 . S
C1534 C1539 1.363 . S
C1535 H1506 0.950 . S
C1535 C1534 1.397 . S
C1535 C1536 1.334 . S
C1536 H1507 0.950 . S
C1536 C1535 1.334 . S
C1536 C1537 1.287 . S
C1537 C1536 1.287 . S
C1537 C1538 1.524 . S
C1537 H1540 0.999 . S
C1538 H1508 0.950 . S
C1538 C1537 1.524 . S
C1538 C1539 1.415 . S
C1539 H1509 0.950 . S
C1539 C1534 1.363 . S
C1539 C1538 1.415 . S
H1540 C1537 0.999 . S
H1541 C1522 0.913 . S
H1542 C1560 0.951 . S
H1543 C1562 0.951 . S
H1544 C1564 0.950 1_455 S
H1545 C1565 0.950 1_455 S
H1546 C1567 0.950 . S
H1547 C1570 0.950 . S
H1548 C1571 0.950 . S
H1549 C1573 0.950 . S
H1550 C1574 0.950 . S
H1551 C1575 0.951 . S
H1552 C1577 0.951 . S
H1553 C1579 0.950 . S
H1554 C1580 0.950 . S
H1555 C1582 0.950 . S
H1556 C1585 0.950 . S
H1557 C1586 0.950 . S
H1558 C1588 0.950 . S
H1559 C1589 0.950 . S
C1560 H1542 0.951 . S
C1560 C1561 1.366 . S
C1560 C1562 1.388 . S
C1561 C1560 1.366 . S
C1561 C1565 1.385 . S
C1562 H1543 0.951 . S
C1562 C1560 1.388 . S
C1562 C1563 1.366 . S
C1563 C1562 1.366 . S
C1563 C1564 1.414 . S
C1563 C1566 1.499 . S
C1564 H1544 0.950 1_655 S
C1564 C1563 1.414 . S
C1564 C1565 1.374 . S
C1565 H1545 0.950 1_655 S
C1565 C1561 1.385 . S
C1565 C1564 1.374 . S
C1566 C1563 1.499 . S
C1566 C1567 1.373 . S
C1566 C1568 1.389 . S
C1567 H1546 0.950 . S
C1567 C1566 1.373 . S
C1567 C1583 1.377 . S
C1568 C1566 1.389 . S
C1568 C1569 1.524 . S
C1568 C1582 1.377 . S
C1569 C1568 1.524 . S
C1569 C1570 1.397 . S
C1569 C1574 1.363 . S
C1570 H1547 0.950 . S
C1570 C1569 1.397 . S
C1570 C1571 1.334 . S
C1571 H1548 0.950 . S
C1571 C1570 1.334 . S
C1571 C1572 1.287 . S
C1572 C1571 1.287 . S
C1572 C1573 1.524 . S
C1572 H1591 0.913 . S
C1573 H1549 0.950 . S
C1573 C1572 1.524 . S
C1573 C1574 1.415 . S
C1574 H1550 0.950 . S
C1574 C1569 1.363 . S
C1574 C1573 1.415 . S
C1575 H1551 0.951 . S
C1575 C1576 1.366 1_455 S
C1575 C1577 1.388 . S
C1576 C1575 1.366 1_655 S
C1576 C1580 1.385 . S
C1577 H1552 0.951 . S
C1577 C1575 1.388 . S
C1577 C1578 1.366 1_455 S
C1578 C1577 1.366 1_655 S
C1578 C1579 1.414 . S
C1578 C1581 1.499 . S
C1579 H1553 0.950 . S
C1579 C1578 1.414 . S
C1579 C1580 1.374 . S
C1580 H1554 0.950 . S
C1580 C1576 1.385 . S
C1580 C1579 1.374 . S
C1581 C1578 1.499 . S
C1581 C1582 1.373 . S
C1581 C1583 1.389 . S
C1582 H1555 0.950 . S
C1582 C1568 1.377 . S
C1582 C1581 1.373 . S
C1583 C1567 1.377 . S
C1583 C1581 1.389 . S
C1583 C1584 1.526 . S
C1584 C1583 1.526 . S
C1584 C1585 1.401 . S
C1584 C1589 1.357 1_655 S
C1585 H1556 0.950 . S
C1585 C1584 1.401 . S
C1585 C1586 1.334 . S
C1586 H1557 0.950 . S
C1586 C1585 1.334 . S
C1586 C1587 1.287 1_655 S
C1587 C1586 1.287 1_455 S
C1587 C1588 1.524 . S
C1587 H1590 0.999 . S
C1588 H1558 0.950 . S
C1588 C1587 1.524 . S
C1588 C1589 1.415 . S
C1589 H1559 0.950 . S
C1589 C1584 1.357 1_455 S
C1589 C1588 1.415 . S
H1590 C1587 0.999 . S
H1591 C1572 0.913 . S
H1592 C1610 0.951 . S
H1593 C1612 0.951 . S
H1594 C1614 0.950 . S
H1595 C1615 0.950 . S
H1596 C1617 0.950 . S
H1597 C1620 0.950 . S
H1598 C1621 0.950 . S
H1599 C1623 0.950 . S
H1600 C1624 0.950 . S
H1601 C1625 0.951 . S
H1602 C1627 0.951 . S
H1603 C1629 0.950 . S
H1604 C1630 0.950 . S
H1605 C1632 0.950 . S
H1606 C1635 0.950 . S
H1607 C1636 0.950 . S
H1608 C1638 0.950 . S
H1609 C1639 0.950 . S
C1610 H1592 0.951 . S
C1610 C1611 1.366 . S
C1610 C1612 1.388 . S
C1611 C1610 1.366 . S
C1611 C1615 1.385 . S
C1612 H1593 0.951 . S
C1612 C1610 1.388 . S
C1612 C1613 1.366 . S
C1613 C1612 1.366 . S
C1613 C1614 1.414 . S
C1613 C1616 1.499 . S
C1614 H1594 0.950 . S
C1614 C1613 1.414 . S
C1614 C1615 1.374 . S
C1615 H1595 0.950 . S
C1615 C1611 1.385 . S
C1615 C1614 1.374 . S
C1616 C1613 1.499 . S
C1616 C1617 1.373 . S
C1616 C1618 1.389 . S
C1617 H1596 0.950 . S
C1617 C1616 1.373 . S
C1617 C1633 1.377 . S
C1618 C1616 1.389 . S
C1618 C1619 1.524 . S
C1618 C1632 1.377 . S
C1619 C1618 1.524 . S
C1619 C1620 1.397 . S
C1619 C1624 1.363 . S
C1620 H1597 0.950 . S
C1620 C1619 1.397 . S
C1620 C1621 1.334 . S
C1621 H1598 0.950 . S
C1621 C1620 1.334 . S
C1621 C1622 1.287 . S
C1622 C1621 1.287 . S
C1622 C1623 1.524 . S
C1622 H1641 0.913 . S
C1623 H1599 0.950 . S
C1623 C1622 1.524 . S
C1623 C1624 1.415 . S
C1624 H1600 0.950 . S
C1624 C1619 1.363 . S
C1624 C1623 1.415 . S
C1625 H1601 0.951 . S
C1625 C1626 1.366 . S
C1625 C1627 1.388 . S
C1626 C1625 1.366 . S
C1626 C1630 1.385 . S
C1627 H1602 0.951 . S
C1627 C1625 1.388 . S
C1627 C1628 1.366 . S
C1628 C1627 1.366 . S
C1628 C1629 1.414 . S
C1628 C1631 1.499 . S
C1629 H1603 0.950 . S
C1629 C1628 1.414 . S
C1629 C1630 1.374 . S
C1630 H1604 0.950 . S
C1630 C1626 1.385 . S
C1630 C1629 1.374 . S
C1631 C1628 1.499 . S
C1631 C1632 1.373 . S
C1631 C1633 1.389 . S
C1632 H1605 0.950 . S
C1632 C1618 1.377 . S
C1632 C1631 1.373 . S
C1633 C1617 1.377 . S
C1633 C1631 1.389 . S
C1633 C1634 1.524 . S
C1634 C1633 1.524 . S
C1634 C1635 1.397 . S
C1634 C1639 1.363 . S
C1635 H1606 0.950 . S
C1635 C1634 1.397 . S
C1635 C1636 1.334 . S
C1636 H1607 0.950 . S
C1636 C1635 1.334 . S
C1636 C1637 1.287 . S
C1637 C1636 1.287 . S
C1637 C1638 1.524 . S
C1637 H1640 0.999 . S
C1638 H1608 0.950 . S
C1638 C1637 1.524 . S
C1638 C1639 1.415 . S
C1639 H1609 0.950 . S
C1639 C1634 1.363 . S
C1639 C1638 1.415 . S
H1640 C1637 0.999 . S
H1641 C1622 0.913 . S
H1642 C1660 0.951 . S
H1643 C1662 0.951 . S
H1644 C1664 0.950 . S
H1645 C1665 0.950 . S
H1646 C1667 0.950 . S
H1647 C1670 0.950 . S
H1648 C1671 0.950 . S
H1649 C1673 0.950 . S
H1650 C1674 0.950 . S
H1651 C1675 0.951 . S
H1652 C1677 0.951 . S
H1653 C1679 0.950 . S
H1654 C1680 0.950 . S
H1655 C1682 0.950 . S
H1656 C1685 0.950 . S
H1657 C1686 0.950 . S
H1658 C1688 0.950 . S
H1659 C1689 0.950 . S
C1660 H1642 0.951 . S
C1660 C1661 1.366 . S
C1660 C1662 1.388 . S
C1661 C1660 1.366 . S
C1661 C1665 1.385 . S
C1662 H1643 0.951 . S
C1662 C1660 1.388 . S
C1662 C1663 1.366 . S
C1663 C1662 1.366 . S
C1663 C1664 1.414 . S
C1663 C1666 1.499 . S
C1664 H1644 0.950 . S
C1664 C1663 1.414 . S
C1664 C1665 1.374 . S
C1665 H1645 0.950 . S
C1665 C1661 1.385 . S
C1665 C1664 1.374 . S
C1666 C1663 1.499 . S
C1666 C1667 1.373 . S
C1666 C1668 1.389 . S
C1667 H1646 0.950 . S
C1667 C1666 1.373 . S
C1667 C1683 1.377 . S
C1668 C1666 1.389 . S
C1668 C1669 1.524 . S
C1668 C1682 1.377 . S
C1669 C1668 1.524 . S
C1669 C1670 1.397 . S
C1669 C1674 1.363 . S
C1670 H1647 0.950 . S
C1670 C1669 1.397 . S
C1670 C1671 1.334 . S
C1671 H1648 0.950 . S
C1671 C1670 1.334 . S
C1671 C1672 1.287 . S
C1672 C1671 1.287 . S
C1672 C1673 1.524 . S
C1672 H1691 0.913 . S
C1673 H1649 0.950 . S
C1673 C1672 1.524 . S
C1673 C1674 1.415 . S
C1674 H1650 0.950 . S
C1674 C1669 1.363 . S
C1674 C1673 1.415 . S
C1675 H1651 0.951 . S
C1675 C1676 1.366 . S
C1675 C1677 1.388 . S
C1676 C1675 1.366 . S
C1676 C1680 1.385 . S
C1677 H1652 0.951 . S
C1677 C1675 1.388 . S
C1677 C1678 1.366 . S
C1678 C1677 1.366 . S
C1678 C1679 1.414 . S
C1678 C1681 1.499 . S
C1679 H1653 0.950 . S
C1679 C1678 1.414 . S
C1679 C1680 1.374 . S
C1680 H1654 0.950 . S
C1680 C1676 1.385 . S
C1680 C1679 1.374 . S
C1681 C1678 1.499 . S
C1681 C1682 1.373 . S
C1681 C1683 1.389 . S
C1682 H1655 0.950 . S
C1682 C1668 1.377 . S
C1682 C1681 1.373 . S
C1683 C1667 1.377 . S
C1683 C1681 1.389 . S
C1683 C1684 1.524 . S
C1684 C1683 1.524 . S
C1684 C1685 1.397 . S
C1684 C1689 1.363 . S
C1685 H1656 0.950 . S
C1685 C1684 1.397 . S
C1685 C1686 1.334 . S
C1686 H1657 0.950 . S
C1686 C1685 1.334 . S
C1686 C1687 1.287 . S
C1687 C1686 1.287 . S
C1687 C1688 1.524 . S
C1687 H1690 0.999 . S
C1688 H1658 0.950 . S
C1688 C1687 1.524 . S
C1688 C1689 1.415 . S
C1689 H1659 0.950 . S
C1689 C1684 1.363 . S
C1689 C1688 1.415 . S
H1690 C1687 0.999 . S
H1691 C1672 0.913 . S
H1692 C1710 0.951 . S
H1693 C1712 0.951 . S
H1694 C1714 0.950 . S
H1695 C1715 0.950 . S
H1696 C1717 0.950 1_554 S
H1697 C1720 0.950 . S
H1698 C1721 0.950 . S
H1699 C1723 0.950 . S
H1700 C1724 0.950 . S
H1701 C1725 0.951 . S
H1702 C1727 0.951 . S
H1703 C1729 0.950 . S
H1704 C1730 0.939 1_554 S
H1705 C1732 0.950 . S
H1706 C1735 0.950 . S
H1707 C1736 0.950 . S
H1708 C1738 0.950 . S
H1709 C1739 0.950 . S
C1710 H1692 0.951 . S
C1710 C1711 1.366 . S
C1710 C1712 1.388 . S
C1711 C1710 1.366 . S
C1711 C1715 1.385 . S
C1712 H1693 0.951 . S
C1712 C1710 1.388 . S
C1712 C1713 1.366 . S
C1713 C1712 1.366 . S
C1713 C1714 1.414 . S
C1713 C1716 1.499 . S
C1714 H1694 0.950 . S
C1714 C1713 1.414 . S
C1714 C1715 1.374 . S
C1715 H1695 0.950 . S
C1715 C1711 1.385 . S
C1715 C1714 1.374 . S
C1716 C1713 1.499 . S
C1716 C1717 1.373 . S
C1716 C1718 1.389 . S
C1717 H1696 0.950 1_556 S
C1717 C1716 1.373 . S
C1717 C1733 1.370 1_556 S
C1718 C1716 1.389 . S
C1718 C1719 1.524 . S
C1718 C1732 1.377 . S
C1719 C1718 1.524 . S
C1719 C1720 1.397 . S
C1719 C1724 1.363 . S
C1720 H1697 0.950 . S
C1720 C1719 1.397 . S
C1720 C1721 1.334 . S
C1721 H1698 0.950 . S
C1721 C1720 1.334 . S
C1721 C1722 1.287 . S
C1722 C1721 1.287 . S
C1722 C1723 1.524 . S
C1722 H1741 0.913 . S
C1723 H1699 0.950 . S
C1723 C1722 1.524 . S
C1723 C1724 1.415 . S
C1724 H1700 0.950 . S
C1724 C1719 1.363 . S
C1724 C1723 1.415 . S
C1725 H1701 0.951 . S
C1725 C1726 1.366 . S
C1725 C1727 1.388 . S
C1726 C1725 1.366 . S
C1726 C1730 1.391 . S
C1727 H1702 0.951 . S
C1727 C1725 1.388 . S
C1727 C1728 1.366 . S
C1728 C1727 1.366 . S
C1728 C1729 1.414 . S
C1728 C1731 1.499 . S
C1729 H1703 0.950 . S
C1729 C1728 1.414 . S
C1729 C1730 1.385 . S
C1730 H1704 0.939 1_556 S
C1730 C1726 1.391 . S
C1730 C1729 1.385 . S
C1731 C1728 1.499 . S
C1731 C1732 1.373 . S
C1731 C1733 1.374 1_556 S
C1732 H1705 0.950 . S
C1732 C1718 1.377 . S
C1732 C1731 1.373 . S
C1733 C1717 1.370 1_554 S
C1733 C1731 1.374 1_554 S
C1733 C1734 1.550 . S
C1734 C1733 1.550 . S
C1734 C1735 1.397 . S
C1734 C1739 1.363 . S
C1735 H1706 0.950 . S
C1735 C1734 1.397 . S
C1735 C1736 1.334 . S
C1736 H1707 0.950 . S
C1736 C1735 1.334 . S
C1736 C1737 1.287 . S
C1737 C1736 1.287 . S
C1737 C1738 1.524 . S
C1737 H1740 0.999 . S
C1738 H1708 0.950 . S
C1738 C1737 1.524 . S
C1738 C1739 1.415 . S
C1739 H1709 0.950 . S
C1739 C1734 1.363 . S
C1739 C1738 1.415 . S
H1740 C1737 0.999 . S
H1741 C1722 0.913 . S
H1742 C1760 0.951 . S
H1743 C1762 0.951 . S
H1744 C1764 0.950 . S
H1745 C1765 0.950 . S
H1746 C1767 0.950 . S
H1747 C1770 0.950 . S
H1748 C1771 0.950 . S
H1749 C1773 0.950 . S
H1750 C1774 0.950 . S
H1751 C1775 0.951 . S
H1752 C1777 0.951 . S
H1753 C1779 0.950 . S
H1754 C1780 0.950 . S
H1755 C1782 0.950 . S
H1756 C1785 0.950 . S
H1757 C1786 0.950 . S
H1758 C1788 0.950 . S
H1759 C1789 0.950 . S
C1760 H1742 0.951 . S
C1760 C1761 1.366 . S
C1760 C1762 1.388 . S
C1761 C1760 1.366 . S
C1761 C1765 1.385 . S
C1762 H1743 0.951 . S
C1762 C1760 1.388 . S
C1762 C1763 1.366 . S
C1763 C1762 1.366 . S
C1763 C1764 1.414 . S
C1763 C1766 1.499 . S
C1764 H1744 0.950 . S
C1764 C1763 1.414 . S
C1764 C1765 1.374 . S
C1765 H1745 0.950 . S
C1765 C1761 1.385 . S
C1765 C1764 1.374 . S
C1766 C1763 1.499 . S
C1766 C1767 1.373 . S
C1766 C1768 1.389 . S
C1767 H1746 0.950 . S
C1767 C1766 1.373 . S
C1767 C1783 1.377 . S
C1768 C1766 1.389 . S
C1768 C1769 1.524 . S
C1768 C1782 1.377 . S
C1769 C1768 1.524 . S
C1769 C1770 1.397 . S
C1769 C1774 1.363 . S
C1770 H1747 0.950 . S
C1770 C1769 1.397 . S
C1770 C1771 1.334 . S
C1771 H1748 0.950 . S
C1771 C1770 1.334 . S
C1771 C1772 1.287 . S
C1772 C1771 1.287 . S
C1772 C1773 1.524 . S
C1772 H1791 0.913 . S
C1773 H1749 0.950 . S
C1773 C1772 1.524 . S
C1773 C1774 1.415 . S
C1774 H1750 0.950 . S
C1774 C1769 1.363 . S
C1774 C1773 1.415 . S
C1775 H1751 0.951 . S
C1775 C1776 1.366 . S
C1775 C1777 1.388 . S
C1776 C1775 1.366 . S
C1776 C1780 1.385 . S
C1777 H1752 0.951 . S
C1777 C1775 1.388 . S
C1777 C1778 1.366 . S
C1778 C1777 1.366 . S
C1778 C1779 1.414 . S
C1778 C1781 1.499 . S
C1779 H1753 0.950 . S
C1779 C1778 1.414 . S
C1779 C1780 1.374 . S
C1780 H1754 0.950 . S
C1780 C1776 1.385 . S
C1780 C1779 1.374 . S
C1781 C1778 1.499 . S
C1781 C1782 1.373 . S
C1781 C1783 1.389 . S
C1782 H1755 0.950 . S
C1782 C1768 1.377 . S
C1782 C1781 1.373 . S
C1783 C1767 1.377 . S
C1783 C1781 1.389 . S
C1783 C1784 1.524 . S
C1784 C1783 1.524 . S
C1784 C1785 1.397 . S
C1784 C1789 1.363 . S
C1785 H1756 0.950 . S
C1785 C1784 1.397 . S
C1785 C1786 1.334 . S
C1786 H1757 0.950 . S
C1786 C1785 1.334 . S
C1786 C1787 1.287 . S
C1787 C1786 1.287 . S
C1787 C1788 1.524 . S
C1787 H1790 0.999 . S
C1788 H1758 0.950 . S
C1788 C1787 1.524 . S
C1788 C1789 1.415 . S
C1789 H1759 0.950 . S
C1789 C1784 1.363 . S
C1789 C1788 1.415 . S
H1790 C1787 0.999 . S
H1791 C1772 0.913 . S
H1792 C1810 0.951 . S
H1793 C1812 0.951 . S
H1794 C1814 0.950 . S
H1795 C1815 0.950 . S
H1796 C1817 0.950 . S
H1797 C1820 0.950 . S
H1798 C1821 0.950 . S
H1799 C1823 0.950 . S
H1800 C1824 0.950 . S
H1801 C1825 0.951 . S
H1802 C1827 0.951 . S
H1803 C1829 0.950 . S
H1804 C1830 0.950 . S
H1805 C1832 0.950 . S
H1806 C1835 0.950 . S
H1807 C1836 0.950 . S
H1808 C1838 0.950 . S
H1809 C1839 0.950 . S
C1810 H1792 0.951 . S
C1810 C1811 1.366 . S
C1810 C1812 1.388 . S
C1811 C1810 1.366 . S
C1811 C1815 1.385 . S
C1812 H1793 0.951 . S
C1812 C1810 1.388 . S
C1812 C1813 1.366 . S
C1813 C1812 1.366 . S
C1813 C1814 1.414 . S
C1813 C1816 1.499 . S
C1814 H1794 0.950 . S
C1814 C1813 1.414 . S
C1814 C1815 1.374 . S
C1815 H1795 0.950 . S
C1815 C1811 1.385 . S
C1815 C1814 1.374 . S
C1816 C1813 1.499 . S
C1816 C1817 1.373 . S
C1816 C1818 1.389 . S
C1817 H1796 0.950 . S
C1817 C1816 1.373 . S
C1817 C1833 1.377 . S
C1818 C1816 1.389 . S
C1818 C1819 1.524 . S
C1818 C1832 1.377 . S
C1819 C1818 1.524 . S
C1819 C1820 1.397 . S
C1819 C1824 1.363 . S
C1820 H1797 0.950 . S
C1820 C1819 1.397 . S
C1820 C1821 1.334 . S
C1821 H1798 0.950 . S
C1821 C1820 1.334 . S
C1821 C1822 1.287 . S
C1822 C1821 1.287 . S
C1822 C1823 1.524 . S
C1822 H1841 0.913 . S
C1823 H1799 0.950 . S
C1823 C1822 1.524 . S
C1823 C1824 1.415 . S
C1824 H1800 0.950 . S
C1824 C1819 1.363 . S
C1824 C1823 1.415 . S
C1825 H1801 0.951 . S
C1825 C1826 1.366 . S
C1825 C1827 1.388 . S
C1826 C1825 1.366 . S
C1826 C1830 1.385 . S
C1827 H1802 0.951 . S
C1827 C1825 1.388 . S
C1827 C1828 1.366 . S
C1828 C1827 1.366 . S
C1828 C1829 1.414 . S
C1828 C1831 1.499 . S
C1829 H1803 0.950 . S
C1829 C1828 1.414 . S
C1829 C1830 1.374 . S
C1830 H1804 0.950 . S
C1830 C1826 1.385 . S
C1830 C1829 1.374 . S
C1831 C1828 1.499 . S
C1831 C1832 1.373 . S
C1831 C1833 1.389 . S
C1832 H1805 0.950 . S
C1832 C1818 1.377 . S
C1832 C1831 1.373 . S
C1833 C1817 1.377 . S
C1833 C1831 1.389 . S
C1833 C1834 1.524 . S
C1834 C1833 1.524 . S
C1834 C1835 1.397 . S
C1834 C1839 1.363 . S
C1835 H1806 0.950 . S
C1835 C1834 1.397 . S
C1835 C1836 1.334 . S
C1836 H1807 0.950 . S
C1836 C1835 1.334 . S
C1836 C1837 1.287 . S
C1837 C1836 1.287 . S
C1837 C1838 1.524 . S
C1837 H1840 0.999 . S
C1838 H1808 0.950 . S
C1838 C1837 1.524 . S
C1838 C1839 1.415 . S
C1839 H1809 0.950 . S
C1839 C1834 1.363 . S
C1839 C1838 1.415 . S
H1840 C1837 0.999 . S
H1841 C1822 0.913 . S
H1842 C1860 0.951 . S
H1843 C1862 0.951 . S
H1844 C1864 0.950 . S
H1845 C1865 0.950 . S
H1846 C1867 0.950 . S
H1847 C1870 0.950 . S
H1848 C1871 0.950 . S
H1849 C1873 0.950 . S
H1850 C1874 0.950 . S
H1851 C1875 0.951 . S
H1852 C1877 0.951 . S
H1853 C1879 0.950 . S
H1854 C1880 0.950 . S
H1855 C1882 0.950 . S
H1856 C1885 0.950 . S
H1857 C1886 0.950 . S
H1858 C1888 0.950 . S
H1859 C1889 0.950 . S
C1860 H1842 0.951 . S
C1860 C1861 1.366 . S
C1860 C1862 1.388 . S
C1861 C1860 1.366 . S
C1861 C1865 1.385 . S
C1862 H1843 0.951 . S
C1862 C1860 1.388 . S
C1862 C1863 1.366 . S
C1863 C1862 1.366 . S
C1863 C1864 1.414 . S
C1863 C1866 1.499 . S
C1864 H1844 0.950 . S
C1864 C1863 1.414 . S
C1864 C1865 1.374 . S
C1865 H1845 0.950 . S
C1865 C1861 1.385 . S
C1865 C1864 1.374 . S
C1866 C1863 1.499 . S
C1866 C1867 1.373 . S
C1866 C1868 1.389 . S
C1867 H1846 0.950 . S
C1867 C1866 1.373 . S
C1867 C1883 1.377 . S
C1868 C1866 1.389 . S
C1868 C1869 1.524 . S
C1868 C1882 1.377 . S
C1869 C1868 1.524 . S
C1869 C1870 1.397 . S
C1869 C1874 1.363 . S
C1870 H1847 0.950 . S
C1870 C1869 1.397 . S
C1870 C1871 1.334 . S
C1871 H1848 0.950 . S
C1871 C1870 1.334 . S
C1871 C1872 1.287 . S
C1872 C1871 1.287 . S
C1872 C1873 1.524 . S
C1872 H1891 0.913 . S
C1873 H1849 0.950 . S
C1873 C1872 1.524 . S
C1873 C1874 1.415 . S
C1874 H1850 0.950 . S
C1874 C1869 1.363 . S
C1874 C1873 1.415 . S
C1875 H1851 0.951 . S
C1875 C1876 1.366 . S
C1875 C1877 1.388 . S
C1876 C1875 1.366 . S
C1876 C1880 1.385 . S
C1877 H1852 0.951 . S
C1877 C1875 1.388 . S
C1877 C1878 1.366 . S
C1878 C1877 1.366 . S
C1878 C1879 1.414 . S
C1878 C1881 1.499 . S
C1879 H1853 0.950 . S
C1879 C1878 1.414 . S
C1879 C1880 1.374 . S
C1880 H1854 0.950 . S
C1880 C1876 1.385 . S
C1880 C1879 1.374 . S
C1881 C1878 1.499 . S
C1881 C1882 1.373 . S
C1881 C1883 1.389 . S
C1882 H1855 0.950 . S
C1882 C1868 1.377 . S
C1882 C1881 1.373 . S
C1883 C1867 1.377 . S
C1883 C1881 1.389 . S
C1883 C1884 1.524 . S
C1884 C1883 1.524 . S
C1884 C1885 1.397 . S
C1884 C1889 1.363 . S
C1885 H1856 0.950 . S
C1885 C1884 1.397 . S
C1885 C1886 1.334 . S
C1886 H1857 0.950 . S
C1886 C1885 1.334 . S
C1886 C1887 1.287 . S
C1887 C1886 1.287 . S
C1887 C1888 1.524 . S
C1887 H1890 0.999 . S
C1888 H1858 0.950 . S
C1888 C1887 1.524 . S
C1888 C1889 1.415 . S
C1889 H1859 0.950 . S
C1889 C1884 1.363 . S
C1889 C1888 1.415 . S
H1890 C1887 0.999 . S
H1891 C1872 0.913 . S
H1892 C1910 0.951 . S
H1893 C1912 0.951 . S
H1894 C1914 0.950 . S
H1895 C1915 0.950 . S
H1896 C1917 0.950 . S
H1897 C1920 0.950 . S
H1898 C1921 0.950 . S
H1899 C1923 0.950 . S
H1900 C1924 0.950 . S
H1901 C1925 0.951 . S
H1902 C1927 0.951 . S
H1903 C1929 0.950 . S
H1904 C1930 0.950 . S
H1905 C1932 0.950 . S
H1906 C1935 0.950 . S
H1907 C1936 0.950 . S
H1908 C1938 0.950 . S
H1909 C1939 0.950 . S
C1910 H1892 0.951 . S
C1910 C1911 1.366 . S
C1910 C1912 1.388 . S
C1911 C1910 1.366 . S
C1911 C1915 1.385 . S
C1912 H1893 0.951 . S
C1912 C1910 1.388 . S
C1912 C1913 1.366 . S
C1913 C1912 1.366 . S
C1913 C1914 1.414 . S
C1913 C1916 1.499 . S
C1914 H1894 0.950 . S
C1914 C1913 1.414 . S
C1914 C1915 1.374 . S
C1915 H1895 0.950 . S
C1915 C1911 1.385 . S
C1915 C1914 1.374 . S
C1916 C1913 1.499 . S
C1916 C1917 1.373 . S
C1916 C1918 1.389 . S
C1917 H1896 0.950 . S
C1917 C1916 1.373 . S
C1917 C1933 1.377 . S
C1918 C1916 1.389 . S
C1918 C1919 1.524 . S
C1918 C1932 1.377 . S
C1919 C1918 1.524 . S
C1919 C1920 1.397 . S
C1919 C1924 1.363 . S
C1920 H1897 0.950 . S
C1920 C1919 1.397 . S
C1920 C1921 1.334 . S
C1921 H1898 0.950 . S
C1921 C1920 1.334 . S
C1921 C1922 1.287 . S
C1922 C1921 1.287 . S
C1922 C1923 1.524 . S
C1922 H1941 0.913 . S
C1923 H1899 0.950 . S
C1923 C1922 1.524 . S
C1923 C1924 1.415 . S
C1924 H1900 0.950 . S
C1924 C1919 1.363 . S
C1924 C1923 1.415 . S
C1925 H1901 0.951 . S
C1925 C1926 1.366 . S
C1925 C1927 1.388 . S
C1926 C1925 1.366 . S
C1926 C1930 1.385 . S
C1927 H1902 0.951 . S
C1927 C1925 1.388 . S
C1927 C1928 1.366 . S
C1928 C1927 1.366 . S
C1928 C1929 1.414 . S
C1928 C1931 1.499 . S
C1929 H1903 0.950 . S
C1929 C1928 1.414 . S
C1929 C1930 1.374 . S
C1930 H1904 0.950 . S
C1930 C1926 1.385 . S
C1930 C1929 1.374 . S
C1931 C1928 1.499 . S
C1931 C1932 1.373 . S
C1931 C1933 1.389 . S
C1932 H1905 0.950 . S
C1932 C1918 1.377 . S
C1932 C1931 1.373 . S
C1933 C1917 1.377 . S
C1933 C1931 1.389 . S
C1933 C1934 1.524 . S
C1934 C1933 1.524 . S
C1934 C1935 1.397 . S
C1934 C1939 1.363 . S
C1935 H1906 0.950 . S
C1935 C1934 1.397 . S
C1935 C1936 1.334 . S
C1936 H1907 0.950 . S
C1936 C1935 1.334 . S
C1936 C1937 1.287 . S
C1937 C1936 1.287 . S
C1937 C1938 1.524 . S
C1937 H1940 0.999 . S
C1938 H1908 0.950 . S
C1938 C1937 1.524 . S
C1938 C1939 1.415 . S
C1939 H1909 0.950 . S
C1939 C1934 1.363 . S
C1939 C1938 1.415 . S
H1940 C1937 0.999 . S
H1941 C1922 0.913 . S
H1942 C1960 0.951 . S
H1943 C1962 0.951 . S
H1944 C1964 0.950 . S
H1945 C1965 0.950 . S
H1946 C1967 0.950 . S
H1947 C1970 0.950 . S
H1948 C1971 0.950 . S
H1949 C1973 0.950 . S
H1950 C1974 0.950 . S
H1951 C1975 0.951 . S
H1952 C1977 0.951 . S
H1953 C1979 0.950 . S
H1954 C1980 0.950 . S
H1955 C1982 0.950 . S
H1956 C1985 0.950 . S
H1957 C1986 0.950 . S
H1958 C1988 0.950 . S
H1959 C1989 0.950 . S
C1960 H1942 0.951 . S
C1960 C1961 1.366 . S
C1960 C1962 1.388 . S
C1961 C1960 1.366 . S
C1961 C1965 1.385 . S
C1962 H1943 0.951 . S
C1962 C1960 1.388 . S
C1962 C1963 1.366 . S
C1963 C1962 1.366 . S
C1963 C1964 1.414 . S
C1963 C1966 1.499 . S
C1964 H1944 0.950 . S
C1964 C1963 1.414 . S
C1964 C1965 1.374 . S
C1965 H1945 0.950 . S
C1965 C1961 1.385 . S
C1965 C1964 1.374 . S
C1966 C1963 1.499 . S
C1966 C1967 1.373 . S
C1966 C1968 1.389 . S
C1967 H1946 0.950 . S
C1967 C1966 1.373 . S
C1967 C1983 1.377 . S
C1968 C1966 1.389 . S
C1968 C1969 1.524 . S
C1968 C1982 1.377 . S
C1969 C1968 1.524 . S
C1969 C1970 1.397 . S
C1969 C1974 1.363 . S
C1970 H1947 0.950 . S
C1970 C1969 1.397 . S
C1970 C1971 1.334 . S
C1971 H1948 0.950 . S
C1971 C1970 1.334 . S
C1971 C1972 1.287 . S
C1972 C1971 1.287 . S
C1972 C1973 1.524 . S
C1972 H1991 0.913 . S
C1973 H1949 0.950 . S
C1973 C1972 1.524 . S
C1973 C1974 1.415 . S
C1974 H1950 0.950 . S
C1974 C1969 1.363 . S
C1974 C1973 1.415 . S
C1975 H1951 0.951 . S
C1975 C1976 1.366 . S
C1975 C1977 1.388 . S
C1976 C1975 1.366 . S
C1976 C1980 1.385 . S
C1977 H1952 0.951 . S
C1977 C1975 1.388 . S
C1977 C1978 1.366 . S
C1978 C1977 1.366 . S
C1978 C1979 1.414 . S
C1978 C1981 1.499 . S
C1979 H1953 0.950 . S
C1979 C1978 1.414 . S
C1979 C1980 1.374 . S
C1980 H1954 0.950 . S
C1980 C1976 1.385 . S
C1980 C1979 1.374 . S
C1981 C1978 1.499 . S
C1981 C1982 1.373 . S
C1981 C1983 1.389 . S
C1982 H1955 0.950 . S
C1982 C1968 1.377 . S
C1982 C1981 1.373 . S
C1983 C1967 1.377 . S
C1983 C1981 1.389 . S
C1983 C1984 1.524 . S
C1984 C1983 1.524 . S
C1984 C1985 1.397 . S
C1984 C1989 1.363 . S
C1985 H1956 0.950 . S
C1985 C1984 1.397 . S
C1985 C1986 1.334 . S
C1986 H1957 0.950 . S
C1986 C1985 1.334 . S
C1986 C1987 1.287 . S
C1987 C1986 1.287 . S
C1987 C1988 1.524 . S
C1987 H1990 0.999 . S
C1988 H1958 0.950 . S
C1988 C1987 1.524 . S
C1988 C1989 1.415 . S
C1989 H1959 0.950 . S
C1989 C1984 1.363 . S
C1989 C1988 1.415 . S
H1990 C1987 0.999 . S
H1991 C1972 0.913 . S
H1992 C2010 0.951 . S
H1993 C2012 0.951 . S
H1994 C2014 0.950 . S
H1995 C2015 0.950 . S
H1996 C2017 0.950 . S
H1997 C2020 0.950 . S
H1998 C2021 0.950 . S
H1999 C2023 0.950 . S
H2000 C2024 0.950 . S
H2001 C2025 0.951 . S
H2002 C2027 0.951 . S
H2003 C2029 0.950 . S
H2004 C2030 0.950 . S
H2005 C2032 0.950 . S
H2006 C2035 0.950 . S
H2007 C2036 0.950 . S
H2008 C2038 0.950 . S
H2009 C2039 0.950 . S
C2010 H1992 0.951 . S
C2010 C2011 1.366 . S
C2010 C2012 1.388 . S
C2011 C2010 1.366 . S
C2011 C2015 1.385 . S
C2012 H1993 0.951 . S
C2012 C2010 1.388 . S
C2012 C2013 1.366 . S
C2013 C2012 1.366 . S
C2013 C2014 1.414 . S
C2013 C2016 1.499 . S
C2014 H1994 0.950 . S
C2014 C2013 1.414 . S
C2014 C2015 1.374 . S
C2015 H1995 0.950 . S
C2015 C2011 1.385 . S
C2015 C2014 1.374 . S
C2016 C2013 1.499 . S
C2016 C2017 1.373 . S
C2016 C2018 1.389 . S
C2017 H1996 0.950 . S
C2017 C2016 1.373 . S
C2017 C2033 1.377 . S
C2018 C2016 1.389 . S
C2018 C2019 1.524 . S
C2018 C2032 1.377 . S
C2019 C2018 1.524 . S
C2019 C2020 1.397 . S
C2019 C2024 1.363 . S
C2020 H1997 0.950 . S
C2020 C2019 1.397 . S
C2020 C2021 1.334 . S
C2021 H1998 0.950 . S
C2021 C2020 1.334 . S
C2021 C2022 1.287 . S
C2022 C2021 1.287 . S
C2022 C2023 1.524 . S
C2022 H2041 0.913 . S
C2023 H1999 0.950 . S
C2023 C2022 1.524 . S
C2023 C2024 1.415 . S
C2024 H2000 0.950 . S
C2024 C2019 1.363 . S
C2024 C2023 1.415 . S
C2025 H2001 0.951 . S
C2025 C2026 1.366 . S
C2025 C2027 1.388 . S
C2026 C2025 1.366 . S
C2026 C2030 1.385 . S
C2027 H2002 0.951 . S
C2027 C2025 1.388 . S
C2027 C2028 1.366 . S
C2028 C2027 1.366 . S
C2028 C2029 1.414 . S
C2028 C2031 1.499 . S
C2029 H2003 0.950 . S
C2029 C2028 1.414 . S
C2029 C2030 1.374 . S
C2030 H2004 0.950 . S
C2030 C2026 1.385 . S
C2030 C2029 1.374 . S
C2031 C2028 1.499 . S
C2031 C2032 1.373 . S
C2031 C2033 1.389 . S
C2032 H2005 0.950 . S
C2032 C2018 1.377 . S
C2032 C2031 1.373 . S
C2033 C2017 1.377 . S
C2033 C2031 1.389 . S
C2033 C2034 1.524 . S
C2034 C2033 1.524 . S
C2034 C2035 1.397 . S
C2034 C2039 1.363 . S
C2035 H2006 0.950 . S
C2035 C2034 1.397 . S
C2035 C2036 1.334 . S
C2036 H2007 0.950 . S
C2036 C2035 1.334 . S
C2036 C2037 1.287 . S
C2037 C2036 1.287 . S
C2037 C2038 1.524 . S
C2037 H2040 0.999 . S
C2038 H2008 0.950 . S
C2038 C2037 1.524 . S
C2038 C2039 1.415 . S
C2039 H2009 0.950 . S
C2039 C2034 1.363 . S
C2039 C2038 1.415 . S
H2040 C2037 0.999 . S
H2041 C2022 0.913 . S
H2042 C2060 0.951 1_565 S
H2043 C2062 0.951 1_565 S
H2044 C2064 0.950 . S
H2045 C2065 0.950 . S
H2046 C2067 0.950 . S
H2047 C2070 0.950 1_545 S
H2048 C2071 0.950 . S
H2049 C2073 0.950 . S
H2050 C2074 0.950 . S
H2051 C2075 0.951 . S
H2052 C2077 0.951 . S
H2053 C2079 0.950 . S
H2054 C2080 0.950 . S
H2055 C2082 1.005 . S
H2056 C2085 0.950 . S
H2057 C2086 0.950 . S
H2058 C2088 0.950 . S
H2059 C2089 0.950 . S
C2060 H2042 0.951 1_545 S
C2060 C2061 1.366 . S
C2060 C2062 1.388 . S
C2061 C2060 1.366 . S
C2061 C2065 1.385 . S
C2062 H2043 0.951 1_545 S
C2062 C2060 1.388 . S
C2062 C2063 1.366 . S
C2063 C2062 1.366 . S
C2063 C2064 1.414 . S
C2063 C2066 1.499 . S
C2064 H2044 0.950 . S
C2064 C2063 1.414 . S
C2064 C2065 1.374 . S
C2065 H2045 0.950 . S
C2065 C2061 1.385 . S
C2065 C2064 1.374 . S
C2066 C2063 1.499 . S
C2066 C2067 1.373 . S
C2066 C2068 1.447 . S
C2067 H2046 0.950 . S
C2067 C2066 1.373 . S
C2067 C2083 1.377 . S
C2068 C2066 1.447 . S
C2068 C2069 1.475 1_545 S
C2068 C2082 1.365 1_545 S
C2069 C2068 1.475 1_565 S
C2069 C2070 1.397 . S
C2069 C2074 1.363 . S
C2070 H2047 0.950 1_565 S
C2070 C2069 1.397 . S
C2070 C2071 1.334 . S
C2071 H2048 0.950 . S
C2071 C2070 1.334 . S
C2071 C2072 1.287 . S
C2072 C2071 1.287 . S
C2072 C2073 1.524 . S
C2072 H2091 0.913 . S
C2073 H2049 0.950 . S
C2073 C2072 1.524 . S
C2073 C2074 1.415 . S
C2074 H2050 0.950 . S
C2074 C2069 1.363 . S
C2074 C2073 1.415 . S
C2075 H2051 0.951 . S
C2075 C2076 1.366 . S
C2075 C2077 1.388 . S
C2076 C2075 1.366 . S
C2076 C2080 1.385 1_545 S
C2077 H2052 0.951 . S
C2077 C2075 1.388 . S
C2077 C2078 1.366 . S
C2078 C2077 1.366 . S
C2078 C2079 1.414 1_545 S
C2078 C2081 1.499 . S
C2079 H2053 0.950 . S
C2079 C2078 1.414 1_565 S
C2079 C2080 1.374 . S
C2080 H2054 0.950 . S
C2080 C2076 1.385 1_565 S
C2080 C2079 1.374 . S
C2081 C2078 1.499 . S
C2081 C2082 1.329 1_545 S
C2081 C2083 1.389 . S
C2082 H2055 1.005 . S
C2082 C2068 1.365 1_565 S
C2082 C2081 1.329 1_565 S
C2083 C2067 1.377 . S
C2083 C2081 1.389 . S
C2083 C2084 1.524 . S
C2084 C2083 1.524 . S
C2084 C2085 1.397 . S
C2084 C2089 1.363 . S
C2085 H2056 0.950 . S
C2085 C2084 1.397 . S
C2085 C2086 1.334 . S
C2086 H2057 0.950 . S
C2086 C2085 1.334 . S
C2086 C2087 1.287 . S
C2087 C2086 1.287 . S
C2087 C2088 1.524 . S
C2087 H2090 0.999 . S
C2088 H2058 0.950 . S
C2088 C2087 1.524 . S
C2088 C2089 1.415 . S
C2089 H2059 0.950 . S
C2089 C2084 1.363 . S
C2089 C2088 1.415 . S
H2090 C2087 0.999 . S
H2091 C2072 0.913 . S
H2092 C2110 0.951 . S
H2093 C2112 0.951 . S
H2094 C2114 0.950 . S
H2095 C2115 0.950 . S
H2096 C2117 0.950 . S
H2097 C2120 0.950 . S
H2098 C2121 0.950 . S
H2099 C2123 0.950 . S
H2100 C2124 0.950 . S
H2101 C2125 0.951 . S
H2102 C2127 0.951 . S
H2103 C2129 0.950 . S
H2104 C2130 0.950 . S
H2105 C2132 0.950 . S
H2106 C2135 0.950 . S
H2107 C2136 0.950 . S
H2108 C2138 0.950 . S
H2109 C2139 0.950 . S
C2110 H2092 0.951 . S
C2110 C2111 1.366 . S
C2110 C2112 1.388 . S
C2111 C2110 1.366 . S
C2111 C2115 1.385 . S
C2112 H2093 0.951 . S
C2112 C2110 1.388 . S
C2112 C2113 1.366 . S
C2113 C2112 1.366 . S
C2113 C2114 1.414 . S
C2113 C2116 1.499 . S
C2114 H2094 0.950 . S
C2114 C2113 1.414 . S
C2114 C2115 1.374 . S
C2115 H2095 0.950 . S
C2115 C2111 1.385 . S
C2115 C2114 1.374 . S
C2116 C2113 1.499 . S
C2116 C2117 1.373 . S
C2116 C2118 1.389 . S
C2117 H2096 0.950 . S
C2117 C2116 1.373 . S
C2117 C2133 1.377 . S
C2118 C2116 1.389 . S
C2118 C2119 1.524 . S
C2118 C2132 1.377 . S
C2119 C2118 1.524 . S
C2119 C2120 1.397 . S
C2119 C2124 1.363 . S
C2120 H2097 0.950 . S
C2120 C2119 1.397 . S
C2120 C2121 1.334 . S
C2121 H2098 0.950 . S
C2121 C2120 1.334 . S
C2121 C2122 1.287 . S
C2122 C2121 1.287 . S
C2122 C2123 1.524 . S
C2122 H2141 0.913 . S
C2123 H2099 0.950 . S
C2123 C2122 1.524 . S
C2123 C2124 1.415 . S
C2124 H2100 0.950 . S
C2124 C2119 1.363 . S
C2124 C2123 1.415 . S
C2125 H2101 0.951 . S
C2125 C2126 1.366 . S
C2125 C2127 1.388 . S
C2126 C2125 1.366 . S
C2126 C2130 1.385 . S
C2127 H2102 0.951 . S
C2127 C2125 1.388 . S
C2127 C2128 1.366 . S
C2128 C2127 1.366 . S
C2128 C2129 1.414 . S
C2128 C2131 1.499 . S
C2129 H2103 0.950 . S
C2129 C2128 1.414 . S
C2129 C2130 1.374 . S
C2130 H2104 0.950 . S
C2130 C2126 1.385 . S
C2130 C2129 1.374 . S
C2131 C2128 1.499 . S
C2131 C2132 1.373 . S
C2131 C2133 1.389 . S
C2132 H2105 0.950 . S
C2132 C2118 1.377 . S
C2132 C2131 1.373 . S
C2133 C2117 1.377 . S
C2133 C2131 1.389 . S
C2133 C2134 1.524 . S
C2134 C2133 1.524 . S
C2134 C2135 1.397 . S
C2134 C2139 1.363 . S
C2135 H2106 0.950 . S
C2135 C2134 1.397 . S
C2135 C2136 1.334 . S
C2136 H2107 0.950 . S
C2136 C2135 1.334 . S
C2136 C2137 1.287 . S
C2137 C2136 1.287 . S
C2137 C2138 1.524 . S
C2137 H2140 0.999 . S
C2138 H2108 0.950 . S
C2138 C2137 1.524 . S
C2138 C2139 1.415 . S
C2139 H2109 0.950 . S
C2139 C2134 1.363 . S
C2139 C2138 1.415 . S
H2140 C2137 0.999 . S
H2141 C2122 0.913 . S
H2142 C2160 0.951 . S
H2143 C2162 0.951 . S
H2144 C2164 0.950 . S
H2145 C2165 0.950 . S
H2146 C2167 0.950 . S
H2147 C2170 0.950 . S
H2148 C2171 0.950 . S
H2149 C2173 0.950 . S
H2150 C2174 0.950 . S
H2151 C2175 0.951 . S
H2152 C2177 0.951 . S
H2153 C2179 0.950 . S
H2154 C2180 0.950 . S
H2155 C2182 0.950 . S
H2156 C2185 0.950 . S
H2157 C2186 0.950 . S
H2158 C2188 0.950 . S
H2159 C2189 0.950 . S
C2160 H2142 0.951 . S
C2160 C2161 1.366 . S
C2160 C2162 1.388 . S
C2161 C2160 1.366 . S
C2161 C2165 1.385 . S
C2162 H2143 0.951 . S
C2162 C2160 1.388 . S
C2162 C2163 1.366 . S
C2163 C2162 1.366 . S
C2163 C2164 1.414 . S
C2163 C2166 1.499 . S
C2164 H2144 0.950 . S
C2164 C2163 1.414 . S
C2164 C2165 1.374 . S
C2165 H2145 0.950 . S
C2165 C2161 1.385 . S
C2165 C2164 1.374 . S
C2166 C2163 1.499 . S
C2166 C2167 1.373 . S
C2166 C2168 1.389 . S
C2167 H2146 0.950 . S
C2167 C2166 1.373 . S
C2167 C2183 1.377 . S
C2168 C2166 1.389 . S
C2168 C2169 1.524 . S
C2168 C2182 1.377 . S
C2169 C2168 1.524 . S
C2169 C2170 1.397 . S
C2169 C2174 1.363 . S
C2170 H2147 0.950 . S
C2170 C2169 1.397 . S
C2170 C2171 1.334 . S
C2171 H2148 0.950 . S
C2171 C2170 1.334 . S
C2171 C2172 1.287 . S
C2172 C2171 1.287 . S
C2172 C2173 1.524 . S
C2172 H2191 0.913 . S
C2173 H2149 0.950 . S
C2173 C2172 1.524 . S
C2173 C2174 1.415 . S
C2174 H2150 0.950 . S
C2174 C2169 1.363 . S
C2174 C2173 1.415 . S
C2175 H2151 0.951 . S
C2175 C2176 1.366 . S
C2175 C2177 1.388 . S
C2176 C2175 1.366 . S
C2176 C2180 1.385 . S
C2177 H2152 0.951 . S
C2177 C2175 1.388 . S
C2177 C2178 1.366 . S
C2178 C2177 1.366 . S
C2178 C2179 1.414 . S
C2178 C2181 1.499 . S
C2179 H2153 0.950 . S
C2179 C2178 1.414 . S
C2179 C2180 1.374 . S
C2180 H2154 0.950 . S
C2180 C2176 1.385 . S
C2180 C2179 1.374 . S
C2181 C2178 1.499 . S
C2181 C2182 1.373 . S
C2181 C2183 1.389 . S
C2182 H2155 0.950 . S
C2182 C2168 1.377 . S
C2182 C2181 1.373 . S
C2183 C2167 1.377 . S
C2183 C2181 1.389 . S
C2183 C2184 1.524 . S
C2184 C2183 1.524 . S
C2184 C2185 1.397 . S
C2184 C2189 1.363 . S
C2185 H2156 0.950 . S
C2185 C2184 1.397 . S
C2185 C2186 1.334 . S
C2186 H2157 0.950 . S
C2186 C2185 1.334 . S
C2186 C2187 1.287 . S
C2187 C2186 1.287 . S
C2187 C2188 1.524 . S
C2187 H2190 0.999 . S
C2188 H2158 0.950 . S
C2188 C2187 1.524 . S
C2188 C2189 1.415 . S
C2189 H2159 0.950 . S
C2189 C2184 1.363 . S
C2189 C2188 1.415 . S
H2190 C2187 0.999 . S
H2191 C2172 0.913 . S
H2192 C2210 0.951 . S
H2193 C2212 0.951 . S
H2194 C2214 0.950 . S
H2195 C2215 0.950 . S
H2196 C2217 0.950 . S
H2197 C2220 0.950 . S
H2198 C2221 0.950 . S
H2199 C2223 0.950 . S
H2200 C2224 0.950 . S
H2201 C2225 0.951 . S
H2202 C2227 0.951 . S
H2203 C2229 0.950 . S
H2204 C2230 0.950 . S
H2205 C2232 0.950 . S
H2206 C2235 0.950 . S
H2207 C2236 0.950 . S
H2208 C2238 0.950 . S
H2209 C2239 0.950 . S
C2210 H2192 0.951 . S
C2210 C2211 1.366 . S
C2210 C2212 1.388 . S
C2211 C2210 1.366 . S
C2211 C2215 1.385 . S
C2212 H2193 0.951 . S
C2212 C2210 1.388 . S
C2212 C2213 1.366 . S
C2213 C2212 1.366 . S
C2213 C2214 1.414 . S
C2213 C2216 1.499 . S
C2214 H2194 0.950 . S
C2214 C2213 1.414 . S
C2214 C2215 1.374 . S
C2215 H2195 0.950 . S
C2215 C2211 1.385 . S
C2215 C2214 1.374 . S
C2216 C2213 1.499 . S
C2216 C2217 1.373 . S
C2216 C2218 1.389 . S
C2217 H2196 0.950 . S
C2217 C2216 1.373 . S
C2217 C2233 1.377 . S
C2218 C2216 1.389 . S
C2218 C2219 1.524 . S
C2218 C2232 1.377 . S
C2219 C2218 1.524 . S
C2219 C2220 1.397 . S
C2219 C2224 1.363 . S
C2220 H2197 0.950 . S
C2220 C2219 1.397 . S
C2220 C2221 1.334 . S
C2221 H2198 0.950 . S
C2221 C2220 1.334 . S
C2221 C2222 1.287 . S
C2222 C2221 1.287 . S
C2222 C2223 1.524 . S
C2222 H2241 0.913 . S
C2223 H2199 0.950 . S
C2223 C2222 1.524 . S
C2223 C2224 1.415 . S
C2224 H2200 0.950 . S
C2224 C2219 1.363 . S
C2224 C2223 1.415 . S
C2225 H2201 0.951 . S
C2225 C2226 1.366 . S
C2225 C2227 1.388 . S
C2226 C2225 1.366 . S
C2226 C2230 1.385 . S
C2227 H2202 0.951 . S
C2227 C2225 1.388 . S
C2227 C2228 1.366 . S
C2228 C2227 1.366 . S
C2228 C2229 1.414 . S
C2228 C2231 1.499 . S
C2229 H2203 0.950 . S
C2229 C2228 1.414 . S
C2229 C2230 1.374 . S
C2230 H2204 0.950 . S
C2230 C2226 1.385 . S
C2230 C2229 1.374 . S
C2231 C2228 1.499 . S
C2231 C2232 1.373 . S
C2231 C2233 1.389 . S
C2232 H2205 0.950 . S
C2232 C2218 1.377 . S
C2232 C2231 1.373 . S
C2233 C2217 1.377 . S
C2233 C2231 1.389 . S
C2233 C2234 1.524 . S
C2234 C2233 1.524 . S
C2234 C2235 1.397 . S
C2234 C2239 1.363 . S
C2235 H2206 0.950 . S
C2235 C2234 1.397 . S
C2235 C2236 1.334 . S
C2236 H2207 0.950 . S
C2236 C2235 1.334 . S
C2236 C2237 1.287 . S
C2237 C2236 1.287 . S
C2237 C2238 1.524 . S
C2237 H2240 0.999 . S
C2238 H2208 0.950 . S
C2238 C2237 1.524 . S
C2238 C2239 1.415 . S
C2239 H2209 0.950 . S
C2239 C2234 1.363 . S
C2239 C2238 1.415 . S
H2240 C2237 0.999 . S
H2241 C2222 0.913 . S
H2242 C2260 0.951 . S
H2243 C2262 0.951 . S
H2244 C2264 0.950 . S
H2245 C2265 0.885 1_455 S
H2246 C2267 0.950 . S
H2247 C2270 0.950 . S
H2248 C2271 0.950 . S
H2249 C2273 0.950 . S
H2250 C2274 0.950 . S
H2251 C2275 0.951 . S
H2252 C2277 0.951 . S
H2253 C2279 0.950 . S
H2254 C2280 0.950 . S
H2255 C2282 0.950 . S
H2256 C2285 0.950 . S
H2257 C2286 0.950 . S
H2258 C2288 0.950 . S
H2259 C2289 0.950 . S
C2260 H2242 0.951 . S
C2260 C2261 1.366 . S
C2260 C2262 1.388 . S
C2261 C2260 1.366 . S
C2261 C2265 1.385 . S
C2262 H2243 0.951 . S
C2262 C2260 1.388 . S
C2262 C2263 1.366 . S
C2263 C2262 1.366 . S
C2263 C2264 1.414 . S
C2263 C2266 1.499 . S
C2264 H2244 0.950 . S
C2264 C2263 1.414 . S
C2264 C2265 1.374 . S
C2265 H2245 0.885 1_655 S
C2265 C2261 1.385 . S
C2265 C2264 1.374 . S
C2266 C2263 1.499 . S
C2266 C2267 1.373 . S
C2266 C2268 1.389 . S
C2267 H2246 0.950 . S
C2267 C2266 1.373 . S
C2267 C2283 1.377 . S
C2268 C2266 1.389 . S
C2268 C2269 1.524 . S
C2268 C2282 1.377 . S
C2269 C2268 1.524 . S
C2269 C2270 1.397 . S
C2269 C2274 1.363 . S
C2270 H2247 0.950 . S
C2270 C2269 1.397 . S
C2270 C2271 1.334 . S
C2271 H2248 0.950 . S
C2271 C2270 1.334 . S
C2271 C2272 1.287 . S
C2272 C2271 1.287 . S
C2272 C2273 1.524 . S
C2272 H2291 0.913 . S
C2273 H2249 0.950 . S
C2273 C2272 1.524 . S
C2273 C2274 1.415 . S
C2274 H2250 0.950 . S
C2274 C2269 1.363 . S
C2274 C2273 1.415 . S
C2275 H2251 0.951 . S
C2275 C2276 1.366 . S
C2275 C2277 1.388 . S
C2276 C2275 1.366 . S
C2276 C2280 1.385 . S
C2277 H2252 0.951 . S
C2277 C2275 1.388 . S
C2277 C2278 1.366 . S
C2278 C2277 1.366 . S
C2278 C2279 1.414 . S
C2278 C2281 1.499 . S
C2279 H2253 0.950 . S
C2279 C2278 1.414 . S
C2279 C2280 1.374 . S
C2280 H2254 0.950 . S
C2280 C2276 1.385 . S
C2280 C2279 1.374 . S
C2281 C2278 1.499 . S
C2281 C2282 1.373 . S
C2281 C2283 1.389 . S
C2282 H2255 0.950 . S
C2282 C2268 1.377 . S
C2282 C2281 1.373 . S
C2283 C2267 1.377 . S
C2283 C2281 1.389 . S
C2283 C2284 1.524 . S
C2284 C2283 1.524 . S
C2284 C2285 1.397 1_545 S
C2284 C2289 1.363 . S
C2285 H2256 0.950 . S
C2285 C2284 1.397 1_565 S
C2285 C2286 1.334 . S
C2286 H2257 0.950 . S
C2286 C2285 1.334 . S
C2286 C2287 1.287 . S
C2287 C2286 1.287 . S
C2287 C2288 1.524 1_565 S
C2287 H2290 0.999 . S
C2288 H2258 0.950 . S
C2288 C2287 1.524 1_545 S
C2288 C2289 1.415 . S
C2289 H2259 0.950 . S
C2289 C2284 1.363 . S
C2289 C2288 1.415 . S
H2290 C2287 0.999 . S
H2291 C2272 0.913 . S
H2292 C2310 0.951 . S
H2293 C2312 0.951 . S
H2294 C2314 0.950 . S
H2295 C2315 0.950 . S
H2296 C2317 0.950 . S
H2297 C2320 0.950 . S
H2298 C2321 0.950 . S
H2299 C2323 0.950 . S
H2300 C2324 0.950 . S
H2301 C2325 0.951 . S
H2302 C2327 0.951 . S
H2303 C2329 0.950 . S
H2304 C2330 0.950 . S
H2305 C2332 0.950 . S
H2306 C2335 0.950 . S
H2307 C2336 0.950 . S
H2308 C2338 0.950 . S
H2309 C2339 0.950 . S
C2310 H2292 0.951 . S
C2310 C2311 1.366 . S
C2310 C2312 1.388 . S
C2311 C2310 1.366 . S
C2311 C2315 1.385 . S
C2312 H2293 0.951 . S
C2312 C2310 1.388 . S
C2312 C2313 1.366 . S
C2313 C2312 1.366 . S
C2313 C2314 1.414 . S
C2313 C2316 1.499 . S
C2314 H2294 0.950 . S
C2314 C2313 1.414 . S
C2314 C2315 1.374 . S
C2315 H2295 0.950 . S
C2315 C2311 1.385 . S
C2315 C2314 1.374 . S
C2316 C2313 1.499 . S
C2316 C2317 1.373 . S
C2316 C2318 1.389 . S
C2317 H2296 0.950 . S
C2317 C2316 1.373 . S
C2317 C2333 1.377 . S
C2318 C2316 1.389 . S
C2318 C2319 1.524 . S
C2318 C2332 1.377 . S
C2319 C2318 1.524 . S
C2319 C2320 1.397 . S
C2319 C2324 1.363 . S
C2320 H2297 0.950 . S
C2320 C2319 1.397 . S
C2320 C2321 1.334 . S
C2321 H2298 0.950 . S
C2321 C2320 1.334 . S
C2321 C2322 1.287 . S
C2322 C2321 1.287 . S
C2322 C2323 1.524 . S
C2322 H2341 0.913 . S
C2323 H2299 0.950 . S
C2323 C2322 1.524 . S
C2323 C2324 1.415 . S
C2324 H2300 0.950 . S
C2324 C2319 1.363 . S
C2324 C2323 1.415 . S
C2325 H2301 0.951 . S
C2325 C2326 1.366 . S
C2325 C2327 1.388 . S
C2326 C2325 1.366 . S
C2326 C2330 1.385 . S
C2327 H2302 0.951 . S
C2327 C2325 1.388 . S
C2327 C2328 1.366 . S
C2328 C2327 1.366 . S
C2328 C2329 1.414 . S
C2328 C2331 1.499 . S
C2329 H2303 0.950 . S
C2329 C2328 1.414 . S
C2329 C2330 1.374 . S
C2330 H2304 0.950 . S
C2330 C2326 1.385 . S
C2330 C2329 1.374 . S
C2331 C2328 1.499 . S
C2331 C2332 1.373 . S
C2331 C2333 1.389 . S
C2332 H2305 0.950 . S
C2332 C2318 1.377 . S
C2332 C2331 1.373 . S
C2333 C2317 1.377 . S
C2333 C2331 1.389 . S
C2333 C2334 1.524 . S
C2334 C2333 1.524 . S
C2334 C2335 1.397 . S
C2334 C2339 1.363 . S
C2335 H2306 0.950 . S
C2335 C2334 1.397 . S
C2335 C2336 1.334 . S
C2336 H2307 0.950 . S
C2336 C2335 1.334 . S
C2336 C2337 1.287 . S
C2337 C2336 1.287 . S
C2337 C2338 1.524 . S
C2337 H2340 0.999 . S
C2338 H2308 0.950 . S
C2338 C2337 1.524 . S
C2338 C2339 1.415 . S
C2339 H2309 0.950 . S
C2339 C2334 1.363 . S
C2339 C2338 1.415 . S
H2340 C2337 0.999 . S
H2341 C2322 0.913 . S
H2342 C2360 0.951 . S
H2343 C2362 0.951 . S
H2344 C2364 0.950 . S
H2345 C2365 0.950 . S
H2346 C2367 0.950 . S
H2347 C2370 0.950 . S
H2348 C2371 0.950 . S
H2349 C2373 0.950 . S
H2350 C2374 0.950 . S
H2351 C2375 0.951 . S
H2352 C2377 0.951 . S
H2353 C2379 0.950 . S
H2354 C2380 0.950 . S
H2355 C2382 0.950 . S
H2356 C2385 0.950 . S
H2357 C2386 0.950 . S
H2358 C2388 0.950 . S
H2359 C2389 0.950 . S
C2360 H2342 0.951 . S
C2360 C2361 1.366 . S
C2360 C2362 1.388 . S
C2361 C2360 1.366 . S
C2361 C2365 1.385 . S
C2362 H2343 0.951 . S
C2362 C2360 1.388 . S
C2362 C2363 1.366 . S
C2363 C2362 1.366 . S
C2363 C2364 1.414 . S
C2363 C2366 1.499 . S
C2364 H2344 0.950 . S
C2364 C2363 1.414 . S
C2364 C2365 1.374 . S
C2365 H2345 0.950 . S
C2365 C2361 1.385 . S
C2365 C2364 1.374 . S
C2366 C2363 1.499 . S
C2366 C2367 1.373 . S
C2366 C2368 1.389 . S
C2367 H2346 0.950 . S
C2367 C2366 1.373 . S
C2367 C2383 1.377 . S
C2368 C2366 1.389 . S
C2368 C2369 1.524 . S
C2368 C2382 1.377 . S
C2369 C2368 1.524 . S
C2369 C2370 1.397 . S
C2369 C2374 1.363 . S
C2370 H2347 0.950 . S
C2370 C2369 1.397 . S
C2370 C2371 1.334 . S
C2371 H2348 0.950 . S
C2371 C2370 1.334 . S
C2371 C2372 1.287 . S
C2372 C2371 1.287 . S
C2372 C2373 1.524 . S
C2372 H2391 0.913 . S
C2373 H2349 0.950 . S
C2373 C2372 1.524 . S
C2373 C2374 1.415 . S
C2374 H2350 0.950 . S
C2374 C2369 1.363 . S
C2374 C2373 1.415 . S
C2375 H2351 0.951 . S
C2375 C2376 1.366 . S
C2375 C2377 1.388 . S
C2376 C2375 1.366 . S
C2376 C2380 1.385 . S
C2377 H2352 0.951 . S
C2377 C2375 1.388 . S
C2377 C2378 1.366 . S
C2378 C2377 1.366 . S
C2378 C2379 1.414 . S
C2378 C2381 1.499 . S
C2379 H2353 0.950 . S
C2379 C2378 1.414 . S
C2379 C2380 1.374 . S
C2380 H2354 0.950 . S
C2380 C2376 1.385 . S
C2380 C2379 1.374 . S
C2381 C2378 1.499 . S
C2381 C2382 1.373 . S
C2381 C2383 1.389 . S
C2382 H2355 0.950 . S
C2382 C2368 1.377 . S
C2382 C2381 1.373 . S
C2383 C2367 1.377 . S
C2383 C2381 1.389 . S
C2383 C2384 1.524 . S
C2384 C2383 1.524 . S
C2384 C2385 1.397 . S
C2384 C2389 1.363 . S
C2385 H2356 0.950 . S
C2385 C2384 1.397 . S
C2385 C2386 1.334 . S
C2386 H2357 0.950 . S
C2386 C2385 1.334 . S
C2386 C2387 1.287 . S
C2387 C2386 1.287 . S
C2387 C2388 1.524 . S
C2387 H2390 0.999 . S
C2388 H2358 0.950 . S
C2388 C2387 1.524 . S
C2388 C2389 1.415 . S
C2389 H2359 0.950 . S
C2389 C2384 1.363 . S
C2389 C2388 1.415 . S
H2390 C2387 0.999 . S
H2391 C2372 0.913 . S
H2392 C2410 0.951 . S
H2393 C2412 0.951 . S
H2394 C2414 0.950 . S
H2395 C2415 0.950 . S
H2396 C2417 0.950 . S
H2397 C2420 0.950 . S
H2398 C2421 0.950 . S
H2399 C2423 0.950 . S
H2400 C2424 0.950 . S
H2401 C2425 0.951 . S
H2402 C2427 0.951 . S
H2403 C2429 0.950 . S
H2404 C2430 0.950 . S
H2405 C2432 0.950 . S
H2406 C2435 0.950 . S
H2407 C2436 0.950 . S
H2408 C2438 0.950 . S
H2409 C2439 0.950 . S
C2410 H2392 0.951 . S
C2410 C2411 1.366 . S
C2410 C2412 1.388 . S
C2411 C2410 1.366 . S
C2411 C2415 1.385 . S
C2412 H2393 0.951 . S
C2412 C2410 1.388 . S
C2412 C2413 1.366 . S
C2413 C2412 1.366 . S
C2413 C2414 1.414 . S
C2413 C2416 1.499 . S
C2414 H2394 0.950 . S
C2414 C2413 1.414 . S
C2414 C2415 1.374 . S
C2415 H2395 0.950 . S
C2415 C2411 1.385 . S
C2415 C2414 1.374 . S
C2416 C2413 1.499 . S
C2416 C2417 1.373 . S
C2416 C2418 1.389 . S
C2417 H2396 0.950 . S
C2417 C2416 1.373 . S
C2417 C2433 1.377 . S
C2418 C2416 1.389 . S
C2418 C2419 1.524 . S
C2418 C2432 1.377 . S
C2419 C2418 1.524 . S
C2419 C2420 1.397 . S
C2419 C2424 1.363 . S
C2420 H2397 0.950 . S
C2420 C2419 1.397 . S
C2420 C2421 1.334 . S
C2421 H2398 0.950 . S
C2421 C2420 1.334 . S
C2421 C2422 1.287 . S
C2422 C2421 1.287 . S
C2422 C2423 1.524 . S
C2422 H2441 0.913 . S
C2423 H2399 0.950 . S
C2423 C2422 1.524 . S
C2423 C2424 1.415 . S
C2424 H2400 0.950 . S
C2424 C2419 1.363 . S
C2424 C2423 1.415 . S
C2425 H2401 0.951 . S
C2425 C2426 1.366 . S
C2425 C2427 1.388 . S
C2426 C2425 1.366 . S
C2426 C2430 1.385 . S
C2427 H2402 0.951 . S
C2427 C2425 1.388 . S
C2427 C2428 1.366 . S
C2428 C2427 1.366 . S
C2428 C2429 1.414 . S
C2428 C2431 1.499 . S
C2429 H2403 0.950 . S
C2429 C2428 1.414 . S
C2429 C2430 1.374 . S
C2430 H2404 0.950 . S
C2430 C2426 1.385 . S
C2430 C2429 1.374 . S
C2431 C2428 1.499 . S
C2431 C2432 1.373 . S
C2431 C2433 1.389 . S
C2432 H2405 0.950 . S
C2432 C2418 1.377 . S
C2432 C2431 1.373 . S
C2433 C2417 1.377 . S
C2433 C2431 1.389 . S
C2433 C2434 1.524 . S
C2434 C2433 1.524 . S
C2434 C2435 1.397 . S
C2434 C2439 1.363 . S
C2435 H2406 0.950 . S
C2435 C2434 1.397 . S
C2435 C2436 1.334 . S
C2436 H2407 0.950 . S
C2436 C2435 1.334 . S
C2436 C2437 1.287 . S
C2437 C2436 1.287 . S
C2437 C2438 1.524 . S
C2437 H2440 0.999 . S
C2438 H2408 0.950 . S
C2438 C2437 1.524 . S
C2438 C2439 1.415 . S
C2439 H2409 0.950 . S
C2439 C2434 1.363 . S
C2439 C2438 1.415 . S
H2440 C2437 0.999 . S
H2441 C2422 0.913 . S
H2442 C2460 0.951 . S
H2443 C2462 0.951 . S
H2444 C2464 0.950 . S
H2445 C2465 0.950 . S
H2446 C2467 0.950 . S
H2447 C2470 0.950 . S
H2448 C2471 0.950 1_455 S
H2449 C2473 0.945 1_554 S
H2450 C2474 0.950 . S
H2451 C2475 0.951 . S
H2452 C2477 0.951 . S
H2453 C2479 0.950 . S
H2454 C2480 0.950 . S
H2455 C2482 0.950 . S
H2456 C2485 0.950 1_655 S
H2457 C2486 0.950 1_655 S
H2458 C2488 0.950 . S
H2459 C2489 0.950 . S
C2460 H2442 0.951 . S
C2460 C2461 1.366 . S
C2460 C2462 1.388 . S
C2461 C2460 1.366 . S
C2461 C2465 1.385 1_655 S
C2462 H2443 0.951 . S
C2462 C2460 1.388 . S
C2462 C2463 1.366 . S
C2463 C2462 1.366 . S
C2463 C2464 1.414 1_655 S
C2463 C2466 1.511 . S
C2464 H2444 0.950 . S
C2464 C2463 1.414 1_455 S
C2464 C2465 1.374 . S
C2465 H2445 0.950 . S
C2465 C2461 1.385 1_455 S
C2465 C2464 1.374 . S
C2466 C2463 1.511 . S
C2466 C2467 1.354 1_655 S
C2466 C2468 1.401 . S
C2467 H2446 0.950 . S
C2467 C2466 1.354 1_455 S
C2467 C2483 1.377 . S
C2468 C2466 1.401 . S
C2468 C2469 1.524 . S
C2468 C2482 1.377 . S
C2469 C2468 1.524 . S
C2469 C2470 1.396 1_655 S
C2469 C2474 1.363 . S
C2470 H2447 0.950 . S
C2470 C2469 1.396 1_455 S
C2470 C2471 1.334 1_456 S
C2471 H2448 0.950 1_655 S
C2471 C2470 1.334 1_654 S
C2471 C2472 1.287 . S
C2472 C2471 1.287 . S
C2472 C2473 1.524 1_554 S
C2472 H2491 0.913 . S
C2473 H2449 0.945 1_556 S
C2473 C2472 1.524 1_556 S
C2473 C2474 1.415 . S
C2474 H2450 0.950 . S
C2474 C2469 1.363 . S
C2474 C2473 1.415 . S
C2475 H2451 0.951 . S
C2475 C2476 1.366 . S
C2475 C2477 1.388 . S
C2476 C2475 1.366 . S
C2476 C2480 1.385 1_455 S
C2477 H2452 0.951 . S
C2477 C2475 1.388 . S
C2477 C2478 1.366 . S
C2478 C2477 1.366 . S
C2478 C2479 1.414 1_455 S
C2478 C2481 1.499 . S
C2479 H2453 0.950 . S
C2479 C2478 1.414 1_655 S
C2479 C2480 1.374 . S
C2480 H2454 0.950 . S
C2480 C2476 1.385 1_655 S
C2480 C2479 1.374 . S
C2481 C2478 1.499 . S
C2481 C2482 1.373 1_455 S
C2481 C2483 1.389 . S
C2482 H2455 0.950 . S
C2482 C2468 1.377 . S
C2482 C2481 1.373 1_655 S
C2483 C2467 1.377 . S
C2483 C2481 1.389 . S
C2483 C2484 1.524 . S
C2484 C2483 1.524 . S
C2484 C2485 1.397 . S
C2484 C2489 1.363 . S
C2485 H2456 0.950 1_455 S
C2485 C2484 1.397 . S
C2485 C2486 1.334 . S
C2486 H2457 0.950 1_455 S
C2486 C2485 1.334 . S
C2486 C2487 1.287 . S
C2487 C2486 1.287 . S
C2487 C2488 1.524 . S
C2487 H2490 0.999 . S
C2488 H2458 0.950 . S
C2488 C2487 1.524 . S
C2488 C2489 1.415 . S
C2489 H2459 0.950 . S
C2489 C2484 1.363 . S
C2489 C2488 1.415 . S
H2490 C2487 0.999 . S
H2491 C2472 0.913 . S
H2492 C2510 0.951 . S
H2493 C2512 0.951 . S
H2494 C2514 0.950 . S
H2495 C2515 0.950 . S
H2496 C2517 0.950 . S
H2497 C2520 0.950 . S
H2498 C2521 0.950 . S
H2499 C2523 0.950 . S
H2500 C2524 0.950 . S
H2501 C2525 0.951 . S
H2502 C2527 0.951 . S
H2503 C2529 0.950 . S
H2504 C2530 0.950 . S
H2505 C2532 0.950 . S
H2506 C2535 0.950 . S
H2507 C2536 0.950 . S
H2508 C2538 0.950 . S
H2509 C2539 0.950 . S
C2510 H2492 0.951 . S
C2510 C2511 1.366 . S
C2510 C2512 1.388 . S
C2511 C2510 1.366 . S
C2511 C2515 1.385 . S
C2512 H2493 0.951 . S
C2512 C2510 1.388 . S
C2512 C2513 1.366 . S
C2513 C2512 1.366 . S
C2513 C2514 1.414 . S
C2513 C2516 1.499 . S
C2514 H2494 0.950 . S
C2514 C2513 1.414 . S
C2514 C2515 1.374 . S
C2515 H2495 0.950 . S
C2515 C2511 1.385 . S
C2515 C2514 1.374 . S
C2516 C2513 1.499 . S
C2516 C2517 1.373 . S
C2516 C2518 1.389 . S
C2517 H2496 0.950 . S
C2517 C2516 1.373 . S
C2517 C2533 1.377 . S
C2518 C2516 1.389 . S
C2518 C2519 1.524 . S
C2518 C2532 1.377 . S
C2519 C2518 1.524 . S
C2519 C2520 1.397 . S
C2519 C2524 1.363 . S
C2520 H2497 0.950 . S
C2520 C2519 1.397 . S
C2520 C2521 1.334 . S
C2521 H2498 0.950 . S
C2521 C2520 1.334 . S
C2521 C2522 1.287 . S
C2522 C2521 1.287 . S
C2522 C2523 1.524 . S
C2522 H2541 0.913 . S
C2523 H2499 0.950 . S
C2523 C2522 1.524 . S
C2523 C2524 1.415 . S
C2524 H2500 0.950 . S
C2524 C2519 1.363 . S
C2524 C2523 1.415 . S
C2525 H2501 0.951 . S
C2525 C2526 1.366 . S
C2525 C2527 1.388 . S
C2526 C2525 1.366 . S
C2526 C2530 1.385 . S
C2527 H2502 0.951 . S
C2527 C2525 1.388 . S
C2527 C2528 1.366 . S
C2528 C2527 1.366 . S
C2528 C2529 1.414 . S
C2528 C2531 1.499 . S
C2529 H2503 0.950 . S
C2529 C2528 1.414 . S
C2529 C2530 1.374 . S
C2530 H2504 0.950 . S
C2530 C2526 1.385 . S
C2530 C2529 1.374 . S
C2531 C2528 1.499 . S
C2531 C2532 1.373 . S
C2531 C2533 1.389 . S
C2532 H2505 0.950 . S
C2532 C2518 1.377 . S
C2532 C2531 1.373 . S
C2533 C2517 1.377 . S
C2533 C2531 1.389 . S
C2533 C2534 1.524 . S
C2534 C2533 1.524 . S
C2534 C2535 1.397 . S
C2534 C2539 1.363 . S
C2535 H2506 0.950 . S
C2535 C2534 1.397 . S
C2535 C2536 1.334 . S
C2536 H2507 0.950 . S
C2536 C2535 1.334 . S
C2536 C2537 1.287 . S
C2537 C2536 1.287 . S
C2537 C2538 1.524 . S
C2537 H2540 0.999 . S
C2538 H2508 0.950 . S
C2538 C2537 1.524 . S
C2538 C2539 1.415 . S
C2539 H2509 0.950 . S
C2539 C2534 1.363 . S
C2539 C2538 1.415 . S
H2540 C2537 0.999 . S
H2541 C2522 0.913 . S
H2542 C2560 0.951 . S
H2543 C2562 0.951 . S
H2544 C2564 0.965 . S
H2545 C2565 0.950 . S
H2546 C2567 0.950 . S
H2547 C2570 0.950 . S
H2548 C2571 0.950 1_554 S
H2549 C2573 0.950 . S
H2550 C2574 0.950 . S
H2551 C2575 0.951 1_655 S
H2552 C2577 0.951 1_655 S
H2553 C2579 0.950 . S
H2554 C2580 0.950 . S
H2555 C2582 0.950 . S
H2556 C2585 0.950 . S
H2557 C2586 0.950 . S
H2558 C2588 0.950 . S
H2559 C2589 0.950 . S
C2560 H2542 0.951 . S
C2560 C2561 1.366 . S
C2560 C2562 1.388 . S
C2561 C2560 1.366 . S
C2561 C2565 1.385 . S
C2562 H2543 0.951 . S
C2562 C2560 1.388 . S
C2562 C2563 1.366 . S
C2563 C2562 1.366 . S
C2563 C2564 1.414 . S
C2563 C2566 1.499 . S
C2564 H2544 0.965 . S
C2564 C2563 1.414 . S
C2564 C2565 1.374 . S
C2565 H2545 0.950 . S
C2565 C2561 1.385 . S
C2565 C2564 1.374 . S
C2566 C2563 1.499 . S
C2566 C2567 1.373 . S
C2566 C2568 1.389 . S
C2567 H2546 0.950 . S
C2567 C2566 1.373 . S
C2567 C2583 1.377 . S
C2568 C2566 1.389 . S
C2568 C2569 1.524 . S
C2568 C2582 1.377 . S
C2569 C2568 1.524 . S
C2569 C2570 1.397 . S
C2569 C2574 1.363 . S
C2570 H2547 0.950 . S
C2570 C2569 1.397 . S
C2570 C2571 1.334 . S
C2571 H2548 0.950 1_556 S
C2571 C2570 1.334 . S
C2571 C2572 1.287 . S
C2572 C2571 1.287 . S
C2572 C2573 1.524 . S
C2572 H2591 0.913 1_556 S
C2573 H2549 0.950 . S
C2573 C2572 1.524 . S
C2573 C2574 1.415 . S
C2574 H2550 0.950 . S
C2574 C2569 1.363 . S
C2574 C2573 1.415 . S
C2575 H2551 0.951 1_455 S
C2575 C2576 1.366 . S
C2575 C2577 1.388 . S
C2576 C2575 1.366 . S
C2576 C2580 1.385 . S
C2577 H2552 0.951 1_455 S
C2577 C2575 1.388 . S
C2577 C2578 1.366 . S
C2578 C2577 1.366 . S
C2578 C2579 1.414 . S
C2578 C2581 1.499 . S
C2579 H2553 0.950 . S
C2579 C2578 1.414 . S
C2579 C2580 1.374 . S
C2580 H2554 0.950 . S
C2580 C2576 1.385 . S
C2580 C2579 1.374 . S
C2581 C2578 1.499 . S
C2581 C2582 1.373 . S
C2581 C2583 1.389 . S
C2582 H2555 0.950 . S
C2582 C2568 1.377 . S
C2582 C2581 1.373 . S
C2583 C2567 1.377 . S
C2583 C2581 1.389 . S
C2583 C2584 1.524 . S
C2584 C2583 1.524 . S
C2584 C2585 1.397 . S
C2584 C2589 1.363 1_455 S
C2585 H2556 0.950 . S
C2585 C2584 1.397 . S
C2585 C2586 1.334 . S
C2586 H2557 0.950 . S
C2586 C2585 1.334 . S
C2586 C2587 1.287 1_455 S
C2587 C2586 1.287 1_655 S
C2587 C2588 1.524 . S
C2587 H2590 0.999 . S
C2588 H2558 0.950 . S
C2588 C2587 1.524 . S
C2588 C2589 1.415 . S
C2589 H2559 0.950 . S
C2589 C2584 1.363 1_655 S
C2589 C2588 1.415 . S
H2590 C2587 0.999 . S
H2591 C2572 0.913 1_554 S
H2592 C2610 0.951 . S
H2593 C2612 0.951 . S
H2594 C2614 0.950 . S
H2595 C2615 0.950 . S
H2596 C2617 0.950 . S
H2597 C2620 0.950 . S
H2598 C2621 0.950 . S
H2599 C2623 0.950 . S
H2600 C2624 0.950 . S
H2601 C2625 0.951 . S
H2602 C2627 0.951 . S
H2603 C2629 0.950 . S
H2604 C2630 0.950 . S
H2605 C2632 0.950 . S
H2606 C2635 0.950 . S
H2607 C2636 0.950 . S
H2608 C2638 0.950 . S
H2609 C2639 0.950 . S
C2610 H2592 0.951 . S
C2610 C2611 1.366 . S
C2610 C2612 1.388 . S
C2611 C2610 1.366 . S
C2611 C2615 1.385 . S
C2612 H2593 0.951 . S
C2612 C2610 1.388 . S
C2612 C2613 1.366 . S
C2613 C2612 1.366 . S
C2613 C2614 1.414 . S
C2613 C2616 1.499 . S
C2614 H2594 0.950 . S
C2614 C2613 1.414 . S
C2614 C2615 1.374 . S
C2615 H2595 0.950 . S
C2615 C2611 1.385 . S
C2615 C2614 1.374 . S
C2616 C2613 1.499 . S
C2616 C2617 1.373 . S
C2616 C2618 1.389 . S
C2617 H2596 0.950 . S
C2617 C2616 1.373 . S
C2617 C2633 1.377 . S
C2618 C2616 1.389 . S
C2618 C2619 1.524 . S
C2618 C2632 1.377 . S
C2619 C2618 1.524 . S
C2619 C2620 1.397 . S
C2619 C2624 1.363 . S
C2620 H2597 0.950 . S
C2620 C2619 1.397 . S
C2620 C2621 1.334 . S
C2621 H2598 0.950 . S
C2621 C2620 1.334 . S
C2621 C2622 1.287 . S
C2622 C2621 1.287 . S
C2622 C2623 1.524 . S
C2622 H2641 0.913 . S
C2623 H2599 0.950 . S
C2623 C2622 1.524 . S
C2623 C2624 1.415 . S
C2624 H2600 0.950 . S
C2624 C2619 1.363 . S
C2624 C2623 1.415 . S
C2625 H2601 0.951 . S
C2625 C2626 1.366 . S
C2625 C2627 1.388 . S
C2626 C2625 1.366 . S
C2626 C2630 1.385 . S
C2627 H2602 0.951 . S
C2627 C2625 1.388 . S
C2627 C2628 1.366 . S
C2628 C2627 1.366 . S
C2628 C2629 1.414 . S
C2628 C2631 1.499 . S
C2629 H2603 0.950 . S
C2629 C2628 1.414 . S
C2629 C2630 1.374 . S
C2630 H2604 0.950 . S
C2630 C2626 1.385 . S
C2630 C2629 1.374 . S
C2631 C2628 1.499 . S
C2631 C2632 1.373 . S
C2631 C2633 1.389 . S
C2632 H2605 0.950 . S
C2632 C2618 1.377 . S
C2632 C2631 1.373 . S
C2633 C2617 1.377 . S
C2633 C2631 1.389 . S
C2633 C2634 1.524 . S
C2634 C2633 1.524 . S
C2634 C2635 1.397 . S
C2634 C2639 1.363 . S
C2635 H2606 0.950 . S
C2635 C2634 1.397 . S
C2635 C2636 1.334 . S
C2636 H2607 0.950 . S
C2636 C2635 1.334 . S
C2636 C2637 1.287 . S
C2637 C2636 1.287 . S
C2637 C2638 1.524 . S
C2637 H2640 0.999 . S
C2638 H2608 0.950 . S
C2638 C2637 1.524 . S
C2638 C2639 1.415 . S
C2639 H2609 0.950 . S
C2639 C2634 1.363 . S
C2639 C2638 1.415 . S
H2640 C2637 0.999 . S
H2641 C2622 0.913 . S
H2642 C2660 0.951 . S
H2643 C2662 0.951 . S
H2644 C2664 0.950 . S
H2645 C2665 0.950 1_556 S
H2646 C2667 0.950 . S
H2647 C2670 0.950 . S
H2648 C2671 0.950 . S
H2649 C2673 0.950 . S
H2650 C2674 0.950 . S
H2651 C2675 0.951 . S
H2652 C2677 0.951 . S
H2653 C2679 0.950 . S
H2654 C2680 0.950 . S
H2655 C2682 0.950 . S
H2656 C2685 0.950 . S
H2657 C2686 0.950 . S
H2658 C2688 0.950 . S
H2659 C2689 0.950 . S
C2660 H2642 0.951 . S
C2660 C2661 1.366 . S
C2660 C2662 1.388 . S
C2661 C2660 1.366 . S
C2661 C2665 1.385 . S
C2662 H2643 0.951 . S
C2662 C2660 1.388 . S
C2662 C2663 1.366 . S
C2663 C2662 1.366 . S
C2663 C2664 1.414 . S
C2663 C2666 1.499 . S
C2664 H2644 0.950 . S
C2664 C2663 1.414 . S
C2664 C2665 1.374 . S
C2665 H2645 0.950 1_554 S
C2665 C2661 1.385 . S
C2665 C2664 1.374 . S
C2666 C2663 1.499 . S
C2666 C2667 1.373 . S
C2666 C2668 1.389 . S
C2667 H2646 0.950 . S
C2667 C2666 1.373 . S
C2667 C2683 1.377 . S
C2668 C2666 1.389 . S
C2668 C2669 1.524 . S
C2668 C2682 1.377 . S
C2669 C2668 1.524 . S
C2669 C2670 1.397 . S
C2669 C2674 1.363 . S
C2670 H2647 0.950 . S
C2670 C2669 1.397 . S
C2670 C2671 1.334 . S
C2671 H2648 0.950 . S
C2671 C2670 1.334 . S
C2671 C2672 1.287 . S
C2672 C2671 1.287 . S
C2672 C2673 1.524 . S
C2672 H2691 0.913 . S
C2673 H2649 0.950 . S
C2673 C2672 1.524 . S
C2673 C2674 1.415 . S
C2674 H2650 0.950 . S
C2674 C2669 1.363 . S
C2674 C2673 1.415 . S
C2675 H2651 0.951 . S
C2675 C2676 1.366 . S
C2675 C2677 1.388 . S
C2676 C2675 1.366 . S
C2676 C2680 1.385 . S
C2677 H2652 0.951 . S
C2677 C2675 1.388 . S
C2677 C2678 1.366 . S
C2678 C2677 1.366 . S
C2678 C2679 1.414 . S
C2678 C2681 1.499 . S
C2679 H2653 0.950 . S
C2679 C2678 1.414 . S
C2679 C2680 1.374 . S
C2680 H2654 0.950 . S
C2680 C2676 1.385 . S
C2680 C2679 1.374 . S
C2681 C2678 1.499 . S
C2681 C2682 1.373 . S
C2681 C2683 1.389 . S
C2682 H2655 0.950 . S
C2682 C2668 1.377 . S
C2682 C2681 1.373 . S
C2683 C2667 1.377 . S
C2683 C2681 1.389 . S
C2683 C2684 1.524 . S
C2684 C2683 1.524 . S
C2684 C2685 1.397 . S
C2684 C2689 1.363 . S
C2685 H2656 0.950 . S
C2685 C2684 1.397 . S
C2685 C2686 1.334 . S
C2686 H2657 0.950 . S
C2686 C2685 1.334 . S
C2686 C2687 1.287 . S
C2687 C2686 1.287 . S
C2687 C2688 1.524 . S
C2687 H2690 0.999 . S
C2688 H2658 0.950 . S
C2688 C2687 1.524 . S
C2688 C2689 1.415 . S
C2689 H2659 0.950 . S
C2689 C2684 1.363 . S
C2689 C2688 1.415 . S
H2690 C2687 0.999 . S
H2691 C2672 0.913 . S
H2692 C2710 0.951 . S
H2693 C2712 0.951 . S
H2694 C2714 0.950 . S
H2695 C2715 0.950 . S
H2696 C2717 0.950 . S
H2697 C2720 0.950 . S
H2698 C2721 0.950 . S
H2699 C2723 0.950 . S
H2700 C2724 0.950 . S
H2701 C2725 0.951 . S
H2702 C2727 0.951 . S
H2703 C2729 0.950 . S
H2704 C2730 0.950 . S
H2705 C2732 0.950 . S
H2706 C2735 0.950 . S
H2707 C2736 0.950 . S
H2708 C2738 0.950 . S
H2709 C2739 0.950 . S
C2710 H2692 0.951 . S
C2710 C2711 1.366 . S
C2710 C2712 1.388 . S
C2711 C2710 1.366 . S
C2711 C2715 1.385 . S
C2712 H2693 0.951 . S
C2712 C2710 1.388 . S
C2712 C2713 1.366 . S
C2713 C2712 1.366 . S
C2713 C2714 1.414 . S
C2713 C2716 1.499 . S
C2714 H2694 0.950 . S
C2714 C2713 1.414 . S
C2714 C2715 1.374 . S
C2715 H2695 0.950 . S
C2715 C2711 1.385 . S
C2715 C2714 1.374 . S
C2716 C2713 1.499 . S
C2716 C2717 1.373 . S
C2716 C2718 1.389 . S
C2717 H2696 0.950 . S
C2717 C2716 1.373 . S
C2717 C2733 1.377 . S
C2718 C2716 1.389 . S
C2718 C2719 1.524 . S
C2718 C2732 1.377 . S
C2719 C2718 1.524 . S
C2719 C2720 1.397 . S
C2719 C2724 1.363 . S
C2720 H2697 0.950 . S
C2720 C2719 1.397 . S
C2720 C2721 1.334 . S
C2721 H2698 0.950 . S
C2721 C2720 1.334 . S
C2721 C2722 1.287 . S
C2722 C2721 1.287 . S
C2722 C2723 1.524 . S
C2722 H2741 0.913 . S
C2723 H2699 0.950 . S
C2723 C2722 1.524 . S
C2723 C2724 1.415 . S
C2724 H2700 0.950 . S
C2724 C2719 1.363 . S
C2724 C2723 1.415 . S
C2725 H2701 0.951 . S
C2725 C2726 1.366 . S
C2725 C2727 1.388 . S
C2726 C2725 1.366 . S
C2726 C2730 1.385 . S
C2727 H2702 0.951 . S
C2727 C2725 1.388 . S
C2727 C2728 1.366 . S
C2728 C2727 1.366 . S
C2728 C2729 1.414 . S
C2728 C2731 1.499 . S
C2729 H2703 0.950 . S
C2729 C2728 1.414 . S
C2729 C2730 1.374 . S
C2730 H2704 0.950 . S
C2730 C2726 1.385 . S
C2730 C2729 1.374 . S
C2731 C2728 1.499 . S
C2731 C2732 1.373 . S
C2731 C2733 1.389 . S
C2732 H2705 0.950 . S
C2732 C2718 1.377 . S
C2732 C2731 1.373 . S
C2733 C2717 1.377 . S
C2733 C2731 1.389 . S
C2733 C2734 1.524 . S
C2734 C2733 1.524 . S
C2734 C2735 1.397 . S
C2734 C2739 1.363 . S
C2735 H2706 0.950 . S
C2735 C2734 1.397 . S
C2735 C2736 1.334 . S
C2736 H2707 0.950 . S
C2736 C2735 1.334 . S
C2736 C2737 1.287 . S
C2737 C2736 1.287 . S
C2737 C2738 1.524 . S
C2737 H2740 0.999 . S
C2738 H2708 0.950 . S
C2738 C2737 1.524 . S
C2738 C2739 1.415 . S
C2739 H2709 0.950 . S
C2739 C2734 1.363 . S
C2739 C2738 1.415 . S
H2740 C2737 0.999 . S
H2741 C2722 0.913 . S
H2742 C2760 0.951 . S
H2743 C2762 0.951 . S
H2744 C2764 0.950 . S
H2745 C2765 0.950 . S
H2746 C2767 0.950 . S
H2747 C2770 0.950 . S
H2748 C2771 0.950 . S
H2749 C2773 0.950 . S
H2750 C2774 0.950 . S
H2751 C2775 0.951 . S
H2752 C2777 0.951 . S
H2753 C2779 0.950 . S
H2754 C2780 0.950 . S
H2755 C2782 0.950 . S
H2756 C2785 0.950 . S
H2757 C2786 0.950 . S
H2758 C2788 0.950 . S
H2759 C2789 0.950 . S
C2760 H2742 0.951 . S
C2760 C2761 1.366 . S
C2760 C2762 1.388 . S
C2761 C2760 1.366 . S
C2761 C2765 1.385 . S
C2762 H2743 0.951 . S
C2762 C2760 1.388 . S
C2762 C2763 1.366 . S
C2763 C2762 1.366 . S
C2763 C2764 1.414 . S
C2763 C2766 1.499 . S
C2764 H2744 0.950 . S
C2764 C2763 1.414 . S
C2764 C2765 1.374 . S
C2765 H2745 0.950 . S
C2765 C2761 1.385 . S
C2765 C2764 1.374 . S
C2766 C2763 1.499 . S
C2766 C2767 1.373 . S
C2766 C2768 1.389 . S
C2767 H2746 0.950 . S
C2767 C2766 1.373 . S
C2767 C2783 1.377 . S
C2768 C2766 1.389 . S
C2768 C2769 1.524 . S
C2768 C2782 1.377 . S
C2769 C2768 1.524 . S
C2769 C2770 1.397 . S
C2769 C2774 1.363 . S
C2770 H2747 0.950 . S
C2770 C2769 1.397 . S
C2770 C2771 1.334 . S
C2771 H2748 0.950 . S
C2771 C2770 1.334 . S
C2771 C2772 1.287 . S
C2772 C2771 1.287 . S
C2772 C2773 1.524 . S
C2772 H2791 0.913 . S
C2773 H2749 0.950 . S
C2773 C2772 1.524 . S
C2773 C2774 1.415 . S
C2774 H2750 0.950 . S
C2774 C2769 1.363 . S
C2774 C2773 1.415 . S
C2775 H2751 0.951 . S
C2775 C2776 1.366 . S
C2775 C2777 1.388 . S
C2776 C2775 1.366 . S
C2776 C2780 1.385 . S
C2777 H2752 0.951 . S
C2777 C2775 1.388 . S
C2777 C2778 1.366 . S
C2778 C2777 1.366 . S
C2778 C2779 1.414 . S
C2778 C2781 1.499 . S
C2779 H2753 0.950 . S
C2779 C2778 1.414 . S
C2779 C2780 1.374 . S
C2780 H2754 0.950 . S
C2780 C2776 1.385 . S
C2780 C2779 1.374 . S
C2781 C2778 1.499 . S
C2781 C2782 1.373 . S
C2781 C2783 1.389 . S
C2782 H2755 0.950 . S
C2782 C2768 1.377 . S
C2782 C2781 1.373 . S
C2783 C2767 1.377 . S
C2783 C2781 1.389 . S
C2783 C2784 1.524 . S
C2784 C2783 1.524 . S
C2784 C2785 1.397 . S
C2784 C2789 1.363 . S
C2785 H2756 0.950 . S
C2785 C2784 1.397 . S
C2785 C2786 1.334 . S
C2786 H2757 0.950 . S
C2786 C2785 1.334 . S
C2786 C2787 1.287 . S
C2787 C2786 1.287 . S
C2787 C2788 1.524 . S
C2787 H2790 0.999 . S
C2788 H2758 0.950 . S
C2788 C2787 1.524 . S
C2788 C2789 1.415 . S
C2789 H2759 0.950 . S
C2789 C2784 1.363 . S
C2789 C2788 1.415 . S
H2790 C2787 0.999 . S
H2791 C2772 0.913 . S
H2792 C2810 0.951 . S
H2793 C2812 0.951 . S
H2794 C2814 0.950 . S
H2795 C2815 0.950 . S
H2796 C2817 0.950 . S
H2797 C2820 0.950 . S
H2798 C2821 0.950 . S
H2799 C2823 0.950 . S
H2800 C2824 0.950 . S
H2801 C2825 0.951 . S
H2802 C2827 0.951 . S
H2803 C2829 0.950 . S
H2804 C2830 0.950 . S
H2805 C2832 0.950 . S
H2806 C2835 0.950 . S
H2807 C2836 0.950 . S
H2808 C2838 0.950 . S
H2809 C2839 0.950 . S
C2810 H2792 0.951 . S
C2810 C2811 1.366 . S
C2810 C2812 1.388 . S
C2811 C2810 1.366 . S
C2811 C2815 1.385 . S
C2812 H2793 0.951 . S
C2812 C2810 1.388 . S
C2812 C2813 1.366 . S
C2813 C2812 1.366 . S
C2813 C2814 1.414 . S
C2813 C2816 1.499 . S
C2814 H2794 0.950 . S
C2814 C2813 1.414 . S
C2814 C2815 1.374 . S
C2815 H2795 0.950 . S
C2815 C2811 1.385 . S
C2815 C2814 1.374 . S
C2816 C2813 1.499 . S
C2816 C2817 1.373 . S
C2816 C2818 1.389 . S
C2817 H2796 0.950 . S
C2817 C2816 1.373 . S
C2817 C2833 1.377 . S
C2818 C2816 1.389 . S
C2818 C2819 1.524 . S
C2818 C2832 1.377 . S
C2819 C2818 1.524 . S
C2819 C2820 1.397 . S
C2819 C2824 1.363 . S
C2820 H2797 0.950 . S
C2820 C2819 1.397 . S
C2820 C2821 1.334 . S
C2821 H2798 0.950 . S
C2821 C2820 1.334 . S
C2821 C2822 1.287 . S
C2822 C2821 1.287 . S
C2822 C2823 1.524 . S
C2822 H2841 0.913 . S
C2823 H2799 0.950 . S
C2823 C2822 1.524 . S
C2823 C2824 1.415 . S
C2824 H2800 0.950 . S
C2824 C2819 1.363 . S
C2824 C2823 1.415 . S
C2825 H2801 0.951 . S
C2825 C2826 1.366 . S
C2825 C2827 1.388 . S
C2826 C2825 1.366 . S
C2826 C2830 1.385 . S
C2827 H2802 0.951 . S
C2827 C2825 1.388 . S
C2827 C2828 1.366 . S
C2828 C2827 1.366 . S
C2828 C2829 1.414 . S
C2828 C2831 1.499 . S
C2829 H2803 0.950 . S
C2829 C2828 1.414 . S
C2829 C2830 1.374 . S
C2830 H2804 0.950 . S
C2830 C2826 1.385 . S
C2830 C2829 1.374 . S
C2831 C2828 1.499 . S
C2831 C2832 1.373 . S
C2831 C2833 1.389 . S
C2832 H2805 0.950 . S
C2832 C2818 1.377 . S
C2832 C2831 1.373 . S
C2833 C2817 1.377 . S
C2833 C2831 1.389 . S
C2833 C2834 1.524 . S
C2834 C2833 1.524 . S
C2834 C2835 1.397 . S
C2834 C2839 1.363 . S
C2835 H2806 0.950 . S
C2835 C2834 1.397 . S
C2835 C2836 1.334 . S
C2836 H2807 0.950 . S
C2836 C2835 1.334 . S
C2836 C2837 1.287 . S
C2837 C2836 1.287 . S
C2837 C2838 1.524 . S
C2837 H2840 0.999 . S
C2838 H2808 0.950 . S
C2838 C2837 1.524 . S
C2838 C2839 1.415 . S
C2839 H2809 0.950 . S
C2839 C2834 1.363 . S
C2839 C2838 1.415 . S
H2840 C2837 0.999 . S
H2841 C2822 0.913 . S
H2842 C2860 0.951 . S
H2843 C2862 0.951 . S
H2844 C2864 0.950 . S
H2845 C2865 0.950 . S
H2846 C2867 0.950 . S
H2847 C2870 0.950 . S
H2848 C2871 0.950 . S
H2849 C2873 0.950 . S
H2850 C2874 0.950 . S
H2851 C2875 0.951 . S
H2852 C2877 0.951 . S
H2853 C2879 0.950 . S
H2854 C2880 0.950 . S
H2855 C2882 0.950 . S
H2856 C2885 0.950 . S
H2857 C2886 0.950 . S
H2858 C2888 0.950 . S
H2859 C2889 0.950 . S
C2860 H2842 0.951 . S
C2860 C2861 1.366 . S
C2860 C2862 1.388 . S
C2861 C2860 1.366 . S
C2861 C2865 1.385 . S
C2862 H2843 0.951 . S
C2862 C2860 1.388 . S
C2862 C2863 1.366 . S
C2863 C2862 1.366 . S
C2863 C2864 1.414 . S
C2863 C2866 1.499 . S
C2864 H2844 0.950 . S
C2864 C2863 1.414 . S
C2864 C2865 1.374 . S
C2865 H2845 0.950 . S
C2865 C2861 1.385 . S
C2865 C2864 1.374 . S
C2866 C2863 1.499 . S
C2866 C2867 1.373 . S
C2866 C2868 1.389 . S
C2867 H2846 0.950 . S
C2867 C2866 1.373 . S
C2867 C2883 1.377 . S
C2868 C2866 1.389 . S
C2868 C2869 1.524 . S
C2868 C2882 1.377 . S
C2869 C2868 1.524 . S
C2869 C2870 1.397 . S
C2869 C2874 1.363 . S
C2870 H2847 0.950 . S
C2870 C2869 1.397 . S
C2870 C2871 1.334 . S
C2871 H2848 0.950 . S
C2871 C2870 1.334 . S
C2871 C2872 1.287 . S
C2872 C2871 1.287 . S
C2872 C2873 1.524 . S
C2872 H2891 0.913 . S
C2873 H2849 0.950 . S
C2873 C2872 1.524 . S
C2873 C2874 1.415 . S
C2874 H2850 0.950 . S
C2874 C2869 1.363 . S
C2874 C2873 1.415 . S
C2875 H2851 0.951 . S
C2875 C2876 1.366 . S
C2875 C2877 1.388 . S
C2876 C2875 1.366 . S
C2876 C2880 1.385 . S
C2877 H2852 0.951 . S
C2877 C2875 1.388 . S
C2877 C2878 1.366 . S
C2878 C2877 1.366 . S
C2878 C2879 1.414 . S
C2878 C2881 1.499 . S
C2879 H2853 0.950 . S
C2879 C2878 1.414 . S
C2879 C2880 1.374 . S
C2880 H2854 0.950 . S
C2880 C2876 1.385 . S
C2880 C2879 1.374 . S
C2881 C2878 1.499 . S
C2881 C2882 1.373 . S
C2881 C2883 1.389 . S
C2882 H2855 0.950 . S
C2882 C2868 1.377 . S
C2882 C2881 1.373 . S
C2883 C2867 1.377 . S
C2883 C2881 1.389 . S
C2883 C2884 1.524 . S
C2884 C2883 1.524 . S
C2884 C2885 1.397 . S
C2884 C2889 1.363 . S
C2885 H2856 0.950 . S
C2885 C2884 1.397 . S
C2885 C2886 1.334 . S
C2886 H2857 0.950 . S
C2886 C2885 1.334 . S
C2886 C2887 1.287 . S
C2887 C2886 1.287 . S
C2887 C2888 1.524 . S
C2887 H2890 0.999 . S
C2888 H2858 0.950 . S
C2888 C2887 1.524 . S
C2888 C2889 1.415 . S
C2889 H2859 0.950 . S
C2889 C2884 1.363 . S
C2889 C2888 1.415 . S
H2890 C2887 0.999 . S
H2891 C2872 0.913 . S
H2892 C2910 0.951 . S
H2893 C2912 0.951 . S
H2894 C2914 0.950 . S
H2895 C2915 0.950 . S
H2896 C2917 0.950 . S
H2897 C2920 0.950 . S
H2898 C2921 0.950 . S
H2899 C2923 0.950 . S
H2900 C2924 0.950 . S
H2901 C2925 0.951 . S
H2902 C2927 0.951 . S
H2903 C2929 0.950 . S
H2904 C2930 0.950 . S
H2905 C2932 0.950 . S
H2906 C2935 0.950 . S
H2907 C2936 0.950 . S
H2908 C2938 0.950 . S
H2909 C2939 0.950 . S
C2910 H2892 0.951 . S
C2910 C2911 1.366 . S
C2910 C2912 1.388 . S
C2911 C2910 1.366 . S
C2911 C2915 1.385 . S
C2912 H2893 0.951 . S
C2912 C2910 1.388 . S
C2912 C2913 1.366 . S
C2913 C2912 1.366 . S
C2913 C2914 1.414 . S
C2913 C2916 1.499 . S
C2914 H2894 0.950 . S
C2914 C2913 1.414 . S
C2914 C2915 1.374 . S
C2915 H2895 0.950 . S
C2915 C2911 1.385 . S
C2915 C2914 1.374 . S
C2916 C2913 1.499 . S
C2916 C2917 1.373 . S
C2916 C2918 1.389 . S
C2917 H2896 0.950 . S
C2917 C2916 1.373 . S
C2917 C2933 1.377 . S
C2918 C2916 1.389 . S
C2918 C2919 1.524 . S
C2918 C2932 1.377 . S
C2919 C2918 1.524 . S
C2919 C2920 1.397 . S
C2919 C2924 1.363 . S
C2920 H2897 0.950 . S
C2920 C2919 1.397 . S
C2920 C2921 1.334 . S
C2921 H2898 0.950 . S
C2921 C2920 1.334 . S
C2921 C2922 1.287 . S
C2922 C2921 1.287 . S
C2922 C2923 1.524 . S
C2922 H2941 0.913 . S
C2923 H2899 0.950 . S
C2923 C2922 1.524 . S
C2923 C2924 1.415 . S
C2924 H2900 0.950 . S
C2924 C2919 1.363 . S
C2924 C2923 1.415 . S
C2925 H2901 0.951 . S
C2925 C2926 1.366 . S
C2925 C2927 1.388 . S
C2926 C2925 1.366 . S
C2926 C2930 1.385 . S
C2927 H2902 0.951 . S
C2927 C2925 1.388 . S
C2927 C2928 1.366 . S
C2928 C2927 1.366 . S
C2928 C2929 1.414 . S
C2928 C2931 1.499 . S
C2929 H2903 0.950 . S
C2929 C2928 1.414 . S
C2929 C2930 1.374 . S
C2930 H2904 0.950 . S
C2930 C2926 1.385 . S
C2930 C2929 1.374 . S
C2931 C2928 1.499 . S
C2931 C2932 1.373 . S
C2931 C2933 1.389 . S
C2932 H2905 0.950 . S
C2932 C2918 1.377 . S
C2932 C2931 1.373 . S
C2933 C2917 1.377 . S
C2933 C2931 1.389 . S
C2933 C2934 1.524 . S
C2934 C2933 1.524 . S
C2934 C2935 1.397 . S
C2934 C2939 1.363 . S
C2935 H2906 0.950 . S
C2935 C2934 1.397 . S
C2935 C2936 1.334 . S
C2936 H2907 0.950 . S
C2936 C2935 1.334 . S
C2936 C2937 1.287 . S
C2937 C2936 1.287 . S
C2937 C2938 1.524 . S
C2937 H2940 0.999 . S
C2938 H2908 0.950 . S
C2938 C2937 1.524 . S
C2938 C2939 1.415 . S
C2939 H2909 0.950 . S
C2939 C2934 1.363 . S
C2939 C2938 1.415 . S
H2940 C2937 0.999 . S
H2941 C2922 0.913 . S
H2942 C2960 0.951 . S
H2943 C2962 0.951 . S
H2944 C2964 0.950 . S
H2945 C2965 0.950 . S
H2946 C2967 0.950 . S
H2947 C2970 0.950 . S
H2948 C2971 0.950 . S
H2949 C2973 0.950 . S
H2950 C2974 0.950 . S
H2951 C2975 0.951 . S
H2952 C2977 0.951 . S
H2953 C2979 0.950 . S
H2954 C2980 0.950 . S
H2955 C2982 0.950 . S
H2956 C2985 0.950 . S
H2957 C2986 0.950 . S
H2958 C2988 0.950 . S
H2959 C2989 0.950 . S
C2960 H2942 0.951 . S
C2960 C2961 1.366 . S
C2960 C2962 1.388 . S
C2961 C2960 1.366 . S
C2961 C2965 1.385 . S
C2962 H2943 0.951 . S
C2962 C2960 1.388 . S
C2962 C2963 1.366 . S
C2963 C2962 1.366 . S
C2963 C2964 1.414 . S
C2963 C2966 1.499 . S
C2964 H2944 0.950 . S
C2964 C2963 1.414 . S
C2964 C2965 1.374 . S
C2965 H2945 0.950 . S
C2965 C2961 1.385 . S
C2965 C2964 1.374 . S
C2966 C2963 1.499 . S
C2966 C2967 1.373 . S
C2966 C2968 1.389 . S
C2967 H2946 0.950 . S
C2967 C2966 1.373 . S
C2967 C2983 1.377 . S
C2968 C2966 1.389 . S
C2968 C2969 1.524 . S
C2968 C2982 1.377 . S
C2969 C2968 1.524 . S
C2969 C2970 1.397 . S
C2969 C2974 1.363 . S
C2970 H2947 0.950 . S
C2970 C2969 1.397 . S
C2970 C2971 1.334 . S
C2971 H2948 0.950 . S
C2971 C2970 1.334 . S
C2971 C2972 1.287 . S
C2972 C2971 1.287 . S
C2972 C2973 1.524 . S
C2972 H2991 0.913 . S
C2973 H2949 0.950 . S
C2973 C2972 1.524 . S
C2973 C2974 1.415 . S
C2974 H2950 0.950 . S
C2974 C2969 1.363 . S
C2974 C2973 1.415 . S
C2975 H2951 0.951 . S
C2975 C2976 1.366 . S
C2975 C2977 1.388 . S
C2976 C2975 1.366 . S
C2976 C2980 1.385 . S
C2977 H2952 0.951 . S
C2977 C2975 1.388 . S
C2977 C2978 1.366 . S
C2978 C2977 1.366 . S
C2978 C2979 1.414 . S
C2978 C2981 1.499 . S
C2979 H2953 0.950 . S
C2979 C2978 1.414 . S
C2979 C2980 1.374 . S
C2980 H2954 0.950 . S
C2980 C2976 1.385 . S
C2980 C2979 1.374 . S
C2981 C2978 1.499 . S
C2981 C2982 1.373 . S
C2981 C2983 1.389 . S
C2982 H2955 0.950 . S
C2982 C2968 1.377 . S
C2982 C2981 1.373 . S
C2983 C2967 1.377 . S
C2983 C2981 1.389 . S
C2983 C2984 1.524 . S
C2984 C2983 1.524 . S
C2984 C2985 1.397 . S
C2984 C2989 1.363 . S
C2985 H2956 0.950 . S
C2985 C2984 1.397 . S
C2985 C2986 1.334 . S
C2986 H2957 0.950 . S
C2986 C2985 1.334 . S
C2986 C2987 1.287 . S
C2987 C2986 1.287 . S
C2987 C2988 1.524 . S
C2987 H2990 0.999 . S
C2988 H2958 0.950 . S
C2988 C2987 1.524 . S
C2988 C2989 1.415 . S
C2989 H2959 0.950 . S
C2989 C2984 1.363 . S
C2989 C2988 1.415 . S
H2990 C2987 0.999 . S
H2991 C2972 0.913 . S
H2992 C3010 0.951 . S
H2993 C3012 0.951 . S
H2994 C3014 0.950 . S
H2995 C3015 0.950 . S
H2996 C3017 0.975 . S
H2997 C3020 0.950 . S
H2998 C3021 0.950 . S
H2999 C3023 0.950 . S
H3000 C3024 0.950 . S
H3001 C3025 0.951 . S
H3002 C3027 0.951 . S
H3003 C3029 0.949 1_554 S
H3004 C3030 0.950 . S
H3005 C3032 0.950 . S
H3006 C3035 0.950 . S
H3007 C3036 0.950 . S
H3008 C3038 0.950 . S
H3009 C3039 0.950 1_556 S
C3010 H2992 0.951 . S
C3010 C3011 1.366 . S
C3010 C3012 1.388 . S
C3011 C3010 1.366 . S
C3011 C3015 1.385 . S
C3012 H2993 0.951 . S
C3012 C3010 1.388 . S
C3012 C3013 1.366 . S
C3013 C3012 1.366 . S
C3013 C3014 1.414 . S
C3013 C3016 1.499 . S
C3014 H2994 0.950 . S
C3014 C3013 1.414 . S
C3014 C3015 1.374 . S
C3015 H2995 0.950 . S
C3015 C3011 1.385 . S
C3015 C3014 1.374 . S
C3016 C3013 1.499 . S
C3016 C3017 1.373 . S
C3016 C3018 1.389 . S
C3017 H2996 0.975 . S
C3017 C3016 1.373 . S
C3017 C3033 1.377 . S
C3018 C3016 1.389 . S
C3018 C3019 1.524 . S
C3018 C3032 1.377 . S
C3019 C3018 1.524 . S
C3019 C3020 1.397 . S
C3019 C3024 1.363 . S
C3020 H2997 0.950 . S
C3020 C3019 1.397 . S
C3020 C3021 1.334 . S
C3021 H2998 0.950 . S
C3021 C3020 1.334 . S
C3021 C3022 1.287 . S
C3022 C3021 1.287 . S
C3022 C3023 1.524 . S
C3022 H3041 0.913 . S
C3023 H2999 0.950 . S
C3023 C3022 1.524 . S
C3023 C3024 1.415 . S
C3024 H3000 0.950 . S
C3024 C3019 1.363 . S
C3024 C3023 1.415 . S
C3025 H3001 0.951 . S
C3025 C3026 1.380 . S
C3025 C3027 1.388 . S
C3026 C3025 1.380 . S
C3026 C3030 1.376 1_556 S
C3027 H3002 0.951 . S
C3027 C3025 1.388 . S
C3027 C3028 1.366 . S
C3028 C3027 1.366 . S
C3028 C3029 1.417 . S
C3028 C3031 1.499 . S
C3029 H3003 0.949 1_556 S
C3029 C3028 1.417 . S
C3029 C3030 1.373 1_556 S
C3030 H3004 0.950 . S
C3030 C3026 1.376 1_554 S
C3030 C3029 1.373 1_554 S
C3031 C3028 1.499 . S
C3031 C3032 1.373 . S
C3031 C3033 1.389 . S
C3032 H3005 0.950 . S
C3032 C3018 1.377 . S
C3032 C3031 1.373 . S
C3033 C3017 1.377 . S
C3033 C3031 1.389 . S
C3033 C3034 1.524 1_556 S
C3034 C3033 1.524 1_554 S
C3034 C3035 1.397 . S
C3034 C3039 1.363 . S
C3035 H3006 0.950 . S
C3035 C3034 1.397 . S
C3035 C3036 1.334 . S
C3036 H3007 0.950 . S
C3036 C3035 1.334 . S
C3036 C3037 1.287 . S
C3037 C3036 1.287 . S
C3037 C3038 1.524 . S
C3037 H3040 0.999 . S
C3038 H3008 0.950 . S
C3038 C3037 1.524 . S
C3038 C3039 1.415 . S
C3039 H3009 0.950 1_554 S
C3039 C3034 1.363 . S
C3039 C3038 1.415 . S
H3040 C3037 0.999 . S
H3041 C3022 0.913 . S
H3042 C3060 0.951 . S
H3043 C3062 0.951 . S
H3044 C3064 0.950 . S
H3045 C3065 0.950 . S
H3046 C3067 0.950 . S
H3047 C3070 0.950 . S
H3048 C3071 0.950 . S
H3049 C3073 0.950 . S
H3050 C3074 0.950 . S
H3051 C3075 0.951 . S
H3052 C3077 0.951 . S
H3053 C3079 0.950 . S
H3054 C3080 0.950 . S
H3055 C3082 0.950 . S
H3056 C3085 0.950 . S
H3057 C3086 0.950 . S
H3058 C3088 0.950 . S
H3059 C3089 0.950 . S
C3060 H3042 0.951 . S
C3060 C3061 1.366 . S
C3060 C3062 1.388 . S
C3061 C3060 1.366 . S
C3061 C3065 1.385 . S
C3062 H3043 0.951 . S
C3062 C3060 1.388 . S
C3062 C3063 1.366 . S
C3063 C3062 1.366 . S
C3063 C3064 1.414 . S
C3063 C3066 1.499 . S
C3064 H3044 0.950 . S
C3064 C3063 1.414 . S
C3064 C3065 1.374 . S
C3065 H3045 0.950 . S
C3065 C3061 1.385 . S
C3065 C3064 1.374 . S
C3066 C3063 1.499 . S
C3066 C3067 1.373 . S
C3066 C3068 1.389 . S
C3067 H3046 0.950 . S
C3067 C3066 1.373 . S
C3067 C3083 1.377 . S
C3068 C3066 1.389 . S
C3068 C3069 1.524 . S
C3068 C3082 1.377 . S
C3069 C3068 1.524 . S
C3069 C3070 1.397 . S
C3069 C3074 1.363 . S
C3070 H3047 0.950 . S
C3070 C3069 1.397 . S
C3070 C3071 1.334 . S
C3071 H3048 0.950 . S
C3071 C3070 1.334 . S
C3071 C3072 1.287 . S
C3072 C3071 1.287 . S
C3072 C3073 1.524 . S
C3072 H3091 0.913 . S
C3073 H3049 0.950 . S
C3073 C3072 1.524 . S
C3073 C3074 1.415 . S
C3074 H3050 0.950 . S
C3074 C3069 1.363 . S
C3074 C3073 1.415 . S
C3075 H3051 0.951 . S
C3075 C3076 1.366 . S
C3075 C3077 1.388 . S
C3076 C3075 1.366 . S
C3076 C3080 1.385 . S
C3077 H3052 0.951 . S
C3077 C3075 1.388 . S
C3077 C3078 1.366 . S
C3078 C3077 1.366 . S
C3078 C3079 1.414 . S
C3078 C3081 1.499 . S
C3079 H3053 0.950 . S
C3079 C3078 1.414 . S
C3079 C3080 1.374 . S
C3080 H3054 0.950 . S
C3080 C3076 1.385 . S
C3080 C3079 1.374 . S
C3081 C3078 1.499 . S
C3081 C3082 1.373 . S
C3081 C3083 1.389 . S
C3082 H3055 0.950 . S
C3082 C3068 1.377 . S
C3082 C3081 1.373 . S
C3083 C3067 1.377 . S
C3083 C3081 1.389 . S
C3083 C3084 1.524 . S
C3084 C3083 1.524 . S
C3084 C3085 1.397 . S
C3084 C3089 1.363 . S
C3085 H3056 0.950 . S
C3085 C3084 1.397 . S
C3085 C3086 1.334 . S
C3086 H3057 0.950 . S
C3086 C3085 1.334 . S
C3086 C3087 1.287 . S
C3087 C3086 1.287 . S
C3087 C3088 1.524 . S
C3087 H3090 0.999 . S
C3088 H3058 0.950 . S
C3088 C3087 1.524 . S
C3088 C3089 1.415 . S
C3089 H3059 0.950 . S
C3089 C3084 1.363 . S
C3089 C3088 1.415 . S
H3090 C3087 0.999 . S
H3091 C3072 0.913 . S
H3092 C3110 0.951 . S
H3093 C3112 0.951 . S
H3094 C3114 0.950 . S
H3095 C3115 0.950 . S
H3096 C3117 0.950 . S
H3097 C3120 0.950 . S
H3098 C3121 0.950 . S
H3099 C3123 0.950 . S
H3100 C3124 0.950 . S
H3101 C3125 0.951 . S
H3102 C3127 0.951 . S
H3103 C3129 0.950 . S
H3104 C3130 0.950 . S
H3105 C3132 0.950 . S
H3106 C3135 0.950 . S
H3107 C3136 0.950 . S
H3108 C3138 0.950 . S
H3109 C3139 0.950 . S
C3110 H3092 0.951 . S
C3110 C3111 1.366 . S
C3110 C3112 1.388 . S
C3111 C3110 1.366 . S
C3111 C3115 1.385 . S
C3112 H3093 0.951 . S
C3112 C3110 1.388 . S
C3112 C3113 1.366 . S
C3113 C3112 1.366 . S
C3113 C3114 1.414 . S
C3113 C3116 1.499 . S
C3114 H3094 0.950 . S
C3114 C3113 1.414 . S
C3114 C3115 1.374 . S
C3115 H3095 0.950 . S
C3115 C3111 1.385 . S
C3115 C3114 1.374 . S
C3116 C3113 1.499 . S
C3116 C3117 1.373 . S
C3116 C3118 1.389 . S
C3117 H3096 0.950 . S
C3117 C3116 1.373 . S
C3117 C3133 1.377 . S
C3118 C3116 1.389 . S
C3118 C3119 1.524 1_554 S
C3118 C3132 1.377 . S
C3119 C3118 1.524 1_556 S
C3119 C3120 1.397 . S
C3119 C3124 1.363 . S
C3120 H3097 0.950 . S
C3120 C3119 1.397 . S
C3120 C3121 1.334 . S
C3121 H3098 0.950 . S
C3121 C3120 1.334 . S
C3121 C3122 1.287 . S
C3122 C3121 1.287 . S
C3122 C3123 1.524 . S
C3122 H3141 0.913 . S
C3123 H3099 0.950 . S
C3123 C3122 1.524 . S
C3123 C3124 1.415 . S
C3124 H3100 0.950 . S
C3124 C3119 1.363 . S
C3124 C3123 1.415 . S
C3125 H3101 0.951 . S
C3125 C3126 1.366 . S
C3125 C3127 1.388 . S
C3126 C3125 1.366 . S
C3126 C3130 1.385 . S
C3127 H3102 0.951 . S
C3127 C3125 1.388 . S
C3127 C3128 1.366 . S
C3128 C3127 1.366 . S
C3128 C3129 1.414 . S
C3128 C3131 1.499 . S
C3129 H3103 0.950 . S
C3129 C3128 1.414 . S
C3129 C3130 1.374 . S
C3130 H3104 0.950 . S
C3130 C3126 1.385 . S
C3130 C3129 1.374 . S
C3131 C3128 1.499 . S
C3131 C3132 1.373 . S
C3131 C3133 1.389 . S
C3132 H3105 0.950 . S
C3132 C3118 1.377 . S
C3132 C3131 1.373 . S
C3133 C3117 1.377 . S
C3133 C3131 1.389 . S
C3133 C3134 1.524 . S
C3134 C3133 1.524 . S
C3134 C3135 1.397 . S
C3134 C3139 1.363 . S
C3135 H3106 0.950 . S
C3135 C3134 1.397 . S
C3135 C3136 1.334 . S
C3136 H3107 0.950 . S
C3136 C3135 1.334 . S
C3136 C3137 1.287 . S
C3137 C3136 1.287 . S
C3137 C3138 1.524 . S
C3137 H3140 0.999 . S
C3138 H3108 0.950 . S
C3138 C3137 1.524 . S
C3138 C3139 1.415 . S
C3139 H3109 0.950 . S
C3139 C3134 1.363 . S
C3139 C3138 1.415 . S
H3140 C3137 0.999 . S
H3141 C3122 0.913 . S
H3142 C3160 0.951 . S
H3143 C3162 0.951 . S
H3144 C3164 0.950 . S
H3145 C3165 0.986 . S
H3146 C3167 0.950 . S
H3147 C3170 0.950 . S
H3148 C3171 0.950 . S
H3149 C3173 0.950 . S
H3150 C3174 0.950 . S
H3151 C3175 0.951 . S
H3152 C3177 0.951 . S
H3153 C3179 0.950 1_556 S
H3154 C3180 0.924 1_556 S
H3155 C3182 0.950 . S
H3156 C3185 0.950 . S
H3157 C3186 0.950 . S
H3158 C3188 0.950 . S
H3159 C3189 0.950 . S
C3160 H3142 0.951 . S
C3160 C3161 1.366 . S
C3160 C3162 1.388 . S
C3161 C3160 1.366 . S
C3161 C3165 1.385 . S
C3162 H3143 0.951 . S
C3162 C3160 1.388 . S
C3162 C3163 1.366 . S
C3163 C3162 1.366 . S
C3163 C3164 1.414 . S
C3163 C3166 1.499 . S
C3164 H3144 0.950 . S
C3164 C3163 1.414 . S
C3164 C3165 1.374 . S
C3165 H3145 0.986 . S
C3165 C3161 1.385 . S
C3165 C3164 1.374 . S
C3166 C3163 1.499 . S
C3166 C3167 1.373 . S
C3166 C3168 1.389 . S
C3167 H3146 0.950 . S
C3167 C3166 1.373 . S
C3167 C3183 1.377 . S
C3168 C3166 1.389 . S
C3168 C3169 1.524 . S
C3168 C3182 1.377 . S
C3169 C3168 1.524 . S
C3169 C3170 1.397 . S
C3169 C3174 1.363 . S
C3170 H3147 0.950 . S
C3170 C3169 1.397 . S
C3170 C3171 1.334 . S
C3171 H3148 0.950 . S
C3171 C3170 1.334 . S
C3171 C3172 1.287 . S
C3172 C3171 1.287 . S
C3172 C3173 1.524 . S
C3172 H3191 0.913 . S
C3173 H3149 0.950 . S
C3173 C3172 1.524 . S
C3173 C3174 1.415 . S
C3174 H3150 0.950 . S
C3174 C3169 1.363 . S
C3174 C3173 1.415 . S
C3175 H3151 0.951 . S
C3175 C3176 1.366 . S
C3175 C3177 1.388 . S
C3176 C3175 1.366 . S
C3176 C3180 1.408 . S
C3177 H3152 0.951 . S
C3177 C3175 1.388 . S
C3177 C3178 1.366 . S
C3178 C3177 1.366 . S
C3178 C3179 1.414 . S
C3178 C3181 1.499 . S
C3179 H3153 0.950 1_554 S
C3179 C3178 1.414 . S
C3179 C3180 1.381 . S
C3180 H3154 0.924 1_554 S
C3180 C3176 1.408 . S
C3180 C3179 1.381 . S
C3181 C3178 1.499 . S
C3181 C3182 1.373 . S
C3181 C3183 1.389 . S
C3182 H3155 0.950 . S
C3182 C3168 1.377 . S
C3182 C3181 1.373 . S
C3183 C3167 1.377 . S
C3183 C3181 1.389 . S
C3183 C3184 1.524 1_554 S
C3184 C3183 1.524 1_556 S
C3184 C3185 1.397 . S
C3184 C3189 1.363 1_556 S
C3185 H3156 0.950 . S
C3185 C3184 1.397 . S
C3185 C3186 1.334 . S
C3186 H3157 0.950 . S
C3186 C3185 1.334 . S
C3186 C3187 1.287 . S
C3187 C3186 1.287 . S
C3187 C3188 1.524 . S
C3187 H3190 0.999 . S
C3188 H3158 0.950 . S
C3188 C3187 1.524 . S
C3188 C3189 1.415 1_556 S
C3189 H3159 0.950 . S
C3189 C3184 1.363 1_554 S
C3189 C3188 1.415 1_554 S
H3190 C3187 0.999 . S
H3191 C3172 0.913 . S
C826 C635 1.428 . S
C811 C211 1.449 . S
C876 C643 1.289 . S
C861 C255 1.544 . S
C911 C274 1.426 . S
C926 C663 1.404 . S
C976 C677 1.509 . S
C961 C157 1.491 1_655 S
C1026 C692 1.544 . S
C1011 C391 1.545 . S
C1076 C706 1.513 . S
C1061 C484 1.510 . S
C1111 C450 1.572 . S
C1126 C720 1.572 . S
C1176 C726 1.443 . S
C1161 C352 1.484 . S
C1211 C430 1.522 . S
C1226 C740 1.484 . S
C1276 C761 1.554 . S
C1261 C367 1.579 . S
C1311 C411 1.478 . S
C1326 C741 1.245 . S
C1376 C762 1.540 . S
C1361 C469 1.538 . S
C1411 C294 1.469 . S
C1426 C769 1.223 . S
C1461 C177 1.518 . S
C1476 C775 1.498 . S
C1511 C196 1.507 . S
C1526 C768 1.466 . S
C1561 C235 1.470 . S
C1576 C776 1.472 . S
C1611 C133 1.500 . S
C1626 C670 1.460 . S
C1661 C567 1.486 . S
C1676 C671 1.249 . S
C1726 C628 1.521 . S
C1711 C601 1.567 . S
C1776 C649 1.429 . S
C1761 C328 1.454 . S
C1811 C172 1.489 . S
C1826 C684 1.450 . S
C1876 C734 1.535 . S
C1861 C445 1.535 . S
C1926 C685 1.225 . S
C1911 C372 1.460 . S
C1976 C713 1.280 . S
C1961 C489 1.550 . S
C2026 C719 1.428 . S
C2011 C562 1.449 . S
C2061 C606 1.543 . S
C2076 C727 1.288 . S
C2111 C313 1.426 . S
C2126 C691 1.404 . S
C2176 C705 1.509 . S
C2161 C508 1.532 . S
C2211 C118 1.545 . S
C2226 C664 1.544 . S
C2276 C678 1.513 . S
C2261 C16 1.510 . S
C2326 C636 1.572 . S
C2311 C60 1.572 . S
C2376 C642 1.442 . S
C2361 C79 1.484 . S
C2411 C40 1.522 . S
C2426 C754 1.484 . S
C2461 C94 1.579 1_556 S
C2476 C747 1.553 . S
C2511 C138 1.478 . S
C2526 C755 1.245 . S
C2561 C1 1.538 . S
C2576 C748 1.540 . S
C2626 C783 1.221 . S
C2611 C333 1.469 . S
C2676 C789 1.497 . S
C2661 C528 1.518 . S
C2726 C782 1.466 . S
C2711 C547 1.507 . S
C2761 C586 1.470 . S
C2776 C790 1.472 . S
C2811 C406 1.500 . S
C2826 C698 1.460 . S
C2876 C699 1.248 . S
C2861 C216 1.486 . S
C2926 C712 1.521 . S
C2911 C250 1.567 . S
C2976 C733 1.430 . S
C2961 C289 1.455 . S
C3011 C523 1.489 . S
C3026 C656 1.448 1_556 S
C3076 C650 1.535 . S
C3061 C55 1.535 . S
C3111 C99 1.460 . S
C3126 C657 1.226 . S
C3176 C629 1.279 . S
C3161 C21 1.550 . S
