# Generated by pormake.
# Topology the, (3,8)-cn, num edge types: 1
# Building blocks:
#     Node 0, Type 0, BuildingBlock: BELTOD_clean_linker_0, # of connection points: 3
#     Node 1, Type 0, BuildingBlock: BELTOD_clean_linker_0, # of connection points: 3
#     Node 2, Type 0, BuildingBlock: BELTOD_clean_linker_0, # of connection points: 3
#     Node 3, Type 0, BuildingBlock: BELTOD_clean_linker_0, # of connection points: 3
#     Node 4, Type 0, BuildingBlock: BELTOD_clean_linker_0, # of connection points: 3
#     Node 5, Type 0, BuildingBlock: BELTOD_clean_linker_0, # of connection points: 3
#     Node 6, Type 0, BuildingBlock: BELTOD_clean_linker_0, # of connection points: 3
#     Node 7, Type 0, BuildingBlock: BELTOD_clean_linker_0, # of connection points: 3
#     Node 8, Type 1, BuildingBlock: GIZVER_clean_sbu_0, # of connection points: 8
#     Node 9, Type 1, BuildingBlock: GIZVER_clean_sbu_0, # of connection points: 8
#     Node 10, Type 1, BuildingBlock: GIZVER_clean_sbu_0, # of connection points: 8
#     Edge 11, Type (0, 1), BuildingBlock: TEMPAE_clean_linker_10, # of connection points: 2
#     Edge 12, Type (0, 1), BuildingBlock: TEMPAE_clean_linker_10, # of connection points: 2
#     Edge 13, Type (0, 1), BuildingBlock: TEMPAE_clean_linker_10, # of connection points: 2
#     Edge 14, Type (0, 1), BuildingBlock: TEMPAE_clean_linker_10, # of connection points: 2
#     Edge 15, Type (0, 1), BuildingBlock: TEMPAE_clean_linker_10, # of connection points: 2
#     Edge 16, Type (0, 1), BuildingBlock: TEMPAE_clean_linker_10, # of connection points: 2
#     Edge 17, Type (0, 1), BuildingBlock: TEMPAE_clean_linker_10, # of connection points: 2
#     Edge 18, Type (0, 1), BuildingBlock: TEMPAE_clean_linker_10, # of connection points: 2
#     Edge 19, Type (0, 1), BuildingBlock: TEMPAE_clean_linker_10, # of connection points: 2
#     Edge 20, Type (0, 1), BuildingBlock: TEMPAE_clean_linker_10, # of connection points: 2
#     Edge 21, Type (0, 1), BuildingBlock: TEMPAE_clean_linker_10, # of connection points: 2
#     Edge 22, Type (0, 1), BuildingBlock: TEMPAE_clean_linker_10, # of connection points: 2
#     Edge 23, Type (0, 1), BuildingBlock: TEMPAE_clean_linker_10, # of connection points: 2
#     Edge 24, Type (0, 1), BuildingBlock: TEMPAE_clean_linker_10, # of connection points: 2
#     Edge 25, Type (0, 1), BuildingBlock: TEMPAE_clean_linker_10, # of connection points: 2
#     Edge 26, Type (0, 1), BuildingBlock: TEMPAE_clean_linker_10, # of connection points: 2
#     Edge 27, Type (0, 1), BuildingBlock: TEMPAE_clean_linker_10, # of connection points: 2
#     Edge 28, Type (0, 1), BuildingBlock: TEMPAE_clean_linker_10, # of connection points: 2
#     Edge 29, Type (0, 1), BuildingBlock: TEMPAE_clean_linker_10, # of connection points: 2
#     Edge 30, Type (0, 1), BuildingBlock: TEMPAE_clean_linker_10, # of connection points: 2
#     Edge 31, Type (0, 1), BuildingBlock: TEMPAE_clean_linker_10, # of connection points: 2
#     Edge 32, Type (0, 1), BuildingBlock: TEMPAE_clean_linker_10, # of connection points: 2
#     Edge 33, Type (0, 1), BuildingBlock: TEMPAE_clean_linker_10, # of connection points: 2
#     Edge 34, Type (0, 1), BuildingBlock: TEMPAE_clean_linker_10, # of connection points: 2
# Relax obj value: 0.046
# Max RMSD: 0.141
# Mean RMSD: 0.071
data_MOF--net-the--node1-GIZVER_clean_sbu_0--node2-BELTOD_clean_linker_0--edge1-TEMPAE_clean_linker_10
_symmetry_space_group_name_H-M    P1
_symmetry_Int_Tables_number       1
_symmetry_cell_setting            triclinic
loop_
_symmetry_equiv_pos_as_xyz
'x, y, z'
_cell_length_a     47.234925
_cell_length_b     44.842581
_cell_length_c     40.98323
_cell_angle_alpha  86.34999
_cell_angle_beta   94.298326
_cell_angle_gamma 102.0052
loop_
_atom_site_label
_atom_site_type_symbol
_atom_site_fract_x
_atom_site_fract_y
_atom_site_fract_z
_atom_type_partial_charge
P0 P 0.35395 0.37289 0.43113 0.0
H1 H 0.32361 0.37431 0.49003 0.0
H2 H 0.27276 0.37151 0.4995 0.0
H3 H 0.25112 0.36417 0.39533 0.0
H4 H 0.30139 0.36384 0.38692 0.0
H5 H 0.37573 0.33834 0.48687 0.0
H6 H 0.38287 0.28572 0.49395 0.0
H7 H 0.34938 0.26968 0.3942 0.0
H8 H 0.34212 0.3223 0.38736 0.0
H9 H 0.33265 0.4183 0.38581 0.0
H10 H 0.39928 0.36524 0.38972 0.0
O11 O 0.37467 0.39428 0.45922 0.0
H12 H 0.34401 0.43673 0.33005 0.0
H13 H 0.41207 0.38497 0.33489 0.0
C14 C 0.31642 0.37097 0.43756 0.0
C15 C 0.3078 0.3721 0.46931 0.0
C16 C 0.27867 0.37061 0.47462 0.0
C17 C 0.25765 0.36837 0.44813 0.0
C18 C 0.2664 0.36575 0.41649 0.0
C19 C 0.2954 0.36631 0.41143 0.0
C20 C 0.3593 0.33437 0.43629 0.0
C21 C 0.37005 0.32353 0.46651 0.0
C22 C 0.37384 0.29342 0.47062 0.0
C23 C 0.36684 0.27374 0.44453 0.0
C24 C 0.35532 0.28451 0.41454 0.0
C25 C 0.35126 0.31452 0.41059 0.0
C26 C 0.36401 0.38903 0.3912 0.0
C27 C 0.34964 0.41047 0.37461 0.0
C28 C 0.35647 0.42137 0.34283 0.0
C29 C 0.37852 0.41179 0.32752 0.0
C30 C 0.39421 0.39194 0.3453 0.0
C31 C 0.38703 0.38073 0.37681 0.0
P32 P 0.71506 0.29957 0.27014 0.0
H33 H 0.77351 0.33102 0.25494 0.0
H34 H 0.81423 0.35992 0.28762 0.0
H35 H 0.76148 0.34832 0.37097 0.0
H36 H 0.7209 0.31919 0.33821 0.0
H37 H 0.71761 0.235 0.28016 0.0
H38 H 0.68888 0.19239 0.31084 0.0
H39 H 0.63984 0.25371 0.34623 0.0
H40 H 0.66944 0.29644 0.31622 0.0
H41 H 0.72694 0.35929 0.23503 0.0
H42 H 0.65189 0.2887 0.25401 0.0
O43 O 0.72984 0.28395 0.24151 0.0
H44 H 0.69624 0.38741 0.19942 0.0
H45 H 0.62123 0.31749 0.22002 0.0
C46 C 0.74426 0.32245 0.29423 0.0
C47 C 0.77067 0.33468 0.28025 0.0
C48 C 0.79392 0.35136 0.29893 0.0
C49 C 0.79122 0.35623 0.33202 0.0
C50 C 0.76446 0.34451 0.34574 0.0
C51 C 0.74115 0.32793 0.32695 0.0
C52 C 0.6952 0.2688 0.29525 0.0
C53 C 0.70077 0.23934 0.29462 0.0
C54 C 0.68418 0.21491 0.31208 0.0
C55 C 0.66167 0.21944 0.33063 0.0
C56 C 0.65704 0.24932 0.33235 0.0
C57 C 0.67382 0.27379 0.31502 0.0
C58 C 0.69168 0.32239 0.24836 0.0
C59 C 0.70383 0.35024 0.2324 0.0
C60 C 0.68635 0.36621 0.21192 0.0
C61 C 0.65639 0.3547 0.20738 0.0
C62 C 0.64421 0.32705 0.22363 0.0
C63 C 0.66177 0.31074 0.24339 0.0
P64 P 0.73956 0.75633 0.28647 0.0
H65 H 0.74858 0.82111 0.29901 0.0
H66 H 0.72357 0.85048 0.33096 0.0
H67 H 0.6655 0.7674 0.3617 0.0
H68 H 0.69096 0.73796 0.32971 0.0
H69 H 0.79541 0.74368 0.27261 0.0
H70 H 0.83027 0.71829 0.30434 0.0
H71 H 0.77561 0.70384 0.38611 0.0
H72 H 0.74061 0.7291 0.35413 0.0
H73 H 0.67732 0.74815 0.2655 0.0
H74 H 0.74851 0.70489 0.25103 0.0
O75 O 0.75796 0.78132 0.25981 0.0
H76 H 0.64582 0.71325 0.22875 0.0
H77 H 0.71779 0.67121 0.21263 0.0
C78 C 0.72128 0.77737 0.31139 0.0
C79 C 0.73044 0.80912 0.31252 0.0
C80 C 0.71606 0.82596 0.33078 0.0
C81 C 0.69231 0.81136 0.34862 0.0
C82 C 0.68377 0.77935 0.34834 0.0
C83 C 0.69817 0.76251 0.32992 0.0
C84 C 0.76551 0.73863 0.31105 0.0
C85 C 0.79096 0.73525 0.29744 0.0
C86 C 0.81083 0.7206 0.31554 0.0
C87 C 0.80572 0.70914 0.34776 0.0
C88 C 0.7803 0.71278 0.36149 0.0
C89 C 0.76023 0.72716 0.34317 0.0
C90 C 0.71511 0.7285 0.26214 0.0
C91 C 0.68613 0.73084 0.25489 0.0
C92 C 0.66821 0.71114 0.23322 0.0
C93 C 0.67911 0.68922 0.21747 0.0
C94 C 0.70829 0.6872 0.2247 0.0
C95 C 0.72601 0.70659 0.24675 0.0
P96 P 0.28995 0.71867 0.28568 0.0
H97 H 0.33354 0.77247 0.26958 0.0
H98 H 0.36409 0.81197 0.30237 0.0
H99 H 0.3285 0.76551 0.39037 0.0
H100 H 0.29779 0.72612 0.35726 0.0
H101 H 0.27078 0.66931 0.24156 0.0
H102 H 0.2963 0.63723 0.21351 0.0
H103 H 0.37738 0.68165 0.26122 0.0
H104 H 0.35173 0.71365 0.28921 0.0
H105 H 0.23369 0.7303 0.29972 0.0
H106 H 0.28101 0.65803 0.31993 0.0
O107 O 0.27568 0.73803 0.25481 0.0
H108 H 0.1916 0.6988 0.32505 0.0
H109 H 0.23878 0.626 0.34447 0.0
C110 C 0.31328 0.74648 0.31092 0.0
C111 C 0.33237 0.77075 0.29595 0.0
C112 C 0.34992 0.79325 0.31476 0.0
C113 C 0.3487 0.79199 0.34902 0.0
C114 C 0.32969 0.76739 0.36401 0.0
C115 C 0.31222 0.74475 0.34511 0.0
C116 C 0.30929 0.69389 0.26744 0.0
C117 C 0.29403 0.67195 0.24619 0.0
C118 C 0.30862 0.65355 0.23027 0.0
C119 C 0.33889 0.65694 0.23506 0.0
C120 C 0.3541 0.67874 0.25672 0.0
C121 C 0.33941 0.697 0.27285 0.0
C122 C 0.26022 0.69626 0.30734 0.0
C123 C 0.235 0.70762 0.30962 0.0
C124 C 0.21088 0.68949 0.32392 0.0
C125 C 0.21159 0.65965 0.33638 0.0
C126 C 0.23745 0.64887 0.33525 0.0
C127 C 0.26159 0.66709 0.32101 0.0
P128 P 0.34288 0.66979 0.67809 0.0
H129 H 0.29919 0.7034 0.64766 0.0
H130 H 0.24786 0.68718 0.63266 0.0
H131 H 0.24962 0.59813 0.67907 0.0
H132 H 0.30046 0.61561 0.69637 0.0
H133 H 0.39328 0.69755 0.64229 0.0
H134 H 0.41616 0.74994 0.62821 0.0
H135 H 0.35213 0.7818 0.67933 0.0
H136 H 0.33028 0.72875 0.69504 0.0
H137 H 0.39802 0.65306 0.69626 0.0
H138 H 0.32321 0.66226 0.74581 0.0
O139 O 0.3527 0.64906 0.65013 0.0
H140 H 0.42082 0.63711 0.74785 0.0
H141 H 0.34583 0.64563 0.79802 0.0
C142 C 0.30367 0.66111 0.67421 0.0
C143 C 0.28831 0.6809 0.65609 0.0
C144 C 0.25885 0.67124 0.64678 0.0
C145 C 0.24426 0.64108 0.65415 0.0
C146 C 0.25961 0.62168 0.67332 0.0
C147 C 0.28889 0.63164 0.68327 0.0
C148 C 0.35935 0.70917 0.66861 0.0
C149 C 0.38399 0.71574 0.65036 0.0
C150 C 0.39699 0.74587 0.6421 0.0
C151 C 0.38559 0.77033 0.65175 0.0
C152 C 0.36149 0.76367 0.67128 0.0
C153 C 0.34875 0.73333 0.68001 0.0
C154 C 0.35864 0.65812 0.71706 0.0
C155 C 0.38634 0.65132 0.71829 0.0
C156 C 0.39933 0.64206 0.74786 0.0
C157 C 0.38498 0.63954 0.77708 0.0
C158 C 0.35746 0.64726 0.77597 0.0
C159 C 0.34442 0.65657 0.74615 0.0
P160 P 0.33099 0.3215 0.68428 0.0
H161 H 0.39004 0.34166 0.71031 0.0
H162 H 0.41123 0.35959 0.76334 0.0
H163 H 0.32624 0.33817 0.80186 0.0
H164 H 0.3051 0.32043 0.74825 0.0
H165 H 0.33074 0.29797 0.62 0.0
H166 H 0.346 0.25377 0.60074 0.0
H167 H 0.36637 0.22501 0.7009 0.0
H168 H 0.34997 0.26886 0.72002 0.0
H169 H 0.29785 0.36599 0.6996 0.0
H170 H 0.28054 0.27946 0.6539 0.0
O171 O 0.34765 0.34964 0.65952 0.0
H172 H 0.24909 0.37307 0.68172 0.0
H173 H 0.23191 0.2867 0.6355 0.0
C174 C 0.34598 0.3303 0.72516 0.0
C175 C 0.37599 0.3405 0.73026 0.0
C176 C 0.3881 0.35055 0.76074 0.0
C177 C 0.37043 0.35047 0.78692 0.0
C178 C 0.3404 0.33893 0.7821 0.0
C179 C 0.32829 0.32873 0.75148 0.0
C180 C 0.33952 0.28687 0.67137 0.0
C181 C 0.33819 0.28196 0.63783 0.0
C182 C 0.3471 0.25675 0.62686 0.0
C183 C 0.35784 0.23603 0.64923 0.0
C184 C 0.35808 0.2404 0.683 0.0
C185 C 0.3489 0.2656 0.69398 0.0
C186 C 0.29289 0.32216 0.6783 0.0
C187 C 0.28328 0.34808 0.68658 0.0
C188 C 0.25537 0.3521 0.67633 0.0
C189 C 0.2367 0.33048 0.65709 0.0
C190 C 0.2459 0.30382 0.65012 0.0
C191 C 0.27374 0.29967 0.66073 0.0
P192 P 0.72872 0.30611 0.72502 0.0
H193 H 0.73912 0.27773 0.66557 0.0
H194 H 0.70918 0.23919 0.63165 0.0
H195 H 0.63742 0.23637 0.69223 0.0
H196 H 0.66684 0.27663 0.72419 0.0
H197 H 0.78875 0.32738 0.74906 0.0
H198 H 0.83119 0.35817 0.72416 0.0
H199 H 0.77937 0.36712 0.63391 0.0
H200 H 0.73665 0.33724 0.65966 0.0
H201 H 0.68955 0.29277 0.77812 0.0
H202 H 0.72752 0.37204 0.71923 0.0
O203 O 0.74143 0.28314 0.75352 0.0
H204 H 0.66661 0.32438 0.80955 0.0
H205 H 0.70629 0.4043 0.75199 0.0
C206 C 0.70509 0.28109 0.69688 0.0
C207 C 0.71663 0.26966 0.67086 0.0
C208 C 0.69953 0.24697 0.65181 0.0
C209 C 0.67068 0.23423 0.65904 0.0
C210 C 0.65923 0.24585 0.68521 0.0
C211 C 0.6762 0.269 0.70378 0.0
C212 C 0.75973 0.32922 0.7059 0.0
C213 C 0.78653 0.33585 0.72386 0.0
C214 C 0.81088 0.35339 0.70949 0.0
C215 C 0.80896 0.3648 0.67678 0.0
C216 C 0.78174 0.35884 0.65915 0.0
C217 C 0.75731 0.34146 0.67371 0.0
C218 C 0.71021 0.3299 0.74622 0.0
C219 C 0.69292 0.31704 0.77189 0.0
C220 C 0.68015 0.33533 0.79024 0.0
C221 C 0.68485 0.36718 0.78384 0.0
C222 C 0.70186 0.37993 0.75761 0.0
C223 C 0.71423 0.36144 0.73887 0.0
P224 P 0.75787 0.73281 0.68022 0.0
H225 H 0.81958 0.74798 0.66873 0.0
H226 H 0.84995 0.72406 0.63732 0.0
H227 H 0.77485 0.65659 0.60672 0.0
H228 H 0.74445 0.68078 0.63799 0.0
H229 H 0.71481 0.76522 0.69734 0.0
H230 H 0.6824 0.79299 0.66505 0.0
H231 H 0.7119 0.76628 0.57598 0.0
H232 H 0.7453 0.73979 0.60855 0.0
H233 H 0.76847 0.71747 0.74971 0.0
H234 H 0.70564 0.68492 0.67133 0.0
O235 O 0.77911 0.75997 0.70207 0.0
H236 H 0.74156 0.67989 0.78805 0.0
H237 H 0.67924 0.6465 0.70954 0.0
C238 C 0.77986 0.71585 0.65607 0.0
C239 C 0.80959 0.72809 0.65525 0.0
C240 C 0.82693 0.71443 0.63731 0.0
C241 C 0.81471 0.68843 0.61978 0.0
C242 C 0.78474 0.67673 0.61988 0.0
C243 C 0.76744 0.69033 0.63801 0.0
C244 C 0.73236 0.7504 0.65542 0.0
C245 C 0.71411 0.76516 0.67086 0.0
C246 C 0.69538 0.78079 0.6523 0.0
C247 C 0.69438 0.78172 0.61784 0.0
C248 C 0.71231 0.76624 0.60244 0.0
C249 C 0.73129 0.75084 0.62111 0.0
C250 C 0.73885 0.70414 0.7078 0.0
C251 C 0.74905 0.7021 0.74068 0.0
C252 C 0.7338 0.68059 0.7625 0.0
C253 C 0.70851 0.6604 0.75154 0.0
C254 C 0.69888 0.6617 0.71836 0.0
C255 C 0.71388 0.68364 0.69664 0.0
Co256 Co 0.06582 0.46736 0.51912 0.0
Co257 Co 0.03558 0.45695 0.46277 0.0
Co258 Co 0.01068 0.50455 0.49967 0.0
O259 O 0.026 0.46604 0.5041 0.0
H260 H 0.01266 0.44907 0.51385 0.0
O261 O 0.9957 0.543 0.49526 0.0
Co262 Co 0.95623 0.54354 0.48088 0.0
Co263 Co 0.98729 0.55175 0.5371 0.0
H264 H 0.00931 0.55991 0.48587 0.0
O265 O 0.04273 0.41848 0.45441 0.0
O266 O 0.07438 0.45861 0.47483 0.0
O267 O 0.03693 0.48861 0.42816 0.0
O268 O 0.03684 0.52381 0.46387 0.0
O269 O 0.98002 0.48493 0.46664 0.0
O270 O 0.92073 0.54793 0.4669 0.0
O271 O 0.96173 0.58404 0.46962 0.0
O272 O 0.94534 0.50099 0.48924 0.0
O273 O 0.98416 0.48533 0.53523 0.0
O274 O 0.98673 0.52027 0.57181 0.0
O275 O 0.94848 0.55087 0.52596 0.0
O276 O 0.98131 0.59018 0.54625 0.0
C277 C 0.08946 0.43708 0.54103 0.0
C278 C 0.06813 0.52634 0.52875 0.0
C279 C 0.04304 0.51622 0.43613 0.0
C280 C 0.06905 0.43165 0.46324 0.0
C281 C 0.93388 0.57624 0.46221 0.0
C282 C 0.95308 0.4835 0.46993 0.0
C283 C 0.97902 0.49288 0.56342 0.0
C284 C 0.95465 0.57772 0.53787 0.0
O285 O 0.10135 0.46535 0.53406 0.0
O286 O 0.06194 0.42726 0.53278 0.0
O287 O 0.04128 0.52444 0.53284 0.0
O288 O 0.0753 0.50936 0.50855 0.0
Co289 Co 0.54528 0.95301 0.48418 0.0
Co290 Co 0.55944 0.97526 0.5417 0.0
Co291 Co 0.51274 0.00915 0.506 0.0
O292 O 0.54794 0.99201 0.50178 0.0
H293 H 0.56381 0.00714 0.49353 0.0
O294 O 0.47774 0.0268 0.51011 0.0
Co295 Co 0.48235 0.06576 0.52891 0.0
Co296 Co 0.46592 0.04512 0.47076 0.0
H297 H 0.4618 0.01193 0.51861 0.0
O298 O 0.59672 0.9694 0.55083 0.0
O299 O 0.55898 0.93676 0.52732 0.0
O300 O 0.53305 0.96941 0.576 0.0
O301 O 0.49657 0.97858 0.5421 0.0
O302 O 0.53617 0.03742 0.53888 0.0
O303 O 0.48365 0.10028 0.54815 0.0
O304 O 0.44647 0.05972 0.54425 0.0
O305 O 0.52076 0.07727 0.51608 0.0
O306 O 0.5288 0.0394 0.46965 0.0
O307 O 0.49284 0.05192 0.43688 0.0
O308 O 0.46841 0.08335 0.48696 0.0
O309 O 0.42889 0.0541 0.46306 0.0
C310 C 0.57213 0.93206 0.46057 0.0
C311 C 0.48709 0.9516 0.47784 0.0
C312 C 0.5061 0.96684 0.5689 0.0
C313 C 0.58555 0.9426 0.54002 0.0
C314 C 0.45749 0.0868 0.55495 0.0
C315 C 0.53956 0.06627 0.5339 0.0
C316 C 0.51962 0.05237 0.44341 0.0
C317 C 0.44164 0.07981 0.47532 0.0
O318 O 0.5458 0.91816 0.46623 0.0
O319 O 0.58181 0.95972 0.47039 0.0
O320 O 0.48947 0.98048 0.47347 0.0
O321 O 0.50638 0.94095 0.49538 0.0
Co322 Co 0.48111 0.52807 0.07873 0.0
Co323 Co 0.46762 0.4724 0.05675 0.0
Co324 Co 0.51494 0.51367 0.01257 0.0
O325 O 0.47917 0.51152 0.03642 0.0
H326 H 0.46342 0.51659 0.02215 0.0
O327 O 0.5508 0.5153 0.98905 0.0
Co328 Co 0.54875 0.49769 0.94735 0.0
Co329 Co 0.56209 0.55291 0.96759 0.0
H330 H 0.56658 0.51065 1.00349 0.0
O331 O 0.43116 0.45832 0.07519 0.0
O332 O 0.47115 0.48661 0.09869 0.0
O333 O 0.49525 0.44573 0.05784 0.0
O334 O 0.53115 0.48426 0.04461 0.0
O335 O 0.49291 0.47941 0.98555 0.0
O336 O 0.54968 0.4803 0.90982 0.0
O337 O 0.58531 0.49039 0.94974 0.0
O338 O 0.51003 0.50197 0.93973 0.0
O339 O 0.49857 0.54325 0.98048 0.0
O340 O 0.5347 0.57951 0.96306 0.0
O341 O 0.56257 0.53858 0.92626 0.0
O342 O 0.59994 0.56613 0.95597 0.0
C343 C 0.45265 0.54362 0.10564 0.0
C344 C 0.53887 0.54636 0.07043 0.0
C345 C 0.52212 0.45746 0.05725 0.0
C346 C 0.44503 0.47094 0.10093 0.0
C347 C 0.57576 0.47891 0.92149 0.0
C348 C 0.49106 0.48244 0.9543 0.0
C349 C 0.50779 0.56879 0.96509 0.0
C350 C 0.58923 0.55379 0.92873 0.0
O351 O 0.47911 0.54373 0.11715 0.0
O352 O 0.44384 0.53257 0.07706 0.0
O353 O 0.5371 0.54818 0.03917 0.0
O354 O 0.52059 0.52665 0.08563 0.0
C355 C 0.22168 0.38987 0.47664 0.0
C356 C 0.22726 0.37083 0.45301 0.0
C357 C 0.1938 0.39522 0.4792 0.0
C358 C 0.17103 0.38223 0.45675 0.0
C359 C 0.17606 0.362 0.43378 0.0
C360 C 0.20398 0.35607 0.4326 0.0
C361 C 0.18932 0.4162 0.5049 0.0
C362 C 0.15227 0.34772 0.40949 0.0
C363 C 0.09398 0.38782 0.4723 0.0
C364 C 0.09339 0.41711 0.45877 0.0
C365 C 0.11883 0.37544 0.47121 0.0
C366 C 0.14308 0.39258 0.45521 0.0
C367 C 0.1415 0.42131 0.43947 0.0
C368 C 0.11694 0.43357 0.44223 0.0
C369 C 0.11861 0.34435 0.4877 0.0
C370 C 0.16588 0.43937 0.42005 0.0
H371 H 0.23928 0.40179 0.49241 0.0
H372 H 0.20768 0.34049 0.415 0.0
H373 H 0.19243 0.43994 0.49432 0.0
H374 H 0.16714 0.40981 0.51373 0.0
H375 H 0.2053 0.41591 0.52615 0.0
H376 H 0.15999 0.33338 0.39233 0.0
H377 H 0.13429 0.33329 0.42273 0.0
H378 H 0.14333 0.36583 0.39502 0.0
H379 H 0.07555 0.37517 0.48504 0.0
H380 H 0.1161 0.45611 0.43139 0.0
H381 H 0.13984 0.33738 0.48866 0.0
H382 H 0.1023 0.32712 0.47435 0.0
H383 H 0.11162 0.34383 0.51302 0.0
H384 H 0.18426 0.44955 0.43698 0.0
H385 H 0.15902 0.45817 0.40452 0.0
H386 H 0.17392 0.42427 0.40406 0.0
C387 C 0.6326 0.19536 0.37804 0.0
C388 C 0.64245 0.19297 0.34702 0.0
C389 C 0.61345 0.17098 0.39298 0.0
C390 C 0.604 0.14342 0.37662 0.0
C391 C 0.61433 0.14058 0.34567 0.0
C392 C 0.63327 0.1654 0.33119 0.0
C393 C 0.60292 0.17489 0.42604 0.0
C394 C 0.60492 0.11152 0.32754 0.0
C395 C 0.57089 0.07353 0.42899 0.0
C396 C 0.54109 0.07281 0.42303 0.0
C397 C 0.59163 0.09578 0.41328 0.0
C398 C 0.58239 0.11805 0.39134 0.0
C399 C 0.55237 0.11682 0.38436 0.0
C400 C 0.53212 0.09413 0.40009 0.0
C401 C 0.62344 0.09606 0.42102 0.0
C402 C 0.54161 0.14027 0.36129 0.0
H403 H 0.63988 0.21635 0.39071 0.0
H404 H 0.64036 0.1634 0.30703 0.0
H405 H 0.57901 0.17262 0.42406 0.0
H406 H 0.60788 0.1567 0.44383 0.0
H407 H 0.61293 0.19742 0.43595 0.0
H408 H 0.61626 0.11232 0.30462 0.0
H409 H 0.60918 0.09174 0.34341 0.0
H410 H 0.58123 0.10746 0.32122 0.0
H411 H 0.5781 0.05718 0.44663 0.0
H412 H 0.5092 0.09397 0.39538 0.0
H413 H 0.63363 0.11679 0.43429 0.0
H414 H 0.6347 0.09696 0.39807 0.0
H415 H 0.62702 0.07568 0.43637 0.0
H416 H 0.54872 0.16323 0.37135 0.0
H417 H 0.5176 0.13538 0.35737 0.0
H418 H 0.5511 0.14119 0.33721 0.0
C419 C 0.83569 0.69896 0.399 0.0
C420 C 0.82638 0.6925 0.36642 0.0
C421 C 0.8548 0.68287 0.41694 0.0
C422 C 0.86465 0.65958 0.40195 0.0
C423 C 0.85564 0.65337 0.36888 0.0
C424 C 0.8367 0.66991 0.35155 0.0
C425 C 0.8646 0.69152 0.45158 0.0
C426 C 0.86564 0.62882 0.3519 0.0
C427 C 0.93018 0.62758 0.43582 0.0
C428 C 0.91675 0.59921 0.44961 0.0
C429 C 0.91356 0.64816 0.42135 0.0
C430 C 0.8829 0.64024 0.42095 0.0
C431 C 0.86942 0.61253 0.4368 0.0
C432 C 0.88646 0.59227 0.45068 0.0
C433 C 0.92868 0.67799 0.40569 0.0
C434 C 0.83688 0.60384 0.43825 0.0
H435 H 0.82823 0.71683 0.41043 0.0
H436 H 0.82943 0.66469 0.32644 0.0
H437 H 0.87202 0.6729 0.46668 0.0
H438 H 0.88298 0.71146 0.45084 0.0
H439 H 0.84693 0.69843 0.46382 0.0
H440 H 0.85783 0.62783 0.32567 0.0
H441 H 0.88968 0.63288 0.35354 0.0
H442 H 0.85759 0.60624 0.36431 0.0
H443 H 0.95361 0.63328 0.43537 0.0
H444 H 0.87593 0.57075 0.46208 0.0
H445 H 0.92169 0.69725 0.41629 0.0
H446 H 0.92246 0.67878 0.37904 0.0
H447 H 0.95267 0.68135 0.40914 0.0
H448 H 0.82842 0.62304 0.44697 0.0
H449 H 0.83002 0.58334 0.45469 0.0
H450 H 0.82676 0.59905 0.4133 0.0
C451 C 0.35588 0.82872 0.39436 0.0
C452 C 0.36723 0.81629 0.36888 0.0
C453 C 0.37315 0.8519 0.41295 0.0
C454 C 0.40255 0.86281 0.40604 0.0
C455 C 0.4141 0.85038 0.38032 0.0
C456 C 0.39633 0.82736 0.36207 0.0
C457 C 0.35999 0.86463 0.44006 0.0
C458 C 0.44542 0.86107 0.37238 0.0
C459 C 0.44606 0.9392 0.43475 0.0
C460 C 0.463 0.9298 0.46146 0.0
C461 C 0.4255 0.91776 0.4171 0.0
C462 C 0.42175 0.88625 0.42649 0.0
C463 C 0.43785 0.87687 0.45437 0.0
C464 C 0.45822 0.89869 0.47144 0.0
C465 C 0.40861 0.92869 0.38764 0.0
C466 C 0.4344 0.84361 0.4655 0.0
H467 H 0.33332 0.82058 0.39952 0.0
H468 H 0.4054 0.81763 0.34272 0.0
H469 H 0.37161 0.86043 0.46391 0.0
H470 H 0.36246 0.88971 0.43601 0.0
H471 H 0.3366 0.85431 0.44176 0.0
H472 H 0.45087 0.84969 0.35107 0.0
H473 H 0.45016 0.88611 0.36696 0.0
H474 H 0.45985 0.85638 0.39388 0.0
H475 H 0.44956 0.96316 0.42691 0.0
H476 H 0.4709 0.8912 0.49234 0.0
H477 H 0.38508 0.91925 0.38924 0.0
H478 H 0.41528 0.92033 0.36508 0.0
H479 H 0.41215 0.95399 0.3852 0.0
H480 H 0.41128 0.8335 0.46915 0.0
H481 H 0.44736 0.84028 0.48871 0.0
H482 H 0.44137 0.83081 0.44632 0.0
C483 C 0.19509 0.60549 0.65542 0.0
C484 C 0.21437 0.62897 0.63928 0.0
C485 C 0.16887 0.59085 0.63961 0.0
C486 C 0.16124 0.60033 0.60709 0.0
C487 C 0.17946 0.62545 0.59156 0.0
C488 C 0.20588 0.63915 0.60757 0.0
C489 C 0.1503 0.5639 0.65697 0.0
C490 C 0.17197 0.6367 0.55711 0.0
C491 C 0.11991 0.54111 0.54948 0.0
C492 C 0.09138 0.54575 0.54907 0.0
C493 C 0.14244 0.55817 0.56886 0.0
C494 C 0.13673 0.58139 0.58768 0.0
C495 C 0.1081 0.58665 0.58711 0.0
C496 C 0.08564 0.56849 0.5681 0.0
C497 C 0.17246 0.55128 0.56909 0.0
C498 C 0.10131 0.61173 0.60616 0.0
H499 H 0.20085 0.59783 0.68015 0.0
H500 H 0.22046 0.65688 0.59438 0.0
H501 H 0.12724 0.56597 0.65494 0.0
H502 H 0.15155 0.54266 0.64513 0.0
H503 H 0.15737 0.56153 0.68331 0.0
H504 H 0.18569 0.65927 0.55056 0.0
H505 H 0.17522 0.62011 0.53949 0.0
H506 H 0.14886 0.63859 0.55415 0.0
H507 H 0.12478 0.52381 0.53478 0.0
H508 H 0.06372 0.57239 0.56777 0.0
H509 H 0.1807 0.54677 0.59461 0.0
H510 H 0.18763 0.5713 0.5587 0.0
H511 H 0.17287 0.53121 0.55469 0.0
H512 H 0.10759 0.60831 0.63254 0.0
H513 H 0.07795 0.61273 0.60345 0.0
H514 H 0.1142 0.63408 0.59761 0.0
C515 C 0.36577 0.18194 0.65273 0.0
C516 C 0.37029 0.21117 0.63711 0.0
C517 C 0.37838 0.15886 0.6418 0.0
C518 C 0.39561 0.16503 0.61435 0.0
C519 C 0.40018 0.19454 0.59851 0.0
C520 C 0.38759 0.21713 0.61016 0.0
C521 C 0.37376 0.12811 0.66002 0.0
C522 C 0.41928 0.20328 0.57004 0.0
C523 C 0.4547 0.1241 0.59626 0.0
C524 C 0.4404 0.10336 0.57329 0.0
C525 C 0.43975 0.14262 0.61164 0.0
C526 C 0.40996 0.14131 0.60288 0.0
C527 C 0.3951 0.11942 0.58062 0.0
C528 C 0.41049 0.10039 0.56643 0.0
C529 C 0.4562 0.16435 0.63646 0.0
C530 C 0.3631 0.11594 0.57117 0.0
H531 H 0.35234 0.17707 0.67351 0.0
H532 H 0.39198 0.23984 0.59844 0.0
H533 H 0.36049 0.11065 0.64412 0.0
H534 H 0.39489 0.12131 0.66629 0.0
H535 H 0.36253 0.12798 0.68291 0.0
H536 H 0.41 0.21874 0.55195 0.0
H537 H 0.4408 0.2161 0.57915 0.0
H538 H 0.4226 0.18333 0.55732 0.0
H539 H 0.47779 0.1261 0.60198 0.0
H540 H 0.39936 0.08423 0.54877 0.0
H541 H 0.443 0.16477 0.65767 0.0
H542 H 0.46111 0.18777 0.625 0.0
H543 H 0.47704 0.15808 0.64558 0.0
H544 H 0.35094 0.09708 0.58663 0.0
H545 H 0.35826 0.10962 0.54526 0.0
H546 H 0.35484 0.13688 0.57451 0.0
C547 C 0.86238 0.37452 0.66799 0.0
C548 C 0.83529 0.38267 0.66122 0.0
C549 C 0.88742 0.39121 0.65382 0.0
C550 C 0.88539 0.41655 0.632 0.0
C551 C 0.85816 0.42485 0.62488 0.0
C552 C 0.83351 0.40793 0.63966 0.0
C553 C 0.91604 0.38168 0.66213 0.0
C554 C 0.85503 0.45163 0.6016 0.0
C555 C 0.9516 0.47854 0.61427 0.0
C556 C 0.95823 0.47101 0.58339 0.0
C557 C 0.92863 0.46041 0.63092 0.0
C558 C 0.91165 0.43425 0.61626 0.0
C559 C 0.91895 0.42583 0.58574 0.0
C560 C 0.94222 0.44415 0.56981 0.0
C561 C 0.92181 0.46995 0.66364 0.0
C562 C 0.90131 0.39825 0.56912 0.0
H563 H 0.86401 0.35477 0.68413 0.0
H564 H 0.81287 0.41477 0.63459 0.0
H565 H 0.92464 0.37548 0.6396 0.0
H566 H 0.93219 0.40102 0.67231 0.0
H567 H 0.91413 0.36191 0.68018 0.0
H568 H 0.8323 0.45492 0.59833 0.0
H569 H 0.86898 0.47285 0.61083 0.0
H570 H 0.86242 0.44823 0.57728 0.0
H571 H 0.96381 0.49918 0.62503 0.0
H572 H 0.94696 0.43811 0.54591 0.0
H573 H 0.92023 0.4505 0.68201 0.0
H574 H 0.90046 0.47681 0.66133 0.0
H575 H 0.93844 0.48937 0.67296 0.0
H576 H 0.89957 0.37768 0.58597 0.0
H577 H 0.91083 0.39375 0.54639 0.0
H578 H 0.87897 0.40179 0.5627 0.0
C579 C 0.64886 0.80217 0.609 0.0
C580 C 0.67602 0.80047 0.59846 0.0
C581 C 0.63349 0.82367 0.59462 0.0
C582 C 0.64523 0.84344 0.5685 0.0
C583 C 0.67134 0.84001 0.55577 0.0
C584 C 0.68661 0.81876 0.57116 0.0
C585 C 0.60563 0.82654 0.60882 0.0
C586 C 0.68445 0.85986 0.52735 0.0
C587 C 0.59272 0.89045 0.52907 0.0
C588 C 0.60231 0.91811 0.54451 0.0
C589 C 0.60775 0.86656 0.53465 0.0
C590 C 0.63195 0.86987 0.55763 0.0
C591 C 0.64214 0.898 0.57268 0.0
C592 C 0.62746 0.92193 0.56551 0.0
C593 C 0.59684 0.83763 0.51668 0.0
C594 C 0.66785 0.90242 0.59741 0.0
H595 H 0.6401 0.78744 0.62941 0.0
H596 H 0.70758 0.81771 0.56274 0.0
H597 H 0.60811 0.84956 0.61855 0.0
H598 H 0.58775 0.82406 0.58941 0.0
H599 H 0.59929 0.80916 0.62892 0.0
H600 H 0.69349 0.84603 0.5108 0.0
H601 H 0.66865 0.87135 0.51286 0.0
H602 H 0.70271 0.87761 0.53681 0.0
H603 H 0.57327 0.88716 0.51288 0.0
H604 H 0.63506 0.94325 0.57751 0.0
H605 H 0.57881 0.8231 0.52975 0.0
H606 H 0.614 0.82436 0.51498 0.0
H607 H 0.58817 0.84294 0.4915 0.0
H608 H 0.66372 0.88516 0.61808 0.0
H609 H 0.67261 0.92551 0.60741 0.0
H610 H 0.68738 0.89904 0.58588 0.0
C611 C 0.38771 0.232 0.42459 0.0
C612 C 0.37277 0.24253 0.44827 0.0
C613 C 0.39583 0.20362 0.42911 0.0
C614 C 0.38878 0.18535 0.45798 0.0
C615 C 0.37249 0.19526 0.48125 0.0
C616 C 0.36473 0.22382 0.47614 0.0
C617 C 0.4129 0.19371 0.40354 0.0
C618 C 0.36342 0.17602 0.5117 0.0
C619 C 0.39845 0.10323 0.4595 0.0
C620 C 0.42683 0.10595 0.47353 0.0
C621 C 0.38535 0.12873 0.45508 0.0
C622 C 0.40099 0.15748 0.46509 0.0
C623 C 0.42918 0.16005 0.48053 0.0
C624 C 0.44175 0.1343 0.48444 0.0
C625 C 0.35524 0.12514 0.43867 0.0
C626 C 0.44695 0.19023 0.49139 0.0
H627 H 0.39402 0.2465 0.40306 0.0
H628 H 0.35262 0.23169 0.49414 0.0
H629 H 0.43535 0.19378 0.41373 0.0
H630 H 0.40307 0.17006 0.39676 0.0
H631 H 0.41398 0.20896 0.38102 0.0
H632 H 0.35781 0.18981 0.53091 0.0
H633 H 0.34398 0.15829 0.50536 0.0
H634 H 0.38072 0.16419 0.52196 0.0
H635 H 0.3867 0.08135 0.45119 0.0
H636 H 0.46368 0.13671 0.49533 0.0
H637 H 0.35574 0.13993 0.41586 0.0
H638 H 0.34063 0.13264 0.45497 0.0
H639 H 0.34593 0.10119 0.43243 0.0
H640 H 0.45852 0.20247 0.47033 0.0
H641 H 0.46345 0.18692 0.51133 0.0
H642 H 0.43323 0.20505 0.49999 0.0
C643 C 0.83358 0.40018 0.33916 0.0
C644 C 0.81624 0.3734 0.35212 0.0
C645 C 0.85693 0.41688 0.358 0.0
C646 C 0.86324 0.40654 0.39059 0.0
C647 C 0.84617 0.37922 0.40361 0.0
C648 C 0.82284 0.36306 0.38428 0.0
C649 C 0.87437 0.44607 0.34329 0.0
C650 C 0.85227 0.36732 0.43816 0.0
C651 C 0.93721 0.44044 0.43166 0.0
C652 C 0.93033 0.46276 0.45041 0.0
C653 C 0.91555 0.42156 0.41247 0.0
C654 C 0.88645 0.42538 0.41169 0.0
C655 C 0.87942 0.44776 0.43071 0.0
C656 C 0.90133 0.46594 0.44995 0.0
C657 C 0.92382 0.39767 0.39285 0.0
C658 C 0.84877 0.45286 0.43039 0.0
H659 H 0.82848 0.40851 0.31447 0.0
H660 H 0.80983 0.34214 0.39431 0.0
H661 H 0.87184 0.46569 0.3572 0.0
H662 H 0.89776 0.44531 0.34514 0.0
H663 H 0.86757 0.45026 0.31715 0.0
H664 H 0.83808 0.34485 0.444 0.0
H665 H 0.87524 0.36498 0.44184 0.0
H666 H 0.84893 0.38381 0.45584 0.0
H667 H 0.9595 0.43773 0.43195 0.0
H668 H 0.89569 0.48312 0.46426 0.0
H669 H 0.91909 0.40251 0.36635 0.0
H670 H 0.91066 0.37484 0.39937 0.0
H671 H 0.94716 0.3968 0.39701 0.0
H672 H 0.8412 0.45913 0.40509 0.0
H673 H 0.8469 0.4712 0.44661 0.0
H674 H 0.83396 0.4315 0.43839 0.0
C675 C 0.66725 0.82027 0.39819 0.0
C676 C 0.67613 0.82968 0.36659 0.0
C677 C 0.65171 0.83734 0.41504 0.0
C678 C 0.64448 0.86426 0.39977 0.0
C679 C 0.65356 0.87397 0.36798 0.0
C680 C 0.66931 0.85665 0.35185 0.0
C681 C 0.64245 0.82603 0.44885 0.0
C682 C 0.64602 0.90229 0.35062 0.0
C683 C 0.57841 0.89043 0.42592 0.0
C684 C 0.591 0.91543 0.44472 0.0
C685 C 0.59555 0.87355 0.41137 0.0
C686 C 0.62612 0.88149 0.41613 0.0
C687 C 0.639 0.90632 0.4357 0.0
C688 C 0.62129 0.92322 0.44949 0.0
C689 C 0.5809 0.8473 0.39073 0.0
C690 C 0.67146 0.91486 0.44219 0.0
H691 H 0.67263 0.79961 0.40987 0.0
H692 H 0.6757 0.86387 0.32727 0.0
H693 H 0.64436 0.84526 0.4651 0.0
H694 H 0.61935 0.81415 0.44711 0.0
H695 H 0.65549 0.80975 0.46034 0.0
H696 H 0.65543 0.90726 0.32634 0.0
H697 H 0.62211 0.89948 0.34703 0.0
H698 H 0.654 0.92229 0.36583 0.0
H699 H 0.555 0.88417 0.42227 0.0
H700 H 0.63111 0.94212 0.46456 0.0
H701 H 0.58673 0.8258 0.40122 0.0
H702 H 0.58858 0.8511 0.36558 0.0
H703 H 0.5569 0.84429 0.38912 0.0
H704 H 0.67994 0.89464 0.45229 0.0
H705 H 0.67799 0.93341 0.45963 0.0
H706 H 0.68187 0.92245 0.41886 0.0
C707 C 0.15773 0.63928 0.3339 0.0
C708 C 0.18525 0.63961 0.34965 0.0
C709 C 0.13274 0.62017 0.34573 0.0
C710 C 0.13526 0.60075 0.37393 0.0
C711 C 0.16293 0.60098 0.39 0.0
C712 C 0.18754 0.62041 0.37771 0.0
C713 C 0.10365 0.62061 0.32793 0.0
C714 C 0.16654 0.58068 0.42023 0.0
C715 C 0.07096 0.56948 0.42541 0.0
C716 C 0.06308 0.53905 0.41628 0.0
C717 C 0.09371 0.59012 0.41098 0.0
C718 C 0.10903 0.58016 0.38679 0.0
C719 C 0.10025 0.54996 0.37625 0.0
C720 C 0.07735 0.5298 0.39103 0.0
C721 C 0.10223 0.62217 0.42277 0.0
C722 C 0.11601 0.53844 0.35052 0.0
H723 H 0.15575 0.65365 0.31191 0.0
H724 H 0.20861 0.62076 0.3903 0.0
H725 H 0.09387 0.59761 0.31913 0.0
H726 H 0.0886 0.62639 0.34492 0.0
H727 H 0.1053 0.63734 0.30662 0.0
H728 H 0.18954 0.58343 0.42973 0.0
H729 H 0.15364 0.58596 0.43985 0.0
H730 H 0.1582 0.55642 0.41466 0.0
H731 H 0.06009 0.57695 0.44482 0.0
H732 H 0.07159 0.50636 0.38383 0.0
H733 H 0.10365 0.63908 0.40168 0.0
H734 H 0.12401 0.6254 0.43583 0.0
H735 H 0.08665 0.62713 0.43965 0.0
H736 H 0.11766 0.55423 0.32846 0.0
H737 H 0.10508 0.51525 0.34309 0.0
H738 H 0.13844 0.53764 0.36017 0.0
C739 C 0.40161 0.82646 0.6624 0.0
C740 C 0.39907 0.80239 0.64132 0.0
C741 C 0.41609 0.85623 0.65333 0.0
C742 C 0.42887 0.86196 0.62279 0.0
C743 C 0.42554 0.83805 0.60097 0.0
C744 C 0.4104 0.80878 0.61031 0.0
C745 C 0.41845 0.88132 0.67685 0.0
C746 C 0.43889 0.84306 0.56816 0.0
C747 C 0.45553 0.93995 0.58122 0.0
C748 C 0.48561 0.94404 0.58827 0.0
C749 C 0.4364 0.91441 0.5943 0.0
C750 C 0.44767 0.89213 0.61434 0.0
C751 C 0.47777 0.89716 0.62322 0.0
C752 C 0.49629 0.92318 0.61042 0.0
C753 C 0.40436 0.91037 0.58498 0.0
C754 C 0.49082 0.87384 0.64413 0.0
H755 H 0.39307 0.82193 0.68642 0.0
H756 H 0.40781 0.7907 0.59333 0.0
H757 H 0.4412 0.88799 0.68693 0.0
H758 H 0.41254 0.90188 0.6639 0.0
H759 H 0.40429 0.87418 0.69759 0.0
H760 H 0.43397 0.82217 0.55386 0.0
H761 H 0.43086 0.86155 0.5534 0.0
H762 H 0.4628 0.85037 0.57185 0.0
H763 H 0.44698 0.956 0.56432 0.0
H764 H 0.51944 0.926 0.61611 0.0
H765 H 0.39145 0.90188 0.60643 0.0
H766 H 0.39816 0.89319 0.56603 0.0
H767 H 0.3985 0.93204 0.57492 0.0
H768 H 0.4791 0.8674 0.6668 0.0
H769 H 0.51417 0.8823 0.65108 0.0
H770 H 0.48861 0.85282 0.63043 0.0
C771 C 0.19095 0.35032 0.65908 0.0
C772 C 0.20939 0.33766 0.6413 0.0
C773 C 0.16774 0.36176 0.6432 0.0
C774 C 0.16331 0.36125 0.60863 0.0
C775 C 0.18078 0.34671 0.59085 0.0
C776 C 0.20338 0.33483 0.60748 0.0
C777 C 0.14892 0.3759 0.66325 0.0
C778 C 0.17697 0.34453 0.55412 0.0
C779 C 0.09695 0.38566 0.5646 0.0
C780 C 0.10778 0.41684 0.55784 0.0
C781 C 0.1147 0.36708 0.58113 0.0
C782 C 0.14381 0.38004 0.59106 0.0
C783 C 0.15486 0.41139 0.58387 0.0
C784 C 0.13675 0.42933 0.56756 0.0
C785 C 0.10248 0.33361 0.58781 0.0
C786 C 0.1859 0.42617 0.59344 0.0
H787 H 0.19522 0.35207 0.68532 0.0
H788 H 0.2175 0.32502 0.59353 0.0
H789 H 0.15434 0.4011 0.65939 0.0
H790 H 0.12569 0.36819 0.65535 0.0
H791 H 0.15202 0.3701 0.68987 0.0
H792 H 0.16758 0.32049 0.54837 0.0
H793 H 0.16262 0.35911 0.54215 0.0
H794 H 0.19836 0.35081 0.54318 0.0
H795 H 0.07469 0.37577 0.55698 0.0
H796 H 0.14547 0.45338 0.56249 0.0
H797 H 0.10482 0.32774 0.61446 0.0
H798 H 0.11495 0.31984 0.57521 0.0
H799 H 0.07924 0.3271 0.57931 0.0
H800 H 0.18873 0.42774 0.62043 0.0
H801 H 0.19221 0.44953 0.58199 0.0
H802 H 0.20102 0.41219 0.58627 0.0
C803 C 0.62275 0.20534 0.63481 0.0
C804 C 0.65295 0.2084 0.64017 0.0
C805 C 0.60578 0.18078 0.61798 0.0
C806 C 0.61928 0.15898 0.60527 0.0
C807 C 0.64971 0.16202 0.61014 0.0
C808 C 0.66607 0.18636 0.62783 0.0
C809 C 0.57333 0.17822 0.6137 0.0
C810 C 0.66503 0.13964 0.59645 0.0
C811 C 0.57098 0.08232 0.58434 0.0
C812 C 0.56312 0.0877 0.55119 0.0
C813 C 0.58977 0.10508 0.60219 0.0
C814 C 0.60151 0.1335 0.58622 0.0
C815 C 0.59488 0.13822 0.55224 0.0
C816 C 0.57545 0.11546 0.53529 0.0
C817 C 0.59578 0.09933 0.63848 0.0
C818 C 0.60754 0.16772 0.53396 0.0
H819 H 0.61223 0.22233 0.64351 0.0
H820 H 0.6892 0.18784 0.63226 0.0
H821 H 0.56658 0.18038 0.58729 0.0
H822 H 0.56204 0.15543 0.62314 0.0
H823 H 0.56597 0.19601 0.6266 0.0
H824 H 0.6889 0.14553 0.60173 0.0
H825 H 0.65677 0.11631 0.60694 0.0
H826 H 0.66044 0.13905 0.56952 0.0
H827 H 0.56118 0.061 0.59674 0.0
H828 H 0.56946 0.11958 0.50958 0.0
H829 H 0.58631 0.11503 0.65221 0.0
H830 H 0.61947 0.10413 0.64485 0.0
H831 H 0.5865 0.07547 0.64682 0.0
H832 H 0.59896 0.18671 0.54293 0.0
H833 H 0.6023 0.16671 0.50712 0.0
H834 H 0.63146 0.17323 0.53855 0.0
C835 C 0.82622 0.66315 0.57106 0.0
C836 C 0.83353 0.67256 0.60311 0.0
C837 C 0.844 0.64773 0.55547 0.0
C838 C 0.8693 0.64123 0.57271 0.0
C839 C 0.87652 0.65042 0.60523 0.0
C840 C 0.85864 0.66616 0.61992 0.0
C841 C 0.835 0.63795 0.52102 0.0
C842 C 0.90288 0.64314 0.62478 0.0
C843 C 0.90475 0.57716 0.55296 0.0
C844 C 0.93121 0.59367 0.54227 0.0
C845 C 0.88337 0.59229 0.56116 0.0
C846 C 0.88844 0.62451 0.55756 0.0
C847 C 0.91393 0.64094 0.54357 0.0
C848 C 0.93543 0.62534 0.53677 0.0
C849 C 0.8562 0.57403 0.5755 0.0
C850 C 0.919 0.67508 0.5372 0.0
H851 H 0.80672 0.66805 0.55806 0.0
H852 H 0.86397 0.6729 0.64495 0.0
H853 H 0.85335 0.63385 0.50778 0.0
H854 H 0.81838 0.61647 0.52203 0.0
H855 H 0.82492 0.65535 0.50671 0.0
H856 H 0.90474 0.65091 0.65021 0.0
H857 H 0.90189 0.61815 0.62591 0.0
H858 H 0.92283 0.65427 0.61259 0.0
H859 H 0.90145 0.55254 0.55667 0.0
H860 H 0.95563 0.63789 0.52746 0.0
H861 H 0.83678 0.57939 0.56135 0.0
H862 H 0.85534 0.58039 0.60109 0.0
H863 H 0.85512 0.54904 0.57552 0.0
H864 H 0.89915 0.68175 0.5254 0.0
H865 H 0.93729 0.68359 0.52126 0.0
H866 H 0.92402 0.68648 0.5608 0.0
C867 C 0.38391 0.45178 0.28107 0.0
C868 C 0.38502 0.42197 0.29308 0.0
C869 C 0.3908 0.46162 0.24886 0.0
C870 C 0.39966 0.44143 0.22844 0.0
C871 C 0.40031 0.41119 0.24016 0.0
C872 C 0.39266 0.40175 0.27212 0.0
C873 C 0.38953 0.49393 0.23714 0.0
C874 C 0.40998 0.38904 0.21928 0.0
C875 C 0.4028 0.45405 0.13613 0.0
C876 C 0.43243 0.46599 0.13326 0.0
C877 C 0.39142 0.44745 0.1671 0.0
C878 C 0.41028 0.45226 0.19567 0.0
C879 C 0.43999 0.46534 0.19284 0.0
C880 C 0.45062 0.47232 0.1617 0.0
C881 C 0.3594 0.4347 0.16929 0.0
C882 C 0.46087 0.47067 0.22266 0.0
H883 H 0.37832 0.46774 0.29704 0.0
H884 H 0.39284 0.37844 0.28076 0.0
H885 H 0.4118 0.50804 0.23785 0.0
H886 H 0.38038 0.49476 0.21145 0.0
H887 H 0.37635 0.50434 0.25276 0.0
H888 H 0.40877 0.36616 0.23185 0.0
H889 H 0.39636 0.38639 0.19599 0.0
H890 H 0.4327 0.39811 0.2129 0.0
H891 H 0.38857 0.4496 0.11421 0.0
H892 H 0.47353 0.48174 0.15969 0.0
H893 H 0.35016 0.44805 0.18614 0.0
H894 H 0.35598 0.41082 0.17954 0.0
H895 H 0.34727 0.43498 0.14501 0.0
H896 H 0.45332 0.48527 0.23958 0.0
H897 H 0.48319 0.48175 0.21623 0.0
H898 H 0.4617 0.44856 0.23613 0.0
C899 C 0.39874 0.64332 0.83763 0.0
C900 C 0.39907 0.62891 0.80827 0.0
C901 C 0.41401 0.63485 0.86643 0.0
C902 C 0.43003 0.61146 0.86584 0.0
C903 C 0.42956 0.59613 0.83658 0.0
C904 C 0.41407 0.60496 0.80829 0.0
C905 C 0.41371 0.65153 0.8972 0.0
C906 C 0.44615 0.57093 0.83483 0.0
C907 C 0.49679 0.60853 0.9228 0.0
C908 C 0.48678 0.58328 0.944 0.0
C909 C 0.47816 0.61892 0.89834 0.0
C910 C 0.44866 0.60392 0.89503 0.0
C911 C 0.43794 0.57977 0.91771 0.0
C912 C 0.45711 0.5697 0.94184 0.0
C913 C 0.49056 0.64472 0.8747 0.0
C914 C 0.4066 0.56336 0.91532 0.0
H915 H 0.38734 0.66192 0.83786 0.0
H916 H 0.41395 0.59322 0.78595 0.0
H917 H 0.40781 0.63499 0.91811 0.0
H918 H 0.43573 0.66502 0.90342 0.0
H919 H 0.39825 0.66724 0.89449 0.0
H920 H 0.44275 0.56057 0.81057 0.0
H921 H 0.4697 0.58008 0.83966 0.0
H922 H 0.43946 0.5527 0.85395 0.0
H923 H 0.51958 0.61934 0.92419 0.0
H924 H 0.44901 0.55024 0.95808 0.0
H925 H 0.47698 0.66226 0.87243 0.0
H926 H 0.49047 0.6358 0.85003 0.0
H927 H 0.51315 0.65582 0.88235 0.0
H928 H 0.39203 0.57994 0.91193 0.0
H929 H 0.40072 0.54832 0.93742 0.0
H930 H 0.4026 0.54909 0.89365 0.0
C931 C 0.41074 0.36029 0.83092 0.0
C932 C 0.38335 0.36444 0.8181 0.0
C933 C 0.42541 0.37727 0.85695 0.0
C934 C 0.41232 0.39881 0.87075 0.0
C935 C 0.38381 0.40148 0.85958 0.0
C936 C 0.36969 0.38434 0.83332 0.0
C937 C 0.45575 0.37362 0.86813 0.0
C938 C 0.36897 0.42397 0.87379 0.0
C939 C 0.45116 0.43572 0.9477 0.0
C940 C 0.46848 0.46221 0.93412 0.0
C941 C 0.43192 0.41521 0.92758 0.0
C942 C 0.43007 0.4214 0.89321 0.0
C943 C 0.44665 0.44872 0.87967 0.0
C944 C 0.46552 0.46873 0.90023 0.0
C945 C 0.41433 0.3865 0.94295 0.0
C946 C 0.44532 0.45639 0.8432 0.0
H947 H 0.4212 0.3445 0.81978 0.0
H948 H 0.34861 0.38786 0.82355 0.0
H949 H 0.47153 0.39443 0.86052 0.0
H950 H 0.45809 0.37098 0.89523 0.0
H951 H 0.46156 0.35363 0.85759 0.0
H952 H 0.34542 0.41983 0.86636 0.0
H953 H 0.37174 0.42283 0.90093 0.0
H954 H 0.37901 0.44749 0.86517 0.0
H955 H 0.45324 0.43055 0.97386 0.0
H956 H 0.47852 0.4893 0.88947 0.0
H957 H 0.42217 0.36639 0.93562 0.0
H958 H 0.39119 0.38363 0.93405 0.0
H959 H 0.41585 0.38659 0.97013 0.0
H960 H 0.45329 0.43904 0.83028 0.0
H961 H 0.45857 0.47924 0.83678 0.0
H962 H 0.42258 0.45589 0.83387 0.0
C963 C 0.66959 0.37928 0.83834 0.0
C964 C 0.67223 0.38678 0.80471 0.0
C965 C 0.65605 0.39606 0.85793 0.0
C966 C 0.6454 0.42156 0.8439 0.0
C967 C 0.64926 0.43029 0.81043 0.0
C968 C 0.66232 0.41265 0.79119 0.0
C969 C 0.65219 0.38578 0.89342 0.0
C970 C 0.63871 0.45768 0.79465 0.0
C971 C 0.58089 0.44087 0.88191 0.0
C972 C 0.59409 0.46455 0.90216 0.0
C973 C 0.59738 0.42679 0.86294 0.0
C974 C 0.62784 0.43716 0.86348 0.0
C975 C 0.64127 0.4616 0.88335 0.0
C976 C 0.62425 0.47472 0.90289 0.0
C977 C 0.58215 0.40052 0.8426 0.0
C978 C 0.67354 0.47399 0.88381 0.0
H979 H 0.67789 0.36 0.84946 0.0
H980 H 0.66396 0.41872 0.76529 0.0
H981 H 0.66121 0.40493 0.90948 0.0
H982 H 0.62873 0.37863 0.89749 0.0
H983 H 0.66289 0.36637 0.90104 0.0
H984 H 0.64656 0.46375 0.76973 0.0
H985 H 0.61466 0.45281 0.79271 0.0
H986 H 0.64599 0.47775 0.80995 0.0
H987 H 0.55756 0.43292 0.88133 0.0
H988 H 0.63444 0.49334 0.91817 0.0
H989 H 0.59093 0.37983 0.85011 0.0
H990 H 0.5862 0.406 0.81637 0.0
H991 H 0.55834 0.39508 0.84509 0.0
H992 H 0.6804 0.49411 0.89916 0.0
H993 H 0.68012 0.48071 0.85852 0.0
H994 H 0.68535 0.456 0.8934 0.0
C995 C 0.6804 0.6524 0.80108 0.0
C996 C 0.69101 0.63985 0.77533 0.0
C997 C 0.66349 0.63374 0.82399 0.0
C998 C 0.65759 0.60165 0.82146 0.0
C999 C 0.66844 0.58875 0.79557 0.0
C1000 C 0.6848 0.60815 0.77243 0.0
C1001 C 0.65191 0.64845 0.85091 0.0
C1002 C 0.66311 0.55461 0.79264 0.0
C1003 C 0.63677 0.56417 0.90347 0.0
C1004 C 0.60651 0.55971 0.89974 0.0
C1005 C 0.6538 0.5748 0.87693 0.0
C1006 C 0.64015 0.58209 0.84639 0.0
C1007 C 0.60951 0.57537 0.84192 0.0
C1008 C 0.59299 0.56382 0.86867 0.0
C1009 C 0.68639 0.58052 0.88235 0.0
C1010 C 0.59411 0.5831 0.80987 0.0
H1011 H 0.68507 0.67698 0.80298 0.0
H1012 H 0.69319 0.59859 0.75245 0.0
H1013 H 0.62796 0.64113 0.85059 0.0
H1014 H 0.6609 0.64101 0.87513 0.0
H1015 H 0.65749 0.67378 0.84851 0.0
H1016 H 0.67311 0.54825 0.77111 0.0
H1017 H 0.67208 0.54381 0.81511 0.0
H1018 H 0.63948 0.54495 0.79051 0.0
H1019 H 0.64717 0.56032 0.92743 0.0
H1020 H 0.56953 0.5602 0.86579 0.0
H1021 H 0.69502 0.60533 0.88463 0.0
H1022 H 0.69625 0.57328 0.86122 0.0
H1023 H 0.69333 0.56828 0.90499 0.0
H1024 H 0.59608 0.60821 0.80691 0.0
H1025 H 0.57069 0.5722 0.80879 0.0
H1026 H 0.60415 0.57589 0.78889 0.0
C1027 C 0.6392 0.67977 0.17254 0.0
C1028 C 0.66031 0.66893 0.1933 0.0
C1029 C 0.6207 0.66067 0.15057 0.0
C1030 C 0.62365 0.63006 0.1487 0.0
C1031 C 0.64553 0.61923 0.16867 0.0
C1032 C 0.66334 0.63863 0.19091 0.0
C1033 C 0.59739 0.67302 0.13007 0.0
C1034 C 0.64959 0.58682 0.16723 0.0
C1035 C 0.55705 0.57106 0.12293 0.0
C1036 C 0.56103 0.56785 0.08981 0.0
C1037 C 0.57708 0.59139 0.14207 0.0
C1038 C 0.60223 0.60864 0.1281 0.0
C1039 C 0.60667 0.60533 0.09477 0.0
C1040 C 0.58583 0.58519 0.07588 0.0
C1041 C 0.57116 0.59454 0.17729 0.0
C1042 C 0.63351 0.62288 0.07919 0.0
H1043 H 0.637 0.70327 0.17345 0.0
H1044 H 0.67922 0.62972 0.20698 0.0
H1045 H 0.599 0.66961 0.10376 0.0
H1046 H 0.57571 0.66031 0.13692 0.0
H1047 H 0.59875 0.6977 0.13328 0.0
H1048 H 0.6694 0.58285 0.18177 0.0
H1049 H 0.63056 0.57076 0.17686 0.0
H1050 H 0.65105 0.58128 0.14148 0.0
H1051 H 0.53794 0.5579 0.13397 0.0
H1052 H 0.58914 0.58272 0.05038 0.0
H1053 H 0.57083 0.61868 0.18144 0.0
H1054 H 0.58873 0.58803 0.19392 0.0
H1055 H 0.55016 0.58008 0.18416 0.0
H1056 H 0.63471 0.64776 0.08034 0.0
H1057 H 0.63396 0.61745 0.05318 0.0
H1058 H 0.65314 0.61759 0.09298 0.0
C1059 C 0.34368 0.60703 0.21362 0.0
C1060 C 0.35455 0.63838 0.21679 0.0
C1061 C 0.35801 0.58944 0.19589 0.0
C1062 C 0.38371 0.60358 0.1807 0.0
C1063 C 0.39473 0.63524 0.18375 0.0
C1064 C 0.3801 0.6522 0.20184 0.0
C1065 C 0.34574 0.55573 0.19353 0.0
C1066 C 0.4219 0.65127 0.16768 0.0
C1067 C 0.43887 0.55838 0.1591 0.0
C1068 C 0.43303 0.55604 0.12519 0.0
C1069 C 0.42221 0.57267 0.17769 0.0
C1070 C 0.3994 0.58535 0.16192 0.0
C1071 C 0.39276 0.5821 0.12786 0.0
C1072 C 0.40951 0.56723 0.10994 0.0
C1073 C 0.4297 0.57513 0.21401 0.0
C1074 C 0.36875 0.59546 0.11008 0.0
H1075 H 0.32408 0.59615 0.22536 0.0
H1076 H 0.38839 0.67649 0.20377 0.0
H1077 H 0.33989 0.55031 0.16755 0.0
H1078 H 0.36237 0.54257 0.2027 0.0
H1079 H 0.3262 0.54795 0.20776 0.0
H1080 H 0.42736 0.67609 0.17191 0.0
H1081 H 0.44049 0.64101 0.17729 0.0
H1082 H 0.41918 0.64824 0.14089 0.0
H1083 H 0.45677 0.54937 0.17112 0.0
H1084 H 0.40493 0.56549 0.08373 0.0
H1085 H 0.43857 0.59934 0.21943 0.0
H1086 H 0.446 0.56141 0.22308 0.0
H1087 H 0.40996 0.56744 0.22785 0.0
H1088 H 0.34817 0.58734 0.12227 0.0
H1089 H 0.36521 0.58944 0.084 0.0
H1090 H 0.37417 0.6207 0.11102 0.0
C1091 C 0.64331 0.37497 0.15131 0.0
C1092 C 0.63795 0.37065 0.18461 0.0
C1093 C 0.62502 0.38851 0.12905 0.0
C1094 C 0.60127 0.39867 0.14059 0.0
C1095 C 0.59618 0.39487 0.1744 0.0
C1096 C 0.61435 0.38049 0.19593 0.0
C1097 C 0.63081 0.39149 0.09314 0.0
C1098 C 0.57159 0.40608 0.18785 0.0
C1099 C 0.56947 0.459 0.08939 0.0
C1100 C 0.54332 0.4418 0.07616 0.0
C1101 C 0.58858 0.44525 0.11021 0.0
C1102 C 0.58178 0.41336 0.11738 0.0
C1103 C 0.5559 0.39569 0.10317 0.0
C1104 C 0.5368 0.41018 0.08307 0.0
C1105 C 0.61557 0.46505 0.1254 0.0
C1106 C 0.54818 0.36154 0.10961 0.0
H1107 H 0.66142 0.36703 0.14258 0.0
H1108 H 0.6103 0.37715 0.22174 0.0
H1109 H 0.61153 0.37941 0.07863 0.0
H1110 H 0.63468 0.41585 0.08446 0.0
H1111 H 0.64987 0.38198 0.08806 0.0
H1112 H 0.57123 0.40241 0.2149 0.0
H1113 H 0.57347 0.4308 0.18145 0.0
H1114 H 0.55055 0.39407 0.17661 0.0
H1115 H 0.57454 0.48352 0.08452 0.0
H1116 H 0.51667 0.39676 0.07287 0.0
H1117 H 0.63511 0.45697 0.11934 0.0
H1118 H 0.61493 0.46332 0.15248 0.0
H1119 H 0.61792 0.48944 0.11699 0.0
H1120 H 0.5664 0.35103 0.10384 0.0
H1121 H 0.52835 0.35084 0.09494 0.0
H1122 H 0.54453 0.35617 0.13595 0.0
loop_
_geom_bond_atom_site_label_1
_geom_bond_atom_site_label_2
_geom_bond_distance
_geom_bond_site_symmetry_2
_ccdc_geom_bond_type
P0 O11 1.490 . S
P0 C14 1.812 . S
P0 C20 1.803 . S
P0 C26 1.819 . S
H1 C15 0.941 . S
H2 C16 0.939 . S
H3 C18 0.940 . S
H4 C19 0.940 . S
H5 C21 0.939 . S
H6 C22 0.942 . S
H7 C24 0.940 . S
H8 C25 0.939 . S
H9 C27 0.941 . S
H10 C31 0.939 . S
O11 P0 1.490 . S
H12 C28 0.939 . S
H13 C30 0.940 . S
C14 P0 1.812 . S
C14 C15 1.389 . S
C14 C19 1.391 . S
C15 H1 0.941 . S
C15 C14 1.389 . S
C15 C16 1.397 . S
C16 H2 0.939 . S
C16 C15 1.397 . S
C16 C17 1.378 . S
C17 C16 1.378 . S
C17 C18 1.378 . S
C18 H3 0.940 . S
C18 C17 1.378 . S
C18 C19 1.396 . S
C19 H4 0.940 . S
C19 C14 1.391 . S
C19 C18 1.396 . S
C20 P0 1.803 . S
C20 C21 1.378 . S
C20 C25 1.400 . S
C21 H5 0.939 . S
C21 C20 1.378 . S
C21 C22 1.361 . S
C22 H6 0.942 . S
C22 C21 1.361 . S
C22 C23 1.369 . S
C23 C22 1.369 . S
C23 C24 1.404 . S
C24 H7 0.940 . S
C24 C23 1.404 . S
C24 C25 1.389 . S
C25 H8 0.939 . S
C25 C20 1.400 . S
C25 C24 1.389 . S
C26 P0 1.819 . S
C26 C27 1.391 . S
C26 C31 1.391 . S
C27 H9 0.941 . S
C27 C26 1.391 . S
C27 C28 1.396 . S
C28 H12 0.939 . S
C28 C27 1.396 . S
C28 C29 1.397 . S
C29 C28 1.397 . S
C29 C30 1.385 . S
C30 H13 0.940 . S
C30 C29 1.385 . S
C30 C31 1.388 . S
C31 H10 0.939 . S
C31 C26 1.391 . S
C31 C30 1.388 . S
P32 O43 1.490 . S
P32 C46 1.812 . S
P32 C52 1.803 . S
P32 C58 1.819 . S
H33 C47 0.941 . S
H34 C48 0.939 . S
H35 C50 0.940 . S
H36 C51 0.940 . S
H37 C53 0.939 . S
H38 C54 0.942 . S
H39 C56 0.940 . S
H40 C57 0.939 . S
H41 C59 0.941 . S
H42 C63 0.939 . S
O43 P32 1.490 . S
H44 C60 0.939 . S
H45 C62 0.940 . S
C46 P32 1.812 . S
C46 C47 1.389 . S
C46 C51 1.391 . S
C47 H33 0.941 . S
C47 C46 1.389 . S
C47 C48 1.397 . S
C48 H34 0.939 . S
C48 C47 1.397 . S
C48 C49 1.378 . S
C49 C48 1.378 . S
C49 C50 1.378 . S
C50 H35 0.940 . S
C50 C49 1.378 . S
C50 C51 1.396 . S
C51 H36 0.940 . S
C51 C46 1.391 . S
C51 C50 1.396 . S
C52 P32 1.803 . S
C52 C53 1.378 . S
C52 C57 1.400 . S
C53 H37 0.939 . S
C53 C52 1.378 . S
C53 C54 1.361 . S
C54 H38 0.942 . S
C54 C53 1.361 . S
C54 C55 1.369 . S
C55 C54 1.369 . S
C55 C56 1.404 . S
C56 H39 0.940 . S
C56 C55 1.404 . S
C56 C57 1.389 . S
C57 H40 0.939 . S
C57 C52 1.400 . S
C57 C56 1.389 . S
C58 P32 1.819 . S
C58 C59 1.391 . S
C58 C63 1.391 . S
C59 H41 0.941 . S
C59 C58 1.391 . S
C59 C60 1.396 . S
C60 H44 0.939 . S
C60 C59 1.396 . S
C60 C61 1.397 . S
C61 C60 1.397 . S
C61 C62 1.385 . S
C62 H45 0.940 . S
C62 C61 1.385 . S
C62 C63 1.388 . S
C63 H42 0.939 . S
C63 C58 1.391 . S
C63 C62 1.388 . S
P64 O75 1.490 . S
P64 C78 1.812 . S
P64 C84 1.803 . S
P64 C90 1.819 . S
H65 C79 0.941 . S
H66 C80 0.939 . S
H67 C82 0.940 . S
H68 C83 0.940 . S
H69 C85 0.939 . S
H70 C86 0.942 . S
H71 C88 0.940 . S
H72 C89 0.939 . S
H73 C91 0.941 . S
H74 C95 0.939 . S
O75 P64 1.490 . S
H76 C92 0.939 . S
H77 C94 0.940 . S
C78 P64 1.812 . S
C78 C79 1.389 . S
C78 C83 1.391 . S
C79 H65 0.941 . S
C79 C78 1.389 . S
C79 C80 1.397 . S
C80 H66 0.939 . S
C80 C79 1.397 . S
C80 C81 1.378 . S
C81 C80 1.378 . S
C81 C82 1.378 . S
C82 H67 0.940 . S
C82 C81 1.378 . S
C82 C83 1.396 . S
C83 H68 0.940 . S
C83 C78 1.391 . S
C83 C82 1.396 . S
C84 P64 1.803 . S
C84 C85 1.378 . S
C84 C89 1.400 . S
C85 H69 0.939 . S
C85 C84 1.378 . S
C85 C86 1.361 . S
C86 H70 0.942 . S
C86 C85 1.361 . S
C86 C87 1.369 . S
C87 C86 1.369 . S
C87 C88 1.404 . S
C88 H71 0.940 . S
C88 C87 1.404 . S
C88 C89 1.389 . S
C89 H72 0.939 . S
C89 C84 1.400 . S
C89 C88 1.389 . S
C90 P64 1.819 . S
C90 C91 1.391 . S
C90 C95 1.391 . S
C91 H73 0.941 . S
C91 C90 1.391 . S
C91 C92 1.396 . S
C92 H76 0.939 . S
C92 C91 1.396 . S
C92 C93 1.397 . S
C93 C92 1.397 . S
C93 C94 1.385 . S
C94 H77 0.940 . S
C94 C93 1.385 . S
C94 C95 1.388 . S
C95 H74 0.939 . S
C95 C90 1.391 . S
C95 C94 1.388 . S
P96 O107 1.490 . S
P96 C110 1.812 . S
P96 C116 1.803 . S
P96 C122 1.819 . S
H97 C111 0.941 . S
H98 C112 0.939 . S
H99 C114 0.940 . S
H100 C115 0.940 . S
H101 C117 0.939 . S
H102 C118 0.942 . S
H103 C120 0.940 . S
H104 C121 0.939 . S
H105 C123 0.941 . S
H106 C127 0.939 . S
O107 P96 1.490 . S
H108 C124 0.939 . S
H109 C126 0.940 . S
C110 P96 1.812 . S
C110 C111 1.389 . S
C110 C115 1.391 . S
C111 H97 0.941 . S
C111 C110 1.389 . S
C111 C112 1.397 . S
C112 H98 0.939 . S
C112 C111 1.397 . S
C112 C113 1.378 . S
C113 C112 1.378 . S
C113 C114 1.378 . S
C114 H99 0.940 . S
C114 C113 1.378 . S
C114 C115 1.396 . S
C115 H100 0.940 . S
C115 C110 1.391 . S
C115 C114 1.396 . S
C116 P96 1.803 . S
C116 C117 1.378 . S
C116 C121 1.400 . S
C117 H101 0.939 . S
C117 C116 1.378 . S
C117 C118 1.361 . S
C118 H102 0.942 . S
C118 C117 1.361 . S
C118 C119 1.369 . S
C119 C118 1.369 . S
C119 C120 1.404 . S
C120 H103 0.940 . S
C120 C119 1.404 . S
C120 C121 1.389 . S
C121 H104 0.939 . S
C121 C116 1.400 . S
C121 C120 1.389 . S
C122 P96 1.819 . S
C122 C123 1.391 . S
C122 C127 1.391 . S
C123 H105 0.941 . S
C123 C122 1.391 . S
C123 C124 1.396 . S
C124 H108 0.939 . S
C124 C123 1.396 . S
C124 C125 1.397 . S
C125 C124 1.397 . S
C125 C126 1.385 . S
C126 H109 0.940 . S
C126 C125 1.385 . S
C126 C127 1.388 . S
C127 H106 0.939 . S
C127 C122 1.391 . S
C127 C126 1.388 . S
P128 O139 1.490 . S
P128 C142 1.812 . S
P128 C148 1.803 . S
P128 C154 1.819 . S
H129 C143 0.941 . S
H130 C144 0.939 . S
H131 C146 0.940 . S
H132 C147 0.940 . S
H133 C149 0.939 . S
H134 C150 0.942 . S
H135 C152 0.940 . S
H136 C153 0.939 . S
H137 C155 0.941 . S
H138 C159 0.939 . S
O139 P128 1.490 . S
H140 C156 0.939 . S
H141 C158 0.940 . S
C142 P128 1.812 . S
C142 C143 1.389 . S
C142 C147 1.391 . S
C143 H129 0.941 . S
C143 C142 1.389 . S
C143 C144 1.397 . S
C144 H130 0.939 . S
C144 C143 1.397 . S
C144 C145 1.378 . S
C145 C144 1.378 . S
C145 C146 1.378 . S
C146 H131 0.940 . S
C146 C145 1.378 . S
C146 C147 1.396 . S
C147 H132 0.940 . S
C147 C142 1.391 . S
C147 C146 1.396 . S
C148 P128 1.803 . S
C148 C149 1.378 . S
C148 C153 1.400 . S
C149 H133 0.939 . S
C149 C148 1.378 . S
C149 C150 1.361 . S
C150 H134 0.942 . S
C150 C149 1.361 . S
C150 C151 1.369 . S
C151 C150 1.369 . S
C151 C152 1.404 . S
C152 H135 0.940 . S
C152 C151 1.404 . S
C152 C153 1.389 . S
C153 H136 0.939 . S
C153 C148 1.400 . S
C153 C152 1.389 . S
C154 P128 1.819 . S
C154 C155 1.391 . S
C154 C159 1.391 . S
C155 H137 0.941 . S
C155 C154 1.391 . S
C155 C156 1.396 . S
C156 H140 0.939 . S
C156 C155 1.396 . S
C156 C157 1.397 . S
C157 C156 1.397 . S
C157 C158 1.385 . S
C158 H141 0.940 . S
C158 C157 1.385 . S
C158 C159 1.388 . S
C159 H138 0.939 . S
C159 C154 1.391 . S
C159 C158 1.388 . S
P160 O171 1.490 . S
P160 C174 1.812 . S
P160 C180 1.803 . S
P160 C186 1.819 . S
H161 C175 0.941 . S
H162 C176 0.939 . S
H163 C178 0.940 . S
H164 C179 0.940 . S
H165 C181 0.939 . S
H166 C182 0.942 . S
H167 C184 0.940 . S
H168 C185 0.939 . S
H169 C187 0.941 . S
H170 C191 0.939 . S
O171 P160 1.490 . S
H172 C188 0.939 . S
H173 C190 0.940 . S
C174 P160 1.812 . S
C174 C175 1.389 . S
C174 C179 1.391 . S
C175 H161 0.941 . S
C175 C174 1.389 . S
C175 C176 1.397 . S
C176 H162 0.939 . S
C176 C175 1.397 . S
C176 C177 1.378 . S
C177 C176 1.378 . S
C177 C178 1.378 . S
C178 H163 0.940 . S
C178 C177 1.378 . S
C178 C179 1.396 . S
C179 H164 0.940 . S
C179 C174 1.391 . S
C179 C178 1.396 . S
C180 P160 1.803 . S
C180 C181 1.378 . S
C180 C185 1.400 . S
C181 H165 0.939 . S
C181 C180 1.378 . S
C181 C182 1.361 . S
C182 H166 0.942 . S
C182 C181 1.361 . S
C182 C183 1.369 . S
C183 C182 1.369 . S
C183 C184 1.404 . S
C184 H167 0.940 . S
C184 C183 1.404 . S
C184 C185 1.389 . S
C185 H168 0.939 . S
C185 C180 1.400 . S
C185 C184 1.389 . S
C186 P160 1.819 . S
C186 C187 1.391 . S
C186 C191 1.391 . S
C187 H169 0.941 . S
C187 C186 1.391 . S
C187 C188 1.396 . S
C188 H172 0.939 . S
C188 C187 1.396 . S
C188 C189 1.397 . S
C189 C188 1.397 . S
C189 C190 1.385 . S
C190 H173 0.940 . S
C190 C189 1.385 . S
C190 C191 1.388 . S
C191 H170 0.939 . S
C191 C186 1.391 . S
C191 C190 1.388 . S
P192 O203 1.490 . S
P192 C206 1.812 . S
P192 C212 1.803 . S
P192 C218 1.819 . S
H193 C207 0.941 . S
H194 C208 0.939 . S
H195 C210 0.940 . S
H196 C211 0.940 . S
H197 C213 0.939 . S
H198 C214 0.942 . S
H199 C216 0.940 . S
H200 C217 0.939 . S
H201 C219 0.941 . S
H202 C223 0.939 . S
O203 P192 1.490 . S
H204 C220 0.939 . S
H205 C222 0.940 . S
C206 P192 1.812 . S
C206 C207 1.389 . S
C206 C211 1.391 . S
C207 H193 0.941 . S
C207 C206 1.389 . S
C207 C208 1.397 . S
C208 H194 0.939 . S
C208 C207 1.397 . S
C208 C209 1.378 . S
C209 C208 1.378 . S
C209 C210 1.378 . S
C210 H195 0.940 . S
C210 C209 1.378 . S
C210 C211 1.396 . S
C211 H196 0.940 . S
C211 C206 1.391 . S
C211 C210 1.396 . S
C212 P192 1.803 . S
C212 C213 1.378 . S
C212 C217 1.400 . S
C213 H197 0.939 . S
C213 C212 1.378 . S
C213 C214 1.361 . S
C214 H198 0.942 . S
C214 C213 1.361 . S
C214 C215 1.369 . S
C215 C214 1.369 . S
C215 C216 1.404 . S
C216 H199 0.940 . S
C216 C215 1.404 . S
C216 C217 1.389 . S
C217 H200 0.939 . S
C217 C212 1.400 . S
C217 C216 1.389 . S
C218 P192 1.819 . S
C218 C219 1.391 . S
C218 C223 1.391 . S
C219 H201 0.941 . S
C219 C218 1.391 . S
C219 C220 1.396 . S
C220 H204 0.939 . S
C220 C219 1.396 . S
C220 C221 1.397 . S
C221 C220 1.397 . S
C221 C222 1.385 . S
C222 H205 0.940 . S
C222 C221 1.385 . S
C222 C223 1.388 . S
C223 H202 0.939 . S
C223 C218 1.391 . S
C223 C222 1.388 . S
P224 O235 1.490 . S
P224 C238 1.812 . S
P224 C244 1.803 . S
P224 C250 1.819 . S
H225 C239 0.941 . S
H226 C240 0.939 . S
H227 C242 0.940 . S
H228 C243 0.940 . S
H229 C245 0.939 . S
H230 C246 0.942 . S
H231 C248 0.940 . S
H232 C249 0.939 . S
H233 C251 0.941 . S
H234 C255 0.939 . S
O235 P224 1.490 . S
H236 C252 0.939 . S
H237 C254 0.940 . S
C238 P224 1.812 . S
C238 C239 1.389 . S
C238 C243 1.391 . S
C239 H225 0.941 . S
C239 C238 1.389 . S
C239 C240 1.397 . S
C240 H226 0.939 . S
C240 C239 1.397 . S
C240 C241 1.378 . S
C241 C240 1.378 . S
C241 C242 1.378 . S
C242 H227 0.940 . S
C242 C241 1.378 . S
C242 C243 1.396 . S
C243 H228 0.940 . S
C243 C238 1.391 . S
C243 C242 1.396 . S
C244 P224 1.803 . S
C244 C245 1.378 . S
C244 C249 1.400 . S
C245 H229 0.939 . S
C245 C244 1.378 . S
C245 C246 1.361 . S
C246 H230 0.942 . S
C246 C245 1.361 . S
C246 C247 1.369 . S
C247 C246 1.369 . S
C247 C248 1.404 . S
C248 H231 0.940 . S
C248 C247 1.404 . S
C248 C249 1.389 . S
C249 H232 0.939 . S
C249 C244 1.400 . S
C249 C248 1.389 . S
C250 P224 1.819 . S
C250 C251 1.391 . S
C250 C255 1.391 . S
C251 H233 0.941 . S
C251 C250 1.391 . S
C251 C252 1.396 . S
C252 H236 0.939 . S
C252 C251 1.396 . S
C252 C253 1.397 . S
C253 C252 1.397 . S
C253 C254 1.385 . S
C254 H237 0.940 . S
C254 C253 1.385 . S
C254 C255 1.388 . S
C255 H234 0.939 . S
C255 C250 1.391 . S
C255 C254 1.388 . S
Co256 O259 2.042 . S
Co256 O266 2.264 . S
Co256 O285 2.286 . S
Co256 O286 2.069 . S
Co256 O288 2.015 . S
Co257 O259 2.122 . S
Co257 O265 2.073 . S
Co257 O266 2.327 . S
Co257 O267 1.976 . S
Co258 O259 2.087 . S
Co258 O261 2.087 1_455 S
Co258 O268 2.111 . S
Co258 O269 2.143 1_455 S
Co258 O273 2.111 1_455 S
Co258 O287 2.143 . S
O259 Co256 2.042 . S
O259 Co257 2.122 . S
O259 Co258 2.087 . S
O259 H260 0.980 . S
H260 O259 0.980 . S
O261 Co258 2.087 1_655 S
O261 Co262 2.042 . S
O261 Co263 2.122 . S
O261 H264 0.980 . S
Co262 O261 2.042 . S
Co262 O270 2.286 . S
Co262 O271 2.069 . S
Co262 O272 2.015 . S
Co262 O275 2.264 . S
Co263 O261 2.122 . S
Co263 O274 1.976 . S
Co263 O275 2.327 . S
Co263 O276 2.073 . S
H264 O261 0.980 . S
O265 Co257 2.073 . S
O265 C280 1.245 . S
O266 Co256 2.264 . S
O266 Co257 2.327 . S
O266 C280 1.257 . S
O267 Co257 1.976 . S
O267 C279 1.251 . S
O268 Co258 2.111 . S
O268 C279 1.274 . S
O269 Co258 2.143 1_655 S
O269 C282 1.246 . S
O270 Co262 2.286 . S
O270 C281 1.259 . S
O271 Co262 2.069 . S
O271 C281 1.289 . S
O272 Co262 2.015 . S
O272 C282 1.257 . S
O273 Co258 2.111 1_655 S
O273 C283 1.274 . S
O274 Co263 1.976 . S
O274 C283 1.251 . S
O275 Co262 2.264 . S
O275 Co263 2.327 . S
O275 C284 1.257 . S
O276 Co263 2.073 . S
O276 C284 1.245 . S
C277 O285 1.259 . S
C277 O286 1.289 . S
C278 O287 1.246 . S
C278 O288 1.257 . S
C279 O267 1.251 . S
C279 O268 1.274 . S
C280 O265 1.245 . S
C280 O266 1.257 . S
C281 O270 1.259 . S
C281 O271 1.289 . S
C282 O269 1.246 . S
C282 O272 1.257 . S
C283 O273 1.274 . S
C283 O274 1.251 . S
C284 O275 1.257 . S
C284 O276 1.245 . S
O285 Co256 2.286 . S
O285 C277 1.259 . S
O286 Co256 2.069 . S
O286 C277 1.289 . S
O287 Co258 2.143 . S
O287 C278 1.246 . S
O288 Co256 2.015 . S
O288 C278 1.257 . S
Co289 O292 2.042 . S
Co289 O299 2.264 . S
Co289 O318 2.286 . S
Co289 O319 2.069 . S
Co289 O321 2.015 . S
Co290 O292 2.122 . S
Co290 O298 2.073 . S
Co290 O299 2.327 . S
Co290 O300 1.976 . S
Co291 O292 2.087 1_545 S
Co291 O294 2.087 . S
Co291 O301 2.111 1_545 S
Co291 O302 2.143 . S
Co291 O306 2.111 . S
Co291 O320 2.143 1_545 S
O292 Co289 2.042 . S
O292 Co290 2.122 . S
O292 Co291 2.087 1_565 S
O292 H293 0.980 . S
H293 O292 0.980 . S
O294 Co291 2.087 . S
O294 Co295 2.042 . S
O294 Co296 2.122 . S
O294 H297 0.980 . S
Co295 O294 2.042 . S
Co295 O303 2.286 . S
Co295 O304 2.069 . S
Co295 O305 2.015 . S
Co295 O308 2.264 . S
Co296 O294 2.122 . S
Co296 O307 1.976 . S
Co296 O308 2.327 . S
Co296 O309 2.073 . S
H297 O294 0.980 . S
O298 Co290 2.073 . S
O298 C313 1.245 . S
O299 Co289 2.264 . S
O299 Co290 2.327 . S
O299 C313 1.257 . S
O300 Co290 1.976 . S
O300 C312 1.251 . S
O301 Co291 2.111 1_565 S
O301 C312 1.274 . S
O302 Co291 2.143 . S
O302 C315 1.246 . S
O303 Co295 2.286 . S
O303 C314 1.259 . S
O304 Co295 2.069 . S
O304 C314 1.289 . S
O305 Co295 2.015 . S
O305 C315 1.257 . S
O306 Co291 2.111 . S
O306 C316 1.274 . S
O307 Co296 1.976 . S
O307 C316 1.251 . S
O308 Co295 2.264 . S
O308 Co296 2.327 . S
O308 C317 1.257 . S
O309 Co296 2.073 . S
O309 C317 1.245 . S
C310 O318 1.259 . S
C310 O319 1.289 . S
C311 O320 1.246 . S
C311 O321 1.257 . S
C312 O300 1.251 . S
C312 O301 1.274 . S
C313 O298 1.245 . S
C313 O299 1.257 . S
C314 O303 1.259 . S
C314 O304 1.289 . S
C315 O302 1.246 . S
C315 O305 1.257 . S
C316 O306 1.274 . S
C316 O307 1.251 . S
C317 O308 1.257 . S
C317 O309 1.245 . S
O318 Co289 2.286 . S
O318 C310 1.259 . S
O319 Co289 2.069 . S
O319 C310 1.289 . S
O320 Co291 2.143 1_565 S
O320 C311 1.246 . S
O321 Co289 2.015 . S
O321 C311 1.257 . S
Co322 O325 2.042 . S
Co322 O332 2.264 . S
Co322 O351 2.286 . S
Co322 O352 2.069 . S
Co322 O354 2.015 . S
Co323 O325 2.122 . S
Co323 O331 2.073 . S
Co323 O332 2.327 . S
Co323 O333 1.976 . S
Co324 O325 2.087 . S
Co324 O327 2.087 1_554 S
Co324 O334 2.111 . S
Co324 O335 2.143 1_554 S
Co324 O339 2.111 1_554 S
Co324 O353 2.143 . S
O325 Co322 2.042 . S
O325 Co323 2.122 . S
O325 Co324 2.087 . S
O325 H326 0.980 . S
H326 O325 0.980 . S
O327 Co324 2.087 1_556 S
O327 Co328 2.042 . S
O327 Co329 2.122 . S
O327 H330 0.980 . S
Co328 O327 2.042 . S
Co328 O336 2.286 . S
Co328 O337 2.069 . S
Co328 O338 2.015 . S
Co328 O341 2.264 . S
Co329 O327 2.122 . S
Co329 O340 1.976 . S
Co329 O341 2.327 . S
Co329 O342 2.073 . S
H330 O327 0.980 . S
O331 Co323 2.073 . S
O331 C346 1.245 . S
O332 Co322 2.264 . S
O332 Co323 2.327 . S
O332 C346 1.257 . S
O333 Co323 1.976 . S
O333 C345 1.251 . S
O334 Co324 2.111 . S
O334 C345 1.274 . S
O335 Co324 2.143 1_556 S
O335 C348 1.246 . S
O336 Co328 2.286 . S
O336 C347 1.259 . S
O337 Co328 2.069 . S
O337 C347 1.289 . S
O338 Co328 2.015 . S
O338 C348 1.257 . S
O339 Co324 2.111 1_556 S
O339 C349 1.274 . S
O340 Co329 1.976 . S
O340 C349 1.251 . S
O341 Co328 2.264 . S
O341 Co329 2.327 . S
O341 C350 1.257 . S
O342 Co329 2.073 . S
O342 C350 1.245 . S
C343 O351 1.259 . S
C343 O352 1.289 . S
C344 O353 1.246 . S
C344 O354 1.257 . S
C345 O333 1.251 . S
C345 O334 1.274 . S
C346 O331 1.245 . S
C346 O332 1.257 . S
C347 O336 1.259 . S
C347 O337 1.289 . S
C348 O335 1.246 . S
C348 O338 1.257 . S
C349 O339 1.274 . S
C349 O340 1.251 . S
C350 O341 1.257 . S
C350 O342 1.245 . S
O351 Co322 2.286 . S
O351 C343 1.259 . S
O352 Co322 2.069 . S
O352 C343 1.289 . S
O353 Co324 2.143 . S
O353 C344 1.246 . S
O354 Co322 2.015 . S
O354 C344 1.257 . S
C355 C356 1.391 . S
C355 C357 1.394 . S
C355 H371 0.931 . S
C356 C355 1.391 . S
C356 C360 1.376 . S
C357 C355 1.394 . S
C357 C358 1.369 . S
C357 C361 1.531 . S
C358 C357 1.369 . S
C358 C359 1.410 . S
C358 C366 1.503 . S
C359 C358 1.410 . S
C359 C360 1.392 . S
C359 C362 1.511 . S
C360 C356 1.376 . S
C360 C359 1.392 . S
C360 H372 0.929 . S
C361 C357 1.531 . S
C361 H373 0.960 . S
C361 H374 0.962 . S
C361 H375 0.960 . S
C362 C359 1.511 . S
C362 H376 0.961 . S
C362 H377 0.961 . S
C362 H378 0.961 . S
C363 C364 1.370 . S
C363 C365 1.363 . S
C363 H379 0.931 . S
C364 C363 1.370 . S
C364 C368 1.408 . S
C365 C363 1.363 . S
C365 C366 1.370 . S
C365 C369 1.524 . S
C366 C358 1.503 . S
C366 C365 1.370 . S
C366 C367 1.403 . S
C367 C366 1.403 . S
C367 C368 1.404 . S
C367 C370 1.539 . S
C368 C364 1.408 . S
C368 C367 1.404 . S
C368 H380 0.930 . S
C369 C365 1.524 . S
C369 H381 0.956 . S
C369 H382 0.961 . S
C369 H383 0.961 . S
C370 C367 1.539 . S
C370 H384 0.958 . S
C370 H385 0.961 . S
C370 H386 0.960 . S
H371 C355 0.931 . S
H372 C360 0.929 . S
H373 C361 0.960 . S
H374 C361 0.962 . S
H375 C361 0.960 . S
H376 C362 0.961 . S
H377 C362 0.961 . S
H378 C362 0.961 . S
H379 C363 0.931 . S
H380 C368 0.930 . S
H381 C369 0.956 . S
H382 C369 0.961 . S
H383 C369 0.961 . S
H384 C370 0.958 . S
H385 C370 0.961 . S
H386 C370 0.960 . S
C387 C388 1.391 . S
C387 C389 1.394 . S
C387 H403 0.931 . S
C388 C387 1.391 . S
C388 C392 1.376 . S
C389 C387 1.394 . S
C389 C390 1.369 . S
C389 C393 1.531 . S
C390 C389 1.369 . S
C390 C391 1.410 . S
C390 C398 1.503 . S
C391 C390 1.410 . S
C391 C392 1.392 . S
C391 C394 1.511 . S
C392 C388 1.376 . S
C392 C391 1.392 . S
C392 H404 0.929 . S
C393 C389 1.531 . S
C393 H405 0.960 . S
C393 H406 0.962 . S
C393 H407 0.960 . S
C394 C391 1.511 . S
C394 H408 0.961 . S
C394 H409 0.961 . S
C394 H410 0.961 . S
C395 C396 1.370 . S
C395 C397 1.363 . S
C395 H411 0.931 . S
C396 C395 1.370 . S
C396 C400 1.408 . S
C397 C395 1.363 . S
C397 C398 1.370 . S
C397 C401 1.524 . S
C398 C390 1.503 . S
C398 C397 1.370 . S
C398 C399 1.403 . S
C399 C398 1.403 . S
C399 C400 1.404 . S
C399 C402 1.539 . S
C400 C396 1.408 . S
C400 C399 1.404 . S
C400 H412 0.930 . S
C401 C397 1.524 . S
C401 H413 0.956 . S
C401 H414 0.961 . S
C401 H415 0.961 . S
C402 C399 1.539 . S
C402 H416 0.958 . S
C402 H417 0.961 . S
C402 H418 0.960 . S
H403 C387 0.931 . S
H404 C392 0.929 . S
H405 C393 0.960 . S
H406 C393 0.962 . S
H407 C393 0.960 . S
H408 C394 0.961 . S
H409 C394 0.961 . S
H410 C394 0.961 . S
H411 C395 0.931 . S
H412 C400 0.930 . S
H413 C401 0.956 . S
H414 C401 0.961 . S
H415 C401 0.961 . S
H416 C402 0.958 . S
H417 C402 0.961 . S
H418 C402 0.960 . S
C419 C420 1.391 . S
C419 C421 1.394 . S
C419 H435 0.931 . S
C420 C419 1.391 . S
C420 C424 1.376 . S
C421 C419 1.394 . S
C421 C422 1.369 . S
C421 C425 1.531 . S
C422 C421 1.369 . S
C422 C423 1.410 . S
C422 C430 1.503 . S
C423 C422 1.410 . S
C423 C424 1.392 . S
C423 C426 1.511 . S
C424 C420 1.376 . S
C424 C423 1.392 . S
C424 H436 0.929 . S
C425 C421 1.531 . S
C425 H437 0.960 . S
C425 H438 0.962 . S
C425 H439 0.960 . S
C426 C423 1.511 . S
C426 H440 0.961 . S
C426 H441 0.961 . S
C426 H442 0.961 . S
C427 C428 1.370 . S
C427 C429 1.363 . S
C427 H443 0.931 . S
C428 C427 1.370 . S
C428 C432 1.408 . S
C429 C427 1.363 . S
C429 C430 1.370 . S
C429 C433 1.524 . S
C430 C422 1.503 . S
C430 C429 1.370 . S
C430 C431 1.403 . S
C431 C430 1.403 . S
C431 C432 1.404 . S
C431 C434 1.539 . S
C432 C428 1.408 . S
C432 C431 1.404 . S
C432 H444 0.930 . S
C433 C429 1.524 . S
C433 H445 0.956 . S
C433 H446 0.961 . S
C433 H447 0.961 . S
C434 C431 1.539 . S
C434 H448 0.958 . S
C434 H449 0.961 . S
C434 H450 0.960 . S
H435 C419 0.931 . S
H436 C424 0.929 . S
H437 C425 0.960 . S
H438 C425 0.962 . S
H439 C425 0.960 . S
H440 C426 0.961 . S
H441 C426 0.961 . S
H442 C426 0.961 . S
H443 C427 0.931 . S
H444 C432 0.930 . S
H445 C433 0.956 . S
H446 C433 0.961 . S
H447 C433 0.961 . S
H448 C434 0.958 . S
H449 C434 0.961 . S
H450 C434 0.960 . S
C451 C452 1.391 . S
C451 C453 1.394 . S
C451 H467 0.931 . S
C452 C451 1.391 . S
C452 C456 1.376 . S
C453 C451 1.394 . S
C453 C454 1.369 . S
C453 C457 1.531 . S
C454 C453 1.369 . S
C454 C455 1.410 . S
C454 C462 1.503 . S
C455 C454 1.410 . S
C455 C456 1.392 . S
C455 C458 1.511 . S
C456 C452 1.376 . S
C456 C455 1.392 . S
C456 H468 0.929 . S
C457 C453 1.531 . S
C457 H469 0.960 . S
C457 H470 0.962 . S
C457 H471 0.960 . S
C458 C455 1.511 . S
C458 H472 0.961 . S
C458 H473 0.961 . S
C458 H474 0.961 . S
C459 C460 1.370 . S
C459 C461 1.363 . S
C459 H475 0.931 . S
C460 C459 1.370 . S
C460 C464 1.408 . S
C461 C459 1.363 . S
C461 C462 1.370 . S
C461 C465 1.524 . S
C462 C454 1.503 . S
C462 C461 1.370 . S
C462 C463 1.403 . S
C463 C462 1.403 . S
C463 C464 1.404 . S
C463 C466 1.539 . S
C464 C460 1.408 . S
C464 C463 1.404 . S
C464 H476 0.930 . S
C465 C461 1.524 . S
C465 H477 0.956 . S
C465 H478 0.961 . S
C465 H479 0.961 . S
C466 C463 1.539 . S
C466 H480 0.958 . S
C466 H481 0.961 . S
C466 H482 0.960 . S
H467 C451 0.931 . S
H468 C456 0.929 . S
H469 C457 0.960 . S
H470 C457 0.962 . S
H471 C457 0.960 . S
H472 C458 0.961 . S
H473 C458 0.961 . S
H474 C458 0.961 . S
H475 C459 0.931 . S
H476 C464 0.930 . S
H477 C465 0.956 . S
H478 C465 0.961 . S
H479 C465 0.961 . S
H480 C466 0.958 . S
H481 C466 0.961 . S
H482 C466 0.960 . S
C483 C484 1.391 . S
C483 C485 1.394 . S
C483 H499 0.931 . S
C484 C483 1.391 . S
C484 C488 1.376 . S
C485 C483 1.394 . S
C485 C486 1.369 . S
C485 C489 1.531 . S
C486 C485 1.369 . S
C486 C487 1.410 . S
C486 C494 1.503 . S
C487 C486 1.410 . S
C487 C488 1.392 . S
C487 C490 1.511 . S
C488 C484 1.376 . S
C488 C487 1.392 . S
C488 H500 0.929 . S
C489 C485 1.531 . S
C489 H501 0.960 . S
C489 H502 0.962 . S
C489 H503 0.960 . S
C490 C487 1.511 . S
C490 H504 0.961 . S
C490 H505 0.961 . S
C490 H506 0.961 . S
C491 C492 1.370 . S
C491 C493 1.363 . S
C491 H507 0.931 . S
C492 C491 1.370 . S
C492 C496 1.408 . S
C493 C491 1.363 . S
C493 C494 1.370 . S
C493 C497 1.524 . S
C494 C486 1.503 . S
C494 C493 1.370 . S
C494 C495 1.403 . S
C495 C494 1.403 . S
C495 C496 1.404 . S
C495 C498 1.539 . S
C496 C492 1.408 . S
C496 C495 1.404 . S
C496 H508 0.930 . S
C497 C493 1.524 . S
C497 H509 0.956 . S
C497 H510 0.961 . S
C497 H511 0.961 . S
C498 C495 1.539 . S
C498 H512 0.958 . S
C498 H513 0.961 . S
C498 H514 0.960 . S
H499 C483 0.931 . S
H500 C488 0.929 . S
H501 C489 0.960 . S
H502 C489 0.962 . S
H503 C489 0.960 . S
H504 C490 0.961 . S
H505 C490 0.961 . S
H506 C490 0.961 . S
H507 C491 0.931 . S
H508 C496 0.930 . S
H509 C497 0.956 . S
H510 C497 0.961 . S
H511 C497 0.961 . S
H512 C498 0.958 . S
H513 C498 0.961 . S
H514 C498 0.960 . S
C515 C516 1.391 . S
C515 C517 1.394 . S
C515 H531 0.931 . S
C516 C515 1.391 . S
C516 C520 1.376 . S
C517 C515 1.394 . S
C517 C518 1.369 . S
C517 C521 1.531 . S
C518 C517 1.369 . S
C518 C519 1.410 . S
C518 C526 1.503 . S
C519 C518 1.410 . S
C519 C520 1.392 . S
C519 C522 1.511 . S
C520 C516 1.376 . S
C520 C519 1.392 . S
C520 H532 0.929 . S
C521 C517 1.531 . S
C521 H533 0.960 . S
C521 H534 0.962 . S
C521 H535 0.960 . S
C522 C519 1.511 . S
C522 H536 0.961 . S
C522 H537 0.961 . S
C522 H538 0.961 . S
C523 C524 1.370 . S
C523 C525 1.363 . S
C523 H539 0.931 . S
C524 C523 1.370 . S
C524 C528 1.408 . S
C525 C523 1.363 . S
C525 C526 1.370 . S
C525 C529 1.524 . S
C526 C518 1.503 . S
C526 C525 1.370 . S
C526 C527 1.403 . S
C527 C526 1.403 . S
C527 C528 1.404 . S
C527 C530 1.539 . S
C528 C524 1.408 . S
C528 C527 1.404 . S
C528 H540 0.930 . S
C529 C525 1.524 . S
C529 H541 0.956 . S
C529 H542 0.961 . S
C529 H543 0.961 . S
C530 C527 1.539 . S
C530 H544 0.958 . S
C530 H545 0.961 . S
C530 H546 0.960 . S
H531 C515 0.931 . S
H532 C520 0.929 . S
H533 C521 0.960 . S
H534 C521 0.962 . S
H535 C521 0.960 . S
H536 C522 0.961 . S
H537 C522 0.961 . S
H538 C522 0.961 . S
H539 C523 0.931 . S
H540 C528 0.930 . S
H541 C529 0.956 . S
H542 C529 0.961 . S
H543 C529 0.961 . S
H544 C530 0.958 . S
H545 C530 0.961 . S
H546 C530 0.960 . S
C547 C548 1.391 . S
C547 C549 1.394 . S
C547 H563 0.931 . S
C548 C547 1.391 . S
C548 C552 1.376 . S
C549 C547 1.394 . S
C549 C550 1.369 . S
C549 C553 1.531 . S
C550 C549 1.369 . S
C550 C551 1.410 . S
C550 C558 1.503 . S
C551 C550 1.410 . S
C551 C552 1.392 . S
C551 C554 1.511 . S
C552 C548 1.376 . S
C552 C551 1.392 . S
C552 H564 0.929 . S
C553 C549 1.531 . S
C553 H565 0.960 . S
C553 H566 0.962 . S
C553 H567 0.960 . S
C554 C551 1.511 . S
C554 H568 0.961 . S
C554 H569 0.961 . S
C554 H570 0.961 . S
C555 C556 1.370 . S
C555 C557 1.363 . S
C555 H571 0.931 . S
C556 C555 1.370 . S
C556 C560 1.408 . S
C557 C555 1.363 . S
C557 C558 1.370 . S
C557 C561 1.524 . S
C558 C550 1.503 . S
C558 C557 1.370 . S
C558 C559 1.403 . S
C559 C558 1.403 . S
C559 C560 1.404 . S
C559 C562 1.539 . S
C560 C556 1.408 . S
C560 C559 1.404 . S
C560 H572 0.930 . S
C561 C557 1.524 . S
C561 H573 0.956 . S
C561 H574 0.961 . S
C561 H575 0.961 . S
C562 C559 1.539 . S
C562 H576 0.958 . S
C562 H577 0.961 . S
C562 H578 0.960 . S
H563 C547 0.931 . S
H564 C552 0.929 . S
H565 C553 0.960 . S
H566 C553 0.962 . S
H567 C553 0.960 . S
H568 C554 0.961 . S
H569 C554 0.961 . S
H570 C554 0.961 . S
H571 C555 0.931 . S
H572 C560 0.930 . S
H573 C561 0.956 . S
H574 C561 0.961 . S
H575 C561 0.961 . S
H576 C562 0.958 . S
H577 C562 0.961 . S
H578 C562 0.960 . S
C579 C580 1.391 . S
C579 C581 1.394 . S
C579 H595 0.931 . S
C580 C579 1.391 . S
C580 C584 1.376 . S
C581 C579 1.394 . S
C581 C582 1.369 . S
C581 C585 1.531 . S
C582 C581 1.369 . S
C582 C583 1.410 . S
C582 C590 1.503 . S
C583 C582 1.410 . S
C583 C584 1.392 . S
C583 C586 1.511 . S
C584 C580 1.376 . S
C584 C583 1.392 . S
C584 H596 0.929 . S
C585 C581 1.531 . S
C585 H597 0.960 . S
C585 H598 0.962 . S
C585 H599 0.960 . S
C586 C583 1.511 . S
C586 H600 0.961 . S
C586 H601 0.961 . S
C586 H602 0.961 . S
C587 C588 1.370 . S
C587 C589 1.363 . S
C587 H603 0.931 . S
C588 C587 1.370 . S
C588 C592 1.408 . S
C589 C587 1.363 . S
C589 C590 1.370 . S
C589 C593 1.524 . S
C590 C582 1.503 . S
C590 C589 1.370 . S
C590 C591 1.403 . S
C591 C590 1.403 . S
C591 C592 1.404 . S
C591 C594 1.539 . S
C592 C588 1.408 . S
C592 C591 1.404 . S
C592 H604 0.930 . S
C593 C589 1.524 . S
C593 H605 0.956 . S
C593 H606 0.961 . S
C593 H607 0.961 . S
C594 C591 1.539 . S
C594 H608 0.958 . S
C594 H609 0.961 . S
C594 H610 0.960 . S
H595 C579 0.931 . S
H596 C584 0.929 . S
H597 C585 0.960 . S
H598 C585 0.962 . S
H599 C585 0.960 . S
H600 C586 0.961 . S
H601 C586 0.961 . S
H602 C586 0.961 . S
H603 C587 0.931 . S
H604 C592 0.930 . S
H605 C593 0.956 . S
H606 C593 0.961 . S
H607 C593 0.961 . S
H608 C594 0.958 . S
H609 C594 0.961 . S
H610 C594 0.960 . S
C611 C612 1.391 . S
C611 C613 1.394 . S
C611 H627 0.931 . S
C612 C611 1.391 . S
C612 C616 1.376 . S
C613 C611 1.394 . S
C613 C614 1.369 . S
C613 C617 1.531 . S
C614 C613 1.369 . S
C614 C615 1.410 . S
C614 C622 1.503 . S
C615 C614 1.410 . S
C615 C616 1.392 . S
C615 C618 1.511 . S
C616 C612 1.376 . S
C616 C615 1.392 . S
C616 H628 0.929 . S
C617 C613 1.531 . S
C617 H629 0.960 . S
C617 H630 0.962 . S
C617 H631 0.960 . S
C618 C615 1.511 . S
C618 H632 0.961 . S
C618 H633 0.961 . S
C618 H634 0.961 . S
C619 C620 1.370 . S
C619 C621 1.363 . S
C619 H635 0.931 . S
C620 C619 1.370 . S
C620 C624 1.408 . S
C621 C619 1.363 . S
C621 C622 1.370 . S
C621 C625 1.524 . S
C622 C614 1.503 . S
C622 C621 1.370 . S
C622 C623 1.403 . S
C623 C622 1.403 . S
C623 C624 1.404 . S
C623 C626 1.539 . S
C624 C620 1.408 . S
C624 C623 1.404 . S
C624 H636 0.930 . S
C625 C621 1.524 . S
C625 H637 0.956 . S
C625 H638 0.961 . S
C625 H639 0.961 . S
C626 C623 1.539 . S
C626 H640 0.958 . S
C626 H641 0.961 . S
C626 H642 0.960 . S
H627 C611 0.931 . S
H628 C616 0.929 . S
H629 C617 0.960 . S
H630 C617 0.962 . S
H631 C617 0.960 . S
H632 C618 0.961 . S
H633 C618 0.961 . S
H634 C618 0.961 . S
H635 C619 0.931 . S
H636 C624 0.930 . S
H637 C625 0.956 . S
H638 C625 0.961 . S
H639 C625 0.961 . S
H640 C626 0.958 . S
H641 C626 0.961 . S
H642 C626 0.960 . S
C643 C644 1.391 . S
C643 C645 1.394 . S
C643 H659 0.931 . S
C644 C643 1.391 . S
C644 C648 1.376 . S
C645 C643 1.394 . S
C645 C646 1.369 . S
C645 C649 1.531 . S
C646 C645 1.369 . S
C646 C647 1.410 . S
C646 C654 1.503 . S
C647 C646 1.410 . S
C647 C648 1.392 . S
C647 C650 1.511 . S
C648 C644 1.376 . S
C648 C647 1.392 . S
C648 H660 0.929 . S
C649 C645 1.531 . S
C649 H661 0.960 . S
C649 H662 0.962 . S
C649 H663 0.960 . S
C650 C647 1.511 . S
C650 H664 0.961 . S
C650 H665 0.961 . S
C650 H666 0.961 . S
C651 C652 1.370 . S
C651 C653 1.363 . S
C651 H667 0.931 . S
C652 C651 1.370 . S
C652 C656 1.408 . S
C653 C651 1.363 . S
C653 C654 1.370 . S
C653 C657 1.524 . S
C654 C646 1.503 . S
C654 C653 1.370 . S
C654 C655 1.403 . S
C655 C654 1.403 . S
C655 C656 1.404 . S
C655 C658 1.539 . S
C656 C652 1.408 . S
C656 C655 1.404 . S
C656 H668 0.930 . S
C657 C653 1.524 . S
C657 H669 0.956 . S
C657 H670 0.961 . S
C657 H671 0.961 . S
C658 C655 1.539 . S
C658 H672 0.958 . S
C658 H673 0.961 . S
C658 H674 0.960 . S
H659 C643 0.931 . S
H660 C648 0.929 . S
H661 C649 0.960 . S
H662 C649 0.962 . S
H663 C649 0.960 . S
H664 C650 0.961 . S
H665 C650 0.961 . S
H666 C650 0.961 . S
H667 C651 0.931 . S
H668 C656 0.930 . S
H669 C657 0.956 . S
H670 C657 0.961 . S
H671 C657 0.961 . S
H672 C658 0.958 . S
H673 C658 0.961 . S
H674 C658 0.960 . S
C675 C676 1.391 . S
C675 C677 1.394 . S
C675 H691 0.931 . S
C676 C675 1.391 . S
C676 C680 1.376 . S
C677 C675 1.394 . S
C677 C678 1.369 . S
C677 C681 1.531 . S
C678 C677 1.369 . S
C678 C679 1.410 . S
C678 C686 1.503 . S
C679 C678 1.410 . S
C679 C680 1.392 . S
C679 C682 1.511 . S
C680 C676 1.376 . S
C680 C679 1.392 . S
C680 H692 0.929 . S
C681 C677 1.531 . S
C681 H693 0.960 . S
C681 H694 0.962 . S
C681 H695 0.960 . S
C682 C679 1.511 . S
C682 H696 0.961 . S
C682 H697 0.961 . S
C682 H698 0.961 . S
C683 C684 1.370 . S
C683 C685 1.363 . S
C683 H699 0.931 . S
C684 C683 1.370 . S
C684 C688 1.408 . S
C685 C683 1.363 . S
C685 C686 1.370 . S
C685 C689 1.524 . S
C686 C678 1.503 . S
C686 C685 1.370 . S
C686 C687 1.403 . S
C687 C686 1.403 . S
C687 C688 1.404 . S
C687 C690 1.539 . S
C688 C684 1.408 . S
C688 C687 1.404 . S
C688 H700 0.930 . S
C689 C685 1.524 . S
C689 H701 0.956 . S
C689 H702 0.961 . S
C689 H703 0.961 . S
C690 C687 1.539 . S
C690 H704 0.958 . S
C690 H705 0.961 . S
C690 H706 0.960 . S
H691 C675 0.931 . S
H692 C680 0.929 . S
H693 C681 0.960 . S
H694 C681 0.962 . S
H695 C681 0.960 . S
H696 C682 0.961 . S
H697 C682 0.961 . S
H698 C682 0.961 . S
H699 C683 0.931 . S
H700 C688 0.930 . S
H701 C689 0.956 . S
H702 C689 0.961 . S
H703 C689 0.961 . S
H704 C690 0.958 . S
H705 C690 0.961 . S
H706 C690 0.960 . S
C707 C708 1.391 . S
C707 C709 1.394 . S
C707 H723 0.931 . S
C708 C707 1.391 . S
C708 C712 1.376 . S
C709 C707 1.394 . S
C709 C710 1.369 . S
C709 C713 1.531 . S
C710 C709 1.369 . S
C710 C711 1.410 . S
C710 C718 1.503 . S
C711 C710 1.410 . S
C711 C712 1.392 . S
C711 C714 1.511 . S
C712 C708 1.376 . S
C712 C711 1.392 . S
C712 H724 0.929 . S
C713 C709 1.531 . S
C713 H725 0.960 . S
C713 H726 0.962 . S
C713 H727 0.960 . S
C714 C711 1.511 . S
C714 H728 0.961 . S
C714 H729 0.961 . S
C714 H730 0.961 . S
C715 C716 1.370 . S
C715 C717 1.363 . S
C715 H731 0.931 . S
C716 C715 1.370 . S
C716 C720 1.408 . S
C717 C715 1.363 . S
C717 C718 1.370 . S
C717 C721 1.524 . S
C718 C710 1.503 . S
C718 C717 1.370 . S
C718 C719 1.403 . S
C719 C718 1.403 . S
C719 C720 1.404 . S
C719 C722 1.539 . S
C720 C716 1.408 . S
C720 C719 1.404 . S
C720 H732 0.930 . S
C721 C717 1.524 . S
C721 H733 0.956 . S
C721 H734 0.961 . S
C721 H735 0.961 . S
C722 C719 1.539 . S
C722 H736 0.958 . S
C722 H737 0.961 . S
C722 H738 0.960 . S
H723 C707 0.931 . S
H724 C712 0.929 . S
H725 C713 0.960 . S
H726 C713 0.962 . S
H727 C713 0.960 . S
H728 C714 0.961 . S
H729 C714 0.961 . S
H730 C714 0.961 . S
H731 C715 0.931 . S
H732 C720 0.930 . S
H733 C721 0.956 . S
H734 C721 0.961 . S
H735 C721 0.961 . S
H736 C722 0.958 . S
H737 C722 0.961 . S
H738 C722 0.960 . S
C739 C740 1.391 . S
C739 C741 1.394 . S
C739 H755 0.931 . S
C740 C739 1.391 . S
C740 C744 1.376 . S
C741 C739 1.394 . S
C741 C742 1.369 . S
C741 C745 1.531 . S
C742 C741 1.369 . S
C742 C743 1.410 . S
C742 C750 1.503 . S
C743 C742 1.410 . S
C743 C744 1.392 . S
C743 C746 1.511 . S
C744 C740 1.376 . S
C744 C743 1.392 . S
C744 H756 0.929 . S
C745 C741 1.531 . S
C745 H757 0.960 . S
C745 H758 0.962 . S
C745 H759 0.960 . S
C746 C743 1.511 . S
C746 H760 0.961 . S
C746 H761 0.961 . S
C746 H762 0.961 . S
C747 C748 1.370 . S
C747 C749 1.363 . S
C747 H763 0.931 . S
C748 C747 1.370 . S
C748 C752 1.408 . S
C749 C747 1.363 . S
C749 C750 1.370 . S
C749 C753 1.524 . S
C750 C742 1.503 . S
C750 C749 1.370 . S
C750 C751 1.403 . S
C751 C750 1.403 . S
C751 C752 1.404 . S
C751 C754 1.539 . S
C752 C748 1.408 . S
C752 C751 1.404 . S
C752 H764 0.930 . S
C753 C749 1.524 . S
C753 H765 0.956 . S
C753 H766 0.961 . S
C753 H767 0.961 . S
C754 C751 1.539 . S
C754 H768 0.958 . S
C754 H769 0.961 . S
C754 H770 0.960 . S
H755 C739 0.931 . S
H756 C744 0.929 . S
H757 C745 0.960 . S
H758 C745 0.962 . S
H759 C745 0.960 . S
H760 C746 0.961 . S
H761 C746 0.961 . S
H762 C746 0.961 . S
H763 C747 0.931 . S
H764 C752 0.930 . S
H765 C753 0.956 . S
H766 C753 0.961 . S
H767 C753 0.961 . S
H768 C754 0.958 . S
H769 C754 0.961 . S
H770 C754 0.960 . S
C771 C772 1.391 . S
C771 C773 1.394 . S
C771 H787 0.931 . S
C772 C771 1.391 . S
C772 C776 1.376 . S
C773 C771 1.394 . S
C773 C774 1.369 . S
C773 C777 1.531 . S
C774 C773 1.369 . S
C774 C775 1.410 . S
C774 C782 1.503 . S
C775 C774 1.410 . S
C775 C776 1.392 . S
C775 C778 1.511 . S
C776 C772 1.376 . S
C776 C775 1.392 . S
C776 H788 0.929 . S
C777 C773 1.531 . S
C777 H789 0.960 . S
C777 H790 0.962 . S
C777 H791 0.960 . S
C778 C775 1.511 . S
C778 H792 0.961 . S
C778 H793 0.961 . S
C778 H794 0.961 . S
C779 C780 1.370 . S
C779 C781 1.363 . S
C779 H795 0.931 . S
C780 C779 1.370 . S
C780 C784 1.408 . S
C781 C779 1.363 . S
C781 C782 1.370 . S
C781 C785 1.524 . S
C782 C774 1.503 . S
C782 C781 1.370 . S
C782 C783 1.403 . S
C783 C782 1.403 . S
C783 C784 1.404 . S
C783 C786 1.539 . S
C784 C780 1.408 . S
C784 C783 1.404 . S
C784 H796 0.930 . S
C785 C781 1.524 . S
C785 H797 0.956 . S
C785 H798 0.961 . S
C785 H799 0.961 . S
C786 C783 1.539 . S
C786 H800 0.958 . S
C786 H801 0.961 . S
C786 H802 0.960 . S
H787 C771 0.931 . S
H788 C776 0.929 . S
H789 C777 0.960 . S
H790 C777 0.962 . S
H791 C777 0.960 . S
H792 C778 0.961 . S
H793 C778 0.961 . S
H794 C778 0.961 . S
H795 C779 0.931 . S
H796 C784 0.930 . S
H797 C785 0.956 . S
H798 C785 0.961 . S
H799 C785 0.961 . S
H800 C786 0.958 . S
H801 C786 0.961 . S
H802 C786 0.960 . S
C803 C804 1.391 . S
C803 C805 1.394 . S
C803 H819 0.931 . S
C804 C803 1.391 . S
C804 C808 1.376 . S
C805 C803 1.394 . S
C805 C806 1.369 . S
C805 C809 1.531 . S
C806 C805 1.369 . S
C806 C807 1.410 . S
C806 C814 1.503 . S
C807 C806 1.410 . S
C807 C808 1.392 . S
C807 C810 1.511 . S
C808 C804 1.376 . S
C808 C807 1.392 . S
C808 H820 0.929 . S
C809 C805 1.531 . S
C809 H821 0.960 . S
C809 H822 0.962 . S
C809 H823 0.960 . S
C810 C807 1.511 . S
C810 H824 0.961 . S
C810 H825 0.961 . S
C810 H826 0.961 . S
C811 C812 1.370 . S
C811 C813 1.363 . S
C811 H827 0.931 . S
C812 C811 1.370 . S
C812 C816 1.408 . S
C813 C811 1.363 . S
C813 C814 1.370 . S
C813 C817 1.524 . S
C814 C806 1.503 . S
C814 C813 1.370 . S
C814 C815 1.403 . S
C815 C814 1.403 . S
C815 C816 1.404 . S
C815 C818 1.539 . S
C816 C812 1.408 . S
C816 C815 1.404 . S
C816 H828 0.930 . S
C817 C813 1.524 . S
C817 H829 0.956 . S
C817 H830 0.961 . S
C817 H831 0.961 . S
C818 C815 1.539 . S
C818 H832 0.958 . S
C818 H833 0.961 . S
C818 H834 0.960 . S
H819 C803 0.931 . S
H820 C808 0.929 . S
H821 C809 0.960 . S
H822 C809 0.962 . S
H823 C809 0.960 . S
H824 C810 0.961 . S
H825 C810 0.961 . S
H826 C810 0.961 . S
H827 C811 0.931 . S
H828 C816 0.930 . S
H829 C817 0.956 . S
H830 C817 0.961 . S
H831 C817 0.961 . S
H832 C818 0.958 . S
H833 C818 0.961 . S
H834 C818 0.960 . S
C835 C836 1.391 . S
C835 C837 1.394 . S
C835 H851 0.931 . S
C836 C835 1.391 . S
C836 C840 1.376 . S
C837 C835 1.394 . S
C837 C838 1.369 . S
C837 C841 1.531 . S
C838 C837 1.369 . S
C838 C839 1.410 . S
C838 C846 1.503 . S
C839 C838 1.410 . S
C839 C840 1.392 . S
C839 C842 1.511 . S
C840 C836 1.376 . S
C840 C839 1.392 . S
C840 H852 0.929 . S
C841 C837 1.531 . S
C841 H853 0.960 . S
C841 H854 0.962 . S
C841 H855 0.960 . S
C842 C839 1.511 . S
C842 H856 0.961 . S
C842 H857 0.961 . S
C842 H858 0.961 . S
C843 C844 1.370 . S
C843 C845 1.363 . S
C843 H859 0.931 . S
C844 C843 1.370 . S
C844 C848 1.408 . S
C845 C843 1.363 . S
C845 C846 1.370 . S
C845 C849 1.524 . S
C846 C838 1.503 . S
C846 C845 1.370 . S
C846 C847 1.403 . S
C847 C846 1.403 . S
C847 C848 1.404 . S
C847 C850 1.539 . S
C848 C844 1.408 . S
C848 C847 1.404 . S
C848 H860 0.930 . S
C849 C845 1.524 . S
C849 H861 0.956 . S
C849 H862 0.961 . S
C849 H863 0.961 . S
C850 C847 1.539 . S
C850 H864 0.958 . S
C850 H865 0.961 . S
C850 H866 0.960 . S
H851 C835 0.931 . S
H852 C840 0.929 . S
H853 C841 0.960 . S
H854 C841 0.962 . S
H855 C841 0.960 . S
H856 C842 0.961 . S
H857 C842 0.961 . S
H858 C842 0.961 . S
H859 C843 0.931 . S
H860 C848 0.930 . S
H861 C849 0.956 . S
H862 C849 0.961 . S
H863 C849 0.961 . S
H864 C850 0.958 . S
H865 C850 0.961 . S
H866 C850 0.960 . S
C867 C868 1.391 . S
C867 C869 1.394 . S
C867 H883 0.931 . S
C868 C867 1.391 . S
C868 C872 1.376 . S
C869 C867 1.394 . S
C869 C870 1.369 . S
C869 C873 1.531 . S
C870 C869 1.369 . S
C870 C871 1.410 . S
C870 C878 1.503 . S
C871 C870 1.410 . S
C871 C872 1.392 . S
C871 C874 1.511 . S
C872 C868 1.376 . S
C872 C871 1.392 . S
C872 H884 0.929 . S
C873 C869 1.531 . S
C873 H885 0.960 . S
C873 H886 0.962 . S
C873 H887 0.960 . S
C874 C871 1.511 . S
C874 H888 0.961 . S
C874 H889 0.961 . S
C874 H890 0.961 . S
C875 C876 1.370 . S
C875 C877 1.363 . S
C875 H891 0.931 . S
C876 C875 1.370 . S
C876 C880 1.408 . S
C877 C875 1.363 . S
C877 C878 1.370 . S
C877 C881 1.524 . S
C878 C870 1.503 . S
C878 C877 1.370 . S
C878 C879 1.403 . S
C879 C878 1.403 . S
C879 C880 1.404 . S
C879 C882 1.539 . S
C880 C876 1.408 . S
C880 C879 1.404 . S
C880 H892 0.930 . S
C881 C877 1.524 . S
C881 H893 0.956 . S
C881 H894 0.961 . S
C881 H895 0.961 . S
C882 C879 1.539 . S
C882 H896 0.958 . S
C882 H897 0.961 . S
C882 H898 0.960 . S
H883 C867 0.931 . S
H884 C872 0.929 . S
H885 C873 0.960 . S
H886 C873 0.962 . S
H887 C873 0.960 . S
H888 C874 0.961 . S
H889 C874 0.961 . S
H890 C874 0.961 . S
H891 C875 0.931 . S
H892 C880 0.930 . S
H893 C881 0.956 . S
H894 C881 0.961 . S
H895 C881 0.961 . S
H896 C882 0.958 . S
H897 C882 0.961 . S
H898 C882 0.960 . S
C899 C900 1.391 . S
C899 C901 1.394 . S
C899 H915 0.931 . S
C900 C899 1.391 . S
C900 C904 1.376 . S
C901 C899 1.394 . S
C901 C902 1.369 . S
C901 C905 1.531 . S
C902 C901 1.369 . S
C902 C903 1.410 . S
C902 C910 1.503 . S
C903 C902 1.410 . S
C903 C904 1.392 . S
C903 C906 1.511 . S
C904 C900 1.376 . S
C904 C903 1.392 . S
C904 H916 0.929 . S
C905 C901 1.531 . S
C905 H917 0.960 . S
C905 H918 0.962 . S
C905 H919 0.960 . S
C906 C903 1.511 . S
C906 H920 0.961 . S
C906 H921 0.961 . S
C906 H922 0.961 . S
C907 C908 1.370 . S
C907 C909 1.363 . S
C907 H923 0.931 . S
C908 C907 1.370 . S
C908 C912 1.408 . S
C909 C907 1.363 . S
C909 C910 1.370 . S
C909 C913 1.524 . S
C910 C902 1.503 . S
C910 C909 1.370 . S
C910 C911 1.403 . S
C911 C910 1.403 . S
C911 C912 1.404 . S
C911 C914 1.539 . S
C912 C908 1.408 . S
C912 C911 1.404 . S
C912 H924 0.930 . S
C913 C909 1.524 . S
C913 H925 0.956 . S
C913 H926 0.961 . S
C913 H927 0.961 . S
C914 C911 1.539 . S
C914 H928 0.958 . S
C914 H929 0.961 . S
C914 H930 0.960 . S
H915 C899 0.931 . S
H916 C904 0.929 . S
H917 C905 0.960 . S
H918 C905 0.962 . S
H919 C905 0.960 . S
H920 C906 0.961 . S
H921 C906 0.961 . S
H922 C906 0.961 . S
H923 C907 0.931 . S
H924 C912 0.930 . S
H925 C913 0.956 . S
H926 C913 0.961 . S
H927 C913 0.961 . S
H928 C914 0.958 . S
H929 C914 0.961 . S
H930 C914 0.960 . S
C931 C932 1.391 . S
C931 C933 1.394 . S
C931 H947 0.931 . S
C932 C931 1.391 . S
C932 C936 1.376 . S
C933 C931 1.394 . S
C933 C934 1.369 . S
C933 C937 1.531 . S
C934 C933 1.369 . S
C934 C935 1.410 . S
C934 C942 1.503 . S
C935 C934 1.410 . S
C935 C936 1.392 . S
C935 C938 1.511 . S
C936 C932 1.376 . S
C936 C935 1.392 . S
C936 H948 0.929 . S
C937 C933 1.531 . S
C937 H949 0.960 . S
C937 H950 0.962 . S
C937 H951 0.960 . S
C938 C935 1.511 . S
C938 H952 0.961 . S
C938 H953 0.961 . S
C938 H954 0.961 . S
C939 C940 1.370 . S
C939 C941 1.363 . S
C939 H955 0.931 . S
C940 C939 1.370 . S
C940 C944 1.408 . S
C941 C939 1.363 . S
C941 C942 1.370 . S
C941 C945 1.524 . S
C942 C934 1.503 . S
C942 C941 1.370 . S
C942 C943 1.403 . S
C943 C942 1.403 . S
C943 C944 1.404 . S
C943 C946 1.539 . S
C944 C940 1.408 . S
C944 C943 1.404 . S
C944 H956 0.930 . S
C945 C941 1.524 . S
C945 H957 0.956 . S
C945 H958 0.961 . S
C945 H959 0.961 . S
C946 C943 1.539 . S
C946 H960 0.958 . S
C946 H961 0.961 . S
C946 H962 0.960 . S
H947 C931 0.931 . S
H948 C936 0.929 . S
H949 C937 0.960 . S
H950 C937 0.962 . S
H951 C937 0.960 . S
H952 C938 0.961 . S
H953 C938 0.961 . S
H954 C938 0.961 . S
H955 C939 0.931 . S
H956 C944 0.930 . S
H957 C945 0.956 . S
H958 C945 0.961 . S
H959 C945 0.961 . S
H960 C946 0.958 . S
H961 C946 0.961 . S
H962 C946 0.960 . S
C963 C964 1.391 . S
C963 C965 1.394 . S
C963 H979 0.931 . S
C964 C963 1.391 . S
C964 C968 1.376 . S
C965 C963 1.394 . S
C965 C966 1.369 . S
C965 C969 1.531 . S
C966 C965 1.369 . S
C966 C967 1.410 . S
C966 C974 1.503 . S
C967 C966 1.410 . S
C967 C968 1.392 . S
C967 C970 1.511 . S
C968 C964 1.376 . S
C968 C967 1.392 . S
C968 H980 0.929 . S
C969 C965 1.531 . S
C969 H981 0.960 . S
C969 H982 0.962 . S
C969 H983 0.960 . S
C970 C967 1.511 . S
C970 H984 0.961 . S
C970 H985 0.961 . S
C970 H986 0.961 . S
C971 C972 1.370 . S
C971 C973 1.363 . S
C971 H987 0.931 . S
C972 C971 1.370 . S
C972 C976 1.408 . S
C973 C971 1.363 . S
C973 C974 1.370 . S
C973 C977 1.524 . S
C974 C966 1.503 . S
C974 C973 1.370 . S
C974 C975 1.403 . S
C975 C974 1.403 . S
C975 C976 1.404 . S
C975 C978 1.539 . S
C976 C972 1.408 . S
C976 C975 1.404 . S
C976 H988 0.930 . S
C977 C973 1.524 . S
C977 H989 0.956 . S
C977 H990 0.961 . S
C977 H991 0.961 . S
C978 C975 1.539 . S
C978 H992 0.958 . S
C978 H993 0.961 . S
C978 H994 0.960 . S
H979 C963 0.931 . S
H980 C968 0.929 . S
H981 C969 0.960 . S
H982 C969 0.962 . S
H983 C969 0.960 . S
H984 C970 0.961 . S
H985 C970 0.961 . S
H986 C970 0.961 . S
H987 C971 0.931 . S
H988 C976 0.930 . S
H989 C977 0.956 . S
H990 C977 0.961 . S
H991 C977 0.961 . S
H992 C978 0.958 . S
H993 C978 0.961 . S
H994 C978 0.960 . S
C995 C996 1.391 . S
C995 C997 1.394 . S
C995 H1011 0.931 . S
C996 C995 1.391 . S
C996 C1000 1.376 . S
C997 C995 1.394 . S
C997 C998 1.369 . S
C997 C1001 1.531 . S
C998 C997 1.369 . S
C998 C999 1.410 . S
C998 C1006 1.503 . S
C999 C998 1.410 . S
C999 C1000 1.392 . S
C999 C1002 1.511 . S
C1000 C996 1.376 . S
C1000 C999 1.392 . S
C1000 H1012 0.929 . S
C1001 C997 1.531 . S
C1001 H1013 0.960 . S
C1001 H1014 0.962 . S
C1001 H1015 0.960 . S
C1002 C999 1.511 . S
C1002 H1016 0.961 . S
C1002 H1017 0.961 . S
C1002 H1018 0.961 . S
C1003 C1004 1.370 . S
C1003 C1005 1.363 . S
C1003 H1019 0.931 . S
C1004 C1003 1.370 . S
C1004 C1008 1.408 . S
C1005 C1003 1.363 . S
C1005 C1006 1.370 . S
C1005 C1009 1.524 . S
C1006 C998 1.503 . S
C1006 C1005 1.370 . S
C1006 C1007 1.403 . S
C1007 C1006 1.403 . S
C1007 C1008 1.404 . S
C1007 C1010 1.539 . S
C1008 C1004 1.408 . S
C1008 C1007 1.404 . S
C1008 H1020 0.930 . S
C1009 C1005 1.524 . S
C1009 H1021 0.956 . S
C1009 H1022 0.961 . S
C1009 H1023 0.961 . S
C1010 C1007 1.539 . S
C1010 H1024 0.958 . S
C1010 H1025 0.961 . S
C1010 H1026 0.960 . S
H1011 C995 0.931 . S
H1012 C1000 0.929 . S
H1013 C1001 0.960 . S
H1014 C1001 0.962 . S
H1015 C1001 0.960 . S
H1016 C1002 0.961 . S
H1017 C1002 0.961 . S
H1018 C1002 0.961 . S
H1019 C1003 0.931 . S
H1020 C1008 0.930 . S
H1021 C1009 0.956 . S
H1022 C1009 0.961 . S
H1023 C1009 0.961 . S
H1024 C1010 0.958 . S
H1025 C1010 0.961 . S
H1026 C1010 0.960 . S
C1027 C1028 1.391 . S
C1027 C1029 1.394 . S
C1027 H1043 0.931 . S
C1028 C1027 1.391 . S
C1028 C1032 1.376 . S
C1029 C1027 1.394 . S
C1029 C1030 1.369 . S
C1029 C1033 1.531 . S
C1030 C1029 1.369 . S
C1030 C1031 1.410 . S
C1030 C1038 1.503 . S
C1031 C1030 1.410 . S
C1031 C1032 1.392 . S
C1031 C1034 1.511 . S
C1032 C1028 1.376 . S
C1032 C1031 1.392 . S
C1032 H1044 0.929 . S
C1033 C1029 1.531 . S
C1033 H1045 0.960 . S
C1033 H1046 0.962 . S
C1033 H1047 0.960 . S
C1034 C1031 1.511 . S
C1034 H1048 0.961 . S
C1034 H1049 0.961 . S
C1034 H1050 0.961 . S
C1035 C1036 1.370 . S
C1035 C1037 1.363 . S
C1035 H1051 0.931 . S
C1036 C1035 1.370 . S
C1036 C1040 1.408 . S
C1037 C1035 1.363 . S
C1037 C1038 1.370 . S
C1037 C1041 1.524 . S
C1038 C1030 1.503 . S
C1038 C1037 1.370 . S
C1038 C1039 1.403 . S
C1039 C1038 1.403 . S
C1039 C1040 1.404 . S
C1039 C1042 1.539 . S
C1040 C1036 1.408 . S
C1040 C1039 1.404 . S
C1040 H1052 0.930 . S
C1041 C1037 1.524 . S
C1041 H1053 0.956 . S
C1041 H1054 0.961 . S
C1041 H1055 0.961 . S
C1042 C1039 1.539 . S
C1042 H1056 0.958 . S
C1042 H1057 0.961 . S
C1042 H1058 0.960 . S
H1043 C1027 0.931 . S
H1044 C1032 0.929 . S
H1045 C1033 0.960 . S
H1046 C1033 0.962 . S
H1047 C1033 0.960 . S
H1048 C1034 0.961 . S
H1049 C1034 0.961 . S
H1050 C1034 0.961 . S
H1051 C1035 0.931 . S
H1052 C1040 0.930 . S
H1053 C1041 0.956 . S
H1054 C1041 0.961 . S
H1055 C1041 0.961 . S
H1056 C1042 0.958 . S
H1057 C1042 0.961 . S
H1058 C1042 0.960 . S
C1059 C1060 1.391 . S
C1059 C1061 1.394 . S
C1059 H1075 0.931 . S
C1060 C1059 1.391 . S
C1060 C1064 1.376 . S
C1061 C1059 1.394 . S
C1061 C1062 1.369 . S
C1061 C1065 1.531 . S
C1062 C1061 1.369 . S
C1062 C1063 1.410 . S
C1062 C1070 1.503 . S
C1063 C1062 1.410 . S
C1063 C1064 1.392 . S
C1063 C1066 1.511 . S
C1064 C1060 1.376 . S
C1064 C1063 1.392 . S
C1064 H1076 0.929 . S
C1065 C1061 1.531 . S
C1065 H1077 0.960 . S
C1065 H1078 0.962 . S
C1065 H1079 0.960 . S
C1066 C1063 1.511 . S
C1066 H1080 0.961 . S
C1066 H1081 0.961 . S
C1066 H1082 0.961 . S
C1067 C1068 1.370 . S
C1067 C1069 1.363 . S
C1067 H1083 0.931 . S
C1068 C1067 1.370 . S
C1068 C1072 1.408 . S
C1069 C1067 1.363 . S
C1069 C1070 1.370 . S
C1069 C1073 1.524 . S
C1070 C1062 1.503 . S
C1070 C1069 1.370 . S
C1070 C1071 1.403 . S
C1071 C1070 1.403 . S
C1071 C1072 1.404 . S
C1071 C1074 1.539 . S
C1072 C1068 1.408 . S
C1072 C1071 1.404 . S
C1072 H1084 0.930 . S
C1073 C1069 1.524 . S
C1073 H1085 0.956 . S
C1073 H1086 0.961 . S
C1073 H1087 0.961 . S
C1074 C1071 1.539 . S
C1074 H1088 0.958 . S
C1074 H1089 0.961 . S
C1074 H1090 0.960 . S
H1075 C1059 0.931 . S
H1076 C1064 0.929 . S
H1077 C1065 0.960 . S
H1078 C1065 0.962 . S
H1079 C1065 0.960 . S
H1080 C1066 0.961 . S
H1081 C1066 0.961 . S
H1082 C1066 0.961 . S
H1083 C1067 0.931 . S
H1084 C1072 0.930 . S
H1085 C1073 0.956 . S
H1086 C1073 0.961 . S
H1087 C1073 0.961 . S
H1088 C1074 0.958 . S
H1089 C1074 0.961 . S
H1090 C1074 0.960 . S
C1091 C1092 1.391 . S
C1091 C1093 1.394 . S
C1091 H1107 0.931 . S
C1092 C1091 1.391 . S
C1092 C1096 1.376 . S
C1093 C1091 1.394 . S
C1093 C1094 1.369 . S
C1093 C1097 1.531 . S
C1094 C1093 1.369 . S
C1094 C1095 1.410 . S
C1094 C1102 1.503 . S
C1095 C1094 1.410 . S
C1095 C1096 1.392 . S
C1095 C1098 1.511 . S
C1096 C1092 1.376 . S
C1096 C1095 1.392 . S
C1096 H1108 0.929 . S
C1097 C1093 1.531 . S
C1097 H1109 0.960 . S
C1097 H1110 0.962 . S
C1097 H1111 0.960 . S
C1098 C1095 1.511 . S
C1098 H1112 0.961 . S
C1098 H1113 0.961 . S
C1098 H1114 0.961 . S
C1099 C1100 1.370 . S
C1099 C1101 1.363 . S
C1099 H1115 0.931 . S
C1100 C1099 1.370 . S
C1100 C1104 1.408 . S
C1101 C1099 1.363 . S
C1101 C1102 1.370 . S
C1101 C1105 1.524 . S
C1102 C1094 1.503 . S
C1102 C1101 1.370 . S
C1102 C1103 1.403 . S
C1103 C1102 1.403 . S
C1103 C1104 1.404 . S
C1103 C1106 1.539 . S
C1104 C1100 1.408 . S
C1104 C1103 1.404 . S
C1104 H1116 0.930 . S
C1105 C1101 1.524 . S
C1105 H1117 0.956 . S
C1105 H1118 0.961 . S
C1105 H1119 0.961 . S
C1106 C1103 1.539 . S
C1106 H1120 0.958 . S
C1106 H1121 0.961 . S
C1106 H1122 0.960 . S
H1107 C1091 0.931 . S
H1108 C1096 0.929 . S
H1109 C1097 0.960 . S
H1110 C1097 0.962 . S
H1111 C1097 0.960 . S
H1112 C1098 0.961 . S
H1113 C1098 0.961 . S
H1114 C1098 0.961 . S
H1115 C1099 0.931 . S
H1116 C1104 0.930 . S
H1117 C1105 0.956 . S
H1118 C1105 0.961 . S
H1119 C1105 0.961 . S
H1120 C1106 0.958 . S
H1121 C1106 0.961 . S
H1122 C1106 0.960 . S
C364 C280 1.057 . S
C356 C17 1.107 . S
C396 C316 1.609 . S
C388 C55 1.731 . S
C428 C281 1.347 . S
C420 C87 1.373 . S
C460 C311 1.479 . S
C452 C113 1.525 . S
C492 C278 1.435 . S
C484 C145 1.411 . S
C516 C183 1.551 . S
C524 C314 1.634 . S
C548 C215 1.188 . S
C556 C283 1.119 . S
C588 C313 1.388 . S
C580 C247 1.392 . S
C620 C317 1.349 . S
C612 C23 1.325 . S
C652 C282 1.475 . S
C644 C49 1.569 . S
C684 C310 1.690 . S
C676 C81 1.691 . S
C716 C279 1.109 . S
C708 C125 1.229 . S
C748 C312 1.554 . S
C740 C151 1.578 . S
C772 C189 1.307 . S
C780 C277 1.397 . S
C804 C209 1.581 . S
C812 C315 1.538 . S
C844 C284 1.119 . S
C836 C241 1.140 . S
C876 C346 1.664 . S
C868 C29 1.716 . S
C900 C157 1.939 . S
C908 C349 1.900 . S
C940 C348 1.612 . S
C932 C177 1.566 . S
C964 C221 2.090 . S
C972 C347 2.078 . S
C1004 C350 1.665 . S
C996 C253 1.756 . S
C1028 C93 1.762 . S
C1036 C344 1.713 . S
C1068 C343 1.962 . S
C1060 C119 1.982 . S
C1092 C61 2.046 . S
C1100 C345 1.908 . S
