# Generated by pormake.
# Topology anh, (6,3)-cn, num edge types: 1
# Building blocks:
#     Node 0, Type 0, BuildingBlock: BETFAJ_clean_sbu_0, # of connection points: 6
#     Node 1, Type 0, BuildingBlock: BETFAJ_clean_sbu_0, # of connection points: 6
#     Node 2, Type 0, BuildingBlock: BETFAJ_clean_sbu_0, # of connection points: 6
#     Node 3, Type 1, BuildingBlock: CUQRIR_clean_linker_1, # of connection points: 3
#     Node 4, Type 1, BuildingBlock: CUQRIR_clean_linker_1, # of connection points: 3
#     Node 5, Type 1, BuildingBlock: CUQRIR_clean_linker_1, # of connection points: 3
#     Node 6, Type 1, BuildingBlock: CUQRIR_clean_linker_1, # of connection points: 3
#     Node 7, Type 1, BuildingBlock: CUQRIR_clean_linker_1, # of connection points: 3
#     Node 8, Type 1, BuildingBlock: CUQRIR_clean_linker_1, # of connection points: 3
#     Edge 9, Type (0, 1), BuildingBlock: KIFKEQ_clean_linker_1, # of connection points: 2
#     Edge 10, Type (0, 1), BuildingBlock: KIFKEQ_clean_linker_1, # of connection points: 2
#     Edge 11, Type (0, 1), BuildingBlock: KIFKEQ_clean_linker_1, # of connection points: 2
#     Edge 12, Type (0, 1), BuildingBlock: KIFKEQ_clean_linker_1, # of connection points: 2
#     Edge 13, Type (0, 1), BuildingBlock: KIFKEQ_clean_linker_1, # of connection points: 2
#     Edge 14, Type (0, 1), BuildingBlock: KIFKEQ_clean_linker_1, # of connection points: 2
#     Edge 15, Type (0, 1), BuildingBlock: KIFKEQ_clean_linker_1, # of connection points: 2
#     Edge 16, Type (0, 1), BuildingBlock: KIFKEQ_clean_linker_1, # of connection points: 2
#     Edge 17, Type (0, 1), BuildingBlock: KIFKEQ_clean_linker_1, # of connection points: 2
#     Edge 18, Type (0, 1), BuildingBlock: KIFKEQ_clean_linker_1, # of connection points: 2
#     Edge 19, Type (0, 1), BuildingBlock: KIFKEQ_clean_linker_1, # of connection points: 2
#     Edge 20, Type (0, 1), BuildingBlock: KIFKEQ_clean_linker_1, # of connection points: 2
#     Edge 21, Type (0, 1), BuildingBlock: KIFKEQ_clean_linker_1, # of connection points: 2
#     Edge 22, Type (0, 1), BuildingBlock: KIFKEQ_clean_linker_1, # of connection points: 2
#     Edge 23, Type (0, 1), BuildingBlock: KIFKEQ_clean_linker_1, # of connection points: 2
#     Edge 24, Type (0, 1), BuildingBlock: KIFKEQ_clean_linker_1, # of connection points: 2
#     Edge 25, Type (0, 1), BuildingBlock: KIFKEQ_clean_linker_1, # of connection points: 2
#     Edge 26, Type (0, 1), BuildingBlock: KIFKEQ_clean_linker_1, # of connection points: 2
# Relax obj value: 0.200
# Max RMSD: 0.217
# Mean RMSD: 0.164
data_MOF--net-anh--node1-BETFAJ_clean_sbu_0--node2-CUQRIR_clean_linker_1--edge1-KIFKEQ_clean_linker_1
_symmetry_space_group_name_H-M    P1
_symmetry_Int_Tables_number       1
_symmetry_cell_setting            triclinic
loop_
_symmetry_equiv_pos_as_xyz
'x, y, z'
_cell_length_a     29.188359
_cell_length_b     36.227309
_cell_length_c     47.320345
_cell_angle_alpha  88.524698
_cell_angle_beta   88.997183
_cell_angle_gamma 130.53016
loop_
_atom_site_label
_atom_site_type_symbol
_atom_site_fract_x
_atom_site_fract_y
_atom_site_fract_z
_atom_type_partial_charge
Sm0 Sm 0.1555 0.47921 0.15705 0.0
Sm1 Sm 1.07741 0.49649 0.15143 0.0
C2 C 0.22384 0.45605 0.1624 0.0
C3 C 0.27385 0.47733 0.18136 0.0
C4 C 0.30499 0.52461 0.1905 0.0
C5 C 0.35066 0.54433 0.20964 0.0
C6 C 0.36614 0.51715 0.21992 0.0
C7 C 0.33309 0.46905 0.21151 0.0
C8 C 0.28719 0.44929 0.19245 0.0
C9 C 0.13648 0.50293 0.20846 0.0
C10 C 0.22028 0.59169 0.15297 0.0
C11 C 1.00608 0.51673 0.14702 0.0
C12 C 0.94932 0.48916 0.13228 0.0
C13 C 0.9077 0.43801 0.13456 0.0
C14 C 0.85631 0.4117 0.11862 0.0
C15 C 0.8462 0.43608 0.09983 0.0
C16 C 0.88858 0.48722 0.09715 0.0
C17 C 0.93968 0.51351 0.11328 0.0
C18 C 0.09779 0.47332 0.09988 0.0
C19 C 1.01205 0.38425 0.15823 0.0
O20 O 0.23226 0.48475 0.14168 0.0
O21 O 0.17109 0.43139 0.1754 0.0
O22 O 0.09543 0.47413 0.19186 0.0
O23 O 0.18848 0.52115 0.19757 0.0
O24 O 0.22847 0.56131 0.14614 0.0
O25 O 0.16543 0.57427 0.16035 0.0
O26 O 1.00597 0.49539 0.16975 0.0
O27 O 1.05412 0.53766 0.13051 0.0
O28 O 0.1382 0.50239 0.11668 0.0
O29 O 1.0452 0.45325 0.11111 0.0
O30 O 1.00497 0.41547 0.16428 0.0
O31 O 1.06605 0.40077 0.14974 0.0
H32 H 0.29456 0.5466 0.18257 0.0
H33 H 0.37522 0.58139 0.21567 0.0
H34 H 0.34467 0.44741 0.21849 0.0
H35 H 0.26274 0.41242 0.18607 0.0
H36 H 0.91488 0.41826 0.14858 0.0
H37 H 0.82413 0.37239 0.12121 0.0
H38 H 0.88115 0.50703 0.08332 0.0
H39 H 0.97181 0.55285 0.11084 0.0
Sm40 Sm 0.71384 0.04353 0.47669 0.0
Sm41 Sm 0.63229 0.0645 0.46677 0.0
C42 C 0.76409 1.00878 0.49701 0.0
C43 C 0.74799 0.96149 0.50401 0.0
C44 C 0.765 0.9546 0.52983 0.0
C45 C 0.75197 0.91075 0.53669 0.0
C46 C 0.72195 0.87294 0.51775 0.0
C47 C 0.70421 0.87968 0.49202 0.0
C48 C 0.71683 0.92344 0.48527 0.0
C49 C 0.70539 0.05849 0.42044 0.0
C50 C 0.56764 0.95189 0.46865 0.0
C51 C 0.58109 0.10049 0.4508 0.0
C52 C 0.59151 0.14495 0.45696 0.0
C53 C 0.56386 0.15845 0.44121 0.0
C54 C 0.57267 0.20017 0.4475 0.0
C55 C 0.60922 0.22908 0.46974 0.0
C56 C 0.63757 0.21559 0.48515 0.0
C57 C 0.62893 0.17403 0.47876 0.0
C58 C 0.64216 0.04994 0.52291 0.0
C59 C 0.78014 0.15736 0.47021 0.0
O60 O 0.73905 0.02071 0.51312 0.0
O61 O 0.76774 0.02079 0.47024 0.0
O62 O 0.66174 0.03388 0.43846 0.0
O63 O 0.75547 0.07461 0.43156 0.0
O64 O 0.61723 0.96652 0.48087 0.0
O65 O 0.56543 0.98401 0.45675 0.0
O66 O 0.62385 0.10674 0.43573 0.0
O67 O 0.56042 0.06901 0.47214 0.0
O68 O 0.6855 0.07541 0.50483 0.0
O69 O 0.59156 0.032 0.5118 0.0
O70 O 0.72684 0.14169 0.46275 0.0
O71 O 0.78721 0.1266 0.47926 0.0
H72 H 0.78904 0.98343 0.5446 0.0
H73 H 0.76674 0.9069 0.55654 0.0
H74 H 0.68037 0.85103 0.47715 0.0
H75 H 0.70259 0.92758 0.46532 0.0
H76 H 0.5352 0.13658 0.42416 0.0
H77 H 0.55091 0.20981 0.43488 0.0
H78 H 0.66533 0.23645 0.50265 0.0
H79 H 0.65085 0.16421 0.4911 0.0
Sm80 Sm 0.66019 0.62179 0.83484 0.0
Sm81 Sm 0.57418 0.51554 0.84594 0.0
C82 C 0.71513 0.71039 0.8127 0.0
C83 C 0.70204 0.74316 0.80678 0.0
C84 C 0.68625 0.74677 0.77957 0.0
C85 C 0.67626 0.77897 0.7734 0.0
C86 C 0.6822 0.80871 0.79423 0.0
C87 C 0.69768 0.80489 0.82151 0.0
C88 C 0.70762 0.77262 0.82769 0.0
C89 C 0.64484 0.59505 0.89097 0.0
C90 C 0.51095 0.56444 0.84655 0.0
C91 C 0.51996 0.42419 0.86133 0.0
C92 C 0.53027 0.39078 0.85311 0.0
C93 C 0.5402 0.3685 0.87384 0.0
C94 C 0.55333 0.33903 0.86612 0.0
C95 C 0.55671 0.33112 0.83744 0.0
C96 C 0.54574 0.35294 0.81679 0.0
C97 C 0.53302 0.38254 0.82449 0.0
C98 C 0.5922 0.54405 0.7896 0.0
C99 C 0.72417 0.57323 0.84092 0.0
O100 O 0.68785 0.67192 0.79762 0.0
O101 O 0.71927 0.70169 0.83913 0.0
O102 O 0.60267 0.57562 0.87399 0.0
O103 O 0.69682 0.63096 0.87885 0.0
O104 O 0.56502 0.60346 0.83565 0.0
O105 O 0.50404 0.52595 0.85564 0.0
O106 O 0.56163 0.46094 0.87609 0.0
O107 O 0.49998 0.43636 0.84192 0.0
O108 O 0.6332 0.56185 0.80703 0.0
O109 O 0.5398 0.50914 0.80147 0.0
O110 O 0.66816 0.53347 0.84877 0.0
O111 O 0.73356 0.61292 0.83192 0.0
H112 H 0.68202 0.72492 0.76289 0.0
H113 H 0.66371 0.78045 0.75227 0.0
H114 H 0.70357 0.82771 0.83797 0.0
H115 H 0.72041 0.77127 0.84879 0.0
H116 H 0.53874 0.37451 0.89603 0.0
H117 H 0.56215 0.32334 0.88261 0.0
H118 H 0.54679 0.34706 0.79455 0.0
H119 H 0.52588 0.3993 0.80791 0.0
C120 C 0.61572 0.98793 0.1718 0.0
N121 N 0.64903 0.02399 0.19038 0.0
N122 N 0.57016 0.94479 0.18562 0.0
C123 C 0.62672 0.99467 0.14026 0.0
C124 C 0.57658 0.95595 0.21312 0.0
N125 N 0.62379 1.00367 0.21599 0.0
C126 C 0.53757 0.92015 0.23751 0.0
H127 H 0.64506 0.03151 0.13286 0.0
H128 H 0.58455 0.96683 0.12942 0.0
H129 H 0.66017 0.9906 0.13446 0.0
H130 H 0.50035 0.88322 0.23046 0.0
H131 H 0.51794 0.9329 0.24987 0.0
H132 H 0.56594 0.91847 0.25184 0.0
C133 C 0.66143 0.5443 0.53752 0.0
N134 N 0.65989 0.56854 0.55842 0.0
N135 N 0.64726 0.50271 0.54813 0.0
C136 C 0.6713 0.55879 0.50649 0.0
C137 C 0.63705 0.50247 0.57616 0.0
N138 N 0.64402 0.54207 0.58239 0.0
C139 C 0.62452 0.46527 0.59775 0.0
H140 H 0.6477 0.52647 0.49344 0.0
H141 H 0.7203 0.58314 0.5008 0.0
H142 H 0.65511 0.57861 0.50148 0.0
H143 H 0.64389 0.44892 0.59039 0.0
H144 H 0.57501 0.4359 0.60112 0.0
H145 H 0.64359 0.48187 0.61831 0.0
C146 C 0.11767 0.56767 0.85214 0.0
N147 N 0.14555 0.557 0.86976 0.0
N148 N 1.06896 0.55942 0.86554 0.0
C149 C 0.13581 0.58373 0.82157 0.0
C150 C 1.06893 0.5437 0.89185 0.0
N151 N 0.11396 0.54209 0.89438 0.0
C152 C 1.02473 0.53033 0.9156 0.0
H153 H 0.17372 0.62361 0.81997 0.0
H154 H 0.09773 0.57548 0.80983 0.0
H155 H 0.15143 0.56581 0.8119 0.0
H156 H 0.98614 0.49062 0.91585 0.0
H157 H 1.0072 0.54962 0.91271 0.0
H158 H 1.0458 0.53898 0.93639 0.0
C159 C 0.1682 0.55501 0.45749 0.0
N160 N 0.12945 0.52042 0.43902 0.0
N161 N 0.20606 0.59985 0.44414 0.0
C162 C 0.16752 0.54581 0.48866 0.0
C163 C 0.18906 0.59148 0.41708 0.0
N164 N 0.14249 0.54364 0.41398 0.0
C165 C 0.22041 0.62975 0.39321 0.0
H166 H 0.187 0.57907 0.50028 0.0
H167 H 0.19532 0.53539 0.49232 0.0
H168 H 0.12085 0.51571 0.49707 0.0
H169 H 0.26569 0.66301 0.39888 0.0
H170 H 0.19256 0.63967 0.38807 0.0
H171 H 0.22519 0.61543 0.37397 0.0
C172 C 0.64023 0.08572 0.77568 0.0
N173 N 0.64827 0.06491 0.75499 0.0
N174 N 0.64397 0.12255 0.76466 0.0
C175 C 0.63115 0.07151 0.80668 0.0
C176 C 0.65425 0.12323 0.73658 0.0
N177 N 0.65742 0.08855 0.73071 0.0
C178 C 0.65813 0.15632 0.71481 0.0
H179 H 0.58236 0.04126 0.81166 0.0
H180 H 0.64652 0.10246 0.81973 0.0
H181 H 0.65585 0.05882 0.81223 0.0
H182 H 0.70353 0.19288 0.71502 0.0
H183 H 0.62431 0.1602 0.72016 0.0
H184 H 0.65122 0.143 0.69316 0.0
C185 C 0.60599 0.48603 0.13663 0.0
N186 N 0.60118 0.4837 0.10824 0.0
N187 N 0.60676 0.52133 0.14608 0.0
C188 C 0.61528 0.45684 0.15481 0.0
C189 C 0.6018 0.5402 0.12238 0.0
N190 N 0.59946 0.51782 0.09931 0.0
C191 C 0.59384 0.57729 0.12213 0.0
H192 H 0.57129 0.41965 0.15889 0.0
H193 H 0.63404 0.47364 0.17535 0.0
H194 H 0.64631 0.45363 0.14374 0.0
H195 H 0.63881 0.61415 0.12256 0.0
H196 H 0.56661 0.57162 0.14108 0.0
H197 H 0.57141 0.57542 0.10286 0.0
H198 H 0.47439 0.60734 0.20759 0.0
H199 H 0.38876 0.48194 0.26498 0.0
H200 H 0.56879 0.62553 0.21125 0.0
H201 H 0.48517 0.50103 0.26931 0.0
H202 H 0.52741 0.45553 0.18656 0.0
H203 H 0.49835 0.47244 0.22888 0.0
H204 H 0.64881 0.62638 0.21357 0.0
H205 H 0.67705 0.6082 0.17044 0.0
C206 C 0.47632 0.5851 0.22237 0.0
C207 C 0.42338 0.54112 0.23435 0.0
C208 C 0.53128 0.59572 0.22466 0.0
C209 C 0.53312 0.56173 0.23837 0.0
C210 C 0.48402 0.5259 0.25685 0.0
C211 C 0.42862 0.51476 0.2543 0.0
C212 C 0.55572 0.49272 0.19297 0.0
C213 C 0.60265 0.53076 0.17487 0.0
C214 C 0.53951 0.50278 0.21753 0.0
C215 C 0.56929 0.55132 0.22402 0.0
C216 C 0.62326 0.58874 0.20858 0.0
C217 C 0.63929 0.57853 0.18383 0.0
H218 H 0.90164 0.20474 0.46779 0.0
H219 H 0.77747 0.23137 0.46739 0.0
H220 H 0.98629 0.29196 0.46076 0.0
H221 H 0.86145 0.31826 0.46185 0.0
H222 H 1.01513 0.46682 0.42227 0.0
H223 H 0.93291 0.37973 0.42989 0.0
H224 H 1.04865 0.3695 0.47852 0.0
H225 H 0.13218 0.45643 0.46873 0.0
C226 C 0.89241 0.22925 0.46661 0.0
C227 C 0.83256 0.2108 0.46796 0.0
C228 C 0.94113 0.27954 0.4627 0.0
C229 C 0.93146 0.31295 0.46041 0.0
C230 C 0.87139 0.29421 0.46265 0.0
C231 C 0.82285 0.24406 0.46611 0.0
C232 C 1.02312 0.4458 0.4343 0.0
C233 C 1.08024 0.46869 0.4449 0.0
C234 C 0.97555 0.39572 0.43913 0.0
C235 C 0.98315 0.36677 0.45515 0.0
C236 C 1.04059 0.38993 0.46586 0.0
C237 C 0.08849 0.4401 0.46066 0.0
H238 H 0.71883 0.86622 0.74573 0.0
H239 H 0.62673 0.83231 0.8271 0.0
H240 H 0.70651 0.92527 0.73463 0.0
H241 H 0.61671 0.89295 0.81647 0.0
H242 H 0.56043 0.97489 0.77846 0.0
H243 H 0.56546 0.91055 0.78698 0.0
H244 H 0.74586 1.00432 0.74845 0.0
H245 H 0.73996 0.06796 0.74007 0.0
C246 C 0.69564 0.87112 0.76122 0.0
C247 C 0.67378 0.84437 0.78734 0.0
C248 C 0.68922 0.90549 0.75497 0.0
C249 C 0.6608 0.91412 0.77466 0.0
C250 C 0.6383 0.88697 0.80065 0.0
C251 C 0.64473 0.85258 0.80691 0.0
C252 C 0.60082 0.98129 0.77176 0.0
C253 C 0.64964 0.02599 0.75843 0.0
C254 C 0.60396 0.9447 0.77671 0.0
C255 C 0.65613 0.95216 0.76843 0.0
C256 C 0.70458 0.99687 0.75469 0.0
C257 C 0.70131 0.03334 0.74978 0.0
H258 H 0.73473 0.36861 0.12484 0.0
H259 H 0.82561 0.44452 0.04469 0.0
H260 H 0.6463 0.35509 0.11066 0.0
H261 H 0.73538 0.42945 0.02972 0.0
H262 H 0.53347 0.38647 0.10771 0.0
H263 H 0.56736 0.34514 0.08852 0.0
H264 H 0.72578 0.4828 0.05059 0.0
H265 H 0.69114 0.52254 0.06948 0.0
C266 C 0.73452 0.37996 0.10347 0.0
C267 C 0.78776 0.40972 0.08638 0.0
C268 C 0.68328 0.37192 0.09511 0.0
C269 C 0.68505 0.39386 0.06962 0.0
C270 C 0.73375 0.4141 0.05005 0.0
C271 C 0.78547 0.42286 0.0586 0.0
C272 C 0.57427 0.40697 0.09429 0.0
C273 C 0.61086 0.45756 0.09056 0.0
C274 C 0.59359 0.3835 0.08321 0.0
C275 C 0.65036 0.41077 0.06884 0.0
C276 C 0.68196 0.46023 0.0616 0.0
C277 C 0.66252 0.48345 0.0726 0.0
H278 H 0.46323 0.90949 0.44124 0.0
H279 H 0.5502 0.87377 0.49385 0.0
H280 H 0.37596 0.82377 0.4391 0.0
H281 H 0.46147 0.7874 0.49249 0.0
H282 H 0.31792 0.63455 0.45514 0.0
H283 H 0.40599 0.71937 0.46322 0.0
H284 H 0.29101 0.75553 0.46454 0.0
H285 H 0.20433 0.67116 0.45537 0.0
C286 C 0.46363 0.88337 0.45261 0.0
C287 C 0.51407 0.8989 0.46776 0.0
C288 C 0.41301 0.83388 0.4516 0.0
C289 C 0.41074 0.79805 0.46587 0.0
C290 C 0.46135 0.81358 0.48101 0.0
C291 C 0.51232 0.86329 0.48192 0.0
C292 C 0.31174 0.66066 0.45795 0.0
C293 C 0.25451 0.64648 0.45505 0.0
C294 C 0.36211 0.70935 0.46249 0.0
C295 C 0.3563 0.745 0.46421 0.0
C296 C 0.29798 0.72975 0.46271 0.0
C297 C 0.24797 0.68127 0.45794 0.0
H298 H 0.52165 0.24695 0.86367 0.0
H299 H 0.62757 0.3468 0.79182 0.0
H300 H 0.5465 0.19748 0.84907 0.0
H301 H 0.64937 0.29609 0.77638 0.0
H302 H 0.723 0.21999 0.76624 0.0
H303 H 0.70499 0.27131 0.78634 0.0
H304 H 0.52461 0.14257 0.81393 0.0
H305 H 0.54425 0.0918 0.79441 0.0
C306 C 0.55035 0.25849 0.84481 0.0
C307 C 0.57231 0.3009 0.8289 0.0
C308 C 0.56402 0.22973 0.83622 0.0
C309 C 0.59994 0.24257 0.81147 0.0
C310 C 0.6223 0.28523 0.79576 0.0
C311 C 0.60893 0.31404 0.8044 0.0
C312 C 0.67987 0.20301 0.77688 0.0
C313 C 0.63493 0.15223 0.77882 0.0
C314 C 0.66922 0.23222 0.78823 0.0
C315 C 0.613 0.21126 0.80154 0.0
C316 C 0.56865 0.16014 0.80416 0.0
C317 C 0.57964 0.13097 0.79297 0.0
H318 H 0.73926 0.82373 0.48276 0.0
H319 H 0.68009 0.81911 0.56805 0.0
H320 H 0.7242 0.75028 0.49403 0.0
H321 H 0.66584 0.74587 0.57947 0.0
H322 H 0.58542 0.58434 0.57587 0.0
H323 H 0.59984 0.65841 0.56709 0.0
H324 H 0.77159 0.72683 0.52403 0.0
H325 H 0.75717 0.65301 0.53332 0.0
C326 C 0.72265 0.80684 0.50387 0.0
C327 C 0.71088 0.82728 0.5245 0.0
C328 C 0.71464 0.76505 0.51042 0.0
C329 C 0.69418 0.74241 0.5377 0.0
C330 C 0.68142 0.76234 0.55823 0.0
C331 C 0.69001 0.80447 0.55175 0.0
C332 C 0.6266 0.61562 0.565 0.0
C333 C 0.67016 0.61315 0.55516 0.0
C334 C 0.63484 0.65791 0.55988 0.0
C335 C 0.68661 0.69834 0.54461 0.0
C336 C 0.73074 0.69604 0.5354 0.0
C337 C 0.72267 0.65398 0.54074 0.0
H338 H 0.72209 0.49914 0.86108 0.0
H339 H 0.8476 0.64525 0.82475 0.0
H340 H 0.80318 0.49682 0.86479 0.0
H341 H 0.92933 0.64277 0.82754 0.0
H342 H 1.08201 0.64099 0.85438 0.0
H343 H 1.00228 0.64541 0.848 0.0
H344 H 0.8698 0.48865 0.85019 0.0
H345 H 0.94957 0.48519 0.85749 0.0
C346 C 0.767 0.53101 0.85358 0.0
C347 C 0.77661 0.57241 0.84255 0.0
C348 C 0.81459 0.52959 0.85552 0.0
C349 C 0.87523 0.56943 0.84638 0.0
C350 C 0.88473 0.61097 0.83529 0.0
C351 C 0.83696 0.61241 0.83347 0.0
C352 C 1.03603 0.60749 0.85276 0.0
C353 C 1.0235 0.56269 0.85574 0.0
C354 C 0.98929 0.60984 0.84924 0.0
C355 C 0.92714 0.56745 0.84867 0.0
C356 C 0.91546 0.52274 0.85097 0.0
C357 C 0.96202 0.52051 0.85465 0.0
H358 H 0.34034 0.63958 0.14158 0.0
H359 H 0.22055 0.66484 0.16745 0.0
H360 H 0.42678 0.72582 0.14527 0.0
H361 H 0.30697 0.75085 0.17177 0.0
H362 H 0.46995 0.91161 0.15848 0.0
H363 H 0.38608 0.827 0.14744 0.0
H364 H 0.48463 0.78492 0.17983 0.0
H365 H 0.56821 0.86966 0.1901 0.0
C366 C 0.3323 0.66348 0.148 0.0
C367 C 0.27313 0.64491 0.15421 0.0
C368 C 0.38211 0.71311 0.1503 0.0
C369 C 0.37443 0.74585 0.15888 0.0
C370 C 0.31507 0.72727 0.16469 0.0
C371 C 0.26528 0.67764 0.1624 0.0
C372 C 0.47392 0.88424 0.16244 0.0
C373 C 0.52574 0.89708 0.17467 0.0
C374 C 0.42563 0.83561 0.15655 0.0
C375 C 0.42792 0.79853 0.16285 0.0
C376 C 0.48107 0.81212 0.17425 0.0
C377 C 0.52915 0.86067 0.18013 0.0
H378 H 0.71078 0.31716 0.48693 0.0
H379 H 0.52335 0.2386 0.47032 0.0
H380 H 0.71956 0.38458 0.5034 0.0
H381 H 0.53309 0.30706 0.48526 0.0
H382 H 0.5503 0.40737 0.54995 0.0
H383 H 0.54198 0.3428 0.52854 0.0
H384 H 0.72161 0.45016 0.49024 0.0
H385 H 0.73017 0.51444 0.51295 0.0
C386 C 0.67151 0.31434 0.4866 0.0
C387 C 0.61619 0.2721 0.47751 0.0
C388 C 0.6768 0.35337 0.49568 0.0
C389 C 0.62697 0.3513 0.49581 0.0
C390 C 0.57219 0.3097 0.48587 0.0
C391 C 0.56682 0.27059 0.47693 0.0
C392 C 0.5878 0.4169 0.53692 0.0
C393 C 0.64098 0.46556 0.53321 0.0
C394 C 0.58296 0.38009 0.52438 0.0
C395 C 0.63117 0.39114 0.50763 0.0
C396 C 0.6839 0.44022 0.50329 0.0
C397 C 0.68871 0.47707 0.51598 0.0
H398 H 0.3893 0.48724 0.86044 0.0
H399 H 0.50869 0.64035 0.83803 0.0
H400 H 0.30453 0.48501 0.86382 0.0
H401 H 0.42435 0.63928 0.8426 0.0
H402 H 0.2572 0.62876 0.8423 0.0
H403 H 0.34231 0.6309 0.83562 0.0
H404 H 0.2378 0.48992 0.87937 0.0
H405 H 0.15289 0.487 0.88383 0.0
C406 C 0.398 0.52091 0.85643 0.0
C407 C 0.45748 0.56395 0.84894 0.0
C408 C 0.34833 0.51987 0.85861 0.0
C409 C 0.35472 0.56205 0.85385 0.0
C410 C 0.41472 0.60525 0.84633 0.0
C411 C 0.46435 0.60608 0.8438 0.0
C412 C 0.25195 0.59779 0.85007 0.0
C413 C 0.19672 0.55784 0.86394 0.0
C414 C 0.30195 0.59916 0.84659 0.0
C415 C 0.29998 0.56075 0.85693 0.0
C416 C 0.24396 0.52071 0.87051 0.0
C417 C 0.19413 0.5192 0.87365 0.0
H418 H 0.89242 0.33968 0.164 0.0
H419 H 1.01088 0.30747 0.15866 0.0
H420 H 0.80568 0.25347 0.16988 0.0
H421 H 0.92403 0.22077 0.16587 0.0
H422 H 0.75047 0.06288 0.15794 0.0
H423 H 0.83739 0.1491 0.14821 0.0
H424 H 0.75312 0.18713 0.20159 0.0
H425 H 0.66518 0.10133 0.20937 0.0
C426 C 0.90009 0.31417 0.16423 0.0
C427 C 0.95899 0.33086 0.1609 0.0
C428 C 0.85004 0.26436 0.16788 0.0
C429 C 0.85702 0.22931 0.16875 0.0
C430 C 0.9161 0.24609 0.16503 0.0
C431 C 0.96625 0.29606 0.16102 0.0
C432 C 0.75031 0.08983 0.16713 0.0
C433 C 0.70071 0.07515 0.18435 0.0
C434 C 0.80065 0.13946 0.16193 0.0
C435 C 0.80311 0.17594 0.17401 0.0
C436 C 0.75322 0.1608 0.19136 0.0
C437 C 0.70283 0.11133 0.19626 0.0
H438 H 0.20521 0.53354 0.06832 0.0
H439 H 1.01276 0.42334 0.06073 0.0
H440 H 0.21854 0.54703 0.01672 0.0
H441 H 1.02534 0.43776 0.00983 0.0
H442 H 1.05288 0.45224 0.91758 0.0
H443 H 1.05701 0.43098 0.96636 0.0
H444 H 0.20242 0.5832 0.98007 0.0
H445 H 0.19955 0.60327 0.93062 0.0
C446 C 0.16587 0.51178 0.05562 0.0
C447 C 0.10791 0.47746 0.06865 0.0
C448 C 0.17338 0.51979 0.02603 0.0
C449 C 0.12309 0.49369 0.00881 0.0
C450 C 1.06547 0.45809 0.02202 0.0
C451 C 1.05808 0.44998 0.05142 0.0
C452 C 0.08709 0.48066 0.93089 0.0
C453 C 0.12646 0.52917 0.92044 0.0
C454 C 0.08898 0.46878 0.95897 0.0
C455 C 0.12925 0.50539 0.9776 0.0
C456 C 0.17112 0.55383 0.9665 0.0
C457 C 0.16973 0.56552 0.93817 0.0
H458 H 0.79365 0.10677 0.37826 0.0
H459 H 0.60065 0.01248 0.39321 0.0
H460 H 0.78084 0.10436 0.32723 0.0
H461 H 0.58744 1.00858 0.34245 0.0
H462 H 0.57452 0.02778 0.25089 0.0
H463 H 0.59977 0.05065 0.3 0.0
H464 H 0.74572 0.04854 0.29057 0.0
H465 H 0.72101 0.02751 0.24115 0.0
C466 C 0.74851 0.08564 0.3706 0.0
C467 C 0.69813 0.05958 0.38967 0.0
C468 C 0.7411 0.08405 0.34137 0.0
C469 C 0.68309 0.05619 0.33058 0.0
C470 C 0.63289 0.03112 0.34985 0.0
C471 C 0.64035 0.03297 0.37902 0.0
C472 C 0.61296 0.03368 0.25933 0.0
C473 C 0.64614 0.02626 0.24258 0.0
C474 C 0.62708 0.04614 0.28745 0.0
C475 C 0.67421 0.05067 0.29951 0.0
C476 C 0.7095 0.04582 0.28205 0.0
C477 C 0.69557 0.0338 0.25379 0.0
H478 H 0.69737 0.59027 0.75801 0.0
H479 H 0.51033 0.5227 0.75176 0.0
H480 H 0.71007 0.59835 0.70644 0.0
H481 H 0.52337 0.53304 0.7004 0.0
H482 H 0.54295 0.48544 0.61528 0.0
H483 H 0.53201 0.49404 0.66513 0.0
H484 H 0.71426 0.63246 0.66178 0.0
H485 H 0.72525 0.62183 0.61173 0.0
C486 C 0.65935 0.57811 0.74556 0.0
C487 C 0.60259 0.55502 0.75876 0.0
C488 C 0.66665 0.58308 0.71598 0.0
C489 C 0.6175 0.5657 0.69907 0.0
C490 C 0.56183 0.5456 0.7126 0.0
C491 C 0.55434 0.53986 0.74206 0.0
C492 C 0.58016 0.51795 0.62524 0.0
C493 C 0.63499 0.55272 0.61001 0.0
C494 C 0.57395 0.52326 0.65377 0.0
C495 C 0.6224 0.56391 0.66775 0.0
C496 C 0.67633 0.6003 0.65189 0.0
C497 C 0.68255 0.59468 0.62322 0.0
H498 H 0.55983 0.97927 0.5619 0.0
H499 H 0.73907 0.11914 0.55315 0.0
H500 H 0.56609 0.98036 0.61315 0.0
H501 H 0.74416 0.12268 0.60442 0.0
H502 H 0.75283 0.11657 0.69813 0.0
H503 H 0.75223 0.09992 0.64828 0.0
H504 H 0.55861 0.01471 0.65037 0.0
H505 H 0.56015 0.02863 0.70051 0.0
C506 C 0.60059 0.01035 0.57109 0.0
C507 C 0.64876 0.04925 0.5537 0.0
C508 C 0.60411 0.01132 0.60052 0.0
C509 C 0.65521 0.05203 0.61336 0.0
C510 C 0.70428 0.09028 0.59566 0.0
C511 C 0.70135 0.08857 0.56616 0.0
C512 C 0.71025 0.09285 0.6879 0.0
C513 C 0.65639 0.07298 0.70293 0.0
C514 C 0.70974 0.08395 0.65922 0.0
C515 C 0.65541 0.05622 0.6448 0.0
C516 C 0.60133 0.03531 0.66047 0.0
C517 C 0.6019 0.04332 0.68923 0.0
H518 H 0.53768 0.53219 0.92129 0.0
H519 H 0.73069 0.63142 0.92963 0.0
H520 H 0.52257 0.51479 0.97243 0.0
H521 H 0.71591 0.613 0.98048 0.0
H522 H 0.52523 0.45599 0.05989 0.0
H523 H 0.53422 0.47451 0.00901 0.0
H524 H 0.68258 0.6262 0.02248 0.0
H525 H 0.67511 0.60666 0.07303 0.0
C526 C 0.57681 0.55006 0.93409 0.0
C527 C 0.63534 0.58333 0.92163 0.0
C528 C 0.56822 0.53997 0.96333 0.0
C529 C 0.61803 0.56277 0.98059 0.0
C530 C 0.67654 0.59563 0.96792 0.0
C531 C 0.68507 0.60591 0.93877 0.0
C532 C 0.55932 0.49323 0.05179 0.0
C533 C 0.59945 0.52997 0.07013 0.0
C534 C 0.5643 0.50398 0.02277 0.0
C535 C 0.60943 0.55182 0.01163 0.0
C536 C 0.648 0.58885 0.03029 0.0
C537 C 0.64322 0.57795 0.05925 0.0
H538 H 0.21872 0.5349 0.24827 0.0
H539 H 1.03281 0.46892 0.23836 0.0
H540 H 0.20479 0.53206 0.29924 0.0
H541 H 1.01922 0.46711 0.29011 0.0
H542 H 0.15506 0.48444 0.38972 0.0
H543 H 0.14176 0.46509 0.33963 0.0
H544 H 1.06908 0.53658 0.32759 0.0
H545 H 1.08292 0.55593 0.37773 0.0
C546 C 0.17475 0.51981 0.257 0.0
C547 C 0.12678 0.50211 0.23931 0.0
C548 C 0.16668 0.51777 0.28626 0.0
C549 C 0.11072 0.49871 0.29863 0.0
C550 C 1.0627 0.48164 0.28104 0.0
C551 C 1.07049 0.4828 0.25155 0.0
C552 C 0.13423 0.49429 0.37648 0.0
C553 C 0.12011 0.52165 0.38722 0.0
C554 C 0.127 0.48363 0.3479 0.0
C555 C 0.10496 0.49982 0.32973 0.0
C556 C 1.08584 0.52347 0.34114 0.0
C557 C 0.09376 0.53458 0.36968 0.0
loop_
_geom_bond_atom_site_label_1
_geom_bond_atom_site_label_2
_geom_bond_distance
_geom_bond_site_symmetry_2
_ccdc_geom_bond_type
Sm0 C2 2.846 . S
Sm0 O20 2.543 . S
Sm0 O21 2.450 . S
Sm0 O22 2.681 1_455 S
Sm0 O23 2.464 . S
Sm0 O24 2.396 . S
Sm0 O28 2.386 . S
Sm0 O31 2.408 1_455 S
Sm1 C11 2.846 . S
Sm1 O22 2.386 . S
Sm1 O25 2.408 1_655 S
Sm1 O26 2.543 . S
Sm1 O27 2.450 . S
Sm1 O28 2.681 1_655 S
Sm1 O29 2.464 . S
Sm1 O30 2.396 . S
C2 Sm0 2.846 . S
C2 C3 1.506 . S
C2 O20 1.261 . S
C2 O21 1.242 . S
C3 C2 1.506 . S
C3 C4 1.358 . S
C3 C8 1.382 . S
C4 C3 1.358 . S
C4 C5 1.385 . S
C4 H32 0.930 . S
C5 C4 1.385 . S
C5 C6 1.395 . S
C5 H33 0.929 . S
C6 C5 1.395 . S
C6 C7 1.335 . S
C7 C6 1.335 . S
C7 C8 1.398 . S
C7 H34 0.930 . S
C8 C3 1.382 . S
C8 C7 1.398 . S
C8 H35 0.929 . S
C9 O22 1.271 1_455 S
C9 O23 1.251 . S
C10 O24 1.252 . S
C10 O25 1.272 . S
C11 Sm1 2.846 . S
C11 C12 1.506 . S
C11 O26 1.261 . S
C11 O27 1.242 . S
C12 C11 1.506 . S
C12 C13 1.358 . S
C12 C17 1.382 . S
C13 C12 1.358 . S
C13 C14 1.385 . S
C13 H36 0.930 . S
C14 C13 1.385 . S
C14 C15 1.395 . S
C14 H37 0.929 . S
C15 C14 1.395 . S
C15 C16 1.335 . S
C16 C15 1.335 . S
C16 C17 1.398 . S
C16 H38 0.930 . S
C17 C12 1.382 . S
C17 C16 1.398 . S
C17 H39 0.929 . S
C18 O28 1.271 . S
C18 O29 1.251 1_455 S
C19 O30 1.252 . S
C19 O31 1.272 . S
O20 Sm0 2.543 . S
O20 C2 1.261 . S
O21 Sm0 2.450 . S
O21 C2 1.242 . S
O22 Sm0 2.681 1_655 S
O22 Sm1 2.386 . S
O22 C9 1.271 1_655 S
O23 Sm0 2.464 . S
O23 C9 1.251 . S
O24 Sm0 2.396 . S
O24 C10 1.252 . S
O25 Sm1 2.408 1_455 S
O25 C10 1.272 . S
O26 Sm1 2.543 . S
O26 C11 1.261 . S
O27 Sm1 2.450 . S
O27 C11 1.242 . S
O28 Sm0 2.386 . S
O28 Sm1 2.681 1_455 S
O28 C18 1.271 . S
O29 Sm1 2.464 . S
O29 C18 1.251 1_655 S
O30 Sm1 2.396 . S
O30 C19 1.252 . S
O31 Sm0 2.408 1_655 S
O31 C19 1.272 . S
H32 C4 0.930 . S
H33 C5 0.929 . S
H34 C7 0.930 . S
H35 C8 0.929 . S
H36 C13 0.930 . S
H37 C14 0.929 . S
H38 C16 0.930 . S
H39 C17 0.929 . S
Sm40 C42 2.846 1_545 S
Sm40 O60 2.543 1_545 S
Sm40 O61 2.450 1_545 S
Sm40 O62 2.681 . S
Sm40 O63 2.464 . S
Sm40 O64 2.396 1_545 S
Sm40 O68 2.386 . S
Sm40 O71 2.408 . S
Sm41 C51 2.846 . S
Sm41 O62 2.386 . S
Sm41 O65 2.408 1_545 S
Sm41 O66 2.543 . S
Sm41 O67 2.450 . S
Sm41 O68 2.681 . S
Sm41 O69 2.464 . S
Sm41 O70 2.396 . S
C42 Sm40 2.846 1_565 S
C42 C43 1.506 . S
C42 O60 1.261 . S
C42 O61 1.242 . S
C43 C42 1.506 . S
C43 C44 1.358 . S
C43 C48 1.382 . S
C44 C43 1.358 . S
C44 C45 1.385 . S
C44 H72 0.930 . S
C45 C44 1.385 . S
C45 C46 1.395 . S
C45 H73 0.929 . S
C46 C45 1.395 . S
C46 C47 1.335 . S
C47 C46 1.335 . S
C47 C48 1.398 . S
C47 H74 0.930 . S
C48 C43 1.382 . S
C48 C47 1.398 . S
C48 H75 0.929 . S
C49 O62 1.271 . S
C49 O63 1.251 . S
C50 O64 1.252 . S
C50 O65 1.272 . S
C51 Sm41 2.846 . S
C51 C52 1.506 . S
C51 O66 1.261 . S
C51 O67 1.242 . S
C52 C51 1.506 . S
C52 C53 1.358 . S
C52 C57 1.382 . S
C53 C52 1.358 . S
C53 C54 1.385 . S
C53 H76 0.930 . S
C54 C53 1.385 . S
C54 C55 1.395 . S
C54 H77 0.929 . S
C55 C54 1.395 . S
C55 C56 1.335 . S
C56 C55 1.335 . S
C56 C57 1.398 . S
C56 H78 0.930 . S
C57 C52 1.382 . S
C57 C56 1.398 . S
C57 H79 0.929 . S
C58 O68 1.271 . S
C58 O69 1.251 . S
C59 O70 1.252 . S
C59 O71 1.272 . S
O60 Sm40 2.543 1_565 S
O60 C42 1.261 . S
O61 Sm40 2.450 1_565 S
O61 C42 1.242 . S
O62 Sm40 2.681 . S
O62 Sm41 2.386 . S
O62 C49 1.271 . S
O63 Sm40 2.464 . S
O63 C49 1.251 . S
O64 Sm40 2.396 1_565 S
O64 C50 1.252 . S
O65 Sm41 2.408 1_565 S
O65 C50 1.272 . S
O66 Sm41 2.543 . S
O66 C51 1.261 . S
O67 Sm41 2.450 . S
O67 C51 1.242 . S
O68 Sm40 2.386 . S
O68 Sm41 2.681 . S
O68 C58 1.271 . S
O69 Sm41 2.464 . S
O69 C58 1.251 . S
O70 Sm41 2.396 . S
O70 C59 1.252 . S
O71 Sm40 2.408 . S
O71 C59 1.272 . S
H72 C44 0.930 . S
H73 C45 0.929 . S
H74 C47 0.930 . S
H75 C48 0.929 . S
H76 C53 0.930 . S
H77 C54 0.929 . S
H78 C56 0.930 . S
H79 C57 0.929 . S
Sm80 C82 2.846 . S
Sm80 O100 2.543 . S
Sm80 O101 2.450 . S
Sm80 O102 2.681 . S
Sm80 O103 2.464 . S
Sm80 O104 2.396 . S
Sm80 O108 2.386 . S
Sm80 O111 2.408 . S
Sm81 C91 2.846 . S
Sm81 O102 2.386 . S
Sm81 O105 2.408 . S
Sm81 O106 2.543 . S
Sm81 O107 2.450 . S
Sm81 O108 2.681 . S
Sm81 O109 2.464 . S
Sm81 O110 2.396 . S
C82 Sm80 2.846 . S
C82 C83 1.506 . S
C82 O100 1.261 . S
C82 O101 1.242 . S
C83 C82 1.506 . S
C83 C84 1.358 . S
C83 C88 1.382 . S
C84 C83 1.358 . S
C84 C85 1.385 . S
C84 H112 0.930 . S
C85 C84 1.385 . S
C85 C86 1.395 . S
C85 H113 0.929 . S
C86 C85 1.395 . S
C86 C87 1.335 . S
C87 C86 1.335 . S
C87 C88 1.398 . S
C87 H114 0.930 . S
C88 C83 1.382 . S
C88 C87 1.398 . S
C88 H115 0.929 . S
C89 O102 1.271 . S
C89 O103 1.251 . S
C90 O104 1.252 . S
C90 O105 1.272 . S
C91 Sm81 2.846 . S
C91 C92 1.506 . S
C91 O106 1.261 . S
C91 O107 1.242 . S
C92 C91 1.506 . S
C92 C93 1.358 . S
C92 C97 1.382 . S
C93 C92 1.358 . S
C93 C94 1.385 . S
C93 H116 0.930 . S
C94 C93 1.385 . S
C94 C95 1.395 . S
C94 H117 0.929 . S
C95 C94 1.395 . S
C95 C96 1.335 . S
C96 C95 1.335 . S
C96 C97 1.398 . S
C96 H118 0.930 . S
C97 C92 1.382 . S
C97 C96 1.398 . S
C97 H119 0.929 . S
C98 O108 1.271 . S
C98 O109 1.251 . S
C99 O110 1.252 . S
C99 O111 1.272 . S
O100 Sm80 2.543 . S
O100 C82 1.261 . S
O101 Sm80 2.450 . S
O101 C82 1.242 . S
O102 Sm80 2.681 . S
O102 Sm81 2.386 . S
O102 C89 1.271 . S
O103 Sm80 2.464 . S
O103 C89 1.251 . S
O104 Sm80 2.396 . S
O104 C90 1.252 . S
O105 Sm81 2.408 . S
O105 C90 1.272 . S
O106 Sm81 2.543 . S
O106 C91 1.261 . S
O107 Sm81 2.450 . S
O107 C91 1.242 . S
O108 Sm80 2.386 . S
O108 Sm81 2.681 . S
O108 C98 1.271 . S
O109 Sm81 2.464 . S
O109 C98 1.251 . S
O110 Sm81 2.396 . S
O110 C99 1.252 . S
O111 Sm80 2.408 . S
O111 C99 1.272 . S
H112 C84 0.930 . S
H113 C85 0.929 . S
H114 C87 0.930 . S
H115 C88 0.929 . S
H116 C93 0.930 . S
H117 C94 0.929 . S
H118 C96 0.930 . S
H119 C97 0.929 . S
C120 N121 1.317 1_565 S
C120 N122 1.348 . S
C120 C123 1.485 1_565 S
N121 C120 1.317 1_545 S
N121 N125 1.370 . S
N122 C120 1.348 . S
N122 C124 1.346 . S
C123 C120 1.485 1_545 S
C123 H127 0.960 . S
C123 H128 0.961 1_545 S
C123 H129 0.960 . S
C124 N122 1.346 . S
C124 N125 1.307 1_565 S
C124 C126 1.486 . S
N125 N121 1.370 . S
N125 C124 1.307 1_545 S
C126 C124 1.486 . S
C126 H130 0.960 . S
C126 H131 0.960 . S
C126 H132 0.959 . S
H127 C123 0.960 . S
H128 C123 0.961 1_565 S
H129 C123 0.960 . S
H130 C126 0.960 . S
H131 C126 0.960 . S
H132 C126 0.959 . S
C133 N134 1.317 . S
C133 N135 1.348 . S
C133 C136 1.485 . S
N134 C133 1.317 . S
N134 N138 1.370 . S
N135 C133 1.348 . S
N135 C137 1.346 . S
C136 C133 1.485 . S
C136 H140 0.960 . S
C136 H141 0.961 . S
C136 H142 0.960 . S
C137 N135 1.346 . S
C137 N138 1.307 . S
C137 C139 1.486 . S
N138 N134 1.370 . S
N138 C137 1.307 . S
C139 C137 1.486 . S
C139 H143 0.960 . S
C139 H144 0.960 . S
C139 H145 0.959 . S
H140 C136 0.960 . S
H141 C136 0.961 . S
H142 C136 0.960 . S
H143 C139 0.960 . S
H144 C139 0.960 . S
H145 C139 0.959 . S
C146 N147 1.317 . S
C146 N148 1.348 . S
C146 C149 1.485 . S
N147 C146 1.317 . S
N147 N151 1.370 . S
N148 C146 1.348 . S
N148 C150 1.346 . S
C149 C146 1.485 . S
C149 H153 0.960 . S
C149 H154 0.961 . S
C149 H155 0.960 . S
C150 N148 1.346 . S
C150 N151 1.307 . S
C150 C152 1.486 1_455 S
N151 N147 1.370 . S
N151 C150 1.307 . S
C152 C150 1.486 1_655 S
C152 H156 0.960 . S
C152 H157 0.960 . S
C152 H158 0.959 . S
H153 C149 0.960 . S
H154 C149 0.961 . S
H155 C149 0.960 . S
H156 C152 0.960 . S
H157 C152 0.960 . S
H158 C152 0.959 . S
C159 N160 1.317 . S
C159 N161 1.348 . S
C159 C162 1.485 . S
N160 C159 1.317 . S
N160 N164 1.370 . S
N161 C159 1.348 . S
N161 C163 1.346 . S
C162 C159 1.485 . S
C162 H166 0.960 . S
C162 H167 0.961 . S
C162 H168 0.960 . S
C163 N161 1.346 . S
C163 N164 1.307 . S
C163 C165 1.486 . S
N164 N160 1.370 . S
N164 C163 1.307 . S
C165 C163 1.486 . S
C165 H169 0.960 . S
C165 H170 0.960 . S
C165 H171 0.959 . S
H166 C162 0.960 . S
H167 C162 0.961 . S
H168 C162 0.960 . S
H169 C165 0.960 . S
H170 C165 0.960 . S
H171 C165 0.959 . S
C172 N173 1.317 . S
C172 N174 1.348 . S
C172 C175 1.485 . S
N173 C172 1.317 . S
N173 N177 1.370 . S
N174 C172 1.348 . S
N174 C176 1.346 . S
C175 C172 1.485 . S
C175 H179 0.960 . S
C175 H180 0.961 . S
C175 H181 0.960 . S
C176 N174 1.346 . S
C176 N177 1.307 . S
C176 C178 1.486 . S
N177 N173 1.370 . S
N177 C176 1.307 . S
C178 C176 1.486 . S
C178 H182 0.960 . S
C178 H183 0.960 . S
C178 H184 0.959 . S
H179 C175 0.960 . S
H180 C175 0.961 . S
H181 C175 0.960 . S
H182 C178 0.960 . S
H183 C178 0.960 . S
H184 C178 0.959 . S
C185 N186 1.317 . S
C185 N187 1.348 . S
C185 C188 1.485 . S
N186 C185 1.317 . S
N186 N190 1.370 . S
N187 C185 1.348 . S
N187 C189 1.346 . S
C188 C185 1.485 . S
C188 H192 0.960 . S
C188 H193 0.961 . S
C188 H194 0.960 . S
C189 N187 1.346 . S
C189 N190 1.307 . S
C189 C191 1.486 . S
N190 N186 1.370 . S
N190 C189 1.307 . S
C191 C189 1.486 . S
C191 H195 0.960 . S
C191 H196 0.960 . S
C191 H197 0.959 . S
H192 C188 0.960 . S
H193 C188 0.961 . S
H194 C188 0.960 . S
H195 C191 0.960 . S
H196 C191 0.960 . S
H197 C191 0.959 . S
H198 C206 0.950 . S
H199 C211 0.950 . S
H200 C208 0.950 . S
H201 C210 0.950 . S
H202 C212 0.950 . S
H203 C214 0.950 . S
H204 C216 0.950 . S
H205 C217 0.950 . S
C206 H198 0.950 . S
C206 C207 1.386 . S
C206 C208 1.391 . S
C207 C206 1.386 . S
C207 C211 1.393 . S
C208 H200 0.950 . S
C208 C206 1.391 . S
C208 C209 1.400 . S
C209 C208 1.400 . S
C209 C210 1.398 . S
C209 C215 1.491 . S
C210 H201 0.950 . S
C210 C209 1.398 . S
C210 C211 1.391 . S
C211 H199 0.950 . S
C211 C207 1.393 . S
C211 C210 1.391 . S
C212 H202 0.950 . S
C212 C213 1.386 . S
C212 C214 1.391 . S
C213 C212 1.386 . S
C213 C217 1.393 . S
C214 H203 0.950 . S
C214 C212 1.391 . S
C214 C215 1.400 . S
C215 C209 1.491 . S
C215 C214 1.400 . S
C215 C216 1.398 . S
C216 H204 0.950 . S
C216 C215 1.398 . S
C216 C217 1.391 . S
C217 H205 0.950 . S
C217 C213 1.393 . S
C217 C216 1.391 . S
H218 C226 0.950 . S
H219 C231 0.950 . S
H220 C228 0.950 . S
H221 C230 0.950 . S
H222 C232 0.950 . S
H223 C234 0.950 . S
H224 C236 0.950 . S
H225 C237 0.950 . S
C226 H218 0.950 . S
C226 C227 1.386 . S
C226 C228 1.391 . S
C227 C226 1.386 . S
C227 C231 1.393 . S
C228 H220 0.950 . S
C228 C226 1.391 . S
C228 C229 1.400 . S
C229 C228 1.400 . S
C229 C230 1.398 . S
C229 C235 1.491 . S
C230 H221 0.950 . S
C230 C229 1.398 . S
C230 C231 1.391 . S
C231 H219 0.950 . S
C231 C227 1.393 . S
C231 C230 1.391 . S
C232 H222 0.950 . S
C232 C233 1.386 . S
C232 C234 1.391 . S
C233 C232 1.386 . S
C233 C237 1.393 . S
C234 H223 0.950 . S
C234 C232 1.391 . S
C234 C235 1.400 . S
C235 C229 1.491 . S
C235 C234 1.400 . S
C235 C236 1.398 . S
C236 H224 0.950 . S
C236 C235 1.398 . S
C236 C237 1.391 . S
C237 H225 0.950 . S
C237 C233 1.393 . S
C237 C236 1.391 . S
H238 C246 0.950 . S
H239 C251 0.950 . S
H240 C248 0.950 . S
H241 C250 0.950 . S
H242 C252 0.950 . S
H243 C254 0.950 . S
H244 C256 0.950 . S
H245 C257 0.961 . S
C246 H238 0.950 . S
C246 C247 1.386 . S
C246 C248 1.391 . S
C247 C246 1.386 . S
C247 C251 1.393 . S
C248 H240 0.950 . S
C248 C246 1.391 . S
C248 C249 1.400 . S
C249 C248 1.400 . S
C249 C250 1.398 . S
C249 C255 1.491 . S
C250 H241 0.950 . S
C250 C249 1.398 . S
C250 C251 1.391 . S
C251 H239 0.950 . S
C251 C247 1.393 . S
C251 C250 1.391 . S
C252 H242 0.950 . S
C252 C253 1.386 . S
C252 C254 1.391 . S
C253 C252 1.386 . S
C253 C257 1.409 1_565 S
C254 H243 0.950 . S
C254 C252 1.391 . S
C254 C255 1.400 . S
C255 C249 1.491 . S
C255 C254 1.400 . S
C255 C256 1.398 . S
C256 H244 0.950 . S
C256 C255 1.398 . S
C256 C257 1.363 1_565 S
C257 H245 0.961 . S
C257 C253 1.409 1_545 S
C257 C256 1.363 1_545 S
H258 C266 0.950 . S
H259 C271 0.950 . S
H260 C268 0.950 . S
H261 C270 0.950 . S
H262 C272 0.950 . S
H263 C274 0.950 . S
H264 C276 0.950 . S
H265 C277 0.950 . S
C266 H258 0.950 . S
C266 C267 1.386 . S
C266 C268 1.391 . S
C267 C266 1.386 . S
C267 C271 1.393 . S
C268 H260 0.950 . S
C268 C266 1.391 . S
C268 C269 1.400 . S
C269 C268 1.400 . S
C269 C270 1.398 . S
C269 C275 1.491 . S
C270 H261 0.950 . S
C270 C269 1.398 . S
C270 C271 1.391 . S
C271 H259 0.950 . S
C271 C267 1.393 . S
C271 C270 1.391 . S
C272 H262 0.950 . S
C272 C273 1.386 . S
C272 C274 1.391 . S
C273 C272 1.386 . S
C273 C277 1.393 . S
C274 H263 0.950 . S
C274 C272 1.391 . S
C274 C275 1.400 . S
C275 C269 1.491 . S
C275 C274 1.400 . S
C275 C276 1.398 . S
C276 H264 0.950 . S
C276 C275 1.398 . S
C276 C277 1.391 . S
C277 H265 0.950 . S
C277 C273 1.393 . S
C277 C276 1.391 . S
H278 C286 0.950 . S
H279 C291 0.950 . S
H280 C288 0.950 . S
H281 C290 0.950 . S
H282 C292 0.950 . S
H283 C294 0.950 . S
H284 C296 0.950 . S
H285 C297 0.950 . S
C286 H278 0.950 . S
C286 C287 1.386 . S
C286 C288 1.391 . S
C287 C286 1.386 . S
C287 C291 1.393 . S
C288 H280 0.950 . S
C288 C286 1.391 . S
C288 C289 1.400 . S
C289 C288 1.400 . S
C289 C290 1.398 . S
C289 C295 1.491 . S
C290 H281 0.950 . S
C290 C289 1.398 . S
C290 C291 1.391 . S
C291 H279 0.950 . S
C291 C287 1.393 . S
C291 C290 1.391 . S
C292 H282 0.950 . S
C292 C293 1.386 . S
C292 C294 1.391 . S
C293 C292 1.386 . S
C293 C297 1.393 . S
C294 H283 0.950 . S
C294 C292 1.391 . S
C294 C295 1.400 . S
C295 C289 1.491 . S
C295 C294 1.400 . S
C295 C296 1.398 . S
C296 H284 0.950 . S
C296 C295 1.398 . S
C296 C297 1.391 . S
C297 H285 0.950 . S
C297 C293 1.393 . S
C297 C296 1.391 . S
H298 C306 0.950 . S
H299 C311 0.950 . S
H300 C308 0.950 . S
H301 C310 0.950 . S
H302 C312 0.950 . S
H303 C314 0.950 . S
H304 C316 0.950 . S
H305 C317 0.950 . S
C306 H298 0.950 . S
C306 C307 1.386 . S
C306 C308 1.391 . S
C307 C306 1.386 . S
C307 C311 1.393 . S
C308 H300 0.950 . S
C308 C306 1.391 . S
C308 C309 1.400 . S
C309 C308 1.400 . S
C309 C310 1.398 . S
C309 C315 1.491 . S
C310 H301 0.950 . S
C310 C309 1.398 . S
C310 C311 1.391 . S
C311 H299 0.950 . S
C311 C307 1.393 . S
C311 C310 1.391 . S
C312 H302 0.950 . S
C312 C313 1.386 . S
C312 C314 1.391 . S
C313 C312 1.386 . S
C313 C317 1.393 . S
C314 H303 0.950 . S
C314 C312 1.391 . S
C314 C315 1.400 . S
C315 C309 1.491 . S
C315 C314 1.400 . S
C315 C316 1.398 . S
C316 H304 0.950 . S
C316 C315 1.398 . S
C316 C317 1.391 . S
C317 H305 0.950 . S
C317 C313 1.393 . S
C317 C316 1.391 . S
H318 C326 0.950 . S
H319 C331 0.950 . S
H320 C328 0.950 . S
H321 C330 0.950 . S
H322 C332 0.950 . S
H323 C334 0.950 . S
H324 C336 0.950 . S
H325 C337 0.950 . S
C326 H318 0.950 . S
C326 C327 1.386 . S
C326 C328 1.391 . S
C327 C326 1.386 . S
C327 C331 1.393 . S
C328 H320 0.950 . S
C328 C326 1.391 . S
C328 C329 1.400 . S
C329 C328 1.400 . S
C329 C330 1.398 . S
C329 C335 1.491 . S
C330 H321 0.950 . S
C330 C329 1.398 . S
C330 C331 1.391 . S
C331 H319 0.950 . S
C331 C327 1.393 . S
C331 C330 1.391 . S
C332 H322 0.950 . S
C332 C333 1.386 . S
C332 C334 1.391 . S
C333 C332 1.386 . S
C333 C337 1.393 . S
C334 H323 0.950 . S
C334 C332 1.391 . S
C334 C335 1.400 . S
C335 C329 1.491 . S
C335 C334 1.400 . S
C335 C336 1.398 . S
C336 H324 0.950 . S
C336 C335 1.398 . S
C336 C337 1.391 . S
C337 H325 0.950 . S
C337 C333 1.393 . S
C337 C336 1.391 . S
H338 C346 0.950 . S
H339 C351 0.950 . S
H340 C348 0.950 . S
H341 C350 0.950 . S
H342 C352 0.950 . S
H343 C354 0.950 . S
H344 C356 0.950 . S
H345 C357 0.950 . S
C346 H338 0.950 . S
C346 C347 1.386 . S
C346 C348 1.391 . S
C347 C346 1.386 . S
C347 C351 1.393 . S
C348 H340 0.950 . S
C348 C346 1.391 . S
C348 C349 1.400 . S
C349 C348 1.400 . S
C349 C350 1.398 . S
C349 C355 1.491 . S
C350 H341 0.950 . S
C350 C349 1.398 . S
C350 C351 1.391 . S
C351 H339 0.950 . S
C351 C347 1.393 . S
C351 C350 1.391 . S
C352 H342 0.950 . S
C352 C353 1.386 . S
C352 C354 1.391 . S
C353 C352 1.386 . S
C353 C357 1.393 . S
C354 H343 0.950 . S
C354 C352 1.391 . S
C354 C355 1.400 . S
C355 C349 1.491 . S
C355 C354 1.400 . S
C355 C356 1.398 . S
C356 H344 0.950 . S
C356 C355 1.398 . S
C356 C357 1.391 . S
C357 H345 0.950 . S
C357 C353 1.393 . S
C357 C356 1.391 . S
H358 C366 0.950 . S
H359 C371 0.950 . S
H360 C368 0.950 . S
H361 C370 0.950 . S
H362 C372 0.950 . S
H363 C374 0.950 . S
H364 C376 0.950 . S
H365 C377 0.950 . S
C366 H358 0.950 . S
C366 C367 1.386 . S
C366 C368 1.391 . S
C367 C366 1.386 . S
C367 C371 1.393 . S
C368 H360 0.950 . S
C368 C366 1.391 . S
C368 C369 1.400 . S
C369 C368 1.400 . S
C369 C370 1.398 . S
C369 C375 1.491 . S
C370 H361 0.950 . S
C370 C369 1.398 . S
C370 C371 1.391 . S
C371 H359 0.950 . S
C371 C367 1.393 . S
C371 C370 1.391 . S
C372 H362 0.950 . S
C372 C373 1.386 . S
C372 C374 1.391 . S
C373 C372 1.386 . S
C373 C377 1.393 . S
C374 H363 0.950 . S
C374 C372 1.391 . S
C374 C375 1.400 . S
C375 C369 1.491 . S
C375 C374 1.400 . S
C375 C376 1.398 . S
C376 H364 0.950 . S
C376 C375 1.398 . S
C376 C377 1.391 . S
C377 H365 0.950 . S
C377 C373 1.393 . S
C377 C376 1.391 . S
H378 C386 0.950 . S
H379 C391 0.950 . S
H380 C388 0.950 . S
H381 C390 0.950 . S
H382 C392 0.950 . S
H383 C394 0.950 . S
H384 C396 0.950 . S
H385 C397 0.950 . S
C386 H378 0.950 . S
C386 C387 1.386 . S
C386 C388 1.391 . S
C387 C386 1.386 . S
C387 C391 1.393 . S
C388 H380 0.950 . S
C388 C386 1.391 . S
C388 C389 1.400 . S
C389 C388 1.400 . S
C389 C390 1.398 . S
C389 C395 1.491 . S
C390 H381 0.950 . S
C390 C389 1.398 . S
C390 C391 1.391 . S
C391 H379 0.950 . S
C391 C387 1.393 . S
C391 C390 1.391 . S
C392 H382 0.950 . S
C392 C393 1.386 . S
C392 C394 1.391 . S
C393 C392 1.386 . S
C393 C397 1.393 . S
C394 H383 0.950 . S
C394 C392 1.391 . S
C394 C395 1.400 . S
C395 C389 1.491 . S
C395 C394 1.400 . S
C395 C396 1.398 . S
C396 H384 0.950 . S
C396 C395 1.398 . S
C396 C397 1.391 . S
C397 H385 0.950 . S
C397 C393 1.393 . S
C397 C396 1.391 . S
H398 C406 0.950 . S
H399 C411 0.950 . S
H400 C408 0.950 . S
H401 C410 0.950 . S
H402 C412 0.950 . S
H403 C414 0.950 . S
H404 C416 0.950 . S
H405 C417 0.950 . S
C406 H398 0.950 . S
C406 C407 1.386 . S
C406 C408 1.391 . S
C407 C406 1.386 . S
C407 C411 1.393 . S
C408 H400 0.950 . S
C408 C406 1.391 . S
C408 C409 1.400 . S
C409 C408 1.400 . S
C409 C410 1.398 . S
C409 C415 1.491 . S
C410 H401 0.950 . S
C410 C409 1.398 . S
C410 C411 1.391 . S
C411 H399 0.950 . S
C411 C407 1.393 . S
C411 C410 1.391 . S
C412 H402 0.950 . S
C412 C413 1.386 . S
C412 C414 1.391 . S
C413 C412 1.386 . S
C413 C417 1.393 . S
C414 H403 0.950 . S
C414 C412 1.391 . S
C414 C415 1.400 . S
C415 C409 1.491 . S
C415 C414 1.400 . S
C415 C416 1.398 . S
C416 H404 0.950 . S
C416 C415 1.398 . S
C416 C417 1.391 . S
C417 H405 0.950 . S
C417 C413 1.393 . S
C417 C416 1.391 . S
H418 C426 0.950 . S
H419 C431 0.950 . S
H420 C428 0.950 . S
H421 C430 0.950 . S
H422 C432 0.950 . S
H423 C434 0.950 . S
H424 C436 0.950 . S
H425 C437 0.950 . S
C426 H418 0.950 . S
C426 C427 1.386 . S
C426 C428 1.391 . S
C427 C426 1.386 . S
C427 C431 1.393 . S
C428 H420 0.950 . S
C428 C426 1.391 . S
C428 C429 1.400 . S
C429 C428 1.400 . S
C429 C430 1.398 . S
C429 C435 1.491 . S
C430 H421 0.950 . S
C430 C429 1.398 . S
C430 C431 1.391 . S
C431 H419 0.950 . S
C431 C427 1.393 . S
C431 C430 1.391 . S
C432 H422 0.950 . S
C432 C433 1.386 . S
C432 C434 1.391 . S
C433 C432 1.386 . S
C433 C437 1.393 . S
C434 H423 0.950 . S
C434 C432 1.391 . S
C434 C435 1.400 . S
C435 C429 1.491 . S
C435 C434 1.400 . S
C435 C436 1.398 . S
C436 H424 0.950 . S
C436 C435 1.398 . S
C436 C437 1.391 . S
C437 H425 0.950 . S
C437 C433 1.393 . S
C437 C436 1.391 . S
H438 C446 0.950 . S
H439 C451 0.950 . S
H440 C448 0.950 . S
H441 C450 0.950 . S
H442 C452 0.950 1_655 S
H443 C454 0.950 1_655 S
H444 C456 0.950 . S
H445 C457 0.950 . S
C446 H438 0.950 . S
C446 C447 1.386 . S
C446 C448 1.391 . S
C447 C446 1.386 . S
C447 C451 1.393 1_455 S
C448 H440 0.950 . S
C448 C446 1.391 . S
C448 C449 1.400 . S
C449 C448 1.400 . S
C449 C450 1.398 1_455 S
C449 C455 1.491 1_554 S
C450 H441 0.950 . S
C450 C449 1.398 1_655 S
C450 C451 1.391 . S
C451 H439 0.950 . S
C451 C447 1.393 1_655 S
C451 C450 1.391 . S
C452 H442 0.950 1_455 S
C452 C453 1.386 . S
C452 C454 1.391 . S
C453 C452 1.386 . S
C453 C457 1.393 . S
C454 H443 0.950 1_455 S
C454 C452 1.391 . S
C454 C455 1.400 . S
C455 C449 1.491 1_556 S
C455 C454 1.400 . S
C455 C456 1.398 . S
C456 H444 0.950 . S
C456 C455 1.398 . S
C456 C457 1.391 . S
C457 H445 0.950 . S
C457 C453 1.393 . S
C457 C456 1.391 . S
H458 C466 0.950 . S
H459 C471 0.950 . S
H460 C468 0.950 . S
H461 C470 0.950 1_565 S
H462 C472 0.950 1_565 S
H463 C474 0.950 1_565 S
H464 C476 0.950 . S
H465 C477 0.950 . S
C466 H458 0.950 . S
C466 C467 1.386 . S
C466 C468 1.391 . S
C467 C466 1.386 . S
C467 C471 1.393 . S
C468 H460 0.950 . S
C468 C466 1.391 . S
C468 C469 1.400 . S
C469 C468 1.400 . S
C469 C470 1.398 . S
C469 C475 1.491 . S
C470 H461 0.950 1_545 S
C470 C469 1.398 . S
C470 C471 1.391 . S
C471 H459 0.950 . S
C471 C467 1.393 . S
C471 C470 1.391 . S
C472 H462 0.950 1_545 S
C472 C473 1.386 . S
C472 C474 1.391 . S
C473 C472 1.386 . S
C473 C477 1.393 . S
C474 H463 0.950 1_545 S
C474 C472 1.391 . S
C474 C475 1.400 . S
C475 C469 1.491 . S
C475 C474 1.400 . S
C475 C476 1.398 . S
C476 H464 0.950 . S
C476 C475 1.398 . S
C476 C477 1.391 . S
C477 H465 0.950 . S
C477 C473 1.393 . S
C477 C476 1.391 . S
H478 C486 0.950 . S
H479 C491 0.950 . S
H480 C488 0.950 . S
H481 C490 0.950 . S
H482 C492 0.950 . S
H483 C494 0.950 . S
H484 C496 0.950 . S
H485 C497 0.950 . S
C486 H478 0.950 . S
C486 C487 1.386 . S
C486 C488 1.391 . S
C487 C486 1.386 . S
C487 C491 1.393 . S
C488 H480 0.950 . S
C488 C486 1.391 . S
C488 C489 1.400 . S
C489 C488 1.400 . S
C489 C490 1.398 . S
C489 C495 1.491 . S
C490 H481 0.950 . S
C490 C489 1.398 . S
C490 C491 1.391 . S
C491 H479 0.950 . S
C491 C487 1.393 . S
C491 C490 1.391 . S
C492 H482 0.950 . S
C492 C493 1.386 . S
C492 C494 1.391 . S
C493 C492 1.386 . S
C493 C497 1.393 . S
C494 H483 0.950 . S
C494 C492 1.391 . S
C494 C495 1.400 . S
C495 C489 1.491 . S
C495 C494 1.400 . S
C495 C496 1.398 . S
C496 H484 0.950 . S
C496 C495 1.398 . S
C496 C497 1.391 . S
C497 H485 0.950 . S
C497 C493 1.393 . S
C497 C496 1.391 . S
H498 C506 0.950 . S
H499 C511 0.950 . S
H500 C508 0.950 . S
H501 C510 0.950 . S
H502 C512 0.950 . S
H503 C514 0.950 . S
H504 C516 0.950 . S
H505 C517 0.950 . S
C506 H498 0.950 . S
C506 C507 1.386 1_565 S
C506 C508 1.391 . S
C507 C506 1.386 1_545 S
C507 C511 1.393 . S
C508 H500 0.950 . S
C508 C506 1.391 . S
C508 C509 1.400 1_565 S
C509 C508 1.400 1_545 S
C509 C510 1.398 . S
C509 C515 1.491 . S
C510 H501 0.950 . S
C510 C509 1.398 . S
C510 C511 1.391 . S
C511 H499 0.950 . S
C511 C507 1.393 . S
C511 C510 1.391 . S
C512 H502 0.950 . S
C512 C513 1.386 . S
C512 C514 1.391 . S
C513 C512 1.386 . S
C513 C517 1.393 1_545 S
C514 H503 0.950 . S
C514 C512 1.391 . S
C514 C515 1.400 . S
C515 C509 1.491 . S
C515 C514 1.400 . S
C515 C516 1.398 1_545 S
C516 H504 0.950 . S
C516 C515 1.398 1_565 S
C516 C517 1.391 . S
C517 H505 0.950 . S
C517 C513 1.393 1_565 S
C517 C516 1.391 . S
H518 C526 0.950 . S
H519 C531 0.950 . S
H520 C528 0.950 . S
H521 C530 0.950 . S
H522 C532 0.950 . S
H523 C534 0.950 . S
H524 C536 0.950 . S
H525 C537 0.950 . S
C526 H518 0.950 . S
C526 C527 1.386 . S
C526 C528 1.391 . S
C527 C526 1.386 . S
C527 C531 1.393 . S
C528 H520 0.950 . S
C528 C526 1.391 . S
C528 C529 1.400 . S
C529 C528 1.400 . S
C529 C530 1.398 . S
C529 C535 1.491 . S
C530 H521 0.950 . S
C530 C529 1.398 . S
C530 C531 1.391 . S
C531 H519 0.950 . S
C531 C527 1.393 . S
C531 C530 1.391 . S
C532 H522 0.950 . S
C532 C533 1.386 . S
C532 C534 1.391 . S
C533 C532 1.386 . S
C533 C537 1.393 . S
C534 H523 0.950 . S
C534 C532 1.391 . S
C534 C535 1.400 1_554 S
C535 C529 1.491 . S
C535 C534 1.400 1_556 S
C535 C536 1.398 1_556 S
C536 H524 0.950 . S
C536 C535 1.398 1_554 S
C536 C537 1.391 . S
C537 H525 0.950 . S
C537 C533 1.393 . S
C537 C536 1.391 . S
H538 C546 0.950 . S
H539 C551 0.950 . S
H540 C548 0.950 . S
H541 C550 0.950 . S
H542 C552 0.950 . S
H543 C554 0.950 . S
H544 C556 0.950 . S
H545 C557 0.950 . S
C546 H538 0.950 . S
C546 C547 1.386 . S
C546 C548 1.391 . S
C547 C546 1.386 . S
C547 C551 1.393 1_655 S
C548 H540 0.950 . S
C548 C546 1.391 . S
C548 C549 1.400 1_655 S
C549 C548 1.400 1_455 S
C549 C550 1.398 . S
C549 C555 1.491 . S
C550 H541 0.950 . S
C550 C549 1.398 . S
C550 C551 1.391 . S
C551 H539 0.950 . S
C551 C547 1.393 1_455 S
C551 C550 1.391 . S
C552 H542 0.950 . S
C552 C553 1.386 . S
C552 C554 1.391 . S
C553 C552 1.386 . S
C553 C557 1.393 . S
C554 H543 0.950 . S
C554 C552 1.391 . S
C554 C555 1.400 . S
C555 C549 1.491 . S
C555 C554 1.400 . S
C555 C556 1.398 . S
C556 H544 0.950 . S
C556 C555 1.398 . S
C556 C557 1.391 . S
C557 H545 0.950 . S
C557 C553 1.393 . S
C557 C556 1.391 . S
C207 C6 0.420 . S
C213 N187 0.345 . S
C227 C59 1.808 . S
C233 N160 1.808 1_655 S
C247 C86 1.154 . S
C253 N173 1.150 1_565 S
C267 C15 0.702 . S
C273 N186 0.709 . S
C293 N161 1.987 . S
C287 C50 1.971 . S
C313 N174 1.359 . S
C307 C95 1.336 . S
C327 C46 1.079 . S
C333 N134 1.081 . S
C347 C99 2.824 . S
C353 N148 2.779 1_655 S
C367 C10 1.993 . S
C373 N122 2.001 . S
C393 N135 1.408 . S
C387 C55 1.387 . S
C413 N147 3.286 . S
C407 C90 3.244 . S
C427 C19 1.800 . S
C433 N121 1.820 . S
C453 N151 1.728 . S
C447 C18 1.731 . S
C467 C49 1.453 . S
C473 N125 1.484 . S
C487 C98 1.478 . S
C493 N138 1.584 . S
C513 N177 1.541 . S
C507 C58 1.474 . S
C533 N190 1.247 . S
C527 C89 1.266 . S
C547 C9 1.434 1_655 S
C553 N164 1.450 . S
