# Generated by pormake.
# Topology zzz, (3,6)-cn, num edge types: 1
# Building blocks:
#     Node 0, Type 0, BuildingBlock: CUQRIR_clean_linker_1, # of connection points: 3
#     Node 1, Type 0, BuildingBlock: CUQRIR_clean_linker_1, # of connection points: 3
#     Node 2, Type 0, BuildingBlock: CUQRIR_clean_linker_1, # of connection points: 3
#     Node 3, Type 0, BuildingBlock: CUQRIR_clean_linker_1, # of connection points: 3
#     Node 4, Type 0, BuildingBlock: CUQRIR_clean_linker_1, # of connection points: 3
#     Node 5, Type 0, BuildingBlock: CUQRIR_clean_linker_1, # of connection points: 3
#     Node 6, Type 0, BuildingBlock: CUQRIR_clean_linker_1, # of connection points: 3
#     Node 7, Type 0, BuildingBlock: CUQRIR_clean_linker_1, # of connection points: 3
#     Node 8, Type 1, BuildingBlock: KUMBUR_clean_sbu_0, # of connection points: 6
#     Node 9, Type 1, BuildingBlock: KUMBUR_clean_sbu_0, # of connection points: 6
#     Node 10, Type 1, BuildingBlock: KUMBUR_clean_sbu_0, # of connection points: 6
#     Node 11, Type 1, BuildingBlock: KUMBUR_clean_sbu_0, # of connection points: 6
#     Edge 12, Type (0, 1), BuildingBlock: ZUJKAS_clean_linker_0, # of connection points: 2
#     Edge 13, Type (0, 1), BuildingBlock: ZUJKAS_clean_linker_0, # of connection points: 2
#     Edge 14, Type (0, 1), BuildingBlock: ZUJKAS_clean_linker_0, # of connection points: 2
#     Edge 15, Type (0, 1), BuildingBlock: ZUJKAS_clean_linker_0, # of connection points: 2
#     Edge 16, Type (0, 1), BuildingBlock: ZUJKAS_clean_linker_0, # of connection points: 2
#     Edge 17, Type (0, 1), BuildingBlock: ZUJKAS_clean_linker_0, # of connection points: 2
#     Edge 18, Type (0, 1), BuildingBlock: ZUJKAS_clean_linker_0, # of connection points: 2
#     Edge 19, Type (0, 1), BuildingBlock: ZUJKAS_clean_linker_0, # of connection points: 2
#     Edge 20, Type (0, 1), BuildingBlock: ZUJKAS_clean_linker_0, # of connection points: 2
#     Edge 21, Type (0, 1), BuildingBlock: ZUJKAS_clean_linker_0, # of connection points: 2
#     Edge 22, Type (0, 1), BuildingBlock: ZUJKAS_clean_linker_0, # of connection points: 2
#     Edge 23, Type (0, 1), BuildingBlock: ZUJKAS_clean_linker_0, # of connection points: 2
#     Edge 24, Type (0, 1), BuildingBlock: ZUJKAS_clean_linker_0, # of connection points: 2
#     Edge 25, Type (0, 1), BuildingBlock: ZUJKAS_clean_linker_0, # of connection points: 2
#     Edge 26, Type (0, 1), BuildingBlock: ZUJKAS_clean_linker_0, # of connection points: 2
#     Edge 27, Type (0, 1), BuildingBlock: ZUJKAS_clean_linker_0, # of connection points: 2
#     Edge 28, Type (0, 1), BuildingBlock: ZUJKAS_clean_linker_0, # of connection points: 2
#     Edge 29, Type (0, 1), BuildingBlock: ZUJKAS_clean_linker_0, # of connection points: 2
#     Edge 30, Type (0, 1), BuildingBlock: ZUJKAS_clean_linker_0, # of connection points: 2
#     Edge 31, Type (0, 1), BuildingBlock: ZUJKAS_clean_linker_0, # of connection points: 2
#     Edge 32, Type (0, 1), BuildingBlock: ZUJKAS_clean_linker_0, # of connection points: 2
#     Edge 33, Type (0, 1), BuildingBlock: ZUJKAS_clean_linker_0, # of connection points: 2
#     Edge 34, Type (0, 1), BuildingBlock: ZUJKAS_clean_linker_0, # of connection points: 2
#     Edge 35, Type (0, 1), BuildingBlock: ZUJKAS_clean_linker_0, # of connection points: 2
# Relax obj value: 0.164
# Max RMSD: 0.154
# Mean RMSD: 0.116
data_MOF--net-zzz--node1-KUMBUR_clean_sbu_0--node2-CUQRIR_clean_linker_1--edge1-ZUJKAS_clean_linker_0
_symmetry_space_group_name_H-M    P1
_symmetry_Int_Tables_number       1
_symmetry_cell_setting            triclinic
loop_
_symmetry_equiv_pos_as_xyz
'x, y, z'
_cell_length_a     62.793345
_cell_length_b     62.7002
_cell_length_c     17.526623
_cell_angle_alpha  90.962135
_cell_angle_beta   89.702546
_cell_angle_gamma 89.91139
loop_
_atom_site_label
_atom_site_type_symbol
_atom_site_fract_x
_atom_site_fract_y
_atom_site_fract_z
_atom_type_partial_charge
C0 C 0.75388 0.52748 0.16433 0.0
N1 N 0.77484 0.53306 0.16579 0.0
N2 N 0.74404 0.53545 0.10141 0.0
C3 C 0.743 0.51483 0.22489 0.0
C4 C 0.75998 0.54586 0.0649 0.0
N5 N 0.77838 0.54453 0.10414 0.0
C6 C 0.75803 0.55597 0.98796 0.0
H7 H 0.74376 0.49767 0.20862 0.0
H8 H 0.726 0.51953 0.23022 0.0
H9 H 0.75109 0.51704 0.28061 0.0
H10 H 0.75305 0.57284 0.99604 0.0
H11 H 0.74593 0.54762 0.9526 0.0
H12 H 0.77351 0.55576 0.95711 0.0
C13 C 1.00453 0.75634 0.20229 0.0
N14 N 0.99551 0.77609 0.21266 0.0
N15 N 0.99408 0.74466 0.14703 0.0
C16 C 0.02307 0.74833 0.24698 0.0
C17 C 0.9787 0.75836 0.12388 0.0
N18 N 0.97944 0.77698 0.16388 0.0
C19 C 0.96404 0.75428 0.05748 0.0
H20 H 0.03798 0.75214 0.21586 0.0
H21 H 0.02214 0.73077 0.25315 0.0
H22 H 0.02365 0.75623 0.30408 0.0
H23 H 0.94941 0.74635 0.07842 0.0
H24 H 0.97174 0.74373 0.01397 0.0
H25 H 0.95926 0.76939 0.03029 0.0
C26 C 0.77776 0.9938 0.24572 0.0
N27 N 0.75746 0.98602 0.24626 0.0
N28 N 0.78953 0.98467 0.18792 0.0
C29 C 0.78586 0.01061 0.29983 0.0
C30 C 0.77545 0.97142 0.15317 0.0
N31 N 0.75614 0.97225 0.18801 0.0
C32 C 0.78002 0.95932 0.07983 0.0
H33 H 0.78171 0.02652 0.2774 0.0
H34 H 0.80343 1.00956 0.3052 0.0
H35 H 0.77819 1.00903 0.35665 0.0
H36 H 0.76588 0.95058 0.0583 0.0
H37 H 0.7929 0.94756 0.08926 0.0
H38 H 0.78569 0.97055 0.03587 0.0
C39 C 0.53182 0.77893 0.21534 0.0
N40 N 0.53669 0.75783 0.21734 0.0
N41 N 0.53615 0.7869 0.14513 0.0
C42 C 0.52192 0.79139 0.28013 0.0
C43 C 0.54378 0.76986 0.10495 0.0
N44 N 0.54415 0.75236 0.14873 0.0
C45 C 0.54984 0.77008 0.02188 0.0
H46 H 0.50434 0.7904 0.27525 0.0
H47 H 0.52655 0.80844 0.27797 0.0
H48 H 0.52663 0.78466 0.33572 0.0
H49 H 0.55608 0.78595 0.00593 0.0
H50 H 0.53547 0.76668 0.9872 0.0
H51 H 0.56195 0.75767 0.00834 0.0
C52 C 0.2744 0.51413 0.11502 0.0
N53 N 0.25459 0.50551 0.10738 0.0
N54 N 0.28501 0.50531 0.17477 0.0
C55 C 0.28279 0.53199 0.06772 0.0
C56 C 0.27078 0.49104 0.20247 0.0
N57 N 0.25259 0.49119 0.16174 0.0
C58 C 0.27463 0.47653 0.26845 0.0
H59 H 0.29291 0.54279 0.1028 0.0
H60 H 0.26958 0.54118 0.04217 0.0
H61 H 0.29274 0.52517 0.02086 0.0
H62 H 0.26932 0.48465 0.32197 0.0
H63 H 0.29179 0.47253 0.27329 0.0
H64 H 0.26532 0.46159 0.26169 0.0
C65 C 0.02633 0.27669 0.08168 0.0
N66 N 0.03511 0.25674 0.07486 0.0
N67 N 0.03608 0.28857 0.13802 0.0
C68 C 1.00874 0.28472 0.03239 0.0
C69 C 0.05085 0.27481 0.16535 0.0
N70 N 0.05035 0.25589 0.12699 0.0
C71 C 0.06445 0.27913 0.23443 0.0
H72 H 0.00906 0.27657 0.97569 0.0
H73 H 0.01001 0.30223 0.02545 0.0
H74 H 0.99326 0.28122 0.06027 0.0
H75 H 0.0565 0.2905 0.27456 0.0
H76 H 0.07977 0.28616 0.2157 0.0
H77 H 0.06801 0.26421 0.265 0.0
C78 C 0.25634 0.02978 0.05488 0.0
N79 N 0.27441 0.04062 0.03609 0.0
N80 N 0.24256 0.04247 0.09585 0.0
C81 C 0.25313 1.00645 0.03925 0.0
C82 C 0.25301 0.06134 0.10054 0.0
N83 N 0.27236 0.06023 0.06583 0.0
C84 C 0.24411 0.08111 0.13883 0.0
H85 H 0.23612 1.00197 0.0446 0.0
H86 H 0.2625 0.99726 0.08102 0.0
H87 H 0.25912 1.00216 0.98129 0.0
H88 H 0.2467 0.08037 0.20126 0.0
H89 H 0.22669 0.08217 0.12907 0.0
H90 H 0.25198 0.09564 0.11697 0.0
C91 C 0.49405 0.25431 0.06557 0.0
N92 N 0.48528 0.2739 0.05634 0.0
N93 N 0.48259 0.24291 0.1167 0.0
C94 C 0.51386 0.24648 0.02597 0.0
C95 C 0.46686 0.25646 0.13914 0.0
N96 N 0.46838 0.27514 0.10213 0.0
C97 C 0.45139 0.25211 0.20279 0.0
H98 H 0.51369 0.22883 0.02 0.0
H99 H 0.52787 0.25117 0.06066 0.0
H100 H 0.51547 0.25377 0.96898 0.0
H101 H 0.46025 0.24723 0.2543 0.0
H102 H 0.44091 0.23864 0.18576 0.0
H103 H 0.44132 0.26619 0.21689 0.0
Tb104 Tb 0.03434 0.01089 0.71677 0.0
C105 C 0.95661 0.99615 0.51649 0.0
C106 C 0.96755 0.97078 0.41865 0.0
C107 C 0.93053 0.97218 0.45943 0.0
C108 C 0.97245 0.98708 0.47221 0.0
C109 C 0.93536 0.98917 0.50965 0.0
C110 C 0.94662 0.96301 0.41389 0.0
C111 C 0.92497 0.01756 0.59689 0.0
N112 N 0.96191 0.01264 0.56346 0.0
C113 C 0.94626 0.02395 0.60134 0.0
C114 C 0.91952 0.99989 0.55164 0.0
Tb115 Tb 0.9974 0.02161 0.56925 0.0
N116 N 0.99242 0.99515 0.47835 0.0
C117 C 1.00784 0.98869 0.42744 0.0
C118 C 0.98363 0.96332 0.36968 0.0
C119 C 1.00378 0.97258 0.3733 0.0
H120 H 0.95029 0.03752 0.63717 0.0
H121 H 0.01625 0.96732 0.33449 0.0
H122 H 0.94261 0.95033 0.37372 0.0
H123 H 0.9128 0.02622 0.62858 0.0
H124 H 0.02358 0.99535 0.42881 0.0
H125 H 0.01631 0.06524 0.9522 0.0
H126 H 0.98051 0.95087 0.32761 0.0
H127 H 0.08112 0.99391 0.64924 0.0
H128 H 1.00822 0.03874 0.8534 0.0
H129 H 0.11892 1.00346 0.66157 0.0
H130 H 0.91434 0.96645 0.45381 0.0
H131 H 0.05298 0.07876 0.9671 0.0
H132 H 0.09106 0.07831 0.92286 0.0
H133 H 0.903 0.99501 0.54805 0.0
H134 H 0.11904 0.06168 0.84281 0.0
N135 N 0.03984 0.03717 0.80816 0.0
C136 C 0.02432 0.04429 0.85757 0.0
C137 C 0.04947 0.06726 0.92209 0.0
C138 C 0.06547 0.0596 0.87321 0.0
C139 C 0.02881 0.05954 0.91428 0.0
C140 C 0.06013 0.04413 0.81705 0.0
H141 H 0.12963 0.0335 0.74614 0.0
N142 N 0.07008 0.01868 0.72465 0.0
C143 C 0.10697 0.01242 0.69324 0.0
C144 C 0.07582 0.03463 0.77333 0.0
C145 C 0.08544 1.00703 0.68663 0.0
C146 C 0.11293 0.02943 0.74074 0.0
C147 C 0.09734 0.04053 0.78262 0.0
O148 O 0.05027 0.98406 0.75784 0.0
O149 O 0.01428 0.99691 0.62779 0.0
O150 O 0.98015 1.00382 0.65774 0.0
O151 O 1.00109 0.01265 0.76188 0.0
O152 O 0.04367 0.98419 0.6399 0.0
O153 O 0.02338 0.99735 0.81883 0.0
O154 O 0.97982 0.04718 0.52695 0.0
O155 O 0.01757 0.03557 0.65756 0.0
O156 O 0.05193 0.02855 0.62906 0.0
O157 O 0.03075 0.02059 0.52419 0.0
O158 O 0.98834 0.04859 0.64563 0.0
O159 O 1.0079 0.03588 0.46781 0.0
C160 C 0.02639 0.98221 0.60199 0.0
C161 C 0.0254 0.9597 0.80729 0.0
C162 C 0.99565 0.93644 0.84105 0.0
C163 C 1.00578 0.95646 0.84456 0.0
C164 C 1.0054 0.91982 0.79819 0.0
C165 C 0.03468 0.94278 0.76513 0.0
C166 C 0.02461 0.92308 0.76017 0.0
C167 C 0.98266 1.00624 0.73241 0.0
C168 C 0.03581 0.98083 0.80977 0.0
C169 C 0.10263 0.05679 0.83522 0.0
C170 C 0.08671 0.06626 0.88073 0.0
C171 C 1.00571 0.05048 0.68317 0.0
C172 C 1.00202 0.07336 0.47539 0.0
C173 C 0.02346 0.07802 0.45825 0.0
C174 C 0.03082 0.09923 0.4605 0.0
C175 C 0.01641 0.11561 0.48154 0.0
C176 C 0.98807 0.09007 0.4956 0.0
C177 C 0.9953 0.111 0.49931 0.0
C178 C 0.04929 0.02662 0.55421 0.0
C179 C 0.99398 0.05125 0.47486 0.0
H180 H 0.99844 0.96955 0.87612 0.0
H181 H 0.99866 0.90396 0.79578 0.0
H182 H 0.04972 0.94474 0.73552 0.0
H183 H 0.0319 0.91014 0.72771 0.0
H184 H 0.03435 0.06521 0.44298 0.0
H185 H 0.02112 0.13221 0.48167 0.0
H186 H 0.97151 0.08694 0.50892 0.0
H187 H 0.98441 0.12378 0.51477 0.0
Tb188 Tb 0.52313 0.03252 0.71307 0.0
C189 C 0.53704 0.96576 0.47524 0.0
C190 C 0.56041 0.98445 0.38937 0.0
C191 C 0.56238 0.94585 0.39615 0.0
C192 C 0.54447 0.98459 0.44641 0.0
C193 C 0.54553 0.94607 0.44921 0.0
C194 C 0.5697 0.96503 0.36577 0.0
C195 C 0.51784 0.92834 0.51974 0.0
N196 N 0.52023 0.96667 0.52387 0.0
C197 C 0.5097 0.94827 0.54203 0.0
C198 C 0.53609 0.92722 0.47412 0.0
Tb199 Tb 0.5076 1.00007 0.55714 0.0
N200 N 0.53509 1.00299 0.4707 0.0
C201 C 0.54076 0.0219 0.43837 0.0
C202 C 0.56589 1.00371 0.35557 0.0
C203 C 0.55612 0.02253 0.38053 0.0
H204 H 0.4952 0.94902 0.57545 0.0
H205 H 0.56031 0.03755 0.35487 0.0
H206 H 0.58215 0.96463 0.32272 0.0
H207 H 0.50984 0.91389 0.53676 0.0
H208 H 0.53362 0.03671 0.45632 0.0
H209 H 0.54769 1.00224 0.98721 0.0
H210 H 0.57715 1.00419 0.30877 0.0
H211 H 0.48239 0.06645 0.67158 0.0
H212 H 0.55229 0.01121 0.85201 0.0
H213 H 0.45063 0.08012 0.73485 0.0
H214 H 0.56923 0.93091 0.37591 0.0
H215 H 0.51354 0.01004 0.05285 0.0
H216 H 0.47736 0.02687 0.04945 0.0
H217 H 0.54216 0.91178 0.45564 0.0
H218 H 0.45109 0.04831 0.98093 0.0
N219 N 0.52097 0.02366 0.83974 0.0
C220 C 0.53749 0.01515 0.8802 0.0
C221 C 0.51552 0.01408 0.99337 0.0
C222 C 0.4993 0.02439 0.9538 0.0
C223 C 0.53484 0.00977 0.9567 0.0
C224 C 0.50263 0.02926 0.87625 0.0
H225 H 0.44136 0.06876 0.865 0.0
N226 N 0.49219 0.04682 0.76415 0.0
C227 C 0.46092 0.06916 0.76434 0.0
C228 C 0.48789 0.04141 0.83758 0.0
C229 C 0.47927 0.06116 0.72839 0.0
C230 C 0.45571 0.06268 0.83769 0.0
C231 C 0.46938 0.04892 0.87575 0.0
O232 O 0.54622 0.05482 0.67851 0.0
O233 O 0.53388 0.01765 0.6068 0.0
O234 O 0.51955 0.97787 0.64318 0.0
O235 O 0.52298 0.99922 0.75318 0.0
O236 O 0.55301 0.01446 0.70047 0.0
O237 O 0.53293 0.05669 0.79025 0.0
O238 O 0.48008 0.98388 0.52086 0.0
O239 O 0.49578 0.02012 0.65196 0.0
O240 O 0.51459 0.05449 0.62322 0.0
O241 O 0.50086 0.03328 0.52517 0.0
O242 O 0.4832 0.99008 0.63844 0.0
O243 O 0.4946 1.00724 0.45008 0.0
C244 C 0.55167 0.00996 0.62846 0.0
C245 C 0.56829 0.06781 0.77569 0.0
C246 C 0.59958 0.05341 0.83779 0.0
C247 C 0.57964 0.05055 0.80414 0.0
C248 C 0.6087 0.07386 0.83964 0.0
C249 C 0.57735 0.08821 0.77825 0.0
C250 C 0.5976 0.09117 0.80969 0.0
C251 C 0.52255 0.98037 0.71762 0.0
C252 C 0.54697 0.06448 0.74416 0.0
C253 C 0.46538 0.04297 0.95134 0.0
C254 C 0.48031 0.03072 0.99029 0.0
C255 C 0.48209 1.00725 0.67925 0.0
C256 C 0.45712 1.00713 0.45631 0.0
C257 C 0.45486 0.02375 0.40426 0.0
C258 C 0.43674 0.03688 0.4063 0.0
C259 C 0.42026 0.03239 0.45833 0.0
C260 C 0.44027 1.00267 0.50679 0.0
C261 C 0.42194 0.01523 0.50744 0.0
C262 C 0.50606 0.05209 0.55504 0.0
C263 C 0.47768 0.99585 0.46195 0.0
H264 H 0.57301 0.03479 0.79989 0.0
H265 H 0.62415 0.0765 0.86531 0.0
H266 H 0.5688 0.10177 0.7561 0.0
H267 H 0.60459 0.10693 0.81164 0.0
H268 H 0.46758 0.02697 0.36401 0.0
H269 H 0.40578 0.04181 0.45974 0.0
H270 H 0.4414 0.98983 0.54717 0.0
H271 H 0.40911 0.0118 0.54682 0.0
Tb272 Tb 0.53182 0.50815 0.56877 0.0
C273 C 0.44754 0.52559 0.67975 0.0
C274 C 0.435 0.56194 0.69312 0.0
C275 C 0.40999 0.53369 0.66176 0.0
C276 C 0.45164 0.54677 0.69397 0.0
C277 C 0.42657 0.51869 0.66443 0.0
C278 C 0.41422 0.55533 0.67559 0.0
C279 C 0.43967 0.48258 0.65965 0.0
N280 N 0.46399 0.51162 0.68359 0.0
C281 C 0.4602 0.49021 0.67438 0.0
C282 C 0.42279 0.4969 0.65408 0.0
Tb283 Tb 0.49679 0.52536 0.71692 0.0
N284 N 0.47174 0.55233 0.71328 0.0
C285 C 0.47582 0.57277 0.73851 0.0
C286 C 0.43957 0.58312 0.71293 0.0
C287 C 0.46005 0.58851 0.73666 0.0
H288 H 0.47284 0.47868 0.67607 0.0
H289 H 0.46364 0.60469 0.75469 0.0
H290 H 0.40124 0.56672 0.67435 0.0
H291 H 0.43696 0.46565 0.65169 0.0
H292 H 0.49146 0.57697 0.75939 0.0
H293 H 0.59878 0.47691 0.72801 0.0
H294 H 0.42726 0.59525 0.71273 0.0
H295 H 0.53398 0.53301 0.40245 0.0
H296 H 0.56209 0.47751 0.68389 0.0
H297 H 0.559 0.55643 0.33468 0.0
H298 H 0.39381 0.52871 0.64974 0.0
H299 H 0.62444 0.50402 0.68471 0.0
H300 H 0.63255 0.53443 0.59821 0.0
H301 H 0.40693 0.49096 0.64228 0.0
H302 H 0.62159 0.5565 0.49044 0.0
N303 N 0.56593 0.50524 0.61542 0.0
C304 C 0.57269 0.48954 0.6631 0.0
C305 C 0.60817 0.50441 0.66443 0.0
C306 C 0.6017 0.51941 0.61122 0.0
C307 C 0.59376 0.48904 0.68869 0.0
C308 C 0.58033 0.51917 0.5865 0.0
H309 H 0.59433 0.56436 0.39011 0.0
N310 N 0.55424 0.52904 0.49844 0.0
C311 C 0.56339 0.54982 0.38905 0.0
C312 C 0.57424 0.53157 0.52595 0.0
C313 C 0.54921 0.53661 0.42784 0.0
C314 C 0.58328 0.5543 0.42063 0.0
C315 C 0.58921 0.54456 0.48859 0.0
O316 O 0.55052 0.48892 0.495 0.0
O317 O 0.49862 0.51175 0.60334 0.0
O318 O 0.50329 0.49157 0.73644 0.0
O319 O 0.52751 0.48045 0.64299 0.0
O320 O 0.50714 0.52146 0.49555 0.0
O321 O 0.51701 0.48376 0.50373 0.0
O322 O 0.48978 0.50682 0.81336 0.0
O323 O 0.52949 0.51635 0.68894 0.0
O324 O 0.5308 0.54339 0.56323 0.0
O325 O 0.50283 0.55347 0.64533 0.0
O326 O 0.52486 0.54386 0.75082 0.0
O327 O 0.4945 0.5404 0.82446 0.0
C328 C 0.4914 0.5199 0.54246 0.0
C329 C 0.53228 0.4795 0.38121 0.0
C330 C 0.51293 0.46866 0.26652 0.0
C331 C 0.51502 0.46908 0.34634 0.0
C332 C 0.52804 0.47926 0.2217 0.0
C333 C 0.54751 0.48963 0.33514 0.0
C334 C 0.54518 0.48976 0.25597 0.0
C335 C 0.51532 0.47676 0.70324 0.0
C336 C 0.53417 0.47939 0.46525 0.0
C337 C 0.60996 0.54631 0.51751 0.0
C338 C 0.6162 0.53374 0.57883 0.0
C339 C 0.53929 0.53147 0.72265 0.0
C340 C 0.50922 0.51924 0.92086 0.0
C341 C 0.52066 0.53672 0.95011 0.0
C342 C 0.53663 0.53397 1.00443 0.0
C343 C 0.54114 0.51355 0.03115 0.0
C344 C 0.51389 0.49876 0.94778 0.0
C345 C 0.52983 0.49597 1.00239 0.0
C346 C 0.51749 0.55783 0.59301 0.0
C347 C 0.49319 0.52258 0.86055 0.0
H348 H 0.50363 0.46062 0.38132 0.0
H349 H 0.52675 0.4791 0.16018 0.0
H350 H 0.56126 0.49742 0.35999 0.0
H351 H 0.55688 0.49772 0.22098 0.0
H352 H 0.51727 0.55268 0.93044 0.0
H353 H 0.55343 0.51121 0.07332 0.0
H354 H 0.50541 0.48492 0.92626 0.0
H355 H 0.53347 0.48012 0.0221 0.0
Tb356 Tb 0.0241 0.53662 0.5707 0.0
C357 C 0.00959 0.45045 0.64863 0.0
C358 C 0.97417 0.43606 0.63138 0.0
C359 C 1.00492 0.41345 0.60725 0.0
C360 C 0.98784 0.45326 0.65004 0.0
C361 C 0.01839 0.43039 0.62792 0.0
C362 C 0.98285 0.41631 0.60848 0.0
C363 C 0.05318 0.44488 0.65207 0.0
N364 N 0.02214 0.46727 0.66825 0.0
C365 C 0.04378 0.46441 0.67213 0.0
C366 C 0.04046 0.42783 0.62919 0.0
Tb367 Tb 1.00487 0.49863 0.70352 0.0
N368 N 0.98005 0.47246 0.67349 0.0
C369 C 0.95858 0.47444 0.68833 0.0
C370 C 0.9522 0.43892 0.63914 0.0
C371 C 0.9444 0.4581 0.66913 0.0
H372 H 0.05428 0.47694 0.68966 0.0
H373 H 0.92748 0.4602 0.67881 0.0
H374 H 0.97261 0.403 0.59357 0.0
H375 H 0.07031 0.44302 0.65425 0.0
H376 H 0.95224 0.4888 0.71495 0.0
H377 H 0.10035 0.57693 0.60065 0.0
H378 H 0.94121 0.42614 0.62526 0.0
H379 H 0.97441 0.55811 0.57385 0.0
H380 H 0.07628 0.54824 0.55895 0.0
H381 H 0.95748 0.59144 0.61142 0.0
H382 H 0.01142 0.39798 0.5913 0.0
H383 H 0.08574 0.6098 0.6607 0.0
H384 H 0.05371 0.63174 0.69557 0.0
H385 H 0.04781 0.41272 0.61344 0.0
H386 H 0.0148 0.63603 0.69508 0.0
N387 N 0.04816 0.56321 0.60368 0.0
C388 C 0.06962 0.56206 0.5881 0.0
C389 C 0.07509 0.59697 0.6442 0.0
C390 C 0.05304 0.59922 0.65162 0.0
C391 C 0.08339 0.57846 0.61052 0.0
C392 C 0.03984 0.58197 0.6294 0.0
H393 H 0.97898 0.62138 0.66186 0.0
N394 N 1.00598 0.56765 0.60457 0.0
C395 C 0.97455 0.58966 0.6172 0.0
C396 C 0.01805 0.58442 0.62847 0.0
C397 C 0.98443 0.57041 0.59649 0.0
C398 C 0.98671 0.60653 0.64536 0.0
C399 C 1.00875 0.60415 0.65065 0.0
O400 O 0.00978 0.54877 0.47159 0.0
O401 O 0.01475 0.50345 0.58554 0.0
O402 O 0.03757 0.50781 0.73784 0.0
O403 O 0.0521 0.52752 0.63891 0.0
O404 O 0.04121 0.50907 0.52052 0.0
O405 O 0.04354 0.54293 0.47667 0.0
O406 O 0.02009 0.48818 0.80349 0.0
O407 O 0.01423 0.53172 0.6884 0.0
O408 O 0.99175 0.52643 0.53471 0.0
O409 O 0.97686 0.50862 0.63745 0.0
O410 O 0.98758 0.52625 0.75237 0.0
O411 O 0.98606 0.49157 0.79872 0.0
C412 C 0.02879 0.4942 0.54399 0.0
C413 C 0.02765 0.54067 0.35479 0.0
C414 C 0.045 0.52038 0.25201 0.0
C415 C 0.04211 0.52484 0.33012 0.0
C416 C 0.03287 0.53151 0.19866 0.0
C417 C 0.0151 0.55107 0.30083 0.0
C418 C 0.01764 0.5464 0.22313 0.0
C419 C 0.05387 0.51753 0.70463 0.0
C420 C 0.02774 0.54874 0.43417 0.0
C421 C 0.02171 0.62094 0.67668 0.0
C422 C 0.04383 0.61846 0.67732 0.0
C423 C 1.00011 0.54105 0.72918 0.0
C424 C 1.00211 0.49719 0.91902 0.0
C425 C 0.98799 0.51384 0.93831 0.0
C426 C 0.98554 0.52082 0.01444 0.0
C427 C 0.99755 0.51101 0.07135 0.0
C428 C 0.01458 0.48815 0.97627 0.0
C429 C 0.01233 0.49509 0.05206 0.0
C430 C 0.97527 0.51755 0.56985 0.0
C431 C 1.0023 0.48753 0.84174 0.0
H432 H 0.05223 0.51703 0.37108 0.0
H433 H 0.03539 0.52885 0.13809 0.0
H434 H 1.00395 0.56342 0.31858 0.0
H435 H 1.00826 0.55484 0.18162 0.0
H436 H 0.9779 0.52054 0.8949 0.0
H437 H 0.99533 0.5155 0.1307 0.0
H438 H 0.02553 0.47524 0.96272 0.0
H439 H 0.02167 0.48774 0.09627 0.0
H440 H 0.23699 0.04421 0.24863 0.0
H441 H 0.20345 0.0413 0.32017 0.0
H442 H 0.17038 0.0265 0.11114 0.0
H443 H 0.20412 0.02982 0.03927 0.0
H444 H 0.16583 0.06642 0.29852 0.0
H445 H 0.14876 0.98005 0.25899 0.0
H446 H 0.17496 0.99109 0.24376 0.0
H447 H 0.15455 0.99456 0.17371 0.0
C448 C 0.22261 0.04004 0.21809 0.0
C449 C 0.22331 0.03709 0.13824 0.0
C450 C 0.20336 0.03845 0.25905 0.0
C451 C 0.18415 0.03359 0.22171 0.0
C452 C 0.18489 0.02998 0.14198 0.0
H453 H 0.05333 0.01706 0.40008 0.0
H454 H 0.08496 0.01978 0.31871 0.0
C455 C 0.20422 0.03177 0.10076 0.0
C456 C 0.16345 0.03327 0.26617 0.0
H457 H 0.12276 1.00071 0.32393 0.0
C458 C 0.15645 0.05202 0.30398 0.0
C459 C 0.1509 0.01462 0.27334 0.0
C460 C 0.15764 0.99385 0.23589 0.0
C461 C 0.13742 0.05269 0.34772 0.0
C462 C 0.12512 0.03388 0.35669 0.0
C463 C 0.13201 0.01519 0.31796 0.0
C464 C 0.10532 0.03314 0.40644 0.0
C465 C 0.13047 0.0738 0.38222 0.0
C466 C 0.10573 0.03984 0.48362 0.0
C467 C 0.08747 0.03845 0.53039 0.0
C468 C 0.06824 0.02988 0.50228 0.0
C469 C 0.06774 0.02354 0.42467 0.0
C470 C 0.08598 0.02504 0.37775 0.0
H471 H 0.13688 0.08739 0.34936 0.0
H472 H 0.11286 0.0752 0.3845 0.0
H473 H 0.1367 0.07524 0.44121 0.0
H474 H 0.12033 0.04583 0.50848 0.0
H475 H 0.08855 0.04394 0.5891 0.0
H476 H 0.51655 0.23191 0.20139 0.0
H477 H 0.52125 0.19843 0.27128 0.0
H478 H 0.46266 0.17441 0.17597 0.0
H479 H 0.458 0.2079 0.1068 0.0
H480 H 0.48805 0.1822 0.37989 0.0
H481 H 0.50777 0.12477 0.14466 0.0
H482 H 0.51211 0.15314 0.13667 0.0
H483 H 0.48567 0.14251 0.12978 0.0
C484 C 0.50502 0.21922 0.19423 0.0
C485 C 0.48704 0.22228 0.14839 0.0
C486 C 0.5076 0.2002 0.23441 0.0
C487 C 0.49238 0.18382 0.22849 0.0
C488 C 0.47474 0.18667 0.18074 0.0
H489 H 0.47986 0.05786 0.43194 0.0
H490 H 0.47561 0.08981 0.35507 0.0
C491 C 0.47207 0.20575 0.14132 0.0
C492 C 0.49412 0.16441 0.27609 0.0
H493 H 0.50218 0.11048 0.26691 0.0
C494 C 0.49126 0.16652 0.35533 0.0
C495 C 0.49791 0.14392 0.24386 0.0
C496 C 0.50119 0.14079 0.15912 0.0
C497 C 0.49185 0.1487 0.40315 0.0
C498 C 0.49621 0.12818 0.37132 0.0
C499 C 0.49893 0.12611 0.29176 0.0
C500 C 0.4983 0.10877 0.41946 0.0
C501 C 0.4871 0.15207 0.487 0.0
C502 C 0.5125 0.10848 0.48122 0.0
C503 C 0.51457 0.09029 0.526 0.0
C504 C 0.50289 0.07166 0.50915 0.0
C505 C 0.48898 0.07184 0.4466 0.0
C506 C 0.48662 0.09017 0.40248 0.0
H507 H 0.47721 0.16655 0.49722 0.0
H508 H 0.47865 0.13817 0.51123 0.0
H509 H 0.50228 0.15437 0.5182 0.0
H510 H 0.52228 0.12224 0.49432 0.0
H511 H 0.52576 0.0907 0.57281 0.0
H512 H 0.32322 0.50747 0.10055 0.0
H513 H 0.3585 0.51273 0.15824 0.0
H514 H 0.32907 0.51889 0.38045 0.0
H515 H 0.29399 0.51519 0.32206 0.0
H516 H 0.35968 0.54521 0.3769 0.0
H517 H 0.39287 0.46936 0.26213 0.0
H518 H 0.38513 0.48719 0.18836 0.0
H519 H 0.36524 0.47636 0.25122 0.0
C520 C 0.32433 0.51032 0.16147 0.0
C521 C 0.30576 0.51056 0.20677 0.0
C522 C 0.34459 0.51294 0.19488 0.0
C523 C 0.34684 0.51549 0.27467 0.0
C524 C 0.32812 0.51668 0.31914 0.0
H525 H 0.46486 0.48615 0.516 0.0
H526 H 0.42974 0.48629 0.45625 0.0
C527 C 0.30796 0.5144 0.28571 0.0
C528 C 0.36838 0.51696 0.31265 0.0
H529 H 0.41676 0.49205 0.32816 0.0
C530 C 0.37209 0.53346 0.36638 0.0
C531 C 0.38478 0.50163 0.30031 0.0
C532 C 0.38178 0.48252 0.248 0.0
C533 C 0.39125 0.53499 0.40815 0.0
C534 C 0.40794 0.51998 0.39449 0.0
C535 C 0.40428 0.50363 0.33982 0.0
C536 C 0.42895 0.52038 0.43696 0.0
C537 C 0.3928 0.55242 0.4682 0.0
C538 C 0.44077 0.53934 0.44747 0.0
C539 C 0.4604 0.53932 0.48604 0.0
C540 C 0.46904 0.52033 0.51416 0.0
C541 C 0.45792 0.50126 0.50021 0.0
C542 C 0.43798 0.50133 0.464 0.0
H543 H 0.37684 0.55675 0.49149 0.0
H544 H 0.40301 0.54768 0.51619 0.0
H545 H 0.3996 0.56692 0.44211 0.0
H546 H 0.43516 0.55417 0.42419 0.0
H547 H 0.46917 0.55413 0.49198 0.0
H548 H 0.06533 0.32002 0.1552 0.0
H549 H 0.06096 0.35474 0.21937 0.0
H550 H 0.99386 0.34247 0.24687 0.0
H551 H 0.99857 0.30712 0.18548 0.0
H552 H 0.04127 0.39011 0.1956 0.0
H553 H 1.00568 0.35912 0.46122 0.0
H554 H 0.01653 0.34166 0.38806 0.0
H555 H 0.99026 0.35284 0.37804 0.0
C556 C 0.04961 0.32471 0.17485 0.0
C557 C 0.03237 0.31051 0.16541 0.0
C558 C 0.04707 0.34473 0.21175 0.0
C559 C 0.02715 0.3515 0.24082 0.0
C560 C 0.00962 0.33773 0.22799 0.0
H561 H 0.9926 0.47155 0.49855 0.0
H562 H 0.99096 0.43776 0.42443 0.0
C563 C 0.01221 0.31753 0.19131 0.0
C564 C 0.0251 0.37283 0.28375 0.0
H565 H 1.00768 0.39662 0.45128 0.0
C566 C 0.03395 0.39134 0.25166 0.0
C567 C 0.0155 0.37506 0.35732 0.0
C568 C 1.00663 0.35611 0.39863 0.0
C569 C 0.03358 0.41146 0.29002 0.0
C570 C 0.02433 0.41359 0.36394 0.0
C571 C 0.01495 0.39529 0.39528 0.0
C572 C 0.02508 0.43434 0.4104 0.0
C573 C 0.04299 0.4304 0.25017 0.0
C574 C 0.04469 0.44399 0.42881 0.0
C575 C 0.04562 0.46313 0.47217 0.0
C576 C 0.02702 0.47324 0.50017 0.0
C577 C 1.00731 0.46392 0.48047 0.0
C578 C 1.00637 0.44459 0.43742 0.0
H579 H 0.04329 0.42796 0.18724 0.0
H580 H 0.03394 0.44522 0.26381 0.0
H581 H 0.05965 0.43259 0.26941 0.0
H582 H 0.05946 0.43661 0.41009 0.0
H583 H 0.06107 0.46996 0.48465 0.0
H584 H 0.80503 0.02201 0.13311 0.0
H585 H 0.83873 0.02694 0.06287 0.0
H586 H 0.85546 0.96139 0.10344 0.0
H587 H 0.82232 0.95692 0.17598 0.0
H588 H 0.89008 0.98391 0.11119 0.0
H589 H 0.84898 1.00808 0.8478 0.0
H590 H 0.84365 0.02581 0.92696 0.0
H591 H 0.8347 0.99856 0.9299 0.0
C592 C 0.81622 1.00888 0.12868 0.0
C593 C 0.811 0.98908 0.16039 0.0
C594 C 0.83535 0.01154 0.08705 0.0
C595 C 0.84966 0.99436 0.07504 0.0
C596 C 0.84487 0.97494 0.11052 0.0
H597 H 0.94472 0.98541 0.70274 0.0
H598 H 0.91334 0.98231 0.78566 0.0
C599 C 0.82588 0.97237 0.15237 0.0
C600 C 0.86935 0.99624 0.02498 0.0
H601 H 0.88667 0.00998 0.84613 0.0
C602 C 0.88923 0.98964 0.05326 0.0
C603 C 0.86858 1.00325 0.94828 0.0
C604 C 0.84782 1.00912 0.91104 0.0
C605 C 0.90803 0.99005 0.00831 0.0
C606 C 0.90741 0.99782 0.9326 0.0
C607 C 0.8875 1.0042 0.90401 0.0
C608 C 0.92704 0.99931 0.88208 0.0
C609 C 0.92825 0.98142 0.04222 0.0
C610 C 0.94557 0.0099 0.90722 0.0
C611 C 0.96365 0.01156 0.85979 0.0
C612 C 0.96378 1.00311 0.7847 0.0
C613 C 0.94528 0.99242 0.75958 0.0
C614 C 0.92722 0.99061 0.80731 0.0
H615 H 0.9248 0.9694 0.08645 0.0
H616 H 0.93863 0.97395 0.99788 0.0
H617 H 0.93712 0.99469 0.07007 0.0
H618 H 0.94599 0.01729 0.96344 0.0
H619 H 0.97739 0.01994 0.8818 0.0
H620 H 0.55639 0.82336 0.18486 0.0
H621 H 0.55355 0.85803 0.12127 0.0
H622 H 0.50555 0.83184 0.9717 0.0
H623 H 0.50828 0.79749 0.0361 0.0
H624 H 0.56186 0.86573 0.96881 0.0
H625 H 0.47853 0.88825 0.03688 0.0
H626 H 0.49254 0.86773 0.08753 0.0
H627 H 0.48094 0.86194 0.99585 0.0
C628 C 0.54485 0.82533 0.13984 0.0
C629 C 0.53229 0.80797 0.11604 0.0
C630 C 0.54334 0.84502 0.10306 0.0
C631 C 0.52912 0.84773 0.04212 0.0
C632 C 0.51628 0.83041 0.01951 0.0
H633 H 0.50041 0.94307 0.70466 0.0
H634 H 0.50311 0.91138 0.78359 0.0
C635 C 0.51785 0.81078 0.05611 0.0
C636 C 0.52866 0.86809 0.9988 0.0
H637 H 0.49544 0.90746 0.93702 0.0
C638 C 0.54739 0.87499 0.96257 0.0
C639 C 0.50977 0.88019 0.99017 0.0
C640 C 0.48935 0.87429 0.03025 0.0
C641 C 0.5476 0.89314 0.91618 0.0
C642 C 0.52863 0.90507 0.90665 0.0
C643 C 0.50998 0.89834 0.94385 0.0
C644 C 0.52764 0.92428 0.85723 0.0
C645 C 0.56799 0.89892 0.87558 0.0
C646 C 0.54049 0.94223 0.87186 0.0
C647 C 0.53915 0.96028 0.8258 0.0
C648 C 0.52484 0.9609 0.76442 0.0
C649 C 0.51199 0.94295 0.75002 0.0
C650 C 0.51333 0.9249 0.79591 0.0
H651 H 0.57928 0.88527 0.87245 0.0
H652 H 0.56476 0.90432 0.81673 0.0
H653 H 0.57588 0.91215 0.90728 0.0
H654 H 0.55142 0.94239 0.91944 0.0
H655 H 0.54951 0.97365 0.83785 0.0
H656 H 0.7205 0.49922 0.08225 0.0
H657 H 0.68491 0.49628 0.02378 0.0
H658 H 0.6826 0.56456 1.00181 0.0
H659 H 0.7177 0.56752 0.06193 0.0
H660 H 0.64256 0.52122 0.06699 0.0
H661 H 0.67519 0.5358 0.77726 0.0
H662 H 0.69128 0.52534 0.85327 0.0
H663 H 0.68425 0.55308 0.85348 0.0
C664 C 0.71216 0.5136 0.06651 0.0
C665 C 0.72201 0.53361 0.07648 0.0
C666 C 0.69188 0.51191 0.03254 0.0
C667 C 0.68109 0.53018 0.00724 0.0
C668 C 0.6906 0.55019 0.01984 0.0
H669 H 0.57237 0.55947 0.71961 0.0
H670 H 0.60564 0.55842 0.7921 0.0
C671 C 0.7107 0.55188 0.05425 0.0
C672 C 0.66025 0.52855 0.96566 0.0
H673 H 0.63787 0.53483 0.78971 0.0
C674 C 0.64149 0.52409 0.00627 0.0
C675 C 0.65877 0.53234 0.88649 0.0
C676 C 0.6784 0.53679 0.8395 0.0
C677 C 0.6213 0.52402 0.97067 0.0
C678 C 0.61969 0.52798 0.89104 0.0
C679 C 0.63869 0.53198 0.85047 0.0
C680 C 0.59874 0.52868 0.84856 0.0
C681 C 0.60197 0.52044 0.02023 0.0
C682 C 0.5833 0.51247 0.85521 0.0
C683 C 0.56408 0.51328 0.81418 0.0
C684 C 0.56012 0.52982 0.76281 0.0
C685 C 0.57527 0.54618 0.75688 0.0
C686 C 0.59435 0.54553 0.79855 0.0
H687 H 0.60493 0.52539 0.08041 0.0
H688 H 0.58799 0.52934 0.99958 0.0
H689 H 0.59808 0.50318 0.0198 0.0
H690 H 0.58614 0.49894 0.89123 0.0
H691 H 0.55241 0.50078 0.82171 0.0
H692 H 0.03102 0.72683 0.09051 0.0
H693 H 0.03491 0.69205 0.02315 0.0
H694 H 0.96863 0.67881 0.06434 0.0
H695 H 0.96492 0.71303 0.13302 0.0
H696 H 0.02264 0.64602 0.07236 0.0
H697 H 0.97762 0.67516 0.82296 0.0
H698 H 0.99046 0.69307 0.89015 0.0
H699 H 0.96587 0.68039 0.91527 0.0
C700 C 0.01743 0.71627 0.08678 0.0
C701 C 0.99761 0.72292 0.11726 0.0
C702 C 0.0196 0.69638 0.04759 0.0
C703 C 1.00199 0.68266 0.0371 0.0
C704 C 0.98246 0.68899 0.0702 0.0
H705 H 0.96789 0.567 0.77864 0.0
H706 H 0.96965 0.60047 0.85251 0.0
C707 C 0.98035 0.70865 0.10977 0.0
C708 C 1.00353 0.66216 0.98988 0.0
H709 H 0.98567 0.63839 0.82411 0.0
C710 C 0.01471 0.64444 0.01776 0.0
C711 C 0.9931 0.65971 0.91862 0.0
C712 C 0.98117 0.67808 0.88429 0.0
C713 C 0.01517 0.62447 0.978 0.0
C714 C 1.00468 0.622 0.90656 0.0
C715 C 0.99378 0.63989 0.8784 0.0
C716 C 1.00401 0.60101 0.86152 0.0
C717 C 0.02615 0.60591 0.01493 0.0
C718 C 0.02265 0.5896 0.84054 0.0
C719 C 0.02162 0.57028 0.79765 0.0
C720 C 1.00193 0.56194 0.77292 0.0
C721 C 0.98336 0.57311 0.79503 0.0
C722 C 0.98437 0.59238 0.83754 0.0
H723 H 0.02795 0.60854 0.07742 0.0
H724 H 0.01722 0.59085 1.00514 0.0
H725 H 0.04232 0.60398 0.98992 0.0
H726 H 0.03812 0.59579 0.85619 0.0
H727 H 0.03625 0.56193 0.78331 0.0
H728 H 0.09267 0.2475 0.12151 0.0
H729 H 0.11004 0.21339 0.1542 0.0
H730 H 0.04863 0.18766 0.21499 0.0
H731 H 0.03166 0.22128 0.18184 0.0
H732 H 0.11153 0.19084 0.28858 0.0
H733 H 0.07154 0.14163 0.07241 0.0
H734 H 0.0739 0.17025 0.06406 0.0
H735 H 0.05189 0.15872 0.11558 0.0
C736 C 0.08311 0.23438 0.14181 0.0
C737 C 0.06092 0.2366 0.14858 0.0
C738 C 0.09294 0.21502 0.16007 0.0
C739 C 0.08054 0.1978 0.18473 0.0
C740 C 0.05844 0.20046 0.19347 0.0
H741 H 0.05672 0.13126 0.51369 0.0
H742 H 0.08299 0.14928 0.43859 0.0
C743 C 0.04874 0.21961 0.1752 0.0
C744 C 0.09005 0.1771 0.20573 0.0
H745 H 0.07396 0.1256 0.20051 0.0
C746 C 0.10396 0.17633 0.26799 0.0
C747 C 0.08162 0.15788 0.17583 0.0
C748 C 0.06914 0.15717 0.10254 0.0
C749 C 0.10631 0.15744 0.30922 0.0
C750 C 0.09343 0.1396 0.2901 0.0
C751 C 0.0831 0.13937 0.21894 0.0
C752 C 0.08516 0.12482 0.34934 0.0
C753 C 0.12153 0.15726 0.3754 0.0
C754 C 0.07822 0.10418 0.32865 0.0
C755 C 0.06178 0.09445 0.36956 0.0
C756 C 0.05261 0.10491 0.43342 0.0
C757 C 0.06259 0.12334 0.46235 0.0
C758 C 0.07831 0.13346 0.41995 0.0
H759 H 0.13722 0.16357 0.35701 0.0
H760 H 0.11557 0.16808 0.42157 0.0
H761 H 0.12383 0.14099 0.39807 0.0
H762 H 0.08367 0.09667 0.27595 0.0
H763 H 0.05495 0.07992 0.34628 0.0
H764 H 0.30061 0.07832 0.96733 0.0
H765 H 0.33669 0.08975 1.00272 0.0
H766 H 0.31912 0.08736 0.24044 0.0
H767 H 0.28444 0.0733 0.20579 0.0
H768 H 0.36128 0.11951 0.12293 0.0
H769 H 0.35551 0.03266 0.1792 0.0
H770 H 0.33483 0.047 0.13101 0.0
H771 H 0.33696 0.04879 0.23291 0.0
C772 C 0.3045 0.08038 0.02696 0.0
C773 C 0.29011 0.07398 0.08379 0.0
C774 C 0.32487 0.0875 0.04706 0.0
C775 C 0.33056 0.08908 0.12423 0.0
C776 C 0.31496 0.08623 0.18056 0.0
H777 H 0.42156 0.07723 0.43345 0.0
H778 H 0.40423 0.09917 0.33851 0.0
C779 C 0.29508 0.07819 0.16062 0.0
C780 C 0.35308 0.08689 0.14626 0.0
H781 H 0.38653 0.05028 0.22177 0.0
C782 C 0.36703 0.10437 0.14361 0.0
C783 C 0.36043 0.06707 0.17313 0.0
C784 C 0.3462 0.04774 0.17884 0.0
C785 C 0.38805 0.1026 0.17087 0.0
C786 C 0.39505 0.08285 0.19911 0.0
C787 C 0.38128 0.06531 0.19834 0.0
C788 C 0.41494 0.07999 0.24204 0.0
C789 C 0.40244 0.12178 0.1717 0.0
C790 C 0.4286 0.06334 0.21855 0.0
C791 C 0.43799 0.05036 0.27293 0.0
C792 C 0.43407 0.05427 0.35093 0.0
C793 C 0.42407 0.07344 0.37355 0.0
C794 C 0.4146 0.08633 0.31913 0.0
H795 H 0.39634 0.13459 0.1346 0.0
H796 H 0.40357 0.1282 0.23095 0.0
H797 H 0.41875 0.11721 0.15276 0.0
H798 H 0.42909 0.05824 0.15918 0.0
H799 H 0.44595 0.0359 0.25366 0.0
H800 H 0.48329 0.30101 0.21048 0.0
H801 H 0.47282 0.33804 0.23431 0.0
H802 H 0.42267 0.33147 0.06789 0.0
H803 H 0.4335 0.29407 0.04433 0.0
H804 H 0.44812 0.36435 0.03692 0.0
H805 H 0.42622 0.37123 0.33952 0.0
H806 H 0.45022 0.35586 0.33231 0.0
H807 H 0.42612 0.34589 0.28877 0.0
C808 C 0.46954 0.30736 0.18148 0.0
C809 C 0.45903 0.295 0.12634 0.0
C810 C 0.46345 0.32841 0.19515 0.0
C811 C 0.44665 0.33745 0.15399 0.0
C812 C 0.43545 0.32472 0.10106 0.0
H813 H 0.47029 0.46711 0.30053 0.0
H814 H 0.44485 0.43991 0.25699 0.0
C815 C 0.44155 0.30349 0.0877 0.0
C816 C 0.44364 0.36086 0.15823 0.0
H817 H 0.44817 0.40105 0.28963 0.0
C818 C 0.4473 0.37256 0.09186 0.0
C819 C 0.44181 0.37177 0.22914 0.0
C820 C 0.43561 0.36046 0.30118 0.0
C821 C 0.45223 0.39434 0.09622 0.0
C822 C 0.45415 0.40437 0.16886 0.0
C823 C 0.44736 0.39337 0.23382 0.0
C824 C 0.46718 0.42387 0.18075 0.0
C825 C 0.45663 0.40592 0.02311 0.0
C826 C 0.48799 0.42433 0.15094 0.0
C827 C 0.50234 0.43997 0.17466 0.0
C828 C 0.49638 0.45517 0.23043 0.0
C829 C 0.47527 0.45546 0.25766 0.0
C830 C 0.46074 0.43999 0.23267 0.0
H831 H 0.4447 0.40133 0.97926 0.0
H832 H 0.45627 0.42352 0.03122 0.0
H833 H 0.47245 0.40102 1.00045 0.0
H834 H 0.49371 0.41164 0.11356 0.0
H835 H 0.51859 0.43915 0.15365 0.0
H836 H 0.22682 0.50291 0.27595 0.0
H837 H 0.18943 0.49317 0.28934 0.0
H838 H 0.19634 0.44752 0.10329 0.0
H839 H 0.2336 0.45866 0.08731 0.0
H840 H 0.16482 0.46947 0.07507 0.0
H841 H 0.15346 0.44885 0.37421 0.0
H842 H 0.16687 0.47397 0.375 0.0
H843 H 0.17979 0.45074 0.33314 0.0
C844 C 0.22043 0.49022 0.24024 0.0
C845 C 0.23284 0.48125 0.18153 0.0
C846 C 0.19911 0.4845 0.24798 0.0
C847 C 0.19 0.46919 0.19849 0.0
C848 C 0.20295 0.45923 0.14263 0.0
H849 H 0.05449 0.48037 0.30185 0.0
H850 H 0.08732 0.46018 0.27673 0.0
C851 C 0.2242 0.46539 0.13378 0.0
C852 C 0.1665 0.46646 0.19759 0.0
H853 H 0.12363 0.46941 0.31699 0.0
C854 C 0.15581 0.46873 0.12793 0.0
C855 C 0.15438 0.46466 0.2655 0.0
C856 C 0.16433 0.45914 0.34081 0.0
C857 C 0.13368 0.4716 0.12561 0.0
C858 C 0.12212 0.47345 0.19491 0.0
C859 C 0.13243 0.46874 0.26362 0.0
C860 C 0.10052 0.48318 0.19876 0.0
C861 C 0.12316 0.47313 0.04881 0.0
C862 C 0.09674 0.50261 0.16226 0.0
C863 C 0.0779 0.51389 0.17539 0.0
C864 C 0.06269 0.50628 0.22701 0.0
C865 C 0.06601 0.4865 0.26159 0.0
C866 C 0.08474 0.47499 0.24726 0.0
H867 H 0.13054 0.46153 0.00802 0.0
H868 H 0.1058 0.46989 0.05179 0.0
H869 H 0.12574 0.48931 0.02581 0.0
H870 H 0.10888 0.50983 0.12708 0.0
H871 H 0.07594 0.5293 0.14925 0.0
H872 H 0.99612 0.80905 0.08721 0.0
H873 H 0.98056 0.84441 0.07052 0.0
H874 H 0.92332 0.82432 0.18628 0.0
H875 H 0.93913 0.78842 0.20148 0.0
H876 H 0.91569 0.85065 0.05587 0.0
H877 H 0.97401 0.88798 0.24724 0.0
H878 H 0.98774 0.8696 0.18487 0.0
H879 H 0.96785 0.85982 0.25011 0.0
C880 C 0.9801 0.81219 0.10767 0.0
C881 C 0.9687 0.79638 0.14528 0.0
C882 C 0.97129 0.83233 0.09912 0.0
C883 C 0.95103 0.8371 0.12916 0.0
C884 C 0.93908 0.82097 0.16367 0.0
H885 H 0.98349 0.95408 0.98051 0.0
H886 H 0.95804 0.93923 0.06928 0.0
C887 C 0.94796 0.80059 0.17183 0.0
C888 C 0.94313 0.85921 0.12314 0.0
H889 H 0.96636 0.9078 0.12919 0.0
C890 C 0.92622 0.86347 0.07378 0.0
C891 C 0.95563 0.87628 0.15099 0.0
C892 C 0.97212 0.87319 0.21215 0.0
C893 C 0.92429 0.88361 0.04048 0.0
C894 C 0.9405 0.89898 0.05327 0.0
C895 C 0.95445 0.89594 0.11486 0.0
C896 C 0.94745 0.91396 0.99255 0.0
C897 C 0.90572 0.88767 0.98858 0.0
C898 C 0.94825 0.90659 0.91625 0.0
C899 C 0.96201 0.91588 0.86385 0.0
C900 C 0.97617 0.932 0.88727 0.0
C901 C 0.97328 0.94134 0.96023 0.0
C902 C 0.95873 0.93265 0.01178 0.0
H903 H 0.89068 0.88318 0.01777 0.0
H904 H 0.90465 0.90466 0.97197 0.0
H905 H 0.90706 0.87736 0.93666 0.0
H906 H 0.94016 0.89219 0.89826 0.0
H907 H 0.96288 0.90899 0.80685 0.0
H908 H 0.74115 0.99165 0.06643 0.0
H909 H 0.70632 0.98673 0.00781 0.0
H910 H 0.6916 0.93735 0.16849 0.0
H911 H 0.7271 0.94222 0.22674 0.0
H912 H 0.68366 0.94864 0.94519 0.0
H913 H 0.64622 0.98568 0.20437 0.0
H914 H 0.67468 0.98798 0.1918 0.0
H915 H 0.66303 0.96247 0.21037 0.0
C916 C 0.7306 0.97945 0.08786 0.0
C917 C 0.73648 0.96735 0.15062 0.0
C918 C 0.71083 0.97655 0.05444 0.0
C919 C 0.69648 0.96162 0.08373 0.0
C920 C 0.70254 0.9489 0.14515 0.0
H921 H 0.58231 0.02415 0.93287 0.0
H922 H 0.59968 0.99299 0.98744 0.0
C923 C 0.7226 0.95174 0.17847 0.0
C924 C 0.67455 0.96212 0.05445 0.0
H925 H 0.63167 0.99435 0.0855 0.0
C926 C 0.67168 0.95779 0.97639 0.0
C927 C 0.65873 0.97356 0.09563 0.0
C928 C 0.66063 0.97771 0.18031 0.0
C929 C 0.65522 0.96758 0.93623 0.0
C930 C 0.64172 0.98216 0.97535 0.0
C931 C 0.64243 0.98357 0.05528 0.0
C932 C 0.63024 0.99907 0.93462 0.0
C933 C 0.65359 0.96365 0.85137 0.0
C934 C 0.64175 0.01299 0.88778 0.0
C935 C 0.63187 0.03073 0.85642 0.0
C936 C 0.61034 0.0349 0.87183 0.0
C937 C 0.59884 0.021 0.91887 0.0
C938 C 0.60871 1.00323 0.95008 0.0
H939 H 0.65807 0.94695 0.83641 0.0
H940 H 0.63725 0.9668 0.83035 0.0
H941 H 0.66488 0.97429 0.82143 0.0
H942 H 0.6586 0.01051 0.87729 0.0
H943 H 0.64105 0.04115 0.8202 0.0
H944 H 0.5144 0.72252 0.12875 0.0
H945 H 0.5204 0.68428 0.10508 0.0
H946 H 0.58812 0.69542 0.09212 0.0
H947 H 0.58192 0.73381 0.11685 0.0
H948 H 0.54148 0.66398 0.97959 0.0
H949 H 0.58039 0.64875 0.25815 0.0
H950 H 0.56446 0.6722 0.24148 0.0
H951 H 0.5909 0.67027 0.20269 0.0
C952 C 0.53047 0.7167 0.11945 0.0
C953 C 0.54772 0.73078 0.12355 0.0
C954 C 0.53392 0.69499 0.10649 0.0
C955 C 0.55471 0.68708 0.09783 0.0
C956 C 0.57199 0.70126 0.09968 0.0
H957 H 0.56548 0.55683 0.9261 0.0
H958 H 0.5761 0.59365 0.95394 0.0
C959 C 0.56849 0.72306 0.11264 0.0
C960 C 0.55797 0.66391 0.08674 0.0
H961 H 0.5759 0.61919 0.17475 0.0
C962 C 0.54924 0.65417 0.02166 0.0
C963 C 0.56773 0.65127 0.14276 0.0
C964 C 0.57631 0.66102 0.21562 0.0
C965 C 0.54956 0.63198 0.01154 0.0
C966 C 0.55958 0.61924 0.06704 0.0
C967 C 0.56861 0.62903 0.13177 0.0
C968 C 0.55896 0.59567 0.06132 0.0
C969 C 0.53815 0.6224 0.94342 0.0
C970 C 0.54759 0.58406 0.11595 0.0
C971 C 0.54222 0.56275 0.10126 0.0
C972 C 0.54809 0.55301 0.03171 0.0
C973 C 0.56109 0.56404 0.98047 0.0
C974 C 0.5669 0.5851 0.99595 0.0
H975 H 0.52701 0.63395 0.91734 0.0
H976 H 0.55001 0.61762 0.89921 0.0
H977 H 0.52896 0.60804 0.95964 0.0
H978 H 0.5414 0.59191 0.16695 0.0
H979 H 0.53193 0.55454 0.14091 0.0
H980 H 0.79336 0.58478 0.10461 0.0
H981 H 0.8304 0.59565 0.07734 0.0
H982 H 0.84657 0.52996 0.02661 0.0
H983 H 0.80976 0.51945 0.05283 0.0
H984 H 0.86626 0.58205 0.15381 0.0
H985 H 0.87375 0.56072 0.8488 0.0
H986 H 0.84819 0.56444 0.89509 0.0
H987 H 0.8618 0.53914 0.89924 0.0
C988 C 0.80488 0.57294 0.08575 0.0
C989 C 0.79905 0.5514 0.0798 0.0
C990 C 0.82591 0.57906 0.07057 0.0
C991 C 0.84111 0.56366 0.04847 0.0
C992 C 0.83499 0.54219 0.04143 0.0
H993 H 0.95612 0.51858 0.12901 0.0
H994 H 0.92325 0.53902 0.1401 0.0
C995 C 0.81411 0.53614 0.05672 0.0
C996 C 0.86385 0.56918 0.03926 0.0
H997 H 0.90613 0.55633 0.92509 0.0
C998 C 0.87499 0.57708 0.10297 0.0
C999 C 0.87522 0.5634 0.97221 0.0
C1000 C 0.86404 0.5567 0.89973 0.0
C1001 C 0.89735 0.5769 0.1041 0.0
C1002 C 0.90858 0.56807 0.04109 0.0
C1003 C 0.89749 0.56268 0.97422 0.0
C1004 C 0.93076 0.56036 0.0478 0.0
C1005 C 0.90889 0.58531 0.17341 0.0
C1006 C 0.9462 0.56588 0.99353 0.0
C1007 C 0.96507 0.55413 0.98719 0.0
C1008 C 0.9686 0.5365 0.03401 0.0
C1009 C 0.95395 0.53218 0.09249 0.0
C1010 C 0.93515 0.54396 0.09909 0.0
H1011 H 0.8985 0.59571 0.2096 0.0
H1012 H 0.91431 0.57178 0.20809 0.0
H1013 H 0.92324 0.5944 0.15604 0.0
H1014 H 0.94308 0.57838 0.95312 0.0
H1015 H 0.97636 0.55796 0.94276 0.0
H1016 H 0.06187 0.23865 0.97144 0.0
H1017 H 0.05725 0.20502 0.89995 0.0
H1018 H 0.99409 0.19899 0.99468 0.0
H1019 H 0.99864 0.23317 0.0638 0.0
H1020 H 0.05374 0.16666 0.93982 0.0
H1021 H 0.9793 0.18204 0.78472 0.0
H1022 H 0.99335 0.20295 0.83497 0.0
H1023 H 0.97554 0.18555 0.88553 0.0
C1024 C 0.04671 0.2305 0.97478 0.0
C1025 C 0.0304 0.23908 0.02167 0.0
C1026 C 0.04412 0.21099 0.93449 0.0
C1027 C 0.02514 0.19907 0.93974 0.0
C1028 C 1.00869 0.2078 0.98638 0.0
H1029 H 0.97989 0.07392 0.7762 0.0
H1030 H 0.98595 0.10874 0.83672 0.0
C1031 C 0.01123 0.22753 0.02615 0.0
C1032 C 0.02322 0.17723 0.89999 0.0
H1033 H 0.99057 0.14582 0.7884 0.0
C1034 C 0.03988 0.16224 0.9066 0.0
C1035 C 1.00541 0.17099 0.85503 0.0
C1036 C 0.98751 0.18631 0.83886 0.0
C1037 C 0.039 0.14148 0.87286 0.0
C1038 C 0.0209 0.13498 0.8297 0.0
C1039 C 1.00441 0.15016 0.82194 0.0
C1040 C 0.01816 0.11259 0.79443 0.0
C1041 C 0.05744 0.12663 0.88606 0.0
C1042 C 0.03411 0.10222 0.7497 0.0
C1043 C 0.03079 0.08168 0.71636 0.0
C1044 C 0.01122 0.07098 0.72531 0.0
C1045 C 0.99528 0.08143 0.76881 0.0
C1046 C 0.99873 0.10161 0.80324 0.0
H1047 H 0.06642 0.13113 0.93827 0.0
H1048 H 0.05196 0.10999 0.89146 0.0
H1049 H 0.06864 0.12744 0.83703 0.0
H1050 H 0.04904 0.11018 0.73857 0.0
H1051 H 0.04325 0.07453 0.68144 0.0
H1052 H 0.30729 0.01827 0.09616 0.0
H1053 H 0.34228 0.01123 0.03642 0.0
H1054 H 0.32026 0.03944 0.82851 0.0
H1055 H 0.28518 0.04568 0.88793 0.0
H1056 H 0.34531 1.00756 0.7914 0.0
H1057 H 0.38802 0.05449 0.01174 0.0
H1058 H 0.37449 0.03211 0.05157 0.0
H1059 H 0.35938 0.05324 0.00855 0.0
C1060 C 0.30984 0.02249 0.03717 0.0
C1061 C 0.29349 0.03263 0.99695 0.0
C1062 C 0.33003 0.01881 1.00314 0.0
C1063 C 0.33456 0.02545 0.92811 0.0
C1064 C 0.31764 0.03434 0.88652 0.0
H1065 H 0.44941 0.03305 0.63279 0.0
H1066 H 0.41384 0.03734 0.69094 0.0
C1067 C 0.29744 0.03779 0.92033 0.0
C1068 C 0.35673 0.02339 0.89314 0.0
H1069 H 0.40965 0.03492 0.92324 0.0
C1070 C 0.35928 0.01366 0.82048 0.0
C1071 C 0.37536 0.03146 0.92952 0.0
C1072 C 0.3742 0.04362 1.00424 0.0
C1073 C 0.37952 0.0114 0.78485 0.0
C1074 C 0.39808 0.01909 0.82207 0.0
C1075 C 0.39561 0.02883 0.89444 0.0
C1076 C 0.4201 0.01708 0.7871 0.0
C1077 C 0.38093 1.00043 0.70775 0.0
C1078 C 0.43591 1.00458 0.82168 0.0
C1079 C 0.45622 1.002 0.7879 0.0
C1080 C 0.46165 0.01252 0.72018 0.0
C1081 C 0.44594 0.02515 0.68588 0.0
C1082 C 0.42549 0.02746 0.71892 0.0
H1083 H 0.36633 0.99112 0.69453 0.0
H1084 H 0.38291 0.01265 0.66321 0.0
H1085 H 0.39491 0.98957 0.70458 0.0
H1086 H 0.43236 0.99634 0.87404 0.0
H1087 H 0.46772 0.99167 0.81466 0.0
H1088 H 0.46373 0.29288 0.94457 0.0
H1089 H 0.47268 0.32633 0.88206 0.0
H1090 H 0.53248 0.32828 1.00205 0.0
H1091 H 0.52284 0.29509 0.0674 0.0
H1092 H 0.5138 0.36641 0.00898 0.0
H1093 H 0.51173 0.3388 0.70843 0.0
H1094 H 0.48722 0.33283 0.75621 0.0
H1095 H 0.51161 0.32047 0.78669 0.0
C1096 C 0.47893 0.30032 0.95646 0.0
C1097 C 0.4927 0.29132 0.01 0.0
C1098 C 0.48413 0.31939 0.92039 0.0
C1099 C 0.50348 0.32981 0.93586 0.0
C1100 C 0.51753 0.32055 0.98841 0.0
H1101 H 0.54088 0.44202 0.66735 0.0
H1102 H 0.54027 0.40662 0.72502 0.0
C1103 C 0.51219 0.30147 0.02507 0.0
C1104 C 0.50832 0.35087 0.90028 0.0
H1105 H 0.50875 0.37672 0.72966 0.0
C1106 C 0.51293 0.36856 0.94781 0.0
C1107 C 0.50764 0.35383 0.82024 0.0
C1108 C 0.50452 0.33541 0.76496 0.0
C1109 C 0.51602 0.38908 0.9179 0.0
C1110 C 0.51381 0.39226 0.83845 0.0
C1111 C 0.51009 0.37446 0.79066 0.0
C1112 C 0.51465 0.41398 0.80425 0.0
C1113 C 0.52209 0.40716 0.9714 0.0
C1114 C 0.50025 0.4299 0.82832 0.0
C1115 C 0.5006 0.45014 0.79574 0.0
C1116 C 0.51526 0.45505 0.73741 0.0
C1117 C 0.52947 0.43896 0.71236 0.0
C1118 C 0.52913 0.41866 0.74533 0.0
H1119 H 0.52805 0.40124 0.02676 0.0
H1120 H 0.53455 0.41728 0.9452 0.0
H1121 H 0.508 0.41737 0.98318 0.0
H1122 H 0.48842 0.4266 0.87172 0.0
H1123 H 0.48912 0.46186 0.8159 0.0
H1124 H 0.24762 0.49161 0.96285 0.0
H1125 H 0.21436 0.49509 0.89001 0.0
H1126 H 0.18766 0.53379 0.07241 0.0
H1127 H 0.2211 0.53071 0.14335 0.0
H1128 H 0.17522 0.48145 0.92375 0.0
H1129 H 0.17065 0.56903 0.8943 0.0
H1130 H 0.19455 0.55578 0.92504 0.0
H1131 H 0.17328 0.56129 0.99183 0.0
C1132 C 0.23492 0.50157 0.9856 0.0
C1133 C 0.23723 0.51153 0.0575 0.0
C1134 C 0.21574 0.50331 0.94462 0.0
C1135 C 0.19832 0.51502 0.97458 0.0
C1136 C 0.20084 0.5252 0.04627 0.0
H1137 H 0.063 0.5054 0.85158 0.0
H1138 H 0.09766 0.50445 0.91532 0.0
C1139 C 0.22003 0.52353 0.08689 0.0
C1140 C 0.1773 0.51569 0.93302 0.0
H1141 H 0.13896 0.54956 0.8656 0.0
C1142 C 0.1674 0.4964 0.91101 0.0
C1143 C 0.16692 0.5351 0.91494 0.0
C1144 C 0.17698 0.55647 0.93201 0.0
C1145 C 0.14753 0.49602 0.87328 0.0
C1146 C 0.13688 0.51538 0.85778 0.0
C1147 C 0.14687 0.53466 0.87841 0.0
C1148 C 0.11561 0.51588 0.8187 0.0
C1149 C 0.13825 0.47493 0.84776 0.0
C1150 C 0.1139 0.5227 0.74299 0.0
C1151 C 0.09405 0.52308 0.70597 0.0
C1152 C 0.07519 0.51704 0.74389 0.0
C1153 C 0.077 0.51023 0.82 0.0
C1154 C 0.0969 0.50967 0.85678 0.0
H1155 H 0.14867 0.46126 0.86215 0.0
H1156 H 0.12244 0.47259 0.87488 0.0
H1157 H 0.13577 0.47495 0.78507 0.0
H1158 H 0.12802 0.52748 0.71198 0.0
H1159 H 0.09366 0.5278 0.64708 0.0
H1160 H 0.03226 0.79954 0.21933 0.0
H1161 H 0.0376 0.8337 0.28872 0.0
H1162 H 0.97466 0.82856 0.38572 0.0
H1163 H 0.96991 0.79428 0.31941 0.0
H1164 H 0.01883 0.8708 0.27817 0.0
H1165 H 1.00377 0.8466 0.57458 0.0
H1166 H 1.00733 0.82732 0.49809 0.0
H1167 H 0.98177 0.83979 0.51435 0.0
C1168 C 0.01997 0.80531 0.258 0.0
C1169 C 1.00086 0.79373 0.26519 0.0
C1170 C 0.02285 0.82511 0.29702 0.0
C1171 C 1.00674 0.83402 0.3447 0.0
C1172 C 0.98779 0.82217 0.35227 0.0
H1173 H 0.9888 0.95806 0.59712 0.0
H1174 H 0.98333 0.92305 0.53326 0.0
C1175 C 0.98501 0.80242 0.31386 0.0
C1176 C 0.00911 0.85603 0.38257 0.0
H1177 H 1.00282 0.88405 0.55213 0.0
C1178 C 0.01539 0.87352 0.33822 0.0
C1179 C 1.00468 0.86019 0.46128 0.0
C1180 C 0.99923 0.84244 0.51498 0.0
C1181 C 0.01681 0.89458 0.36887 0.0
C1182 C 0.01234 0.89875 0.44746 0.0
C1183 C 1.00609 0.8813 0.49196 0.0
C1184 C 0.01511 0.92073 0.48497 0.0
C1185 C 0.02257 0.91231 0.31554 0.0
C1186 C 0.03476 0.93147 0.48089 0.0
C1187 C 0.03782 0.95146 0.51714 0.0
C1188 C 0.02135 0.96178 0.55856 0.0
C1189 C 1.00168 0.95104 0.56389 0.0
C1190 C 0.99863 0.93082 0.52774 0.0
H1191 H 0.01853 0.90811 0.25549 0.0
H1192 H 0.01422 0.9273 0.33165 0.0
H1193 H 0.03998 0.91518 0.31821 0.0
H1194 H 0.04807 0.92414 0.4509 0.0
H1195 H 0.05335 0.95888 0.51315 0.0
H1196 H 0.73385 0.02258 0.2505 0.0
H1197 H 0.6999 0.02856 0.31927 0.0
H1198 H 0.70515 0.96615 0.41704 0.0
H1199 H 0.73919 0.9607 0.35035 0.0
H1200 H 0.66323 1.00936 0.30686 0.0
H1201 H 0.6873 0.99739 0.60499 0.0
H1202 H 0.70654 1.00037 0.52916 0.0
H1203 H 0.69441 0.97483 0.54611 0.0
C1204 C 0.72806 0.01052 0.28891 0.0
C1205 C 0.73953 0.99138 0.29654 0.0
C1206 C 0.70846 0.0138 0.32774 0.0
C1207 C 0.69975 0.99804 0.37554 0.0
C1208 C 0.71148 0.97901 0.38334 0.0
H1209 H 0.57682 0.97444 0.60664 0.0
H1210 H 0.61192 0.97189 0.54339 0.0
C1211 C 0.73102 0.97581 0.34486 0.0
C1212 C 0.67788 1.00076 0.41244 0.0
H1213 H 0.64981 0.99529 0.58023 0.0
C1214 C 0.66045 1.00645 0.36681 0.0
C1215 C 0.67377 0.99704 0.49106 0.0
C1216 C 0.69154 0.99229 0.5458 0.0
C1217 C 0.63937 1.00769 0.39596 0.0
C1218 C 0.63517 1.00361 0.47413 0.0
C1219 C 0.65265 0.99828 0.52027 0.0
C1220 C 0.61296 1.00486 0.50909 0.0
C1221 C 0.62151 0.01147 0.34094 0.0
C1222 C 0.60148 0.02423 0.51241 0.0
C1223 C 0.58127 0.02561 0.54804 0.0
C1224 C 0.57174 1.00768 0.58143 0.0
C1225 C 0.58332 0.98841 0.5795 0.0
C1226 C 0.60353 0.98699 0.54356 0.0
H1227 H 0.62736 0.01526 0.2828 0.0
H1228 H 0.61183 0.99673 0.33716 0.0
H1229 H 0.61113 0.02473 0.36105 0.0
H1230 H 0.6084 0.03853 0.48903 0.0
H1231 H 0.57327 0.04092 0.55102 0.0
H1232 H 0.4998 0.74636 0.28636 0.0
H1233 H 0.49454 0.71492 0.36673 0.0
H1234 H 0.56207 0.70232 0.35756 0.0
H1235 H 0.56721 0.73408 0.28058 0.0
H1236 H 0.50134 0.67479 0.32698 0.0
H1237 H 0.55174 0.69164 0.57772 0.0
H1238 H 0.54476 0.71201 0.51078 0.0
H1239 H 0.56669 0.69415 0.491 0.0
C1240 C 0.51353 0.73736 0.30464 0.0
C1241 C 0.53396 0.74283 0.27859 0.0
C1242 C 0.51054 0.71921 0.34959 0.0
C1243 C 0.52793 0.70621 0.36946 0.0
C1244 C 0.54841 0.71223 0.34539 0.0
H1245 H 0.52376 0.56998 0.44558 0.0
H1246 H 0.5261 0.60589 0.39543 0.0
C1247 C 0.55138 0.73039 0.30118 0.0
C1248 C 0.52459 0.68544 0.40904 0.0
H1249 H 0.54307 0.6547 0.55427 0.0
C1250 C 0.51028 0.67056 0.37732 0.0
C1251 C 0.53599 0.67978 0.47539 0.0
C1252 C 0.55047 0.69534 0.51613 0.0
C1253 C 0.50758 0.65013 0.40828 0.0
C1254 C 0.51999 0.64398 0.47169 0.0
C1255 C 0.53374 0.65912 0.50507 0.0
C1256 C 0.51924 0.62189 0.50325 0.0
C1257 C 0.49119 0.63548 0.37289 0.0
C1258 C 0.51554 0.61858 0.58147 0.0
C1259 C 0.51502 0.59784 0.61081 0.0
C1260 C 0.51828 0.57992 0.56277 0.0
C1261 C 0.52198 0.5833 0.48476 0.0
C1262 C 0.52275 0.60396 0.45556 0.0
H1263 H 0.47839 0.64467 0.34463 0.0
H1264 H 0.49898 0.62527 0.32857 0.0
H1265 H 0.48377 0.62505 0.4161 0.0
H1266 H 0.51294 0.63204 0.61992 0.0
H1267 H 0.51239 0.5959 0.67129 0.0
H1268 H 0.79695 0.4964 0.18452 0.0
H1269 H 0.83009 0.49225 0.25698 0.0
H1270 H 0.82371 0.55683 0.34286 0.0
H1271 H 0.79116 0.56101 0.26757 0.0
H1272 H 0.86221 0.55182 0.29954 0.0
H1273 H 0.8441 0.48115 0.47225 0.0
H1274 H 0.84117 0.47555 0.37226 0.0
H1275 H 0.82388 0.49476 0.41885 0.0
C1276 C 0.80228 0.50937 0.22122 0.0
C1277 C 0.79108 0.5288 0.2224 0.0
C1278 C 0.82133 0.50706 0.26266 0.0
C1279 C 0.82957 0.52407 0.30731 0.0
C1280 C 0.81792 0.54332 0.30973 0.0
H1281 H 0.93523 0.51461 0.63457 0.0
H1282 H 0.90055 0.51592 0.57143 0.0
C1283 C 0.79908 0.54566 0.26759 0.0
C1284 C 0.85084 0.52248 0.34725 0.0
H1285 H 0.88059 0.49174 0.46734 0.0
C1286 C 0.86606 0.53868 0.33648 0.0
C1287 C 0.85619 0.50559 0.39679 0.0
C1288 C 0.84039 0.48841 0.41644 0.0
C1289 C 0.88614 0.53839 0.37263 0.0
C1290 C 0.89187 0.521 0.41914 0.0
C1291 C 0.87659 0.50494 0.43085 0.0
C1292 C 0.91334 0.51953 0.45748 0.0
C1293 C 0.90076 0.55722 0.36301 0.0
C1294 C 0.93246 0.5207 0.41522 0.0
C1295 C 0.95241 0.52013 0.45153 0.0
C1296 C 0.95394 0.51784 0.53117 0.0
C1297 C 0.93483 0.51611 0.5732 0.0
C1298 C 0.91487 0.51693 0.53695 0.0
H1299 H 0.8922 0.57134 0.34093 0.0
H1300 H 0.90833 0.56172 0.41808 0.0
H1301 H 0.91357 0.5529 0.32187 0.0
H1302 H 0.93203 0.52194 0.35374 0.0
H1303 H 0.96669 0.52128 0.4169 0.0
loop_
_geom_bond_atom_site_label_1
_geom_bond_atom_site_label_2
_geom_bond_distance
_geom_bond_site_symmetry_2
_ccdc_geom_bond_type
C0 N1 1.317 . S
C0 N2 1.348 . S
C0 C3 1.485 . S
N1 C0 1.317 . S
N1 N5 1.370 . S
N2 C0 1.348 . S
N2 C4 1.346 . S
C3 C0 1.485 . S
C3 H7 0.960 . S
C3 H8 0.961 . S
C3 H9 0.960 . S
C4 N2 1.346 . S
C4 N5 1.307 . S
C4 C6 1.486 . S
N5 N1 1.370 . S
N5 C4 1.307 . S
C6 C4 1.486 . S
C6 H10 0.960 . S
C6 H11 0.960 . S
C6 H12 0.959 . S
H7 C3 0.960 . S
H8 C3 0.961 . S
H9 C3 0.960 . S
H10 C6 0.960 . S
H11 C6 0.960 . S
H12 C6 0.959 . S
C13 N14 1.317 . S
C13 N15 1.348 . S
C13 C16 1.485 . S
N14 C13 1.317 . S
N14 N18 1.370 . S
N15 C13 1.348 . S
N15 C17 1.346 . S
C16 C13 1.485 . S
C16 H20 0.960 . S
C16 H21 0.961 . S
C16 H22 0.960 . S
C17 N15 1.346 . S
C17 N18 1.307 . S
C17 C19 1.486 . S
N18 N14 1.370 . S
N18 C17 1.307 . S
C19 C17 1.486 . S
C19 H23 0.960 . S
C19 H24 0.960 . S
C19 H25 0.959 . S
H20 C16 0.960 . S
H21 C16 0.961 . S
H22 C16 0.960 . S
H23 C19 0.960 . S
H24 C19 0.960 . S
H25 C19 0.959 . S
C26 N27 1.317 . S
C26 N28 1.348 . S
C26 C29 1.485 . S
N27 C26 1.317 . S
N27 N31 1.370 . S
N28 C26 1.348 . S
N28 C30 1.346 . S
C29 C26 1.485 . S
C29 H33 0.960 . S
C29 H34 0.961 . S
C29 H35 0.960 . S
C30 N28 1.346 . S
C30 N31 1.307 . S
C30 C32 1.486 . S
N31 N27 1.370 . S
N31 C30 1.307 . S
C32 C30 1.486 . S
C32 H36 0.960 . S
C32 H37 0.960 . S
C32 H38 0.959 . S
H33 C29 0.960 . S
H34 C29 0.961 . S
H35 C29 0.960 . S
H36 C32 0.960 . S
H37 C32 0.960 . S
H38 C32 0.959 . S
C39 N40 1.317 . S
C39 N41 1.348 . S
C39 C42 1.485 . S
N40 C39 1.317 . S
N40 N44 1.370 . S
N41 C39 1.348 . S
N41 C43 1.346 . S
C42 C39 1.485 . S
C42 H46 0.960 . S
C42 H47 0.961 . S
C42 H48 0.960 . S
C43 N41 1.346 . S
C43 N44 1.307 . S
C43 C45 1.486 . S
N44 N40 1.370 . S
N44 C43 1.307 . S
C45 C43 1.486 . S
C45 H49 0.960 . S
C45 H50 0.960 . S
C45 H51 0.959 . S
H46 C42 0.960 . S
H47 C42 0.961 . S
H48 C42 0.960 . S
H49 C45 0.960 . S
H50 C45 0.960 . S
H51 C45 0.959 . S
C52 N53 1.317 . S
C52 N54 1.348 1_556 S
C52 C55 1.485 . S
N53 C52 1.317 . S
N53 N57 1.370 1_556 S
N54 C52 1.348 1_554 S
N54 C56 1.346 . S
C55 C52 1.485 . S
C55 H59 0.960 . S
C55 H60 0.961 . S
C55 H61 0.960 . S
C56 N54 1.346 . S
C56 N57 1.307 . S
C56 C58 1.486 . S
N57 N53 1.370 1_554 S
N57 C56 1.307 . S
C58 C56 1.486 . S
C58 H62 0.960 . S
C58 H63 0.960 . S
C58 H64 0.959 . S
H59 C55 0.960 . S
H60 C55 0.961 . S
H61 C55 0.960 . S
H62 C58 0.960 . S
H63 C58 0.960 . S
H64 C58 0.959 . S
C65 N66 1.317 . S
C65 N67 1.348 1_556 S
C65 C68 1.485 . S
N66 C65 1.317 . S
N66 N70 1.370 1_556 S
N67 C65 1.348 1_554 S
N67 C69 1.346 . S
C68 C65 1.485 . S
C68 H72 0.960 . S
C68 H73 0.961 . S
C68 H74 0.960 . S
C69 N67 1.346 . S
C69 N70 1.307 . S
C69 C71 1.486 . S
N70 N66 1.370 1_554 S
N70 C69 1.307 . S
C71 C69 1.486 . S
C71 H75 0.960 . S
C71 H76 0.960 . S
C71 H77 0.959 . S
H72 C68 0.960 . S
H73 C68 0.961 . S
H74 C68 0.960 . S
H75 C71 0.960 . S
H76 C71 0.960 . S
H77 C71 0.959 . S
C78 N79 1.317 . S
C78 N80 1.348 1_556 S
C78 C81 1.485 . S
N79 C78 1.317 . S
N79 N83 1.370 1_556 S
N80 C78 1.348 1_554 S
N80 C82 1.346 . S
C81 C78 1.485 . S
C81 H85 0.960 . S
C81 H86 0.961 . S
C81 H87 0.960 . S
C82 N80 1.346 . S
C82 N83 1.307 . S
C82 C84 1.486 . S
N83 N79 1.370 1_554 S
N83 C82 1.307 . S
C84 C82 1.486 . S
C84 H88 0.960 . S
C84 H89 0.960 . S
C84 H90 0.959 . S
H85 C81 0.960 . S
H86 C81 0.961 . S
H87 C81 0.960 . S
H88 C84 0.960 . S
H89 C84 0.960 . S
H90 C84 0.959 . S
C91 N92 1.317 . S
C91 N93 1.348 1_556 S
C91 C94 1.485 . S
N92 C91 1.317 . S
N92 N96 1.370 1_556 S
N93 C91 1.348 1_554 S
N93 C95 1.346 . S
C94 C91 1.485 . S
C94 H98 0.960 . S
C94 H99 0.961 . S
C94 H100 0.960 . S
C95 N93 1.346 . S
C95 N96 1.307 . S
C95 C97 1.486 . S
N96 N92 1.370 1_554 S
N96 C95 1.307 . S
C97 C95 1.486 . S
C97 H101 0.960 . S
C97 H102 0.960 . S
C97 H103 0.959 . S
H98 C94 0.960 . S
H99 C94 0.961 . S
H100 C94 0.960 . S
H101 C97 0.960 . S
H102 C97 0.960 . S
H103 C97 0.959 . S
Tb104 N135 2.660 1_565 S
Tb104 N142 2.590 1_565 S
Tb104 O148 2.546 . S
Tb104 O149 2.610 1_455 S
Tb104 O151 2.320 1_455 S
Tb104 O152 2.552 . S
Tb104 O153 2.413 . S
Tb104 O155 2.362 1_565 S
Tb104 O156 2.421 . S
Tb104 C168 2.833 . S
C105 C108 1.432 1_545 S
C105 C109 1.414 . S
C105 N112 1.359 . S
C106 C108 1.417 . S
C106 C110 1.432 . S
C106 C118 1.410 . S
C107 C109 1.444 1_565 S
C107 C110 1.317 . S
C107 H130 0.929 . S
C108 C105 1.432 1_565 S
C108 C106 1.417 . S
C108 N116 1.360 1_565 S
C109 C105 1.414 . S
C109 C107 1.444 1_545 S
C109 C114 1.385 . S
C110 C106 1.432 . S
C110 C107 1.317 . S
C110 H122 0.930 . S
C111 C113 1.392 . S
C111 C114 1.370 . S
C111 H123 0.931 . S
N112 C105 1.359 . S
N112 C113 1.327 . S
N112 Tb115 2.600 . S
C113 C111 1.392 . S
C113 N112 1.327 . S
C113 H120 0.930 . S
C114 C109 1.385 . S
C114 C111 1.370 . S
C114 H133 0.930 . S
Tb115 N112 2.600 . S
Tb115 N116 2.660 . S
Tb115 O149 2.362 1_545 S
Tb115 O150 2.421 . S
Tb115 O154 2.546 . S
Tb115 O155 2.610 1_655 S
Tb115 O157 2.320 1_655 S
Tb115 O158 2.552 1_655 S
Tb115 O159 2.413 . S
Tb115 C179 2.833 . S
N116 C108 1.360 1_545 S
N116 Tb115 2.660 . S
N116 C117 1.305 1_645 S
C117 N116 1.305 1_465 S
C117 C119 1.407 . S
C117 H124 0.930 . S
C118 C106 1.410 . S
C118 C119 1.345 1_655 S
C118 H126 0.930 . S
C119 C117 1.407 . S
C119 C118 1.345 1_455 S
C119 H121 0.930 . S
H120 C113 0.930 . S
H121 C119 0.930 . S
H122 C110 0.930 . S
H123 C111 0.931 . S
H124 C117 0.930 . S
H125 C139 0.930 1_655 S
H126 C118 0.930 . S
H127 C145 0.930 . S
H128 C136 0.930 1_655 S
H129 C143 0.931 . S
H130 C107 0.929 . S
H131 C137 0.930 1_554 S
H132 C170 0.930 1_554 S
H133 C114 0.930 . S
H134 C169 0.929 . S
N135 Tb104 2.660 1_545 S
N135 C136 1.305 . S
N135 C140 1.360 . S
C136 H128 0.930 1_455 S
C136 N135 1.305 . S
C136 C139 1.407 . S
C137 H131 0.930 1_556 S
C137 C138 1.410 . S
C137 C139 1.345 . S
C138 C137 1.410 . S
C138 C140 1.417 . S
C138 C170 1.432 . S
C139 H125 0.930 1_455 S
C139 C136 1.407 . S
C139 C137 1.345 . S
C140 N135 1.360 . S
C140 C138 1.417 . S
C140 C144 1.432 . S
H141 C146 0.930 . S
N142 Tb104 2.590 1_545 S
N142 C144 1.384 . S
N142 C145 1.310 1_545 S
C143 H129 0.931 . S
C143 C145 1.392 . S
C143 C146 1.370 1_565 S
C144 C140 1.432 . S
C144 N142 1.384 . S
C144 C147 1.414 . S
C145 H127 0.930 . S
C145 N142 1.310 1_565 S
C145 C143 1.392 . S
C146 H141 0.930 . S
C146 C143 1.370 1_545 S
C146 C147 1.385 . S
C147 C144 1.414 . S
C147 C146 1.385 . S
C147 C169 1.444 . S
O148 Tb104 2.546 . S
O148 C168 1.251 . S
O149 Tb104 2.610 1_655 S
O149 Tb115 2.362 1_565 S
O149 C160 1.283 . S
O150 Tb115 2.421 . S
O150 C167 1.262 . S
O151 Tb104 2.320 1_655 S
O151 C167 1.260 1_565 S
O152 Tb104 2.552 . S
O152 C160 1.243 1_455 S
O153 Tb104 2.413 . S
O153 C168 1.256 . S
O154 Tb115 2.546 . S
O154 C179 1.251 . S
O155 Tb104 2.362 1_545 S
O155 Tb115 2.610 1_455 S
O155 C171 1.283 . S
O156 Tb104 2.421 . S
O156 C178 1.262 1_565 S
O157 Tb115 2.320 1_455 S
O157 C178 1.260 . S
O158 Tb115 2.552 1_455 S
O158 C171 1.243 . S
O159 Tb115 2.413 . S
O159 C179 1.256 . S
C160 O149 1.283 . S
C160 O152 1.243 1_655 S
C161 C163 1.382 . S
C161 C165 1.393 . S
C161 C168 1.500 . S
C162 C163 1.400 . S
C162 C164 1.384 . S
C163 C161 1.382 . S
C163 C162 1.400 . S
C163 H180 0.897 1_455 S
C164 C162 1.384 . S
C164 C166 1.392 . S
C164 H181 0.931 . S
C165 C161 1.393 . S
C165 C166 1.401 . S
C165 H182 0.930 . S
C166 C164 1.392 . S
C166 C165 1.401 . S
C166 H183 0.930 . S
C167 O150 1.262 . S
C167 O151 1.260 1_545 S
C168 Tb104 2.833 . S
C168 O148 1.251 . S
C168 O153 1.256 . S
C168 C161 1.500 . S
C169 H134 0.929 . S
C169 C147 1.444 . S
C169 C170 1.317 . S
C170 H132 0.930 1_556 S
C170 C138 1.432 . S
C170 C169 1.317 . S
C171 O155 1.283 . S
C171 O158 1.243 . S
C172 C173 1.382 . S
C172 C176 1.393 . S
C172 C179 1.500 . S
C173 C172 1.382 . S
C173 C174 1.400 . S
C173 H184 0.930 1_655 S
C174 C173 1.400 . S
C174 C175 1.384 . S
C175 C174 1.384 . S
C175 C177 1.392 . S
C175 H185 0.931 . S
C176 C172 1.393 . S
C176 C177 1.401 . S
C176 H186 0.930 . S
C177 C175 1.392 . S
C177 C176 1.401 . S
C177 H187 0.930 . S
C178 O156 1.262 1_545 S
C178 O157 1.260 . S
C179 Tb115 2.833 . S
C179 O154 1.251 . S
C179 O159 1.256 . S
C179 C172 1.500 . S
H180 C163 0.897 1_655 S
H181 C164 0.931 . S
H182 C165 0.930 . S
H183 C166 0.930 . S
H184 C173 0.930 1_455 S
H185 C175 0.931 . S
H186 C176 0.930 . S
H187 C177 0.930 . S
Tb188 N219 2.660 . S
Tb188 N226 2.600 . S
Tb188 O232 2.546 . S
Tb188 O233 2.591 1_545 S
Tb188 O235 2.320 1_545 S
Tb188 O236 2.552 . S
Tb188 O237 2.413 . S
Tb188 O239 2.362 . S
Tb188 O240 2.421 . S
Tb188 C252 2.833 . S
C189 C192 1.432 . S
C189 C193 1.414 . S
C189 N196 1.359 . S
C190 C192 1.417 . S
C190 C194 1.432 . S
C190 C202 1.410 . S
C191 C193 1.444 . S
C191 C194 1.317 . S
C191 H214 0.929 . S
C192 C189 1.432 . S
C192 C190 1.417 . S
C192 N200 1.360 . S
C193 C189 1.414 . S
C193 C191 1.444 . S
C193 C198 1.385 . S
C194 C190 1.432 . S
C194 C191 1.317 . S
C194 H206 0.930 . S
C195 C197 1.392 . S
C195 C198 1.370 . S
C195 H207 0.931 . S
N196 C189 1.359 . S
N196 C197 1.327 . S
N196 Tb199 2.600 . S
C197 C195 1.392 . S
C197 N196 1.327 . S
C197 H204 0.930 . S
C198 C193 1.385 . S
C198 C195 1.370 . S
C198 H217 0.930 . S
Tb199 N196 2.600 . S
Tb199 N200 2.660 . S
Tb199 O233 2.367 . S
Tb199 O234 2.421 . S
Tb199 O238 2.546 . S
Tb199 O239 2.610 1_565 S
Tb199 O241 2.320 1_565 S
Tb199 O242 2.552 1_565 S
Tb199 O243 2.404 1_565 S
Tb199 C263 2.833 . S
N200 C192 1.360 . S
N200 Tb199 2.660 . S
N200 C201 1.305 1_565 S
C201 N200 1.305 1_545 S
C201 C203 1.407 . S
C201 H208 0.930 . S
C202 C190 1.410 . S
C202 C203 1.345 1_565 S
C202 H210 0.930 . S
C203 C201 1.407 . S
C203 C202 1.345 1_545 S
C203 H205 0.930 . S
H204 C197 0.930 . S
H205 C203 0.930 . S
H206 C194 0.930 . S
H207 C195 0.931 . S
H208 C201 0.930 . S
H209 C223 0.930 1_565 S
H210 C202 0.930 . S
H211 C229 0.930 . S
H212 C220 0.930 1_565 S
H213 C227 0.931 . S
H214 C191 0.929 . S
H215 C221 0.930 1_554 S
H216 C254 0.930 1_554 S
H217 C198 0.930 . S
H218 C253 0.929 . S
N219 Tb188 2.660 . S
N219 C220 1.305 . S
N219 C224 1.360 . S
C220 H212 0.930 1_545 S
C220 N219 1.305 . S
C220 C223 1.407 . S
C221 H215 0.930 1_556 S
C221 C222 1.410 . S
C221 C223 1.345 . S
C222 C221 1.410 . S
C222 C224 1.417 . S
C222 C254 1.432 . S
C223 H209 0.930 1_545 S
C223 C220 1.407 . S
C223 C221 1.345 . S
C224 N219 1.360 . S
C224 C222 1.417 . S
C224 C228 1.432 . S
H225 C230 0.930 . S
N226 Tb188 2.600 . S
N226 C228 1.359 . S
N226 C229 1.327 . S
C227 H213 0.931 . S
C227 C229 1.392 . S
C227 C230 1.370 . S
C228 C224 1.432 . S
C228 N226 1.359 . S
C228 C231 1.414 . S
C229 H211 0.930 . S
C229 N226 1.327 . S
C229 C227 1.392 . S
C230 H225 0.930 . S
C230 C227 1.370 . S
C230 C231 1.385 . S
C231 C228 1.414 . S
C231 C230 1.385 . S
C231 C253 1.444 . S
O232 Tb188 2.546 . S
O232 C252 1.251 . S
O233 Tb188 2.591 1_565 S
O233 Tb199 2.367 . S
O233 C244 1.282 1_565 S
O234 Tb199 2.421 . S
O234 C251 1.262 . S
O235 Tb188 2.320 1_565 S
O235 C251 1.260 . S
O236 Tb188 2.552 . S
O236 C244 1.239 . S
O237 Tb188 2.413 . S
O237 C252 1.256 . S
O238 Tb199 2.546 . S
O238 C263 1.251 . S
O239 Tb188 2.362 . S
O239 Tb199 2.610 1_545 S
O239 C255 1.283 . S
O240 Tb188 2.421 . S
O240 C262 1.262 . S
O241 Tb199 2.320 1_545 S
O241 C262 1.260 . S
O242 Tb199 2.552 1_545 S
O242 C255 1.243 . S
O243 Tb199 2.404 1_545 S
O243 C263 1.216 1_545 S
C244 O233 1.282 1_545 S
C244 O236 1.239 . S
C245 C247 1.382 . S
C245 C249 1.393 . S
C245 C252 1.500 . S
C246 C247 1.400 . S
C246 C248 1.384 . S
C247 C245 1.382 . S
C247 C246 1.400 . S
C247 H264 0.930 . S
C248 C246 1.384 . S
C248 C250 1.392 . S
C248 H265 0.931 . S
C249 C245 1.393 . S
C249 C250 1.401 . S
C249 H266 0.930 . S
C250 C248 1.392 . S
C250 C249 1.401 . S
C250 H267 0.930 . S
C251 O234 1.262 . S
C251 O235 1.260 . S
C252 Tb188 2.833 . S
C252 O232 1.251 . S
C252 O237 1.256 . S
C252 C245 1.500 . S
C253 H218 0.929 . S
C253 C231 1.444 . S
C253 C254 1.317 . S
C254 H216 0.930 1_556 S
C254 C222 1.432 . S
C254 C253 1.317 . S
C255 O239 1.283 . S
C255 O242 1.243 . S
C256 C257 1.357 1_565 S
C256 C260 1.393 . S
C256 C263 1.500 . S
C257 C256 1.357 1_545 S
C257 C258 1.398 1_545 S
C257 H268 0.958 . S
C258 C257 1.398 1_565 S
C258 C259 1.384 . S
C259 C258 1.384 . S
C259 C261 1.392 . S
C259 H269 0.931 . S
C260 C256 1.393 . S
C260 C261 1.401 . S
C260 H270 0.930 . S
C261 C259 1.392 . S
C261 C260 1.401 . S
C261 H271 0.930 . S
C262 O240 1.262 . S
C262 O241 1.260 . S
C263 Tb199 2.833 . S
C263 O238 1.251 . S
C263 O243 1.216 1_565 S
C263 C256 1.500 . S
H264 C247 0.930 . S
H265 C248 0.931 . S
H266 C249 0.930 . S
H267 C250 0.930 . S
H268 C257 0.958 . S
H269 C259 0.931 . S
H270 C260 0.930 . S
H271 C261 0.930 . S
Tb272 N303 2.660 . S
Tb272 N310 2.600 . S
Tb272 O316 2.546 . S
Tb272 O317 2.610 . S
Tb272 O319 2.320 . S
Tb272 O320 2.552 . S
Tb272 O321 2.413 . S
Tb272 O323 2.362 . S
Tb272 O324 2.421 . S
Tb272 C336 2.833 . S
C273 C276 1.432 . S
C273 C277 1.414 . S
C273 N280 1.359 . S
C274 C276 1.417 . S
C274 C278 1.432 . S
C274 C286 1.410 . S
C275 C277 1.444 . S
C275 C278 1.317 . S
C275 H298 0.929 . S
C276 C273 1.432 . S
C276 C274 1.417 . S
C276 N284 1.360 . S
C277 C273 1.414 . S
C277 C275 1.444 . S
C277 C282 1.385 . S
C278 C274 1.432 . S
C278 C275 1.317 . S
C278 H290 0.930 . S
C279 C281 1.392 . S
C279 C282 1.370 . S
C279 H291 0.931 . S
N280 C273 1.359 . S
N280 C281 1.327 . S
N280 Tb283 2.600 . S
C281 C279 1.392 . S
C281 N280 1.327 . S
C281 H288 0.930 . S
C282 C277 1.385 . S
C282 C279 1.370 . S
C282 H301 0.930 . S
Tb283 N280 2.600 . S
Tb283 N284 2.660 . S
Tb283 O317 2.362 . S
Tb283 O318 2.421 . S
Tb283 O322 2.546 . S
Tb283 O323 2.610 . S
Tb283 O325 2.320 . S
Tb283 O326 2.552 . S
Tb283 O327 2.413 . S
Tb283 C347 2.833 . S
N284 C276 1.360 . S
N284 Tb283 2.660 . S
N284 C285 1.305 . S
C285 N284 1.305 . S
C285 C287 1.407 . S
C285 H292 0.930 . S
C286 C274 1.410 . S
C286 C287 1.345 . S
C286 H294 0.930 . S
C287 C285 1.407 . S
C287 C286 1.345 . S
C287 H289 0.930 . S
H288 C281 0.930 . S
H289 C287 0.930 . S
H290 C278 0.930 . S
H291 C279 0.931 . S
H292 C285 0.930 . S
H293 C307 0.930 . S
H294 C286 0.930 . S
H295 C313 0.930 . S
H296 C304 0.930 . S
H297 C311 0.931 . S
H298 C275 0.929 . S
H299 C305 0.930 . S
H300 C338 0.930 . S
H301 C282 0.930 . S
H302 C337 0.929 . S
N303 Tb272 2.660 . S
N303 C304 1.305 . S
N303 C308 1.360 . S
C304 H296 0.930 . S
C304 N303 1.305 . S
C304 C307 1.407 . S
C305 H299 0.930 . S
C305 C306 1.410 . S
C305 C307 1.345 . S
C306 C305 1.410 . S
C306 C308 1.417 . S
C306 C338 1.432 . S
C307 H293 0.930 . S
C307 C304 1.407 . S
C307 C305 1.345 . S
C308 N303 1.360 . S
C308 C306 1.417 . S
C308 C312 1.432 . S
H309 C314 0.930 . S
N310 Tb272 2.600 . S
N310 C312 1.359 . S
N310 C313 1.327 . S
C311 H297 0.931 . S
C311 C313 1.392 . S
C311 C314 1.370 . S
C312 C308 1.432 . S
C312 N310 1.359 . S
C312 C315 1.414 . S
C313 H295 0.930 . S
C313 N310 1.327 . S
C313 C311 1.392 . S
C314 H309 0.930 . S
C314 C311 1.370 . S
C314 C315 1.385 . S
C315 C312 1.414 . S
C315 C314 1.385 . S
C315 C337 1.444 . S
O316 Tb272 2.546 . S
O316 C336 1.251 . S
O317 Tb272 2.610 . S
O317 Tb283 2.362 . S
O317 C328 1.283 . S
O318 Tb283 2.421 . S
O318 C335 1.262 . S
O319 Tb272 2.320 . S
O319 C335 1.260 . S
O320 Tb272 2.552 . S
O320 C328 1.243 . S
O321 Tb272 2.413 . S
O321 C336 1.256 . S
O322 Tb283 2.546 . S
O322 C347 1.251 . S
O323 Tb272 2.362 . S
O323 Tb283 2.610 . S
O323 C339 1.283 . S
O324 Tb272 2.421 . S
O324 C346 1.262 . S
O325 Tb283 2.320 . S
O325 C346 1.260 . S
O326 Tb283 2.552 . S
O326 C339 1.243 . S
O327 Tb283 2.413 . S
O327 C347 1.256 . S
C328 O317 1.283 . S
C328 O320 1.243 . S
C329 C331 1.382 . S
C329 C333 1.393 . S
C329 C336 1.500 . S
C330 C331 1.400 . S
C330 C332 1.384 . S
C331 C329 1.382 . S
C331 C330 1.400 . S
C331 H348 0.930 . S
C332 C330 1.384 . S
C332 C334 1.392 . S
C332 H349 0.931 . S
C333 C329 1.393 . S
C333 C334 1.401 . S
C333 H350 0.930 . S
C334 C332 1.392 . S
C334 C333 1.401 . S
C334 H351 0.930 . S
C335 O318 1.262 . S
C335 O319 1.260 . S
C336 Tb272 2.833 . S
C336 O316 1.251 . S
C336 O321 1.256 . S
C336 C329 1.500 . S
C337 H302 0.929 . S
C337 C315 1.444 . S
C337 C338 1.317 . S
C338 H300 0.930 . S
C338 C306 1.432 . S
C338 C337 1.317 . S
C339 O323 1.283 . S
C339 O326 1.243 . S
C340 C341 1.382 . S
C340 C344 1.393 . S
C340 C347 1.500 . S
C341 C340 1.382 . S
C341 C342 1.400 . S
C341 H352 0.930 . S
C342 C341 1.400 . S
C342 C343 1.384 1_556 S
C343 C342 1.384 1_554 S
C343 C345 1.392 . S
C343 H353 0.931 . S
C344 C340 1.393 . S
C344 C345 1.401 1_556 S
C344 H354 0.930 . S
C345 C343 1.392 . S
C345 C344 1.401 1_554 S
C345 H355 0.930 . S
C346 O324 1.262 . S
C346 O325 1.260 . S
C347 Tb283 2.833 . S
C347 O322 1.251 . S
C347 O327 1.256 . S
C347 C340 1.500 . S
H348 C331 0.930 . S
H349 C332 0.931 . S
H350 C333 0.930 . S
H351 C334 0.930 . S
H352 C341 0.930 . S
H353 C343 0.931 . S
H354 C344 0.930 . S
H355 C345 0.930 . S
Tb356 N387 2.660 . S
Tb356 N394 2.600 . S
Tb356 O400 2.546 . S
Tb356 O401 2.610 . S
Tb356 O403 2.320 . S
Tb356 O404 2.552 . S
Tb356 O405 2.413 . S
Tb356 O407 2.362 . S
Tb356 O408 2.421 1_455 S
Tb356 C420 2.833 . S
C357 C360 1.432 . S
C357 C361 1.414 . S
C357 N364 1.359 . S
C358 C360 1.417 . S
C358 C362 1.432 . S
C358 C370 1.410 . S
C359 C361 1.444 . S
C359 C362 1.317 . S
C359 H382 0.929 . S
C360 C357 1.432 . S
C360 C358 1.417 . S
C360 N368 1.360 . S
C361 C357 1.414 . S
C361 C359 1.444 . S
C361 C366 1.385 1_655 S
C362 C358 1.432 . S
C362 C359 1.317 . S
C362 H374 0.930 . S
C363 C365 1.392 . S
C363 C366 1.370 . S
C363 H375 0.931 . S
N364 C357 1.359 . S
N364 C365 1.327 1_655 S
N364 Tb367 2.600 . S
C365 C363 1.392 . S
C365 N364 1.327 1_455 S
C365 H372 0.930 . S
C366 C361 1.385 1_455 S
C366 C363 1.370 . S
C366 H385 0.930 . S
Tb367 N364 2.600 . S
Tb367 N368 2.660 . S
Tb367 O401 2.362 1_655 S
Tb367 O402 2.421 1_655 S
Tb367 O406 2.546 . S
Tb367 O407 2.610 1_655 S
Tb367 O409 2.320 . S
Tb367 O410 2.552 . S
Tb367 O411 2.413 . S
Tb367 C431 2.833 . S
N368 C360 1.360 . S
N368 Tb367 2.660 . S
N368 C369 1.305 . S
C369 N368 1.305 . S
C369 C371 1.407 . S
C369 H376 0.930 . S
C370 C358 1.410 . S
C370 C371 1.345 . S
C370 H378 0.930 . S
C371 C369 1.407 . S
C371 C370 1.345 . S
C371 H373 0.930 . S
H372 C365 0.930 . S
H373 C371 0.930 . S
H374 C362 0.930 . S
H375 C363 0.931 . S
H376 C369 0.930 . S
H377 C391 0.930 . S
H378 C370 0.930 . S
H379 C397 0.930 1_655 S
H380 C388 0.930 . S
H381 C395 0.944 . S
H382 C359 0.929 . S
H383 C389 0.930 . S
H384 C422 0.930 . S
H385 C366 0.930 . S
H386 C421 0.929 . S
N387 Tb356 2.660 . S
N387 C388 1.305 . S
N387 C392 1.360 . S
C388 H380 0.930 . S
C388 N387 1.305 . S
C388 C391 1.407 . S
C389 H383 0.930 . S
C389 C390 1.410 . S
C389 C391 1.345 . S
C390 C389 1.410 . S
C390 C392 1.417 . S
C390 C422 1.432 . S
C391 H377 0.930 . S
C391 C388 1.407 . S
C391 C389 1.345 . S
C392 N387 1.360 . S
C392 C390 1.417 . S
C392 C396 1.432 . S
H393 C398 0.930 . S
N394 Tb356 2.600 . S
N394 C396 1.359 . S
N394 C397 1.327 . S
C395 H381 0.944 . S
C395 C397 1.390 1_655 S
C395 C398 1.360 1_655 S
C396 C392 1.432 . S
C396 N394 1.359 . S
C396 C399 1.414 . S
C397 H379 0.930 1_455 S
C397 N394 1.327 . S
C397 C395 1.390 1_455 S
C398 H393 0.930 . S
C398 C395 1.360 1_455 S
C398 C399 1.385 . S
C399 C396 1.414 . S
C399 C398 1.385 . S
C399 C421 1.444 . S
O400 Tb356 2.546 . S
O400 C420 1.251 . S
O401 Tb356 2.610 . S
O401 Tb367 2.362 1_455 S
O401 C412 1.283 . S
O402 Tb367 2.421 1_455 S
O402 C419 1.262 . S
O403 Tb356 2.320 . S
O403 C419 1.260 . S
O404 Tb356 2.552 . S
O404 C412 1.243 . S
O405 Tb356 2.413 . S
O405 C420 1.256 . S
O406 Tb367 2.546 . S
O406 C431 1.251 . S
O407 Tb356 2.362 . S
O407 Tb367 2.610 1_455 S
O407 C423 1.283 1_455 S
O408 Tb356 2.421 1_655 S
O408 C430 1.262 . S
O409 Tb367 2.320 . S
O409 C430 1.260 . S
O410 Tb367 2.552 . S
O410 C423 1.243 . S
O411 Tb367 2.413 . S
O411 C431 1.256 . S
C412 O401 1.283 . S
C412 O404 1.243 . S
C413 C415 1.382 . S
C413 C417 1.393 . S
C413 C420 1.500 . S
C414 C415 1.400 . S
C414 C416 1.384 . S
C415 C413 1.382 . S
C415 C414 1.400 . S
C415 H432 0.930 . S
C416 C414 1.384 . S
C416 C418 1.392 . S
C416 H433 0.931 . S
C417 C413 1.393 . S
C417 C418 1.401 . S
C417 H434 0.930 . S
C418 C416 1.392 . S
C418 C417 1.401 . S
C418 H435 0.930 . S
C419 O402 1.262 . S
C419 O403 1.260 . S
C420 Tb356 2.833 . S
C420 O400 1.251 . S
C420 O405 1.256 . S
C420 C413 1.500 . S
C421 H386 0.929 . S
C421 C399 1.444 . S
C421 C422 1.317 . S
C422 H384 0.930 . S
C422 C390 1.432 . S
C422 C421 1.317 . S
C423 O407 1.283 1_655 S
C423 O410 1.243 . S
C424 C425 1.382 . S
C424 C428 1.393 . S
C424 C431 1.500 . S
C425 C424 1.382 . S
C425 C426 1.400 . S
C425 H436 0.930 . S
C426 C425 1.400 . S
C426 C427 1.384 1_556 S
C427 C426 1.384 1_554 S
C427 C429 1.392 . S
C427 H437 0.931 . S
C428 C424 1.393 . S
C428 C429 1.401 1_556 S
C428 H438 0.930 . S
C429 C427 1.392 . S
C429 C428 1.401 1_554 S
C429 H439 0.930 . S
C430 O408 1.262 . S
C430 O409 1.260 . S
C431 Tb367 2.833 . S
C431 O406 1.251 . S
C431 O411 1.256 . S
C431 C424 1.500 . S
H432 C415 0.930 . S
H433 C416 0.931 . S
H434 C417 0.930 . S
H435 C418 0.930 . S
H436 C425 0.930 . S
H437 C427 0.931 . S
H438 C428 0.930 . S
H439 C429 0.930 . S
H440 C448 0.929 . S
H441 C450 0.930 . S
H442 C452 0.930 . S
H443 C455 0.929 . S
H444 C458 0.930 . S
H445 C460 0.960 . S
H446 C460 0.960 . S
H447 C460 0.960 . S
C448 H440 0.929 . S
C448 C449 1.377 . S
C448 C450 1.384 . S
C449 C448 1.377 . S
C449 C455 1.390 . S
C450 H441 0.930 . S
C450 C448 1.384 . S
C450 C451 1.372 . S
C451 C450 1.372 . S
C451 C452 1.400 . S
C451 C456 1.490 . S
C452 H442 0.930 . S
C452 C451 1.400 . S
C452 C455 1.386 . S
H453 C469 0.930 . S
H454 C470 0.931 . S
C455 H443 0.929 . S
C455 C449 1.390 . S
C455 C452 1.386 . S
C456 C451 1.490 . S
C456 C458 1.395 . S
C456 C459 1.403 . S
H457 C463 0.930 . S
C458 H444 0.930 . S
C458 C456 1.395 . S
C458 C461 1.403 . S
C459 C456 1.403 . S
C459 C460 1.524 . S
C459 C463 1.400 . S
C460 H445 0.960 . S
C460 H446 0.960 . S
C460 H447 0.960 . S
C460 C459 1.524 . S
C461 C458 1.403 . S
C461 C462 1.392 . S
C461 C465 1.495 . S
C462 C461 1.392 . S
C462 C463 1.385 . S
C462 C464 1.478 . S
C463 H457 0.930 . S
C463 C459 1.400 . S
C463 C462 1.385 . S
C464 C462 1.478 . S
C464 C466 1.381 . S
C464 C470 1.383 . S
C465 C461 1.495 . S
C465 H471 0.959 . S
C465 H472 0.961 . S
C465 H473 0.992 . S
C466 C464 1.381 . S
C466 C467 1.394 . S
C466 H474 0.930 1_545 S
C467 C466 1.394 . S
C467 C468 1.383 . S
C467 H475 0.929 1_545 S
C468 C467 1.383 . S
C468 C469 1.377 . S
C469 H453 0.930 . S
C469 C468 1.377 . S
C469 C470 1.379 . S
C470 H454 0.931 . S
C470 C464 1.383 . S
C470 C469 1.379 . S
H471 C465 0.959 . S
H472 C465 0.961 . S
H473 C465 0.992 . S
H474 C466 0.930 1_565 S
H475 C467 0.929 1_565 S
H476 C484 0.929 . S
H477 C486 0.930 . S
H478 C488 0.930 . S
H479 C491 0.929 . S
H480 C494 0.930 . S
H481 C496 0.960 . S
H482 C496 0.960 . S
H483 C496 0.960 . S
C484 H476 0.929 . S
C484 C485 1.377 . S
C484 C486 1.384 . S
C485 C484 1.377 . S
C485 C491 1.390 . S
C486 H477 0.930 . S
C486 C484 1.384 . S
C486 C487 1.372 . S
C487 C486 1.372 . S
C487 C488 1.400 . S
C487 C492 1.490 . S
C488 H478 0.930 . S
C488 C487 1.400 . S
C488 C491 1.386 . S
H489 C505 0.930 . S
H490 C506 0.931 . S
C491 H479 0.929 . S
C491 C485 1.390 . S
C491 C488 1.386 . S
C492 C487 1.490 . S
C492 C494 1.395 . S
C492 C495 1.403 . S
H493 C499 0.930 . S
C494 H480 0.930 . S
C494 C492 1.395 . S
C494 C497 1.403 . S
C495 C492 1.403 . S
C495 C496 1.524 . S
C495 C499 1.400 . S
C496 H481 0.960 . S
C496 H482 0.960 . S
C496 H483 0.960 . S
C496 C495 1.524 . S
C497 C494 1.403 . S
C497 C498 1.392 . S
C497 C501 1.495 . S
C498 C497 1.392 . S
C498 C499 1.385 . S
C498 C500 1.478 . S
C499 H493 0.930 . S
C499 C495 1.400 . S
C499 C498 1.385 . S
C500 C498 1.478 . S
C500 C502 1.381 . S
C500 C506 1.383 . S
C501 C497 1.495 . S
C501 H507 0.959 . S
C501 H508 0.961 . S
C501 H509 0.960 . S
C502 C500 1.381 . S
C502 C503 1.394 . S
C502 H510 0.930 . S
C503 C502 1.394 . S
C503 C504 1.383 . S
C503 H511 0.929 . S
C504 C503 1.383 . S
C504 C505 1.377 . S
C505 H489 0.930 . S
C505 C504 1.377 . S
C505 C506 1.379 . S
C506 H490 0.931 . S
C506 C500 1.383 . S
C506 C505 1.379 . S
H507 C501 0.959 . S
H508 C501 0.961 . S
H509 C501 0.960 . S
H510 C502 0.930 . S
H511 C503 0.929 . S
H512 C520 0.929 . S
H513 C522 0.930 . S
H514 C524 0.930 . S
H515 C527 0.929 . S
H516 C530 0.930 . S
H517 C532 0.960 . S
H518 C532 0.960 . S
H519 C532 0.960 . S
C520 H512 0.929 . S
C520 C521 1.377 . S
C520 C522 1.384 . S
C521 C520 1.377 . S
C521 C527 1.390 . S
C522 H513 0.930 . S
C522 C520 1.384 . S
C522 C523 1.372 . S
C523 C522 1.372 . S
C523 C524 1.400 . S
C523 C528 1.490 . S
C524 H514 0.930 . S
C524 C523 1.400 . S
C524 C527 1.386 . S
H525 C541 0.930 . S
H526 C542 0.931 . S
C527 H515 0.929 . S
C527 C521 1.390 . S
C527 C524 1.386 . S
C528 C523 1.490 . S
C528 C530 1.395 . S
C528 C531 1.403 . S
H529 C535 0.930 . S
C530 H516 0.930 . S
C530 C528 1.395 . S
C530 C533 1.403 . S
C531 C528 1.403 . S
C531 C532 1.524 . S
C531 C535 1.400 . S
C532 H517 0.960 . S
C532 H518 0.960 . S
C532 H519 0.960 . S
C532 C531 1.524 . S
C533 C530 1.403 . S
C533 C534 1.392 . S
C533 C537 1.495 . S
C534 C533 1.392 . S
C534 C535 1.385 . S
C534 C536 1.478 . S
C535 H529 0.930 . S
C535 C531 1.400 . S
C535 C534 1.385 . S
C536 C534 1.478 . S
C536 C538 1.381 . S
C536 C542 1.383 . S
C537 C533 1.495 . S
C537 H543 0.959 . S
C537 H544 0.961 . S
C537 H545 0.960 . S
C538 C536 1.381 . S
C538 C539 1.394 . S
C538 H546 0.930 . S
C539 C538 1.394 . S
C539 C540 1.383 . S
C539 H547 0.929 . S
C540 C539 1.383 . S
C540 C541 1.377 . S
C541 H525 0.930 . S
C541 C540 1.377 . S
C541 C542 1.379 . S
C542 H526 0.931 . S
C542 C536 1.383 . S
C542 C541 1.379 . S
H543 C537 0.959 . S
H544 C537 0.961 . S
H545 C537 0.960 . S
H546 C538 0.930 . S
H547 C539 0.929 . S
H548 C556 0.929 . S
H549 C558 0.930 . S
H550 C560 0.930 . S
H551 C563 0.929 . S
H552 C566 0.930 . S
H553 C568 0.960 . S
H554 C568 0.960 . S
H555 C568 0.960 . S
C556 H548 0.929 . S
C556 C557 1.377 . S
C556 C558 1.384 . S
C557 C556 1.377 . S
C557 C563 1.390 . S
C558 H549 0.930 . S
C558 C556 1.384 . S
C558 C559 1.372 . S
C559 C558 1.372 . S
C559 C560 1.400 . S
C559 C564 1.490 . S
C560 H550 0.930 . S
C560 C559 1.400 . S
C560 C563 1.386 . S
H561 C577 0.930 1_655 S
H562 C578 0.931 . S
C563 H551 0.929 . S
C563 C557 1.390 . S
C563 C560 1.386 . S
C564 C559 1.490 . S
C564 C566 1.395 . S
C564 C567 1.403 . S
H565 C571 0.930 . S
C566 H552 0.930 . S
C566 C564 1.395 . S
C566 C569 1.403 . S
C567 C564 1.403 . S
C567 C568 1.524 . S
C567 C571 1.400 . S
C568 H553 0.960 . S
C568 H554 0.960 . S
C568 H555 0.960 . S
C568 C567 1.524 . S
C569 C566 1.403 . S
C569 C570 1.392 . S
C569 C573 1.495 . S
C570 C569 1.392 . S
C570 C571 1.385 . S
C570 C572 1.478 . S
C571 H565 0.930 . S
C571 C567 1.400 . S
C571 C570 1.385 . S
C572 C570 1.478 . S
C572 C574 1.381 . S
C572 C578 1.383 . S
C573 C569 1.495 . S
C573 H579 0.959 . S
C573 H580 0.961 . S
C573 H581 0.960 . S
C574 C572 1.381 . S
C574 C575 1.394 . S
C574 H582 0.930 . S
C575 C574 1.394 . S
C575 C576 1.383 . S
C575 H583 0.929 . S
C576 C575 1.383 . S
C576 C577 1.377 . S
C577 H561 0.930 1_455 S
C577 C576 1.377 . S
C577 C578 1.379 . S
C578 H562 0.931 . S
C578 C572 1.383 . S
C578 C577 1.379 . S
H579 C573 0.959 . S
H580 C573 0.961 . S
H581 C573 0.960 . S
H582 C574 0.930 . S
H583 C575 0.929 . S
H584 C592 0.929 . S
H585 C594 0.930 . S
H586 C596 0.930 . S
H587 C599 0.929 . S
H588 C602 0.930 . S
H589 C604 0.960 . S
H590 C604 0.960 1_554 S
H591 C604 0.960 . S
C592 H584 0.929 . S
C592 C593 1.377 . S
C592 C594 1.384 . S
C593 C592 1.377 . S
C593 C599 1.390 . S
C594 H585 0.930 . S
C594 C592 1.384 . S
C594 C595 1.372 . S
C595 C594 1.372 . S
C595 C596 1.400 . S
C595 C600 1.490 . S
C596 H586 0.930 . S
C596 C595 1.400 . S
C596 C599 1.386 . S
H597 C613 0.930 . S
H598 C614 0.931 . S
C599 H587 0.929 . S
C599 C593 1.390 . S
C599 C596 1.386 . S
C600 C595 1.490 . S
C600 C602 1.395 . S
C600 C603 1.403 1_554 S
H601 C607 0.930 1_545 S
C602 H588 0.930 . S
C602 C600 1.395 . S
C602 C605 1.403 1_554 S
C603 C600 1.403 1_556 S
C603 C604 1.524 1_565 S
C603 C607 1.400 . S
C604 H589 0.960 . S
C604 H590 0.960 1_556 S
C604 H591 0.960 . S
C604 C603 1.524 1_545 S
C605 C602 1.403 1_556 S
C605 C606 1.392 . S
C605 C609 1.495 . S
C606 C605 1.392 . S
C606 C607 1.385 . S
C606 C608 1.478 . S
C607 H601 0.930 1_565 S
C607 C603 1.400 . S
C607 C606 1.385 . S
C608 C606 1.478 . S
C608 C610 1.381 . S
C608 C614 1.383 . S
C609 C605 1.495 . S
C609 H615 0.959 1_556 S
C609 H616 0.961 . S
C609 H617 0.960 . S
C610 C608 1.381 . S
C610 C611 1.394 . S
C610 H618 0.930 . S
C611 C610 1.394 . S
C611 C612 1.383 . S
C611 H619 0.929 . S
C612 C611 1.383 . S
C612 C613 1.377 . S
C613 H597 0.930 . S
C613 C612 1.377 . S
C613 C614 1.379 . S
C614 H598 0.931 . S
C614 C608 1.383 . S
C614 C613 1.379 . S
H615 C609 0.959 1_554 S
H616 C609 0.961 . S
H617 C609 0.960 . S
H618 C610 0.930 . S
H619 C611 0.929 . S
H620 C628 0.929 . S
H621 C630 0.930 . S
H622 C632 0.930 . S
H623 C635 0.929 . S
H624 C638 0.930 . S
H625 C640 0.960 . S
H626 C640 0.960 . S
H627 C640 0.960 . S
C628 H620 0.929 . S
C628 C629 1.377 . S
C628 C630 1.384 . S
C629 C628 1.377 . S
C629 C635 1.390 . S
C630 H621 0.930 . S
C630 C628 1.384 . S
C630 C631 1.372 . S
C631 C630 1.372 . S
C631 C632 1.400 . S
C631 C636 1.490 . S
C632 H622 0.930 . S
C632 C631 1.400 . S
C632 C635 1.386 . S
H633 C649 0.930 . S
H634 C650 0.931 . S
C635 H623 0.929 . S
C635 C629 1.390 . S
C635 C632 1.386 . S
C636 C631 1.490 . S
C636 C638 1.395 1_554 S
C636 C639 1.403 . S
H637 C643 0.930 . S
C638 H624 0.930 . S
C638 C636 1.395 1_556 S
C638 C641 1.403 . S
C639 C636 1.403 . S
C639 C640 1.524 . S
C639 C643 1.400 1_554 S
C640 H625 0.960 . S
C640 H626 0.960 . S
C640 H627 0.960 . S
C640 C639 1.524 . S
C641 C638 1.403 . S
C641 C642 1.392 . S
C641 C645 1.495 . S
C642 C641 1.392 . S
C642 C643 1.385 . S
C642 C644 1.478 . S
C643 H637 0.930 . S
C643 C639 1.400 1_556 S
C643 C642 1.385 . S
C644 C642 1.478 . S
C644 C646 1.381 . S
C644 C650 1.383 . S
C645 C641 1.495 . S
C645 H651 0.959 . S
C645 H652 0.961 . S
C645 H653 0.960 . S
C646 C644 1.381 . S
C646 C647 1.394 . S
C646 H654 0.930 . S
C647 C646 1.394 . S
C647 C648 1.383 . S
C647 H655 0.929 . S
C648 C647 1.383 . S
C648 C649 1.377 . S
C649 H633 0.930 . S
C649 C648 1.377 . S
C649 C650 1.379 . S
C650 H634 0.931 . S
C650 C644 1.383 . S
C650 C649 1.379 . S
H651 C645 0.959 . S
H652 C645 0.961 . S
H653 C645 0.960 . S
H654 C646 0.930 . S
H655 C647 0.929 . S
H656 C664 0.929 . S
H657 C666 0.930 . S
H658 C668 0.930 . S
H659 C671 0.929 . S
H660 C674 0.930 . S
H661 C676 0.960 . S
H662 C676 0.960 . S
H663 C676 0.960 . S
C664 H656 0.929 . S
C664 C665 1.377 . S
C664 C666 1.384 . S
C665 C664 1.377 . S
C665 C671 1.390 . S
C666 H657 0.930 . S
C666 C664 1.384 . S
C666 C667 1.372 . S
C667 C666 1.372 . S
C667 C668 1.400 . S
C667 C672 1.490 . S
C668 H658 0.930 . S
C668 C667 1.400 . S
C668 C671 1.386 . S
H669 C685 0.930 . S
H670 C686 0.931 . S
C671 H659 0.929 . S
C671 C665 1.390 . S
C671 C668 1.386 . S
C672 C667 1.490 . S
C672 C674 1.395 . S
C672 C675 1.403 1_554 S
H673 C679 0.930 . S
C674 H660 0.930 . S
C674 C672 1.395 . S
C674 C677 1.403 1_554 S
C675 C672 1.403 1_556 S
C675 C676 1.524 . S
C675 C679 1.400 . S
C676 H661 0.960 . S
C676 H662 0.960 . S
C676 H663 0.960 . S
C676 C675 1.524 . S
C677 C674 1.403 1_556 S
C677 C678 1.392 . S
C677 C681 1.495 . S
C678 C677 1.392 . S
C678 C679 1.385 . S
C678 C680 1.478 . S
C679 H673 0.930 . S
C679 C675 1.400 . S
C679 C678 1.385 . S
C680 C678 1.478 . S
C680 C682 1.381 . S
C680 C686 1.383 . S
C681 C677 1.495 . S
C681 H687 0.959 1_556 S
C681 H688 0.961 1_556 S
C681 H689 0.960 . S
C682 C680 1.381 . S
C682 C683 1.394 . S
C682 H690 0.930 . S
C683 C682 1.394 . S
C683 C684 1.383 . S
C683 H691 0.929 . S
C684 C683 1.383 . S
C684 C685 1.377 . S
C685 H669 0.930 . S
C685 C684 1.377 . S
C685 C686 1.379 . S
C686 H670 0.931 . S
C686 C680 1.383 . S
C686 C685 1.379 . S
H687 C681 0.959 1_554 S
H688 C681 0.961 1_554 S
H689 C681 0.960 . S
H690 C682 0.930 . S
H691 C683 0.929 . S
H692 C700 0.929 . S
H693 C702 0.930 . S
H694 C704 0.930 . S
H695 C707 0.929 . S
H696 C710 0.930 . S
H697 C712 0.960 . S
H698 C712 0.960 . S
H699 C712 0.960 . S
C700 H692 0.929 . S
C700 C701 1.377 . S
C700 C702 1.384 . S
C701 C700 1.377 . S
C701 C707 1.390 . S
C702 H693 0.930 . S
C702 C700 1.384 . S
C702 C703 1.372 . S
C703 C702 1.372 . S
C703 C704 1.400 . S
C703 C708 1.490 . S
C704 H694 0.930 . S
C704 C703 1.400 . S
C704 C707 1.386 . S
H705 C721 0.930 . S
H706 C722 0.931 . S
C707 H695 0.929 . S
C707 C701 1.390 . S
C707 C704 1.386 . S
C708 C703 1.490 . S
C708 C710 1.395 . S
C708 C711 1.403 1_554 S
H709 C715 0.930 . S
C710 H696 0.930 . S
C710 C708 1.395 . S
C710 C713 1.403 1_554 S
C711 C708 1.403 1_556 S
C711 C712 1.524 . S
C711 C715 1.400 . S
C712 H697 0.960 . S
C712 H698 0.960 . S
C712 H699 0.960 . S
C712 C711 1.524 . S
C713 C710 1.403 1_556 S
C713 C714 1.392 . S
C713 C717 1.495 1_656 S
C714 C713 1.392 . S
C714 C715 1.385 . S
C714 C716 1.478 . S
C715 H709 0.930 . S
C715 C711 1.400 . S
C715 C714 1.385 . S
C716 C714 1.478 . S
C716 C718 1.381 1_655 S
C716 C722 1.383 . S
C717 C713 1.495 1_454 S
C717 H723 0.959 . S
C717 H724 0.961 . S
C717 H725 0.960 1_554 S
C718 C716 1.381 1_455 S
C718 C719 1.394 . S
C718 H726 0.930 . S
C719 C718 1.394 . S
C719 C720 1.383 1_455 S
C719 H727 0.929 . S
C720 C719 1.383 1_655 S
C720 C721 1.377 . S
C721 H705 0.930 . S
C721 C720 1.377 . S
C721 C722 1.379 . S
C722 H706 0.931 . S
C722 C716 1.383 . S
C722 C721 1.379 . S
H723 C717 0.959 . S
H724 C717 0.961 . S
H725 C717 0.960 1_556 S
H726 C718 0.930 . S
H727 C719 0.929 . S
H728 C736 0.929 1_556 S
H729 C738 0.930 . S
H730 C740 0.930 . S
H731 C743 0.929 . S
H732 C746 0.930 . S
H733 C748 0.960 1_655 S
H734 C748 0.960 . S
H735 C748 0.960 . S
C736 H728 0.929 1_554 S
C736 C737 1.377 . S
C736 C738 1.384 . S
C737 C736 1.377 . S
C737 C743 1.390 . S
C738 H729 0.930 . S
C738 C736 1.384 . S
C738 C739 1.372 . S
C739 C738 1.372 . S
C739 C740 1.400 . S
C739 C744 1.490 . S
C740 H730 0.930 . S
C740 C739 1.400 . S
C740 C743 1.386 . S
H741 C757 0.893 1_655 S
H742 C758 0.931 . S
C743 H731 0.929 . S
C743 C737 1.390 . S
C743 C740 1.386 . S
C744 C739 1.490 . S
C744 C746 1.395 . S
C744 C747 1.403 . S
H745 C751 0.930 . S
C746 H732 0.930 . S
C746 C744 1.395 . S
C746 C749 1.403 . S
C747 C744 1.403 . S
C747 C748 1.524 . S
C747 C751 1.400 . S
C748 H733 0.960 1_455 S
C748 H734 0.960 . S
C748 H735 0.960 . S
C748 C747 1.524 . S
C749 C746 1.403 . S
C749 C750 1.392 . S
C749 C753 1.495 . S
C750 C749 1.392 . S
C750 C751 1.385 . S
C750 C752 1.478 . S
C751 H745 0.930 . S
C751 C747 1.400 . S
C751 C750 1.385 . S
C752 C750 1.478 . S
C752 C754 1.381 . S
C752 C758 1.383 . S
C753 C749 1.495 . S
C753 H759 0.959 . S
C753 H760 0.961 . S
C753 H761 0.960 . S
C754 C752 1.381 . S
C754 C755 1.394 . S
C754 H762 0.930 . S
C755 C754 1.394 . S
C755 C756 1.383 . S
C755 H763 0.929 . S
C756 C755 1.383 . S
C756 C757 1.393 . S
C757 H741 0.893 1_455 S
C757 C756 1.393 . S
C757 C758 1.402 . S
C758 H742 0.931 . S
C758 C752 1.383 . S
C758 C757 1.402 . S
H759 C753 0.959 . S
H760 C753 0.961 . S
H761 C753 0.960 . S
H762 C754 0.930 . S
H763 C755 0.929 . S
H764 C772 0.929 1_556 S
H765 C774 0.930 . S
H766 C776 0.930 . S
H767 C779 0.929 . S
H768 C782 0.930 . S
H769 C784 0.960 1_565 S
H770 C784 0.960 . S
H771 C784 0.960 . S
C772 H764 0.929 1_554 S
C772 C773 1.377 . S
C772 C774 1.384 . S
C773 C772 1.377 . S
C773 C779 1.390 . S
C774 H765 0.930 . S
C774 C772 1.384 . S
C774 C775 1.372 . S
C775 C774 1.372 . S
C775 C776 1.400 . S
C775 C780 1.490 . S
C776 H766 0.930 . S
C776 C775 1.400 . S
C776 C779 1.386 . S
H777 C793 0.930 1_565 S
H778 C794 0.931 . S
C779 H767 0.929 . S
C779 C773 1.390 . S
C779 C776 1.386 . S
C780 C775 1.490 . S
C780 C782 1.395 . S
C780 C783 1.403 . S
H781 C787 0.930 . S
C782 H768 0.930 . S
C782 C780 1.395 . S
C782 C785 1.403 . S
C783 C780 1.403 . S
C783 C784 1.524 . S
C783 C787 1.400 . S
C784 H769 0.960 1_545 S
C784 H770 0.960 . S
C784 H771 0.960 . S
C784 C783 1.524 . S
C785 C782 1.403 . S
C785 C786 1.392 . S
C785 C789 1.495 . S
C786 C785 1.392 . S
C786 C787 1.385 . S
C786 C788 1.478 . S
C787 H781 0.930 . S
C787 C783 1.400 . S
C787 C786 1.385 . S
C788 C786 1.478 . S
C788 C790 1.381 . S
C788 C794 1.383 . S
C789 C785 1.495 . S
C789 H795 0.959 . S
C789 H796 0.961 . S
C789 H797 0.960 . S
C790 C788 1.381 . S
C790 C791 1.394 . S
C790 H798 0.930 . S
C791 C790 1.394 . S
C791 C792 1.383 . S
C791 H799 0.929 . S
C792 C791 1.383 . S
C792 C793 1.377 . S
C793 H777 0.930 1_545 S
C793 C792 1.377 . S
C793 C794 1.379 . S
C794 H778 0.931 . S
C794 C788 1.383 . S
C794 C793 1.379 . S
H795 C789 0.959 . S
H796 C789 0.961 . S
H797 C789 0.960 . S
H798 C790 0.930 . S
H799 C791 0.929 . S
H800 C808 0.929 1_556 S
H801 C810 0.930 . S
H802 C812 0.930 . S
H803 C815 0.929 . S
H804 C818 0.930 . S
H805 C820 0.960 . S
H806 C820 0.960 . S
H807 C820 0.960 . S
C808 H800 0.929 1_554 S
C808 C809 1.377 . S
C808 C810 1.384 . S
C809 C808 1.377 . S
C809 C815 1.390 . S
C810 H801 0.930 . S
C810 C808 1.384 . S
C810 C811 1.372 . S
C811 C810 1.372 . S
C811 C812 1.400 . S
C811 C816 1.490 . S
C812 H802 0.930 . S
C812 C811 1.400 . S
C812 C815 1.386 . S
H813 C829 0.930 . S
H814 C830 0.931 . S
C815 H803 0.929 . S
C815 C809 1.390 . S
C815 C812 1.386 . S
C816 C811 1.490 . S
C816 C818 1.395 . S
C816 C819 1.403 . S
H817 C823 0.930 . S
C818 H804 0.930 . S
C818 C816 1.395 . S
C818 C821 1.403 . S
C819 C816 1.403 . S
C819 C820 1.524 . S
C819 C823 1.400 . S
C820 H805 0.960 . S
C820 H806 0.960 . S
C820 H807 0.960 . S
C820 C819 1.524 . S
C821 C818 1.403 . S
C821 C822 1.392 . S
C821 C825 1.495 . S
C822 C821 1.392 . S
C822 C823 1.385 . S
C822 C824 1.478 . S
C823 H817 0.930 . S
C823 C819 1.400 . S
C823 C822 1.385 . S
C824 C822 1.478 . S
C824 C826 1.381 . S
C824 C830 1.383 . S
C825 C821 1.495 . S
C825 H831 0.959 . S
C825 H832 0.961 . S
C825 H833 0.960 . S
C826 C824 1.381 . S
C826 C827 1.394 . S
C826 H834 0.930 . S
C827 C826 1.394 . S
C827 C828 1.383 . S
C827 H835 0.929 . S
C828 C827 1.383 . S
C828 C829 1.377 . S
C829 H813 0.930 . S
C829 C828 1.377 . S
C829 C830 1.379 . S
C830 H814 0.931 . S
C830 C824 1.383 . S
C830 C829 1.379 . S
H831 C825 0.959 . S
H832 C825 0.961 . S
H833 C825 0.960 . S
H834 C826 0.930 . S
H835 C827 0.929 . S
H836 C844 0.929 1_556 S
H837 C846 0.930 . S
H838 C848 0.930 . S
H839 C851 0.929 . S
H840 C854 0.930 . S
H841 C856 0.960 . S
H842 C856 0.960 . S
H843 C856 0.960 . S
C844 H836 0.929 1_554 S
C844 C845 1.377 . S
C844 C846 1.384 . S
C845 C844 1.377 . S
C845 C851 1.390 . S
C846 H837 0.930 . S
C846 C844 1.384 . S
C846 C847 1.372 . S
C847 C846 1.372 . S
C847 C848 1.400 . S
C847 C852 1.490 . S
C848 H838 0.930 . S
C848 C847 1.400 . S
C848 C851 1.386 . S
H849 C865 0.930 . S
H850 C866 0.931 . S
C851 H839 0.929 . S
C851 C845 1.390 . S
C851 C848 1.386 . S
C852 C847 1.490 . S
C852 C854 1.395 . S
C852 C855 1.403 . S
H853 C859 0.930 . S
C854 H840 0.930 . S
C854 C852 1.395 . S
C854 C857 1.403 . S
C855 C852 1.403 . S
C855 C856 1.524 . S
C855 C859 1.400 . S
C856 H841 0.960 . S
C856 H842 0.960 . S
C856 H843 0.960 . S
C856 C855 1.524 . S
C857 C854 1.403 . S
C857 C858 1.392 . S
C857 C861 1.495 . S
C858 C857 1.392 . S
C858 C859 1.385 . S
C858 C860 1.478 . S
C859 H853 0.930 . S
C859 C855 1.400 . S
C859 C858 1.385 . S
C860 C858 1.478 . S
C860 C862 1.381 . S
C860 C866 1.383 . S
C861 C857 1.495 . S
C861 H867 0.959 . S
C861 H868 0.961 . S
C861 H869 0.960 . S
C862 C860 1.381 . S
C862 C863 1.394 . S
C862 H870 0.930 . S
C863 C862 1.394 . S
C863 C864 1.383 . S
C863 H871 0.929 . S
C864 C863 1.383 . S
C864 C865 1.377 . S
C865 H849 0.930 . S
C865 C864 1.377 . S
C865 C866 1.379 . S
C866 H850 0.931 . S
C866 C860 1.383 . S
C866 C865 1.379 . S
H867 C861 0.959 . S
H868 C861 0.961 . S
H869 C861 0.960 . S
H870 C862 0.930 . S
H871 C863 0.929 . S
H872 C880 0.929 . S
H873 C882 0.930 . S
H874 C884 0.930 . S
H875 C887 0.929 . S
H876 C890 0.930 1_556 S
H877 C892 0.960 . S
H878 C892 0.960 . S
H879 C892 0.960 . S
C880 H872 0.929 . S
C880 C881 1.377 . S
C880 C882 1.384 . S
C881 C880 1.377 . S
C881 C887 1.390 . S
C882 H873 0.930 . S
C882 C880 1.384 . S
C882 C883 1.372 . S
C883 C882 1.372 . S
C883 C884 1.400 . S
C883 C888 1.490 . S
C884 H874 0.930 . S
C884 C883 1.400 . S
C884 C887 1.386 . S
H885 C901 0.930 . S
H886 C902 0.931 . S
C887 H875 0.929 . S
C887 C881 1.390 . S
C887 C884 1.386 . S
C888 C883 1.490 . S
C888 C890 1.395 . S
C888 C891 1.403 . S
H889 C895 0.930 . S
C890 H876 0.930 1_554 S
C890 C888 1.395 . S
C890 C893 1.403 1_554 S
C891 C888 1.403 . S
C891 C892 1.524 . S
C891 C895 1.400 . S
C892 H877 0.960 . S
C892 H878 0.960 . S
C892 H879 0.960 . S
C892 C891 1.524 . S
C893 C890 1.403 1_556 S
C893 C894 1.392 1_556 S
C893 C897 1.495 . S
C894 C893 1.392 1_554 S
C894 C895 1.385 . S
C894 C896 1.478 1_554 S
C895 H889 0.930 . S
C895 C891 1.400 . S
C895 C894 1.385 . S
C896 C894 1.478 1_556 S
C896 C898 1.381 1_655 S
C896 C902 1.383 . S
C897 C893 1.495 . S
C897 H903 0.959 . S
C897 H904 0.961 . S
C897 H905 0.960 . S
C898 C896 1.381 1_455 S
C898 C899 1.394 . S
C898 H906 0.930 . S
C899 C898 1.394 . S
C899 C900 1.383 . S
C899 H907 0.929 . S
C900 C899 1.383 . S
C900 C901 1.377 1_455 S
C901 H885 0.930 . S
C901 C900 1.377 1_655 S
C901 C902 1.379 . S
C902 H886 0.931 . S
C902 C896 1.383 . S
C902 C901 1.379 . S
H903 C897 0.959 . S
H904 C897 0.961 . S
H905 C897 0.960 . S
H906 C898 0.930 . S
H907 C899 0.929 . S
H908 C916 0.929 . S
H909 C918 0.930 . S
H910 C920 0.930 . S
H911 C923 0.929 . S
H912 C926 0.930 . S
H913 C928 0.960 . S
H914 C928 0.960 . S
H915 C928 0.960 . S
C916 H908 0.929 . S
C916 C917 1.377 . S
C916 C918 1.384 . S
C917 C916 1.377 . S
C917 C923 1.390 . S
C918 H909 0.930 . S
C918 C916 1.384 . S
C918 C919 1.372 . S
C919 C918 1.372 . S
C919 C920 1.400 . S
C919 C924 1.490 . S
C920 H910 0.930 . S
C920 C919 1.400 . S
C920 C923 1.386 . S
H921 C937 0.930 1_554 S
H922 C938 0.931 . S
C923 H911 0.929 . S
C923 C917 1.390 . S
C923 C920 1.386 . S
C924 C919 1.490 . S
C924 C926 1.395 . S
C924 C927 1.403 . S
H925 C931 0.959 . S
C926 H912 0.930 . S
C926 C924 1.395 . S
C926 C929 1.403 . S
C927 C924 1.403 . S
C927 C928 1.524 1_565 S
C927 C931 1.394 1_565 S
C928 H913 0.960 . S
C928 H914 0.960 . S
C928 H915 0.960 . S
C928 C927 1.524 1_545 S
C929 C926 1.403 . S
C929 C930 1.392 . S
C929 C933 1.495 1_554 S
C930 C929 1.392 . S
C930 C931 1.364 1_565 S
C930 C932 1.478 1_554 S
C931 H925 0.959 . S
C931 C927 1.394 1_545 S
C931 C930 1.364 1_545 S
C932 C930 1.478 1_556 S
C932 C934 1.381 . S
C932 C938 1.383 1_556 S
C933 C929 1.495 1_556 S
C933 H939 0.959 . S
C933 H940 0.961 . S
C933 H941 0.960 . S
C934 C932 1.381 . S
C934 C935 1.394 1_565 S
C934 H942 0.930 . S
C935 C934 1.394 1_545 S
C935 C936 1.383 . S
C935 H943 0.929 . S
C936 C935 1.383 . S
C936 C937 1.377 . S
C937 H921 0.930 1_556 S
C937 C936 1.377 . S
C937 C938 1.379 1_546 S
C938 H922 0.931 . S
C938 C932 1.383 1_554 S
C938 C937 1.379 1_564 S
H939 C933 0.959 . S
H940 C933 0.961 . S
H941 C933 0.960 . S
H942 C934 0.930 . S
H943 C935 0.929 . S
H944 C952 0.929 . S
H945 C954 0.930 . S
H946 C956 0.930 . S
H947 C959 0.929 . S
H948 C962 0.930 . S
H949 C964 0.960 . S
H950 C964 0.960 . S
H951 C964 0.960 . S
C952 H944 0.929 . S
C952 C953 1.377 . S
C952 C954 1.384 . S
C953 C952 1.377 . S
C953 C959 1.390 . S
C954 H945 0.930 . S
C954 C952 1.384 . S
C954 C955 1.372 . S
C955 C954 1.372 . S
C955 C956 1.400 . S
C955 C960 1.490 . S
C956 H946 0.930 . S
C956 C955 1.400 . S
C956 C959 1.386 . S
H957 C973 0.930 . S
H958 C974 0.931 . S
C959 H947 0.929 . S
C959 C953 1.390 . S
C959 C956 1.386 . S
C960 C955 1.490 . S
C960 C962 1.395 . S
C960 C963 1.403 . S
H961 C967 0.930 . S
C962 H948 0.930 . S
C962 C960 1.395 . S
C962 C965 1.403 . S
C963 C960 1.403 . S
C963 C964 1.524 . S
C963 C967 1.400 . S
C964 H949 0.960 . S
C964 H950 0.960 . S
C964 H951 0.960 . S
C964 C963 1.524 . S
C965 C962 1.403 . S
C965 C966 1.392 . S
C965 C969 1.495 1_554 S
C966 C965 1.392 . S
C966 C967 1.385 . S
C966 C968 1.478 1_554 S
C967 H961 0.930 . S
C967 C963 1.400 . S
C967 C966 1.385 . S
C968 C966 1.478 1_556 S
C968 C970 1.381 1_556 S
C968 C974 1.383 . S
C969 C965 1.495 1_556 S
C969 H975 0.959 . S
C969 H976 0.961 . S
C969 H977 0.960 1_556 S
C970 C968 1.381 1_554 S
C970 C971 1.394 1_554 S
C970 H978 0.930 . S
C971 C970 1.394 1_556 S
C971 C972 1.383 . S
C971 H979 0.929 . S
C972 C971 1.383 . S
C972 C973 1.377 . S
C973 H957 0.930 . S
C973 C972 1.377 . S
C973 C974 1.379 . S
C974 H958 0.931 . S
C974 C968 1.383 . S
C974 C973 1.379 . S
H975 C969 0.959 . S
H976 C969 0.961 . S
H977 C969 0.960 1_554 S
H978 C970 0.930 . S
H979 C971 0.929 . S
H980 C988 0.929 . S
H981 C990 0.930 . S
H982 C992 0.930 . S
H983 C995 0.929 . S
H984 C998 0.930 . S
H985 C1000 0.960 . S
H986 C1000 0.960 . S
H987 C1000 0.960 1_554 S
C988 H980 0.929 . S
C988 C989 1.377 . S
C988 C990 1.384 . S
C989 C988 1.377 . S
C989 C995 1.390 . S
C990 H981 0.930 . S
C990 C988 1.384 . S
C990 C991 1.372 . S
C991 C990 1.372 . S
C991 C992 1.400 . S
C991 C996 1.490 . S
C992 H982 0.930 . S
C992 C991 1.400 . S
C992 C995 1.386 . S
H993 C1009 0.930 . S
H994 C1010 0.931 . S
C995 H983 0.929 . S
C995 C989 1.390 . S
C995 C992 1.386 . S
C996 C991 1.490 . S
C996 C998 1.395 . S
C996 C999 1.403 . S
H997 C1003 0.930 1_556 S
C998 H984 0.930 . S
C998 C996 1.395 . S
C998 C1001 1.403 . S
C999 C996 1.403 . S
C999 C1000 1.524 1_554 S
C999 C1003 1.400 . S
C1000 H985 0.960 . S
C1000 H986 0.960 . S
C1000 H987 0.960 1_556 S
C1000 C999 1.524 1_556 S
C1001 C998 1.403 . S
C1001 C1002 1.392 . S
C1001 C1005 1.495 . S
C1002 C1001 1.392 . S
C1002 C1003 1.385 . S
C1002 C1004 1.478 . S
C1003 H997 0.930 1_554 S
C1003 C999 1.400 . S
C1003 C1002 1.385 . S
C1004 C1002 1.478 . S
C1004 C1006 1.381 1_554 S
C1004 C1010 1.383 . S
C1005 C1001 1.495 . S
C1005 H1011 0.959 . S
C1005 H1012 0.961 . S
C1005 H1013 0.960 . S
C1006 C1004 1.381 1_556 S
C1006 C1007 1.394 . S
C1006 H1014 0.930 . S
C1007 C1006 1.394 . S
C1007 C1008 1.383 . S
C1007 H1015 0.929 . S
C1008 C1007 1.383 . S
C1008 C1009 1.377 . S
C1009 H993 0.930 . S
C1009 C1008 1.377 . S
C1009 C1010 1.379 1_556 S
C1010 H994 0.931 . S
C1010 C1004 1.383 . S
C1010 C1009 1.379 1_554 S
H1011 C1005 0.959 . S
H1012 C1005 0.961 . S
H1013 C1005 0.960 . S
H1014 C1006 0.930 . S
H1015 C1007 0.929 . S
H1016 C1024 0.929 . S
H1017 C1026 0.930 . S
H1018 C1028 0.930 . S
H1019 C1031 0.929 . S
H1020 C1034 0.930 . S
H1021 C1036 0.960 . S
H1022 C1036 0.960 . S
H1023 C1036 0.960 . S
C1024 H1016 0.929 . S
C1024 C1025 1.377 . S
C1024 C1026 1.384 . S
C1025 C1024 1.377 . S
C1025 C1031 1.390 . S
C1026 H1017 0.930 . S
C1026 C1024 1.384 . S
C1026 C1027 1.372 . S
C1027 C1026 1.372 . S
C1027 C1028 1.400 . S
C1027 C1032 1.490 . S
C1028 H1018 0.930 . S
C1028 C1027 1.400 . S
C1028 C1031 1.386 . S
H1029 C1045 0.930 1_655 S
H1030 C1046 0.931 . S
C1031 H1019 0.929 . S
C1031 C1025 1.390 . S
C1031 C1028 1.386 . S
C1032 C1027 1.490 . S
C1032 C1034 1.395 . S
C1032 C1035 1.403 . S
H1033 C1039 0.930 . S
C1034 H1020 0.930 . S
C1034 C1032 1.395 . S
C1034 C1037 1.403 . S
C1035 C1032 1.403 . S
C1035 C1036 1.524 . S
C1035 C1039 1.400 . S
C1036 H1021 0.960 . S
C1036 H1022 0.960 . S
C1036 H1023 0.960 . S
C1036 C1035 1.524 . S
C1037 C1034 1.403 . S
C1037 C1038 1.392 . S
C1037 C1041 1.495 . S
C1038 C1037 1.392 . S
C1038 C1039 1.385 . S
C1038 C1040 1.478 . S
C1039 H1033 0.930 . S
C1039 C1035 1.400 . S
C1039 C1038 1.385 . S
C1040 C1038 1.478 . S
C1040 C1042 1.381 . S
C1040 C1046 1.383 . S
C1041 C1037 1.495 . S
C1041 H1047 0.959 . S
C1041 H1048 0.961 . S
C1041 H1049 0.960 . S
C1042 C1040 1.381 . S
C1042 C1043 1.394 . S
C1042 H1050 0.930 . S
C1043 C1042 1.394 . S
C1043 C1044 1.383 . S
C1043 H1051 0.929 . S
C1044 C1043 1.383 . S
C1044 C1045 1.377 . S
C1045 H1029 0.930 1_455 S
C1045 C1044 1.377 . S
C1045 C1046 1.379 . S
C1046 H1030 0.931 . S
C1046 C1040 1.383 . S
C1046 C1045 1.379 . S
H1047 C1041 0.959 . S
H1048 C1041 0.961 . S
H1049 C1041 0.960 . S
H1050 C1042 0.930 . S
H1051 C1043 0.929 . S
H1052 C1060 0.929 . S
H1053 C1062 0.930 . S
H1054 C1064 0.930 . S
H1055 C1067 0.929 . S
H1056 C1070 0.930 . S
H1057 C1072 0.960 . S
H1058 C1072 0.960 . S
H1059 C1072 0.960 . S
C1060 H1052 0.929 . S
C1060 C1061 1.377 . S
C1060 C1062 1.384 . S
C1061 C1060 1.377 . S
C1061 C1067 1.390 . S
C1062 H1053 0.930 . S
C1062 C1060 1.384 . S
C1062 C1063 1.372 . S
C1063 C1062 1.372 . S
C1063 C1064 1.400 . S
C1063 C1068 1.490 . S
C1064 H1054 0.930 . S
C1064 C1063 1.400 . S
C1064 C1067 1.386 . S
H1065 C1081 0.930 . S
H1066 C1082 0.931 . S
C1067 H1055 0.929 . S
C1067 C1061 1.390 . S
C1067 C1064 1.386 . S
C1068 C1063 1.490 . S
C1068 C1070 1.395 . S
C1068 C1071 1.403 . S
H1069 C1075 0.930 . S
C1070 H1056 0.930 . S
C1070 C1068 1.395 . S
C1070 C1073 1.403 . S
C1071 C1068 1.403 . S
C1071 C1072 1.524 . S
C1071 C1075 1.400 . S
C1072 H1057 0.960 . S
C1072 H1058 0.960 . S
C1072 H1059 0.960 . S
C1072 C1071 1.524 . S
C1073 C1070 1.403 . S
C1073 C1074 1.392 . S
C1073 C1077 1.495 . S
C1074 C1073 1.392 . S
C1074 C1075 1.385 . S
C1074 C1076 1.478 . S
C1075 H1069 0.930 . S
C1075 C1071 1.400 . S
C1075 C1074 1.385 . S
C1076 C1074 1.478 . S
C1076 C1078 1.381 . S
C1076 C1082 1.383 . S
C1077 C1073 1.495 . S
C1077 H1083 0.959 . S
C1077 H1084 0.961 . S
C1077 H1085 0.960 . S
C1078 C1076 1.381 . S
C1078 C1079 1.394 . S
C1078 H1086 0.930 . S
C1079 C1078 1.394 . S
C1079 C1080 1.383 . S
C1079 H1087 0.929 . S
C1080 C1079 1.383 . S
C1080 C1081 1.377 . S
C1081 H1065 0.930 . S
C1081 C1080 1.377 . S
C1081 C1082 1.379 . S
C1082 H1066 0.931 . S
C1082 C1076 1.383 . S
C1082 C1081 1.379 . S
H1083 C1077 0.959 . S
H1084 C1077 0.961 . S
H1085 C1077 0.960 . S
H1086 C1078 0.930 . S
H1087 C1079 0.929 . S
H1088 C1096 0.929 1_554 S
H1089 C1098 0.930 . S
H1090 C1100 0.930 . S
H1091 C1103 0.929 . S
H1092 C1106 0.930 . S
H1093 C1108 0.960 . S
H1094 C1108 0.960 . S
H1095 C1108 0.960 . S
C1096 H1088 0.929 1_556 S
C1096 C1097 1.377 . S
C1096 C1098 1.384 . S
C1097 C1096 1.377 . S
C1097 C1103 1.390 . S
C1098 H1089 0.930 . S
C1098 C1096 1.384 . S
C1098 C1099 1.372 . S
C1099 C1098 1.372 . S
C1099 C1100 1.400 . S
C1099 C1104 1.490 . S
C1100 H1090 0.930 . S
C1100 C1099 1.400 . S
C1100 C1103 1.386 . S
H1101 C1117 0.930 . S
H1102 C1118 0.931 . S
C1103 H1091 0.929 . S
C1103 C1097 1.390 . S
C1103 C1100 1.386 . S
C1104 C1099 1.490 . S
C1104 C1106 1.395 . S
C1104 C1107 1.403 . S
H1105 C1111 0.930 . S
C1106 H1092 0.930 . S
C1106 C1104 1.395 . S
C1106 C1109 1.403 . S
C1107 C1104 1.403 . S
C1107 C1108 1.524 . S
C1107 C1111 1.400 . S
C1108 H1093 0.960 . S
C1108 H1094 0.960 . S
C1108 H1095 0.960 . S
C1108 C1107 1.524 . S
C1109 C1106 1.403 . S
C1109 C1110 1.392 . S
C1109 C1113 1.495 . S
C1110 C1109 1.392 . S
C1110 C1111 1.385 . S
C1110 C1112 1.478 . S
C1111 H1105 0.930 . S
C1111 C1107 1.400 . S
C1111 C1110 1.385 . S
C1112 C1110 1.478 . S
C1112 C1114 1.381 . S
C1112 C1118 1.383 . S
C1113 C1109 1.495 . S
C1113 H1119 0.959 . S
C1113 H1120 0.961 . S
C1113 H1121 0.960 . S
C1114 C1112 1.381 . S
C1114 C1115 1.394 . S
C1114 H1122 0.930 . S
C1115 C1114 1.394 . S
C1115 C1116 1.383 . S
C1115 H1123 0.929 . S
C1116 C1115 1.383 . S
C1116 C1117 1.377 . S
C1117 H1101 0.930 . S
C1117 C1116 1.377 . S
C1117 C1118 1.379 . S
C1118 H1102 0.931 . S
C1118 C1112 1.383 . S
C1118 C1117 1.379 . S
H1119 C1113 0.959 . S
H1120 C1113 0.961 . S
H1121 C1113 0.960 . S
H1122 C1114 0.930 . S
H1123 C1115 0.929 . S
H1124 C1132 0.929 . S
H1125 C1134 0.930 . S
H1126 C1136 0.930 . S
H1127 C1139 0.929 . S
H1128 C1142 0.930 . S
H1129 C1144 0.960 . S
H1130 C1144 0.960 . S
H1131 C1144 0.960 . S
C1132 H1124 0.929 . S
C1132 C1133 1.377 . S
C1132 C1134 1.384 . S
C1133 C1132 1.377 . S
C1133 C1139 1.390 . S
C1134 H1125 0.930 . S
C1134 C1132 1.384 . S
C1134 C1135 1.372 . S
C1135 C1134 1.372 . S
C1135 C1136 1.400 . S
C1135 C1140 1.490 . S
C1136 H1126 0.930 . S
C1136 C1135 1.400 . S
C1136 C1139 1.386 . S
H1137 C1153 0.930 . S
H1138 C1154 0.931 . S
C1139 H1127 0.929 . S
C1139 C1133 1.390 . S
C1139 C1136 1.386 . S
C1140 C1135 1.490 . S
C1140 C1142 1.395 . S
C1140 C1143 1.403 . S
H1141 C1147 0.930 . S
C1142 H1128 0.930 . S
C1142 C1140 1.395 . S
C1142 C1145 1.403 . S
C1143 C1140 1.403 . S
C1143 C1144 1.524 . S
C1143 C1147 1.400 . S
C1144 H1129 0.960 . S
C1144 H1130 0.960 . S
C1144 H1131 0.960 . S
C1144 C1143 1.524 . S
C1145 C1142 1.403 . S
C1145 C1146 1.392 . S
C1145 C1149 1.495 . S
C1146 C1145 1.392 . S
C1146 C1147 1.385 . S
C1146 C1148 1.478 . S
C1147 H1141 0.930 . S
C1147 C1143 1.400 . S
C1147 C1146 1.385 . S
C1148 C1146 1.478 . S
C1148 C1150 1.381 . S
C1148 C1154 1.383 . S
C1149 C1145 1.495 . S
C1149 H1155 0.959 . S
C1149 H1156 0.961 . S
C1149 H1157 0.960 . S
C1150 C1148 1.381 . S
C1150 C1151 1.394 . S
C1150 H1158 0.930 . S
C1151 C1150 1.394 . S
C1151 C1152 1.383 . S
C1151 H1159 0.929 . S
C1152 C1151 1.383 . S
C1152 C1153 1.377 . S
C1153 H1137 0.930 . S
C1153 C1152 1.377 . S
C1153 C1154 1.379 . S
C1154 H1138 0.931 . S
C1154 C1148 1.383 . S
C1154 C1153 1.379 . S
H1155 C1149 0.959 . S
H1156 C1149 0.961 . S
H1157 C1149 0.960 . S
H1158 C1150 0.930 . S
H1159 C1151 0.929 . S
H1160 C1168 0.929 . S
H1161 C1170 0.930 . S
H1162 C1172 0.930 . S
H1163 C1175 0.929 . S
H1164 C1178 0.930 . S
H1165 C1180 0.960 . S
H1166 C1180 0.960 . S
H1167 C1180 0.960 . S
C1168 H1160 0.929 . S
C1168 C1169 1.377 . S
C1168 C1170 1.384 . S
C1169 C1168 1.377 . S
C1169 C1175 1.390 . S
C1170 H1161 0.930 . S
C1170 C1168 1.384 . S
C1170 C1171 1.372 . S
C1171 C1170 1.372 . S
C1171 C1172 1.400 . S
C1171 C1176 1.490 . S
C1172 H1162 0.930 . S
C1172 C1171 1.400 . S
C1172 C1175 1.386 . S
H1173 C1189 0.930 . S
H1174 C1190 0.931 . S
C1175 H1163 0.929 . S
C1175 C1169 1.390 . S
C1175 C1172 1.386 . S
C1176 C1171 1.490 . S
C1176 C1178 1.395 . S
C1176 C1179 1.403 . S
H1177 C1183 0.930 . S
C1178 H1164 0.930 . S
C1178 C1176 1.395 . S
C1178 C1181 1.403 . S
C1179 C1176 1.403 . S
C1179 C1180 1.524 . S
C1179 C1183 1.400 . S
C1180 H1165 0.960 . S
C1180 H1166 0.960 . S
C1180 H1167 0.960 . S
C1180 C1179 1.524 . S
C1181 C1178 1.403 . S
C1181 C1182 1.392 . S
C1181 C1185 1.495 1_655 S
C1182 C1181 1.392 . S
C1182 C1183 1.385 . S
C1182 C1184 1.478 . S
C1183 H1177 0.930 . S
C1183 C1179 1.400 . S
C1183 C1182 1.385 . S
C1184 C1182 1.478 . S
C1184 C1186 1.381 . S
C1184 C1190 1.383 . S
C1185 C1181 1.495 1_455 S
C1185 H1191 0.959 . S
C1185 H1192 0.961 . S
C1185 H1193 0.960 . S
C1186 C1184 1.381 . S
C1186 C1187 1.394 . S
C1186 H1194 0.930 . S
C1187 C1186 1.394 . S
C1187 C1188 1.383 . S
C1187 H1195 0.929 . S
C1188 C1187 1.383 . S
C1188 C1189 1.377 . S
C1189 H1173 0.930 . S
C1189 C1188 1.377 . S
C1189 C1190 1.379 . S
C1190 H1174 0.931 . S
C1190 C1184 1.383 . S
C1190 C1189 1.379 . S
H1191 C1185 0.959 . S
H1192 C1185 0.961 . S
H1193 C1185 0.960 . S
H1194 C1186 0.930 . S
H1195 C1187 0.929 . S
H1196 C1204 0.929 . S
H1197 C1206 0.930 . S
H1198 C1208 0.930 . S
H1199 C1211 0.929 . S
H1200 C1214 0.930 . S
H1201 C1216 0.949 1_545 S
H1202 C1216 0.948 1_545 S
H1203 C1216 0.972 . S
C1204 H1196 0.929 . S
C1204 C1205 1.377 . S
C1204 C1206 1.384 . S
C1205 C1204 1.377 . S
C1205 C1211 1.390 . S
C1206 H1197 0.930 . S
C1206 C1204 1.384 . S
C1206 C1207 1.372 . S
C1207 C1206 1.372 . S
C1207 C1208 1.400 . S
C1207 C1212 1.490 . S
C1208 H1198 0.930 . S
C1208 C1207 1.400 . S
C1208 C1211 1.386 . S
H1209 C1225 0.930 . S
H1210 C1226 0.931 . S
C1211 H1199 0.929 . S
C1211 C1205 1.390 . S
C1211 C1208 1.386 . S
C1212 C1207 1.490 . S
C1212 C1214 1.395 . S
C1212 C1215 1.403 . S
H1213 C1219 0.930 . S
C1214 H1200 0.930 . S
C1214 C1212 1.395 . S
C1214 C1217 1.403 . S
C1215 C1212 1.403 . S
C1215 C1216 1.535 . S
C1215 C1219 1.400 . S
C1216 H1201 0.949 1_565 S
C1216 H1202 0.948 1_565 S
C1216 H1203 0.972 . S
C1216 C1215 1.535 . S
C1217 C1214 1.403 . S
C1217 C1218 1.392 . S
C1217 C1221 1.495 . S
C1218 C1217 1.392 . S
C1218 C1219 1.385 . S
C1218 C1220 1.478 . S
C1219 H1213 0.930 . S
C1219 C1215 1.400 . S
C1219 C1218 1.385 . S
C1220 C1218 1.478 . S
C1220 C1222 1.381 . S
C1220 C1226 1.383 . S
C1221 C1217 1.495 . S
C1221 H1227 0.959 . S
C1221 H1228 0.961 . S
C1221 H1229 0.960 . S
C1222 C1220 1.381 . S
C1222 C1223 1.394 . S
C1222 H1230 0.930 . S
C1223 C1222 1.394 . S
C1223 C1224 1.383 . S
C1223 H1231 0.929 1_565 S
C1224 C1223 1.383 . S
C1224 C1225 1.377 . S
C1225 H1209 0.930 . S
C1225 C1224 1.377 . S
C1225 C1226 1.379 . S
C1226 H1210 0.931 . S
C1226 C1220 1.383 . S
C1226 C1225 1.379 . S
H1227 C1221 0.959 . S
H1228 C1221 0.961 . S
H1229 C1221 0.960 . S
H1230 C1222 0.930 . S
H1231 C1223 0.929 1_545 S
H1232 C1240 0.929 . S
H1233 C1242 0.930 . S
H1234 C1244 0.930 . S
H1235 C1247 0.929 . S
H1236 C1250 0.930 . S
H1237 C1252 0.960 . S
H1238 C1252 0.960 . S
H1239 C1252 0.960 . S
C1240 H1232 0.929 . S
C1240 C1241 1.377 . S
C1240 C1242 1.384 . S
C1241 C1240 1.377 . S
C1241 C1247 1.390 . S
C1242 H1233 0.930 . S
C1242 C1240 1.384 . S
C1242 C1243 1.372 . S
C1243 C1242 1.372 . S
C1243 C1244 1.400 . S
C1243 C1248 1.490 . S
C1244 H1234 0.930 . S
C1244 C1243 1.400 . S
C1244 C1247 1.386 . S
H1245 C1261 0.930 . S
H1246 C1262 0.931 . S
C1247 H1235 0.929 . S
C1247 C1241 1.390 . S
C1247 C1244 1.386 . S
C1248 C1243 1.490 . S
C1248 C1250 1.395 . S
C1248 C1251 1.403 . S
H1249 C1255 0.930 . S
C1250 H1236 0.930 . S
C1250 C1248 1.395 . S
C1250 C1253 1.403 . S
C1251 C1248 1.403 . S
C1251 C1252 1.524 . S
C1251 C1255 1.400 . S
C1252 H1237 0.960 . S
C1252 H1238 0.960 . S
C1252 H1239 0.960 . S
C1252 C1251 1.524 . S
C1253 C1250 1.403 . S
C1253 C1254 1.392 . S
C1253 C1257 1.495 . S
C1254 C1253 1.392 . S
C1254 C1255 1.385 . S
C1254 C1256 1.478 . S
C1255 H1249 0.930 . S
C1255 C1251 1.400 . S
C1255 C1254 1.385 . S
C1256 C1254 1.478 . S
C1256 C1258 1.381 . S
C1256 C1262 1.383 . S
C1257 C1253 1.495 . S
C1257 H1263 0.959 . S
C1257 H1264 0.961 . S
C1257 H1265 0.960 . S
C1258 C1256 1.381 . S
C1258 C1259 1.394 . S
C1258 H1266 0.930 . S
C1259 C1258 1.394 . S
C1259 C1260 1.383 . S
C1259 H1267 0.929 . S
C1260 C1259 1.383 . S
C1260 C1261 1.377 . S
C1261 H1245 0.930 . S
C1261 C1260 1.377 . S
C1261 C1262 1.379 . S
C1262 H1246 0.931 . S
C1262 C1256 1.383 . S
C1262 C1261 1.379 . S
H1263 C1257 0.959 . S
H1264 C1257 0.961 . S
H1265 C1257 0.960 . S
H1266 C1258 0.930 . S
H1267 C1259 0.929 . S
H1268 C1276 0.929 . S
H1269 C1278 0.930 . S
H1270 C1280 0.930 . S
H1271 C1283 0.929 . S
H1272 C1286 0.930 . S
H1273 C1288 0.960 . S
H1274 C1288 0.960 . S
H1275 C1288 0.960 . S
C1276 H1268 0.929 . S
C1276 C1277 1.377 . S
C1276 C1278 1.384 . S
C1277 C1276 1.377 . S
C1277 C1283 1.390 . S
C1278 H1269 0.930 . S
C1278 C1276 1.384 . S
C1278 C1279 1.372 . S
C1279 C1278 1.372 . S
C1279 C1280 1.400 . S
C1279 C1284 1.490 . S
C1280 H1270 0.930 . S
C1280 C1279 1.400 . S
C1280 C1283 1.386 . S
H1281 C1297 0.930 . S
H1282 C1298 0.931 . S
C1283 H1271 0.929 . S
C1283 C1277 1.390 . S
C1283 C1280 1.386 . S
C1284 C1279 1.490 . S
C1284 C1286 1.395 . S
C1284 C1287 1.403 . S
H1285 C1291 0.930 . S
C1286 H1272 0.930 . S
C1286 C1284 1.395 . S
C1286 C1289 1.403 . S
C1287 C1284 1.403 . S
C1287 C1288 1.524 . S
C1287 C1291 1.400 . S
C1288 H1273 0.960 . S
C1288 H1274 0.960 . S
C1288 H1275 0.960 . S
C1288 C1287 1.524 . S
C1289 C1286 1.403 . S
C1289 C1290 1.392 . S
C1289 C1293 1.495 . S
C1290 C1289 1.392 . S
C1290 C1291 1.385 . S
C1290 C1292 1.478 . S
C1291 H1285 0.930 . S
C1291 C1287 1.400 . S
C1291 C1290 1.385 . S
C1292 C1290 1.478 . S
C1292 C1294 1.381 . S
C1292 C1298 1.383 . S
C1293 C1289 1.495 . S
C1293 H1299 0.959 . S
C1293 H1300 0.961 . S
C1293 H1301 0.960 . S
C1294 C1292 1.381 . S
C1294 C1295 1.394 . S
C1294 H1302 0.930 . S
C1295 C1294 1.394 . S
C1295 C1296 1.383 . S
C1295 H1303 0.929 . S
C1296 C1295 1.383 . S
C1296 C1297 1.377 . S
C1297 H1281 0.930 . S
C1297 C1296 1.377 . S
C1297 C1298 1.379 . S
C1298 H1282 0.931 . S
C1298 C1292 1.383 . S
C1298 C1297 1.379 . S
H1299 C1293 0.959 . S
H1300 C1293 0.961 . S
H1301 C1293 0.960 . S
H1302 C1294 0.930 . S
H1303 C1295 0.929 . S
C449 N80 1.844 . S
C468 C178 1.853 . S
C504 C262 1.872 . S
C485 N93 1.871 . S
C540 C328 1.883 . S
C521 N54 1.985 . S
C576 C412 1.850 . S
C557 N67 1.956 . S
C612 C167 1.854 1_565 S
C593 N28 1.853 . S
C629 N41 1.882 . S
C648 C251 1.894 . S
C665 N2 1.990 . S
C684 C339 1.892 . S
C701 N15 1.965 . S
C720 C423 1.861 . S
C756 C174 0.595 1_455 S
C737 N70 0.413 . S
C792 C258 0.590 1_545 S
C773 N83 0.381 . S
C828 C330 0.453 . S
C809 N96 0.330 . S
C845 N57 0.361 . S
C864 C414 0.440 . S
C881 N18 0.394 . S
C900 C162 0.539 . S
C936 C246 0.590 . S
C917 N31 0.360 . S
C972 C342 0.489 . S
C953 N44 0.335 . S
C989 N5 0.372 . S
C1008 C426 0.454 . S
C1025 N66 2.016 . S
C1044 C171 1.979 . S
C1061 N79 1.977 . S
C1080 C255 1.917 . S
C1116 C335 1.884 . S
C1097 N92 1.869 . S
C1152 C419 1.943 . S
C1133 N53 1.902 . S
C1169 N14 2.032 . S
C1188 C160 1.935 . S
C1224 C244 1.950 1_565 S
C1205 N27 1.991 . S
C1260 C346 1.886 . S
C1241 N40 1.888 . S
C1277 N1 1.917 . S
C1296 C430 1.927 . S
