# Generated by pormake.
# Topology zzz, (3,6)-cn, num edge types: 1
# Building blocks:
#     Node 0, Type 0, BuildingBlock: CUQRIR_clean_linker_1, # of connection points: 3
#     Node 1, Type 0, BuildingBlock: CUQRIR_clean_linker_1, # of connection points: 3
#     Node 2, Type 0, BuildingBlock: CUQRIR_clean_linker_1, # of connection points: 3
#     Node 3, Type 0, BuildingBlock: CUQRIR_clean_linker_1, # of connection points: 3
#     Node 4, Type 0, BuildingBlock: CUQRIR_clean_linker_1, # of connection points: 3
#     Node 5, Type 0, BuildingBlock: CUQRIR_clean_linker_1, # of connection points: 3
#     Node 6, Type 0, BuildingBlock: CUQRIR_clean_linker_1, # of connection points: 3
#     Node 7, Type 0, BuildingBlock: CUQRIR_clean_linker_1, # of connection points: 3
#     Node 8, Type 1, BuildingBlock: FUNLAD_clean_sbu_0, # of connection points: 6
#     Node 9, Type 1, BuildingBlock: FUNLAD_clean_sbu_0, # of connection points: 6
#     Node 10, Type 1, BuildingBlock: FUNLAD_clean_sbu_0, # of connection points: 6
#     Node 11, Type 1, BuildingBlock: FUNLAD_clean_sbu_0, # of connection points: 6
#     Edge 12, Type (0, 1), BuildingBlock: XUDNAN_clean_linker_2, # of connection points: 2
#     Edge 13, Type (0, 1), BuildingBlock: XUDNAN_clean_linker_2, # of connection points: 2
#     Edge 14, Type (0, 1), BuildingBlock: XUDNAN_clean_linker_2, # of connection points: 2
#     Edge 15, Type (0, 1), BuildingBlock: XUDNAN_clean_linker_2, # of connection points: 2
#     Edge 16, Type (0, 1), BuildingBlock: XUDNAN_clean_linker_2, # of connection points: 2
#     Edge 17, Type (0, 1), BuildingBlock: XUDNAN_clean_linker_2, # of connection points: 2
#     Edge 18, Type (0, 1), BuildingBlock: XUDNAN_clean_linker_2, # of connection points: 2
#     Edge 19, Type (0, 1), BuildingBlock: XUDNAN_clean_linker_2, # of connection points: 2
#     Edge 20, Type (0, 1), BuildingBlock: XUDNAN_clean_linker_2, # of connection points: 2
#     Edge 21, Type (0, 1), BuildingBlock: XUDNAN_clean_linker_2, # of connection points: 2
#     Edge 22, Type (0, 1), BuildingBlock: XUDNAN_clean_linker_2, # of connection points: 2
#     Edge 23, Type (0, 1), BuildingBlock: XUDNAN_clean_linker_2, # of connection points: 2
#     Edge 24, Type (0, 1), BuildingBlock: XUDNAN_clean_linker_2, # of connection points: 2
#     Edge 25, Type (0, 1), BuildingBlock: XUDNAN_clean_linker_2, # of connection points: 2
#     Edge 26, Type (0, 1), BuildingBlock: XUDNAN_clean_linker_2, # of connection points: 2
#     Edge 27, Type (0, 1), BuildingBlock: XUDNAN_clean_linker_2, # of connection points: 2
#     Edge 28, Type (0, 1), BuildingBlock: XUDNAN_clean_linker_2, # of connection points: 2
#     Edge 29, Type (0, 1), BuildingBlock: XUDNAN_clean_linker_2, # of connection points: 2
#     Edge 30, Type (0, 1), BuildingBlock: XUDNAN_clean_linker_2, # of connection points: 2
#     Edge 31, Type (0, 1), BuildingBlock: XUDNAN_clean_linker_2, # of connection points: 2
#     Edge 32, Type (0, 1), BuildingBlock: XUDNAN_clean_linker_2, # of connection points: 2
#     Edge 33, Type (0, 1), BuildingBlock: XUDNAN_clean_linker_2, # of connection points: 2
#     Edge 34, Type (0, 1), BuildingBlock: XUDNAN_clean_linker_2, # of connection points: 2
#     Edge 35, Type (0, 1), BuildingBlock: XUDNAN_clean_linker_2, # of connection points: 2
# Relax obj value: 0.131
# Max RMSD: 0.180
# Mean RMSD: 0.101
data_MOF--net-zzz--node1-FUNLAD_clean_sbu_0--node2-CUQRIR_clean_linker_1--edge1-XUDNAN_clean_linker_2
_symmetry_space_group_name_H-M    P1
_symmetry_Int_Tables_number       1
_symmetry_cell_setting            triclinic
loop_
_symmetry_equiv_pos_as_xyz
'x, y, z'
_cell_length_a     48.092554
_cell_length_b     54.088488
_cell_length_c     15.607053
_cell_angle_alpha  84.772327
_cell_angle_beta   83.908532
_cell_angle_gamma 89.617553
loop_
_atom_site_label
_atom_site_type_symbol
_atom_site_fract_x
_atom_site_fract_y
_atom_site_fract_z
_atom_type_partial_charge
C0 C 0.78552 0.49612 0.32541 0.0
N1 N 0.81258 0.50002 0.33766 0.0
N2 N 0.78216 0.49903 0.23993 0.0
C3 C 0.76314 0.48706 0.39531 0.0
C4 C 0.8081 0.50457 0.20107 0.0
N5 N 0.82659 0.50503 0.26011 0.0
C6 C 0.81585 0.50755 0.1047 0.0
H7 H 0.76258 0.46647 0.40007 0.0
H8 H 0.74238 0.49403 0.37944 0.0
H9 H 0.76753 0.49303 0.45871 0.0
H10 H 0.79809 0.51535 0.0711 0.0
H11 H 0.82108 0.4891 0.08165 0.0
H12 H 0.83442 0.51981 0.08796 0.0
C13 C 0.98112 0.76014 0.11383 0.0
N14 N 0.97913 0.78382 0.13534 0.0
N15 N 0.97516 0.7589 0.03121 0.0
C16 C 0.99207 0.73885 0.16943 0.0
C17 C 0.96976 0.78279 1.00368 0.0
N18 N 0.97249 0.79794 0.06644 0.0
C19 C 0.96234 0.7916 0.91479 0.0
H20 H 0.00823 0.7286 0.13075 0.0
H21 H 0.97466 0.72579 0.19294 0.0
H22 H 1.00101 0.74517 0.22636 0.0
H23 H 0.95215 0.77657 0.88548 0.0
H24 H 0.98159 0.79758 0.87265 0.0
H25 H 0.94818 0.80786 0.91816 0.0
C26 C 0.76705 -0.0001 0.20362 0.0
N27 N 0.73877 0.00256 0.21356 0.0
N28 N 0.7772 0.00302 0.11866 0.0
C29 C 0.78474 0.99311 0.27578 0.0
C30 C 0.754 0.00739 0.07728 0.0
N31 N 0.73077 0.00723 0.1346 0.0
C32 C 0.75367 0.00936 0.98048 0.0
H33 H 0.8059 0.00143 0.26015 0.0
H34 H 0.7871 0.97263 0.28358 0.0
H35 H 0.77488 0.99939 0.33759 0.0
H36 H 0.73863 0.99571 0.96276 0.0
H37 H 0.7746 0.00632 0.94602 0.0
H38 H 0.74652 0.02815 0.95817 0.0
C39 C 0.5239 0.71 0.20205 0.0
N40 N 0.52055 0.68515 0.20162 0.0
N41 N 0.51283 0.72222 0.13399 0.0
C42 C 0.53707 0.72239 0.27019 0.0
C43 C 0.50227 0.70403 0.0929 0.0
N44 N 0.50676 0.68151 0.13432 0.0
C45 C 0.48757 0.70834 0.01248 0.0
H46 H 0.52965 0.74176 0.27384 0.0
H47 H 0.56007 0.72285 0.2535 0.0
H48 H 0.53246 0.71179 0.33438 0.0
H49 H 0.49435 0.72604 0.97477 0.0
H50 H 0.46473 0.70938 0.03146 0.0
H51 H 0.49156 0.69282 0.97098 0.0
C52 C 0.25189 0.51929 0.14284 0.0
N53 N 0.22398 0.5179 0.13839 0.0
N54 N 0.25717 0.5221 0.22511 0.0
C55 C 0.27385 0.51646 0.06848 0.0
C56 C 0.23154 0.5225 0.27015 0.0
N57 N 0.21142 0.52 0.21736 0.0
C58 C 0.22638 0.52343 0.36671 0.0
H59 H 0.27976 0.4966 0.0684 0.0
H60 H 0.29291 0.52725 0.07481 0.0
H61 H 0.26576 0.5225 0.00594 0.0
H62 H 0.24389 0.53278 0.39186 0.0
H63 H 0.22449 0.50417 0.39801 0.0
H64 H 0.20673 0.5333 0.38526 0.0
C65 C 0.05359 0.23216 0.31497 0.0
N66 N 0.0495 0.2084 0.29851 0.0
N67 N 0.05312 0.23371 0.40123 0.0
C68 C 0.05816 0.25373 0.24735 0.0
C69 C 0.04858 0.21014 0.43667 0.0
N70 N 0.04637 0.19474 0.37418 0.0
C71 C 0.04658 0.20224 0.53207 0.0
H72 H 0.08094 0.25594 0.22786 0.0
H73 H 0.05024 0.27119 0.27318 0.0
H74 H 0.04777 0.25044 0.18922 0.0
H75 H 0.02436 0.20297 0.55939 0.0
H76 H 0.05875 0.21482 0.56631 0.0
H77 H 0.05418 0.18294 0.54399 0.0
C78 C 0.28157 0.01333 0.28245 0.0
N79 N 0.30961 0.00994 0.28219 0.0
N80 N 0.26804 0.00634 0.36207 0.0
C81 C 0.26719 0.02195 0.20421 0.0
C82 C 0.28889 0.99835 0.40961 0.0
N83 N 0.31398 0.00051 0.36117 0.0
C84 C 0.28449 0.98812 0.50302 0.0
H85 H 0.24628 0.02974 0.22333 0.0
H86 H 0.26451 0.00586 0.16652 0.0
H87 H 0.27984 0.03611 0.16159 0.0
H88 H 0.26655 0.975 0.51316 0.0
H89 H 0.2793 0.00362 0.54377 0.0
H90 H 0.3033 0.97863 0.52489 0.0
C91 C 0.52322 0.28579 0.24736 0.0
N92 N 0.52307 0.31103 0.23998 0.0
N93 N 0.52937 0.27681 0.32729 0.0
C94 C 0.5188 0.26992 0.17575 0.0
C95 C 0.53282 0.29744 0.36801 0.0
N96 N 0.52903 0.31808 0.3153 0.0
C97 C 0.54084 0.29752 0.45859 0.0
H98 H 0.50849 0.25215 0.20176 0.0
H99 H 0.53943 0.26553 0.14175 0.0
H100 H 0.50591 0.27973 0.12849 0.0
H101 H 0.56389 0.29939 0.45572 0.0
H102 H 0.53428 0.28003 0.49813 0.0
H103 H 0.53123 0.31353 0.49022 0.0
C104 C 0.03078 0.96138 0.85737 0.0
N105 N 0.0082 0.94936 0.61491 0.0
C106 C 0.02816 0.93157 0.62322 0.0
C107 C 0.02786 0.91039 0.57935 0.0
C108 C 0.00706 0.90734 0.52482 0.0
C109 C 0.98614 0.92556 0.51876 0.0
C110 C 0.98713 0.94662 0.5647 0.0
Zn111 Zn 0.01376 0.98005 0.67969 0.0
C112 C 0.96353 0.99332 0.79568 0.0
N113 N 0.0325 0.0391 0.82769 0.0
C114 C 0.04715 0.05815 0.78102 0.0
C115 C 0.02208 0.04088 0.9114 0.0
C116 C 0.02613 0.06257 0.95102 0.0
C117 C 0.04088 0.08268 0.90384 0.0
C118 C 0.05149 0.08017 0.81775 0.0
Zn119 Zn 0.02466 0.00872 0.76466 0.0
O120 O 0.02351 0.95615 0.78543 0.0
C121 C 0.07465 0.99453 0.64586 0.0
O122 O 0.03382 0.98392 0.87127 0.0
H123 H 0.0104 0.02556 0.94721 0.0
H124 H 0.04488 0.93394 0.66284 0.0
H125 H 0.0551 0.05648 0.71436 0.0
O126 O 0.05551 0.98097 0.62522 0.0
O127 O 0.06866 0.00856 0.70663 0.0
H128 H 0.97149 0.96097 0.55886 0.0
O129 O 0.01443 0.03283 0.65945 0.0
O130 O 1.00433 0.00479 0.57386 0.0
O131 O 0.98118 0.00813 0.81935 0.0
O132 O 0.97139 0.97945 0.73585 0.0
C133 C 0.00696 0.02739 0.58788 0.0
H134 H 0.04409 0.89664 0.58728 0.0
H135 H 0.96978 0.92395 0.47696 0.0
H136 H 0.01792 0.0635 0.01799 0.0
H137 H 0.0626 0.09523 0.77836 0.0
C138 C 0.48761 0.99169 0.62343 0.0
N139 N 0.52691 0.05806 0.67241 0.0
C140 C 0.52586 0.06332 0.58573 0.0
C141 C 0.52812 0.08779 0.5484 0.0
C142 C 0.53225 0.10696 0.6003 0.0
C143 C 0.53331 0.10116 0.68935 0.0
C144 C 0.53024 0.07647 0.72449 0.0
Zn145 Zn 0.52474 0.02142 0.72228 0.0
C146 C 0.47644 0.01129 0.85775 0.0
N147 N 0.51934 0.94455 0.81788 0.0
C148 C 0.52206 0.92492 0.76884 0.0
C149 C 0.51408 0.94096 0.90554 0.0
C150 C 0.51093 0.9171 0.94714 0.0
C151 C 0.51302 0.89646 0.89853 0.0
C152 C 0.51903 0.90056 0.80812 0.0
Zn153 Zn 0.52184 0.98095 0.76581 0.0
O154 O 0.49606 0.01353 0.63165 0.0
C155 C 0.57056 0.99185 0.63095 0.0
O156 O 0.49622 0.97352 0.67084 0.0
H157 H 0.51206 0.95669 0.94375 0.0
H158 H 0.52374 0.0485 0.54488 0.0
H159 H 0.52621 0.92815 0.69924 0.0
O160 O 0.55972 0.01334 0.63301 0.0
O161 O 0.55907 0.97386 0.6806 0.0
H162 H 0.53092 0.07199 0.79318 0.0
O163 O 0.54711 0.98856 0.86004 0.0
O164 O 0.55335 0.02795 0.81564 0.0
O165 O 0.48506 0.98921 0.85006 0.0
O166 O 0.48969 0.02915 0.81265 0.0
C167 C 0.55823 0.0093 0.86771 0.0
H168 H 0.52757 0.09163 0.47924 0.0
H169 H 0.53653 0.11559 0.73113 0.0
H170 H 0.50689 0.91488 0.01702 0.0
H171 H 0.52069 0.88517 0.76808 0.0
C172 C 0.5403 0.46745 0.60641 0.0
N173 N 0.46255 0.50002 0.65789 0.0
C174 C 0.46674 0.50394 0.57 0.0
C175 C 0.44442 0.50855 0.5214 0.0
C176 C 0.41722 0.50908 0.56284 0.0
C177 C 0.413 0.50389 0.65325 0.0
C178 C 0.43624 0.49956 0.70013 0.0
Zn179 Zn 0.49916 0.4984 0.71579 0.0
C180 C 0.50729 0.45631 0.83622 0.0
N181 N 0.58087 0.49807 0.7968 0.0
C182 C 0.60631 0.49748 0.74953 0.0
C183 C 0.57865 0.49681 0.88484 0.0
C184 C 0.6024 0.49513 0.92872 0.0
C185 C 0.62881 0.49412 0.88201 0.0
C186 C 0.63074 0.49527 0.79125 0.0
Zn187 Zn 0.54386 0.49919 0.74225 0.0
O188 O 0.51541 0.47474 0.62395 0.0
C189 C 0.53656 0.54058 0.61848 0.0
O190 O 0.55961 0.47546 0.64635 0.0
H191 H 0.55832 0.49659 0.92174 0.0
H192 H 0.48764 0.5044 0.53689 0.0
H193 H 0.60763 0.49836 0.67971 0.0
O194 O 0.5125 0.53055 0.63259 0.0
O195 O 0.55643 0.53107 0.65785 0.0
H196 H 0.43332 0.49659 0.76999 0.0
O197 O 0.52711 0.52315 0.83637 0.0
O198 O 0.48329 0.5218 0.80977 0.0
O199 O 0.53108 0.46688 0.82376 0.0
O200 O 0.48686 0.46596 0.79957 0.0
C201 C 0.50187 0.52999 0.85206 0.0
H202 H 0.44849 0.51214 0.45174 0.0
H203 H 0.39219 0.50416 0.68728 0.0
H204 H 0.60008 0.49384 0.99881 0.0
H205 H 0.65086 0.49449 0.7532 0.0
C206 C 0.04161 0.50056 0.57986 0.0
N207 N 0.02257 0.43459 0.7338 0.0
C208 C 0.01366 0.42723 0.66019 0.0
C209 C 0.01847 0.40317 0.63754 0.0
C210 C 0.03272 0.3863 0.69079 0.0
C211 C 0.0411 0.39409 0.76775 0.0
C212 C 0.03574 0.41849 0.78821 0.0
Zn213 Zn 0.01875 0.47169 0.7496 0.0
C214 C 0.06971 0.49322 0.80481 0.0
N215 N 0.01196 0.5501 0.75878 0.0
C216 C 1.00324 0.5662 0.6949 0.0
C217 C 0.01754 0.55803 0.83552 0.0
C218 C 0.0137 0.58282 0.85134 0.0
C219 C 1.00453 0.59977 0.78707 0.0
C220 C 0.99961 0.59136 0.70751 0.0
Zn221 Zn 0.01579 0.51291 0.74534 0.0
O222 O 0.03672 0.47923 0.61965 0.0
C223 C 0.96457 0.49096 0.69153 0.0
O224 O 0.03482 0.51978 0.61808 0.0
H225 H 0.02477 0.54506 0.88518 0.0
H226 H 1.00372 0.44034 0.61674 0.0
H227 H 0.99886 0.55949 0.63452 0.0
O228 O 0.97836 0.47141 0.70924 0.0
O229 O 0.9753 0.51202 0.69906 0.0
H230 H 0.04284 0.42476 0.84609 0.0
O231 O 0.9974 0.50554 0.87235 0.0
O232 O 1.00065 0.46487 0.88007 0.0
O233 O 0.05585 0.51306 0.79153 0.0
O234 O 0.05932 0.47256 0.79118 0.0
C235 C 0.99367 0.48458 0.91547 0.0
H236 H 0.01214 0.39823 0.57675 0.0
H237 H 0.05201 0.38161 0.81092 0.0
H238 H 0.01811 0.58873 0.91301 0.0
H239 H 0.99251 0.60399 0.65648 0.0
H240 H 0.23788 0.02657 0.49659 0.0
H241 H 0.23128 0.98006 0.28804 0.0
H242 H 0.18118 0.97277 0.33797 0.0
H243 H 0.19322 0.9899 0.65747 0.0
H244 H 0.17726 0.01592 0.70794 0.0
H245 H 0.21224 0.01865 0.6537 0.0
H246 H 0.1974 0.0569 0.55708 0.0
H247 H 0.1624 0.05436 0.61132 0.0
H248 H 0.1681 0.05438 0.49528 0.0
H249 H 0.13322 0.96862 0.41372 0.0
H250 H 0.08867 0.9693 0.50507 0.0
H251 H 0.12443 0.019 0.66819 0.0
C252 C 0.22571 0.01502 0.46137 0.0
C253 C 0.2383 0.004 0.38782 0.0
C254 C 0.22186 0.98898 0.34331 0.0
C255 C 0.19349 0.98462 0.3717 0.0
C256 C 0.18178 0.99547 0.44489 0.0
C257 C 0.19721 0.01053 0.48894 0.0
C258 C 0.17934 0.01956 0.56651 0.0
C259 C 0.19123 0.01046 0.65144 0.0
C260 C 0.17665 0.04799 0.55695 0.0
C261 C 0.1515 0.00705 0.55948 0.0
C262 C 0.15363 0.99323 0.48877 0.0
C263 C 0.13125 0.97951 0.46888 0.0
C264 C 0.10592 0.98001 0.52183 0.0
C265 C 0.10273 0.99424 0.59444 0.0
C266 C 0.12602 0.00796 0.61338 0.0
H267 H 0.4942 0.23707 0.35282 0.0
H268 H 0.57886 0.26049 0.37421 0.0
H269 H 0.58904 0.21916 0.44565 0.0
H270 H 0.48292 0.201 0.55253 0.0
H271 H 0.46374 0.17649 0.51404 0.0
H272 H 0.46336 0.20742 0.4607 0.0
H273 H 0.48135 0.1908 0.31446 0.0
H274 H 0.48144 0.15974 0.36713 0.0
H275 H 0.51288 0.17256 0.30673 0.0
H276 H 0.58855 0.17705 0.52667 0.0
H277 H 0.57924 0.13462 0.59748 0.0
H278 H 0.49606 0.13688 0.51408 0.0
C279 C 0.51503 0.23314 0.37057 0.0
C280 C 0.53587 0.25176 0.35807 0.0
C281 C 0.56274 0.24633 0.38369 0.0
C282 C 0.56865 0.22299 0.42418 0.0
C283 C 0.54753 0.20513 0.43736 0.0
C284 C 0.52141 0.20971 0.40991 0.0
C285 C 0.50246 0.18723 0.4326 0.0
C286 C 0.4766 0.19342 0.4936 0.0
C287 C 0.49404 0.17697 0.35033 0.0
C288 C 0.52183 0.16954 0.47849 0.0
C289 C 0.54766 0.18035 0.48107 0.0
C290 C 0.56857 0.16823 0.52396 0.0
C291 C 0.56309 0.14427 0.56436 0.0
C292 C 0.53707 0.13264 0.56059 0.0
C293 C 0.51622 0.1454 0.51699 0.0
H294 H 0.27643 0.48956 0.34645 0.0
H295 H 0.29644 0.55769 0.18469 0.0
H296 H 0.3396 0.56221 0.25612 0.0
H297 H 0.2981 0.51019 0.53948 0.0
H298 H 0.31205 0.48064 0.57724 0.0
H299 H 0.28391 0.48184 0.50946 0.0
H300 H 0.31325 0.45637 0.39966 0.0
H301 H 0.34133 0.45478 0.46768 0.0
H302 H 0.34775 0.46704 0.35602 0.0
H303 H 0.37934 0.55982 0.34784 0.0
H304 H 0.41479 0.54987 0.44905 0.0
H305 H 0.36808 0.48386 0.55622 0.0
C306 C 0.29024 0.50518 0.32562 0.0
C307 C 0.28364 0.52314 0.2595 0.0
C308 C 0.30171 0.54357 0.23404 0.0
C309 C 0.32599 0.54635 0.27476 0.0
C310 C 0.33164 0.52857 0.34115 0.0
C311 C 0.31438 0.50831 0.36618 0.0
C312 C 0.32487 0.49222 0.44072 0.0
C313 C 0.30346 0.49117 0.5215 0.0
C314 C 0.33225 0.46606 0.41442 0.0
C315 C 0.3508 0.50658 0.4537 0.0
C316 C 0.35426 0.52749 0.39552 0.0
C317 C 0.37687 0.54351 0.39361 0.0
C318 C 0.39684 0.53773 0.45133 0.0
C319 C 0.39405 0.51615 0.51033 0.0
C320 C 0.37047 0.50062 0.51249 0.0
H321 H 0.01331 0.26771 0.43362 0.0
H322 H 0.09861 0.24769 0.47112 0.0
H323 H 0.10239 0.2838 0.55719 0.0
H324 H 0.02361 0.33403 0.41006 0.0
H325 H 0.9901 0.34046 0.46689 0.0
H326 H 0.99462 0.31313 0.40912 0.0
H327 H 0.977 0.28581 0.54933 0.0
H328 H 0.97271 0.31305 0.60774 0.0
H329 H 0.9942 0.28779 0.64566 0.0
H330 H 0.09639 0.32225 0.6383 0.0
H331 H 0.08232 0.36133 0.70125 0.0
H332 H 1.0002 0.3553 0.61316 0.0
C333 C 0.03275 0.27122 0.45969 0.0
C334 C 0.05579 0.25538 0.44612 0.0
C335 C 0.08095 0.26 0.48112 0.0
C336 C 0.08315 0.28028 0.5301 0.0
C337 C 0.0599 0.29556 0.54331 0.0
C338 C 0.03522 0.29133 0.50873 0.0
C339 C 0.01341 0.3106 0.53157 0.0
C340 C 1.00495 0.32544 0.44953 0.0
C341 C 0.98782 0.29859 0.58687 0.0
C342 C 0.02972 0.32649 0.58375 0.0
C343 C 0.05642 0.31746 0.59032 0.0
C344 C 0.07548 0.32942 0.63398 0.0
C345 C 0.06721 0.35149 0.67019 0.0
C346 C 0.04015 0.36139 0.66228 0.0
C347 C 0.0211 0.34835 0.61979 0.0
H348 H 0.82498 0.03081 0.09517 0.0
H349 H 0.79008 0.96025 0.05009 0.0
H350 H 0.83427 0.94993 0.96417 0.0
H351 H 0.86215 0.04379 0.88757 0.0
H352 H 0.89244 0.05724 0.92439 0.0
H353 H 0.85888 0.05857 0.98713 0.0
H354 H 0.87951 0.03709 0.12131 0.0
H355 H 0.91323 0.03595 0.05924 0.0
H356 H 0.89735 0.00784 0.11317 0.0
H357 H 0.88026 0.94888 0.87312 0.0
H358 H 0.92716 0.95495 0.79394 0.0
H359 H 0.93442 0.02561 0.90141 0.0
C360 C 0.82708 0.013 0.06862 0.0
C361 C 0.80437 0.99611 0.07945 0.0
C362 C 0.80745 0.97316 0.04287 0.0
C363 C 0.83238 0.96727 0.99378 0.0
C364 C 0.85423 0.98448 0.98242 0.0
C365 C 0.85208 0.00672 0.01983 0.0
C366 C 0.87874 0.02197 0.99609 0.0
C367 C 0.87268 0.04687 0.94581 0.0
C368 C 0.89306 0.02594 0.07729 0.0
C369 C 0.89594 0.00501 0.93849 0.0
C370 C 0.88124 0.98356 0.93129 0.0
C371 C 0.89209 0.96548 0.87906 0.0
C372 C 0.91876 0.96919 0.8338 0.0
C373 C 0.93465 0.99073 0.84123 0.0
C374 C 0.92294 0.00887 0.89459 0.0
H375 H 0.54302 0.75136 0.00841 0.0
H376 H 0.47545 0.75164 0.21444 0.0
H377 H 0.4677 0.79652 0.17549 0.0
H378 H 0.57024 0.81294 0.03099 0.0
H379 H 0.57872 0.82022 0.91621 0.0
H380 H 0.57917 0.78844 0.96209 0.0
H381 H 0.54439 0.77655 0.85662 0.0
H382 H 0.54364 0.80832 0.81091 0.0
H383 H 0.51152 0.79268 0.85421 0.0
H384 H 0.46654 0.84056 0.11129 0.0
H385 H 0.47305 0.88183 0.03101 0.0
H386 H 0.54225 0.85349 0.86647 0.0
C387 C 0.52686 0.76113 0.04543 0.0
C388 C 0.50987 0.74849 0.11467 0.0
C389 C 0.48867 0.76139 0.16178 0.0
C390 C 0.48413 0.78671 0.13983 0.0
C391 C 0.50106 0.79872 0.07056 0.0
C392 C 0.52212 0.78644 0.02431 0.0
C393 C 0.53719 0.80372 0.95248 0.0
C394 C 0.56817 0.80649 0.96631 0.0
C395 C 0.53398 0.79478 0.86328 0.0
C396 C 0.52125 0.82761 0.96535 0.0
C397 C 0.50048 0.82424 0.03373 0.0
C398 C 0.48288 0.84349 0.0581 0.0
C399 C 0.48685 0.86691 0.01227 0.0
C400 C 0.50835 0.87103 0.94288 0.0
C401 C 0.52554 0.85094 0.91875 0.0
H402 H 0.73312 0.52306 0.22681 0.0
H403 H 0.78049 0.45875 0.15269 0.0
H404 H 0.74565 0.44984 0.05348 0.0
H405 H 0.66253 0.49543 0.21646 0.0
H406 H 0.64863 0.52459 0.17478 0.0
H407 H 0.67585 0.52422 0.24585 0.0
H408 H 0.70607 0.55286 0.13065 0.0
H409 H 0.67923 0.55292 0.05855 0.0
H410 H 0.7142 0.54326 0.0232 0.0
H411 H 0.70915 0.45109 0.95009 0.0
H412 H 0.66935 0.45894 0.86291 0.0
H413 H 0.64434 0.52151 0.00814 0.0
C414 C 0.73544 0.50669 0.19166 0.0
C415 C 0.75911 0.49138 0.19717 0.0
C416 C 0.76219 0.47042 0.14914 0.0
C417 C 0.74265 0.46534 0.09263 0.0
C418 C 0.71998 0.4813 0.08593 0.0
C419 C 0.7159 0.50124 0.13546 0.0
C420 C 0.69022 0.51589 0.11371 0.0
C421 C 0.66799 0.51497 0.19238 0.0
C422 C 0.69791 0.54282 0.07949 0.0
C423 C 0.68095 0.50143 0.04298 0.0
C424 C 0.69849 0.48162 0.02764 0.0
C425 C 0.695 0.46631 0.96234 0.0
C426 C 0.67257 0.47103 0.91265 0.0
C427 C 0.65387 0.49074 0.92916 0.0
C428 C 0.65825 0.50617 0.99487 0.0
H429 H 0.95578 0.71167 0.06724 0.0
H430 H 0.0078 0.75961 0.87895 0.0
H431 H 0.01754 0.72472 0.78886 0.0
H432 H 1.00197 0.65985 0.05646 0.0
H433 H 0.97445 0.6369 0.07184 0.0
H434 H 0.96898 0.66633 0.11635 0.0
H435 H 0.92501 0.67369 0.03474 0.0
H436 H 0.93044 0.64432 0.98965 0.0
H437 H 0.92797 0.67237 0.91912 0.0
H438 H 0.02244 0.68443 0.72077 0.0
H439 H 0.02594 0.64061 0.68666 0.0
H440 H 0.97433 0.61805 0.92558 0.0
C441 C 0.9691 0.71474 0.00687 0.0
C442 C 0.98041 0.73845 0.97869 0.0
C443 C 0.99804 0.74182 0.89985 0.0
C444 C 1.00387 0.72207 0.84868 0.0
C445 C 0.99232 0.69892 0.87808 0.0
C446 C 0.97562 0.69507 0.9559 0.0
C447 C 0.96771 0.66795 0.97594 0.0
C448 C 0.97896 0.65712 0.06012 0.0
C449 C 0.93589 0.66438 0.98008 0.0
C450 C 0.98275 0.65718 0.89758 0.0
C451 C 0.99643 0.67542 0.8412 0.0
C452 C 0.01181 0.66996 0.76437 0.0
C453 C 0.0136 0.64511 0.74533 0.0
C454 C 1.00047 0.6261 0.80361 0.0
C455 C 0.98466 0.63229 0.8802 0.0
H456 H 1.0044 0.17031 0.47514 0.0
H457 H 0.07873 0.1597 0.30056 0.0
H458 H 0.06948 0.11447 0.31302 0.0
H459 H 0.01693 0.11833 0.61933 0.0
H460 H 0.98039 0.11109 0.64772 0.0
H461 H 0.99103 0.1425 0.61297 0.0
H462 H 0.95733 0.14323 0.49315 0.0
H463 H 0.94744 0.1114 0.52593 0.0
H464 H 0.96117 0.12038 0.41554 0.0
H465 H 0.05315 0.07048 0.34927 0.0
H466 H 0.03867 0.03086 0.43347 0.0
H467 H 0.97773 0.07004 0.59456 0.0
C468 C 0.0186 0.15837 0.43954 0.0
C469 C 0.04192 0.16831 0.3856 0.0
C470 C 0.06038 0.1523 0.34059 0.0
C471 C 0.05522 0.1267 0.34707 0.0
C472 C 0.03161 0.11747 0.39946 0.0
C473 C 0.01405 0.13277 0.44674 0.0
C474 C 0.9926 0.11796 0.50801 0.0
C475 C 0.99543 0.12274 0.60256 0.0
C476 C 0.96287 0.12358 0.4842 0.0
C477 C 1.00129 0.09187 0.4896 0.0
C478 C 0.02312 0.09199 0.42428 0.0
C479 C 0.03585 0.0701 0.39975 0.0
C480 C 0.02727 0.04765 0.44703 0.0
C481 C 1.00675 0.04756 0.5189 0.0
C482 C 0.99284 0.06971 0.53803 0.0
H483 H 0.35522 0.03212 0.38149 0.0
H484 H 0.3328 0.95441 0.40117 0.0
H485 H 0.37877 0.94308 0.45228 0.0
H486 H 0.43126 0.02391 0.31433 0.0
H487 H 0.44114 0.0482 0.37703 0.0
H488 H 0.40816 0.04977 0.33158 0.0
H489 H 0.3821 0.05363 0.48397 0.0
H490 H 0.4149 0.05219 0.52973 0.0
H491 H 0.38747 0.03036 0.57092 0.0
H492 H 0.42454 0.94078 0.51468 0.0
H493 H 0.46601 0.94733 0.59013 0.0
H494 H 0.45883 0.02697 0.53059 0.0
C495 C 0.36038 0.01277 0.3957 0.0
C496 C 0.34084 0.99402 0.38859 0.0
C497 C 0.34775 0.96885 0.40746 0.0
C498 C 0.37376 0.96233 0.4356 0.0
C499 C 0.39256 0.9813 0.44363 0.0
C500 C 0.38623 0.00602 0.42412 0.0
C501 C 0.40911 0.02287 0.44496 0.0
C502 C 0.42326 0.03702 0.36204 0.0
C503 C 0.39771 0.04081 0.51136 0.0
C504 C 0.42867 0.00386 0.48322 0.0
C505 C 0.41904 0.97997 0.48003 0.0
C506 C 0.43253 0.95937 0.51649 0.0
C507 C 0.45606 0.9633 0.55936 0.0
C508 C 0.46572 0.98767 0.5662 0.0
C509 C 0.4522 0.00811 0.52557 0.0
H510 H 0.49364 0.34987 0.39132 0.0
H511 H 0.57924 0.34058 0.28491 0.0
H512 H 0.59222 0.38039 0.33878 0.0
H513 H 0.49114 0.41982 0.35205 0.0
H514 H 0.46886 0.42115 0.45166 0.0
H515 H 0.46741 0.39453 0.39073 0.0
H516 H 0.4767 0.36688 0.53124 0.0
H517 H 0.47981 0.39394 0.58849 0.0
H518 H 0.50809 0.37196 0.58104 0.0
H519 H 0.59625 0.41855 0.42295 0.0
H520 H 0.59008 0.45299 0.51863 0.0
H521 H 0.50116 0.43694 0.56207 0.0
C522 C 0.51482 0.35686 0.37688 0.0
C523 C 0.53544 0.34285 0.33288 0.0
C524 C 0.56325 0.35167 0.31725 0.0
C525 C 0.57071 0.37409 0.34774 0.0
C526 C 0.54992 0.38741 0.39283 0.0
C527 C 0.52241 0.37927 0.40584 0.0
C528 C 0.50433 0.39582 0.46124 0.0
C529 C 0.48159 0.40856 0.41083 0.0
C530 C 0.4915 0.38128 0.54546 0.0
C531 C 0.52595 0.41427 0.47874 0.0
C532 C 0.55219 0.40925 0.43929 0.0
C533 C 0.57566 0.42297 0.45255 0.0
C534 C 0.57204 0.44239 0.50708 0.0
C535 C 0.54513 0.44789 0.5465 0.0
C536 C 0.52196 0.43364 0.53134 0.0
H537 H 0.17425 0.55174 0.28882 0.0
H538 H 0.18352 0.47779 0.20567 0.0
H539 H 0.13429 0.4683 0.26129 0.0
H540 H 0.14023 0.53437 0.48491 0.0
H541 H 0.11704 0.56063 0.49131 0.0
H542 H 0.14987 0.56367 0.4249 0.0
H543 H 0.12394 0.57858 0.29216 0.0
H544 H 0.09083 0.57536 0.35835 0.0
H545 H 0.09673 0.55954 0.26125 0.0
H546 H 0.08873 0.46407 0.34941 0.0
H547 H 0.05148 0.46423 0.47038 0.0
H548 H 0.07143 0.54076 0.50175 0.0
C549 C 0.16549 0.53379 0.28116 0.0
C550 C 0.18225 0.51539 0.24364 0.0
C551 C 0.17063 0.49204 0.23406 0.0
C552 C 0.14274 0.48662 0.26486 0.0
C553 C 0.12686 0.50486 0.30465 0.0
C554 C 0.13779 0.52803 0.31275 0.0
C555 C 0.11799 0.54288 0.36996 0.0
C556 C 0.13212 0.55083 0.44733 0.0
C557 C 0.1067 0.56542 0.31727 0.0
C558 C 0.09522 0.52376 0.39819 0.0
C559 C 0.10027 0.50228 0.35729 0.0
C560 C 0.08413 0.48096 0.38032 0.0
C561 C 0.06307 0.4812 0.44936 0.0
C562 C 0.05856 0.50255 0.49509 0.0
C563 C 0.07403 0.52439 0.46663 0.0
H564 H 0.0145 0.81928 0.9587 0.0
H565 H 0.94468 0.83511 0.14364 0.0
H566 H 0.95946 0.87936 0.13231 0.0
H567 H 0.06494 0.86229 0.02025 0.0
H568 H 0.07896 0.87124 0.9101 0.0
H569 H 0.06458 0.84056 0.93938 0.0
H570 H 0.03009 0.84726 0.82198 0.0
H571 H 0.04521 0.87743 0.79042 0.0
H572 H 0.00807 0.87437 0.82028 0.0
H573 H 0.9812 0.92188 0.09659 0.0
H574 H 1.00052 0.96033 0.01451 0.0
H575 H 0.05475 0.91646 0.84883 0.0
C576 C 1.00227 0.8322 0.99616 0.0
C577 C 0.97859 0.82408 0.05221 0.0
C578 C 0.96306 0.84119 0.10106 0.0
C579 C 0.97149 0.86615 0.09573 0.0
C580 C 0.9955 0.87349 0.04137 0.0
C581 C 0.01022 0.85708 0.99087 0.0
C582 C 0.03326 0.86999 0.93016 0.0
C583 C 0.06215 0.86045 0.95128 0.0
C584 C 0.02888 0.8671 0.83514 0.0
C585 C 0.02877 0.89644 0.95247 0.0
C586 C 0.00747 0.89803 0.01869 0.0
C587 C 0.99815 0.92085 0.04558 0.0
C588 C 0.00954 0.94261 0.99958 0.0
C589 C 0.02945 0.94117 0.92679 0.0
C590 C 0.04018 0.91791 0.90605 0.0
H591 H 0.70391 0.041 0.03242 0.0
H592 H 0.69398 0.97011 0.18571 0.0
H593 H 0.64496 0.96797 0.15455 0.0
H594 H 0.63145 0.06402 0.07099 0.0
H595 H 0.63038 0.07633 0.96008 0.0
H596 H 0.6631 0.07508 0.00708 0.0
H597 H 0.68531 0.04972 0.88433 0.0
H598 H 0.65287 0.05121 0.83635 0.0
H599 H 0.6685 0.02152 0.86339 0.0
H600 H 0.59898 0.97175 0.10134 0.0
H601 H 0.56081 0.97685 0.00892 0.0
H602 H 0.60113 0.04292 0.87298 0.0
C603 C 0.69126 0.02515 0.05954 0.0
C604 C 0.70232 0.00608 0.11385 0.0
C605 C 0.68545 0.98536 0.14704 0.0
C606 C 0.65765 0.98399 0.12954 0.0
C607 C 0.64724 0.00316 0.07645 0.0
C608 C 0.66363 0.02308 0.04009 0.0
C609 C 0.64844 0.03915 0.97511 0.0
C610 C 0.64302 0.0652 0.00513 0.0
C611 C 0.66474 0.04046 0.88444 0.0
C612 C 0.62135 0.02466 0.97877 0.0
C613 C 0.62091 0.00446 0.03999 0.0
C614 C 0.59897 0.98752 0.0534 0.0
C615 C 0.5774 0.9906 1.00032 0.0
C616 C 0.57808 0.01022 0.93338 0.0
C617 C 0.59989 0.02797 0.92434 0.0
H618 H 0.54182 0.64384 0.09927 0.0
H619 H 0.45506 0.66606 0.11067 0.0
H620 H 0.44278 0.62639 0.05557 0.0
H621 H 0.54504 0.61739 0.90597 0.0
H622 H 0.56767 0.59204 0.93548 0.0
H623 H 0.56872 0.62043 0.9866 0.0
H624 H 0.52844 0.57566 0.15883 0.0
H625 H 0.55831 0.59612 0.13848 0.0
H626 H 0.55814 0.56769 0.08639 0.0
H627 H 0.44128 0.5867 0.98328 0.0
H628 H 0.4506 0.55046 0.89882 0.0
H629 H 0.53839 0.55382 0.93918 0.0
C630 C 0.52019 0.63995 0.09192 0.0
C631 C 0.49932 0.65777 0.10851 0.0
C632 C 0.47125 0.65254 0.09718 0.0
C633 C 0.46412 0.63004 0.06682 0.0
C634 C 0.48532 0.61294 0.04929 0.0
C635 C 0.51277 0.61756 0.06215 0.0
C636 C 0.53197 0.59712 0.03198 0.0
C637 C 0.55467 0.60736 0.96078 0.0
C638 C 0.54498 0.58334 0.1085 0.0
C639 C 0.51127 0.5808 0.99672 0.0
C640 C 0.48439 0.58999 0.00843 0.0
C641 C 0.46215 0.57906 0.97512 0.0
C642 C 0.46764 0.5585 0.92716 0.0
C643 C 0.49518 0.54922 0.91267 0.0
C644 C 0.51703 0.56024 0.94989 0.0
H645 H 0.85199 0.46555 0.19611 0.0
H646 H 0.86694 0.53828 0.27547 0.0
H647 H 0.9175 0.53416 0.22963 0.0
H648 H 0.92295 0.43636 0.2314 0.0
H649 H 0.92348 0.4212 0.13305 0.0
H650 H 0.89068 0.42624 0.19648 0.0
H651 H 0.87157 0.44942 0.06213 0.0
H652 H 0.90403 0.44425 0.9986 0.0
H653 H 0.89094 0.47541 0.00508 0.0
H654 H 0.96309 0.52605 0.15189 0.0
H655 H 0.9982 0.51814 0.03116 0.0
H656 H 0.95379 0.4515 0.99062 0.0
C657 C 0.86632 0.48009 0.20633 0.0
C658 C 0.85619 0.50187 0.2415 0.0
C659 C 0.87479 0.52115 0.25144 0.0
C660 C 0.90343 0.51887 0.22567 0.0
C661 C 0.91286 0.49728 0.18931 0.0
C662 C 0.89477 0.47829 0.17879 0.0
C663 C 0.90877 0.45959 0.12187 0.0
C664 C 0.91165 0.43435 0.17383 0.0
C665 C 0.8929 0.45705 0.04223 0.0
C666 C 0.93702 0.47187 0.09705 0.0
C667 C 0.93931 0.49302 0.13973 0.0
C668 C 0.96185 0.50926 0.11966 0.0
C669 C 0.98169 0.50463 0.05096 0.0
C670 C 0.97865 0.4841 1.00257 0.0
C671 C 0.95693 0.46683 0.02864 0.0
H672 H 0.00811 0.18249 0.24448 0.0
H673 H 0.09196 0.21066 0.17101 0.0
H674 H 0.09694 0.18465 0.04759 0.0
H675 H 0.02238 0.1211 0.21181 0.0
H676 H 0.98933 0.11535 0.17339 0.0
H677 H 0.99222 0.13941 0.24421 0.0
H678 H 0.97213 0.17018 0.12604 0.0
H679 H 0.97118 0.14563 0.0556 0.0
H680 H 0.99023 0.17384 0.01837 0.0
H681 H 0.09593 0.15009 0.95188 0.0
H682 H 0.08794 0.112 0.88251 0.0
H683 H 1.00418 0.10614 0.01755 0.0
C684 C 0.02699 0.18384 0.19986 0.0
C685 C 0.04958 0.19866 0.21574 0.0
C686 C 0.07433 0.19976 0.15811 0.0
C687 C 0.07735 0.1849 0.08859 0.0
C688 C 0.05525 0.16931 0.07753 0.0
C689 C 0.03034 0.16897 0.13078 0.0
C690 C 0.01089 0.14886 0.11052 0.0
C691 C 1.00327 0.13013 0.18979 0.0
C692 C 0.98455 0.16032 0.07552 0.0
C693 C 0.0293 0.13712 0.04065 0.0
C694 C 0.05464 0.14938 0.02175 0.0
C695 C 0.0759 0.14073 0.96447 0.0
C696 C 0.07113 0.11904 0.92532 0.0
C697 C 0.04533 0.10609 0.94387 0.0
C698 C 0.02415 0.1155 1.00193 0.0
H699 H 0.34634 0.97668 0.21525 0.0
H700 H 0.32325 0.05424 0.19325 0.0
H701 H 0.36322 0.06321 0.08063 0.0
H702 H 0.42039 0.98793 0.19671 0.0
H703 H 0.42941 0.96136 0.13761 0.0
H704 H 0.39804 0.96094 0.21199 0.0
H705 H 0.3685 0.95104 0.08983 0.0
H706 H 0.39973 0.95126 0.01507 0.0
H707 H 0.37085 0.97113 0.99057 0.0
H708 H 0.40672 0.06363 0.9727 0.0
H709 H 0.44955 0.05568 0.87724 0.0
H710 H 0.44539 0.97776 0.97334 0.0
C711 C 0.34961 0.99547 0.18578 0.0
C712 C 0.33136 0.01473 0.21114 0.0
C713 C 0.33649 0.03917 0.17253 0.0
C714 C 0.3593 0.04442 0.10933 0.0
C715 C 0.37704 0.02503 0.08614 0.0
C716 C 0.37246 0.00103 0.12335 0.0
C717 C 0.39519 0.98371 0.08959 0.0
C718 C 0.41174 0.97285 0.16334 0.0
C719 C 0.38282 0.96307 0.04351 0.0
C720 C 0.41303 0.00158 0.02616 0.0
C721 C 0.40229 0.02536 0.02555 0.0
C722 C 0.41525 0.04506 0.97264 0.0
C723 C 0.43965 0.04035 0.91859 0.0
C724 C 0.45095 0.01609 0.91725 0.0
C725 C 0.43734 0.99652 0.97232 0.0
H726 H 0.48842 0.3507 0.22876 0.0
H727 H 0.55133 0.30974 0.08103 0.0
H728 H 0.5484 0.3401 0.95388 0.0
H729 H 0.44747 0.37367 0.05064 0.0
H730 H 0.44222 0.4038 0.09035 0.0
H731 H 0.44588 0.37682 0.16507 0.0
H732 H 0.48693 0.39768 0.2254 0.0
H733 H 0.48311 0.42493 0.15237 0.0
H734 H 0.51643 0.40941 0.15263 0.0
H735 H 0.54207 0.37647 0.84857 0.0
H736 H 0.53544 0.41796 0.77402 0.0
H737 H 0.4786 0.43754 0.99166 0.0
C738 C 0.50137 0.34809 0.16932 0.0
C739 C 0.51982 0.3277 0.16405 0.0
C740 C 0.53652 0.32483 0.08543 0.0
C741 C 0.53504 0.34205 0.01317 0.0
C742 C 0.51691 0.36215 0.02088 0.0
C743 C 0.50048 0.36537 0.09708 0.0
C744 C 0.48506 0.38996 0.09112 0.0
C745 C 0.45326 0.3858 0.0998 0.0
C746 C 0.4934 0.40651 0.15936 0.0
C747 C 0.49584 0.40036 1.00019 0.0
C748 C 0.51382 0.38372 0.96052 0.0
C749 C 0.52777 0.38948 0.87846 0.0
C750 C 0.52384 0.41304 0.83663 0.0
C751 C 0.50618 0.43062 0.87669 0.0
C752 C 0.49158 0.42411 0.95889 0.0
H753 H 0.18268 0.54574 0.07844 0.0
H754 H 0.2308 0.47912 0.04016 0.0
H755 H 0.19839 0.46698 0.93765 0.0
H756 H 0.1184 0.5172 0.09105 0.0
H757 H 0.1007 0.54287 0.03854 0.0
H758 H 0.13036 0.5485 0.09533 0.0
H759 H 0.1555 0.57218 0.95699 0.0
H760 H 0.12572 0.56699 0.89981 0.0
H761 H 0.16003 0.55732 0.85761 0.0
H762 H 0.15674 0.45942 0.85708 0.0
H763 H 0.11123 0.45831 0.79689 0.0
H764 H 0.09016 0.52995 0.89015 0.0
C765 C 0.18685 0.52909 0.04567 0.0
C766 C 0.20939 0.51356 0.06522 0.0
C767 C 0.21403 0.49152 0.02372 0.0
C768 C 0.19557 0.48442 0.96628 0.0
C769 C 0.17273 0.49967 0.95127 0.0
C770 C 0.16852 0.52171 0.98914 0.0
C771 C 0.14104 0.53359 0.96971 0.0
C772 C 0.12148 0.53565 0.0536 0.0
C773 C 0.14587 0.55903 0.91792 0.0
C774 C 0.13027 0.51475 0.91524 0.0
C775 C 0.14877 0.49528 0.90542 0.0
C776 C 0.14235 0.47479 0.86296 0.0
C777 C 0.11642 0.47426 0.82937 0.0
C778 C 0.09733 0.49417 0.83798 0.0
C779 C 0.10455 0.51469 0.88103 0.0
H780 H 0.94809 0.80099 0.27043 0.0
H781 H 0.03283 0.79138 0.15644 0.0
H782 H 0.05002 0.8193 0.25676 0.0
H783 H 0.95213 0.86353 0.28509 0.0
H784 H 0.93053 0.86407 0.3863 0.0
H785 H 0.92613 0.83969 0.31785 0.0
H786 H 0.93409 0.80715 0.4466 0.0
H787 H 0.93885 0.8319 0.51369 0.0
H788 H 0.96557 0.80869 0.49919 0.0
H789 H 0.05669 0.85318 0.34926 0.0
H790 H 0.05346 0.88893 0.43666 0.0
H791 H 0.96385 0.87749 0.49152 0.0
C792 C 0.97034 0.80389 0.27034 0.0
C793 C 0.9894 0.79372 0.20822 0.0
C794 C 0.01827 0.79854 0.20593 0.0
C795 C 0.02806 0.81449 0.26198 0.0
C796 C 0.00859 0.82528 0.31994 0.0
C797 C 0.98034 0.81993 0.32561 0.0
C798 C 0.96357 0.83597 0.3871 0.0
C799 C 0.94181 0.85172 0.34126 0.0
C800 C 0.94971 0.81997 0.46636 0.0
C801 C 0.98663 0.85203 0.41157 0.0
C802 C 0.01244 0.84526 0.37312 0.0
C803 C 0.03671 0.85827 0.38145 0.0
C804 C 0.03463 0.87857 0.43125 0.0
C805 C 0.00845 0.88582 0.47193 0.0
C806 C 0.98414 0.87235 0.46154 0.0
H807 H 0.69667 0.03276 0.26784 0.0
H808 H 0.73592 0.96223 0.33161 0.0
H809 H 0.69753 0.95179 0.44794 0.0
H810 H 0.66712 0.04468 0.48699 0.0
H811 H 0.6353 0.05745 0.45014 0.0
H812 H 0.6675 0.06015 0.37953 0.0
H813 H 0.64394 0.03899 0.26294 0.0
H814 H 0.61178 0.03608 0.33368 0.0
H815 H 0.6278 0.00896 0.29078 0.0
H816 H 0.65208 0.9477 0.54955 0.0
H817 H 0.60608 0.95172 0.63469 0.0
H818 H 0.59596 0.02464 0.50117 0.0
C819 C 0.69752 0.01545 0.30814 0.0
C820 C 0.71962 0.99854 0.29198 0.0
C821 C 0.71972 0.97578 0.34457 0.0
C822 C 0.69774 0.96956 0.40994 0.0
C823 C 0.67569 0.98627 0.4219 0.0
C824 C 0.67559 0.00888 0.37283 0.0
C825 C 0.6488 0.02299 0.39489 0.0
C826 C 0.65506 0.04779 0.43 0.0
C827 C 0.6321 0.02699 0.31589 0.0
C828 C 0.6339 0.00498 0.46487 0.0
C829 C 0.64961 0.98381 0.47911 0.0
C830 C 0.63975 0.9643 0.53926 0.0
C831 C 0.61348 0.96669 0.58709 0.0
C832 C 0.59729 0.9885 0.57513 0.0
C833 C 0.60776 0.00775 0.51246 0.0
H834 H 0.48711 0.64958 0.29045 0.0
H835 H 0.57218 0.67717 0.25274 0.0
H836 H 0.58626 0.64318 0.35717 0.0
H837 H 0.4845 0.62998 0.51677 0.0
H838 H 0.4641 0.60254 0.50964 0.0
H839 H 0.46104 0.6294 0.43418 0.0
H840 H 0.47358 0.60261 0.30547 0.0
H841 H 0.47622 0.57572 0.38125 0.0
H842 H 0.50525 0.58457 0.30188 0.0
H843 H 0.5906 0.60552 0.46616 0.0
H844 H 0.58494 0.56768 0.5688 0.0
H845 H 0.4971 0.56459 0.52868 0.0
C846 C 0.50869 0.64836 0.30425 0.0
C847 C 0.5286 0.66594 0.26441 0.0
C848 C 0.55663 0.664 0.28401 0.0
C849 C 0.56478 0.6447 0.34259 0.0
C850 C 0.54463 0.62747 0.3804 0.0
C851 C 0.51716 0.62913 0.3617 0.0
C852 C 0.49957 0.60815 0.40949 0.0
C853 C 0.47591 0.61812 0.47119 0.0
C854 C 0.48797 0.5918 0.34572 0.0
C855 C 0.52132 0.59449 0.45876 0.0
C856 C 0.54721 0.60583 0.44133 0.0
C857 C 0.57042 0.59647 0.48015 0.0
C858 C 0.56702 0.57499 0.53835 0.0
C859 C 0.54062 0.56314 0.55694 0.0
C860 C 0.51761 0.57313 0.51612 0.0
H861 H 0.84024 0.53326 0.41447 0.0
H862 H 0.81663 0.45592 0.43085 0.0
H863 H 0.84916 0.44608 0.54222 0.0
H864 H 0.91042 0.52279 0.41445 0.0
H865 H 0.91793 0.54808 0.47602 0.0
H866 H 0.8885 0.54999 0.41386 0.0
H867 H 0.85548 0.55753 0.5514 0.0
H868 H 0.885 0.55585 0.61391 0.0
H869 H 0.85521 0.53581 0.64625 0.0
H870 H 0.88949 0.44375 0.63092 0.0
H871 H 0.93366 0.44876 0.6941 0.0
H872 H 0.93289 0.52786 0.616 0.0
C873 C 0.84136 0.51446 0.44416 0.0
C874 C 0.82581 0.49534 0.41589 0.0
C875 C 0.82793 0.4708 0.45393 0.0
C876 C 0.84646 0.4651 0.51653 0.0
C877 C 0.86261 0.48424 0.5401 0.0
C878 C 0.86006 0.50851 0.50564 0.0
C879 C 0.88216 0.52507 0.53343 0.0
C880 C 0.90084 0.53718 0.45473 0.0
C881 C 0.86865 0.54473 0.58961 0.0
C882 C 0.89824 0.50618 0.58623 0.0
C883 C 0.88635 0.48283 0.59029 0.0
C884 C 0.89867 0.46201 0.62955 0.0
C885 C 0.92388 0.46506 0.66487 0.0
C886 C 0.93672 0.48875 0.66035 0.0
C887 C 0.9234 0.5096 0.62167 0.0
loop_
_geom_bond_atom_site_label_1
_geom_bond_atom_site_label_2
_geom_bond_distance
_geom_bond_site_symmetry_2
_ccdc_geom_bond_type
C0 N1 1.317 . S
C0 N2 1.348 . S
C0 C3 1.485 . S
N1 C0 1.317 . S
N1 N5 1.370 . S
N2 C0 1.348 . S
N2 C4 1.346 . S
C3 C0 1.485 . S
C3 H7 0.960 . S
C3 H8 0.961 . S
C3 H9 0.960 . S
C4 N2 1.346 . S
C4 N5 1.307 . S
C4 C6 1.486 1_554 S
N5 N1 1.370 . S
N5 C4 1.307 . S
C6 C4 1.486 1_556 S
C6 H10 0.960 . S
C6 H11 0.960 . S
C6 H12 0.959 . S
H7 C3 0.960 . S
H8 C3 0.961 . S
H9 C3 0.960 . S
H10 C6 0.960 . S
H11 C6 0.960 . S
H12 C6 0.959 . S
C13 N14 1.317 . S
C13 N15 1.348 1_554 S
C13 C16 1.485 . S
N14 C13 1.317 . S
N14 N18 1.370 1_554 S
N15 C13 1.348 1_556 S
N15 C17 1.346 . S
C16 C13 1.485 . S
C16 H20 0.960 . S
C16 H21 0.961 . S
C16 H22 0.960 . S
C17 N15 1.346 . S
C17 N18 1.307 . S
C17 C19 1.486 . S
N18 N14 1.370 1_556 S
N18 C17 1.307 . S
C19 C17 1.486 . S
C19 H23 0.960 . S
C19 H24 0.960 . S
C19 H25 0.959 . S
H20 C16 0.960 . S
H21 C16 0.961 . S
H22 C16 0.960 . S
H23 C19 0.960 . S
H24 C19 0.960 . S
H25 C19 0.959 . S
C26 N27 1.317 . S
C26 N28 1.347 . S
C26 C29 1.485 . S
N27 C26 1.317 . S
N27 N31 1.370 . S
N28 C26 1.347 . S
N28 C30 1.348 1_565 S
C29 C26 1.485 . S
C29 H33 0.960 1_565 S
C29 H34 0.961 . S
C29 H35 0.960 . S
C30 N28 1.348 1_545 S
C30 N31 1.307 1_545 S
C30 C32 1.489 1_554 S
N31 N27 1.370 . S
N31 C30 1.307 1_565 S
C32 C30 1.489 1_556 S
C32 H36 0.921 1_545 S
C32 H37 0.990 . S
C32 H38 0.966 . S
H33 C29 0.960 1_545 S
H34 C29 0.961 . S
H35 C29 0.960 . S
H36 C32 0.921 1_565 S
H37 C32 0.990 . S
H38 C32 0.966 . S
C39 N40 1.317 . S
C39 N41 1.348 . S
C39 C42 1.485 . S
N40 C39 1.317 . S
N40 N44 1.370 . S
N41 C39 1.348 . S
N41 C43 1.346 . S
C42 C39 1.485 . S
C42 H46 0.960 . S
C42 H47 0.961 . S
C42 H48 0.960 . S
C43 N41 1.346 . S
C43 N44 1.307 . S
C43 C45 1.486 1_554 S
N44 N40 1.370 . S
N44 C43 1.307 . S
C45 C43 1.486 1_556 S
C45 H49 0.960 . S
C45 H50 0.960 . S
C45 H51 0.959 . S
H46 C42 0.960 . S
H47 C42 0.961 . S
H48 C42 0.960 . S
H49 C45 0.960 . S
H50 C45 0.960 . S
H51 C45 0.959 . S
C52 N53 1.317 . S
C52 N54 1.348 . S
C52 C55 1.485 . S
N53 C52 1.317 . S
N53 N57 1.370 . S
N54 C52 1.348 . S
N54 C56 1.346 . S
C55 C52 1.485 . S
C55 H59 0.960 . S
C55 H60 0.961 . S
C55 H61 0.960 . S
C56 N54 1.346 . S
C56 N57 1.307 . S
C56 C58 1.486 . S
N57 N53 1.370 . S
N57 C56 1.307 . S
C58 C56 1.486 . S
C58 H62 0.960 . S
C58 H63 0.960 . S
C58 H64 0.959 . S
H59 C55 0.960 . S
H60 C55 0.961 . S
H61 C55 0.960 . S
H62 C58 0.960 . S
H63 C58 0.960 . S
H64 C58 0.959 . S
C65 N66 1.317 . S
C65 N67 1.348 . S
C65 C68 1.485 . S
N66 C65 1.317 . S
N66 N70 1.370 . S
N67 C65 1.348 . S
N67 C69 1.346 . S
C68 C65 1.485 . S
C68 H72 0.960 . S
C68 H73 0.961 . S
C68 H74 0.960 . S
C69 N67 1.346 . S
C69 N70 1.307 . S
C69 C71 1.486 . S
N70 N66 1.370 . S
N70 C69 1.307 . S
C71 C69 1.486 . S
C71 H75 0.960 . S
C71 H76 0.960 . S
C71 H77 0.959 . S
H72 C68 0.960 . S
H73 C68 0.961 . S
H74 C68 0.960 . S
H75 C71 0.960 . S
H76 C71 0.960 . S
H77 C71 0.959 . S
C78 N79 1.317 . S
C78 N80 1.352 . S
C78 C81 1.485 . S
N79 C78 1.317 . S
N79 N83 1.371 . S
N80 C78 1.352 . S
N80 C82 1.343 1_565 S
C81 C78 1.485 . S
C81 H85 0.960 1_565 S
C81 H86 0.961 . S
C81 H87 0.960 . S
C82 N80 1.343 1_545 S
C82 N83 1.306 1_545 S
C82 C84 1.487 . S
N83 N79 1.371 . S
N83 C82 1.306 1_565 S
C84 C82 1.487 . S
C84 H88 0.960 1_545 S
C84 H89 0.960 . S
C84 H90 0.959 . S
H85 C81 0.960 1_545 S
H86 C81 0.961 . S
H87 C81 0.960 . S
H88 C84 0.960 1_565 S
H89 C84 0.960 . S
H90 C84 0.959 . S
C91 N92 1.317 . S
C91 N93 1.348 . S
C91 C94 1.485 . S
N92 C91 1.317 . S
N92 N96 1.370 . S
N93 C91 1.348 . S
N93 C95 1.346 . S
C94 C91 1.485 . S
C94 H98 0.960 . S
C94 H99 0.961 . S
C94 H100 0.960 . S
C95 N93 1.346 . S
C95 N96 1.307 . S
C95 C97 1.486 . S
N96 N92 1.370 . S
N96 C95 1.307 . S
C97 C95 1.486 . S
C97 H101 0.960 . S
C97 H102 0.960 . S
C97 H103 0.959 . S
H98 C94 0.960 . S
H99 C94 0.961 . S
H100 C94 0.960 . S
H101 C97 0.960 . S
H102 C97 0.960 . S
H103 C97 0.959 . S
C104 O120 1.251 . S
C104 O122 1.254 . S
N105 C106 1.333 1_655 S
N105 C110 1.307 . S
N105 Zn111 2.020 1_655 S
C106 N105 1.333 1_455 S
C106 C107 1.377 1_455 S
C106 H124 0.952 . S
C107 C106 1.377 1_655 S
C107 C108 1.395 . S
C107 H134 0.946 1_655 S
C108 C107 1.395 . S
C108 C109 1.357 . S
C109 C108 1.357 . S
C109 C110 1.370 . S
C109 H135 0.950 . S
C110 N105 1.307 . S
C110 C109 1.370 . S
C110 H128 0.948 . S
Zn111 N105 2.020 1_455 S
Zn111 O120 2.039 . S
Zn111 O126 2.034 . S
Zn111 O130 2.025 1_565 S
Zn111 O132 2.024 1_455 S
C112 O131 1.246 . S
C112 O132 1.249 1_545 S
N113 C114 1.307 . S
N113 C115 1.333 . S
N113 Zn119 2.020 . S
C114 N113 1.307 . S
C114 C118 1.370 1_556 S
C114 H125 0.948 . S
C115 N113 1.333 . S
C115 C116 1.379 . S
C115 H123 0.952 . S
C116 C115 1.379 . S
C116 C117 1.390 1_556 S
C116 H136 0.949 . S
C117 C116 1.390 1_554 S
C117 C118 1.357 . S
C118 C114 1.370 1_554 S
C118 C117 1.357 . S
C118 H137 0.950 . S
Zn119 N113 2.020 . S
Zn119 O122 2.025 1_545 S
Zn119 O127 2.024 . S
Zn119 O129 2.039 . S
Zn119 O131 2.034 1_455 S
O120 C104 1.251 . S
O120 Zn111 2.039 . S
C121 O126 1.246 . S
C121 O127 1.249 1_565 S
O122 C104 1.254 . S
O122 Zn119 2.025 1_565 S
H123 C115 0.952 . S
H124 C106 0.952 . S
H125 C114 0.948 . S
O126 Zn111 2.034 . S
O126 C121 1.246 . S
O127 Zn119 2.024 . S
O127 C121 1.249 1_545 S
H128 C110 0.948 . S
O129 Zn119 2.039 . S
O129 C133 1.251 . S
O130 Zn111 2.025 1_545 S
O130 C133 1.254 . S
O131 C112 1.246 . S
O131 Zn119 2.034 1_655 S
O132 Zn111 2.024 1_655 S
O132 C112 1.249 1_565 S
C133 O129 1.251 . S
C133 O130 1.254 . S
H134 C107 0.946 1_455 S
H135 C109 0.950 . S
H136 C116 0.949 . S
H137 C118 0.950 . S
C138 O154 1.251 1_565 S
C138 O156 1.254 . S
N139 C140 1.333 . S
N139 C144 1.307 . S
N139 Zn145 2.020 . S
C140 N139 1.333 . S
C140 C141 1.379 . S
C140 H158 0.952 . S
C141 C140 1.379 . S
C141 C142 1.390 . S
C141 H168 0.949 . S
C142 C141 1.390 . S
C142 C143 1.357 . S
C143 C142 1.357 . S
C143 C144 1.370 . S
C143 H169 0.950 . S
C144 N139 1.307 . S
C144 C143 1.370 . S
C144 H162 0.948 . S
Zn145 N139 2.020 . S
Zn145 O154 2.039 . S
Zn145 O160 2.034 . S
Zn145 O164 2.025 . S
Zn145 O166 2.024 . S
C146 O165 1.246 1_545 S
C146 O166 1.249 . S
N147 C148 1.307 . S
N147 C149 1.333 . S
N147 Zn153 2.020 . S
C148 N147 1.307 . S
C148 C152 1.370 . S
C148 H159 0.948 . S
C149 N147 1.333 . S
C149 C150 1.379 . S
C149 H157 0.952 . S
C150 C149 1.379 . S
C150 C151 1.390 . S
C150 H170 0.949 . S
C151 C150 1.390 . S
C151 C152 1.357 . S
C152 C148 1.370 . S
C152 C151 1.357 . S
C152 H171 0.950 . S
Zn153 N147 2.020 . S
Zn153 O156 2.025 . S
Zn153 O161 2.024 . S
Zn153 O163 2.039 . S
Zn153 O165 2.034 . S
O154 C138 1.251 1_545 S
O154 Zn145 2.039 . S
C155 O160 1.246 1_565 S
C155 O161 1.249 . S
O156 C138 1.254 . S
O156 Zn153 2.025 . S
H157 C149 0.952 . S
H158 C140 0.952 . S
H159 C148 0.948 . S
O160 Zn145 2.034 . S
O160 C155 1.246 1_545 S
O161 Zn153 2.024 . S
O161 C155 1.249 . S
H162 C144 0.948 . S
O163 Zn153 2.039 . S
O163 C167 1.251 1_565 S
O164 Zn145 2.025 . S
O164 C167 1.254 . S
O165 C146 1.246 1_565 S
O165 Zn153 2.034 . S
O166 Zn145 2.024 . S
O166 C146 1.249 . S
C167 O163 1.251 1_545 S
C167 O164 1.254 . S
H168 C141 0.949 . S
H169 C143 0.950 . S
H170 C150 0.949 . S
H171 C152 0.950 . S
C172 O188 1.251 . S
C172 O190 1.254 . S
N173 C174 1.333 . S
N173 C178 1.307 . S
N173 Zn179 2.020 . S
C174 N173 1.333 . S
C174 C175 1.379 . S
C174 H192 0.952 . S
C175 C174 1.379 . S
C175 C176 1.390 . S
C175 H202 0.949 . S
C176 C175 1.390 . S
C176 C177 1.357 . S
C177 C176 1.357 . S
C177 C178 1.370 . S
C177 H203 0.950 . S
C178 N173 1.307 . S
C178 C177 1.370 . S
C178 H196 0.948 . S
Zn179 N173 2.020 . S
Zn179 O188 2.039 . S
Zn179 O194 2.034 . S
Zn179 O198 2.025 . S
Zn179 O200 2.024 . S
C180 O199 1.246 . S
C180 O200 1.249 . S
N181 C182 1.307 . S
N181 C183 1.333 . S
N181 Zn187 2.020 . S
C182 N181 1.307 . S
C182 C186 1.370 . S
C182 H193 0.948 . S
C183 N181 1.333 . S
C183 C184 1.379 . S
C183 H191 0.952 . S
C184 C183 1.379 . S
C184 C185 1.390 . S
C184 H204 0.949 . S
C185 C184 1.390 . S
C185 C186 1.357 . S
C186 C182 1.370 . S
C186 C185 1.357 . S
C186 H205 0.950 . S
Zn187 N181 2.020 . S
Zn187 O190 2.025 . S
Zn187 O195 2.024 . S
Zn187 O197 2.039 . S
Zn187 O199 2.034 . S
O188 C172 1.251 . S
O188 Zn179 2.039 . S
C189 O194 1.246 . S
C189 O195 1.249 . S
O190 C172 1.254 . S
O190 Zn187 2.025 . S
H191 C183 0.952 . S
H192 C174 0.952 . S
H193 C182 0.948 . S
O194 Zn179 2.034 . S
O194 C189 1.246 . S
O195 Zn187 2.024 . S
O195 C189 1.249 . S
H196 C178 0.948 . S
O197 Zn187 2.039 . S
O197 C201 1.251 . S
O198 Zn179 2.025 . S
O198 C201 1.254 . S
O199 C180 1.246 . S
O199 Zn187 2.034 . S
O200 Zn179 2.024 . S
O200 C180 1.249 . S
C201 O197 1.251 . S
C201 O198 1.254 . S
H202 C175 0.949 . S
H203 C177 0.950 . S
H204 C184 0.949 . S
H205 C186 0.950 . S
C206 O222 1.251 . S
C206 O224 1.254 . S
N207 C208 1.333 . S
N207 C212 1.307 . S
N207 Zn213 2.020 . S
C208 N207 1.333 . S
C208 C209 1.379 . S
C208 H226 0.952 . S
C209 C208 1.379 . S
C209 C210 1.390 . S
C209 H236 0.949 . S
C210 C209 1.390 . S
C210 C211 1.357 . S
C211 C210 1.357 . S
C211 C212 1.370 . S
C211 H237 0.950 . S
C212 N207 1.307 . S
C212 C211 1.370 . S
C212 H230 0.948 . S
Zn213 N207 2.020 . S
Zn213 O222 2.039 . S
Zn213 O228 2.034 1_455 S
Zn213 O232 2.025 1_455 S
Zn213 O234 2.024 . S
C214 O233 1.246 . S
C214 O234 1.249 . S
N215 C216 1.307 . S
N215 C217 1.333 1_455 S
N215 Zn221 2.020 . S
C216 N215 1.307 . S
C216 C220 1.370 . S
C216 H227 0.948 . S
C217 N215 1.333 1_655 S
C217 C218 1.379 . S
C217 H225 0.952 . S
C218 C217 1.379 . S
C218 C219 1.383 1_655 S
C218 H238 0.949 . S
C219 C218 1.383 1_455 S
C219 C220 1.364 . S
C220 C216 1.370 . S
C220 C219 1.364 . S
C220 H239 0.950 . S
Zn221 N215 2.020 . S
Zn221 O224 2.025 . S
Zn221 O229 2.024 1_455 S
Zn221 O231 2.039 1_455 S
Zn221 O233 2.034 . S
O222 C206 1.251 . S
O222 Zn213 2.039 . S
C223 O228 1.246 . S
C223 O229 1.249 . S
O224 C206 1.254 . S
O224 Zn221 2.025 . S
H225 C217 0.952 . S
H226 C208 0.952 . S
H227 C216 0.948 . S
O228 Zn213 2.034 1_655 S
O228 C223 1.246 . S
O229 Zn221 2.024 1_655 S
O229 C223 1.249 . S
H230 C212 0.948 . S
O231 Zn221 2.039 1_655 S
O231 C235 1.251 . S
O232 Zn213 2.025 1_655 S
O232 C235 1.254 . S
O233 C214 1.246 . S
O233 Zn221 2.034 . S
O234 Zn213 2.024 . S
O234 C214 1.249 . S
C235 O231 1.251 . S
C235 O232 1.254 . S
H236 C209 0.949 . S
H237 C211 0.950 . S
H238 C218 0.949 . S
H239 C220 0.950 . S
H240 C252 0.930 . S
H241 C254 0.930 . S
H242 C255 0.930 . S
H243 C259 0.959 1_565 S
H244 C259 0.959 . S
H245 C259 0.961 . S
H246 C260 0.960 . S
H247 C260 0.961 . S
H248 C260 0.959 . S
H249 C263 0.929 . S
H250 C264 0.931 . S
H251 C266 0.930 . S
C252 H240 0.930 . S
C252 C253 1.386 1_545 S
C252 C257 1.399 . S
C253 C252 1.386 1_565 S
C253 C254 1.392 . S
C254 H241 0.930 . S
C254 C253 1.392 . S
C254 C255 1.388 . S
C255 H242 0.930 . S
C255 C254 1.388 . S
C255 C256 1.390 . S
C256 C255 1.390 . S
C256 C257 1.394 1_565 S
C256 C262 1.465 . S
C257 C252 1.399 . S
C257 C256 1.394 1_545 S
C257 C258 1.516 . S
C258 C257 1.516 . S
C258 C259 1.502 . S
C258 C260 1.561 . S
C258 C261 1.526 . S
C259 H243 0.959 1_545 S
C259 H244 0.959 . S
C259 H245 0.961 . S
C259 C258 1.502 . S
C260 H246 0.960 . S
C260 H247 0.961 . S
C260 H248 0.959 . S
C260 C258 1.561 . S
C261 C258 1.526 . S
C261 C262 1.396 1_545 S
C261 C266 1.390 . S
C262 C256 1.465 . S
C262 C261 1.396 1_565 S
C262 C263 1.399 . S
C263 H249 0.929 . S
C263 C262 1.399 . S
C263 C264 1.385 . S
C264 H250 0.931 . S
C264 C263 1.385 . S
C264 C265 1.389 . S
C265 C264 1.389 . S
C265 C266 1.387 1_565 S
C266 H251 0.930 . S
C266 C261 1.390 . S
C266 C265 1.387 1_545 S
H267 C279 0.930 . S
H268 C281 0.930 . S
H269 C282 0.930 . S
H270 C286 0.959 . S
H271 C286 0.959 . S
H272 C286 0.961 . S
H273 C287 0.960 . S
H274 C287 0.961 . S
H275 C287 0.959 . S
H276 C290 0.929 . S
H277 C291 0.931 . S
H278 C293 0.930 . S
C279 H267 0.930 . S
C279 C280 1.399 . S
C279 C284 1.399 . S
C280 C279 1.399 . S
C280 C281 1.376 . S
C281 H268 0.930 . S
C281 C280 1.376 . S
C281 C282 1.388 . S
C282 H269 0.930 . S
C282 C281 1.388 . S
C282 C283 1.390 . S
C283 C282 1.390 . S
C283 C284 1.394 . S
C283 C289 1.465 . S
C284 C279 1.399 . S
C284 C283 1.394 . S
C284 C285 1.516 . S
C285 C284 1.516 . S
C285 C286 1.502 . S
C285 C287 1.561 . S
C285 C288 1.526 . S
C286 H270 0.959 . S
C286 H271 0.959 . S
C286 H272 0.961 . S
C286 C285 1.502 . S
C287 H273 0.960 . S
C287 H274 0.961 . S
C287 H275 0.959 . S
C287 C285 1.561 . S
C288 C285 1.526 . S
C288 C289 1.396 . S
C288 C293 1.390 . S
C289 C283 1.465 . S
C289 C288 1.396 . S
C289 C290 1.399 . S
C290 H276 0.929 . S
C290 C289 1.399 . S
C290 C291 1.385 . S
C291 H277 0.931 . S
C291 C290 1.385 . S
C291 C292 1.389 . S
C292 C291 1.389 . S
C292 C293 1.387 . S
C293 H278 0.930 . S
C293 C288 1.390 . S
C293 C292 1.387 . S
H294 C306 0.930 . S
H295 C308 0.930 . S
H296 C309 0.930 . S
H297 C313 0.959 . S
H298 C313 0.959 . S
H299 C313 0.961 . S
H300 C314 0.960 . S
H301 C314 0.961 . S
H302 C314 0.959 . S
H303 C317 0.929 . S
H304 C318 0.931 . S
H305 C320 0.930 . S
C306 H294 0.930 . S
C306 C307 1.399 . S
C306 C311 1.399 . S
C307 C306 1.399 . S
C307 C308 1.376 . S
C308 H295 0.930 . S
C308 C307 1.376 . S
C308 C309 1.388 . S
C309 H296 0.930 . S
C309 C308 1.388 . S
C309 C310 1.390 . S
C310 C309 1.390 . S
C310 C311 1.394 . S
C310 C316 1.465 . S
C311 C306 1.399 . S
C311 C310 1.394 . S
C311 C312 1.516 . S
C312 C311 1.516 . S
C312 C313 1.502 . S
C312 C314 1.561 . S
C312 C315 1.526 . S
C313 H297 0.959 . S
C313 H298 0.959 . S
C313 H299 0.961 . S
C313 C312 1.502 . S
C314 H300 0.960 . S
C314 H301 0.961 . S
C314 H302 0.959 . S
C314 C312 1.561 . S
C315 C312 1.526 . S
C315 C316 1.396 . S
C315 C320 1.390 . S
C316 C310 1.465 . S
C316 C315 1.396 . S
C316 C317 1.399 . S
C317 H303 0.929 . S
C317 C316 1.399 . S
C317 C318 1.385 . S
C318 H304 0.931 . S
C318 C317 1.385 . S
C318 C319 1.389 . S
C319 C318 1.389 . S
C319 C320 1.387 . S
C320 H305 0.930 . S
C320 C315 1.390 . S
C320 C319 1.387 . S
H321 C333 0.930 . S
H322 C335 0.930 . S
H323 C336 0.930 . S
H324 C340 0.959 . S
H325 C340 0.959 . S
H326 C340 0.961 . S
H327 C341 0.960 . S
H328 C341 0.961 1_655 S
H329 C341 0.959 . S
H330 C344 0.929 . S
H331 C345 0.931 . S
H332 C347 0.930 1_655 S
C333 H321 0.930 . S
C333 C334 1.399 . S
C333 C338 1.399 . S
C334 C333 1.399 . S
C334 C335 1.376 . S
C335 H322 0.930 . S
C335 C334 1.376 . S
C335 C336 1.388 . S
C336 H323 0.930 . S
C336 C335 1.388 . S
C336 C337 1.390 . S
C337 C336 1.390 . S
C337 C338 1.394 . S
C337 C343 1.465 . S
C338 C333 1.399 . S
C338 C337 1.394 . S
C338 C339 1.516 . S
C339 C338 1.516 . S
C339 C340 1.502 1_455 S
C339 C341 1.561 . S
C339 C342 1.526 . S
C340 H324 0.959 . S
C340 H325 0.959 . S
C340 H326 0.961 . S
C340 C339 1.502 1_655 S
C341 H327 0.960 . S
C341 H328 0.961 1_455 S
C341 H329 0.959 . S
C341 C339 1.561 . S
C342 C339 1.526 . S
C342 C343 1.396 . S
C342 C347 1.390 . S
C343 C337 1.465 . S
C343 C342 1.396 . S
C343 C344 1.399 . S
C344 H330 0.929 . S
C344 C343 1.399 . S
C344 C345 1.385 . S
C345 H331 0.931 . S
C345 C344 1.385 . S
C345 C346 1.389 . S
C346 C345 1.389 . S
C346 C347 1.387 . S
C347 H332 0.930 1_455 S
C347 C342 1.390 . S
C347 C346 1.387 . S
H348 C360 0.929 1_554 S
H349 C362 0.930 . S
H350 C363 0.930 . S
H351 C367 0.959 . S
H352 C367 0.959 . S
H353 C367 0.961 . S
H354 C368 0.960 . S
H355 C368 0.961 1_556 S
H356 C368 0.959 . S
H357 C371 0.929 . S
H358 C372 0.931 . S
H359 C374 0.930 . S
C360 H348 0.929 1_556 S
C360 C361 1.397 1_546 S
C360 C365 1.402 . S
C361 C360 1.397 1_564 S
C361 C362 1.376 . S
C362 H349 0.930 . S
C362 C361 1.376 . S
C362 C363 1.388 1_554 S
C363 H350 0.930 . S
C363 C362 1.388 1_556 S
C363 C364 1.390 . S
C364 C363 1.390 . S
C364 C365 1.394 1_565 S
C364 C370 1.465 . S
C365 C360 1.402 . S
C365 C364 1.394 1_545 S
C365 C366 1.516 . S
C366 C365 1.516 . S
C366 C367 1.502 . S
C366 C368 1.561 1_556 S
C366 C369 1.526 . S
C367 H351 0.959 . S
C367 H352 0.959 . S
C367 H353 0.961 . S
C367 C366 1.502 . S
C368 H354 0.960 . S
C368 H355 0.961 1_554 S
C368 H356 0.959 . S
C368 C366 1.561 1_554 S
C369 C366 1.526 . S
C369 C370 1.396 1_545 S
C369 C374 1.390 . S
C370 C364 1.465 . S
C370 C369 1.396 1_565 S
C370 C371 1.399 . S
C371 H357 0.929 . S
C371 C370 1.399 . S
C371 C372 1.385 . S
C372 H358 0.931 . S
C372 C371 1.385 . S
C372 C373 1.362 1_565 S
C373 C372 1.362 1_545 S
C373 C374 1.410 . S
C374 H359 0.930 . S
C374 C369 1.390 . S
C374 C373 1.410 . S
H375 C387 0.930 . S
H376 C389 0.930 . S
H377 C390 0.930 . S
H378 C394 0.959 . S
H379 C394 0.959 . S
H380 C394 0.961 . S
H381 C395 0.960 . S
H382 C395 0.961 . S
H383 C395 0.959 . S
H384 C398 0.929 . S
H385 C399 0.931 . S
H386 C401 0.930 . S
C387 H375 0.930 . S
C387 C388 1.399 . S
C387 C392 1.399 . S
C388 C387 1.399 . S
C388 C389 1.376 1_554 S
C389 H376 0.930 . S
C389 C388 1.376 1_556 S
C389 C390 1.388 . S
C390 H377 0.930 . S
C390 C389 1.388 . S
C390 C391 1.390 . S
C391 C390 1.390 . S
C391 C392 1.394 1_556 S
C391 C397 1.465 . S
C392 C387 1.399 . S
C392 C391 1.394 1_554 S
C392 C393 1.516 . S
C393 C392 1.516 . S
C393 C394 1.502 . S
C393 C395 1.561 . S
C393 C396 1.526 1_554 S
C394 H378 0.959 . S
C394 H379 0.959 . S
C394 H380 0.961 . S
C394 C393 1.502 . S
C395 H381 0.960 . S
C395 H382 0.961 . S
C395 H383 0.959 . S
C395 C393 1.561 . S
C396 C393 1.526 1_556 S
C396 C397 1.396 . S
C396 C401 1.390 . S
C397 C391 1.465 . S
C397 C396 1.396 . S
C397 C398 1.399 . S
C398 H384 0.929 . S
C398 C397 1.399 . S
C398 C399 1.385 . S
C399 H385 0.931 . S
C399 C398 1.385 . S
C399 C400 1.389 . S
C400 C399 1.389 . S
C400 C401 1.387 . S
C401 H386 0.930 . S
C401 C396 1.390 . S
C401 C400 1.387 . S
H402 C414 0.930 . S
H403 C416 0.930 . S
H404 C417 0.930 . S
H405 C421 0.959 . S
H406 C421 0.959 . S
H407 C421 0.961 . S
H408 C422 0.960 1_554 S
H409 C422 0.961 . S
H410 C422 0.959 . S
H411 C425 0.929 . S
H412 C426 0.931 . S
H413 C428 0.930 . S
C414 H402 0.930 . S
C414 C415 1.399 . S
C414 C419 1.399 . S
C415 C414 1.399 . S
C415 C416 1.376 . S
C416 H403 0.930 . S
C416 C415 1.376 . S
C416 C417 1.388 1_554 S
C417 H404 0.930 . S
C417 C416 1.388 1_556 S
C417 C418 1.390 . S
C418 C417 1.390 . S
C418 C419 1.394 1_556 S
C418 C424 1.465 . S
C419 C414 1.399 . S
C419 C418 1.394 1_554 S
C419 C420 1.516 . S
C420 C419 1.516 . S
C420 C421 1.502 . S
C420 C422 1.561 1_554 S
C420 C423 1.526 1_554 S
C421 H405 0.959 . S
C421 H406 0.959 . S
C421 H407 0.961 . S
C421 C420 1.502 . S
C422 H408 0.960 1_556 S
C422 H409 0.961 . S
C422 H410 0.959 . S
C422 C420 1.561 1_556 S
C423 C420 1.526 1_556 S
C423 C424 1.396 . S
C423 C428 1.390 . S
C424 C418 1.465 . S
C424 C423 1.396 . S
C424 C425 1.399 . S
C425 H411 0.929 . S
C425 C424 1.399 . S
C425 C426 1.385 . S
C426 H412 0.931 . S
C426 C425 1.385 . S
C426 C427 1.389 . S
C427 C426 1.389 . S
C427 C428 1.387 . S
C428 H413 0.930 . S
C428 C423 1.390 . S
C428 C427 1.387 . S
H429 C441 0.930 1_554 S
H430 C443 0.914 1_455 S
H431 C444 0.930 . S
H432 C448 0.959 . S
H433 C448 0.959 . S
H434 C448 0.961 . S
H435 C449 0.960 . S
H436 C449 0.961 . S
H437 C449 0.959 . S
H438 C452 0.929 . S
H439 C453 0.931 . S
H440 C455 0.930 . S
C441 H429 0.930 1_556 S
C441 C442 1.399 . S
C441 C446 1.399 . S
C442 C441 1.399 . S
C442 C443 1.376 . S
C443 H430 0.914 1_655 S
C443 C442 1.376 . S
C443 C444 1.388 1_655 S
C444 H431 0.930 . S
C444 C443 1.388 1_455 S
C444 C445 1.390 1_455 S
C445 C444 1.390 1_655 S
C445 C446 1.394 . S
C445 C451 1.465 . S
C446 C441 1.399 . S
C446 C445 1.394 . S
C446 C447 1.516 . S
C447 C446 1.516 . S
C447 C448 1.502 1_556 S
C447 C449 1.561 . S
C447 C450 1.526 . S
C448 H432 0.959 . S
C448 H433 0.959 . S
C448 H434 0.961 . S
C448 C447 1.502 1_554 S
C449 H435 0.960 . S
C449 H436 0.961 . S
C449 H437 0.959 . S
C449 C447 1.561 . S
C450 C447 1.526 . S
C450 C451 1.396 . S
C450 C455 1.390 . S
C451 C445 1.465 . S
C451 C450 1.396 . S
C451 C452 1.399 1_655 S
C452 H438 0.929 . S
C452 C451 1.399 1_455 S
C452 C453 1.385 . S
C453 H439 0.931 . S
C453 C452 1.385 . S
C453 C454 1.389 1_455 S
C454 C453 1.389 1_655 S
C454 C455 1.387 . S
C455 H440 0.930 . S
C455 C450 1.390 . S
C455 C454 1.387 . S
H456 C468 0.930 . S
H457 C470 0.930 . S
H458 C471 0.930 . S
H459 C475 0.959 . S
H460 C475 0.959 . S
H461 C475 0.961 1_455 S
H462 C476 0.960 . S
H463 C476 0.961 . S
H464 C476 0.959 . S
H465 C479 0.929 . S
H466 C480 0.931 . S
H467 C482 0.930 . S
C468 H456 0.930 . S
C468 C469 1.399 . S
C468 C473 1.399 . S
C469 C468 1.399 . S
C469 C470 1.376 . S
C470 H457 0.930 . S
C470 C469 1.376 . S
C470 C471 1.388 . S
C471 H458 0.930 . S
C471 C470 1.388 . S
C471 C472 1.390 . S
C472 C471 1.390 . S
C472 C473 1.394 . S
C472 C478 1.465 . S
C473 C468 1.399 . S
C473 C472 1.394 . S
C473 C474 1.516 . S
C474 C473 1.516 . S
C474 C475 1.502 1_455 S
C474 C476 1.561 . S
C474 C477 1.526 . S
C475 H459 0.959 . S
C475 H460 0.959 . S
C475 H461 0.961 1_655 S
C475 C474 1.502 1_655 S
C476 H462 0.960 . S
C476 H463 0.961 . S
C476 H464 0.959 . S
C476 C474 1.561 . S
C477 C474 1.526 . S
C477 C478 1.396 . S
C477 C482 1.390 . S
C478 C472 1.465 . S
C478 C477 1.396 . S
C478 C479 1.399 . S
C479 H465 0.929 . S
C479 C478 1.399 . S
C479 C480 1.385 . S
C480 H466 0.931 . S
C480 C479 1.385 . S
C480 C481 1.389 . S
C481 C480 1.389 . S
C481 C482 1.387 . S
C482 H467 0.930 . S
C482 C477 1.390 . S
C482 C481 1.387 . S
H483 C495 0.930 . S
H484 C497 0.930 . S
H485 C498 0.930 . S
H486 C502 0.959 . S
H487 C502 0.959 . S
H488 C502 0.961 . S
H489 C503 0.960 . S
H490 C503 0.961 . S
H491 C503 0.959 . S
H492 C506 0.929 . S
H493 C507 0.931 . S
H494 C509 0.930 . S
C495 H483 0.930 . S
C495 C496 1.399 1_545 S
C495 C500 1.399 . S
C496 C495 1.399 1_565 S
C496 C497 1.376 . S
C497 H484 0.930 . S
C497 C496 1.376 . S
C497 C498 1.388 . S
C498 H485 0.930 . S
C498 C497 1.388 . S
C498 C499 1.390 . S
C499 C498 1.390 . S
C499 C500 1.394 1_565 S
C499 C505 1.465 . S
C500 C495 1.399 . S
C500 C499 1.394 1_545 S
C500 C501 1.516 . S
C501 C500 1.516 . S
C501 C502 1.502 . S
C501 C503 1.561 . S
C501 C504 1.526 . S
C502 H486 0.959 . S
C502 H487 0.959 . S
C502 H488 0.961 . S
C502 C501 1.502 . S
C503 H489 0.960 . S
C503 H490 0.961 . S
C503 H491 0.959 . S
C503 C501 1.561 . S
C504 C501 1.526 . S
C504 C505 1.396 1_545 S
C504 C509 1.390 . S
C505 C499 1.465 . S
C505 C504 1.396 1_565 S
C505 C506 1.399 . S
C506 H492 0.929 . S
C506 C505 1.399 . S
C506 C507 1.385 . S
C507 H493 0.931 . S
C507 C506 1.385 . S
C507 C508 1.389 . S
C508 C507 1.389 . S
C508 C509 1.387 1_565 S
C509 H494 0.930 . S
C509 C504 1.390 . S
C509 C508 1.387 1_545 S
H510 C522 0.930 . S
H511 C524 0.930 . S
H512 C525 0.930 . S
H513 C529 0.959 . S
H514 C529 0.959 . S
H515 C529 0.961 . S
H516 C530 0.960 . S
H517 C530 0.961 . S
H518 C530 0.959 . S
H519 C533 0.929 . S
H520 C534 0.931 . S
H521 C536 0.930 . S
C522 H510 0.930 . S
C522 C523 1.399 . S
C522 C527 1.399 . S
C523 C522 1.399 . S
C523 C524 1.376 . S
C524 H511 0.930 . S
C524 C523 1.376 . S
C524 C525 1.388 . S
C525 H512 0.930 . S
C525 C524 1.388 . S
C525 C526 1.390 . S
C526 C525 1.390 . S
C526 C527 1.394 . S
C526 C532 1.465 . S
C527 C522 1.399 . S
C527 C526 1.394 . S
C527 C528 1.516 . S
C528 C527 1.516 . S
C528 C529 1.502 . S
C528 C530 1.561 . S
C528 C531 1.526 . S
C529 H513 0.959 . S
C529 H514 0.959 . S
C529 H515 0.961 . S
C529 C528 1.502 . S
C530 H516 0.960 . S
C530 H517 0.961 . S
C530 H518 0.959 . S
C530 C528 1.561 . S
C531 C528 1.526 . S
C531 C532 1.396 . S
C531 C536 1.390 . S
C532 C526 1.465 . S
C532 C531 1.396 . S
C532 C533 1.399 . S
C533 H519 0.929 . S
C533 C532 1.399 . S
C533 C534 1.385 . S
C534 H520 0.931 . S
C534 C533 1.385 . S
C534 C535 1.389 . S
C535 C534 1.389 . S
C535 C536 1.387 . S
C536 H521 0.930 . S
C536 C531 1.390 . S
C536 C535 1.387 . S
H537 C549 0.930 . S
H538 C551 0.930 . S
H539 C552 0.930 . S
H540 C556 0.959 . S
H541 C556 0.959 . S
H542 C556 0.961 . S
H543 C557 0.960 . S
H544 C557 0.961 . S
H545 C557 0.959 . S
H546 C560 0.929 . S
H547 C561 0.931 . S
H548 C563 0.930 . S
C549 H537 0.930 . S
C549 C550 1.399 . S
C549 C554 1.399 . S
C550 C549 1.399 . S
C550 C551 1.376 . S
C551 H538 0.930 . S
C551 C550 1.376 . S
C551 C552 1.388 . S
C552 H539 0.930 . S
C552 C551 1.388 . S
C552 C553 1.390 . S
C553 C552 1.390 . S
C553 C554 1.394 . S
C553 C559 1.465 . S
C554 C549 1.399 . S
C554 C553 1.394 . S
C554 C555 1.516 . S
C555 C554 1.516 . S
C555 C556 1.502 . S
C555 C557 1.561 . S
C555 C558 1.526 . S
C556 H540 0.959 . S
C556 H541 0.959 . S
C556 H542 0.961 . S
C556 C555 1.502 . S
C557 H543 0.960 . S
C557 H544 0.961 . S
C557 H545 0.959 . S
C557 C555 1.561 . S
C558 C555 1.526 . S
C558 C559 1.396 . S
C558 C563 1.390 . S
C559 C553 1.465 . S
C559 C558 1.396 . S
C559 C560 1.399 . S
C560 H546 0.929 . S
C560 C559 1.399 . S
C560 C561 1.385 . S
C561 H547 0.931 . S
C561 C560 1.385 . S
C561 C562 1.389 . S
C562 C561 1.389 . S
C562 C563 1.387 . S
C563 H548 0.930 . S
C563 C558 1.390 . S
C563 C562 1.387 . S
H564 C576 0.930 . S
H565 C578 0.930 . S
H566 C579 0.930 . S
H567 C583 0.959 . S
H568 C583 0.959 . S
H569 C583 0.961 . S
H570 C584 0.960 . S
H571 C584 0.961 . S
H572 C584 0.959 . S
H573 C587 0.929 1_554 S
H574 C588 0.931 . S
H575 C590 0.930 . S
C576 H564 0.930 . S
C576 C577 1.399 . S
C576 C581 1.399 . S
C577 C576 1.399 . S
C577 C578 1.376 1_556 S
C578 H565 0.930 . S
C578 C577 1.376 1_554 S
C578 C579 1.388 . S
C579 H566 0.930 . S
C579 C578 1.388 . S
C579 C580 1.390 1_554 S
C580 C579 1.390 1_556 S
C580 C581 1.394 . S
C580 C586 1.465 . S
C581 C576 1.399 . S
C581 C580 1.394 . S
C581 C582 1.516 . S
C582 C581 1.516 . S
C582 C583 1.502 1_655 S
C582 C584 1.561 . S
C582 C585 1.526 . S
C583 H567 0.959 . S
C583 H568 0.959 . S
C583 H569 0.961 . S
C583 C582 1.502 1_455 S
C584 H570 0.960 . S
C584 H571 0.961 . S
C584 H572 0.959 . S
C584 C582 1.561 . S
C585 C582 1.526 . S
C585 C586 1.396 . S
C585 C590 1.390 1_655 S
C586 C580 1.465 . S
C586 C585 1.396 . S
C586 C587 1.399 . S
C587 H573 0.929 1_556 S
C587 C586 1.399 . S
C587 C588 1.385 . S
C588 H574 0.931 . S
C588 C587 1.385 . S
C588 C589 1.389 1_655 S
C589 C588 1.389 1_455 S
C589 C590 1.387 . S
C590 H575 0.930 . S
C590 C585 1.390 1_455 S
C590 C589 1.387 . S
H591 C603 0.930 . S
H592 C605 0.930 . S
H593 C606 0.930 . S
H594 C610 0.959 . S
H595 C610 0.959 . S
H596 C610 0.961 . S
H597 C611 0.960 . S
H598 C611 0.961 . S
H599 C611 0.959 . S
H600 C614 0.929 . S
H601 C615 0.931 . S
H602 C617 0.930 . S
C603 H591 0.930 . S
C603 C604 1.399 1_545 S
C603 C608 1.399 1_554 S
C604 C603 1.399 1_565 S
C604 C605 1.376 1_554 S
C605 H592 0.930 . S
C605 C604 1.376 1_556 S
C605 C606 1.388 . S
C606 H593 0.930 . S
C606 C605 1.388 . S
C606 C607 1.390 . S
C607 C606 1.390 . S
C607 C608 1.394 1_565 S
C607 C613 1.465 . S
C608 C603 1.399 1_556 S
C608 C607 1.394 1_545 S
C608 C609 1.516 . S
C609 C608 1.516 . S
C609 C610 1.502 1_556 S
C609 C611 1.561 . S
C609 C612 1.526 . S
C610 H594 0.959 . S
C610 H595 0.959 . S
C610 H596 0.961 . S
C610 C609 1.502 1_554 S
C611 H597 0.960 . S
C611 H598 0.961 . S
C611 H599 0.959 . S
C611 C609 1.561 . S
C612 C609 1.526 . S
C612 C613 1.396 1_545 S
C612 C617 1.390 . S
C613 C607 1.465 . S
C613 C612 1.396 1_565 S
C613 C614 1.399 . S
C614 H600 0.929 . S
C614 C613 1.399 . S
C614 C615 1.385 . S
C615 H601 0.931 . S
C615 C614 1.385 . S
C615 C616 1.389 1_565 S
C616 C615 1.389 1_545 S
C616 C617 1.387 . S
C617 H602 0.930 . S
C617 C612 1.390 . S
C617 C616 1.387 . S
H618 C630 0.930 . S
H619 C632 0.930 . S
H620 C633 0.930 . S
H621 C637 0.959 . S
H622 C637 0.959 . S
H623 C637 0.961 . S
H624 C638 0.960 . S
H625 C638 0.961 . S
H626 C638 0.959 . S
H627 C641 0.929 . S
H628 C642 0.931 . S
H629 C644 0.930 . S
C630 H618 0.930 . S
C630 C631 1.399 . S
C630 C635 1.399 . S
C631 C630 1.399 . S
C631 C632 1.376 1_554 S
C632 H619 0.930 . S
C632 C631 1.376 1_556 S
C632 C633 1.388 . S
C633 H620 0.930 . S
C633 C632 1.388 . S
C633 C634 1.390 . S
C634 C633 1.390 . S
C634 C635 1.394 1_556 S
C634 C640 1.465 . S
C635 C630 1.399 . S
C635 C634 1.394 1_554 S
C635 C636 1.516 . S
C636 C635 1.516 . S
C636 C637 1.502 . S
C636 C638 1.561 . S
C636 C639 1.526 1_554 S
C637 H621 0.959 . S
C637 H622 0.959 . S
C637 H623 0.961 . S
C637 C636 1.502 . S
C638 H624 0.960 . S
C638 H625 0.961 . S
C638 H626 0.959 . S
C638 C636 1.561 . S
C639 C636 1.526 1_556 S
C639 C640 1.396 . S
C639 C644 1.390 . S
C640 C634 1.465 . S
C640 C639 1.396 . S
C640 C641 1.399 . S
C641 H627 0.929 . S
C641 C640 1.399 . S
C641 C642 1.385 . S
C642 H628 0.931 . S
C642 C641 1.385 . S
C642 C643 1.389 . S
C643 C642 1.389 . S
C643 C644 1.387 . S
C644 H629 0.930 . S
C644 C639 1.390 . S
C644 C643 1.387 . S
H645 C657 0.930 . S
H646 C659 0.930 . S
H647 C660 0.930 1_556 S
H648 C664 0.959 . S
H649 C664 0.959 . S
H650 C664 0.961 . S
H651 C665 0.960 1_554 S
H652 C665 0.961 . S
H653 C665 0.959 . S
H654 C668 0.929 . S
H655 C669 0.931 . S
H656 C671 0.930 . S
C657 H645 0.930 . S
C657 C658 1.399 . S
C657 C662 1.399 . S
C658 C657 1.399 . S
C658 C659 1.376 . S
C659 H646 0.930 . S
C659 C658 1.376 . S
C659 C660 1.388 . S
C660 H647 0.930 1_554 S
C660 C659 1.388 . S
C660 C661 1.390 1_554 S
C661 C660 1.390 1_556 S
C661 C662 1.394 1_556 S
C661 C667 1.465 . S
C662 C657 1.399 . S
C662 C661 1.394 1_554 S
C662 C663 1.516 . S
C663 C662 1.516 . S
C663 C664 1.502 . S
C663 C665 1.561 1_554 S
C663 C666 1.526 1_554 S
C664 H648 0.959 . S
C664 H649 0.959 . S
C664 H650 0.961 . S
C664 C663 1.502 . S
C665 H651 0.960 1_556 S
C665 H652 0.961 . S
C665 H653 0.959 . S
C665 C663 1.561 1_556 S
C666 C663 1.526 1_556 S
C666 C667 1.396 . S
C666 C671 1.390 . S
C667 C661 1.465 . S
C667 C666 1.396 . S
C667 C668 1.399 . S
C668 H654 0.929 . S
C668 C667 1.399 . S
C668 C669 1.385 . S
C669 H655 0.931 . S
C669 C668 1.385 . S
C669 C670 1.389 . S
C670 C669 1.389 . S
C670 C671 1.387 . S
C671 H656 0.930 . S
C671 C666 1.390 . S
C671 C670 1.387 . S
H672 C684 0.930 . S
H673 C686 0.930 . S
H674 C687 0.930 . S
H675 C691 0.959 1_655 S
H676 C691 0.971 . S
H677 C691 0.961 . S
H678 C692 0.960 . S
H679 C692 0.961 . S
H680 C692 0.959 . S
H681 C695 0.929 . S
H682 C696 0.931 . S
H683 C698 0.930 . S
C684 H672 0.930 . S
C684 C685 1.399 . S
C684 C689 1.399 . S
C685 C684 1.399 . S
C685 C686 1.376 . S
C686 H673 0.930 . S
C686 C685 1.376 . S
C686 C687 1.388 . S
C687 H674 0.930 . S
C687 C686 1.388 . S
C687 C688 1.390 . S
C688 C687 1.390 . S
C688 C689 1.394 . S
C688 C694 1.465 . S
C689 C684 1.399 . S
C689 C688 1.394 . S
C689 C690 1.516 . S
C690 C689 1.516 . S
C690 C691 1.502 . S
C690 C692 1.561 . S
C690 C693 1.526 . S
C691 H675 0.959 1_455 S
C691 H676 0.971 . S
C691 H677 0.961 . S
C691 C690 1.502 . S
C692 H678 0.960 . S
C692 H679 0.961 . S
C692 H680 0.959 . S
C692 C690 1.561 . S
C693 C690 1.526 . S
C693 C694 1.396 . S
C693 C698 1.390 . S
C694 C688 1.465 . S
C694 C693 1.396 . S
C694 C695 1.399 . S
C695 H681 0.929 . S
C695 C694 1.399 . S
C695 C696 1.385 . S
C696 H682 0.931 . S
C696 C695 1.385 . S
C696 C697 1.389 . S
C697 C696 1.389 . S
C697 C698 1.387 . S
C698 H683 0.930 . S
C698 C693 1.390 . S
C698 C697 1.387 . S
H699 C711 0.930 . S
H700 C713 0.930 . S
H701 C714 0.930 . S
H702 C718 0.959 . S
H703 C718 0.959 . S
H704 C718 0.961 . S
H705 C719 0.960 . S
H706 C719 0.961 . S
H707 C719 0.959 . S
H708 C722 0.929 . S
H709 C723 0.931 . S
H710 C725 0.930 . S
C711 H699 0.930 . S
C711 C712 1.399 1_565 S
C711 C716 1.399 . S
C712 C711 1.399 1_545 S
C712 C713 1.376 . S
C713 H700 0.930 . S
C713 C712 1.376 . S
C713 C714 1.388 . S
C714 H701 0.930 . S
C714 C713 1.388 . S
C714 C715 1.390 . S
C715 C714 1.390 . S
C715 C716 1.394 1_545 S
C715 C721 1.465 . S
C716 C711 1.399 . S
C716 C715 1.394 1_565 S
C716 C717 1.516 . S
C717 C716 1.516 . S
C717 C718 1.502 . S
C717 C719 1.561 . S
C717 C720 1.526 . S
C718 H702 0.959 . S
C718 H703 0.959 . S
C718 H704 0.961 . S
C718 C717 1.502 . S
C719 H705 0.960 . S
C719 H706 0.961 . S
C719 H707 0.959 . S
C719 C717 1.561 . S
C720 C717 1.526 . S
C720 C721 1.396 1_565 S
C720 C725 1.390 . S
C721 C715 1.465 . S
C721 C720 1.396 1_545 S
C721 C722 1.399 1_554 S
C722 H708 0.929 . S
C722 C721 1.399 1_556 S
C722 C723 1.385 . S
C723 H709 0.931 . S
C723 C722 1.385 . S
C723 C724 1.389 . S
C724 C723 1.389 . S
C724 C725 1.387 1_546 S
C725 H710 0.930 . S
C725 C720 1.390 . S
C725 C724 1.387 1_564 S
H726 C738 0.930 . S
H727 C740 0.930 . S
H728 C741 0.930 . S
H729 C745 0.959 . S
H730 C745 0.959 . S
H731 C745 0.961 . S
H732 C746 0.960 . S
H733 C746 0.961 . S
H734 C746 0.959 . S
H735 C749 0.929 . S
H736 C750 0.931 . S
H737 C752 0.930 . S
C738 H726 0.930 . S
C738 C739 1.399 . S
C738 C743 1.399 . S
C739 C738 1.399 . S
C739 C740 1.376 . S
C740 H727 0.930 . S
C740 C739 1.376 . S
C740 C741 1.388 . S
C741 H728 0.930 . S
C741 C740 1.388 . S
C741 C742 1.390 . S
C742 C741 1.390 . S
C742 C743 1.394 . S
C742 C748 1.465 . S
C743 C738 1.399 . S
C743 C742 1.394 . S
C743 C744 1.516 . S
C744 C743 1.516 . S
C744 C745 1.502 . S
C744 C746 1.561 . S
C744 C747 1.526 . S
C745 H729 0.959 . S
C745 H730 0.959 . S
C745 H731 0.961 . S
C745 C744 1.502 . S
C746 H732 0.960 . S
C746 H733 0.961 . S
C746 H734 0.959 . S
C746 C744 1.561 . S
C747 C744 1.526 . S
C747 C748 1.396 . S
C747 C752 1.390 . S
C748 C742 1.465 . S
C748 C747 1.396 . S
C748 C749 1.399 1_554 S
C749 H735 0.929 . S
C749 C748 1.399 1_556 S
C749 C750 1.385 . S
C750 H736 0.931 . S
C750 C749 1.385 . S
C750 C751 1.389 . S
C751 C750 1.389 . S
C751 C752 1.387 1_556 S
C752 H737 0.930 . S
C752 C747 1.390 . S
C752 C751 1.387 1_554 S
H753 C765 0.930 . S
H754 C767 0.930 . S
H755 C768 0.930 . S
H756 C772 0.959 . S
H757 C772 0.959 . S
H758 C772 0.961 . S
H759 C773 0.960 1_554 S
H760 C773 0.961 . S
H761 C773 0.959 . S
H762 C776 0.929 . S
H763 C777 0.931 . S
H764 C779 0.930 . S
C765 H753 0.930 . S
C765 C766 1.399 . S
C765 C770 1.399 . S
C766 C765 1.399 . S
C766 C767 1.376 . S
C767 H754 0.930 . S
C767 C766 1.376 . S
C767 C768 1.388 . S
C768 H755 0.930 . S
C768 C767 1.388 . S
C768 C769 1.390 . S
C769 C768 1.390 . S
C769 C770 1.394 . S
C769 C775 1.465 . S
C770 C765 1.399 . S
C770 C769 1.394 . S
C770 C771 1.516 . S
C771 C770 1.516 . S
C771 C772 1.502 . S
C771 C773 1.561 1_554 S
C771 C774 1.526 1_554 S
C772 H756 0.959 . S
C772 H757 0.959 . S
C772 H758 0.961 . S
C772 C771 1.502 . S
C773 H759 0.960 1_556 S
C773 H760 0.961 . S
C773 H761 0.959 . S
C773 C771 1.561 1_556 S
C774 C771 1.526 1_556 S
C774 C775 1.396 1_556 S
C774 C779 1.390 . S
C775 C769 1.465 . S
C775 C774 1.396 1_554 S
C775 C776 1.399 1_554 S
C776 H762 0.929 . S
C776 C775 1.399 1_556 S
C776 C777 1.385 . S
C777 H763 0.931 . S
C777 C776 1.385 . S
C777 C778 1.389 . S
C778 C777 1.389 . S
C778 C779 1.387 . S
C779 H764 0.930 . S
C779 C774 1.390 . S
C779 C778 1.387 . S
H780 C792 0.930 . S
H781 C794 0.930 1_556 S
H782 C795 0.930 . S
H783 C799 0.959 . S
H784 C799 0.959 . S
H785 C799 0.961 . S
H786 C800 0.964 . S
H787 C800 0.961 . S
H788 C800 0.927 1_455 S
H789 C803 0.929 . S
H790 C804 0.931 . S
H791 C806 0.930 . S
C792 H780 0.930 . S
C792 C793 1.399 . S
C792 C797 1.399 . S
C793 C792 1.399 . S
C793 C794 1.376 . S
C794 H781 0.930 1_554 S
C794 C793 1.376 . S
C794 C795 1.388 . S
C795 H782 0.930 . S
C795 C794 1.388 . S
C795 C796 1.390 . S
C796 C795 1.390 . S
C796 C797 1.394 . S
C796 C802 1.465 . S
C797 C792 1.399 . S
C797 C796 1.394 . S
C797 C798 1.516 . S
C798 C797 1.516 . S
C798 C799 1.502 . S
C798 C800 1.594 . S
C798 C801 1.526 . S
C799 H783 0.959 . S
C799 H784 0.959 . S
C799 H785 0.961 . S
C799 C798 1.502 . S
C800 H786 0.964 . S
C800 H787 0.961 . S
C800 H788 0.927 1_655 S
C800 C798 1.594 . S
C801 C798 1.526 . S
C801 C802 1.396 . S
C801 C806 1.390 . S
C802 C796 1.465 . S
C802 C801 1.396 . S
C802 C803 1.399 . S
C803 H789 0.929 . S
C803 C802 1.399 . S
C803 C804 1.385 . S
C804 H790 0.931 . S
C804 C803 1.385 . S
C804 C805 1.389 . S
C805 C804 1.389 . S
C805 C806 1.387 . S
C806 H791 0.930 . S
C806 C801 1.390 . S
C806 C805 1.387 . S
H807 C819 0.930 . S
H808 C821 0.930 . S
H809 C822 0.930 . S
H810 C826 0.959 . S
H811 C826 0.959 . S
H812 C826 0.961 . S
H813 C827 0.960 . S
H814 C827 0.961 . S
H815 C827 0.959 . S
H816 C830 0.929 . S
H817 C831 0.931 . S
H818 C833 0.930 . S
C819 H807 0.930 . S
C819 C820 1.399 1_545 S
C819 C824 1.399 . S
C820 C819 1.399 1_565 S
C820 C821 1.376 . S
C821 H808 0.930 . S
C821 C820 1.376 . S
C821 C822 1.388 . S
C822 H809 0.930 . S
C822 C821 1.388 . S
C822 C823 1.390 . S
C823 C822 1.390 . S
C823 C824 1.394 1_565 S
C823 C829 1.465 . S
C824 C819 1.399 . S
C824 C823 1.394 1_545 S
C824 C825 1.516 . S
C825 C824 1.516 . S
C825 C826 1.502 . S
C825 C827 1.561 . S
C825 C828 1.526 . S
C826 H810 0.959 . S
C826 H811 0.959 . S
C826 H812 0.961 . S
C826 C825 1.502 . S
C827 H813 0.960 . S
C827 H814 0.961 . S
C827 H815 0.959 . S
C827 C825 1.561 . S
C828 C825 1.526 . S
C828 C829 1.396 1_545 S
C828 C833 1.390 . S
C829 C823 1.465 . S
C829 C828 1.396 1_565 S
C829 C830 1.399 . S
C830 H816 0.929 . S
C830 C829 1.399 . S
C830 C831 1.385 . S
C831 H817 0.931 . S
C831 C830 1.385 . S
C831 C832 1.389 . S
C832 C831 1.389 . S
C832 C833 1.387 1_565 S
C833 H818 0.930 . S
C833 C828 1.390 . S
C833 C832 1.387 1_545 S
H834 C846 0.930 . S
H835 C848 0.930 . S
H836 C849 0.930 . S
H837 C853 0.959 . S
H838 C853 0.959 . S
H839 C853 0.961 . S
H840 C854 0.960 . S
H841 C854 0.961 . S
H842 C854 0.959 . S
H843 C857 0.929 . S
H844 C858 0.931 . S
H845 C860 0.930 . S
C846 H834 0.930 . S
C846 C847 1.399 . S
C846 C851 1.399 . S
C847 C846 1.399 . S
C847 C848 1.376 . S
C848 H835 0.930 . S
C848 C847 1.376 . S
C848 C849 1.388 . S
C849 H836 0.930 . S
C849 C848 1.388 . S
C849 C850 1.390 . S
C850 C849 1.390 . S
C850 C851 1.394 . S
C850 C856 1.465 . S
C851 C846 1.399 . S
C851 C850 1.394 . S
C851 C852 1.516 . S
C852 C851 1.516 . S
C852 C853 1.502 . S
C852 C854 1.561 . S
C852 C855 1.526 . S
C853 H837 0.959 . S
C853 H838 0.959 . S
C853 H839 0.961 . S
C853 C852 1.502 . S
C854 H840 0.960 . S
C854 H841 0.961 . S
C854 H842 0.959 . S
C854 C852 1.561 . S
C855 C852 1.526 . S
C855 C856 1.396 . S
C855 C860 1.390 . S
C856 C850 1.465 . S
C856 C855 1.396 . S
C856 C857 1.399 . S
C857 H843 0.929 . S
C857 C856 1.399 . S
C857 C858 1.385 . S
C858 H844 0.931 . S
C858 C857 1.385 . S
C858 C859 1.389 . S
C859 C858 1.389 . S
C859 C860 1.387 . S
C860 H845 0.930 . S
C860 C855 1.390 . S
C860 C859 1.387 . S
H861 C873 0.930 . S
H862 C875 0.930 . S
H863 C876 0.930 . S
H864 C880 0.959 . S
H865 C880 0.959 . S
H866 C880 0.961 . S
H867 C881 0.960 . S
H868 C881 0.961 . S
H869 C881 0.959 . S
H870 C884 0.929 . S
H871 C885 0.931 . S
H872 C887 0.930 . S
C873 H861 0.930 . S
C873 C874 1.399 . S
C873 C878 1.399 . S
C874 C873 1.399 . S
C874 C875 1.376 . S
C875 H862 0.930 . S
C875 C874 1.376 . S
C875 C876 1.388 . S
C876 H863 0.930 . S
C876 C875 1.388 . S
C876 C877 1.390 . S
C877 C876 1.390 . S
C877 C878 1.394 . S
C877 C883 1.465 . S
C878 C873 1.399 . S
C878 C877 1.394 . S
C878 C879 1.516 . S
C879 C878 1.516 . S
C879 C880 1.502 . S
C879 C881 1.561 . S
C879 C882 1.526 . S
C880 H864 0.959 . S
C880 H865 0.959 . S
C880 H866 0.961 . S
C880 C879 1.502 . S
C881 H867 0.960 . S
C881 H868 0.961 . S
C881 H869 0.959 . S
C881 C879 1.561 . S
C882 C879 1.526 . S
C882 C883 1.396 . S
C882 C887 1.390 . S
C883 C877 1.465 . S
C883 C882 1.396 . S
C883 C884 1.399 . S
C884 H870 0.929 . S
C884 C883 1.399 . S
C884 C885 1.385 . S
C885 H871 0.931 . S
C885 C884 1.385 . S
C885 C886 1.389 . S
C886 C885 1.389 . S
C886 C887 1.387 . S
C887 H872 0.930 . S
C887 C882 1.390 . S
C887 C886 1.387 . S
C253 N80 1.892 . S
C265 C121 1.886 . S
C292 C142 1.546 . S
C280 N93 1.510 . S
C319 C176 1.359 . S
C307 N54 1.389 . S
C346 C210 1.528 . S
C334 N67 1.539 . S
C373 C112 1.892 . S
C361 N28 1.887 . S
C388 N41 1.524 . S
C400 C151 1.553 . S
C415 N2 1.339 . S
C427 C185 1.393 . S
C442 N15 1.517 . S
C454 C219 1.537 1_655 S
C481 C133 0.424 . S
C469 N70 0.581 . S
C508 C138 1.001 . S
C496 N83 0.985 . S
C535 C172 0.925 . S
C523 N96 0.901 . S
C550 N57 0.456 . S
C562 C206 0.389 . S
C577 N18 0.521 . S
C589 C104 0.538 . S
C616 C167 0.975 . S
C604 N31 0.991 . S
C643 C201 0.914 . S
C631 N44 0.888 . S
C658 N5 0.397 . S
C670 C235 0.389 . S
C685 N66 1.333 . S
C697 C117 1.350 . S
C712 N79 1.751 1_545 S
C724 C146 1.746 . S
C751 C180 1.542 . S
C739 N92 1.544 . S
C778 C214 1.609 . S
C766 N53 1.610 . S
C793 N14 1.323 . S
C805 C108 1.351 . S
C832 C155 1.751 . S
C820 N27 1.728 . S
C859 C189 1.552 . S
C847 N40 1.549 . S
C874 N1 1.610 . S
C886 C223 1.602 . S
