# Generated by pormake.
# Topology tsx, (6,3)-cn, num edge types: 1
# Building blocks:
#     Node 0, Type 0, BuildingBlock: MIDCAF_clean_sbu_0, # of connection points: 6
#     Node 1, Type 0, BuildingBlock: MIDCAF_clean_sbu_0, # of connection points: 6
#     Node 2, Type 1, BuildingBlock: VETTIZ_charged_linker_0, # of connection points: 3
#     Node 3, Type 1, BuildingBlock: VETTIZ_charged_linker_0, # of connection points: 3
#     Node 4, Type 1, BuildingBlock: VETTIZ_charged_linker_0, # of connection points: 3
#     Node 5, Type 1, BuildingBlock: VETTIZ_charged_linker_0, # of connection points: 3
#     Edge 6, Type (0, 1), BuildingBlock: UVAHIK_clean_linker_0, # of connection points: 2
#     Edge 7, Type (0, 1), BuildingBlock: UVAHIK_clean_linker_0, # of connection points: 2
#     Edge 8, Type (0, 1), BuildingBlock: UVAHIK_clean_linker_0, # of connection points: 2
#     Edge 9, Type (0, 1), BuildingBlock: UVAHIK_clean_linker_0, # of connection points: 2
#     Edge 10, Type (0, 1), BuildingBlock: UVAHIK_clean_linker_0, # of connection points: 2
#     Edge 11, Type (0, 1), BuildingBlock: UVAHIK_clean_linker_0, # of connection points: 2
#     Edge 12, Type (0, 1), BuildingBlock: UVAHIK_clean_linker_0, # of connection points: 2
#     Edge 13, Type (0, 1), BuildingBlock: UVAHIK_clean_linker_0, # of connection points: 2
#     Edge 14, Type (0, 1), BuildingBlock: UVAHIK_clean_linker_0, # of connection points: 2
#     Edge 15, Type (0, 1), BuildingBlock: UVAHIK_clean_linker_0, # of connection points: 2
#     Edge 16, Type (0, 1), BuildingBlock: UVAHIK_clean_linker_0, # of connection points: 2
#     Edge 17, Type (0, 1), BuildingBlock: UVAHIK_clean_linker_0, # of connection points: 2
# Relax obj value: 0.121
# Max RMSD: 0.183
# Mean RMSD: 0.115
data_MOF--net-tsx--node1-MIDCAF_clean_sbu_0--node2-VETTIZ_charged_linker_0--edge1-UVAHIK_clean_linker_0
_symmetry_space_group_name_H-M    P1
_symmetry_Int_Tables_number       1
_symmetry_cell_setting            triclinic
loop_
_symmetry_equiv_pos_as_xyz
'x, y, z'
_cell_length_a     29.237108
_cell_length_b     30.613228
_cell_length_c     58.037031
_cell_angle_alpha  90.288622
_cell_angle_beta   94.764047
_cell_angle_gamma 89.870069
loop_
_atom_site_label
_atom_site_type_symbol
_atom_site_fract_x
_atom_site_fract_y
_atom_site_fract_z
_atom_type_partial_charge
Zn0 Zn 0.96345 0.02773 0.98061 0.0
Zn1 Zn 0.10912 0.02038 0.04018 0.0
Zn2 Zn 0.03626 0.02796 0.0103 0.0
C3 C 0.13281 0.07672 0.00506 0.0
C4 C 0.09086 0.93699 0.0242 0.0
O5 O 0.01044 0.95958 0.00519 0.0
O6 O 0.94581 0.96565 0.98285 0.0
C7 C 0.94471 0.08466 0.01646 0.0
O8 O 0.09201 0.06692 0.99641 0.0
O9 O 0.14856 0.06043 0.02403 0.0
O10 O 0.12008 0.95687 0.0376 0.0
O11 O 0.0568 0.95806 0.01387 0.0
O12 O 0.92828 0.07146 0.99688 0.0
O13 O 0.98392 0.07043 0.02521 0.0
O14 O 0.05854 0.05644 0.97805 0.0
O15 O 0.9963 0.04746 0.95404 0.0
C16 C 0.0377 0.05905 0.95764 0.0
O17 O 0.01674 0.05705 0.04317 0.0
O18 O 0.07846 0.04347 0.06687 0.0
C19 C 0.97377 0.94224 0.99509 0.0
C20 C 0.03807 0.05812 0.06352 0.0
Zn21 Zn 0.61524 0.51717 0.53769 0.0
Zn22 Zn 0.46906 0.53024 0.47972 0.0
Zn23 Zn 0.54153 0.52788 0.50945 0.0
C24 C 0.54279 0.56151 0.45691 0.0
C25 C 0.45083 0.58502 0.51669 0.0
O26 O 0.52478 0.55825 0.54255 0.0
O27 O 0.58828 0.54337 0.5646 0.0
C28 C 0.59235 0.43449 0.52344 0.0
O29 O 0.56385 0.55638 0.47712 0.0
O30 O 0.50078 0.55212 0.45332 0.0
O31 O 0.43403 0.5724 0.49706 0.0
O32 O 0.4903 0.57078 0.52506 0.0
O33 O 0.62292 0.45322 0.53653 0.0
O34 O 0.55952 0.457 0.51298 0.0
O35 O 0.59812 0.56558 0.49539 0.0
O36 O 0.657 0.55415 0.52117 0.0
C37 C 0.64018 0.57267 0.50302 0.0
O38 O 0.51366 0.46039 0.5038 0.0
O39 O 0.4509 0.46814 0.48021 0.0
C40 C 0.54833 0.5594 0.56234 0.0
C41 C 0.47751 0.44395 0.49275 0.0
C42 C 0.11063 0.93336 0.45467 0.0
C43 C 0.14641 0.90967 0.44558 0.0
C44 C 0.15154 0.91211 0.42167 0.0
C45 C 0.08572 0.96055 0.41632 0.0
C46 C 0.08104 0.95873 0.43982 0.0
C47 C 0.04212 0.98697 0.44673 0.0
H48 H 0.86169 0.11869 0.41424 0.0
C49 C 0.04935 0.98958 0.40566 0.0
C50 C 0.02379 0.00538 0.42348 0.0
H51 H 0.91172 0.08298 0.48393 0.0
H52 H 0.97193 0.03992 0.46891 0.0
H53 H 0.95618 0.14329 0.39961 0.0
H54 H 0.87708 0.02589 0.38957 0.0
H55 H 0.89963 0.03784 0.36316 0.0
H56 H 0.86227 0.07672 0.37553 0.0
H57 H 0.91227 0.13795 0.37633 0.0
H58 H 0.97098 0.12207 0.37312 0.0
C59 C 0.06228 0.02312 0.46335 0.0
C60 C 0.00665 0.95719 0.45726 0.0
C61 C 0.03238 0.01333 0.31816 0.0
C62 C 1.00249 0.03984 0.304 0.0
C63 C 0.96928 0.06521 0.31407 0.0
C64 C 0.96533 0.06407 0.3379 0.0
C65 C 0.99525 0.03756 0.35197 0.0
C66 C 0.02845 0.01308 0.34216 0.0
C67 C 0.05841 0.98854 0.36021 0.0
C68 C 0.03722 0.00199 0.38231 0.0
C69 C 1.00001 0.03032 0.37721 0.0
C70 C 0.10828 0.00535 0.35976 0.0
C71 C 0.05268 0.93909 0.35518 0.0
C72 C 0.8857 0.1022 0.42647 0.0
C73 C 0.88136 0.1046 0.45041 0.0
C74 C 0.91336 0.08142 0.46538 0.0
C75 C 0.94873 0.05667 0.45664 0.0
C76 C 0.95268 0.05526 0.43265 0.0
C77 C 0.92161 0.0782 0.41811 0.0
C78 C 0.93203 0.07525 0.39327 0.0
C79 C 0.97408 0.04603 0.39513 0.0
C80 C 0.98596 0.03397 0.41818 0.0
C81 C 0.94318 0.12191 0.38495 0.0
C82 C 0.89067 0.05305 0.37946 0.0
H83 H 0.12698 0.93739 0.38899 0.0
H84 H 0.10614 0.93263 0.47301 0.0
H85 H 1.00113 0.92679 0.44682 0.0
H86 H 0.97249 0.97245 0.45748 0.0
H87 H 0.01872 0.94757 0.47518 0.0
H88 H 0.09704 0.03304 0.45887 0.0
H89 H 0.06553 0.01165 0.48155 0.0
H90 H 0.04183 0.05353 0.46225 0.0
H91 H 0.05852 0.99388 0.31075 0.0
H92 H 0.94603 0.08575 0.30337 0.0
H93 H 0.939 0.08391 0.34439 0.0
H94 H 0.10877 0.04052 0.35503 0.0
H95 H 0.12705 0.98701 0.34693 0.0
H96 H 0.12789 0.00371 0.37685 0.0
H97 H 0.01599 0.93103 0.35048 0.0
H98 H 0.06315 0.91855 0.37027 0.0
H99 H 0.07251 0.92894 0.34053 0.0
H100 H 0.17853 0.8939 0.4142 0.0
C101 C 0.12139 0.93721 0.40702 0.0
C102 C 0.16894 0.09164 0.57264 0.0
C103 C 0.19722 0.12415 0.58349 0.0
C104 C 0.19557 0.13185 0.60734 0.0
C105 C 0.13827 0.07528 0.6093 0.0
C106 C 0.13938 0.06798 0.58583 0.0
C107 C 0.10511 0.03376 0.57706 0.0
H108 H 0.93526 0.89248 0.59889 0.0
C109 C 0.10412 0.04542 0.61804 0.0
C110 C 0.08422 0.02112 0.59926 0.0
H111 H 0.98854 0.92029 0.53328 0.0
H112 H 0.04336 0.97069 0.55198 0.0
H113 H 0.03228 0.88464 0.62637 0.0
H114 H 0.93924 0.99425 0.62016 0.0
H115 H 0.95781 0.98555 0.64956 0.0
H116 H 0.92623 0.94346 0.63355 0.0
H117 H 0.98354 0.8882 0.64314 0.0
H118 H 0.03786 0.91294 0.65282 0.0
C119 C 0.1317 0.99529 0.567 0.0
C120 C 0.06952 0.05571 0.55948 0.0
C121 C 0.08341 0.04411 0.70398 0.0
C122 C 0.05799 0.01768 0.71789 0.0
C123 C 0.02929 0.98504 0.70738 0.0
C124 C 0.02566 0.97917 0.68324 0.0
C125 C 0.05161 0.00575 0.66951 0.0
C126 C 0.08021 0.03722 0.68003 0.0
C127 C 0.1075 0.06062 0.66312 0.0
C128 C 0.0906 0.0382 0.64065 0.0
C129 C 0.05733 0.00655 0.64435 0.0
C130 C 0.15913 0.05149 0.6698 0.0
C131 C 0.0938 0.10959 0.66326 0.0
C132 C 0.9584 0.90991 0.58857 0.0
C133 C 0.95729 0.90278 0.56454 0.0
C134 C 0.98878 0.92519 0.55179 0.0
C135 C 0.02046 0.95458 0.56268 0.0
C136 C 0.02105 0.96156 0.58667 0.0
C137 C 0.99065 0.93907 0.59926 0.0
C138 C 0.99782 0.9491 0.62476 0.0
C139 C 0.03613 0.98267 0.62525 0.0
C140 C 0.04958 0.98986 0.60285 0.0
C141 C 0.01339 0.90664 0.63761 0.0
C142 C 0.95295 0.96898 0.63262 0.0
H143 H 0.16702 0.11508 0.63837 0.0
H144 H 0.16905 0.08554 0.55424 0.0
H145 H 0.06279 0.09003 0.56465 0.0
H146 H 0.03559 0.03977 0.55852 0.0
H147 H 0.082 0.05641 0.54193 0.0
H148 H 0.16439 0.98909 0.57772 0.0
H149 H 0.14041 0.00245 0.54913 0.0
H150 H 0.11281 0.9641 0.56693 0.0
H151 H 0.10635 0.06891 0.71166 0.0
H152 H 0.00944 0.96432 0.71785 0.0
H153 H 1.00302 0.95404 0.67619 0.0
H154 H 0.16434 0.01807 0.67701 0.0
H155 H 0.17348 0.07504 0.6831 0.0
H156 H 0.18019 0.05219 0.65487 0.0
H157 H 0.057 0.11364 0.66641 0.0
H158 H 0.0971 0.12571 0.64649 0.0
H159 H 0.11442 0.12781 0.67707 0.0
H160 H 0.21716 0.15664 0.61604 0.0
C161 C 0.16646 0.10759 0.62029 0.0
C162 C 0.61332 0.43981 0.95315 0.0
C163 C 0.64936 0.41623 0.94426 0.0
C164 C 0.65463 0.41825 0.92034 0.0
C165 C 0.58733 0.46472 0.91451 0.0
C166 C 0.58301 0.46391 0.93807 0.0
C167 C 0.54323 0.49123 0.94473 0.0
H168 H 0.35378 0.60961 0.91083 0.0
C169 C 0.54892 0.4909 0.90348 0.0
C170 C 0.52291 0.50648 0.92118 0.0
H171 H 0.414 0.5907 0.98079 0.0
H172 H 0.47353 0.54582 0.96633 0.0
H173 H 0.44664 0.63423 0.89222 0.0
H174 H 0.36977 0.515 0.89107 0.0
H175 H 0.39318 0.51749 0.86423 0.0
H176 H 0.3542 0.55978 0.87219 0.0
H177 H 0.39662 0.62535 0.87274 0.0
H178 H 0.45324 0.61049 0.86519 0.0
C179 C 0.56241 0.52979 0.96001 0.0
C180 C 0.50977 0.46139 0.95666 0.0
C181 C 0.52808 0.50903 0.81555 0.0
C182 C 0.49296 0.5285 0.80089 0.0
C183 C 0.455 0.54717 0.81069 0.0
C184 C 0.45206 0.5471 0.83459 0.0
C185 C 0.4874 0.52807 0.84907 0.0
C186 C 0.52431 0.5088 0.83958 0.0
C187 C 0.5572 0.48828 0.85791 0.0
C188 C 0.53463 0.49998 0.87989 0.0
C189 C 0.49399 0.52352 0.87445 0.0
C190 C 0.60453 0.51049 0.85719 0.0
C191 C 0.55769 0.43836 0.85349 0.0
C192 C 0.37985 0.59645 0.92323 0.0
C193 C 0.37881 0.60436 0.94708 0.0
C194 C 0.41323 0.58504 0.96234 0.0
C195 C 0.44824 0.55935 0.95389 0.0
C196 C 0.44937 0.55324 0.9299 0.0
C197 C 0.4156 0.57201 0.9151 0.0
C198 C 0.42367 0.56537 0.89014 0.0
C199 C 0.46792 0.53933 0.89228 0.0
C200 C 0.48257 0.53156 0.91555 0.0
C201 C 0.4301 0.61101 0.87929 0.0
C202 C 0.38312 0.5383 0.8786 0.0
H203 H 0.62946 0.44211 0.88742 0.0
H204 H 0.60889 0.43957 0.9715 0.0
H205 H 0.50368 0.43055 0.94667 0.0
H206 H 0.4757 0.47634 0.95785 0.0
H207 H 0.52403 0.45266 0.97438 0.0
H208 H 0.59759 0.53889 0.95581 0.0
H209 H 0.56433 0.52131 0.97865 0.0
H210 H 0.542 0.56001 0.95713 0.0
H211 H 0.55742 0.49397 0.80846 0.0
H212 H 0.42779 0.56272 0.79984 0.0
H213 H 0.42235 0.56223 0.84082 0.0
H214 H 0.60039 0.54631 0.85457 0.0
H215 H 0.62322 0.4973 0.84276 0.0
H216 H 0.62644 0.50702 0.8735 0.0
H217 H 0.52303 0.42654 0.84695 0.0
H218 H 0.56653 0.41932 0.86933 0.0
H219 H 0.58184 0.42966 0.84039 0.0
H220 H 0.68197 0.40027 0.91304 0.0
C221 C 0.62385 0.44225 0.90545 0.0
C222 C 0.67483 0.58021 0.07206 0.0
C223 C 0.70781 0.60845 0.08321 0.0
C224 C 0.70697 0.61603 0.10715 0.0
C225 C 0.64274 0.56675 0.1087 0.0
C226 C 0.64274 0.55965 0.08516 0.0
C227 C 0.6057 0.52795 0.07645 0.0
H228 H 0.42603 0.39952 0.09952 0.0
C229 C 0.6061 0.53992 0.11747 0.0
C230 C 0.5841 0.51697 0.09872 0.0
H231 H 0.48286 0.41849 0.0337 0.0
H232 H 0.53956 0.46726 0.05176 0.0
H233 H 0.5219 0.38528 0.12684 0.0
H234 H 0.43719 0.50059 0.11943 0.0
H235 H 0.45535 0.4926 0.14892 0.0
H236 H 0.42075 0.45168 0.1336 0.0
H237 H 0.47369 0.39311 0.14362 0.0
H238 H 0.52984 0.41428 0.15301 0.0
C239 C 0.62892 0.48761 0.06616 0.0
C240 C 0.57179 0.55233 0.05907 0.0
C241 C 0.58502 0.54275 0.20337 0.0
C242 C 0.55746 0.51874 0.21735 0.0
C243 C 0.5261 0.48817 0.20696 0.0
C244 C 0.52203 0.48194 0.18285 0.0
C245 C 0.55024 0.50598 0.16904 0.0
C246 C 0.58133 0.53545 0.17945 0.0
C247 C 0.61073 0.556 0.16249 0.0
C248 C 0.59208 0.53432 0.1401 0.0
C249 C 0.55621 0.50553 0.1439 0.0
C250 C 0.66143 0.54305 0.16934 0.0
C251 C 0.60123 0.60585 0.16236 0.0
C252 C 0.45076 0.41371 0.08888 0.0
C253 C 0.44908 0.405 0.06492 0.0
C254 C 0.48212 0.42506 0.052 0.0
C255 C 0.51551 0.45324 0.06258 0.0
C256 C 0.51655 0.46139 0.08647 0.0
C257 C 0.48478 0.44138 0.09924 0.0
C258 C 0.49252 0.45198 0.12465 0.0
C259 C 0.5332 0.48278 0.1249 0.0
C260 C 0.5471 0.48835 0.10245 0.0
C261 C 0.50484 0.4091 0.13788 0.0
C262 C 0.4492 0.47528 0.13225 0.0
H263 H 0.67631 0.60275 0.138 0.0
H264 H 0.67449 0.5737 0.05369 0.0
H265 H 0.56553 0.58612 0.06525 0.0
H266 H 0.5376 0.53698 0.05691 0.0
H267 H 0.58567 0.55476 0.04188 0.0
H268 H 0.66209 0.48003 0.07616 0.0
H269 H 0.63618 0.49341 0.04794 0.0
H270 H 0.60836 0.45753 0.06699 0.0
H271 H 0.61 0.56585 0.21098 0.0
H272 H 0.50458 0.46931 0.21752 0.0
H273 H 0.49734 0.45846 0.17589 0.0
H274 H 0.66377 0.51091 0.17824 0.0
H275 H 0.6787 0.56754 0.18126 0.0
H276 H 0.68168 0.53857 0.15424 0.0
H277 H 0.56434 0.61266 0.16429 0.0
H278 H 0.60818 0.62157 0.14592 0.0
H279 H 0.62159 0.62249 0.17683 0.0
H280 H 0.7311 0.63838 0.1161 0.0
C281 C 0.6748 0.59545 0.11988 0.0
C282 C 0.14007 0.15445 0.99395 0.0
C283 C 0.15943 0.11247 0.99577 0.0
C284 C 0.16845 0.19138 0.99469 0.0
C285 C 0.28693 0.23248 0.99253 0.0
H286 H 0.26325 0.29804 0.04771 0.0
C287 C 0.39613 0.38082 0.03038 0.0
C288 C 0.4136 0.37478 0.05356 0.0
C289 C 0.36316 0.3523 0.01983 0.0
C290 C 0.27001 0.28032 0.03214 0.0
H291 H 0.22297 0.07583 0.99737 0.0
H292 H 0.27237 0.14007 0.99745 0.0
H293 H 0.20787 0.24343 0.0322 0.0
H294 H 0.40994 0.33265 0.08341 0.0
H295 H 0.35097 0.28476 0.06534 0.0
H296 H 0.3496 0.26917 0.99281 0.0
C297 C 0.23549 0.14466 0.9958 0.0
C298 C 0.23817 0.24938 0.02314 0.0
C299 C 0.20722 0.10785 0.99563 0.0
C300 C 0.39678 0.33942 0.06581 0.0
C301 C 0.36315 0.31161 0.05542 0.0
C302 C 0.31837 0.26422 0.00127 0.0
C303 C 0.21652 0.18676 0.99668 0.0
C304 C 0.24674 0.22443 0.00354 0.0
C305 C 0.3461 0.31769 0.03233 0.0
C306 C 0.31069 0.28763 0.0215 0.0
H307 H 0.10339 0.1589 0.99447 0.0
H308 H 0.15296 0.2235 0.99525 0.0
H309 H 0.29449 0.21354 0.97749 0.0
H310 H 0.40732 0.40794 0.02038 0.0
H311 H 0.35034 0.35779 0.00203 0.0
C312 C 0.12657 0.86446 0.03364 0.0
C313 C 0.10071 0.89134 0.01786 0.0
C314 C 0.14702 0.82622 0.0261 0.0
C315 C 0.20673 0.79553 0.97896 0.0
H316 H 0.20508 0.67514 -0.00076 0.0
C317 C 0.32598 0.66923 0.94182 0.0
C318 C 0.34312 0.63414 0.95558 0.0
C319 C 0.29196 0.69674 0.94916 0.0
C320 C 0.20656 0.70874 0.99364 0.0
H321 H 0.07296 0.89765 0.98224 0.0
H322 H 0.11009 0.83142 0.96891 0.0
H323 H 0.14959 0.72747 0.01279 0.0
H324 H 0.33759 0.60136 0.98831 0.0
H325 H 0.28075 0.65139 0.0019 0.0
H326 H 0.26521 0.77878 0.96126 0.0
C327 C 0.11383 0.83971 0.98714 0.0
C328 C 0.17435 0.73846 0.0012 0.0
C329 C 0.09247 0.87743 0.99479 0.0
C330 C 0.32574 0.62814 0.97725 0.0
C331 C 0.29235 0.65651 0.98489 0.0
C332 C 0.23953 0.76633 0.97189 0.0
C333 C 0.14264 0.81478 0.00259 0.0
C334 C 0.17405 0.78197 0.99374 0.0
C335 C 0.2749 0.69126 0.97092 0.0
C336 C 0.23986 0.72233 0.97894 0.0
H337 H 0.1334 0.87446 0.05153 0.0
H338 H 0.16927 0.80758 0.03827 0.0
H339 H 0.20783 0.82925 0.97344 0.0
H340 H 0.33902 0.67603 0.9253 0.0
H341 H 0.27904 0.7223 0.93756 0.0
C342 C 0.97969 0.87421 0.01934 0.0
C343 C 0.96077 0.89644 -0.00032 0.0
C344 C 0.96071 0.83474 0.02601 0.0
C345 C 0.87343 0.74871 0.0076 0.0
H346 H 0.85954 0.74403 0.07338 0.0
C347 C 0.73105 0.65089 0.04895 0.0
C348 C 0.74294 0.63081 0.07035 0.0
C349 C 0.76306 0.67663 0.03851 0.0
C350 C 0.86364 0.74438 0.055 0.0
H351 H 0.90879 0.89305 0.97081 0.0
H352 H 0.87495 0.82545 0.98269 0.0
H353 H 0.90754 0.80001 0.05845 0.0
H354 H 0.79879 0.61912 0.09661 0.0
H355 H 0.85425 0.66411 0.07854 0.0
H356 H 0.82753 0.69397 0.00427 0.0
C357 C 0.90495 0.83779 0.99286 0.0
C358 C 0.89145 0.77645 0.0464 0.0
C359 C 0.9242 0.87692 0.98609 0.0
C360 C 0.78819 0.63501 0.0804 0.0
C361 C 0.82001 0.66075 0.07004 0.0
C362 C 0.84519 0.7168 0.01622 0.0
C363 C 0.92191 0.81687 0.01333 0.0
C364 C 0.89635 0.77948 0.02255 0.0
C365 C 0.80752 0.68279 0.0493 0.0
C366 C 0.83964 0.71458 0.04001 0.0
H367 H 0.00737 0.88848 0.03044 0.0
H368 H 0.97534 0.81915 0.04162 0.0
H369 H 0.87685 0.74955 0.98918 0.0
H370 H 0.69644 0.64845 0.04082 0.0
H371 H 0.75232 0.69339 0.02258 0.0
C372 C 0.93825 0.16393 0.02309 0.0
C373 C 0.92124 0.12186 0.02647 0.0
C374 C 0.90863 0.20003 0.02205 0.0
C375 C 0.78446 0.21971 0.0066 0.0
H376 H 0.82144 0.34115 0.01124 0.0
C377 C 0.66206 0.35948 0.97527 0.0
C378 C 0.68032 0.38822 0.95959 0.0
C379 C 0.69065 0.33047 0.98832 0.0
C380 C 0.81064 0.30735 0.00992 0.0
H381 H 0.86146 0.08483 0.03392 0.0
H382 H 0.81052 0.14798 0.0342 0.0
H383 H 0.87261 0.28459 0.02829 0.0
H384 H 0.74313 0.41042 0.94612 0.0
H385 H 0.79318 0.36 0.96914 0.0
H386 H 0.72257 0.2426 0.98825 0.0
C387 C 0.84609 0.15327 0.03113 0.0
C388 C 0.84001 0.27481 0.01962 0.0
C389 C 0.87549 0.11708 0.03155 0.0
C390 C 0.72803 0.38842 0.95792 0.0
C391 C 0.75671 0.35984 0.97124 0.0
C392 C 0.75491 0.25223 0.99729 0.0
C393 C 0.86145 0.19478 0.02473 0.0
C394 C 0.82783 0.23032 0.01766 0.0
C395 C 0.73824 0.32997 0.98627 0.0
C396 C 0.76801 0.29631 -0.00161 0.0
H397 H 0.97319 0.16826 0.01858 0.0
H398 H 0.92213 0.23112 0.01702 0.0
H399 H 0.77389 0.18606 0.00406 0.0
H400 H 0.62543 0.35835 0.97684 0.0
H401 H 0.67546 0.30795 -0.00017 0.0
C402 C 0.65181 0.65156 0.4968 0.0
C403 C 0.66706 0.60851 0.4941 0.0
C404 C 0.68317 0.68621 0.49814 0.0
C405 C 0.80822 0.70143 0.51434 0.0
H406 H 0.77717 0.82402 0.50711 0.0
C407 C 0.93883 0.83975 0.53754 0.0
C408 C 0.92398 0.87159 0.5528 0.0
C409 C 0.9078 0.80966 0.52689 0.0
C410 C 0.78624 0.78986 0.50919 0.0
H411 H 0.72565 0.56817 0.48808 0.0
H412 H 0.77967 0.62869 0.48817 0.0
H413 H 0.72295 0.7685 0.49156 0.0
H414 H 0.86481 0.89763 0.56838 0.0
H415 H 0.81029 0.84535 0.54941 0.0
H416 H 0.87174 0.72305 0.53167 0.0
C417 C 0.74416 0.63591 0.49066 0.0
C418 C 0.75512 0.75791 0.50036 0.0
C419 C 0.71305 0.60119 0.49003 0.0
C420 C 0.87724 0.87325 0.55682 0.0
C421 C 0.84603 0.84362 0.54583 0.0
C422 C 0.83954 0.7333 0.52271 0.0
C423 C 0.73034 0.67853 0.49632 0.0
C424 C 0.76529 0.71309 0.50312 0.0
C425 C 0.86108 0.81123 0.53094 0.0
C426 C 0.82865 0.77782 0.52057 0.0
H427 H 0.61664 0.65791 0.50046 0.0
H428 H 0.67076 0.71825 0.50256 0.0
H429 H 0.81726 0.66758 0.51754 0.0
H430 H 0.97467 0.83756 0.5342 0.0
H431 H 0.92032 0.78508 0.51547 0.0
C432 C 0.59826 0.37525 0.49437 0.0
C433 C 0.5995 0.38818 0.51762 0.0
C434 C 0.6192 0.33616 0.48825 0.0
C435 C 0.71122 0.26129 0.51321 0.0
H436 H 0.68988 0.20475 0.4534 0.0
C437 C 0.82351 0.11991 0.47966 0.0
C438 C 0.84412 0.13178 0.45949 0.0
C439 C 0.78837 0.14547 0.48783 0.0
C440 C 0.69592 0.22009 0.47024 0.0
H441 H 0.61845 0.36852 0.55286 0.0
H442 H 0.65139 0.29872 0.54248 0.0
H443 H 0.63317 0.25624 0.46616 0.0
H444 H 0.8441 0.18124 0.43267 0.0
H445 H 0.78151 0.22395 0.44629 0.0
H446 H 0.77374 0.22425 0.51721 0.0
C447 C 0.63704 0.31963 0.52873 0.0
C448 C 0.66367 0.24993 0.47753 0.0
C449 C 0.6174 0.3593 0.53477 0.0
C450 C 0.82844 0.16995 0.4478 0.0
C451 C 0.79267 0.19475 0.45565 0.0
C452 C 0.7428 0.23069 0.50613 0.0
C453 C 0.64081 0.30867 0.50534 0.0
C454 C 0.67139 0.27198 0.49888 0.0
C455 C 0.77239 0.18282 0.47572 0.0
C456 C 0.736 0.21068 0.48437 0.0
H457 H 0.58505 0.39721 0.48081 0.0
H458 H 0.62129 0.32945 0.47006 0.0
H459 H 0.71943 0.27795 0.5295 0.0
H460 H 0.83399 0.09059 0.48903 0.0
H461 H 0.77323 0.13576 0.50342 0.0
C462 C 0.42983 0.37889 0.48106 0.0
C463 C 0.46294 0.39847 0.49675 0.0
C464 C 0.4066 0.34144 0.48714 0.0
C465 C 0.40055 0.25276 0.53002 0.0
H466 H 0.26942 0.27385 0.5204 0.0
C467 C 0.22628 0.19677 0.57198 0.0
C468 C 0.22781 0.15104 0.57022 0.0
C469 C 0.25658 0.22256 0.56062 0.0
C470 C 0.30591 0.26736 0.5231 0.0
H471 H 0.50034 0.39188 0.5304 0.0
H472 H 0.45984 0.32611 0.54099 0.0
H473 H 0.32264 0.32428 0.50442 0.0
H474 H 0.26205 0.09629 0.55526 0.0
H475 H 0.31602 0.1417 0.53556 0.0
H476 H 0.38328 0.19609 0.5492 0.0
C477 C 0.45196 0.3398 0.52395 0.0
C478 C 0.33644 0.29601 0.51378 0.0
C479 C 0.47531 0.37744 0.51784 0.0
C480 C 0.26007 0.13152 0.55673 0.0
C481 C 0.29106 0.1574 0.54566 0.0
C482 C 0.36982 0.22364 0.53912 0.0
C483 C 0.41586 0.32269 0.50907 0.0
C484 C 0.38413 0.28944 0.51737 0.0
C485 C 0.28956 0.20319 0.54752 0.0
C486 C 0.32223 0.23117 0.53608 0.0
H487 H 0.41987 0.39401 0.46456 0.0
H488 H 0.37964 0.32846 0.47511 0.0
H489 H 0.43709 0.24685 0.53305 0.0
H490 H 0.20164 0.2126 0.58223 0.0
H491 H 0.25485 0.25774 0.56248 0.0
C492 C 0.44276 0.66407 0.52338 0.0
C493 C 0.42716 0.62163 0.52715 0.0
C494 C 0.41211 0.6994 0.52245 0.0
C495 C 0.3414 0.7724 0.52031 0.0
H496 H 0.2241 0.73694 0.48995 0.0
C497 C 0.22559 0.88297 0.45893 0.0
C498 C 0.17793 0.88187 0.46075 0.0
C499 C 0.25503 0.85494 0.47216 0.0
C500 C 0.25639 0.74747 0.49872 0.0
H501 H 0.36886 0.58324 0.5354 0.0
H502 H 0.31618 0.64508 0.53581 0.0
H503 H 0.27737 0.68187 0.50571 0.0
H504 H 0.12393 0.85096 0.47818 0.0
H505 H 0.17535 0.80139 0.50104 0.0
H506 H 0.3208 0.83814 0.51174 0.0
C507 C 0.35142 0.65123 0.53239 0.0
C508 C 0.28707 0.7158 0.50799 0.0
C509 C 0.38185 0.6158 0.53276 0.0
C510 C 0.1605 0.85271 0.47647 0.0
C511 C 0.18989 0.8242 0.48946 0.0
C512 C 0.31088 0.80408 0.51066 0.0
C513 C 0.36528 0.69301 0.52561 0.0
C514 C 0.33044 0.7276 0.51865 0.0
C515 C 0.23745 0.8247 0.48729 0.0
C516 C 0.26829 0.79188 0.49947 0.0
H517 H 0.47728 0.66922 0.51845 0.0
H518 H 0.42449 0.73074 0.51711 0.0
H519 H 0.37394 0.78309 0.52868 0.0
H520 H 0.24008 0.90532 0.4471 0.0
H521 H 0.29144 0.85587 0.46995 0.0
C522 C 0.97955 0.04411 0.09112 0.0
C523 C 0.0149 0.07062 0.0841 0.0
C524 C 0.96904 0.04443 0.11424 0.0
C525 C 0.98313 0.1019 0.17014 0.0
H526 H 0.00853 0.9874 0.19654 0.0
C527 C 0.01935 0.08031 0.26855 0.0
C528 C 0.00512 0.04177 0.27873 0.0
C529 C 0.01691 0.08433 0.24449 0.0
C530 C 1.00036 0.01946 0.18957 0.0
H531 H 0.0644 0.12055 0.09496 0.0
H532 H 0.0443 0.12295 0.13503 0.0
H533 H 1.00361 -0.00341 0.15478 0.0
H534 H 0.97697 0.9773 0.27211 0.0
H535 H 0.97106 0.98447 0.23005 0.0
H536 H 0.9791 0.12494 0.20473 0.0
C537 C 0.02512 0.10157 0.12285 0.0
C538 C 0.99758 0.02467 0.16556 0.0
C539 C 0.03643 0.10043 0.09992 0.0
C540 C 0.98883 0.00705 0.26453 0.0
C541 C 0.98555 0.0113 0.24043 0.0
C542 C 0.98499 0.09659 0.19415 0.0
C543 C 0.99302 0.07201 0.13048 0.0
C544 C 0.98965 0.06603 0.15564 0.0
C545 C 0.99913 0.05021 0.23002 0.0
C546 C 0.99455 0.05542 0.20429 0.0
H547 H 0.96323 0.0202 0.07932 0.0
H548 H 0.94405 0.02143 0.11971 0.0
H549 H 0.97694 0.13413 0.1629 0.0
H550 H 0.03185 0.10755 0.27926 0.0
H551 H 0.02887 0.11436 0.2373 0.0
C552 C 0.09627 0.04007 0.93072 0.0
C553 C 0.06233 0.06906 0.93722 0.0
C554 C 0.10732 0.03826 0.90769 0.0
C555 C 0.09812 0.09169 0.85099 0.0
H556 H 0.06112 0.97804 0.82634 0.0
C557 C 0.05516 0.06503 0.75303 0.0
C558 C 0.06251 0.0238 0.74333 0.0
C559 C 0.06103 0.07137 0.77698 0.0
C560 C 0.07268 0.00971 0.83278 0.0
H561 H 0.01624 0.12127 0.92556 0.0
H562 H 0.03744 0.11986 0.88566 0.0
H563 H 0.06771 0.99019 0.86789 0.0
H564 H 0.08265 0.95704 0.75086 0.0
H565 H 0.09504 0.96819 0.79254 0.0
H566 H 0.10393 0.11131 0.81607 0.0
C567 C 0.05504 0.09818 0.89817 0.0
C568 C 0.07635 0.01663 0.8567 0.0
C569 C 0.04311 0.09919 0.921 0.0
C570 C 0.07614 0.98902 0.75799 0.0
C571 C 0.08305 -0.00448 0.78192 0.0
C572 C 0.09549 0.08454 0.82705 0.0
C573 C 0.0854 0.06617 0.89105 0.0
C574 C 0.08831 0.05785 0.86601 0.0
C575 C 0.07548 0.03681 0.79185 0.0
C576 C 0.08174 0.04367 0.81751 0.0
H577 H 0.1108 0.01592 0.94281 0.0
H578 H 0.13089 0.01333 0.9026 0.0
H579 H 0.10738 0.12379 0.85777 0.0
H580 H 0.04441 0.09233 0.74205 0.0
H581 H 0.05364 0.10336 0.78378 0.0
C582 C 0.55855 0.59409 0.601 0.0
C583 C 0.52888 0.57489 0.58358 0.0
C584 C 0.54653 0.59638 0.62371 0.0
C585 C 0.47795 0.53396 0.662 0.0
H586 H 0.52519 0.61971 0.70725 0.0
C587 C 0.45682 0.52057 0.76039 0.0
C588 C 0.49549 0.53087 0.77547 0.0
C589 C 0.45697 0.52763 0.73662 0.0
C590 C 0.51207 0.59535 0.69482 0.0
H591 H 0.46162 0.54652 0.57575 0.0
H592 H 0.43997 0.55103 0.61567 0.0
H593 H 0.52686 0.63501 0.66612 0.0
H594 H 0.56503 0.55562 0.77742 0.0
H595 H 0.56541 0.56794 0.73575 0.0
H596 H 0.46344 0.49425 0.69082 0.0
C597 C 0.47298 0.56372 0.61177 0.0
C598 C 0.51283 0.60417 0.67124 0.0
C599 C 0.485 0.56173 0.58885 0.0
C600 C 0.53487 0.54714 0.76619 0.0
C601 C 0.53484 0.55467 0.7424 0.0
C602 C 0.47684 0.52531 0.68562 0.0
C603 C 0.50451 0.57931 0.62963 0.0
C604 C 0.49673 0.57319 0.6545 0.0
C605 C 0.49564 0.54557 0.72739 0.0
C606 C 0.49478 0.55552 0.70229 0.0
H607 H 0.59265 0.60442 0.59737 0.0
H608 H 0.57188 0.60837 0.63688 0.0
H609 H 0.46597 0.50898 0.64969 0.0
H610 H 0.42606 0.50777 0.76707 0.0
H611 H 0.42624 0.52035 0.72555 0.0
C612 C 0.54882 0.60174 0.42034 0.0
C613 C 0.56762 0.57133 0.43652 0.0
C614 C 0.5606 0.60053 0.39749 0.0
C615 C 0.57894 0.51853 0.35611 0.0
H616 H 0.60912 0.61178 0.31516 0.0
C617 C 0.5751 0.48988 0.25739 0.0
C618 C 0.56263 0.52498 0.24275 0.0
C619 C 0.58285 0.4964 0.28129 0.0
C620 C 0.59993 0.58544 0.32623 0.0
H621 H 0.61545 0.51765 0.44206 0.0
H622 H 0.63518 0.51467 0.4018 0.0
H623 H 0.61391 0.62457 0.35686 0.0
H624 H 0.54756 0.59414 0.24141 0.0
H625 H 0.55812 0.60533 0.28311 0.0
H626 H 0.56153 0.48021 0.32589 0.0
C627 C 0.61207 0.53995 0.40694 0.0
C628 C 0.60335 0.59273 0.35016 0.0
C629 C 0.6012 0.54197 0.42999 0.0
C630 C 0.55731 0.56659 0.25241 0.0
C631 C 0.56398 0.57298 0.27633 0.0
C632 C 0.57445 0.51151 0.33221 0.0
C633 C 0.5904 0.56808 0.39033 0.0
C634 C 0.59263 0.5594 0.3653 0.0
C635 C 0.57729 0.53807 0.29119 0.0
C636 C 0.58442 0.54497 0.31683 0.0
H637 H 0.52228 0.62417 0.42493 0.0
H638 H 0.54322 0.62239 0.385 0.0
H639 H 0.56957 0.49254 0.36741 0.0
H640 H 0.58006 0.45759 0.25027 0.0
H641 H 0.59394 0.46876 0.29189 0.0
loop_
_geom_bond_atom_site_label_1
_geom_bond_atom_site_label_2
_geom_bond_distance
_geom_bond_site_symmetry_2
_ccdc_geom_bond_type
Zn0 O6 1.899 1_546 S
Zn0 O12 1.898 . S
Zn0 O15 1.905 1_545 S
Zn1 O9 1.905 . S
Zn1 O10 1.898 1_545 S
Zn1 O18 1.920 1_545 S
Zn2 O5 2.080 1_445 S
Zn2 O8 2.114 . S
Zn2 O11 2.120 1_545 S
Zn2 O13 2.120 1_455 S
Zn2 O14 2.114 1_554 S
Zn2 O17 2.080 . S
C3 O8 1.166 . S
C3 O9 1.182 . S
C4 O10 1.167 . S
C4 O11 1.299 . S
O5 Zn2 2.080 1_665 S
O5 C19 1.305 . S
O6 Zn0 1.899 1_564 S
O6 C19 1.250 . S
C7 O12 1.169 . S
C7 O13 1.297 1_556 S
O8 Zn2 2.114 . S
O8 C3 1.166 . S
O9 Zn1 1.905 . S
O9 C3 1.182 . S
O10 Zn1 1.898 1_565 S
O10 C4 1.167 . S
O11 Zn2 2.120 1_565 S
O11 C4 1.299 . S
O12 Zn0 1.898 . S
O12 C7 1.169 . S
O13 Zn2 2.120 1_655 S
O13 C7 1.297 1_554 S
O14 Zn2 2.114 1_556 S
O14 C16 1.166 1_545 S
O15 Zn0 1.905 1_565 S
O15 C16 1.182 1_655 S
C16 O14 1.166 1_565 S
C16 O15 1.182 1_455 S
O17 Zn2 2.080 . S
O17 C20 1.305 1_545 S
O18 Zn1 1.920 1_565 S
O18 C20 1.234 . S
C19 O5 1.305 . S
C19 O6 1.250 . S
C20 O17 1.305 1_565 S
C20 O18 1.234 . S
Zn21 O27 1.920 . S
Zn21 O33 1.898 . S
Zn21 O36 1.905 . S
Zn22 O30 1.905 . S
Zn22 O31 1.898 . S
Zn22 O39 1.920 . S
Zn23 O26 2.080 . S
Zn23 O29 2.114 . S
Zn23 O32 2.120 . S
Zn23 O34 2.120 . S
Zn23 O35 2.114 . S
Zn23 O38 2.080 . S
C24 O29 1.166 . S
C24 O30 1.182 . S
C25 O31 1.167 . S
C25 O32 1.299 . S
O26 Zn23 2.080 . S
O26 C40 1.305 . S
O27 Zn21 1.920 . S
O27 C40 1.234 . S
C28 O33 1.167 . S
C28 O34 1.299 . S
O29 Zn23 2.114 . S
O29 C24 1.166 . S
O30 Zn22 1.905 . S
O30 C24 1.182 . S
O31 Zn22 1.898 . S
O31 C25 1.167 . S
O32 Zn23 2.120 . S
O32 C25 1.299 . S
O33 Zn21 1.898 . S
O33 C28 1.167 . S
O34 Zn23 2.120 . S
O34 C28 1.299 . S
O35 Zn23 2.114 . S
O35 C37 1.166 . S
O36 Zn21 1.905 . S
O36 C37 1.182 . S
C37 O35 1.166 . S
C37 O36 1.182 . S
O38 Zn23 2.080 . S
O38 C41 1.305 . S
O39 Zn22 1.920 . S
O39 C41 1.234 . S
C40 O26 1.305 . S
C40 O27 1.234 . S
C41 O38 1.305 . S
C41 O39 1.234 . S
C42 C43 1.391 . S
C42 C46 1.391 . S
C42 H84 0.948 . S
C43 C42 1.391 . S
C43 C44 1.391 . S
C44 C43 1.391 . S
C44 H100 0.947 . S
C44 C101 1.392 . S
C45 C46 1.391 . S
C45 C49 1.397 1_565 S
C45 C101 1.419 . S
C46 C42 1.391 . S
C46 C45 1.391 . S
C46 C47 1.389 1_565 S
C47 C46 1.389 1_545 S
C47 C50 1.404 . S
C47 C59 1.464 . S
C47 C60 1.680 1_545 S
H48 C72 0.948 . S
C49 C45 1.397 1_545 S
C49 C50 1.394 . S
C49 C68 1.723 . S
C50 C47 1.404 . S
C50 C49 1.394 . S
C50 C80 1.723 . S
H51 C74 0.947 . S
H52 C75 0.948 . S
H53 C81 0.982 . S
H54 C82 0.979 . S
H55 C82 0.980 . S
H56 C82 0.983 . S
H57 C81 0.979 1_655 S
H58 C81 0.977 . S
C59 C47 1.464 . S
C59 H88 0.982 . S
C59 H89 0.979 . S
C59 H90 0.977 . S
C60 C47 1.680 1_565 S
C60 H85 0.979 . S
C60 H86 0.980 1_565 S
C60 H87 0.983 . S
C61 C62 1.391 . S
C61 C66 1.391 . S
C61 H91 0.948 1_545 S
C62 C61 1.391 . S
C62 C63 1.391 . S
C63 C62 1.391 . S
C63 C64 1.392 . S
C63 H92 0.947 . S
C64 C63 1.392 . S
C64 C65 1.419 . S
C64 H93 0.948 . S
C65 C64 1.419 . S
C65 C66 1.391 . S
C65 C69 1.397 . S
C66 C61 1.391 . S
C66 C65 1.391 . S
C66 C67 1.399 1_545 S
C67 C66 1.399 1_565 S
C67 C68 1.396 1_565 S
C67 C70 1.453 . S
C67 C71 1.684 . S
C68 C49 1.723 . S
C68 C67 1.396 1_545 S
C68 C69 1.394 . S
C69 C65 1.397 . S
C69 C68 1.394 . S
C69 C79 1.723 . S
C70 C67 1.453 . S
C70 H94 0.982 1_565 S
C70 H95 0.979 . S
C70 H96 0.977 . S
C71 C67 1.684 . S
C71 H97 0.979 . S
C71 H98 0.980 . S
C71 H99 0.983 . S
C72 H48 0.948 . S
C72 C73 1.391 . S
C72 C77 1.391 . S
C73 C72 1.391 . S
C73 C74 1.391 . S
C74 H51 0.947 . S
C74 C73 1.391 . S
C74 C75 1.392 1_655 S
C75 H52 0.948 . S
C75 C74 1.392 1_455 S
C75 C76 1.419 . S
C76 C75 1.419 . S
C76 C77 1.391 1_455 S
C76 C80 1.397 . S
C77 C72 1.391 . S
C77 C76 1.391 1_655 S
C77 C78 1.399 . S
C78 C77 1.399 . S
C78 C79 1.396 1_655 S
C78 C81 1.453 1_655 S
C78 C82 1.684 . S
C79 C69 1.723 . S
C79 C78 1.396 1_455 S
C79 C80 1.394 . S
C80 C50 1.723 . S
C80 C76 1.397 . S
C80 C79 1.394 . S
C81 H53 0.982 . S
C81 H57 0.979 1_455 S
C81 H58 0.977 . S
C81 C78 1.453 1_455 S
C82 H54 0.979 . S
C82 H55 0.980 . S
C82 H56 0.983 . S
C82 C78 1.684 . S
H83 C101 0.948 . S
H84 C42 0.948 . S
H85 C60 0.979 . S
H86 C60 0.980 1_545 S
H87 C60 0.983 . S
H88 C59 0.982 . S
H89 C59 0.979 . S
H90 C59 0.977 . S
H91 C61 0.948 1_565 S
H92 C63 0.947 . S
H93 C64 0.948 . S
H94 C70 0.982 1_545 S
H95 C70 0.979 . S
H96 C70 0.977 . S
H97 C71 0.979 . S
H98 C71 0.980 . S
H99 C71 0.983 . S
H100 C44 0.947 . S
C101 C44 1.392 . S
C101 C45 1.419 . S
C101 H83 0.948 . S
C102 C103 1.391 . S
C102 C106 1.391 . S
C102 H144 0.948 . S
C103 C102 1.391 . S
C103 C104 1.391 . S
C104 C103 1.391 . S
C104 H160 0.947 . S
C104 C161 1.392 . S
C105 C106 1.391 . S
C105 C109 1.397 . S
C105 C161 1.419 . S
C106 C102 1.391 . S
C106 C105 1.391 . S
C106 C107 1.399 . S
C107 C106 1.399 . S
C107 C110 1.396 . S
C107 C119 1.453 . S
C107 C120 1.684 1_455 S
H108 C132 0.948 . S
C109 C105 1.397 . S
C109 C110 1.394 . S
C109 C128 1.723 . S
C110 C107 1.396 . S
C110 C109 1.394 . S
C110 C140 1.723 1_455 S
H111 C134 0.947 . S
H112 C135 0.948 . S
H113 C141 0.982 . S
H114 C142 0.979 . S
H115 C142 0.980 . S
H116 C142 0.983 . S
H117 C141 0.979 . S
H118 C141 0.977 . S
C119 C107 1.453 . S
C119 H148 0.982 . S
C119 H149 0.979 . S
C119 H150 0.977 . S
C120 C107 1.684 1_655 S
C120 H145 0.979 . S
C120 H146 0.980 . S
C120 H147 0.983 1_655 S
C121 C122 1.391 1_455 S
C121 C126 1.391 . S
C121 H151 0.948 . S
C122 C121 1.391 1_655 S
C122 C123 1.404 . S
C123 C122 1.404 . S
C123 C124 1.391 1_545 S
C123 H152 0.936 1_545 S
C124 C123 1.391 1_565 S
C124 C125 1.419 1_565 S
C124 H153 0.948 . S
C125 C124 1.419 1_545 S
C125 C126 1.391 1_655 S
C125 C129 1.397 . S
C126 C121 1.391 . S
C126 C125 1.391 1_455 S
C126 C127 1.399 . S
C127 C126 1.399 . S
C127 C128 1.396 . S
C127 C130 1.453 . S
C127 C131 1.684 . S
C128 C109 1.723 . S
C128 C127 1.396 . S
C128 C129 1.394 1_455 S
C129 C125 1.397 . S
C129 C128 1.394 1_655 S
C129 C139 1.723 1_545 S
C130 C127 1.453 . S
C130 H154 0.982 . S
C130 H155 0.979 . S
C130 H156 0.977 . S
C131 C127 1.684 . S
C131 H157 0.979 . S
C131 H158 0.980 . S
C131 H159 0.983 . S
C132 H108 0.948 . S
C132 C133 1.391 . S
C132 C137 1.391 . S
C133 C132 1.391 . S
C133 C134 1.391 . S
C134 H111 0.947 . S
C134 C133 1.391 . S
C134 C135 1.392 . S
C135 H112 0.948 . S
C135 C134 1.392 . S
C135 C136 1.419 . S
C136 C135 1.419 . S
C136 C137 1.391 . S
C136 C140 1.397 1_565 S
C137 C132 1.391 . S
C137 C136 1.391 . S
C137 C138 1.399 . S
C138 C137 1.399 . S
C138 C139 1.396 . S
C138 C141 1.453 . S
C138 C142 1.684 . S
C139 C129 1.723 1_565 S
C139 C138 1.396 . S
C139 C140 1.394 1_565 S
C140 C110 1.723 1_655 S
C140 C136 1.397 1_545 S
C140 C139 1.394 1_545 S
C141 H113 0.982 . S
C141 H117 0.979 . S
C141 H118 0.977 . S
C141 C138 1.453 . S
C142 H114 0.979 . S
C142 H115 0.980 . S
C142 H116 0.983 . S
C142 C138 1.684 . S
H143 C161 0.948 . S
H144 C102 0.948 . S
H145 C120 0.979 . S
H146 C120 0.980 . S
H147 C120 0.983 1_455 S
H148 C119 0.982 . S
H149 C119 0.979 . S
H150 C119 0.977 . S
H151 C121 0.948 . S
H152 C123 0.936 1_565 S
H153 C124 0.948 . S
H154 C130 0.982 . S
H155 C130 0.979 . S
H156 C130 0.977 . S
H157 C131 0.979 . S
H158 C131 0.980 . S
H159 C131 0.983 . S
H160 C104 0.947 . S
C161 C104 1.392 . S
C161 C105 1.419 . S
C161 H143 0.948 . S
C162 C163 1.391 . S
C162 C166 1.391 . S
C162 H204 0.948 . S
C163 C162 1.391 . S
C163 C164 1.391 . S
C164 C163 1.391 . S
C164 H220 0.947 . S
C164 C221 1.392 . S
C165 C166 1.391 . S
C165 C169 1.397 . S
C165 C221 1.419 . S
C166 C162 1.391 . S
C166 C165 1.391 . S
C166 C167 1.399 . S
C167 C166 1.399 . S
C167 C170 1.396 . S
C167 C179 1.453 . S
C167 C180 1.684 . S
H168 C192 0.948 . S
C169 C165 1.397 . S
C169 C170 1.394 . S
C169 C188 1.723 . S
C170 C167 1.396 . S
C170 C169 1.394 . S
C170 C200 1.723 . S
H171 C194 0.947 . S
H172 C195 0.948 . S
H173 C201 0.982 . S
H174 C202 0.979 . S
H175 C202 0.980 . S
H176 C202 0.983 . S
H177 C201 0.979 . S
H178 C201 0.977 . S
C179 C167 1.453 . S
C179 H208 0.982 . S
C179 H209 0.979 . S
C179 H210 0.977 . S
C180 C167 1.684 . S
C180 H205 0.979 . S
C180 H206 0.980 . S
C180 H207 0.983 . S
C181 C182 1.391 . S
C181 C186 1.391 . S
C181 H211 0.948 . S
C182 C181 1.391 . S
C182 C183 1.391 . S
C183 C182 1.391 . S
C183 C184 1.392 . S
C183 H212 0.947 . S
C184 C183 1.392 . S
C184 C185 1.419 . S
C184 H213 0.948 . S
C185 C184 1.419 . S
C185 C186 1.391 . S
C185 C189 1.397 . S
C186 C181 1.391 . S
C186 C185 1.391 . S
C186 C187 1.399 . S
C187 C186 1.399 . S
C187 C188 1.396 . S
C187 C190 1.453 . S
C187 C191 1.684 . S
C188 C169 1.723 . S
C188 C187 1.396 . S
C188 C189 1.394 . S
C189 C185 1.397 . S
C189 C188 1.394 . S
C189 C199 1.723 . S
C190 C187 1.453 . S
C190 H214 0.982 . S
C190 H215 0.979 . S
C190 H216 0.977 . S
C191 C187 1.684 . S
C191 H217 0.979 . S
C191 H218 0.980 . S
C191 H219 0.983 . S
C192 H168 0.948 . S
C192 C193 1.391 . S
C192 C197 1.391 . S
C193 C192 1.391 . S
C193 C194 1.391 . S
C194 H171 0.947 . S
C194 C193 1.391 . S
C194 C195 1.392 . S
C195 H172 0.948 . S
C195 C194 1.392 . S
C195 C196 1.419 . S
C196 C195 1.419 . S
C196 C197 1.391 . S
C196 C200 1.397 . S
C197 C192 1.391 . S
C197 C196 1.391 . S
C197 C198 1.399 . S
C198 C197 1.399 . S
C198 C199 1.396 . S
C198 C201 1.453 . S
C198 C202 1.684 . S
C199 C189 1.723 . S
C199 C198 1.396 . S
C199 C200 1.394 . S
C200 C170 1.723 . S
C200 C196 1.397 . S
C200 C199 1.394 . S
C201 H173 0.982 . S
C201 H177 0.979 . S
C201 H178 0.977 . S
C201 C198 1.453 . S
C202 H174 0.979 . S
C202 H175 0.980 . S
C202 H176 0.983 . S
C202 C198 1.684 . S
H203 C221 0.948 . S
H204 C162 0.948 . S
H205 C180 0.979 . S
H206 C180 0.980 . S
H207 C180 0.983 . S
H208 C179 0.982 . S
H209 C179 0.979 . S
H210 C179 0.977 . S
H211 C181 0.948 . S
H212 C183 0.947 . S
H213 C184 0.948 . S
H214 C190 0.982 . S
H215 C190 0.979 . S
H216 C190 0.977 . S
H217 C191 0.979 . S
H218 C191 0.980 . S
H219 C191 0.983 . S
H220 C164 0.947 . S
C221 C164 1.392 . S
C221 C165 1.419 . S
C221 H203 0.948 . S
C222 C223 1.391 . S
C222 C226 1.391 . S
C222 H264 0.948 . S
C223 C222 1.391 . S
C223 C224 1.391 . S
C224 C223 1.391 . S
C224 H280 0.947 . S
C224 C281 1.392 . S
C225 C226 1.391 . S
C225 C229 1.397 . S
C225 C281 1.419 . S
C226 C222 1.391 . S
C226 C225 1.391 . S
C226 C227 1.399 . S
C227 C226 1.399 . S
C227 C230 1.396 . S
C227 C239 1.453 . S
C227 C240 1.684 . S
H228 C252 0.948 . S
C229 C225 1.397 . S
C229 C230 1.394 . S
C229 C248 1.723 . S
C230 C227 1.396 . S
C230 C229 1.394 . S
C230 C260 1.723 . S
H231 C254 0.947 . S
H232 C255 0.948 . S
H233 C261 0.982 . S
H234 C262 0.979 . S
H235 C262 0.980 . S
H236 C262 0.983 . S
H237 C261 0.979 . S
H238 C261 0.977 . S
C239 C227 1.453 . S
C239 H268 0.982 . S
C239 H269 0.979 . S
C239 H270 0.977 . S
C240 C227 1.684 . S
C240 H265 0.979 . S
C240 H266 0.980 . S
C240 H267 0.983 . S
C241 C242 1.391 . S
C241 C246 1.391 . S
C241 H271 0.948 . S
C242 C241 1.391 . S
C242 C243 1.391 . S
C243 C242 1.391 . S
C243 C244 1.392 . S
C243 H272 0.947 . S
C244 C243 1.392 . S
C244 C245 1.419 . S
C244 H273 0.948 . S
C245 C244 1.419 . S
C245 C246 1.391 . S
C245 C249 1.397 . S
C246 C241 1.391 . S
C246 C245 1.391 . S
C246 C247 1.399 . S
C247 C246 1.399 . S
C247 C248 1.396 . S
C247 C250 1.453 . S
C247 C251 1.684 . S
C248 C229 1.723 . S
C248 C247 1.396 . S
C248 C249 1.394 . S
C249 C245 1.397 . S
C249 C248 1.394 . S
C249 C259 1.723 . S
C250 C247 1.453 . S
C250 H274 0.982 . S
C250 H275 0.979 . S
C250 H276 0.977 . S
C251 C247 1.684 . S
C251 H277 0.979 . S
C251 H278 0.980 . S
C251 H279 0.983 . S
C252 H228 0.948 . S
C252 C253 1.391 . S
C252 C257 1.391 . S
C253 C252 1.391 . S
C253 C254 1.391 . S
C254 H231 0.947 . S
C254 C253 1.391 . S
C254 C255 1.392 . S
C255 H232 0.948 . S
C255 C254 1.392 . S
C255 C256 1.419 . S
C256 C255 1.419 . S
C256 C257 1.391 . S
C256 C260 1.397 . S
C257 C252 1.391 . S
C257 C256 1.391 . S
C257 C258 1.399 . S
C258 C257 1.399 . S
C258 C259 1.396 . S
C258 C261 1.453 . S
C258 C262 1.684 . S
C259 C249 1.723 . S
C259 C258 1.396 . S
C259 C260 1.394 . S
C260 C230 1.723 . S
C260 C256 1.397 . S
C260 C259 1.394 . S
C261 H233 0.982 . S
C261 H237 0.979 . S
C261 H238 0.977 . S
C261 C258 1.453 . S
C262 H234 0.979 . S
C262 H235 0.980 . S
C262 H236 0.983 . S
C262 C258 1.684 . S
H263 C281 0.948 . S
H264 C222 0.948 . S
H265 C240 0.979 . S
H266 C240 0.980 . S
H267 C240 0.983 . S
H268 C239 0.982 . S
H269 C239 0.979 . S
H270 C239 0.977 . S
H271 C241 0.948 . S
H272 C243 0.947 . S
H273 C244 0.948 . S
H274 C250 0.982 . S
H275 C250 0.979 . S
H276 C250 0.977 . S
H277 C251 0.979 . S
H278 C251 0.980 . S
H279 C251 0.983 . S
H280 C224 0.947 . S
C281 C224 1.392 . S
C281 C225 1.419 . S
C281 H263 0.948 . S
C282 C283 1.349 . S
C282 C284 1.327 . S
C282 H307 0.950 . S
C283 C282 1.349 . S
C283 C299 1.349 . S
C284 C282 1.327 . S
C284 C303 1.429 . S
C284 H308 0.950 . S
C285 C302 1.574 . S
C285 C304 1.368 . S
C285 H309 0.949 . S
H286 C290 0.949 . S
C287 C288 1.349 . S
C287 C289 1.327 . S
C287 H310 0.950 . S
C288 C287 1.349 . S
C288 C300 1.349 . S
C289 C287 1.327 . S
C289 C305 1.429 . S
C289 H311 0.950 . S
C290 H286 0.949 . S
C290 C298 1.574 . S
C290 C306 1.368 . S
H291 C299 0.950 1_556 S
H292 C297 0.950 . S
H293 C298 0.949 . S
H294 C300 0.950 . S
H295 C301 0.950 . S
H296 C302 0.949 . S
C297 H292 0.950 . S
C297 C299 1.327 . S
C297 C303 1.429 . S
C298 C290 1.574 . S
C298 H293 0.949 . S
C298 C304 1.368 . S
C299 C283 1.349 . S
C299 H291 0.950 1_554 S
C299 C297 1.327 . S
C300 C288 1.349 . S
C300 H294 0.950 . S
C300 C301 1.327 . S
C301 H295 0.950 . S
C301 C300 1.327 . S
C301 C305 1.429 . S
C302 C285 1.574 . S
C302 H296 0.949 . S
C302 C306 1.368 . S
C303 C284 1.429 . S
C303 C297 1.429 . S
C303 C304 1.523 . S
C304 C285 1.368 . S
C304 C298 1.368 . S
C304 C303 1.523 . S
C305 C289 1.429 . S
C305 C301 1.429 . S
C305 C306 1.523 . S
C306 C290 1.368 . S
C306 C302 1.368 . S
C306 C305 1.523 . S
H307 C282 0.950 . S
H308 C284 0.950 . S
H309 C285 0.949 . S
H310 C287 0.950 . S
H311 C289 0.950 . S
C312 C313 1.349 . S
C312 C314 1.327 . S
C312 H337 0.950 . S
C313 C312 1.349 . S
C313 C329 1.348 . S
C314 C312 1.327 . S
C314 C333 1.429 . S
C314 H338 0.950 . S
C315 C332 1.574 . S
C315 C334 1.368 . S
C315 H339 0.949 . S
H316 C320 0.949 . S
C317 C318 1.349 . S
C317 C319 1.327 . S
C317 H340 0.950 . S
C318 C317 1.349 . S
C318 C330 1.349 . S
C319 C317 1.327 . S
C319 C335 1.429 . S
C319 H341 0.950 . S
C320 H316 0.949 . S
C320 C328 1.574 . S
C320 C336 1.368 . S
H321 C329 0.940 1_554 S
H322 C327 0.950 . S
H323 C328 0.949 . S
H324 C330 0.950 . S
H325 C331 0.950 . S
H326 C332 0.949 . S
C327 H322 0.950 . S
C327 C329 1.341 . S
C327 C333 1.429 . S
C328 C320 1.574 . S
C328 H323 0.949 . S
C328 C334 1.368 . S
C329 C313 1.348 . S
C329 H321 0.940 1_556 S
C329 C327 1.341 . S
C330 C318 1.349 . S
C330 H324 0.950 . S
C330 C331 1.327 . S
C331 H325 0.950 . S
C331 C330 1.327 . S
C331 C335 1.429 . S
C332 C315 1.574 . S
C332 H326 0.949 . S
C332 C336 1.368 . S
C333 C314 1.429 . S
C333 C327 1.429 . S
C333 C334 1.523 . S
C334 C315 1.368 . S
C334 C328 1.368 . S
C334 C333 1.523 . S
C335 C319 1.429 . S
C335 C331 1.429 . S
C335 C336 1.523 . S
C336 C320 1.368 . S
C336 C332 1.368 . S
C336 C335 1.523 . S
H337 C312 0.950 . S
H338 C314 0.950 . S
H339 C315 0.949 . S
H340 C317 0.950 . S
H341 C319 0.950 . S
C342 C343 1.349 . S
C342 C344 1.327 . S
C342 H367 0.950 . S
C343 C342 1.349 . S
C343 C359 1.349 . S
C344 C342 1.327 . S
C344 C363 1.429 . S
C344 H368 0.950 . S
C345 C362 1.574 . S
C345 C364 1.368 . S
C345 H369 0.949 . S
H346 C350 0.949 . S
C347 C348 1.349 . S
C347 C349 1.327 . S
C347 H370 0.950 . S
C348 C347 1.349 . S
C348 C360 1.349 . S
C349 C347 1.327 . S
C349 C365 1.429 . S
C349 H371 0.950 . S
C350 H346 0.949 . S
C350 C358 1.574 . S
C350 C366 1.368 . S
H351 C359 0.950 1_556 S
H352 C357 0.976 . S
H353 C358 0.949 . S
H354 C360 0.950 . S
H355 C361 0.950 . S
H356 C362 0.949 . S
C357 H352 0.976 . S
C357 C359 1.327 . S
C357 C363 1.429 . S
C358 C350 1.574 . S
C358 H353 0.949 . S
C358 C364 1.368 . S
C359 C343 1.349 . S
C359 H351 0.950 1_554 S
C359 C357 1.327 . S
C360 C348 1.349 . S
C360 H354 0.950 . S
C360 C361 1.327 . S
C361 H355 0.950 . S
C361 C360 1.327 . S
C361 C365 1.429 . S
C362 C345 1.574 . S
C362 H356 0.949 . S
C362 C366 1.368 . S
C363 C344 1.429 . S
C363 C357 1.429 . S
C363 C364 1.523 . S
C364 C345 1.368 . S
C364 C358 1.368 . S
C364 C363 1.523 . S
C365 C349 1.429 . S
C365 C361 1.429 . S
C365 C366 1.523 . S
C366 C350 1.368 . S
C366 C362 1.368 . S
C366 C365 1.523 . S
H367 C342 0.950 . S
H368 C344 0.950 . S
H369 C345 0.949 . S
H370 C347 0.950 . S
H371 C349 0.950 . S
C372 C373 1.349 . S
C372 C374 1.327 . S
C372 H397 0.950 . S
C373 C372 1.349 . S
C373 C389 1.349 1_554 S
C374 C372 1.327 . S
C374 C393 1.429 1_554 S
C374 H398 0.950 . S
C375 C392 1.574 . S
C375 C394 1.368 . S
C375 H399 0.949 . S
H376 C380 0.949 . S
C377 C378 1.349 . S
C377 C379 1.327 . S
C377 H400 0.950 . S
C378 C377 1.349 . S
C378 C390 1.349 . S
C379 C377 1.327 . S
C379 C395 1.429 . S
C379 H401 0.950 . S
C380 H376 0.949 . S
C380 C388 1.574 . S
C380 C396 1.368 . S
H381 C389 0.950 . S
H382 C387 0.950 . S
H383 C388 0.949 . S
H384 C390 0.950 . S
H385 C391 0.950 . S
H386 C392 0.949 . S
C387 H382 0.950 . S
C387 C389 1.327 . S
C387 C393 1.429 . S
C388 C380 1.574 . S
C388 H383 0.949 . S
C388 C394 1.368 . S
C389 C373 1.349 1_556 S
C389 H381 0.950 . S
C389 C387 1.327 . S
C390 C378 1.349 . S
C390 H384 0.950 . S
C390 C391 1.327 . S
C391 H385 0.950 . S
C391 C390 1.327 . S
C391 C395 1.429 . S
C392 C375 1.574 . S
C392 H386 0.949 . S
C392 C396 1.368 . S
C393 C374 1.429 1_556 S
C393 C387 1.429 . S
C393 C394 1.523 . S
C394 C375 1.368 . S
C394 C388 1.368 . S
C394 C393 1.523 . S
C395 C379 1.429 . S
C395 C391 1.429 . S
C395 C396 1.523 . S
C396 C380 1.368 . S
C396 C392 1.368 . S
C396 C395 1.523 . S
H397 C372 0.950 . S
H398 C374 0.950 . S
H399 C375 0.949 . S
H400 C377 0.950 . S
H401 C379 0.950 . S
C402 C403 1.349 . S
C402 C404 1.327 . S
C402 H427 0.950 . S
C403 C402 1.349 . S
C403 C419 1.349 . S
C404 C402 1.327 . S
C404 C423 1.429 . S
C404 H428 0.950 . S
C405 C422 1.574 . S
C405 C424 1.368 . S
C405 H429 0.949 . S
H406 C410 0.949 . S
C407 C408 1.349 . S
C407 C409 1.327 . S
C407 H430 0.950 . S
C408 C407 1.349 . S
C408 C420 1.349 . S
C409 C407 1.327 . S
C409 C425 1.429 . S
C409 H431 0.950 . S
C410 H406 0.949 . S
C410 C418 1.574 . S
C410 C426 1.368 . S
H411 C419 0.950 . S
H412 C417 0.950 . S
H413 C418 0.949 . S
H414 C420 0.950 . S
H415 C421 0.950 . S
H416 C422 0.949 . S
C417 H412 0.950 . S
C417 C419 1.327 . S
C417 C423 1.429 . S
C418 C410 1.574 . S
C418 H413 0.949 . S
C418 C424 1.368 . S
C419 C403 1.349 . S
C419 H411 0.950 . S
C419 C417 1.327 . S
C420 C408 1.349 . S
C420 H414 0.950 . S
C420 C421 1.327 . S
C421 H415 0.950 . S
C421 C420 1.327 . S
C421 C425 1.429 . S
C422 C405 1.574 . S
C422 H416 0.949 . S
C422 C426 1.368 . S
C423 C404 1.429 . S
C423 C417 1.429 . S
C423 C424 1.523 . S
C424 C405 1.368 . S
C424 C418 1.368 . S
C424 C423 1.523 . S
C425 C409 1.429 . S
C425 C421 1.429 . S
C425 C426 1.523 . S
C426 C410 1.368 . S
C426 C422 1.368 . S
C426 C425 1.523 . S
H427 C402 0.950 . S
H428 C404 0.950 . S
H429 C405 0.949 . S
H430 C407 0.950 . S
H431 C409 0.950 . S
C432 C433 1.349 . S
C432 C434 1.327 . S
C432 H457 0.950 . S
C433 C432 1.349 . S
C433 C449 1.349 . S
C434 C432 1.327 . S
C434 C453 1.429 . S
C434 H458 0.950 . S
C435 C452 1.574 . S
C435 C454 1.368 . S
C435 H459 0.949 . S
H436 C440 0.949 . S
C437 C438 1.349 . S
C437 C439 1.327 . S
C437 H460 0.950 . S
C438 C437 1.349 . S
C438 C450 1.349 . S
C439 C437 1.327 . S
C439 C455 1.429 . S
C439 H461 0.950 . S
C440 H436 0.949 . S
C440 C448 1.574 . S
C440 C456 1.368 . S
H441 C449 0.950 . S
H442 C447 0.950 . S
H443 C448 0.949 . S
H444 C450 0.950 . S
H445 C451 0.950 . S
H446 C452 0.949 . S
C447 H442 0.950 . S
C447 C449 1.327 . S
C447 C453 1.429 . S
C448 C440 1.574 . S
C448 H443 0.949 . S
C448 C454 1.368 . S
C449 C433 1.349 . S
C449 H441 0.950 . S
C449 C447 1.327 . S
C450 C438 1.349 . S
C450 H444 0.950 . S
C450 C451 1.327 . S
C451 H445 0.950 . S
C451 C450 1.327 . S
C451 C455 1.429 . S
C452 C435 1.574 . S
C452 H446 0.949 . S
C452 C456 1.368 . S
C453 C434 1.429 . S
C453 C447 1.429 . S
C453 C454 1.523 . S
C454 C435 1.368 . S
C454 C448 1.368 . S
C454 C453 1.523 . S
C455 C439 1.429 . S
C455 C451 1.429 . S
C455 C456 1.523 . S
C456 C440 1.368 . S
C456 C452 1.368 . S
C456 C455 1.523 . S
H457 C432 0.950 . S
H458 C434 0.950 . S
H459 C435 0.949 . S
H460 C437 0.950 . S
H461 C439 0.950 . S
C462 C463 1.349 . S
C462 C464 1.327 . S
C462 H487 0.950 . S
C463 C462 1.349 . S
C463 C479 1.349 . S
C464 C462 1.327 . S
C464 C483 1.429 . S
C464 H488 0.950 . S
C465 C482 1.574 . S
C465 C484 1.368 . S
C465 H489 0.949 . S
H466 C470 0.949 . S
C467 C468 1.349 . S
C467 C469 1.327 . S
C467 H490 0.950 . S
C468 C467 1.349 . S
C468 C480 1.349 . S
C469 C467 1.327 . S
C469 C485 1.429 . S
C469 H491 0.950 . S
C470 H466 0.949 . S
C470 C478 1.574 . S
C470 C486 1.368 . S
H471 C479 0.950 . S
H472 C477 0.950 . S
H473 C478 0.949 . S
H474 C480 0.950 . S
H475 C481 0.950 . S
H476 C482 0.949 . S
C477 H472 0.950 . S
C477 C479 1.327 . S
C477 C483 1.429 . S
C478 C470 1.574 . S
C478 H473 0.949 . S
C478 C484 1.368 . S
C479 C463 1.349 . S
C479 H471 0.950 . S
C479 C477 1.327 . S
C480 C468 1.349 . S
C480 H474 0.950 . S
C480 C481 1.327 . S
C481 H475 0.950 . S
C481 C480 1.327 . S
C481 C485 1.429 . S
C482 C465 1.574 . S
C482 H476 0.949 . S
C482 C486 1.368 . S
C483 C464 1.429 . S
C483 C477 1.429 . S
C483 C484 1.523 . S
C484 C465 1.368 . S
C484 C478 1.368 . S
C484 C483 1.523 . S
C485 C469 1.429 . S
C485 C481 1.429 . S
C485 C486 1.523 . S
C486 C470 1.368 . S
C486 C482 1.368 . S
C486 C485 1.523 . S
H487 C462 0.950 . S
H488 C464 0.950 . S
H489 C465 0.949 . S
H490 C467 0.950 . S
H491 C469 0.950 . S
C492 C493 1.349 . S
C492 C494 1.327 . S
C492 H517 0.950 . S
C493 C492 1.349 . S
C493 C509 1.349 . S
C494 C492 1.327 . S
C494 C513 1.429 . S
C494 H518 0.950 . S
C495 C512 1.574 . S
C495 C514 1.368 . S
C495 H519 0.949 . S
H496 C500 0.949 . S
C497 C498 1.349 . S
C497 C499 1.327 . S
C497 H520 0.950 . S
C498 C497 1.349 . S
C498 C510 1.349 . S
C499 C497 1.327 . S
C499 C515 1.429 . S
C499 H521 0.950 . S
C500 H496 0.949 . S
C500 C508 1.574 . S
C500 C516 1.368 . S
H501 C509 0.950 . S
H502 C507 0.950 . S
H503 C508 0.949 . S
H504 C510 0.950 . S
H505 C511 0.950 . S
H506 C512 0.949 . S
C507 H502 0.950 . S
C507 C509 1.327 . S
C507 C513 1.429 . S
C508 C500 1.574 . S
C508 H503 0.949 . S
C508 C514 1.368 . S
C509 C493 1.349 . S
C509 H501 0.950 . S
C509 C507 1.327 . S
C510 C498 1.349 . S
C510 H504 0.950 . S
C510 C511 1.327 . S
C511 H505 0.950 . S
C511 C510 1.327 . S
C511 C515 1.429 . S
C512 C495 1.574 . S
C512 H506 0.949 . S
C512 C516 1.368 . S
C513 C494 1.429 . S
C513 C507 1.429 . S
C513 C514 1.523 . S
C514 C495 1.368 . S
C514 C508 1.368 . S
C514 C513 1.523 . S
C515 C499 1.429 . S
C515 C511 1.429 . S
C515 C516 1.523 . S
C516 C500 1.368 . S
C516 C512 1.368 . S
C516 C515 1.523 . S
H517 C492 0.950 . S
H518 C494 0.950 . S
H519 C495 0.949 . S
H520 C497 0.950 . S
H521 C499 0.950 . S
C522 C523 1.349 . S
C522 C524 1.327 . S
C522 H547 0.950 . S
C523 C522 1.349 . S
C523 C539 1.349 1_565 S
C524 C522 1.327 . S
C524 C543 1.429 1_565 S
C524 H548 0.950 . S
C525 C542 1.574 . S
C525 C544 1.368 . S
C525 H549 0.949 . S
H526 C530 0.949 . S
C527 C528 1.349 . S
C527 C529 1.327 . S
C527 H550 0.950 . S
C528 C527 1.349 . S
C528 C540 1.346 1_545 S
C529 C527 1.327 . S
C529 C545 1.429 . S
C529 H551 0.950 . S
C530 H526 0.949 . S
C530 C538 1.574 . S
C530 C546 1.368 1_565 S
H531 C539 0.950 . S
H532 C537 0.950 . S
H533 C538 0.949 . S
H534 C540 0.952 . S
H535 C541 0.950 . S
H536 C542 0.949 . S
C537 H532 0.950 . S
C537 C539 1.327 . S
C537 C543 1.429 . S
C538 C530 1.574 . S
C538 H533 0.949 . S
C538 C544 1.368 1_565 S
C539 C523 1.349 1_545 S
C539 H531 0.950 . S
C539 C537 1.327 . S
C540 C528 1.346 1_565 S
C540 H534 0.952 . S
C540 C541 1.328 . S
C541 H535 0.950 . S
C541 C540 1.328 . S
C541 C545 1.429 1_565 S
C542 C525 1.574 . S
C542 H536 0.949 . S
C542 C546 1.368 . S
C543 C524 1.429 1_545 S
C543 C537 1.429 . S
C543 C544 1.523 . S
C544 C525 1.368 . S
C544 C538 1.368 1_545 S
C544 C543 1.523 . S
C545 C529 1.429 . S
C545 C541 1.429 1_545 S
C545 C546 1.523 . S
C546 C530 1.368 1_545 S
C546 C542 1.368 . S
C546 C545 1.523 . S
H547 C522 0.950 . S
H548 C524 0.950 . S
H549 C525 0.949 . S
H550 C527 0.950 . S
H551 C529 0.950 . S
C552 C553 1.349 . S
C552 C554 1.327 . S
C552 H577 0.950 1_455 S
C553 C552 1.349 . S
C553 C569 1.349 1_565 S
C554 C552 1.327 . S
C554 C573 1.420 1_565 S
C554 H578 0.950 1_455 S
C555 C572 1.574 . S
C555 C574 1.368 . S
C555 H579 0.949 . S
H556 C560 0.949 . S
C557 C558 1.349 . S
C557 C559 1.327 . S
C557 H580 0.950 . S
C558 C557 1.349 . S
C558 C570 1.349 1_445 S
C559 C557 1.327 . S
C559 C575 1.429 . S
C559 H581 0.950 . S
C560 H556 0.949 . S
C560 C568 1.574 . S
C560 C576 1.368 1_665 S
H561 C569 0.950 . S
H562 C567 0.950 . S
H563 C568 0.949 . S
H564 C570 0.950 . S
H565 C571 0.950 . S
H566 C572 0.949 . S
C567 H562 0.950 . S
C567 C569 1.327 . S
C567 C573 1.436 . S
C568 C560 1.574 . S
C568 H563 0.949 . S
C568 C574 1.368 1_665 S
C569 C553 1.349 1_545 S
C569 H561 0.950 . S
C569 C567 1.327 . S
C570 C558 1.349 1_665 S
C570 H564 0.950 . S
C570 C571 1.327 . S
C571 H565 0.950 . S
C571 C570 1.327 . S
C571 C575 1.429 1_665 S
C572 C555 1.574 . S
C572 H566 0.949 . S
C572 C576 1.368 . S
C573 C554 1.420 1_545 S
C573 C567 1.436 . S
C573 C574 1.524 . S
C574 C555 1.368 . S
C574 C568 1.368 1_445 S
C574 C573 1.524 . S
C575 C559 1.429 . S
C575 C571 1.429 1_445 S
C575 C576 1.523 . S
C576 C560 1.368 1_445 S
C576 C572 1.368 . S
C576 C575 1.523 . S
H577 C552 0.950 1_655 S
H578 C554 0.950 1_655 S
H579 C555 0.949 . S
H580 C557 0.950 . S
H581 C559 0.950 . S
C582 C583 1.349 . S
C582 C584 1.327 . S
C582 H607 0.950 . S
C583 C582 1.349 . S
C583 C599 1.349 . S
C584 C582 1.327 . S
C584 C603 1.429 . S
C584 H608 0.950 . S
C585 C602 1.574 . S
C585 C604 1.368 . S
C585 H609 0.949 . S
H586 C590 0.949 . S
C587 C588 1.349 . S
C587 C589 1.327 . S
C587 H610 0.950 . S
C588 C587 1.349 . S
C588 C600 1.349 . S
C589 C587 1.327 . S
C589 C605 1.429 . S
C589 H611 0.950 . S
C590 H586 0.949 . S
C590 C598 1.574 . S
C590 C606 1.368 . S
H591 C599 0.950 . S
H592 C597 0.950 . S
H593 C598 0.949 . S
H594 C600 0.950 . S
H595 C601 0.950 . S
H596 C602 0.949 . S
C597 H592 0.950 . S
C597 C599 1.327 . S
C597 C603 1.429 . S
C598 C590 1.574 . S
C598 H593 0.949 . S
C598 C604 1.368 . S
C599 C583 1.349 . S
C599 H591 0.950 . S
C599 C597 1.327 . S
C600 C588 1.349 . S
C600 H594 0.950 . S
C600 C601 1.327 . S
C601 H595 0.950 . S
C601 C600 1.327 . S
C601 C605 1.429 . S
C602 C585 1.574 . S
C602 H596 0.949 . S
C602 C606 1.368 . S
C603 C584 1.429 . S
C603 C597 1.429 . S
C603 C604 1.523 . S
C604 C585 1.368 . S
C604 C598 1.368 . S
C604 C603 1.523 . S
C605 C589 1.429 . S
C605 C601 1.429 . S
C605 C606 1.523 . S
C606 C590 1.368 . S
C606 C602 1.368 . S
C606 C605 1.523 . S
H607 C582 0.950 . S
H608 C584 0.950 . S
H609 C585 0.949 . S
H610 C587 0.950 . S
H611 C589 0.950 . S
C612 C613 1.349 . S
C612 C614 1.327 . S
C612 H637 0.950 . S
C613 C612 1.349 . S
C613 C629 1.349 . S
C614 C612 1.327 . S
C614 C633 1.429 . S
C614 H638 0.950 . S
C615 C632 1.574 . S
C615 C634 1.368 . S
C615 H639 0.949 . S
H616 C620 0.949 . S
C617 C618 1.349 . S
C617 C619 1.327 . S
C617 H640 0.950 . S
C618 C617 1.349 . S
C618 C630 1.349 . S
C619 C617 1.327 . S
C619 C635 1.429 . S
C619 H641 0.950 . S
C620 H616 0.949 . S
C620 C628 1.574 . S
C620 C636 1.368 . S
H621 C629 0.950 . S
H622 C627 0.950 . S
H623 C628 0.949 . S
H624 C630 0.950 . S
H625 C631 0.950 . S
H626 C632 0.949 . S
C627 H622 0.950 . S
C627 C629 1.327 . S
C627 C633 1.429 . S
C628 C620 1.574 . S
C628 H623 0.949 . S
C628 C634 1.368 . S
C629 C613 1.349 . S
C629 H621 0.950 . S
C629 C627 1.327 . S
C630 C618 1.349 . S
C630 H624 0.950 . S
C630 C631 1.327 . S
C631 H625 0.950 . S
C631 C630 1.327 . S
C631 C635 1.429 . S
C632 C615 1.574 . S
C632 H626 0.949 . S
C632 C636 1.368 . S
C633 C614 1.429 . S
C633 C627 1.429 . S
C633 C634 1.523 . S
C634 C615 1.368 . S
C634 C628 1.368 . S
C634 C633 1.523 . S
C635 C619 1.429 . S
C635 C631 1.429 . S
C635 C636 1.523 . S
C636 C620 1.368 . S
C636 C632 1.368 . S
C636 C635 1.523 . S
H637 C612 0.950 . S
H638 C614 0.950 . S
H639 C615 0.949 . S
H640 C617 0.950 . S
H641 C619 0.950 . S
C288 C253 1.146 . S
C283 C3 1.036 . S
C313 C4 1.504 1_556 S
C318 C193 1.611 . S
C343 C19 1.535 . S
C348 C223 1.573 . S
C373 C7 1.037 1_554 S
C378 C163 1.099 . S
C403 C37 1.036 . S
C408 C133 1.146 . S
C433 C28 1.504 . S
C438 C73 1.611 . S
C468 C103 1.573 . S
C463 C41 1.536 . S
C498 C43 1.099 . S
C493 C25 1.037 . S
C523 C20 1.269 . S
C528 C62 1.397 . S
C553 C16 1.326 . S
C558 C122 1.455 1_455 S
C588 C182 1.397 . S
C583 C40 1.269 . S
C613 C24 1.326 . S
C618 C242 1.455 . S
