# Generated by pormake.
# Topology anh, (6,3)-cn, num edge types: 1
# Building blocks:
#     Node 0, Type 0, BuildingBlock: BETFEN_clean_sbu_0, # of connection points: 6
#     Node 1, Type 0, BuildingBlock: BETFEN_clean_sbu_0, # of connection points: 6
#     Node 2, Type 0, BuildingBlock: BETFEN_clean_sbu_0, # of connection points: 6
#     Node 3, Type 1, BuildingBlock: ESEHIV_clean_linker_0, # of connection points: 3
#     Node 4, Type 1, BuildingBlock: ESEHIV_clean_linker_0, # of connection points: 3
#     Node 5, Type 1, BuildingBlock: ESEHIV_clean_linker_0, # of connection points: 3
#     Node 6, Type 1, BuildingBlock: ESEHIV_clean_linker_0, # of connection points: 3
#     Node 7, Type 1, BuildingBlock: ESEHIV_clean_linker_0, # of connection points: 3
#     Node 8, Type 1, BuildingBlock: ESEHIV_clean_linker_0, # of connection points: 3
#     Edge 9, Type (0, 1), BuildingBlock: EZIPEK_clean_linker_0, # of connection points: 2
#     Edge 10, Type (0, 1), BuildingBlock: EZIPEK_clean_linker_0, # of connection points: 2
#     Edge 11, Type (0, 1), BuildingBlock: EZIPEK_clean_linker_0, # of connection points: 2
#     Edge 12, Type (0, 1), BuildingBlock: EZIPEK_clean_linker_0, # of connection points: 2
#     Edge 13, Type (0, 1), BuildingBlock: EZIPEK_clean_linker_0, # of connection points: 2
#     Edge 14, Type (0, 1), BuildingBlock: EZIPEK_clean_linker_0, # of connection points: 2
#     Edge 15, Type (0, 1), BuildingBlock: EZIPEK_clean_linker_0, # of connection points: 2
#     Edge 16, Type (0, 1), BuildingBlock: EZIPEK_clean_linker_0, # of connection points: 2
#     Edge 17, Type (0, 1), BuildingBlock: EZIPEK_clean_linker_0, # of connection points: 2
#     Edge 18, Type (0, 1), BuildingBlock: EZIPEK_clean_linker_0, # of connection points: 2
#     Edge 19, Type (0, 1), BuildingBlock: EZIPEK_clean_linker_0, # of connection points: 2
#     Edge 20, Type (0, 1), BuildingBlock: EZIPEK_clean_linker_0, # of connection points: 2
#     Edge 21, Type (0, 1), BuildingBlock: EZIPEK_clean_linker_0, # of connection points: 2
#     Edge 22, Type (0, 1), BuildingBlock: EZIPEK_clean_linker_0, # of connection points: 2
#     Edge 23, Type (0, 1), BuildingBlock: EZIPEK_clean_linker_0, # of connection points: 2
#     Edge 24, Type (0, 1), BuildingBlock: EZIPEK_clean_linker_0, # of connection points: 2
#     Edge 25, Type (0, 1), BuildingBlock: EZIPEK_clean_linker_0, # of connection points: 2
#     Edge 26, Type (0, 1), BuildingBlock: EZIPEK_clean_linker_0, # of connection points: 2
# Relax obj value: 0.287
# Max RMSD: 0.258
# Mean RMSD: 0.181
data_MOF--net-anh--node1-BETFEN_clean_sbu_0--node2-ESEHIV_clean_linker_0--edge1-EZIPEK_clean_linker_0
_symmetry_space_group_name_H-M    P1
_symmetry_Int_Tables_number       1
_symmetry_cell_setting            triclinic
loop_
_symmetry_equiv_pos_as_xyz
'x, y, z'
_cell_length_a     19.456058
_cell_length_b     20.207635
_cell_length_c     37.987075
_cell_angle_alpha  91.082521
_cell_angle_beta   91.540435
_cell_angle_gamma 96.183992
loop_
_atom_site_label
_atom_site_type_symbol
_atom_site_fract_x
_atom_site_fract_y
_atom_site_fract_z
_atom_type_partial_charge
Pr0 Pr 0.09142 0.54539 0.13895 0.0
Pr1 Pr 0.10615 0.6918 0.12842 0.0
C2 C 0.08146 0.42108 0.16368 0.0
C3 C 1.02212 0.37762 0.17672 0.0
C4 C 1.00619 0.31286 0.16264 0.0
C5 C 0.94677 0.27342 0.17288 0.0
C6 C 0.90296 0.29817 0.19754 0.0
C7 C 0.91935 0.36245 0.21198 0.0
C8 C 0.97815 0.40202 0.20154 0.0
C9 C 0.07075 0.57761 0.06858 0.0
C10 C 0.9506 0.61654 0.13047 0.0
C11 C 0.14447 0.81988 0.11256 0.0
C12 C 0.20173 0.86912 0.12598 0.0
C13 C 0.1913 0.9121 0.15447 0.0
C14 C 0.247 0.95209 0.17043 0.0
C15 C 0.31398 0.95018 0.15805 0.0
C16 C 0.32426 0.91021 0.12848 0.0
C17 C 0.26853 0.8702 0.11246 0.0
C18 C 0.08361 0.65794 0.19814 0.0
C19 C 0.24976 0.61866 0.13317 0.0
O20 O 0.10267 0.47382 0.18312 0.0
O21 O 0.07979 0.43326 0.13003 0.0
O22 O 0.11754 0.60586 0.08906 0.0
O23 O 1.03205 0.53155 0.08434 0.0
O24 O 0.98898 0.66163 0.11273 0.0
O25 O 0.98023 0.57379 0.15003 0.0
O26 O 0.16121 0.7697 0.09368 0.0
O27 O 0.09625 0.80194 0.13474 0.0
O28 O 0.12389 0.63141 0.17804 0.0
O29 O 0.0549 0.70482 0.18263 0.0
O30 O 0.2106 0.56131 0.12921 0.0
O31 O 0.22225 0.67461 0.13911 0.0
H32 H 1.03897 0.29334 0.14324 0.0
H33 H 0.93454 0.22396 0.16137 0.0
H34 H 0.88586 0.38238 0.2309 0.0
H35 H 0.9884 0.45212 0.21249 0.0
H36 H 0.14045 0.91314 0.16527 0.0
H37 H 0.23823 0.983 0.19314 0.0
H38 H 0.3757 0.90853 0.11849 0.0
H39 H 0.27822 0.83864 0.09021 0.0
Pr40 Pr 0.61346 0.15811 0.51894 0.0
Pr41 Pr 0.46634 0.14632 0.51357 0.0
C42 C 0.74936 0.18966 0.50908 0.0
C43 C 0.79089 0.2472 0.49463 0.0
C44 C 0.85592 0.26938 0.50986 0.0
C45 C 0.89542 0.32445 0.4963 0.0
C46 C 0.87043 0.35729 0.46716 0.0
C47 C 0.8052 0.33532 0.45209 0.0
C48 C 0.7654 0.28098 0.4659 0.0
C49 C 0.55915 0.12895 0.58428 0.0
C50 C 0.53714 0.30132 0.52536 0.0
C51 C 0.32748 0.11555 0.50832 0.0
C52 C 0.28511 1.0562 0.49412 0.0
C53 C 0.311 1.01729 0.46759 0.0
C54 C 0.27337 0.95822 0.45569 0.0
C55 C 0.20949 0.93718 0.47023 0.0
C56 C 0.18328 0.97596 0.49671 0.0
C57 C 0.22105 1.03536 0.50862 0.0
C58 C 0.52817 0.16184 0.44809 0.0
C59 C 0.54397 1.00243 0.51749 0.0
O60 O 0.70826 0.15398 0.48657 0.0
O61 O 0.72064 0.19963 0.53913 0.0
O62 O 0.53555 0.17087 0.56379 0.0
O63 O 0.6104 1.1019 0.57112 0.0
O64 O 0.4796 0.26126 0.52958 0.0
O65 O 0.59364 0.27377 0.51698 0.0
O66 O 0.36374 1.10658 0.53662 0.0
O67 O 0.36281 0.15141 0.48556 0.0
O68 O 0.54428 0.12271 0.47149 0.0
O69 O 0.48188 0.19794 0.45907 0.0
O70 O 0.60111 1.04106 0.51083 0.0
O71 O 0.48616 1.031 0.52214 0.0
H72 H 0.87602 0.24417 0.5322 0.0
H73 H 0.94558 0.34119 0.5083 0.0
H74 H 0.78509 0.36046 0.42972 0.0
H75 H 0.71483 0.26531 0.45406 0.0
H76 H 0.36085 1.03208 0.45643 0.0
H77 H 0.29434 0.92851 0.43538 0.0
H78 H 0.13412 0.95992 0.50825 0.0
H79 H 0.20087 1.06445 0.52944 0.0
Pr80 Pr 0.60239 0.60336 0.8184 0.0
Pr81 Pr 0.60365 0.74909 0.83217 0.0
C82 C 0.599 0.47765 0.79462 0.0
C83 C 0.63714 0.42169 0.80376 0.0
C84 C 0.67231 0.42069 0.83653 0.0
C85 C 0.69394 0.36126 0.84871 0.0
C86 C 0.68003 0.30262 0.82824 0.0
C87 C 0.65287 0.30637 0.79361 0.0
C88 C 0.63116 0.3655 0.78157 0.0
C89 C 0.62544 0.63689 0.88983 0.0
C90 C 0.75543 0.6917 0.82916 0.0
C91 C 0.5798 0.86862 0.85908 0.0
C92 C 0.51882 0.88616 0.87775 0.0
C93 C 0.50314 0.95196 0.8792 0.0
C94 C 0.43391 0.96458 0.8811 0.0
C95 C 0.38084 0.91124 0.87689 0.0
C96 C 0.39817 0.84769 0.88534 0.0
C97 C 0.46742 0.8353 0.88605 0.0
C98 C 0.61232 0.71295 0.76053 0.0
C99 C 0.44996 0.65596 0.82964 0.0
O100 O 0.63367 0.52738 0.77906 0.0
O101 O 0.5583 0.49607 0.81899 0.0
O102 O 0.58277 0.66091 0.86949 0.0
O103 O 0.6577 0.59353 0.87323 0.0
O104 O 0.72195 0.73973 0.84206 0.0
O105 O 0.72099 0.63916 0.81324 0.0
O106 O 0.61759 0.82871 0.87544 0.0
O107 O 0.56768 0.8513 0.82592 0.0
O108 O 0.57224 0.68468 0.78228 0.0
O109 O 0.64918 0.76421 0.77517 0.0
O110 O 0.48183 0.60369 0.82137 0.0
O111 O 0.4844 0.71527 0.83504 0.0
H112 H 0.67833 0.46442 0.85372 0.0
H113 H 0.71607 0.36004 0.8751 0.0
H114 H 0.64134 0.26197 0.77718 0.0
H115 H 0.60482 0.36583 0.75608 0.0
H116 H 0.5428 0.99274 0.87503 0.0
H117 H 0.42243 1.01561 0.87922 0.0
H118 H 0.3588 0.80611 0.88574 0.0
H119 H 0.47991 0.78487 0.88847 0.0
H120 H 0.47996 1.08052 0.28818 0.0
H121 H 0.68161 0.19021 0.30091 0.0
H122 H 0.6064 0.11857 0.19801 0.0
C123 C 0.52779 1.10192 0.27696 0.0
C124 C 0.53738 1.09522 0.24065 0.0
C125 C 0.57983 0.13582 0.29888 0.0
C126 C 0.64145 0.16355 0.28414 0.0
C127 C 0.65088 0.15812 0.24775 0.0
C128 C 0.59905 0.12327 0.22611 0.0
H129 H 0.56457 0.77245 0.60159 0.0
H130 H 0.55992 0.56125 0.61035 0.0
H131 H 0.53411 0.64703 0.50779 0.0
C132 C 0.55891 0.72356 0.58884 0.0
C133 C 0.54851 0.71822 0.55217 0.0
C134 C 0.56302 0.66775 0.60965 0.0
C135 C 0.55645 0.60395 0.59378 0.0
C136 C 0.54578 0.5942 0.55706 0.0
C137 C 0.54182 0.65257 0.53606 0.0
H138 H 0.97918 0.61903 0.91101 0.0
H139 H 0.19182 0.58431 0.91559 0.0
H140 H 0.11046 0.68039 0.82526 0.0
C141 C 1.02851 0.62048 0.89823 0.0
C142 C 1.03623 0.64816 0.86474 0.0
C143 C 0.085 0.60048 0.91697 0.0
C144 C 0.14861 0.60082 0.90078 0.0
C145 C 0.15943 0.63022 0.86775 0.0
C146 C 0.10272 0.65504 0.84995 0.0
H147 H 1.01005 0.53543 0.35069 0.0
H148 H 0.1204 0.73168 0.3557 0.0
H149 H 1.04712 0.63903 0.45064 0.0
C150 C 1.03247 0.57858 0.36604 0.0
C151 C 1.02557 0.58054 0.40269 0.0
C152 C 0.0668 0.63301 0.3491 0.0
C153 C 0.0947 0.68914 0.36888 0.0
C154 C 0.08755 0.69152 0.40546 0.0
C155 C 0.05324 0.63704 0.42237 0.0
H156 H 0.57692 0.1537 0.74853 0.0
H157 H 0.39974 1.01314 0.72112 0.0
H158 H 0.47231 1.04187 0.82856 0.0
C159 C 0.53576 0.11668 0.75617 0.0
C160 C 0.52974 1.10048 0.79159 0.0
C161 C 0.49175 1.08293 0.73027 0.0
C162 C 0.43596 1.03759 0.74064 0.0
C163 C 0.42716 1.02459 0.77652 0.0
C164 C 0.4768 1.05327 0.80124 0.0
H165 H 0.48889 0.61522 0.04254 0.0
H166 H 0.70913 0.61481 0.04624 0.0
H167 H 0.59874 0.61867 0.14299 0.0
C168 C 0.5366 0.61437 0.05789 0.0
C169 C 0.53556 0.61588 0.09491 0.0
C170 C 0.59902 0.61498 0.04048 0.0
C171 C 0.66083 0.6144 0.05991 0.0
C172 C 0.66122 0.61482 0.09677 0.0
C173 C 0.59851 0.61655 0.11447 0.0
C174 C 0.35868 0.6708 0.1056 0.0
C175 C 0.32585 0.62152 0.12762 0.0
C176 C 0.43443 0.56944 0.13163 0.0
C177 C 0.46784 0.6219 0.11182 0.0
N178 N 0.46643 0.73335 0.09054 0.0
N179 N 0.33874 0.5343 0.16909 0.0
C180 C 0.43148 0.67645 0.10267 0.0
C181 C 0.36569 0.57397 0.14303 0.0
N182 N 0.32048 0.70838 0.0848 0.0
N183 N 0.46658 0.51393 0.13812 0.0
H184 H 0.2898 0.53808 0.179 0.0
H185 H 0.36769 0.50292 0.18333 0.0
H186 H 0.51654 0.50851 0.13015 0.0
H187 H 0.44158 0.47127 0.14904 0.0
H188 H 0.34247 0.74059 0.06607 0.0
H189 H 0.26673 0.7011 0.08271 0.0
H190 H 0.44281 0.77655 0.08622 0.0
H191 H 0.52016 0.73936 0.0886 0.0
C192 C 0.88874 0.47899 0.45457 0.0
C193 C 0.91227 0.41506 0.45222 0.0
C194 C 1.01508 0.462 0.42185 0.0
C195 C 0.98718 0.52392 0.42038 0.0
N196 N 0.8915 0.58851 0.42968 0.0
N197 N 0.99154 0.34292 0.42834 0.0
C198 C 0.92235 0.53178 0.43524 0.0
C199 C 0.97387 0.4057 0.43448 0.0
N200 N 0.83543 0.48967 0.47597 0.0
N201 N 0.08154 0.4574 0.41207 0.0
H202 H 0.96219 0.30014 0.43668 0.0
H203 H 1.03181 0.33287 0.41223 0.0
H204 H 0.11363 0.49785 0.40301 0.0
H205 H 0.1069 0.41519 0.41603 0.0
H206 H 0.82083 0.5368 0.48145 0.0
H207 H 0.81004 0.45233 0.49095 0.0
H208 H 0.841 0.59387 0.43675 0.0
H209 H 0.91379 0.62799 0.41507 0.0
C210 C 0.3306 0.88028 0.81868 0.0
C211 C 0.32389 0.91742 0.85001 0.0
C212 C 0.32538 1.01661 0.81482 0.0
C213 C 0.36571 0.98446 0.79038 0.0
N214 N 0.39381 0.88074 0.76471 0.0
N215 N 0.27379 1.01092 0.87296 0.0
C216 C 0.36244 0.91413 0.7901 0.0
C217 C 0.3037 0.9817 0.8456 0.0
N218 N 0.31043 0.81372 0.81739 0.0
N219 N 0.3143 1.08126 0.8098 0.0
H220 H 0.26193 0.98428 0.89574 0.0
H221 H 0.2605 1.05943 0.87298 0.0
H222 H 0.33131 1.10619 0.78726 0.0
H223 H 0.28653 1.10864 0.82675 0.0
H224 H 0.31261 0.7845 0.79462 0.0
H225 H 0.28492 0.79049 0.83841 0.0
H226 H 0.39828 0.82987 0.76586 0.0
H227 H 0.41702 0.90471 0.74332 0.0
C228 C 0.84201 0.67415 0.13287 0.0
C229 C 0.8735 0.61429 0.12846 0.0
C230 C 0.75813 0.55319 0.11803 0.0
C231 C 0.72936 0.61436 0.11552 0.0
N232 N 0.74322 0.73405 0.1195 0.0
N233 N 0.86065 0.49618 0.11372 0.0
C234 C 0.77097 0.67516 0.12307 0.0
C235 C 0.83126 0.55326 0.12088 0.0
N236 N 0.87937 0.72953 0.14745 0.0
N237 N 0.71523 0.49498 0.11707 0.0
H238 H 0.91371 0.49347 0.11401 0.0
H239 H 0.83259 0.45236 0.10428 0.0
H240 H 0.66154 0.49388 0.11467 0.0
H241 H 0.73209 0.44883 0.12219 0.0
H242 H 0.85757 0.77267 0.15431 0.0
H243 H 0.93067 0.73003 0.15617 0.0
H244 H 0.7728 0.78022 0.12018 0.0
H245 H 0.69074 0.73642 0.11392 0.0
C246 C 0.19624 0.81297 0.46761 0.0
C247 C 0.1713 0.87348 0.45773 0.0
C248 C 0.08118 0.81176 0.42032 0.0
C249 C 0.11344 0.75289 0.42568 0.0
N250 N 0.2063 0.69809 0.45155 0.0
N251 N 0.09366 0.93232 0.42252 0.0
C252 C 0.17186 0.75337 0.44884 0.0
C253 C 0.1143 0.87346 0.4337 0.0
N254 N 0.24243 0.8124 0.4953 0.0
N255 N 1.0183 0.80836 0.40304 0.0
H256 H 0.11607 0.97861 0.43208 0.0
H257 H 0.05774 0.93544 0.40196 0.0
H258 H 0.99211 0.7637 0.39331 0.0
H259 H 0.98915 0.84855 0.40132 0.0
H260 H 0.25588 0.7686 0.50631 0.0
H261 H 0.26175 0.85541 0.50951 0.0
H262 H 0.25369 0.69815 0.465 0.0
H263 H 0.19054 0.65345 0.43799 0.0
C264 C 0.60991 0.22249 0.86159 0.0
C265 C 0.6732 0.23654 0.84482 0.0
C266 C 0.65157 0.13014 0.81347 0.0
C267 C 0.5798 0.13379 0.81811 0.0
N268 N 0.49016 0.18258 0.85008 0.0
N269 N 0.76587 0.19307 0.81556 0.0
C270 C 0.55844 0.17796 0.84424 0.0
C271 C 0.69895 0.1847 0.82567 0.0
N272 N 0.59738 0.25663 0.89155 0.0
N273 N 0.67297 1.07644 0.79635 0.0
H274 H 0.79903 0.23456 0.82439 0.0
H275 H 0.7872 0.16083 0.79829 0.0
H276 H 0.63806 1.03591 0.78803 0.0
H277 H 0.72477 1.06971 0.79324 0.0
H278 H 0.55242 0.24632 0.90568 0.0
H279 H 0.63579 0.28983 0.90387 0.0
H280 H 0.4735 0.21921 0.86648 0.0
H281 H 0.44991 0.15354 0.83679 0.0
C282 C 0.48901 0.87897 0.51112 0.0
C283 C 0.54629 0.92659 0.52161 0.0
C284 C 0.61044 0.83016 0.53669 0.0
C285 C 0.54957 0.78473 0.5332 0.0
N286 N 0.42765 0.76883 0.5194 0.0
N287 N 0.65795 0.94211 0.55268 0.0
C288 C 0.488 0.81 0.52085 0.0
C289 C 0.60642 0.90063 0.5362 0.0
N290 N 0.43665 0.89847 0.4905 0.0
N291 N 0.67267 0.80573 0.54156 0.0
H292 H 0.65543 0.99263 0.55698 0.0
H293 H 0.6992 0.92482 0.56649 0.0
H294 H 0.67704 0.75469 0.54208 0.0
H295 H 0.71979 0.83558 0.54112 0.0
H296 H 0.39662 0.86524 0.47968 0.0
H297 H 0.43767 0.94631 0.48068 0.0
H298 H 0.37974 0.78592 0.51474 0.0
H299 H 0.42543 0.71836 0.52508 0.0
C300 C 0.86774 0.71997 0.86588 0.0
C301 C 0.83296 0.69384 0.83428 0.0
C302 C 0.93978 0.647 0.81767 0.0
C303 C 0.97421 0.67559 0.84859 0.0
N304 N 0.978 0.76208 0.89318 0.0
N305 N 0.84814 0.65718 0.77442 0.0
C306 C 0.94059 0.72074 0.86923 0.0
C307 C 0.8728 0.66492 0.80831 0.0
N308 N 0.83187 0.73766 0.89428 0.0
N309 N 0.96902 0.60097 0.79797 0.0
H310 H 0.80359 0.67743 0.76619 0.0
H311 H 0.87682 0.64 0.75403 0.0
H312 H 1.0179 0.58678 0.80381 0.0
H313 H 0.94241 0.57383 0.77728 0.0
H314 H 0.85577 0.75206 0.91854 0.0
H315 H 0.77858 0.72856 0.89546 0.0
H316 H 0.95643 0.79888 0.90747 0.0
H317 H 1.03178 0.76423 0.89537 0.0
C318 C 0.38698 1.05716 0.17432 0.0
C319 C 0.37379 0.98716 0.17754 0.0
C320 C 0.4738 0.98753 0.21829 0.0
C321 C 0.48248 1.0581 0.2179 0.0
N322 N 0.4431 0.16132 0.19916 0.0
N323 N 0.39804 0.88605 0.20599 0.0
C324 C 0.43805 1.09335 0.19678 0.0
C325 C 0.41558 0.95232 0.20037 0.0
N326 N 0.35167 1.08873 0.14923 0.0
N327 N 0.52217 0.95417 0.23514 0.0
H328 H 0.35607 0.85823 0.19321 0.0
H329 H 0.42163 0.85969 0.22533 0.0
H330 H 0.5653 0.97833 0.24874 0.0
H331 H 0.52287 0.90278 0.23319 0.0
H332 H 0.3638 0.13849 0.14299 0.0
H333 H 0.31365 1.06371 0.1325 0.0
H334 H 0.40741 0.18957 0.18748 0.0
H335 H 0.48023 0.18954 0.21509 0.0
C336 C 0.5831 0.42542 0.5123 0.0
C337 C 0.53843 0.37783 0.53116 0.0
C338 C 0.48696 0.47458 0.55737 0.0
C339 C 0.53821 0.52145 0.54309 0.0
N340 N 0.64364 0.53745 0.51112 0.0
N341 N 0.46232 0.36426 0.58057 0.0
C342 C 0.58853 0.49565 0.52162 0.0
C343 C 0.49396 0.40447 0.55594 0.0
N344 N 0.6189 0.40482 0.48447 0.0
N345 N 0.43096 0.49706 0.57271 0.0
H346 H 0.47224 0.31515 0.58401 0.0
H347 H 0.43422 0.38239 0.60093 0.0
H348 H 0.4234 0.54742 0.57368 0.0
H349 H 0.38886 0.46519 0.58079 0.0
H350 H 0.6465 0.43769 0.46784 0.0
H351 H 0.61521 0.35575 0.47548 0.0
H352 H 0.68629 0.52061 0.49917 0.0
H353 H 0.6494 0.58838 0.51699 0.0
C354 C 0.32284 0.6267 0.81207 0.0
C355 C 0.37496 0.64739 0.83807 0.0
C356 C 0.28533 0.67028 0.8792 0.0
C357 C 0.23265 0.64133 0.8552 0.0
N358 N 0.20383 0.58034 0.8005 0.0
N359 N 0.40377 0.66953 0.89964 0.0
C360 C 0.25196 0.61656 0.82192 0.0
C361 C 0.35557 0.66338 0.87262 0.0
N362 N 0.34068 0.61794 0.77792 0.0
N363 N 0.26843 0.70631 0.9079 0.0
H364 H 0.45539 0.66204 0.89624 0.0
H365 H 0.39094 0.67505 0.92592 0.0
H366 H 0.21838 0.71843 0.91165 0.0
H367 H 0.305 0.7306 0.92559 0.0
H368 H 0.3044 0.60964 0.7572 0.0
H369 H 0.39187 0.6244 0.77 0.0
H370 H 0.21644 0.55563 0.77764 0.0
H371 H 0.15229 0.56975 0.80719 0.0
C372 C 0.84139 0.20244 0.22971 0.0
C373 C 0.83832 0.25808 0.20769 0.0
C374 C 0.71228 0.24871 0.21218 0.0
C375 C 0.71494 0.19059 0.23235 0.0
N376 N 0.77969 1.10394 0.25414 0.0
N377 N 0.77062 0.32514 0.17149 0.0
C378 C 0.77889 0.16488 0.23921 0.0
C379 C 0.77358 0.27839 0.19689 0.0
N380 N 0.90377 0.18724 0.24283 0.0
N381 N 0.65193 0.27736 0.20895 0.0
H382 H 0.8145 0.34757 0.15945 0.0
H383 H 0.72445 0.33701 0.15998 0.0
H384 H 0.60591 0.25762 0.22002 0.0
H385 H 0.64882 0.32377 0.19791 0.0
H386 H 0.90865 0.15198 0.26213 0.0
H387 H 0.95075 0.21359 0.23658 0.0
H388 H 0.82402 1.07951 0.2565 0.0
H389 H 0.73478 1.07493 0.26127 0.0
C390 C 0.07866 0.52475 0.00821 0.0
C391 C 0.07362 0.58253 0.02965 0.0
C392 C 0.08455 0.65168 0.97741 0.0
C393 C 0.08119 0.59334 0.95572 0.0
N394 N 0.06554 0.47392 0.94965 0.0
N395 N 0.06119 0.70001 0.03382 0.0
C396 C 0.07522 0.52966 0.97088 0.0
C397 C 0.07379 0.64574 0.01401 0.0
N398 N 0.09123 0.46619 0.02329 0.0
N399 N 0.10026 0.71299 0.96323 0.0
H400 H 0.05382 0.69829 0.06077 0.0
H401 H 0.05215 0.74543 0.02307 0.0
H402 H 0.1081 0.71999 0.9365 0.0
H403 H 0.11172 0.75649 0.97837 0.0
H404 H 0.10204 0.42447 0.0088 0.0
H405 H 0.09853 0.46114 0.05033 0.0
H406 H 0.05324 0.42624 0.95919 0.0
H407 H 0.06427 0.47596 0.92221 0.0
C408 C 0.54021 1.09067 0.39353 0.0
C409 C 0.54393 0.15472 0.41016 0.0
C410 C 0.56487 0.2064 0.35294 0.0
C411 C 0.56934 0.14268 0.33738 0.0
N412 N 0.57707 1.02537 0.34488 0.0
N413 N 0.57357 0.27348 0.40655 0.0
C414 C 0.56201 1.08516 0.35833 0.0
C415 C 0.56028 0.21261 0.39009 0.0
N416 N 0.51157 1.0354 0.41018 0.0
N417 N 0.56211 0.26068 0.33222 0.0
H418 H 0.57167 0.27993 0.43374 0.0
H419 H 0.593 0.31627 0.39366 0.0
H420 H 0.56365 0.25813 0.30481 0.0
H421 H 0.55159 0.30694 0.34197 0.0
H422 H 0.502 0.98882 0.3977 0.0
H423 H 0.48943 1.03703 0.43478 0.0
H424 H 0.57919 0.98338 0.36022 0.0
H425 H 0.5943 1.01948 0.31935 0.0
C426 C 0.54175 0.7248 0.70494 0.0
C427 C 0.60077 0.70251 0.72179 0.0
C428 C 0.63728 0.66093 0.66488 0.0
C429 C 0.575 0.67733 0.64858 0.0
N430 N 0.46109 0.71224 0.65488 0.0
N431 N 0.69425 0.63376 0.7192 0.0
C432 C 0.52521 0.70579 0.66914 0.0
C433 C 0.64564 0.66614 0.70216 0.0
N434 N 0.50208 0.7651 0.72291 0.0
N435 N 0.68959 0.64257 0.6448 0.0
H436 H 0.69895 0.63375 0.74652 0.0
H437 H 0.72408 0.6012 0.70655 0.0
H438 H 0.68635 0.63949 0.61737 0.0
H439 H 0.7386 0.63666 0.65522 0.0
H440 H 0.46285 0.78867 0.71091 0.0
H441 H 0.51228 0.77972 0.74919 0.0
H442 H 0.42042 0.72637 0.66955 0.0
H443 H 0.44637 0.69712 0.62911 0.0
C444 C 0.59436 0.11613 0.64775 0.0
C445 C 0.54133 0.12059 0.62188 0.0
C446 C 0.45594 1.10966 0.66798 0.0
C447 C 0.50749 1.09406 0.69257 0.0
N448 N 0.62292 1.06094 0.70093 0.0
N449 N 0.42067 1.09347 0.6072 0.0
C450 C 0.57608 1.09085 0.68106 0.0
C451 C 0.47152 1.11029 0.63187 0.0
N452 N 0.6617 0.13745 0.64121 0.0
N453 N 0.39288 0.12457 0.6786 0.0
H454 H 0.43376 1.07943 0.58205 0.0
H455 H 0.36894 1.08166 0.61342 0.0
H456 H 0.38071 0.12877 0.70506 0.0
H457 H 0.35596 0.13985 0.66099 0.0
H458 H 0.70087 0.13887 0.6606 0.0
H459 H 0.67678 0.16136 0.61814 0.0
H460 H 0.6719 1.05376 0.69207 0.0
H461 H 0.60976 1.03595 0.72396 0.0
C462 C 0.58545 0.57137 0.94241 0.0
C463 C 0.61446 0.63242 0.92825 0.0
C464 C 0.62031 0.68437 0.98727 0.0
C465 C 0.60074 0.62118 0.00171 0.0
N466 N 0.57122 0.50281 -0.00605 0.0
N467 N 0.66464 0.74586 0.93725 0.0
C468 C 0.58495 0.56413 0.97954 0.0
C469 C 0.63281 0.6888 0.95069 0.0
N470 N 0.55554 0.52138 0.92046 0.0
N471 N 0.62567 0.74028 0.00847 0.0
H472 H 0.67377 0.75065 0.91057 0.0
H473 H 0.68668 0.78621 0.95265 0.0
H474 H 0.61752 0.73889 0.03549 0.0
H475 H 0.63235 0.78843 -0.00109 0.0
H476 H 0.52764 0.47839 0.92941 0.0
H477 H 0.55222 0.52565 0.89317 0.0
H478 H 0.56726 0.45851 0.97921 0.0
H479 H 0.56894 0.49582 0.02105 0.0
C480 C 0.14012 0.64266 0.25769 0.0
C481 C 0.07923 0.64695 0.23659 0.0
C482 C 1.01044 0.64436 0.28984 0.0
C483 C 0.07003 0.63356 0.31023 0.0
N484 N 0.18831 0.6086 0.31311 0.0
N485 N 0.95412 0.63836 0.23235 0.0
C486 C 0.13381 0.62804 0.29395 0.0
C487 C 1.01368 0.64382 0.25259 0.0
N488 N 0.20415 0.65744 0.24405 0.0
N489 N 0.95139 0.65785 0.30603 0.0
H490 H 0.95342 0.63776 0.205 0.0
H491 H 0.90512 0.62816 0.24266 0.0
H492 H 0.94658 0.65856 0.33331 0.0
H493 H 0.90916 0.67403 0.29257 0.0
H494 H 0.24969 0.66129 0.25936 0.0
H495 H 0.21204 0.67366 0.21849 0.0
H496 H 0.23382 0.59705 0.30176 0.0
H497 H 0.1855 0.59792 0.33984 0.0
loop_
_geom_bond_atom_site_label_1
_geom_bond_atom_site_label_2
_geom_bond_distance
_geom_bond_site_symmetry_2
_ccdc_geom_bond_type
Pr0 C2 2.880 . S
Pr0 O20 2.562 . S
Pr0 O21 2.490 . S
Pr0 O22 2.695 1_655 S
Pr0 O23 2.512 . S
Pr0 O25 2.437 . S
Pr0 O28 2.436 . S
Pr0 O30 2.438 1_655 S
Pr1 C11 2.880 . S
Pr1 O22 2.436 . S
Pr1 O24 2.438 1_455 S
Pr1 O26 2.562 . S
Pr1 O27 2.490 . S
Pr1 O28 2.695 1_455 S
Pr1 O29 2.512 . S
Pr1 O31 2.437 . S
C2 Pr0 2.880 . S
C2 C3 1.491 . S
C2 O20 1.254 . S
C2 O21 1.225 . S
C3 C2 1.491 . S
C3 C4 1.392 . S
C3 C8 1.356 . S
C4 C3 1.392 . S
C4 C5 1.368 . S
C4 H32 0.929 . S
C5 C4 1.368 . S
C5 C6 1.386 . S
C5 H33 0.929 . S
C6 C5 1.386 . S
C6 C7 1.373 . S
C7 C6 1.373 . S
C7 C8 1.409 . S
C7 H34 0.931 . S
C8 C3 1.356 . S
C8 C7 1.409 . S
C8 H35 0.930 . S
C9 O22 1.270 . S
C9 O23 1.248 1_455 S
C10 O24 1.267 . S
C10 O25 1.278 . S
C11 Pr1 2.880 . S
C11 C12 1.491 . S
C11 O26 1.254 . S
C11 O27 1.225 . S
C12 C11 1.491 . S
C12 C13 1.392 . S
C12 C17 1.356 . S
C13 C12 1.392 . S
C13 C14 1.368 . S
C13 H36 0.929 . S
C14 C13 1.368 . S
C14 C15 1.386 . S
C14 H37 0.929 . S
C15 C14 1.386 . S
C15 C16 1.373 . S
C16 C15 1.373 . S
C16 C17 1.409 . S
C16 H38 0.931 . S
C17 C12 1.356 . S
C17 C16 1.409 . S
C17 H39 0.930 . S
C18 O28 1.270 1_455 S
C18 O29 1.248 . S
C19 O30 1.267 . S
C19 O31 1.278 . S
O20 Pr0 2.562 . S
O20 C2 1.254 . S
O21 Pr0 2.490 . S
O21 C2 1.225 . S
O22 Pr0 2.695 1_455 S
O22 Pr1 2.436 . S
O22 C9 1.270 . S
O23 Pr0 2.512 . S
O23 C9 1.248 1_655 S
O24 Pr1 2.438 1_655 S
O24 C10 1.267 . S
O25 Pr0 2.437 . S
O25 C10 1.278 . S
O26 Pr1 2.562 . S
O26 C11 1.254 . S
O27 Pr1 2.490 . S
O27 C11 1.225 . S
O28 Pr0 2.436 . S
O28 Pr1 2.695 1_655 S
O28 C18 1.270 1_655 S
O29 Pr1 2.512 . S
O29 C18 1.248 . S
O30 Pr0 2.438 1_455 S
O30 C19 1.267 . S
O31 Pr1 2.437 . S
O31 C19 1.278 . S
H32 C4 0.929 . S
H33 C5 0.929 . S
H34 C7 0.931 . S
H35 C8 0.930 . S
H36 C13 0.929 . S
H37 C14 0.929 . S
H38 C16 0.931 . S
H39 C17 0.930 . S
Pr40 C42 2.880 . S
Pr40 O60 2.562 . S
Pr40 O61 2.490 . S
Pr40 O62 2.695 1_545 S
Pr40 O63 2.512 . S
Pr40 O65 2.437 . S
Pr40 O68 2.436 . S
Pr40 O70 2.438 1_545 S
Pr41 C51 2.880 . S
Pr41 O62 2.436 . S
Pr41 O64 2.438 1_565 S
Pr41 O66 2.562 . S
Pr41 O67 2.490 . S
Pr41 O68 2.695 1_565 S
Pr41 O69 2.512 . S
Pr41 O71 2.437 . S
C42 Pr40 2.880 . S
C42 C43 1.491 . S
C42 O60 1.254 . S
C42 O61 1.225 . S
C43 C42 1.491 . S
C43 C44 1.392 . S
C43 C48 1.356 . S
C44 C43 1.392 . S
C44 C45 1.368 . S
C44 H72 0.929 . S
C45 C44 1.368 . S
C45 C46 1.386 . S
C45 H73 0.929 . S
C46 C45 1.386 . S
C46 C47 1.373 . S
C47 C46 1.373 . S
C47 C48 1.409 . S
C47 H74 0.931 . S
C48 C43 1.356 . S
C48 C47 1.409 . S
C48 H75 0.930 . S
C49 O62 1.270 1_545 S
C49 O63 1.248 . S
C50 O64 1.267 . S
C50 O65 1.278 . S
C51 Pr41 2.880 . S
C51 C52 1.491 . S
C51 O66 1.254 . S
C51 O67 1.225 . S
C52 C51 1.491 . S
C52 C53 1.392 . S
C52 C57 1.356 . S
C53 C52 1.392 . S
C53 C54 1.368 . S
C53 H76 0.929 . S
C54 C53 1.368 . S
C54 C55 1.386 . S
C54 H77 0.929 . S
C55 C54 1.386 . S
C55 C56 1.373 . S
C56 C55 1.373 . S
C56 C57 1.409 . S
C56 H78 0.931 . S
C57 C52 1.356 . S
C57 C56 1.409 . S
C57 H79 0.930 . S
C58 O68 1.270 . S
C58 O69 1.248 1_545 S
C59 O70 1.267 . S
C59 O71 1.278 . S
O60 Pr40 2.562 . S
O60 C42 1.254 . S
O61 Pr40 2.490 . S
O61 C42 1.225 . S
O62 Pr40 2.695 1_565 S
O62 Pr41 2.436 . S
O62 C49 1.270 1_565 S
O63 Pr40 2.512 . S
O63 C49 1.248 . S
O64 Pr41 2.438 1_545 S
O64 C50 1.267 . S
O65 Pr40 2.437 . S
O65 C50 1.278 . S
O66 Pr41 2.562 . S
O66 C51 1.254 . S
O67 Pr41 2.490 . S
O67 C51 1.225 . S
O68 Pr40 2.436 . S
O68 Pr41 2.695 1_545 S
O68 C58 1.270 . S
O69 Pr41 2.512 . S
O69 C58 1.248 1_565 S
O70 Pr40 2.438 1_565 S
O70 C59 1.267 . S
O71 Pr41 2.437 . S
O71 C59 1.278 . S
H72 C44 0.929 . S
H73 C45 0.929 . S
H74 C47 0.931 . S
H75 C48 0.930 . S
H76 C53 0.929 . S
H77 C54 0.929 . S
H78 C56 0.931 . S
H79 C57 0.930 . S
Pr80 C82 2.880 . S
Pr80 O100 2.562 . S
Pr80 O101 2.490 . S
Pr80 O102 2.695 . S
Pr80 O103 2.512 . S
Pr80 O105 2.437 . S
Pr80 O108 2.436 . S
Pr80 O110 2.438 . S
Pr81 C91 2.880 . S
Pr81 O102 2.436 . S
Pr81 O104 2.438 . S
Pr81 O106 2.562 . S
Pr81 O107 2.490 . S
Pr81 O108 2.695 . S
Pr81 O109 2.512 . S
Pr81 O111 2.437 . S
C82 Pr80 2.880 . S
C82 C83 1.491 . S
C82 O100 1.254 . S
C82 O101 1.225 . S
C83 C82 1.491 . S
C83 C84 1.392 . S
C83 C88 1.356 . S
C84 C83 1.392 . S
C84 C85 1.368 . S
C84 H112 0.929 . S
C85 C84 1.368 . S
C85 C86 1.386 . S
C85 H113 0.929 . S
C86 C85 1.386 . S
C86 C87 1.373 . S
C87 C86 1.373 . S
C87 C88 1.409 . S
C87 H114 0.931 . S
C88 C83 1.356 . S
C88 C87 1.409 . S
C88 H115 0.930 . S
C89 O102 1.270 . S
C89 O103 1.248 . S
C90 O104 1.267 . S
C90 O105 1.278 . S
C91 Pr81 2.880 . S
C91 C92 1.491 . S
C91 O106 1.254 . S
C91 O107 1.225 . S
C92 C91 1.491 . S
C92 C93 1.392 . S
C92 C97 1.356 . S
C93 C92 1.392 . S
C93 C94 1.368 . S
C93 H116 0.929 . S
C94 C93 1.368 . S
C94 C95 1.386 . S
C94 H117 0.929 . S
C95 C94 1.386 . S
C95 C96 1.373 . S
C96 C95 1.373 . S
C96 C97 1.409 . S
C96 H118 0.931 . S
C97 C92 1.356 . S
C97 C96 1.409 . S
C97 H119 0.930 . S
C98 O108 1.270 . S
C98 O109 1.248 . S
C99 O110 1.267 . S
C99 O111 1.278 . S
O100 Pr80 2.562 . S
O100 C82 1.254 . S
O101 Pr80 2.490 . S
O101 C82 1.225 . S
O102 Pr80 2.695 . S
O102 Pr81 2.436 . S
O102 C89 1.270 . S
O103 Pr80 2.512 . S
O103 C89 1.248 . S
O104 Pr81 2.438 . S
O104 C90 1.267 . S
O105 Pr80 2.437 . S
O105 C90 1.278 . S
O106 Pr81 2.562 . S
O106 C91 1.254 . S
O107 Pr81 2.490 . S
O107 C91 1.225 . S
O108 Pr80 2.436 . S
O108 Pr81 2.695 . S
O108 C98 1.270 . S
O109 Pr81 2.512 . S
O109 C98 1.248 . S
O110 Pr80 2.438 . S
O110 C99 1.267 . S
O111 Pr81 2.437 . S
O111 C99 1.278 . S
H112 C84 0.929 . S
H113 C85 0.929 . S
H114 C87 0.931 . S
H115 C88 0.930 . S
H116 C93 0.929 . S
H117 C94 0.929 . S
H118 C96 0.931 . S
H119 C97 0.930 . S
H120 C123 0.931 . S
H121 C126 0.928 . S
H122 C128 0.930 . S
C123 H120 0.931 . S
C123 C124 1.413 . S
C123 C125 1.360 1_565 S
C124 C123 1.413 . S
C124 C128 1.429 1_565 S
C125 C123 1.360 1_545 S
C125 C126 1.372 . S
C126 H121 0.928 . S
C126 C125 1.372 . S
C126 C127 1.404 . S
C127 C126 1.404 . S
C127 C128 1.391 . S
C128 H122 0.930 . S
C128 C124 1.429 1_545 S
C128 C127 1.391 . S
H129 C132 0.931 . S
H130 C135 0.928 . S
H131 C137 0.930 . S
C132 H129 0.931 . S
C132 C133 1.413 . S
C132 C134 1.360 . S
C133 C132 1.413 . S
C133 C137 1.429 . S
C134 C132 1.360 . S
C134 C135 1.372 . S
C135 H130 0.928 . S
C135 C134 1.372 . S
C135 C136 1.404 . S
C136 C135 1.404 . S
C136 C137 1.391 . S
C137 H131 0.930 . S
C137 C133 1.429 . S
C137 C136 1.391 . S
H138 C141 0.931 . S
H139 C144 0.928 . S
H140 C146 0.930 . S
C141 H138 0.931 . S
C141 C142 1.413 . S
C141 C143 1.360 1_655 S
C142 C141 1.413 . S
C142 C146 1.429 1_655 S
C143 C141 1.360 1_455 S
C143 C144 1.372 . S
C144 H139 0.928 . S
C144 C143 1.372 . S
C144 C145 1.404 . S
C145 C144 1.404 . S
C145 C146 1.391 . S
C146 H140 0.930 . S
C146 C142 1.429 1_455 S
C146 C145 1.391 . S
H147 C150 0.931 . S
H148 C153 0.928 . S
H149 C155 0.930 . S
C150 H147 0.931 . S
C150 C151 1.413 . S
C150 C152 1.360 . S
C151 C150 1.413 . S
C151 C155 1.429 1_655 S
C152 C150 1.360 . S
C152 C153 1.372 1_655 S
C153 H148 0.928 . S
C153 C152 1.372 1_455 S
C153 C154 1.404 . S
C154 C153 1.404 . S
C154 C155 1.391 . S
C155 H149 0.930 . S
C155 C151 1.429 1_455 S
C155 C154 1.391 . S
H156 C159 0.931 . S
H157 C162 0.928 . S
H158 C164 0.930 . S
C159 H156 0.931 . S
C159 C160 1.413 . S
C159 C161 1.360 . S
C160 C159 1.413 . S
C160 C164 1.443 . S
C161 C159 1.360 . S
C161 C162 1.372 1_545 S
C162 H157 0.928 . S
C162 C161 1.372 1_565 S
C162 C163 1.404 . S
C163 C162 1.404 . S
C163 C164 1.377 1_565 S
C164 H158 0.930 . S
C164 C160 1.443 . S
C164 C163 1.377 1_545 S
H165 C168 0.931 . S
H166 C171 0.928 . S
H167 C173 0.930 . S
C168 H165 0.931 . S
C168 C169 1.413 . S
C168 C170 1.360 . S
C169 C168 1.413 . S
C169 C173 1.429 . S
C170 C168 1.360 . S
C170 C171 1.372 . S
C171 H166 0.928 . S
C171 C170 1.372 . S
C171 C172 1.404 . S
C172 C171 1.404 . S
C172 C173 1.391 . S
C173 H167 0.930 . S
C173 C169 1.429 . S
C173 C172 1.391 . S
C174 C175 1.363 . S
C174 C180 1.379 . S
C174 N182 1.356 . S
C175 C174 1.363 . S
C175 C181 1.363 . S
C176 C177 1.363 . S
C176 C181 1.379 . S
C176 N183 1.356 . S
C177 C176 1.363 . S
C177 C180 1.363 . S
N178 C180 1.356 . S
N178 H190 0.984 . S
N178 H191 0.985 . S
N179 C181 1.356 . S
N179 H184 0.984 . S
N179 H185 0.985 . S
C180 C174 1.379 . S
C180 C177 1.363 . S
C180 N178 1.356 . S
C181 C175 1.363 . S
C181 C176 1.379 . S
C181 N179 1.356 . S
N182 C174 1.356 . S
N182 H188 0.984 . S
N182 H189 0.984 . S
N183 C176 1.356 . S
N183 H186 0.984 . S
N183 H187 0.985 . S
H184 N179 0.984 . S
H185 N179 0.985 . S
H186 N183 0.984 . S
H187 N183 0.985 . S
H188 N182 0.984 . S
H189 N182 0.984 . S
H190 N178 0.984 . S
H191 N178 0.985 . S
C192 C193 1.363 . S
C192 C198 1.379 . S
C192 N200 1.356 . S
C193 C192 1.363 . S
C193 C199 1.363 . S
C194 C195 1.363 . S
C194 C199 1.379 . S
C194 N201 1.356 1_655 S
C195 C194 1.363 . S
C195 C198 1.363 . S
N196 C198 1.356 . S
N196 H208 0.984 . S
N196 H209 0.985 . S
N197 C199 1.356 . S
N197 H202 0.984 . S
N197 H203 0.985 1_655 S
C198 C192 1.379 . S
C198 C195 1.363 . S
C198 N196 1.356 . S
C199 C193 1.363 . S
C199 C194 1.379 . S
C199 N197 1.356 . S
N200 C192 1.356 . S
N200 H206 0.984 . S
N200 H207 0.984 . S
N201 C194 1.356 1_455 S
N201 H204 0.984 . S
N201 H205 0.985 . S
H202 N197 0.984 . S
H203 N197 0.985 1_455 S
H204 N201 0.984 . S
H205 N201 0.985 . S
H206 N200 0.984 . S
H207 N200 0.984 . S
H208 N196 0.984 . S
H209 N196 0.985 . S
C210 C211 1.363 . S
C210 C216 1.379 . S
C210 N218 1.356 . S
C211 C210 1.363 . S
C211 C217 1.363 . S
C212 C213 1.363 . S
C212 C217 1.379 . S
C212 N219 1.356 . S
C213 C212 1.363 . S
C213 C216 1.363 . S
N214 C216 1.356 . S
N214 H226 0.984 . S
N214 H227 0.985 . S
N215 C217 1.356 . S
N215 H220 0.984 . S
N215 H221 0.985 . S
C216 C210 1.379 . S
C216 C213 1.363 . S
C216 N214 1.356 . S
C217 C211 1.363 . S
C217 C212 1.379 . S
C217 N215 1.356 . S
N218 C210 1.356 . S
N218 H224 0.984 . S
N218 H225 0.984 . S
N219 C212 1.356 . S
N219 H222 0.984 1_565 S
N219 H223 0.985 1_565 S
H220 N215 0.984 . S
H221 N215 0.985 . S
H222 N219 0.984 1_545 S
H223 N219 0.985 1_545 S
H224 N218 0.984 . S
H225 N218 0.984 . S
H226 N214 0.984 . S
H227 N214 0.985 . S
C228 C229 1.363 . S
C228 C234 1.379 . S
C228 N236 1.356 . S
C229 C228 1.363 . S
C229 C235 1.363 . S
C230 C231 1.363 . S
C230 C235 1.379 . S
C230 N237 1.356 . S
C231 C230 1.363 . S
C231 C234 1.363 . S
N232 C234 1.356 . S
N232 H244 0.984 . S
N232 H245 0.985 . S
N233 C235 1.356 . S
N233 H238 0.984 . S
N233 H239 0.985 . S
C234 C228 1.379 . S
C234 C231 1.363 . S
C234 N232 1.356 . S
C235 C229 1.363 . S
C235 C230 1.379 . S
C235 N233 1.356 . S
N236 C228 1.356 . S
N236 H242 0.984 . S
N236 H243 0.984 . S
N237 C230 1.356 . S
N237 H240 0.984 . S
N237 H241 0.985 . S
H238 N233 0.984 . S
H239 N233 0.985 . S
H240 N237 0.984 . S
H241 N237 0.985 . S
H242 N236 0.984 . S
H243 N236 0.984 . S
H244 N232 0.984 . S
H245 N232 0.985 . S
C246 C247 1.363 . S
C246 C252 1.379 . S
C246 N254 1.356 . S
C247 C246 1.363 . S
C247 C253 1.363 . S
C248 C249 1.363 . S
C248 C253 1.379 . S
C248 N255 1.356 . S
C249 C248 1.363 . S
C249 C252 1.363 . S
N250 C252 1.356 . S
N250 H262 0.984 . S
N250 H263 0.985 . S
N251 C253 1.356 . S
N251 H256 0.984 . S
N251 H257 0.985 . S
C252 C246 1.379 . S
C252 C249 1.363 . S
C252 N250 1.356 . S
C253 C247 1.363 . S
C253 C248 1.379 . S
C253 N251 1.356 . S
N254 C246 1.356 . S
N254 H260 0.984 . S
N254 H261 0.984 . S
N255 C248 1.356 . S
N255 H258 0.984 . S
N255 H259 0.985 . S
H256 N251 0.984 . S
H257 N251 0.985 . S
H258 N255 0.984 . S
H259 N255 0.985 . S
H260 N254 0.984 . S
H261 N254 0.984 . S
H262 N250 0.984 . S
H263 N250 0.985 . S
C264 C265 1.363 . S
C264 C270 1.379 . S
C264 N272 1.356 . S
C265 C264 1.363 . S
C265 C271 1.363 . S
C266 C267 1.363 . S
C266 C271 1.379 . S
C266 N273 1.356 . S
C267 C266 1.363 . S
C267 C270 1.363 . S
N268 C270 1.356 . S
N268 H280 0.984 . S
N268 H281 0.985 . S
N269 C271 1.356 . S
N269 H274 0.984 . S
N269 H275 0.985 . S
C270 C264 1.379 . S
C270 C267 1.363 . S
C270 N268 1.356 . S
C271 C265 1.363 . S
C271 C266 1.379 . S
C271 N269 1.356 . S
N272 C264 1.356 . S
N272 H278 0.984 . S
N272 H279 0.984 . S
N273 C266 1.356 . S
N273 H276 0.984 . S
N273 H277 0.985 . S
H274 N269 0.984 . S
H275 N269 0.985 . S
H276 N273 0.984 . S
H277 N273 0.985 . S
H278 N272 0.984 . S
H279 N272 0.984 . S
H280 N268 0.984 . S
H281 N268 0.985 . S
C282 C283 1.363 . S
C282 C288 1.379 . S
C282 N290 1.356 . S
C283 C282 1.363 . S
C283 C289 1.363 . S
C284 C285 1.363 . S
C284 C289 1.379 . S
C284 N291 1.356 . S
C285 C284 1.363 . S
C285 C288 1.363 . S
N286 C288 1.356 . S
N286 H298 0.984 . S
N286 H299 0.985 . S
N287 C289 1.356 . S
N287 H292 0.984 . S
N287 H293 0.985 . S
C288 C282 1.379 . S
C288 C285 1.363 . S
C288 N286 1.356 . S
C289 C283 1.363 . S
C289 C284 1.379 . S
C289 N287 1.356 . S
N290 C282 1.356 . S
N290 H296 0.984 . S
N290 H297 0.984 . S
N291 C284 1.356 . S
N291 H294 0.984 . S
N291 H295 0.985 . S
H292 N287 0.984 . S
H293 N287 0.985 . S
H294 N291 0.984 . S
H295 N291 0.985 . S
H296 N290 0.984 . S
H297 N290 0.984 . S
H298 N286 0.984 . S
H299 N286 0.985 . S
C300 C301 1.363 . S
C300 C306 1.379 . S
C300 N308 1.356 . S
C301 C300 1.363 . S
C301 C307 1.363 . S
C302 C303 1.363 . S
C302 C307 1.379 . S
C302 N309 1.356 . S
C303 C302 1.363 . S
C303 C306 1.363 . S
N304 C306 1.356 . S
N304 H316 0.984 . S
N304 H317 0.985 . S
N305 C307 1.356 . S
N305 H310 0.984 . S
N305 H311 0.985 . S
C306 C300 1.379 . S
C306 C303 1.363 . S
C306 N304 1.356 . S
C307 C301 1.363 . S
C307 C302 1.379 . S
C307 N305 1.356 . S
N308 C300 1.356 . S
N308 H314 0.984 . S
N308 H315 0.984 . S
N309 C302 1.356 . S
N309 H312 0.984 . S
N309 H313 0.985 . S
H310 N305 0.984 . S
H311 N305 0.985 . S
H312 N309 0.984 . S
H313 N309 0.985 . S
H314 N308 0.984 . S
H315 N308 0.984 . S
H316 N304 0.984 . S
H317 N304 0.985 . S
C318 C319 1.363 . S
C318 C324 1.379 . S
C318 N326 1.356 . S
C319 C318 1.363 . S
C319 C325 1.363 . S
C320 C321 1.363 . S
C320 C325 1.379 . S
C320 N327 1.356 . S
C321 C320 1.363 . S
C321 C324 1.363 . S
N322 C324 1.356 . S
N322 H334 0.984 1_565 S
N322 H335 0.985 1_565 S
N323 C325 1.356 . S
N323 H328 0.984 . S
N323 H329 0.985 . S
C324 C318 1.379 . S
C324 C321 1.363 . S
C324 N322 1.356 . S
C325 C319 1.363 . S
C325 C320 1.379 . S
C325 N323 1.356 . S
N326 C318 1.356 . S
N326 H332 0.984 . S
N326 H333 0.984 . S
N327 C320 1.356 . S
N327 H330 0.984 . S
N327 H331 0.985 . S
H328 N323 0.984 . S
H329 N323 0.985 . S
H330 N327 0.984 . S
H331 N327 0.985 . S
H332 N326 0.984 . S
H333 N326 0.984 . S
H334 N322 0.984 1_545 S
H335 N322 0.985 1_545 S
C336 C337 1.363 . S
C336 C342 1.379 . S
C336 N344 1.356 . S
C337 C336 1.363 . S
C337 C343 1.363 . S
C338 C339 1.363 . S
C338 C343 1.379 . S
C338 N345 1.356 . S
C339 C338 1.363 . S
C339 C342 1.363 . S
N340 C342 1.356 . S
N340 H352 0.984 . S
N340 H353 0.985 . S
N341 C343 1.356 . S
N341 H346 0.984 . S
N341 H347 0.985 . S
C342 C336 1.379 . S
C342 C339 1.363 . S
C342 N340 1.356 . S
C343 C337 1.363 . S
C343 C338 1.379 . S
C343 N341 1.356 . S
N344 C336 1.356 . S
N344 H350 0.984 . S
N344 H351 0.984 . S
N345 C338 1.356 . S
N345 H348 0.984 . S
N345 H349 0.985 . S
H346 N341 0.984 . S
H347 N341 0.985 . S
H348 N345 0.984 . S
H349 N345 0.985 . S
H350 N344 0.984 . S
H351 N344 0.984 . S
H352 N340 0.984 . S
H353 N340 0.985 . S
C354 C355 1.363 . S
C354 C360 1.379 . S
C354 N362 1.356 . S
C355 C354 1.363 . S
C355 C361 1.363 . S
C356 C357 1.363 . S
C356 C361 1.379 . S
C356 N363 1.356 . S
C357 C356 1.363 . S
C357 C360 1.363 . S
N358 C360 1.356 . S
N358 H370 0.984 . S
N358 H371 0.985 . S
N359 C361 1.356 . S
N359 H364 0.984 . S
N359 H365 0.985 . S
C360 C354 1.379 . S
C360 C357 1.363 . S
C360 N358 1.356 . S
C361 C355 1.363 . S
C361 C356 1.379 . S
C361 N359 1.356 . S
N362 C354 1.356 . S
N362 H368 0.984 . S
N362 H369 0.984 . S
N363 C356 1.356 . S
N363 H366 0.984 . S
N363 H367 0.985 . S
H364 N359 0.984 . S
H365 N359 0.985 . S
H366 N363 0.984 . S
H367 N363 0.985 . S
H368 N362 0.984 . S
H369 N362 0.984 . S
H370 N358 0.984 . S
H371 N358 0.985 . S
C372 C373 1.363 . S
C372 C378 1.379 . S
C372 N380 1.356 . S
C373 C372 1.363 . S
C373 C379 1.363 . S
C374 C375 1.363 . S
C374 C379 1.379 . S
C374 N381 1.356 . S
C375 C374 1.363 . S
C375 C378 1.363 . S
N376 C378 1.356 . S
N376 H388 0.984 . S
N376 H389 0.985 . S
N377 C379 1.356 . S
N377 H382 0.984 . S
N377 H383 0.985 . S
C378 C372 1.379 . S
C378 C375 1.363 . S
C378 N376 1.356 . S
C379 C373 1.363 . S
C379 C374 1.379 . S
C379 N377 1.356 . S
N380 C372 1.356 . S
N380 H386 0.984 . S
N380 H387 0.984 . S
N381 C374 1.356 . S
N381 H384 0.984 . S
N381 H385 0.985 . S
H382 N377 0.984 . S
H383 N377 0.985 . S
H384 N381 0.984 . S
H385 N381 0.985 . S
H386 N380 0.984 . S
H387 N380 0.984 . S
H388 N376 0.984 . S
H389 N376 0.985 . S
C390 C391 1.363 . S
C390 C396 1.379 1_554 S
C390 N398 1.356 . S
C391 C390 1.363 . S
C391 C397 1.363 . S
C392 C393 1.363 . S
C392 C397 1.379 1_556 S
C392 N399 1.356 . S
C393 C392 1.363 . S
C393 C396 1.363 . S
N394 C396 1.356 . S
N394 H406 0.984 . S
N394 H407 0.985 . S
N395 C397 1.356 1_655 S
N395 H400 0.984 . S
N395 H401 0.985 . S
C396 C390 1.379 1_556 S
C396 C393 1.363 . S
C396 N394 1.356 . S
C397 C391 1.363 . S
C397 C392 1.379 1_554 S
C397 N395 1.356 1_455 S
N398 C390 1.356 . S
N398 H404 0.984 . S
N398 H405 0.984 . S
N399 C392 1.356 . S
N399 H402 0.984 . S
N399 H403 0.985 1_455 S
H400 N395 0.984 . S
H401 N395 0.985 . S
H402 N399 0.984 . S
H403 N399 0.985 1_655 S
H404 N398 0.984 . S
H405 N398 0.984 . S
H406 N394 0.984 . S
H407 N394 0.985 . S
C408 C409 1.363 1_565 S
C408 C414 1.379 . S
C408 N416 1.356 . S
C409 C408 1.363 1_545 S
C409 C415 1.363 . S
C410 C411 1.363 . S
C410 C415 1.379 . S
C410 N417 1.356 . S
C411 C410 1.363 . S
C411 C414 1.363 1_545 S
N412 C414 1.356 . S
N412 H424 0.984 . S
N412 H425 0.985 . S
N413 C415 1.356 . S
N413 H418 0.984 . S
N413 H419 0.985 . S
C414 C408 1.379 . S
C414 C411 1.363 1_565 S
C414 N412 1.356 . S
C415 C409 1.363 . S
C415 C410 1.379 . S
C415 N413 1.356 . S
N416 C408 1.356 . S
N416 H422 0.984 . S
N416 H423 0.984 . S
N417 C410 1.356 . S
N417 H420 0.984 . S
N417 H421 0.985 . S
H418 N413 0.984 . S
H419 N413 0.985 . S
H420 N417 0.984 . S
H421 N417 0.985 . S
H422 N416 0.984 . S
H423 N416 0.984 . S
H424 N412 0.984 . S
H425 N412 0.985 . S
C426 C427 1.363 . S
C426 C432 1.379 . S
C426 N434 1.356 . S
C427 C426 1.363 . S
C427 C433 1.363 . S
C428 C429 1.363 . S
C428 C433 1.379 . S
C428 N435 1.356 . S
C429 C428 1.363 . S
C429 C432 1.363 . S
N430 C432 1.356 . S
N430 H442 0.984 . S
N430 H443 0.985 . S
N431 C433 1.356 . S
N431 H436 0.984 . S
N431 H437 0.985 . S
C432 C426 1.379 . S
C432 C429 1.363 . S
C432 N430 1.356 . S
C433 C427 1.363 . S
C433 C428 1.379 . S
C433 N431 1.356 . S
N434 C426 1.356 . S
N434 H440 0.984 . S
N434 H441 0.984 . S
N435 C428 1.356 . S
N435 H438 0.984 . S
N435 H439 0.985 . S
H436 N431 0.984 . S
H437 N431 0.985 . S
H438 N435 0.984 . S
H439 N435 0.985 . S
H440 N434 0.984 . S
H441 N434 0.984 . S
H442 N430 0.984 . S
H443 N430 0.985 . S
C444 C445 1.363 . S
C444 C450 1.379 . S
C444 N452 1.356 . S
C445 C444 1.363 . S
C445 C451 1.363 1_545 S
C446 C447 1.363 1_565 S
C446 C451 1.379 . S
C446 N453 1.356 . S
C447 C446 1.363 1_545 S
C447 C450 1.363 . S
N448 C450 1.356 . S
N448 H460 0.984 . S
N448 H461 0.985 . S
N449 C451 1.356 . S
N449 H454 0.984 . S
N449 H455 0.985 . S
C450 C444 1.379 . S
C450 C447 1.363 . S
C450 N448 1.356 . S
C451 C445 1.363 1_565 S
C451 C446 1.379 . S
C451 N449 1.356 . S
N452 C444 1.356 . S
N452 H458 0.984 . S
N452 H459 0.984 . S
N453 C446 1.356 . S
N453 H456 0.984 . S
N453 H457 0.985 . S
H454 N449 0.984 . S
H455 N449 0.985 . S
H456 N453 0.984 . S
H457 N453 0.985 . S
H458 N452 0.984 . S
H459 N452 0.984 . S
H460 N448 0.984 . S
H461 N448 0.985 . S
C462 C463 1.363 . S
C462 C468 1.379 1_556 S
C462 N470 1.356 . S
C463 C462 1.363 . S
C463 C469 1.363 . S
C464 C465 1.363 . S
C464 C469 1.379 1_554 S
C464 N471 1.356 . S
C465 C464 1.363 . S
C465 C468 1.363 . S
N466 C468 1.356 . S
N466 H478 0.984 . S
N466 H479 0.985 . S
N467 C469 1.356 . S
N467 H472 0.984 . S
N467 H473 0.985 . S
C468 C462 1.379 1_554 S
C468 C465 1.363 . S
C468 N466 1.356 . S
C469 C463 1.363 . S
C469 C464 1.379 1_556 S
C469 N467 1.356 . S
N470 C462 1.356 . S
N470 H476 0.984 . S
N470 H477 0.984 . S
N471 C464 1.356 . S
N471 H474 0.984 . S
N471 H475 0.985 . S
H472 N467 0.984 . S
H473 N467 0.985 . S
H474 N471 0.984 . S
H475 N471 0.985 . S
H476 N470 0.984 . S
H477 N470 0.984 . S
H478 N466 0.984 . S
H479 N466 0.985 . S
C480 C481 1.363 . S
C480 C486 1.379 . S
C480 N488 1.356 . S
C481 C480 1.363 . S
C481 C487 1.363 1_455 S
C482 C483 1.363 . S
C482 C487 1.379 . S
C482 N489 1.356 . S
C483 C482 1.363 . S
C483 C486 1.363 1_655 S
N484 C486 1.356 . S
N484 H496 0.984 . S
N484 H497 0.985 . S
N485 C487 1.356 . S
N485 H490 0.984 . S
N485 H491 0.985 . S
C486 C480 1.379 . S
C486 C483 1.363 1_455 S
C486 N484 1.356 . S
C487 C481 1.363 1_655 S
C487 C482 1.379 . S
C487 N485 1.356 . S
N488 C480 1.356 . S
N488 H494 0.984 . S
N488 H495 0.984 . S
N489 C482 1.356 . S
N489 H492 0.984 . S
N489 H493 0.985 . S
H490 N485 0.984 . S
H491 N485 0.985 . S
H492 N489 0.984 . S
H493 N489 0.985 . S
H494 N488 0.984 . S
H495 N488 0.984 . S
H496 N484 0.984 . S
H497 N484 0.985 . S
C175 C19 1.877 . S
C177 C169 1.851 . S
C193 C46 1.642 . S
C195 C151 1.761 . S
C211 C95 0.969 . S
C213 C163 1.133 . S
C229 C10 1.889 . S
C231 C172 1.860 . S
C249 C154 1.596 . S
C247 C55 1.491 . S
C267 C160 1.393 . S
C265 C86 1.206 . S
C283 C59 3.045 . S
C285 C133 3.008 . S
C301 C90 1.923 . S
C303 C142 1.938 . S
C319 C15 1.538 . S
C321 C124 1.668 . S
C339 C136 2.989 . S
C337 C50 2.983 . S
C357 C145 1.872 . S
C355 C99 1.878 . S
C373 C6 1.457 . S
C375 C127 1.550 . S
C393 C143 1.335 . S
C391 C9 1.285 . S
C409 C58 1.423 . S
C411 C125 1.493 . S
C427 C98 1.738 . S
C429 C134 1.812 . S
C447 C161 0.975 . S
C445 C49 0.979 . S
C465 C170 1.310 . S
C463 C89 1.269 . S
C481 C18 1.410 . S
C483 C152 1.456 . S
