# Generated by pormake.
# Topology eea, (3,6)-cn, num edge types: 1
# Building blocks:
#     Node 0, Type 0, BuildingBlock: VETTIZ_charged_linker_0, # of connection points: 3
#     Node 1, Type 0, BuildingBlock: VETTIZ_charged_linker_0, # of connection points: 3
#     Node 2, Type 0, BuildingBlock: VETTIZ_charged_linker_0, # of connection points: 3
#     Node 3, Type 0, BuildingBlock: VETTIZ_charged_linker_0, # of connection points: 3
#     Node 4, Type 0, BuildingBlock: VETTIZ_charged_linker_0, # of connection points: 3
#     Node 5, Type 0, BuildingBlock: VETTIZ_charged_linker_0, # of connection points: 3
#     Node 6, Type 0, BuildingBlock: VETTIZ_charged_linker_0, # of connection points: 3
#     Node 7, Type 0, BuildingBlock: VETTIZ_charged_linker_0, # of connection points: 3
#     Node 8, Type 0, BuildingBlock: VETTIZ_charged_linker_0, # of connection points: 3
#     Node 9, Type 0, BuildingBlock: VETTIZ_charged_linker_0, # of connection points: 3
#     Node 10, Type 0, BuildingBlock: VETTIZ_charged_linker_0, # of connection points: 3
#     Node 11, Type 0, BuildingBlock: VETTIZ_charged_linker_0, # of connection points: 3
#     Node 12, Type 0, BuildingBlock: VETTIZ_charged_linker_0, # of connection points: 3
#     Node 13, Type 0, BuildingBlock: VETTIZ_charged_linker_0, # of connection points: 3
#     Node 14, Type 0, BuildingBlock: VETTIZ_charged_linker_0, # of connection points: 3
#     Node 15, Type 0, BuildingBlock: VETTIZ_charged_linker_0, # of connection points: 3
#     Node 16, Type 0, BuildingBlock: VETTIZ_charged_linker_0, # of connection points: 3
#     Node 17, Type 0, BuildingBlock: VETTIZ_charged_linker_0, # of connection points: 3
#     Node 18, Type 1, BuildingBlock: KUMBOL_clean_sbu_0, # of connection points: 6
#     Node 19, Type 1, BuildingBlock: KUMBOL_clean_sbu_0, # of connection points: 6
#     Node 20, Type 1, BuildingBlock: KUMBOL_clean_sbu_0, # of connection points: 6
#     Node 21, Type 1, BuildingBlock: KUMBOL_clean_sbu_0, # of connection points: 6
#     Node 22, Type 1, BuildingBlock: KUMBOL_clean_sbu_0, # of connection points: 6
#     Node 23, Type 1, BuildingBlock: KUMBOL_clean_sbu_0, # of connection points: 6
#     Node 24, Type 1, BuildingBlock: KUMBOL_clean_sbu_0, # of connection points: 6
#     Node 25, Type 1, BuildingBlock: KUMBOL_clean_sbu_0, # of connection points: 6
#     Node 26, Type 1, BuildingBlock: KUMBOL_clean_sbu_0, # of connection points: 6
#     Edge 27, Type (0, 1), BuildingBlock: ZUJKAS_clean_linker_0, # of connection points: 2
#     Edge 28, Type (0, 1), BuildingBlock: ZUJKAS_clean_linker_0, # of connection points: 2
#     Edge 29, Type (0, 1), BuildingBlock: ZUJKAS_clean_linker_0, # of connection points: 2
#     Edge 30, Type (0, 1), BuildingBlock: ZUJKAS_clean_linker_0, # of connection points: 2
#     Edge 31, Type (0, 1), BuildingBlock: ZUJKAS_clean_linker_0, # of connection points: 2
#     Edge 32, Type (0, 1), BuildingBlock: ZUJKAS_clean_linker_0, # of connection points: 2
#     Edge 33, Type (0, 1), BuildingBlock: ZUJKAS_clean_linker_0, # of connection points: 2
#     Edge 34, Type (0, 1), BuildingBlock: ZUJKAS_clean_linker_0, # of connection points: 2
#     Edge 35, Type (0, 1), BuildingBlock: ZUJKAS_clean_linker_0, # of connection points: 2
#     Edge 36, Type (0, 1), BuildingBlock: ZUJKAS_clean_linker_0, # of connection points: 2
#     Edge 37, Type (0, 1), BuildingBlock: ZUJKAS_clean_linker_0, # of connection points: 2
#     Edge 38, Type (0, 1), BuildingBlock: ZUJKAS_clean_linker_0, # of connection points: 2
#     Edge 39, Type (0, 1), BuildingBlock: ZUJKAS_clean_linker_0, # of connection points: 2
#     Edge 40, Type (0, 1), BuildingBlock: ZUJKAS_clean_linker_0, # of connection points: 2
#     Edge 41, Type (0, 1), BuildingBlock: ZUJKAS_clean_linker_0, # of connection points: 2
#     Edge 42, Type (0, 1), BuildingBlock: ZUJKAS_clean_linker_0, # of connection points: 2
#     Edge 43, Type (0, 1), BuildingBlock: ZUJKAS_clean_linker_0, # of connection points: 2
#     Edge 44, Type (0, 1), BuildingBlock: ZUJKAS_clean_linker_0, # of connection points: 2
#     Edge 45, Type (0, 1), BuildingBlock: ZUJKAS_clean_linker_0, # of connection points: 2
#     Edge 46, Type (0, 1), BuildingBlock: ZUJKAS_clean_linker_0, # of connection points: 2
#     Edge 47, Type (0, 1), BuildingBlock: ZUJKAS_clean_linker_0, # of connection points: 2
#     Edge 48, Type (0, 1), BuildingBlock: ZUJKAS_clean_linker_0, # of connection points: 2
#     Edge 49, Type (0, 1), BuildingBlock: ZUJKAS_clean_linker_0, # of connection points: 2
#     Edge 50, Type (0, 1), BuildingBlock: ZUJKAS_clean_linker_0, # of connection points: 2
#     Edge 51, Type (0, 1), BuildingBlock: ZUJKAS_clean_linker_0, # of connection points: 2
#     Edge 52, Type (0, 1), BuildingBlock: ZUJKAS_clean_linker_0, # of connection points: 2
#     Edge 53, Type (0, 1), BuildingBlock: ZUJKAS_clean_linker_0, # of connection points: 2
#     Edge 54, Type (0, 1), BuildingBlock: ZUJKAS_clean_linker_0, # of connection points: 2
#     Edge 55, Type (0, 1), BuildingBlock: ZUJKAS_clean_linker_0, # of connection points: 2
#     Edge 56, Type (0, 1), BuildingBlock: ZUJKAS_clean_linker_0, # of connection points: 2
#     Edge 57, Type (0, 1), BuildingBlock: ZUJKAS_clean_linker_0, # of connection points: 2
#     Edge 58, Type (0, 1), BuildingBlock: ZUJKAS_clean_linker_0, # of connection points: 2
#     Edge 59, Type (0, 1), BuildingBlock: ZUJKAS_clean_linker_0, # of connection points: 2
#     Edge 60, Type (0, 1), BuildingBlock: ZUJKAS_clean_linker_0, # of connection points: 2
#     Edge 61, Type (0, 1), BuildingBlock: ZUJKAS_clean_linker_0, # of connection points: 2
#     Edge 62, Type (0, 1), BuildingBlock: ZUJKAS_clean_linker_0, # of connection points: 2
#     Edge 63, Type (0, 1), BuildingBlock: ZUJKAS_clean_linker_0, # of connection points: 2
#     Edge 64, Type (0, 1), BuildingBlock: ZUJKAS_clean_linker_0, # of connection points: 2
#     Edge 65, Type (0, 1), BuildingBlock: ZUJKAS_clean_linker_0, # of connection points: 2
#     Edge 66, Type (0, 1), BuildingBlock: ZUJKAS_clean_linker_0, # of connection points: 2
#     Edge 67, Type (0, 1), BuildingBlock: ZUJKAS_clean_linker_0, # of connection points: 2
#     Edge 68, Type (0, 1), BuildingBlock: ZUJKAS_clean_linker_0, # of connection points: 2
#     Edge 69, Type (0, 1), BuildingBlock: ZUJKAS_clean_linker_0, # of connection points: 2
#     Edge 70, Type (0, 1), BuildingBlock: ZUJKAS_clean_linker_0, # of connection points: 2
#     Edge 71, Type (0, 1), BuildingBlock: ZUJKAS_clean_linker_0, # of connection points: 2
#     Edge 72, Type (0, 1), BuildingBlock: ZUJKAS_clean_linker_0, # of connection points: 2
#     Edge 73, Type (0, 1), BuildingBlock: ZUJKAS_clean_linker_0, # of connection points: 2
#     Edge 74, Type (0, 1), BuildingBlock: ZUJKAS_clean_linker_0, # of connection points: 2
#     Edge 75, Type (0, 1), BuildingBlock: ZUJKAS_clean_linker_0, # of connection points: 2
#     Edge 76, Type (0, 1), BuildingBlock: ZUJKAS_clean_linker_0, # of connection points: 2
#     Edge 77, Type (0, 1), BuildingBlock: ZUJKAS_clean_linker_0, # of connection points: 2
#     Edge 78, Type (0, 1), BuildingBlock: ZUJKAS_clean_linker_0, # of connection points: 2
#     Edge 79, Type (0, 1), BuildingBlock: ZUJKAS_clean_linker_0, # of connection points: 2
#     Edge 80, Type (0, 1), BuildingBlock: ZUJKAS_clean_linker_0, # of connection points: 2
# Relax obj value: 0.010
# Max RMSD: 0.099
# Mean RMSD: 0.054
data_MOF--net-eea--node1-KUMBOL_clean_sbu_0--node2-VETTIZ_charged_linker_0--edge1-ZUJKAS_clean_linker_0
_symmetry_space_group_name_H-M    P1
_symmetry_Int_Tables_number       1
_symmetry_cell_setting            triclinic
loop_
_symmetry_equiv_pos_as_xyz
'x, y, z'
_cell_length_a     77.633421
_cell_length_b     79.036401
_cell_length_c     107.09914
_cell_angle_alpha  90.210699
_cell_angle_beta   90.193116
_cell_angle_gamma 119.97267
loop_
_atom_site_label
_atom_site_type_symbol
_atom_site_fract_x
_atom_site_fract_y
_atom_site_fract_z
_atom_type_partial_charge
C0 C 0.23231 0.16481 0.40416 0.0
C1 C 0.23632 0.18276 0.4094 0.0
C2 C 0.24528 0.18804 0.42134 0.0
C3 C 0.24562 0.1576 0.42263 0.0
C4 C 0.23711 0.15257 0.41088 0.0
C5 C 0.2338 0.13305 0.40658 0.0
H6 H 0.23884 0.05168 0.41827 0.0
C7 C 0.24834 0.14143 0.42716 0.0
C8 C 0.2415 0.12706 0.41776 0.0
H9 H 0.21841 0.06652 0.38463 0.0
H10 H 0.22525 0.09708 0.39387 0.0
H11 H 0.27737 0.09436 0.4223 0.0
H12 H 0.21825 0.06681 0.43742 0.0
H13 H 0.23465 0.08019 0.44963 0.0
H14 H 0.23639 0.06046 0.44237 0.0
H15 H 0.26885 0.07527 0.43367 0.0
H16 H 0.27963 0.10057 0.43822 0.0
C17 C 0.24662 0.13626 0.39479 0.0
C18 C 0.21116 0.11933 0.40455 0.0
C19 C 0.27692 0.1449 0.47049 0.0
C20 C 0.28077 0.13194 0.4773 0.0
C21 C 0.27627 0.11394 0.4718 0.0
C22 C 0.26821 0.10897 0.45974 0.0
C23 C 0.26453 0.12209 0.45304 0.0
C24 C 0.26882 0.13969 0.45844 0.0
C25 C 0.26375 0.15173 0.44996 0.0
C26 C 0.25578 0.13847 0.43858 0.0
C27 C 0.2563 0.12116 0.44044 0.0
C28 C 0.28316 0.171 0.44706 0.0
C29 C 0.24747 0.15453 0.45638 0.0
C30 C 0.23602 0.0616 0.41285 0.0
C31 C 0.228 0.05661 0.4007 0.0
C32 C 0.2243 0.06985 0.39406 0.0
C33 C 0.22841 0.08767 0.39942 0.0
C34 C 0.23635 0.09241 0.41157 0.0
C35 C 0.24008 0.0795 0.41806 0.0
C36 C 0.24866 0.08706 0.43083 0.0
C37 C 0.2495 0.10667 0.43091 0.0
C38 C 0.24221 0.10966 0.41963 0.0
C39 C 0.26968 0.08936 0.43142 0.0
C40 C 0.2339 0.07292 0.44065 0.0
H41 H 0.2567 0.18042 0.437 0.0
H42 H 0.22524 0.16014 0.39508 0.0
H43 H 0.20251 0.12196 0.4118 0.0
H44 H 0.20651 0.10371 0.40541 0.0
H45 H 0.20634 0.12179 0.39529 0.0
H46 H 0.26051 0.15072 0.39513 0.0
H47 H 0.23841 0.13578 0.38616 0.0
H48 H 0.2518 0.12558 0.39395 0.0
H49 H 0.28038 0.15893 0.47437 0.0
H50 H 0.27877 0.10354 0.4769 0.0
H51 H 0.26511 0.09505 0.45611 0.0
H52 H 0.29602 0.1685 0.44641 0.0
H53 H 0.28661 0.1821 0.45449 0.0
H54 H 0.28269 0.17724 0.43794 0.0
H55 H 0.23678 0.14107 0.46143 0.0
H56 H 0.23827 0.15723 0.4497 0.0
H57 H 0.25411 0.16668 0.46329 0.0
H58 H 0.24883 0.20191 0.42553 0.0
C59 C 0.24994 0.17557 0.42797 0.0
C60 C 0.94666 0.16222 0.40285 0.0
C61 C 0.96111 0.18034 0.40782 0.0
C62 C 0.95822 0.18576 0.41987 0.0
C63 C 0.92694 0.15536 0.4217 0.0
C64 C 0.92977 0.15006 0.40989 0.0
C65 C 0.91291 0.13047 0.40589 0.0
H66 H 0.8233 0.05156 0.4182 0.0
C67 C 0.90781 0.13948 0.42648 0.0
C68 C 0.89951 0.12487 0.41722 0.0
H69 H 0.85952 0.06246 0.3853 0.0
H70 H 0.88443 0.09328 0.39398 0.0
H71 H 0.85858 0.06455 0.43735 0.0
H72 H 0.83104 0.09523 0.42165 0.0
H73 H 0.83498 0.10127 0.43761 0.0
H74 H 0.81908 0.07617 0.43295 0.0
H75 H 0.83508 0.06077 0.44275 0.0
H76 H 0.8583 0.07962 0.4493 0.0
C77 C 0.92129 0.11651 0.40387 0.0
C78 C 0.903 0.13346 0.39417 0.0
C79 C 0.88367 0.14469 0.46981 0.0
C80 C 0.86643 0.13219 0.4766 0.0
C81 C 0.85222 0.11431 0.47112 0.0
C82 C 0.85496 0.10903 0.45912 0.0
C83 C 0.87214 0.12167 0.45243 0.0
C84 C 0.88619 0.13915 0.45778 0.0
C85 C 0.90353 0.15065 0.44921 0.0
C86 C 0.89758 0.13712 0.43791 0.0
C87 C 0.87916 0.1202 0.43988 0.0
C88 C 0.92253 0.15309 0.45566 0.0
C89 C 0.90428 0.17014 0.44611 0.0
C90 C 0.83665 0.06045 0.41288 0.0
C91 C 0.83929 0.05446 0.40099 0.0
C92 C 0.85685 0.06677 0.39438 0.0
C93 C 0.87142 0.08465 0.39948 0.0
C94 C 0.86854 0.09036 0.41138 0.0
C95 C 0.85141 0.07827 0.41788 0.0
C96 C 0.85103 0.08644 0.43051 0.0
C97 C 0.8707 0.10552 0.43049 0.0
C98 C 0.88085 0.10779 0.41924 0.0
C99 C 0.85058 0.07215 0.44057 0.0
C100 C 0.83306 0.08989 0.43083 0.0
H101 H 0.93999 0.17835 0.43592 0.0
H102 H 0.94827 0.15769 0.39357 0.0
H103 H 0.90254 0.14728 0.39494 0.0
H104 H 0.88734 0.12192 0.39291 0.0
H105 H 0.91138 0.13432 0.38559 0.0
H106 H 0.93355 0.1198 0.41059 0.0
H107 H 0.92733 0.11794 0.3943 0.0
H108 H 0.91016 0.10105 0.40556 0.0
H109 H 0.89482 0.15859 0.47369 0.0
H110 H 0.839 0.10422 0.47618 0.0
H111 H 0.84355 0.09524 0.45553 0.0
H112 H 0.91928 0.13957 0.46075 0.0
H113 H 0.92853 0.1653 0.46254 0.0
H114 H 0.93435 0.15552 0.44899 0.0
H115 H 0.88901 0.16799 0.44532 0.0
H116 H 0.91124 0.17618 0.43702 0.0
H117 H 0.91227 0.18126 0.45352 0.0
H118 H 0.96922 0.19951 0.424 0.0
C119 C 0.94127 0.17339 0.42682 0.0
C120 C 0.94626 0.79116 0.40222 0.0
C121 C 0.96058 0.78682 0.4069 0.0
C122 C 0.95771 0.77837 0.41884 0.0
C123 C 0.92674 0.77864 0.42116 0.0
C124 C 0.92949 0.78685 0.40943 0.0
C125 C 0.91255 0.78992 0.40565 0.0
H126 H 0.82277 0.78064 0.41869 0.0
C127 C 0.90769 0.77582 0.42616 0.0
C128 C 0.89926 0.78234 0.41706 0.0
H129 H 0.85781 0.80383 0.38528 0.0
H130 H 0.88353 0.79873 0.39402 0.0
H131 H 0.83099 0.74458 0.42214 0.0
H132 H 0.85883 0.80263 0.4377 0.0
H133 H 0.85833 0.78723 0.44962 0.0
H134 H 0.83522 0.78354 0.44309 0.0
H135 H 0.81905 0.75215 0.43339 0.0
H136 H 0.83505 0.74286 0.43813 0.0
C137 C 0.90247 0.77725 0.3939 0.0
C138 C 0.92089 0.81209 0.40379 0.0
C139 C 0.88446 0.74707 0.46958 0.0
C140 C 0.86738 0.74262 0.4766 0.0
C141 C 0.85312 0.74667 0.47138 0.0
C142 C 0.85563 0.75474 0.45944 0.0
C143 C 0.87262 0.75891 0.4525 0.0
C144 C 0.88674 0.75516 0.45761 0.0
C145 C 0.90382 0.76053 0.44881 0.0
C146 C 0.89767 0.76824 0.43766 0.0
C147 C 0.87933 0.76718 0.43988 0.0
C148 C 0.90438 0.7417 0.44552 0.0
C149 C 0.92303 0.77671 0.45512 0.0
C150 C 0.83591 0.78447 0.41321 0.0
C151 C 0.83816 0.7926 0.40124 0.0
C152 C 0.85572 0.79771 0.39456 0.0
C153 C 0.87062 0.79462 0.39963 0.0
C154 C 0.86806 0.78633 0.41156 0.0
C155 C 0.85098 0.78155 0.41817 0.0
C156 C 0.85096 0.77323 0.4308 0.0
C157 C 0.87068 0.77352 0.4306 0.0
C158 C 0.88062 0.78115 0.41929 0.0
C159 C 0.83305 0.75214 0.43128 0.0
C160 C 0.85068 0.7872 0.4409 0.0
H161 H 0.93972 0.76794 0.43499 0.0
H162 H 0.94786 0.79742 0.39302 0.0
H163 H 0.93277 0.82074 0.41077 0.0
H164 H 0.90962 0.81652 0.40522 0.0
H165 H 0.92744 0.81673 0.39436 0.0
H166 H 0.90238 0.76314 0.39437 0.0
H167 H 0.91048 0.78483 0.38528 0.0
H168 H 0.88667 0.77307 0.39293 0.0
H169 H 0.89565 0.74401 0.47321 0.0
H170 H 0.84 0.74376 0.47661 0.0
H171 H 0.84418 0.75741 0.45606 0.0
H172 H 0.8891 0.72882 0.44509 0.0
H173 H 0.9129 0.73864 0.45263 0.0
H174 H 0.91068 0.74225 0.4362 0.0
H175 H 0.92005 0.78732 0.46015 0.0
H176 H 0.93484 0.78554 0.44839 0.0
H177 H 0.92892 0.77041 0.46204 0.0
H178 H 0.96857 0.77505 0.42273 0.0
C179 C 0.94096 0.77432 0.42598 0.0
C180 C 0.15634 0.20874 0.60578 0.0
C181 C 0.17395 0.21139 0.60024 0.0
C182 C 0.17831 0.2185 0.58791 0.0
C183 C 0.14803 0.22031 0.58693 0.0
C184 C 0.14362 0.2132 0.59897 0.0
C185 C 0.12417 0.21096 0.60336 0.0
H186 H 0.04375 0.22134 0.59237 0.0
C187 C 0.13188 0.22363 0.58247 0.0
C188 C 0.11779 0.21812 0.59205 0.0
H189 H 0.0569 0.19817 0.62526 0.0
H190 H 0.08726 0.2031 0.61587 0.0
H191 H 0.08901 0.25713 0.58796 0.0
H192 H 0.0564 0.19882 0.57267 0.0
H193 H 0.07002 0.21466 0.56049 0.0
H194 H 0.05114 0.21768 0.56826 0.0
H195 H 0.06875 0.24978 0.57714 0.0
H196 H 0.09379 0.25841 0.57185 0.0
C197 C 0.12848 0.22448 0.61485 0.0
C198 C 0.10971 0.18902 0.60592 0.0
C199 C 0.136 0.25159 0.53911 0.0
C200 C 0.12361 0.25658 0.53233 0.0
C201 C 0.10591 0.25366 0.53797 0.0
C202 C 0.10071 0.246 0.55008 0.0
C203 C 0.11329 0.24114 0.55671 0.0
C204 C 0.13059 0.24396 0.55119 0.0
C205 C 0.14218 0.23798 0.55959 0.0
C206 C 0.12902 0.2311 0.57106 0.0
C207 C 0.11209 0.23298 0.56935 0.0
C208 C 0.16259 0.25634 0.5624 0.0
C209 C 0.14346 0.22105 0.55313 0.0
C210 C 0.05326 0.21748 0.59758 0.0
C211 C 0.04786 0.20936 0.6096 0.0
C212 C 0.06056 0.20426 0.61596 0.0
C213 C 0.07826 0.20722 0.6105 0.0
C214 C 0.08343 0.21532 0.59849 0.0
C215 C 0.07096 0.22021 0.59221 0.0
C216 C 0.07864 0.2282 0.5794 0.0
C217 C 0.09779 0.22738 0.57906 0.0
C218 C 0.10058 0.21991 0.59031 0.0
C219 C 0.08268 0.24946 0.57893 0.0
C220 C 0.06329 0.21429 0.56962 0.0
H221 H 0.1698 0.2284 0.57196 0.0
H222 H 0.15239 0.20308 0.61517 0.0
H223 H 0.11246 0.17962 0.59943 0.0
H224 H 0.09397 0.18472 0.60432 0.0
H225 H 0.1115 0.1851 0.6156 0.0
H226 H 0.14237 0.23869 0.61348 0.0
H227 H 0.13043 0.21774 0.62343 0.0
H228 H 0.1168 0.22829 0.61651 0.0
H229 H 0.14956 0.25336 0.53506 0.0
H230 H 0.09618 0.25758 0.53309 0.0
H231 H 0.08711 0.24423 0.55382 0.0
H232 H 0.16105 0.26954 0.56334 0.0
H233 H 0.17331 0.25908 0.55476 0.0
H234 H 0.1692 0.25545 0.57134 0.0
H235 H 0.12967 0.21155 0.54769 0.0
H236 H 0.14469 0.21111 0.55983 0.0
H237 H 0.15616 0.22672 0.54656 0.0
H238 H 0.19186 0.22093 0.58345 0.0
C239 C 0.16552 0.22297 0.58127 0.0
C240 C 0.77136 0.83725 0.60712 0.0
C241 C 0.76784 0.81944 0.60193 0.0
C242 C 0.75928 0.81408 0.58989 0.0
C243 C 0.75828 0.84419 0.58843 0.0
C244 C 0.76646 0.84928 0.60027 0.0
C245 C 0.76947 0.86872 0.60448 0.0
H246 H 0.76203 0.94871 0.59273 0.0
C247 C 0.75538 0.86019 0.58379 0.0
C248 C 0.76189 0.87457 0.59317 0.0
H249 H 0.78539 0.93569 0.6258 0.0
H250 H 0.77844 0.905 0.6168 0.0
H251 H 0.78394 0.93551 0.57371 0.0
H252 H 0.72452 0.90504 0.58833 0.0
H253 H 0.723 0.90015 0.57221 0.0
H254 H 0.73286 0.92495 0.57757 0.0
H255 H 0.76482 0.94004 0.56812 0.0
H256 H 0.76849 0.92107 0.56145 0.0
C257 C 0.79203 0.88265 0.60672 0.0
C258 C 0.7563 0.86533 0.6161 0.0
C259 C 0.72762 0.8565 0.54015 0.0
C260 C 0.72404 0.86952 0.5332 0.0
C261 C 0.72805 0.88736 0.53869 0.0
C262 C 0.73551 0.8922 0.55089 0.0
C263 C 0.73911 0.87912 0.55771 0.0
C264 C 0.73522 0.86163 0.55232 0.0
C265 C 0.74039 0.84976 0.56089 0.0
C266 C 0.74798 0.863 0.5723 0.0
C267 C 0.74712 0.88013 0.57038 0.0
C268 C 0.75697 0.84725 0.55465 0.0
C269 C 0.72109 0.83033 0.56367 0.0
C270 C 0.76577 0.93932 0.59801 0.0
C271 C 0.77418 0.94467 0.61005 0.0
C272 C 0.77857 0.93184 0.61662 0.0
C273 C 0.77466 0.91404 0.61133 0.0
C274 C 0.76635 0.90896 0.59928 0.0
C275 C 0.76208 0.92153 0.59282 0.0
C276 C 0.75373 0.91389 0.58001 0.0
C277 C 0.75352 0.89458 0.57992 0.0
C278 C 0.76088 0.89179 0.59124 0.0
C279 C 0.76832 0.92834 0.57025 0.0
C280 C 0.73245 0.91092 0.57936 0.0
H281 H 0.74803 0.82147 0.57402 0.0
H282 H 0.77818 0.84198 0.61626 0.0
H283 H 0.74199 0.8513 0.61527 0.0
H284 H 0.75191 0.87655 0.61727 0.0
H285 H 0.76387 0.86468 0.62475 0.0
H286 H 0.80105 0.87935 0.60015 0.0
H287 H 0.79645 0.88121 0.61636 0.0
H288 H 0.79673 0.89813 0.60497 0.0
H289 H 0.72488 0.84277 0.53613 0.0
H290 H 0.7252 0.89752 0.53357 0.0
H291 H 0.73818 0.90597 0.55454 0.0
H292 H 0.7675 0.8607 0.54952 0.0
H293 H 0.7506 0.83495 0.54783 0.0
H294 H 0.7663 0.84494 0.56144 0.0
H295 H 0.70816 0.8327 0.56445 0.0
H296 H 0.72166 0.82389 0.57269 0.0
H297 H 0.71772 0.81944 0.55611 0.0
H298 H 0.75616 0.80032 0.58573 0.0
C299 C 0.75447 0.82634 0.58313 0.0
C300 C 0.05728 0.84073 0.60781 0.0
C301 C 0.04294 0.82222 0.6033 0.0
C302 C 0.04569 0.8161 0.59144 0.0
C303 C 0.07662 0.84665 0.58887 0.0
C304 C 0.07393 0.85259 0.60051 0.0
C305 C 0.09072 0.87247 0.60409 0.0
H306 H 0.17988 0.95099 0.5905 0.0
C307 C 0.09558 0.86239 0.58377 0.0
C308 C 0.10391 0.87752 0.59269 0.0
H309 H 0.14404 0.94129 0.62345 0.0
H310 H 0.11904 0.91019 0.61521 0.0
H311 H 0.17229 0.90732 0.58788 0.0
H312 H 0.14404 0.9368 0.57135 0.0
H313 H 0.1445 0.92133 0.55974 0.0
H314 H 0.16763 0.94066 0.56606 0.0
H315 H 0.18398 0.92586 0.57622 0.0
H316 H 0.16816 0.90054 0.57203 0.0
C317 C 0.10094 0.87026 0.61594 0.0
C318 C 0.08216 0.88636 0.60569 0.0
C319 C 0.11906 0.85513 0.5407 0.0
C320 C 0.13616 0.8673 0.5337 0.0
C321 C 0.15037 0.88552 0.53879 0.0
C322 C 0.14776 0.89144 0.55062 0.0
C323 C 0.13072 0.8791 0.55753 0.0
C324 C 0.11668 0.86129 0.55256 0.0
C325 C 0.09956 0.85012 0.56134 0.0
C326 C 0.10562 0.86424 0.57233 0.0
C327 C 0.12391 0.88116 0.57002 0.0
C328 C 0.09911 0.83092 0.56491 0.0
C329 C 0.08035 0.84713 0.5549 0.0
C330 C 0.16659 0.94229 0.59592 0.0
C331 C 0.1641 0.94868 0.60772 0.0
C332 C 0.1466 0.93665 0.61445 0.0
C333 C 0.13198 0.9186 0.60961 0.0
C334 C 0.13476 0.91241 0.59785 0.0
C335 C 0.15178 0.92426 0.59118 0.0
C336 C 0.15202 0.91551 0.57874 0.0
C337 C 0.13243 0.89636 0.57909 0.0
C338 C 0.12243 0.89459 0.59033 0.0
C339 C 0.17009 0.91219 0.57857 0.0
C340 C 0.1522 0.92924 0.56837 0.0
H341 H 0.06358 0.82273 0.57527 0.0
H342 H 0.05578 0.84577 0.61694 0.0
H343 H 0.06977 0.88257 0.59897 0.0
H344 H 0.09314 0.90174 0.60366 0.0
H345 H 0.07625 0.88539 0.61525 0.0
H346 H 0.1013 0.85636 0.61562 0.0
H347 H 0.09284 0.87009 0.62451 0.0
H348 H 0.11666 0.8818 0.61688 0.0
H349 H 0.10793 0.84098 0.53712 0.0
H350 H 0.16349 0.89534 0.53355 0.0
H351 H 0.15915 0.90545 0.55392 0.0
H352 H 0.11444 0.8332 0.56556 0.0
H353 H 0.09085 0.81931 0.55782 0.0
H354 H 0.0926 0.82547 0.57419 0.0
H355 H 0.08328 0.86044 0.54967 0.0
H356 H 0.06851 0.8446 0.56157 0.0
H357 H 0.0745 0.83476 0.54815 0.0
H358 H 0.03477 0.80199 0.58769 0.0
C359 C 0.06239 0.82821 0.58421 0.0
C360 C 0.89553 0.49619 0.73645 0.0
C361 C 0.89766 0.51322 0.74209 0.0
C362 C 0.90543 0.51806 0.75434 0.0
C363 C 0.90835 0.48895 0.75515 0.0
C364 C 0.9009 0.48433 0.74311 0.0
C365 C 0.89915 0.46555 0.73851 0.0
H366 H 0.90995 0.38716 0.74925 0.0
C367 C 0.9121 0.47335 0.7595 0.0
C368 C 0.90672 0.45961 0.74979 0.0
H369 H 0.88663 0.40022 0.71618 0.0
H370 H 0.89249 0.43038 0.7255 0.0
H371 H 0.9464 0.43137 0.75431 0.0
H372 H 0.88668 0.39843 0.7682 0.0
H373 H 0.90148 0.41258 0.78076 0.0
H374 H 0.90624 0.39452 0.77374 0.0
H375 H 0.93859 0.41132 0.76489 0.0
H376 H 0.94732 0.43586 0.77045 0.0
C377 C 0.91304 0.47025 0.72712 0.0
C378 C 0.87689 0.45093 0.73576 0.0
C379 C 0.93896 0.47627 0.8033 0.0
C380 C 0.94328 0.46356 0.81001 0.0
C381 C 0.94042 0.44632 0.80418 0.0
C382 C 0.9334 0.4418 0.79187 0.0
C383 C 0.92906 0.45458 0.7853 0.0
C384 C 0.93181 0.47146 0.79103 0.0
C385 C 0.92602 0.48309 0.78267 0.0
C386 C 0.91944 0.47044 0.77098 0.0
C387 C 0.92131 0.4538 0.77258 0.0
C388 C 0.94476 0.5032 0.78035 0.0
C389 C 0.90857 0.48417 0.78887 0.0
C390 C 0.906 0.39645 0.74402 0.0
C391 C 0.89784 0.39123 0.73192 0.0
C392 C 0.89322 0.40396 0.72542 0.0
C393 C 0.89647 0.42143 0.73091 0.0
C394 C 0.90431 0.42625 0.74307 0.0
C395 C 0.90898 0.41387 0.74941 0.0
C396 C 0.91673 0.42114 0.76237 0.0
C397 C 0.91596 0.43995 0.76275 0.0
C398 C 0.90872 0.44286 0.75142 0.0
C399 C 0.93835 0.42505 0.76318 0.0
C400 C 0.90222 0.40592 0.77183 0.0
H401 H 0.91649 0.51045 0.77019 0.0
H402 H 0.88988 0.49216 0.727 0.0
H403 H 0.86711 0.45329 0.74226 0.0
H404 H 0.87286 0.43556 0.73721 0.0
H405 H 0.87278 0.45263 0.7261 0.0
H406 H 0.92699 0.48447 0.72845 0.0
H407 H 0.90574 0.47124 0.71843 0.0
H408 H 0.918 0.4595 0.72569 0.0
H409 H 0.9408 0.48952 0.80758 0.0
H410 H 0.94387 0.43643 0.80911 0.0
H411 H 0.93161 0.4285 0.78796 0.0
H412 H 0.9582 0.50168 0.77944 0.0
H413 H 0.94743 0.51345 0.78822 0.0
H414 H 0.94398 0.51002 0.77155 0.0
H415 H 0.89864 0.47043 0.79393 0.0
H416 H 0.89877 0.48571 0.78204 0.0
H417 H 0.91412 0.49638 0.79573 0.0
H418 H 0.90704 0.53099 0.75896 0.0
C419 C 0.9108 0.50604 0.76088 0.0
C420 C 0.61362 0.49629 0.736 0.0
C421 C 0.62862 0.5141 0.74102 0.0
C422 C 0.62657 0.51925 0.75333 0.0
C423 C 0.59509 0.48912 0.75538 0.0
C424 C 0.59713 0.48407 0.74332 0.0
C425 C 0.58013 0.46447 0.73947 0.0
H426 H 0.49232 0.38433 0.75335 0.0
C427 C 0.57633 0.47308 0.76048 0.0
C428 C 0.56757 0.45855 0.7512 0.0
H429 H 0.52603 0.39677 0.71918 0.0
H430 H 0.55121 0.42753 0.72773 0.0
H431 H 0.52863 0.3973 0.77127 0.0
H432 H 0.49994 0.42835 0.75795 0.0
H433 H 0.50418 0.43287 0.77409 0.0
H434 H 0.48855 0.40821 0.76858 0.0
H435 H 0.50593 0.39373 0.77797 0.0
H436 H 0.52993 0.41257 0.78359 0.0
C437 C 0.58854 0.45071 0.73668 0.0
C438 C 0.56929 0.46756 0.7283 0.0
C439 C 0.55437 0.47804 0.80451 0.0
C440 C 0.53819 0.46496 0.81185 0.0
C441 C 0.52428 0.44662 0.8068 0.0
C442 C 0.52632 0.44141 0.79461 0.0
C443 C 0.54253 0.45459 0.78737 0.0
C444 C 0.55635 0.47248 0.79237 0.0
C445 C 0.5731 0.48417 0.78345 0.0
C446 C 0.56684 0.47048 0.77222 0.0
C447 C 0.54883 0.45326 0.77456 0.0
C448 C 0.59269 0.48728 0.78943 0.0
C449 C 0.57306 0.50329 0.78044 0.0
C450 C 0.50518 0.39358 0.74772 0.0
C451 C 0.50703 0.38804 0.73551 0.0
C452 C 0.52398 0.40074 0.72851 0.0
C453 C 0.5387 0.41859 0.73354 0.0
C454 C 0.5366 0.42389 0.74574 0.0
C455 C 0.52008 0.41142 0.75262 0.0
C456 C 0.52051 0.41929 0.7655 0.0
C457 C 0.53994 0.43861 0.76517 0.0
C458 C 0.54926 0.44124 0.75356 0.0
C459 C 0.52114 0.40502 0.77516 0.0
C460 C 0.50232 0.42228 0.76673 0.0
H461 H 0.6092 0.51169 0.76978 0.0
H462 H 0.61484 0.49179 0.72664 0.0
H463 H 0.56879 0.4813 0.72949 0.0
H464 H 0.55359 0.45596 0.7274 0.0
H465 H 0.57705 0.46863 0.71939 0.0
H466 H 0.60142 0.45413 0.74288 0.0
H467 H 0.59371 0.45224 0.72688 0.0
H468 H 0.57773 0.43521 0.73851 0.0
H469 H 0.56542 0.49212 0.80822 0.0
H470 H 0.51164 0.43638 0.81226 0.0
H471 H 0.51515 0.4273 0.79131 0.0
H472 H 0.58995 0.47465 0.79535 0.0
H473 H 0.59966 0.50056 0.79544 0.0
H474 H 0.6036 0.4883 0.78244 0.0
H475 H 0.55758 0.50037 0.77913 0.0
H476 H 0.58076 0.51009 0.77166 0.0
H477 H 0.57995 0.51409 0.78816 0.0
H478 H 0.63779 0.53298 0.75737 0.0
C479 C 0.6099 0.5069 0.76051 0.0
C480 C 0.61331 0.12486 0.73557 0.0
C481 C 0.62754 0.12045 0.74031 0.0
C482 C 0.62453 0.11193 0.75224 0.0
C483 C 0.59359 0.11231 0.75444 0.0
C484 C 0.59648 0.12058 0.74272 0.0
C485 C 0.57964 0.12376 0.73888 0.0
H486 H 0.48979 0.11458 0.75143 0.0
C487 C 0.57451 0.10954 0.75936 0.0
C488 C 0.56623 0.11616 0.75023 0.0
H489 H 0.5255 0.13837 0.71834 0.0
H490 H 0.55101 0.13301 0.72719 0.0
H491 H 0.49801 0.07842 0.75494 0.0
H492 H 0.52544 0.13637 0.77064 0.0
H493 H 0.52497 0.12096 0.78255 0.0
H494 H 0.50185 0.11717 0.77596 0.0
H495 H 0.4858 0.08595 0.76601 0.0
H496 H 0.50167 0.07664 0.77099 0.0
C497 C 0.56965 0.11118 0.72708 0.0
C498 C 0.58811 0.14596 0.73707 0.0
C499 C 0.55077 0.08072 0.80273 0.0
C500 C 0.53365 0.07634 0.80969 0.0
C501 C 0.51944 0.08039 0.80437 0.0
C502 C 0.52207 0.08842 0.7924 0.0
C503 C 0.53912 0.09256 0.78554 0.0
C504 C 0.55317 0.08878 0.79073 0.0
C505 C 0.57034 0.09413 0.78201 0.0
C506 C 0.56434 0.1019 0.77082 0.0
C507 C 0.54598 0.10086 0.77294 0.0
C508 C 0.57087 0.07528 0.77875 0.0
C509 C 0.5895 0.11026 0.78839 0.0
C510 C 0.50303 0.11848 0.74604 0.0
C511 C 0.50554 0.12683 0.73412 0.0
C512 C 0.52322 0.13205 0.72756 0.0
C513 C 0.53799 0.12882 0.7327 0.0
C514 C 0.53518 0.12031 0.74457 0.0
C515 C 0.51799 0.11546 0.75108 0.0
C516 C 0.51777 0.10703 0.7637 0.0
C517 C 0.53748 0.1073 0.76362 0.0
C518 C 0.5476 0.11501 0.75237 0.0
C519 C 0.49985 0.08594 0.76406 0.0
C520 C 0.51734 0.12092 0.77381 0.0
H521 H 0.60637 0.10148 0.76833 0.0
H522 H 0.61501 0.13117 0.72639 0.0
H523 H 0.60009 0.15455 0.744 0.0
H524 H 0.57692 0.15049 0.7386 0.0
H525 H 0.59455 0.15061 0.72761 0.0
H526 H 0.56933 0.09696 0.72761 0.0
H527 H 0.57789 0.11872 0.71851 0.0
H528 H 0.55394 0.10723 0.72598 0.0
H529 H 0.56192 0.07766 0.80643 0.0
H530 H 0.5063 0.07753 0.80953 0.0
H531 H 0.51066 0.09109 0.78895 0.0
H532 H 0.55557 0.06244 0.77825 0.0
H533 H 0.57926 0.07216 0.78592 0.0
H534 H 0.57729 0.07585 0.76948 0.0
H535 H 0.58652 0.12091 0.79337 0.0
H536 H 0.60141 0.11905 0.7817 0.0
H537 H 0.59527 0.10391 0.79536 0.0
H538 H 0.63532 0.10855 0.75618 0.0
C539 C 0.60772 0.10791 0.75932 0.0
C540 C 0.82327 0.54408 0.94045 0.0
C541 C 0.84068 0.54617 0.93493 0.0
C542 C 0.84481 0.55251 0.92243 0.0
C543 C 0.81472 0.55464 0.92125 0.0
C544 C 0.81055 0.54832 0.93347 0.0
C545 C 0.7914 0.54673 0.93789 0.0
H546 H 0.71005 0.55502 0.92587 0.0
C547 C 0.79863 0.55797 0.91666 0.0
C548 C 0.78489 0.55333 0.92637 0.0
H549 H 0.72525 0.53641 0.96004 0.0
H550 H 0.7557 0.54133 0.9508 0.0
H551 H 0.75307 0.59082 0.92126 0.0
H552 H 0.72466 0.53213 0.90655 0.0
H553 H 0.73632 0.5486 0.89421 0.0
H554 H 0.71679 0.54936 0.90275 0.0
H555 H 0.73502 0.58304 0.90888 0.0
H556 H 0.76108 0.59239 0.90578 0.0
C557 C 0.79626 0.56103 0.94901 0.0
C558 C 0.77677 0.52505 0.941 0.0
C559 C 0.80161 0.58307 0.8725 0.0
C560 C 0.78954 0.58858 0.86583 0.0
C561 C 0.77239 0.5867 0.87164 0.0
C562 C 0.76731 0.57943 0.88383 0.0
C563 C 0.77957 0.5741 0.89041 0.0
C564 C 0.79646 0.57608 0.88474 0.0
C565 C 0.80816 0.57044 0.89331 0.0
C566 C 0.79549 0.56467 0.90502 0.0
C567 C 0.77865 0.56668 0.90323 0.0
C568 C 0.82888 0.58871 0.89552 0.0
C569 C 0.80874 0.55283 0.88738 0.0
C570 C 0.71987 0.55183 0.93132 0.0
C571 C 0.71514 0.54522 0.94371 0.0
C572 C 0.72856 0.54165 0.95053 0.0
C573 C 0.74622 0.54441 0.94511 0.0
C574 C 0.75069 0.55093 0.93272 0.0
C575 C 0.73767 0.55466 0.92606 0.0
C576 C 0.74517 0.56207 0.91312 0.0
C577 C 0.76458 0.56172 0.91302 0.0
C578 C 0.76771 0.55514 0.92452 0.0
C579 C 0.74869 0.58312 0.91208 0.0
C580 C 0.72997 0.54743 0.90358 0.0
H581 H 0.83608 0.56156 0.90617 0.0
H582 H 0.81947 0.53903 0.94997 0.0
H583 H 0.77846 0.51517 0.93432 0.0
H584 H 0.76102 0.52111 0.94018 0.0
H585 H 0.77954 0.52142 0.95054 0.0
H586 H 0.81079 0.5746 0.94764 0.0
H587 H 0.79718 0.55434 0.95791 0.0
H588 H 0.7854 0.56608 0.95005 0.0
H589 H 0.81503 0.5846 0.86838 0.0
H590 H 0.76279 0.59072 0.86669 0.0
H591 H 0.75404 0.5783 0.88768 0.0
H592 H 0.82782 0.60224 0.89575 0.0
H593 H 0.83936 0.59036 0.88796 0.0
H594 H 0.83553 0.58856 0.90462 0.0
H595 H 0.79437 0.54276 0.88268 0.0
H596 H 0.81083 0.54371 0.89433 0.0
H597 H 0.82064 0.55773 0.88026 0.0
H598 H 0.8582 0.55454 0.91797 0.0
C599 C 0.83198 0.55673 0.9156 0.0
C600 C 0.43639 0.17032 0.94227 0.0
C601 C 0.43258 0.15235 0.93717 0.0
C602 C 0.42393 0.14694 0.92516 0.0
C603 C 0.42391 0.1775 0.92341 0.0
C604 C 0.43193 0.18255 0.93528 0.0
C605 C 0.43542 0.20225 0.93932 0.0
H606 H 0.43396 0.28492 0.92573 0.0
C607 C 0.42195 0.1939 0.91847 0.0
C608 C 0.42864 0.20841 0.92778 0.0
H609 H 0.45082 0.2693 0.9605 0.0
H610 H 0.44372 0.2384 0.95166 0.0
H611 H 0.45524 0.26992 0.90813 0.0
H612 H 0.39464 0.24178 0.92069 0.0
H613 H 0.39438 0.23743 0.90455 0.0
H614 H 0.40506 0.26215 0.91021 0.0
H615 H 0.43734 0.27522 0.90132 0.0
H616 H 0.44062 0.25549 0.89559 0.0
C617 C 0.45798 0.21564 0.94185 0.0
C618 C 0.42196 0.19936 0.95072 0.0
C619 C 0.39626 0.19082 0.87431 0.0
C620 C 0.39436 0.20448 0.86694 0.0
C621 C 0.39999 0.22303 0.87195 0.0
C622 C 0.40717 0.22787 0.88421 0.0
C623 C 0.40892 0.21406 0.89152 0.0
C624 C 0.40375 0.19599 0.88649 0.0
C625 C 0.40762 0.1836 0.89543 0.0
C626 C 0.41556 0.19706 0.90672 0.0
C627 C 0.41612 0.21481 0.90439 0.0
C628 C 0.42357 0.17969 0.8896 0.0
C629 C 0.38758 0.16495 0.89821 0.0
C630 C 0.43591 0.27474 0.93148 0.0
C631 C 0.443 0.27959 0.94383 0.0
C632 C 0.44563 0.26604 0.95091 0.0
C633 C 0.44138 0.24804 0.94579 0.0
C634 C 0.43442 0.24347 0.93342 0.0
C635 C 0.43171 0.25668 0.9265 0.0
C636 C 0.42417 0.24929 0.91352 0.0
C637 C 0.42265 0.22939 0.91385 0.0
C638 C 0.42875 0.22612 0.92549 0.0
C639 C 0.43999 0.26317 0.90407 0.0
C640 C 0.40353 0.24763 0.91204 0.0
H641 H 0.4131 0.15449 0.90917 0.0
H642 H 0.44321 0.17507 0.9514 0.0
H643 H 0.40801 0.18495 0.95028 0.0
H644 H 0.41686 0.21015 0.95109 0.0
H645 H 0.42964 0.19996 0.95962 0.0
H646 H 0.4669 0.21284 0.93489 0.0
H647 H 0.46214 0.21298 0.95127 0.0
H648 H 0.46297 0.23132 0.94096 0.0
H649 H 0.3923 0.17656 0.87059 0.0
H650 H 0.39854 0.23371 0.86642 0.0
H651 H 0.41108 0.24217 0.88752 0.0
H652 H 0.43445 0.19243 0.88405 0.0
H653 H 0.41667 0.16681 0.88325 0.0
H654 H 0.4327 0.17755 0.89665 0.0
H655 H 0.37539 0.16843 0.89896 0.0
H656 H 0.38759 0.15822 0.90722 0.0
H657 H 0.3835 0.15391 0.89065 0.0
H658 H 0.4205 0.13303 0.92109 0.0
C659 C 0.41957 0.15939 0.91827 0.0
C660 C 0.72534 0.17358 0.94134 0.0
C661 C 0.71103 0.15507 0.93681 0.0
C662 C 0.71369 0.14905 0.92491 0.0
C663 C 0.74437 0.17981 0.92224 0.0
C664 C 0.74185 0.18558 0.93397 0.0
C665 C 0.75862 0.20546 0.93756 0.0
H666 H 0.84687 0.2848 0.92343 0.0
C667 C 0.76308 0.19576 0.91702 0.0
C668 C 0.77153 0.21079 0.92601 0.0
H669 H 0.8123 0.27407 0.9571 0.0
H670 H 0.78722 0.243 0.94886 0.0
H671 H 0.8394 0.241 0.91983 0.0
H672 H 0.81075 0.27126 0.90514 0.0
H673 H 0.80964 0.25552 0.89319 0.0
H674 H 0.83355 0.27457 0.89877 0.0
H675 H 0.85078 0.26044 0.90871 0.0
H676 H 0.83516 0.23544 0.9038 0.0
C677 C 0.76921 0.20318 0.94919 0.0
C678 C 0.74995 0.21918 0.93952 0.0
C679 C 0.78485 0.19009 0.87304 0.0
C680 C 0.80111 0.20301 0.86567 0.0
C681 C 0.81531 0.2212 0.87077 0.0
C682 C 0.81336 0.22652 0.88294 0.0
C683 C 0.79699 0.21358 0.89016 0.0
C684 C 0.78302 0.19573 0.8852 0.0
C685 C 0.76642 0.1841 0.89422 0.0
C686 C 0.77271 0.19799 0.90535 0.0
C687 C 0.79069 0.21516 0.90291 0.0
C688 C 0.76663 0.16509 0.89735 0.0
C689 C 0.74674 0.18077 0.88829 0.0
C690 C 0.83384 0.27588 0.92901 0.0
C691 C 0.83175 0.28198 0.941 0.0
C692 C 0.81458 0.26966 0.94795 0.0
C693 C 0.79991 0.25163 0.9431 0.0
C694 C 0.80229 0.24576 0.93113 0.0
C695 C 0.81898 0.25789 0.92428 0.0
C696 C 0.81879 0.24951 0.91161 0.0
C697 C 0.79938 0.2302 0.91208 0.0
C698 C 0.78982 0.22805 0.92354 0.0
C699 C 0.83701 0.2465 0.91082 0.0
C700 C 0.8183 0.26339 0.90159 0.0
H701 H 0.73135 0.15593 0.90861 0.0
H702 H 0.72389 0.17852 0.95052 0.0
H703 H 0.73762 0.21563 0.9328 0.0
H704 H 0.76089 0.23468 0.93778 0.0
H705 H 0.74392 0.21774 0.94909 0.0
H706 H 0.76943 0.18922 0.94876 0.0
H707 H 0.76148 0.2031 0.95792 0.0
H708 H 0.785 0.21463 0.94992 0.0
H709 H 0.77363 0.17607 0.86935 0.0
H710 H 0.82811 0.23129 0.86538 0.0
H711 H 0.82472 0.24053 0.88625 0.0
H712 H 0.78212 0.16776 0.89769 0.0
H713 H 0.75835 0.1536 0.89019 0.0
H714 H 0.76047 0.15929 0.90666 0.0
H715 H 0.74912 0.19406 0.88326 0.0
H716 H 0.73515 0.1779 0.89524 0.0
H717 H 0.74079 0.16851 0.88145 0.0
H718 H 0.7028 0.13492 0.92117 0.0
C719 C 0.73023 0.16132 0.9176 0.0
C720 C 0.56236 0.82976 0.0701 0.0
C721 C 0.56486 0.84713 0.07542 0.0
C722 C 0.57302 0.85249 0.08755 0.0
C723 C 0.57569 0.82327 0.08885 0.0
C724 C 0.56781 0.81812 0.07694 0.0
C725 C 0.56581 0.7991 0.07265 0.0
H726 H 0.57704 0.72123 0.0843 0.0
C727 C 0.57953 0.80782 0.09342 0.0
C728 C 0.57374 0.79364 0.08396 0.0
H729 H 0.55243 0.73291 0.05129 0.0
H730 H 0.55847 0.76335 0.06023 0.0
H731 H 0.61353 0.76552 0.08847 0.0
H732 H 0.55441 0.73334 0.10339 0.0
H733 H 0.56978 0.74796 0.11562 0.0
H734 H 0.57415 0.72957 0.10874 0.0
H735 H 0.60618 0.74601 0.09944 0.0
H736 H 0.61514 0.77081 0.10453 0.0
C737 C 0.57926 0.80321 0.06108 0.0
C738 C 0.54343 0.78445 0.07028 0.0
C739 C 0.60828 0.81275 0.1369 0.0
C740 C 0.61289 0.80034 0.14372 0.0
C741 C 0.60975 0.78283 0.13816 0.0
C742 C 0.60216 0.77773 0.126 0.0
C743 C 0.59754 0.79021 0.11931 0.0
C744 C 0.60057 0.80737 0.12477 0.0
C745 C 0.59445 0.81863 0.11631 0.0
C746 C 0.58733 0.80543 0.10486 0.0
C747 C 0.58924 0.78885 0.10668 0.0
C748 C 0.6131 0.83859 0.11352 0.0
C749 C 0.57731 0.82006 0.12266 0.0
C750 C 0.57284 0.73027 0.07901 0.0
C751 C 0.5643 0.7246 0.06703 0.0
C752 C 0.55934 0.73701 0.06044 0.0
C753 C 0.5627 0.75465 0.0657 0.0
C754 C 0.57101 0.75998 0.07773 0.0
C755 C 0.57595 0.74788 0.08417 0.0
C756 C 0.58422 0.75572 0.09696 0.0
C757 C 0.58345 0.77454 0.0971 0.0
C758 C 0.57575 0.77695 0.08581 0.0
C759 C 0.60587 0.75965 0.09752 0.0
C760 C 0.5701 0.74092 0.10676 0.0
H761 H 0.58446 0.84549 0.10349 0.0
H762 H 0.55641 0.82533 0.06074 0.0
H763 H 0.53392 0.78721 0.07677 0.0
H764 H 0.53938 0.76914 0.07205 0.0
H765 H 0.53899 0.78566 0.06061 0.0
H766 H 0.59326 0.81747 0.06208 0.0
H767 H 0.57165 0.80379 0.05243 0.0
H768 H 0.58414 0.79238 0.0598 0.0
H769 H 0.61034 0.8262 0.14097 0.0
H770 H 0.61341 0.77315 0.14318 0.0
H771 H 0.60018 0.76424 0.12229 0.0
H772 H 0.62647 0.83698 0.11248 0.0
H773 H 0.61614 0.8492 0.12121 0.0
H774 H 0.61195 0.84501 0.10464 0.0
H775 H 0.56752 0.80652 0.12796 0.0
H776 H 0.5673 0.82144 0.11592 0.0
H777 H 0.58318 0.83251 0.12935 0.0
H778 H 0.57491 0.8657 0.09193 0.0
C779 C 0.57844 0.84067 0.09428 0.0
C780 C 0.27896 0.83062 0.0684 0.0
C781 C 0.29356 0.84893 0.07305 0.0
C782 C 0.2913 0.85456 0.08519 0.0
C783 C 0.2605 0.8239 0.08778 0.0
C784 C 0.26266 0.81843 0.07587 0.0
C785 C 0.24589 0.79854 0.07229 0.0
H786 H 0.15883 0.71821 0.08706 0.0
C787 C 0.24202 0.80777 0.09311 0.0
C788 C 0.23342 0.79288 0.08405 0.0
H789 H 0.19226 0.72989 0.05282 0.0
H790 H 0.21727 0.76103 0.061 0.0
H791 H 0.19525 0.73172 0.10473 0.0
H792 H 0.16599 0.76212 0.09128 0.0
H793 H 0.1703 0.76682 0.1074 0.0
H794 H 0.15492 0.74208 0.10199 0.0
H795 H 0.17291 0.72853 0.11178 0.0
H796 H 0.19719 0.74756 0.11685 0.0
C797 C 0.25469 0.78504 0.06982 0.0
C798 C 0.23478 0.80092 0.06099 0.0
C799 C 0.22084 0.81309 0.13732 0.0
C800 C 0.20503 0.79988 0.14486 0.0
C801 C 0.19123 0.7814 0.13996 0.0
C802 C 0.19301 0.77613 0.12775 0.0
C803 C 0.2089 0.7894 0.12032 0.0
C804 C 0.2226 0.80747 0.12515 0.0
C805 C 0.23898 0.81925 0.11602 0.0
C806 C 0.2327 0.80533 0.10491 0.0
C807 C 0.21497 0.78796 0.10748 0.0
C808 C 0.2589 0.82297 0.12181 0.0
C809 C 0.23831 0.83803 0.11293 0.0
C810 C 0.17159 0.72736 0.08133 0.0
C811 C 0.17338 0.72149 0.06921 0.0
C812 C 0.19021 0.7341 0.06208 0.0
C813 C 0.20485 0.75217 0.0669 0.0
C814 C 0.20279 0.75779 0.07901 0.0
C815 C 0.18642 0.7454 0.08603 0.0
C816 C 0.18692 0.75354 0.09883 0.0
C817 C 0.20616 0.773 0.09826 0.0
C818 C 0.21535 0.77544 0.08663 0.0
C819 C 0.18799 0.73966 0.10862 0.0
C820 C 0.16856 0.75623 0.10007 0.0
H821 H 0.2741 0.8473 0.10171 0.0
H822 H 0.28005 0.82591 0.05907 0.0
H823 H 0.2342 0.81467 0.06181 0.0
H824 H 0.21908 0.78923 0.06032 0.0
H825 H 0.24237 0.80152 0.05209 0.0
H826 H 0.26747 0.78874 0.07619 0.0
H827 H 0.26012 0.78653 0.06009 0.0
H828 H 0.24403 0.7695 0.07168 0.0
H829 H 0.23179 0.82732 0.1409 0.0
H830 H 0.17886 0.77107 0.14558 0.0
H831 H 0.18194 0.76189 0.12458 0.0
H832 H 0.2567 0.81024 0.12743 0.0
H833 H 0.26537 0.83595 0.12808 0.0
H834 H 0.27001 0.82484 0.11473 0.0
H835 H 0.22267 0.83481 0.11209 0.0
H836 H 0.24519 0.84444 0.10388 0.0
H837 H 0.24567 0.84923 0.12039 0.0
H838 H 0.30241 0.86846 0.08909 0.0
C839 C 0.27489 0.84218 0.09255 0.0
C840 C 0.27951 0.45843 0.06883 0.0
C841 C 0.29497 0.45628 0.07406 0.0
C842 C 0.29303 0.44954 0.08644 0.0
C843 C 0.26079 0.44732 0.08816 0.0
C844 C 0.26271 0.45402 0.07605 0.0
C845 C 0.24524 0.45613 0.07208 0.0
H846 H 0.1558 0.44733 0.08566 0.0
C847 C 0.24163 0.44422 0.09313 0.0
C848 C 0.2325 0.44947 0.08376 0.0
H849 H 0.18934 0.46816 0.0515 0.0
H850 H 0.21532 0.4634 0.06018 0.0
H851 H 0.16438 0.41138 0.08988 0.0
H852 H 0.19234 0.47037 0.10392 0.0
H853 H 0.19218 0.45573 0.11625 0.0
H854 H 0.1689 0.45155 0.10972 0.0
H855 H 0.15275 0.41945 0.10102 0.0
H856 H 0.16919 0.41073 0.10587 0.0
C857 C 0.23489 0.44215 0.0609 0.0
C858 C 0.25292 0.47796 0.06924 0.0
C859 C 0.21997 0.41771 0.13715 0.0
C860 C 0.20319 0.41368 0.14435 0.0
C861 C 0.1885 0.41704 0.13906 0.0
C862 C 0.19041 0.4242 0.12688 0.0
C863 C 0.20724 0.42817 0.11982 0.0
C864 C 0.22172 0.425 0.12499 0.0
C865 C 0.23878 0.4305 0.11617 0.0
C866 C 0.23205 0.43727 0.10483 0.0
C867 C 0.21351 0.4358 0.10702 0.0
C868 C 0.23997 0.41189 0.1133 0.0
C869 C 0.25785 0.44736 0.12221 0.0
C870 C 0.16866 0.4507 0.08 0.0
C871 C 0.17046 0.45813 0.06785 0.0
C872 C 0.18764 0.46263 0.06092 0.0
C873 C 0.20269 0.45975 0.06596 0.0
C874 C 0.20069 0.45236 0.07812 0.0
C875 C 0.1839 0.44802 0.08493 0.0
C876 C 0.18445 0.44062 0.09777 0.0
C877 C 0.20429 0.44116 0.09754 0.0
C878 C 0.21373 0.44798 0.08599 0.0
C879 C 0.16674 0.41949 0.09883 0.0
C880 C 0.18432 0.45514 0.1075 0.0
H881 H 0.27552 0.43991 0.10282 0.0
H882 H 0.28063 0.46379 0.0594 0.0
H883 H 0.26559 0.4876 0.07548 0.0
H884 H 0.24165 0.48232 0.07096 0.0
H885 H 0.25818 0.48152 0.05945 0.0
H886 H 0.23454 0.42804 0.06229 0.0
H887 H 0.24293 0.44859 0.05206 0.0
H888 H 0.21919 0.43819 0.05972 0.0
H889 H 0.23164 0.41552 0.14097 0.0
H890 H 0.17532 0.41386 0.1443 0.0
H891 H 0.17866 0.42634 0.12343 0.0
H892 H 0.22481 0.39901 0.1121 0.0
H893 H 0.24743 0.40865 0.12103 0.0
H894 H 0.24772 0.41284 0.10449 0.0
H895 H 0.25432 0.45696 0.12798 0.0
H896 H 0.26862 0.45724 0.11525 0.0
H897 H 0.26529 0.44165 0.12838 0.0
H898 H 0.30459 0.44755 0.09066 0.0
C899 C 0.27607 0.44502 0.09348 0.0
C900 C 0.48949 0.87648 0.27352 0.0
C901 C 0.50781 0.88016 0.26852 0.0
C902 C 0.51279 0.8877 0.25632 0.0
C903 C 0.48184 0.8881 0.25444 0.0
C904 C 0.47685 0.88064 0.26637 0.0
C905 C 0.45712 0.87813 0.27038 0.0
H906 H 0.3769 0.88814 0.25777 0.0
C907 C 0.46572 0.89122 0.24961 0.0
C908 C 0.45121 0.88548 0.25895 0.0
H909 H 0.38893 0.86503 0.29113 0.0
H910 H 0.41968 0.87012 0.28229 0.0
H911 H 0.42116 0.92393 0.25437 0.0
H912 H 0.39131 0.86611 0.23826 0.0
H913 H 0.40459 0.88281 0.22635 0.0
H914 H 0.38501 0.88441 0.23426 0.0
H915 H 0.40268 0.917 0.24232 0.0
H916 H 0.42852 0.9261 0.2387 0.0
C917 C 0.46073 0.89133 0.28196 0.0
C918 C 0.44269 0.85611 0.27264 0.0
C919 C 0.47059 0.91826 0.20584 0.0
C920 C 0.45869 0.92383 0.19906 0.0
C921 C 0.44131 0.92173 0.20465 0.0
C922 C 0.43579 0.91408 0.21673 0.0
C923 C 0.44785 0.90859 0.2234 0.0
C924 C 0.46501 0.91088 0.21797 0.0
C925 C 0.4765 0.90515 0.22666 0.0
C926 C 0.4632 0.89864 0.23809 0.0
C927 C 0.44635 0.90056 0.2361 0.0
C928 C 0.49695 0.92354 0.22938 0.0
C929 C 0.47776 0.888 0.22057 0.0
C930 C 0.38622 0.88431 0.26321 0.0
C931 C 0.38036 0.87614 0.27519 0.0
C932 C 0.39288 0.87111 0.28184 0.0
C933 C 0.41083 0.87419 0.27671 0.0
C934 C 0.41647 0.88236 0.26475 0.0
C935 C 0.40418 0.8872 0.25819 0.0
C936 C 0.41243 0.89547 0.24553 0.0
C937 C 0.43168 0.89482 0.24557 0.0
C938 C 0.43402 0.88721 0.25689 0.0
C939 C 0.41632 0.91669 0.24507 0.0
C940 C 0.3976 0.88165 0.2355 0.0
H941 H 0.50466 0.89731 0.24006 0.0
H942 H 0.48525 0.87086 0.28289 0.0
H943 H 0.44549 0.84699 0.26592 0.0
H944 H 0.42694 0.85183 0.27113 0.0
H945 H 0.44452 0.85184 0.28221 0.0
H946 H 0.47486 0.90546 0.28102 0.0
H947 H 0.46183 0.88421 0.29061 0.0
H948 H 0.44915 0.89538 0.2832 0.0
H949 H 0.48422 0.92001 0.20188 0.0
H950 H 0.43186 0.92585 0.19961 0.0
H951 H 0.42236 0.9128 0.22041 0.0
H952 H 0.49593 0.93707 0.22899 0.0
H953 H 0.50824 0.92504 0.22246 0.0
H954 H 0.50257 0.92361 0.23889 0.0
H955 H 0.46336 0.87752 0.21604 0.0
H956 H 0.48066 0.87926 0.22738 0.0
H957 H 0.48943 0.89334 0.21328 0.0
H958 H 0.52663 0.89042 0.25215 0.0
C959 C 0.49994 0.89163 0.24927 0.0
C960 C 0.1063 0.50473 0.2746 0.0
C961 C 0.10302 0.48709 0.26923 0.0
C962 C 0.09439 0.48188 0.2572 0.0
C963 C 0.09294 0.51179 0.25608 0.0
C964 C 0.10112 0.51672 0.26793 0.0
C965 C 0.10369 0.53589 0.27238 0.0
H966 H 0.09721 0.61651 0.26096 0.0
C967 C 0.08971 0.52768 0.25165 0.0
C968 C 0.09591 0.54179 0.26119 0.0
H969 H 0.11729 0.60156 0.2947 0.0
H970 H 0.11078 0.57114 0.2854 0.0
H971 H 0.11837 0.60204 0.24195 0.0
H972 H 0.05896 0.5736 0.25664 0.0
H973 H 0.05702 0.56731 0.24075 0.0
H974 H 0.06731 0.5926 0.24521 0.0
H975 H 0.1001 0.60824 0.23702 0.0
H976 H 0.10225 0.58887 0.22959 0.0
C977 C 0.12617 0.55008 0.27465 0.0
C978 C 0.09047 0.532 0.28405 0.0
C979 C 0.06227 0.52472 0.208 0.0
C980 C 0.05813 0.53755 0.20127 0.0
C981 C 0.06179 0.55516 0.20699 0.0
C982 C 0.06936 0.55989 0.21917 0.0
C983 C 0.07339 0.54692 0.22577 0.0
C984 C 0.06986 0.52969 0.22018 0.0
C985 C 0.07515 0.51775 0.22862 0.0
C986 C 0.08238 0.53067 0.24019 0.0
C987 C 0.08132 0.54773 0.23845 0.0
C988 C 0.09202 0.51576 0.22236 0.0
C989 C 0.056 0.49807 0.23117 0.0
C990 C 0.09999 0.60659 0.2664 0.0
C991 C 0.10788 0.61153 0.27858 0.0
C992 C 0.11152 0.59827 0.28525 0.0
C993 C 0.10762 0.58054 0.27984 0.0
C994 C 0.09998 0.57593 0.26762 0.0
C995 C 0.09615 0.58879 0.26115 0.0
C996 C 0.08793 0.58136 0.24828 0.0
C997 C 0.0875 0.56195 0.24812 0.0
C998 C 0.09466 0.55892 0.25944 0.0
C999 C 0.10275 0.59585 0.23863 0.0
C1000 C 0.06675 0.57865 0.24755 0.0
H1001 H 0.08287 0.48935 0.2415 0.0
H1002 H 0.11311 0.50935 0.28374 0.0
H1003 H 0.07686 0.51733 0.28353 0.0
H1004 H 0.08479 0.54229 0.28492 0.0
H1005 H 0.09859 0.53256 0.29274 0.0
H1006 H 0.13524 0.54794 0.26746 0.0
H1007 H 0.13092 0.54762 0.28394 0.0
H1008 H 0.13039 0.5656 0.2739 0.0
H1009 H 0.05945 0.51099 0.20395 0.0
H1010 H 0.05905 0.56546 0.20196 0.0
H1011 H 0.07185 0.57352 0.22296 0.0
H1012 H 0.10266 0.52956 0.21759 0.0
H1013 H 0.08595 0.50391 0.21523 0.0
H1014 H 0.10116 0.51308 0.22909 0.0
H1015 H 0.04282 0.50007 0.23174 0.0
H1016 H 0.05641 0.49164 0.24023 0.0
H1017 H 0.05313 0.48731 0.22361 0.0
H1018 H 0.09138 0.46824 0.2529 0.0
C1019 C 0.08935 0.49412 0.25061 0.0
C1020 C 0.39057 0.50559 0.27384 0.0
C1021 C 0.37534 0.48807 0.26868 0.0
C1022 C 0.37732 0.48304 0.25633 0.0
C1023 C 0.40939 0.51261 0.25458 0.0
C1024 C 0.40731 0.51763 0.26664 0.0
C1025 C 0.42453 0.537 0.27062 0.0
H1026 H 0.51423 0.61535 0.25781 0.0
C1027 C 0.42859 0.52827 0.2497 0.0
C1028 C 0.43745 0.54265 0.25906 0.0
H1029 H 0.47868 0.60462 0.29102 0.0
H1030 H 0.45344 0.57395 0.2824 0.0
H1031 H 0.50589 0.57152 0.25419 0.0
H1032 H 0.47844 0.60254 0.23885 0.0
H1033 H 0.47905 0.58781 0.22677 0.0
H1034 H 0.50209 0.60656 0.23356 0.0
H1035 H 0.51773 0.59029 0.24269 0.0
H1036 H 0.50132 0.56515 0.2383 0.0
C1037 C 0.43476 0.53351 0.28198 0.0
C1038 C 0.41662 0.55122 0.27321 0.0
C1039 C 0.45199 0.5223 0.20628 0.0
C1040 C 0.46939 0.53439 0.19949 0.0
C1041 C 0.48387 0.5522 0.20491 0.0
C1042 C 0.48127 0.55777 0.21687 0.0
C1043 C 0.46398 0.54547 0.22358 0.0
C1044 C 0.44963 0.52811 0.21827 0.0
C1045 C 0.4322 0.51699 0.22685 0.0
C1046 C 0.43854 0.53052 0.23816 0.0
C1047 C 0.45719 0.54717 0.23616 0.0
C1048 C 0.4308 0.49721 0.22991 0.0
C1049 C 0.41342 0.51515 0.22044 0.0
C1050 C 0.50096 0.60652 0.26321 0.0
C1051 C 0.49862 0.61253 0.27518 0.0
C1052 C 0.48114 0.6003 0.28189 0.0
C1053 C 0.46636 0.58251 0.27682 0.0
C1054 C 0.46893 0.5768 0.26485 0.0
C1055 C 0.48597 0.58879 0.25824 0.0
C1056 C 0.48597 0.5806 0.24554 0.0
C1057 C 0.4661 0.56173 0.24561 0.0
C1058 C 0.45625 0.55952 0.25697 0.0
C1059 C 0.50368 0.57676 0.24502 0.0
C1060 C 0.48656 0.59508 0.23559 0.0
H1061 H 0.3949 0.49046 0.23997 0.0
H1062 H 0.38935 0.51002 0.28323 0.0
H1063 H 0.4035 0.54771 0.26721 0.0
H1064 H 0.42756 0.56653 0.27094 0.0
H1065 H 0.41196 0.5504 0.28308 0.0
H1066 H 0.43549 0.51991 0.28066 0.0
H1067 H 0.42639 0.53192 0.2907 0.0
H1068 H 0.45032 0.5452 0.28334 0.0
H1069 H 0.44061 0.50847 0.20245 0.0
H1070 H 0.49722 0.56199 0.19985 0.0
H1071 H 0.4929 0.57147 0.22041 0.0
H1072 H 0.44588 0.49912 0.23133 0.0
H1073 H 0.42349 0.48653 0.22218 0.0
H1074 H 0.42279 0.49072 0.23866 0.0
H1075 H 0.41717 0.52842 0.21489 0.0
H1076 H 0.40215 0.51399 0.22718 0.0
H1077 H 0.40653 0.5024 0.21398 0.0
H1078 H 0.36585 0.46954 0.25217 0.0
C1079 C 0.39425 0.49516 0.24927 0.0
Gd1080 Gd 0.51217 0.01562 0.01913 0.0
Gd1081 Gd 0.49235 0.9865 0.98984 0.0
C1082 C 0.4314 0.93114 0.98799 0.0
C1083 C 0.44022 0.90594 0.98487 0.0
C1084 C 0.466 0.94008 0.98633 0.0
C1085 C 0.45176 0.94542 0.98807 0.0
C1086 C 0.46042 0.92033 0.98443 0.0
C1087 C 0.42573 0.91133 0.98666 0.0
C1088 C 0.41735 0.93724 0.98891 0.0
C1089 C 0.42375 0.95717 0.9894 0.0
N1090 N 0.45778 0.96468 0.98922 0.0
C1091 C 0.44412 0.97077 0.98936 0.0
H1092 H 0.4488 0.9861 0.98984 0.0
C1093 C 0.49977 0.95009 0.98271 0.0
N1094 N 0.48532 0.95437 0.98587 0.0
C1095 C 0.49501 0.9307 0.98081 0.0
C1096 C 0.47527 0.91572 0.98183 0.0
H1097 H 0.51508 0.96161 0.98201 0.0
H1098 H 0.41017 0.90013 0.9867 0.0
H1099 H 0.55601 0.0167 0.01851 0.0
H1100 H 0.40157 0.92674 0.98894 0.0
H1101 H 0.41302 0.96208 0.98988 0.0
H1102 H 0.43563 0.89065 0.98355 0.0
H1103 H 0.48896 0.03976 0.02777 0.0
H1104 H 0.6027 0.07627 0.0201 0.0
H1105 H 0.5917 0.04107 0.01852 0.0
H1106 H 0.56789 0.11137 0.0267 0.0
H1107 H 0.50656 0.92733 0.9786 0.0
H1108 H 0.4716 0.90072 0.98032 0.0
H1109 H 0.59365 0.10245 0.02302 0.0
H1110 H 0.49707 0.07373 0.03188 0.0
N1111 N 0.54665 0.0378 0.01969 0.0
C1112 C 0.58696 0.06561 0.02009 0.0
C1113 C 0.58081 0.04576 0.01923 0.0
C1114 C 0.57273 0.07143 0.02131 0.0
C1115 C 0.55243 0.05696 0.02117 0.0
C1116 C 0.5605 0.03197 0.01924 0.0
N1117 N 0.51876 0.04751 0.02355 0.0
C1118 C 0.53801 0.06199 0.02316 0.0
C1119 C 0.50872 0.07065 0.02937 0.0
C1120 C 0.52837 0.08585 0.0284 0.0
C1121 C 0.50419 0.05142 0.02706 0.0
C1122 C 0.54336 0.0816 0.02545 0.0
H1123 H 0.53185 0.10072 0.03023 0.0
O1124 O 0.49742 0.00955 0.0371 0.0
O1125 O 0.48713 0.99002 0.00977 0.0
O1126 O 0.4838 0.01 0.99206 0.0
O1127 O 0.50715 0.03422 0.00535 0.0
O1128 O 0.47963 0.00551 0.02197 0.0
O1129 O 0.52442 0.00825 0.03516 0.0
O1130 O 0.50615 0.99047 0.97164 0.0
O1131 O 0.51733 0.01211 0.99916 0.0
O1132 O 0.52099 0.99235 0.0167 0.0
O1133 O 0.49684 0.96796 0.00394 0.0
O1134 O 0.52495 0.99683 0.98691 0.0
O1135 O 0.48119 0.9952 0.97392 0.0
C1136 C 0.47264 0.9905 0.01468 0.0
C1137 C 0.56348 0.09619 0.02508 0.0
C1138 C 0.57815 0.09111 0.023 0.0
C1139 C 0.51082 0.00706 0.04279 0.0
C1140 C 0.51767 0.01692 0.05498 0.0
C1141 C 0.5293 0.0373 0.05568 0.0
C1142 C 0.51191 0.00591 0.06606 0.0
C1143 C 0.51752 0.01522 0.07787 0.0
C1144 C 0.5349 0.04665 0.06727 0.0
C1145 C 0.52898 0.03579 0.07826 0.0
C1146 C 0.49321 0.02811 0.99657 0.0
C1147 C 0.53188 0.01189 0.99416 0.0
C1148 C 0.49371 0.99456 0.96611 0.0
C1149 C 0.48549 0.98468 0.95407 0.0
C1150 C 0.47133 0.96474 0.95368 0.0
C1151 C 0.49191 0.99526 0.94285 0.0
C1152 C 0.48416 0.98597 0.93124 0.0
C1153 C 0.46368 0.95541 0.94226 0.0
C1154 C 0.47001 0.96588 0.93113 0.0
C1155 C 0.51103 0.97407 0.01255 0.0
H1156 H 0.53389 0.04598 0.0473 0.0
H1157 H 0.50315 0.99013 0.06541 0.0
H1158 H 0.5437 0.06242 0.06774 0.0
H1159 H 0.53317 0.04361 0.08707 0.0
H1160 H 0.46624 0.95639 0.96219 0.0
H1161 H 0.50272 0.01073 0.94321 0.0
H1162 H 0.45282 0.93998 0.94201 0.0
H1163 H 0.46398 0.95814 0.9224 0.0
Gd1164 Gd 0.98634 0.49535 0.01918 0.0
Gd1165 Gd 0.01862 0.50774 0.99151 0.0
C1166 C 0.0752 0.50373 0.98963 0.0
C1167 C 0.10083 0.53782 0.98787 0.0
C1168 C 0.06606 0.52886 0.98951 0.0
C1169 C 0.06065 0.50939 0.99043 0.0
C1170 C 0.08617 0.54328 0.98797 0.0
C1171 C 0.09534 0.51807 0.98864 0.0
C1172 C 0.069 0.4838 0.98937 0.0
C1173 C 0.04878 0.47009 0.98998 0.0
N1174 N 0.04104 0.49589 0.99124 0.0
C1175 C 0.03491 0.47641 0.99078 0.0
H1176 H 0.01933 0.46561 0.9911 0.0
C1177 C 0.05582 0.55218 0.98664 0.0
N1178 N 0.05146 0.53352 0.98919 0.0
C1179 C 0.07557 0.56705 0.98527 0.0
C1180 C 0.09084 0.56263 0.98608 0.0
H1181 H 0.04406 0.55568 0.98598 0.0
H1182 H 0.10674 0.51399 0.98815 0.0
H1183 H 0.9868 0.53813 0.01998 0.0
H1184 H 0.07968 0.47887 0.98841 0.0
H1185 H 0.04384 0.45463 0.9897 0.0
H1186 H 0.11638 0.5487 0.98679 0.0
H1187 H 0.95969 0.44761 0.02495 0.0
H1188 H 0.9268 0.52633 0.01997 0.0
H1189 H 0.96289 0.54989 0.02023 0.0
H1190 H 0.88858 0.45647 0.02152 0.0
H1191 H 0.07898 0.58189 0.98354 0.0
H1192 H 0.10611 0.57413 0.98489 0.0
H1193 H 0.89911 0.49137 0.01994 0.0
H1194 H 0.92437 0.42192 0.02671 0.0
N1195 N 0.96459 0.50803 0.0191 0.0
C1196 C 0.93724 0.52102 0.01969 0.0
C1197 C 0.9576 0.53437 0.01991 0.0
C1198 C 0.9306 0.50099 0.0195 0.0
C1199 C 0.94483 0.49487 0.01932 0.0
C1200 C 0.97114 0.52759 0.01977 0.0
N1201 N 0.95314 0.47019 0.02115 0.0
C1202 C 0.93891 0.47529 0.0203 0.0
C1203 C 0.92824 0.43686 0.02486 0.0
C1204 C 0.91335 0.44172 0.02342 0.0
C1205 C 0.9482 0.45141 0.02388 0.0
C1206 C 0.91859 0.4612 0.02136 0.0
H1207 H 0.8979 0.43045 0.02428 0.0
O1208 O 0.98706 0.48348 0.03729 0.0
O1209 O 0.01353 0.49737 0.01106 0.0
O1210 O 0.99457 0.47556 0.99184 0.0
O1211 O 0.96882 0.47373 0.004 0.0
O1212 O 0.99676 0.47345 0.02203 0.0
O1213 O 0.99329 0.51338 0.03583 0.0
O1214 O 0.01656 0.51897 0.97344 0.0
O1215 O 0.99144 0.5056 0.99966 0.0
O1216 O 0.01079 0.5274 0.019 0.0
O1217 O 0.03638 0.52925 0.00667 0.0
O1218 O 0.00806 0.52956 0.98875 0.0
O1219 O 0.01216 0.4897 0.97489 0.0
C1220 C 0.01288 0.48239 0.01563 0.0
C1221 C 0.90428 0.46709 0.02083 0.0
C1222 C 0.91028 0.48697 0.01994 0.0
C1223 C 0.99063 0.49928 0.0433 0.0
C1224 C 0.97845 0.49653 0.05439 0.0
C1225 C 0.95812 0.49017 0.05328 0.0
C1226 C 0.98734 0.50037 0.06625 0.0
C1227 C 0.97601 0.49786 0.07704 0.0
C1228 C 0.94676 0.4876 0.06391 0.0
C1229 C 0.95559 0.49139 0.07573 0.0
C1230 C 0.97565 0.46668 0.99531 0.0
C1231 C 0.99198 0.52055 0.99517 0.0
C1232 C 0.01373 0.50341 0.96743 0.0
C1233 C 0.02571 0.50677 0.95617 0.0
C1234 C 0.04625 0.51399 0.95697 0.0
C1235 C 0.01648 0.50299 0.94441 0.0
C1236 C 0.02771 0.50656 0.93346 0.0
C1237 C 0.05748 0.51757 0.94615 0.0
C1238 C 0.04832 0.51394 0.93444 0.0
C1239 C 0.02967 0.53628 0.01543 0.0
H1240 H 0.95103 0.4872 0.04424 0.0
H1241 H 0.00314 0.50557 0.06705 0.0
H1242 H 0.93104 0.48261 0.06299 0.0
H1243 H 0.9464 0.48906 0.08385 0.0
H1244 H 0.0536 0.51691 0.96591 0.0
H1245 H 1.00062 0.49756 0.9438 0.0
H1246 H 0.07334 0.52314 0.94685 0.0
H1247 H 0.05729 0.51664 0.92617 0.0
Gd1248 Gd 0.49227 0.50711 0.99104 0.0
Gd1249 Gd 0.51324 0.49657 0.01918 0.0
C1250 C 0.57389 0.50032 0.01873 0.0
C1251 C 0.56486 0.4663 0.02108 0.0
C1252 C 0.53931 0.47552 0.02099 0.0
C1253 C 0.5536 0.49483 0.01929 0.0
C1254 C 0.54478 0.46107 0.02221 0.0
C1255 C 0.57939 0.4859 0.01933 0.0
C1256 C 0.58804 0.52018 0.01794 0.0
C1257 C 0.58185 0.534 0.0182 0.0
N1258 N 0.54774 0.50836 0.01884 0.0
C1259 C 0.56155 0.52781 0.01882 0.0
H1260 H 0.55702 0.53867 0.01892 0.0
C1261 C 0.50573 0.4526 0.02532 0.0
N1262 N 0.52011 0.47104 0.0221 0.0
C1263 C 0.51038 0.43772 0.02656 0.0
C1264 C 0.52996 0.44192 0.02484 0.0
H1265 H 0.49055 0.44926 0.02655 0.0
H1266 H 0.59488 0.48981 0.01877 0.0
H1267 H 0.44812 0.46554 0.99176 0.0
H1268 H 0.60377 0.52501 0.01743 0.0
H1269 H 0.59269 0.54942 0.01784 0.0
H1270 H 0.56935 0.45538 0.02185 0.0
H1271 H 0.51562 0.55418 0.98294 0.0
H1272 H 0.40215 0.48033 0.99302 0.0
H1273 H 0.41259 0.45543 0.99295 0.0
H1274 H 0.4376 0.54978 0.98756 0.0
H1275 H 0.49888 0.42304 0.02882 0.0
H1276 H 0.53354 0.43038 0.02584 0.0
H1277 H 0.41167 0.51565 0.99116 0.0
H1278 H 0.50787 0.58069 0.98013 0.0
N1279 N 0.45791 0.49596 0.99151 0.0
C1280 C 0.41781 0.48487 0.99249 0.0
C1281 C 0.42363 0.47078 0.99241 0.0
C1282 C 0.43222 0.50461 0.99145 0.0
C1283 C 0.4524 0.50973 0.99087 0.0
C1284 C 0.44384 0.47659 0.99173 0.0
N1285 N 0.48602 0.53297 0.98777 0.0
C1286 C 0.46693 0.52888 0.98891 0.0
C1287 C 0.49622 0.5662 0.98266 0.0
C1288 C 0.4768 0.56244 0.98442 0.0
C1289 C 0.50056 0.55115 0.98423 0.0
C1290 C 0.4618 0.54353 0.9874 0.0
H1291 H 0.47348 0.57411 0.98318 0.0
O1292 O 0.50594 0.5159 0.97281 0.0
O1293 O 0.51759 0.50546 0.99935 0.0
O1294 O 0.52197 0.52865 0.01777 0.0
O1295 O 0.49791 0.53013 0.00539 0.0
O1296 O 0.52484 0.52859 0.98761 0.0
O1297 O 0.47858 0.48833 0.97485 0.0
O1298 O 0.50012 0.48667 0.03747 0.0
O1299 O 0.4879 0.49818 0.01089 0.0
O1300 O 0.48325 0.47497 0.9926 0.0
O1301 O 0.50782 0.47389 0.00462 0.0
O1302 O 0.48069 0.47501 0.02258 0.0
O1303 O 0.52584 0.51553 0.03538 0.0
C1304 C 0.532 0.52007 0.99435 0.0
C1305 C 0.44183 0.5387 0.98855 0.0
C1306 C 0.42707 0.51927 0.9906 0.0
C1307 C 0.49184 0.50062 0.96713 0.0
C1308 C 0.48448 0.50448 0.95544 0.0
C1309 C 0.47228 0.51286 0.95558 0.0
C1310 C 0.49047 0.50045 0.94399 0.0
C1311 C 0.4846 0.50502 0.9326 0.0
C1312 C 0.46633 0.51739 0.94438 0.0
C1313 C 0.47249 0.51363 0.93297 0.0
C1314 C 0.51227 0.53755 0.0139 0.0
C1315 C 0.4735 0.48356 0.01589 0.0
C1316 C 0.5134 0.50249 0.04314 0.0
C1317 C 0.52188 0.4996 0.05467 0.0
C1318 C 0.53642 0.49405 0.05422 0.0
C1319 C 0.51506 0.5021 0.06628 0.0
C1320 C 0.52268 0.49906 0.07749 0.0
C1321 C 0.54403 0.49098 0.06526 0.0
C1322 C 0.53723 0.49342 0.07682 0.0
C1323 C 0.49321 0.46625 0.99629 0.0
H1324 H 0.46752 0.51603 0.96431 0.0
H1325 H 0.49964 0.49368 0.944 0.0
H1326 H 0.45705 0.52402 0.94453 0.0
H1327 H 0.46799 0.51775 0.92447 0.0
H1328 H 0.54183 0.49205 0.04537 0.0
H1329 H 0.50398 0.50661 0.06656 0.0
H1330 H 0.55519 0.4866 0.06486 0.0
H1331 H 0.54319 0.49064 0.08522 0.0
Gd1332 Gd 0.17782 0.34793 0.35275 0.0
Gd1333 Gd 0.15925 0.31879 0.32344 0.0
C1334 C 0.09759 0.26428 0.32064 0.0
C1335 C 0.10571 0.23882 0.31652 0.0
C1336 C 0.132 0.27261 0.31896 0.0
C1337 C 0.11806 0.2782 0.32109 0.0
C1338 C 0.12601 0.25295 0.31626 0.0
C1339 C 0.09151 0.24447 0.31872 0.0
C1340 C 0.08387 0.27076 0.32163 0.0
C1341 C 0.09069 0.29073 0.32264 0.0
N1342 N 0.1245 0.29749 0.32269 0.0
C1343 C 0.11114 0.30397 0.32295 0.0
H1344 H 0.11607 0.31932 0.32373 0.0
C1345 C 0.16544 0.28243 0.31448 0.0
N1346 N 0.15138 0.2867 0.31855 0.0
C1347 C 0.16029 0.26313 0.31174 0.0
C1348 C 0.14052 0.24826 0.31285 0.0
H1349 H 0.18076 0.29387 0.31366 0.0
H1350 H 0.07586 0.23353 0.3185 0.0
H1351 H 0.22079 0.34723 0.35347 0.0
H1352 H 0.06804 0.26056 0.3212 0.0
H1353 H 0.08021 0.29594 0.32316 0.0
H1354 H 0.10081 0.22359 0.31461 0.0
H1355 H 0.15589 0.37359 0.3604 0.0
H1356 H 0.26891 0.4062 0.35414 0.0
H1357 H 0.25675 0.37069 0.3536 0.0
H1358 H 0.23608 0.44356 0.35885 0.0
H1359 H 0.17156 0.25975 0.30881 0.0
H1360 H 0.13654 0.23334 0.31068 0.0
H1361 H 0.26104 0.43335 0.35595 0.0
H1362 H 0.16511 0.40809 0.3638 0.0
N1363 N 0.21248 0.36915 0.35357 0.0
C1364 C 0.25307 0.39595 0.35409 0.0
C1365 C 0.24626 0.37592 0.35382 0.0
C1366 C 0.23934 0.40247 0.35473 0.0
C1367 C 0.21888 0.38851 0.35456 0.0
C1368 C 0.22581 0.36264 0.35376 0.0
N1369 N 0.18547 0.38026 0.35655 0.0
C1370 C 0.20491 0.39426 0.35613 0.0
C1371 C 0.17645 0.40442 0.36159 0.0
C1372 C 0.19631 0.41912 0.36055 0.0
C1373 C 0.17128 0.38491 0.3597 0.0
C1374 C 0.21088 0.41412 0.35798 0.0
H1375 H 0.20029 0.43421 0.36204 0.0
O1376 O 0.16312 0.34417 0.37062 0.0
O1377 O 0.15318 0.32208 0.3433 0.0
O1378 O 0.15089 0.34247 0.32521 0.0
O1379 O 0.174 0.36669 0.33851 0.0
O1380 O 0.14524 0.33808 0.35475 0.0
O1381 O 0.18854 0.33999 0.3692 0.0
O1382 O 0.1745 0.32424 0.30564 0.0
O1383 O 0.18397 0.34425 0.33305 0.0
O1384 O 0.18547 0.32371 0.35164 0.0
O1385 O 0.16452 0.30003 0.33703 0.0
O1386 O 0.19183 0.32838 0.3215 0.0
O1387 O 0.14859 0.32749 0.30726 0.0
C1388 C 0.13851 0.32269 0.34781 0.0
C1389 C 0.23119 0.4282 0.35758 0.0
C1390 C 0.2454 0.42239 0.35593 0.0
C1391 C 0.17545 0.34039 0.3766 0.0
C1392 C 0.18286 0.35025 0.38873 0.0
C1393 C 0.1966 0.37029 0.38934 0.0
C1394 C 0.17617 0.33943 0.39983 0.0
C1395 C 0.18321 0.34855 0.41157 0.0
C1396 C 0.20357 0.37946 0.4009 0.0
C1397 C 0.19696 0.36874 0.41192 0.0
C1398 C 0.16043 0.36067 0.32952 0.0
C1399 C 0.19863 0.34355 0.32865 0.0
C1400 C 0.16198 0.32784 0.29979 0.0
C1401 C 0.15494 0.31833 0.28753 0.0
C1402 C 0.14146 0.29824 0.28666 0.0
C1403 C 0.16205 0.32941 0.27655 0.0
C1404 C 0.15587 0.32042 0.26471 0.0
C1405 C 0.13524 0.28925 0.27499 0.0
C1406 C 0.14239 0.3002 0.26409 0.0
C1407 C 0.17695 0.30587 0.34671 0.0
H1408 H 0.20193 0.37882 0.38091 0.0
H1409 H 0.16572 0.32387 0.3993 0.0
H1410 H 0.21413 0.39497 0.40132 0.0
H1411 H 0.20246 0.37633 0.42075 0.0
H1412 H 0.13576 0.28952 0.29499 0.0
H1413 H 0.17259 0.34493 0.27724 0.0
H1414 H 0.1248 0.27373 0.27439 0.0
H1415 H 0.13714 0.29287 0.25517 0.0
Gd1416 Gd 0.65217 0.82864 0.35201 0.0
Gd1417 Gd 0.68493 0.83817 0.32475 0.0
C1418 C 0.74178 0.83453 0.32605 0.0
C1419 C 0.76735 0.86843 0.32323 0.0
C1420 C 0.73243 0.85928 0.32339 0.0
C1421 C 0.7271 0.84003 0.32542 0.0
C1422 C 0.75259 0.87365 0.322 0.0
C1423 C 0.76195 0.84889 0.32525 0.0
C1424 C 0.73573 0.81469 0.32708 0.0
C1425 C 0.71547 0.80089 0.32712 0.0
N1426 N 0.70747 0.82652 0.32602 0.0
C1427 C 0.70147 0.80708 0.32645 0.0
H1428 H 0.68588 0.79624 0.32651 0.0
C1429 C 0.72215 0.88205 0.31848 0.0
N1430 N 0.71778 0.86374 0.32204 0.0
C1431 C 0.74193 0.89685 0.31709 0.0
C1432 C 0.75724 0.8927 0.31901 0.0
H1433 H 0.71039 0.88536 0.31703 0.0
H1434 H 0.77345 0.84496 0.32585 0.0
H1435 H 0.65124 0.87058 0.35034 0.0
H1436 H 0.74655 0.80987 0.32755 0.0
H1437 H 0.71061 0.78548 0.32769 0.0
H1438 H 0.78293 0.87929 0.3223 0.0
H1439 H 0.62665 0.78145 0.3597 0.0
H1440 H 0.59058 0.85695 0.34894 0.0
H1441 H 0.62651 0.88134 0.34901 0.0
H1442 H 0.55414 0.78749 0.354 0.0
H1443 H 0.74535 0.91144 0.31454 0.0
H1444 H 0.77255 0.90417 0.31787 0.0
H1445 H 0.56366 0.82183 0.35049 0.0
H1446 H 0.59166 0.75534 0.36203 0.0
N1447 N 0.62964 0.8403 0.35067 0.0
C1448 C 0.6014 0.85212 0.34947 0.0
C1449 C 0.62165 0.86593 0.34955 0.0
C1450 C 0.59533 0.83228 0.35046 0.0
C1451 C 0.61001 0.82678 0.35116 0.0
C1452 C 0.63565 0.85975 0.35031 0.0
N1453 N 0.61929 0.80306 0.3546 0.0
C1454 C 0.60466 0.80751 0.35316 0.0
C1455 C 0.5951 0.76993 0.35948 0.0
C1456 C 0.5798 0.77408 0.35745 0.0
C1457 C 0.61489 0.78475 0.35818 0.0
C1458 C 0.58449 0.79313 0.35446 0.0
H1459 H 0.56449 0.7626 0.35853 0.0
O1460 O 0.6541 0.81942 0.37078 0.0
O1461 O 0.6794 0.8298 0.34467 0.0
O1462 O 0.66078 0.80614 0.32624 0.0
O1463 O 0.63482 0.80563 0.33748 0.0
O1464 O 0.66267 0.80726 0.35666 0.0
O1465 O 0.65804 0.84826 0.36772 0.0
O1466 O 0.6827 0.8473 0.30602 0.0
O1467 O 0.65773 0.83706 0.33211 0.0
O1468 O 0.67643 0.86068 0.35058 0.0
O1469 O 0.70232 0.86118 0.33925 0.0
O1470 O 0.67453 0.85963 0.32017 0.0
O1471 O 0.67906 0.81856 0.30904 0.0
C1472 C 0.67874 0.81544 0.35019 0.0
C1473 C 0.56974 0.79835 0.35315 0.0
C1474 C 0.57516 0.81791 0.35115 0.0
C1475 C 0.65647 0.83542 0.37593 0.0
C1476 C 0.64405 0.83287 0.38685 0.0
C1477 C 0.62395 0.82738 0.38549 0.0
C1478 C 0.65233 0.83552 0.39885 0.0
C1479 C 0.6406 0.83255 0.40949 0.0
C1480 C 0.61221 0.82439 0.396 0.0
C1481 C 0.62043 0.82689 0.40794 0.0
C1482 C 0.64176 0.79772 0.32946 0.0
C1483 C 0.65844 0.85147 0.32663 0.0
C1484 C 0.68043 0.83135 0.30085 0.0
C1485 C 0.69276 0.83401 0.28987 0.0
C1486 C 0.71271 0.83891 0.29112 0.0
C1487 C 0.68453 0.83209 0.27793 0.0
C1488 C 0.69615 0.83518 0.26722 0.0
C1489 C 0.72436 0.84203 0.28054 0.0
C1490 C 0.71619 0.84025 0.26864 0.0
C1491 C 0.69543 0.8691 0.34729 0.0
H1492 H 0.61734 0.82536 0.37634 0.0
H1493 H 0.66784 0.83959 0.39989 0.0
H1494 H 0.5967 0.82015 0.39488 0.0
H1495 H 0.61109 0.82467 0.41597 0.0
H1496 H 0.71929 0.84037 0.30023 0.0
H1497 H 0.66915 0.82848 0.27698 0.0
H1498 H 0.73976 0.84583 0.28157 0.0
H1499 H 0.72544 0.84256 0.26055 0.0
Gd1500 Gd 0.15986 0.84019 0.32475 0.0
Gd1501 Gd 0.18007 0.82978 0.35321 0.0
C1502 C 0.24048 0.8332 0.35542 0.0
C1503 C 0.2311 0.79919 0.35836 0.0
C1504 C 0.20569 0.80845 0.35635 0.0
C1505 C 0.2202 0.82773 0.35478 0.0
C1506 C 0.21095 0.79398 0.35836 0.0
C1507 C 0.24585 0.81879 0.35694 0.0
C1508 C 0.25473 0.85305 0.35494 0.0
C1509 C 0.24865 0.86687 0.35386 0.0
N1510 N 0.2145 0.84129 0.35344 0.0
C1511 C 0.22837 0.86072 0.35326 0.0
H1512 H 0.22394 0.87161 0.35253 0.0
C1513 C 0.17172 0.7856 0.3596 0.0
N1514 N 0.18643 0.80402 0.35663 0.0
C1515 C 0.17616 0.77069 0.36148 0.0
C1516 C 0.19585 0.77485 0.36072 0.0
H1517 H 0.15647 0.7823 0.36019 0.0
H1518 H 0.26135 0.8227 0.35731 0.0
H1519 H 0.11567 0.7986 0.3254 0.0
H1520 H 0.27043 0.85786 0.3557 0.0
H1521 H 0.25957 0.88227 0.3536 0.0
H1522 H 0.23545 0.78828 0.3598 0.0
H1523 H 0.18356 0.88748 0.31713 0.0
H1524 H 0.06968 0.81337 0.32552 0.0
H1525 H 0.08012 0.7885 0.32606 0.0
H1526 H 0.10529 0.88286 0.32025 0.0
H1527 H 0.16441 0.75602 0.36353 0.0
H1528 H 0.19928 0.76331 0.36229 0.0
H1529 H 0.07923 0.84867 0.32348 0.0
H1530 H 0.17591 0.91405 0.31425 0.0
N1531 N 0.12549 0.82902 0.32482 0.0
C1532 C 0.08535 0.81791 0.32522 0.0
C1533 C 0.09118 0.80384 0.32549 0.0
C1534 C 0.09979 0.83766 0.32421 0.0
C1535 C 0.11999 0.84279 0.32393 0.0
C1536 C 0.11141 0.80965 0.3251 0.0
N1537 N 0.15374 0.86612 0.32138 0.0
C1538 C 0.13459 0.86198 0.32217 0.0
C1539 C 0.16415 0.89948 0.31653 0.0
C1540 C 0.14464 0.89565 0.3179 0.0
C1541 C 0.16843 0.88441 0.31814 0.0
C1542 C 0.12951 0.87664 0.32057 0.0
H1543 H 0.14135 0.90733 0.31661 0.0
O1544 O 0.17363 0.8492 0.30656 0.0
O1545 O 0.18499 0.83836 0.3333 0.0
O1546 O 0.18915 0.86192 0.35148 0.0
O1547 O 0.16502 0.8631 0.33906 0.0
O1548 O 0.19255 0.86149 0.32153 0.0
O1549 O 0.14658 0.82133 0.30854 0.0
O1550 O 0.16683 0.82015 0.3715 0.0
O1551 O 0.15497 0.83148 0.34464 0.0
O1552 O 0.15065 0.80803 0.3265 0.0
O1553 O 0.17495 0.80697 0.3388 0.0
O1554 O 0.14741 0.80848 0.3565 0.0
O1555 O 0.19233 0.84912 0.36926 0.0
C1556 C 0.19956 0.85289 0.32834 0.0
C1557 C 0.10949 0.87177 0.32134 0.0
C1558 C 0.09465 0.85231 0.32317 0.0
C1559 C 0.15974 0.83382 0.30085 0.0
C1560 C 0.15221 0.83752 0.28917 0.0
C1561 C 0.13967 0.84551 0.28935 0.0
C1562 C 0.15829 0.83367 0.27768 0.0
C1563 C 0.15214 0.83803 0.26632 0.0
C1564 C 0.13347 0.84986 0.27818 0.0
C1565 C 0.13971 0.84628 0.26675 0.0
C1566 C 0.17938 0.87071 0.34755 0.0
C1567 C 0.14041 0.81704 0.34966 0.0
C1568 C 0.17996 0.83614 0.37708 0.0
C1569 C 0.18852 0.83362 0.38871 0.0
C1570 C 0.2035 0.82866 0.38841 0.0
C1571 C 0.18142 0.83598 0.40025 0.0
C1572 C 0.18922 0.83339 0.41153 0.0
C1573 C 0.21126 0.826 0.39952 0.0
C1574 C 0.20419 0.82831 0.411 0.0
C1575 C 0.16045 0.79926 0.3304 0.0
H1576 H 0.13481 0.84852 0.29809 0.0
H1577 H 0.16773 0.82719 0.27765 0.0
H1578 H 0.12393 0.85621 0.27838 0.0
H1579 H 0.135 0.85024 0.25827 0.0
H1580 H 0.20916 0.82681 0.37964 0.0
H1581 H 0.17 0.84005 0.40042 0.0
H1582 H 0.22276 0.82207 0.39922 0.0
H1583 H 0.2103 0.82588 0.41946 0.0
Gd1584 Gd 0.8446 0.68254 0.68633 0.0
Gd1585 Gd 0.82644 0.65349 0.65691 0.0
C1586 C 0.76533 0.5985 0.65399 0.0
C1587 C 0.77398 0.57303 0.6518 0.0
C1588 C 0.79992 0.60708 0.65353 0.0
C1589 C 0.78572 0.61262 0.65465 0.0
C1590 C 0.79425 0.58727 0.65181 0.0
C1591 C 0.75954 0.57864 0.65289 0.0
C1592 C 0.75143 0.60484 0.65405 0.0
C1593 C 0.758 0.6248 0.65445 0.0
N1594 N 0.79188 0.63193 0.65562 0.0
C1595 C 0.77839 0.63822 0.65508 0.0
H1596 H 0.78318 0.65357 0.65542 0.0
C1597 C 0.8338 0.61676 0.65073 0.0
N1598 N 0.81931 0.62123 0.65339 0.0
C1599 C 0.82895 0.59731 0.64908 0.0
C1600 C 0.8091 0.58246 0.64978 0.0
H1601 H 0.84918 0.6282 0.65028 0.0
H1602 H 0.74394 0.56757 0.65253 0.0
H1603 H 0.88872 0.68419 0.68667 0.0
H1604 H 0.73563 0.59449 0.65346 0.0
H1605 H 0.74738 0.62987 0.6543 0.0
H1606 H 0.76931 0.5577 0.65063 0.0
H1607 H 0.82049 0.70615 0.69418 0.0
H1608 H 0.93483 0.74392 0.68919 0.0
H1609 H 0.92431 0.70884 0.68745 0.0
H1610 H 0.89903 0.77826 0.69465 0.0
H1611 H 0.84051 0.59378 0.64729 0.0
H1612 H 0.80536 0.56741 0.64843 0.0
H1613 H 0.92526 0.76978 0.69168 0.0
H1614 H 0.828 0.73993 0.69826 0.0
N1615 N 0.87897 0.70502 0.68752 0.0
C1616 C 0.91914 0.73314 0.6888 0.0
C1617 C 0.91326 0.71336 0.68787 0.0
C1618 C 0.90469 0.73872 0.68961 0.0
C1619 C 0.88447 0.72411 0.68904 0.0
C1620 C 0.893 0.6994 0.68743 0.0
N1621 N 0.8506 0.71425 0.69068 0.0
C1622 C 0.8698 0.72889 0.69066 0.0
C1623 C 0.83989 0.73705 0.69607 0.0
C1624 C 0.85951 0.7524 0.69551 0.0
C1625 C 0.8357 0.71792 0.69378 0.0
C1626 C 0.8748 0.7484 0.69297 0.0
H1627 H 0.86274 0.7672 0.69733 0.0
O1628 O 0.8291 0.67633 0.70404 0.0
O1629 O 0.82013 0.65694 0.6766 0.0
O1630 O 0.81789 0.67707 0.65849 0.0
O1631 O 0.84025 0.7012 0.67225 0.0
O1632 O 0.81184 0.67221 0.6884 0.0
O1633 O 0.8561 0.67491 0.70261 0.0
O1634 O 0.84091 0.65683 0.63902 0.0
O1635 O 0.85086 0.67916 0.66655 0.0
O1636 O 0.85387 0.65953 0.68437 0.0
O1637 O 0.83026 0.63505 0.67143 0.0
O1638 O 0.85921 0.66396 0.65473 0.0
O1639 O 0.81645 0.66249 0.64057 0.0
C1640 C 0.80532 0.6573 0.68105 0.0
C1641 C 0.89488 0.76315 0.69302 0.0
C1642 C 0.90981 0.75832 0.69133 0.0
C1643 C 0.84219 0.67365 0.70998 0.0
C1644 C 0.84854 0.68322 0.72229 0.0
C1645 C 0.85972 0.70361 0.72325 0.0
C1646 C 0.84288 0.67188 0.73323 0.0
C1647 C 0.84814 0.68084 0.74514 0.0
C1648 C 0.86497 0.71262 0.73495 0.0
C1649 C 0.85917 0.70141 0.7458 0.0
C1650 C 0.82691 0.69513 0.6631 0.0
C1651 C 0.8657 0.67903 0.66194 0.0
C1652 C 0.82905 0.66131 0.6331 0.0
C1653 C 0.82109 0.65137 0.62105 0.0
C1654 C 0.8073 0.63132 0.62062 0.0
C1655 C 0.82736 0.66201 0.60985 0.0
C1656 C 0.81982 0.65268 0.59822 0.0
C1657 C 0.79985 0.62196 0.60918 0.0
C1658 C 0.80604 0.63249 0.59806 0.0
C1659 C 0.84416 0.64124 0.68022 0.0
H1660 H 0.86423 0.71255 0.71497 0.0
H1661 H 0.83448 0.6561 0.73239 0.0
H1662 H 0.87344 0.72839 0.73562 0.0
H1663 H 0.8631 0.70895 0.75471 0.0
H1664 H 0.80232 0.62293 0.62912 0.0
H1665 H 0.83788 0.67755 0.61023 0.0
H1666 H 0.78927 0.60645 0.60891 0.0
H1667 H 0.80019 0.62474 0.58932 0.0
Gd1668 Gd 0.31938 0.16256 0.68588 0.0
Gd1669 Gd 0.35221 0.17302 0.65841 0.0
C1670 C 0.40557 0.16348 0.66156 0.0
C1671 C 0.43338 0.19646 0.65925 0.0
C1672 C 0.39941 0.19026 0.65822 0.0
C1673 C 0.39227 0.17066 0.66027 0.0
C1674 C 0.42003 0.20329 0.65721 0.0
C1675 C 0.42615 0.17657 0.66145 0.0
C1676 C 0.39777 0.14331 0.66251 0.0
C1677 C 0.37726 0.13084 0.66168 0.0
N1678 N 0.3723 0.15844 0.66019 0.0
C1679 C 0.36469 0.13866 0.66034 0.0
H1680 H 0.34889 0.12875 0.65981 0.0
C1681 C 0.39225 0.21453 0.65154 0.0
N1682 N 0.38609 0.19624 0.65605 0.0
C1683 C 0.41254 0.22809 0.65052 0.0
C1684 C 0.42652 0.22255 0.65361 0.0
H1685 H 0.38143 0.21882 0.64917 0.0
H1686 H 0.43659 0.17136 0.66261 0.0
H1687 H 0.32214 0.20645 0.68428 0.0
H1688 H 0.40747 0.1372 0.66354 0.0
H1689 H 0.37109 0.11519 0.66214 0.0
H1690 H 0.44929 0.20629 0.6587 0.0
H1691 H 0.29117 0.11657 0.69487 0.0
H1692 H 0.26322 0.19751 0.68353 0.0
H1693 H 0.29958 0.21973 0.68338 0.0
H1694 H 0.2223 0.12836 0.68843 0.0
H1695 H 0.41737 0.24277 0.64734 0.0
H1696 H 0.44223 0.23302 0.65272 0.0
H1697 H 0.2344 0.16326 0.68501 0.0
H1698 H 0.25549 0.09237 0.69755 0.0
N1699 N 0.29892 0.17668 0.68437 0.0
C1700 C 0.27306 0.19149 0.68375 0.0
C1701 C 0.29358 0.20409 0.68373 0.0
C1702 C 0.2655 0.17133 0.68446 0.0
C1703 C 0.27899 0.16429 0.68484 0.0
C1704 C 0.30635 0.19643 0.68424 0.0
N1705 N 0.28576 0.13889 0.68844 0.0
C1706 C 0.27217 0.1447 0.68681 0.0
C1707 C 0.25995 0.10699 0.69442 0.0
C1708 C 0.24564 0.11234 0.69196 0.0
C1709 C 0.28009 0.12068 0.69289 0.0
C1710 C 0.2517 0.13155 0.68846 0.0
H1711 H 0.23006 0.10179 0.69333 0.0
O1712 O 0.32104 0.15181 0.70421 0.0
O1713 O 0.3469 0.16451 0.67836 0.0
O1714 O 0.32688 0.1415 0.65836 0.0
O1715 O 0.30196 0.1381 0.67216 0.0
O1716 O 0.32961 0.14084 0.68959 0.0
O1717 O 0.32457 0.18064 0.70235 0.0
O1718 O 0.35189 0.18424 0.63997 0.0
O1719 O 0.3248 0.17125 0.66598 0.0
O1720 O 0.34453 0.19418 0.6859 0.0
O1721 O 0.36936 0.19782 0.67192 0.0
O1722 O 0.34184 0.19467 0.65459 0.0
O1723 O 0.34598 0.15457 0.64204 0.0
C1724 C 0.34605 0.14976 0.68349 0.0
C1725 C 0.2381 0.13826 0.6873 0.0
C1726 C 0.245 0.15814 0.68537 0.0
C1727 C 0.32314 0.16723 0.71001 0.0
C1728 C 0.31062 0.16359 0.72105 0.0
C1729 C 0.29012 0.15632 0.71986 0.0
C1730 C 0.31928 0.16699 0.73297 0.0
C1731 C 0.30751 0.16277 0.74376 0.0
C1732 C 0.27832 0.15204 0.73046 0.0
C1733 C 0.28687 0.15509 0.74233 0.0
C1734 C 0.30861 0.13173 0.66294 0.0
C1735 C 0.32555 0.18594 0.66086 0.0
C1736 C 0.34875 0.16835 0.63428 0.0
C1737 C 0.36143 0.17097 0.62348 0.0
C1738 C 0.38123 0.17558 0.62508 0.0
C1739 C 0.35354 0.16875 0.6114 0.0
C1740 C 0.36536 0.17119 0.60087 0.0
C1741 C 0.39311 0.17817 0.6147 0.0
C1742 C 0.38528 0.17603 0.60267 0.0
C1743 C 0.36268 0.20412 0.68116 0.0
H1744 H 0.28323 0.15389 0.71079 0.0
H1745 H 0.33522 0.17309 0.73377 0.0
H1746 H 0.26246 0.14622 0.72947 0.0
H1747 H 0.27725 0.15123 0.75038 0.0
H1748 H 0.3875 0.17712 0.63429 0.0
H1749 H 0.33809 0.16479 0.61025 0.0
H1750 H 0.40843 0.18184 0.616 0.0
H1751 H 0.39487 0.1783 0.59477 0.0
Gd1752 Gd 0.82554 0.17201 0.65745 0.0
Gd1753 Gd 0.847 0.16322 0.68599 0.0
C1754 C 0.90742 0.16646 0.68638 0.0
C1755 C 0.8982 0.13271 0.69031 0.0
C1756 C 0.8728 0.14208 0.68915 0.0
C1757 C 0.88717 0.16115 0.6868 0.0
C1758 C 0.87816 0.12771 0.69124 0.0
C1759 C 0.9128 0.15205 0.68786 0.0
C1760 C 0.92166 0.18616 0.68482 0.0
C1761 C 0.91561 0.20005 0.68418 0.0
N1762 N 0.88144 0.1747 0.68553 0.0
C1763 C 0.89535 0.19407 0.68474 0.0
H1764 H 0.89094 0.205 0.68417 0.0
C1765 C 0.83923 0.11978 0.69394 0.0
N1766 N 0.85364 0.13782 0.69007 0.0
C1767 C 0.84378 0.105 0.69607 0.0
C1768 C 0.86329 0.1089 0.69455 0.0
H1769 H 0.8241 0.11666 0.69505 0.0
H1770 H 0.92826 0.15581 0.68745 0.0
H1771 H 0.78159 0.13026 0.65923 0.0
H1772 H 0.93736 0.19083 0.68439 0.0
H1773 H 0.92652 0.21537 0.6832 0.0
H1774 H 0.9026 0.12183 0.69176 0.0
H1775 H 0.8484 0.21855 0.64835 0.0
H1776 H 0.73522 0.1445 0.65931 0.0
H1777 H 0.74602 0.11992 0.66032 0.0
H1778 H 0.76999 0.21352 0.65202 0.0
H1779 H 0.83224 0.09061 0.69885 0.0
H1780 H 0.8668 0.09744 0.69624 0.0
H1781 H 0.74434 0.17955 0.65635 0.0
H1782 H 0.84028 0.24464 0.64463 0.0
N1783 N 0.79111 0.16057 0.658 0.0
C1784 C 0.7509 0.14916 0.65883 0.0
C1785 C 0.75694 0.13524 0.65937 0.0
C1786 C 0.76516 0.16886 0.6573 0.0
C1787 C 0.78539 0.17415 0.65683 0.0
C1788 C 0.77718 0.1412 0.65874 0.0
N1789 N 0.8189 0.19744 0.65343 0.0
C1790 C 0.79976 0.19321 0.65445 0.0
C1791 C 0.82875 0.23026 0.64744 0.0
C1792 C 0.80926 0.22639 0.64906 0.0
C1793 C 0.83329 0.21546 0.64953 0.0
C1794 C 0.79441 0.2076 0.65241 0.0
H1795 H 0.80577 0.23787 0.6474 0.0
O1796 O 0.8382 0.18028 0.63891 0.0
O1797 O 0.85097 0.17068 0.66588 0.0
O1798 O 0.856 0.19523 0.68359 0.0
O1799 O 0.83161 0.19597 0.67116 0.0
O1800 O 0.85804 0.19304 0.6535 0.0
O1801 O 0.81213 0.15193 0.64184 0.0
O1802 O 0.83391 0.15503 0.70442 0.0
O1803 O 0.82157 0.16457 0.67756 0.0
O1804 O 0.81658 0.14005 0.65986 0.0
O1805 O 0.84093 0.13922 0.67228 0.0
O1806 O 0.81451 0.14207 0.68983 0.0
O1807 O 0.86046 0.18309 0.70171 0.0
C1808 C 0.86529 0.18483 0.66046 0.0
C1809 C 0.77439 0.20263 0.65342 0.0
C1810 C 0.75979 0.18329 0.65588 0.0
C1811 C 0.82445 0.16423 0.63371 0.0
C1812 C 0.81573 0.1666 0.62211 0.0
C1813 C 0.80089 0.17175 0.62244 0.0
C1814 C 0.82259 0.16396 0.61055 0.0
C1815 C 0.81468 0.16643 0.59929 0.0
C1816 C 0.79302 0.17431 0.61135 0.0
C1817 C 0.79984 0.1717 0.59985 0.0
C1818 C 0.84623 0.20393 0.67948 0.0
C1819 C 0.80725 0.15033 0.68292 0.0
C1820 C 0.84776 0.17089 0.70973 0.0
C1821 C 0.85592 0.16817 0.72146 0.0
C1822 C 0.87051 0.16266 0.7214 0.0
C1823 C 0.84854 0.17055 0.73289 0.0
C1824 C 0.85558 0.16736 0.74427 0.0
C1825 C 0.87758 0.15948 0.73263 0.0
C1826 C 0.87017 0.16176 0.744 0.0
C1827 C 0.82638 0.13135 0.66391 0.0
H1828 H 0.79541 0.17381 0.63124 0.0
H1829 H 0.8339 0.15975 0.61036 0.0
H1830 H 0.78162 0.17838 0.61166 0.0
H1831 H 0.79364 0.17403 0.59139 0.0
H1832 H 0.87638 0.16078 0.71269 0.0
H1833 H 0.83708 0.17458 0.73289 0.0
H1834 H 0.88886 0.15524 0.73253 0.0
H1835 H 0.87607 0.15942 0.75259 0.0
H1836 H 0.31113 0.88861 0.07056 0.0
H1837 H 0.34058 0.91026 0.05841 0.0
H1838 H 0.34523 0.86077 0.04592 0.0
H1839 H 0.31584 0.83899 0.05813 0.0
H1840 H 0.3784 0.9152 0.06131 0.0
H1841 H 0.34971 0.88963 0.01323 0.0
H1842 H 0.33352 0.88379 0.02654 0.0
H1843 H 0.34674 0.87086 0.02389 0.0
C1844 C 0.31842 0.88231 0.06526 0.0
C1845 C 0.31112 0.86205 0.06534 0.0
C1846 C 0.33518 0.8947 0.05825 0.0
C1847 C 0.34494 0.88711 0.05112 0.0
C1848 C 0.33767 0.8669 0.05112 0.0
H1849 H 0.46195 0.95179 0.01597 0.0
H1850 H 0.43012 0.92494 0.02346 0.0
C1851 C 0.32088 0.85448 0.05813 0.0
C1852 C 0.36338 0.90057 0.04431 0.0
H1853 H 0.38396 0.91324 0.01522 0.0
C1854 C 0.3796 0.91473 0.05124 0.0
C1855 C 0.36494 0.89988 0.03116 0.0
C1856 C 0.34777 0.88534 0.02322 0.0
C1857 C 0.39727 0.9283 0.04539 0.0
C1858 C 0.39873 0.92779 0.03227 0.0
C1859 C 0.38271 0.91348 0.0253 0.0
C1860 C 0.41653 0.94287 0.02576 0.0
C1861 C 0.41429 0.94329 0.05325 0.0
C1862 C 0.4191 0.96161 0.02428 0.0
C1863 C 0.43713 0.97685 0.01998 0.0
C1864 C 0.45279 0.97357 0.01695 0.0
C1865 C 0.44995 0.95461 0.01796 0.0
C1866 C 0.43184 0.9393 0.02228 0.0
H1867 H 0.4118 0.94014 0.06339 0.0
H1868 H 0.42839 0.94389 0.05057 0.0
H1869 H 0.4161 0.95794 0.05154 0.0
H1870 H 0.40745 0.9646 0.027 0.0
H1871 H 0.43908 0.9914 0.01941 0.0
H1872 H 0.17474 0.48937 0.05432 0.0
H1873 H 0.14857 0.49423 0.04525 0.0
H1874 H 0.10402 0.4386 0.05975 0.0
H1875 H 0.13011 0.43376 0.06897 0.0
H1876 H 0.12097 0.4733 0.02783 0.0
H1877 H 0.08288 0.47314 0.0715 0.0
H1878 H 0.10697 0.4749 0.0715 0.0
H1879 H 0.08472 0.45154 0.06963 0.0
C1880 C 0.15937 0.47816 0.05558 0.0
C1881 C 0.15453 0.4612 0.06242 0.0
C1882 C 0.14441 0.481 0.05042 0.0
C1883 C 0.12427 0.46696 0.05199 0.0
C1884 C 0.1194 0.44992 0.05871 0.0
H1885 H 0.01261 0.4491 0.02182 0.0
H1886 H 0.0403 0.44567 0.02996 0.0
C1887 C 0.13435 0.44713 0.06394 0.0
C1888 C 0.10844 0.46983 0.04619 0.0
H1889 H 0.06576 0.47084 0.05244 0.0
C1890 C 0.10903 0.47296 0.03325 0.0
C1891 C 0.0928 0.46939 0.05324 0.0
C1892 C 0.09187 0.46726 0.06725 0.0
C1893 C 0.09424 0.47522 0.02716 0.0
C1894 C 0.07842 0.47433 0.03415 0.0
C1895 C 0.07786 0.47138 0.04709 0.0
C1896 C 0.06217 0.47628 0.0282 0.0
C1897 C 0.09518 0.47789 0.01324 0.0
C1898 C 0.06534 0.49461 0.02444 0.0
C1899 C 0.04951 0.49662 0.01988 0.0
C1900 C 0.0303 0.48026 0.01881 0.0
C1901 C 0.02731 0.46189 0.02237 0.0
C1902 C 0.04308 0.45992 0.02704 0.0
H1903 H 0.10788 0.47723 0.00901 0.0
H1904 H 0.08115 0.4663 0.00896 0.0
H1905 H 0.09662 0.49224 0.01101 0.0
H1906 H 0.07992 0.50746 0.0254 0.0
H1907 H 0.05221 0.51105 0.01758 0.0
H1908 H 0.56835 0.71651 0.04265 0.0
H1909 H 0.55946 0.68482 0.03346 0.0
H1910 H 0.54296 0.65827 0.06981 0.0
H1911 H 0.5507 0.68961 0.07896 0.0
H1912 H 0.57366 0.6604 0.03752 0.0
H1913 H 0.49368 0.62364 0.04957 0.0
H1914 H 0.50981 0.6497 0.05099 0.0
H1915 H 0.50965 0.63369 0.06295 0.0
C1916 C 0.56257 0.70389 0.04867 0.0
C1917 C 0.56005 0.70559 0.06153 0.0
C1918 C 0.55767 0.68582 0.04342 0.0
C1919 C 0.55019 0.66913 0.05092 0.0
C1920 C 0.54826 0.67088 0.06381 0.0
H1921 H 0.54305 0.55956 0.02999 0.0
H1922 H 0.55242 0.59155 0.03879 0.0
C1923 C 0.55298 0.68889 0.06905 0.0
C1924 C 0.5445 0.64991 0.04524 0.0
H1925 H 0.50588 0.60326 0.04207 0.0
C1926 C 0.55882 0.64791 0.03846 0.0
C1927 C 0.52503 0.63375 0.0463 0.0
C1928 C 0.5086 0.63531 0.05273 0.0
C1929 C 0.55429 0.63007 0.03286 0.0
C1930 C 0.53507 0.61369 0.03439 0.0
C1931 C 0.52067 0.61578 0.04102 0.0
C1932 C 0.52943 0.59427 0.02907 0.0
C1933 C 0.57001 0.62909 0.02515 0.0
C1934 C 0.51293 0.58483 0.02105 0.0
C1935 C 0.50727 0.56636 0.0162 0.0
C1936 C 0.51812 0.55702 0.01918 0.0
C1937 C 0.53449 0.5664 0.02736 0.0
C1938 C 0.54 0.5848 0.03232 0.0
H1939 H 0.58142 0.64378 0.02185 0.0
H1940 H 0.57767 0.62323 0.03097 0.0
H1941 H 0.56337 0.61935 0.01691 0.0
H1942 H 0.50442 0.59178 0.01853 0.0
H1943 H 0.49429 0.55939 0.0102 0.0
H1944 H 0.85367 0.31664 0.92863 0.0
H1945 H 0.87952 0.3478 0.93715 0.0
H1946 H 0.87009 0.32234 0.9738 0.0
H1947 H 0.84508 0.29082 0.96525 0.0
H1948 H 0.87713 0.37106 0.95412 0.0
H1949 H 0.92948 0.34794 0.9713 0.0
H1950 H 0.90877 0.33277 0.96115 0.0
H1951 H 0.90507 0.33351 0.97769 0.0
C1952 C 0.85735 0.31752 0.93846 0.0
C1953 C 0.84733 0.3011 0.94622 0.0
C1954 C 0.87203 0.33542 0.94334 0.0
C1955 C 0.87702 0.33735 0.95608 0.0
C1956 C 0.86687 0.32111 0.96389 0.0
H1957 H 0.93516 0.44604 0.99769 0.0
H1958 H 0.91182 0.41485 0.98807 0.0
C1959 C 0.85231 0.30314 0.959 0.0
C1960 C 0.89231 0.35654 0.96125 0.0
H1961 H 0.93514 0.37897 0.97852 0.0
C1962 C 0.88989 0.37281 0.95938 0.0
C1963 C 0.90916 0.35893 0.96794 0.0
C1964 C 0.91342 0.3424 0.96953 0.0
C1965 C 0.90357 0.39127 0.96424 0.0
C1966 C 0.91984 0.39342 0.97149 0.0
C1967 C 0.92254 0.37727 0.97311 0.0
C1968 C 0.93416 0.41225 0.97754 0.0
C1969 C 0.90059 0.40833 0.96138 0.0
C1970 C 0.95462 0.42089 0.9752 0.0
C1971 C 0.96813 0.43855 0.98098 0.0
C1972 C 0.96143 0.44789 0.98923 0.0
C1973 C 0.94092 0.43916 0.99155 0.0
C1974 C 0.92747 0.42143 0.98588 0.0
H1975 H 0.89161 0.4057 0.95274 0.0
H1976 H 0.89245 0.4104 0.96919 0.0
H1977 H 0.91503 0.42203 0.96024 0.0
H1978 H 0.96013 0.41402 0.96883 0.0
H1979 H 0.98381 0.44484 0.97896 0.0
H1980 H 0.70994 0.556 0.96712 0.0
H1981 H 0.67903 0.5507 0.97663 0.0
H1982 H 0.64678 0.52155 0.94308 0.0
H1983 H 0.67774 0.5272 0.93343 0.0
H1984 H 0.63579 0.54623 0.95095 0.0
H1985 H 0.63434 0.50221 0.99142 0.0
H1986 H 0.65678 0.52544 0.99086 0.0
H1987 H 0.65136 0.50777 0.97862 0.0
C1988 C 0.69622 0.5483 0.96181 0.0
C1989 C 0.6963 0.54196 0.94952 0.0
C1990 C 0.67852 0.54517 0.9673 0.0
C1991 C 0.66041 0.53532 0.96071 0.0
C1992 C 0.6605 0.52909 0.94841 0.0
H1993 H 0.54134 0.49106 0.99145 0.0
H1994 H 0.57273 0.49465 0.98379 0.0
C1995 C 0.67823 0.53239 0.94287 0.0
C1996 C 0.64155 0.53233 0.96637 0.0
H1997 H 0.61146 0.5141 0.99192 0.0
C1998 C 0.63046 0.53911 0.95988 0.0
C1999 C 0.63433 0.52278 0.97796 0.0
C2000 C 0.64471 0.51395 0.98506 0.0
C2001 C 0.61263 0.53691 0.96468 0.0
C2002 C 0.60591 0.52819 0.97652 0.0
C2003 C 0.61676 0.52106 0.98294 0.0
C2004 C 0.5875 0.52614 0.98225 0.0
C2005 C 0.60097 0.54362 0.95685 0.0
C2006 C 0.58553 0.54265 0.98432 0.0
C2007 C 0.56761 0.5406 0.98864 0.0
C2008 C 0.55149 0.52206 0.99134 0.0
C2009 C 0.55365 0.50556 0.98969 0.0
C2010 C 0.57156 0.5076 0.98526 0.0
H2011 H 0.60487 0.54453 0.94681 0.0
H2012 H 0.58472 0.53361 0.95781 0.0
H2013 H 0.6045 0.55841 0.95999 0.0
H2014 H 0.59775 0.55713 0.98235 0.0
H2015 H 0.56626 0.55352 0.98977 0.0
H2016 H 0.42902 0.14475 0.96228 0.0
H2017 H 0.44048 0.12567 0.97395 0.0
H2018 H 0.45956 0.11151 0.93965 0.0
H2019 H 0.44907 0.13132 0.92798 0.0
H2020 H 0.42918 0.08745 0.97263 0.0
H2021 H 0.50905 0.13197 0.9611 0.0
H2022 H 0.49153 0.14018 0.95809 0.0
H2023 H 0.4936 0.12365 0.9474 0.0
C2024 C 0.43588 0.13777 0.95723 0.0
C2025 C 0.43828 0.1397 0.9442 0.0
C2026 C 0.44231 0.12678 0.96391 0.0
C2027 C 0.45126 0.11753 0.9577 0.0
C2028 C 0.45315 0.11894 0.94467 0.0
H2029 H 0.46283 0.02023 0.98037 0.0
H2030 H 0.45302 0.04282 0.97216 0.0
C2031 C 0.44684 0.13002 0.93798 0.0
C2032 C 0.45817 0.10598 0.9648 0.0
H2033 H 0.49846 0.10028 0.96961 0.0
C2034 C 0.44438 0.09037 0.97207 0.0
C2035 C 0.47811 0.11008 0.9643 0.0
C2036 C 0.49397 0.12751 0.95741 0.0
C2037 C 0.44977 0.07822 0.97843 0.0
C2038 C 0.46936 0.08151 0.97722 0.0
C2039 C 0.48338 0.09762 0.97039 0.0
C2040 C 0.47533 0.06789 0.98245 0.0
C2041 C 0.43443 0.06199 0.98638 0.0
C2042 C 0.49164 0.07463 0.99064 0.0
C2043 C 0.49755 0.06176 0.99524 0.0
C2044 C 0.4872 0.04192 0.99174 0.0
C2045 C 0.47104 0.03534 0.9834 0.0
C2046 C 0.46526 0.04821 0.97876 0.0
H2047 H 0.42287 0.06534 0.98961 0.0
H2048 H 0.4269 0.04833 0.98076 0.0
H2049 H 0.44137 0.05935 0.99468 0.0
H2050 H 0.49979 0.08984 0.99347 0.0
H2051 H 0.51031 0.06742 1.00142 0.0
H2052 H 0.68696 0.16484 0.94985 0.0
H2053 H 0.65763 0.14329 0.96227 0.0
H2054 H 0.66589 0.09456 0.95345 0.0
H2055 H 0.69525 0.11599 0.94106 0.0
H2056 H 0.62266 0.10726 0.9525 0.0
H2057 H 0.66002 0.09434 0.99267 0.0
H2058 H 0.67269 0.11523 0.98255 0.0
H2059 H 0.6681 0.09167 0.97744 0.0
C2060 C 0.68264 0.14957 0.95066 0.0
C2061 C 0.69341 0.1421 0.94448 0.0
C2062 C 0.66587 0.13729 0.95772 0.0
C2063 C 0.65977 0.11741 0.95888 0.0
C2064 C 0.67053 0.10992 0.95279 0.0
H2065 H 0.56552 0.01176 0.98824 0.0
H2066 H 0.59688 0.03924 0.981 0.0
C2067 C 0.68717 0.12214 0.94563 0.0
C2068 C 0.64157 0.10421 0.96593 0.0
H2069 H 0.62495 0.07393 0.99113 0.0
C2070 C 0.6231 0.10012 0.96103 0.0
C2071 C 0.64229 0.09497 0.97703 0.0
C2072 C 0.66182 0.09933 0.98283 0.0
C2073 C 0.60523 0.08629 0.96662 0.0
C2074 C 0.6059 0.07672 0.97762 0.0
C2075 C 0.62444 0.08131 0.98273 0.0
C2076 C 0.58759 0.06072 0.98331 0.0
C2077 C 0.58584 0.08137 0.96032 0.0
C2078 C 0.57213 0.06375 0.98736 0.0
C2079 C 0.5541 0.04799 0.99136 0.0
C2080 C 0.5515 0.02908 0.99172 0.0
C2081 C 0.56726 0.02625 0.98816 0.0
C2082 C 0.58517 0.04193 0.98406 0.0
H2083 H 0.58806 0.0866 0.95052 0.0
H2084 H 0.57541 0.06536 0.96029 0.0
H2085 H 0.57878 0.08849 0.96548 0.0
H2086 H 0.5738 0.07818 0.98711 0.0
H2087 H 0.54207 0.05052 0.99382 0.0
H2088 H 0.85274 0.55551 0.95936 0.0
H2089 H 0.87695 0.55008 0.97077 0.0
H2090 H 0.88441 0.52205 0.93829 0.0
H2091 H 0.86023 0.52736 0.92684 0.0
H2092 H 0.87794 0.5161 0.97646 0.0
H2093 H 0.94127 0.56482 0.94622 0.0
H2094 H 0.91784 0.56446 0.94586 0.0
H2095 H 0.92045 0.54581 0.93788 0.0
C2096 C 0.85938 0.54801 0.95468 0.0
C2097 C 0.85466 0.54205 0.94213 0.0
C2098 C 0.87328 0.54499 0.9612 0.0
C2099 C 0.88279 0.53598 0.95532 0.0
C2100 C 0.87765 0.52946 0.94293 0.0
H2101 H 0.95366 0.49121 0.99077 0.0
H2102 H 0.92635 0.49454 0.98208 0.0
C2103 C 0.86381 0.53252 0.93639 0.0
C2104 C 0.89826 0.53364 0.96208 0.0
H2105 H 0.94712 0.54599 0.96097 0.0
C2106 C 0.8931 0.52268 0.97311 0.0
C2107 C 0.91809 0.54242 0.95779 0.0
C2108 C 0.92485 0.55519 0.94635 0.0
C2109 C 0.90716 0.52006 0.97989 0.0
C2110 C 0.92691 0.52844 0.97544 0.0
C2111 C 0.93203 0.53952 0.96443 0.0
C2112 C 0.94269 0.52619 0.98197 0.0
C2113 C 0.90077 0.50875 0.99191 0.0
C2114 C 0.96114 0.54278 0.98476 0.0
C2115 C 0.97687 0.54086 0.98953 0.0
C2116 C 0.97442 0.52232 0.99186 0.0
C2117 C 0.95584 0.50571 0.98941 0.0
C2118 C 0.94016 0.50762 0.98446 0.0
H2119 H 0.88741 0.50844 0.99587 0.0
H2120 H 0.89701 0.49344 0.99011 0.0
H2121 H 0.91288 0.5152 0.99893 0.0
H2122 H 0.96357 0.55728 0.98291 0.0
H2123 H 0.99111 0.55388 0.9912 0.0
H2124 H 0.42181 0.2986 0.94166 0.0
H2125 H 0.43024 0.33054 0.95035 0.0
H2126 H 0.48304 0.33545 0.96728 0.0
H2127 H 0.47507 0.30384 0.95833 0.0
H2128 H 0.43593 0.34236 0.97574 0.0
H2129 H 0.50391 0.38662 0.9477 0.0
H2130 H 0.48577 0.36172 0.9437 0.0
H2131 H 0.5036 0.36672 0.95594 0.0
C2132 C 0.43534 0.30659 0.94711 0.0
C2133 C 0.44784 0.29876 0.94926 0.0
C2134 C 0.44004 0.32475 0.95213 0.0
C2135 C 0.45738 0.33542 0.9593 0.0
C2136 C 0.46976 0.32756 0.9616 0.0
H2137 H 0.51335 0.4462 0.99822 0.0
H2138 H 0.5038 0.41406 0.98956 0.0
C2139 C 0.46507 0.30941 0.95659 0.0
C2140 C 0.4624 0.35467 0.96454 0.0
H2141 H 0.49776 0.40297 0.96422 0.0
C2142 C 0.44938 0.35565 0.97319 0.0
C2143 C 0.47997 0.37192 0.96117 0.0
C2144 C 0.49405 0.37181 0.95153 0.0
C2145 C 0.4537 0.37343 0.97878 0.0
C2146 C 0.47133 0.39066 0.97546 0.0
C2147 C 0.48429 0.38969 0.96676 0.0
C2148 C 0.4767 0.40987 0.98093 0.0
C2149 C 0.43963 0.37357 0.98842 0.0
C2150 C 0.46468 0.4182 0.97883 0.0
C2151 C 0.47001 0.43652 0.98385 0.0
C2152 C 0.4875 0.44684 0.991 0.0
C2153 C 0.49961 0.43852 0.99295 0.0
C2154 C 0.49425 0.4202 0.98794 0.0
H2155 H 0.42952 0.35872 0.9921 0.0
H2156 H 0.44796 0.3834 0.99635 0.0
H2157 H 0.43036 0.37904 0.98407 0.0
H2158 H 0.45128 0.41061 0.97322 0.0
H2159 H 0.46041 0.44255 0.9821 0.0
H2160 H 0.15924 0.71269 0.04512 0.0
H2161 H 0.13436 0.68107 0.03664 0.0
H2162 H 0.12667 0.65537 0.07311 0.0
H2163 H 0.15242 0.68665 0.08153 0.0
H2164 H 0.12895 0.63254 0.05578 0.0
H2165 H 0.07504 0.65453 0.03999 0.0
H2166 H 0.09916 0.66933 0.03329 0.0
H2167 H 0.096 0.66988 0.0499 0.0
C2168 C 0.15243 0.7003 0.05134 0.0
C2169 C 0.15786 0.70231 0.06404 0.0
C2170 C 0.13794 0.68227 0.0465 0.0
C2171 C 0.12831 0.66592 0.05428 0.0
C2172 C 0.13375 0.66782 0.06694 0.0
H2173 H 0.02176 0.55777 0.03223 0.0
H2174 H 0.0455 0.58864 0.04224 0.0
C2175 C 0.14838 0.68579 0.07177 0.0
C2176 C 0.11309 0.64666 0.04916 0.0
H2177 H 0.06968 0.62375 0.03248 0.0
C2178 C 0.11592 0.63059 0.05076 0.0
C2179 C 0.09589 0.64402 0.04279 0.0
C2180 C 0.09121 0.66031 0.0415 0.0
C2181 C 0.10229 0.61208 0.04595 0.0
C2182 C 0.08565 0.60968 0.03902 0.0
C2183 C 0.08257 0.62564 0.03766 0.0
C2184 C 0.07131 0.59079 0.03305 0.0
C2185 C 0.10572 0.59523 0.04854 0.0
C2186 C 0.07788 0.58179 0.02448 0.0
C2187 C 0.06439 0.56401 0.01888 0.0
C2188 C 0.04395 0.55507 0.02148 0.0
C2189 C 0.03737 0.56423 0.02998 0.0
C2190 C 0.05093 0.58192 0.03569 0.0
H2191 H 0.11505 0.59796 0.05703 0.0
H2192 H 0.09146 0.58139 0.04981 0.0
H2193 H 0.11369 0.59336 0.04055 0.0
H2194 H 0.09345 0.58855 0.02206 0.0
H2195 H 0.07007 0.55729 0.01254 0.0
H2196 H 0.33373 0.47712 0.08176 0.0
H2197 H 0.3635 0.48365 0.07018 0.0
H2198 H 0.32709 0.45226 0.03838 0.0
H2199 H 0.29727 0.44608 0.04986 0.0
H2200 H 0.37345 0.45849 0.06187 0.0
H2201 H 0.36972 0.4999 0.02136 0.0
H2202 H 0.35429 0.49507 0.03495 0.0
H2203 H 0.34759 0.47661 0.02307 0.0
C2204 C 0.33208 0.47171 0.07227 0.0
C2205 C 0.31313 0.46106 0.06674 0.0
C2206 C 0.34912 0.47551 0.06563 0.0
C2207 C 0.34767 0.4687 0.05332 0.0
C2208 C 0.32875 0.45816 0.04773 0.0
H2209 H 0.43937 0.45014 0.02065 0.0
H2210 H 0.4082 0.44656 0.02865 0.0
C2211 C 0.31167 0.45454 0.05433 0.0
C2212 C 0.36583 0.47148 0.04675 0.0
H2213 H 0.3931 0.48866 0.02 0.0
C2214 C 0.37775 0.46519 0.05275 0.0
C2215 C 0.37167 0.48041 0.03488 0.0
C2216 C 0.36027 0.48857 0.02824 0.0
C2217 C 0.3951 0.46736 0.04721 0.0
C2218 C 0.40049 0.47554 0.03513 0.0
C2219 C 0.3888 0.48213 0.02918 0.0
C2220 C 0.4184 0.47754 0.02872 0.0
C2221 C 0.40772 0.46121 0.05451 0.0
C2222 C 0.43416 0.49605 0.02546 0.0
C2223 C 0.45191 0.49808 0.02072 0.0
C2224 C 0.45406 0.48159 0.01902 0.0
C2225 C 0.43803 0.46306 0.02184 0.0
C2226 C 0.42028 0.46102 0.02647 0.0
H2227 H 0.40474 0.46055 0.06469 0.0
H2228 H 0.40422 0.44642 0.0514 0.0
H2229 H 0.42381 0.47142 0.05299 0.0
H2230 H 0.43304 0.50901 0.02707 0.0
H2231 H 0.46415 0.51258 0.01884 0.0
H2232 H 0.53155 0.8352 0.06102 0.0
H2233 H 0.52217 0.85553 0.04888 0.0
H2234 H 0.5747 0.90727 0.06206 0.0
H2235 H 0.58458 0.88703 0.07386 0.0
H2236 H 0.51459 0.88428 0.05732 0.0
H2237 H 0.57776 0.91491 0.02428 0.0
H2238 H 0.57176 0.89403 0.03394 0.0
H2239 H 0.58532 0.91832 0.04038 0.0
C2240 C 0.54126 0.8509 0.0612 0.0
C2241 C 0.5589 0.85951 0.06833 0.0
C2242 C 0.5358 0.86248 0.05432 0.0
C2243 C 0.54791 0.88286 0.05441 0.0
C2244 C 0.56536 0.89154 0.06166 0.0
H2245 H 0.54288 0.9819 0.02737 0.0
H2246 H 0.55088 0.95859 0.03676 0.0
C2247 C 0.57085 0.87997 0.06853 0.0
C2248 C 0.54199 0.89509 0.0472 0.0
H2249 H 0.55775 0.93 0.02463 0.0
C2250 C 0.5239 0.89414 0.05008 0.0
C2251 C 0.55417 0.90786 0.03774 0.0
C2252 C 0.57325 0.90874 0.0338 0.0
C2253 C 0.518 0.90617 0.04405 0.0
C2254 C 0.53042 0.91926 0.03481 0.0
C2255 C 0.54831 0.91994 0.03175 0.0
C2256 C 0.52562 0.93313 0.02868 0.0
C2257 C 0.49889 0.90528 0.04791 0.0
C2258 C 0.50889 0.92648 0.02088 0.0
C2259 C 0.50422 0.93978 0.01549 0.0
C2260 C 0.51628 0.95993 0.01777 0.0
C2261 C 0.53322 0.96649 0.02542 0.0
C2262 C 0.53787 0.95321 0.03078 0.0
H2263 H 0.49299 0.89715 0.05676 0.0
H2264 H 0.50114 0.92022 0.0491 0.0
H2265 H 0.4875 0.89777 0.0405 0.0
H2266 H 0.4994 0.91102 0.01903 0.0
H2267 H 0.491 0.93422 0.0097 0.0
H2268 H 0.98433 0.17074 0.39358 0.0
H2269 H 0.01429 0.19283 0.38187 0.0
H2270 H 0.0083 0.24186 0.39363 0.0
H2271 H 0.97842 0.21995 0.40533 0.0
H2272 H 0.02028 0.21875 0.36251 0.0
H2273 H 0.06502 0.2583 0.40421 0.0
H2274 H 0.04186 0.23551 0.40529 0.0
H2275 H 0.04183 0.25809 0.40328 0.0
C2276 C 0.98934 0.18622 0.39361 0.0
C2277 C 0.97909 0.19361 0.40049 0.0
C2278 C 0.00648 0.19882 0.38694 0.0
C2279 C 0.01373 0.21902 0.38706 0.0
C2280 C 0.00326 0.22638 0.39366 0.0
H2281 H 0.10495 0.32301 0.35366 0.0
H2282 H 0.07402 0.29598 0.36184 0.0
C2283 C 0.98619 0.21383 0.40036 0.0
C2284 C 0.03224 0.2325 0.38031 0.0
H2285 H 0.07801 0.27291 0.38444 0.0
C2286 C 0.03301 0.23044 0.36732 0.0
C2287 C 0.04889 0.24768 0.38661 0.0
C2288 C 0.04949 0.24995 0.40063 0.0
C2289 C 0.04972 0.24367 0.36041 0.0
C2290 C 0.06595 0.25925 0.36667 0.0
C2291 C 0.06542 0.26099 0.37968 0.0
C2292 C 0.08336 0.27452 0.35994 0.0
C2293 C 0.04972 0.24149 0.34643 0.0
C2294 C 0.09867 0.27124 0.35597 0.0
C2295 C 0.11642 0.28671 0.35134 0.0
C2296 C 0.11894 0.30557 0.35054 0.0
C2297 C 0.10327 0.30857 0.35409 0.0
C2298 C 0.08564 0.29318 0.35874 0.0
H2299 H 0.03595 0.22853 0.34293 0.0
H2300 H 0.05114 0.25478 0.34196 0.0
H2301 H 0.06273 0.24017 0.34358 0.0
H2302 H 0.09724 0.25696 0.35697 0.0
H2303 H 0.12841 0.28409 0.34892 0.0
H2304 H 0.84237 0.82419 0.3881 0.0
H2305 H 0.81616 0.8287 0.37866 0.0
H2306 H 0.77174 0.77244 0.39235 0.0
H2307 H 0.79787 0.76767 0.40167 0.0
H2308 H 0.76791 0.77991 0.36621 0.0
H2309 H 0.7758 0.83957 0.39761 0.0
H2310 H 0.79831 0.84298 0.39058 0.0
H2311 H 0.78545 0.82369 0.40163 0.0
C2312 C 0.82703 0.81274 0.38907 0.0
C2313 C 0.82223 0.79557 0.39567 0.0
C2314 C 0.81206 0.81542 0.38376 0.0
C2315 C 0.79198 0.801 0.38492 0.0
C2316 C 0.78713 0.7838 0.39141 0.0
H2317 H 0.6781 0.78246 0.35763 0.0
H2318 H 0.70576 0.77899 0.36552 0.0
C2319 C 0.80208 0.78116 0.3968 0.0
C2320 C 0.77604 0.80363 0.37914 0.0
H2321 H 0.7532 0.83095 0.38081 0.0
C2322 C 0.76466 0.79107 0.36938 0.0
C2323 C 0.77193 0.81826 0.38324 0.0
C2324 C 0.78338 0.83185 0.3939 0.0
C2325 C 0.74939 0.79283 0.36352 0.0
C2326 C 0.74498 0.80727 0.36777 0.0
C2327 C 0.75653 0.81993 0.37749 0.0
C2328 C 0.72819 0.80922 0.36255 0.0
C2329 C 0.73846 0.77934 0.35272 0.0
C2330 C 0.73126 0.82751 0.35867 0.0
C2331 C 0.71532 0.82958 0.35443 0.0
C2332 C 0.69603 0.81333 0.35373 0.0
C2333 C 0.69291 0.79512 0.35774 0.0
C2334 C 0.70877 0.7931 0.36216 0.0
H2335 H 0.74801 0.77469 0.34781 0.0
H2336 H 0.72532 0.766 0.35631 0.0
H2337 H 0.73331 0.78633 0.34586 0.0
H2338 H 0.746 0.84026 0.35901 0.0
H2339 H 0.71809 0.84394 0.35186 0.0
H2340 H 0.25018 0.03847 0.40189 0.0
H2341 H 0.24243 0.00711 0.39255 0.0
H2342 H 0.18805 0.0007 0.37721 0.0
H2343 H 0.19548 0.03185 0.38665 0.0
H2344 H 0.20764 0.96991 0.39659 0.0
H2345 H 0.21612 0.99251 0.34689 0.0
H2346 H 0.22605 0.0099 0.35962 0.0
H2347 H 0.19999 0.99798 0.35589 0.0
C2348 C 0.23651 0.03033 0.39659 0.0
C2349 C 0.22347 0.03769 0.39498 0.0
C2350 C 0.23217 0.0125 0.39122 0.0
C2351 C 0.21483 0.00179 0.38406 0.0
C2352 C 0.20172 0.00898 0.38249 0.0
H2353 H 0.15927 0.89075 0.34527 0.0
H2354 H 0.16825 0.92258 0.35424 0.0
C2355 C 0.20601 0.02678 0.38788 0.0
C2356 C 0.21014 0.98279 0.37854 0.0
H2357 H 0.20272 0.95872 0.35078 0.0
C2358 C 0.20667 0.96745 0.38658 0.0
C2359 C 0.20884 0.9797 0.36548 0.0
C2360 C 0.2131 0.99591 0.35643 0.0
C2361 C 0.2015 0.9489 0.3819 0.0
C2362 C 0.20019 0.9458 0.36883 0.0
C2363 C 0.20374 0.96117 0.36079 0.0
C2364 C 0.19501 0.92665 0.36331 0.0
C2365 C 0.197 0.93266 0.39098 0.0
C2366 C 0.20726 0.91855 0.3653 0.0
C2367 C 0.20221 0.90038 0.36016 0.0
C2368 C 0.18491 0.89008 0.35284 0.0
C2369 C 0.1728 0.89837 0.35075 0.0
C2370 C 0.17786 0.91653 0.3559 0.0
H2371 H 0.19369 0.93604 0.40046 0.0
H2372 H 0.18415 0.91867 0.38772 0.0
H2373 H 0.21012 0.93065 0.39175 0.0
H2374 H 0.22078 0.92633 0.37078 0.0
H2375 H 0.21193 0.89447 0.3619 0.0
H2376 H 0.5213 0.64725 0.26304 0.0
H2377 H 0.54691 0.67826 0.27186 0.0
H2378 H 0.53592 0.6524 0.30845 0.0
H2379 H 0.51113 0.62102 0.2996 0.0
H2380 H 0.54385 0.70136 0.28861 0.0
H2381 H 0.59538 0.67799 0.307 0.0
H2382 H 0.57508 0.66291 0.29656 0.0
H2383 H 0.57069 0.66358 0.31301 0.0
C2384 C 0.52459 0.648 0.27292 0.0
C2385 C 0.51419 0.63151 0.28057 0.0
C2386 C 0.53914 0.66582 0.27797 0.0
C2387 C 0.54361 0.66761 0.29079 0.0
C2388 C 0.5331 0.65129 0.29849 0.0
H2389 H 0.60126 0.77706 0.33194 0.0
H2390 H 0.57793 0.74555 0.32267 0.0
C2391 C 0.51867 0.6334 0.29343 0.0
C2392 C 0.5587 0.68676 0.29614 0.0
H2393 H 0.60095 0.70908 0.31397 0.0
C2394 C 0.55641 0.70306 0.29409 0.0
C2395 C 0.57527 0.68908 0.30312 0.0
C2396 C 0.5794 0.6725 0.30495 0.0
C2397 C 0.56998 0.72151 0.29902 0.0
C2398 C 0.58599 0.72362 0.30652 0.0
C2399 C 0.58853 0.70741 0.30836 0.0
C2400 C 0.60031 0.74251 0.31252 0.0
C2401 C 0.56719 0.73862 0.29592 0.0
C2402 C 0.62079 0.75098 0.31031 0.0
C2403 C 0.63429 0.76883 0.31588 0.0
C2404 C 0.62756 0.77855 0.32379 0.0
C2405 C 0.60704 0.76993 0.32604 0.0
C2406 C 0.5936 0.752 0.32059 0.0
H2407 H 0.55839 0.73595 0.2872 0.0
H2408 H 0.55896 0.74085 0.3036 0.0
H2409 H 0.58171 0.75224 0.29481 0.0
H2410 H 0.62632 0.74388 0.30416 0.0
H2411 H 0.64997 0.77501 0.31392 0.0
H2412 H 0.353 0.8445 0.28849 0.0
H2413 H 0.32214 0.83949 0.29793 0.0
H2414 H 0.33397 0.89551 0.28424 0.0
H2415 H 0.36476 0.90056 0.2747 0.0
H2416 H 0.31621 0.8603 0.31585 0.0
H2417 H 0.27741 0.86094 0.27251 0.0
H2418 H 0.29964 0.85908 0.27232 0.0
H2419 H 0.30131 0.88247 0.27436 0.0
C2420 C 0.34905 0.85577 0.28749 0.0
C2421 C 0.36136 0.87291 0.28078 0.0
C2422 C 0.33135 0.85285 0.29286 0.0
C2423 C 0.32549 0.86695 0.29163 0.0
C2424 C 0.33783 0.88415 0.28504 0.0
H2425 H 0.23308 0.88567 0.32157 0.0
H2426 H 0.26391 0.88848 0.31349 0.0
C2427 C 0.35549 0.88704 0.2796 0.0
C2428 C 0.30683 0.86394 0.2976 0.0
H2429 H 0.2631 0.86318 0.29171 0.0
C2430 C 0.3045 0.8607 0.31054 0.0
C2431 C 0.2915 0.86447 0.29069 0.0
C2432 C 0.29245 0.86673 0.27669 0.0
C2433 C 0.28757 0.85849 0.31677 0.0
C2434 C 0.27255 0.85952 0.30991 0.0
C2435 C 0.27471 0.86251 0.29697 0.0
C2436 C 0.25462 0.85798 0.316 0.0
C2437 C 0.2862 0.85595 0.33071 0.0
C2438 C 0.23922 0.83991 0.32022 0.0
C2439 C 0.22152 0.83826 0.32478 0.0
C2440 C 0.21905 0.8547 0.32536 0.0
C2441 C 0.23469 0.87282 0.3214 0.0
C2442 C 0.25228 0.87443 0.31676 0.0
H2443 H 0.29949 0.85619 0.33479 0.0
H2444 H 0.28458 0.86786 0.33502 0.0
H2445 H 0.27284 0.84185 0.3331 0.0
H2446 H 0.24061 0.82697 0.31957 0.0
H2447 H 0.20956 0.82401 0.32742 0.0
H2448 H 0.09933 0.47889 0.29424 0.0
H2449 H 0.1105 0.4594 0.30566 0.0
H2450 H 0.13005 0.44621 0.27119 0.0
H2451 H 0.11988 0.4665 0.25978 0.0
H2452 H 0.09875 0.42137 0.30389 0.0
H2453 H 0.17892 0.46492 0.29289 0.0
H2454 H 0.16182 0.47364 0.28987 0.0
H2455 H 0.16364 0.45706 0.27911 0.0
C2456 C 0.10628 0.47209 0.2891 0.0
C2457 C 0.10887 0.47442 0.27609 0.0
C2458 C 0.11253 0.46085 0.29563 0.0
C2459 C 0.12148 0.45168 0.28931 0.0
C2460 C 0.12364 0.45356 0.2763 0.0
H2461 H 0.13075 0.35298 0.31278 0.0
H2462 H 0.12173 0.37582 0.30394 0.0
C2463 C 0.11753 0.46492 0.26976 0.0
C2464 C 0.12796 0.43966 0.29628 0.0
H2465 H 0.16768 0.43311 0.30135 0.0
C2466 C 0.11387 0.42404 0.30342 0.0
C2467 C 0.14779 0.4434 0.29588 0.0
C2468 C 0.16396 0.46079 0.28913 0.0
C2469 C 0.11888 0.41163 0.30982 0.0
C2470 C 0.13838 0.41464 0.30877 0.0
C2471 C 0.15267 0.43068 0.30201 0.0
C2472 C 0.14403 0.4009 0.31423 0.0
C2473 C 0.10324 0.39549 0.31769 0.0
C2474 C 0.16008 0.40756 0.32261 0.0
C2475 C 0.16554 0.39455 0.32757 0.0
C2476 C 0.15496 0.37464 0.32425 0.0
C2477 C 0.1391 0.36814 0.31568 0.0
C2478 C 0.13378 0.38116 0.31068 0.0
H2479 H 0.0917 0.39899 0.32074 0.0
H2480 H 0.09574 0.38184 0.31207 0.0
H2481 H 0.10992 0.39278 0.32609 0.0
H2482 H 0.16837 0.42281 0.32534 0.0
H2483 H 0.17811 0.40014 0.3339 0.0
H2484 H 0.3364 0.47036 0.26134 0.0
H2485 H 0.30701 0.44833 0.27344 0.0
H2486 H 0.34455 0.45386 0.30481 0.0
H2487 H 0.37395 0.47629 0.29282 0.0
H2488 H 0.29715 0.41381 0.28236 0.0
H2489 H 0.30319 0.46154 0.32209 0.0
H2490 H 0.31801 0.47089 0.30819 0.0
H2491 H 0.32513 0.45968 0.32022 0.0
C2492 C 0.33836 0.46694 0.27084 0.0
C2493 C 0.35747 0.47506 0.27613 0.0
C2494 C 0.32156 0.45442 0.27777 0.0
C2495 C 0.32349 0.44965 0.29013 0.0
C2496 C 0.34258 0.45774 0.29544 0.0
H2497 H 0.23284 0.34337 0.3248 0.0
H2498 H 0.26416 0.37009 0.31682 0.0
C2499 C 0.35939 0.47046 0.28855 0.0
C2500 C 0.30561 0.43518 0.29709 0.0
H2501 H 0.27987 0.42747 0.32433 0.0
C2502 C 0.29335 0.41688 0.29151 0.0
C2503 C 0.30047 0.43921 0.30898 0.0
C2504 C 0.31228 0.45897 0.31517 0.0
C2505 C 0.2763 0.40245 0.29749 0.0
C2506 C 0.27164 0.40615 0.3096 0.0
C2507 C 0.28366 0.42455 0.31514 0.0
C2508 C 0.25405 0.39112 0.31644 0.0
C2509 C 0.2632 0.38351 0.29063 0.0
C2510 C 0.23843 0.39443 0.31961 0.0
C2511 C 0.22062 0.37924 0.32435 0.0
C2512 C 0.2183 0.3606 0.32609 0.0
C2513 C 0.23433 0.35764 0.32355 0.0
C2514 C 0.25214 0.37284 0.31894 0.0
H2515 H 0.2657 0.3851 0.28039 0.0
H2516 H 0.2667 0.37225 0.2939 0.0
H2517 H 0.24723 0.37819 0.29242 0.0
H2518 H 0.23962 0.40845 0.31781 0.0
H2519 H 0.2084 0.38183 0.32605 0.0
H2520 H 0.54814 0.90349 0.27075 0.0
H2521 H 0.57144 0.89697 0.28231 0.0
H2522 H 0.52275 0.84213 0.29482 0.0
H2523 H 0.49929 0.84845 0.28315 0.0
H2524 H 0.57091 0.88851 0.30916 0.0
H2525 H 0.56331 0.82841 0.27818 0.0
H2526 H 0.5561 0.84583 0.27323 0.0
H2527 H 0.54074 0.82677 0.28387 0.0
C2528 C 0.54237 0.88997 0.2759 0.0
C2529 C 0.52185 0.87642 0.27594 0.0
C2530 C 0.55571 0.88633 0.28256 0.0
C2531 C 0.54886 0.86898 0.28931 0.0
C2532 C 0.52837 0.85552 0.28955 0.0
H2533 H 0.61907 0.82305 0.32466 0.0
H2534 H 0.59138 0.82696 0.31725 0.0
C2535 C 0.51497 0.85922 0.28296 0.0
C2536 C 0.56329 0.8651 0.29606 0.0
H2537 H 0.58509 0.83677 0.29532 0.0
C2538 C 0.57396 0.87713 0.30619 0.0
C2539 C 0.56715 0.85018 0.29222 0.0
C2540 C 0.55636 0.83707 0.28124 0.0
C2541 C 0.58845 0.87473 0.31257 0.0
C2542 C 0.59284 0.86021 0.30849 0.0
C2543 C 0.58181 0.84789 0.2985 0.0
C2544 C 0.60935 0.85807 0.314 0.0
C2545 C 0.59871 0.88775 0.32369 0.0
C2546 C 0.62877 0.87415 0.31465 0.0
C2547 C 0.64448 0.87199 0.31918 0.0
C2548 C 0.64122 0.85368 0.32307 0.0
C2549 C 0.62192 0.83748 0.32217 0.0
C2550 C 0.60612 0.83968 0.3178 0.0
H2551 H 0.58889 0.89228 0.32837 0.0
H2552 H 0.60333 0.88042 0.33064 0.0
H2553 H 0.61213 0.90119 0.32048 0.0
H2554 H 0.63192 0.88834 0.31136 0.0
H2555 H 0.65931 0.88462 0.31946 0.0
H2556 H 0.14055 0.63613 0.29253 0.0
H2557 H 0.14848 0.66753 0.30178 0.0
H2558 H 0.09452 0.66185 0.28622 0.0
H2559 H 0.08608 0.63007 0.27731 0.0
H2560 H 0.15413 0.7007 0.28935 0.0
H2561 H 0.09169 0.67485 0.32289 0.0
H2562 H 0.09845 0.65852 0.31538 0.0
H2563 H 0.0842 0.6671 0.30704 0.0
C2564 C 0.13019 0.64139 0.29125 0.0
C2565 C 0.11262 0.63054 0.28425 0.0
C2566 C 0.13482 0.6594 0.29646 0.0
C2567 C 0.12195 0.66686 0.29482 0.0
C2568 C 0.10446 0.65616 0.28779 0.0
H2569 H 0.12779 0.77553 0.31613 0.0
H2570 H 0.11866 0.74349 0.30738 0.0
C2571 C 0.09979 0.63813 0.28258 0.0
C2572 C 0.12724 0.68618 0.30012 0.0
H2573 H 0.11171 0.70915 0.32042 0.0
C2574 C 0.14492 0.70256 0.29618 0.0
C2575 C 0.11513 0.68851 0.30901 0.0
C2576 C 0.09639 0.67131 0.31393 0.0
C2577 C 0.1507 0.72129 0.30078 0.0
C2578 C 0.13862 0.72361 0.30968 0.0
C2579 C 0.12091 0.70726 0.31358 0.0
C2580 C 0.14416 0.74292 0.31507 0.0
C2581 C 0.1695 0.7385 0.29592 0.0
C2582 C 0.16141 0.75304 0.32239 0.0
C2583 C 0.16671 0.77136 0.32738 0.0
C2584 C 0.15474 0.77979 0.32522 0.0
C2585 C 0.13736 0.76949 0.31796 0.0
C2586 C 0.13208 0.75116 0.31297 0.0
H2587 H 0.17443 0.73494 0.28706 0.0
H2588 H 0.16738 0.75122 0.29433 0.0
H2589 H 0.18157 0.74284 0.30294 0.0
H2590 H 0.17077 0.74677 0.32425 0.0
H2591 H 0.18028 0.77895 0.33284 0.0
H2592 H 0.82707 0.04582 0.37652 0.0
H2593 H 0.80222 0.01441 0.36771 0.0
H2594 H 0.79103 0.98875 0.40437 0.0
H2595 H 0.81667 0.01977 0.41315 0.0
H2596 H 0.79394 0.96547 0.38767 0.0
H2597 H 0.74273 0.98923 0.36923 0.0
H2598 H 0.76744 0.00344 0.36322 0.0
H2599 H 0.76308 0.00424 0.37965 0.0
C2600 C 0.81948 0.03348 0.38271 0.0
C2601 C 0.82388 0.03542 0.39558 0.0
C2602 C 0.80502 0.01558 0.37768 0.0
C2603 C 0.79443 0.99931 0.38541 0.0
C2604 C 0.79887 0.00115 0.39823 0.0
H2605 H 0.68744 0.89198 0.36284 0.0
H2606 H 0.71128 0.92318 0.37248 0.0
C2607 C 0.81344 0.01897 0.40326 0.0
C2608 C 0.77923 0.98018 0.38011 0.0
H2609 H 0.73678 0.95793 0.36246 0.0
C2610 C 0.78137 0.9638 0.38222 0.0
C2611 C 0.76264 0.97792 0.37317 0.0
C2612 C 0.75869 0.9946 0.37129 0.0
C2613 C 0.76764 0.94534 0.3774 0.0
C2614 C 0.7516 0.94328 0.36994 0.0
C2615 C 0.74921 0.95956 0.36804 0.0
C2616 C 0.73715 0.92438 0.36403 0.0
C2617 C 0.77029 0.92817 0.38055 0.0
C2618 C 0.74373 0.91478 0.35595 0.0
C2619 C 0.73019 0.89683 0.35057 0.0
C2620 C 0.7097 0.88828 0.35291 0.0
C2621 C 0.7031 0.89811 0.36082 0.0
C2622 C 0.71671 0.91599 0.36632 0.0
H2623 H 0.77916 0.93087 0.38925 0.0
H2624 H 0.75573 0.91463 0.38174 0.0
H2625 H 0.77839 0.92577 0.37286 0.0
H2626 H 0.75937 0.92116 0.3538 0.0
H2627 H 0.73589 0.88963 0.34467 0.0
H2628 H 0.98505 0.81982 0.3936 0.0
H2629 H 0.01479 0.82667 0.38166 0.0
H2630 H 0.00609 0.77004 0.39129 0.0
H2631 H 0.97641 0.76307 0.40321 0.0
H2632 H 0.04975 0.82488 0.39209 0.0
H2633 H 0.01284 0.77457 0.352 0.0
H2634 H 1.00018 0.78359 0.36176 0.0
H2635 H 0.00428 0.76445 0.36726 0.0
C2636 C 0.98937 0.80876 0.39307 0.0
C2637 C 0.97837 0.7909 0.39937 0.0
C2638 C 0.00639 0.81272 0.38629 0.0
C2639 C 0.01254 0.79879 0.38549 0.0
C2640 C 1.0015 0.78091 0.39167 0.0
H2641 H 0.1066 0.78417 0.35581 0.0
H2642 H 0.07558 0.78123 0.36352 0.0
C2643 C 0.98463 0.77702 0.39856 0.0
C2644 C 0.03092 0.80314 0.37865 0.0
H2645 H 0.04781 0.78844 0.3538 0.0
C2646 C 0.04938 0.8171 0.38364 0.0
C2647 C 0.03034 0.79291 0.36766 0.0
C2648 C 0.01087 0.77812 0.36175 0.0
C2649 C 0.06733 0.82052 0.37823 0.0
C2650 C 0.0668 0.81007 0.36731 0.0
C2651 C 0.04827 0.79648 0.36214 0.0
C2652 C 0.08521 0.81195 0.36165 0.0
C2653 C 0.08665 0.8346 0.38465 0.0
C2654 C 0.10086 0.83012 0.35773 0.0
C2655 C 0.11871 0.83184 0.35344 0.0
C2656 C 0.121 0.81531 0.35265 0.0
C2657 C 0.10513 0.79709 0.35619 0.0
C2658 C 0.08739 0.79541 0.36058 0.0
H2659 H 0.08428 0.83758 0.39446 0.0
H2660 H 0.0971 0.82886 0.38468 0.0
H2661 H 0.09373 0.84868 0.37959 0.0
H2662 H 0.09943 0.84305 0.3582 0.0
H2663 H 0.13082 0.84614 0.35103 0.0
H2664 H 0.23964 0.19053 0.38432 0.0
H2665 H 0.22925 0.21079 0.37295 0.0
H2666 H 0.21073 0.22489 0.40744 0.0
H2667 H 0.22045 0.20419 0.4189 0.0
H2668 H 0.18511 0.20655 0.37709 0.0
H2669 H 0.25371 0.27797 0.38623 0.0
H2670 H 0.25424 0.2554 0.38526 0.0
H2671 H 0.24352 0.26028 0.39861 0.0
C2672 C 0.2332 0.19779 0.38949 0.0
C2673 C 0.23085 0.19571 0.40253 0.0
C2674 C 0.22738 0.20941 0.38298 0.0
C2675 C 0.21929 0.21925 0.3894 0.0
C2676 C 0.21705 0.2174 0.40238 0.0
H2677 H 0.1878 0.30585 0.37085 0.0
H2678 H 0.19713 0.28385 0.38069 0.0
C2679 C 0.22275 0.20571 0.4089 0.0
C2680 C 0.21301 0.23141 0.38255 0.0
H2681 H 0.22756 0.27865 0.3755 0.0
C2682 C 0.19435 0.22231 0.37665 0.0
C2683 C 0.22515 0.25188 0.38213 0.0
C2684 C 0.24534 0.26211 0.38834 0.0
C2685 C 0.18725 0.23332 0.37053 0.0
C2686 C 0.19944 0.2539 0.37007 0.0
C2687 C 0.21824 0.26289 0.37586 0.0
C2688 C 0.19281 0.26654 0.36403 0.0
C2689 C 0.16654 0.22285 0.36502 0.0
C2690 C 0.18719 0.26412 0.35138 0.0
C2691 C 0.18154 0.27657 0.34576 0.0
C2692 C 0.1819 0.29193 0.3526 0.0
C2693 C 0.18756 0.2943 0.36525 0.0
C2694 C 0.19288 0.28171 0.37091 0.0
H2695 H 0.15733 0.20816 0.36918 0.0
H2696 H 0.15889 0.23139 0.36644 0.0
H2697 H 0.16749 0.22085 0.35484 0.0
H2698 H 0.1875 0.25284 0.34579 0.0
H2699 H 0.17749 0.27448 0.33602 0.0
H2700 H 0.66758 0.53356 0.74845 0.0
H2701 H 0.69662 0.55597 0.73621 0.0
H2702 H 0.65884 0.54685 0.70431 0.0
H2703 H 0.62971 0.52424 0.71648 0.0
H2704 H 0.69349 0.54713 0.69791 0.0
H2705 H 0.71009 0.61118 0.7276 0.0
H2706 H 0.70915 0.59131 0.73621 0.0
H2707 H 0.68703 0.58832 0.72867 0.0
C2708 C 0.66544 0.5364 0.73885 0.0
C2709 C 0.64632 0.52728 0.73347 0.0
C2710 C 0.68205 0.5492 0.73186 0.0
C2711 C 0.67986 0.55336 0.71942 0.0
C2712 C 0.66087 0.5439 0.71391 0.0
H2713 H 0.77093 0.65751 0.68351 0.0
H2714 H 0.73906 0.63084 0.69076 0.0
C2715 C 0.64425 0.53097 0.72087 0.0
C2716 C 0.69733 0.56792 0.71225 0.0
H2717 H 0.73454 0.61549 0.71278 0.0
C2718 C 0.70244 0.56212 0.7011 0.0
C2719 C 0.70879 0.58754 0.71632 0.0
C2720 C 0.7034 0.59505 0.72779 0.0
C2721 C 0.71894 0.57535 0.69403 0.0
C2722 C 0.73082 0.59481 0.69836 0.0
C2723 C 0.7255 0.60059 0.70943 0.0
C2724 C 0.7489 0.60961 0.69172 0.0
C2725 C 0.72322 0.56843 0.68191 0.0
C2726 C 0.7649 0.60644 0.68942 0.0
C2727 C 0.78302 0.62162 0.68503 0.0
C2728 C 0.78546 0.64024 0.683 0.0
C2729 C 0.7693 0.64321 0.68489 0.0
C2730 C 0.75114 0.628 0.68907 0.0
H2731 H 0.70971 0.55551 0.67808 0.0
H2732 H 0.72898 0.58016 0.67483 0.0
H2733 H 0.73461 0.56412 0.68355 0.0
H2734 H 0.76379 0.59259 0.69169 0.0
H2735 H 0.79541 0.61909 0.68394 0.0
H2736 H 0.4653 0.10176 0.73395 0.0
H2737 H 0.4394 0.10677 0.72459 0.0
H2738 H 0.48403 0.16408 0.71247 0.0
H2739 H 0.51003 0.15901 0.72162 0.0
H2740 H 0.42852 0.13315 0.72972 0.0
H2741 H 0.45348 0.14252 0.6805 0.0
H2742 H 0.46352 0.13373 0.6924 0.0
H2743 H 0.47226 0.15946 0.69103 0.0
C2744 C 0.4696 0.11544 0.72929 0.0
C2745 C 0.48975 0.12995 0.72848 0.0
C2746 C 0.45478 0.11827 0.7239 0.0
C2747 C 0.45973 0.13566 0.7176 0.0
C2748 C 0.47983 0.1503 0.71694 0.0
H2749 H 0.3847 0.17925 0.68654 0.0
H2750 H 0.41283 0.17642 0.69458 0.0
C2751 C 0.49468 0.14741 0.72223 0.0
C2752 C 0.44375 0.13866 0.71214 0.0
H2753 H 0.42754 0.14925 0.68508 0.0
C2754 C 0.42831 0.13658 0.71994 0.0
C2755 C 0.44343 0.14321 0.69937 0.0
C2756 C 0.45895 0.14468 0.6903 0.0
C2757 C 0.41267 0.13897 0.71538 0.0
C2758 C 0.41236 0.14348 0.70265 0.0
C2759 C 0.42787 0.14583 0.69485 0.0
C2760 C 0.39565 0.14517 0.69725 0.0
C2761 C 0.39658 0.13678 0.72421 0.0
C2762 C 0.37678 0.12852 0.69597 0.0
C2763 C 0.3608 0.13007 0.69126 0.0
C2764 C 0.36346 0.14827 0.6876 0.0
C2765 C 0.38235 0.16497 0.68897 0.0
C2766 C 0.39839 0.16339 0.69362 0.0
H2767 H 0.40091 0.13704 0.73414 0.0
H2768 H 0.39303 0.14861 0.72273 0.0
H2769 H 0.38286 0.12263 0.72234 0.0
H2770 H 0.37438 0.11432 0.69868 0.0
H2771 H 0.34633 0.11703 0.69047 0.0
H2772 H 0.90238 0.3837 0.70749 0.0
H2773 H 0.89351 0.35217 0.69802 0.0
H2774 H 0.87595 0.32474 0.73407 0.0
H2775 H 0.88365 0.35589 0.74348 0.0
H2776 H 0.90736 0.32747 0.70197 0.0
H2777 H 0.82716 0.29073 0.71332 0.0
H2778 H 0.84334 0.31675 0.715 0.0
H2779 H 0.84273 0.30042 0.72689 0.0
C2780 C 0.89637 0.37091 0.71338 0.0
C2781 C 0.89355 0.37232 0.72623 0.0
C2782 C 0.89147 0.35294 0.70797 0.0
C2783 C 0.88371 0.33605 0.7153 0.0
C2784 C 0.88147 0.3375 0.72818 0.0
H2785 H 0.87722 0.2267 0.69523 0.0
H2786 H 0.88651 0.25896 0.70351 0.0
C2787 C 0.88617 0.35541 0.73358 0.0
C2788 C 0.87806 0.31694 0.70949 0.0
H2789 H 0.83955 0.27027 0.70616 0.0
C2790 C 0.89251 0.31498 0.70281 0.0
C2791 C 0.85857 0.30077 0.71041 0.0
C2792 C 0.84201 0.30229 0.71668 0.0
C2793 C 0.8881 0.29715 0.69725 0.0
C2794 C 0.86888 0.28073 0.69871 0.0
C2795 C 0.85434 0.28281 0.70517 0.0
C2796 C 0.86343 0.26124 0.69358 0.0
C2797 C 0.90398 0.2962 0.68969 0.0
C2798 C 0.84692 0.25149 0.68559 0.0
C2799 C 0.84129 0.23286 0.68105 0.0
C2800 C 0.85218 0.22367 0.68431 0.0
C2801 C 0.86862 0.23341 0.6924 0.0
C2802 C 0.87409 0.25196 0.69706 0.0
H2803 H 0.91529 0.31088 0.68631 0.0
H2804 H 0.91172 0.2906 0.69565 0.0
H2805 H 0.89747 0.28629 0.68151 0.0
H2806 H 0.83834 0.25829 0.68289 0.0
H2807 H 0.82827 0.22562 0.6751 0.0
H2808 H 0.17674 0.95749 0.63205 0.0
H2809 H 0.20164 0.98899 0.64073 0.0
H2810 H 0.21253 0.0143 0.60398 0.0
H2811 H 0.18689 0.98315 0.5953 0.0
H2812 H 0.24096 0.01085 0.63607 0.0
H2813 H 0.20348 0.0527 0.62369 0.0
H2814 H 0.19107 0.02642 0.62267 0.0
H2815 H 0.20769 0.04117 0.61052 0.0
C2816 C 0.18416 0.96982 0.62582 0.0
C2817 C 0.17962 0.96777 0.61298 0.0
C2818 C 0.19854 0.98779 0.63079 0.0
C2819 C 0.20872 0.0041 0.62305 0.0
C2820 C 0.20455 0.00204 0.61019 0.0
H2821 H 0.30659 0.12193 0.63835 0.0
H2822 H 0.28295 0.09085 0.62829 0.0
C2823 C 0.19006 0.98411 0.60522 0.0
C2824 C 0.22392 0.02314 0.62844 0.0
H2825 H 0.23639 0.07097 0.63173 0.0
C2826 C 0.23992 0.02397 0.63514 0.0
C2827 C 0.22253 0.04026 0.62724 0.0
C2828 C 0.20517 0.04012 0.62075 0.0
C2829 C 0.2546 0.04148 0.64061 0.0
C2830 C 0.25323 0.05854 0.63934 0.0
C2831 C 0.23739 0.05782 0.63258 0.0
C2832 C 0.26774 0.07713 0.64539 0.0
C2833 C 0.27155 0.04174 0.64771 0.0
C2834 C 0.26692 0.07959 0.6583 0.0
C2835 C 0.28029 0.0973 0.66403 0.0
C2836 C 0.29471 0.11282 0.65697 0.0
C2837 C 0.29566 0.1102 0.64404 0.0
C2838 C 0.28216 0.09252 0.63828 0.0
H2839 H 0.27199 0.02802 0.64638 0.0
H2840 H 0.28595 0.05426 0.64469 0.0
H2841 H 0.26988 0.04366 0.65782 0.0
H2842 H 0.25588 0.06783 0.66392 0.0
H2843 H 0.27953 0.09865 0.674 0.0
H2844 H 0.03281 0.23422 0.61019 0.0
H2845 H 0.00218 0.22901 0.62019 0.0
H2846 H 0.98986 0.17218 0.63244 0.0
H2847 H 0.02042 0.17722 0.62243 0.0
H2848 H 0.95676 0.17464 0.62004 0.0
H2849 H 0.99247 0.22754 0.65912 0.0
H2850 H 0.00203 0.23627 0.64376 0.0
H2851 H 0.00516 0.21727 0.65058 0.0
C2852 C 0.02355 0.22058 0.61497 0.0
C2853 C 0.02911 0.20616 0.61554 0.0
C2854 C 0.00613 0.21769 0.62077 0.0
C2855 C 0.99386 0.2003 0.62718 0.0
C2856 C 0.9992 0.18577 0.62762 0.0
H2857 H 0.87501 0.1558 0.65982 0.0
H2858 H 0.90643 0.15867 0.65292 0.0
C2859 C 0.01671 0.18871 0.62194 0.0
C2860 C 0.97524 0.19713 0.63319 0.0
H2861 H 0.95767 0.21364 0.6567 0.0
C2862 C 0.95691 0.18305 0.62811 0.0
C2863 C 0.97551 0.20815 0.6437 0.0
C2864 C 0.99481 0.22308 0.64972 0.0
C2865 C 0.93882 0.18014 0.63298 0.0
C2866 C 0.93905 0.19125 0.64347 0.0
C2867 C 0.95744 0.2051 0.64869 0.0
C2868 C 0.92048 0.18954 0.64873 0.0
C2869 C 0.91969 0.16576 0.6265 0.0
C2870 C 0.91816 0.20605 0.64925 0.0
C2871 C 0.9004 0.2045 0.65348 0.0
C2872 C 0.88465 0.18647 0.65742 0.0
C2873 C 0.88703 0.16997 0.65709 0.0
C2874 C 0.90489 0.17155 0.65296 0.0
H2875 H 0.92235 0.16237 0.61687 0.0
H2876 H 0.91249 0.15191 0.63182 0.0
H2877 H 0.90921 0.17145 0.62602 0.0
H2878 H 0.92992 0.22009 0.64607 0.0
H2879 H 0.89885 0.21739 0.65349 0.0
H2880 H 0.76342 0.81125 0.62692 0.0
H2881 H 0.77456 0.792 0.63869 0.0
H2882 H 0.79537 0.77907 0.60465 0.0
H2883 H 0.78508 0.79899 0.59288 0.0
H2884 H 0.76339 0.75368 0.63681 0.0
H2885 H 0.8439 0.79928 0.6272 0.0
H2886 H 0.82637 0.80743 0.62399 0.0
H2887 H 0.82909 0.7914 0.61321 0.0
C2888 C 0.77059 0.80451 0.62195 0.0
C2889 C 0.77352 0.8068 0.60897 0.0
C2890 C 0.77683 0.79342 0.62868 0.0
C2891 C 0.78615 0.78445 0.62258 0.0
C2892 C 0.78864 0.78627 0.60959 0.0
H2893 H 0.79793 0.68736 0.64579 0.0
H2894 H 0.78838 0.70984 0.63705 0.0
C2895 C 0.78247 0.79742 0.60285 0.0
C2896 C 0.79281 0.77276 0.62975 0.0
H2897 H 0.83316 0.76757 0.63564 0.0
C2898 C 0.77868 0.75681 0.63665 0.0
C2899 C 0.81285 0.77712 0.62975 0.0
C2900 C 0.82897 0.79486 0.62325 0.0
C2901 C 0.78389 0.74464 0.64315 0.0
C2902 C 0.80366 0.74828 0.64249 0.0
C2903 C 0.81796 0.76467 0.63601 0.0
C2904 C 0.80957 0.73475 0.64797 0.0
C2905 C 0.76817 0.72803 0.65069 0.0
C2906 C 0.82518 0.74146 0.65669 0.0
C2907 C 0.83094 0.72866 0.66161 0.0
C2908 C 0.82112 0.70891 0.6579 0.0
C2909 C 0.80569 0.70238 0.64901 0.0
C2910 C 0.80007 0.71519 0.64405 0.0
H2911 H 0.75616 0.73099 0.65353 0.0
H2912 H 0.7613 0.71453 0.64491 0.0
H2913 H 0.77462 0.72535 0.65921 0.0
H2914 H 0.83289 0.7566 0.6597 0.0
H2915 H 0.84315 0.73429 0.66822 0.0
H2916 H 0.02667 0.78301 0.60729 0.0
H2917 H 0.9974 0.76171 0.61979 0.0
H2918 H 0.99023 0.81086 0.62931 0.0
H2919 H 0.01936 0.83226 0.61671 0.0
H2920 H 0.99071 0.76703 0.64681 0.0
H2921 H 0.93544 0.76783 0.61385 0.0
H2922 H 0.96018 0.77409 0.60901 0.0
H2923 H 0.95649 0.79096 0.61826 0.0
C2924 C 0.01878 0.78926 0.61197 0.0
C2925 C 0.02527 0.8093 0.61095 0.0
C2926 C 0.00217 0.77711 0.61918 0.0
C2927 C 0.99163 0.78472 0.6254 0.0
C2928 C 0.99811 0.80471 0.62451 0.0
H2929 H 0.87553 0.71752 0.66122 0.0
H2930 H 0.90727 0.74527 0.65462 0.0
C2931 C 0.01481 0.81691 0.61736 0.0
C2932 C 0.97369 0.77158 0.63268 0.0
H2933 H 0.92303 0.74899 0.63196 0.0
C2934 C 0.97589 0.76316 0.64364 0.0
C2935 C 0.95444 0.76675 0.62856 0.0
C2936 C 0.95132 0.77524 0.61674 0.0
C2937 C 0.95928 0.74976 0.65051 0.0
C2938 C 0.93995 0.74427 0.64611 0.0
C2939 C 0.93782 0.7532 0.63535 0.0
C2940 C 0.92174 0.72818 0.65184 0.0
C2941 C 0.96264 0.74164 0.66242 0.0
C2942 C 0.91935 0.70939 0.65263 0.0
C2943 C 0.90136 0.69364 0.65655 0.0
C2944 C 0.88537 0.69632 0.65975 0.0
C2945 C 0.88778 0.71513 0.65914 0.0
C2946 C 0.90586 0.73096 0.65527 0.0
H2947 H 0.97717 0.75208 0.66677 0.0
H2948 H 0.95068 0.73821 0.66929 0.0
H2949 H 0.96287 0.72802 0.66025 0.0
H2950 H 0.93112 0.70672 0.64968 0.0
H2951 H 0.89971 0.67919 0.65672 0.0
H2952 H 0.18614 0.22003 0.62467 0.0
H2953 H 0.21056 0.21446 0.63569 0.0
H2954 H 0.21761 0.1871 0.6027 0.0
H2955 H 0.19336 0.19275 0.59162 0.0
H2956 H 0.21176 0.18124 0.6412 0.0
H2957 H 0.27453 0.22862 0.61024 0.0
H2958 H 0.25118 0.2284 0.6099 0.0
H2959 H 0.25357 0.2095 0.60207 0.0
C2960 C 0.19277 0.21269 0.61979 0.0
C2961 C 0.18793 0.20703 0.60721 0.0
C2962 C 0.20679 0.20957 0.62609 0.0
C2963 C 0.21626 0.20072 0.61996 0.0
C2964 C 0.21094 0.19445 0.60754 0.0
H2965 H 0.28718 0.15644 0.65682 0.0
H2966 H 0.25991 0.1593 0.64747 0.0
C2967 C 0.19704 0.19766 0.60122 0.0
C2968 C 0.23176 0.19817 0.62653 0.0
H2969 H 0.28038 0.20974 0.62496 0.0
C2970 C 0.22679 0.1875 0.63768 0.0
C2971 C 0.25145 0.20653 0.62202 0.0
C2972 C 0.2581 0.21906 0.61047 0.0
C2973 C 0.24089 0.18489 0.6444 0.0
C2974 C 0.26051 0.19287 0.63975 0.0
C2975 C 0.26541 0.20355 0.62858 0.0
C2976 C 0.27642 0.1909 0.64636 0.0
C2977 C 0.23474 0.17418 0.65662 0.0
C2978 C 0.295 0.20758 0.64873 0.0
C2979 C 0.3107 0.2059 0.65381 0.0
C2980 C 0.3081 0.18754 0.65692 0.0
C2981 C 0.28945 0.17083 0.65482 0.0
C2982 C 0.2738 0.17248 0.64952 0.0
H2983 H 0.22146 0.17403 0.66057 0.0
H2984 H 0.23099 0.1588 0.65517 0.0
H2985 H 0.24701 0.18105 0.66351 0.0
H2986 H 0.29752 0.22197 0.64639 0.0
H2987 H 0.325 0.21898 0.6552 0.0
H2988 H 0.76996 0.95246 0.63447 0.0
H2989 H 0.77867 0.98398 0.64381 0.0
H2990 H 0.79644 0.01125 0.60773 0.0
H2991 H 0.78886 0.98001 0.59842 0.0
H2992 H 0.8233 0.03223 0.62541 0.0
H2993 H 0.748 0.01262 0.64187 0.0
H2994 H 0.75633 0.9967 0.64778 0.0
H2995 H 0.75228 0.99732 0.63128 0.0
C2996 C 0.77586 0.96517 0.62852 0.0
C2997 C 0.77868 0.96367 0.61568 0.0
C2998 C 0.78056 0.98314 0.63385 0.0
C2999 C 0.78784 -0.00012 0.62642 0.0
C3000 C 0.79067 0.99846 0.61361 0.0
H3001 H 0.79596 0.10929 0.64767 0.0
H3002 H 0.78721 0.07764 0.63862 0.0
C3003 C 0.78616 0.98055 0.60829 0.0
C3004 C 0.79318 0.01904 0.63205 0.0
H3005 H 0.77481 0.04283 0.64927 0.0
C3006 C 0.81268 0.03459 0.63058 0.0
C3007 C 0.77923 0.02213 0.63866 0.0
C3008 C 0.75774 0.00637 0.6399 0.0
C3009 C 0.81868 0.05312 0.63564 0.0
C3010 C 0.80493 0.05601 0.64265 0.0
C3011 C 0.78538 0.04051 0.64402 0.0
C3012 C 0.81033 0.07516 0.64832 0.0
C3013 C 0.83952 0.06951 0.63314 0.0
C3014 C 0.82612 0.08418 0.6569 0.0
C3015 C 0.83137 0.10245 0.66198 0.0
C3016 C 0.82064 0.11183 0.65878 0.0
C3017 C 0.80457 0.10253 0.65037 0.0
C3018 C 0.79949 0.08439 0.64519 0.0
H3019 H 0.84604 0.06639 0.62483 0.0
H3020 H 0.8398 0.08354 0.63164 0.0
H3021 H 0.84914 0.07128 0.6413 0.0
H3022 H 0.83442 0.07713 0.65966 0.0
H3023 H 0.84395 0.10925 0.6683 0.0
H3024 H 0.48597 0.35271 0.7473 0.0
H3025 H 0.46052 0.3216 0.73831 0.0
H3026 H 0.46778 0.34899 0.70251 0.0
H3027 H 0.49275 0.38034 0.71145 0.0
H3028 H 0.42302 0.31608 0.72206 0.0
H3029 H 0.47688 0.29842 0.69966 0.0
H3030 H 0.48326 0.31373 0.71343 0.0
H3031 H 0.48126 0.32302 0.69859 0.0
C3032 C 0.48199 0.35223 0.73756 0.0
C3033 C 0.49147 0.36908 0.73011 0.0
C3034 C 0.46752 0.33441 0.73243 0.0
C3035 C 0.46241 0.33307 0.71977 0.0
C3036 C 0.47168 0.34978 0.7123 0.0
H3037 H 0.39054 0.23724 0.66958 0.0
H3038 H 0.41412 0.26846 0.67919 0.0
C3039 C 0.48604 0.36764 0.71742 0.0
C3040 C 0.44749 0.31414 0.71429 0.0
H3041 H 0.44285 0.27656 0.6961 0.0
C3042 C 0.42727 0.30735 0.71641 0.0
C3043 C 0.4532 0.30299 0.70688 0.0
C3044 C 0.47482 0.30975 0.70448 0.0
C3045 C 0.41249 0.28971 0.71111 0.0
C3046 C 0.41819 0.27837 0.70378 0.0
C3047 C 0.43848 0.28523 0.70172 0.0
C3048 C 0.40342 0.25947 0.698 0.0
C3049 C 0.39095 0.2837 0.71311 0.0
C3050 C 0.38957 0.24397 0.70535 0.0
C3051 C 0.37606 0.22608 0.69983 0.0
C3052 C 0.37645 0.22326 0.68689 0.0
C3053 C 0.39027 0.23878 0.67957 0.0
C3054 C 0.40363 0.2567 0.68506 0.0
H3055 H 0.3892 0.29638 0.7157 0.0
H3056 H 0.38191 0.2767 0.7046 0.0
H3057 H 0.38495 0.27303 0.72085 0.0
H3058 H 0.38942 0.24558 0.71539 0.0
H3059 H 0.36565 0.2143 0.70571 0.0
H3060 H 0.65207 0.1534 0.72699 0.0
H3061 H 0.68179 0.16017 0.71506 0.0
H3062 H 0.67313 0.10362 0.72488 0.0
H3063 H 0.64344 0.09672 0.73676 0.0
H3064 H 0.71678 0.15891 0.72526 0.0
H3065 H 0.67973 0.10736 0.68577 0.0
H3066 H 0.66694 0.11623 0.69553 0.0
H3067 H 0.67153 0.09743 0.7011 0.0
C3068 C 0.65639 0.14233 0.7265 0.0
C3069 C 0.64538 0.12451 0.73284 0.0
C3070 C 0.67341 0.14626 0.71973 0.0
C3071 C 0.67956 0.13233 0.71898 0.0
C3072 C 0.66854 0.11449 0.72522 0.0
H3073 H 0.7738 0.11766 0.6898 0.0
H3074 H 0.74285 0.1148 0.69756 0.0
C3075 C 0.65166 0.11064 0.73209 0.0
C3076 C 0.69791 0.13662 0.71211 0.0
H3077 H 0.71474 0.12136 0.68751 0.0
C3078 C 0.71638 0.15088 0.71692 0.0
C3079 C 0.69731 0.12609 0.70126 0.0
C3080 C 0.67783 0.11101 0.69551 0.0
C3081 C 0.73432 0.15431 0.7115 0.0
C3082 C 0.73377 0.14353 0.70074 0.0
C3083 C 0.71522 0.12964 0.69573 0.0
C3084 C 0.75217 0.14536 0.69511 0.0
C3085 C 0.75367 0.16876 0.71772 0.0
C3086 C 0.76763 0.1634 0.69087 0.0
C3087 C 0.78545 0.16508 0.68654 0.0
C3088 C 0.78789 0.14862 0.68604 0.0
C3089 C 0.77221 0.13052 0.68995 0.0
C3090 C 0.75452 0.12888 0.69437 0.0
H3091 H 0.7514 0.17212 0.72746 0.0
H3092 H 0.76423 0.16314 0.7179 0.0
H3093 H 0.7606 0.18261 0.71241 0.0
H3094 H 0.76606 0.17626 0.69109 0.0
H3095 H 0.79741 0.17929 0.68383 0.0
H3096 H 0.91694 0.55317 0.74132 0.0
H3097 H 0.90678 0.57369 0.73007 0.0
H3098 H 0.85511 0.52219 0.71579 0.0
H3099 H 0.86474 0.50158 0.72734 0.0
H3100 H 0.90084 0.57473 0.70434 0.0
H3101 H 0.83157 0.55387 0.73071 0.0
H3102 H 0.85035 0.54857 0.73625 0.0
H3103 H 0.83315 0.53371 0.72423 0.0
C3104 C 0.90327 0.54621 0.73593 0.0
C3105 C 0.89161 0.52575 0.73527 0.0
C3106 C 0.89757 0.55795 0.72944 0.0
C3107 C 0.88007 0.54944 0.72224 0.0
C3108 C 0.86849 0.52904 0.72146 0.0
H3109 H 0.82411 0.60137 0.67774 0.0
H3110 H 0.83294 0.5784 0.68697 0.0
C3111 C 0.87415 0.51729 0.72796 0.0
C3112 C 0.87416 0.56196 0.71537 0.0
H3113 H 0.83778 0.57407 0.71309 0.0
C3114 C 0.88707 0.57461 0.70625 0.0
C3115 C 0.85613 0.56166 0.71785 0.0
C3116 C 0.84205 0.54886 0.72786 0.0
C3117 C 0.8824 0.58701 0.69954 0.0
C3118 C 0.86451 0.5869 0.70215 0.0
C3119 C 0.85145 0.57403 0.71111 0.0
C3120 C 0.85956 0.60074 0.69614 0.0
C3121 C 0.89659 0.60005 0.68965 0.0
C3122 C 0.87154 0.62084 0.69834 0.0
C3123 C 0.86659 0.63398 0.69308 0.0
C3124 C 0.84952 0.62725 0.68553 0.0
C3125 C 0.8375 0.60706 0.68336 0.0
C3126 C 0.84246 0.5939 0.68867 0.0
H3127 H 0.90671 0.59476 0.68651 0.0
H3128 H 0.88837 0.601 0.68142 0.0
H3129 H 0.90584 0.61498 0.69356 0.0
H3130 H 0.88458 0.62636 0.70429 0.0
H3131 H 0.87614 0.64941 0.695 0.0
H3132 H 0.46991 0.90938 0.17938 0.0
H3133 H 0.47903 0.92281 0.1583 0.0
H3134 H 0.47021 0.97064 0.16895 0.0
H3135 H 0.46031 0.95679 0.18985 0.0
H3136 H 0.45506 0.95824 0.14687 0.0
H3137 H 0.53043 0.96706 0.14697 0.0
H3138 H 0.5114 0.94223 0.14941 0.0
H3139 H 0.51539 0.96067 0.16082 0.0
C3140 C 0.47003 0.92282 0.17722 0.0
C3141 C 0.46447 0.93208 0.18628 0.0
C3142 C 0.47537 0.93057 0.16518 0.0
C3143 C 0.47578 0.94803 0.16203 0.0
C3144 C 0.47009 0.9572 0.17109 0.0
H3145 H 0.53844 0.02319 0.09995 0.0
H3146 H 0.52739 0.00636 0.1198 0.0
C3147 C 0.46442 0.94928 0.18305 0.0
C3148 C 0.48176 0.95664 0.1493 0.0
H3149 H 0.51877 0.97215 0.12762 0.0
C3150 C 0.46903 0.96133 0.14269 0.0
C3151 C 0.5001 0.96093 0.14383 0.0
C3152 C 0.5152 0.95766 0.15068 0.0
C3153 C 0.47412 0.97022 0.13088 0.0
C3154 C 0.49216 0.97393 0.12524 0.0
C3155 C 0.50483 0.96914 0.13182 0.0
C3156 C 0.49878 0.9838 0.11288 0.0
C3157 C 0.46038 0.9762 0.12484 0.0
C3158 C 0.4866 0.97664 0.10219 0.0
C3159 C 0.49268 0.98662 0.09081 0.0
C3160 C 0.5113 0.00381 0.08977 0.0
C3161 C 0.52378 0.01039 0.10038 0.0
C3162 C 0.51756 0.0006 0.11177 0.0
H3163 H 0.45062 0.97764 0.13181 0.0
H3164 H 0.46888 0.99031 0.11989 0.0
H3165 H 0.45066 0.96484 0.11797 0.0
H3166 H 0.47229 0.96338 0.10264 0.0
H3167 H 0.48256 0.98105 0.08293 0.0
H3168 H 0.02912 0.54305 0.1908 0.0
H3169 H 0.01651 0.53594 0.16935 0.0
H3170 H 0.05604 0.5139 0.16105 0.0
H3171 H 0.06899 0.52122 0.18246 0.0
H3172 H 0.03935 0.55085 0.14699 0.0
H3173 H 1.00059 0.46974 0.14932 0.0
H3174 H 0.00787 0.485 0.16312 0.0
H3175 H 0.02613 0.48244 0.15437 0.0
C3176 C 0.03523 0.53679 0.1844 0.0
C3177 C 0.05008 0.53271 0.18834 0.0
C3178 C 0.02793 0.53265 0.17218 0.0
C3179 C 0.03521 0.52422 0.16368 0.0
C3180 C 0.04999 0.52009 0.16755 0.0
H3181 H 0.00352 0.48874 0.0859 0.0
H3182 H 0.01914 0.4959 0.1066 0.0
C3183 C 0.05734 0.52425 0.17978 0.0
C3184 C 0.02764 0.52029 0.15069 0.0
H3185 H 1.00099 0.48359 0.12974 0.0
C3186 C 0.03096 0.53616 0.1432 0.0
C3187 C 0.01684 0.50111 0.14578 0.0
C3188 C 0.01246 0.48353 0.15356 0.0
C3189 C 0.02376 0.53336 0.1309 0.0
C3190 C 0.01257 0.51415 0.12607 0.0
C3191 C 0.00954 0.49829 0.13349 0.0
C3192 C 0.0034 0.51016 0.11348 0.0
C3193 C 0.02839 0.55102 0.12313 0.0
C3194 C 0.98924 0.51563 0.11054 0.0
C3195 C 0.98041 0.5117 0.09871 0.0
C3196 C 0.98546 0.50207 0.08961 0.0
C3197 C 0.99953 0.49644 0.09263 0.0
C3198 C 0.00837 0.5004 0.10447 0.0
H3199 H 0.04158 0.56441 0.12681 0.0
H3200 H 0.03117 0.54884 0.11325 0.0
H3201 H 0.01552 0.55348 0.12337 0.0
H3202 H 0.98492 0.52285 0.11743 0.0
H3203 H 0.96976 0.51637 0.09666 0.0
H3204 H 0.50396 0.5385 0.19005 0.0
H3205 H 0.51006 0.53075 0.16903 0.0
H3206 H 0.44846 0.50864 0.15939 0.0
H3207 H 0.44235 0.51702 0.18034 0.0
H3208 H 0.49324 0.49529 0.15658 0.0
H3209 H 0.47757 0.54762 0.13145 0.0
H3210 H 0.4811 0.54856 0.14816 0.0
H3211 H 0.45791 0.53055 0.14131 0.0
C3212 C 0.49172 0.53219 0.18344 0.0
C3213 C 0.47271 0.52861 0.18686 0.0
C3214 C 0.49521 0.52763 0.17144 0.0
C3215 C 0.47981 0.51942 0.16256 0.0
C3216 C 0.46067 0.51533 0.16601 0.0
H3217 H 0.48453 0.48869 0.0843 0.0
H3218 H 0.47295 0.49268 0.10476 0.0
C3219 C 0.45715 0.51992 0.17804 0.0
C3220 C 0.48397 0.51511 0.14976 0.0
H3221 H 0.48551 0.52768 0.11911 0.0
C3222 C 0.49149 0.50232 0.14838 0.0
C3223 C 0.48162 0.52425 0.13907 0.0
C3224 C 0.47427 0.53864 0.14001 0.0
C3225 C 0.49687 0.49856 0.13663 0.0
C3226 C 0.49497 0.50806 0.12599 0.0
C3227 C 0.48698 0.52045 0.12729 0.0
C3228 C 0.50198 0.50592 0.11352 0.0
C3229 C 0.50452 0.48441 0.1357 0.0
C3230 C 0.5222 0.5124 0.11159 0.0
C3231 C 0.5289 0.51031 0.09991 0.0
C3232 C 0.51552 0.50171 0.08986 0.0
C3233 C 0.49529 0.49553 0.09177 0.0
C3234 C 0.48861 0.49769 0.10348 0.0
H3235 H 0.50013 0.47458 0.14391 0.0
H3236 H 0.49891 0.47536 0.12709 0.0
H3237 H 0.52101 0.49273 0.13532 0.0
H3238 H 0.53285 0.5192 0.11914 0.0
H3239 H 0.54463 0.51562 0.09872 0.0
H3240 H 0.97231 0.49855 0.81935 0.0
H3241 H 0.98563 0.50579 0.84068 0.0
H3242 H 0.94428 0.44649 0.85137 0.0
H3243 H 0.93111 0.4391 0.83003 0.0
H3244 H 0.96778 0.50378 0.86311 0.0
H3245 H 0.99699 0.45244 0.86242 0.0
H3246 H 0.98873 0.45907 0.84846 0.0
H3247 H 0.97094 0.44102 0.85886 0.0
C3248 C 0.96601 0.4871 0.82627 0.0
C3249 C 0.95082 0.46821 0.82302 0.0
C3250 C 0.97365 0.49124 0.83843 0.0
C3251 C 0.96621 0.47658 0.84754 0.0
C3252 C 0.95061 0.45787 0.8444 0.0
H3253 H 0.99326 0.4742 0.92604 0.0
H3254 H 0.97755 0.46728 0.90533 0.0
C3255 C 0.94308 0.45368 0.83223 0.0
C3256 C 0.97478 0.48087 0.86031 0.0
H3257 H 0.99775 0.46711 0.88195 0.0
C3258 C 0.9744 0.49582 0.86722 0.0
C3259 C 0.98344 0.47048 0.86562 0.0
C3260 C 0.98526 0.45499 0.85842 0.0
C3261 C 0.98225 0.50047 0.87938 0.0
C3262 C 0.99075 0.48998 0.88469 0.0
C3263 C 0.99108 0.47502 0.87782 0.0
C3264 C 0.99979 0.49457 0.89729 0.0
C3265 C 0.9812 0.5164 0.88655 0.0
C3266 C 0.01751 0.51214 0.89953 0.0
C3267 C 0.02654 0.5161 0.9113 0.0
C3268 C 0.01794 0.50254 0.92103 0.0
C3269 C 1.00009 0.485 0.91876 0.0
C3270 C 0.99116 0.48099 0.90695 0.0
H3271 H 0.97079 0.52043 0.88212 0.0
H3272 H 0.9764 0.51177 0.8963 0.0
H3273 H 0.99619 0.5296 0.88689 0.0
H3274 H 0.02449 0.52268 0.89212 0.0
H3275 H 0.0402 0.52979 0.91282 0.0
H3276 H 0.53843 0.49801 0.81964 0.0
H3277 H 0.53121 0.50531 0.84058 0.0
H3278 H 0.52518 0.4512 0.85403 0.0
H3279 H 0.53159 0.44355 0.83299 0.0
H3280 H 0.49565 0.45468 0.86191 0.0
H3281 H 0.56426 0.52483 0.8714 0.0
H3282 H 0.55223 0.52582 0.85734 0.0
H3283 H 0.56203 0.50945 0.85831 0.0
C3284 C 0.53583 0.48784 0.82713 0.0
C3285 C 0.53557 0.47023 0.82472 0.0
C3286 C 0.53182 0.49206 0.83912 0.0
C3287 C 0.52796 0.47898 0.84899 0.0
C3288 C 0.52812 0.46156 0.8466 0.0
H3289 H 0.52053 0.50789 0.92687 0.0
H3290 H 0.53082 0.5006 0.90701 0.0
C3291 C 0.53179 0.45719 0.83459 0.0
C3292 C 0.52248 0.48274 0.86159 0.0
H3293 H 0.5367 0.51689 0.88488 0.0
C3294 C 0.50475 0.46823 0.86697 0.0
C3295 C 0.53444 0.50028 0.86833 0.0
C3296 C 0.5544 0.51588 0.86361 0.0
C3297 C 0.49847 0.47087 0.87873 0.0
C3298 C 0.50985 0.48885 0.88514 0.0
C3299 C 0.5278 0.50322 0.8799 0.0
C3300 C 0.5034 0.49303 0.89728 0.0
C3301 C 0.47991 0.45416 0.88423 0.0
C3302 C 0.48462 0.49141 0.89844 0.0
C3303 C 0.47848 0.4951 0.90988 0.0
C3304 C 0.49115 0.50096 0.9204 0.0
C3305 C 0.51015 0.503 0.91911 0.0
C3306 C 0.51617 0.49904 0.90769 0.0
H3307 H 0.47689 0.43989 0.88031 0.0
H3308 H 0.48108 0.4537 0.89455 0.0
H3309 H 0.46698 0.45596 0.88192 0.0
H3310 H 0.47468 0.48731 0.89048 0.0
H3311 H 0.46369 0.49317 0.91048 0.0
H3312 H 0.4988 0.04757 0.81962 0.0
H3313 H 0.49298 0.03394 0.84062 0.0
H3314 H 0.55517 0.07062 0.84949 0.0
H3315 H 0.56104 0.08485 0.82856 0.0
H3316 H 0.5091 0.01385 0.85231 0.0
H3317 H 0.52832 0.08189 0.87857 0.0
H3318 H 0.52406 0.07968 0.86191 0.0
H3319 H 0.54725 0.08356 0.8682 0.0
C3320 C 0.51124 0.05296 0.82606 0.0
C3321 C 0.53037 0.0675 0.82239 0.0
C3322 C 0.50789 0.04503 0.83806 0.0
C3323 C 0.52355 0.05145 0.84674 0.0
C3324 C 0.54276 0.06569 0.84307 0.0
H3325 H 0.52187 0.01423 0.92432 0.0
H3326 H 0.53249 0.03058 0.90407 0.0
C3327 C 0.54614 0.07365 0.83103 0.0
C3328 C 0.51963 0.04288 0.8595 0.0
H3329 H 0.52027 0.05383 0.89051 0.0
C3330 C 0.51158 0.02262 0.86066 0.0
C3331 C 0.52296 0.05431 0.87043 0.0
C3332 C 0.53097 0.07604 0.86978 0.0
C3333 C 0.50667 0.01347 0.87237 0.0
C3334 C 0.50954 0.02482 0.88327 0.0
C3335 C 0.51803 0.04514 0.88217 0.0
C3336 C 0.50308 0.01566 0.89578 0.0
C3337 C 0.49856 0.99172 0.87299 0.0
C3338 C 0.48296 0.00226 0.89799 0.0
C3339 C 0.47684 0.993 0.90955 0.0
C3340 C 0.49069 0.99693 0.91923 0.0
C3341 C 0.51078 0.01089 0.91713 0.0
C3342 C 0.5169 0.02019 0.90553 0.0
H3343 H 0.50244 0.98616 0.86454 0.0
H3344 H 0.5043 0.98781 0.88135 0.0
H3345 H 0.48211 0.98417 0.8736 0.0
H3346 H 0.47194 0.9989 0.89073 0.0
H3347 H 0.46119 0.98271 0.91089 0.0
H3348 H 0.0992 0.24892 0.51189 0.0
H3349 H 0.10842 0.26277 0.49093 0.0
H3350 H 0.16966 0.29689 0.50267 0.0
H3351 H 0.16059 0.28326 0.52365 0.0
H3352 H 0.12609 0.30142 0.48346 0.0
H3353 H 0.17394 0.27035 0.47107 0.0
H3354 H 0.15721 0.26178 0.48419 0.0
H3355 H 0.18091 0.28383 0.4855 0.0
C3356 C 0.11463 0.25944 0.51005 0.0
C3357 C 0.12916 0.26488 0.51949 0.0
C3358 C 0.11989 0.26727 0.49802 0.0
C3359 C 0.13979 0.28062 0.49514 0.0
C3360 C 0.15429 0.28624 0.50456 0.0
H3361 H 0.20535 0.35178 0.43238 0.0
H3362 H 0.19385 0.33466 0.45222 0.0
C3363 C 0.14906 0.27842 0.51658 0.0
C3364 C 0.14532 0.28915 0.4824 0.0
H3365 H 0.17543 0.29498 0.45762 0.0
C3366 C 0.13674 0.29987 0.47776 0.0
C3367 C 0.15922 0.28711 0.47494 0.0
C3368 C 0.16822 0.27499 0.47911 0.0
C3369 C 0.14214 0.30913 0.46608 0.0
C3370 C 0.15627 0.30734 0.4587 0.0
C3371 C 0.16464 0.29638 0.46327 0.0
C3372 C 0.16309 0.31729 0.44644 0.0
C3373 C 0.13318 0.32129 0.46192 0.0
C3374 C 0.14971 0.313 0.43645 0.0
C3375 C 0.15624 0.32289 0.42508 0.0
C3376 C 0.17631 0.33725 0.42343 0.0
C3377 C 0.18973 0.34111 0.43337 0.0
C3378 C 0.1832 0.33122 0.44471 0.0
H3379 H 0.12638 0.32499 0.46982 0.0
H3380 H 0.14457 0.33507 0.45753 0.0
H3381 H 0.12134 0.31295 0.45489 0.0
H3382 H 0.13419 0.30205 0.43747 0.0
H3383 H 0.14546 0.31958 0.41767 0.0
H3384 H 0.69343 0.83489 0.52452 0.0
H3385 H 0.67972 0.82721 0.50325 0.0
H3386 H 0.7229 0.88532 0.49154 0.0
H3387 H 0.73677 0.89307 0.51273 0.0
H3388 H 0.66481 0.85018 0.48966 0.0
H3389 H 0.72645 0.84684 0.46562 0.0
H3390 H 0.72264 0.84366 0.48228 0.0
H3391 H 0.73345 0.86762 0.47565 0.0
C3392 C 0.70014 0.84593 0.51737 0.0
C3393 C 0.71615 0.86458 0.52027 0.0
C3394 C 0.69226 0.84156 0.50526 0.0
C3395 C 0.70044 0.85566 0.49585 0.0
C3396 C 0.71655 0.8742 0.49867 0.0
H3397 H 0.67598 0.86273 0.41787 0.0
H3398 H 0.6901 0.86775 0.43894 0.0
C3399 C 0.72433 0.87864 0.51079 0.0
C3400 C 0.69158 0.85133 0.4832 0.0
H3401 H 0.70097 0.84572 0.45282 0.0
C3402 C 0.6726 0.84906 0.48159 0.0
C3403 C 0.70193 0.85006 0.47275 0.0
C3404 C 0.7222 0.85202 0.47409 0.0
C3405 C 0.66383 0.84596 0.46971 0.0
C3406 C 0.67413 0.84459 0.45922 0.0
C3407 C 0.69309 0.84674 0.46087 0.0
C3408 C 0.66565 0.84125 0.44644 0.0
C3409 C 0.64391 0.84483 0.46847 0.0
C3410 C 0.64738 0.82453 0.44361 0.0
C3411 C 0.63924 0.8217 0.43162 0.0
C3412 C 0.64937 0.83539 0.42217 0.0
C3413 C 0.66789 0.85188 0.42494 0.0
C3414 C 0.67595 0.85478 0.43697 0.0
H3415 H 0.64074 0.85154 0.47664 0.0
H3416 H 0.64317 0.85226 0.45987 0.0
H3417 H 0.63203 0.82928 0.46792 0.0
H3418 H 0.63944 0.81363 0.45068 0.0
H3419 H 0.62511 0.80869 0.42968 0.0
H3420 H 0.10892 0.84921 0.51479 0.0
H3421 H 0.1149 0.84047 0.49388 0.0
H3422 H 0.17676 0.86361 0.50326 0.0
H3423 H 0.17082 0.8718 0.52419 0.0
H3424 H 0.14071 0.86544 0.47579 0.0
H3425 H 0.16128 0.8101 0.48888 0.0
H3426 H 0.14902 0.81837 0.49953 0.0
H3427 H 0.17545 0.83271 0.49722 0.0
C3428 C 0.12371 0.85212 0.51246 0.0
C3429 C 0.13939 0.86121 0.52116 0.0
C3430 C 0.12713 0.84724 0.50049 0.0
C3431 C 0.14622 0.85115 0.49707 0.0
C3432 C 0.16183 0.86011 0.50576 0.0
H3433 H 0.21097 0.85087 0.43265 0.0
H3434 H 0.19884 0.8542 0.45301 0.0
C3435 C 0.15845 0.86501 0.51769 0.0
C3436 C 0.15016 0.84673 0.48426 0.0
H3437 H 0.17014 0.82322 0.46827 0.0
C3438 C 0.14688 0.85599 0.47411 0.0
C3439 C 0.15818 0.83437 0.48208 0.0
C3440 C 0.16101 0.82316 0.49249 0.0
C3441 C 0.15224 0.85391 0.46191 0.0
C3442 C 0.16088 0.84209 0.45982 0.0
C3443 C 0.16363 0.83239 0.46991 0.0
C3444 C 0.16796 0.8402 0.44733 0.0
C3445 C 0.14934 0.86497 0.45143 0.0
C3446 C 0.15459 0.83113 0.43739 0.0
C3447 C 0.16146 0.82906 0.42573 0.0
C3448 C 0.18184 0.83597 0.42381 0.0
C3449 C 0.19516 0.84512 0.43382 0.0
C3450 C 0.18828 0.84713 0.44546 0.0
H3451 H 0.1461 0.87632 0.45496 0.0
H3452 H 0.16277 0.87208 0.44546 0.0
H3453 H 0.13665 0.85461 0.44549 0.0
H3454 H 0.13881 0.82538 0.4387 0.0
H3455 H 0.15076 0.82168 0.41829 0.0
H3456 H 0.64232 0.83573 0.15234 0.0
H3457 H 0.65652 0.84385 0.17348 0.0
H3458 H 0.61606 0.78493 0.18521 0.0
H3459 H 0.6017 0.77671 0.16415 0.0
H3460 H 0.6209 0.81877 0.20163 0.0
H3461 H 0.69101 0.82015 0.18857 0.0
H3462 H 0.68274 0.83328 0.17885 0.0
H3463 H 0.66848 0.80714 0.17941 0.0
C3464 C 0.63634 0.82457 0.15946 0.0
C3465 C 0.62099 0.80555 0.15659 0.0
C3466 C 0.64452 0.8292 0.17148 0.0
C3467 C 0.6374 0.81492 0.18081 0.0
C3468 C 0.62177 0.79608 0.17808 0.0
H3469 H 0.66041 0.80589 0.25866 0.0
H3470 H 0.6461 0.80211 0.23776 0.0
C3471 C 0.61369 0.7914 0.16605 0.0
C3472 C 0.64647 0.81945 0.19339 0.0
H3473 H 0.6877 0.82702 0.20952 0.0
C3474 C 0.63553 0.82065 0.20339 0.0
C3475 C 0.66557 0.82198 0.19557 0.0
C3476 C 0.6777 0.82049 0.18509 0.0
C3477 C 0.64324 0.82436 0.2156 0.0
C3478 C 0.66216 0.82636 0.21785 0.0
C3479 C 0.6732 0.82545 0.20778 0.0
C3480 C 0.6706 0.82892 0.23061 0.0
C3481 C 0.63116 0.82635 0.22591 0.0
C3482 C 0.68939 0.84493 0.23343 0.0
C3483 C 0.69771 0.84699 0.24532 0.0
C3484 C 0.68736 0.83307 0.2546 0.0
C3485 C 0.66857 0.81702 0.25175 0.0
C3486 C 0.66034 0.81489 0.23983 0.0
H3487 H 0.62044 0.83054 0.2222 0.0
H3488 H 0.62251 0.8121 0.23068 0.0
H3489 H 0.64087 0.83743 0.23294 0.0
H3490 H 0.69761 0.85587 0.22642 0.0
H3491 H 0.71214 0.85958 0.24729 0.0
H3492 H 0.20459 0.83253 0.15283 0.0
H3493 H 0.19764 0.83959 0.17393 0.0
H3494 H 0.19368 0.78623 0.18715 0.0
H3495 H 0.19981 0.77881 0.16598 0.0
H3496 H 0.16371 0.78868 0.19536 0.0
H3497 H 0.23127 0.85988 0.2045 0.0
H3498 H 0.21869 0.86043 0.19057 0.0
H3499 H 0.22924 0.84467 0.19134 0.0
C3500 C 0.20251 0.82249 0.1603 0.0
C3501 C 0.20272 0.80514 0.1578 0.0
C3502 C 0.19866 0.82657 0.17238 0.0
C3503 C 0.19544 0.81361 0.18223 0.0
C3504 C 0.19612 0.79649 0.17974 0.0
H3505 H 0.18836 0.84173 0.26038 0.0
H3506 H 0.19873 0.83483 0.24041 0.0
C3507 C 0.19963 0.79225 0.16765 0.0
C3508 C 0.19003 0.81714 0.19491 0.0
H3509 H 0.20383 0.85115 0.21825 0.0
C3510 C 0.17261 0.8023 0.2004 0.0
C3511 C 0.20174 0.83476 0.20162 0.0
C3512 C 0.22138 0.85075 0.19676 0.0
C3513 C 0.1664 0.80469 0.21224 0.0
C3514 C 0.17749 0.82272 0.21863 0.0
C3515 C 0.19515 0.83742 0.21329 0.0
C3516 C 0.17102 0.82663 0.23085 0.0
C3517 C 0.1482 0.78766 0.21784 0.0
C3518 C 0.15205 0.82451 0.23214 0.0
C3519 C 0.14588 0.82798 0.24364 0.0
C3520 C 0.15871 0.83412 0.25408 0.0
C3521 C 0.17788 0.83663 0.25267 0.0
C3522 C 0.18394 0.8329 0.24119 0.0
H3523 H 0.14552 0.77353 0.21388 0.0
H3524 H 0.1496 0.78724 0.22814 0.0
H3525 H 0.13497 0.78903 0.21567 0.0
H3526 H 0.14196 0.82019 0.22424 0.0
H3527 H 0.13095 0.82568 0.24434 0.0
H3528 H 0.19073 0.42479 0.16511 0.0
H3529 H 0.18524 0.411 0.18609 0.0
H3530 H 0.20413 0.37082 0.17379 0.0
H3531 H 0.20993 0.38478 0.15282 0.0
H3532 H 0.15974 0.37471 0.19347 0.0
H3533 H 0.23606 0.39123 0.20545 0.0
H3534 H 0.23081 0.402 0.1922 0.0
H3535 H 0.22707 0.37764 0.19115 0.0
C3536 C 0.1938 0.41307 0.16688 0.0
C3537 C 0.20079 0.4059 0.15728 0.0
C3538 C 0.19071 0.40523 0.1789 0.0
C3539 C 0.19454 0.39004 0.18163 0.0
C3540 C 0.20158 0.38288 0.17206 0.0
H3541 H 0.16842 0.31069 0.24341 0.0
H3542 H 0.17836 0.3285 0.22366 0.0
C3543 C 0.20483 0.39083 0.16004 0.0
C3544 C 0.19012 0.38104 0.19428 0.0
H3545 H 0.21009 0.3688 0.21878 0.0
C3546 C 0.17083 0.37361 0.19904 0.0
C3547 C 0.20456 0.37957 0.2016 0.0
C3548 C 0.22583 0.38821 0.1974 0.0
C3549 C 0.16547 0.36437 0.21072 0.0
C3550 C 0.1798 0.36262 0.21791 0.0
C3551 C 0.19912 0.37014 0.21323 0.0
C3552 C 0.17476 0.35249 0.23015 0.0
C3553 C 0.14435 0.35609 0.21515 0.0
C3554 C 0.16981 0.36025 0.24045 0.0
C3555 C 0.16414 0.35011 0.25177 0.0
C3556 C 0.16322 0.33195 0.25299 0.0
C3557 C 0.16869 0.32449 0.24273 0.0
C3558 C 0.17448 0.3347 0.23146 0.0
H3559 H 0.13423 0.35539 0.20754 0.0
H3560 H 0.13862 0.34119 0.21897 0.0
H3561 H 0.14396 0.36549 0.22274 0.0
H3562 H 0.17014 0.37407 0.23968 0.0
H3563 H 0.15995 0.35622 0.25946 0.0
H3564 H 0.7906 0.62117 0.8564 0.0
H3565 H 0.79975 0.63448 0.83534 0.0
H3566 H 0.80938 0.58705 0.82498 0.0
H3567 H 0.80091 0.5741 0.84622 0.0
H3568 H 0.83793 0.61938 0.81603 0.0
H3569 H 0.76758 0.61719 0.80417 0.0
H3570 H 0.77851 0.63145 0.818 0.0
H3571 H 0.77026 0.6057 0.81797 0.0
C3572 C 0.79451 0.6135 0.8496 0.0
C3573 C 0.7949 0.59651 0.85295 0.0
C3574 C 0.79963 0.62105 0.83751 0.0
C3575 C 0.80479 0.61154 0.82839 0.0
C3576 C 0.80534 0.59464 0.83177 0.0
H3577 H 0.81335 0.64643 0.74986 0.0
H3578 H 0.80318 0.62795 0.7693 0.0
C3579 C 0.80053 0.58724 0.84393 0.0
C3580 C 0.81031 0.61962 0.8155 0.0
H3581 H 0.79542 0.6371 0.79107 0.0
C3582 C 0.82851 0.62306 0.81054 0.0
C3583 C 0.79791 0.62407 0.80812 0.0
C3584 C 0.77739 0.6192 0.81228 0.0
C3585 C 0.83492 0.63137 0.79867 0.0
C3586 C 0.82316 0.6371 0.79167 0.0
C3587 C 0.80465 0.63304 0.79645 0.0
C3588 C 0.82992 0.6477 0.77956 0.0
C3589 C 0.85412 0.63361 0.7937 0.0
C3590 C 0.84837 0.66499 0.77873 0.0
C3591 C 0.85444 0.67536 0.76753 0.0
C3592 C 0.84202 0.66902 0.75688 0.0
C3593 C 0.82351 0.65168 0.75774 0.0
C3594 C 0.81756 0.64116 0.76893 0.0
H3595 H 0.85734 0.62259 0.79782 0.0
H3596 H 0.8537 0.63208 0.78338 0.0
H3597 H 0.86657 0.64826 0.79631 0.0
H3598 H 0.85802 0.67072 0.78683 0.0
H3599 H 0.86891 0.68844 0.76727 0.0
H3600 H 0.41076 0.22505 0.8457 0.0
H3601 H 0.39686 0.21727 0.82453 0.0
H3602 H 0.34569 0.16514 0.8382 0.0
H3603 H 0.36 0.17249 0.85929 0.0
H3604 H 0.35723 0.15785 0.81677 0.0
H3605 H 0.35327 0.22556 0.81189 0.0
H3606 H 0.37811 0.23053 0.81485 0.0
H3607 H 0.35923 0.21842 0.82652 0.0
C3608 C 0.39656 0.21193 0.84414 0.0
C3609 C 0.38634 0.19942 0.85409 0.0
C3610 C 0.38857 0.20756 0.83208 0.0
C3611 C 0.36998 0.19089 0.82982 0.0
C3612 C 0.36 0.17814 0.83973 0.0
H3613 H 0.29712 0.17551 0.76477 0.0
H3614 H 0.31174 0.18091 0.78557 0.0
C3615 C 0.36816 0.18232 0.85175 0.0
C3616 C 0.36088 0.18671 0.81717 0.0
H3617 H 0.34703 0.20633 0.79353 0.0
C3618 C 0.3549 0.16841 0.81171 0.0
C3619 C 0.35755 0.20038 0.81065 0.0
C3620 C 0.36218 0.21973 0.81633 0.0
C3621 C 0.3458 0.16343 0.79988 0.0
C3622 C 0.34326 0.17741 0.79314 0.0
C3623 C 0.34915 0.19567 0.79864 0.0
C3624 C 0.33403 0.17332 0.78052 0.0
C3625 C 0.33853 0.14304 0.79493 0.0
C3626 C 0.3417 0.16731 0.7707 0.0
C3627 C 0.33299 0.16365 0.75883 0.0
C3628 C 0.3167 0.1664 0.75644 0.0
C3629 C 0.30932 0.17279 0.76627 0.0
C3630 C 0.31783 0.17611 0.77817 0.0
H3631 H 0.33593 0.13262 0.80261 0.0
H3632 H 0.32451 0.13759 0.78951 0.0
H3633 H 0.34999 0.14316 0.78871 0.0
H3634 H 0.35453 0.16556 0.77217 0.0
H3635 H 0.33898 0.15855 0.75157 0.0
H3636 H 0.81094 0.22586 0.84492 0.0
H3637 H 0.81745 0.21829 0.82391 0.0
H3638 H 0.80387 0.16101 0.83615 0.0
H3639 H 0.79706 0.16844 0.85718 0.0
H3640 H 0.84599 0.21021 0.81731 0.0
H3641 H 0.77234 0.14788 0.80397 0.0
H3642 H 0.77572 0.16345 0.81722 0.0
H3643 H 0.78178 0.14432 0.81844 0.0
C3644 C 0.8092 0.2116 0.84311 0.0
C3645 C 0.80353 0.19776 0.85271 0.0
C3646 C 0.81287 0.20727 0.83109 0.0
C3647 C 0.81095 0.18901 0.82839 0.0
C3648 C 0.80499 0.17503 0.83791 0.0
H3649 H 0.84508 0.14382 0.76484 0.0
H3650 H 0.83379 0.14899 0.7851 0.0
C3651 C 0.80116 0.17931 0.84994 0.0
C3652 C 0.81651 0.18522 0.81585 0.0
H3653 H 0.79949 0.15423 0.7907 0.0
C3654 C 0.83575 0.19804 0.81147 0.0
C3655 C 0.80319 0.1693 0.80822 0.0
C3656 C 0.78204 0.15555 0.81213 0.0
C3657 C 0.84212 0.19526 0.79978 0.0
C3658 C 0.82884 0.17933 0.7922 0.0
C3659 C 0.80963 0.16644 0.79655 0.0
C3660 C 0.83479 0.17581 0.77975 0.0
C3661 C 0.86313 0.20919 0.7957 0.0
C3662 C 0.83879 0.18904 0.76999 0.0
C3663 C 0.84526 0.18616 0.75841 0.0
C3664 C 0.84789 0.17 0.7564 0.0
C3665 C 0.84348 0.15656 0.76615 0.0
C3666 C 0.8369 0.15941 0.7777 0.0
H3667 H 0.87265 0.21821 0.8036 0.0
H3668 H 0.86996 0.20111 0.79147 0.0
H3669 H 0.86291 0.21918 0.78853 0.0
H3670 H 0.83707 0.2017 0.77136 0.0
H3671 H 0.84863 0.19683 0.75113 0.0
H3672 H 0.30945 0.12567 0.48749 0.0
H3673 H 0.32317 0.13347 0.50865 0.0
H3674 H 0.28625 0.15849 0.51702 0.0
H3675 H 0.27186 0.15007 0.496 0.0
H3676 H 0.34367 0.16965 0.52039 0.0
H3677 H 0.27406 0.12029 0.5457 0.0
H3678 H 0.27659 0.11845 0.52908 0.0
H3679 H 0.27226 0.13713 0.53531 0.0
C3680 C 0.30403 0.13259 0.49388 0.0
C3681 C 0.28943 0.1371 0.49008 0.0
C3682 C 0.31201 0.13717 0.50593 0.0
C3683 C 0.30552 0.14629 0.51445 0.0
C3684 C 0.2912 0.15112 0.51066 0.0
H3685 H 0.33994 0.18297 0.59183 0.0
H3686 H 0.3256 0.17785 0.57081 0.0
C3687 C 0.28316 0.1465 0.4986 0.0
C3688 C 0.31403 0.15098 0.52723 0.0
H3689 H 0.30218 0.14116 0.55804 0.0
C3690 C 0.33461 0.16343 0.52862 0.0
C3691 C 0.30214 0.14286 0.53795 0.0
C3692 C 0.28006 0.1288 0.53699 0.0
C3693 C 0.34365 0.168 0.54046 0.0
C3694 C 0.3318 0.1597 0.55115 0.0
C3695 C 0.31118 0.1475 0.5498 0.0
C3696 C 0.34063 0.16297 0.56381 0.0
C3697 C 0.36577 0.1818 0.54145 0.0
C3698 C 0.3536 0.15607 0.56684 0.0
C3699 C 0.36168 0.1588 0.57884 0.0
C3700 C 0.35688 0.16847 0.58807 0.0
C3701 C 0.34378 0.17529 0.58499 0.0
C3702 C 0.33566 0.17248 0.57298 0.0
H3703 H 0.3718 0.19062 0.53286 0.0
H3704 H 0.3694 0.19185 0.54956 0.0
H3705 H 0.37338 0.17323 0.54284 0.0
H3706 H 0.35729 0.14833 0.55995 0.0
H3707 H 0.3714 0.15303 0.58095 0.0
H3708 H 0.89359 0.14957 0.49568 0.0
H3709 H 0.88724 0.15637 0.51703 0.0
H3710 H 0.82542 0.13349 0.50772 0.0
H3711 H 0.83163 0.12696 0.4864 0.0
H3712 H 0.86983 0.17943 0.52576 0.0
H3713 H 0.82482 0.10119 0.53841 0.0
H3714 H 0.84113 0.10946 0.52508 0.0
H3715 H 0.8171 0.10755 0.52421 0.0
C3716 C 0.8787 0.14621 0.49814 0.0
C3717 C 0.86307 0.13749 0.48936 0.0
C3718 C 0.87508 0.15001 0.51035 0.0
C3719 C 0.85579 0.14508 0.514 0.0
C3720 C 0.84033 0.137 0.50517 0.0
H3721 H 0.79242 0.14842 0.57844 0.0
H3722 H 0.80397 0.14416 0.55812 0.0
C3723 C 0.84391 0.13324 0.49299 0.0
C3724 C 0.8516 0.1482 0.52705 0.0
H3725 H 0.82368 0.12405 0.5524 0.0
C3726 C 0.85992 0.16735 0.53166 0.0
C3727 C 0.8387 0.13238 0.5347 0.0
C3728 C 0.83004 0.11146 0.53042 0.0
C3729 C 0.85499 0.17115 0.54357 0.0
C3730 C 0.84168 0.15533 0.55111 0.0
C3731 C 0.8338 0.13616 0.54659 0.0
C3732 C 0.83501 0.15829 0.5635 0.0
C3733 C 0.86344 0.19208 0.54778 0.0
C3734 C 0.84859 0.16748 0.57333 0.0
C3735 C 0.84204 0.1701 0.58496 0.0
C3736 C 0.82175 0.16347 0.587 0.0
C3737 C 0.80818 0.15402 0.57715 0.0
C3738 C 0.81474 0.15144 0.56555 0.0
H3739 H 0.86963 0.20242 0.53986 0.0
H3740 H 0.85191 0.1942 0.55245 0.0
H3741 H 0.87564 0.1958 0.55459 0.0
H3742 H 0.86425 0.17255 0.57203 0.0
H3743 H 0.85291 0.17754 0.59231 0.0
H3744 H 0.89481 0.75122 0.49545 0.0
H3745 H 0.88907 0.73665 0.5163 0.0
H3746 H 0.82695 0.69968 0.50736 0.0
H3747 H 0.83262 0.71366 0.48648 0.0
H3748 H 0.86373 0.73592 0.53514 0.0
H3749 H 0.84248 0.66071 0.52036 0.0
H3750 H 0.85458 0.68134 0.51002 0.0
H3751 H 0.82825 0.66987 0.51268 0.0
C3752 C 0.87998 0.73979 0.49786 0.0
C3753 C 0.86419 0.73362 0.48925 0.0
C3754 C 0.8767 0.73158 0.50982 0.0
C3755 C 0.85763 0.71688 0.51336 0.0
C3756 C 0.84186 0.71074 0.5048 0.0
H3757 H 0.79675 0.64895 0.57782 0.0
H3758 H 0.80731 0.66545 0.55774 0.0
C3759 C 0.8451 0.71894 0.49288 0.0
C3760 C 0.85396 0.70821 0.52608 0.0
H3761 H 0.83498 0.66469 0.54139 0.0
C3762 C 0.85765 0.72038 0.53654 0.0
C3763 C 0.84608 0.68793 0.52791 0.0
C3764 C 0.84279 0.67422 0.51716 0.0
C3765 C 0.85291 0.71271 0.54869 0.0
C3766 C 0.84451 0.69235 0.55046 0.0
C3767 C 0.84129 0.68027 0.54004 0.0
C3768 C 0.83829 0.68309 0.56297 0.0
C3769 C 0.85624 0.72634 0.55949 0.0
C3770 C 0.85218 0.68751 0.57266 0.0
C3771 C 0.84619 0.67799 0.58419 0.0
C3772 C 0.82619 0.66374 0.58624 0.0
C3773 C 0.81232 0.65959 0.57654 0.0
C3774 C 0.81831 0.66909 0.56505 0.0
H3775 H 0.85858 0.7407 0.5563 0.0
H3776 H 0.84341 0.71983 0.56597 0.0
H3777 H 0.86967 0.72894 0.56478 0.0
H3778 H 0.86775 0.698 0.57121 0.0
H3779 H 0.85732 0.68138 0.59137 0.0
loop_
_geom_bond_atom_site_label_1
_geom_bond_atom_site_label_2
_geom_bond_distance
_geom_bond_site_symmetry_2
_ccdc_geom_bond_type
C0 C1 1.391 . S
C0 C4 1.391 . S
C0 H42 0.948 . S
C1 C0 1.391 . S
C1 C2 1.391 . S
C2 C1 1.391 . S
C2 H58 0.947 . S
C2 C59 1.392 . S
C3 C4 1.391 . S
C3 C7 1.397 . S
C3 C59 1.419 . S
C4 C0 1.391 . S
C4 C3 1.391 . S
C4 C5 1.399 . S
C5 C4 1.399 . S
C5 C8 1.396 . S
C5 C17 1.453 . S
C5 C18 1.684 . S
H6 C30 0.948 . S
C7 C3 1.397 . S
C7 C8 1.394 . S
C7 C26 1.723 . S
C8 C5 1.396 . S
C8 C7 1.394 . S
C8 C38 1.723 . S
H9 C32 0.947 . S
H10 C33 0.948 . S
H11 C39 0.982 . S
H12 C40 0.979 . S
H13 C40 0.980 . S
H14 C40 0.983 . S
H15 C39 0.979 . S
H16 C39 0.977 . S
C17 C5 1.453 . S
C17 H46 0.982 . S
C17 H47 0.979 . S
C17 H48 0.977 . S
C18 C5 1.684 . S
C18 H43 0.979 . S
C18 H44 0.980 . S
C18 H45 0.983 . S
C19 C20 1.391 . S
C19 C24 1.391 . S
C19 H49 0.948 . S
C20 C19 1.391 . S
C20 C21 1.391 . S
C21 C20 1.391 . S
C21 C22 1.392 . S
C21 H50 0.947 . S
C22 C21 1.392 . S
C22 C23 1.419 . S
C22 H51 0.948 . S
C23 C22 1.419 . S
C23 C24 1.391 . S
C23 C27 1.397 . S
C24 C19 1.391 . S
C24 C23 1.391 . S
C24 C25 1.399 . S
C25 C24 1.399 . S
C25 C26 1.396 . S
C25 C28 1.453 . S
C25 C29 1.684 . S
C26 C7 1.723 . S
C26 C25 1.396 . S
C26 C27 1.394 . S
C27 C23 1.397 . S
C27 C26 1.394 . S
C27 C37 1.723 . S
C28 C25 1.453 . S
C28 H52 0.982 . S
C28 H53 0.979 . S
C28 H54 0.977 . S
C29 C25 1.684 . S
C29 H55 0.979 . S
C29 H56 0.980 . S
C29 H57 0.983 . S
C30 H6 0.948 . S
C30 C31 1.391 . S
C30 C35 1.391 . S
C31 C30 1.391 . S
C31 C32 1.391 . S
C32 H9 0.947 . S
C32 C31 1.391 . S
C32 C33 1.392 . S
C33 H10 0.948 . S
C33 C32 1.392 . S
C33 C34 1.419 . S
C34 C33 1.419 . S
C34 C35 1.391 . S
C34 C38 1.397 . S
C35 C30 1.391 . S
C35 C34 1.391 . S
C35 C36 1.399 . S
C36 C35 1.399 . S
C36 C37 1.396 . S
C36 C39 1.453 . S
C36 C40 1.684 . S
C37 C27 1.723 . S
C37 C36 1.396 . S
C37 C38 1.394 . S
C38 C8 1.723 . S
C38 C34 1.397 . S
C38 C37 1.394 . S
C39 H11 0.982 . S
C39 H15 0.979 . S
C39 H16 0.977 . S
C39 C36 1.453 . S
C40 H12 0.979 . S
C40 H13 0.980 . S
C40 H14 0.983 . S
C40 C36 1.684 . S
H41 C59 0.948 . S
H42 C0 0.948 . S
H43 C18 0.979 . S
H44 C18 0.980 . S
H45 C18 0.983 . S
H46 C17 0.982 . S
H47 C17 0.979 . S
H48 C17 0.977 . S
H49 C19 0.948 . S
H50 C21 0.947 . S
H51 C22 0.948 . S
H52 C28 0.982 . S
H53 C28 0.979 . S
H54 C28 0.977 . S
H55 C29 0.979 . S
H56 C29 0.980 . S
H57 C29 0.983 . S
H58 C2 0.947 . S
C59 C2 1.392 . S
C59 C3 1.419 . S
C59 H41 0.948 . S
C60 C61 1.391 . S
C60 C64 1.391 . S
C60 H102 0.948 . S
C61 C60 1.391 . S
C61 C62 1.391 . S
C62 C61 1.391 . S
C62 H118 0.947 . S
C62 C119 1.392 . S
C63 C64 1.391 . S
C63 C67 1.397 . S
C63 C119 1.419 . S
C64 C60 1.391 . S
C64 C63 1.391 . S
C64 C65 1.399 . S
C65 C64 1.399 . S
C65 C68 1.396 . S
C65 C77 1.453 . S
C65 C78 1.684 . S
H66 C90 0.948 . S
C67 C63 1.397 . S
C67 C68 1.394 . S
C67 C86 1.723 . S
C68 C65 1.396 . S
C68 C67 1.394 . S
C68 C98 1.723 . S
H69 C92 0.947 . S
H70 C93 0.948 . S
H71 C99 0.982 . S
H72 C100 0.979 . S
H73 C100 0.980 . S
H74 C100 0.983 . S
H75 C99 0.979 . S
H76 C99 0.977 . S
C77 C65 1.453 . S
C77 H106 0.982 . S
C77 H107 0.979 . S
C77 H108 0.977 . S
C78 C65 1.684 . S
C78 H103 0.979 . S
C78 H104 0.980 . S
C78 H105 0.983 . S
C79 C80 1.391 . S
C79 C84 1.391 . S
C79 H109 0.948 . S
C80 C79 1.391 . S
C80 C81 1.391 . S
C81 C80 1.391 . S
C81 C82 1.392 . S
C81 H110 0.947 . S
C82 C81 1.392 . S
C82 C83 1.419 . S
C82 H111 0.948 . S
C83 C82 1.419 . S
C83 C84 1.391 . S
C83 C87 1.397 . S
C84 C79 1.391 . S
C84 C83 1.391 . S
C84 C85 1.399 . S
C85 C84 1.399 . S
C85 C86 1.396 . S
C85 C88 1.453 . S
C85 C89 1.684 . S
C86 C67 1.723 . S
C86 C85 1.396 . S
C86 C87 1.394 . S
C87 C83 1.397 . S
C87 C86 1.394 . S
C87 C97 1.723 . S
C88 C85 1.453 . S
C88 H112 0.982 . S
C88 H113 0.979 . S
C88 H114 0.977 . S
C89 C85 1.684 . S
C89 H115 0.979 . S
C89 H116 0.980 . S
C89 H117 0.983 . S
C90 H66 0.948 . S
C90 C91 1.391 . S
C90 C95 1.391 . S
C91 C90 1.391 . S
C91 C92 1.391 . S
C92 H69 0.947 . S
C92 C91 1.391 . S
C92 C93 1.392 . S
C93 H70 0.948 . S
C93 C92 1.392 . S
C93 C94 1.419 . S
C94 C93 1.419 . S
C94 C95 1.391 . S
C94 C98 1.397 . S
C95 C90 1.391 . S
C95 C94 1.391 . S
C95 C96 1.399 . S
C96 C95 1.399 . S
C96 C97 1.396 . S
C96 C99 1.453 . S
C96 C100 1.684 . S
C97 C87 1.723 . S
C97 C96 1.396 . S
C97 C98 1.394 . S
C98 C68 1.723 . S
C98 C94 1.397 . S
C98 C97 1.394 . S
C99 H71 0.982 . S
C99 H75 0.979 . S
C99 H76 0.977 . S
C99 C96 1.453 . S
C100 H72 0.979 . S
C100 H73 0.980 . S
C100 H74 0.983 . S
C100 C96 1.684 . S
H101 C119 0.948 . S
H102 C60 0.948 . S
H103 C78 0.979 . S
H104 C78 0.980 . S
H105 C78 0.983 . S
H106 C77 0.982 . S
H107 C77 0.979 . S
H108 C77 0.977 . S
H109 C79 0.948 . S
H110 C81 0.947 . S
H111 C82 0.948 . S
H112 C88 0.982 . S
H113 C88 0.979 . S
H114 C88 0.977 . S
H115 C89 0.979 . S
H116 C89 0.980 . S
H117 C89 0.983 . S
H118 C62 0.947 . S
C119 C62 1.392 . S
C119 C63 1.419 . S
C119 H101 0.948 . S
C120 C121 1.391 . S
C120 C124 1.391 . S
C120 H162 0.948 . S
C121 C120 1.391 . S
C121 C122 1.391 . S
C122 C121 1.391 . S
C122 H178 0.947 . S
C122 C179 1.392 . S
C123 C124 1.391 . S
C123 C127 1.397 . S
C123 C179 1.419 . S
C124 C120 1.391 . S
C124 C123 1.391 . S
C124 C125 1.399 . S
C125 C124 1.399 . S
C125 C128 1.396 . S
C125 C137 1.453 . S
C125 C138 1.684 . S
H126 C150 0.948 . S
C127 C123 1.397 . S
C127 C128 1.394 . S
C127 C146 1.723 . S
C128 C125 1.396 . S
C128 C127 1.394 . S
C128 C158 1.723 . S
H129 C152 0.947 . S
H130 C153 0.948 . S
H131 C159 0.982 . S
H132 C160 0.979 . S
H133 C160 0.980 . S
H134 C160 0.983 . S
H135 C159 0.979 . S
H136 C159 0.977 . S
C137 C125 1.453 . S
C137 H166 0.982 . S
C137 H167 0.979 . S
C137 H168 0.977 . S
C138 C125 1.684 . S
C138 H163 0.979 . S
C138 H164 0.980 . S
C138 H165 0.983 . S
C139 C140 1.391 . S
C139 C144 1.391 . S
C139 H169 0.948 . S
C140 C139 1.391 . S
C140 C141 1.391 . S
C141 C140 1.391 . S
C141 C142 1.392 . S
C141 H170 0.947 . S
C142 C141 1.392 . S
C142 C143 1.419 . S
C142 H171 0.948 . S
C143 C142 1.419 . S
C143 C144 1.391 . S
C143 C147 1.397 . S
C144 C139 1.391 . S
C144 C143 1.391 . S
C144 C145 1.399 . S
C145 C144 1.399 . S
C145 C146 1.396 . S
C145 C148 1.453 . S
C145 C149 1.684 . S
C146 C127 1.723 . S
C146 C145 1.396 . S
C146 C147 1.394 . S
C147 C143 1.397 . S
C147 C146 1.394 . S
C147 C157 1.723 . S
C148 C145 1.453 . S
C148 H172 0.982 . S
C148 H173 0.979 . S
C148 H174 0.977 . S
C149 C145 1.684 . S
C149 H175 0.979 . S
C149 H176 0.980 . S
C149 H177 0.983 . S
C150 H126 0.948 . S
C150 C151 1.391 . S
C150 C155 1.391 . S
C151 C150 1.391 . S
C151 C152 1.391 . S
C152 H129 0.947 . S
C152 C151 1.391 . S
C152 C153 1.392 . S
C153 H130 0.948 . S
C153 C152 1.392 . S
C153 C154 1.419 . S
C154 C153 1.419 . S
C154 C155 1.391 . S
C154 C158 1.397 . S
C155 C150 1.391 . S
C155 C154 1.391 . S
C155 C156 1.399 . S
C156 C155 1.399 . S
C156 C157 1.396 . S
C156 C159 1.453 . S
C156 C160 1.684 . S
C157 C147 1.723 . S
C157 C156 1.396 . S
C157 C158 1.394 . S
C158 C128 1.723 . S
C158 C154 1.397 . S
C158 C157 1.394 . S
C159 H131 0.982 . S
C159 H135 0.979 . S
C159 H136 0.977 . S
C159 C156 1.453 . S
C160 H132 0.979 . S
C160 H133 0.980 . S
C160 H134 0.983 . S
C160 C156 1.684 . S
H161 C179 0.948 . S
H162 C120 0.948 . S
H163 C138 0.979 . S
H164 C138 0.980 . S
H165 C138 0.983 . S
H166 C137 0.982 . S
H167 C137 0.979 . S
H168 C137 0.977 . S
H169 C139 0.948 . S
H170 C141 0.947 . S
H171 C142 0.948 . S
H172 C148 0.982 . S
H173 C148 0.979 . S
H174 C148 0.977 . S
H175 C149 0.979 . S
H176 C149 0.980 . S
H177 C149 0.983 . S
H178 C122 0.947 . S
C179 C122 1.392 . S
C179 C123 1.419 . S
C179 H161 0.948 . S
C180 C181 1.391 . S
C180 C184 1.391 . S
C180 H222 0.948 . S
C181 C180 1.391 . S
C181 C182 1.391 . S
C182 C181 1.391 . S
C182 H238 0.947 . S
C182 C239 1.392 . S
C183 C184 1.391 . S
C183 C187 1.397 . S
C183 C239 1.419 . S
C184 C180 1.391 . S
C184 C183 1.391 . S
C184 C185 1.399 . S
C185 C184 1.399 . S
C185 C188 1.396 . S
C185 C197 1.453 . S
C185 C198 1.684 . S
H186 C210 0.948 . S
C187 C183 1.397 . S
C187 C188 1.394 . S
C187 C206 1.723 . S
C188 C185 1.396 . S
C188 C187 1.394 . S
C188 C218 1.723 . S
H189 C212 0.947 . S
H190 C213 0.948 . S
H191 C219 0.982 . S
H192 C220 0.979 . S
H193 C220 0.980 . S
H194 C220 0.983 . S
H195 C219 0.979 . S
H196 C219 0.977 . S
C197 C185 1.453 . S
C197 H226 0.982 . S
C197 H227 0.979 . S
C197 H228 0.977 . S
C198 C185 1.684 . S
C198 H223 0.979 . S
C198 H224 0.980 . S
C198 H225 0.983 . S
C199 C200 1.391 . S
C199 C204 1.391 . S
C199 H229 0.948 . S
C200 C199 1.391 . S
C200 C201 1.391 . S
C201 C200 1.391 . S
C201 C202 1.392 . S
C201 H230 0.947 . S
C202 C201 1.392 . S
C202 C203 1.419 . S
C202 H231 0.948 . S
C203 C202 1.419 . S
C203 C204 1.391 . S
C203 C207 1.397 . S
C204 C199 1.391 . S
C204 C203 1.391 . S
C204 C205 1.399 . S
C205 C204 1.399 . S
C205 C206 1.396 . S
C205 C208 1.453 . S
C205 C209 1.684 . S
C206 C187 1.723 . S
C206 C205 1.396 . S
C206 C207 1.394 . S
C207 C203 1.397 . S
C207 C206 1.394 . S
C207 C217 1.723 . S
C208 C205 1.453 . S
C208 H232 0.982 . S
C208 H233 0.979 . S
C208 H234 0.977 . S
C209 C205 1.684 . S
C209 H235 0.979 . S
C209 H236 0.980 . S
C209 H237 0.983 . S
C210 H186 0.948 . S
C210 C211 1.391 . S
C210 C215 1.391 . S
C211 C210 1.391 . S
C211 C212 1.391 . S
C212 H189 0.947 . S
C212 C211 1.391 . S
C212 C213 1.392 . S
C213 H190 0.948 . S
C213 C212 1.392 . S
C213 C214 1.419 . S
C214 C213 1.419 . S
C214 C215 1.391 . S
C214 C218 1.397 . S
C215 C210 1.391 . S
C215 C214 1.391 . S
C215 C216 1.399 . S
C216 C215 1.399 . S
C216 C217 1.396 . S
C216 C219 1.453 . S
C216 C220 1.684 . S
C217 C207 1.723 . S
C217 C216 1.396 . S
C217 C218 1.394 . S
C218 C188 1.723 . S
C218 C214 1.397 . S
C218 C217 1.394 . S
C219 H191 0.982 . S
C219 H195 0.979 . S
C219 H196 0.977 . S
C219 C216 1.453 . S
C220 H192 0.979 . S
C220 H193 0.980 . S
C220 H194 0.983 . S
C220 C216 1.684 . S
H221 C239 0.948 . S
H222 C180 0.948 . S
H223 C198 0.979 . S
H224 C198 0.980 . S
H225 C198 0.983 . S
H226 C197 0.982 . S
H227 C197 0.979 . S
H228 C197 0.977 . S
H229 C199 0.948 . S
H230 C201 0.947 . S
H231 C202 0.948 . S
H232 C208 0.982 . S
H233 C208 0.979 . S
H234 C208 0.977 . S
H235 C209 0.979 . S
H236 C209 0.980 . S
H237 C209 0.983 . S
H238 C182 0.947 . S
C239 C182 1.392 . S
C239 C183 1.419 . S
C239 H221 0.948 . S
C240 C241 1.391 . S
C240 C244 1.391 . S
C240 H282 0.948 . S
C241 C240 1.391 . S
C241 C242 1.391 . S
C242 C241 1.391 . S
C242 H298 0.947 . S
C242 C299 1.392 . S
C243 C244 1.391 . S
C243 C247 1.397 . S
C243 C299 1.419 . S
C244 C240 1.391 . S
C244 C243 1.391 . S
C244 C245 1.399 . S
C245 C244 1.399 . S
C245 C248 1.396 . S
C245 C257 1.453 . S
C245 C258 1.684 . S
H246 C270 0.948 . S
C247 C243 1.397 . S
C247 C248 1.394 . S
C247 C266 1.723 . S
C248 C245 1.396 . S
C248 C247 1.394 . S
C248 C278 1.723 . S
H249 C272 0.947 . S
H250 C273 0.948 . S
H251 C279 0.982 . S
H252 C280 0.979 . S
H253 C280 0.980 . S
H254 C280 0.983 . S
H255 C279 0.979 . S
H256 C279 0.977 . S
C257 C245 1.453 . S
C257 H286 0.982 . S
C257 H287 0.979 . S
C257 H288 0.977 . S
C258 C245 1.684 . S
C258 H283 0.979 . S
C258 H284 0.980 . S
C258 H285 0.983 . S
C259 C260 1.391 . S
C259 C264 1.391 . S
C259 H289 0.948 . S
C260 C259 1.391 . S
C260 C261 1.391 . S
C261 C260 1.391 . S
C261 C262 1.392 . S
C261 H290 0.947 . S
C262 C261 1.392 . S
C262 C263 1.419 . S
C262 H291 0.948 . S
C263 C262 1.419 . S
C263 C264 1.391 . S
C263 C267 1.397 . S
C264 C259 1.391 . S
C264 C263 1.391 . S
C264 C265 1.399 . S
C265 C264 1.399 . S
C265 C266 1.396 . S
C265 C268 1.453 . S
C265 C269 1.684 . S
C266 C247 1.723 . S
C266 C265 1.396 . S
C266 C267 1.394 . S
C267 C263 1.397 . S
C267 C266 1.394 . S
C267 C277 1.723 . S
C268 C265 1.453 . S
C268 H292 0.982 . S
C268 H293 0.979 . S
C268 H294 0.977 . S
C269 C265 1.684 . S
C269 H295 0.979 . S
C269 H296 0.980 . S
C269 H297 0.983 . S
C270 H246 0.948 . S
C270 C271 1.391 . S
C270 C275 1.391 . S
C271 C270 1.391 . S
C271 C272 1.391 . S
C272 H249 0.947 . S
C272 C271 1.391 . S
C272 C273 1.392 . S
C273 H250 0.948 . S
C273 C272 1.392 . S
C273 C274 1.419 . S
C274 C273 1.419 . S
C274 C275 1.391 . S
C274 C278 1.397 . S
C275 C270 1.391 . S
C275 C274 1.391 . S
C275 C276 1.399 . S
C276 C275 1.399 . S
C276 C277 1.396 . S
C276 C279 1.453 . S
C276 C280 1.684 . S
C277 C267 1.723 . S
C277 C276 1.396 . S
C277 C278 1.394 . S
C278 C248 1.723 . S
C278 C274 1.397 . S
C278 C277 1.394 . S
C279 H251 0.982 . S
C279 H255 0.979 . S
C279 H256 0.977 . S
C279 C276 1.453 . S
C280 H252 0.979 . S
C280 H253 0.980 . S
C280 H254 0.983 . S
C280 C276 1.684 . S
H281 C299 0.948 . S
H282 C240 0.948 . S
H283 C258 0.979 . S
H284 C258 0.980 . S
H285 C258 0.983 . S
H286 C257 0.982 . S
H287 C257 0.979 . S
H288 C257 0.977 . S
H289 C259 0.948 . S
H290 C261 0.947 . S
H291 C262 0.948 . S
H292 C268 0.982 . S
H293 C268 0.979 . S
H294 C268 0.977 . S
H295 C269 0.979 . S
H296 C269 0.980 . S
H297 C269 0.983 . S
H298 C242 0.947 . S
C299 C242 1.392 . S
C299 C243 1.419 . S
C299 H281 0.948 . S
C300 C301 1.391 . S
C300 C304 1.391 . S
C300 H342 0.948 . S
C301 C300 1.391 . S
C301 C302 1.391 . S
C302 C301 1.391 . S
C302 H358 0.947 . S
C302 C359 1.392 . S
C303 C304 1.391 . S
C303 C307 1.397 . S
C303 C359 1.419 . S
C304 C300 1.391 . S
C304 C303 1.391 . S
C304 C305 1.399 . S
C305 C304 1.399 . S
C305 C308 1.396 . S
C305 C317 1.453 . S
C305 C318 1.684 . S
H306 C330 0.948 . S
C307 C303 1.397 . S
C307 C308 1.394 . S
C307 C326 1.723 . S
C308 C305 1.396 . S
C308 C307 1.394 . S
C308 C338 1.723 . S
H309 C332 0.947 . S
H310 C333 0.948 . S
H311 C339 0.982 . S
H312 C340 0.979 . S
H313 C340 0.980 . S
H314 C340 0.983 . S
H315 C339 0.979 . S
H316 C339 0.977 . S
C317 C305 1.453 . S
C317 H346 0.982 . S
C317 H347 0.979 . S
C317 H348 0.977 . S
C318 C305 1.684 . S
C318 H343 0.979 . S
C318 H344 0.980 . S
C318 H345 0.983 . S
C319 C320 1.391 . S
C319 C324 1.391 . S
C319 H349 0.948 . S
C320 C319 1.391 . S
C320 C321 1.391 . S
C321 C320 1.391 . S
C321 C322 1.392 . S
C321 H350 0.947 . S
C322 C321 1.392 . S
C322 C323 1.419 . S
C322 H351 0.948 . S
C323 C322 1.419 . S
C323 C324 1.391 . S
C323 C327 1.397 . S
C324 C319 1.391 . S
C324 C323 1.391 . S
C324 C325 1.399 . S
C325 C324 1.399 . S
C325 C326 1.396 . S
C325 C328 1.453 . S
C325 C329 1.684 . S
C326 C307 1.723 . S
C326 C325 1.396 . S
C326 C327 1.394 . S
C327 C323 1.397 . S
C327 C326 1.394 . S
C327 C337 1.723 . S
C328 C325 1.453 . S
C328 H352 0.982 . S
C328 H353 0.979 . S
C328 H354 0.977 . S
C329 C325 1.684 . S
C329 H355 0.979 . S
C329 H356 0.980 . S
C329 H357 0.983 . S
C330 H306 0.948 . S
C330 C331 1.391 . S
C330 C335 1.391 . S
C331 C330 1.391 . S
C331 C332 1.391 . S
C332 H309 0.947 . S
C332 C331 1.391 . S
C332 C333 1.392 . S
C333 H310 0.948 . S
C333 C332 1.392 . S
C333 C334 1.419 . S
C334 C333 1.419 . S
C334 C335 1.391 . S
C334 C338 1.397 . S
C335 C330 1.391 . S
C335 C334 1.391 . S
C335 C336 1.399 . S
C336 C335 1.399 . S
C336 C337 1.396 . S
C336 C339 1.453 . S
C336 C340 1.684 . S
C337 C327 1.723 . S
C337 C336 1.396 . S
C337 C338 1.394 . S
C338 C308 1.723 . S
C338 C334 1.397 . S
C338 C337 1.394 . S
C339 H311 0.982 . S
C339 H315 0.979 . S
C339 H316 0.977 . S
C339 C336 1.453 . S
C340 H312 0.979 . S
C340 H313 0.980 . S
C340 H314 0.983 . S
C340 C336 1.684 . S
H341 C359 0.948 . S
H342 C300 0.948 . S
H343 C318 0.979 . S
H344 C318 0.980 . S
H345 C318 0.983 . S
H346 C317 0.982 . S
H347 C317 0.979 . S
H348 C317 0.977 . S
H349 C319 0.948 . S
H350 C321 0.947 . S
H351 C322 0.948 . S
H352 C328 0.982 . S
H353 C328 0.979 . S
H354 C328 0.977 . S
H355 C329 0.979 . S
H356 C329 0.980 . S
H357 C329 0.983 . S
H358 C302 0.947 . S
C359 C302 1.392 . S
C359 C303 1.419 . S
C359 H341 0.948 . S
C360 C361 1.391 . S
C360 C364 1.391 . S
C360 H402 0.948 . S
C361 C360 1.391 . S
C361 C362 1.391 . S
C362 C361 1.391 . S
C362 H418 0.947 . S
C362 C419 1.392 . S
C363 C364 1.391 . S
C363 C367 1.397 . S
C363 C419 1.419 . S
C364 C360 1.391 . S
C364 C363 1.391 . S
C364 C365 1.399 . S
C365 C364 1.399 . S
C365 C368 1.396 . S
C365 C377 1.453 . S
C365 C378 1.684 . S
H366 C390 0.948 . S
C367 C363 1.397 . S
C367 C368 1.394 . S
C367 C386 1.723 . S
C368 C365 1.396 . S
C368 C367 1.394 . S
C368 C398 1.723 . S
H369 C392 0.947 . S
H370 C393 0.948 . S
H371 C399 0.982 . S
H372 C400 0.979 . S
H373 C400 0.980 . S
H374 C400 0.983 . S
H375 C399 0.979 . S
H376 C399 0.977 . S
C377 C365 1.453 . S
C377 H406 0.982 . S
C377 H407 0.979 . S
C377 H408 0.977 . S
C378 C365 1.684 . S
C378 H403 0.979 . S
C378 H404 0.980 . S
C378 H405 0.983 . S
C379 C380 1.391 . S
C379 C384 1.391 . S
C379 H409 0.948 . S
C380 C379 1.391 . S
C380 C381 1.391 . S
C381 C380 1.391 . S
C381 C382 1.392 . S
C381 H410 0.947 . S
C382 C381 1.392 . S
C382 C383 1.419 . S
C382 H411 0.948 . S
C383 C382 1.419 . S
C383 C384 1.391 . S
C383 C387 1.397 . S
C384 C379 1.391 . S
C384 C383 1.391 . S
C384 C385 1.399 . S
C385 C384 1.399 . S
C385 C386 1.396 . S
C385 C388 1.453 . S
C385 C389 1.684 . S
C386 C367 1.723 . S
C386 C385 1.396 . S
C386 C387 1.394 . S
C387 C383 1.397 . S
C387 C386 1.394 . S
C387 C397 1.723 . S
C388 C385 1.453 . S
C388 H412 0.982 . S
C388 H413 0.979 . S
C388 H414 0.977 . S
C389 C385 1.684 . S
C389 H415 0.979 . S
C389 H416 0.980 . S
C389 H417 0.983 . S
C390 H366 0.948 . S
C390 C391 1.391 . S
C390 C395 1.391 . S
C391 C390 1.391 . S
C391 C392 1.391 . S
C392 H369 0.947 . S
C392 C391 1.391 . S
C392 C393 1.392 . S
C393 H370 0.948 . S
C393 C392 1.392 . S
C393 C394 1.419 . S
C394 C393 1.419 . S
C394 C395 1.391 . S
C394 C398 1.397 . S
C395 C390 1.391 . S
C395 C394 1.391 . S
C395 C396 1.399 . S
C396 C395 1.399 . S
C396 C397 1.396 . S
C396 C399 1.453 . S
C396 C400 1.684 . S
C397 C387 1.723 . S
C397 C396 1.396 . S
C397 C398 1.394 . S
C398 C368 1.723 . S
C398 C394 1.397 . S
C398 C397 1.394 . S
C399 H371 0.982 . S
C399 H375 0.979 . S
C399 H376 0.977 . S
C399 C396 1.453 . S
C400 H372 0.979 . S
C400 H373 0.980 . S
C400 H374 0.983 . S
C400 C396 1.684 . S
H401 C419 0.948 . S
H402 C360 0.948 . S
H403 C378 0.979 . S
H404 C378 0.980 . S
H405 C378 0.983 . S
H406 C377 0.982 . S
H407 C377 0.979 . S
H408 C377 0.977 . S
H409 C379 0.948 . S
H410 C381 0.947 . S
H411 C382 0.948 . S
H412 C388 0.982 . S
H413 C388 0.979 . S
H414 C388 0.977 . S
H415 C389 0.979 . S
H416 C389 0.980 . S
H417 C389 0.983 . S
H418 C362 0.947 . S
C419 C362 1.392 . S
C419 C363 1.419 . S
C419 H401 0.948 . S
C420 C421 1.391 . S
C420 C424 1.391 . S
C420 H462 0.948 . S
C421 C420 1.391 . S
C421 C422 1.391 . S
C422 C421 1.391 . S
C422 H478 0.947 . S
C422 C479 1.392 . S
C423 C424 1.391 . S
C423 C427 1.397 . S
C423 C479 1.419 . S
C424 C420 1.391 . S
C424 C423 1.391 . S
C424 C425 1.399 . S
C425 C424 1.399 . S
C425 C428 1.396 . S
C425 C437 1.453 . S
C425 C438 1.684 . S
H426 C450 0.948 . S
C427 C423 1.397 . S
C427 C428 1.394 . S
C427 C446 1.723 . S
C428 C425 1.396 . S
C428 C427 1.394 . S
C428 C458 1.723 . S
H429 C452 0.947 . S
H430 C453 0.948 . S
H431 C459 0.982 . S
H432 C460 0.979 . S
H433 C460 0.980 . S
H434 C460 0.983 . S
H435 C459 0.979 . S
H436 C459 0.977 . S
C437 C425 1.453 . S
C437 H466 0.982 . S
C437 H467 0.979 . S
C437 H468 0.977 . S
C438 C425 1.684 . S
C438 H463 0.979 . S
C438 H464 0.980 . S
C438 H465 0.983 . S
C439 C440 1.391 . S
C439 C444 1.391 . S
C439 H469 0.948 . S
C440 C439 1.391 . S
C440 C441 1.391 . S
C441 C440 1.391 . S
C441 C442 1.392 . S
C441 H470 0.947 . S
C442 C441 1.392 . S
C442 C443 1.419 . S
C442 H471 0.948 . S
C443 C442 1.419 . S
C443 C444 1.391 . S
C443 C447 1.397 . S
C444 C439 1.391 . S
C444 C443 1.391 . S
C444 C445 1.399 . S
C445 C444 1.399 . S
C445 C446 1.396 . S
C445 C448 1.453 . S
C445 C449 1.684 . S
C446 C427 1.723 . S
C446 C445 1.396 . S
C446 C447 1.394 . S
C447 C443 1.397 . S
C447 C446 1.394 . S
C447 C457 1.723 . S
C448 C445 1.453 . S
C448 H472 0.982 . S
C448 H473 0.979 . S
C448 H474 0.977 . S
C449 C445 1.684 . S
C449 H475 0.979 . S
C449 H476 0.980 . S
C449 H477 0.983 . S
C450 H426 0.948 . S
C450 C451 1.391 . S
C450 C455 1.391 . S
C451 C450 1.391 . S
C451 C452 1.391 . S
C452 H429 0.947 . S
C452 C451 1.391 . S
C452 C453 1.392 . S
C453 H430 0.948 . S
C453 C452 1.392 . S
C453 C454 1.419 . S
C454 C453 1.419 . S
C454 C455 1.391 . S
C454 C458 1.397 . S
C455 C450 1.391 . S
C455 C454 1.391 . S
C455 C456 1.399 . S
C456 C455 1.399 . S
C456 C457 1.396 . S
C456 C459 1.453 . S
C456 C460 1.684 . S
C457 C447 1.723 . S
C457 C456 1.396 . S
C457 C458 1.394 . S
C458 C428 1.723 . S
C458 C454 1.397 . S
C458 C457 1.394 . S
C459 H431 0.982 . S
C459 H435 0.979 . S
C459 H436 0.977 . S
C459 C456 1.453 . S
C460 H432 0.979 . S
C460 H433 0.980 . S
C460 H434 0.983 . S
C460 C456 1.684 . S
H461 C479 0.948 . S
H462 C420 0.948 . S
H463 C438 0.979 . S
H464 C438 0.980 . S
H465 C438 0.983 . S
H466 C437 0.982 . S
H467 C437 0.979 . S
H468 C437 0.977 . S
H469 C439 0.948 . S
H470 C441 0.947 . S
H471 C442 0.948 . S
H472 C448 0.982 . S
H473 C448 0.979 . S
H474 C448 0.977 . S
H475 C449 0.979 . S
H476 C449 0.980 . S
H477 C449 0.983 . S
H478 C422 0.947 . S
C479 C422 1.392 . S
C479 C423 1.419 . S
C479 H461 0.948 . S
C480 C481 1.391 . S
C480 C484 1.391 . S
C480 H522 0.948 . S
C481 C480 1.391 . S
C481 C482 1.391 . S
C482 C481 1.391 . S
C482 H538 0.947 . S
C482 C539 1.392 . S
C483 C484 1.391 . S
C483 C487 1.397 . S
C483 C539 1.419 . S
C484 C480 1.391 . S
C484 C483 1.391 . S
C484 C485 1.399 . S
C485 C484 1.399 . S
C485 C488 1.396 . S
C485 C497 1.453 . S
C485 C498 1.684 . S
H486 C510 0.948 . S
C487 C483 1.397 . S
C487 C488 1.394 . S
C487 C506 1.723 . S
C488 C485 1.396 . S
C488 C487 1.394 . S
C488 C518 1.723 . S
H489 C512 0.947 . S
H490 C513 0.948 . S
H491 C519 0.982 . S
H492 C520 0.979 . S
H493 C520 0.980 . S
H494 C520 0.983 . S
H495 C519 0.979 . S
H496 C519 0.977 . S
C497 C485 1.453 . S
C497 H526 0.982 . S
C497 H527 0.979 . S
C497 H528 0.977 . S
C498 C485 1.684 . S
C498 H523 0.979 . S
C498 H524 0.980 . S
C498 H525 0.983 . S
C499 C500 1.391 . S
C499 C504 1.391 . S
C499 H529 0.948 . S
C500 C499 1.391 . S
C500 C501 1.391 . S
C501 C500 1.391 . S
C501 C502 1.392 . S
C501 H530 0.947 . S
C502 C501 1.392 . S
C502 C503 1.419 . S
C502 H531 0.948 . S
C503 C502 1.419 . S
C503 C504 1.391 . S
C503 C507 1.397 . S
C504 C499 1.391 . S
C504 C503 1.391 . S
C504 C505 1.399 . S
C505 C504 1.399 . S
C505 C506 1.396 . S
C505 C508 1.453 . S
C505 C509 1.684 . S
C506 C487 1.723 . S
C506 C505 1.396 . S
C506 C507 1.394 . S
C507 C503 1.397 . S
C507 C506 1.394 . S
C507 C517 1.723 . S
C508 C505 1.453 . S
C508 H532 0.982 . S
C508 H533 0.979 . S
C508 H534 0.977 . S
C509 C505 1.684 . S
C509 H535 0.979 . S
C509 H536 0.980 . S
C509 H537 0.983 . S
C510 H486 0.948 . S
C510 C511 1.391 . S
C510 C515 1.391 . S
C511 C510 1.391 . S
C511 C512 1.391 . S
C512 H489 0.947 . S
C512 C511 1.391 . S
C512 C513 1.392 . S
C513 H490 0.948 . S
C513 C512 1.392 . S
C513 C514 1.419 . S
C514 C513 1.419 . S
C514 C515 1.391 . S
C514 C518 1.397 . S
C515 C510 1.391 . S
C515 C514 1.391 . S
C515 C516 1.399 . S
C516 C515 1.399 . S
C516 C517 1.396 . S
C516 C519 1.453 . S
C516 C520 1.684 . S
C517 C507 1.723 . S
C517 C516 1.396 . S
C517 C518 1.394 . S
C518 C488 1.723 . S
C518 C514 1.397 . S
C518 C517 1.394 . S
C519 H491 0.982 . S
C519 H495 0.979 . S
C519 H496 0.977 . S
C519 C516 1.453 . S
C520 H492 0.979 . S
C520 H493 0.980 . S
C520 H494 0.983 . S
C520 C516 1.684 . S
H521 C539 0.948 . S
H522 C480 0.948 . S
H523 C498 0.979 . S
H524 C498 0.980 . S
H525 C498 0.983 . S
H526 C497 0.982 . S
H527 C497 0.979 . S
H528 C497 0.977 . S
H529 C499 0.948 . S
H530 C501 0.947 . S
H531 C502 0.948 . S
H532 C508 0.982 . S
H533 C508 0.979 . S
H534 C508 0.977 . S
H535 C509 0.979 . S
H536 C509 0.980 . S
H537 C509 0.983 . S
H538 C482 0.947 . S
C539 C482 1.392 . S
C539 C483 1.419 . S
C539 H521 0.948 . S
C540 C541 1.391 . S
C540 C544 1.391 . S
C540 H582 0.948 . S
C541 C540 1.391 . S
C541 C542 1.391 . S
C542 C541 1.391 . S
C542 H598 0.947 . S
C542 C599 1.392 . S
C543 C544 1.391 . S
C543 C547 1.397 . S
C543 C599 1.419 . S
C544 C540 1.391 . S
C544 C543 1.391 . S
C544 C545 1.399 . S
C545 C544 1.399 . S
C545 C548 1.396 . S
C545 C557 1.453 . S
C545 C558 1.684 . S
H546 C570 0.948 . S
C547 C543 1.397 . S
C547 C548 1.394 . S
C547 C566 1.723 . S
C548 C545 1.396 . S
C548 C547 1.394 . S
C548 C578 1.723 . S
H549 C572 0.947 . S
H550 C573 0.948 . S
H551 C579 0.982 . S
H552 C580 0.979 . S
H553 C580 0.980 . S
H554 C580 0.983 . S
H555 C579 0.979 . S
H556 C579 0.977 . S
C557 C545 1.453 . S
C557 H586 0.982 . S
C557 H587 0.979 . S
C557 H588 0.977 . S
C558 C545 1.684 . S
C558 H583 0.979 . S
C558 H584 0.980 . S
C558 H585 0.983 . S
C559 C560 1.391 . S
C559 C564 1.391 . S
C559 H589 0.948 . S
C560 C559 1.391 . S
C560 C561 1.391 . S
C561 C560 1.391 . S
C561 C562 1.392 . S
C561 H590 0.947 . S
C562 C561 1.392 . S
C562 C563 1.419 . S
C562 H591 0.948 . S
C563 C562 1.419 . S
C563 C564 1.391 . S
C563 C567 1.397 . S
C564 C559 1.391 . S
C564 C563 1.391 . S
C564 C565 1.399 . S
C565 C564 1.399 . S
C565 C566 1.396 . S
C565 C568 1.453 . S
C565 C569 1.684 . S
C566 C547 1.723 . S
C566 C565 1.396 . S
C566 C567 1.394 . S
C567 C563 1.397 . S
C567 C566 1.394 . S
C567 C577 1.723 . S
C568 C565 1.453 . S
C568 H592 0.982 . S
C568 H593 0.979 . S
C568 H594 0.977 . S
C569 C565 1.684 . S
C569 H595 0.979 . S
C569 H596 0.980 . S
C569 H597 0.983 . S
C570 H546 0.948 . S
C570 C571 1.391 . S
C570 C575 1.391 . S
C571 C570 1.391 . S
C571 C572 1.391 . S
C572 H549 0.947 . S
C572 C571 1.391 . S
C572 C573 1.392 . S
C573 H550 0.948 . S
C573 C572 1.392 . S
C573 C574 1.419 . S
C574 C573 1.419 . S
C574 C575 1.391 . S
C574 C578 1.397 . S
C575 C570 1.391 . S
C575 C574 1.391 . S
C575 C576 1.399 . S
C576 C575 1.399 . S
C576 C577 1.396 . S
C576 C579 1.453 . S
C576 C580 1.684 . S
C577 C567 1.723 . S
C577 C576 1.396 . S
C577 C578 1.394 . S
C578 C548 1.723 . S
C578 C574 1.397 . S
C578 C577 1.394 . S
C579 H551 0.982 . S
C579 H555 0.979 . S
C579 H556 0.977 . S
C579 C576 1.453 . S
C580 H552 0.979 . S
C580 H553 0.980 . S
C580 H554 0.983 . S
C580 C576 1.684 . S
H581 C599 0.948 . S
H582 C540 0.948 . S
H583 C558 0.979 . S
H584 C558 0.980 . S
H585 C558 0.983 . S
H586 C557 0.982 . S
H587 C557 0.979 . S
H588 C557 0.977 . S
H589 C559 0.948 . S
H590 C561 0.947 . S
H591 C562 0.948 . S
H592 C568 0.982 . S
H593 C568 0.979 . S
H594 C568 0.977 . S
H595 C569 0.979 . S
H596 C569 0.980 . S
H597 C569 0.983 . S
H598 C542 0.947 . S
C599 C542 1.392 . S
C599 C543 1.419 . S
C599 H581 0.948 . S
C600 C601 1.391 . S
C600 C604 1.391 . S
C600 H642 0.948 . S
C601 C600 1.391 . S
C601 C602 1.391 . S
C602 C601 1.391 . S
C602 H658 0.947 . S
C602 C659 1.392 . S
C603 C604 1.391 . S
C603 C607 1.397 . S
C603 C659 1.419 . S
C604 C600 1.391 . S
C604 C603 1.391 . S
C604 C605 1.399 . S
C605 C604 1.399 . S
C605 C608 1.396 . S
C605 C617 1.453 . S
C605 C618 1.684 . S
H606 C630 0.948 . S
C607 C603 1.397 . S
C607 C608 1.394 . S
C607 C626 1.723 . S
C608 C605 1.396 . S
C608 C607 1.394 . S
C608 C638 1.723 . S
H609 C632 0.947 . S
H610 C633 0.948 . S
H611 C639 0.982 . S
H612 C640 0.979 . S
H613 C640 0.980 . S
H614 C640 0.983 . S
H615 C639 0.979 . S
H616 C639 0.977 . S
C617 C605 1.453 . S
C617 H646 0.982 . S
C617 H647 0.979 . S
C617 H648 0.977 . S
C618 C605 1.684 . S
C618 H643 0.979 . S
C618 H644 0.980 . S
C618 H645 0.983 . S
C619 C620 1.391 . S
C619 C624 1.391 . S
C619 H649 0.948 . S
C620 C619 1.391 . S
C620 C621 1.391 . S
C621 C620 1.391 . S
C621 C622 1.392 . S
C621 H650 0.947 . S
C622 C621 1.392 . S
C622 C623 1.419 . S
C622 H651 0.948 . S
C623 C622 1.419 . S
C623 C624 1.391 . S
C623 C627 1.397 . S
C624 C619 1.391 . S
C624 C623 1.391 . S
C624 C625 1.399 . S
C625 C624 1.399 . S
C625 C626 1.396 . S
C625 C628 1.453 . S
C625 C629 1.684 . S
C626 C607 1.723 . S
C626 C625 1.396 . S
C626 C627 1.394 . S
C627 C623 1.397 . S
C627 C626 1.394 . S
C627 C637 1.723 . S
C628 C625 1.453 . S
C628 H652 0.982 . S
C628 H653 0.979 . S
C628 H654 0.977 . S
C629 C625 1.684 . S
C629 H655 0.979 . S
C629 H656 0.980 . S
C629 H657 0.983 . S
C630 H606 0.948 . S
C630 C631 1.391 . S
C630 C635 1.391 . S
C631 C630 1.391 . S
C631 C632 1.391 . S
C632 H609 0.947 . S
C632 C631 1.391 . S
C632 C633 1.392 . S
C633 H610 0.948 . S
C633 C632 1.392 . S
C633 C634 1.419 . S
C634 C633 1.419 . S
C634 C635 1.391 . S
C634 C638 1.397 . S
C635 C630 1.391 . S
C635 C634 1.391 . S
C635 C636 1.399 . S
C636 C635 1.399 . S
C636 C637 1.396 . S
C636 C639 1.453 . S
C636 C640 1.684 . S
C637 C627 1.723 . S
C637 C636 1.396 . S
C637 C638 1.394 . S
C638 C608 1.723 . S
C638 C634 1.397 . S
C638 C637 1.394 . S
C639 H611 0.982 . S
C639 H615 0.979 . S
C639 H616 0.977 . S
C639 C636 1.453 . S
C640 H612 0.979 . S
C640 H613 0.980 . S
C640 H614 0.983 . S
C640 C636 1.684 . S
H641 C659 0.948 . S
H642 C600 0.948 . S
H643 C618 0.979 . S
H644 C618 0.980 . S
H645 C618 0.983 . S
H646 C617 0.982 . S
H647 C617 0.979 . S
H648 C617 0.977 . S
H649 C619 0.948 . S
H650 C621 0.947 . S
H651 C622 0.948 . S
H652 C628 0.982 . S
H653 C628 0.979 . S
H654 C628 0.977 . S
H655 C629 0.979 . S
H656 C629 0.980 . S
H657 C629 0.983 . S
H658 C602 0.947 . S
C659 C602 1.392 . S
C659 C603 1.419 . S
C659 H641 0.948 . S
C660 C661 1.391 . S
C660 C664 1.391 . S
C660 H702 0.948 . S
C661 C660 1.391 . S
C661 C662 1.391 . S
C662 C661 1.391 . S
C662 H718 0.947 . S
C662 C719 1.392 . S
C663 C664 1.391 . S
C663 C667 1.397 . S
C663 C719 1.419 . S
C664 C660 1.391 . S
C664 C663 1.391 . S
C664 C665 1.399 . S
C665 C664 1.399 . S
C665 C668 1.396 . S
C665 C677 1.453 . S
C665 C678 1.684 . S
H666 C690 0.948 . S
C667 C663 1.397 . S
C667 C668 1.394 . S
C667 C686 1.723 . S
C668 C665 1.396 . S
C668 C667 1.394 . S
C668 C698 1.723 . S
H669 C692 0.947 . S
H670 C693 0.948 . S
H671 C699 0.982 . S
H672 C700 0.979 . S
H673 C700 0.980 . S
H674 C700 0.983 . S
H675 C699 0.979 . S
H676 C699 0.977 . S
C677 C665 1.453 . S
C677 H706 0.982 . S
C677 H707 0.979 . S
C677 H708 0.977 . S
C678 C665 1.684 . S
C678 H703 0.979 . S
C678 H704 0.980 . S
C678 H705 0.983 . S
C679 C680 1.391 . S
C679 C684 1.391 . S
C679 H709 0.948 . S
C680 C679 1.391 . S
C680 C681 1.391 . S
C681 C680 1.391 . S
C681 C682 1.392 . S
C681 H710 0.947 . S
C682 C681 1.392 . S
C682 C683 1.419 . S
C682 H711 0.948 . S
C683 C682 1.419 . S
C683 C684 1.391 . S
C683 C687 1.397 . S
C684 C679 1.391 . S
C684 C683 1.391 . S
C684 C685 1.399 . S
C685 C684 1.399 . S
C685 C686 1.396 . S
C685 C688 1.453 . S
C685 C689 1.684 . S
C686 C667 1.723 . S
C686 C685 1.396 . S
C686 C687 1.394 . S
C687 C683 1.397 . S
C687 C686 1.394 . S
C687 C697 1.723 . S
C688 C685 1.453 . S
C688 H712 0.982 . S
C688 H713 0.979 . S
C688 H714 0.977 . S
C689 C685 1.684 . S
C689 H715 0.979 . S
C689 H716 0.980 . S
C689 H717 0.983 . S
C690 H666 0.948 . S
C690 C691 1.391 . S
C690 C695 1.391 . S
C691 C690 1.391 . S
C691 C692 1.391 . S
C692 H669 0.947 . S
C692 C691 1.391 . S
C692 C693 1.392 . S
C693 H670 0.948 . S
C693 C692 1.392 . S
C693 C694 1.419 . S
C694 C693 1.419 . S
C694 C695 1.391 . S
C694 C698 1.397 . S
C695 C690 1.391 . S
C695 C694 1.391 . S
C695 C696 1.399 . S
C696 C695 1.399 . S
C696 C697 1.396 . S
C696 C699 1.453 . S
C696 C700 1.684 . S
C697 C687 1.723 . S
C697 C696 1.396 . S
C697 C698 1.394 . S
C698 C668 1.723 . S
C698 C694 1.397 . S
C698 C697 1.394 . S
C699 H671 0.982 . S
C699 H675 0.979 . S
C699 H676 0.977 . S
C699 C696 1.453 . S
C700 H672 0.979 . S
C700 H673 0.980 . S
C700 H674 0.983 . S
C700 C696 1.684 . S
H701 C719 0.948 . S
H702 C660 0.948 . S
H703 C678 0.979 . S
H704 C678 0.980 . S
H705 C678 0.983 . S
H706 C677 0.982 . S
H707 C677 0.979 . S
H708 C677 0.977 . S
H709 C679 0.948 . S
H710 C681 0.947 . S
H711 C682 0.948 . S
H712 C688 0.982 . S
H713 C688 0.979 . S
H714 C688 0.977 . S
H715 C689 0.979 . S
H716 C689 0.980 . S
H717 C689 0.983 . S
H718 C662 0.947 . S
C719 C662 1.392 . S
C719 C663 1.419 . S
C719 H701 0.948 . S
C720 C721 1.391 . S
C720 C724 1.391 . S
C720 H762 0.948 . S
C721 C720 1.391 . S
C721 C722 1.391 . S
C722 C721 1.391 . S
C722 H778 0.947 . S
C722 C779 1.392 . S
C723 C724 1.391 . S
C723 C727 1.397 . S
C723 C779 1.419 . S
C724 C720 1.391 . S
C724 C723 1.391 . S
C724 C725 1.399 . S
C725 C724 1.399 . S
C725 C728 1.396 . S
C725 C737 1.453 . S
C725 C738 1.684 . S
H726 C750 0.948 . S
C727 C723 1.397 . S
C727 C728 1.394 . S
C727 C746 1.723 . S
C728 C725 1.396 . S
C728 C727 1.394 . S
C728 C758 1.723 . S
H729 C752 0.947 . S
H730 C753 0.948 . S
H731 C759 0.982 . S
H732 C760 0.979 . S
H733 C760 0.980 . S
H734 C760 0.983 . S
H735 C759 0.979 . S
H736 C759 0.977 . S
C737 C725 1.453 . S
C737 H766 0.982 . S
C737 H767 0.979 . S
C737 H768 0.977 . S
C738 C725 1.684 . S
C738 H763 0.979 . S
C738 H764 0.980 . S
C738 H765 0.983 . S
C739 C740 1.391 . S
C739 C744 1.391 . S
C739 H769 0.948 . S
C740 C739 1.391 . S
C740 C741 1.391 . S
C741 C740 1.391 . S
C741 C742 1.392 . S
C741 H770 0.947 . S
C742 C741 1.392 . S
C742 C743 1.419 . S
C742 H771 0.948 . S
C743 C742 1.419 . S
C743 C744 1.391 . S
C743 C747 1.397 . S
C744 C739 1.391 . S
C744 C743 1.391 . S
C744 C745 1.399 . S
C745 C744 1.399 . S
C745 C746 1.396 . S
C745 C748 1.453 . S
C745 C749 1.684 . S
C746 C727 1.723 . S
C746 C745 1.396 . S
C746 C747 1.394 . S
C747 C743 1.397 . S
C747 C746 1.394 . S
C747 C757 1.723 . S
C748 C745 1.453 . S
C748 H772 0.982 . S
C748 H773 0.979 . S
C748 H774 0.977 . S
C749 C745 1.684 . S
C749 H775 0.979 . S
C749 H776 0.980 . S
C749 H777 0.983 . S
C750 H726 0.948 . S
C750 C751 1.391 . S
C750 C755 1.391 . S
C751 C750 1.391 . S
C751 C752 1.391 . S
C752 H729 0.947 . S
C752 C751 1.391 . S
C752 C753 1.392 . S
C753 H730 0.948 . S
C753 C752 1.392 . S
C753 C754 1.419 . S
C754 C753 1.419 . S
C754 C755 1.391 . S
C754 C758 1.397 . S
C755 C750 1.391 . S
C755 C754 1.391 . S
C755 C756 1.399 . S
C756 C755 1.399 . S
C756 C757 1.396 . S
C756 C759 1.453 . S
C756 C760 1.684 . S
C757 C747 1.723 . S
C757 C756 1.396 . S
C757 C758 1.394 . S
C758 C728 1.723 . S
C758 C754 1.397 . S
C758 C757 1.394 . S
C759 H731 0.982 . S
C759 H735 0.979 . S
C759 H736 0.977 . S
C759 C756 1.453 . S
C760 H732 0.979 . S
C760 H733 0.980 . S
C760 H734 0.983 . S
C760 C756 1.684 . S
H761 C779 0.948 . S
H762 C720 0.948 . S
H763 C738 0.979 . S
H764 C738 0.980 . S
H765 C738 0.983 . S
H766 C737 0.982 . S
H767 C737 0.979 . S
H768 C737 0.977 . S
H769 C739 0.948 . S
H770 C741 0.947 . S
H771 C742 0.948 . S
H772 C748 0.982 . S
H773 C748 0.979 . S
H774 C748 0.977 . S
H775 C749 0.979 . S
H776 C749 0.980 . S
H777 C749 0.983 . S
H778 C722 0.947 . S
C779 C722 1.392 . S
C779 C723 1.419 . S
C779 H761 0.948 . S
C780 C781 1.391 . S
C780 C784 1.391 . S
C780 H822 0.948 . S
C781 C780 1.391 . S
C781 C782 1.391 . S
C782 C781 1.391 . S
C782 H838 0.947 . S
C782 C839 1.392 . S
C783 C784 1.391 . S
C783 C787 1.397 . S
C783 C839 1.419 . S
C784 C780 1.391 . S
C784 C783 1.391 . S
C784 C785 1.399 . S
C785 C784 1.399 . S
C785 C788 1.396 . S
C785 C797 1.453 . S
C785 C798 1.684 . S
H786 C810 0.948 . S
C787 C783 1.397 . S
C787 C788 1.394 . S
C787 C806 1.723 . S
C788 C785 1.396 . S
C788 C787 1.394 . S
C788 C818 1.723 . S
H789 C812 0.947 . S
H790 C813 0.948 . S
H791 C819 0.982 . S
H792 C820 0.979 . S
H793 C820 0.980 . S
H794 C820 0.983 . S
H795 C819 0.979 . S
H796 C819 0.977 . S
C797 C785 1.453 . S
C797 H826 0.982 . S
C797 H827 0.979 . S
C797 H828 0.977 . S
C798 C785 1.684 . S
C798 H823 0.979 . S
C798 H824 0.980 . S
C798 H825 0.983 . S
C799 C800 1.391 . S
C799 C804 1.391 . S
C799 H829 0.948 . S
C800 C799 1.391 . S
C800 C801 1.391 . S
C801 C800 1.391 . S
C801 C802 1.392 . S
C801 H830 0.947 . S
C802 C801 1.392 . S
C802 C803 1.419 . S
C802 H831 0.948 . S
C803 C802 1.419 . S
C803 C804 1.391 . S
C803 C807 1.397 . S
C804 C799 1.391 . S
C804 C803 1.391 . S
C804 C805 1.399 . S
C805 C804 1.399 . S
C805 C806 1.396 . S
C805 C808 1.453 . S
C805 C809 1.684 . S
C806 C787 1.723 . S
C806 C805 1.396 . S
C806 C807 1.394 . S
C807 C803 1.397 . S
C807 C806 1.394 . S
C807 C817 1.723 . S
C808 C805 1.453 . S
C808 H832 0.982 . S
C808 H833 0.979 . S
C808 H834 0.977 . S
C809 C805 1.684 . S
C809 H835 0.979 . S
C809 H836 0.980 . S
C809 H837 0.983 . S
C810 H786 0.948 . S
C810 C811 1.391 . S
C810 C815 1.391 . S
C811 C810 1.391 . S
C811 C812 1.391 . S
C812 H789 0.947 . S
C812 C811 1.391 . S
C812 C813 1.392 . S
C813 H790 0.948 . S
C813 C812 1.392 . S
C813 C814 1.419 . S
C814 C813 1.419 . S
C814 C815 1.391 . S
C814 C818 1.397 . S
C815 C810 1.391 . S
C815 C814 1.391 . S
C815 C816 1.399 . S
C816 C815 1.399 . S
C816 C817 1.396 . S
C816 C819 1.453 . S
C816 C820 1.684 . S
C817 C807 1.723 . S
C817 C816 1.396 . S
C817 C818 1.394 . S
C818 C788 1.723 . S
C818 C814 1.397 . S
C818 C817 1.394 . S
C819 H791 0.982 . S
C819 H795 0.979 . S
C819 H796 0.977 . S
C819 C816 1.453 . S
C820 H792 0.979 . S
C820 H793 0.980 . S
C820 H794 0.983 . S
C820 C816 1.684 . S
H821 C839 0.948 . S
H822 C780 0.948 . S
H823 C798 0.979 . S
H824 C798 0.980 . S
H825 C798 0.983 . S
H826 C797 0.982 . S
H827 C797 0.979 . S
H828 C797 0.977 . S
H829 C799 0.948 . S
H830 C801 0.947 . S
H831 C802 0.948 . S
H832 C808 0.982 . S
H833 C808 0.979 . S
H834 C808 0.977 . S
H835 C809 0.979 . S
H836 C809 0.980 . S
H837 C809 0.983 . S
H838 C782 0.947 . S
C839 C782 1.392 . S
C839 C783 1.419 . S
C839 H821 0.948 . S
C840 C841 1.391 . S
C840 C844 1.391 . S
C840 H882 0.948 . S
C841 C840 1.391 . S
C841 C842 1.391 . S
C842 C841 1.391 . S
C842 H898 0.947 . S
C842 C899 1.392 . S
C843 C844 1.391 . S
C843 C847 1.397 . S
C843 C899 1.419 . S
C844 C840 1.391 . S
C844 C843 1.391 . S
C844 C845 1.399 . S
C845 C844 1.399 . S
C845 C848 1.396 . S
C845 C857 1.453 . S
C845 C858 1.684 . S
H846 C870 0.948 . S
C847 C843 1.397 . S
C847 C848 1.394 . S
C847 C866 1.723 . S
C848 C845 1.396 . S
C848 C847 1.394 . S
C848 C878 1.723 . S
H849 C872 0.947 . S
H850 C873 0.948 . S
H851 C879 0.982 . S
H852 C880 0.979 . S
H853 C880 0.980 . S
H854 C880 0.983 . S
H855 C879 0.979 . S
H856 C879 0.977 . S
C857 C845 1.453 . S
C857 H886 0.982 . S
C857 H887 0.979 . S
C857 H888 0.977 . S
C858 C845 1.684 . S
C858 H883 0.979 . S
C858 H884 0.980 . S
C858 H885 0.983 . S
C859 C860 1.391 . S
C859 C864 1.391 . S
C859 H889 0.948 . S
C860 C859 1.391 . S
C860 C861 1.391 . S
C861 C860 1.391 . S
C861 C862 1.392 . S
C861 H890 0.947 . S
C862 C861 1.392 . S
C862 C863 1.419 . S
C862 H891 0.948 . S
C863 C862 1.419 . S
C863 C864 1.391 . S
C863 C867 1.397 . S
C864 C859 1.391 . S
C864 C863 1.391 . S
C864 C865 1.399 . S
C865 C864 1.399 . S
C865 C866 1.396 . S
C865 C868 1.453 . S
C865 C869 1.684 . S
C866 C847 1.723 . S
C866 C865 1.396 . S
C866 C867 1.394 . S
C867 C863 1.397 . S
C867 C866 1.394 . S
C867 C877 1.723 . S
C868 C865 1.453 . S
C868 H892 0.982 . S
C868 H893 0.979 . S
C868 H894 0.977 . S
C869 C865 1.684 . S
C869 H895 0.979 . S
C869 H896 0.980 . S
C869 H897 0.983 . S
C870 H846 0.948 . S
C870 C871 1.391 . S
C870 C875 1.391 . S
C871 C870 1.391 . S
C871 C872 1.391 . S
C872 H849 0.947 . S
C872 C871 1.391 . S
C872 C873 1.392 . S
C873 H850 0.948 . S
C873 C872 1.392 . S
C873 C874 1.419 . S
C874 C873 1.419 . S
C874 C875 1.391 . S
C874 C878 1.397 . S
C875 C870 1.391 . S
C875 C874 1.391 . S
C875 C876 1.399 . S
C876 C875 1.399 . S
C876 C877 1.396 . S
C876 C879 1.453 . S
C876 C880 1.684 . S
C877 C867 1.723 . S
C877 C876 1.396 . S
C877 C878 1.394 . S
C878 C848 1.723 . S
C878 C874 1.397 . S
C878 C877 1.394 . S
C879 H851 0.982 . S
C879 H855 0.979 . S
C879 H856 0.977 . S
C879 C876 1.453 . S
C880 H852 0.979 . S
C880 H853 0.980 . S
C880 H854 0.983 . S
C880 C876 1.684 . S
H881 C899 0.948 . S
H882 C840 0.948 . S
H883 C858 0.979 . S
H884 C858 0.980 . S
H885 C858 0.983 . S
H886 C857 0.982 . S
H887 C857 0.979 . S
H888 C857 0.977 . S
H889 C859 0.948 . S
H890 C861 0.947 . S
H891 C862 0.948 . S
H892 C868 0.982 . S
H893 C868 0.979 . S
H894 C868 0.977 . S
H895 C869 0.979 . S
H896 C869 0.980 . S
H897 C869 0.983 . S
H898 C842 0.947 . S
C899 C842 1.392 . S
C899 C843 1.419 . S
C899 H881 0.948 . S
C900 C901 1.391 . S
C900 C904 1.391 . S
C900 H942 0.948 . S
C901 C900 1.391 . S
C901 C902 1.391 . S
C902 C901 1.391 . S
C902 H958 0.947 . S
C902 C959 1.392 . S
C903 C904 1.391 . S
C903 C907 1.397 . S
C903 C959 1.419 . S
C904 C900 1.391 . S
C904 C903 1.391 . S
C904 C905 1.399 . S
C905 C904 1.399 . S
C905 C908 1.396 . S
C905 C917 1.453 . S
C905 C918 1.684 . S
H906 C930 0.948 . S
C907 C903 1.397 . S
C907 C908 1.394 . S
C907 C926 1.723 . S
C908 C905 1.396 . S
C908 C907 1.394 . S
C908 C938 1.723 . S
H909 C932 0.947 . S
H910 C933 0.948 . S
H911 C939 0.982 . S
H912 C940 0.979 . S
H913 C940 0.980 . S
H914 C940 0.983 . S
H915 C939 0.979 . S
H916 C939 0.977 . S
C917 C905 1.453 . S
C917 H946 0.982 . S
C917 H947 0.979 . S
C917 H948 0.977 . S
C918 C905 1.684 . S
C918 H943 0.979 . S
C918 H944 0.980 . S
C918 H945 0.983 . S
C919 C920 1.391 . S
C919 C924 1.391 . S
C919 H949 0.948 . S
C920 C919 1.391 . S
C920 C921 1.391 . S
C921 C920 1.391 . S
C921 C922 1.392 . S
C921 H950 0.947 . S
C922 C921 1.392 . S
C922 C923 1.419 . S
C922 H951 0.948 . S
C923 C922 1.419 . S
C923 C924 1.391 . S
C923 C927 1.397 . S
C924 C919 1.391 . S
C924 C923 1.391 . S
C924 C925 1.399 . S
C925 C924 1.399 . S
C925 C926 1.396 . S
C925 C928 1.453 . S
C925 C929 1.684 . S
C926 C907 1.723 . S
C926 C925 1.396 . S
C926 C927 1.394 . S
C927 C923 1.397 . S
C927 C926 1.394 . S
C927 C937 1.723 . S
C928 C925 1.453 . S
C928 H952 0.982 . S
C928 H953 0.979 . S
C928 H954 0.977 . S
C929 C925 1.684 . S
C929 H955 0.979 . S
C929 H956 0.980 . S
C929 H957 0.983 . S
C930 H906 0.948 . S
C930 C931 1.391 . S
C930 C935 1.391 . S
C931 C930 1.391 . S
C931 C932 1.391 . S
C932 H909 0.947 . S
C932 C931 1.391 . S
C932 C933 1.392 . S
C933 H910 0.948 . S
C933 C932 1.392 . S
C933 C934 1.419 . S
C934 C933 1.419 . S
C934 C935 1.391 . S
C934 C938 1.397 . S
C935 C930 1.391 . S
C935 C934 1.391 . S
C935 C936 1.399 . S
C936 C935 1.399 . S
C936 C937 1.396 . S
C936 C939 1.453 . S
C936 C940 1.684 . S
C937 C927 1.723 . S
C937 C936 1.396 . S
C937 C938 1.394 . S
C938 C908 1.723 . S
C938 C934 1.397 . S
C938 C937 1.394 . S
C939 H911 0.982 . S
C939 H915 0.979 . S
C939 H916 0.977 . S
C939 C936 1.453 . S
C940 H912 0.979 . S
C940 H913 0.980 . S
C940 H914 0.983 . S
C940 C936 1.684 . S
H941 C959 0.948 . S
H942 C900 0.948 . S
H943 C918 0.979 . S
H944 C918 0.980 . S
H945 C918 0.983 . S
H946 C917 0.982 . S
H947 C917 0.979 . S
H948 C917 0.977 . S
H949 C919 0.948 . S
H950 C921 0.947 . S
H951 C922 0.948 . S
H952 C928 0.982 . S
H953 C928 0.979 . S
H954 C928 0.977 . S
H955 C929 0.979 . S
H956 C929 0.980 . S
H957 C929 0.983 . S
H958 C902 0.947 . S
C959 C902 1.392 . S
C959 C903 1.419 . S
C959 H941 0.948 . S
C960 C961 1.391 . S
C960 C964 1.391 . S
C960 H1002 0.948 . S
C961 C960 1.391 . S
C961 C962 1.391 . S
C962 C961 1.391 . S
C962 H1018 0.947 . S
C962 C1019 1.392 . S
C963 C964 1.391 . S
C963 C967 1.397 . S
C963 C1019 1.419 . S
C964 C960 1.391 . S
C964 C963 1.391 . S
C964 C965 1.399 . S
C965 C964 1.399 . S
C965 C968 1.396 . S
C965 C977 1.453 . S
C965 C978 1.684 . S
H966 C990 0.948 . S
C967 C963 1.397 . S
C967 C968 1.394 . S
C967 C986 1.723 . S
C968 C965 1.396 . S
C968 C967 1.394 . S
C968 C998 1.723 . S
H969 C992 0.947 . S
H970 C993 0.948 . S
H971 C999 0.982 . S
H972 C1000 0.979 . S
H973 C1000 0.980 . S
H974 C1000 0.983 . S
H975 C999 0.979 . S
H976 C999 0.977 . S
C977 C965 1.453 . S
C977 H1006 0.982 . S
C977 H1007 0.979 . S
C977 H1008 0.977 . S
C978 C965 1.684 . S
C978 H1003 0.979 . S
C978 H1004 0.980 . S
C978 H1005 0.983 . S
C979 C980 1.391 . S
C979 C984 1.391 . S
C979 H1009 0.948 . S
C980 C979 1.391 . S
C980 C981 1.391 . S
C981 C980 1.391 . S
C981 C982 1.392 . S
C981 H1010 0.947 . S
C982 C981 1.392 . S
C982 C983 1.419 . S
C982 H1011 0.948 . S
C983 C982 1.419 . S
C983 C984 1.391 . S
C983 C987 1.397 . S
C984 C979 1.391 . S
C984 C983 1.391 . S
C984 C985 1.399 . S
C985 C984 1.399 . S
C985 C986 1.396 . S
C985 C988 1.453 . S
C985 C989 1.684 . S
C986 C967 1.723 . S
C986 C985 1.396 . S
C986 C987 1.394 . S
C987 C983 1.397 . S
C987 C986 1.394 . S
C987 C997 1.723 . S
C988 C985 1.453 . S
C988 H1012 0.982 . S
C988 H1013 0.979 . S
C988 H1014 0.977 . S
C989 C985 1.684 . S
C989 H1015 0.979 . S
C989 H1016 0.980 . S
C989 H1017 0.983 . S
C990 H966 0.948 . S
C990 C991 1.391 . S
C990 C995 1.391 . S
C991 C990 1.391 . S
C991 C992 1.391 . S
C992 H969 0.947 . S
C992 C991 1.391 . S
C992 C993 1.392 . S
C993 H970 0.948 . S
C993 C992 1.392 . S
C993 C994 1.419 . S
C994 C993 1.419 . S
C994 C995 1.391 . S
C994 C998 1.397 . S
C995 C990 1.391 . S
C995 C994 1.391 . S
C995 C996 1.399 . S
C996 C995 1.399 . S
C996 C997 1.396 . S
C996 C999 1.453 . S
C996 C1000 1.684 . S
C997 C987 1.723 . S
C997 C996 1.396 . S
C997 C998 1.394 . S
C998 C968 1.723 . S
C998 C994 1.397 . S
C998 C997 1.394 . S
C999 H971 0.982 . S
C999 H975 0.979 . S
C999 H976 0.977 . S
C999 C996 1.453 . S
C1000 H972 0.979 . S
C1000 H973 0.980 . S
C1000 H974 0.983 . S
C1000 C996 1.684 . S
H1001 C1019 0.948 . S
H1002 C960 0.948 . S
H1003 C978 0.979 . S
H1004 C978 0.980 . S
H1005 C978 0.983 . S
H1006 C977 0.982 . S
H1007 C977 0.979 . S
H1008 C977 0.977 . S
H1009 C979 0.948 . S
H1010 C981 0.947 . S
H1011 C982 0.948 . S
H1012 C988 0.982 . S
H1013 C988 0.979 . S
H1014 C988 0.977 . S
H1015 C989 0.979 . S
H1016 C989 0.980 . S
H1017 C989 0.983 . S
H1018 C962 0.947 . S
C1019 C962 1.392 . S
C1019 C963 1.419 . S
C1019 H1001 0.948 . S
C1020 C1021 1.391 . S
C1020 C1024 1.391 . S
C1020 H1062 0.948 . S
C1021 C1020 1.391 . S
C1021 C1022 1.391 . S
C1022 C1021 1.391 . S
C1022 H1078 0.947 . S
C1022 C1079 1.392 . S
C1023 C1024 1.391 . S
C1023 C1027 1.397 . S
C1023 C1079 1.419 . S
C1024 C1020 1.391 . S
C1024 C1023 1.391 . S
C1024 C1025 1.399 . S
C1025 C1024 1.399 . S
C1025 C1028 1.396 . S
C1025 C1037 1.453 . S
C1025 C1038 1.684 . S
H1026 C1050 0.948 . S
C1027 C1023 1.397 . S
C1027 C1028 1.394 . S
C1027 C1046 1.723 . S
C1028 C1025 1.396 . S
C1028 C1027 1.394 . S
C1028 C1058 1.723 . S
H1029 C1052 0.947 . S
H1030 C1053 0.948 . S
H1031 C1059 0.982 . S
H1032 C1060 0.979 . S
H1033 C1060 0.980 . S
H1034 C1060 0.983 . S
H1035 C1059 0.979 . S
H1036 C1059 0.977 . S
C1037 C1025 1.453 . S
C1037 H1066 0.982 . S
C1037 H1067 0.979 . S
C1037 H1068 0.977 . S
C1038 C1025 1.684 . S
C1038 H1063 0.979 . S
C1038 H1064 0.980 . S
C1038 H1065 0.983 . S
C1039 C1040 1.391 . S
C1039 C1044 1.391 . S
C1039 H1069 0.948 . S
C1040 C1039 1.391 . S
C1040 C1041 1.391 . S
C1041 C1040 1.391 . S
C1041 C1042 1.392 . S
C1041 H1070 0.947 . S
C1042 C1041 1.392 . S
C1042 C1043 1.419 . S
C1042 H1071 0.948 . S
C1043 C1042 1.419 . S
C1043 C1044 1.391 . S
C1043 C1047 1.397 . S
C1044 C1039 1.391 . S
C1044 C1043 1.391 . S
C1044 C1045 1.399 . S
C1045 C1044 1.399 . S
C1045 C1046 1.396 . S
C1045 C1048 1.453 . S
C1045 C1049 1.684 . S
C1046 C1027 1.723 . S
C1046 C1045 1.396 . S
C1046 C1047 1.394 . S
C1047 C1043 1.397 . S
C1047 C1046 1.394 . S
C1047 C1057 1.723 . S
C1048 C1045 1.453 . S
C1048 H1072 0.982 . S
C1048 H1073 0.979 . S
C1048 H1074 0.977 . S
C1049 C1045 1.684 . S
C1049 H1075 0.979 . S
C1049 H1076 0.980 . S
C1049 H1077 0.983 . S
C1050 H1026 0.948 . S
C1050 C1051 1.391 . S
C1050 C1055 1.391 . S
C1051 C1050 1.391 . S
C1051 C1052 1.391 . S
C1052 H1029 0.947 . S
C1052 C1051 1.391 . S
C1052 C1053 1.392 . S
C1053 H1030 0.948 . S
C1053 C1052 1.392 . S
C1053 C1054 1.419 . S
C1054 C1053 1.419 . S
C1054 C1055 1.391 . S
C1054 C1058 1.397 . S
C1055 C1050 1.391 . S
C1055 C1054 1.391 . S
C1055 C1056 1.399 . S
C1056 C1055 1.399 . S
C1056 C1057 1.396 . S
C1056 C1059 1.453 . S
C1056 C1060 1.684 . S
C1057 C1047 1.723 . S
C1057 C1056 1.396 . S
C1057 C1058 1.394 . S
C1058 C1028 1.723 . S
C1058 C1054 1.397 . S
C1058 C1057 1.394 . S
C1059 H1031 0.982 . S
C1059 H1035 0.979 . S
C1059 H1036 0.977 . S
C1059 C1056 1.453 . S
C1060 H1032 0.979 . S
C1060 H1033 0.980 . S
C1060 H1034 0.983 . S
C1060 C1056 1.684 . S
H1061 C1079 0.948 . S
H1062 C1020 0.948 . S
H1063 C1038 0.979 . S
H1064 C1038 0.980 . S
H1065 C1038 0.983 . S
H1066 C1037 0.982 . S
H1067 C1037 0.979 . S
H1068 C1037 0.977 . S
H1069 C1039 0.948 . S
H1070 C1041 0.947 . S
H1071 C1042 0.948 . S
H1072 C1048 0.982 . S
H1073 C1048 0.979 . S
H1074 C1048 0.977 . S
H1075 C1049 0.979 . S
H1076 C1049 0.980 . S
H1077 C1049 0.983 . S
H1078 C1022 0.947 . S
C1079 C1022 1.392 . S
C1079 C1023 1.419 . S
C1079 H1061 0.948 . S
Gd1080 N1111 2.661 . S
Gd1080 N1117 2.601 . S
Gd1080 O1124 2.545 . S
Gd1080 O1125 2.606 1_545 S
Gd1080 O1127 2.429 . S
Gd1080 O1128 2.545 1_545 S
Gd1080 O1129 2.412 . S
Gd1080 O1131 2.362 1_554 S
Gd1080 O1132 2.324 1_545 S
Gd1080 C1139 2.828 . S
Gd1081 N1090 2.661 . S
Gd1081 N1094 2.601 . S
Gd1081 O1125 2.362 1_556 S
Gd1081 O1126 2.324 1_565 S
Gd1081 O1130 2.545 . S
Gd1081 O1131 2.606 1_565 S
Gd1081 O1133 2.429 . S
Gd1081 O1134 2.545 1_565 S
Gd1081 O1135 2.412 . S
Gd1081 C1148 2.828 . S
C1082 C1085 1.417 . S
C1082 C1087 1.431 . S
C1082 C1088 1.412 . S
C1083 C1086 1.437 . S
C1083 C1087 1.317 . S
C1083 H1102 0.929 . S
C1084 C1085 1.426 . S
C1084 C1086 1.413 . S
C1084 N1094 1.359 . S
C1085 C1082 1.417 . S
C1085 C1084 1.426 . S
C1085 N1090 1.350 . S
C1086 C1083 1.437 . S
C1086 C1084 1.413 . S
C1086 C1096 1.391 . S
C1087 C1082 1.431 . S
C1087 C1083 1.317 . S
C1087 H1098 0.930 . S
C1088 C1082 1.412 . S
C1088 C1089 1.355 . S
C1088 H1100 0.930 . S
C1089 C1088 1.355 . S
C1089 C1091 1.402 . S
C1089 H1101 0.930 . S
N1090 Gd1081 2.661 . S
N1090 C1085 1.350 . S
N1090 C1091 1.307 . S
C1091 C1089 1.402 . S
C1091 N1090 1.307 . S
C1091 H1092 0.930 . S
H1092 C1091 0.930 . S
C1093 N1094 1.334 . S
C1093 C1095 1.394 . S
C1093 H1097 0.930 . S
N1094 Gd1081 2.601 . S
N1094 C1084 1.359 . S
N1094 C1093 1.334 . S
C1095 C1093 1.394 . S
C1095 C1096 1.359 . S
C1095 H1107 0.930 . S
C1096 C1086 1.391 . S
C1096 C1095 1.359 . S
C1096 H1108 0.929 . S
H1097 C1093 0.930 . S
H1098 C1087 0.930 . S
H1099 C1116 0.930 . S
H1100 C1088 0.930 . S
H1101 C1089 0.930 . S
H1102 C1083 0.929 . S
H1103 C1121 0.930 . S
H1104 C1112 0.930 . S
H1105 C1113 0.930 . S
H1106 C1137 0.929 . S
H1107 C1095 0.930 . S
H1108 C1096 0.929 . S
H1109 C1138 0.930 . S
H1110 C1119 0.930 . S
N1111 Gd1080 2.661 . S
N1111 C1115 1.350 . S
N1111 C1116 1.307 . S
C1112 H1104 0.930 . S
C1112 C1113 1.355 . S
C1112 C1114 1.412 . S
C1113 H1105 0.930 . S
C1113 C1112 1.355 . S
C1113 C1116 1.402 . S
C1114 C1112 1.412 . S
C1114 C1115 1.417 . S
C1114 C1138 1.431 . S
C1115 N1111 1.350 . S
C1115 C1114 1.417 . S
C1115 C1118 1.426 . S
C1116 H1099 0.930 . S
C1116 N1111 1.307 . S
C1116 C1113 1.402 . S
N1117 Gd1080 2.601 . S
N1117 C1118 1.359 . S
N1117 C1121 1.334 . S
C1118 C1115 1.426 . S
C1118 N1117 1.359 . S
C1118 C1122 1.413 . S
C1119 H1110 0.930 . S
C1119 C1120 1.359 . S
C1119 C1121 1.394 . S
C1120 C1119 1.359 . S
C1120 C1122 1.391 . S
C1120 H1123 0.929 . S
C1121 H1103 0.930 . S
C1121 N1117 1.334 . S
C1121 C1119 1.394 . S
C1122 C1118 1.413 . S
C1122 C1120 1.391 . S
C1122 C1137 1.437 . S
H1123 C1120 0.929 . S
O1124 Gd1080 2.545 . S
O1124 C1139 1.258 . S
O1125 Gd1080 2.606 1_565 S
O1125 Gd1081 2.362 1_554 S
O1125 C1136 1.284 . S
O1126 Gd1081 2.324 1_545 S
O1126 C1146 1.254 . S
O1127 Gd1080 2.429 . S
O1127 C1146 1.268 1_554 S
O1128 Gd1080 2.545 1_565 S
O1128 C1136 1.250 . S
O1129 Gd1080 2.412 . S
O1129 C1139 1.252 . S
O1130 Gd1081 2.545 . S
O1130 C1148 1.258 . S
O1131 Gd1080 2.362 1_556 S
O1131 Gd1081 2.606 1_545 S
O1131 C1147 1.284 . S
O1132 Gd1080 2.324 1_565 S
O1132 C1155 1.254 . S
O1133 Gd1081 2.429 . S
O1133 C1155 1.268 1_556 S
O1134 Gd1081 2.545 1_545 S
O1134 C1147 1.250 . S
O1135 Gd1081 2.412 . S
O1135 C1148 1.252 . S
C1136 O1125 1.284 . S
C1136 O1128 1.250 . S
C1137 H1106 0.929 . S
C1137 C1122 1.437 . S
C1137 C1138 1.317 . S
C1138 H1109 0.930 . S
C1138 C1114 1.431 . S
C1138 C1137 1.317 . S
C1139 Gd1080 2.828 . S
C1139 O1124 1.258 . S
C1139 O1129 1.252 . S
C1139 C1140 1.497 . S
C1140 C1139 1.497 . S
C1140 C1141 1.395 . S
C1140 C1142 1.380 1_545 S
C1141 C1140 1.395 . S
C1141 C1144 1.398 . S
C1141 H1156 0.930 . S
C1142 C1140 1.380 1_565 S
C1142 C1143 1.391 . S
C1142 H1157 0.930 . S
C1143 C1142 1.391 . S
C1143 C1145 1.387 1_565 S
C1144 C1141 1.398 . S
C1144 C1145 1.380 . S
C1144 H1158 0.930 . S
C1145 C1143 1.387 1_545 S
C1145 C1144 1.380 . S
C1145 H1159 0.930 . S
C1146 O1126 1.254 . S
C1146 O1127 1.268 1_556 S
C1147 O1131 1.284 . S
C1147 O1134 1.250 . S
C1148 Gd1081 2.828 . S
C1148 O1130 1.258 . S
C1148 O1135 1.252 . S
C1148 C1149 1.497 . S
C1149 C1148 1.497 . S
C1149 C1150 1.395 . S
C1149 C1151 1.380 1_565 S
C1150 C1149 1.395 . S
C1150 C1153 1.398 . S
C1150 H1160 0.930 . S
C1151 C1149 1.380 1_545 S
C1151 C1152 1.391 . S
C1151 H1161 0.930 . S
C1152 C1151 1.391 . S
C1152 C1154 1.387 1_545 S
C1153 C1150 1.398 . S
C1153 C1154 1.380 . S
C1153 H1162 0.930 . S
C1154 C1152 1.387 1_565 S
C1154 C1153 1.380 . S
C1154 H1163 0.930 . S
C1155 O1132 1.254 . S
C1155 O1133 1.268 1_554 S
H1156 C1141 0.930 . S
H1157 C1142 0.930 . S
H1158 C1144 0.930 . S
H1159 C1145 0.930 . S
H1160 C1150 0.930 . S
H1161 C1151 0.930 . S
H1162 C1153 0.930 . S
H1163 C1154 0.930 . S
Gd1164 N1195 2.661 . S
Gd1164 N1201 2.601 . S
Gd1164 O1208 2.545 . S
Gd1164 O1209 2.606 1_655 S
Gd1164 O1211 2.429 . S
Gd1164 O1212 2.545 1_655 S
Gd1164 O1213 2.412 . S
Gd1164 O1215 2.362 1_554 S
Gd1164 O1216 2.324 1_655 S
Gd1164 C1223 2.828 . S
Gd1165 N1174 2.661 . S
Gd1165 N1178 2.601 . S
Gd1165 O1209 2.362 1_556 S
Gd1165 O1210 2.324 1_455 S
Gd1165 O1214 2.545 . S
Gd1165 O1215 2.606 1_455 S
Gd1165 O1217 2.429 . S
Gd1165 O1218 2.545 1_455 S
Gd1165 O1219 2.412 . S
Gd1165 C1232 2.828 . S
C1166 C1169 1.417 . S
C1166 C1171 1.431 . S
C1166 C1172 1.412 . S
C1167 C1170 1.437 . S
C1167 C1171 1.317 . S
C1167 H1186 0.929 . S
C1168 C1169 1.426 . S
C1168 C1170 1.413 . S
C1168 N1178 1.359 . S
C1169 C1166 1.417 . S
C1169 C1168 1.426 . S
C1169 N1174 1.350 . S
C1170 C1167 1.437 . S
C1170 C1168 1.413 . S
C1170 C1180 1.391 . S
C1171 C1166 1.431 . S
C1171 C1167 1.317 . S
C1171 H1182 0.930 . S
C1172 C1166 1.412 . S
C1172 C1173 1.355 . S
C1172 H1184 0.930 . S
C1173 C1172 1.355 . S
C1173 C1175 1.402 . S
C1173 H1185 0.930 . S
N1174 Gd1165 2.661 . S
N1174 C1169 1.350 . S
N1174 C1175 1.307 . S
C1175 C1173 1.402 . S
C1175 N1174 1.307 . S
C1175 H1176 0.930 . S
H1176 C1175 0.930 . S
C1177 N1178 1.334 . S
C1177 C1179 1.394 . S
C1177 H1181 0.930 . S
N1178 Gd1165 2.601 . S
N1178 C1168 1.359 . S
N1178 C1177 1.334 . S
C1179 C1177 1.394 . S
C1179 C1180 1.359 . S
C1179 H1191 0.930 . S
C1180 C1170 1.391 . S
C1180 C1179 1.359 . S
C1180 H1192 0.929 . S
H1181 C1177 0.930 . S
H1182 C1171 0.930 . S
H1183 C1200 0.930 . S
H1184 C1172 0.930 . S
H1185 C1173 0.930 . S
H1186 C1167 0.929 . S
H1187 C1205 0.930 . S
H1188 C1196 0.930 . S
H1189 C1197 0.930 . S
H1190 C1221 0.929 . S
H1191 C1179 0.930 . S
H1192 C1180 0.929 . S
H1193 C1222 0.930 . S
H1194 C1203 0.930 . S
N1195 Gd1164 2.661 . S
N1195 C1199 1.350 . S
N1195 C1200 1.307 . S
C1196 H1188 0.930 . S
C1196 C1197 1.355 . S
C1196 C1198 1.412 . S
C1197 H1189 0.930 . S
C1197 C1196 1.355 . S
C1197 C1200 1.402 . S
C1198 C1196 1.412 . S
C1198 C1199 1.417 . S
C1198 C1222 1.431 . S
C1199 N1195 1.350 . S
C1199 C1198 1.417 . S
C1199 C1202 1.426 . S
C1200 H1183 0.930 . S
C1200 N1195 1.307 . S
C1200 C1197 1.402 . S
N1201 Gd1164 2.601 . S
N1201 C1202 1.359 . S
N1201 C1205 1.334 . S
C1202 C1199 1.426 . S
C1202 N1201 1.359 . S
C1202 C1206 1.413 . S
C1203 H1194 0.930 . S
C1203 C1204 1.359 . S
C1203 C1205 1.394 . S
C1204 C1203 1.359 . S
C1204 C1206 1.391 . S
C1204 H1207 0.929 . S
C1205 H1187 0.930 . S
C1205 N1201 1.334 . S
C1205 C1203 1.394 . S
C1206 C1202 1.413 . S
C1206 C1204 1.391 . S
C1206 C1221 1.437 . S
H1207 C1204 0.929 . S
O1208 Gd1164 2.545 . S
O1208 C1223 1.258 . S
O1209 Gd1164 2.606 1_455 S
O1209 Gd1165 2.362 1_554 S
O1209 C1220 1.284 . S
O1210 Gd1165 2.324 1_655 S
O1210 C1230 1.254 . S
O1211 Gd1164 2.429 . S
O1211 C1230 1.268 1_554 S
O1212 Gd1164 2.545 1_455 S
O1212 C1220 1.250 . S
O1213 Gd1164 2.412 . S
O1213 C1223 1.252 . S
O1214 Gd1165 2.545 . S
O1214 C1232 1.258 . S
O1215 Gd1164 2.362 1_556 S
O1215 Gd1165 2.606 1_655 S
O1215 C1231 1.284 . S
O1216 Gd1164 2.324 1_455 S
O1216 C1239 1.254 . S
O1217 Gd1165 2.429 . S
O1217 C1239 1.268 1_556 S
O1218 Gd1165 2.545 1_655 S
O1218 C1231 1.250 . S
O1219 Gd1165 2.412 . S
O1219 C1232 1.252 . S
C1220 O1209 1.284 . S
C1220 O1212 1.250 . S
C1221 H1190 0.929 . S
C1221 C1206 1.437 . S
C1221 C1222 1.317 . S
C1222 H1193 0.930 . S
C1222 C1198 1.431 . S
C1222 C1221 1.317 . S
C1223 Gd1164 2.828 . S
C1223 O1208 1.258 . S
C1223 O1213 1.252 . S
C1223 C1224 1.497 . S
C1224 C1223 1.497 . S
C1224 C1225 1.395 . S
C1224 C1226 1.380 1_655 S
C1225 C1224 1.395 . S
C1225 C1228 1.398 . S
C1225 H1240 0.930 . S
C1226 C1224 1.380 1_455 S
C1226 C1227 1.391 . S
C1226 H1241 0.930 . S
C1227 C1226 1.391 . S
C1227 C1229 1.387 1_455 S
C1228 C1225 1.398 . S
C1228 C1229 1.380 . S
C1228 H1242 0.930 . S
C1229 C1227 1.387 1_655 S
C1229 C1228 1.380 . S
C1229 H1243 0.930 . S
C1230 O1210 1.254 . S
C1230 O1211 1.268 1_556 S
C1231 O1215 1.284 . S
C1231 O1218 1.250 . S
C1232 Gd1165 2.828 . S
C1232 O1214 1.258 . S
C1232 O1219 1.252 . S
C1232 C1233 1.497 . S
C1233 C1232 1.497 . S
C1233 C1234 1.395 . S
C1233 C1235 1.380 1_455 S
C1234 C1233 1.395 . S
C1234 C1237 1.398 . S
C1234 H1244 0.930 . S
C1235 C1233 1.380 1_655 S
C1235 C1236 1.391 . S
C1235 H1245 0.930 . S
C1236 C1235 1.391 . S
C1236 C1238 1.387 1_655 S
C1237 C1234 1.398 . S
C1237 C1238 1.380 . S
C1237 H1246 0.930 . S
C1238 C1236 1.387 1_455 S
C1238 C1237 1.380 . S
C1238 H1247 0.930 . S
C1239 O1216 1.254 . S
C1239 O1217 1.268 1_554 S
H1240 C1225 0.930 . S
H1241 C1226 0.930 . S
H1242 C1228 0.930 . S
H1243 C1229 0.930 . S
H1244 C1234 0.930 . S
H1245 C1235 0.930 . S
H1246 C1237 0.930 . S
H1247 C1238 0.930 . S
Gd1248 N1279 2.661 . S
Gd1248 N1285 2.601 . S
Gd1248 O1292 2.545 . S
Gd1248 O1293 2.606 . S
Gd1248 O1295 2.429 . S
Gd1248 O1296 2.545 . S
Gd1248 O1297 2.412 . S
Gd1248 O1299 2.362 1_556 S
Gd1248 O1300 2.324 . S
Gd1248 C1307 2.828 . S
Gd1249 N1258 2.661 . S
Gd1249 N1262 2.601 . S
Gd1249 O1293 2.362 1_554 S
Gd1249 O1294 2.324 . S
Gd1249 O1298 2.545 . S
Gd1249 O1299 2.606 . S
Gd1249 O1301 2.429 . S
Gd1249 O1302 2.545 . S
Gd1249 O1303 2.412 . S
Gd1249 C1316 2.828 . S
C1250 C1253 1.417 . S
C1250 C1255 1.431 . S
C1250 C1256 1.412 . S
C1251 C1254 1.437 . S
C1251 C1255 1.317 . S
C1251 H1270 0.929 . S
C1252 C1253 1.426 . S
C1252 C1254 1.413 . S
C1252 N1262 1.359 . S
C1253 C1250 1.417 . S
C1253 C1252 1.426 . S
C1253 N1258 1.350 . S
C1254 C1251 1.437 . S
C1254 C1252 1.413 . S
C1254 C1264 1.391 . S
C1255 C1250 1.431 . S
C1255 C1251 1.317 . S
C1255 H1266 0.930 . S
C1256 C1250 1.412 . S
C1256 C1257 1.355 . S
C1256 H1268 0.930 . S
C1257 C1256 1.355 . S
C1257 C1259 1.402 . S
C1257 H1269 0.930 . S
N1258 Gd1249 2.661 . S
N1258 C1253 1.350 . S
N1258 C1259 1.307 . S
C1259 C1257 1.402 . S
C1259 N1258 1.307 . S
C1259 H1260 0.930 . S
H1260 C1259 0.930 . S
C1261 N1262 1.334 . S
C1261 C1263 1.394 . S
C1261 H1265 0.930 . S
N1262 Gd1249 2.601 . S
N1262 C1252 1.359 . S
N1262 C1261 1.334 . S
C1263 C1261 1.394 . S
C1263 C1264 1.359 . S
C1263 H1275 0.930 . S
C1264 C1254 1.391 . S
C1264 C1263 1.359 . S
C1264 H1276 0.929 . S
H1265 C1261 0.930 . S
H1266 C1255 0.930 . S
H1267 C1284 0.930 . S
H1268 C1256 0.930 . S
H1269 C1257 0.930 . S
H1270 C1251 0.929 . S
H1271 C1289 0.930 . S
H1272 C1280 0.930 . S
H1273 C1281 0.930 . S
H1274 C1305 0.929 . S
H1275 C1263 0.930 . S
H1276 C1264 0.929 . S
H1277 C1306 0.930 . S
H1278 C1287 0.930 . S
N1279 Gd1248 2.661 . S
N1279 C1283 1.350 . S
N1279 C1284 1.307 . S
C1280 H1272 0.930 . S
C1280 C1281 1.355 . S
C1280 C1282 1.412 . S
C1281 H1273 0.930 . S
C1281 C1280 1.355 . S
C1281 C1284 1.402 . S
C1282 C1280 1.412 . S
C1282 C1283 1.417 . S
C1282 C1306 1.431 . S
C1283 N1279 1.350 . S
C1283 C1282 1.417 . S
C1283 C1286 1.426 . S
C1284 H1267 0.930 . S
C1284 N1279 1.307 . S
C1284 C1281 1.402 . S
N1285 Gd1248 2.601 . S
N1285 C1286 1.359 . S
N1285 C1289 1.334 . S
C1286 C1283 1.426 . S
C1286 N1285 1.359 . S
C1286 C1290 1.413 . S
C1287 H1278 0.930 . S
C1287 C1288 1.359 . S
C1287 C1289 1.394 . S
C1288 C1287 1.359 . S
C1288 C1290 1.391 . S
C1288 H1291 0.929 . S
C1289 H1271 0.930 . S
C1289 N1285 1.334 . S
C1289 C1287 1.394 . S
C1290 C1286 1.413 . S
C1290 C1288 1.391 . S
C1290 C1305 1.437 . S
H1291 C1288 0.929 . S
O1292 Gd1248 2.545 . S
O1292 C1307 1.258 . S
O1293 Gd1248 2.606 . S
O1293 Gd1249 2.362 1_556 S
O1293 C1304 1.284 . S
O1294 Gd1249 2.324 . S
O1294 C1314 1.254 . S
O1295 Gd1248 2.429 . S
O1295 C1314 1.268 1_556 S
O1296 Gd1248 2.545 . S
O1296 C1304 1.250 . S
O1297 Gd1248 2.412 . S
O1297 C1307 1.252 . S
O1298 Gd1249 2.545 . S
O1298 C1316 1.258 . S
O1299 Gd1248 2.362 1_554 S
O1299 Gd1249 2.606 . S
O1299 C1315 1.284 . S
O1300 Gd1248 2.324 . S
O1300 C1323 1.254 . S
O1301 Gd1249 2.429 . S
O1301 C1323 1.268 1_554 S
O1302 Gd1249 2.545 . S
O1302 C1315 1.250 . S
O1303 Gd1249 2.412 . S
O1303 C1316 1.252 . S
C1304 O1293 1.284 . S
C1304 O1296 1.250 . S
C1305 H1274 0.929 . S
C1305 C1290 1.437 . S
C1305 C1306 1.317 . S
C1306 H1277 0.930 . S
C1306 C1282 1.431 . S
C1306 C1305 1.317 . S
C1307 Gd1248 2.828 . S
C1307 O1292 1.258 . S
C1307 O1297 1.252 . S
C1307 C1308 1.497 . S
C1308 C1307 1.497 . S
C1308 C1309 1.395 . S
C1308 C1310 1.380 . S
C1309 C1308 1.395 . S
C1309 C1312 1.398 . S
C1309 H1324 0.930 . S
C1310 C1308 1.380 . S
C1310 C1311 1.391 . S
C1310 H1325 0.930 . S
C1311 C1310 1.391 . S
C1311 C1313 1.387 . S
C1312 C1309 1.398 . S
C1312 C1313 1.380 . S
C1312 H1326 0.930 . S
C1313 C1311 1.387 . S
C1313 C1312 1.380 . S
C1313 H1327 0.930 . S
C1314 O1294 1.254 . S
C1314 O1295 1.268 1_554 S
C1315 O1299 1.284 . S
C1315 O1302 1.250 . S
C1316 Gd1249 2.828 . S
C1316 O1298 1.258 . S
C1316 O1303 1.252 . S
C1316 C1317 1.497 . S
C1317 C1316 1.497 . S
C1317 C1318 1.395 . S
C1317 C1319 1.380 . S
C1318 C1317 1.395 . S
C1318 C1321 1.398 . S
C1318 H1328 0.930 . S
C1319 C1317 1.380 . S
C1319 C1320 1.391 . S
C1319 H1329 0.930 . S
C1320 C1319 1.391 . S
C1320 C1322 1.387 . S
C1321 C1318 1.398 . S
C1321 C1322 1.380 . S
C1321 H1330 0.930 . S
C1322 C1320 1.387 . S
C1322 C1321 1.380 . S
C1322 H1331 0.930 . S
C1323 O1300 1.254 . S
C1323 O1301 1.268 1_556 S
H1324 C1309 0.930 . S
H1325 C1310 0.930 . S
H1326 C1312 0.930 . S
H1327 C1313 0.930 . S
H1328 C1318 0.930 . S
H1329 C1319 0.930 . S
H1330 C1321 0.930 . S
H1331 C1322 0.930 . S
Gd1332 N1363 2.661 . S
Gd1332 N1369 2.601 . S
Gd1332 O1376 2.545 . S
Gd1332 O1377 2.606 . S
Gd1332 O1379 2.429 . S
Gd1332 O1380 2.545 . S
Gd1332 O1381 2.412 . S
Gd1332 O1383 2.362 . S
Gd1332 O1384 2.324 . S
Gd1332 C1391 2.828 . S
Gd1333 N1342 2.661 . S
Gd1333 N1346 2.601 . S
Gd1333 O1377 2.362 . S
Gd1333 O1378 2.324 . S
Gd1333 O1382 2.545 . S
Gd1333 O1383 2.606 . S
Gd1333 O1385 2.429 . S
Gd1333 O1386 2.545 . S
Gd1333 O1387 2.412 . S
Gd1333 C1400 2.828 . S
C1334 C1337 1.417 . S
C1334 C1339 1.431 . S
C1334 C1340 1.412 . S
C1335 C1338 1.437 . S
C1335 C1339 1.317 . S
C1335 H1354 0.929 . S
C1336 C1337 1.426 . S
C1336 C1338 1.413 . S
C1336 N1346 1.359 . S
C1337 C1334 1.417 . S
C1337 C1336 1.426 . S
C1337 N1342 1.350 . S
C1338 C1335 1.437 . S
C1338 C1336 1.413 . S
C1338 C1348 1.391 . S
C1339 C1334 1.431 . S
C1339 C1335 1.317 . S
C1339 H1350 0.930 . S
C1340 C1334 1.412 . S
C1340 C1341 1.355 . S
C1340 H1352 0.930 . S
C1341 C1340 1.355 . S
C1341 C1343 1.402 . S
C1341 H1353 0.930 . S
N1342 Gd1333 2.661 . S
N1342 C1337 1.350 . S
N1342 C1343 1.307 . S
C1343 C1341 1.402 . S
C1343 N1342 1.307 . S
C1343 H1344 0.930 . S
H1344 C1343 0.930 . S
C1345 N1346 1.334 . S
C1345 C1347 1.394 . S
C1345 H1349 0.930 . S
N1346 Gd1333 2.601 . S
N1346 C1336 1.359 . S
N1346 C1345 1.334 . S
C1347 C1345 1.394 . S
C1347 C1348 1.359 . S
C1347 H1359 0.930 . S
C1348 C1338 1.391 . S
C1348 C1347 1.359 . S
C1348 H1360 0.929 . S
H1349 C1345 0.930 . S
H1350 C1339 0.930 . S
H1351 C1368 0.930 . S
H1352 C1340 0.930 . S
H1353 C1341 0.930 . S
H1354 C1335 0.929 . S
H1355 C1373 0.930 . S
H1356 C1364 0.930 . S
H1357 C1365 0.930 . S
H1358 C1389 0.929 . S
H1359 C1347 0.930 . S
H1360 C1348 0.929 . S
H1361 C1390 0.930 . S
H1362 C1371 0.930 . S
N1363 Gd1332 2.661 . S
N1363 C1367 1.350 . S
N1363 C1368 1.307 . S
C1364 H1356 0.930 . S
C1364 C1365 1.355 . S
C1364 C1366 1.412 . S
C1365 H1357 0.930 . S
C1365 C1364 1.355 . S
C1365 C1368 1.402 . S
C1366 C1364 1.412 . S
C1366 C1367 1.417 . S
C1366 C1390 1.431 . S
C1367 N1363 1.350 . S
C1367 C1366 1.417 . S
C1367 C1370 1.426 . S
C1368 H1351 0.930 . S
C1368 N1363 1.307 . S
C1368 C1365 1.402 . S
N1369 Gd1332 2.601 . S
N1369 C1370 1.359 . S
N1369 C1373 1.334 . S
C1370 C1367 1.426 . S
C1370 N1369 1.359 . S
C1370 C1374 1.413 . S
C1371 H1362 0.930 . S
C1371 C1372 1.359 . S
C1371 C1373 1.394 . S
C1372 C1371 1.359 . S
C1372 C1374 1.391 . S
C1372 H1375 0.929 . S
C1373 H1355 0.930 . S
C1373 N1369 1.334 . S
C1373 C1371 1.394 . S
C1374 C1370 1.413 . S
C1374 C1372 1.391 . S
C1374 C1389 1.437 . S
H1375 C1372 0.929 . S
O1376 Gd1332 2.545 . S
O1376 C1391 1.258 . S
O1377 Gd1332 2.606 . S
O1377 Gd1333 2.362 . S
O1377 C1388 1.284 . S
O1378 Gd1333 2.324 . S
O1378 C1398 1.254 . S
O1379 Gd1332 2.429 . S
O1379 C1398 1.268 . S
O1380 Gd1332 2.545 . S
O1380 C1388 1.250 . S
O1381 Gd1332 2.412 . S
O1381 C1391 1.252 . S
O1382 Gd1333 2.545 . S
O1382 C1400 1.258 . S
O1383 Gd1332 2.362 . S
O1383 Gd1333 2.606 . S
O1383 C1399 1.284 . S
O1384 Gd1332 2.324 . S
O1384 C1407 1.254 . S
O1385 Gd1333 2.429 . S
O1385 C1407 1.268 . S
O1386 Gd1333 2.545 . S
O1386 C1399 1.250 . S
O1387 Gd1333 2.412 . S
O1387 C1400 1.252 . S
C1388 O1377 1.284 . S
C1388 O1380 1.250 . S
C1389 H1358 0.929 . S
C1389 C1374 1.437 . S
C1389 C1390 1.317 . S
C1390 H1361 0.930 . S
C1390 C1366 1.431 . S
C1390 C1389 1.317 . S
C1391 Gd1332 2.828 . S
C1391 O1376 1.258 . S
C1391 O1381 1.252 . S
C1391 C1392 1.497 . S
C1392 C1391 1.497 . S
C1392 C1393 1.395 . S
C1392 C1394 1.380 . S
C1393 C1392 1.395 . S
C1393 C1396 1.398 . S
C1393 H1408 0.930 . S
C1394 C1392 1.380 . S
C1394 C1395 1.391 . S
C1394 H1409 0.930 . S
C1395 C1394 1.391 . S
C1395 C1397 1.387 . S
C1396 C1393 1.398 . S
C1396 C1397 1.380 . S
C1396 H1410 0.930 . S
C1397 C1395 1.387 . S
C1397 C1396 1.380 . S
C1397 H1411 0.930 . S
C1398 O1378 1.254 . S
C1398 O1379 1.268 . S
C1399 O1383 1.284 . S
C1399 O1386 1.250 . S
C1400 Gd1333 2.828 . S
C1400 O1382 1.258 . S
C1400 O1387 1.252 . S
C1400 C1401 1.497 . S
C1401 C1400 1.497 . S
C1401 C1402 1.395 . S
C1401 C1403 1.380 . S
C1402 C1401 1.395 . S
C1402 C1405 1.398 . S
C1402 H1412 0.930 . S
C1403 C1401 1.380 . S
C1403 C1404 1.391 . S
C1403 H1413 0.930 . S
C1404 C1403 1.391 . S
C1404 C1406 1.387 . S
C1405 C1402 1.398 . S
C1405 C1406 1.380 . S
C1405 H1414 0.930 . S
C1406 C1404 1.387 . S
C1406 C1405 1.380 . S
C1406 H1415 0.930 . S
C1407 O1384 1.254 . S
C1407 O1385 1.268 . S
H1408 C1393 0.930 . S
H1409 C1394 0.930 . S
H1410 C1396 0.930 . S
H1411 C1397 0.930 . S
H1412 C1402 0.930 . S
H1413 C1403 0.930 . S
H1414 C1405 0.930 . S
H1415 C1406 0.930 . S
Gd1416 N1447 2.661 . S
Gd1416 N1453 2.601 . S
Gd1416 O1460 2.545 . S
Gd1416 O1461 2.606 . S
Gd1416 O1463 2.429 . S
Gd1416 O1464 2.545 . S
Gd1416 O1465 2.412 . S
Gd1416 O1467 2.362 . S
Gd1416 O1468 2.324 . S
Gd1416 C1475 2.828 . S
Gd1417 N1426 2.661 . S
Gd1417 N1430 2.601 . S
Gd1417 O1461 2.362 . S
Gd1417 O1462 2.324 . S
Gd1417 O1466 2.545 . S
Gd1417 O1467 2.606 . S
Gd1417 O1469 2.429 . S
Gd1417 O1470 2.545 . S
Gd1417 O1471 2.412 . S
Gd1417 C1484 2.828 . S
C1418 C1421 1.417 . S
C1418 C1423 1.431 . S
C1418 C1424 1.412 . S
C1419 C1422 1.437 . S
C1419 C1423 1.317 . S
C1419 H1438 0.929 . S
C1420 C1421 1.426 . S
C1420 C1422 1.413 . S
C1420 N1430 1.359 . S
C1421 C1418 1.417 . S
C1421 C1420 1.426 . S
C1421 N1426 1.350 . S
C1422 C1419 1.437 . S
C1422 C1420 1.413 . S
C1422 C1432 1.391 . S
C1423 C1418 1.431 . S
C1423 C1419 1.317 . S
C1423 H1434 0.930 . S
C1424 C1418 1.412 . S
C1424 C1425 1.355 . S
C1424 H1436 0.930 . S
C1425 C1424 1.355 . S
C1425 C1427 1.402 . S
C1425 H1437 0.930 . S
N1426 Gd1417 2.661 . S
N1426 C1421 1.350 . S
N1426 C1427 1.307 . S
C1427 C1425 1.402 . S
C1427 N1426 1.307 . S
C1427 H1428 0.930 . S
H1428 C1427 0.930 . S
C1429 N1430 1.334 . S
C1429 C1431 1.394 . S
C1429 H1433 0.930 . S
N1430 Gd1417 2.601 . S
N1430 C1420 1.359 . S
N1430 C1429 1.334 . S
C1431 C1429 1.394 . S
C1431 C1432 1.359 . S
C1431 H1443 0.930 . S
C1432 C1422 1.391 . S
C1432 C1431 1.359 . S
C1432 H1444 0.929 . S
H1433 C1429 0.930 . S
H1434 C1423 0.930 . S
H1435 C1452 0.930 . S
H1436 C1424 0.930 . S
H1437 C1425 0.930 . S
H1438 C1419 0.929 . S
H1439 C1457 0.930 . S
H1440 C1448 0.930 . S
H1441 C1449 0.930 . S
H1442 C1473 0.929 . S
H1443 C1431 0.930 . S
H1444 C1432 0.929 . S
H1445 C1474 0.930 . S
H1446 C1455 0.930 . S
N1447 Gd1416 2.661 . S
N1447 C1451 1.350 . S
N1447 C1452 1.307 . S
C1448 H1440 0.930 . S
C1448 C1449 1.355 . S
C1448 C1450 1.412 . S
C1449 H1441 0.930 . S
C1449 C1448 1.355 . S
C1449 C1452 1.402 . S
C1450 C1448 1.412 . S
C1450 C1451 1.417 . S
C1450 C1474 1.431 . S
C1451 N1447 1.350 . S
C1451 C1450 1.417 . S
C1451 C1454 1.426 . S
C1452 H1435 0.930 . S
C1452 N1447 1.307 . S
C1452 C1449 1.402 . S
N1453 Gd1416 2.601 . S
N1453 C1454 1.359 . S
N1453 C1457 1.334 . S
C1454 C1451 1.426 . S
C1454 N1453 1.359 . S
C1454 C1458 1.413 . S
C1455 H1446 0.930 . S
C1455 C1456 1.359 . S
C1455 C1457 1.394 . S
C1456 C1455 1.359 . S
C1456 C1458 1.391 . S
C1456 H1459 0.929 . S
C1457 H1439 0.930 . S
C1457 N1453 1.334 . S
C1457 C1455 1.394 . S
C1458 C1454 1.413 . S
C1458 C1456 1.391 . S
C1458 C1473 1.437 . S
H1459 C1456 0.929 . S
O1460 Gd1416 2.545 . S
O1460 C1475 1.258 . S
O1461 Gd1416 2.606 . S
O1461 Gd1417 2.362 . S
O1461 C1472 1.284 . S
O1462 Gd1417 2.324 . S
O1462 C1482 1.254 . S
O1463 Gd1416 2.429 . S
O1463 C1482 1.268 . S
O1464 Gd1416 2.545 . S
O1464 C1472 1.250 . S
O1465 Gd1416 2.412 . S
O1465 C1475 1.252 . S
O1466 Gd1417 2.545 . S
O1466 C1484 1.258 . S
O1467 Gd1416 2.362 . S
O1467 Gd1417 2.606 . S
O1467 C1483 1.284 . S
O1468 Gd1416 2.324 . S
O1468 C1491 1.254 . S
O1469 Gd1417 2.429 . S
O1469 C1491 1.268 . S
O1470 Gd1417 2.545 . S
O1470 C1483 1.250 . S
O1471 Gd1417 2.412 . S
O1471 C1484 1.252 . S
C1472 O1461 1.284 . S
C1472 O1464 1.250 . S
C1473 H1442 0.929 . S
C1473 C1458 1.437 . S
C1473 C1474 1.317 . S
C1474 H1445 0.930 . S
C1474 C1450 1.431 . S
C1474 C1473 1.317 . S
C1475 Gd1416 2.828 . S
C1475 O1460 1.258 . S
C1475 O1465 1.252 . S
C1475 C1476 1.497 . S
C1476 C1475 1.497 . S
C1476 C1477 1.395 . S
C1476 C1478 1.380 . S
C1477 C1476 1.395 . S
C1477 C1480 1.398 . S
C1477 H1492 0.930 . S
C1478 C1476 1.380 . S
C1478 C1479 1.391 . S
C1478 H1493 0.930 . S
C1479 C1478 1.391 . S
C1479 C1481 1.387 . S
C1480 C1477 1.398 . S
C1480 C1481 1.380 . S
C1480 H1494 0.930 . S
C1481 C1479 1.387 . S
C1481 C1480 1.380 . S
C1481 H1495 0.930 . S
C1482 O1462 1.254 . S
C1482 O1463 1.268 . S
C1483 O1467 1.284 . S
C1483 O1470 1.250 . S
C1484 Gd1417 2.828 . S
C1484 O1466 1.258 . S
C1484 O1471 1.252 . S
C1484 C1485 1.497 . S
C1485 C1484 1.497 . S
C1485 C1486 1.395 . S
C1485 C1487 1.380 . S
C1486 C1485 1.395 . S
C1486 C1489 1.398 . S
C1486 H1496 0.930 . S
C1487 C1485 1.380 . S
C1487 C1488 1.391 . S
C1487 H1497 0.930 . S
C1488 C1487 1.391 . S
C1488 C1490 1.387 . S
C1489 C1486 1.398 . S
C1489 C1490 1.380 . S
C1489 H1498 0.930 . S
C1490 C1488 1.387 . S
C1490 C1489 1.380 . S
C1490 H1499 0.930 . S
C1491 O1468 1.254 . S
C1491 O1469 1.268 . S
H1492 C1477 0.930 . S
H1493 C1478 0.930 . S
H1494 C1480 0.930 . S
H1495 C1481 0.930 . S
H1496 C1486 0.930 . S
H1497 C1487 0.930 . S
H1498 C1489 0.930 . S
H1499 C1490 0.930 . S
Gd1500 N1531 2.661 . S
Gd1500 N1537 2.601 . S
Gd1500 O1544 2.545 . S
Gd1500 O1545 2.606 . S
Gd1500 O1547 2.429 . S
Gd1500 O1548 2.545 . S
Gd1500 O1549 2.412 . S
Gd1500 O1551 2.362 . S
Gd1500 O1552 2.324 . S
Gd1500 C1559 2.828 . S
Gd1501 N1510 2.661 . S
Gd1501 N1514 2.601 . S
Gd1501 O1545 2.362 . S
Gd1501 O1546 2.324 . S
Gd1501 O1550 2.545 . S
Gd1501 O1551 2.606 . S
Gd1501 O1553 2.429 . S
Gd1501 O1554 2.545 . S
Gd1501 O1555 2.412 . S
Gd1501 C1568 2.828 . S
C1502 C1505 1.417 . S
C1502 C1507 1.431 . S
C1502 C1508 1.412 . S
C1503 C1506 1.437 . S
C1503 C1507 1.317 . S
C1503 H1522 0.929 . S
C1504 C1505 1.426 . S
C1504 C1506 1.413 . S
C1504 N1514 1.359 . S
C1505 C1502 1.417 . S
C1505 C1504 1.426 . S
C1505 N1510 1.350 . S
C1506 C1503 1.437 . S
C1506 C1504 1.413 . S
C1506 C1516 1.391 . S
C1507 C1502 1.431 . S
C1507 C1503 1.317 . S
C1507 H1518 0.930 . S
C1508 C1502 1.412 . S
C1508 C1509 1.355 . S
C1508 H1520 0.930 . S
C1509 C1508 1.355 . S
C1509 C1511 1.402 . S
C1509 H1521 0.930 . S
N1510 Gd1501 2.661 . S
N1510 C1505 1.350 . S
N1510 C1511 1.307 . S
C1511 C1509 1.402 . S
C1511 N1510 1.307 . S
C1511 H1512 0.930 . S
H1512 C1511 0.930 . S
C1513 N1514 1.334 . S
C1513 C1515 1.394 . S
C1513 H1517 0.930 . S
N1514 Gd1501 2.601 . S
N1514 C1504 1.359 . S
N1514 C1513 1.334 . S
C1515 C1513 1.394 . S
C1515 C1516 1.359 . S
C1515 H1527 0.930 . S
C1516 C1506 1.391 . S
C1516 C1515 1.359 . S
C1516 H1528 0.929 . S
H1517 C1513 0.930 . S
H1518 C1507 0.930 . S
H1519 C1536 0.930 . S
H1520 C1508 0.930 . S
H1521 C1509 0.930 . S
H1522 C1503 0.929 . S
H1523 C1541 0.930 . S
H1524 C1532 0.930 . S
H1525 C1533 0.930 . S
H1526 C1557 0.929 . S
H1527 C1515 0.930 . S
H1528 C1516 0.929 . S
H1529 C1558 0.930 . S
H1530 C1539 0.930 . S
N1531 Gd1500 2.661 . S
N1531 C1535 1.350 . S
N1531 C1536 1.307 . S
C1532 H1524 0.930 . S
C1532 C1533 1.355 . S
C1532 C1534 1.412 . S
C1533 H1525 0.930 . S
C1533 C1532 1.355 . S
C1533 C1536 1.402 . S
C1534 C1532 1.412 . S
C1534 C1535 1.417 . S
C1534 C1558 1.431 . S
C1535 N1531 1.350 . S
C1535 C1534 1.417 . S
C1535 C1538 1.426 . S
C1536 H1519 0.930 . S
C1536 N1531 1.307 . S
C1536 C1533 1.402 . S
N1537 Gd1500 2.601 . S
N1537 C1538 1.359 . S
N1537 C1541 1.334 . S
C1538 C1535 1.426 . S
C1538 N1537 1.359 . S
C1538 C1542 1.413 . S
C1539 H1530 0.930 . S
C1539 C1540 1.359 . S
C1539 C1541 1.394 . S
C1540 C1539 1.359 . S
C1540 C1542 1.391 . S
C1540 H1543 0.929 . S
C1541 H1523 0.930 . S
C1541 N1537 1.334 . S
C1541 C1539 1.394 . S
C1542 C1538 1.413 . S
C1542 C1540 1.391 . S
C1542 C1557 1.437 . S
H1543 C1540 0.929 . S
O1544 Gd1500 2.545 . S
O1544 C1559 1.258 . S
O1545 Gd1500 2.606 . S
O1545 Gd1501 2.362 . S
O1545 C1556 1.284 . S
O1546 Gd1501 2.324 . S
O1546 C1566 1.254 . S
O1547 Gd1500 2.429 . S
O1547 C1566 1.268 . S
O1548 Gd1500 2.545 . S
O1548 C1556 1.250 . S
O1549 Gd1500 2.412 . S
O1549 C1559 1.252 . S
O1550 Gd1501 2.545 . S
O1550 C1568 1.258 . S
O1551 Gd1500 2.362 . S
O1551 Gd1501 2.606 . S
O1551 C1567 1.284 . S
O1552 Gd1500 2.324 . S
O1552 C1575 1.254 . S
O1553 Gd1501 2.429 . S
O1553 C1575 1.268 . S
O1554 Gd1501 2.545 . S
O1554 C1567 1.250 . S
O1555 Gd1501 2.412 . S
O1555 C1568 1.252 . S
C1556 O1545 1.284 . S
C1556 O1548 1.250 . S
C1557 H1526 0.929 . S
C1557 C1542 1.437 . S
C1557 C1558 1.317 . S
C1558 H1529 0.930 . S
C1558 C1534 1.431 . S
C1558 C1557 1.317 . S
C1559 Gd1500 2.828 . S
C1559 O1544 1.258 . S
C1559 O1549 1.252 . S
C1559 C1560 1.497 . S
C1560 C1559 1.497 . S
C1560 C1561 1.395 . S
C1560 C1562 1.380 . S
C1561 C1560 1.395 . S
C1561 C1564 1.398 . S
C1561 H1576 0.930 . S
C1562 C1560 1.380 . S
C1562 C1563 1.391 . S
C1562 H1577 0.930 . S
C1563 C1562 1.391 . S
C1563 C1565 1.387 . S
C1564 C1561 1.398 . S
C1564 C1565 1.380 . S
C1564 H1578 0.930 . S
C1565 C1563 1.387 . S
C1565 C1564 1.380 . S
C1565 H1579 0.930 . S
C1566 O1546 1.254 . S
C1566 O1547 1.268 . S
C1567 O1551 1.284 . S
C1567 O1554 1.250 . S
C1568 Gd1501 2.828 . S
C1568 O1550 1.258 . S
C1568 O1555 1.252 . S
C1568 C1569 1.497 . S
C1569 C1568 1.497 . S
C1569 C1570 1.395 . S
C1569 C1571 1.380 . S
C1570 C1569 1.395 . S
C1570 C1573 1.398 . S
C1570 H1580 0.930 . S
C1571 C1569 1.380 . S
C1571 C1572 1.391 . S
C1571 H1581 0.930 . S
C1572 C1571 1.391 . S
C1572 C1574 1.387 . S
C1573 C1570 1.398 . S
C1573 C1574 1.380 . S
C1573 H1582 0.930 . S
C1574 C1572 1.387 . S
C1574 C1573 1.380 . S
C1574 H1583 0.930 . S
C1575 O1552 1.254 . S
C1575 O1553 1.268 . S
H1576 C1561 0.930 . S
H1577 C1562 0.930 . S
H1578 C1564 0.930 . S
H1579 C1565 0.930 . S
H1580 C1570 0.930 . S
H1581 C1571 0.930 . S
H1582 C1573 0.930 . S
H1583 C1574 0.930 . S
Gd1584 N1615 2.661 . S
Gd1584 N1621 2.601 . S
Gd1584 O1628 2.545 . S
Gd1584 O1629 2.606 . S
Gd1584 O1631 2.429 . S
Gd1584 O1632 2.545 . S
Gd1584 O1633 2.412 . S
Gd1584 O1635 2.362 . S
Gd1584 O1636 2.324 . S
Gd1584 C1643 2.828 . S
Gd1585 N1594 2.661 . S
Gd1585 N1598 2.601 . S
Gd1585 O1629 2.362 . S
Gd1585 O1630 2.324 . S
Gd1585 O1634 2.545 . S
Gd1585 O1635 2.606 . S
Gd1585 O1637 2.429 . S
Gd1585 O1638 2.545 . S
Gd1585 O1639 2.412 . S
Gd1585 C1652 2.828 . S
C1586 C1589 1.417 . S
C1586 C1591 1.431 . S
C1586 C1592 1.412 . S
C1587 C1590 1.437 . S
C1587 C1591 1.317 . S
C1587 H1606 0.929 . S
C1588 C1589 1.426 . S
C1588 C1590 1.413 . S
C1588 N1598 1.359 . S
C1589 C1586 1.417 . S
C1589 C1588 1.426 . S
C1589 N1594 1.350 . S
C1590 C1587 1.437 . S
C1590 C1588 1.413 . S
C1590 C1600 1.391 . S
C1591 C1586 1.431 . S
C1591 C1587 1.317 . S
C1591 H1602 0.930 . S
C1592 C1586 1.412 . S
C1592 C1593 1.355 . S
C1592 H1604 0.930 . S
C1593 C1592 1.355 . S
C1593 C1595 1.402 . S
C1593 H1605 0.930 . S
N1594 Gd1585 2.661 . S
N1594 C1589 1.350 . S
N1594 C1595 1.307 . S
C1595 C1593 1.402 . S
C1595 N1594 1.307 . S
C1595 H1596 0.930 . S
H1596 C1595 0.930 . S
C1597 N1598 1.334 . S
C1597 C1599 1.394 . S
C1597 H1601 0.930 . S
N1598 Gd1585 2.601 . S
N1598 C1588 1.359 . S
N1598 C1597 1.334 . S
C1599 C1597 1.394 . S
C1599 C1600 1.359 . S
C1599 H1611 0.930 . S
C1600 C1590 1.391 . S
C1600 C1599 1.359 . S
C1600 H1612 0.929 . S
H1601 C1597 0.930 . S
H1602 C1591 0.930 . S
H1603 C1620 0.930 . S
H1604 C1592 0.930 . S
H1605 C1593 0.930 . S
H1606 C1587 0.929 . S
H1607 C1625 0.930 . S
H1608 C1616 0.930 . S
H1609 C1617 0.930 . S
H1610 C1641 0.929 . S
H1611 C1599 0.930 . S
H1612 C1600 0.929 . S
H1613 C1642 0.930 . S
H1614 C1623 0.930 . S
N1615 Gd1584 2.661 . S
N1615 C1619 1.350 . S
N1615 C1620 1.307 . S
C1616 H1608 0.930 . S
C1616 C1617 1.355 . S
C1616 C1618 1.412 . S
C1617 H1609 0.930 . S
C1617 C1616 1.355 . S
C1617 C1620 1.402 . S
C1618 C1616 1.412 . S
C1618 C1619 1.417 . S
C1618 C1642 1.431 . S
C1619 N1615 1.350 . S
C1619 C1618 1.417 . S
C1619 C1622 1.426 . S
C1620 H1603 0.930 . S
C1620 N1615 1.307 . S
C1620 C1617 1.402 . S
N1621 Gd1584 2.601 . S
N1621 C1622 1.359 . S
N1621 C1625 1.334 . S
C1622 C1619 1.426 . S
C1622 N1621 1.359 . S
C1622 C1626 1.413 . S
C1623 H1614 0.930 . S
C1623 C1624 1.359 . S
C1623 C1625 1.394 . S
C1624 C1623 1.359 . S
C1624 C1626 1.391 . S
C1624 H1627 0.929 . S
C1625 H1607 0.930 . S
C1625 N1621 1.334 . S
C1625 C1623 1.394 . S
C1626 C1622 1.413 . S
C1626 C1624 1.391 . S
C1626 C1641 1.437 . S
H1627 C1624 0.929 . S
O1628 Gd1584 2.545 . S
O1628 C1643 1.258 . S
O1629 Gd1584 2.606 . S
O1629 Gd1585 2.362 . S
O1629 C1640 1.284 . S
O1630 Gd1585 2.324 . S
O1630 C1650 1.254 . S
O1631 Gd1584 2.429 . S
O1631 C1650 1.268 . S
O1632 Gd1584 2.545 . S
O1632 C1640 1.250 . S
O1633 Gd1584 2.412 . S
O1633 C1643 1.252 . S
O1634 Gd1585 2.545 . S
O1634 C1652 1.258 . S
O1635 Gd1584 2.362 . S
O1635 Gd1585 2.606 . S
O1635 C1651 1.284 . S
O1636 Gd1584 2.324 . S
O1636 C1659 1.254 . S
O1637 Gd1585 2.429 . S
O1637 C1659 1.268 . S
O1638 Gd1585 2.545 . S
O1638 C1651 1.250 . S
O1639 Gd1585 2.412 . S
O1639 C1652 1.252 . S
C1640 O1629 1.284 . S
C1640 O1632 1.250 . S
C1641 H1610 0.929 . S
C1641 C1626 1.437 . S
C1641 C1642 1.317 . S
C1642 H1613 0.930 . S
C1642 C1618 1.431 . S
C1642 C1641 1.317 . S
C1643 Gd1584 2.828 . S
C1643 O1628 1.258 . S
C1643 O1633 1.252 . S
C1643 C1644 1.497 . S
C1644 C1643 1.497 . S
C1644 C1645 1.395 . S
C1644 C1646 1.380 . S
C1645 C1644 1.395 . S
C1645 C1648 1.398 . S
C1645 H1660 0.930 . S
C1646 C1644 1.380 . S
C1646 C1647 1.391 . S
C1646 H1661 0.930 . S
C1647 C1646 1.391 . S
C1647 C1649 1.387 . S
C1648 C1645 1.398 . S
C1648 C1649 1.380 . S
C1648 H1662 0.930 . S
C1649 C1647 1.387 . S
C1649 C1648 1.380 . S
C1649 H1663 0.930 . S
C1650 O1630 1.254 . S
C1650 O1631 1.268 . S
C1651 O1635 1.284 . S
C1651 O1638 1.250 . S
C1652 Gd1585 2.828 . S
C1652 O1634 1.258 . S
C1652 O1639 1.252 . S
C1652 C1653 1.497 . S
C1653 C1652 1.497 . S
C1653 C1654 1.395 . S
C1653 C1655 1.380 . S
C1654 C1653 1.395 . S
C1654 C1657 1.398 . S
C1654 H1664 0.930 . S
C1655 C1653 1.380 . S
C1655 C1656 1.391 . S
C1655 H1665 0.930 . S
C1656 C1655 1.391 . S
C1656 C1658 1.387 . S
C1657 C1654 1.398 . S
C1657 C1658 1.380 . S
C1657 H1666 0.930 . S
C1658 C1656 1.387 . S
C1658 C1657 1.380 . S
C1658 H1667 0.930 . S
C1659 O1636 1.254 . S
C1659 O1637 1.268 . S
H1660 C1645 0.930 . S
H1661 C1646 0.930 . S
H1662 C1648 0.930 . S
H1663 C1649 0.930 . S
H1664 C1654 0.930 . S
H1665 C1655 0.930 . S
H1666 C1657 0.930 . S
H1667 C1658 0.930 . S
Gd1668 N1699 2.661 . S
Gd1668 N1705 2.601 . S
Gd1668 O1712 2.545 . S
Gd1668 O1713 2.606 . S
Gd1668 O1715 2.429 . S
Gd1668 O1716 2.545 . S
Gd1668 O1717 2.412 . S
Gd1668 O1719 2.362 . S
Gd1668 O1720 2.324 . S
Gd1668 C1727 2.828 . S
Gd1669 N1678 2.661 . S
Gd1669 N1682 2.601 . S
Gd1669 O1713 2.362 . S
Gd1669 O1714 2.324 . S
Gd1669 O1718 2.545 . S
Gd1669 O1719 2.606 . S
Gd1669 O1721 2.429 . S
Gd1669 O1722 2.545 . S
Gd1669 O1723 2.412 . S
Gd1669 C1736 2.828 . S
C1670 C1673 1.417 . S
C1670 C1675 1.431 . S
C1670 C1676 1.412 . S
C1671 C1674 1.437 . S
C1671 C1675 1.317 . S
C1671 H1690 0.929 . S
C1672 C1673 1.426 . S
C1672 C1674 1.413 . S
C1672 N1682 1.359 . S
C1673 C1670 1.417 . S
C1673 C1672 1.426 . S
C1673 N1678 1.350 . S
C1674 C1671 1.437 . S
C1674 C1672 1.413 . S
C1674 C1684 1.391 . S
C1675 C1670 1.431 . S
C1675 C1671 1.317 . S
C1675 H1686 0.930 . S
C1676 C1670 1.412 . S
C1676 C1677 1.355 . S
C1676 H1688 0.930 . S
C1677 C1676 1.355 . S
C1677 C1679 1.402 . S
C1677 H1689 0.930 . S
N1678 Gd1669 2.661 . S
N1678 C1673 1.350 . S
N1678 C1679 1.307 . S
C1679 C1677 1.402 . S
C1679 N1678 1.307 . S
C1679 H1680 0.930 . S
H1680 C1679 0.930 . S
C1681 N1682 1.334 . S
C1681 C1683 1.394 . S
C1681 H1685 0.930 . S
N1682 Gd1669 2.601 . S
N1682 C1672 1.359 . S
N1682 C1681 1.334 . S
C1683 C1681 1.394 . S
C1683 C1684 1.359 . S
C1683 H1695 0.930 . S
C1684 C1674 1.391 . S
C1684 C1683 1.359 . S
C1684 H1696 0.929 . S
H1685 C1681 0.930 . S
H1686 C1675 0.930 . S
H1687 C1704 0.930 . S
H1688 C1676 0.930 . S
H1689 C1677 0.930 . S
H1690 C1671 0.929 . S
H1691 C1709 0.930 . S
H1692 C1700 0.930 . S
H1693 C1701 0.930 . S
H1694 C1725 0.929 . S
H1695 C1683 0.930 . S
H1696 C1684 0.929 . S
H1697 C1726 0.930 . S
H1698 C1707 0.930 . S
N1699 Gd1668 2.661 . S
N1699 C1703 1.350 . S
N1699 C1704 1.307 . S
C1700 H1692 0.930 . S
C1700 C1701 1.355 . S
C1700 C1702 1.412 . S
C1701 H1693 0.930 . S
C1701 C1700 1.355 . S
C1701 C1704 1.402 . S
C1702 C1700 1.412 . S
C1702 C1703 1.417 . S
C1702 C1726 1.431 . S
C1703 N1699 1.350 . S
C1703 C1702 1.417 . S
C1703 C1706 1.426 . S
C1704 H1687 0.930 . S
C1704 N1699 1.307 . S
C1704 C1701 1.402 . S
N1705 Gd1668 2.601 . S
N1705 C1706 1.359 . S
N1705 C1709 1.334 . S
C1706 C1703 1.426 . S
C1706 N1705 1.359 . S
C1706 C1710 1.413 . S
C1707 H1698 0.930 . S
C1707 C1708 1.359 . S
C1707 C1709 1.394 . S
C1708 C1707 1.359 . S
C1708 C1710 1.391 . S
C1708 H1711 0.929 . S
C1709 H1691 0.930 . S
C1709 N1705 1.334 . S
C1709 C1707 1.394 . S
C1710 C1706 1.413 . S
C1710 C1708 1.391 . S
C1710 C1725 1.437 . S
H1711 C1708 0.929 . S
O1712 Gd1668 2.545 . S
O1712 C1727 1.258 . S
O1713 Gd1668 2.606 . S
O1713 Gd1669 2.362 . S
O1713 C1724 1.284 . S
O1714 Gd1669 2.324 . S
O1714 C1734 1.254 . S
O1715 Gd1668 2.429 . S
O1715 C1734 1.268 . S
O1716 Gd1668 2.545 . S
O1716 C1724 1.250 . S
O1717 Gd1668 2.412 . S
O1717 C1727 1.252 . S
O1718 Gd1669 2.545 . S
O1718 C1736 1.258 . S
O1719 Gd1668 2.362 . S
O1719 Gd1669 2.606 . S
O1719 C1735 1.284 . S
O1720 Gd1668 2.324 . S
O1720 C1743 1.254 . S
O1721 Gd1669 2.429 . S
O1721 C1743 1.268 . S
O1722 Gd1669 2.545 . S
O1722 C1735 1.250 . S
O1723 Gd1669 2.412 . S
O1723 C1736 1.252 . S
C1724 O1713 1.284 . S
C1724 O1716 1.250 . S
C1725 H1694 0.929 . S
C1725 C1710 1.437 . S
C1725 C1726 1.317 . S
C1726 H1697 0.930 . S
C1726 C1702 1.431 . S
C1726 C1725 1.317 . S
C1727 Gd1668 2.828 . S
C1727 O1712 1.258 . S
C1727 O1717 1.252 . S
C1727 C1728 1.497 . S
C1728 C1727 1.497 . S
C1728 C1729 1.395 . S
C1728 C1730 1.380 . S
C1729 C1728 1.395 . S
C1729 C1732 1.398 . S
C1729 H1744 0.930 . S
C1730 C1728 1.380 . S
C1730 C1731 1.391 . S
C1730 H1745 0.930 . S
C1731 C1730 1.391 . S
C1731 C1733 1.387 . S
C1732 C1729 1.398 . S
C1732 C1733 1.380 . S
C1732 H1746 0.930 . S
C1733 C1731 1.387 . S
C1733 C1732 1.380 . S
C1733 H1747 0.930 . S
C1734 O1714 1.254 . S
C1734 O1715 1.268 . S
C1735 O1719 1.284 . S
C1735 O1722 1.250 . S
C1736 Gd1669 2.828 . S
C1736 O1718 1.258 . S
C1736 O1723 1.252 . S
C1736 C1737 1.497 . S
C1737 C1736 1.497 . S
C1737 C1738 1.395 . S
C1737 C1739 1.380 . S
C1738 C1737 1.395 . S
C1738 C1741 1.398 . S
C1738 H1748 0.930 . S
C1739 C1737 1.380 . S
C1739 C1740 1.391 . S
C1739 H1749 0.930 . S
C1740 C1739 1.391 . S
C1740 C1742 1.387 . S
C1741 C1738 1.398 . S
C1741 C1742 1.380 . S
C1741 H1750 0.930 . S
C1742 C1740 1.387 . S
C1742 C1741 1.380 . S
C1742 H1751 0.930 . S
C1743 O1720 1.254 . S
C1743 O1721 1.268 . S
H1744 C1729 0.930 . S
H1745 C1730 0.930 . S
H1746 C1732 0.930 . S
H1747 C1733 0.930 . S
H1748 C1738 0.930 . S
H1749 C1739 0.930 . S
H1750 C1741 0.930 . S
H1751 C1742 0.930 . S
Gd1752 N1783 2.661 . S
Gd1752 N1789 2.601 . S
Gd1752 O1796 2.545 . S
Gd1752 O1797 2.606 . S
Gd1752 O1799 2.429 . S
Gd1752 O1800 2.545 . S
Gd1752 O1801 2.412 . S
Gd1752 O1803 2.362 . S
Gd1752 O1804 2.324 . S
Gd1752 C1811 2.828 . S
Gd1753 N1762 2.661 . S
Gd1753 N1766 2.601 . S
Gd1753 O1797 2.362 . S
Gd1753 O1798 2.324 . S
Gd1753 O1802 2.545 . S
Gd1753 O1803 2.606 . S
Gd1753 O1805 2.429 . S
Gd1753 O1806 2.545 . S
Gd1753 O1807 2.412 . S
Gd1753 C1820 2.828 . S
C1754 C1757 1.417 . S
C1754 C1759 1.431 . S
C1754 C1760 1.412 . S
C1755 C1758 1.437 . S
C1755 C1759 1.317 . S
C1755 H1774 0.929 . S
C1756 C1757 1.426 . S
C1756 C1758 1.413 . S
C1756 N1766 1.359 . S
C1757 C1754 1.417 . S
C1757 C1756 1.426 . S
C1757 N1762 1.350 . S
C1758 C1755 1.437 . S
C1758 C1756 1.413 . S
C1758 C1768 1.391 . S
C1759 C1754 1.431 . S
C1759 C1755 1.317 . S
C1759 H1770 0.930 . S
C1760 C1754 1.412 . S
C1760 C1761 1.355 . S
C1760 H1772 0.930 . S
C1761 C1760 1.355 . S
C1761 C1763 1.402 . S
C1761 H1773 0.930 . S
N1762 Gd1753 2.661 . S
N1762 C1757 1.350 . S
N1762 C1763 1.307 . S
C1763 C1761 1.402 . S
C1763 N1762 1.307 . S
C1763 H1764 0.930 . S
H1764 C1763 0.930 . S
C1765 N1766 1.334 . S
C1765 C1767 1.394 . S
C1765 H1769 0.930 . S
N1766 Gd1753 2.601 . S
N1766 C1756 1.359 . S
N1766 C1765 1.334 . S
C1767 C1765 1.394 . S
C1767 C1768 1.359 . S
C1767 H1779 0.930 . S
C1768 C1758 1.391 . S
C1768 C1767 1.359 . S
C1768 H1780 0.929 . S
H1769 C1765 0.930 . S
H1770 C1759 0.930 . S
H1771 C1788 0.930 . S
H1772 C1760 0.930 . S
H1773 C1761 0.930 . S
H1774 C1755 0.929 . S
H1775 C1793 0.930 . S
H1776 C1784 0.930 . S
H1777 C1785 0.930 . S
H1778 C1809 0.929 . S
H1779 C1767 0.930 . S
H1780 C1768 0.929 . S
H1781 C1810 0.930 . S
H1782 C1791 0.930 . S
N1783 Gd1752 2.661 . S
N1783 C1787 1.350 . S
N1783 C1788 1.307 . S
C1784 H1776 0.930 . S
C1784 C1785 1.355 . S
C1784 C1786 1.412 . S
C1785 H1777 0.930 . S
C1785 C1784 1.355 . S
C1785 C1788 1.402 . S
C1786 C1784 1.412 . S
C1786 C1787 1.417 . S
C1786 C1810 1.431 . S
C1787 N1783 1.350 . S
C1787 C1786 1.417 . S
C1787 C1790 1.426 . S
C1788 H1771 0.930 . S
C1788 N1783 1.307 . S
C1788 C1785 1.402 . S
N1789 Gd1752 2.601 . S
N1789 C1790 1.359 . S
N1789 C1793 1.334 . S
C1790 C1787 1.426 . S
C1790 N1789 1.359 . S
C1790 C1794 1.413 . S
C1791 H1782 0.930 . S
C1791 C1792 1.359 . S
C1791 C1793 1.394 . S
C1792 C1791 1.359 . S
C1792 C1794 1.391 . S
C1792 H1795 0.929 . S
C1793 H1775 0.930 . S
C1793 N1789 1.334 . S
C1793 C1791 1.394 . S
C1794 C1790 1.413 . S
C1794 C1792 1.391 . S
C1794 C1809 1.437 . S
H1795 C1792 0.929 . S
O1796 Gd1752 2.545 . S
O1796 C1811 1.258 . S
O1797 Gd1752 2.606 . S
O1797 Gd1753 2.362 . S
O1797 C1808 1.284 . S
O1798 Gd1753 2.324 . S
O1798 C1818 1.254 . S
O1799 Gd1752 2.429 . S
O1799 C1818 1.268 . S
O1800 Gd1752 2.545 . S
O1800 C1808 1.250 . S
O1801 Gd1752 2.412 . S
O1801 C1811 1.252 . S
O1802 Gd1753 2.545 . S
O1802 C1820 1.258 . S
O1803 Gd1752 2.362 . S
O1803 Gd1753 2.606 . S
O1803 C1819 1.284 . S
O1804 Gd1752 2.324 . S
O1804 C1827 1.254 . S
O1805 Gd1753 2.429 . S
O1805 C1827 1.268 . S
O1806 Gd1753 2.545 . S
O1806 C1819 1.250 . S
O1807 Gd1753 2.412 . S
O1807 C1820 1.252 . S
C1808 O1797 1.284 . S
C1808 O1800 1.250 . S
C1809 H1778 0.929 . S
C1809 C1794 1.437 . S
C1809 C1810 1.317 . S
C1810 H1781 0.930 . S
C1810 C1786 1.431 . S
C1810 C1809 1.317 . S
C1811 Gd1752 2.828 . S
C1811 O1796 1.258 . S
C1811 O1801 1.252 . S
C1811 C1812 1.497 . S
C1812 C1811 1.497 . S
C1812 C1813 1.395 . S
C1812 C1814 1.380 . S
C1813 C1812 1.395 . S
C1813 C1816 1.398 . S
C1813 H1828 0.930 . S
C1814 C1812 1.380 . S
C1814 C1815 1.391 . S
C1814 H1829 0.930 . S
C1815 C1814 1.391 . S
C1815 C1817 1.387 . S
C1816 C1813 1.398 . S
C1816 C1817 1.380 . S
C1816 H1830 0.930 . S
C1817 C1815 1.387 . S
C1817 C1816 1.380 . S
C1817 H1831 0.930 . S
C1818 O1798 1.254 . S
C1818 O1799 1.268 . S
C1819 O1803 1.284 . S
C1819 O1806 1.250 . S
C1820 Gd1753 2.828 . S
C1820 O1802 1.258 . S
C1820 O1807 1.252 . S
C1820 C1821 1.497 . S
C1821 C1820 1.497 . S
C1821 C1822 1.395 . S
C1821 C1823 1.380 . S
C1822 C1821 1.395 . S
C1822 C1825 1.398 . S
C1822 H1832 0.930 . S
C1823 C1821 1.380 . S
C1823 C1824 1.391 . S
C1823 H1833 0.930 . S
C1824 C1823 1.391 . S
C1824 C1826 1.387 . S
C1825 C1822 1.398 . S
C1825 C1826 1.380 . S
C1825 H1834 0.930 . S
C1826 C1824 1.387 . S
C1826 C1825 1.380 . S
C1826 H1835 0.930 . S
C1827 O1804 1.254 . S
C1827 O1805 1.268 . S
H1828 C1813 0.930 . S
H1829 C1814 0.930 . S
H1830 C1816 0.930 . S
H1831 C1817 0.930 . S
H1832 C1822 0.930 . S
H1833 C1823 0.930 . S
H1834 C1825 0.930 . S
H1835 C1826 0.930 . S
H1836 C1844 0.929 . S
H1837 C1846 0.930 . S
H1838 C1848 0.930 . S
H1839 C1851 0.929 . S
H1840 C1854 0.930 . S
H1841 C1856 0.960 . S
H1842 C1856 0.960 . S
H1843 C1856 0.960 . S
C1844 H1836 0.929 . S
C1844 C1845 1.377 . S
C1844 C1846 1.384 . S
C1845 C1844 1.377 . S
C1845 C1851 1.390 . S
C1846 H1837 0.930 . S
C1846 C1844 1.384 . S
C1846 C1847 1.372 . S
C1847 C1846 1.372 . S
C1847 C1848 1.400 . S
C1847 C1852 1.490 . S
C1848 H1838 0.930 . S
C1848 C1847 1.400 . S
C1848 C1851 1.386 . S
H1849 C1865 0.930 . S
H1850 C1866 0.931 . S
C1851 H1839 0.929 . S
C1851 C1845 1.390 . S
C1851 C1848 1.386 . S
C1852 C1847 1.490 . S
C1852 C1854 1.395 . S
C1852 C1855 1.403 . S
H1853 C1859 0.930 . S
C1854 H1840 0.930 . S
C1854 C1852 1.395 . S
C1854 C1857 1.403 . S
C1855 C1852 1.403 . S
C1855 C1856 1.524 . S
C1855 C1859 1.400 . S
C1856 H1841 0.960 . S
C1856 H1842 0.960 . S
C1856 H1843 0.960 . S
C1856 C1855 1.524 . S
C1857 C1854 1.403 . S
C1857 C1858 1.392 . S
C1857 C1861 1.495 . S
C1858 C1857 1.392 . S
C1858 C1859 1.385 . S
C1858 C1860 1.478 . S
C1859 H1853 0.930 . S
C1859 C1855 1.400 . S
C1859 C1858 1.385 . S
C1860 C1858 1.478 . S
C1860 C1862 1.381 . S
C1860 C1866 1.383 . S
C1861 C1857 1.495 . S
C1861 H1867 0.959 . S
C1861 H1868 0.961 . S
C1861 H1869 0.960 . S
C1862 C1860 1.381 . S
C1862 C1863 1.394 . S
C1862 H1870 0.930 . S
C1863 C1862 1.394 . S
C1863 C1864 1.383 . S
C1863 H1871 0.929 . S
C1864 C1863 1.383 . S
C1864 C1865 1.377 . S
C1865 H1849 0.930 . S
C1865 C1864 1.377 . S
C1865 C1866 1.379 . S
C1866 H1850 0.931 . S
C1866 C1860 1.383 . S
C1866 C1865 1.379 . S
H1867 C1861 0.959 . S
H1868 C1861 0.961 . S
H1869 C1861 0.960 . S
H1870 C1862 0.930 . S
H1871 C1863 0.929 . S
H1872 C1880 0.929 . S
H1873 C1882 0.930 . S
H1874 C1884 0.930 . S
H1875 C1887 0.929 . S
H1876 C1890 0.930 . S
H1877 C1892 0.960 . S
H1878 C1892 0.960 . S
H1879 C1892 0.960 . S
C1880 H1872 0.929 . S
C1880 C1881 1.377 . S
C1880 C1882 1.384 . S
C1881 C1880 1.377 . S
C1881 C1887 1.390 . S
C1882 H1873 0.930 . S
C1882 C1880 1.384 . S
C1882 C1883 1.372 . S
C1883 C1882 1.372 . S
C1883 C1884 1.400 . S
C1883 C1888 1.490 . S
C1884 H1874 0.930 . S
C1884 C1883 1.400 . S
C1884 C1887 1.386 . S
H1885 C1901 0.930 . S
H1886 C1902 0.931 . S
C1887 H1875 0.929 . S
C1887 C1881 1.390 . S
C1887 C1884 1.386 . S
C1888 C1883 1.490 . S
C1888 C1890 1.395 . S
C1888 C1891 1.403 . S
H1889 C1895 0.930 . S
C1890 H1876 0.930 . S
C1890 C1888 1.395 . S
C1890 C1893 1.403 . S
C1891 C1888 1.403 . S
C1891 C1892 1.524 . S
C1891 C1895 1.400 . S
C1892 H1877 0.960 . S
C1892 H1878 0.960 . S
C1892 H1879 0.960 . S
C1892 C1891 1.524 . S
C1893 C1890 1.403 . S
C1893 C1894 1.392 . S
C1893 C1897 1.495 . S
C1894 C1893 1.392 . S
C1894 C1895 1.385 . S
C1894 C1896 1.478 . S
C1895 H1889 0.930 . S
C1895 C1891 1.400 . S
C1895 C1894 1.385 . S
C1896 C1894 1.478 . S
C1896 C1898 1.381 . S
C1896 C1902 1.383 . S
C1897 C1893 1.495 . S
C1897 H1903 0.959 . S
C1897 H1904 0.961 . S
C1897 H1905 0.960 . S
C1898 C1896 1.381 . S
C1898 C1899 1.394 . S
C1898 H1906 0.930 . S
C1899 C1898 1.394 . S
C1899 C1900 1.383 . S
C1899 H1907 0.929 . S
C1900 C1899 1.383 . S
C1900 C1901 1.377 . S
C1901 H1885 0.930 . S
C1901 C1900 1.377 . S
C1901 C1902 1.379 . S
C1902 H1886 0.931 . S
C1902 C1896 1.383 . S
C1902 C1901 1.379 . S
H1903 C1897 0.959 . S
H1904 C1897 0.961 . S
H1905 C1897 0.960 . S
H1906 C1898 0.930 . S
H1907 C1899 0.929 . S
H1908 C1916 0.929 . S
H1909 C1918 0.930 . S
H1910 C1920 0.930 . S
H1911 C1923 0.929 . S
H1912 C1926 0.930 . S
H1913 C1928 0.960 . S
H1914 C1928 0.960 . S
H1915 C1928 0.960 . S
C1916 H1908 0.929 . S
C1916 C1917 1.377 . S
C1916 C1918 1.384 . S
C1917 C1916 1.377 . S
C1917 C1923 1.390 . S
C1918 H1909 0.930 . S
C1918 C1916 1.384 . S
C1918 C1919 1.372 . S
C1919 C1918 1.372 . S
C1919 C1920 1.400 . S
C1919 C1924 1.490 . S
C1920 H1910 0.930 . S
C1920 C1919 1.400 . S
C1920 C1923 1.386 . S
H1921 C1937 0.930 . S
H1922 C1938 0.931 . S
C1923 H1911 0.929 . S
C1923 C1917 1.390 . S
C1923 C1920 1.386 . S
C1924 C1919 1.490 . S
C1924 C1926 1.395 . S
C1924 C1927 1.403 . S
H1925 C1931 0.930 . S
C1926 H1912 0.930 . S
C1926 C1924 1.395 . S
C1926 C1929 1.403 . S
C1927 C1924 1.403 . S
C1927 C1928 1.524 . S
C1927 C1931 1.400 . S
C1928 H1913 0.960 . S
C1928 H1914 0.960 . S
C1928 H1915 0.960 . S
C1928 C1927 1.524 . S
C1929 C1926 1.403 . S
C1929 C1930 1.392 . S
C1929 C1933 1.495 . S
C1930 C1929 1.392 . S
C1930 C1931 1.385 . S
C1930 C1932 1.478 . S
C1931 H1925 0.930 . S
C1931 C1927 1.400 . S
C1931 C1930 1.385 . S
C1932 C1930 1.478 . S
C1932 C1934 1.381 . S
C1932 C1938 1.383 . S
C1933 C1929 1.495 . S
C1933 H1939 0.959 . S
C1933 H1940 0.961 . S
C1933 H1941 0.960 . S
C1934 C1932 1.381 . S
C1934 C1935 1.394 . S
C1934 H1942 0.930 . S
C1935 C1934 1.394 . S
C1935 C1936 1.383 . S
C1935 H1943 0.859 1_554 S
C1936 C1935 1.383 . S
C1936 C1937 1.377 . S
C1937 H1921 0.930 . S
C1937 C1936 1.377 . S
C1937 C1938 1.379 . S
C1938 H1922 0.931 . S
C1938 C1932 1.383 . S
C1938 C1937 1.379 . S
H1939 C1933 0.959 . S
H1940 C1933 0.961 . S
H1941 C1933 0.960 . S
H1942 C1934 0.930 . S
H1943 C1935 0.859 1_556 S
H1944 C1952 0.929 . S
H1945 C1954 0.930 . S
H1946 C1956 0.930 . S
H1947 C1959 0.929 . S
H1948 C1962 0.930 . S
H1949 C1964 0.960 . S
H1950 C1964 0.960 . S
H1951 C1964 0.960 . S
C1952 H1944 0.929 . S
C1952 C1953 1.377 . S
C1952 C1954 1.384 . S
C1953 C1952 1.377 . S
C1953 C1959 1.390 . S
C1954 H1945 0.930 . S
C1954 C1952 1.384 . S
C1954 C1955 1.372 . S
C1955 C1954 1.372 . S
C1955 C1956 1.400 . S
C1955 C1960 1.490 . S
C1956 H1946 0.930 . S
C1956 C1955 1.400 . S
C1956 C1959 1.386 . S
H1957 C1973 0.874 1_554 S
H1958 C1974 0.931 . S
C1959 H1947 0.929 . S
C1959 C1953 1.390 . S
C1959 C1956 1.386 . S
C1960 C1955 1.490 . S
C1960 C1962 1.395 . S
C1960 C1963 1.403 . S
H1961 C1967 0.930 . S
C1962 H1948 0.930 . S
C1962 C1960 1.395 . S
C1962 C1965 1.403 . S
C1963 C1960 1.403 . S
C1963 C1964 1.524 . S
C1963 C1967 1.400 . S
C1964 H1949 0.960 . S
C1964 H1950 0.960 . S
C1964 H1951 0.960 . S
C1964 C1963 1.524 . S
C1965 C1962 1.403 . S
C1965 C1966 1.392 . S
C1965 C1969 1.495 . S
C1966 C1965 1.392 . S
C1966 C1967 1.385 . S
C1966 C1968 1.478 . S
C1967 H1961 0.930 . S
C1967 C1963 1.400 . S
C1967 C1966 1.385 . S
C1968 C1966 1.478 . S
C1968 C1970 1.381 . S
C1968 C1974 1.383 . S
C1969 C1965 1.495 . S
C1969 H1975 0.959 . S
C1969 H1976 0.961 . S
C1969 H1977 0.960 . S
C1970 C1968 1.381 . S
C1970 C1971 1.394 . S
C1970 H1978 0.930 . S
C1971 C1970 1.394 . S
C1971 C1972 1.383 . S
C1971 H1979 0.929 . S
C1972 C1971 1.383 . S
C1972 C1973 1.377 . S
C1973 H1957 0.874 1_556 S
C1973 C1972 1.377 . S
C1973 C1974 1.379 . S
C1974 H1958 0.931 . S
C1974 C1968 1.383 . S
C1974 C1973 1.379 . S
H1975 C1969 0.959 . S
H1976 C1969 0.961 . S
H1977 C1969 0.960 . S
H1978 C1970 0.930 . S
H1979 C1971 0.929 . S
H1980 C1988 0.929 . S
H1981 C1990 0.930 . S
H1982 C1992 0.930 . S
H1983 C1995 0.929 . S
H1984 C1998 0.930 . S
H1985 C2000 0.960 . S
H1986 C2000 0.960 . S
H1987 C2000 0.960 . S
C1988 H1980 0.929 . S
C1988 C1989 1.377 . S
C1988 C1990 1.384 . S
C1989 C1988 1.377 . S
C1989 C1995 1.390 . S
C1990 H1981 0.930 . S
C1990 C1988 1.384 . S
C1990 C1991 1.372 . S
C1991 C1990 1.372 . S
C1991 C1992 1.400 . S
C1991 C1996 1.490 . S
C1992 H1982 0.930 . S
C1992 C1991 1.400 . S
C1992 C1995 1.386 . S
H1993 C2009 0.930 . S
H1994 C2010 0.931 . S
C1995 H1983 0.929 . S
C1995 C1989 1.390 . S
C1995 C1992 1.386 . S
C1996 C1991 1.490 . S
C1996 C1998 1.395 . S
C1996 C1999 1.403 . S
H1997 C2003 0.930 . S
C1998 H1984 0.930 . S
C1998 C1996 1.395 . S
C1998 C2001 1.403 . S
C1999 C1996 1.403 . S
C1999 C2000 1.524 . S
C1999 C2003 1.400 . S
C2000 H1985 0.960 . S
C2000 H1986 0.960 . S
C2000 H1987 0.960 . S
C2000 C1999 1.524 . S
C2001 C1998 1.403 . S
C2001 C2002 1.392 . S
C2001 C2005 1.495 . S
C2002 C2001 1.392 . S
C2002 C2003 1.385 . S
C2002 C2004 1.478 . S
C2003 H1997 0.930 . S
C2003 C1999 1.400 . S
C2003 C2002 1.385 . S
C2004 C2002 1.478 . S
C2004 C2006 1.381 . S
C2004 C2010 1.383 . S
C2005 C2001 1.495 . S
C2005 H2011 0.959 . S
C2005 H2012 0.961 . S
C2005 H2013 0.960 . S
C2006 C2004 1.381 . S
C2006 C2007 1.394 . S
C2006 H2014 0.930 . S
C2007 C2006 1.394 . S
C2007 C2008 1.383 . S
C2007 H2015 0.929 . S
C2008 C2007 1.383 . S
C2008 C2009 1.377 . S
C2009 H1993 0.930 . S
C2009 C2008 1.377 . S
C2009 C2010 1.379 . S
C2010 H1994 0.931 . S
C2010 C2004 1.383 . S
C2010 C2009 1.379 . S
H2011 C2005 0.959 . S
H2012 C2005 0.961 . S
H2013 C2005 0.960 . S
H2014 C2006 0.930 . S
H2015 C2007 0.929 . S
H2016 C2024 0.929 . S
H2017 C2026 0.930 . S
H2018 C2028 0.930 . S
H2019 C2031 0.929 . S
H2020 C2034 0.930 . S
H2021 C2036 0.960 . S
H2022 C2036 0.960 . S
H2023 C2036 0.960 . S
C2024 H2016 0.929 . S
C2024 C2025 1.377 . S
C2024 C2026 1.384 . S
C2025 C2024 1.377 . S
C2025 C2031 1.390 . S
C2026 H2017 0.930 . S
C2026 C2024 1.384 . S
C2026 C2027 1.372 . S
C2027 C2026 1.372 . S
C2027 C2028 1.400 . S
C2027 C2032 1.490 . S
C2028 H2018 0.930 . S
C2028 C2027 1.400 . S
C2028 C2031 1.386 . S
H2029 C2045 0.930 . S
H2030 C2046 0.931 . S
C2031 H2019 0.929 . S
C2031 C2025 1.390 . S
C2031 C2028 1.386 . S
C2032 C2027 1.490 . S
C2032 C2034 1.395 . S
C2032 C2035 1.403 . S
H2033 C2039 0.930 . S
C2034 H2020 0.930 . S
C2034 C2032 1.395 . S
C2034 C2037 1.403 . S
C2035 C2032 1.403 . S
C2035 C2036 1.524 . S
C2035 C2039 1.400 . S
C2036 H2021 0.960 . S
C2036 H2022 0.960 . S
C2036 H2023 0.960 . S
C2036 C2035 1.524 . S
C2037 C2034 1.403 . S
C2037 C2038 1.392 . S
C2037 C2041 1.495 . S
C2038 C2037 1.392 . S
C2038 C2039 1.385 . S
C2038 C2040 1.478 . S
C2039 H2033 0.930 . S
C2039 C2035 1.400 . S
C2039 C2038 1.385 . S
C2040 C2038 1.478 . S
C2040 C2042 1.381 . S
C2040 C2046 1.383 . S
C2041 C2037 1.495 . S
C2041 H2047 0.959 . S
C2041 H2048 0.961 . S
C2041 H2049 0.960 . S
C2042 C2040 1.381 . S
C2042 C2043 1.394 . S
C2042 H2050 0.930 . S
C2043 C2042 1.394 . S
C2043 C2044 1.383 . S
C2043 H2051 0.895 1_556 S
C2044 C2043 1.383 . S
C2044 C2045 1.377 . S
C2045 H2029 0.930 . S
C2045 C2044 1.377 . S
C2045 C2046 1.379 . S
C2046 H2030 0.931 . S
C2046 C2040 1.383 . S
C2046 C2045 1.379 . S
H2047 C2041 0.959 . S
H2048 C2041 0.961 . S
H2049 C2041 0.960 . S
H2050 C2042 0.930 . S
H2051 C2043 0.895 1_554 S
H2052 C2060 0.929 . S
H2053 C2062 0.930 . S
H2054 C2064 0.930 . S
H2055 C2067 0.929 . S
H2056 C2070 0.930 . S
H2057 C2072 0.960 . S
H2058 C2072 0.960 . S
H2059 C2072 0.960 . S
C2060 H2052 0.929 . S
C2060 C2061 1.377 . S
C2060 C2062 1.384 . S
C2061 C2060 1.377 . S
C2061 C2067 1.390 . S
C2062 H2053 0.930 . S
C2062 C2060 1.384 . S
C2062 C2063 1.372 . S
C2063 C2062 1.372 . S
C2063 C2064 1.400 . S
C2063 C2068 1.490 . S
C2064 H2054 0.930 . S
C2064 C2063 1.400 . S
C2064 C2067 1.386 . S
H2065 C2081 0.930 . S
H2066 C2082 0.931 . S
C2067 H2055 0.929 . S
C2067 C2061 1.390 . S
C2067 C2064 1.386 . S
C2068 C2063 1.490 . S
C2068 C2070 1.395 . S
C2068 C2071 1.403 . S
H2069 C2075 0.930 . S
C2070 H2056 0.930 . S
C2070 C2068 1.395 . S
C2070 C2073 1.403 . S
C2071 C2068 1.403 . S
C2071 C2072 1.524 . S
C2071 C2075 1.400 . S
C2072 H2057 0.960 . S
C2072 H2058 0.960 . S
C2072 H2059 0.960 . S
C2072 C2071 1.524 . S
C2073 C2070 1.403 . S
C2073 C2074 1.392 . S
C2073 C2077 1.495 . S
C2074 C2073 1.392 . S
C2074 C2075 1.385 . S
C2074 C2076 1.478 . S
C2075 H2069 0.930 . S
C2075 C2071 1.400 . S
C2075 C2074 1.385 . S
C2076 C2074 1.478 . S
C2076 C2078 1.381 . S
C2076 C2082 1.383 . S
C2077 C2073 1.495 . S
C2077 H2083 0.959 . S
C2077 H2084 0.961 . S
C2077 H2085 0.960 . S
C2078 C2076 1.381 . S
C2078 C2079 1.394 . S
C2078 H2086 0.930 . S
C2079 C2078 1.394 . S
C2079 C2080 1.383 . S
C2079 H2087 0.929 1_556 S
C2080 C2079 1.383 . S
C2080 C2081 1.377 . S
C2081 H2065 0.930 . S
C2081 C2080 1.377 . S
C2081 C2082 1.379 . S
C2082 H2066 0.931 . S
C2082 C2076 1.383 . S
C2082 C2081 1.379 . S
H2083 C2077 0.959 . S
H2084 C2077 0.961 . S
H2085 C2077 0.960 . S
H2086 C2078 0.930 . S
H2087 C2079 0.929 1_554 S
H2088 C2096 0.929 . S
H2089 C2098 0.930 . S
H2090 C2100 0.930 . S
H2091 C2103 0.929 . S
H2092 C2106 0.930 . S
H2093 C2108 0.960 . S
H2094 C2108 0.960 . S
H2095 C2108 0.960 . S
C2096 H2088 0.929 . S
C2096 C2097 1.377 . S
C2096 C2098 1.384 . S
C2097 C2096 1.377 . S
C2097 C2103 1.390 . S
C2098 H2089 0.930 . S
C2098 C2096 1.384 . S
C2098 C2099 1.372 . S
C2099 C2098 1.372 . S
C2099 C2100 1.400 . S
C2099 C2104 1.490 . S
C2100 H2090 0.930 . S
C2100 C2099 1.400 . S
C2100 C2103 1.386 . S
H2101 C2117 0.930 . S
H2102 C2118 0.931 . S
C2103 H2091 0.929 . S
C2103 C2097 1.390 . S
C2103 C2100 1.386 . S
C2104 C2099 1.490 . S
C2104 C2106 1.395 . S
C2104 C2107 1.403 . S
H2105 C2111 0.930 . S
C2106 H2092 0.930 . S
C2106 C2104 1.395 . S
C2106 C2109 1.403 . S
C2107 C2104 1.403 . S
C2107 C2108 1.524 . S
C2107 C2111 1.400 . S
C2108 H2093 0.960 . S
C2108 H2094 0.960 . S
C2108 H2095 0.960 . S
C2108 C2107 1.524 . S
C2109 C2106 1.403 . S
C2109 C2110 1.392 . S
C2109 C2113 1.495 . S
C2110 C2109 1.392 . S
C2110 C2111 1.385 . S
C2110 C2112 1.478 . S
C2111 H2105 0.930 . S
C2111 C2107 1.400 . S
C2111 C2110 1.385 . S
C2112 C2110 1.478 . S
C2112 C2114 1.381 . S
C2112 C2118 1.383 . S
C2113 C2109 1.495 . S
C2113 H2119 0.959 . S
C2113 H2120 0.961 . S
C2113 H2121 0.960 . S
C2114 C2112 1.381 . S
C2114 C2115 1.394 . S
C2114 H2122 0.930 . S
C2115 C2114 1.394 . S
C2115 C2116 1.383 . S
C2115 H2123 0.929 1_556 S
C2116 C2115 1.383 . S
C2116 C2117 1.377 . S
C2117 H2101 0.930 . S
C2117 C2116 1.377 . S
C2117 C2118 1.379 . S
C2118 H2102 0.931 . S
C2118 C2112 1.383 . S
C2118 C2117 1.379 . S
H2119 C2113 0.959 . S
H2120 C2113 0.961 . S
H2121 C2113 0.960 . S
H2122 C2114 0.930 . S
H2123 C2115 0.929 1_554 S
H2124 C2132 0.929 . S
H2125 C2134 0.930 . S
H2126 C2136 0.930 . S
H2127 C2139 0.929 . S
H2128 C2142 0.930 . S
H2129 C2144 0.960 . S
H2130 C2144 0.960 . S
H2131 C2144 0.960 . S
C2132 H2124 0.929 . S
C2132 C2133 1.377 . S
C2132 C2134 1.384 . S
C2133 C2132 1.377 . S
C2133 C2139 1.390 . S
C2134 H2125 0.930 . S
C2134 C2132 1.384 . S
C2134 C2135 1.372 . S
C2135 C2134 1.372 . S
C2135 C2136 1.400 . S
C2135 C2140 1.490 . S
C2136 H2126 0.930 . S
C2136 C2135 1.400 . S
C2136 C2139 1.386 . S
H2137 C2153 0.930 1_554 S
H2138 C2154 0.931 . S
C2139 H2127 0.929 . S
C2139 C2133 1.390 . S
C2139 C2136 1.386 . S
C2140 C2135 1.490 . S
C2140 C2142 1.395 . S
C2140 C2143 1.403 . S
H2141 C2147 0.930 . S
C2142 H2128 0.930 . S
C2142 C2140 1.395 . S
C2142 C2145 1.403 . S
C2143 C2140 1.403 . S
C2143 C2144 1.524 . S
C2143 C2147 1.400 . S
C2144 H2129 0.960 . S
C2144 H2130 0.960 . S
C2144 H2131 0.960 . S
C2144 C2143 1.524 . S
C2145 C2142 1.403 . S
C2145 C2146 1.392 . S
C2145 C2149 1.495 . S
C2146 C2145 1.392 . S
C2146 C2147 1.385 . S
C2146 C2148 1.478 . S
C2147 H2141 0.930 . S
C2147 C2143 1.400 . S
C2147 C2146 1.385 . S
C2148 C2146 1.478 . S
C2148 C2150 1.381 . S
C2148 C2154 1.383 . S
C2149 C2145 1.495 . S
C2149 H2155 0.959 . S
C2149 H2156 0.961 . S
C2149 H2157 0.960 . S
C2150 C2148 1.381 . S
C2150 C2151 1.394 . S
C2150 H2158 0.930 . S
C2151 C2150 1.394 . S
C2151 C2152 1.383 . S
C2151 H2159 0.929 . S
C2152 C2151 1.383 . S
C2152 C2153 1.377 . S
C2153 H2137 0.930 1_556 S
C2153 C2152 1.377 . S
C2153 C2154 1.379 . S
C2154 H2138 0.931 . S
C2154 C2148 1.383 . S
C2154 C2153 1.379 . S
H2155 C2149 0.959 . S
H2156 C2149 0.961 . S
H2157 C2149 0.960 . S
H2158 C2150 0.930 . S
H2159 C2151 0.929 . S
H2160 C2168 0.929 . S
H2161 C2170 0.930 . S
H2162 C2172 0.930 . S
H2163 C2175 0.929 . S
H2164 C2178 0.930 . S
H2165 C2180 0.960 . S
H2166 C2180 0.960 . S
H2167 C2180 0.960 . S
C2168 H2160 0.929 . S
C2168 C2169 1.377 . S
C2168 C2170 1.384 . S
C2169 C2168 1.377 . S
C2169 C2175 1.390 . S
C2170 H2161 0.930 . S
C2170 C2168 1.384 . S
C2170 C2171 1.372 . S
C2171 C2170 1.372 . S
C2171 C2172 1.400 . S
C2171 C2176 1.490 . S
C2172 H2162 0.930 . S
C2172 C2171 1.400 . S
C2172 C2175 1.386 . S
H2173 C2189 0.930 . S
H2174 C2190 0.931 . S
C2175 H2163 0.929 . S
C2175 C2169 1.390 . S
C2175 C2172 1.386 . S
C2176 C2171 1.490 . S
C2176 C2178 1.395 . S
C2176 C2179 1.403 . S
H2177 C2183 0.930 . S
C2178 H2164 0.930 . S
C2178 C2176 1.395 . S
C2178 C2181 1.403 . S
C2179 C2176 1.403 . S
C2179 C2180 1.524 . S
C2179 C2183 1.400 . S
C2180 H2165 0.960 . S
C2180 H2166 0.960 . S
C2180 H2167 0.960 . S
C2180 C2179 1.524 . S
C2181 C2178 1.403 . S
C2181 C2182 1.392 . S
C2181 C2185 1.495 . S
C2182 C2181 1.392 . S
C2182 C2183 1.385 . S
C2182 C2184 1.478 . S
C2183 H2177 0.930 . S
C2183 C2179 1.400 . S
C2183 C2182 1.385 . S
C2184 C2182 1.478 . S
C2184 C2186 1.381 . S
C2184 C2190 1.383 . S
C2185 C2181 1.495 . S
C2185 H2191 0.959 . S
C2185 H2192 0.961 . S
C2185 H2193 0.960 . S
C2186 C2184 1.381 . S
C2186 C2187 1.394 . S
C2186 H2194 0.930 . S
C2187 C2186 1.394 . S
C2187 C2188 1.383 . S
C2187 H2195 0.916 1_554 S
C2188 C2187 1.383 . S
C2188 C2189 1.377 . S
C2189 H2173 0.930 . S
C2189 C2188 1.377 . S
C2189 C2190 1.379 . S
C2190 H2174 0.931 . S
C2190 C2184 1.383 . S
C2190 C2189 1.379 . S
H2191 C2185 0.959 . S
H2192 C2185 0.961 . S
H2193 C2185 0.960 . S
H2194 C2186 0.930 . S
H2195 C2187 0.916 1_556 S
H2196 C2204 0.929 . S
H2197 C2206 0.930 . S
H2198 C2208 0.930 . S
H2199 C2211 0.929 . S
H2200 C2214 0.930 . S
H2201 C2216 0.960 . S
H2202 C2216 0.960 . S
H2203 C2216 0.960 . S
C2204 H2196 0.929 . S
C2204 C2205 1.377 . S
C2204 C2206 1.384 . S
C2205 C2204 1.377 . S
C2205 C2211 1.390 . S
C2206 H2197 0.930 . S
C2206 C2204 1.384 . S
C2206 C2207 1.372 . S
C2207 C2206 1.372 . S
C2207 C2208 1.400 . S
C2207 C2212 1.490 . S
C2208 H2198 0.930 . S
C2208 C2207 1.400 . S
C2208 C2211 1.386 . S
H2209 C2225 0.930 . S
H2210 C2226 0.931 . S
C2211 H2199 0.929 . S
C2211 C2205 1.390 . S
C2211 C2208 1.386 . S
C2212 C2207 1.490 . S
C2212 C2214 1.395 . S
C2212 C2215 1.403 . S
H2213 C2219 0.930 . S
C2214 H2200 0.930 . S
C2214 C2212 1.395 . S
C2214 C2217 1.403 . S
C2215 C2212 1.403 . S
C2215 C2216 1.524 . S
C2215 C2219 1.400 . S
C2216 H2201 0.960 . S
C2216 H2202 0.960 . S
C2216 H2203 0.960 . S
C2216 C2215 1.524 . S
C2217 C2214 1.403 . S
C2217 C2218 1.392 . S
C2217 C2221 1.495 . S
C2218 C2217 1.392 . S
C2218 C2219 1.385 . S
C2218 C2220 1.478 . S
C2219 H2213 0.930 . S
C2219 C2215 1.400 . S
C2219 C2218 1.385 . S
C2220 C2218 1.478 . S
C2220 C2222 1.381 . S
C2220 C2226 1.383 . S
C2221 C2217 1.495 . S
C2221 H2227 0.959 . S
C2221 H2228 0.961 . S
C2221 H2229 0.960 . S
C2222 C2220 1.381 . S
C2222 C2223 1.394 . S
C2222 H2230 0.930 . S
C2223 C2222 1.394 . S
C2223 C2224 1.383 . S
C2223 H2231 0.929 . S
C2224 C2223 1.383 . S
C2224 C2225 1.377 . S
C2225 H2209 0.930 . S
C2225 C2224 1.377 . S
C2225 C2226 1.379 . S
C2226 H2210 0.931 . S
C2226 C2220 1.383 . S
C2226 C2225 1.379 . S
H2227 C2221 0.959 . S
H2228 C2221 0.961 . S
H2229 C2221 0.960 . S
H2230 C2222 0.930 . S
H2231 C2223 0.929 . S
H2232 C2240 0.929 . S
H2233 C2242 0.930 . S
H2234 C2244 0.930 . S
H2235 C2247 0.929 . S
H2236 C2250 0.930 . S
H2237 C2252 0.960 . S
H2238 C2252 0.960 . S
H2239 C2252 0.960 . S
C2240 H2232 0.929 . S
C2240 C2241 1.377 . S
C2240 C2242 1.384 . S
C2241 C2240 1.377 . S
C2241 C2247 1.390 . S
C2242 H2233 0.930 . S
C2242 C2240 1.384 . S
C2242 C2243 1.372 . S
C2243 C2242 1.372 . S
C2243 C2244 1.400 . S
C2243 C2248 1.490 . S
C2244 H2234 0.930 . S
C2244 C2243 1.400 . S
C2244 C2247 1.386 . S
H2245 C2261 0.930 . S
H2246 C2262 0.931 . S
C2247 H2235 0.929 . S
C2247 C2241 1.390 . S
C2247 C2244 1.386 . S
C2248 C2243 1.490 . S
C2248 C2250 1.395 . S
C2248 C2251 1.403 . S
H2249 C2255 0.930 . S
C2250 H2236 0.930 . S
C2250 C2248 1.395 . S
C2250 C2253 1.403 . S
C2251 C2248 1.403 . S
C2251 C2252 1.524 . S
C2251 C2255 1.400 . S
C2252 H2237 0.960 . S
C2252 H2238 0.960 . S
C2252 H2239 0.960 . S
C2252 C2251 1.524 . S
C2253 C2250 1.403 . S
C2253 C2254 1.392 . S
C2253 C2257 1.495 . S
C2254 C2253 1.392 . S
C2254 C2255 1.385 . S
C2254 C2256 1.478 . S
C2255 H2249 0.930 . S
C2255 C2251 1.400 . S
C2255 C2254 1.385 . S
C2256 C2254 1.478 . S
C2256 C2258 1.381 . S
C2256 C2262 1.383 . S
C2257 C2253 1.495 . S
C2257 H2263 0.959 . S
C2257 H2264 0.961 . S
C2257 H2265 0.960 . S
C2258 C2256 1.381 . S
C2258 C2259 1.394 . S
C2258 H2266 0.930 . S
C2259 C2258 1.394 . S
C2259 C2260 1.383 . S
C2259 H2267 0.929 . S
C2260 C2259 1.383 . S
C2260 C2261 1.377 . S
C2261 H2245 0.930 . S
C2261 C2260 1.377 . S
C2261 C2262 1.379 . S
C2262 H2246 0.931 . S
C2262 C2256 1.383 . S
C2262 C2261 1.379 . S
H2263 C2257 0.959 . S
H2264 C2257 0.961 . S
H2265 C2257 0.960 . S
H2266 C2258 0.930 . S
H2267 C2259 0.929 . S
H2268 C2276 0.929 . S
H2269 C2278 0.930 1_455 S
H2270 C2280 0.927 . S
H2271 C2283 0.929 . S
H2272 C2286 0.930 . S
H2273 C2288 0.960 . S
H2274 C2288 0.960 . S
H2275 C2288 0.960 . S
C2276 H2268 0.929 . S
C2276 C2277 1.377 . S
C2276 C2278 1.384 . S
C2277 C2276 1.377 . S
C2277 C2283 1.390 . S
C2278 H2269 0.930 1_655 S
C2278 C2276 1.384 . S
C2278 C2279 1.372 1_655 S
C2279 C2278 1.372 1_455 S
C2279 C2280 1.400 1_455 S
C2279 C2284 1.490 . S
C2280 H2270 0.927 . S
C2280 C2279 1.400 1_655 S
C2280 C2283 1.386 . S
H2281 C2297 0.930 . S
H2282 C2298 0.931 . S
C2283 H2271 0.929 . S
C2283 C2277 1.390 . S
C2283 C2280 1.386 . S
C2284 C2279 1.490 . S
C2284 C2286 1.395 . S
C2284 C2287 1.403 . S
H2285 C2291 0.930 . S
C2286 H2272 0.930 . S
C2286 C2284 1.395 . S
C2286 C2289 1.403 . S
C2287 C2284 1.403 . S
C2287 C2288 1.524 . S
C2287 C2291 1.400 . S
C2288 H2273 0.960 . S
C2288 H2274 0.960 . S
C2288 H2275 0.960 . S
C2288 C2287 1.524 . S
C2289 C2286 1.403 . S
C2289 C2290 1.392 . S
C2289 C2293 1.495 . S
C2290 C2289 1.392 . S
C2290 C2291 1.385 . S
C2290 C2292 1.478 . S
C2291 H2285 0.930 . S
C2291 C2287 1.400 . S
C2291 C2290 1.385 . S
C2292 C2290 1.478 . S
C2292 C2294 1.381 . S
C2292 C2298 1.383 . S
C2293 C2289 1.495 . S
C2293 H2299 0.959 . S
C2293 H2300 0.961 . S
C2293 H2301 0.960 . S
C2294 C2292 1.381 . S
C2294 C2295 1.394 . S
C2294 H2302 0.930 . S
C2295 C2294 1.394 . S
C2295 C2296 1.383 . S
C2295 H2303 0.929 . S
C2296 C2295 1.383 . S
C2296 C2297 1.377 . S
C2297 H2281 0.930 . S
C2297 C2296 1.377 . S
C2297 C2298 1.379 . S
C2298 H2282 0.931 . S
C2298 C2292 1.383 . S
C2298 C2297 1.379 . S
H2299 C2293 0.959 . S
H2300 C2293 0.961 . S
H2301 C2293 0.960 . S
H2302 C2294 0.930 . S
H2303 C2295 0.929 . S
H2304 C2312 0.929 . S
H2305 C2314 0.930 . S
H2306 C2316 0.930 . S
H2307 C2319 0.929 . S
H2308 C2322 0.930 . S
H2309 C2324 0.960 . S
H2310 C2324 0.960 . S
H2311 C2324 0.960 . S
C2312 H2304 0.929 . S
C2312 C2313 1.377 . S
C2312 C2314 1.384 . S
C2313 C2312 1.377 . S
C2313 C2319 1.390 . S
C2314 H2305 0.930 . S
C2314 C2312 1.384 . S
C2314 C2315 1.372 . S
C2315 C2314 1.372 . S
C2315 C2316 1.400 . S
C2315 C2320 1.490 . S
C2316 H2306 0.930 . S
C2316 C2315 1.400 . S
C2316 C2319 1.386 . S
H2317 C2333 0.930 . S
H2318 C2334 0.931 . S
C2319 H2307 0.929 . S
C2319 C2313 1.390 . S
C2319 C2316 1.386 . S
C2320 C2315 1.490 . S
C2320 C2322 1.395 . S
C2320 C2323 1.403 . S
H2321 C2327 0.930 . S
C2322 H2308 0.930 . S
C2322 C2320 1.395 . S
C2322 C2325 1.403 . S
C2323 C2320 1.403 . S
C2323 C2324 1.524 . S
C2323 C2327 1.400 . S
C2324 H2309 0.960 . S
C2324 H2310 0.960 . S
C2324 H2311 0.960 . S
C2324 C2323 1.524 . S
C2325 C2322 1.403 . S
C2325 C2326 1.392 . S
C2325 C2329 1.495 . S
C2326 C2325 1.392 . S
C2326 C2327 1.385 . S
C2326 C2328 1.478 . S
C2327 H2321 0.930 . S
C2327 C2323 1.400 . S
C2327 C2326 1.385 . S
C2328 C2326 1.478 . S
C2328 C2330 1.381 . S
C2328 C2334 1.383 . S
C2329 C2325 1.495 . S
C2329 H2335 0.959 . S
C2329 H2336 0.961 . S
C2329 H2337 0.960 . S
C2330 C2328 1.381 . S
C2330 C2331 1.394 . S
C2330 H2338 0.930 . S
C2331 C2330 1.394 . S
C2331 C2332 1.383 . S
C2331 H2339 0.929 . S
C2332 C2331 1.383 . S
C2332 C2333 1.377 . S
C2333 H2317 0.930 . S
C2333 C2332 1.377 . S
C2333 C2334 1.379 . S
C2334 H2318 0.931 . S
C2334 C2328 1.383 . S
C2334 C2333 1.379 . S
H2335 C2329 0.959 . S
H2336 C2329 0.961 . S
H2337 C2329 0.960 . S
H2338 C2330 0.930 . S
H2339 C2331 0.929 . S
H2340 C2348 0.929 . S
H2341 C2350 0.930 . S
H2342 C2352 0.927 1_565 S
H2343 C2355 0.929 . S
H2344 C2358 0.930 . S
H2345 C2360 0.960 . S
H2346 C2360 0.992 . S
H2347 C2360 0.960 . S
C2348 H2340 0.929 . S
C2348 C2349 1.377 . S
C2348 C2350 1.384 . S
C2349 C2348 1.377 . S
C2349 C2355 1.390 . S
C2350 H2341 0.930 . S
C2350 C2348 1.384 . S
C2350 C2351 1.372 . S
C2351 C2350 1.372 . S
C2351 C2352 1.400 . S
C2351 C2356 1.490 1_545 S
C2352 H2342 0.927 1_545 S
C2352 C2351 1.400 . S
C2352 C2355 1.386 . S
H2353 C2369 0.930 . S
H2354 C2370 0.931 . S
C2355 H2343 0.929 . S
C2355 C2349 1.390 . S
C2355 C2352 1.386 . S
C2356 C2351 1.490 1_565 S
C2356 C2358 1.395 . S
C2356 C2359 1.403 . S
H2357 C2363 0.930 . S
C2358 H2344 0.930 . S
C2358 C2356 1.395 . S
C2358 C2361 1.403 . S
C2359 C2356 1.403 . S
C2359 C2360 1.524 . S
C2359 C2363 1.400 . S
C2360 H2345 0.960 . S
C2360 H2346 0.992 . S
C2360 H2347 0.960 . S
C2360 C2359 1.524 . S
C2361 C2358 1.403 . S
C2361 C2362 1.392 . S
C2361 C2365 1.495 . S
C2362 C2361 1.392 . S
C2362 C2363 1.385 . S
C2362 C2364 1.478 . S
C2363 H2357 0.930 . S
C2363 C2359 1.400 . S
C2363 C2362 1.385 . S
C2364 C2362 1.478 . S
C2364 C2366 1.381 . S
C2364 C2370 1.383 . S
C2365 C2361 1.495 . S
C2365 H2371 0.959 . S
C2365 H2372 0.961 . S
C2365 H2373 0.960 . S
C2366 C2364 1.381 . S
C2366 C2367 1.394 . S
C2366 H2374 0.930 . S
C2367 C2366 1.394 . S
C2367 C2368 1.383 . S
C2367 H2375 0.929 . S
C2368 C2367 1.383 . S
C2368 C2369 1.377 . S
C2369 H2353 0.930 . S
C2369 C2368 1.377 . S
C2369 C2370 1.379 . S
C2370 H2354 0.931 . S
C2370 C2364 1.383 . S
C2370 C2369 1.379 . S
H2371 C2365 0.959 . S
H2372 C2365 0.961 . S
H2373 C2365 0.960 . S
H2374 C2366 0.930 . S
H2375 C2367 0.929 . S
H2376 C2384 0.929 . S
H2377 C2386 0.930 . S
H2378 C2388 0.930 . S
H2379 C2391 0.929 . S
H2380 C2394 0.930 . S
H2381 C2396 0.960 . S
H2382 C2396 0.960 . S
H2383 C2396 0.960 . S
C2384 H2376 0.929 . S
C2384 C2385 1.377 . S
C2384 C2386 1.384 . S
C2385 C2384 1.377 . S
C2385 C2391 1.390 . S
C2386 H2377 0.930 . S
C2386 C2384 1.384 . S
C2386 C2387 1.372 . S
C2387 C2386 1.372 . S
C2387 C2388 1.400 . S
C2387 C2392 1.490 . S
C2388 H2378 0.930 . S
C2388 C2387 1.400 . S
C2388 C2391 1.386 . S
H2389 C2405 0.930 . S
H2390 C2406 0.931 . S
C2391 H2379 0.929 . S
C2391 C2385 1.390 . S
C2391 C2388 1.386 . S
C2392 C2387 1.490 . S
C2392 C2394 1.395 . S
C2392 C2395 1.403 . S
H2393 C2399 0.930 . S
C2394 H2380 0.930 . S
C2394 C2392 1.395 . S
C2394 C2397 1.403 . S
C2395 C2392 1.403 . S
C2395 C2396 1.524 . S
C2395 C2399 1.400 . S
C2396 H2381 0.960 . S
C2396 H2382 0.960 . S
C2396 H2383 0.960 . S
C2396 C2395 1.524 . S
C2397 C2394 1.403 . S
C2397 C2398 1.392 . S
C2397 C2401 1.495 . S
C2398 C2397 1.392 . S
C2398 C2399 1.385 . S
C2398 C2400 1.478 . S
C2399 H2393 0.930 . S
C2399 C2395 1.400 . S
C2399 C2398 1.385 . S
C2400 C2398 1.478 . S
C2400 C2402 1.381 . S
C2400 C2406 1.383 . S
C2401 C2397 1.495 . S
C2401 H2407 0.959 . S
C2401 H2408 0.961 . S
C2401 H2409 0.960 . S
C2402 C2400 1.381 . S
C2402 C2403 1.394 . S
C2402 H2410 0.930 . S
C2403 C2402 1.394 . S
C2403 C2404 1.383 . S
C2403 H2411 0.929 . S
C2404 C2403 1.383 . S
C2404 C2405 1.377 . S
C2405 H2389 0.930 . S
C2405 C2404 1.377 . S
C2405 C2406 1.379 . S
C2406 H2390 0.931 . S
C2406 C2400 1.383 . S
C2406 C2405 1.379 . S
H2407 C2401 0.959 . S
H2408 C2401 0.961 . S
H2409 C2401 0.960 . S
H2410 C2402 0.930 . S
H2411 C2403 0.929 . S
H2412 C2420 0.929 . S
H2413 C2422 0.930 . S
H2414 C2424 0.930 . S
H2415 C2427 0.929 . S
H2416 C2430 0.930 . S
H2417 C2432 0.960 . S
H2418 C2432 0.960 . S
H2419 C2432 0.960 . S
C2420 H2412 0.929 . S
C2420 C2421 1.377 . S
C2420 C2422 1.384 . S
C2421 C2420 1.377 . S
C2421 C2427 1.390 . S
C2422 H2413 0.930 . S
C2422 C2420 1.384 . S
C2422 C2423 1.372 . S
C2423 C2422 1.372 . S
C2423 C2424 1.400 . S
C2423 C2428 1.490 . S
C2424 H2414 0.930 . S
C2424 C2423 1.400 . S
C2424 C2427 1.386 . S
H2425 C2441 0.930 . S
H2426 C2442 0.931 . S
C2427 H2415 0.929 . S
C2427 C2421 1.390 . S
C2427 C2424 1.386 . S
C2428 C2423 1.490 . S
C2428 C2430 1.395 . S
C2428 C2431 1.403 . S
H2429 C2435 0.930 . S
C2430 H2416 0.930 . S
C2430 C2428 1.395 . S
C2430 C2433 1.403 . S
C2431 C2428 1.403 . S
C2431 C2432 1.524 . S
C2431 C2435 1.400 . S
C2432 H2417 0.960 . S
C2432 H2418 0.960 . S
C2432 H2419 0.960 . S
C2432 C2431 1.524 . S
C2433 C2430 1.403 . S
C2433 C2434 1.392 . S
C2433 C2437 1.495 . S
C2434 C2433 1.392 . S
C2434 C2435 1.385 . S
C2434 C2436 1.478 . S
C2435 H2429 0.930 . S
C2435 C2431 1.400 . S
C2435 C2434 1.385 . S
C2436 C2434 1.478 . S
C2436 C2438 1.381 . S
C2436 C2442 1.383 . S
C2437 C2433 1.495 . S
C2437 H2443 0.959 . S
C2437 H2444 0.961 . S
C2437 H2445 0.960 . S
C2438 C2436 1.381 . S
C2438 C2439 1.394 . S
C2438 H2446 0.930 . S
C2439 C2438 1.394 . S
C2439 C2440 1.383 . S
C2439 H2447 0.929 . S
C2440 C2439 1.383 . S
C2440 C2441 1.377 . S
C2441 H2425 0.930 . S
C2441 C2440 1.377 . S
C2441 C2442 1.379 . S
C2442 H2426 0.931 . S
C2442 C2436 1.383 . S
C2442 C2441 1.379 . S
H2443 C2437 0.959 . S
H2444 C2437 0.961 . S
H2445 C2437 0.960 . S
H2446 C2438 0.930 . S
H2447 C2439 0.929 . S
H2448 C2456 0.929 . S
H2449 C2458 0.930 . S
H2450 C2460 0.930 . S
H2451 C2463 0.929 . S
H2452 C2466 0.930 . S
H2453 C2468 0.960 . S
H2454 C2468 0.960 . S
H2455 C2468 0.960 . S
C2456 H2448 0.929 . S
C2456 C2457 1.377 . S
C2456 C2458 1.384 . S
C2457 C2456 1.377 . S
C2457 C2463 1.390 . S
C2458 H2449 0.930 . S
C2458 C2456 1.384 . S
C2458 C2459 1.372 . S
C2459 C2458 1.372 . S
C2459 C2460 1.400 . S
C2459 C2464 1.490 . S
C2460 H2450 0.930 . S
C2460 C2459 1.400 . S
C2460 C2463 1.386 . S
H2461 C2477 0.930 . S
H2462 C2478 0.931 . S
C2463 H2451 0.929 . S
C2463 C2457 1.390 . S
C2463 C2460 1.386 . S
C2464 C2459 1.490 . S
C2464 C2466 1.395 . S
C2464 C2467 1.403 . S
H2465 C2471 0.930 . S
C2466 H2452 0.930 . S
C2466 C2464 1.395 . S
C2466 C2469 1.403 . S
C2467 C2464 1.403 . S
C2467 C2468 1.524 . S
C2467 C2471 1.400 . S
C2468 H2453 0.960 . S
C2468 H2454 0.960 . S
C2468 H2455 0.960 . S
C2468 C2467 1.524 . S
C2469 C2466 1.403 . S
C2469 C2470 1.392 . S
C2469 C2473 1.495 . S
C2470 C2469 1.392 . S
C2470 C2471 1.385 . S
C2470 C2472 1.478 . S
C2471 H2465 0.930 . S
C2471 C2467 1.400 . S
C2471 C2470 1.385 . S
C2472 C2470 1.478 . S
C2472 C2474 1.381 . S
C2472 C2478 1.383 . S
C2473 C2469 1.495 . S
C2473 H2479 0.959 . S
C2473 H2480 0.961 . S
C2473 H2481 0.960 . S
C2474 C2472 1.381 . S
C2474 C2475 1.394 . S
C2474 H2482 0.930 . S
C2475 C2474 1.394 . S
C2475 C2476 1.383 . S
C2475 H2483 0.929 . S
C2476 C2475 1.383 . S
C2476 C2477 1.377 . S
C2477 H2461 0.930 . S
C2477 C2476 1.377 . S
C2477 C2478 1.379 . S
C2478 H2462 0.931 . S
C2478 C2472 1.383 . S
C2478 C2477 1.379 . S
H2479 C2473 0.959 . S
H2480 C2473 0.961 . S
H2481 C2473 0.960 . S
H2482 C2474 0.930 . S
H2483 C2475 0.929 . S
H2484 C2492 0.929 . S
H2485 C2494 0.930 . S
H2486 C2496 0.930 . S
H2487 C2499 0.929 . S
H2488 C2502 0.930 . S
H2489 C2504 0.960 . S
H2490 C2504 0.960 . S
H2491 C2504 0.960 . S
C2492 H2484 0.929 . S
C2492 C2493 1.377 . S
C2492 C2494 1.384 . S
C2493 C2492 1.377 . S
C2493 C2499 1.390 . S
C2494 H2485 0.930 . S
C2494 C2492 1.384 . S
C2494 C2495 1.372 . S
C2495 C2494 1.372 . S
C2495 C2496 1.400 . S
C2495 C2500 1.490 . S
C2496 H2486 0.930 . S
C2496 C2495 1.400 . S
C2496 C2499 1.386 . S
H2497 C2513 0.930 . S
H2498 C2514 0.931 . S
C2499 H2487 0.929 . S
C2499 C2493 1.390 . S
C2499 C2496 1.386 . S
C2500 C2495 1.490 . S
C2500 C2502 1.395 . S
C2500 C2503 1.403 . S
H2501 C2507 0.930 . S
C2502 H2488 0.930 . S
C2502 C2500 1.395 . S
C2502 C2505 1.403 . S
C2503 C2500 1.403 . S
C2503 C2504 1.524 . S
C2503 C2507 1.400 . S
C2504 H2489 0.960 . S
C2504 H2490 0.960 . S
C2504 H2491 0.960 . S
C2504 C2503 1.524 . S
C2505 C2502 1.403 . S
C2505 C2506 1.392 . S
C2505 C2509 1.495 . S
C2506 C2505 1.392 . S
C2506 C2507 1.385 . S
C2506 C2508 1.478 . S
C2507 H2501 0.930 . S
C2507 C2503 1.400 . S
C2507 C2506 1.385 . S
C2508 C2506 1.478 . S
C2508 C2510 1.381 . S
C2508 C2514 1.383 . S
C2509 C2505 1.495 . S
C2509 H2515 0.959 . S
C2509 H2516 0.961 . S
C2509 H2517 0.960 . S
C2510 C2508 1.381 . S
C2510 C2511 1.394 . S
C2510 H2518 0.930 . S
C2511 C2510 1.394 . S
C2511 C2512 1.383 . S
C2511 H2519 0.929 . S
C2512 C2511 1.383 . S
C2512 C2513 1.377 . S
C2513 H2497 0.930 . S
C2513 C2512 1.377 . S
C2513 C2514 1.379 . S
C2514 H2498 0.931 . S
C2514 C2508 1.383 . S
C2514 C2513 1.379 . S
H2515 C2509 0.959 . S
H2516 C2509 0.961 . S
H2517 C2509 0.960 . S
H2518 C2510 0.930 . S
H2519 C2511 0.929 . S
H2520 C2528 0.929 . S
H2521 C2530 0.930 . S
H2522 C2532 0.930 . S
H2523 C2535 0.929 . S
H2524 C2538 0.930 . S
H2525 C2540 0.960 . S
H2526 C2540 0.960 . S
H2527 C2540 0.960 . S
C2528 H2520 0.929 . S
C2528 C2529 1.377 . S
C2528 C2530 1.384 . S
C2529 C2528 1.377 . S
C2529 C2535 1.390 . S
C2530 H2521 0.930 . S
C2530 C2528 1.384 . S
C2530 C2531 1.372 . S
C2531 C2530 1.372 . S
C2531 C2532 1.400 . S
C2531 C2536 1.490 . S
C2532 H2522 0.930 . S
C2532 C2531 1.400 . S
C2532 C2535 1.386 . S
H2533 C2549 0.930 . S
H2534 C2550 0.931 . S
C2535 H2523 0.929 . S
C2535 C2529 1.390 . S
C2535 C2532 1.386 . S
C2536 C2531 1.490 . S
C2536 C2538 1.395 . S
C2536 C2539 1.403 . S
H2537 C2543 0.930 . S
C2538 H2524 0.930 . S
C2538 C2536 1.395 . S
C2538 C2541 1.403 . S
C2539 C2536 1.403 . S
C2539 C2540 1.524 . S
C2539 C2543 1.400 . S
C2540 H2525 0.960 . S
C2540 H2526 0.960 . S
C2540 H2527 0.960 . S
C2540 C2539 1.524 . S
C2541 C2538 1.403 . S
C2541 C2542 1.392 . S
C2541 C2545 1.495 . S
C2542 C2541 1.392 . S
C2542 C2543 1.385 . S
C2542 C2544 1.478 . S
C2543 H2537 0.930 . S
C2543 C2539 1.400 . S
C2543 C2542 1.385 . S
C2544 C2542 1.478 . S
C2544 C2546 1.381 . S
C2544 C2550 1.383 . S
C2545 C2541 1.495 . S
C2545 H2551 0.959 . S
C2545 H2552 0.961 . S
C2545 H2553 0.960 . S
C2546 C2544 1.381 . S
C2546 C2547 1.394 . S
C2546 H2554 0.930 . S
C2547 C2546 1.394 . S
C2547 C2548 1.383 . S
C2547 H2555 0.929 . S
C2548 C2547 1.383 . S
C2548 C2549 1.377 . S
C2549 H2533 0.930 . S
C2549 C2548 1.377 . S
C2549 C2550 1.379 . S
C2550 H2534 0.931 . S
C2550 C2544 1.383 . S
C2550 C2549 1.379 . S
H2551 C2545 0.959 . S
H2552 C2545 0.961 . S
H2553 C2545 0.960 . S
H2554 C2546 0.930 . S
H2555 C2547 0.929 . S
H2556 C2564 0.929 . S
H2557 C2566 0.930 . S
H2558 C2568 0.930 . S
H2559 C2571 0.929 . S
H2560 C2574 0.930 . S
H2561 C2576 0.960 . S
H2562 C2576 0.960 . S
H2563 C2576 0.960 . S
C2564 H2556 0.929 . S
C2564 C2565 1.377 . S
C2564 C2566 1.384 . S
C2565 C2564 1.377 . S
C2565 C2571 1.390 . S
C2566 H2557 0.930 . S
C2566 C2564 1.384 . S
C2566 C2567 1.372 . S
C2567 C2566 1.372 . S
C2567 C2568 1.400 . S
C2567 C2572 1.490 . S
C2568 H2558 0.930 . S
C2568 C2567 1.400 . S
C2568 C2571 1.386 . S
H2569 C2585 0.930 . S
H2570 C2586 0.931 . S
C2571 H2559 0.929 . S
C2571 C2565 1.390 . S
C2571 C2568 1.386 . S
C2572 C2567 1.490 . S
C2572 C2574 1.395 . S
C2572 C2575 1.403 . S
H2573 C2579 0.930 . S
C2574 H2560 0.930 . S
C2574 C2572 1.395 . S
C2574 C2577 1.403 . S
C2575 C2572 1.403 . S
C2575 C2576 1.524 . S
C2575 C2579 1.400 . S
C2576 H2561 0.960 . S
C2576 H2562 0.960 . S
C2576 H2563 0.960 . S
C2576 C2575 1.524 . S
C2577 C2574 1.403 . S
C2577 C2578 1.392 . S
C2577 C2581 1.495 . S
C2578 C2577 1.392 . S
C2578 C2579 1.385 . S
C2578 C2580 1.478 . S
C2579 H2573 0.930 . S
C2579 C2575 1.400 . S
C2579 C2578 1.385 . S
C2580 C2578 1.478 . S
C2580 C2582 1.381 . S
C2580 C2586 1.383 . S
C2581 C2577 1.495 . S
C2581 H2587 0.959 . S
C2581 H2588 0.961 . S
C2581 H2589 0.960 . S
C2582 C2580 1.381 . S
C2582 C2583 1.394 . S
C2582 H2590 0.930 . S
C2583 C2582 1.394 . S
C2583 C2584 1.383 . S
C2583 H2591 0.929 . S
C2584 C2583 1.383 . S
C2584 C2585 1.377 . S
C2585 H2569 0.930 . S
C2585 C2584 1.377 . S
C2585 C2586 1.379 . S
C2586 H2570 0.931 . S
C2586 C2580 1.383 . S
C2586 C2585 1.379 . S
H2587 C2581 0.959 . S
H2588 C2581 0.961 . S
H2589 C2581 0.960 . S
H2590 C2582 0.930 . S
H2591 C2583 0.929 . S
H2592 C2600 0.929 . S
H2593 C2602 0.930 . S
H2594 C2604 0.930 1_565 S
H2595 C2607 0.929 . S
H2596 C2610 0.930 . S
H2597 C2612 0.960 . S
H2598 C2612 0.960 . S
H2599 C2612 0.960 . S
C2600 H2592 0.929 . S
C2600 C2601 1.377 . S
C2600 C2602 1.384 . S
C2601 C2600 1.377 . S
C2601 C2607 1.390 . S
C2602 H2593 0.930 . S
C2602 C2600 1.384 . S
C2602 C2603 1.372 . S
C2603 C2602 1.372 . S
C2603 C2604 1.400 . S
C2603 C2608 1.490 1_545 S
C2604 H2594 0.930 1_545 S
C2604 C2603 1.400 . S
C2604 C2607 1.386 . S
H2605 C2621 0.930 . S
H2606 C2622 0.931 . S
C2607 H2595 0.929 . S
C2607 C2601 1.390 . S
C2607 C2604 1.386 . S
C2608 C2603 1.490 1_565 S
C2608 C2610 1.395 . S
C2608 C2611 1.403 . S
H2609 C2615 0.930 . S
C2610 H2596 0.930 . S
C2610 C2608 1.395 . S
C2610 C2613 1.403 . S
C2611 C2608 1.403 . S
C2611 C2612 1.524 . S
C2611 C2615 1.400 . S
C2612 H2597 0.960 . S
C2612 H2598 0.960 . S
C2612 H2599 0.960 . S
C2612 C2611 1.524 . S
C2613 C2610 1.403 . S
C2613 C2614 1.392 . S
C2613 C2617 1.495 . S
C2614 C2613 1.392 . S
C2614 C2615 1.385 . S
C2614 C2616 1.478 . S
C2615 H2609 0.930 . S
C2615 C2611 1.400 . S
C2615 C2614 1.385 . S
C2616 C2614 1.478 . S
C2616 C2618 1.381 . S
C2616 C2622 1.383 . S
C2617 C2613 1.495 . S
C2617 H2623 0.959 . S
C2617 H2624 0.961 . S
C2617 H2625 0.960 . S
C2618 C2616 1.381 . S
C2618 C2619 1.394 . S
C2618 H2626 0.930 . S
C2619 C2618 1.394 . S
C2619 C2620 1.383 . S
C2619 H2627 0.929 . S
C2620 C2619 1.383 . S
C2620 C2621 1.377 . S
C2621 H2605 0.930 . S
C2621 C2620 1.377 . S
C2621 C2622 1.379 . S
C2622 H2606 0.931 . S
C2622 C2616 1.383 . S
C2622 C2621 1.379 . S
H2623 C2617 0.959 . S
H2624 C2617 0.961 . S
H2625 C2617 0.960 . S
H2626 C2618 0.930 . S
H2627 C2619 0.929 . S
H2628 C2636 0.929 . S
H2629 C2638 0.930 . S
H2630 C2640 0.930 . S
H2631 C2643 0.929 . S
H2632 C2646 0.930 . S
H2633 C2648 0.960 . S
H2634 C2648 0.960 . S
H2635 C2648 0.960 . S
C2636 H2628 0.929 . S
C2636 C2637 1.377 . S
C2636 C2638 1.384 1_655 S
C2637 C2636 1.377 . S
C2637 C2643 1.390 . S
C2638 H2629 0.930 . S
C2638 C2636 1.384 1_455 S
C2638 C2639 1.372 . S
C2639 C2638 1.372 . S
C2639 C2640 1.400 1_455 S
C2639 C2644 1.490 . S
C2640 H2630 0.930 . S
C2640 C2639 1.400 1_655 S
C2640 C2643 1.386 . S
H2641 C2657 0.930 . S
H2642 C2658 0.931 . S
C2643 H2631 0.929 . S
C2643 C2637 1.390 . S
C2643 C2640 1.386 . S
C2644 C2639 1.490 . S
C2644 C2646 1.395 . S
C2644 C2647 1.403 . S
H2645 C2651 0.930 . S
C2646 H2632 0.930 . S
C2646 C2644 1.395 . S
C2646 C2649 1.403 . S
C2647 C2644 1.403 . S
C2647 C2648 1.524 . S
C2647 C2651 1.400 . S
C2648 H2633 0.960 . S
C2648 H2634 0.960 . S
C2648 H2635 0.960 . S
C2648 C2647 1.524 . S
C2649 C2646 1.403 . S
C2649 C2650 1.392 . S
C2649 C2653 1.495 . S
C2650 C2649 1.392 . S
C2650 C2651 1.385 . S
C2650 C2652 1.478 . S
C2651 H2645 0.930 . S
C2651 C2647 1.400 . S
C2651 C2650 1.385 . S
C2652 C2650 1.478 . S
C2652 C2654 1.381 . S
C2652 C2658 1.383 . S
C2653 C2649 1.495 . S
C2653 H2659 0.959 . S
C2653 H2660 0.961 . S
C2653 H2661 0.960 . S
C2654 C2652 1.381 . S
C2654 C2655 1.394 . S
C2654 H2662 0.930 . S
C2655 C2654 1.394 . S
C2655 C2656 1.383 . S
C2655 H2663 0.929 . S
C2656 C2655 1.383 . S
C2656 C2657 1.377 . S
C2657 H2641 0.930 . S
C2657 C2656 1.377 . S
C2657 C2658 1.379 . S
C2658 H2642 0.931 . S
C2658 C2652 1.383 . S
C2658 C2657 1.379 . S
H2659 C2653 0.959 . S
H2660 C2653 0.961 . S
H2661 C2653 0.960 . S
H2662 C2654 0.930 . S
H2663 C2655 0.929 . S
H2664 C2672 0.929 . S
H2665 C2674 0.930 . S
H2666 C2676 0.930 . S
H2667 C2679 0.929 . S
H2668 C2682 0.930 . S
H2669 C2684 0.960 . S
H2670 C2684 0.960 . S
H2671 C2684 0.960 . S
C2672 H2664 0.929 . S
C2672 C2673 1.377 . S
C2672 C2674 1.384 . S
C2673 C2672 1.377 . S
C2673 C2679 1.390 . S
C2674 H2665 0.930 . S
C2674 C2672 1.384 . S
C2674 C2675 1.372 . S
C2675 C2674 1.372 . S
C2675 C2676 1.400 . S
C2675 C2680 1.490 . S
C2676 H2666 0.930 . S
C2676 C2675 1.400 . S
C2676 C2679 1.386 . S
H2677 C2693 0.930 . S
H2678 C2694 0.931 . S
C2679 H2667 0.929 . S
C2679 C2673 1.390 . S
C2679 C2676 1.386 . S
C2680 C2675 1.490 . S
C2680 C2682 1.395 . S
C2680 C2683 1.403 . S
H2681 C2687 0.930 . S
C2682 H2668 0.930 . S
C2682 C2680 1.395 . S
C2682 C2685 1.403 . S
C2683 C2680 1.403 . S
C2683 C2684 1.524 . S
C2683 C2687 1.400 . S
C2684 H2669 0.960 . S
C2684 H2670 0.960 . S
C2684 H2671 0.960 . S
C2684 C2683 1.524 . S
C2685 C2682 1.403 . S
C2685 C2686 1.392 . S
C2685 C2689 1.495 . S
C2686 C2685 1.392 . S
C2686 C2687 1.385 . S
C2686 C2688 1.478 . S
C2687 H2681 0.930 . S
C2687 C2683 1.400 . S
C2687 C2686 1.385 . S
C2688 C2686 1.478 . S
C2688 C2690 1.381 . S
C2688 C2694 1.383 . S
C2689 C2685 1.495 . S
C2689 H2695 0.959 . S
C2689 H2696 0.961 . S
C2689 H2697 0.960 . S
C2690 C2688 1.381 . S
C2690 C2691 1.394 . S
C2690 H2698 0.930 . S
C2691 C2690 1.394 . S
C2691 C2692 1.383 . S
C2691 H2699 0.929 . S
C2692 C2691 1.383 . S
C2692 C2693 1.377 . S
C2693 H2677 0.930 . S
C2693 C2692 1.377 . S
C2693 C2694 1.379 . S
C2694 H2678 0.931 . S
C2694 C2688 1.383 . S
C2694 C2693 1.379 . S
H2695 C2689 0.959 . S
H2696 C2689 0.961 . S
H2697 C2689 0.960 . S
H2698 C2690 0.930 . S
H2699 C2691 0.929 . S
H2700 C2708 0.929 . S
H2701 C2710 0.930 . S
H2702 C2712 0.930 . S
H2703 C2715 0.929 . S
H2704 C2718 0.930 . S
H2705 C2720 0.960 . S
H2706 C2720 0.960 . S
H2707 C2720 0.960 . S
C2708 H2700 0.929 . S
C2708 C2709 1.377 . S
C2708 C2710 1.384 . S
C2709 C2708 1.377 . S
C2709 C2715 1.390 . S
C2710 H2701 0.930 . S
C2710 C2708 1.384 . S
C2710 C2711 1.372 . S
C2711 C2710 1.372 . S
C2711 C2712 1.400 . S
C2711 C2716 1.490 . S
C2712 H2702 0.930 . S
C2712 C2711 1.400 . S
C2712 C2715 1.386 . S
H2713 C2729 0.930 . S
H2714 C2730 0.931 . S
C2715 H2703 0.929 . S
C2715 C2709 1.390 . S
C2715 C2712 1.386 . S
C2716 C2711 1.490 . S
C2716 C2718 1.395 . S
C2716 C2719 1.403 . S
H2717 C2723 0.930 . S
C2718 H2704 0.930 . S
C2718 C2716 1.395 . S
C2718 C2721 1.403 . S
C2719 C2716 1.403 . S
C2719 C2720 1.524 . S
C2719 C2723 1.400 . S
C2720 H2705 0.960 . S
C2720 H2706 0.960 . S
C2720 H2707 0.960 . S
C2720 C2719 1.524 . S
C2721 C2718 1.403 . S
C2721 C2722 1.392 . S
C2721 C2725 1.495 . S
C2722 C2721 1.392 . S
C2722 C2723 1.385 . S
C2722 C2724 1.478 . S
C2723 H2717 0.930 . S
C2723 C2719 1.400 . S
C2723 C2722 1.385 . S
C2724 C2722 1.478 . S
C2724 C2726 1.381 . S
C2724 C2730 1.383 . S
C2725 C2721 1.495 . S
C2725 H2731 0.959 . S
C2725 H2732 0.961 . S
C2725 H2733 0.960 . S
C2726 C2724 1.381 . S
C2726 C2727 1.394 . S
C2726 H2734 0.930 . S
C2727 C2726 1.394 . S
C2727 C2728 1.383 . S
C2727 H2735 0.929 . S
C2728 C2727 1.383 . S
C2728 C2729 1.377 . S
C2729 H2713 0.930 . S
C2729 C2728 1.377 . S
C2729 C2730 1.379 . S
C2730 H2714 0.931 . S
C2730 C2724 1.383 . S
C2730 C2729 1.379 . S
H2731 C2725 0.959 . S
H2732 C2725 0.961 . S
H2733 C2725 0.960 . S
H2734 C2726 0.930 . S
H2735 C2727 0.929 . S
H2736 C2744 0.929 . S
H2737 C2746 0.930 . S
H2738 C2748 0.930 . S
H2739 C2751 0.929 . S
H2740 C2754 0.930 . S
H2741 C2756 0.960 . S
H2742 C2756 0.960 . S
H2743 C2756 0.960 . S
C2744 H2736 0.929 . S
C2744 C2745 1.377 . S
C2744 C2746 1.384 . S
C2745 C2744 1.377 . S
C2745 C2751 1.390 . S
C2746 H2737 0.930 . S
C2746 C2744 1.384 . S
C2746 C2747 1.372 . S
C2747 C2746 1.372 . S
C2747 C2748 1.400 . S
C2747 C2752 1.490 . S
C2748 H2738 0.930 . S
C2748 C2747 1.400 . S
C2748 C2751 1.386 . S
H2749 C2765 0.930 . S
H2750 C2766 0.931 . S
C2751 H2739 0.929 . S
C2751 C2745 1.390 . S
C2751 C2748 1.386 . S
C2752 C2747 1.490 . S
C2752 C2754 1.395 . S
C2752 C2755 1.403 . S
H2753 C2759 0.930 . S
C2754 H2740 0.930 . S
C2754 C2752 1.395 . S
C2754 C2757 1.403 . S
C2755 C2752 1.403 . S
C2755 C2756 1.524 . S
C2755 C2759 1.400 . S
C2756 H2741 0.960 . S
C2756 H2742 0.960 . S
C2756 H2743 0.960 . S
C2756 C2755 1.524 . S
C2757 C2754 1.403 . S
C2757 C2758 1.392 . S
C2757 C2761 1.495 . S
C2758 C2757 1.392 . S
C2758 C2759 1.385 . S
C2758 C2760 1.478 . S
C2759 H2753 0.930 . S
C2759 C2755 1.400 . S
C2759 C2758 1.385 . S
C2760 C2758 1.478 . S
C2760 C2762 1.381 . S
C2760 C2766 1.383 . S
C2761 C2757 1.495 . S
C2761 H2767 0.959 . S
C2761 H2768 0.961 . S
C2761 H2769 0.960 . S
C2762 C2760 1.381 . S
C2762 C2763 1.394 . S
C2762 H2770 0.930 . S
C2763 C2762 1.394 . S
C2763 C2764 1.383 . S
C2763 H2771 0.929 . S
C2764 C2763 1.383 . S
C2764 C2765 1.377 . S
C2765 H2749 0.930 . S
C2765 C2764 1.377 . S
C2765 C2766 1.379 . S
C2766 H2750 0.931 . S
C2766 C2760 1.383 . S
C2766 C2765 1.379 . S
H2767 C2761 0.959 . S
H2768 C2761 0.961 . S
H2769 C2761 0.960 . S
H2770 C2762 0.930 . S
H2771 C2763 0.929 . S
H2772 C2780 0.929 . S
H2773 C2782 0.930 . S
H2774 C2784 0.930 . S
H2775 C2787 0.929 . S
H2776 C2790 0.930 . S
H2777 C2792 0.960 . S
H2778 C2792 0.960 . S
H2779 C2792 0.960 . S
C2780 H2772 0.929 . S
C2780 C2781 1.377 . S
C2780 C2782 1.384 . S
C2781 C2780 1.377 . S
C2781 C2787 1.390 . S
C2782 H2773 0.930 . S
C2782 C2780 1.384 . S
C2782 C2783 1.372 . S
C2783 C2782 1.372 . S
C2783 C2784 1.400 . S
C2783 C2788 1.490 . S
C2784 H2774 0.930 . S
C2784 C2783 1.400 . S
C2784 C2787 1.386 . S
H2785 C2801 0.930 . S
H2786 C2802 0.931 . S
C2787 H2775 0.929 . S
C2787 C2781 1.390 . S
C2787 C2784 1.386 . S
C2788 C2783 1.490 . S
C2788 C2790 1.395 . S
C2788 C2791 1.403 . S
H2789 C2795 0.930 . S
C2790 H2776 0.930 . S
C2790 C2788 1.395 . S
C2790 C2793 1.403 . S
C2791 C2788 1.403 . S
C2791 C2792 1.524 . S
C2791 C2795 1.400 . S
C2792 H2777 0.960 . S
C2792 H2778 0.960 . S
C2792 H2779 0.960 . S
C2792 C2791 1.524 . S
C2793 C2790 1.403 . S
C2793 C2794 1.392 . S
C2793 C2797 1.495 . S
C2794 C2793 1.392 . S
C2794 C2795 1.385 . S
C2794 C2796 1.478 . S
C2795 H2789 0.930 . S
C2795 C2791 1.400 . S
C2795 C2794 1.385 . S
C2796 C2794 1.478 . S
C2796 C2798 1.381 . S
C2796 C2802 1.383 . S
C2797 C2793 1.495 . S
C2797 H2803 0.959 . S
C2797 H2804 0.961 . S
C2797 H2805 0.960 . S
C2798 C2796 1.381 . S
C2798 C2799 1.394 . S
C2798 H2806 0.930 . S
C2799 C2798 1.394 . S
C2799 C2800 1.383 . S
C2799 H2807 0.929 . S
C2800 C2799 1.383 . S
C2800 C2801 1.377 . S
C2801 H2785 0.930 . S
C2801 C2800 1.377 . S
C2801 C2802 1.379 . S
C2802 H2786 0.931 . S
C2802 C2796 1.383 . S
C2802 C2801 1.379 . S
H2803 C2797 0.959 . S
H2804 C2797 0.961 . S
H2805 C2797 0.960 . S
H2806 C2798 0.930 . S
H2807 C2799 0.929 . S
H2808 C2816 0.929 . S
H2809 C2818 0.930 . S
H2810 C2820 0.924 . S
H2811 C2823 0.929 . S
H2812 C2826 0.930 . S
H2813 C2828 0.960 . S
H2814 C2828 0.960 . S
H2815 C2828 0.960 . S
C2816 H2808 0.929 . S
C2816 C2817 1.377 . S
C2816 C2818 1.384 . S
C2817 C2816 1.377 . S
C2817 C2823 1.390 . S
C2818 H2809 0.930 . S
C2818 C2816 1.384 . S
C2818 C2819 1.372 1_565 S
C2819 C2818 1.372 1_545 S
C2819 C2820 1.400 . S
C2819 C2824 1.490 . S
C2820 H2810 0.924 . S
C2820 C2819 1.400 . S
C2820 C2823 1.391 1_545 S
H2821 C2837 0.930 . S
H2822 C2838 0.931 . S
C2823 H2811 0.929 . S
C2823 C2817 1.390 . S
C2823 C2820 1.391 1_565 S
C2824 C2819 1.490 . S
C2824 C2826 1.395 . S
C2824 C2827 1.403 . S
H2825 C2831 0.930 . S
C2826 H2812 0.930 . S
C2826 C2824 1.395 . S
C2826 C2829 1.403 . S
C2827 C2824 1.403 . S
C2827 C2828 1.524 . S
C2827 C2831 1.400 . S
C2828 H2813 0.960 . S
C2828 H2814 0.960 . S
C2828 H2815 0.960 . S
C2828 C2827 1.524 . S
C2829 C2826 1.403 . S
C2829 C2830 1.392 . S
C2829 C2833 1.495 . S
C2830 C2829 1.392 . S
C2830 C2831 1.385 . S
C2830 C2832 1.478 . S
C2831 H2825 0.930 . S
C2831 C2827 1.400 . S
C2831 C2830 1.385 . S
C2832 C2830 1.478 . S
C2832 C2834 1.381 . S
C2832 C2838 1.383 . S
C2833 C2829 1.495 . S
C2833 H2839 0.959 . S
C2833 H2840 0.961 . S
C2833 H2841 0.960 . S
C2834 C2832 1.381 . S
C2834 C2835 1.394 . S
C2834 H2842 0.930 . S
C2835 C2834 1.394 . S
C2835 C2836 1.383 . S
C2835 H2843 0.929 . S
C2836 C2835 1.383 . S
C2836 C2837 1.377 . S
C2837 H2821 0.930 . S
C2837 C2836 1.377 . S
C2837 C2838 1.379 . S
C2838 H2822 0.931 . S
C2838 C2832 1.383 . S
C2838 C2837 1.379 . S
H2839 C2833 0.959 . S
H2840 C2833 0.961 . S
H2841 C2833 0.960 . S
H2842 C2834 0.930 . S
H2843 C2835 0.929 . S
H2844 C2852 0.929 . S
H2845 C2854 0.930 . S
H2846 C2856 0.930 . S
H2847 C2859 0.929 . S
H2848 C2862 0.930 . S
H2849 C2864 0.960 . S
H2850 C2864 0.960 . S
H2851 C2864 1.020 . S
C2852 H2844 0.929 . S
C2852 C2853 1.377 . S
C2852 C2854 1.384 1_455 S
C2853 C2852 1.377 . S
C2853 C2859 1.390 . S
C2854 H2845 0.930 . S
C2854 C2852 1.384 1_655 S
C2854 C2855 1.372 . S
C2855 C2854 1.372 . S
C2855 C2856 1.400 1_655 S
C2855 C2860 1.490 . S
C2856 H2846 0.930 . S
C2856 C2855 1.400 1_455 S
C2856 C2859 1.386 . S
H2857 C2873 0.930 . S
H2858 C2874 0.931 . S
C2859 H2847 0.929 . S
C2859 C2853 1.390 . S
C2859 C2856 1.386 . S
C2860 C2855 1.490 . S
C2860 C2862 1.395 . S
C2860 C2863 1.403 . S
H2861 C2867 0.930 . S
C2862 H2848 0.930 . S
C2862 C2860 1.395 . S
C2862 C2865 1.403 . S
C2863 C2860 1.403 . S
C2863 C2864 1.524 . S
C2863 C2867 1.400 . S
C2864 H2849 0.960 . S
C2864 H2850 0.960 . S
C2864 H2851 1.020 . S
C2864 C2863 1.524 . S
C2865 C2862 1.403 . S
C2865 C2866 1.392 . S
C2865 C2869 1.495 . S
C2866 C2865 1.392 . S
C2866 C2867 1.385 . S
C2866 C2868 1.478 . S
C2867 H2861 0.930 . S
C2867 C2863 1.400 . S
C2867 C2866 1.385 . S
C2868 C2866 1.478 . S
C2868 C2870 1.381 . S
C2868 C2874 1.383 . S
C2869 C2865 1.495 . S
C2869 H2875 0.959 . S
C2869 H2876 0.961 . S
C2869 H2877 0.960 . S
C2870 C2868 1.381 . S
C2870 C2871 1.394 . S
C2870 H2878 0.930 . S
C2871 C2870 1.394 . S
C2871 C2872 1.383 . S
C2871 H2879 0.929 . S
C2872 C2871 1.383 . S
C2872 C2873 1.377 . S
C2873 H2857 0.930 . S
C2873 C2872 1.377 . S
C2873 C2874 1.379 . S
C2874 H2858 0.931 . S
C2874 C2868 1.383 . S
C2874 C2873 1.379 . S
H2875 C2869 0.959 . S
H2876 C2869 0.961 . S
H2877 C2869 0.960 . S
H2878 C2870 0.930 . S
H2879 C2871 0.929 . S
H2880 C2888 0.929 . S
H2881 C2890 0.930 . S
H2882 C2892 0.930 . S
H2883 C2895 0.929 . S
H2884 C2898 0.930 . S
H2885 C2900 0.960 . S
H2886 C2900 0.960 . S
H2887 C2900 0.960 . S
C2888 H2880 0.929 . S
C2888 C2889 1.377 . S
C2888 C2890 1.384 . S
C2889 C2888 1.377 . S
C2889 C2895 1.390 . S
C2890 H2881 0.930 . S
C2890 C2888 1.384 . S
C2890 C2891 1.372 . S
C2891 C2890 1.372 . S
C2891 C2892 1.400 . S
C2891 C2896 1.490 . S
C2892 H2882 0.930 . S
C2892 C2891 1.400 . S
C2892 C2895 1.386 . S
H2893 C2909 0.930 . S
H2894 C2910 0.931 . S
C2895 H2883 0.929 . S
C2895 C2889 1.390 . S
C2895 C2892 1.386 . S
C2896 C2891 1.490 . S
C2896 C2898 1.395 . S
C2896 C2899 1.403 . S
H2897 C2903 0.930 . S
C2898 H2884 0.930 . S
C2898 C2896 1.395 . S
C2898 C2901 1.403 . S
C2899 C2896 1.403 . S
C2899 C2900 1.524 . S
C2899 C2903 1.400 . S
C2900 H2885 0.960 . S
C2900 H2886 0.960 . S
C2900 H2887 0.960 . S
C2900 C2899 1.524 . S
C2901 C2898 1.403 . S
C2901 C2902 1.392 . S
C2901 C2905 1.495 . S
C2902 C2901 1.392 . S
C2902 C2903 1.385 . S
C2902 C2904 1.478 . S
C2903 H2897 0.930 . S
C2903 C2899 1.400 . S
C2903 C2902 1.385 . S
C2904 C2902 1.478 . S
C2904 C2906 1.381 . S
C2904 C2910 1.383 . S
C2905 C2901 1.495 . S
C2905 H2911 0.959 . S
C2905 H2912 0.961 . S
C2905 H2913 0.960 . S
C2906 C2904 1.381 . S
C2906 C2907 1.394 . S
C2906 H2914 0.930 . S
C2907 C2906 1.394 . S
C2907 C2908 1.383 . S
C2907 H2915 0.929 . S
C2908 C2907 1.383 . S
C2908 C2909 1.377 . S
C2909 H2893 0.930 . S
C2909 C2908 1.377 . S
C2909 C2910 1.379 . S
C2910 H2894 0.931 . S
C2910 C2904 1.383 . S
C2910 C2909 1.379 . S
H2911 C2905 0.959 . S
H2912 C2905 0.961 . S
H2913 C2905 0.960 . S
H2914 C2906 0.930 . S
H2915 C2907 0.929 . S
H2916 C2924 0.929 . S
H2917 C2926 0.930 . S
H2918 C2928 0.930 1_655 S
H2919 C2931 0.929 . S
H2920 C2934 0.930 . S
H2921 C2936 0.960 . S
H2922 C2936 0.960 . S
H2923 C2936 0.960 . S
C2924 H2916 0.929 . S
C2924 C2925 1.377 . S
C2924 C2926 1.384 . S
C2925 C2924 1.377 . S
C2925 C2931 1.390 . S
C2926 H2917 0.930 . S
C2926 C2924 1.384 . S
C2926 C2927 1.372 1_455 S
C2927 C2926 1.372 1_655 S
C2927 C2928 1.400 1_655 S
C2927 C2932 1.490 . S
C2928 H2918 0.930 1_455 S
C2928 C2927 1.400 1_455 S
C2928 C2931 1.386 . S
H2929 C2945 0.930 . S
H2930 C2946 0.931 . S
C2931 H2919 0.929 . S
C2931 C2925 1.390 . S
C2931 C2928 1.386 . S
C2932 C2927 1.490 . S
C2932 C2934 1.395 . S
C2932 C2935 1.403 . S
H2933 C2939 0.930 . S
C2934 H2920 0.930 . S
C2934 C2932 1.395 . S
C2934 C2937 1.403 . S
C2935 C2932 1.403 . S
C2935 C2936 1.524 . S
C2935 C2939 1.400 . S
C2936 H2921 0.960 . S
C2936 H2922 0.960 . S
C2936 H2923 0.960 . S
C2936 C2935 1.524 . S
C2937 C2934 1.403 . S
C2937 C2938 1.392 . S
C2937 C2941 1.495 . S
C2938 C2937 1.392 . S
C2938 C2939 1.385 . S
C2938 C2940 1.478 . S
C2939 H2933 0.930 . S
C2939 C2935 1.400 . S
C2939 C2938 1.385 . S
C2940 C2938 1.478 . S
C2940 C2942 1.381 . S
C2940 C2946 1.383 . S
C2941 C2937 1.495 . S
C2941 H2947 0.959 . S
C2941 H2948 0.961 . S
C2941 H2949 0.960 . S
C2942 C2940 1.381 . S
C2942 C2943 1.394 . S
C2942 H2950 0.930 . S
C2943 C2942 1.394 . S
C2943 C2944 1.383 . S
C2943 H2951 0.929 . S
C2944 C2943 1.383 . S
C2944 C2945 1.377 . S
C2945 H2929 0.930 . S
C2945 C2944 1.377 . S
C2945 C2946 1.379 . S
C2946 H2930 0.931 . S
C2946 C2940 1.383 . S
C2946 C2945 1.379 . S
H2947 C2941 0.959 . S
H2948 C2941 0.961 . S
H2949 C2941 0.960 . S
H2950 C2942 0.930 . S
H2951 C2943 0.929 . S
H2952 C2960 0.929 . S
H2953 C2962 0.930 . S
H2954 C2964 0.930 . S
H2955 C2967 0.929 . S
H2956 C2970 0.930 . S
H2957 C2972 0.960 . S
H2958 C2972 0.960 . S
H2959 C2972 0.960 . S
C2960 H2952 0.929 . S
C2960 C2961 1.377 . S
C2960 C2962 1.384 . S
C2961 C2960 1.377 . S
C2961 C2967 1.390 . S
C2962 H2953 0.930 . S
C2962 C2960 1.384 . S
C2962 C2963 1.372 . S
C2963 C2962 1.372 . S
C2963 C2964 1.400 . S
C2963 C2968 1.490 . S
C2964 H2954 0.930 . S
C2964 C2963 1.400 . S
C2964 C2967 1.386 . S
H2965 C2981 0.930 . S
H2966 C2982 0.931 . S
C2967 H2955 0.929 . S
C2967 C2961 1.390 . S
C2967 C2964 1.386 . S
C2968 C2963 1.490 . S
C2968 C2970 1.395 . S
C2968 C2971 1.403 . S
H2969 C2975 0.930 . S
C2970 H2956 0.930 . S
C2970 C2968 1.395 . S
C2970 C2973 1.403 . S
C2971 C2968 1.403 . S
C2971 C2972 1.524 . S
C2971 C2975 1.400 . S
C2972 H2957 0.960 . S
C2972 H2958 0.960 . S
C2972 H2959 0.960 . S
C2972 C2971 1.524 . S
C2973 C2970 1.403 . S
C2973 C2974 1.392 . S
C2973 C2977 1.495 . S
C2974 C2973 1.392 . S
C2974 C2975 1.385 . S
C2974 C2976 1.478 . S
C2975 H2969 0.930 . S
C2975 C2971 1.400 . S
C2975 C2974 1.385 . S
C2976 C2974 1.478 . S
C2976 C2978 1.381 . S
C2976 C2982 1.383 . S
C2977 C2973 1.495 . S
C2977 H2983 0.959 . S
C2977 H2984 0.961 . S
C2977 H2985 0.960 . S
C2978 C2976 1.381 . S
C2978 C2979 1.394 . S
C2978 H2986 0.930 . S
C2979 C2978 1.394 . S
C2979 C2980 1.383 . S
C2979 H2987 0.929 . S
C2980 C2979 1.383 . S
C2980 C2981 1.377 . S
C2981 H2965 0.930 . S
C2981 C2980 1.377 . S
C2981 C2982 1.379 . S
C2982 H2966 0.931 . S
C2982 C2976 1.383 . S
C2982 C2981 1.379 . S
H2983 C2977 0.959 . S
H2984 C2977 0.961 . S
H2985 C2977 0.960 . S
H2986 C2978 0.930 . S
H2987 C2979 0.929 . S
H2988 C2996 0.929 . S
H2989 C2998 0.930 . S
H2990 C3000 0.930 1_545 S
H2991 C3003 0.929 . S
H2992 C3006 0.930 . S
H2993 C3008 0.960 . S
H2994 C3008 0.960 . S
H2995 C3008 0.960 . S
C2996 H2988 0.929 . S
C2996 C2997 1.377 . S
C2996 C2998 1.384 . S
C2997 C2996 1.377 . S
C2997 C3003 1.390 . S
C2998 H2989 0.930 . S
C2998 C2996 1.384 . S
C2998 C2999 1.395 . S
C2999 C2998 1.395 . S
C2999 C3000 1.403 . S
C2999 C3004 1.466 1_565 S
C3000 H2990 0.930 1_565 S
C3000 C2999 1.403 . S
C3000 C3003 1.386 . S
H3001 C3017 0.930 . S
H3002 C3018 0.931 . S
C3003 H2991 0.929 . S
C3003 C2997 1.390 . S
C3003 C3000 1.386 . S
C3004 C2999 1.466 1_545 S
C3004 C3006 1.395 . S
C3004 C3007 1.403 . S
H3005 C3011 0.930 . S
C3006 H2992 0.930 . S
C3006 C3004 1.395 . S
C3006 C3009 1.403 . S
C3007 C3004 1.403 . S
C3007 C3008 1.524 . S
C3007 C3011 1.400 . S
C3008 H2993 0.960 . S
C3008 H2994 0.960 . S
C3008 H2995 0.960 . S
C3008 C3007 1.524 . S
C3009 C3006 1.403 . S
C3009 C3010 1.392 . S
C3009 C3013 1.495 . S
C3010 C3009 1.392 . S
C3010 C3011 1.385 . S
C3010 C3012 1.478 . S
C3011 H3005 0.930 . S
C3011 C3007 1.400 . S
C3011 C3010 1.385 . S
C3012 C3010 1.478 . S
C3012 C3014 1.381 . S
C3012 C3018 1.383 . S
C3013 C3009 1.495 . S
C3013 H3019 0.959 . S
C3013 H3020 0.961 . S
C3013 H3021 0.960 . S
C3014 C3012 1.381 . S
C3014 C3015 1.394 . S
C3014 H3022 0.930 . S
C3015 C3014 1.394 . S
C3015 C3016 1.383 . S
C3015 H3023 0.929 . S
C3016 C3015 1.383 . S
C3016 C3017 1.377 . S
C3017 H3001 0.930 . S
C3017 C3016 1.377 . S
C3017 C3018 1.379 . S
C3018 H3002 0.931 . S
C3018 C3012 1.383 . S
C3018 C3017 1.379 . S
H3019 C3013 0.959 . S
H3020 C3013 0.961 . S
H3021 C3013 0.960 . S
H3022 C3014 0.930 . S
H3023 C3015 0.929 . S
H3024 C3032 0.929 . S
H3025 C3034 0.930 . S
H3026 C3036 0.930 . S
H3027 C3039 0.929 . S
H3028 C3042 0.930 . S
H3029 C3044 0.960 . S
H3030 C3044 0.960 . S
H3031 C3044 0.960 . S
C3032 H3024 0.929 . S
C3032 C3033 1.377 . S
C3032 C3034 1.384 . S
C3033 C3032 1.377 . S
C3033 C3039 1.390 . S
C3034 H3025 0.930 . S
C3034 C3032 1.384 . S
C3034 C3035 1.372 . S
C3035 C3034 1.372 . S
C3035 C3036 1.400 . S
C3035 C3040 1.490 . S
C3036 H3026 0.930 . S
C3036 C3035 1.400 . S
C3036 C3039 1.386 . S
H3037 C3053 0.930 . S
H3038 C3054 0.931 . S
C3039 H3027 0.929 . S
C3039 C3033 1.390 . S
C3039 C3036 1.386 . S
C3040 C3035 1.490 . S
C3040 C3042 1.395 . S
C3040 C3043 1.403 . S
H3041 C3047 0.930 . S
C3042 H3028 0.930 . S
C3042 C3040 1.395 . S
C3042 C3045 1.403 . S
C3043 C3040 1.403 . S
C3043 C3044 1.524 . S
C3043 C3047 1.400 . S
C3044 H3029 0.960 . S
C3044 H3030 0.960 . S
C3044 H3031 0.960 . S
C3044 C3043 1.524 . S
C3045 C3042 1.403 . S
C3045 C3046 1.392 . S
C3045 C3049 1.495 . S
C3046 C3045 1.392 . S
C3046 C3047 1.385 . S
C3046 C3048 1.478 . S
C3047 H3041 0.930 . S
C3047 C3043 1.400 . S
C3047 C3046 1.385 . S
C3048 C3046 1.478 . S
C3048 C3050 1.381 . S
C3048 C3054 1.383 . S
C3049 C3045 1.495 . S
C3049 H3055 0.959 . S
C3049 H3056 0.961 . S
C3049 H3057 0.960 . S
C3050 C3048 1.381 . S
C3050 C3051 1.394 . S
C3050 H3058 0.930 . S
C3051 C3050 1.394 . S
C3051 C3052 1.383 . S
C3051 H3059 0.929 . S
C3052 C3051 1.383 . S
C3052 C3053 1.377 . S
C3053 H3037 0.930 . S
C3053 C3052 1.377 . S
C3053 C3054 1.379 . S
C3054 H3038 0.931 . S
C3054 C3048 1.383 . S
C3054 C3053 1.379 . S
H3055 C3049 0.959 . S
H3056 C3049 0.961 . S
H3057 C3049 0.960 . S
H3058 C3050 0.930 . S
H3059 C3051 0.929 . S
H3060 C3068 0.929 . S
H3061 C3070 0.930 . S
H3062 C3072 0.930 . S
H3063 C3075 0.929 . S
H3064 C3078 0.930 . S
H3065 C3080 0.960 . S
H3066 C3080 0.960 . S
H3067 C3080 0.960 . S
C3068 H3060 0.929 . S
C3068 C3069 1.377 . S
C3068 C3070 1.384 . S
C3069 C3068 1.377 . S
C3069 C3075 1.390 . S
C3070 H3061 0.930 . S
C3070 C3068 1.384 . S
C3070 C3071 1.372 . S
C3071 C3070 1.372 . S
C3071 C3072 1.400 . S
C3071 C3076 1.490 . S
C3072 H3062 0.930 . S
C3072 C3071 1.400 . S
C3072 C3075 1.386 . S
H3073 C3089 0.930 . S
H3074 C3090 0.931 . S
C3075 H3063 0.929 . S
C3075 C3069 1.390 . S
C3075 C3072 1.386 . S
C3076 C3071 1.490 . S
C3076 C3078 1.395 . S
C3076 C3079 1.403 . S
H3077 C3083 0.930 . S
C3078 H3064 0.930 . S
C3078 C3076 1.395 . S
C3078 C3081 1.403 . S
C3079 C3076 1.403 . S
C3079 C3080 1.524 . S
C3079 C3083 1.400 . S
C3080 H3065 0.960 . S
C3080 H3066 0.960 . S
C3080 H3067 0.960 . S
C3080 C3079 1.524 . S
C3081 C3078 1.403 . S
C3081 C3082 1.392 . S
C3081 C3085 1.495 . S
C3082 C3081 1.392 . S
C3082 C3083 1.385 . S
C3082 C3084 1.478 . S
C3083 H3077 0.930 . S
C3083 C3079 1.400 . S
C3083 C3082 1.385 . S
C3084 C3082 1.478 . S
C3084 C3086 1.381 . S
C3084 C3090 1.383 . S
C3085 C3081 1.495 . S
C3085 H3091 0.959 . S
C3085 H3092 0.961 . S
C3085 H3093 0.960 . S
C3086 C3084 1.381 . S
C3086 C3087 1.394 . S
C3086 H3094 0.930 . S
C3087 C3086 1.394 . S
C3087 C3088 1.383 . S
C3087 H3095 0.929 . S
C3088 C3087 1.383 . S
C3088 C3089 1.377 . S
C3089 H3073 0.930 . S
C3089 C3088 1.377 . S
C3089 C3090 1.379 . S
C3090 H3074 0.931 . S
C3090 C3084 1.383 . S
C3090 C3089 1.379 . S
H3091 C3085 0.959 . S
H3092 C3085 0.961 . S
H3093 C3085 0.960 . S
H3094 C3086 0.930 . S
H3095 C3087 0.929 . S
H3096 C3104 0.929 . S
H3097 C3106 0.930 . S
H3098 C3108 0.930 . S
H3099 C3111 0.929 . S
H3100 C3114 0.930 . S
H3101 C3116 0.960 . S
H3102 C3116 0.960 . S
H3103 C3116 0.960 . S
C3104 H3096 0.929 . S
C3104 C3105 1.377 . S
C3104 C3106 1.384 . S
C3105 C3104 1.377 . S
C3105 C3111 1.390 . S
C3106 H3097 0.930 . S
C3106 C3104 1.384 . S
C3106 C3107 1.372 . S
C3107 C3106 1.372 . S
C3107 C3108 1.400 . S
C3107 C3112 1.490 . S
C3108 H3098 0.930 . S
C3108 C3107 1.400 . S
C3108 C3111 1.386 . S
H3109 C3125 0.930 . S
H3110 C3126 0.931 . S
C3111 H3099 0.929 . S
C3111 C3105 1.390 . S
C3111 C3108 1.386 . S
C3112 C3107 1.490 . S
C3112 C3114 1.395 . S
C3112 C3115 1.403 . S
H3113 C3119 0.930 . S
C3114 H3100 0.930 . S
C3114 C3112 1.395 . S
C3114 C3117 1.403 . S
C3115 C3112 1.403 . S
C3115 C3116 1.524 . S
C3115 C3119 1.400 . S
C3116 H3101 0.960 . S
C3116 H3102 0.960 . S
C3116 H3103 0.960 . S
C3116 C3115 1.524 . S
C3117 C3114 1.403 . S
C3117 C3118 1.392 . S
C3117 C3121 1.495 . S
C3118 C3117 1.392 . S
C3118 C3119 1.385 . S
C3118 C3120 1.478 . S
C3119 H3113 0.930 . S
C3119 C3115 1.400 . S
C3119 C3118 1.385 . S
C3120 C3118 1.478 . S
C3120 C3122 1.381 . S
C3120 C3126 1.383 . S
C3121 C3117 1.495 . S
C3121 H3127 0.959 . S
C3121 H3128 0.961 . S
C3121 H3129 0.960 . S
C3122 C3120 1.381 . S
C3122 C3123 1.394 . S
C3122 H3130 0.930 . S
C3123 C3122 1.394 . S
C3123 C3124 1.383 . S
C3123 H3131 0.929 . S
C3124 C3123 1.383 . S
C3124 C3125 1.377 . S
C3125 H3109 0.930 . S
C3125 C3124 1.377 . S
C3125 C3126 1.379 . S
C3126 H3110 0.931 . S
C3126 C3120 1.383 . S
C3126 C3125 1.379 . S
H3127 C3121 0.959 . S
H3128 C3121 0.961 . S
H3129 C3121 0.960 . S
H3130 C3122 0.930 . S
H3131 C3123 0.929 . S
H3132 C3140 0.929 . S
H3133 C3142 0.930 . S
H3134 C3144 0.930 . S
H3135 C3147 0.929 . S
H3136 C3150 0.930 . S
H3137 C3152 0.960 . S
H3138 C3152 0.960 . S
H3139 C3152 0.960 . S
C3140 H3132 0.929 . S
C3140 C3141 1.377 . S
C3140 C3142 1.384 . S
C3141 C3140 1.377 . S
C3141 C3147 1.390 . S
C3142 H3133 0.930 . S
C3142 C3140 1.384 . S
C3142 C3143 1.372 . S
C3143 C3142 1.372 . S
C3143 C3144 1.400 . S
C3143 C3148 1.490 . S
C3144 H3134 0.930 . S
C3144 C3143 1.400 . S
C3144 C3147 1.386 . S
H3145 C3161 0.930 1_545 S
H3146 C3162 0.931 . S
C3147 H3135 0.929 . S
C3147 C3141 1.390 . S
C3147 C3144 1.386 . S
C3148 C3143 1.490 . S
C3148 C3150 1.395 . S
C3148 C3151 1.403 . S
H3149 C3155 0.930 . S
C3150 H3136 0.930 . S
C3150 C3148 1.395 . S
C3150 C3153 1.403 . S
C3151 C3148 1.403 . S
C3151 C3152 1.524 . S
C3151 C3155 1.400 . S
C3152 H3137 0.960 . S
C3152 H3138 0.960 . S
C3152 H3139 0.960 . S
C3152 C3151 1.524 . S
C3153 C3150 1.403 . S
C3153 C3154 1.392 . S
C3153 C3157 1.495 . S
C3154 C3153 1.392 . S
C3154 C3155 1.385 . S
C3154 C3156 1.478 . S
C3155 H3149 0.930 . S
C3155 C3151 1.400 . S
C3155 C3154 1.385 . S
C3156 C3154 1.478 . S
C3156 C3158 1.381 . S
C3156 C3162 1.383 . S
C3157 C3153 1.495 . S
C3157 H3163 0.959 . S
C3157 H3164 0.961 . S
C3157 H3165 0.960 . S
C3158 C3156 1.381 . S
C3158 C3159 1.394 . S
C3158 H3166 0.930 . S
C3159 C3158 1.394 . S
C3159 C3160 1.383 . S
C3159 H3167 0.929 . S
C3160 C3159 1.383 . S
C3160 C3161 1.377 . S
C3161 H3145 0.930 1_565 S
C3161 C3160 1.377 . S
C3161 C3162 1.379 . S
C3162 H3146 0.931 . S
C3162 C3156 1.383 . S
C3162 C3161 1.379 . S
H3163 C3157 0.959 . S
H3164 C3157 0.961 . S
H3165 C3157 0.960 . S
H3166 C3158 0.930 . S
H3167 C3159 0.929 . S
H3168 C3176 0.929 . S
H3169 C3178 0.930 . S
H3170 C3180 0.930 . S
H3171 C3183 0.929 . S
H3172 C3186 0.930 . S
H3173 C3188 0.960 . S
H3174 C3188 0.960 . S
H3175 C3188 0.960 . S
C3176 H3168 0.929 . S
C3176 C3177 1.377 . S
C3176 C3178 1.384 . S
C3177 C3176 1.377 . S
C3177 C3183 1.390 . S
C3178 H3169 0.930 . S
C3178 C3176 1.384 . S
C3178 C3179 1.372 . S
C3179 C3178 1.372 . S
C3179 C3180 1.400 . S
C3179 C3184 1.490 . S
C3180 H3170 0.930 . S
C3180 C3179 1.400 . S
C3180 C3183 1.386 . S
H3181 C3197 0.930 . S
H3182 C3198 0.931 . S
C3183 H3171 0.929 . S
C3183 C3177 1.390 . S
C3183 C3180 1.386 . S
C3184 C3179 1.490 . S
C3184 C3186 1.395 . S
C3184 C3187 1.403 . S
H3185 C3191 0.930 . S
C3186 H3172 0.930 . S
C3186 C3184 1.395 . S
C3186 C3189 1.403 . S
C3187 C3184 1.403 . S
C3187 C3188 1.524 . S
C3187 C3191 1.400 . S
C3188 H3173 0.960 . S
C3188 H3174 0.960 . S
C3188 H3175 0.960 . S
C3188 C3187 1.524 . S
C3189 C3186 1.403 . S
C3189 C3190 1.392 . S
C3189 C3193 1.495 . S
C3190 C3189 1.392 . S
C3190 C3191 1.385 . S
C3190 C3192 1.478 . S
C3191 H3185 0.930 . S
C3191 C3187 1.400 . S
C3191 C3190 1.385 . S
C3192 C3190 1.478 . S
C3192 C3194 1.381 . S
C3192 C3198 1.383 . S
C3193 C3189 1.495 . S
C3193 H3199 0.959 . S
C3193 H3200 0.961 . S
C3193 H3201 0.960 . S
C3194 C3192 1.381 . S
C3194 C3195 1.394 . S
C3194 H3202 0.930 . S
C3195 C3194 1.394 . S
C3195 C3196 1.383 . S
C3195 H3203 0.929 1_455 S
C3196 C3195 1.383 . S
C3196 C3197 1.377 . S
C3197 H3181 0.930 . S
C3197 C3196 1.377 . S
C3197 C3198 1.379 . S
C3198 H3182 0.931 . S
C3198 C3192 1.383 . S
C3198 C3197 1.379 . S
H3199 C3193 0.959 . S
H3200 C3193 0.961 . S
H3201 C3193 0.960 . S
H3202 C3194 0.930 . S
H3203 C3195 0.929 1_655 S
H3204 C3212 0.929 . S
H3205 C3214 0.930 . S
H3206 C3216 0.930 . S
H3207 C3219 0.929 . S
H3208 C3222 0.930 . S
H3209 C3224 0.960 . S
H3210 C3224 0.960 . S
H3211 C3224 0.960 . S
C3212 H3204 0.929 . S
C3212 C3213 1.377 . S
C3212 C3214 1.384 . S
C3213 C3212 1.377 . S
C3213 C3219 1.390 . S
C3214 H3205 0.930 . S
C3214 C3212 1.384 . S
C3214 C3215 1.372 . S
C3215 C3214 1.372 . S
C3215 C3216 1.400 . S
C3215 C3220 1.490 . S
C3216 H3206 0.930 . S
C3216 C3215 1.400 . S
C3216 C3219 1.386 . S
H3217 C3233 0.930 . S
H3218 C3234 0.931 . S
C3219 H3207 0.929 . S
C3219 C3213 1.390 . S
C3219 C3216 1.386 . S
C3220 C3215 1.490 . S
C3220 C3222 1.395 . S
C3220 C3223 1.403 . S
H3221 C3227 0.930 . S
C3222 H3208 0.930 . S
C3222 C3220 1.395 . S
C3222 C3225 1.403 . S
C3223 C3220 1.403 . S
C3223 C3224 1.524 . S
C3223 C3227 1.400 . S
C3224 H3209 0.960 . S
C3224 H3210 0.960 . S
C3224 H3211 0.960 . S
C3224 C3223 1.524 . S
C3225 C3222 1.403 . S
C3225 C3226 1.392 . S
C3225 C3229 1.495 . S
C3226 C3225 1.392 . S
C3226 C3227 1.385 . S
C3226 C3228 1.478 . S
C3227 H3221 0.930 . S
C3227 C3223 1.400 . S
C3227 C3226 1.385 . S
C3228 C3226 1.478 . S
C3228 C3230 1.381 . S
C3228 C3234 1.383 . S
C3229 C3225 1.495 . S
C3229 H3235 0.959 . S
C3229 H3236 0.961 . S
C3229 H3237 0.960 . S
C3230 C3228 1.381 . S
C3230 C3231 1.394 . S
C3230 H3238 0.930 . S
C3231 C3230 1.394 . S
C3231 C3232 1.383 . S
C3231 H3239 0.929 . S
C3232 C3231 1.383 . S
C3232 C3233 1.377 . S
C3233 H3217 0.930 . S
C3233 C3232 1.377 . S
C3233 C3234 1.379 . S
C3234 H3218 0.931 . S
C3234 C3228 1.383 . S
C3234 C3233 1.379 . S
H3235 C3229 0.959 . S
H3236 C3229 0.961 . S
H3237 C3229 0.960 . S
H3238 C3230 0.930 . S
H3239 C3231 0.929 . S
H3240 C3248 0.929 . S
H3241 C3250 0.930 . S
H3242 C3252 0.930 . S
H3243 C3255 0.929 . S
H3244 C3258 0.930 . S
H3245 C3260 0.960 . S
H3246 C3260 0.960 . S
H3247 C3260 0.960 . S
C3248 H3240 0.929 . S
C3248 C3249 1.377 . S
C3248 C3250 1.384 . S
C3249 C3248 1.377 . S
C3249 C3255 1.390 . S
C3250 H3241 0.930 . S
C3250 C3248 1.384 . S
C3250 C3251 1.372 . S
C3251 C3250 1.372 . S
C3251 C3252 1.400 . S
C3251 C3256 1.490 . S
C3252 H3242 0.930 . S
C3252 C3251 1.400 . S
C3252 C3255 1.386 . S
H3253 C3269 0.930 . S
H3254 C3270 0.931 . S
C3255 H3243 0.929 . S
C3255 C3249 1.390 . S
C3255 C3252 1.386 . S
C3256 C3251 1.490 . S
C3256 C3258 1.395 . S
C3256 C3259 1.403 . S
H3257 C3263 0.930 . S
C3258 H3244 0.930 . S
C3258 C3256 1.395 . S
C3258 C3261 1.403 . S
C3259 C3256 1.403 . S
C3259 C3260 1.524 . S
C3259 C3263 1.400 . S
C3260 H3245 0.960 . S
C3260 H3246 0.960 . S
C3260 H3247 0.960 . S
C3260 C3259 1.524 . S
C3261 C3258 1.403 . S
C3261 C3262 1.392 . S
C3261 C3265 1.495 . S
C3262 C3261 1.392 . S
C3262 C3263 1.385 . S
C3262 C3264 1.478 . S
C3263 H3257 0.930 . S
C3263 C3259 1.400 . S
C3263 C3262 1.385 . S
C3264 C3262 1.478 . S
C3264 C3266 1.381 . S
C3264 C3270 1.383 . S
C3265 C3261 1.495 . S
C3265 H3271 0.959 . S
C3265 H3272 0.961 . S
C3265 H3273 0.960 . S
C3266 C3264 1.381 . S
C3266 C3267 1.394 . S
C3266 H3274 0.930 . S
C3267 C3266 1.394 . S
C3267 C3268 1.383 . S
C3267 H3275 0.929 . S
C3268 C3267 1.383 . S
C3268 C3269 1.377 . S
C3269 H3253 0.930 . S
C3269 C3268 1.377 . S
C3269 C3270 1.379 . S
C3270 H3254 0.931 . S
C3270 C3264 1.383 . S
C3270 C3269 1.379 . S
H3271 C3265 0.959 . S
H3272 C3265 0.961 . S
H3273 C3265 0.960 . S
H3274 C3266 0.930 . S
H3275 C3267 0.929 . S
H3276 C3284 0.929 . S
H3277 C3286 0.930 . S
H3278 C3288 0.930 . S
H3279 C3291 0.929 . S
H3280 C3294 0.930 . S
H3281 C3296 0.960 . S
H3282 C3296 0.960 . S
H3283 C3296 0.960 . S
C3284 H3276 0.929 . S
C3284 C3285 1.377 . S
C3284 C3286 1.384 . S
C3285 C3284 1.377 . S
C3285 C3291 1.390 . S
C3286 H3277 0.930 . S
C3286 C3284 1.384 . S
C3286 C3287 1.372 . S
C3287 C3286 1.372 . S
C3287 C3288 1.400 . S
C3287 C3292 1.490 . S
C3288 H3278 0.930 . S
C3288 C3287 1.400 . S
C3288 C3291 1.386 . S
H3289 C3305 0.930 . S
H3290 C3306 0.931 . S
C3291 H3279 0.929 . S
C3291 C3285 1.390 . S
C3291 C3288 1.386 . S
C3292 C3287 1.490 . S
C3292 C3294 1.395 . S
C3292 C3295 1.403 . S
H3293 C3299 0.930 . S
C3294 H3280 0.930 . S
C3294 C3292 1.395 . S
C3294 C3297 1.403 . S
C3295 C3292 1.403 . S
C3295 C3296 1.524 . S
C3295 C3299 1.400 . S
C3296 H3281 0.960 . S
C3296 H3282 0.960 . S
C3296 H3283 0.960 . S
C3296 C3295 1.524 . S
C3297 C3294 1.403 . S
C3297 C3298 1.392 . S
C3297 C3301 1.495 . S
C3298 C3297 1.392 . S
C3298 C3299 1.385 . S
C3298 C3300 1.478 . S
C3299 H3293 0.930 . S
C3299 C3295 1.400 . S
C3299 C3298 1.385 . S
C3300 C3298 1.478 . S
C3300 C3302 1.381 . S
C3300 C3306 1.383 . S
C3301 C3297 1.495 . S
C3301 H3307 0.959 . S
C3301 H3308 0.961 . S
C3301 H3309 0.960 . S
C3302 C3300 1.381 . S
C3302 C3303 1.394 . S
C3302 H3310 0.930 . S
C3303 C3302 1.394 . S
C3303 C3304 1.383 . S
C3303 H3311 0.929 . S
C3304 C3303 1.383 . S
C3304 C3305 1.377 . S
C3305 H3289 0.930 . S
C3305 C3304 1.377 . S
C3305 C3306 1.379 . S
C3306 H3290 0.931 . S
C3306 C3300 1.383 . S
C3306 C3305 1.379 . S
H3307 C3301 0.959 . S
H3308 C3301 0.961 . S
H3309 C3301 0.960 . S
H3310 C3302 0.930 . S
H3311 C3303 0.929 . S
H3312 C3320 0.929 . S
H3313 C3322 0.930 . S
H3314 C3324 0.930 . S
H3315 C3327 0.929 . S
H3316 C3330 0.930 . S
H3317 C3332 0.960 . S
H3318 C3332 0.960 . S
H3319 C3332 0.960 . S
C3320 H3312 0.929 . S
C3320 C3321 1.377 . S
C3320 C3322 1.384 . S
C3321 C3320 1.377 . S
C3321 C3327 1.390 . S
C3322 H3313 0.930 . S
C3322 C3320 1.384 . S
C3322 C3323 1.372 . S
C3323 C3322 1.372 . S
C3323 C3324 1.400 . S
C3323 C3328 1.490 . S
C3324 H3314 0.930 . S
C3324 C3323 1.400 . S
C3324 C3327 1.386 . S
H3325 C3341 0.930 . S
H3326 C3342 0.931 . S
C3327 H3315 0.929 . S
C3327 C3321 1.390 . S
C3327 C3324 1.386 . S
C3328 C3323 1.490 . S
C3328 C3330 1.395 . S
C3328 C3331 1.403 . S
H3329 C3335 0.930 . S
C3330 H3316 0.930 . S
C3330 C3328 1.395 . S
C3330 C3333 1.403 . S
C3331 C3328 1.403 . S
C3331 C3332 1.524 . S
C3331 C3335 1.400 . S
C3332 H3317 0.960 . S
C3332 H3318 0.960 . S
C3332 H3319 0.960 . S
C3332 C3331 1.524 . S
C3333 C3330 1.403 . S
C3333 C3334 1.392 . S
C3333 C3337 1.495 . S
C3334 C3333 1.392 . S
C3334 C3335 1.385 . S
C3334 C3336 1.478 . S
C3335 H3329 0.930 . S
C3335 C3331 1.400 . S
C3335 C3334 1.385 . S
C3336 C3334 1.478 . S
C3336 C3338 1.381 . S
C3336 C3342 1.383 . S
C3337 C3333 1.495 . S
C3337 H3343 0.959 1_545 S
C3337 H3344 0.961 . S
C3337 H3345 0.960 1_545 S
C3338 C3336 1.381 . S
C3338 C3339 1.394 . S
C3338 H3346 0.930 . S
C3339 C3338 1.394 . S
C3339 C3340 1.383 . S
C3339 H3347 0.929 . S
C3340 C3339 1.383 . S
C3340 C3341 1.377 . S
C3341 H3325 0.930 . S
C3341 C3340 1.377 . S
C3341 C3342 1.379 . S
C3342 H3326 0.931 . S
C3342 C3336 1.383 . S
C3342 C3341 1.379 . S
H3343 C3337 0.959 1_565 S
H3344 C3337 0.961 . S
H3345 C3337 0.960 1_565 S
H3346 C3338 0.930 . S
H3347 C3339 0.929 . S
H3348 C3356 0.929 . S
H3349 C3358 0.930 . S
H3350 C3360 0.930 . S
H3351 C3363 0.929 . S
H3352 C3366 0.930 . S
H3353 C3368 0.960 . S
H3354 C3368 0.960 . S
H3355 C3368 0.960 . S
C3356 H3348 0.929 . S
C3356 C3357 1.377 . S
C3356 C3358 1.384 . S
C3357 C3356 1.377 . S
C3357 C3363 1.390 . S
C3358 H3349 0.930 . S
C3358 C3356 1.384 . S
C3358 C3359 1.372 . S
C3359 C3358 1.372 . S
C3359 C3360 1.400 . S
C3359 C3364 1.490 . S
C3360 H3350 0.930 . S
C3360 C3359 1.400 . S
C3360 C3363 1.386 . S
H3361 C3377 0.930 . S
H3362 C3378 0.931 . S
C3363 H3351 0.929 . S
C3363 C3357 1.390 . S
C3363 C3360 1.386 . S
C3364 C3359 1.490 . S
C3364 C3366 1.395 . S
C3364 C3367 1.403 . S
H3365 C3371 0.930 . S
C3366 H3352 0.930 . S
C3366 C3364 1.395 . S
C3366 C3369 1.403 . S
C3367 C3364 1.403 . S
C3367 C3368 1.524 . S
C3367 C3371 1.400 . S
C3368 H3353 0.960 . S
C3368 H3354 0.960 . S
C3368 H3355 0.960 . S
C3368 C3367 1.524 . S
C3369 C3366 1.403 . S
C3369 C3370 1.392 . S
C3369 C3373 1.495 . S
C3370 C3369 1.392 . S
C3370 C3371 1.385 . S
C3370 C3372 1.478 . S
C3371 H3365 0.930 . S
C3371 C3367 1.400 . S
C3371 C3370 1.385 . S
C3372 C3370 1.478 . S
C3372 C3374 1.381 . S
C3372 C3378 1.383 . S
C3373 C3369 1.495 . S
C3373 H3379 0.959 . S
C3373 H3380 0.961 . S
C3373 H3381 0.960 . S
C3374 C3372 1.381 . S
C3374 C3375 1.394 . S
C3374 H3382 0.930 . S
C3375 C3374 1.394 . S
C3375 C3376 1.383 . S
C3375 H3383 0.929 . S
C3376 C3375 1.383 . S
C3376 C3377 1.377 . S
C3377 H3361 0.930 . S
C3377 C3376 1.377 . S
C3377 C3378 1.379 . S
C3378 H3362 0.931 . S
C3378 C3372 1.383 . S
C3378 C3377 1.379 . S
H3379 C3373 0.959 . S
H3380 C3373 0.961 . S
H3381 C3373 0.960 . S
H3382 C3374 0.930 . S
H3383 C3375 0.929 . S
H3384 C3392 0.929 . S
H3385 C3394 0.930 . S
H3386 C3396 0.930 . S
H3387 C3399 0.929 . S
H3388 C3402 0.930 . S
H3389 C3404 0.960 . S
H3390 C3404 0.960 . S
H3391 C3404 0.960 . S
C3392 H3384 0.929 . S
C3392 C3393 1.377 . S
C3392 C3394 1.384 . S
C3393 C3392 1.377 . S
C3393 C3399 1.390 . S
C3394 H3385 0.930 . S
C3394 C3392 1.384 . S
C3394 C3395 1.372 . S
C3395 C3394 1.372 . S
C3395 C3396 1.400 . S
C3395 C3400 1.490 . S
C3396 H3386 0.930 . S
C3396 C3395 1.400 . S
C3396 C3399 1.386 . S
H3397 C3413 0.930 . S
H3398 C3414 0.931 . S
C3399 H3387 0.929 . S
C3399 C3393 1.390 . S
C3399 C3396 1.386 . S
C3400 C3395 1.490 . S
C3400 C3402 1.395 . S
C3400 C3403 1.403 . S
H3401 C3407 0.930 . S
C3402 H3388 0.930 . S
C3402 C3400 1.395 . S
C3402 C3405 1.403 . S
C3403 C3400 1.403 . S
C3403 C3404 1.524 . S
C3403 C3407 1.400 . S
C3404 H3389 0.960 . S
C3404 H3390 0.960 . S
C3404 H3391 0.960 . S
C3404 C3403 1.524 . S
C3405 C3402 1.403 . S
C3405 C3406 1.392 . S
C3405 C3409 1.495 . S
C3406 C3405 1.392 . S
C3406 C3407 1.385 . S
C3406 C3408 1.478 . S
C3407 H3401 0.930 . S
C3407 C3403 1.400 . S
C3407 C3406 1.385 . S
C3408 C3406 1.478 . S
C3408 C3410 1.381 . S
C3408 C3414 1.383 . S
C3409 C3405 1.495 . S
C3409 H3415 0.959 . S
C3409 H3416 0.961 . S
C3409 H3417 0.960 . S
C3410 C3408 1.381 . S
C3410 C3411 1.394 . S
C3410 H3418 0.930 . S
C3411 C3410 1.394 . S
C3411 C3412 1.383 . S
C3411 H3419 0.929 . S
C3412 C3411 1.383 . S
C3412 C3413 1.377 . S
C3413 H3397 0.930 . S
C3413 C3412 1.377 . S
C3413 C3414 1.379 . S
C3414 H3398 0.931 . S
C3414 C3408 1.383 . S
C3414 C3413 1.379 . S
H3415 C3409 0.959 . S
H3416 C3409 0.961 . S
H3417 C3409 0.960 . S
H3418 C3410 0.930 . S
H3419 C3411 0.929 . S
H3420 C3428 0.929 . S
H3421 C3430 0.930 . S
H3422 C3432 0.930 . S
H3423 C3435 0.929 . S
H3424 C3438 0.930 . S
H3425 C3440 0.960 . S
H3426 C3440 0.960 . S
H3427 C3440 0.960 . S
C3428 H3420 0.929 . S
C3428 C3429 1.377 . S
C3428 C3430 1.384 . S
C3429 C3428 1.377 . S
C3429 C3435 1.390 . S
C3430 H3421 0.930 . S
C3430 C3428 1.384 . S
C3430 C3431 1.372 . S
C3431 C3430 1.372 . S
C3431 C3432 1.400 . S
C3431 C3436 1.490 . S
C3432 H3422 0.930 . S
C3432 C3431 1.400 . S
C3432 C3435 1.386 . S
H3433 C3449 0.930 . S
H3434 C3450 0.931 . S
C3435 H3423 0.929 . S
C3435 C3429 1.390 . S
C3435 C3432 1.386 . S
C3436 C3431 1.490 . S
C3436 C3438 1.395 . S
C3436 C3439 1.403 . S
H3437 C3443 0.930 . S
C3438 H3424 0.930 . S
C3438 C3436 1.395 . S
C3438 C3441 1.403 . S
C3439 C3436 1.403 . S
C3439 C3440 1.524 . S
C3439 C3443 1.400 . S
C3440 H3425 0.960 . S
C3440 H3426 0.960 . S
C3440 H3427 0.960 . S
C3440 C3439 1.524 . S
C3441 C3438 1.403 . S
C3441 C3442 1.392 . S
C3441 C3445 1.495 . S
C3442 C3441 1.392 . S
C3442 C3443 1.385 . S
C3442 C3444 1.478 . S
C3443 H3437 0.930 . S
C3443 C3439 1.400 . S
C3443 C3442 1.385 . S
C3444 C3442 1.478 . S
C3444 C3446 1.381 . S
C3444 C3450 1.383 . S
C3445 C3441 1.495 . S
C3445 H3451 0.959 . S
C3445 H3452 0.961 . S
C3445 H3453 0.960 . S
C3446 C3444 1.381 . S
C3446 C3447 1.394 . S
C3446 H3454 0.930 . S
C3447 C3446 1.394 . S
C3447 C3448 1.383 . S
C3447 H3455 0.929 . S
C3448 C3447 1.383 . S
C3448 C3449 1.377 . S
C3449 H3433 0.930 . S
C3449 C3448 1.377 . S
C3449 C3450 1.379 . S
C3450 H3434 0.931 . S
C3450 C3444 1.383 . S
C3450 C3449 1.379 . S
H3451 C3445 0.959 . S
H3452 C3445 0.961 . S
H3453 C3445 0.960 . S
H3454 C3446 0.930 . S
H3455 C3447 0.929 . S
H3456 C3464 0.929 . S
H3457 C3466 0.930 . S
H3458 C3468 0.930 . S
H3459 C3471 0.929 . S
H3460 C3474 0.930 . S
H3461 C3476 0.960 . S
H3462 C3476 0.960 . S
H3463 C3476 0.960 . S
C3464 H3456 0.929 . S
C3464 C3465 1.377 . S
C3464 C3466 1.384 . S
C3465 C3464 1.377 . S
C3465 C3471 1.390 . S
C3466 H3457 0.930 . S
C3466 C3464 1.384 . S
C3466 C3467 1.372 . S
C3467 C3466 1.372 . S
C3467 C3468 1.400 . S
C3467 C3472 1.490 . S
C3468 H3458 0.930 . S
C3468 C3467 1.400 . S
C3468 C3471 1.386 . S
H3469 C3485 0.930 . S
H3470 C3486 0.931 . S
C3471 H3459 0.929 . S
C3471 C3465 1.390 . S
C3471 C3468 1.386 . S
C3472 C3467 1.490 . S
C3472 C3474 1.395 . S
C3472 C3475 1.403 . S
H3473 C3479 0.930 . S
C3474 H3460 0.930 . S
C3474 C3472 1.395 . S
C3474 C3477 1.403 . S
C3475 C3472 1.403 . S
C3475 C3476 1.524 . S
C3475 C3479 1.400 . S
C3476 H3461 0.960 . S
C3476 H3462 0.960 . S
C3476 H3463 0.960 . S
C3476 C3475 1.524 . S
C3477 C3474 1.403 . S
C3477 C3478 1.392 . S
C3477 C3481 1.495 . S
C3478 C3477 1.392 . S
C3478 C3479 1.385 . S
C3478 C3480 1.478 . S
C3479 H3473 0.930 . S
C3479 C3475 1.400 . S
C3479 C3478 1.385 . S
C3480 C3478 1.478 . S
C3480 C3482 1.381 . S
C3480 C3486 1.383 . S
C3481 C3477 1.495 . S
C3481 H3487 0.959 . S
C3481 H3488 0.961 . S
C3481 H3489 0.960 . S
C3482 C3480 1.381 . S
C3482 C3483 1.394 . S
C3482 H3490 0.930 . S
C3483 C3482 1.394 . S
C3483 C3484 1.383 . S
C3483 H3491 0.929 . S
C3484 C3483 1.383 . S
C3484 C3485 1.377 . S
C3485 H3469 0.930 . S
C3485 C3484 1.377 . S
C3485 C3486 1.379 . S
C3486 H3470 0.931 . S
C3486 C3480 1.383 . S
C3486 C3485 1.379 . S
H3487 C3481 0.959 . S
H3488 C3481 0.961 . S
H3489 C3481 0.960 . S
H3490 C3482 0.930 . S
H3491 C3483 0.929 . S
H3492 C3500 0.929 . S
H3493 C3502 0.930 . S
H3494 C3504 0.930 . S
H3495 C3507 0.929 . S
H3496 C3510 0.930 . S
H3497 C3512 0.960 . S
H3498 C3512 0.960 . S
H3499 C3512 0.960 . S
C3500 H3492 0.929 . S
C3500 C3501 1.377 . S
C3500 C3502 1.384 . S
C3501 C3500 1.377 . S
C3501 C3507 1.390 . S
C3502 H3493 0.930 . S
C3502 C3500 1.384 . S
C3502 C3503 1.372 . S
C3503 C3502 1.372 . S
C3503 C3504 1.400 . S
C3503 C3508 1.490 . S
C3504 H3494 0.930 . S
C3504 C3503 1.400 . S
C3504 C3507 1.386 . S
H3505 C3521 0.930 . S
H3506 C3522 0.931 . S
C3507 H3495 0.929 . S
C3507 C3501 1.390 . S
C3507 C3504 1.386 . S
C3508 C3503 1.490 . S
C3508 C3510 1.395 . S
C3508 C3511 1.403 . S
H3509 C3515 0.930 . S
C3510 H3496 0.930 . S
C3510 C3508 1.395 . S
C3510 C3513 1.403 . S
C3511 C3508 1.403 . S
C3511 C3512 1.524 . S
C3511 C3515 1.400 . S
C3512 H3497 0.960 . S
C3512 H3498 0.960 . S
C3512 H3499 0.960 . S
C3512 C3511 1.524 . S
C3513 C3510 1.403 . S
C3513 C3514 1.392 . S
C3513 C3517 1.495 . S
C3514 C3513 1.392 . S
C3514 C3515 1.385 . S
C3514 C3516 1.478 . S
C3515 H3509 0.930 . S
C3515 C3511 1.400 . S
C3515 C3514 1.385 . S
C3516 C3514 1.478 . S
C3516 C3518 1.381 . S
C3516 C3522 1.383 . S
C3517 C3513 1.495 . S
C3517 H3523 0.959 . S
C3517 H3524 0.961 . S
C3517 H3525 0.960 . S
C3518 C3516 1.381 . S
C3518 C3519 1.394 . S
C3518 H3526 0.930 . S
C3519 C3518 1.394 . S
C3519 C3520 1.383 . S
C3519 H3527 0.929 . S
C3520 C3519 1.383 . S
C3520 C3521 1.377 . S
C3521 H3505 0.930 . S
C3521 C3520 1.377 . S
C3521 C3522 1.379 . S
C3522 H3506 0.931 . S
C3522 C3516 1.383 . S
C3522 C3521 1.379 . S
H3523 C3517 0.959 . S
H3524 C3517 0.961 . S
H3525 C3517 0.960 . S
H3526 C3518 0.930 . S
H3527 C3519 0.929 . S
H3528 C3536 0.929 . S
H3529 C3538 0.930 . S
H3530 C3540 0.930 . S
H3531 C3543 0.929 . S
H3532 C3546 0.930 . S
H3533 C3548 0.960 . S
H3534 C3548 0.960 . S
H3535 C3548 0.960 . S
C3536 H3528 0.929 . S
C3536 C3537 1.377 . S
C3536 C3538 1.384 . S
C3537 C3536 1.377 . S
C3537 C3543 1.390 . S
C3538 H3529 0.930 . S
C3538 C3536 1.384 . S
C3538 C3539 1.372 . S
C3539 C3538 1.372 . S
C3539 C3540 1.400 . S
C3539 C3544 1.490 . S
C3540 H3530 0.930 . S
C3540 C3539 1.400 . S
C3540 C3543 1.386 . S
H3541 C3557 0.930 . S
H3542 C3558 0.931 . S
C3543 H3531 0.929 . S
C3543 C3537 1.390 . S
C3543 C3540 1.386 . S
C3544 C3539 1.490 . S
C3544 C3546 1.395 . S
C3544 C3547 1.403 . S
H3545 C3551 0.930 . S
C3546 H3532 0.930 . S
C3546 C3544 1.395 . S
C3546 C3549 1.403 . S
C3547 C3544 1.403 . S
C3547 C3548 1.524 . S
C3547 C3551 1.400 . S
C3548 H3533 0.960 . S
C3548 H3534 0.960 . S
C3548 H3535 0.960 . S
C3548 C3547 1.524 . S
C3549 C3546 1.403 . S
C3549 C3550 1.392 . S
C3549 C3553 1.495 . S
C3550 C3549 1.392 . S
C3550 C3551 1.385 . S
C3550 C3552 1.478 . S
C3551 H3545 0.930 . S
C3551 C3547 1.400 . S
C3551 C3550 1.385 . S
C3552 C3550 1.478 . S
C3552 C3554 1.381 . S
C3552 C3558 1.383 . S
C3553 C3549 1.495 . S
C3553 H3559 0.959 . S
C3553 H3560 0.961 . S
C3553 H3561 0.960 . S
C3554 C3552 1.381 . S
C3554 C3555 1.394 . S
C3554 H3562 0.930 . S
C3555 C3554 1.394 . S
C3555 C3556 1.383 . S
C3555 H3563 0.929 . S
C3556 C3555 1.383 . S
C3556 C3557 1.377 . S
C3557 H3541 0.930 . S
C3557 C3556 1.377 . S
C3557 C3558 1.379 . S
C3558 H3542 0.931 . S
C3558 C3552 1.383 . S
C3558 C3557 1.379 . S
H3559 C3553 0.959 . S
H3560 C3553 0.961 . S
H3561 C3553 0.960 . S
H3562 C3554 0.930 . S
H3563 C3555 0.929 . S
H3564 C3572 0.929 . S
H3565 C3574 0.930 . S
H3566 C3576 0.930 . S
H3567 C3579 0.929 . S
H3568 C3582 0.930 . S
H3569 C3584 0.960 . S
H3570 C3584 0.960 . S
H3571 C3584 0.960 . S
C3572 H3564 0.929 . S
C3572 C3573 1.377 . S
C3572 C3574 1.384 . S
C3573 C3572 1.377 . S
C3573 C3579 1.390 . S
C3574 H3565 0.930 . S
C3574 C3572 1.384 . S
C3574 C3575 1.372 . S
C3575 C3574 1.372 . S
C3575 C3576 1.400 . S
C3575 C3580 1.490 . S
C3576 H3566 0.930 . S
C3576 C3575 1.400 . S
C3576 C3579 1.386 . S
H3577 C3593 0.930 . S
H3578 C3594 0.931 . S
C3579 H3567 0.929 . S
C3579 C3573 1.390 . S
C3579 C3576 1.386 . S
C3580 C3575 1.490 . S
C3580 C3582 1.395 . S
C3580 C3583 1.403 . S
H3581 C3587 0.930 . S
C3582 H3568 0.930 . S
C3582 C3580 1.395 . S
C3582 C3585 1.403 . S
C3583 C3580 1.403 . S
C3583 C3584 1.524 . S
C3583 C3587 1.400 . S
C3584 H3569 0.960 . S
C3584 H3570 0.960 . S
C3584 H3571 0.960 . S
C3584 C3583 1.524 . S
C3585 C3582 1.403 . S
C3585 C3586 1.392 . S
C3585 C3589 1.495 . S
C3586 C3585 1.392 . S
C3586 C3587 1.385 . S
C3586 C3588 1.478 . S
C3587 H3581 0.930 . S
C3587 C3583 1.400 . S
C3587 C3586 1.385 . S
C3588 C3586 1.478 . S
C3588 C3590 1.381 . S
C3588 C3594 1.383 . S
C3589 C3585 1.495 . S
C3589 H3595 0.959 . S
C3589 H3596 0.961 . S
C3589 H3597 0.960 . S
C3590 C3588 1.381 . S
C3590 C3591 1.394 . S
C3590 H3598 0.930 . S
C3591 C3590 1.394 . S
C3591 C3592 1.383 . S
C3591 H3599 0.929 . S
C3592 C3591 1.383 . S
C3592 C3593 1.377 . S
C3593 H3577 0.930 . S
C3593 C3592 1.377 . S
C3593 C3594 1.379 . S
C3594 H3578 0.931 . S
C3594 C3588 1.383 . S
C3594 C3593 1.379 . S
H3595 C3589 0.959 . S
H3596 C3589 0.961 . S
H3597 C3589 0.960 . S
H3598 C3590 0.930 . S
H3599 C3591 0.929 . S
H3600 C3608 0.929 . S
H3601 C3610 0.930 . S
H3602 C3612 0.930 . S
H3603 C3615 0.929 . S
H3604 C3618 0.930 . S
H3605 C3620 0.960 . S
H3606 C3620 0.960 . S
H3607 C3620 0.960 . S
C3608 H3600 0.929 . S
C3608 C3609 1.377 . S
C3608 C3610 1.384 . S
C3609 C3608 1.377 . S
C3609 C3615 1.390 . S
C3610 H3601 0.930 . S
C3610 C3608 1.384 . S
C3610 C3611 1.372 . S
C3611 C3610 1.372 . S
C3611 C3612 1.400 . S
C3611 C3616 1.490 . S
C3612 H3602 0.930 . S
C3612 C3611 1.400 . S
C3612 C3615 1.386 . S
H3613 C3629 0.930 . S
H3614 C3630 0.931 . S
C3615 H3603 0.929 . S
C3615 C3609 1.390 . S
C3615 C3612 1.386 . S
C3616 C3611 1.490 . S
C3616 C3618 1.395 . S
C3616 C3619 1.403 . S
H3617 C3623 0.930 . S
C3618 H3604 0.930 . S
C3618 C3616 1.395 . S
C3618 C3621 1.403 . S
C3619 C3616 1.403 . S
C3619 C3620 1.524 . S
C3619 C3623 1.400 . S
C3620 H3605 0.960 . S
C3620 H3606 0.960 . S
C3620 H3607 0.960 . S
C3620 C3619 1.524 . S
C3621 C3618 1.403 . S
C3621 C3622 1.392 . S
C3621 C3625 1.495 . S
C3622 C3621 1.392 . S
C3622 C3623 1.385 . S
C3622 C3624 1.478 . S
C3623 H3617 0.930 . S
C3623 C3619 1.400 . S
C3623 C3622 1.385 . S
C3624 C3622 1.478 . S
C3624 C3626 1.381 . S
C3624 C3630 1.383 . S
C3625 C3621 1.495 . S
C3625 H3631 0.959 . S
C3625 H3632 0.961 . S
C3625 H3633 0.960 . S
C3626 C3624 1.381 . S
C3626 C3627 1.394 . S
C3626 H3634 0.930 . S
C3627 C3626 1.394 . S
C3627 C3628 1.383 . S
C3627 H3635 0.929 . S
C3628 C3627 1.383 . S
C3628 C3629 1.377 . S
C3629 H3613 0.930 . S
C3629 C3628 1.377 . S
C3629 C3630 1.379 . S
C3630 H3614 0.931 . S
C3630 C3624 1.383 . S
C3630 C3629 1.379 . S
H3631 C3625 0.959 . S
H3632 C3625 0.961 . S
H3633 C3625 0.960 . S
H3634 C3626 0.930 . S
H3635 C3627 0.929 . S
H3636 C3644 0.929 . S
H3637 C3646 0.930 . S
H3638 C3648 0.930 . S
H3639 C3651 0.929 . S
H3640 C3654 0.930 . S
H3641 C3656 0.960 . S
H3642 C3656 0.960 . S
H3643 C3656 0.960 . S
C3644 H3636 0.929 . S
C3644 C3645 1.377 . S
C3644 C3646 1.384 . S
C3645 C3644 1.377 . S
C3645 C3651 1.390 . S
C3646 H3637 0.930 . S
C3646 C3644 1.384 . S
C3646 C3647 1.372 . S
C3647 C3646 1.372 . S
C3647 C3648 1.400 . S
C3647 C3652 1.490 . S
C3648 H3638 0.930 . S
C3648 C3647 1.400 . S
C3648 C3651 1.386 . S
H3649 C3665 0.930 . S
H3650 C3666 0.931 . S
C3651 H3639 0.929 . S
C3651 C3645 1.390 . S
C3651 C3648 1.386 . S
C3652 C3647 1.490 . S
C3652 C3654 1.395 . S
C3652 C3655 1.403 . S
H3653 C3659 0.930 . S
C3654 H3640 0.930 . S
C3654 C3652 1.395 . S
C3654 C3657 1.403 . S
C3655 C3652 1.403 . S
C3655 C3656 1.524 . S
C3655 C3659 1.400 . S
C3656 H3641 0.960 . S
C3656 H3642 0.960 . S
C3656 H3643 0.960 . S
C3656 C3655 1.524 . S
C3657 C3654 1.403 . S
C3657 C3658 1.392 . S
C3657 C3661 1.495 . S
C3658 C3657 1.392 . S
C3658 C3659 1.385 . S
C3658 C3660 1.478 . S
C3659 H3653 0.930 . S
C3659 C3655 1.400 . S
C3659 C3658 1.385 . S
C3660 C3658 1.478 . S
C3660 C3662 1.381 . S
C3660 C3666 1.383 . S
C3661 C3657 1.495 . S
C3661 H3667 0.959 . S
C3661 H3668 0.961 . S
C3661 H3669 0.960 . S
C3662 C3660 1.381 . S
C3662 C3663 1.394 . S
C3662 H3670 0.930 . S
C3663 C3662 1.394 . S
C3663 C3664 1.383 . S
C3663 H3671 0.929 . S
C3664 C3663 1.383 . S
C3664 C3665 1.377 . S
C3665 H3649 0.930 . S
C3665 C3664 1.377 . S
C3665 C3666 1.379 . S
C3666 H3650 0.931 . S
C3666 C3660 1.383 . S
C3666 C3665 1.379 . S
H3667 C3661 0.959 . S
H3668 C3661 0.961 . S
H3669 C3661 0.960 . S
H3670 C3662 0.930 . S
H3671 C3663 0.929 . S
H3672 C3680 0.929 . S
H3673 C3682 0.930 . S
H3674 C3684 0.930 . S
H3675 C3687 0.929 . S
H3676 C3690 0.930 . S
H3677 C3692 0.960 . S
H3678 C3692 0.960 . S
H3679 C3692 0.960 . S
C3680 H3672 0.929 . S
C3680 C3681 1.377 . S
C3680 C3682 1.384 . S
C3681 C3680 1.377 . S
C3681 C3687 1.390 . S
C3682 H3673 0.930 . S
C3682 C3680 1.384 . S
C3682 C3683 1.372 . S
C3683 C3682 1.372 . S
C3683 C3684 1.400 . S
C3683 C3688 1.490 . S
C3684 H3674 0.930 . S
C3684 C3683 1.400 . S
C3684 C3687 1.386 . S
H3685 C3701 0.930 . S
H3686 C3702 0.931 . S
C3687 H3675 0.929 . S
C3687 C3681 1.390 . S
C3687 C3684 1.386 . S
C3688 C3683 1.490 . S
C3688 C3690 1.395 . S
C3688 C3691 1.403 . S
H3689 C3695 0.930 . S
C3690 H3676 0.930 . S
C3690 C3688 1.395 . S
C3690 C3693 1.403 . S
C3691 C3688 1.403 . S
C3691 C3692 1.524 . S
C3691 C3695 1.400 . S
C3692 H3677 0.960 . S
C3692 H3678 0.960 . S
C3692 H3679 0.960 . S
C3692 C3691 1.524 . S
C3693 C3690 1.403 . S
C3693 C3694 1.392 . S
C3693 C3697 1.495 . S
C3694 C3693 1.392 . S
C3694 C3695 1.385 . S
C3694 C3696 1.478 . S
C3695 H3689 0.930 . S
C3695 C3691 1.400 . S
C3695 C3694 1.385 . S
C3696 C3694 1.478 . S
C3696 C3698 1.381 . S
C3696 C3702 1.383 . S
C3697 C3693 1.495 . S
C3697 H3703 0.959 . S
C3697 H3704 0.961 . S
C3697 H3705 0.960 . S
C3698 C3696 1.381 . S
C3698 C3699 1.394 . S
C3698 H3706 0.930 . S
C3699 C3698 1.394 . S
C3699 C3700 1.383 . S
C3699 H3707 0.929 . S
C3700 C3699 1.383 . S
C3700 C3701 1.377 . S
C3701 H3685 0.930 . S
C3701 C3700 1.377 . S
C3701 C3702 1.379 . S
C3702 H3686 0.931 . S
C3702 C3696 1.383 . S
C3702 C3701 1.379 . S
H3703 C3697 0.959 . S
H3704 C3697 0.961 . S
H3705 C3697 0.960 . S
H3706 C3698 0.930 . S
H3707 C3699 0.929 . S
H3708 C3716 0.929 . S
H3709 C3718 0.930 . S
H3710 C3720 0.930 . S
H3711 C3723 0.929 . S
H3712 C3726 0.930 . S
H3713 C3728 0.960 . S
H3714 C3728 0.960 . S
H3715 C3728 0.960 . S
C3716 H3708 0.929 . S
C3716 C3717 1.377 . S
C3716 C3718 1.384 . S
C3717 C3716 1.377 . S
C3717 C3723 1.390 . S
C3718 H3709 0.930 . S
C3718 C3716 1.384 . S
C3718 C3719 1.372 . S
C3719 C3718 1.372 . S
C3719 C3720 1.400 . S
C3719 C3724 1.490 . S
C3720 H3710 0.930 . S
C3720 C3719 1.400 . S
C3720 C3723 1.386 . S
H3721 C3737 0.930 . S
H3722 C3738 0.931 . S
C3723 H3711 0.929 . S
C3723 C3717 1.390 . S
C3723 C3720 1.386 . S
C3724 C3719 1.490 . S
C3724 C3726 1.395 . S
C3724 C3727 1.403 . S
H3725 C3731 0.930 . S
C3726 H3712 0.930 . S
C3726 C3724 1.395 . S
C3726 C3729 1.403 . S
C3727 C3724 1.403 . S
C3727 C3728 1.524 . S
C3727 C3731 1.400 . S
C3728 H3713 0.960 . S
C3728 H3714 0.960 . S
C3728 H3715 0.960 . S
C3728 C3727 1.524 . S
C3729 C3726 1.403 . S
C3729 C3730 1.392 . S
C3729 C3733 1.495 . S
C3730 C3729 1.392 . S
C3730 C3731 1.385 . S
C3730 C3732 1.478 . S
C3731 H3725 0.930 . S
C3731 C3727 1.400 . S
C3731 C3730 1.385 . S
C3732 C3730 1.478 . S
C3732 C3734 1.381 . S
C3732 C3738 1.383 . S
C3733 C3729 1.495 . S
C3733 H3739 0.959 . S
C3733 H3740 0.961 . S
C3733 H3741 0.960 . S
C3734 C3732 1.381 . S
C3734 C3735 1.394 . S
C3734 H3742 0.930 . S
C3735 C3734 1.394 . S
C3735 C3736 1.383 . S
C3735 H3743 0.929 . S
C3736 C3735 1.383 . S
C3736 C3737 1.377 . S
C3737 H3721 0.930 . S
C3737 C3736 1.377 . S
C3737 C3738 1.379 . S
C3738 H3722 0.931 . S
C3738 C3732 1.383 . S
C3738 C3737 1.379 . S
H3739 C3733 0.959 . S
H3740 C3733 0.961 . S
H3741 C3733 0.960 . S
H3742 C3734 0.930 . S
H3743 C3735 0.929 . S
H3744 C3752 0.929 . S
H3745 C3754 0.930 . S
H3746 C3756 0.930 . S
H3747 C3759 0.929 . S
H3748 C3762 0.930 . S
H3749 C3764 0.960 . S
H3750 C3764 0.960 . S
H3751 C3764 0.960 . S
C3752 H3744 0.929 . S
C3752 C3753 1.377 . S
C3752 C3754 1.384 . S
C3753 C3752 1.377 . S
C3753 C3759 1.390 . S
C3754 H3745 0.930 . S
C3754 C3752 1.384 . S
C3754 C3755 1.372 . S
C3755 C3754 1.372 . S
C3755 C3756 1.400 . S
C3755 C3760 1.490 . S
C3756 H3746 0.930 . S
C3756 C3755 1.400 . S
C3756 C3759 1.386 . S
H3757 C3773 0.930 . S
H3758 C3774 0.931 . S
C3759 H3747 0.929 . S
C3759 C3753 1.390 . S
C3759 C3756 1.386 . S
C3760 C3755 1.490 . S
C3760 C3762 1.395 . S
C3760 C3763 1.403 . S
H3761 C3767 0.930 . S
C3762 H3748 0.930 . S
C3762 C3760 1.395 . S
C3762 C3765 1.403 . S
C3763 C3760 1.403 . S
C3763 C3764 1.524 . S
C3763 C3767 1.400 . S
C3764 H3749 0.960 . S
C3764 H3750 0.960 . S
C3764 H3751 0.960 . S
C3764 C3763 1.524 . S
C3765 C3762 1.403 . S
C3765 C3766 1.392 . S
C3765 C3769 1.495 . S
C3766 C3765 1.392 . S
C3766 C3767 1.385 . S
C3766 C3768 1.478 . S
C3767 H3761 0.930 . S
C3767 C3763 1.400 . S
C3767 C3766 1.385 . S
C3768 C3766 1.478 . S
C3768 C3770 1.381 . S
C3768 C3774 1.383 . S
C3769 C3765 1.495 . S
C3769 H3775 0.959 . S
C3769 H3776 0.961 . S
C3769 H3777 0.960 . S
C3770 C3768 1.381 . S
C3770 C3771 1.394 . S
C3770 H3778 0.930 . S
C3771 C3770 1.394 . S
C3771 C3772 1.383 . S
C3771 H3779 0.929 . S
C3772 C3771 1.383 . S
C3772 C3773 1.377 . S
C3773 H3757 0.930 . S
C3773 C3772 1.377 . S
C3773 C3774 1.379 . S
C3774 H3758 0.931 . S
C3774 C3768 1.383 . S
C3774 C3773 1.379 . S
H3775 C3769 0.959 . S
H3776 C3769 0.961 . S
H3777 C3769 0.960 . S
H3778 C3770 0.930 . S
H3779 C3771 0.929 . S
C1845 C781 1.394 . S
C1864 C1136 1.304 . S
C1881 C871 1.414 . S
C1900 C1220 1.398 . S
C1917 C751 1.412 . S
C1936 C1314 1.378 . S
C1953 C691 1.377 . S
C1972 C1230 1.381 . S
C2008 C1304 1.258 . S
C1989 C571 1.344 . S
C2025 C601 1.364 . S
C2044 C1146 1.318 . S
C2080 C1147 1.350 . S
C2061 C661 1.379 . S
C2116 C1231 1.397 . S
C2097 C541 1.409 . S
C2133 C631 1.444 . S
C2152 C1323 1.378 . S
C2169 C811 1.393 . S
C2188 C1239 1.385 . S
C2205 C841 1.340 . S
C2224 C1315 1.263 . S
C2260 C1155 1.363 . S
C2241 C721 1.342 . S
C2296 C1388 1.363 . S
C2277 C61 1.394 . S
C2313 C151 1.411 . S
C2332 C1472 1.374 . S
C2349 C31 1.419 . S
C2368 C1566 1.402 . S
C2385 C1051 1.380 . S
C2404 C1482 1.389 . S
C2421 C931 1.341 . S
C2440 C1556 1.313 . S
C2457 C961 1.365 . S
C2476 C1398 1.310 . S
C2493 C1021 1.372 . S
C2512 C1399 1.297 . S
C2529 C901 1.402 . S
C2548 C1483 1.372 . S
C2584 C1575 1.428 . S
C2565 C991 1.439 . S
C2601 C91 1.393 . S
C2620 C1491 1.382 . S
C2656 C1567 1.277 . S
C2637 C121 1.342 . S
C2673 C1 1.342 . S
C2692 C1407 1.353 . S
C2728 C1640 1.355 . S
C2709 C421 1.390 . S
C2745 C511 1.417 . S
C2764 C1724 1.332 . S
C2800 C1818 1.378 . S
C2781 C391 1.413 . S
C2836 C1734 1.340 . S
C2817 C331 1.373 . S
C2872 C1808 1.285 . S
C2853 C211 1.350 . S
C2889 C241 1.364 . S
C2908 C1650 1.323 . S
C2925 C301 1.372 . S
C2944 C1651 1.353 . S
C2961 C181 1.409 . S
C2980 C1735 1.399 . S
C3016 C1827 1.424 . S
C2997 C271 1.440 . S
C3033 C451 1.393 . S
C3052 C1743 1.365 . S
C3069 C481 1.343 . S
C3088 C1819 1.291 . S
C3105 C361 1.331 . S
C3124 C1659 1.310 . S
C3141 C920 1.401 . S
C3160 C1143 1.315 . S
C3196 C1227 1.374 . S
C3177 C980 1.475 . S
C3213 C1040 1.423 . S
C3232 C1320 1.278 . S
C3249 C380 1.468 . S
C3268 C1236 1.368 . S
C3285 C440 1.435 . S
C3304 C1311 1.314 . S
C3340 C1152 1.259 . S
C3321 C500 1.395 . S
C3357 C200 1.398 . S
C3376 C1395 1.287 . S
C3393 C260 1.479 . S
C3412 C1479 1.323 . S
C3429 C320 1.430 . S
C3448 C1572 1.362 . S
C3465 C740 1.468 . S
C3484 C1488 1.378 . S
C3520 C1563 1.314 . S
C3501 C800 1.435 . S
C3537 C860 1.398 . S
C3556 C1404 1.308 . S
C3573 C560 1.396 . S
C3592 C1647 1.294 . S
C3609 C620 1.474 . S
C3628 C1731 1.355 . S
C3664 C1824 1.317 . S
C3645 C680 1.425 . S
C3681 C20 1.462 . S
C3700 C1740 1.308 . S
C3717 C80 1.432 . S
C3736 C1815 1.316 . S
C3753 C140 1.403 . S
C3772 C1656 1.344 . S
