# Generated by pormake.
# Topology dag, (6,3)-cn, num edge types: 1
# Building blocks:
#     Node 0, Type 0, BuildingBlock: IZENUY_clean_sbu_0, # of connection points: 6
#     Node 1, Type 0, BuildingBlock: IZENUY_clean_sbu_0, # of connection points: 6
#     Node 2, Type 0, BuildingBlock: IZENUY_clean_sbu_0, # of connection points: 6
#     Node 3, Type 0, BuildingBlock: IZENUY_clean_sbu_0, # of connection points: 6
#     Node 4, Type 1, BuildingBlock: BETDIP_clean_linker_0, # of connection points: 3
#     Node 5, Type 1, BuildingBlock: BETDIP_clean_linker_0, # of connection points: 3
#     Node 6, Type 1, BuildingBlock: BETDIP_clean_linker_0, # of connection points: 3
#     Node 7, Type 1, BuildingBlock: BETDIP_clean_linker_0, # of connection points: 3
#     Node 8, Type 1, BuildingBlock: BETDIP_clean_linker_0, # of connection points: 3
#     Node 9, Type 1, BuildingBlock: BETDIP_clean_linker_0, # of connection points: 3
#     Node 10, Type 1, BuildingBlock: BETDIP_clean_linker_0, # of connection points: 3
#     Node 11, Type 1, BuildingBlock: BETDIP_clean_linker_0, # of connection points: 3
#     Edge 12, Type (0, 1), BuildingBlock: EZIPEK_clean_linker_0, # of connection points: 2
#     Edge 13, Type (0, 1), BuildingBlock: EZIPEK_clean_linker_0, # of connection points: 2
#     Edge 14, Type (0, 1), BuildingBlock: EZIPEK_clean_linker_0, # of connection points: 2
#     Edge 15, Type (0, 1), BuildingBlock: EZIPEK_clean_linker_0, # of connection points: 2
#     Edge 16, Type (0, 1), BuildingBlock: EZIPEK_clean_linker_0, # of connection points: 2
#     Edge 17, Type (0, 1), BuildingBlock: EZIPEK_clean_linker_0, # of connection points: 2
#     Edge 18, Type (0, 1), BuildingBlock: EZIPEK_clean_linker_0, # of connection points: 2
#     Edge 19, Type (0, 1), BuildingBlock: EZIPEK_clean_linker_0, # of connection points: 2
#     Edge 20, Type (0, 1), BuildingBlock: EZIPEK_clean_linker_0, # of connection points: 2
#     Edge 21, Type (0, 1), BuildingBlock: EZIPEK_clean_linker_0, # of connection points: 2
#     Edge 22, Type (0, 1), BuildingBlock: EZIPEK_clean_linker_0, # of connection points: 2
#     Edge 23, Type (0, 1), BuildingBlock: EZIPEK_clean_linker_0, # of connection points: 2
#     Edge 24, Type (0, 1), BuildingBlock: EZIPEK_clean_linker_0, # of connection points: 2
#     Edge 25, Type (0, 1), BuildingBlock: EZIPEK_clean_linker_0, # of connection points: 2
#     Edge 26, Type (0, 1), BuildingBlock: EZIPEK_clean_linker_0, # of connection points: 2
#     Edge 27, Type (0, 1), BuildingBlock: EZIPEK_clean_linker_0, # of connection points: 2
#     Edge 28, Type (0, 1), BuildingBlock: EZIPEK_clean_linker_0, # of connection points: 2
#     Edge 29, Type (0, 1), BuildingBlock: EZIPEK_clean_linker_0, # of connection points: 2
#     Edge 30, Type (0, 1), BuildingBlock: EZIPEK_clean_linker_0, # of connection points: 2
#     Edge 31, Type (0, 1), BuildingBlock: EZIPEK_clean_linker_0, # of connection points: 2
#     Edge 32, Type (0, 1), BuildingBlock: EZIPEK_clean_linker_0, # of connection points: 2
#     Edge 33, Type (0, 1), BuildingBlock: EZIPEK_clean_linker_0, # of connection points: 2
#     Edge 34, Type (0, 1), BuildingBlock: EZIPEK_clean_linker_0, # of connection points: 2
#     Edge 35, Type (0, 1), BuildingBlock: EZIPEK_clean_linker_0, # of connection points: 2
# Relax obj value: 0.088
# Max RMSD: 0.108
# Mean RMSD: 0.091
data_MOF--net-dag--node1-IZENUY_clean_sbu_0--node2-BETDIP_clean_linker_0--edge1-EZIPEK_clean_linker_0
_symmetry_space_group_name_H-M    P1
_symmetry_Int_Tables_number       1
_symmetry_cell_setting            triclinic
loop_
_symmetry_equiv_pos_as_xyz
'x, y, z'
_cell_length_a     29.751787
_cell_length_b     29.024995
_cell_length_c     26.502756
_cell_angle_alpha  86.075769
_cell_angle_beta   90.091434
_cell_angle_gamma 90.127306
loop_
_atom_site_label
_atom_site_type_symbol
_atom_site_fract_x
_atom_site_fract_y
_atom_site_fract_z
_atom_type_partial_charge
Fe0 Fe 0.20352 0.87587 0.99286 0.0
Fe1 Fe 0.1038 0.90116 0.00285 0.0
O2 O 0.14615 0.8589 0.99859 0.0
Fe3 Fe 0.13084 0.79942 0.00019 0.0
O4 O 0.16382 0.78647 0.05677 0.0
O5 O 0.22458 0.82496 0.03084 0.0
O6 O 0.20244 0.90478 0.05134 0.0
C7 C 0.17495 0.93563 0.06148 0.0
C8 C 0.20168 0.80615 0.92843 0.0
O9 O 0.13839 0.94099 0.03739 0.0
C10 C 0.06433 0.83661 0.93985 0.0
O11 O 0.19221 0.93024 0.95447 0.0
O12 O 0.11896 0.92925 0.94244 0.0
O13 O 0.17704 0.78264 0.95934 0.0
O14 O 0.20966 0.84817 0.93384 0.0
C15 C 0.07194 0.83518 0.07174 0.0
O16 O 0.06133 0.86926 0.96898 0.0
O17 O 0.09659 0.80847 0.9435 0.0
C18 C 0.15737 0.94461 0.93069 0.0
O19 O 0.08551 0.8761 0.06369 0.0
O20 O 0.08172 0.80457 0.0418 0.0
C21 C 0.20498 0.79578 0.06118 0.0
Fe22 Fe 0.7056 0.6248 0.5489 0.0
Fe23 Fe 0.63569 0.70312 0.53739 0.0
O24 O 0.64915 0.6433 0.53887 0.0
Fe25 Fe 0.60615 0.60234 0.53031 0.0
O26 O 0.61763 0.57199 0.59074 0.0
O27 O 0.6912 0.56945 0.58362 0.0
O28 O 0.70798 0.65034 0.60956 0.0
C29 C 0.701 0.69249 0.61535 0.0
C30 C 0.67983 0.56811 0.47581 0.0
O31 O 0.67974 0.71757 0.58251 0.0
C32 C 0.57861 0.67054 0.46133 0.0
O33 O 0.73033 0.67649 0.51575 0.0
O34 O 0.67253 0.71578 0.48368 0.0
O35 O 0.64173 0.56317 0.49666 0.0
O36 O 0.70744 0.59793 0.48909 0.0
C37 C 0.56555 0.66614 0.59289 0.0
O38 O 0.58878 0.70045 0.49204 0.0
O39 O 0.59113 0.6293 0.46903 0.0
C40 C 0.71406 0.70699 0.48438 0.0
O41 O 0.59806 0.69416 0.59119 0.0
O42 O 0.56298 0.6342 0.56274 0.0
C43 C 0.65502 0.55535 0.60455 0.0
Fe44 Fe 0.86337 0.20708 0.02857 0.0
Fe45 Fe 0.89147 0.10528 0.03503 0.0
O46 O 0.8497 0.14772 0.04157 0.0
Fe47 Fe 0.79448 0.13096 0.06105 0.0
O48 O 0.76993 0.15812 0.0038 0.0
O49 O 0.80724 0.22355 0.00552 0.0
O50 O 0.87805 0.19805 0.96354 0.0
C51 C 0.9075 0.16976 0.9514 0.0
C52 C 0.81242 0.21132 0.11365 0.0
O53 O 0.92016 0.13703 0.98213 0.0
C54 C 0.84405 0.07163 0.12298 0.0
O55 O 0.92237 0.20181 0.04943 0.0
O56 O 0.92714 0.13011 0.08133 0.0
O57 O 0.78514 0.1824 0.0968 0.0
O58 O 0.84958 0.22027 0.09242 0.0
C59 C 0.81961 0.06187 0.99491 0.0
O60 O 0.87045 0.06573 0.08662 0.0
O61 O 0.81454 0.10265 0.11985 0.0
C62 C 0.94146 0.17101 0.07793 0.0
O63 O 0.85883 0.07739 0.98835 0.0
O64 O 0.79437 0.07615 0.0291 0.0
C65 C 0.77543 0.19991 0.98904 0.0
Fe66 Fe 0.3906 0.39582 0.51035 0.0
Fe67 Fe 0.29495 0.36933 0.47926 0.0
O68 O 0.34961 0.35297 0.50098 0.0
Fe69 Fe 0.36356 0.29366 0.5133 0.0
O70 O 0.37606 0.30168 0.57911 0.0
O71 O 0.41802 0.36346 0.56367 0.0
O72 O 0.35607 0.42229 0.55628 0.0
C73 C 0.31713 0.43786 0.54787 0.0
C74 C 0.44258 0.33175 0.46773 0.0
O75 O 0.29317 0.42358 0.51238 0.0
C76 C 0.31529 0.28981 0.42613 0.0
O77 O 0.37082 0.43603 0.4587 0.0
O78 O 0.31683 0.39882 0.42194 0.0
O79 O 0.42313 0.30014 0.49487 0.0
O80 O 0.42804 0.3725 0.46501 0.0
C81 C 0.27417 0.2989 0.54905 0.0
O82 O 0.28737 0.31846 0.44202 0.0
O83 O 0.35196 0.28133 0.44864 0.0
C84 C 0.34614 0.43015 0.42076 0.0
O85 O 0.26865 0.34081 0.53476 0.0
O86 O 0.30694 0.27604 0.53381 0.0
C87 C 0.40494 0.3299 0.59303 0.0
H88 H 0.12896 0.21353 0.2109 0.0
H89 H 0.22806 0.10462 0.21668 0.0
H90 H 0.10763 0.0923 0.12971 0.0
H91 H 0.27297 0.1557 0.24874 0.0
C92 C 0.25305 0.1827 0.26397 0.0
C93 C 0.14031 0.18012 0.20017 0.0
C94 C 0.11334 0.15454 0.16894 0.0
C95 C 0.18204 0.16296 0.21736 0.0
C96 C 0.19657 0.11935 0.20323 0.0
C97 C 0.16979 0.09411 0.17119 0.0
C98 C 0.12831 0.11181 0.15449 0.0
N99 N 0.2076 0.19032 0.24944 0.0
H100 H 0.26555 0.61316 0.6956 0.0
H101 H 0.37798 0.70401 0.71872 0.0
H102 H 0.39331 0.59047 0.62574 0.0
H103 H 0.34149 0.72269 0.78451 0.0
C104 C 0.30576 0.71857 0.77812 0.0
C105 C 0.30036 0.62294 0.68928 0.0
C106 C 0.32746 0.59722 0.6582 0.0
C107 C 0.31822 0.66112 0.7125 0.0
C108 C 0.36339 0.67399 0.70309 0.0
C109 C 0.39037 0.64849 0.67198 0.0
C110 C 0.37237 0.61012 0.64993 0.0
N111 N 0.29 0.68572 0.74472 0.0
H112 H 0.93212 0.78574 0.26921 0.0
H113 H 0.84199 0.89557 0.30327 0.0
H114 H 0.935 0.91501 0.17999 0.0
H115 H 0.85294 0.85652 0.38581 0.0
C116 C 0.84566 0.82212 0.37423 0.0
C117 C 0.9202 0.82084 0.26203 0.0
C118 C 0.93858 0.84913 0.2223 0.0
C119 C 0.88601 0.83763 0.29214 0.0
C120 C 0.86961 0.88278 0.28167 0.0
C121 C 0.88686 0.91041 0.24071 0.0
C122 C 0.92177 0.8937 0.21183 0.0
N123 N 0.866 0.80723 0.32979 0.0
H124 H 0.54593 0.28758 0.79131 0.0
H125 H 0.65872 0.3816 0.78336 0.0
H126 H 0.54845 0.40276 0.68037 0.0
H127 H 0.66831 0.35396 0.86555 0.0
C128 C 0.66169 0.31754 0.86176 0.0
C129 C 0.56217 0.31858 0.77503 0.0
C130 C 0.54221 0.34394 0.73404 0.0
C131 C 0.60389 0.33215 0.79381 0.0
C132 C 0.62557 0.37161 0.77121 0.0
C133 C 0.60526 0.39734 0.73078 0.0
C134 C 0.56358 0.38352 0.71259 0.0
N135 N 0.62467 0.30355 0.83266 0.0
H136 H 0.6284 0.2884 0.33526 0.0
H137 H 0.72962 0.3957 0.32499 0.0
H138 H 0.6115 0.41162 0.41417 0.0
H139 H 0.77172 0.34531 0.28973 0.0
C140 C 0.75115 0.31771 0.27654 0.0
C141 C 0.64074 0.32179 0.3451 0.0
C142 C 0.61499 0.34841 0.37638 0.0
C143 C 0.68236 0.33805 0.32639 0.0
C144 C 0.69814 0.38165 0.33935 0.0
C145 C 0.67265 0.4079 0.37137 0.0
C146 C 0.63119 0.39123 0.38945 0.0
N147 N 0.70647 0.30994 0.29391 0.0
H148 H 0.04569 0.21272 0.75254 0.0
H149 H 0.15817 0.11934 0.75037 0.0
H150 H 0.05351 0.09522 0.86014 0.0
H151 H 0.15495 0.14661 0.66267 0.0
C152 C 0.15397 0.18275 0.67095 0.0
C153 C 0.06266 0.18156 0.76706 0.0
C154 C 0.04457 0.15503 0.80839 0.0
C155 C 0.10322 0.1686 0.74527 0.0
C156 C 0.12582 0.12876 0.76521 0.0
C157 C 0.10772 0.10218 0.80641 0.0
C158 C 0.06704 0.11528 0.82757 0.0
N159 N 0.12235 0.19805 0.70606 0.0
H160 H 0.4309 0.71852 0.26745 0.0
H161 H 0.34069 0.60506 0.24487 0.0
H162 H 0.44304 0.59086 0.35873 0.0
H163 H 0.29138 0.66416 0.2334 0.0
C164 C 0.31029 0.69022 0.211 0.0
C165 C 0.42036 0.68313 0.27628 0.0
C166 C 0.44247 0.65594 0.31449 0.0
C167 C 0.3826 0.66563 0.25204 0.0
C168 C 0.36888 0.61972 0.26414 0.0
C169 C 0.3901 0.59304 0.30319 0.0
C170 C 0.42706 0.61117 0.32784 0.0
N171 N 0.35737 0.69546 0.21804 0.0
H172 H 0.76474 0.89111 0.84473 0.0
H173 H 0.87317 0.79899 0.81272 0.0
H174 H 0.89552 0.90899 0.91007 0.0
H175 H 0.81062 0.74796 0.8081 0.0
C176 C 0.79056 0.77122 0.78342 0.0
C177 C 0.79946 0.88041 0.84938 0.0
C178 C 0.82845 0.90475 0.87989 0.0
C179 C 0.81498 0.84168 0.82564 0.0
C180 C 0.86023 0.82802 0.83174 0.0
C181 C 0.88922 0.85226 0.86226 0.0
C182 C 0.87317 0.89048 0.88612 0.0
N183 N 0.78495 0.81805 0.79457 0.0
C184 C 0.21727 0.00492 0.08777 0.0
C185 C 0.18613 0.96883 0.0998 0.0
C186 C 0.16061 0.00863 0.17314 0.0
C187 C 0.18387 0.04872 0.15401 0.0
N188 N 0.23514 0.08588 0.09364 0.0
N189 N 0.13268 0.93222 0.15746 0.0
C190 C 0.2134 0.04682 0.11222 0.0
C191 C 0.15961 0.9692 0.14415 0.0
N192 N 0.24997 0.99943 0.05258 0.0
N193 N 0.13923 0.00887 0.21872 0.0
H194 H 0.13448 0.90169 0.13905 0.0
H195 H 0.10837 0.93184 0.18566 0.0
H196 H 0.14002 0.0375 0.24052 0.0
H197 H 0.12397 0.98002 0.23686 0.0
H198 H 0.27611 0.02288 0.04551 0.0
H199 H 0.25323 0.9694 0.03351 0.0
H200 H 0.25232 0.08829 0.05936 0.0
H201 H 0.2339 0.11694 0.11116 0.0
C202 C 0.51672 0.63652 0.6643 0.0
C203 C 0.52676 0.67219 0.62681 0.0
C204 C 0.44898 0.69906 0.62749 0.0
C205 C 0.43809 0.66129 0.66223 0.0
N206 N 0.46253 0.60216 0.72432 0.0
N207 N 0.50759 0.7466 0.58702 0.0
C208 C 0.47246 0.63272 0.68431 0.0
C209 C 0.49462 0.70681 0.61356 0.0
N210 N 0.54949 0.60574 0.67951 0.0
N211 N 0.41555 0.72549 0.60513 0.0
H212 H 0.54076 0.75292 0.57598 0.0
H213 H 0.48645 0.77487 0.58002 0.0
H214 H 0.38169 0.72103 0.61433 0.0
H215 H 0.42099 0.74974 0.57495 0.0
H216 H 0.54375 0.57544 0.70189 0.0
H217 H 0.58289 0.61066 0.66854 0.0
H218 H 0.4865 0.58258 0.74472 0.0
H219 H 0.43035 0.59907 0.73981 0.0
C220 C 0.88483 0.03658 0.19848 0.0
C221 C 0.84591 0.03806 0.16756 0.0
C222 C 0.82662 0.95896 0.19706 0.0
C223 C 0.86743 0.95616 0.22495 0.0
N224 N 0.92831 0.99477 0.26446 0.0
N225 N 0.77196 0.00813 0.15199 0.0
C226 C 0.89406 0.99611 0.22997 0.0
C227 C 0.81393 0.00186 0.17223 0.0
N228 N 0.91345 0.07348 0.19624 0.0
N229 N 0.80186 0.92002 0.19084 0.0
H230 H 0.76196 0.03901 0.13295 0.0
H231 H 0.74594 0.98436 0.15811 0.0
H232 H 0.80972 0.88786 0.20849 0.0
H233 H 0.77516 0.91891 0.16548 0.0
H234 H 0.94516 0.07319 0.21289 0.0
H235 H 0.90526 0.10453 0.17632 0.0
H236 H 0.94732 0.02345 0.27269 0.0
H237 H 0.93521 0.96534 0.28805 0.0
C238 C 0.42612 0.35302 0.67869 0.0
C239 C 0.42956 0.32078 0.64114 0.0
C240 C 0.50178 0.29368 0.67537 0.0
C241 C 0.50013 0.32851 0.71038 0.0
N242 N 0.45672 0.38193 0.75561 0.0
N243 N 0.46156 0.25016 0.6147 0.0
C244 C 0.46059 0.35484 0.71567 0.0
C245 C 0.46412 0.28725 0.64366 0.0
N246 N 0.39071 0.38292 0.67741 0.0
N247 N 0.54052 0.26936 0.66955 0.0
H248 H 0.43463 0.24485 0.59061 0.0
H249 H 0.48385 0.22251 0.61812 0.0
H250 H 0.56872 0.27256 0.69243 0.0
H251 H 0.54578 0.24809 0.64004 0.0
H252 H 0.38833 0.41098 0.69967 0.0
H253 H 0.36382 0.37983 0.65257 0.0
H254 H 0.42768 0.39983 0.76385 0.0
H255 H 0.48177 0.3834 0.7831 0.0
C256 C 0.66811 0.53432 0.39275 0.0
C257 C 0.69263 0.53462 0.4386 0.0
C258 C 0.71651 0.4549 0.43044 0.0
C259 C 0.68841 0.4532 0.38732 0.0
N260 N 0.648 0.49307 0.31905 0.0
N261 N 0.75198 0.50195 0.49155 0.0
C262 C 0.66798 0.49384 0.36545 0.0
C263 C 0.72124 0.49725 0.4539 0.0
N264 N 0.64378 0.57239 0.37669 0.0
N265 N 0.73598 0.41531 0.45098 0.0
H266 H 0.75569 0.53237 0.50987 0.0
H267 H 0.77638 0.47735 0.50158 0.0
H268 H 0.73425 0.38401 0.43394 0.0
H269 H 0.75187 0.4128 0.48608 0.0
H270 H 0.62085 0.57337 0.34696 0.0
H271 H 0.6464 0.60328 0.39437 0.0
H272 H 0.63476 0.52206 0.29911 0.0
H273 H 0.64785 0.46359 0.29859 0.0
C274 C 0.92945 0.14399 0.86704 0.0
C275 C 0.93262 0.17742 0.90339 0.0
C276 C 0.00457 0.20457 0.8682 0.0
C277 C 0.00296 0.16903 0.834 0.0
N278 N 0.95958 0.1138 0.79076 0.0
N279 N 0.96412 0.24933 0.92727 0.0
C280 C 0.96367 0.14181 0.82992 0.0
C281 C 0.96695 0.21135 0.89974 0.0
N282 N 0.89439 0.11349 0.86939 0.0
N283 N 0.04319 0.22943 0.87339 0.0
H284 H 0.93725 0.25491 0.95126 0.0
H285 H 0.98613 0.27725 0.9228 0.0
H286 H 0.07151 0.22576 0.85093 0.0
H287 H 0.04833 0.25147 0.90226 0.0
H288 H 0.89238 0.0846 0.84829 0.0
H289 H 0.86744 0.11693 0.89394 0.0
H290 H 0.93055 0.09539 0.78327 0.0
H291 H 0.98429 0.11203 0.76304 0.0
C292 C 0.38997 0.46674 0.34831 0.0
C293 C 0.3496 0.46412 0.37663 0.0
C294 C 0.33076 0.54331 0.34771 0.0
C295 C 0.37236 0.54702 0.32139 0.0
N296 N 0.43496 0.50926 0.28433 0.0
N297 N 0.27432 0.49236 0.38684 0.0
C298 C 0.39977 0.50751 0.3175 0.0
C299 C 0.31735 0.49976 0.37033 0.0
N300 N 0.41918 0.43049 0.352 0.0
N301 N 0.3058 0.58181 0.3549 0.0
H302 H 0.26364 0.46089 0.40405 0.0
H303 H 0.24842 0.51592 0.37912 0.0
H304 H 0.31472 0.61484 0.34048 0.0
H305 H 0.27814 0.58158 0.37897 0.0
H306 H 0.45174 0.4318 0.33764 0.0
H307 H 0.41056 0.39903 0.37083 0.0
H308 H 0.45435 0.48073 0.27681 0.0
H309 H 0.4423 0.53869 0.26091 0.0
C310 C 0.9933 0.79482 0.92125 0.0
C311 C 0.02556 0.82898 0.90619 0.0
C312 C 0.9712 0.866 0.8469 0.0
C313 C 0.93682 0.83823 0.87028 0.0
N314 N 0.91416 0.77579 0.92959 0.0
N315 N 0.04821 0.89366 0.85071 0.0
C316 C 0.94769 0.80171 0.90656 0.0
C317 C 0.01551 0.86312 0.86705 0.0
N318 N 0.00607 0.75652 0.95054 0.0
N319 N 0.96108 0.89519 0.80582 0.0
H320 H 0.08152 0.88968 0.86247 0.0
H321 H 0.04248 0.92298 0.82675 0.0
H322 H 0.92878 0.89755 0.79042 0.0
H323 H 0.98495 0.91419 0.78458 0.0
H324 H 0.98493 0.72847 0.95922 0.0
H325 H 0.03914 0.75087 0.96235 0.0
H326 H 0.91932 0.75278 0.96094 0.0
H327 H 0.88044 0.77929 0.91931 0.0
C328 C 0.80143 0.02707 0.91383 0.0
C329 C 0.80685 0.02117 0.96695 0.0
C330 C 0.80795 0.93719 0.96147 0.0
C331 C 0.81246 0.94395 0.90829 0.0
N332 N 0.81388 0.99526 0.83279 0.0
N333 N 0.81547 0.97035 0.04227 0.0
C334 C 0.80845 0.98884 0.88396 0.0
C335 C 0.80916 0.97605 0.99122 0.0
N336 N 0.78931 0.06929 0.8923 0.0
N337 N 0.80298 0.89345 0.98337 0.0
H338 H 0.81531 0.99788 0.06528 0.0
H339 H 0.82328 0.93885 0.0614 0.0
H340 H 0.80204 0.86439 0.96227 0.0
H341 H 0.79553 0.88635 0.02149 0.0
H342 H 0.78136 0.07531 0.85414 0.0
H343 H 0.78307 0.09725 0.91402 0.0
H344 H 0.81666 0.02771 0.81371 0.0
H345 H 0.81828 0.96796 0.80967 0.0
C346 C 0.52607 0.32 0.47444 0.0
C347 C 0.48658 0.32318 0.44428 0.0
C348 C 0.53195 0.33396 0.36746 0.0
C349 C 0.57139 0.33169 0.3977 0.0
N350 N 0.60691 0.30932 0.47727 0.0
N351 N 0.45197 0.31821 0.36279 0.0
C352 C 0.56865 0.32002 0.45039 0.0
C353 C 0.4896 0.32514 0.39088 0.0
N354 N 0.52308 0.31976 0.52587 0.0
N355 N 0.53462 0.3472 0.31708 0.0
H356 H 0.42064 0.31123 0.37933 0.0
H357 H 0.45256 0.31524 0.32385 0.0
H358 H 0.56507 0.35351 0.29842 0.0
H359 H 0.50655 0.35486 0.29454 0.0
H360 H 0.55068 0.32321 0.54954 0.0
H361 H 0.49251 0.31901 0.54483 0.0
H362 H 0.60684 0.29656 0.51496 0.0
H363 H 0.63857 0.30902 0.46036 0.0
C364 C 0.1641 0.03035 0.91151 0.0
C365 C 0.15945 0.98544 0.89395 0.0
C366 C 0.13014 0.01835 0.81297 0.0
C367 C 0.13288 0.06294 0.83152 0.0
N368 N 0.16477 0.11308 0.89082 0.0
N369 N 0.15255 0.93782 0.82378 0.0
C370 C 0.15431 0.06943 0.87823 0.0
C371 C 0.14731 0.9799 0.84305 0.0
N372 N 0.17488 0.03563 0.96084 0.0
N373 N 0.10908 0.0125 0.76801 0.0
H374 H 0.16599 0.90968 0.84532 0.0
H375 H 0.14762 0.93201 0.78583 0.0
H376 H 0.09714 0.04014 0.74456 0.0
H377 H 0.10132 0.98026 0.75532 0.0
H378 H 0.17298 0.06693 0.97771 0.0
H379 H 0.1835 0.00796 0.9858 0.0
H380 H 0.18406 0.11999 0.92225 0.0
H381 H 0.15771 0.14237 0.86709 0.0
C382 C 0.49936 0.68878 0.43265 0.0
C383 C 0.54519 0.68121 0.42051 0.0
C384 C 0.5242 0.6693 0.33291 0.0
C385 C 0.47845 0.67494 0.34582 0.0
N386 N 0.42357 0.70393 0.40207 0.0
N387 N 0.6023 0.67964 0.35664 0.0
C388 C 0.46656 0.68983 0.3937 0.0
C389 C 0.55796 0.67655 0.36964 0.0
N390 N 0.48658 0.6915 0.48177 0.0
N391 N 0.53512 0.65492 0.2865 0.0
H392 H 0.6273 0.68614 0.38295 0.0
H393 H 0.61372 0.68007 0.3195 0.0
H394 H 0.51114 0.65107 0.2583 0.0
H395 H 0.56738 0.6448 0.27691 0.0
H396 H 0.45324 0.69088 0.4937 0.0
H397 H 0.50946 0.69132 0.51129 0.0
H398 H 0.41371 0.71926 0.43467 0.0
H399 H 0.39874 0.70441 0.37419 0.0
C400 C 0.29948 0.47397 0.62834 0.0
C401 C 0.30369 0.4789 0.57503 0.0
C402 C 0.30333 0.56315 0.57873 0.0
C403 C 0.30958 0.5575 0.63173 0.0
N404 N 0.31342 0.50764 0.70817 0.0
N405 N 0.3098 0.52879 0.49864 0.0
C406 C 0.3067 0.51296 0.65711 0.0
C407 C 0.30455 0.52373 0.54982 0.0
N408 N 0.28829 0.43194 0.6511 0.0
N409 N 0.297 0.6064 0.55616 0.0
H410 H 0.30984 0.5009 0.47622 0.0
H411 H 0.31665 0.56023 0.47879 0.0
H412 H 0.29615 0.6358 0.57673 0.0
H413 H 0.2883 0.61264 0.51823 0.0
H414 H 0.28133 0.42649 0.68955 0.0
H415 H 0.28168 0.40355 0.63012 0.0
H416 H 0.3171 0.47557 0.72786 0.0
H417 H 0.31782 0.53554 0.73048 0.0
C418 C 0.05214 0.82729 0.16333 0.0
C419 C 0.0384 0.82557 0.11231 0.0
C420 C 0.95975 0.82051 0.13934 0.0
C421 C 0.97317 0.83193 0.18818 0.0
N422 N 0.03178 0.84646 0.24794 0.0
N423 N 0.97883 0.82141 0.05073 0.0
C424 C 0.01936 0.83461 0.2009 0.0
C425 C 0.99212 0.82141 0.10006 0.0
N426 N 0.09646 0.82147 0.17566 0.0
N427 N 0.91587 0.80943 0.1306 0.0
H428 H 0.00149 0.82143 0.02101 0.0
H429 H 0.94549 0.82433 0.03896 0.0
H430 H 0.89144 0.80881 0.15886 0.0
H431 H 0.9046 0.79668 0.09703 0.0
H432 H 0.10831 0.81859 0.21273 0.0
H433 H 0.12087 0.81533 0.14868 0.0
H434 H 0.06469 0.85448 0.25755 0.0
H435 H 0.00859 0.85072 0.27673 0.0
C436 C 0.64518 0.51927 0.69201 0.0
C437 C 0.65486 0.51393 0.64049 0.0
C438 C 0.64733 0.43002 0.65533 0.0
C439 C 0.62889 0.43655 0.70355 0.0
N440 N 0.60932 0.48704 0.76862 0.0
N441 N 0.66554 0.46427 0.57215 0.0
C442 C 0.62819 0.48103 0.72257 0.0
C443 C 0.65688 0.46919 0.62205 0.0
N444 N 0.65294 0.56083 0.7116 0.0
N445 N 0.65552 0.38629 0.64151 0.0
H446 H 0.67442 0.49196 0.54729 0.0
H447 H 0.66173 0.43336 0.55483 0.0
H448 H 0.64874 0.35692 0.66525 0.0
H449 H 0.67272 0.3792 0.60876 0.0
H450 H 0.64995 0.56633 0.74986 0.0
H451 H 0.66679 0.58861 0.68984 0.0
H452 H 0.60304 0.51937 0.78186 0.0
H453 H 0.59742 0.45961 0.79243 0.0
C454 C 0.98815 0.17769 0.15519 0.0
C455 C 0.98521 0.18043 0.10176 0.0
C456 C 0.06717 0.18554 0.09619 0.0
C457 C 0.06994 0.17247 0.14852 0.0
N458 N 0.0334 0.15522 0.22882 0.0
N459 N 0.02201 0.18601 0.02038 0.0
C460 C 0.03056 0.16913 0.17863 0.0
C461 C 0.02473 0.18512 0.07185 0.0
N462 N 0.9504 0.18364 0.18324 0.0
N463 N 0.10534 0.1977 0.06985 0.0
H464 H 0.99158 0.18604 0.00118 0.0
H465 H 0.04982 0.18365 0.99688 0.0
H466 H 0.13691 0.19822 0.08705 0.0
H467 H 0.10515 0.21149 0.03252 0.0
H468 H 0.95087 0.18581 0.2223 0.0
H469 H 0.91912 0.1907 0.16658 0.0
H470 H 0.00542 0.14681 0.25119 0.0
H471 H 0.06397 0.14937 0.24745 0.0
C472 C 0.2465 0.78965 0.14357 0.0
C473 C 0.23207 0.76865 0.09948 0.0
C474 C 0.27093 0.69684 0.12771 0.0
C475 C 0.28588 0.71825 0.17123 0.0
N476 N 0.29358 0.78569 0.2187 0.0
N477 N 0.22534 0.70129 0.05142 0.0
C478 C 0.27546 0.76495 0.17852 0.0
C479 C 0.24294 0.72193 0.09196 0.0
N480 N 0.22992 0.83197 0.15364 0.0
N481 N 0.28519 0.65309 0.1198 0.0
H482 H 0.20567 0.71876 0.02383 0.0
H483 H 0.22795 0.6663 0.04586 0.0
H484 H 0.30569 0.63385 0.14529 0.0
H485 H 0.27943 0.63645 0.08689 0.0
H486 H 0.23528 0.84759 0.1873 0.0
H487 H 0.20705 0.85001 0.13001 0.0
H488 H 0.29173 0.82095 0.22324 0.0
H489 H 0.31325 0.76808 0.24629 0.0
C490 C 0.70708 0.70356 0.70807 0.0
C491 C 0.72269 0.71433 0.65814 0.0
C492 C 0.77899 0.76715 0.69013 0.0
C493 C 0.76635 0.7526 0.74031 0.0
N494 N 0.72211 0.70333 0.79804 0.0
N495 N 0.77658 0.75239 0.60132 0.0
C496 C 0.73159 0.71956 0.74958 0.0
C497 C 0.75926 0.74537 0.64899 0.0
N498 N 0.66755 0.67999 0.7156 0.0
N499 N 0.81015 0.80154 0.68173 0.0
H500 H 0.76301 0.73753 0.5701 0.0
H501 H 0.80641 0.77009 0.59302 0.0
H502 H 0.82799 0.81597 0.71065 0.0
H503 H 0.81652 0.81786 0.64625 0.0
H504 H 0.65196 0.67485 0.75068 0.0
H505 H 0.64803 0.6692 0.68585 0.0
H506 H 0.70083 0.67542 0.80687 0.0
H507 H 0.73784 0.71581 0.82958 0.0
C508 C 0.78406 0.28541 0.14526 0.0
C509 C 0.79829 0.23906 0.15565 0.0
C510 C 0.7803 0.24376 0.2454 0.0
C511 C 0.76855 0.29083 0.23538 0.0
N512 N 0.7657 0.359 0.17816 0.0
N513 N 0.81882 0.17698 0.21626 0.0
C514 C 0.7726 0.31248 0.18602 0.0
C515 C 0.79881 0.21893 0.20595 0.0
N516 N 0.77983 0.30304 0.09632 0.0
N517 N 0.77368 0.22278 0.29258 0.0
H518 H 0.83379 0.15853 0.18842 0.0
H519 H 0.82439 0.1624 0.25271 0.0
H520 H 0.76259 0.24049 0.32315 0.0
H521 H 0.77653 0.18731 0.30078 0.0
H522 H 0.76439 0.33444 0.08601 0.0
H523 H 0.78869 0.28473 0.06544 0.0
H524 H 0.77315 0.37776 0.14431 0.0
H525 H 0.75556 0.37971 0.2067 0.0
C526 C 0.20591 0.24836 0.55689 0.0
C527 C 0.23965 0.27416 0.58043 0.0
C528 C 0.21605 0.24142 0.66394 0.0
C529 C 0.18165 0.21652 0.64037 0.0
N530 N 0.13798 0.20218 0.5665 0.0
N531 N 0.27359 0.30097 0.65563 0.0
C532 C 0.1749 0.22168 0.58739 0.0
C533 C 0.24347 0.27267 0.63384 0.0
N534 N 0.20434 0.24832 0.50535 0.0
N535 N 0.22417 0.23312 0.71458 0.0
H536 H 0.29566 0.32256 0.63456 0.0
H537 H 0.27481 0.30551 0.69421 0.0
H538 H 0.20495 0.21037 0.73786 0.0
H539 H 0.25179 0.24612 0.73314 0.0
H540 H 0.18472 0.22561 0.48595 0.0
H541 H 0.22467 0.26948 0.48168 0.0
H542 H 0.12836 0.2086 0.52891 0.0
H543 H 0.11458 0.18239 0.58782 0.0
C544 C 0.74363 0.78588 0.45419 0.0
C545 C 0.74563 0.73697 0.45353 0.0
C546 C 0.81727 0.74415 0.40846 0.0
C547 C 0.81176 0.79275 0.40241 0.0
N548 N 0.7634 0.85882 0.41046 0.0
N549 N 0.77905 0.67071 0.418 0.0
C550 C 0.77309 0.81339 0.42257 0.0
C551 C 0.78084 0.71642 0.42696 0.0
N552 N 0.71567 0.80637 0.4868 0.0
N553 N 0.85786 0.72437 0.39958 0.0
H554 H 0.75147 0.64998 0.42812 0.0
H555 H 0.80225 0.65514 0.39516 0.0
H556 H 0.88675 0.74362 0.39073 0.0
H557 H 0.8641 0.6893 0.40757 0.0
H558 H 0.7167 0.84164 0.49196 0.0
H559 H 0.69509 0.78799 0.51278 0.0
H560 H 0.73318 0.8739 0.42036 0.0
H561 H 0.78303 0.88018 0.38612 0.0
C562 C 0.70801 0.25047 0.9784 0.0
C563 C 0.74155 0.22382 0.95616 0.0
C564 C 0.7166 0.25218 0.87153 0.0
C565 C 0.68698 0.28308 0.89407 0.0
N566 N 0.65555 0.31425 0.96828 0.0
N567 N 0.78053 0.20054 0.88254 0.0
C568 C 0.6829 0.2829 0.94736 0.0
C569 C 0.74628 0.22454 0.9029 0.0
N570 N 0.69961 0.24395 0.02908 0.0
N571 N 0.71678 0.24974 0.82018 0.0
H572 H 0.80218 0.17916 0.90442 0.0
H573 H 0.78933 0.20371 0.84448 0.0
H574 H 0.69753 0.27133 0.79569 0.0
H575 H 0.73383 0.22444 0.80186 0.0
H576 H 0.67293 0.25911 0.0471 0.0
H577 H 0.71695 0.21986 0.0526 0.0
H578 H 0.65531 0.31983 0.00666 0.0
H579 H 0.63465 0.33681 0.94682 0.0
C580 C 0.29236 0.21397 0.39347 0.0
C581 C 0.30235 0.26167 0.38385 0.0
C582 C 0.28061 0.25753 0.29501 0.0
C583 C 0.27243 0.20952 0.30427 0.0
N584 N 0.2782 0.14 0.35908 0.0
N585 N 0.31624 0.32625 0.32387 0.0
C586 C 0.28098 0.18707 0.35246 0.0
C587 C 0.29928 0.2828 0.33413 0.0
N588 N 0.29165 0.19479 0.44203 0.0
N589 N 0.27055 0.27895 0.24884 0.0
H590 H 0.33179 0.34487 0.35128 0.0
H591 H 0.31904 0.34202 0.28753 0.0
H592 H 0.25977 0.26109 0.21818 0.0
H593 H 0.27052 0.31467 0.24166 0.0
H594 H 0.27912 0.16192 0.45205 0.0
H595 H 0.30037 0.21292 0.47314 0.0
H596 H 0.28901 0.12119 0.3917 0.0
H597 H 0.26828 0.1192 0.33046 0.0
C598 C 0.21312 0.78747 0.83815 0.0
C599 C 0.22664 0.7822 0.88959 0.0
C600 C 0.28506 0.72759 0.86784 0.0
C601 C 0.27545 0.73745 0.8159 0.0
N602 N 0.2335 0.78017 0.75039 0.0
N603 N 0.27985 0.75254 0.9526 0.0
C604 C 0.24006 0.76805 0.80059 0.0
C605 C 0.26369 0.75353 0.90428 0.0
N606 N 0.17407 0.81014 0.82541 0.0
N607 N 0.31372 0.69236 0.88248 0.0
H608 H 0.26559 0.77137 0.98037 0.0
H609 H 0.30978 0.73642 0.964 0.0
H610 H 0.32946 0.67197 0.85684 0.0
H611 H 0.3183 0.68025 0.92004 0.0
H612 H 0.16 0.81124 0.78935 0.0
H613 H 0.15367 0.82475 0.85202 0.0
H614 H 0.21163 0.80622 0.7371 0.0
H615 H 0.25239 0.76646 0.72191 0.0
loop_
_geom_bond_atom_site_label_1
_geom_bond_atom_site_label_2
_geom_bond_distance
_geom_bond_site_symmetry_2
_ccdc_geom_bond_type
Fe0 O2 1.918 . S
Fe0 O5 1.997 1_556 S
Fe0 O6 2.002 1_556 S
Fe0 O11 1.976 . S
Fe0 O14 1.996 . S
Fe1 O2 1.918 1_554 S
Fe1 O9 1.997 . S
Fe1 O12 1.996 1_554 S
Fe1 O16 1.976 1_554 S
Fe1 O19 2.002 . S
O2 Fe0 1.918 . S
O2 Fe1 1.918 1_556 S
O2 Fe3 1.918 1_556 S
Fe3 O2 1.918 1_554 S
Fe3 O4 2.002 . S
Fe3 O13 1.976 1_554 S
Fe3 O17 1.996 1_554 S
Fe3 O20 1.997 . S
O4 Fe3 2.002 . S
O4 C21 1.295 . S
O5 Fe0 1.997 1_554 S
O5 C21 1.235 . S
O6 Fe0 2.002 1_554 S
O6 C7 1.295 . S
C7 O6 1.295 . S
C7 O9 1.235 . S
C8 O13 1.287 . S
C8 O14 1.255 . S
O9 Fe1 1.997 . S
O9 C7 1.235 . S
C10 O16 1.287 . S
C10 O17 1.255 . S
O11 Fe0 1.976 . S
O11 C18 1.287 . S
O12 Fe1 1.996 1_556 S
O12 C18 1.255 . S
O13 Fe3 1.976 1_556 S
O13 C8 1.287 . S
O14 Fe0 1.996 . S
O14 C8 1.255 . S
C15 O19 1.295 . S
C15 O20 1.235 . S
O16 Fe1 1.976 1_556 S
O16 C10 1.287 . S
O17 Fe3 1.996 1_556 S
O17 C10 1.255 . S
C18 O11 1.287 . S
C18 O12 1.255 . S
O19 Fe1 2.002 . S
O19 C15 1.295 . S
O20 Fe3 1.997 . S
O20 C15 1.235 . S
C21 O4 1.295 . S
C21 O5 1.235 . S
Fe22 O24 1.918 . S
Fe22 O27 1.997 . S
Fe22 O28 2.002 . S
Fe22 O33 1.976 . S
Fe22 O36 1.996 . S
Fe23 O24 1.918 . S
Fe23 O31 1.997 . S
Fe23 O34 1.996 . S
Fe23 O38 1.976 . S
Fe23 O41 2.002 . S
O24 Fe22 1.918 . S
O24 Fe23 1.918 . S
O24 Fe25 1.918 . S
Fe25 O24 1.918 . S
Fe25 O26 2.002 . S
Fe25 O35 1.976 . S
Fe25 O39 1.996 . S
Fe25 O42 1.997 . S
O26 Fe25 2.002 . S
O26 C43 1.295 . S
O27 Fe22 1.997 . S
O27 C43 1.235 . S
O28 Fe22 2.002 . S
O28 C29 1.295 . S
C29 O28 1.295 . S
C29 O31 1.235 . S
C30 O35 1.287 . S
C30 O36 1.255 . S
O31 Fe23 1.997 . S
O31 C29 1.235 . S
C32 O38 1.287 . S
C32 O39 1.255 . S
O33 Fe22 1.976 . S
O33 C40 1.287 . S
O34 Fe23 1.996 . S
O34 C40 1.255 . S
O35 Fe25 1.976 . S
O35 C30 1.287 . S
O36 Fe22 1.996 . S
O36 C30 1.255 . S
C37 O41 1.295 . S
C37 O42 1.235 . S
O38 Fe23 1.976 . S
O38 C32 1.287 . S
O39 Fe25 1.996 . S
O39 C32 1.255 . S
C40 O33 1.287 . S
C40 O34 1.255 . S
O41 Fe23 2.002 . S
O41 C37 1.295 . S
O42 Fe25 1.997 . S
O42 C37 1.235 . S
C43 O26 1.295 . S
C43 O27 1.235 . S
Fe44 O46 1.918 . S
Fe44 O49 1.997 1_554 S
Fe44 O50 2.002 1_554 S
Fe44 O55 1.976 . S
Fe44 O58 1.996 . S
Fe45 O46 1.918 . S
Fe45 O53 1.997 1_554 S
Fe45 O56 1.996 . S
Fe45 O60 1.976 . S
Fe45 O63 2.002 1_554 S
O46 Fe44 1.918 . S
O46 Fe45 1.918 . S
O46 Fe47 1.918 . S
Fe47 O46 1.918 . S
Fe47 O48 2.002 . S
Fe47 O57 1.976 . S
Fe47 O61 1.996 . S
Fe47 O64 1.997 . S
O48 Fe47 2.002 . S
O48 C65 1.295 1_554 S
O49 Fe44 1.997 1_556 S
O49 C65 1.235 . S
O50 Fe44 2.002 1_556 S
O50 C51 1.295 . S
C51 O50 1.295 . S
C51 O53 1.235 . S
C52 O57 1.287 . S
C52 O58 1.255 . S
O53 Fe45 1.997 1_556 S
O53 C51 1.235 . S
C54 O60 1.287 . S
C54 O61 1.255 . S
O55 Fe44 1.976 . S
O55 C62 1.287 . S
O56 Fe45 1.996 . S
O56 C62 1.255 . S
O57 Fe47 1.976 . S
O57 C52 1.287 . S
O58 Fe44 1.996 . S
O58 C52 1.255 . S
C59 O63 1.295 . S
C59 O64 1.235 1_556 S
O60 Fe45 1.976 . S
O60 C54 1.287 . S
O61 Fe47 1.996 . S
O61 C54 1.255 . S
C62 O55 1.287 . S
C62 O56 1.255 . S
O63 Fe45 2.002 1_556 S
O63 C59 1.295 . S
O64 Fe47 1.997 . S
O64 C59 1.235 1_554 S
C65 O48 1.295 1_556 S
C65 O49 1.235 . S
Fe66 O68 1.918 . S
Fe66 O71 1.997 . S
Fe66 O72 2.002 . S
Fe66 O77 1.976 . S
Fe66 O80 1.996 . S
Fe67 O68 1.918 . S
Fe67 O75 1.997 . S
Fe67 O78 1.996 . S
Fe67 O82 1.976 . S
Fe67 O85 2.002 . S
O68 Fe66 1.918 . S
O68 Fe67 1.918 . S
O68 Fe69 1.918 . S
Fe69 O68 1.918 . S
Fe69 O70 2.002 . S
Fe69 O79 1.976 . S
Fe69 O83 1.996 . S
Fe69 O86 1.997 . S
O70 Fe69 2.002 . S
O70 C87 1.295 . S
O71 Fe66 1.997 . S
O71 C87 1.235 . S
O72 Fe66 2.002 . S
O72 C73 1.295 . S
C73 O72 1.295 . S
C73 O75 1.235 . S
C74 O79 1.287 . S
C74 O80 1.255 . S
O75 Fe67 1.997 . S
O75 C73 1.235 . S
C76 O82 1.287 . S
C76 O83 1.255 . S
O77 Fe66 1.976 . S
O77 C84 1.287 . S
O78 Fe67 1.996 . S
O78 C84 1.255 . S
O79 Fe69 1.976 . S
O79 C74 1.287 . S
O80 Fe66 1.996 . S
O80 C74 1.255 . S
C81 O85 1.295 . S
C81 O86 1.235 . S
O82 Fe67 1.976 . S
O82 C76 1.287 . S
O83 Fe69 1.996 . S
O83 C76 1.255 . S
C84 O77 1.287 . S
C84 O78 1.255 . S
O85 Fe67 2.002 . S
O85 C81 1.295 . S
O86 Fe69 1.997 . S
O86 C81 1.235 . S
C87 O70 1.295 . S
C87 O71 1.235 . S
H88 C93 0.930 . S
H89 C96 0.930 . S
H90 C98 0.930 . S
H91 C92 1.016 . S
C92 H91 1.016 . S
C92 N99 1.286 . S
C93 H88 0.930 . S
C93 C94 1.397 . S
C93 C95 1.361 . S
C94 C93 1.397 . S
C94 C98 1.390 . S
C95 C93 1.361 . S
C95 C96 1.393 . S
C95 N99 1.413 . S
C96 H89 0.930 . S
C96 C95 1.393 . S
C96 C97 1.399 . S
C97 C96 1.399 . S
C97 C98 1.381 . S
C98 H90 0.930 . S
C98 C94 1.390 . S
C98 C97 1.381 . S
N99 C92 1.286 . S
N99 C95 1.413 . S
H100 C105 0.930 . S
H101 C108 0.930 . S
H102 C110 0.930 . S
H103 C104 1.016 . S
C104 H103 1.016 . S
C104 N111 1.286 . S
C105 H100 0.930 . S
C105 C106 1.397 . S
C105 C107 1.361 . S
C106 C105 1.397 . S
C106 C110 1.390 . S
C107 C105 1.361 . S
C107 C108 1.393 . S
C107 N111 1.413 . S
C108 H101 0.930 . S
C108 C107 1.393 . S
C108 C109 1.399 . S
C109 C108 1.399 . S
C109 C110 1.381 . S
C110 H102 0.930 . S
C110 C106 1.390 . S
C110 C109 1.381 . S
N111 C104 1.286 . S
N111 C107 1.413 . S
H112 C117 0.930 . S
H113 C120 0.930 . S
H114 C122 0.930 . S
H115 C116 1.016 . S
C116 H115 1.016 . S
C116 N123 1.286 . S
C117 H112 0.930 . S
C117 C118 1.397 . S
C117 C119 1.361 . S
C118 C117 1.397 . S
C118 C122 1.390 . S
C119 C117 1.361 . S
C119 C120 1.393 . S
C119 N123 1.413 . S
C120 H113 0.930 . S
C120 C119 1.393 . S
C120 C121 1.399 . S
C121 C120 1.399 . S
C121 C122 1.381 . S
C122 H114 0.930 . S
C122 C118 1.390 . S
C122 C121 1.381 . S
N123 C116 1.286 . S
N123 C119 1.413 . S
H124 C129 0.930 . S
H125 C132 0.930 . S
H126 C134 0.930 . S
H127 C128 1.016 . S
C128 H127 1.016 . S
C128 N135 1.286 . S
C129 H124 0.930 . S
C129 C130 1.397 . S
C129 C131 1.361 . S
C130 C129 1.397 . S
C130 C134 1.390 . S
C131 C129 1.361 . S
C131 C132 1.393 . S
C131 N135 1.413 . S
C132 H125 0.930 . S
C132 C131 1.393 . S
C132 C133 1.399 . S
C133 C132 1.399 . S
C133 C134 1.381 . S
C134 H126 0.930 . S
C134 C130 1.390 . S
C134 C133 1.381 . S
N135 C128 1.286 . S
N135 C131 1.413 . S
H136 C141 0.930 . S
H137 C144 0.930 . S
H138 C146 0.930 . S
H139 C140 1.016 . S
C140 H139 1.016 . S
C140 N147 1.286 . S
C141 H136 0.930 . S
C141 C142 1.397 . S
C141 C143 1.361 . S
C142 C141 1.397 . S
C142 C146 1.390 . S
C143 C141 1.361 . S
C143 C144 1.393 . S
C143 N147 1.413 . S
C144 H137 0.930 . S
C144 C143 1.393 . S
C144 C145 1.399 . S
C145 C144 1.399 . S
C145 C146 1.381 . S
C146 H138 0.930 . S
C146 C142 1.390 . S
C146 C145 1.381 . S
N147 C140 1.286 . S
N147 C143 1.413 . S
H148 C153 0.930 . S
H149 C156 0.930 . S
H150 C158 0.930 . S
H151 C152 1.016 . S
C152 H151 1.016 . S
C152 N159 1.286 . S
C153 H148 0.930 . S
C153 C154 1.397 . S
C153 C155 1.361 . S
C154 C153 1.397 . S
C154 C158 1.390 . S
C155 C153 1.361 . S
C155 C156 1.393 . S
C155 N159 1.413 . S
C156 H149 0.930 . S
C156 C155 1.393 . S
C156 C157 1.399 . S
C157 C156 1.399 . S
C157 C158 1.381 . S
C158 H150 0.930 . S
C158 C154 1.390 . S
C158 C157 1.381 . S
N159 C152 1.286 . S
N159 C155 1.413 . S
H160 C165 0.930 . S
H161 C168 0.930 . S
H162 C170 0.930 . S
H163 C164 1.016 . S
C164 H163 1.016 . S
C164 N171 1.286 . S
C165 H160 0.930 . S
C165 C166 1.397 . S
C165 C167 1.361 . S
C166 C165 1.397 . S
C166 C170 1.390 . S
C167 C165 1.361 . S
C167 C168 1.393 . S
C167 N171 1.413 . S
C168 H161 0.930 . S
C168 C167 1.393 . S
C168 C169 1.399 . S
C169 C168 1.399 . S
C169 C170 1.381 . S
C170 H162 0.930 . S
C170 C166 1.390 . S
C170 C169 1.381 . S
N171 C164 1.286 . S
N171 C167 1.413 . S
H172 C177 0.930 . S
H173 C180 0.930 . S
H174 C182 0.930 . S
H175 C176 1.016 . S
C176 H175 1.016 . S
C176 N183 1.286 . S
C177 H172 0.930 . S
C177 C178 1.397 . S
C177 C179 1.361 . S
C178 C177 1.397 . S
C178 C182 1.390 . S
C179 C177 1.361 . S
C179 C180 1.393 . S
C179 N183 1.413 . S
C180 H173 0.930 . S
C180 C179 1.393 . S
C180 C181 1.399 . S
C181 C180 1.399 . S
C181 C182 1.381 . S
C182 H174 0.930 . S
C182 C178 1.390 . S
C182 C181 1.381 . S
N183 C176 1.286 . S
N183 C179 1.413 . S
C184 C185 1.363 . S
C184 C190 1.379 . S
C184 N192 1.356 . S
C185 C184 1.363 . S
C185 C191 1.363 . S
C186 C187 1.363 . S
C186 C191 1.379 . S
C186 N193 1.356 . S
C187 C186 1.363 . S
C187 C190 1.363 . S
N188 C190 1.356 . S
N188 H200 0.984 . S
N188 H201 0.985 . S
N189 C191 1.356 1_565 S
N189 H194 0.984 . S
N189 H195 0.985 . S
C190 C184 1.379 . S
C190 C187 1.363 . S
C190 N188 1.356 . S
C191 C185 1.363 . S
C191 C186 1.379 . S
C191 N189 1.356 1_545 S
N192 C184 1.356 . S
N192 H198 0.984 1_554 S
N192 H199 0.984 1_545 S
N193 C186 1.356 . S
N193 H196 0.984 . S
N193 H197 0.985 . S
H194 N189 0.984 . S
H195 N189 0.985 . S
H196 N193 0.984 . S
H197 N193 0.985 . S
H198 N192 0.984 1_556 S
H199 N192 0.984 1_565 S
H200 N188 0.984 . S
H201 N188 0.985 . S
C202 C203 1.363 . S
C202 C208 1.379 . S
C202 N210 1.356 . S
C203 C202 1.363 . S
C203 C209 1.363 . S
C204 C205 1.363 . S
C204 C209 1.379 . S
C204 N211 1.356 . S
C205 C204 1.363 . S
C205 C208 1.363 . S
N206 C208 1.356 . S
N206 H218 0.984 . S
N206 H219 0.985 . S
N207 C209 1.356 . S
N207 H212 0.984 . S
N207 H213 0.985 . S
C208 C202 1.379 . S
C208 C205 1.363 . S
C208 N206 1.356 . S
C209 C203 1.363 . S
C209 C204 1.379 . S
C209 N207 1.356 . S
N210 C202 1.356 . S
N210 H216 0.984 . S
N210 H217 0.984 . S
N211 C204 1.356 . S
N211 H214 0.984 . S
N211 H215 0.985 . S
H212 N207 0.984 . S
H213 N207 0.985 . S
H214 N211 0.984 . S
H215 N211 0.985 . S
H216 N210 0.984 . S
H217 N210 0.984 . S
H218 N206 0.984 . S
H219 N206 0.985 . S
C220 C221 1.363 . S
C220 C226 1.379 1_545 S
C220 N228 1.356 . S
C221 C220 1.363 . S
C221 C227 1.363 1_545 S
C222 C223 1.363 . S
C222 C227 1.379 . S
C222 N229 1.356 . S
C223 C222 1.363 . S
C223 C226 1.363 . S
N224 C226 1.356 . S
N224 H236 0.984 . S
N224 H237 0.985 . S
N225 C227 1.356 . S
N225 H230 0.984 . S
N225 H231 0.985 . S
C226 C220 1.379 1_565 S
C226 C223 1.363 . S
C226 N224 1.356 . S
C227 C221 1.363 1_565 S
C227 C222 1.379 . S
C227 N225 1.356 . S
N228 C220 1.356 . S
N228 H234 0.984 . S
N228 H235 0.984 . S
N229 C222 1.356 . S
N229 H232 0.984 . S
N229 H233 0.985 . S
H230 N225 0.984 . S
H231 N225 0.985 . S
H232 N229 0.984 . S
H233 N229 0.985 . S
H234 N228 0.984 . S
H235 N228 0.984 . S
H236 N224 0.984 . S
H237 N224 0.985 . S
C238 C239 1.363 . S
C238 C244 1.379 . S
C238 N246 1.356 . S
C239 C238 1.363 . S
C239 C245 1.363 . S
C240 C241 1.363 . S
C240 C245 1.379 . S
C240 N247 1.356 . S
C241 C240 1.363 . S
C241 C244 1.363 . S
N242 C244 1.356 . S
N242 H254 0.984 . S
N242 H255 0.985 . S
N243 C245 1.356 . S
N243 H248 0.984 . S
N243 H249 0.985 . S
C244 C238 1.379 . S
C244 C241 1.363 . S
C244 N242 1.356 . S
C245 C239 1.363 . S
C245 C240 1.379 . S
C245 N243 1.356 . S
N246 C238 1.356 . S
N246 H252 0.984 . S
N246 H253 0.984 . S
N247 C240 1.356 . S
N247 H250 0.984 . S
N247 H251 0.985 . S
H248 N243 0.984 . S
H249 N243 0.985 . S
H250 N247 0.984 . S
H251 N247 0.985 . S
H252 N246 0.984 . S
H253 N246 0.984 . S
H254 N242 0.984 . S
H255 N242 0.985 . S
C256 C257 1.363 . S
C256 C262 1.379 . S
C256 N264 1.356 . S
C257 C256 1.363 . S
C257 C263 1.363 . S
C258 C259 1.363 . S
C258 C263 1.379 . S
C258 N265 1.356 . S
C259 C258 1.363 . S
C259 C262 1.363 . S
N260 C262 1.356 . S
N260 H272 0.984 . S
N260 H273 0.985 . S
N261 C263 1.356 . S
N261 H266 0.984 . S
N261 H267 0.985 . S
C262 C256 1.379 . S
C262 C259 1.363 . S
C262 N260 1.356 . S
C263 C257 1.363 . S
C263 C258 1.379 . S
C263 N261 1.356 . S
N264 C256 1.356 . S
N264 H270 0.984 . S
N264 H271 0.984 . S
N265 C258 1.356 . S
N265 H268 0.984 . S
N265 H269 0.985 . S
H266 N261 0.984 . S
H267 N261 0.985 . S
H268 N265 0.984 . S
H269 N265 0.985 . S
H270 N264 0.984 . S
H271 N264 0.984 . S
H272 N260 0.984 . S
H273 N260 0.985 . S
C274 C275 1.363 . S
C274 C280 1.379 . S
C274 N282 1.356 . S
C275 C274 1.363 . S
C275 C281 1.363 . S
C276 C277 1.363 . S
C276 C281 1.379 1_455 S
C276 N283 1.356 . S
C277 C276 1.363 . S
C277 C280 1.363 1_455 S
N278 C280 1.356 . S
N278 H290 0.984 . S
N278 H291 0.985 . S
N279 C281 1.356 . S
N279 H284 0.984 . S
N279 H285 0.985 1_655 S
C280 C274 1.379 . S
C280 C277 1.363 1_655 S
C280 N278 1.356 . S
C281 C275 1.363 . S
C281 C276 1.379 1_655 S
C281 N279 1.356 . S
N282 C274 1.356 . S
N282 H288 0.984 . S
N282 H289 0.984 . S
N283 C276 1.356 . S
N283 H286 0.984 . S
N283 H287 0.985 . S
H284 N279 0.984 . S
H285 N279 0.985 1_455 S
H286 N283 0.984 . S
H287 N283 0.985 . S
H288 N282 0.984 . S
H289 N282 0.984 . S
H290 N278 0.984 . S
H291 N278 0.985 . S
C292 C293 1.363 . S
C292 C298 1.379 . S
C292 N300 1.356 . S
C293 C292 1.363 . S
C293 C299 1.363 . S
C294 C295 1.363 . S
C294 C299 1.379 . S
C294 N301 1.356 . S
C295 C294 1.363 . S
C295 C298 1.363 . S
N296 C298 1.356 . S
N296 H308 0.984 . S
N296 H309 0.985 . S
N297 C299 1.356 . S
N297 H302 0.984 . S
N297 H303 0.985 . S
C298 C292 1.379 . S
C298 C295 1.363 . S
C298 N296 1.356 . S
C299 C293 1.363 . S
C299 C294 1.379 . S
C299 N297 1.356 . S
N300 C292 1.356 . S
N300 H306 0.984 . S
N300 H307 0.984 . S
N301 C294 1.356 . S
N301 H304 0.984 . S
N301 H305 0.985 . S
H302 N297 0.984 . S
H303 N297 0.985 . S
H304 N301 0.984 . S
H305 N301 0.985 . S
H306 N300 0.984 . S
H307 N300 0.984 . S
H308 N296 0.984 . S
H309 N296 0.985 . S
C310 C311 1.363 . S
C310 C316 1.379 . S
C310 N318 1.356 1_655 S
C311 C310 1.363 . S
C311 C317 1.363 . S
C312 C313 1.363 . S
C312 C317 1.379 . S
C312 N319 1.356 . S
C313 C312 1.363 . S
C313 C316 1.363 . S
N314 C316 1.356 . S
N314 H326 0.984 . S
N314 H327 0.985 . S
N315 C317 1.356 . S
N315 H320 0.984 1_655 S
N315 H321 0.985 . S
C316 C310 1.379 . S
C316 C313 1.363 . S
C316 N314 1.356 . S
C317 C311 1.363 . S
C317 C312 1.379 . S
C317 N315 1.356 . S
N318 C310 1.356 1_455 S
N318 H324 0.984 . S
N318 H325 0.984 . S
N319 C312 1.356 . S
N319 H322 0.984 . S
N319 H323 0.985 . S
H320 N315 0.984 1_455 S
H321 N315 0.985 . S
H322 N319 0.984 . S
H323 N319 0.985 . S
H324 N318 0.984 . S
H325 N318 0.984 . S
H326 N314 0.984 . S
H327 N314 0.985 . S
C328 C329 1.363 . S
C328 C334 1.377 1_545 S
C328 N336 1.358 . S
C329 C328 1.363 . S
C329 C335 1.363 1_545 S
C330 C331 1.363 . S
C330 C335 1.379 . S
C330 N337 1.356 . S
C331 C330 1.363 . S
C331 C334 1.363 . S
N332 C334 1.356 . S
N332 H344 0.984 . S
N332 H345 0.985 . S
N333 C335 1.356 1_554 S
N333 H338 0.984 1_565 S
N333 H339 0.985 . S
C334 C328 1.377 1_565 S
C334 C331 1.363 . S
C334 N332 1.356 . S
C335 C329 1.363 1_565 S
C335 C330 1.379 . S
C335 N333 1.356 1_556 S
N336 C328 1.358 . S
N336 H342 0.984 . S
N336 H343 0.984 . S
N337 C330 1.356 . S
N337 H340 0.984 . S
N337 H341 0.985 . S
H338 N333 0.984 1_545 S
H339 N333 0.985 . S
H340 N337 0.984 . S
H341 N337 0.985 . S
H342 N336 0.984 . S
H343 N336 0.984 . S
H344 N332 0.984 . S
H345 N332 0.985 . S
C346 C347 1.363 . S
C346 C352 1.379 . S
C346 N354 1.356 . S
C347 C346 1.363 . S
C347 C353 1.363 . S
C348 C349 1.363 . S
C348 C353 1.379 . S
C348 N355 1.356 . S
C349 C348 1.363 . S
C349 C352 1.363 . S
N350 C352 1.356 . S
N350 H362 0.984 . S
N350 H363 0.985 . S
N351 C353 1.356 . S
N351 H356 0.984 . S
N351 H357 0.985 . S
C352 C346 1.379 . S
C352 C349 1.363 . S
C352 N350 1.356 . S
C353 C347 1.363 . S
C353 C348 1.379 . S
C353 N351 1.356 . S
N354 C346 1.356 . S
N354 H360 0.984 . S
N354 H361 0.984 . S
N355 C348 1.356 . S
N355 H358 0.984 . S
N355 H359 0.985 . S
H356 N351 0.984 . S
H357 N351 0.985 . S
H358 N355 0.984 . S
H359 N355 0.985 . S
H360 N354 0.984 . S
H361 N354 0.984 . S
H362 N350 0.984 . S
H363 N350 0.985 . S
C364 C365 1.357 1_545 S
C364 C370 1.379 . S
C364 N372 1.356 . S
C365 C364 1.357 1_565 S
C365 C371 1.364 . S
C366 C367 1.363 . S
C366 C371 1.379 1_545 S
C366 N373 1.356 . S
C367 C366 1.363 . S
C367 C370 1.363 . S
N368 C370 1.356 . S
N368 H380 0.984 . S
N368 H381 0.985 . S
N369 C371 1.356 . S
N369 H374 0.984 . S
N369 H375 0.985 . S
C370 C364 1.379 . S
C370 C367 1.363 . S
C370 N368 1.356 . S
C371 C365 1.364 . S
C371 C366 1.379 1_565 S
C371 N369 1.356 . S
N372 C364 1.356 . S
N372 H378 0.984 . S
N372 H379 0.984 . S
N373 C366 1.356 . S
N373 H376 0.984 . S
N373 H377 0.985 . S
H374 N369 0.984 . S
H375 N369 0.985 . S
H376 N373 0.984 . S
H377 N373 0.985 . S
H378 N372 0.984 . S
H379 N372 0.984 . S
H380 N368 0.984 . S
H381 N368 0.985 . S
C382 C383 1.363 . S
C382 C388 1.379 . S
C382 N390 1.356 . S
C383 C382 1.363 . S
C383 C389 1.363 . S
C384 C385 1.363 . S
C384 C389 1.379 . S
C384 N391 1.356 . S
C385 C384 1.363 . S
C385 C388 1.363 . S
N386 C388 1.356 . S
N386 H398 0.984 . S
N386 H399 0.985 . S
N387 C389 1.356 . S
N387 H392 0.984 . S
N387 H393 0.985 . S
C388 C382 1.379 . S
C388 C385 1.363 . S
C388 N386 1.356 . S
C389 C383 1.363 . S
C389 C384 1.379 . S
C389 N387 1.356 . S
N390 C382 1.356 . S
N390 H396 0.984 . S
N390 H397 0.984 . S
N391 C384 1.356 . S
N391 H394 0.984 . S
N391 H395 0.985 . S
H392 N387 0.984 . S
H393 N387 0.985 . S
H394 N391 0.984 . S
H395 N391 0.985 . S
H396 N390 0.984 . S
H397 N390 0.984 . S
H398 N386 0.984 . S
H399 N386 0.985 . S
C400 C401 1.363 . S
C400 C406 1.379 . S
C400 N408 1.356 . S
C401 C400 1.363 . S
C401 C407 1.363 . S
C402 C403 1.363 . S
C402 C407 1.379 . S
C402 N409 1.356 . S
C403 C402 1.363 . S
C403 C406 1.363 . S
N404 C406 1.356 . S
N404 H416 0.984 . S
N404 H417 0.985 . S
N405 C407 1.356 . S
N405 H410 0.984 . S
N405 H411 0.985 . S
C406 C400 1.379 . S
C406 C403 1.363 . S
C406 N404 1.356 . S
C407 C401 1.363 . S
C407 C402 1.379 . S
C407 N405 1.356 . S
N408 C400 1.356 . S
N408 H414 0.984 . S
N408 H415 0.984 . S
N409 C402 1.356 . S
N409 H412 0.984 . S
N409 H413 0.985 . S
H410 N405 0.984 . S
H411 N405 0.985 . S
H412 N409 0.984 . S
H413 N409 0.985 . S
H414 N408 0.984 . S
H415 N408 0.984 . S
H416 N404 0.984 . S
H417 N404 0.985 . S
C418 C419 1.363 . S
C418 C424 1.379 . S
C418 N426 1.356 . S
C419 C418 1.363 . S
C419 C425 1.363 . S
C420 C421 1.363 . S
C420 C425 1.379 1_655 S
C420 N427 1.356 . S
C421 C420 1.363 . S
C421 C424 1.363 1_655 S
N422 C424 1.356 . S
N422 H434 0.984 . S
N422 H435 0.985 1_455 S
N423 C425 1.356 . S
N423 H428 0.984 . S
N423 H429 0.985 . S
C424 C418 1.379 . S
C424 C421 1.363 1_455 S
C424 N422 1.356 . S
C425 C419 1.363 . S
C425 C420 1.379 1_455 S
C425 N423 1.356 . S
N426 C418 1.356 . S
N426 H432 0.984 . S
N426 H433 0.984 . S
N427 C420 1.356 . S
N427 H430 0.984 . S
N427 H431 0.985 . S
H428 N423 0.984 . S
H429 N423 0.985 . S
H430 N427 0.984 . S
H431 N427 0.985 . S
H432 N426 0.984 . S
H433 N426 0.984 . S
H434 N422 0.984 . S
H435 N422 0.985 1_655 S
C436 C437 1.363 . S
C436 C442 1.379 . S
C436 N444 1.356 . S
C437 C436 1.363 . S
C437 C443 1.363 . S
C438 C439 1.363 . S
C438 C443 1.379 . S
C438 N445 1.356 . S
C439 C438 1.363 . S
C439 C442 1.363 . S
N440 C442 1.356 . S
N440 H452 0.984 . S
N440 H453 0.985 . S
N441 C443 1.356 . S
N441 H446 0.984 . S
N441 H447 0.985 . S
C442 C436 1.379 . S
C442 C439 1.363 . S
C442 N440 1.356 . S
C443 C437 1.363 . S
C443 C438 1.379 . S
C443 N441 1.356 . S
N444 C436 1.356 . S
N444 H450 0.984 . S
N444 H451 0.984 . S
N445 C438 1.356 . S
N445 H448 0.984 . S
N445 H449 0.985 . S
H446 N441 0.984 . S
H447 N441 0.985 . S
H448 N445 0.984 . S
H449 N445 0.985 . S
H450 N444 0.984 . S
H451 N444 0.984 . S
H452 N440 0.984 . S
H453 N440 0.985 . S
C454 C455 1.363 . S
C454 C460 1.379 . S
C454 N462 1.356 1_455 S
C455 C454 1.363 . S
C455 C461 1.363 . S
C456 C457 1.363 . S
C456 C461 1.379 . S
C456 N463 1.356 . S
C457 C456 1.363 . S
C457 C460 1.363 . S
N458 C460 1.356 . S
N458 H470 0.984 . S
N458 H471 0.985 . S
N459 C461 1.356 . S
N459 H464 0.984 1_455 S
N459 H465 0.985 1_554 S
C460 C454 1.379 . S
C460 C457 1.363 . S
C460 N458 1.356 . S
C461 C455 1.363 . S
C461 C456 1.379 . S
C461 N459 1.356 . S
N462 C454 1.356 1_655 S
N462 H468 0.984 . S
N462 H469 0.984 . S
N463 C456 1.356 . S
N463 H466 0.984 . S
N463 H467 0.985 . S
H464 N459 0.984 1_655 S
H465 N459 0.985 1_556 S
H466 N463 0.984 . S
H467 N463 0.985 . S
H468 N462 0.984 . S
H469 N462 0.984 . S
H470 N458 0.984 . S
H471 N458 0.985 . S
C472 C473 1.363 . S
C472 C478 1.379 . S
C472 N480 1.356 . S
C473 C472 1.363 . S
C473 C479 1.363 . S
C474 C475 1.363 . S
C474 C479 1.379 . S
C474 N481 1.356 . S
C475 C474 1.363 . S
C475 C478 1.363 . S
N476 C478 1.356 . S
N476 H488 0.984 . S
N476 H489 0.985 . S
N477 C479 1.356 . S
N477 H482 0.984 . S
N477 H483 0.985 . S
C478 C472 1.379 . S
C478 C475 1.363 . S
C478 N476 1.356 . S
C479 C473 1.363 . S
C479 C474 1.379 . S
C479 N477 1.356 . S
N480 C472 1.356 . S
N480 H486 0.984 . S
N480 H487 0.984 . S
N481 C474 1.356 . S
N481 H484 0.984 . S
N481 H485 0.985 . S
H482 N477 0.984 . S
H483 N477 0.985 . S
H484 N481 0.984 . S
H485 N481 0.985 . S
H486 N480 0.984 . S
H487 N480 0.984 . S
H488 N476 0.984 . S
H489 N476 0.985 . S
C490 C491 1.363 . S
C490 C496 1.379 . S
C490 N498 1.356 . S
C491 C490 1.363 . S
C491 C497 1.363 . S
C492 C493 1.363 . S
C492 C497 1.379 . S
C492 N499 1.356 . S
C493 C492 1.363 . S
C493 C496 1.363 . S
N494 C496 1.356 . S
N494 H506 0.984 . S
N494 H507 0.985 . S
N495 C497 1.356 . S
N495 H500 0.984 . S
N495 H501 0.985 . S
C496 C490 1.379 . S
C496 C493 1.363 . S
C496 N494 1.356 . S
C497 C491 1.363 . S
C497 C492 1.379 . S
C497 N495 1.356 . S
N498 C490 1.356 . S
N498 H504 0.984 . S
N498 H505 0.984 . S
N499 C492 1.356 . S
N499 H502 0.984 . S
N499 H503 0.985 . S
H500 N495 0.984 . S
H501 N495 0.985 . S
H502 N499 0.984 . S
H503 N499 0.985 . S
H504 N498 0.984 . S
H505 N498 0.984 . S
H506 N494 0.984 . S
H507 N494 0.985 . S
C508 C509 1.363 . S
C508 C514 1.379 . S
C508 N516 1.356 . S
C509 C508 1.363 . S
C509 C515 1.363 . S
C510 C511 1.363 . S
C510 C515 1.379 . S
C510 N517 1.356 . S
C511 C510 1.363 . S
C511 C514 1.363 . S
N512 C514 1.356 . S
N512 H524 0.984 . S
N512 H525 0.985 . S
N513 C515 1.356 . S
N513 H518 0.984 . S
N513 H519 0.985 . S
C514 C508 1.379 . S
C514 C511 1.363 . S
C514 N512 1.356 . S
C515 C509 1.363 . S
C515 C510 1.379 . S
C515 N513 1.356 . S
N516 C508 1.356 . S
N516 H522 0.984 . S
N516 H523 0.984 . S
N517 C510 1.356 . S
N517 H520 0.984 . S
N517 H521 0.985 . S
H518 N513 0.984 . S
H519 N513 0.985 . S
H520 N517 0.984 . S
H521 N517 0.985 . S
H522 N516 0.984 . S
H523 N516 0.984 . S
H524 N512 0.984 . S
H525 N512 0.985 . S
C526 C527 1.363 . S
C526 C532 1.379 . S
C526 N534 1.356 . S
C527 C526 1.363 . S
C527 C533 1.363 . S
C528 C529 1.363 . S
C528 C533 1.379 . S
C528 N535 1.356 . S
C529 C528 1.363 . S
C529 C532 1.363 . S
N530 C532 1.356 . S
N530 H542 0.984 . S
N530 H543 0.985 . S
N531 C533 1.356 . S
N531 H536 0.984 . S
N531 H537 0.985 . S
C532 C526 1.379 . S
C532 C529 1.363 . S
C532 N530 1.356 . S
C533 C527 1.363 . S
C533 C528 1.379 . S
C533 N531 1.356 . S
N534 C526 1.356 . S
N534 H540 0.984 . S
N534 H541 0.984 . S
N535 C528 1.356 . S
N535 H538 0.984 . S
N535 H539 0.985 . S
H536 N531 0.984 . S
H537 N531 0.985 . S
H538 N535 0.984 . S
H539 N535 0.985 . S
H540 N534 0.984 . S
H541 N534 0.984 . S
H542 N530 0.984 . S
H543 N530 0.985 . S
C544 C545 1.363 . S
C544 C550 1.379 . S
C544 N552 1.356 . S
C545 C544 1.363 . S
C545 C551 1.363 . S
C546 C547 1.363 . S
C546 C551 1.379 . S
C546 N553 1.356 . S
C547 C546 1.363 . S
C547 C550 1.363 . S
N548 C550 1.356 . S
N548 H560 0.984 . S
N548 H561 0.985 . S
N549 C551 1.356 . S
N549 H554 0.984 . S
N549 H555 0.985 . S
C550 C544 1.379 . S
C550 C547 1.363 . S
C550 N548 1.356 . S
C551 C545 1.363 . S
C551 C546 1.379 . S
C551 N549 1.356 . S
N552 C544 1.356 . S
N552 H558 0.984 . S
N552 H559 0.984 . S
N553 C546 1.356 . S
N553 H556 0.984 . S
N553 H557 0.985 . S
H554 N549 0.984 . S
H555 N549 0.985 . S
H556 N553 0.984 . S
H557 N553 0.985 . S
H558 N552 0.984 . S
H559 N552 0.984 . S
H560 N548 0.984 . S
H561 N548 0.985 . S
C562 C563 1.363 . S
C562 C568 1.379 . S
C562 N570 1.356 1_556 S
C563 C562 1.363 . S
C563 C569 1.363 . S
C564 C565 1.363 . S
C564 C569 1.379 . S
C564 N571 1.356 . S
C565 C564 1.363 . S
C565 C568 1.363 . S
N566 C568 1.356 . S
N566 H578 0.984 . S
N566 H579 0.985 . S
N567 C569 1.356 . S
N567 H572 0.984 . S
N567 H573 0.985 . S
C568 C562 1.379 . S
C568 C565 1.363 . S
C568 N566 1.356 . S
C569 C563 1.363 . S
C569 C564 1.379 . S
C569 N567 1.356 . S
N570 C562 1.356 1_554 S
N570 H576 0.984 . S
N570 H577 0.984 . S
N571 C564 1.356 . S
N571 H574 0.984 . S
N571 H575 0.985 . S
H572 N567 0.984 . S
H573 N567 0.985 . S
H574 N571 0.984 . S
H575 N571 0.985 . S
H576 N570 0.984 . S
H577 N570 0.984 . S
H578 N566 0.984 . S
H579 N566 0.985 . S
C580 C581 1.363 . S
C580 C586 1.379 . S
C580 N588 1.356 . S
C581 C580 1.363 . S
C581 C587 1.363 . S
C582 C583 1.363 . S
C582 C587 1.379 . S
C582 N589 1.356 . S
C583 C582 1.363 . S
C583 C586 1.363 . S
N584 C586 1.356 . S
N584 H596 0.984 . S
N584 H597 0.985 . S
N585 C587 1.356 . S
N585 H590 0.984 . S
N585 H591 0.985 . S
C586 C580 1.379 . S
C586 C583 1.363 . S
C586 N584 1.356 . S
C587 C581 1.363 . S
C587 C582 1.379 . S
C587 N585 1.356 . S
N588 C580 1.356 . S
N588 H594 0.984 . S
N588 H595 0.984 . S
N589 C582 1.356 . S
N589 H592 0.984 . S
N589 H593 0.985 . S
H590 N585 0.984 . S
H591 N585 0.985 . S
H592 N589 0.984 . S
H593 N589 0.985 . S
H594 N588 0.984 . S
H595 N588 0.984 . S
H596 N584 0.984 . S
H597 N584 0.985 . S
C598 C599 1.363 . S
C598 C604 1.379 . S
C598 N606 1.356 . S
C599 C598 1.363 . S
C599 C605 1.363 . S
C600 C601 1.363 . S
C600 C605 1.379 . S
C600 N607 1.356 . S
C601 C600 1.363 . S
C601 C604 1.363 . S
N602 C604 1.356 . S
N602 H614 0.984 . S
N602 H615 0.985 . S
N603 C605 1.356 . S
N603 H608 0.984 . S
N603 H609 0.985 . S
C604 C598 1.379 . S
C604 C601 1.363 . S
C604 N602 1.356 . S
C605 C599 1.363 . S
C605 C600 1.379 . S
C605 N603 1.356 . S
N606 C598 1.356 . S
N606 H612 0.984 . S
N606 H613 0.984 . S
N607 C600 1.356 . S
N607 H610 0.984 . S
N607 H611 0.985 . S
H608 N603 0.984 . S
H609 N603 0.985 . S
H610 N607 0.984 . S
H611 N607 0.985 . S
H612 N606 0.984 . S
H613 N606 0.984 . S
H614 N602 0.984 . S
H615 N602 0.985 . S
C185 C7 1.458 1_545 S
C187 C97 1.386 . S
C203 C37 1.475 . S
C205 C109 1.448 . S
C221 C54 1.421 . S
C223 C121 1.370 . S
C241 C130 1.343 . S
C239 C87 1.392 . S
C259 C145 1.355 . S
C257 C30 1.439 . S
C275 C51 1.394 . S
C277 C154 1.344 . S
C293 C84 1.422 . S
C295 C169 1.373 . S
C311 C10 1.481 1_655 S
C313 C181 1.436 . S
C329 C59 1.363 . S
C331 C178 1.344 . S
C349 C142 1.328 . S
C347 C74 1.331 . S
C367 C157 1.387 . S
C365 C18 1.425 . S
C383 C32 1.375 . S
C385 C166 1.308 . S
C403 C106 1.314 . S
C401 C73 1.331 . S
C419 C15 1.401 . S
C421 C118 1.335 . S
C439 C133 1.416 . S
C437 C43 1.443 . S
C457 C94 1.322 . S
C455 C62 1.325 1_455 S
C475 C164 1.407 . S
C473 C21 1.418 . S
C493 C176 1.441 . S
C491 C29 1.470 . S
C509 C52 1.448 . S
C511 C140 1.430 . S
C529 C152 1.406 . S
C527 C81 1.430 . S
C547 C116 1.412 . S
C545 C40 1.435 . S
C563 C65 1.430 . S
C565 C128 1.407 . S
C583 C92 1.435 . S
C581 C76 1.454 . S
C601 C104 1.421 . S
C599 C8 1.444 . S
