# Generated by pormake.
# Topology apo, (3,6)-cn, num edge types: 1
# Building blocks:
#     Node 0, Type 0, BuildingBlock: MIDCAF_clean_linker_0, # of connection points: 3
#     Node 1, Type 0, BuildingBlock: MIDCAF_clean_linker_0, # of connection points: 3
#     Node 2, Type 0, BuildingBlock: MIDCAF_clean_linker_0, # of connection points: 3
#     Node 3, Type 0, BuildingBlock: MIDCAF_clean_linker_0, # of connection points: 3
#     Node 4, Type 0, BuildingBlock: MIDCAF_clean_linker_0, # of connection points: 3
#     Node 5, Type 0, BuildingBlock: MIDCAF_clean_linker_0, # of connection points: 3
#     Node 6, Type 0, BuildingBlock: MIDCAF_clean_linker_0, # of connection points: 3
#     Node 7, Type 0, BuildingBlock: MIDCAF_clean_linker_0, # of connection points: 3
#     Node 8, Type 1, BuildingBlock: KUMJIN_clean_sbu_1, # of connection points: 6
#     Node 9, Type 1, BuildingBlock: KUMJIN_clean_sbu_1, # of connection points: 6
#     Node 10, Type 1, BuildingBlock: KUMJIN_clean_sbu_1, # of connection points: 6
#     Node 11, Type 1, BuildingBlock: KUMJIN_clean_sbu_1, # of connection points: 6
#     Edge 12, Type (0, 1), BuildingBlock: MIFKUJ_clean_linker_0, # of connection points: 2
#     Edge 13, Type (0, 1), BuildingBlock: MIFKUJ_clean_linker_0, # of connection points: 2
#     Edge 14, Type (0, 1), BuildingBlock: MIFKUJ_clean_linker_0, # of connection points: 2
#     Edge 15, Type (0, 1), BuildingBlock: MIFKUJ_clean_linker_0, # of connection points: 2
#     Edge 16, Type (0, 1), BuildingBlock: MIFKUJ_clean_linker_0, # of connection points: 2
#     Edge 17, Type (0, 1), BuildingBlock: MIFKUJ_clean_linker_0, # of connection points: 2
#     Edge 18, Type (0, 1), BuildingBlock: MIFKUJ_clean_linker_0, # of connection points: 2
#     Edge 19, Type (0, 1), BuildingBlock: MIFKUJ_clean_linker_0, # of connection points: 2
#     Edge 20, Type (0, 1), BuildingBlock: MIFKUJ_clean_linker_0, # of connection points: 2
#     Edge 21, Type (0, 1), BuildingBlock: MIFKUJ_clean_linker_0, # of connection points: 2
#     Edge 22, Type (0, 1), BuildingBlock: MIFKUJ_clean_linker_0, # of connection points: 2
#     Edge 23, Type (0, 1), BuildingBlock: MIFKUJ_clean_linker_0, # of connection points: 2
#     Edge 24, Type (0, 1), BuildingBlock: MIFKUJ_clean_linker_0, # of connection points: 2
#     Edge 25, Type (0, 1), BuildingBlock: MIFKUJ_clean_linker_0, # of connection points: 2
#     Edge 26, Type (0, 1), BuildingBlock: MIFKUJ_clean_linker_0, # of connection points: 2
#     Edge 27, Type (0, 1), BuildingBlock: MIFKUJ_clean_linker_0, # of connection points: 2
#     Edge 28, Type (0, 1), BuildingBlock: MIFKUJ_clean_linker_0, # of connection points: 2
#     Edge 29, Type (0, 1), BuildingBlock: MIFKUJ_clean_linker_0, # of connection points: 2
#     Edge 30, Type (0, 1), BuildingBlock: MIFKUJ_clean_linker_0, # of connection points: 2
#     Edge 31, Type (0, 1), BuildingBlock: MIFKUJ_clean_linker_0, # of connection points: 2
#     Edge 32, Type (0, 1), BuildingBlock: MIFKUJ_clean_linker_0, # of connection points: 2
#     Edge 33, Type (0, 1), BuildingBlock: MIFKUJ_clean_linker_0, # of connection points: 2
#     Edge 34, Type (0, 1), BuildingBlock: MIFKUJ_clean_linker_0, # of connection points: 2
#     Edge 35, Type (0, 1), BuildingBlock: MIFKUJ_clean_linker_0, # of connection points: 2
# Relax obj value: 0.010
# Max RMSD: 0.083
# Mean RMSD: 0.068
data_MOF--net-apo--node1-KUMJIN_clean_sbu_1--node2-MIDCAF_clean_linker_0--edge1-MIFKUJ_clean_linker_0
_symmetry_space_group_name_H-M    P1
_symmetry_Int_Tables_number       1
_symmetry_cell_setting            triclinic
loop_
_symmetry_equiv_pos_as_xyz
'x, y, z'
_cell_length_a     35.904488
_cell_length_b     65.253393
_cell_length_c     77.986468
_cell_angle_alpha  90.006473
_cell_angle_beta   90.004836
_cell_angle_gamma 90.283331
loop_
_atom_site_label
_atom_site_type_symbol
_atom_site_fract_x
_atom_site_fract_y
_atom_site_fract_z
_atom_type_partial_charge
C0 C 0.31973 0.39331 0.47431 0.0
C1 C 0.3053 0.37741 0.48457 0.0
C2 C 0.28086 0.3631 0.47697 0.0
C3 C 0.27145 0.36457 0.45958 0.0
H4 H 0.23122 0.32965 0.41711 0.0
H5 H 0.20084 0.30221 0.40093 0.0
H6 H 0.18767 0.34317 0.35783 0.0
H7 H 0.21889 0.37014 0.37362 0.0
H8 H 0.26388 0.40964 0.37133 0.0
H9 H 0.28601 0.43855 0.35449 0.0
H10 H 0.34586 0.46174 0.39848 0.0
H11 H 0.32335 0.43286 0.41555 0.0
H12 H 0.32207 0.4073 0.4496 0.0
H13 H 0.3392 0.40439 0.47952 0.0
H14 H 0.26872 0.35081 0.48447 0.0
H15 H 0.25264 0.35326 0.45418 0.0
N16 N 0.25695 0.36699 0.42279 0.0
N17 N 0.25975 0.3855 0.39705 0.0
N18 N 0.28758 0.39888 0.42177 0.0
C19 C 0.24846 0.36861 0.40583 0.0
C20 C 0.27928 0.4007 0.40485 0.0
C21 C 0.27646 0.38214 0.43087 0.0
C22 C 0.22791 0.35209 0.39665 0.0
C23 C 0.22175 0.33279 0.40419 0.0
C24 C 0.20414 0.31706 0.39492 0.0
C25 C 0.19212 0.32033 0.37795 0.0
C26 C 0.19736 0.33985 0.37067 0.0
C27 C 0.21512 0.35544 0.37984 0.0
C28 C 0.29193 0.41879 0.39483 0.0
C29 C 0.28167 0.42088 0.3775 0.0
C30 C 0.29447 0.43744 0.36779 0.0
C31 C 0.31785 0.45237 0.37512 0.0
C32 C 0.32759 0.45057 0.39251 0.0
C33 C 0.31481 0.43395 0.40226 0.0
C34 C 0.28602 0.38048 0.44937 0.0
C35 C 0.3101 0.39488 0.45701 0.0
C36 C 0.19811 0.10227 0.97529 0.0
C37 C 0.20159 0.12087 0.98424 0.0
C38 C 0.21651 0.138 0.97563 0.0
C39 C 0.22703 0.13663 0.95839 0.0
H40 H 0.28541 0.16702 0.91933 0.0
H41 H 0.31901 0.19431 0.90436 0.0
H42 H 0.31494 0.15907 0.85754 0.0
H43 H 0.28183 0.13179 0.87234 0.0
H44 H 0.25686 0.08429 0.87438 0.0
H45 H 0.23582 0.05468 0.85803 0.0
H46 H 0.15061 0.04291 0.89605 0.0
H47 H 0.17302 0.07183 0.91278 0.0
H48 H 0.20494 0.08637 0.95159 0.0
H49 H 0.18749 0.08866 0.98159 0.0
H50 H 0.2192 0.15264 0.98206 0.0
H51 H 0.23787 0.15019 0.95209 0.0
N52 N 0.25145 0.13198 0.9229 0.0
N53 N 0.24887 0.11368 0.89702 0.0
N54 N 0.22101 0.10011 0.92169 0.0
C55 C 0.26 0.13053 0.90594 0.0
C56 C 0.22931 0.09846 0.90479 0.0
C57 C 0.23209 0.11674 0.93088 0.0
C58 C 0.28087 0.14714 0.89709 0.0
C59 C 0.29176 0.16504 0.90586 0.0
C60 C 0.31091 0.18072 0.89728 0.0
C61 C 0.31975 0.17878 0.8798 0.0
C62 C 0.30906 0.16087 0.87108 0.0
C63 C 0.28983 0.14527 0.87959 0.0
C64 C 0.21664 0.0804 0.89488 0.0
C65 C 0.23374 0.0753 0.87927 0.0
C66 C 0.22148 0.05837 0.86984 0.0
C67 C 0.19137 0.04633 0.87564 0.0
C68 C 0.17434 0.05149 0.8913 0.0
C69 C 0.18703 0.06821 0.90087 0.0
C70 C 0.22261 0.11815 0.94935 0.0
C71 C 0.20833 0.10094 0.95806 0.0
C72 C 0.82295 0.1066 0.52832 0.0
C73 C 0.8095 0.12248 0.51789 0.0
C74 C 0.78636 0.13743 0.52531 0.0
C75 C 0.777 0.13649 0.54273 0.0
H76 H 0.70617 0.16176 0.58427 0.0
H77 H 0.67169 0.1873 0.60067 0.0
H78 H 0.72903 0.16822 0.64677 0.0
H79 H 0.76114 0.14216 0.63067 0.0
H80 H 0.76755 0.09125 0.63087 0.0
H81 H 0.79012 0.06234 0.64756 0.0
H82 H 0.85329 0.04133 0.6039 0.0
H83 H 0.83112 0.07033 0.58714 0.0
H84 H 0.82467 0.09312 0.55316 0.0
H85 H 0.84147 0.09507 0.52321 0.0
H86 H 0.77517 0.14977 0.51762 0.0
H87 H 0.75916 0.14823 0.54803 0.0
N88 N 0.76236 0.13458 0.57971 0.0
N89 N 0.7667 0.11654 0.60568 0.0
N90 N 0.79235 0.10269 0.58077 0.0
C91 C 0.75527 0.13326 0.59684 0.0
C92 C 0.78507 0.10117 0.59776 0.0
C93 C 0.78115 0.11926 0.57161 0.0
C94 C 0.73604 0.14982 0.60619 0.0
C95 C 0.71122 0.16311 0.59792 0.0
C96 C 0.6916 0.17781 0.60735 0.0
C97 C 0.69702 0.17979 0.62519 0.0
C98 C 0.7229 0.16684 0.63323 0.0
C99 C 0.74176 0.15195 0.62392 0.0
C100 C 0.79767 0.08319 0.60767 0.0
C101 C 0.78619 0.08048 0.62477 0.0
C102 C 0.79889 0.06385 0.63432 0.0
C103 C 0.82348 0.04968 0.62701 0.0
C104 C 0.83463 0.0522 0.60988 0.0
C105 C 0.82176 0.06875 0.60028 0.0
C106 C 0.79044 0.12053 0.5531 0.0
C107 C 0.81346 0.10559 0.54563 0.0
C108 C 0.68695 0.39172 0.02934 0.0
C109 C 0.69614 0.37452 0.01945 0.0
C110 C 0.71697 0.35871 0.02701 0.0
C111 C 0.72763 0.3599 0.04427 0.0
H112 H 0.78456 0.32921 0.0846 0.0
H113 H 0.81832 0.30254 0.10012 0.0
H114 H 0.8066 0.33695 0.14709 0.0
H115 H 0.77362 0.36357 0.13177 0.0
H116 H 0.74764 0.4097 0.13043 0.0
H117 H 0.72501 0.4392 0.14666 0.0
H118 H 0.64912 0.45383 0.10564 0.0
H119 H 0.67193 0.42465 0.08914 0.0
H120 H 0.68987 0.40652 0.05362 0.0
H121 H 0.67153 0.40431 0.02379 0.0
H122 H 0.72433 0.34523 0.01966 0.0
H123 H 0.74317 0.34736 0.04981 0.0
N124 N 0.74734 0.36337 0.08073 0.0
N125 N 0.74421 0.38177 0.10657 0.0
N126 N 0.71654 0.39497 0.08184 0.0
C127 C 0.75564 0.36499 0.09774 0.0
C128 C 0.72464 0.3968 0.09872 0.0
C129 C 0.72779 0.37843 0.07269 0.0
C130 C 0.7764 0.34863 0.10687 0.0
C131 C 0.78929 0.33112 0.09823 0.0
C132 C 0.80851 0.31579 0.10712 0.0
C133 C 0.81536 0.3177 0.12482 0.0
C134 C 0.80244 0.33518 0.13341 0.0
C135 C 0.78326 0.35042 0.12458 0.0
C136 C 0.71158 0.4148 0.10849 0.0
C137 C 0.72626 0.41923 0.12481 0.0
C138 C 0.71351 0.43612 0.13407 0.0
C139 C 0.68548 0.44861 0.1273 0.0
C140 C 0.67074 0.44428 0.11105 0.0
C141 C 0.6839 0.42763 0.10165 0.0
C142 C 0.71786 0.37702 0.05425 0.0
C143 C 0.6977 0.39298 0.04648 0.0
C144 C 0.69645 0.60178 0.52721 0.0
C145 C 0.70721 0.61873 0.51726 0.0
C146 C 0.73091 0.63359 0.52456 0.0
C147 C 0.74271 0.63181 0.54162 0.0
H148 H 0.80008 0.66267 0.58223 0.0
H149 H 0.83045 0.6903 0.59821 0.0
H150 H 0.80852 0.65808 0.6456 0.0
H151 H 0.77982 0.63041 0.62978 0.0
H152 H 0.7431 0.5888 0.63078 0.0
H153 H 0.7165 0.5608 0.64739 0.0
H154 H 0.6744 0.53311 0.60092 0.0
H155 H 0.70142 0.56098 0.58416 0.0
H156 H 0.69896 0.58674 0.55142 0.0
H157 H 0.67873 0.5899 0.52189 0.0
H158 H 0.73953 0.64688 0.51723 0.0
H159 H 0.7604 0.64369 0.54695 0.0
N160 N 0.76059 0.62877 0.57821 0.0
N161 N 0.75692 0.61047 0.60407 0.0
N162 N 0.73069 0.5967 0.57918 0.0
C163 C 0.76834 0.62734 0.59528 0.0
C164 C 0.73821 0.59507 0.59614 0.0
C165 C 0.74173 0.6134 0.57007 0.0
C166 C 0.7875 0.64422 0.60465 0.0
C167 C 0.80199 0.66145 0.59605 0.0
C168 C 0.81922 0.67737 0.60524 0.0
C169 C 0.82216 0.67647 0.62325 0.0
C170 C 0.80763 0.65921 0.63175 0.0
C171 C 0.79079 0.64331 0.62261 0.0
C172 C 0.72419 0.57729 0.60611 0.0
C173 C 0.72842 0.57671 0.62403 0.0
C174 C 0.71297 0.56071 0.63359 0.0
C175 C 0.69302 0.54488 0.62548 0.0
C176 C 0.68976 0.54506 0.60753 0.0
C177 C 0.70512 0.56111 0.59795 0.0
C178 C 0.73122 0.61505 0.55169 0.0
C179 C 0.70832 0.59994 0.54417 0.0
C180 C 0.81279 0.89654 0.02731 0.0
C181 C 0.80197 0.87965 0.01729 0.0
C182 C 0.77847 0.8647 0.02461 0.0
C183 C 0.76687 0.86637 0.04172 0.0
H184 H 0.72872 0.83135 0.08515 0.0
H185 H 0.69924 0.80375 0.10141 0.0
H186 H 0.67141 0.84678 0.14152 0.0
H187 H 0.70218 0.87397 0.12569 0.0
H188 H 0.75804 0.91274 0.13011 0.0
H189 H 0.78307 0.94191 0.14623 0.0
H190 H 0.83811 0.96401 0.10067 0.0
H191 H 0.81293 0.93524 0.08437 0.0
H192 H 0.81047 0.91145 0.05159 0.0
H193 H 0.83032 0.90851 0.02199 0.0
H194 H 0.76979 0.85144 0.01726 0.0
H195 H 0.74924 0.85445 0.04703 0.0
N196 N 0.74787 0.86968 0.07821 0.0
N197 N 0.74999 0.88839 0.10396 0.0
N198 N 0.77841 0.90151 0.07929 0.0
C199 C 0.73885 0.87144 0.09512 0.0
C200 C 0.76985 0.90348 0.09614 0.0
C201 C 0.76755 0.88479 0.07018 0.0
C202 C 0.71826 0.85486 0.10418 0.0
C203 C 0.71616 0.8349 0.09741 0.0
C204 C 0.69903 0.81907 0.10673 0.0
C205 C 0.68323 0.82286 0.12296 0.0
C206 C 0.68414 0.84303 0.12934 0.0
C207 C 0.70163 0.85874 0.12017 0.0
C208 C 0.78347 0.92155 0.10592 0.0
C209 C 0.77515 0.92389 0.12345 0.0
C210 C 0.78934 0.94059 0.13269 0.0
C211 C 0.81243 0.95508 0.12462 0.0
C212 C 0.82049 0.95292 0.10714 0.0
C213 C 0.80598 0.93643 0.09785 0.0
C214 C 0.77838 0.88309 0.05184 0.0
C215 C 0.80115 0.89825 0.04431 0.0
C216 C 0.19118 0.89326 0.47366 0.0
C217 C 0.20091 0.87622 0.48364 0.0
C218 C 0.22364 0.861 0.47638 0.0
C219 C 0.23559 0.86259 0.45932 0.0
H220 H 0.27156 0.82752 0.41457 0.0
H221 H 0.29968 0.80047 0.39761 0.0
H222 H 0.33576 0.84566 0.36035 0.0
H223 H 0.30501 0.87206 0.37657 0.0
H224 H 0.24622 0.90897 0.37122 0.0
H225 H 0.22251 0.93817 0.3551 0.0
H226 H 0.16912 0.96112 0.40075 0.0
H227 H 0.19271 0.93208 0.41702 0.0
H228 H 0.19471 0.90825 0.4495 0.0
H229 H 0.17433 0.90543 0.47897 0.0
H230 H 0.23152 0.84765 0.48376 0.0
H231 H 0.25264 0.8505 0.45401 0.0
N232 N 0.25585 0.8662 0.42292 0.0
N233 N 0.25429 0.88516 0.39731 0.0
N234 N 0.22575 0.898 0.42194 0.0
C235 C 0.26511 0.86819 0.40605 0.0
C236 C 0.23453 0.9001 0.40516 0.0
C237 C 0.23628 0.88124 0.43097 0.0
C238 C 0.28558 0.85189 0.39683 0.0
C239 C 0.28554 0.83157 0.40273 0.0
C240 C 0.30203 0.81604 0.39297 0.0
C241 C 0.31983 0.82052 0.37726 0.0
C242 C 0.32129 0.84115 0.37192 0.0
C243 C 0.30396 0.8565 0.3814 0.0
C244 C 0.22141 0.91814 0.39543 0.0
C245 C 0.22968 0.92028 0.37789 0.0
C246 C 0.21625 0.93701 0.36866 0.0
C247 C 0.19412 0.9518 0.37675 0.0
C248 C 0.18596 0.94979 0.39424 0.0
C249 C 0.1996 0.93317 0.40353 0.0
C250 C 0.22517 0.87949 0.44924 0.0
C251 C 0.20315 0.89489 0.45673 0.0
C252 C 0.31326 0.60356 0.97425 0.0
C253 C 0.30652 0.62143 0.98373 0.0
C254 C 0.28796 0.63781 0.97579 0.0
C255 C 0.27646 0.63632 0.95865 0.0
H256 H 0.22305 0.66812 0.91804 0.0
H257 H 0.19129 0.6953 0.90221 0.0
H258 H 0.19098 0.65745 0.85678 0.0
H259 H 0.22176 0.63037 0.87243 0.0
H260 H 0.2739 0.59333 0.86984 0.0
H261 H 0.29843 0.56494 0.85326 0.0
H262 H 0.3312 0.53448 0.90005 0.0
H263 H 0.30755 0.56319 0.91671 0.0
H264 H 0.30827 0.58812 0.95028 0.0
H265 H 0.32787 0.59078 0.97997 0.0
H266 H 0.28215 0.65172 0.98287 0.0
H267 H 0.26228 0.64921 0.95289 0.0
N268 N 0.254 0.63211 0.92268 0.0
N269 N 0.25655 0.6137 0.89686 0.0
N270 N 0.28386 0.60019 0.92156 0.0
C271 C 0.24544 0.63052 0.9057 0.0
C272 C 0.27571 0.59847 0.90465 0.0
C273 C 0.27319 0.61689 0.9307 0.0
C274 C 0.2251 0.64701 0.89656 0.0
C275 C 0.21599 0.66556 0.9047 0.0
C276 C 0.19797 0.68118 0.89562 0.0
C277 C 0.18852 0.67852 0.87824 0.0
C278 C 0.19729 0.65991 0.87021 0.0
C279 C 0.21528 0.64439 0.87922 0.0
C280 C 0.28887 0.58062 0.89463 0.0
C281 C 0.28614 0.58056 0.87665 0.0
C282 C 0.30006 0.5642 0.86711 0.0
C283 C 0.31684 0.54744 0.87531 0.0
C284 C 0.31897 0.54731 0.89332 0.0
C285 C 0.30522 0.56374 0.90287 0.0
C286 C 0.28369 0.61849 0.94909 0.0
C287 C 0.30211 0.60212 0.95716 0.0
Eu288 Eu 0.04649 0.13697 0.23525 0.0
C289 C 0.87572 0.12334 0.25499 0.0
N290 N 0.89778 0.14034 0.25541 0.0
C291 C 0.85038 0.15965 0.24116 0.0
C292 C 0.84052 0.1237 0.24695 0.0
C293 C 0.88498 0.15857 0.24929 0.0
C294 C 0.82821 0.1421 0.23978 0.0
C295 C 0.86531 0.08793 0.26328 0.0
C296 C 0.888 0.10565 0.26303 0.0
C297 C 0.83093 0.08799 0.2547 0.0
C298 C 0.81852 0.10585 0.24659 0.0
Eu299 Eu 0.95651 0.1368 0.26884 0.0
N300 N 0.92126 0.1061 0.27134 0.0
C301 C 0.87724 0.07091 0.27268 0.0
C302 C 0.931 0.09035 0.28189 0.0
C303 C 0.90985 0.07231 0.28235 0.0
H304 H 0.90102 0.17246 0.25088 0.0
H305 H 0.91824 0.05971 0.29048 0.0
H306 H 0.11217 0.10244 0.2471 0.0
H307 H 0.06657 0.21683 0.21658 0.0
H308 H 0.95415 0.09201 0.29053 0.0
H309 H 0.86063 0.05702 0.27321 0.0
H310 H 0.03331 0.18359 0.21859 0.0
H311 H 0.84075 0.17405 0.23611 0.0
H312 H 0.81328 0.07447 0.25466 0.0
H313 H 0.79154 0.10581 0.24037 0.0
H314 H 0.1771 0.10239 0.25718 0.0
H315 H 0.80131 0.14306 0.23354 0.0
H316 H 0.13012 0.22035 0.22855 0.0
N317 N 0.10922 0.13498 0.24488 0.0
C318 C 0.12886 0.15283 0.24484 0.0
C319 C 0.16375 0.11674 0.254 0.0
C320 C 0.16642 0.15342 0.25021 0.0
C321 C 0.12673 0.1169 0.24849 0.0
C322 C 0.18351 0.13513 0.25517 0.0
N323 N 0.07668 0.16903 0.23239 0.0
C324 C 0.06071 0.18518 0.2241 0.0
C325 C 0.1325 0.18885 0.23722 0.0
C326 C 0.11224 0.17032 0.2383 0.0
C327 C 0.11549 0.20584 0.22961 0.0
C328 C 0.0796 0.20392 0.22285 0.0
H329 H 0.21231 0.13494 0.25931 0.0
H330 H 0.21491 0.1728 0.25404 0.0
H331 H 0.18513 0.20386 0.24277 0.0
O332 O 0.04609 0.14046 0.20665 0.0
O333 O 0.0418 0.16365 0.25383 0.0
O334 O 0.01471 0.14722 0.27656 0.0
O335 O 0.07893 0.11695 0.21939 0.0
O336 O 0.99048 0.14997 0.2274 0.0
O337 O 0.96744 0.16486 0.25209 0.0
O338 O 0.943 0.13173 0.29605 0.0
O339 O 0.94924 0.12159 0.24279 0.0
O340 O 0.00806 0.10937 0.23794 0.0
O341 O 0.92916 0.16083 0.28377 0.0
O342 O 0.99935 0.11244 0.27484 0.0
O343 O 0.05327 0.11558 0.25801 0.0
C344 C 0.03312 0.16288 0.27018 0.0
C345 C 0.08492 0.11733 0.18878 0.0
C346 C 0.09619 0.11906 0.15797 0.0
C347 C 0.11761 0.10118 0.15905 0.0
C348 C 0.10665 0.09941 0.18944 0.0
C349 C 0.12282 0.09146 0.17469 0.0
C350 C 0.07978 0.12726 0.17288 0.0
C351 C 0.97218 0.16461 0.23531 0.0
C352 C 0.0698 0.12551 0.20503 0.0
C353 C 0.18618 0.17204 0.24982 0.0
C354 C 0.16924 0.18972 0.24336 0.0
C355 C 0.97207 0.109 0.23494 0.0
C356 C 0.91107 0.15702 0.31376 0.0
C357 C 0.90263 0.15535 0.3449 0.0
C358 C 0.87601 0.17101 0.34365 0.0
C359 C 0.88454 0.17271 0.31299 0.0
C360 C 0.91981 0.14809 0.32981 0.0
C361 C 0.867 0.17953 0.32783 0.0
C362 C 0.03371 0.10739 0.27062 0.0
C363 C 0.92766 0.1496 0.29759 0.0
H364 H 0.13056 0.09481 0.1477 0.0
H365 H 0.11146 0.09148 0.20143 0.0
H366 H 0.1396 0.07775 0.1754 0.0
H367 H 0.0636 0.14121 0.17211 0.0
H368 H 0.8618 0.17654 0.35499 0.0
H369 H 0.87681 0.17949 0.30083 0.0
H370 H 0.94005 0.13585 0.33059 0.0
H371 H 0.84621 0.19145 0.32708 0.0
Eu372 Eu 0.46043 0.36297 0.73568 0.0
C373 C 0.63163 0.37407 0.75806 0.0
N374 N 0.61012 0.3569 0.75703 0.0
C375 C 0.66189 0.33766 0.7464 0.0
C376 C 0.66967 0.37348 0.75358 0.0
C377 C 0.62466 0.33878 0.75152 0.0
C378 C 0.68455 0.35506 0.7475 0.0
C379 C 0.63789 0.41003 0.76569 0.0
C380 C 0.61568 0.39229 0.7638 0.0
C381 C 0.67608 0.40919 0.76195 0.0
C382 C 0.69179 0.3911 0.75563 0.0
Eu383 Eu 0.54918 0.3602 0.76773 0.0
N384 N 0.57871 0.39259 0.76775 0.0
C385 C 0.62124 0.42802 0.77165 0.0
C386 C 0.5627 0.40992 0.77406 0.0
C387 C 0.58346 0.42797 0.7758 0.0
H388 H 0.608 0.32502 0.75164 0.0
H389 H 0.57051 0.44168 0.78078 0.0
H390 H 0.39841 0.3961 0.75179 0.0
H391 H 0.44564 0.281 0.72204 0.0
H392 H 0.53437 0.40985 0.77831 0.0
H393 H 0.63739 0.44194 0.77335 0.0
H394 H 0.47849 0.31394 0.72378 0.0
H395 H 0.67331 0.32327 0.742 0.0
H396 H 0.69378 0.42246 0.76395 0.0
H397 H 0.72123 0.39083 0.75258 0.0
H398 H 0.33282 0.39631 0.76111 0.0
H399 H 0.7136 0.35405 0.74384 0.0
H400 H 0.37936 0.27866 0.73042 0.0
N401 N 0.39917 0.36429 0.74647 0.0
C402 C 0.37912 0.34663 0.74537 0.0
C403 C 0.34556 0.38219 0.75688 0.0
C404 C 0.34108 0.34618 0.74995 0.0
C405 C 0.38297 0.38197 0.75195 0.0
C406 C 0.32449 0.3642 0.75587 0.0
N407 N 0.43324 0.32985 0.73502 0.0
C408 C 0.45055 0.31302 0.72849 0.0
C409 C 0.376 0.31058 0.73781 0.0
C410 C 0.39653 0.32897 0.73945 0.0
C411 C 0.39415 0.29309 0.73179 0.0
C412 C 0.43159 0.29433 0.72712 0.0
H413 H 0.29534 0.36447 0.75946 0.0
H414 H 0.29121 0.32742 0.75124 0.0
H415 H 0.3214 0.29655 0.74 0.0
O416 O 0.45721 0.35865 0.70726 0.0
O417 O 0.45279 0.3465 0.76132 0.0
O418 O 0.51067 0.33276 0.76651 0.0
O419 O 0.42319 0.38134 0.72051 0.0
O420 O 0.51377 0.34816 0.72611 0.0
O421 O 0.54055 0.33319 0.74995 0.0
O422 O 0.54735 0.3645 0.79586 0.0
O423 O 0.55766 0.37725 0.74257 0.0
O424 O 0.49958 0.39024 0.7366 0.0
O425 O 0.58925 0.34512 0.78425 0.0
O426 O 0.49665 0.37626 0.77698 0.0
O427 O 0.46801 0.39027 0.75316 0.0
C428 C 0.47455 0.33319 0.76903 0.0
C429 C 0.4122 0.37902 0.69011 0.0
C430 C 0.40405 0.37944 0.65896 0.0
C431 C 0.373 0.39222 0.66101 0.0
C432 C 0.38093 0.39183 0.69165 0.0
C433 C 0.36155 0.39831 0.67722 0.0
C434 C 0.42361 0.37259 0.67359 0.0
C435 C 0.53608 0.33463 0.73323 0.0
C436 C 0.43144 0.37262 0.70606 0.0
C437 C 0.32059 0.32796 0.74809 0.0
C438 C 0.3379 0.3103 0.74185 0.0
C439 C 0.5357 0.38981 0.73425 0.0
C440 C 0.58213 0.3419 0.81457 0.0
C441 C 0.5977 0.34292 0.84511 0.0
C442 C 0.6061 0.32196 0.84449 0.0
C443 C 0.59019 0.32084 0.81436 0.0
C444 C 0.58533 0.35285 0.83013 0.0
C445 C 0.60202 0.31098 0.82926 0.0
C446 C 0.47476 0.38991 0.76975 0.0
C447 C 0.57675 0.35322 0.79835 0.0
H448 H 0.35743 0.39746 0.64995 0.0
H449 H 0.37115 0.39687 0.70408 0.0
H450 H 0.33752 0.40812 0.67861 0.0
H451 H 0.44752 0.36267 0.67211 0.0
H452 H 0.61617 0.31412 0.85582 0.0
H453 H 0.58858 0.31213 0.80255 0.0
H454 H 0.58016 0.3692 0.83039 0.0
H455 H 0.60893 0.29485 0.82891 0.0
Eu456 Eu 0.05224 0.86049 0.73456 0.0
C457 C 0.87958 0.84515 0.75738 0.0
N458 N 0.89781 0.86336 0.75849 0.0
C459 C 0.84193 0.88122 0.7509 0.0
C460 C 0.84174 0.84425 0.75252 0.0
C461 C 0.87932 0.88131 0.75587 0.0
C462 C 0.82312 0.86259 0.74903 0.0
C463 C 0.87977 0.80833 0.76155 0.0
C464 C 0.89841 0.82741 0.76181 0.0
C465 C 0.84244 0.80729 0.7562 0.0
C466 C 0.82348 0.82521 0.75169 0.0
Eu467 Eu 0.96132 0.86214 0.76646 0.0
N468 N 0.9345 0.82891 0.76701 0.0
C469 C 0.89888 0.79094 0.76716 0.0
C470 C 0.95221 0.8123 0.77362 0.0
C471 C 0.93507 0.79301 0.77349 0.0
H472 H 0.89339 0.8958 0.75782 0.0
H473 H 0.94954 0.77982 0.77857 0.0
H474 H 0.1083 0.82398 0.75109 0.0
H475 H 0.07834 0.94149 0.72239 0.0
H476 H 0.97894 0.81398 0.77954 0.0
H477 H 0.88552 0.77602 0.76722 0.0
H478 H 0.03958 0.91047 0.72584 0.0
H479 H 0.82758 0.89552 0.74865 0.0
H480 H 0.82775 0.79275 0.75584 0.0
H481 H 0.79448 0.82422 0.74791 0.0
H482 H 0.17252 0.82131 0.76202 0.0
H483 H 0.79406 0.86255 0.74528 0.0
H484 H 0.1446 0.94086 0.73112 0.0
N485 N 0.11212 0.85602 0.74629 0.0
C486 C 0.13442 0.87296 0.74599 0.0
C487 C 0.16206 0.83594 0.75766 0.0
C488 C 0.17175 0.87192 0.75153 0.0
C489 C 0.12545 0.83758 0.75174 0.0
C490 C 0.18531 0.85317 0.75756 0.0
N491 N 0.08343 0.89226 0.73539 0.0
C492 C 0.06847 0.90987 0.72913 0.0
C493 C 0.14293 0.90898 0.73889 0.0
C494 C 0.11999 0.89142 0.73998 0.0
C495 C 0.1278 0.9271 0.7323 0.0
C496 C 0.09042 0.92752 0.72733 0.0
H497 H 0.21381 0.85178 0.76196 0.0
H498 H 0.22322 0.88895 0.75486 0.0
H499 H 0.19815 0.92127 0.74361 0.0
O500 O 0.05083 0.86548 0.70658 0.0
O501 O 0.05803 0.87896 0.75924 0.0
O502 O 0.99852 0.88981 0.76419 0.0
O503 O 0.09389 0.84676 0.71808 0.0
O504 O 0.00181 0.87736 0.7245 0.0
O505 O 0.96156 0.8875 0.7465 0.0
O506 O 0.95969 0.85728 0.79491 0.0
O507 O 0.95405 0.84568 0.74077 0.0
O508 O 0.01273 0.83325 0.73442 0.0
O509 O 0.9301 0.88244 0.78264 0.0
O510 O 0.0162 0.84797 0.77534 0.0
O511 O 0.04131 0.83285 0.75124 0.0
C512 C 0.03398 0.89002 0.76783 0.0
C513 C 0.0862 0.84348 0.68786 0.0
C514 C 0.09917 0.84465 0.65713 0.0
C515 C 0.11056 0.82413 0.6578 0.0
C516 C 0.09701 0.82282 0.68814 0.0
C517 C 0.10945 0.81332 0.6732 0.0
C518 C 0.08682 0.85431 0.67219 0.0
C519 C 0.97371 0.88812 0.73048 0.0
C520 C 0.08093 0.8548 0.70404 0.0
C521 C 0.19444 0.8895 0.75071 0.0
C522 C 0.18016 0.90792 0.7443 0.0
C523 C 0.97652 0.83376 0.73194 0.0
C524 C 0.92357 0.88128 0.81327 0.0
C525 C 0.91094 0.87894 0.844 0.0
C526 C 0.89356 0.89813 0.84336 0.0
C527 C 0.90593 0.90052 0.8131 0.0
C528 C 0.92621 0.87043 0.82892 0.0
C529 C 0.89111 0.90882 0.82801 0.0
C530 C 0.03715 0.83402 0.76794 0.0
C531 C 0.93797 0.87311 0.79683 0.0
H532 H 0.12075 0.81653 0.64638 0.0
H533 H 0.09727 0.81422 0.70001 0.0
H534 H 0.11859 0.79755 0.67359 0.0
H535 H 0.07977 0.87045 0.6719 0.0
H536 H 0.88157 0.9048 0.85482 0.0
H537 H 0.90338 0.90927 0.80136 0.0
H538 H 0.93941 0.85554 0.82934 0.0
H539 H 0.87749 0.92358 0.82766 0.0
Eu540 Eu 0.45913 0.63733 0.23302 0.0
C541 C 0.62826 0.65258 0.25556 0.0
N542 N 0.60821 0.63478 0.25538 0.0
C543 C 0.66165 0.61649 0.2451 0.0
C544 C 0.66578 0.65293 0.25014 0.0
C545 C 0.62496 0.61671 0.25106 0.0
C546 C 0.68203 0.63471 0.24445 0.0
C547 C 0.6335 0.68838 0.26407 0.0
C548 C 0.61233 0.67021 0.26247 0.0
C549 C 0.67044 0.68883 0.25822 0.0
C550 C 0.68652 0.67115 0.25133 0.0
Eu551 Eu 0.54746 0.63717 0.26705 0.0
N552 N 0.57673 0.66936 0.26842 0.0
C553 C 0.6174 0.70535 0.27214 0.0
C554 C 0.5618 0.68535 0.27733 0.0
C555 C 0.58154 0.70374 0.27898 0.0
H556 H 0.61071 0.60223 0.25262 0.0
H557 H 0.56933 0.71656 0.28572 0.0
H558 H 0.40192 0.67313 0.24967 0.0
H559 H 0.42795 0.55792 0.21559 0.0
H560 H 0.53469 0.68382 0.28317 0.0
H561 H 0.63283 0.71956 0.27363 0.0
H562 H 0.46411 0.59011 0.21565 0.0
H563 H 0.6745 0.60216 0.24144 0.0
H564 H 0.68714 0.70264 0.2594 0.0
H565 H 0.71545 0.67155 0.2474 0.0
H566 H 0.34016 0.67486 0.26323 0.0
H567 H 0.71074 0.6344 0.24018 0.0
H568 H 0.367 0.55629 0.23031 0.0
N569 N 0.39999 0.64083 0.24599 0.0
C570 C 0.37844 0.62362 0.24648 0.0
C571 C 0.35078 0.6603 0.25879 0.0
C572 C 0.3424 0.62405 0.25369 0.0
C573 C 0.38616 0.65918 0.25138 0.0
C574 C 0.32894 0.64262 0.26013 0.0
N575 N 0.42631 0.60586 0.23181 0.0
C576 C 0.43872 0.58924 0.22294 0.0
C577 C 0.3697 0.58778 0.23902 0.0
C578 C 0.39197 0.60566 0.23921 0.0
C579 C 0.38333 0.57029 0.2308 0.0
C580 C 0.41779 0.57112 0.22253 0.0
H581 H 0.30138 0.64357 0.26573 0.0
H582 H 0.29292 0.60617 0.25943 0.0
H583 H 0.31679 0.57444 0.24659 0.0
O584 O 0.43953 0.63125 0.20681 0.0
O585 O 0.45332 0.6216 0.25897 0.0
O586 O 0.51164 0.60855 0.2652 0.0
O587 O 0.43597 0.66225 0.21745 0.0
O588 O 0.50678 0.61669 0.2251 0.0
O589 O 0.54789 0.61069 0.24807 0.0
O590 O 0.5375 0.63773 0.29506 0.0
O591 O 0.54135 0.66375 0.24837 0.0
O592 O 0.51753 0.64677 0.22534 0.0
O593 O 0.59043 0.62786 0.28491 0.0
O594 O 0.49153 0.64988 0.27454 0.0
O595 O 0.46781 0.66522 0.25025 0.0
C596 C 0.47508 0.60781 0.26605 0.0
C597 C 0.413 0.65743 0.18814 0.0
C598 C 0.40277 0.65459 0.15715 0.0
C599 C 0.38058 0.67223 0.15783 0.0
C600 C 0.3908 0.67508 0.18836 0.0
C601 C 0.37453 0.6823 0.17332 0.0
C602 C 0.41855 0.64695 0.17244 0.0
C603 C 0.53475 0.60707 0.23252 0.0
C604 C 0.42968 0.65018 0.20439 0.0
C605 C 0.32061 0.60612 0.25391 0.0
C606 C 0.33422 0.58804 0.2466 0.0
C607 C 0.53528 0.66251 0.23182 0.0
C608 C 0.57856 0.61902 0.31382 0.0
C609 C 0.59239 0.61768 0.34442 0.0
C610 C 0.60495 0.5975 0.34245 0.0
C611 C 0.59096 0.59873 0.31211 0.0
C612 C 0.57906 0.62842 0.33009 0.0
C613 C 0.60412 0.58807 0.32639 0.0
C614 C 0.47313 0.66468 0.267 0.0
C615 C 0.57115 0.63169 0.29859 0.0
H616 H 0.36767 0.67816 0.1463 0.0
H617 H 0.3857 0.68321 0.20023 0.0
H618 H 0.35719 0.69582 0.17366 0.0
H619 H 0.43559 0.63329 0.17204 0.0
H620 H 0.61591 0.58914 0.35333 0.0
H621 H 0.59165 0.59136 0.29967 0.0
H622 H 0.5705 0.64425 0.33147 0.0
H623 H 0.61444 0.57261 0.32496 0.0
H624 H 0.23173 0.97799 0.35571 0.0
H625 H 0.20557 0.00583 0.3384 0.0
H626 H 0.096 0.99188 0.35802 0.0
H627 H 0.12202 0.96416 0.37543 0.0
H628 H 0.10129 0.99402 0.32192 0.0
H629 H 0.1343 0.03287 0.37187 0.0
H630 H 0.1765 0.04545 0.39452 0.0
H631 H 0.24771 0.07253 0.35643 0.0
H632 H 0.20617 0.05983 0.33352 0.0
H633 H 0.00149 0.07328 0.28415 0.0
H634 H 0.02808 0.04949 0.30434 0.0
H635 H 0.13599 0.07791 0.2972 0.0
H636 H 0.10675 0.1049 0.2803 0.0
H637 H 0.13347 0.06776 0.32722 0.0
H638 H 0.09703 0.02756 0.27654 0.0
H639 H 0.0496 0.0164 0.2555 0.0
H640 H 0.98252 0.99155 0.29613 0.0
H641 H 0.02917 0.00269 0.31738 0.0
C642 C 0.20212 0.98099 0.35635 0.0
C643 C 0.1788 0.96903 0.36684 0.0
C644 C 0.18732 0.9969 0.34659 0.0
C645 C 0.14901 0.00088 0.34708 0.0
C646 C 0.1257 0.98902 0.3576 0.0
C647 C 0.14054 0.97331 0.36753 0.0
C648 C 0.13284 0.01661 0.33583 0.0
C649 C 0.10814 0.01019 0.32306 0.0
C650 C 0.14242 0.03754 0.33726 0.0
C651 C 0.1674 0.04518 0.35099 0.0
C652 C 0.15917 0.04132 0.36832 0.0
C653 C 0.18291 0.04851 0.38121 0.0
C654 C 0.21484 0.05972 0.37692 0.0
C655 C 0.22302 0.06381 0.35973 0.0
C656 C 0.19937 0.05663 0.34679 0.0
C657 C 0.03032 0.07514 0.28757 0.0
C658 C 0.05164 0.09131 0.28093 0.0
C659 C 0.04613 0.06086 0.29855 0.0
C660 C 0.08458 0.06116 0.30183 0.0
C661 C 0.10631 0.07707 0.2948 0.0
C662 C 0.0898 0.09226 0.28475 0.0
C663 C 0.10189 0.04528 0.3129 0.0
C664 C 0.12696 0.0516 0.32573 0.0
C665 C 0.09268 0.02415 0.31152 0.0
C666 C 0.06642 0.01607 0.29852 0.0
C667 C 0.07226 0.0196 0.28094 0.0
C668 C 0.04548 0.01334 0.26901 0.0
C669 C 0.01307 0.00343 0.27456 0.0
C670 C 0.00763 -0.00071 0.29192 0.0
C671 C 0.03424 0.00552 0.30389 0.0
H672 H 0.9919 0.99909 0.2655 0.0
H673 H 0.2332 0.06528 0.38691 0.0
H674 H 0.28781 0.52954 0.84646 0.0
H675 H 0.31555 0.50272 0.82886 0.0
H676 H 0.40887 0.49943 0.8636 0.0
H677 H 0.38212 0.52694 0.88086 0.0
H678 H 0.43232 0.49951 0.83128 0.0
H679 H 0.33997 0.46258 0.86347 0.0
H680 H 0.2773 0.45505 0.87485 0.0
H681 H 0.23532 0.44813 0.82361 0.0
H682 H 0.29764 0.45589 0.81191 0.0
H683 H 0.48217 0.39469 0.80447 0.0
H684 H 0.45691 0.42213 0.82233 0.0
H685 H 0.40583 0.44932 0.77788 0.0
H686 H 0.43378 0.42322 0.75965 0.0
H687 H 0.3624 0.43652 0.81534 0.0
H688 H 0.45493 0.47636 0.78344 0.0
H689 H 0.51842 0.48241 0.77254 0.0
H690 H 0.56044 0.48352 0.82407 0.0
H691 H 0.49725 0.47669 0.83526 0.0
C692 C 0.31436 0.52322 0.85031 0.0
C693 C 0.33274 0.5304 0.86507 0.0
C694 C 0.32999 0.50773 0.84033 0.0
C695 C 0.36408 0.49892 0.84503 0.0
C696 C 0.38248 0.50599 0.85977 0.0
C697 C 0.36695 0.52156 0.86972 0.0
C698 C 0.3809 0.48264 0.83433 0.0
C699 C 0.41712 0.48565 0.82796 0.0
C700 C 0.36092 0.46467 0.8298 0.0
C701 C 0.3234 0.46002 0.83682 0.0
C702 C 0.31731 0.45962 0.85463 0.0
C703 C 0.28186 0.45528 0.86113 0.0
C704 C 0.25233 0.45117 0.84996 0.0
C705 C 0.25821 0.45134 0.83225 0.0
C706 C 0.29359 0.45569 0.82567 0.0
C707 C 0.46572 0.40653 0.79844 0.0
C708 C 0.45909 0.40635 0.78064 0.0
C709 C 0.45137 0.42217 0.80867 0.0
C710 C 0.42962 0.43761 0.80134 0.0
C711 C 0.42268 0.43747 0.78369 0.0
C712 C 0.43816 0.4223 0.77335 0.0
C713 C 0.41329 0.45363 0.81223 0.0
C714 C 0.37737 0.45044 0.8187 0.0
C715 C 0.43349 0.4714 0.81684 0.0
C716 C 0.47148 0.47549 0.81016 0.0
C717 C 0.47779 0.47743 0.79243 0.0
C718 C 0.51371 0.4811 0.7862 0.0
C719 C 0.5435 0.48322 0.7976 0.0
C720 C 0.53737 0.48174 0.81526 0.0
C721 C 0.50152 0.47791 0.82154 0.0
H722 H 0.57128 0.48612 0.79275 0.0
H723 H 0.22491 0.4478 0.85502 0.0
H724 H 0.69138 0.50351 0.6193 0.0
H725 H 0.66219 0.47681 0.6369 0.0
H726 H 0.6241 0.52287 0.67243 0.0
H727 H 0.65317 0.54955 0.65495 0.0
H728 H 0.65682 0.49229 0.68882 0.0
H729 H 0.56443 0.49855 0.64491 0.0
H730 H 0.54053 0.49921 0.61529 0.0
H731 H 0.57482 0.43686 0.60802 0.0
H732 H 0.5996 0.43595 0.63753 0.0
H733 H 0.52899 0.43103 0.73684 0.0
H734 H 0.55617 0.45706 0.71775 0.0
H735 H 0.60664 0.40937 0.68741 0.0
H736 H 0.58041 0.38335 0.70687 0.0
H737 H 0.56679 0.44004 0.66791 0.0
H738 H 0.66941 0.43622 0.70799 0.0
H739 H 0.7015 0.43609 0.73584 0.0
H740 H 0.64814 0.49254 0.74958 0.0
H741 H 0.61714 0.49348 0.72129 0.0
C742 C 0.67642 0.50794 0.63077 0.0
C743 C 0.67474 0.52861 0.6358 0.0
C744 C 0.6597 0.49269 0.64079 0.0
C745 C 0.64071 0.49788 0.65591 0.0
C746 C 0.63868 0.51852 0.66083 0.0
C747 C 0.65547 0.53373 0.65088 0.0
C748 C 0.6247 0.48179 0.66716 0.0
C749 C 0.63661 0.48113 0.68426 0.0
C750 C 0.59925 0.46678 0.66111 0.0
C751 C 0.58425 0.46726 0.64338 0.0
C752 C 0.56721 0.48504 0.63695 0.0
C753 C 0.55346 0.48545 0.62019 0.0
C754 C 0.55626 0.46811 0.60976 0.0
C755 C 0.57275 0.4503 0.6161 0.0
C756 C 0.58664 0.44982 0.63285 0.0
C757 C 0.54602 0.42622 0.72611 0.0
C758 C 0.55276 0.40537 0.72318 0.0
C759 C 0.56155 0.44101 0.71528 0.0
C760 C 0.5833 0.43509 0.70117 0.0
C761 C 0.5899 0.4142 0.69822 0.0
C762 C 0.57514 0.39943 0.70932 0.0
C763 C 0.59884 0.45079 0.68947 0.0
C764 C 0.58681 0.45136 0.67236 0.0
C765 C 0.62422 0.46575 0.6954 0.0
C766 C 0.64067 0.46476 0.71272 0.0
C767 C 0.66426 0.44848 0.71704 0.0
C768 C 0.6824 0.44833 0.73287 0.0
C769 C 0.67643 0.46413 0.74464 0.0
C770 C 0.6526 0.48026 0.7405 0.0
C771 C 0.63501 0.48071 0.72451 0.0
H772 H 0.69046 0.46393 0.75692 0.0
H773 H 0.54557 0.46845 0.59679 0.0
H774 H 0.77682 0.98475 0.14291 0.0
H775 H 0.80547 0.01253 0.15974 0.0
H776 H 0.91458 0.99083 0.14565 0.0
H777 H 0.886 0.96335 0.12861 0.0
H778 H 0.90501 0.99629 0.18048 0.0
H779 H 0.88725 0.03348 0.12891 0.0
H780 H 0.85152 0.04618 0.10416 0.0
H781 H 0.77886 0.07908 0.13801 0.0
H782 H 0.81384 0.06629 0.16303 0.0
H783 H 0.00897 0.07784 0.2186 0.0
H784 H 0.98299 0.05208 0.19917 0.0
H785 H 0.87382 0.07841 0.20534 0.0
H786 H 0.89975 0.10454 0.22425 0.0
H787 H 0.88467 0.07083 0.17307 0.0
H788 H 0.89976 0.02991 0.22468 0.0
H789 H 0.92508 0.00882 0.24821 0.0
H790 H 0.00104 0.98022 0.21317 0.0
H791 H 0.97652 0.00123 0.18954 0.0
C792 C 0.80689 0.98607 0.14337 0.0
C793 C 0.82932 0.97204 0.13452 0.0
C794 C 0.82319 0.00197 0.15284 0.0
C795 C 0.86212 0.00383 0.15378 0.0
C796 C 0.88449 0.98975 0.14495 0.0
C797 C 0.86822 0.97411 0.13525 0.0
C798 C 0.87962 0.01948 0.16499 0.0
C799 C 0.90126 0.01265 0.17871 0.0
C800 C 0.87371 0.04071 0.16284 0.0
C801 C 0.85295 0.04876 0.14786 0.0
C802 C 0.86347 0.0433 0.1311 0.0
C803 C 0.84339 0.05053 0.11701 0.0
C804 C 0.81287 0.06339 0.11951 0.0
C805 C 0.80248 0.0691 0.1361 0.0
C806 C 0.82246 0.06187 0.15024 0.0
C807 C 0.97938 0.07812 0.21589 0.0
C808 C 0.95639 0.09317 0.22323 0.0
C809 C 0.96449 0.06324 0.20485 0.0
C810 C 0.92626 0.06303 0.20095 0.0
C811 C 0.90335 0.07813 0.20818 0.0
C812 C 0.91823 0.09303 0.21914 0.0
C813 C 0.91032 0.04764 0.18884 0.0
C814 C 0.88886 0.05452 0.17486 0.0
C815 C 0.91664 0.02634 0.19065 0.0
C816 C 0.93648 0.01723 0.20539 0.0
C817 C 0.92261 0.01957 0.22212 0.0
C818 C 0.93659 0.00747 0.23543 0.0
C819 C 0.96433 0.99303 0.23209 0.0
C820 C 0.97943 0.99133 0.21568 0.0
C821 C 0.96562 0.00336 0.20237 0.0
H822 H 0.97378 0.98282 0.24206 0.0
H823 H 0.79732 0.06896 0.10859 0.0
H824 H 0.78485 0.024 0.64827 0.0
H825 H 0.8098 0.99597 0.66562 0.0
H826 H 0.92024 0.00911 0.64659 0.0
H827 H 0.89543 0.03702 0.62916 0.0
H828 H 0.9051 0.96878 0.64575 0.0
H829 H 0.893 0.02404 0.68657 0.0
H830 H 0.85954 0.05089 0.70253 0.0
H831 H 0.78498 0.00561 0.72327 0.0
H832 H 0.81765 0.97852 0.70724 0.0
H833 H 0.00608 0.90627 0.70239 0.0
H834 H 0.98195 0.93444 0.68564 0.0
H835 H 0.87643 0.9291 0.71191 0.0
H836 H 0.90266 0.90308 0.73033 0.0
H837 H 0.88882 0.96603 0.70885 0.0
H838 H 0.89938 0.91048 0.66778 0.0
H839 H 0.93391 0.88332 0.65265 0.0
H840 H 0.00983 0.92823 0.63238 0.0
H841 H 0.97606 0.95562 0.64757 0.0
C842 C 0.81446 0.02094 0.64788 0.0
C843 C 0.83825 0.03261 0.63738 0.0
C844 C 0.82865 0.00497 0.65778 0.0
C845 C 0.86689 0.00063 0.65747 0.0
C846 C 0.89063 0.01221 0.64694 0.0
C847 C 0.87644 0.02808 0.63698 0.0
C848 C 0.88225 0.98383 0.66793 0.0
C849 C 0.9018 0.96819 0.65957 0.0
C850 C 0.87717 0.98294 0.68589 0.0
C851 C 0.85755 -0.00073 0.69555 0.0
C852 C 0.86928 0.01982 0.69442 0.0
C853 C 0.85048 0.03509 0.7035 0.0
C854 C 0.82009 0.02997 0.71387 0.0
C855 C 0.80848 0.00956 0.71521 0.0
C856 C 0.82714 0.99425 0.70614 0.0
C857 C 0.97818 0.91152 0.70508 0.0
C858 C 0.95707 0.90319 0.7186 0.0
C859 C 0.96394 0.92734 0.69507 0.0
C860 C 0.92706 0.93389 0.6973 0.0
C861 C 0.90519 0.92466 0.71007 0.0
C862 C 0.92024 0.90971 0.72072 0.0
C863 C 0.91134 0.95061 0.68668 0.0
C864 C 0.89182 0.96636 0.69501 0.0
C865 C 0.91608 0.95146 0.66865 0.0
C866 C 0.93527 0.93508 0.65887 0.0
C867 C 0.92341 0.91456 0.66008 0.0
C868 C 0.9429 0.89912 0.65153 0.0
C869 C 0.97408 0.90405 0.64159 0.0
C870 C 0.98569 0.92444 0.64008 0.0
C871 C 0.96634 0.93992 0.64864 0.0
H872 H 0.98922 0.89207 0.63504 0.0
H873 H 0.80559 0.04181 0.72089 0.0
H874 H 0.61467 0.45375 0.13835 0.0
H875 H 0.59048 0.48168 0.15601 0.0
H876 H 0.69912 0.51043 0.15595 0.0
H877 H 0.72368 0.48183 0.13899 0.0
H878 H 0.67204 0.51181 0.18651 0.0
H879 H 0.62298 0.52855 0.13099 0.0
H880 H 0.58929 0.52251 0.10388 0.0
H881 H 0.48879 0.50992 0.13189 0.0
H882 H 0.52198 0.51565 0.15917 0.0
H883 H 0.60064 0.60906 0.21585 0.0
H884 H 0.6286 0.58234 0.19779 0.0
H885 H 0.53509 0.54249 0.20831 0.0
H886 H 0.50859 0.56858 0.2273 0.0
H887 H 0.55566 0.54856 0.17179 0.0
H888 H 0.6055 0.53057 0.22704 0.0
H889 H 0.63819 0.53805 0.25413 0.0
H890 H 0.73712 0.55405 0.22614 0.0
H891 H 0.70472 0.54705 0.19882 0.0
C892 C 0.63319 0.46612 0.14208 0.0
C893 C 0.67086 0.46583 0.13738 0.0
C894 C 0.61939 0.48212 0.15205 0.0
C895 C 0.64282 0.49837 0.15703 0.0
C896 C 0.68053 0.49808 0.15223 0.0
C897 C 0.69452 0.48183 0.14256 0.0
C898 C 0.62825 0.51526 0.16777 0.0
C899 C 0.64696 0.52007 0.1831 0.0
C900 C 0.59507 0.5258 0.16354 0.0
C901 C 0.57507 0.52236 0.14713 0.0
C902 C 0.59376 0.52435 0.13137 0.0
C903 C 0.57474 0.52101 0.11597 0.0
C904 C 0.53695 0.51579 0.11616 0.0
C905 C 0.51807 0.51395 0.13175 0.0
C906 C 0.53696 0.51727 0.14719 0.0
C907 C 0.58655 0.59444 0.21447 0.0
C908 C 0.55239 0.59079 0.22264 0.0
C909 C 0.60228 0.57933 0.20412 0.0
C910 C 0.58358 0.56063 0.20166 0.0
C911 C 0.54958 0.55696 0.20996 0.0
C912 C 0.53438 0.57186 0.22064 0.0
C913 C 0.5994 0.54486 0.19035 0.0
C914 C 0.58092 0.54034 0.175 0.0
C915 C 0.63278 0.53467 0.1945 0.0
C916 C 0.65254 0.53854 0.21088 0.0
C917 C 0.63411 0.53588 0.22665 0.0
C918 C 0.6526 0.54 0.24205 0.0
C919 C 0.68967 0.5466 0.24185 0.0
C920 C 0.70837 0.54899 0.22626 0.0
C921 C 0.68996 0.54495 0.21081 0.0
H922 H 0.70395 0.54978 0.25379 0.0
H923 H 0.52227 0.51321 0.10423 0.0
H924 H 0.32396 0.49316 0.38338 0.0
H925 H 0.34986 0.52082 0.36564 0.0
H926 H 0.37124 0.47756 0.32504 0.0
H927 H 0.34609 0.44989 0.34273 0.0
H928 H 0.43118 0.50206 0.33161 0.0
H929 H 0.29923 0.51023 0.3222 0.0
H930 H 0.23386 0.51561 0.33071 0.0
H931 H 0.26364 0.573 0.35405 0.0
H932 H 0.32931 0.56782 0.34587 0.0
H933 H 0.47395 0.56666 0.26195 0.0
H934 H 0.4464 0.54116 0.2813 0.0
H935 H 0.41289 0.58959 0.31571 0.0
H936 H 0.43846 0.61508 0.29572 0.0
H937 H 0.36012 0.56362 0.3142 0.0
H938 H 0.49164 0.55635 0.32331 0.0
H939 H 0.5574 0.55101 0.31542 0.0
H940 H 0.52967 0.49242 0.29374 0.0
H941 H 0.46366 0.49748 0.30132 0.0
C942 C 0.3343 0.48956 0.37069 0.0
C943 C 0.33289 0.46935 0.36443 0.0
C944 C 0.34879 0.50539 0.36053 0.0
C945 C 0.36222 0.50125 0.34398 0.0
C946 C 0.36093 0.48109 0.33776 0.0
C947 C 0.34631 0.46533 0.34783 0.0
C948 C 0.3787 0.51771 0.33323 0.0
C949 C 0.41557 0.51544 0.32765 0.0
C950 C 0.35868 0.53547 0.32856 0.0
C951 C 0.31926 0.5385 0.33362 0.0
C952 C 0.29191 0.52389 0.32931 0.0
C953 C 0.25479 0.52693 0.33403 0.0
C954 C 0.24462 0.5446 0.34297 0.0
C955 C 0.27156 0.5593 0.34716 0.0
C956 C 0.30873 0.55632 0.34248 0.0
C957 C 0.46058 0.57172 0.27366 0.0
C958 C 0.45824 0.59262 0.27751 0.0
C959 C 0.44514 0.55721 0.28478 0.0
C960 C 0.42831 0.56337 0.30024 0.0
C961 C 0.42578 0.58441 0.30394 0.0
C962 C 0.44037 0.59894 0.29258 0.0
C963 C 0.41267 0.54791 0.31233 0.0
C964 C 0.37597 0.55035 0.31823 0.0
C965 C 0.43298 0.53036 0.31744 0.0
C966 C 0.47266 0.52737 0.31277 0.0
C967 C 0.49952 0.54239 0.31675 0.0
C968 C 0.53685 0.5394 0.31236 0.0
C969 C 0.5477 0.52141 0.30406 0.0
C970 C 0.52124 0.50635 0.30016 0.0
C971 C 0.48387 0.50926 0.30452 0.0
H972 H 0.57662 0.51912 0.30068 0.0
H973 H 0.21586 0.54694 0.3466 0.0
H974 H 0.16232 0.00963 0.88696 0.0
H975 H 0.13467 0.98231 0.86984 0.0
H976 H 0.16287 0.01514 0.82355 0.0
H977 H 0.1876 0.0433 0.84057 0.0
H978 H 0.09686 0.00229 0.82071 0.0
H979 H 0.21008 0.97039 0.83853 0.0
H980 H 0.25767 0.95821 0.85887 0.0
H981 H 0.17695 0.9187 0.88271 0.0
H982 H 0.1287 0.93087 0.86268 0.0
H983 H 0.08116 0.92154 0.76109 0.0
H984 H 0.10568 0.94708 0.78073 0.0
H985 H 0.04432 0.91896 0.82211 0.0
H986 H 0.01885 0.89334 0.80193 0.0
H987 H 0.12372 0.9284 0.82865 0.0
H988 H 0.01166 0.96061 0.80803 0.0
H989 H 0.96772 0.97321 0.78619 0.0
H990 H 0.05284 0.01237 0.76533 0.0
H991 H 0.09748 -0.00025 0.78687 0.0
C992 C 0.16233 0.01119 0.87315 0.0
C993 C 0.17713 0.02883 0.86521 0.0
C994 C 0.14703 0.99533 0.86334 0.0
C995 C 0.14706 0.99648 0.84536 0.0
C996 C 0.16253 0.01384 0.8374 0.0
C997 C 0.17715 0.02988 0.84719 0.0
C998 C 0.12917 0.98021 0.83482 0.0
C999 C 0.1032 0.98616 0.82235 0.0
C1000 C 0.13665 0.95908 0.83718 0.0
C1001 C 0.16566 0.95173 0.84923 0.0
C1002 C 0.20239 0.95924 0.8482 0.0
C1003 C 0.2295 0.95231 0.85966 0.0
C1004 C 0.22031 0.93774 0.87211 0.0
C1005 C 0.18401 0.93002 0.87309 0.0
C1006 C 0.15677 0.93692 0.86168 0.0
C1007 C 0.0729 0.92073 0.77424 0.0
C1008 C 0.04823 0.90551 0.77991 0.0
C1009 C 0.08681 0.9354 0.78552 0.0
C1010 C 0.07664 0.93496 0.80283 0.0
C1011 C 0.05231 0.91957 0.80873 0.0
C1012 C 0.03774 0.90506 0.79725 0.0
C1013 C 0.09194 0.95064 0.81459 0.0
C1014 C 0.11741 0.94455 0.8272 0.0
C1015 C 0.08472 0.9717 0.81211 0.0
C1016 C 0.05802 0.97908 0.79898 0.0
C1017 C 0.02114 0.97174 0.79867 0.0
C1018 C 0.99608 0.97892 0.78637 0.0
C1019 C 0.0075 0.99355 0.77436 0.0
C1020 C 0.04403 0.00102 0.77463 0.0
C1021 C 0.06921 0.99386 0.78689 0.0
H1022 H 0.98803 0.99912 0.76487 0.0
H1023 H 0.24134 0.9324 0.88097 0.0
H1024 H 0.13995 0.10311 0.99884 0.0
H1025 H 0.11818 0.10625 0.02832 0.0
H1026 H 0.21083 0.14622 0.03997 0.0
H1027 H 0.23401 0.14227 0.01069 0.0
H1028 H 0.19964 0.1195 0.06516 0.0
H1029 H 0.12129 0.16503 0.03242 0.0
H1030 H 0.07876 0.17317 0.00856 0.0
H1031 H 0.00051 0.12829 0.02692 0.0
H1032 H 0.0428 0.11972 0.05078 0.0
H1033 H 0.13802 0.15018 0.14522 0.0
H1034 H 0.15056 0.1557 0.11466 0.0
H1035 H 0.06271 0.11309 0.10172 0.0
H1036 H 0.05004 0.10776 0.13225 0.0
H1037 H 0.07066 0.14266 0.07699 0.0
H1038 H 0.1474 0.09569 0.10821 0.0
H1039 H 0.19018 0.08433 0.131 0.0
H1040 H 0.27131 0.12881 0.11474 0.0
H1041 H 0.22877 0.14065 0.09199 0.0
C1042 C 0.15607 0.11234 0.0077 0.0
C1043 C 0.18869 0.12253 0.00232 0.0
C1044 C 0.14326 0.11434 0.02452 0.0
C1045 C 0.16239 0.12684 0.03626 0.0
C1046 C 0.1954 0.13666 0.03107 0.0
C1047 C 0.20842 0.13454 0.01428 0.0
C1048 C 0.14812 0.12963 0.05398 0.0
C1049 C 0.1717 0.12497 0.06774 0.0
C1050 C 0.11121 0.1361 0.05734 0.0
C1051 C 0.08527 0.14168 0.04333 0.0
C1052 C 0.09504 0.15687 0.03134 0.0
C1053 C 0.071 0.16155 0.01781 0.0
C1054 C 0.03698 0.15123 0.01621 0.0
C1055 C 0.02686 0.13627 0.02818 0.0
C1056 C 0.05083 0.13153 0.04173 0.0
C1057 C 0.12013 0.1429 0.13581 0.0
C1058 C 0.09292 0.12868 0.14097 0.0
C1059 C 0.12759 0.14583 0.11838 0.0
C1060 C 0.10816 0.1344 0.10595 0.0
C1061 C 0.07813 0.12199 0.11108 0.0
C1062 C 0.0707 0.11906 0.1285 0.0
C1063 C 0.1225 0.13293 0.08815 0.0
C1064 C 0.09882 0.13758 0.07439 0.0
C1065 C 0.15924 0.12621 0.08475 0.0
C1066 C 0.18467 0.11927 0.09856 0.0
C1067 C 0.17419 0.10321 0.10962 0.0
C1068 C 0.19842 0.09666 0.12251 0.0
C1069 C 0.23335 0.10591 0.12438 0.0
C1070 C 0.24417 0.12171 0.11333 0.0
C1071 C 0.22002 0.12835 0.10043 0.0
H1072 H 0.2521 0.10079 0.13435 0.0
H1073 H 0.01843 0.15485 0.00571 0.0
H1074 H 0.31776 0.34225 0.50318 0.0
H1075 H 0.34001 0.33944 0.53271 0.0
H1076 H 0.34278 0.40527 0.53695 0.0
H1077 H 0.31878 0.40833 0.50776 0.0
H1078 H 0.41083 0.38457 0.54661 0.0
H1079 H 0.27946 0.38365 0.55784 0.0
H1080 H 0.21466 0.3716 0.55454 0.0
H1081 H 0.24655 0.3114 0.57102 0.0
H1082 H 0.3117 0.32305 0.57421 0.0
H1083 H 0.43007 0.40508 0.63467 0.0
H1084 H 0.42188 0.40074 0.60403 0.0
H1085 H 0.39156 0.3373 0.61192 0.0
H1086 H 0.39748 0.34224 0.64302 0.0
H1087 H 0.34056 0.35344 0.59481 0.0
H1088 H 0.47338 0.35577 0.58519 0.0
H1089 H 0.53741 0.36917 0.58844 0.0
H1090 H 0.50274 0.42767 0.5691 0.0
H1091 H 0.43857 0.41461 0.56573 0.0
C1092 C 0.32227 0.35617 0.51045 0.0
C1093 C 0.31668 0.37554 0.50293 0.0
C1094 C 0.33527 0.3545 0.52731 0.0
C1095 C 0.34329 0.37214 0.53693 0.0
C1096 C 0.33712 0.39147 0.52965 0.0
C1097 C 0.3236 0.39316 0.5129 0.0
C1098 C 0.35933 0.37046 0.5544 0.0
C1099 C 0.39552 0.37785 0.55722 0.0
C1100 C 0.33961 0.36123 0.56805 0.0
C1101 C 0.30054 0.35415 0.56604 0.0
C1102 C 0.27274 0.36778 0.56057 0.0
C1103 C 0.23593 0.36105 0.55877 0.0
C1104 C 0.22652 0.34073 0.5625 0.0
C1105 C 0.2539 0.32713 0.56809 0.0
C1106 C 0.29077 0.33379 0.56991 0.0
C1107 C 0.42332 0.38996 0.62979 0.0
C1108 C 0.41449 0.374 0.64117 0.0
C1109 C 0.4187 0.38742 0.61215 0.0
C1110 C 0.40613 0.36863 0.60541 0.0
C1111 C 0.40111 0.35199 0.61672 0.0
C1112 C 0.40505 0.35469 0.63449 0.0
C1113 C 0.39264 0.36751 0.58727 0.0
C1114 C 0.35658 0.35971 0.58424 0.0
C1115 C 0.41254 0.37642 0.5734 0.0
C1116 C 0.45118 0.38423 0.57529 0.0
C1117 C 0.47942 0.3715 0.58169 0.0
C1118 C 0.51574 0.37903 0.58352 0.0
C1119 C 0.52412 0.39927 0.57901 0.0
C1120 C 0.49624 0.41199 0.57257 0.0
C1121 C 0.45994 0.40451 0.57063 0.0
H1122 H 0.55222 0.40508 0.58049 0.0
H1123 H 0.198 0.33554 0.56111 0.0
H1124 H 0.62707 0.38293 0.00681 0.0
H1125 H 0.60666 0.38219 0.97688 0.0
H1126 H 0.71607 0.36253 0.96131 0.0
H1127 H 0.73679 0.36338 0.99129 0.0
H1128 H 0.68701 0.39478 0.9412 0.0
H1129 H 0.64935 0.32828 0.96238 0.0
H1130 H 0.61786 0.30551 0.9831 0.0
H1131 H 0.5131 0.33396 0.97179 0.0
H1132 H 0.54411 0.35709 0.95113 0.0
H1133 H 0.66447 0.35182 0.8593 0.0
H1134 H 0.67666 0.36292 0.88863 0.0
H1135 H 0.55856 0.36978 0.89719 0.0
H1136 H 0.54644 0.35805 0.8677 0.0
H1137 H 0.58602 0.34812 0.92171 0.0
H1138 H 0.6231 0.41319 0.89868 0.0
H1139 H 0.65543 0.43696 0.87901 0.0
H1140 H 0.761 0.41223 0.89423 0.0
H1141 H 0.7293 0.3883 0.91396 0.0
C1142 C 0.6468 0.3785 0.997 0.0
C1143 C 0.68355 0.37323 0.00136 0.0
C1144 C 0.63506 0.37801 0.97993 0.0
C1145 C 0.65985 0.3723 0.9669 0.0
C1146 C 0.69656 0.36703 0.9712 0.0
C1147 C 0.70826 0.36735 0.98831 0.0
C1148 C 0.64742 0.37167 0.94877 0.0
C1149 C 0.66512 0.38449 0.93686 0.0
C1150 C 0.61797 0.35878 0.94331 0.0
C1151 C 0.59907 0.34451 0.95532 0.0
C1152 C 0.61962 0.32973 0.96436 0.0
C1153 C 0.60186 0.31676 0.97609 0.0
C1154 C 0.56351 0.31832 0.97879 0.0
C1155 C 0.54281 0.33279 0.96969 0.0
C1156 C 0.56045 0.34581 0.95795 0.0
C1157 C 0.64123 0.35626 0.86732 0.0
C1158 C 0.60459 0.35418 0.8613 0.0
C1159 C 0.64816 0.36274 0.88409 0.0
C1160 C 0.61859 0.36742 0.89522 0.0
C1161 C 0.5819 0.36634 0.88889 0.0
C1162 C 0.57495 0.35981 0.87203 0.0
C1163 C 0.62613 0.37101 0.91381 0.0
C1164 C 0.60749 0.35872 0.92595 0.0
C1165 C 0.65468 0.38448 0.9195 0.0
C1166 C 0.67381 0.39888 0.9077 0.0
C1167 C 0.65319 0.41276 0.89776 0.0
C1168 C 0.67142 0.42629 0.88663 0.0
C1169 C 0.71024 0.42607 0.88534 0.0
C1170 C 0.73094 0.41239 0.89525 0.0
C1171 C 0.71287 0.3989 0.90644 0.0
H1172 H 0.72428 0.43652 0.87669 0.0
H1173 H 0.54983 0.30829 0.9879 0.0
H1174 H 0.82619 0.15663 0.49879 0.0
H1175 H 0.84687 0.15803 0.46896 0.0
H1176 H 0.83988 0.09217 0.46562 0.0
H1177 H 0.81785 0.09061 0.49524 0.0
H1178 H 0.90754 0.10858 0.45291 0.0
H1179 H 0.77644 0.11778 0.4462 0.0
H1180 H 0.71504 0.1331 0.45186 0.0
H1181 H 0.75602 0.19182 0.43544 0.0
H1182 H 0.81788 0.17692 0.42992 0.0
H1183 H 0.8959 0.1156 0.35628 0.0
H1184 H 0.89026 0.105 0.3865 0.0
H1185 H 0.91999 0.1661 0.4026 0.0
H1186 H 0.92608 0.17661 0.37268 0.0
H1187 H 0.84022 0.14808 0.40842 0.0
H1188 H 0.9724 0.139 0.41667 0.0
H1189 H 0.03481 0.12403 0.41314 0.0
H1190 H 0.99209 0.0649 0.42748 0.0
H1191 H 0.92923 0.07945 0.4308 0.0
C1192 C 0.82836 0.14245 0.49166 0.0
C1193 C 0.82041 0.12351 0.49949 0.0
C1194 C 0.84046 0.14327 0.47463 0.0
C1195 C 0.84497 0.12519 0.46512 0.0
C1196 C 0.83686 0.10628 0.4728 0.0
C1197 C 0.8244 0.10545 0.48976 0.0
C1198 C 0.85847 0.12612 0.44718 0.0
C1199 C 0.89258 0.1169 0.44305 0.0
C1200 C 0.83909 0.13721 0.43447 0.0
C1201 C 0.80192 0.14626 0.43779 0.0
C1202 C 0.77248 0.134 0.44394 0.0
C1203 C 0.73756 0.1426 0.4471 0.0
C1204 C 0.73166 0.16343 0.44405 0.0
C1205 C 0.76065 0.17569 0.43781 0.0
C1206 C 0.79564 0.16717 0.43465 0.0
C1207 C 0.90291 0.12646 0.3663 0.0
C1208 C 0.91099 0.14699 0.36219 0.0
C1209 C 0.89965 0.1204 0.38354 0.0
C1210 C 0.90462 0.13481 0.39675 0.0
C1211 C 0.91627 0.15473 0.3926 0.0
C1212 C 0.91965 0.16072 0.37551 0.0
C1213 C 0.88972 0.13087 0.41417 0.0
C1214 C 0.85506 0.13952 0.41818 0.0
C1215 C 0.90867 0.11925 0.42671 0.0
C1216 C 0.94588 0.11024 0.42357 0.0
C1217 C 0.97608 0.12272 0.41867 0.0
C1218 C 0.01163 0.11433 0.41683 0.0
C1219 C 0.01737 0.0935 0.41997 0.0
C1220 C 0.98757 0.08101 0.42495 0.0
C1221 C 0.95198 0.08931 0.42679 0.0
H1222 H 0.04495 0.08707 0.41864 0.0
H1223 H 0.7046 0.17006 0.44649 0.0
H1224 H 0.87255 0.88695 0.00558 0.0
H1225 H 0.89614 0.8832 0.97639 0.0
H1226 H 0.78734 0.86354 0.95941 0.0
H1227 H 0.76346 0.86731 0.98866 0.0
H1228 H 0.84089 0.83912 0.9468 0.0
H1229 H 0.82004 0.91166 0.95026 0.0
H1230 H 0.82586 0.94637 0.96251 0.0
H1231 H 0.94459 0.9442 0.95625 0.0
H1232 H 0.93952 0.90936 0.94414 0.0
H1233 H 0.8561 0.85535 0.85716 0.0
H1234 H 0.84401 0.85045 0.88764 0.0
H1235 H 0.95246 0.87556 0.89954 0.0
H1236 H 0.96372 0.88122 0.86889 0.0
H1237 H 0.9033 0.89598 0.91573 0.0
H1238 H 0.92328 0.82336 0.91097 0.0
H1239 H 0.916 0.78876 0.8986 0.0
H1240 H 0.79788 0.79134 0.90691 0.0
H1241 H 0.80444 0.82598 0.91924 0.0
C1242 C 0.8535 0.88204 0.9956 0.0
C1243 C 0.81607 0.87747 0.99945 0.0
C1244 C 0.86707 0.87988 0.97891 0.0
C1245 C 0.84346 0.87325 0.96566 0.0
C1246 C 0.8061 0.86862 0.96945 0.0
C1247 C 0.79251 0.87073 0.98617 0.0
C1248 C 0.85795 0.87076 0.94793 0.0
C1249 C 0.85426 0.8516 0.93992 0.0
C1250 C 0.87631 0.88686 0.93914 0.0
C1251 C 0.87943 0.9078 0.94647 0.0
C1252 C 0.84742 0.91851 0.95163 0.0
C1253 C 0.85058 0.93822 0.95852 0.0
C1254 C 0.88558 0.94746 0.96021 0.0
C1255 C 0.9175 0.93701 0.95496 0.0
C1256 C 0.9145 0.91729 0.94807 0.0
C1257 C 0.87805 0.85882 0.86626 0.0
C1258 C 0.91102 0.86836 0.86072 0.0
C1259 C 0.87113 0.85608 0.88375 0.0
C1260 C 0.8973 0.8626 0.89604 0.0
C1261 C 0.93176 0.87042 0.89036 0.0
C1262 C 0.93849 0.87337 0.87284 0.0
C1263 C 0.8864 0.86423 0.91446 0.0
C1264 C 0.89053 0.88333 0.92263 0.0
C1265 C 0.86835 0.84808 0.92337 0.0
C1266 C 0.86435 0.82729 0.91592 0.0
C1267 C 0.89574 0.81659 0.91005 0.0
C1268 C 0.89175 0.79695 0.90309 0.0
C1269 C 0.8565 0.78787 0.90194 0.0
C1270 C 0.82517 0.79838 0.90781 0.0
C1271 C 0.82902 0.81798 0.91483 0.0
H1272 H 0.85346 0.77269 0.89653 0.0
H1273 H 0.88797 0.96272 0.96554 0.0
H1274 H 0.63622 0.61204 0.50589 0.0
H1275 H 0.61216 0.61594 0.47679 0.0
H1276 H 0.72115 0.63466 0.45934 0.0
H1277 H 0.74546 0.6308 0.48852 0.0
H1278 H 0.66829 0.65922 0.44654 0.0
H1279 H 0.68697 0.58652 0.45083 0.0
H1280 H 0.68034 0.55187 0.4631 0.0
H1281 H 0.56164 0.55497 0.45703 0.0
H1282 H 0.56753 0.58976 0.4449 0.0
H1283 H 0.65082 0.63941 0.357 0.0
H1284 H 0.66399 0.64589 0.3873 0.0
H1285 H 0.55447 0.62336 0.40061 0.0
H1286 H 0.54197 0.61629 0.37027 0.0
H1287 H 0.60373 0.60233 0.41646 0.0
H1288 H 0.58598 0.67496 0.41051 0.0
H1289 H 0.59408 0.70937 0.39789 0.0
H1290 H 0.7121 0.70607 0.40631 0.0
H1291 H 0.70472 0.67161 0.41888 0.0
C1292 C 0.65518 0.6168 0.49583 0.0
C1293 C 0.6928 0.62106 0.4995 0.0
C1294 C 0.64136 0.61904 0.4792 0.0
C1295 C 0.6649 0.62543 0.46584 0.0
C1296 C 0.70244 0.62978 0.46947 0.0
C1297 C 0.71628 0.62762 0.48614 0.0
C1298 C 0.65025 0.62776 0.44814 0.0
C1299 C 0.65444 0.64674 0.43986 0.0
C1300 C 0.6313 0.61166 0.43963 0.0
C1301 C 0.62767 0.59085 0.44716 0.0
C1302 C 0.65943 0.57991 0.45228 0.0
C1303 C 0.65581 0.56021 0.45917 0.0
C1304 C 0.62058 0.55125 0.4609 0.0
C1305 C 0.5889 0.56195 0.45572 0.0
C1306 C 0.59237 0.58165 0.44883 0.0
C1307 C 0.62915 0.63661 0.36639 0.0
C1308 C 0.59546 0.62736 0.36145 0.0
C1309 C 0.63658 0.64038 0.38372 0.0
C1310 C 0.61028 0.63506 0.39635 0.0
C1311 C 0.57527 0.62752 0.39116 0.0
C1312 C 0.568 0.62359 0.37384 0.0
C1313 C 0.62156 0.63388 0.4147 0.0
C1314 C 0.61698 0.615 0.42314 0.0
C1315 C 0.64027 0.65005 0.42329 0.0
C1316 C 0.64481 0.67064 0.4155 0.0
C1317 C 0.61368 0.68151 0.40953 0.0
C1318 C 0.61814 0.70105 0.40244 0.0
C1319 C 0.65359 0.70988 0.40126 0.0
C1320 C 0.68465 0.69922 0.40722 0.0
C1321 C 0.68034 0.67971 0.41437 0.0
H1322 H 0.65698 0.725 0.39576 0.0
H1323 H 0.61784 0.536 0.46622 0.0
H1324 H 0.34521 0.65275 0.99892 0.0
H1325 H 0.3692 0.65412 0.02838 0.0
H1326 H 0.32117 0.59464 0.03854 0.0
H1327 H 0.29719 0.5932 0.00916 0.0
H1328 H 0.30654 0.62358 0.06397 0.0
H1329 H 0.41151 0.59778 0.03257 0.0
H1330 H 0.4575 0.59858 0.0091 0.0
H1331 H 0.49908 0.65649 0.02716 0.0
H1332 H 0.45294 0.65619 0.05061 0.0
H1333 H 0.37958 0.61656 0.14656 0.0
H1334 H 0.37229 0.60543 0.11664 0.0
H1335 H 0.42892 0.66021 0.09956 0.0
H1336 H 0.43673 0.67105 0.12934 0.0
H1337 H 0.44126 0.63044 0.07716 0.0
H1338 H 0.33539 0.6587 0.10611 0.0
H1339 H 0.28671 0.6611 0.12829 0.0
H1340 H 0.24374 0.6022 0.11337 0.0
H1341 H 0.29284 0.59922 0.09139 0.0
C1342 C 0.33958 0.64006 0.0075 0.0
C1343 C 0.31942 0.62286 0.00177 0.0
C1344 C 0.35356 0.64076 0.02425 0.0
C1345 C 0.34734 0.62435 0.03557 0.0
C1346 C 0.3265 0.60739 0.02998 0.0
C1347 C 0.3129 0.60657 0.0132 0.0
C1348 C 0.36177 0.62505 0.0534 0.0
C1349 C 0.33604 0.62465 0.06689 0.0
C1350 C 0.4002 0.62703 0.05712 0.0
C1351 C 0.42861 0.62702 0.04329 0.0
C1352 C 0.43033 0.61074 0.03149 0.0
C1353 C 0.45644 0.6111 0.0182 0.0
C1354 C 0.48117 0.62759 0.01663 0.0
C1355 C 0.47991 0.64373 0.02839 0.0
C1356 C 0.45382 0.64345 0.04171 0.0
C1357 C 0.39178 0.62575 0.13643 0.0
C1358 C 0.40841 0.64474 0.1402 0.0
C1359 C 0.38735 0.61949 0.11932 0.0
C1360 C 0.39912 0.63227 0.10578 0.0
C1361 C 0.41929 0.65015 0.1097 0.0
C1362 C 0.42373 0.65636 0.12673 0.0
C1363 C 0.38594 0.62883 0.08786 0.0
C1364 C 0.41181 0.62893 0.0743 0.0
C1365 C 0.34746 0.6269 0.08399 0.0
C1366 C 0.31817 0.62858 0.09731 0.0
C1367 C 0.31585 0.64615 0.1077 0.0
C1368 C 0.28816 0.64762 0.12023 0.0
C1369 C 0.26223 0.63177 0.12229 0.0
C1370 C 0.26395 0.61442 0.11182 0.0
C1371 C 0.29176 0.61281 0.09936 0.0
H1372 H 0.24073 0.63297 0.13196 0.0
H1373 H 0.50133 0.62786 0.00631 0.0
H1374 H 0.23936 0.86442 0.51226 0.0
H1375 H 0.21622 0.86231 0.54172 0.0
H1376 H 0.1077 0.88195 0.52477 0.0
H1377 H 0.13071 0.88414 0.49532 0.0
H1378 H 0.12694 0.90146 0.55356 0.0
H1379 H 0.12382 0.8322 0.5344 0.0
H1380 H 0.14818 0.80052 0.52145 0.0
H1381 H 0.23063 0.79634 0.56115 0.0
H1382 H 0.20722 0.82822 0.57418 0.0
H1383 H 0.04589 0.85634 0.63399 0.0
H1384 H 0.0572 0.86713 0.6041 0.0
H1385 H 0.17542 0.86775 0.61379 0.0
H1386 H 0.16422 0.85718 0.64346 0.0
H1387 H 0.14319 0.83809 0.58778 0.0
H1388 H 0.14636 0.90912 0.60584 0.0
H1389 H 0.12191 0.94146 0.61752 0.0
H1390 H 0.0363 0.9419 0.57908 0.0
H1391 H 0.05981 0.90932 0.56736 0.0
C1392 C 0.21049 0.86809 0.5148 0.0
C1393 C 0.18686 0.87441 0.50147 0.0
C1394 C 0.1973 0.86693 0.53163 0.0
C1395 C 0.1601 0.8718 0.53543 0.0
C1396 C 0.1365 0.87818 0.52216 0.0
C1397 C 0.14971 0.87943 0.50534 0.0
C1398 C 0.14593 0.87019 0.55327 0.0
C1399 C 0.12992 0.88751 0.56099 0.0
C1400 C 0.14993 0.852 0.56294 0.0
C1401 C 0.16394 0.83272 0.55519 0.0
C1402 C 0.14733 0.82463 0.5403 0.0
C1403 C 0.16095 0.80662 0.53295 0.0
C1404 C 0.19099 0.79645 0.54045 0.0
C1405 C 0.2074 0.80425 0.55534 0.0
C1406 C 0.19395 0.82228 0.56273 0.0
C1407 C 0.0741 0.85959 0.62983 0.0
C1408 C 0.10427 0.856 0.6409 0.0
C1409 C 0.08054 0.86571 0.61282 0.0
C1410 C 0.11717 0.86822 0.6068 0.0
C1411 C 0.14699 0.86599 0.61824 0.0
C1412 C 0.1406 0.85998 0.63515 0.0
C1413 C 0.12523 0.86952 0.58821 0.0
C1414 C 0.13986 0.85199 0.5803 0.0
C1415 C 0.11954 0.88744 0.57839 0.0
C1416 C 0.10439 0.90651 0.58595 0.0
C1417 C 0.12185 0.91586 0.60009 0.0
C1418 C 0.10829 0.93431 0.60666 0.0
C1419 C 0.07743 0.94366 0.59912 0.0
C1420 C 0.06008 0.93458 0.58498 0.0
C1421 C 0.0735 0.91612 0.57838 0.0
H1422 H 0.06708 0.95799 0.60418 0.0
H1423 H 0.20149 0.78251 0.53474 0.0
H1424 H 0.14393 0.2899 0.3887 0.0
H1425 H 0.11547 0.2627 0.37135 0.0
H1426 H 0.17168 0.28582 0.32646 0.0
H1427 H 0.20136 0.31244 0.34369 0.0
H1428 H 0.09519 0.27823 0.32139 0.0
H1429 H 0.20357 0.24514 0.34401 0.0
H1430 H 0.24605 0.2333 0.36673 0.0
H1431 H 0.15855 0.19631 0.38825 0.0
H1432 H 0.11529 0.20826 0.36583 0.0
H1433 H 0.07153 0.1978 0.26166 0.0
H1434 H 0.09631 0.22404 0.28076 0.0
H1435 H 0.0495 0.19214 0.32422 0.0
H1436 H 0.02575 0.16532 0.30515 0.0
H1437 H 0.1182 0.20428 0.33131 0.0
H1438 H 0.0102 0.23645 0.30764 0.0
H1439 H 0.96797 0.24894 0.28505 0.0
H1440 H 0.05459 0.28807 0.26551 0.0
H1441 H 0.09756 0.27556 0.2878 0.0
C1442 C 0.15068 0.28905 0.37519 0.0
C1443 C 0.17486 0.30351 0.36763 0.0
C1444 C 0.1342 0.27356 0.36528 0.0
C1445 C 0.14142 0.27229 0.34762 0.0
C1446 C 0.16548 0.28663 0.34004 0.0
C1447 C 0.18227 0.30194 0.34994 0.0
C1448 C 0.12389 0.2561 0.3369 0.0
C1449 C 0.10044 0.26205 0.32344 0.0
C1450 C 0.13011 0.23501 0.33987 0.0
C1451 C 0.15604 0.22783 0.35338 0.0
C1452 C 0.19325 0.23467 0.35371 0.0
C1453 C 0.21749 0.22791 0.36651 0.0
C1454 C 0.20497 0.21412 0.37897 0.0
C1455 C 0.16818 0.20704 0.37862 0.0
C1456 C 0.14378 0.21381 0.36587 0.0
C1457 C 0.06674 0.1962 0.27526 0.0
C1458 C 0.04705 0.17924 0.28183 0.0
C1459 C 0.0806 0.2114 0.2862 0.0
C1460 C 0.07447 0.21024 0.30396 0.0
C1461 C 0.05462 0.19339 0.31057 0.0
C1462 C 0.04097 0.17808 0.29963 0.0
C1463 C 0.0895 0.22636 0.31563 0.0
C1464 C 0.11258 0.22042 0.3293 0.0
C1465 C 0.08294 0.2475 0.31284 0.0
C1466 C 0.05723 0.25489 0.2993 0.0
C1467 C 0.02037 0.24756 0.29842 0.0
C1468 C 0.99627 0.25468 0.28568 0.0
C1469 C 0.00862 0.26925 0.27382 0.0
C1470 C 0.04508 0.27675 0.27468 0.0
C1471 C 0.06931 0.26966 0.28737 0.0
H1472 H 0.9899 0.27476 0.26399 0.0
H1473 H 0.2238 0.20888 0.38886 0.0
H1474 H 0.37744 0.17555 0.85708 0.0
H1475 H 0.40584 0.2029 0.83995 0.0
H1476 H 0.33427 0.24716 0.86424 0.0
H1477 H 0.30539 0.21983 0.88125 0.0
H1478 H 0.33316 0.24934 0.82897 0.0
H1479 H 0.42533 0.2465 0.87372 0.0
H1480 H 0.47056 0.22916 0.89249 0.0
H1481 H 0.53355 0.21035 0.84847 0.0
H1482 H 0.48839 0.22734 0.8294 0.0
H1483 H 0.4117 0.33637 0.78846 0.0
H1484 H 0.38709 0.31125 0.80883 0.0
H1485 H 0.47414 0.26906 0.7946 0.0
H1486 H 0.50013 0.29471 0.77514 0.0
H1487 H 0.46773 0.26655 0.82633 0.0
H1488 H 0.37439 0.26083 0.78207 0.0
H1489 H 0.32682 0.27187 0.7614 0.0
H1490 H 0.26757 0.30285 0.80156 0.0
H1491 H 0.31415 0.29108 0.82265 0.0
C1492 C 0.36791 0.19113 0.85883 0.0
C1493 C 0.33912 0.19555 0.87047 0.0
C1494 C 0.38437 0.20675 0.84915 0.0
C1495 C 0.37233 0.22707 0.85093 0.0
C1496 C 0.34406 0.23158 0.86275 0.0
C1497 C 0.32775 0.21599 0.87251 0.0
C1498 C 0.38734 0.24337 0.8396 0.0
C1499 C 0.36251 0.2534 0.82862 0.0
C1500 C 0.42579 0.24804 0.83867 0.0
C1501 C 0.45329 0.23807 0.85012 0.0
C1502 C 0.44868 0.23855 0.86803 0.0
C1503 C 0.47434 0.2288 0.87873 0.0
C1504 C 0.50487 0.21862 0.87168 0.0
C1505 C 0.50988 0.21823 0.85391 0.0
C1506 C 0.48429 0.22794 0.84315 0.0
C1507 C 0.42537 0.32167 0.78965 0.0
C1508 C 0.45781 0.31747 0.78028 0.0
C1509 C 0.41115 0.30722 0.8012 0.0
C1510 C 0.42831 0.288 0.80315 0.0
C1511 C 0.4604 0.28374 0.79349 0.0
C1512 C 0.47517 0.29838 0.78229 0.0
C1513 C 0.4135 0.27253 0.81551 0.0
C1514 C 0.43834 0.26265 0.82672 0.0
C1515 C 0.37513 0.26756 0.81641 0.0
C1516 C 0.34789 0.27534 0.80382 0.0
C1517 C 0.35135 0.27013 0.78644 0.0
C1518 C 0.32447 0.27645 0.77467 0.0
C1519 C 0.29443 0.28837 0.78008 0.0
C1520 C 0.29094 0.29371 0.79736 0.0
C1521 C 0.31737 0.28705 0.80926 0.0
H1522 H 0.27373 0.29333 0.77091 0.0
H1523 H 0.52467 0.21107 0.87998 0.0
H1524 H 0.67378 0.17682 0.65873 0.0
H1525 H 0.646 0.20317 0.67635 0.0
H1526 H 0.64067 0.24349 0.63255 0.0
H1527 H 0.6728 0.21805 0.61525 0.0
H1528 H 0.6625 0.26438 0.65746 0.0
H1529 H 0.56038 0.21631 0.65231 0.0
H1530 H 0.52997 0.18238 0.65412 0.0
H1531 H 0.554 0.17963 0.70801 0.0
H1532 H 0.58485 0.21344 0.70649 0.0
H1533 H 0.54442 0.33643 0.6985 0.0
H1534 H 0.56938 0.31006 0.67957 0.0
H1535 H 0.59129 0.27146 0.72331 0.0
H1536 H 0.56506 0.29746 0.7423 0.0
H1537 H 0.559 0.25025 0.69793 0.0
H1538 H 0.66119 0.29797 0.70294 0.0
H1539 H 0.69126 0.33197 0.70135 0.0
H1540 H 0.66624 0.33538 0.64757 0.0
H1541 H 0.63546 0.30153 0.64891 0.0
C1542 C 0.6674 0.19138 0.65281 0.0
C1543 C 0.67621 0.19525 0.63549 0.0
C1544 C 0.65055 0.20635 0.66289 0.0
C1545 C 0.64038 0.22527 0.65577 0.0
C1546 C 0.64809 0.229 0.63838 0.0
C1547 C 0.66608 0.21426 0.6284 0.0
C1548 C 0.6237 0.24155 0.66667 0.0
C1549 C 0.63936 0.26132 0.66604 0.0
C1550 C 0.59419 0.23754 0.67831 0.0
C1551 C 0.57513 0.21734 0.67925 0.0
C1552 C 0.5593 0.20842 0.66453 0.0
C1553 C 0.54197 0.18922 0.66551 0.0
C1554 C 0.54012 0.17884 0.68116 0.0
C1555 C 0.55545 0.18768 0.69589 0.0
C1556 C 0.57279 0.20688 0.69498 0.0
C1557 C 0.55466 0.32235 0.70411 0.0
C1558 C 0.5532 0.31912 0.72193 0.0
C1559 C 0.56907 0.30734 0.69327 0.0
C1560 C 0.58261 0.28891 0.70006 0.0
C1561 C 0.58111 0.28562 0.71783 0.0
C1562 C 0.56648 0.30058 0.72867 0.0
C1563 C 0.59778 0.27289 0.6886 0.0
C1564 C 0.58188 0.25323 0.68918 0.0
C1565 C 0.62693 0.277 0.67689 0.0
C1566 C 0.64573 0.29729 0.67606 0.0
C1567 C 0.66187 0.30603 0.6908 0.0
C1568 C 0.67907 0.32527 0.68994 0.0
C1569 C 0.68061 0.33585 0.67437 0.0
C1570 C 0.665 0.32718 0.65963 0.0
C1571 C 0.64769 0.30797 0.66042 0.0
H1572 H 0.69395 0.35074 0.67373 0.0
H1573 H 0.52676 0.16396 0.68189 0.0
H1574 H 0.86903 0.32254 0.14941 0.0
H1575 H 0.89752 0.29605 0.16716 0.0
H1576 H 0.83554 0.24958 0.13986 0.0
H1577 H 0.80617 0.2761 0.12232 0.0
H1578 H 0.82929 0.2449 0.1739 0.0
H1579 H 0.92854 0.25472 0.13424 0.0
H1580 H 0.97429 0.27455 0.11741 0.0
H1581 H 0.02643 0.29538 0.16384 0.0
H1582 H 0.98056 0.27595 0.18098 0.0
H1583 H 0.92866 0.15886 0.20738 0.0
H1584 H 0.90199 0.18514 0.18858 0.0
H1585 H 0.95091 0.23245 0.22012 0.0
H1586 H 0.97655 0.20608 0.23934 0.0
H1587 H 0.96492 0.23633 0.18352 0.0
H1588 H 0.86159 0.22996 0.22268 0.0
H1589 H 0.81191 0.21307 0.23943 0.0
H1590 H 0.76771 0.18614 0.19344 0.0
H1591 H 0.81689 0.20313 0.17639 0.0
C1592 C 0.86153 0.30667 0.14715 0.0
C1593 C 0.83519 0.30143 0.1345 0.0
C1594 C 0.87812 0.29153 0.15719 0.0
C1595 C 0.86887 0.27081 0.15477 0.0
C1596 C 0.84317 0.26547 0.14192 0.0
C1597 C 0.82661 0.28063 0.13182 0.0
C1598 C 0.88416 0.25488 0.16639 0.0
C1599 C 0.85899 0.24279 0.17575 0.0
C1600 C 0.92288 0.25252 0.16917 0.0
C1601 C 0.95086 0.26402 0.15891 0.0
C1602 C 0.94957 0.26366 0.14088 0.0
C1603 C 0.97556 0.27481 0.13128 0.0
C1604 C 0.00319 0.28626 0.13955 0.0
C1605 C 0.00497 0.28652 0.15745 0.0
C1606 C 0.979 0.27542 0.16712 0.0
C1607 C 0.93339 0.17489 0.21034 0.0
C1608 C 0.95452 0.18055 0.22473 0.0
C1609 C 0.91813 0.18986 0.19966 0.0
C1610 C 0.9245 0.21072 0.20296 0.0
C1611 C 0.94561 0.21642 0.21739 0.0
C1612 C 0.96003 0.20142 0.22837 0.0
C1613 C 0.90995 0.22645 0.191 0.0
C1614 C 0.93527 0.23844 0.18157 0.0
C1615 C 0.87136 0.22873 0.18806 0.0
C1616 C 0.84312 0.21759 0.19832 0.0
C1617 C 0.84148 0.22027 0.21618 0.0
C1618 C 0.81319 0.21087 0.22569 0.0
C1619 C 0.7867 0.19852 0.21751 0.0
C1620 C 0.78829 0.19567 0.19977 0.0
C1621 C 0.81624 0.20527 0.19016 0.0
H1622 H 0.76498 0.19113 0.22492 0.0
H1623 H 0.02327 0.29489 0.13209 0.0
H1624 H 0.86532 0.67365 0.65223 0.0
H1625 H 0.88915 0.70147 0.67007 0.0
H1626 H 0.84414 0.74576 0.63481 0.0
H1627 H 0.81858 0.71802 0.61718 0.0
H1628 H 0.91881 0.75394 0.64558 0.0
H1629 H 0.79949 0.73964 0.66964 0.0
H1630 H 0.74903 0.71822 0.68154 0.0
H1631 H 0.82025 0.69974 0.72292 0.0
H1632 H 0.8714 0.72081 0.7111 0.0
H1633 H 0.94082 0.84016 0.70181 0.0
H1634 H 0.91519 0.81412 0.68222 0.0
H1635 H 0.94902 0.7665 0.71724 0.0
H1636 H 0.97542 0.79256 0.73658 0.0
H1637 H 0.8772 0.76105 0.70597 0.0
H1638 H 0.99734 0.77159 0.68065 0.0
H1639 H 0.05038 0.78945 0.66756 0.0
H1640 H 0.97889 0.81429 0.6287 0.0
H1641 H 0.92525 0.79591 0.64138 0.0
C1642 C 0.85999 0.68928 0.6483 0.0
C1643 C 0.83949 0.6935 0.63331 0.0
C1644 C 0.87386 0.70517 0.6585 0.0
C1645 C 0.86799 0.72566 0.65387 0.0
C1646 C 0.84885 0.73002 0.63863 0.0
C1647 C 0.83449 0.71411 0.6285 0.0
C1648 C 0.88183 0.74244 0.66506 0.0
C1649 C 0.90919 0.75578 0.65868 0.0
C1650 C 0.86995 0.74445 0.68227 0.0
C1651 C 0.8394 0.73164 0.68938 0.0
C1652 C 0.80453 0.73084 0.68118 0.0
C1653 C 0.77578 0.7188 0.68793 0.0
C1654 C 0.78146 0.70758 0.70295 0.0
C1655 C 0.81592 0.70841 0.71127 0.0
C1656 C 0.8448 0.72041 0.70455 0.0
C1657 C 0.94261 0.82411 0.70526 0.0
C1658 C 0.95986 0.81822 0.7206 0.0
C1659 C 0.92825 0.80926 0.69406 0.0
C1660 C 0.93041 0.78834 0.6982 0.0
C1661 C 0.94715 0.78253 0.71375 0.0
C1662 C 0.96218 0.79736 0.72477 0.0
C1663 C 0.91446 0.77253 0.68653 0.0
C1664 C 0.8866 0.75937 0.69282 0.0
C1665 C 0.92587 0.77066 0.66923 0.0
C1666 C 0.95725 0.78272 0.66215 0.0
C1667 C 0.99281 0.78112 0.66948 0.0
C1668 C 0.02305 0.7913 0.66207 0.0
C1669 C 0.01805 0.80335 0.64745 0.0
C1670 C 0.98271 0.80508 0.6401 0.0
C1671 C 0.9524 0.79469 0.64734 0.0
H1672 H 0.04155 0.81117 0.64168 0.0
H1673 H 0.75914 0.69829 0.70818 0.0
H1674 H 0.6441 0.78865 0.11209 0.0
H1675 H 0.61906 0.76078 0.12961 0.0
H1676 H 0.65846 0.79123 0.17531 0.0
H1677 H 0.68593 0.8182 0.1579 0.0
H1678 H 0.67272 0.75348 0.17814 0.0
H1679 H 0.56272 0.79023 0.16117 0.0
H1680 H 0.51863 0.80547 0.14061 0.0
H1681 H 0.4989 0.74629 0.1182 0.0
H1682 H 0.54328 0.73073 0.13849 0.0
H1683 H 0.56856 0.69892 0.24067 0.0
H1684 H 0.59358 0.72526 0.22167 0.0
H1685 H 0.5588 0.68986 0.17772 0.0
H1686 H 0.53368 0.66339 0.19672 0.0
H1687 H 0.54234 0.72888 0.17308 0.0
H1688 H 0.65199 0.69243 0.19122 0.0
H1689 H 0.69969 0.67834 0.21063 0.0
H1690 H 0.7201 0.73835 0.23128 0.0
H1691 H 0.67223 0.75277 0.21216 0.0
C1692 C 0.64784 0.78934 0.12585 0.0
C1693 C 0.66691 0.80589 0.1335 0.0
C1694 C 0.63296 0.77348 0.13591 0.0
C1695 C 0.63616 0.774 0.15388 0.0
C1696 C 0.65533 0.79045 0.1615 0.0
C1697 C 0.67067 0.80608 0.15148 0.0
C1698 C 0.62065 0.75727 0.16485 0.0
C1699 C 0.644 0.74835 0.17718 0.0
C1700 C 0.58349 0.75005 0.16334 0.0
C1701 C 0.5566 0.75936 0.15123 0.0
C1702 C 0.54917 0.78049 0.15178 0.0
C1703 C 0.5241 0.78918 0.14019 0.0
C1704 C 0.50606 0.77686 0.12807 0.0
C1705 C 0.51295 0.75582 0.12757 0.0
C1706 C 0.53803 0.74705 0.13912 0.0
C1707 C 0.56662 0.69657 0.22699 0.0
C1708 C 0.54975 0.6788 0.22027 0.0
C1709 C 0.58095 0.7117 0.2161 0.0
C1710 C 0.57875 0.70942 0.19821 0.0
C1711 C 0.5611 0.69193 0.19146 0.0
C1712 C 0.54681 0.67677 0.20236 0.0
C1713 C 0.59432 0.72539 0.18655 0.0
C1714 C 0.57101 0.73408 0.17406 0.0
C1715 C 0.63144 0.7326 0.18802 0.0
C1716 C 0.65841 0.72366 0.2003 0.0
C1717 C 0.66631 0.70258 0.20005 0.0
C1718 C 0.69353 0.69455 0.21094 0.0
C1719 C 0.71313 0.70749 0.22205 0.0
C1720 C 0.70507 0.72838 0.22257 0.0
C1721 C 0.67791 0.73648 0.21173 0.0
H1722 H 0.73458 0.70134 0.23029 0.0
H1723 H 0.48667 0.78362 0.1191 0.0
H1724 H 0.32881 0.82015 0.34204 0.0
H1725 H 0.35669 0.79404 0.3244 0.0
H1726 H 0.37102 0.75544 0.36877 0.0
H1727 H 0.34778 0.7827 0.38708 0.0
H1728 H 0.42778 0.75114 0.35007 0.0
H1729 H 0.29702 0.7493 0.33679 0.0
H1730 H 0.23644 0.76376 0.32822 0.0
H1731 H 0.2831 0.78308 0.28013 0.0
H1732 H 0.34404 0.76894 0.28849 0.0
H1733 H 0.45741 0.66123 0.30094 0.0
H1734 H 0.43205 0.6872 0.31998 0.0
H1735 H 0.42663 0.72984 0.27777 0.0
H1736 H 0.45139 0.70357 0.25842 0.0
H1737 H 0.36488 0.7309 0.29599 0.0
H1738 H 0.49608 0.73179 0.30971 0.0
H1739 H 0.55606 0.71706 0.31879 0.0
H1740 H 0.50743 0.69826 0.36659 0.0
H1741 H 0.44699 0.71263 0.35772 0.0
C1742 C 0.33872 0.80646 0.34833 0.0
C1743 C 0.33592 0.80391 0.36625 0.0
C1744 C 0.35393 0.79118 0.33801 0.0
C1745 C 0.36503 0.77242 0.3451 0.0
C1746 C 0.36239 0.7697 0.36292 0.0
C1747 C 0.34842 0.7853 0.37339 0.0
C1748 C 0.37988 0.75586 0.3339 0.0
C1749 C 0.41368 0.7465 0.33839 0.0
C1750 C 0.36196 0.74998 0.31845 0.0
C1751 C 0.32514 0.75819 0.31332 0.0
C1752 C 0.29438 0.75671 0.32442 0.0
C1753 C 0.25998 0.76484 0.3196 0.0
C1754 C 0.25595 0.77436 0.30366 0.0
C1755 C 0.28626 0.7757 0.29248 0.0
C1756 C 0.32071 0.76761 0.29724 0.0
C1757 C 0.45087 0.67615 0.29567 0.0
C1758 C 0.45642 0.68042 0.27816 0.0
C1759 C 0.43658 0.69102 0.30663 0.0
C1760 C 0.42812 0.7106 0.3004 0.0
C1761 C 0.43316 0.71484 0.28286 0.0
C1762 C 0.44718 0.69985 0.27182 0.0
C1763 C 0.41287 0.72643 0.31207 0.0
C1764 C 0.3789 0.73555 0.3077 0.0
C1765 C 0.43049 0.7319 0.32769 0.0
C1766 C 0.46687 0.72316 0.33298 0.0
C1767 C 0.49806 0.72437 0.3221 0.0
C1768 C 0.53217 0.7161 0.32722 0.0
C1769 C 0.53552 0.70669 0.34323 0.0
C1770 C 0.50478 0.70554 0.35418 0.0
C1771 C 0.4706 0.71376 0.34912 0.0
H1772 H 0.56196 0.70033 0.34718 0.0
H1773 H 0.22931 0.78068 0.29996 0.0
H1774 H 0.20461 0.71964 0.87872 0.0
H1775 H 0.17803 0.74643 0.86055 0.0
H1776 H 0.10575 0.70176 0.83674 0.0
H1777 H 0.13188 0.67496 0.85495 0.0
H1778 H 0.14163 0.72522 0.81318 0.0
H1779 H 0.07152 0.7363 0.86502 0.0
H1780 H 0.0639 0.74273 0.89598 0.0
H1781 H 0.12477 0.79925 0.89124 0.0
H1782 H 0.1332 0.79302 0.86028 0.0
H1783 H 0.03106 0.79283 0.76449 0.0
H1784 H 0.05436 0.76664 0.78405 0.0
H1785 H 0.10842 0.81367 0.81431 0.0
H1786 H 0.08112 0.83996 0.79578 0.0
H1787 H 0.0826 0.78868 0.83488 0.0
H1788 H 0.15377 0.77806 0.78314 0.0
H1789 H 0.1618 0.77188 0.75216 0.0
H1790 H 0.10204 0.71495 0.75652 0.0
H1791 H 0.09315 0.72094 0.78747 0.0
C1792 C 0.18259 0.71559 0.86983 0.0
C1793 C 0.17045 0.69514 0.86825 0.0
C1794 C 0.16751 0.73091 0.85942 0.0
C1795 C 0.13985 0.72609 0.84731 0.0
C1796 C 0.12721 0.70579 0.84593 0.0
C1797 C 0.14223 0.69049 0.85632 0.0
C1798 C 0.12497 0.74203 0.83563 0.0
C1799 C 0.12838 0.73904 0.81789 0.0
C1800 C 0.10861 0.76026 0.8418 0.0
C1801 C 0.1033 0.76409 0.86038 0.0
C1802 C 0.08352 0.75002 0.87061 0.0
C1803 C 0.07901 0.75364 0.88815 0.0
C1804 C 0.09393 0.77136 0.89558 0.0
C1805 C 0.11328 0.78552 0.88547 0.0
C1806 C 0.1179 0.78196 0.86793 0.0
C1807 C 0.04802 0.79746 0.77533 0.0
C1808 C 0.05435 0.81827 0.77877 0.0
C1809 C 0.06168 0.7825 0.78643 0.0
C1810 C 0.08414 0.788 0.80051 0.0
C1811 C 0.09116 0.80891 0.80362 0.0
C1812 C 0.07584 0.82393 0.79301 0.0
C1813 C 0.09948 0.77208 0.81226 0.0
C1814 C 0.09611 0.77501 0.83006 0.0
C1815 C 0.11633 0.75387 0.80613 0.0
C1816 C 0.12262 0.75001 0.7876 0.0
C1817 C 0.14228 0.76425 0.77748 0.0
C1818 C 0.14694 0.76079 0.75992 0.0
C1819 C 0.1324 0.74304 0.75237 0.0
C1820 C 0.11328 0.72868 0.76238 0.0
C1821 C 0.10845 0.73209 0.77993 0.0
H1822 H 0.13599 0.74041 0.73877 0.0
H1823 H 0.09043 0.77413 0.90917 0.0
loop_
_geom_bond_atom_site_label_1
_geom_bond_atom_site_label_2
_geom_bond_distance
_geom_bond_site_symmetry_2
_ccdc_geom_bond_type
C0 C1 1.384 . S
C0 H13 0.947 . S
C0 C35 1.382 . S
C1 C0 1.384 . S
C1 C2 1.378 . S
C2 C1 1.378 . S
C2 C3 1.378 . S
C2 H14 0.952 . S
C3 C2 1.378 . S
C3 H15 0.950 . S
C3 C34 1.383 . S
H4 C23 0.947 . S
H5 C24 0.946 . S
H6 C26 0.953 . S
H7 C27 0.945 . S
H8 C29 0.952 . S
H9 C30 0.949 . S
H10 C32 0.950 . S
H11 C33 0.948 . S
H12 C35 0.951 . S
H13 C0 0.947 . S
H14 C2 0.952 . S
H15 C3 0.950 . S
N16 C19 1.382 . S
N16 C21 1.363 . S
N17 C19 1.371 . S
N17 C20 1.372 . S
N18 C20 1.361 . S
N18 C21 1.377 . S
C19 N16 1.382 . S
C19 N17 1.371 . S
C19 C22 1.480 . S
C20 N17 1.372 . S
C20 N18 1.361 . S
C20 C28 1.457 . S
C21 N16 1.363 . S
C21 N18 1.377 . S
C21 C34 1.479 . S
C22 C19 1.480 . S
C22 C23 1.383 . S
C22 C27 1.385 . S
C23 H4 0.947 . S
C23 C22 1.383 . S
C23 C24 1.388 . S
C24 H5 0.946 . S
C24 C23 1.388 . S
C24 C25 1.384 . S
C25 C24 1.384 . S
C25 C26 1.377 . S
C26 H6 0.953 . S
C26 C25 1.377 . S
C26 C27 1.369 . S
C27 H7 0.945 . S
C27 C22 1.385 . S
C27 C26 1.369 . S
C28 C20 1.457 . S
C28 C29 1.372 . S
C28 C33 1.364 . S
C29 H8 0.952 . S
C29 C28 1.372 . S
C29 C30 1.389 . S
C30 H9 0.949 . S
C30 C29 1.389 . S
C30 C31 1.387 . S
C31 C30 1.387 . S
C31 C32 1.372 . S
C32 H10 0.950 . S
C32 C31 1.372 . S
C32 C33 1.379 . S
C33 H11 0.948 . S
C33 C28 1.364 . S
C33 C32 1.379 . S
C34 C3 1.383 . S
C34 C21 1.479 . S
C34 C35 1.398 . S
C35 C0 1.382 . S
C35 H12 0.951 . S
C35 C34 1.398 . S
C36 C37 1.384 . S
C36 H49 0.947 . S
C36 C71 1.382 . S
C37 C36 1.384 . S
C37 C38 1.378 . S
C38 C37 1.378 . S
C38 C39 1.378 . S
C38 H50 0.952 . S
C39 C38 1.378 . S
C39 H51 0.950 . S
C39 C70 1.383 . S
H40 C59 0.947 . S
H41 C60 0.946 . S
H42 C62 0.953 . S
H43 C63 0.945 . S
H44 C65 0.952 . S
H45 C66 0.949 . S
H46 C68 0.950 . S
H47 C69 0.948 . S
H48 C71 0.951 . S
H49 C36 0.947 . S
H50 C38 0.952 . S
H51 C39 0.950 . S
N52 C55 1.382 . S
N52 C57 1.363 . S
N53 C55 1.371 . S
N53 C56 1.372 . S
N54 C56 1.361 . S
N54 C57 1.377 . S
C55 N52 1.382 . S
C55 N53 1.371 . S
C55 C58 1.480 . S
C56 N53 1.372 . S
C56 N54 1.361 . S
C56 C64 1.457 . S
C57 N52 1.363 . S
C57 N54 1.377 . S
C57 C70 1.479 . S
C58 C55 1.480 . S
C58 C59 1.383 . S
C58 C63 1.385 . S
C59 H40 0.947 . S
C59 C58 1.383 . S
C59 C60 1.388 . S
C60 H41 0.946 . S
C60 C59 1.388 . S
C60 C61 1.384 . S
C61 C60 1.384 . S
C61 C62 1.377 . S
C62 H42 0.953 . S
C62 C61 1.377 . S
C62 C63 1.369 . S
C63 H43 0.945 . S
C63 C58 1.385 . S
C63 C62 1.369 . S
C64 C56 1.457 . S
C64 C65 1.372 . S
C64 C69 1.364 . S
C65 H44 0.952 . S
C65 C64 1.372 . S
C65 C66 1.389 . S
C66 H45 0.949 . S
C66 C65 1.389 . S
C66 C67 1.387 . S
C67 C66 1.387 . S
C67 C68 1.372 . S
C68 H46 0.950 . S
C68 C67 1.372 . S
C68 C69 1.379 . S
C69 H47 0.948 . S
C69 C64 1.364 . S
C69 C68 1.379 . S
C70 C39 1.383 . S
C70 C57 1.479 . S
C70 C71 1.398 . S
C71 C36 1.382 . S
C71 H48 0.951 . S
C71 C70 1.398 . S
C72 C73 1.384 . S
C72 H85 0.947 . S
C72 C107 1.382 . S
C73 C72 1.384 . S
C73 C74 1.378 . S
C74 C73 1.378 . S
C74 C75 1.378 . S
C74 H86 0.952 . S
C75 C74 1.378 . S
C75 H87 0.950 . S
C75 C106 1.383 . S
H76 C95 0.947 . S
H77 C96 0.946 . S
H78 C98 0.953 . S
H79 C99 0.945 . S
H80 C101 0.952 . S
H81 C102 0.949 . S
H82 C104 0.950 . S
H83 C105 0.948 . S
H84 C107 0.951 . S
H85 C72 0.947 . S
H86 C74 0.952 . S
H87 C75 0.950 . S
N88 C91 1.382 . S
N88 C93 1.363 . S
N89 C91 1.371 . S
N89 C92 1.372 . S
N90 C92 1.361 . S
N90 C93 1.377 . S
C91 N88 1.382 . S
C91 N89 1.371 . S
C91 C94 1.480 . S
C92 N89 1.372 . S
C92 N90 1.361 . S
C92 C100 1.457 . S
C93 N88 1.363 . S
C93 N90 1.377 . S
C93 C106 1.479 . S
C94 C91 1.480 . S
C94 C95 1.383 . S
C94 C99 1.385 . S
C95 H76 0.947 . S
C95 C94 1.383 . S
C95 C96 1.388 . S
C96 H77 0.946 . S
C96 C95 1.388 . S
C96 C97 1.384 . S
C97 C96 1.384 . S
C97 C98 1.377 . S
C98 H78 0.953 . S
C98 C97 1.377 . S
C98 C99 1.369 . S
C99 H79 0.945 . S
C99 C94 1.385 . S
C99 C98 1.369 . S
C100 C92 1.457 . S
C100 C101 1.372 . S
C100 C105 1.364 . S
C101 H80 0.952 . S
C101 C100 1.372 . S
C101 C102 1.389 . S
C102 H81 0.949 . S
C102 C101 1.389 . S
C102 C103 1.387 . S
C103 C102 1.387 . S
C103 C104 1.372 . S
C104 H82 0.950 . S
C104 C103 1.372 . S
C104 C105 1.379 . S
C105 H83 0.948 . S
C105 C100 1.364 . S
C105 C104 1.379 . S
C106 C75 1.383 . S
C106 C93 1.479 . S
C106 C107 1.398 . S
C107 C72 1.382 . S
C107 H84 0.951 . S
C107 C106 1.398 . S
C108 C109 1.384 . S
C108 H121 0.947 . S
C108 C143 1.382 . S
C109 C108 1.384 . S
C109 C110 1.378 . S
C110 C109 1.378 . S
C110 C111 1.378 . S
C110 H122 0.952 . S
C111 C110 1.378 . S
C111 H123 0.950 . S
C111 C142 1.383 . S
H112 C131 0.947 . S
H113 C132 0.946 . S
H114 C134 0.953 . S
H115 C135 0.945 . S
H116 C137 0.952 . S
H117 C138 0.949 . S
H118 C140 0.950 . S
H119 C141 0.948 . S
H120 C143 0.951 . S
H121 C108 0.947 . S
H122 C110 0.952 . S
H123 C111 0.950 . S
N124 C127 1.382 . S
N124 C129 1.363 . S
N125 C127 1.371 . S
N125 C128 1.372 . S
N126 C128 1.361 . S
N126 C129 1.377 . S
C127 N124 1.382 . S
C127 N125 1.371 . S
C127 C130 1.480 . S
C128 N125 1.372 . S
C128 N126 1.361 . S
C128 C136 1.457 . S
C129 N124 1.363 . S
C129 N126 1.377 . S
C129 C142 1.479 . S
C130 C127 1.480 . S
C130 C131 1.383 . S
C130 C135 1.385 . S
C131 H112 0.947 . S
C131 C130 1.383 . S
C131 C132 1.388 . S
C132 H113 0.946 . S
C132 C131 1.388 . S
C132 C133 1.384 . S
C133 C132 1.384 . S
C133 C134 1.377 . S
C134 H114 0.953 . S
C134 C133 1.377 . S
C134 C135 1.369 . S
C135 H115 0.945 . S
C135 C130 1.385 . S
C135 C134 1.369 . S
C136 C128 1.457 . S
C136 C137 1.372 . S
C136 C141 1.364 . S
C137 H116 0.952 . S
C137 C136 1.372 . S
C137 C138 1.389 . S
C138 H117 0.949 . S
C138 C137 1.389 . S
C138 C139 1.387 . S
C139 C138 1.387 . S
C139 C140 1.372 . S
C140 H118 0.950 . S
C140 C139 1.372 . S
C140 C141 1.379 . S
C141 H119 0.948 . S
C141 C136 1.364 . S
C141 C140 1.379 . S
C142 C111 1.383 . S
C142 C129 1.479 . S
C142 C143 1.398 . S
C143 C108 1.382 . S
C143 H120 0.951 . S
C143 C142 1.398 . S
C144 C145 1.384 . S
C144 H157 0.947 . S
C144 C179 1.382 . S
C145 C144 1.384 . S
C145 C146 1.378 . S
C146 C145 1.378 . S
C146 C147 1.378 . S
C146 H158 0.952 . S
C147 C146 1.378 . S
C147 H159 0.950 . S
C147 C178 1.383 . S
H148 C167 0.947 . S
H149 C168 0.946 . S
H150 C170 0.953 . S
H151 C171 0.945 . S
H152 C173 0.952 . S
H153 C174 0.949 . S
H154 C176 0.950 . S
H155 C177 0.948 . S
H156 C179 0.951 . S
H157 C144 0.947 . S
H158 C146 0.952 . S
H159 C147 0.950 . S
N160 C163 1.382 . S
N160 C165 1.363 . S
N161 C163 1.371 . S
N161 C164 1.372 . S
N162 C164 1.361 . S
N162 C165 1.377 . S
C163 N160 1.382 . S
C163 N161 1.371 . S
C163 C166 1.480 . S
C164 N161 1.372 . S
C164 N162 1.361 . S
C164 C172 1.457 . S
C165 N160 1.363 . S
C165 N162 1.377 . S
C165 C178 1.479 . S
C166 C163 1.480 . S
C166 C167 1.383 . S
C166 C171 1.385 . S
C167 H148 0.947 . S
C167 C166 1.383 . S
C167 C168 1.388 . S
C168 H149 0.946 . S
C168 C167 1.388 . S
C168 C169 1.384 . S
C169 C168 1.384 . S
C169 C170 1.377 . S
C170 H150 0.953 . S
C170 C169 1.377 . S
C170 C171 1.369 . S
C171 H151 0.945 . S
C171 C166 1.385 . S
C171 C170 1.369 . S
C172 C164 1.457 . S
C172 C173 1.372 . S
C172 C177 1.364 . S
C173 H152 0.952 . S
C173 C172 1.372 . S
C173 C174 1.389 . S
C174 H153 0.949 . S
C174 C173 1.389 . S
C174 C175 1.387 . S
C175 C174 1.387 . S
C175 C176 1.372 . S
C176 H154 0.950 . S
C176 C175 1.372 . S
C176 C177 1.379 . S
C177 H155 0.948 . S
C177 C172 1.364 . S
C177 C176 1.379 . S
C178 C147 1.383 . S
C178 C165 1.479 . S
C178 C179 1.398 . S
C179 C144 1.382 . S
C179 H156 0.951 . S
C179 C178 1.398 . S
C180 C181 1.384 . S
C180 H193 0.947 . S
C180 C215 1.382 . S
C181 C180 1.384 . S
C181 C182 1.378 . S
C182 C181 1.378 . S
C182 C183 1.378 . S
C182 H194 0.952 . S
C183 C182 1.378 . S
C183 H195 0.950 . S
C183 C214 1.383 . S
H184 C203 0.947 . S
H185 C204 0.946 . S
H186 C206 0.953 . S
H187 C207 0.945 . S
H188 C209 0.952 . S
H189 C210 0.949 . S
H190 C212 0.950 . S
H191 C213 0.948 . S
H192 C215 0.951 . S
H193 C180 0.947 . S
H194 C182 0.952 . S
H195 C183 0.950 . S
N196 C199 1.382 . S
N196 C201 1.363 . S
N197 C199 1.371 . S
N197 C200 1.372 . S
N198 C200 1.361 . S
N198 C201 1.377 . S
C199 N196 1.382 . S
C199 N197 1.371 . S
C199 C202 1.480 . S
C200 N197 1.372 . S
C200 N198 1.361 . S
C200 C208 1.457 . S
C201 N196 1.363 . S
C201 N198 1.377 . S
C201 C214 1.479 . S
C202 C199 1.480 . S
C202 C203 1.383 . S
C202 C207 1.385 . S
C203 H184 0.947 . S
C203 C202 1.383 . S
C203 C204 1.388 . S
C204 H185 0.946 . S
C204 C203 1.388 . S
C204 C205 1.384 . S
C205 C204 1.384 . S
C205 C206 1.377 . S
C206 H186 0.953 . S
C206 C205 1.377 . S
C206 C207 1.369 . S
C207 H187 0.945 . S
C207 C202 1.385 . S
C207 C206 1.369 . S
C208 C200 1.457 . S
C208 C209 1.372 . S
C208 C213 1.364 . S
C209 H188 0.952 . S
C209 C208 1.372 . S
C209 C210 1.389 . S
C210 H189 0.949 . S
C210 C209 1.389 . S
C210 C211 1.387 . S
C211 C210 1.387 . S
C211 C212 1.372 . S
C212 H190 0.950 . S
C212 C211 1.372 . S
C212 C213 1.379 . S
C213 H191 0.948 . S
C213 C208 1.364 . S
C213 C212 1.379 . S
C214 C183 1.383 . S
C214 C201 1.479 . S
C214 C215 1.398 . S
C215 C180 1.382 . S
C215 H192 0.951 . S
C215 C214 1.398 . S
C216 C217 1.384 . S
C216 H229 0.947 . S
C216 C251 1.382 . S
C217 C216 1.384 . S
C217 C218 1.378 . S
C218 C217 1.378 . S
C218 C219 1.378 . S
C218 H230 0.952 . S
C219 C218 1.378 . S
C219 H231 0.950 . S
C219 C250 1.383 . S
H220 C239 0.947 . S
H221 C240 0.946 . S
H222 C242 0.953 . S
H223 C243 0.945 . S
H224 C245 0.952 . S
H225 C246 0.949 . S
H226 C248 0.950 . S
H227 C249 0.948 . S
H228 C251 0.951 . S
H229 C216 0.947 . S
H230 C218 0.952 . S
H231 C219 0.950 . S
N232 C235 1.382 . S
N232 C237 1.363 . S
N233 C235 1.371 . S
N233 C236 1.372 . S
N234 C236 1.361 . S
N234 C237 1.377 . S
C235 N232 1.382 . S
C235 N233 1.371 . S
C235 C238 1.480 . S
C236 N233 1.372 . S
C236 N234 1.361 . S
C236 C244 1.457 . S
C237 N232 1.363 . S
C237 N234 1.377 . S
C237 C250 1.479 . S
C238 C235 1.480 . S
C238 C239 1.383 . S
C238 C243 1.385 . S
C239 H220 0.947 . S
C239 C238 1.383 . S
C239 C240 1.388 . S
C240 H221 0.946 . S
C240 C239 1.388 . S
C240 C241 1.384 . S
C241 C240 1.384 . S
C241 C242 1.377 . S
C242 H222 0.953 . S
C242 C241 1.377 . S
C242 C243 1.369 . S
C243 H223 0.945 . S
C243 C238 1.385 . S
C243 C242 1.369 . S
C244 C236 1.457 . S
C244 C245 1.372 . S
C244 C249 1.364 . S
C245 H224 0.952 . S
C245 C244 1.372 . S
C245 C246 1.389 . S
C246 H225 0.949 . S
C246 C245 1.389 . S
C246 C247 1.387 . S
C247 C246 1.387 . S
C247 C248 1.372 . S
C248 H226 0.950 . S
C248 C247 1.372 . S
C248 C249 1.379 . S
C249 H227 0.948 . S
C249 C244 1.364 . S
C249 C248 1.379 . S
C250 C219 1.383 . S
C250 C237 1.479 . S
C250 C251 1.398 . S
C251 C216 1.382 . S
C251 H228 0.951 . S
C251 C250 1.398 . S
C252 C253 1.384 . S
C252 H265 0.947 . S
C252 C287 1.382 . S
C253 C252 1.384 . S
C253 C254 1.378 . S
C254 C253 1.378 . S
C254 C255 1.378 . S
C254 H266 0.952 . S
C255 C254 1.378 . S
C255 H267 0.950 . S
C255 C286 1.383 . S
H256 C275 0.947 . S
H257 C276 0.946 . S
H258 C278 0.953 . S
H259 C279 0.945 . S
H260 C281 0.952 . S
H261 C282 0.949 . S
H262 C284 0.950 . S
H263 C285 0.948 . S
H264 C287 0.951 . S
H265 C252 0.947 . S
H266 C254 0.952 . S
H267 C255 0.950 . S
N268 C271 1.382 . S
N268 C273 1.363 . S
N269 C271 1.371 . S
N269 C272 1.372 . S
N270 C272 1.361 . S
N270 C273 1.377 . S
C271 N268 1.382 . S
C271 N269 1.371 . S
C271 C274 1.480 . S
C272 N269 1.372 . S
C272 N270 1.361 . S
C272 C280 1.457 . S
C273 N268 1.363 . S
C273 N270 1.377 . S
C273 C286 1.479 . S
C274 C271 1.480 . S
C274 C275 1.383 . S
C274 C279 1.385 . S
C275 H256 0.947 . S
C275 C274 1.383 . S
C275 C276 1.388 . S
C276 H257 0.946 . S
C276 C275 1.388 . S
C276 C277 1.384 . S
C277 C276 1.384 . S
C277 C278 1.377 . S
C278 H258 0.953 . S
C278 C277 1.377 . S
C278 C279 1.369 . S
C279 H259 0.945 . S
C279 C274 1.385 . S
C279 C278 1.369 . S
C280 C272 1.457 . S
C280 C281 1.372 . S
C280 C285 1.364 . S
C281 H260 0.952 . S
C281 C280 1.372 . S
C281 C282 1.389 . S
C282 H261 0.949 . S
C282 C281 1.389 . S
C282 C283 1.387 . S
C283 C282 1.387 . S
C283 C284 1.372 . S
C284 H262 0.950 . S
C284 C283 1.372 . S
C284 C285 1.379 . S
C285 H263 0.948 . S
C285 C280 1.364 . S
C285 C284 1.379 . S
C286 C255 1.383 . S
C286 C273 1.479 . S
C286 C287 1.398 . S
C287 C252 1.382 . S
C287 H264 0.951 . S
C287 C286 1.398 . S
Eu288 N317 2.600 . S
Eu288 N323 2.562 . S
Eu288 O332 2.462 . S
Eu288 O333 2.373 . S
Eu288 O335 2.432 . S
Eu288 O336 2.291 . S
Eu288 O340 2.335 . S
Eu288 O343 2.372 . S
Eu288 C352 2.787 . S
C289 N290 1.365 . S
C289 C292 1.405 . S
C289 C296 1.448 . S
N290 C289 1.365 . S
N290 C293 1.319 . S
N290 Eu299 2.600 . S
C291 C293 1.397 . S
C291 C294 1.367 . S
C291 H311 0.931 . S
C292 C289 1.405 . S
C292 C294 1.403 . S
C292 C298 1.439 . S
C293 N290 1.319 . S
C293 C291 1.397 . S
C293 H304 0.930 . S
C294 C291 1.367 . S
C294 C292 1.403 . S
C294 H315 0.929 . S
C295 C296 1.430 . S
C295 C297 1.387 . S
C295 C301 1.404 . S
C296 C289 1.448 . S
C296 C295 1.430 . S
C296 N300 1.351 . S
C297 C295 1.387 . S
C297 C298 1.374 . S
C297 H312 0.931 . S
C298 C292 1.439 . S
C298 C297 1.374 . S
C298 H313 0.931 . S
Eu299 N290 2.600 . S
Eu299 N300 2.562 . S
Eu299 O334 2.335 1_655 S
Eu299 O337 2.372 . S
Eu299 O338 2.462 . S
Eu299 O339 2.373 . S
Eu299 O341 2.432 . S
Eu299 O342 2.291 1_655 S
Eu299 C363 2.787 . S
N300 C296 1.351 . S
N300 Eu299 2.562 . S
N300 C302 1.325 . S
C301 C295 1.404 . S
C301 C303 1.366 . S
C301 H309 0.930 . S
C302 N300 1.325 . S
C302 C303 1.416 . S
C302 H308 0.929 . S
C303 C301 1.366 . S
C303 C302 1.416 . S
C303 H305 0.930 . S
H304 C293 0.930 . S
H305 C303 0.930 . S
H306 C321 0.930 . S
H307 C328 0.930 . S
H308 C302 0.929 . S
H309 C301 0.930 . S
H310 C324 0.929 . S
H311 C291 0.931 . S
H312 C297 0.931 . S
H313 C298 0.931 . S
H314 C319 0.931 . S
H315 C294 0.929 . S
H316 C327 0.930 . S
N317 Eu288 2.600 . S
N317 C318 1.365 . S
N317 C321 1.319 . S
C318 N317 1.365 . S
C318 C320 1.405 . S
C318 C326 1.448 . S
C319 H314 0.931 . S
C319 C321 1.397 . S
C319 C322 1.367 . S
C320 C318 1.405 . S
C320 C322 1.403 . S
C320 C353 1.439 . S
C321 H306 0.930 . S
C321 N317 1.319 . S
C321 C319 1.397 . S
C322 C319 1.367 . S
C322 C320 1.403 . S
C322 H329 0.929 . S
N323 Eu288 2.562 . S
N323 C324 1.325 . S
N323 C326 1.351 . S
C324 H310 0.929 . S
C324 N323 1.325 . S
C324 C328 1.416 . S
C325 C326 1.430 . S
C325 C327 1.404 . S
C325 C354 1.387 . S
C326 C318 1.448 . S
C326 N323 1.351 . S
C326 C325 1.430 . S
C327 H316 0.930 . S
C327 C325 1.404 . S
C327 C328 1.366 . S
C328 H307 0.930 . S
C328 C324 1.416 . S
C328 C327 1.366 . S
H329 C322 0.929 . S
H330 C353 0.931 . S
H331 C354 0.931 . S
O332 Eu288 2.462 . S
O332 C352 1.252 . S
O333 Eu288 2.373 . S
O333 C344 1.249 . S
O334 Eu299 2.335 1_455 S
O334 C344 1.264 . S
O335 Eu288 2.432 . S
O335 C352 1.268 . S
O336 Eu288 2.291 . S
O336 C351 1.255 1_455 S
O337 Eu299 2.372 . S
O337 C351 1.257 . S
O338 Eu299 2.462 . S
O338 C363 1.252 . S
O339 Eu299 2.373 . S
O339 C355 1.249 . S
O340 Eu288 2.335 . S
O340 C355 1.264 1_455 S
O341 Eu299 2.432 . S
O341 C363 1.268 . S
O342 Eu299 2.291 1_455 S
O342 C362 1.255 . S
O343 Eu288 2.372 . S
O343 C362 1.257 . S
C344 O333 1.249 . S
C344 O334 1.264 . S
C345 C348 1.382 . S
C345 C350 1.390 . S
C345 C352 1.506 . S
C346 C347 1.398 . S
C346 C350 1.392 . S
C347 C346 1.398 . S
C347 C349 1.372 . S
C347 H364 0.931 . S
C348 C345 1.382 . S
C348 C349 1.390 . S
C348 H365 0.931 . S
C349 C347 1.372 . S
C349 C348 1.390 . S
C349 H366 0.929 . S
C350 C345 1.390 . S
C350 C346 1.392 . S
C350 H367 0.930 . S
C351 O336 1.255 1_655 S
C351 O337 1.257 . S
C352 Eu288 2.787 . S
C352 O332 1.252 . S
C352 O335 1.268 . S
C352 C345 1.506 . S
C353 C320 1.439 . S
C353 H330 0.931 . S
C353 C354 1.374 . S
C354 C325 1.387 . S
C354 H331 0.931 . S
C354 C353 1.374 . S
C355 O339 1.249 . S
C355 O340 1.264 1_655 S
C356 C359 1.382 . S
C356 C360 1.390 . S
C356 C363 1.506 . S
C357 C358 1.398 . S
C357 C360 1.392 . S
C358 C357 1.398 . S
C358 C361 1.372 . S
C358 H368 0.931 . S
C359 C356 1.382 . S
C359 C361 1.390 . S
C359 H369 0.931 . S
C360 C356 1.390 . S
C360 C357 1.392 . S
C360 H370 0.930 . S
C361 C358 1.372 . S
C361 C359 1.390 . S
C361 H371 0.929 . S
C362 O342 1.255 . S
C362 O343 1.257 . S
C363 Eu299 2.787 . S
C363 O338 1.252 . S
C363 O341 1.268 . S
C363 C356 1.506 . S
H364 C347 0.931 . S
H365 C348 0.931 . S
H366 C349 0.929 . S
H367 C350 0.930 . S
H368 C358 0.931 . S
H369 C359 0.931 . S
H370 C360 0.930 . S
H371 C361 0.929 . S
Eu372 N401 2.600 . S
Eu372 N407 2.562 . S
Eu372 O416 2.462 . S
Eu372 O417 2.373 . S
Eu372 O419 2.432 . S
Eu372 O420 2.291 . S
Eu372 O424 2.335 . S
Eu372 O427 2.372 . S
Eu372 C436 2.787 . S
C373 N374 1.365 . S
C373 C376 1.405 . S
C373 C380 1.448 . S
N374 C373 1.365 . S
N374 C377 1.319 . S
N374 Eu383 2.600 . S
C375 C377 1.397 . S
C375 C378 1.367 . S
C375 H395 0.931 . S
C376 C373 1.405 . S
C376 C378 1.403 . S
C376 C382 1.439 . S
C377 N374 1.319 . S
C377 C375 1.397 . S
C377 H388 0.930 . S
C378 C375 1.367 . S
C378 C376 1.403 . S
C378 H399 0.929 . S
C379 C380 1.430 . S
C379 C381 1.387 . S
C379 C385 1.404 . S
C380 C373 1.448 . S
C380 C379 1.430 . S
C380 N384 1.351 . S
C381 C379 1.387 . S
C381 C382 1.374 . S
C381 H396 0.931 . S
C382 C376 1.439 . S
C382 C381 1.374 . S
C382 H397 0.931 . S
Eu383 N374 2.600 . S
Eu383 N384 2.562 . S
Eu383 O418 2.335 . S
Eu383 O421 2.372 . S
Eu383 O422 2.462 . S
Eu383 O423 2.373 . S
Eu383 O425 2.432 . S
Eu383 O426 2.291 . S
Eu383 C447 2.787 . S
N384 C380 1.351 . S
N384 Eu383 2.562 . S
N384 C386 1.325 . S
C385 C379 1.404 . S
C385 C387 1.366 . S
C385 H393 0.930 . S
C386 N384 1.325 . S
C386 C387 1.416 . S
C386 H392 0.929 . S
C387 C385 1.366 . S
C387 C386 1.416 . S
C387 H389 0.930 . S
H388 C377 0.930 . S
H389 C387 0.930 . S
H390 C405 0.930 . S
H391 C412 0.930 . S
H392 C386 0.929 . S
H393 C385 0.930 . S
H394 C408 0.929 . S
H395 C375 0.931 . S
H396 C381 0.931 . S
H397 C382 0.931 . S
H398 C403 0.931 . S
H399 C378 0.929 . S
H400 C411 0.930 . S
N401 Eu372 2.600 . S
N401 C402 1.365 . S
N401 C405 1.319 . S
C402 N401 1.365 . S
C402 C404 1.405 . S
C402 C410 1.448 . S
C403 H398 0.931 . S
C403 C405 1.397 . S
C403 C406 1.367 . S
C404 C402 1.405 . S
C404 C406 1.403 . S
C404 C437 1.439 . S
C405 H390 0.930 . S
C405 N401 1.319 . S
C405 C403 1.397 . S
C406 C403 1.367 . S
C406 C404 1.403 . S
C406 H413 0.929 . S
N407 Eu372 2.562 . S
N407 C408 1.325 . S
N407 C410 1.351 . S
C408 H394 0.929 . S
C408 N407 1.325 . S
C408 C412 1.416 . S
C409 C410 1.430 . S
C409 C411 1.404 . S
C409 C438 1.387 . S
C410 C402 1.448 . S
C410 N407 1.351 . S
C410 C409 1.430 . S
C411 H400 0.930 . S
C411 C409 1.404 . S
C411 C412 1.366 . S
C412 H391 0.930 . S
C412 C408 1.416 . S
C412 C411 1.366 . S
H413 C406 0.929 . S
H414 C437 0.931 . S
H415 C438 0.931 . S
O416 Eu372 2.462 . S
O416 C436 1.252 . S
O417 Eu372 2.373 . S
O417 C428 1.249 . S
O418 Eu383 2.335 . S
O418 C428 1.264 . S
O419 Eu372 2.432 . S
O419 C436 1.268 . S
O420 Eu372 2.291 . S
O420 C435 1.255 . S
O421 Eu383 2.372 . S
O421 C435 1.257 . S
O422 Eu383 2.462 . S
O422 C447 1.252 . S
O423 Eu383 2.373 . S
O423 C439 1.249 . S
O424 Eu372 2.335 . S
O424 C439 1.264 . S
O425 Eu383 2.432 . S
O425 C447 1.268 . S
O426 Eu383 2.291 . S
O426 C446 1.255 . S
O427 Eu372 2.372 . S
O427 C446 1.257 . S
C428 O417 1.249 . S
C428 O418 1.264 . S
C429 C432 1.382 . S
C429 C434 1.390 . S
C429 C436 1.506 . S
C430 C431 1.398 . S
C430 C434 1.392 . S
C431 C430 1.398 . S
C431 C433 1.372 . S
C431 H448 0.931 . S
C432 C429 1.382 . S
C432 C433 1.390 . S
C432 H449 0.931 . S
C433 C431 1.372 . S
C433 C432 1.390 . S
C433 H450 0.929 . S
C434 C429 1.390 . S
C434 C430 1.392 . S
C434 H451 0.930 . S
C435 O420 1.255 . S
C435 O421 1.257 . S
C436 Eu372 2.787 . S
C436 O416 1.252 . S
C436 O419 1.268 . S
C436 C429 1.506 . S
C437 C404 1.439 . S
C437 H414 0.931 . S
C437 C438 1.374 . S
C438 C409 1.387 . S
C438 H415 0.931 . S
C438 C437 1.374 . S
C439 O423 1.249 . S
C439 O424 1.264 . S
C440 C443 1.382 . S
C440 C444 1.390 . S
C440 C447 1.506 . S
C441 C442 1.398 . S
C441 C444 1.392 . S
C442 C441 1.398 . S
C442 C445 1.372 . S
C442 H452 0.931 . S
C443 C440 1.382 . S
C443 C445 1.390 . S
C443 H453 0.931 . S
C444 C440 1.390 . S
C444 C441 1.392 . S
C444 H454 0.930 . S
C445 C442 1.372 . S
C445 C443 1.390 . S
C445 H455 0.929 . S
C446 O426 1.255 . S
C446 O427 1.257 . S
C447 Eu383 2.787 . S
C447 O422 1.252 . S
C447 O425 1.268 . S
C447 C440 1.506 . S
H448 C431 0.931 . S
H449 C432 0.931 . S
H450 C433 0.929 . S
H451 C434 0.930 . S
H452 C442 0.931 . S
H453 C443 0.931 . S
H454 C444 0.930 . S
H455 C445 0.929 . S
Eu456 N485 2.600 . S
Eu456 N491 2.562 . S
Eu456 O500 2.462 . S
Eu456 O501 2.373 . S
Eu456 O503 2.432 . S
Eu456 O504 2.291 . S
Eu456 O508 2.335 . S
Eu456 O511 2.372 . S
Eu456 C520 2.787 . S
C457 N458 1.365 . S
C457 C460 1.405 . S
C457 C464 1.448 . S
N458 C457 1.365 . S
N458 C461 1.319 . S
N458 Eu467 2.600 . S
C459 C461 1.397 . S
C459 C462 1.367 . S
C459 H479 0.931 . S
C460 C457 1.405 . S
C460 C462 1.403 . S
C460 C466 1.439 . S
C461 N458 1.319 . S
C461 C459 1.397 . S
C461 H472 0.930 . S
C462 C459 1.367 . S
C462 C460 1.403 . S
C462 H483 0.929 . S
C463 C464 1.430 . S
C463 C465 1.387 . S
C463 C469 1.404 . S
C464 C457 1.448 . S
C464 C463 1.430 . S
C464 N468 1.351 . S
C465 C463 1.387 . S
C465 C466 1.374 . S
C465 H480 0.931 . S
C466 C460 1.439 . S
C466 C465 1.374 . S
C466 H481 0.931 . S
Eu467 N458 2.600 . S
Eu467 N468 2.562 . S
Eu467 O502 2.335 1_655 S
Eu467 O505 2.372 . S
Eu467 O506 2.462 . S
Eu467 O507 2.373 . S
Eu467 O509 2.432 . S
Eu467 O510 2.291 1_655 S
Eu467 C531 2.787 . S
N468 C464 1.351 . S
N468 Eu467 2.562 . S
N468 C470 1.325 . S
C469 C463 1.404 . S
C469 C471 1.366 . S
C469 H477 0.930 . S
C470 N468 1.325 . S
C470 C471 1.416 . S
C470 H476 0.929 . S
C471 C469 1.366 . S
C471 C470 1.416 . S
C471 H473 0.930 . S
H472 C461 0.930 . S
H473 C471 0.930 . S
H474 C489 0.930 . S
H475 C496 0.930 . S
H476 C470 0.929 . S
H477 C469 0.930 . S
H478 C492 0.929 . S
H479 C459 0.931 . S
H480 C465 0.931 . S
H481 C466 0.931 . S
H482 C487 0.931 . S
H483 C462 0.929 . S
H484 C495 0.930 . S
N485 Eu456 2.600 . S
N485 C486 1.365 . S
N485 C489 1.319 . S
C486 N485 1.365 . S
C486 C488 1.405 . S
C486 C494 1.448 . S
C487 H482 0.931 . S
C487 C489 1.397 . S
C487 C490 1.367 . S
C488 C486 1.405 . S
C488 C490 1.403 . S
C488 C521 1.439 . S
C489 H474 0.930 . S
C489 N485 1.319 . S
C489 C487 1.397 . S
C490 C487 1.367 . S
C490 C488 1.403 . S
C490 H497 0.929 . S
N491 Eu456 2.562 . S
N491 C492 1.325 . S
N491 C494 1.351 . S
C492 H478 0.929 . S
C492 N491 1.325 . S
C492 C496 1.416 . S
C493 C494 1.430 . S
C493 C495 1.404 . S
C493 C522 1.387 . S
C494 C486 1.448 . S
C494 N491 1.351 . S
C494 C493 1.430 . S
C495 H484 0.930 . S
C495 C493 1.404 . S
C495 C496 1.366 . S
C496 H475 0.930 . S
C496 C492 1.416 . S
C496 C495 1.366 . S
H497 C490 0.929 . S
H498 C521 0.931 . S
H499 C522 0.931 . S
O500 Eu456 2.462 . S
O500 C520 1.252 . S
O501 Eu456 2.373 . S
O501 C512 1.249 . S
O502 Eu467 2.335 1_455 S
O502 C512 1.264 . S
O503 Eu456 2.432 . S
O503 C520 1.268 . S
O504 Eu456 2.291 . S
O504 C519 1.255 1_455 S
O505 Eu467 2.372 . S
O505 C519 1.257 . S
O506 Eu467 2.462 . S
O506 C531 1.252 . S
O507 Eu467 2.373 . S
O507 C523 1.249 . S
O508 Eu456 2.335 . S
O508 C523 1.264 1_455 S
O509 Eu467 2.432 . S
O509 C531 1.268 . S
O510 Eu467 2.291 1_455 S
O510 C530 1.255 . S
O511 Eu456 2.372 . S
O511 C530 1.257 . S
C512 O501 1.249 . S
C512 O502 1.264 . S
C513 C516 1.382 . S
C513 C518 1.390 . S
C513 C520 1.506 . S
C514 C515 1.398 . S
C514 C518 1.392 . S
C515 C514 1.398 . S
C515 C517 1.372 . S
C515 H532 0.931 . S
C516 C513 1.382 . S
C516 C517 1.390 . S
C516 H533 0.931 . S
C517 C515 1.372 . S
C517 C516 1.390 . S
C517 H534 0.929 . S
C518 C513 1.390 . S
C518 C514 1.392 . S
C518 H535 0.930 . S
C519 O504 1.255 1_655 S
C519 O505 1.257 . S
C520 Eu456 2.787 . S
C520 O500 1.252 . S
C520 O503 1.268 . S
C520 C513 1.506 . S
C521 C488 1.439 . S
C521 H498 0.931 . S
C521 C522 1.374 . S
C522 C493 1.387 . S
C522 H499 0.931 . S
C522 C521 1.374 . S
C523 O507 1.249 . S
C523 O508 1.264 1_655 S
C524 C527 1.382 . S
C524 C528 1.390 . S
C524 C531 1.506 . S
C525 C526 1.398 . S
C525 C528 1.392 . S
C526 C525 1.398 . S
C526 C529 1.372 . S
C526 H536 0.931 . S
C527 C524 1.382 . S
C527 C529 1.390 . S
C527 H537 0.931 . S
C528 C524 1.390 . S
C528 C525 1.392 . S
C528 H538 0.930 . S
C529 C526 1.372 . S
C529 C527 1.390 . S
C529 H539 0.929 . S
C530 O510 1.255 . S
C530 O511 1.257 . S
C531 Eu467 2.787 . S
C531 O506 1.252 . S
C531 O509 1.268 . S
C531 C524 1.506 . S
H532 C515 0.931 . S
H533 C516 0.931 . S
H534 C517 0.929 . S
H535 C518 0.930 . S
H536 C526 0.931 . S
H537 C527 0.931 . S
H538 C528 0.930 . S
H539 C529 0.929 . S
Eu540 N569 2.600 . S
Eu540 N575 2.562 . S
Eu540 O584 2.462 . S
Eu540 O585 2.373 . S
Eu540 O587 2.432 . S
Eu540 O588 2.291 . S
Eu540 O592 2.335 . S
Eu540 O595 2.372 . S
Eu540 C604 2.787 . S
C541 N542 1.365 . S
C541 C544 1.405 . S
C541 C548 1.448 . S
N542 C541 1.365 . S
N542 C545 1.319 . S
N542 Eu551 2.600 . S
C543 C545 1.397 . S
C543 C546 1.367 . S
C543 H563 0.931 . S
C544 C541 1.405 . S
C544 C546 1.403 . S
C544 C550 1.439 . S
C545 N542 1.319 . S
C545 C543 1.397 . S
C545 H556 0.930 . S
C546 C543 1.367 . S
C546 C544 1.403 . S
C546 H567 0.929 . S
C547 C548 1.430 . S
C547 C549 1.387 . S
C547 C553 1.404 . S
C548 C541 1.448 . S
C548 C547 1.430 . S
C548 N552 1.351 . S
C549 C547 1.387 . S
C549 C550 1.374 . S
C549 H564 0.931 . S
C550 C544 1.439 . S
C550 C549 1.374 . S
C550 H565 0.931 . S
Eu551 N542 2.600 . S
Eu551 N552 2.562 . S
Eu551 O586 2.335 . S
Eu551 O589 2.372 . S
Eu551 O590 2.462 . S
Eu551 O591 2.373 . S
Eu551 O593 2.432 . S
Eu551 O594 2.291 . S
Eu551 C615 2.787 . S
N552 C548 1.351 . S
N552 Eu551 2.562 . S
N552 C554 1.325 . S
C553 C547 1.404 . S
C553 C555 1.366 . S
C553 H561 0.930 . S
C554 N552 1.325 . S
C554 C555 1.416 . S
C554 H560 0.929 . S
C555 C553 1.366 . S
C555 C554 1.416 . S
C555 H557 0.930 . S
H556 C545 0.930 . S
H557 C555 0.930 . S
H558 C573 0.930 . S
H559 C580 0.930 . S
H560 C554 0.929 . S
H561 C553 0.930 . S
H562 C576 0.929 . S
H563 C543 0.931 . S
H564 C549 0.931 . S
H565 C550 0.931 . S
H566 C571 0.931 . S
H567 C546 0.929 . S
H568 C579 0.930 . S
N569 Eu540 2.600 . S
N569 C570 1.365 . S
N569 C573 1.319 . S
C570 N569 1.365 . S
C570 C572 1.405 . S
C570 C578 1.448 . S
C571 H566 0.931 . S
C571 C573 1.397 . S
C571 C574 1.367 . S
C572 C570 1.405 . S
C572 C574 1.403 . S
C572 C605 1.439 . S
C573 H558 0.930 . S
C573 N569 1.319 . S
C573 C571 1.397 . S
C574 C571 1.367 . S
C574 C572 1.403 . S
C574 H581 0.929 . S
N575 Eu540 2.562 . S
N575 C576 1.325 . S
N575 C578 1.351 . S
C576 H562 0.929 . S
C576 N575 1.325 . S
C576 C580 1.416 . S
C577 C578 1.430 . S
C577 C579 1.404 . S
C577 C606 1.387 . S
C578 C570 1.448 . S
C578 N575 1.351 . S
C578 C577 1.430 . S
C579 H568 0.930 . S
C579 C577 1.404 . S
C579 C580 1.366 . S
C580 H559 0.930 . S
C580 C576 1.416 . S
C580 C579 1.366 . S
H581 C574 0.929 . S
H582 C605 0.931 . S
H583 C606 0.931 . S
O584 Eu540 2.462 . S
O584 C604 1.252 . S
O585 Eu540 2.373 . S
O585 C596 1.249 . S
O586 Eu551 2.335 . S
O586 C596 1.264 . S
O587 Eu540 2.432 . S
O587 C604 1.268 . S
O588 Eu540 2.291 . S
O588 C603 1.255 . S
O589 Eu551 2.372 . S
O589 C603 1.257 . S
O590 Eu551 2.462 . S
O590 C615 1.252 . S
O591 Eu551 2.373 . S
O591 C607 1.249 . S
O592 Eu540 2.335 . S
O592 C607 1.264 . S
O593 Eu551 2.432 . S
O593 C615 1.268 . S
O594 Eu551 2.291 . S
O594 C614 1.255 . S
O595 Eu540 2.372 . S
O595 C614 1.257 . S
C596 O585 1.249 . S
C596 O586 1.264 . S
C597 C600 1.382 . S
C597 C602 1.390 . S
C597 C604 1.506 . S
C598 C599 1.398 . S
C598 C602 1.392 . S
C599 C598 1.398 . S
C599 C601 1.372 . S
C599 H616 0.931 . S
C600 C597 1.382 . S
C600 C601 1.390 . S
C600 H617 0.931 . S
C601 C599 1.372 . S
C601 C600 1.390 . S
C601 H618 0.929 . S
C602 C597 1.390 . S
C602 C598 1.392 . S
C602 H619 0.930 . S
C603 O588 1.255 . S
C603 O589 1.257 . S
C604 Eu540 2.787 . S
C604 O584 1.252 . S
C604 O587 1.268 . S
C604 C597 1.506 . S
C605 C572 1.439 . S
C605 H582 0.931 . S
C605 C606 1.374 . S
C606 C577 1.387 . S
C606 H583 0.931 . S
C606 C605 1.374 . S
C607 O591 1.249 . S
C607 O592 1.264 . S
C608 C611 1.382 . S
C608 C612 1.390 . S
C608 C615 1.506 . S
C609 C610 1.398 . S
C609 C612 1.392 . S
C610 C609 1.398 . S
C610 C613 1.372 . S
C610 H620 0.931 . S
C611 C608 1.382 . S
C611 C613 1.390 . S
C611 H621 0.931 . S
C612 C608 1.390 . S
C612 C609 1.392 . S
C612 H622 0.930 . S
C613 C610 1.372 . S
C613 C611 1.390 . S
C613 H623 0.929 . S
C614 O594 1.255 . S
C614 O595 1.257 . S
C615 Eu551 2.787 . S
C615 O590 1.252 . S
C615 O593 1.268 . S
C615 C608 1.506 . S
H616 C599 0.931 . S
H617 C600 0.931 . S
H618 C601 0.929 . S
H619 C602 0.930 . S
H620 C610 0.931 . S
H621 C611 0.931 . S
H622 C612 0.930 . S
H623 C613 0.929 . S
H624 C642 0.951 . S
H625 C644 0.951 1_545 S
H626 C646 0.950 . S
H627 C647 0.950 . S
H628 C649 0.950 1_565 S
H629 C652 0.950 . S
H630 C653 0.950 . S
H631 C655 0.950 . S
H632 C656 0.950 . S
H633 C657 0.956 . S
H634 C659 0.951 . S
H635 C661 0.950 . S
H636 C662 0.950 . S
H637 C664 0.950 . S
H638 C667 0.950 . S
H639 C668 0.950 . S
H640 C670 0.950 1_655 S
H641 C671 0.950 . S
C642 H624 0.951 . S
C642 C643 1.366 . S
C642 C644 1.388 . S
C643 C642 1.366 . S
C643 C647 1.385 . S
C644 H625 0.951 1_565 S
C644 C642 1.388 . S
C644 C645 1.367 . S
C645 C644 1.367 . S
C645 C646 1.421 . S
C645 C648 1.491 1_565 S
C646 H626 0.950 . S
C646 C645 1.421 . S
C646 C647 1.374 . S
C647 H627 0.950 . S
C647 C643 1.385 . S
C647 C646 1.374 . S
C648 C645 1.491 1_545 S
C648 C649 1.373 . S
C648 C650 1.389 . S
C649 H628 0.950 1_545 S
C649 C648 1.373 . S
C649 C665 1.377 . S
C650 C648 1.389 . S
C650 C651 1.524 . S
C650 C664 1.377 . S
C651 C650 1.524 . S
C651 C652 1.397 . S
C651 C656 1.363 . S
C652 H629 0.950 . S
C652 C651 1.397 . S
C652 C653 1.334 . S
C653 H630 0.950 . S
C653 C652 1.334 . S
C653 C654 1.287 . S
C654 C653 1.287 . S
C654 C655 1.524 . S
C654 H673 0.913 . S
C655 H631 0.950 . S
C655 C654 1.524 . S
C655 C656 1.415 . S
C656 H632 0.950 . S
C656 C651 1.363 . S
C656 C655 1.415 . S
C657 H633 0.956 . S
C657 C658 1.366 . S
C657 C659 1.388 . S
C658 C657 1.366 . S
C658 C662 1.385 . S
C659 H634 0.951 . S
C659 C657 1.388 . S
C659 C660 1.366 . S
C660 C659 1.366 . S
C660 C661 1.414 . S
C660 C663 1.499 . S
C661 H635 0.950 . S
C661 C660 1.414 . S
C661 C662 1.374 . S
C662 H636 0.950 . S
C662 C658 1.385 . S
C662 C661 1.374 . S
C663 C660 1.499 . S
C663 C664 1.373 . S
C663 C665 1.389 . S
C664 H637 0.950 . S
C664 C650 1.377 . S
C664 C663 1.373 . S
C665 C649 1.377 . S
C665 C663 1.389 . S
C665 C666 1.524 . S
C666 C665 1.524 . S
C666 C667 1.397 . S
C666 C671 1.363 . S
C667 H638 0.950 . S
C667 C666 1.397 . S
C667 C668 1.334 . S
C668 H639 0.950 . S
C668 C667 1.334 . S
C668 C669 1.287 . S
C669 C668 1.287 . S
C669 C670 1.524 1_545 S
C669 H672 1.006 1_545 S
C670 H640 0.950 1_455 S
C670 C669 1.524 1_565 S
C670 C671 1.415 1_565 S
C671 H641 0.950 . S
C671 C666 1.363 . S
C671 C670 1.415 1_545 S
H672 C669 1.006 1_565 S
H673 C654 0.913 . S
H674 C692 0.951 . S
H675 C694 0.951 . S
H676 C696 0.950 . S
H677 C697 0.950 . S
H678 C699 0.950 . S
H679 C702 0.950 . S
H680 C703 0.950 . S
H681 C705 0.950 . S
H682 C706 0.950 . S
H683 C707 0.951 . S
H684 C709 0.951 . S
H685 C711 0.950 . S
H686 C712 0.950 . S
H687 C714 0.950 . S
H688 C717 0.950 . S
H689 C718 0.950 . S
H690 C720 0.950 . S
H691 C721 0.950 . S
C692 H674 0.951 . S
C692 C693 1.366 . S
C692 C694 1.388 . S
C693 C692 1.366 . S
C693 C697 1.385 . S
C694 H675 0.951 . S
C694 C692 1.388 . S
C694 C695 1.366 . S
C695 C694 1.366 . S
C695 C696 1.414 . S
C695 C698 1.499 . S
C696 H676 0.950 . S
C696 C695 1.414 . S
C696 C697 1.374 . S
C697 H677 0.950 . S
C697 C693 1.385 . S
C697 C696 1.374 . S
C698 C695 1.499 . S
C698 C699 1.373 . S
C698 C700 1.389 . S
C699 H678 0.950 . S
C699 C698 1.373 . S
C699 C715 1.377 . S
C700 C698 1.389 . S
C700 C701 1.524 . S
C700 C714 1.377 . S
C701 C700 1.524 . S
C701 C702 1.397 . S
C701 C706 1.363 . S
C702 H679 0.950 . S
C702 C701 1.397 . S
C702 C703 1.334 . S
C703 H680 0.950 . S
C703 C702 1.334 . S
C703 C704 1.287 . S
C704 C703 1.287 . S
C704 C705 1.524 . S
C704 H723 0.913 . S
C705 H681 0.950 . S
C705 C704 1.524 . S
C705 C706 1.415 . S
C706 H682 0.950 . S
C706 C701 1.363 . S
C706 C705 1.415 . S
C707 H683 0.951 . S
C707 C708 1.366 . S
C707 C709 1.388 . S
C708 C707 1.366 . S
C708 C712 1.385 . S
C709 H684 0.951 . S
C709 C707 1.388 . S
C709 C710 1.366 . S
C710 C709 1.366 . S
C710 C711 1.414 . S
C710 C713 1.499 . S
C711 H685 0.950 . S
C711 C710 1.414 . S
C711 C712 1.374 . S
C712 H686 0.950 . S
C712 C708 1.385 . S
C712 C711 1.374 . S
C713 C710 1.499 . S
C713 C714 1.373 . S
C713 C715 1.389 . S
C714 H687 0.950 . S
C714 C700 1.377 . S
C714 C713 1.373 . S
C715 C699 1.377 . S
C715 C713 1.389 . S
C715 C716 1.524 . S
C716 C715 1.524 . S
C716 C717 1.397 . S
C716 C721 1.363 . S
C717 H688 0.950 . S
C717 C716 1.397 . S
C717 C718 1.334 . S
C718 H689 0.950 . S
C718 C717 1.334 . S
C718 C719 1.287 . S
C719 C718 1.287 . S
C719 C720 1.524 . S
C719 H722 0.999 . S
C720 H690 0.950 . S
C720 C719 1.524 . S
C720 C721 1.415 . S
C721 H691 0.950 . S
C721 C716 1.363 . S
C721 C720 1.415 . S
H722 C719 0.999 . S
H723 C704 0.913 . S
H724 C742 0.951 . S
H725 C744 0.951 . S
H726 C746 0.950 . S
H727 C747 0.950 . S
H728 C749 0.950 . S
H729 C752 0.950 . S
H730 C753 0.950 . S
H731 C755 0.950 . S
H732 C756 0.950 . S
H733 C757 0.951 . S
H734 C759 0.951 . S
H735 C761 0.950 . S
H736 C762 0.950 . S
H737 C764 0.950 . S
H738 C767 0.950 . S
H739 C768 0.950 . S
H740 C770 0.950 . S
H741 C771 0.950 . S
C742 H724 0.951 . S
C742 C743 1.366 . S
C742 C744 1.388 . S
C743 C742 1.366 . S
C743 C747 1.385 . S
C744 H725 0.951 . S
C744 C742 1.388 . S
C744 C745 1.366 . S
C745 C744 1.366 . S
C745 C746 1.414 . S
C745 C748 1.499 . S
C746 H726 0.950 . S
C746 C745 1.414 . S
C746 C747 1.374 . S
C747 H727 0.950 . S
C747 C743 1.385 . S
C747 C746 1.374 . S
C748 C745 1.499 . S
C748 C749 1.373 . S
C748 C750 1.389 . S
C749 H728 0.950 . S
C749 C748 1.373 . S
C749 C765 1.377 . S
C750 C748 1.389 . S
C750 C751 1.524 . S
C750 C764 1.377 . S
C751 C750 1.524 . S
C751 C752 1.397 . S
C751 C756 1.363 . S
C752 H729 0.950 . S
C752 C751 1.397 . S
C752 C753 1.334 . S
C753 H730 0.950 . S
C753 C752 1.334 . S
C753 C754 1.287 . S
C754 C753 1.287 . S
C754 C755 1.524 . S
C754 H773 0.913 . S
C755 H731 0.950 . S
C755 C754 1.524 . S
C755 C756 1.415 . S
C756 H732 0.950 . S
C756 C751 1.363 . S
C756 C755 1.415 . S
C757 H733 0.951 . S
C757 C758 1.366 . S
C757 C759 1.388 . S
C758 C757 1.366 . S
C758 C762 1.385 . S
C759 H734 0.951 . S
C759 C757 1.388 . S
C759 C760 1.366 . S
C760 C759 1.366 . S
C760 C761 1.414 . S
C760 C763 1.499 . S
C761 H735 0.950 . S
C761 C760 1.414 . S
C761 C762 1.374 . S
C762 H736 0.950 . S
C762 C758 1.385 . S
C762 C761 1.374 . S
C763 C760 1.499 . S
C763 C764 1.373 . S
C763 C765 1.389 . S
C764 H737 0.950 . S
C764 C750 1.377 . S
C764 C763 1.373 . S
C765 C749 1.377 . S
C765 C763 1.389 . S
C765 C766 1.524 . S
C766 C765 1.524 . S
C766 C767 1.397 . S
C766 C771 1.363 . S
C767 H738 0.950 . S
C767 C766 1.397 . S
C767 C768 1.334 . S
C768 H739 0.950 . S
C768 C767 1.334 . S
C768 C769 1.287 . S
C769 C768 1.287 . S
C769 C770 1.524 . S
C769 H772 0.999 . S
C770 H740 0.950 . S
C770 C769 1.524 . S
C770 C771 1.415 . S
C771 H741 0.950 . S
C771 C766 1.363 . S
C771 C770 1.415 . S
H772 C769 0.999 . S
H773 C754 0.913 . S
H774 C792 0.951 . S
H775 C794 0.979 . S
H776 C796 0.950 . S
H777 C797 0.950 . S
H778 C799 0.950 1_565 S
H779 C802 0.950 . S
H780 C803 0.950 . S
H781 C805 0.950 . S
H782 C806 0.950 . S
H783 C807 0.951 1_455 S
H784 C809 0.951 . S
H785 C811 0.950 . S
H786 C812 0.950 . S
H787 C814 0.950 . S
H788 C817 0.950 . S
H789 C818 0.950 . S
H790 C820 0.950 1_455 S
H791 C821 0.940 1_565 S
C792 H774 0.951 . S
C792 C793 1.366 . S
C792 C794 1.360 1_565 S
C793 C792 1.366 . S
C793 C797 1.385 . S
C794 H775 0.979 . S
C794 C792 1.360 1_545 S
C794 C795 1.366 . S
C795 C794 1.366 . S
C795 C796 1.374 1_545 S
C795 C798 1.538 . S
C796 H776 0.950 . S
C796 C795 1.374 1_565 S
C796 C797 1.374 . S
C797 H777 0.950 . S
C797 C793 1.385 . S
C797 C796 1.374 . S
C798 C795 1.538 . S
C798 C799 1.373 . S
C798 C800 1.389 . S
C799 H778 0.950 1_545 S
C799 C798 1.373 . S
C799 C815 1.377 . S
C800 C798 1.389 . S
C800 C801 1.524 . S
C800 C814 1.377 . S
C801 C800 1.524 . S
C801 C802 1.397 . S
C801 C806 1.363 . S
C802 H779 0.950 . S
C802 C801 1.397 . S
C802 C803 1.334 . S
C803 H780 0.950 . S
C803 C802 1.334 . S
C803 C804 1.287 . S
C804 C803 1.287 . S
C804 C805 1.524 . S
C804 H823 0.913 . S
C805 H781 0.950 . S
C805 C804 1.524 . S
C805 C806 1.415 . S
C806 H782 0.950 . S
C806 C801 1.363 . S
C806 C805 1.415 . S
C807 H783 0.951 1_655 S
C807 C808 1.366 . S
C807 C809 1.388 . S
C808 C807 1.366 . S
C808 C812 1.385 . S
C809 H784 0.951 . S
C809 C807 1.388 . S
C809 C810 1.366 . S
C810 C809 1.366 . S
C810 C811 1.414 . S
C810 C813 1.499 . S
C811 H785 0.950 . S
C811 C810 1.414 . S
C811 C812 1.374 . S
C812 H786 0.950 . S
C812 C808 1.385 . S
C812 C811 1.374 . S
C813 C810 1.499 . S
C813 C814 1.373 . S
C813 C815 1.389 . S
C814 H787 0.950 . S
C814 C800 1.377 . S
C814 C813 1.373 . S
C815 C799 1.377 . S
C815 C813 1.389 . S
C815 C816 1.524 . S
C816 C815 1.524 . S
C816 C817 1.397 . S
C816 C821 1.363 . S
C817 H788 0.950 . S
C817 C816 1.397 . S
C817 C818 1.334 . S
C818 H789 0.950 . S
C818 C817 1.334 . S
C818 C819 1.287 . S
C819 C818 1.287 . S
C819 C820 1.524 1_545 S
C819 H822 0.999 1_545 S
C820 H790 0.950 1_655 S
C820 C819 1.524 1_565 S
C820 C821 1.415 1_565 S
C821 H791 0.940 1_545 S
C821 C816 1.363 . S
C821 C820 1.415 1_545 S
H822 C819 0.999 1_565 S
H823 C804 0.913 . S
H824 C842 0.951 . S
H825 C844 0.951 1_565 S
H826 C846 0.950 . S
H827 C847 0.950 . S
H828 C849 0.950 . S
H829 C852 0.950 . S
H830 C853 0.950 . S
H831 C855 0.950 . S
H832 C856 0.950 . S
H833 C857 0.951 1_455 S
H834 C859 0.951 . S
H835 C861 0.950 . S
H836 C862 0.950 . S
H837 C864 0.950 . S
H838 C867 0.950 . S
H839 C868 0.950 . S
H840 C870 0.950 1_455 S
H841 C871 0.950 . S
C842 H824 0.951 . S
C842 C843 1.366 . S
C842 C844 1.388 . S
C843 C842 1.366 . S
C843 C847 1.385 . S
C844 H825 0.951 1_545 S
C844 C842 1.388 . S
C844 C845 1.366 . S
C845 C844 1.366 . S
C845 C846 1.414 . S
C845 C848 1.499 1_545 S
C846 H826 0.950 . S
C846 C845 1.414 . S
C846 C847 1.374 . S
C847 H827 0.950 . S
C847 C843 1.385 . S
C847 C846 1.374 . S
C848 C845 1.499 1_565 S
C848 C849 1.373 . S
C848 C850 1.389 . S
C849 H828 0.950 . S
C849 C848 1.373 . S
C849 C865 1.377 . S
C850 C848 1.389 . S
C850 C851 1.532 . S
C850 C864 1.377 . S
C851 C850 1.532 . S
C851 C852 1.386 1_565 S
C851 C856 1.366 . S
C852 H829 0.950 . S
C852 C851 1.386 1_545 S
C852 C853 1.334 . S
C853 H830 0.950 . S
C853 C852 1.334 . S
C853 C854 1.287 . S
C854 C853 1.287 . S
C854 C855 1.524 . S
C854 H873 0.913 . S
C855 H831 0.950 . S
C855 C854 1.524 . S
C855 C856 1.415 1_545 S
C856 H832 0.950 . S
C856 C851 1.366 . S
C856 C855 1.415 1_565 S
C857 H833 0.951 1_655 S
C857 C858 1.366 . S
C857 C859 1.388 . S
C858 C857 1.366 . S
C858 C862 1.385 . S
C859 H834 0.951 . S
C859 C857 1.388 . S
C859 C860 1.366 . S
C860 C859 1.366 . S
C860 C861 1.414 . S
C860 C863 1.499 . S
C861 H835 0.950 . S
C861 C860 1.414 . S
C861 C862 1.374 . S
C862 H836 0.950 . S
C862 C858 1.385 . S
C862 C861 1.374 . S
C863 C860 1.499 . S
C863 C864 1.373 . S
C863 C865 1.389 . S
C864 H837 0.950 . S
C864 C850 1.377 . S
C864 C863 1.373 . S
C865 C849 1.377 . S
C865 C863 1.389 . S
C865 C866 1.524 . S
C866 C865 1.524 . S
C866 C867 1.397 . S
C866 C871 1.363 . S
C867 H838 0.950 . S
C867 C866 1.397 . S
C867 C868 1.334 . S
C868 H839 0.950 . S
C868 C867 1.334 . S
C868 C869 1.287 . S
C869 C868 1.287 . S
C869 C870 1.524 . S
C869 H872 0.999 . S
C870 H840 0.950 1_655 S
C870 C869 1.524 . S
C870 C871 1.415 . S
C871 H841 0.950 . S
C871 C866 1.363 . S
C871 C870 1.415 . S
H872 C869 0.999 . S
H873 C854 0.913 . S
H874 C892 0.951 . S
H875 C894 0.951 . S
H876 C896 0.950 . S
H877 C897 0.950 . S
H878 C899 0.950 . S
H879 C902 0.950 . S
H880 C903 0.950 . S
H881 C905 0.950 . S
H882 C906 0.950 . S
H883 C907 0.951 . S
H884 C909 0.951 . S
H885 C911 0.950 . S
H886 C912 0.950 . S
H887 C914 0.950 . S
H888 C917 0.950 . S
H889 C918 0.950 . S
H890 C920 0.950 . S
H891 C921 0.950 . S
C892 H874 0.951 . S
C892 C893 1.366 . S
C892 C894 1.388 . S
C893 C892 1.366 . S
C893 C897 1.385 . S
C894 H875 0.951 . S
C894 C892 1.388 . S
C894 C895 1.366 . S
C895 C894 1.366 . S
C895 C896 1.414 . S
C895 C898 1.499 . S
C896 H876 0.950 . S
C896 C895 1.414 . S
C896 C897 1.374 . S
C897 H877 0.950 . S
C897 C893 1.385 . S
C897 C896 1.374 . S
C898 C895 1.499 . S
C898 C899 1.373 . S
C898 C900 1.389 . S
C899 H878 0.950 . S
C899 C898 1.373 . S
C899 C915 1.377 . S
C900 C898 1.389 . S
C900 C901 1.524 . S
C900 C914 1.377 . S
C901 C900 1.524 . S
C901 C902 1.397 . S
C901 C906 1.363 . S
C902 H879 0.950 . S
C902 C901 1.397 . S
C902 C903 1.334 . S
C903 H880 0.950 . S
C903 C902 1.334 . S
C903 C904 1.287 . S
C904 C903 1.287 . S
C904 C905 1.524 . S
C904 H923 0.913 . S
C905 H881 0.950 . S
C905 C904 1.524 . S
C905 C906 1.415 . S
C906 H882 0.950 . S
C906 C901 1.363 . S
C906 C905 1.415 . S
C907 H883 0.951 . S
C907 C908 1.366 . S
C907 C909 1.388 . S
C908 C907 1.366 . S
C908 C912 1.385 . S
C909 H884 0.951 . S
C909 C907 1.388 . S
C909 C910 1.366 . S
C910 C909 1.366 . S
C910 C911 1.414 . S
C910 C913 1.499 . S
C911 H885 0.950 . S
C911 C910 1.414 . S
C911 C912 1.374 . S
C912 H886 0.950 . S
C912 C908 1.385 . S
C912 C911 1.374 . S
C913 C910 1.499 . S
C913 C914 1.373 . S
C913 C915 1.389 . S
C914 H887 0.950 . S
C914 C900 1.377 . S
C914 C913 1.373 . S
C915 C899 1.377 . S
C915 C913 1.389 . S
C915 C916 1.524 . S
C916 C915 1.524 . S
C916 C917 1.397 . S
C916 C921 1.363 . S
C917 H888 0.950 . S
C917 C916 1.397 . S
C917 C918 1.334 . S
C918 H889 0.950 . S
C918 C917 1.334 . S
C918 C919 1.287 . S
C919 C918 1.287 . S
C919 C920 1.524 . S
C919 H922 0.999 . S
C920 H890 0.950 . S
C920 C919 1.524 . S
C920 C921 1.415 . S
C921 H891 0.950 . S
C921 C916 1.363 . S
C921 C920 1.415 . S
H922 C919 0.999 . S
H923 C904 0.913 . S
H924 C942 0.951 . S
H925 C944 0.951 . S
H926 C946 0.950 . S
H927 C947 0.950 . S
H928 C949 0.950 . S
H929 C952 0.950 . S
H930 C953 0.950 . S
H931 C955 0.950 . S
H932 C956 0.950 . S
H933 C957 0.951 . S
H934 C959 0.951 . S
H935 C961 0.950 . S
H936 C962 0.950 . S
H937 C964 0.950 . S
H938 C967 0.950 . S
H939 C968 0.950 . S
H940 C970 0.950 . S
H941 C971 0.950 . S
C942 H924 0.951 . S
C942 C943 1.366 . S
C942 C944 1.388 . S
C943 C942 1.366 . S
C943 C947 1.385 . S
C944 H925 0.951 . S
C944 C942 1.388 . S
C944 C945 1.366 . S
C945 C944 1.366 . S
C945 C946 1.414 . S
C945 C948 1.499 . S
C946 H926 0.950 . S
C946 C945 1.414 . S
C946 C947 1.374 . S
C947 H927 0.950 . S
C947 C943 1.385 . S
C947 C946 1.374 . S
C948 C945 1.499 . S
C948 C949 1.373 . S
C948 C950 1.389 . S
C949 H928 0.950 . S
C949 C948 1.373 . S
C949 C965 1.377 . S
C950 C948 1.389 . S
C950 C951 1.524 . S
C950 C964 1.377 . S
C951 C950 1.524 . S
C951 C952 1.397 . S
C951 C956 1.363 . S
C952 H929 0.950 . S
C952 C951 1.397 . S
C952 C953 1.334 . S
C953 H930 0.950 . S
C953 C952 1.334 . S
C953 C954 1.287 . S
C954 C953 1.287 . S
C954 C955 1.524 . S
C954 H973 0.913 . S
C955 H931 0.950 . S
C955 C954 1.524 . S
C955 C956 1.415 . S
C956 H932 0.950 . S
C956 C951 1.363 . S
C956 C955 1.415 . S
C957 H933 0.951 . S
C957 C958 1.366 . S
C957 C959 1.388 . S
C958 C957 1.366 . S
C958 C962 1.385 . S
C959 H934 0.951 . S
C959 C957 1.388 . S
C959 C960 1.366 . S
C960 C959 1.366 . S
C960 C961 1.414 . S
C960 C963 1.499 . S
C961 H935 0.950 . S
C961 C960 1.414 . S
C961 C962 1.374 . S
C962 H936 0.950 . S
C962 C958 1.385 . S
C962 C961 1.374 . S
C963 C960 1.499 . S
C963 C964 1.373 . S
C963 C965 1.389 . S
C964 H937 0.950 . S
C964 C950 1.377 . S
C964 C963 1.373 . S
C965 C949 1.377 . S
C965 C963 1.389 . S
C965 C966 1.524 . S
C966 C965 1.524 . S
C966 C967 1.397 . S
C966 C971 1.363 . S
C967 H938 0.950 . S
C967 C966 1.397 . S
C967 C968 1.334 . S
C968 H939 0.950 . S
C968 C967 1.334 . S
C968 C969 1.287 . S
C969 C968 1.287 . S
C969 C970 1.524 . S
C969 H972 0.999 . S
C970 H940 0.950 . S
C970 C969 1.524 . S
C970 C971 1.415 . S
C971 H941 0.950 . S
C971 C966 1.363 . S
C971 C970 1.415 . S
H972 C969 0.999 . S
H973 C954 0.913 . S
H974 C992 0.951 . S
H975 C994 0.951 . S
H976 C996 0.950 . S
H977 C997 0.950 . S
H978 C999 0.950 1_545 S
H979 C1002 0.950 . S
H980 C1003 0.950 . S
H981 C1005 0.950 . S
H982 C1006 0.950 . S
H983 C1007 0.951 . S
H984 C1009 0.951 . S
H985 C1011 0.950 . S
H986 C1012 0.950 . S
H987 C1014 0.950 . S
H988 C1017 0.950 . S
H989 C1018 0.950 1_655 S
H990 C1020 0.950 . S
H991 C1021 0.950 1_545 S
C992 H974 0.951 . S
C992 C993 1.366 . S
C992 C994 1.388 1_545 S
C993 C992 1.366 . S
C993 C997 1.385 . S
C994 H975 0.951 . S
C994 C992 1.388 1_565 S
C994 C995 1.369 . S
C995 C994 1.369 . S
C995 C996 1.374 1_565 S
C995 C998 1.534 . S
C996 H976 0.950 . S
C996 C995 1.374 1_545 S
C996 C997 1.374 . S
C997 H977 0.950 . S
C997 C993 1.385 . S
C997 C996 1.374 . S
C998 C995 1.534 . S
C998 C999 1.373 . S
C998 C1000 1.389 . S
C999 H978 0.950 1_565 S
C999 C998 1.373 . S
C999 C1015 1.377 . S
C1000 C998 1.389 . S
C1000 C1001 1.524 . S
C1000 C1014 1.377 . S
C1001 C1000 1.524 . S
C1001 C1002 1.397 . S
C1001 C1006 1.363 . S
C1002 H979 0.950 . S
C1002 C1001 1.397 . S
C1002 C1003 1.334 . S
C1003 H980 0.950 . S
C1003 C1002 1.334 . S
C1003 C1004 1.287 . S
C1004 C1003 1.287 . S
C1004 C1005 1.524 . S
C1004 H1023 0.913 . S
C1005 H981 0.950 . S
C1005 C1004 1.524 . S
C1005 C1006 1.415 . S
C1006 H982 0.950 . S
C1006 C1001 1.363 . S
C1006 C1005 1.415 . S
C1007 H983 0.951 . S
C1007 C1008 1.366 . S
C1007 C1009 1.388 . S
C1008 C1007 1.366 . S
C1008 C1012 1.385 . S
C1009 H984 0.951 . S
C1009 C1007 1.388 . S
C1009 C1010 1.366 . S
C1010 C1009 1.366 . S
C1010 C1011 1.414 . S
C1010 C1013 1.499 . S
C1011 H985 0.950 . S
C1011 C1010 1.414 . S
C1011 C1012 1.374 . S
C1012 H986 0.950 . S
C1012 C1008 1.385 . S
C1012 C1011 1.374 . S
C1013 C1010 1.499 . S
C1013 C1014 1.373 . S
C1013 C1015 1.389 . S
C1014 H987 0.950 . S
C1014 C1000 1.377 . S
C1014 C1013 1.373 . S
C1015 C999 1.377 . S
C1015 C1013 1.389 . S
C1015 C1016 1.524 . S
C1016 C1015 1.524 . S
C1016 C1017 1.397 . S
C1016 C1021 1.363 . S
C1017 H988 0.950 . S
C1017 C1016 1.397 . S
C1017 C1018 1.334 . S
C1018 H989 0.950 1_455 S
C1018 C1017 1.334 . S
C1018 C1019 1.287 . S
C1019 C1018 1.287 . S
C1019 C1020 1.524 1_565 S
C1019 H1022 0.999 1_465 S
C1020 H990 0.950 . S
C1020 C1019 1.524 1_545 S
C1020 C1021 1.415 1_545 S
C1021 H991 0.950 1_565 S
C1021 C1016 1.363 . S
C1021 C1020 1.415 1_565 S
H1022 C1019 0.999 1_645 S
H1023 C1004 0.913 . S
H1024 C1042 0.951 1_556 S
H1025 C1044 0.951 . S
H1026 C1046 0.950 . S
H1027 C1047 0.950 . S
H1028 C1049 0.950 . S
H1029 C1052 0.950 . S
H1030 C1053 0.950 . S
H1031 C1055 0.950 . S
H1032 C1056 0.950 . S
H1033 C1057 0.951 . S
H1034 C1059 0.951 . S
H1035 C1061 0.950 . S
H1036 C1062 0.950 . S
H1037 C1064 0.950 . S
H1038 C1067 0.950 . S
H1039 C1068 0.950 . S
H1040 C1070 0.950 . S
H1041 C1071 0.950 . S
C1042 H1024 0.951 1_554 S
C1042 C1043 1.366 . S
C1042 C1044 1.388 . S
C1043 C1042 1.366 . S
C1043 C1047 1.385 . S
C1044 H1025 0.951 . S
C1044 C1042 1.388 . S
C1044 C1045 1.366 . S
C1045 C1044 1.366 . S
C1045 C1046 1.414 . S
C1045 C1048 1.499 . S
C1046 H1026 0.950 . S
C1046 C1045 1.414 . S
C1046 C1047 1.374 . S
C1047 H1027 0.950 . S
C1047 C1043 1.385 . S
C1047 C1046 1.374 . S
C1048 C1045 1.499 . S
C1048 C1049 1.373 . S
C1048 C1050 1.389 . S
C1049 H1028 0.950 . S
C1049 C1048 1.373 . S
C1049 C1065 1.377 . S
C1050 C1048 1.389 . S
C1050 C1051 1.524 . S
C1050 C1064 1.377 . S
C1051 C1050 1.524 . S
C1051 C1052 1.397 . S
C1051 C1056 1.363 . S
C1052 H1029 0.950 . S
C1052 C1051 1.397 . S
C1052 C1053 1.334 . S
C1053 H1030 0.950 . S
C1053 C1052 1.334 . S
C1053 C1054 1.287 . S
C1054 C1053 1.287 . S
C1054 C1055 1.524 . S
C1054 H1073 0.913 . S
C1055 H1031 0.950 . S
C1055 C1054 1.524 . S
C1055 C1056 1.415 . S
C1056 H1032 0.950 . S
C1056 C1051 1.363 . S
C1056 C1055 1.415 . S
C1057 H1033 0.951 . S
C1057 C1058 1.366 . S
C1057 C1059 1.388 . S
C1058 C1057 1.366 . S
C1058 C1062 1.385 . S
C1059 H1034 0.951 . S
C1059 C1057 1.388 . S
C1059 C1060 1.366 . S
C1060 C1059 1.366 . S
C1060 C1061 1.414 . S
C1060 C1063 1.499 . S
C1061 H1035 0.950 . S
C1061 C1060 1.414 . S
C1061 C1062 1.374 . S
C1062 H1036 0.950 . S
C1062 C1058 1.385 . S
C1062 C1061 1.374 . S
C1063 C1060 1.499 . S
C1063 C1064 1.373 . S
C1063 C1065 1.389 . S
C1064 H1037 0.950 . S
C1064 C1050 1.377 . S
C1064 C1063 1.373 . S
C1065 C1049 1.377 . S
C1065 C1063 1.389 . S
C1065 C1066 1.524 . S
C1066 C1065 1.524 . S
C1066 C1067 1.397 . S
C1066 C1071 1.363 . S
C1067 H1038 0.950 . S
C1067 C1066 1.397 . S
C1067 C1068 1.334 . S
C1068 H1039 0.950 . S
C1068 C1067 1.334 . S
C1068 C1069 1.287 . S
C1069 C1068 1.287 . S
C1069 C1070 1.524 . S
C1069 H1072 0.999 . S
C1070 H1040 0.950 . S
C1070 C1069 1.524 . S
C1070 C1071 1.415 . S
C1071 H1041 0.950 . S
C1071 C1066 1.363 . S
C1071 C1070 1.415 . S
H1072 C1069 0.999 . S
H1073 C1054 0.913 . S
H1074 C1092 0.951 . S
H1075 C1094 0.951 . S
H1076 C1096 0.950 . S
H1077 C1097 0.950 . S
H1078 C1099 0.950 . S
H1079 C1102 0.950 . S
H1080 C1103 0.950 . S
H1081 C1105 0.950 . S
H1082 C1106 0.950 . S
H1083 C1107 0.951 . S
H1084 C1109 0.951 . S
H1085 C1111 0.950 . S
H1086 C1112 0.950 . S
H1087 C1114 0.950 . S
H1088 C1117 0.950 . S
H1089 C1118 0.950 . S
H1090 C1120 0.950 . S
H1091 C1121 0.950 . S
C1092 H1074 0.951 . S
C1092 C1093 1.366 . S
C1092 C1094 1.388 . S
C1093 C1092 1.366 . S
C1093 C1097 1.385 . S
C1094 H1075 0.951 . S
C1094 C1092 1.388 . S
C1094 C1095 1.366 . S
C1095 C1094 1.366 . S
C1095 C1096 1.414 . S
C1095 C1098 1.499 . S
C1096 H1076 0.950 . S
C1096 C1095 1.414 . S
C1096 C1097 1.374 . S
C1097 H1077 0.950 . S
C1097 C1093 1.385 . S
C1097 C1096 1.374 . S
C1098 C1095 1.499 . S
C1098 C1099 1.373 . S
C1098 C1100 1.389 . S
C1099 H1078 0.950 . S
C1099 C1098 1.373 . S
C1099 C1115 1.377 . S
C1100 C1098 1.389 . S
C1100 C1101 1.524 . S
C1100 C1114 1.377 . S
C1101 C1100 1.524 . S
C1101 C1102 1.397 . S
C1101 C1106 1.363 . S
C1102 H1079 0.950 . S
C1102 C1101 1.397 . S
C1102 C1103 1.334 . S
C1103 H1080 0.950 . S
C1103 C1102 1.334 . S
C1103 C1104 1.287 . S
C1104 C1103 1.287 . S
C1104 C1105 1.524 . S
C1104 H1123 0.913 . S
C1105 H1081 0.950 . S
C1105 C1104 1.524 . S
C1105 C1106 1.415 . S
C1106 H1082 0.950 . S
C1106 C1101 1.363 . S
C1106 C1105 1.415 . S
C1107 H1083 0.951 . S
C1107 C1108 1.366 . S
C1107 C1109 1.388 . S
C1108 C1107 1.366 . S
C1108 C1112 1.385 . S
C1109 H1084 0.951 . S
C1109 C1107 1.388 . S
C1109 C1110 1.366 . S
C1110 C1109 1.366 . S
C1110 C1111 1.414 . S
C1110 C1113 1.499 . S
C1111 H1085 0.950 . S
C1111 C1110 1.414 . S
C1111 C1112 1.374 . S
C1112 H1086 0.950 . S
C1112 C1108 1.385 . S
C1112 C1111 1.374 . S
C1113 C1110 1.499 . S
C1113 C1114 1.373 . S
C1113 C1115 1.389 . S
C1114 H1087 0.950 . S
C1114 C1100 1.377 . S
C1114 C1113 1.373 . S
C1115 C1099 1.377 . S
C1115 C1113 1.389 . S
C1115 C1116 1.524 . S
C1116 C1115 1.524 . S
C1116 C1117 1.397 . S
C1116 C1121 1.363 . S
C1117 H1088 0.950 . S
C1117 C1116 1.397 . S
C1117 C1118 1.334 . S
C1118 H1089 0.950 . S
C1118 C1117 1.334 . S
C1118 C1119 1.287 . S
C1119 C1118 1.287 . S
C1119 C1120 1.524 . S
C1119 H1122 0.999 . S
C1120 H1090 0.950 . S
C1120 C1119 1.524 . S
C1120 C1121 1.415 . S
C1121 H1091 0.950 . S
C1121 C1116 1.363 . S
C1121 C1120 1.415 . S
H1122 C1119 0.999 . S
H1123 C1104 0.913 . S
H1124 C1142 0.951 1_554 S
H1125 C1144 0.951 . S
H1126 C1146 0.950 . S
H1127 C1147 0.950 . S
H1128 C1149 0.950 . S
H1129 C1152 0.950 . S
H1130 C1153 0.950 . S
H1131 C1155 0.950 . S
H1132 C1156 0.950 . S
H1133 C1157 0.951 . S
H1134 C1159 0.951 . S
H1135 C1161 0.950 . S
H1136 C1162 0.950 . S
H1137 C1164 0.950 . S
H1138 C1167 0.950 . S
H1139 C1168 0.950 . S
H1140 C1170 0.950 . S
H1141 C1171 0.950 . S
C1142 H1124 0.951 1_556 S
C1142 C1143 1.353 1_556 S
C1142 C1144 1.388 . S
C1143 C1142 1.353 1_554 S
C1143 C1147 1.337 1_554 S
C1144 H1125 0.951 . S
C1144 C1142 1.388 . S
C1144 C1145 1.366 . S
C1145 C1144 1.366 . S
C1145 C1146 1.414 . S
C1145 C1148 1.499 . S
C1146 H1126 0.950 . S
C1146 C1145 1.414 . S
C1146 C1147 1.374 . S
C1147 H1127 0.950 . S
C1147 C1143 1.337 1_556 S
C1147 C1146 1.374 . S
C1148 C1145 1.499 . S
C1148 C1149 1.373 . S
C1148 C1150 1.389 . S
C1149 H1128 0.950 . S
C1149 C1148 1.373 . S
C1149 C1165 1.377 . S
C1150 C1148 1.389 . S
C1150 C1151 1.524 . S
C1150 C1164 1.377 . S
C1151 C1150 1.524 . S
C1151 C1152 1.397 . S
C1151 C1156 1.363 . S
C1152 H1129 0.950 . S
C1152 C1151 1.397 . S
C1152 C1153 1.334 . S
C1153 H1130 0.950 . S
C1153 C1152 1.334 . S
C1153 C1154 1.287 . S
C1154 C1153 1.287 . S
C1154 C1155 1.524 . S
C1154 H1173 0.913 . S
C1155 H1131 0.950 . S
C1155 C1154 1.524 . S
C1155 C1156 1.415 . S
C1156 H1132 0.950 . S
C1156 C1151 1.363 . S
C1156 C1155 1.415 . S
C1157 H1133 0.951 . S
C1157 C1158 1.366 . S
C1157 C1159 1.388 . S
C1158 C1157 1.366 . S
C1158 C1162 1.385 . S
C1159 H1134 0.951 . S
C1159 C1157 1.388 . S
C1159 C1160 1.366 . S
C1160 C1159 1.366 . S
C1160 C1161 1.414 . S
C1160 C1163 1.499 . S
C1161 H1135 0.950 . S
C1161 C1160 1.414 . S
C1161 C1162 1.374 . S
C1162 H1136 0.950 . S
C1162 C1158 1.385 . S
C1162 C1161 1.374 . S
C1163 C1160 1.499 . S
C1163 C1164 1.373 . S
C1163 C1165 1.389 . S
C1164 H1137 0.950 . S
C1164 C1150 1.377 . S
C1164 C1163 1.373 . S
C1165 C1149 1.377 . S
C1165 C1163 1.389 . S
C1165 C1166 1.524 . S
C1166 C1165 1.524 . S
C1166 C1167 1.397 . S
C1166 C1171 1.363 . S
C1167 H1138 0.950 . S
C1167 C1166 1.397 . S
C1167 C1168 1.334 . S
C1168 H1139 0.950 . S
C1168 C1167 1.334 . S
C1168 C1169 1.287 . S
C1169 C1168 1.287 . S
C1169 C1170 1.524 . S
C1169 H1172 0.999 . S
C1170 H1140 0.950 . S
C1170 C1169 1.524 . S
C1170 C1171 1.415 . S
C1171 H1141 0.950 . S
C1171 C1166 1.363 . S
C1171 C1170 1.415 . S
H1172 C1169 0.999 . S
H1173 C1154 0.913 . S
H1174 C1192 0.951 . S
H1175 C1194 0.951 . S
H1176 C1196 0.950 . S
H1177 C1197 0.950 . S
H1178 C1199 0.950 . S
H1179 C1202 0.950 . S
H1180 C1203 0.950 . S
H1181 C1205 0.950 . S
H1182 C1206 0.950 . S
H1183 C1207 0.951 . S
H1184 C1209 0.951 . S
H1185 C1211 0.950 . S
H1186 C1212 0.950 . S
H1187 C1214 0.950 . S
H1188 C1217 0.950 . S
H1189 C1218 0.950 . S
H1190 C1220 0.950 . S
H1191 C1221 0.950 . S
C1192 H1174 0.951 . S
C1192 C1193 1.366 . S
C1192 C1194 1.388 . S
C1193 C1192 1.366 . S
C1193 C1197 1.385 . S
C1194 H1175 0.951 . S
C1194 C1192 1.388 . S
C1194 C1195 1.366 . S
C1195 C1194 1.366 . S
C1195 C1196 1.414 . S
C1195 C1198 1.499 . S
C1196 H1176 0.950 . S
C1196 C1195 1.414 . S
C1196 C1197 1.374 . S
C1197 H1177 0.950 . S
C1197 C1193 1.385 . S
C1197 C1196 1.374 . S
C1198 C1195 1.499 . S
C1198 C1199 1.373 . S
C1198 C1200 1.389 . S
C1199 H1178 0.950 . S
C1199 C1198 1.373 . S
C1199 C1215 1.377 . S
C1200 C1198 1.389 . S
C1200 C1201 1.524 . S
C1200 C1214 1.377 . S
C1201 C1200 1.524 . S
C1201 C1202 1.397 . S
C1201 C1206 1.363 . S
C1202 H1179 0.950 . S
C1202 C1201 1.397 . S
C1202 C1203 1.334 . S
C1203 H1180 0.950 . S
C1203 C1202 1.334 . S
C1203 C1204 1.287 . S
C1204 C1203 1.287 . S
C1204 C1205 1.524 . S
C1204 H1223 0.913 . S
C1205 H1181 0.950 . S
C1205 C1204 1.524 . S
C1205 C1206 1.415 . S
C1206 H1182 0.950 . S
C1206 C1201 1.363 . S
C1206 C1205 1.415 . S
C1207 H1183 0.951 . S
C1207 C1208 1.366 . S
C1207 C1209 1.388 . S
C1208 C1207 1.366 . S
C1208 C1212 1.385 . S
C1209 H1184 0.951 . S
C1209 C1207 1.388 . S
C1209 C1210 1.366 . S
C1210 C1209 1.366 . S
C1210 C1211 1.414 . S
C1210 C1213 1.499 . S
C1211 H1185 0.950 . S
C1211 C1210 1.414 . S
C1211 C1212 1.374 . S
C1212 H1186 0.950 . S
C1212 C1208 1.385 . S
C1212 C1211 1.374 . S
C1213 C1210 1.499 . S
C1213 C1214 1.373 . S
C1213 C1215 1.389 . S
C1214 H1187 0.950 . S
C1214 C1200 1.377 . S
C1214 C1213 1.373 . S
C1215 C1199 1.377 . S
C1215 C1213 1.389 . S
C1215 C1216 1.524 . S
C1216 C1215 1.524 . S
C1216 C1217 1.397 . S
C1216 C1221 1.363 . S
C1217 H1188 0.950 . S
C1217 C1216 1.397 . S
C1217 C1218 1.334 1_655 S
C1218 H1189 0.950 . S
C1218 C1217 1.334 1_455 S
C1218 C1219 1.287 . S
C1219 C1218 1.287 . S
C1219 C1220 1.524 1_455 S
C1219 H1222 0.999 . S
C1220 H1190 0.950 . S
C1220 C1219 1.524 1_655 S
C1220 C1221 1.415 . S
C1221 H1191 0.950 . S
C1221 C1216 1.363 . S
C1221 C1220 1.415 . S
H1222 C1219 0.999 . S
H1223 C1204 0.913 . S
H1224 C1242 0.951 1_554 S
H1225 C1244 0.951 . S
H1226 C1246 0.950 . S
H1227 C1247 0.950 . S
H1228 C1249 0.950 . S
H1229 C1252 0.950 . S
H1230 C1253 0.950 . S
H1231 C1255 0.950 . S
H1232 C1256 0.950 . S
H1233 C1257 0.951 . S
H1234 C1259 0.951 . S
H1235 C1261 0.950 . S
H1236 C1262 0.950 . S
H1237 C1264 0.950 . S
H1238 C1267 0.950 . S
H1239 C1268 0.950 . S
H1240 C1270 0.950 . S
H1241 C1271 0.950 . S
C1242 H1224 0.951 1_556 S
C1242 C1243 1.366 . S
C1242 C1244 1.388 . S
C1243 C1242 1.366 . S
C1243 C1247 1.385 . S
C1244 H1225 0.951 . S
C1244 C1242 1.388 . S
C1244 C1245 1.366 . S
C1245 C1244 1.366 . S
C1245 C1246 1.414 . S
C1245 C1248 1.499 . S
C1246 H1226 0.950 . S
C1246 C1245 1.414 . S
C1246 C1247 1.374 . S
C1247 H1227 0.950 . S
C1247 C1243 1.385 . S
C1247 C1246 1.374 . S
C1248 C1245 1.499 . S
C1248 C1249 1.373 . S
C1248 C1250 1.389 . S
C1249 H1228 0.950 . S
C1249 C1248 1.373 . S
C1249 C1265 1.377 . S
C1250 C1248 1.389 . S
C1250 C1251 1.524 . S
C1250 C1264 1.377 . S
C1251 C1250 1.524 . S
C1251 C1252 1.397 . S
C1251 C1256 1.363 . S
C1252 H1229 0.950 . S
C1252 C1251 1.397 . S
C1252 C1253 1.334 . S
C1253 H1230 0.950 . S
C1253 C1252 1.334 . S
C1253 C1254 1.287 . S
C1254 C1253 1.287 . S
C1254 C1255 1.524 . S
C1254 H1273 0.913 . S
C1255 H1231 0.950 . S
C1255 C1254 1.524 . S
C1255 C1256 1.415 . S
C1256 H1232 0.950 . S
C1256 C1251 1.363 . S
C1256 C1255 1.415 . S
C1257 H1233 0.951 . S
C1257 C1258 1.366 . S
C1257 C1259 1.388 . S
C1258 C1257 1.366 . S
C1258 C1262 1.385 . S
C1259 H1234 0.951 . S
C1259 C1257 1.388 . S
C1259 C1260 1.366 . S
C1260 C1259 1.366 . S
C1260 C1261 1.414 . S
C1260 C1263 1.499 . S
C1261 H1235 0.950 . S
C1261 C1260 1.414 . S
C1261 C1262 1.374 . S
C1262 H1236 0.950 . S
C1262 C1258 1.385 . S
C1262 C1261 1.374 . S
C1263 C1260 1.499 . S
C1263 C1264 1.373 . S
C1263 C1265 1.389 . S
C1264 H1237 0.950 . S
C1264 C1250 1.377 . S
C1264 C1263 1.373 . S
C1265 C1249 1.377 . S
C1265 C1263 1.389 . S
C1265 C1266 1.524 . S
C1266 C1265 1.524 . S
C1266 C1267 1.397 . S
C1266 C1271 1.363 . S
C1267 H1238 0.950 . S
C1267 C1266 1.397 . S
C1267 C1268 1.334 . S
C1268 H1239 0.950 . S
C1268 C1267 1.334 . S
C1268 C1269 1.287 . S
C1269 C1268 1.287 . S
C1269 C1270 1.524 . S
C1269 H1272 0.999 . S
C1270 H1240 0.950 . S
C1270 C1269 1.524 . S
C1270 C1271 1.415 . S
C1271 H1241 0.950 . S
C1271 C1266 1.363 . S
C1271 C1270 1.415 . S
H1272 C1269 0.999 . S
H1273 C1254 0.913 . S
H1274 C1292 0.951 . S
H1275 C1294 0.951 . S
H1276 C1296 0.950 . S
H1277 C1297 0.950 . S
H1278 C1299 0.950 . S
H1279 C1302 0.950 . S
H1280 C1303 0.950 . S
H1281 C1305 0.950 . S
H1282 C1306 0.950 . S
H1283 C1307 0.951 . S
H1284 C1309 0.951 . S
H1285 C1311 0.950 . S
H1286 C1312 0.950 . S
H1287 C1314 0.950 . S
H1288 C1317 0.950 . S
H1289 C1318 0.950 . S
H1290 C1320 0.950 . S
H1291 C1321 0.950 . S
C1292 H1274 0.951 . S
C1292 C1293 1.366 . S
C1292 C1294 1.388 . S
C1293 C1292 1.366 . S
C1293 C1297 1.385 . S
C1294 H1275 0.951 . S
C1294 C1292 1.388 . S
C1294 C1295 1.366 . S
C1295 C1294 1.366 . S
C1295 C1296 1.414 . S
C1295 C1298 1.499 . S
C1296 H1276 0.950 . S
C1296 C1295 1.414 . S
C1296 C1297 1.374 . S
C1297 H1277 0.950 . S
C1297 C1293 1.385 . S
C1297 C1296 1.374 . S
C1298 C1295 1.499 . S
C1298 C1299 1.373 . S
C1298 C1300 1.389 . S
C1299 H1278 0.950 . S
C1299 C1298 1.373 . S
C1299 C1315 1.377 . S
C1300 C1298 1.389 . S
C1300 C1301 1.524 . S
C1300 C1314 1.377 . S
C1301 C1300 1.524 . S
C1301 C1302 1.397 . S
C1301 C1306 1.363 . S
C1302 H1279 0.950 . S
C1302 C1301 1.397 . S
C1302 C1303 1.334 . S
C1303 H1280 0.950 . S
C1303 C1302 1.334 . S
C1303 C1304 1.287 . S
C1304 C1303 1.287 . S
C1304 C1305 1.524 . S
C1304 H1323 0.913 . S
C1305 H1281 0.950 . S
C1305 C1304 1.524 . S
C1305 C1306 1.415 . S
C1306 H1282 0.950 . S
C1306 C1301 1.363 . S
C1306 C1305 1.415 . S
C1307 H1283 0.951 . S
C1307 C1308 1.366 . S
C1307 C1309 1.388 . S
C1308 C1307 1.366 . S
C1308 C1312 1.385 . S
C1309 H1284 0.951 . S
C1309 C1307 1.388 . S
C1309 C1310 1.366 . S
C1310 C1309 1.366 . S
C1310 C1311 1.414 . S
C1310 C1313 1.499 . S
C1311 H1285 0.950 . S
C1311 C1310 1.414 . S
C1311 C1312 1.374 . S
C1312 H1286 0.950 . S
C1312 C1308 1.385 . S
C1312 C1311 1.374 . S
C1313 C1310 1.499 . S
C1313 C1314 1.373 . S
C1313 C1315 1.389 . S
C1314 H1287 0.950 . S
C1314 C1300 1.377 . S
C1314 C1313 1.373 . S
C1315 C1299 1.377 . S
C1315 C1313 1.389 . S
C1315 C1316 1.524 . S
C1316 C1315 1.524 . S
C1316 C1317 1.397 . S
C1316 C1321 1.363 . S
C1317 H1288 0.950 . S
C1317 C1316 1.397 . S
C1317 C1318 1.334 . S
C1318 H1289 0.950 . S
C1318 C1317 1.334 . S
C1318 C1319 1.287 . S
C1319 C1318 1.287 . S
C1319 C1320 1.524 . S
C1319 H1322 0.999 . S
C1320 H1290 0.950 . S
C1320 C1319 1.524 . S
C1320 C1321 1.415 . S
C1321 H1291 0.950 . S
C1321 C1316 1.363 . S
C1321 C1320 1.415 . S
H1322 C1319 0.999 . S
H1323 C1304 0.913 . S
H1324 C1342 0.951 1_556 S
H1325 C1344 0.951 . S
H1326 C1346 0.950 . S
H1327 C1347 0.950 . S
H1328 C1349 0.950 . S
H1329 C1352 0.950 . S
H1330 C1353 0.950 . S
H1331 C1355 0.950 . S
H1332 C1356 0.950 . S
H1333 C1357 0.951 . S
H1334 C1359 0.951 . S
H1335 C1361 0.950 . S
H1336 C1362 0.950 . S
H1337 C1364 0.950 . S
H1338 C1367 0.950 . S
H1339 C1368 0.950 . S
H1340 C1370 0.950 . S
H1341 C1371 0.950 . S
C1342 H1324 0.951 1_554 S
C1342 C1343 1.366 1_554 S
C1342 C1344 1.388 . S
C1343 C1342 1.366 1_556 S
C1343 C1347 1.385 1_556 S
C1344 H1325 0.951 . S
C1344 C1342 1.388 . S
C1344 C1345 1.366 . S
C1345 C1344 1.366 . S
C1345 C1346 1.414 . S
C1345 C1348 1.499 . S
C1346 H1326 0.950 . S
C1346 C1345 1.414 . S
C1346 C1347 1.374 . S
C1347 H1327 0.950 . S
C1347 C1343 1.385 1_554 S
C1347 C1346 1.374 . S
C1348 C1345 1.499 . S
C1348 C1349 1.373 . S
C1348 C1350 1.389 . S
C1349 H1328 0.950 . S
C1349 C1348 1.373 . S
C1349 C1365 1.377 . S
C1350 C1348 1.389 . S
C1350 C1351 1.524 . S
C1350 C1364 1.377 . S
C1351 C1350 1.524 . S
C1351 C1352 1.397 . S
C1351 C1356 1.363 . S
C1352 H1329 0.950 . S
C1352 C1351 1.397 . S
C1352 C1353 1.334 . S
C1353 H1330 0.950 . S
C1353 C1352 1.334 . S
C1353 C1354 1.287 . S
C1354 C1353 1.287 . S
C1354 C1355 1.524 . S
C1354 H1373 0.913 . S
C1355 H1331 0.950 . S
C1355 C1354 1.524 . S
C1355 C1356 1.415 . S
C1356 H1332 0.950 . S
C1356 C1351 1.363 . S
C1356 C1355 1.415 . S
C1357 H1333 0.951 . S
C1357 C1358 1.366 . S
C1357 C1359 1.388 . S
C1358 C1357 1.366 . S
C1358 C1362 1.385 . S
C1359 H1334 0.951 . S
C1359 C1357 1.388 . S
C1359 C1360 1.366 . S
C1360 C1359 1.366 . S
C1360 C1361 1.414 . S
C1360 C1363 1.499 . S
C1361 H1335 0.950 . S
C1361 C1360 1.414 . S
C1361 C1362 1.374 . S
C1362 H1336 0.950 . S
C1362 C1358 1.385 . S
C1362 C1361 1.374 . S
C1363 C1360 1.499 . S
C1363 C1364 1.373 . S
C1363 C1365 1.389 . S
C1364 H1337 0.950 . S
C1364 C1350 1.377 . S
C1364 C1363 1.373 . S
C1365 C1349 1.377 . S
C1365 C1363 1.389 . S
C1365 C1366 1.524 . S
C1366 C1365 1.524 . S
C1366 C1367 1.397 . S
C1366 C1371 1.363 . S
C1367 H1338 0.950 . S
C1367 C1366 1.397 . S
C1367 C1368 1.334 . S
C1368 H1339 0.950 . S
C1368 C1367 1.334 . S
C1368 C1369 1.287 . S
C1369 C1368 1.287 . S
C1369 C1370 1.524 . S
C1369 H1372 0.999 . S
C1370 H1340 0.950 . S
C1370 C1369 1.524 . S
C1370 C1371 1.415 . S
C1371 H1341 0.950 . S
C1371 C1366 1.363 . S
C1371 C1370 1.415 . S
H1372 C1369 0.999 . S
H1373 C1354 0.913 . S
H1374 C1392 0.951 . S
H1375 C1394 0.951 . S
H1376 C1396 0.950 . S
H1377 C1397 0.950 . S
H1378 C1399 0.950 . S
H1379 C1402 0.950 . S
H1380 C1403 0.950 . S
H1381 C1405 0.950 . S
H1382 C1406 0.950 . S
H1383 C1407 0.951 . S
H1384 C1409 0.951 . S
H1385 C1411 0.950 . S
H1386 C1412 0.950 . S
H1387 C1414 0.950 . S
H1388 C1417 0.950 . S
H1389 C1418 0.950 . S
H1390 C1420 0.950 . S
H1391 C1421 0.950 . S
C1392 H1374 0.951 . S
C1392 C1393 1.366 . S
C1392 C1394 1.388 . S
C1393 C1392 1.366 . S
C1393 C1397 1.385 . S
C1394 H1375 0.951 . S
C1394 C1392 1.388 . S
C1394 C1395 1.366 . S
C1395 C1394 1.366 . S
C1395 C1396 1.414 . S
C1395 C1398 1.499 . S
C1396 H1376 0.950 . S
C1396 C1395 1.414 . S
C1396 C1397 1.374 . S
C1397 H1377 0.950 . S
C1397 C1393 1.385 . S
C1397 C1396 1.374 . S
C1398 C1395 1.499 . S
C1398 C1399 1.373 . S
C1398 C1400 1.389 . S
C1399 H1378 0.950 . S
C1399 C1398 1.373 . S
C1399 C1415 1.377 . S
C1400 C1398 1.389 . S
C1400 C1401 1.524 . S
C1400 C1414 1.377 . S
C1401 C1400 1.524 . S
C1401 C1402 1.397 . S
C1401 C1406 1.363 . S
C1402 H1379 0.950 . S
C1402 C1401 1.397 . S
C1402 C1403 1.334 . S
C1403 H1380 0.950 . S
C1403 C1402 1.334 . S
C1403 C1404 1.287 . S
C1404 C1403 1.287 . S
C1404 C1405 1.524 . S
C1404 H1423 0.913 . S
C1405 H1381 0.950 . S
C1405 C1404 1.524 . S
C1405 C1406 1.415 . S
C1406 H1382 0.950 . S
C1406 C1401 1.363 . S
C1406 C1405 1.415 . S
C1407 H1383 0.951 . S
C1407 C1408 1.366 . S
C1407 C1409 1.388 . S
C1408 C1407 1.366 . S
C1408 C1412 1.385 . S
C1409 H1384 0.951 . S
C1409 C1407 1.388 . S
C1409 C1410 1.366 . S
C1410 C1409 1.366 . S
C1410 C1411 1.414 . S
C1410 C1413 1.499 . S
C1411 H1385 0.950 . S
C1411 C1410 1.414 . S
C1411 C1412 1.374 . S
C1412 H1386 0.950 . S
C1412 C1408 1.385 . S
C1412 C1411 1.374 . S
C1413 C1410 1.499 . S
C1413 C1414 1.373 . S
C1413 C1415 1.389 . S
C1414 H1387 0.950 . S
C1414 C1400 1.377 . S
C1414 C1413 1.373 . S
C1415 C1399 1.377 . S
C1415 C1413 1.389 . S
C1415 C1416 1.524 . S
C1416 C1415 1.524 . S
C1416 C1417 1.397 . S
C1416 C1421 1.363 . S
C1417 H1388 0.950 . S
C1417 C1416 1.397 . S
C1417 C1418 1.334 . S
C1418 H1389 0.950 . S
C1418 C1417 1.334 . S
C1418 C1419 1.287 . S
C1419 C1418 1.287 . S
C1419 C1420 1.524 . S
C1419 H1422 0.999 . S
C1420 H1390 0.950 . S
C1420 C1419 1.524 . S
C1420 C1421 1.415 . S
C1421 H1391 0.950 . S
C1421 C1416 1.363 . S
C1421 C1420 1.415 . S
H1422 C1419 0.999 . S
H1423 C1404 0.913 . S
H1424 C1442 0.951 . S
H1425 C1444 0.951 . S
H1426 C1446 0.950 . S
H1427 C1447 0.950 . S
H1428 C1449 0.950 . S
H1429 C1452 0.950 . S
H1430 C1453 0.950 . S
H1431 C1455 0.950 . S
H1432 C1456 0.950 . S
H1433 C1457 0.951 . S
H1434 C1459 0.951 . S
H1435 C1461 0.950 . S
H1436 C1462 0.950 . S
H1437 C1464 0.950 . S
H1438 C1467 0.950 . S
H1439 C1468 0.923 1_655 S
H1440 C1470 0.950 . S
H1441 C1471 0.950 . S
C1442 H1424 0.951 . S
C1442 C1443 1.366 . S
C1442 C1444 1.388 . S
C1443 C1442 1.366 . S
C1443 C1447 1.385 . S
C1444 H1425 0.951 . S
C1444 C1442 1.388 . S
C1444 C1445 1.366 . S
C1445 C1444 1.366 . S
C1445 C1446 1.414 . S
C1445 C1448 1.499 . S
C1446 H1426 0.950 . S
C1446 C1445 1.414 . S
C1446 C1447 1.374 . S
C1447 H1427 0.950 . S
C1447 C1443 1.385 . S
C1447 C1446 1.374 . S
C1448 C1445 1.499 . S
C1448 C1449 1.373 . S
C1448 C1450 1.389 . S
C1449 H1428 0.950 . S
C1449 C1448 1.373 . S
C1449 C1465 1.377 . S
C1450 C1448 1.389 . S
C1450 C1451 1.524 . S
C1450 C1464 1.377 . S
C1451 C1450 1.524 . S
C1451 C1452 1.397 . S
C1451 C1456 1.363 . S
C1452 H1429 0.950 . S
C1452 C1451 1.397 . S
C1452 C1453 1.334 . S
C1453 H1430 0.950 . S
C1453 C1452 1.334 . S
C1453 C1454 1.287 . S
C1454 C1453 1.287 . S
C1454 C1455 1.524 . S
C1454 H1473 0.913 . S
C1455 H1431 0.950 . S
C1455 C1454 1.524 . S
C1455 C1456 1.415 . S
C1456 H1432 0.950 . S
C1456 C1451 1.363 . S
C1456 C1455 1.415 . S
C1457 H1433 0.951 . S
C1457 C1458 1.366 . S
C1457 C1459 1.388 . S
C1458 C1457 1.366 . S
C1458 C1462 1.385 . S
C1459 H1434 0.951 . S
C1459 C1457 1.388 . S
C1459 C1460 1.366 . S
C1460 C1459 1.366 . S
C1460 C1461 1.414 . S
C1460 C1463 1.499 . S
C1461 H1435 0.950 . S
C1461 C1460 1.414 . S
C1461 C1462 1.374 . S
C1462 H1436 0.950 . S
C1462 C1458 1.385 . S
C1462 C1461 1.374 . S
C1463 C1460 1.499 . S
C1463 C1464 1.373 . S
C1463 C1465 1.389 . S
C1464 H1437 0.950 . S
C1464 C1450 1.377 . S
C1464 C1463 1.373 . S
C1465 C1449 1.377 . S
C1465 C1463 1.389 . S
C1465 C1466 1.524 . S
C1466 C1465 1.524 . S
C1466 C1467 1.397 . S
C1466 C1471 1.363 . S
C1467 H1438 0.950 . S
C1467 C1466 1.397 . S
C1467 C1468 1.354 . S
C1468 H1439 0.923 1_455 S
C1468 C1467 1.354 . S
C1468 C1469 1.295 . S
C1469 C1468 1.295 . S
C1469 C1470 1.524 . S
C1469 H1472 0.999 1_455 S
C1470 H1440 0.950 . S
C1470 C1469 1.524 . S
C1470 C1471 1.415 . S
C1471 H1441 0.950 . S
C1471 C1466 1.363 . S
C1471 C1470 1.415 . S
H1472 C1469 0.999 1_655 S
H1473 C1454 0.913 . S
H1474 C1492 0.951 . S
H1475 C1494 0.951 . S
H1476 C1496 0.950 . S
H1477 C1497 0.950 . S
H1478 C1499 0.950 . S
H1479 C1502 0.950 . S
H1480 C1503 0.950 . S
H1481 C1505 0.950 . S
H1482 C1506 0.950 . S
H1483 C1507 0.951 . S
H1484 C1509 0.951 . S
H1485 C1511 0.950 . S
H1486 C1512 0.950 . S
H1487 C1514 0.950 . S
H1488 C1517 0.950 . S
H1489 C1518 0.950 . S
H1490 C1520 0.950 . S
H1491 C1521 0.950 . S
C1492 H1474 0.951 . S
C1492 C1493 1.366 . S
C1492 C1494 1.388 . S
C1493 C1492 1.366 . S
C1493 C1497 1.385 . S
C1494 H1475 0.951 . S
C1494 C1492 1.388 . S
C1494 C1495 1.366 . S
C1495 C1494 1.366 . S
C1495 C1496 1.414 . S
C1495 C1498 1.499 . S
C1496 H1476 0.950 . S
C1496 C1495 1.414 . S
C1496 C1497 1.374 . S
C1497 H1477 0.950 . S
C1497 C1493 1.385 . S
C1497 C1496 1.374 . S
C1498 C1495 1.499 . S
C1498 C1499 1.373 . S
C1498 C1500 1.389 . S
C1499 H1478 0.950 . S
C1499 C1498 1.373 . S
C1499 C1515 1.377 . S
C1500 C1498 1.389 . S
C1500 C1501 1.524 . S
C1500 C1514 1.377 . S
C1501 C1500 1.524 . S
C1501 C1502 1.397 . S
C1501 C1506 1.363 . S
C1502 H1479 0.950 . S
C1502 C1501 1.397 . S
C1502 C1503 1.334 . S
C1503 H1480 0.950 . S
C1503 C1502 1.334 . S
C1503 C1504 1.287 . S
C1504 C1503 1.287 . S
C1504 C1505 1.524 . S
C1504 H1523 0.913 . S
C1505 H1481 0.950 . S
C1505 C1504 1.524 . S
C1505 C1506 1.415 . S
C1506 H1482 0.950 . S
C1506 C1501 1.363 . S
C1506 C1505 1.415 . S
C1507 H1483 0.951 . S
C1507 C1508 1.366 . S
C1507 C1509 1.388 . S
C1508 C1507 1.366 . S
C1508 C1512 1.385 . S
C1509 H1484 0.951 . S
C1509 C1507 1.388 . S
C1509 C1510 1.366 . S
C1510 C1509 1.366 . S
C1510 C1511 1.414 . S
C1510 C1513 1.499 . S
C1511 H1485 0.950 . S
C1511 C1510 1.414 . S
C1511 C1512 1.374 . S
C1512 H1486 0.950 . S
C1512 C1508 1.385 . S
C1512 C1511 1.374 . S
C1513 C1510 1.499 . S
C1513 C1514 1.373 . S
C1513 C1515 1.389 . S
C1514 H1487 0.950 . S
C1514 C1500 1.377 . S
C1514 C1513 1.373 . S
C1515 C1499 1.377 . S
C1515 C1513 1.389 . S
C1515 C1516 1.524 . S
C1516 C1515 1.524 . S
C1516 C1517 1.397 . S
C1516 C1521 1.363 . S
C1517 H1488 0.950 . S
C1517 C1516 1.397 . S
C1517 C1518 1.334 . S
C1518 H1489 0.950 . S
C1518 C1517 1.334 . S
C1518 C1519 1.287 . S
C1519 C1518 1.287 . S
C1519 C1520 1.524 . S
C1519 H1522 0.999 . S
C1520 H1490 0.950 . S
C1520 C1519 1.524 . S
C1520 C1521 1.415 . S
C1521 H1491 0.950 . S
C1521 C1516 1.363 . S
C1521 C1520 1.415 . S
H1522 C1519 0.999 . S
H1523 C1504 0.913 . S
H1524 C1542 0.951 . S
H1525 C1544 0.951 . S
H1526 C1546 0.950 . S
H1527 C1547 0.950 . S
H1528 C1549 0.950 . S
H1529 C1552 0.950 . S
H1530 C1553 0.950 . S
H1531 C1555 0.950 . S
H1532 C1556 0.950 . S
H1533 C1557 0.951 . S
H1534 C1559 0.951 . S
H1535 C1561 0.950 . S
H1536 C1562 0.950 . S
H1537 C1564 0.950 . S
H1538 C1567 0.950 . S
H1539 C1568 0.950 . S
H1540 C1570 0.950 . S
H1541 C1571 0.950 . S
C1542 H1524 0.951 . S
C1542 C1543 1.366 . S
C1542 C1544 1.388 . S
C1543 C1542 1.366 . S
C1543 C1547 1.385 . S
C1544 H1525 0.951 . S
C1544 C1542 1.388 . S
C1544 C1545 1.366 . S
C1545 C1544 1.366 . S
C1545 C1546 1.414 . S
C1545 C1548 1.499 . S
C1546 H1526 0.950 . S
C1546 C1545 1.414 . S
C1546 C1547 1.374 . S
C1547 H1527 0.950 . S
C1547 C1543 1.385 . S
C1547 C1546 1.374 . S
C1548 C1545 1.499 . S
C1548 C1549 1.373 . S
C1548 C1550 1.389 . S
C1549 H1528 0.950 . S
C1549 C1548 1.373 . S
C1549 C1565 1.377 . S
C1550 C1548 1.389 . S
C1550 C1551 1.524 . S
C1550 C1564 1.377 . S
C1551 C1550 1.524 . S
C1551 C1552 1.397 . S
C1551 C1556 1.363 . S
C1552 H1529 0.950 . S
C1552 C1551 1.397 . S
C1552 C1553 1.334 . S
C1553 H1530 0.950 . S
C1553 C1552 1.334 . S
C1553 C1554 1.287 . S
C1554 C1553 1.287 . S
C1554 C1555 1.524 . S
C1554 H1573 0.913 . S
C1555 H1531 0.950 . S
C1555 C1554 1.524 . S
C1555 C1556 1.415 . S
C1556 H1532 0.950 . S
C1556 C1551 1.363 . S
C1556 C1555 1.415 . S
C1557 H1533 0.951 . S
C1557 C1558 1.366 . S
C1557 C1559 1.388 . S
C1558 C1557 1.366 . S
C1558 C1562 1.385 . S
C1559 H1534 0.951 . S
C1559 C1557 1.388 . S
C1559 C1560 1.366 . S
C1560 C1559 1.366 . S
C1560 C1561 1.414 . S
C1560 C1563 1.499 . S
C1561 H1535 0.950 . S
C1561 C1560 1.414 . S
C1561 C1562 1.374 . S
C1562 H1536 0.950 . S
C1562 C1558 1.385 . S
C1562 C1561 1.374 . S
C1563 C1560 1.499 . S
C1563 C1564 1.373 . S
C1563 C1565 1.389 . S
C1564 H1537 0.950 . S
C1564 C1550 1.377 . S
C1564 C1563 1.373 . S
C1565 C1549 1.377 . S
C1565 C1563 1.389 . S
C1565 C1566 1.524 . S
C1566 C1565 1.524 . S
C1566 C1567 1.397 . S
C1566 C1571 1.363 . S
C1567 H1538 0.950 . S
C1567 C1566 1.397 . S
C1567 C1568 1.334 . S
C1568 H1539 0.950 . S
C1568 C1567 1.334 . S
C1568 C1569 1.287 . S
C1569 C1568 1.287 . S
C1569 C1570 1.524 . S
C1569 H1572 0.999 . S
C1570 H1540 0.950 . S
C1570 C1569 1.524 . S
C1570 C1571 1.415 . S
C1571 H1541 0.950 . S
C1571 C1566 1.363 . S
C1571 C1570 1.415 . S
H1572 C1569 0.999 . S
H1573 C1554 0.913 . S
H1574 C1592 0.951 . S
H1575 C1594 0.951 . S
H1576 C1596 0.950 . S
H1577 C1597 0.950 . S
H1578 C1599 0.950 . S
H1579 C1602 0.950 . S
H1580 C1603 0.950 . S
H1581 C1605 0.950 . S
H1582 C1606 0.950 . S
H1583 C1607 0.951 . S
H1584 C1609 0.951 . S
H1585 C1611 0.950 . S
H1586 C1612 0.950 . S
H1587 C1614 0.950 . S
H1588 C1617 0.950 . S
H1589 C1618 0.950 . S
H1590 C1620 0.950 . S
H1591 C1621 0.950 . S
C1592 H1574 0.951 . S
C1592 C1593 1.366 . S
C1592 C1594 1.388 . S
C1593 C1592 1.366 . S
C1593 C1597 1.385 . S
C1594 H1575 0.951 . S
C1594 C1592 1.388 . S
C1594 C1595 1.366 . S
C1595 C1594 1.366 . S
C1595 C1596 1.414 . S
C1595 C1598 1.499 . S
C1596 H1576 0.950 . S
C1596 C1595 1.414 . S
C1596 C1597 1.374 . S
C1597 H1577 0.950 . S
C1597 C1593 1.385 . S
C1597 C1596 1.374 . S
C1598 C1595 1.499 . S
C1598 C1599 1.373 . S
C1598 C1600 1.389 . S
C1599 H1578 0.950 . S
C1599 C1598 1.373 . S
C1599 C1615 1.377 . S
C1600 C1598 1.389 . S
C1600 C1601 1.524 . S
C1600 C1614 1.377 . S
C1601 C1600 1.524 . S
C1601 C1602 1.397 . S
C1601 C1606 1.363 . S
C1602 H1579 0.950 . S
C1602 C1601 1.397 . S
C1602 C1603 1.334 . S
C1603 H1580 0.950 . S
C1603 C1602 1.334 . S
C1603 C1604 1.287 . S
C1604 C1603 1.287 . S
C1604 C1605 1.524 1_655 S
C1604 H1623 0.913 1_655 S
C1605 H1581 0.950 . S
C1605 C1604 1.524 1_455 S
C1605 C1606 1.415 1_455 S
C1606 H1582 0.950 . S
C1606 C1601 1.363 . S
C1606 C1605 1.415 1_655 S
C1607 H1583 0.951 . S
C1607 C1608 1.366 . S
C1607 C1609 1.388 . S
C1608 C1607 1.366 . S
C1608 C1612 1.385 . S
C1609 H1584 0.951 . S
C1609 C1607 1.388 . S
C1609 C1610 1.366 . S
C1610 C1609 1.366 . S
C1610 C1611 1.414 . S
C1610 C1613 1.499 . S
C1611 H1585 0.950 . S
C1611 C1610 1.414 . S
C1611 C1612 1.374 . S
C1612 H1586 0.950 . S
C1612 C1608 1.385 . S
C1612 C1611 1.374 . S
C1613 C1610 1.499 . S
C1613 C1614 1.373 . S
C1613 C1615 1.389 . S
C1614 H1587 0.950 . S
C1614 C1600 1.377 . S
C1614 C1613 1.373 . S
C1615 C1599 1.377 . S
C1615 C1613 1.389 . S
C1615 C1616 1.524 . S
C1616 C1615 1.524 . S
C1616 C1617 1.397 . S
C1616 C1621 1.363 . S
C1617 H1588 0.950 . S
C1617 C1616 1.397 . S
C1617 C1618 1.334 . S
C1618 H1589 0.950 . S
C1618 C1617 1.334 . S
C1618 C1619 1.287 . S
C1619 C1618 1.287 . S
C1619 C1620 1.524 . S
C1619 H1622 0.999 . S
C1620 H1590 0.950 . S
C1620 C1619 1.524 . S
C1620 C1621 1.415 . S
C1621 H1591 0.950 . S
C1621 C1616 1.363 . S
C1621 C1620 1.415 . S
H1622 C1619 0.999 . S
H1623 C1604 0.913 1_455 S
H1624 C1642 0.951 . S
H1625 C1644 0.951 . S
H1626 C1646 0.950 . S
H1627 C1647 0.950 . S
H1628 C1649 0.950 . S
H1629 C1652 0.950 . S
H1630 C1653 0.950 . S
H1631 C1655 0.950 . S
H1632 C1656 0.950 . S
H1633 C1657 0.951 . S
H1634 C1659 0.951 . S
H1635 C1661 0.950 . S
H1636 C1662 0.950 . S
H1637 C1664 0.950 . S
H1638 C1667 0.950 . S
H1639 C1668 0.950 . S
H1640 C1670 0.950 . S
H1641 C1671 0.950 . S
C1642 H1624 0.951 . S
C1642 C1643 1.366 . S
C1642 C1644 1.388 . S
C1643 C1642 1.366 . S
C1643 C1647 1.385 . S
C1644 H1625 0.951 . S
C1644 C1642 1.388 . S
C1644 C1645 1.366 . S
C1645 C1644 1.366 . S
C1645 C1646 1.414 . S
C1645 C1648 1.499 . S
C1646 H1626 0.950 . S
C1646 C1645 1.414 . S
C1646 C1647 1.374 . S
C1647 H1627 0.950 . S
C1647 C1643 1.385 . S
C1647 C1646 1.374 . S
C1648 C1645 1.499 . S
C1648 C1649 1.373 . S
C1648 C1650 1.389 . S
C1649 H1628 0.950 . S
C1649 C1648 1.373 . S
C1649 C1665 1.377 . S
C1650 C1648 1.389 . S
C1650 C1651 1.524 . S
C1650 C1664 1.377 . S
C1651 C1650 1.524 . S
C1651 C1652 1.397 . S
C1651 C1656 1.363 . S
C1652 H1629 0.950 . S
C1652 C1651 1.397 . S
C1652 C1653 1.334 . S
C1653 H1630 0.950 . S
C1653 C1652 1.334 . S
C1653 C1654 1.287 . S
C1654 C1653 1.287 . S
C1654 C1655 1.524 . S
C1654 H1673 0.913 . S
C1655 H1631 0.950 . S
C1655 C1654 1.524 . S
C1655 C1656 1.415 . S
C1656 H1632 0.950 . S
C1656 C1651 1.363 . S
C1656 C1655 1.415 . S
C1657 H1633 0.951 . S
C1657 C1658 1.366 . S
C1657 C1659 1.388 . S
C1658 C1657 1.366 . S
C1658 C1662 1.385 . S
C1659 H1634 0.951 . S
C1659 C1657 1.388 . S
C1659 C1660 1.366 . S
C1660 C1659 1.366 . S
C1660 C1661 1.414 . S
C1660 C1663 1.499 . S
C1661 H1635 0.950 . S
C1661 C1660 1.414 . S
C1661 C1662 1.374 . S
C1662 H1636 0.950 . S
C1662 C1658 1.385 . S
C1662 C1661 1.374 . S
C1663 C1660 1.499 . S
C1663 C1664 1.373 . S
C1663 C1665 1.389 . S
C1664 H1637 0.950 . S
C1664 C1650 1.377 . S
C1664 C1663 1.373 . S
C1665 C1649 1.377 . S
C1665 C1663 1.389 . S
C1665 C1666 1.524 . S
C1666 C1665 1.524 . S
C1666 C1667 1.397 . S
C1666 C1671 1.363 . S
C1667 H1638 0.950 . S
C1667 C1666 1.397 . S
C1667 C1668 1.334 1_655 S
C1668 H1639 0.950 . S
C1668 C1667 1.334 1_455 S
C1668 C1669 1.287 . S
C1669 C1668 1.287 . S
C1669 C1670 1.524 1_455 S
C1669 H1672 0.999 . S
C1670 H1640 0.950 . S
C1670 C1669 1.524 1_655 S
C1670 C1671 1.415 . S
C1671 H1641 0.950 . S
C1671 C1666 1.363 . S
C1671 C1670 1.415 . S
H1672 C1669 0.999 . S
H1673 C1654 0.913 . S
H1674 C1692 0.951 . S
H1675 C1694 0.951 . S
H1676 C1696 0.950 . S
H1677 C1697 0.950 . S
H1678 C1699 0.950 . S
H1679 C1702 0.950 . S
H1680 C1703 0.950 . S
H1681 C1705 0.950 . S
H1682 C1706 0.950 . S
H1683 C1707 0.951 . S
H1684 C1709 0.951 . S
H1685 C1711 0.950 . S
H1686 C1712 0.950 . S
H1687 C1714 0.950 . S
H1688 C1717 0.950 . S
H1689 C1718 0.950 . S
H1690 C1720 0.950 . S
H1691 C1721 0.950 . S
C1692 H1674 0.951 . S
C1692 C1693 1.366 . S
C1692 C1694 1.388 . S
C1693 C1692 1.366 . S
C1693 C1697 1.385 . S
C1694 H1675 0.951 . S
C1694 C1692 1.388 . S
C1694 C1695 1.366 . S
C1695 C1694 1.366 . S
C1695 C1696 1.414 . S
C1695 C1698 1.499 . S
C1696 H1676 0.950 . S
C1696 C1695 1.414 . S
C1696 C1697 1.374 . S
C1697 H1677 0.950 . S
C1697 C1693 1.385 . S
C1697 C1696 1.374 . S
C1698 C1695 1.499 . S
C1698 C1699 1.373 . S
C1698 C1700 1.389 . S
C1699 H1678 0.950 . S
C1699 C1698 1.373 . S
C1699 C1715 1.377 . S
C1700 C1698 1.389 . S
C1700 C1701 1.524 . S
C1700 C1714 1.377 . S
C1701 C1700 1.524 . S
C1701 C1702 1.397 . S
C1701 C1706 1.363 . S
C1702 H1679 0.950 . S
C1702 C1701 1.397 . S
C1702 C1703 1.334 . S
C1703 H1680 0.950 . S
C1703 C1702 1.334 . S
C1703 C1704 1.287 . S
C1704 C1703 1.287 . S
C1704 C1705 1.524 . S
C1704 H1723 0.913 . S
C1705 H1681 0.950 . S
C1705 C1704 1.524 . S
C1705 C1706 1.415 . S
C1706 H1682 0.950 . S
C1706 C1701 1.363 . S
C1706 C1705 1.415 . S
C1707 H1683 0.951 . S
C1707 C1708 1.366 . S
C1707 C1709 1.388 . S
C1708 C1707 1.366 . S
C1708 C1712 1.385 . S
C1709 H1684 0.951 . S
C1709 C1707 1.388 . S
C1709 C1710 1.366 . S
C1710 C1709 1.366 . S
C1710 C1711 1.414 . S
C1710 C1713 1.499 . S
C1711 H1685 0.950 . S
C1711 C1710 1.414 . S
C1711 C1712 1.374 . S
C1712 H1686 0.950 . S
C1712 C1708 1.385 . S
C1712 C1711 1.374 . S
C1713 C1710 1.499 . S
C1713 C1714 1.373 . S
C1713 C1715 1.389 . S
C1714 H1687 0.950 . S
C1714 C1700 1.377 . S
C1714 C1713 1.373 . S
C1715 C1699 1.377 . S
C1715 C1713 1.389 . S
C1715 C1716 1.524 . S
C1716 C1715 1.524 . S
C1716 C1717 1.397 . S
C1716 C1721 1.363 . S
C1717 H1688 0.950 . S
C1717 C1716 1.397 . S
C1717 C1718 1.334 . S
C1718 H1689 0.950 . S
C1718 C1717 1.334 . S
C1718 C1719 1.287 . S
C1719 C1718 1.287 . S
C1719 C1720 1.524 . S
C1719 H1722 0.999 . S
C1720 H1690 0.950 . S
C1720 C1719 1.524 . S
C1720 C1721 1.415 . S
C1721 H1691 0.950 . S
C1721 C1716 1.363 . S
C1721 C1720 1.415 . S
H1722 C1719 0.999 . S
H1723 C1704 0.913 . S
H1724 C1742 0.951 . S
H1725 C1744 0.951 . S
H1726 C1746 0.950 . S
H1727 C1747 0.950 . S
H1728 C1749 0.950 . S
H1729 C1752 0.950 . S
H1730 C1753 0.950 . S
H1731 C1755 0.950 . S
H1732 C1756 0.950 . S
H1733 C1757 0.951 . S
H1734 C1759 0.951 . S
H1735 C1761 0.950 . S
H1736 C1762 0.950 . S
H1737 C1764 0.950 . S
H1738 C1767 0.950 . S
H1739 C1768 0.950 . S
H1740 C1770 0.950 . S
H1741 C1771 0.950 . S
C1742 H1724 0.951 . S
C1742 C1743 1.366 . S
C1742 C1744 1.388 . S
C1743 C1742 1.366 . S
C1743 C1747 1.385 . S
C1744 H1725 0.951 . S
C1744 C1742 1.388 . S
C1744 C1745 1.366 . S
C1745 C1744 1.366 . S
C1745 C1746 1.414 . S
C1745 C1748 1.499 . S
C1746 H1726 0.950 . S
C1746 C1745 1.414 . S
C1746 C1747 1.374 . S
C1747 H1727 0.950 . S
C1747 C1743 1.385 . S
C1747 C1746 1.374 . S
C1748 C1745 1.499 . S
C1748 C1749 1.373 . S
C1748 C1750 1.389 . S
C1749 H1728 0.950 . S
C1749 C1748 1.373 . S
C1749 C1765 1.377 . S
C1750 C1748 1.389 . S
C1750 C1751 1.524 . S
C1750 C1764 1.377 . S
C1751 C1750 1.524 . S
C1751 C1752 1.397 . S
C1751 C1756 1.363 . S
C1752 H1729 0.950 . S
C1752 C1751 1.397 . S
C1752 C1753 1.334 . S
C1753 H1730 0.950 . S
C1753 C1752 1.334 . S
C1753 C1754 1.287 . S
C1754 C1753 1.287 . S
C1754 C1755 1.524 . S
C1754 H1773 0.913 . S
C1755 H1731 0.950 . S
C1755 C1754 1.524 . S
C1755 C1756 1.415 . S
C1756 H1732 0.950 . S
C1756 C1751 1.363 . S
C1756 C1755 1.415 . S
C1757 H1733 0.951 . S
C1757 C1758 1.366 . S
C1757 C1759 1.388 . S
C1758 C1757 1.366 . S
C1758 C1762 1.385 . S
C1759 H1734 0.951 . S
C1759 C1757 1.388 . S
C1759 C1760 1.366 . S
C1760 C1759 1.366 . S
C1760 C1761 1.414 . S
C1760 C1763 1.499 . S
C1761 H1735 0.950 . S
C1761 C1760 1.414 . S
C1761 C1762 1.374 . S
C1762 H1736 0.950 . S
C1762 C1758 1.385 . S
C1762 C1761 1.374 . S
C1763 C1760 1.499 . S
C1763 C1764 1.373 . S
C1763 C1765 1.389 . S
C1764 H1737 0.950 . S
C1764 C1750 1.377 . S
C1764 C1763 1.373 . S
C1765 C1749 1.377 . S
C1765 C1763 1.389 . S
C1765 C1766 1.524 . S
C1766 C1765 1.524 . S
C1766 C1767 1.397 . S
C1766 C1771 1.363 . S
C1767 H1738 0.950 . S
C1767 C1766 1.397 . S
C1767 C1768 1.334 . S
C1768 H1739 0.950 . S
C1768 C1767 1.334 . S
C1768 C1769 1.287 . S
C1769 C1768 1.287 . S
C1769 C1770 1.524 . S
C1769 H1772 0.999 . S
C1770 H1740 0.950 . S
C1770 C1769 1.524 . S
C1770 C1771 1.415 . S
C1771 H1741 0.950 . S
C1771 C1766 1.363 . S
C1771 C1770 1.415 . S
H1772 C1769 0.999 . S
H1773 C1754 0.913 . S
H1774 C1792 0.951 . S
H1775 C1794 0.951 . S
H1776 C1796 0.950 . S
H1777 C1797 0.950 . S
H1778 C1799 0.950 . S
H1779 C1802 0.950 . S
H1780 C1803 0.950 . S
H1781 C1805 0.950 . S
H1782 C1806 0.950 . S
H1783 C1807 0.951 . S
H1784 C1809 0.951 . S
H1785 C1811 0.950 . S
H1786 C1812 0.950 . S
H1787 C1814 0.950 . S
H1788 C1817 0.950 . S
H1789 C1818 0.950 . S
H1790 C1820 0.950 . S
H1791 C1821 0.950 . S
C1792 H1774 0.951 . S
C1792 C1793 1.366 . S
C1792 C1794 1.388 . S
C1793 C1792 1.366 . S
C1793 C1797 1.385 . S
C1794 H1775 0.951 . S
C1794 C1792 1.388 . S
C1794 C1795 1.366 . S
C1795 C1794 1.366 . S
C1795 C1796 1.414 . S
C1795 C1798 1.499 . S
C1796 H1776 0.950 . S
C1796 C1795 1.414 . S
C1796 C1797 1.374 . S
C1797 H1777 0.950 . S
C1797 C1793 1.385 . S
C1797 C1796 1.374 . S
C1798 C1795 1.499 . S
C1798 C1799 1.373 . S
C1798 C1800 1.389 . S
C1799 H1778 0.950 . S
C1799 C1798 1.373 . S
C1799 C1815 1.377 . S
C1800 C1798 1.389 . S
C1800 C1801 1.524 . S
C1800 C1814 1.377 . S
C1801 C1800 1.524 . S
C1801 C1802 1.397 . S
C1801 C1806 1.363 . S
C1802 H1779 0.950 . S
C1802 C1801 1.397 . S
C1802 C1803 1.334 . S
C1803 H1780 0.950 . S
C1803 C1802 1.334 . S
C1803 C1804 1.287 . S
C1804 C1803 1.287 . S
C1804 C1805 1.524 . S
C1804 H1823 0.913 . S
C1805 H1781 0.950 . S
C1805 C1804 1.524 . S
C1805 C1806 1.415 . S
C1806 H1782 0.950 . S
C1806 C1801 1.363 . S
C1806 C1805 1.415 . S
C1807 H1783 0.951 . S
C1807 C1808 1.366 . S
C1807 C1809 1.388 . S
C1808 C1807 1.366 . S
C1808 C1812 1.385 . S
C1809 H1784 0.951 . S
C1809 C1807 1.388 . S
C1809 C1810 1.366 . S
C1810 C1809 1.366 . S
C1810 C1811 1.414 . S
C1810 C1813 1.499 . S
C1811 H1785 0.950 . S
C1811 C1810 1.414 . S
C1811 C1812 1.374 . S
C1812 H1786 0.950 . S
C1812 C1808 1.385 . S
C1812 C1811 1.374 . S
C1813 C1810 1.499 . S
C1813 C1814 1.373 . S
C1813 C1815 1.389 . S
C1814 H1787 0.950 . S
C1814 C1800 1.377 . S
C1814 C1813 1.373 . S
C1815 C1799 1.377 . S
C1815 C1813 1.389 . S
C1815 C1816 1.524 . S
C1816 C1815 1.524 . S
C1816 C1817 1.397 . S
C1816 C1821 1.363 . S
C1817 H1788 0.950 . S
C1817 C1816 1.397 . S
C1817 C1818 1.334 . S
C1818 H1789 0.950 . S
C1818 C1817 1.334 . S
C1818 C1819 1.287 . S
C1819 C1818 1.287 . S
C1819 C1820 1.524 . S
C1819 H1822 0.999 . S
C1820 H1790 0.950 . S
C1820 C1819 1.524 . S
C1820 C1821 1.415 . S
C1821 H1791 0.950 . S
C1821 C1816 1.363 . S
C1821 C1820 1.415 . S
H1822 C1819 0.999 . S
H1823 C1804 0.913 . S
C643 C247 1.472 . S
C658 C362 1.453 . S
C708 C446 1.453 . S
C693 C283 1.473 . S
C758 C439 1.459 . S
C743 C175 1.464 . S
C793 C211 1.464 . S
C808 C355 1.459 . S
C858 C519 1.452 . S
C843 C103 1.460 . S
C908 C603 1.453 . S
C893 C139 1.461 . S
C943 C31 1.450 . S
C958 C596 1.459 . S
C993 C67 1.450 . S
C1008 C512 1.459 . S
C1058 C346 1.349 . S
C1043 C37 1.511 1_554 S
C1108 C430 1.347 . S
C1093 C1 1.510 . S
C1158 C441 1.406 . S
C1143 C109 1.598 . S
C1208 C357 1.405 . S
C1193 C73 1.533 . S
C1258 C525 1.347 . S
C1243 C181 1.522 1_556 S
C1293 C145 1.522 . S
C1308 C609 1.346 . S
C1358 C598 1.407 . S
C1343 C253 1.544 . S
C1393 C217 1.543 . S
C1408 C514 1.405 . S
C1458 C344 1.589 . S
C1443 C25 1.568 . S
C1508 C428 1.589 . S
C1493 C61 1.568 . S
C1543 C97 1.560 . S
C1558 C435 1.566 . S
C1608 C351 1.566 . S
C1593 C133 1.560 . S
C1658 C523 1.589 . S
C1643 C169 1.584 . S
C1693 C205 1.585 . S
C1708 C607 1.589 . S
C1743 C241 1.575 . S
C1758 C614 1.566 . S
C1793 C277 1.575 . S
C1808 C530 1.567 . S
