# Generated by pormake.
# Topology pyr, (3,6)-cn, num edge types: 1
# Building blocks:
#     Node 0, Type 0, BuildingBlock: BETDAH_clean_linker_0, # of connection points: 3
#     Node 1, Type 0, BuildingBlock: BETDAH_clean_linker_0, # of connection points: 3
#     Node 2, Type 0, BuildingBlock: BETDAH_clean_linker_0, # of connection points: 3
#     Node 3, Type 0, BuildingBlock: BETDAH_clean_linker_0, # of connection points: 3
#     Node 4, Type 0, BuildingBlock: BETDAH_clean_linker_0, # of connection points: 3
#     Node 5, Type 0, BuildingBlock: BETDAH_clean_linker_0, # of connection points: 3
#     Node 6, Type 0, BuildingBlock: BETDAH_clean_linker_0, # of connection points: 3
#     Node 7, Type 0, BuildingBlock: BETDAH_clean_linker_0, # of connection points: 3
#     Node 8, Type 1, BuildingBlock: MIFKUJ_clean_sbu_0, # of connection points: 6
#     Node 9, Type 1, BuildingBlock: MIFKUJ_clean_sbu_0, # of connection points: 6
#     Node 10, Type 1, BuildingBlock: MIFKUJ_clean_sbu_0, # of connection points: 6
#     Node 11, Type 1, BuildingBlock: MIFKUJ_clean_sbu_0, # of connection points: 6
#     Edge 12, Type (0, 1), BuildingBlock: UVAHIK_clean_linker_0, # of connection points: 2
#     Edge 13, Type (0, 1), BuildingBlock: UVAHIK_clean_linker_0, # of connection points: 2
#     Edge 14, Type (0, 1), BuildingBlock: UVAHIK_clean_linker_0, # of connection points: 2
#     Edge 15, Type (0, 1), BuildingBlock: UVAHIK_clean_linker_0, # of connection points: 2
#     Edge 16, Type (0, 1), BuildingBlock: UVAHIK_clean_linker_0, # of connection points: 2
#     Edge 17, Type (0, 1), BuildingBlock: UVAHIK_clean_linker_0, # of connection points: 2
#     Edge 18, Type (0, 1), BuildingBlock: UVAHIK_clean_linker_0, # of connection points: 2
#     Edge 19, Type (0, 1), BuildingBlock: UVAHIK_clean_linker_0, # of connection points: 2
#     Edge 20, Type (0, 1), BuildingBlock: UVAHIK_clean_linker_0, # of connection points: 2
#     Edge 21, Type (0, 1), BuildingBlock: UVAHIK_clean_linker_0, # of connection points: 2
#     Edge 22, Type (0, 1), BuildingBlock: UVAHIK_clean_linker_0, # of connection points: 2
#     Edge 23, Type (0, 1), BuildingBlock: UVAHIK_clean_linker_0, # of connection points: 2
#     Edge 24, Type (0, 1), BuildingBlock: UVAHIK_clean_linker_0, # of connection points: 2
#     Edge 25, Type (0, 1), BuildingBlock: UVAHIK_clean_linker_0, # of connection points: 2
#     Edge 26, Type (0, 1), BuildingBlock: UVAHIK_clean_linker_0, # of connection points: 2
#     Edge 27, Type (0, 1), BuildingBlock: UVAHIK_clean_linker_0, # of connection points: 2
#     Edge 28, Type (0, 1), BuildingBlock: UVAHIK_clean_linker_0, # of connection points: 2
#     Edge 29, Type (0, 1), BuildingBlock: UVAHIK_clean_linker_0, # of connection points: 2
#     Edge 30, Type (0, 1), BuildingBlock: UVAHIK_clean_linker_0, # of connection points: 2
#     Edge 31, Type (0, 1), BuildingBlock: UVAHIK_clean_linker_0, # of connection points: 2
#     Edge 32, Type (0, 1), BuildingBlock: UVAHIK_clean_linker_0, # of connection points: 2
#     Edge 33, Type (0, 1), BuildingBlock: UVAHIK_clean_linker_0, # of connection points: 2
#     Edge 34, Type (0, 1), BuildingBlock: UVAHIK_clean_linker_0, # of connection points: 2
#     Edge 35, Type (0, 1), BuildingBlock: UVAHIK_clean_linker_0, # of connection points: 2
# Relax obj value: 0.054
# Max RMSD: 0.192
# Mean RMSD: 0.127
data_MOF--net-pyr--node1-MIFKUJ_clean_sbu_0--node2-BETDAH_clean_linker_0--edge1-UVAHIK_clean_linker_0
_symmetry_space_group_name_H-M    P1
_symmetry_Int_Tables_number       1
_symmetry_cell_setting            triclinic
loop_
_symmetry_equiv_pos_as_xyz
'x, y, z'
_cell_length_a     49.070535
_cell_length_b     44.486624
_cell_length_c     50.063686
_cell_angle_alpha  86.499434
_cell_angle_beta   88.991205
_cell_angle_gamma 102.80699
loop_
_atom_site_label
_atom_site_type_symbol
_atom_site_fract_x
_atom_site_fract_y
_atom_site_fract_z
_atom_type_partial_charge
H0 H 0.219 0.15975 0.22273 0.0
H1 H 0.2381 0.22508 0.15435 0.0
H2 H 0.16683 0.22422 0.20534 0.0
C3 C 0.21396 0.17822 0.21002 0.0
C4 C 0.19055 0.19008 0.21665 0.0
C5 C 0.23129 0.19043 0.1875 0.0
C6 C 0.22534 0.21544 0.17203 0.0
C7 C 0.20238 0.22775 0.17837 0.0
C8 C 0.18482 0.21494 0.20059 0.0
N9 N 0.19794 0.25319 0.16189 0.0
C10 C 0.17318 0.26337 0.16086 0.0
H11 H 0.37977 0.84943 0.73865 0.0
H12 H 0.32874 0.91577 0.74524 0.0
H13 H 0.32729 0.8666 0.67388 0.0
C14 C 0.36468 0.86149 0.73022 0.0
C15 C 0.35488 0.85539 0.70438 0.0
C16 C 0.35547 0.88321 0.74519 0.0
C17 C 0.33618 0.89896 0.73399 0.0
C18 C 0.32565 0.89284 0.70861 0.0
C19 C 0.33487 0.87085 0.69379 0.0
N20 N 0.30655 0.9102 0.69861 0.0
C21 C 0.28874 0.90296 0.67751 0.0
H22 H 0.70794 0.33589 0.87975 0.0
H23 H 0.74427 0.38621 0.80675 0.0
H24 H 0.66337 0.3249 0.80645 0.0
C25 C 0.70655 0.34226 0.85866 0.0
C26 C 0.68292 0.32822 0.84487 0.0
C27 C 0.72892 0.36322 0.84522 0.0
C28 C 0.7274 0.36992 0.81757 0.0
C29 C 0.7037 0.35662 0.80374 0.0
C30 C 0.68145 0.33568 0.81734 0.0
N31 N 0.70303 0.36395 0.77592 0.0
C32 C 0.68185 0.37628 0.76488 0.0
H33 H 0.8078 0.71589 0.3636 0.0
H34 H 0.87442 0.69287 0.31737 0.0
H35 H 0.80725 0.62109 0.35175 0.0
C36 C 0.81702 0.69895 0.3543 0.0
C37 C 0.80419 0.6676 0.35873 0.0
C38 C 0.84263 0.70838 0.33981 0.0
C39 C 0.85465 0.68594 0.3285 0.0
C40 C 0.84163 0.65441 0.33263 0.0
C41 C 0.81689 0.64545 0.34823 0.0
N42 N 0.85356 0.63096 0.32265 0.0
C43 C 0.86826 0.63382 0.29834 0.0
H44 H 0.8715 0.84315 0.79055 0.0
H45 H 0.798 0.81685 0.8427 0.0
H46 H 0.7943 0.86589 0.76694 0.0
C47 C 0.84971 0.84278 0.79486 0.0
C48 C 0.83466 0.85651 0.77592 0.0
C49 C 0.83675 0.82789 0.81892 0.0
C50 C 0.8086 0.82842 0.8245 0.0
C51 C 0.79344 0.8422 0.80569 0.0
C52 C 0.80633 0.85555 0.78136 0.0
N53 N 0.76467 0.8411 0.81007 0.0
C54 C 0.75438 0.85233 0.83252 0.0
H55 H 0.70093 0.16159 0.33692 0.0
H56 H 0.7263 0.23284 0.39144 0.0
H57 H 0.6535 0.23167 0.34504 0.0
C58 C 0.69744 0.18182 0.34624 0.0
C59 C 0.67491 0.19492 0.3384 0.0
C60 C 0.71584 0.19497 0.36572 0.0
C61 C 0.71179 0.22179 0.37703 0.0
C62 C 0.68929 0.23481 0.36994 0.0
C63 C 0.67069 0.22126 0.35077 0.0
N64 N 0.68717 0.26263 0.38134 0.0
C65 C 0.66222 0.27077 0.3878 0.0
H66 H 0.30707 0.74071 0.19336 0.0
H67 H 0.27415 0.65905 0.24439 0.0
H68 H 0.35641 0.71328 0.2569 0.0
C69 C 0.30941 0.72498 0.21014 0.0
C70 C 0.33428 0.73028 0.22442 0.0
C71 C 0.28755 0.69948 0.21726 0.0
C72 C 0.29073 0.67912 0.23885 0.0
C73 C 0.31536 0.68372 0.25308 0.0
C74 C 0.33731 0.70935 0.24583 0.0
N75 N 0.317 0.66184 0.27445 0.0
C76 C 0.34004 0.66216 0.29017 0.0
H77 H 0.17522 0.33783 0.66771 0.0
H78 H 0.1612 0.39806 0.72789 0.0
H79 H 0.09505 0.32215 0.70863 0.0
C80 C 0.16129 0.34443 0.68217 0.0
C81 C 0.13386 0.32686 0.68603 0.0
C82 C 0.1712 0.37036 0.6968 0.0
C83 C 0.1537 0.37803 0.71659 0.0
C84 C 0.12618 0.36036 0.72094 0.0
C85 C 0.11647 0.33509 0.70555 0.0
N86 N 0.10726 0.36757 0.74002 0.0
C87 C 0.11388 0.39026 0.75821 0.0
Zn88 Zn 0.03095 0.00968 0.50415 0.0
Zn89 Zn 0.98271 0.03857 0.48349 0.0
C90 C 0.06062 0.06867 0.52101 0.0
O91 O 0.07896 0.06556 0.50253 0.0
C92 C 0.94718 0.98872 0.45912 0.0
O93 O 0.92812 0.00081 0.4704 0.0
O94 O 0.06124 0.98732 0.51502 0.0
O95 O 0.9938 0.98362 0.51808 0.0
O96 O 0.97714 0.02508 0.52275 0.0
C97 C 0.06052 0.97469 0.5386 0.0
O98 O 0.03944 0.9754 0.55493 0.0
O99 O 0.03828 0.04792 0.52488 0.0
C100 C 0.95118 0.07093 0.44932 0.0
O101 O 0.96752 0.06292 0.43127 0.0
O102 O 0.9542 0.0638 0.47392 0.0
O103 O 0.01993 0.06371 0.46931 0.0
O104 O 0.03644 0.02224 0.46452 0.0
O105 O 0.97287 0.00045 0.46246 0.0
C106 C 0.97797 0.99754 0.53052 0.0
C107 C 0.03534 0.04963 0.45655 0.0
Zn108 Zn 0.53194 0.99874 0.01946 0.0
Zn109 Zn 0.50094 0.04706 0.06478 0.0
C110 C 0.48923 0.95654 0.99319 0.0
O111 O 0.50084 0.93596 0.00566 0.0
C112 C 0.53199 0.08312 0.1025 0.0
O113 O 0.52482 0.10395 0.086 0.0
O114 O 0.5608 0.97773 0.00444 0.0
O115 O 0.5454 0.04429 0.00995 0.0
O116 O 0.52246 0.07226 0.03339 0.0
C117 C 0.58702 0.98871 0.00461 0.0
O118 O 0.59643 0.01478 0.01586 0.0
O119 O 0.498 0.9849 0.99737 0.0
C120 C 0.45245 0.05381 0.09332 0.0
O121 O 0.45849 0.03061 0.10771 0.0
O122 O 0.4677 0.06513 0.07276 0.0
O123 O 0.48619 0.0014 0.06143 0.0
O124 O 0.52386 0.98274 0.05808 0.0
O125 O 0.52471 0.05482 0.09741 0.0
C126 C 0.53967 0.06999 0.01474 0.0
C127 C 0.5007 0.98264 0.06984 0.0
Zn128 Zn 0.50297 0.51736 0.53717 0.0
Zn129 Zn 0.48734 0.56899 0.57256 0.0
C130 C 0.54296 0.55684 0.50203 0.0
O131 O 0.52296 0.54759 0.4853 0.0
C132 C 0.44778 0.53118 0.60839 0.0
O133 O 0.46594 0.54567 0.62487 0.0
O134 O 0.50679 0.47934 0.5182 0.0
O135 O 0.5019 0.50699 0.57701 0.0
O136 O 0.52003 0.55414 0.58845 0.0
C137 C 0.51945 0.45999 0.52915 0.0
O138 O 0.52822 0.46379 0.55361 0.0
O139 O 0.53908 0.54773 0.52665 0.0
C140 C 0.45767 0.61351 0.5843 0.0
O141 O 0.44132 0.5961 0.56807 0.0
O142 O 0.48099 0.607 0.59 0.0
O143 O 0.48806 0.58037 0.53303 0.0
O144 O 0.47121 0.5333 0.52094 0.0
O145 O 0.45267 0.53642 0.5833 0.0
C146 C 0.51706 0.52502 0.59235 0.0
C147 C 0.4742 0.56235 0.51692 0.0
Zn148 Zn 0.00356 0.58564 0.99371 0.0
Zn149 Zn 0.01751 0.53321 0.03306 0.0
C150 C 0.96943 0.54334 0.96224 0.0
O151 O 0.98808 0.55843 0.94423 0.0
C152 C 0.04803 0.56657 0.07245 0.0
O153 O 0.0267 0.54946 0.08654 0.0
O154 O 0.99463 0.62249 0.97288 0.0
O155 O 0.00212 0.59414 0.0329 0.0
O156 O 0.98189 0.54566 0.0432 0.0
C157 C 0.97468 0.63317 0.98222 0.0
O158 O 0.9622 0.62079 0.00498 0.0
O159 O 0.97151 0.55065 0.98638 0.0
C160 C 0.03856 0.4809 0.04845 0.0
O161 O 0.05704 0.49463 0.02979 0.0
O162 O 0.01821 0.49306 0.05402 0.0
O163 O 0.02621 0.52706 0.99459 0.0
O164 O 0.03822 0.57528 0.97745 0.0
O165 O 0.04926 0.56417 0.04731 0.0
C166 C 0.9855 0.57396 0.04804 0.0
C167 C 0.03939 0.547 0.97691 0.0
C168 C 0.16176 0.19517 0.25762 0.0
C169 C 0.17233 0.17636 0.24039 0.0
C170 C 0.1457 0.18217 0.28055 0.0
C171 C 0.10484 0.10732 0.3119 0.0
H172 H 0.11723 0.14939 0.37769 0.0
C173 C 0.0644 0.04794 0.41521 0.0
C174 C 0.05127 0.06486 0.43216 0.0
C175 C 0.07856 0.06211 0.39168 0.0
C176 C 0.11338 0.13752 0.35941 0.0
H177 H 0.17345 0.12898 0.23339 0.0
H178 H 0.14642 0.10653 0.27367 0.0
H179 H 0.14246 0.17317 0.33657 0.0
H180 H 0.04309 0.11007 0.43788 0.0
H181 H 0.06806 0.1348 0.39691 0.0
H182 H 0.0762 0.07138 0.33497 0.0
C183 C 0.15015 0.13128 0.26937 0.0
C184 C 0.12774 0.15118 0.3358 0.0
C185 C 0.16603 0.14423 0.24641 0.0
C186 C 0.05296 0.09636 0.42525 0.0
C187 C 0.06736 0.11059 0.40185 0.0
C188 C 0.09068 0.09357 0.33554 0.0
C189 C 0.1399 0.15007 0.28684 0.0
C190 C 0.12377 0.13617 0.31176 0.0
C191 C 0.08013 0.09355 0.38472 0.0
C192 C 0.09489 0.10845 0.35957 0.0
H193 H 0.16637 0.22002 0.2537 0.0
H194 H 0.13784 0.19731 0.29335 0.0
H195 H 0.10082 0.09536 0.29369 0.0
H196 H 0.06348 0.02364 0.41993 0.0
H197 H 0.08847 0.04849 0.379 0.0
C198 C 0.3731 0.91998 0.78053 0.0
C199 C 0.36615 0.88957 0.77242 0.0
C200 C 0.38346 0.92599 0.80597 0.0
C201 C 0.41931 0.89289 0.8606 0.0
H202 H 0.39609 0.95416 0.90215 0.0
C203 C 0.46071 0.91621 0.96596 0.0
C204 C 0.46941 0.9474 0.97156 0.0
C205 C 0.44497 0.9079 0.94346 0.0
C206 C 0.40294 0.93713 0.89073 0.0
H207 H 0.36401 0.84157 0.78505 0.0
H208 H 0.38227 0.85208 0.82934 0.0
H209 H 0.37513 0.94223 0.85909 0.0
H210 H 0.46727 0.99422 0.95852 0.0
H211 H 0.44019 0.97979 0.91918 0.0
H212 H 0.44749 0.88815 0.89185 0.0
C213 C 0.38003 0.87132 0.81587 0.0
C214 C 0.39093 0.93031 0.86604 0.0
C215 C 0.36961 0.86531 0.79046 0.0
C216 C 0.46092 0.96996 0.95482 0.0
C217 C 0.44526 0.96166 0.93228 0.0
C218 C 0.43136 0.89976 0.88522 0.0
C219 C 0.38718 0.90174 0.8239 0.0
C220 C 0.39912 0.90825 0.85061 0.0
C221 C 0.43761 0.93058 0.92598 0.0
C222 C 0.42348 0.92211 0.90053 0.0
H223 H 0.37108 0.93926 0.76701 0.0
H224 H 0.38916 0.94973 0.81136 0.0
H225 H 0.4264 0.87612 0.84905 0.0
H226 H 0.4667 0.89821 0.97853 0.0
H227 H 0.43896 0.88369 0.93953 0.0
C228 C 0.66669 0.42411 0.75276 0.0
C229 C 0.66223 0.39195 0.75241 0.0
C230 C 0.64915 0.43996 0.73888 0.0
C231 C 0.58043 0.42963 0.7071 0.0
H232 H 0.6166 0.50272 0.66289 0.0
C233 C 0.52604 0.4795 0.6197 0.0
C234 C 0.53137 0.51171 0.6144 0.0
C235 C 0.54047 0.46647 0.63937 0.0
C236 C 0.60609 0.4827 0.67547 0.0
H237 H 0.63617 0.3507 0.73807 0.0
H238 H 0.60533 0.37832 0.71355 0.0
H239 H 0.64448 0.47674 0.69226 0.0
H240 H 0.5555 0.55557 0.62627 0.0
H241 H 0.58062 0.53274 0.66093 0.0
H242 H 0.54208 0.43533 0.69 0.0
C243 C 0.62211 0.39139 0.72474 0.0
C244 C 0.62208 0.46777 0.69229 0.0
C245 C 0.63974 0.37558 0.73862 0.0
C246 C 0.55099 0.53066 0.62977 0.0
C247 C 0.56549 0.51758 0.64952 0.0
C248 C 0.56442 0.44461 0.69033 0.0
C249 C 0.62686 0.42382 0.72441 0.0
C250 C 0.60949 0.44082 0.70801 0.0
C251 C 0.56057 0.4853 0.65435 0.0
C252 C 0.57713 0.47105 0.674 0.0
H253 H 0.68406 0.43705 0.76336 0.0
H254 H 0.65315 0.46487 0.73928 0.0
H255 H 0.57006 0.40921 0.71929 0.0
H256 H 0.51095 0.46417 0.60837 0.0
H257 H 0.53642 0.44154 0.64229 0.0
C258 C 0.87678 0.60158 0.26277 0.0
C259 C 0.88128 0.6308 0.27295 0.0
C260 C 0.88922 0.59765 0.23836 0.0
C261 C 0.92057 0.63867 0.1753 0.0
H262 H 0.95066 0.56559 0.16992 0.0
C263 C 0.97947 0.61343 0.08015 0.0
C264 C 0.97321 0.58267 0.07286 0.0
C265 C 0.96904 0.62116 0.10439 0.0
C266 C 0.94213 0.58596 0.171 0.0
H267 H 0.90177 0.67904 0.26608 0.0
H268 H 0.92396 0.67226 0.22302 0.0
H269 H 0.93165 0.57605 0.2127 0.0
H270 H 0.95045 0.53608 0.08501 0.0
H271 H 0.93211 0.54959 0.12697 0.0
H272 H 0.93095 0.64836 0.13339 0.0
C273 C 0.91067 0.65239 0.23383 0.0
C274 C 0.93126 0.59199 0.19553 0.0
C275 C 0.89817 0.65628 0.25841 0.0
C276 C 0.95584 0.55996 0.09005 0.0
C277 C 0.94546 0.56767 0.11422 0.0
C278 C 0.93149 0.63262 0.15065 0.0
C279 C 0.90648 0.62292 0.22366 0.0
C280 C 0.91992 0.61811 0.1979 0.0
C281 C 0.9522 0.59827 0.12185 0.0
C282 C 0.94197 0.60591 0.14816 0.0
H283 H 0.86361 0.5817 0.27372 0.0
H284 H 0.88511 0.57479 0.23089 0.0
H285 H 0.91182 0.65889 0.17644 0.0
H286 H 0.99281 0.63148 0.06735 0.0
H287 H 0.97474 0.64491 0.10976 0.0
C288 C 0.27992 0.19534 0.168 0.0
C289 C 0.25507 0.17663 0.17962 0.0
C290 C 0.30144 0.18217 0.15896 0.0
C291 C 0.3318 0.1147 0.16761 0.0
H292 H 0.36006 0.13595 0.09448 0.0
C293 C 0.40816 0.05053 0.11983 0.0
C294 C 0.42913 0.06743 0.10191 0.0
C295 C 0.38669 0.06372 0.12894 0.0
C296 C 0.35281 0.13009 0.11509 0.0
H297 H 0.23379 0.12923 0.19108 0.0
H298 H 0.27187 0.10652 0.17621 0.0
H299 H 0.32399 0.15991 0.1121 0.0
H300 H 0.44415 0.11141 0.07948 0.0
H301 H 0.40737 0.13491 0.09611 0.0
H302 H 0.36104 0.08566 0.1711 0.0
C303 C 0.27446 0.13138 0.17402 0.0
C304 C 0.33204 0.14375 0.1251 0.0
C305 C 0.25272 0.14447 0.18267 0.0
C306 C 0.42812 0.09773 0.09312 0.0
C307 C 0.40691 0.11113 0.10259 0.0
C308 C 0.3529 0.10141 0.15777 0.0
C309 C 0.29883 0.15008 0.16176 0.0
C310 C 0.32126 0.13606 0.1514 0.0
C311 C 0.38594 0.09435 0.12074 0.0
C312 C 0.3636 0.10877 0.1313 0.0
H313 H 0.28281 0.22022 0.16584 0.0
H314 H 0.32021 0.19711 0.14989 0.0
H315 H 0.324 0.10863 0.18806 0.0
H316 H 0.40826 0.02701 0.12677 0.0
H317 H 0.37063 0.04976 0.14236 0.0
C318 C 0.23909 0.8895 0.66701 0.0
C319 C 0.26697 0.90036 0.65822 0.0
C320 C 0.21735 0.89234 0.65004 0.0
C321 C 0.20336 0.94112 0.59184 0.0
H322 H 0.1309 0.88408 0.59647 0.0
C323 C 0.10897 0.96534 0.53304 0.0
C324 C 0.08389 0.96116 0.54828 0.0
C325 C 0.13164 0.9544 0.5432 0.0
C326 C 0.15101 0.90026 0.59499 0.0
H327 H 0.29447 0.92173 0.62487 0.0
H328 H 0.25648 0.92604 0.59469 0.0
H329 H 0.17027 0.87011 0.61934 0.0
H330 H 0.06275 0.94133 0.5858 0.0
H331 H 0.10215 0.92226 0.6034 0.0
H332 H 0.18393 0.97142 0.56778 0.0
C333 C 0.25124 0.91569 0.61478 0.0
C334 C 0.17359 0.89228 0.60813 0.0
C335 C 0.273 0.91292 0.63188 0.0
C336 C 0.08175 0.94501 0.57353 0.0
C337 C 0.1043 0.93387 0.58357 0.0
C338 C 0.18081 0.94899 0.57856 0.0
C339 C 0.22311 0.90618 0.62389 0.0
C340 C 0.19994 0.91289 0.60722 0.0
C341 C 0.12965 0.93877 0.56869 0.0
C342 C 0.15422 0.92894 0.58044 0.0
H343 H 0.23407 0.88019 0.68747 0.0
H344 H 0.19607 0.88517 0.65797 0.0
H345 H 0.22315 0.95782 0.59097 0.0
H346 H 0.11132 0.97767 0.51351 0.0
H347 H 0.1508 0.95831 0.53115 0.0
C348 C 0.78082 0.38268 0.84841 0.0
C349 C 0.75381 0.37793 0.86005 0.0
C350 C 0.80412 0.39711 0.86218 0.0
C351 C 0.82382 0.44885 0.91701 0.0
H352 H 0.89485 0.42509 0.9095 0.0
C353 C 0.92194 0.50889 0.97104 0.0
C354 C 0.94569 0.51944 0.95407 0.0
C355 C 0.8986 0.48819 0.96223 0.0
C356 C 0.87513 0.43193 0.91176 0.0
H357 H 0.73017 0.38453 0.89544 0.0
H358 H 0.77083 0.40868 0.91978 0.0
H359 H 0.85354 0.3952 0.88915 0.0
H360 H 0.96416 0.51556 0.91509 0.0
H361 H 0.92353 0.47932 0.89983 0.0
H362 H 0.84552 0.48564 0.93954 0.0
C363 C 0.77399 0.40175 0.8998 0.0
C364 C 0.8515 0.41494 0.90002 0.0
C365 C 0.75069 0.38754 0.88596 0.0
C366 C 0.94609 0.50798 0.92856 0.0
C367 C 0.92292 0.48706 0.91989 0.0
C368 C 0.84739 0.46564 0.92894 0.0
C369 C 0.80098 0.40695 0.888 0.0
C370 C 0.82566 0.42352 0.90212 0.0
C371 C 0.89877 0.47739 0.93644 0.0
C372 C 0.87335 0.45765 0.92606 0.0
H373 H 0.78404 0.37518 0.82866 0.0
H374 H 0.82454 0.40109 0.85231 0.0
H375 H 0.80439 0.45642 0.91871 0.0
H376 H 0.92105 0.51729 0.99083 0.0
H377 H 0.8803 0.48089 0.97544 0.0
C378 C 0.77643 0.63704 0.39758 0.0
C379 C 0.77808 0.65809 0.37526 0.0
C380 C 0.75201 0.62869 0.41363 0.0
C381 C 0.68475 0.65196 0.42794 0.0
H382 H 0.6626 0.5679 0.45917 0.0
C383 C 0.57294 0.59114 0.46658 0.0
C384 C 0.57057 0.5744 0.49155 0.0
C385 C 0.59922 0.60468 0.45497 0.0
C386 C 0.66874 0.59155 0.45083 0.0
H387 H 0.75566 0.68667 0.35188 0.0
H388 H 0.71249 0.67106 0.37902 0.0
H389 H 0.70622 0.58395 0.43297 0.0
H390 H 0.59375 0.55947 0.52437 0.0
H391 H 0.63983 0.58256 0.50366 0.0
H392 H 0.64623 0.65874 0.44482 0.0
C393 C 0.73025 0.66173 0.38486 0.0
C394 C 0.6938 0.60087 0.43586 0.0
C395 C 0.75487 0.6705 0.36912 0.0
C396 C 0.59497 0.57235 0.50514 0.0
C397 C 0.62128 0.58538 0.49327 0.0
C398 C 0.65941 0.64243 0.4425 0.0
C399 C 0.72849 0.64077 0.40742 0.0
C400 C 0.70214 0.63117 0.42409 0.0
C401 C 0.62359 0.60123 0.46791 0.0
C402 C 0.65117 0.61212 0.454 0.0
H403 H 0.79425 0.6275 0.40289 0.0
H404 H 0.75177 0.61303 0.4311 0.0
H405 H 0.69066 0.67566 0.41972 0.0
H406 H 0.55446 0.59315 0.45571 0.0
H407 H 0.60049 0.61667 0.43533 0.0
C408 C 0.14148 0.27835 0.12821 0.0
C409 C 0.14966 0.27672 0.15476 0.0
C410 C 0.12152 0.29499 0.12083 0.0
C411 C 0.0932 0.36011 0.14204 0.0
H412 H 0.0476 0.34089 0.08019 0.0
C413 C 0.03313 0.44537 0.09006 0.0
C414 C 0.04238 0.45247 0.0632 0.0
C415 C 0.03956 0.42001 0.10455 0.0
C416 C 0.05999 0.34637 0.09767 0.0
H417 H 0.14319 0.28986 0.19485 0.0
H418 H 0.10751 0.31861 0.18219 0.0
H419 H 0.07013 0.30201 0.10088 0.0
H420 H 0.06434 0.43801 0.0301 0.0
H421 H 0.07477 0.39333 0.05511 0.0
H422 H 0.08323 0.40472 0.13838 0.0
C423 C 0.11674 0.30744 0.16689 0.0
C424 C 0.07307 0.32424 0.10944 0.0
C425 C 0.13693 0.29084 0.17422 0.0
C426 C 0.05703 0.4331 0.05079 0.0
C427 C 0.06285 0.40745 0.06504 0.0
C428 C 0.07974 0.38209 0.13049 0.0
C429 C 0.10923 0.31028 0.13995 0.0
C430 C 0.09082 0.33127 0.13106 0.0
C431 C 0.05463 0.40097 0.09216 0.0
C432 C 0.06391 0.3758 0.10759 0.0
H433 H 0.15138 0.26783 0.11289 0.0
H434 H 0.11683 0.29709 0.09984 0.0
H435 H 0.10686 0.36653 0.15849 0.0
H436 H 0.02193 0.46008 0.10011 0.0
H437 H 0.03308 0.41547 0.12548 0.0
C438 C 0.64974 0.31007 0.88394 0.0
C439 C 0.66096 0.30428 0.85929 0.0
C440 C 0.63247 0.28614 0.89972 0.0
C441 C 0.59325 0.20388 0.89996 0.0
H442 H 0.60877 0.20415 0.97567 0.0
C443 C 0.56525 0.09482 0.97249 0.0
C444 C 0.55232 0.09777 0.9972 0.0
C445 C 0.57606 0.12087 0.95535 0.0
C446 C 0.60398 0.20393 0.95463 0.0
H447 H 0.6622 0.26944 0.83124 0.0
H448 H 0.63266 0.22736 0.85902 0.0
H449 H 0.63082 0.24833 0.94574 0.0
H450 H 0.54099 0.13046 0.02342 0.0
H451 H 0.56039 0.17601 0.99356 0.0
H452 H 0.56724 0.15875 0.90896 0.0
C453 C 0.63658 0.25043 0.86603 0.0
C454 C 0.61648 0.22932 0.93744 0.0
C455 C 0.65355 0.2745 0.85008 0.0
C456 C 0.5508 0.12739 0.00452 0.0
C457 C 0.56194 0.15347 0.98749 0.0
C458 C 0.581 0.17831 0.91714 0.0
C459 C 0.62643 0.25579 0.89138 0.0
C460 C 0.61146 0.22957 0.90983 0.0
C461 C 0.5745 0.15042 0.96266 0.0
C462 C 0.58643 0.17802 0.9446 0.0
H463 H 0.65501 0.33296 0.89133 0.0
H464 H 0.62446 0.29132 0.91878 0.0
H465 H 0.58852 0.20344 0.87892 0.0
H466 H 0.56669 0.07236 0.9662 0.0
H467 H 0.58594 0.11791 0.93645 0.0
C468 C 0.88569 0.74876 0.34757 0.0
C469 C 0.85779 0.7412 0.33964 0.0
C470 C 0.89775 0.7788 0.35423 0.0
C471 C 0.87421 0.84116 0.38388 0.0
H472 H 0.95057 0.88785 0.37204 0.0
C473 C 0.91161 0.9562 0.43181 0.0
C474 C 0.93866 0.96269 0.44186 0.0
C475 C 0.90314 0.93155 0.41567 0.0
C476 C 0.92926 0.87492 0.37575 0.0
H477 H 0.82174 0.75977 0.32955 0.0
H478 H 0.84278 0.81217 0.34117 0.0
H479 H 0.93401 0.84105 0.34825 0.0
H480 H 0.97825 0.94873 0.44261 0.0
H481 H 0.96312 0.90476 0.41527 0.0
H482 H 0.8695 0.87369 0.41215 0.0
C483 C 0.85513 0.79479 0.34275 0.0
C484 C 0.91977 0.84827 0.36198 0.0
C485 C 0.84313 0.76485 0.33604 0.0
C486 C 0.95725 0.94424 0.43515 0.0
C487 C 0.94862 0.9192 0.41929 0.0
C488 C 0.88372 0.86744 0.39781 0.0
C489 C 0.88207 0.80171 0.35309 0.0
C490 C 0.89212 0.83115 0.36593 0.0
C491 C 0.92134 0.91237 0.40954 0.0
C492 C 0.91137 0.88473 0.39399 0.0
H493 H 0.89745 0.73097 0.35069 0.0
H494 H 0.91854 0.78347 0.36219 0.0
H495 H 0.853 0.82802 0.38787 0.0
H496 H 0.89694 0.97031 0.43626 0.0
H497 H 0.88224 0.92757 0.40801 0.0
C498 C 0.39479 0.83306 0.68925 0.0
C499 C 0.36614 0.83313 0.68876 0.0
C500 C 0.40529 0.81065 0.67666 0.0
C501 C 0.39047 0.75326 0.62566 0.0
H502 H 0.44128 0.71381 0.66595 0.0
C503 C 0.42086 0.64312 0.59212 0.0
C504 C 0.44834 0.6396 0.59586 0.0
C505 C 0.41157 0.66747 0.60281 0.0
C506 C 0.42748 0.72486 0.65421 0.0
H507 H 0.32624 0.81024 0.67375 0.0
H508 H 0.34467 0.77111 0.65146 0.0
H509 H 0.42357 0.75511 0.68502 0.0
H510 H 0.48769 0.65907 0.61376 0.0
H511 H 0.47165 0.70213 0.63204 0.0
H512 H 0.39448 0.72322 0.59477 0.0
C513 C 0.35898 0.78851 0.66166 0.0
C514 C 0.41725 0.74852 0.66519 0.0
C515 C 0.34842 0.81093 0.67439 0.0
C516 C 0.46637 0.66109 0.61059 0.0
C517 C 0.4571 0.68567 0.62117 0.0
C518 C 0.40083 0.72973 0.61459 0.0
C519 C 0.38747 0.7878 0.66307 0.0
C520 C 0.39855 0.76293 0.6511 0.0
C521 C 0.42955 0.68918 0.61739 0.0
C522 C 0.41934 0.71506 0.62879 0.0
H523 H 0.40917 0.85027 0.69959 0.0
H524 H 0.42743 0.81119 0.67763 0.0
H525 H 0.3764 0.76417 0.61414 0.0
H526 H 0.4063 0.62687 0.58107 0.0
H527 H 0.39008 0.66896 0.59993 0.0
C528 C 0.87535 0.89071 0.75008 0.0
C529 C 0.84848 0.87136 0.75032 0.0
C530 C 0.88854 0.90439 0.72599 0.0
C531 C 0.88856 0.89593 0.65328 0.0
H532 H 0.92923 0.9815 0.64941 0.0
C533 C 0.94544 0.99842 0.56947 0.0
C534 C 0.96165 0.9824 0.55477 0.0
C535 C 0.93084 0.98468 0.59289 0.0
C536 C 0.91779 0.95765 0.6501 0.0
H537 H 0.81444 0.85102 0.72544 0.0
H538 H 0.83739 0.87516 0.68334 0.0
H539 H 0.90496 0.95828 0.69112 0.0
H540 H 0.97488 0.93914 0.55303 0.0
H541 H 0.94941 0.91515 0.59398 0.0
H542 H 0.90124 0.89541 0.61217 0.0
C543 C 0.8483 0.8796 0.7018 0.0
C544 C 0.90414 0.94425 0.67408 0.0
C545 C 0.83505 0.86604 0.72592 0.0
C546 C 0.96258 0.95211 0.56383 0.0
C547 C 0.94787 0.93831 0.58724 0.0
C548 C 0.90234 0.9093 0.62932 0.0
C549 C 0.8752 0.89892 0.70156 0.0
C550 C 0.8894 0.91324 0.67595 0.0
C551 C 0.93201 0.95453 0.60213 0.0
C552 C 0.91713 0.94031 0.62747 0.0
H553 H 0.88613 0.89547 0.76857 0.0
H554 H 0.90936 0.91893 0.72646 0.0
H555 H 0.87759 0.87191 0.65416 0.0
H556 H 0.94418 0.02178 0.56302 0.0
H557 H 0.91851 0.99762 0.60372 0.0
C558 C 0.64914 0.20156 0.29625 0.0
C559 C 0.65688 0.1819 0.31636 0.0
C560 C 0.63408 0.18943 0.27441 0.0
C561 C 0.61894 0.11978 0.23581 0.0
H562 H 0.5612 0.15729 0.20571 0.0
C563 C 0.55221 0.07086 0.14673 0.0
C564 C 0.54675 0.09272 0.12725 0.0
C565 C 0.56492 0.08039 0.17059 0.0
C566 C 0.57745 0.14671 0.21371 0.0
H567 H 0.65385 0.13393 0.32972 0.0
H568 H 0.62755 0.11277 0.29162 0.0
H569 H 0.58385 0.17637 0.24619 0.0
H570 H 0.55094 0.14176 0.11737 0.0
H571 H 0.57327 0.15823 0.15856 0.0
H572 H 0.61268 0.09029 0.20312 0.0
C573 C 0.63356 0.13762 0.29252 0.0
C574 C 0.59043 0.15765 0.23695 0.0
C575 C 0.6486 0.14976 0.31438 0.0
C576 C 0.55467 0.12425 0.13198 0.0
C577 C 0.56731 0.13373 0.15574 0.0
C578 C 0.60595 0.10882 0.21252 0.0
C579 C 0.62636 0.15731 0.27211 0.0
C580 C 0.61154 0.14456 0.24815 0.0
C581 C 0.57236 0.11195 0.17548 0.0
C582 C 0.58527 0.1224 0.20101 0.0
H583 H 0.65554 0.22642 0.29688 0.0
H584 H 0.62923 0.2053 0.25889 0.0
H585 H 0.63536 0.10939 0.2437 0.0
H586 H 0.5463 0.04639 0.14374 0.0
H587 H 0.56836 0.063 0.18545 0.0
C588 C 0.37151 0.68023 0.3265 0.0
C589 C 0.361 0.65769 0.30874 0.0
C590 C 0.38846 0.67366 0.34726 0.0
C591 C 0.42876 0.61642 0.37253 0.0
H592 H 0.40892 0.64055 0.44213 0.0
C593 C 0.45335 0.5565 0.47168 0.0
C594 C 0.4634 0.57539 0.49248 0.0
C595 C 0.44383 0.56908 0.44834 0.0
C596 C 0.41498 0.63399 0.42279 0.0
H597 H 0.36005 0.61126 0.29771 0.0
H598 H 0.38931 0.59946 0.33401 0.0
H599 H 0.38839 0.65909 0.4022 0.0
H600 H 0.47121 0.62225 0.50515 0.0
H601 H 0.45439 0.64409 0.46445 0.0
H602 H 0.45465 0.59046 0.39338 0.0
C603 C 0.38515 0.62238 0.33188 0.0
C604 C 0.40331 0.64472 0.39987 0.0
C605 C 0.36832 0.62903 0.31116 0.0
C606 C 0.4636 0.60707 0.48949 0.0
C607 C 0.45388 0.61959 0.46624 0.0
C608 C 0.44028 0.60553 0.39548 0.0
C609 C 0.39491 0.64436 0.35057 0.0
C610 C 0.40972 0.63569 0.37449 0.0
C611 C 0.44397 0.60074 0.44539 0.0
C612 C 0.43319 0.61385 0.42088 0.0
H613 H 0.36584 0.70246 0.32492 0.0
H614 H 0.39595 0.69124 0.36108 0.0
H615 H 0.4345 0.60943 0.35326 0.0
H616 H 0.45299 0.53203 0.47332 0.0
H617 H 0.43597 0.55392 0.43273 0.0
C618 C 0.12041 0.40101 0.80541 0.0
C619 C 0.11616 0.41138 0.77919 0.0
C620 C 0.11746 0.41905 0.82671 0.0
C621 C 0.11161 0.49654 0.84582 0.0
H622 H 0.06256 0.44929 0.9024 0.0
C623 C 0.05885 0.55235 0.92947 0.0
C624 C 0.05432 0.53616 0.95474 0.0
C625 C 0.06997 0.53959 0.90794 0.0
C626 C 0.07672 0.46289 0.88711 0.0
H627 H 0.10674 0.44881 0.75406 0.0
H628 H 0.10168 0.48069 0.79139 0.0
H629 H 0.077 0.42306 0.86547 0.0
H630 H 0.05954 0.49494 0.97759 0.0
H631 H 0.07988 0.4736 0.94085 0.0
H632 H 0.11123 0.53648 0.86769 0.0
C633 C 0.10751 0.45881 0.79556 0.0
C634 C 0.08496 0.44776 0.86586 0.0
C635 C 0.11036 0.44064 0.77424 0.0
C636 C 0.06246 0.50789 0.95837 0.0
C637 C 0.07393 0.49547 0.93714 0.0
C638 C 0.10352 0.51175 0.86735 0.0
C639 C 0.11014 0.44773 0.8221 0.0
C640 C 0.10253 0.46433 0.84499 0.0
C641 C 0.07703 0.5106 0.91142 0.0
C642 C 0.08602 0.49504 0.88833 0.0
H643 H 0.12475 0.37836 0.80957 0.0
H644 H 0.11997 0.41008 0.84691 0.0
H645 H 0.12516 0.5099 0.82999 0.0
H646 H 0.05268 0.57414 0.92603 0.0
H647 H 0.07194 0.55185 0.8884 0.0
C648 C 0.73339 0.89407 0.8467 0.0
C649 C 0.74154 0.86636 0.85309 0.0
C650 C 0.71923 0.90711 0.86573 0.0
C651 C 0.67522 0.88667 0.92747 0.0
H652 H 0.68806 0.97563 0.93007 0.0
C653 C 0.59626 0.94631 0.9774 0.0
C654 C 0.60654 0.97315 0.99087 0.0
C655 C 0.61446 0.93254 0.96318 0.0
C656 C 0.68441 0.95073 0.9299 0.0
H657 H 0.74194 0.8304 0.88404 0.0
H658 H 0.71738 0.85337 0.91778 0.0
H659 H 0.71773 0.95357 0.90107 0.0
H660 H 0.64417 0.00605 1.00051 0.0
H661 H 0.67597 0.98179 0.97596 0.0
H662 H 0.64199 0.88386 0.95647 0.0
C663 C 0.72162 0.86496 0.898 0.0
C664 C 0.70122 0.93807 0.913 0.0
C665 C 0.7358 0.8519 0.87885 0.0
C666 C 0.63553 0.98549 0.99026 0.0
C667 C 0.65375 0.97167 0.97606 0.0
C668 C 0.65841 0.89934 0.94442 0.0
C669 C 0.71297 0.89263 0.89158 0.0
C670 C 0.69658 0.90591 0.91125 0.0
C671 C 0.64342 0.9452 0.9621 0.0
C672 C 0.66254 0.93155 0.94557 0.0
H673 H 0.73748 0.90537 0.82677 0.0
H674 H 0.7125 0.92809 0.85991 0.0
H675 H 0.67089 0.86182 0.92649 0.0
H676 H 0.57404 0.9362 0.9774 0.0
H677 H 0.60571 0.91244 0.95239 0.0
C678 C 0.74577 0.17838 0.40135 0.0
C679 C 0.73958 0.18118 0.37412 0.0
C680 C 0.76856 0.16636 0.40938 0.0
C681 C 0.83617 0.15414 0.38468 0.0
H682 H 0.82937 0.09694 0.44733 0.0
C683 C 0.92306 0.0903 0.41355 0.0
C684 C 0.9281 0.08561 0.44088 0.0
C685 C 0.90039 0.10252 0.40545 0.0
C686 C 0.83177 0.11323 0.43001 0.0
H687 H 0.75247 0.17345 0.33395 0.0
H688 H 0.79221 0.15216 0.34799 0.0
H689 H 0.78891 0.11635 0.43294 0.0
H690 H 0.91354 0.09074 0.48114 0.0
H691 H 0.87428 0.11259 0.46702 0.0
H692 H 0.87906 0.15123 0.38182 0.0
C693 C 0.77949 0.1595 0.36312 0.0
C694 C 0.80852 0.12429 0.42171 0.0
C695 C 0.75657 0.17138 0.3551 0.0
C696 C 0.91021 0.09395 0.45993 0.0
C697 C 0.88756 0.10627 0.45182 0.0
C698 C 0.85945 0.14318 0.39302 0.0
C699 C 0.7858 0.15695 0.39035 0.0
C700 C 0.81044 0.14486 0.39895 0.0
C701 C 0.88222 0.11047 0.42447 0.0
C702 C 0.85755 0.12256 0.41579 0.0
H703 H 0.73293 0.18546 0.41652 0.0
H704 H 0.77297 0.16496 0.43048 0.0
H705 H 0.83846 0.17034 0.3673 0.0
H706 H 0.93634 0.08402 0.39832 0.0
H707 H 0.89675 0.10503 0.38424 0.0
C708 C 0.23544 0.68454 0.21521 0.0
C709 C 0.26165 0.69332 0.20183 0.0
C710 C 0.21116 0.67578 0.20086 0.0
C711 C 0.18207 0.67618 0.13296 0.0
H712 H 0.13129 0.60148 0.16248 0.0
C713 C 0.06761 0.59139 0.11338 0.0
C714 C 0.07074 0.58688 0.08607 0.0
C715 C 0.08975 0.60833 0.12706 0.0
C716 C 0.14498 0.62264 0.15414 0.0
H717 H 0.28299 0.70087 0.16291 0.0
H718 H 0.24054 0.68519 0.13777 0.0
H719 H 0.17194 0.62428 0.18725 0.0
H720 H 0.09912 0.59773 0.05137 0.0
H721 H 0.13805 0.62703 0.07544 0.0
H722 H 0.15516 0.67399 0.09951 0.0
C723 C 0.23871 0.68548 0.15934 0.0
C724 C 0.1683 0.63574 0.16837 0.0
C725 C 0.26302 0.6944 0.17372 0.0
C726 C 0.09611 0.60075 0.07244 0.0
C727 C 0.11835 0.61767 0.08619 0.0
C728 C 0.15866 0.663 0.11866 0.0
C729 C 0.21258 0.67542 0.17282 0.0
C730 C 0.18718 0.6626 0.15795 0.0
C731 C 0.11557 0.62106 0.11378 0.0
C732 C 0.13991 0.63603 0.1291 0.0
H733 H 0.23376 0.68403 0.23685 0.0
H734 H 0.19129 0.66878 0.2118 0.0
H735 H 0.19612 0.69704 0.12452 0.0
H736 H 0.04818 0.58136 0.12437 0.0
H737 H 0.08677 0.61107 0.14819 0.0
C738 C 0.20821 0.39704 0.66331 0.0
C739 C 0.19963 0.38946 0.69026 0.0
C740 C 0.23574 0.4118 0.65643 0.0
C741 C 0.30036 0.45863 0.6811 0.0
H742 H 0.33443 0.42591 0.62212 0.0
C743 C 0.41579 0.50621 0.64683 0.0
C744 C 0.42103 0.51139 0.61903 0.0
C745 C 0.38976 0.48959 0.65705 0.0
C746 C 0.32517 0.43548 0.63847 0.0
H747 H 0.21279 0.39274 0.73125 0.0
H748 H 0.26134 0.419 0.71916 0.0
H749 H 0.28689 0.40149 0.63757 0.0
H750 H 0.40327 0.50255 0.58016 0.0
H751 H 0.35779 0.47379 0.59796 0.0
H752 H 0.33855 0.49298 0.68168 0.0
C753 C 0.2466 0.4133 0.7034 0.0
C754 C 0.29795 0.42149 0.64735 0.0
C755 C 0.21887 0.39838 0.71033 0.0
C756 C 0.39993 0.49889 0.60167 0.0
C757 C 0.37389 0.48229 0.61189 0.0
C758 C 0.32764 0.47273 0.67216 0.0
C759 C 0.25542 0.41947 0.67632 0.0
C760 C 0.28507 0.43321 0.66844 0.0
C761 C 0.3684 0.47776 0.63971 0.0
C762 C 0.34019 0.46157 0.65047 0.0
H763 H 0.19367 0.39103 0.64743 0.0
H764 H 0.2417 0.417 0.63543 0.0
H765 H 0.29092 0.46827 0.69729 0.0
H766 H 0.43166 0.51539 0.66077 0.0
H767 H 0.38635 0.4861 0.67856 0.0
C768 C 0.87063 0.79364 0.8267 0.0
C769 C 0.85227 0.81048 0.83727 0.0
C770 C 0.88527 0.77716 0.84358 0.0
C771 C 0.88271 0.73887 0.9105 0.0
H772 H 0.9613 0.74256 0.89576 0.0
C773 C 0.94504 0.67218 0.97929 0.0
C774 C 0.96396 0.65743 0.96695 0.0
C775 C 0.93303 0.69333 0.96457 0.0
C776 C 0.9393 0.74099 0.90001 0.0
H777 H 0.83499 0.82296 0.87411 0.0
H778 H 0.86021 0.79347 0.90365 0.0
H779 H 0.93691 0.77461 0.86813 0.0
H780 H 0.98557 0.65375 0.92957 0.0
H781 H 0.96412 0.69009 0.90367 0.0
H782 H 0.8847 0.70462 0.94179 0.0
C783 C 0.86322 0.79326 0.88218 0.0
C784 C 0.92536 0.75945 0.88423 0.0
C785 C 0.84873 0.81006 0.86525 0.0
C786 C 0.97117 0.66486 0.93969 0.0
C787 C 0.95893 0.68582 0.92487 0.0
C788 C 0.89656 0.7202 0.92613 0.0
C789 C 0.88172 0.77673 0.87149 0.0
C790 C 0.89687 0.75843 0.88919 0.0
C791 C 0.93941 0.70003 0.93706 0.0
C792 C 0.92501 0.72086 0.921 0.0
H793 H 0.87336 0.79267 0.80529 0.0
H794 H 0.89895 0.76416 0.83474 0.0
H795 H 0.86066 0.73729 0.91457 0.0
H796 H 0.93924 0.66718 1.00033 0.0
H797 H 0.91859 0.70429 0.9748 0.0
C798 C 0.35032 0.7865 0.21078 0.0
C799 C 0.35688 0.75767 0.21647 0.0
C800 C 0.37074 0.81169 0.20038 0.0
C801 C 0.4359 0.82922 0.16013 0.0
H802 H 0.43505 0.91333 0.17575 0.0
C803 C 0.50382 0.93606 0.09977 0.0
C804 C 0.4888 0.95808 0.09085 0.0
C805 C 0.49192 0.91235 0.11898 0.0
C806 C 0.43557 0.88996 0.17121 0.0
H807 H 0.39024 0.73288 0.21685 0.0
H808 H 0.42622 0.7772 0.19876 0.0
H809 H 0.40707 0.87031 0.20374 0.0
H810 H 0.44948 0.97228 0.09515 0.0
H811 H 0.42905 0.93141 0.12869 0.0
H812 H 0.46383 0.84897 0.12712 0.0
C813 C 0.40513 0.78015 0.20213 0.0
C814 C 0.41955 0.86533 0.18721 0.0
C815 C 0.38464 0.75488 0.21269 0.0
C816 C 0.46185 0.95608 0.10181 0.0
C817 C 0.45012 0.93264 0.12112 0.0
C818 C 0.45203 0.8539 0.14416 0.0
C819 C 0.39826 0.80869 0.19541 0.0
C820 C 0.41883 0.83467 0.18134 0.0
C821 C 0.46492 0.91041 0.12981 0.0
C822 C 0.45134 0.8845 0.14905 0.0
H823 H 0.32916 0.78939 0.21378 0.0
H824 H 0.3646 0.83318 0.19517 0.0
H825 H 0.43563 0.80589 0.15489 0.0
H826 H 0.52464 0.93693 0.09174 0.0
H827 H 0.50383 0.89555 0.12536 0.0
C828 C 0.13206 0.30226 0.6421 0.0
C829 C 0.12361 0.30038 0.66928 0.0
C830 C 0.12404 0.27696 0.6266 0.0
C831 C 0.07177 0.20595 0.61991 0.0
H832 H 0.13056 0.18114 0.57985 0.0
C833 C 0.05108 0.09492 0.56188 0.0
C834 C 0.06633 0.09545 0.53776 0.0
C835 C 0.0573 0.1197 0.57829 0.0
C836 C 0.11377 0.18799 0.59051 0.0
H837 H 0.0993 0.27046 0.70117 0.0
H838 H 0.08459 0.22643 0.67365 0.0
H839 H 0.14225 0.22489 0.60767 0.0
H840 H 0.09943 0.12273 0.5115 0.0
H841 H 0.10962 0.16641 0.53953 0.0
H842 H 0.04312 0.16969 0.60222 0.0
C843 C 0.09767 0.24759 0.66459 0.0
C844 C 0.12055 0.21296 0.60659 0.0
C845 C 0.10602 0.27283 0.68028 0.0
C846 C 0.0875 0.12152 0.5301 0.0
C847 C 0.09347 0.14648 0.54631 0.0
C848 C 0.0649 0.18118 0.60351 0.0
C849 C 0.107 0.24931 0.63774 0.0
C850 C 0.09962 0.22225 0.62135 0.0
C851 C 0.07868 0.14577 0.57079 0.0
C852 C 0.08583 0.17194 0.5885 0.0
H853 H 0.14496 0.32333 0.63272 0.0
H854 H 0.13112 0.27905 0.60581 0.0
H855 H 0.05524 0.21284 0.63096 0.0
H856 H 0.03471 0.07504 0.56839 0.0
H857 H 0.04572 0.11807 0.59712 0.0
C858 C 0.63097 0.27372 0.42578 0.0
C859 C 0.63976 0.28253 0.39914 0.0
C860 C 0.61331 0.28914 0.4389 0.0
C861 C 0.5656 0.34252 0.43015 0.0
H862 H 0.5934 0.36945 0.49874 0.0
C863 C 0.52732 0.43738 0.48563 0.0
C864 C 0.52705 0.43545 0.51377 0.0
C865 C 0.53775 0.41611 0.47121 0.0
C866 C 0.58489 0.36169 0.47991 0.0
H867 H 0.63659 0.3133 0.36477 0.0
H868 H 0.60528 0.34028 0.38764 0.0
H869 H 0.61651 0.33627 0.47424 0.0
H870 H 0.53593 0.40864 0.54884 0.0
H871 H 0.55306 0.37102 0.52388 0.0
H872 H 0.53388 0.36799 0.4359 0.0
C873 C 0.61182 0.32133 0.39837 0.0
C874 C 0.59827 0.34268 0.46579 0.0
C875 C 0.62967 0.30595 0.38528 0.0
C876 C 0.53615 0.41098 0.52717 0.0
C877 C 0.5462 0.38952 0.5128 0.0
C878 C 0.55197 0.36137 0.44445 0.0
C879 C 0.60416 0.3137 0.42559 0.0
C880 C 0.58886 0.33291 0.44074 0.0
C881 C 0.54787 0.39223 0.48462 0.0
C882 C 0.56151 0.37129 0.46952 0.0
H883 H 0.63878 0.25584 0.43685 0.0
H884 H 0.6075 0.28249 0.45976 0.0
H885 H 0.55782 0.33525 0.41092 0.0
H886 H 0.52057 0.45608 0.47471 0.0
H887 H 0.53889 0.41918 0.44957 0.0
loop_
_geom_bond_atom_site_label_1
_geom_bond_atom_site_label_2
_geom_bond_distance
_geom_bond_site_symmetry_2
_ccdc_geom_bond_type
H0 C3 0.929 . S
H1 C6 0.929 . S
H2 C8 0.930 . S
C3 H0 0.929 . S
C3 C4 1.398 . S
C3 C5 1.396 . S
C4 C3 1.398 . S
C4 C8 1.407 . S
C5 C3 1.396 . S
C5 C6 1.394 . S
C6 H1 0.929 . S
C6 C5 1.394 . S
C6 C7 1.382 . S
C7 C6 1.382 . S
C7 C8 1.392 . S
C7 N9 1.420 . S
C8 H2 0.930 . S
C8 C4 1.407 . S
C8 C7 1.392 . S
N9 C7 1.420 . S
N9 C10 1.244 . S
C10 N9 1.244 . S
H11 C14 0.929 . S
H12 C17 0.929 . S
H13 C19 0.930 . S
C14 H11 0.929 . S
C14 C15 1.398 . S
C14 C16 1.396 . S
C15 C14 1.398 . S
C15 C19 1.407 . S
C16 C14 1.396 . S
C16 C17 1.394 . S
C17 H12 0.929 . S
C17 C16 1.394 . S
C17 C18 1.382 . S
C18 C17 1.382 . S
C18 C19 1.392 . S
C18 N20 1.420 . S
C19 H13 0.930 . S
C19 C15 1.407 . S
C19 C18 1.392 . S
N20 C18 1.420 . S
N20 C21 1.244 . S
C21 N20 1.244 . S
H22 C25 0.929 . S
H23 C28 0.929 . S
H24 C30 0.930 . S
C25 H22 0.929 . S
C25 C26 1.398 . S
C25 C27 1.396 . S
C26 C25 1.398 . S
C26 C30 1.407 . S
C27 C25 1.396 . S
C27 C28 1.394 . S
C28 H23 0.929 . S
C28 C27 1.394 . S
C28 C29 1.382 . S
C29 C28 1.382 . S
C29 C30 1.392 . S
C29 N31 1.420 . S
C30 H24 0.930 . S
C30 C26 1.407 . S
C30 C29 1.392 . S
N31 C29 1.420 . S
N31 C32 1.244 . S
C32 N31 1.244 . S
H33 C36 0.929 . S
H34 C39 0.929 . S
H35 C41 0.930 . S
C36 H33 0.929 . S
C36 C37 1.398 . S
C36 C38 1.396 . S
C37 C36 1.398 . S
C37 C41 1.407 . S
C38 C36 1.396 . S
C38 C39 1.394 . S
C39 H34 0.929 . S
C39 C38 1.394 . S
C39 C40 1.382 . S
C40 C39 1.382 . S
C40 C41 1.392 . S
C40 N42 1.420 . S
C41 H35 0.930 . S
C41 C37 1.407 . S
C41 C40 1.392 . S
N42 C40 1.420 . S
N42 C43 1.244 . S
C43 N42 1.244 . S
H44 C47 0.929 . S
H45 C50 0.929 . S
H46 C52 0.930 . S
C47 H44 0.929 . S
C47 C48 1.398 . S
C47 C49 1.396 . S
C48 C47 1.398 . S
C48 C52 1.407 . S
C49 C47 1.396 . S
C49 C50 1.394 . S
C50 H45 0.929 . S
C50 C49 1.394 . S
C50 C51 1.382 . S
C51 C50 1.382 . S
C51 C52 1.392 . S
C51 N53 1.420 . S
C52 H46 0.930 . S
C52 C48 1.407 . S
C52 C51 1.392 . S
N53 C51 1.420 . S
N53 C54 1.244 . S
C54 N53 1.244 . S
H55 C58 0.929 . S
H56 C61 0.929 . S
H57 C63 0.930 . S
C58 H55 0.929 . S
C58 C59 1.398 . S
C58 C60 1.396 . S
C59 C58 1.398 . S
C59 C63 1.407 . S
C60 C58 1.396 . S
C60 C61 1.394 . S
C61 H56 0.929 . S
C61 C60 1.394 . S
C61 C62 1.382 . S
C62 C61 1.382 . S
C62 C63 1.392 . S
C62 N64 1.420 . S
C63 H57 0.930 . S
C63 C59 1.407 . S
C63 C62 1.392 . S
N64 C62 1.420 . S
N64 C65 1.244 . S
C65 N64 1.244 . S
H66 C69 0.929 . S
H67 C72 0.929 . S
H68 C74 0.930 . S
C69 H66 0.929 . S
C69 C70 1.398 . S
C69 C71 1.396 . S
C70 C69 1.398 . S
C70 C74 1.407 . S
C71 C69 1.396 . S
C71 C72 1.394 . S
C72 H67 0.929 . S
C72 C71 1.394 . S
C72 C73 1.382 . S
C73 C72 1.382 . S
C73 C74 1.392 . S
C73 N75 1.420 . S
C74 H68 0.930 . S
C74 C70 1.407 . S
C74 C73 1.392 . S
N75 C73 1.420 . S
N75 C76 1.244 . S
C76 N75 1.244 . S
H77 C80 0.929 . S
H78 C83 0.929 . S
H79 C85 0.930 . S
C80 H77 0.929 . S
C80 C81 1.398 . S
C80 C82 1.396 . S
C81 C80 1.398 . S
C81 C85 1.407 . S
C82 C80 1.396 . S
C82 C83 1.394 . S
C83 H78 0.929 . S
C83 C82 1.394 . S
C83 C84 1.382 . S
C84 C83 1.382 . S
C84 C85 1.392 . S
C84 N86 1.420 . S
C85 H79 0.930 . S
C85 C81 1.407 . S
C85 C84 1.392 . S
N86 C84 1.420 . S
N86 C87 1.244 . S
C87 N86 1.244 . S
Zn88 O94 1.969 . S
Zn88 O95 1.965 1_545 S
Zn88 O99 2.024 . S
Zn88 O104 1.969 . S
Zn89 O96 1.969 1_545 S
Zn89 O102 1.969 . S
Zn89 O103 1.965 1_655 S
Zn89 O105 2.024 1_545 S
C90 O91 1.229 . S
C90 O99 1.058 . S
O91 C90 1.229 . S
C92 O93 1.229 . S
C92 O105 1.058 . S
O93 C92 1.229 . S
O94 Zn88 1.969 . S
O94 C97 1.267 1_545 S
O95 Zn88 1.965 1_565 S
O95 C106 1.260 1_455 S
O96 Zn89 1.969 1_565 S
O96 C106 1.258 . S
C97 O94 1.267 1_565 S
C97 O98 1.225 1_565 S
O98 C97 1.225 1_545 S
O99 Zn88 2.024 . S
O99 C90 1.058 . S
C100 O101 1.228 . S
C100 O102 1.267 . S
O101 C100 1.228 . S
O102 Zn89 1.969 . S
O102 C100 1.267 . S
O103 Zn89 1.965 1_455 S
O103 C107 1.260 . S
O104 Zn88 1.969 . S
O104 C107 1.258 . S
O105 Zn89 2.024 1_565 S
O105 C92 1.058 . S
C106 O95 1.260 1_655 S
C106 O96 1.258 . S
C107 O103 1.260 . S
C107 O104 1.258 . S
Zn108 O114 1.969 . S
Zn108 O115 1.965 1_565 S
Zn108 O119 2.024 1_554 S
Zn108 O124 1.969 . S
Zn109 O116 1.969 . S
Zn109 O122 1.969 . S
Zn109 O123 1.965 . S
Zn109 O125 2.024 . S
C110 O111 1.229 . S
C110 O119 1.058 . S
O111 C110 1.229 . S
C112 O113 1.229 . S
C112 O125 1.058 . S
O113 C112 1.229 . S
O114 Zn108 1.969 . S
O114 C117 1.267 1_554 S
O115 Zn108 1.965 1_545 S
O115 C126 1.260 . S
O116 Zn109 1.969 . S
O116 C126 1.258 . S
C117 O114 1.267 1_556 S
C117 O118 1.228 . S
O118 C117 1.228 . S
O119 Zn108 2.024 1_556 S
O119 C110 1.058 . S
C120 O121 1.228 . S
C120 O122 1.267 . S
O121 C120 1.228 . S
O122 Zn109 1.969 . S
O122 C120 1.267 . S
O123 Zn109 1.965 . S
O123 C127 1.260 1_545 S
O124 Zn108 1.969 . S
O124 C127 1.258 . S
O125 Zn109 2.024 . S
O125 C112 1.058 . S
C126 O115 1.260 . S
C126 O116 1.258 . S
C127 O123 1.260 1_565 S
C127 O124 1.258 . S
Zn128 O134 1.969 . S
Zn128 O135 1.965 . S
Zn128 O139 2.024 . S
Zn128 O144 1.969 . S
Zn129 O136 1.969 . S
Zn129 O142 1.969 . S
Zn129 O143 1.965 . S
Zn129 O145 2.024 . S
C130 O131 1.229 . S
C130 O139 1.058 . S
O131 C130 1.229 . S
C132 O133 1.229 . S
C132 O145 1.058 . S
O133 C132 1.229 . S
O134 Zn128 1.969 . S
O134 C137 1.267 . S
O135 Zn128 1.965 . S
O135 C146 1.260 . S
O136 Zn129 1.969 . S
O136 C146 1.258 . S
C137 O134 1.267 . S
C137 O138 1.228 . S
O138 C137 1.228 . S
O139 Zn128 2.024 . S
O139 C130 1.058 . S
C140 O141 1.228 . S
C140 O142 1.267 . S
O141 C140 1.228 . S
O142 Zn129 1.969 . S
O142 C140 1.267 . S
O143 Zn129 1.965 . S
O143 C147 1.260 . S
O144 Zn128 1.969 . S
O144 C147 1.258 . S
O145 Zn129 2.024 . S
O145 C132 1.058 . S
C146 O135 1.260 . S
C146 O136 1.258 . S
C147 O143 1.260 . S
C147 O144 1.258 . S
Zn148 O154 1.969 . S
Zn148 O155 1.961 1_656 S
Zn148 O159 2.024 . S
Zn148 O164 1.969 1_655 S
Zn149 O156 1.969 . S
Zn149 O162 1.969 . S
Zn149 O163 1.956 1_554 S
Zn149 O165 2.024 . S
C150 O151 1.229 . S
C150 O159 1.058 . S
O151 C150 1.229 . S
C152 O153 1.229 . S
C152 O165 1.058 . S
O153 C152 1.229 . S
O154 Zn148 1.969 . S
O154 C157 1.267 . S
O155 Zn148 1.961 1_454 S
O155 C166 1.260 1_455 S
O156 Zn149 1.969 . S
O156 C166 1.258 1_455 S
C157 O154 1.267 . S
C157 O158 1.228 . S
O158 C157 1.228 . S
O159 Zn148 2.024 . S
O159 C150 1.058 . S
C160 O161 1.228 . S
C160 O162 1.267 . S
O161 C160 1.228 . S
O162 Zn149 1.969 . S
O162 C160 1.267 . S
O163 Zn149 1.956 1_556 S
O163 C167 1.269 . S
O164 Zn148 1.969 1_455 S
O164 C167 1.258 . S
O165 Zn149 2.024 . S
O165 C152 1.058 . S
C166 O155 1.260 1_655 S
C166 O156 1.258 1_655 S
C167 O163 1.269 . S
C167 O164 1.258 . S
C168 C169 1.349 . S
C168 C170 1.327 . S
C168 H193 0.950 . S
C169 C168 1.349 . S
C169 C185 1.349 . S
C170 C168 1.327 . S
C170 C189 1.429 . S
C170 H194 0.950 . S
C171 C188 1.574 . S
C171 C190 1.368 . S
C171 H195 0.949 . S
H172 C176 0.949 . S
C173 C174 1.349 . S
C173 C175 1.327 . S
C173 H196 0.950 . S
C174 C173 1.349 . S
C174 C186 1.349 . S
C175 C173 1.327 . S
C175 C191 1.429 . S
C175 H197 0.950 . S
C176 H172 0.949 . S
C176 C184 1.574 . S
C176 C192 1.368 . S
H177 C185 0.950 . S
H178 C183 0.950 . S
H179 C184 0.949 . S
H180 C186 0.950 . S
H181 C187 0.950 . S
H182 C188 0.949 . S
C183 H178 0.950 . S
C183 C185 1.327 . S
C183 C189 1.429 . S
C184 C176 1.574 . S
C184 H179 0.949 . S
C184 C190 1.368 . S
C185 C169 1.349 . S
C185 H177 0.950 . S
C185 C183 1.327 . S
C186 C174 1.349 . S
C186 H180 0.950 . S
C186 C187 1.327 . S
C187 H181 0.950 . S
C187 C186 1.327 . S
C187 C191 1.429 . S
C188 C171 1.574 . S
C188 H182 0.949 . S
C188 C192 1.368 . S
C189 C170 1.429 . S
C189 C183 1.429 . S
C189 C190 1.523 . S
C190 C171 1.368 . S
C190 C184 1.368 . S
C190 C189 1.523 . S
C191 C175 1.429 . S
C191 C187 1.429 . S
C191 C192 1.523 . S
C192 C176 1.368 . S
C192 C188 1.368 . S
C192 C191 1.523 . S
H193 C168 0.950 . S
H194 C170 0.950 . S
H195 C171 0.949 . S
H196 C173 0.950 . S
H197 C175 0.950 . S
C198 C199 1.349 . S
C198 C200 1.327 . S
C198 H223 0.950 . S
C199 C198 1.349 . S
C199 C215 1.349 . S
C200 C198 1.327 . S
C200 C219 1.429 . S
C200 H224 0.950 . S
C201 C218 1.574 . S
C201 C220 1.368 . S
C201 H225 0.949 . S
H202 C206 0.949 . S
C203 C204 1.349 . S
C203 C205 1.327 . S
C203 H226 0.950 . S
C204 C203 1.349 . S
C204 C216 1.349 . S
C205 C203 1.327 . S
C205 C221 1.429 . S
C205 H227 0.950 . S
C206 H202 0.949 . S
C206 C214 1.574 . S
C206 C222 1.368 . S
H207 C215 0.950 . S
H208 C213 0.950 . S
H209 C214 0.949 . S
H210 C216 0.962 . S
H211 C217 0.950 . S
H212 C218 0.949 . S
C213 H208 0.950 . S
C213 C215 1.327 . S
C213 C219 1.429 . S
C214 C206 1.574 . S
C214 H209 0.949 . S
C214 C220 1.368 . S
C215 C199 1.349 . S
C215 H207 0.950 . S
C215 C213 1.327 . S
C216 C204 1.349 . S
C216 H210 0.962 . S
C216 C217 1.327 . S
C217 H211 0.950 . S
C217 C216 1.327 . S
C217 C221 1.429 . S
C218 C201 1.574 . S
C218 H212 0.949 . S
C218 C222 1.368 . S
C219 C200 1.429 . S
C219 C213 1.429 . S
C219 C220 1.523 . S
C220 C201 1.368 . S
C220 C214 1.368 . S
C220 C219 1.523 . S
C221 C205 1.429 . S
C221 C217 1.429 . S
C221 C222 1.523 . S
C222 C206 1.368 . S
C222 C218 1.368 . S
C222 C221 1.523 . S
H223 C198 0.950 . S
H224 C200 0.950 . S
H225 C201 0.949 . S
H226 C203 0.950 . S
H227 C205 0.950 . S
C228 C229 1.349 . S
C228 C230 1.327 . S
C228 H253 0.950 . S
C229 C228 1.349 . S
C229 C245 1.349 . S
C230 C228 1.327 . S
C230 C249 1.429 . S
C230 H254 0.950 . S
C231 C248 1.574 . S
C231 C250 1.368 . S
C231 H255 0.949 . S
H232 C236 0.949 . S
C233 C234 1.349 . S
C233 C235 1.327 . S
C233 H256 0.950 . S
C234 C233 1.349 . S
C234 C246 1.349 . S
C235 C233 1.327 . S
C235 C251 1.429 . S
C235 H257 0.950 . S
C236 H232 0.949 . S
C236 C244 1.574 . S
C236 C252 1.368 . S
H237 C245 0.950 . S
H238 C243 0.950 . S
H239 C244 0.949 . S
H240 C246 0.950 . S
H241 C247 0.950 . S
H242 C248 0.949 . S
C243 H238 0.950 . S
C243 C245 1.327 . S
C243 C249 1.429 . S
C244 C236 1.574 . S
C244 H239 0.949 . S
C244 C250 1.368 . S
C245 C229 1.349 . S
C245 H237 0.950 . S
C245 C243 1.327 . S
C246 C234 1.349 . S
C246 H240 0.950 . S
C246 C247 1.327 . S
C247 H241 0.950 . S
C247 C246 1.327 . S
C247 C251 1.429 . S
C248 C231 1.574 . S
C248 H242 0.949 . S
C248 C252 1.368 . S
C249 C230 1.429 . S
C249 C243 1.429 . S
C249 C250 1.523 . S
C250 C231 1.368 . S
C250 C244 1.368 . S
C250 C249 1.523 . S
C251 C235 1.429 . S
C251 C247 1.429 . S
C251 C252 1.523 . S
C252 C236 1.368 . S
C252 C248 1.368 . S
C252 C251 1.523 . S
H253 C228 0.950 . S
H254 C230 0.950 . S
H255 C231 0.949 . S
H256 C233 0.950 . S
H257 C235 0.950 . S
C258 C259 1.349 . S
C258 C260 1.327 . S
C258 H283 0.950 . S
C259 C258 1.349 . S
C259 C275 1.349 . S
C260 C258 1.327 . S
C260 C279 1.429 . S
C260 H284 0.950 . S
C261 C278 1.574 . S
C261 C280 1.368 . S
C261 H285 0.949 . S
H262 C266 0.949 . S
C263 C264 1.349 . S
C263 C265 1.327 . S
C263 H286 0.950 . S
C264 C263 1.349 . S
C264 C276 1.349 . S
C265 C263 1.327 . S
C265 C281 1.429 . S
C265 H287 0.950 . S
C266 H262 0.949 . S
C266 C274 1.574 . S
C266 C282 1.368 . S
H267 C275 0.950 . S
H268 C273 0.950 . S
H269 C274 0.949 . S
H270 C276 0.950 . S
H271 C277 0.950 . S
H272 C278 0.949 . S
C273 H268 0.950 . S
C273 C275 1.327 . S
C273 C279 1.429 . S
C274 C266 1.574 . S
C274 H269 0.949 . S
C274 C280 1.368 . S
C275 C259 1.349 . S
C275 H267 0.950 . S
C275 C273 1.327 . S
C276 C264 1.349 . S
C276 H270 0.950 . S
C276 C277 1.327 . S
C277 H271 0.950 . S
C277 C276 1.327 . S
C277 C281 1.429 . S
C278 C261 1.574 . S
C278 H272 0.949 . S
C278 C282 1.368 . S
C279 C260 1.429 . S
C279 C273 1.429 . S
C279 C280 1.523 . S
C280 C261 1.368 . S
C280 C274 1.368 . S
C280 C279 1.523 . S
C281 C265 1.429 . S
C281 C277 1.429 . S
C281 C282 1.523 . S
C282 C266 1.368 . S
C282 C278 1.368 . S
C282 C281 1.523 . S
H283 C258 0.950 . S
H284 C260 0.950 . S
H285 C261 0.949 . S
H286 C263 0.950 . S
H287 C265 0.950 . S
C288 C289 1.349 . S
C288 C290 1.327 . S
C288 H313 0.950 . S
C289 C288 1.349 . S
C289 C305 1.349 . S
C290 C288 1.327 . S
C290 C309 1.429 . S
C290 H314 0.950 . S
C291 C308 1.574 . S
C291 C310 1.368 . S
C291 H315 0.949 . S
H292 C296 0.949 . S
C293 C294 1.349 . S
C293 C295 1.327 . S
C293 H316 0.950 . S
C294 C293 1.349 . S
C294 C306 1.349 . S
C295 C293 1.327 . S
C295 C311 1.429 . S
C295 H317 0.950 . S
C296 H292 0.949 . S
C296 C304 1.574 . S
C296 C312 1.368 . S
H297 C305 0.950 . S
H298 C303 0.950 . S
H299 C304 0.949 . S
H300 C306 0.950 . S
H301 C307 0.950 . S
H302 C308 0.949 . S
C303 H298 0.950 . S
C303 C305 1.327 . S
C303 C309 1.429 . S
C304 C296 1.574 . S
C304 H299 0.949 . S
C304 C310 1.368 . S
C305 C289 1.349 . S
C305 H297 0.950 . S
C305 C303 1.327 . S
C306 C294 1.349 . S
C306 H300 0.950 . S
C306 C307 1.327 . S
C307 H301 0.950 . S
C307 C306 1.327 . S
C307 C311 1.429 . S
C308 C291 1.574 . S
C308 H302 0.949 . S
C308 C312 1.368 . S
C309 C290 1.429 . S
C309 C303 1.429 . S
C309 C310 1.523 . S
C310 C291 1.368 . S
C310 C304 1.368 . S
C310 C309 1.523 . S
C311 C295 1.429 . S
C311 C307 1.429 . S
C311 C312 1.523 . S
C312 C296 1.368 . S
C312 C308 1.368 . S
C312 C311 1.523 . S
H313 C288 0.950 . S
H314 C290 0.950 . S
H315 C291 0.949 . S
H316 C293 0.950 . S
H317 C295 0.950 . S
C318 C319 1.349 . S
C318 C320 1.327 . S
C318 H343 0.950 . S
C319 C318 1.349 . S
C319 C335 1.349 . S
C320 C318 1.327 . S
C320 C339 1.429 . S
C320 H344 0.950 . S
C321 C338 1.574 . S
C321 C340 1.368 . S
C321 H345 0.949 . S
H322 C326 0.949 . S
C323 C324 1.349 . S
C323 C325 1.327 . S
C323 H346 0.950 . S
C324 C323 1.349 . S
C324 C336 1.349 . S
C325 C323 1.327 . S
C325 C341 1.429 . S
C325 H347 0.950 . S
C326 H322 0.949 . S
C326 C334 1.574 . S
C326 C342 1.368 . S
H327 C335 0.950 . S
H328 C333 0.950 . S
H329 C334 0.949 . S
H330 C336 0.950 1_545 S
H331 C337 0.950 . S
H332 C338 0.949 . S
C333 H328 0.950 . S
C333 C335 1.327 . S
C333 C339 1.429 . S
C334 C326 1.574 . S
C334 H329 0.949 . S
C334 C340 1.368 . S
C335 C319 1.349 . S
C335 H327 0.950 . S
C335 C333 1.327 . S
C336 C324 1.349 . S
C336 H330 0.950 1_565 S
C336 C337 1.327 . S
C337 H331 0.950 . S
C337 C336 1.327 . S
C337 C341 1.429 . S
C338 C321 1.574 . S
C338 H332 0.949 . S
C338 C342 1.368 . S
C339 C320 1.429 . S
C339 C333 1.429 . S
C339 C340 1.523 . S
C340 C321 1.368 . S
C340 C334 1.368 . S
C340 C339 1.523 . S
C341 C325 1.429 . S
C341 C337 1.429 . S
C341 C342 1.523 . S
C342 C326 1.368 . S
C342 C338 1.368 . S
C342 C341 1.523 . S
H343 C318 0.950 . S
H344 C320 0.950 . S
H345 C321 0.949 . S
H346 C323 0.950 . S
H347 C325 0.950 . S
C348 C349 1.349 . S
C348 C350 1.327 . S
C348 H373 0.950 . S
C349 C348 1.349 . S
C349 C365 1.349 . S
C350 C348 1.327 . S
C350 C369 1.429 . S
C350 H374 0.950 . S
C351 C368 1.574 . S
C351 C370 1.368 . S
C351 H375 0.949 . S
H352 C356 0.949 . S
C353 C354 1.349 . S
C353 C355 1.327 . S
C353 H376 0.950 . S
C354 C353 1.349 . S
C354 C366 1.349 . S
C355 C353 1.327 . S
C355 C371 1.429 . S
C355 H377 0.950 . S
C356 H352 0.949 . S
C356 C364 1.574 . S
C356 C372 1.368 . S
H357 C365 0.950 . S
H358 C363 0.950 . S
H359 C364 0.949 . S
H360 C366 0.950 . S
H361 C367 0.950 . S
H362 C368 0.949 . S
C363 H358 0.950 . S
C363 C365 1.327 . S
C363 C369 1.429 . S
C364 C356 1.574 . S
C364 H359 0.949 . S
C364 C370 1.368 . S
C365 C349 1.349 . S
C365 H357 0.950 . S
C365 C363 1.327 . S
C366 C354 1.349 . S
C366 H360 0.950 . S
C366 C367 1.327 . S
C367 H361 0.950 . S
C367 C366 1.327 . S
C367 C371 1.429 . S
C368 C351 1.574 . S
C368 H362 0.949 . S
C368 C372 1.368 . S
C369 C350 1.429 . S
C369 C363 1.429 . S
C369 C370 1.523 . S
C370 C351 1.368 . S
C370 C364 1.368 . S
C370 C369 1.523 . S
C371 C355 1.429 . S
C371 C367 1.429 . S
C371 C372 1.523 . S
C372 C356 1.368 . S
C372 C368 1.368 . S
C372 C371 1.523 . S
H373 C348 0.950 . S
H374 C350 0.950 . S
H375 C351 0.949 . S
H376 C353 0.950 . S
H377 C355 0.950 . S
C378 C379 1.349 . S
C378 C380 1.327 . S
C378 H403 0.950 . S
C379 C378 1.349 . S
C379 C395 1.349 . S
C380 C378 1.327 . S
C380 C399 1.429 . S
C380 H404 0.950 . S
C381 C398 1.574 . S
C381 C400 1.368 . S
C381 H405 0.949 . S
H382 C386 0.949 . S
C383 C384 1.349 . S
C383 C385 1.327 . S
C383 H406 0.950 . S
C384 C383 1.349 . S
C384 C396 1.349 . S
C385 C383 1.327 . S
C385 C401 1.429 . S
C385 H407 0.950 . S
C386 H382 0.949 . S
C386 C394 1.574 . S
C386 C402 1.368 . S
H387 C395 0.950 . S
H388 C393 0.950 . S
H389 C394 0.949 . S
H390 C396 0.950 . S
H391 C397 0.950 . S
H392 C398 0.949 . S
C393 H388 0.950 . S
C393 C395 1.327 . S
C393 C399 1.429 . S
C394 C386 1.574 . S
C394 H389 0.949 . S
C394 C400 1.368 . S
C395 C379 1.349 . S
C395 H387 0.950 . S
C395 C393 1.327 . S
C396 C384 1.349 . S
C396 H390 0.950 . S
C396 C397 1.327 . S
C397 H391 0.950 . S
C397 C396 1.327 . S
C397 C401 1.429 . S
C398 C381 1.574 . S
C398 H392 0.949 . S
C398 C402 1.368 . S
C399 C380 1.429 . S
C399 C393 1.429 . S
C399 C400 1.523 . S
C400 C381 1.368 . S
C400 C394 1.368 . S
C400 C399 1.523 . S
C401 C385 1.429 . S
C401 C397 1.429 . S
C401 C402 1.523 . S
C402 C386 1.368 . S
C402 C398 1.368 . S
C402 C401 1.523 . S
H403 C378 0.950 . S
H404 C380 0.950 . S
H405 C381 0.949 . S
H406 C383 0.950 . S
H407 C385 0.950 . S
C408 C409 1.349 . S
C408 C410 1.327 . S
C408 H433 0.950 . S
C409 C408 1.349 . S
C409 C425 1.349 . S
C410 C408 1.327 . S
C410 C429 1.429 . S
C410 H434 0.950 . S
C411 C428 1.574 . S
C411 C430 1.368 . S
C411 H435 0.949 . S
H412 C416 0.949 . S
C413 C414 1.349 . S
C413 C415 1.327 . S
C413 H436 0.950 . S
C414 C413 1.349 . S
C414 C426 1.349 . S
C415 C413 1.327 . S
C415 C431 1.429 . S
C415 H437 0.950 . S
C416 H412 0.949 . S
C416 C424 1.574 . S
C416 C432 1.368 . S
H417 C425 0.950 . S
H418 C423 0.950 . S
H419 C424 0.949 . S
H420 C426 0.950 . S
H421 C427 0.950 . S
H422 C428 0.949 . S
C423 H418 0.950 . S
C423 C425 1.327 . S
C423 C429 1.429 . S
C424 C416 1.574 . S
C424 H419 0.949 . S
C424 C430 1.368 . S
C425 C409 1.349 . S
C425 H417 0.950 . S
C425 C423 1.327 . S
C426 C414 1.349 . S
C426 H420 0.950 . S
C426 C427 1.327 . S
C427 H421 0.950 . S
C427 C426 1.327 . S
C427 C431 1.429 . S
C428 C411 1.574 . S
C428 H422 0.949 . S
C428 C432 1.368 . S
C429 C410 1.429 . S
C429 C423 1.429 . S
C429 C430 1.523 . S
C430 C411 1.368 . S
C430 C424 1.368 . S
C430 C429 1.523 . S
C431 C415 1.429 . S
C431 C427 1.429 . S
C431 C432 1.523 . S
C432 C416 1.368 . S
C432 C428 1.368 . S
C432 C431 1.523 . S
H433 C408 0.950 . S
H434 C410 0.950 . S
H435 C411 0.949 . S
H436 C413 0.950 . S
H437 C415 0.950 . S
C438 C439 1.349 . S
C438 C440 1.327 . S
C438 H463 0.950 . S
C439 C438 1.349 . S
C439 C455 1.349 . S
C440 C438 1.327 . S
C440 C459 1.429 . S
C440 H464 0.950 . S
C441 C458 1.574 . S
C441 C460 1.368 . S
C441 H465 0.949 . S
H442 C446 0.949 . S
C443 C444 1.349 . S
C443 C445 1.327 . S
C443 H466 0.950 . S
C444 C443 1.349 . S
C444 C456 1.349 1_556 S
C445 C443 1.327 . S
C445 C461 1.429 . S
C445 H467 0.950 . S
C446 H442 0.949 . S
C446 C454 1.574 . S
C446 C462 1.368 . S
H447 C455 0.950 . S
H448 C453 0.950 . S
H449 C454 0.949 . S
H450 C456 0.950 . S
H451 C457 0.950 . S
H452 C458 0.949 . S
C453 H448 0.950 . S
C453 C455 1.327 . S
C453 C459 1.429 . S
C454 C446 1.574 . S
C454 H449 0.949 . S
C454 C460 1.368 . S
C455 C439 1.349 . S
C455 H447 0.950 . S
C455 C453 1.327 . S
C456 C444 1.349 1_554 S
C456 H450 0.950 . S
C456 C457 1.327 1_554 S
C457 H451 0.950 . S
C457 C456 1.327 1_556 S
C457 C461 1.429 . S
C458 C441 1.574 . S
C458 H452 0.949 . S
C458 C462 1.368 . S
C459 C440 1.429 . S
C459 C453 1.429 . S
C459 C460 1.523 . S
C460 C441 1.368 . S
C460 C454 1.368 . S
C460 C459 1.523 . S
C461 C445 1.429 . S
C461 C457 1.429 . S
C461 C462 1.523 . S
C462 C446 1.368 . S
C462 C458 1.368 . S
C462 C461 1.523 . S
H463 C438 0.950 . S
H464 C440 0.950 . S
H465 C441 0.949 . S
H466 C443 0.950 . S
H467 C445 0.950 . S
C468 C469 1.349 . S
C468 C470 1.327 . S
C468 H493 0.950 . S
C469 C468 1.349 . S
C469 C485 1.349 . S
C470 C468 1.327 . S
C470 C489 1.429 . S
C470 H494 0.950 . S
C471 C488 1.574 . S
C471 C490 1.368 . S
C471 H495 0.949 . S
H472 C476 0.949 . S
C473 C474 1.349 . S
C473 C475 1.327 . S
C473 H496 0.950 . S
C474 C473 1.349 . S
C474 C486 1.349 . S
C475 C473 1.327 . S
C475 C491 1.429 . S
C475 H497 0.950 . S
C476 H472 0.949 . S
C476 C484 1.574 . S
C476 C492 1.368 . S
H477 C485 0.950 . S
H478 C483 0.950 . S
H479 C484 0.949 . S
H480 C486 0.950 . S
H481 C487 0.950 . S
H482 C488 0.949 . S
C483 H478 0.950 . S
C483 C485 1.327 . S
C483 C489 1.429 . S
C484 C476 1.574 . S
C484 H479 0.949 . S
C484 C490 1.368 . S
C485 C469 1.349 . S
C485 H477 0.950 . S
C485 C483 1.327 . S
C486 C474 1.349 . S
C486 H480 0.950 . S
C486 C487 1.327 . S
C487 H481 0.950 . S
C487 C486 1.327 . S
C487 C491 1.429 . S
C488 C471 1.574 . S
C488 H482 0.949 . S
C488 C492 1.368 . S
C489 C470 1.429 . S
C489 C483 1.429 . S
C489 C490 1.523 . S
C490 C471 1.368 . S
C490 C484 1.368 . S
C490 C489 1.523 . S
C491 C475 1.429 . S
C491 C487 1.429 . S
C491 C492 1.523 . S
C492 C476 1.368 . S
C492 C488 1.368 . S
C492 C491 1.523 . S
H493 C468 0.950 . S
H494 C470 0.950 . S
H495 C471 0.949 . S
H496 C473 0.950 . S
H497 C475 0.950 . S
C498 C499 1.349 . S
C498 C500 1.327 . S
C498 H523 0.950 . S
C499 C498 1.349 . S
C499 C515 1.349 . S
C500 C498 1.327 . S
C500 C519 1.429 . S
C500 H524 0.950 . S
C501 C518 1.574 . S
C501 C520 1.368 . S
C501 H525 0.949 . S
H502 C506 0.949 . S
C503 C504 1.349 . S
C503 C505 1.327 . S
C503 H526 0.950 . S
C504 C503 1.349 . S
C504 C516 1.349 . S
C505 C503 1.327 . S
C505 C521 1.429 . S
C505 H527 0.950 . S
C506 H502 0.949 . S
C506 C514 1.574 . S
C506 C522 1.368 . S
H507 C515 0.950 . S
H508 C513 0.950 . S
H509 C514 0.949 . S
H510 C516 0.950 . S
H511 C517 0.950 . S
H512 C518 0.949 . S
C513 H508 0.950 . S
C513 C515 1.327 . S
C513 C519 1.429 . S
C514 C506 1.574 . S
C514 H509 0.949 . S
C514 C520 1.368 . S
C515 C499 1.349 . S
C515 H507 0.950 . S
C515 C513 1.327 . S
C516 C504 1.349 . S
C516 H510 0.950 . S
C516 C517 1.327 . S
C517 H511 0.950 . S
C517 C516 1.327 . S
C517 C521 1.429 . S
C518 C501 1.574 . S
C518 H512 0.949 . S
C518 C522 1.368 . S
C519 C500 1.429 . S
C519 C513 1.429 . S
C519 C520 1.523 . S
C520 C501 1.368 . S
C520 C514 1.368 . S
C520 C519 1.523 . S
C521 C505 1.429 . S
C521 C517 1.429 . S
C521 C522 1.523 . S
C522 C506 1.368 . S
C522 C518 1.368 . S
C522 C521 1.523 . S
H523 C498 0.950 . S
H524 C500 0.950 . S
H525 C501 0.949 . S
H526 C503 0.950 . S
H527 C505 0.950 . S
C528 C529 1.349 . S
C528 C530 1.327 . S
C528 H553 0.950 . S
C529 C528 1.349 . S
C529 C545 1.349 . S
C530 C528 1.327 . S
C530 C549 1.429 . S
C530 H554 0.950 . S
C531 C548 1.574 . S
C531 C550 1.368 . S
C531 H555 0.949 . S
H532 C536 0.949 . S
C533 C534 1.349 . S
C533 C535 1.327 . S
C533 H556 0.950 . S
C534 C533 1.349 . S
C534 C546 1.349 . S
C535 C533 1.327 . S
C535 C551 1.429 . S
C535 H557 0.950 . S
C536 H532 0.949 . S
C536 C544 1.574 . S
C536 C552 1.368 . S
H537 C545 0.950 . S
H538 C543 0.950 . S
H539 C544 0.949 . S
H540 C546 0.950 . S
H541 C547 0.950 . S
H542 C548 0.949 . S
C543 H538 0.950 . S
C543 C545 1.327 . S
C543 C549 1.429 . S
C544 C536 1.574 . S
C544 H539 0.949 . S
C544 C550 1.368 . S
C545 C529 1.349 . S
C545 H537 0.950 . S
C545 C543 1.327 . S
C546 C534 1.349 . S
C546 H540 0.950 . S
C546 C547 1.327 . S
C547 H541 0.950 . S
C547 C546 1.327 . S
C547 C551 1.429 . S
C548 C531 1.574 . S
C548 H542 0.949 . S
C548 C552 1.368 . S
C549 C530 1.429 . S
C549 C543 1.429 . S
C549 C550 1.523 . S
C550 C531 1.368 . S
C550 C544 1.368 . S
C550 C549 1.523 . S
C551 C535 1.429 . S
C551 C547 1.429 . S
C551 C552 1.523 . S
C552 C536 1.368 . S
C552 C548 1.368 . S
C552 C551 1.523 . S
H553 C528 0.950 . S
H554 C530 0.950 . S
H555 C531 0.949 . S
H556 C533 0.950 . S
H557 C535 0.950 . S
C558 C559 1.349 . S
C558 C560 1.327 . S
C558 H583 0.950 . S
C559 C558 1.349 . S
C559 C575 1.349 . S
C560 C558 1.327 . S
C560 C579 1.429 . S
C560 H584 0.950 . S
C561 C578 1.574 . S
C561 C580 1.368 . S
C561 H585 0.949 . S
H562 C566 0.949 . S
C563 C564 1.349 . S
C563 C565 1.327 . S
C563 H586 0.950 . S
C564 C563 1.349 . S
C564 C576 1.349 . S
C565 C563 1.327 . S
C565 C581 1.429 . S
C565 H587 0.950 . S
C566 H562 0.949 . S
C566 C574 1.574 . S
C566 C582 1.368 . S
H567 C575 0.950 . S
H568 C573 0.950 . S
H569 C574 0.949 . S
H570 C576 0.950 . S
H571 C577 0.950 . S
H572 C578 0.949 . S
C573 H568 0.950 . S
C573 C575 1.327 . S
C573 C579 1.429 . S
C574 C566 1.574 . S
C574 H569 0.949 . S
C574 C580 1.368 . S
C575 C559 1.349 . S
C575 H567 0.950 . S
C575 C573 1.327 . S
C576 C564 1.349 . S
C576 H570 0.950 . S
C576 C577 1.327 . S
C577 H571 0.950 . S
C577 C576 1.327 . S
C577 C581 1.429 . S
C578 C561 1.574 . S
C578 H572 0.949 . S
C578 C582 1.368 . S
C579 C560 1.429 . S
C579 C573 1.429 . S
C579 C580 1.523 . S
C580 C561 1.368 . S
C580 C574 1.368 . S
C580 C579 1.523 . S
C581 C565 1.429 . S
C581 C577 1.429 . S
C581 C582 1.523 . S
C582 C566 1.368 . S
C582 C578 1.368 . S
C582 C581 1.523 . S
H583 C558 0.950 . S
H584 C560 0.950 . S
H585 C561 0.949 . S
H586 C563 0.950 . S
H587 C565 0.950 . S
C588 C589 1.349 . S
C588 C590 1.327 . S
C588 H613 0.950 . S
C589 C588 1.349 . S
C589 C605 1.349 . S
C590 C588 1.327 . S
C590 C609 1.429 . S
C590 H614 0.950 . S
C591 C608 1.574 . S
C591 C610 1.368 . S
C591 H615 0.949 . S
H592 C596 0.949 . S
C593 C594 1.349 . S
C593 C595 1.327 . S
C593 H616 0.950 . S
C594 C593 1.349 . S
C594 C606 1.349 . S
C595 C593 1.327 . S
C595 C611 1.429 . S
C595 H617 0.950 . S
C596 H592 0.949 . S
C596 C604 1.574 . S
C596 C612 1.368 . S
H597 C605 0.950 . S
H598 C603 0.950 . S
H599 C604 0.949 . S
H600 C606 0.950 . S
H601 C607 0.950 . S
H602 C608 0.949 . S
C603 H598 0.950 . S
C603 C605 1.327 . S
C603 C609 1.429 . S
C604 C596 1.574 . S
C604 H599 0.949 . S
C604 C610 1.368 . S
C605 C589 1.349 . S
C605 H597 0.950 . S
C605 C603 1.327 . S
C606 C594 1.349 . S
C606 H600 0.950 . S
C606 C607 1.327 . S
C607 H601 0.950 . S
C607 C606 1.327 . S
C607 C611 1.429 . S
C608 C591 1.574 . S
C608 H602 0.949 . S
C608 C612 1.368 . S
C609 C590 1.429 . S
C609 C603 1.429 . S
C609 C610 1.523 . S
C610 C591 1.368 . S
C610 C604 1.368 . S
C610 C609 1.523 . S
C611 C595 1.429 . S
C611 C607 1.429 . S
C611 C612 1.523 . S
C612 C596 1.368 . S
C612 C608 1.368 . S
C612 C611 1.523 . S
H613 C588 0.950 . S
H614 C590 0.950 . S
H615 C591 0.949 . S
H616 C593 0.950 . S
H617 C595 0.950 . S
C618 C619 1.349 . S
C618 C620 1.327 . S
C618 H643 0.950 . S
C619 C618 1.349 . S
C619 C635 1.349 . S
C620 C618 1.327 . S
C620 C639 1.429 . S
C620 H644 0.950 . S
C621 C638 1.574 . S
C621 C640 1.368 . S
C621 H645 0.949 . S
H622 C626 0.949 . S
C623 C624 1.349 . S
C623 C625 1.327 . S
C623 H646 0.950 . S
C624 C623 1.349 . S
C624 C636 1.349 . S
C625 C623 1.327 . S
C625 C641 1.429 . S
C625 H647 0.950 . S
C626 H622 0.949 . S
C626 C634 1.574 . S
C626 C642 1.368 . S
H627 C635 0.950 . S
H628 C633 0.950 . S
H629 C634 0.949 . S
H630 C636 0.950 . S
H631 C637 0.950 . S
H632 C638 0.949 . S
C633 H628 0.950 . S
C633 C635 1.327 . S
C633 C639 1.429 . S
C634 C626 1.574 . S
C634 H629 0.949 . S
C634 C640 1.368 . S
C635 C619 1.349 . S
C635 H627 0.950 . S
C635 C633 1.327 . S
C636 C624 1.349 . S
C636 H630 0.950 . S
C636 C637 1.327 . S
C637 H631 0.950 . S
C637 C636 1.327 . S
C637 C641 1.429 . S
C638 C621 1.574 . S
C638 H632 0.949 . S
C638 C642 1.368 . S
C639 C620 1.429 . S
C639 C633 1.429 . S
C639 C640 1.523 . S
C640 C621 1.368 . S
C640 C634 1.368 . S
C640 C639 1.523 . S
C641 C625 1.429 . S
C641 C637 1.429 . S
C641 C642 1.523 . S
C642 C626 1.368 . S
C642 C638 1.368 . S
C642 C641 1.523 . S
H643 C618 0.950 . S
H644 C620 0.950 . S
H645 C621 0.949 . S
H646 C623 0.950 . S
H647 C625 0.950 . S
C648 C649 1.349 . S
C648 C650 1.327 . S
C648 H673 0.950 . S
C649 C648 1.349 . S
C649 C665 1.349 . S
C650 C648 1.327 . S
C650 C669 1.429 . S
C650 H674 0.950 . S
C651 C668 1.574 . S
C651 C670 1.368 . S
C651 H675 0.949 . S
H652 C656 0.949 . S
C653 C654 1.349 . S
C653 C655 1.327 . S
C653 H676 0.950 . S
C654 C653 1.349 . S
C654 C666 1.349 . S
C655 C653 1.327 . S
C655 C671 1.429 . S
C655 H677 0.950 . S
C656 H652 0.949 . S
C656 C664 1.574 . S
C656 C672 1.368 . S
H657 C665 0.950 . S
H658 C663 0.950 . S
H659 C664 0.949 . S
H660 C666 0.929 1_545 S
H661 C667 0.950 . S
H662 C668 0.949 . S
C663 H658 0.950 . S
C663 C665 1.327 . S
C663 C669 1.429 . S
C664 C656 1.574 . S
C664 H659 0.949 . S
C664 C670 1.368 . S
C665 C649 1.349 . S
C665 H657 0.950 . S
C665 C663 1.327 . S
C666 C654 1.349 . S
C666 H660 0.929 1_565 S
C666 C667 1.327 . S
C667 H661 0.950 . S
C667 C666 1.327 . S
C667 C671 1.429 . S
C668 C651 1.574 . S
C668 H662 0.949 . S
C668 C672 1.368 . S
C669 C650 1.429 . S
C669 C663 1.429 . S
C669 C670 1.523 . S
C670 C651 1.368 . S
C670 C664 1.368 . S
C670 C669 1.523 . S
C671 C655 1.429 . S
C671 C667 1.429 . S
C671 C672 1.523 . S
C672 C656 1.368 . S
C672 C668 1.368 . S
C672 C671 1.523 . S
H673 C648 0.950 . S
H674 C650 0.950 . S
H675 C651 0.949 . S
H676 C653 0.950 . S
H677 C655 0.950 . S
C678 C679 1.349 . S
C678 C680 1.327 . S
C678 H703 0.950 . S
C679 C678 1.349 . S
C679 C695 1.349 . S
C680 C678 1.327 . S
C680 C699 1.429 . S
C680 H704 0.950 . S
C681 C698 1.574 . S
C681 C700 1.368 . S
C681 H705 0.949 . S
H682 C686 0.949 . S
C683 C684 1.349 . S
C683 C685 1.327 . S
C683 H706 0.950 . S
C684 C683 1.349 . S
C684 C696 1.349 . S
C685 C683 1.327 . S
C685 C701 1.429 . S
C685 H707 0.950 . S
C686 H682 0.949 . S
C686 C694 1.574 . S
C686 C702 1.368 . S
H687 C695 0.950 . S
H688 C693 0.950 . S
H689 C694 0.949 . S
H690 C696 0.950 . S
H691 C697 0.950 . S
H692 C698 0.949 . S
C693 H688 0.950 . S
C693 C695 1.327 . S
C693 C699 1.429 . S
C694 C686 1.574 . S
C694 H689 0.949 . S
C694 C700 1.368 . S
C695 C679 1.349 . S
C695 H687 0.950 . S
C695 C693 1.327 . S
C696 C684 1.349 . S
C696 H690 0.950 . S
C696 C697 1.327 . S
C697 H691 0.950 . S
C697 C696 1.327 . S
C697 C701 1.429 . S
C698 C681 1.574 . S
C698 H692 0.949 . S
C698 C702 1.368 . S
C699 C680 1.429 . S
C699 C693 1.429 . S
C699 C700 1.523 . S
C700 C681 1.368 . S
C700 C694 1.368 . S
C700 C699 1.523 . S
C701 C685 1.429 . S
C701 C697 1.429 . S
C701 C702 1.523 . S
C702 C686 1.368 . S
C702 C698 1.368 . S
C702 C701 1.523 . S
H703 C678 0.950 . S
H704 C680 0.950 . S
H705 C681 0.949 . S
H706 C683 0.950 . S
H707 C685 0.950 . S
C708 C709 1.349 . S
C708 C710 1.327 . S
C708 H733 0.950 . S
C709 C708 1.349 . S
C709 C725 1.349 . S
C710 C708 1.327 . S
C710 C729 1.429 . S
C710 H734 0.950 . S
C711 C728 1.574 . S
C711 C730 1.368 . S
C711 H735 0.949 . S
H712 C716 0.949 . S
C713 C714 1.349 . S
C713 C715 1.327 . S
C713 H736 0.950 . S
C714 C713 1.349 . S
C714 C726 1.349 . S
C715 C713 1.327 . S
C715 C731 1.429 . S
C715 H737 0.950 . S
C716 H712 0.949 . S
C716 C724 1.574 . S
C716 C732 1.368 . S
H717 C725 0.950 . S
H718 C723 0.950 . S
H719 C724 0.949 . S
H720 C726 0.950 . S
H721 C727 0.950 . S
H722 C728 0.949 . S
C723 H718 0.950 . S
C723 C725 1.327 . S
C723 C729 1.429 . S
C724 C716 1.574 . S
C724 H719 0.949 . S
C724 C730 1.368 . S
C725 C709 1.349 . S
C725 H717 0.950 . S
C725 C723 1.327 . S
C726 C714 1.349 . S
C726 H720 0.950 . S
C726 C727 1.327 . S
C727 H721 0.950 . S
C727 C726 1.327 . S
C727 C731 1.429 . S
C728 C711 1.574 . S
C728 H722 0.949 . S
C728 C732 1.368 . S
C729 C710 1.429 . S
C729 C723 1.429 . S
C729 C730 1.523 . S
C730 C711 1.368 . S
C730 C724 1.368 . S
C730 C729 1.523 . S
C731 C715 1.429 . S
C731 C727 1.429 . S
C731 C732 1.523 . S
C732 C716 1.368 . S
C732 C728 1.368 . S
C732 C731 1.523 . S
H733 C708 0.950 . S
H734 C710 0.950 . S
H735 C711 0.949 . S
H736 C713 0.950 . S
H737 C715 0.950 . S
C738 C739 1.349 . S
C738 C740 1.327 . S
C738 H763 0.950 . S
C739 C738 1.349 . S
C739 C755 1.349 . S
C740 C738 1.327 . S
C740 C759 1.429 . S
C740 H764 0.950 . S
C741 C758 1.574 . S
C741 C760 1.368 . S
C741 H765 0.949 . S
H742 C746 0.949 . S
C743 C744 1.349 . S
C743 C745 1.327 . S
C743 H766 0.950 . S
C744 C743 1.349 . S
C744 C756 1.349 . S
C745 C743 1.327 . S
C745 C761 1.429 . S
C745 H767 0.950 . S
C746 H742 0.949 . S
C746 C754 1.574 . S
C746 C762 1.368 . S
H747 C755 0.950 . S
H748 C753 0.950 . S
H749 C754 0.949 . S
H750 C756 0.950 . S
H751 C757 0.950 . S
H752 C758 0.949 . S
C753 H748 0.950 . S
C753 C755 1.327 . S
C753 C759 1.429 . S
C754 C746 1.574 . S
C754 H749 0.949 . S
C754 C760 1.368 . S
C755 C739 1.349 . S
C755 H747 0.950 . S
C755 C753 1.327 . S
C756 C744 1.349 . S
C756 H750 0.950 . S
C756 C757 1.327 . S
C757 H751 0.950 . S
C757 C756 1.327 . S
C757 C761 1.429 . S
C758 C741 1.574 . S
C758 H752 0.949 . S
C758 C762 1.368 . S
C759 C740 1.429 . S
C759 C753 1.429 . S
C759 C760 1.523 . S
C760 C741 1.368 . S
C760 C754 1.368 . S
C760 C759 1.523 . S
C761 C745 1.429 . S
C761 C757 1.429 . S
C761 C762 1.523 . S
C762 C746 1.368 . S
C762 C758 1.368 . S
C762 C761 1.523 . S
H763 C738 0.950 . S
H764 C740 0.950 . S
H765 C741 0.949 . S
H766 C743 0.950 . S
H767 C745 0.950 . S
C768 C769 1.349 . S
C768 C770 1.327 . S
C768 H793 0.950 . S
C769 C768 1.349 . S
C769 C785 1.349 . S
C770 C768 1.327 . S
C770 C789 1.429 . S
C770 H794 0.950 . S
C771 C788 1.574 . S
C771 C790 1.368 . S
C771 H795 0.949 . S
H772 C776 0.949 . S
C773 C774 1.349 . S
C773 C775 1.327 . S
C773 H796 0.950 . S
C774 C773 1.349 . S
C774 C786 1.349 . S
C775 C773 1.327 . S
C775 C791 1.429 . S
C775 H797 0.950 . S
C776 H772 0.949 . S
C776 C784 1.574 . S
C776 C792 1.368 . S
H777 C785 0.950 . S
H778 C783 0.950 . S
H779 C784 0.949 . S
H780 C786 0.950 . S
H781 C787 0.950 . S
H782 C788 0.949 . S
C783 H778 0.950 . S
C783 C785 1.327 . S
C783 C789 1.429 . S
C784 C776 1.574 . S
C784 H779 0.949 . S
C784 C790 1.368 . S
C785 C769 1.349 . S
C785 H777 0.950 . S
C785 C783 1.327 . S
C786 C774 1.349 . S
C786 H780 0.950 . S
C786 C787 1.327 . S
C787 H781 0.950 . S
C787 C786 1.327 . S
C787 C791 1.429 . S
C788 C771 1.574 . S
C788 H782 0.949 . S
C788 C792 1.368 . S
C789 C770 1.429 . S
C789 C783 1.429 . S
C789 C790 1.523 . S
C790 C771 1.368 . S
C790 C784 1.368 . S
C790 C789 1.523 . S
C791 C775 1.429 . S
C791 C787 1.429 . S
C791 C792 1.523 . S
C792 C776 1.368 . S
C792 C788 1.368 . S
C792 C791 1.523 . S
H793 C768 0.950 . S
H794 C770 0.950 . S
H795 C771 0.949 . S
H796 C773 0.950 . S
H797 C775 0.950 . S
C798 C799 1.349 . S
C798 C800 1.327 . S
C798 H823 0.950 . S
C799 C798 1.349 . S
C799 C815 1.349 . S
C800 C798 1.327 . S
C800 C819 1.429 . S
C800 H824 0.950 . S
C801 C818 1.574 . S
C801 C820 1.368 . S
C801 H825 0.949 . S
H802 C806 0.949 . S
C803 C804 1.349 . S
C803 C805 1.327 . S
C803 H826 0.950 . S
C804 C803 1.349 . S
C804 C816 1.349 . S
C805 C803 1.327 . S
C805 C821 1.429 . S
C805 H827 0.950 . S
C806 H802 0.949 . S
C806 C814 1.574 . S
C806 C822 1.368 . S
H807 C815 0.950 . S
H808 C813 0.950 . S
H809 C814 0.949 . S
H810 C816 0.950 . S
H811 C817 0.950 . S
H812 C818 0.949 . S
C813 H808 0.950 . S
C813 C815 1.327 . S
C813 C819 1.429 . S
C814 C806 1.574 . S
C814 H809 0.949 . S
C814 C820 1.368 . S
C815 C799 1.349 . S
C815 H807 0.950 . S
C815 C813 1.327 . S
C816 C804 1.349 . S
C816 H810 0.950 . S
C816 C817 1.327 . S
C817 H811 0.950 . S
C817 C816 1.327 . S
C817 C821 1.429 . S
C818 C801 1.574 . S
C818 H812 0.949 . S
C818 C822 1.368 . S
C819 C800 1.429 . S
C819 C813 1.429 . S
C819 C820 1.523 . S
C820 C801 1.368 . S
C820 C814 1.368 . S
C820 C819 1.523 . S
C821 C805 1.429 . S
C821 C817 1.429 . S
C821 C822 1.523 . S
C822 C806 1.368 . S
C822 C818 1.368 . S
C822 C821 1.523 . S
H823 C798 0.950 . S
H824 C800 0.950 . S
H825 C801 0.949 . S
H826 C803 0.950 . S
H827 C805 0.950 . S
C828 C829 1.349 . S
C828 C830 1.327 . S
C828 H853 0.950 . S
C829 C828 1.349 . S
C829 C845 1.349 . S
C830 C828 1.327 . S
C830 C849 1.429 . S
C830 H854 0.950 . S
C831 C848 1.574 . S
C831 C850 1.368 . S
C831 H855 0.949 . S
H832 C836 0.949 . S
C833 C834 1.349 . S
C833 C835 1.327 . S
C833 H856 0.950 . S
C834 C833 1.349 . S
C834 C846 1.349 . S
C835 C833 1.327 . S
C835 C851 1.429 . S
C835 H857 0.950 . S
C836 H832 0.949 . S
C836 C844 1.574 . S
C836 C852 1.368 . S
H837 C845 0.950 . S
H838 C843 0.950 . S
H839 C844 0.949 . S
H840 C846 0.950 . S
H841 C847 0.950 . S
H842 C848 0.949 . S
C843 H838 0.950 . S
C843 C845 1.327 . S
C843 C849 1.429 . S
C844 C836 1.574 . S
C844 H839 0.949 . S
C844 C850 1.368 . S
C845 C829 1.349 . S
C845 H837 0.950 . S
C845 C843 1.327 . S
C846 C834 1.349 . S
C846 H840 0.950 . S
C846 C847 1.327 . S
C847 H841 0.950 . S
C847 C846 1.327 . S
C847 C851 1.429 . S
C848 C831 1.574 . S
C848 H842 0.949 . S
C848 C852 1.368 . S
C849 C830 1.429 . S
C849 C843 1.429 . S
C849 C850 1.523 . S
C850 C831 1.368 . S
C850 C844 1.368 . S
C850 C849 1.523 . S
C851 C835 1.429 . S
C851 C847 1.429 . S
C851 C852 1.523 . S
C852 C836 1.368 . S
C852 C848 1.368 . S
C852 C851 1.523 . S
H853 C828 0.950 . S
H854 C830 0.950 . S
H855 C831 0.949 . S
H856 C833 0.950 . S
H857 C835 0.950 . S
C858 C859 1.349 . S
C858 C860 1.327 . S
C858 H883 0.950 . S
C859 C858 1.349 . S
C859 C875 1.349 . S
C860 C858 1.327 . S
C860 C879 1.429 . S
C860 H884 0.950 . S
C861 C878 1.574 . S
C861 C880 1.368 . S
C861 H885 0.949 . S
H862 C866 0.949 . S
C863 C864 1.349 . S
C863 C865 1.327 . S
C863 H886 0.950 . S
C864 C863 1.349 . S
C864 C876 1.349 . S
C865 C863 1.327 . S
C865 C881 1.429 . S
C865 H887 0.950 . S
C866 H862 0.949 . S
C866 C874 1.574 . S
C866 C882 1.368 . S
H867 C875 0.950 . S
H868 C873 0.950 . S
H869 C874 0.949 . S
H870 C876 0.950 . S
H871 C877 0.950 . S
H872 C878 0.949 . S
C873 H868 0.950 . S
C873 C875 1.327 . S
C873 C879 1.429 . S
C874 C866 1.574 . S
C874 H869 0.949 . S
C874 C880 1.368 . S
C875 C859 1.349 . S
C875 H867 0.950 . S
C875 C873 1.327 . S
C876 C864 1.349 . S
C876 H870 0.950 . S
C876 C877 1.327 . S
C877 H871 0.950 . S
C877 C876 1.327 . S
C877 C881 1.429 . S
C878 C861 1.574 . S
C878 H872 0.949 . S
C878 C882 1.368 . S
C879 C860 1.429 . S
C879 C873 1.429 . S
C879 C880 1.523 . S
C880 C861 1.368 . S
C880 C874 1.368 . S
C880 C879 1.523 . S
C881 C865 1.429 . S
C881 C877 1.429 . S
C881 C882 1.523 . S
C882 C866 1.368 . S
C882 C878 1.368 . S
C882 C881 1.523 . S
H883 C858 0.950 . S
H884 C860 0.950 . S
H885 C861 0.949 . S
H886 C863 0.950 . S
H887 C865 0.950 . S
C169 C4 1.651 . S
C174 C107 1.638 . S
C199 C16 1.601 . S
C204 C110 1.547 . S
C234 C146 1.230 . S
C229 C32 1.255 . S
C259 C43 1.480 . S
C264 C166 1.472 . S
C294 C120 2.227 . S
C289 C5 2.244 . S
C324 C97 1.284 . S
C319 C21 1.315 . S
C354 C150 1.357 . S
C349 C27 1.424 . S
C384 C130 1.224 . S
C379 C37 1.313 . S
C409 C10 1.371 . S
C414 C160 1.317 . S
C444 C126 1.770 1_556 S
C439 C26 1.793 . S
C469 C38 1.415 . S
C474 C92 1.373 . S
C499 C15 1.501 . S
C504 C140 1.446 . S
C534 C106 1.756 . S
C529 C48 1.762 . S
C559 C59 1.355 . S
C564 C112 1.296 . S
C589 C76 1.605 . S
C594 C147 1.581 . S
C619 C87 1.284 . S
C624 C167 1.258 . S
C649 C54 1.555 . S
C654 C117 1.518 . S
C684 C100 2.067 . S
C679 C60 2.074 . S
C714 C152 1.355 . S
C709 C71 1.471 . S
C744 C132 1.203 . S
C739 C82 1.243 . S
C769 C49 1.635 . S
C774 C157 1.560 . S
C804 C127 1.310 . S
C799 C70 1.322 . S
C834 C90 1.743 . S
C829 C81 1.800 . S
C859 C65 1.320 . S
C864 C137 1.283 . S
