# Generated by pormake.
# Topology ctn, (3,4)-cn, num edge types: 1
# Building blocks:
#     Node 0, Type 0, BuildingBlock: KAKCAD_clean_linker_0, # of connection points: 3
#     Node 1, Type 0, BuildingBlock: KAKCAD_clean_linker_0, # of connection points: 3
#     Node 2, Type 0, BuildingBlock: KAKCAD_clean_linker_0, # of connection points: 3
#     Node 3, Type 0, BuildingBlock: KAKCAD_clean_linker_0, # of connection points: 3
#     Node 4, Type 0, BuildingBlock: KAKCAD_clean_linker_0, # of connection points: 3
#     Node 5, Type 0, BuildingBlock: KAKCAD_clean_linker_0, # of connection points: 3
#     Node 6, Type 0, BuildingBlock: KAKCAD_clean_linker_0, # of connection points: 3
#     Node 7, Type 0, BuildingBlock: KAKCAD_clean_linker_0, # of connection points: 3
#     Node 8, Type 0, BuildingBlock: KAKCAD_clean_linker_0, # of connection points: 3
#     Node 9, Type 0, BuildingBlock: KAKCAD_clean_linker_0, # of connection points: 3
#     Node 10, Type 0, BuildingBlock: KAKCAD_clean_linker_0, # of connection points: 3
#     Node 11, Type 0, BuildingBlock: KAKCAD_clean_linker_0, # of connection points: 3
#     Node 12, Type 0, BuildingBlock: KAKCAD_clean_linker_0, # of connection points: 3
#     Node 13, Type 0, BuildingBlock: KAKCAD_clean_linker_0, # of connection points: 3
#     Node 14, Type 0, BuildingBlock: KAKCAD_clean_linker_0, # of connection points: 3
#     Node 15, Type 0, BuildingBlock: KAKCAD_clean_linker_0, # of connection points: 3
#     Node 16, Type 1, BuildingBlock: TATPOV_clean_sbu_0, # of connection points: 4
#     Node 17, Type 1, BuildingBlock: TATPOV_clean_sbu_0, # of connection points: 4
#     Node 18, Type 1, BuildingBlock: TATPOV_clean_sbu_0, # of connection points: 4
#     Node 19, Type 1, BuildingBlock: TATPOV_clean_sbu_0, # of connection points: 4
#     Node 20, Type 1, BuildingBlock: TATPOV_clean_sbu_0, # of connection points: 4
#     Node 21, Type 1, BuildingBlock: TATPOV_clean_sbu_0, # of connection points: 4
#     Node 22, Type 1, BuildingBlock: TATPOV_clean_sbu_0, # of connection points: 4
#     Node 23, Type 1, BuildingBlock: TATPOV_clean_sbu_0, # of connection points: 4
#     Node 24, Type 1, BuildingBlock: TATPOV_clean_sbu_0, # of connection points: 4
#     Node 25, Type 1, BuildingBlock: TATPOV_clean_sbu_0, # of connection points: 4
#     Node 26, Type 1, BuildingBlock: TATPOV_clean_sbu_0, # of connection points: 4
#     Node 27, Type 1, BuildingBlock: TATPOV_clean_sbu_0, # of connection points: 4
#     Edge 28, Type (0, 1), BuildingBlock: XIVTED_clean_linker_0, # of connection points: 2
#     Edge 29, Type (0, 1), BuildingBlock: XIVTED_clean_linker_0, # of connection points: 2
#     Edge 30, Type (0, 1), BuildingBlock: XIVTED_clean_linker_0, # of connection points: 2
#     Edge 31, Type (0, 1), BuildingBlock: XIVTED_clean_linker_0, # of connection points: 2
#     Edge 32, Type (0, 1), BuildingBlock: XIVTED_clean_linker_0, # of connection points: 2
#     Edge 33, Type (0, 1), BuildingBlock: XIVTED_clean_linker_0, # of connection points: 2
#     Edge 34, Type (0, 1), BuildingBlock: XIVTED_clean_linker_0, # of connection points: 2
#     Edge 35, Type (0, 1), BuildingBlock: XIVTED_clean_linker_0, # of connection points: 2
#     Edge 36, Type (0, 1), BuildingBlock: XIVTED_clean_linker_0, # of connection points: 2
#     Edge 37, Type (0, 1), BuildingBlock: XIVTED_clean_linker_0, # of connection points: 2
#     Edge 38, Type (0, 1), BuildingBlock: XIVTED_clean_linker_0, # of connection points: 2
#     Edge 39, Type (0, 1), BuildingBlock: XIVTED_clean_linker_0, # of connection points: 2
#     Edge 40, Type (0, 1), BuildingBlock: XIVTED_clean_linker_0, # of connection points: 2
#     Edge 41, Type (0, 1), BuildingBlock: XIVTED_clean_linker_0, # of connection points: 2
#     Edge 42, Type (0, 1), BuildingBlock: XIVTED_clean_linker_0, # of connection points: 2
#     Edge 43, Type (0, 1), BuildingBlock: XIVTED_clean_linker_0, # of connection points: 2
#     Edge 44, Type (0, 1), BuildingBlock: XIVTED_clean_linker_0, # of connection points: 2
#     Edge 45, Type (0, 1), BuildingBlock: XIVTED_clean_linker_0, # of connection points: 2
#     Edge 46, Type (0, 1), BuildingBlock: XIVTED_clean_linker_0, # of connection points: 2
#     Edge 47, Type (0, 1), BuildingBlock: XIVTED_clean_linker_0, # of connection points: 2
#     Edge 48, Type (0, 1), BuildingBlock: XIVTED_clean_linker_0, # of connection points: 2
#     Edge 49, Type (0, 1), BuildingBlock: XIVTED_clean_linker_0, # of connection points: 2
#     Edge 50, Type (0, 1), BuildingBlock: XIVTED_clean_linker_0, # of connection points: 2
#     Edge 51, Type (0, 1), BuildingBlock: XIVTED_clean_linker_0, # of connection points: 2
#     Edge 52, Type (0, 1), BuildingBlock: XIVTED_clean_linker_0, # of connection points: 2
#     Edge 53, Type (0, 1), BuildingBlock: XIVTED_clean_linker_0, # of connection points: 2
#     Edge 54, Type (0, 1), BuildingBlock: XIVTED_clean_linker_0, # of connection points: 2
#     Edge 55, Type (0, 1), BuildingBlock: XIVTED_clean_linker_0, # of connection points: 2
#     Edge 56, Type (0, 1), BuildingBlock: XIVTED_clean_linker_0, # of connection points: 2
#     Edge 57, Type (0, 1), BuildingBlock: XIVTED_clean_linker_0, # of connection points: 2
#     Edge 58, Type (0, 1), BuildingBlock: XIVTED_clean_linker_0, # of connection points: 2
#     Edge 59, Type (0, 1), BuildingBlock: XIVTED_clean_linker_0, # of connection points: 2
#     Edge 60, Type (0, 1), BuildingBlock: XIVTED_clean_linker_0, # of connection points: 2
#     Edge 61, Type (0, 1), BuildingBlock: XIVTED_clean_linker_0, # of connection points: 2
#     Edge 62, Type (0, 1), BuildingBlock: XIVTED_clean_linker_0, # of connection points: 2
#     Edge 63, Type (0, 1), BuildingBlock: XIVTED_clean_linker_0, # of connection points: 2
#     Edge 64, Type (0, 1), BuildingBlock: XIVTED_clean_linker_0, # of connection points: 2
#     Edge 65, Type (0, 1), BuildingBlock: XIVTED_clean_linker_0, # of connection points: 2
#     Edge 66, Type (0, 1), BuildingBlock: XIVTED_clean_linker_0, # of connection points: 2
#     Edge 67, Type (0, 1), BuildingBlock: XIVTED_clean_linker_0, # of connection points: 2
#     Edge 68, Type (0, 1), BuildingBlock: XIVTED_clean_linker_0, # of connection points: 2
#     Edge 69, Type (0, 1), BuildingBlock: XIVTED_clean_linker_0, # of connection points: 2
#     Edge 70, Type (0, 1), BuildingBlock: XIVTED_clean_linker_0, # of connection points: 2
#     Edge 71, Type (0, 1), BuildingBlock: XIVTED_clean_linker_0, # of connection points: 2
#     Edge 72, Type (0, 1), BuildingBlock: XIVTED_clean_linker_0, # of connection points: 2
#     Edge 73, Type (0, 1), BuildingBlock: XIVTED_clean_linker_0, # of connection points: 2
#     Edge 74, Type (0, 1), BuildingBlock: XIVTED_clean_linker_0, # of connection points: 2
#     Edge 75, Type (0, 1), BuildingBlock: XIVTED_clean_linker_0, # of connection points: 2
# Relax obj value: 0.003
# Max RMSD: 0.047
# Mean RMSD: 0.020
data_MOF--net-ctn--node1-TATPOV_clean_sbu_0--node2-KAKCAD_clean_linker_0--edge1-XIVTED_clean_linker_0
_symmetry_space_group_name_H-M    P1
_symmetry_Int_Tables_number       1
_symmetry_cell_setting            triclinic
loop_
_symmetry_equiv_pos_as_xyz
'x, y, z'
_cell_length_a     67.599309
_cell_length_b     67.506872
_cell_length_c     67.467224
_cell_angle_alpha  91.080857
_cell_angle_beta   91.377261
_cell_angle_gamma 91.269914
loop_
_atom_site_label
_atom_site_type_symbol
_atom_site_fract_x
_atom_site_fract_y
_atom_site_fract_z
_atom_type_partial_charge
C0 C 0.02776 0.07503 0.96258 0.0
C1 C 0.02247 0.09415 0.96883 0.0
C2 C 0.0291 0.05965 0.97615 0.0
C3 C 0.02513 0.06299 0.99629 0.0
C4 C 0.01988 0.08212 0.00254 0.0
C5 C 0.01856 0.09749 0.98899 0.0
C6 C 0.02637 0.04661 0.01075 0.0
C7 C 0.04183 0.03302 0.00998 0.0
C8 C 0.04322 0.01768 0.02374 0.0
C9 C 0.02884 0.01603 0.03838 0.0
C10 C 0.01323 0.02941 0.03942 0.0
C11 C 0.01212 0.04461 0.02549 0.0
C12 C 0.99818 0.02756 0.05511 0.0
C13 C 0.99091 0.00882 0.06065 0.0
C14 C 0.99113 0.04451 0.06487 0.0
C15 C 0.97728 0.04275 0.07985 0.0
C16 C 0.97019 0.02401 0.08551 0.0
C17 C 0.0597 0.0034 0.02295 0.0
C18 C 0.06596 0.99566 0.0047 0.0
C19 C 0.06914 0.99718 0.0405 0.0
C20 C 0.08425 0.9834 0.03984 0.0
C21 C 0.09038 0.9755 0.02162 0.0
C22 C 0.08113 0.98189 0.00404 0.0
C23 C 0.97713 0.00707 0.07569 0.0
H24 H 0.03108 0.07197 0.94722 0.0
H25 H 0.03301 0.04506 0.97079 0.0
H26 H 0.01693 0.08528 0.01797 0.0
H27 H 0.01422 0.11195 0.99431 0.0
H28 H 0.05314 0.03473 0.99899 0.0
H29 H -0.00014 0.05467 0.02585 0.0
H30 H 0.02983 0.00429 0.04906 0.0
H31 H 0.99573 0.99547 0.05323 0.0
H32 H 0.99662 0.05915 0.06121 0.0
H33 H 0.97245 0.05608 0.0873 0.0
H34 H 0.05886 -6e-05 0.99092 0.0
H35 H 0.06496 0.00312 0.05479 0.0
H36 H 0.97174 0.99243 0.07947 0.0
H37 H 0.08531 0.97594 0.98977 0.0
H38 H 0.0913 0.97909 0.05364 0.0
C39 C 0.32164 0.73452 0.26633 0.0
C40 C 0.3323 0.71804 0.27271 0.0
C41 C 0.3035 0.73203 0.25614 0.0
C42 C 0.2956 0.71298 0.25171 0.0
C43 C 0.30627 0.69646 0.258 0.0
C44 C 0.32433 0.69896 0.26844 0.0
C45 C 0.2764 0.71041 0.24047 0.0
C46 C 0.27139 0.72335 0.22515 0.0
C47 C 0.25327 0.72124 0.21455 0.0
C48 C 0.24022 0.70556 0.21911 0.0
C49 C 0.24504 0.69226 0.23419 0.0
C50 C 0.26302 0.695 0.24494 0.0
C51 C 0.23155 0.6753 0.23865 0.0
C52 C 0.21094 0.67763 0.23921 0.0
C53 C 0.2393 0.65657 0.24253 0.0
C54 C 0.22682 0.64062 0.24703 0.0
C55 C 0.20622 0.64292 0.24769 0.0
C56 C 0.24841 0.73525 0.19844 0.0
C57 C 0.25309 0.75557 0.20086 0.0
C58 C 0.23996 0.7284 0.18025 0.0
C59 C 0.23709 0.74142 0.16458 0.0
C60 C 0.24266 0.76155 0.16676 0.0
C61 C 0.2503 0.76854 0.18521 0.0
C62 C 0.19842 0.66162 0.2437 0.0
H63 H 0.32738 0.74946 0.26897 0.0
H64 H 0.29564 0.74513 0.25183 0.0
H65 H 0.30083 0.68154 0.25465 0.0
H66 H 0.33194 0.68589 0.27327 0.0
H67 H 0.28188 0.73484 0.22107 0.0
H68 H 0.26643 0.68526 0.25707 0.0
H69 H 0.22636 0.70363 0.21082 0.0
H70 H 0.2045 0.69189 0.23644 0.0
H71 H 0.25507 0.65418 0.24198 0.0
H72 H 0.23338 0.62651 0.25027 0.0
H73 H 0.2592 0.76143 0.21482 0.0
H74 H 0.23633 0.71282 0.17783 0.0
H75 H 0.18261 0.66387 0.24391 0.0
H76 H 0.25442 0.78403 0.18745 0.0
H77 H 0.23134 0.73555 0.15049 0.0
C78 C 6e-05 0.44637 0.13382 0.0
C79 C 0.02061 0.4436 0.13445 0.0
C80 C 0.98936 0.44448 0.1159 0.0
C81 C 0.99896 0.43953 0.09832 0.0
C82 C 0.01949 0.43669 0.09894 0.0
C83 C 0.03025 0.43885 0.11683 0.0
C84 C 0.98757 0.43746 0.07935 0.0
C85 C 0.97439 0.45224 0.07364 0.0
C86 C 0.96394 0.45069 0.05545 0.0
C87 C 0.96637 0.43391 0.04322 0.0
C88 C 0.97922 0.41882 0.04883 0.0
C89 C 0.98997 0.42083 0.06685 0.0
C90 C 0.9815 0.40127 0.03553 0.0
C91 C 0.96484 0.39252 0.02571 0.0
C92 C 0.00033 0.39388 0.03159 0.0
C93 C 0.00251 0.37882 0.01731 0.0
C94 C 0.98591 0.37094 0.0067 0.0
C95 C 0.95076 0.46668 0.04885 0.0
C96 C 0.9369 0.47486 0.06168 0.0
C97 C 0.95166 0.47348 0.02935 0.0
C98 C 0.9386 0.4877 0.0226 0.0
C99 C 0.92422 0.49541 0.03515 0.0
C100 C 0.92371 0.48907 0.05488 0.0
C101 C 0.96702 0.37758 0.01143 0.0
H102 H 0.9923 0.45017 0.14718 0.0
H103 H 0.97353 0.44666 0.11582 0.0
H104 H 0.02724 0.43301 0.08554 0.0
H105 H 0.04605 0.43651 0.11694 0.0
H106 H 0.97279 0.46528 0.08304 0.0
H107 H -0.00014 0.40924 0.0714 0.0
H108 H 0.95829 0.43269 0.02916 0.0
H109 H 0.95009 0.39755 0.02876 0.0
H110 H 0.01345 0.40037 0.03885 0.0
H111 H 0.01726 0.37406 0.01387 0.0
H112 H 0.93586 0.46981 0.07677 0.0
H113 H 0.96247 0.46774 0.01926 0.0
H114 H 0.95394 0.37152 0.00373 0.0
H115 H 0.91274 0.4946 0.06488 0.0
H116 H 0.93974 0.49262 0.00747 0.0
C117 C 0.72419 0.71245 0.14132 0.0
C118 C 0.74418 0.71068 0.1364 0.0
C119 C 0.71872 0.72534 0.15661 0.0
C120 C 0.73313 0.73675 0.16734 0.0
C121 C 0.75315 0.7346 0.16274 0.0
C122 C 0.75861 0.72174 0.14745 0.0
C123 C 0.72728 0.75141 0.18274 0.0
C124 C 0.71227 0.74679 0.19612 0.0
C125 C 0.70648 0.76081 0.21042 0.0
C126 C 0.71584 0.77965 0.21108 0.0
C127 C 0.73086 0.78451 0.19789 0.0
C128 C 0.73652 0.77029 0.18381 0.0
C129 C 0.74056 0.80451 0.19882 0.0
C130 C 0.72921 0.82153 0.20128 0.0
C131 C 0.76124 0.80671 0.19774 0.0
C132 C 0.77039 0.82547 0.19966 0.0
C133 C 0.75907 0.84245 0.20265 0.0
C134 C 0.69046 0.75613 0.2245 0.0
C135 C 0.67312 0.74574 0.21807 0.0
C136 C 0.69196 0.76297 0.24431 0.0
C137 C 0.67617 0.76044 0.25705 0.0
C138 C 0.65852 0.75087 0.25037 0.0
C139 C 0.65733 0.74309 0.2309 0.0
C140 C 0.73834 0.84027 0.20313 0.0
H141 H 0.71268 0.70432 0.13295 0.0
H142 H 0.70315 0.72682 0.15962 0.0
H143 H 0.76465 0.7429 0.17096 0.0
H144 H 0.77417 0.72045 0.1443 0.0
H145 H 0.70537 0.73215 0.19566 0.0
H146 H 0.74773 0.77417 0.17326 0.0
H147 H 0.71136 0.79064 0.22189 0.0
H148 H 0.71322 0.82038 0.20177 0.0
H149 H 0.77039 0.79386 0.19601 0.0
H150 H 0.78639 0.82657 0.19945 0.0
H151 H 0.6714 0.74039 0.20288 0.0
H152 H 0.70527 0.77058 0.24993 0.0
H153 H 0.72913 0.85306 0.20501 0.0
H154 H 0.64385 0.73577 0.22529 0.0
H155 H 0.67764 0.7663 0.27209 0.0
C156 C 0.99218 0.97677 0.3908 0.0
C157 C 0.99751 0.979 0.37093 0.0
C158 C 0.00662 0.9755 0.40579 0.0
C159 C 0.02679 0.97655 0.40136 0.0
C160 C 0.03223 0.97946 0.38163 0.0
C161 C 0.01772 0.98063 0.36653 0.0
C162 C 0.04192 0.97408 0.41737 0.0
C163 C 0.03952 0.95885 0.43107 0.0
C164 C 0.05303 0.95675 0.44698 0.0
C165 C 0.06904 0.97027 0.44922 0.0
C166 C 0.0718 0.98547 0.43554 0.0
C167 C 0.05831 0.98717 0.41951 0.0
C168 C 0.08872 0.99965 0.4382 0.0
C169 C 0.09274 0.00889 0.45672 0.0
C170 C 0.1012 0.0037 0.42238 0.0
C171 C 0.1177 0.01638 0.42517 0.0
C172 C 0.12192 0.02552 0.44378 0.0
C173 C 0.05004 0.94064 0.46137 0.0
C174 C 0.05219 0.94441 0.48188 0.0
C175 C 0.04413 0.92153 0.45467 0.0
C176 C 0.03966 0.90676 0.46816 0.0
C177 C 0.04101 0.91074 0.48867 0.0
C178 C 0.04772 0.9296 0.49541 0.0
C179 C 0.10907 0.02178 0.45945 0.0
H180 H 0.97677 0.97602 0.39483 0.0
H181 H 0.00197 0.9737 0.42092 0.0
H182 H 0.0477 0.98027 0.3778 0.0
H183 H 0.02233 0.98228 0.35138 0.0
H184 H 0.02691 0.9487 0.42944 0.0
H185 H 0.06016 0.99911 0.40915 0.0
H186 H 0.07963 0.96871 0.46139 0.0
H187 H 0.08317 0.0062 0.46908 0.0
H188 H 0.0985 0.99661 0.408 0.0
H189 H 0.1274 0.01856 0.41283 0.0
H190 H 0.05658 0.95903 0.48751 0.0
H191 H 0.04274 0.91804 0.43895 0.0
H192 H 0.11156 0.02884 0.47386 0.0
H193 H 0.04874 0.93318 0.51112 0.0
H194 H 0.03489 0.89226 0.4625 0.0
C195 C 0.15764 0.72284 0.71393 0.0
C196 C 0.15178 0.74256 0.71182 0.0
C197 C 0.1735 0.71828 0.72661 0.0
C198 C 0.18386 0.73335 0.73745 0.0
C199 C 0.17826 0.75311 0.73502 0.0
C200 C 0.16241 0.75765 0.72237 0.0
C201 C 0.2001 0.7285 0.75168 0.0
C202 C 0.21406 0.71421 0.74679 0.0
C203 C 0.22921 0.70932 0.76036 0.0
C204 C 0.2305 0.71933 0.77886 0.0
C205 C 0.21662 0.73364 0.78414 0.0
C206 C 0.20139 0.73795 0.77042 0.0
C207 C 0.21773 0.7438 0.80405 0.0
C208 C 0.22456 0.73382 0.82092 0.0
C209 C 0.21186 0.76357 0.80641 0.0
C210 C 0.21257 0.77297 0.82508 0.0
C211 C 0.21963 0.76306 0.84191 0.0
C212 C 0.24318 0.69319 0.75564 0.0
C213 C 0.23637 0.67575 0.74565 0.0
C214 C 0.26314 0.69457 0.76203 0.0
C215 C 0.27568 0.67859 0.75938 0.0
C216 C 0.26864 0.66095 0.75005 0.0
C217 C 0.24899 0.65985 0.7428 0.0
C218 C 0.22572 0.74336 0.83949 0.0
H219 H 0.14961 0.71083 0.70621 0.0
H220 H 0.1773 0.70289 0.72832 0.0
H221 H 0.18616 0.76509 0.7429 0.0
H222 H 0.15852 0.77303 0.72081 0.0
H223 H 0.21326 0.70705 0.73228 0.0
H224 H 0.19009 0.74828 0.7745 0.0
H225 H 0.24222 0.71574 0.7893 0.0
H226 H 0.22888 0.7185 0.81993 0.0
H227 H 0.20681 0.77195 0.79382 0.0
H228 H 0.20742 0.788 0.82622 0.0
H229 H 0.22105 0.67401 0.74074 0.0
H230 H 0.26905 0.70791 0.76935 0.0
H231 H 0.23163 0.73523 0.85188 0.0
H232 H 0.2431 0.64636 0.73576 0.0
H233 H 0.29085 0.67992 0.7649 0.0
C234 C 0.95606 0.6225 0.51977 0.0
C235 C 0.94895 0.6225 0.53914 0.0
C236 C 0.95318 0.60591 0.50729 0.0
C237 C 0.94334 0.5888 0.51398 0.0
C238 C 0.93623 0.58884 0.53342 0.0
C239 C 0.9389 0.60557 0.54582 0.0
C240 C 0.94081 0.57095 0.50077 0.0
C241 C 0.95595 0.56563 0.48785 0.0
C242 C 0.95382 0.54885 0.47538 0.0
C243 C 0.93638 0.53726 0.47585 0.0
C244 C 0.92102 0.54228 0.48852 0.0
C245 C 0.92336 0.55914 0.50099 0.0
C246 C 0.90282 0.52953 0.48877 0.0
C247 C 0.89438 0.52185 0.47092 0.0
C248 C 0.89461 0.52379 0.5068 0.0
C249 C 0.87899 0.50982 0.50696 0.0
C250 C 0.87134 0.50132 0.48911 0.0
C251 C 0.96972 0.54328 0.46174 0.0
C252 C 0.97833 0.55737 0.44931 0.0
C253 C 0.9757 0.52353 0.46041 0.0
C254 C 0.98943 0.51781 0.44645 0.0
C255 C 0.9974 0.53166 0.43334 0.0
C256 C 0.99202 0.55161 0.43519 0.0
C257 C 0.87886 0.50789 0.47109 0.0
H258 H 0.96356 0.6355 0.51412 0.0
H259 H 0.95848 0.60663 0.4923 0.0
H260 H 0.92886 0.57584 0.53919 0.0
H261 H 0.93337 0.60516 0.56075 0.0
H262 H 0.96968 0.57423 0.48782 0.0
H263 H 0.91138 0.56327 0.5105 0.0
H264 H 0.9348 0.52421 0.46629 0.0
H265 H 0.90008 0.52632 0.45677 0.0
H266 H 0.90086 0.52937 0.5208 0.0
H267 H 0.87357 0.50496 0.52108 0.0
H268 H 0.9739 0.57269 0.45 0.0
H269 H 0.96957 0.51245 0.47008 0.0
H270 H 0.873 0.50191 0.45708 0.0
H271 H 0.99778 0.56262 0.42525 0.0
H272 H 0.99364 0.50243 0.44578 0.0
C273 C 0.85385 0.79066 0.88415 0.0
C274 C 0.83621 0.77923 0.88338 0.0
C275 C 0.85517 0.80845 0.87385 0.0
C276 C 0.83872 0.81522 0.863 0.0
C277 C 0.82096 0.804 0.86275 0.0
C278 C 0.81976 0.78616 0.87274 0.0
C279 C 0.84004 0.83335 0.85105 0.0
C280 C 0.85499 0.8356 0.83715 0.0
C281 C 0.85435 0.851 0.82342 0.0
C282 C 0.83889 0.8646 0.82419 0.0
C283 C 0.82387 0.86255 0.83808 0.0
C284 C 0.82479 0.84707 0.85165 0.0
C285 C 0.80609 0.87505 0.83702 0.0
C286 C 0.80769 0.89558 0.83409 0.0
C287 C 0.78719 0.86617 0.83831 0.0
C288 C 0.77028 0.87751 0.83686 0.0
C289 C 0.77177 0.89806 0.8341 0.0
C290 C 0.86825 0.85123 0.8067 0.0
C291 C 0.88847 0.84758 0.80977 0.0
C292 C 0.86096 0.85366 0.78725 0.0
C293 C 0.87346 0.852 0.77119 0.0
C294 C 0.89363 0.84794 0.77414 0.0
C295 C 0.90105 0.84601 0.79366 0.0
C296 C 0.79067 0.907 0.83265 0.0
H297 H 0.86675 0.78553 0.89221 0.0
H298 H 0.86901 0.81686 0.87424 0.0
H299 H 0.80813 0.80874 0.85431 0.0
H300 H 0.80597 0.77764 0.87201 0.0
H301 H 0.86625 0.82447 0.83604 0.0
H302 H 0.8132 0.84528 0.86236 0.0
H303 H 0.83801 0.87619 0.81333 0.0
H304 H 0.82207 0.90283 0.83308 0.0
H305 H 0.78541 0.85031 0.84 0.0
H306 H 0.75596 0.87005 0.8375 0.0
H307 H 0.89452 0.84575 0.82463 0.0
H308 H 0.84538 0.85603 0.78432 0.0
H309 H 0.79231 0.92282 0.83061 0.0
H310 H 0.91655 0.84312 0.79649 0.0
H311 H 0.86708 0.85313 0.75639 0.0
C312 C 0.35551 0.27669 0.38912 0.0
C313 C 0.33727 0.26896 0.39536 0.0
C314 C 0.35622 0.29359 0.37742 0.0
C315 C 0.33868 0.30292 0.37153 0.0
C316 C 0.32049 0.29522 0.37805 0.0
C317 C 0.31982 0.27855 0.38991 0.0
C318 C 0.33904 0.31994 0.35779 0.0
C319 C 0.35196 0.32021 0.34175 0.0
C320 C 0.35068 0.33496 0.32739 0.0
C321 C 0.33639 0.34965 0.32924 0.0
C322 C 0.32333 0.34958 0.34508 0.0
C323 C 0.32513 0.33501 0.35954 0.0
C324 C 0.30643 0.36326 0.34535 0.0
C325 C 0.30882 0.3833 0.34041 0.0
C326 C 0.28741 0.35587 0.34944 0.0
C327 C 0.2711 0.3681 0.34836 0.0
C328 C 0.27336 0.38809 0.34321 0.0
C329 C 0.36298 0.33397 0.3095 0.0
C330 C 0.38329 0.33003 0.31103 0.0
C331 C 0.35425 0.33641 0.29063 0.0
C332 C 0.36554 0.33497 0.27366 0.0
C333 C 0.38588 0.33112 0.2751 0.0
C334 C 0.39464 0.32867 0.294 0.0
C335 C 0.29244 0.39561 0.33938 0.0
H336 H 0.3692 0.26963 0.39323 0.0
H337 H 0.37049 0.29924 0.37288 0.0
H338 H 0.30662 0.30163 0.37343 0.0
H339 H 0.30552 0.27269 0.39417 0.0
H340 H 0.36221 0.30827 0.33973 0.0
H341 H 0.31528 0.33515 0.37197 0.0
H342 H 0.33492 0.36069 0.31787 0.0
H343 H 0.32333 0.38943 0.33728 0.0
H344 H 0.28497 0.3404 0.35283 0.0
H345 H 0.2566 0.36166 0.35094 0.0
H346 H 0.39041 0.32818 0.3254 0.0
H347 H 0.33855 0.339 0.28893 0.0
H348 H 0.29471 0.41099 0.33554 0.0
H349 H 0.4103 0.32588 0.29565 0.0
H350 H 0.35818 0.33646 0.25934 0.0
C351 C 0.49689 0.94412 0.63122 0.0
C352 C 0.51698 0.93931 0.63221 0.0
C353 C 0.48565 0.94038 0.61385 0.0
C354 C 0.49434 0.93202 0.59698 0.0
C355 C 0.51455 0.92742 0.598 0.0
C356 C 0.52569 0.93087 0.61548 0.0
C357 C 0.48246 0.92828 0.57835 0.0
C358 C 0.46784 0.9416 0.57239 0.0
C359 C 0.45692 0.93845 0.5546 0.0
C360 C 0.46076 0.92179 0.54265 0.0
C361 C 0.47539 0.90842 0.54822 0.0
C362 C 0.48602 0.91165 0.56616 0.0
C363 C 0.48028 0.89172 0.53472 0.0
C364 C 0.46522 0.88015 0.52518 0.0
C365 C 0.50011 0.88803 0.53037 0.0
C366 C 0.50473 0.87363 0.51619 0.0
C367 C 0.48964 0.86252 0.50616 0.0
C368 C 0.44201 0.95295 0.54811 0.0
C369 C 0.4285 0.96072 0.56156 0.0
C370 C 0.44126 0.95916 0.52836 0.0
C371 C 0.4272 0.97267 0.52213 0.0
C372 C 0.41348 0.98027 0.53547 0.0
C373 C 0.41435 0.97422 0.5553 0.0
C374 C 0.46986 0.86563 0.5111 0.0
H375 H 0.48979 0.95044 0.64403 0.0
H376 H 0.47008 0.9438 0.61377 0.0
H377 H 0.5219 0.92139 0.58522 0.0
H378 H 0.54122 0.92722 0.61583 0.0
H379 H 0.4654 0.95485 0.58123 0.0
H380 H 0.49698 0.90106 0.57066 0.0
H381 H 0.45257 0.91942 0.52876 0.0
H382 H 0.44982 0.88257 0.52837 0.0
H383 H 0.51203 0.89679 0.53739 0.0
H384 H 0.52012 0.87143 0.51279 0.0
H385 H 0.42863 0.95609 0.57685 0.0
H386 H 0.45173 0.95374 0.51775 0.0
H387 H 0.45791 0.8574 0.50351 0.0
H388 H 0.40387 0.97962 0.56591 0.0
H389 H 0.42724 0.97734 0.50686 0.0
C390 C 0.22616 0.21038 0.64933 0.0
C391 C 0.24581 0.20585 0.64501 0.0
C392 C 0.22205 0.22415 0.66433 0.0
C393 C 0.23749 0.23373 0.67536 0.0
C394 C 0.25713 0.22891 0.67131 0.0
C395 C 0.26124 0.21514 0.65632 0.0
C396 C 0.23312 0.24916 0.69057 0.0
C397 C 0.21725 0.24652 0.70345 0.0
C398 C 0.21252 0.2614 0.71732 0.0
C399 C 0.22389 0.27913 0.71808 0.0
C400 C 0.24 0.28185 0.7056 0.0
C401 C 0.24456 0.26681 0.69194 0.0
C402 C 0.25219 0.30038 0.70699 0.0
C403 C 0.24322 0.31895 0.70669 0.0
C404 C 0.27288 0.29957 0.70916 0.0
C405 C 0.28432 0.317 0.7116 0.0
C406 C 0.27533 0.33557 0.71155 0.0
C407 C 0.19572 0.25853 0.73098 0.0
C408 C 0.17799 0.24895 0.72436 0.0
C409 C 0.19714 0.26573 0.75069 0.0
C410 C 0.18106 0.264 0.76322 0.0
C411 C 0.16323 0.25484 0.75645 0.0
C412 C 0.16196 0.24705 0.73699 0.0
C413 C 0.2547 0.33639 0.70878 0.0
H414 H 0.21393 0.20372 0.64074 0.0
H415 H 0.20676 0.22772 0.66689 0.0
H416 H 0.26936 0.23578 0.67976 0.0
H417 H 0.27654 0.21175 0.6536 0.0
H418 H 0.20883 0.23267 0.7029 0.0
H419 H 0.25668 0.26915 0.68196 0.0
H420 H 0.2203 0.29087 0.72847 0.0
H421 H 0.2273 0.31996 0.70491 0.0
H422 H 0.28014 0.28544 0.70951 0.0
H423 H 0.3002 0.31597 0.71365 0.0
H424 H 0.17626 0.24343 0.70924 0.0
H425 H 0.21068 0.27275 0.75647 0.0
H426 H 0.24739 0.35051 0.70885 0.0
H427 H 0.14833 0.24012 0.73129 0.0
H428 H 0.18254 0.26992 0.77823 0.0
C429 C 0.82744 0.23329 0.76578 0.0
C430 C 0.83765 0.21677 0.77278 0.0
C431 C 0.80963 0.23088 0.75504 0.0
C432 C 0.8016 0.21187 0.75069 0.0
C433 C 0.81182 0.1953 0.75757 0.0
C434 C 0.8296 0.19772 0.76853 0.0
C435 C 0.78267 0.20948 0.73898 0.0
C436 C 0.77845 0.22221 0.72325 0.0
C437 C 0.76039 0.22065 0.71249 0.0
C438 C 0.74661 0.20571 0.71731 0.0
C439 C 0.75068 0.19257 0.73274 0.0
C440 C 0.76866 0.1947 0.74359 0.0
C441 C 0.73627 0.17651 0.73753 0.0
C442 C 0.71587 0.1801 0.73805 0.0
C443 C 0.74289 0.1574 0.74168 0.0
C444 C 0.72947 0.14225 0.74629 0.0
C445 C 0.70907 0.14582 0.74687 0.0
C446 C 0.75622 0.23456 0.6961 0.0
C447 C 0.762 0.25466 0.69805 0.0
C448 C 0.74716 0.2278 0.67815 0.0
C449 C 0.74461 0.24068 0.66232 0.0
C450 C 0.75117 0.26056 0.66406 0.0
C451 C 0.75957 0.26747 0.68221 0.0
C452 C 0.70243 0.16493 0.74271 0.0
H453 H 0.8333 0.24819 0.76837 0.0
H454 H 0.80208 0.24401 0.75027 0.0
H455 H 0.80621 0.18041 0.75432 0.0
H456 H 0.83693 0.18466 0.77379 0.0
H457 H 0.78946 0.23315 0.71907 0.0
H458 H 0.77151 0.1851 0.75598 0.0
H459 H 0.73272 0.20425 0.70899 0.0
H460 H 0.71031 0.1947 0.73511 0.0
H461 H 0.75848 0.15408 0.7412 0.0
H462 H 0.73513 0.12778 0.74966 0.0
H463 H 0.76859 0.26049 0.7118 0.0
H464 H 0.74269 0.21238 0.67606 0.0
H465 H 0.6868 0.16813 0.74286 0.0
H466 H 0.76449 0.28279 0.68409 0.0
H467 H 0.73825 0.23488 0.64845 0.0
C468 C 0.5211 0.5684 0.45912 0.0
C469 C 0.51672 0.58772 0.46556 0.0
C470 C 0.523 0.55313 0.47272 0.0
C471 C 0.52051 0.55677 0.4931 0.0
C472 C 0.51604 0.57606 0.49952 0.0
C473 C 0.51419 0.59134 0.48593 0.0
C474 C 0.52266 0.54055 0.50761 0.0
C475 C 0.53799 0.52691 0.50587 0.0
C476 C 0.54028 0.51167 0.51961 0.0
C477 C 0.5269 0.51008 0.53516 0.0
C478 C 0.51143 0.5235 0.53714 0.0
C479 C 0.50947 0.53871 0.52333 0.0
C480 C 0.49731 0.52157 0.55362 0.0
C481 C 0.48958 0.50288 0.55869 0.0
C482 C 0.49158 0.53836 0.56451 0.0
C483 C 0.47856 0.53649 0.58022 0.0
C484 C 0.47086 0.51779 0.58532 0.0
C485 C 0.55676 0.49753 0.51785 0.0
C486 C 0.56148 0.48928 0.49931 0.0
C487 C 0.56788 0.49217 0.53471 0.0
C488 C 0.58336 0.47887 0.53308 0.0
C489 C 0.58803 0.47054 0.51457 0.0
C490 C 0.57689 0.47589 0.4977 0.0
C491 C 0.47648 0.50102 0.57431 0.0
H492 H 0.52333 0.56512 0.44357 0.0
H493 H 0.52627 0.5384 0.46725 0.0
H494 H 0.51421 0.57943 0.51512 0.0
H495 H 0.51059 0.60598 0.4914 0.0
H496 H 0.54854 0.5285 0.49413 0.0
H497 H 0.49734 0.54886 0.52453 0.0
H498 H 0.52855 0.49835 0.54579 0.0
H499 H 0.49355 0.48968 0.55048 0.0
H500 H 0.49739 0.55295 0.56108 0.0
H501 H 0.47439 0.54973 0.58827 0.0
H502 H 0.5531 0.493 0.48607 0.0
H503 H 0.56475 0.49841 0.54918 0.0
H504 H 0.47097 0.48638 0.57796 0.0
H505 H 0.58023 0.46989 0.48319 0.0
H506 H 0.59152 0.47493 0.54639 0.0
C507 C 0.50437 0.48192 0.8928 0.0
C508 C 0.50982 0.48612 0.87333 0.0
C509 C 0.51867 0.47803 0.90733 0.0
C510 C 0.53885 0.47809 0.9028 0.0
C511 C 0.54436 0.48196 0.88324 0.0
C512 C 0.52997 0.48586 0.86861 0.0
C513 C 0.55391 0.47487 0.91878 0.0
C514 C 0.55028 0.4608 0.93342 0.0
C515 C 0.56301 0.45931 0.95008 0.0
C516 C 0.57995 0.47169 0.95165 0.0
C517 C 0.58409 0.48551 0.93692 0.0
C518 C 0.57109 0.48695 0.92048 0.0
C519 C 0.60146 0.49917 0.93925 0.0
C520 C 0.60515 0.50962 0.9572 0.0
C521 C 0.61439 0.50193 0.92353 0.0
C522 C 0.63086 0.51471 0.9258 0.0
C523 C 0.63462 0.52524 0.94378 0.0
C524 C 0.55783 0.44579 0.96641 0.0
C525 C 0.53814 0.44411 0.97248 0.0
C526 C 0.5724 0.43489 0.97635 0.0
C527 C 0.56734 0.42263 0.99205 0.0
C528 C 0.54763 0.42109 0.99816 0.0
C529 C 0.5331 0.43187 0.98806 0.0
C530 C 0.62148 0.52259 0.95941 0.0
H531 H 0.48897 0.48166 0.89687 0.0
H532 H 0.51389 0.4754 0.92228 0.0
H533 H 0.55979 0.482 0.87925 0.0
H534 H 0.53463 0.48909 0.85375 0.0
H535 H 0.53732 0.4511 0.93196 0.0
H536 H 0.57382 0.4982 0.90957 0.0
H537 H 0.58973 0.47092 0.96457 0.0
H538 H 0.59522 0.50798 0.96946 0.0
H539 H 0.61195 0.49392 0.90959 0.0
H540 H 0.64083 0.51604 0.91356 0.0
H541 H 0.52658 0.4525 0.96537 0.0
H542 H 0.58768 0.43576 0.97193 0.0
H543 H 0.62365 0.53068 0.97333 0.0
H544 H 0.51771 0.43078 0.99211 0.0
H545 H 0.5789 0.41459 -0.00044 0.0
C546 C 0.65048 0.22119 0.21214 0.0
C547 C 0.64364 0.24063 0.2105 0.0
C548 C 0.66673 0.21719 0.22457 0.0
C549 C 0.67649 0.23254 0.23558 0.0
C550 C 0.66994 0.25203 0.23351 0.0
C551 C 0.65372 0.25602 0.22114 0.0
C552 C 0.69308 0.2283 0.24963 0.0
C553 C 0.70771 0.21477 0.24451 0.0
C554 C 0.72336 0.21075 0.25783 0.0
C555 C 0.72437 0.22071 0.27636 0.0
C556 C 0.70978 0.23416 0.28189 0.0
C557 C 0.69414 0.23771 0.26841 0.0
C558 C 0.71066 0.24425 0.30182 0.0
C559 C 0.71801 0.23444 0.31858 0.0
C560 C 0.70409 0.26376 0.30431 0.0
C561 C 0.70473 0.27312 0.323 0.0
C562 C 0.71233 0.2634 0.33971 0.0
C563 C 0.73826 0.19561 0.25284 0.0
C564 C 0.73234 0.17758 0.24344 0.0
C565 C 0.75829 0.19854 0.25848 0.0
C566 C 0.77187 0.18348 0.25567 0.0
C567 C 0.76577 0.16518 0.24701 0.0
C568 C 0.74596 0.16257 0.24051 0.0
C569 C 0.71904 0.24393 0.33717 0.0
H570 H 0.64293 0.20898 0.20428 0.0
H571 H 0.67128 0.20199 0.22599 0.0
H572 H 0.67737 0.26425 0.24147 0.0
H573 H 0.64908 0.27121 0.21989 0.0
H574 H 0.70708 0.20759 0.23 0.0
H575 H 0.68238 0.24742 0.2727 0.0
H576 H 0.73647 0.21777 0.28661 0.0
H577 H 0.72289 0.2193 0.31745 0.0
H578 H 0.69858 0.27198 0.29178 0.0
H579 H 0.69914 0.28798 0.32427 0.0
H580 H 0.71701 0.17472 0.2391 0.0
H581 H 0.76346 0.21239 0.26536 0.0
H582 H 0.72536 0.23598 0.34948 0.0
H583 H 0.74075 0.14856 0.23399 0.0
H584 H 0.7871 0.18604 0.26056 0.0
C585 C 0.43626 0.1365 0.99657 0.0
C586 C 0.43503 0.13648 0.01733 0.0
C587 C 0.43326 0.11899 0.98547 0.0
C588 C 0.4288 0.10111 0.99488 0.0
C589 C 0.42743 0.10107 0.01563 0.0
C590 C 0.43063 0.11858 0.02677 0.0
C591 C 0.42595 0.08253 0.98301 0.0
C592 C 0.43953 0.07763 0.96836 0.0
C593 C 0.43718 0.06004 0.95701 0.0
C594 C 0.42071 0.04753 0.96022 0.0
C595 C 0.40717 0.05204 0.97503 0.0
C596 C 0.40993 0.06954 0.98643 0.0
C597 C 0.3908 0.03786 0.97916 0.0
C598 C 0.37909 0.02941 0.96357 0.0
C599 C 0.38761 0.03172 0.99863 0.0
C600 C 0.37358 0.01682 0.00233 0.0
C601 C 0.36228 0.00795 0.98667 0.0
C602 C 0.45254 0.05418 0.94271 0.0
C603 C 0.46222 0.06839 0.93116 0.0
C604 C 0.45816 0.03431 0.94107 0.0
C605 C 0.47317 0.02881 0.92839 0.0
C606 C 0.4832 0.04305 0.91719 0.0
C607 C 0.47742 0.0629 0.91859 0.0
C608 C 0.36487 0.01469 0.96731 0.0
H609 H 0.43979 0.15005 0.98891 0.0
H610 H 0.4343 0.11946 0.96949 0.0
H611 H 0.42416 0.08745 0.02326 0.0
H612 H 0.42946 0.11817 0.04274 0.0
H613 H 0.45238 0.08721 0.96639 0.0
H614 H 0.39942 0.07319 0.99775 0.0
H615 H 0.41864 0.03395 0.95152 0.0
H616 H 0.38116 0.03398 0.94845 0.0
H617 H 0.39652 0.03789 0.0109 0.0
H618 H 0.37178 0.01199 0.01742 0.0
H619 H 0.45812 0.0838 0.93187 0.0
H620 H 0.45127 0.02297 0.9499 0.0
H621 H 0.35646 0.00802 0.95494 0.0
H622 H 0.48487 0.0743 0.91028 0.0
H623 H 0.47691 0.01331 0.92742 0.0
Zn624 Zn 0.27296 0.84241 0.00457 0.0
Zn625 Zn 0.23927 0.86283 0.00628 0.0
O626 O 0.2397 0.84734 0.03275 0.0
O627 O 0.26848 0.83264 0.03198 0.0
O628 O 0.21471 0.87959 0.00698 0.0
O629 O 0.2888 0.86777 0.00147 0.0
O630 O 0.26128 0.88435 0.00411 0.0
C631 C 0.25271 0.83648 0.04087 0.0
C632 C 0.24516 0.83182 0.97301 0.0
O633 O 0.23513 0.84558 0.98081 0.0
O634 O 0.26161 0.82708 0.98074 0.0
C635 C 0.20044 0.87747 0.01876 0.0
O636 O 0.20081 0.86309 0.0316 0.0
C637 C 0.27998 0.88411 0.00214 0.0
Zn638 Zn 0.10233 0.44783 0.30544 0.0
Zn639 Zn 0.11757 0.48341 0.29593 0.0
O640 O 0.09864 0.49077 0.31846 0.0
O641 O 0.08559 0.46159 0.32537 0.0
O642 O 0.13038 0.50917 0.28765 0.0
O643 O 0.12938 0.43866 0.31365 0.0
O644 O 0.14182 0.46751 0.30484 0.0
C645 C 0.08674 0.48016 0.32839 0.0
C646 C 0.09382 0.45747 0.26513 0.0
O647 O 0.10331 0.47338 0.27017 0.0
O648 O 0.09165 0.44378 0.27751 0.0
C649 C 0.12368 0.52642 0.29049 0.0
O650 O 0.10691 0.52848 0.29968 0.0
C651 C 0.14417 0.45023 0.31169 0.0
Zn652 Zn 0.80395 0.60499 0.94279 0.0
Zn653 Zn 0.79723 0.62222 0.9782 0.0
O654 O 0.81844 0.602 0.98551 0.0
O655 O 0.8234 0.58735 0.95667 0.0
O656 O 0.79172 0.63634 0.00407 0.0
O657 O 0.81289 0.63109 0.93193 0.0
O658 O 0.80685 0.64522 0.96076 0.0
C659 C 0.82715 0.58902 0.97512 0.0
C660 C 0.76378 0.60002 0.95436 0.0
O661 O 0.77023 0.6093 0.96991 0.0
O662 O 0.77521 0.59667 0.94015 0.0
C663 C 0.78054 0.62902 0.01709 0.0
O664 O 0.77248 0.61131 0.01396 0.0
C665 C 0.81254 0.64647 0.94293 0.0
Zn666 Zn 0.84152 0.00018 0.26949 0.0
Zn667 Zn 0.86189 0.0027 0.23642 0.0
O668 O 0.84801 0.02985 0.23821 0.0
O669 O 0.83373 0.02861 0.26717 0.0
O670 O 0.87843 0.00438 0.2118 0.0
O671 O 0.86601 0.99342 0.28509 0.0
O672 O 0.88333 0.99826 0.25833 0.0
C673 C 0.83789 0.03801 0.25171 0.0
C674 C 0.82872 0.97102 0.24031 0.0
O675 O 0.84304 0.97843 0.23069 0.0
O676 O 0.82451 0.97829 0.25708 0.0
C677 C 0.87427 0.01502 0.19696 0.0
O678 O 0.85812 0.02548 0.19704 0.0
C679 C 0.88254 0.99423 0.2767 0.0
Zn680 Zn 0.29475 0.09675 0.45009 0.0
Zn681 Zn 0.28851 0.11199 0.48672 0.0
O682 O 0.30858 0.09029 0.49258 0.0
O683 O 0.31259 0.07679 0.463 0.0
O684 O 0.28427 0.12526 0.51329 0.0
O685 O 0.30617 0.12295 0.44135 0.0
O686 O 0.29921 0.13538 0.47069 0.0
C687 C 0.31643 0.0773 0.48149 0.0
C688 C 0.25406 0.09352 0.46161 0.0
O689 O 0.26097 0.10107 0.47787 0.0
O690 O 0.26533 0.09083 0.44711 0.0
C691 C 0.2716 0.11967 0.52576 0.0
O692 O 0.26047 0.10383 0.52176 0.0
C693 C 0.30589 0.13758 0.45335 0.0
Zn694 Zn 0.35087 0.49702 0.77583 0.0
Zn695 Zn 0.36978 0.50176 0.74189 0.0
O696 O 0.35252 0.52681 0.74369 0.0
O697 O 0.33661 0.52239 0.77143 0.0
O698 O 0.38529 0.50578 0.71687 0.0
O699 O 0.37648 0.49821 0.79133 0.0
O700 O 0.39234 0.5006 0.76332 0.0
C701 C 0.34023 0.53277 0.75645 0.0
C702 C 0.34332 0.46472 0.74823 0.0
O703 O 0.35415 0.47521 0.73707 0.0
O704 O 0.33986 0.47067 0.76569 0.0
C705 C 0.37995 0.49908 0.69978 0.0
O706 O 0.36317 0.48898 0.69765 0.0
C707 C 0.39256 0.49954 0.78219 0.0
Zn708 Zn 0.77249 0.3409 0.4997 0.0
Zn709 Zn 0.73993 0.36196 0.50409 0.0
O710 O 0.74136 0.34574 0.52994 0.0
O711 O 0.77019 0.33139 0.52759 0.0
O712 O 0.71576 0.37886 0.50746 0.0
O713 O 0.78834 0.36585 0.49453 0.0
O714 O 0.76218 0.38322 0.50163 0.0
C715 C 0.75483 0.33493 0.5373 0.0
C716 C 0.74285 0.33108 0.47006 0.0
O717 O 0.73406 0.3455 0.47825 0.0
O718 O 0.75924 0.32536 0.4771 0.0
C719 C 0.69852 0.37408 0.50077 0.0
O720 O 0.69569 0.35701 0.49133 0.0
C721 C 0.78038 0.38246 0.49719 0.0
Zn722 Zn 0.59749 0.95405 0.80309 0.0
Zn723 Zn 0.61262 0.98955 0.79198 0.0
O724 O 0.59371 0.99773 0.81402 0.0
O725 O 0.58158 0.96884 0.82328 0.0
O726 O 0.62581 0.01484 0.7829 0.0
O727 O 0.62463 0.94502 0.81093 0.0
O728 O 0.63682 0.97364 0.80117 0.0
C729 C 0.58248 0.98756 0.82506 0.0
C730 C 0.58879 0.96283 0.76225 0.0
O731 O 0.59807 0.97897 0.7668 0.0
O732 O 0.58682 0.94944 0.77501 0.0
C733 C 0.62138 0.03245 0.78775 0.0
O734 O 0.60661 0.03544 0.79967 0.0
C735 C 0.63934 0.95654 0.80841 0.0
Zn736 Zn 0.00171 0.28058 0.8422 0.0
Zn737 Zn 0.00679 0.24732 0.86186 0.0
O738 O 0.03175 0.24904 0.84442 0.0
O739 O 0.02764 0.27714 0.82892 0.0
O740 O 0.01104 0.2229 0.87832 0.0
O741 O 0.00065 0.2966 0.86728 0.0
O742 O 0.00508 0.26923 0.88385 0.0
C743 C 0.03788 0.26207 0.83239 0.0
C744 C 0.96997 0.25234 0.83482 0.0
O745 O 0.98013 0.24168 0.84651 0.0
O746 O 0.97621 0.26948 0.83043 0.0
C747 C 0.00664 0.20526 0.87257 0.0
O748 O 0.99906 0.20211 0.85465 0.0
C749 C 0.00246 0.28789 0.88363 0.0
Zn750 Zn 0.4998 0.77593 0.3413 0.0
Zn751 Zn 0.5038 0.74088 0.35855 0.0
O752 O 0.5281 0.74236 0.34022 0.0
O753 O 0.52417 0.77101 0.32569 0.0
O754 O 0.50756 0.71568 0.37391 0.0
O755 O 0.5026 0.79062 0.36733 0.0
O756 O 0.50386 0.76163 0.38164 0.0
C757 C 0.53398 0.75545 0.32813 0.0
C758 C 0.46616 0.74939 0.33419 0.0
O759 O 0.47661 0.73724 0.34394 0.0
O760 O 0.47268 0.76681 0.33132 0.0
C761 C 0.50073 0.69853 0.36903 0.0
O762 O 0.49054 0.69606 0.35231 0.0
C763 C 0.50369 0.7805 0.38289 0.0
Zn764 Zn 0.95511 0.79594 0.60723 0.0
Zn765 Zn 0.99073 0.78946 0.6242 0.0
O766 O 0.99775 0.80899 0.60222 0.0
O767 O 0.96889 0.81275 0.58706 0.0
O768 O 0.01686 0.78449 0.63803 0.0
O769 O 0.94596 0.80855 0.63264 0.0
O770 O 0.9744 0.80109 0.64689 0.0
C771 C 0.98733 0.81648 0.58838 0.0
C772 C 0.9655 0.755 0.60575 0.0
O773 O 0.98159 0.76183 0.6137 0.0
O774 O 0.95133 0.76647 0.60214 0.0
C775 C 0.02976 0.77308 0.63098 0.0
O776 O 0.02629 0.76424 0.61369 0.0
C777 C 0.95722 0.80838 0.6479 0.0
Zn778 Zn 0.4523 0.3051 0.10356 0.0
Zn779 Zn 0.48579 0.29162 0.12036 0.0
O780 O 0.49592 0.31427 0.10283 0.0
O781 O 0.46834 0.32641 0.09051 0.0
O782 O 0.51052 0.28267 0.13452 0.0
O783 O 0.4411 0.31078 0.13034 0.0
O784 O 0.46868 0.30001 0.14389 0.0
C785 C 0.48703 0.32691 0.09223 0.0
C786 C 0.46016 0.26427 0.09311 0.0
O787 O 0.47526 0.26707 0.10458 0.0
O788 O 0.44823 0.2782 0.09016 0.0
C789 C 0.52334 0.2714 0.12711 0.0
O790 O 0.52077 0.26467 0.10881 0.0
C791 C 0.45154 0.30725 0.14564 0.0
H792 H 0.21547 0.7467 0.87887 0.0
H793 H 0.22422 0.8472 0.94185 0.0
H794 H 0.22651 0.80284 0.85083 0.0
H795 H 0.2506 0.79336 0.96207 0.0
H796 H 0.2159 0.83051 0.90986 0.0
H797 H 0.21973 0.76328 0.91118 0.0
C798 C 0.21884 0.76244 0.87935 0.0
C799 C 0.22088 0.77322 0.86183 0.0
C800 C 0.22334 0.82238 0.92143 0.0
C801 C 0.22488 0.79237 0.899 0.0
C802 C 0.22796 0.83181 0.93965 0.0
C803 C 0.23818 0.82163 0.95452 0.0
C804 C 0.2285 0.80255 0.91836 0.0
C805 C 0.24284 0.80175 0.95091 0.0
C806 C 0.22107 0.77189 0.89787 0.0
C807 C 0.22453 0.79381 0.86373 0.0
N808 N 0.23789 0.79281 0.93323 0.0
N809 N 0.22637 0.8027 0.88196 0.0
H810 H 0.99341 0.49794 0.41056 0.0
H811 H 0.08749 0.51851 0.34357 0.0
H812 H 0.0308 0.55026 0.41898 0.0
H813 H 0.05642 0.46215 0.34732 0.0
H814 H 0.06558 0.53216 0.36879 0.0
H815 H 0.01501 0.48637 0.38477 0.0
C816 C 0.00629 0.50695 0.40712 0.0
C817 C 0.01044 0.52497 0.41722 0.0
C818 C 0.06365 0.51682 0.36403 0.0
C819 C 0.03521 0.51189 0.38725 0.0
C820 C 0.07609 0.50904 0.34964 0.0
C821 C 0.07384 0.48914 0.34336 0.0
C822 C 0.0488 0.50462 0.37195 0.0
C823 C 0.05883 0.47754 0.35172 0.0
C824 C 0.01859 0.50037 0.39226 0.0
C825 C 0.02703 0.53628 0.41157 0.0
N826 N 0.04692 0.48545 0.3655 0.0
N827 N 0.03887 0.52952 0.39698 0.0
H828 H 0.84539 0.76983 0.92188 0.0
H829 H 0.81946 0.65474 0.90429 0.0
H830 H 0.82418 0.74428 0.86608 0.0
H831 H 0.8183 0.68244 0.96247 0.0
H832 H 0.82714 0.68685 0.89022 0.0
H833 H 0.84125 0.73718 0.93716 0.0
C834 C 0.84003 0.7573 0.91286 0.0
C835 C 0.83499 0.75966 0.89277 0.0
C836 C 0.82525 0.68592 0.90608 0.0
C837 C 0.83039 0.72257 0.90995 0.0
C838 C 0.82092 0.66756 0.91416 0.0
C839 C 0.8181 0.66589 0.9346 0.0
C840 C 0.82697 0.70279 0.91849 0.0
C841 C 0.82023 0.68308 0.94661 0.0
C842 C 0.83757 0.73878 0.92157 0.0
C843 C 0.82803 0.74307 0.88168 0.0
N844 N 0.82455 0.70087 0.93837 0.0
N845 N 0.82598 0.72523 0.8904 0.0
H846 H 0.96366 0.95616 0.36775 0.0
H847 H 0.92112 0.00496 0.26884 0.0
H848 H 0.99574 0.00225 0.33772 0.0
H849 H 0.88531 0.97494 0.31162 0.0
H850 H 0.9505 -0.00015 0.29025 0.0
H851 H 0.93674 0.95847 0.34336 0.0
C852 C 0.96504 0.96683 0.35606 0.0
C853 C 0.98186 0.97931 0.35505 0.0
C854 C 0.93618 0.99435 0.29483 0.0
C855 C 0.95109 0.98178 0.32677 0.0
C856 C 0.91946 0.99718 0.28262 0.0
C857 C 0.90073 0.99049 0.28854 0.0
C858 C 0.93411 0.98448 0.31284 0.0
C859 C 0.89941 0.98053 0.30654 0.0
C860 C 0.94968 0.96807 0.34206 0.0
C861 C 0.98305 0.99236 0.3391 0.0
N862 N 0.91584 0.97782 0.318 0.0
N863 N 0.96778 0.99336 0.32562 0.0
H864 H 0.22657 0.17085 0.63417 0.0
H865 H 0.2925 0.15282 0.53868 0.0
H866 H 0.27499 0.20941 0.6177 0.0
H867 H 0.24439 0.11366 0.55475 0.0
H868 H 0.28694 0.17301 0.56829 0.0
H869 H 0.23335 0.14915 0.6058 0.0
C870 C 0.23862 0.17477 0.62459 0.0
C871 C 0.25021 0.19203 0.62834 0.0
C872 C 0.27762 0.15997 0.5654 0.0
C873 C 0.25813 0.16715 0.59589 0.0
C874 C 0.28079 0.14841 0.54847 0.0
C875 C 0.26885 0.13152 0.54416 0.0
C876 C 0.26235 0.15469 0.57817 0.0
C877 C 0.25394 0.12655 0.55745 0.0
C878 C 0.24254 0.16232 0.60845 0.0
C879 C 0.26581 0.19617 0.61557 0.0
N880 N 0.25107 0.13812 0.57382 0.0
N881 N 0.26925 0.18388 0.59991 0.0
H882 H 0.47335 0.53641 0.62184 0.0
H883 H 0.37468 0.48437 0.66179 0.0
H884 H 0.43719 0.49446 0.58721 0.0
H885 H 0.41453 0.52101 0.69842 0.0
H886 H 0.3964 0.48931 0.63377 0.0
H887 H 0.45091 0.53248 0.64945 0.0
C888 C 0.46061 0.52646 0.61998 0.0
C889 C 0.45717 0.51574 0.60215 0.0
C890 C 0.40038 0.49628 0.64793 0.0
C891 C 0.43146 0.51104 0.63381 0.0
C892 C 0.38796 0.4935 0.66395 0.0
C893 C 0.39278 0.50226 0.68254 0.0
C894 C 0.41774 0.50799 0.65045 0.0
C895 C 0.41022 0.51393 0.68441 0.0
C896 C 0.44787 0.52413 0.63581 0.0
C897 C 0.44057 0.50285 0.60074 0.0
N898 N 0.42205 0.51645 0.66858 0.0
N899 N 0.42833 0.50089 0.61633 0.0
H900 H 0.78058 0.2851 0.65138 0.0
H901 H 0.72088 0.32617 0.55756 0.0
H902 H 0.72063 0.26567 0.63699 0.0
H903 H 0.78457 0.32388 0.56216 0.0
H904 H 0.71886 0.30949 0.58965 0.0
H905 H 0.78045 0.30527 0.62175 0.0
C906 C 0.76729 0.28528 0.6421 0.0
C907 C 0.75059 0.27367 0.64664 0.0
C908 C 0.73323 0.31277 0.5836 0.0
C909 C 0.7504 0.29666 0.61257 0.0
C910 C 0.7344 0.32235 0.5654 0.0
C911 C 0.75292 0.32628 0.55716 0.0
C912 C 0.75072 0.30751 0.59369 0.0
C913 C 0.76998 0.32097 0.56787 0.0
C914 C 0.76728 0.29668 0.62511 0.0
C915 C 0.73387 0.27427 0.63391 0.0
N916 N 0.76846 0.31192 0.58556 0.0
N917 N 0.73417 0.28559 0.61741 0.0
H918 H 0.54062 0.91335 0.65158 0.0
H919 H 0.57943 0.99098 0.73506 0.0
H920 H 0.52005 0.97332 0.65483 0.0
H921 H 0.57749 0.92781 0.74396 0.0
H922 H 0.5628 0.98555 0.70264 0.0
H923 H 0.55947 0.91927 0.68271 0.0
C924 C 0.5402 0.92779 0.65881 0.0
C925 C 0.52876 0.94286 0.65074 0.0
C926 C 0.56609 0.97291 0.71171 0.0
C927 C 0.55028 0.94975 0.68612 0.0
C928 C 0.57565 0.97597 0.73013 0.0
C929 C 0.57975 0.95982 0.74224 0.0
C930 C 0.56094 0.95355 0.70525 0.0
C931 C 0.57447 0.94069 0.73515 0.0
C932 C 0.55085 0.93112 0.67657 0.0
C933 C 0.52858 0.96128 0.66071 0.0
N934 N 0.5654 0.93808 0.71709 0.0
N935 N 0.53926 0.96425 0.67788 0.0
H936 H 0.87101 0.19379 0.77202 0.0
H937 H 0.93933 0.27555 0.82482 0.0
H938 H 0.84786 0.24624 0.79992 0.0
H939 H 0.95555 0.21417 0.82754 0.0
H940 H 0.90677 0.26532 0.81173 0.0
H941 H 0.90293 0.20071 0.78911 0.0
C942 C 0.87248 0.2066 0.78187 0.0
C943 C 0.85669 0.21963 0.78422 0.0
C944 C 0.91739 0.25405 0.81526 0.0
C945 C 0.89328 0.22775 0.80339 0.0
C946 C 0.93604 0.25987 0.82261 0.0
C947 C 0.9502 0.24568 0.8272 0.0
C948 C 0.91285 0.23387 0.81204 0.0
C949 C 0.94502 0.22556 0.8242 0.0
C950 C 0.89074 0.21054 0.79156 0.0
C951 C 0.85967 0.23609 0.79709 0.0
N952 N 0.92676 0.22021 0.81655 0.0
N953 N 0.87763 0.2398 0.80594 0.0
H954 H 0.5151 0.86932 0.47617 0.0
H955 H 0.49351 0.76586 0.41911 0.0
H956 H 0.47479 0.82488 0.49813 0.0
H957 H 0.51493 0.81881 0.391 0.0
H958 H 0.49207 0.7846 0.45062 0.0
H959 H 0.52094 0.84799 0.44738 0.0
C960 C 0.50769 0.85494 0.47507 0.0
C961 C 0.4944 0.84888 0.48954 0.0
C962 C 0.49719 0.79201 0.43754 0.0
C963 C 0.50089 0.82446 0.4565 0.0
C964 C 0.49811 0.78133 0.41962 0.0
C965 C 0.50421 0.79085 0.4024 0.0
C966 C 0.50274 0.8122 0.43824 0.0
C967 C 0.50995 0.81094 0.40386 0.0
C968 C 0.51092 0.84284 0.45856 0.0
C969 C 0.485 0.83018 0.48719 0.0
N970 N 0.50908 0.82092 0.42145 0.0
N971 N 0.4884 0.81861 0.47095 0.0
H972 H 0.13733 0.22381 0.76322 0.0
H973 H 0.06044 0.29182 0.81767 0.0
H974 H 0.14904 0.28536 0.77853 0.0
H975 H 0.0592 0.22841 0.82487 0.0
H976 H 0.09159 0.28931 0.80059 0.0
H977 H 0.10738 0.22465 0.7832 0.0
C978 C 0.13362 0.23745 0.77083 0.0
C979 C 0.14567 0.25455 0.76923 0.0
C980 C 0.0846 0.27592 0.80597 0.0
C981 C 0.11152 0.25563 0.79185 0.0
C982 C 0.06674 0.27732 0.81565 0.0
C983 C 0.05716 0.26028 0.82266 0.0
C984 C 0.09292 0.2573 0.8029 0.0
C985 C 0.06614 0.24192 0.81973 0.0
C986 C 0.11664 0.23788 0.78229 0.0
C987 C 0.14029 0.27179 0.7795 0.0
N988 N 0.08347 0.24087 0.80986 0.0
N989 N 0.12355 0.27194 0.79019 0.0
H990 H 0.53037 0.6262 0.46972 0.0
H991 H 0.48783 0.65984 0.3639 0.0
H992 H 0.49895 0.58652 0.42844 0.0
H993 H 0.52018 0.69886 0.40515 0.0
H994 H 0.49205 0.63267 0.38703 0.0
H995 H 0.52686 0.65291 0.44608 0.0
C996 C 0.52264 0.62311 0.45573 0.0
C997 C 0.51489 0.60405 0.45113 0.0
C998 C 0.49826 0.64717 0.39099 0.0
C999 C 0.51098 0.63462 0.42381 0.0
C1000 C 0.49586 0.6627 0.37778 0.0
C1001 C 0.50363 0.6817 0.38257 0.0
C1002 C 0.50847 0.65064 0.40916 0.0
C1003 C 0.51391 0.68449 0.40079 0.0
C1004 C 0.52074 0.63836 0.44216 0.0
C1005 C 0.50534 0.6009 0.43256 0.0
N1006 N 0.51599 0.66917 0.4134 0.0
N1007 N 0.50361 0.61602 0.41963 0.0
H1008 H 0.92279 0.82054 0.76956 0.0
H1009 H 0.92687 0.83366 0.65337 0.0
H1010 H 0.89349 0.86767 0.73892 0.0
H1011 H 0.97128 0.80146 0.68564 0.0
H1012 H 0.91392 0.84553 0.68474 0.0
H1013 H 0.94074 0.81293 0.73941 0.0
C1014 C 0.92035 0.82952 0.75664 0.0
C1015 C 0.90638 0.84464 0.75677 0.0
C1016 C 0.92661 0.83601 0.68499 0.0
C1017 C 0.92657 0.83567 0.7221 0.0
C1018 C 0.93395 0.82914 0.66708 0.0
C1019 C 0.9501 0.81646 0.66689 0.0
C1020 C 0.93525 0.82991 0.70292 0.0
C1021 C 0.95878 0.81121 0.68512 0.0
C1022 C 0.93054 0.82508 0.73939 0.0
C1023 C 0.90371 0.85557 0.73943 0.0
N1024 N 0.95109 0.81778 0.70244 0.0
N1025 N 0.91351 0.85072 0.72276 0.0
H1026 H 0.00801 0.88681 0.48539 0.0
H1027 H 0.02504 0.8329 0.58889 0.0
H1028 H 0.05817 0.90056 0.52441 0.0
H1029 H 0.97051 0.82985 0.55419 0.0
H1030 H 0.0392 0.85513 0.56429 0.0
H1031 H 0.99599 0.86298 0.50916 0.0
C1032 C 0.01663 0.88466 0.49888 0.0
C1033 C 0.03416 0.89567 0.50288 0.0
C1034 C 0.02414 0.84954 0.56211 0.0
C1035 C 0.02028 0.86852 0.53041 0.0
C1036 C 0.01608 0.83684 0.57611 0.0
C1037 C 0.99652 0.82956 0.57365 0.0
C1038 C 0.01262 0.85482 0.5455 0.0
C1039 C 0.98559 0.83516 0.5568 0.0
C1040 C 0.00966 0.87114 0.51255 0.0
C1041 C 0.04449 0.89249 0.52082 0.0
N1042 N 0.99379 0.8474 0.54341 0.0
N1043 N 0.0374 0.87918 0.53395 0.0
H1044 H 0.14084 0.72686 0.67517 0.0
H1045 H 0.04176 0.78946 0.66682 0.0
H1046 H 0.12277 0.76911 0.71964 0.0
H1047 H 0.05977 0.74814 0.62145 0.0
H1048 H 0.07173 0.78249 0.68603 0.0
H1049 H 0.1115 0.73457 0.65505 0.0
C1050 C 0.13069 0.73772 0.68073 0.0
C1051 C 0.1343 0.74735 0.69914 0.0
C1052 C 0.06918 0.77496 0.67186 0.0
C1053 C 0.10076 0.75635 0.67611 0.0
C1054 C 0.05204 0.77894 0.66085 0.0
C1055 C 0.0482 0.76934 0.64248 0.0
C1056 C 0.08263 0.76123 0.6645 0.0
C1057 C 0.0621 0.75588 0.63553 0.0
C1058 C 0.114 0.74219 0.66919 0.0
C1059 C 0.12076 0.7615 0.70544 0.0
N1060 N 0.07867 0.75219 0.64657 0.0
N1061 N 0.1046 0.76551 0.69399 0.0
H1062 H 0.92132 0.6409 0.56151 0.0
H1063 H 0.99506 0.7284 0.60033 0.0
H1064 H 0.98284 0.64468 0.54612 0.0
H1065 H 0.93155 0.73363 0.59688 0.0
H1066 H 0.99148 0.69454 0.58673 0.0
H1067 H 0.92565 0.67185 0.58085 0.0
C1068 C 0.93579 0.64814 0.56242 0.0
C1069 C 0.95172 0.64035 0.5521 0.0
C1070 C 0.97835 0.70309 0.58912 0.0
C1071 C 0.95677 0.67564 0.57414 0.0
C1072 C 0.98036 0.72235 0.59696 0.0
C1073 C 0.96358 0.7339 0.59957 0.0
C1074 C 0.95942 0.69527 0.58412 0.0
C1075 C 0.9449 0.72532 0.59492 0.0
C1076 C 0.93822 0.66582 0.57334 0.0
C1077 C 0.97013 0.65036 0.55365 0.0
N1078 N 0.94332 0.70654 0.58738 0.0
N1079 N 0.97215 0.66753 0.56444 0.0
H1080 H 0.79155 0.85871 0.18439 0.0
H1081 H 0.79418 0.95589 0.25426 0.0
H1082 H 0.74896 0.87128 0.22934 0.0
H1083 H 0.83718 0.94583 0.20907 0.0
H1084 H 0.77666 0.92558 0.24369 0.0
H1085 H 0.8079 0.89086 0.19187 0.0
C1086 C 0.78562 0.8682 0.19581 0.0
C1087 C 0.76881 0.86223 0.20624 0.0
C1088 C 0.78986 0.92997 0.23597 0.0
C1089 C 0.78738 0.89909 0.21475 0.0
C1090 C 0.79992 0.94734 0.24201 0.0
C1091 C 0.81729 0.95339 0.23263 0.0
C1092 C 0.79721 0.91834 0.22046 0.0
C1093 C 0.82386 0.94172 0.21674 0.0
C1094 C 0.7949 0.8866 0.19998 0.0
C1095 C 0.76167 0.8753 0.22069 0.0
N1096 N 0.81389 0.92464 0.21124 0.0
N1097 N 0.77101 0.893 0.22454 0.0
H1098 H 0.79132 0.15341 0.27618 0.0
H1099 H 0.82986 0.0582 0.21744 0.0
H1100 H 0.77136 0.13844 0.21641 0.0
H1101 H 0.82898 0.06399 0.28121 0.0
H1102 H 0.81456 0.09087 0.21498 0.0
H1103 H 0.81173 0.12404 0.27617 0.0
C1104 C 0.79147 0.14411 0.26292 0.0
C1105 C 0.77956 0.14835 0.24629 0.0
C1106 C 0.81789 0.08498 0.22947 0.0
C1107 C 0.80279 0.11455 0.24627 0.0
C1108 C 0.82669 0.06644 0.23088 0.0
C1109 C 0.83052 0.05833 0.24956 0.0
C1110 C 0.81331 0.09554 0.24685 0.0
C1111 C 0.82608 0.06958 0.26652 0.0
C1112 C 0.80301 0.12726 0.26299 0.0
C1113 C 0.78016 0.13558 0.22963 0.0
N1114 N 0.81774 0.08757 0.26475 0.0
N1115 N 0.79155 0.1192 0.23004 0.0
H1116 H 0.32413 0.00131 0.97278 0.0
H1117 H 0.31979 0.88961 0.00799 0.0
H1118 H 0.3702 0.97536 0.00847 0.0
H1119 H 0.26676 0.92123 0.99329 0.0
H1120 H 0.33909 0.92035 0.00534 0.0
H1121 H 0.30327 0.97157 0.97742 0.0
C1122 C 0.32979 0.98939 0.98165 0.0
C1123 C 0.34888 0.99078 0.99029 0.0
C1124 C 0.32322 0.9206 0.00278 0.0
C1125 C 0.3253 0.9568 0.99547 0.0
C1126 C 0.31219 0.90303 0.00418 0.0
C1127 C 0.29162 0.90284 0.00082 0.0
C1128 C 0.31371 0.93812 0.99766 0.0
C1129 C 0.28258 0.92073 0.99605 0.0
C1130 C 0.31788 0.97251 0.98436 0.0
C1131 C 0.3555 0.97498 0.00173 0.0
N1132 N 0.29372 0.93765 0.99445 0.0
N1133 N 0.3438 0.95859 0.00383 0.0
H1134 H 0.24075 0.38876 0.36653 0.0
H1135 H 0.18039 0.465 0.30053 0.0
H1136 H 0.26543 0.41586 0.3149 0.0
H1137 H 0.15321 0.42026 0.33653 0.0
H1138 H 0.21307 0.45239 0.30995 0.0
H1139 H 0.20995 0.40595 0.36022 0.0
C1140 C 0.23974 0.39838 0.35389 0.0
C1141 C 0.25562 0.40057 0.34102 0.0
C1142 C 0.1999 0.44546 0.31581 0.0
C1143 C 0.22042 0.42053 0.3339 0.0
C1144 C 0.1813 0.45264 0.3105 0.0
C1145 C 0.16407 0.44355 0.31764 0.0
C1146 C 0.20121 0.42935 0.32862 0.0
C1147 C 0.16608 0.42759 0.33051 0.0
C1148 C 0.22216 0.40823 0.35035 0.0
C1149 C 0.25361 0.41373 0.32523 0.0
N1150 N 0.18429 0.42103 0.3356 0.0
N1151 N 0.23625 0.42312 0.32202 0.0
H1152 H 0.13917 0.05124 0.41772 0.0
H1153 H 0.22842 0.08526 0.4914 0.0
H1154 H 0.14609 0.02918 0.47715 0.0
H1155 H 0.2321 0.08633 0.42764 0.0
H1156 H 0.19482 0.07097 0.48772 0.0
H1157 H 0.17016 0.0702 0.42253 0.0
C1158 C 0.14715 0.05033 0.43177 0.0
C1159 C 0.14 0.03835 0.44696 0.0
C1160 C 0.20297 0.0745 0.47457 0.0
C1161 C 0.17529 0.06047 0.45267 0.0
C1162 C 0.22208 0.08273 0.47665 0.0
C1163 C 0.23312 0.08682 0.4598 0.0
C1164 C 0.19479 0.07064 0.45552 0.0
C1165 C 0.22419 0.08322 0.44103 0.0
C1166 C 0.16478 0.06128 0.43452 0.0
C1167 C 0.1508 0.03831 0.46505 0.0
N1168 N 0.20556 0.07531 0.4394 0.0
N1169 N 0.16792 0.04914 0.46737 0.0
H1170 H 0.67661 0.14787 0.77053 0.0
H1171 H 0.65217 0.03137 0.7622 0.0
H1172 H 0.7092 0.10684 0.73473 0.0
H1173 H 0.61794 0.07207 0.79678 0.0
H1174 H 0.67256 0.05913 0.75132 0.0
H1175 H 0.65423 0.12069 0.77948 0.0
C1176 C 0.67897 0.13319 0.76441 0.0
C1177 C 0.6949 0.12964 0.75192 0.0
C1178 C 0.66056 0.06204 0.76124 0.0
C1179 C 0.66944 0.0984 0.76229 0.0
C1180 C 0.64889 0.04616 0.76748 0.0
C1181 C 0.63334 0.04936 0.7805 0.0
C1182 C 0.65675 0.08132 0.76808 0.0
C1183 C 0.62979 0.06889 0.78677 0.0
C1184 C 0.66625 0.11765 0.76962 0.0
C1185 C 0.69735 0.11024 0.74466 0.0
N1186 N 0.64145 0.08413 0.78056 0.0
N1187 N 0.68481 0.09538 0.74999 0.0
H1188 H 0.39984 0.01335 0.55485 0.0
H1189 H 0.33218 0.04543 0.46264 0.0
H1190 H 0.39233 0.97918 0.50034 0.0
H1191 H 0.3318 0.07569 0.51959 0.0
H1192 H 0.35495 0.02158 0.47632 0.0
H1193 H 0.37542 0.03667 0.54248 0.0
C1194 C 0.39297 0.01066 0.54036 0.0
C1195 C 0.39827 0.99433 0.52857 0.0
C1196 C 0.34988 0.03339 0.48588 0.0
C1197 C 0.37052 0.02108 0.51426 0.0
C1198 C 0.33688 0.04708 0.47806 0.0
C1199 C 0.33008 0.06265 0.48996 0.0
C1200 C 0.3563 0.03525 0.50578 0.0
C1201 C 0.33666 0.06393 0.50987 0.0
C1202 C 0.3791 0.02403 0.53328 0.0
C1203 C 0.38903 0.99174 0.50981 0.0
N1204 N 0.34948 0.05044 0.51715 0.0
N1205 N 0.37569 0.00499 0.50324 0.0
H1206 H 0.62473 0.47259 0.53289 0.0
H1207 H 0.66055 0.36996 0.48579 0.0
H1208 H 0.58877 0.43605 0.49239 0.0
H1209 H 0.69861 0.4097 0.52105 0.0
H1210 H 0.6336 0.39322 0.48928 0.0
H1211 H 0.65143 0.44895 0.53002 0.0
C1212 C 0.6224 0.45954 0.52347 0.0
C1213 C 0.60445 0.45632 0.51287 0.0
C1214 C 0.64785 0.39685 0.49627 0.0
C1215 C 0.63506 0.4292 0.50941 0.0
C1216 C 0.66325 0.38355 0.49431 0.0
C1217 C 0.68192 0.38787 0.50312 0.0
C1218 C 0.65106 0.41461 0.50718 0.0
C1219 C 0.6845 0.40574 0.51397 0.0
C1220 C 0.63771 0.4461 0.52175 0.0
C1221 C 0.60242 0.43927 0.50066 0.0
N1222 N 0.66926 0.41843 0.5157 0.0
N1223 N 0.6175 0.42635 0.4993 0.0
H1224 H 0.70867 0.24692 0.37661 0.0
H1225 H 0.72141 0.34744 0.43972 0.0
H1226 H 0.71881 0.30321 0.34859 0.0
H1227 H 0.74577 0.29234 0.45909 0.0
H1228 H 0.71126 0.33111 0.40801 0.0
H1229 H 0.71351 0.26338 0.40892 0.0
C1230 C 0.71193 0.26269 0.37712 0.0
C1231 C 0.71363 0.27354 0.35961 0.0
C1232 C 0.71864 0.32262 0.41935 0.0
C1233 C 0.71837 0.29254 0.39678 0.0
C1234 C 0.72431 0.33185 0.43742 0.0
C1235 C 0.73453 0.32121 0.45192 0.0
C1236 C 0.7228 0.30255 0.4161 0.0
C1237 C 0.73806 0.30109 0.4482 0.0
C1238 C 0.71451 0.27207 0.39563 0.0
C1239 C 0.71716 0.29414 0.36151 0.0
N1240 N 0.73216 0.29239 0.43067 0.0
N1241 N 0.71943 0.30296 0.37975 0.0
H1242 H 0.49279 0.05707 0.8804 0.0
H1243 H 0.56789 0.97163 0.85853 0.0
H1244 H 0.51148 0.01548 0.9246 0.0
H1245 H 0.56865 0.02556 0.82519 0.0
H1246 H 0.54544 0.98677 0.88182 0.0
H1247 H 0.51901 0.04544 0.85893 0.0
C1248 C 0.50248 0.04566 0.88571 0.0
C1249 C 0.49968 0.03707 0.90429 0.0
C1250 C 0.55063 0.99538 0.86951 0.0
C1251 C 0.52945 0.02352 0.87963 0.0
C1252 C 0.56338 0.98672 0.85617 0.0
C1253 C 0.57007 0.99734 0.83988 0.0
C1254 C 0.54416 0.01471 0.86639 0.0
C1255 C 0.56385 0.0169 0.83761 0.0
C1256 C 0.5174 0.03901 0.8734 0.0
C1257 C 0.51264 0.02219 0.91022 0.0
N1258 N 0.55101 0.02491 0.8506 0.0
N1259 N 0.52678 0.01577 0.89787 0.0
H1260 H 0.3561 0.23436 0.38756 0.0
H1261 H 0.30065 0.17372 0.47152 0.0
H1262 H 0.31552 0.26092 0.42809 0.0
H1263 H 0.32728 0.14635 0.42064 0.0
H1264 H 0.31095 0.20627 0.45949 0.0
H1265 H 0.35092 0.20249 0.40358 0.0
C1266 C 0.34636 0.23354 0.40005 0.0
C1267 C 0.33612 0.25024 0.40645 0.0
C1268 C 0.31462 0.19311 0.45104 0.0
C1269 C 0.32998 0.21387 0.42469 0.0
C1270 C 0.30879 0.17454 0.45791 0.0
C1271 C 0.31296 0.1573 0.44697 0.0
C1272 C 0.32487 0.19442 0.43323 0.0
C1273 C 0.32357 0.15925 0.42945 0.0
C1274 C 0.34328 0.21534 0.40907 0.0
C1275 C 0.3235 0.24832 0.42256 0.0
N1276 N 0.32912 0.17747 0.42311 0.0
N1277 N 0.32072 0.23043 0.43109 0.0
H1278 H 0.4781 0.50983 0.87826 0.0
H1279 H 0.42999 0.49048 0.76985 0.0
H1280 H 0.50633 0.47378 0.83414 0.0
H1281 H 0.39792 0.50947 0.82113 0.0
H1282 H 0.46031 0.48935 0.79077 0.0
H1283 H 0.45093 0.51525 0.85482 0.0
C1284 C 0.47858 0.50303 0.86361 0.0
C1285 C 0.49434 0.491 0.8583 0.0
C1286 C 0.44662 0.49385 0.79732 0.0
C1287 C 0.46325 0.49734 0.83122 0.0
C1288 C 0.42937 0.49457 0.78542 0.0
C1289 C 0.41139 0.49991 0.79381 0.0
C1290 C 0.44583 0.49884 0.81761 0.0
C1291 C 0.41139 0.50505 0.81406 0.0
C1292 C 0.46308 0.5062 0.8502 0.0
C1293 C 0.49444 0.4831 0.83887 0.0
N1294 N 0.42829 0.50438 0.82521 0.0
N1295 N 0.47901 0.48627 0.82604 0.0
H1296 H 0.7297 0.67354 0.12561 0.0
H1297 H 0.7954 0.66565 0.0286 0.0
H1298 H 0.7717 0.7187 0.10831 0.0
H1299 H 0.75543 0.61905 0.04684 0.0
H1300 H 0.78707 0.68508 0.05798 0.0
H1301 H 0.73892 0.65324 0.097 0.0
C1302 C 0.74083 0.67921 0.11578 0.0
C1303 C 0.74994 0.69787 0.1194 0.0
C1304 C 0.78015 0.67058 0.0556 0.0
C1305 C 0.76065 0.67465 0.08666 0.0
C1306 C 0.7849 0.65946 0.0388 0.0
C1307 C 0.77608 0.64068 0.0352 0.0
C1308 C 0.76641 0.66294 0.06893 0.0
C1309 C 0.7626 0.63345 0.049 0.0
C1310 C 0.74616 0.66756 0.0995 0.0
C1311 C 0.76446 0.70432 0.10629 0.0
N1312 N 0.75813 0.64461 0.06521 0.0
N1313 N 0.76931 0.69277 0.09051 0.0
H1314 H 0.96987 0.99714 0.11551 0.0
H1315 H 0.87166 0.03853 0.16433 0.0
H1316 H 0.93769 0.04658 0.09256 0.0
H1317 H 0.90783 0.99381 0.19095 0.0
H1318 H 0.89463 0.04046 0.13695 0.0
H1319 H 0.94619 0.99442 0.1422 0.0
C1320 C 0.95774 0.00735 0.116 0.0
C1321 C 0.95578 0.02211 0.10174 0.0
C1322 C 0.89753 0.03022 0.14877 0.0
C1323 C 0.92865 0.01917 0.13241 0.0
C1324 C 0.8844 0.02907 0.16441 0.0
C1325 C 0.88782 0.01601 0.18002 0.0
C1326 C 0.9142 0.01815 0.14865 0.0
C1327 C 0.9046 0.00413 0.17928 0.0
C1328 C 0.94429 0.00586 0.13133 0.0
C1329 C 0.93993 0.03511 0.10334 0.0
N1330 N 0.91714 0.00549 0.16388 0.0
N1331 N 0.92697 0.03332 0.11835 0.0
H1332 H 0.21309 0.76523 0.13825 0.0
H1333 H 0.2814 0.82797 0.06784 0.0
H1334 H 0.27122 0.78794 0.15568 0.0
H1335 H 0.21795 0.82597 0.05907 0.0
H1336 H 0.27769 0.81178 0.09949 0.0
H1337 H 0.21413 0.78578 0.10855 0.0
C1338 C 0.22599 0.77461 0.13589 0.0
C1339 C 0.2421 0.77486 0.14946 0.0
C1340 C 0.26452 0.815 0.09079 0.0
C1341 C 0.24341 0.7982 0.11561 0.0
C1342 C 0.26663 0.82419 0.07266 0.0
C1343 C 0.24995 0.82823 0.06078 0.0
C1344 C 0.2456 0.8094 0.09704 0.0
C1345 C 0.23118 0.82314 0.06784 0.0
C1346 C 0.22651 0.7864 0.11904 0.0
C1347 C 0.25838 0.7874 0.14577 0.0
N1348 N 0.22949 0.81371 0.08545 0.0
N1349 N 0.25869 0.79838 0.12913 0.0
H1350 H 0.01133 0.42702 0.16966 0.0
H1351 H 0.09896 0.48082 0.23257 0.0
H1352 H 0.05538 0.46414 0.14252 0.0
H1353 H 0.06694 0.42904 0.2523 0.0
H1354 H 0.08169 0.47728 0.20025 0.0
H1355 H 0.02986 0.43016 0.20116 0.0
C1356 C 0.02489 0.43589 0.17039 0.0
C1357 C 0.03185 0.44535 0.15352 0.0
C1358 C 0.07858 0.46666 0.21166 0.0
C1359 C 0.05313 0.44902 0.18946 0.0
C1360 C 0.08838 0.46869 0.2301 0.0
C1361 C 0.08438 0.45521 0.24518 0.0
C1362 C 0.0645 0.45125 0.20843 0.0
C1363 C 0.07054 0.43976 0.24113 0.0
C1364 C 0.03552 0.43757 0.18831 0.0
C1365 C 0.04961 0.4565 0.15519 0.0
N1366 N 0.06102 0.43829 0.22322 0.0
N1367 N 0.05961 0.45814 0.1729 0.0
H1368 H 0.36552 0.69498 0.27078 0.0
H1369 H 0.43581 0.77394 0.32635 0.0
H1370 H 0.34357 0.74754 0.29956 0.0
H1371 H 0.45079 0.71212 0.32472 0.0
H1372 H 0.40291 0.76513 0.313 0.0
H1373 H 0.39768 0.7012 0.28747 0.0
C1374 C 0.3673 0.70769 0.28073 0.0
C1375 C 0.35171 0.72087 0.28353 0.0
C1376 C 0.41334 0.75346 0.31565 0.0
C1377 C 0.38869 0.72824 0.30225 0.0
C1378 C 0.43217 0.75847 0.32316 0.0
C1379 C 0.44609 0.74373 0.32659 0.0
C1380 C 0.40839 0.73358 0.31112 0.0
C1381 C 0.44047 0.72392 0.32232 0.0
C1382 C 0.38572 0.71124 0.29017 0.0
C1383 C 0.35518 0.73724 0.29643 0.0
N1384 N 0.42207 0.71941 0.31456 0.0
N1385 N 0.37331 0.74056 0.3051 0.0
H1386 H 0.00908 0.33792 0.00394 0.0
H1387 H 0.98938 0.3255 0.88753 0.0
H1388 H 0.96848 0.37326 0.97015 0.0
H1389 H 0.01118 0.27706 0.92214 0.0
H1390 H 0.98547 0.3448 0.91784 0.0
H1391 H 0.01347 0.31674 0.9743 0.0
C1392 C 0.00107 0.34116 0.99033 0.0
C1393 C 0.98831 0.35728 0.98949 0.0
C1394 C 0.99108 0.32994 0.91887 0.0
C1395 C 0.99341 0.33342 0.95574 0.0
C1396 C 0.99343 0.3189 0.90152 0.0
C1397 C 0.00061 0.29958 0.90226 0.0
C1398 C 0.99612 0.32177 0.93722 0.0
C1399 C 0.00553 0.29188 0.92091 0.0
C1400 C 0.00351 0.32906 0.97351 0.0
C1401 C 0.97824 0.36084 0.97154 0.0
N1402 N 0.00327 0.30305 0.93771 0.0
N1403 N 0.98111 0.3491 0.95539 0.0
H1404 H 0.64421 0.78143 0.27218 0.0
H1405 H 0.55493 0.72153 0.32044 0.0
H1406 H 0.6327 0.71971 0.25746 0.0
H1407 H 0.55578 0.78469 0.31146 0.0
H1408 H 0.58599 0.71934 0.30214 0.0
H1409 H 0.61456 0.78157 0.29204 0.0
C1410 C 0.63554 0.76782 0.27331 0.0
C1411 C 0.64095 0.75052 0.26317 0.0
C1412 C 0.57927 0.73362 0.30422 0.0
C1413 C 0.60681 0.75062 0.28582 0.0
C1414 C 0.56164 0.73489 0.31469 0.0
C1415 C 0.5527 0.75331 0.3174 0.0
C1416 C 0.58812 0.75093 0.29686 0.0
C1417 C 0.56201 0.77015 0.30962 0.0
C1418 C 0.61853 0.76795 0.28453 0.0
C1419 C 0.62896 0.73339 0.26495 0.0
N1420 N 0.5792 0.76856 0.29984 0.0
N1421 N 0.61243 0.73384 0.27613 0.0
H1422 H 0.03416 0.13317 0.97414 0.0
H1423 H 0.99773 0.16579 0.86581 0.0
H1424 H 0.00728 0.09262 0.93062 0.0
H1425 H 0.02226 0.20652 0.91048 0.0
H1426 H 0.0021 0.1386 0.88886 0.0
H1427 H 0.03074 0.16001 0.95064 0.0
C1428 C 0.02745 0.1299 0.95967 0.0
C1429 C 0.02093 0.11056 0.95443 0.0
C1430 C 0.00655 0.15348 0.89361 0.0
C1431 C 0.01716 0.14131 0.92727 0.0
C1432 C 0.00408 0.16903 0.88044 0.0
C1433 C 0.0096 0.18851 0.8862 0.0
C1434 C 0.01463 0.1574 0.9127 0.0
C1435 C 0.01775 0.19177 0.90537 0.0
C1436 C 0.02561 0.14524 0.9462 0.0
C1437 C 0.01271 0.10722 0.93528 0.0
N1438 N 0.01999 0.1764 0.91791 0.0
N1439 N 0.01102 0.12242 0.92244 0.0
H1440 H 0.38331 0.35343 0.24169 0.0
H1441 H 0.46512 0.29473 0.18196 0.0
H1442 H 0.41534 0.3049 0.26683 0.0
H1443 H 0.41999 0.32999 0.15443 0.0
H1444 H 0.4508 0.30177 0.21438 0.0
H1445 H 0.40062 0.34861 0.21076 0.0
C1446 C 0.39397 0.34173 0.24072 0.0
C1447 C 0.39764 0.32937 0.25684 0.0
C1448 C 0.44412 0.30797 0.20121 0.0
C1449 C 0.41776 0.32396 0.22146 0.0
C1450 C 0.45228 0.30401 0.18273 0.0
C1451 C 0.44366 0.31169 0.16545 0.0
C1452 C 0.4274 0.3199 0.20237 0.0
C1453 C 0.42704 0.32362 0.16732 0.0
C1454 C 0.40391 0.33904 0.22306 0.0
C1455 C 0.41207 0.31483 0.25484 0.0
N1456 N 0.41949 0.32737 0.18542 0.0
N1457 N 0.42155 0.31245 0.23742 0.0
H1458 H 0.56103 0.38399 0.00721 0.0
H1459 H 0.47427 0.36292 0.08098 0.0
H1460 H 0.52131 0.42895 0.02729 0.0
H1461 H 0.5251 0.32546 0.07882 0.0
H1462 H 0.4914 0.38694 0.06066 0.0
H1463 H 0.5487 0.36203 0.03292 0.0
C1464 C 0.54994 0.38936 0.01717 0.0
C1465 C 0.54195 0.40824 0.01485 0.0
C1466 C 0.49894 0.37358 0.06476 0.0
C1467 C 0.52764 0.38312 0.04402 0.0
C1468 C 0.48913 0.35982 0.0763 0.0
C1469 C 0.49825 0.34214 0.08147 0.0
C1470 C 0.51792 0.36953 0.05797 0.0
C1471 C 0.51758 0.33895 0.07515 0.0
C1472 C 0.54288 0.37679 0.03179 0.0
C1473 C 0.52751 0.41434 0.02813 0.0
N1474 N 0.52671 0.35242 0.06344 0.0
N1475 N 0.52068 0.40175 0.04196 0.0
H1476 H 0.61342 0.26519 0.21963 0.0
H1477 H 0.55363 0.24708 0.11667 0.0
H1478 H 0.63295 0.22562 0.17346 0.0
H1479 H 0.53351 0.28386 0.16485 0.0
H1480 H 0.5829 0.23911 0.13683 0.0
H1481 H 0.58427 0.27242 0.19931 0.0
C1482 C 0.61164 0.25811 0.20514 0.0
C1483 C 0.62574 0.24487 0.1982 0.0
C1484 C 0.57205 0.2489 0.14297 0.0
C1485 C 0.59216 0.25292 0.17485 0.0
C1486 C 0.55534 0.25347 0.13147 0.0
C1487 C 0.54108 0.26618 0.13906 0.0
C1488 C 0.57454 0.25714 0.16218 0.0
C1489 C 0.54408 0.274 0.15835 0.0
C1490 C 0.5949 0.26214 0.19358 0.0
C1491 C 0.6224 0.23581 0.17946 0.0
N1492 N 0.56046 0.26938 0.1692 0.0
N1493 N 0.60599 0.24005 0.1684 0.0
H1494 H 0.41994 0.1728 0.00974 0.0
H1495 H 0.47994 0.22944 0.09814 0.0
H1496 H 0.45749 0.14257 0.0514 0.0
H1497 H 0.43209 0.25505 0.06446 0.0
H1498 H 0.47363 0.19791 0.08021 0.0
H1499 H 0.42601 0.20366 0.02857 0.0
C1500 C 0.42951 0.17269 0.02285 0.0
C1501 C 0.43826 0.15513 0.02901 0.0
C1502 C 0.4645 0.21044 0.07684 0.0
C1503 C 0.44527 0.1904 0.05069 0.0
C1504 C 0.46811 0.22845 0.08702 0.0
C1505 C 0.45653 0.24493 0.0828 0.0
C1506 C 0.44934 0.20901 0.06223 0.0
C1507 C 0.44139 0.24276 0.06825 0.0
C1508 C 0.43289 0.19028 0.03366 0.0
C1509 C 0.45034 0.15577 0.04624 0.0
N1510 N 0.43831 0.22519 0.05846 0.0
N1511 N 0.45359 0.17316 0.05644 0.0
H1512 H 0.30227 0.3428 0.74162 0.0
H1513 H 0.33402 0.45205 0.71002 0.0
H1514 H 0.27535 0.37012 0.69071 0.0
H1515 H 0.3336 0.43324 0.77078 0.0
H1516 H 0.31861 0.41993 0.69971 0.0
H1517 H 0.32044 0.37385 0.74941 0.0
C1518 C 0.30038 0.35528 0.73196 0.0
C1519 C 0.28727 0.35396 0.71554 0.0
C1520 C 0.32199 0.42292 0.71526 0.0
C1521 C 0.30802 0.38944 0.72432 0.0
C1522 C 0.33083 0.44113 0.72113 0.0
C1523 C 0.33495 0.44532 0.74128 0.0
C1524 C 0.31776 0.40873 0.72963 0.0
C1525 C 0.3305 0.4307 0.75511 0.0
C1526 C 0.31064 0.373 0.73647 0.0
C1527 C 0.28522 0.37064 0.7036 0.0
N1528 N 0.32225 0.41304 0.74902 0.0
N1529 N 0.29554 0.38773 0.70819 0.0
H1530 H 0.27457 0.6353 0.71865 0.0
H1531 H 0.32481 0.55491 0.78606 0.0
H1532 H 0.29085 0.64597 0.7802 0.0
H1533 H 0.33406 0.55498 0.72298 0.0
H1534 H 0.30898 0.58681 0.78363 0.0
H1535 H 0.29339 0.60451 0.71923 0.0
C1536 C 0.28221 0.63122 0.73221 0.0
C1537 C 0.28118 0.64319 0.74941 0.0
C1538 C 0.31452 0.57992 0.77031 0.0
C1539 C 0.30238 0.60806 0.75021 0.0
C1540 C 0.32346 0.56162 0.77164 0.0
C1541 C 0.33073 0.55222 0.75467 0.0
C1542 C 0.31245 0.58886 0.75181 0.0
C1543 C 0.32869 0.56175 0.73643 0.0
C1544 C 0.29298 0.61375 0.7325 0.0
C1545 C 0.2914 0.6373 0.76657 0.0
N1546 N 0.31954 0.57953 0.73542 0.0
N1547 N 0.30137 0.62006 0.76659 0.0
H1548 H 0.87179 0.46699 0.46727 0.0
H1549 H 0.77202 0.42033 0.50978 0.0
H1550 H 0.83789 0.49734 0.5114 0.0
H1551 H 0.81639 0.38643 0.48019 0.0
H1552 H 0.79327 0.45013 0.50721 0.0
H1553 H 0.84867 0.43884 0.46828 0.0
C1554 C 0.85933 0.46782 0.47703 0.0
C1555 C 0.85673 0.48458 0.48923 0.0
C1556 C 0.79828 0.43614 0.50128 0.0
C1557 C 0.83026 0.4522 0.49063 0.0
C1558 C 0.78615 0.41917 0.50266 0.0
C1559 C 0.79247 0.40084 0.49526 0.0
C1560 C 0.81668 0.43478 0.49218 0.0
C1561 C 0.81094 0.40019 0.48622 0.0
C1562 C 0.84622 0.45166 0.47772 0.0
C1563 C 0.8405 0.48465 0.50185 0.0
N1564 N 0.82234 0.41688 0.48491 0.0
N1565 N 0.82782 0.4687 0.50221 0.0
H1566 H 0.76359 0.92824 0.80846 0.0
H1567 H 0.64899 0.9259 0.83218 0.0
H1568 H 0.73823 0.89458 0.85573 0.0
H1569 H 0.67532 0.97197 0.79721 0.0
H1570 H 0.68186 0.91396 0.84021 0.0
H1571 H 0.73189 0.9447 0.80372 0.0
C1572 C 0.75147 0.92451 0.81802 0.0
C1573 C 0.7535 0.90979 0.83233 0.0
C1574 C 0.68051 0.92677 0.83088 0.0
C1575 C 0.71721 0.9283 0.82677 0.0
C1576 C 0.66171 0.93354 0.8262 0.0
C1577 C 0.65939 0.9499 0.81391 0.0
C1578 C 0.69721 0.9362 0.82302 0.0
C1579 C 0.67646 0.9593 0.80674 0.0
C1580 C 0.73337 0.93384 0.81524 0.0
C1581 C 0.73723 0.90546 0.84419 0.0
N1582 N 0.69468 0.95219 0.81124 0.0
N1583 N 0.71976 0.91451 0.84101 0.0
H1584 H 0.65837 0.53172 0.9771 0.0
H1585 H 0.7422 0.59 0.9209 0.0
H1586 H 0.65144 0.54942 0.91616 0.0
H1587 H 0.73868 0.59193 0.9847 0.0
H1588 H 0.70946 0.57404 0.91879 0.0
H1589 H 0.68821 0.55269 0.98031 0.0
C1590 C 0.66293 0.54016 0.96444 0.0
C1591 C 0.65234 0.53863 0.94626 0.0
C1592 C 0.71574 0.57813 0.93325 0.0
C1593 C 0.6868 0.56236 0.94981 0.0
C1594 C 0.73446 0.58718 0.93447 0.0
C1595 C 0.74321 0.59219 0.95301 0.0
C1596 C 0.70582 0.57369 0.9507 0.0
C1597 C 0.73245 0.58832 0.97011 0.0
C1598 C 0.68004 0.55208 0.9663 0.0
C1599 C 0.65929 0.54972 0.93033 0.0
N1600 N 0.71439 0.57904 0.96856 0.0
N1601 N 0.67615 0.56095 0.93243 0.0
H1602 H 0.209 0.60403 0.23577 0.0
H1603 H 0.11584 0.56578 0.29676 0.0
H1604 H 0.17341 0.64283 0.27107 0.0
H1605 H 0.15707 0.52711 0.26836 0.0
H1606 H 0.13504 0.59443 0.28548 0.0
H1607 H 0.18842 0.57593 0.24556 0.0
C1608 C 0.19689 0.60666 0.24564 0.0
C1609 C 0.19307 0.62586 0.25272 0.0
C1610 C 0.13985 0.57967 0.28171 0.0
C1611 C 0.16922 0.59365 0.26384 0.0
C1612 C 0.12888 0.5633 0.28812 0.0
C1613 C 0.13487 0.54399 0.28356 0.0
C1614 C 0.15687 0.57671 0.27057 0.0
C1615 C 0.15191 0.5417 0.27231 0.0
C1616 C 0.18507 0.59059 0.25115 0.0
C1617 C 0.17685 0.62835 0.26511 0.0
N1618 N 0.16228 0.55784 0.26622 0.0
N1619 N 0.16556 0.61243 0.27033 0.0
H1620 H 0.90925 0.52854 0.05351 0.0
H1621 H 0.84573 0.55817 0.95747 0.0
H1622 H 0.90527 0.4941 0.99892 0.0
H1623 H 0.84113 0.58885 0.01387 0.0
H1624 H 0.86888 0.53561 0.97254 0.0
H1625 H 0.88526 0.55153 0.03955 0.0
C1626 C 0.90329 0.52575 0.03865 0.0
C1627 C 0.90945 0.50945 0.0273 0.0
C1628 C 0.86283 0.54724 0.98169 0.0
C1629 C 0.8822 0.53575 0.01124 0.0
C1630 C 0.8496 0.56021 0.97306 0.0
C1631 C 0.84144 0.57548 0.98441 0.0
C1632 C 0.8681 0.54949 0.00186 0.0
C1633 C 0.84706 0.57729 0.00456 0.0
C1634 C 0.88967 0.53893 0.03068 0.0
C1635 C 0.90133 0.50668 0.00808 0.0
N1636 N 0.86009 0.56445 0.01266 0.0
N1637 N 0.88822 0.5197 0.00068 0.0
H1638 H 0.0961 0.94416 0.04628 0.0
H1639 H 0.19468 0.90856 0.99379 0.0
H1640 H 0.12088 0.97274 0.99555 0.0
H1641 H 0.16846 0.87859 0.04301 0.0
H1642 H 0.16774 0.93209 0.9941 0.0
H1643 H 0.12254 0.92009 0.04535 0.0
C1644 C 0.10716 0.94544 0.03499 0.0
C1645 C 0.10627 0.96057 0.02101 0.0
C1646 C 0.16784 0.92035 0.0048 0.0
C1647 C 0.13656 0.93287 0.01974 0.0
C1648 C 0.18324 0.90688 0.00465 0.0
C1649 C 0.18388 0.89154 0.01842 0.0
C1650 C 0.15295 0.91855 0.01887 0.0
C1651 C 0.16861 0.89015 0.03211 0.0
C1652 C 0.12219 0.9316 0.0344 0.0
C1653 C 0.12084 0.96124 0.00651 0.0
N1654 N 0.15382 0.90349 0.03202 0.0
N1655 N 0.13539 0.94764 0.0063 0.0
loop_
_geom_bond_atom_site_label_1
_geom_bond_atom_site_label_2
_geom_bond_distance
_geom_bond_site_symmetry_2
_ccdc_geom_bond_type
C0 C1 1.386 . S
C0 C2 1.397 . S
C0 H24 0.931 . S
C1 C0 1.386 . S
C1 C5 1.397 1_556 S
C2 C0 1.397 . S
C2 C3 1.384 1_556 S
C2 H25 0.930 . S
C3 C2 1.384 1_554 S
C3 C4 1.377 . S
C3 C6 1.481 . S
C4 C3 1.377 . S
C4 C5 1.389 . S
C4 H26 0.929 . S
C5 C1 1.397 1_554 S
C5 C4 1.389 . S
C5 H27 0.931 . S
C6 C3 1.481 . S
C6 C7 1.387 . S
C6 C11 1.390 . S
C7 C6 1.387 . S
C7 C8 1.401 . S
C7 H28 0.930 . S
C8 C7 1.401 . S
C8 C9 1.376 . S
C8 C17 1.511 . S
C9 C8 1.376 . S
C9 C10 1.392 . S
C9 H30 0.931 . S
C10 C9 1.392 . S
C10 C11 1.361 . S
C10 C12 1.500 . S
C11 C6 1.390 . S
C11 C10 1.361 . S
C11 H29 0.931 . S
C12 C10 1.500 . S
C12 C13 1.371 . S
C12 C14 1.365 . S
C13 C12 1.371 . S
C13 C23 1.381 1_455 S
C13 H31 0.931 . S
C14 C12 1.365 . S
C14 C15 1.409 1_455 S
C14 H32 0.929 . S
C15 C14 1.409 1_655 S
C15 C16 1.380 . S
C15 H33 0.930 . S
C16 C15 1.380 . S
C16 C23 1.361 . S
C17 C8 1.511 . S
C17 C18 1.341 . S
C17 C19 1.371 . S
C18 C17 1.341 . S
C18 C22 1.394 . S
C18 H34 0.930 . S
C19 C17 1.371 . S
C19 C20 1.392 1_545 S
C19 H35 0.931 . S
C20 C19 1.392 1_565 S
C20 C21 1.331 . S
C20 H38 0.932 . S
C21 C20 1.331 . S
C21 C22 1.336 1_565 S
C22 C18 1.394 . S
C22 C21 1.336 1_545 S
C22 H37 0.929 . S
C23 C13 1.381 1_655 S
C23 C16 1.361 . S
C23 H36 0.947 . S
H24 C0 0.931 . S
H25 C2 0.930 . S
H26 C4 0.929 . S
H27 C5 0.931 . S
H28 C7 0.930 . S
H29 C11 0.931 . S
H30 C9 0.931 . S
H31 C13 0.931 . S
H32 C14 0.929 . S
H33 C15 0.930 . S
H34 C18 0.930 . S
H35 C19 0.931 . S
H36 C23 0.947 . S
H37 C22 0.929 . S
H38 C20 0.932 . S
C39 C40 1.386 . S
C39 C41 1.397 . S
C39 H63 0.931 . S
C40 C39 1.386 . S
C40 C44 1.397 . S
C41 C39 1.397 . S
C41 C42 1.384 . S
C41 H64 0.930 . S
C42 C41 1.384 . S
C42 C43 1.377 . S
C42 C45 1.481 . S
C43 C42 1.377 . S
C43 C44 1.389 . S
C43 H65 0.929 . S
C44 C40 1.397 . S
C44 C43 1.389 . S
C44 H66 0.931 . S
C45 C42 1.481 . S
C45 C46 1.387 . S
C45 C50 1.390 . S
C46 C45 1.387 . S
C46 C47 1.401 . S
C46 H67 0.930 . S
C47 C46 1.401 . S
C47 C48 1.376 . S
C47 C56 1.511 . S
C48 C47 1.376 . S
C48 C49 1.392 . S
C48 H69 0.931 . S
C49 C48 1.392 . S
C49 C50 1.361 . S
C49 C51 1.500 . S
C50 C45 1.390 . S
C50 C49 1.361 . S
C50 H68 0.931 . S
C51 C49 1.500 . S
C51 C52 1.371 . S
C51 C53 1.365 . S
C52 C51 1.371 . S
C52 C62 1.386 . S
C52 H70 0.931 . S
C53 C51 1.365 . S
C53 C54 1.409 . S
C53 H71 0.929 . S
C54 C53 1.409 . S
C54 C55 1.380 . S
C54 H72 0.930 . S
C55 C54 1.380 . S
C55 C62 1.357 . S
C56 C47 1.511 . S
C56 C57 1.341 . S
C56 C58 1.371 . S
C57 C56 1.341 . S
C57 C61 1.394 . S
C57 H73 0.930 . S
C58 C56 1.371 . S
C58 C59 1.392 . S
C58 H74 0.931 . S
C59 C58 1.392 . S
C59 C60 1.331 . S
C59 H77 0.932 . S
C60 C59 1.331 . S
C60 C61 1.336 . S
C61 C57 1.394 . S
C61 C60 1.336 . S
C61 H76 0.929 . S
C62 C52 1.386 . S
C62 C55 1.357 . S
C62 H75 0.928 . S
H63 C39 0.931 . S
H64 C41 0.930 . S
H65 C43 0.929 . S
H66 C44 0.931 . S
H67 C46 0.930 . S
H68 C50 0.931 . S
H69 C48 0.931 . S
H70 C52 0.931 . S
H71 C53 0.929 . S
H72 C54 0.930 . S
H73 C57 0.930 . S
H74 C58 0.931 . S
H75 C62 0.928 . S
H76 C61 0.929 . S
H77 C59 0.932 . S
C78 C79 1.386 1_655 S
C78 C80 1.397 . S
C78 H102 0.931 . S
C79 C78 1.386 1_455 S
C79 C83 1.397 . S
C80 C78 1.397 . S
C80 C81 1.384 . S
C80 H103 0.930 . S
C81 C80 1.384 . S
C81 C82 1.377 . S
C81 C84 1.481 . S
C82 C81 1.377 . S
C82 C83 1.389 1_655 S
C82 H104 0.921 1_655 S
C83 C79 1.397 . S
C83 C82 1.389 1_455 S
C83 H105 0.931 . S
C84 C81 1.481 . S
C84 C85 1.387 . S
C84 C89 1.390 . S
C85 C84 1.387 . S
C85 C86 1.401 . S
C85 H106 0.930 . S
C86 C85 1.401 . S
C86 C87 1.376 . S
C86 C95 1.511 . S
C87 C86 1.376 . S
C87 C88 1.392 . S
C87 H108 0.931 . S
C88 C87 1.392 . S
C88 C89 1.361 . S
C88 C90 1.500 . S
C89 C84 1.390 . S
C89 C88 1.361 . S
C89 H107 0.931 . S
C90 C88 1.500 . S
C90 C91 1.371 . S
C90 C92 1.365 . S
C91 C90 1.371 . S
C91 C101 1.386 . S
C91 H109 0.931 . S
C92 C90 1.365 . S
C92 C93 1.409 . S
C92 H110 0.929 . S
C93 C92 1.409 . S
C93 C94 1.380 . S
C93 H111 0.930 . S
C94 C93 1.380 . S
C94 C101 1.357 . S
C95 C86 1.511 . S
C95 C96 1.341 . S
C95 C97 1.371 . S
C96 C95 1.341 . S
C96 C100 1.394 . S
C96 H112 0.930 . S
C97 C95 1.371 . S
C97 C98 1.392 . S
C97 H113 0.931 . S
C98 C97 1.392 . S
C98 C99 1.331 . S
C98 H116 0.932 . S
C99 C98 1.331 . S
C99 C100 1.336 . S
C100 C96 1.394 . S
C100 C99 1.336 . S
C100 H115 0.929 . S
C101 C91 1.386 . S
C101 C94 1.357 . S
C101 H114 0.918 1_554 S
H102 C78 0.931 . S
H103 C80 0.930 . S
H104 C82 0.921 1_455 S
H105 C83 0.931 . S
H106 C85 0.930 . S
H107 C89 0.931 . S
H108 C87 0.931 . S
H109 C91 0.931 . S
H110 C92 0.929 . S
H111 C93 0.930 . S
H112 C96 0.930 . S
H113 C97 0.931 . S
H114 C101 0.918 1_556 S
H115 C100 0.929 . S
H116 C98 0.932 . S
C117 C118 1.386 . S
C117 C119 1.397 . S
C117 H141 0.931 . S
C118 C117 1.386 . S
C118 C122 1.397 . S
C119 C117 1.397 . S
C119 C120 1.384 . S
C119 H142 0.930 . S
C120 C119 1.384 . S
C120 C121 1.377 . S
C120 C123 1.481 . S
C121 C120 1.377 . S
C121 C122 1.389 . S
C121 H143 0.929 . S
C122 C118 1.397 . S
C122 C121 1.389 . S
C122 H144 0.931 . S
C123 C120 1.481 . S
C123 C124 1.387 . S
C123 C128 1.390 . S
C124 C123 1.387 . S
C124 C125 1.401 . S
C124 H145 0.930 . S
C125 C124 1.401 . S
C125 C126 1.376 . S
C125 C134 1.511 . S
C126 C125 1.376 . S
C126 C127 1.392 . S
C126 H147 0.931 . S
C127 C126 1.392 . S
C127 C128 1.361 . S
C127 C129 1.500 . S
C128 C123 1.390 . S
C128 C127 1.361 . S
C128 H146 0.931 . S
C129 C127 1.500 . S
C129 C130 1.371 . S
C129 C131 1.365 . S
C130 C129 1.371 . S
C130 C140 1.386 . S
C130 H148 0.931 . S
C131 C129 1.365 . S
C131 C132 1.409 . S
C131 H149 0.929 . S
C132 C131 1.409 . S
C132 C133 1.380 . S
C132 H150 0.930 . S
C133 C132 1.380 . S
C133 C140 1.357 . S
C134 C125 1.511 . S
C134 C135 1.341 . S
C134 C136 1.371 . S
C135 C134 1.341 . S
C135 C139 1.394 . S
C135 H151 0.930 . S
C136 C134 1.371 . S
C136 C137 1.392 . S
C136 H152 0.931 . S
C137 C136 1.392 . S
C137 C138 1.331 . S
C137 H155 0.932 . S
C138 C137 1.331 . S
C138 C139 1.336 . S
C139 C135 1.394 . S
C139 C138 1.336 . S
C139 H154 0.929 . S
C140 C130 1.386 . S
C140 C133 1.357 . S
C140 H153 0.928 . S
H141 C117 0.931 . S
H142 C119 0.930 . S
H143 C121 0.929 . S
H144 C122 0.931 . S
H145 C124 0.930 . S
H146 C128 0.931 . S
H147 C126 0.931 . S
H148 C130 0.931 . S
H149 C131 0.929 . S
H150 C132 0.930 . S
H151 C135 0.930 . S
H152 C136 0.931 . S
H153 C140 0.928 . S
H154 C139 0.929 . S
H155 C137 0.932 . S
C156 C157 1.386 1_655 S
C156 C158 1.397 1_655 S
C156 H180 0.931 . S
C157 C156 1.386 1_455 S
C157 C161 1.397 . S
C158 C156 1.397 1_455 S
C158 C159 1.384 . S
C158 H181 0.930 . S
C159 C158 1.384 . S
C159 C160 1.377 . S
C159 C162 1.481 . S
C160 C159 1.377 . S
C160 C161 1.389 . S
C160 H182 0.929 . S
C161 C157 1.397 . S
C161 C160 1.389 . S
C161 H183 0.931 . S
C162 C159 1.481 . S
C162 C163 1.387 . S
C162 C167 1.390 . S
C163 C162 1.387 . S
C163 C164 1.401 . S
C163 H184 0.930 . S
C164 C163 1.401 . S
C164 C165 1.376 . S
C164 C173 1.511 . S
C165 C164 1.376 . S
C165 C166 1.392 . S
C165 H186 0.931 . S
C166 C165 1.392 . S
C166 C167 1.361 . S
C166 C168 1.500 . S
C167 C162 1.390 . S
C167 C166 1.361 . S
C167 H185 0.931 . S
C168 C166 1.500 . S
C168 C169 1.371 . S
C168 C170 1.365 . S
C169 C168 1.371 . S
C169 C179 1.386 . S
C169 H187 0.931 . S
C170 C168 1.365 . S
C170 C171 1.444 . S
C170 H188 0.929 . S
C171 C170 1.444 . S
C171 C172 1.373 1_565 S
C171 H189 0.906 1_565 S
C172 C171 1.373 1_545 S
C172 C179 1.357 1_545 S
C173 C164 1.511 . S
C173 C174 1.341 . S
C173 C175 1.371 . S
C174 C173 1.341 . S
C174 C178 1.394 . S
C174 H190 0.930 . S
C175 C173 1.371 . S
C175 C176 1.392 . S
C175 H191 0.931 . S
C176 C175 1.392 . S
C176 C177 1.331 . S
C176 H194 0.932 . S
C177 C176 1.331 . S
C177 C178 1.336 . S
C178 C174 1.394 . S
C178 C177 1.336 . S
C178 H193 0.929 . S
C179 C169 1.386 . S
C179 C172 1.357 1_565 S
C179 H192 0.928 . S
H180 C156 0.931 . S
H181 C158 0.930 . S
H182 C160 0.929 . S
H183 C161 0.931 . S
H184 C163 0.930 . S
H185 C167 0.931 . S
H186 C165 0.931 . S
H187 C169 0.931 . S
H188 C170 0.929 . S
H189 C171 0.906 1_545 S
H190 C174 0.930 . S
H191 C175 0.931 . S
H192 C179 0.928 . S
H193 C178 0.929 . S
H194 C176 0.932 . S
C195 C196 1.386 . S
C195 C197 1.397 . S
C195 H219 0.931 . S
C196 C195 1.386 . S
C196 C200 1.397 . S
C197 C195 1.397 . S
C197 C198 1.384 . S
C197 H220 0.930 . S
C198 C197 1.384 . S
C198 C199 1.377 . S
C198 C201 1.481 . S
C199 C198 1.377 . S
C199 C200 1.389 . S
C199 H221 0.929 . S
C200 C196 1.397 . S
C200 C199 1.389 . S
C200 H222 0.931 . S
C201 C198 1.481 . S
C201 C202 1.387 . S
C201 C206 1.390 . S
C202 C201 1.387 . S
C202 C203 1.401 . S
C202 H223 0.930 . S
C203 C202 1.401 . S
C203 C204 1.376 . S
C203 C212 1.511 . S
C204 C203 1.376 . S
C204 C205 1.392 . S
C204 H225 0.931 . S
C205 C204 1.392 . S
C205 C206 1.361 . S
C205 C207 1.500 . S
C206 C201 1.390 . S
C206 C205 1.361 . S
C206 H224 0.931 . S
C207 C205 1.500 . S
C207 C208 1.371 . S
C207 C209 1.365 . S
C208 C207 1.371 . S
C208 C218 1.386 . S
C208 H226 0.931 . S
C209 C207 1.365 . S
C209 C210 1.409 . S
C209 H227 0.929 . S
C210 C209 1.409 . S
C210 C211 1.380 . S
C210 H228 0.930 . S
C211 C210 1.380 . S
C211 C218 1.357 . S
C212 C203 1.511 . S
C212 C213 1.341 . S
C212 C214 1.371 . S
C213 C212 1.341 . S
C213 C217 1.394 . S
C213 H229 0.930 . S
C214 C212 1.371 . S
C214 C215 1.392 . S
C214 H230 0.931 . S
C215 C214 1.392 . S
C215 C216 1.331 . S
C215 H233 0.932 . S
C216 C215 1.331 . S
C216 C217 1.336 . S
C217 C213 1.394 . S
C217 C216 1.336 . S
C217 H232 0.929 . S
C218 C208 1.386 . S
C218 C211 1.357 . S
C218 H231 0.928 . S
H219 C195 0.931 . S
H220 C197 0.930 . S
H221 C199 0.929 . S
H222 C200 0.931 . S
H223 C202 0.930 . S
H224 C206 0.931 . S
H225 C204 0.931 . S
H226 C208 0.931 . S
H227 C209 0.929 . S
H228 C210 0.930 . S
H229 C213 0.930 . S
H230 C214 0.931 . S
H231 C218 0.928 . S
H232 C217 0.929 . S
H233 C215 0.932 . S
C234 C235 1.386 . S
C234 C236 1.397 . S
C234 H258 0.931 . S
C235 C234 1.386 . S
C235 C239 1.397 . S
C236 C234 1.397 . S
C236 C237 1.384 . S
C236 H259 0.930 . S
C237 C236 1.384 . S
C237 C238 1.377 . S
C237 C240 1.481 . S
C238 C237 1.377 . S
C238 C239 1.389 . S
C238 H260 0.929 . S
C239 C235 1.397 . S
C239 C238 1.389 . S
C239 H261 0.931 . S
C240 C237 1.481 . S
C240 C241 1.387 . S
C240 C245 1.390 . S
C241 C240 1.387 . S
C241 C242 1.401 . S
C241 H262 0.930 . S
C242 C241 1.401 . S
C242 C243 1.376 . S
C242 C251 1.511 . S
C243 C242 1.376 . S
C243 C244 1.392 . S
C243 H264 0.931 . S
C244 C243 1.392 . S
C244 C245 1.361 . S
C244 C246 1.500 . S
C245 C240 1.390 . S
C245 C244 1.361 . S
C245 H263 0.931 . S
C246 C244 1.500 . S
C246 C247 1.371 . S
C246 C248 1.365 . S
C247 C246 1.371 . S
C247 C257 1.386 . S
C247 H265 0.931 . S
C248 C246 1.365 . S
C248 C249 1.409 . S
C248 H266 0.929 . S
C249 C248 1.409 . S
C249 C250 1.380 . S
C249 H267 0.930 . S
C250 C249 1.380 . S
C250 C257 1.357 . S
C251 C242 1.511 . S
C251 C252 1.341 . S
C251 C253 1.371 . S
C252 C251 1.341 . S
C252 C256 1.394 1_655 S
C252 H268 0.930 . S
C253 C251 1.371 . S
C253 C254 1.392 . S
C253 H269 0.931 . S
C254 C253 1.392 . S
C254 C255 1.331 1_655 S
C254 H272 0.932 . S
C255 C254 1.331 1_455 S
C255 C256 1.336 . S
C256 C252 1.394 1_455 S
C256 C255 1.336 . S
C256 H271 0.929 . S
C257 C247 1.386 . S
C257 C250 1.357 . S
C257 H270 0.928 . S
H258 C234 0.931 . S
H259 C236 0.930 . S
H260 C238 0.929 . S
H261 C239 0.931 . S
H262 C241 0.930 . S
H263 C245 0.931 . S
H264 C243 0.931 . S
H265 C247 0.931 . S
H266 C248 0.929 . S
H267 C249 0.930 . S
H268 C252 0.930 . S
H269 C253 0.931 . S
H270 C257 0.928 . S
H271 C256 0.929 . S
H272 C254 0.932 . S
C273 C274 1.386 . S
C273 C275 1.397 . S
C273 H297 0.931 . S
C274 C273 1.386 . S
C274 C278 1.397 . S
C275 C273 1.397 . S
C275 C276 1.384 . S
C275 H298 0.930 . S
C276 C275 1.384 . S
C276 C277 1.377 . S
C276 C279 1.481 . S
C277 C276 1.377 . S
C277 C278 1.389 . S
C277 H299 0.929 . S
C278 C274 1.397 . S
C278 C277 1.389 . S
C278 H300 0.931 . S
C279 C276 1.481 . S
C279 C280 1.387 . S
C279 C284 1.390 . S
C280 C279 1.387 . S
C280 C281 1.401 . S
C280 H301 0.930 . S
C281 C280 1.401 . S
C281 C282 1.376 . S
C281 C290 1.511 . S
C282 C281 1.376 . S
C282 C283 1.392 . S
C282 H303 0.931 . S
C283 C282 1.392 . S
C283 C284 1.361 . S
C283 C285 1.500 . S
C284 C279 1.390 . S
C284 C283 1.361 . S
C284 H302 0.931 . S
C285 C283 1.500 . S
C285 C286 1.371 . S
C285 C287 1.365 . S
C286 C285 1.371 . S
C286 C296 1.386 . S
C286 H304 0.931 . S
C287 C285 1.365 . S
C287 C288 1.409 . S
C287 H305 0.929 . S
C288 C287 1.409 . S
C288 C289 1.380 . S
C288 H306 0.930 . S
C289 C288 1.380 . S
C289 C296 1.357 . S
C290 C281 1.511 . S
C290 C291 1.341 . S
C290 C292 1.371 . S
C291 C290 1.341 . S
C291 C295 1.394 . S
C291 H307 0.930 . S
C292 C290 1.371 . S
C292 C293 1.392 . S
C292 H308 0.931 . S
C293 C292 1.392 . S
C293 C294 1.331 . S
C293 H311 0.932 . S
C294 C293 1.331 . S
C294 C295 1.336 . S
C295 C291 1.394 . S
C295 C294 1.336 . S
C295 H310 0.929 . S
C296 C286 1.386 . S
C296 C289 1.357 . S
C296 H309 0.928 . S
H297 C273 0.931 . S
H298 C275 0.930 . S
H299 C277 0.929 . S
H300 C278 0.931 . S
H301 C280 0.930 . S
H302 C284 0.931 . S
H303 C282 0.931 . S
H304 C286 0.931 . S
H305 C287 0.929 . S
H306 C288 0.930 . S
H307 C291 0.930 . S
H308 C292 0.931 . S
H309 C296 0.928 . S
H310 C295 0.929 . S
H311 C293 0.932 . S
C312 C313 1.386 . S
C312 C314 1.397 . S
C312 H336 0.931 . S
C313 C312 1.386 . S
C313 C317 1.397 . S
C314 C312 1.397 . S
C314 C315 1.384 . S
C314 H337 0.930 . S
C315 C314 1.384 . S
C315 C316 1.377 . S
C315 C318 1.481 . S
C316 C315 1.377 . S
C316 C317 1.389 . S
C316 H338 0.929 . S
C317 C313 1.397 . S
C317 C316 1.389 . S
C317 H339 0.931 . S
C318 C315 1.481 . S
C318 C319 1.387 . S
C318 C323 1.390 . S
C319 C318 1.387 . S
C319 C320 1.401 . S
C319 H340 0.930 . S
C320 C319 1.401 . S
C320 C321 1.376 . S
C320 C329 1.511 . S
C321 C320 1.376 . S
C321 C322 1.392 . S
C321 H342 0.931 . S
C322 C321 1.392 . S
C322 C323 1.361 . S
C322 C324 1.500 . S
C323 C318 1.390 . S
C323 C322 1.361 . S
C323 H341 0.931 . S
C324 C322 1.500 . S
C324 C325 1.371 . S
C324 C326 1.365 . S
C325 C324 1.371 . S
C325 C335 1.386 . S
C325 H343 0.931 . S
C326 C324 1.365 . S
C326 C327 1.409 . S
C326 H344 0.929 . S
C327 C326 1.409 . S
C327 C328 1.380 . S
C327 H345 0.930 . S
C328 C327 1.380 . S
C328 C335 1.357 . S
C329 C320 1.511 . S
C329 C330 1.341 . S
C329 C331 1.371 . S
C330 C329 1.341 . S
C330 C334 1.394 . S
C330 H346 0.930 . S
C331 C329 1.371 . S
C331 C332 1.392 . S
C331 H347 0.931 . S
C332 C331 1.392 . S
C332 C333 1.331 . S
C332 H350 0.932 . S
C333 C332 1.331 . S
C333 C334 1.336 . S
C334 C330 1.394 . S
C334 C333 1.336 . S
C334 H349 0.929 . S
C335 C325 1.386 . S
C335 C328 1.357 . S
C335 H348 0.928 . S
H336 C312 0.931 . S
H337 C314 0.930 . S
H338 C316 0.929 . S
H339 C317 0.931 . S
H340 C319 0.930 . S
H341 C323 0.931 . S
H342 C321 0.931 . S
H343 C325 0.931 . S
H344 C326 0.929 . S
H345 C327 0.930 . S
H346 C330 0.930 . S
H347 C331 0.931 . S
H348 C335 0.928 . S
H349 C334 0.929 . S
H350 C332 0.932 . S
C351 C352 1.386 . S
C351 C353 1.397 . S
C351 H375 0.931 . S
C352 C351 1.386 . S
C352 C356 1.397 . S
C353 C351 1.397 . S
C353 C354 1.384 . S
C353 H376 0.930 . S
C354 C353 1.384 . S
C354 C355 1.377 . S
C354 C357 1.481 . S
C355 C354 1.377 . S
C355 C356 1.389 . S
C355 H377 0.929 . S
C356 C352 1.397 . S
C356 C355 1.389 . S
C356 H378 0.931 . S
C357 C354 1.481 . S
C357 C358 1.387 . S
C357 C362 1.390 . S
C358 C357 1.387 . S
C358 C359 1.401 . S
C358 H379 0.930 . S
C359 C358 1.401 . S
C359 C360 1.376 . S
C359 C368 1.511 . S
C360 C359 1.376 . S
C360 C361 1.392 . S
C360 H381 0.931 . S
C361 C360 1.392 . S
C361 C362 1.361 . S
C361 C363 1.500 . S
C362 C357 1.390 . S
C362 C361 1.361 . S
C362 H380 0.931 . S
C363 C361 1.500 . S
C363 C364 1.371 . S
C363 C365 1.365 . S
C364 C363 1.371 . S
C364 C374 1.386 . S
C364 H382 0.931 . S
C365 C363 1.365 . S
C365 C366 1.409 . S
C365 H383 0.929 . S
C366 C365 1.409 . S
C366 C367 1.380 . S
C366 H384 0.930 . S
C367 C366 1.380 . S
C367 C374 1.357 . S
C368 C359 1.511 . S
C368 C369 1.341 . S
C368 C370 1.371 . S
C369 C368 1.341 . S
C369 C373 1.394 1_565 S
C369 H385 0.930 . S
C370 C368 1.371 . S
C370 C371 1.392 . S
C370 H386 0.931 . S
C371 C370 1.392 . S
C371 C372 1.331 1_565 S
C371 H389 0.932 . S
C372 C371 1.331 1_545 S
C372 C373 1.336 . S
C373 C369 1.394 1_545 S
C373 C372 1.336 . S
C373 H388 0.929 . S
C374 C364 1.386 . S
C374 C367 1.357 . S
C374 H387 0.928 . S
H375 C351 0.931 . S
H376 C353 0.930 . S
H377 C355 0.929 . S
H378 C356 0.931 . S
H379 C358 0.930 . S
H380 C362 0.931 . S
H381 C360 0.931 . S
H382 C364 0.931 . S
H383 C365 0.929 . S
H384 C366 0.930 . S
H385 C369 0.930 . S
H386 C370 0.931 . S
H387 C374 0.928 . S
H388 C373 0.929 . S
H389 C371 0.932 . S
C390 C391 1.386 . S
C390 C392 1.397 . S
C390 H414 0.931 . S
C391 C390 1.386 . S
C391 C395 1.397 . S
C392 C390 1.397 . S
C392 C393 1.384 . S
C392 H415 0.930 . S
C393 C392 1.384 . S
C393 C394 1.377 . S
C393 C396 1.481 . S
C394 C393 1.377 . S
C394 C395 1.389 . S
C394 H416 0.929 . S
C395 C391 1.397 . S
C395 C394 1.389 . S
C395 H417 0.931 . S
C396 C393 1.481 . S
C396 C397 1.387 . S
C396 C401 1.390 . S
C397 C396 1.387 . S
C397 C398 1.401 . S
C397 H418 0.930 . S
C398 C397 1.401 . S
C398 C399 1.376 . S
C398 C407 1.511 . S
C399 C398 1.376 . S
C399 C400 1.392 . S
C399 H420 0.931 . S
C400 C399 1.392 . S
C400 C401 1.361 . S
C400 C402 1.500 . S
C401 C396 1.390 . S
C401 C400 1.361 . S
C401 H419 0.931 . S
C402 C400 1.500 . S
C402 C403 1.371 . S
C402 C404 1.365 . S
C403 C402 1.371 . S
C403 C413 1.386 . S
C403 H421 0.931 . S
C404 C402 1.365 . S
C404 C405 1.409 . S
C404 H422 0.929 . S
C405 C404 1.409 . S
C405 C406 1.380 . S
C405 H423 0.930 . S
C406 C405 1.380 . S
C406 C413 1.357 . S
C407 C398 1.511 . S
C407 C408 1.341 . S
C407 C409 1.371 . S
C408 C407 1.341 . S
C408 C412 1.394 . S
C408 H424 0.930 . S
C409 C407 1.371 . S
C409 C410 1.392 . S
C409 H425 0.931 . S
C410 C409 1.392 . S
C410 C411 1.331 . S
C410 H428 0.932 . S
C411 C410 1.331 . S
C411 C412 1.336 . S
C412 C408 1.394 . S
C412 C411 1.336 . S
C412 H427 0.929 . S
C413 C403 1.386 . S
C413 C406 1.357 . S
C413 H426 0.928 . S
H414 C390 0.931 . S
H415 C392 0.930 . S
H416 C394 0.929 . S
H417 C395 0.931 . S
H418 C397 0.930 . S
H419 C401 0.931 . S
H420 C399 0.931 . S
H421 C403 0.931 . S
H422 C404 0.929 . S
H423 C405 0.930 . S
H424 C408 0.930 . S
H425 C409 0.931 . S
H426 C413 0.928 . S
H427 C412 0.929 . S
H428 C410 0.932 . S
C429 C430 1.386 . S
C429 C431 1.397 . S
C429 H453 0.931 . S
C430 C429 1.386 . S
C430 C434 1.397 . S
C431 C429 1.397 . S
C431 C432 1.384 . S
C431 H454 0.930 . S
C432 C431 1.384 . S
C432 C433 1.377 . S
C432 C435 1.481 . S
C433 C432 1.377 . S
C433 C434 1.389 . S
C433 H455 0.929 . S
C434 C430 1.397 . S
C434 C433 1.389 . S
C434 H456 0.931 . S
C435 C432 1.481 . S
C435 C436 1.387 . S
C435 C440 1.390 . S
C436 C435 1.387 . S
C436 C437 1.401 . S
C436 H457 0.930 . S
C437 C436 1.401 . S
C437 C438 1.376 . S
C437 C446 1.511 . S
C438 C437 1.376 . S
C438 C439 1.392 . S
C438 H459 0.931 . S
C439 C438 1.392 . S
C439 C440 1.361 . S
C439 C441 1.500 . S
C440 C435 1.390 . S
C440 C439 1.361 . S
C440 H458 0.931 . S
C441 C439 1.500 . S
C441 C442 1.371 . S
C441 C443 1.365 . S
C442 C441 1.371 . S
C442 C452 1.386 . S
C442 H460 0.931 . S
C443 C441 1.365 . S
C443 C444 1.409 . S
C443 H461 0.929 . S
C444 C443 1.409 . S
C444 C445 1.380 . S
C444 H462 0.930 . S
C445 C444 1.380 . S
C445 C452 1.357 . S
C446 C437 1.511 . S
C446 C447 1.341 . S
C446 C448 1.371 . S
C447 C446 1.341 . S
C447 C451 1.394 . S
C447 H463 0.930 . S
C448 C446 1.371 . S
C448 C449 1.392 . S
C448 H464 0.931 . S
C449 C448 1.392 . S
C449 C450 1.331 . S
C449 H467 0.932 . S
C450 C449 1.331 . S
C450 C451 1.336 . S
C451 C447 1.394 . S
C451 C450 1.336 . S
C451 H466 0.929 . S
C452 C442 1.386 . S
C452 C445 1.357 . S
C452 H465 0.928 . S
H453 C429 0.931 . S
H454 C431 0.930 . S
H455 C433 0.929 . S
H456 C434 0.931 . S
H457 C436 0.930 . S
H458 C440 0.931 . S
H459 C438 0.931 . S
H460 C442 0.931 . S
H461 C443 0.929 . S
H462 C444 0.930 . S
H463 C447 0.930 . S
H464 C448 0.931 . S
H465 C452 0.928 . S
H466 C451 0.929 . S
H467 C449 0.932 . S
C468 C469 1.386 . S
C468 C470 1.397 . S
C468 H492 0.931 . S
C469 C468 1.386 . S
C469 C473 1.397 . S
C470 C468 1.397 . S
C470 C471 1.384 . S
C470 H493 0.930 . S
C471 C470 1.384 . S
C471 C472 1.377 . S
C471 C474 1.481 . S
C472 C471 1.377 . S
C472 C473 1.389 . S
C472 H494 0.929 . S
C473 C469 1.397 . S
C473 C472 1.389 . S
C473 H495 0.931 . S
C474 C471 1.481 . S
C474 C475 1.387 . S
C474 C479 1.390 . S
C475 C474 1.387 . S
C475 C476 1.401 . S
C475 H496 0.930 . S
C476 C475 1.401 . S
C476 C477 1.376 . S
C476 C485 1.511 . S
C477 C476 1.376 . S
C477 C478 1.392 . S
C477 H498 0.931 . S
C478 C477 1.392 . S
C478 C479 1.361 . S
C478 C480 1.500 . S
C479 C474 1.390 . S
C479 C478 1.361 . S
C479 H497 0.931 . S
C480 C478 1.500 . S
C480 C481 1.371 . S
C480 C482 1.365 . S
C481 C480 1.371 . S
C481 C491 1.386 . S
C481 H499 0.931 . S
C482 C480 1.365 . S
C482 C483 1.409 . S
C482 H500 0.929 . S
C483 C482 1.409 . S
C483 C484 1.380 . S
C483 H501 0.930 . S
C484 C483 1.380 . S
C484 C491 1.357 . S
C485 C476 1.511 . S
C485 C486 1.341 . S
C485 C487 1.371 . S
C486 C485 1.341 . S
C486 C490 1.394 . S
C486 H502 0.930 . S
C487 C485 1.371 . S
C487 C488 1.392 . S
C487 H503 0.931 . S
C488 C487 1.392 . S
C488 C489 1.331 . S
C488 H506 0.932 . S
C489 C488 1.331 . S
C489 C490 1.336 . S
C490 C486 1.394 . S
C490 C489 1.336 . S
C490 H505 0.929 . S
C491 C481 1.386 . S
C491 C484 1.357 . S
C491 H504 0.928 . S
H492 C468 0.931 . S
H493 C470 0.930 . S
H494 C472 0.929 . S
H495 C473 0.931 . S
H496 C475 0.930 . S
H497 C479 0.931 . S
H498 C477 0.931 . S
H499 C481 0.931 . S
H500 C482 0.929 . S
H501 C483 0.930 . S
H502 C486 0.930 . S
H503 C487 0.931 . S
H504 C491 0.928 . S
H505 C490 0.929 . S
H506 C488 0.932 . S
C507 C508 1.386 . S
C507 C509 1.397 . S
C507 H531 0.931 . S
C508 C507 1.386 . S
C508 C512 1.397 . S
C509 C507 1.397 . S
C509 C510 1.384 . S
C509 H532 0.930 . S
C510 C509 1.384 . S
C510 C511 1.377 . S
C510 C513 1.481 . S
C511 C510 1.377 . S
C511 C512 1.389 . S
C511 H533 0.929 . S
C512 C508 1.397 . S
C512 C511 1.389 . S
C512 H534 0.931 . S
C513 C510 1.481 . S
C513 C514 1.387 . S
C513 C518 1.390 . S
C514 C513 1.387 . S
C514 C515 1.401 . S
C514 H535 0.930 . S
C515 C514 1.401 . S
C515 C516 1.376 . S
C515 C524 1.511 . S
C516 C515 1.376 . S
C516 C517 1.392 . S
C516 H537 0.931 . S
C517 C516 1.392 . S
C517 C518 1.361 . S
C517 C519 1.500 . S
C518 C513 1.390 . S
C518 C517 1.361 . S
C518 H536 0.931 . S
C519 C517 1.500 . S
C519 C520 1.371 . S
C519 C521 1.365 . S
C520 C519 1.371 . S
C520 C530 1.386 . S
C520 H538 0.931 . S
C521 C519 1.365 . S
C521 C522 1.409 . S
C521 H539 0.929 . S
C522 C521 1.409 . S
C522 C523 1.380 . S
C522 H540 0.930 . S
C523 C522 1.380 . S
C523 C530 1.357 . S
C524 C515 1.511 . S
C524 C525 1.341 . S
C524 C526 1.371 . S
C525 C524 1.341 . S
C525 C529 1.394 . S
C525 H541 0.930 . S
C526 C524 1.371 . S
C526 C527 1.392 1_556 S
C526 H542 0.931 . S
C527 C526 1.392 1_554 S
C527 C528 1.331 . S
C527 H545 0.932 . S
C528 C527 1.331 . S
C528 C529 1.336 1_554 S
C529 C525 1.394 . S
C529 C528 1.336 1_556 S
C529 H544 0.929 . S
C530 C520 1.386 . S
C530 C523 1.357 . S
C530 H543 0.924 . S
H531 C507 0.931 . S
H532 C509 0.930 . S
H533 C511 0.929 . S
H534 C512 0.931 . S
H535 C514 0.930 . S
H536 C518 0.931 . S
H537 C516 0.931 . S
H538 C520 0.931 . S
H539 C521 0.929 . S
H540 C522 0.930 . S
H541 C525 0.930 . S
H542 C526 0.931 . S
H543 C530 0.924 . S
H544 C529 0.929 . S
H545 C527 0.932 . S
C546 C547 1.386 . S
C546 C548 1.397 . S
C546 H570 0.931 . S
C547 C546 1.386 . S
C547 C551 1.397 . S
C548 C546 1.397 . S
C548 C549 1.384 . S
C548 H571 0.930 . S
C549 C548 1.384 . S
C549 C550 1.377 . S
C549 C552 1.481 . S
C550 C549 1.377 . S
C550 C551 1.389 . S
C550 H572 0.929 . S
C551 C547 1.397 . S
C551 C550 1.389 . S
C551 H573 0.931 . S
C552 C549 1.481 . S
C552 C553 1.387 . S
C552 C557 1.390 . S
C553 C552 1.387 . S
C553 C554 1.401 . S
C553 H574 0.930 . S
C554 C553 1.401 . S
C554 C555 1.376 . S
C554 C563 1.511 . S
C555 C554 1.376 . S
C555 C556 1.392 . S
C555 H576 0.931 . S
C556 C555 1.392 . S
C556 C557 1.361 . S
C556 C558 1.500 . S
C557 C552 1.390 . S
C557 C556 1.361 . S
C557 H575 0.931 . S
C558 C556 1.500 . S
C558 C559 1.371 . S
C558 C560 1.365 . S
C559 C558 1.371 . S
C559 C569 1.386 . S
C559 H577 0.931 . S
C560 C558 1.365 . S
C560 C561 1.409 . S
C560 H578 0.929 . S
C561 C560 1.409 . S
C561 C562 1.380 . S
C561 H579 0.930 . S
C562 C561 1.380 . S
C562 C569 1.357 . S
C563 C554 1.511 . S
C563 C564 1.341 . S
C563 C565 1.371 . S
C564 C563 1.341 . S
C564 C568 1.394 . S
C564 H580 0.930 . S
C565 C563 1.371 . S
C565 C566 1.392 . S
C565 H581 0.931 . S
C566 C565 1.392 . S
C566 C567 1.331 . S
C566 H584 0.932 . S
C567 C566 1.331 . S
C567 C568 1.336 . S
C568 C564 1.394 . S
C568 C567 1.336 . S
C568 H583 0.929 . S
C569 C559 1.386 . S
C569 C562 1.357 . S
C569 H582 0.928 . S
H570 C546 0.931 . S
H571 C548 0.930 . S
H572 C550 0.929 . S
H573 C551 0.931 . S
H574 C553 0.930 . S
H575 C557 0.931 . S
H576 C555 0.931 . S
H577 C559 0.931 . S
H578 C560 0.929 . S
H579 C561 0.930 . S
H580 C564 0.930 . S
H581 C565 0.931 . S
H582 C569 0.928 . S
H583 C568 0.929 . S
H584 C566 0.932 . S
C585 C586 1.386 1_556 S
C585 C587 1.397 . S
C585 H609 0.931 . S
C586 C585 1.386 1_554 S
C586 C590 1.397 . S
C587 C585 1.397 . S
C587 C588 1.384 . S
C587 H610 0.930 . S
C588 C587 1.384 . S
C588 C589 1.377 . S
C588 C591 1.481 . S
C589 C588 1.377 . S
C589 C590 1.389 1_556 S
C589 H611 0.929 1_556 S
C590 C586 1.397 . S
C590 C589 1.389 1_554 S
C590 H612 0.931 . S
C591 C588 1.481 . S
C591 C592 1.387 . S
C591 C596 1.390 . S
C592 C591 1.387 . S
C592 C593 1.401 . S
C592 H613 0.930 . S
C593 C592 1.401 . S
C593 C594 1.376 . S
C593 C602 1.511 . S
C594 C593 1.376 . S
C594 C595 1.392 . S
C594 H615 0.931 . S
C595 C594 1.392 . S
C595 C596 1.361 . S
C595 C597 1.500 . S
C596 C591 1.390 . S
C596 C595 1.361 . S
C596 H614 0.931 . S
C597 C595 1.500 . S
C597 C598 1.371 . S
C597 C599 1.365 . S
C598 C597 1.371 . S
C598 C608 1.386 . S
C598 H616 0.931 . S
C599 C597 1.365 . S
C599 C600 1.409 . S
C599 H617 0.929 . S
C600 C599 1.409 . S
C600 C601 1.380 . S
C600 H618 0.930 . S
C601 C600 1.380 . S
C601 C608 1.357 . S
C602 C593 1.511 . S
C602 C603 1.341 . S
C602 C604 1.371 . S
C603 C602 1.341 . S
C603 C607 1.394 . S
C603 H619 0.930 . S
C604 C602 1.371 . S
C604 C605 1.392 . S
C604 H620 0.931 . S
C605 C604 1.392 . S
C605 C606 1.331 . S
C605 H623 0.932 . S
C606 C605 1.331 . S
C606 C607 1.336 . S
C607 C603 1.394 . S
C607 C606 1.336 . S
C607 H622 0.929 . S
C608 C598 1.386 . S
C608 C601 1.357 . S
C608 H621 0.928 1_545 S
H609 C585 0.931 . S
H610 C587 0.930 . S
H611 C589 0.929 1_554 S
H612 C590 0.931 . S
H613 C592 0.930 . S
H614 C596 0.931 . S
H615 C594 0.931 . S
H616 C598 0.931 . S
H617 C599 0.929 . S
H618 C600 0.930 . S
H619 C603 0.930 . S
H620 C604 0.931 . S
H621 C608 0.928 1_565 S
H622 C607 0.929 . S
H623 C605 0.932 . S
Zn624 O627 2.058 . S
Zn624 O629 2.031 1_554 S
Zn624 O634 2.031 1_554 S
Zn625 O626 1.962 . S
Zn625 O628 1.986 . S
Zn625 O630 1.996 . S
Zn625 O633 1.943 1_554 S
O626 Zn625 1.962 . S
O626 C631 1.254 . S
O627 Zn624 2.058 . S
O627 C631 1.269 . S
O628 Zn625 1.986 . S
O628 C635 1.262 . S
O629 Zn624 2.031 1_556 S
O629 C637 1.260 . S
O630 Zn625 1.996 . S
O630 C637 1.257 1_554 S
C631 O626 1.254 . S
C631 O627 1.269 . S
C632 O633 1.249 . S
C632 O634 1.270 . S
O633 Zn625 1.943 1_556 S
O633 C632 1.249 . S
O634 Zn624 2.031 1_556 S
O634 C632 1.270 . S
C635 O628 1.262 . S
C635 O636 1.232 . S
O636 C635 1.232 . S
C637 O629 1.260 . S
C637 O630 1.257 1_556 S
Zn638 O641 2.031 . S
Zn638 O643 2.049 . S
Zn638 O648 2.067 . S
Zn639 O640 1.962 . S
Zn639 O642 1.986 . S
Zn639 O644 1.996 . S
Zn639 O647 1.943 . S
O640 Zn639 1.962 . S
O640 C645 1.254 . S
O641 Zn638 2.031 . S
O641 C645 1.269 . S
O642 Zn639 1.986 . S
O642 C649 1.262 . S
O643 Zn638 2.049 . S
O643 C651 1.260 . S
O644 Zn639 1.996 . S
O644 C651 1.257 . S
C645 O640 1.254 . S
C645 O641 1.269 . S
C646 O647 1.249 . S
C646 O648 1.270 . S
O647 Zn639 1.943 . S
O647 C646 1.249 . S
O648 Zn638 2.067 . S
O648 C646 1.270 . S
C649 O642 1.262 . S
C649 O650 1.232 . S
O650 C649 1.232 . S
C651 O643 1.260 . S
C651 O644 1.257 . S
Zn652 O655 2.031 . S
Zn652 O657 2.049 . S
Zn652 O662 2.067 . S
Zn653 O654 1.962 . S
Zn653 O656 1.986 . S
Zn653 O658 1.996 1_554 S
Zn653 O661 1.943 . S
O654 Zn653 1.962 . S
O654 C659 1.254 . S
O655 Zn652 2.031 . S
O655 C659 1.269 1_556 S
O656 Zn653 1.986 . S
O656 C663 1.262 . S
O657 Zn652 2.049 . S
O657 C665 1.260 . S
O658 Zn653 1.996 1_556 S
O658 C665 1.257 . S
C659 O654 1.254 . S
C659 O655 1.269 1_554 S
C660 O661 1.249 1_556 S
C660 O662 1.270 . S
O661 Zn653 1.943 . S
O661 C660 1.249 1_554 S
O662 Zn652 2.067 . S
O662 C660 1.270 . S
C663 O656 1.262 . S
C663 O664 1.232 . S
O664 C663 1.232 . S
C665 O657 1.260 . S
C665 O658 1.257 . S
Zn666 O669 2.049 . S
Zn666 O671 2.037 1_545 S
Zn666 O676 2.043 1_545 S
Zn667 O668 1.962 . S
Zn667 O670 1.986 . S
Zn667 O672 1.996 . S
Zn667 O675 1.943 1_545 S
O668 Zn667 1.962 . S
O668 C673 1.254 . S
O669 Zn666 2.049 . S
O669 C673 1.269 . S
O670 Zn667 1.986 . S
O670 C677 1.262 . S
O671 Zn666 2.037 1_565 S
O671 C679 1.260 . S
O672 Zn667 1.996 . S
O672 C679 1.257 1_545 S
C673 O668 1.254 . S
C673 O669 1.269 . S
C674 O675 1.249 . S
C674 O676 1.270 . S
O675 Zn667 1.943 1_565 S
O675 C674 1.249 . S
O676 Zn666 2.043 1_565 S
O676 C674 1.270 . S
C677 O670 1.262 . S
C677 O678 1.232 . S
O678 C677 1.232 . S
C679 O671 1.260 . S
C679 O672 1.257 1_565 S
Zn680 O683 2.031 . S
Zn680 O685 2.049 . S
Zn680 O690 2.067 . S
Zn681 O682 1.962 . S
Zn681 O684 1.986 . S
Zn681 O686 1.996 . S
Zn681 O689 1.943 . S
O682 Zn681 1.962 . S
O682 C687 1.254 . S
O683 Zn680 2.031 . S
O683 C687 1.269 . S
O684 Zn681 1.986 . S
O684 C691 1.262 . S
O685 Zn680 2.049 . S
O685 C693 1.260 . S
O686 Zn681 1.996 . S
O686 C693 1.257 . S
C687 O682 1.254 . S
C687 O683 1.269 . S
C688 O689 1.249 . S
C688 O690 1.270 . S
O689 Zn681 1.943 . S
O689 C688 1.249 . S
O690 Zn680 2.067 . S
O690 C688 1.270 . S
C691 O684 1.262 . S
C691 O692 1.232 . S
O692 C691 1.232 . S
C693 O685 1.260 . S
C693 O686 1.257 . S
Zn694 O697 2.031 . S
Zn694 O699 2.049 . S
Zn694 O704 2.067 . S
Zn695 O696 1.962 . S
Zn695 O698 1.986 . S
Zn695 O700 1.996 . S
Zn695 O703 1.943 . S
O696 Zn695 1.962 . S
O696 C701 1.254 . S
O697 Zn694 2.031 . S
O697 C701 1.269 . S
O698 Zn695 1.986 . S
O698 C705 1.262 . S
O699 Zn694 2.049 . S
O699 C707 1.260 . S
O700 Zn695 1.996 . S
O700 C707 1.257 . S
C701 O696 1.254 . S
C701 O697 1.269 . S
C702 O703 1.249 . S
C702 O704 1.270 . S
O703 Zn695 1.943 . S
O703 C702 1.249 . S
O704 Zn694 2.067 . S
O704 C702 1.270 . S
C705 O698 1.262 . S
C705 O706 1.232 . S
O706 C705 1.232 . S
C707 O699 1.260 . S
C707 O700 1.257 . S
Zn708 O711 2.031 . S
Zn708 O713 2.049 . S
Zn708 O718 2.067 . S
Zn709 O710 1.962 . S
Zn709 O712 1.986 . S
Zn709 O714 1.996 . S
Zn709 O717 1.943 . S
O710 Zn709 1.962 . S
O710 C715 1.254 . S
O711 Zn708 2.031 . S
O711 C715 1.269 . S
O712 Zn709 1.986 . S
O712 C719 1.262 . S
O713 Zn708 2.049 . S
O713 C721 1.260 . S
O714 Zn709 1.996 . S
O714 C721 1.257 . S
C715 O710 1.254 . S
C715 O711 1.269 . S
C716 O717 1.249 . S
C716 O718 1.270 . S
O717 Zn709 1.943 . S
O717 C716 1.249 . S
O718 Zn708 2.067 . S
O718 C716 1.270 . S
C719 O712 1.262 . S
C719 O720 1.232 . S
O720 C719 1.232 . S
C721 O713 1.260 . S
C721 O714 1.257 . S
Zn722 O725 2.031 . S
Zn722 O727 2.049 . S
Zn722 O732 2.067 . S
Zn723 O724 1.962 . S
Zn723 O726 1.986 . S
Zn723 O728 1.996 1_545 S
Zn723 O731 1.943 . S
O724 Zn723 1.962 . S
O724 C729 1.254 . S
O725 Zn722 2.031 . S
O725 C729 1.269 1_565 S
O726 Zn723 1.986 . S
O726 C733 1.262 . S
O727 Zn722 2.049 . S
O727 C735 1.260 . S
O728 Zn723 1.996 1_565 S
O728 C735 1.257 . S
C729 O724 1.254 . S
C729 O725 1.269 1_545 S
C730 O731 1.249 1_565 S
C730 O732 1.270 . S
O731 Zn723 1.943 . S
O731 C730 1.249 1_545 S
O732 Zn722 2.067 . S
O732 C730 1.270 . S
C733 O726 1.262 . S
C733 O734 1.232 . S
O734 C733 1.232 . S
C735 O727 1.260 . S
C735 O728 1.257 . S
Zn736 O739 2.033 1_655 S
Zn736 O741 2.048 . S
Zn736 O746 2.065 . S
Zn737 O738 1.962 . S
Zn737 O740 1.986 . S
Zn737 O742 1.996 . S
Zn737 O745 1.943 1_455 S
O738 Zn737 1.962 . S
O738 C743 1.254 . S
O739 Zn736 2.033 1_455 S
O739 C743 1.269 . S
O740 Zn737 1.986 . S
O740 C747 1.262 . S
O741 Zn736 2.048 . S
O741 C749 1.260 . S
O742 Zn737 1.996 . S
O742 C749 1.257 1_455 S
C743 O738 1.254 . S
C743 O739 1.269 . S
C744 O745 1.249 . S
C744 O746 1.270 . S
O745 Zn737 1.943 1_655 S
O745 C744 1.249 . S
O746 Zn736 2.065 . S
O746 C744 1.270 . S
C747 O740 1.262 . S
C747 O748 1.232 . S
O748 C747 1.232 . S
C749 O741 1.260 . S
C749 O742 1.257 1_655 S
Zn750 O753 2.031 . S
Zn750 O755 2.049 . S
Zn750 O760 2.067 . S
Zn751 O752 1.962 . S
Zn751 O754 1.986 . S
Zn751 O756 1.996 . S
Zn751 O759 1.943 . S
O752 Zn751 1.962 . S
O752 C757 1.254 . S
O753 Zn750 2.031 . S
O753 C757 1.269 . S
O754 Zn751 1.986 . S
O754 C761 1.262 . S
O755 Zn750 2.049 . S
O755 C763 1.260 . S
O756 Zn751 1.996 . S
O756 C763 1.257 . S
C757 O752 1.254 . S
C757 O753 1.269 . S
C758 O759 1.249 . S
C758 O760 1.270 . S
O759 Zn751 1.943 . S
O759 C758 1.249 . S
O760 Zn750 2.067 . S
O760 C758 1.270 . S
C761 O754 1.262 . S
C761 O762 1.232 . S
O762 C761 1.232 . S
C763 O755 1.260 . S
C763 O756 1.257 . S
Zn764 O767 2.031 . S
Zn764 O769 2.049 . S
Zn764 O774 2.067 . S
Zn765 O766 1.962 . S
Zn765 O768 1.986 . S
Zn765 O770 1.996 1_455 S
Zn765 O773 1.943 . S
O766 Zn765 1.962 . S
O766 C771 1.254 . S
O767 Zn764 2.031 . S
O767 C771 1.269 1_655 S
O768 Zn765 1.986 . S
O768 C775 1.262 . S
O769 Zn764 2.049 . S
O769 C777 1.260 . S
O770 Zn765 1.996 1_655 S
O770 C777 1.257 . S
C771 O766 1.254 . S
C771 O767 1.269 1_455 S
C772 O773 1.249 1_655 S
C772 O774 1.270 . S
O773 Zn765 1.943 . S
O773 C772 1.249 1_455 S
O774 Zn764 2.067 . S
O774 C772 1.270 . S
C775 O768 1.262 . S
C775 O776 1.232 . S
O776 C775 1.232 . S
C777 O769 1.260 . S
C777 O770 1.257 . S
Zn778 O781 2.031 . S
Zn778 O783 2.049 . S
Zn778 O788 2.067 . S
Zn779 O780 1.962 . S
Zn779 O782 1.986 . S
Zn779 O784 1.996 . S
Zn779 O787 1.943 . S
O780 Zn779 1.962 . S
O780 C785 1.254 . S
O781 Zn778 2.031 . S
O781 C785 1.269 . S
O782 Zn779 1.986 . S
O782 C789 1.262 . S
O783 Zn778 2.049 . S
O783 C791 1.260 . S
O784 Zn779 1.996 . S
O784 C791 1.257 . S
C785 O780 1.254 . S
C785 O781 1.269 . S
C786 O787 1.249 . S
C786 O788 1.270 . S
O787 Zn779 1.943 . S
O787 C786 1.249 . S
O788 Zn778 2.067 . S
O788 C786 1.270 . S
C789 O782 1.262 . S
C789 O790 1.232 . S
O790 C789 1.232 . S
C791 O783 1.260 . S
C791 O784 1.257 . S
H792 C798 0.930 . S
H793 C802 0.930 . S
H794 C807 0.929 . S
H795 C805 0.929 . S
H796 C800 0.929 . S
H797 C806 0.929 . S
C798 H792 0.930 . S
C798 C799 1.367 . S
C798 C806 1.378 . S
C799 C798 1.367 . S
C799 C807 1.433 . S
C800 H796 0.929 . S
C800 C802 1.378 . S
C800 C804 1.350 . S
C801 C804 1.463 . S
C801 C806 1.350 . S
C801 N809 1.427 . S
C802 H793 0.930 . S
C802 C800 1.378 . S
C802 C803 1.367 . S
C803 C802 1.367 . S
C803 C805 1.433 . S
C804 C800 1.350 . S
C804 C801 1.463 . S
C804 N808 1.427 . S
C805 H795 0.929 . S
C805 C803 1.433 . S
C805 N808 1.384 . S
C806 H797 0.929 . S
C806 C798 1.378 . S
C806 C801 1.350 . S
C807 H794 0.929 . S
C807 C799 1.433 . S
C807 N809 1.384 . S
N808 C804 1.427 . S
N808 C805 1.384 . S
N809 C801 1.427 . S
N809 C807 1.384 . S
H810 C816 0.930 . S
H811 C820 0.930 . S
H812 C825 0.929 . S
H813 C823 0.929 . S
H814 C818 0.929 . S
H815 C824 0.929 . S
C816 H810 0.930 . S
C816 C817 1.367 . S
C816 C824 1.378 . S
C817 C816 1.367 . S
C817 C825 1.433 . S
C818 H814 0.929 . S
C818 C820 1.378 . S
C818 C822 1.350 . S
C819 C822 1.463 . S
C819 C824 1.350 . S
C819 N827 1.427 . S
C820 H811 0.930 . S
C820 C818 1.378 . S
C820 C821 1.367 . S
C821 C820 1.367 . S
C821 C823 1.433 . S
C822 C818 1.350 . S
C822 C819 1.463 . S
C822 N826 1.427 . S
C823 H813 0.929 . S
C823 C821 1.433 . S
C823 N826 1.384 . S
C824 H815 0.929 . S
C824 C816 1.378 . S
C824 C819 1.350 . S
C825 H812 0.929 . S
C825 C817 1.433 . S
C825 N827 1.384 . S
N826 C822 1.427 . S
N826 C823 1.384 . S
N827 C819 1.427 . S
N827 C825 1.384 . S
H828 C834 0.930 . S
H829 C838 0.930 . S
H830 C843 0.929 . S
H831 C841 0.929 . S
H832 C836 0.929 . S
H833 C842 0.929 . S
C834 H828 0.930 . S
C834 C835 1.367 . S
C834 C842 1.378 . S
C835 C834 1.367 . S
C835 C843 1.433 . S
C836 H832 0.929 . S
C836 C838 1.378 . S
C836 C840 1.350 . S
C837 C840 1.463 . S
C837 C842 1.350 . S
C837 N845 1.427 . S
C838 H829 0.930 . S
C838 C836 1.378 . S
C838 C839 1.367 . S
C839 C838 1.367 . S
C839 C841 1.433 . S
C840 C836 1.350 . S
C840 C837 1.463 . S
C840 N844 1.427 . S
C841 H831 0.929 . S
C841 C839 1.433 . S
C841 N844 1.384 . S
C842 H833 0.929 . S
C842 C834 1.378 . S
C842 C837 1.350 . S
C843 H830 0.929 . S
C843 C835 1.433 . S
C843 N845 1.384 . S
N844 C840 1.427 . S
N844 C841 1.384 . S
N845 C837 1.427 . S
N845 C843 1.384 . S
H846 C852 0.930 . S
H847 C856 0.930 . S
H848 C861 0.929 1_455 S
H849 C859 0.929 . S
H850 C854 0.929 1_545 S
H851 C860 0.929 . S
C852 H846 0.930 . S
C852 C853 1.367 . S
C852 C860 1.378 . S
C853 C852 1.367 . S
C853 C861 1.433 . S
C854 H850 0.929 1_565 S
C854 C856 1.378 1_565 S
C854 C858 1.350 . S
C855 C858 1.463 . S
C855 C860 1.350 . S
C855 N863 1.427 . S
C856 H847 0.930 . S
C856 C854 1.378 1_545 S
C856 C857 1.367 1_545 S
C857 C856 1.367 1_565 S
C857 C859 1.433 . S
C858 C854 1.350 . S
C858 C855 1.463 . S
C858 N862 1.427 . S
C859 H849 0.929 . S
C859 C857 1.433 . S
C859 N862 1.384 . S
C860 H851 0.929 . S
C860 C852 1.378 . S
C860 C855 1.350 . S
C861 H848 0.929 1_655 S
C861 C853 1.433 . S
C861 N863 1.384 . S
N862 C858 1.427 . S
N862 C859 1.384 . S
N863 C855 1.427 . S
N863 C861 1.384 . S
H864 C870 0.930 . S
H865 C874 0.930 . S
H866 C879 0.929 . S
H867 C877 0.929 . S
H868 C872 0.929 . S
H869 C878 0.929 . S
C870 H864 0.930 . S
C870 C871 1.367 . S
C870 C878 1.378 . S
C871 C870 1.367 . S
C871 C879 1.433 . S
C872 H868 0.929 . S
C872 C874 1.378 . S
C872 C876 1.350 . S
C873 C876 1.463 . S
C873 C878 1.350 . S
C873 N881 1.427 . S
C874 H865 0.930 . S
C874 C872 1.378 . S
C874 C875 1.367 . S
C875 C874 1.367 . S
C875 C877 1.433 . S
C876 C872 1.350 . S
C876 C873 1.463 . S
C876 N880 1.427 . S
C877 H867 0.929 . S
C877 C875 1.433 . S
C877 N880 1.384 . S
C878 H869 0.929 . S
C878 C870 1.378 . S
C878 C873 1.350 . S
C879 H866 0.929 . S
C879 C871 1.433 . S
C879 N881 1.384 . S
N880 C876 1.427 . S
N880 C877 1.384 . S
N881 C873 1.427 . S
N881 C879 1.384 . S
H882 C888 0.930 . S
H883 C892 0.930 . S
H884 C897 0.929 . S
H885 C895 0.929 . S
H886 C890 0.929 . S
H887 C896 0.929 . S
C888 H882 0.930 . S
C888 C889 1.367 . S
C888 C896 1.378 . S
C889 C888 1.367 . S
C889 C897 1.433 . S
C890 H886 0.929 . S
C890 C892 1.378 . S
C890 C894 1.350 . S
C891 C894 1.463 . S
C891 C896 1.350 . S
C891 N899 1.427 . S
C892 H883 0.930 . S
C892 C890 1.378 . S
C892 C893 1.367 . S
C893 C892 1.367 . S
C893 C895 1.433 . S
C894 C890 1.350 . S
C894 C891 1.463 . S
C894 N898 1.427 . S
C895 H885 0.929 . S
C895 C893 1.433 . S
C895 N898 1.384 . S
C896 H887 0.929 . S
C896 C888 1.378 . S
C896 C891 1.350 . S
C897 H884 0.929 . S
C897 C889 1.433 . S
C897 N899 1.384 . S
N898 C894 1.427 . S
N898 C895 1.384 . S
N899 C891 1.427 . S
N899 C897 1.384 . S
H900 C906 0.930 . S
H901 C910 0.930 . S
H902 C915 0.929 . S
H903 C913 0.929 . S
H904 C908 0.929 . S
H905 C914 0.929 . S
C906 H900 0.930 . S
C906 C907 1.367 . S
C906 C914 1.378 . S
C907 C906 1.367 . S
C907 C915 1.433 . S
C908 H904 0.929 . S
C908 C910 1.378 . S
C908 C912 1.350 . S
C909 C912 1.463 . S
C909 C914 1.350 . S
C909 N917 1.427 . S
C910 H901 0.930 . S
C910 C908 1.378 . S
C910 C911 1.367 . S
C911 C910 1.367 . S
C911 C913 1.433 . S
C912 C908 1.350 . S
C912 C909 1.463 . S
C912 N916 1.427 . S
C913 H903 0.929 . S
C913 C911 1.433 . S
C913 N916 1.384 . S
C914 H905 0.929 . S
C914 C906 1.378 . S
C914 C909 1.350 . S
C915 H902 0.929 . S
C915 C907 1.433 . S
C915 N917 1.384 . S
N916 C912 1.427 . S
N916 C913 1.384 . S
N917 C909 1.427 . S
N917 C915 1.384 . S
H918 C924 0.930 . S
H919 C928 0.930 . S
H920 C933 0.929 . S
H921 C931 0.929 . S
H922 C926 0.929 . S
H923 C932 0.929 . S
C924 H918 0.930 . S
C924 C925 1.367 . S
C924 C932 1.378 . S
C925 C924 1.367 . S
C925 C933 1.433 . S
C926 H922 0.929 . S
C926 C928 1.378 . S
C926 C930 1.350 1_545 S
C927 C930 1.463 . S
C927 C932 1.350 . S
C927 N935 1.427 . S
C928 H919 0.930 . S
C928 C926 1.378 . S
C928 C929 1.367 1_545 S
C929 C928 1.367 1_565 S
C929 C931 1.433 . S
C930 C926 1.350 1_565 S
C930 C927 1.463 . S
C930 N934 1.427 . S
C931 H921 0.929 . S
C931 C929 1.433 . S
C931 N934 1.384 . S
C932 H923 0.929 . S
C932 C924 1.378 . S
C932 C927 1.350 . S
C933 H920 0.929 . S
C933 C925 1.433 . S
C933 N935 1.384 . S
N934 C930 1.427 . S
N934 C931 1.384 . S
N935 C927 1.427 . S
N935 C933 1.384 . S
H936 C942 0.930 . S
H937 C946 0.930 . S
H938 C951 0.929 . S
H939 C949 0.929 . S
H940 C944 0.929 . S
H941 C950 0.929 . S
C942 H936 0.930 . S
C942 C943 1.367 . S
C942 C950 1.378 . S
C943 C942 1.367 . S
C943 C951 1.433 . S
C944 H940 0.929 . S
C944 C946 1.378 . S
C944 C948 1.350 . S
C945 C948 1.463 . S
C945 C950 1.350 . S
C945 N953 1.427 . S
C946 H937 0.930 . S
C946 C944 1.378 . S
C946 C947 1.367 . S
C947 C946 1.367 . S
C947 C949 1.433 . S
C948 C944 1.350 . S
C948 C945 1.463 . S
C948 N952 1.427 . S
C949 H939 0.929 . S
C949 C947 1.433 . S
C949 N952 1.384 . S
C950 H941 0.929 . S
C950 C942 1.378 . S
C950 C945 1.350 . S
C951 H938 0.929 . S
C951 C943 1.433 . S
C951 N953 1.384 . S
N952 C948 1.427 . S
N952 C949 1.384 . S
N953 C945 1.427 . S
N953 C951 1.384 . S
H954 C960 0.930 . S
H955 C964 0.930 . S
H956 C969 0.929 . S
H957 C967 0.929 . S
H958 C962 0.929 . S
H959 C968 0.929 . S
C960 H954 0.930 . S
C960 C961 1.367 . S
C960 C968 1.378 . S
C961 C960 1.367 . S
C961 C969 1.433 . S
C962 H958 0.929 . S
C962 C964 1.378 . S
C962 C966 1.350 . S
C963 C966 1.463 . S
C963 C968 1.350 . S
C963 N971 1.427 . S
C964 H955 0.930 . S
C964 C962 1.378 . S
C964 C965 1.367 . S
C965 C964 1.367 . S
C965 C967 1.433 . S
C966 C962 1.350 . S
C966 C963 1.463 . S
C966 N970 1.427 . S
C967 H957 0.929 . S
C967 C965 1.433 . S
C967 N970 1.384 . S
C968 H959 0.929 . S
C968 C960 1.378 . S
C968 C963 1.350 . S
C969 H956 0.929 . S
C969 C961 1.433 . S
C969 N971 1.384 . S
N970 C966 1.427 . S
N970 C967 1.384 . S
N971 C963 1.427 . S
N971 C969 1.384 . S
H972 C978 0.930 . S
H973 C982 0.930 . S
H974 C987 0.929 . S
H975 C985 0.929 . S
H976 C980 0.929 . S
H977 C986 0.929 . S
C978 H972 0.930 . S
C978 C979 1.367 . S
C978 C986 1.378 . S
C979 C978 1.367 . S
C979 C987 1.433 . S
C980 H976 0.929 . S
C980 C982 1.378 . S
C980 C984 1.350 . S
C981 C984 1.463 . S
C981 C986 1.350 . S
C981 N989 1.427 . S
C982 H973 0.930 . S
C982 C980 1.378 . S
C982 C983 1.367 . S
C983 C982 1.367 . S
C983 C985 1.433 . S
C984 C980 1.350 . S
C984 C981 1.463 . S
C984 N988 1.427 . S
C985 H975 0.929 . S
C985 C983 1.433 . S
C985 N988 1.384 . S
C986 H977 0.929 . S
C986 C978 1.378 . S
C986 C981 1.350 . S
C987 H974 0.929 . S
C987 C979 1.433 . S
C987 N989 1.384 . S
N988 C984 1.427 . S
N988 C985 1.384 . S
N989 C981 1.427 . S
N989 C987 1.384 . S
H990 C996 0.930 . S
H991 C1000 0.930 . S
H992 C1005 0.929 . S
H993 C1003 0.929 . S
H994 C998 0.929 . S
H995 C1004 0.929 . S
C996 H990 0.930 . S
C996 C997 1.367 . S
C996 C1004 1.378 . S
C997 C996 1.367 . S
C997 C1005 1.433 . S
C998 H994 0.929 . S
C998 C1000 1.378 . S
C998 C1002 1.350 . S
C999 C1002 1.463 . S
C999 C1004 1.350 . S
C999 N1007 1.427 . S
C1000 H991 0.930 . S
C1000 C998 1.378 . S
C1000 C1001 1.367 . S
C1001 C1000 1.367 . S
C1001 C1003 1.433 . S
C1002 C998 1.350 . S
C1002 C999 1.463 . S
C1002 N1006 1.427 . S
C1003 H993 0.929 . S
C1003 C1001 1.433 . S
C1003 N1006 1.384 . S
C1004 H995 0.929 . S
C1004 C996 1.378 . S
C1004 C999 1.350 . S
C1005 H992 0.929 . S
C1005 C997 1.433 . S
C1005 N1007 1.384 . S
N1006 C1002 1.427 . S
N1006 C1003 1.384 . S
N1007 C999 1.427 . S
N1007 C1005 1.384 . S
H1008 C1014 0.930 . S
H1009 C1018 0.930 . S
H1010 C1023 0.929 . S
H1011 C1021 0.929 . S
H1012 C1016 0.929 . S
H1013 C1022 0.929 . S
C1014 H1008 0.930 . S
C1014 C1015 1.367 . S
C1014 C1022 1.378 . S
C1015 C1014 1.367 . S
C1015 C1023 1.433 . S
C1016 H1012 0.929 . S
C1016 C1018 1.378 . S
C1016 C1020 1.350 . S
C1017 C1020 1.463 . S
C1017 C1022 1.350 . S
C1017 N1025 1.427 . S
C1018 H1009 0.930 . S
C1018 C1016 1.378 . S
C1018 C1019 1.367 . S
C1019 C1018 1.367 . S
C1019 C1021 1.433 . S
C1020 C1016 1.350 . S
C1020 C1017 1.463 . S
C1020 N1024 1.427 . S
C1021 H1011 0.929 . S
C1021 C1019 1.433 . S
C1021 N1024 1.384 . S
C1022 H1013 0.929 . S
C1022 C1014 1.378 . S
C1022 C1017 1.350 . S
C1023 H1010 0.929 . S
C1023 C1015 1.433 . S
C1023 N1025 1.384 . S
N1024 C1020 1.427 . S
N1024 C1021 1.384 . S
N1025 C1017 1.427 . S
N1025 C1023 1.384 . S
H1026 C1032 0.930 . S
H1027 C1036 0.930 . S
H1028 C1041 0.929 . S
H1029 C1039 0.929 . S
H1030 C1034 0.929 . S
H1031 C1040 0.929 . S
C1032 H1026 0.930 . S
C1032 C1033 1.367 . S
C1032 C1040 1.378 . S
C1033 C1032 1.367 . S
C1033 C1041 1.433 . S
C1034 H1030 0.929 . S
C1034 C1036 1.378 . S
C1034 C1038 1.350 . S
C1035 C1038 1.463 . S
C1035 C1040 1.350 . S
C1035 N1043 1.427 . S
C1036 H1027 0.930 . S
C1036 C1034 1.378 . S
C1036 C1037 1.367 . S
C1037 C1036 1.367 . S
C1037 C1039 1.433 . S
C1038 C1034 1.350 . S
C1038 C1035 1.463 . S
C1038 N1042 1.427 . S
C1039 H1029 0.929 . S
C1039 C1037 1.433 . S
C1039 N1042 1.384 . S
C1040 H1031 0.929 . S
C1040 C1032 1.378 . S
C1040 C1035 1.350 . S
C1041 H1028 0.929 . S
C1041 C1033 1.433 . S
C1041 N1043 1.384 . S
N1042 C1038 1.427 . S
N1042 C1039 1.384 . S
N1043 C1035 1.427 . S
N1043 C1041 1.384 . S
H1044 C1050 0.930 . S
H1045 C1054 0.930 . S
H1046 C1059 0.929 . S
H1047 C1057 0.929 . S
H1048 C1052 0.929 . S
H1049 C1058 0.929 . S
C1050 H1044 0.930 . S
C1050 C1051 1.367 . S
C1050 C1058 1.378 . S
C1051 C1050 1.367 . S
C1051 C1059 1.433 . S
C1052 H1048 0.929 . S
C1052 C1054 1.378 . S
C1052 C1056 1.350 . S
C1053 C1056 1.463 . S
C1053 C1058 1.350 . S
C1053 N1061 1.427 . S
C1054 H1045 0.930 . S
C1054 C1052 1.378 . S
C1054 C1055 1.367 . S
C1055 C1054 1.367 . S
C1055 C1057 1.433 . S
C1056 C1052 1.350 . S
C1056 C1053 1.463 . S
C1056 N1060 1.427 . S
C1057 H1047 0.929 . S
C1057 C1055 1.433 . S
C1057 N1060 1.384 . S
C1058 H1049 0.929 . S
C1058 C1050 1.378 . S
C1058 C1053 1.350 . S
C1059 H1046 0.929 . S
C1059 C1051 1.433 . S
C1059 N1061 1.384 . S
N1060 C1056 1.427 . S
N1060 C1057 1.384 . S
N1061 C1053 1.427 . S
N1061 C1059 1.384 . S
H1062 C1068 0.930 . S
H1063 C1072 0.930 . S
H1064 C1077 0.929 1_455 S
H1065 C1075 0.929 . S
H1066 C1070 0.929 . S
H1067 C1076 0.929 . S
C1068 H1062 0.930 . S
C1068 C1069 1.367 . S
C1068 C1076 1.378 . S
C1069 C1068 1.367 . S
C1069 C1077 1.433 . S
C1070 H1066 0.929 . S
C1070 C1072 1.378 . S
C1070 C1074 1.350 1_455 S
C1071 C1074 1.463 . S
C1071 C1076 1.350 . S
C1071 N1079 1.427 . S
C1072 H1063 0.930 . S
C1072 C1070 1.378 . S
C1072 C1073 1.367 1_455 S
C1073 C1072 1.367 1_655 S
C1073 C1075 1.433 . S
C1074 C1070 1.350 1_655 S
C1074 C1071 1.463 . S
C1074 N1078 1.427 . S
C1075 H1065 0.929 . S
C1075 C1073 1.433 . S
C1075 N1078 1.384 . S
C1076 H1067 0.929 . S
C1076 C1068 1.378 . S
C1076 C1071 1.350 . S
C1077 H1064 0.929 1_655 S
C1077 C1069 1.433 . S
C1077 N1079 1.384 . S
N1078 C1074 1.427 . S
N1078 C1075 1.384 . S
N1079 C1071 1.427 . S
N1079 C1077 1.384 . S
H1080 C1086 0.930 . S
H1081 C1090 0.930 . S
H1082 C1095 0.929 . S
H1083 C1093 0.929 . S
H1084 C1088 0.929 . S
H1085 C1094 0.929 . S
C1086 H1080 0.930 . S
C1086 C1087 1.367 . S
C1086 C1094 1.378 . S
C1087 C1086 1.367 . S
C1087 C1095 1.433 . S
C1088 H1084 0.929 . S
C1088 C1090 1.378 . S
C1088 C1092 1.350 . S
C1089 C1092 1.463 . S
C1089 C1094 1.350 . S
C1089 N1097 1.427 . S
C1090 H1081 0.930 . S
C1090 C1088 1.378 . S
C1090 C1091 1.367 . S
C1091 C1090 1.367 . S
C1091 C1093 1.433 . S
C1092 C1088 1.350 . S
C1092 C1089 1.463 . S
C1092 N1096 1.427 . S
C1093 H1083 0.929 . S
C1093 C1091 1.433 . S
C1093 N1096 1.384 . S
C1094 H1085 0.929 . S
C1094 C1086 1.378 . S
C1094 C1089 1.350 . S
C1095 H1082 0.929 . S
C1095 C1087 1.433 . S
C1095 N1097 1.384 . S
N1096 C1092 1.427 . S
N1096 C1093 1.384 . S
N1097 C1089 1.427 . S
N1097 C1095 1.384 . S
H1098 C1104 0.930 . S
H1099 C1108 0.930 . S
H1100 C1113 0.929 . S
H1101 C1111 0.929 . S
H1102 C1106 0.929 . S
H1103 C1112 0.929 . S
C1104 H1098 0.930 . S
C1104 C1105 1.367 . S
C1104 C1112 1.378 . S
C1105 C1104 1.367 . S
C1105 C1113 1.433 . S
C1106 H1102 0.929 . S
C1106 C1108 1.378 . S
C1106 C1110 1.350 . S
C1107 C1110 1.463 . S
C1107 C1112 1.350 . S
C1107 N1115 1.427 . S
C1108 H1099 0.930 . S
C1108 C1106 1.378 . S
C1108 C1109 1.367 . S
C1109 C1108 1.367 . S
C1109 C1111 1.433 . S
C1110 C1106 1.350 . S
C1110 C1107 1.463 . S
C1110 N1114 1.427 . S
C1111 H1101 0.929 . S
C1111 C1109 1.433 . S
C1111 N1114 1.384 . S
C1112 H1103 0.929 . S
C1112 C1104 1.378 . S
C1112 C1107 1.350 . S
C1113 H1100 0.929 . S
C1113 C1105 1.433 . S
C1113 N1115 1.384 . S
N1114 C1110 1.427 . S
N1114 C1111 1.384 . S
N1115 C1107 1.427 . S
N1115 C1113 1.384 . S
H1116 C1122 0.930 1_545 S
H1117 C1126 0.930 1_554 S
H1118 C1131 0.929 . S
H1119 C1129 0.929 . S
H1120 C1124 0.929 . S
H1121 C1130 0.929 . S
C1122 H1116 0.930 1_565 S
C1122 C1123 1.367 . S
C1122 C1130 1.378 . S
C1123 C1122 1.367 . S
C1123 C1131 1.433 . S
C1124 H1120 0.929 . S
C1124 C1126 1.378 . S
C1124 C1128 1.350 . S
C1125 C1128 1.463 . S
C1125 C1130 1.350 . S
C1125 N1133 1.427 . S
C1126 H1117 0.930 1_556 S
C1126 C1124 1.378 . S
C1126 C1127 1.367 . S
C1127 C1126 1.367 . S
C1127 C1129 1.433 . S
C1128 C1124 1.350 . S
C1128 C1125 1.463 . S
C1128 N1132 1.427 . S
C1129 H1119 0.929 . S
C1129 C1127 1.433 . S
C1129 N1132 1.384 . S
C1130 H1121 0.929 . S
C1130 C1122 1.378 . S
C1130 C1125 1.350 . S
C1131 H1118 0.929 . S
C1131 C1123 1.433 . S
C1131 N1133 1.384 . S
N1132 C1128 1.427 . S
N1132 C1129 1.384 . S
N1133 C1125 1.427 . S
N1133 C1131 1.384 . S
H1134 C1140 0.930 . S
H1135 C1144 0.930 . S
H1136 C1149 0.929 . S
H1137 C1147 0.929 . S
H1138 C1142 0.929 . S
H1139 C1148 0.929 . S
C1140 H1134 0.930 . S
C1140 C1141 1.367 . S
C1140 C1148 1.378 . S
C1141 C1140 1.367 . S
C1141 C1149 1.433 . S
C1142 H1138 0.929 . S
C1142 C1144 1.378 . S
C1142 C1146 1.350 . S
C1143 C1146 1.463 . S
C1143 C1148 1.350 . S
C1143 N1151 1.427 . S
C1144 H1135 0.930 . S
C1144 C1142 1.378 . S
C1144 C1145 1.367 . S
C1145 C1144 1.367 . S
C1145 C1147 1.433 . S
C1146 C1142 1.350 . S
C1146 C1143 1.463 . S
C1146 N1150 1.427 . S
C1147 H1137 0.929 . S
C1147 C1145 1.433 . S
C1147 N1150 1.384 . S
C1148 H1139 0.929 . S
C1148 C1140 1.378 . S
C1148 C1143 1.350 . S
C1149 H1136 0.929 . S
C1149 C1141 1.433 . S
C1149 N1151 1.384 . S
N1150 C1146 1.427 . S
N1150 C1147 1.384 . S
N1151 C1143 1.427 . S
N1151 C1149 1.384 . S
H1152 C1158 0.930 . S
H1153 C1162 0.930 . S
H1154 C1167 0.929 . S
H1155 C1165 0.929 . S
H1156 C1160 0.929 . S
H1157 C1166 0.929 . S
C1158 H1152 0.930 . S
C1158 C1159 1.367 . S
C1158 C1166 1.378 . S
C1159 C1158 1.367 . S
C1159 C1167 1.433 . S
C1160 H1156 0.929 . S
C1160 C1162 1.378 . S
C1160 C1164 1.350 . S
C1161 C1164 1.463 . S
C1161 C1166 1.350 . S
C1161 N1169 1.427 . S
C1162 H1153 0.930 . S
C1162 C1160 1.378 . S
C1162 C1163 1.367 . S
C1163 C1162 1.367 . S
C1163 C1165 1.433 . S
C1164 C1160 1.350 . S
C1164 C1161 1.463 . S
C1164 N1168 1.427 . S
C1165 H1155 0.929 . S
C1165 C1163 1.433 . S
C1165 N1168 1.384 . S
C1166 H1157 0.929 . S
C1166 C1158 1.378 . S
C1166 C1161 1.350 . S
C1167 H1154 0.929 . S
C1167 C1159 1.433 . S
C1167 N1169 1.384 . S
N1168 C1164 1.427 . S
N1168 C1165 1.384 . S
N1169 C1161 1.427 . S
N1169 C1167 1.384 . S
H1170 C1176 0.930 . S
H1171 C1180 0.930 . S
H1172 C1185 0.929 . S
H1173 C1183 0.929 . S
H1174 C1178 0.929 . S
H1175 C1184 0.929 . S
C1176 H1170 0.930 . S
C1176 C1177 1.367 . S
C1176 C1184 1.378 . S
C1177 C1176 1.367 . S
C1177 C1185 1.433 . S
C1178 H1174 0.929 . S
C1178 C1180 1.378 . S
C1178 C1182 1.350 . S
C1179 C1182 1.463 . S
C1179 C1184 1.350 . S
C1179 N1187 1.427 . S
C1180 H1171 0.930 . S
C1180 C1178 1.378 . S
C1180 C1181 1.367 . S
C1181 C1180 1.367 . S
C1181 C1183 1.433 . S
C1182 C1178 1.350 . S
C1182 C1179 1.463 . S
C1182 N1186 1.427 . S
C1183 H1173 0.929 . S
C1183 C1181 1.433 . S
C1183 N1186 1.384 . S
C1184 H1175 0.929 . S
C1184 C1176 1.378 . S
C1184 C1179 1.350 . S
C1185 H1172 0.929 . S
C1185 C1177 1.433 . S
C1185 N1187 1.384 . S
N1186 C1182 1.427 . S
N1186 C1183 1.384 . S
N1187 C1179 1.427 . S
N1187 C1185 1.384 . S
H1188 C1194 0.930 . S
H1189 C1198 0.930 . S
H1190 C1203 0.929 . S
H1191 C1201 0.929 . S
H1192 C1196 0.929 . S
H1193 C1202 0.929 . S
C1194 H1188 0.930 . S
C1194 C1195 1.367 . S
C1194 C1202 1.378 . S
C1195 C1194 1.367 . S
C1195 C1203 1.433 . S
C1196 H1192 0.929 . S
C1196 C1198 1.378 . S
C1196 C1200 1.350 . S
C1197 C1200 1.463 . S
C1197 C1202 1.350 . S
C1197 N1205 1.427 . S
C1198 H1189 0.930 . S
C1198 C1196 1.378 . S
C1198 C1199 1.367 . S
C1199 C1198 1.367 . S
C1199 C1201 1.433 . S
C1200 C1196 1.350 . S
C1200 C1197 1.463 . S
C1200 N1204 1.427 . S
C1201 H1191 0.929 . S
C1201 C1199 1.433 . S
C1201 N1204 1.384 . S
C1202 H1193 0.929 . S
C1202 C1194 1.378 . S
C1202 C1197 1.350 . S
C1203 H1190 0.929 . S
C1203 C1195 1.433 . S
C1203 N1205 1.384 . S
N1204 C1200 1.427 . S
N1204 C1201 1.384 . S
N1205 C1197 1.427 . S
N1205 C1203 1.384 . S
H1206 C1212 0.930 . S
H1207 C1216 0.930 . S
H1208 C1221 0.929 . S
H1209 C1219 0.929 . S
H1210 C1214 0.929 . S
H1211 C1220 0.929 . S
C1212 H1206 0.930 . S
C1212 C1213 1.367 . S
C1212 C1220 1.378 . S
C1213 C1212 1.367 . S
C1213 C1221 1.433 . S
C1214 H1210 0.929 . S
C1214 C1216 1.378 . S
C1214 C1218 1.350 . S
C1215 C1218 1.463 . S
C1215 C1220 1.350 . S
C1215 N1223 1.427 . S
C1216 H1207 0.930 . S
C1216 C1214 1.378 . S
C1216 C1217 1.367 . S
C1217 C1216 1.367 . S
C1217 C1219 1.433 . S
C1218 C1214 1.350 . S
C1218 C1215 1.463 . S
C1218 N1222 1.427 . S
C1219 H1209 0.929 . S
C1219 C1217 1.433 . S
C1219 N1222 1.384 . S
C1220 H1211 0.929 . S
C1220 C1212 1.378 . S
C1220 C1215 1.350 . S
C1221 H1208 0.929 . S
C1221 C1213 1.433 . S
C1221 N1223 1.384 . S
N1222 C1218 1.427 . S
N1222 C1219 1.384 . S
N1223 C1215 1.427 . S
N1223 C1221 1.384 . S
H1224 C1230 0.930 . S
H1225 C1234 0.930 . S
H1226 C1239 0.929 . S
H1227 C1237 0.929 . S
H1228 C1232 0.929 . S
H1229 C1238 0.929 . S
C1230 H1224 0.930 . S
C1230 C1231 1.367 . S
C1230 C1238 1.378 . S
C1231 C1230 1.367 . S
C1231 C1239 1.433 . S
C1232 H1228 0.929 . S
C1232 C1234 1.378 . S
C1232 C1236 1.350 . S
C1233 C1236 1.463 . S
C1233 C1238 1.350 . S
C1233 N1241 1.427 . S
C1234 H1225 0.930 . S
C1234 C1232 1.378 . S
C1234 C1235 1.367 . S
C1235 C1234 1.367 . S
C1235 C1237 1.433 . S
C1236 C1232 1.350 . S
C1236 C1233 1.463 . S
C1236 N1240 1.427 . S
C1237 H1227 0.929 . S
C1237 C1235 1.433 . S
C1237 N1240 1.384 . S
C1238 H1229 0.929 . S
C1238 C1230 1.378 . S
C1238 C1233 1.350 . S
C1239 H1226 0.929 . S
C1239 C1231 1.433 . S
C1239 N1241 1.384 . S
N1240 C1236 1.427 . S
N1240 C1237 1.384 . S
N1241 C1233 1.427 . S
N1241 C1239 1.384 . S
H1242 C1248 0.930 . S
H1243 C1252 0.939 . S
H1244 C1257 0.929 . S
H1245 C1255 0.929 . S
H1246 C1250 0.929 1_565 S
H1247 C1256 0.929 . S
C1248 H1242 0.930 . S
C1248 C1249 1.367 . S
C1248 C1256 1.378 . S
C1249 C1248 1.367 . S
C1249 C1257 1.433 . S
C1250 H1246 0.929 1_545 S
C1250 C1252 1.376 1_545 S
C1250 C1254 1.350 . S
C1251 C1254 1.463 . S
C1251 C1256 1.350 . S
C1251 N1259 1.427 . S
C1252 H1243 0.939 . S
C1252 C1250 1.376 1_565 S
C1252 C1253 1.360 1_565 S
C1253 C1252 1.360 1_545 S
C1253 C1255 1.433 . S
C1254 C1250 1.350 . S
C1254 C1251 1.463 . S
C1254 N1258 1.427 . S
C1255 H1245 0.929 . S
C1255 C1253 1.433 . S
C1255 N1258 1.384 . S
C1256 H1247 0.929 . S
C1256 C1248 1.378 . S
C1256 C1251 1.350 . S
C1257 H1244 0.929 . S
C1257 C1249 1.433 . S
C1257 N1259 1.384 . S
N1258 C1254 1.427 . S
N1258 C1255 1.384 . S
N1259 C1251 1.427 . S
N1259 C1257 1.384 . S
H1260 C1266 0.930 . S
H1261 C1270 0.930 . S
H1262 C1275 0.929 . S
H1263 C1273 0.929 . S
H1264 C1268 0.929 . S
H1265 C1274 0.929 . S
C1266 H1260 0.930 . S
C1266 C1267 1.367 . S
C1266 C1274 1.378 . S
C1267 C1266 1.367 . S
C1267 C1275 1.433 . S
C1268 H1264 0.929 . S
C1268 C1270 1.378 . S
C1268 C1272 1.350 . S
C1269 C1272 1.463 . S
C1269 C1274 1.350 . S
C1269 N1277 1.427 . S
C1270 H1261 0.930 . S
C1270 C1268 1.378 . S
C1270 C1271 1.367 . S
C1271 C1270 1.367 . S
C1271 C1273 1.433 . S
C1272 C1268 1.350 . S
C1272 C1269 1.463 . S
C1272 N1276 1.427 . S
C1273 H1263 0.929 . S
C1273 C1271 1.433 . S
C1273 N1276 1.384 . S
C1274 H1265 0.929 . S
C1274 C1266 1.378 . S
C1274 C1269 1.350 . S
C1275 H1262 0.929 . S
C1275 C1267 1.433 . S
C1275 N1277 1.384 . S
N1276 C1272 1.427 . S
N1276 C1273 1.384 . S
N1277 C1269 1.427 . S
N1277 C1275 1.384 . S
H1278 C1284 0.930 . S
H1279 C1288 0.930 . S
H1280 C1293 0.929 . S
H1281 C1291 0.929 . S
H1282 C1286 0.929 . S
H1283 C1292 0.929 . S
C1284 H1278 0.930 . S
C1284 C1285 1.367 . S
C1284 C1292 1.378 . S
C1285 C1284 1.367 . S
C1285 C1293 1.433 . S
C1286 H1282 0.929 . S
C1286 C1288 1.378 . S
C1286 C1290 1.350 . S
C1287 C1290 1.463 . S
C1287 C1292 1.350 . S
C1287 N1295 1.427 . S
C1288 H1279 0.930 . S
C1288 C1286 1.378 . S
C1288 C1289 1.367 . S
C1289 C1288 1.367 . S
C1289 C1291 1.433 . S
C1290 C1286 1.350 . S
C1290 C1287 1.463 . S
C1290 N1294 1.427 . S
C1291 H1281 0.929 . S
C1291 C1289 1.433 . S
C1291 N1294 1.384 . S
C1292 H1283 0.929 . S
C1292 C1284 1.378 . S
C1292 C1287 1.350 . S
C1293 H1280 0.929 . S
C1293 C1285 1.433 . S
C1293 N1295 1.384 . S
N1294 C1290 1.427 . S
N1294 C1291 1.384 . S
N1295 C1287 1.427 . S
N1295 C1293 1.384 . S
H1296 C1302 0.930 . S
H1297 C1306 0.930 . S
H1298 C1311 0.929 . S
H1299 C1309 0.929 . S
H1300 C1304 0.929 . S
H1301 C1310 0.929 . S
C1302 H1296 0.930 . S
C1302 C1303 1.367 . S
C1302 C1310 1.378 . S
C1303 C1302 1.367 . S
C1303 C1311 1.433 . S
C1304 H1300 0.929 . S
C1304 C1306 1.378 . S
C1304 C1308 1.350 . S
C1305 C1308 1.463 . S
C1305 C1310 1.350 . S
C1305 N1313 1.427 . S
C1306 H1297 0.930 . S
C1306 C1304 1.378 . S
C1306 C1307 1.367 . S
C1307 C1306 1.367 . S
C1307 C1309 1.433 . S
C1308 C1304 1.350 . S
C1308 C1305 1.463 . S
C1308 N1312 1.427 . S
C1309 H1299 0.929 . S
C1309 C1307 1.433 . S
C1309 N1312 1.384 . S
C1310 H1301 0.929 . S
C1310 C1302 1.378 . S
C1310 C1305 1.350 . S
C1311 H1298 0.929 . S
C1311 C1303 1.433 . S
C1311 N1313 1.384 . S
N1312 C1308 1.427 . S
N1312 C1309 1.384 . S
N1313 C1305 1.427 . S
N1313 C1311 1.384 . S
H1314 C1320 0.969 . S
H1315 C1324 0.930 . S
H1316 C1329 0.929 . S
H1317 C1327 0.930 . S
H1318 C1322 0.929 . S
H1319 C1328 0.929 1_565 S
C1320 H1314 0.969 . S
C1320 C1321 1.367 . S
C1320 C1328 1.378 . S
C1321 C1320 1.367 . S
C1321 C1329 1.433 . S
C1322 H1318 0.929 . S
C1322 C1324 1.378 . S
C1322 C1326 1.350 . S
C1323 C1326 1.463 . S
C1323 C1328 1.350 . S
C1323 N1331 1.427 . S
C1324 H1315 0.930 . S
C1324 C1322 1.378 . S
C1324 C1325 1.367 . S
C1325 C1324 1.367 . S
C1325 C1327 1.433 1_545 S
C1326 C1322 1.350 . S
C1326 C1323 1.463 . S
C1326 N1330 1.427 . S
C1327 H1317 0.930 . S
C1327 C1325 1.433 1_565 S
C1327 N1330 1.383 1_565 S
C1328 H1319 0.929 1_545 S
C1328 C1320 1.378 . S
C1328 C1323 1.350 . S
C1329 H1316 0.929 . S
C1329 C1321 1.433 . S
C1329 N1331 1.384 . S
N1330 C1326 1.427 . S
N1330 C1327 1.383 1_545 S
N1331 C1323 1.427 . S
N1331 C1329 1.384 . S
H1332 C1338 0.930 . S
H1333 C1342 0.930 . S
H1334 C1347 0.929 . S
H1335 C1345 0.929 . S
H1336 C1340 0.929 . S
H1337 C1346 0.929 . S
C1338 H1332 0.930 . S
C1338 C1339 1.367 . S
C1338 C1346 1.378 . S
C1339 C1338 1.367 . S
C1339 C1347 1.433 . S
C1340 H1336 0.929 . S
C1340 C1342 1.378 . S
C1340 C1344 1.350 . S
C1341 C1344 1.463 . S
C1341 C1346 1.350 . S
C1341 N1349 1.427 . S
C1342 H1333 0.930 . S
C1342 C1340 1.378 . S
C1342 C1343 1.367 . S
C1343 C1342 1.367 . S
C1343 C1345 1.433 . S
C1344 C1340 1.350 . S
C1344 C1341 1.463 . S
C1344 N1348 1.427 . S
C1345 H1335 0.929 . S
C1345 C1343 1.433 . S
C1345 N1348 1.384 . S
C1346 H1337 0.929 . S
C1346 C1338 1.378 . S
C1346 C1341 1.350 . S
C1347 H1334 0.929 . S
C1347 C1339 1.433 . S
C1347 N1349 1.384 . S
N1348 C1344 1.427 . S
N1348 C1345 1.384 . S
N1349 C1341 1.427 . S
N1349 C1347 1.384 . S
H1350 C1356 0.930 . S
H1351 C1360 0.930 . S
H1352 C1365 0.929 . S
H1353 C1363 0.929 . S
H1354 C1358 0.929 . S
H1355 C1364 0.929 . S
C1356 H1350 0.930 . S
C1356 C1357 1.367 . S
C1356 C1364 1.378 . S
C1357 C1356 1.367 . S
C1357 C1365 1.433 . S
C1358 H1354 0.929 . S
C1358 C1360 1.378 . S
C1358 C1362 1.350 . S
C1359 C1362 1.463 . S
C1359 C1364 1.350 . S
C1359 N1367 1.427 . S
C1360 H1351 0.930 . S
C1360 C1358 1.378 . S
C1360 C1361 1.367 . S
C1361 C1360 1.367 . S
C1361 C1363 1.433 . S
C1362 C1358 1.350 . S
C1362 C1359 1.463 . S
C1362 N1366 1.427 . S
C1363 H1353 0.929 . S
C1363 C1361 1.433 . S
C1363 N1366 1.384 . S
C1364 H1355 0.929 . S
C1364 C1356 1.378 . S
C1364 C1359 1.350 . S
C1365 H1352 0.929 . S
C1365 C1357 1.433 . S
C1365 N1367 1.384 . S
N1366 C1362 1.427 . S
N1366 C1363 1.384 . S
N1367 C1359 1.427 . S
N1367 C1365 1.384 . S
H1368 C1374 0.930 . S
H1369 C1378 0.930 . S
H1370 C1383 0.929 . S
H1371 C1381 0.929 . S
H1372 C1376 0.929 . S
H1373 C1382 0.929 . S
C1374 H1368 0.930 . S
C1374 C1375 1.367 . S
C1374 C1382 1.378 . S
C1375 C1374 1.367 . S
C1375 C1383 1.433 . S
C1376 H1372 0.929 . S
C1376 C1378 1.378 . S
C1376 C1380 1.350 . S
C1377 C1380 1.463 . S
C1377 C1382 1.350 . S
C1377 N1385 1.427 . S
C1378 H1369 0.930 . S
C1378 C1376 1.378 . S
C1378 C1379 1.367 . S
C1379 C1378 1.367 . S
C1379 C1381 1.433 . S
C1380 C1376 1.350 . S
C1380 C1377 1.463 . S
C1380 N1384 1.427 . S
C1381 H1371 0.929 . S
C1381 C1379 1.433 . S
C1381 N1384 1.384 . S
C1382 H1373 0.929 . S
C1382 C1374 1.378 . S
C1382 C1377 1.350 . S
C1383 H1370 0.929 . S
C1383 C1375 1.433 . S
C1383 N1385 1.384 . S
N1384 C1380 1.427 . S
N1384 C1381 1.384 . S
N1385 C1377 1.427 . S
N1385 C1383 1.384 . S
H1386 C1392 0.933 1_554 S
H1387 C1396 0.930 . S
H1388 C1401 0.929 . S
H1389 C1399 0.929 . S
H1390 C1394 0.929 . S
H1391 C1400 0.929 1_455 S
C1392 H1386 0.933 1_556 S
C1392 C1393 1.367 . S
C1392 C1400 1.378 . S
C1393 C1392 1.367 . S
C1393 C1401 1.433 . S
C1394 H1390 0.929 . S
C1394 C1396 1.378 . S
C1394 C1398 1.350 . S
C1395 C1398 1.463 . S
C1395 C1400 1.350 . S
C1395 N1403 1.427 . S
C1396 H1387 0.930 . S
C1396 C1394 1.378 . S
C1396 C1397 1.367 . S
C1397 C1396 1.367 . S
C1397 C1399 1.433 1_655 S
C1398 C1394 1.350 . S
C1398 C1395 1.463 . S
C1398 N1402 1.427 . S
C1399 H1389 0.929 . S
C1399 C1397 1.433 1_455 S
C1399 N1402 1.384 1_455 S
C1400 H1391 0.929 1_655 S
C1400 C1392 1.378 . S
C1400 C1395 1.350 . S
C1401 H1388 0.929 . S
C1401 C1393 1.433 . S
C1401 N1403 1.384 . S
N1402 C1398 1.427 . S
N1402 C1399 1.384 1_655 S
N1403 C1395 1.427 . S
N1403 C1401 1.384 . S
H1404 C1410 0.930 . S
H1405 C1414 0.930 . S
H1406 C1419 0.929 . S
H1407 C1417 0.929 . S
H1408 C1412 0.929 . S
H1409 C1418 0.929 . S
C1410 H1404 0.930 . S
C1410 C1411 1.367 . S
C1410 C1418 1.378 . S
C1411 C1410 1.367 . S
C1411 C1419 1.433 . S
C1412 H1408 0.929 . S
C1412 C1414 1.378 . S
C1412 C1416 1.350 . S
C1413 C1416 1.463 . S
C1413 C1418 1.350 . S
C1413 N1421 1.427 . S
C1414 H1405 0.930 . S
C1414 C1412 1.378 . S
C1414 C1415 1.367 . S
C1415 C1414 1.367 . S
C1415 C1417 1.433 . S
C1416 C1412 1.350 . S
C1416 C1413 1.463 . S
C1416 N1420 1.427 . S
C1417 H1407 0.929 . S
C1417 C1415 1.433 . S
C1417 N1420 1.384 . S
C1418 H1409 0.929 . S
C1418 C1410 1.378 . S
C1418 C1413 1.350 . S
C1419 H1406 0.929 . S
C1419 C1411 1.433 . S
C1419 N1421 1.384 . S
N1420 C1416 1.427 . S
N1420 C1417 1.384 . S
N1421 C1413 1.427 . S
N1421 C1419 1.384 . S
H1422 C1428 0.881 1_554 S
H1423 C1432 0.930 . S
H1424 C1437 0.929 . S
H1425 C1435 0.929 . S
H1426 C1430 0.929 . S
H1427 C1436 0.929 . S
C1428 H1422 0.881 1_556 S
C1428 C1429 1.367 . S
C1428 C1436 1.378 . S
C1429 C1428 1.367 . S
C1429 C1437 1.433 . S
C1430 H1426 0.929 . S
C1430 C1432 1.378 . S
C1430 C1434 1.350 . S
C1431 C1434 1.463 . S
C1431 C1436 1.350 . S
C1431 N1439 1.427 . S
C1432 H1423 0.930 . S
C1432 C1430 1.378 . S
C1432 C1433 1.367 . S
C1433 C1432 1.367 . S
C1433 C1435 1.433 . S
C1434 C1430 1.350 . S
C1434 C1431 1.463 . S
C1434 N1438 1.427 . S
C1435 H1425 0.929 . S
C1435 C1433 1.433 . S
C1435 N1438 1.384 . S
C1436 H1427 0.929 . S
C1436 C1428 1.378 . S
C1436 C1431 1.350 . S
C1437 H1424 0.929 . S
C1437 C1429 1.433 . S
C1437 N1439 1.384 . S
N1438 C1434 1.427 . S
N1438 C1435 1.384 . S
N1439 C1431 1.427 . S
N1439 C1437 1.384 . S
H1440 C1446 0.930 . S
H1441 C1450 0.930 . S
H1442 C1455 0.929 . S
H1443 C1453 0.929 . S
H1444 C1448 0.929 . S
H1445 C1454 0.929 . S
C1446 H1440 0.930 . S
C1446 C1447 1.367 . S
C1446 C1454 1.378 . S
C1447 C1446 1.367 . S
C1447 C1455 1.433 . S
C1448 H1444 0.929 . S
C1448 C1450 1.378 . S
C1448 C1452 1.350 . S
C1449 C1452 1.463 . S
C1449 C1454 1.350 . S
C1449 N1457 1.427 . S
C1450 H1441 0.930 . S
C1450 C1448 1.378 . S
C1450 C1451 1.367 . S
C1451 C1450 1.367 . S
C1451 C1453 1.433 . S
C1452 C1448 1.350 . S
C1452 C1449 1.463 . S
C1452 N1456 1.427 . S
C1453 H1443 0.929 . S
C1453 C1451 1.433 . S
C1453 N1456 1.384 . S
C1454 H1445 0.929 . S
C1454 C1446 1.378 . S
C1454 C1449 1.350 . S
C1455 H1442 0.929 . S
C1455 C1447 1.433 . S
C1455 N1457 1.384 . S
N1456 C1452 1.427 . S
N1456 C1453 1.384 . S
N1457 C1449 1.427 . S
N1457 C1455 1.384 . S
H1458 C1464 0.930 . S
H1459 C1468 0.930 . S
H1460 C1473 0.929 . S
H1461 C1471 0.929 . S
H1462 C1466 0.929 . S
H1463 C1472 0.929 . S
C1464 H1458 0.930 . S
C1464 C1465 1.367 . S
C1464 C1472 1.378 . S
C1465 C1464 1.367 . S
C1465 C1473 1.433 . S
C1466 H1462 0.929 . S
C1466 C1468 1.378 . S
C1466 C1470 1.350 . S
C1467 C1470 1.463 . S
C1467 C1472 1.350 . S
C1467 N1475 1.427 . S
C1468 H1459 0.930 . S
C1468 C1466 1.378 . S
C1468 C1469 1.367 . S
C1469 C1468 1.367 . S
C1469 C1471 1.433 . S
C1470 C1466 1.350 . S
C1470 C1467 1.463 . S
C1470 N1474 1.427 . S
C1471 H1461 0.929 . S
C1471 C1469 1.433 . S
C1471 N1474 1.384 . S
C1472 H1463 0.929 . S
C1472 C1464 1.378 . S
C1472 C1467 1.350 . S
C1473 H1460 0.929 . S
C1473 C1465 1.433 . S
C1473 N1475 1.384 . S
N1474 C1470 1.427 . S
N1474 C1471 1.384 . S
N1475 C1467 1.427 . S
N1475 C1473 1.384 . S
H1476 C1482 0.930 . S
H1477 C1486 0.930 . S
H1478 C1491 0.929 . S
H1479 C1489 0.929 . S
H1480 C1484 0.929 . S
H1481 C1490 0.929 . S
C1482 H1476 0.930 . S
C1482 C1483 1.367 . S
C1482 C1490 1.378 . S
C1483 C1482 1.367 . S
C1483 C1491 1.433 . S
C1484 H1480 0.929 . S
C1484 C1486 1.378 . S
C1484 C1488 1.350 . S
C1485 C1488 1.463 . S
C1485 C1490 1.350 . S
C1485 N1493 1.427 . S
C1486 H1477 0.930 . S
C1486 C1484 1.378 . S
C1486 C1487 1.367 . S
C1487 C1486 1.367 . S
C1487 C1489 1.433 . S
C1488 C1484 1.350 . S
C1488 C1485 1.463 . S
C1488 N1492 1.427 . S
C1489 H1479 0.929 . S
C1489 C1487 1.433 . S
C1489 N1492 1.384 . S
C1490 H1481 0.929 . S
C1490 C1482 1.378 . S
C1490 C1485 1.350 . S
C1491 H1478 0.929 . S
C1491 C1483 1.433 . S
C1491 N1493 1.384 . S
N1492 C1488 1.427 . S
N1492 C1489 1.384 . S
N1493 C1485 1.427 . S
N1493 C1491 1.384 . S
H1494 C1500 0.930 . S
H1495 C1504 0.930 . S
H1496 C1509 0.929 . S
H1497 C1507 0.929 . S
H1498 C1502 0.929 . S
H1499 C1508 0.929 . S
C1500 H1494 0.930 . S
C1500 C1501 1.367 . S
C1500 C1508 1.378 . S
C1501 C1500 1.367 . S
C1501 C1509 1.433 . S
C1502 H1498 0.929 . S
C1502 C1504 1.378 . S
C1502 C1506 1.350 . S
C1503 C1506 1.463 . S
C1503 C1508 1.350 . S
C1503 N1511 1.427 . S
C1504 H1495 0.930 . S
C1504 C1502 1.378 . S
C1504 C1505 1.367 . S
C1505 C1504 1.367 . S
C1505 C1507 1.433 . S
C1506 C1502 1.350 . S
C1506 C1503 1.463 . S
C1506 N1510 1.427 . S
C1507 H1497 0.929 . S
C1507 C1505 1.433 . S
C1507 N1510 1.384 . S
C1508 H1499 0.929 . S
C1508 C1500 1.378 . S
C1508 C1503 1.350 . S
C1509 H1496 0.929 . S
C1509 C1501 1.433 . S
C1509 N1511 1.384 . S
N1510 C1506 1.427 . S
N1510 C1507 1.384 . S
N1511 C1503 1.427 . S
N1511 C1509 1.384 . S
H1512 C1518 0.930 . S
H1513 C1522 0.930 . S
H1514 C1527 0.929 . S
H1515 C1525 0.929 . S
H1516 C1520 0.929 . S
H1517 C1526 0.929 . S
C1518 H1512 0.930 . S
C1518 C1519 1.367 . S
C1518 C1526 1.378 . S
C1519 C1518 1.367 . S
C1519 C1527 1.433 . S
C1520 H1516 0.929 . S
C1520 C1522 1.378 . S
C1520 C1524 1.350 . S
C1521 C1524 1.463 . S
C1521 C1526 1.350 . S
C1521 N1529 1.427 . S
C1522 H1513 0.930 . S
C1522 C1520 1.378 . S
C1522 C1523 1.367 . S
C1523 C1522 1.367 . S
C1523 C1525 1.433 . S
C1524 C1520 1.350 . S
C1524 C1521 1.463 . S
C1524 N1528 1.427 . S
C1525 H1515 0.929 . S
C1525 C1523 1.433 . S
C1525 N1528 1.384 . S
C1526 H1517 0.929 . S
C1526 C1518 1.378 . S
C1526 C1521 1.350 . S
C1527 H1514 0.929 . S
C1527 C1519 1.433 . S
C1527 N1529 1.384 . S
N1528 C1524 1.427 . S
N1528 C1525 1.384 . S
N1529 C1521 1.427 . S
N1529 C1527 1.384 . S
H1530 C1536 0.930 . S
H1531 C1540 0.930 . S
H1532 C1545 0.929 . S
H1533 C1543 0.929 . S
H1534 C1538 0.929 . S
H1535 C1544 0.929 . S
C1536 H1530 0.930 . S
C1536 C1537 1.367 . S
C1536 C1544 1.378 . S
C1537 C1536 1.367 . S
C1537 C1545 1.433 . S
C1538 H1534 0.929 . S
C1538 C1540 1.378 . S
C1538 C1542 1.350 . S
C1539 C1542 1.463 . S
C1539 C1544 1.350 . S
C1539 N1547 1.427 . S
C1540 H1531 0.930 . S
C1540 C1538 1.378 . S
C1540 C1541 1.367 . S
C1541 C1540 1.367 . S
C1541 C1543 1.433 . S
C1542 C1538 1.350 . S
C1542 C1539 1.463 . S
C1542 N1546 1.427 . S
C1543 H1533 0.929 . S
C1543 C1541 1.433 . S
C1543 N1546 1.384 . S
C1544 H1535 0.929 . S
C1544 C1536 1.378 . S
C1544 C1539 1.350 . S
C1545 H1532 0.929 . S
C1545 C1537 1.433 . S
C1545 N1547 1.384 . S
N1546 C1542 1.427 . S
N1546 C1543 1.384 . S
N1547 C1539 1.427 . S
N1547 C1545 1.384 . S
H1548 C1554 0.930 . S
H1549 C1558 0.930 . S
H1550 C1563 0.929 . S
H1551 C1561 0.929 . S
H1552 C1556 0.929 . S
H1553 C1562 0.929 . S
C1554 H1548 0.930 . S
C1554 C1555 1.367 . S
C1554 C1562 1.378 . S
C1555 C1554 1.367 . S
C1555 C1563 1.433 . S
C1556 H1552 0.929 . S
C1556 C1558 1.378 . S
C1556 C1560 1.350 . S
C1557 C1560 1.463 . S
C1557 C1562 1.350 . S
C1557 N1565 1.427 . S
C1558 H1549 0.930 . S
C1558 C1556 1.378 . S
C1558 C1559 1.367 . S
C1559 C1558 1.367 . S
C1559 C1561 1.433 . S
C1560 C1556 1.350 . S
C1560 C1557 1.463 . S
C1560 N1564 1.427 . S
C1561 H1551 0.929 . S
C1561 C1559 1.433 . S
C1561 N1564 1.384 . S
C1562 H1553 0.929 . S
C1562 C1554 1.378 . S
C1562 C1557 1.350 . S
C1563 H1550 0.929 . S
C1563 C1555 1.433 . S
C1563 N1565 1.384 . S
N1564 C1560 1.427 . S
N1564 C1561 1.384 . S
N1565 C1557 1.427 . S
N1565 C1563 1.384 . S
H1566 C1572 0.930 . S
H1567 C1576 0.930 . S
H1568 C1581 0.929 . S
H1569 C1579 0.929 . S
H1570 C1574 0.929 . S
H1571 C1580 0.929 . S
C1572 H1566 0.930 . S
C1572 C1573 1.367 . S
C1572 C1580 1.378 . S
C1573 C1572 1.367 . S
C1573 C1581 1.433 . S
C1574 H1570 0.929 . S
C1574 C1576 1.378 . S
C1574 C1578 1.350 . S
C1575 C1578 1.463 . S
C1575 C1580 1.350 . S
C1575 N1583 1.427 . S
C1576 H1567 0.930 . S
C1576 C1574 1.378 . S
C1576 C1577 1.367 . S
C1577 C1576 1.367 . S
C1577 C1579 1.433 . S
C1578 C1574 1.350 . S
C1578 C1575 1.463 . S
C1578 N1582 1.427 . S
C1579 H1569 0.929 . S
C1579 C1577 1.433 . S
C1579 N1582 1.384 . S
C1580 H1571 0.929 . S
C1580 C1572 1.378 . S
C1580 C1575 1.350 . S
C1581 H1568 0.929 . S
C1581 C1573 1.433 . S
C1581 N1583 1.384 . S
N1582 C1578 1.427 . S
N1582 C1579 1.384 . S
N1583 C1575 1.427 . S
N1583 C1581 1.384 . S
H1584 C1590 0.930 . S
H1585 C1594 0.930 . S
H1586 C1599 0.929 . S
H1587 C1597 0.929 1_554 S
H1588 C1592 0.929 . S
H1589 C1598 0.929 . S
C1590 H1584 0.930 . S
C1590 C1591 1.367 . S
C1590 C1598 1.378 . S
C1591 C1590 1.367 . S
C1591 C1599 1.433 . S
C1592 H1588 0.929 . S
C1592 C1594 1.378 . S
C1592 C1596 1.350 . S
C1593 C1596 1.463 . S
C1593 C1598 1.350 . S
C1593 N1601 1.427 . S
C1594 H1585 0.930 . S
C1594 C1592 1.378 . S
C1594 C1595 1.367 . S
C1595 C1594 1.367 . S
C1595 C1597 1.433 . S
C1596 C1592 1.350 . S
C1596 C1593 1.463 . S
C1596 N1600 1.427 . S
C1597 H1587 0.929 1_556 S
C1597 C1595 1.433 . S
C1597 N1600 1.384 . S
C1598 H1589 0.929 . S
C1598 C1590 1.378 . S
C1598 C1593 1.350 . S
C1599 H1586 0.929 . S
C1599 C1591 1.433 . S
C1599 N1601 1.384 . S
N1600 C1596 1.427 . S
N1600 C1597 1.384 . S
N1601 C1593 1.427 . S
N1601 C1599 1.384 . S
H1602 C1608 0.930 . S
H1603 C1612 0.930 . S
H1604 C1617 0.929 . S
H1605 C1615 0.929 . S
H1606 C1610 0.929 . S
H1607 C1616 0.929 . S
C1608 H1602 0.930 . S
C1608 C1609 1.367 . S
C1608 C1616 1.378 . S
C1609 C1608 1.367 . S
C1609 C1617 1.433 . S
C1610 H1606 0.929 . S
C1610 C1612 1.378 . S
C1610 C1614 1.350 . S
C1611 C1614 1.463 . S
C1611 C1616 1.350 . S
C1611 N1619 1.427 . S
C1612 H1603 0.930 . S
C1612 C1610 1.378 . S
C1612 C1613 1.367 . S
C1613 C1612 1.367 . S
C1613 C1615 1.433 . S
C1614 C1610 1.350 . S
C1614 C1611 1.463 . S
C1614 N1618 1.427 . S
C1615 H1605 0.929 . S
C1615 C1613 1.433 . S
C1615 N1618 1.384 . S
C1616 H1607 0.929 . S
C1616 C1608 1.378 . S
C1616 C1611 1.350 . S
C1617 H1604 0.929 . S
C1617 C1609 1.433 . S
C1617 N1619 1.384 . S
N1618 C1614 1.427 . S
N1618 C1615 1.384 . S
N1619 C1611 1.427 . S
N1619 C1617 1.384 . S
H1620 C1626 0.930 . S
H1621 C1630 0.930 1_556 S
H1622 C1635 0.929 . S
H1623 C1633 0.929 . S
H1624 C1628 0.929 1_556 S
H1625 C1634 0.929 . S
C1626 H1620 0.930 . S
C1626 C1627 1.367 . S
C1626 C1634 1.378 . S
C1627 C1626 1.367 . S
C1627 C1635 1.433 . S
C1628 H1624 0.929 1_554 S
C1628 C1630 1.378 . S
C1628 C1632 1.350 . S
C1629 C1632 1.463 . S
C1629 C1634 1.350 . S
C1629 N1637 1.427 . S
C1630 H1621 0.930 1_554 S
C1630 C1628 1.378 . S
C1630 C1631 1.367 . S
C1631 C1630 1.367 . S
C1631 C1633 1.433 . S
C1632 C1628 1.350 . S
C1632 C1629 1.463 . S
C1632 N1636 1.427 . S
C1633 H1623 0.929 . S
C1633 C1631 1.433 . S
C1633 N1636 1.384 . S
C1634 H1625 0.929 . S
C1634 C1626 1.378 . S
C1634 C1629 1.350 . S
C1635 H1622 0.929 . S
C1635 C1627 1.433 . S
C1635 N1637 1.384 . S
N1636 C1632 1.427 . S
N1636 C1633 1.384 . S
N1637 C1629 1.427 . S
N1637 C1635 1.384 . S
H1638 C1644 0.930 . S
H1639 C1648 0.914 1_556 S
H1640 C1653 0.965 . S
H1641 C1651 0.929 . S
H1642 C1646 0.929 1_556 S
H1643 C1652 0.929 . S
C1644 H1638 0.930 . S
C1644 C1645 1.367 . S
C1644 C1652 1.378 . S
C1645 C1644 1.367 . S
C1645 C1653 1.433 . S
C1646 H1642 0.929 1_554 S
C1646 C1648 1.381 . S
C1646 C1650 1.350 . S
C1647 C1650 1.463 . S
C1647 C1652 1.350 . S
C1647 N1655 1.427 . S
C1648 H1639 0.914 1_554 S
C1648 C1646 1.381 . S
C1648 C1649 1.381 . S
C1649 C1648 1.381 . S
C1649 C1651 1.433 . S
C1650 C1646 1.350 . S
C1650 C1647 1.463 . S
C1650 N1654 1.427 . S
C1651 H1641 0.929 . S
C1651 C1649 1.433 . S
C1651 N1654 1.384 . S
C1652 H1643 0.929 . S
C1652 C1644 1.378 . S
C1652 C1647 1.350 . S
C1653 H1640 0.965 . S
C1653 C1645 1.433 . S
C1653 N1655 1.384 . S
N1654 C1650 1.427 . S
N1654 C1651 1.384 . S
N1655 C1647 1.427 . S
N1655 C1653 1.384 . S
C803 C632 1.481 . S
C799 C211 1.512 . S
C821 C645 1.478 . S
C817 C255 1.481 . S
C835 C274 1.655 . S
C839 C665 1.534 . S
C857 C679 1.379 . S
C853 C157 1.446 1_655 S
C875 C691 1.522 . S
C871 C391 1.529 . S
C893 C705 1.425 . S
C889 C484 1.426 . S
C907 C450 1.487 . S
C911 C715 1.480 . S
C929 C730 1.519 . S
C925 C352 1.548 . S
C943 C430 1.514 . S
C947 C744 1.481 . S
C965 C763 1.387 . S
C961 C367 1.451 . S
C979 C411 1.510 . S
C983 C743 1.497 . S
C1001 C761 1.421 . S
C997 C469 1.425 . S
C1015 C294 1.651 . S
C1019 C777 1.533 . S
C1033 C177 1.490 . S
C1037 C771 1.483 . S
C1051 C196 1.518 . S
C1055 C775 1.512 . S
C1069 C235 1.540 . S
C1073 C772 1.512 . S
C1087 C133 1.520 . S
C1091 C674 1.488 . S
C1105 C567 1.487 . S
C1109 C673 1.479 . S
C1127 C637 1.358 . S
C1123 C601 1.439 1_565 S
C1145 C651 1.537 . S
C1141 C328 1.656 . S
C1159 C172 1.542 . S
C1163 C688 1.514 . S
C1181 C733 1.518 . S
C1177 C445 1.520 . S
C1199 C687 1.495 . S
C1195 C372 1.505 . S
C1217 C719 1.416 . S
C1213 C489 1.417 . S
C1235 C716 1.481 . S
C1231 C562 1.511 . S
C1249 C606 1.483 . S
C1253 C729 1.473 . S
C1267 C313 1.657 . S
C1271 C693 1.553 . S
C1289 C707 1.384 . S
C1285 C508 1.445 . S
C1303 C118 1.529 . S
C1307 C663 1.523 . S
C1325 C677 1.422 . S
C1321 C16 1.426 . S
C1343 C631 1.475 . S
C1339 C60 1.485 . S
C1361 C646 1.520 . S
C1357 C79 1.550 . S
C1375 C40 1.514 . S
C1379 C758 1.481 . S
C1393 C94 1.452 1_556 S
C1397 C749 1.378 . S
C1411 C138 1.509 . S
C1415 C757 1.503 . S
C1429 C1 1.425 . S
C1433 C747 1.422 . S
C1451 C791 1.540 . S
C1447 C333 1.648 . S
C1469 C785 1.483 . S
C1465 C528 1.489 . S
C1487 C789 1.514 . S
C1483 C547 1.518 . S
C1501 C586 1.541 . S
C1505 C786 1.511 . S
C1519 C406 1.519 . S
C1523 C702 1.496 . S
C1541 C701 1.473 . S
C1537 C216 1.487 . S
C1559 C721 1.375 . S
C1555 C250 1.436 . S
C1577 C735 1.535 . S
C1573 C289 1.657 . S
C1591 C523 1.544 . S
C1595 C660 1.507 . S
C1613 C649 1.514 . S
C1609 C55 1.521 . S
C1627 C99 1.505 . S
C1631 C659 1.495 . S
C1649 C635 1.417 . S
C1645 C21 1.417 . S
