# Generated by pormake.
# Topology dag, (6,3)-cn, num edge types: 1
# Building blocks:
#     Node 0, Type 0, BuildingBlock: IZENUY_clean_sbu_0, # of connection points: 6
#     Node 1, Type 0, BuildingBlock: IZENUY_clean_sbu_0, # of connection points: 6
#     Node 2, Type 0, BuildingBlock: IZENUY_clean_sbu_0, # of connection points: 6
#     Node 3, Type 0, BuildingBlock: IZENUY_clean_sbu_0, # of connection points: 6
#     Node 4, Type 1, BuildingBlock: BELTOD_clean_linker_0, # of connection points: 3
#     Node 5, Type 1, BuildingBlock: BELTOD_clean_linker_0, # of connection points: 3
#     Node 6, Type 1, BuildingBlock: BELTOD_clean_linker_0, # of connection points: 3
#     Node 7, Type 1, BuildingBlock: BELTOD_clean_linker_0, # of connection points: 3
#     Node 8, Type 1, BuildingBlock: BELTOD_clean_linker_0, # of connection points: 3
#     Node 9, Type 1, BuildingBlock: BELTOD_clean_linker_0, # of connection points: 3
#     Node 10, Type 1, BuildingBlock: BELTOD_clean_linker_0, # of connection points: 3
#     Node 11, Type 1, BuildingBlock: BELTOD_clean_linker_0, # of connection points: 3
#     Edge 12, Type (0, 1), BuildingBlock: UVAHIK_clean_linker_0, # of connection points: 2
#     Edge 13, Type (0, 1), BuildingBlock: UVAHIK_clean_linker_0, # of connection points: 2
#     Edge 14, Type (0, 1), BuildingBlock: UVAHIK_clean_linker_0, # of connection points: 2
#     Edge 15, Type (0, 1), BuildingBlock: UVAHIK_clean_linker_0, # of connection points: 2
#     Edge 16, Type (0, 1), BuildingBlock: UVAHIK_clean_linker_0, # of connection points: 2
#     Edge 17, Type (0, 1), BuildingBlock: UVAHIK_clean_linker_0, # of connection points: 2
#     Edge 18, Type (0, 1), BuildingBlock: UVAHIK_clean_linker_0, # of connection points: 2
#     Edge 19, Type (0, 1), BuildingBlock: UVAHIK_clean_linker_0, # of connection points: 2
#     Edge 20, Type (0, 1), BuildingBlock: UVAHIK_clean_linker_0, # of connection points: 2
#     Edge 21, Type (0, 1), BuildingBlock: UVAHIK_clean_linker_0, # of connection points: 2
#     Edge 22, Type (0, 1), BuildingBlock: UVAHIK_clean_linker_0, # of connection points: 2
#     Edge 23, Type (0, 1), BuildingBlock: UVAHIK_clean_linker_0, # of connection points: 2
#     Edge 24, Type (0, 1), BuildingBlock: UVAHIK_clean_linker_0, # of connection points: 2
#     Edge 25, Type (0, 1), BuildingBlock: UVAHIK_clean_linker_0, # of connection points: 2
#     Edge 26, Type (0, 1), BuildingBlock: UVAHIK_clean_linker_0, # of connection points: 2
#     Edge 27, Type (0, 1), BuildingBlock: UVAHIK_clean_linker_0, # of connection points: 2
#     Edge 28, Type (0, 1), BuildingBlock: UVAHIK_clean_linker_0, # of connection points: 2
#     Edge 29, Type (0, 1), BuildingBlock: UVAHIK_clean_linker_0, # of connection points: 2
#     Edge 30, Type (0, 1), BuildingBlock: UVAHIK_clean_linker_0, # of connection points: 2
#     Edge 31, Type (0, 1), BuildingBlock: UVAHIK_clean_linker_0, # of connection points: 2
#     Edge 32, Type (0, 1), BuildingBlock: UVAHIK_clean_linker_0, # of connection points: 2
#     Edge 33, Type (0, 1), BuildingBlock: UVAHIK_clean_linker_0, # of connection points: 2
#     Edge 34, Type (0, 1), BuildingBlock: UVAHIK_clean_linker_0, # of connection points: 2
#     Edge 35, Type (0, 1), BuildingBlock: UVAHIK_clean_linker_0, # of connection points: 2
# Relax obj value: 0.240
# Max RMSD: 0.186
# Mean RMSD: 0.154
data_MOF--net-dag--node1-IZENUY_clean_sbu_0--node2-BELTOD_clean_linker_0--edge1-UVAHIK_clean_linker_0
_symmetry_space_group_name_H-M    P1
_symmetry_Int_Tables_number       1
_symmetry_cell_setting            triclinic
loop_
_symmetry_equiv_pos_as_xyz
'x, y, z'
_cell_length_a     53.549665
_cell_length_b     56.933465
_cell_length_c     47.728348
_cell_angle_alpha  94.903383
_cell_angle_beta   90.382693
_cell_angle_gamma 90.187717
loop_
_atom_site_label
_atom_site_type_symbol
_atom_site_fract_x
_atom_site_fract_y
_atom_site_fract_z
_atom_type_partial_charge
Fe0 Fe 0.18211 0.85173 0.07934 0.0
Fe1 Fe 0.13865 0.86993 0.04553 0.0
O2 O 0.15482 0.84613 0.05861 0.0
Fe3 Fe 0.14372 0.81685 0.05119 0.0
O4 O 0.14045 0.81297 0.08824 0.0
O5 O 0.17741 0.82696 0.10094 0.0
O6 O 0.1649 0.86965 0.10576 0.0
C7 C 0.15237 0.88754 0.10076 0.0
C8 C 0.19634 0.81287 0.04578 0.0
O9 O 0.14624 0.89106 0.07576 0.0
C10 C 0.13605 0.83439 0.00029 0.0
O11 O 0.19188 0.87772 0.06162 0.0
O12 O 0.16572 0.87831 0.02614 0.0
O13 O 0.17513 0.80367 0.0496 0.0
O14 O 0.20079 0.83409 0.05418 0.0
C15 C 0.09957 0.84339 0.06209 0.0
O16 O 0.12802 0.85323 0.01307 0.0
O17 O 0.14606 0.81867 0.01358 0.0
C18 C 0.18643 0.88395 0.03747 0.0
O19 O 0.11065 0.86303 0.06408 0.0
O20 O 0.11039 0.82496 0.05148 0.0
C21 C 0.15759 0.81612 0.10637 0.0
Fe22 Fe 0.67189 0.64471 0.47201 0.0
Fe23 Fe 0.63324 0.68 0.49776 0.0
O24 O 0.64425 0.65063 0.49148 0.0
Fe25 Fe 0.62759 0.62697 0.50433 0.0
O26 O 0.65408 0.61896 0.52518 0.0
O27 O 0.68112 0.61922 0.4909 0.0
O28 O 0.69015 0.66274 0.49743 0.0
C29 C 0.68595 0.68412 0.50495 0.0
C30 C 0.64226 0.60862 0.45012 0.0
O31 O 0.66479 0.69324 0.50062 0.0
C32 C 0.58921 0.65312 0.48535 0.0
O33 O 0.66797 0.66899 0.4496 0.0
O34 O 0.63103 0.68346 0.46041 0.0
O35 O 0.63577 0.60541 0.47498 0.0
O36 O 0.65509 0.62638 0.44525 0.0
C37 C 0.62394 0.66311 0.54868 0.0
O38 O 0.59989 0.67177 0.49594 0.0
O39 O 0.60018 0.63352 0.48432 0.0
C40 C 0.64855 0.67992 0.4431 0.0
O41 O 0.63439 0.67874 0.53563 0.0
O42 O 0.61627 0.64405 0.53589 0.0
C43 C 0.67517 0.61354 0.51507 0.0
Fe44 Fe 0.86184 0.19662 0.00718 0.0
Fe45 Fe 0.8756 0.14409 0.00428 0.0
O46 O 0.85447 0.16663 0.99702 0.0
Fe47 Fe 0.82595 0.15895 0.97949 0.0
O48 O 0.83405 0.17606 0.95081 0.0
O49 O 0.8466 0.20802 0.97633 0.0
O50 O 0.89052 0.19535 0.98698 0.0
C51 C 0.90756 0.18041 0.9892 0.0
C52 C 0.81195 0.19602 0.01957 0.0
O53 O 0.90372 0.16192 0.0014 0.0
C54 C 0.82851 0.12379 0.01446 0.0
O55 O 0.87835 0.19026 0.03963 0.0
O56 O 0.87353 0.152 0.04173 0.0
O57 O 0.80801 0.18326 0.99696 0.0
O58 O 0.83388 0.20032 0.0283 0.0
C59 C 0.86092 0.1285 0.95114 0.0
O60 O 0.85144 0.12187 0.0085 0.0
O61 O 0.81607 0.14107 0.00725 0.0
C62 C 0.87796 0.17227 0.05362 0.0
O63 O 0.87895 0.13486 0.96719 0.0
O64 O 0.83868 0.13333 0.95836 0.0
C65 C 0.84024 0.19751 0.95282 0.0
Fe66 Fe 0.3739 0.36009 0.55861 0.0
Fe67 Fe 0.32604 0.34564 0.58727 0.0
O68 O 0.3536 0.33776 0.56855 0.0
Fe69 Fe 0.36091 0.30765 0.55994 0.0
O70 O 0.39022 0.31034 0.57911 0.0
O71 O 0.40253 0.3428 0.56143 0.0
O72 O 0.3791 0.37103 0.59488 0.0
C73 C 0.36202 0.37802 0.61157 0.0
C74 C 0.37457 0.32984 0.51109 0.0
O75 O 0.33944 0.37241 0.60621 0.0
C76 C 0.31067 0.3068 0.54976 0.0
O77 O 0.34901 0.38167 0.55411 0.0
O78 O 0.31427 0.3619 0.55899 0.0
O79 O 0.37607 0.31272 0.5264 0.0
O80 O 0.36998 0.3504 0.52176 0.0
C81 C 0.3422 0.30868 0.61537 0.0
O82 O 0.30757 0.32029 0.57199 0.0
O83 O 0.33222 0.30282 0.54012 0.0
C84 C 0.32573 0.37905 0.54996 0.0
O85 O 0.3362 0.3301 0.61661 0.0
O86 O 0.34701 0.29732 0.59201 0.0
C87 C 0.40711 0.32506 0.57488 0.0
P88 P 0.04417 0.12185 0.38054 0.0
H89 H 0.0877 0.09088 0.38311 0.0
H90 H 0.10532 0.0605 0.34945 0.0
H91 H 0.04465 0.07108 0.29176 0.0
H92 H 0.02763 0.1014 0.32478 0.0
H93 H 0.05066 0.145 0.43723 0.0
H94 H 0.08416 0.16925 0.45961 0.0
H95 H 0.12485 0.16355 0.38137 0.0
H96 H 0.09166 0.13867 0.35955 0.0
H97 H 0.99053 0.11909 0.36945 0.0
H98 H 0.05237 0.16269 0.34809 0.0
O99 O 0.02829 0.1092 0.40523 0.0
H100 H 0.96442 0.13649 0.3347 0.0
H101 H 0.0262 0.18083 0.31415 0.0
C102 C 0.05672 0.09893 0.35626 0.0
C103 C 0.07832 0.08671 0.36312 0.0
C104 C 0.08828 0.06926 0.34395 0.0
C105 C 0.0766 0.06364 0.31772 0.0
C106 C 0.0545 0.07541 0.31144 0.0
C107 C 0.04465 0.09279 0.3305 0.0
C108 C 0.06891 0.13971 0.39692 0.0
C109 C 0.06689 0.14884 0.425 0.0
C110 C 0.08598 0.1629 0.43768 0.0
C111 C 0.10731 0.16831 0.42235 0.0
C112 C 0.10898 0.15938 0.394 0.0
C113 C 0.08996 0.14522 0.38143 0.0
C114 C 0.02335 0.13969 0.36158 0.0
C115 C 0.99821 0.13308 0.35809 0.0
C116 C 0.98328 0.14308 0.33815 0.0
C117 C 0.99327 0.1599 0.32135 0.0
C118 C 0.01803 0.1676 0.32633 0.0
C119 C 0.03298 0.15742 0.34605 0.0
P120 P 0.45975 0.62638 0.8794 0.0
H121 H 0.514 0.62799 0.87412 0.0
H122 H 0.54129 0.6422 0.83833 0.0
H123 H 0.47703 0.66849 0.79582 0.0
H124 H 0.44979 0.65424 0.83181 0.0
H125 H 0.41278 0.61536 0.90547 0.0
H126 H 0.37887 0.63962 0.92568 0.0
H127 H 0.4175 0.70223 0.90373 0.0
H128 H 0.4518 0.67781 0.88457 0.0
H129 H 0.47667 0.57747 0.87306 0.0
H130 H 0.41741 0.61877 0.84071 0.0
O131 O 0.47622 0.61844 0.90683 0.0
H132 H 0.46221 0.54285 0.84338 0.0
H133 H 0.403 0.58437 0.81073 0.0
C134 C 0.47993 0.6405 0.85592 0.0
C135 C 0.50582 0.63729 0.85748 0.0
C136 C 0.52138 0.64526 0.8369 0.0
C137 C 0.5113 0.65647 0.81428 0.0
C138 C 0.48538 0.66024 0.81321 0.0
C139 C 0.4698 0.6521 0.83374 0.0
C140 C 0.43446 0.64472 0.89282 0.0
C141 C 0.41382 0.6343 0.9048 0.0
C142 C 0.39438 0.64822 0.91624 0.0
C143 C 0.39526 0.67291 0.91609 0.0
C144 C 0.41622 0.6833 0.90436 0.0
C145 C 0.43575 0.66932 0.89306 0.0
C146 C 0.44772 0.60048 0.85957 0.0
C147 C 0.46034 0.57899 0.85985 0.0
C148 C 0.45219 0.55929 0.84269 0.0
C149 C 0.43138 0.56083 0.82479 0.0
C150 C 0.41879 0.58247 0.82465 0.0
C151 C 0.42702 0.60216 0.84175 0.0
P152 P 0.76895 0.86503 0.20231 0.0
H153 H 0.75229 0.91379 0.21308 0.0
H154 H 0.74391 0.9444 0.18171 0.0
H155 H 0.75079 0.89316 0.11 0.0
H156 H 0.75939 0.86249 0.14173 0.0
H157 H 0.77842 0.81897 0.22147 0.0
H158 H 0.75046 0.78807 0.23447 0.0
H159 H 0.68796 0.82436 0.20009 0.0
H160 H 0.71616 0.85574 0.18809 0.0
H161 H 0.81749 0.88472 0.2189 0.0
H162 H 0.78862 0.83023 0.15898 0.0
O163 O 0.77077 0.87769 0.23511 0.0
H164 H 0.85944 0.87789 0.20064 0.0
H165 H 0.83068 0.82369 0.13986 0.0
C166 C 0.75681 0.88596 0.17967 0.0
C167 C 0.7514 0.90897 0.19066 0.0
C168 C 0.7464 0.92647 0.17266 0.0
C169 C 0.74688 0.92125 0.14334 0.0
C170 C 0.75056 0.89775 0.13249 0.0
C171 C 0.75545 0.88023 0.15057 0.0
C172 C 0.74943 0.83947 0.20355 0.0
C173 C 0.75882 0.81988 0.2159 0.0
C174 C 0.74273 0.80213 0.22325 0.0
C175 C 0.71683 0.80372 0.21848 0.0
C176 C 0.70772 0.82272 0.20441 0.0
C177 C 0.72388 0.84057 0.19726 0.0
C178 C 0.80005 0.85771 0.1906 0.0
C179 C 0.82025 0.87107 0.20198 0.0
C180 C 0.84421 0.86732 0.19128 0.0
C181 C 0.84843 0.85036 0.16861 0.0
C182 C 0.82813 0.83671 0.1575 0.0
C183 C 0.80409 0.84045 0.16835 0.0
P184 P 0.75397 0.3219 0.61524 0.0
H185 H 0.79528 0.35582 0.61914 0.0
H186 H 0.79719 0.39854 0.61502 0.0
H187 H 0.71762 0.39903 0.59971 0.0
H188 H 0.71583 0.35681 0.6034 0.0
H189 H 0.78432 0.28121 0.62619 0.0
H190 H 0.80433 0.26911 0.66869 0.0
H191 H 0.77883 0.33319 0.71478 0.0
H192 H 0.76001 0.34562 0.67178 0.0
H193 H 0.71965 0.29425 0.57697 0.0
H194 H 0.71735 0.33093 0.65982 0.0
O195 O 0.76658 0.30812 0.5865 0.0
H196 H 0.67448 0.28762 0.57858 0.0
H197 H 0.67236 0.32433 0.66152 0.0
C198 C 0.75537 0.35319 0.61223 0.0
C199 C 0.77827 0.36521 0.61502 0.0
C200 C 0.77936 0.38953 0.61262 0.0
C201 C 0.75748 0.40211 0.60752 0.0
C202 C 0.73468 0.38988 0.60434 0.0
C203 C 0.73367 0.36564 0.60642 0.0
C204 C 0.77088 0.31436 0.64582 0.0
C205 C 0.78346 0.29283 0.64533 0.0
C206 C 0.79467 0.28584 0.66976 0.0
C207 C 0.79305 0.30008 0.6953 0.0
C208 C 0.78079 0.32191 0.69548 0.0
C209 C 0.76984 0.32899 0.67093 0.0
C210 C 0.72191 0.3129 0.61838 0.0
C211 C 0.70958 0.30036 0.59577 0.0
C212 C 0.68378 0.29655 0.59672 0.0
C213 C 0.66994 0.30556 0.62013 0.0
C214 C 0.68255 0.31733 0.64315 0.0
C215 C 0.70831 0.32093 0.64229 0.0
P216 P 0.53533 0.36756 0.17646 0.0
H217 H 0.52803 0.41894 0.17822 0.0
H218 H 0.54328 0.45153 0.21088 0.0
H219 H 0.58481 0.402 0.25652 0.0
H220 H 0.56947 0.36967 0.22402 0.0
H221 H 0.53929 0.31743 0.15668 0.0
H222 H 0.57441 0.29324 0.13873 0.0
H223 H 0.62176 0.35511 0.14469 0.0
H224 H 0.58685 0.37897 0.1629 0.0
H225 H 0.48266 0.37227 0.19052 0.0
H226 H 0.54511 0.33032 0.21382 0.0
O227 O 0.51861 0.37712 0.15012 0.0
H228 H 0.45779 0.35728 0.22787 0.0
H229 H 0.52019 0.31465 0.2506 0.0
C230 C 0.54771 0.39195 0.19872 0.0
C231 C 0.54058 0.41517 0.19512 0.0
C232 C 0.54936 0.43376 0.21372 0.0
C233 C 0.56513 0.42928 0.23633 0.0
C234 C 0.57241 0.40597 0.23955 0.0
C235 C 0.56375 0.38749 0.22093 0.0
C236 C 0.5607 0.34981 0.16205 0.0
C237 C 0.55729 0.32571 0.15427 0.0
C238 C 0.57732 0.31195 0.14384 0.0
C239 C 0.60099 0.3222 0.14072 0.0
C240 C 0.60397 0.34656 0.14754 0.0
C241 C 0.58397 0.36025 0.15791 0.0
C242 C 0.51553 0.352 0.19896 0.0
C243 C 0.49072 0.35917 0.20302 0.0
C244 C 0.47652 0.35056 0.22441 0.0
C245 C 0.48701 0.33478 0.2423 0.0
C246 C 0.51161 0.32696 0.2374 0.0
C247 C 0.5258 0.33567 0.21609 0.0
P248 P 0.25651 0.18601 0.95612 0.0
H249 H 0.29116 0.15723 0.98632 0.0
H250 H 0.29451 0.11465 0.98942 0.0
H251 H 0.23137 0.10357 0.9328 0.0
H252 H 0.22883 0.14577 0.92907 0.0
H253 H 0.25808 0.23119 0.93257 0.0
H254 H 0.27566 0.24422 0.88946 0.0
H255 H 0.30542 0.17443 0.86874 0.0
H256 H 0.28724 0.1614 0.91161 0.0
H257 H 0.22085 0.2003 0.00051 0.0
H258 H 0.22014 0.18681 0.9102 0.0
O259 O 0.26995 0.20025 0.98432 0.0
H260 H 0.17554 0.20628 -8e-05 0.0
H261 H 0.17491 0.19254 0.90953 0.0
C262 C 0.25934 0.1547 0.95805 0.0
C263 C 0.27809 0.14558 0.97458 0.0
C264 C 0.27995 0.12124 0.97636 0.0
C265 C 0.26312 0.10564 0.96149 0.0
C266 C 0.24484 0.11495 0.9443 0.0
C267 C 0.24312 0.13921 0.94244 0.0
C268 C 0.27119 0.19535 0.92517 0.0
C269 C 0.26851 0.21875 0.91879 0.0
C270 C 0.27871 0.22619 0.89422 0.0
C271 C 0.29199 0.21036 0.87564 0.0
C272 C 0.29504 0.18697 0.88242 0.0
C273 C 0.28474 0.17953 0.90703 0.0
C274 C 0.22386 0.19339 0.95539 0.0
C275 C 0.21102 0.19906 0.98054 0.0
C276 C 0.18517 0.20252 0.98017 0.0
C277 C 0.17177 0.19989 0.95467 0.0
C278 C 0.18479 0.19461 0.92947 0.0
C279 C 0.21063 0.19146 0.92984 0.0
P280 P 0.25577 0.62342 0.35063 0.0
H281 H 0.23981 0.57414 0.34458 0.0
H282 H 0.23181 0.54598 0.3791 0.0
H283 H 0.23789 0.60198 0.44588 0.0
H284 H 0.24591 0.63022 0.41099 0.0
H285 H 0.26812 0.66883 0.33131 0.0
H286 H 0.24246 0.7011 0.31787 0.0
H287 H 0.17702 0.6674 0.3492 0.0
H288 H 0.20306 0.63462 0.36195 0.0
H289 H 0.30372 0.60345 0.33279 0.0
H290 H 0.2771 0.65848 0.39275 0.0
O291 O 0.25616 0.60914 0.3186 0.0
H292 H 0.34645 0.61119 0.34904 0.0
H293 H 0.31983 0.66585 0.40992 0.0
C294 C 0.24364 0.60422 0.37527 0.0
C295 C 0.23875 0.58053 0.36655 0.0
C296 C 0.23404 0.56443 0.38635 0.0
C297 C 0.23438 0.57174 0.41524 0.0
C298 C 0.23774 0.59582 0.42377 0.0
C299 C 0.24227 0.61196 0.40388 0.0
C300 C 0.23757 0.64955 0.34803 0.0
C301 C 0.24839 0.66873 0.33615 0.0
C302 C 0.23361 0.68729 0.32855 0.0
C303 C 0.20759 0.68694 0.33246 0.0
C304 C 0.19696 0.66815 0.3457 0.0
C305 C 0.21184 0.6495 0.35322 0.0
C306 C 0.28734 0.63062 0.36129 0.0
C307 C 0.30711 0.61734 0.34934 0.0
C308 C 0.33153 0.62163 0.35889 0.0
C309 C 0.33659 0.63908 0.38091 0.0
C310 C 0.31665 0.6525 0.3927 0.0
C311 C 0.29221 0.64823 0.38301 0.0
P312 P 0.91074 0.8504 0.74164 0.0
H313 H 0.86763 0.87724 0.76319 0.0
H314 H 0.86087 0.91937 0.77418 0.0
H315 H 0.93242 0.93418 0.73805 0.0
H316 H 0.93908 0.89182 0.72718 0.0
H317 H 0.90327 0.80153 0.72093 0.0
H318 H 0.88259 0.78299 0.679 0.0
H319 H 0.87452 0.85118 0.64661 0.0
H320 H 0.89522 0.86965 0.68875 0.0
H321 H 0.94269 0.8722 0.78532 0.0
H322 H 0.94977 0.81813 0.71682 0.0
O323 O 0.89446 0.83787 0.76611 0.0
H324 H 0.98515 0.86482 0.80034 0.0
H325 H 0.99262 0.81039 0.73209 0.0
C326 C 0.90415 0.88147 0.74516 0.0
C327 C 0.88172 0.88956 0.75731 0.0
C328 C 0.87779 0.91368 0.76336 0.0
C329 C 0.89625 0.93009 0.75726 0.0
C330 C 0.91805 0.92192 0.74339 0.0
C331 C 0.92186 0.89777 0.73717 0.0
C332 C 0.9006 0.83692 0.70805 0.0
C333 C 0.89758 0.81242 0.7045 0.0
C334 C 0.88584 0.80184 0.68044 0.0
C335 C 0.87676 0.81566 0.65956 0.0
C336 C 0.88106 0.84013 0.6625 0.0
C337 C 0.89298 0.85069 0.68656 0.0
C338 C 0.94319 0.84606 0.74966 0.0
C339 C 0.9536 0.85906 0.77311 0.0
C340 C 0.97795 0.85485 0.78164 0.0
C341 C 0.99236 0.83721 0.76718 0.0
C342 C 0.98195 0.82416 0.74356 0.0
C343 C 0.9575 0.8286 0.7348 0.0
C344 C 0.13572 0.9271 0.11817 0.0
C345 C 0.1462 0.90544 0.124 0.0
C346 C 0.12931 0.94384 0.13998 0.0
C347 C 0.14026 0.96145 0.2156 0.0
H348 H 0.07894 0.99638 0.20758 0.0
C349 C 0.09679 0.0243 0.30487 0.0
C350 C 0.08721 0.04568 0.29672 0.0
C351 C 0.10518 0.0069 0.28462 0.0
C352 C 0.09623 0.98692 0.21003 0.0
H353 H 0.15823 0.88442 0.15742 0.0
H354 H 0.14662 0.91356 0.19557 0.0
H355 H 0.09095 0.96636 0.17086 0.0
H356 H 0.08028 0.06606 0.26108 0.0
H357 H 0.09465 0.03574 0.22592 0.0
H358 H 0.14527 0.98203 0.25505 0.0
C359 C 0.14375 0.91773 0.17407 0.0
C360 C 0.10315 0.96974 0.18895 0.0
C361 C 0.1503 0.90098 0.1522 0.0
C362 C 0.08698 0.04957 0.26803 0.0
C363 C 0.09523 0.03221 0.24787 0.0
C364 C 0.13323 0.97861 0.23682 0.0
C365 C 0.13303 0.9393 0.1682 0.0
C366 C 0.12539 0.95697 0.19129 0.0
C367 C 0.10405 0.01055 0.25588 0.0
C368 C 0.11128 0.9917 0.23407 0.0
H369 H 0.13245 0.93119 0.0967 0.0
H370 H 0.12154 0.96044 0.13467 0.0
H371 H 0.15761 0.95209 0.21796 0.0
H372 H 0.09708 0.02071 0.32679 0.0
H373 H 0.11178 0.99032 0.29139 0.0
C374 C 0.613 0.69035 0.59098 0.0
C375 C 0.61841 0.66756 0.57891 0.0
C376 C 0.60526 0.69377 0.61902 0.0
C377 C 0.60552 0.66724 0.68644 0.0
H378 H 0.53955 0.69408 0.69789 0.0
C379 C 0.54475 0.64587 0.77922 0.0
C380 C 0.52747 0.66243 0.79074 0.0
C381 C 0.55883 0.6505 0.75581 0.0
C382 C 0.55824 0.68705 0.69537 0.0
H383 H 0.62128 0.63076 0.58691 0.0
H384 H 0.60847 0.63683 0.63592 0.0
H385 H 0.55993 0.69564 0.65254 0.0
H386 H 0.51195 0.69716 0.78734 0.0
H387 H 0.53699 0.70556 0.74669 0.0
H388 H 0.60395 0.65846 0.72903 0.0
C389 C 0.60992 0.65197 0.62373 0.0
C390 C 0.56987 0.68792 0.66932 0.0
C391 C 0.61708 0.64849 0.59565 0.0
C392 C 0.52499 0.684 0.77873 0.0
C393 C 0.5393 0.68875 0.7554 0.0
C394 C 0.59409 0.66667 0.71259 0.0
C395 C 0.60348 0.67455 0.63554 0.0
C396 C 0.59326 0.67736 0.66437 0.0
C397 C 0.55619 0.67192 0.74341 0.0
C398 C 0.56991 0.67582 0.71711 0.0
H399 H 0.61381 0.70533 0.57847 0.0
H400 H 0.60039 0.71134 0.62772 0.0
H401 H 0.6237 0.65921 0.6832 0.0
H402 H 0.54676 0.62892 0.78768 0.0
H403 H 0.57114 0.63684 0.74686 0.0
C404 C 0.79169 0.10586 0.03771 0.0
C405 C 0.81601 0.10391 0.02679 0.0
C406 C 0.78064 0.08678 0.04979 0.0
C407 C 0.79861 0.03177 0.0808 0.0
H408 H 0.72956 0.01275 0.06795 0.0
C409 C 0.76613 0.94088 0.104 0.0
C410 C 0.74755 0.94076 0.12464 0.0
C411 C 0.77067 0.96112 0.09034 0.0
C412 C 0.74882 0.01804 0.07174 0.0
H413 H 0.84734 0.08014 0.01904 0.0
H414 H 0.82806 0.04718 0.03923 0.0
H415 H 0.74536 0.04849 0.04839 0.0
H416 H 0.71775 0.96108 0.14538 0.0
H417 H 0.72571 0.99666 0.12112 0.0
H418 H 0.80236 0.0011 0.10331 0.0
C419 C 0.81771 0.0635 0.03938 0.0
C420 C 0.75783 0.03848 0.06074 0.0
C421 C 0.82874 0.08245 0.02763 0.0
C422 C 0.73232 0.96076 0.12973 0.0
C423 C 0.73675 0.98103 0.1158 0.0
C424 C 0.78974 0.01133 0.09138 0.0
C425 C 0.79372 0.06548 0.05104 0.0
C426 C 0.78301 0.04526 0.06469 0.0
C427 C 0.75662 0.9816 0.09686 0.0
C428 C 0.76495 0.00404 0.08653 0.0
H429 H 0.7814 0.12216 0.03731 0.0
H430 H 0.76214 0.08887 0.05867 0.0
H431 H 0.81788 0.03684 0.08499 0.0
H432 H 0.77837 0.92591 0.09977 0.0
H433 H 0.786 0.96116 0.07564 0.0
C434 C 0.44992 0.33953 0.58824 0.0
C435 C 0.43308 0.32062 0.58351 0.0
C436 C 0.4747 0.33551 0.59563 0.0
C437 C 0.52409 0.29284 0.58644 0.0
H438 H 0.55562 0.329 0.64963 0.0
C439 C 0.62948 0.28365 0.6108 0.0
C440 C 0.64229 0.30458 0.61959 0.0
C441 C 0.60336 0.2833 0.6093 0.0
C442 C 0.54722 0.31891 0.63171 0.0
H443 H 0.4289 0.28267 0.58286 0.0
H444 H 0.47265 0.2756 0.59503 0.0
H445 H 0.51092 0.33302 0.64137 0.0
H446 H 0.63793 0.34162 0.63321 0.0
H447 H 0.5927 0.34129 0.62984 0.0
H448 H 0.56043 0.27965 0.57574 0.0
C449 C 0.46645 0.29351 0.5933 0.0
C450 C 0.52159 0.32113 0.62715 0.0
C451 C 0.44147 0.29758 0.58647 0.0
C452 C 0.62853 0.32511 0.62688 0.0
C453 C 0.60253 0.32487 0.62505 0.0
C454 C 0.54984 0.2909 0.59071 0.0
C455 C 0.48325 0.31246 0.59793 0.0
C456 C 0.50988 0.30838 0.60426 0.0
C457 C 0.58954 0.30399 0.61619 0.0
C458 C 0.56183 0.30424 0.61313 0.0
H459 H 0.44392 0.35748 0.58627 0.0
H460 H 0.48736 0.35038 0.59891 0.0
H461 H 0.51546 0.28295 0.56851 0.0
H462 H 0.63968 0.26754 0.6052 0.0
H463 H 0.59403 0.26683 0.60276 0.0
C464 C 0.6402 0.59487 0.39877 0.0
C465 C 0.63612 0.59053 0.42696 0.0
C466 C 0.63373 0.57792 0.37696 0.0
C467 C 0.62197 0.5144 0.36217 0.0
H468 H 0.58417 0.53252 0.29789 0.0
C469 C 0.57305 0.44556 0.28591 0.0
C470 C 0.57353 0.44863 0.25704 0.0
C471 C 0.58152 0.46336 0.30558 0.0
C472 C 0.59504 0.52721 0.31549 0.0
H473 H 0.62211 0.56498 0.4543 0.0
H474 H 0.61098 0.53549 0.4163 0.0
H475 H 0.59808 0.56273 0.33414 0.0
H476 H 0.58309 0.47284 0.2261 0.0
H477 H 0.59819 0.50402 0.26056 0.0
H478 H 0.61905 0.47897 0.34369 0.0
C479 C 0.61932 0.55191 0.41109 0.0
C480 C 0.60297 0.54451 0.33624 0.0
C481 C 0.62558 0.56887 0.43285 0.0
C482 C 0.58235 0.47006 0.24825 0.0
C483 C 0.59096 0.4879 0.26798 0.0
C484 C 0.61418 0.49716 0.3414 0.0
C485 C 0.62327 0.55626 0.38293 0.0
C486 C 0.61621 0.53822 0.35998 0.0
C487 C 0.59081 0.48467 0.29687 0.0
C488 C 0.60029 0.50329 0.31802 0.0
H489 H 0.64818 0.61143 0.39353 0.0
H490 H 0.63711 0.58168 0.35544 0.0
H491 H 0.63254 0.50909 0.37999 0.0
H492 H 0.5659 0.4294 0.29335 0.0
H493 H 0.58057 0.46049 0.32769 0.0
C494 C 0.94785 0.16623 0.96902 0.0
C495 C 0.93315 0.18511 0.98001 0.0
C496 C 0.97301 0.16962 0.96324 0.0
C497 C 0.02254 0.21533 0.95739 0.0
H498 H 0.06538 0.16352 0.97438 0.0
C499 C 0.13134 0.21917 0.96987 0.0
C500 C 0.14412 0.20081 0.95455 0.0
C501 C 0.10522 0.21903 0.97095 0.0
C502 C 0.05362 0.17806 0.96939 0.0
H503 H 0.93281 0.22251 0.99274 0.0
H504 H 0.97726 0.22839 0.98384 0.0
H505 H 0.02055 0.16009 0.98009 0.0
H506 H 0.13973 0.16805 0.92829 0.0
H507 H 0.09418 0.16761 0.93063 0.0
H508 H 0.05626 0.23353 0.94784 0.0
C509 C 0.96925 0.21103 0.97895 0.0
C510 C 0.02785 0.17608 0.97243 0.0
C511 C 0.9438 0.20771 0.98415 0.0
C512 C 0.13034 0.18253 0.94004 0.0
C513 C 0.10434 0.1822 0.9415 0.0
C514 C 0.04848 0.21745 0.95481 0.0
C515 C 0.98432 0.19187 0.96905 0.0
C516 C 0.01187 0.19453 0.96612 0.0
C517 C 0.09156 0.2003 0.95719 0.0
C518 C 0.06417 0.1987 0.96048 0.0
H519 H 0.93993 0.14869 0.96525 0.0
H520 H 0.9837 0.1546 0.95468 0.0
H521 H 0.01087 0.22983 0.95213 0.0
H522 H 0.14156 0.2335 0.98114 0.0
H523 H 0.09574 0.23311 0.9833 0.0
C524 C 0.28676 0.39439 0.52847 0.0
C525 C 0.31136 0.39818 0.5384 0.0
C526 C 0.27309 0.41286 0.51839 0.0
C527 C 0.26901 0.47729 0.52317 0.0
H528 H 0.24155 0.46969 0.44759 0.0
C529 C 0.2531 0.5552 0.45731 0.0
C530 C 0.23477 0.55385 0.43606 0.0
C531 C 0.25684 0.53639 0.47375 0.0
C532 C 0.24849 0.47205 0.46901 0.0
H533 H 0.34083 0.42431 0.54571 0.0
H534 H 0.31689 0.45645 0.52848 0.0
H535 H 0.25896 0.4357 0.46852 0.0
H536 H 0.20468 0.5325 0.41679 0.0
H537 H 0.21083 0.49973 0.44598 0.0
H538 H 0.25887 0.51361 0.52374 0.0
C539 C 0.3082 0.43924 0.5285 0.0
C540 C 0.25857 0.45255 0.48091 0.0
C541 C 0.32197 0.42076 0.5381 0.0
C542 C 0.21915 0.5339 0.43282 0.0
C543 C 0.22277 0.5151 0.44944 0.0
C544 C 0.25865 0.49671 0.51146 0.0
C545 C 0.28365 0.43549 0.51859 0.0
C546 C 0.26963 0.45518 0.50772 0.0
C547 C 0.24221 0.51581 0.46948 0.0
C548 C 0.24904 0.49452 0.48385 0.0
H549 H 0.27811 0.37716 0.52842 0.0
H550 H 0.2542 0.40956 0.51078 0.0
H551 H 0.27709 0.47966 0.5441 0.0
H552 H 0.2657 0.57016 0.46005 0.0
H553 H 0.27225 0.53751 0.48862 0.0
C554 C 0.13024 0.80687 0.9567 0.0
C555 C 0.13117 0.82995 0.96978 0.0
C556 C 0.12312 0.80286 0.92842 0.0
C557 C 0.11346 0.83198 0.86267 0.0
H558 H 0.0552 0.79152 0.85251 0.0
C559 C 0.03338 0.84987 0.78888 0.0
C560 C 0.01729 0.83158 0.77851 0.0
C561 C 0.05416 0.84514 0.8052 0.0
C562 C 0.07187 0.80236 0.85448 0.0
H563 H 0.12701 0.86694 0.96309 0.0
H564 H 0.11478 0.85995 0.91388 0.0
H565 H 0.07987 0.79146 0.89538 0.0
H566 H 0.01164 0.79373 0.77484 0.0
H567 H 0.04838 0.78533 0.80288 0.0
H568 H 0.10492 0.84357 0.82222 0.0
C569 C 0.11946 0.84496 0.92539 0.0
C570 C 0.08599 0.80236 0.87919 0.0
C571 C 0.1262 0.84894 0.95368 0.0
C572 C 0.02369 0.8082 0.78259 0.0
C573 C 0.04459 0.80342 0.79891 0.0
C574 C 0.09948 0.83183 0.83782 0.0
C575 C 0.11728 0.82187 0.91263 0.0
C576 C 0.10623 0.81793 0.88405 0.0
C577 C 0.05943 0.82195 0.81143 0.0
C578 C 0.07781 0.81784 0.83402 0.0
H579 H 0.13405 0.79188 0.96858 0.0
H580 H 0.12162 0.78489 0.91905 0.0
H581 H 0.12925 0.84389 0.86572 0.0
H582 H 0.0291 0.86804 0.78568 0.0
H583 H 0.06497 0.85992 0.81456 0.0
C584 C 0.84548 0.10647 0.90681 0.0
C585 C 0.86536 0.11276 0.92536 0.0
C586 C 0.849 0.09027 0.88356 0.0
C587 C 0.89706 0.05908 0.83891 0.0
H588 H 0.84635 0.01023 0.8295 0.0
C589 C 0.9138 0.96703 0.78213 0.0
C590 C 0.89372 0.9552 0.76795 0.0
C591 C 0.91043 0.98928 0.79628 0.0
C592 C 0.86046 0.02396 0.83135 0.0
H593 H 0.90486 0.10776 0.93327 0.0
H594 H 0.9109 0.0791 0.8929 0.0
H595 H 0.84039 0.04354 0.86398 0.0
H596 H 0.85491 0.95815 0.75563 0.0
H597 H 0.84906 0.99716 0.78012 0.0
H598 H 0.91742 0.03899 0.80667 0.0
C599 C 0.89262 0.0869 0.89622 0.0
C600 C 0.85705 0.04308 0.85121 0.0
C601 C 0.88912 0.1032 0.91947 0.0
C602 C 0.87061 0.9667 0.76676 0.0
C603 C 0.86727 0.989 0.78083 0.0
C604 C 0.90047 0.0399 0.81896 0.0
C605 C 0.87247 0.0799 0.87833 0.0
C606 C 0.87545 0.0607 0.85552 0.0
C607 C 0.88692 0.00021 0.79651 0.0
C608 C 0.88235 0.02194 0.81526 0.0
H609 H 0.82701 0.11377 0.91047 0.0
H610 H 0.83321 0.08559 0.86988 0.0
H611 H 0.91143 0.07254 0.84148 0.0
H612 H 0.93175 0.95853 0.78372 0.0
H613 H 0.9259 0.99727 0.80839 0.0
C614 C 0.38902 0.30413 0.46895 0.0
C615 C 0.38138 0.32635 0.48097 0.0
C616 C 0.39722 0.30133 0.44111 0.0
C617 C 0.39823 0.33035 0.3742 0.0
H618 H 0.45971 0.29542 0.36128 0.0
C619 C 0.48568 0.32789 0.29344 0.0
C620 C 0.4732 0.3283 0.26748 0.0
C621 C 0.47256 0.32389 0.31774 0.0
C622 C 0.44252 0.30521 0.36453 0.0
H623 H 0.37547 0.36284 0.4727 0.0
H624 H 0.39006 0.358 0.42445 0.0
H625 H 0.4395 0.29606 0.4069 0.0
H626 H 0.43718 0.32394 0.24659 0.0
H627 H 0.41419 0.31697 0.28921 0.0
H628 H 0.4019 0.3404 0.33224 0.0
C629 C 0.38949 0.34268 0.43639 0.0
C630 C 0.43077 0.30536 0.39059 0.0
C631 C 0.3813 0.34548 0.46419 0.0
C632 C 0.44731 0.32401 0.26632 0.0
C633 C 0.43415 0.32002 0.29071 0.0
C634 C 0.40999 0.3302 0.34813 0.0
C635 C 0.39791 0.32066 0.42464 0.0
C636 C 0.40877 0.31835 0.39594 0.0
C637 C 0.4466 0.32022 0.31677 0.0
C638 C 0.43257 0.31805 0.3432 0.0
H639 H 0.38914 0.28897 0.48119 0.0
H640 H 0.40326 0.28406 0.43255 0.0
H641 H 0.38112 0.34026 0.37752 0.0
H642 H 0.5055 0.33161 0.29526 0.0
H643 H 0.48268 0.3246 0.33753 0.0
C644 C 0.21865 0.916 0.04167 0.0
C645 C 0.20207 0.90166 0.02485 0.0
C646 C 0.23065 0.93502 0.03079 0.0
C647 C 0.22172 0.97491 0.97454 0.0
H648 H 0.28481 0.00109 0.00302 0.0
C649 C 0.25809 0.06344 0.94197 0.0
C650 C 0.26363 0.07991 0.96486 0.0
C651 C 0.25537 0.03954 0.94591 0.0
C652 C 0.26721 0.9939 0.99483 0.0
H653 H 0.18662 0.89478 0.98285 0.0
H654 H 0.20828 0.9274 0.96352 0.0
H655 H 0.27167 0.96211 0.01523 0.0
H656 H 0.27185 0.08388 0.00962 0.0
H657 H 0.26752 0.04212 0.01631 0.0
H658 H 0.21718 0.00676 0.95439 0.0
C659 C 0.21132 0.92455 0.98542 0.0
C660 C 0.2596 0.97164 0.00189 0.0
C661 C 0.19902 0.90575 0.99643 0.0
C662 C 0.26783 0.0717 0.99146 0.0
C663 C 0.26533 0.04775 0.99533 0.0
C664 C 0.22947 0.99697 0.96723 0.0
C665 C 0.22663 0.93992 0.00271 0.0
C666 C 0.23646 0.96209 0.99237 0.0
C667 C 0.25841 0.03154 0.97274 0.0
C668 C 0.25201 0.00692 0.97778 0.0
H669 H 0.22136 0.91333 0.06369 0.0
H670 H 0.24204 0.94655 0.04489 0.0
H671 H 0.20358 0.96846 0.96722 0.0
H672 H 0.2553 0.06907 0.92108 0.0
H673 H 0.25035 0.02735 0.92806 0.0
C674 C 0.55011 0.67532 0.47488 0.0
C675 C 0.56306 0.65387 0.47511 0.0
C676 C 0.52565 0.67575 0.46435 0.0
C677 C 0.48185 0.64023 0.41771 0.0
H678 H 0.43028 0.67781 0.45637 0.0
C679 C 0.37802 0.62316 0.39479 0.0
C680 C 0.36247 0.64267 0.39195 0.0
C681 C 0.40252 0.62631 0.40452 0.0
C682 C 0.44457 0.66745 0.44517 0.0
H683 H 0.56024 0.61604 0.4648 0.0
H684 H 0.51779 0.61681 0.44696 0.0
H685 H 0.47327 0.6802 0.47419 0.0
H686 H 0.36047 0.68084 0.39751 0.0
H687 H 0.40338 0.6863 0.41488 0.0
H688 H 0.45322 0.62716 0.38902 0.0
C689 C 0.52659 0.63335 0.45441 0.0
C690 C 0.46917 0.66884 0.45534 0.0
C691 C 0.55093 0.63291 0.46486 0.0
C692 C 0.37189 0.66543 0.39965 0.0
C693 C 0.39645 0.66857 0.40956 0.0
C694 C 0.45734 0.63879 0.40765 0.0
C695 C 0.51372 0.65477 0.45378 0.0
C696 C 0.48798 0.6549 0.44198 0.0
C697 C 0.41208 0.64903 0.41181 0.0
C698 C 0.43835 0.65206 0.42152 0.0
H699 H 0.55894 0.69179 0.48255 0.0
H700 H 0.51627 0.69255 0.464 0.0
H701 H 0.49601 0.62969 0.40652 0.0
H702 H 0.37121 0.60536 0.38973 0.0
H703 H 0.41394 0.61087 0.4066 0.0
C704 C 0.34924 0.40583 0.6526 0.0
C705 C 0.36822 0.39492 0.636 0.0
C706 C 0.35517 0.42245 0.67497 0.0
C707 C 0.40679 0.44366 0.72252 0.0
H708 H 0.36925 0.50196 0.7297 0.0
C709 C 0.44115 0.52614 0.79066 0.0
C710 C 0.42336 0.54024 0.80558 0.0
C711 C 0.43364 0.50734 0.7717 0.0
C712 C 0.37969 0.48565 0.7283 0.0
H713 H 0.40836 0.39252 0.63036 0.0
H714 H 0.41861 0.42154 0.66922 0.0
H715 H 0.35744 0.47091 0.69369 0.0
H716 H 0.38375 0.54524 0.81288 0.0
H717 H 0.37061 0.51232 0.7799 0.0
H718 H 0.42916 0.45845 0.75699 0.0
C719 C 0.39916 0.41716 0.66506 0.0
C720 C 0.37292 0.46785 0.70763 0.0
C721 C 0.39325 0.40064 0.64264 0.0
C722 C 0.39789 0.5349 0.80141 0.0
C723 C 0.39037 0.51606 0.78249 0.0
C724 C 0.41353 0.46143 0.74324 0.0
C725 C 0.38019 0.4284 0.68133 0.0
C726 C 0.38655 0.44675 0.70432 0.0
C727 C 0.40816 0.50216 0.76725 0.0
C728 C 0.40021 0.48274 0.7462 0.0
H729 H 0.32977 0.40177 0.64815 0.0
H730 H 0.34014 0.43062 0.68733 0.0
H731 H 0.41743 0.42746 0.72078 0.0
H732 H 0.46091 0.53001 0.79306 0.0
H733 H 0.44783 0.49727 0.75998 0.0
C734 C 0.06054 0.82059 0.07143 0.0
C735 C 0.07327 0.84225 0.07145 0.0
C736 C 0.03606 0.81972 0.08151 0.0
C737 C 0.99209 0.85443 0.12778 0.0
H738 H 0.94091 0.81499 0.08977 0.0
C739 C 0.88852 0.86774 0.15299 0.0
C740 C 0.87378 0.84768 0.15619 0.0
C741 C 0.91268 0.8655 0.1424 0.0
C742 C 0.9551 0.82588 0.10078 0.0
H743 H 0.06995 0.88003 0.08153 0.0
H744 H 0.02745 0.87853 0.09857 0.0
H745 H 0.9836 0.81392 0.07163 0.0
H746 H 0.87276 0.8095 0.15007 0.0
H747 H 0.91514 0.80561 0.13127 0.0
H748 H 0.9637 0.86662 0.15668 0.0
C749 C 0.03646 0.86214 0.09131 0.0
C750 C 0.97953 0.82527 0.09042 0.0
C751 C 0.06083 0.86301 0.08132 0.0
C752 C 0.88359 0.8253 0.14775 0.0
C753 C 0.90784 0.82307 0.13701 0.0
C754 C 0.96776 0.85509 0.13804 0.0
C755 C 0.02385 0.84049 0.09185 0.0
C756 C 0.99821 0.83984 0.10357 0.0
C757 C 0.92275 0.84317 0.1346 0.0
C758 C 0.94888 0.84112 0.12444 0.0
H759 H 0.0696 0.80426 0.06405 0.0
H760 H 0.02692 0.80275 0.0818 0.0
H761 H 0.00615 0.86544 0.13884 0.0
H762 H 0.88135 0.88527 0.15856 0.0
H763 H 0.92348 0.88136 0.14019 0.0
C764 C 0.68341 0.58812 0.55445 0.0
C765 C 0.69138 0.59733 0.5296 0.0
C766 C 0.69739 0.57087 0.56646 0.0
C767 C 0.74137 0.52363 0.54539 0.0
H768 H 0.74259 0.51598 0.62534 0.0
C769 C 0.77547 0.43744 0.58681 0.0
C770 C 0.75813 0.42779 0.60462 0.0
C771 C 0.77365 0.46105 0.58101 0.0
C772 C 0.7425 0.51794 0.60296 0.0
H773 H 0.72121 0.5968 0.49899 0.0
H774 H 0.74573 0.56685 0.52015 0.0
H775 H 0.72777 0.55292 0.60875 0.0
H776 H 0.72654 0.43556 0.63194 0.0
H777 H 0.72322 0.47661 0.62173 0.0
H778 H 0.7552 0.4884 0.53949 0.0
C779 C 0.72838 0.57263 0.53 0.0
C780 C 0.73397 0.53905 0.59346 0.0
C781 C 0.71435 0.58985 0.51792 0.0
C782 C 0.73996 0.44251 0.61787 0.0
C783 C 0.73824 0.46608 0.61224 0.0
C784 C 0.74996 0.50257 0.55489 0.0
C785 C 0.71975 0.56251 0.554 0.0
C786 C 0.73257 0.54185 0.5645 0.0
C787 C 0.75461 0.47545 0.59313 0.0
C788 C 0.74988 0.49922 0.58372 0.0
H789 H 0.66587 0.59357 0.56411 0.0
H790 H 0.69002 0.5633 0.58476 0.0
H791 H 0.74027 0.52503 0.52293 0.0
H792 H 0.78963 0.42645 0.57628 0.0
H793 H 0.78665 0.46786 0.56639 0.0
C794 C 0.88642 0.15469 0.09915 0.0
C795 C 0.88535 0.17464 0.08372 0.0
C796 C 0.89478 0.15665 0.12704 0.0
C797 C 0.93454 0.19406 0.17549 0.0
H798 H 0.9076 0.15522 0.23108 0.0
C799 C 0.95297 0.17084 0.29813 0.0
C800 C 0.97895 0.16736 0.29681 0.0
C801 C 0.93939 0.17546 0.27404 0.0
C802 C 0.91512 0.16647 0.21597 0.0
H803 H 0.89134 0.21248 0.08599 0.0
H804 H 0.90579 0.21589 0.13474 0.0
H805 H 0.88661 0.1562 0.18567 0.0
H806 H 0.01095 0.1662 0.26902 0.0
H807 H 0.98744 0.17443 0.22742 0.0
H808 H 0.96317 0.20417 0.20567 0.0
C809 C 0.9005 0.19867 0.12507 0.0
C810 C 0.90326 0.16681 0.18983 0.0
C811 C 0.89212 0.19672 0.09715 0.0
C812 C 0.99108 0.1693 0.27106 0.0
C813 C 0.97756 0.17399 0.2471 0.0
C814 C 0.9464 0.19371 0.20161 0.0
C815 C 0.90224 0.17861 0.14022 0.0
C816 C 0.91314 0.18022 0.16906 0.0
C817 C 0.95152 0.17677 0.24818 0.0
C818 C 0.93715 0.1795 0.22192 0.0
H819 H 0.88128 0.13741 0.08953 0.0
H820 H 0.89618 0.1408 0.13795 0.0
H821 H 0.94276 0.20446 0.15994 0.0
H822 H 0.94308 0.16973 0.31769 0.0
H823 H 0.91937 0.17778 0.2756 0.0
C824 C 0.13616 0.78946 0.13797 0.0
C825 C 0.15531 0.80568 0.13357 0.0
C826 C 0.13462 0.77911 0.16343 0.0
C827 C 0.15625 0.78464 0.23748 0.0
H828 H 0.15418 0.71635 0.23006 0.0
C829 C 0.20007 0.72768 0.31781 0.0
C830 C 0.19171 0.70438 0.31926 0.0
C831 C 0.1885 0.74236 0.2997 0.0
C832 C 0.15408 0.73543 0.2328 0.0
H833 H 0.18718 0.8245 0.15289 0.0
H834 H 0.18453 0.80637 0.19718 0.0
H835 H 0.14736 0.73781 0.18893 0.0
H836 H 0.16287 0.67916 0.30496 0.0
H837 H 0.14204 0.70511 0.27447 0.0
H838 H 0.16359 0.78224 0.28129 0.0
C839 C 0.17068 0.80172 0.181 0.0
C840 C 0.15027 0.74773 0.2091 0.0
C841 C 0.17236 0.8119 0.15549 0.0
C842 C 0.1699 0.69697 0.30442 0.0
C843 C 0.15814 0.71176 0.28656 0.0
C844 C 0.15984 0.77233 0.26131 0.0
C845 C 0.15202 0.78498 0.18509 0.0
C846 C 0.15209 0.7724 0.21102 0.0
C847 C 0.16808 0.73417 0.28287 0.0
C848 C 0.15961 0.74753 0.25909 0.0
H849 H 0.12261 0.78442 0.12158 0.0
H850 H 0.11997 0.76635 0.1661 0.0
H851 H 0.15738 0.80371 0.23961 0.0
H852 H 0.21648 0.73415 0.32947 0.0
H853 H 0.19675 0.75948 0.2975 0.0
C854 C 0.70302 0.72273 0.52671 0.0
C855 C 0.70675 0.69895 0.51716 0.0
C856 C 0.72276 0.73636 0.53874 0.0
C857 C 0.78333 0.72997 0.57434 0.0
H858 H 0.79319 0.7954 0.56013 0.0
C859 C 0.86644 0.78247 0.62325 0.0
C860 C 0.86067 0.80474 0.63655 0.0
C861 C 0.84933 0.77059 0.60487 0.0
C862 C 0.7906 0.77717 0.56436 0.0
H863 H 0.73437 0.67105 0.51225 0.0
H864 H 0.7686 0.69481 0.53284 0.0
H865 H 0.75943 0.7726 0.53597 0.0
H866 H 0.83289 0.83247 0.63999 0.0
H867 H 0.80305 0.81173 0.60798 0.0
H868 H 0.81411 0.7345 0.60299 0.0
C869 C 0.75038 0.70285 0.53148 0.0
C870 C 0.77124 0.76414 0.5506 0.0
C871 C 0.73072 0.68925 0.51954 0.0
C872 C 0.83803 0.81544 0.62984 0.0
C873 C 0.82089 0.80354 0.6115 0.0
C874 C 0.80263 0.74295 0.58804 0.0
C875 C 0.74661 0.72648 0.54148 0.0
C876 C 0.76735 0.74041 0.55553 0.0
C877 C 0.82605 0.78069 0.59945 0.0
C878 C 0.80645 0.76672 0.58332 0.0
H879 H 0.6848 0.73074 0.52521 0.0
H880 H 0.71919 0.75446 0.54651 0.0
H881 H 0.78057 0.71187 0.57903 0.0
H882 H 0.88391 0.77395 0.62768 0.0
H883 H 0.85408 0.75321 0.59545 0.0
C884 C 0.76603 0.20323 0.02458 0.0
C885 C 0.79053 0.20756 0.03456 0.0
C886 C 0.74578 0.21454 0.03806 0.0
C887 C 0.72979 0.26732 0.08418 0.0
H888 H 0.66728 0.23417 0.09281 0.0
C889 C 0.64628 0.31144 0.14298 0.0
C890 C 0.62259 0.30767 0.13051 0.0
C891 C 0.66684 0.29836 0.13291 0.0
C892 C 0.68455 0.24371 0.09033 0.0
H893 H 0.81284 0.22686 0.06702 0.0
H894 H 0.77739 0.24652 0.09067 0.0
H895 H 0.70324 0.21279 0.07267 0.0
H896 H 0.60189 0.28708 0.09776 0.0
H897 H 0.63783 0.26425 0.08009 0.0
H898 H 0.71107 0.29829 0.10155 0.0
C899 C 0.77395 0.23457 0.07215 0.0
C900 C 0.70515 0.23147 0.07882 0.0
C901 C 0.79424 0.22322 0.05866 0.0
C902 C 0.61984 0.29023 0.10802 0.0
C903 C 0.64043 0.27714 0.09791 0.0
C904 C 0.7092 0.27956 0.09568 0.0
C905 C 0.7495 0.23046 0.06189 0.0
C906 C 0.72796 0.24317 0.07542 0.0
C907 C 0.66421 0.28119 0.11012 0.0
C908 C 0.68629 0.26794 0.09872 0.0
H909 H 0.76245 0.19126 0.0061 0.0
H910 H 0.72723 0.2112 0.02941 0.0
H911 H 0.74697 0.27693 0.08145 0.0
H912 H 0.64892 0.32445 0.16069 0.0
H913 H 0.68481 0.30162 0.14309 0.0
C914 C 0.34339 0.30989 0.66758 0.0
C915 C 0.34137 0.29658 0.64151 0.0
C916 C 0.34087 0.29917 0.69256 0.0
C917 C 0.33963 0.24155 0.72354 0.0
H918 H 0.30163 0.27731 0.78137 0.0
C919 C 0.29978 0.20363 0.82367 0.0
C920 C 0.30185 0.2182 0.84894 0.0
C921 C 0.30703 0.21191 0.79818 0.0
C922 C 0.31251 0.26721 0.76556 0.0
H923 H 0.336 0.26142 0.62111 0.0
H924 H 0.33083 0.24263 0.66498 0.0
H925 H 0.30937 0.29392 0.73705 0.0
H926 H 0.31463 0.2523 0.86742 0.0
H927 H 0.3269 0.26682 0.82293 0.0
H928 H 0.34207 0.21455 0.7522 0.0
C929 C 0.33476 0.26136 0.66606 0.0
C930 C 0.31702 0.27674 0.74014 0.0
C931 C 0.33761 0.2721 0.64094 0.0
C932 C 0.31225 0.24084 0.84827 0.0
C933 C 0.31934 0.24913 0.82283 0.0
C934 C 0.3349 0.23189 0.749 0.0
C935 C 0.33589 0.27488 0.69215 0.0
C936 C 0.33085 0.26417 0.7189 0.0
C937 C 0.31635 0.23493 0.79747 0.0
C938 C 0.32149 0.24476 0.77033 0.0
H939 H 0.34674 0.32873 0.66871 0.0
H940 H 0.34258 0.31002 0.71226 0.0
H941 H 0.35049 0.23147 0.7077 0.0
H942 H 0.29163 0.18618 0.82341 0.0
H943 H 0.30437 0.20066 0.77891 0.0
C944 C 0.66446 0.68257 0.39442 0.0
C945 C 0.64741 0.69002 0.41559 0.0
C946 C 0.66431 0.69261 0.36878 0.0
C947 C 0.64961 0.74764 0.33961 0.0
H948 H 0.66347 0.71208 0.26847 0.0
C949 C 0.67775 0.7963 0.24513 0.0
C950 C 0.69947 0.78746 0.23163 0.0
C951 C 0.66422 0.78251 0.26258 0.0
C952 C 0.65959 0.72228 0.28815 0.0
H953 H 0.61622 0.7133 0.42605 0.0
H954 H 0.61628 0.73119 0.3812 0.0
H955 H 0.65322 0.69125 0.30961 0.0
H956 H 0.7224 0.75631 0.22359 0.0
H957 H 0.69952 0.73265 0.25486 0.0
H958 H 0.65736 0.77857 0.31894 0.0
C959 C 0.62974 0.71753 0.38459 0.0
C960 C 0.65367 0.71035 0.31167 0.0
C961 C 0.62971 0.70729 0.41022 0.0
C962 C 0.70609 0.76386 0.23416 0.0
C963 C 0.69272 0.75015 0.25185 0.0
C964 C 0.65571 0.75956 0.31621 0.0
C965 C 0.64723 0.71046 0.36374 0.0
C966 C 0.64933 0.72291 0.33782 0.0
C967 C 0.67223 0.75966 0.26719 0.0
C968 C 0.66149 0.74702 0.29038 0.0
H969 H 0.67817 0.66912 0.39776 0.0
H970 H 0.67823 0.68699 0.35328 0.0
H971 H 0.64663 0.7578 0.35955 0.0
H972 H 0.67205 0.8144 0.24382 0.0
H973 H 0.64818 0.7902 0.27355 0.0
C974 C 0.83228 0.19848 0.90136 0.0
C975 C 0.8389 0.21054 0.9273 0.0
C976 C 0.83129 0.21026 0.87699 0.0
C977 C 0.82361 0.26865 0.85134 0.0
H978 H 0.84593 0.23585 0.78143 0.0
C979 C 0.81382 0.30722 0.74289 0.0
C980 C 0.80283 0.29157 0.72186 0.0
C981 C 0.82181 0.29919 0.76835 0.0
C982 C 0.83964 0.24523 0.80079 0.0
H983 H 0.8497 0.24454 0.94789 0.0
H984 H 0.84794 0.26523 0.90497 0.0
H985 H 0.85361 0.21865 0.8257 0.0
H986 H 0.79148 0.2552 0.71144 0.0
H987 H 0.8059 0.24122 0.75536 0.0
H988 H 0.80923 0.29503 0.82616 0.0
C989 C 0.84341 0.24661 0.90372 0.0
C990 C 0.84398 0.23538 0.82613 0.0
C991 C 0.84447 0.23476 0.92825 0.0
C992 C 0.80038 0.26768 0.72679 0.0
C993 C 0.80857 0.25964 0.75204 0.0
C994 C 0.81936 0.27858 0.82592 0.0
C995 C 0.83693 0.23441 0.87781 0.0
C996 C 0.83535 0.24661 0.85159 0.0
C997 C 0.81924 0.27531 0.77314 0.0
C998 C 0.82671 0.2666 0.80034 0.0
H999 H 0.82784 0.17984 0.89976 0.0
H1000 H 0.82573 0.20044 0.8575 0.0
H1001 H 0.81663 0.27766 0.8706 0.0
H1002 H 0.81629 0.32568 0.73968 0.0
H1003 H 0.83012 0.3116 0.78422 0.0
C1004 C 0.26461 0.29852 0.5455 0.0
C1005 C 0.28914 0.29365 0.53644 0.0
C1006 C 0.24446 0.28556 0.53337 0.0
C1007 C 0.22938 0.22835 0.49544 0.0
H1008 H 0.16868 0.25899 0.47329 0.0
C1009 C 0.15289 0.17775 0.42965 0.0
C1010 C 0.1278 0.18306 0.43585 0.0
C1011 C 0.17217 0.19155 0.44226 0.0
C1012 C 0.18536 0.25011 0.47971 0.0
H1013 H 0.31162 0.27153 0.50717 0.0
H1014 H 0.27653 0.24896 0.48621 0.0
H1015 H 0.20293 0.28269 0.49484 0.0
H1016 H 0.10338 0.20729 0.46008 0.0
H1017 H 0.13704 0.23089 0.48276 0.0
H1018 H 0.21188 0.19578 0.48071 0.0
C1019 C 0.27291 0.26267 0.50283 0.0
C1020 C 0.20499 0.26371 0.492 0.0
C1021 C 0.29301 0.27572 0.51477 0.0
C1022 C 0.12249 0.20251 0.45505 0.0
C1023 C 0.1418 0.21625 0.46779 0.0
C1024 C 0.20973 0.21475 0.48336 0.0
C1025 C 0.24845 0.26734 0.5121 0.0
C1026 C 0.22728 0.25298 0.49977 0.0
C1027 C 0.16689 0.21093 0.46156 0.0
C1028 C 0.18753 0.22546 0.47512 0.0
H1029 H 0.26097 0.31226 0.56207 0.0
H1030 H 0.22581 0.28946 0.54103 0.0
H1031 H 0.24617 0.21954 0.50166 0.0
H1032 H 0.15772 0.16275 0.41524 0.0
H1033 H 0.19124 0.18711 0.43665 0.0
C1034 C 0.21161 0.77562 0.01959 0.0
C1035 C 0.21666 0.7982 0.03271 0.0
C1036 C 0.23072 0.76207 0.00664 0.0
C1037 C 0.29462 0.7672 0.97792 0.0
H1038 H 0.29606 0.69963 0.98318 0.0
C1039 C 0.37959 0.70933 0.94406 0.0
C1040 C 0.37456 0.68769 0.92851 0.0
C1041 C 0.36016 0.72292 0.95623 0.0
C1042 C 0.29577 0.71845 0.98131 0.0
H1043 H 0.24589 0.82411 0.04279 0.0
H1044 H 0.27922 0.80031 0.02089 0.0
H1045 H 0.26259 0.72297 0.00586 0.0
H1046 H 0.34497 0.66374 0.91306 0.0
H1047 H 0.31118 0.68729 0.9347 0.0
H1048 H 0.32807 0.76264 0.95373 0.0
C1049 C 0.26041 0.79323 0.02001 0.0
C1050 C 0.27656 0.73184 0.99426 0.0
C1051 C 0.24129 0.80684 0.03277 0.0
C1052 C 0.3496 0.68008 0.92532 0.0
C1053 C 0.33021 0.69359 0.93766 0.0
C1054 C 0.31393 0.75382 0.96516 0.0
C1055 C 0.25537 0.77072 0.00665 0.0
C1056 C 0.27574 0.7564 0.99274 0.0
C1057 C 0.33528 0.71512 0.9533 0.0
C1058 C 0.3147 0.72931 0.96672 0.0
H1059 H 0.19281 0.76851 0.01895 0.0
H1060 H 0.22606 0.74497 0.99621 0.0
H1061 H 0.29436 0.78599 0.97585 0.0
H1062 H 0.39859 0.71557 0.94736 0.0
H1063 H 0.36467 0.73931 0.96845 0.0
loop_
_geom_bond_atom_site_label_1
_geom_bond_atom_site_label_2
_geom_bond_distance
_geom_bond_site_symmetry_2
_ccdc_geom_bond_type
Fe0 O2 1.918 . S
Fe0 O5 1.997 . S
Fe0 O6 2.002 . S
Fe0 O11 1.976 . S
Fe0 O14 1.996 . S
Fe1 O2 1.918 . S
Fe1 O9 1.997 . S
Fe1 O12 1.996 . S
Fe1 O16 1.976 . S
Fe1 O19 2.002 . S
O2 Fe0 1.918 . S
O2 Fe1 1.918 . S
O2 Fe3 1.918 . S
Fe3 O2 1.918 . S
Fe3 O4 2.002 . S
Fe3 O13 1.976 . S
Fe3 O17 1.996 . S
Fe3 O20 1.997 . S
O4 Fe3 2.002 . S
O4 C21 1.295 . S
O5 Fe0 1.997 . S
O5 C21 1.235 . S
O6 Fe0 2.002 . S
O6 C7 1.295 . S
C7 O6 1.295 . S
C7 O9 1.235 . S
C8 O13 1.287 . S
C8 O14 1.255 . S
O9 Fe1 1.997 . S
O9 C7 1.235 . S
C10 O16 1.287 1_556 S
C10 O17 1.255 1_556 S
O11 Fe0 1.976 . S
O11 C18 1.287 . S
O12 Fe1 1.996 . S
O12 C18 1.255 . S
O13 Fe3 1.976 . S
O13 C8 1.287 . S
O14 Fe0 1.996 . S
O14 C8 1.255 . S
C15 O19 1.295 . S
C15 O20 1.235 . S
O16 Fe1 1.976 . S
O16 C10 1.287 1_554 S
O17 Fe3 1.996 . S
O17 C10 1.255 1_554 S
C18 O11 1.287 . S
C18 O12 1.255 . S
O19 Fe1 2.002 . S
O19 C15 1.295 . S
O20 Fe3 1.997 . S
O20 C15 1.235 . S
C21 O4 1.295 . S
C21 O5 1.235 . S
Fe22 O24 1.918 . S
Fe22 O27 1.997 . S
Fe22 O28 2.002 . S
Fe22 O33 1.976 . S
Fe22 O36 1.996 . S
Fe23 O24 1.918 . S
Fe23 O31 1.997 . S
Fe23 O34 1.996 . S
Fe23 O38 1.976 . S
Fe23 O41 2.002 . S
O24 Fe22 1.918 . S
O24 Fe23 1.918 . S
O24 Fe25 1.918 . S
Fe25 O24 1.918 . S
Fe25 O26 2.002 . S
Fe25 O35 1.976 . S
Fe25 O39 1.996 . S
Fe25 O42 1.997 . S
O26 Fe25 2.002 . S
O26 C43 1.295 . S
O27 Fe22 1.997 . S
O27 C43 1.235 . S
O28 Fe22 2.002 . S
O28 C29 1.295 . S
C29 O28 1.295 . S
C29 O31 1.235 . S
C30 O35 1.287 . S
C30 O36 1.255 . S
O31 Fe23 1.997 . S
O31 C29 1.235 . S
C32 O38 1.287 . S
C32 O39 1.255 . S
O33 Fe22 1.976 . S
O33 C40 1.287 . S
O34 Fe23 1.996 . S
O34 C40 1.255 . S
O35 Fe25 1.976 . S
O35 C30 1.287 . S
O36 Fe22 1.996 . S
O36 C30 1.255 . S
C37 O41 1.295 . S
C37 O42 1.235 . S
O38 Fe23 1.976 . S
O38 C32 1.287 . S
O39 Fe25 1.996 . S
O39 C32 1.255 . S
C40 O33 1.287 . S
C40 O34 1.255 . S
O41 Fe23 2.002 . S
O41 C37 1.295 . S
O42 Fe25 1.997 . S
O42 C37 1.235 . S
C43 O26 1.295 . S
C43 O27 1.235 . S
Fe44 O46 1.918 . S
Fe44 O49 1.997 1_554 S
Fe44 O50 2.002 1_554 S
Fe44 O55 1.976 . S
Fe44 O58 1.996 . S
Fe45 O46 1.918 . S
Fe45 O53 1.997 1_554 S
Fe45 O56 1.996 . S
Fe45 O60 1.976 . S
Fe45 O63 2.002 1_554 S
O46 Fe44 1.918 . S
O46 Fe45 1.918 . S
O46 Fe47 1.918 1_554 S
Fe47 O46 1.918 1_556 S
Fe47 O48 2.002 . S
Fe47 O57 1.976 1_556 S
Fe47 O61 1.996 1_556 S
Fe47 O64 1.997 . S
O48 Fe47 2.002 . S
O48 C65 1.295 . S
O49 Fe44 1.997 1_556 S
O49 C65 1.235 . S
O50 Fe44 2.002 1_556 S
O50 C51 1.295 . S
C51 O50 1.295 . S
C51 O53 1.235 . S
C52 O57 1.287 . S
C52 O58 1.255 . S
O53 Fe45 1.997 1_556 S
O53 C51 1.235 . S
C54 O60 1.287 . S
C54 O61 1.255 . S
O55 Fe44 1.976 . S
O55 C62 1.287 . S
O56 Fe45 1.996 . S
O56 C62 1.255 . S
O57 Fe47 1.976 1_554 S
O57 C52 1.287 . S
O58 Fe44 1.996 . S
O58 C52 1.255 . S
C59 O63 1.295 . S
C59 O64 1.235 . S
O60 Fe45 1.976 . S
O60 C54 1.287 . S
O61 Fe47 1.996 1_554 S
O61 C54 1.255 . S
C62 O55 1.287 . S
C62 O56 1.255 . S
O63 Fe45 2.002 1_556 S
O63 C59 1.295 . S
O64 Fe47 1.997 . S
O64 C59 1.235 . S
C65 O48 1.295 . S
C65 O49 1.235 . S
Fe66 O68 1.918 . S
Fe66 O71 1.997 . S
Fe66 O72 2.002 . S
Fe66 O77 1.976 . S
Fe66 O80 1.996 . S
Fe67 O68 1.918 . S
Fe67 O75 1.997 . S
Fe67 O78 1.996 . S
Fe67 O82 1.976 . S
Fe67 O85 2.002 . S
O68 Fe66 1.918 . S
O68 Fe67 1.918 . S
O68 Fe69 1.918 . S
Fe69 O68 1.918 . S
Fe69 O70 2.002 . S
Fe69 O79 1.976 . S
Fe69 O83 1.996 . S
Fe69 O86 1.997 . S
O70 Fe69 2.002 . S
O70 C87 1.295 . S
O71 Fe66 1.997 . S
O71 C87 1.235 . S
O72 Fe66 2.002 . S
O72 C73 1.295 . S
C73 O72 1.295 . S
C73 O75 1.235 . S
C74 O79 1.287 . S
C74 O80 1.255 . S
O75 Fe67 1.997 . S
O75 C73 1.235 . S
C76 O82 1.287 . S
C76 O83 1.255 . S
O77 Fe66 1.976 . S
O77 C84 1.287 . S
O78 Fe67 1.996 . S
O78 C84 1.255 . S
O79 Fe69 1.976 . S
O79 C74 1.287 . S
O80 Fe66 1.996 . S
O80 C74 1.255 . S
C81 O85 1.295 . S
C81 O86 1.235 . S
O82 Fe67 1.976 . S
O82 C76 1.287 . S
O83 Fe69 1.996 . S
O83 C76 1.255 . S
C84 O77 1.287 . S
C84 O78 1.255 . S
O85 Fe67 2.002 . S
O85 C81 1.295 . S
O86 Fe69 1.997 . S
O86 C81 1.235 . S
C87 O70 1.295 . S
C87 O71 1.235 . S
P88 O99 1.490 . S
P88 C102 1.812 . S
P88 C108 1.803 . S
P88 C114 1.819 . S
H89 C103 0.941 . S
H90 C104 0.939 . S
H91 C106 0.940 . S
H92 C107 0.940 . S
H93 C109 0.939 . S
H94 C110 0.942 . S
H95 C112 0.940 . S
H96 C113 0.939 . S
H97 C115 0.941 . S
H98 C119 0.939 . S
O99 P88 1.490 . S
H100 C116 0.939 1_655 S
H101 C118 0.940 . S
C102 P88 1.812 . S
C102 C103 1.389 . S
C102 C107 1.391 . S
C103 H89 0.941 . S
C103 C102 1.389 . S
C103 C104 1.397 . S
C104 H90 0.939 . S
C104 C103 1.397 . S
C104 C105 1.378 . S
C105 C104 1.378 . S
C105 C106 1.378 . S
C106 H91 0.940 . S
C106 C105 1.378 . S
C106 C107 1.396 . S
C107 H92 0.940 . S
C107 C102 1.391 . S
C107 C106 1.396 . S
C108 P88 1.803 . S
C108 C109 1.378 . S
C108 C113 1.400 . S
C109 H93 0.939 . S
C109 C108 1.378 . S
C109 C110 1.361 . S
C110 H94 0.942 . S
C110 C109 1.361 . S
C110 C111 1.369 . S
C111 C110 1.369 . S
C111 C112 1.404 . S
C112 H95 0.940 . S
C112 C111 1.404 . S
C112 C113 1.389 . S
C113 H96 0.939 . S
C113 C108 1.400 . S
C113 C112 1.389 . S
C114 P88 1.819 . S
C114 C115 1.391 . S
C114 C119 1.391 . S
C115 H97 0.941 . S
C115 C114 1.391 . S
C115 C116 1.396 . S
C116 H100 0.939 1_455 S
C116 C115 1.396 . S
C116 C117 1.397 . S
C117 C116 1.397 . S
C117 C118 1.385 . S
C118 H101 0.940 . S
C118 C117 1.385 . S
C118 C119 1.388 . S
C119 H98 0.939 . S
C119 C114 1.391 . S
C119 C118 1.388 . S
P120 O131 1.490 . S
P120 C134 1.812 . S
P120 C140 1.803 . S
P120 C146 1.819 . S
H121 C135 0.941 . S
H122 C136 0.939 . S
H123 C138 0.940 . S
H124 C139 0.940 . S
H125 C141 0.939 . S
H126 C142 0.942 . S
H127 C144 0.940 . S
H128 C145 0.939 . S
H129 C147 0.941 . S
H130 C151 0.939 . S
O131 P120 1.490 . S
H132 C148 0.939 . S
H133 C150 0.940 . S
C134 P120 1.812 . S
C134 C135 1.389 . S
C134 C139 1.391 . S
C135 H121 0.941 . S
C135 C134 1.389 . S
C135 C136 1.397 . S
C136 H122 0.939 . S
C136 C135 1.397 . S
C136 C137 1.378 . S
C137 C136 1.378 . S
C137 C138 1.378 . S
C138 H123 0.940 . S
C138 C137 1.378 . S
C138 C139 1.396 . S
C139 H124 0.940 . S
C139 C134 1.391 . S
C139 C138 1.396 . S
C140 P120 1.803 . S
C140 C141 1.378 . S
C140 C145 1.400 . S
C141 H125 0.939 . S
C141 C140 1.378 . S
C141 C142 1.361 . S
C142 H126 0.942 . S
C142 C141 1.361 . S
C142 C143 1.369 . S
C143 C142 1.369 . S
C143 C144 1.404 . S
C144 H127 0.940 . S
C144 C143 1.404 . S
C144 C145 1.389 . S
C145 H128 0.939 . S
C145 C140 1.400 . S
C145 C144 1.389 . S
C146 P120 1.819 . S
C146 C147 1.391 . S
C146 C151 1.391 . S
C147 H129 0.941 . S
C147 C146 1.391 . S
C147 C148 1.396 . S
C148 H132 0.939 . S
C148 C147 1.396 . S
C148 C149 1.397 . S
C149 C148 1.397 . S
C149 C150 1.385 . S
C150 H133 0.940 . S
C150 C149 1.385 . S
C150 C151 1.388 . S
C151 H130 0.939 . S
C151 C146 1.391 . S
C151 C150 1.388 . S
P152 O163 1.490 . S
P152 C166 1.812 . S
P152 C172 1.803 . S
P152 C178 1.819 . S
H153 C167 0.941 . S
H154 C168 0.939 . S
H155 C170 0.940 . S
H156 C171 0.940 . S
H157 C173 0.939 . S
H158 C174 0.942 . S
H159 C176 0.940 . S
H160 C177 0.939 . S
H161 C179 0.941 . S
H162 C183 0.939 . S
O163 P152 1.490 . S
H164 C180 0.939 . S
H165 C182 0.940 . S
C166 P152 1.812 . S
C166 C167 1.389 . S
C166 C171 1.391 . S
C167 H153 0.941 . S
C167 C166 1.389 . S
C167 C168 1.397 . S
C168 H154 0.939 . S
C168 C167 1.397 . S
C168 C169 1.378 . S
C169 C168 1.378 . S
C169 C170 1.378 . S
C170 H155 0.940 . S
C170 C169 1.378 . S
C170 C171 1.396 . S
C171 H156 0.940 . S
C171 C166 1.391 . S
C171 C170 1.396 . S
C172 P152 1.803 . S
C172 C173 1.378 . S
C172 C177 1.400 . S
C173 H157 0.939 . S
C173 C172 1.378 . S
C173 C174 1.361 . S
C174 H158 0.942 . S
C174 C173 1.361 . S
C174 C175 1.369 . S
C175 C174 1.369 . S
C175 C176 1.404 . S
C176 H159 0.940 . S
C176 C175 1.404 . S
C176 C177 1.389 . S
C177 H160 0.939 . S
C177 C172 1.400 . S
C177 C176 1.389 . S
C178 P152 1.819 . S
C178 C179 1.391 . S
C178 C183 1.391 . S
C179 H161 0.941 . S
C179 C178 1.391 . S
C179 C180 1.396 . S
C180 H164 0.939 . S
C180 C179 1.396 . S
C180 C181 1.397 . S
C181 C180 1.397 . S
C181 C182 1.385 . S
C182 H165 0.940 . S
C182 C181 1.385 . S
C182 C183 1.388 . S
C183 H162 0.939 . S
C183 C178 1.391 . S
C183 C182 1.388 . S
P184 O195 1.490 . S
P184 C198 1.812 . S
P184 C204 1.803 . S
P184 C210 1.819 . S
H185 C199 0.941 . S
H186 C200 0.939 . S
H187 C202 0.940 . S
H188 C203 0.940 . S
H189 C205 0.939 . S
H190 C206 0.942 . S
H191 C208 0.940 . S
H192 C209 0.939 . S
H193 C211 0.941 . S
H194 C215 0.939 . S
O195 P184 1.490 . S
H196 C212 0.939 . S
H197 C214 0.940 . S
C198 P184 1.812 . S
C198 C199 1.389 . S
C198 C203 1.391 . S
C199 H185 0.941 . S
C199 C198 1.389 . S
C199 C200 1.397 . S
C200 H186 0.939 . S
C200 C199 1.397 . S
C200 C201 1.378 . S
C201 C200 1.378 . S
C201 C202 1.378 . S
C202 H187 0.940 . S
C202 C201 1.378 . S
C202 C203 1.396 . S
C203 H188 0.940 . S
C203 C198 1.391 . S
C203 C202 1.396 . S
C204 P184 1.803 . S
C204 C205 1.378 . S
C204 C209 1.400 . S
C205 H189 0.939 . S
C205 C204 1.378 . S
C205 C206 1.361 . S
C206 H190 0.942 . S
C206 C205 1.361 . S
C206 C207 1.369 . S
C207 C206 1.369 . S
C207 C208 1.404 . S
C208 H191 0.940 . S
C208 C207 1.404 . S
C208 C209 1.389 . S
C209 H192 0.939 . S
C209 C204 1.400 . S
C209 C208 1.389 . S
C210 P184 1.819 . S
C210 C211 1.391 . S
C210 C215 1.391 . S
C211 H193 0.941 . S
C211 C210 1.391 . S
C211 C212 1.396 . S
C212 H196 0.939 . S
C212 C211 1.396 . S
C212 C213 1.397 . S
C213 C212 1.397 . S
C213 C214 1.385 . S
C214 H197 0.940 . S
C214 C213 1.385 . S
C214 C215 1.388 . S
C215 H194 0.939 . S
C215 C210 1.391 . S
C215 C214 1.388 . S
P216 O227 1.490 . S
P216 C230 1.812 . S
P216 C236 1.803 . S
P216 C242 1.819 . S
H217 C231 0.941 . S
H218 C232 0.939 . S
H219 C234 0.940 . S
H220 C235 0.940 . S
H221 C237 0.939 . S
H222 C238 0.942 . S
H223 C240 0.940 . S
H224 C241 0.939 . S
H225 C243 0.941 . S
H226 C247 0.939 . S
O227 P216 1.490 . S
H228 C244 0.939 . S
H229 C246 0.940 . S
C230 P216 1.812 . S
C230 C231 1.389 . S
C230 C235 1.391 . S
C231 H217 0.941 . S
C231 C230 1.389 . S
C231 C232 1.397 . S
C232 H218 0.939 . S
C232 C231 1.397 . S
C232 C233 1.378 . S
C233 C232 1.378 . S
C233 C234 1.378 . S
C234 H219 0.940 . S
C234 C233 1.378 . S
C234 C235 1.396 . S
C235 H220 0.940 . S
C235 C230 1.391 . S
C235 C234 1.396 . S
C236 P216 1.803 . S
C236 C237 1.378 . S
C236 C241 1.400 . S
C237 H221 0.939 . S
C237 C236 1.378 . S
C237 C238 1.361 . S
C238 H222 0.942 . S
C238 C237 1.361 . S
C238 C239 1.369 . S
C239 C238 1.369 . S
C239 C240 1.404 . S
C240 H223 0.940 . S
C240 C239 1.404 . S
C240 C241 1.389 . S
C241 H224 0.939 . S
C241 C236 1.400 . S
C241 C240 1.389 . S
C242 P216 1.819 . S
C242 C243 1.391 . S
C242 C247 1.391 . S
C243 H225 0.941 . S
C243 C242 1.391 . S
C243 C244 1.396 . S
C244 H228 0.939 . S
C244 C243 1.396 . S
C244 C245 1.397 . S
C245 C244 1.397 . S
C245 C246 1.385 . S
C246 H229 0.940 . S
C246 C245 1.385 . S
C246 C247 1.388 . S
C247 H226 0.939 . S
C247 C242 1.391 . S
C247 C246 1.388 . S
P248 O259 1.490 . S
P248 C262 1.812 . S
P248 C268 1.803 . S
P248 C274 1.819 . S
H249 C263 0.941 . S
H250 C264 0.939 . S
H251 C266 0.940 . S
H252 C267 0.940 . S
H253 C269 0.939 . S
H254 C270 0.942 . S
H255 C272 0.940 . S
H256 C273 0.939 . S
H257 C275 0.941 . S
H258 C279 0.939 . S
O259 P248 1.490 . S
H260 C276 0.939 . S
H261 C278 0.940 . S
C262 P248 1.812 . S
C262 C263 1.389 . S
C262 C267 1.391 . S
C263 H249 0.941 . S
C263 C262 1.389 . S
C263 C264 1.397 . S
C264 H250 0.939 . S
C264 C263 1.397 . S
C264 C265 1.378 . S
C265 C264 1.378 . S
C265 C266 1.378 . S
C266 H251 0.940 . S
C266 C265 1.378 . S
C266 C267 1.396 . S
C267 H252 0.940 . S
C267 C262 1.391 . S
C267 C266 1.396 . S
C268 P248 1.803 . S
C268 C269 1.378 . S
C268 C273 1.400 . S
C269 H253 0.939 . S
C269 C268 1.378 . S
C269 C270 1.361 . S
C270 H254 0.942 . S
C270 C269 1.361 . S
C270 C271 1.369 . S
C271 C270 1.369 . S
C271 C272 1.404 . S
C272 H255 0.940 . S
C272 C271 1.404 . S
C272 C273 1.389 . S
C273 H256 0.939 . S
C273 C268 1.400 . S
C273 C272 1.389 . S
C274 P248 1.819 . S
C274 C275 1.391 . S
C274 C279 1.391 . S
C275 H257 0.941 . S
C275 C274 1.391 . S
C275 C276 1.396 . S
C276 H260 0.939 . S
C276 C275 1.396 . S
C276 C277 1.397 . S
C277 C276 1.397 . S
C277 C278 1.385 . S
C278 H261 0.940 . S
C278 C277 1.385 . S
C278 C279 1.388 . S
C279 H258 0.939 . S
C279 C274 1.391 . S
C279 C278 1.388 . S
P280 O291 1.490 . S
P280 C294 1.812 . S
P280 C300 1.803 . S
P280 C306 1.819 . S
H281 C295 0.941 . S
H282 C296 0.939 . S
H283 C298 0.940 . S
H284 C299 0.940 . S
H285 C301 0.939 . S
H286 C302 0.942 . S
H287 C304 0.940 . S
H288 C305 0.939 . S
H289 C307 0.941 . S
H290 C311 0.939 . S
O291 P280 1.490 . S
H292 C308 0.939 . S
H293 C310 0.940 . S
C294 P280 1.812 . S
C294 C295 1.389 . S
C294 C299 1.391 . S
C295 H281 0.941 . S
C295 C294 1.389 . S
C295 C296 1.397 . S
C296 H282 0.939 . S
C296 C295 1.397 . S
C296 C297 1.378 . S
C297 C296 1.378 . S
C297 C298 1.378 . S
C298 H283 0.940 . S
C298 C297 1.378 . S
C298 C299 1.396 . S
C299 H284 0.940 . S
C299 C294 1.391 . S
C299 C298 1.396 . S
C300 P280 1.803 . S
C300 C301 1.378 . S
C300 C305 1.400 . S
C301 H285 0.939 . S
C301 C300 1.378 . S
C301 C302 1.361 . S
C302 H286 0.942 . S
C302 C301 1.361 . S
C302 C303 1.369 . S
C303 C302 1.369 . S
C303 C304 1.404 . S
C304 H287 0.940 . S
C304 C303 1.404 . S
C304 C305 1.389 . S
C305 H288 0.939 . S
C305 C300 1.400 . S
C305 C304 1.389 . S
C306 P280 1.819 . S
C306 C307 1.391 . S
C306 C311 1.391 . S
C307 H289 0.941 . S
C307 C306 1.391 . S
C307 C308 1.396 . S
C308 H292 0.939 . S
C308 C307 1.396 . S
C308 C309 1.397 . S
C309 C308 1.397 . S
C309 C310 1.385 . S
C310 H293 0.940 . S
C310 C309 1.385 . S
C310 C311 1.388 . S
C311 H290 0.939 . S
C311 C306 1.391 . S
C311 C310 1.388 . S
P312 O323 1.490 . S
P312 C326 1.812 . S
P312 C332 1.803 . S
P312 C338 1.819 . S
H313 C327 0.941 . S
H314 C328 0.939 . S
H315 C330 0.940 . S
H316 C331 0.940 . S
H317 C333 0.939 . S
H318 C334 0.942 . S
H319 C336 0.940 . S
H320 C337 0.939 . S
H321 C339 0.941 . S
H322 C343 0.939 . S
O323 P312 1.490 . S
H324 C340 0.939 . S
H325 C342 0.940 . S
C326 P312 1.812 . S
C326 C327 1.389 . S
C326 C331 1.391 . S
C327 H313 0.941 . S
C327 C326 1.389 . S
C327 C328 1.397 . S
C328 H314 0.939 . S
C328 C327 1.397 . S
C328 C329 1.378 . S
C329 C328 1.378 . S
C329 C330 1.378 . S
C330 H315 0.940 . S
C330 C329 1.378 . S
C330 C331 1.396 . S
C331 H316 0.940 . S
C331 C326 1.391 . S
C331 C330 1.396 . S
C332 P312 1.803 . S
C332 C333 1.378 . S
C332 C337 1.400 . S
C333 H317 0.939 . S
C333 C332 1.378 . S
C333 C334 1.361 . S
C334 H318 0.942 . S
C334 C333 1.361 . S
C334 C335 1.369 . S
C335 C334 1.369 . S
C335 C336 1.404 . S
C336 H319 0.940 . S
C336 C335 1.404 . S
C336 C337 1.389 . S
C337 H320 0.939 . S
C337 C332 1.400 . S
C337 C336 1.389 . S
C338 P312 1.819 . S
C338 C339 1.391 . S
C338 C343 1.391 . S
C339 H321 0.941 . S
C339 C338 1.391 . S
C339 C340 1.396 . S
C340 H324 0.939 . S
C340 C339 1.396 . S
C340 C341 1.397 . S
C341 C340 1.397 . S
C341 C342 1.385 . S
C342 H325 0.940 . S
C342 C341 1.385 . S
C342 C343 1.388 . S
C343 H322 0.939 . S
C343 C338 1.391 . S
C343 C342 1.388 . S
C344 C345 1.349 . S
C344 C346 1.327 . S
C344 H369 0.950 . S
C345 C344 1.349 . S
C345 C361 1.349 . S
C346 C344 1.327 . S
C346 C365 1.429 . S
C346 H370 0.950 . S
C347 C364 1.574 . S
C347 C366 1.368 . S
C347 H371 0.949 . S
H348 C352 0.949 1_545 S
C349 C350 1.349 . S
C349 C351 1.327 1_545 S
C349 H372 0.950 . S
C350 C349 1.349 . S
C350 C362 1.349 . S
C351 C349 1.327 1_565 S
C351 C367 1.429 1_565 S
C351 H373 0.950 . S
C352 H348 0.949 1_565 S
C352 C360 1.574 . S
C352 C368 1.368 . S
H353 C361 0.950 . S
H354 C359 0.950 . S
H355 C360 0.949 . S
H356 C362 0.950 . S
H357 C363 0.950 . S
H358 C364 0.949 . S
C359 H354 0.950 . S
C359 C361 1.327 . S
C359 C365 1.429 . S
C360 C352 1.574 . S
C360 H355 0.949 . S
C360 C366 1.368 . S
C361 C345 1.349 . S
C361 H353 0.950 . S
C361 C359 1.327 . S
C362 C350 1.349 . S
C362 H356 0.950 . S
C362 C363 1.327 . S
C363 H357 0.950 . S
C363 C362 1.327 . S
C363 C367 1.429 . S
C364 C347 1.574 . S
C364 H358 0.949 . S
C364 C368 1.368 . S
C365 C346 1.429 . S
C365 C359 1.429 . S
C365 C366 1.523 . S
C366 C347 1.368 . S
C366 C360 1.368 . S
C366 C365 1.523 . S
C367 C351 1.429 1_545 S
C367 C363 1.429 . S
C367 C368 1.523 1_545 S
C368 C352 1.368 . S
C368 C364 1.368 . S
C368 C367 1.523 1_565 S
H369 C344 0.950 . S
H370 C346 0.950 . S
H371 C347 0.949 . S
H372 C349 0.950 . S
H373 C351 0.950 . S
C374 C375 1.349 . S
C374 C376 1.327 . S
C374 H399 0.950 . S
C375 C374 1.349 . S
C375 C391 1.349 . S
C376 C374 1.327 . S
C376 C395 1.429 . S
C376 H400 0.950 . S
C377 C394 1.574 . S
C377 C396 1.368 . S
C377 H401 0.949 . S
H378 C382 0.949 . S
C379 C380 1.349 . S
C379 C381 1.327 . S
C379 H402 0.950 . S
C380 C379 1.349 . S
C380 C392 1.349 . S
C381 C379 1.327 . S
C381 C397 1.429 . S
C381 H403 0.950 . S
C382 H378 0.949 . S
C382 C390 1.574 . S
C382 C398 1.368 . S
H383 C391 0.950 . S
H384 C389 0.950 . S
H385 C390 0.949 . S
H386 C392 0.950 . S
H387 C393 0.950 . S
H388 C394 0.949 . S
C389 H384 0.950 . S
C389 C391 1.327 . S
C389 C395 1.429 . S
C390 C382 1.574 . S
C390 H385 0.949 . S
C390 C396 1.368 . S
C391 C375 1.349 . S
C391 H383 0.950 . S
C391 C389 1.327 . S
C392 C380 1.349 . S
C392 H386 0.950 . S
C392 C393 1.327 . S
C393 H387 0.950 . S
C393 C392 1.327 . S
C393 C397 1.429 . S
C394 C377 1.574 . S
C394 H388 0.949 . S
C394 C398 1.368 . S
C395 C376 1.429 . S
C395 C389 1.429 . S
C395 C396 1.523 . S
C396 C377 1.368 . S
C396 C390 1.368 . S
C396 C395 1.523 . S
C397 C381 1.429 . S
C397 C393 1.429 . S
C397 C398 1.523 . S
C398 C382 1.368 . S
C398 C394 1.368 . S
C398 C397 1.523 . S
H399 C374 0.950 . S
H400 C376 0.950 . S
H401 C377 0.949 . S
H402 C379 0.950 . S
H403 C381 0.950 . S
C404 C405 1.349 . S
C404 C406 1.327 . S
C404 H429 0.950 . S
C405 C404 1.349 . S
C405 C421 1.349 . S
C406 C404 1.327 . S
C406 C425 1.429 . S
C406 H430 0.950 . S
C407 C424 1.574 1_545 S
C407 C426 1.368 . S
C407 H431 0.949 . S
H408 C412 0.945 1_565 S
C409 C410 1.349 . S
C409 C411 1.327 . S
C409 H432 0.950 . S
C410 C409 1.349 . S
C410 C422 1.349 . S
C411 C409 1.327 . S
C411 C427 1.429 . S
C411 H433 0.950 . S
C412 H408 0.945 1_545 S
C412 C420 1.587 . S
C412 C428 1.360 1_545 S
H413 C421 0.950 . S
H414 C419 0.950 . S
H415 C420 0.949 . S
H416 C422 0.950 . S
H417 C423 0.950 . S
H418 C424 0.949 . S
C419 H414 0.950 . S
C419 C421 1.327 . S
C419 C425 1.429 . S
C420 C412 1.587 . S
C420 H415 0.949 . S
C420 C426 1.368 . S
C421 C405 1.349 . S
C421 H413 0.950 . S
C421 C419 1.327 . S
C422 C410 1.349 . S
C422 H416 0.950 . S
C422 C423 1.327 . S
C423 H417 0.950 . S
C423 C422 1.327 . S
C423 C427 1.429 . S
C424 C407 1.574 1_565 S
C424 H418 0.949 . S
C424 C428 1.368 . S
C425 C406 1.429 . S
C425 C419 1.429 . S
C425 C426 1.523 . S
C426 C407 1.368 . S
C426 C420 1.368 . S
C426 C425 1.523 . S
C427 C411 1.429 . S
C427 C423 1.429 . S
C427 C428 1.523 . S
C428 C412 1.360 1_565 S
C428 C424 1.368 . S
C428 C427 1.523 . S
H429 C404 0.950 . S
H430 C406 0.950 . S
H431 C407 0.949 . S
H432 C409 0.950 . S
H433 C411 0.950 . S
C434 C435 1.349 . S
C434 C436 1.327 . S
C434 H459 0.950 . S
C435 C434 1.349 . S
C435 C451 1.349 . S
C436 C434 1.327 . S
C436 C455 1.429 . S
C436 H460 0.950 . S
C437 C454 1.574 . S
C437 C456 1.368 . S
C437 H461 0.949 . S
H438 C442 0.949 . S
C439 C440 1.349 . S
C439 C441 1.327 . S
C439 H462 0.950 . S
C440 C439 1.349 . S
C440 C452 1.349 . S
C441 C439 1.327 . S
C441 C457 1.429 . S
C441 H463 0.950 . S
C442 H438 0.949 . S
C442 C450 1.574 . S
C442 C458 1.368 . S
H443 C451 0.950 . S
H444 C449 0.950 . S
H445 C450 0.949 . S
H446 C452 0.950 . S
H447 C453 0.950 . S
H448 C454 0.949 . S
C449 H444 0.950 . S
C449 C451 1.327 . S
C449 C455 1.429 . S
C450 C442 1.574 . S
C450 H445 0.949 . S
C450 C456 1.368 . S
C451 C435 1.349 . S
C451 H443 0.950 . S
C451 C449 1.327 . S
C452 C440 1.349 . S
C452 H446 0.950 . S
C452 C453 1.327 . S
C453 H447 0.950 . S
C453 C452 1.327 . S
C453 C457 1.429 . S
C454 C437 1.574 . S
C454 H448 0.949 . S
C454 C458 1.368 . S
C455 C436 1.429 . S
C455 C449 1.429 . S
C455 C456 1.523 . S
C456 C437 1.368 . S
C456 C450 1.368 . S
C456 C455 1.523 . S
C457 C441 1.429 . S
C457 C453 1.429 . S
C457 C458 1.523 . S
C458 C442 1.368 . S
C458 C454 1.368 . S
C458 C457 1.523 . S
H459 C434 0.950 . S
H460 C436 0.950 . S
H461 C437 0.949 . S
H462 C439 0.950 . S
H463 C441 0.950 . S
C464 C465 1.349 . S
C464 C466 1.327 . S
C464 H489 0.950 . S
C465 C464 1.349 . S
C465 C481 1.349 . S
C466 C464 1.327 . S
C466 C485 1.429 . S
C466 H490 0.950 . S
C467 C484 1.574 . S
C467 C486 1.368 . S
C467 H491 0.949 . S
H468 C472 0.949 . S
C469 C470 1.349 . S
C469 C471 1.327 . S
C469 H492 0.950 . S
C470 C469 1.349 . S
C470 C482 1.349 . S
C471 C469 1.327 . S
C471 C487 1.429 . S
C471 H493 0.950 . S
C472 H468 0.949 . S
C472 C480 1.574 . S
C472 C488 1.368 . S
H473 C481 0.950 . S
H474 C479 0.950 . S
H475 C480 0.949 . S
H476 C482 0.950 . S
H477 C483 0.950 . S
H478 C484 0.949 . S
C479 H474 0.950 . S
C479 C481 1.327 . S
C479 C485 1.429 . S
C480 C472 1.574 . S
C480 H475 0.949 . S
C480 C486 1.368 . S
C481 C465 1.349 . S
C481 H473 0.950 . S
C481 C479 1.327 . S
C482 C470 1.349 . S
C482 H476 0.950 . S
C482 C483 1.327 . S
C483 H477 0.950 . S
C483 C482 1.327 . S
C483 C487 1.429 . S
C484 C467 1.574 . S
C484 H478 0.949 . S
C484 C488 1.368 . S
C485 C466 1.429 . S
C485 C479 1.429 . S
C485 C486 1.523 . S
C486 C467 1.368 . S
C486 C480 1.368 . S
C486 C485 1.523 . S
C487 C471 1.429 . S
C487 C483 1.429 . S
C487 C488 1.523 . S
C488 C472 1.368 . S
C488 C484 1.368 . S
C488 C487 1.523 . S
H489 C464 0.950 . S
H490 C466 0.950 . S
H491 C467 0.949 . S
H492 C469 0.950 . S
H493 C471 0.950 . S
C494 C495 1.349 . S
C494 C496 1.327 . S
C494 H519 0.950 . S
C495 C494 1.349 . S
C495 C511 1.349 . S
C496 C494 1.327 . S
C496 C515 1.429 . S
C496 H520 0.950 . S
C497 C514 1.574 . S
C497 C516 1.368 . S
C497 H521 0.949 . S
H498 C502 0.949 . S
C499 C500 1.349 . S
C499 C501 1.327 . S
C499 H522 0.950 . S
C500 C499 1.349 . S
C500 C512 1.349 . S
C501 C499 1.327 . S
C501 C517 1.429 . S
C501 H523 0.950 . S
C502 H498 0.949 . S
C502 C510 1.574 . S
C502 C518 1.368 . S
H503 C511 0.950 . S
H504 C509 0.950 . S
H505 C510 0.949 . S
H506 C512 0.950 . S
H507 C513 0.950 . S
H508 C514 0.949 . S
C509 H504 0.950 . S
C509 C511 1.327 . S
C509 C515 1.429 . S
C510 C502 1.574 . S
C510 H505 0.949 . S
C510 C516 1.368 . S
C511 C495 1.349 . S
C511 H503 0.950 . S
C511 C509 1.327 . S
C512 C500 1.349 . S
C512 H506 0.950 . S
C512 C513 1.327 . S
C513 H507 0.950 . S
C513 C512 1.327 . S
C513 C517 1.429 . S
C514 C497 1.574 . S
C514 H508 0.949 . S
C514 C518 1.368 . S
C515 C496 1.429 . S
C515 C509 1.429 . S
C515 C516 1.523 1_655 S
C516 C497 1.368 . S
C516 C510 1.368 . S
C516 C515 1.523 1_455 S
C517 C501 1.429 . S
C517 C513 1.429 . S
C517 C518 1.523 . S
C518 C502 1.368 . S
C518 C514 1.368 . S
C518 C517 1.523 . S
H519 C494 0.950 . S
H520 C496 0.950 . S
H521 C497 0.949 . S
H522 C499 0.950 . S
H523 C501 0.950 . S
C524 C525 1.349 . S
C524 C526 1.327 . S
C524 H549 0.950 . S
C525 C524 1.349 . S
C525 C541 1.349 . S
C526 C524 1.327 . S
C526 C545 1.429 . S
C526 H550 0.950 . S
C527 C544 1.574 . S
C527 C546 1.368 . S
C527 H551 0.949 . S
H528 C532 0.949 . S
C529 C530 1.349 . S
C529 C531 1.327 . S
C529 H552 0.950 . S
C530 C529 1.349 . S
C530 C542 1.349 . S
C531 C529 1.327 . S
C531 C547 1.429 . S
C531 H553 0.950 . S
C532 H528 0.949 . S
C532 C540 1.574 . S
C532 C548 1.368 . S
H533 C541 0.950 . S
H534 C539 0.950 . S
H535 C540 0.949 . S
H536 C542 0.950 . S
H537 C543 0.950 . S
H538 C544 0.949 . S
C539 H534 0.950 . S
C539 C541 1.327 . S
C539 C545 1.429 . S
C540 C532 1.574 . S
C540 H535 0.949 . S
C540 C546 1.368 . S
C541 C525 1.349 . S
C541 H533 0.950 . S
C541 C539 1.327 . S
C542 C530 1.349 . S
C542 H536 0.950 . S
C542 C543 1.327 . S
C543 H537 0.950 . S
C543 C542 1.327 . S
C543 C547 1.429 . S
C544 C527 1.574 . S
C544 H538 0.949 . S
C544 C548 1.368 . S
C545 C526 1.429 . S
C545 C539 1.429 . S
C545 C546 1.523 . S
C546 C527 1.368 . S
C546 C540 1.368 . S
C546 C545 1.523 . S
C547 C531 1.429 . S
C547 C543 1.429 . S
C547 C548 1.523 . S
C548 C532 1.368 . S
C548 C544 1.368 . S
C548 C547 1.523 . S
H549 C524 0.950 . S
H550 C526 0.950 . S
H551 C527 0.949 . S
H552 C529 0.950 . S
H553 C531 0.950 . S
C554 C555 1.349 . S
C554 C556 1.327 . S
C554 H579 0.950 . S
C555 C554 1.349 . S
C555 C571 1.349 . S
C556 C554 1.327 . S
C556 C575 1.429 . S
C556 H580 0.950 . S
C557 C574 1.574 . S
C557 C576 1.368 . S
C557 H581 0.949 . S
H558 C562 0.949 . S
C559 C560 1.366 . S
C559 C561 1.327 . S
C559 H582 0.950 . S
C560 C559 1.366 . S
C560 C572 1.343 1_455 S
C561 C559 1.327 . S
C561 C577 1.429 . S
C561 H583 0.950 . S
C562 H558 0.949 . S
C562 C570 1.574 . S
C562 C578 1.368 . S
H563 C571 0.950 . S
H564 C569 0.950 . S
H565 C570 0.949 . S
H566 C572 0.950 . S
H567 C573 0.950 . S
H568 C574 0.949 . S
C569 H564 0.950 . S
C569 C571 1.327 . S
C569 C575 1.429 . S
C570 C562 1.574 . S
C570 H565 0.949 . S
C570 C576 1.368 . S
C571 C555 1.349 . S
C571 H563 0.950 . S
C571 C569 1.327 . S
C572 C560 1.343 1_655 S
C572 H566 0.950 . S
C572 C573 1.327 1_655 S
C573 H567 0.950 . S
C573 C572 1.327 1_455 S
C573 C577 1.429 . S
C574 C557 1.574 . S
C574 H568 0.949 . S
C574 C578 1.368 . S
C575 C556 1.429 . S
C575 C569 1.429 . S
C575 C576 1.523 . S
C576 C557 1.368 . S
C576 C570 1.368 . S
C576 C575 1.523 . S
C577 C561 1.429 . S
C577 C573 1.429 . S
C577 C578 1.523 . S
C578 C562 1.368 . S
C578 C574 1.368 . S
C578 C577 1.523 . S
H579 C554 0.950 . S
H580 C556 0.950 . S
H581 C557 0.949 . S
H582 C559 0.950 . S
H583 C561 0.950 . S
C584 C585 1.349 . S
C584 C586 1.327 . S
C584 H609 0.950 . S
C585 C584 1.349 . S
C585 C601 1.349 . S
C586 C584 1.327 . S
C586 C605 1.429 . S
C586 H610 0.950 . S
C587 C604 1.574 . S
C587 C606 1.368 . S
C587 H611 0.949 . S
H588 C592 0.949 . S
C589 C590 1.349 . S
C589 C591 1.327 . S
C589 H612 0.950 . S
C590 C589 1.349 . S
C590 C602 1.349 . S
C591 C589 1.327 . S
C591 C607 1.429 . S
C591 H613 0.950 . S
C592 H588 0.949 . S
C592 C600 1.574 . S
C592 C608 1.368 . S
H593 C601 0.950 . S
H594 C599 0.950 . S
H595 C600 0.949 . S
H596 C602 0.950 . S
H597 C603 0.950 . S
H598 C604 0.949 . S
C599 H594 0.950 . S
C599 C601 1.327 . S
C599 C605 1.429 . S
C600 C592 1.574 . S
C600 H595 0.949 . S
C600 C606 1.368 . S
C601 C585 1.349 . S
C601 H593 0.950 . S
C601 C599 1.327 . S
C602 C590 1.349 . S
C602 H596 0.950 . S
C602 C603 1.327 . S
C603 H597 0.950 . S
C603 C602 1.327 . S
C603 C607 1.429 . S
C604 C587 1.574 . S
C604 H598 0.949 . S
C604 C608 1.368 . S
C605 C586 1.429 . S
C605 C599 1.429 . S
C605 C606 1.523 . S
C606 C587 1.368 . S
C606 C600 1.368 . S
C606 C605 1.523 . S
C607 C591 1.429 . S
C607 C603 1.429 . S
C607 C608 1.523 1_565 S
C608 C592 1.368 . S
C608 C604 1.368 . S
C608 C607 1.523 1_545 S
H609 C584 0.950 . S
H610 C586 0.950 . S
H611 C587 0.949 . S
H612 C589 0.950 . S
H613 C591 0.950 . S
C614 C615 1.349 . S
C614 C616 1.327 . S
C614 H639 0.950 . S
C615 C614 1.349 . S
C615 C631 1.349 . S
C616 C614 1.327 . S
C616 C635 1.429 . S
C616 H640 0.950 . S
C617 C634 1.574 . S
C617 C636 1.368 . S
C617 H641 0.949 . S
H618 C622 0.949 . S
C619 C620 1.349 . S
C619 C621 1.327 . S
C619 H642 0.950 . S
C620 C619 1.349 . S
C620 C632 1.349 . S
C621 C619 1.327 . S
C621 C637 1.429 . S
C621 H643 0.950 . S
C622 H618 0.949 . S
C622 C630 1.574 . S
C622 C638 1.368 . S
H623 C631 0.950 . S
H624 C629 0.950 . S
H625 C630 0.949 . S
H626 C632 0.950 . S
H627 C633 0.950 . S
H628 C634 0.949 . S
C629 H624 0.950 . S
C629 C631 1.327 . S
C629 C635 1.429 . S
C630 C622 1.574 . S
C630 H625 0.949 . S
C630 C636 1.368 . S
C631 C615 1.349 . S
C631 H623 0.950 . S
C631 C629 1.327 . S
C632 C620 1.349 . S
C632 H626 0.950 . S
C632 C633 1.327 . S
C633 H627 0.950 . S
C633 C632 1.327 . S
C633 C637 1.429 . S
C634 C617 1.574 . S
C634 H628 0.949 . S
C634 C638 1.368 . S
C635 C616 1.429 . S
C635 C629 1.429 . S
C635 C636 1.523 . S
C636 C617 1.368 . S
C636 C630 1.368 . S
C636 C635 1.523 . S
C637 C621 1.429 . S
C637 C633 1.429 . S
C637 C638 1.523 . S
C638 C622 1.368 . S
C638 C634 1.368 . S
C638 C637 1.523 . S
H639 C614 0.950 . S
H640 C616 0.950 . S
H641 C617 0.949 . S
H642 C619 0.950 . S
H643 C621 0.950 . S
C644 C645 1.349 . S
C644 C646 1.327 . S
C644 H669 0.950 . S
C645 C644 1.349 . S
C645 C661 1.349 1_554 S
C646 C644 1.327 . S
C646 C665 1.429 . S
C646 H670 0.950 . S
C647 C664 1.574 1_565 S
C647 C666 1.368 . S
C647 H671 0.949 . S
H648 C652 0.949 . S
C649 C650 1.349 . S
C649 C651 1.327 . S
C649 H672 0.950 . S
C650 C649 1.349 . S
C650 C662 1.349 . S
C651 C649 1.327 . S
C651 C667 1.429 . S
C651 H673 0.950 . S
C652 H648 0.949 . S
C652 C660 1.574 1_545 S
C652 C668 1.368 1_554 S
H653 C661 0.950 . S
H654 C659 0.950 . S
H655 C660 0.949 . S
H656 C662 0.950 . S
H657 C663 0.950 1_554 S
H658 C664 0.949 . S
C659 H654 0.950 . S
C659 C661 1.327 . S
C659 C665 1.429 1_556 S
C660 C652 1.574 1_565 S
C660 H655 0.949 . S
C660 C666 1.368 1_554 S
C661 C645 1.349 1_556 S
C661 H653 0.950 . S
C661 C659 1.327 . S
C662 C650 1.349 . S
C662 H656 0.950 . S
C662 C663 1.327 . S
C663 H657 0.950 1_556 S
C663 C662 1.327 . S
C663 C667 1.429 . S
C664 C647 1.574 1_545 S
C664 H658 0.949 . S
C664 C668 1.368 . S
C665 C646 1.429 . S
C665 C659 1.429 1_554 S
C665 C666 1.523 1_554 S
C666 C647 1.368 . S
C666 C660 1.368 1_556 S
C666 C665 1.523 1_556 S
C667 C651 1.429 . S
C667 C663 1.429 . S
C667 C668 1.523 . S
C668 C652 1.368 1_556 S
C668 C664 1.368 . S
C668 C667 1.523 . S
H669 C644 0.950 . S
H670 C646 0.950 . S
H671 C647 0.949 . S
H672 C649 0.950 . S
H673 C651 0.950 . S
C674 C675 1.349 . S
C674 C676 1.327 . S
C674 H699 0.950 . S
C675 C674 1.349 . S
C675 C691 1.349 . S
C676 C674 1.327 . S
C676 C695 1.429 . S
C676 H700 0.950 . S
C677 C694 1.574 . S
C677 C696 1.368 . S
C677 H701 0.949 . S
H678 C682 0.949 . S
C679 C680 1.349 . S
C679 C681 1.327 . S
C679 H702 0.950 . S
C680 C679 1.349 . S
C680 C692 1.349 . S
C681 C679 1.327 . S
C681 C697 1.429 . S
C681 H703 0.950 . S
C682 H678 0.949 . S
C682 C690 1.574 . S
C682 C698 1.368 . S
H683 C691 0.950 . S
H684 C689 0.950 . S
H685 C690 0.949 . S
H686 C692 0.950 . S
H687 C693 0.950 . S
H688 C694 0.949 . S
C689 H684 0.950 . S
C689 C691 1.327 . S
C689 C695 1.429 . S
C690 C682 1.574 . S
C690 H685 0.949 . S
C690 C696 1.368 . S
C691 C675 1.349 . S
C691 H683 0.950 . S
C691 C689 1.327 . S
C692 C680 1.349 . S
C692 H686 0.950 . S
C692 C693 1.327 . S
C693 H687 0.950 . S
C693 C692 1.327 . S
C693 C697 1.429 . S
C694 C677 1.574 . S
C694 H688 0.949 . S
C694 C698 1.368 . S
C695 C676 1.429 . S
C695 C689 1.429 . S
C695 C696 1.523 . S
C696 C677 1.368 . S
C696 C690 1.368 . S
C696 C695 1.523 . S
C697 C681 1.429 . S
C697 C693 1.429 . S
C697 C698 1.523 . S
C698 C682 1.368 . S
C698 C694 1.368 . S
C698 C697 1.523 . S
H699 C674 0.950 . S
H700 C676 0.950 . S
H701 C677 0.949 . S
H702 C679 0.950 . S
H703 C681 0.950 . S
C704 C705 1.349 . S
C704 C706 1.327 . S
C704 H729 0.950 . S
C705 C704 1.349 . S
C705 C721 1.349 . S
C706 C704 1.327 . S
C706 C725 1.429 . S
C706 H730 0.950 . S
C707 C724 1.574 . S
C707 C726 1.368 . S
C707 H731 0.949 . S
H708 C712 0.949 . S
C709 C710 1.349 . S
C709 C711 1.327 . S
C709 H732 0.950 . S
C710 C709 1.349 . S
C710 C722 1.349 . S
C711 C709 1.327 . S
C711 C727 1.429 . S
C711 H733 0.950 . S
C712 H708 0.949 . S
C712 C720 1.574 . S
C712 C728 1.368 . S
H713 C721 0.950 . S
H714 C719 0.950 . S
H715 C720 0.949 . S
H716 C722 0.950 . S
H717 C723 0.950 . S
H718 C724 0.949 . S
C719 H714 0.950 . S
C719 C721 1.327 . S
C719 C725 1.429 . S
C720 C712 1.574 . S
C720 H715 0.949 . S
C720 C726 1.368 . S
C721 C705 1.349 . S
C721 H713 0.950 . S
C721 C719 1.327 . S
C722 C710 1.349 . S
C722 H716 0.950 . S
C722 C723 1.327 . S
C723 H717 0.950 . S
C723 C722 1.327 . S
C723 C727 1.429 . S
C724 C707 1.574 . S
C724 H718 0.949 . S
C724 C728 1.368 . S
C725 C706 1.429 . S
C725 C719 1.429 . S
C725 C726 1.523 . S
C726 C707 1.368 . S
C726 C720 1.368 . S
C726 C725 1.523 . S
C727 C711 1.429 . S
C727 C723 1.429 . S
C727 C728 1.523 . S
C728 C712 1.368 . S
C728 C724 1.368 . S
C728 C727 1.523 . S
H729 C704 0.950 . S
H730 C706 0.950 . S
H731 C707 0.949 . S
H732 C709 0.950 . S
H733 C711 0.950 . S
C734 C735 1.349 . S
C734 C736 1.327 . S
C734 H759 0.950 . S
C735 C734 1.349 . S
C735 C751 1.349 . S
C736 C734 1.327 . S
C736 C755 1.429 . S
C736 H760 0.950 . S
C737 C754 1.574 . S
C737 C756 1.368 . S
C737 H761 0.949 . S
H738 C742 0.949 . S
C739 C740 1.349 . S
C739 C741 1.327 . S
C739 H762 0.950 . S
C740 C739 1.349 . S
C740 C752 1.349 . S
C741 C739 1.327 . S
C741 C757 1.429 . S
C741 H763 0.950 . S
C742 H738 0.949 . S
C742 C750 1.574 . S
C742 C758 1.368 . S
H743 C751 0.950 . S
H744 C749 0.950 . S
H745 C750 0.949 . S
H746 C752 0.950 . S
H747 C753 0.950 . S
H748 C754 0.949 . S
C749 H744 0.950 . S
C749 C751 1.327 . S
C749 C755 1.429 . S
C750 C742 1.574 . S
C750 H745 0.949 . S
C750 C756 1.368 . S
C751 C735 1.349 . S
C751 H743 0.950 . S
C751 C749 1.327 . S
C752 C740 1.349 . S
C752 H746 0.950 . S
C752 C753 1.327 . S
C753 H747 0.950 . S
C753 C752 1.327 . S
C753 C757 1.429 . S
C754 C737 1.574 . S
C754 H748 0.949 . S
C754 C758 1.368 . S
C755 C736 1.429 . S
C755 C749 1.429 . S
C755 C756 1.523 1_455 S
C756 C737 1.368 . S
C756 C750 1.368 . S
C756 C755 1.523 1_655 S
C757 C741 1.429 . S
C757 C753 1.429 . S
C757 C758 1.523 . S
C758 C742 1.368 . S
C758 C754 1.368 . S
C758 C757 1.523 . S
H759 C734 0.950 . S
H760 C736 0.950 . S
H761 C737 0.949 . S
H762 C739 0.950 . S
H763 C741 0.950 . S
C764 C765 1.349 . S
C764 C766 1.327 . S
C764 H789 0.950 . S
C765 C764 1.349 . S
C765 C781 1.349 . S
C766 C764 1.327 . S
C766 C785 1.429 . S
C766 H790 0.950 . S
C767 C784 1.574 . S
C767 C786 1.368 . S
C767 H791 0.949 . S
H768 C772 0.949 . S
C769 C770 1.349 . S
C769 C771 1.327 . S
C769 H792 0.950 . S
C770 C769 1.349 . S
C770 C782 1.349 . S
C771 C769 1.327 . S
C771 C787 1.429 . S
C771 H793 0.950 . S
C772 H768 0.949 . S
C772 C780 1.574 . S
C772 C788 1.368 . S
H773 C781 0.950 . S
H774 C779 0.950 . S
H775 C780 0.949 . S
H776 C782 0.950 . S
H777 C783 0.950 . S
H778 C784 0.949 . S
C779 H774 0.950 . S
C779 C781 1.327 . S
C779 C785 1.429 . S
C780 C772 1.574 . S
C780 H775 0.949 . S
C780 C786 1.368 . S
C781 C765 1.349 . S
C781 H773 0.950 . S
C781 C779 1.327 . S
C782 C770 1.349 . S
C782 H776 0.950 . S
C782 C783 1.327 . S
C783 H777 0.950 . S
C783 C782 1.327 . S
C783 C787 1.429 . S
C784 C767 1.574 . S
C784 H778 0.949 . S
C784 C788 1.368 . S
C785 C766 1.429 . S
C785 C779 1.429 . S
C785 C786 1.523 . S
C786 C767 1.368 . S
C786 C780 1.368 . S
C786 C785 1.523 . S
C787 C771 1.429 . S
C787 C783 1.429 . S
C787 C788 1.523 . S
C788 C772 1.368 . S
C788 C784 1.368 . S
C788 C787 1.523 . S
H789 C764 0.950 . S
H790 C766 0.950 . S
H791 C767 0.949 . S
H792 C769 0.950 . S
H793 C771 0.950 . S
C794 C795 1.349 . S
C794 C796 1.327 . S
C794 H819 0.950 . S
C795 C794 1.349 . S
C795 C811 1.349 . S
C796 C794 1.327 . S
C796 C815 1.429 . S
C796 H820 0.950 . S
C797 C814 1.574 . S
C797 C816 1.368 . S
C797 H821 0.949 . S
H798 C802 0.949 . S
C799 C800 1.349 . S
C799 C801 1.327 . S
C799 H822 0.950 . S
C800 C799 1.349 . S
C800 C812 1.349 1_655 S
C801 C799 1.327 . S
C801 C817 1.429 . S
C801 H823 0.950 . S
C802 H798 0.949 . S
C802 C810 1.574 . S
C802 C818 1.368 . S
H803 C811 0.950 . S
H804 C809 0.950 . S
H805 C810 0.949 . S
H806 C812 0.950 . S
H807 C813 0.950 . S
H808 C814 0.949 . S
C809 H804 0.950 . S
C809 C811 1.327 . S
C809 C815 1.429 . S
C810 C802 1.574 . S
C810 H805 0.949 . S
C810 C816 1.368 . S
C811 C795 1.349 . S
C811 H803 0.950 . S
C811 C809 1.327 . S
C812 C800 1.349 1_455 S
C812 H806 0.950 . S
C812 C813 1.327 1_455 S
C813 H807 0.950 . S
C813 C812 1.327 1_655 S
C813 C817 1.429 . S
C814 C797 1.574 . S
C814 H808 0.949 . S
C814 C818 1.368 . S
C815 C796 1.429 . S
C815 C809 1.429 . S
C815 C816 1.523 . S
C816 C797 1.368 . S
C816 C810 1.368 . S
C816 C815 1.523 . S
C817 C801 1.429 . S
C817 C813 1.429 . S
C817 C818 1.523 . S
C818 C802 1.368 . S
C818 C814 1.368 . S
C818 C817 1.523 . S
H819 C794 0.950 . S
H820 C796 0.950 . S
H821 C797 0.949 . S
H822 C799 0.950 . S
H823 C801 0.950 . S
C824 C825 1.349 . S
C824 C826 1.327 . S
C824 H849 0.950 . S
C825 C824 1.349 . S
C825 C841 1.349 . S
C826 C824 1.327 . S
C826 C845 1.429 . S
C826 H850 0.950 . S
C827 C844 1.574 . S
C827 C846 1.368 . S
C827 H851 0.949 . S
H828 C832 0.949 . S
C829 C830 1.349 . S
C829 C831 1.327 . S
C829 H852 0.950 . S
C830 C829 1.349 . S
C830 C842 1.349 . S
C831 C829 1.327 . S
C831 C847 1.429 . S
C831 H853 0.950 . S
C832 H828 0.949 . S
C832 C840 1.574 . S
C832 C848 1.368 . S
H833 C841 0.950 . S
H834 C839 0.950 . S
H835 C840 0.949 . S
H836 C842 0.950 . S
H837 C843 0.950 . S
H838 C844 0.949 . S
C839 H834 0.950 . S
C839 C841 1.327 . S
C839 C845 1.429 . S
C840 C832 1.574 . S
C840 H835 0.949 . S
C840 C846 1.368 . S
C841 C825 1.349 . S
C841 H833 0.950 . S
C841 C839 1.327 . S
C842 C830 1.349 . S
C842 H836 0.950 . S
C842 C843 1.327 . S
C843 H837 0.950 . S
C843 C842 1.327 . S
C843 C847 1.429 . S
C844 C827 1.574 . S
C844 H838 0.949 . S
C844 C848 1.368 . S
C845 C826 1.429 . S
C845 C839 1.429 . S
C845 C846 1.523 . S
C846 C827 1.368 . S
C846 C840 1.368 . S
C846 C845 1.523 . S
C847 C831 1.429 . S
C847 C843 1.429 . S
C847 C848 1.523 . S
C848 C832 1.368 . S
C848 C844 1.368 . S
C848 C847 1.523 . S
H849 C824 0.950 . S
H850 C826 0.950 . S
H851 C827 0.949 . S
H852 C829 0.950 . S
H853 C831 0.950 . S
C854 C855 1.349 . S
C854 C856 1.327 . S
C854 H879 0.950 . S
C855 C854 1.349 . S
C855 C871 1.349 . S
C856 C854 1.327 . S
C856 C875 1.429 . S
C856 H880 0.950 . S
C857 C874 1.574 . S
C857 C876 1.368 . S
C857 H881 0.949 . S
H858 C862 0.949 . S
C859 C860 1.349 . S
C859 C861 1.327 . S
C859 H882 0.950 . S
C860 C859 1.349 . S
C860 C872 1.349 . S
C861 C859 1.327 . S
C861 C877 1.429 . S
C861 H883 0.950 . S
C862 H858 0.949 . S
C862 C870 1.574 . S
C862 C878 1.368 . S
H863 C871 0.950 . S
H864 C869 0.950 . S
H865 C870 0.949 . S
H866 C872 0.950 . S
H867 C873 0.950 . S
H868 C874 0.949 . S
C869 H864 0.950 . S
C869 C871 1.327 . S
C869 C875 1.429 . S
C870 C862 1.574 . S
C870 H865 0.949 . S
C870 C876 1.368 . S
C871 C855 1.349 . S
C871 H863 0.950 . S
C871 C869 1.327 . S
C872 C860 1.349 . S
C872 H866 0.950 . S
C872 C873 1.327 . S
C873 H867 0.950 . S
C873 C872 1.327 . S
C873 C877 1.429 . S
C874 C857 1.574 . S
C874 H868 0.949 . S
C874 C878 1.368 . S
C875 C856 1.429 . S
C875 C869 1.429 . S
C875 C876 1.523 . S
C876 C857 1.368 . S
C876 C870 1.368 . S
C876 C875 1.523 . S
C877 C861 1.429 . S
C877 C873 1.429 . S
C877 C878 1.523 . S
C878 C862 1.368 . S
C878 C874 1.368 . S
C878 C877 1.523 . S
H879 C854 0.950 . S
H880 C856 0.950 . S
H881 C857 0.949 . S
H882 C859 0.950 . S
H883 C861 0.950 . S
C884 C885 1.349 . S
C884 C886 1.327 . S
C884 H909 0.950 . S
C885 C884 1.349 . S
C885 C901 1.349 . S
C886 C884 1.327 . S
C886 C905 1.429 . S
C886 H910 0.950 . S
C887 C904 1.574 . S
C887 C906 1.368 . S
C887 H911 0.949 . S
H888 C892 0.949 . S
C889 C890 1.349 . S
C889 C891 1.327 . S
C889 H912 0.950 . S
C890 C889 1.349 . S
C890 C902 1.349 . S
C891 C889 1.327 . S
C891 C907 1.429 . S
C891 H913 0.950 . S
C892 H888 0.949 . S
C892 C900 1.574 . S
C892 C908 1.368 . S
H893 C901 0.950 . S
H894 C899 0.950 . S
H895 C900 0.949 . S
H896 C902 0.950 . S
H897 C903 0.950 . S
H898 C904 0.949 . S
C899 H894 0.950 . S
C899 C901 1.327 . S
C899 C905 1.429 . S
C900 C892 1.574 . S
C900 H895 0.949 . S
C900 C906 1.368 . S
C901 C885 1.349 . S
C901 H893 0.950 . S
C901 C899 1.327 . S
C902 C890 1.349 . S
C902 H896 0.950 . S
C902 C903 1.327 . S
C903 H897 0.950 . S
C903 C902 1.327 . S
C903 C907 1.429 . S
C904 C887 1.574 . S
C904 H898 0.949 . S
C904 C908 1.368 . S
C905 C886 1.429 . S
C905 C899 1.429 . S
C905 C906 1.523 . S
C906 C887 1.368 . S
C906 C900 1.368 . S
C906 C905 1.523 . S
C907 C891 1.429 . S
C907 C903 1.429 . S
C907 C908 1.523 . S
C908 C892 1.368 . S
C908 C904 1.368 . S
C908 C907 1.523 . S
H909 C884 0.950 . S
H910 C886 0.950 . S
H911 C887 0.949 . S
H912 C889 0.950 . S
H913 C891 0.950 . S
C914 C915 1.349 . S
C914 C916 1.327 . S
C914 H939 0.950 . S
C915 C914 1.349 . S
C915 C931 1.349 . S
C916 C914 1.327 . S
C916 C935 1.429 . S
C916 H940 0.950 . S
C917 C934 1.574 . S
C917 C936 1.368 . S
C917 H941 0.949 . S
H918 C922 0.949 . S
C919 C920 1.349 . S
C919 C921 1.327 . S
C919 H942 0.950 . S
C920 C919 1.349 . S
C920 C932 1.349 . S
C921 C919 1.327 . S
C921 C937 1.429 . S
C921 H943 0.950 . S
C922 H918 0.949 . S
C922 C930 1.574 . S
C922 C938 1.368 . S
H923 C931 0.950 . S
H924 C929 0.950 . S
H925 C930 0.949 . S
H926 C932 0.950 . S
H927 C933 0.950 . S
H928 C934 0.949 . S
C929 H924 0.950 . S
C929 C931 1.327 . S
C929 C935 1.429 . S
C930 C922 1.574 . S
C930 H925 0.949 . S
C930 C936 1.368 . S
C931 C915 1.349 . S
C931 H923 0.950 . S
C931 C929 1.327 . S
C932 C920 1.349 . S
C932 H926 0.950 . S
C932 C933 1.327 . S
C933 H927 0.950 . S
C933 C932 1.327 . S
C933 C937 1.429 . S
C934 C917 1.574 . S
C934 H928 0.949 . S
C934 C938 1.368 . S
C935 C916 1.429 . S
C935 C929 1.429 . S
C935 C936 1.523 . S
C936 C917 1.368 . S
C936 C930 1.368 . S
C936 C935 1.523 . S
C937 C921 1.429 . S
C937 C933 1.429 . S
C937 C938 1.523 . S
C938 C922 1.368 . S
C938 C934 1.368 . S
C938 C937 1.523 . S
H939 C914 0.950 . S
H940 C916 0.950 . S
H941 C917 0.949 . S
H942 C919 0.950 . S
H943 C921 0.950 . S
C944 C945 1.349 . S
C944 C946 1.327 . S
C944 H969 0.950 . S
C945 C944 1.349 . S
C945 C961 1.349 . S
C946 C944 1.327 . S
C946 C965 1.429 . S
C946 H970 0.950 . S
C947 C964 1.574 . S
C947 C966 1.368 . S
C947 H971 0.949 . S
H948 C952 0.949 . S
C949 C950 1.349 . S
C949 C951 1.327 . S
C949 H972 0.950 . S
C950 C949 1.349 . S
C950 C962 1.349 . S
C951 C949 1.327 . S
C951 C967 1.429 . S
C951 H973 0.950 . S
C952 H948 0.949 . S
C952 C960 1.574 . S
C952 C968 1.368 . S
H953 C961 0.950 . S
H954 C959 0.950 . S
H955 C960 0.949 . S
H956 C962 0.950 . S
H957 C963 0.950 . S
H958 C964 0.949 . S
C959 H954 0.950 . S
C959 C961 1.327 . S
C959 C965 1.429 . S
C960 C952 1.574 . S
C960 H955 0.949 . S
C960 C966 1.368 . S
C961 C945 1.349 . S
C961 H953 0.950 . S
C961 C959 1.327 . S
C962 C950 1.349 . S
C962 H956 0.950 . S
C962 C963 1.327 . S
C963 H957 0.950 . S
C963 C962 1.327 . S
C963 C967 1.429 . S
C964 C947 1.574 . S
C964 H958 0.949 . S
C964 C968 1.368 . S
C965 C946 1.429 . S
C965 C959 1.429 . S
C965 C966 1.523 . S
C966 C947 1.368 . S
C966 C960 1.368 . S
C966 C965 1.523 . S
C967 C951 1.429 . S
C967 C963 1.429 . S
C967 C968 1.523 . S
C968 C952 1.368 . S
C968 C964 1.368 . S
C968 C967 1.523 . S
H969 C944 0.950 . S
H970 C946 0.950 . S
H971 C947 0.949 . S
H972 C949 0.950 . S
H973 C951 0.950 . S
C974 C975 1.349 . S
C974 C976 1.327 . S
C974 H999 0.950 . S
C975 C974 1.349 . S
C975 C991 1.349 . S
C976 C974 1.327 . S
C976 C995 1.429 . S
C976 H1000 0.950 . S
C977 C994 1.574 . S
C977 C996 1.368 . S
C977 H1001 0.949 . S
H978 C982 0.949 . S
C979 C980 1.349 . S
C979 C981 1.327 . S
C979 H1002 0.950 . S
C980 C979 1.349 . S
C980 C992 1.349 . S
C981 C979 1.327 . S
C981 C997 1.429 . S
C981 H1003 0.950 . S
C982 H978 0.949 . S
C982 C990 1.574 . S
C982 C998 1.368 . S
H983 C991 0.950 . S
H984 C989 0.950 . S
H985 C990 0.949 . S
H986 C992 0.950 . S
H987 C993 0.950 . S
H988 C994 0.949 . S
C989 H984 0.950 . S
C989 C991 1.327 . S
C989 C995 1.429 . S
C990 C982 1.574 . S
C990 H985 0.949 . S
C990 C996 1.368 . S
C991 C975 1.349 . S
C991 H983 0.950 . S
C991 C989 1.327 . S
C992 C980 1.349 . S
C992 H986 0.950 . S
C992 C993 1.327 . S
C993 H987 0.950 . S
C993 C992 1.327 . S
C993 C997 1.429 . S
C994 C977 1.574 . S
C994 H988 0.949 . S
C994 C998 1.368 . S
C995 C976 1.429 . S
C995 C989 1.429 . S
C995 C996 1.523 . S
C996 C977 1.368 . S
C996 C990 1.368 . S
C996 C995 1.523 . S
C997 C981 1.429 . S
C997 C993 1.429 . S
C997 C998 1.523 . S
C998 C982 1.368 . S
C998 C994 1.368 . S
C998 C997 1.523 . S
H999 C974 0.950 . S
H1000 C976 0.950 . S
H1001 C977 0.949 . S
H1002 C979 0.950 . S
H1003 C981 0.950 . S
C1004 C1005 1.349 . S
C1004 C1006 1.327 . S
C1004 H1029 0.950 . S
C1005 C1004 1.349 . S
C1005 C1021 1.349 . S
C1006 C1004 1.327 . S
C1006 C1025 1.429 . S
C1006 H1030 0.950 . S
C1007 C1024 1.574 . S
C1007 C1026 1.368 . S
C1007 H1031 0.949 . S
H1008 C1012 0.949 . S
C1009 C1010 1.349 . S
C1009 C1011 1.327 . S
C1009 H1032 0.950 . S
C1010 C1009 1.349 . S
C1010 C1022 1.349 . S
C1011 C1009 1.327 . S
C1011 C1027 1.429 . S
C1011 H1033 0.950 . S
C1012 H1008 0.949 . S
C1012 C1020 1.574 . S
C1012 C1028 1.368 . S
H1013 C1021 0.950 . S
H1014 C1019 0.950 . S
H1015 C1020 0.949 . S
H1016 C1022 0.950 . S
H1017 C1023 0.950 . S
H1018 C1024 0.949 . S
C1019 H1014 0.950 . S
C1019 C1021 1.327 . S
C1019 C1025 1.429 . S
C1020 C1012 1.574 . S
C1020 H1015 0.949 . S
C1020 C1026 1.368 . S
C1021 C1005 1.349 . S
C1021 H1013 0.950 . S
C1021 C1019 1.327 . S
C1022 C1010 1.349 . S
C1022 H1016 0.950 . S
C1022 C1023 1.327 . S
C1023 H1017 0.950 . S
C1023 C1022 1.327 . S
C1023 C1027 1.429 . S
C1024 C1007 1.574 . S
C1024 H1018 0.949 . S
C1024 C1028 1.368 . S
C1025 C1006 1.429 . S
C1025 C1019 1.429 . S
C1025 C1026 1.523 . S
C1026 C1007 1.368 . S
C1026 C1020 1.368 . S
C1026 C1025 1.523 . S
C1027 C1011 1.429 . S
C1027 C1023 1.429 . S
C1027 C1028 1.523 . S
C1028 C1012 1.368 . S
C1028 C1024 1.368 . S
C1028 C1027 1.523 . S
H1029 C1004 0.950 . S
H1030 C1006 0.950 . S
H1031 C1007 0.949 . S
H1032 C1009 0.950 . S
H1033 C1011 0.950 . S
C1034 C1035 1.349 . S
C1034 C1036 1.327 . S
C1034 H1059 0.950 . S
C1035 C1034 1.349 . S
C1035 C1051 1.363 . S
C1036 C1034 1.327 . S
C1036 C1055 1.429 1_554 S
C1036 H1060 0.950 . S
C1037 C1054 1.574 . S
C1037 C1056 1.368 . S
C1037 H1061 0.949 . S
H1038 C1042 0.949 . S
C1039 C1040 1.349 . S
C1039 C1041 1.327 . S
C1039 H1062 0.950 . S
C1040 C1039 1.349 . S
C1040 C1052 1.349 . S
C1041 C1039 1.327 . S
C1041 C1057 1.429 . S
C1041 H1063 0.950 . S
C1042 H1038 0.949 . S
C1042 C1050 1.574 . S
C1042 C1058 1.368 . S
H1043 C1051 0.946 1_556 S
H1044 C1049 0.950 . S
H1045 C1050 0.949 . S
H1046 C1052 0.950 . S
H1047 C1053 0.950 . S
H1048 C1054 0.949 . S
C1049 H1044 0.950 . S
C1049 C1051 1.318 1_556 S
C1049 C1055 1.429 . S
C1050 C1042 1.574 . S
C1050 H1045 0.949 . S
C1050 C1056 1.368 . S
C1051 C1035 1.363 . S
C1051 H1043 0.946 1_554 S
C1051 C1049 1.318 1_554 S
C1052 C1040 1.349 . S
C1052 H1046 0.950 . S
C1052 C1053 1.327 . S
C1053 H1047 0.950 . S
C1053 C1052 1.327 . S
C1053 C1057 1.429 . S
C1054 C1037 1.574 . S
C1054 H1048 0.949 . S
C1054 C1058 1.368 . S
C1055 C1036 1.429 1_556 S
C1055 C1049 1.429 . S
C1055 C1056 1.523 . S
C1056 C1037 1.368 . S
C1056 C1050 1.368 . S
C1056 C1055 1.523 . S
C1057 C1041 1.429 . S
C1057 C1053 1.429 . S
C1057 C1058 1.523 . S
C1058 C1042 1.368 . S
C1058 C1054 1.368 . S
C1058 C1057 1.523 . S
H1059 C1034 0.950 . S
H1060 C1036 0.950 . S
H1061 C1037 0.949 . S
H1062 C1039 0.950 . S
H1063 C1041 0.950 . S
C345 C7 1.415 . S
C350 C105 1.414 . S
C375 C37 1.199 . S
C380 C137 1.188 . S
C405 C54 1.450 . S
C410 C169 1.333 . S
C440 C213 1.389 . S
C435 C87 1.370 . S
C470 C233 1.316 . S
C465 C30 1.320 . S
C495 C51 1.401 . S
C500 C277 1.422 . S
C525 C84 1.472 . S
C530 C297 1.352 . S
C555 C10 1.184 . S
C560 C341 1.065 1_455 S
C585 C59 1.426 . S
C590 C329 1.341 . S
C620 C245 1.210 . S
C615 C74 1.225 . S
C650 C265 1.487 . S
C645 C18 1.514 . S
C675 C32 1.372 . S
C680 C309 1.289 . S
C710 C149 1.450 . S
C705 C73 1.447 . S
C735 C15 1.375 . S
C740 C181 1.302 . S
C770 C201 1.483 . S
C765 C43 1.498 . S
C800 C117 1.190 1_655 S
C795 C62 1.200 . S
C830 C303 1.318 . S
C825 C21 1.422 . S
C860 C335 1.178 . S
C855 C29 1.252 . S
C885 C52 1.211 . S
C890 C239 1.206 . S
C920 C271 1.443 . S
C915 C81 1.443 . S
C950 C175 1.292 . S
C945 C40 1.392 . S
C975 C65 1.406 . S
C980 C207 1.404 . S
C1010 C111 1.241 . S
C1005 C76 1.244 . S
C1040 C143 1.258 . S
C1035 C8 1.256 . S
