# Generated by pormake.
# Topology wbl, (4,4)-cn, num edge types: 1
# Building blocks:
#     Node 0, Type 0, BuildingBlock: NAWXER_clean_linker_0, # of connection points: 4
#     Node 1, Type 0, BuildingBlock: NAWXER_clean_linker_0, # of connection points: 4
#     Node 2, Type 0, BuildingBlock: NAWXER_clean_linker_0, # of connection points: 4
#     Node 3, Type 0, BuildingBlock: NAWXER_clean_linker_0, # of connection points: 4
#     Node 4, Type 0, BuildingBlock: NAWXER_clean_linker_0, # of connection points: 4
#     Node 5, Type 0, BuildingBlock: NAWXER_clean_linker_0, # of connection points: 4
#     Node 6, Type 0, BuildingBlock: NAWXER_clean_linker_0, # of connection points: 4
#     Node 7, Type 0, BuildingBlock: NAWXER_clean_linker_0, # of connection points: 4
#     Node 8, Type 1, BuildingBlock: KUFVIS_clean_sbu_0, # of connection points: 4
#     Node 9, Type 1, BuildingBlock: KUFVIS_clean_sbu_0, # of connection points: 4
#     Node 10, Type 1, BuildingBlock: KUFVIS_clean_sbu_0, # of connection points: 4
#     Node 11, Type 1, BuildingBlock: KUFVIS_clean_sbu_0, # of connection points: 4
#     Node 12, Type 1, BuildingBlock: KUFVIS_clean_sbu_0, # of connection points: 4
#     Node 13, Type 1, BuildingBlock: KUFVIS_clean_sbu_0, # of connection points: 4
#     Node 14, Type 1, BuildingBlock: KUFVIS_clean_sbu_0, # of connection points: 4
#     Node 15, Type 1, BuildingBlock: KUFVIS_clean_sbu_0, # of connection points: 4
#     Edge 16, Type (0, 1), None
#     Edge 17, Type (0, 1), None
#     Edge 18, Type (0, 1), None
#     Edge 19, Type (0, 1), None
#     Edge 20, Type (0, 1), None
#     Edge 21, Type (0, 1), None
#     Edge 22, Type (0, 1), None
#     Edge 23, Type (0, 1), None
#     Edge 24, Type (0, 1), None
#     Edge 25, Type (0, 1), None
#     Edge 26, Type (0, 1), None
#     Edge 27, Type (0, 1), None
#     Edge 28, Type (0, 1), None
#     Edge 29, Type (0, 1), None
#     Edge 30, Type (0, 1), None
#     Edge 31, Type (0, 1), None
#     Edge 32, Type (0, 1), None
#     Edge 33, Type (0, 1), None
#     Edge 34, Type (0, 1), None
#     Edge 35, Type (0, 1), None
#     Edge 36, Type (0, 1), None
#     Edge 37, Type (0, 1), None
#     Edge 38, Type (0, 1), None
#     Edge 39, Type (0, 1), None
#     Edge 40, Type (0, 1), None
#     Edge 41, Type (0, 1), None
#     Edge 42, Type (0, 1), None
#     Edge 43, Type (0, 1), None
#     Edge 44, Type (0, 1), None
#     Edge 45, Type (0, 1), None
#     Edge 46, Type (0, 1), None
#     Edge 47, Type (0, 1), None
# Relax obj value: 0.157
# Max RMSD: 0.164
# Mean RMSD: 0.144
data_MOF--net-wbl--node1-KUFVIS_clean_sbu_0--node2-NAWXER_clean_linker_0--edge1-none
_symmetry_space_group_name_H-M    P1
_symmetry_Int_Tables_number       1
_symmetry_cell_setting            triclinic
loop_
_symmetry_equiv_pos_as_xyz
'x, y, z'
_cell_length_a     24.443688
_cell_length_b     24.328912
_cell_length_c     41.607899
_cell_angle_alpha  89.93682
_cell_angle_beta   89.904407
_cell_angle_gamma 89.914823
loop_
_atom_site_label
_atom_site_type_symbol
_atom_site_fract_x
_atom_site_fract_y
_atom_site_fract_z
_atom_type_partial_charge
C0 C 0.1121 0.88299 0.38491 0.0
C1 C 0.13218 0.89639 0.4155 0.0
C2 C 0.09516 0.92499 0.36378 0.0
C3 C 0.09923 0.98071 0.37284 0.0
C4 C 0.1387 0.95201 0.42364 0.0
C5 C 0.12231 0.99354 0.40268 0.0
C6 C 0.06999 0.02485 0.3551 0.0
C7 C 0.21878 0.00621 0.29203 0.0
C8 C 0.21128 0.95984 0.27229 0.0
C9 C 0.17435 0.03109 0.30746 0.0
C10 C 0.1212 0.01095 0.30314 0.0
C11 C 0.15759 0.94089 0.26704 0.0
C12 C 0.11282 0.96664 0.28211 0.0
C13 C 0.07571 0.03524 0.322 0.0
C14 C 0.88495 0.19966 0.30475 0.0
C15 C 0.86607 0.17496 0.27642 0.0
C16 C 0.93336 0.18075 0.31931 0.0
C17 C 0.96208 0.13532 0.3064 0.0
C18 C 0.89999 0.13664 0.26083 0.0
C19 C 0.94709 0.11678 0.2757 0.0
C20 C 0.00336 0.10244 0.32491 0.0
C21 C 0.87776 0.10739 0.4121 0.0
C22 C 0.89879 0.14075 0.4367 0.0
C23 C 0.90826 0.09791 0.38408 0.0
C24 C 0.96097 0.12009 0.38083 0.0
C25 C 0.94904 0.16735 0.43199 0.0
C26 C 0.98024 0.1565 0.40443 0.0
C27 C 0.00069 0.09417 0.35865 0.0
H28 H 0.10686 0.84038 0.37808 0.0
H29 H 0.07585 0.91381 0.34134 0.0
H30 H 0.15473 0.96357 0.44691 0.0
H31 H 0.12527 0.03591 0.41049 0.0
H32 H 0.2594 0.02183 0.29689 0.0
H33 H 0.18167 0.06538 0.32348 0.0
H34 H 0.15037 0.90508 0.25221 0.0
H35 H 0.07202 0.95055 0.27843 0.0
H36 H 0.8599 0.22962 0.3172 0.0
H37 H 0.94613 0.19988 0.34146 0.0
H38 H 0.88682 0.11718 0.23878 0.0
H39 H 0.96881 0.08325 0.26425 0.0
H40 H 0.83924 0.08614 0.41539 0.0
H41 H 0.89284 0.06927 0.36636 0.0
H42 H 0.96633 0.19259 0.45084 0.0
H43 H 0.0212 0.17322 0.4027 0.0
N44 N 0.0338 0.05567 0.37201 0.0
N45 N 0.04191 0.07314 0.30809 0.0
C46 C 0.9106 0.44251 0.67649 0.0
C47 C 0.93166 0.39105 0.68543 0.0
C48 C 0.9287 0.46794 0.64813 0.0
C49 C 0.96708 0.44164 0.62815 0.0
C50 C 0.96589 0.36269 0.66392 0.0
C51 C 0.9826 0.3874 0.63513 0.0
C52 C 0.00069 0.47495 0.6058 0.0
C53 C 0.9655 0.33639 0.5306 0.0
C54 C 0.9084 0.33446 0.53428 0.0
C55 C 0.99499 0.38187 0.54128 0.0
C56 C 0.96798 0.42547 0.55649 0.0
C57 C 0.88093 0.37989 0.54748 0.0
C58 C 0.91066 0.42498 0.55885 0.0
C59 C 0.00057 0.4685 0.57225 0.0
C60 C 0.15238 0.65352 0.52762 0.0
C61 C 0.11051 0.68511 0.51356 0.0
C62 C 0.13979 0.60424 0.54373 0.0
C63 C 0.08514 0.5865 0.54644 0.0
C64 C 0.05683 0.66423 0.51387 0.0
C65 C 0.0444 0.61585 0.53013 0.0
C66 C 0.0672 0.54013 0.56717 0.0
C67 C 0.12408 0.63627 0.66527 0.0
C68 C 0.18038 0.62484 0.66484 0.0
C69 C 0.0893 0.61298 0.64253 0.0
C70 C 0.11 0.57739 0.619 0.0
C71 C 0.20192 0.59189 0.6403 0.0
C72 C 0.16664 0.56682 0.61815 0.0
C73 C 0.07126 0.54233 0.60106 0.0
H74 H 0.88465 0.46531 0.69288 0.0
H75 H 0.91655 0.50998 0.6433 0.0
H76 H 0.98273 0.323 0.67044 0.0
H77 H 0.01225 0.36643 0.62012 0.0
H78 H 0.98759 0.30176 0.52056 0.0
H79 H 0.03921 0.3816 0.53931 0.0
H80 H 0.83699 0.37906 0.55089 0.0
H81 H 0.88921 0.4585 0.5705 0.0
H82 H 0.19426 0.66796 0.52739 0.0
H83 H 0.17268 0.58076 0.5542 0.0
H84 H 0.02349 0.68664 0.50278 0.0
H85 H 0.00205 0.6028 0.53125 0.0
H86 H 0.1066 0.6616 0.68409 0.0
H87 H 0.04568 0.62036 0.64441 0.0
H88 H 0.2452 0.58253 0.63962 0.0
H89 H 0.18322 0.53653 0.60176 0.0
N90 N 0.03672 0.51085 0.61885 0.0
N91 N 0.03259 0.50227 0.55408 0.0
C92 C 0.6522 0.38377 0.90256 0.0
C93 C 0.65845 0.40544 0.9335 0.0
C94 C 0.62986 0.41638 0.87801 0.0
C95 C 0.61651 0.47207 0.88365 0.0
C96 C 0.64544 0.46071 0.93912 0.0
C97 C 0.62546 0.49373 0.91448 0.0
C98 C 0.5862 0.50639 0.85987 0.0
C99 C 0.73616 0.46735 0.80462 0.0
C100 C 0.73056 0.41934 0.78605 0.0
C101 C 0.69053 0.49393 0.81712 0.0
C102 C 0.63805 0.47396 0.8109 0.0
C103 C 0.67776 0.40002 0.77895 0.0
C104 C 0.63158 0.4279 0.79087 0.0
C105 C 0.591 0.5016 0.82612 0.0
C106 C 0.40403 0.65283 0.78376 0.0
C107 C 0.37374 0.61227 0.76772 0.0
C108 C 0.45319 0.63877 0.79908 0.0
C109 C 0.47242 0.58418 0.79826 0.0
C110 C 0.39573 0.55901 0.76491 0.0
C111 C 0.44471 0.54534 0.77972 0.0
C112 C 0.51648 0.5642 0.81949 0.0
C113 C 0.38622 0.6096 0.89654 0.0
C114 C 0.4052 0.65134 0.91704 0.0
C115 C 0.42044 0.58758 0.8729 0.0
C116 C 0.47415 0.60683 0.86963 0.0
C117 C 0.45684 0.67455 0.91136 0.0
C118 C 0.49142 0.65185 0.88805 0.0
C119 C 0.51521 0.5728 0.85295 0.0
H120 H 0.66232 0.34122 0.89775 0.0
H121 H 0.62103 0.39704 0.85526 0.0
H122 H 0.65071 0.47855 0.96278 0.0
H123 H 0.61547 0.53612 0.91993 0.0
H124 H 0.7761 0.48346 0.81073 0.0
H125 H 0.69629 0.52982 0.83215 0.0
H126 H 0.67227 0.36313 0.76479 0.0
H127 H 0.59109 0.41223 0.78567 0.0
H128 H 0.38811 0.69418 0.78622 0.0
H129 H 0.4747 0.66975 0.81279 0.0
H130 H 0.37367 0.52667 0.75271 0.0
H131 H 0.45874 0.50309 0.77863 0.0
H132 H 0.34673 0.59066 0.90071 0.0
H133 H 0.40668 0.55234 0.85923 0.0
H134 H 0.4728 0.70595 0.92722 0.0
H135 H 0.53307 0.66669 0.88609 0.0
N136 N 0.54926 0.54285 0.87171 0.0
N137 N 0.5551 0.52958 0.80718 0.0
C138 C 0.50187 0.84951 0.02589 0.0
C139 C 0.445 0.85202 0.0209 0.0
C140 C 0.52967 0.89388 0.03977 0.0
C141 C 0.50087 0.94092 0.04953 0.0
C142 C 0.41695 0.90065 0.02893 0.0
C143 C 0.44454 0.94443 0.04344 0.0
C144 C 0.5285 0.98401 0.06858 0.0
C145 C 0.40719 0.95532 0.1618 0.0
C146 C 0.42659 0.90382 0.17203 0.0
C147 C 0.43277 0.98279 0.13623 0.0
C148 C 0.47694 0.95852 0.11986 0.0
C149 C 0.46821 0.87798 0.15414 0.0
C150 C 0.49285 0.90491 0.12812 0.0
C151 C 0.51461 0.99346 0.10085 0.0
C152 C 0.65946 0.17429 0.15275 0.0
C153 C 0.66954 0.14467 0.18141 0.0
C154 C 0.6311 0.14937 0.12698 0.0
C155 C 0.61735 0.09308 0.12842 0.0
C156 C 0.65055 0.09121 0.18311 0.0
C157 C 0.62843 0.06455 0.15692 0.0
C158 C 0.58383 0.06294 0.10432 0.0
C159 C 0.69749 0.16893 0.04812 0.0
C160 C 0.66938 0.1918 0.02183 0.0
C161 C 0.67844 0.11988 0.06238 0.0
C162 C 0.62929 0.09562 0.05171 0.0
C163 C 0.62756 0.16074 0.00748 0.0
C164 C 0.6073 0.11381 0.02243 0.0
C165 C 0.59592 0.05605 0.07107 0.0
H166 H 0.52457 0.81255 0.02007 0.0
H167 H 0.57313 0.89033 0.04441 0.0
H168 H 0.3731 0.90377 0.02569 0.0
H169 H 0.42159 0.98042 0.05083 0.0
H170 H 0.37582 0.97658 0.1754 0.0
H171 H 0.42055 0.02455 0.13067 0.0
H172 H 0.48419 0.83843 0.16162 0.0
H173 H 0.5276 0.88583 0.11637 0.0
H174 H 0.67037 0.2173 0.15096 0.0
H175 H 0.61925 0.17419 0.10655 0.0
H176 H 0.65 0.07093 0.20543 0.0
H177 H 0.61649 0.02194 0.15993 0.0
H178 H 0.73058 0.19124 0.05941 0.0
H179 H 0.69943 0.10389 0.08327 0.0
H180 H 0.60597 0.17629 0.98662 0.0
H181 H 0.57097 0.09492 0.01248 0.0
N182 N 0.56758 0.01634 0.0547 0.0
N183 N 0.54308 0.03187 0.11718 0.0
C184 C 0.10514 0.66373 0.83433 0.0
C185 C 0.15591 0.63778 0.83 0.0
C186 C 0.07352 0.65243 0.86167 0.0
C187 C 0.09286 0.61618 0.88542 0.0
C188 C 0.17691 0.60462 0.85476 0.0
C189 C 0.14598 0.59467 0.88256 0.0
C190 C 0.05325 0.5901 0.90762 0.0
C191 C 0.15787 0.62789 0.00399 0.0
C192 C 0.19023 0.66796 0.98884 0.0
C193 C 0.11034 0.60869 0.98957 0.0
C194 C 0.09352 0.62932 0.95966 0.0
C195 C 0.1698 0.69427 0.96135 0.0
C196 C 0.12106 0.67571 0.94714 0.0
C197 C 0.0516 0.59743 0.94139 0.0
C198 C 0.90213 0.43367 1.0006 0.0
C199 C 0.84858 0.45481 0.9983 0.0
C200 C 0.94557 0.45893 0.98403 0.0
C201 C 0.93587 0.50487 0.96436 0.0
C202 C 0.84005 0.50279 0.97999 0.0
C203 C 0.88308 0.52719 0.96304 0.0
C204 C 0.97993 0.52994 0.94476 0.0
C205 C 0.91576 0.44878 0.84283 0.0
C206 C 0.92306 0.39304 0.85054 0.0
C207 C 0.93164 0.48991 0.86408 0.0
C208 C 0.95515 0.47656 0.89376 0.0
C209 C 0.94355 0.37904 0.88097 0.0
C210 C 0.96014 0.42065 0.90235 0.0
C211 C 0.98444 0.52047 0.91149 0.0
H212 H 0.08785 0.68878 0.81534 0.0
H213 H 0.03231 0.66868 0.86312 0.0
H214 H 0.21582 0.58385 0.85175 0.0
H215 H 0.16149 0.56622 0.90041 0.0
H216 H 0.17216 0.60711 0.02538 0.0
H217 H 0.08964 0.57415 1.00064 0.0
H218 H 0.19373 0.72557 0.94928 0.0
H219 H 0.107 0.69589 0.92554 0.0
H220 H 0.91012 0.39659 0.01424 0.0
H221 H 0.98624 0.44141 0.98559 0.0
H222 H 0.79946 0.52014 0.9774 0.0
H223 H 0.87487 0.56297 0.94827 0.0
H224 H 0.89952 0.4608 0.81967 0.0
H225 H 0.92809 0.53244 0.85658 0.0
H226 H 0.94943 0.33632 0.88744 0.0
H227 H 0.98003 0.40905 0.92457 0.0
N228 N 0.01987 0.55186 0.89436 0.0
N229 N 0.01388 0.56765 0.95846 0.0
C230 C 0.35852 0.62978 0.11069 0.0
C231 C 0.38699 0.64059 0.0821 0.0
C232 C 0.38351 0.59878 0.13504 0.0
C233 C 0.43846 0.58185 0.13186 0.0
C234 C 0.44122 0.623 0.0788 0.0
C235 C 0.46685 0.59467 0.10349 0.0
C236 C 0.46737 0.54905 0.15673 0.0
C237 C 0.41954 0.70461 0.20336 0.0
C238 C 0.39125 0.7028 0.23266 0.0
C239 C 0.44265 0.6574 0.19032 0.0
C240 C 0.43466 0.60566 0.2047 0.0
C241 C 0.38385 0.65166 0.24784 0.0
C242 C 0.40467 0.60325 0.23366 0.0
C243 C 0.46152 0.55592 0.19048 0.0
C244 C 0.62823 0.40084 0.24552 0.0
C245 C 0.60305 0.349 0.24818 0.0
C246 C 0.60052 0.44502 0.23131 0.0
C247 C 0.54697 0.43829 0.22001 0.0
C248 C 0.54824 0.34347 0.23851 0.0
C249 C 0.52046 0.38779 0.22457 0.0
C250 C 0.52231 0.47963 0.19849 0.0
C251 C 0.58904 0.36444 0.11478 0.0
C252 C 0.63281 0.39153 0.0994 0.0
C253 C 0.56014 0.38989 0.13973 0.0
C254 C 0.57459 0.44281 0.14976 0.0
C255 C 0.65106 0.44175 0.11195 0.0
C256 C 0.62179 0.46742 0.1368 0.0
C257 C 0.53306 0.47816 0.16532 0.0
H258 H 0.31664 0.64344 0.11366 0.0
H259 H 0.35995 0.58815 0.1562 0.0
H260 H 0.46415 0.63154 0.05704 0.0
H261 H 0.50915 0.5825 0.10018 0.0
H262 H 0.42844 0.74377 0.19201 0.0
H263 H 0.46873 0.66217 0.16947 0.0
H264 H 0.36469 0.64953 0.27129 0.0
H265 H 0.39909 0.56433 0.24588 0.0
H266 H 0.6705 0.40644 0.25255 0.0
H267 H 0.62189 0.48347 0.22751 0.0
H268 H 0.5277 0.30415 0.24014 0.0
H269 H 0.47936 0.38167 0.21554 0.0
H270 H 0.57394 0.32575 0.10546 0.0
H271 H 0.52333 0.37063 0.14888 0.0
H272 H 0.68397 0.46396 0.1003 0.0
H273 H 0.63296 0.50879 0.14378 0.0
N274 N 0.50407 0.51163 0.14586 0.0
N275 N 0.48788 0.51932 0.21021 0.0
C276 C 0.40802 0.882 0.36741 0.0
C277 C 0.39927 0.90371 0.33667 0.0
C278 C 0.42987 0.91543 0.39167 0.0
C279 C 0.44047 0.97163 0.38586 0.0
C280 C 0.40912 0.95967 0.33103 0.0
C281 C 0.42887 0.99327 0.35535 0.0
C282 C 0.47084 0.00664 0.40902 0.0
C283 C 0.32015 0.97019 0.46387 0.0
C284 C 0.3252 0.92096 0.48144 0.0
C285 C 0.36612 0.997 0.45204 0.0
C286 C 0.41838 0.97602 0.45801 0.0
C287 C 0.37779 0.90078 0.48845 0.0
C288 C 0.42432 0.92883 0.47723 0.0
C289 C 0.4656 0.00323 0.44276 0.0
C290 C 0.65214 0.15541 0.4835 0.0
C291 C 0.68224 0.1152 0.50008 0.0
C292 C 0.60302 0.1411 0.46827 0.0
C293 C 0.58367 0.08665 0.46978 0.0
C294 C 0.66012 0.06217 0.50353 0.0
C295 C 0.61117 0.0483 0.48887 0.0
C296 C 0.53982 0.06609 0.44871 0.0
C297 C 0.67056 0.10794 0.37075 0.0
C298 C 0.65203 0.15047 0.35054 0.0
C299 C 0.63629 0.08614 0.39445 0.0
C300 C 0.58296 0.10638 0.39812 0.0
C301 C 0.60076 0.17447 0.3566 0.0
C302 C 0.56614 0.15199 0.37996 0.0
C303 C 0.54169 0.07309 0.41512 0.0
H304 H 0.4004 0.83895 0.37224 0.0
H305 H 0.44075 0.89645 0.41425 0.0
H306 H 0.40201 0.9775 0.30752 0.0
H307 H 0.43679 0.03609 0.34989 0.0
H308 H 0.28039 0.98705 0.45791 0.0
H309 H 0.36081 0.0337 0.43758 0.0
H310 H 0.38287 0.86297 0.50188 0.0
H311 H 0.46462 0.91232 0.48216 0.0
H312 H 0.66823 0.19655 0.48051 0.0
H313 H 0.58167 0.1717 0.45411 0.0
H314 H 0.68212 0.03006 0.51608 0.0
H315 H 0.59705 0.00616 0.49047 0.0
H316 H 0.70976 0.08844 0.36639 0.0
H317 H 0.6497 0.05048 0.40795 0.0
H318 H 0.58508 0.20657 0.34106 0.0
H319 H 0.52479 0.16763 0.38224 0.0
N320 N 0.50789 0.04243 0.39669 0.0
N321 N 0.50107 0.03207 0.46143 0.0
C322 C 0.14533 0.94173 0.58984 0.0
C323 C 0.12388 0.89071 0.58054 0.0
C324 C 0.1275 0.96656 0.61841 0.0
C325 C 0.08908 0.94006 0.63824 0.0
C326 C 0.08969 0.86203 0.6019 0.0
C327 C 0.07331 0.8861 0.63092 0.0
C328 C 0.0554 0.97318 0.66063 0.0
C329 C 0.09051 0.83425 0.73614 0.0
C330 C 0.14763 0.83224 0.73251 0.0
C331 C 0.06096 0.8797 0.72528 0.0
C332 C 0.08792 0.92316 0.70992 0.0
C333 C 0.17504 0.87753 0.71915 0.0
C334 C 0.14524 0.92256 0.70759 0.0
C335 C 0.05528 0.96633 0.69416 0.0
C336 C 0.90345 0.15143 0.73873 0.0
C337 C 0.94543 0.18359 0.75206 0.0
C338 C 0.91605 0.10184 0.72298 0.0
C339 C 0.97078 0.08444 0.7199 0.0
C340 C 0.9993 0.16303 0.75143 0.0
C341 C 0.01172 0.11438 0.73551 0.0
C342 C 0.98859 0.03805 0.69923 0.0
C343 C 0.93289 0.1363 0.60147 0.0
C344 C 0.87643 0.12591 0.60206 0.0
C345 C 0.96752 0.11204 0.62401 0.0
C346 C 0.94649 0.0765 0.64748 0.0
C347 C 0.85461 0.09303 0.62655 0.0
C348 C 0.8897 0.06698 0.64848 0.0
C349 C 0.98487 0.04076 0.66536 0.0
H350 H 0.17133 0.96472 0.57357 0.0
H351 H 0.13984 0.0084 0.6235 0.0
H352 H 0.07263 0.82264 0.59512 0.0
H353 H 0.04362 0.865 0.64583 0.0
H354 H 0.06848 0.79972 0.7463 0.0
H355 H 0.01675 0.87952 0.72725 0.0
H356 H 0.21899 0.8766 0.71577 0.0
H357 H 0.16666 0.956 0.69586 0.0
H358 H 0.86143 0.16557 0.73927 0.0
H359 H 0.88311 0.07788 0.71303 0.0
H360 H 0.03276 0.18585 0.762 0.0
H361 H 0.05415 0.10157 0.73406 0.0
H362 H 0.95057 0.16158 0.58268 0.0
H363 H 0.01123 0.11867 0.62203 0.0
H364 H 0.81121 0.08446 0.62735 0.0
H365 H 0.87282 0.03674 0.66479 0.0
N366 N 0.01953 0.0094 0.64758 0.0
N367 N 0.02311 0.99997 0.71234 0.0
Mn368 Mn 0.35884 0.72362 0.00881 0.0
Mn369 Mn 0.34114 0.58614 0.00556 0.0
C370 C 0.36217 0.66929 0.05479 0.0
C371 C 0.4139 0.8022 0.01165 0.0
C372 C 0.24926 0.66803 0.99612 0.0
O373 O 0.37706 0.70604 0.96176 0.0
O374 O 0.36799 0.6131 0.96344 0.0
C375 C 0.45462 0.54375 0.98702 0.0
N376 N 0.40619 0.54252 0.01242 0.0
C377 C 0.40516 0.43159 0.04078 0.0
C378 C 0.45691 0.40656 0.01811 0.0
C379 C 0.49349 0.48609 0.97979 0.0
C380 C 0.38391 0.49698 0.03632 0.0
H381 H 0.46179 0.57986 0.97253 0.0
C382 C 0.37945 0.65816 0.9488 0.0
O383 O 0.36295 0.80499 1.00307 0.0
O384 O 0.43391 0.75342 0.01626 0.0
N385 N 0.31353 0.55799 0.04543 0.0
C386 C 0.26952 0.5772 0.06217 0.0
C387 C 0.24831 0.54654 0.08777 0.0
C388 C 0.27128 0.49537 0.09519 0.0
C389 C 0.31635 0.4759 0.0776 0.0
C390 C 0.33818 0.51052 0.0536 0.0
H391 H 0.25129 0.61632 0.0563 0.0
O392 O 0.34842 0.72073 0.05691 0.0
O393 O 0.37116 0.65102 0.02615 0.0
O394 O 0.2761 0.71224 1.00034 0.0
O395 O 0.27099 0.62085 0.99724 0.0
C396 C 0.33766 0.42275 0.08311 0.0
C397 C 0.38 0.4003 0.06448 0.0
H398 H 0.47015 0.36403 0.02188 0.0
H399 H 0.52674 0.48753 0.96222 0.0
H400 H 0.21363 0.56178 0.10129 0.0
H401 H 0.25348 0.47096 0.11432 0.0
H402 H 0.31971 0.39711 0.10163 0.0
H403 H 0.39358 0.35862 0.06891 0.0
Mn404 Mn 0.33608 0.86855 0.26023 0.0
Mn405 Mn 0.47096 0.84242 0.26658 0.0
C406 C 0.38081 0.87009 0.30947 0.0
C407 C 0.25993 0.9277 0.26161 0.0
C408 C 0.38889 0.75508 0.25042 0.0
O409 O 0.36313 0.88844 0.21502 0.0
O410 O 0.45276 0.86556 0.22161 0.0
C411 C 0.52421 0.94816 0.24489 0.0
N412 N 0.51529 0.90679 0.2738 0.0
C413 C 0.61565 0.91008 0.31291 0.0
C414 C 0.64955 0.95488 0.28884 0.0
C415 C 0.58451 0.98267 0.24034 0.0
C416 C 0.55173 0.88942 0.30359 0.0
H417 H 0.49335 0.95385 0.22675 0.0
C418 C 0.41233 0.88289 0.20445 0.0
O419 O 0.25594 0.87794 0.25056 0.0
O420 O 0.30878 0.94447 0.26842 0.0
N421 N 0.4896 0.81869 0.30924 0.0
C422 C 0.46675 0.77558 0.32538 0.0
C423 C 0.48902 0.7583 0.35464 0.0
C424 C 0.53603 0.78389 0.36647 0.0
C425 C 0.55987 0.82744 0.34934 0.0
C426 C 0.533 0.84585 0.32131 0.0
H427 H 0.43132 0.75458 0.31602 0.0
O428 O 0.32981 0.85556 0.30793 0.0
O429 O 0.40489 0.87748 0.28216 0.0
O430 O 0.34659 0.78578 0.24932 0.0
O431 O 0.43556 0.77257 0.25836 0.0
C432 C 0.61034 0.85003 0.35917 0.0
C433 C 0.63868 0.88909 0.34081 0.0
H434 H 0.69079 0.9679 0.29555 0.0
H435 H 0.58916 0.01052 0.22013 0.0
H436 H 0.47078 0.72439 0.36764 0.0
H437 H 0.55431 0.76883 0.38851 0.0
H438 H 0.6298 0.83485 0.38082 0.0
H439 H 0.67875 0.90275 0.34838 0.0
Mn440 Mn 0.19304 0.84024 0.48853 0.0
Mn441 Mn 0.05656 0.84733 0.4879 0.0
C442 C 0.14588 0.85469 0.44013 0.0
C443 C 0.27482 0.88987 0.48901 0.0
C444 C 0.11948 0.74229 0.50213 0.0
O445 O 0.17415 0.85781 0.53545 0.0
O446 O 0.0832 0.87444 0.53032 0.0
C447 C 0.04969 0.968 0.48591 0.0
N448 N 0.03435 0.91845 0.47396 0.0
C449 C 0.9857 0.96119 0.43041 0.0
C450 C 0.99787 0.01269 0.44356 0.0
C451 C 0.03174 0.0162 0.47064 0.0
C452 C 0.00571 0.91469 0.44628 0.0
H453 H 0.07667 0.97034 0.50639 0.0
C454 C 0.12769 0.87284 0.54677 0.0
O455 O 0.27444 0.83798 0.49668 0.0
O456 O 0.22804 0.9125 0.48358 0.0
N457 N 0.02711 0.82174 0.44802 0.0
C458 C 0.02758 0.76991 0.43563 0.0
C459 C 0.00144 0.75964 0.40623 0.0
C460 C 0.97516 0.80271 0.38987 0.0
C461 C 0.97547 0.85571 0.40303 0.0
C462 C 0.0016 0.86333 0.43262 0.0
H463 H 0.04776 0.73663 0.44803 0.0
O464 O 0.19449 0.83332 0.43977 0.0
O465 O 0.12653 0.86148 0.46869 0.0
O466 O 0.16764 0.7599 0.49556 0.0
O467 O 0.07689 0.7727 0.50117 0.0
C468 C 0.95224 0.90158 0.38754 0.0
C469 C 0.95743 0.95428 0.40121 0.0
H470 H 0.9837 0.04988 0.43226 0.0
H471 H 0.04428 0.056 0.47952 0.0
H472 H 0.00166 0.71864 0.39615 0.0
H473 H 0.95552 0.79476 0.36702 0.0
H474 H 0.93167 0.89703 0.36466 0.0
H475 H 0.94111 0.98927 0.38846 0.0
Mn476 Mn 0.22237 0.69609 0.73906 0.0
Mn477 Mn 0.2128 0.55919 0.74285 0.0
C478 C 0.21376 0.64447 0.69189 0.0
C479 C 0.17653 0.77994 0.73789 0.0
C480 C 0.31677 0.62171 0.75735 0.0
O481 O 0.20022 0.6815 0.7859 0.0
O482 O 0.18022 0.5908 0.78272 0.0
C483 C 0.09342 0.55447 0.73467 0.0
N484 N 0.14404 0.53566 0.72688 0.0
C485 C 0.10775 0.47534 0.68661 0.0
C486 C 0.05493 0.49115 0.69582 0.0
C487 C 0.04774 0.53268 0.71882 0.0
C488 C 0.1516 0.5 0.70239 0.0
H489 H 0.08839 0.58638 0.75248 0.0
C490 C 0.1814 0.63679 0.79784 0.0
O491 O 0.2279 0.77739 0.74585 0.0
O492 O 0.152 0.73411 0.73173 0.0
N493 N 0.24317 0.52381 0.70579 0.0
C494 C 0.29581 0.52337 0.69496 0.0
C495 C 0.31015 0.48963 0.6689 0.0
C496 C 0.27014 0.45703 0.65408 0.0
C497 C 0.21602 0.45916 0.66518 0.0
C498 C 0.20434 0.49305 0.69151 0.0
H499 H 0.32655 0.54891 0.70584 0.0
O500 O 0.234 0.69368 0.69079 0.0
O501 O 0.20196 0.62773 0.72048 0.0
O502 O 0.30082 0.66942 0.74842 0.0
O503 O 0.28555 0.5798 0.75826 0.0
C504 C 0.17283 0.4305 0.65049 0.0
C505 C 0.11872 0.4386 0.66124 0.0
H506 H 0.01978 0.47344 0.68445 0.0
H507 H 0.00706 0.54735 0.72454 0.0
H508 H 0.35187 0.48899 0.66016 0.0
H509 H 0.28118 0.43151 0.63375 0.0
H510 H 0.1805 0.40363 0.63023 0.0
H511 H 0.0859 0.41783 0.649 0.0
Mn512 Mn 0.83384 0.19843 0.52812 0.0
Mn513 Mn 0.84343 0.06154 0.52405 0.0
C514 C 0.84313 0.14636 0.57513 0.0
C515 C 0.87955 0.28219 0.52908 0.0
C516 C 0.7393 0.12448 0.51015 0.0
O517 O 0.85519 0.18412 0.48113 0.0
O518 O 0.87555 0.0934 0.4841 0.0
C519 C 0.96288 0.05646 0.53195 0.0
N520 N 0.91233 0.03756 0.53971 0.0
C521 C 0.9489 0.97625 0.57951 0.0
C522 C 0.00166 0.99219 0.57032 0.0
C523 C 0.00867 0.03425 0.54758 0.0
C524 C 0.90495 1.0014 0.564 0.0
H525 H 0.96775 0.08877 0.51433 0.0
C526 C 0.87391 0.13949 0.46903 0.0
O527 O 0.82806 0.27974 0.52141 0.0
O528 O 0.90427 0.2363 0.53509 0.0
N529 N 0.81345 0.02593 0.56115 0.0
C530 C 0.76103 0.02593 0.57234 0.0
C531 C 0.74687 0.9918 0.59828 0.0
C532 C 0.78688 0.95844 0.61267 0.0
C533 C 0.84083 0.96028 0.60127 0.0
C534 C 0.85231 0.99456 0.57506 0.0
H535 H 0.73038 0.05219 0.56188 0.0
O536 O 0.823 0.19566 0.57646 0.0
O537 O 0.85455 0.12986 0.54646 0.0
O538 O 0.75528 0.17205 0.51915 0.0
O539 O 0.77055 0.08253 0.50896 0.0
C540 C 0.88408 0.931 0.61559 0.0
C541 C 0.93808 0.93898 0.60467 0.0
H542 H 0.0369 0.97421 0.58156 0.0
H543 H 0.0493 0.04898 0.54189 0.0
H544 H 0.70533 0.99149 0.60731 0.0
H545 H 0.77601 0.93265 0.63292 0.0
H546 H 0.87656 0.90377 0.63573 0.0
H547 H 0.97096 0.91774 0.61664 0.0
Mn548 Mn 0.86249 0.33868 0.77719 0.0
Mn549 Mn 0.99892 0.34558 0.77784 0.0
C550 C 0.90967 0.35187 0.82566 0.0
C551 C 0.7807 0.38851 0.77747 0.0
C552 C 0.93623 0.24082 0.76328 0.0
O553 O 0.88122 0.35735 0.73033 0.0
O554 O 0.97221 0.37331 0.73553 0.0
C555 C 0.00535 0.46618 0.78021 0.0
N556 N 0.02087 0.41649 0.79201 0.0
C557 C 0.0693 0.45866 0.83572 0.0
C558 C 0.05697 0.51031 0.82272 0.0
C559 C 0.02313 0.51418 0.79563 0.0
C560 C 0.04949 0.41237 0.81969 0.0
H561 H 0.97843 0.4688 0.75971 0.0
C562 C 0.92771 0.37237 0.71908 0.0
O563 O 0.78096 0.33685 0.76933 0.0
O564 O 0.82757 0.41089 0.78269 0.0
N565 N 0.02852 0.31942 0.8176 0.0
C566 C 0.02836 0.2674 0.82979 0.0
C567 C 0.0546 0.25673 0.85913 0.0
C568 C 0.08066 0.29961 0.87566 0.0
C569 C 0.08005 0.35281 0.8627 0.0
C570 C 0.05384 0.36082 0.83316 0.0
H571 H 0.00836 0.23426 0.81726 0.0
O572 O 0.86113 0.3305 0.82587 0.0
O573 O 0.92897 0.35942 0.79715 0.0
O574 O 0.88798 0.25846 0.76973 0.0
O575 O 0.97876 0.27116 0.76437 0.0
C576 C 0.10306 0.3985 0.87837 0.0
C577 C 0.0976 0.45139 0.86489 0.0
H578 H 0.07108 0.54732 0.8341 0.0
H579 H 0.01056 0.5541 0.78683 0.0
H580 H 0.05462 0.21558 0.86904 0.0
H581 H 0.10038 0.29136 0.89846 0.0
H582 H 0.12367 0.39365 0.90122 0.0
H583 H 0.11377 0.48622 0.87777 0.0
Mn584 Mn 0.72406 0.36476 0.00979 0.0
Mn585 Mn 0.58866 0.34327 1.00316 0.0
C586 C 0.67888 0.3726 0.96063 0.0
C587 C 0.80044 0.42307 0.01 0.0
C588 C 0.67024 0.25165 0.01489 0.0
O589 O 0.69753 0.37847 0.05626 0.0
O590 O 0.60681 0.36345 0.0481 0.0
C591 C 0.54056 0.45263 0.02503 0.0
N592 N 0.54543 0.40887 0.99698 0.0
C593 C 0.44097 0.41094 0.96189 0.0
C594 C 0.41046 0.45799 0.9859 0.0
C595 C 0.48108 0.4889 0.03091 0.0
C596 C 0.50552 0.39015 0.96913 0.0
H597 H 0.57343 0.45795 0.04202 0.0
C598 C 0.64768 0.37524 0.06623 0.0
O599 O 0.80444 0.37207 0.01903 0.0
O600 O 0.75142 0.44136 0.00503 0.0
N601 N 0.56894 0.32163 0.96045 0.0
C602 C 0.59158 0.27986 0.94308 0.0
C603 C 0.56663 0.26256 0.91461 0.0
C604 C 0.51726 0.28662 0.90498 0.0
C605 C 0.49388 0.32889 0.92341 0.0
C606 C 0.52323 0.34737 0.95047 0.0
H607 H 0.62871 0.25992 0.95094 0.0
O608 O 0.72995 0.35822 0.96153 0.0
O609 O 0.65525 0.37773 0.98823 0.0
O610 O 0.71382 0.28038 0.01588 0.0
O611 O 0.62354 0.27256 0.01003 0.0
C612 C 0.44181 0.35042 0.91574 0.0
C613 C 0.41506 0.38929 0.93508 0.0
H614 H 0.36866 0.47108 0.98035 0.0
H615 H 0.47836 0.51877 0.05038 0.0
H616 H 0.58459 0.22969 0.9006 0.0
H617 H 0.49703 0.27153 0.88359 0.0
H618 H 0.42027 0.33508 0.89485 0.0
H619 H 0.37423 0.40285 0.92887 0.0
Mn620 Mn 0.69383 0.22289 0.25823 0.0
Mn621 Mn 0.71932 0.08589 0.2627 0.0
C622 C 0.69164 0.17072 0.21113 0.0
C623 C 0.63598 0.2997 0.25641 0.0
C624 C 0.80695 0.17262 0.26929 0.0
O625 O 0.67671 0.20551 0.30529 0.0
O626 O 0.69294 0.11411 0.30458 0.0
C627 C 0.60674 0.04098 0.28342 0.0
N628 N 0.65752 0.037 0.25972 0.0
C629 C 0.66083 0.92365 0.23518 0.0
C630 C 0.60623 0.90123 0.25645 0.0
C631 C 0.5664 0.98442 0.29092 0.0
C632 C 0.68223 0.98901 0.23842 0.0
H633 H 0.59821 0.07865 0.29618 0.0
C634 C 0.67811 0.1583 0.31885 0.0
O635 O 0.68687 0.30382 0.2648 0.0
O636 O 0.61774 0.25046 0.25115 0.0
N637 N 0.747 0.05367 0.22412 0.0
C638 C 0.78716 0.07396 0.20476 0.0
C639 C 0.80942 0.04072 0.18062 0.0
C640 C 0.79105 0.98653 0.17711 0.0
C641 C 0.74919 0.96635 0.19704 0.0
C642 C 0.72699 0.00249 0.22005 0.0
H643 H 0.80211 0.11534 0.20791 0.0
O644 O 0.70407 0.22255 0.21067 0.0
O645 O 0.68427 0.14895 0.2397 0.0
O646 O 0.77733 0.21539 0.26644 0.0
O647 O 0.78777 0.12457 0.26804 0.0
C648 C 0.73009 0.91181 0.19399 0.0
C649 C 0.68767 0.89046 0.21304 0.0
H650 H 0.59276 0.85871 0.2533 0.0
H651 H 0.53126 0.98771 0.30707 0.0
H652 H 0.8414 0.05647 0.16514 0.0
H653 H 0.80924 0.96073 0.15875 0.0
H654 H 0.74863 0.88486 0.17633 0.0
H655 H 0.67467 0.84835 0.2097 0.0
loop_
_geom_bond_atom_site_label_1
_geom_bond_atom_site_label_2
_geom_bond_distance
_geom_bond_site_symmetry_2
_ccdc_geom_bond_type
C0 C1 1.384 . S
C0 C2 1.384 . S
C0 H28 0.931 . S
C1 C0 1.384 . S
C1 C4 1.382 . S
C2 C0 1.384 . S
C2 C3 1.381 . S
C2 H29 0.930 . S
C3 C2 1.381 . S
C3 C5 1.381 . S
C3 C6 1.487 . S
C4 C1 1.382 . S
C4 C5 1.387 . S
C4 H30 0.930 . S
C5 C3 1.381 . S
C5 C4 1.387 . S
C5 H31 0.931 1_565 S
C6 C3 1.487 . S
C6 C13 1.399 . S
C6 N44 1.343 1_565 S
C7 C8 1.384 . S
C7 C9 1.384 . S
C7 H32 0.931 . S
C8 C7 1.384 . S
C8 C11 1.382 . S
C9 C7 1.384 . S
C9 C10 1.381 . S
C9 H33 0.930 . S
C10 C9 1.381 . S
C10 C12 1.381 . S
C10 C13 1.487 . S
C11 C8 1.382 . S
C11 C12 1.387 . S
C11 H34 0.930 . S
C12 C10 1.381 . S
C12 C11 1.387 . S
C12 H35 0.931 . S
C13 C6 1.399 . S
C13 C10 1.487 . S
C13 N45 1.339 1_565 S
C14 C15 1.384 . S
C14 C16 1.384 . S
C14 H36 0.931 . S
C15 C14 1.384 . S
C15 C18 1.382 . S
C16 C14 1.384 . S
C16 C17 1.381 . S
C16 H37 0.930 . S
C17 C16 1.381 . S
C17 C19 1.381 . S
C17 C20 1.487 . S
C18 C15 1.382 . S
C18 C19 1.387 . S
C18 H38 0.930 . S
C19 C17 1.381 . S
C19 C18 1.387 . S
C19 H39 0.931 . S
C20 C17 1.487 . S
C20 C27 1.399 . S
C20 N45 1.348 1_655 S
C21 C22 1.384 . S
C21 C23 1.384 . S
C21 H40 0.931 . S
C22 C21 1.384 . S
C22 C25 1.382 . S
C23 C21 1.384 . S
C23 C24 1.381 . S
C23 H41 0.930 . S
C24 C23 1.381 . S
C24 C26 1.381 . S
C24 C27 1.487 . S
C25 C22 1.382 . S
C25 C26 1.387 . S
C25 H42 0.930 . S
C26 C24 1.381 . S
C26 C25 1.387 . S
C26 H43 0.931 . S
C27 C20 1.399 . S
C27 C24 1.487 . S
C27 N44 1.343 1_655 S
H28 C0 0.931 . S
H29 C2 0.930 . S
H30 C4 0.930 . S
H31 C5 0.931 1_545 S
H32 C7 0.931 . S
H33 C9 0.930 . S
H34 C11 0.930 . S
H35 C12 0.931 . S
H36 C14 0.931 . S
H37 C16 0.930 . S
H38 C18 0.930 . S
H39 C19 0.931 . S
H40 C21 0.931 . S
H41 C23 0.930 . S
H42 C25 0.930 . S
H43 C26 0.931 . S
N44 C6 1.343 1_545 S
N44 C27 1.343 1_455 S
N45 C13 1.339 1_545 S
N45 C20 1.348 1_455 S
C46 C47 1.384 . S
C46 C48 1.384 . S
C46 H74 0.931 . S
C47 C46 1.384 . S
C47 C50 1.382 . S
C48 C46 1.384 . S
C48 C49 1.381 . S
C48 H75 0.930 . S
C49 C48 1.381 . S
C49 C51 1.381 1_655 S
C49 C52 1.487 1_655 S
C50 C47 1.382 . S
C50 C51 1.387 1_655 S
C50 H76 0.930 1_655 S
C51 C49 1.381 1_455 S
C51 C50 1.387 1_455 S
C51 H77 0.931 . S
C52 C49 1.487 1_455 S
C52 C59 1.399 . S
C52 N90 1.343 . S
C53 C54 1.384 . S
C53 C55 1.384 . S
C53 H78 0.931 . S
C54 C53 1.384 . S
C54 C57 1.382 . S
C55 C53 1.384 . S
C55 C56 1.381 . S
C55 H79 0.930 1_655 S
C56 C55 1.381 . S
C56 C58 1.381 . S
C56 C59 1.487 1_655 S
C57 C54 1.382 . S
C57 C58 1.387 . S
C57 H80 0.930 . S
C58 C56 1.381 . S
C58 C57 1.387 . S
C58 H81 0.931 . S
C59 C52 1.399 . S
C59 C56 1.487 1_455 S
C59 N91 1.343 . S
C60 C61 1.384 . S
C60 C62 1.384 . S
C60 H82 0.931 . S
C61 C60 1.384 . S
C61 C64 1.382 . S
C62 C60 1.384 . S
C62 C63 1.381 . S
C62 H83 0.930 . S
C63 C62 1.381 . S
C63 C65 1.381 . S
C63 C66 1.487 . S
C64 C61 1.382 . S
C64 C65 1.387 . S
C64 H84 0.930 . S
C65 C63 1.381 . S
C65 C64 1.387 . S
C65 H85 0.931 . S
C66 C63 1.487 . S
C66 C73 1.399 . S
C66 N91 1.343 . S
C67 C68 1.384 . S
C67 C69 1.384 . S
C67 H86 0.931 . S
C68 C67 1.384 . S
C68 C71 1.382 . S
C69 C67 1.384 . S
C69 C70 1.381 . S
C69 H87 0.930 . S
C70 C69 1.381 . S
C70 C72 1.381 . S
C70 C73 1.487 . S
C71 C68 1.382 . S
C71 C72 1.387 . S
C71 H88 0.930 . S
C72 C70 1.381 . S
C72 C71 1.387 . S
C72 H89 0.931 . S
C73 C66 1.399 . S
C73 C70 1.487 . S
C73 N90 1.343 . S
H74 C46 0.931 . S
H75 C48 0.930 . S
H76 C50 0.930 1_455 S
H77 C51 0.931 . S
H78 C53 0.931 . S
H79 C55 0.930 1_455 S
H80 C57 0.930 . S
H81 C58 0.931 . S
H82 C60 0.931 . S
H83 C62 0.930 . S
H84 C64 0.930 . S
H85 C65 0.931 . S
H86 C67 0.931 . S
H87 C69 0.930 . S
H88 C71 0.930 . S
H89 C72 0.931 . S
N90 C52 1.343 . S
N90 C73 1.343 . S
N91 C59 1.343 . S
N91 C66 1.343 . S
C92 C93 1.384 . S
C92 C94 1.384 . S
C92 H120 0.931 . S
C93 C92 1.384 . S
C93 C96 1.382 . S
C94 C92 1.384 . S
C94 C95 1.381 . S
C94 H121 0.930 . S
C95 C94 1.381 . S
C95 C97 1.381 . S
C95 C98 1.487 . S
C96 C93 1.382 . S
C96 C97 1.387 . S
C96 H122 0.930 . S
C97 C95 1.381 . S
C97 C96 1.387 . S
C97 H123 0.931 . S
C98 C95 1.487 . S
C98 C105 1.399 . S
C98 N136 1.343 . S
C99 C100 1.384 . S
C99 C101 1.384 . S
C99 H124 0.931 . S
C100 C99 1.384 . S
C100 C103 1.382 . S
C101 C99 1.384 . S
C101 C102 1.381 . S
C101 H125 0.930 . S
C102 C101 1.381 . S
C102 C104 1.381 . S
C102 C105 1.487 . S
C103 C100 1.382 . S
C103 C104 1.387 . S
C103 H126 0.930 . S
C104 C102 1.381 . S
C104 C103 1.387 . S
C104 H127 0.931 . S
C105 C98 1.399 . S
C105 C102 1.487 . S
C105 N137 1.343 . S
C106 C107 1.384 . S
C106 C108 1.384 . S
C106 H128 0.931 . S
C107 C106 1.384 . S
C107 C110 1.382 . S
C108 C106 1.384 . S
C108 C109 1.381 . S
C108 H129 0.930 . S
C109 C108 1.381 . S
C109 C111 1.381 . S
C109 C112 1.487 . S
C110 C107 1.382 . S
C110 C111 1.387 . S
C110 H130 0.930 . S
C111 C109 1.381 . S
C111 C110 1.387 . S
C111 H131 0.931 . S
C112 C109 1.487 . S
C112 C119 1.399 . S
C112 N137 1.343 . S
C113 C114 1.384 . S
C113 C115 1.384 . S
C113 H132 0.931 . S
C114 C113 1.384 . S
C114 C117 1.382 . S
C115 C113 1.384 . S
C115 C116 1.381 . S
C115 H133 0.930 . S
C116 C115 1.381 . S
C116 C118 1.381 . S
C116 C119 1.487 . S
C117 C114 1.382 . S
C117 C118 1.387 . S
C117 H134 0.930 . S
C118 C116 1.381 . S
C118 C117 1.387 . S
C118 H135 0.931 . S
C119 C112 1.399 . S
C119 C116 1.487 . S
C119 N136 1.343 . S
H120 C92 0.931 . S
H121 C94 0.930 . S
H122 C96 0.930 . S
H123 C97 0.931 . S
H124 C99 0.931 . S
H125 C101 0.930 . S
H126 C103 0.930 . S
H127 C104 0.931 . S
H128 C106 0.931 . S
H129 C108 0.930 . S
H130 C110 0.930 . S
H131 C111 0.931 . S
H132 C113 0.931 . S
H133 C115 0.930 . S
H134 C117 0.930 . S
H135 C118 0.931 . S
N136 C98 1.343 . S
N136 C119 1.343 . S
N137 C105 1.343 . S
N137 C112 1.343 . S
C138 C139 1.384 . S
C138 C140 1.384 . S
C138 H166 0.931 . S
C139 C138 1.384 . S
C139 C142 1.382 . S
C140 C138 1.384 . S
C140 C141 1.381 . S
C140 H167 0.930 . S
C141 C140 1.381 . S
C141 C143 1.381 . S
C141 C144 1.487 1_565 S
C142 C139 1.382 . S
C142 C143 1.387 . S
C142 H168 0.930 1_554 S
C143 C141 1.381 . S
C143 C142 1.387 . S
C143 H169 0.931 1_565 S
C144 C141 1.487 1_545 S
C144 C151 1.399 . S
C144 N182 1.343 . S
C145 C146 1.384 . S
C145 C147 1.384 . S
C145 H170 0.931 . S
C146 C145 1.384 . S
C146 C149 1.382 . S
C147 C145 1.384 . S
C147 C148 1.381 . S
C147 H171 0.930 . S
C148 C147 1.381 . S
C148 C150 1.381 . S
C148 C151 1.487 1_565 S
C149 C146 1.382 . S
C149 C150 1.387 . S
C149 H172 0.930 . S
C150 C148 1.381 . S
C150 C149 1.387 . S
C150 H173 0.931 . S
C151 C144 1.399 . S
C151 C148 1.487 1_545 S
C151 N183 1.343 . S
C152 C153 1.384 . S
C152 C154 1.384 . S
C152 H174 0.931 . S
C153 C152 1.384 . S
C153 C156 1.382 . S
C154 C152 1.384 . S
C154 C155 1.381 . S
C154 H175 0.930 . S
C155 C154 1.381 . S
C155 C157 1.381 . S
C155 C158 1.487 . S
C156 C153 1.382 . S
C156 C157 1.387 . S
C156 H176 0.930 . S
C157 C155 1.381 . S
C157 C156 1.387 . S
C157 H177 0.931 . S
C158 C155 1.487 . S
C158 C165 1.399 . S
C158 N183 1.343 . S
C159 C160 1.384 . S
C159 C161 1.384 . S
C159 H178 0.931 . S
C160 C159 1.384 . S
C160 C163 1.382 . S
C161 C159 1.384 . S
C161 C162 1.381 . S
C161 H179 0.930 . S
C162 C161 1.381 . S
C162 C164 1.381 . S
C162 C165 1.487 . S
C163 C160 1.382 . S
C163 C164 1.387 . S
C163 H180 0.930 1_554 S
C164 C162 1.381 . S
C164 C163 1.387 . S
C164 H181 0.931 . S
C165 C158 1.399 . S
C165 C162 1.487 . S
C165 N182 1.343 . S
H166 C138 0.931 . S
H167 C140 0.930 . S
H168 C142 0.930 1_556 S
H169 C143 0.931 1_545 S
H170 C145 0.931 . S
H171 C147 0.930 . S
H172 C149 0.930 . S
H173 C150 0.931 . S
H174 C152 0.931 . S
H175 C154 0.930 . S
H176 C156 0.930 . S
H177 C157 0.931 . S
H178 C159 0.931 . S
H179 C161 0.930 . S
H180 C163 0.930 1_556 S
H181 C164 0.931 . S
N182 C144 1.343 . S
N182 C165 1.343 . S
N183 C151 1.343 . S
N183 C158 1.343 . S
C184 C185 1.384 . S
C184 C186 1.384 . S
C184 H212 0.931 . S
C185 C184 1.384 . S
C185 C188 1.382 . S
C186 C184 1.384 . S
C186 C187 1.381 . S
C186 H213 0.930 . S
C187 C186 1.381 . S
C187 C189 1.381 . S
C187 C190 1.487 . S
C188 C185 1.382 . S
C188 C189 1.387 . S
C188 H214 0.930 . S
C189 C187 1.381 . S
C189 C188 1.387 . S
C189 H215 0.931 . S
C190 C187 1.487 . S
C190 C197 1.399 . S
C190 N228 1.343 . S
C191 C192 1.384 . S
C191 C193 1.384 . S
C191 H216 0.931 . S
C192 C191 1.384 . S
C192 C195 1.382 1_556 S
C193 C191 1.384 . S
C193 C194 1.381 . S
C193 H217 0.930 . S
C194 C193 1.381 . S
C194 C196 1.381 . S
C194 C197 1.487 . S
C195 C192 1.382 1_554 S
C195 C196 1.387 1_554 S
C195 H218 0.930 . S
C196 C194 1.381 . S
C196 C195 1.387 1_556 S
C196 H219 0.931 . S
C197 C190 1.399 . S
C197 C194 1.487 . S
C197 N229 1.343 . S
C198 C199 1.384 1_556 S
C198 C200 1.384 . S
C198 H220 0.931 . S
C199 C198 1.384 1_554 S
C199 C202 1.382 . S
C200 C198 1.384 . S
C200 C201 1.381 . S
C200 H221 0.930 . S
C201 C200 1.381 . S
C201 C203 1.381 . S
C201 C204 1.487 1_655 S
C202 C199 1.382 . S
C202 C203 1.387 1_554 S
C202 H222 0.930 . S
C203 C201 1.381 . S
C203 C202 1.387 1_556 S
C203 H223 0.931 . S
C204 C201 1.487 1_455 S
C204 C211 1.399 . S
C204 N229 1.343 . S
C205 C206 1.384 . S
C205 C207 1.384 . S
C205 H224 0.931 . S
C206 C205 1.384 . S
C206 C209 1.382 . S
C207 C205 1.384 . S
C207 C208 1.381 . S
C207 H225 0.930 . S
C208 C207 1.381 . S
C208 C210 1.381 . S
C208 C211 1.487 1_655 S
C209 C206 1.382 . S
C209 C210 1.387 . S
C209 H226 0.930 . S
C210 C208 1.381 . S
C210 C209 1.387 . S
C210 H227 0.931 1_655 S
C211 C204 1.399 . S
C211 C208 1.487 1_455 S
C211 N228 1.343 . S
H212 C184 0.931 . S
H213 C186 0.930 . S
H214 C188 0.930 . S
H215 C189 0.931 . S
H216 C191 0.931 . S
H217 C193 0.930 . S
H218 C195 0.930 . S
H219 C196 0.931 . S
H220 C198 0.931 . S
H221 C200 0.930 . S
H222 C202 0.930 . S
H223 C203 0.931 . S
H224 C205 0.931 . S
H225 C207 0.930 . S
H226 C209 0.930 . S
H227 C210 0.931 1_455 S
N228 C190 1.343 . S
N228 C211 1.343 . S
N229 C197 1.343 . S
N229 C204 1.343 . S
C230 C231 1.384 . S
C230 C232 1.384 . S
C230 H258 0.931 . S
C231 C230 1.384 . S
C231 C234 1.382 . S
C232 C230 1.384 . S
C232 C233 1.381 . S
C232 H259 0.930 . S
C233 C232 1.381 . S
C233 C235 1.381 . S
C233 C236 1.487 . S
C234 C231 1.382 . S
C234 C235 1.387 . S
C234 H260 0.930 . S
C235 C233 1.381 . S
C235 C234 1.387 . S
C235 H261 0.931 . S
C236 C233 1.487 . S
C236 C243 1.399 . S
C236 N274 1.343 . S
C237 C238 1.384 . S
C237 C239 1.384 . S
C237 H262 0.931 . S
C238 C237 1.384 . S
C238 C241 1.382 . S
C239 C237 1.384 . S
C239 C240 1.381 . S
C239 H263 0.930 . S
C240 C239 1.381 . S
C240 C242 1.381 . S
C240 C243 1.487 . S
C241 C238 1.382 . S
C241 C242 1.387 . S
C241 H264 0.930 . S
C242 C240 1.381 . S
C242 C241 1.387 . S
C242 H265 0.931 . S
C243 C236 1.399 . S
C243 C240 1.487 . S
C243 N275 1.343 . S
C244 C245 1.384 . S
C244 C246 1.384 . S
C244 H266 0.931 . S
C245 C244 1.384 . S
C245 C248 1.382 . S
C246 C244 1.384 . S
C246 C247 1.381 . S
C246 H267 0.930 . S
C247 C246 1.381 . S
C247 C249 1.381 . S
C247 C250 1.487 . S
C248 C245 1.382 . S
C248 C249 1.387 . S
C248 H268 0.930 . S
C249 C247 1.381 . S
C249 C248 1.387 . S
C249 H269 0.931 . S
C250 C247 1.487 . S
C250 C257 1.399 . S
C250 N275 1.343 . S
C251 C252 1.384 . S
C251 C253 1.384 . S
C251 H270 0.931 . S
C252 C251 1.384 . S
C252 C255 1.382 . S
C253 C251 1.384 . S
C253 C254 1.381 . S
C253 H271 0.930 . S
C254 C253 1.381 . S
C254 C256 1.381 . S
C254 C257 1.487 . S
C255 C252 1.382 . S
C255 C256 1.387 . S
C255 H272 0.930 . S
C256 C254 1.381 . S
C256 C255 1.387 . S
C256 H273 0.931 . S
C257 C250 1.399 . S
C257 C254 1.487 . S
C257 N274 1.343 . S
H258 C230 0.931 . S
H259 C232 0.930 . S
H260 C234 0.930 . S
H261 C235 0.931 . S
H262 C237 0.931 . S
H263 C239 0.930 . S
H264 C241 0.930 . S
H265 C242 0.931 . S
H266 C244 0.931 . S
H267 C246 0.930 . S
H268 C248 0.930 . S
H269 C249 0.931 . S
H270 C251 0.931 . S
H271 C253 0.930 . S
H272 C255 0.930 . S
H273 C256 0.931 . S
N274 C236 1.343 . S
N274 C257 1.343 . S
N275 C243 1.343 . S
N275 C250 1.343 . S
C276 C277 1.384 . S
C276 C278 1.384 . S
C276 H304 0.931 . S
C277 C276 1.384 . S
C277 C280 1.382 . S
C278 C276 1.384 . S
C278 C279 1.381 . S
C278 H305 0.930 . S
C279 C278 1.381 . S
C279 C281 1.381 1_565 S
C279 C282 1.487 1_565 S
C280 C277 1.382 . S
C280 C281 1.387 1_565 S
C280 H306 0.930 1_565 S
C281 C279 1.381 1_545 S
C281 C280 1.387 1_545 S
C281 H307 0.931 . S
C282 C279 1.487 1_545 S
C282 C289 1.399 . S
C282 N320 1.343 . S
C283 C284 1.384 . S
C283 C285 1.384 . S
C283 H308 0.931 . S
C284 C283 1.384 . S
C284 C287 1.382 . S
C285 C283 1.384 . S
C285 C286 1.381 . S
C285 H309 0.930 1_565 S
C286 C285 1.381 . S
C286 C288 1.381 . S
C286 C289 1.487 1_565 S
C287 C284 1.382 . S
C287 C288 1.387 . S
C287 H310 0.930 . S
C288 C286 1.381 . S
C288 C287 1.387 . S
C288 H311 0.931 . S
C289 C282 1.399 . S
C289 C286 1.487 1_545 S
C289 N321 1.343 . S
C290 C291 1.384 . S
C290 C292 1.384 . S
C290 H312 0.931 . S
C291 C290 1.384 . S
C291 C294 1.382 . S
C292 C290 1.384 . S
C292 C293 1.381 . S
C292 H313 0.930 . S
C293 C292 1.381 . S
C293 C295 1.381 . S
C293 C296 1.487 . S
C294 C291 1.382 . S
C294 C295 1.387 . S
C294 H314 0.930 . S
C295 C293 1.381 . S
C295 C294 1.387 . S
C295 H315 0.931 . S
C296 C293 1.487 . S
C296 C303 1.399 . S
C296 N321 1.343 . S
C297 C298 1.384 . S
C297 C299 1.384 . S
C297 H316 0.931 . S
C298 C297 1.384 . S
C298 C301 1.382 . S
C299 C297 1.384 . S
C299 C300 1.381 . S
C299 H317 0.930 . S
C300 C299 1.381 . S
C300 C302 1.381 . S
C300 C303 1.487 . S
C301 C298 1.382 . S
C301 C302 1.387 . S
C301 H318 0.930 . S
C302 C300 1.381 . S
C302 C301 1.387 . S
C302 H319 0.931 . S
C303 C296 1.399 . S
C303 C300 1.487 . S
C303 N320 1.343 . S
H304 C276 0.931 . S
H305 C278 0.930 . S
H306 C280 0.930 1_545 S
H307 C281 0.931 . S
H308 C283 0.931 . S
H309 C285 0.930 1_545 S
H310 C287 0.930 . S
H311 C288 0.931 . S
H312 C290 0.931 . S
H313 C292 0.930 . S
H314 C294 0.930 . S
H315 C295 0.931 . S
H316 C297 0.931 . S
H317 C299 0.930 . S
H318 C301 0.930 . S
H319 C302 0.931 . S
N320 C282 1.343 . S
N320 C303 1.343 . S
N321 C289 1.343 . S
N321 C296 1.343 . S
C322 C323 1.384 . S
C322 C324 1.384 . S
C322 H350 0.931 . S
C323 C322 1.384 . S
C323 C326 1.382 . S
C324 C322 1.384 . S
C324 C325 1.381 . S
C324 H351 0.930 . S
C325 C324 1.381 . S
C325 C327 1.381 . S
C325 C328 1.487 . S
C326 C323 1.382 . S
C326 C327 1.387 . S
C326 H352 0.930 . S
C327 C325 1.381 . S
C327 C326 1.387 . S
C327 H353 0.931 1_455 S
C328 C325 1.487 . S
C328 C335 1.399 . S
C328 N366 1.343 . S
C329 C330 1.384 . S
C329 C331 1.384 . S
C329 H354 0.931 . S
C330 C329 1.384 . S
C330 C333 1.382 . S
C331 C329 1.384 . S
C331 C332 1.381 . S
C331 H355 0.930 . S
C332 C331 1.381 . S
C332 C334 1.381 . S
C332 C335 1.487 . S
C333 C330 1.382 . S
C333 C334 1.387 . S
C333 H356 0.930 . S
C334 C332 1.381 . S
C334 C333 1.387 . S
C334 H357 0.931 . S
C335 C328 1.399 . S
C335 C332 1.487 . S
C335 N367 1.343 1_565 S
C336 C337 1.384 . S
C336 C338 1.384 . S
C336 H358 0.931 . S
C337 C336 1.384 . S
C337 C340 1.382 . S
C338 C336 1.384 . S
C338 C339 1.381 . S
C338 H359 0.930 . S
C339 C338 1.381 . S
C339 C341 1.381 . S
C339 C342 1.487 . S
C340 C337 1.382 . S
C340 C341 1.387 . S
C340 H360 0.930 . S
C341 C339 1.381 . S
C341 C340 1.387 . S
C341 H361 0.931 1_655 S
C342 C339 1.487 . S
C342 C349 1.399 . S
C342 N367 1.343 1_655 S
C343 C344 1.384 . S
C343 C345 1.384 . S
C343 H362 0.931 . S
C344 C343 1.384 . S
C344 C347 1.382 . S
C345 C343 1.384 . S
C345 C346 1.381 . S
C345 H363 0.930 . S
C346 C345 1.381 . S
C346 C348 1.381 . S
C346 C349 1.487 . S
C347 C344 1.382 . S
C347 C348 1.387 . S
C347 H364 0.930 . S
C348 C346 1.381 . S
C348 C347 1.387 . S
C348 H365 0.931 . S
C349 C342 1.399 . S
C349 C346 1.487 . S
C349 N366 1.343 1_645 S
H350 C322 0.931 . S
H351 C324 0.930 . S
H352 C326 0.930 . S
H353 C327 0.931 1_655 S
H354 C329 0.931 . S
H355 C331 0.930 . S
H356 C333 0.930 . S
H357 C334 0.931 . S
H358 C336 0.931 . S
H359 C338 0.930 . S
H360 C340 0.930 . S
H361 C341 0.931 1_455 S
H362 C343 0.931 . S
H363 C345 0.930 . S
H364 C347 0.930 . S
H365 C348 0.931 . S
N366 C328 1.343 . S
N366 C349 1.343 1_465 S
N367 C335 1.343 1_545 S
N367 C342 1.343 1_455 S
Mn368 O373 2.095 1_554 S
Mn368 O383 2.162 . S
Mn368 O384 2.297 . S
Mn368 O392 2.385 . S
Mn368 O393 2.209 . S
Mn368 O394 2.094 1_554 S
Mn369 O374 2.121 . S
Mn369 N376 2.257 1_556 S
Mn369 N385 2.282 1_556 S
Mn369 O393 2.215 1_556 S
Mn369 O395 2.117 . S
C370 O392 1.234 . S
C370 O393 1.283 . S
C371 O383 1.281 . S
C371 O384 1.236 . S
C372 O394 1.240 . S
C372 O395 1.264 . S
O373 Mn368 2.095 1_556 S
O373 C382 1.250 . S
O374 Mn369 2.121 . S
O374 C382 1.258 . S
C375 N376 1.326 1_556 S
C375 C379 1.460 1_556 S
C375 H381 0.929 . S
N376 Mn369 2.257 1_554 S
N376 C375 1.326 1_554 S
N376 C380 1.362 . S
C377 C378 1.258 . S
C377 C380 1.431 . S
C377 C397 1.449 . S
C378 C377 1.258 . S
C378 C379 1.477 . S
C378 H398 0.931 . S
C379 C375 1.460 1_554 S
C379 C378 1.477 . S
C379 H399 0.930 1_554 S
C380 N376 1.362 . S
C380 C377 1.431 . S
C380 C390 1.476 . S
H381 C375 0.929 . S
C382 O373 1.250 . S
C382 O374 1.258 . S
O383 Mn368 2.162 . S
O383 C371 1.281 . S
O384 Mn368 2.297 . S
O384 C371 1.236 . S
N385 Mn369 2.282 1_554 S
N385 C386 1.328 . S
N385 C390 1.318 . S
C386 N385 1.328 . S
C386 C387 1.457 . S
C386 H391 0.929 . S
C387 C386 1.457 . S
C387 C388 1.291 . S
C387 H400 0.931 . S
C388 C387 1.291 . S
C388 C389 1.373 . S
C388 H401 0.929 . S
C389 C388 1.373 . S
C389 C390 1.396 . S
C389 C396 1.403 . S
C390 C380 1.476 . S
C390 N385 1.318 . S
C390 C389 1.396 . S
H391 C386 0.929 . S
O392 Mn368 2.385 . S
O392 C370 1.234 . S
O393 Mn368 2.209 . S
O393 Mn369 2.215 1_554 S
O393 C370 1.283 . S
O394 Mn368 2.094 1_556 S
O394 C372 1.240 . S
O395 Mn369 2.117 . S
O395 C372 1.264 . S
C396 C389 1.403 . S
C396 C397 1.399 . S
C396 H402 0.929 . S
C397 C377 1.449 . S
C397 C396 1.399 . S
C397 H403 0.930 . S
H398 C378 0.931 . S
H399 C379 0.930 1_556 S
H400 C387 0.931 . S
H401 C388 0.929 . S
H402 C396 0.929 . S
H403 C397 0.930 . S
Mn404 O409 2.095 . S
Mn404 O419 2.162 . S
Mn404 O420 2.297 . S
Mn404 O428 2.385 . S
Mn404 O429 2.209 . S
Mn404 O430 2.094 . S
Mn405 O410 2.121 . S
Mn405 N412 2.257 . S
Mn405 N421 2.282 . S
Mn405 O429 2.215 . S
Mn405 O431 2.117 . S
C406 O428 1.234 . S
C406 O429 1.283 . S
C407 O419 1.281 . S
C407 O420 1.236 . S
C408 O430 1.240 . S
C408 O431 1.264 . S
O409 Mn404 2.095 . S
O409 C418 1.250 . S
O410 Mn405 2.121 . S
O410 C418 1.258 . S
C411 N412 1.326 . S
C411 C415 1.460 1_565 S
C411 H417 0.929 . S
N412 Mn405 2.257 . S
N412 C411 1.326 . S
N412 C416 1.362 . S
C413 C414 1.258 1_565 S
C413 C416 1.431 . S
C413 C433 1.449 . S
C414 C413 1.258 1_545 S
C414 C415 1.477 . S
C414 H434 0.931 . S
C415 C411 1.460 1_545 S
C415 C414 1.477 . S
C415 H435 0.930 . S
C416 N412 1.362 . S
C416 C413 1.431 . S
C416 C426 1.476 . S
H417 C411 0.929 . S
C418 O409 1.250 . S
C418 O410 1.258 . S
O419 Mn404 2.162 . S
O419 C407 1.281 . S
O420 Mn404 2.297 . S
O420 C407 1.236 . S
N421 Mn405 2.282 . S
N421 C422 1.328 . S
N421 C426 1.318 . S
C422 N421 1.328 . S
C422 C423 1.457 . S
C422 H427 0.929 . S
C423 C422 1.457 . S
C423 C424 1.291 . S
C423 H436 0.931 . S
C424 C423 1.291 . S
C424 C425 1.373 . S
C424 H437 0.929 . S
C425 C424 1.373 . S
C425 C426 1.396 . S
C425 C432 1.403 . S
C426 C416 1.476 . S
C426 N421 1.318 . S
C426 C425 1.396 . S
H427 C422 0.929 . S
O428 Mn404 2.385 . S
O428 C406 1.234 . S
O429 Mn404 2.209 . S
O429 Mn405 2.215 . S
O429 C406 1.283 . S
O430 Mn404 2.094 . S
O430 C408 1.240 . S
O431 Mn405 2.117 . S
O431 C408 1.264 . S
C432 C425 1.403 . S
C432 C433 1.399 . S
C432 H438 0.929 . S
C433 C413 1.449 . S
C433 C432 1.399 . S
C433 H439 0.930 . S
H434 C414 0.931 . S
H435 C415 0.930 . S
H436 C423 0.931 . S
H437 C424 0.929 . S
H438 C432 0.929 . S
H439 C433 0.930 . S
Mn440 O445 2.095 . S
Mn440 O455 2.162 . S
Mn440 O456 2.297 . S
Mn440 O464 2.385 . S
Mn440 O465 2.209 . S
Mn440 O466 2.094 . S
Mn441 O446 2.121 . S
Mn441 N448 2.257 . S
Mn441 N457 2.282 . S
Mn441 O465 2.215 . S
Mn441 O467 2.117 . S
C442 O464 1.234 . S
C442 O465 1.283 . S
C443 O455 1.281 . S
C443 O456 1.236 . S
C444 O466 1.240 . S
C444 O467 1.264 . S
O445 Mn440 2.095 . S
O445 C454 1.250 . S
O446 Mn441 2.121 . S
O446 C454 1.258 . S
C447 N448 1.326 . S
C447 C451 1.460 1_455 S
C447 H453 0.929 . S
N448 Mn441 2.257 . S
N448 C447 1.326 . S
N448 C452 1.362 1_455 S
C449 C450 1.258 . S
C449 C452 1.431 . S
C449 C469 1.449 . S
C450 C449 1.258 . S
C450 C451 1.477 . S
C450 H470 0.931 . S
C451 C447 1.460 1_655 S
C451 C450 1.477 . S
C451 H471 0.930 . S
C452 N448 1.362 1_655 S
C452 C449 1.431 . S
C452 C462 1.477 . S
H453 C447 0.929 . S
C454 O445 1.250 . S
C454 O446 1.258 . S
O455 Mn440 2.162 . S
O455 C443 1.281 . S
O456 Mn440 2.297 . S
O456 C443 1.236 . S
N457 Mn441 2.282 . S
N457 C458 1.328 . S
N457 C462 1.315 1_455 S
C458 N457 1.328 . S
C458 C459 1.457 . S
C458 H463 0.929 . S
C459 C458 1.457 . S
C459 C460 1.291 1_455 S
C459 H472 0.931 . S
C460 C459 1.291 1_655 S
C460 C461 1.373 . S
C460 H473 0.929 . S
C461 C460 1.373 . S
C461 C462 1.398 . S
C461 C468 1.403 . S
C462 C452 1.477 . S
C462 N457 1.315 1_655 S
C462 C461 1.398 . S
H463 C458 0.929 . S
O464 Mn440 2.385 . S
O464 C442 1.234 . S
O465 Mn440 2.209 . S
O465 Mn441 2.215 . S
O465 C442 1.283 . S
O466 Mn440 2.094 . S
O466 C444 1.240 . S
O467 Mn441 2.117 . S
O467 C444 1.264 . S
C468 C461 1.403 . S
C468 C469 1.399 . S
C468 H474 0.929 . S
C469 C449 1.449 . S
C469 C468 1.399 . S
C469 H475 0.930 . S
H470 C450 0.931 . S
H471 C451 0.930 . S
H472 C459 0.931 . S
H473 C460 0.929 . S
H474 C468 0.929 . S
H475 C469 0.930 . S
Mn476 O481 2.095 . S
Mn476 O491 2.162 . S
Mn476 O492 2.297 . S
Mn476 O500 2.385 . S
Mn476 O501 2.209 . S
Mn476 O502 2.094 . S
Mn477 O482 2.121 . S
Mn477 N484 2.257 . S
Mn477 N493 2.282 . S
Mn477 O501 2.215 . S
Mn477 O503 2.117 . S
C478 O500 1.234 . S
C478 O501 1.283 . S
C479 O491 1.281 . S
C479 O492 1.236 . S
C480 O502 1.240 . S
C480 O503 1.264 . S
O481 Mn476 2.095 . S
O481 C490 1.250 . S
O482 Mn477 2.121 . S
O482 C490 1.258 . S
C483 N484 1.326 . S
C483 C487 1.460 . S
C483 H489 0.929 . S
N484 Mn477 2.257 . S
N484 C483 1.326 . S
N484 C488 1.362 . S
C485 C486 1.258 . S
C485 C488 1.431 . S
C485 C505 1.449 . S
C486 C485 1.258 . S
C486 C487 1.477 . S
C486 H506 0.931 . S
C487 C483 1.460 . S
C487 C486 1.477 . S
C487 H507 0.930 . S
C488 N484 1.362 . S
C488 C485 1.431 . S
C488 C498 1.476 . S
H489 C483 0.929 . S
C490 O481 1.250 . S
C490 O482 1.258 . S
O491 Mn476 2.162 . S
O491 C479 1.281 . S
O492 Mn476 2.297 . S
O492 C479 1.236 . S
N493 Mn477 2.282 . S
N493 C494 1.328 . S
N493 C498 1.318 . S
C494 N493 1.328 . S
C494 C495 1.457 . S
C494 H499 0.929 . S
C495 C494 1.457 . S
C495 C496 1.291 . S
C495 H508 0.931 . S
C496 C495 1.291 . S
C496 C497 1.373 . S
C496 H509 0.929 . S
C497 C496 1.373 . S
C497 C498 1.396 . S
C497 C504 1.403 . S
C498 C488 1.476 . S
C498 N493 1.318 . S
C498 C497 1.396 . S
H499 C494 0.929 . S
O500 Mn476 2.385 . S
O500 C478 1.234 . S
O501 Mn476 2.209 . S
O501 Mn477 2.215 . S
O501 C478 1.283 . S
O502 Mn476 2.094 . S
O502 C480 1.240 . S
O503 Mn477 2.117 . S
O503 C480 1.264 . S
C504 C497 1.403 . S
C504 C505 1.399 . S
C504 H510 0.929 . S
C505 C485 1.449 . S
C505 C504 1.399 . S
C505 H511 0.930 . S
H506 C486 0.931 . S
H507 C487 0.930 . S
H508 C495 0.931 . S
H509 C496 0.929 . S
H510 C504 0.929 . S
H511 C505 0.930 . S
Mn512 O517 2.095 . S
Mn512 O527 2.162 . S
Mn512 O528 2.297 . S
Mn512 O536 2.385 . S
Mn512 O537 2.209 . S
Mn512 O538 2.094 . S
Mn513 O518 2.121 . S
Mn513 N520 2.257 . S
Mn513 N529 2.282 . S
Mn513 O537 2.215 . S
Mn513 O539 2.117 . S
C514 O536 1.234 . S
C514 O537 1.283 . S
C515 O527 1.281 . S
C515 O528 1.236 . S
C516 O538 1.240 . S
C516 O539 1.264 . S
O517 Mn512 2.095 . S
O517 C526 1.250 . S
O518 Mn513 2.121 . S
O518 C526 1.258 . S
C519 N520 1.326 . S
C519 C523 1.460 1_545 S
C519 H525 0.929 . S
N520 Mn513 2.257 . S
N520 C519 1.326 . S
N520 C524 1.362 1_545 S
C521 C522 1.258 . S
C521 C524 1.431 . S
C521 C541 1.449 . S
C522 C521 1.258 . S
C522 C523 1.477 . S
C522 H542 0.931 . S
C523 C519 1.460 1_565 S
C523 C522 1.477 . S
C523 H543 0.931 1_655 S
C524 N520 1.362 1_565 S
C524 C521 1.431 . S
C524 C534 1.476 . S
H525 C519 0.929 . S
C526 O517 1.250 . S
C526 O518 1.258 . S
O527 Mn512 2.162 . S
O527 C515 1.281 . S
O528 Mn512 2.297 . S
O528 C515 1.236 . S
N529 Mn513 2.282 . S
N529 C530 1.328 . S
N529 C534 1.318 1_545 S
C530 N529 1.328 . S
C530 C531 1.457 . S
C530 H535 0.929 . S
C531 C530 1.457 . S
C531 C532 1.291 1_545 S
C531 H544 0.931 . S
C532 C531 1.291 1_565 S
C532 C533 1.373 . S
C532 H545 0.929 . S
C533 C532 1.373 . S
C533 C534 1.396 . S
C533 C540 1.403 . S
C534 C524 1.476 . S
C534 N529 1.318 1_565 S
C534 C533 1.396 . S
H535 C530 0.929 . S
O536 Mn512 2.385 . S
O536 C514 1.234 . S
O537 Mn512 2.209 . S
O537 Mn513 2.215 . S
O537 C514 1.283 . S
O538 Mn512 2.094 . S
O538 C516 1.240 . S
O539 Mn513 2.117 . S
O539 C516 1.264 . S
C540 C533 1.403 . S
C540 C541 1.399 . S
C540 H546 0.929 . S
C541 C521 1.449 . S
C541 C540 1.399 . S
C541 H547 0.930 . S
H542 C522 0.931 . S
H543 C523 0.931 1_455 S
H544 C531 0.931 . S
H545 C532 0.929 . S
H546 C540 0.929 . S
H547 C541 0.930 . S
Mn548 O553 2.095 . S
Mn548 O563 2.162 . S
Mn548 O564 2.297 . S
Mn548 O572 2.385 . S
Mn548 O573 2.209 . S
Mn548 O574 2.094 . S
Mn549 O554 2.121 . S
Mn549 N556 2.257 1_655 S
Mn549 N565 2.282 1_655 S
Mn549 O573 2.215 . S
Mn549 O575 2.117 . S
C550 O572 1.234 . S
C550 O573 1.283 . S
C551 O563 1.281 . S
C551 O564 1.236 . S
C552 O574 1.240 . S
C552 O575 1.264 . S
O553 Mn548 2.095 . S
O553 C562 1.250 . S
O554 Mn549 2.121 . S
O554 C562 1.258 . S
C555 N556 1.326 . S
C555 C559 1.460 . S
C555 H561 0.929 . S
N556 Mn549 2.257 1_455 S
N556 C555 1.326 . S
N556 C560 1.362 . S
C557 C558 1.258 . S
C557 C560 1.431 . S
C557 C577 1.449 . S
C558 C557 1.258 . S
C558 C559 1.477 . S
C558 H578 0.931 . S
C559 C555 1.460 . S
C559 C558 1.477 . S
C559 H579 0.930 . S
C560 N556 1.362 . S
C560 C557 1.431 . S
C560 C570 1.476 . S
H561 C555 0.929 . S
C562 O553 1.250 . S
C562 O554 1.258 . S
O563 Mn548 2.162 . S
O563 C551 1.281 . S
O564 Mn548 2.297 . S
O564 C551 1.236 . S
N565 Mn549 2.282 1_455 S
N565 C566 1.328 . S
N565 C570 1.318 . S
C566 N565 1.328 . S
C566 C567 1.457 . S
C566 H571 0.929 1_455 S
C567 C566 1.457 . S
C567 C568 1.291 . S
C567 H580 0.931 . S
C568 C567 1.291 . S
C568 C569 1.373 . S
C568 H581 0.929 . S
C569 C568 1.373 . S
C569 C570 1.396 . S
C569 C576 1.403 . S
C570 C560 1.476 . S
C570 N565 1.318 . S
C570 C569 1.396 . S
H571 C566 0.929 1_655 S
O572 Mn548 2.385 . S
O572 C550 1.234 . S
O573 Mn548 2.209 . S
O573 Mn549 2.215 . S
O573 C550 1.283 . S
O574 Mn548 2.094 . S
O574 C552 1.240 . S
O575 Mn549 2.117 . S
O575 C552 1.264 . S
C576 C569 1.403 . S
C576 C577 1.399 . S
C576 H582 0.929 . S
C577 C557 1.449 . S
C577 C576 1.399 . S
C577 H583 0.930 . S
H578 C558 0.931 . S
H579 C559 0.930 . S
H580 C567 0.931 . S
H581 C568 0.929 . S
H582 C576 0.929 . S
H583 C577 0.930 . S
Mn584 O589 2.095 . S
Mn584 O599 2.162 . S
Mn584 O600 2.297 1_554 S
Mn584 O608 2.385 1_554 S
Mn584 O609 2.209 1_554 S
Mn584 O610 2.094 . S
Mn585 O590 2.121 . S
Mn585 N592 2.258 . S
Mn585 N601 2.282 1_554 S
Mn585 O609 2.215 1_554 S
Mn585 O611 2.117 . S
C586 O608 1.234 . S
C586 O609 1.283 . S
C587 O599 1.281 1_556 S
C587 O600 1.236 . S
C588 O610 1.240 . S
C588 O611 1.264 . S
O589 Mn584 2.095 . S
O589 C598 1.250 . S
O590 Mn585 2.121 . S
O590 C598 1.258 . S
C591 N592 1.328 . S
C591 C595 1.460 . S
C591 H597 0.929 . S
N592 Mn585 2.258 . S
N592 C591 1.328 . S
N592 C596 1.359 1_554 S
C593 C594 1.258 . S
C593 C596 1.431 . S
C593 C613 1.449 . S
C594 C593 1.258 . S
C594 C595 1.477 1_556 S
C594 H614 0.931 . S
C595 C591 1.460 . S
C595 C594 1.477 1_554 S
C595 H615 0.930 . S
C596 N592 1.359 1_556 S
C596 C593 1.431 . S
C596 C606 1.476 . S
H597 C591 0.929 . S
C598 O589 1.250 . S
C598 O590 1.258 . S
O599 Mn584 2.162 . S
O599 C587 1.281 1_554 S
O600 Mn584 2.297 1_556 S
O600 C587 1.236 . S
N601 Mn585 2.282 1_556 S
N601 C602 1.328 . S
N601 C606 1.318 . S
C602 N601 1.328 . S
C602 C603 1.457 . S
C602 H607 0.929 . S
C603 C602 1.457 . S
C603 C604 1.291 . S
C603 H616 0.931 . S
C604 C603 1.291 . S
C604 C605 1.373 . S
C604 H617 0.929 . S
C605 C604 1.373 . S
C605 C606 1.396 . S
C605 C612 1.403 . S
C606 C596 1.476 . S
C606 N601 1.318 . S
C606 C605 1.396 . S
H607 C602 0.929 . S
O608 Mn584 2.385 1_556 S
O608 C586 1.234 . S
O609 Mn584 2.209 1_556 S
O609 Mn585 2.215 1_556 S
O609 C586 1.283 . S
O610 Mn584 2.094 . S
O610 C588 1.240 . S
O611 Mn585 2.117 . S
O611 C588 1.264 . S
C612 C605 1.403 . S
C612 C613 1.399 . S
C612 H618 0.929 . S
C613 C593 1.449 . S
C613 C612 1.399 . S
C613 H619 0.930 . S
H614 C594 0.931 . S
H615 C595 0.930 . S
H616 C603 0.931 . S
H617 C604 0.929 . S
H618 C612 0.929 . S
H619 C613 0.930 . S
Mn620 O625 2.095 . S
Mn620 O635 2.162 . S
Mn620 O636 2.297 . S
Mn620 O644 2.385 . S
Mn620 O645 2.209 . S
Mn620 O646 2.094 . S
Mn621 O626 2.121 . S
Mn621 N628 2.257 . S
Mn621 N637 2.282 . S
Mn621 O645 2.215 . S
Mn621 O647 2.117 . S
C622 O644 1.234 . S
C622 O645 1.283 . S
C623 O635 1.281 . S
C623 O636 1.236 . S
C624 O646 1.240 . S
C624 O647 1.264 . S
O625 Mn620 2.095 . S
O625 C634 1.250 . S
O626 Mn621 2.121 . S
O626 C634 1.258 . S
C627 N628 1.326 . S
C627 C631 1.460 . S
C627 H633 0.929 . S
N628 Mn621 2.257 . S
N628 C627 1.326 . S
N628 C632 1.362 . S
C629 C630 1.258 . S
C629 C632 1.431 1_565 S
C629 C649 1.449 . S
C630 C629 1.258 . S
C630 C631 1.477 1_565 S
C630 H650 0.931 . S
C631 C627 1.460 . S
C631 C630 1.477 1_545 S
C631 H651 0.930 . S
C632 N628 1.362 . S
C632 C629 1.431 1_545 S
C632 C642 1.476 . S
H633 C627 0.929 . S
C634 O625 1.250 . S
C634 O626 1.258 . S
O635 Mn620 2.162 . S
O635 C623 1.281 . S
O636 Mn620 2.297 . S
O636 C623 1.236 . S
N637 Mn621 2.282 . S
N637 C638 1.328 . S
N637 C642 1.318 . S
C638 N637 1.328 . S
C638 C639 1.457 . S
C638 H643 0.929 . S
C639 C638 1.457 . S
C639 C640 1.291 1_545 S
C639 H652 0.931 . S
C640 C639 1.291 1_565 S
C640 C641 1.373 . S
C640 H653 0.929 . S
C641 C640 1.373 . S
C641 C642 1.396 1_565 S
C641 C648 1.403 . S
C642 C632 1.476 . S
C642 N637 1.318 . S
C642 C641 1.396 1_545 S
H643 C638 0.929 . S
O644 Mn620 2.385 . S
O644 C622 1.234 . S
O645 Mn620 2.209 . S
O645 Mn621 2.215 . S
O645 C622 1.283 . S
O646 Mn620 2.094 . S
O646 C624 1.240 . S
O647 Mn621 2.117 . S
O647 C624 1.264 . S
C648 C641 1.403 . S
C648 C649 1.399 . S
C648 H654 0.929 . S
C649 C629 1.449 . S
C649 C648 1.399 . S
C649 H655 0.930 . S
H650 C630 0.931 . S
H651 C631 0.930 . S
H652 C639 0.931 . S
H653 C640 0.929 . S
H654 C648 0.929 . S
H655 C649 0.930 . S
C407 C8 1.652 . S
C444 C61 1.588 . S
C480 C107 1.659 . S
C139 C371 1.722 . S
C192 C372 1.671 . S
C238 C408 1.631 . S
C443 C284 1.687 . S
C479 C330 1.723 . S
C100 C551 1.687 . S
C588 C160 1.642 . S
C15 C624 1.679 . S
C515 C54 1.723 . S
C291 C516 1.659 . S
C337 C552 1.588 . S
C587 C199 1.627 1_556 S
C245 C623 1.696 . S
C442 C1 1.885 . S
C478 C68 1.844 . S
C114 C382 1.558 . S
C146 C418 1.593 . S
C185 C490 1.938 . S
C370 C231 2.337 . S
C406 C277 2.333 . S
C454 C323 1.939 . S
C586 C93 2.332 . S
C622 C153 2.286 . S
C22 C526 1.895 . S
C562 C47 1.939 . S
C634 C298 1.558 . S
C344 C514 1.844 . S
C550 C206 1.861 . S
C598 C252 1.581 . S
