# Generated by pormake.
# Topology nom, (4,4)-cn, num edge types: 1
# Building blocks:
#     Node 0, Type 0, BuildingBlock: MIFKUJ_clean_linker_1, # of connection points: 4
#     Node 1, Type 0, BuildingBlock: MIFKUJ_clean_linker_1, # of connection points: 4
#     Node 2, Type 0, BuildingBlock: MIFKUJ_clean_linker_1, # of connection points: 4
#     Node 3, Type 0, BuildingBlock: MIFKUJ_clean_linker_1, # of connection points: 4
#     Node 4, Type 0, BuildingBlock: MIFKUJ_clean_linker_1, # of connection points: 4
#     Node 5, Type 0, BuildingBlock: MIFKUJ_clean_linker_1, # of connection points: 4
#     Node 6, Type 1, BuildingBlock: GALJAG_clean_sbu_0, # of connection points: 4
#     Node 7, Type 1, BuildingBlock: GALJAG_clean_sbu_0, # of connection points: 4
#     Node 8, Type 1, BuildingBlock: GALJAG_clean_sbu_0, # of connection points: 4
#     Node 9, Type 1, BuildingBlock: GALJAG_clean_sbu_0, # of connection points: 4
#     Node 10, Type 1, BuildingBlock: GALJAG_clean_sbu_0, # of connection points: 4
#     Node 11, Type 1, BuildingBlock: GALJAG_clean_sbu_0, # of connection points: 4
#     Edge 12, Type (0, 1), BuildingBlock: UVAHIK_clean_linker_0, # of connection points: 2
#     Edge 13, Type (0, 1), BuildingBlock: UVAHIK_clean_linker_0, # of connection points: 2
#     Edge 14, Type (0, 1), BuildingBlock: UVAHIK_clean_linker_0, # of connection points: 2
#     Edge 15, Type (0, 1), BuildingBlock: UVAHIK_clean_linker_0, # of connection points: 2
#     Edge 16, Type (0, 1), BuildingBlock: UVAHIK_clean_linker_0, # of connection points: 2
#     Edge 17, Type (0, 1), BuildingBlock: UVAHIK_clean_linker_0, # of connection points: 2
#     Edge 18, Type (0, 1), BuildingBlock: UVAHIK_clean_linker_0, # of connection points: 2
#     Edge 19, Type (0, 1), BuildingBlock: UVAHIK_clean_linker_0, # of connection points: 2
#     Edge 20, Type (0, 1), BuildingBlock: UVAHIK_clean_linker_0, # of connection points: 2
#     Edge 21, Type (0, 1), BuildingBlock: UVAHIK_clean_linker_0, # of connection points: 2
#     Edge 22, Type (0, 1), BuildingBlock: UVAHIK_clean_linker_0, # of connection points: 2
#     Edge 23, Type (0, 1), BuildingBlock: UVAHIK_clean_linker_0, # of connection points: 2
#     Edge 24, Type (0, 1), BuildingBlock: UVAHIK_clean_linker_0, # of connection points: 2
#     Edge 25, Type (0, 1), BuildingBlock: UVAHIK_clean_linker_0, # of connection points: 2
#     Edge 26, Type (0, 1), BuildingBlock: UVAHIK_clean_linker_0, # of connection points: 2
#     Edge 27, Type (0, 1), BuildingBlock: UVAHIK_clean_linker_0, # of connection points: 2
#     Edge 28, Type (0, 1), BuildingBlock: UVAHIK_clean_linker_0, # of connection points: 2
#     Edge 29, Type (0, 1), BuildingBlock: UVAHIK_clean_linker_0, # of connection points: 2
#     Edge 30, Type (0, 1), BuildingBlock: UVAHIK_clean_linker_0, # of connection points: 2
#     Edge 31, Type (0, 1), BuildingBlock: UVAHIK_clean_linker_0, # of connection points: 2
#     Edge 32, Type (0, 1), BuildingBlock: UVAHIK_clean_linker_0, # of connection points: 2
#     Edge 33, Type (0, 1), BuildingBlock: UVAHIK_clean_linker_0, # of connection points: 2
#     Edge 34, Type (0, 1), BuildingBlock: UVAHIK_clean_linker_0, # of connection points: 2
#     Edge 35, Type (0, 1), BuildingBlock: UVAHIK_clean_linker_0, # of connection points: 2
# Relax obj value: 0.004
# Max RMSD: 0.109
# Mean RMSD: 0.081
data_MOF--net-nom--node1-GALJAG_clean_sbu_0--node2-MIFKUJ_clean_linker_1--edge1-UVAHIK_clean_linker_0
_symmetry_space_group_name_H-M    P1
_symmetry_Int_Tables_number       1
_symmetry_cell_setting            triclinic
loop_
_symmetry_equiv_pos_as_xyz
'x, y, z'
_cell_length_a     66.122074
_cell_length_b     66.039693
_cell_length_c     72.56905
_cell_angle_alpha  90.02535
_cell_angle_beta   89.999776
_cell_angle_gamma 120.09179
loop_
_atom_site_label
_atom_site_type_symbol
_atom_site_fract_x
_atom_site_fract_y
_atom_site_fract_z
_atom_type_partial_charge
H0 H -0.00217 0.5213 0.28604 0.0
H1 H 0.97078 0.50264 0.26047 0.0
H2 H 0.93173 0.53585 0.2774 0.0
H3 H 0.95917 0.55486 0.30295 0.0
H4 H 0.0265 0.56663 0.29322 0.0
H5 H 0.95743 0.50213 0.3239 0.0
H6 H 0.91634 0.48163 0.33342 0.0
H7 H 0.92646 0.54506 0.35926 0.0
H8 H 0.96743 0.56525 0.34989 0.0
H9 H 0.03301 0.59258 0.37192 0.0
H10 H 0.05874 0.60056 0.39831 0.0
H11 H 0.09435 0.57039 0.36909 0.0
H12 H 0.06748 0.56096 0.34335 0.0
H13 H 0.00182 0.55426 0.35868 0.0
H14 H 0.06986 0.61746 0.33385 0.0
H15 H 0.11055 0.64217 0.32425 0.0
H16 H 0.10302 0.58871 0.28602 0.0
H17 H 0.06258 0.56366 0.29606 0.0
C18 C 0.98047 0.53937 0.29649 0.0
C19 C 0.98352 0.52469 0.28422 0.0
C20 C 0.96807 0.51406 0.26959 0.0
C21 C 0.94918 0.51784 0.26691 0.0
C22 C 0.94602 0.53246 0.27925 0.0
C23 C 0.96166 0.5433 0.29384 0.0
C24 C 0.99733 0.55057 0.31185 0.0
C25 C 0.02121 0.56375 0.30758 0.0
C26 C 0.99028 0.54792 0.3305 0.0
C27 C 0.96539 0.53524 0.33608 0.0
C28 C 0.95071 0.51159 0.33154 0.0
C29 C 0.92725 0.49994 0.33696 0.0
C30 C 0.91814 0.51171 0.34713 0.0
C31 C 0.93299 0.53537 0.3517 0.0
C32 C 0.95638 0.54698 0.34629 0.0
C33 C 0.04834 0.57631 0.35553 0.0
C34 C 0.04635 0.58766 0.37121 0.0
C35 C 0.06129 0.59245 0.38624 0.0
C36 C 0.0787 0.58613 0.38591 0.0
C37 C 0.08096 0.5752 0.37001 0.0
C38 C 0.0658 0.57012 0.3551 0.0
C39 C 0.03128 0.56957 0.34015 0.0
C40 C 0.00733 0.55734 0.34438 0.0
C41 C 0.03831 0.5736 0.32143 0.0
C42 C 0.06315 0.58854 0.31585 0.0
C43 C 0.07704 0.61085 0.32363 0.0
C44 C 0.10025 0.62501 0.31809 0.0
C45 C 0.10986 0.61732 0.30439 0.0
C46 C 0.09594 0.59512 0.29649 0.0
C47 C 0.07286 0.58082 0.30223 0.0
H48 H 0.41621 0.96976 0.51654 0.0
H49 H 0.39452 0.92875 0.52588 0.0
H50 H 0.44694 0.91722 0.50027 0.0
H51 H 0.46843 0.95834 0.49075 0.0
H52 H 0.46138 0.00313 0.52585 0.0
H53 H 0.41897 0.96156 0.47038 0.0
H54 H 0.40932 0.93478 0.44414 0.0
H55 H 0.48074 0.97428 0.42534 0.0
H56 H 0.49068 0.00027 0.45191 0.0
H57 H 0.52053 0.06495 0.46832 0.0
H58 H 0.53872 0.10598 0.45878 0.0
H59 H 0.48566 0.11267 0.48833 0.0
H60 H 0.46752 0.0716 0.49785 0.0
H61 H 0.47721 0.02927 0.46078 0.0
H62 H 0.52263 0.06757 0.51207 0.0
H63 H 0.53991 0.09409 0.53803 0.0
H64 H 0.47275 0.06089 0.56538 0.0
H65 H 0.45521 0.03552 0.53869 0.0
C66 C 0.44382 0.96704 0.50285 0.0
C67 C 0.42303 0.95839 0.51295 0.0
C68 C 0.41071 0.93497 0.51835 0.0
C69 C 0.41904 0.91972 0.51388 0.0
C70 C 0.43991 0.92844 0.50374 0.0
C71 C 0.45223 0.95192 0.49832 0.0
C72 C 0.45681 0.99205 0.49752 0.0
C73 C 0.46453 0.00888 0.5116 0.0
C74 C 0.46202 -0.00056 0.47895 0.0
C75 C 0.45565 0.98281 0.4633 0.0
C76 C 0.43267 0.9642 0.46083 0.0
C77 C 0.42712 0.949 0.44582 0.0
C78 C 0.44431 0.95261 0.43278 0.0
C79 C 0.46717 0.97129 0.43516 0.0
C80 C 0.47282 0.98612 0.45032 0.0
C81 C 0.49275 0.0653 0.48384 0.0
C82 C 0.51287 0.07529 0.47278 0.0
C83 C 0.5233 0.09872 0.46744 0.0
C84 C 0.51357 0.11245 0.47283 0.0
C85 C 0.49341 0.10241 0.4839 0.0
C86 C 0.48314 0.07904 0.48942 0.0
C87 C 0.48138 0.04028 0.48908 0.0
C88 C 0.47395 0.0235 0.47502 0.0
C89 C 0.47726 0.03293 0.50767 0.0
C90 C 0.48749 0.04975 0.52322 0.0
C91 C 0.51145 0.06639 0.52342 0.0
C92 C 0.52143 0.08131 0.53848 0.0
C93 C 0.5078 0.0796 0.55393 0.0
C94 C 0.48376 0.06299 0.55366 0.0
C95 C 0.47371 0.04828 0.53845 0.0
H96 H 0.49289 0.5095 0.70033 0.0
H97 H 0.48164 0.52394 0.72715 0.0
H98 H 0.41061 0.49073 0.70728 0.0
H99 H 0.42162 0.47521 0.68074 0.0
H100 H 0.48055 0.46747 0.69039 0.0
H101 H 0.46845 0.52878 0.66421 0.0
H102 H 0.44527 0.54679 0.65584 0.0
H103 H 0.40119 0.48684 0.62172 0.0
H104 H 0.42327 0.4683 0.63128 0.0
H105 H 0.46044 0.44164 0.61236 0.0
H106 H 0.47805 0.43375 0.58578 0.0
H107 H 0.54521 0.46837 0.61314 0.0
H108 H 0.52779 0.47749 0.63908 0.0
H109 H 0.46677 0.4805 0.62547 0.0
H110 H 0.47277 0.41743 0.65218 0.0
H111 H 0.49061 0.39442 0.66162 0.0
H112 H 0.54298 0.45382 0.69232 0.0
H113 H 0.52451 0.47637 0.6833 0.0
C114 C 0.45818 0.49143 0.68838 0.0
C115 C 0.47483 0.50512 0.70176 0.0
C116 C 0.46843 0.51338 0.71706 0.0
C117 C 0.4453 0.50841 0.7192 0.0
C118 C 0.42859 0.49489 0.70581 0.0
C119 C 0.4349 0.48615 0.69063 0.0
C120 C 0.46546 0.48239 0.67247 0.0
C121 C 0.47771 0.47057 0.67619 0.0
C122 C 0.46086 0.48543 0.65389 0.0
C123 C 0.44735 0.49697 0.64866 0.0
C124 C 0.45353 0.51937 0.65519 0.0
C125 C 0.44042 0.52979 0.65016 0.0
C126 C 0.42118 0.51827 0.63815 0.0
C127 C 0.41546 0.49606 0.63134 0.0
C128 C 0.42829 0.48552 0.63662 0.0
C129 C 0.49269 0.45995 0.62784 0.0
C130 C 0.47896 0.44754 0.61261 0.0
C131 C 0.48904 0.44284 0.59748 0.0
C132 C 0.51309 0.45038 0.59728 0.0
C133 C 0.52672 0.46255 0.61267 0.0
C134 C 0.51668 0.46746 0.62769 0.0
C135 C 0.48226 0.46611 0.64346 0.0
C136 C 0.46946 0.47733 0.63969 0.0
C137 C 0.48588 0.46216 0.66199 0.0
C138 C 0.49737 0.4486 0.66701 0.0
C139 C 0.48819 0.42549 0.66085 0.0
C140 C 0.49848 0.41241 0.66621 0.0
C141 C 0.51825 0.42223 0.67777 0.0
C142 C 0.52754 0.44553 0.6837 0.0
C143 C 0.5171 0.45851 0.67848 0.0
H144 H 0.03647 0.51952 0.78959 0.0
H145 H 0.06423 0.53746 0.76426 0.0
H146 H 0.09266 0.49249 0.77592 0.0
H147 H 0.06453 0.47434 0.80117 0.0
H148 H 0.00222 0.47248 0.7935 0.0
H149 H 0.07292 0.5304 0.82609 0.0
H150 H 0.11361 0.54802 0.83617 0.0
H151 H 0.09904 0.48139 0.85858 0.0
H152 H 0.05839 0.46403 0.84866 0.0
H153 H 0.99253 0.43844 0.87038 0.0
H154 H 0.96646 0.42977 0.8967 0.0
H155 H 0.93573 0.46668 0.87034 0.0
H156 H 0.96287 0.47663 0.84477 0.0
H157 H 0.02596 0.4769 0.85888 0.0
H158 H 0.95886 0.41785 0.82928 0.0
H159 H 0.91817 0.39502 0.81946 0.0
H160 H 0.92482 0.45563 0.79106 0.0
H161 H 0.96578 0.47816 0.80054 0.0
C162 C 0.04852 0.4957 0.79729 0.0
C163 C 0.04871 0.51356 0.7867 0.0
C164 C 0.0647 0.52391 0.77234 0.0
C165 C 0.08069 0.51645 0.76816 0.0
C166 C 0.08046 0.4985 0.77877 0.0
C167 C 0.06452 0.48824 0.79325 0.0
C168 C 0.0312 0.48474 0.81231 0.0
C169 C 0.00737 0.47363 0.80783 0.0
C170 C 0.03792 0.48512 0.83086 0.0
C171 C 0.06271 0.49587 0.8365 0.0
C172 C 0.07858 0.51958 0.83304 0.0
C173 C 0.10182 0.5296 0.83878 0.0
C174 C 0.10957 0.5161 0.84819 0.0
C175 C 0.09358 0.49235 0.85162 0.0
C176 C 0.07037 0.48237 0.84588 0.0
C177 C 0.97959 0.45802 0.85546 0.0
C178 C 0.98016 0.44465 0.87028 0.0
C179 C 0.96506 0.43951 0.88526 0.0
C180 C 0.94896 0.44755 0.88571 0.0
C181 C 0.94811 0.4605 0.87065 0.0
C182 C 0.9634 0.46588 0.85581 0.0
C183 C 0.99683 0.46511 0.84019 0.0
C184 C 0.02067 0.47549 0.84457 0.0
C185 C 0.99011 0.46333 0.82148 0.0
C186 C 0.96528 0.44974 0.81574 0.0
C187 C 0.95149 0.42624 0.82101 0.0
C188 C 0.92819 0.41323 0.81544 0.0
C189 C 0.91814 0.42349 0.80451 0.0
C190 C 0.93206 0.44707 0.79924 0.0
C191 C 0.95544 0.46002 0.80471 0.0
H192 H 0.61263 0.05988 0.015 0.0
H193 H 0.63603 0.10081 0.02445 0.0
H194 H 0.58183 0.11374 0.00474 0.0
H195 H 0.55867 0.07284 0.99513 0.0
H196 H 0.56844 0.02665 0.02672 0.0
H197 H 0.60513 0.0644 0.96766 0.0
H198 H 0.61365 0.09116 0.94169 0.0
H199 H 0.53956 0.06382 0.93392 0.0
H200 H 0.53128 0.03681 0.9595 0.0
H201 H 0.50165 0.96622 0.97108 0.0
H202 H 0.4828 0.92546 0.96059 0.0
H203 H 0.53815 0.91826 0.98559 0.0
H204 H 0.55698 0.95898 0.99589 0.0
H205 H 0.54363 0.00231 0.9621 0.0
H206 H 0.50387 0.96706 0.01632 0.0
H207 H 0.48803 0.94034 0.04235 0.0
H208 H 0.55823 0.96262 0.06107 0.0
H209 H 0.57395 0.98985 0.03509 0.0
C210 C 0.58404 0.06339 0.00421 0.0
C211 C 0.60583 0.07157 0.01271 0.0
C212 C 0.61912 0.09494 0.01818 0.0
C213 C 0.6108 0.11056 0.01536 0.0
C214 C 0.58892 0.10227 0.00685 0.0
C215 C 0.57564 0.0789 0.00137 0.0
C216 C 0.56989 0.03846 0.99882 0.0
C217 C 0.56338 0.02131 0.01253 0.0
C218 C 0.5621 0.03154 0.98052 0.0
C219 C 0.56758 0.04865 0.96547 0.0
C220 C 0.59078 0.06434 0.9604 0.0
C221 C 0.5956 0.07967 0.9456 0.0
C222 C 0.57728 0.07956 0.93563 0.0
C223 C 0.55409 0.06407 0.94103 0.0
C224 C 0.54931 0.0487 0.95571 0.0
C225 C 0.53064 0.96557 0.98433 0.0
C226 C 0.50964 0.9558 0.97435 0.0
C227 C 0.49885 0.93253 0.96846 0.0
C228 C 0.50907 0.91875 0.97225 0.0
C229 C 0.53001 0.92854 0.98235 0.0
C230 C 0.54067 0.95172 0.98836 0.0
C231 C 0.54272 0.99052 0.9899 0.0
C232 C 0.54882 0.00764 0.97627 0.0
C233 C 0.54937 0.99745 0.00837 0.0
C234 C 0.54009 0.98031 0.02369 0.0
C235 C 0.51586 0.96598 0.0259 0.0
C236 C 0.50682 0.95063 0.04079 0.0
C237 C 0.52183 0.94923 0.05382 0.0
C238 C 0.54615 0.96345 0.05144 0.0
C239 C 0.55519 0.97894 0.03656 0.0
H240 H 0.53621 0.51476 0.19332 0.0
H241 H 0.54619 0.49729 0.21887 0.0
H242 H 0.6196 0.54471 0.20874 0.0
H243 H 0.60943 0.56232 0.18317 0.0
H244 H 0.54807 0.56186 0.18989 0.0
H245 H 0.56469 0.50597 0.15897 0.0
H246 H 0.58956 0.49016 0.14968 0.0
H247 H 0.63693 0.55589 0.12327 0.0
H248 H 0.61264 0.57191 0.13343 0.0
H249 H 0.57229 0.59622 0.11316 0.0
H250 H 0.55467 0.60458 0.08683 0.0
H251 H 0.48683 0.56605 0.11278 0.0
H252 H 0.5043 0.55651 0.13841 0.0
H253 H 0.5681 0.55807 0.12461 0.0
H254 H 0.55794 0.61593 0.15393 0.0
H255 H 0.5396 0.63815 0.16438 0.0
H256 H 0.48752 0.57734 0.19375 0.0
H257 H 0.5058 0.55509 0.18307 0.0
C258 C 0.57208 0.53973 0.18633 0.0
C259 C 0.55445 0.52135 0.19658 0.0
C260 C 0.56018 0.51129 0.21107 0.0
C261 C 0.58368 0.51957 0.21573 0.0
C262 C 0.60135 0.53806 0.20549 0.0
C263 C 0.59559 0.54803 0.19085 0.0
C264 C 0.56553 0.55035 0.1712 0.0
C265 C 0.55224 0.56085 0.17558 0.0
C266 C 0.57209 0.55014 0.15268 0.0
C267 C 0.58698 0.54025 0.14714 0.0
C268 C 0.58063 0.51708 0.15144 0.0
C269 C 0.59473 0.50797 0.14591 0.0
C270 C 0.6153 0.52176 0.13574 0.0
C271 C 0.62147 0.5449 0.13135 0.0
C272 C 0.60746 0.55402 0.137 0.0
C273 C 0.53971 0.5759 0.1279 0.0
C274 C 0.55362 0.58958 0.11317 0.0
C275 C 0.54352 0.59454 0.09819 0.0
C276 C 0.51928 0.58598 0.09763 0.0
C277 C 0.50548 0.57266 0.11258 0.0
C278 C 0.51554 0.5675 0.12743 0.0
C279 C 0.55007 0.56913 0.14321 0.0
C280 C 0.56406 0.55933 0.13891 0.0
C281 C 0.54491 0.57074 0.16189 0.0
C282 C 0.53315 0.58382 0.16763 0.0
C283 C 0.54243 0.60731 0.16246 0.0
C284 C 0.53207 0.62004 0.16856 0.0
C285 C 0.51217 0.60948 0.17991 0.0
C286 C 0.50273 0.58587 0.18489 0.0
C287 C 0.51322 0.57319 0.1789 0.0
In288 In 0.63137 0.39743 0.40635 0.0
O289 O 0.67029 0.41811 0.41334 0.0
O290 O 0.66007 0.39902 0.38816 0.0
C291 C 0.61396 0.40855 0.43586 0.0
C292 C 0.62096 0.41621 0.37738 0.0
C293 C 0.61477 0.35165 0.41328 0.0
O294 O 0.63558 0.41883 0.43242 0.0
O295 O 0.60131 0.39304 0.42435 0.0
O296 O 0.60476 0.35868 0.40232 0.0
O297 O 0.63325 0.36767 0.42052 0.0
C298 C 0.67658 0.41238 0.39873 0.0
O299 O 0.61383 0.3946 0.37858 0.0
O300 O 0.63292 0.42821 0.39092 0.0
In301 In 0.24988 0.63277 0.57594 0.0
O302 O 0.26162 0.60583 0.57222 0.0
O303 O 0.28284 0.63579 0.5886 0.0
C304 C 0.22016 0.62214 0.54728 0.0
C305 C 0.22238 0.61572 0.60612 0.0
C306 C 0.27907 0.67811 0.56779 0.0
O307 O 0.23398 0.61425 0.54866 0.0
O308 O 0.2211 0.63503 0.56046 0.0
O309 O 0.2668 0.67175 0.58228 0.0
O310 O 0.27672 0.66159 0.55756 0.0
C311 C 0.27968 0.61674 0.58206 0.0
O312 O 0.23571 0.63737 0.60354 0.0
O313 O 0.22273 0.60289 0.59344 0.0
In314 In 0.6311 0.2505 0.74447 0.0
O315 O 0.66987 0.26407 0.73922 0.0
O316 O 0.66069 0.2814 0.75943 0.0
C317 C 0.6124 0.22121 0.71547 0.0
C318 C 0.62066 0.22301 0.77463 0.0
C319 C 0.61518 0.27981 0.73625 0.0
O320 O 0.63419 0.23395 0.71765 0.0
O321 O 0.60021 0.223 0.72801 0.0
O322 O 0.60573 0.26405 0.74837 0.0
O323 O 0.63276 0.2809 0.72845 0.0
C324 C 0.67679 0.28021 0.75107 0.0
O325 O 0.61403 0.23778 0.77274 0.0
O326 O 0.6322 0.2219 0.76124 0.0
In327 In 0.39712 0.63427 0.90689 0.0
O328 O 0.35856 0.61109 0.91476 0.0
O329 O 0.3667 0.62966 0.88941 0.0
C330 C 0.41554 0.62509 0.93669 0.0
C331 C 0.40904 0.61689 0.87779 0.0
C332 C 0.41229 0.67991 0.91333 0.0
O333 O 0.39402 0.61323 0.93284 0.0
O334 O 0.42761 0.64128 0.92544 0.0
O335 O 0.42323 0.6732 0.90308 0.0
O336 O 0.39365 0.66363 0.92014 0.0
C337 C 0.35103 0.61574 0.9003 0.0
O338 O 0.4099 0.6364 0.8773 0.0
O339 O 0.4027 0.60643 0.89304 0.0
In340 In 0.77866 0.39794 0.0768 0.0
O341 O 0.7817 0.3972 0.10826 0.0
O342 O 0.81291 0.41607 0.09281 0.0
C343 C 0.74957 0.35212 0.07002 0.0
C344 C 0.7539 0.42022 0.08 0.0
C345 C 0.80665 0.40798 0.04709 0.0
O346 O 0.76299 0.35914 0.08386 0.0
O347 O 0.75069 0.36818 0.0599 0.0
O348 O 0.79566 0.41864 0.05043 0.0
O349 O 0.80372 0.39264 0.0588 0.0
C350 C 0.80364 0.40991 0.10849 0.0
O351 O 0.77574 0.4311 0.07763 0.0
O352 O 0.74463 0.39827 0.0804 0.0
In353 In 0.39753 0.77951 0.24457 0.0
O354 O 0.42539 0.76883 0.24776 0.0
O355 O 0.39412 0.74554 0.2337 0.0
C356 C 0.40836 0.80814 0.27389 0.0
C357 C 0.41566 0.80697 0.2146 0.0
C358 C 0.35128 0.75454 0.25145 0.0
O359 O 0.40994 0.78986 0.2742 0.0
O360 O 0.40174 0.81218 0.25871 0.0
O361 O 0.35933 0.76671 0.23703 0.0
O362 O 0.36647 0.75481 0.2621 0.0
C363 C 0.4139 0.74973 0.23924 0.0
O364 O 0.39485 0.79015 0.21506 0.0
O365 O 0.42708 0.81002 0.22925 0.0
C366 C 0.1524 0.64321 0.31126 0.0
C367 C 0.13432 0.63247 0.29828 0.0
C368 C 0.17553 0.65722 0.3055 0.0
C369 C 0.214 0.67016 0.26457 0.0
H370 H 0.2567 0.7239 0.29388 0.0
C371 C 0.30917 0.7371 0.24244 0.0
C372 C 0.32612 0.74135 0.25591 0.0
C373 C 0.28538 0.72446 0.24689 0.0
C374 C 0.24494 0.70891 0.28559 0.0
H375 H 0.12605 0.62831 0.26916 0.0
H376 H 0.16632 0.65335 0.25903 0.0
H377 H 0.21576 0.70097 0.3029 0.0
H378 H 0.33158 0.73602 0.28456 0.0
H379 H 0.29012 0.71438 0.29235 0.0
H380 H 0.24334 0.67855 0.2471 0.0
C381 C 0.16283 0.65047 0.27366 0.0
C382 C 0.22151 0.69566 0.2908 0.0
C383 C 0.13974 0.63619 0.27943 0.0
C384 C 0.3189 0.73296 0.27389 0.0
C385 C 0.2952 0.7207 0.27838 0.0
C386 C 0.23739 0.68364 0.25922 0.0
C387 C 0.18107 0.66109 0.28661 0.0
C388 C 0.20578 0.6759 0.28051 0.0
C389 C 0.27822 0.71628 0.26493 0.0
C390 C 0.25312 0.70293 0.26983 0.0
H391 H 0.1487 0.64039 0.32587 0.0
H392 H 0.1891 0.66466 0.31588 0.0
H393 H 0.20254 0.65489 0.25644 0.0
H394 H 0.31429 0.74337 0.22848 0.0
H395 H 0.27258 0.72133 0.2363 0.0
C396 C 0.51023 0.14538 0.45899 0.0
C397 C 0.52421 0.13706 0.46663 0.0
C398 C 0.52033 0.16843 0.45271 0.0
C399 C 0.57126 0.22669 0.45869 0.0
H400 H 0.5551 0.23935 0.41037 0.0
C401 C 0.61859 0.31955 0.428 0.0
C402 C 0.60514 0.32674 0.41796 0.0
C403 C 0.60914 0.29619 0.43325 0.0
C404 C 0.55958 0.23618 0.424 0.0
H405 H 0.55959 0.14631 0.47398 0.0
H406 H 0.57725 0.18677 0.46318 0.0
H407 H 0.53739 0.19906 0.42127 0.0
H408 H 0.57134 0.31517 0.4054 0.0
H409 H 0.55456 0.27451 0.41501 0.0
H410 H 0.59295 0.26369 0.46174 0.0
C411 C 0.55851 0.17541 0.46199 0.0
C412 C 0.54948 0.21309 0.4302 0.0
C413 C 0.54845 0.15227 0.46805 0.0
C414 C 0.58215 0.31008 0.41305 0.0
C415 C 0.57259 0.28674 0.41849 0.0
C416 C 0.58116 0.24979 0.4526 0.0
C417 C 0.54456 0.18367 0.45417 0.0
C418 C 0.55526 0.20813 0.44759 0.0
C419 C 0.58591 0.27952 0.42877 0.0
C420 C 0.57549 0.25485 0.43515 0.0
H421 H 0.49152 0.13395 0.45762 0.0
H422 H 0.50917 0.17441 0.44686 0.0
H423 H 0.5758 0.22335 0.47226 0.0
H424 H 0.63643 0.33201 0.43186 0.0
H425 H 0.62009 0.29121 0.44081 0.0
C426 C 0.38298 0.51544 0.62951 0.0
C427 C 0.40722 0.52929 0.63255 0.0
C428 C 0.36999 0.52555 0.6235 0.0
C429 C 0.36776 0.57925 0.62369 0.0
H430 H 0.32873 0.55392 0.58031 0.0
C431 C 0.3177 0.62229 0.59365 0.0
C432 C 0.29539 0.60753 0.58629 0.0
C433 C 0.33221 0.61339 0.59844 0.0
C434 C 0.33923 0.56102 0.59261 0.0
H435 H 0.43661 0.56487 0.63175 0.0
H436 H 0.4136 0.58254 0.62199 0.0
H437 H 0.35195 0.53692 0.59096 0.0
H438 H 0.27068 0.57194 0.57815 0.0
H439 H 0.29549 0.55614 0.58718 0.0
H440 H 0.35449 0.60271 0.62592 0.0
C441 C 0.40486 0.5638 0.62414 0.0
C442 C 0.35262 0.55134 0.59862 0.0
C443 C 0.41797 0.55365 0.62985 0.0
C444 C 0.28789 0.58374 0.58367 0.0
C445 C 0.30223 0.57474 0.58876 0.0
C446 C 0.35406 0.58868 0.61789 0.0
C447 C 0.38082 0.54979 0.62073 0.0
C448 C 0.36698 0.56036 0.61422 0.0
C449 C 0.32456 0.58942 0.5963 0.0
C450 C 0.33957 0.57969 0.60226 0.0
H451 H 0.37392 0.49674 0.63186 0.0
H452 H 0.35139 0.51444 0.62121 0.0
H453 H 0.37855 0.58635 0.63587 0.0
H454 H 0.32398 0.64075 0.59569 0.0
H455 H 0.34945 0.62537 0.6038 0.0
C456 C 0.88646 0.41232 0.78085 0.0
C457 C 0.8933 0.40957 0.7986 0.0
C458 C 0.86314 0.39907 0.77527 0.0
C459 C 0.80304 0.36311 0.79377 0.0
H460 H 0.78862 0.33976 0.74366 0.0
C461 C 0.70849 0.31558 0.76675 0.0
C462 C 0.70174 0.29613 0.75525 0.0
C463 C 0.73196 0.33021 0.77133 0.0
C464 C 0.79232 0.34597 0.75775 0.0
H465 H 0.88078 0.39088 0.82447 0.0
H466 H 0.84041 0.36721 0.81452 0.0
H467 H 0.82924 0.3631 0.7533 0.0
H468 H 0.71421 0.27678 0.73937 0.0
H469 H 0.75517 0.30194 0.74773 0.0
H470 H 0.76619 0.34523 0.79847 0.0
C471 C 0.85296 0.3799 0.80499 0.0
C472 C 0.81565 0.35965 0.76322 0.0
C473 C 0.87623 0.39326 0.81062 0.0
C474 C 0.71894 0.29172 0.74821 0.0
C475 C 0.74243 0.30623 0.75293 0.0
C476 C 0.77975 0.3493 0.78836 0.0
C477 C 0.84611 0.38264 0.78726 0.0
C478 C 0.8213 0.36835 0.78131 0.0
C479 C 0.74922 0.32557 0.76466 0.0
C480 C 0.77407 0.34054 0.77028 0.0
H481 H 0.89917 0.42451 0.77114 0.0
H482 H 0.85846 0.40185 0.76159 0.0
H483 H 0.8067 0.36977 0.80774 0.0
H484 H 0.69561 0.31951 0.77227 0.0
H485 H 0.73658 0.34519 0.78008 0.0
C486 C 0.51199 0.88646 0.95671 0.0
C487 C 0.49822 0.89439 0.96536 0.0
C488 C 0.50186 0.86352 0.95019 0.0
C489 C 0.45181 0.80487 0.95715 0.0
H490 H 0.46766 0.79216 0.90871 0.0
C491 C 0.40696 0.71141 0.92745 0.0
C492 C 0.42103 0.70477 0.91768 0.0
C493 C 0.41556 0.73478 0.93236 0.0
C494 C 0.46325 0.79537 0.92236 0.0
H495 H 0.46312 0.88454 0.97407 0.0
H496 H 0.44538 0.84429 0.96275 0.0
H497 H 0.48439 0.83253 0.9192 0.0
H498 H 0.45505 0.71733 0.90521 0.0
H499 H 0.47033 0.75803 0.91416 0.0
H500 H 0.43118 0.76781 0.9606 0.0
C501 C 0.46401 0.85588 0.96101 0.0
C502 C 0.47278 0.8185 0.92833 0.0
C503 C 0.47411 0.87892 0.96736 0.0
C504 C 0.44377 0.72197 0.91267 0.0
C505 C 0.45246 0.74533 0.91773 0.0
C506 C 0.44244 0.78174 0.95127 0.0
C507 C 0.47779 0.84797 0.95234 0.0
C508 C 0.46721 0.82347 0.9458 0.0
C509 C 0.43852 0.752 0.92776 0.0
C510 C 0.44808 0.77667 0.93381 0.0
H511 H 0.53059 0.89809 0.95483 0.0
H512 H 0.51293 0.85784 0.9437 0.0
H513 H 0.44746 0.80819 0.97079 0.0
H514 H 0.38929 0.69853 0.93139 0.0
H515 H 0.40417 0.73932 0.93977 0.0
C516 C 0.61986 0.48881 0.12311 0.0
C517 C 0.63011 0.51201 0.12946 0.0
C518 C 0.63377 0.47981 0.11685 0.0
C519 C 0.69419 0.48997 0.11882 0.0
H520 H 0.67364 0.44783 0.07691 0.0
C521 C 0.75164 0.45635 0.08618 0.0
C522 C 0.74031 0.43208 0.08317 0.0
C523 C 0.73871 0.46717 0.09063 0.0
C524 C 0.67954 0.4595 0.08867 0.0
H525 H 0.66314 0.54379 0.13447 0.0
H526 H 0.68733 0.52834 0.12304 0.0
H527 H 0.65011 0.46462 0.08728 0.0
H528 H 0.7066 0.40021 0.0819 0.0
H529 H 0.68406 0.4191 0.08952 0.0
H530 H 0.72368 0.48486 0.12012 0.0
C531 C 0.66853 0.51698 0.12312 0.0
C532 C 0.66602 0.46905 0.09468 0.0
C533 C 0.65463 0.52594 0.12947 0.0
C534 C 0.71581 0.41895 0.08415 0.0
C535 C 0.70289 0.42978 0.08843 0.0
C536 C 0.70778 0.48054 0.11273 0.0
C537 C 0.65828 0.49381 0.1167 0.0
C538 C 0.67306 0.48423 0.10994 0.0
C539 C 0.71422 0.45394 0.09196 0.0
C540 C 0.70049 0.46504 0.0977 0.0
H541 H 0.60105 0.47765 0.1227 0.0
H542 H 0.62527 0.46178 0.11227 0.0
H543 H 0.69998 0.50131 0.13078 0.0
H544 H 0.77051 0.4669 0.08552 0.0
H545 H 0.74788 0.48586 0.09312 0.0
C546 C 0.39575 0.889 0.53752 0.0
C547 C 0.40597 0.89487 0.51992 0.0
C548 C 0.38283 0.86565 0.54306 0.0
C549 C 0.37309 0.80666 0.53314 0.0
H550 H 0.31411 0.786 0.5582 0.0
C551 C 0.30672 0.70902 0.54609 0.0
C552 C 0.29463 0.70296 0.56294 0.0
C553 C 0.32095 0.7325 0.54122 0.0
C554 C 0.33068 0.79153 0.55145 0.0
H555 H 0.41067 0.88073 0.49434 0.0
H556 H 0.38821 0.83989 0.50407 0.0
H557 H 0.33784 0.82681 0.54897 0.0
H558 H 0.28822 0.71667 0.58803 0.0
H559 H 0.31334 0.75769 0.57966 0.0
H560 H 0.36595 0.77139 0.53564 0.0
C561 C 0.39039 0.85343 0.51364 0.0
C562 C 0.34427 0.81492 0.54613 0.0
C563 C 0.40327 0.87682 0.50807 0.0
C564 C 0.29725 0.72082 0.57491 0.0
C565 C 0.31154 0.74431 0.57006 0.0
C566 C 0.35953 0.78326 0.53851 0.0
C567 C 0.37989 0.84759 0.53114 0.0
C568 C 0.3656 0.82274 0.5369 0.0
C569 C 0.32346 0.75044 0.55311 0.0
C570 C 0.33813 0.77541 0.54769 0.0
H571 H 0.39786 0.90249 0.54712 0.0
H572 H 0.3753 0.86174 0.55675 0.0
H573 H 0.38959 0.81223 0.52626 0.0
H574 H 0.30498 0.69562 0.53655 0.0
H575 H 0.32961 0.73657 0.52795 0.0
C576 C 0.53015 0.3921 0.67188 0.0
C577 C 0.52886 0.40812 0.6839 0.0
C578 C 0.53976 0.37858 0.67777 0.0
C579 C 0.55492 0.3576 0.72018 0.0
H580 H 0.5915 0.34362 0.68619 0.0
C581 C 0.58405 0.29071 0.73751 0.0
C582 C 0.60601 0.29532 0.73117 0.0
C583 C 0.57495 0.30484 0.73203 0.0
C584 C 0.58157 0.34757 0.69595 0.0
H585 H 0.53659 0.42229 0.71166 0.0
H586 H 0.55421 0.39951 0.72165 0.0
H587 H 0.57573 0.36804 0.67614 0.0
H588 H 0.63596 0.31861 0.7145 0.0
H589 H 0.62048 0.3437 0.70538 0.0
H590 H 0.56147 0.33783 0.74019 0.0
C591 C 0.54737 0.39702 0.70776 0.0
C592 C 0.5722 0.3613 0.69008 0.0
C593 C 0.53758 0.41038 0.70192 0.0
C594 C 0.6189 0.31456 0.71951 0.0
C595 C 0.60993 0.32883 0.71418 0.0
C596 C 0.56447 0.34404 0.7261 0.0
C597 C 0.5485 0.38087 0.69579 0.0
C598 C 0.55868 0.36643 0.7021 0.0
C599 C 0.58774 0.32403 0.72023 0.0
C600 C 0.57785 0.33878 0.71404 0.0
H601 H 0.52388 0.39007 0.65784 0.0
H602 H 0.54005 0.36611 0.66823 0.0
H603 H 0.54436 0.36092 0.72975 0.0
H604 H 0.57367 0.27591 0.74643 0.0
H605 H 0.55767 0.30039 0.73674 0.0
C606 C 0.15264 0.54264 0.84325 0.0
C607 C 0.13419 0.52675 0.85451 0.0
C608 C 0.1758 0.55254 0.84916 0.0
C609 C 0.21346 0.54328 0.88136 0.0
H610 H 0.25687 0.60907 0.87237 0.0
C611 C 0.30873 0.59034 0.90856 0.0
C612 C 0.32593 0.60575 0.89621 0.0
C613 C 0.285 0.58091 0.90442 0.0
C614 C 0.24501 0.59062 0.87485 0.0
H615 H 0.12562 0.50911 0.88099 0.0
H616 H 0.16606 0.52629 0.89125 0.0
H617 H 0.21609 0.59218 0.86322 0.0
H618 H 0.33184 0.62332 0.86985 0.0
H619 H 0.29063 0.60673 0.86256 0.0
H620 H 0.24247 0.54167 0.89281 0.0
C621 C 0.1626 0.53086 0.87774 0.0
C622 C 0.22166 0.58096 0.86959 0.0
C623 C 0.13944 0.52101 0.87185 0.0
C624 C 0.31899 0.61156 0.87969 0.0
C625 C 0.29536 0.60217 0.87556 0.0
C626 C 0.23686 0.55295 0.88659 0.0
C627 C 0.18103 0.54674 0.86647 0.0
C628 C 0.20567 0.55714 0.87264 0.0
C629 C 0.27807 0.58675 0.88787 0.0
C630 C 0.25295 0.57668 0.88323 0.0
H631 H 0.14923 0.54715 0.82971 0.0
H632 H 0.18964 0.56443 0.84003 0.0
H633 H 0.20161 0.52481 0.88372 0.0
H634 H 0.31358 0.58558 0.92142 0.0
H635 H 0.2721 0.56924 0.91426 0.0
C636 C 0.62627 0.1535 0.01035 0.0
C637 C 0.62483 0.13535 0.02141 0.0
C638 C 0.63953 0.1768 0.01602 0.0
C639 C 0.6661 0.21374 0.05728 0.0
H640 H 0.70345 0.2612 0.02117 0.0
C641 C 0.73375 0.30955 0.07676 0.0
C642 C 0.73437 0.32712 0.06546 0.0
C643 C 0.72006 0.28596 0.07185 0.0
C644 C 0.69293 0.24819 0.03139 0.0
H645 H 0.63596 0.12748 0.04723 0.0
H646 H 0.65954 0.16815 0.05689 0.0
H647 H 0.68033 0.22045 0.01163 0.0
H648 H 0.72086 0.33379 0.04035 0.0
H649 H 0.69694 0.29273 0.03188 0.0
H650 H 0.67889 0.24158 0.07705 0.0
C651 C 0.6502 0.16435 0.04393 0.0
C652 C 0.67965 0.22483 0.02592 0.0
C653 C 0.63692 0.14105 0.03828 0.0
C654 C 0.72081 0.32065 0.04932 0.0
C655 C 0.70722 0.29714 0.04439 0.0
C656 C 0.67945 0.23713 0.06276 0.0
C657 C 0.6517 0.18251 0.03286 0.0
C658 C 0.66599 0.20733 0.03877 0.0
C659 C 0.70683 0.27953 0.05551 0.0
C660 C 0.69292 0.25462 0.04985 0.0
H661 H 0.61737 0.14974 0.9972 0.0
H662 H 0.64009 0.19033 0.00725 0.0
H663 H 0.65554 0.20074 0.06749 0.0
H664 H 0.74406 0.31403 0.08926 0.0
H665 H 0.72025 0.2728 0.08063 0.0
C666 C 0.47723 0.61375 0.18636 0.0
C667 C 0.50157 0.62319 0.1868 0.0
C668 C 0.4673 0.62676 0.1928 0.0
C669 C 0.47836 0.67568 0.22334 0.0
H670 H 0.43142 0.67904 0.1936 0.0
C671 C 0.44679 0.74129 0.23857 0.0
C672 C 0.42322 0.73405 0.23519 0.0
C673 C 0.45593 0.72703 0.23354 0.0
C674 C 0.44422 0.67801 0.20224 0.0
H675 H 0.53457 0.65344 0.19462 0.0
H676 H 0.51721 0.67619 0.20586 0.0
H677 H 0.44801 0.6554 0.18315 0.0
H678 H 0.3905 0.70594 0.2245 0.0
H679 H 0.40623 0.6808 0.21618 0.0
H680 H 0.47447 0.69811 0.24252 0.0
C681 C 0.50582 0.65873 0.20054 0.0
C682 C 0.45377 0.6645 0.19621 0.0
C683 C 0.51577 0.64581 0.19395 0.0
C684 C 0.4088 0.71204 0.22716 0.0
C685 C 0.41787 0.69771 0.22227 0.0
C686 C 0.46868 0.68905 0.22946 0.0
C687 C 0.4815 0.64937 0.19998 0.0
C688 C 0.47101 0.66329 0.20664 0.0
C689 C 0.44162 0.70516 0.22515 0.0
C690 C 0.45155 0.69046 0.21895 0.0
H691 H 0.46589 0.59642 0.18082 0.0
H692 H 0.44848 0.61905 0.19231 0.0
H693 H 0.49143 0.67482 0.23177 0.0
H694 H 0.45834 0.75823 0.24467 0.0
H695 H 0.47436 0.73347 0.23576 0.0
C696 C 0.87553 0.48427 0.34078 0.0
C697 C 0.89323 0.49952 0.35291 0.0
C698 C 0.85205 0.47355 0.346 0.0
C699 C 0.81335 0.45878 0.38676 0.0
H700 H 0.7685 0.45604 0.35095 0.0
C701 C 0.71928 0.43571 0.4062 0.0
C702 C 0.70131 0.42097 0.39407 0.0
C703 C 0.74268 0.44432 0.40144 0.0
C704 C 0.78076 0.45642 0.36105 0.0
H705 H 0.90016 0.51489 0.38024 0.0
H706 H 0.85922 0.49664 0.38917 0.0
H707 H 0.80932 0.47257 0.34212 0.0
H708 H 0.6937 0.4034 0.36759 0.0
H709 H 0.73449 0.41832 0.35934 0.0
H710 H 0.78474 0.44286 0.40574 0.0
C711 C 0.86347 0.49278 0.37569 0.0
C712 C 0.80415 0.46586 0.35598 0.0
C713 C 0.88693 0.50348 0.37048 0.0
C714 C 0.70717 0.4148 0.3772 0.0
C715 C 0.73054 0.42344 0.37242 0.0
C716 C 0.78994 0.44939 0.39184 0.0
C717 C 0.84573 0.47783 0.36347 0.0
C718 C 0.82074 0.4672 0.36878 0.0
C719 C 0.74856 0.43841 0.38443 0.0
C720 C 0.7734 0.44814 0.37905 0.0
H721 H 0.87978 0.48099 0.32709 0.0
H722 H 0.83883 0.4619 0.33634 0.0
H723 H 0.82562 0.45925 0.39687 0.0
H724 H 0.71527 0.44078 0.41929 0.0
H725 H 0.75619 0.456 0.4109 0.0
C726 C 0.10139 0.6102 0.41338 0.0
C727 C 0.09389 0.59019 0.40228 0.0
C728 C 0.11494 0.61352 0.42909 0.0
C729 C 0.15546 0.59773 0.44997 0.0
H730 H 0.13693 0.61291 0.49628 0.0
C731 C 0.20145 0.60028 0.51823 0.0
C732 C 0.20481 0.61751 0.53116 0.0
C733 C 0.18749 0.59648 0.50268 0.0
C734 C 0.1426 0.60903 0.48343 0.0
H735 H 0.09483 0.55793 0.39927 0.0
H736 H 0.1191 0.56421 0.42631 0.0
H737 H 0.11414 0.60807 0.46854 0.0
H738 H 0.19632 0.64435 0.53798 0.0
H739 H 0.17265 0.63832 0.51064 0.0
H740 H 0.18424 0.59927 0.46459 0.0
C741 C 0.11444 0.57729 0.42277 0.0
C742 C 0.12946 0.60618 0.46756 0.0
C743 C 0.10062 0.57379 0.4072 0.0
C744 C 0.19389 0.63081 0.5283 0.0
C745 C 0.18019 0.62723 0.51265 0.0
C746 C 0.16879 0.60089 0.46578 0.0
C747 C 0.12158 0.59709 0.43393 0.0
C748 C 0.13573 0.60045 0.45069 0.0
C749 C 0.17682 0.61004 0.4996 0.0
C750 C 0.16252 0.60653 0.48275 0.0
H751 H 0.09694 0.62343 0.40988 0.0
H752 H 0.12047 0.62909 0.43736 0.0
H753 H 0.1608 0.59354 0.43708 0.0
H754 H 0.20957 0.58969 0.52014 0.0
H755 H 0.18496 0.58279 0.49315 0.0
C756 C 0.54136 0.10011 0.57607 0.0
C757 C 0.51879 0.09455 0.57044 0.0
C758 C 0.55166 0.11392 0.59164 0.0
C759 C 0.54667 0.15531 0.62354 0.0
H760 H 0.58583 0.14167 0.65495 0.0
C761 C 0.57789 0.19635 0.69558 0.0
C762 C 0.60186 0.20606 0.69922 0.0
C763 C 0.56793 0.18275 0.67985 0.0
C764 C 0.57507 0.14576 0.64622 0.0
H765 H 0.48947 0.09945 0.57687 0.0
H766 H 0.50696 0.1226 0.60448 0.0
H767 H 0.56772 0.11774 0.62769 0.0
H768 H 0.63415 0.20887 0.68945 0.0
H769 H 0.61657 0.18463 0.66204 0.0
H770 H 0.55361 0.18296 0.64248 0.0
C771 C 0.51696 0.11672 0.59659 0.0
C772 C 0.56475 0.13213 0.63054 0.0
C773 C 0.50676 0.10312 0.58088 0.0
C774 C 0.61563 0.2016 0.68698 0.0
C775 C 0.60557 0.18769 0.67136 0.0
C776 C 0.55674 0.16872 0.63935 0.0
C777 C 0.53956 0.12232 0.60219 0.0
C778 C 0.55045 0.13676 0.61896 0.0
C779 C 0.58167 0.17832 0.66758 0.0
C780 C 0.57107 0.1641 0.65081 0.0
H781 H 0.55106 0.09354 0.56859 0.0
H782 H 0.56921 0.11812 0.59533 0.0
H783 H 0.53616 0.15971 0.6148 0.0
H784 H 0.56686 0.19953 0.70476 0.0
H785 H 0.54942 0.17555 0.67734 0.0
C786 C 0.42882 0.53158 0.73337 0.0
C787 C 0.43893 0.51746 0.73548 0.0
C788 C 0.42494 0.54195 0.74876 0.0
C789 C 0.44409 0.55751 0.79754 0.0
H790 H 0.39209 0.56896 0.79992 0.0
C791 C 0.41715 0.58724 0.86356 0.0
C792 C 0.41373 0.60647 0.86153 0.0
C793 C 0.42047 0.57663 0.8481 0.0
C794 C 0.40676 0.56598 0.79935 0.0
H795 H 0.45187 0.50204 0.75516 0.0
H796 H 0.44414 0.51914 0.7821 0.0
H797 H 0.39612 0.54869 0.77327 0.0
H798 H 0.4111 0.6297 0.84182 0.0
H799 H 0.41646 0.61079 0.81472 0.0
H800 H 0.45422 0.57422 0.82394 0.0
C801 C 0.44002 0.5231 0.76861 0.0
C802 C 0.40916 0.55445 0.78406 0.0
C803 C 0.44427 0.5131 0.75322 0.0
C804 C 0.4138 0.61496 0.84378 0.0
C805 C 0.4167 0.60408 0.82829 0.0
C806 C 0.44146 0.56868 0.81293 0.0
C807 C 0.43076 0.53808 0.76658 0.0
C808 C 0.42789 0.55008 0.78294 0.0
C809 C 0.42002 0.5848 0.83032 0.0
C810 C 0.42282 0.57306 0.81395 0.0
H811 H 0.42474 0.5353 0.71977 0.0
H812 H 0.41806 0.55358 0.74658 0.0
H813 H 0.45907 0.55503 0.79703 0.0
H814 H 0.41715 0.58033 0.87709 0.0
H815 H 0.42289 0.56171 0.85 0.0
C816 C 0.92423 0.42191 0.9118 0.0
C817 C 0.93367 0.44315 0.90206 0.0
C818 C 0.91039 0.41814 0.92741 0.0
C819 C 0.87296 0.43687 0.95008 0.0
H820 H 0.88629 0.41319 0.99456 0.0
C821 C 0.82718 0.43185 0.01919 0.0
C822 C 0.82142 0.41255 0.0306 0.0
C823 C 0.84104 0.43588 0.00354 0.0
C824 C 0.88207 0.41949 0.9822 0.0
H825 H 0.93606 0.47718 0.90137 0.0
H826 H 0.91142 0.47026 0.92827 0.0
H827 H 0.90951 0.4189 0.96693 0.0
H828 H 0.82535 0.38215 0.0345 0.0
H829 H 0.84884 0.38871 0.007 0.0
H830 H 0.84522 0.43702 0.96511 0.0
C831 C 0.91468 0.45652 0.92372 0.0
C832 C 0.89544 0.42281 0.96639 0.0
C833 C 0.92872 0.46041 0.90825 0.0
C834 C 0.82967 0.3973 0.02604 0.0
C835 C 0.84328 0.40117 0.01031 0.0
C836 C 0.85939 0.43329 0.96582 0.0
C837 C 0.90548 0.43541 0.93352 0.0
C838 C 0.89105 0.43157 0.95019 0.0
C839 C 0.84922 0.42054 0.99886 0.0
C840 C 0.86378 0.42457 0.98211 0.0
H841 H 0.92733 0.40807 0.90729 0.0
H842 H 0.9033 0.40158 0.93461 0.0
H843 H 0.86906 0.44343 0.9377 0.0
H844 H 0.82112 0.44394 0.02243 0.0
H845 H 0.84555 0.45118 0.99522 0.0
C846 C 0.52238 0.941 0.08759 0.0
C847 C 0.51201 0.93362 0.07013 0.0
C848 C 0.51235 0.92693 0.1031 0.0
C849 C 0.46931 0.86619 0.11753 0.0
H850 H 0.46923 0.89667 0.1632 0.0
C851 C 0.41437 0.81547 0.18111 0.0
C852 C 0.42613 0.82167 0.19811 0.0
C853 C 0.4248 0.829 0.16541 0.0
C854 C 0.46927 0.88793 0.15058 0.0
H855 H 0.48334 0.9052 0.05527 0.0
H856 H 0.46542 0.88111 0.08236 0.0
H857 H 0.48787 0.92026 0.13594 0.0
H858 H 0.45783 0.84703 0.21207 0.0
H859 H 0.47589 0.87078 0.1847 0.0
H860 H 0.45028 0.83382 0.1322 0.0
C861 C 0.4815 0.89763 0.08406 0.0
C862 C 0.48004 0.90144 0.13496 0.0
C863 C 0.49162 0.91161 0.06853 0.0
C864 C 0.44834 0.84183 0.19916 0.0
C865 C 0.45864 0.85547 0.18352 0.0
C866 C 0.45835 0.85268 0.13312 0.0
C867 C 0.49161 0.9052 0.10158 0.0
C868 C 0.48028 0.89076 0.11824 0.0
C869 C 0.44705 0.84913 0.16646 0.0
C870 C 0.45828 0.86342 0.14981 0.0
H871 H 0.53795 0.95792 0.0894 0.0
H872 H 0.52085 0.93317 0.11632 0.0
H873 H 0.46945 0.85737 0.10499 0.0
H874 H 0.39724 0.80001 0.1799 0.0
H875 H 0.41538 0.82383 0.15246 0.0
C876 C 0.60599 0.52357 0.24476 0.0
C877 C 0.5895 0.50918 0.23153 0.0
C878 C 0.61022 0.51377 0.26033 0.0
C879 C 0.60409 0.45894 0.27868 0.0
H880 H 0.60513 0.48604 0.32633 0.0
C881 C 0.60244 0.41278 0.34659 0.0
C882 C 0.61664 0.42685 0.36105 0.0
C883 C 0.59923 0.42296 0.3308 0.0
C884 C 0.6052 0.47842 0.31313 0.0
H885 H 0.56515 0.47326 0.22386 0.0
H886 H 0.57252 0.45615 0.25103 0.0
H887 H 0.6005 0.50388 0.29844 0.0
H888 H 0.63853 0.4626 0.3704 0.0
H889 H 0.6333 0.48039 0.34276 0.0
H890 H 0.60896 0.43358 0.29329 0.0
C891 C 0.58217 0.47499 0.24939 0.0
C892 C 0.60254 0.48866 0.29715 0.0
C893 C 0.5778 0.48479 0.23392 0.0
C894 C 0.62738 0.45129 0.35951 0.0
C895 C 0.62428 0.46148 0.34369 0.0
C896 C 0.60689 0.44878 0.29465 0.0
C897 C 0.59821 0.48938 0.26287 0.0
C898 C 0.60185 0.47897 0.27977 0.0
C899 C 0.61027 0.44745 0.32909 0.0
C900 C 0.60738 0.45833 0.31208 0.0
H901 H 0.61514 0.54244 0.24334 0.0
H902 H 0.62285 0.52529 0.27041 0.0
H903 H 0.6039 0.45124 0.26545 0.0
H904 H 0.59388 0.39388 0.34742 0.0
H905 H 0.588 0.41161 0.31996 0.0
C906 C 0.42858 0.91293 0.41866 0.0
C907 C 0.43859 0.9372 0.41653 0.0
C908 C 0.4249 0.89868 0.4033 0.0
C909 C 0.44393 0.90227 0.35446 0.0
H910 H 0.39169 0.83872 0.35212 0.0
C911 C 0.41602 0.84567 0.28834 0.0
C912 C 0.41285 0.8231 0.29023 0.0
C913 C 0.41945 0.85954 0.30387 0.0
C914 C 0.40642 0.85641 0.35268 0.0
H915 H 0.45163 0.96559 0.39684 0.0
H916 H 0.44425 0.94076 0.36995 0.0
H917 H 0.39604 0.86304 0.37885 0.0
H918 H 0.41068 0.79724 0.30977 0.0
H919 H 0.41618 0.8214 0.337 0.0
H920 H 0.45376 0.89571 0.32795 0.0
C921 C 0.44007 0.93267 0.38344 0.0
C922 C 0.40901 0.87034 0.36802 0.0
C923 C 0.44413 0.94692 0.3988 0.0
C924 C 0.41318 0.81463 0.30792 0.0
C925 C 0.41618 0.82835 0.32348 0.0
C926 C 0.4411 0.88847 0.33902 0.0
C927 C 0.4308 0.9084 0.38548 0.0
C928 C 0.42783 0.89347 0.36913 0.0
C929 C 0.41933 0.85092 0.32157 0.0
C930 C 0.42236 0.86542 0.33801 0.0
H931 H 0.42434 0.90511 0.43225 0.0
H932 H 0.41803 0.88015 0.40549 0.0
H933 H 0.45896 0.91976 0.35495 0.0
H934 H 0.41583 0.85261 0.27486 0.0
H935 H 0.42174 0.87686 0.30207 0.0
C936 C 0.51193 0.42514 0.57083 0.0
C937 C 0.524 0.44611 0.5809 0.0
C938 C 0.52197 0.42145 0.55517 0.0
C939 C 0.57812 0.43951 0.53269 0.0
H940 H 0.54105 0.4168 0.48812 0.0
C941 C 0.61806 0.43303 0.46356 0.0
C942 C 0.60409 0.41371 0.45226 0.0
C943 C 0.60855 0.43757 0.47917 0.0
C944 C 0.55157 0.42284 0.5005 0.0
H945 H 0.55614 0.4797 0.5822 0.0
H946 H 0.57381 0.47293 0.55516 0.0
H947 H 0.5239 0.42294 0.51577 0.0
H948 H 0.56933 0.38384 0.4485 0.0
H949 H 0.55294 0.3913 0.47591 0.0
H950 H 0.60564 0.43896 0.51764 0.0
C951 C 0.55661 0.45935 0.55948 0.0
C952 C 0.54174 0.42641 0.51632 0.0
C953 C 0.54649 0.46316 0.57502 0.0
C954 C 0.5805 0.39899 0.45688 0.0
C955 C 0.57106 0.40337 0.47255 0.0
C956 C 0.5879 0.43571 0.51692 0.0
C957 C 0.54439 0.43853 0.54933 0.0
C958 C 0.55489 0.43475 0.53257 0.0
C959 C 0.58492 0.42275 0.48389 0.0
C960 C 0.57473 0.42727 0.50062 0.0
H961 H 0.49478 0.41144 0.57511 0.0
H962 H 0.51229 0.40511 0.54772 0.0
H963 H 0.58858 0.44576 0.5451 0.0
H964 H 0.6363 0.44471 0.46028 0.0
H965 H 0.61968 0.45284 0.48742 0.0
C966 C 0.10024 0.51273 0.73978 0.0
C967 C 0.09705 0.52699 0.75243 0.0
C968 C 0.11447 0.52253 0.72431 0.0
C969 C 0.16192 0.57783 0.70529 0.0
H970 H 0.13781 0.54766 0.65812 0.0
C971 C 0.2071 0.62075 0.63638 0.0
C972 C 0.20793 0.60598 0.62284 0.0
C973 C 0.19372 0.61134 0.65233 0.0
C974 C 0.14496 0.55616 0.6712 0.0
H975 H 0.10689 0.56276 0.75917 0.0
H976 H 0.13169 0.57987 0.73211 0.0
H977 H 0.11492 0.53062 0.68596 0.0
H978 H 0.19553 0.56982 0.61541 0.0
H979 H 0.17258 0.55345 0.64328 0.0
H980 H 0.19206 0.60328 0.69057 0.0
C981 C 0.1232 0.56112 0.73415 0.0
C982 C 0.13182 0.54638 0.68716 0.0
C983 C 0.10885 0.55131 0.74955 0.0
C984 C 0.19512 0.58166 0.62554 0.0
C985 C 0.18185 0.57226 0.64149 0.0
C986 C 0.17515 0.58756 0.68933 0.0
C987 C 0.12593 0.54681 0.72124 0.0
C988 C 0.14015 0.55709 0.70437 0.0
C989 C 0.18096 0.58697 0.65509 0.0
C990 C 0.16683 0.57684 0.67208 0.0
H991 H 0.09125 0.49391 0.74156 0.0
H992 H 0.11644 0.51108 0.7147 0.0
H993 H 0.1689 0.58635 0.7184 0.0
H994 H 0.21676 0.63958 0.63464 0.0
H995 H 0.19318 0.62317 0.6624 0.0
C996 C 0.60114 0.11819 0.91941 0.0
C997 C 0.58218 0.09511 0.9194 0.0
C998 C 0.60554 0.13269 0.90411 0.0
C999 C 0.57693 0.14051 0.86344 0.0
H1000 H 0.63997 0.17734 0.84437 0.0
C1001 C 0.60155 0.20906 0.80541 0.0
C1002 C 0.61593 0.20861 0.79136 0.0
C1003 C 0.59749 0.19571 0.82138 0.0
C1004 C 0.62227 0.1671 0.84952 0.0
H1005 H 0.55337 0.06906 0.90301 0.0
H1006 H 0.56085 0.09446 0.87653 0.0
H1007 H 0.63282 0.15302 0.87169 0.0
H1008 H 0.63736 0.19387 0.78299 0.0
H1009 H 0.6303 0.17062 0.81087 0.0
H1010 H 0.56633 0.15436 0.84116 0.0
C1011 C 0.57211 0.10141 0.88848 0.0
C1012 C 0.61822 0.15337 0.86524 0.0
C1013 C 0.56781 0.08688 0.90369 0.0
C1014 C 0.62618 0.19457 0.79358 0.0
C1015 C 0.62227 0.18138 0.80959 0.0
C1016 C 0.58101 0.15439 0.84781 0.0
C1017 C 0.59099 0.12448 0.88853 0.0
C1018 C 0.59548 0.13977 0.87227 0.0
C1019 C 0.6079 0.18182 0.82366 0.0
C1020 C 0.60369 0.16768 0.8406 0.0
H1021 H 0.61238 0.12519 0.93136 0.0
H1022 H 0.6201 0.15047 0.90459 0.0
H1023 H 0.55925 0.13037 0.86865 0.0
H1024 H 0.59346 0.21976 0.80409 0.0
H1025 H 0.58647 0.19652 0.83206 0.0
C1026 C 0.48635 0.57274 0.07486 0.0
C1027 C 0.50831 0.59029 0.08131 0.0
C1028 C 0.47612 0.57659 0.05942 0.0
C1029 C 0.49036 0.61156 0.01732 0.0
H1030 H 0.42511 0.59466 0.01816 0.0
C1031 C 0.44906 0.63668 0.95818 0.0
C1032 C 0.42589 0.62071 0.95317 0.0
C1033 C 0.45893 0.63288 0.97387 0.0
C1034 C 0.44326 0.59916 0.01758 0.0
H1035 H 0.5365 0.62582 0.07659 0.0
H1036 H 0.5188 0.63228 0.04936 0.0
H1037 H 0.44268 0.58825 0.04547 0.0
H1038 H 0.3949 0.58811 0.96052 0.0
H1039 H 0.41232 0.58106 0.98766 0.0
H1040 H 0.49096 0.62203 0.98938 0.0
C1041 C 0.50962 0.61552 0.0563 0.0
C1042 C 0.45333 0.59557 0.03326 0.0
C1043 C 0.51977 0.61178 0.07186 0.0
C1044 C 0.41279 0.60077 0.9641 0.0
C1045 C 0.42274 0.59683 0.97972 0.0
C1046 C 0.48025 0.61493 0.00158 0.0
C1047 C 0.48769 0.59796 0.04992 0.0
C1048 C 0.477 0.60181 0.03331 0.0
C1049 C 0.44594 0.61287 0.98483 0.0
C1050 C 0.45658 0.60887 0.00152 0.0
H1051 H 0.47721 0.5558 0.08152 0.0
H1052 H 0.45935 0.56263 0.05466 0.0
H1053 H 0.50857 0.61621 0.01689 0.0
H1054 H 0.45954 0.65231 0.95009 0.0
H1055 H 0.47668 0.64584 0.97752 0.0
C1056 C 0.94203 0.5064 0.23365 0.0
C1057 C 0.93306 0.50659 0.25115 0.0
C1058 C 0.92703 0.49488 0.21894 0.0
C1059 C 0.86614 0.47082 0.20275 0.0
H1060 H 0.88356 0.4367 0.16887 0.0
C1061 C 0.80627 0.41448 0.14284 0.0
C1062 C 0.81741 0.41813 0.12567 0.0
C1063 C 0.81945 0.42376 0.15891 0.0
C1064 C 0.87852 0.44624 0.17816 0.0
H1065 H 0.90131 0.49512 0.26692 0.0
H1066 H 0.87497 0.4747 0.24119 0.0
H1067 H 0.90817 0.45616 0.19548 0.0
H1068 H 0.851 0.4339 0.11188 0.0
H1069 H 0.87395 0.44992 0.13987 0.0
H1070 H 0.83642 0.46079 0.18532 0.0
C1071 C 0.89365 0.48373 0.2388 0.0
C1072 C 0.89266 0.45747 0.19338 0.0
C1073 C 0.90871 0.4954 0.25354 0.0
C1074 C 0.84193 0.43075 0.12492 0.0
C1075 C 0.85508 0.43985 0.14096 0.0
C1076 C 0.85191 0.45945 0.18754 0.0
C1077 C 0.90265 0.48313 0.22136 0.0
C1078 C 0.88684 0.4702 0.20572 0.0
C1079 C 0.844 0.43665 0.15811 0.0
C1080 C 0.85813 0.44732 0.17495 0.0
H1081 H 0.96072 0.51525 0.23132 0.0
H1082 H 0.93458 0.49529 0.2056 0.0
H1083 H 0.86125 0.48064 0.21187 0.0
H1084 H 0.78738 0.40485 0.14382 0.0
H1085 H 0.81045 0.42085 0.17196 0.0
loop_
_geom_bond_atom_site_label_1
_geom_bond_atom_site_label_2
_geom_bond_distance
_geom_bond_site_symmetry_2
_ccdc_geom_bond_type
H0 C19 0.949 . S
H1 C20 0.950 . S
H2 C22 0.950 . S
H3 C23 0.950 . S
H4 C25 0.950 . S
H5 C28 0.950 . S
H6 C29 0.950 . S
H7 C31 0.951 . S
H8 C32 0.949 . S
H9 C34 0.949 . S
H10 C35 0.950 . S
H11 C37 0.950 . S
H12 C38 0.950 . S
H13 C40 0.950 . S
H14 C43 0.950 . S
H15 C44 0.950 . S
H16 C46 0.951 . S
H17 C47 0.949 . S
C18 C19 1.376 . S
C18 C23 1.386 . S
C18 C24 1.466 1_655 S
C19 H0 0.949 . S
C19 C18 1.376 . S
C19 C20 1.397 . S
C20 H1 0.950 . S
C20 C19 1.397 . S
C20 C21 1.391 . S
C21 C20 1.391 . S
C21 C22 1.405 . S
C22 H2 0.950 . S
C22 C21 1.405 . S
C22 C23 1.367 . S
C23 H3 0.950 . S
C23 C18 1.386 . S
C23 C22 1.367 . S
C24 C18 1.466 1_455 S
C24 C25 1.410 . S
C24 C26 1.392 1_455 S
C25 H4 0.950 . S
C25 C24 1.410 . S
C25 C41 1.411 . S
C26 C24 1.392 1_655 S
C26 C27 1.489 . S
C26 C40 1.411 1_655 S
C27 C26 1.489 . S
C27 C28 1.383 . S
C27 C32 1.382 . S
C28 H5 0.950 . S
C28 C27 1.383 . S
C28 C29 1.395 . S
C29 H6 0.950 . S
C29 C28 1.395 . S
C29 C30 1.288 . S
C30 C29 1.288 . S
C30 C31 1.392 . S
C31 H7 0.951 . S
C31 C30 1.392 . S
C31 C32 1.392 . S
C32 H8 0.949 . S
C32 C27 1.382 . S
C32 C31 1.392 . S
C33 C34 1.376 . S
C33 C38 1.386 . S
C33 C39 1.483 . S
C34 H9 0.949 . S
C34 C33 1.376 . S
C34 C35 1.397 . S
C35 H10 0.950 . S
C35 C34 1.397 . S
C35 C36 1.391 . S
C36 C35 1.391 . S
C36 C37 1.405 . S
C37 H11 0.950 . S
C37 C36 1.405 . S
C37 C38 1.367 . S
C38 H12 0.950 . S
C38 C33 1.386 . S
C38 C37 1.367 . S
C39 C33 1.483 . S
C39 C40 1.382 . S
C39 C41 1.403 . S
C40 H13 0.950 . S
C40 C26 1.411 1_455 S
C40 C39 1.382 . S
C41 C25 1.411 . S
C41 C39 1.403 . S
C41 C42 1.489 . S
C42 C41 1.489 . S
C42 C43 1.383 . S
C42 C47 1.382 . S
C43 H14 0.950 . S
C43 C42 1.383 . S
C43 C44 1.395 . S
C44 H15 0.950 . S
C44 C43 1.395 . S
C44 C45 1.288 . S
C45 C44 1.288 . S
C45 C46 1.392 . S
C46 H16 0.951 . S
C46 C45 1.392 . S
C46 C47 1.392 . S
C47 H17 0.949 . S
C47 C42 1.382 . S
C47 C46 1.392 . S
H48 C67 0.949 . S
H49 C68 0.950 . S
H50 C70 0.950 . S
H51 C71 0.950 . S
H52 C73 0.950 . S
H53 C76 0.950 . S
H54 C77 0.950 . S
H55 C79 0.951 . S
H56 C80 0.939 1_545 S
H57 C82 0.949 . S
H58 C83 0.950 . S
H59 C85 0.950 . S
H60 C86 0.950 . S
H61 C88 0.950 . S
H62 C91 0.950 . S
H63 C92 0.950 . S
H64 C94 0.951 . S
H65 C95 0.949 . S
C66 C67 1.376 . S
C66 C71 1.386 . S
C66 C72 1.483 . S
C67 H48 0.949 . S
C67 C66 1.376 . S
C67 C68 1.397 . S
C68 H49 0.950 . S
C68 C67 1.397 . S
C68 C69 1.391 . S
C69 C68 1.391 . S
C69 C70 1.405 . S
C70 H50 0.950 . S
C70 C69 1.405 . S
C70 C71 1.367 . S
C71 H51 0.950 . S
C71 C66 1.386 . S
C71 C70 1.367 . S
C72 C66 1.483 . S
C72 C73 1.382 1_565 S
C72 C74 1.403 1_565 S
C73 H52 0.950 . S
C73 C72 1.382 1_545 S
C73 C89 1.411 . S
C74 C72 1.403 1_545 S
C74 C75 1.489 1_545 S
C74 C88 1.411 . S
C75 C74 1.489 1_565 S
C75 C76 1.383 . S
C75 C80 1.382 . S
C76 H53 0.950 . S
C76 C75 1.383 . S
C76 C77 1.395 . S
C77 H54 0.950 . S
C77 C76 1.395 . S
C77 C78 1.288 . S
C78 C77 1.288 . S
C78 C79 1.392 . S
C79 H55 0.951 . S
C79 C78 1.392 . S
C79 C80 1.392 . S
C80 H56 0.939 1_565 S
C80 C75 1.382 . S
C80 C79 1.392 . S
C81 C82 1.376 . S
C81 C86 1.386 . S
C81 C87 1.483 . S
C82 H57 0.949 . S
C82 C81 1.376 . S
C82 C83 1.397 . S
C83 H58 0.950 . S
C83 C82 1.397 . S
C83 C84 1.391 . S
C84 C83 1.391 . S
C84 C85 1.405 . S
C85 H59 0.950 . S
C85 C84 1.405 . S
C85 C86 1.367 . S
C86 H60 0.950 . S
C86 C81 1.386 . S
C86 C85 1.367 . S
C87 C81 1.483 . S
C87 C88 1.382 . S
C87 C89 1.403 . S
C88 H61 0.950 . S
C88 C74 1.411 . S
C88 C87 1.382 . S
C89 C73 1.411 . S
C89 C87 1.403 . S
C89 C90 1.489 . S
C90 C89 1.489 . S
C90 C91 1.383 . S
C90 C95 1.382 . S
C91 H62 0.950 . S
C91 C90 1.383 . S
C91 C92 1.395 . S
C92 H63 0.950 . S
C92 C91 1.395 . S
C92 C93 1.288 . S
C93 C92 1.288 . S
C93 C94 1.392 . S
C94 H64 0.951 . S
C94 C93 1.392 . S
C94 C95 1.392 . S
C95 H65 0.949 . S
C95 C90 1.382 . S
C95 C94 1.392 . S
H96 C115 0.949 . S
H97 C116 0.950 . S
H98 C118 0.950 . S
H99 C119 0.950 . S
H100 C121 0.950 . S
H101 C124 0.950 . S
H102 C125 0.950 . S
H103 C127 0.951 . S
H104 C128 0.949 . S
H105 C130 0.949 . S
H106 C131 0.950 . S
H107 C133 0.950 . S
H108 C134 0.950 . S
H109 C136 0.950 . S
H110 C139 0.950 . S
H111 C140 0.950 . S
H112 C142 0.951 . S
H113 C143 0.949 . S
C114 C115 1.376 . S
C114 C119 1.386 . S
C114 C120 1.483 . S
C115 H96 0.949 . S
C115 C114 1.376 . S
C115 C116 1.397 . S
C116 H97 0.950 . S
C116 C115 1.397 . S
C116 C117 1.391 . S
C117 C116 1.391 . S
C117 C118 1.405 . S
C118 H98 0.950 . S
C118 C117 1.405 . S
C118 C119 1.367 . S
C119 H99 0.950 . S
C119 C114 1.386 . S
C119 C118 1.367 . S
C120 C114 1.483 . S
C120 C121 1.382 . S
C120 C122 1.403 . S
C121 H100 0.950 . S
C121 C120 1.382 . S
C121 C137 1.411 . S
C122 C120 1.403 . S
C122 C123 1.489 . S
C122 C136 1.411 . S
C123 C122 1.489 . S
C123 C124 1.383 . S
C123 C128 1.382 . S
C124 H101 0.950 . S
C124 C123 1.383 . S
C124 C125 1.395 . S
C125 H102 0.950 . S
C125 C124 1.395 . S
C125 C126 1.288 . S
C126 C125 1.288 . S
C126 C127 1.392 . S
C127 H103 0.951 . S
C127 C126 1.392 . S
C127 C128 1.392 . S
C128 H104 0.949 . S
C128 C123 1.382 . S
C128 C127 1.392 . S
C129 C130 1.376 . S
C129 C134 1.386 . S
C129 C135 1.483 . S
C130 H105 0.949 . S
C130 C129 1.376 . S
C130 C131 1.397 . S
C131 H106 0.950 . S
C131 C130 1.397 . S
C131 C132 1.391 . S
C132 C131 1.391 . S
C132 C133 1.405 . S
C133 H107 0.950 . S
C133 C132 1.405 . S
C133 C134 1.367 . S
C134 H108 0.950 . S
C134 C129 1.386 . S
C134 C133 1.367 . S
C135 C129 1.483 . S
C135 C136 1.382 . S
C135 C137 1.403 . S
C136 H109 0.950 . S
C136 C122 1.411 . S
C136 C135 1.382 . S
C137 C121 1.411 . S
C137 C135 1.403 . S
C137 C138 1.489 . S
C138 C137 1.489 . S
C138 C139 1.383 . S
C138 C143 1.382 . S
C139 H110 0.950 . S
C139 C138 1.383 . S
C139 C140 1.395 . S
C140 H111 0.950 . S
C140 C139 1.395 . S
C140 C141 1.288 . S
C141 C140 1.288 . S
C141 C142 1.392 . S
C142 H112 0.951 . S
C142 C141 1.392 . S
C142 C143 1.392 . S
C143 H113 0.949 . S
C143 C138 1.382 . S
C143 C142 1.392 . S
H144 C163 0.949 . S
H145 C164 0.950 . S
H146 C166 0.950 . S
H147 C167 0.950 . S
H148 C169 0.950 . S
H149 C172 0.950 . S
H150 C173 0.950 . S
H151 C175 0.951 . S
H152 C176 0.949 . S
H153 C178 0.949 . S
H154 C179 0.950 . S
H155 C181 0.950 . S
H156 C182 0.950 . S
H157 C184 0.950 . S
H158 C187 0.950 . S
H159 C188 0.950 . S
H160 C190 0.951 . S
H161 C191 0.949 . S
C162 C163 1.376 . S
C162 C167 1.386 . S
C162 C168 1.483 . S
C163 H144 0.949 . S
C163 C162 1.376 . S
C163 C164 1.397 . S
C164 H145 0.950 . S
C164 C163 1.397 . S
C164 C165 1.391 . S
C165 C164 1.391 . S
C165 C166 1.405 . S
C166 H146 0.950 . S
C166 C165 1.405 . S
C166 C167 1.367 . S
C167 H147 0.950 . S
C167 C162 1.386 . S
C167 C166 1.367 . S
C168 C162 1.483 . S
C168 C169 1.382 . S
C168 C170 1.403 . S
C169 H148 0.950 . S
C169 C168 1.382 . S
C169 C185 1.411 1_455 S
C170 C168 1.403 . S
C170 C171 1.489 . S
C170 C184 1.411 . S
C171 C170 1.489 . S
C171 C172 1.383 . S
C171 C176 1.382 . S
C172 H149 0.950 . S
C172 C171 1.383 . S
C172 C173 1.395 . S
C173 H150 0.950 . S
C173 C172 1.395 . S
C173 C174 1.288 . S
C174 C173 1.288 . S
C174 C175 1.392 . S
C175 H151 0.951 . S
C175 C174 1.392 . S
C175 C176 1.392 . S
C176 H152 0.949 . S
C176 C171 1.382 . S
C176 C175 1.392 . S
C177 C178 1.376 . S
C177 C182 1.386 . S
C177 C183 1.484 1_655 S
C178 H153 0.949 . S
C178 C177 1.376 . S
C178 C179 1.397 . S
C179 H154 0.950 . S
C179 C178 1.397 . S
C179 C180 1.391 . S
C180 C179 1.391 . S
C180 C181 1.405 . S
C181 H155 0.950 . S
C181 C180 1.405 . S
C181 C182 1.367 . S
C182 H156 0.950 . S
C182 C177 1.386 . S
C182 C181 1.367 . S
C183 C177 1.484 1_455 S
C183 C184 1.379 . S
C183 C185 1.404 1_455 S
C184 H157 0.950 . S
C184 C170 1.411 . S
C184 C183 1.379 . S
C185 C169 1.411 1_655 S
C185 C183 1.404 1_655 S
C185 C186 1.489 . S
C186 C185 1.489 . S
C186 C187 1.383 . S
C186 C191 1.382 . S
C187 H158 0.950 . S
C187 C186 1.383 . S
C187 C188 1.395 . S
C188 H159 0.950 . S
C188 C187 1.395 . S
C188 C189 1.288 . S
C189 C188 1.288 . S
C189 C190 1.392 . S
C190 H160 0.951 . S
C190 C189 1.392 . S
C190 C191 1.392 . S
C191 H161 0.949 . S
C191 C186 1.382 . S
C191 C190 1.392 . S
H192 C211 0.949 . S
H193 C212 0.950 . S
H194 C214 0.951 . S
H195 C215 0.950 . S
H196 C217 0.950 . S
H197 C220 0.950 . S
H198 C221 0.950 . S
H199 C223 0.951 . S
H200 C224 0.949 . S
H201 C226 0.949 . S
H202 C227 0.950 . S
H203 C229 0.950 . S
H204 C230 0.950 . S
H205 C232 0.950 . S
H206 C235 0.950 . S
H207 C236 0.950 . S
H208 C238 0.951 . S
H209 C239 0.938 1_545 S
C210 C211 1.376 . S
C210 C215 1.386 1_554 S
C210 C216 1.483 1_554 S
C211 H192 0.949 . S
C211 C210 1.376 . S
C211 C212 1.397 . S
C212 H193 0.950 . S
C212 C211 1.397 . S
C212 C213 1.391 . S
C213 C212 1.391 . S
C213 C214 1.405 . S
C214 H194 0.951 . S
C214 C213 1.405 . S
C214 C215 1.367 1_554 S
C215 H195 0.950 . S
C215 C210 1.386 1_556 S
C215 C214 1.367 1_556 S
C216 C210 1.483 1_556 S
C216 C217 1.382 1_556 S
C216 C218 1.403 . S
C217 H196 0.950 . S
C217 C216 1.382 1_554 S
C217 C233 1.411 . S
C218 C216 1.403 . S
C218 C219 1.489 . S
C218 C232 1.411 . S
C219 C218 1.489 . S
C219 C220 1.383 . S
C219 C224 1.382 . S
C220 H197 0.950 . S
C220 C219 1.383 . S
C220 C221 1.395 . S
C221 H198 0.950 . S
C221 C220 1.395 . S
C221 C222 1.288 . S
C222 C221 1.288 . S
C222 C223 1.392 . S
C223 H199 0.951 . S
C223 C222 1.392 . S
C223 C224 1.392 . S
C224 H200 0.949 . S
C224 C219 1.382 . S
C224 C223 1.392 . S
C225 C226 1.376 . S
C225 C230 1.386 . S
C225 C231 1.483 . S
C226 H201 0.949 . S
C226 C225 1.376 . S
C226 C227 1.397 . S
C227 H202 0.950 . S
C227 C226 1.397 . S
C227 C228 1.391 . S
C228 C227 1.391 . S
C228 C229 1.405 . S
C229 H203 0.950 . S
C229 C228 1.405 . S
C229 C230 1.367 . S
C230 H204 0.950 . S
C230 C225 1.386 . S
C230 C229 1.367 . S
C231 C225 1.483 . S
C231 C232 1.382 1_565 S
C231 C233 1.403 1_566 S
C232 H205 0.950 . S
C232 C218 1.411 . S
C232 C231 1.382 1_545 S
C233 C217 1.411 . S
C233 C231 1.403 1_544 S
C233 C234 1.489 1_545 S
C234 C233 1.489 1_565 S
C234 C235 1.383 . S
C234 C239 1.382 . S
C235 H206 0.950 . S
C235 C234 1.383 . S
C235 C236 1.395 . S
C236 H207 0.950 . S
C236 C235 1.395 . S
C236 C237 1.288 . S
C237 C236 1.288 . S
C237 C238 1.392 . S
C238 H208 0.951 . S
C238 C237 1.392 . S
C238 C239 1.392 . S
C239 H209 0.938 1_565 S
C239 C234 1.382 . S
C239 C238 1.392 . S
H240 C259 0.949 . S
H241 C260 0.950 . S
H242 C262 0.950 . S
H243 C263 0.950 . S
H244 C265 0.950 . S
H245 C268 0.950 . S
H246 C269 0.950 . S
H247 C271 0.951 . S
H248 C272 0.949 . S
H249 C274 0.949 . S
H250 C275 0.950 . S
H251 C277 0.950 . S
H252 C278 0.950 . S
H253 C280 0.950 . S
H254 C283 0.950 . S
H255 C284 0.950 . S
H256 C286 0.951 . S
H257 C287 0.949 . S
C258 C259 1.376 . S
C258 C263 1.386 . S
C258 C264 1.483 . S
C259 H240 0.949 . S
C259 C258 1.376 . S
C259 C260 1.397 . S
C260 H241 0.950 . S
C260 C259 1.397 . S
C260 C261 1.391 . S
C261 C260 1.391 . S
C261 C262 1.405 . S
C262 H242 0.950 . S
C262 C261 1.405 . S
C262 C263 1.367 . S
C263 H243 0.950 . S
C263 C258 1.386 . S
C263 C262 1.367 . S
C264 C258 1.483 . S
C264 C265 1.382 . S
C264 C266 1.403 . S
C265 H244 0.950 . S
C265 C264 1.382 . S
C265 C281 1.411 . S
C266 C264 1.403 . S
C266 C267 1.489 . S
C266 C280 1.411 . S
C267 C266 1.489 . S
C267 C268 1.383 . S
C267 C272 1.382 . S
C268 H245 0.950 . S
C268 C267 1.383 . S
C268 C269 1.395 . S
C269 H246 0.950 . S
C269 C268 1.395 . S
C269 C270 1.288 . S
C270 C269 1.288 . S
C270 C271 1.392 . S
C271 H247 0.951 . S
C271 C270 1.392 . S
C271 C272 1.392 . S
C272 H248 0.949 . S
C272 C267 1.382 . S
C272 C271 1.392 . S
C273 C274 1.376 . S
C273 C278 1.386 . S
C273 C279 1.483 . S
C274 H249 0.949 . S
C274 C273 1.376 . S
C274 C275 1.397 . S
C275 H250 0.950 . S
C275 C274 1.397 . S
C275 C276 1.391 . S
C276 C275 1.391 . S
C276 C277 1.405 . S
C277 H251 0.950 . S
C277 C276 1.405 . S
C277 C278 1.367 . S
C278 H252 0.950 . S
C278 C273 1.386 . S
C278 C277 1.367 . S
C279 C273 1.483 . S
C279 C280 1.382 . S
C279 C281 1.403 . S
C280 H253 0.950 . S
C280 C266 1.411 . S
C280 C279 1.382 . S
C281 C265 1.411 . S
C281 C279 1.403 . S
C281 C282 1.489 . S
C282 C281 1.489 . S
C282 C283 1.383 . S
C282 C287 1.382 . S
C283 H254 0.950 . S
C283 C282 1.383 . S
C283 C284 1.395 . S
C284 H255 0.950 . S
C284 C283 1.395 . S
C284 C285 1.288 . S
C285 C284 1.288 . S
C285 C286 1.392 . S
C286 H256 0.951 . S
C286 C285 1.392 . S
C286 C287 1.392 . S
C287 H257 0.949 . S
C287 C282 1.382 . S
C287 C286 1.392 . S
In288 O289 2.294 . S
In288 O290 2.326 . S
In288 O294 2.266 . S
In288 O295 2.326 . S
In288 O296 2.266 . S
In288 O297 2.326 . S
In288 O299 2.294 . S
In288 O300 2.326 . S
O289 In288 2.294 . S
O289 C298 1.240 . S
O290 In288 2.326 . S
O290 C298 1.252 . S
C291 O294 1.252 . S
C291 O295 1.260 . S
C292 O299 1.240 . S
C292 O300 1.252 . S
C293 O296 1.252 . S
C293 O297 1.260 . S
O294 In288 2.266 . S
O294 C291 1.252 . S
O295 In288 2.326 . S
O295 C291 1.260 . S
O296 In288 2.266 . S
O296 C293 1.252 . S
O297 In288 2.326 . S
O297 C293 1.260 . S
C298 O289 1.240 . S
C298 O290 1.252 . S
O299 In288 2.294 . S
O299 C292 1.240 . S
O300 In288 2.326 . S
O300 C292 1.252 . S
In301 O302 2.294 . S
In301 O303 2.326 . S
In301 O307 2.266 . S
In301 O308 2.326 . S
In301 O309 2.266 . S
In301 O310 2.326 . S
In301 O312 2.294 . S
In301 O313 2.326 . S
O302 In301 2.294 . S
O302 C311 1.240 . S
O303 In301 2.326 . S
O303 C311 1.252 . S
C304 O307 1.252 . S
C304 O308 1.260 . S
C305 O312 1.240 . S
C305 O313 1.252 . S
C306 O309 1.252 . S
C306 O310 1.260 . S
O307 In301 2.266 . S
O307 C304 1.252 . S
O308 In301 2.326 . S
O308 C304 1.260 . S
O309 In301 2.266 . S
O309 C306 1.252 . S
O310 In301 2.326 . S
O310 C306 1.260 . S
C311 O302 1.240 . S
C311 O303 1.252 . S
O312 In301 2.294 . S
O312 C305 1.240 . S
O313 In301 2.326 . S
O313 C305 1.252 . S
In314 O315 2.294 . S
In314 O316 2.326 . S
In314 O320 2.266 . S
In314 O321 2.326 . S
In314 O322 2.266 . S
In314 O323 2.326 . S
In314 O325 2.294 . S
In314 O326 2.326 . S
O315 In314 2.294 . S
O315 C324 1.240 . S
O316 In314 2.326 . S
O316 C324 1.252 . S
C317 O320 1.252 . S
C317 O321 1.260 . S
C318 O325 1.240 . S
C318 O326 1.252 . S
C319 O322 1.252 . S
C319 O323 1.260 . S
O320 In314 2.266 . S
O320 C317 1.252 . S
O321 In314 2.326 . S
O321 C317 1.260 . S
O322 In314 2.266 . S
O322 C319 1.252 . S
O323 In314 2.326 . S
O323 C319 1.260 . S
C324 O315 1.240 . S
C324 O316 1.252 . S
O325 In314 2.294 . S
O325 C318 1.240 . S
O326 In314 2.326 . S
O326 C318 1.252 . S
In327 O328 2.294 . S
In327 O329 2.326 . S
In327 O333 2.266 . S
In327 O334 2.326 . S
In327 O335 2.266 . S
In327 O336 2.326 . S
In327 O338 2.294 . S
In327 O339 2.326 . S
O328 In327 2.294 . S
O328 C337 1.240 . S
O329 In327 2.326 . S
O329 C337 1.252 . S
C330 O333 1.252 . S
C330 O334 1.260 . S
C331 O338 1.240 . S
C331 O339 1.252 . S
C332 O335 1.252 . S
C332 O336 1.260 . S
O333 In327 2.266 . S
O333 C330 1.252 . S
O334 In327 2.326 . S
O334 C330 1.260 . S
O335 In327 2.266 . S
O335 C332 1.252 . S
O336 In327 2.326 . S
O336 C332 1.260 . S
C337 O328 1.240 . S
C337 O329 1.252 . S
O338 In327 2.294 . S
O338 C331 1.240 . S
O339 In327 2.326 . S
O339 C331 1.252 . S
In340 O341 2.294 . S
In340 O342 2.326 . S
In340 O346 2.266 . S
In340 O347 2.326 . S
In340 O348 2.266 . S
In340 O349 2.326 . S
In340 O351 2.294 . S
In340 O352 2.326 . S
O341 In340 2.294 . S
O341 C350 1.240 . S
O342 In340 2.326 . S
O342 C350 1.252 . S
C343 O346 1.252 . S
C343 O347 1.260 . S
C344 O351 1.240 . S
C344 O352 1.252 . S
C345 O348 1.252 . S
C345 O349 1.260 . S
O346 In340 2.266 . S
O346 C343 1.252 . S
O347 In340 2.326 . S
O347 C343 1.260 . S
O348 In340 2.266 . S
O348 C345 1.252 . S
O349 In340 2.326 . S
O349 C345 1.260 . S
C350 O341 1.240 . S
C350 O342 1.252 . S
O351 In340 2.294 . S
O351 C344 1.240 . S
O352 In340 2.326 . S
O352 C344 1.252 . S
In353 O354 2.294 . S
In353 O355 2.326 . S
In353 O359 2.266 . S
In353 O360 2.326 . S
In353 O361 2.266 . S
In353 O362 2.326 . S
In353 O364 2.294 . S
In353 O365 2.326 . S
O354 In353 2.294 . S
O354 C363 1.240 . S
O355 In353 2.326 . S
O355 C363 1.252 . S
C356 O359 1.252 . S
C356 O360 1.260 . S
C357 O364 1.240 . S
C357 O365 1.252 . S
C358 O361 1.252 . S
C358 O362 1.260 . S
O359 In353 2.266 . S
O359 C356 1.252 . S
O360 In353 2.326 . S
O360 C356 1.260 . S
O361 In353 2.266 . S
O361 C358 1.252 . S
O362 In353 2.326 . S
O362 C358 1.260 . S
C363 O354 1.240 . S
C363 O355 1.252 . S
O364 In353 2.294 . S
O364 C357 1.240 . S
O365 In353 2.326 . S
O365 C357 1.252 . S
C366 C367 1.349 . S
C366 C368 1.327 . S
C366 H391 0.950 . S
C367 C366 1.349 . S
C367 C383 1.349 . S
C368 C366 1.327 . S
C368 C387 1.429 . S
C368 H392 0.950 . S
C369 C386 1.574 . S
C369 C388 1.368 . S
C369 H393 0.949 . S
H370 C374 0.949 . S
C371 C372 1.349 . S
C371 C373 1.327 . S
C371 H394 0.950 . S
C372 C371 1.349 . S
C372 C384 1.349 . S
C373 C371 1.327 . S
C373 C389 1.429 . S
C373 H395 0.950 . S
C374 H370 0.949 . S
C374 C382 1.574 . S
C374 C390 1.368 . S
H375 C383 0.950 . S
H376 C381 0.950 . S
H377 C382 0.949 . S
H378 C384 0.950 . S
H379 C385 0.950 . S
H380 C386 0.949 . S
C381 H376 0.950 . S
C381 C383 1.327 . S
C381 C387 1.429 . S
C382 C374 1.574 . S
C382 H377 0.949 . S
C382 C388 1.368 . S
C383 C367 1.349 . S
C383 H375 0.950 . S
C383 C381 1.327 . S
C384 C372 1.349 . S
C384 H378 0.950 . S
C384 C385 1.327 . S
C385 H379 0.950 . S
C385 C384 1.327 . S
C385 C389 1.429 . S
C386 C369 1.574 . S
C386 H380 0.949 . S
C386 C390 1.368 . S
C387 C368 1.429 . S
C387 C381 1.429 . S
C387 C388 1.523 . S
C388 C369 1.368 . S
C388 C382 1.368 . S
C388 C387 1.523 . S
C389 C373 1.429 . S
C389 C385 1.429 . S
C389 C390 1.523 . S
C390 C374 1.368 . S
C390 C386 1.368 . S
C390 C389 1.523 . S
H391 C366 0.950 . S
H392 C368 0.950 . S
H393 C369 0.949 . S
H394 C371 0.950 . S
H395 C373 0.950 . S
C396 C397 1.349 . S
C396 C398 1.327 . S
C396 H421 0.950 . S
C397 C396 1.349 . S
C397 C413 1.349 . S
C398 C396 1.327 . S
C398 C417 1.429 . S
C398 H422 0.950 . S
C399 C416 1.574 . S
C399 C418 1.368 . S
C399 H423 0.949 . S
H400 C404 0.949 . S
C401 C402 1.349 . S
C401 C403 1.327 . S
C401 H424 0.950 . S
C402 C401 1.349 . S
C402 C414 1.349 . S
C403 C401 1.327 . S
C403 C419 1.429 . S
C403 H425 0.950 . S
C404 H400 0.949 . S
C404 C412 1.574 . S
C404 C420 1.368 . S
H405 C413 0.950 . S
H406 C411 0.950 . S
H407 C412 0.949 . S
H408 C414 0.950 . S
H409 C415 0.950 . S
H410 C416 0.949 . S
C411 H406 0.950 . S
C411 C413 1.327 . S
C411 C417 1.429 . S
C412 C404 1.574 . S
C412 H407 0.949 . S
C412 C418 1.368 . S
C413 C397 1.349 . S
C413 H405 0.950 . S
C413 C411 1.327 . S
C414 C402 1.349 . S
C414 H408 0.950 . S
C414 C415 1.327 . S
C415 H409 0.950 . S
C415 C414 1.327 . S
C415 C419 1.429 . S
C416 C399 1.574 . S
C416 H410 0.949 . S
C416 C420 1.368 . S
C417 C398 1.429 . S
C417 C411 1.429 . S
C417 C418 1.523 . S
C418 C399 1.368 . S
C418 C412 1.368 . S
C418 C417 1.523 . S
C419 C403 1.429 . S
C419 C415 1.429 . S
C419 C420 1.523 . S
C420 C404 1.368 . S
C420 C416 1.368 . S
C420 C419 1.523 . S
H421 C396 0.950 . S
H422 C398 0.950 . S
H423 C399 0.949 . S
H424 C401 0.950 . S
H425 C403 0.950 . S
C426 C427 1.349 . S
C426 C428 1.327 . S
C426 H451 0.950 . S
C427 C426 1.349 . S
C427 C443 1.349 . S
C428 C426 1.327 . S
C428 C447 1.429 . S
C428 H452 0.950 . S
C429 C446 1.574 . S
C429 C448 1.368 . S
C429 H453 0.949 . S
H430 C434 0.949 . S
C431 C432 1.349 . S
C431 C433 1.327 . S
C431 H454 0.950 . S
C432 C431 1.349 . S
C432 C444 1.349 . S
C433 C431 1.327 . S
C433 C449 1.429 . S
C433 H455 0.950 . S
C434 H430 0.949 . S
C434 C442 1.574 . S
C434 C450 1.368 . S
H435 C443 0.950 . S
H436 C441 0.950 . S
H437 C442 0.949 . S
H438 C444 0.950 . S
H439 C445 0.950 . S
H440 C446 0.949 . S
C441 H436 0.950 . S
C441 C443 1.327 . S
C441 C447 1.429 . S
C442 C434 1.574 . S
C442 H437 0.949 . S
C442 C448 1.368 . S
C443 C427 1.349 . S
C443 H435 0.950 . S
C443 C441 1.327 . S
C444 C432 1.349 . S
C444 H438 0.950 . S
C444 C445 1.327 . S
C445 H439 0.950 . S
C445 C444 1.327 . S
C445 C449 1.429 . S
C446 C429 1.574 . S
C446 H440 0.949 . S
C446 C450 1.368 . S
C447 C428 1.429 . S
C447 C441 1.429 . S
C447 C448 1.523 . S
C448 C429 1.368 . S
C448 C442 1.368 . S
C448 C447 1.523 . S
C449 C433 1.429 . S
C449 C445 1.429 . S
C449 C450 1.523 . S
C450 C434 1.368 . S
C450 C446 1.368 . S
C450 C449 1.523 . S
H451 C426 0.950 . S
H452 C428 0.950 . S
H453 C429 0.949 . S
H454 C431 0.950 . S
H455 C433 0.950 . S
C456 C457 1.349 . S
C456 C458 1.327 . S
C456 H481 0.950 . S
C457 C456 1.349 . S
C457 C473 1.349 . S
C458 C456 1.327 . S
C458 C477 1.429 . S
C458 H482 0.950 . S
C459 C476 1.574 . S
C459 C478 1.368 . S
C459 H483 0.949 . S
H460 C464 0.949 . S
C461 C462 1.349 . S
C461 C463 1.327 . S
C461 H484 0.950 . S
C462 C461 1.349 . S
C462 C474 1.349 . S
C463 C461 1.327 . S
C463 C479 1.429 . S
C463 H485 0.950 . S
C464 H460 0.949 . S
C464 C472 1.574 . S
C464 C480 1.368 . S
H465 C473 0.950 . S
H466 C471 0.950 . S
H467 C472 0.949 . S
H468 C474 0.950 . S
H469 C475 0.950 . S
H470 C476 0.949 . S
C471 H466 0.950 . S
C471 C473 1.327 . S
C471 C477 1.429 . S
C472 C464 1.574 . S
C472 H467 0.949 . S
C472 C478 1.368 . S
C473 C457 1.349 . S
C473 H465 0.950 . S
C473 C471 1.327 . S
C474 C462 1.349 . S
C474 H468 0.950 . S
C474 C475 1.327 . S
C475 H469 0.950 . S
C475 C474 1.327 . S
C475 C479 1.429 . S
C476 C459 1.574 . S
C476 H470 0.949 . S
C476 C480 1.368 . S
C477 C458 1.429 . S
C477 C471 1.429 . S
C477 C478 1.523 . S
C478 C459 1.368 . S
C478 C472 1.368 . S
C478 C477 1.523 . S
C479 C463 1.429 . S
C479 C475 1.429 . S
C479 C480 1.523 . S
C480 C464 1.368 . S
C480 C476 1.368 . S
C480 C479 1.523 . S
H481 C456 0.950 . S
H482 C458 0.950 . S
H483 C459 0.949 . S
H484 C461 0.950 . S
H485 C463 0.950 . S
C486 C487 1.349 . S
C486 C488 1.327 . S
C486 H511 0.950 . S
C487 C486 1.349 . S
C487 C503 1.349 . S
C488 C486 1.327 . S
C488 C507 1.429 . S
C488 H512 0.950 . S
C489 C506 1.574 . S
C489 C508 1.368 . S
C489 H513 0.949 . S
H490 C494 0.949 . S
C491 C492 1.349 . S
C491 C493 1.327 . S
C491 H514 0.950 . S
C492 C491 1.349 . S
C492 C504 1.349 . S
C493 C491 1.327 . S
C493 C509 1.429 . S
C493 H515 0.950 . S
C494 H490 0.949 . S
C494 C502 1.574 . S
C494 C510 1.368 . S
H495 C503 0.950 . S
H496 C501 0.950 . S
H497 C502 0.949 . S
H498 C504 0.950 . S
H499 C505 0.950 . S
H500 C506 0.949 . S
C501 H496 0.950 . S
C501 C503 1.327 . S
C501 C507 1.429 . S
C502 C494 1.574 . S
C502 H497 0.949 . S
C502 C508 1.368 . S
C503 C487 1.349 . S
C503 H495 0.950 . S
C503 C501 1.327 . S
C504 C492 1.349 . S
C504 H498 0.950 . S
C504 C505 1.327 . S
C505 H499 0.950 . S
C505 C504 1.327 . S
C505 C509 1.429 . S
C506 C489 1.574 . S
C506 H500 0.949 . S
C506 C510 1.368 . S
C507 C488 1.429 . S
C507 C501 1.429 . S
C507 C508 1.523 . S
C508 C489 1.368 . S
C508 C502 1.368 . S
C508 C507 1.523 . S
C509 C493 1.429 . S
C509 C505 1.429 . S
C509 C510 1.523 . S
C510 C494 1.368 . S
C510 C506 1.368 . S
C510 C509 1.523 . S
H511 C486 0.950 . S
H512 C488 0.950 . S
H513 C489 0.949 . S
H514 C491 0.950 . S
H515 C493 0.950 . S
C516 C517 1.349 . S
C516 C518 1.327 . S
C516 H541 0.950 . S
C517 C516 1.349 . S
C517 C533 1.349 . S
C518 C516 1.327 . S
C518 C537 1.429 . S
C518 H542 0.950 . S
C519 C536 1.574 . S
C519 C538 1.368 . S
C519 H543 0.949 . S
H520 C524 0.949 . S
C521 C522 1.349 . S
C521 C523 1.327 . S
C521 H544 0.950 . S
C522 C521 1.349 . S
C522 C534 1.349 . S
C523 C521 1.327 . S
C523 C539 1.429 . S
C523 H545 0.950 . S
C524 H520 0.949 . S
C524 C532 1.574 . S
C524 C540 1.368 . S
H525 C533 0.950 . S
H526 C531 0.950 . S
H527 C532 0.949 . S
H528 C534 0.950 . S
H529 C535 0.950 . S
H530 C536 0.949 . S
C531 H526 0.950 . S
C531 C533 1.327 . S
C531 C537 1.429 . S
C532 C524 1.574 . S
C532 H527 0.949 . S
C532 C538 1.368 . S
C533 C517 1.349 . S
C533 H525 0.950 . S
C533 C531 1.327 . S
C534 C522 1.349 . S
C534 H528 0.950 . S
C534 C535 1.327 . S
C535 H529 0.950 . S
C535 C534 1.327 . S
C535 C539 1.429 . S
C536 C519 1.574 . S
C536 H530 0.949 . S
C536 C540 1.368 . S
C537 C518 1.429 . S
C537 C531 1.429 . S
C537 C538 1.523 . S
C538 C519 1.368 . S
C538 C532 1.368 . S
C538 C537 1.523 . S
C539 C523 1.429 . S
C539 C535 1.429 . S
C539 C540 1.523 . S
C540 C524 1.368 . S
C540 C536 1.368 . S
C540 C539 1.523 . S
H541 C516 0.950 . S
H542 C518 0.950 . S
H543 C519 0.949 . S
H544 C521 0.950 . S
H545 C523 0.950 . S
C546 C547 1.349 . S
C546 C548 1.327 . S
C546 H571 0.950 . S
C547 C546 1.349 . S
C547 C563 1.349 . S
C548 C546 1.327 . S
C548 C567 1.429 . S
C548 H572 0.950 . S
C549 C566 1.574 . S
C549 C568 1.368 . S
C549 H573 0.949 . S
H550 C554 0.949 . S
C551 C552 1.349 . S
C551 C553 1.327 . S
C551 H574 0.950 . S
C552 C551 1.349 . S
C552 C564 1.349 . S
C553 C551 1.327 . S
C553 C569 1.429 . S
C553 H575 0.950 . S
C554 H550 0.949 . S
C554 C562 1.574 . S
C554 C570 1.368 . S
H555 C563 0.950 . S
H556 C561 0.950 . S
H557 C562 0.949 . S
H558 C564 0.950 . S
H559 C565 0.950 . S
H560 C566 0.949 . S
C561 H556 0.950 . S
C561 C563 1.327 . S
C561 C567 1.429 . S
C562 C554 1.574 . S
C562 H557 0.949 . S
C562 C568 1.368 . S
C563 C547 1.349 . S
C563 H555 0.950 . S
C563 C561 1.327 . S
C564 C552 1.349 . S
C564 H558 0.950 . S
C564 C565 1.327 . S
C565 H559 0.950 . S
C565 C564 1.327 . S
C565 C569 1.429 . S
C566 C549 1.574 . S
C566 H560 0.949 . S
C566 C570 1.368 . S
C567 C548 1.429 . S
C567 C561 1.429 . S
C567 C568 1.523 . S
C568 C549 1.368 . S
C568 C562 1.368 . S
C568 C567 1.523 . S
C569 C553 1.429 . S
C569 C565 1.429 . S
C569 C570 1.523 . S
C570 C554 1.368 . S
C570 C566 1.368 . S
C570 C569 1.523 . S
H571 C546 0.950 . S
H572 C548 0.950 . S
H573 C549 0.949 . S
H574 C551 0.950 . S
H575 C553 0.950 . S
C576 C577 1.349 . S
C576 C578 1.327 . S
C576 H601 0.950 . S
C577 C576 1.349 . S
C577 C593 1.349 . S
C578 C576 1.327 . S
C578 C597 1.429 . S
C578 H602 0.950 . S
C579 C596 1.574 . S
C579 C598 1.368 . S
C579 H603 0.949 . S
H580 C584 0.949 . S
C581 C582 1.349 . S
C581 C583 1.327 . S
C581 H604 0.950 . S
C582 C581 1.349 . S
C582 C594 1.349 . S
C583 C581 1.327 . S
C583 C599 1.429 . S
C583 H605 0.950 . S
C584 H580 0.949 . S
C584 C592 1.574 . S
C584 C600 1.368 . S
H585 C593 0.950 . S
H586 C591 0.950 . S
H587 C592 0.949 . S
H588 C594 0.950 . S
H589 C595 0.950 . S
H590 C596 0.949 . S
C591 H586 0.950 . S
C591 C593 1.327 . S
C591 C597 1.429 . S
C592 C584 1.574 . S
C592 H587 0.949 . S
C592 C598 1.368 . S
C593 C577 1.349 . S
C593 H585 0.950 . S
C593 C591 1.327 . S
C594 C582 1.349 . S
C594 H588 0.950 . S
C594 C595 1.327 . S
C595 H589 0.950 . S
C595 C594 1.327 . S
C595 C599 1.429 . S
C596 C579 1.574 . S
C596 H590 0.949 . S
C596 C600 1.368 . S
C597 C578 1.429 . S
C597 C591 1.429 . S
C597 C598 1.523 . S
C598 C579 1.368 . S
C598 C592 1.368 . S
C598 C597 1.523 . S
C599 C583 1.429 . S
C599 C595 1.429 . S
C599 C600 1.523 . S
C600 C584 1.368 . S
C600 C596 1.368 . S
C600 C599 1.523 . S
H601 C576 0.950 . S
H602 C578 0.950 . S
H603 C579 0.949 . S
H604 C581 0.950 . S
H605 C583 0.950 . S
C606 C607 1.349 . S
C606 C608 1.327 . S
C606 H631 0.950 . S
C607 C606 1.349 . S
C607 C623 1.349 . S
C608 C606 1.327 . S
C608 C627 1.429 . S
C608 H632 0.950 . S
C609 C626 1.574 . S
C609 C628 1.368 . S
C609 H633 0.949 . S
H610 C614 0.949 . S
C611 C612 1.349 . S
C611 C613 1.327 . S
C611 H634 0.950 . S
C612 C611 1.349 . S
C612 C624 1.349 . S
C613 C611 1.327 . S
C613 C629 1.429 . S
C613 H635 0.950 . S
C614 H610 0.949 . S
C614 C622 1.574 . S
C614 C630 1.368 . S
H615 C623 0.950 . S
H616 C621 0.950 . S
H617 C622 0.949 . S
H618 C624 0.950 . S
H619 C625 0.950 . S
H620 C626 0.949 . S
C621 H616 0.950 . S
C621 C623 1.327 . S
C621 C627 1.429 . S
C622 C614 1.574 . S
C622 H617 0.949 . S
C622 C628 1.368 . S
C623 C607 1.349 . S
C623 H615 0.950 . S
C623 C621 1.327 . S
C624 C612 1.349 . S
C624 H618 0.950 . S
C624 C625 1.327 . S
C625 H619 0.950 . S
C625 C624 1.327 . S
C625 C629 1.429 . S
C626 C609 1.574 . S
C626 H620 0.949 . S
C626 C630 1.368 . S
C627 C608 1.429 . S
C627 C621 1.429 . S
C627 C628 1.523 . S
C628 C609 1.368 . S
C628 C622 1.368 . S
C628 C627 1.523 . S
C629 C613 1.429 . S
C629 C625 1.429 . S
C629 C630 1.523 . S
C630 C614 1.368 . S
C630 C626 1.368 . S
C630 C629 1.523 . S
H631 C606 0.950 . S
H632 C608 0.950 . S
H633 C609 0.949 . S
H634 C611 0.950 . S
H635 C613 0.950 . S
C636 C637 1.349 . S
C636 C638 1.327 . S
C636 H661 0.950 1_554 S
C637 C636 1.349 . S
C637 C653 1.349 . S
C638 C636 1.327 . S
C638 C657 1.429 . S
C638 H662 0.950 . S
C639 C656 1.574 . S
C639 C658 1.368 . S
C639 H663 0.949 . S
H640 C644 0.949 . S
C641 C642 1.349 . S
C641 C643 1.327 . S
C641 H664 0.950 . S
C642 C641 1.349 . S
C642 C654 1.349 . S
C643 C641 1.327 . S
C643 C659 1.429 . S
C643 H665 0.950 . S
C644 H640 0.949 . S
C644 C652 1.574 . S
C644 C660 1.368 . S
H645 C653 0.950 . S
H646 C651 0.950 . S
H647 C652 0.949 . S
H648 C654 0.950 . S
H649 C655 0.950 . S
H650 C656 0.949 . S
C651 H646 0.950 . S
C651 C653 1.327 . S
C651 C657 1.429 . S
C652 C644 1.574 . S
C652 H647 0.949 . S
C652 C658 1.368 . S
C653 C637 1.349 . S
C653 H645 0.950 . S
C653 C651 1.327 . S
C654 C642 1.349 . S
C654 H648 0.950 . S
C654 C655 1.327 . S
C655 H649 0.950 . S
C655 C654 1.327 . S
C655 C659 1.429 . S
C656 C639 1.574 . S
C656 H650 0.949 . S
C656 C660 1.368 . S
C657 C638 1.429 . S
C657 C651 1.429 . S
C657 C658 1.523 . S
C658 C639 1.368 . S
C658 C652 1.368 . S
C658 C657 1.523 . S
C659 C643 1.429 . S
C659 C655 1.429 . S
C659 C660 1.523 . S
C660 C644 1.368 . S
C660 C656 1.368 . S
C660 C659 1.523 . S
H661 C636 0.950 1_556 S
H662 C638 0.950 . S
H663 C639 0.949 . S
H664 C641 0.950 . S
H665 C643 0.950 . S
C666 C667 1.349 . S
C666 C668 1.327 . S
C666 H691 0.950 . S
C667 C666 1.349 . S
C667 C683 1.349 . S
C668 C666 1.327 . S
C668 C687 1.429 . S
C668 H692 0.950 . S
C669 C686 1.574 . S
C669 C688 1.368 . S
C669 H693 0.949 . S
H670 C674 0.949 . S
C671 C672 1.349 . S
C671 C673 1.327 . S
C671 H694 0.950 . S
C672 C671 1.349 . S
C672 C684 1.349 . S
C673 C671 1.327 . S
C673 C689 1.429 . S
C673 H695 0.950 . S
C674 H670 0.949 . S
C674 C682 1.574 . S
C674 C690 1.368 . S
H675 C683 0.950 . S
H676 C681 0.950 . S
H677 C682 0.949 . S
H678 C684 0.950 . S
H679 C685 0.950 . S
H680 C686 0.949 . S
C681 H676 0.950 . S
C681 C683 1.327 . S
C681 C687 1.429 . S
C682 C674 1.574 . S
C682 H677 0.949 . S
C682 C688 1.368 . S
C683 C667 1.349 . S
C683 H675 0.950 . S
C683 C681 1.327 . S
C684 C672 1.349 . S
C684 H678 0.950 . S
C684 C685 1.327 . S
C685 H679 0.950 . S
C685 C684 1.327 . S
C685 C689 1.429 . S
C686 C669 1.574 . S
C686 H680 0.949 . S
C686 C690 1.368 . S
C687 C668 1.429 . S
C687 C681 1.429 . S
C687 C688 1.523 . S
C688 C669 1.368 . S
C688 C682 1.368 . S
C688 C687 1.523 . S
C689 C673 1.429 . S
C689 C685 1.429 . S
C689 C690 1.523 . S
C690 C674 1.368 . S
C690 C686 1.368 . S
C690 C689 1.523 . S
H691 C666 0.950 . S
H692 C668 0.950 . S
H693 C669 0.949 . S
H694 C671 0.950 . S
H695 C673 0.950 . S
C696 C697 1.349 . S
C696 C698 1.327 . S
C696 H721 0.950 . S
C697 C696 1.349 . S
C697 C713 1.349 . S
C698 C696 1.327 . S
C698 C717 1.429 . S
C698 H722 0.950 . S
C699 C716 1.574 . S
C699 C718 1.368 . S
C699 H723 0.949 . S
H700 C704 0.949 . S
C701 C702 1.349 . S
C701 C703 1.327 . S
C701 H724 0.950 . S
C702 C701 1.349 . S
C702 C714 1.349 . S
C703 C701 1.327 . S
C703 C719 1.429 . S
C703 H725 0.950 . S
C704 H700 0.949 . S
C704 C712 1.574 . S
C704 C720 1.368 . S
H705 C713 0.950 . S
H706 C711 0.950 . S
H707 C712 0.949 . S
H708 C714 0.950 . S
H709 C715 0.950 . S
H710 C716 0.949 . S
C711 H706 0.950 . S
C711 C713 1.327 . S
C711 C717 1.429 . S
C712 C704 1.574 . S
C712 H707 0.949 . S
C712 C718 1.368 . S
C713 C697 1.349 . S
C713 H705 0.950 . S
C713 C711 1.327 . S
C714 C702 1.349 . S
C714 H708 0.950 . S
C714 C715 1.327 . S
C715 H709 0.950 . S
C715 C714 1.327 . S
C715 C719 1.429 . S
C716 C699 1.574 . S
C716 H710 0.949 . S
C716 C720 1.368 . S
C717 C698 1.429 . S
C717 C711 1.429 . S
C717 C718 1.523 . S
C718 C699 1.368 . S
C718 C712 1.368 . S
C718 C717 1.523 . S
C719 C703 1.429 . S
C719 C715 1.429 . S
C719 C720 1.523 . S
C720 C704 1.368 . S
C720 C716 1.368 . S
C720 C719 1.523 . S
H721 C696 0.950 . S
H722 C698 0.950 . S
H723 C699 0.949 . S
H724 C701 0.950 . S
H725 C703 0.950 . S
C726 C727 1.349 . S
C726 C728 1.327 . S
C726 H751 0.950 . S
C727 C726 1.349 . S
C727 C743 1.349 . S
C728 C726 1.327 . S
C728 C747 1.429 . S
C728 H752 0.950 . S
C729 C746 1.574 . S
C729 C748 1.368 . S
C729 H753 0.949 . S
H730 C734 0.949 . S
C731 C732 1.349 . S
C731 C733 1.327 . S
C731 H754 0.950 . S
C732 C731 1.349 . S
C732 C744 1.349 . S
C733 C731 1.327 . S
C733 C749 1.429 . S
C733 H755 0.950 . S
C734 H730 0.949 . S
C734 C742 1.574 . S
C734 C750 1.368 . S
H735 C743 0.950 . S
H736 C741 0.950 . S
H737 C742 0.949 . S
H738 C744 0.950 . S
H739 C745 0.950 . S
H740 C746 0.949 . S
C741 H736 0.950 . S
C741 C743 1.327 . S
C741 C747 1.429 . S
C742 C734 1.574 . S
C742 H737 0.949 . S
C742 C748 1.368 . S
C743 C727 1.349 . S
C743 H735 0.950 . S
C743 C741 1.327 . S
C744 C732 1.349 . S
C744 H738 0.950 . S
C744 C745 1.327 . S
C745 H739 0.950 . S
C745 C744 1.327 . S
C745 C749 1.429 . S
C746 C729 1.574 . S
C746 H740 0.949 . S
C746 C750 1.368 . S
C747 C728 1.429 . S
C747 C741 1.429 . S
C747 C748 1.523 . S
C748 C729 1.368 . S
C748 C742 1.368 . S
C748 C747 1.523 . S
C749 C733 1.429 . S
C749 C745 1.429 . S
C749 C750 1.523 . S
C750 C734 1.368 . S
C750 C746 1.368 . S
C750 C749 1.523 . S
H751 C726 0.950 . S
H752 C728 0.950 . S
H753 C729 0.949 . S
H754 C731 0.950 . S
H755 C733 0.950 . S
C756 C757 1.349 . S
C756 C758 1.327 . S
C756 H781 0.950 . S
C757 C756 1.349 . S
C757 C773 1.349 . S
C758 C756 1.327 . S
C758 C777 1.429 . S
C758 H782 0.950 . S
C759 C776 1.574 . S
C759 C778 1.368 . S
C759 H783 0.949 . S
H760 C764 0.949 . S
C761 C762 1.349 . S
C761 C763 1.327 . S
C761 H784 0.950 . S
C762 C761 1.349 . S
C762 C774 1.349 . S
C763 C761 1.327 . S
C763 C779 1.429 . S
C763 H785 0.950 . S
C764 H760 0.949 . S
C764 C772 1.574 . S
C764 C780 1.368 . S
H765 C773 0.950 . S
H766 C771 0.950 . S
H767 C772 0.949 . S
H768 C774 0.950 . S
H769 C775 0.950 . S
H770 C776 0.949 . S
C771 H766 0.950 . S
C771 C773 1.327 . S
C771 C777 1.429 . S
C772 C764 1.574 . S
C772 H767 0.949 . S
C772 C778 1.368 . S
C773 C757 1.349 . S
C773 H765 0.950 . S
C773 C771 1.327 . S
C774 C762 1.349 . S
C774 H768 0.950 . S
C774 C775 1.327 . S
C775 H769 0.950 . S
C775 C774 1.327 . S
C775 C779 1.429 . S
C776 C759 1.574 . S
C776 H770 0.949 . S
C776 C780 1.368 . S
C777 C758 1.429 . S
C777 C771 1.429 . S
C777 C778 1.523 . S
C778 C759 1.368 . S
C778 C772 1.368 . S
C778 C777 1.523 . S
C779 C763 1.429 . S
C779 C775 1.429 . S
C779 C780 1.523 . S
C780 C764 1.368 . S
C780 C776 1.368 . S
C780 C779 1.523 . S
H781 C756 0.950 . S
H782 C758 0.950 . S
H783 C759 0.949 . S
H784 C761 0.950 . S
H785 C763 0.950 . S
C786 C787 1.349 . S
C786 C788 1.327 . S
C786 H811 0.950 . S
C787 C786 1.349 . S
C787 C803 1.349 . S
C788 C786 1.327 . S
C788 C807 1.429 . S
C788 H812 0.950 . S
C789 C806 1.574 . S
C789 C808 1.368 . S
C789 H813 0.949 . S
H790 C794 0.949 . S
C791 C792 1.349 . S
C791 C793 1.327 . S
C791 H814 0.950 . S
C792 C791 1.349 . S
C792 C804 1.349 . S
C793 C791 1.327 . S
C793 C809 1.429 . S
C793 H815 0.950 . S
C794 H790 0.949 . S
C794 C802 1.574 . S
C794 C810 1.368 . S
H795 C803 0.950 . S
H796 C801 0.950 . S
H797 C802 0.949 . S
H798 C804 0.950 . S
H799 C805 0.950 . S
H800 C806 0.949 . S
C801 H796 0.950 . S
C801 C803 1.327 . S
C801 C807 1.429 . S
C802 C794 1.574 . S
C802 H797 0.949 . S
C802 C808 1.368 . S
C803 C787 1.349 . S
C803 H795 0.950 . S
C803 C801 1.327 . S
C804 C792 1.349 . S
C804 H798 0.950 . S
C804 C805 1.327 . S
C805 H799 0.950 . S
C805 C804 1.327 . S
C805 C809 1.429 . S
C806 C789 1.574 . S
C806 H800 0.949 . S
C806 C810 1.368 . S
C807 C788 1.429 . S
C807 C801 1.429 . S
C807 C808 1.523 . S
C808 C789 1.368 . S
C808 C802 1.368 . S
C808 C807 1.523 . S
C809 C793 1.429 . S
C809 C805 1.429 . S
C809 C810 1.523 . S
C810 C794 1.368 . S
C810 C806 1.368 . S
C810 C809 1.523 . S
H811 C786 0.950 . S
H812 C788 0.950 . S
H813 C789 0.949 . S
H814 C791 0.950 . S
H815 C793 0.950 . S
C816 C817 1.349 . S
C816 C818 1.327 . S
C816 H841 0.950 . S
C817 C816 1.349 . S
C817 C833 1.349 . S
C818 C816 1.327 . S
C818 C837 1.429 . S
C818 H842 0.950 . S
C819 C836 1.574 . S
C819 C838 1.368 . S
C819 H843 0.949 . S
H820 C824 0.949 . S
C821 C822 1.349 . S
C821 C823 1.327 . S
C821 H844 0.950 . S
C822 C821 1.349 . S
C822 C834 1.349 . S
C823 C821 1.327 . S
C823 C839 1.429 1_554 S
C823 H845 0.950 1_554 S
C824 H820 0.949 . S
C824 C832 1.574 . S
C824 C840 1.368 . S
H825 C833 0.950 . S
H826 C831 0.950 . S
H827 C832 0.949 . S
H828 C834 0.950 . S
H829 C835 0.950 . S
H830 C836 0.949 . S
C831 H826 0.950 . S
C831 C833 1.327 . S
C831 C837 1.429 . S
C832 C824 1.574 . S
C832 H827 0.949 . S
C832 C838 1.368 . S
C833 C817 1.349 . S
C833 H825 0.950 . S
C833 C831 1.327 . S
C834 C822 1.349 . S
C834 H828 0.950 . S
C834 C835 1.327 . S
C835 H829 0.950 . S
C835 C834 1.327 . S
C835 C839 1.430 1_554 S
C836 C819 1.574 . S
C836 H830 0.949 . S
C836 C840 1.368 . S
C837 C818 1.429 . S
C837 C831 1.429 . S
C837 C838 1.523 . S
C838 C819 1.368 . S
C838 C832 1.368 . S
C838 C837 1.523 . S
C839 C823 1.429 1_556 S
C839 C835 1.430 1_556 S
C839 C840 1.521 . S
C840 C824 1.368 . S
C840 C836 1.368 . S
C840 C839 1.521 . S
H841 C816 0.950 . S
H842 C818 0.950 . S
H843 C819 0.949 . S
H844 C821 0.950 . S
H845 C823 0.950 1_556 S
C846 C847 1.349 . S
C846 C848 1.327 . S
C846 H871 0.950 . S
C847 C846 1.349 . S
C847 C863 1.349 . S
C848 C846 1.327 . S
C848 C867 1.429 . S
C848 H872 0.950 . S
C849 C866 1.574 . S
C849 C868 1.368 . S
C849 H873 0.949 . S
H850 C854 0.949 . S
C851 C852 1.349 . S
C851 C853 1.327 . S
C851 H874 0.950 . S
C852 C851 1.349 . S
C852 C864 1.349 . S
C853 C851 1.327 . S
C853 C869 1.429 . S
C853 H875 0.950 . S
C854 H850 0.949 . S
C854 C862 1.574 . S
C854 C870 1.368 . S
H855 C863 0.950 . S
H856 C861 0.950 . S
H857 C862 0.949 . S
H858 C864 0.950 . S
H859 C865 0.950 . S
H860 C866 0.949 . S
C861 H856 0.950 . S
C861 C863 1.327 . S
C861 C867 1.429 . S
C862 C854 1.574 . S
C862 H857 0.949 . S
C862 C868 1.368 . S
C863 C847 1.349 . S
C863 H855 0.950 . S
C863 C861 1.327 . S
C864 C852 1.349 . S
C864 H858 0.950 . S
C864 C865 1.327 . S
C865 H859 0.950 . S
C865 C864 1.327 . S
C865 C869 1.429 . S
C866 C849 1.574 . S
C866 H860 0.949 . S
C866 C870 1.368 . S
C867 C848 1.429 . S
C867 C861 1.429 . S
C867 C868 1.523 . S
C868 C849 1.368 . S
C868 C862 1.368 . S
C868 C867 1.523 . S
C869 C853 1.429 . S
C869 C865 1.429 . S
C869 C870 1.523 . S
C870 C854 1.368 . S
C870 C866 1.368 . S
C870 C869 1.523 . S
H871 C846 0.950 . S
H872 C848 0.950 . S
H873 C849 0.949 . S
H874 C851 0.950 . S
H875 C853 0.950 . S
C876 C877 1.349 . S
C876 C878 1.327 . S
C876 H901 0.950 . S
C877 C876 1.349 . S
C877 C893 1.349 . S
C878 C876 1.327 . S
C878 C897 1.429 . S
C878 H902 0.950 . S
C879 C896 1.574 . S
C879 C898 1.368 . S
C879 H903 0.949 . S
H880 C884 0.949 . S
C881 C882 1.349 . S
C881 C883 1.327 . S
C881 H904 0.950 . S
C882 C881 1.349 . S
C882 C894 1.349 . S
C883 C881 1.327 . S
C883 C899 1.429 . S
C883 H905 0.950 . S
C884 H880 0.949 . S
C884 C892 1.574 . S
C884 C900 1.368 . S
H885 C893 0.950 . S
H886 C891 0.950 . S
H887 C892 0.949 . S
H888 C894 0.950 . S
H889 C895 0.950 . S
H890 C896 0.949 . S
C891 H886 0.950 . S
C891 C893 1.327 . S
C891 C897 1.429 . S
C892 C884 1.574 . S
C892 H887 0.949 . S
C892 C898 1.368 . S
C893 C877 1.349 . S
C893 H885 0.950 . S
C893 C891 1.327 . S
C894 C882 1.349 . S
C894 H888 0.950 . S
C894 C895 1.327 . S
C895 H889 0.950 . S
C895 C894 1.327 . S
C895 C899 1.429 . S
C896 C879 1.574 . S
C896 H890 0.949 . S
C896 C900 1.368 . S
C897 C878 1.429 . S
C897 C891 1.429 . S
C897 C898 1.523 . S
C898 C879 1.368 . S
C898 C892 1.368 . S
C898 C897 1.523 . S
C899 C883 1.429 . S
C899 C895 1.429 . S
C899 C900 1.523 . S
C900 C884 1.368 . S
C900 C896 1.368 . S
C900 C899 1.523 . S
H901 C876 0.950 . S
H902 C878 0.950 . S
H903 C879 0.949 . S
H904 C881 0.950 . S
H905 C883 0.950 . S
C906 C907 1.349 . S
C906 C908 1.327 . S
C906 H931 0.950 . S
C907 C906 1.349 . S
C907 C923 1.349 . S
C908 C906 1.327 . S
C908 C927 1.429 . S
C908 H932 0.950 . S
C909 C926 1.574 . S
C909 C928 1.368 . S
C909 H933 0.949 . S
H910 C914 0.949 . S
C911 C912 1.349 . S
C911 C913 1.327 . S
C911 H934 0.950 . S
C912 C911 1.349 . S
C912 C924 1.349 . S
C913 C911 1.327 . S
C913 C929 1.429 . S
C913 H935 0.950 . S
C914 H910 0.949 . S
C914 C922 1.574 . S
C914 C930 1.368 . S
H915 C923 0.950 . S
H916 C921 0.950 . S
H917 C922 0.949 . S
H918 C924 0.950 . S
H919 C925 0.950 . S
H920 C926 0.949 . S
C921 H916 0.950 . S
C921 C923 1.327 . S
C921 C927 1.429 . S
C922 C914 1.574 . S
C922 H917 0.949 . S
C922 C928 1.368 . S
C923 C907 1.349 . S
C923 H915 0.950 . S
C923 C921 1.327 . S
C924 C912 1.349 . S
C924 H918 0.950 . S
C924 C925 1.327 . S
C925 H919 0.950 . S
C925 C924 1.327 . S
C925 C929 1.429 . S
C926 C909 1.574 . S
C926 H920 0.949 . S
C926 C930 1.368 . S
C927 C908 1.429 . S
C927 C921 1.429 . S
C927 C928 1.523 . S
C928 C909 1.368 . S
C928 C922 1.368 . S
C928 C927 1.523 . S
C929 C913 1.429 . S
C929 C925 1.429 . S
C929 C930 1.523 . S
C930 C914 1.368 . S
C930 C926 1.368 . S
C930 C929 1.523 . S
H931 C906 0.950 . S
H932 C908 0.950 . S
H933 C909 0.949 . S
H934 C911 0.950 . S
H935 C913 0.950 . S
C936 C937 1.349 . S
C936 C938 1.327 . S
C936 H961 0.950 . S
C937 C936 1.349 . S
C937 C953 1.349 . S
C938 C936 1.327 . S
C938 C957 1.429 . S
C938 H962 0.950 . S
C939 C956 1.574 . S
C939 C958 1.368 . S
C939 H963 0.949 . S
H940 C944 0.949 . S
C941 C942 1.349 . S
C941 C943 1.327 . S
C941 H964 0.950 . S
C942 C941 1.349 . S
C942 C954 1.349 . S
C943 C941 1.327 . S
C943 C959 1.429 . S
C943 H965 0.950 . S
C944 H940 0.949 . S
C944 C952 1.574 . S
C944 C960 1.368 . S
H945 C953 0.950 . S
H946 C951 0.950 . S
H947 C952 0.949 . S
H948 C954 0.950 . S
H949 C955 0.950 . S
H950 C956 0.949 . S
C951 H946 0.950 . S
C951 C953 1.327 . S
C951 C957 1.429 . S
C952 C944 1.574 . S
C952 H947 0.949 . S
C952 C958 1.368 . S
C953 C937 1.349 . S
C953 H945 0.950 . S
C953 C951 1.327 . S
C954 C942 1.349 . S
C954 H948 0.950 . S
C954 C955 1.327 . S
C955 H949 0.950 . S
C955 C954 1.327 . S
C955 C959 1.429 . S
C956 C939 1.574 . S
C956 H950 0.949 . S
C956 C960 1.368 . S
C957 C938 1.429 . S
C957 C951 1.429 . S
C957 C958 1.523 . S
C958 C939 1.368 . S
C958 C952 1.368 . S
C958 C957 1.523 . S
C959 C943 1.429 . S
C959 C955 1.429 . S
C959 C960 1.523 . S
C960 C944 1.368 . S
C960 C956 1.368 . S
C960 C959 1.523 . S
H961 C936 0.950 . S
H962 C938 0.950 . S
H963 C939 0.949 . S
H964 C941 0.950 . S
H965 C943 0.950 . S
C966 C967 1.349 . S
C966 C968 1.327 . S
C966 H991 0.950 . S
C967 C966 1.349 . S
C967 C983 1.349 . S
C968 C966 1.327 . S
C968 C987 1.429 . S
C968 H992 0.950 . S
C969 C986 1.574 . S
C969 C988 1.368 . S
C969 H993 0.949 . S
H970 C974 0.949 . S
C971 C972 1.349 . S
C971 C973 1.327 . S
C971 H994 0.950 . S
C972 C971 1.349 . S
C972 C984 1.349 . S
C973 C971 1.327 . S
C973 C989 1.429 . S
C973 H995 0.950 . S
C974 H970 0.949 . S
C974 C982 1.574 . S
C974 C990 1.368 . S
H975 C983 0.950 . S
H976 C981 0.950 . S
H977 C982 0.949 . S
H978 C984 0.950 . S
H979 C985 0.950 . S
H980 C986 0.949 . S
C981 H976 0.950 . S
C981 C983 1.327 . S
C981 C987 1.429 . S
C982 C974 1.574 . S
C982 H977 0.949 . S
C982 C988 1.368 . S
C983 C967 1.349 . S
C983 H975 0.950 . S
C983 C981 1.327 . S
C984 C972 1.349 . S
C984 H978 0.950 . S
C984 C985 1.327 . S
C985 H979 0.950 . S
C985 C984 1.327 . S
C985 C989 1.429 . S
C986 C969 1.574 . S
C986 H980 0.949 . S
C986 C990 1.368 . S
C987 C968 1.429 . S
C987 C981 1.429 . S
C987 C988 1.523 . S
C988 C969 1.368 . S
C988 C982 1.368 . S
C988 C987 1.523 . S
C989 C973 1.429 . S
C989 C985 1.429 . S
C989 C990 1.523 . S
C990 C974 1.368 . S
C990 C986 1.368 . S
C990 C989 1.523 . S
H991 C966 0.950 . S
H992 C968 0.950 . S
H993 C969 0.949 . S
H994 C971 0.950 . S
H995 C973 0.950 . S
C996 C997 1.349 . S
C996 C998 1.327 . S
C996 H1021 0.950 . S
C997 C996 1.349 . S
C997 C1013 1.349 . S
C998 C996 1.327 . S
C998 C1017 1.429 . S
C998 H1022 0.950 . S
C999 C1016 1.574 . S
C999 C1018 1.368 . S
C999 H1023 0.949 . S
H1000 C1004 0.949 . S
C1001 C1002 1.349 . S
C1001 C1003 1.327 . S
C1001 H1024 0.950 . S
C1002 C1001 1.349 . S
C1002 C1014 1.349 . S
C1003 C1001 1.327 . S
C1003 C1019 1.429 . S
C1003 H1025 0.950 . S
C1004 H1000 0.949 . S
C1004 C1012 1.574 . S
C1004 C1020 1.368 . S
H1005 C1013 0.950 . S
H1006 C1011 0.950 . S
H1007 C1012 0.949 . S
H1008 C1014 0.950 . S
H1009 C1015 0.950 . S
H1010 C1016 0.949 . S
C1011 H1006 0.950 . S
C1011 C1013 1.327 . S
C1011 C1017 1.429 . S
C1012 C1004 1.574 . S
C1012 H1007 0.949 . S
C1012 C1018 1.368 . S
C1013 C997 1.349 . S
C1013 H1005 0.950 . S
C1013 C1011 1.327 . S
C1014 C1002 1.349 . S
C1014 H1008 0.950 . S
C1014 C1015 1.327 . S
C1015 H1009 0.950 . S
C1015 C1014 1.327 . S
C1015 C1019 1.429 . S
C1016 C999 1.574 . S
C1016 H1010 0.949 . S
C1016 C1020 1.368 . S
C1017 C998 1.429 . S
C1017 C1011 1.429 . S
C1017 C1018 1.523 . S
C1018 C999 1.368 . S
C1018 C1012 1.368 . S
C1018 C1017 1.523 . S
C1019 C1003 1.429 . S
C1019 C1015 1.429 . S
C1019 C1020 1.523 . S
C1020 C1004 1.368 . S
C1020 C1016 1.368 . S
C1020 C1019 1.523 . S
H1021 C996 0.950 . S
H1022 C998 0.950 . S
H1023 C999 0.949 . S
H1024 C1001 0.950 . S
H1025 C1003 0.950 . S
C1026 C1027 1.349 . S
C1026 C1028 1.327 . S
C1026 H1051 0.950 . S
C1027 C1026 1.349 . S
C1027 C1043 1.349 . S
C1028 C1026 1.327 . S
C1028 C1047 1.429 . S
C1028 H1052 0.950 . S
C1029 C1046 1.574 . S
C1029 C1048 1.368 . S
C1029 H1053 0.949 . S
H1030 C1034 0.949 . S
C1031 C1032 1.349 . S
C1031 C1033 1.327 . S
C1031 H1054 0.950 . S
C1032 C1031 1.349 . S
C1032 C1044 1.349 . S
C1033 C1031 1.327 . S
C1033 C1049 1.429 . S
C1033 H1055 0.950 . S
C1034 H1030 0.949 . S
C1034 C1042 1.574 . S
C1034 C1050 1.368 . S
H1035 C1043 0.950 . S
H1036 C1041 0.950 . S
H1037 C1042 0.949 . S
H1038 C1044 0.950 . S
H1039 C1045 0.950 . S
H1040 C1046 0.949 1_556 S
C1041 H1036 0.950 . S
C1041 C1043 1.327 . S
C1041 C1047 1.429 . S
C1042 C1034 1.574 . S
C1042 H1037 0.949 . S
C1042 C1048 1.368 . S
C1043 C1027 1.349 . S
C1043 H1035 0.950 . S
C1043 C1041 1.327 . S
C1044 C1032 1.349 . S
C1044 H1038 0.950 . S
C1044 C1045 1.327 . S
C1045 H1039 0.950 . S
C1045 C1044 1.327 . S
C1045 C1049 1.429 . S
C1046 C1029 1.574 . S
C1046 H1040 0.949 1_554 S
C1046 C1050 1.368 . S
C1047 C1028 1.429 . S
C1047 C1041 1.429 . S
C1047 C1048 1.523 . S
C1048 C1029 1.368 . S
C1048 C1042 1.368 . S
C1048 C1047 1.523 . S
C1049 C1033 1.429 . S
C1049 C1045 1.429 . S
C1049 C1050 1.523 1_556 S
C1050 C1034 1.368 . S
C1050 C1046 1.368 . S
C1050 C1049 1.523 1_554 S
H1051 C1026 0.950 . S
H1052 C1028 0.950 . S
H1053 C1029 0.949 . S
H1054 C1031 0.950 . S
H1055 C1033 0.950 . S
C1056 C1057 1.349 . S
C1056 C1058 1.327 . S
C1056 H1081 0.950 . S
C1057 C1056 1.349 . S
C1057 C1073 1.349 . S
C1058 C1056 1.327 . S
C1058 C1077 1.429 . S
C1058 H1082 0.950 . S
C1059 C1076 1.574 . S
C1059 C1078 1.368 . S
C1059 H1083 0.949 . S
H1060 C1064 0.949 . S
C1061 C1062 1.349 . S
C1061 C1063 1.327 . S
C1061 H1084 0.950 . S
C1062 C1061 1.349 . S
C1062 C1074 1.349 . S
C1063 C1061 1.327 . S
C1063 C1079 1.429 . S
C1063 H1085 0.950 . S
C1064 H1060 0.949 . S
C1064 C1072 1.574 . S
C1064 C1080 1.368 . S
H1065 C1073 0.950 . S
H1066 C1071 0.950 . S
H1067 C1072 0.949 . S
H1068 C1074 0.950 . S
H1069 C1075 0.950 . S
H1070 C1076 0.949 . S
C1071 H1066 0.950 . S
C1071 C1073 1.327 . S
C1071 C1077 1.429 . S
C1072 C1064 1.574 . S
C1072 H1067 0.949 . S
C1072 C1078 1.368 . S
C1073 C1057 1.349 . S
C1073 H1065 0.950 . S
C1073 C1071 1.327 . S
C1074 C1062 1.349 . S
C1074 H1068 0.950 . S
C1074 C1075 1.327 . S
C1075 H1069 0.950 . S
C1075 C1074 1.327 . S
C1075 C1079 1.429 . S
C1076 C1059 1.574 . S
C1076 H1070 0.949 . S
C1076 C1080 1.368 . S
C1077 C1058 1.429 . S
C1077 C1071 1.429 . S
C1077 C1078 1.523 . S
C1078 C1059 1.368 . S
C1078 C1072 1.368 . S
C1078 C1077 1.523 . S
C1079 C1063 1.429 . S
C1079 C1075 1.429 . S
C1079 C1080 1.523 . S
C1080 C1064 1.368 . S
C1080 C1076 1.368 . S
C1080 C1079 1.523 . S
H1081 C1056 0.950 . S
H1082 C1058 0.950 . S
H1083 C1059 0.949 . S
H1084 C1061 0.950 . S
H1085 C1063 0.950 . S
C372 C358 1.598 . S
C367 C45 1.597 . S
C397 C84 1.601 . S
C402 C293 1.602 . S
C427 C126 1.584 . S
C432 C311 1.598 . S
C457 C189 1.586 . S
C462 C324 1.586 . S
C492 C332 1.603 . S
C487 C228 1.602 . S
C517 C270 1.582 . S
C522 C344 1.596 . S
C547 C69 1.596 . S
C552 C306 1.602 . S
C577 C141 1.597 . S
C582 C319 1.598 . S
C607 C174 1.582 . S
C612 C337 1.596 . S
C642 C343 1.604 . S
C637 C213 1.597 . S
C672 C363 1.586 . S
C667 C285 1.586 . S
C702 C298 1.598 . S
C697 C30 1.584 . S
C727 C36 1.612 . S
C732 C304 1.615 . S
C757 C93 1.618 . S
C762 C317 1.618 . S
C792 C331 1.613 . S
C787 C117 1.601 . S
C817 C180 1.619 . S
C822 C345 1.622 . S
C852 C357 1.606 . S
C847 C237 1.607 . S
C882 C292 1.612 . S
C877 C261 1.600 . S
C912 C356 1.618 . S
C907 C78 1.593 . S
C937 C132 1.612 . S
C942 C291 1.616 . S
C972 C305 1.612 . S
C967 C165 1.600 . S
C997 C222 1.582 . S
C1002 C318 1.606 . S
C1027 C276 1.618 . S
C1032 C330 1.622 . S
C1057 C21 1.601 . S
C1062 C350 1.613 . S
