# Generated by pormake.
# Topology ptr, (4,4)-cn, num edge types: 1
# Building blocks:
#     Node 0, Type 0, BuildingBlock: CEKHIL_clean_sbu_0, # of connection points: 4
#     Node 1, Type 0, BuildingBlock: CEKHIL_clean_sbu_0, # of connection points: 4
#     Node 2, Type 0, BuildingBlock: CEKHIL_clean_sbu_0, # of connection points: 4
#     Node 3, Type 0, BuildingBlock: CEKHIL_clean_sbu_0, # of connection points: 4
#     Node 4, Type 0, BuildingBlock: CEKHIL_clean_sbu_0, # of connection points: 4
#     Node 5, Type 0, BuildingBlock: CEKHIL_clean_sbu_0, # of connection points: 4
#     Node 6, Type 0, BuildingBlock: CEKHIL_clean_sbu_0, # of connection points: 4
#     Node 7, Type 0, BuildingBlock: CEKHIL_clean_sbu_0, # of connection points: 4
#     Node 8, Type 0, BuildingBlock: CEKHIL_clean_sbu_0, # of connection points: 4
#     Node 9, Type 0, BuildingBlock: CEKHIL_clean_sbu_0, # of connection points: 4
#     Node 10, Type 0, BuildingBlock: CEKHIL_clean_sbu_0, # of connection points: 4
#     Node 11, Type 0, BuildingBlock: CEKHIL_clean_sbu_0, # of connection points: 4
#     Node 12, Type 0, BuildingBlock: CEKHIL_clean_sbu_0, # of connection points: 4
#     Node 13, Type 0, BuildingBlock: CEKHIL_clean_sbu_0, # of connection points: 4
#     Node 14, Type 0, BuildingBlock: CEKHIL_clean_sbu_0, # of connection points: 4
#     Node 15, Type 0, BuildingBlock: CEKHIL_clean_sbu_0, # of connection points: 4
#     Node 16, Type 0, BuildingBlock: CEKHIL_clean_sbu_0, # of connection points: 4
#     Node 17, Type 0, BuildingBlock: CEKHIL_clean_sbu_0, # of connection points: 4
#     Node 18, Type 1, BuildingBlock: NAWXER_clean_linker_0, # of connection points: 4
#     Node 19, Type 1, BuildingBlock: NAWXER_clean_linker_0, # of connection points: 4
#     Node 20, Type 1, BuildingBlock: NAWXER_clean_linker_0, # of connection points: 4
#     Node 21, Type 1, BuildingBlock: NAWXER_clean_linker_0, # of connection points: 4
#     Node 22, Type 1, BuildingBlock: NAWXER_clean_linker_0, # of connection points: 4
#     Node 23, Type 1, BuildingBlock: NAWXER_clean_linker_0, # of connection points: 4
#     Node 24, Type 1, BuildingBlock: NAWXER_clean_linker_0, # of connection points: 4
#     Node 25, Type 1, BuildingBlock: NAWXER_clean_linker_0, # of connection points: 4
#     Node 26, Type 1, BuildingBlock: NAWXER_clean_linker_0, # of connection points: 4
#     Node 27, Type 1, BuildingBlock: NAWXER_clean_linker_0, # of connection points: 4
#     Node 28, Type 1, BuildingBlock: NAWXER_clean_linker_0, # of connection points: 4
#     Node 29, Type 1, BuildingBlock: NAWXER_clean_linker_0, # of connection points: 4
#     Node 30, Type 1, BuildingBlock: NAWXER_clean_linker_0, # of connection points: 4
#     Node 31, Type 1, BuildingBlock: NAWXER_clean_linker_0, # of connection points: 4
#     Node 32, Type 1, BuildingBlock: NAWXER_clean_linker_0, # of connection points: 4
#     Node 33, Type 1, BuildingBlock: NAWXER_clean_linker_0, # of connection points: 4
#     Node 34, Type 1, BuildingBlock: NAWXER_clean_linker_0, # of connection points: 4
#     Node 35, Type 1, BuildingBlock: NAWXER_clean_linker_0, # of connection points: 4
#     Edge 36, Type (0, 1), None
#     Edge 37, Type (0, 1), None
#     Edge 38, Type (0, 1), None
#     Edge 39, Type (0, 1), None
#     Edge 40, Type (0, 1), None
#     Edge 41, Type (0, 1), None
#     Edge 42, Type (0, 1), None
#     Edge 43, Type (0, 1), None
#     Edge 44, Type (0, 1), None
#     Edge 45, Type (0, 1), None
#     Edge 46, Type (0, 1), None
#     Edge 47, Type (0, 1), None
#     Edge 48, Type (0, 1), None
#     Edge 49, Type (0, 1), None
#     Edge 50, Type (0, 1), None
#     Edge 51, Type (0, 1), None
#     Edge 52, Type (0, 1), None
#     Edge 53, Type (0, 1), None
#     Edge 54, Type (0, 1), None
#     Edge 55, Type (0, 1), None
#     Edge 56, Type (0, 1), None
#     Edge 57, Type (0, 1), None
#     Edge 58, Type (0, 1), None
#     Edge 59, Type (0, 1), None
#     Edge 60, Type (0, 1), None
#     Edge 61, Type (0, 1), None
#     Edge 62, Type (0, 1), None
#     Edge 63, Type (0, 1), None
#     Edge 64, Type (0, 1), None
#     Edge 65, Type (0, 1), None
#     Edge 66, Type (0, 1), None
#     Edge 67, Type (0, 1), None
#     Edge 68, Type (0, 1), None
#     Edge 69, Type (0, 1), None
#     Edge 70, Type (0, 1), None
#     Edge 71, Type (0, 1), None
#     Edge 72, Type (0, 1), None
#     Edge 73, Type (0, 1), None
#     Edge 74, Type (0, 1), None
#     Edge 75, Type (0, 1), None
#     Edge 76, Type (0, 1), None
#     Edge 77, Type (0, 1), None
#     Edge 78, Type (0, 1), None
#     Edge 79, Type (0, 1), None
#     Edge 80, Type (0, 1), None
#     Edge 81, Type (0, 1), None
#     Edge 82, Type (0, 1), None
#     Edge 83, Type (0, 1), None
#     Edge 84, Type (0, 1), None
#     Edge 85, Type (0, 1), None
#     Edge 86, Type (0, 1), None
#     Edge 87, Type (0, 1), None
#     Edge 88, Type (0, 1), None
#     Edge 89, Type (0, 1), None
#     Edge 90, Type (0, 1), None
#     Edge 91, Type (0, 1), None
#     Edge 92, Type (0, 1), None
#     Edge 93, Type (0, 1), None
#     Edge 94, Type (0, 1), None
#     Edge 95, Type (0, 1), None
#     Edge 96, Type (0, 1), None
#     Edge 97, Type (0, 1), None
#     Edge 98, Type (0, 1), None
#     Edge 99, Type (0, 1), None
#     Edge 100, Type (0, 1), None
#     Edge 101, Type (0, 1), None
#     Edge 102, Type (0, 1), None
#     Edge 103, Type (0, 1), None
#     Edge 104, Type (0, 1), None
#     Edge 105, Type (0, 1), None
#     Edge 106, Type (0, 1), None
#     Edge 107, Type (0, 1), None
# Relax obj value: 0.032
# Max RMSD: 0.134
# Mean RMSD: 0.053
data_MOF--net-ptr--node1-CEKHIL_clean_sbu_0--node2-NAWXER_clean_linker_0--edge1-none
_symmetry_space_group_name_H-M    P1
_symmetry_Int_Tables_number       1
_symmetry_cell_setting            triclinic
loop_
_symmetry_equiv_pos_as_xyz
'x, y, z'
_cell_length_a     46.944428
_cell_length_b     46.525306
_cell_length_c     34.721863
_cell_angle_alpha  90.607006
_cell_angle_beta   89.592166
_cell_angle_gamma 120.86549
loop_
_atom_site_label
_atom_site_type_symbol
_atom_site_fract_x
_atom_site_fract_y
_atom_site_fract_z
_atom_type_partial_charge
Co0 Co 0.00807 0.34312 0.01658 0.0
O1 O 0.01803 0.32076 0.05592 0.0
O2 O 0.05559 0.36634 0.02574 0.0
C3 C 0.97244 0.29628 0.98366 0.0
O4 O 0.00702 0.37238 0.97349 0.0
Co5 Co 0.93574 0.3281 0.0051 0.0
O6 O 0.95393 0.35177 0.95574 0.0
C7 C 0.97664 0.37144 0.06974 0.0
C8 C 0.04903 0.34342 0.05126 0.0
C9 C 0.98498 0.37149 0.95066 0.0
O10 O 1.00244 0.37142 0.05684 0.0
O11 O 0.94771 0.35374 0.05489 0.0
O12 O 0.00422 0.3101 0.97807 0.0
O13 O 0.96384 0.3095 0.01062 0.0
Co14 Co 0.65943 0.65688 0.00664 0.0
O15 O 0.69214 0.67932 0.96696 0.0
O16 O 0.68343 0.63392 0.99751 0.0
C17 C 0.6705 0.70339 0.0397 0.0
O18 O 0.62936 0.62734 0.04986 0.0
Co19 Co 0.60118 0.6696 0.02081 0.0
O20 O 0.59582 0.64574 0.06986 0.0
C21 C 0.59986 0.62892 0.95379 0.0
C22 C 0.7001 0.65665 0.97177 0.0
C23 C 0.60811 0.62706 0.07373 0.0
O24 O 0.62534 0.62849 0.96655 0.0
O25 O 0.58848 0.64599 0.96967 0.0
O26 O 0.68878 0.69016 0.04484 0.0
O27 O 0.64836 0.68975 0.01318 0.0
Co28 Co 0.34154 -0.0013 0.00491 0.0
O29 O 0.3187 0.00874 0.96642 0.0
O30 O 0.36411 0.04676 0.99643 0.0
C31 C 0.2956 0.96268 0.03863 0.0
O32 O 0.37118 0.99729 0.04713 0.0
Co33 Co 0.32723 0.92589 0.0127 0.0
O34 O 0.35132 0.94327 0.06205 0.0
C35 C 0.37211 0.96927 0.95105 0.0
C36 C 0.34097 0.04006 0.97134 0.0
C37 C 0.37079 0.97447 0.06838 0.0
O38 O 0.36974 0.99403 0.96391 0.0
O39 O 0.35552 0.93972 0.96502 0.0
O40 O 0.30953 0.99477 0.04411 0.0
O41 O 0.30792 0.95379 0.01083 0.0
Co42 Co 0.99984 0.65794 0.0053 0.0
O43 O 0.98989 0.68029 0.96593 0.0
O44 O 0.95232 0.63472 0.99614 0.0
C45 C 0.03547 0.7048 0.03817 0.0
O46 O 1.00086 0.62868 0.0484 0.0
Co47 Co 0.07213 0.67292 0.01687 0.0
O48 O 0.05392 0.64921 0.06621 0.0
C49 C 0.03123 0.6295 0.95228 0.0
C50 C 0.95889 0.65763 0.97061 0.0
C51 C 0.02286 0.62951 0.07125 0.0
O52 O 0.00546 0.62961 0.96507 0.0
O53 O 0.06015 0.64715 0.96716 0.0
O54 O 1.00368 0.69099 0.04377 0.0
O55 O 0.04408 0.69155 0.01125 0.0
Co56 Co 0.34805 0.343 0.01607 0.0
O57 O 0.31524 0.32069 0.0557 0.0
O58 O 0.32435 0.36625 0.02521 0.0
C59 C 0.33671 0.29646 0.98288 0.0
O60 O 0.37827 0.37244 0.97289 0.0
Co61 Co 0.40596 0.32976 0.0019 0.0
O62 O 0.41145 0.35363 0.95282 0.0
C63 C 0.40759 0.37055 0.06895 0.0
C64 C 0.30751 0.34353 0.05089 0.0
C65 C 0.39938 0.37251 0.94897 0.0
O66 O 0.3822 0.37117 0.05622 0.0
O67 O 0.41881 0.35336 0.05304 0.0
O68 O 0.31859 0.30989 0.97779 0.0
O69 O 0.35881 0.3099 0.00946 0.0
Co70 Co 0.66657 0.00235 0.01692 0.0
O71 O 0.68932 0.9921 0.05534 0.0
O72 O 0.64387 0.95426 0.02524 0.0
C73 C 0.71256 0.03836 0.98325 0.0
O74 O 0.63701 0.00395 0.97476 0.0
Co75 Co 0.68108 0.07524 0.00932 0.0
O76 O 0.65699 0.05801 0.95994 0.0
C77 C 0.63608 0.03181 0.07087 0.0
C78 C 0.66699 0.96082 0.05032 0.0
C79 C 0.63746 0.02683 0.95356 0.0
O80 O 0.63841 0.00704 0.05798 0.0
O81 O 0.65273 0.06137 0.05695 0.0
O82 O 0.69857 0.00627 0.97768 0.0
O83 O 0.70029 0.04725 0.0111 0.0
Co84 Co 0.67356 0.67606 0.34985 0.0
O85 O 0.68348 0.65374 0.38927 0.0
O86 O 0.72105 0.69936 0.35915 0.0
C87 C 0.6381 0.6292 0.31689 0.0
O88 O 0.6726 0.70531 0.30671 0.0
Co89 Co 0.60129 0.661 0.33797 0.0
O90 O 0.61959 0.68468 0.28863 0.0
C91 C 0.64198 0.70448 0.40264 0.0
C92 C 0.71448 0.67644 0.38466 0.0
C93 C 0.65066 0.70443 0.28373 0.0
O94 O 0.66778 0.70432 0.39003 0.0
O95 O 0.61312 0.68688 0.38761 0.0
O96 O 0.66991 0.64309 0.31141 0.0
O97 O 0.62935 0.64238 0.34375 0.0
Co98 Co 0.32613 0.98987 0.33959 0.0
O99 O 0.35892 0.01242 0.30003 0.0
O100 O 0.35014 0.96693 0.33039 0.0
C101 C 0.33715 0.03627 0.37284 0.0
O102 O 0.29595 0.96024 0.38271 0.0
Co103 Co 0.26791 0.00267 0.35371 0.0
O104 O 0.26259 0.97885 0.40277 0.0
C105 C 0.26675 0.96225 0.2865 0.0
C106 C 0.36688 0.98975 0.30477 0.0
C107 C 0.27478 0.96008 0.40663 0.0
O108 O 0.2921 0.96163 0.29936 0.0
O109 O 0.25542 0.97936 0.30239 0.0
O110 O 0.35541 0.02302 0.37795 0.0
O111 O 0.31508 0.02274 0.34623 0.0
Co112 Co 0.00834 0.33246 0.33846 0.0
O113 O 0.9855 0.34262 0.30009 0.0
O114 O 0.03091 0.38056 0.33015 0.0
C115 C 0.96239 0.29635 0.37214 0.0
O116 O 0.03797 0.33092 0.38058 0.0
Co117 Co 0.99395 0.25959 0.34597 0.0
O118 O 0.01805 0.27686 0.39533 0.0
C119 C 0.03892 0.30313 0.28444 0.0
C120 C 0.00775 0.37393 0.3051 0.0
C121 C 0.03755 0.30804 0.40174 0.0
O122 O 0.03654 0.32788 0.29736 0.0
O123 O 0.02228 0.27356 0.29833 0.0
O124 O 0.97632 0.32844 0.37773 0.0
O125 O 0.97471 0.28754 0.34426 0.0
Co126 Co 0.66689 0.99146 0.339 0.0
O127 O 0.65708 0.01391 0.29961 0.0
O128 O 0.61939 0.9684 0.3298 0.0
C129 C 0.70263 0.03825 0.37192 0.0
O130 O 0.66772 0.96211 0.38213 0.0
Co131 Co 0.73905 0.00611 0.35072 0.0
O132 O 0.72072 0.98247 0.40007 0.0
C133 C 0.69814 0.96282 0.28604 0.0
C134 C 0.62605 0.99132 0.30426 0.0
C135 C 0.68963 0.96287 0.40506 0.0
O136 O 0.67241 0.96305 0.29878 0.0
O137 O 0.72704 0.98036 0.30099 0.0
O138 O 0.67085 0.02456 0.37747 0.0
O139 O 0.71118 0.02494 0.34501 0.0
Co140 Co 0.014 0.67708 0.34852 0.0
O141 O 0.98122 0.65466 0.38812 0.0
O142 O 0.99009 0.70014 0.35765 0.0
C143 C 1.00284 0.63056 0.31542 0.0
O144 O 0.04421 0.70659 0.30535 0.0
Co145 Co 0.07207 0.66403 0.33445 0.0
O146 O 0.07749 0.68786 0.28537 0.0
C147 C 0.0734 0.70463 0.40156 0.0
C148 C 0.97333 0.67738 0.38333 0.0
C149 C 0.06537 0.70669 0.28147 0.0
O150 O 0.04809 0.70533 0.3887 0.0
O151 O 0.08463 0.68742 0.3857 0.0
O152 O 0.98464 0.64387 0.31023 0.0
O153 O 0.02493 0.64412 0.34199 0.0
Co154 Co 0.33298 0.33466 0.3504 0.0
O155 O 0.35566 0.32435 0.38884 0.0
O156 O 0.31016 0.28656 0.35879 0.0
C157 C 0.37901 0.37055 0.31672 0.0
O158 O 0.30348 0.33637 0.30822 0.0
Co159 Co 0.34781 0.40768 0.34278 0.0
O160 O 0.32367 0.39048 0.29343 0.0
C161 C 0.30269 0.36434 0.40431 0.0
C162 C 0.33326 0.29308 0.38387 0.0
C163 C 0.30404 0.35932 0.28705 0.0
O164 O 0.3049 0.33949 0.39143 0.0
O165 O 0.31945 0.3939 0.39039 0.0
O166 O 0.36494 0.33845 0.31116 0.0
O167 O 0.36679 0.37949 0.34456 0.0
Co168 Co 0.34047 0.00849 0.68324 0.0
O169 O 0.35057 0.98628 0.72264 0.0
O170 O 0.388 0.03184 0.6923 0.0
C171 C 0.30488 0.96156 0.65044 0.0
O172 O 0.33932 0.03763 0.6401 0.0
Co173 Co 0.26811 0.99332 0.67167 0.0
O174 O 0.28624 0.01694 0.62226 0.0
C175 C 0.30908 0.03714 0.736 0.0
C176 C 0.38155 0.00899 0.71787 0.0
C177 C 0.31729 0.0367 0.61723 0.0
O178 O 0.33482 0.03686 0.7234 0.0
O179 O 0.28017 0.0195 0.7211 0.0
O180 O 0.33667 0.97542 0.64482 0.0
O181 O 0.29625 0.97478 0.67735 0.0
Co182 Co 0.99335 0.32398 0.67286 0.0
O183 O 0.0261 0.34638 0.63322 0.0
O184 O 0.01728 0.30095 0.66377 0.0
C185 C 0.00445 0.37047 0.70595 0.0
O186 O 0.96322 0.29449 0.71607 0.0
Co187 Co 0.93519 0.33686 0.68691 0.0
O188 O 0.92987 0.31313 0.73605 0.0
C189 C 0.93385 0.29616 0.61992 0.0
C190 C 0.03401 0.32368 0.63806 0.0
C191 C 0.94206 0.29437 0.73997 0.0
O192 O 0.95927 0.29564 0.63273 0.0
O193 O 0.92253 0.31329 0.63576 0.0
O194 O 0.02271 0.35721 0.7111 0.0
O195 O 0.98236 0.35689 0.67938 0.0
Co196 Co 0.6742 0.66528 0.67187 0.0
O197 O 0.65132 0.6754 0.63349 0.0
O198 O 0.69676 0.71336 0.6635 0.0
C199 C 0.62832 0.62919 0.70564 0.0
O200 O 0.70387 0.6638 0.714 0.0
Co201 Co 0.65989 0.59244 0.67946 0.0
O202 O 0.68396 0.60976 0.72883 0.0
C203 C 0.70476 0.63593 0.61785 0.0
C204 C 0.67359 0.70671 0.63845 0.0
C205 C 0.70345 0.64094 0.7352 0.0
O206 O 0.70238 0.66068 0.63077 0.0
O207 O 0.68816 0.60637 0.63178 0.0
O208 O 0.64221 0.66128 0.71118 0.0
O209 O 0.64061 0.62037 0.67775 0.0
Co210 Co 0.33353 0.32448 0.67209 0.0
O211 O 0.3237 0.3469 0.6327 0.0
O212 O 0.28603 0.30137 0.66289 0.0
C213 C 0.36921 0.37125 0.70505 0.0
O214 O 0.33441 0.29517 0.7152 0.0
Co215 Co 0.40573 0.33922 0.68375 0.0
O216 O 0.38743 0.31563 0.73314 0.0
C217 C 0.36474 0.29568 0.61927 0.0
C218 C 0.29268 0.3243 0.63736 0.0
C219 C 0.35635 0.29598 0.73812 0.0
O220 O 0.33906 0.29606 0.6319 0.0
O221 O 0.39365 0.31319 0.63422 0.0
O222 O 0.33743 0.35753 0.71056 0.0
O223 O 0.37781 0.35801 0.67812 0.0
Co224 Co 0.68177 0.01058 0.68267 0.0
O225 O 0.64901 0.98825 0.72231 0.0
O226 O 0.65799 0.03376 0.69182 0.0
C227 C 0.67045 0.96404 0.64954 0.0
O228 O 0.71196 0.04003 0.63947 0.0
Co229 Co 0.73974 0.99742 0.66857 0.0
O230 O 0.74515 0.0212 0.61944 0.0
C231 C 0.74133 0.03827 0.73555 0.0
C232 C 0.64118 0.01101 0.71749 0.0
C233 C 0.73307 0.04007 0.61555 0.0
O234 O 0.71591 0.03882 0.7228 0.0
O235 O 0.75259 0.02109 0.71967 0.0
O236 O 0.65232 0.97744 0.64444 0.0
O237 O 0.69258 0.97751 0.67609 0.0
Co238 Co 0.99886 0.66811 0.68322 0.0
O239 O 0.02169 0.658 0.72165 0.0
O240 O 0.97623 0.62003 0.69168 0.0
C241 C 0.0448 0.70408 0.64947 0.0
O242 O 0.96925 0.66964 0.64106 0.0
Co243 Co 0.01338 0.74101 0.67555 0.0
O244 O 0.98932 0.7237 0.62617 0.0
C245 C 0.96845 0.69764 0.73719 0.0
C246 C 0.9994 0.62669 0.71673 0.0
C247 C 0.96975 0.69253 0.61982 0.0
O248 O 0.97074 0.67284 0.7243 0.0
O249 O 0.9851 0.72719 0.72324 0.0
O250 O 0.03082 0.67198 0.64396 0.0
O251 O 0.03255 0.71299 0.67732 0.0
C252 C 0.27195 0.36779 0.06801 0.0
C253 C 0.2807 0.3434 0.07367 0.0
C254 C 0.24644 0.36728 0.08978 0.0
C255 C 0.22962 0.34266 0.11783 0.0
C256 C 0.26334 0.31843 0.10125 0.0
C257 C 0.23798 0.31796 0.12291 0.0
C258 C 0.20266 0.34189 0.14109 0.0
C259 C 0.24717 0.32133 0.25934 0.0
C260 C 0.27887 0.35018 0.25641 0.0
C261 C 0.22173 0.31627 0.23413 0.0
C262 C 0.22775 0.33953 0.20503 0.0
C263 C 0.28504 0.3728 0.22646 0.0
C264 C 0.25981 0.36757 0.20112 0.0
C265 C 0.20005 0.33638 0.18125 0.0
C266 C 0.07369 0.2857 0.24774 0.0
C267 C 0.06417 0.30949 0.25445 0.0
C268 C 0.10006 0.29277 0.22314 0.0
C269 C 0.1171 0.32344 0.20397 0.0
C270 C 0.08087 0.34007 0.23452 0.0
C271 C 0.10706 0.34693 0.2093 0.0
C272 C 0.14678 0.33119 0.18101 0.0
C273 C 0.10863 0.36835 0.07162 0.0
C274 C 0.07521 0.34257 0.07402 0.0
C275 C 0.13293 0.36708 0.09356 0.0
C276 C 0.12427 0.34016 0.11847 0.0
C277 C 0.06675 0.31538 0.09844 0.0
C278 C 0.091 0.31403 0.12009 0.0
C279 C 0.15026 0.33888 0.1413 0.0
H280 H 0.28476 0.38725 0.04679 0.0
H281 H 0.24015 0.38635 0.08507 0.0
H282 H 0.26923 0.29909 0.10608 0.0
H283 H 0.22472 0.29806 0.14352 0.0
H284 H 0.24152 0.30364 0.28236 0.0
H285 H 0.19715 0.29456 0.23789 0.0
H286 H 0.30916 0.39531 0.22343 0.0
H287 H 0.26507 0.38632 0.17955 0.0
H288 H 0.06162 0.26196 0.26261 0.0
H289 H 0.10751 0.27438 0.21946 0.0
H290 H 0.07421 0.35896 0.23902 0.0
H291 H 0.12015 0.37091 0.19499 0.0
H292 H 0.11599 0.38953 0.05293 0.0
H293 H 0.1585 0.38732 0.09136 0.0
H294 H 0.04133 0.29484 0.10061 0.0
H295 H 0.08371 0.29228 0.13774 0.0
N296 N 0.17802 0.34363 0.12277 0.0
N297 N 0.17193 0.33062 0.19945 0.0
C298 C 0.64415 0.90035 0.06796 0.0
C299 C 0.66855 0.93438 0.07216 0.0
C300 C 0.64624 0.87586 0.08892 0.0
C301 C 0.67257 0.88496 0.11469 0.0
C302 C 0.69518 0.94328 0.09742 0.0
C303 C 0.69729 0.91888 0.11817 0.0
C304 C 0.67461 0.85889 0.13688 0.0
C305 C 0.72021 0.93352 0.24638 0.0
C306 C 0.69419 0.93937 0.25453 0.0
C307 C 0.71581 0.90882 0.2201 0.0
C308 C 0.68566 0.88995 0.20071 0.0
C309 C 0.66415 0.921 0.23416 0.0
C310 C 0.65997 0.89649 0.20724 0.0
C311 C 0.68061 0.86142 0.1769 0.0
C312 C 0.68979 0.76124 0.25622 0.0
C313 C 0.66102 0.72945 0.25256 0.0
C314 C 0.6961 0.78672 0.23024 0.0
C315 C 0.67422 0.78065 0.19963 0.0
C316 C 0.63989 0.7231 0.221 0.0
C317 C 0.64641 0.74839 0.19485 0.0
C318 C 0.67791 0.80884 0.17609 0.0
C319 C 0.64991 0.74139 0.05814 0.0
C320 C 0.67207 0.73006 0.06457 0.0
C321 C 0.65057 0.76629 0.08144 0.0
C322 C 0.67325 0.78026 0.11182 0.0
C323 C 0.69515 0.74434 0.09464 0.0
C324 C 0.69589 0.76943 0.11793 0.0
C325 C 0.67397 0.80715 0.13568 0.0
H326 H 0.62345 0.89264 0.04856 0.0
H327 H 0.62707 0.84981 0.08534 0.0
H328 H 0.71466 0.96919 0.10103 0.0
H329 H 0.71856 0.92661 0.13661 0.0
H330 H 0.7437 0.94711 0.26139 0.0
H331 H 0.73582 0.90396 0.21542 0.0
H332 H 0.64367 0.92495 0.23969 0.0
H333 H 0.63638 0.88182 0.19267 0.0
H334 H 0.70639 0.76701 0.28039 0.0
H335 H 0.71753 0.81149 0.23475 0.0
H336 H 0.61753 0.69886 0.21734 0.0
H337 H 0.6287 0.74314 0.17207 0.0
H338 H 0.63192 0.73103 0.03504 0.0
H339 H 0.63312 0.77443 0.07588 0.0
H340 H 0.71268 0.73628 0.10003 0.0
H341 H 0.71441 0.78062 0.14041 0.0
N342 N 0.67179 0.83188 0.11771 0.0
N343 N 0.6817 0.83626 0.19495 0.0
C344 C 0.09455 0.74526 0.05435 0.0
C345 C 0.0607 0.73203 0.06254 0.0
C346 C 0.11891 0.77085 0.07703 0.0
C347 C 0.11 0.7836 0.10858 0.0
C348 C 0.05167 0.74503 0.09383 0.0
C349 C 0.07614 0.77074 0.11659 0.0
C350 C 0.13625 0.81128 0.13175 0.0
C351 C 0.07882 0.76195 0.25425 0.0
C352 C 0.07867 0.73176 0.2503 0.0
C353 C 0.09583 0.78771 0.22766 0.0
C354 C 0.11221 0.78341 0.19615 0.0
C355 C 0.09403 0.72706 0.21791 0.0
C356 C 0.11056 0.7526 0.19104 0.0
C357 C 0.13504 0.81248 0.17229 0.0
C358 C 0.21741 0.93704 0.2432 0.0
C359 C 0.2481 0.94069 0.25327 0.0
C360 C 0.19756 0.91394 0.21516 0.0
C361 C 0.20823 0.89457 0.19596 0.0
C362 C 0.25936 0.92207 0.23284 0.0
C363 C 0.2395 0.89915 0.20424 0.0
C364 C 0.18426 0.86632 0.17214 0.0
C365 C 0.25601 0.90351 0.05805 0.0
C366 C 0.26816 0.93789 0.06309 0.0
C367 C 0.22979 0.87994 0.08065 0.0
C368 C 0.2152 0.89014 0.10892 0.0
C369 C 0.25346 0.94819 0.09116 0.0
C370 C 0.22704 0.92453 0.11364 0.0
C371 C 0.1869 0.86434 0.13183 0.0
H372 H 0.10234 0.73589 0.03029 0.0
H373 H 0.14479 0.78053 0.07005 0.0
H374 H 0.02579 0.73546 0.10063 0.0
H375 H 0.06857 0.78085 0.14009 0.0
H376 H 0.06736 0.7664 0.27897 0.0
H377 H 0.09712 0.81141 0.23237 0.0
H378 H 0.09421 0.70402 0.214 0.0
H379 H 0.12358 0.74891 0.16744 0.0
H380 H 0.20791 0.95097 0.25808 0.0
H381 H 0.17332 0.9104 0.20929 0.0
H382 H 0.28292 0.9244 0.23975 0.0
H383 H 0.24781 0.88393 0.18994 0.0
H384 H 0.2667 0.89474 0.03658 0.0
H385 H 0.221 0.8536 0.07614 0.0
H386 H 0.26202 0.97449 0.09539 0.0
H387 H 0.21552 0.9332 0.13406 0.0
N388 N 0.1625 0.83692 0.11313 0.0
N389 N 0.15873 0.84025 0.19079 0.0
C390 C 0.34288 0.07891 0.78801 0.0
C391 C 0.31304 0.06082 0.76724 0.0
C392 C 0.34708 0.10355 0.81475 0.0
C393 C 0.32161 0.11051 0.82069 0.0
C394 C 0.28724 0.06715 0.77471 0.0
C395 C 0.29166 0.09197 0.80082 0.0
C396 C 0.32665 0.13901 0.84459 0.0
C397 C 0.31265 0.05731 0.92409 0.0
C398 C 0.3393 0.06637 0.94938 0.0
C399 C 0.3104 0.0816 0.90327 0.0
C400 C 0.33501 0.11557 0.90671 0.0
C401 C 0.36359 0.10044 0.95351 0.0
C402 C 0.36137 0.12482 0.93248 0.0
C403 C 0.33279 0.14155 0.88458 0.0
C404 C 0.31213 0.25588 0.92759 0.0
C405 C 0.33513 0.26993 0.95776 0.0
C406 C 0.31141 0.23093 0.90404 0.0
C407 C 0.33402 0.22003 0.91 0.0
C408 C 0.35726 0.25853 0.96402 0.0
C409 C 0.35664 0.2338 0.94046 0.0
C410 C 0.33326 0.1932 0.88599 0.0
C411 C 0.36713 0.27731 0.80082 0.0
C412 C 0.34599 0.27097 0.76929 0.0
C413 C 0.36063 0.252 0.82694 0.0
C414 C 0.33283 0.21973 0.82215 0.0
C415 C 0.31721 0.23919 0.76563 0.0
C416 C 0.31092 0.21369 0.79158 0.0
C417 C 0.32921 0.19153 0.8456 0.0
H418 H 0.36319 0.0746 0.78298 0.0
H419 H 0.37053 0.11795 0.82969 0.0
H420 H 0.26392 0.05382 0.75933 0.0
H421 H 0.27181 0.09715 0.80503 0.0
H422 H 0.29325 0.03136 0.92052 0.0
H423 H 0.28912 0.07376 0.88482 0.0
H424 H 0.3843 0.10827 0.97293 0.0
H425 H 0.38045 0.1509 0.93604 0.0
H426 H 0.29462 0.26399 0.92233 0.0
H427 H 0.29292 0.21989 0.88152 0.0
H428 H 0.3752 0.26871 0.98718 0.0
H429 H 0.37406 0.2256 0.9459 0.0
H430 H 0.3895 0.30154 0.80448 0.0
H431 H 0.37837 0.25723 0.84968 0.0
H432 H 0.30059 0.23343 0.74149 0.0
H433 H 0.28948 0.18892 0.78707 0.0
N434 N 0.32543 0.16415 0.82665 0.0
N435 N 0.33558 0.1685 0.90383 0.0
C436 C 0.95624 0.25619 0.92786 0.0
C437 C 0.9472 0.26911 0.95922 0.0
C438 C 0.93177 0.23052 0.90505 0.0
C439 C 0.89791 0.21763 0.91307 0.0
C440 C 0.91336 0.25588 0.9674 0.0
C441 C 0.889 0.23033 0.94468 0.0
C442 C 0.87166 0.18992 0.88991 0.0
C443 C 0.9135 0.27401 0.80359 0.0
C444 C 0.92889 0.26935 0.7712 0.0
C445 C 0.89712 0.2485 0.83054 0.0
C446 C 0.89564 0.21777 0.82549 0.0
C447 C 0.92891 0.23925 0.76732 0.0
C448 C 0.91204 0.21352 0.79397 0.0
C449 C 0.8729 0.18868 0.84939 0.0
C450 C 0.74848 0.07801 0.78963 0.0
C451 C 0.76012 0.06001 0.7686 0.0
C452 C 0.76834 0.10104 0.81814 0.0
C453 C 0.80001 0.10637 0.82573 0.0
C454 C 0.79126 0.06442 0.77794 0.0
C455 C 0.81109 0.08762 0.80589 0.0
C456 C 0.82384 0.13471 0.84957 0.0
C457 C 0.75466 0.05287 0.93063 0.0
C458 C 0.73998 0.06316 0.95875 0.0
C459 C 0.78104 0.07654 0.90811 0.0
C460 C 0.79285 0.11092 0.91281 0.0
C461 C 0.75212 0.09753 0.96378 0.0
C462 C 0.77828 0.12112 0.94113 0.0
C463 C 0.82112 0.13675 0.88987 0.0
H464 H 0.98212 0.26576 0.92105 0.0
H465 H 0.93934 0.22045 0.88151 0.0
H466 H 0.90556 0.2652 0.99151 0.0
H467 H 0.86312 0.22063 0.95167 0.0
H468 H 0.91319 0.29699 0.80746 0.0
H469 H 0.88407 0.25215 0.85415 0.0
H470 H 0.9404 0.23483 0.7426 0.0
H471 H 0.91088 0.18988 0.78931 0.0
H472 H 0.72457 0.07508 0.78329 0.0
H473 H 0.75967 0.11576 0.83294 0.0
H474 H 0.80108 0.051 0.76254 0.0
H475 H 0.83564 0.09174 0.81121 0.0
H476 H 0.74611 0.02657 0.9264 0.0
H477 H 0.79254 0.06787 0.88765 0.0
H478 H 0.74144 0.1063 0.98528 0.0
H479 H 0.78706 0.14745 0.94563 0.0
N480 N 0.84545 0.16424 0.90855 0.0
N481 N 0.84932 0.16083 0.83092 0.0
C482 C 0.74414 0.68194 0.92129 0.0
C483 C 0.72696 0.65696 0.94891 0.0
C484 C 0.76951 0.68256 0.89951 0.0
C485 C 0.77807 0.65801 0.90451 0.0
C486 C 0.73592 0.63271 0.9545 0.0
C487 C 0.76144 0.63337 0.93262 0.0
C488 C 0.80506 0.65893 0.88116 0.0
C489 C 0.72256 0.62768 0.79586 0.0
C490 C 0.72863 0.65024 0.76587 0.0
C491 C 0.74782 0.63307 0.82121 0.0
C492 C 0.77982 0.66121 0.81729 0.0
C493 C 0.76025 0.6792 0.76294 0.0
C494 C 0.78572 0.68442 0.78818 0.0
C495 C 0.8076 0.66448 0.84101 0.0
C496 C 0.92672 0.66088 0.78737 0.0
C497 C 0.94328 0.69137 0.76726 0.0
C498 C 0.90062 0.65408 0.81271 0.0
C499 C 0.89055 0.67754 0.818 0.0
C500 C 0.93373 0.71515 0.77391 0.0
C501 C 0.90746 0.70813 0.79864 0.0
C502 C 0.86094 0.66982 0.84107 0.0
C503 C 0.94113 0.68563 0.92342 0.0
C504 C 0.93269 0.65847 0.94786 0.0
C505 C 0.91684 0.68696 0.90181 0.0
C506 C 0.88358 0.66085 0.90352 0.0
C507 C 0.89928 0.63269 0.95034 0.0
C508 C 0.87495 0.63395 0.92845 0.0
C509 C 0.85754 0.66211 0.88077 0.0
H510 H 0.73809 0.70118 0.91652 0.0
H511 H 0.78264 0.70248 0.87888 0.0
H512 H 0.72325 0.61326 0.97575 0.0
H513 H 0.76789 0.61442 0.93727 0.0
H514 H 0.6985 0.60509 0.79888 0.0
H515 H 0.74266 0.61436 0.84279 0.0
H516 H 0.76581 0.69685 0.7399 0.0
H517 H 0.81026 0.70619 0.7844 0.0
H518 H 0.93341 0.64201 0.78292 0.0
H519 H 0.88763 0.63016 0.82715 0.0
H520 H 0.94571 0.73881 0.7589 0.0
H521 H 0.89998 0.7265 0.80227 0.0
H522 H 0.96655 0.70616 0.92119 0.0
H523 H 0.92412 0.7087 0.88413 0.0
H524 H 0.89194 0.61153 0.96906 0.0
H525 H 0.84938 0.61372 0.93071 0.0
N526 N 0.82978 0.65727 0.89939 0.0
N527 N 0.83572 0.67033 0.82273 0.0
C528 C 0.73224 0.64837 0.43175 0.0
C529 C 0.74067 0.6756 0.40742 0.0
C530 C 0.75653 0.64701 0.45331 0.0
C531 C 0.78979 0.67316 0.45166 0.0
C532 C 0.77407 0.70141 0.40501 0.0
C533 C 0.79841 0.70013 0.42685 0.0
C534 C 0.81582 0.67185 0.47436 0.0
C535 C 0.74653 0.67282 0.56777 0.0
C536 C 0.72996 0.64229 0.5878 0.0
C537 C 0.77267 0.6797 0.54246 0.0
C538 C 0.78277 0.65627 0.53711 0.0
C539 C 0.73955 0.61855 0.58109 0.0
C540 C 0.76587 0.62564 0.55639 0.0
C541 C 0.8124 0.66405 0.51403 0.0
C542 C 0.95073 0.70591 0.55918 0.0
C543 C 0.94461 0.68329 0.58913 0.0
C544 C 0.9255 0.70061 0.53383 0.0
C545 C 0.89347 0.67251 0.53772 0.0
C546 C 0.91295 0.65438 0.59203 0.0
C547 C 0.88751 0.64924 0.56679 0.0
C548 C 0.86572 0.66935 0.51403 0.0
C549 C 0.92916 0.65198 0.43363 0.0
C550 C 0.94644 0.67706 0.40615 0.0
C551 C 0.90376 0.65132 0.45539 0.0
C552 C 0.89528 0.67595 0.45051 0.0
C553 C 0.93755 0.70137 0.40066 0.0
C554 C 0.91201 0.70068 0.42252 0.0
C555 C 0.86829 0.67501 0.4739 0.0
H556 H 0.70683 0.62782 0.43392 0.0
H557 H 0.74927 0.62523 0.47089 0.0
H558 H 0.78139 0.72262 0.38637 0.0
H559 H 0.82397 0.72039 0.42464 0.0
H560 H 0.73981 0.69167 0.57227 0.0
H561 H 0.78566 0.70365 0.52808 0.0
H562 H 0.72757 0.59485 0.59603 0.0
H563 H 0.77337 0.60729 0.5527 0.0
H564 H 0.97482 0.72847 0.55618 0.0
H565 H 0.93071 0.71937 0.5123 0.0
H566 H 0.90734 0.63669 0.61504 0.0
H567 H 0.86295 0.6275 0.57054 0.0
H568 H 0.93514 0.63269 0.43832 0.0
H569 H 0.89056 0.63134 0.47593 0.0
H570 H 0.9503 0.7209 0.37951 0.0
H571 H 0.90561 0.71969 0.41796 0.0
N572 N 0.84359 0.67673 0.45571 0.0
N573 N 0.8376 0.66347 0.53233 0.0
C574 C 0.31028 0.23262 0.40168 0.0
C575 C 0.33474 0.26664 0.4058 0.0
C576 C 0.31232 0.20814 0.42272 0.0
C577 C 0.33865 0.21722 0.44848 0.0
C578 C 0.36136 0.27553 0.43106 0.0
C579 C 0.36343 0.25113 0.45189 0.0
C580 C 0.34068 0.19116 0.47067 0.0
C581 C 0.38648 0.26573 0.58028 0.0
C582 C 0.36069 0.27203 0.58796 0.0
C583 C 0.38195 0.24087 0.55416 0.0
C584 C 0.3519 0.22228 0.53449 0.0
C585 C 0.33076 0.2539 0.56736 0.0
C586 C 0.32645 0.22923 0.54061 0.0
C587 C 0.34674 0.1937 0.51068 0.0
C588 C 0.35625 0.09356 0.58974 0.0
C589 C 0.32752 0.06173 0.58609 0.0
C590 C 0.36243 0.11905 0.56383 0.0
C591 C 0.34047 0.11295 0.5333 0.0
C592 C 0.30631 0.05536 0.55462 0.0
C593 C 0.31271 0.08066 0.52853 0.0
C594 C 0.34406 0.14112 0.50981 0.0
C595 C 0.31632 0.074 0.39157 0.0
C596 C 0.33856 0.06275 0.39791 0.0
C597 C 0.31682 0.09872 0.41504 0.0
C598 C 0.33943 0.11262 0.44549 0.0
C599 C 0.36154 0.07693 0.42808 0.0
C600 C 0.36214 0.10187 0.45154 0.0
C601 C 0.34008 0.13944 0.46941 0.0
H602 H 0.28958 0.22492 0.38228 0.0
H603 H 0.29311 0.18209 0.41918 0.0
H604 H 0.38089 0.30143 0.43462 0.0
H605 H 0.38469 0.25884 0.47032 0.0
H606 H 0.40988 0.27909 0.59551 0.0
H607 H 0.40179 0.2357 0.5498 0.0
H608 H 0.31045 0.25819 0.57256 0.0
H609 H 0.30293 0.21479 0.52582 0.0
H610 H 0.37291 0.09935 0.61385 0.0
H611 H 0.38384 0.14384 0.56833 0.0
H612 H 0.28398 0.03109 0.55097 0.0
H613 H 0.29495 0.07538 0.50581 0.0
H614 H 0.29839 0.06371 0.36841 0.0
H615 H 0.29933 0.10681 0.40954 0.0
H616 H 0.37913 0.06893 0.4334 0.0
H617 H 0.38062 0.11301 0.47406 0.0
N618 N 0.33785 0.16416 0.45148 0.0
N619 N 0.34787 0.16854 0.5287 0.0
C620 C 0.76174 0.07857 0.38813 0.0
C621 C 0.72791 0.06539 0.39635 0.0
C622 C 0.78614 0.1041 0.41084 0.0
C623 C 0.77728 0.11681 0.44247 0.0
C624 C 0.71893 0.07834 0.42774 0.0
C625 C 0.74344 0.10398 0.45053 0.0
C626 C 0.80357 0.14452 0.4656 0.0
C627 C 0.7464 0.09525 0.58823 0.0
C628 C 0.74632 0.0651 0.58434 0.0
C629 C 0.7633 0.12097 0.56158 0.0
C630 C 0.77965 0.11667 0.53005 0.0
C631 C 0.76166 0.06039 0.55194 0.0
C632 C 0.77808 0.0859 0.52499 0.0
C633 C 0.80241 0.14573 0.50613 0.0
C634 C 0.8841 0.27016 0.57729 0.0
C635 C 0.91514 0.27443 0.58683 0.0
C636 C 0.86428 0.24694 0.54933 0.0
C637 C 0.87531 0.22806 0.5297 0.0
C638 C 0.92672 0.25628 0.566 0.0
C639 C 0.90689 0.23324 0.53749 0.0
C640 C 0.85146 0.1997 0.5059 0.0
C641 C 0.92298 0.23714 0.39156 0.0
C642 C 0.93503 0.27149 0.39664 0.0
C643 C 0.89687 0.21349 0.41423 0.0
C644 C 0.88228 0.22359 0.44261 0.0
C645 C 0.92032 0.28169 0.42482 0.0
C646 C 0.89401 0.25796 0.44736 0.0
C647 C 0.85409 0.1977 0.46558 0.0
H648 H 0.76949 0.06923 0.364 0.0
H649 H 0.81201 0.11376 0.40382 0.0
H650 H 0.69306 0.06881 0.43457 0.0
H651 H 0.73591 0.11407 0.47409 0.0
H652 H 0.73494 0.09971 0.61296 0.0
H653 H 0.76453 0.14464 0.56626 0.0
H654 H 0.7619 0.03738 0.54805 0.0
H655 H 0.7911 0.0822 0.50136 0.0
H656 H 0.87432 0.28369 0.59252 0.0
H657 H 0.83979 0.24294 0.54385 0.0
H658 H 0.95056 0.25911 0.57251 0.0
H659 H 0.91549 0.21841 0.52284 0.0
H660 H 0.93368 0.22844 0.37001 0.0
H661 H 0.88817 0.18717 0.40969 0.0
H662 H 0.9288 0.30797 0.42909 0.0
H663 H 0.88247 0.26655 0.46786 0.0
N664 N 0.82974 0.17021 0.44693 0.0
N665 N 0.82602 0.17358 0.52458 0.0
C666 C 0.98388 0.57266 0.09876 0.0
C667 C 0.01258 0.60451 0.10242 0.0
C668 C 0.97767 0.54721 0.12476 0.0
C669 C 0.99956 0.55338 0.15539 0.0
C670 C 0.03373 0.61095 0.13397 0.0
C671 C 0.0273 0.5857 0.16015 0.0
C672 C 0.99597 0.52527 0.17902 0.0
C673 C 0.02351 0.59264 0.29704 0.0
C674 C 1.00136 0.60396 0.2905 0.0
C675 C 0.02299 0.56784 0.27372 0.0
C676 C 1.00044 0.55391 0.24322 0.0
C677 C 0.97842 0.58976 0.26029 0.0
C678 C 0.9778 0.56472 0.23698 0.0
C679 C 0.99983 0.52703 0.21945 0.0
C680 C 0.03041 0.43436 0.28733 0.0
C681 C 0.00604 0.4003 0.28329 0.0
C682 C 0.02817 0.45876 0.26635 0.0
C683 C 1.00171 0.44954 0.24074 0.0
C684 C 0.97928 0.39129 0.25821 0.0
C685 C 0.97702 0.41559 0.23744 0.0
C686 C 0.99952 0.47547 0.21847 0.0
C687 C 0.95406 0.39985 0.11021 0.0
C688 C 0.98052 0.39486 0.10126 0.0
C689 C 0.95833 0.42459 0.13635 0.0
C690 C 0.98879 0.44435 0.15481 0.0
C691 C 0.01089 0.41411 0.12077 0.0
C692 C 0.01494 0.43865 0.14756 0.0
C693 C 0.9936 0.47285 0.17845 0.0
H694 H 0.96727 0.56682 0.07459 0.0
H695 H 0.95629 0.5224 0.12027 0.0
H696 H 0.05604 0.63523 0.13762 0.0
H697 H 0.04503 0.59102 0.18293 0.0
H698 H 0.0414 0.60295 0.32024 0.0
H699 H 0.04044 0.55971 0.27938 0.0
H700 H 0.96089 0.59781 0.25482 0.0
H701 H 0.95937 0.55357 0.21441 0.0
H702 H 0.05121 0.44215 0.3066 0.0
H703 H 0.04732 0.48483 0.26979 0.0
H704 H 0.9598 0.36535 0.25474 0.0
H705 H 0.95566 0.40778 0.21913 0.0
H706 H 0.93029 0.38554 0.09593 0.0
H707 H 0.93795 0.42879 0.14164 0.0
H708 H 0.03172 0.41085 0.11461 0.0
H709 H 0.03876 0.45401 0.16144 0.0
N710 N 0.99237 0.49789 0.16025 0.0
N711 N 1.00215 0.50243 0.23754 0.0
C712 C 0.45752 0.3966 0.11133 0.0
C713 C 0.42641 0.39226 0.10201 0.0
C714 C 0.4774 0.41979 0.13928 0.0
C715 C 0.46636 0.43858 0.15913 0.0
C716 C 0.41483 0.41031 0.12305 0.0
C717 C 0.43472 0.43332 0.15155 0.0
C718 C 0.49022 0.46691 0.18297 0.0
C719 C 0.41859 0.42968 0.29725 0.0
C720 C 0.40642 0.39531 0.29219 0.0
C721 C 0.44473 0.45326 0.27457 0.0
C722 C 0.45925 0.44306 0.24622 0.0
C723 C 0.42106 0.38501 0.26403 0.0
C724 C 0.44742 0.40867 0.24148 0.0
C725 C 0.4875 0.46891 0.22327 0.0
C726 C 0.57911 0.58843 0.30062 0.0
C727 C 0.613 0.60187 0.29251 0.0
C728 C 0.55489 0.56269 0.27796 0.0
C729 C 0.56399 0.55004 0.24648 0.0
C730 C 0.62222 0.58897 0.26128 0.0
C731 C 0.59789 0.56314 0.23853 0.0
C732 C 0.53789 0.5222 0.22332 0.0
C733 C 0.59515 0.57193 0.1009 0.0
C734 C 0.59494 0.60194 0.10486 0.0
C735 C 0.57832 0.54611 0.12745 0.0
C736 C 0.56176 0.55015 0.15893 0.0
C737 C 0.57937 0.60639 0.1372 0.0
C738 C 0.56302 0.58077 0.16404 0.0
C739 C 0.53914 0.52098 0.1828 0.0
H740 H 0.46729 0.38314 0.09593 0.0
H741 H 0.50193 0.42386 0.14459 0.0
H742 H 0.39093 0.40743 0.11672 0.0
H743 H 0.4261 0.44807 0.16636 0.0
H744 H 0.40794 0.43846 0.31878 0.0
H745 H 0.45351 0.47959 0.2791 0.0
H746 H 0.41248 0.35871 0.25978 0.0
H747 H 0.45889 0.40001 0.22098 0.0
H748 H 0.57118 0.59772 0.32462 0.0
H749 H 0.52897 0.55283 0.28488 0.0
H750 H 0.64814 0.59871 0.25454 0.0
H751 H 0.6056 0.55311 0.21508 0.0
H752 H 0.60678 0.56768 0.07621 0.0
H753 H 0.57733 0.52256 0.12274 0.0
H754 H 0.57889 0.62927 0.14113 0.0
H755 H 0.54983 0.58427 0.18763 0.0
N756 N 0.51563 0.49309 0.16431 0.0
N757 N 0.51175 0.49645 0.24195 0.0
C758 C 0.41107 0.01529 0.25448 0.0
C759 C 0.39385 0.99021 0.28198 0.0
C760 C 0.43657 0.01608 0.23279 0.0
C761 C 0.44524 0.9916 0.23778 0.0
C762 C 0.40291 0.96603 0.28756 0.0
C763 C 0.42856 0.96686 0.26578 0.0
C764 C 0.47235 0.99269 0.21449 0.0
C765 C 0.38994 0.96126 0.12904 0.0
C766 C 0.39597 0.98383 0.09907 0.0
C767 C 0.41521 0.96673 0.15443 0.0
C768 C 0.44717 0.99494 0.15057 0.0
C769 C 0.42755 0.01285 0.09618 0.0
C770 C 0.45303 0.01814 0.12146 0.0
C771 C 0.47495 0.9983 0.17436 0.0
C772 C 0.59428 0.99499 0.12097 0.0
C773 C 0.61086 0.0255 0.1009 0.0
C774 C 0.56813 0.98815 0.14625 0.0
C775 C 0.55803 0.01158 0.15154 0.0
C776 C 0.60127 0.04925 0.10754 0.0
C777 C 0.57495 0.04219 0.13222 0.0
C778 C 0.52837 0.0038 0.17455 0.0
C779 C 0.60842 0.01944 0.25705 0.0
C780 C 0.59991 0.99224 0.28147 0.0
C781 C 0.58418 0.02082 0.2354 0.0
C782 C 0.5509 0.99473 0.23703 0.0
C783 C 0.56648 0.9665 0.28388 0.0
C784 C 0.5422 0.9678 0.26194 0.0
C785 C 0.5249 0.99603 0.21424 0.0
H786 H 0.40495 0.03447 0.24972 0.0
H787 H 0.44971 0.03606 0.21224 0.0
H788 H 0.39022 0.9465 0.30873 0.0
H789 H 0.43509 0.94796 0.27042 0.0
H790 H 0.36592 0.93862 0.13204 0.0
H791 H 0.41009 0.94801 0.176 0.0
H792 H 0.43308 0.0305 0.07316 0.0
H793 H 0.47753 0.03997 0.11773 0.0
H794 H 0.60099 0.97613 0.11652 0.0
H795 H 0.55513 0.9642 0.16066 0.0
H796 H 0.61326 0.07293 0.09256 0.0
H797 H 0.56744 0.06054 0.13584 0.0
H798 H 0.63385 0.03994 0.25488 0.0
H799 H 0.5915 0.04258 0.21774 0.0
H800 H 0.55909 0.94531 0.30258 0.0
H801 H 0.51663 0.94758 0.26416 0.0
N802 N 0.49707 0.99107 0.23278 0.0
N803 N 0.50314 0.00426 0.15615 0.0
C804 C 0.60534 0.03498 0.73453 0.0
C805 C 0.61428 0.01073 0.74022 0.0
C806 C 0.57971 0.03428 0.75624 0.0
C807 C 0.56295 0.00959 0.78426 0.0
C808 C 0.59697 0.9857 0.76776 0.0
C809 C 0.5715 0.98504 0.78936 0.0
C810 C 0.53588 0.00862 0.80748 0.0
C811 C 0.5807 0.98854 0.92577 0.0
C812 C 0.61228 0.01756 0.9229 0.0
C813 C 0.55523 0.98328 0.90051 0.0
C814 C 0.56109 0.00651 0.87143 0.0
C815 C 0.61831 0.04016 0.89296 0.0
C816 C 0.59305 0.03472 0.86758 0.0
C817 C 0.53331 0.00313 0.84764 0.0
C818 C 0.407 0.95193 0.91443 0.0
C819 C 0.39731 0.97561 0.92101 0.0
C820 C 0.43334 0.95905 0.88976 0.0
C821 C 0.45016 0.98963 0.87038 0.0
C822 C 0.41378 0.00609 0.90087 0.0
C823 C 0.43994 0.01298 0.87558 0.0
C824 C 0.47985 0.99749 0.84739 0.0
C825 C 0.44121 0.03417 0.73806 0.0
C826 C 0.40784 0.00828 0.74056 0.0
C827 C 0.46563 0.03307 0.75993 0.0
C828 C 0.45715 0.0062 0.78485 0.0
C829 C 0.39955 0.98114 0.76497 0.0
C830 C 0.42393 0.97995 0.78655 0.0
C831 C 0.48326 0.00513 0.80767 0.0
H832 H 0.6181 0.05447 0.71334 0.0
H833 H 0.57327 0.05324 0.75151 0.0
H834 H 0.60299 0.96646 0.7726 0.0
H835 H 0.55829 0.9651 0.80994 0.0
H836 H 0.57516 0.97086 0.94877 0.0
H837 H 0.53072 0.96144 0.90423 0.0
H838 H 0.64234 0.06279 0.88999 0.0
H839 H 0.59817 0.05344 0.84602 0.0
H840 H 0.3951 0.92828 0.92947 0.0
H841 H 0.44094 0.94076 0.88618 0.0
H842 H 0.40698 0.02488 0.90526 0.0
H843 H 0.45286 0.0369 0.86112 0.0
H844 H 0.44843 0.05533 0.71936 0.0
H845 H 0.49116 0.0534 0.75767 0.0
H846 H 0.37418 0.96052 0.76721 0.0
H847 H 0.41678 0.95824 0.80422 0.0
N848 N 0.5111 0.01011 0.78914 0.0
N849 N 0.50512 0.99715 0.86584 0.0
C850 C 0.97674 0.56629 0.73464 0.0
C851 C 1.00109 0.60036 0.73864 0.0
C852 C 0.979 0.54193 0.75567 0.0
C853 C 0.00545 0.55119 0.7813 0.0
C854 C 0.02784 0.60942 0.76377 0.0
C855 C 0.03012 0.58515 0.78458 0.0
C856 C 0.00771 0.52528 0.80352 0.0
C857 C 0.05345 0.60038 0.91254 0.0
C858 C 0.02731 0.60602 0.92082 0.0
C859 C 0.04909 0.57562 0.88637 0.0
C860 C 0.01884 0.55648 0.86723 0.0
C861 C 0.99719 0.58739 0.90069 0.0
C862 C 0.99304 0.56282 0.87388 0.0
C863 C 0.01387 0.52795 0.8435 0.0
C864 C 0.02388 0.4283 0.92297 0.0
C865 C 0.9952 0.39642 0.91942 0.0
C866 C 0.03 0.45369 0.89693 0.0
C867 C 0.00803 0.44745 0.86637 0.0
C868 C 0.97398 0.3899 0.88791 0.0
C869 C 0.98032 0.4151 0.86169 0.0
C870 C 0.01149 0.47552 0.84278 0.0
C871 C 0.98361 0.40819 0.72465 0.0
C872 C 0.00588 0.39698 0.73098 0.0
C873 C 0.98411 0.43291 0.7481 0.0
C874 C 0.00675 0.44687 0.77851 0.0
C875 C 0.0289 0.41121 0.76111 0.0
C876 C 0.0295 0.43616 0.78454 0.0
C877 C 0.0074 0.47371 0.80238 0.0
H878 H 0.95595 0.55846 0.71534 0.0
H879 H 0.95987 0.51585 0.75223 0.0
H880 H 0.0473 0.63536 0.76722 0.0
H881 H 0.05147 0.593 0.80291 0.0
H882 H 0.07701 0.61418 0.92735 0.0
H883 H 0.0692 0.57092 0.88158 0.0
H884 H 0.97661 0.59117 0.90633 0.0
H885 H 0.96939 0.54795 0.85948 0.0
H886 H 0.04054 0.4342 0.94711 0.0
H887 H 0.05136 0.47852 0.90136 0.0
H888 H 0.95169 0.3656 0.88433 0.0
H889 H 0.96253 0.40971 0.83897 0.0
H890 H 0.96565 0.39786 0.70151 0.0
H891 H 0.96658 0.44097 0.7426 0.0
H892 H 0.04652 0.40325 0.76642 0.0
H893 H 0.048 0.44734 0.80703 0.0
N894 N 0.00498 0.4983 0.7844 0.0
N895 N 0.01519 0.50292 0.86159 0.0
C896 C 0.58642 0.61452 0.75854 0.0
C897 C 0.60107 0.60434 0.73026 0.0
C898 C 0.56019 0.59077 0.78117 0.0
C899 C 0.54851 0.55642 0.77641 0.0
C900 C 0.58908 0.57 0.72521 0.0
C901 C 0.56307 0.54634 0.74796 0.0
C902 C 0.52033 0.53049 0.79936 0.0
C903 C 0.59286 0.58919 0.89976 0.0
C904 C 0.58115 0.60716 0.92072 0.0
C905 C 0.57307 0.56615 0.87122 0.0
C906 C 0.54141 0.56079 0.86353 0.0
C907 C 0.55002 0.60271 0.91129 0.0
C908 C 0.53025 0.5795 0.88331 0.0
C909 C 0.51764 0.53243 0.83967 0.0
C910 C 0.42805 0.39298 0.88542 0.0
C911 C 0.41265 0.39759 0.91782 0.0
C912 C 0.44446 0.41854 0.85852 0.0
C913 C 0.44594 0.44927 0.86364 0.0
C914 C 0.41264 0.42771 0.92177 0.0
C915 C 0.42952 0.45347 0.89517 0.0
C916 C 0.46867 0.47839 0.83979 0.0
C917 C 0.38537 0.4111 0.76109 0.0
C918 C 0.39443 0.39831 0.72962 0.0
C919 C 0.40981 0.43665 0.78403 0.0
C920 C 0.44367 0.44955 0.77604 0.0
C921 C 0.42828 0.41154 0.72148 0.0
C922 C 0.45262 0.43698 0.74434 0.0
C923 C 0.46989 0.47724 0.79925 0.0
H924 H 0.59486 0.64079 0.7628 0.0
H925 H 0.54868 0.59934 0.80173 0.0
H926 H 0.59975 0.56131 0.70359 0.0
H927 H 0.55439 0.52003 0.74341 0.0
H928 H 0.61677 0.59215 0.90617 0.0
H929 H 0.58178 0.55145 0.85647 0.0
H930 H 0.54014 0.61611 0.92663 0.0
H931 H 0.5057 0.57536 0.87791 0.0
H932 H 0.42836 0.37001 0.8815 0.0
H933 H 0.45752 0.41492 0.83489 0.0
H934 H 0.40113 0.43209 0.94649 0.0
H935 H 0.43068 0.4771 0.89989 0.0
H936 H 0.35948 0.40152 0.76786 0.0
H937 H 0.40221 0.44663 0.80764 0.0
H938 H 0.4361 0.40232 0.69731 0.0
H939 H 0.47851 0.44671 0.73737 0.0
N940 N 0.49605 0.50299 0.78065 0.0
N941 N 0.49221 0.50625 0.8583 0.0
C942 C 0.67566 0.74597 0.4549 0.0
C943 C 0.64583 0.72792 0.4341 0.0
C944 C 0.67979 0.77045 0.48184 0.0
C945 C 0.65426 0.77729 0.48796 0.0
C946 C 0.61994 0.73408 0.44179 0.0
C947 C 0.6243 0.75875 0.46811 0.0
C948 C 0.65933 0.80579 0.51186 0.0
C949 C 0.64526 0.72406 0.59132 0.0
C950 C 0.67192 0.73307 0.61657 0.0
C951 C 0.64304 0.74839 0.57053 0.0
C952 C 0.66768 0.78235 0.57399 0.0
C953 C 0.69624 0.76713 0.62074 0.0
C954 C 0.69404 0.79154 0.59975 0.0
C955 C 0.66553 0.80836 0.55184 0.0
C956 C 0.64558 0.92321 0.59454 0.0
C957 C 0.66873 0.93737 0.62455 0.0
C958 C 0.64467 0.89809 0.57114 0.0
C959 C 0.66722 0.88712 0.57708 0.0
C960 C 0.69081 0.9259 0.63081 0.0
C961 C 0.68999 0.901 0.60739 0.0
C962 C 0.66629 0.86017 0.55314 0.0
C963 C 0.70037 0.94417 0.46777 0.0
C964 C 0.67921 0.93788 0.43626 0.0
C965 C 0.69379 0.91888 0.49395 0.0
C966 C 0.66589 0.88666 0.48924 0.0
C967 C 0.65034 0.90615 0.43268 0.0
C968 C 0.64397 0.88066 0.45869 0.0
C969 C 0.66216 0.85844 0.51276 0.0
H970 H 0.69603 0.74178 0.44973 0.0
H971 H 0.70325 0.78486 0.49676 0.0
H972 H 0.59663 0.72076 0.42641 0.0
H973 H 0.60441 0.76385 0.47245 0.0
H974 H 0.62584 0.69812 0.58773 0.0
H975 H 0.62176 0.74059 0.5521 0.0
H976 H 0.71695 0.77491 0.64013 0.0
H977 H 0.71315 0.81762 0.60332 0.0
H978 H 0.6281 0.93136 0.5893 0.0
H979 H 0.62608 0.88699 0.54873 0.0
H980 H 0.70886 0.93618 0.65385 0.0
H981 H 0.70737 0.89275 0.61281 0.0
H982 H 0.7228 0.96836 0.47137 0.0
H983 H 0.71154 0.92408 0.51666 0.0
H984 H 0.63371 0.90042 0.40856 0.0
H985 H 0.62247 0.85593 0.45424 0.0
N986 N 0.65822 0.83097 0.49387 0.0
N987 N 0.66849 0.83542 0.57104 0.0
C988 C 0.12287 0.72991 0.44464 0.0
C989 C 0.09213 0.72622 0.43474 0.0
C990 C 0.14277 0.75298 0.47267 0.0
C991 C 0.13211 0.7723 0.49202 0.0
C992 C 0.08091 0.7448 0.45529 0.0
C993 C 0.10081 0.7677 0.48388 0.0
C994 C 0.15611 0.80049 0.5159 0.0
C995 C 0.08444 0.76323 0.63008 0.0
C996 C 0.07222 0.72885 0.62497 0.0
C997 C 0.11064 0.78681 0.60745 0.0
C998 C 0.12515 0.77659 0.57909 0.0
C999 C 0.08683 0.71854 0.59679 0.0
C1000 C 0.11323 0.74219 0.57429 0.0
C1001 C 0.15347 0.8024 0.55621 0.0
C1002 C 0.24582 0.9211 0.63416 0.0
C1003 C 0.27967 0.93439 0.62596 0.0
C1004 C 0.22148 0.89562 0.61134 0.0
C1005 C 0.23042 0.88305 0.57964 0.0
C1006 C 0.28873 0.92157 0.59452 0.0
C1007 C 0.26428 0.89597 0.57162 0.0
C1008 C 0.20417 0.85542 0.55639 0.0
C1009 C 0.26146 0.90485 0.43383 0.0
C1010 C 0.26158 0.93503 0.43782 0.0
C1011 C 0.24454 0.87911 0.46044 0.0
C1012 C 0.22822 0.88339 0.49202 0.0
C1013 C 0.24629 0.93972 0.47028 0.0
C1014 C 0.22986 0.91418 0.49718 0.0
C1015 C 0.20538 0.85429 0.51585 0.0
H1016 H 0.13237 0.71601 0.42965 0.0
H1017 H 0.16704 0.75653 0.47843 0.0
H1018 H 0.05731 0.74244 0.4485 0.0
H1019 H 0.09251 0.78288 0.4983 0.0
H1020 H 0.07381 0.77202 0.65162 0.0
H1021 H 0.11949 0.81315 0.61203 0.0
H1022 H 0.07821 0.69223 0.5925 0.0
H1023 H 0.12469 0.73351 0.55379 0.0
H1024 H 0.23801 0.93034 0.65833 0.0
H1025 H 0.1956 0.8859 0.61834 0.0
H1026 H 0.31462 0.93118 0.58771 0.0
H1027 H 0.27187 0.88598 0.54802 0.0
H1028 H 0.27288 0.90041 0.40905 0.0
H1029 H 0.24326 0.85541 0.45569 0.0
H1030 H 0.24609 0.96274 0.47423 0.0
H1031 H 0.21687 0.91787 0.52084 0.0
N1032 N 0.18167 0.82657 0.4973 0.0
N1033 N 0.17789 0.82976 0.57496 0.0
C1034 C 0.26796 0.38195 0.4408 0.0
C1035 C 0.27746 0.35812 0.43427 0.0
C1036 C 0.24161 0.37498 0.4654 0.0
C1037 C 0.22461 0.3444 0.48475 0.0
C1038 C 0.26078 0.32764 0.45436 0.0
C1039 C 0.23462 0.32089 0.47957 0.0
C1040 C 0.19498 0.33675 0.50775 0.0
C1041 C 0.2331 0.29949 0.61704 0.0
C1042 C 0.26653 0.32523 0.61461 0.0
C1043 C 0.20882 0.30081 0.59514 0.0
C1044 C 0.21751 0.32775 0.57024 0.0
C1045 C 0.27503 0.35243 0.59021 0.0
C1046 C 0.25079 0.35383 0.56859 0.0
C1047 C 0.19153 0.32906 0.54745 0.0
C1048 C 0.06982 0.29971 0.62089 0.0
C1049 C 0.06089 0.32398 0.61526 0.0
C1050 C 0.09537 0.30037 0.59907 0.0
C1051 C 0.11206 0.32502 0.571 0.0
C1052 C 0.07812 0.34897 0.58766 0.0
C1053 C 0.10353 0.34959 0.56595 0.0
C1054 C 0.13908 0.32594 0.54771 0.0
C1055 C 0.09436 0.34625 0.42948 0.0
C1056 C 0.06273 0.3173 0.43239 0.0
C1057 C 0.11983 0.35144 0.45471 0.0
C1058 C 0.11392 0.32821 0.4838 0.0
C1059 C 0.05666 0.2947 0.46234 0.0
C1060 C 0.08192 0.30007 0.48769 0.0
C1061 C 0.14167 0.33147 0.50756 0.0
H1062 H 0.28002 0.40562 0.42579 0.0
H1063 H 0.23418 0.3934 0.46895 0.0
H1064 H 0.26744 0.30873 0.45 0.0
H1065 H 0.22155 0.29697 0.49401 0.0
H1066 H 0.22572 0.27829 0.63573 0.0
H1067 H 0.18324 0.2806 0.59736 0.0
H1068 H 0.30047 0.37294 0.58802 0.0
H1069 H 0.25811 0.37559 0.55094 0.0
H1070 H 0.05711 0.28025 0.64212 0.0
H1071 H 0.1018 0.2814 0.60376 0.0
H1072 H 0.0721 0.36822 0.58286 0.0
H1073 H 0.1167 0.36951 0.54534 0.0
H1074 H 0.09993 0.36392 0.40646 0.0
H1075 H 0.14437 0.37322 0.45095 0.0
H1076 H 0.0326 0.27211 0.46535 0.0
H1077 H 0.07675 0.28134 0.50925 0.0
N1078 N 0.1698 0.33729 0.48933 0.0
N1079 N 0.16376 0.32425 0.56601 0.0
loop_
_geom_bond_atom_site_label_1
_geom_bond_atom_site_label_2
_geom_bond_distance
_geom_bond_site_symmetry_2
_ccdc_geom_bond_type
Co0 O1 2.216 . S
Co0 O2 2.091 . S
Co0 O4 2.004 1_554 S
Co0 O10 2.021 . S
Co0 O12 2.137 1_454 S
Co0 O13 2.241 1_454 S
O1 Co0 2.216 . S
O1 C8 1.247 . S
O2 Co0 2.091 . S
O2 C8 1.261 . S
C3 O12 1.247 . S
C3 O13 1.286 . S
O4 Co0 2.004 1_556 S
O4 C9 1.259 . S
Co5 O6 2.061 . S
Co5 O11 2.052 1_556 S
Co5 O13 2.136 . S
O6 Co5 2.061 . S
O6 C9 1.235 1_655 S
C7 O10 1.238 1_655 S
C7 O11 1.241 . S
C8 O1 1.247 . S
C8 O2 1.261 . S
C9 O4 1.259 . S
C9 O6 1.235 1_455 S
O10 Co0 2.021 . S
O10 C7 1.238 1_455 S
O11 Co5 2.052 1_554 S
O11 C7 1.241 . S
O12 Co0 2.137 1_656 S
O12 C3 1.247 . S
O13 Co0 2.241 1_656 S
O13 C3 1.286 . S
O13 Co5 2.136 . S
Co14 O15 2.216 1_554 S
Co14 O16 2.091 1_554 S
Co14 O18 2.004 . S
Co14 O24 2.021 1_554 S
Co14 O26 2.137 . S
Co14 O27 2.244 . S
O15 Co14 2.216 1_556 S
O15 C22 1.247 . S
O16 Co14 2.091 1_556 S
O16 C22 1.261 . S
C17 O26 1.247 . S
C17 O27 1.272 . S
O18 Co14 2.004 . S
O18 C23 1.259 . S
Co19 O20 2.061 . S
Co19 O25 2.052 1_554 S
Co19 O27 2.135 . S
O20 Co19 2.061 . S
O20 C23 1.235 . S
C21 O24 1.238 . S
C21 O25 1.241 . S
C22 O15 1.247 . S
C22 O16 1.261 . S
C23 O18 1.259 . S
C23 O20 1.235 . S
O24 Co14 2.021 1_556 S
O24 C21 1.238 . S
O25 Co19 2.052 1_556 S
O25 C21 1.241 . S
O26 Co14 2.137 . S
O26 C17 1.247 . S
O27 Co14 2.244 . S
O27 C17 1.272 . S
O27 Co19 2.135 . S
Co28 O29 2.216 1_554 S
Co28 O30 2.091 . S
Co28 O32 2.004 . S
Co28 O38 2.021 1_554 S
Co28 O40 2.137 1_545 S
Co28 O41 2.244 1_545 S
O29 Co28 2.216 1_556 S
O29 C36 1.247 . S
O30 Co28 2.091 . S
O30 C36 1.261 1_554 S
C31 O40 1.247 . S
C31 O41 1.272 . S
O32 Co28 2.004 . S
O32 C37 1.259 . S
Co33 O34 2.061 . S
Co33 O39 2.052 1_554 S
Co33 O41 2.135 . S
O34 Co33 2.061 . S
O34 C37 1.235 1_565 S
C35 O38 1.238 1_565 S
C35 O39 1.241 . S
C36 O29 1.247 . S
C36 O30 1.261 1_556 S
C37 O32 1.259 . S
C37 O34 1.235 1_545 S
O38 Co28 2.021 1_556 S
O38 C35 1.238 1_545 S
O39 Co33 2.052 1_556 S
O39 C35 1.241 . S
O40 Co28 2.137 1_565 S
O40 C31 1.247 . S
O41 Co28 2.244 1_565 S
O41 C31 1.272 . S
O41 Co33 2.135 . S
Co42 O43 2.216 1_554 S
Co42 O44 2.091 . S
Co42 O46 2.004 . S
Co42 O52 2.021 1_554 S
Co42 O54 2.137 1_655 S
Co42 O55 2.244 1_655 S
O43 Co42 2.216 1_556 S
O43 C50 1.247 . S
O44 Co42 2.091 . S
O44 C50 1.261 1_554 S
C45 O54 1.247 . S
C45 O55 1.272 . S
O46 Co42 2.004 . S
O46 C51 1.259 . S
Co47 O48 2.061 . S
Co47 O53 2.052 1_554 S
Co47 O55 2.135 . S
O48 Co47 2.061 . S
O48 C51 1.235 1_455 S
C49 O52 1.238 1_455 S
C49 O53 1.241 . S
C50 O43 1.247 . S
C50 O44 1.261 1_556 S
C51 O46 1.259 . S
C51 O48 1.235 1_655 S
O52 Co42 2.021 1_556 S
O52 C49 1.238 1_655 S
O53 Co47 2.052 1_556 S
O53 C49 1.241 . S
O54 Co42 2.137 1_455 S
O54 C45 1.247 . S
O55 Co42 2.244 1_455 S
O55 C45 1.272 . S
O55 Co47 2.135 . S
Co56 O57 2.216 . S
Co56 O58 2.091 . S
Co56 O60 2.004 1_554 S
Co56 O66 2.021 . S
Co56 O68 2.137 1_554 S
Co56 O69 2.244 1_554 S
O57 Co56 2.216 . S
O57 C64 1.247 . S
O58 Co56 2.091 . S
O58 C64 1.261 . S
C59 O68 1.247 . S
C59 O69 1.272 . S
O60 Co56 2.004 1_556 S
O60 C65 1.259 . S
Co61 O62 2.061 . S
Co61 O67 2.052 1_556 S
Co61 O69 2.135 . S
O62 Co61 2.061 . S
O62 C65 1.235 . S
C63 O66 1.238 . S
C63 O67 1.241 . S
C64 O57 1.247 . S
C64 O58 1.261 . S
C65 O60 1.259 . S
C65 O62 1.235 . S
O66 Co56 2.021 . S
O66 C63 1.238 . S
O67 Co61 2.052 1_554 S
O67 C63 1.241 . S
O68 Co56 2.137 1_556 S
O68 C59 1.247 . S
O69 Co56 2.244 1_556 S
O69 C59 1.272 . S
O69 Co61 2.135 . S
Co70 O71 2.216 . S
Co70 O72 2.091 . S
Co70 O74 2.004 1_554 S
Co70 O80 2.021 . S
Co70 O82 2.137 1_564 S
Co70 O83 2.240 1_564 S
O71 Co70 2.216 . S
O71 C78 1.247 . S
O72 Co70 2.091 . S
O72 C78 1.261 . S
C73 O82 1.247 . S
C73 O83 1.288 . S
O74 Co70 2.004 1_556 S
O74 C79 1.259 . S
Co75 O76 2.079 . S
Co75 O81 2.025 1_556 S
Co75 O83 2.135 . S
O76 Co75 2.079 . S
O76 C79 1.235 1_545 S
C77 O80 1.238 1_545 S
C77 O81 1.241 . S
C78 O71 1.247 . S
C78 O72 1.261 . S
C79 O74 1.259 . S
C79 O76 1.235 1_565 S
O80 Co70 2.021 . S
O80 C77 1.238 1_565 S
O81 Co75 2.025 1_554 S
O81 C77 1.241 . S
O82 Co70 2.137 1_546 S
O82 C73 1.247 . S
O83 Co70 2.240 1_546 S
O83 C73 1.288 . S
O83 Co75 2.135 . S
Co84 O85 2.216 . S
Co84 O86 2.091 . S
Co84 O88 2.004 . S
Co84 O94 2.021 . S
Co84 O96 2.137 . S
Co84 O97 2.244 . S
O85 Co84 2.216 . S
O85 C92 1.247 . S
O86 Co84 2.091 . S
O86 C92 1.261 . S
C87 O96 1.247 . S
C87 O97 1.272 . S
O88 Co84 2.004 . S
O88 C93 1.259 . S
Co89 O90 2.061 . S
Co89 O95 2.052 . S
Co89 O97 2.135 . S
O90 Co89 2.061 . S
O90 C93 1.235 . S
C91 O94 1.238 . S
C91 O95 1.241 . S
C92 O85 1.247 . S
C92 O86 1.261 . S
C93 O88 1.259 . S
C93 O90 1.235 . S
O94 Co84 2.021 . S
O94 C91 1.238 . S
O95 Co89 2.052 . S
O95 C91 1.241 . S
O96 Co84 2.137 . S
O96 C87 1.247 . S
O97 Co84 2.244 . S
O97 C87 1.272 . S
O97 Co89 2.135 . S
Co98 O99 2.216 1_565 S
Co98 O100 2.091 . S
Co98 O102 2.004 . S
Co98 O108 2.021 . S
Co98 O110 2.137 1_565 S
Co98 O111 2.244 1_565 S
O99 Co98 2.216 1_545 S
O99 C106 1.247 1_545 S
O100 Co98 2.091 . S
O100 C106 1.261 . S
C101 O110 1.247 . S
C101 O111 1.272 . S
O102 Co98 2.004 . S
O102 C107 1.259 . S
Co103 O104 2.061 . S
Co103 O109 2.052 . S
Co103 O111 2.135 1_565 S
O104 Co103 2.061 . S
O104 C107 1.235 . S
C105 O108 1.238 . S
C105 O109 1.241 . S
C106 O99 1.247 1_565 S
C106 O100 1.261 . S
C107 O102 1.259 . S
C107 O104 1.235 . S
O108 Co98 2.021 . S
O108 C105 1.238 . S
O109 Co103 2.052 . S
O109 C105 1.241 . S
O110 Co98 2.137 1_545 S
O110 C101 1.247 . S
O111 Co98 2.244 1_545 S
O111 C101 1.272 . S
O111 Co103 2.135 1_545 S
Co112 O113 2.216 1_455 S
Co112 O114 2.091 . S
Co112 O116 2.004 . S
Co112 O122 2.021 . S
Co112 O124 2.137 1_455 S
Co112 O125 2.244 1_455 S
O113 Co112 2.216 1_655 S
O113 C120 1.247 1_655 S
O114 Co112 2.091 . S
O114 C120 1.261 . S
C115 O124 1.247 . S
C115 O125 1.272 . S
O116 Co112 2.004 . S
O116 C121 1.259 . S
Co117 O118 2.061 . S
Co117 O123 2.052 . S
Co117 O125 2.135 1_455 S
O118 Co117 2.061 . S
O118 C121 1.235 . S
C119 O122 1.238 . S
C119 O123 1.241 . S
C120 O113 1.247 1_455 S
C120 O114 1.261 . S
C121 O116 1.259 . S
C121 O118 1.235 . S
O122 Co112 2.021 . S
O122 C119 1.238 . S
O123 Co117 2.052 . S
O123 C119 1.241 . S
O124 Co112 2.137 1_655 S
O124 C115 1.247 . S
O125 Co112 2.244 1_655 S
O125 C115 1.272 . S
O125 Co117 2.135 1_655 S
Co126 O127 2.216 1_565 S
Co126 O128 2.091 . S
Co126 O130 2.004 . S
Co126 O136 2.021 . S
Co126 O138 2.137 1_565 S
Co126 O139 2.244 1_565 S
O127 Co126 2.216 1_545 S
O127 C134 1.247 1_545 S
O128 Co126 2.091 . S
O128 C134 1.261 . S
C129 O138 1.247 . S
C129 O139 1.272 . S
O130 Co126 2.004 . S
O130 C135 1.259 . S
Co131 O132 2.061 . S
Co131 O137 2.052 . S
Co131 O139 2.135 1_565 S
O132 Co131 2.061 . S
O132 C135 1.235 . S
C133 O136 1.238 . S
C133 O137 1.241 . S
C134 O127 1.247 1_565 S
C134 O128 1.261 . S
C135 O130 1.259 . S
C135 O132 1.235 . S
O136 Co126 2.021 . S
O136 C133 1.238 . S
O137 Co131 2.052 . S
O137 C133 1.241 . S
O138 Co126 2.137 1_545 S
O138 C129 1.247 . S
O139 Co126 2.244 1_545 S
O139 C129 1.272 . S
O139 Co131 2.135 1_545 S
Co140 O141 2.216 1_455 S
Co140 O142 2.091 1_455 S
Co140 O144 2.004 . S
Co140 O150 2.021 . S
Co140 O152 2.137 1_455 S
Co140 O153 2.244 . S
O141 Co140 2.216 1_655 S
O141 C148 1.247 . S
O142 Co140 2.091 1_655 S
O142 C148 1.261 . S
C143 O152 1.247 1_455 S
C143 O153 1.272 . S
O144 Co140 2.004 . S
O144 C149 1.259 . S
Co145 O146 2.061 . S
Co145 O151 2.052 . S
Co145 O153 2.135 . S
O146 Co145 2.061 . S
O146 C149 1.235 . S
C147 O150 1.238 . S
C147 O151 1.241 . S
C148 O141 1.247 . S
C148 O142 1.261 . S
C149 O144 1.259 . S
C149 O146 1.235 . S
O150 Co140 2.021 . S
O150 C147 1.238 . S
O151 Co145 2.052 . S
O151 C147 1.241 . S
O152 Co140 2.137 1_655 S
O152 C143 1.247 1_655 S
O153 Co140 2.244 . S
O153 C143 1.272 . S
O153 Co145 2.135 . S
Co154 O155 2.216 . S
Co154 O156 2.091 . S
Co154 O158 2.004 . S
Co154 O164 2.021 . S
Co154 O166 2.137 . S
Co154 O167 2.244 . S
O155 Co154 2.216 . S
O155 C162 1.247 . S
O156 Co154 2.091 . S
O156 C162 1.261 . S
C157 O166 1.247 . S
C157 O167 1.272 . S
O158 Co154 2.004 . S
O158 C163 1.259 . S
Co159 O160 2.061 . S
Co159 O165 2.052 . S
Co159 O167 2.135 . S
O160 Co159 2.061 . S
O160 C163 1.235 . S
C161 O164 1.238 . S
C161 O165 1.241 . S
C162 O155 1.247 . S
C162 O156 1.261 . S
C163 O158 1.259 . S
C163 O160 1.235 . S
O164 Co154 2.021 . S
O164 C161 1.238 . S
O165 Co159 2.052 . S
O165 C161 1.241 . S
O166 Co154 2.137 . S
O166 C157 1.247 . S
O167 Co154 2.244 . S
O167 C157 1.272 . S
O167 Co159 2.135 . S
Co168 O169 2.216 1_545 S
Co168 O170 2.091 . S
Co168 O172 2.004 . S
Co168 O178 2.021 . S
Co168 O180 2.137 1_545 S
Co168 O181 2.244 1_545 S
O169 Co168 2.216 1_565 S
O169 C176 1.247 1_565 S
O170 Co168 2.091 . S
O170 C176 1.261 . S
C171 O180 1.247 . S
C171 O181 1.272 . S
O172 Co168 2.004 . S
O172 C177 1.259 . S
Co173 O174 2.061 . S
Co173 O179 2.052 . S
Co173 O181 2.135 1_545 S
O174 Co173 2.061 . S
O174 C177 1.235 . S
C175 O178 1.238 . S
C175 O179 1.241 . S
C176 O169 1.247 1_545 S
C176 O170 1.261 . S
C177 O172 1.259 . S
C177 O174 1.235 . S
O178 Co168 2.021 . S
O178 C175 1.238 . S
O179 Co173 2.052 . S
O179 C175 1.241 . S
O180 Co168 2.137 1_565 S
O180 C171 1.247 . S
O181 Co168 2.244 1_565 S
O181 C171 1.272 . S
O181 Co173 2.135 1_565 S
Co182 O183 2.216 1_655 S
Co182 O184 2.091 1_655 S
Co182 O186 2.004 . S
Co182 O192 2.021 . S
Co182 O194 2.137 1_655 S
Co182 O195 2.244 . S
O183 Co182 2.216 1_455 S
O183 C190 1.247 . S
O184 Co182 2.091 1_455 S
O184 C190 1.261 . S
C185 O194 1.247 1_655 S
C185 O195 1.272 . S
O186 Co182 2.004 . S
O186 C191 1.259 . S
Co187 O188 2.061 . S
Co187 O193 2.052 . S
Co187 O195 2.135 . S
O188 Co187 2.061 . S
O188 C191 1.235 . S
C189 O192 1.238 . S
C189 O193 1.241 . S
C190 O183 1.247 . S
C190 O184 1.261 . S
C191 O186 1.259 . S
C191 O188 1.235 . S
O192 Co182 2.021 . S
O192 C189 1.238 . S
O193 Co187 2.052 . S
O193 C189 1.241 . S
O194 Co182 2.137 1_455 S
O194 C185 1.247 1_455 S
O195 Co182 2.244 . S
O195 C185 1.272 . S
O195 Co187 2.135 . S
Co196 O197 2.216 . S
Co196 O198 2.091 . S
Co196 O200 2.004 . S
Co196 O206 2.021 . S
Co196 O208 2.137 . S
Co196 O209 2.244 . S
O197 Co196 2.216 . S
O197 C204 1.247 . S
O198 Co196 2.091 . S
O198 C204 1.261 . S
C199 O208 1.247 . S
C199 O209 1.272 . S
O200 Co196 2.004 . S
O200 C205 1.259 . S
Co201 O202 2.061 . S
Co201 O207 2.052 . S
Co201 O209 2.135 . S
O202 Co201 2.061 . S
O202 C205 1.235 . S
C203 O206 1.238 . S
C203 O207 1.241 . S
C204 O197 1.247 . S
C204 O198 1.261 . S
C205 O200 1.259 . S
C205 O202 1.235 . S
O206 Co196 2.021 . S
O206 C203 1.238 . S
O207 Co201 2.052 . S
O207 C203 1.241 . S
O208 Co196 2.137 . S
O208 C199 1.247 . S
O209 Co196 2.244 . S
O209 C199 1.272 . S
O209 Co201 2.135 . S
Co210 O211 2.216 . S
Co210 O212 2.091 . S
Co210 O214 2.004 . S
Co210 O220 2.021 . S
Co210 O222 2.137 . S
Co210 O223 2.244 . S
O211 Co210 2.216 . S
O211 C218 1.247 . S
O212 Co210 2.091 . S
O212 C218 1.261 . S
C213 O222 1.247 . S
C213 O223 1.272 . S
O214 Co210 2.004 . S
O214 C219 1.259 . S
Co215 O216 2.061 . S
Co215 O221 2.052 . S
Co215 O223 2.135 . S
O216 Co215 2.061 . S
O216 C219 1.235 . S
C217 O220 1.238 . S
C217 O221 1.241 . S
C218 O211 1.247 . S
C218 O212 1.261 . S
C219 O214 1.259 . S
C219 O216 1.235 . S
O220 Co210 2.021 . S
O220 C217 1.238 . S
O221 Co215 2.052 . S
O221 C217 1.241 . S
O222 Co210 2.137 . S
O222 C213 1.247 . S
O223 Co210 2.244 . S
O223 C213 1.272 . S
O223 Co215 2.135 . S
Co224 O225 2.216 1_545 S
Co224 O226 2.091 . S
Co224 O228 2.004 . S
Co224 O234 2.021 . S
Co224 O236 2.137 1_545 S
Co224 O237 2.244 1_545 S
O225 Co224 2.216 1_565 S
O225 C232 1.247 1_565 S
O226 Co224 2.091 . S
O226 C232 1.261 . S
C227 O236 1.247 . S
C227 O237 1.272 . S
O228 Co224 2.004 . S
O228 C233 1.259 . S
Co229 O230 2.061 . S
Co229 O235 2.052 . S
Co229 O237 2.135 1_545 S
O230 Co229 2.061 . S
O230 C233 1.235 . S
C231 O234 1.238 . S
C231 O235 1.241 . S
C232 O225 1.247 1_545 S
C232 O226 1.261 . S
C233 O228 1.259 . S
C233 O230 1.235 . S
O234 Co224 2.021 . S
O234 C231 1.238 . S
O235 Co229 2.052 . S
O235 C231 1.241 . S
O236 Co224 2.137 1_565 S
O236 C227 1.247 . S
O237 Co224 2.244 1_565 S
O237 C227 1.272 . S
O237 Co229 2.135 1_565 S
Co238 O239 2.216 1_655 S
Co238 O240 2.091 . S
Co238 O242 2.004 . S
Co238 O248 2.021 . S
Co238 O250 2.137 1_655 S
Co238 O251 2.244 1_655 S
O239 Co238 2.216 1_455 S
O239 C246 1.247 1_455 S
O240 Co238 2.091 . S
O240 C246 1.261 . S
C241 O250 1.247 . S
C241 O251 1.272 . S
O242 Co238 2.004 . S
O242 C247 1.259 . S
Co243 O244 2.061 . S
Co243 O249 2.052 . S
Co243 O251 2.135 1_655 S
O244 Co243 2.061 . S
O244 C247 1.235 . S
C245 O248 1.238 . S
C245 O249 1.241 . S
C246 O239 1.247 1_655 S
C246 O240 1.261 . S
C247 O242 1.259 . S
C247 O244 1.235 . S
O248 Co238 2.021 . S
O248 C245 1.238 . S
O249 Co243 2.052 . S
O249 C245 1.241 . S
O250 Co238 2.137 1_455 S
O250 C241 1.247 . S
O251 Co238 2.244 1_455 S
O251 C241 1.272 . S
O251 Co243 2.135 1_455 S
C252 C253 1.384 . S
C252 C254 1.384 . S
C252 H280 0.931 . S
C253 C252 1.384 . S
C253 C256 1.382 . S
C254 C252 1.384 . S
C254 C255 1.381 . S
C254 H281 0.930 . S
C255 C254 1.381 . S
C255 C257 1.381 . S
C255 C258 1.487 . S
C256 C253 1.382 . S
C256 C257 1.387 . S
C256 H282 0.930 . S
C257 C255 1.381 . S
C257 C256 1.387 . S
C257 H283 0.931 . S
C258 C255 1.487 . S
C258 C265 1.399 . S
C258 N296 1.343 . S
C259 C260 1.384 . S
C259 C261 1.384 . S
C259 H284 0.931 . S
C260 C259 1.384 . S
C260 C263 1.382 . S
C261 C259 1.384 . S
C261 C262 1.381 . S
C261 H285 0.930 . S
C262 C261 1.381 . S
C262 C264 1.381 . S
C262 C265 1.487 . S
C263 C260 1.382 . S
C263 C264 1.387 . S
C263 H286 0.930 . S
C264 C262 1.381 . S
C264 C263 1.387 . S
C264 H287 0.931 . S
C265 C258 1.399 . S
C265 C262 1.487 . S
C265 N297 1.343 . S
C266 C267 1.384 . S
C266 C268 1.384 . S
C266 H288 0.931 . S
C267 C266 1.384 . S
C267 C270 1.382 . S
C268 C266 1.384 . S
C268 C269 1.381 . S
C268 H289 0.930 . S
C269 C268 1.381 . S
C269 C271 1.381 . S
C269 C272 1.487 . S
C270 C267 1.382 . S
C270 C271 1.387 . S
C270 H290 0.930 . S
C271 C269 1.381 . S
C271 C270 1.387 . S
C271 H291 0.931 . S
C272 C269 1.487 . S
C272 C279 1.399 . S
C272 N297 1.343 . S
C273 C274 1.384 . S
C273 C275 1.384 . S
C273 H292 0.931 . S
C274 C273 1.384 . S
C274 C277 1.382 . S
C275 C273 1.384 . S
C275 C276 1.381 . S
C275 H293 0.930 . S
C276 C275 1.381 . S
C276 C278 1.381 . S
C276 C279 1.487 . S
C277 C274 1.382 . S
C277 C278 1.387 . S
C277 H294 0.930 . S
C278 C276 1.381 . S
C278 C277 1.387 . S
C278 H295 0.931 . S
C279 C272 1.399 . S
C279 C276 1.487 . S
C279 N296 1.343 . S
H280 C252 0.931 . S
H281 C254 0.930 . S
H282 C256 0.930 . S
H283 C257 0.931 . S
H284 C259 0.931 . S
H285 C261 0.930 . S
H286 C263 0.930 . S
H287 C264 0.931 . S
H288 C266 0.931 . S
H289 C268 0.930 . S
H290 C270 0.930 . S
H291 C271 0.931 . S
H292 C273 0.931 . S
H293 C275 0.930 . S
H294 C277 0.930 . S
H295 C278 0.931 . S
N296 C258 1.343 . S
N296 C279 1.343 . S
N297 C265 1.343 . S
N297 C272 1.343 . S
C298 C299 1.384 . S
C298 C300 1.384 . S
C298 H326 0.931 . S
C299 C298 1.384 . S
C299 C302 1.382 . S
C300 C298 1.384 . S
C300 C301 1.381 . S
C300 H327 0.930 . S
C301 C300 1.381 . S
C301 C303 1.381 . S
C301 C304 1.487 . S
C302 C299 1.382 . S
C302 C303 1.387 . S
C302 H328 0.930 . S
C303 C301 1.381 . S
C303 C302 1.387 . S
C303 H329 0.931 . S
C304 C301 1.487 . S
C304 C311 1.399 . S
C304 N342 1.343 . S
C305 C306 1.384 . S
C305 C307 1.384 . S
C305 H330 0.931 . S
C306 C305 1.384 . S
C306 C309 1.382 . S
C307 C305 1.384 . S
C307 C308 1.381 . S
C307 H331 0.930 . S
C308 C307 1.381 . S
C308 C310 1.381 . S
C308 C311 1.487 . S
C309 C306 1.382 . S
C309 C310 1.387 . S
C309 H332 0.930 . S
C310 C308 1.381 . S
C310 C309 1.387 . S
C310 H333 0.931 . S
C311 C304 1.399 . S
C311 C308 1.487 . S
C311 N343 1.343 . S
C312 C313 1.384 . S
C312 C314 1.384 . S
C312 H334 0.931 . S
C313 C312 1.384 . S
C313 C316 1.382 . S
C314 C312 1.384 . S
C314 C315 1.381 . S
C314 H335 0.930 . S
C315 C314 1.381 . S
C315 C317 1.381 . S
C315 C318 1.487 . S
C316 C313 1.382 . S
C316 C317 1.387 . S
C316 H336 0.930 . S
C317 C315 1.381 . S
C317 C316 1.387 . S
C317 H337 0.931 . S
C318 C315 1.487 . S
C318 C325 1.399 . S
C318 N343 1.343 . S
C319 C320 1.384 . S
C319 C321 1.384 . S
C319 H338 0.931 . S
C320 C319 1.384 . S
C320 C323 1.382 . S
C321 C319 1.384 . S
C321 C322 1.381 . S
C321 H339 0.930 . S
C322 C321 1.381 . S
C322 C324 1.381 . S
C322 C325 1.487 . S
C323 C320 1.382 . S
C323 C324 1.387 . S
C323 H340 0.930 . S
C324 C322 1.381 . S
C324 C323 1.387 . S
C324 H341 0.931 . S
C325 C318 1.399 . S
C325 C322 1.487 . S
C325 N342 1.343 . S
H326 C298 0.931 . S
H327 C300 0.930 . S
H328 C302 0.930 . S
H329 C303 0.931 . S
H330 C305 0.931 . S
H331 C307 0.930 . S
H332 C309 0.930 . S
H333 C310 0.931 . S
H334 C312 0.931 . S
H335 C314 0.930 . S
H336 C316 0.930 . S
H337 C317 0.931 . S
H338 C319 0.931 . S
H339 C321 0.930 . S
H340 C323 0.930 . S
H341 C324 0.931 . S
N342 C304 1.343 . S
N342 C325 1.343 . S
N343 C311 1.343 . S
N343 C318 1.343 . S
C344 C345 1.384 . S
C344 C346 1.384 . S
C344 H372 0.931 . S
C345 C344 1.384 . S
C345 C348 1.382 . S
C346 C344 1.384 . S
C346 C347 1.381 . S
C346 H373 0.930 . S
C347 C346 1.381 . S
C347 C349 1.381 . S
C347 C350 1.487 . S
C348 C345 1.382 . S
C348 C349 1.387 . S
C348 H374 0.930 . S
C349 C347 1.381 . S
C349 C348 1.387 . S
C349 H375 0.931 . S
C350 C347 1.487 . S
C350 C357 1.399 . S
C350 N388 1.343 . S
C351 C352 1.384 . S
C351 C353 1.384 . S
C351 H376 0.931 . S
C352 C351 1.384 . S
C352 C355 1.382 . S
C353 C351 1.384 . S
C353 C354 1.381 . S
C353 H377 0.930 . S
C354 C353 1.381 . S
C354 C356 1.381 . S
C354 C357 1.487 . S
C355 C352 1.382 . S
C355 C356 1.387 . S
C355 H378 0.930 . S
C356 C354 1.381 . S
C356 C355 1.387 . S
C356 H379 0.931 . S
C357 C350 1.399 . S
C357 C354 1.487 . S
C357 N389 1.343 . S
C358 C359 1.384 . S
C358 C360 1.384 . S
C358 H380 0.931 . S
C359 C358 1.384 . S
C359 C362 1.382 . S
C360 C358 1.384 . S
C360 C361 1.381 . S
C360 H381 0.930 . S
C361 C360 1.381 . S
C361 C363 1.381 . S
C361 C364 1.487 . S
C362 C359 1.382 . S
C362 C363 1.387 . S
C362 H382 0.930 . S
C363 C361 1.381 . S
C363 C362 1.387 . S
C363 H383 0.931 . S
C364 C361 1.487 . S
C364 C371 1.399 . S
C364 N389 1.343 . S
C365 C366 1.384 . S
C365 C367 1.384 . S
C365 H384 0.931 . S
C366 C365 1.384 . S
C366 C369 1.382 . S
C367 C365 1.384 . S
C367 C368 1.381 . S
C367 H385 0.930 . S
C368 C367 1.381 . S
C368 C370 1.381 . S
C368 C371 1.487 . S
C369 C366 1.382 . S
C369 C370 1.387 . S
C369 H386 0.930 . S
C370 C368 1.381 . S
C370 C369 1.387 . S
C370 H387 0.931 . S
C371 C364 1.399 . S
C371 C368 1.487 . S
C371 N388 1.343 . S
H372 C344 0.931 . S
H373 C346 0.930 . S
H374 C348 0.930 . S
H375 C349 0.931 . S
H376 C351 0.931 . S
H377 C353 0.930 . S
H378 C355 0.930 . S
H379 C356 0.931 . S
H380 C358 0.931 . S
H381 C360 0.930 . S
H382 C362 0.930 . S
H383 C363 0.931 . S
H384 C365 0.931 . S
H385 C367 0.930 . S
H386 C369 0.930 . S
H387 C370 0.931 . S
N388 C350 1.343 . S
N388 C371 1.343 . S
N389 C357 1.343 . S
N389 C364 1.343 . S
C390 C391 1.384 . S
C390 C392 1.384 . S
C390 H418 0.931 . S
C391 C390 1.384 . S
C391 C394 1.382 . S
C392 C390 1.384 . S
C392 C393 1.381 . S
C392 H419 0.930 . S
C393 C392 1.381 . S
C393 C395 1.381 . S
C393 C396 1.487 . S
C394 C391 1.382 . S
C394 C395 1.387 . S
C394 H420 0.930 . S
C395 C393 1.381 . S
C395 C394 1.387 . S
C395 H421 0.931 . S
C396 C393 1.487 . S
C396 C403 1.399 . S
C396 N434 1.343 . S
C397 C398 1.384 . S
C397 C399 1.384 . S
C397 H422 0.931 . S
C398 C397 1.384 . S
C398 C401 1.382 . S
C399 C397 1.384 . S
C399 C400 1.381 . S
C399 H423 0.930 . S
C400 C399 1.381 . S
C400 C402 1.381 . S
C400 C403 1.487 . S
C401 C398 1.382 . S
C401 C402 1.387 . S
C401 H424 0.930 . S
C402 C400 1.381 . S
C402 C401 1.387 . S
C402 H425 0.931 . S
C403 C396 1.399 . S
C403 C400 1.487 . S
C403 N435 1.343 . S
C404 C405 1.384 . S
C404 C406 1.384 . S
C404 H426 0.931 . S
C405 C404 1.384 . S
C405 C408 1.382 . S
C406 C404 1.384 . S
C406 C407 1.381 . S
C406 H427 0.930 . S
C407 C406 1.381 . S
C407 C409 1.381 . S
C407 C410 1.487 . S
C408 C405 1.382 . S
C408 C409 1.387 . S
C408 H428 0.930 . S
C409 C407 1.381 . S
C409 C408 1.387 . S
C409 H429 0.931 . S
C410 C407 1.487 . S
C410 C417 1.399 . S
C410 N435 1.343 . S
C411 C412 1.384 . S
C411 C413 1.384 . S
C411 H430 0.931 . S
C412 C411 1.384 . S
C412 C415 1.382 . S
C413 C411 1.384 . S
C413 C414 1.381 . S
C413 H431 0.930 . S
C414 C413 1.381 . S
C414 C416 1.381 . S
C414 C417 1.487 . S
C415 C412 1.382 . S
C415 C416 1.387 . S
C415 H432 0.930 . S
C416 C414 1.381 . S
C416 C415 1.387 . S
C416 H433 0.931 . S
C417 C410 1.399 . S
C417 C414 1.487 . S
C417 N434 1.343 . S
H418 C390 0.931 . S
H419 C392 0.930 . S
H420 C394 0.930 . S
H421 C395 0.931 . S
H422 C397 0.931 . S
H423 C399 0.930 . S
H424 C401 0.930 . S
H425 C402 0.931 . S
H426 C404 0.931 . S
H427 C406 0.930 . S
H428 C408 0.930 . S
H429 C409 0.931 . S
H430 C411 0.931 . S
H431 C413 0.930 . S
H432 C415 0.930 . S
H433 C416 0.931 . S
N434 C396 1.343 . S
N434 C417 1.343 . S
N435 C403 1.343 . S
N435 C410 1.343 . S
C436 C437 1.384 . S
C436 C438 1.384 . S
C436 H464 0.931 . S
C437 C436 1.384 . S
C437 C440 1.382 . S
C438 C436 1.384 . S
C438 C439 1.381 . S
C438 H465 0.930 . S
C439 C438 1.381 . S
C439 C441 1.381 . S
C439 C442 1.487 . S
C440 C437 1.382 . S
C440 C441 1.387 . S
C440 H466 0.930 . S
C441 C439 1.381 . S
C441 C440 1.387 . S
C441 H467 0.931 . S
C442 C439 1.487 . S
C442 C449 1.399 . S
C442 N480 1.343 . S
C443 C444 1.384 . S
C443 C445 1.384 . S
C443 H468 0.931 . S
C444 C443 1.384 . S
C444 C447 1.382 . S
C445 C443 1.384 . S
C445 C446 1.381 . S
C445 H469 0.930 . S
C446 C445 1.381 . S
C446 C448 1.381 . S
C446 C449 1.487 . S
C447 C444 1.382 . S
C447 C448 1.387 . S
C447 H470 0.930 . S
C448 C446 1.381 . S
C448 C447 1.387 . S
C448 H471 0.931 . S
C449 C442 1.399 . S
C449 C446 1.487 . S
C449 N481 1.343 . S
C450 C451 1.384 . S
C450 C452 1.384 . S
C450 H472 0.931 . S
C451 C450 1.384 . S
C451 C454 1.382 . S
C452 C450 1.384 . S
C452 C453 1.381 . S
C452 H473 0.930 . S
C453 C452 1.381 . S
C453 C455 1.381 . S
C453 C456 1.487 . S
C454 C451 1.382 . S
C454 C455 1.387 . S
C454 H474 0.930 . S
C455 C453 1.381 . S
C455 C454 1.387 . S
C455 H475 0.931 . S
C456 C453 1.487 . S
C456 C463 1.399 . S
C456 N481 1.343 . S
C457 C458 1.384 . S
C457 C459 1.384 . S
C457 H476 0.931 . S
C458 C457 1.384 . S
C458 C461 1.382 . S
C459 C457 1.384 . S
C459 C460 1.381 . S
C459 H477 0.930 . S
C460 C459 1.381 . S
C460 C462 1.381 . S
C460 C463 1.487 . S
C461 C458 1.382 . S
C461 C462 1.387 . S
C461 H478 0.930 . S
C462 C460 1.381 . S
C462 C461 1.387 . S
C462 H479 0.931 . S
C463 C456 1.399 . S
C463 C460 1.487 . S
C463 N480 1.343 . S
H464 C436 0.931 . S
H465 C438 0.930 . S
H466 C440 0.930 . S
H467 C441 0.931 . S
H468 C443 0.931 . S
H469 C445 0.930 . S
H470 C447 0.930 . S
H471 C448 0.931 . S
H472 C450 0.931 . S
H473 C452 0.930 . S
H474 C454 0.930 . S
H475 C455 0.931 . S
H476 C457 0.931 . S
H477 C459 0.930 . S
H478 C461 0.930 . S
H479 C462 0.931 . S
N480 C442 1.343 . S
N480 C463 1.343 . S
N481 C449 1.343 . S
N481 C456 1.343 . S
C482 C483 1.384 . S
C482 C484 1.384 . S
C482 H510 0.931 . S
C483 C482 1.384 . S
C483 C486 1.382 . S
C484 C482 1.384 . S
C484 C485 1.381 . S
C484 H511 0.930 . S
C485 C484 1.381 . S
C485 C487 1.381 . S
C485 C488 1.487 . S
C486 C483 1.382 . S
C486 C487 1.387 . S
C486 H512 0.930 . S
C487 C485 1.381 . S
C487 C486 1.387 . S
C487 H513 0.931 . S
C488 C485 1.487 . S
C488 C495 1.399 . S
C488 N526 1.343 . S
C489 C490 1.384 . S
C489 C491 1.384 . S
C489 H514 0.931 . S
C490 C489 1.384 . S
C490 C493 1.382 . S
C491 C489 1.384 . S
C491 C492 1.381 . S
C491 H515 0.930 . S
C492 C491 1.381 . S
C492 C494 1.381 . S
C492 C495 1.487 . S
C493 C490 1.382 . S
C493 C494 1.387 . S
C493 H516 0.930 . S
C494 C492 1.381 . S
C494 C493 1.387 . S
C494 H517 0.931 . S
C495 C488 1.399 . S
C495 C492 1.487 . S
C495 N527 1.343 . S
C496 C497 1.384 . S
C496 C498 1.384 . S
C496 H518 0.931 . S
C497 C496 1.384 . S
C497 C500 1.382 . S
C498 C496 1.384 . S
C498 C499 1.381 . S
C498 H519 0.930 . S
C499 C498 1.381 . S
C499 C501 1.381 . S
C499 C502 1.487 . S
C500 C497 1.382 . S
C500 C501 1.387 . S
C500 H520 0.930 . S
C501 C499 1.381 . S
C501 C500 1.387 . S
C501 H521 0.931 . S
C502 C499 1.487 . S
C502 C509 1.399 . S
C502 N527 1.343 . S
C503 C504 1.384 . S
C503 C505 1.384 . S
C503 H522 0.931 . S
C504 C503 1.384 . S
C504 C507 1.382 . S
C505 C503 1.384 . S
C505 C506 1.381 . S
C505 H523 0.930 . S
C506 C505 1.381 . S
C506 C508 1.381 . S
C506 C509 1.487 . S
C507 C504 1.382 . S
C507 C508 1.387 . S
C507 H524 0.930 . S
C508 C506 1.381 . S
C508 C507 1.387 . S
C508 H525 0.931 . S
C509 C502 1.399 . S
C509 C506 1.487 . S
C509 N526 1.343 . S
H510 C482 0.931 . S
H511 C484 0.930 . S
H512 C486 0.930 . S
H513 C487 0.931 . S
H514 C489 0.931 . S
H515 C491 0.930 . S
H516 C493 0.930 . S
H517 C494 0.931 . S
H518 C496 0.931 . S
H519 C498 0.930 . S
H520 C500 0.930 . S
H521 C501 0.931 . S
H522 C503 0.931 . S
H523 C505 0.930 . S
H524 C507 0.930 . S
H525 C508 0.931 . S
N526 C488 1.343 . S
N526 C509 1.343 . S
N527 C495 1.343 . S
N527 C502 1.343 . S
C528 C529 1.384 . S
C528 C530 1.384 . S
C528 H556 0.931 . S
C529 C528 1.384 . S
C529 C532 1.382 . S
C530 C528 1.384 . S
C530 C531 1.381 . S
C530 H557 0.930 . S
C531 C530 1.381 . S
C531 C533 1.381 . S
C531 C534 1.487 . S
C532 C529 1.382 . S
C532 C533 1.387 . S
C532 H558 0.930 . S
C533 C531 1.381 . S
C533 C532 1.387 . S
C533 H559 0.931 . S
C534 C531 1.487 . S
C534 C541 1.399 . S
C534 N572 1.343 . S
C535 C536 1.384 . S
C535 C537 1.384 . S
C535 H560 0.931 . S
C536 C535 1.384 . S
C536 C539 1.382 . S
C537 C535 1.384 . S
C537 C538 1.381 . S
C537 H561 0.930 . S
C538 C537 1.381 . S
C538 C540 1.381 . S
C538 C541 1.487 . S
C539 C536 1.382 . S
C539 C540 1.387 . S
C539 H562 0.930 . S
C540 C538 1.381 . S
C540 C539 1.387 . S
C540 H563 0.931 . S
C541 C534 1.399 . S
C541 C538 1.487 . S
C541 N573 1.343 . S
C542 C543 1.384 . S
C542 C544 1.384 . S
C542 H564 0.931 . S
C543 C542 1.384 . S
C543 C546 1.382 . S
C544 C542 1.384 . S
C544 C545 1.381 . S
C544 H565 0.930 . S
C545 C544 1.381 . S
C545 C547 1.381 . S
C545 C548 1.487 . S
C546 C543 1.382 . S
C546 C547 1.387 . S
C546 H566 0.930 . S
C547 C545 1.381 . S
C547 C546 1.387 . S
C547 H567 0.931 . S
C548 C545 1.487 . S
C548 C555 1.399 . S
C548 N573 1.343 . S
C549 C550 1.384 . S
C549 C551 1.384 . S
C549 H568 0.931 . S
C550 C549 1.384 . S
C550 C553 1.382 . S
C551 C549 1.384 . S
C551 C552 1.381 . S
C551 H569 0.930 . S
C552 C551 1.381 . S
C552 C554 1.381 . S
C552 C555 1.487 . S
C553 C550 1.382 . S
C553 C554 1.387 . S
C553 H570 0.930 . S
C554 C552 1.381 . S
C554 C553 1.387 . S
C554 H571 0.931 . S
C555 C548 1.399 . S
C555 C552 1.487 . S
C555 N572 1.343 . S
H556 C528 0.931 . S
H557 C530 0.930 . S
H558 C532 0.930 . S
H559 C533 0.931 . S
H560 C535 0.931 . S
H561 C537 0.930 . S
H562 C539 0.930 . S
H563 C540 0.931 . S
H564 C542 0.931 . S
H565 C544 0.930 . S
H566 C546 0.930 . S
H567 C547 0.931 . S
H568 C549 0.931 . S
H569 C551 0.930 . S
H570 C553 0.930 . S
H571 C554 0.931 . S
N572 C534 1.343 . S
N572 C555 1.343 . S
N573 C541 1.343 . S
N573 C548 1.343 . S
C574 C575 1.384 . S
C574 C576 1.384 . S
C574 H602 0.931 . S
C575 C574 1.384 . S
C575 C578 1.382 . S
C576 C574 1.384 . S
C576 C577 1.381 . S
C576 H603 0.930 . S
C577 C576 1.381 . S
C577 C579 1.381 . S
C577 C580 1.487 . S
C578 C575 1.382 . S
C578 C579 1.387 . S
C578 H604 0.930 . S
C579 C577 1.381 . S
C579 C578 1.387 . S
C579 H605 0.931 . S
C580 C577 1.487 . S
C580 C587 1.399 . S
C580 N618 1.343 . S
C581 C582 1.384 . S
C581 C583 1.384 . S
C581 H606 0.931 . S
C582 C581 1.384 . S
C582 C585 1.382 . S
C583 C581 1.384 . S
C583 C584 1.381 . S
C583 H607 0.930 . S
C584 C583 1.381 . S
C584 C586 1.381 . S
C584 C587 1.487 . S
C585 C582 1.382 . S
C585 C586 1.387 . S
C585 H608 0.930 . S
C586 C584 1.381 . S
C586 C585 1.387 . S
C586 H609 0.931 . S
C587 C580 1.399 . S
C587 C584 1.487 . S
C587 N619 1.343 . S
C588 C589 1.384 . S
C588 C590 1.384 . S
C588 H610 0.931 . S
C589 C588 1.384 . S
C589 C592 1.382 . S
C590 C588 1.384 . S
C590 C591 1.381 . S
C590 H611 0.930 . S
C591 C590 1.381 . S
C591 C593 1.381 . S
C591 C594 1.487 . S
C592 C589 1.382 . S
C592 C593 1.387 . S
C592 H612 0.930 . S
C593 C591 1.381 . S
C593 C592 1.387 . S
C593 H613 0.931 . S
C594 C591 1.487 . S
C594 C601 1.399 . S
C594 N619 1.343 . S
C595 C596 1.384 . S
C595 C597 1.384 . S
C595 H614 0.931 . S
C596 C595 1.384 . S
C596 C599 1.382 . S
C597 C595 1.384 . S
C597 C598 1.381 . S
C597 H615 0.930 . S
C598 C597 1.381 . S
C598 C600 1.381 . S
C598 C601 1.487 . S
C599 C596 1.382 . S
C599 C600 1.387 . S
C599 H616 0.930 . S
C600 C598 1.381 . S
C600 C599 1.387 . S
C600 H617 0.931 . S
C601 C594 1.399 . S
C601 C598 1.487 . S
C601 N618 1.343 . S
H602 C574 0.931 . S
H603 C576 0.930 . S
H604 C578 0.930 . S
H605 C579 0.931 . S
H606 C581 0.931 . S
H607 C583 0.930 . S
H608 C585 0.930 . S
H609 C586 0.931 . S
H610 C588 0.931 . S
H611 C590 0.930 . S
H612 C592 0.930 . S
H613 C593 0.931 . S
H614 C595 0.931 . S
H615 C597 0.930 . S
H616 C599 0.930 . S
H617 C600 0.931 . S
N618 C580 1.343 . S
N618 C601 1.343 . S
N619 C587 1.343 . S
N619 C594 1.343 . S
C620 C621 1.384 . S
C620 C622 1.384 . S
C620 H648 0.931 . S
C621 C620 1.384 . S
C621 C624 1.382 . S
C622 C620 1.384 . S
C622 C623 1.381 . S
C622 H649 0.930 . S
C623 C622 1.381 . S
C623 C625 1.381 . S
C623 C626 1.487 . S
C624 C621 1.382 . S
C624 C625 1.387 . S
C624 H650 0.930 . S
C625 C623 1.381 . S
C625 C624 1.387 . S
C625 H651 0.931 . S
C626 C623 1.487 . S
C626 C633 1.399 . S
C626 N664 1.343 . S
C627 C628 1.384 . S
C627 C629 1.384 . S
C627 H652 0.931 . S
C628 C627 1.384 . S
C628 C631 1.382 . S
C629 C627 1.384 . S
C629 C630 1.381 . S
C629 H653 0.930 . S
C630 C629 1.381 . S
C630 C632 1.381 . S
C630 C633 1.487 . S
C631 C628 1.382 . S
C631 C632 1.387 . S
C631 H654 0.930 . S
C632 C630 1.381 . S
C632 C631 1.387 . S
C632 H655 0.931 . S
C633 C626 1.399 . S
C633 C630 1.487 . S
C633 N665 1.343 . S
C634 C635 1.384 . S
C634 C636 1.384 . S
C634 H656 0.931 . S
C635 C634 1.384 . S
C635 C638 1.382 . S
C636 C634 1.384 . S
C636 C637 1.381 . S
C636 H657 0.930 . S
C637 C636 1.381 . S
C637 C639 1.381 . S
C637 C640 1.487 . S
C638 C635 1.382 . S
C638 C639 1.387 . S
C638 H658 0.930 . S
C639 C637 1.381 . S
C639 C638 1.387 . S
C639 H659 0.931 . S
C640 C637 1.487 . S
C640 C647 1.399 . S
C640 N665 1.343 . S
C641 C642 1.384 . S
C641 C643 1.384 . S
C641 H660 0.931 . S
C642 C641 1.384 . S
C642 C645 1.382 . S
C643 C641 1.384 . S
C643 C644 1.381 . S
C643 H661 0.930 . S
C644 C643 1.381 . S
C644 C646 1.381 . S
C644 C647 1.487 . S
C645 C642 1.382 . S
C645 C646 1.387 . S
C645 H662 0.930 . S
C646 C644 1.381 . S
C646 C645 1.387 . S
C646 H663 0.931 . S
C647 C640 1.399 . S
C647 C644 1.487 . S
C647 N664 1.343 . S
H648 C620 0.931 . S
H649 C622 0.930 . S
H650 C624 0.930 . S
H651 C625 0.931 . S
H652 C627 0.931 . S
H653 C629 0.930 . S
H654 C631 0.930 . S
H655 C632 0.931 . S
H656 C634 0.931 . S
H657 C636 0.930 . S
H658 C638 0.930 . S
H659 C639 0.931 . S
H660 C641 0.931 . S
H661 C643 0.930 . S
H662 C645 0.930 . S
H663 C646 0.931 . S
N664 C626 1.343 . S
N664 C647 1.343 . S
N665 C633 1.343 . S
N665 C640 1.343 . S
C666 C667 1.384 . S
C666 C668 1.384 . S
C666 H694 0.931 . S
C667 C666 1.384 . S
C667 C670 1.382 1_655 S
C668 C666 1.384 . S
C668 C669 1.409 . S
C668 H695 0.930 . S
C669 C668 1.409 . S
C669 C671 1.368 1_655 S
C669 C672 1.470 1_655 S
C670 C667 1.382 1_455 S
C670 C671 1.387 . S
C670 H696 0.930 . S
C671 C669 1.368 1_455 S
C671 C670 1.387 . S
C671 H697 0.931 . S
C672 C669 1.470 1_455 S
C672 C679 1.399 1_455 S
C672 N710 1.348 . S
C673 C674 1.384 . S
C673 C675 1.384 . S
C673 H698 0.931 . S
C674 C673 1.384 . S
C674 C677 1.382 1_455 S
C675 C673 1.384 . S
C675 C676 1.382 . S
C675 H699 0.930 . S
C676 C675 1.382 . S
C676 C678 1.380 1_455 S
C676 C679 1.495 1_455 S
C677 C674 1.382 1_655 S
C677 C678 1.387 . S
C677 H700 0.930 . S
C678 C676 1.380 1_655 S
C678 C677 1.387 . S
C678 H701 0.931 . S
C679 C672 1.399 1_655 S
C679 C676 1.495 1_655 S
C679 N711 1.335 . S
C680 C681 1.384 . S
C680 C682 1.384 . S
C680 H702 0.931 . S
C681 C680 1.384 . S
C681 C684 1.382 1_455 S
C682 C680 1.384 . S
C682 C683 1.418 . S
C682 H703 0.930 . S
C683 C682 1.418 . S
C683 C685 1.363 1_455 S
C683 C686 1.470 1_455 S
C684 C681 1.382 1_655 S
C684 C685 1.387 . S
C684 H704 0.930 . S
C685 C683 1.363 1_655 S
C685 C684 1.387 . S
C685 H705 0.931 . S
C686 C683 1.470 1_655 S
C686 C693 1.399 1_655 S
C686 N711 1.343 . S
C687 C688 1.384 . S
C687 C689 1.384 . S
C687 H706 0.931 . S
C688 C687 1.384 . S
C688 C691 1.382 1_655 S
C689 C687 1.384 . S
C689 C690 1.382 1_655 S
C689 H707 0.930 . S
C690 C689 1.382 1_455 S
C690 C692 1.380 . S
C690 C693 1.499 . S
C691 C688 1.382 1_455 S
C691 C692 1.387 . S
C691 H708 0.930 . S
C692 C690 1.380 . S
C692 C691 1.387 . S
C692 H709 0.931 . S
C693 C686 1.399 1_455 S
C693 C690 1.499 . S
C693 N710 1.332 . S
H694 C666 0.931 . S
H695 C668 0.930 . S
H696 C670 0.930 . S
H697 C671 0.931 . S
H698 C673 0.931 . S
H699 C675 0.930 . S
H700 C677 0.930 . S
H701 C678 0.931 . S
H702 C680 0.931 . S
H703 C682 0.930 . S
H704 C684 0.930 . S
H705 C685 0.931 . S
H706 C687 0.931 . S
H707 C689 0.930 . S
H708 C691 0.930 . S
H709 C692 0.931 . S
N710 C672 1.348 . S
N710 C693 1.332 . S
N711 C679 1.335 . S
N711 C686 1.343 . S
C712 C713 1.384 . S
C712 C714 1.384 . S
C712 H740 0.931 . S
C713 C712 1.384 . S
C713 C716 1.382 . S
C714 C712 1.384 . S
C714 C715 1.381 . S
C714 H741 0.930 . S
C715 C714 1.381 . S
C715 C717 1.381 . S
C715 C718 1.487 . S
C716 C713 1.382 . S
C716 C717 1.387 . S
C716 H742 0.930 . S
C717 C715 1.381 . S
C717 C716 1.387 . S
C717 H743 0.931 . S
C718 C715 1.487 . S
C718 C725 1.399 . S
C718 N756 1.343 . S
C719 C720 1.384 . S
C719 C721 1.384 . S
C719 H744 0.931 . S
C720 C719 1.384 . S
C720 C723 1.382 . S
C721 C719 1.384 . S
C721 C722 1.381 . S
C721 H745 0.930 . S
C722 C721 1.381 . S
C722 C724 1.381 . S
C722 C725 1.487 . S
C723 C720 1.382 . S
C723 C724 1.387 . S
C723 H746 0.930 . S
C724 C722 1.381 . S
C724 C723 1.387 . S
C724 H747 0.931 . S
C725 C718 1.399 . S
C725 C722 1.487 . S
C725 N757 1.343 . S
C726 C727 1.384 . S
C726 C728 1.384 . S
C726 H748 0.931 . S
C727 C726 1.384 . S
C727 C730 1.382 . S
C728 C726 1.384 . S
C728 C729 1.381 . S
C728 H749 0.930 . S
C729 C728 1.381 . S
C729 C731 1.381 . S
C729 C732 1.487 . S
C730 C727 1.382 . S
C730 C731 1.387 . S
C730 H750 0.930 . S
C731 C729 1.381 . S
C731 C730 1.387 . S
C731 H751 0.931 . S
C732 C729 1.487 . S
C732 C739 1.399 . S
C732 N757 1.343 . S
C733 C734 1.384 . S
C733 C735 1.384 . S
C733 H752 0.931 . S
C734 C733 1.384 . S
C734 C737 1.382 . S
C735 C733 1.384 . S
C735 C736 1.381 . S
C735 H753 0.930 . S
C736 C735 1.381 . S
C736 C738 1.381 . S
C736 C739 1.487 . S
C737 C734 1.382 . S
C737 C738 1.387 . S
C737 H754 0.930 . S
C738 C736 1.381 . S
C738 C737 1.387 . S
C738 H755 0.931 . S
C739 C732 1.399 . S
C739 C736 1.487 . S
C739 N756 1.343 . S
H740 C712 0.931 . S
H741 C714 0.930 . S
H742 C716 0.930 . S
H743 C717 0.931 . S
H744 C719 0.931 . S
H745 C721 0.930 . S
H746 C723 0.930 . S
H747 C724 0.931 . S
H748 C726 0.931 . S
H749 C728 0.930 . S
H750 C730 0.930 . S
H751 C731 0.931 . S
H752 C733 0.931 . S
H753 C735 0.930 . S
H754 C737 0.930 . S
H755 C738 0.931 . S
N756 C718 1.343 . S
N756 C739 1.343 . S
N757 C725 1.343 . S
N757 C732 1.343 . S
C758 C759 1.384 1_545 S
C758 C760 1.384 . S
C758 H786 0.931 . S
C759 C758 1.384 1_565 S
C759 C762 1.382 . S
C760 C758 1.384 . S
C760 C761 1.381 1_545 S
C760 H787 0.930 . S
C761 C760 1.381 1_565 S
C761 C763 1.381 . S
C761 C764 1.487 . S
C762 C759 1.382 . S
C762 C763 1.387 . S
C762 H788 0.930 . S
C763 C761 1.381 . S
C763 C762 1.387 . S
C763 H789 0.931 . S
C764 C761 1.487 . S
C764 C771 1.399 1_565 S
C764 N802 1.343 . S
C765 C766 1.384 1_565 S
C765 C767 1.384 . S
C765 H790 0.931 . S
C766 C765 1.384 1_545 S
C766 C769 1.382 . S
C767 C765 1.384 . S
C767 C768 1.381 1_565 S
C767 H791 0.930 . S
C768 C767 1.381 1_545 S
C768 C770 1.381 . S
C768 C771 1.487 . S
C769 C766 1.382 . S
C769 C770 1.387 . S
C769 H792 0.930 . S
C770 C768 1.381 . S
C770 C769 1.387 . S
C770 H793 0.931 . S
C771 C764 1.399 1_545 S
C771 C768 1.487 . S
C771 N803 1.343 . S
C772 C773 1.384 1_565 S
C772 C774 1.384 . S
C772 H794 0.931 . S
C773 C772 1.384 1_545 S
C773 C776 1.382 . S
C774 C772 1.384 . S
C774 C775 1.381 1_565 S
C774 H795 0.930 . S
C775 C774 1.381 1_545 S
C775 C777 1.381 . S
C775 C778 1.487 . S
C776 C773 1.382 . S
C776 C777 1.387 . S
C776 H796 0.930 . S
C777 C775 1.381 . S
C777 C776 1.387 . S
C777 H797 0.931 . S
C778 C775 1.487 . S
C778 C785 1.399 1_545 S
C778 N803 1.343 . S
C779 C780 1.384 1_545 S
C779 C781 1.384 . S
C779 H798 0.931 . S
C780 C779 1.384 1_565 S
C780 C783 1.382 . S
C781 C779 1.384 . S
C781 C782 1.381 1_545 S
C781 H799 0.930 . S
C782 C781 1.381 1_565 S
C782 C784 1.381 . S
C782 C785 1.487 . S
C783 C780 1.382 . S
C783 C784 1.387 . S
C783 H800 0.930 . S
C784 C782 1.381 . S
C784 C783 1.387 . S
C784 H801 0.931 . S
C785 C778 1.399 1_565 S
C785 C782 1.487 . S
C785 N802 1.343 . S
H786 C758 0.931 . S
H787 C760 0.930 . S
H788 C762 0.930 . S
H789 C763 0.931 . S
H790 C765 0.931 . S
H791 C767 0.930 . S
H792 C769 0.930 . S
H793 C770 0.931 . S
H794 C772 0.931 . S
H795 C774 0.930 . S
H796 C776 0.930 . S
H797 C777 0.931 . S
H798 C779 0.931 . S
H799 C781 0.930 . S
H800 C783 0.930 . S
H801 C784 0.931 . S
N802 C764 1.343 . S
N802 C785 1.343 . S
N803 C771 1.343 . S
N803 C778 1.343 . S
C804 C805 1.384 . S
C804 C806 1.384 . S
C804 H832 0.931 . S
C805 C804 1.384 . S
C805 C808 1.382 1_545 S
C806 C804 1.384 . S
C806 C807 1.381 . S
C806 H833 0.930 . S
C807 C806 1.381 . S
C807 C809 1.383 1_545 S
C807 C810 1.494 1_545 S
C808 C805 1.382 1_565 S
C808 C809 1.387 . S
C808 H834 0.930 . S
C809 C807 1.383 1_565 S
C809 C808 1.387 . S
C809 H835 0.931 . S
C810 C807 1.494 1_565 S
C810 C817 1.400 1_565 S
C810 N848 1.334 . S
C811 C812 1.384 . S
C811 C813 1.384 . S
C811 H836 0.931 . S
C812 C811 1.384 . S
C812 C815 1.382 1_565 S
C813 C811 1.384 . S
C813 C814 1.403 . S
C813 H837 0.930 . S
C814 C813 1.403 . S
C814 C816 1.371 1_565 S
C814 C817 1.471 1_565 S
C815 C812 1.382 1_545 S
C815 C816 1.387 . S
C815 H838 0.930 . S
C816 C814 1.371 1_545 S
C816 C815 1.387 . S
C816 H839 0.931 . S
C817 C810 1.400 1_545 S
C817 C814 1.471 1_545 S
C817 N849 1.349 . S
C818 C819 1.384 . S
C818 C820 1.384 . S
C818 H840 0.931 . S
C819 C818 1.384 . S
C819 C822 1.382 1_565 S
C820 C818 1.384 . S
C820 C821 1.381 1_565 S
C820 H841 0.930 . S
C821 C820 1.381 1_545 S
C821 C823 1.383 . S
C821 C824 1.498 . S
C822 C819 1.382 1_545 S
C822 C823 1.387 . S
C822 H842 0.930 . S
C823 C821 1.383 . S
C823 C822 1.387 . S
C823 H843 0.931 . S
C824 C821 1.498 . S
C824 C831 1.400 1_545 S
C824 N849 1.330 . S
C825 C826 1.384 . S
C825 C827 1.384 . S
C825 H844 0.931 . S
C826 C825 1.384 . S
C826 C829 1.382 1_545 S
C827 C825 1.384 . S
C827 C828 1.411 . S
C827 H845 0.930 . S
C828 C827 1.411 . S
C828 C830 1.367 1_545 S
C828 C831 1.471 1_545 S
C829 C826 1.382 1_565 S
C829 C830 1.387 . S
C829 H846 0.930 . S
C830 C828 1.367 1_565 S
C830 C829 1.387 . S
C830 H847 0.931 . S
C831 C824 1.400 1_565 S
C831 C828 1.471 1_565 S
C831 N848 1.345 . S
H832 C804 0.931 . S
H833 C806 0.930 . S
H834 C808 0.930 . S
H835 C809 0.931 . S
H836 C811 0.931 . S
H837 C813 0.930 . S
H838 C815 0.930 . S
H839 C816 0.931 . S
H840 C818 0.931 . S
H841 C820 0.930 . S
H842 C822 0.930 . S
H843 C823 0.931 . S
H844 C825 0.931 . S
H845 C827 0.930 . S
H846 C829 0.930 . S
H847 C830 0.931 . S
N848 C810 1.334 . S
N848 C831 1.345 . S
N849 C817 1.349 . S
N849 C824 1.330 . S
C850 C851 1.384 . S
C850 C852 1.384 . S
C850 H878 0.931 . S
C851 C850 1.384 . S
C851 C854 1.382 1_655 S
C852 C850 1.384 . S
C852 C853 1.421 . S
C852 H879 0.930 . S
C853 C852 1.421 . S
C853 C855 1.362 1_655 S
C853 C856 1.469 1_655 S
C854 C851 1.382 1_455 S
C854 C855 1.387 . S
C854 H880 0.930 . S
C855 C853 1.362 1_455 S
C855 C854 1.387 . S
C855 H881 0.931 . S
C856 C853 1.469 1_455 S
C856 C863 1.399 1_455 S
C856 N894 1.342 . S
C857 C858 1.384 . S
C857 C859 1.384 . S
C857 H882 0.931 . S
C858 C857 1.384 . S
C858 C861 1.382 1_455 S
C859 C857 1.384 . S
C859 C860 1.381 . S
C859 H883 0.930 . S
C860 C859 1.381 . S
C860 C862 1.383 1_455 S
C860 C863 1.496 1_455 S
C861 C858 1.382 1_655 S
C861 C862 1.387 . S
C861 H884 0.930 . S
C862 C860 1.383 1_655 S
C862 C861 1.387 . S
C862 H885 0.931 . S
C863 C856 1.399 1_655 S
C863 C860 1.496 1_655 S
C863 N895 1.332 . S
C864 C865 1.384 . S
C864 C866 1.384 . S
C864 H886 0.931 . S
C865 C864 1.384 . S
C865 C868 1.382 1_455 S
C866 C864 1.384 . S
C866 C867 1.412 . S
C866 H887 0.930 . S
C867 C866 1.412 . S
C867 C869 1.366 1_455 S
C867 C870 1.469 1_455 S
C868 C865 1.382 1_655 S
C868 C869 1.387 . S
C868 H888 0.930 . S
C869 C867 1.366 1_655 S
C869 C868 1.387 . S
C869 H889 0.931 . S
C870 C867 1.469 1_655 S
C870 C877 1.399 1_655 S
C870 N895 1.347 . S
C871 C872 1.384 . S
C871 C873 1.384 . S
C871 H890 0.931 . S
C872 C871 1.384 . S
C872 C875 1.382 1_655 S
C873 C871 1.384 . S
C873 C874 1.382 . S
C873 H891 0.930 . S
C874 C873 1.382 . S
C874 C876 1.378 1_655 S
C874 C877 1.496 1_655 S
C875 C872 1.382 1_455 S
C875 C876 1.387 . S
C875 H892 0.930 . S
C876 C874 1.378 1_455 S
C876 C875 1.387 . S
C876 H893 0.931 . S
C877 C870 1.399 1_455 S
C877 C874 1.496 1_455 S
C877 N894 1.336 . S
H878 C850 0.931 . S
H879 C852 0.930 . S
H880 C854 0.930 . S
H881 C855 0.931 . S
H882 C857 0.931 . S
H883 C859 0.930 . S
H884 C861 0.930 . S
H885 C862 0.931 . S
H886 C864 0.931 . S
H887 C866 0.930 . S
H888 C868 0.930 . S
H889 C869 0.931 . S
H890 C871 0.931 . S
H891 C873 0.930 . S
H892 C875 0.930 . S
H893 C876 0.931 . S
N894 C856 1.342 . S
N894 C877 1.336 . S
N895 C863 1.332 . S
N895 C870 1.347 . S
C896 C897 1.384 . S
C896 C898 1.384 . S
C896 H924 0.931 . S
C897 C896 1.384 . S
C897 C900 1.382 . S
C898 C896 1.384 . S
C898 C899 1.381 . S
C898 H925 0.930 . S
C899 C898 1.381 . S
C899 C901 1.381 . S
C899 C902 1.487 . S
C900 C897 1.382 . S
C900 C901 1.387 . S
C900 H926 0.930 . S
C901 C899 1.381 . S
C901 C900 1.387 . S
C901 H927 0.931 . S
C902 C899 1.487 . S
C902 C909 1.399 . S
C902 N940 1.343 . S
C903 C904 1.384 . S
C903 C905 1.384 . S
C903 H928 0.931 . S
C904 C903 1.384 . S
C904 C907 1.382 . S
C905 C903 1.384 . S
C905 C906 1.381 . S
C905 H929 0.930 . S
C906 C905 1.381 . S
C906 C908 1.381 . S
C906 C909 1.487 . S
C907 C904 1.382 . S
C907 C908 1.387 . S
C907 H930 0.930 . S
C908 C906 1.381 . S
C908 C907 1.387 . S
C908 H931 0.931 . S
C909 C902 1.399 . S
C909 C906 1.487 . S
C909 N941 1.343 . S
C910 C911 1.384 . S
C910 C912 1.384 . S
C910 H932 0.931 . S
C911 C910 1.384 . S
C911 C914 1.382 . S
C912 C910 1.384 . S
C912 C913 1.381 . S
C912 H933 0.930 . S
C913 C912 1.381 . S
C913 C915 1.381 . S
C913 C916 1.487 . S
C914 C911 1.382 . S
C914 C915 1.387 . S
C914 H934 0.930 . S
C915 C913 1.381 . S
C915 C914 1.387 . S
C915 H935 0.931 . S
C916 C913 1.487 . S
C916 C923 1.399 . S
C916 N941 1.343 . S
C917 C918 1.384 . S
C917 C919 1.384 . S
C917 H936 0.931 . S
C918 C917 1.384 . S
C918 C921 1.382 . S
C919 C917 1.384 . S
C919 C920 1.381 . S
C919 H937 0.930 . S
C920 C919 1.381 . S
C920 C922 1.381 . S
C920 C923 1.487 . S
C921 C918 1.382 . S
C921 C922 1.387 . S
C921 H938 0.930 . S
C922 C920 1.381 . S
C922 C921 1.387 . S
C922 H939 0.931 . S
C923 C916 1.399 . S
C923 C920 1.487 . S
C923 N940 1.343 . S
H924 C896 0.931 . S
H925 C898 0.930 . S
H926 C900 0.930 . S
H927 C901 0.931 . S
H928 C903 0.931 . S
H929 C905 0.930 . S
H930 C907 0.930 . S
H931 C908 0.931 . S
H932 C910 0.931 . S
H933 C912 0.930 . S
H934 C914 0.930 . S
H935 C915 0.931 . S
H936 C917 0.931 . S
H937 C919 0.930 . S
H938 C921 0.930 . S
H939 C922 0.931 . S
N940 C902 1.343 . S
N940 C923 1.343 . S
N941 C909 1.343 . S
N941 C916 1.343 . S
C942 C943 1.384 . S
C942 C944 1.384 . S
C942 H970 0.931 . S
C943 C942 1.384 . S
C943 C946 1.382 . S
C944 C942 1.384 . S
C944 C945 1.381 . S
C944 H971 0.930 . S
C945 C944 1.381 . S
C945 C947 1.381 . S
C945 C948 1.487 . S
C946 C943 1.382 . S
C946 C947 1.387 . S
C946 H972 0.930 . S
C947 C945 1.381 . S
C947 C946 1.387 . S
C947 H973 0.931 . S
C948 C945 1.487 . S
C948 C955 1.399 . S
C948 N986 1.343 . S
C949 C950 1.384 . S
C949 C951 1.384 . S
C949 H974 0.931 . S
C950 C949 1.384 . S
C950 C953 1.382 . S
C951 C949 1.384 . S
C951 C952 1.381 . S
C951 H975 0.930 . S
C952 C951 1.381 . S
C952 C954 1.381 . S
C952 C955 1.487 . S
C953 C950 1.382 . S
C953 C954 1.387 . S
C953 H976 0.930 . S
C954 C952 1.381 . S
C954 C953 1.387 . S
C954 H977 0.931 . S
C955 C948 1.399 . S
C955 C952 1.487 . S
C955 N987 1.343 . S
C956 C957 1.384 . S
C956 C958 1.384 . S
C956 H978 0.931 . S
C957 C956 1.384 . S
C957 C960 1.382 . S
C958 C956 1.384 . S
C958 C959 1.381 . S
C958 H979 0.930 . S
C959 C958 1.381 . S
C959 C961 1.381 . S
C959 C962 1.487 . S
C960 C957 1.382 . S
C960 C961 1.387 . S
C960 H980 0.930 . S
C961 C959 1.381 . S
C961 C960 1.387 . S
C961 H981 0.931 . S
C962 C959 1.487 . S
C962 C969 1.399 . S
C962 N987 1.343 . S
C963 C964 1.384 . S
C963 C965 1.384 . S
C963 H982 0.931 . S
C964 C963 1.384 . S
C964 C967 1.382 . S
C965 C963 1.384 . S
C965 C966 1.381 . S
C965 H983 0.930 . S
C966 C965 1.381 . S
C966 C968 1.381 . S
C966 C969 1.487 . S
C967 C964 1.382 . S
C967 C968 1.387 . S
C967 H984 0.930 . S
C968 C966 1.381 . S
C968 C967 1.387 . S
C968 H985 0.931 . S
C969 C962 1.399 . S
C969 C966 1.487 . S
C969 N986 1.343 . S
H970 C942 0.931 . S
H971 C944 0.930 . S
H972 C946 0.930 . S
H973 C947 0.931 . S
H974 C949 0.931 . S
H975 C951 0.930 . S
H976 C953 0.930 . S
H977 C954 0.931 . S
H978 C956 0.931 . S
H979 C958 0.930 . S
H980 C960 0.930 . S
H981 C961 0.931 . S
H982 C963 0.931 . S
H983 C965 0.930 . S
H984 C967 0.930 . S
H985 C968 0.931 . S
N986 C948 1.343 . S
N986 C969 1.343 . S
N987 C955 1.343 . S
N987 C962 1.343 . S
C988 C989 1.384 . S
C988 C990 1.384 . S
C988 H1016 0.931 . S
C989 C988 1.384 . S
C989 C992 1.382 . S
C990 C988 1.384 . S
C990 C991 1.381 . S
C990 H1017 0.930 . S
C991 C990 1.381 . S
C991 C993 1.381 . S
C991 C994 1.487 . S
C992 C989 1.382 . S
C992 C993 1.387 . S
C992 H1018 0.930 . S
C993 C991 1.381 . S
C993 C992 1.387 . S
C993 H1019 0.931 . S
C994 C991 1.487 . S
C994 C1001 1.399 . S
C994 N1032 1.343 . S
C995 C996 1.384 . S
C995 C997 1.384 . S
C995 H1020 0.931 . S
C996 C995 1.384 . S
C996 C999 1.382 . S
C997 C995 1.384 . S
C997 C998 1.381 . S
C997 H1021 0.930 . S
C998 C997 1.381 . S
C998 C1000 1.381 . S
C998 C1001 1.487 . S
C999 C996 1.382 . S
C999 C1000 1.387 . S
C999 H1022 0.930 . S
C1000 C998 1.381 . S
C1000 C999 1.387 . S
C1000 H1023 0.931 . S
C1001 C994 1.399 . S
C1001 C998 1.487 . S
C1001 N1033 1.343 . S
C1002 C1003 1.384 . S
C1002 C1004 1.384 . S
C1002 H1024 0.931 . S
C1003 C1002 1.384 . S
C1003 C1006 1.382 . S
C1004 C1002 1.384 . S
C1004 C1005 1.381 . S
C1004 H1025 0.930 . S
C1005 C1004 1.381 . S
C1005 C1007 1.381 . S
C1005 C1008 1.487 . S
C1006 C1003 1.382 . S
C1006 C1007 1.387 . S
C1006 H1026 0.930 . S
C1007 C1005 1.381 . S
C1007 C1006 1.387 . S
C1007 H1027 0.931 . S
C1008 C1005 1.487 . S
C1008 C1015 1.399 . S
C1008 N1033 1.343 . S
C1009 C1010 1.384 . S
C1009 C1011 1.384 . S
C1009 H1028 0.931 . S
C1010 C1009 1.384 . S
C1010 C1013 1.382 . S
C1011 C1009 1.384 . S
C1011 C1012 1.381 . S
C1011 H1029 0.930 . S
C1012 C1011 1.381 . S
C1012 C1014 1.381 . S
C1012 C1015 1.487 . S
C1013 C1010 1.382 . S
C1013 C1014 1.387 . S
C1013 H1030 0.930 . S
C1014 C1012 1.381 . S
C1014 C1013 1.387 . S
C1014 H1031 0.931 . S
C1015 C1008 1.399 . S
C1015 C1012 1.487 . S
C1015 N1032 1.343 . S
H1016 C988 0.931 . S
H1017 C990 0.930 . S
H1018 C992 0.930 . S
H1019 C993 0.931 . S
H1020 C995 0.931 . S
H1021 C997 0.930 . S
H1022 C999 0.930 . S
H1023 C1000 0.931 . S
H1024 C1002 0.931 . S
H1025 C1004 0.930 . S
H1026 C1006 0.930 . S
H1027 C1007 0.931 . S
H1028 C1009 0.931 . S
H1029 C1011 0.930 . S
H1030 C1013 0.930 . S
H1031 C1014 0.931 . S
N1032 C994 1.343 . S
N1032 C1015 1.343 . S
N1033 C1001 1.343 . S
N1033 C1008 1.343 . S
C1034 C1035 1.384 . S
C1034 C1036 1.384 . S
C1034 H1062 0.931 . S
C1035 C1034 1.384 . S
C1035 C1038 1.382 . S
C1036 C1034 1.384 . S
C1036 C1037 1.381 . S
C1036 H1063 0.930 . S
C1037 C1036 1.381 . S
C1037 C1039 1.381 . S
C1037 C1040 1.487 . S
C1038 C1035 1.382 . S
C1038 C1039 1.387 . S
C1038 H1064 0.930 . S
C1039 C1037 1.381 . S
C1039 C1038 1.387 . S
C1039 H1065 0.931 . S
C1040 C1037 1.487 . S
C1040 C1047 1.399 . S
C1040 N1078 1.343 . S
C1041 C1042 1.384 . S
C1041 C1043 1.384 . S
C1041 H1066 0.931 . S
C1042 C1041 1.384 . S
C1042 C1045 1.382 . S
C1043 C1041 1.384 . S
C1043 C1044 1.381 . S
C1043 H1067 0.930 . S
C1044 C1043 1.381 . S
C1044 C1046 1.381 . S
C1044 C1047 1.487 . S
C1045 C1042 1.382 . S
C1045 C1046 1.387 . S
C1045 H1068 0.930 . S
C1046 C1044 1.381 . S
C1046 C1045 1.387 . S
C1046 H1069 0.931 . S
C1047 C1040 1.399 . S
C1047 C1044 1.487 . S
C1047 N1079 1.343 . S
C1048 C1049 1.384 . S
C1048 C1050 1.384 . S
C1048 H1070 0.931 . S
C1049 C1048 1.384 . S
C1049 C1052 1.382 . S
C1050 C1048 1.384 . S
C1050 C1051 1.381 . S
C1050 H1071 0.930 . S
C1051 C1050 1.381 . S
C1051 C1053 1.381 . S
C1051 C1054 1.487 . S
C1052 C1049 1.382 . S
C1052 C1053 1.387 . S
C1052 H1072 0.930 . S
C1053 C1051 1.381 . S
C1053 C1052 1.387 . S
C1053 H1073 0.931 . S
C1054 C1051 1.487 . S
C1054 C1061 1.399 . S
C1054 N1079 1.343 . S
C1055 C1056 1.384 . S
C1055 C1057 1.384 . S
C1055 H1074 0.931 . S
C1056 C1055 1.384 . S
C1056 C1059 1.382 . S
C1057 C1055 1.384 . S
C1057 C1058 1.381 . S
C1057 H1075 0.930 . S
C1058 C1057 1.381 . S
C1058 C1060 1.381 . S
C1058 C1061 1.487 . S
C1059 C1056 1.382 . S
C1059 C1060 1.387 . S
C1059 H1076 0.930 . S
C1060 C1058 1.381 . S
C1060 C1059 1.387 . S
C1060 H1077 0.931 . S
C1061 C1054 1.399 . S
C1061 C1058 1.487 . S
C1061 N1078 1.343 . S
H1062 C1034 0.931 . S
H1063 C1036 0.930 . S
H1064 C1038 0.930 . S
H1065 C1039 0.931 . S
H1066 C1041 0.931 . S
H1067 C1043 0.930 . S
H1068 C1045 0.930 . S
H1069 C1046 0.931 . S
H1070 C1048 0.931 . S
H1071 C1050 0.930 . S
H1072 C1052 0.930 . S
H1073 C1053 0.931 . S
H1074 C1055 0.931 . S
H1075 C1057 0.930 . S
H1076 C1059 0.930 . S
H1077 C1060 0.931 . S
N1078 C1040 1.343 . S
N1078 C1061 1.343 . S
N1079 C1047 1.343 . S
N1079 C1054 1.343 . S
C7 C688 1.529 . S
C23 C734 1.919 . S
C766 C37 1.439 . S
C35 C819 1.506 . S
C9 C865 1.473 . S
C21 C904 1.859 . S
C49 C858 1.528 . S
C911 C65 1.970 . S
C812 C79 1.456 . S
C77 C773 1.505 . S
C667 C51 1.475 . S
C63 C713 1.819 . S
C91 C943 1.954 . S
C107 C1010 2.095 . S
C1056 C121 2.114 . S
C119 C267 1.902 . S
C93 C313 2.078 . S
C105 C359 1.956 . S
C133 C306 1.807 . S
C149 C352 2.048 . S
C260 C163 2.061 . S
C1035 C161 2.004 . S
C964 C135 2.177 . S
C989 C147 1.993 . S
C175 C391 1.842 . S
C191 C444 2.087 . S
C205 C490 2.109 . S
C203 C536 2.052 . S
C589 C177 2.134 . S
C635 C189 2.002 . S
C582 C217 1.925 . S
C628 C233 2.105 . S
C247 C543 2.173 . S
C497 C245 1.942 . S
C219 C412 2.119 . S
C451 C231 1.991 . S
C274 C8 1.988 . S
C17 C320 1.863 . S
C366 C31 1.976 . S
C398 C36 1.955 . S
C437 C3 1.908 . S
C483 C22 1.867 . S
C50 C504 1.937 . S
C59 C405 1.798 . S
C73 C458 1.918 . S
C78 C299 2.011 . S
C345 C45 1.975 . S
C64 C253 1.923 . S
C529 C92 1.869 . S
C101 C596 1.944 . S
C115 C642 1.951 . S
C681 C120 1.446 . S
C87 C727 1.860 . S
C106 C759 1.406 . S
C134 C780 1.438 . S
C143 C674 1.442 . S
C720 C157 1.858 . S
C162 C575 1.932 . S
C129 C621 1.957 . S
C550 C148 1.928 . S
C826 C176 1.425 . S
C185 C872 1.442 . S
C199 C897 1.818 . S
C950 C204 1.867 . S
C1003 C171 1.950 . S
C190 C1049 1.972 . S
C218 C1042 1.915 . S
C227 C957 1.895 . S
C996 C241 1.934 . S
C851 C246 1.441 . S
C918 C213 1.821 . S
C232 C805 1.399 . S
