# Generated by pormake.
# Topology nom, (4,4)-cn, num edge types: 1
# Building blocks:
#     Node 0, Type 0, BuildingBlock: GIZVER_clean_linker_0, # of connection points: 4
#     Node 1, Type 0, BuildingBlock: GIZVER_clean_linker_0, # of connection points: 4
#     Node 2, Type 0, BuildingBlock: GIZVER_clean_linker_0, # of connection points: 4
#     Node 3, Type 0, BuildingBlock: GIZVER_clean_linker_0, # of connection points: 4
#     Node 4, Type 0, BuildingBlock: GIZVER_clean_linker_0, # of connection points: 4
#     Node 5, Type 0, BuildingBlock: GIZVER_clean_linker_0, # of connection points: 4
#     Node 6, Type 1, BuildingBlock: UXUYUI_clean_sbu_0, # of connection points: 4
#     Node 7, Type 1, BuildingBlock: UXUYUI_clean_sbu_0, # of connection points: 4
#     Node 8, Type 1, BuildingBlock: UXUYUI_clean_sbu_0, # of connection points: 4
#     Node 9, Type 1, BuildingBlock: UXUYUI_clean_sbu_0, # of connection points: 4
#     Node 10, Type 1, BuildingBlock: UXUYUI_clean_sbu_0, # of connection points: 4
#     Node 11, Type 1, BuildingBlock: UXUYUI_clean_sbu_0, # of connection points: 4
#     Edge 12, Type (0, 1), BuildingBlock: TEMPAE_clean_linker_10, # of connection points: 2
#     Edge 13, Type (0, 1), BuildingBlock: TEMPAE_clean_linker_10, # of connection points: 2
#     Edge 14, Type (0, 1), BuildingBlock: TEMPAE_clean_linker_10, # of connection points: 2
#     Edge 15, Type (0, 1), BuildingBlock: TEMPAE_clean_linker_10, # of connection points: 2
#     Edge 16, Type (0, 1), BuildingBlock: TEMPAE_clean_linker_10, # of connection points: 2
#     Edge 17, Type (0, 1), BuildingBlock: TEMPAE_clean_linker_10, # of connection points: 2
#     Edge 18, Type (0, 1), BuildingBlock: TEMPAE_clean_linker_10, # of connection points: 2
#     Edge 19, Type (0, 1), BuildingBlock: TEMPAE_clean_linker_10, # of connection points: 2
#     Edge 20, Type (0, 1), BuildingBlock: TEMPAE_clean_linker_10, # of connection points: 2
#     Edge 21, Type (0, 1), BuildingBlock: TEMPAE_clean_linker_10, # of connection points: 2
#     Edge 22, Type (0, 1), BuildingBlock: TEMPAE_clean_linker_10, # of connection points: 2
#     Edge 23, Type (0, 1), BuildingBlock: TEMPAE_clean_linker_10, # of connection points: 2
#     Edge 24, Type (0, 1), BuildingBlock: TEMPAE_clean_linker_10, # of connection points: 2
#     Edge 25, Type (0, 1), BuildingBlock: TEMPAE_clean_linker_10, # of connection points: 2
#     Edge 26, Type (0, 1), BuildingBlock: TEMPAE_clean_linker_10, # of connection points: 2
#     Edge 27, Type (0, 1), BuildingBlock: TEMPAE_clean_linker_10, # of connection points: 2
#     Edge 28, Type (0, 1), BuildingBlock: TEMPAE_clean_linker_10, # of connection points: 2
#     Edge 29, Type (0, 1), BuildingBlock: TEMPAE_clean_linker_10, # of connection points: 2
#     Edge 30, Type (0, 1), BuildingBlock: TEMPAE_clean_linker_10, # of connection points: 2
#     Edge 31, Type (0, 1), BuildingBlock: TEMPAE_clean_linker_10, # of connection points: 2
#     Edge 32, Type (0, 1), BuildingBlock: TEMPAE_clean_linker_10, # of connection points: 2
#     Edge 33, Type (0, 1), BuildingBlock: TEMPAE_clean_linker_10, # of connection points: 2
#     Edge 34, Type (0, 1), BuildingBlock: TEMPAE_clean_linker_10, # of connection points: 2
#     Edge 35, Type (0, 1), BuildingBlock: TEMPAE_clean_linker_10, # of connection points: 2
# Relax obj value: 0.036
# Max RMSD: 0.149
# Mean RMSD: 0.105
data_MOF--net-nom--node1-UXUYUI_clean_sbu_0--node2-GIZVER_clean_linker_0--edge1-TEMPAE_clean_linker_10
_symmetry_space_group_name_H-M    P1
_symmetry_Int_Tables_number       1
_symmetry_cell_setting            triclinic
loop_
_symmetry_equiv_pos_as_xyz
'x, y, z'
_cell_length_a     57.657155
_cell_length_b     57.718959
_cell_length_c     57.194368
_cell_angle_alpha  89.99149
_cell_angle_beta   90.024522
_cell_angle_gamma 120.00025
loop_
_atom_site_label
_atom_site_type_symbol
_atom_site_fract_x
_atom_site_fract_y
_atom_site_fract_z
_atom_type_partial_charge
H0 H 0.97477 0.5529 0.35324 0.0
H1 H 0.00805 0.54703 0.28756 0.0
H2 H 0.92898 0.4862 0.3075 0.0
H3 H 0.01661 0.58916 0.34112 0.0
H4 H 0.02275 0.59158 0.31038 0.0
H5 H 0.03 0.55656 0.36366 0.0
H6 H 0.1107 0.57819 0.34593 0.0
H7 H 0.0657 0.59987 0.30001 0.0
C8 C 0.97337 0.54168 0.3376 0.0
C9 C 0.94919 0.51824 0.33232 0.0
C10 C 0.99504 0.55184 0.32177 0.0
C11 C 0.99221 0.5384 0.3005 0.0
C12 C 0.96842 0.5146 0.29543 0.0
C13 C 0.94757 0.50424 0.31178 0.0
C14 C 0.01961 0.57883 0.32599 0.0
C15 C 0.04434 0.57673 0.33048 0.0
C16 C 0.04649 0.56496 0.35133 0.0
C17 C 0.07034 0.5652 0.3568 0.0
C18 C 0.092 0.57726 0.34131 0.0
C19 C 0.09084 0.59038 0.32112 0.0
C20 C 0.06665 0.58941 0.31539 0.0
H21 H 0.44263 0.97193 0.5217 0.0
H22 H 0.48275 0.00599 0.45652 0.0
H23 H 0.46252 0.92603 0.47525 0.0
H24 H 0.45015 0.01471 0.51093 0.0
H25 H 0.45154 0.01992 0.48015 0.0
H26 H 0.49431 0.03317 0.53362 0.0
H27 H 0.55525 0.10952 0.50794 0.0
H28 H 0.48942 0.05778 0.46351 0.0
C29 C 0.45247 0.97063 0.50603 0.0
C30 C 0.45124 0.94633 0.50036 0.0
C31 C 0.46447 0.99257 0.49052 0.0
C32 C 0.47511 0.98988 0.4692 0.0
C33 C 0.47462 0.96593 0.46373 0.0
C34 C 0.46355 0.94478 0.47977 0.0
C35 C 0.46237 0.01724 0.49507 0.0
C36 C 0.48948 0.0421 0.49787 0.0
C37 C 0.50301 0.04739 0.5194 0.0
C38 C 0.52698 0.0716 0.523 0.0
C39 C 0.5376 0.09021 0.50472 0.0
C40 C 0.52418 0.08558 0.48328 0.0
C41 C 0.50021 0.0613 0.47985 0.0
H42 H 0.44422 0.48438 0.63086 0.0
H43 H 0.47571 0.49188 0.70049 0.0
H44 H 0.45596 0.54979 0.67457 0.0
H45 H 0.44544 0.44717 0.64817 0.0
H46 H 0.45031 0.44731 0.67901 0.0
H47 H 0.49028 0.4786 0.62377 0.0
H48 H 0.55049 0.45895 0.64257 0.0
H49 H 0.48595 0.44084 0.68998 0.0
C50 C 0.45143 0.49554 0.64703 0.0
C51 C 0.45009 0.51897 0.65023 0.0
C52 C 0.46098 0.48583 0.66504 0.0
C53 C 0.46922 0.49981 0.68635 0.0
C54 C 0.46778 0.52316 0.68984 0.0
C55 C 0.45861 0.53271 0.67154 0.0
C56 C 0.45916 0.4589 0.66269 0.0
C57 C 0.48612 0.46134 0.65817 0.0
C58 C 0.49909 0.47147 0.63661 0.0
C59 C 0.52258 0.47103 0.63111 0.0
C60 C 0.533 0.46037 0.64724 0.0
C61 C 0.51968 0.44894 0.66823 0.0
C62 C 0.49665 0.45017 0.67399 0.0
H63 H 0.97956 0.44407 0.79361 0.0
H64 H 1.00331 0.46868 0.86489 0.0
H65 H 0.92863 0.45795 0.83937 0.0
H66 H 0.01717 0.44269 0.80898 0.0
H67 H 0.0191 0.4411 0.83997 0.0
H68 H 0.04265 0.48681 0.78835 0.0
H69 H 0.11493 0.54425 0.82303 0.0
H70 H 0.05445 0.47748 0.86145 0.0
C71 C 0.97608 0.45069 0.8103 0.0
C72 C 0.95211 0.45099 0.81401 0.0
C73 C 0.99492 0.45752 0.82848 0.0
C74 C 0.98958 0.4647 0.85049 0.0
C75 C 0.96592 0.46544 0.85426 0.0
C76 C 0.94764 0.45904 0.83588 0.0
C77 C 0.01883 0.45375 0.82541 0.0
C78 C 0.04484 0.48009 0.82525 0.0
C79 C 0.05436 0.49449 0.80421 0.0
C80 C 0.07991 0.51736 0.80323 0.0
C81 C 0.09504 0.52676 0.82378 0.0
C82 C 0.08616 0.51247 0.84474 0.0
C83 C 0.06099 0.48911 0.84547 0.0
H84 H 0.58832 0.05746 0.02419 0.0
H85 H 0.55915 0.03376 0.9539 0.0
H86 H 0.5751 0.11004 0.98016 0.0
H87 H 0.58779 0.01922 0.00746 0.0
H88 H 0.5846 0.01505 0.97649 0.0
H89 H 0.54321 0.00309 0.0311 0.0
H90 H 0.48233 0.92553 0.00782 0.0
H91 H 0.54753 0.97548 0.96211 0.0
C92 C 0.58117 0.06122 0.0079 0.0
C93 C 0.58181 0.08567 0.00463 0.0
C94 C 0.57253 0.04217 0.98977 0.0
C95 C 0.56465 0.04783 0.96824 0.0
C96 C 0.56515 0.07217 0.96483 0.0
C97 C 0.5732 0.09062 0.98324 0.0
C98 C 0.57477 0.01733 0.99237 0.0
C99 C 0.54772 0.99262 0.9958 0.0
C100 C 0.53441 0.98824 0.01735 0.0
C101 C 0.51051 0.96421 0.02157 0.0
C102 C 0.49985 0.94472 0.00399 0.0
C103 C 0.51308 0.9484 0.98257 0.0
C104 C 0.5369 0.97262 0.97844 0.0
H105 H 0.59437 0.54756 0.13311 0.0
H106 H 0.56097 0.54805 0.20038 0.0
H107 H 0.57773 0.48558 0.18315 0.0
H108 H 0.59022 0.58507 0.14364 0.0
H109 H 0.58873 0.59025 0.17421 0.0
H110 H 0.54406 0.55354 0.12282 0.0
H111 H 0.48507 0.57436 0.14307 0.0
H112 H 0.55351 0.59666 0.1869 0.0
C113 C 0.58589 0.53788 0.14966 0.0
C114 C 0.58719 0.51506 0.15619 0.0
C115 C 0.57577 0.54955 0.16533 0.0
C116 C 0.56701 0.53819 0.18764 0.0
C117 C 0.56745 0.51493 0.19391 0.0
C118 C 0.57665 0.50308 0.17786 0.0
C119 C 0.57797 0.57614 0.15963 0.0
C120 C 0.55088 0.57375 0.15606 0.0
C121 C 0.53627 0.56186 0.13552 0.0
C122 C 0.51241 0.56194 0.13079 0.0
C123 C 0.50312 0.57368 0.14696 0.0
C124 C 0.51802 0.58684 0.16692 0.0
C125 C 0.54157 0.58616 0.17175 0.0
Li126 Li 0.63582 0.40267 0.43521 0.0
Li127 Li 0.63191 0.36398 0.41489 0.0
Li128 Li 0.67411 0.40868 0.41189 0.0
Li129 Li 0.63255 0.40015 0.39156 0.0
C130 C 0.66139 0.38813 0.46384 0.0
N131 N 0.66741 0.39373 0.51183 0.0
C132 C 0.64224 0.36868 0.47862 0.0
C133 C 0.68377 0.41026 0.47351 0.0
C134 C 0.64559 0.37191 0.50282 0.0
C135 C 0.68641 0.41278 0.4978 0.0
C136 C 0.58169 0.35282 0.41467 0.0
C137 C 0.54232 0.31988 0.3941 0.0
N138 N 0.53416 0.30443 0.41366 0.0
C139 C 0.57288 0.33651 0.43453 0.0
C140 C 0.56629 0.34434 0.39424 0.0
C141 C 0.54884 0.31216 0.43368 0.0
C142 C 0.63463 0.44256 0.4633 0.0
N143 N 0.62479 0.41575 0.4614 0.0
C144 C 0.59569 0.40768 0.49396 0.0
C145 C 0.60569 0.39834 0.47635 0.0
C146 C 0.60534 0.43527 0.49622 0.0
C147 C 0.62529 0.45281 0.48071 0.0
H148 H 0.64925 0.45607 0.45096 0.0
H149 H 0.59773 0.37715 0.47439 0.0
C150 C 0.62937 0.31788 0.43424 0.0
N151 N 0.6191 0.32608 0.41682 0.0
C152 C 0.61962 0.29067 0.43811 0.0
C153 C 0.58984 0.28063 0.4052 0.0
C154 C 0.60024 0.3081 0.40194 0.0
C155 C 0.59918 0.27157 0.4238 0.0
H156 H 0.645 0.33248 0.44535 0.0
H157 H 0.59268 0.31494 0.3879 0.0
C158 C 0.67682 0.4569 0.40969 0.0
N159 N 0.71811 0.50917 0.40543 0.0
C160 C 0.67887 0.47174 0.3897 0.0
C161 C 0.69559 0.46883 0.42766 0.0
C162 C 0.69993 0.49809 0.38784 0.0
C163 C 0.71637 0.49521 0.42514 0.0
C164 C 0.65352 0.37692 0.36353 0.0
C165 C 0.67727 0.38856 0.35062 0.0
C166 C 0.62919 0.3602 0.35238 0.0
C167 C 0.67626 0.38331 0.32668 0.0
C168 C 0.62899 0.35547 0.32841 0.0
N169 N 0.65234 0.36703 0.31616 0.0
C170 C 0.72623 0.41774 0.4223 0.0
C171 C 0.72471 0.4449 0.39196 0.0
C172 C 0.75394 0.42919 0.41956 0.0
N173 N 0.71226 0.42583 0.40866 0.0
C174 C 0.75238 0.45713 0.38886 0.0
C175 C 0.76734 0.44922 0.40268 0.0
H176 H 0.71579 0.40207 0.43507 0.0
H177 H 0.7131 0.45027 0.3807 0.0
C178 C 0.59528 0.40982 0.36842 0.0
N179 N 0.61913 0.41073 0.36559 0.0
C180 C 0.58528 0.41929 0.35092 0.0
C181 C 0.62518 0.43169 0.3283 0.0
C182 C 0.6341 0.42138 0.34602 0.0
C183 C 0.60041 0.43081 0.33057 0.0
H184 H 0.58418 0.4021 0.38449 0.0
H185 H 0.65352 0.42294 0.34458 0.0
O186 O 0.65826 0.38549 0.44007 0.0
O187 O 0.6053 0.37674 0.41518 0.0
O188 O 0.65653 0.43091 0.41168 0.0
O189 O 0.65412 0.38212 0.38691 0.0
H190 H 0.6248 0.35139 0.47152 0.0
H191 H 0.69902 0.4253 0.46242 0.0
H192 H 0.63081 0.35711 0.51444 0.0
H193 H 0.7036 0.42986 0.50548 0.0
H194 H 0.53029 0.31311 0.37839 0.0
H195 H 0.58477 0.3422 0.45026 0.0
H196 H 0.57289 0.35622 0.3785 0.0
H197 H 0.54195 0.29932 0.4489 0.0
H198 H 0.57999 0.39333 0.50524 0.0
H199 H 0.63351 0.47423 0.48189 0.0
H200 H 0.62794 0.28465 0.45227 0.0
H201 H 0.57409 0.26665 0.39374 0.0
H202 H 0.66438 0.46308 0.37577 0.0
H203 H 0.69412 0.45782 0.44337 0.0
H204 H 0.7018 0.50974 0.3724 0.0
H205 H 0.73109 0.50459 0.43887 0.0
H206 H 0.69629 0.40148 0.35899 0.0
H207 H 0.61062 0.35137 0.36204 0.0
H208 H 0.69448 0.3922 0.31646 0.0
H209 H 0.61027 0.3427 0.31953 0.0
H210 H 0.76476 0.42242 0.43045 0.0
H211 H 0.76185 0.47202 0.37524 0.0
H212 H 0.56596 0.41776 0.35349 0.0
H213 H 0.63807 0.44104 0.31338 0.0
Li214 Li 0.24884 0.63452 0.59656 0.0
Li215 Li 0.2831 0.62897 0.5767 0.0
Li216 Li 0.28037 0.66985 0.57327 0.0
Li217 Li 0.24647 0.6302 0.55363 0.0
C218 C 0.28802 0.65758 0.62505 0.0
N219 N 0.28504 0.66102 0.67303 0.0
C220 C 0.29007 0.63919 0.63954 0.0
C221 C 0.28472 0.67788 0.63496 0.0
C222 C 0.28844 0.64123 0.66376 0.0
C223 C 0.2832 0.67925 0.65925 0.0
C224 C 0.23681 0.57984 0.56723 0.0
C225 C 0.2429 0.55432 0.53693 0.0
N226 N 0.22228 0.53149 0.54596 0.0
C227 C 0.21566 0.55616 0.5762 0.0
C228 C 0.25055 0.57896 0.54742 0.0
C229 C 0.20863 0.5319 0.5652 0.0
C230 C 0.21326 0.63601 0.63035 0.0
N231 N 0.22618 0.62299 0.62321 0.0
C232 C 0.20336 0.5889 0.65185 0.0
C233 C 0.22175 0.59996 0.6336 0.0
C234 C 0.18936 0.60165 0.65941 0.0
C235 C 0.19476 0.62571 0.64864 0.0
H236 H 0.21682 0.65402 0.62153 0.0
H237 H 0.23223 0.58998 0.62742 0.0
C238 C 0.32744 0.62076 0.56708 0.0
N239 N 0.30446 0.6123 0.57948 0.0
C240 C 0.34328 0.60898 0.57068 0.0
C241 C 0.31098 0.57938 0.59903 0.0
C242 C 0.29583 0.59172 0.59491 0.0
C243 C 0.33532 0.58827 0.58715 0.0
H244 H 0.33369 0.63689 0.55466 0.0
H245 H 0.27729 0.58514 0.6043 0.0
C246 C 0.23661 0.67552 0.56847 0.0
N247 N 0.22803 0.71743 0.55811 0.0
C248 C 0.22724 0.67732 0.54636 0.0
C249 C 0.24143 0.69496 0.58533 0.0
C250 C 0.22305 0.69867 0.54147 0.0
C251 C 0.23705 0.71603 0.57974 0.0
C252 C 0.30226 0.66964 0.53314 0.0
C253 C 0.29218 0.67665 0.51385 0.0
C254 C 0.32957 0.68457 0.5384 0.0
C255 C 0.30963 0.69847 0.50007 0.0
C256 C 0.34635 0.7063 0.52424 0.0
N257 N 0.33612 0.71273 0.50552 0.0
C258 C 0.32375 0.72128 0.5853 0.0
C259 C 0.29729 0.72191 0.5539 0.0
C260 C 0.34081 0.74896 0.58345 0.0
N261 N 0.30239 0.70834 0.57068 0.0
C262 C 0.31347 0.74956 0.55172 0.0
C263 C 0.3356 0.76341 0.56656 0.0
H264 H 0.32782 0.71005 0.59817 0.0
H265 H 0.28096 0.71128 0.54182 0.0
C266 C 0.19546 0.60561 0.53444 0.0
N267 N 0.22142 0.61398 0.52899 0.0
C268 C 0.17562 0.59435 0.51731 0.0
C269 C 0.20947 0.59964 0.48946 0.0
C270 C 0.22868 0.61073 0.50718 0.0
C271 C 0.18259 0.59163 0.49438 0.0
H272 H 0.19032 0.60826 0.55204 0.0
H273 H 0.24938 0.61698 0.50349 0.0
O274 O 0.28875 0.65546 0.60128 0.0
O275 O 0.24381 0.60372 0.5778 0.0
O276 O 0.24066 0.65465 0.57363 0.0
O277 O 0.28541 0.64863 0.54707 0.0
H278 H 0.29266 0.62339 0.63219 0.0
H279 H 0.28324 0.69235 0.624 0.0
H280 H 0.28983 0.62703 0.67518 0.0
H281 H 0.28051 0.69478 0.66715 0.0
H282 H 0.25336 0.55334 0.5216 0.0
H283 H 0.20479 0.55653 0.59149 0.0
H284 H 0.26694 0.59708 0.5402 0.0
H285 H 0.1923 0.51341 0.57196 0.0
H286 H 0.20011 0.57054 0.65994 0.0
H287 H 0.18426 0.63605 0.65385 0.0
H288 H 0.36194 0.61656 0.56119 0.0
H289 H 0.30378 0.56315 0.61154 0.0
H290 H 0.22356 0.66264 0.533 0.0
H291 H 0.24879 0.69401 0.60248 0.0
H292 H 0.21593 0.70037 0.52441 0.0
H293 H 0.24088 0.73129 0.59258 0.0
H294 H 0.27104 0.66571 0.50978 0.0
H295 H 0.33762 0.67981 0.55356 0.0
H296 H 0.30208 0.70419 0.48515 0.0
H297 H 0.36748 0.71815 0.52822 0.0
H298 H 0.35786 0.75895 0.59506 0.0
H299 H 0.3092 0.75991 0.53807 0.0
H300 H 0.15521 0.58867 0.52181 0.0
H301 H 0.21559 0.59751 0.47207 0.0
Li302 Li 0.67369 0.284 0.74528 0.0
Li303 Li 0.63403 0.24996 0.76471 0.0
Li304 Li 0.63745 0.24997 0.72262 0.0
Li305 Li 0.63178 0.28401 0.74196 0.0
C306 C 0.67702 0.23868 0.73468 0.0
N307 N 0.71153 0.226 0.71201 0.0
C308 C 0.68032 0.21768 0.7428 0.0
C309 C 0.69125 0.25324 0.71501 0.0
C310 C 0.69787 0.21158 0.7311 0.0
C311 C 0.7086 0.24651 0.7038 0.0
C312 C 0.66762 0.29584 0.79104 0.0
C313 C 0.68769 0.32534 0.82398 0.0
N314 N 0.69739 0.30956 0.83176 0.0
C315 C 0.67777 0.2799 0.79937 0.0
C316 C 0.67259 0.31873 0.80342 0.0
C317 C 0.69278 0.28718 0.81999 0.0
C318 C 0.72408 0.33114 0.73863 0.0
N319 N 0.71172 0.30614 0.74801 0.0
C320 C 0.75326 0.31308 0.76342 0.0
C321 C 0.72577 0.2968 0.75995 0.0
C322 C 0.76652 0.33919 0.75436 0.0
C323 C 0.75168 0.34807 0.7415 0.0
H324 H 0.7124 0.33808 0.72927 0.0
H325 H 0.71557 0.2768 0.76711 0.0
C326 C 0.6138 0.20037 0.7858 0.0
N327 N 0.61971 0.22586 0.79029 0.0
C328 C 0.60345 0.18104 0.80337 0.0
C329 C 0.60515 0.21452 0.82986 0.0
C330 C 0.61529 0.23318 0.81169 0.0
C331 C 0.59925 0.18809 0.82581 0.0
H332 H 0.61737 0.19516 0.76853 0.0
H333 H 0.61979 0.25351 0.8147 0.0
C334 C 0.6492 0.29528 0.69612 0.0
N335 N 0.63222 0.30771 0.65526 0.0
C336 C 0.6227 0.27951 0.68864 0.0
C337 C 0.66706 0.31735 0.6828 0.0
C338 C 0.61451 0.28613 0.66794 0.0
C339 C 0.65809 0.32332 0.6622 0.0
C340 C 0.58311 0.23841 0.75268 0.0
C341 C 0.5589 0.2172 0.7446 0.0
C342 C 0.58328 0.25292 0.77232 0.0
C343 C 0.53518 0.21085 0.7563 0.0
C344 C 0.55915 0.24595 0.78354 0.0
N345 N 0.5358 0.22524 0.77537 0.0
C346 C 0.60796 0.20029 0.70172 0.0
C347 C 0.63898 0.23298 0.67557 0.0
C348 C 0.59878 0.18086 0.68422 0.0
N349 N 0.6275 0.22577 0.69707 0.0
C350 C 0.63025 0.21421 0.65747 0.0
C351 C 0.60977 0.18779 0.66168 0.0
H352 H 0.59937 0.19515 0.71907 0.0
H353 H 0.65477 0.25331 0.67243 0.0
C354 C 0.62957 0.33162 0.74795 0.0
N355 N 0.61594 0.30621 0.73953 0.0
C356 C 0.61884 0.34856 0.74584 0.0
C357 C 0.58016 0.31273 0.72667 0.0
C358 C 0.59163 0.29655 0.72911 0.0
C359 C 0.59383 0.33919 0.73498 0.0
H360 H 0.64891 0.3388 0.75611 0.0
H361 H 0.58124 0.27636 0.72237 0.0
O362 O 0.65984 0.24476 0.746 0.0
O363 O 0.65304 0.28933 0.77079 0.0
O364 O 0.65779 0.28939 0.7164 0.0
O365 O 0.60644 0.24471 0.74137 0.0
H366 H 0.66944 0.20624 0.758 0.0
H367 H 0.68901 0.26957 0.70846 0.0
H368 H 0.70064 0.19539 0.73721 0.0
H369 H 0.71974 0.25761 0.68857 0.0
H370 H 0.6917 0.34302 0.83373 0.0
H371 H 0.67414 0.2621 0.79006 0.0
H372 H 0.66487 0.33129 0.7972 0.0
H373 H 0.70077 0.27503 0.82662 0.0
H374 H 0.76403 0.30537 0.77321 0.0
H375 H 0.76116 0.36814 0.73439 0.0
H376 H 0.5994 0.16097 0.7996 0.0
H377 H 0.60192 0.22066 0.84687 0.0
H378 H 0.60859 0.26229 0.69863 0.0
H379 H 0.68764 0.32976 0.68835 0.0
H380 H 0.59406 0.27409 0.66196 0.0
H381 H 0.67171 0.34035 0.65172 0.0
H382 H 0.55846 0.20577 0.72943 0.0
H383 H 0.60179 0.26941 0.77884 0.0
H384 H 0.51629 0.19449 0.75023 0.0
H385 H 0.55898 0.25701 0.79874 0.0
H386 H 0.58278 0.16081 0.68813 0.0
H387 H 0.63944 0.22027 0.64039 0.0
H388 H 0.63002 0.36877 0.75259 0.0
H389 H 0.5611 0.3048 0.71777 0.0
Li390 Li 0.39673 0.6254 0.93495 0.0
Li391 Li 0.40304 0.66822 0.91709 0.0
Li392 Li 0.36246 0.62672 0.91254 0.0
Li393 Li 0.40058 0.63159 0.89214 0.0
C394 C 0.35625 0.64402 0.95242 0.0
N395 N 0.3095 0.63861 0.97081 0.0
C396 C 0.34848 0.66279 0.94708 0.0
C397 C 0.34035 0.62259 0.96722 0.0
C398 C 0.32474 0.65968 0.95651 0.0
C399 C 0.31676 0.62019 0.97632 0.0
C400 C 0.45283 0.6622 0.92288 0.0
C401 C 0.49873 0.67582 0.91373 0.0
N402 N 0.50512 0.68088 0.93678 0.0
C403 C 0.45986 0.66757 0.94646 0.0
C404 C 0.47239 0.66634 0.90636 0.0
C405 C 0.4864 0.67698 0.95314 0.0
C406 C 0.42105 0.598 0.95302 0.0
N407 N 0.40725 0.61041 0.95935 0.0
C408 C 0.41172 0.60297 -0.00026 0.0
C409 C 0.40232 0.61296 0.98214 0.0
C410 C 0.4266 0.59053 0.99381 0.0
C411 C 0.43102 0.58793 0.97003 0.0
H412 H 0.42484 0.59653 0.93472 0.0
H413 H 0.39151 0.62316 0.98666 0.0
C414 C 0.40868 0.71954 0.90999 0.0
N415 N 0.41937 0.70619 0.92112 0.0
C416 C 0.41987 0.74713 0.91295 0.0
C417 C 0.45264 0.74675 0.93903 0.0
C418 C 0.44092 0.71922 0.93545 0.0
C419 C 0.44205 0.76107 0.92777 0.0
H420 H 0.3912 0.7087 0.89903 0.0
H421 H 0.44886 0.70823 0.94436 0.0
C422 C 0.35861 0.57977 0.89542 0.0
N423 N 0.32703 0.53879 0.86497 0.0
C424 C 0.34952 0.58527 0.87462 0.0
C425 C 0.35164 0.55345 0.90072 0.0
C426 C 0.33358 0.56428 0.85947 0.0
C427 C 0.33565 0.533 0.88511 0.0
C428 C 0.39491 0.67111 0.86971 0.0
C429 C 0.3798 0.67468 0.85246 0.0
C430 C 0.42289 0.68596 0.8687 0.0
C431 C 0.39292 0.69306 0.83449 0.0
C432 C 0.43524 0.70416 0.85046 0.0
N433 N 0.42013 0.7073 0.83388 0.0
C434 C 0.31491 0.62462 0.89743 0.0
C435 C 0.30774 0.58753 0.92058 0.0
C436 C 0.28737 0.61372 0.89441 0.0
N437 N 0.3245 0.61136 0.91018 0.0
C438 C 0.28 0.57603 0.91824 0.0
C439 C 0.26955 0.58902 0.90476 0.0
H440 H 0.32872 0.64359 0.88946 0.0
H441 H 0.31595 0.57738 0.93055 0.0
C442 C 0.42764 0.60853 0.87143 0.0
N443 N 0.41451 0.6219 0.86609 0.0
C444 C 0.43733 0.59902 0.8537 0.0
C445 C 0.42006 0.6175 0.82525 0.0
C446 C 0.41047 0.62642 0.84353 0.0
C447 C 0.43348 0.60332 0.83019 0.0
H448 H 0.43016 0.60485 0.88954 0.0
H449 H 0.39942 0.6365 0.83963 0.0
O450 O 0.37903 0.64635 0.94283 0.0
O451 O 0.42688 0.65252 0.91596 0.0
O452 O 0.37427 0.59993 0.91061 0.0
O453 O 0.38213 0.65312 0.88735 0.0
H454 H 0.36049 0.6794 0.93554 0.0
H455 H 0.34592 0.60771 0.97131 0.0
H456 H 0.31839 0.67396 0.95242 0.0
H457 H 0.30415 0.6036 0.98766 0.0
H458 H 0.51408 0.67914 0.90114 0.0
H459 H 0.44499 0.6646 0.95946 0.0
H460 H 0.46731 0.66239 0.88802 0.0
H461 H 0.49211 0.68121 0.97134 0.0
H462 H 0.4075 0.60512 0.01781 0.0
H463 H 0.44272 0.57892 0.96461 0.0
H464 H 0.41081 0.75732 0.90423 0.0
H465 H 0.46981 0.75674 0.95051 0.0
H466 H 0.35466 0.60548 0.87018 0.0
H467 H 0.35854 0.54889 0.91675 0.0
H468 H 0.32642 0.56825 0.84332 0.0
H469 H 0.3301 0.51253 0.88899 0.0
H470 H 0.35814 0.66331 0.85293 0.0
H471 H 0.43501 0.68361 0.88181 0.0
H472 H 0.38145 0.69601 0.82103 0.0
H473 H 0.45686 0.71579 0.8495 0.0
H474 H 0.28007 0.62444 0.88403 0.0
H475 H 0.2669 0.55685 0.92631 0.0
H476 H 0.44708 0.58779 0.85841 0.0
H477 H 0.41684 0.62156 0.80742 0.0
Li478 Li 0.75455 0.40692 0.07905 0.0
Li479 Li 0.78842 0.39939 0.09851 0.0
Li480 Li 0.78847 0.40394 0.05495 0.0
Li481 Li 0.75435 0.36308 0.07449 0.0
C482 C 0.80084 0.45688 0.07701 0.0
N483 N 0.81346 0.50956 0.07217 0.0
C484 C 0.81485 0.47541 0.09468 0.0
C485 C 0.79356 0.46524 0.05676 0.0
C486 C 0.82097 0.50193 0.09194 0.0
C487 C 0.80004 0.49192 0.05467 0.0
C488 C 0.74461 0.37641 0.12679 0.0
C489 C 0.73764 0.35108 0.16223 0.0
N490 N 0.73651 0.37064 0.17456 0.0
C491 C 0.74303 0.39608 0.13977 0.0
C492 C 0.7416 0.35357 0.13805 0.0
C493 C 0.73908 0.39288 0.16392 0.0
C494 C 0.70802 0.41066 0.0712 0.0
N495 N 0.73228 0.42267 0.08202 0.0
C496 C 0.72403 0.45619 0.09795 0.0
C497 C 0.74041 0.44495 0.09532 0.0
C498 C 0.69883 0.44421 0.08704 0.0
C499 C 0.69088 0.42114 0.07348 0.0
H500 H 0.70189 0.39277 0.06094 0.0
H501 H 0.75939 0.45373 0.10435 0.0
C502 C 0.8303 0.40103 0.12603 0.0
N503 N 0.81189 0.40916 0.12486 0.0
C504 C 0.84944 0.41029 0.14383 0.0
C505 C 0.8306 0.43643 0.15882 0.0
C506 C 0.81166 0.42644 0.14086 0.0
C507 C 0.85003 0.42855 0.1604 0.0
H508 H 0.83074 0.38797 0.11277 0.0
H509 H 0.79741 0.43331 0.13916 0.0
C510 C 0.74348 0.38548 0.02718 0.0
N511 N 0.73255 0.3864 0.98023 0.0
C512 C 0.74083 0.36507 0.01233 0.0
C513 C 0.73998 0.40606 0.01822 0.0
C514 C 0.73549 0.36598 0.98863 0.0
C515 C 0.73461 0.40625 0.99442 0.0
C516 C 0.79862 0.35732 0.07534 0.0
C517 C 0.8119 0.35251 0.0572 0.0
C518 C 0.79006 0.34052 0.09486 0.0
C519 C 0.81606 0.3307 0.05876 0.0
C520 C 0.79458 0.31891 0.09577 0.0
N521 N 0.80735 0.31447 0.07784 0.0
C522 C 0.83159 0.44283 0.02748 0.0
C523 C 0.80944 0.39895 0.01192 0.0
C524 C 0.85011 0.45178 0.0092 0.0
N525 N 0.81165 0.41685 0.02844 0.0
C526 C 0.82772 0.40692 0.9935 0.0
C527 C 0.84854 0.43367 0.992 0.0
H528 H 0.83369 0.45655 0.04122 0.0
H529 H 0.7941 0.37819 0.01355 0.0
C530 C 0.70934 0.31181 0.08393 0.0
N531 N 0.73199 0.32524 0.0709 0.0
C532 C 0.69225 0.28432 0.0807 0.0
C533 C 0.72226 0.28502 0.05089 0.0
C534 C 0.73867 0.31241 0.05463 0.0
C535 C 0.6985 0.27061 0.06379 0.0
H536 H 0.70429 0.32255 0.09654 0.0
H537 H 0.75658 0.32352 0.04429 0.0
O538 O 0.79419 0.43068 0.0796 0.0
O539 O 0.74851 0.37925 0.10312 0.0
O540 O 0.74868 0.38487 0.05048 0.0
O541 O 0.7939 0.37829 0.07394 0.0
H542 H 0.82092 0.46942 0.11037 0.0
H543 H 0.78327 0.45132 0.04274 0.0
H544 H 0.83169 0.51645 0.10553 0.0
H545 H 0.79445 0.49862 0.0391 0.0
H546 H 0.73537 0.33355 0.17117 0.0
H547 H 0.74513 0.41378 0.13135 0.0
H548 H 0.74207 0.33781 0.12825 0.0
H549 H 0.73805 0.40807 0.1742 0.0
H550 H 0.7307 0.4736 0.10903 0.0
H551 H 0.67161 0.41127 0.06479 0.0
H552 H 0.8638 0.40341 0.14442 0.0
H553 H 0.83055 0.45091 0.17082 0.0
H554 H 0.74311 0.3488 0.01897 0.0
H555 H 0.74111 0.4216 0.0295 0.0
H556 H 0.73366 0.35043 0.97692 0.0
H557 H 0.73196 0.42212 0.98725 0.0
H558 H 0.81894 0.36545 0.04207 0.0
H559 H 0.78011 0.3442 0.10915 0.0
H560 H 0.82621 0.32668 0.04481 0.0
H561 H 0.78796 0.3057 0.11075 0.0
H562 H 0.86565 0.47262 0.00874 0.0
H563 H 0.82603 0.39203 0.98105 0.0
H564 H 0.67398 0.27411 0.09083 0.0
H565 H 0.72809 0.27526 0.03788 0.0
Li566 Li 0.40914 0.78851 0.26525 0.0
Li567 Li 0.36874 0.7536 0.24624 0.0
Li568 Li 0.41245 0.75649 0.24238 0.0
Li569 Li 0.40597 0.78964 0.22227 0.0
C570 C 0.39249 0.74984 0.29455 0.0
N571 N 0.39756 0.75352 0.34264 0.0
C572 C 0.37119 0.74683 0.3084 0.0
C573 C 0.41626 0.75443 0.30516 0.0
C574 C 0.37418 0.74883 0.33268 0.0
C575 C 0.41847 0.75631 0.32949 0.0
C576 C 0.36549 0.79965 0.23653 0.0
C577 C 0.33318 0.79317 0.20674 0.0
N578 N 0.33072 0.81352 0.21607 0.0
C579 C 0.36267 0.82049 0.24582 0.0
C580 C 0.35065 0.78586 0.21683 0.0
C581 C 0.34498 0.8272 0.23523 0.0
C582 C 0.44819 0.8269 0.29576 0.0
N583 N 0.4215 0.81212 0.29133 0.0
C584 C 0.41202 0.83452 0.32175 0.0
C585 C 0.40341 0.81551 0.30388 0.0
C586 C 0.43953 0.85034 0.32657 0.0
C587 C 0.45769 0.84616 0.31343 0.0
H588 H 0.46218 0.82418 0.28524 0.0
H589 H 0.38234 0.80384 0.29963 0.0
C590 C 0.31666 0.7088 0.23702 0.0
N591 N 0.33062 0.73216 0.249 0.0
C592 C 0.2889 0.69306 0.23977 0.0
C593 C 0.29028 0.72622 0.26639 0.0
C594 C 0.318 0.74117 0.2633 0.0
C595 C 0.27538 0.70166 0.25473 0.0
H596 H 0.32702 0.70228 0.22541 0.0
H597 H 0.32955 0.75989 0.27253 0.0
C598 C 0.46159 0.79983 0.23647 0.0
N599 N 0.51176 0.80764 0.22578 0.0
C600 C 0.47244 0.80862 0.21419 0.0
C601 C 0.47636 0.7952 0.25335 0.0
C602 C 0.49782 0.81242 0.20913 0.0
C603 C 0.50164 0.79919 0.24758 0.0
C604 C 0.38899 0.73305 0.20298 0.0
C605 C 0.40443 0.74191 0.18263 0.0
C606 C 0.37757 0.70624 0.20966 0.0
C607 C 0.40809 0.72374 0.16923 0.0
C608 C 0.38177 0.68872 0.19584 0.0
N609 N 0.3968 0.69776 0.17607 0.0
C610 C 0.42257 0.7146 0.25539 0.0
C611 C 0.44681 0.73925 0.22213 0.0
C612 C 0.43359 0.69789 0.25345 0.0
N613 N 0.42934 0.73486 0.23985 0.0
C614 C 0.45866 0.72343 0.21982 0.0
C615 C 0.452 0.70237 0.23553 0.0
H616 H 0.40825 0.71112 0.26907 0.0
H617 H 0.45123 0.75474 0.20945 0.0
C618 C 0.43215 0.83987 0.20174 0.0
N619 N 0.41408 0.81385 0.19712 0.0
C620 C 0.44018 0.85909 0.18413 0.0
C621 C 0.41007 0.8245 0.15753 0.0
C622 C 0.40255 0.80594 0.1757 0.0
C623 C 0.42941 0.85142 0.16158 0.0
H624 H 0.44074 0.84555 0.21905 0.0
H625 H 0.38773 0.7852 0.1727 0.0
O626 O 0.39023 0.74867 0.27072 0.0
O627 O 0.38275 0.79292 0.24675 0.0
O628 O 0.4368 0.79611 0.24177 0.0
O629 O 0.38553 0.75063 0.21652 0.0
H630 H 0.35264 0.7432 0.30049 0.0
H631 H 0.43285 0.75663 0.29469 0.0
H632 H 0.35792 0.7467 0.34361 0.0
H633 H 0.4368 0.76 0.33793 0.0
H634 H 0.32156 0.78267 0.19149 0.0
H635 H 0.37404 0.83135 0.26108 0.0
H636 H 0.35255 0.76966 0.20939 0.0
H637 H 0.34258 0.84329 0.24223 0.0
H638 H 0.39735 0.83732 0.33123 0.0
H639 H 0.47903 0.85773 0.3167 0.0
H640 H 0.27812 0.67438 0.23028 0.0
H641 H 0.28072 0.73346 0.2783 0.0
H642 H 0.4613 0.81212 0.20082 0.0
H643 H 0.46829 0.78833 0.27064 0.0
H644 H 0.50639 0.81907 0.19192 0.0
H645 H 0.51319 0.79551 0.26044 0.0
H646 H 0.41389 0.76267 0.17742 0.0
H647 H 0.36614 0.69917 0.22567 0.0
H648 H 0.42007 0.73035 0.15349 0.0
H649 H 0.37324 0.66798 0.20091 0.0
H650 H 0.42781 0.68166 0.26577 0.0
H651 H 0.47227 0.7271 0.20542 0.0
H652 H 0.45529 0.87956 0.18796 0.0
H653 H 0.40098 0.81786 0.14046 0.0
C654 C 0.11725 0.60689 0.28361 0.0
C655 C 0.11603 0.60766 0.30806 0.0
C656 C 0.14176 0.62211 0.27175 0.0
C657 C 0.16543 0.63838 0.28471 0.0
C658 C 0.16403 0.63981 0.30932 0.0
C659 C 0.1394 0.62463 0.32061 0.0
C660 C 0.14246 0.6203 0.24548 0.0
C661 C 0.18869 0.65694 0.32387 0.0
C662 C 0.23516 0.65727 0.26393 0.0
C663 C 0.24617 0.68462 0.25918 0.0
C664 C 0.20833 0.64153 0.2709 0.0
C665 C 0.19204 0.65337 0.27302 0.0
C666 C 0.2026 0.6806 0.2669 0.0
C667 C 0.22959 0.69593 0.26019 0.0
C668 C 0.19796 0.61265 0.27747 0.0
C669 C 0.18584 0.69391 0.26863 0.0
H670 H 0.09922 0.59387 0.27385 0.0
H671 H 0.13847 0.62587 0.33947 0.0
H672 H 0.15238 0.64062 0.23767 0.0
H673 H 0.15444 0.61087 0.24047 0.0
H674 H 0.1221 0.60838 0.23784 0.0
H675 H 0.18407 0.65608 0.34282 0.0
H676 H 0.20351 0.65022 0.32144 0.0
H677 H 0.19829 0.67808 0.31807 0.0
H678 H 0.2479 0.64843 0.26334 0.0
H679 H 0.23789 0.71697 0.25618 0.0
H680 H 0.17836 0.59954 0.26899 0.0
H681 H 0.19479 0.61027 0.29666 0.0
H682 H 0.21208 0.60569 0.27245 0.0
H683 H 0.16598 0.68128 0.26037 0.0
H684 H 0.19571 0.71394 0.26021 0.0
H685 H 0.18232 0.69637 0.28731 0.0
C686 C 0.51594 0.11661 0.45873 0.0
C687 C 0.53356 0.10811 0.46643 0.0
C688 C 0.52563 0.14171 0.44803 0.0
C689 C 0.55359 0.1586 0.44495 0.0
C690 C 0.57119 0.14904 0.45077 0.0
C691 C 0.56096 0.12391 0.46145 0.0
C692 C 0.50615 0.15103 0.44193 0.0
C693 C 0.60109 0.16625 0.44759 0.0
C694 C 0.58088 0.22382 0.41074 0.0
C695 C 0.58716 0.24248 0.42884 0.0
C696 C 0.56971 0.19637 0.41559 0.0
C697 C 0.56468 0.18741 0.43907 0.0
C698 C 0.57072 0.20613 0.45735 0.0
C699 C 0.58181 0.23335 0.45202 0.0
C700 C 0.56358 0.17702 0.39566 0.0
C701 C 0.56558 0.19745 0.48265 0.0
H702 H 0.49477 0.10459 0.46269 0.0
H703 H 0.57461 0.11727 0.4672 0.0
H704 H 0.50784 0.166 0.45502 0.0
H705 H 0.51087 0.16091 0.42457 0.0
H706 H 0.48511 0.13426 0.44181 0.0
H707 H 0.61152 0.15458 0.44967 0.0
H708 H 0.60586 0.17579 0.43009 0.0
H709 H 0.60914 0.18249 0.46082 0.0
H710 H 0.58512 0.23073 0.3928 0.0
H711 H 0.58608 0.24753 0.46607 0.0
H712 H 0.54224 0.16104 0.39626 0.0
H713 H 0.57578 0.16715 0.39741 0.0
H714 H 0.56774 0.18702 0.37834 0.0
H715 H 0.54408 0.18258 0.48522 0.0
H716 H 0.57113 0.21448 0.49476 0.0
H717 H 0.57721 0.1876 0.4875 0.0
C718 C 0.41063 0.50924 0.62515 0.0
C719 C 0.43643 0.52756 0.63314 0.0
C720 C 0.39475 0.51808 0.61393 0.0
C721 C 0.40496 0.54586 0.61068 0.0
C722 C 0.43182 0.56419 0.61688 0.0
C723 C 0.44723 0.55481 0.62802 0.0
C724 C 0.3663 0.49785 0.60742 0.0
C725 C 0.44361 0.59394 0.61357 0.0
C726 C 0.36626 0.57132 0.57511 0.0
C727 C 0.35277 0.5768 0.59277 0.0
C728 C 0.3831 0.56092 0.58054 0.0
C729 C 0.38659 0.556 0.60417 0.0
C730 C 0.37293 0.5614 0.62203 0.0
C731 C 0.35627 0.57173 0.61612 0.0
C732 C 0.39726 0.55534 0.56104 0.0
C733 C 0.37619 0.55661 0.64749 0.0
H734 H 0.40209 0.48818 0.62919 0.0
H735 H 0.46728 0.56899 0.63397 0.0
H736 H 0.35238 0.49899 0.62014 0.0
H737 H 0.36125 0.50222 0.58986 0.0
H738 H 0.36283 0.4771 0.6075 0.0
H739 H 0.46567 0.60506 0.61612 0.0
H740 H 0.43903 0.59839 0.59585 0.0
H741 H 0.43452 0.60149 0.62641 0.0
H742 H 0.36349 0.57497 0.55701 0.0
H743 H 0.34634 0.57636 0.62991 0.0
H744 H 0.39212 0.53408 0.56157 0.0
H745 H 0.41926 0.56769 0.56341 0.0
H746 H 0.39196 0.55966 0.54354 0.0
H747 H 0.37052 0.53539 0.65022 0.0
H748 H 0.36376 0.56137 0.65919 0.0
H749 H 0.39748 0.5691 0.65273 0.0
C750 C 0.92173 0.41382 0.78712 0.0
C751 C 0.92961 0.43897 0.79693 0.0
C752 C 0.8967 0.39894 0.77615 0.0
C753 C 0.8791 0.40937 0.77514 0.0
C754 C 0.88799 0.43574 0.78307 0.0
C755 C 0.91321 0.45027 0.79373 0.0
C756 C 0.88819 0.37109 0.76755 0.0
C757 C 0.86995 0.44771 0.7823 0.0
C758 C 0.81328 0.37261 0.74151 0.0
C759 C 0.79541 0.35731 0.75931 0.0
C760 C 0.84069 0.38953 0.74624 0.0
C761 C 0.85029 0.39142 0.76936 0.0
C762 C 0.83222 0.37618 0.7874 0.0
C763 C 0.80509 0.35925 0.78213 0.0
C764 C 0.85939 0.40523 0.72653 0.0
C765 C 0.84151 0.37785 0.81237 0.0
H766 H 0.93416 0.40483 0.78959 0.0
H767 H 0.91939 0.46989 0.80095 0.0
H768 H 0.87376 0.35622 0.78011 0.0
H769 H 0.87794 0.36732 0.75039 0.0
H770 H 0.90548 0.36773 0.76581 0.0
H771 H 0.8811 0.46956 0.78582 0.0
H772 H 0.85995 0.44418 0.76506 0.0
H773 H 0.85404 0.43791 0.79572 0.0
H774 H 0.80587 0.37101 0.72382 0.0
H775 H 0.79128 0.34776 0.796 0.0
H776 H 0.87531 0.39987 0.72486 0.0
H777 H 0.86944 0.42696 0.7304 0.0
H778 H 0.84879 0.40148 0.70952 0.0
H779 H 0.85696 0.37178 0.81333 0.0
H780 H 0.82486 0.36488 0.82436 0.0
H781 H 0.85086 0.39879 0.8187 0.0
C782 C 0.47625 0.90831 0.96249 0.0
C783 C 0.50373 0.92512 0.96654 0.0
C784 C 0.46641 0.88282 0.95265 0.0
C785 C 0.48454 0.874 0.94657 0.0
C786 C 0.51245 0.89183 0.94861 0.0
C787 C 0.52174 0.91719 0.95863 0.0
C788 C 0.43651 0.86455 0.95066 0.0
C789 C 0.53247 0.88333 0.94206 0.0
C790 C 0.45974 0.80004 0.95514 0.0
C791 C 0.45343 0.79015 0.93225 0.0
C792 C 0.47 0.82728 0.95991 0.0
C793 C 0.47423 0.84519 0.94132 0.0
C794 C 0.46811 0.83541 0.91812 0.0
C795 C 0.45766 0.80795 0.91386 0.0
C796 C 0.47601 0.83683 0.98495 0.0
C797 C 0.47255 0.85392 0.89785 0.0
H798 H 0.46228 0.9145 0.96831 0.0
H799 H 0.54299 0.92997 0.96183 0.0
H800 H 0.43118 0.85443 0.9334 0.0
H801 H 0.42973 0.84875 0.96425 0.0
H802 H 0.42539 0.8755 0.95304 0.0
H803 H 0.55319 0.90063 0.94111 0.0
H804 H 0.53203 0.86912 0.95537 0.0
H805 H 0.52726 0.87284 0.92497 0.0
H806 H 0.45614 0.78634 0.96946 0.0
H807 H 0.45303 0.80043 0.89611 0.0
H808 H 0.4638 0.84596 0.99009 0.0
H809 H 0.49737 0.85249 0.98672 0.0
H810 H 0.4718 0.82036 0.99736 0.0
H811 H 0.46026 0.86363 0.90017 0.0
H812 H 0.46732 0.84327 0.8808 0.0
H813 H 0.49381 0.87009 0.89732 0.0
C814 C 0.62101 0.50027 0.15406 0.0
C815 C 0.60289 0.50578 0.14239 0.0
C816 C 0.63558 0.49061 0.14208 0.0
C817 C 0.63236 0.48665 0.11762 0.0
C818 C 0.61467 0.49284 0.10552 0.0
C819 C 0.6001 0.50239 0.11807 0.0
C820 C 0.65429 0.48442 0.15573 0.0
C821 C 0.61091 0.48905 0.07942 0.0
C822 C 0.69037 0.48265 0.09094 0.0
C823 C 0.6805 0.45496 0.09108 0.0
C824 C 0.67419 0.49326 0.09782 0.0
C825 C 0.64756 0.47577 0.10519 0.0
C826 C 0.63698 0.44774 0.10395 0.0
C827 C 0.65357 0.43768 0.09687 0.0
C828 C 0.68618 0.52324 0.09865 0.0
C829 C 0.60875 0.42839 0.11176 0.0
H830 H 0.62388 0.50359 0.17276 0.0
H831 H 0.58622 0.50672 0.10897 0.0
H832 H 0.64832 0.46305 0.15348 0.0
H833 H 0.67502 0.49655 0.14899 0.0
H834 H 0.65438 0.48852 0.17472 0.0
H835 H 0.59732 0.49586 0.07246 0.0
H836 H 0.63054 0.50026 0.07044 0.0
H837 H 0.60248 0.46761 0.075 0.0
H838 H 0.71104 0.49609 0.08608 0.0
H839 H 0.64584 0.41627 0.09714 0.0
H840 H 0.68973 0.53003 0.11712 0.0
H841 H 0.67217 0.52913 0.09104 0.0
H842 H 0.70553 0.53387 0.08913 0.0
H843 H 0.60747 0.42937 0.13106 0.0
H844 H 0.6024 0.40744 0.10679 0.0
H845 H 0.59446 0.43387 0.10411 0.0
C846 C 0.43476 0.92075 0.53834 0.0
C847 C 0.43425 0.92136 0.51384 0.0
C848 C 0.4193 0.89659 0.55061 0.0
C849 C 0.40314 0.87262 0.53802 0.0
C850 C 0.40219 0.87335 0.51333 0.0
C851 C 0.41744 0.89765 0.50164 0.0
C852 C 0.42047 0.89661 0.57696 0.0
C853 C 0.38525 0.84834 0.49913 0.0
C854 C 0.38132 0.8028 0.56022 0.0
C855 C 0.35378 0.79256 0.56333 0.0
C856 C 0.39814 0.82955 0.55353 0.0
C857 C 0.38717 0.84648 0.55019 0.0
C858 C 0.35973 0.8367 0.55503 0.0
C859 C 0.34331 0.80976 0.56132 0.0
C860 C 0.42719 0.83904 0.54825 0.0
C861 C 0.34731 0.85416 0.55207 0.0
H862 H 0.4476 0.93901 0.54786 0.0
H863 H 0.41623 0.89806 0.48274 0.0
H864 H 0.39997 0.88764 0.58434 0.0
H865 H 0.429 0.88412 0.58288 0.0
H866 H 0.43285 0.91709 0.58421 0.0
H867 H 0.38715 0.8523 0.48002 0.0
H868 H 0.39121 0.83318 0.50292 0.0
H869 H 0.36387 0.83949 0.50404 0.0
H870 H 0.38942 0.78948 0.56165 0.0
H871 H 0.32205 0.80192 0.564 0.0
H872 H 0.44032 0.85885 0.55637 0.0
H873 H 0.43045 0.84144 0.52907 0.0
H874 H 0.43339 0.82474 0.55457 0.0
H875 H 0.36022 0.87414 0.55999 0.0
H876 H 0.32709 0.84505 0.5601 0.0
H877 H 0.34541 0.85722 0.53317 0.0
C878 C 0.53162 0.41315 0.67019 0.0
C879 C 0.52798 0.43245 0.6819 0.0
C880 C 0.54151 0.39856 0.6818 0.0
C881 C 0.54788 0.40322 0.70587 0.0
C882 C 0.54337 0.42201 0.71807 0.0
C883 C 0.53334 0.4364 0.70592 0.0
C884 C 0.54575 0.37859 0.6681 0.0
C885 C 0.54986 0.42742 0.74374 0.0
C886 C 0.555 0.34744 0.73359 0.0
C887 C 0.58256 0.35714 0.73107 0.0
C888 C 0.54358 0.36301 0.72701 0.0
C889 C 0.56012 0.38889 0.71764 0.0
C890 C 0.58817 0.39942 0.71643 0.0
C891 C 0.59905 0.38342 0.72314 0.0
C892 C 0.51362 0.35108 0.72872 0.0
C893 C 0.60652 0.42691 0.70652 0.0
H894 H 0.52698 0.4097 0.6517 0.0
H895 H 0.53048 0.45128 0.71498 0.0
H896 H 0.56731 0.38469 0.66818 0.0
H897 H 0.53467 0.35857 0.67639 0.0
H898 H 0.53904 0.37682 0.64964 0.0
H899 H 0.54329 0.44103 0.75108 0.0
H900 H 0.54016 0.40841 0.75374 0.0
H901 H 0.57179 0.43666 0.74634 0.0
H902 H 0.54219 0.32734 0.74015 0.0
H903 H 0.62033 0.39104 0.72098 0.0
H904 H 0.50477 0.34619 0.71092 0.0
H905 H 0.50862 0.36566 0.73648 0.0
H906 H 0.50412 0.3325 0.73937 0.0
H907 H 0.60315 0.42673 0.6874 0.0
H908 H 0.62798 0.43349 0.70955 0.0
H909 H 0.60208 0.44182 0.71439 0.0
C910 C 0.11589 0.50273 0.86908 0.0
C911 C 0.10592 0.51982 0.86385 0.0
C912 C 0.14073 0.51247 0.88029 0.0
C913 C 0.15565 0.53986 0.88659 0.0
C914 C 0.14409 0.55632 0.88381 0.0
C915 C 0.11942 0.54616 0.87224 0.0
C916 C 0.15228 0.49421 0.88285 0.0
C917 C 0.159 0.58545 0.89075 0.0
C918 C 0.22192 0.56581 0.91899 0.0
C919 C 0.24032 0.57638 0.9005 0.0
C920 C 0.19422 0.55395 0.91489 0.0
C921 C 0.1848 0.5523 0.89173 0.0
C922 C 0.20336 0.56272 0.87302 0.0
C923 C 0.23084 0.57475 0.87766 0.0
C924 C 0.17508 0.54347 0.93528 0.0
C925 C 0.1942 0.56108 0.848 0.0
H926 H 0.1056 0.48245 0.86233 0.0
H927 H 0.11171 0.55938 0.8681 0.0
H928 H 0.1675 0.49897 0.869 0.0
H929 H 0.16242 0.49722 0.89997 0.0
H930 H 0.13664 0.47281 0.88114 0.0
H931 H 0.14547 0.59395 0.89172 0.0
H932 H 0.16901 0.58816 0.90791 0.0
H933 H 0.17477 0.59701 0.8776 0.0
H934 H 0.22925 0.56721 0.93669 0.0
H935 H 0.245 0.58257 0.86331 0.0
H936 H 0.16039 0.52194 0.93273 0.0
H937 H 0.16357 0.55413 0.93628 0.0
H938 H 0.18558 0.54598 0.95218 0.0
H939 H 0.18026 0.53992 0.84318 0.0
H940 H 0.21117 0.56955 0.83545 0.0
H941 H 0.18312 0.57211 0.84607 0.0
C942 C 0.58423 0.12424 0.02673 0.0
C943 C 0.59532 0.10804 0.02158 0.0
C944 C 0.59959 0.14925 0.03751 0.0
C945 C 0.6267 0.15828 0.04318 0.0
C946 C 0.63722 0.14096 0.03995 0.0
C947 C 0.62137 0.11599 0.02919 0.0
C948 C 0.58746 0.1669 0.04092 0.0
C949 C 0.66597 0.14975 0.04583 0.0
C950 C 0.67509 0.23255 0.03569 0.0
C951 C 0.67995 0.24174 0.05887 0.0
C952 C 0.65788 0.20548 0.03049 0.0
C953 C 0.645 0.187 0.0489 0.0
C954 C 0.64959 0.19608 0.07235 0.0
C955 C 0.66703 0.22337 0.07707 0.0
C956 C 0.65346 0.19669 0.00521 0.0
C957 C 0.63616 0.17698 0.0924 0.0
H958 H 0.564 0.11801 0.02105 0.0
H959 H 0.63012 0.10367 0.02509 0.0
H960 H 0.59277 0.17664 0.05834 0.0
H961 H 0.5956 0.18299 0.02755 0.0
H962 H 0.56529 0.15552 0.03921 0.0
H963 H 0.66981 0.1327 0.04581 0.0
H964 H 0.67933 0.1646 0.0327 0.0
H965 H 0.67145 0.15958 0.0632 0.0
H966 H 0.68452 0.24665 0.0215 0.0
H967 H 0.67083 0.23028 0.09503 0.0
H968 H 0.63192 0.18758 0.00072 0.0
H969 H 0.6592 0.18119 0.00239 0.0
H970 H 0.6652 0.21354 0.99299 0.0
H971 H 0.61409 0.16671 0.09032 0.0
H972 H 0.64158 0.18725 0.10962 0.0
H973 H 0.64191 0.16128 0.09232 0.0
C974 C 0.50211 0.61985 0.16881 0.0
C975 C 0.51034 0.6039 0.18068 0.0
C976 C 0.49339 0.63515 0.18089 0.0
C977 C 0.49344 0.63515 0.20562 0.0
C978 C 0.50257 0.61985 0.21785 0.0
C979 C 0.51088 0.6043 0.20521 0.0
C980 C 0.48385 0.65115 0.16707 0.0
C981 C 0.50331 0.61974 0.24421 0.0
C982 C 0.49081 0.69523 0.2287 0.0
C983 C 0.46323 0.68445 0.23214 0.0
C984 C 0.50131 0.67892 0.22202 0.0
C985 C 0.48372 0.65125 0.21824 0.0
C986 C 0.45604 0.64002 0.22307 0.0
C987 C 0.44614 0.65676 0.23013 0.0
C988 C 0.53098 0.69163 0.21748 0.0
C989 C 0.43654 0.61072 0.21897 0.0
H990 H 0.50244 0.62038 0.14986 0.0
H991 H 0.51731 0.59211 0.21449 0.0
H992 H 0.46294 0.64503 0.172 0.0
H993 H 0.49641 0.67273 0.17121 0.0
H994 H 0.48457 0.64851 0.1479 0.0
H995 H 0.51219 0.60789 0.25108 0.0
H996 H 0.51508 0.64051 0.2509 0.0
H997 H 0.48271 0.61121 0.25124 0.0
H998 H 0.50407 0.71663 0.23052 0.0
H999 H 0.42479 0.64843 0.23267 0.0
H1000 H 0.53461 0.69287 0.19835 0.0
H1001 H 0.53894 0.67929 0.22504 0.0
H1002 H 0.54236 0.71215 0.22487 0.0
H1003 H 0.43431 0.60668 0.19988 0.0
H1004 H 0.41646 0.60446 0.22641 0.0
H1005 H 0.44415 0.59819 0.22674 0.0
C1006 C 0.92436 0.50968 0.37068 0.0
C1007 C 0.92436 0.50996 0.34615 0.0
C1008 C 0.90042 0.50095 0.38333 0.0
C1009 C 0.87603 0.49225 0.37111 0.0
C1010 C 0.8761 0.49302 0.34639 0.0
C1011 C 0.9002 0.50212 0.33431 0.0
C1012 C 0.90114 0.50077 0.40969 0.0
C1013 C 0.85061 0.48394 0.33259 0.0
C1014 C 0.80721 0.44388 0.39525 0.0
C1015 C 0.79645 0.46074 0.39833 0.0
C1016 C 0.8338 0.45413 0.38787 0.0
C1017 C 0.8501 0.48195 0.38373 0.0
C1018 C 0.83987 0.49925 0.3884 0.0
C1019 C 0.81309 0.48841 0.39545 0.0
C1020 C 0.84378 0.43494 0.38284 0.0
C1021 C 0.85667 0.52905 0.38456 0.0
H1022 H 0.94295 0.51581 0.37993 0.0
H1023 H 0.90009 0.5031 0.31538 0.0
H1024 H 0.89204 0.51225 0.41687 0.0
H1025 H 0.88907 0.47994 0.41619 0.0
H1026 H 0.92185 0.50944 0.41658 0.0
H1027 H 0.85409 0.48543 0.31341 0.0
H1028 H 0.83587 0.46286 0.33695 0.0
H1029 H 0.84146 0.49624 0.33731 0.0
H1030 H 0.79437 0.42246 0.39733 0.0
H1031 H 0.80492 0.50153 0.39814 0.0
H1032 H 0.86389 0.44228 0.39063 0.0
H1033 H 0.84575 0.43356 0.36366 0.0
H1034 H 0.82998 0.41455 0.38966 0.0
H1035 H 0.87694 0.53686 0.39216 0.0
H1036 H 0.84734 0.54005 0.39237 0.0
H1037 H 0.85918 0.5333 0.36553 0.0
C1038 C 0.07391 0.57153 0.39986 0.0
C1039 C 0.07528 0.55773 0.38026 0.0
C1040 C 0.08731 0.57237 0.42062 0.0
C1041 C 0.10216 0.5589 0.42172 0.0
C1042 C 0.10084 0.54233 0.40292 0.0
C1043 C 0.08749 0.54205 0.38231 0.0
C1044 C 0.08807 0.59017 0.44029 0.0
C1045 C 0.11592 0.52721 0.40352 0.0
C1046 C 0.1683 0.59559 0.45406 0.0
C1047 C 0.1622 0.582 0.47547 0.0
C1048 C 0.14895 0.58801 0.43643 0.0
C1049 C 0.12281 0.56616 0.44023 0.0
C1050 C 0.11661 0.55197 0.46162 0.0
C1051 C 0.13637 0.56015 0.47906 0.0
C1052 C 0.1564 0.60378 0.41389 0.0
C1053 C 0.08908 0.52841 0.46615 0.0
H1054 H 0.06466 0.58383 0.39825 0.0
H1055 H 0.08846 0.53131 0.36714 0.0
H1056 H 0.08598 0.58044 0.45748 0.0
H1057 H 0.1077 0.609 0.44015 0.0
H1058 H 0.07202 0.59537 0.43854 0.0
H1059 H 0.10864 0.51138 0.3899 0.0
H1060 H 0.1375 0.54134 0.40035 0.0
H1061 H 0.11408 0.5179 0.42089 0.0
H1062 H 0.18807 0.61273 0.45131 0.0
H1063 H 0.13163 0.54944 0.49552 0.0
H1064 H 0.14346 0.61273 0.41129 0.0
H1065 H 0.15303 0.59033 0.39884 0.0
H1066 H 0.17765 0.62009 0.41367 0.0
H1067 H 0.07404 0.53503 0.46595 0.0
H1068 H 0.08786 0.51871 0.48324 0.0
H1069 H 0.08352 0.51331 0.45208 0.0
C1070 C 0.52318 0.08019 0.56513 0.0
C1071 C 0.53896 0.08002 0.54658 0.0
C1072 C 0.53505 0.09467 0.58564 0.0
C1073 C 0.56333 0.1091 0.58763 0.0
C1074 C 0.57919 0.1069 0.56984 0.0
C1075 C 0.5668 0.09247 0.54945 0.0
C1076 C 0.51741 0.09648 0.60419 0.0
C1077 C 0.60936 0.12157 0.57145 0.0
C1078 C 0.59326 0.17479 0.62071 0.0
C1079 C 0.5991 0.1678 0.64249 0.0
C1080 C 0.58183 0.15587 0.60272 0.0
C1081 C 0.57627 0.12931 0.60652 0.0
C1082 C 0.58259 0.12223 0.62831 0.0
C1083 C 0.59382 0.14154 0.64611 0.0
C1084 C 0.57525 0.16422 0.57976 0.0
C1085 C 0.57729 0.09424 0.63288 0.0
H1086 H 0.50167 0.07081 0.56287 0.0
H1087 H 0.57901 0.09223 0.53513 0.0
H1088 H 0.52363 0.09376 0.62185 0.0
H1089 H 0.5195 0.11666 0.60367 0.0
H1090 H 0.49596 0.08134 0.60159 0.0
H1091 H 0.6184 0.11435 0.55823 0.0
H1092 H 0.61726 0.14325 0.56851 0.0
H1093 H 0.61592 0.11926 0.58911 0.0
H1094 H 0.59697 0.19494 0.61793 0.0
H1095 H 0.59856 0.13614 0.66286 0.0
H1096 H 0.55344 0.15202 0.57627 0.0
H1097 H 0.58576 0.16057 0.56522 0.0
H1098 H 0.58101 0.18569 0.57958 0.0
H1099 H 0.55552 0.07979 0.63149 0.0
H1100 H 0.58429 0.09221 0.65046 0.0
H1101 H 0.58746 0.08856 0.61948 0.0
C1102 C 0.45938 0.51969 0.73299 0.0
C1103 C 0.47173 0.53567 0.71332 0.0
C1104 C 0.45699 0.53105 0.75391 0.0
C1105 C 0.46697 0.55898 0.75506 0.0
C1106 C 0.48157 0.57542 0.73597 0.0
C1107 C 0.48394 0.56357 0.71538 0.0
C1108 C 0.44173 0.51287 0.77404 0.0
C1109 C 0.4926 0.60528 0.73645 0.0
C1110 C 0.42648 0.58142 0.79097 0.0
C1111 C 0.44244 0.59222 0.81096 0.0
C1112 C 0.43439 0.57071 0.77271 0.0
C1113 C 0.4587 0.57035 0.77454 0.0
C1114 C 0.47485 0.58096 0.79471 0.0
C1115 C 0.46661 0.59192 0.81262 0.0
C1116 C 0.41662 0.55971 0.75141 0.0
C1117 C 0.50078 0.58072 0.79734 0.0
H1118 H 0.44979 0.49811 0.73155 0.0
H1119 H 0.49392 0.57605 0.70034 0.0
H1120 H 0.452 0.52153 0.79087 0.0
H1121 H 0.42151 0.51069 0.77502 0.0
H1122 H 0.43934 0.49264 0.772 0.0
H1123 H 0.50667 0.61558 0.72177 0.0
H1124 H 0.4758 0.60942 0.73511 0.0
H1125 H 0.50311 0.61398 0.75317 0.0
H1126 H 0.40752 0.58098 0.78968 0.0
H1127 H 0.47925 0.60047 0.82786 0.0
H1128 H 0.40998 0.53817 0.74929 0.0
H1129 H 0.428 0.57017 0.73547 0.0
H1130 H 0.39859 0.56193 0.75254 0.0
H1131 H 0.497 0.55995 0.79581 0.0
H1132 H 0.5107 0.58912 0.81438 0.0
H1133 H 0.51477 0.59252 0.78308 0.0
C1134 C 0.95478 0.45006 0.89546 0.0
C1135 C 0.9575 0.46828 0.87801 0.0
C1136 C 0.94008 0.44733 0.91584 0.0
C1137 C 0.92818 0.46347 0.91886 0.0
C1138 C 0.933 0.48358 0.90225 0.0
C1139 C 0.94743 0.48558 0.88188 0.0
C1140 C 0.93528 0.42554 0.93305 0.0
C1141 C 0.92118 0.50158 0.90507 0.0
C1142 C 0.86147 0.43161 0.95049 0.0
C1143 C 0.86895 0.44231 0.97306 0.0
C1144 C 0.88058 0.43845 0.93275 0.0
C1145 C 0.90786 0.45685 0.93752 0.0
C1146 C 0.91554 0.46831 0.96005 0.0
C1147 C 0.89603 0.46073 0.97761 0.0
C1148 C 0.87157 0.42568 0.90895 0.0
C1149 C 0.94437 0.48829 0.96566 0.0
H1150 H 0.96229 0.43646 0.89235 0.0
H1151 H 0.94958 0.49968 0.86834 0.0
H1152 H 0.93839 0.43319 0.95124 0.0
H1153 H 0.9142 0.40909 0.93161 0.0
H1154 H 0.94863 0.41715 0.9298 0.0
H1155 H 0.93031 0.51881 0.89281 0.0
H1156 H 0.89933 0.48997 0.9016 0.0
H1157 H 0.92393 0.50929 0.92322 0.0
H1158 H 0.84058 0.41781 0.94663 0.0
H1159 H 0.90216 0.46886 0.99505 0.0
H1160 H 0.88212 0.41464 0.90436 0.0
H1161 H 0.87682 0.44133 0.89545 0.0
H1162 H 0.84965 0.41154 0.90817 0.0
H1163 H 0.95675 0.47859 0.96413 0.0
H1164 H 0.9468 0.49663 0.98358 0.0
H1165 H 0.95234 0.50502 0.95292 0.0
C1166 C 0.51449 0.95771 0.06414 0.0
C1167 C 0.49862 0.95693 0.04526 0.0
C1168 C 0.50269 0.94395 0.08494 0.0
C1169 C 0.47441 0.92928 0.08686 0.0
C1170 C 0.45846 0.93072 0.06873 0.0
C1171 C 0.47078 0.94447 0.04807 0.0
C1172 C 0.52043 0.943 0.10389 0.0
C1173 C 0.42828 0.91575 0.07022 0.0
C1174 C 0.44569 0.86415 0.12056 0.0
C1175 C 0.43942 0.87112 0.14215 0.0
C1176 C 0.45678 0.88287 0.10241 0.0
C1177 C 0.46164 0.90924 0.10587 0.0
C1178 C 0.45486 0.9163 0.12745 0.0
C1179 C 0.44391 0.89716 0.1454 0.0
C1180 C 0.46382 0.87453 0.07967 0.0
C1181 C 0.45948 0.94411 0.13165 0.0
H1182 H 0.536 0.96715 0.06195 0.0
H1183 H 0.45852 0.94403 0.0335 0.0
H1184 H 0.51385 0.94577 0.12137 0.0
H1185 H 0.51894 0.92307 0.10376 0.0
H1186 H 0.54176 0.95851 0.10136 0.0
H1187 H 0.41915 0.92264 0.05679 0.0
H1188 H 0.42065 0.89408 0.06749 0.0
H1189 H 0.42154 0.91813 0.08777 0.0
H1190 H 0.44265 0.8442 0.11807 0.0
H1191 H 0.43885 0.90256 0.162 0.0
H1192 H 0.48563 0.88701 0.07633 0.0
H1193 H 0.45326 0.87779 0.06492 0.0
H1194 H 0.45844 0.85317 0.07971 0.0
H1195 H 0.48119 0.95887 0.13057 0.0
H1196 H 0.45199 0.94605 0.14902 0.0
H1197 H 0.44936 0.94943 0.1179 0.0
C1198 C 0.5847 0.52068 0.23424 0.0
C1199 C 0.5641 0.50568 0.21835 0.0
C1200 C 0.58758 0.50892 0.25468 0.0
C1201 C 0.56902 0.4817 0.25947 0.0
C1202 C 0.54654 0.46739 0.24467 0.0
C1203 C 0.54459 0.47944 0.224 0.0
C1204 C 0.61208 0.5248 0.26972 0.0
C1205 C 0.52581 0.43865 0.24957 0.0
C1206 C 0.5973 0.4421 0.28861 0.0
C1207 C 0.59096 0.44263 0.31223 0.0
C1208 C 0.59012 0.45461 0.27135 0.0
C1209 C 0.5754 0.46729 0.27765 0.0
C1210 C 0.56792 0.46701 0.30122 0.0
C1211 C 0.57615 0.4551 0.31828 0.0
C1212 C 0.59882 0.45473 0.2464 0.0
C1213 C 0.55163 0.47969 0.30849 0.0
H1214 H 0.60004 0.54082 0.22957 0.0
H1215 H 0.52884 0.46781 0.2115 0.0
H1216 H 0.60667 0.52234 0.28851 0.0
H1217 H 0.6262 0.51723 0.26702 0.0
H1218 H 0.62262 0.54647 0.26539 0.0
H1219 H 0.50723 0.43221 0.23926 0.0
H1220 H 0.53402 0.4255 0.24491 0.0
H1221 H 0.52062 0.43569 0.26843 0.0
H1222 H 0.60806 0.43198 0.28352 0.0
H1223 H 0.5714 0.45613 0.33643 0.0
H1224 H 0.61116 0.47564 0.24014 0.0
H1225 H 0.58104 0.44469 0.23484 0.0
H1226 H 0.61067 0.44447 0.2445 0.0
H1227 H 0.56371 0.50171 0.30633 0.0
H1228 H 0.54498 0.47526 0.32699 0.0
H1229 H 0.53371 0.47251 0.29714 0.0
C1230 C 0.46613 0.96214 0.42089 0.0
C1231 C 0.48045 0.96023 0.43987 0.0
C1232 C 0.46359 0.94824 0.40003 0.0
C1233 C 0.47573 0.9322 0.39824 0.0
C1234 C 0.49279 0.93281 0.41633 0.0
C1235 C 0.49495 0.94686 0.43698 0.0
C1236 C 0.4455 0.9484 0.38103 0.0
C1237 C 0.50643 0.91632 0.41501 0.0
C1238 C 0.43575 0.86614 0.36637 0.0
C1239 C 0.44921 0.87134 0.34494 0.0
C1240 C 0.44429 0.88582 0.38378 0.0
C1241 C 0.46689 0.91141 0.37969 0.0
C1242 C 0.48069 0.9168 0.35815 0.0
C1243 C 0.47169 0.89668 0.34101 0.0
C1244 C 0.42906 0.87918 0.4066 0.0
C1245 C 0.5048 0.94382 0.35318 0.0
H1246 H 0.45476 0.97232 0.4231 0.0
H1247 H 0.50617 0.94552 0.45163 0.0
H1248 H 0.45426 0.94965 0.3635 0.0
H1249 H 0.426 0.92946 0.38176 0.0
H1250 H 0.44167 0.96535 0.38308 0.0
H1251 H 0.52257 0.92268 0.42828 0.0
H1252 H 0.49144 0.89499 0.41817 0.0
H1253 H 0.51511 0.91774 0.39741 0.0
H1254 H 0.41863 0.8465 0.36964 0.0
H1255 H 0.48199 0.90095 0.32436 0.0
H1256 H 0.42132 0.89309 0.40955 0.0
H1257 H 0.44265 0.88178 0.42136 0.0
H1258 H 0.41192 0.85836 0.40698 0.0
H1259 H 0.49906 0.9595 0.35391 0.0
H1260 H 0.51368 0.94461 0.33575 0.0
H1261 H 0.52035 0.94879 0.36675 0.0
C1262 C 0.51796 0.46049 0.58873 0.0
C1263 C 0.53385 0.47645 0.60721 0.0
C1264 C 0.52976 0.45789 0.56817 0.0
C1265 C 0.55804 0.47181 0.56613 0.0
C1266 C 0.57389 0.4904 0.5836 0.0
C1267 C 0.56158 0.49238 0.60405 0.0
C1268 C 0.51211 0.43793 0.54994 0.0
C1269 C 0.60404 0.50607 0.58189 0.0
C1270 C 0.58794 0.43394 0.53661 0.0
C1271 C 0.59416 0.44551 0.51429 0.0
C1272 C 0.57631 0.44248 0.55356 0.0
C1273 C 0.57099 0.46335 0.5482 0.0
C1274 C 0.57771 0.47555 0.5259 0.0
C1275 C 0.5891 0.46639 0.50915 0.0
C1276 C 0.56949 0.42894 0.5772 0.0
C1277 C 0.57255 0.49798 0.51965 0.0
H1278 H 0.49654 0.44798 0.59124 0.0
H1279 H 0.57384 0.50475 0.61838 0.0
H1280 H 0.51876 0.44597 0.53207 0.0
H1281 H 0.51353 0.41952 0.55156 0.0
H1282 H 0.49078 0.43236 0.55204 0.0
H1283 H 0.61289 0.52314 0.59433 0.0
H1284 H 0.61218 0.49271 0.58601 0.0
H1285 H 0.61052 0.51381 0.5639 0.0
H1286 H 0.59223 0.41817 0.54089 0.0
H1287 H 0.59353 0.47524 0.49186 0.0
H1288 H 0.54773 0.41998 0.58063 0.0
H1289 H 0.58029 0.44387 0.59115 0.0
H1290 H 0.57478 0.41293 0.5785 0.0
H1291 H 0.55071 0.49055 0.5199 0.0
H1292 H 0.58046 0.50647 0.50208 0.0
H1293 H 0.5819 0.51425 0.5328 0.0
C1294 C 0.07985 0.53604 0.7634 0.0
C1295 C 0.09286 0.52934 0.78056 0.0
C1296 C 0.09289 0.54809 0.7423 0.0
C1297 C 0.11935 0.5533 0.73837 0.0
C1298 C 0.13228 0.54609 0.75552 0.0
C1299 C 0.11885 0.53412 0.77628 0.0
C1300 C 0.07853 0.55548 0.72433 0.0
C1301 C 0.1604 0.55107 0.75201 0.0
C1302 C 0.15108 0.56212 0.67873 0.0
C1303 C 0.1692 0.58974 0.67838 0.0
C1304 C 0.13339 0.55016 0.6975 0.0
C1305 C 0.13393 0.5662 0.71644 0.0
C1306 C 0.15121 0.59428 0.71563 0.0
C1307 C 0.16865 0.60573 0.69658 0.0
C1308 C 0.11518 0.52018 0.69764 0.0
C1309 C 0.15245 0.61204 0.73553 0.0
H1310 H 0.05975 0.53229 0.76667 0.0
H1311 H 0.12874 0.52836 0.78926 0.0
H1312 H 0.08978 0.5774 0.72129 0.0
H1313 H 0.07765 0.54571 0.70739 0.0
H1314 H 0.05781 0.54956 0.7298 0.0
H1315 H 0.16759 0.54436 0.76717 0.0
H1316 H 0.16119 0.5404 0.73617 0.0
H1317 H 0.17442 0.57272 0.74921 0.0
H1318 H 0.15105 0.54975 0.66445 0.0
H1319 H 0.18266 0.62707 0.69643 0.0
H1320 H 0.09446 0.51495 0.70234 0.0
H1321 H 0.12217 0.51117 0.71107 0.0
H1322 H 0.11478 0.51103 0.68045 0.0
H1323 H 0.13201 0.60741 0.74061 0.0
H1324 H 0.16443 0.63361 0.73099 0.0
H1325 H 0.16167 0.60826 0.75102 0.0
C1326 C 0.54663 0.09347 0.93843 0.0
C1327 C 0.56183 0.08084 0.94128 0.0
C1328 C 0.54873 0.10787 0.91801 0.0
C1329 C 0.56669 0.10987 0.9002 0.0
C1330 C 0.5804 0.09533 0.90221 0.0
C1331 C 0.57771 0.08086 0.92274 0.0
C1332 C 0.53339 0.12268 0.91636 0.0
C1333 C 0.59977 0.09696 0.88365 0.0
C1334 C 0.56874 0.14201 0.84157 0.0
C1335 C 0.58984 0.16824 0.84509 0.0
C1336 C 0.56056 0.12281 0.85946 0.0
C1337 C 0.57402 0.12999 0.88124 0.0
C1338 C 0.59514 0.15652 0.88492 0.0
C1339 C 0.60271 0.17533 0.86684 0.0
C1340 C 0.53773 0.09484 0.85502 0.0
C1341 C 0.61015 0.16495 0.90785 0.0
H1342 H 0.53423 0.09334 0.95274 0.0
H1343 H 0.58969 0.07134 0.92499 0.0
H1344 H 0.54729 0.14435 0.91918 0.0
H1345 H 0.52445 0.1203 0.89872 0.0
H1346 H 0.51719 0.11563 0.92963 0.0
H1347 H 0.60602 0.08179 0.88632 0.0
H1348 H 0.59078 0.09415 0.866 0.0
H1349 H 0.61792 0.11712 0.88407 0.0
H1350 H 0.55859 0.13654 0.82482 0.0
H1351 H 0.61924 0.19547 0.86953 0.0
H1352 H 0.52195 0.08931 0.86847 0.0
H1353 H 0.54494 0.08033 0.85645 0.0
H1354 H 0.52865 0.09277 0.83746 0.0
H1355 H 0.59605 0.16146 0.9224 0.0
H1356 H 0.62596 0.18639 0.90794 0.0
H1357 H 0.61966 0.15268 0.91141 0.0
C1358 C 0.47134 0.54091 0.10586 0.0
C1359 C 0.49937 0.55463 0.10748 0.0
C1360 C 0.45853 0.5419 0.08534 0.0
C1361 C 0.47419 0.55674 0.06597 0.0
C1362 C 0.50233 0.56774 0.06656 0.0
C1363 C 0.51464 0.5666 0.08739 0.0
C1364 C 0.42848 0.52967 0.08544 0.0
C1365 C 0.51973 0.58327 0.04613 0.0
C1366 C 0.43937 0.55766 0.00964 0.0
C1367 C 0.43838 0.58136 0.01231 0.0
C1368 C 0.45109 0.54934 0.02683 0.0
C1369 C 0.46185 0.56496 0.04724 0.0
C1370 C 0.4608 0.5888 0.05008 0.0
C1371 C 0.44926 0.59676 0.03256 0.0
C1372 C 0.45198 0.5239 0.02317 0.0
C1373 C 0.47199 0.60606 0.07164 0.0
H1374 H 0.45948 0.53134 0.12131 0.0
H1375 H 0.53631 0.57729 0.08852 0.0
H1376 H 0.42344 0.54573 0.08787 0.0
H1377 H 0.4197 0.51968 0.06855 0.0
H1378 H 0.41898 0.5149 0.09979 0.0
H1379 H 0.54014 0.58592 0.04752 0.0
H1380 H 0.51062 0.57312 0.02937 0.0
H1381 H 0.52164 0.60337 0.04562 0.0
H1382 H 0.43078 0.54546 0.99418 0.0
H1383 H 0.44915 0.61537 0.0346 0.0
H1384 H 0.4408 0.50944 0.03734 0.0
H1385 H 0.47298 0.52818 0.02402 0.0
H1386 H 0.44326 0.51432 0.00609 0.0
H1387 H 0.46208 0.59416 0.08752 0.0
H1388 H 0.4692 0.62376 0.0713 0.0
H1389 H 0.49371 0.61316 0.07322 0.0
C1390 C 0.96101 0.51836 0.25326 0.0
C1391 C 0.96232 0.50303 0.27164 0.0
C1392 C 0.94639 0.50605 0.23292 0.0
C1393 C 0.93315 0.47781 0.23092 0.0
C1394 C 0.93706 0.46262 0.2483 0.0
C1395 C 0.95143 0.47542 0.26861 0.0
C1396 C 0.94269 0.52301 0.21487 0.0
C1397 C 0.9239 0.43258 0.24657 0.0
C1398 C 0.86524 0.44513 0.20122 0.0
C1399 C 0.87125 0.44003 0.17871 0.0
C1400 C 0.88521 0.45724 0.21832 0.0
C1401 C 0.91188 0.46407 0.21296 0.0
C1402 C 0.91804 0.45834 0.19053 0.0
C1403 C 0.89771 0.4466 0.1736 0.0
C1404 C 0.87779 0.46307 0.24206 0.0
C1405 C 0.94614 0.465 0.1843 0.0
H1406 H 0.96915 0.53968 0.25572 0.0
H1407 H 0.95242 0.46359 0.2829 0.0
H1408 H 0.94457 0.51685 0.19693 0.0
H1409 H 0.92225 0.52019 0.21655 0.0
H1410 H 0.95744 0.54462 0.21707 0.0
H1411 H 0.93293 0.42445 0.25892 0.0
H1412 H 0.90229 0.42346 0.25078 0.0
H1413 H 0.92547 0.42639 0.22854 0.0
H1414 H 0.84483 0.43966 0.20553 0.0
H1415 H 0.90271 0.44312 0.15619 0.0
H1416 H 0.88967 0.48483 0.24577 0.0
H1417 H 0.88262 0.45263 0.25586 0.0
H1418 H 0.85619 0.45669 0.24334 0.0
H1419 H 0.95965 0.487 0.18454 0.0
H1420 H 0.94722 0.45738 0.16673 0.0
H1421 H 0.95384 0.45637 0.19745 0.0
loop_
_geom_bond_atom_site_label_1
_geom_bond_atom_site_label_2
_geom_bond_distance
_geom_bond_site_symmetry_2
_ccdc_geom_bond_type
H0 C8 0.930 . S
H1 C11 0.933 1_455 S
H2 C13 0.930 . S
H3 C14 0.970 . S
H4 C14 0.970 . S
H5 C16 0.930 . S
H6 C18 0.930 . S
H7 C20 0.930 . S
C8 H0 0.930 . S
C8 C9 1.382 . S
C8 C10 1.426 . S
C9 C8 1.382 . S
C9 C13 1.389 . S
C10 C8 1.426 . S
C10 C11 1.375 . S
C10 C14 1.532 1_655 S
C11 H1 0.933 1_655 S
C11 C10 1.375 . S
C11 C12 1.416 . S
C12 C11 1.416 . S
C12 C13 1.371 . S
C13 H2 0.930 . S
C13 C9 1.389 . S
C13 C12 1.371 . S
C14 H3 0.970 . S
C14 H4 0.970 . S
C14 C10 1.532 1_455 S
C14 C15 1.499 . S
C15 C14 1.499 . S
C15 C16 1.370 . S
C15 C20 1.415 . S
C16 H5 0.930 . S
C16 C15 1.370 . S
C16 C17 1.407 . S
C17 C16 1.407 . S
C17 C18 1.365 . S
C18 H6 0.930 . S
C18 C17 1.365 . S
C18 C19 1.393 . S
C19 C18 1.393 . S
C19 C20 1.387 . S
C20 H7 0.930 . S
C20 C15 1.415 . S
C20 C19 1.387 . S
H21 C29 0.930 . S
H22 C32 0.928 . S
H23 C34 0.930 . S
H24 C35 0.970 . S
H25 C35 0.970 . S
H26 C37 0.930 . S
H27 C39 0.930 . S
H28 C41 0.930 . S
C29 H21 0.930 . S
C29 C30 1.382 . S
C29 C31 1.426 . S
C30 C29 1.382 . S
C30 C34 1.389 . S
C31 C29 1.426 . S
C31 C32 1.375 . S
C31 C35 1.532 1_565 S
C32 H22 0.928 . S
C32 C31 1.375 . S
C32 C33 1.416 . S
C33 C32 1.416 . S
C33 C34 1.371 . S
C34 H23 0.930 . S
C34 C30 1.389 . S
C34 C33 1.371 . S
C35 H24 0.970 . S
C35 H25 0.970 . S
C35 C31 1.532 1_545 S
C35 C36 1.499 . S
C36 C35 1.499 . S
C36 C37 1.370 . S
C36 C41 1.415 . S
C37 H26 0.930 . S
C37 C36 1.370 . S
C37 C38 1.407 . S
C38 C37 1.407 . S
C38 C39 1.365 . S
C39 H27 0.930 . S
C39 C38 1.365 . S
C39 C40 1.393 . S
C40 C39 1.393 . S
C40 C41 1.387 . S
C41 H28 0.930 . S
C41 C36 1.415 . S
C41 C40 1.387 . S
H42 C50 0.930 . S
H43 C53 0.930 . S
H44 C55 0.930 . S
H45 C56 0.970 . S
H46 C56 0.970 . S
H47 C58 0.930 . S
H48 C60 0.930 . S
H49 C62 0.930 . S
C50 H42 0.930 . S
C50 C51 1.382 . S
C50 C52 1.426 . S
C51 C50 1.382 . S
C51 C55 1.389 . S
C52 C50 1.426 . S
C52 C53 1.375 . S
C52 C56 1.532 . S
C53 H43 0.930 . S
C53 C52 1.375 . S
C53 C54 1.416 . S
C54 C53 1.416 . S
C54 C55 1.371 . S
C55 H44 0.930 . S
C55 C51 1.389 . S
C55 C54 1.371 . S
C56 H45 0.970 . S
C56 H46 0.970 . S
C56 C52 1.532 . S
C56 C57 1.499 . S
C57 C56 1.499 . S
C57 C58 1.370 . S
C57 C62 1.415 . S
C58 H47 0.930 . S
C58 C57 1.370 . S
C58 C59 1.407 . S
C59 C58 1.407 . S
C59 C60 1.365 . S
C60 H48 0.930 . S
C60 C59 1.365 . S
C60 C61 1.393 . S
C61 C60 1.393 . S
C61 C62 1.387 . S
C62 H49 0.930 . S
C62 C57 1.415 . S
C62 C61 1.387 . S
H63 C71 0.930 . S
H64 C74 0.933 1_455 S
H65 C76 0.930 . S
H66 C77 0.970 . S
H67 C77 0.970 . S
H68 C79 0.930 . S
H69 C81 0.930 . S
H70 C83 0.930 . S
C71 H63 0.930 . S
C71 C72 1.382 . S
C71 C73 1.426 . S
C72 C71 1.382 . S
C72 C76 1.389 . S
C73 C71 1.426 . S
C73 C74 1.375 . S
C73 C77 1.532 1_655 S
C74 H64 0.933 1_655 S
C74 C73 1.375 . S
C74 C75 1.416 . S
C75 C74 1.416 . S
C75 C76 1.371 . S
C76 H65 0.930 . S
C76 C72 1.389 . S
C76 C75 1.371 . S
C77 H66 0.970 . S
C77 H67 0.970 . S
C77 C73 1.532 1_455 S
C77 C78 1.499 . S
C78 C77 1.499 . S
C78 C79 1.370 . S
C78 C83 1.415 . S
C79 H68 0.930 . S
C79 C78 1.370 . S
C79 C80 1.407 . S
C80 C79 1.407 . S
C80 C81 1.365 . S
C81 H69 0.930 . S
C81 C80 1.365 . S
C81 C82 1.393 . S
C82 C81 1.393 . S
C82 C83 1.387 . S
C83 H70 0.930 . S
C83 C78 1.415 . S
C83 C82 1.387 . S
H84 C92 0.930 . S
H85 C95 0.930 . S
H86 C97 0.930 . S
H87 C98 0.970 1_554 S
H88 C98 0.970 . S
H89 C100 0.935 . S
H90 C102 0.930 . S
H91 C104 0.930 . S
C92 H84 0.930 . S
C92 C93 1.386 . S
C92 C94 1.426 1_554 S
C93 C92 1.386 . S
C93 C97 1.373 1_554 S
C94 C92 1.426 1_556 S
C94 C95 1.375 . S
C94 C98 1.532 . S
C95 H85 0.930 . S
C95 C94 1.375 . S
C95 C96 1.416 . S
C96 C95 1.416 . S
C96 C97 1.371 . S
C97 H86 0.930 . S
C97 C93 1.373 1_556 S
C97 C96 1.371 . S
C98 H87 0.970 1_556 S
C98 H88 0.970 . S
C98 C94 1.532 . S
C98 C99 1.490 1_546 S
C99 C98 1.490 1_564 S
C99 C100 1.413 . S
C99 C104 1.384 1_554 S
C100 H89 0.935 . S
C100 C99 1.413 . S
C100 C101 1.407 . S
C101 C100 1.407 . S
C101 C102 1.365 . S
C102 H90 0.930 . S
C102 C101 1.365 . S
C102 C103 1.393 1_554 S
C103 C102 1.393 1_556 S
C103 C104 1.387 . S
C104 H91 0.930 . S
C104 C99 1.384 1_556 S
C104 C103 1.387 . S
H105 C113 0.930 . S
H106 C116 0.930 . S
H107 C118 0.930 . S
H108 C119 0.970 . S
H109 C119 0.970 . S
H110 C121 0.930 . S
H111 C123 0.930 . S
H112 C125 0.930 . S
C113 H105 0.930 . S
C113 C114 1.382 . S
C113 C115 1.426 . S
C114 C113 1.382 . S
C114 C118 1.389 . S
C115 C113 1.426 . S
C115 C116 1.375 . S
C115 C119 1.532 . S
C116 H106 0.930 . S
C116 C115 1.375 . S
C116 C117 1.416 . S
C117 C116 1.416 . S
C117 C118 1.371 . S
C118 H107 0.930 . S
C118 C114 1.389 . S
C118 C117 1.371 . S
C119 H108 0.970 . S
C119 H109 0.970 . S
C119 C115 1.532 . S
C119 C120 1.499 . S
C120 C119 1.499 . S
C120 C121 1.370 . S
C120 C125 1.415 . S
C121 H110 0.930 . S
C121 C120 1.370 . S
C121 C122 1.407 . S
C122 C121 1.407 . S
C122 C123 1.365 . S
C123 H111 0.930 . S
C123 C122 1.365 . S
C123 C124 1.393 . S
C124 C123 1.393 . S
C124 C125 1.387 . S
C125 H112 0.930 . S
C125 C120 1.415 . S
C125 C124 1.387 . S
Li126 N143 1.990 . S
Li126 O186 1.956 . S
Li126 O187 1.970 . S
Li126 O188 1.961 . S
Li127 N151 1.990 . S
Li127 O186 1.970 . S
Li127 O187 1.956 . S
Li127 O189 1.961 . S
Li128 N173 1.990 . S
Li128 O186 1.961 . S
Li128 O188 1.956 . S
Li128 O189 1.970 . S
Li129 N179 1.990 . S
Li129 O187 1.961 . S
Li129 O188 1.970 . S
Li129 O189 1.956 . S
C130 C132 1.348 . S
C130 C133 1.356 . S
C130 O186 1.325 . S
N131 C134 1.314 . S
N131 C135 1.279 . S
C132 C130 1.348 . S
C132 C134 1.353 . S
C132 H190 0.929 . S
C133 C130 1.356 . S
C133 C135 1.358 . S
C133 H191 0.930 . S
C134 N131 1.314 . S
C134 C132 1.353 . S
C134 H192 0.930 . S
C135 N131 1.279 . S
C135 C133 1.358 . S
C135 H193 0.930 . S
C136 C139 1.348 . S
C136 C140 1.356 . S
C136 O187 1.325 . S
C137 N138 1.279 . S
C137 C140 1.358 . S
C137 H194 0.930 . S
N138 C137 1.279 . S
N138 C141 1.314 . S
C139 C136 1.348 . S
C139 C141 1.353 . S
C139 H195 0.929 . S
C140 C136 1.356 . S
C140 C137 1.358 . S
C140 H196 0.930 . S
C141 N138 1.314 . S
C141 C139 1.353 . S
C141 H197 0.930 . S
C142 N143 1.314 . S
C142 C147 1.353 . S
C142 H148 0.930 . S
N143 Li126 1.990 . S
N143 C142 1.314 . S
N143 C145 1.279 . S
C144 C145 1.358 . S
C144 C146 1.356 . S
C144 H198 0.930 . S
C145 N143 1.279 . S
C145 C144 1.358 . S
C145 H149 0.930 . S
C146 C144 1.356 . S
C146 C147 1.348 . S
C147 C142 1.353 . S
C147 C146 1.348 . S
C147 H199 0.929 . S
H148 C142 0.930 . S
H149 C145 0.930 . S
C150 N151 1.314 . S
C150 C152 1.353 . S
C150 H156 0.930 . S
N151 Li127 1.990 . S
N151 C150 1.314 . S
N151 C154 1.279 . S
C152 C150 1.353 . S
C152 C155 1.348 . S
C152 H200 0.929 . S
C153 C154 1.358 . S
C153 C155 1.356 . S
C153 H201 0.930 . S
C154 N151 1.279 . S
C154 C153 1.358 . S
C154 H157 0.930 . S
C155 C152 1.348 . S
C155 C153 1.356 . S
H156 C150 0.930 . S
H157 C154 0.930 . S
C158 C160 1.348 . S
C158 C161 1.356 . S
C158 O188 1.325 . S
N159 C162 1.314 . S
N159 C163 1.279 . S
C160 C158 1.348 . S
C160 C162 1.353 . S
C160 H202 0.929 . S
C161 C158 1.356 . S
C161 C163 1.358 . S
C161 H203 0.930 . S
C162 N159 1.314 . S
C162 C160 1.353 . S
C162 H204 0.930 . S
C163 N159 1.279 . S
C163 C161 1.358 . S
C163 H205 0.930 . S
C164 C165 1.348 . S
C164 C166 1.356 . S
C164 O189 1.325 . S
C165 C164 1.348 . S
C165 C167 1.353 . S
C165 H206 0.929 . S
C166 C164 1.356 . S
C166 C168 1.358 . S
C166 H207 0.930 . S
C167 C165 1.353 . S
C167 N169 1.314 . S
C167 H208 0.930 . S
C168 C166 1.358 . S
C168 N169 1.279 . S
C168 H209 0.930 . S
N169 C167 1.314 . S
N169 C168 1.279 . S
C170 C172 1.353 . S
C170 N173 1.314 . S
C170 H176 0.930 . S
C171 N173 1.279 . S
C171 C174 1.358 . S
C171 H177 0.930 . S
C172 C170 1.353 . S
C172 C175 1.348 . S
C172 H210 0.929 . S
N173 Li128 1.990 . S
N173 C170 1.314 . S
N173 C171 1.279 . S
C174 C171 1.358 . S
C174 C175 1.356 . S
C174 H211 0.930 . S
C175 C172 1.348 . S
C175 C174 1.356 . S
H176 C170 0.930 . S
H177 C171 0.930 . S
C178 N179 1.314 . S
C178 C180 1.353 . S
C178 H184 0.930 . S
N179 Li129 1.990 . S
N179 C178 1.314 . S
N179 C182 1.279 . S
C180 C178 1.353 . S
C180 C183 1.348 . S
C180 H212 0.929 . S
C181 C182 1.358 . S
C181 C183 1.356 . S
C181 H213 0.930 . S
C182 N179 1.279 . S
C182 C181 1.358 . S
C182 H185 0.930 . S
C183 C180 1.348 . S
C183 C181 1.356 . S
H184 C178 0.930 . S
H185 C182 0.930 . S
O186 Li126 1.956 . S
O186 Li127 1.970 . S
O186 Li128 1.961 . S
O186 C130 1.325 . S
O187 Li126 1.970 . S
O187 Li127 1.956 . S
O187 Li129 1.961 . S
O187 C136 1.325 . S
O188 Li126 1.961 . S
O188 Li128 1.956 . S
O188 Li129 1.970 . S
O188 C158 1.325 . S
O189 Li127 1.961 . S
O189 Li128 1.970 . S
O189 Li129 1.956 . S
O189 C164 1.325 . S
H190 C132 0.929 . S
H191 C133 0.930 . S
H192 C134 0.930 . S
H193 C135 0.930 . S
H194 C137 0.930 . S
H195 C139 0.929 . S
H196 C140 0.930 . S
H197 C141 0.930 . S
H198 C144 0.930 . S
H199 C147 0.929 . S
H200 C152 0.929 . S
H201 C153 0.930 . S
H202 C160 0.929 . S
H203 C161 0.930 . S
H204 C162 0.930 . S
H205 C163 0.930 . S
H206 C165 0.929 . S
H207 C166 0.930 . S
H208 C167 0.930 . S
H209 C168 0.930 . S
H210 C172 0.929 . S
H211 C174 0.930 . S
H212 C180 0.929 . S
H213 C181 0.930 . S
Li214 N231 1.990 . S
Li214 O274 1.956 . S
Li214 O275 1.970 . S
Li214 O276 1.961 . S
Li215 N239 1.990 . S
Li215 O274 1.970 . S
Li215 O275 1.956 . S
Li215 O277 1.961 . S
Li216 N261 1.990 . S
Li216 O274 1.961 . S
Li216 O276 1.956 . S
Li216 O277 1.970 . S
Li217 N267 1.990 . S
Li217 O275 1.961 . S
Li217 O276 1.970 . S
Li217 O277 1.956 . S
C218 C220 1.348 . S
C218 C221 1.356 . S
C218 O274 1.325 . S
N219 C222 1.314 . S
N219 C223 1.279 . S
C220 C218 1.348 . S
C220 C222 1.353 . S
C220 H278 0.929 . S
C221 C218 1.356 . S
C221 C223 1.358 . S
C221 H279 0.930 . S
C222 N219 1.314 . S
C222 C220 1.353 . S
C222 H280 0.930 . S
C223 N219 1.279 . S
C223 C221 1.358 . S
C223 H281 0.930 . S
C224 C227 1.348 . S
C224 C228 1.356 . S
C224 O275 1.325 . S
C225 N226 1.279 . S
C225 C228 1.358 . S
C225 H282 0.930 . S
N226 C225 1.279 . S
N226 C229 1.314 . S
C227 C224 1.348 . S
C227 C229 1.353 . S
C227 H283 0.929 . S
C228 C224 1.356 . S
C228 C225 1.358 . S
C228 H284 0.930 . S
C229 N226 1.314 . S
C229 C227 1.353 . S
C229 H285 0.930 . S
C230 N231 1.314 . S
C230 C235 1.353 . S
C230 H236 0.930 . S
N231 Li214 1.990 . S
N231 C230 1.314 . S
N231 C233 1.279 . S
C232 C233 1.358 . S
C232 C234 1.356 . S
C232 H286 0.930 . S
C233 N231 1.279 . S
C233 C232 1.358 . S
C233 H237 0.930 . S
C234 C232 1.356 . S
C234 C235 1.348 . S
C235 C230 1.353 . S
C235 C234 1.348 . S
C235 H287 0.929 . S
H236 C230 0.930 . S
H237 C233 0.930 . S
C238 N239 1.314 . S
C238 C240 1.353 . S
C238 H244 0.930 . S
N239 Li215 1.990 . S
N239 C238 1.314 . S
N239 C242 1.279 . S
C240 C238 1.353 . S
C240 C243 1.348 . S
C240 H288 0.929 . S
C241 C242 1.358 . S
C241 C243 1.356 . S
C241 H289 0.930 . S
C242 N239 1.279 . S
C242 C241 1.358 . S
C242 H245 0.930 . S
C243 C240 1.348 . S
C243 C241 1.356 . S
H244 C238 0.930 . S
H245 C242 0.930 . S
C246 C248 1.348 . S
C246 C249 1.356 . S
C246 O276 1.325 . S
N247 C250 1.314 . S
N247 C251 1.279 . S
C248 C246 1.348 . S
C248 C250 1.353 . S
C248 H290 0.929 . S
C249 C246 1.356 . S
C249 C251 1.358 . S
C249 H291 0.930 . S
C250 N247 1.314 . S
C250 C248 1.353 . S
C250 H292 0.930 . S
C251 N247 1.279 . S
C251 C249 1.358 . S
C251 H293 0.930 . S
C252 C253 1.348 . S
C252 C254 1.356 . S
C252 O277 1.325 . S
C253 C252 1.348 . S
C253 C255 1.353 . S
C253 H294 0.929 . S
C254 C252 1.356 . S
C254 C256 1.358 . S
C254 H295 0.930 . S
C255 C253 1.353 . S
C255 N257 1.314 . S
C255 H296 0.930 . S
C256 C254 1.358 . S
C256 N257 1.279 . S
C256 H297 0.930 . S
N257 C255 1.314 . S
N257 C256 1.279 . S
C258 C260 1.353 . S
C258 N261 1.314 . S
C258 H264 0.930 . S
C259 N261 1.279 . S
C259 C262 1.358 . S
C259 H265 0.930 . S
C260 C258 1.353 . S
C260 C263 1.348 . S
C260 H298 0.929 . S
N261 Li216 1.990 . S
N261 C258 1.314 . S
N261 C259 1.279 . S
C262 C259 1.358 . S
C262 C263 1.356 . S
C262 H299 0.930 . S
C263 C260 1.348 . S
C263 C262 1.356 . S
H264 C258 0.930 . S
H265 C259 0.930 . S
C266 N267 1.314 . S
C266 C268 1.353 . S
C266 H272 0.930 . S
N267 Li217 1.990 . S
N267 C266 1.314 . S
N267 C270 1.279 . S
C268 C266 1.353 . S
C268 C271 1.348 . S
C268 H300 0.929 . S
C269 C270 1.358 . S
C269 C271 1.356 . S
C269 H301 0.930 . S
C270 N267 1.279 . S
C270 C269 1.358 . S
C270 H273 0.930 . S
C271 C268 1.348 . S
C271 C269 1.356 . S
H272 C266 0.930 . S
H273 C270 0.930 . S
O274 Li214 1.956 . S
O274 Li215 1.970 . S
O274 Li216 1.961 . S
O274 C218 1.325 . S
O275 Li214 1.970 . S
O275 Li215 1.956 . S
O275 Li217 1.961 . S
O275 C224 1.325 . S
O276 Li214 1.961 . S
O276 Li216 1.956 . S
O276 Li217 1.970 . S
O276 C246 1.325 . S
O277 Li215 1.961 . S
O277 Li216 1.970 . S
O277 Li217 1.956 . S
O277 C252 1.325 . S
H278 C220 0.929 . S
H279 C221 0.930 . S
H280 C222 0.930 . S
H281 C223 0.930 . S
H282 C225 0.930 . S
H283 C227 0.929 . S
H284 C228 0.930 . S
H285 C229 0.930 . S
H286 C232 0.930 . S
H287 C235 0.929 . S
H288 C240 0.929 . S
H289 C241 0.930 . S
H290 C248 0.929 . S
H291 C249 0.930 . S
H292 C250 0.930 . S
H293 C251 0.930 . S
H294 C253 0.929 . S
H295 C254 0.930 . S
H296 C255 0.930 . S
H297 C256 0.930 . S
H298 C260 0.929 . S
H299 C262 0.930 . S
H300 C268 0.929 . S
H301 C269 0.930 . S
Li302 N319 1.990 . S
Li302 O362 1.956 . S
Li302 O363 1.970 . S
Li302 O364 1.961 . S
Li303 N327 1.990 . S
Li303 O362 1.970 . S
Li303 O363 1.956 . S
Li303 O365 1.961 . S
Li304 N349 1.990 . S
Li304 O362 1.961 . S
Li304 O364 1.956 . S
Li304 O365 1.970 . S
Li305 N355 1.990 . S
Li305 O363 1.961 . S
Li305 O364 1.970 . S
Li305 O365 1.956 . S
C306 C308 1.348 . S
C306 C309 1.356 . S
C306 O362 1.325 . S
N307 C310 1.314 . S
N307 C311 1.279 . S
C308 C306 1.348 . S
C308 C310 1.353 . S
C308 H366 0.929 . S
C309 C306 1.356 . S
C309 C311 1.358 . S
C309 H367 0.930 . S
C310 N307 1.314 . S
C310 C308 1.353 . S
C310 H368 0.930 . S
C311 N307 1.279 . S
C311 C309 1.358 . S
C311 H369 0.930 . S
C312 C315 1.348 . S
C312 C316 1.356 . S
C312 O363 1.325 . S
C313 N314 1.279 . S
C313 C316 1.358 . S
C313 H370 0.930 . S
N314 C313 1.279 . S
N314 C317 1.314 . S
C315 C312 1.348 . S
C315 C317 1.353 . S
C315 H371 0.929 . S
C316 C312 1.356 . S
C316 C313 1.358 . S
C316 H372 0.930 . S
C317 N314 1.314 . S
C317 C315 1.353 . S
C317 H373 0.930 . S
C318 N319 1.314 . S
C318 C323 1.353 . S
C318 H324 0.930 . S
N319 Li302 1.990 . S
N319 C318 1.314 . S
N319 C321 1.279 . S
C320 C321 1.358 . S
C320 C322 1.356 . S
C320 H374 0.930 . S
C321 N319 1.279 . S
C321 C320 1.358 . S
C321 H325 0.930 . S
C322 C320 1.356 . S
C322 C323 1.348 . S
C323 C318 1.353 . S
C323 C322 1.348 . S
C323 H375 0.929 . S
H324 C318 0.930 . S
H325 C321 0.930 . S
C326 N327 1.314 . S
C326 C328 1.353 . S
C326 H332 0.930 . S
N327 Li303 1.990 . S
N327 C326 1.314 . S
N327 C330 1.279 . S
C328 C326 1.353 . S
C328 C331 1.348 . S
C328 H376 0.929 . S
C329 C330 1.358 . S
C329 C331 1.356 . S
C329 H377 0.930 . S
C330 N327 1.279 . S
C330 C329 1.358 . S
C330 H333 0.930 . S
C331 C328 1.348 . S
C331 C329 1.356 . S
H332 C326 0.930 . S
H333 C330 0.930 . S
C334 C336 1.348 . S
C334 C337 1.356 . S
C334 O364 1.325 . S
N335 C338 1.314 . S
N335 C339 1.279 . S
C336 C334 1.348 . S
C336 C338 1.353 . S
C336 H378 0.929 . S
C337 C334 1.356 . S
C337 C339 1.358 . S
C337 H379 0.930 . S
C338 N335 1.314 . S
C338 C336 1.353 . S
C338 H380 0.930 . S
C339 N335 1.279 . S
C339 C337 1.358 . S
C339 H381 0.930 . S
C340 C341 1.348 . S
C340 C342 1.356 . S
C340 O365 1.325 . S
C341 C340 1.348 . S
C341 C343 1.353 . S
C341 H382 0.929 . S
C342 C340 1.356 . S
C342 C344 1.358 . S
C342 H383 0.930 . S
C343 C341 1.353 . S
C343 N345 1.314 . S
C343 H384 0.930 . S
C344 C342 1.358 . S
C344 N345 1.279 . S
C344 H385 0.930 . S
N345 C343 1.314 . S
N345 C344 1.279 . S
C346 C348 1.353 . S
C346 N349 1.314 . S
C346 H352 0.930 . S
C347 N349 1.279 . S
C347 C350 1.358 . S
C347 H353 0.930 . S
C348 C346 1.353 . S
C348 C351 1.348 . S
C348 H386 0.929 . S
N349 Li304 1.990 . S
N349 C346 1.314 . S
N349 C347 1.279 . S
C350 C347 1.358 . S
C350 C351 1.356 . S
C350 H387 0.930 . S
C351 C348 1.348 . S
C351 C350 1.356 . S
H352 C346 0.930 . S
H353 C347 0.930 . S
C354 N355 1.314 . S
C354 C356 1.353 . S
C354 H360 0.930 . S
N355 Li305 1.990 . S
N355 C354 1.314 . S
N355 C358 1.279 . S
C356 C354 1.353 . S
C356 C359 1.348 . S
C356 H388 0.929 . S
C357 C358 1.358 . S
C357 C359 1.356 . S
C357 H389 0.930 . S
C358 N355 1.279 . S
C358 C357 1.358 . S
C358 H361 0.930 . S
C359 C356 1.348 . S
C359 C357 1.356 . S
H360 C354 0.930 . S
H361 C358 0.930 . S
O362 Li302 1.956 . S
O362 Li303 1.970 . S
O362 Li304 1.961 . S
O362 C306 1.325 . S
O363 Li302 1.970 . S
O363 Li303 1.956 . S
O363 Li305 1.961 . S
O363 C312 1.325 . S
O364 Li302 1.961 . S
O364 Li304 1.956 . S
O364 Li305 1.970 . S
O364 C334 1.325 . S
O365 Li303 1.961 . S
O365 Li304 1.970 . S
O365 Li305 1.956 . S
O365 C340 1.325 . S
H366 C308 0.929 . S
H367 C309 0.930 . S
H368 C310 0.930 . S
H369 C311 0.930 . S
H370 C313 0.930 . S
H371 C315 0.929 . S
H372 C316 0.930 . S
H373 C317 0.930 . S
H374 C320 0.930 . S
H375 C323 0.929 . S
H376 C328 0.929 . S
H377 C329 0.930 . S
H378 C336 0.929 . S
H379 C337 0.930 . S
H380 C338 0.930 . S
H381 C339 0.930 . S
H382 C341 0.929 . S
H383 C342 0.930 . S
H384 C343 0.930 . S
H385 C344 0.930 . S
H386 C348 0.929 . S
H387 C350 0.930 . S
H388 C356 0.929 . S
H389 C357 0.930 . S
Li390 N407 1.990 . S
Li390 O450 1.956 . S
Li390 O451 1.970 . S
Li390 O452 1.961 . S
Li391 N415 1.990 . S
Li391 O450 1.970 . S
Li391 O451 1.956 . S
Li391 O453 1.961 . S
Li392 N437 1.990 . S
Li392 O450 1.961 . S
Li392 O452 1.956 . S
Li392 O453 1.970 . S
Li393 N443 1.990 . S
Li393 O451 1.961 . S
Li393 O452 1.970 . S
Li393 O453 1.956 . S
C394 C396 1.348 . S
C394 C397 1.356 . S
C394 O450 1.325 . S
N395 C398 1.314 . S
N395 C399 1.279 . S
C396 C394 1.348 . S
C396 C398 1.353 . S
C396 H454 0.929 . S
C397 C394 1.356 . S
C397 C399 1.358 . S
C397 H455 0.930 . S
C398 N395 1.314 . S
C398 C396 1.353 . S
C398 H456 0.930 . S
C399 N395 1.279 . S
C399 C397 1.358 . S
C399 H457 0.930 . S
C400 C403 1.348 . S
C400 C404 1.356 . S
C400 O451 1.325 . S
C401 N402 1.279 . S
C401 C404 1.358 . S
C401 H458 0.930 . S
N402 C401 1.279 . S
N402 C405 1.314 . S
C403 C400 1.348 . S
C403 C405 1.353 . S
C403 H459 0.929 . S
C404 C400 1.356 . S
C404 C401 1.358 . S
C404 H460 0.930 . S
C405 N402 1.314 . S
C405 C403 1.353 . S
C405 H461 0.930 . S
C406 N407 1.314 . S
C406 C411 1.353 . S
C406 H412 0.930 . S
N407 Li390 1.990 . S
N407 C406 1.314 . S
N407 C409 1.279 . S
C408 C409 1.358 1_554 S
C408 C410 1.356 . S
C408 H462 0.930 . S
C409 N407 1.279 . S
C409 C408 1.358 1_556 S
C409 H413 0.930 . S
C410 C408 1.356 . S
C410 C411 1.348 1_554 S
C411 C406 1.353 . S
C411 C410 1.348 1_556 S
C411 H463 0.929 . S
H412 C406 0.930 . S
H413 C409 0.930 . S
C414 N415 1.314 . S
C414 C416 1.353 . S
C414 H420 0.930 . S
N415 Li391 1.990 . S
N415 C414 1.314 . S
N415 C418 1.279 . S
C416 C414 1.353 . S
C416 C419 1.348 . S
C416 H464 0.929 . S
C417 C418 1.358 . S
C417 C419 1.356 . S
C417 H465 0.930 . S
C418 N415 1.279 . S
C418 C417 1.358 . S
C418 H421 0.930 . S
C419 C416 1.348 . S
C419 C417 1.356 . S
H420 C414 0.930 . S
H421 C418 0.930 . S
C422 C424 1.348 . S
C422 C425 1.356 . S
C422 O452 1.325 . S
N423 C426 1.314 . S
N423 C427 1.279 . S
C424 C422 1.348 . S
C424 C426 1.353 . S
C424 H466 0.929 . S
C425 C422 1.356 . S
C425 C427 1.358 . S
C425 H467 0.930 . S
C426 N423 1.314 . S
C426 C424 1.353 . S
C426 H468 0.930 . S
C427 N423 1.279 . S
C427 C425 1.358 . S
C427 H469 0.930 . S
C428 C429 1.348 . S
C428 C430 1.356 . S
C428 O453 1.325 . S
C429 C428 1.348 . S
C429 C431 1.353 . S
C429 H470 0.929 . S
C430 C428 1.356 . S
C430 C432 1.358 . S
C430 H471 0.930 . S
C431 C429 1.353 . S
C431 N433 1.314 . S
C431 H472 0.930 . S
C432 C430 1.358 . S
C432 N433 1.279 . S
C432 H473 0.930 . S
N433 C431 1.314 . S
N433 C432 1.279 . S
C434 C436 1.353 . S
C434 N437 1.314 . S
C434 H440 0.930 . S
C435 N437 1.279 . S
C435 C438 1.358 . S
C435 H441 0.930 . S
C436 C434 1.353 . S
C436 C439 1.348 . S
C436 H474 0.929 . S
N437 Li392 1.990 . S
N437 C434 1.314 . S
N437 C435 1.279 . S
C438 C435 1.358 . S
C438 C439 1.356 . S
C438 H475 0.930 . S
C439 C436 1.348 . S
C439 C438 1.356 . S
H440 C434 0.930 . S
H441 C435 0.930 . S
C442 N443 1.314 . S
C442 C444 1.353 . S
C442 H448 0.930 . S
N443 Li393 1.990 . S
N443 C442 1.314 . S
N443 C446 1.279 . S
C444 C442 1.353 . S
C444 C447 1.348 . S
C444 H476 0.929 . S
C445 C446 1.358 . S
C445 C447 1.356 . S
C445 H477 0.930 . S
C446 N443 1.279 . S
C446 C445 1.358 . S
C446 H449 0.930 . S
C447 C444 1.348 . S
C447 C445 1.356 . S
H448 C442 0.930 . S
H449 C446 0.930 . S
O450 Li390 1.956 . S
O450 Li391 1.970 . S
O450 Li392 1.961 . S
O450 C394 1.325 . S
O451 Li390 1.970 . S
O451 Li391 1.956 . S
O451 Li393 1.961 . S
O451 C400 1.325 . S
O452 Li390 1.961 . S
O452 Li392 1.956 . S
O452 Li393 1.970 . S
O452 C422 1.325 . S
O453 Li391 1.961 . S
O453 Li392 1.970 . S
O453 Li393 1.956 . S
O453 C428 1.325 . S
H454 C396 0.929 . S
H455 C397 0.930 . S
H456 C398 0.930 . S
H457 C399 0.930 . S
H458 C401 0.930 . S
H459 C403 0.929 . S
H460 C404 0.930 . S
H461 C405 0.930 . S
H462 C408 0.930 . S
H463 C411 0.929 . S
H464 C416 0.929 . S
H465 C417 0.930 . S
H466 C424 0.929 . S
H467 C425 0.930 . S
H468 C426 0.930 . S
H469 C427 0.930 . S
H470 C429 0.929 . S
H471 C430 0.930 . S
H472 C431 0.930 . S
H473 C432 0.930 . S
H474 C436 0.929 . S
H475 C438 0.930 . S
H476 C444 0.929 . S
H477 C445 0.930 . S
Li478 N495 1.990 . S
Li478 O538 1.956 . S
Li478 O539 1.970 . S
Li478 O540 1.961 . S
Li479 N503 1.990 . S
Li479 O538 1.970 . S
Li479 O539 1.956 . S
Li479 O541 1.961 . S
Li480 N525 1.990 . S
Li480 O538 1.961 . S
Li480 O540 1.956 . S
Li480 O541 1.970 . S
Li481 N531 1.990 . S
Li481 O539 1.961 . S
Li481 O540 1.970 . S
Li481 O541 1.956 . S
C482 C484 1.348 . S
C482 C485 1.356 . S
C482 O538 1.325 . S
N483 C486 1.314 . S
N483 C487 1.279 . S
C484 C482 1.348 . S
C484 C486 1.353 . S
C484 H542 0.929 . S
C485 C482 1.356 . S
C485 C487 1.358 . S
C485 H543 0.930 . S
C486 N483 1.314 . S
C486 C484 1.353 . S
C486 H544 0.930 . S
C487 N483 1.279 . S
C487 C485 1.358 . S
C487 H545 0.930 . S
C488 C491 1.348 . S
C488 C492 1.356 . S
C488 O539 1.325 . S
C489 N490 1.279 . S
C489 C492 1.358 . S
C489 H546 0.930 . S
N490 C489 1.279 . S
N490 C493 1.314 . S
C491 C488 1.348 . S
C491 C493 1.353 . S
C491 H547 0.929 . S
C492 C488 1.356 . S
C492 C489 1.358 . S
C492 H548 0.930 . S
C493 N490 1.314 . S
C493 C491 1.353 . S
C493 H549 0.930 . S
C494 N495 1.314 . S
C494 C499 1.353 . S
C494 H500 0.930 . S
N495 Li478 1.990 . S
N495 C494 1.314 . S
N495 C497 1.279 . S
C496 C497 1.358 . S
C496 C498 1.356 . S
C496 H550 0.930 . S
C497 N495 1.279 . S
C497 C496 1.358 . S
C497 H501 0.930 . S
C498 C496 1.356 . S
C498 C499 1.348 . S
C499 C494 1.353 . S
C499 C498 1.348 . S
C499 H551 0.929 . S
H500 C494 0.930 . S
H501 C497 0.930 . S
C502 N503 1.314 . S
C502 C504 1.353 . S
C502 H508 0.930 . S
N503 Li479 1.990 . S
N503 C502 1.314 . S
N503 C506 1.279 . S
C504 C502 1.353 . S
C504 C507 1.348 . S
C504 H552 0.929 . S
C505 C506 1.358 . S
C505 C507 1.356 . S
C505 H553 0.930 . S
C506 N503 1.279 . S
C506 C505 1.358 . S
C506 H509 0.930 . S
C507 C504 1.348 . S
C507 C505 1.356 . S
H508 C502 0.930 . S
H509 C506 0.930 . S
C510 C512 1.348 . S
C510 C513 1.356 . S
C510 O540 1.325 . S
N511 C514 1.314 1_556 S
N511 C515 1.279 1_556 S
C512 C510 1.348 . S
C512 C514 1.353 . S
C512 H554 0.929 . S
C513 C510 1.356 . S
C513 C515 1.358 . S
C513 H555 0.930 . S
C514 N511 1.314 1_554 S
C514 C512 1.353 . S
C514 H556 0.930 1_554 S
C515 N511 1.279 1_554 S
C515 C513 1.358 . S
C515 H557 0.922 1_554 S
C516 C517 1.348 . S
C516 C518 1.356 . S
C516 O541 1.325 . S
C517 C516 1.348 . S
C517 C519 1.353 . S
C517 H558 0.929 . S
C518 C516 1.356 . S
C518 C520 1.358 . S
C518 H559 0.930 . S
C519 C517 1.353 . S
C519 N521 1.314 . S
C519 H560 0.930 . S
C520 C518 1.358 . S
C520 N521 1.279 . S
C520 H561 0.930 . S
N521 C519 1.314 . S
N521 C520 1.279 . S
C522 C524 1.353 . S
C522 N525 1.314 . S
C522 H528 0.930 . S
C523 N525 1.279 . S
C523 C526 1.358 1_554 S
C523 H529 0.930 . S
C524 C522 1.353 . S
C524 C527 1.348 1_554 S
C524 H562 0.929 . S
N525 Li480 1.990 . S
N525 C522 1.314 . S
N525 C523 1.279 . S
C526 C523 1.358 1_556 S
C526 C527 1.356 . S
C526 H563 0.930 . S
C527 C524 1.348 1_556 S
C527 C526 1.356 . S
H528 C522 0.930 . S
H529 C523 0.930 . S
C530 N531 1.314 . S
C530 C532 1.353 . S
C530 H536 0.930 . S
N531 Li481 1.990 . S
N531 C530 1.314 . S
N531 C534 1.279 . S
C532 C530 1.353 . S
C532 C535 1.348 . S
C532 H564 0.929 . S
C533 C534 1.358 . S
C533 C535 1.356 . S
C533 H565 0.930 . S
C534 N531 1.279 . S
C534 C533 1.358 . S
C534 H537 0.930 . S
C535 C532 1.348 . S
C535 C533 1.356 . S
H536 C530 0.930 . S
H537 C534 0.930 . S
O538 Li478 1.956 . S
O538 Li479 1.970 . S
O538 Li480 1.961 . S
O538 C482 1.325 . S
O539 Li478 1.970 . S
O539 Li479 1.956 . S
O539 Li481 1.961 . S
O539 C488 1.325 . S
O540 Li478 1.961 . S
O540 Li480 1.956 . S
O540 Li481 1.970 . S
O540 C510 1.325 . S
O541 Li479 1.961 . S
O541 Li480 1.970 . S
O541 Li481 1.956 . S
O541 C516 1.325 . S
H542 C484 0.929 . S
H543 C485 0.930 . S
H544 C486 0.930 . S
H545 C487 0.930 . S
H546 C489 0.930 . S
H547 C491 0.929 . S
H548 C492 0.930 . S
H549 C493 0.930 . S
H550 C496 0.930 . S
H551 C499 0.929 . S
H552 C504 0.929 . S
H553 C505 0.930 . S
H554 C512 0.929 . S
H555 C513 0.930 . S
H556 C514 0.930 1_556 S
H557 C515 0.922 1_556 S
H558 C517 0.929 . S
H559 C518 0.930 . S
H560 C519 0.930 . S
H561 C520 0.930 . S
H562 C524 0.929 . S
H563 C526 0.930 . S
H564 C532 0.929 . S
H565 C533 0.930 . S
Li566 N583 1.990 . S
Li566 O626 1.956 . S
Li566 O627 1.970 . S
Li566 O628 1.961 . S
Li567 N591 1.990 . S
Li567 O626 1.970 . S
Li567 O627 1.956 . S
Li567 O629 1.961 . S
Li568 N613 1.990 . S
Li568 O626 1.961 . S
Li568 O628 1.956 . S
Li568 O629 1.970 . S
Li569 N619 1.990 . S
Li569 O627 1.961 . S
Li569 O628 1.970 . S
Li569 O629 1.956 . S
C570 C572 1.348 . S
C570 C573 1.356 . S
C570 O626 1.325 . S
N571 C574 1.314 . S
N571 C575 1.279 . S
C572 C570 1.348 . S
C572 C574 1.353 . S
C572 H630 0.929 . S
C573 C570 1.356 . S
C573 C575 1.358 . S
C573 H631 0.930 . S
C574 N571 1.314 . S
C574 C572 1.353 . S
C574 H632 0.930 . S
C575 N571 1.279 . S
C575 C573 1.358 . S
C575 H633 0.930 . S
C576 C579 1.348 . S
C576 C580 1.356 . S
C576 O627 1.325 . S
C577 N578 1.279 . S
C577 C580 1.358 . S
C577 H634 0.930 . S
N578 C577 1.279 . S
N578 C581 1.314 . S
C579 C576 1.348 . S
C579 C581 1.353 . S
C579 H635 0.929 . S
C580 C576 1.356 . S
C580 C577 1.358 . S
C580 H636 0.930 . S
C581 N578 1.314 . S
C581 C579 1.353 . S
C581 H637 0.930 . S
C582 N583 1.314 . S
C582 C587 1.353 . S
C582 H588 0.930 . S
N583 Li566 1.990 . S
N583 C582 1.314 . S
N583 C585 1.279 . S
C584 C585 1.358 . S
C584 C586 1.356 . S
C584 H638 0.930 . S
C585 N583 1.279 . S
C585 C584 1.358 . S
C585 H589 0.930 . S
C586 C584 1.356 . S
C586 C587 1.348 . S
C587 C582 1.353 . S
C587 C586 1.348 . S
C587 H639 0.929 . S
H588 C582 0.930 . S
H589 C585 0.930 . S
C590 N591 1.314 . S
C590 C592 1.353 . S
C590 H596 0.930 . S
N591 Li567 1.990 . S
N591 C590 1.314 . S
N591 C594 1.279 . S
C592 C590 1.353 . S
C592 C595 1.348 . S
C592 H640 0.929 . S
C593 C594 1.358 . S
C593 C595 1.356 . S
C593 H641 0.930 . S
C594 N591 1.279 . S
C594 C593 1.358 . S
C594 H597 0.930 . S
C595 C592 1.348 . S
C595 C593 1.356 . S
H596 C590 0.930 . S
H597 C594 0.930 . S
C598 C600 1.348 . S
C598 C601 1.356 . S
C598 O628 1.325 . S
N599 C602 1.314 . S
N599 C603 1.279 . S
C600 C598 1.348 . S
C600 C602 1.353 . S
C600 H642 0.929 . S
C601 C598 1.356 . S
C601 C603 1.358 . S
C601 H643 0.930 . S
C602 N599 1.314 . S
C602 C600 1.353 . S
C602 H644 0.930 . S
C603 N599 1.279 . S
C603 C601 1.358 . S
C603 H645 0.930 . S
C604 C605 1.348 . S
C604 C606 1.356 . S
C604 O629 1.325 . S
C605 C604 1.348 . S
C605 C607 1.353 . S
C605 H646 0.929 . S
C606 C604 1.356 . S
C606 C608 1.358 . S
C606 H647 0.930 . S
C607 C605 1.353 . S
C607 N609 1.314 . S
C607 H648 0.930 . S
C608 C606 1.358 . S
C608 N609 1.279 . S
C608 H649 0.930 . S
N609 C607 1.314 . S
N609 C608 1.279 . S
C610 C612 1.353 . S
C610 N613 1.314 . S
C610 H616 0.930 . S
C611 N613 1.279 . S
C611 C614 1.358 . S
C611 H617 0.930 . S
C612 C610 1.353 . S
C612 C615 1.348 . S
C612 H650 0.929 . S
N613 Li568 1.990 . S
N613 C610 1.314 . S
N613 C611 1.279 . S
C614 C611 1.358 . S
C614 C615 1.356 . S
C614 H651 0.930 . S
C615 C612 1.348 . S
C615 C614 1.356 . S
H616 C610 0.930 . S
H617 C611 0.930 . S
C618 N619 1.314 . S
C618 C620 1.353 . S
C618 H624 0.930 . S
N619 Li569 1.990 . S
N619 C618 1.314 . S
N619 C622 1.279 . S
C620 C618 1.353 . S
C620 C623 1.348 . S
C620 H652 0.929 . S
C621 C622 1.358 . S
C621 C623 1.356 . S
C621 H653 0.930 . S
C622 N619 1.279 . S
C622 C621 1.358 . S
C622 H625 0.930 . S
C623 C620 1.348 . S
C623 C621 1.356 . S
H624 C618 0.930 . S
H625 C622 0.930 . S
O626 Li566 1.956 . S
O626 Li567 1.970 . S
O626 Li568 1.961 . S
O626 C570 1.325 . S
O627 Li566 1.970 . S
O627 Li567 1.956 . S
O627 Li569 1.961 . S
O627 C576 1.325 . S
O628 Li566 1.961 . S
O628 Li568 1.956 . S
O628 Li569 1.970 . S
O628 C598 1.325 . S
O629 Li567 1.961 . S
O629 Li568 1.970 . S
O629 Li569 1.956 . S
O629 C604 1.325 . S
H630 C572 0.929 . S
H631 C573 0.930 . S
H632 C574 0.930 . S
H633 C575 0.930 . S
H634 C577 0.930 . S
H635 C579 0.929 . S
H636 C580 0.930 . S
H637 C581 0.930 . S
H638 C584 0.930 . S
H639 C587 0.929 . S
H640 C592 0.929 . S
H641 C593 0.930 . S
H642 C600 0.929 . S
H643 C601 0.930 . S
H644 C602 0.930 . S
H645 C603 0.930 . S
H646 C605 0.929 . S
H647 C606 0.930 . S
H648 C607 0.930 . S
H649 C608 0.930 . S
H650 C612 0.929 . S
H651 C614 0.930 . S
H652 C620 0.929 . S
H653 C621 0.930 . S
C654 C655 1.391 . S
C654 C656 1.394 . S
C654 H670 0.931 . S
C655 C654 1.391 . S
C655 C659 1.376 . S
C656 C654 1.394 . S
C656 C657 1.369 . S
C656 C660 1.531 . S
C657 C656 1.369 . S
C657 C658 1.410 . S
C657 C665 1.503 . S
C658 C657 1.410 . S
C658 C659 1.392 . S
C658 C661 1.511 . S
C659 C655 1.376 . S
C659 C658 1.392 . S
C659 H671 0.929 . S
C660 C656 1.531 . S
C660 H672 0.960 . S
C660 H673 0.962 . S
C660 H674 0.960 . S
C661 C658 1.511 . S
C661 H675 0.961 . S
C661 H676 0.961 . S
C661 H677 0.961 . S
C662 C663 1.370 . S
C662 C664 1.363 . S
C662 H678 0.931 . S
C663 C662 1.370 . S
C663 C667 1.408 . S
C664 C662 1.363 . S
C664 C665 1.370 . S
C664 C668 1.524 . S
C665 C657 1.503 . S
C665 C664 1.370 . S
C665 C666 1.403 . S
C666 C665 1.403 . S
C666 C667 1.404 . S
C666 C669 1.539 . S
C667 C663 1.408 . S
C667 C666 1.404 . S
C667 H679 0.930 . S
C668 C664 1.524 . S
C668 H680 0.956 . S
C668 H681 0.961 . S
C668 H682 0.961 . S
C669 C666 1.539 . S
C669 H683 0.958 . S
C669 H684 0.961 . S
C669 H685 0.960 . S
H670 C654 0.931 . S
H671 C659 0.929 . S
H672 C660 0.960 . S
H673 C660 0.962 . S
H674 C660 0.960 . S
H675 C661 0.961 . S
H676 C661 0.961 . S
H677 C661 0.961 . S
H678 C662 0.931 . S
H679 C667 0.930 . S
H680 C668 0.956 . S
H681 C668 0.961 . S
H682 C668 0.961 . S
H683 C669 0.958 . S
H684 C669 0.961 . S
H685 C669 0.960 . S
C686 C687 1.391 . S
C686 C688 1.394 . S
C686 H702 0.931 . S
C687 C686 1.391 . S
C687 C691 1.376 . S
C688 C686 1.394 . S
C688 C689 1.369 . S
C688 C692 1.531 . S
C689 C688 1.369 . S
C689 C690 1.410 . S
C689 C697 1.503 . S
C690 C689 1.410 . S
C690 C691 1.392 . S
C690 C693 1.511 . S
C691 C687 1.376 . S
C691 C690 1.392 . S
C691 H703 0.929 . S
C692 C688 1.531 . S
C692 H704 0.960 . S
C692 H705 0.962 . S
C692 H706 0.960 . S
C693 C690 1.511 . S
C693 H707 0.961 . S
C693 H708 0.961 . S
C693 H709 0.961 . S
C694 C695 1.370 . S
C694 C696 1.363 . S
C694 H710 0.931 . S
C695 C694 1.370 . S
C695 C699 1.408 . S
C696 C694 1.363 . S
C696 C697 1.370 . S
C696 C700 1.524 . S
C697 C689 1.503 . S
C697 C696 1.370 . S
C697 C698 1.403 . S
C698 C697 1.403 . S
C698 C699 1.404 . S
C698 C701 1.539 . S
C699 C695 1.408 . S
C699 C698 1.404 . S
C699 H711 0.930 . S
C700 C696 1.524 . S
C700 H712 0.956 . S
C700 H713 0.961 . S
C700 H714 0.961 . S
C701 C698 1.539 . S
C701 H715 0.958 . S
C701 H716 0.961 . S
C701 H717 0.960 . S
H702 C686 0.931 . S
H703 C691 0.929 . S
H704 C692 0.960 . S
H705 C692 0.962 . S
H706 C692 0.960 . S
H707 C693 0.961 . S
H708 C693 0.961 . S
H709 C693 0.961 . S
H710 C694 0.931 . S
H711 C699 0.930 . S
H712 C700 0.956 . S
H713 C700 0.961 . S
H714 C700 0.961 . S
H715 C701 0.958 . S
H716 C701 0.961 . S
H717 C701 0.960 . S
C718 C719 1.391 . S
C718 C720 1.394 . S
C718 H734 0.931 . S
C719 C718 1.391 . S
C719 C723 1.376 . S
C720 C718 1.394 . S
C720 C721 1.369 . S
C720 C724 1.531 . S
C721 C720 1.369 . S
C721 C722 1.410 . S
C721 C729 1.503 . S
C722 C721 1.410 . S
C722 C723 1.392 . S
C722 C725 1.511 . S
C723 C719 1.376 . S
C723 C722 1.392 . S
C723 H735 0.929 . S
C724 C720 1.531 . S
C724 H736 0.960 . S
C724 H737 0.962 . S
C724 H738 0.960 . S
C725 C722 1.511 . S
C725 H739 0.961 . S
C725 H740 0.961 . S
C725 H741 0.961 . S
C726 C727 1.370 . S
C726 C728 1.363 . S
C726 H742 0.931 . S
C727 C726 1.370 . S
C727 C731 1.408 . S
C728 C726 1.363 . S
C728 C729 1.370 . S
C728 C732 1.524 . S
C729 C721 1.503 . S
C729 C728 1.370 . S
C729 C730 1.403 . S
C730 C729 1.403 . S
C730 C731 1.404 . S
C730 C733 1.539 . S
C731 C727 1.408 . S
C731 C730 1.404 . S
C731 H743 0.930 . S
C732 C728 1.524 . S
C732 H744 0.956 . S
C732 H745 0.961 . S
C732 H746 0.961 . S
C733 C730 1.539 . S
C733 H747 0.958 . S
C733 H748 0.961 . S
C733 H749 0.960 . S
H734 C718 0.931 . S
H735 C723 0.929 . S
H736 C724 0.960 . S
H737 C724 0.962 . S
H738 C724 0.960 . S
H739 C725 0.961 . S
H740 C725 0.961 . S
H741 C725 0.961 . S
H742 C726 0.931 . S
H743 C731 0.930 . S
H744 C732 0.956 . S
H745 C732 0.961 . S
H746 C732 0.961 . S
H747 C733 0.958 . S
H748 C733 0.961 . S
H749 C733 0.960 . S
C750 C751 1.391 . S
C750 C752 1.394 . S
C750 H766 0.931 . S
C751 C750 1.391 . S
C751 C755 1.376 . S
C752 C750 1.394 . S
C752 C753 1.369 . S
C752 C756 1.531 . S
C753 C752 1.369 . S
C753 C754 1.410 . S
C753 C761 1.503 . S
C754 C753 1.410 . S
C754 C755 1.392 . S
C754 C757 1.511 . S
C755 C751 1.376 . S
C755 C754 1.392 . S
C755 H767 0.929 . S
C756 C752 1.531 . S
C756 H768 0.960 . S
C756 H769 0.962 . S
C756 H770 0.960 . S
C757 C754 1.511 . S
C757 H771 0.961 . S
C757 H772 0.961 . S
C757 H773 0.961 . S
C758 C759 1.370 . S
C758 C760 1.363 . S
C758 H774 0.931 . S
C759 C758 1.370 . S
C759 C763 1.408 . S
C760 C758 1.363 . S
C760 C761 1.370 . S
C760 C764 1.524 . S
C761 C753 1.503 . S
C761 C760 1.370 . S
C761 C762 1.403 . S
C762 C761 1.403 . S
C762 C763 1.404 . S
C762 C765 1.539 . S
C763 C759 1.408 . S
C763 C762 1.404 . S
C763 H775 0.930 . S
C764 C760 1.524 . S
C764 H776 0.956 . S
C764 H777 0.961 . S
C764 H778 0.961 . S
C765 C762 1.539 . S
C765 H779 0.958 . S
C765 H780 0.961 . S
C765 H781 0.960 . S
H766 C750 0.931 . S
H767 C755 0.929 . S
H768 C756 0.960 . S
H769 C756 0.962 . S
H770 C756 0.960 . S
H771 C757 0.961 . S
H772 C757 0.961 . S
H773 C757 0.961 . S
H774 C758 0.931 . S
H775 C763 0.930 . S
H776 C764 0.956 . S
H777 C764 0.961 . S
H778 C764 0.961 . S
H779 C765 0.958 . S
H780 C765 0.961 . S
H781 C765 0.960 . S
C782 C783 1.391 . S
C782 C784 1.394 . S
C782 H798 0.931 . S
C783 C782 1.391 . S
C783 C787 1.376 . S
C784 C782 1.394 . S
C784 C785 1.369 . S
C784 C788 1.531 . S
C785 C784 1.369 . S
C785 C786 1.410 . S
C785 C793 1.503 . S
C786 C785 1.410 . S
C786 C787 1.392 . S
C786 C789 1.511 . S
C787 C783 1.376 . S
C787 C786 1.392 . S
C787 H799 0.929 . S
C788 C784 1.531 . S
C788 H800 0.960 . S
C788 H801 0.962 . S
C788 H802 0.960 . S
C789 C786 1.511 . S
C789 H803 0.961 . S
C789 H804 0.961 . S
C789 H805 0.961 . S
C790 C791 1.370 . S
C790 C792 1.363 . S
C790 H806 0.931 . S
C791 C790 1.370 . S
C791 C795 1.408 . S
C792 C790 1.363 . S
C792 C793 1.370 . S
C792 C796 1.524 . S
C793 C785 1.503 . S
C793 C792 1.370 . S
C793 C794 1.403 . S
C794 C793 1.403 . S
C794 C795 1.404 . S
C794 C797 1.539 . S
C795 C791 1.408 . S
C795 C794 1.404 . S
C795 H807 0.930 . S
C796 C792 1.524 . S
C796 H808 0.956 . S
C796 H809 0.961 . S
C796 H810 0.961 . S
C797 C794 1.539 . S
C797 H811 0.958 . S
C797 H812 0.961 . S
C797 H813 0.960 . S
H798 C782 0.931 . S
H799 C787 0.929 . S
H800 C788 0.960 . S
H801 C788 0.962 . S
H802 C788 0.960 . S
H803 C789 0.961 . S
H804 C789 0.961 . S
H805 C789 0.961 . S
H806 C790 0.931 . S
H807 C795 0.930 . S
H808 C796 0.956 . S
H809 C796 0.961 . S
H810 C796 0.961 . S
H811 C797 0.958 . S
H812 C797 0.961 . S
H813 C797 0.960 . S
C814 C815 1.391 . S
C814 C816 1.394 . S
C814 H830 0.931 . S
C815 C814 1.391 . S
C815 C819 1.376 . S
C816 C814 1.394 . S
C816 C817 1.369 . S
C816 C820 1.531 . S
C817 C816 1.369 . S
C817 C818 1.410 . S
C817 C825 1.503 . S
C818 C817 1.410 . S
C818 C819 1.392 . S
C818 C821 1.511 . S
C819 C815 1.376 . S
C819 C818 1.392 . S
C819 H831 0.929 . S
C820 C816 1.531 . S
C820 H832 0.960 . S
C820 H833 0.962 . S
C820 H834 0.960 . S
C821 C818 1.511 . S
C821 H835 0.961 . S
C821 H836 0.961 . S
C821 H837 0.961 . S
C822 C823 1.370 . S
C822 C824 1.363 . S
C822 H838 0.931 . S
C823 C822 1.370 . S
C823 C827 1.408 . S
C824 C822 1.363 . S
C824 C825 1.370 . S
C824 C828 1.524 . S
C825 C817 1.503 . S
C825 C824 1.370 . S
C825 C826 1.403 . S
C826 C825 1.403 . S
C826 C827 1.404 . S
C826 C829 1.539 . S
C827 C823 1.408 . S
C827 C826 1.404 . S
C827 H839 0.930 . S
C828 C824 1.524 . S
C828 H840 0.956 . S
C828 H841 0.961 . S
C828 H842 0.961 . S
C829 C826 1.539 . S
C829 H843 0.958 . S
C829 H844 0.961 . S
C829 H845 0.960 . S
H830 C814 0.931 . S
H831 C819 0.929 . S
H832 C820 0.960 . S
H833 C820 0.962 . S
H834 C820 0.960 . S
H835 C821 0.961 . S
H836 C821 0.961 . S
H837 C821 0.961 . S
H838 C822 0.931 . S
H839 C827 0.930 . S
H840 C828 0.956 . S
H841 C828 0.961 . S
H842 C828 0.961 . S
H843 C829 0.958 . S
H844 C829 0.961 . S
H845 C829 0.960 . S
C846 C847 1.391 . S
C846 C848 1.394 . S
C846 H862 0.931 . S
C847 C846 1.391 . S
C847 C851 1.376 . S
C848 C846 1.394 . S
C848 C849 1.369 . S
C848 C852 1.531 . S
C849 C848 1.369 . S
C849 C850 1.410 . S
C849 C857 1.503 . S
C850 C849 1.410 . S
C850 C851 1.392 . S
C850 C853 1.511 . S
C851 C847 1.376 . S
C851 C850 1.392 . S
C851 H863 0.929 . S
C852 C848 1.531 . S
C852 H864 0.960 . S
C852 H865 0.962 . S
C852 H866 0.960 . S
C853 C850 1.511 . S
C853 H867 0.961 . S
C853 H868 0.961 . S
C853 H869 0.961 . S
C854 C855 1.370 . S
C854 C856 1.363 . S
C854 H870 0.931 . S
C855 C854 1.370 . S
C855 C859 1.408 . S
C856 C854 1.363 . S
C856 C857 1.370 . S
C856 C860 1.524 . S
C857 C849 1.503 . S
C857 C856 1.370 . S
C857 C858 1.403 . S
C858 C857 1.403 . S
C858 C859 1.404 . S
C858 C861 1.539 . S
C859 C855 1.408 . S
C859 C858 1.404 . S
C859 H871 0.930 . S
C860 C856 1.524 . S
C860 H872 0.956 . S
C860 H873 0.961 . S
C860 H874 0.961 . S
C861 C858 1.539 . S
C861 H875 0.958 . S
C861 H876 0.961 . S
C861 H877 0.960 . S
H862 C846 0.931 . S
H863 C851 0.929 . S
H864 C852 0.960 . S
H865 C852 0.962 . S
H866 C852 0.960 . S
H867 C853 0.961 . S
H868 C853 0.961 . S
H869 C853 0.961 . S
H870 C854 0.931 . S
H871 C859 0.930 . S
H872 C860 0.956 . S
H873 C860 0.961 . S
H874 C860 0.961 . S
H875 C861 0.958 . S
H876 C861 0.961 . S
H877 C861 0.960 . S
C878 C879 1.391 . S
C878 C880 1.394 . S
C878 H894 0.931 . S
C879 C878 1.391 . S
C879 C883 1.376 . S
C880 C878 1.394 . S
C880 C881 1.369 . S
C880 C884 1.531 . S
C881 C880 1.369 . S
C881 C882 1.410 . S
C881 C889 1.503 . S
C882 C881 1.410 . S
C882 C883 1.392 . S
C882 C885 1.511 . S
C883 C879 1.376 . S
C883 C882 1.392 . S
C883 H895 0.929 . S
C884 C880 1.531 . S
C884 H896 0.960 . S
C884 H897 0.962 . S
C884 H898 0.960 . S
C885 C882 1.511 . S
C885 H899 0.961 . S
C885 H900 0.961 . S
C885 H901 0.961 . S
C886 C887 1.370 . S
C886 C888 1.363 . S
C886 H902 0.931 . S
C887 C886 1.370 . S
C887 C891 1.408 . S
C888 C886 1.363 . S
C888 C889 1.370 . S
C888 C892 1.524 . S
C889 C881 1.503 . S
C889 C888 1.370 . S
C889 C890 1.403 . S
C890 C889 1.403 . S
C890 C891 1.404 . S
C890 C893 1.539 . S
C891 C887 1.408 . S
C891 C890 1.404 . S
C891 H903 0.930 . S
C892 C888 1.524 . S
C892 H904 0.956 . S
C892 H905 0.961 . S
C892 H906 0.961 . S
C893 C890 1.539 . S
C893 H907 0.958 . S
C893 H908 0.961 . S
C893 H909 0.960 . S
H894 C878 0.931 . S
H895 C883 0.929 . S
H896 C884 0.960 . S
H897 C884 0.962 . S
H898 C884 0.960 . S
H899 C885 0.961 . S
H900 C885 0.961 . S
H901 C885 0.961 . S
H902 C886 0.931 . S
H903 C891 0.930 . S
H904 C892 0.956 . S
H905 C892 0.961 . S
H906 C892 0.961 . S
H907 C893 0.958 . S
H908 C893 0.961 . S
H909 C893 0.960 . S
C910 C911 1.391 . S
C910 C912 1.394 . S
C910 H926 0.931 . S
C911 C910 1.391 . S
C911 C915 1.376 . S
C912 C910 1.394 . S
C912 C913 1.369 . S
C912 C916 1.531 . S
C913 C912 1.369 . S
C913 C914 1.410 . S
C913 C921 1.503 . S
C914 C913 1.410 . S
C914 C915 1.392 . S
C914 C917 1.511 . S
C915 C911 1.376 . S
C915 C914 1.392 . S
C915 H927 0.929 . S
C916 C912 1.531 . S
C916 H928 0.960 . S
C916 H929 0.962 . S
C916 H930 0.960 . S
C917 C914 1.511 . S
C917 H931 0.961 . S
C917 H932 0.961 . S
C917 H933 0.961 . S
C918 C919 1.370 . S
C918 C920 1.363 . S
C918 H934 0.931 . S
C919 C918 1.370 . S
C919 C923 1.408 . S
C920 C918 1.363 . S
C920 C921 1.370 . S
C920 C924 1.524 . S
C921 C913 1.503 . S
C921 C920 1.370 . S
C921 C922 1.403 . S
C922 C921 1.403 . S
C922 C923 1.404 . S
C922 C925 1.539 . S
C923 C919 1.408 . S
C923 C922 1.404 . S
C923 H935 0.930 . S
C924 C920 1.524 . S
C924 H936 0.956 . S
C924 H937 0.961 . S
C924 H938 0.961 . S
C925 C922 1.539 . S
C925 H939 0.958 . S
C925 H940 0.961 . S
C925 H941 0.960 . S
H926 C910 0.931 . S
H927 C915 0.929 . S
H928 C916 0.960 . S
H929 C916 0.962 . S
H930 C916 0.960 . S
H931 C917 0.961 . S
H932 C917 0.961 . S
H933 C917 0.961 . S
H934 C918 0.931 . S
H935 C923 0.930 . S
H936 C924 0.956 . S
H937 C924 0.961 . S
H938 C924 0.961 . S
H939 C925 0.958 . S
H940 C925 0.961 . S
H941 C925 0.960 . S
C942 C943 1.391 . S
C942 C944 1.394 . S
C942 H958 0.931 . S
C943 C942 1.391 . S
C943 C947 1.376 . S
C944 C942 1.394 . S
C944 C945 1.369 . S
C944 C948 1.531 . S
C945 C944 1.369 . S
C945 C946 1.410 . S
C945 C953 1.503 . S
C946 C945 1.410 . S
C946 C947 1.392 . S
C946 C949 1.511 . S
C947 C943 1.376 . S
C947 C946 1.392 . S
C947 H959 0.929 . S
C948 C944 1.531 . S
C948 H960 0.960 . S
C948 H961 0.962 . S
C948 H962 0.960 . S
C949 C946 1.511 . S
C949 H963 0.961 . S
C949 H964 0.961 . S
C949 H965 0.961 . S
C950 C951 1.370 . S
C950 C952 1.363 . S
C950 H966 0.931 . S
C951 C950 1.370 . S
C951 C955 1.408 . S
C952 C950 1.363 . S
C952 C953 1.370 . S
C952 C956 1.570 . S
C953 C945 1.503 . S
C953 C952 1.370 . S
C953 C954 1.403 . S
C954 C953 1.403 . S
C954 C955 1.404 . S
C954 C957 1.539 . S
C955 C951 1.408 . S
C955 C954 1.404 . S
C955 H967 0.930 . S
C956 C952 1.570 . S
C956 H968 0.950 1_554 S
C956 H969 0.947 1_554 S
C956 H970 0.935 1_554 S
C957 C954 1.539 . S
C957 H971 0.958 . S
C957 H972 0.961 . S
C957 H973 0.960 . S
H958 C942 0.931 . S
H959 C947 0.929 . S
H960 C948 0.960 . S
H961 C948 0.962 . S
H962 C948 0.960 . S
H963 C949 0.961 . S
H964 C949 0.961 . S
H965 C949 0.961 . S
H966 C950 0.931 . S
H967 C955 0.930 . S
H968 C956 0.950 1_556 S
H969 C956 0.947 1_556 S
H970 C956 0.935 1_556 S
H971 C957 0.958 . S
H972 C957 0.961 . S
H973 C957 0.960 . S
C974 C975 1.391 . S
C974 C976 1.394 . S
C974 H990 0.931 . S
C975 C974 1.391 . S
C975 C979 1.376 . S
C976 C974 1.394 . S
C976 C977 1.369 . S
C976 C980 1.531 . S
C977 C976 1.369 . S
C977 C978 1.410 . S
C977 C985 1.503 . S
C978 C977 1.410 . S
C978 C979 1.392 . S
C978 C981 1.511 . S
C979 C975 1.376 . S
C979 C978 1.392 . S
C979 H991 0.929 . S
C980 C976 1.531 . S
C980 H992 0.960 . S
C980 H993 0.962 . S
C980 H994 0.960 . S
C981 C978 1.511 . S
C981 H995 0.961 . S
C981 H996 0.961 . S
C981 H997 0.961 . S
C982 C983 1.370 . S
C982 C984 1.363 . S
C982 H998 0.931 . S
C983 C982 1.370 . S
C983 C987 1.408 . S
C984 C982 1.363 . S
C984 C985 1.370 . S
C984 C988 1.524 . S
C985 C977 1.503 . S
C985 C984 1.370 . S
C985 C986 1.403 . S
C986 C985 1.403 . S
C986 C987 1.404 . S
C986 C989 1.539 . S
C987 C983 1.408 . S
C987 C986 1.404 . S
C987 H999 0.930 . S
C988 C984 1.524 . S
C988 H1000 0.956 . S
C988 H1001 0.961 . S
C988 H1002 0.961 . S
C989 C986 1.539 . S
C989 H1003 0.958 . S
C989 H1004 0.961 . S
C989 H1005 0.960 . S
H990 C974 0.931 . S
H991 C979 0.929 . S
H992 C980 0.960 . S
H993 C980 0.962 . S
H994 C980 0.960 . S
H995 C981 0.961 . S
H996 C981 0.961 . S
H997 C981 0.961 . S
H998 C982 0.931 . S
H999 C987 0.930 . S
H1000 C988 0.956 . S
H1001 C988 0.961 . S
H1002 C988 0.961 . S
H1003 C989 0.958 . S
H1004 C989 0.961 . S
H1005 C989 0.960 . S
C1006 C1007 1.391 . S
C1006 C1008 1.394 . S
C1006 H1022 0.931 . S
C1007 C1006 1.391 . S
C1007 C1011 1.376 . S
C1008 C1006 1.394 . S
C1008 C1009 1.369 . S
C1008 C1012 1.531 . S
C1009 C1008 1.369 . S
C1009 C1010 1.410 . S
C1009 C1017 1.503 . S
C1010 C1009 1.410 . S
C1010 C1011 1.392 . S
C1010 C1013 1.511 . S
C1011 C1007 1.376 . S
C1011 C1010 1.392 . S
C1011 H1023 0.929 . S
C1012 C1008 1.531 . S
C1012 H1024 0.960 . S
C1012 H1025 0.962 . S
C1012 H1026 0.960 . S
C1013 C1010 1.511 . S
C1013 H1027 0.961 . S
C1013 H1028 0.961 . S
C1013 H1029 0.961 . S
C1014 C1015 1.370 . S
C1014 C1016 1.363 . S
C1014 H1030 0.931 . S
C1015 C1014 1.370 . S
C1015 C1019 1.408 . S
C1016 C1014 1.363 . S
C1016 C1017 1.370 . S
C1016 C1020 1.524 . S
C1017 C1009 1.503 . S
C1017 C1016 1.370 . S
C1017 C1018 1.403 . S
C1018 C1017 1.403 . S
C1018 C1019 1.404 . S
C1018 C1021 1.539 . S
C1019 C1015 1.408 . S
C1019 C1018 1.404 . S
C1019 H1031 0.930 . S
C1020 C1016 1.524 . S
C1020 H1032 0.956 . S
C1020 H1033 0.961 . S
C1020 H1034 0.961 . S
C1021 C1018 1.539 . S
C1021 H1035 0.958 . S
C1021 H1036 0.961 . S
C1021 H1037 0.960 . S
H1022 C1006 0.931 . S
H1023 C1011 0.929 . S
H1024 C1012 0.960 . S
H1025 C1012 0.962 . S
H1026 C1012 0.960 . S
H1027 C1013 0.961 . S
H1028 C1013 0.961 . S
H1029 C1013 0.961 . S
H1030 C1014 0.931 . S
H1031 C1019 0.930 . S
H1032 C1020 0.956 . S
H1033 C1020 0.961 . S
H1034 C1020 0.961 . S
H1035 C1021 0.958 . S
H1036 C1021 0.961 . S
H1037 C1021 0.960 . S
C1038 C1039 1.391 . S
C1038 C1040 1.394 . S
C1038 H1054 0.931 . S
C1039 C1038 1.391 . S
C1039 C1043 1.376 . S
C1040 C1038 1.394 . S
C1040 C1041 1.369 . S
C1040 C1044 1.531 . S
C1041 C1040 1.369 . S
C1041 C1042 1.410 . S
C1041 C1049 1.503 . S
C1042 C1041 1.410 . S
C1042 C1043 1.392 . S
C1042 C1045 1.511 . S
C1043 C1039 1.376 . S
C1043 C1042 1.392 . S
C1043 H1055 0.929 . S
C1044 C1040 1.531 . S
C1044 H1056 0.960 . S
C1044 H1057 0.962 . S
C1044 H1058 0.960 . S
C1045 C1042 1.511 . S
C1045 H1059 0.961 . S
C1045 H1060 0.961 . S
C1045 H1061 0.961 . S
C1046 C1047 1.370 . S
C1046 C1048 1.363 . S
C1046 H1062 0.931 . S
C1047 C1046 1.370 . S
C1047 C1051 1.408 . S
C1048 C1046 1.363 . S
C1048 C1049 1.370 . S
C1048 C1052 1.524 . S
C1049 C1041 1.503 . S
C1049 C1048 1.370 . S
C1049 C1050 1.403 . S
C1050 C1049 1.403 . S
C1050 C1051 1.404 . S
C1050 C1053 1.539 . S
C1051 C1047 1.408 . S
C1051 C1050 1.404 . S
C1051 H1063 0.930 . S
C1052 C1048 1.524 . S
C1052 H1064 0.956 . S
C1052 H1065 0.961 . S
C1052 H1066 0.961 . S
C1053 C1050 1.539 . S
C1053 H1067 0.958 . S
C1053 H1068 0.961 . S
C1053 H1069 0.960 . S
H1054 C1038 0.931 . S
H1055 C1043 0.929 . S
H1056 C1044 0.960 . S
H1057 C1044 0.962 . S
H1058 C1044 0.960 . S
H1059 C1045 0.961 . S
H1060 C1045 0.961 . S
H1061 C1045 0.961 . S
H1062 C1046 0.931 . S
H1063 C1051 0.930 . S
H1064 C1052 0.956 . S
H1065 C1052 0.961 . S
H1066 C1052 0.961 . S
H1067 C1053 0.958 . S
H1068 C1053 0.961 . S
H1069 C1053 0.960 . S
C1070 C1071 1.391 . S
C1070 C1072 1.394 . S
C1070 H1086 0.931 . S
C1071 C1070 1.391 . S
C1071 C1075 1.376 . S
C1072 C1070 1.394 . S
C1072 C1073 1.369 . S
C1072 C1076 1.531 . S
C1073 C1072 1.369 . S
C1073 C1074 1.410 . S
C1073 C1081 1.503 . S
C1074 C1073 1.410 . S
C1074 C1075 1.392 . S
C1074 C1077 1.511 . S
C1075 C1071 1.376 . S
C1075 C1074 1.392 . S
C1075 H1087 0.929 . S
C1076 C1072 1.531 . S
C1076 H1088 0.960 . S
C1076 H1089 0.962 . S
C1076 H1090 0.960 . S
C1077 C1074 1.511 . S
C1077 H1091 0.961 . S
C1077 H1092 0.961 . S
C1077 H1093 0.961 . S
C1078 C1079 1.370 . S
C1078 C1080 1.363 . S
C1078 H1094 0.931 . S
C1079 C1078 1.370 . S
C1079 C1083 1.408 . S
C1080 C1078 1.363 . S
C1080 C1081 1.370 . S
C1080 C1084 1.524 . S
C1081 C1073 1.503 . S
C1081 C1080 1.370 . S
C1081 C1082 1.403 . S
C1082 C1081 1.403 . S
C1082 C1083 1.404 . S
C1082 C1085 1.539 . S
C1083 C1079 1.408 . S
C1083 C1082 1.404 . S
C1083 H1095 0.930 . S
C1084 C1080 1.524 . S
C1084 H1096 0.956 . S
C1084 H1097 0.961 . S
C1084 H1098 0.961 . S
C1085 C1082 1.539 . S
C1085 H1099 0.958 . S
C1085 H1100 0.961 . S
C1085 H1101 0.960 . S
H1086 C1070 0.931 . S
H1087 C1075 0.929 . S
H1088 C1076 0.960 . S
H1089 C1076 0.962 . S
H1090 C1076 0.960 . S
H1091 C1077 0.961 . S
H1092 C1077 0.961 . S
H1093 C1077 0.961 . S
H1094 C1078 0.931 . S
H1095 C1083 0.930 . S
H1096 C1084 0.956 . S
H1097 C1084 0.961 . S
H1098 C1084 0.961 . S
H1099 C1085 0.958 . S
H1100 C1085 0.961 . S
H1101 C1085 0.960 . S
C1102 C1103 1.391 . S
C1102 C1104 1.394 . S
C1102 H1118 0.931 . S
C1103 C1102 1.391 . S
C1103 C1107 1.376 . S
C1104 C1102 1.394 . S
C1104 C1105 1.369 . S
C1104 C1108 1.531 . S
C1105 C1104 1.369 . S
C1105 C1106 1.410 . S
C1105 C1113 1.503 . S
C1106 C1105 1.410 . S
C1106 C1107 1.392 . S
C1106 C1109 1.511 . S
C1107 C1103 1.376 . S
C1107 C1106 1.392 . S
C1107 H1119 0.929 . S
C1108 C1104 1.531 . S
C1108 H1120 0.960 . S
C1108 H1121 0.962 . S
C1108 H1122 0.960 . S
C1109 C1106 1.511 . S
C1109 H1123 0.961 . S
C1109 H1124 0.961 . S
C1109 H1125 0.961 . S
C1110 C1111 1.370 . S
C1110 C1112 1.363 . S
C1110 H1126 0.931 . S
C1111 C1110 1.370 . S
C1111 C1115 1.408 . S
C1112 C1110 1.363 . S
C1112 C1113 1.370 . S
C1112 C1116 1.524 . S
C1113 C1105 1.503 . S
C1113 C1112 1.370 . S
C1113 C1114 1.403 . S
C1114 C1113 1.403 . S
C1114 C1115 1.404 . S
C1114 C1117 1.539 . S
C1115 C1111 1.408 . S
C1115 C1114 1.404 . S
C1115 H1127 0.930 . S
C1116 C1112 1.524 . S
C1116 H1128 0.956 . S
C1116 H1129 0.961 . S
C1116 H1130 0.961 . S
C1117 C1114 1.539 . S
C1117 H1131 0.958 . S
C1117 H1132 0.961 . S
C1117 H1133 0.960 . S
H1118 C1102 0.931 . S
H1119 C1107 0.929 . S
H1120 C1108 0.960 . S
H1121 C1108 0.962 . S
H1122 C1108 0.960 . S
H1123 C1109 0.961 . S
H1124 C1109 0.961 . S
H1125 C1109 0.961 . S
H1126 C1110 0.931 . S
H1127 C1115 0.930 . S
H1128 C1116 0.956 . S
H1129 C1116 0.961 . S
H1130 C1116 0.961 . S
H1131 C1117 0.958 . S
H1132 C1117 0.961 . S
H1133 C1117 0.960 . S
C1134 C1135 1.391 . S
C1134 C1136 1.394 . S
C1134 H1150 0.931 . S
C1135 C1134 1.391 . S
C1135 C1139 1.376 . S
C1136 C1134 1.394 . S
C1136 C1137 1.369 . S
C1136 C1140 1.531 . S
C1137 C1136 1.369 . S
C1137 C1138 1.410 . S
C1137 C1145 1.503 . S
C1138 C1137 1.410 . S
C1138 C1139 1.392 . S
C1138 C1141 1.511 . S
C1139 C1135 1.376 . S
C1139 C1138 1.392 . S
C1139 H1151 0.929 . S
C1140 C1136 1.531 . S
C1140 H1152 0.960 . S
C1140 H1153 0.962 . S
C1140 H1154 0.960 . S
C1141 C1138 1.511 . S
C1141 H1155 0.961 . S
C1141 H1156 0.961 . S
C1141 H1157 0.961 . S
C1142 C1143 1.370 . S
C1142 C1144 1.363 . S
C1142 H1158 0.931 . S
C1143 C1142 1.370 . S
C1143 C1147 1.408 . S
C1144 C1142 1.363 . S
C1144 C1145 1.370 . S
C1144 C1148 1.524 . S
C1145 C1137 1.503 . S
C1145 C1144 1.370 . S
C1145 C1146 1.403 . S
C1146 C1145 1.403 . S
C1146 C1147 1.404 . S
C1146 C1149 1.539 . S
C1147 C1143 1.408 . S
C1147 C1146 1.404 . S
C1147 H1159 0.930 . S
C1148 C1144 1.524 . S
C1148 H1160 0.956 . S
C1148 H1161 0.961 . S
C1148 H1162 0.961 . S
C1149 C1146 1.539 . S
C1149 H1163 0.958 . S
C1149 H1164 0.961 . S
C1149 H1165 0.960 . S
H1150 C1134 0.931 . S
H1151 C1139 0.929 . S
H1152 C1140 0.960 . S
H1153 C1140 0.962 . S
H1154 C1140 0.960 . S
H1155 C1141 0.961 . S
H1156 C1141 0.961 . S
H1157 C1141 0.961 . S
H1158 C1142 0.931 . S
H1159 C1147 0.930 . S
H1160 C1148 0.956 . S
H1161 C1148 0.961 . S
H1162 C1148 0.961 . S
H1163 C1149 0.958 . S
H1164 C1149 0.961 . S
H1165 C1149 0.960 . S
C1166 C1167 1.391 . S
C1166 C1168 1.394 . S
C1166 H1182 0.931 . S
C1167 C1166 1.391 . S
C1167 C1171 1.376 . S
C1168 C1166 1.394 . S
C1168 C1169 1.369 . S
C1168 C1172 1.531 . S
C1169 C1168 1.369 . S
C1169 C1170 1.410 . S
C1169 C1177 1.503 . S
C1170 C1169 1.410 . S
C1170 C1171 1.392 . S
C1170 C1173 1.511 . S
C1171 C1167 1.376 . S
C1171 C1170 1.392 . S
C1171 H1183 0.929 . S
C1172 C1168 1.531 . S
C1172 H1184 0.960 . S
C1172 H1185 0.962 . S
C1172 H1186 0.960 . S
C1173 C1170 1.511 . S
C1173 H1187 0.961 . S
C1173 H1188 0.961 . S
C1173 H1189 0.961 . S
C1174 C1175 1.370 . S
C1174 C1176 1.363 . S
C1174 H1190 0.931 . S
C1175 C1174 1.370 . S
C1175 C1179 1.408 . S
C1176 C1174 1.363 . S
C1176 C1177 1.370 . S
C1176 C1180 1.524 . S
C1177 C1169 1.503 . S
C1177 C1176 1.370 . S
C1177 C1178 1.403 . S
C1178 C1177 1.403 . S
C1178 C1179 1.404 . S
C1178 C1181 1.539 . S
C1179 C1175 1.408 . S
C1179 C1178 1.404 . S
C1179 H1191 0.930 . S
C1180 C1176 1.524 . S
C1180 H1192 0.956 . S
C1180 H1193 0.961 . S
C1180 H1194 0.961 . S
C1181 C1178 1.539 . S
C1181 H1195 0.958 . S
C1181 H1196 0.961 . S
C1181 H1197 0.960 . S
H1182 C1166 0.931 . S
H1183 C1171 0.929 . S
H1184 C1172 0.960 . S
H1185 C1172 0.962 . S
H1186 C1172 0.960 . S
H1187 C1173 0.961 . S
H1188 C1173 0.961 . S
H1189 C1173 0.961 . S
H1190 C1174 0.931 . S
H1191 C1179 0.930 . S
H1192 C1180 0.956 . S
H1193 C1180 0.961 . S
H1194 C1180 0.961 . S
H1195 C1181 0.958 . S
H1196 C1181 0.961 . S
H1197 C1181 0.960 . S
C1198 C1199 1.391 . S
C1198 C1200 1.394 . S
C1198 H1214 0.931 . S
C1199 C1198 1.391 . S
C1199 C1203 1.376 . S
C1200 C1198 1.394 . S
C1200 C1201 1.369 . S
C1200 C1204 1.531 . S
C1201 C1200 1.369 . S
C1201 C1202 1.410 . S
C1201 C1209 1.503 . S
C1202 C1201 1.410 . S
C1202 C1203 1.392 . S
C1202 C1205 1.511 . S
C1203 C1199 1.376 . S
C1203 C1202 1.392 . S
C1203 H1215 0.929 . S
C1204 C1200 1.531 . S
C1204 H1216 0.960 . S
C1204 H1217 0.962 . S
C1204 H1218 0.960 . S
C1205 C1202 1.511 . S
C1205 H1219 0.961 . S
C1205 H1220 0.961 . S
C1205 H1221 0.961 . S
C1206 C1207 1.370 . S
C1206 C1208 1.363 . S
C1206 H1222 0.931 . S
C1207 C1206 1.370 . S
C1207 C1211 1.408 . S
C1208 C1206 1.363 . S
C1208 C1209 1.370 . S
C1208 C1212 1.524 . S
C1209 C1201 1.503 . S
C1209 C1208 1.370 . S
C1209 C1210 1.403 . S
C1210 C1209 1.403 . S
C1210 C1211 1.404 . S
C1210 C1213 1.539 . S
C1211 C1207 1.408 . S
C1211 C1210 1.404 . S
C1211 H1223 0.930 . S
C1212 C1208 1.524 . S
C1212 H1224 0.956 . S
C1212 H1225 0.961 . S
C1212 H1226 0.961 . S
C1213 C1210 1.539 . S
C1213 H1227 0.958 . S
C1213 H1228 0.961 . S
C1213 H1229 0.960 . S
H1214 C1198 0.931 . S
H1215 C1203 0.929 . S
H1216 C1204 0.960 . S
H1217 C1204 0.962 . S
H1218 C1204 0.960 . S
H1219 C1205 0.961 . S
H1220 C1205 0.961 . S
H1221 C1205 0.961 . S
H1222 C1206 0.931 . S
H1223 C1211 0.930 . S
H1224 C1212 0.956 . S
H1225 C1212 0.961 . S
H1226 C1212 0.961 . S
H1227 C1213 0.958 . S
H1228 C1213 0.961 . S
H1229 C1213 0.960 . S
C1230 C1231 1.391 . S
C1230 C1232 1.394 . S
C1230 H1246 0.931 . S
C1231 C1230 1.391 . S
C1231 C1235 1.376 . S
C1232 C1230 1.394 . S
C1232 C1233 1.369 . S
C1232 C1236 1.531 . S
C1233 C1232 1.369 . S
C1233 C1234 1.410 . S
C1233 C1241 1.503 . S
C1234 C1233 1.410 . S
C1234 C1235 1.392 . S
C1234 C1237 1.511 . S
C1235 C1231 1.376 . S
C1235 C1234 1.392 . S
C1235 H1247 0.929 . S
C1236 C1232 1.531 . S
C1236 H1248 0.960 . S
C1236 H1249 0.962 . S
C1236 H1250 0.960 . S
C1237 C1234 1.511 . S
C1237 H1251 0.961 . S
C1237 H1252 0.961 . S
C1237 H1253 0.961 . S
C1238 C1239 1.370 . S
C1238 C1240 1.363 . S
C1238 H1254 0.931 . S
C1239 C1238 1.370 . S
C1239 C1243 1.408 . S
C1240 C1238 1.363 . S
C1240 C1241 1.370 . S
C1240 C1244 1.524 . S
C1241 C1233 1.503 . S
C1241 C1240 1.370 . S
C1241 C1242 1.403 . S
C1242 C1241 1.403 . S
C1242 C1243 1.404 . S
C1242 C1245 1.539 . S
C1243 C1239 1.408 . S
C1243 C1242 1.404 . S
C1243 H1255 0.930 . S
C1244 C1240 1.524 . S
C1244 H1256 0.956 . S
C1244 H1257 0.961 . S
C1244 H1258 0.961 . S
C1245 C1242 1.539 . S
C1245 H1259 0.958 . S
C1245 H1260 0.961 . S
C1245 H1261 0.960 . S
H1246 C1230 0.931 . S
H1247 C1235 0.929 . S
H1248 C1236 0.960 . S
H1249 C1236 0.962 . S
H1250 C1236 0.960 . S
H1251 C1237 0.961 . S
H1252 C1237 0.961 . S
H1253 C1237 0.961 . S
H1254 C1238 0.931 . S
H1255 C1243 0.930 . S
H1256 C1244 0.956 . S
H1257 C1244 0.961 . S
H1258 C1244 0.961 . S
H1259 C1245 0.958 . S
H1260 C1245 0.961 . S
H1261 C1245 0.960 . S
C1262 C1263 1.391 . S
C1262 C1264 1.394 . S
C1262 H1278 0.931 . S
C1263 C1262 1.391 . S
C1263 C1267 1.376 . S
C1264 C1262 1.394 . S
C1264 C1265 1.369 . S
C1264 C1268 1.531 . S
C1265 C1264 1.369 . S
C1265 C1266 1.410 . S
C1265 C1273 1.503 . S
C1266 C1265 1.410 . S
C1266 C1267 1.392 . S
C1266 C1269 1.511 . S
C1267 C1263 1.376 . S
C1267 C1266 1.392 . S
C1267 H1279 0.929 . S
C1268 C1264 1.531 . S
C1268 H1280 0.960 . S
C1268 H1281 0.962 . S
C1268 H1282 0.960 . S
C1269 C1266 1.511 . S
C1269 H1283 0.961 . S
C1269 H1284 0.961 . S
C1269 H1285 0.961 . S
C1270 C1271 1.370 . S
C1270 C1272 1.363 . S
C1270 H1286 0.931 . S
C1271 C1270 1.370 . S
C1271 C1275 1.408 . S
C1272 C1270 1.363 . S
C1272 C1273 1.370 . S
C1272 C1276 1.524 . S
C1273 C1265 1.503 . S
C1273 C1272 1.370 . S
C1273 C1274 1.403 . S
C1274 C1273 1.403 . S
C1274 C1275 1.404 . S
C1274 C1277 1.539 . S
C1275 C1271 1.408 . S
C1275 C1274 1.404 . S
C1275 H1287 0.930 . S
C1276 C1272 1.524 . S
C1276 H1288 0.956 . S
C1276 H1289 0.961 . S
C1276 H1290 0.961 . S
C1277 C1274 1.539 . S
C1277 H1291 0.958 . S
C1277 H1292 0.961 . S
C1277 H1293 0.960 . S
H1278 C1262 0.931 . S
H1279 C1267 0.929 . S
H1280 C1268 0.960 . S
H1281 C1268 0.962 . S
H1282 C1268 0.960 . S
H1283 C1269 0.961 . S
H1284 C1269 0.961 . S
H1285 C1269 0.961 . S
H1286 C1270 0.931 . S
H1287 C1275 0.930 . S
H1288 C1276 0.956 . S
H1289 C1276 0.961 . S
H1290 C1276 0.961 . S
H1291 C1277 0.958 . S
H1292 C1277 0.961 . S
H1293 C1277 0.960 . S
C1294 C1295 1.391 . S
C1294 C1296 1.394 . S
C1294 H1310 0.931 . S
C1295 C1294 1.391 . S
C1295 C1299 1.376 . S
C1296 C1294 1.394 . S
C1296 C1297 1.369 . S
C1296 C1300 1.531 . S
C1297 C1296 1.369 . S
C1297 C1298 1.410 . S
C1297 C1305 1.503 . S
C1298 C1297 1.410 . S
C1298 C1299 1.392 . S
C1298 C1301 1.511 . S
C1299 C1295 1.376 . S
C1299 C1298 1.392 . S
C1299 H1311 0.929 . S
C1300 C1296 1.531 . S
C1300 H1312 0.960 . S
C1300 H1313 0.962 . S
C1300 H1314 0.960 . S
C1301 C1298 1.511 . S
C1301 H1315 0.961 . S
C1301 H1316 0.961 . S
C1301 H1317 0.961 . S
C1302 C1303 1.370 . S
C1302 C1304 1.363 . S
C1302 H1318 0.931 . S
C1303 C1302 1.370 . S
C1303 C1307 1.408 . S
C1304 C1302 1.363 . S
C1304 C1305 1.370 . S
C1304 C1308 1.524 . S
C1305 C1297 1.503 . S
C1305 C1304 1.370 . S
C1305 C1306 1.403 . S
C1306 C1305 1.403 . S
C1306 C1307 1.404 . S
C1306 C1309 1.539 . S
C1307 C1303 1.408 . S
C1307 C1306 1.404 . S
C1307 H1319 0.930 . S
C1308 C1304 1.524 . S
C1308 H1320 0.956 . S
C1308 H1321 0.961 . S
C1308 H1322 0.961 . S
C1309 C1306 1.539 . S
C1309 H1323 0.958 . S
C1309 H1324 0.961 . S
C1309 H1325 0.960 . S
H1310 C1294 0.931 . S
H1311 C1299 0.929 . S
H1312 C1300 0.960 . S
H1313 C1300 0.962 . S
H1314 C1300 0.960 . S
H1315 C1301 0.961 . S
H1316 C1301 0.961 . S
H1317 C1301 0.961 . S
H1318 C1302 0.931 . S
H1319 C1307 0.930 . S
H1320 C1308 0.956 . S
H1321 C1308 0.961 . S
H1322 C1308 0.961 . S
H1323 C1309 0.958 . S
H1324 C1309 0.961 . S
H1325 C1309 0.960 . S
C1326 C1327 1.391 . S
C1326 C1328 1.394 . S
C1326 H1342 0.931 . S
C1327 C1326 1.391 . S
C1327 C1331 1.376 . S
C1328 C1326 1.394 . S
C1328 C1329 1.369 . S
C1328 C1332 1.531 . S
C1329 C1328 1.369 . S
C1329 C1330 1.410 . S
C1329 C1337 1.503 . S
C1330 C1329 1.410 . S
C1330 C1331 1.392 . S
C1330 C1333 1.511 . S
C1331 C1327 1.376 . S
C1331 C1330 1.392 . S
C1331 H1343 0.929 . S
C1332 C1328 1.531 . S
C1332 H1344 0.960 . S
C1332 H1345 0.962 . S
C1332 H1346 0.960 . S
C1333 C1330 1.511 . S
C1333 H1347 0.961 . S
C1333 H1348 0.961 . S
C1333 H1349 0.961 . S
C1334 C1335 1.370 . S
C1334 C1336 1.363 . S
C1334 H1350 0.931 . S
C1335 C1334 1.370 . S
C1335 C1339 1.408 . S
C1336 C1334 1.363 . S
C1336 C1337 1.370 . S
C1336 C1340 1.524 . S
C1337 C1329 1.503 . S
C1337 C1336 1.370 . S
C1337 C1338 1.403 . S
C1338 C1337 1.403 . S
C1338 C1339 1.404 . S
C1338 C1341 1.539 . S
C1339 C1335 1.408 . S
C1339 C1338 1.404 . S
C1339 H1351 0.930 . S
C1340 C1336 1.524 . S
C1340 H1352 0.956 . S
C1340 H1353 0.961 . S
C1340 H1354 0.961 . S
C1341 C1338 1.539 . S
C1341 H1355 0.958 . S
C1341 H1356 0.961 . S
C1341 H1357 0.960 . S
H1342 C1326 0.931 . S
H1343 C1331 0.929 . S
H1344 C1332 0.960 . S
H1345 C1332 0.962 . S
H1346 C1332 0.960 . S
H1347 C1333 0.961 . S
H1348 C1333 0.961 . S
H1349 C1333 0.961 . S
H1350 C1334 0.931 . S
H1351 C1339 0.930 . S
H1352 C1340 0.956 . S
H1353 C1340 0.961 . S
H1354 C1340 0.961 . S
H1355 C1341 0.958 . S
H1356 C1341 0.961 . S
H1357 C1341 0.960 . S
C1358 C1359 1.391 . S
C1358 C1360 1.394 . S
C1358 H1374 0.931 . S
C1359 C1358 1.391 . S
C1359 C1363 1.376 . S
C1360 C1358 1.394 . S
C1360 C1361 1.369 . S
C1360 C1364 1.531 . S
C1361 C1360 1.369 . S
C1361 C1362 1.410 . S
C1361 C1369 1.503 . S
C1362 C1361 1.410 . S
C1362 C1363 1.392 . S
C1362 C1365 1.511 . S
C1363 C1359 1.376 . S
C1363 C1362 1.392 . S
C1363 H1375 0.929 . S
C1364 C1360 1.531 . S
C1364 H1376 0.960 . S
C1364 H1377 0.962 . S
C1364 H1378 0.960 . S
C1365 C1362 1.511 . S
C1365 H1379 0.961 . S
C1365 H1380 0.961 . S
C1365 H1381 0.961 . S
C1366 C1367 1.370 . S
C1366 C1368 1.363 . S
C1366 H1382 0.931 . S
C1367 C1366 1.370 . S
C1367 C1371 1.408 . S
C1368 C1366 1.363 . S
C1368 C1369 1.370 . S
C1368 C1372 1.524 . S
C1369 C1361 1.503 . S
C1369 C1368 1.370 . S
C1369 C1370 1.403 . S
C1370 C1369 1.403 . S
C1370 C1371 1.404 . S
C1370 C1373 1.539 . S
C1371 C1367 1.408 . S
C1371 C1370 1.404 . S
C1371 H1383 0.930 . S
C1372 C1368 1.524 . S
C1372 H1384 0.956 . S
C1372 H1385 0.961 . S
C1372 H1386 0.961 . S
C1373 C1370 1.539 . S
C1373 H1387 0.958 . S
C1373 H1388 0.961 . S
C1373 H1389 0.960 . S
H1374 C1358 0.931 . S
H1375 C1363 0.929 . S
H1376 C1364 0.960 . S
H1377 C1364 0.962 . S
H1378 C1364 0.960 . S
H1379 C1365 0.961 . S
H1380 C1365 0.961 . S
H1381 C1365 0.961 . S
H1382 C1366 0.931 . S
H1383 C1371 0.930 . S
H1384 C1372 0.956 . S
H1385 C1372 0.961 . S
H1386 C1372 0.961 . S
H1387 C1373 0.958 . S
H1388 C1373 0.961 . S
H1389 C1373 0.960 . S
C1390 C1391 1.391 . S
C1390 C1392 1.394 . S
C1390 H1406 0.931 . S
C1391 C1390 1.391 . S
C1391 C1395 1.376 . S
C1392 C1390 1.394 . S
C1392 C1393 1.369 . S
C1392 C1396 1.531 . S
C1393 C1392 1.369 . S
C1393 C1394 1.410 . S
C1393 C1401 1.503 . S
C1394 C1393 1.410 . S
C1394 C1395 1.392 . S
C1394 C1397 1.511 . S
C1395 C1391 1.376 . S
C1395 C1394 1.392 . S
C1395 H1407 0.929 . S
C1396 C1392 1.531 . S
C1396 H1408 0.960 . S
C1396 H1409 0.962 . S
C1396 H1410 0.960 . S
C1397 C1394 1.511 . S
C1397 H1411 0.961 . S
C1397 H1412 0.961 . S
C1397 H1413 0.961 . S
C1398 C1399 1.370 . S
C1398 C1400 1.363 . S
C1398 H1414 0.931 . S
C1399 C1398 1.370 . S
C1399 C1403 1.408 . S
C1400 C1398 1.363 . S
C1400 C1401 1.370 . S
C1400 C1404 1.524 . S
C1401 C1393 1.503 . S
C1401 C1400 1.370 . S
C1401 C1402 1.403 . S
C1402 C1401 1.403 . S
C1402 C1403 1.404 . S
C1402 C1405 1.539 . S
C1403 C1399 1.408 . S
C1403 C1402 1.404 . S
C1403 H1415 0.930 . S
C1404 C1400 1.524 . S
C1404 H1416 0.956 . S
C1404 H1417 0.961 . S
C1404 H1418 0.961 . S
C1405 C1402 1.539 . S
C1405 H1419 0.958 . S
C1405 H1420 0.961 . S
C1405 H1421 0.960 . S
H1406 C1390 0.931 . S
H1407 C1395 0.929 . S
H1408 C1396 0.960 . S
H1409 C1396 0.962 . S
H1410 C1396 0.960 . S
H1411 C1397 0.961 . S
H1412 C1397 0.961 . S
H1413 C1397 0.961 . S
H1414 C1398 0.931 . S
H1415 C1403 0.930 . S
H1416 C1404 0.956 . S
H1417 C1404 0.961 . S
H1418 C1404 0.961 . S
H1419 C1405 0.958 . S
H1420 C1405 0.961 . S
H1421 C1405 0.960 . S
C663 C595 1.592 . S
C655 C19 1.471 . S
C687 C40 1.497 . S
C695 C155 1.583 . S
C719 C51 1.451 . S
C727 C243 1.599 . S
C751 C72 1.440 . S
C759 C322 1.591 . S
C791 C419 1.588 . S
C783 C103 1.534 . S
C815 C114 1.510 . S
C823 C498 1.589 . S
C847 C30 1.490 . S
C855 C263 1.608 . S
C879 C61 1.527 . S
C887 C359 1.586 . S
C911 C82 1.512 . S
C919 C439 1.582 . S
C951 C535 1.598 . S
C943 C93 1.518 . S
C983 C615 1.582 . S
C975 C124 1.512 . S
C1015 C175 1.594 . S
C1007 C9 1.442 . S
C1039 C17 1.482 . S
C1047 C271 1.541 . S
C1071 C38 1.465 . S
C1079 C351 1.541 . S
C1111 C447 1.533 . S
C1103 C54 1.470 . S
C1135 C75 1.472 . S
C1143 C527 1.536 . S
C1175 C623 1.536 . S
C1167 C101 1.476 . S
C1207 C183 1.529 . S
C1199 C117 1.454 . S
C1239 C586 1.529 . S
C1231 C33 1.463 . S
C1263 C59 1.477 . S
C1271 C146 1.534 . S
C1303 C234 1.546 . S
C1295 C80 1.458 . S
C1327 C96 1.387 . S
C1335 C331 1.533 . S
C1359 C122 1.398 . S
C1367 C410 1.534 . S
C1391 C12 1.434 . S
C1399 C507 1.534 . S
