# Generated by pormake.
# Topology eea, (3,6)-cn, num edge types: 1
# Building blocks:
#     Node 0, Type 0, BuildingBlock: CUQRIR_clean_linker_1, # of connection points: 3
#     Node 1, Type 0, BuildingBlock: CUQRIR_clean_linker_1, # of connection points: 3
#     Node 2, Type 0, BuildingBlock: CUQRIR_clean_linker_1, # of connection points: 3
#     Node 3, Type 0, BuildingBlock: CUQRIR_clean_linker_1, # of connection points: 3
#     Node 4, Type 0, BuildingBlock: CUQRIR_clean_linker_1, # of connection points: 3
#     Node 5, Type 0, BuildingBlock: CUQRIR_clean_linker_1, # of connection points: 3
#     Node 6, Type 0, BuildingBlock: CUQRIR_clean_linker_1, # of connection points: 3
#     Node 7, Type 0, BuildingBlock: CUQRIR_clean_linker_1, # of connection points: 3
#     Node 8, Type 0, BuildingBlock: CUQRIR_clean_linker_1, # of connection points: 3
#     Node 9, Type 0, BuildingBlock: CUQRIR_clean_linker_1, # of connection points: 3
#     Node 10, Type 0, BuildingBlock: CUQRIR_clean_linker_1, # of connection points: 3
#     Node 11, Type 0, BuildingBlock: CUQRIR_clean_linker_1, # of connection points: 3
#     Node 12, Type 0, BuildingBlock: CUQRIR_clean_linker_1, # of connection points: 3
#     Node 13, Type 0, BuildingBlock: CUQRIR_clean_linker_1, # of connection points: 3
#     Node 14, Type 0, BuildingBlock: CUQRIR_clean_linker_1, # of connection points: 3
#     Node 15, Type 0, BuildingBlock: CUQRIR_clean_linker_1, # of connection points: 3
#     Node 16, Type 0, BuildingBlock: CUQRIR_clean_linker_1, # of connection points: 3
#     Node 17, Type 0, BuildingBlock: CUQRIR_clean_linker_1, # of connection points: 3
#     Node 18, Type 1, BuildingBlock: KUMBOL_clean_sbu_0, # of connection points: 6
#     Node 19, Type 1, BuildingBlock: KUMBOL_clean_sbu_0, # of connection points: 6
#     Node 20, Type 1, BuildingBlock: KUMBOL_clean_sbu_0, # of connection points: 6
#     Node 21, Type 1, BuildingBlock: KUMBOL_clean_sbu_0, # of connection points: 6
#     Node 22, Type 1, BuildingBlock: KUMBOL_clean_sbu_0, # of connection points: 6
#     Node 23, Type 1, BuildingBlock: KUMBOL_clean_sbu_0, # of connection points: 6
#     Node 24, Type 1, BuildingBlock: KUMBOL_clean_sbu_0, # of connection points: 6
#     Node 25, Type 1, BuildingBlock: KUMBOL_clean_sbu_0, # of connection points: 6
#     Node 26, Type 1, BuildingBlock: KUMBOL_clean_sbu_0, # of connection points: 6
#     Edge 27, Type (0, 1), BuildingBlock: EZIPEK_clean_linker_0, # of connection points: 2
#     Edge 28, Type (0, 1), BuildingBlock: EZIPEK_clean_linker_0, # of connection points: 2
#     Edge 29, Type (0, 1), BuildingBlock: EZIPEK_clean_linker_0, # of connection points: 2
#     Edge 30, Type (0, 1), BuildingBlock: EZIPEK_clean_linker_0, # of connection points: 2
#     Edge 31, Type (0, 1), BuildingBlock: EZIPEK_clean_linker_0, # of connection points: 2
#     Edge 32, Type (0, 1), BuildingBlock: EZIPEK_clean_linker_0, # of connection points: 2
#     Edge 33, Type (0, 1), BuildingBlock: EZIPEK_clean_linker_0, # of connection points: 2
#     Edge 34, Type (0, 1), BuildingBlock: EZIPEK_clean_linker_0, # of connection points: 2
#     Edge 35, Type (0, 1), BuildingBlock: EZIPEK_clean_linker_0, # of connection points: 2
#     Edge 36, Type (0, 1), BuildingBlock: EZIPEK_clean_linker_0, # of connection points: 2
#     Edge 37, Type (0, 1), BuildingBlock: EZIPEK_clean_linker_0, # of connection points: 2
#     Edge 38, Type (0, 1), BuildingBlock: EZIPEK_clean_linker_0, # of connection points: 2
#     Edge 39, Type (0, 1), BuildingBlock: EZIPEK_clean_linker_0, # of connection points: 2
#     Edge 40, Type (0, 1), BuildingBlock: EZIPEK_clean_linker_0, # of connection points: 2
#     Edge 41, Type (0, 1), BuildingBlock: EZIPEK_clean_linker_0, # of connection points: 2
#     Edge 42, Type (0, 1), BuildingBlock: EZIPEK_clean_linker_0, # of connection points: 2
#     Edge 43, Type (0, 1), BuildingBlock: EZIPEK_clean_linker_0, # of connection points: 2
#     Edge 44, Type (0, 1), BuildingBlock: EZIPEK_clean_linker_0, # of connection points: 2
#     Edge 45, Type (0, 1), BuildingBlock: EZIPEK_clean_linker_0, # of connection points: 2
#     Edge 46, Type (0, 1), BuildingBlock: EZIPEK_clean_linker_0, # of connection points: 2
#     Edge 47, Type (0, 1), BuildingBlock: EZIPEK_clean_linker_0, # of connection points: 2
#     Edge 48, Type (0, 1), BuildingBlock: EZIPEK_clean_linker_0, # of connection points: 2
#     Edge 49, Type (0, 1), BuildingBlock: EZIPEK_clean_linker_0, # of connection points: 2
#     Edge 50, Type (0, 1), BuildingBlock: EZIPEK_clean_linker_0, # of connection points: 2
#     Edge 51, Type (0, 1), BuildingBlock: EZIPEK_clean_linker_0, # of connection points: 2
#     Edge 52, Type (0, 1), BuildingBlock: EZIPEK_clean_linker_0, # of connection points: 2
#     Edge 53, Type (0, 1), BuildingBlock: EZIPEK_clean_linker_0, # of connection points: 2
#     Edge 54, Type (0, 1), BuildingBlock: EZIPEK_clean_linker_0, # of connection points: 2
#     Edge 55, Type (0, 1), BuildingBlock: EZIPEK_clean_linker_0, # of connection points: 2
#     Edge 56, Type (0, 1), BuildingBlock: EZIPEK_clean_linker_0, # of connection points: 2
#     Edge 57, Type (0, 1), BuildingBlock: EZIPEK_clean_linker_0, # of connection points: 2
#     Edge 58, Type (0, 1), BuildingBlock: EZIPEK_clean_linker_0, # of connection points: 2
#     Edge 59, Type (0, 1), BuildingBlock: EZIPEK_clean_linker_0, # of connection points: 2
#     Edge 60, Type (0, 1), BuildingBlock: EZIPEK_clean_linker_0, # of connection points: 2
#     Edge 61, Type (0, 1), BuildingBlock: EZIPEK_clean_linker_0, # of connection points: 2
#     Edge 62, Type (0, 1), BuildingBlock: EZIPEK_clean_linker_0, # of connection points: 2
#     Edge 63, Type (0, 1), BuildingBlock: EZIPEK_clean_linker_0, # of connection points: 2
#     Edge 64, Type (0, 1), BuildingBlock: EZIPEK_clean_linker_0, # of connection points: 2
#     Edge 65, Type (0, 1), BuildingBlock: EZIPEK_clean_linker_0, # of connection points: 2
#     Edge 66, Type (0, 1), BuildingBlock: EZIPEK_clean_linker_0, # of connection points: 2
#     Edge 67, Type (0, 1), BuildingBlock: EZIPEK_clean_linker_0, # of connection points: 2
#     Edge 68, Type (0, 1), BuildingBlock: EZIPEK_clean_linker_0, # of connection points: 2
#     Edge 69, Type (0, 1), BuildingBlock: EZIPEK_clean_linker_0, # of connection points: 2
#     Edge 70, Type (0, 1), BuildingBlock: EZIPEK_clean_linker_0, # of connection points: 2
#     Edge 71, Type (0, 1), BuildingBlock: EZIPEK_clean_linker_0, # of connection points: 2
#     Edge 72, Type (0, 1), BuildingBlock: EZIPEK_clean_linker_0, # of connection points: 2
#     Edge 73, Type (0, 1), BuildingBlock: EZIPEK_clean_linker_0, # of connection points: 2
#     Edge 74, Type (0, 1), BuildingBlock: EZIPEK_clean_linker_0, # of connection points: 2
#     Edge 75, Type (0, 1), BuildingBlock: EZIPEK_clean_linker_0, # of connection points: 2
#     Edge 76, Type (0, 1), BuildingBlock: EZIPEK_clean_linker_0, # of connection points: 2
#     Edge 77, Type (0, 1), BuildingBlock: EZIPEK_clean_linker_0, # of connection points: 2
#     Edge 78, Type (0, 1), BuildingBlock: EZIPEK_clean_linker_0, # of connection points: 2
#     Edge 79, Type (0, 1), BuildingBlock: EZIPEK_clean_linker_0, # of connection points: 2
#     Edge 80, Type (0, 1), BuildingBlock: EZIPEK_clean_linker_0, # of connection points: 2
# Relax obj value: 0.041
# Max RMSD: 0.228
# Mean RMSD: 0.163
data_MOF--net-eea--node1-KUMBOL_clean_sbu_0--node2-CUQRIR_clean_linker_1--edge1-EZIPEK_clean_linker_0
_symmetry_space_group_name_H-M    P1
_symmetry_Int_Tables_number       1
_symmetry_cell_setting            triclinic
loop_
_symmetry_equiv_pos_as_xyz
'x, y, z'
_cell_length_a     33.20604
_cell_length_b     36.024553
_cell_length_c     48.701442
_cell_angle_alpha  82.624874
_cell_angle_beta   89.983954
_cell_angle_gamma 118.23888
loop_
_atom_site_label
_atom_site_type_symbol
_atom_site_fract_x
_atom_site_fract_y
_atom_site_fract_z
_atom_type_partial_charge
C0 C 0.21012 0.10108 0.4035 0.0
N1 N 0.22806 0.1324 0.41965 0.0
N2 N 0.211 0.06549 0.41583 0.0
C3 C 0.19238 0.10572 0.37563 0.0
C4 C 0.23034 0.07654 0.44004 0.0
N5 N 0.24076 0.11711 0.4424 0.0
C6 C 0.24058 0.0482 0.46095 0.0
H7 H 0.16132 0.10935 0.37843 0.0
H8 H 0.18379 0.07787 0.36482 0.0
H9 H 0.21842 0.13509 0.36261 0.0
H10 H 0.2759 0.05393 0.45616 0.0
H11 H 0.21641 0.01415 0.46014 0.0
H12 H 0.23861 0.05556 0.4822 0.0
C13 C 0.90821 0.11846 0.40243 0.0
N14 N 0.92854 0.14923 0.41901 0.0
N15 N 0.86456 0.09069 0.41204 0.0
C16 C 0.93067 0.11438 0.37705 0.0
C17 C 0.85852 0.10525 0.43505 0.0
N18 N 0.8972 0.14055 0.43973 0.0
C19 C 0.81498 0.08379 0.45358 0.0
H20 H 0.92303 0.08079 0.37749 0.0
H21 H 0.96823 0.13511 0.37529 0.0
H22 H 0.91579 0.12282 0.35844 0.0
H23 H 0.81743 0.06101 0.47025 0.0
H24 H 0.78496 0.06578 0.44174 0.0
H25 H 0.80972 0.10746 0.46339 0.0
C26 C 0.87069 0.76182 0.38711 0.0
N27 N 0.89411 0.75142 0.40652 0.0
N28 N 0.83738 0.76655 0.39924 0.0
C29 C 0.88115 0.7684 0.35644 0.0
C30 C 0.84048 0.75796 0.42668 0.0
N31 N 0.87492 0.74849 0.43131 0.0
C32 C 0.80805 0.7564 0.44892 0.0
H33 H 0.91104 0.80029 0.35035 0.0
H34 H 0.85163 0.76645 0.34487 0.0
H35 H 0.89002 0.744 0.35113 0.0
H36 H 0.77659 0.72504 0.45107 0.0
H37 H 0.79795 0.7815 0.44314 0.0
H38 H 0.82376 0.76041 0.46918 0.0
C39 C 0.12123 0.24654 0.66977 0.0
N40 N 0.1569 0.26372 0.65042 0.0
N41 N 0.0844 0.24743 0.65891 0.0
C42 C 0.12229 0.2288 0.69916 0.0
C43 C 0.09837 0.26547 0.6323 0.0
N44 N 0.14265 0.27575 0.62691 0.0
C45 C 0.06914 0.27478 0.61189 0.0
H46 H 0.13996 0.20924 0.69978 0.0
H47 H 0.08731 0.20924 0.70931 0.0
H48 H 0.14178 0.25572 0.71079 0.0
H49 H 0.07185 0.30609 0.61426 0.0
H50 H 0.03263 0.25025 0.61599 0.0
H51 H 0.08074 0.27611 0.59024 0.0
C52 C 0.7922 0.89467 0.6622 0.0
N53 N 0.77701 0.86443 0.64498 0.0
N54 N 0.77715 0.92339 0.65528 0.0
C55 C 0.82141 0.89605 0.68602 0.0
C56 C 0.7526 0.91007 0.63313 0.0
N57 N 0.75283 0.87471 0.62637 0.0
C58 C 0.72897 0.93242 0.61779 0.0
H59 H 0.79889 0.87961 0.70532 0.0
H60 H 0.84465 0.92949 0.68895 0.0
H61 H 0.84184 0.87981 0.68256 0.0
H62 H 0.75394 0.95873 0.60224 0.0
H63 H 0.71628 0.94653 0.63232 0.0
H64 H 0.69987 0.91022 0.60692 0.0
C65 C 0.10787 0.92092 0.66119 0.0
N66 N 0.09043 0.88768 0.64633 0.0
N67 N 0.14418 0.95564 0.64699 0.0
C68 C 0.09127 0.91848 0.69024 0.0
C69 C 0.14854 0.9422 0.62296 0.0
N70 N 0.11668 0.90088 0.62258 0.0
C71 C 0.18511 0.96931 0.60016 0.0
H72 H 0.05579 0.9138 0.69031 0.0
H73 H 0.1133 0.94766 0.69935 0.0
H74 H 0.0908 0.89058 0.70307 0.0
H75 H 0.21637 0.96639 0.60449 0.0
H76 H 0.19407 1.0033 0.59929 0.0
H77 H 0.17375 0.95887 0.57977 0.0
C78 C 0.86711 0.4295 0.74185 0.0
N79 N 0.886 0.46093 0.75796 0.0
N80 N 0.86907 0.39409 0.7535 0.0
C81 C 0.84972 0.43452 0.71392 0.0
C82 C 0.88982 0.40525 0.77732 0.0
N83 N 0.90035 0.44579 0.78007 0.0
C84 C 0.90193 0.37717 0.79722 0.0
H85 H 0.83148 0.45355 0.71415 0.0
H86 H 0.82662 0.40318 0.70756 0.0
H87 H 0.87941 0.45199 0.69838 0.0
H88 H 0.9368 0.38296 0.79101 0.0
H89 H 0.87751 0.34307 0.79673 0.0
H90 H 0.90195 0.38457 0.81865 0.0
C91 C 0.57925 0.46074 0.7358 0.0
N92 N 0.59709 0.49145 0.7526 0.0
N93 N 0.53557 0.43156 0.74444 0.0
C94 C 0.60407 0.4598 0.7104 0.0
C95 C 0.52704 0.4452 0.76722 0.0
N96 N 0.5643 0.4812 0.77279 0.0
C97 C 0.48205 0.42255 0.78436 0.0
H98 H 0.58768 0.42775 0.70387 0.0
H99 H 0.64035 0.46935 0.71424 0.0
H100 H 0.60317 0.48288 0.69334 0.0
H101 H 0.4827 0.39794 0.80032 0.0
H102 H 0.45335 0.4063 0.77118 0.0
H103 H 0.47591 0.44509 0.79495 0.0
C104 C 0.54672 0.10661 0.72088 0.0
N105 N 0.56944 0.09444 0.73992 0.0
N106 N 0.5058 0.09875 0.73216 0.0
C107 C 0.56576 0.12924 0.69211 0.0
C108 C 0.50416 0.0812 0.75865 0.0
N109 N 0.5432 0.07923 0.7636 0.0
C110 C 0.46638 0.07018 0.78031 0.0
H111 H 0.55919 0.15673 0.6874 0.0
H112 H 0.54829 0.10701 0.67702 0.0
H113 H 0.60309 0.14081 0.68975 0.0
H114 H 0.46857 0.05081 0.7993 0.0
H115 H 0.43254 0.05239 0.77185 0.0
H116 H 0.46876 0.10006 0.78584 0.0
C117 C 0.77075 0.55433 1.00409 0.0
N118 N 0.80924 0.57104 0.98706 0.0
N119 N 0.73814 0.56071 0.9913 0.0
C120 C 0.76508 0.53249 0.03319 0.0
C121 C 0.75773 0.5817 0.9659 0.0
N122 N 0.80121 0.5884 0.96326 0.0
C123 C 0.73488 0.59729 0.94416 0.0
H124 H 0.78823 0.51833 0.03596 0.0
H125 H 0.72914 0.5072 0.03813 0.0
H126 H 0.77344 0.55612 0.04769 0.0
H127 H 0.74088 0.62935 0.94752 0.0
H128 H 0.69734 0.57572 0.94577 0.0
H129 H 0.74919 0.59972 0.92301 0.0
C130 C 0.45575 0.23452 0.99549 0.0
N131 N 0.44166 0.20495 0.97789 0.0
N132 N 0.44927 0.26787 0.98523 0.0
C133 C 0.47503 0.23055 0.02306 0.0
C134 C 0.43128 0.25807 0.9606 0.0
N135 N 0.42695 0.22007 0.95579 0.0
C136 C 0.41759 0.28566 0.94119 0.0
H137 H 0.49977 0.26222 0.02824 0.0
H138 H 0.49224 0.21059 0.02311 0.0
H139 H 0.4467 0.2155 0.03957 0.0
H140 H 0.41073 0.30741 0.95213 0.0
H141 H 0.38672 0.26572 0.93059 0.0
H142 H 0.44599 0.30553 0.92513 0.0
C143 C 0.77449 0.2492 0.99407 0.0
N144 N 0.75243 0.21768 0.97833 0.0
N145 N 0.80958 0.28392 0.97912 0.0
C146 C 0.76195 0.24615 0.02404 0.0
C147 C 0.80847 0.27235 0.95362 0.0
N148 N 0.77419 0.23216 0.95308 0.0
C149 C 0.84173 0.29983 0.92938 0.0
H150 H 0.734 0.25454 0.02554 0.0
H151 H 0.79151 0.26833 0.03461 0.0
H152 H 0.74967 0.21319 0.03436 0.0
H153 H 0.86809 0.2895 0.92743 0.0
H154 H 0.85899 0.33388 0.93224 0.0
H155 H 0.82387 0.29601 0.90986 0.0
C156 C 0.53127 0.76933 0.07316 0.0
N157 N 0.55009 0.80073 0.08921 0.0
N158 N 0.53391 0.73429 0.0847 0.0
C159 C 0.51259 0.77395 0.04559 0.0
C160 C 0.55512 0.74563 0.10834 0.0
N161 N 0.56529 0.78606 0.11108 0.0
C162 C 0.56779 0.71779 0.12805 0.0
H163 H 0.48815 0.78649 0.04772 0.0
H164 H 0.49526 0.74328 0.03727 0.0
H165 H 0.54115 0.79754 0.03062 0.0
H166 H 0.60218 0.72303 0.1212 0.0
H167 H 0.54291 0.68367 0.12805 0.0
H168 H 0.56909 0.72579 0.1494 0.0
C169 C 0.23942 0.78791 0.06992 0.0
N170 N 0.25997 0.81963 0.08576 0.0
N171 N 0.19885 0.75668 0.08228 0.0
C172 C 0.25815 0.78751 0.042 0.0
C173 C 0.19523 0.7701 0.10642 0.0
N174 N 0.23194 0.80836 0.10866 0.0
C175 C 0.15555 0.74604 0.12782 0.0
H176 H 0.24653 0.75438 0.03811 0.0
H177 H 0.29604 0.80522 0.04021 0.0
H178 H 0.24493 0.80283 0.02592 0.0
H179 H 0.13348 0.71287 0.12397 0.0
H180 H 0.13457 0.76259 0.12731 0.0
H181 H 0.16833 0.74571 0.14886 0.0
C182 C 0.20045 0.4211 0.05968 0.0
N183 N 0.22781 0.41344 0.07746 0.0
N184 N 0.16171 0.41456 0.07331 0.0
C185 C 0.21167 0.4353 0.02913 0.0
C186 C 0.16572 0.40165 0.09995 0.0
N187 N 0.20583 0.40089 0.10255 0.0
C188 C 0.13274 0.39408 0.12382 0.0
H189 H 0.23931 0.46883 0.02529 0.0
H190 H 0.18126 0.43266 0.01832 0.0
H191 H 0.22399 0.41501 0.02075 0.0
H192 H 0.09827 0.38626 0.11666 0.0
H193 H 0.14576 0.42344 0.13363 0.0
H194 H 0.13008 0.36791 0.13974 0.0
C195 C 0.44518 0.90646 0.33964 0.0
N196 N 0.48253 0.92082 0.32195 0.0
N197 N 0.4134 0.91472 0.32735 0.0
C198 C 0.43925 0.88398 0.36867 0.0
C199 C 0.4321 0.93422 0.30159 0.0
N200 N 0.47447 0.93843 0.29825 0.0
C201 C 0.40873 0.94889 0.27966 0.0
H202 H 0.40329 0.85877 0.37378 0.0
H203 H 0.44754 0.90738 0.38331 0.0
H204 H 0.46212 0.86952 0.37137 0.0
H205 H 0.41639 0.98187 0.28173 0.0
H206 H 0.37102 0.9283 0.28226 0.0
H207 H 0.42132 0.94888 0.25855 0.0
C208 C 0.11448 0.55958 0.33051 0.0
N209 N 0.10323 0.52875 0.31413 0.0
N210 N 0.10256 0.58905 0.31946 0.0
C211 C 0.13827 0.56174 0.357 0.0
C212 C 0.08434 0.57576 0.29549 0.0
N213 N 0.0854 0.5395 0.29179 0.0
C214 C 0.06678 0.59908 0.27538 0.0
H215 H 0.11215 0.54695 0.37479 0.0
H216 H 0.1612 0.59535 0.35969 0.0
H217 H 0.15849 0.54447 0.35726 0.0
H218 H 0.09595 0.62445 0.26155 0.0
H219 H 0.05117 0.61452 0.28668 0.0
H220 H 0.04124 0.57726 0.26244 0.0
C221 C 0.44804 0.57582 0.33342 0.0
N222 N 0.42534 0.54379 0.31807 0.0
N223 N 0.47968 0.61171 0.31741 0.0
C224 C 0.44001 0.57253 0.36405 0.0
C225 C 0.47618 0.60042 0.29171 0.0
N226 N 0.44321 0.55946 0.29193 0.0
C227 C 0.50616 0.62881 0.2665 0.0
H228 H 0.42188 0.5907 0.36785 0.0
H229 H 0.47332 0.58737 0.37363 0.0
H230 H 0.41976 0.53893 0.37372 0.0
H231 H 0.53051 0.61745 0.2611 0.0
H232 H 0.52581 0.66242 0.27015 0.0
H233 H 0.48502 0.62696 0.24857 0.0
Gd234 Gd 0.52226 0.03566 0.06588 0.0
Gd235 Gd 0.50383 0.99072 1.00042 0.0
C236 C 0.37587 0.86406 0.9965 0.0
C237 C 0.40763 0.81577 0.99572 0.0
C238 C 0.45811 0.89135 0.99644 0.0
C239 C 0.42029 0.89818 0.99785 0.0
C240 C 0.45203 0.85026 0.99443 0.0
C241 C 0.36964 0.8227 0.99654 0.0
C242 C 0.33923 0.87282 0.99345 0.0
C243 C 0.34732 0.91471 0.99111 0.0
N244 N 0.42713 0.93862 0.99767 0.0
C245 C 0.39172 0.94744 0.99279 0.0
H246 H 0.39677 0.97946 0.9899 0.0
C247 C 0.53807 0.92141 0.98651 0.0
N248 N 0.50082 0.92541 0.99442 0.0
C249 C 0.53379 0.88125 0.98498 0.0
C250 C 0.49069 0.84537 0.9896 0.0
H251 H 0.57156 0.9489 0.98336 0.0
H252 H 0.33568 0.7961 0.99601 0.0
H253 H 0.6242 0.03806 0.07064 0.0
H254 H 0.30496 0.84778 0.99139 0.0
H255 H 0.3194 0.92194 0.98773 0.0
H256 H 0.40236 0.78393 0.99464 0.0
H257 H 0.46494 0.08511 0.08435 0.0
H258 H 0.72655 0.16528 0.07504 0.0
H259 H 0.70414 0.08954 0.07537 0.0
H260 H 0.64195 0.24196 0.07377 0.0
H261 H 0.56373 0.87803 0.98025 0.0
H262 H 0.48738 0.81431 0.9881 0.0
H263 H 0.70325 0.22232 0.07341 0.0
H264 H 0.47891 0.15843 0.08648 0.0
N265 N 0.60091 0.08432 0.06567 0.0
C266 C 0.69141 0.14313 0.07187 0.0
C267 C 0.67881 0.10027 0.07244 0.0
C268 C 0.65812 0.15644 0.06885 0.0
C269 C 0.61239 0.12578 0.06611 0.0
C270 C 0.63318 0.07111 0.06958 0.0
N271 N 0.53374 0.10422 0.07106 0.0
C272 C 0.57756 0.13619 0.06831 0.0
C273 C 0.50695 0.15278 0.08102 0.0
C274 C 0.55151 0.1865 0.07646 0.0
C275 C 0.49897 0.11144 0.07935 0.0
C276 C 0.5877 0.17816 0.07132 0.0
H277 H 0.55788 0.21836 0.07863 0.0
O278 O 0.49682 0.03475 0.10758 0.0
O279 O 0.47488 0.98194 0.04385 0.0
O280 O 0.46617 0.02986 1.00142 0.0
O281 O 0.49764 0.07316 0.03578 0.0
O282 O 0.44431 0.99898 0.07263 0.0
O283 O 0.54015 1.00635 0.10193 0.0
O284 O 0.53792 0.04035 0.96516 0.0
O285 O 0.54974 0.04529 0.02219 0.0
O286 O 0.54714 0.98606 0.06883 0.0
O287 O 0.52822 0.95274 0.02922 0.0
O288 O 0.58166 0.02326 0.99771 0.0
O289 O 0.48879 0.97801 0.95785 0.0
C290 C 0.43595 0.97245 0.05521 0.0
C291 C 0.6335 0.20963 0.07137 0.0
C292 C 0.66852 0.19853 0.07086 0.0
C293 C 0.51956 0.01685 0.11974 0.0
C294 C 0.54684 0.03569 0.14302 0.0
C295 C 0.58893 0.07324 0.13812 0.0
C296 C 0.53303 0.01382 0.1702 0.0
C297 C 0.56159 0.02889 0.19205 0.0
C298 C 0.61767 0.08784 0.15958 0.0
C299 C 0.60444 0.06547 0.18639 0.0
C300 C 0.47356 0.06325 1.01361 0.0
C301 C 0.58899 0.05296 1.01253 0.0
C302 C 0.51952 0.01568 0.94662 0.0
C303 C 0.55121 0.01808 0.92443 0.0
C304 C 0.58978 0.01306 0.93073 0.0
C305 C 0.54396 0.02727 0.89658 0.0
C306 C 0.57497 0.03132 0.87524 0.0
C307 C 0.6199 0.01594 0.90956 0.0
C308 C 0.61248 0.02485 0.8819 0.0
C309 C 0.54369 0.95625 0.05419 0.0
H310 H 0.60012 0.09098 0.11773 0.0
H311 H 0.50039 0.98496 0.17435 0.0
H312 H 0.65034 0.11653 0.15537 0.0
H313 H 0.62699 0.07725 0.20289 0.0
H314 H 0.59714 0.00747 0.9519 0.0
H315 H 0.51491 0.03224 0.89147 0.0
H316 H 0.64938 0.01177 0.91464 0.0
H317 H 0.63632 0.02728 0.86572 0.0
Gd318 Gd 0.97718 0.50467 0.06543 0.0
Gd319 Gd 0.03664 0.53794 0.99444 0.0
C320 C 0.18003 0.5511 0.98231 0.0
C321 C 0.22782 0.62776 0.97149 0.0
C322 C 0.14511 0.59693 0.97888 0.0
C323 C 0.14099 0.55686 0.9843 0.0
C324 C 0.1884 0.63285 0.97156 0.0
C325 C 0.22363 0.58687 0.97684 0.0
C326 C 0.17378 0.50959 0.98454 0.0
C327 C 0.12938 0.47544 0.98704 0.0
N328 N 0.09828 0.5232 0.98927 0.0
C329 C 0.09194 0.4831 0.98878 0.0
H330 H 0.05805 0.45695 0.99018 0.0
C331 C 0.10778 0.6382 0.96841 0.0
N332 N 0.10617 0.60033 0.97874 0.0
C333 C 0.14988 0.67493 0.96125 0.0
C334 C 0.19048 0.67244 0.9634 0.0
H335 H 0.07665 0.64034 0.96593 0.0
H336 H 0.25409 0.58317 0.97566 0.0
H337 H 0.97716 0.5971 0.07193 0.0
H338 H 0.20278 0.50372 0.98308 0.0
H339 H 0.12386 0.44324 0.9876 0.0
H340 H 0.26146 0.65502 0.96628 0.0
H341 H 0.9202 0.39911 0.08882 0.0
H342 H 0.83849 0.5709 0.08359 0.0
H343 H 0.92125 0.62196 0.07846 0.0
H344 H 0.75433 0.41907 0.09576 0.0
H345 H 0.15093 0.70505 0.95389 0.0
H346 H 0.22304 0.70085 0.95763 0.0
H347 H 0.77684 0.49516 0.09041 0.0
H348 H 0.84033 0.34319 0.10102 0.0
N349 N 0.9269 0.53263 0.07075 0.0
C350 C 0.86293 0.55973 0.08018 0.0
C351 C 0.9096 0.58863 0.07735 0.0
C352 C 0.84858 0.51642 0.0804 0.0
C353 C 0.88179 0.50348 0.07589 0.0
C354 C 0.94132 0.57434 0.07319 0.0
N355 N 0.90275 0.44891 0.07909 0.0
C356 C 0.86934 0.4604 0.08 0.0
C357 C 0.84795 0.37595 0.09497 0.0
C358 C 0.81276 0.38676 0.09428 0.0
C359 C 0.89315 0.40774 0.0881 0.0
C360 C 0.82334 0.4295 0.08765 0.0
H361 H 0.77782 0.36214 0.10009 0.0
O362 O 0.0295 0.51791 0.09512 0.0
O363 O 0.03126 0.50588 0.03804 0.0
O364 O 0.98196 0.46721 0.99958 0.0
O365 O 0.93516 0.45189 0.03993 0.0
O366 O 0.99862 0.45428 0.06906 0.0
O367 O 0.96063 0.49785 0.10993 0.0
O368 O 0.00976 0.55559 0.95744 0.0
O369 O 0.97881 0.53137 0.0215 0.0
O370 O 0.02995 0.5759 0.05893 0.0
O371 O 0.08002 0.58949 0.02033 0.0
O372 O 0.0066 0.58285 0.99088 0.0
O373 O 0.02765 0.50518 0.95818 0.0
C374 C 0.03002 0.47125 0.04894 0.0
C375 C 0.78982 0.44233 0.09003 0.0
C376 C 0.80256 0.48567 0.08683 0.0
C377 C 0.00188 0.50774 0.11687 0.0
C378 C 0.00673 0.48066 0.14086 0.0
C379 C 0.99783 0.43902 0.13872 0.0
C380 C 0.02133 0.4968 0.16607 0.0
C381 C 0.02736 0.4716 0.18877 0.0
C382 C 0.00407 0.41416 0.16104 0.0
C383 C 0.01892 0.43032 0.18585 0.0
C384 C 0.9439 0.44215 0.01599 0.0
C385 C 0.97497 0.56333 1.01072 0.0
C386 C 0.01203 0.52797 0.94366 0.0
C387 C 0.02761 0.54281 0.91402 0.0
C388 C 0.06732 0.58156 0.90561 0.0
C389 C 0.99979 0.52013 0.89377 0.0
C390 C 0.01064 0.53686 0.86532 0.0
C391 C 0.07829 0.59822 0.87749 0.0
C392 C 0.04988 0.5764 0.85749 0.0
C393 C 0.06918 0.59978 0.04342 0.0
H394 H 0.98618 0.42562 0.11984 0.0
H395 H 0.02824 0.52889 0.16801 0.0
H396 H 0.9974 0.38219 0.15908 0.0
H397 H 0.02364 0.41054 0.20287 0.0
H398 H 0.08926 0.59939 0.92077 0.0
H399 H 0.96916 0.49004 0.90013 0.0
H400 H 0.10869 0.62841 0.87119 0.0
H401 H 0.05883 0.59006 0.8358 0.0
Gd402 Gd 0.47276 0.51052 1.00279 0.0
Gd403 Gd 0.50461 0.48624 0.07378 0.0
C404 C 0.65163 0.50988 0.08155 0.0
C405 C 0.64128 0.43792 0.09132 0.0
C406 C 0.57532 0.44979 0.08553 0.0
C407 C 0.6039 0.49322 0.07999 0.0
C408 C 0.59359 0.42165 0.09188 0.0
C409 C 0.67017 0.48199 0.08645 0.0
C410 C 0.67891 0.55394 0.08013 0.0
C411 C 0.65801 0.57973 0.07931 0.0
N412 N 0.58465 0.51924 0.07644 0.0
C413 C 0.61043 0.56148 0.07825 0.0
H414 H 0.59442 0.58096 0.07982 0.0
C415 C 0.49997 0.3935 0.09702 0.0
N416 N 0.52947 0.43534 0.08702 0.0
C417 C 0.51638 0.36428 0.10296 0.0
C418 C 0.56339 0.3783 0.09994 0.0
H419 H 0.46351 0.38251 0.09927 0.0
H420 H 0.70664 0.49428 0.08784 0.0
H421 H 0.37375 0.42244 1.00274 0.0
H422 H 0.71571 0.56802 0.08126 0.0
H423 H 0.6784 0.61353 0.07993 0.0
H424 H 0.65604 0.41687 0.09596 0.0
H425 H 0.53089 0.61595 0.97942 0.0
H426 H 0.26961 0.45565 0.97992 0.0
H427 H 0.29307 0.40058 0.99408 0.0
H428 H 0.35091 0.60775 0.96268 0.0
H429 H 0.49279 0.33103 0.10994 0.0
H430 H 0.5761 0.3557 0.10487 0.0
H431 H 0.29056 0.53286 0.97052 0.0
H432 H 0.51475 0.6748 0.9634 0.0
N433 N 0.39474 0.48824 0.99661 0.0
C434 C 0.30448 0.46507 0.98515 0.0
C435 C 0.31773 0.434 0.99282 0.0
C436 C 0.33692 0.50806 0.983 0.0
C437 C 0.38258 0.51874 0.98835 0.0
C438 C 0.36336 0.44633 0.99816 0.0
N439 N 0.4605 0.5688 0.9859 0.0
C440 C 0.41655 0.56047 0.98301 0.0
C441 C 0.48676 0.64281 0.96892 0.0
C442 C 0.44155 0.63487 0.9669 0.0
C443 C 0.49573 0.60918 0.97798 0.0
C444 C 0.40579 0.59319 0.97342 0.0
H445 H 0.43471 0.66091 0.9596 0.0
O446 O 0.51624 0.53447 0.9641 0.0
O447 O 0.52739 0.50943 0.02911 0.0
O448 O 0.51815 0.55561 0.06438 0.0
O449 O 0.47352 0.55921 0.02799 0.0
O450 O 0.54716 0.55945 0.99786 0.0
O451 O 0.45677 0.47232 0.96912 0.0
O452 O 0.49181 0.52007 0.10426 0.0
O453 O 0.44849 0.48329 0.04768 0.0
O454 O 0.45637 0.44072 1.01081 0.0
O455 O 0.49563 0.43364 0.04921 0.0
O456 O 0.43157 0.4344 0.07965 0.0
O457 O 0.49583 0.46307 0.118 0.0
C458 C 0.56197 0.54268 0.0174 0.0
C459 C 0.35994 0.58307 0.96984 0.0
C460 C 0.32557 0.54048 0.97438 0.0
C461 C 0.49173 0.50075 0.95261 0.0
C462 C 0.48439 0.50735 0.9227 0.0
C463 C 0.44591 0.51124 0.91463 0.0
C464 C 0.51505 0.50808 0.90202 0.0
C465 C 0.50594 0.51068 0.87354 0.0
C466 C 0.43727 0.51471 0.88663 0.0
C467 C 0.46661 0.51402 0.86636 0.0
C468 C 0.49826 0.575 0.049 0.0
C469 C 0.41515 0.44897 0.05975 0.0
C470 C 0.48787 0.4924 0.12546 0.0
C471 C 0.44944 0.47804 0.14675 0.0
C472 C 0.40658 0.44315 0.14399 0.0
C473 C 0.45639 0.49723 0.17114 0.0
C474 C 0.42102 0.4811 0.19255 0.0
C475 C 0.37171 0.42727 0.16509 0.0
C476 C 0.37903 0.44572 0.18935 0.0
C477 C 0.47361 0.4198 0.02696 0.0
H478 H 0.42224 0.51108 0.93003 0.0
H479 H 0.54509 0.50544 0.90809 0.0
H480 H 0.40727 0.51739 0.88061 0.0
H481 H 0.4584 0.5159 0.84486 0.0
H482 H 0.40005 0.42739 0.12588 0.0
H483 H 0.48922 0.52417 0.17364 0.0
H484 H 0.33901 0.40022 0.16268 0.0
H485 H 0.35195 0.43255 0.20573 0.0
Gd486 Gd 0.19276 0.3621 0.40507 0.0
Gd487 Gd 0.17497 0.32141 0.33876 0.0
C488 C 0.05035 0.19364 0.332 0.0
C489 C 0.08445 0.14731 0.33047 0.0
C490 C 0.13268 0.22261 0.33333 0.0
C491 C 0.09404 0.22817 0.33438 0.0
C492 C 0.12822 0.18231 0.33057 0.0
C493 C 0.04563 0.153 0.33104 0.0
C494 C 0.01295 0.20133 0.32918 0.0
C495 C 0.01956 0.24261 0.32836 0.0
N496 N 0.09944 0.2679 0.33523 0.0
C497 C 0.06322 0.27572 0.33122 0.0
H498 H 0.06717 0.30728 0.33006 0.0
C499 C 0.21342 0.2544 0.32668 0.0
N500 N 0.17477 0.25713 0.33304 0.0
C501 C 0.21066 0.21505 0.32429 0.0
C502 C 0.16791 0.1787 0.32672 0.0
H503 H 0.2466 0.28219 0.32523 0.0
H504 H 0.01222 0.12605 0.3297 0.0
H505 H 0.21539 0.30772 0.45928 0.0
H506 H 0.97918 0.17597 0.32646 0.0
H507 H 0.99102 0.24903 0.32539 0.0
H508 H 0.0804 0.11604 0.32877 0.0
H509 H 0.22267 0.46349 0.37593 0.0
H510 H 0.35661 0.37749 0.4747 0.0
H511 H 0.28174 0.31248 0.48437 0.0
H512 H 0.40072 0.5146 0.42389 0.0
H513 H 0.24152 0.21279 0.32058 0.0
H514 H 0.16583 0.1483 0.32452 0.0
H515 H 0.40067 0.4531 0.45209 0.0
H516 H 0.28681 0.53464 0.37412 0.0
N517 N 0.25415 0.36542 0.43167 0.0
C518 C 0.32805 0.37461 0.46271 0.0
C519 C 0.28586 0.33796 0.46829 0.0
C520 C 0.33174 0.40851 0.44341 0.0
C521 C 0.29364 0.40299 0.42804 0.0
C522 C 0.24852 0.33502 0.45368 0.0
N523 N 0.25574 0.43185 0.39864 0.0
C524 C 0.29414 0.43744 0.41149 0.0
C525 C 0.28957 0.50753 0.3844 0.0
C526 C 0.32934 0.51352 0.39697 0.0
C527 C 0.253 0.46648 0.38546 0.0
C528 C 0.33228 0.4784 0.41055 0.0
H529 H 0.35682 0.54554 0.397 0.0
O530 O 0.17777 0.40429 0.42635 0.0
O531 O 0.13905 0.31898 0.37849 0.0
O532 O 0.13794 0.36065 0.33872 0.0
O533 O 0.16222 0.39677 0.37684 0.0
O534 O 0.13472 0.29633 0.42001 0.0
O535 O 0.15767 0.34067 0.44636 0.0
O536 O 0.21389 0.36954 0.30368 0.0
O537 O 0.21965 0.37587 0.36118 0.0
O538 O 0.22577 0.31903 0.40455 0.0
O539 O 0.19119 0.27874 0.36954 0.0
O540 O 0.25268 0.35266 0.33846 0.0
O541 O 0.15679 0.31168 0.29597 0.0
C542 C 0.11604 0.28694 0.39707 0.0
C543 C 0.37111 0.48345 0.42452 0.0
C544 C 0.37108 0.44843 0.44061 0.0
C545 C 0.16601 0.37875 0.44985 0.0
C546 C 0.19312 0.39535 0.47394 0.0
C547 C 0.23322 0.43505 0.47027 0.0
C548 C 0.18214 0.36956 0.5001 0.0
C549 C 0.2115 0.38276 0.52189 0.0
C550 C 0.26264 0.4478 0.49164 0.0
C551 C 0.2522 0.42168 0.51719 0.0
C552 C 0.14263 0.39137 0.35282 0.0
C553 C 0.25914 0.38248 0.35295 0.0
C554 C 0.19168 0.34698 0.28492 0.0
C555 C 0.22016 0.34495 0.26251 0.0
C556 C 0.25768 0.33813 0.26864 0.0
C557 C 0.21205 0.35298 0.23463 0.0
C558 C 0.24113 0.35399 0.21317 0.0
C559 C 0.28566 0.33779 0.24739 0.0
C560 C 0.27744 0.3456 0.21974 0.0
C561 C 0.21422 0.28527 0.39202 0.0
H562 H 0.24266 0.45594 0.45064 0.0
H563 H 0.15127 0.339 0.5034 0.0
H564 H 0.29383 0.47802 0.48831 0.0
H565 H 0.27539 0.43219 0.53356 0.0
H566 H 0.26614 0.33416 0.28978 0.0
H567 H 0.18415 0.35973 0.22959 0.0
H568 H 0.31436 0.33232 0.25238 0.0
H569 H 0.29987 0.34594 0.20347 0.0
Gd570 Gd 0.63948 0.8403 0.39703 0.0
Gd571 Gd 0.70034 0.87256 0.32524 0.0
C572 C 0.83956 0.87721 0.31173 0.0
C573 C 0.89157 0.95329 0.30281 0.0
C574 C 0.80953 0.92668 0.31049 0.0
C575 C 0.80249 0.88558 0.31489 0.0
C576 C 0.85394 0.96107 0.30342 0.0
C577 C 0.88436 0.91131 0.30685 0.0
C578 C 0.8302 0.83501 0.31204 0.0
C579 C 0.78473 0.80285 0.31402 0.0
N580 N 0.7587 0.85367 0.31916 0.0
C581 C 0.74933 0.81306 0.31694 0.0
H582 H 0.71461 0.78868 0.31699 0.0
C583 C 0.77636 0.9714 0.29976 0.0
N584 N 0.77216 0.93256 0.31026 0.0
C585 C 0.81966 1.00679 0.29308 0.0
C586 C 0.85878 1.0018 0.2956 0.0
H587 H 0.74624 0.97513 0.29669 0.0
H588 H 0.91336 0.90552 0.30495 0.0
H589 H 0.63585 0.9294 0.40453 0.0
H590 H 0.85763 0.82724 0.30951 0.0
H591 H 0.77687 0.77029 0.31304 0.0
H592 H 0.92605 0.97931 0.29784 0.0
H593 H 0.58601 0.73535 0.41888 0.0
H594 H 0.49662 0.90017 0.41989 0.0
H595 H 0.57889 0.95281 0.41292 0.0
H596 H 0.41564 0.74783 0.42937 0.0
H597 H 0.82279 0.03774 0.28568 0.0
H598 H 0.89227 0.02911 0.29004 0.0
H599 H 0.4354 0.82349 0.42475 0.0
H600 H 0.50714 0.67686 0.43149 0.0
N601 N 0.58639 0.8647 0.40425 0.0
C602 C 0.52142 0.88985 0.41545 0.0
C603 C 0.56782 0.91962 0.41166 0.0
C604 C 0.50785 0.84681 0.41494 0.0
C605 C 0.54175 0.83508 0.40966 0.0
C606 C 0.60004 0.90627 0.40651 0.0
N607 N 0.56558 0.78331 0.41126 0.0
C608 C 0.53089 0.7928 0.41306 0.0
C609 C 0.51327 0.70931 0.42623 0.0
C610 C 0.47678 0.71837 0.4266 0.0
C611 C 0.55784 0.74247 0.4192 0.0
C612 C 0.4855 0.76068 0.42077 0.0
H613 H 0.44236 0.69273 0.43245 0.0
O614 O 0.65398 0.81269 0.43573 0.0
O615 O 0.69287 0.84189 0.36889 0.0
O616 O 0.64629 0.80132 0.33257 0.0
O617 O 0.59649 0.7893 0.37083 0.0
O618 O 0.67103 0.79734 0.40423 0.0
O619 O 0.66532 0.87745 0.4309 0.0
O620 O 0.67274 0.8918 0.28913 0.0
O621 O 0.64382 0.86726 0.35274 0.0
O622 O 0.69324 0.91109 0.38944 0.0
O623 O 0.74384 0.92397 0.35116 0.0
O624 O 0.67209 0.91868 0.32162 0.0
O625 O 0.68789 0.83998 0.2887 0.0
C626 C 0.69832 0.81213 0.38222 0.0
C627 C 0.45082 0.77202 0.42375 0.0
C628 C 0.46206 0.81509 0.42107 0.0
C629 C 0.6664 0.84655 0.44753 0.0
C630 C 0.64904 0.83973 0.47661 0.0
C631 C 0.60464 0.83294 0.4828 0.0
C632 C 0.67763 0.84129 0.49838 0.0
C633 C 0.66266 0.83816 0.52616 0.0
C634 C 0.58923 0.8287 0.51028 0.0
C635 C 0.61805 0.83167 0.53176 0.0
C636 C 0.60717 0.77736 0.34841 0.0
C637 C 0.64116 0.89987 0.34193 0.0
C638 C 0.67363 0.86427 0.27472 0.0
C639 C 0.69023 0.88019 0.24531 0.0
C640 C 0.73101 0.91832 0.23767 0.0
C641 C 0.66281 0.859 0.22452 0.0
C642 C 0.6752 0.87658 0.1963 0.0
C643 C 0.74338 0.93593 0.20977 0.0
C644 C 0.71538 0.91557 0.1892 0.0
C645 C 0.73249 0.9347 0.37396 0.0
H646 H 0.58213 0.83136 0.46638 0.0
H647 H 0.71196 0.84642 0.49368 0.0
H648 H 0.555 0.82372 0.51492 0.0
H649 H 0.60565 0.8293 0.55283 0.0
H650 H 0.75284 0.93488 0.25324 0.0
H651 H 0.63143 0.82931 0.23025 0.0
H652 H 0.77462 0.96565 0.20409 0.0
H653 H 0.72543 0.9298 0.16767 0.0
Gd654 Gd 0.14113 0.83985 0.33312 0.0
Gd655 Gd 0.16306 0.8087 0.40618 0.0
C656 C 0.29546 0.80098 0.42139 0.0
C657 C 0.2671 0.72482 0.4334 0.0
C658 C 0.214 0.75303 0.42438 0.0
C659 C 0.25002 0.79355 0.41871 0.0
C660 C 0.22187 0.71819 0.43273 0.0
C661 C 0.30392 0.76626 0.42774 0.0
C662 C 0.3306 0.84309 0.41898 0.0
C663 C 0.31951 0.87617 0.41567 0.0
N664 N 0.24027 0.82609 0.41287 0.0
C665 C 0.27375 0.86681 0.41339 0.0
H666 H 0.26511 0.89196 0.41225 0.0
C667 C 0.13451 0.71014 0.43481 0.0
N668 N 0.17103 0.74827 0.42402 0.0
C669 C 0.14033 0.6744 0.44298 0.0
C670 C 0.18414 0.67822 0.44135 0.0
H671 H 0.1007 0.70709 0.43689 0.0
H672 H 0.33862 0.77123 0.42944 0.0
H673 H 0.04882 0.7493 0.32245 0.0
H674 H 0.36592 0.85026 0.4211 0.0
H675 H 0.34605 0.90881 0.41516 0.0
H676 H 0.2739 0.6984 0.43937 0.0
H677 H 0.19347 0.94589 0.30978 0.0
H678 H 0.93739 0.77543 0.30855 0.0
H679 H 0.96786 0.72452 0.31376 0.0
H680 H 0.00723 0.92653 0.30259 0.0
H681 H 0.11106 0.64403 0.45071 0.0
H682 H 0.18865 0.6506 0.44793 0.0
H683 H 0.95156 0.85053 0.3065 0.0
H684 H 0.17128 1.00204 0.29756 0.0
N685 N 0.06302 0.81258 0.3259 0.0
C686 C 0.97249 0.78614 0.31379 0.0
C687 C 0.98968 0.75737 0.31645 0.0
C688 C 0.00169 0.82902 0.31571 0.0
C689 C 0.04782 0.84174 0.32111 0.0
C690 C 0.03555 0.77143 0.32193 0.0
N691 N 0.12477 0.89614 0.31893 0.0
C692 C 0.07959 0.88479 0.31775 0.0
C693 C 0.14517 0.96925 0.30334 0.0
C694 C 0.0989 0.95859 0.30403 0.0
C695 C 0.15759 0.93733 0.31005 0.0
C696 C 0.06546 0.91583 0.31036 0.0
H697 H 0.08937 0.98333 0.29842 0.0
O698 O 0.18368 0.8296 0.30418 0.0
O699 O 0.19194 0.83896 0.36237 0.0
O700 O 0.18218 0.87946 0.39858 0.0
O701 O 0.15075 0.89255 0.35778 0.0
O702 O 0.21486 0.88871 0.32995 0.0
O703 O 0.13127 0.84299 0.2885 0.0
O704 O 0.11433 0.79443 0.44097 0.0
O705 O 0.11307 0.81235 0.37681 0.0
O706 O 0.12094 0.76891 0.34102 0.0
O707 O 0.15177 0.75463 0.38225 0.0
O708 O 0.08796 0.7618 0.40856 0.0
O709 O 0.18437 0.84152 0.4427 0.0
C710 C 0.2275 0.87218 0.35108 0.0
C711 C 0.01877 0.90312 0.3079 0.0
C712 C 0.98701 0.8598 0.31026 0.0
C713 C 0.16513 0.83643 0.28207 0.0
C714 C 0.19706 0.86459 0.25788 0.0
C715 C 0.22657 0.90769 0.2595 0.0
C716 C 0.19904 0.84843 0.23315 0.0
C717 C 0.23011 0.87537 0.21038 0.0
C718 C 0.25728 0.93423 0.23712 0.0
C719 C 0.25904 0.91829 0.21273 0.0
C720 C 0.16988 0.90361 0.38134 0.0
C721 C 0.07689 0.77936 0.3873 0.0
C722 C 0.14392 0.82098 0.45572 0.0
C723 C 0.14072 0.80554 0.48579 0.0
C724 C 0.1418 0.76745 0.49467 0.0
C725 C 0.13411 0.8277 0.50586 0.0
C726 C 0.12808 0.81137 0.53447 0.0
C727 C 0.13534 0.75102 0.52282 0.0
C728 C 0.12827 0.7726 0.54257 0.0
C729 C 0.13292 0.74456 0.35835 0.0
H730 H 0.22605 0.92091 0.27809 0.0
H731 H 0.17654 0.81521 0.23156 0.0
H732 H 0.27984 0.96741 0.23868 0.0
H733 H 0.28297 0.9395 0.19558 0.0
H734 H 0.14728 0.75019 0.47984 0.0
H735 H 0.13375 0.85744 0.49932 0.0
H736 H 0.13595 0.72143 0.52939 0.0
H737 H 0.12385 0.75948 0.56433 0.0
Gd738 Gd 0.86516 0.69995 0.73297 0.0
Gd739 Gd 0.84568 0.6524 0.66836 0.0
C740 C 0.73464 0.51599 0.66475 0.0
C741 C 0.77897 0.47865 0.66236 0.0
C742 C 0.81726 0.55469 0.66458 0.0
C743 C 0.77536 0.55403 0.66642 0.0
C744 C 0.81961 0.51727 0.66175 0.0
C745 C 0.73652 0.47805 0.66368 0.0
C746 C 0.69356 0.51768 0.66257 0.0
C747 C 0.69376 0.5566 0.66192 0.0
N748 N 0.77471 0.59133 0.66709 0.0
C749 C 0.73499 0.59338 0.66386 0.0
H750 H 0.73525 0.62361 0.66239 0.0
C751 C 0.89765 0.59641 0.656 0.0
N752 N 0.85594 0.59286 0.66326 0.0
C753 C 0.90172 0.56007 0.65348 0.0
C754 C 0.86264 0.52022 0.6569 0.0
H755 H 0.92798 0.62714 0.65304 0.0
H756 H 0.70548 0.44841 0.66284 0.0
H757 H 0.96866 0.70474 0.73418 0.0
H758 H 0.6619 0.48943 0.66021 0.0
H759 H 0.6623 0.55842 0.65954 0.0
H760 H 0.78005 0.44945 0.66057 0.0
H761 H 0.80584 0.74659 0.75218 0.0
H762 H 0.06931 0.83199 0.74074 0.0
H763 H 0.04852 0.75705 0.73852 0.0
H764 H 0.98118 0.90447 0.74639 0.0
H765 H 0.93497 0.56287 0.64874 0.0
H766 H 0.86585 0.49223 0.65453 0.0
H767 H 0.04372 0.8867 0.74387 0.0
H768 H 0.81811 0.81873 0.75664 0.0
N769 N 0.9436 0.74958 0.73261 0.0
C770 C 0.03404 0.80932 0.73827 0.0
C771 C 0.0224 0.76696 0.73727 0.0
C772 C 0.99975 0.82144 0.7374 0.0
C773 C 0.9542 0.7904 0.73468 0.0
C774 C 0.97679 0.73731 0.7347 0.0
N775 N 0.87528 0.76741 0.73963 0.0
C776 C 0.91879 0.79975 0.7378 0.0
C777 C 0.84673 0.81403 0.75099 0.0
C778 C 0.8911 0.8482 0.74767 0.0
C779 C 0.83969 0.7734 0.7479 0.0
C780 C 0.92797 0.84096 0.74216 0.0
H781 H 0.89673 0.87945 0.75091 0.0
O782 O 0.83817 0.6961 0.77484 0.0
O783 O 0.8166 0.64615 0.71144 0.0
O784 O 0.80777 0.69193 0.66912 0.0
O785 O 0.84095 0.73736 0.7024 0.0
O786 O 0.78734 0.66487 0.73999 0.0
O787 O 0.88446 0.67089 0.76841 0.0
O788 O 0.88641 0.68208 0.62916 0.0
O789 O 0.89069 0.70906 0.68893 0.0
O790 O 0.89142 0.65114 0.73592 0.0
O791 O 0.86297 0.61128 0.69973 0.0
O792 O 0.92326 0.69126 0.66207 0.0
O793 O 0.81301 0.65433 0.62962 0.0
C794 C 0.77792 0.63818 0.7226 0.0
C795 C 0.97345 0.87273 0.74288 0.0
C796 C 0.00915 0.8627 0.74119 0.0
C797 C 0.86194 0.67893 0.78655 0.0
C798 C 0.88731 0.69645 0.81066 0.0
C799 C 0.93005 0.73342 0.80709 0.0
C800 C 0.87076 0.67367 0.83741 0.0
C801 C 0.89704 0.68732 0.86032 0.0
C802 C 0.95631 0.74693 0.82973 0.0
C803 C 0.94018 0.72378 0.85622 0.0
C804 C 0.81595 0.72634 0.68061 0.0
C805 C 0.93009 0.71937 0.67795 0.0
C806 C 0.8513 0.67186 0.61423 0.0
C807 C 0.85261 0.6524 0.58954 0.0
C808 C 0.84861 0.61152 0.59244 0.0
C809 C 0.86063 0.6757 0.5628 0.0
C810 C 0.86573 0.65854 0.53939 0.0
C811 C 0.85477 0.5949 0.56944 0.0
C812 C 0.86389 0.61846 0.54305 0.0
C813 C 0.8826 0.61774 0.72344 0.0
H814 H 0.94363 0.75138 0.78683 0.0
H815 H 0.83782 0.64501 0.8404 0.0
H816 H 0.98942 0.77526 0.82668 0.0
H817 H 0.96094 0.73457 0.8736 0.0
H818 H 0.84097 0.59239 0.6124 0.0
H819 H 0.86284 0.70697 0.56017 0.0
H820 H 0.85219 0.56353 0.57207 0.0
H821 H 0.86803 0.6049 0.52533 0.0
Gd822 Gd 0.31363 0.18272 0.72655 0.0
Gd823 Gd 0.37343 0.21252 0.65532 0.0
C824 C 0.50963 0.21068 0.64433 0.0
C825 C 0.56434 0.28605 0.63451 0.0
C826 C 0.48281 0.26268 0.64111 0.0
C827 C 0.47382 0.22102 0.64639 0.0
C828 C 0.52798 0.29571 0.63411 0.0
C829 C 0.55515 0.24348 0.63954 0.0
C830 C 0.49832 0.16785 0.64542 0.0
C831 C 0.45229 0.137 0.64715 0.0
N832 N 0.42943 0.1904 0.65059 0.0
C833 C 0.41823 0.14915 0.6491 0.0
H834 H 0.3831 0.12572 0.64908 0.0
C835 C 0.45281 0.3097 0.6289 0.0
N836 N 0.44663 0.27037 0.64007 0.0
C837 C 0.49696 0.34379 0.62219 0.0
C838 C 0.53485 0.33698 0.62544 0.0
H839 H 0.42361 0.31483 0.62553 0.0
H840 H 0.58321 0.23621 0.63843 0.0
H841 H 0.31807 0.27648 0.73159 0.0
H842 H 0.52465 0.15856 0.64335 0.0
H843 H 0.44299 0.10397 0.64667 0.0
H844 H 0.59937 0.31102 0.6296 0.0
H845 H 0.25386 0.07798 0.74789 0.0
H846 H 0.18357 0.25587 0.75187 0.0
H847 H 0.26623 0.30474 0.74118 0.0
H848 H 0.0935 0.10408 0.7652 0.0
H849 H 0.50168 0.37516 0.61425 0.0
H850 H 0.569 0.36329 0.61989 0.0
H851 H 0.11944 0.1811 0.7604 0.0
H852 H 0.17396 0.02348 0.7626 0.0
N853 N 0.26521 0.21229 0.73379 0.0
C854 C 0.20603 0.24332 0.74667 0.0
C855 C 0.25266 0.27096 0.74078 0.0
C856 C 0.18935 0.19958 0.74719 0.0
C857 C 0.22026 0.18484 0.7408 0.0
C858 C 0.28197 0.25473 0.73489 0.0
N859 N 0.23836 0.12928 0.74159 0.0
C860 C 0.20627 0.1418 0.74457 0.0
C861 C 0.18249 0.05662 0.75748 0.0
C862 C 0.14861 0.06885 0.75942 0.0
C863 C 0.22765 0.08753 0.74922 0.0
C864 C 0.16051 0.11201 0.75371 0.0
H865 H 0.11379 0.04496 0.76632 0.0
O866 O 0.323 0.1528 0.76613 0.0
O867 O 0.36749 0.18309 0.69927 0.0
O868 O 0.31666 0.14202 0.6627 0.0
O869 O 0.26755 0.13285 0.70049 0.0
O870 O 0.34027 0.13575 0.73283 0.0
O871 O 0.34502 0.22029 0.75946 0.0
O872 O 0.34798 0.23285 0.61864 0.0
O873 O 0.31671 0.20849 0.68207 0.0
O874 O 0.36956 0.25249 0.7194 0.0
O875 O 0.41777 0.26567 0.67995 0.0
O876 O 0.34773 0.2605 0.65153 0.0
O877 O 0.36049 0.17932 0.619 0.0
C878 C 0.36967 0.15098 0.71181 0.0
C879 C 0.12882 0.12641 0.75824 0.0
C880 C 0.14342 0.17018 0.75536 0.0
C881 C 0.34095 0.18793 0.77699 0.0
C882 C 0.32492 0.18534 0.80577 0.0
C883 C 0.2839 0.18613 0.81117 0.0
C884 C 0.35197 0.18427 0.82793 0.0
C885 C 0.33916 0.18618 0.85519 0.0
C886 C 0.27047 0.18692 0.83814 0.0
C887 C 0.29801 0.18739 0.85991 0.0
C888 C 0.27709 0.11964 0.67834 0.0
C889 C 0.31565 0.24197 0.67122 0.0
C890 C 0.34763 0.20441 0.60463 0.0
C891 C 0.36399 0.21913 0.57513 0.0
C892 C 0.4034 0.25819 0.56676 0.0
C893 C 0.33713 0.19587 0.55486 0.0
C894 C 0.34856 0.21227 0.52645 0.0
C895 C 0.41494 0.27454 0.53863 0.0
C896 C 0.38738 0.25207 0.51858 0.0
C897 C 0.40781 0.27637 0.70318 0.0
H898 H 0.26262 0.18676 0.79447 0.0
H899 H 0.38365 0.18351 0.82388 0.0
H900 H 0.23892 0.18785 0.84213 0.0
H901 H 0.28731 0.18899 0.88056 0.0
H902 H 0.42467 0.2765 0.58191 0.0
H903 H 0.30674 0.16555 0.56117 0.0
H904 H 0.44507 0.30496 0.53237 0.0
H905 H 0.39665 0.2654 0.49686 0.0
Gd906 Gd 0.81054 0.17225 0.6691 0.0
Gd907 Gd 0.83861 0.14415 0.74128 0.0
C908 C 0.98715 0.1705 0.74801 0.0
C909 C 0.97909 0.09926 0.75358 0.0
C910 C 0.91179 0.10947 0.75101 0.0
C911 C 0.9392 0.15285 0.74727 0.0
C912 C 0.93121 0.082 0.75537 0.0
C913 C 0.00703 0.14353 0.74993 0.0
C914 C 0.01322 0.21434 0.74831 0.0
C915 C 0.99087 0.23857 0.75001 0.0
N916 N 0.91854 0.1776 0.74571 0.0
C917 C 0.9431 0.21916 0.74954 0.0
H918 H 0.92591 0.23709 0.75313 0.0
C919 C 0.83769 0.05232 0.76345 0.0
N920 N 0.86591 0.09432 0.75321 0.0
C921 C 0.85504 0.02356 0.76759 0.0
C922 C 0.90198 0.03834 0.76285 0.0
H923 H 0.80141 0.04081 0.76734 0.0
H924 H 0.04374 0.15642 0.74996 0.0
H925 H 0.71656 0.08119 0.66167 0.0
H926 H 0.05015 0.22925 0.74889 0.0
H927 H 0.01028 0.27196 0.75211 0.0
H928 H 0.99477 0.07874 0.75635 0.0
H929 H 0.86355 0.27743 0.64776 0.0
H930 H 0.6071 0.10822 0.64188 0.0
H931 H 0.63633 0.05657 0.6513 0.0
H932 H 0.6798 0.26055 0.63058 0.0
H933 H 0.83224 0.99012 0.77453 0.0
H934 H 0.91549 0.01614 0.76635 0.0
H935 H 0.62327 0.18449 0.63512 0.0
H936 H 0.84349 0.33459 0.63323 0.0
N937 N 0.73265 0.14608 0.66021 0.0
C938 C 0.64234 0.11922 0.64695 0.0
C939 C 0.65872 0.09 0.6522 0.0
C940 C 0.67221 0.16253 0.64705 0.0
C941 C 0.71793 0.17514 0.65342 0.0
C942 C 0.70433 0.10414 0.65844 0.0
N943 N 0.79423 0.22818 0.65333 0.0
C944 C 0.74979 0.2177 0.65007 0.0
C945 C 0.81675 0.30186 0.63801 0.0
C946 C 0.77085 0.29175 0.63597 0.0
C947 C 0.82799 0.26942 0.64611 0.0
C948 C 0.73677 0.24914 0.64132 0.0
H949 H 0.76224 0.31687 0.62935 0.0
O950 O 0.85409 0.20073 0.63049 0.0
O951 O 0.86338 0.17021 0.69684 0.0
O952 O 0.85196 0.2136 0.7333 0.0
O953 O 0.8123 0.22104 0.69496 0.0
O954 O 0.8853 0.2186 0.664 0.0
O955 O 0.80179 0.13486 0.63577 0.0
O956 O 0.83669 0.17987 0.77418 0.0
O957 O 0.78638 0.14675 0.71367 0.0
O958 O 0.79135 0.10187 0.67693 0.0
O959 O 0.82512 0.08989 0.71703 0.0
O960 O 0.76319 0.09644 0.74512 0.0
O961 O 0.81391 0.11278 0.7835 0.0
C962 C 0.89876 0.20259 0.68477 0.0
C963 C 0.69059 0.23689 0.63704 0.0
C964 C 0.6584 0.1936 0.63967 0.0
C965 C 0.83421 0.16614 0.61912 0.0
C966 C 0.82469 0.17072 0.58955 0.0
C967 C 0.78397 0.17098 0.58233 0.0
C968 C 0.85522 0.17256 0.56841 0.0
C969 C 0.84381 0.17244 0.54036 0.0
C970 C 0.77305 0.17188 0.55469 0.0
C971 C 0.80232 0.17213 0.53397 0.0
C972 C 0.83492 0.23491 0.71711 0.0
C973 C 0.75064 0.11412 0.72471 0.0
C974 C 0.81802 0.14635 0.79304 0.0
C975 C 0.77906 0.14031 0.81149 0.0
C976 C 0.73393 0.11069 0.80711 0.0
C977 C 0.78697 0.16158 0.83501 0.0
C978 C 0.75014 0.15247 0.85407 0.0
C979 C 0.6976 0.10234 0.82555 0.0
C980 C 0.70568 0.12249 0.84908 0.0
C981 C 0.80467 0.07846 0.69386 0.0
H982 H 0.7603 0.16983 0.59814 0.0
H983 H 0.88693 0.17269 0.57384 0.0
H984 H 0.74135 0.17171 0.54932 0.0
H985 H 0.79238 0.17186 0.51278 0.0
H986 H 0.72647 0.0933 0.7897 0.0
H987 H 0.82158 0.18427 0.83885 0.0
H988 H 0.66313 0.07948 0.82177 0.0
H989 H 0.67727 0.11469 0.8636 0.0
C990 C 0.34525 0.85548 0.07963 0.0
C991 C 0.30396 0.85808 0.07823 0.0
C992 C 0.34866 0.93311 0.0564 0.0
C993 C 0.39045 0.93103 0.0581 0.0
N994 N 0.42456 0.88486 0.06348 0.0
N995 N 0.2657 0.89466 0.05606 0.0
C996 C 0.38763 0.89069 0.06762 0.0
C997 C 0.3055 0.89576 0.06421 0.0
N998 N 0.34378 0.81856 0.09187 0.0
N999 N 0.35007 0.97061 0.04582 0.0
H1000 H 0.23453 0.86669 0.05905 0.0
H1001 H 0.26422 0.91964 0.04357 0.0
H1002 H 0.37924 0.99545 0.03484 0.0
H1003 H 0.32253 0.97665 0.04769 0.0
H1004 H 0.37279 0.81607 0.0974 0.0
H1005 H 0.31312 0.79064 0.09753 0.0
H1006 H 0.42367 0.85534 0.06661 0.0
H1007 H 0.4547 0.9089 0.05347 0.0
C1008 C 0.14245 0.47279 0.06442 0.0
C1009 C 0.13073 0.4299 0.06369 0.0
C1010 C 0.05373 0.41433 0.05183 0.0
C1011 C 0.06676 0.45866 0.04932 0.0
N1012 N 0.1283 0.53101 0.04882 0.0
N1013 N 0.07924 0.36137 0.0519 0.0
C1014 C 0.11266 0.48823 0.05399 0.0
C1015 C 0.08773 0.4013 0.05554 0.0
N1016 N 0.18093 0.49828 0.07667 0.0
N1017 N 0.00871 0.38419 0.05256 0.0
H1018 H 0.10358 0.351 0.05531 0.0
H1019 H 0.04988 0.34024 0.04327 0.0
H1020 H 0.98186 0.39128 0.05001 0.0
H1021 H 0.99753 0.35168 0.05768 0.0
H1022 H 0.18852 0.52843 0.08094 0.0
H1023 H 0.20269 0.48747 0.08539 0.0
H1024 H 0.16274 0.55342 0.04884 0.0
H1025 H 0.10832 0.54434 0.04141 0.0
C1026 C 0.56087 0.6918 0.06212 0.0
C1027 C 0.52427 0.69654 0.07258 0.0
C1028 C 0.47001 0.62716 0.05977 0.0
C1029 C 0.50687 0.61839 0.0547 0.0
N1030 N 0.5887 0.64472 0.0505 0.0
N1031 N 0.44385 0.66781 0.08376 0.0
C1032 C 0.55268 0.65147 0.05581 0.0
C1033 C 0.47875 0.664 0.07197 0.0
N1034 N 0.6033 0.72657 0.05724 0.0
N1035 N 0.42703 0.60169 0.05222 0.0
H1036 H 0.44941 0.69471 0.09247 0.0
H1037 H 0.41026 0.64307 0.08682 0.0
H1038 H 0.41855 0.57531 0.04238 0.0
H1039 H 0.40059 0.60945 0.05302 0.0
H1040 H 0.63099 0.72664 0.04715 0.0
H1041 H 0.60937 0.75672 0.06061 0.0
H1042 H 0.62231 0.66501 0.05459 0.0
H1043 H 0.58427 0.61741 0.04322 0.0
C1044 C 0.8294 0.35291 0.99534 0.0
C1045 C 0.84265 0.32299 0.98875 0.0
C1046 C 0.92194 0.37124 0.99803 0.0
C1047 C 0.90862 0.40049 1.00697 0.0
N1048 N 0.84558 0.41402 0.01777 0.0
N1049 N 0.89873 0.29907 0.9896 0.0
C1050 C 0.86109 0.38963 1.00691 0.0
C1051 C 0.88817 0.331 0.99165 0.0
N1052 N 0.78682 0.34711 0.9893 0.0
N1053 N 0.96692 0.38141 0.99559 0.0
H1054 H 0.87452 0.26908 0.98547 0.0
H1055 H 0.93 0.3008 0.99463 0.0
H1056 H 0.99228 0.40734 1.00316 0.0
H1057 H 0.97912 0.36478 0.98522 0.0
H1058 H 0.7764 0.37001 0.99044 0.0
H1059 H 0.76323 0.32075 0.98072 0.0
H1060 H 0.81093 0.40399 0.02208 0.0
H1061 H 0.86667 0.44331 0.02393 0.0
C1062 C 0.6913 0.58793 1.01042 0.0
C1063 C 0.69484 0.55323 1.00274 0.0
C1064 C 0.61179 0.5123 1.00268 0.0
C1065 C 0.60787 0.54625 1.01223 0.0
N1066 N 0.6453 0.62309 1.0084 0.0
N1067 N 0.66035 0.48102 0.99405 0.0
C1068 C 0.64796 0.58615 1.01169 0.0
C1069 C 0.65552 0.5148 0.99993 0.0
N1070 N 0.72981 0.62301 0.01593 0.0
N1071 N 0.57534 0.48139 0.99182 0.0
H1072 H 0.6924 0.48279 0.9912 0.0
H1073 H 0.63288 0.45067 0.9941 0.0
H1074 H 0.5437 0.48054 0.9908 0.0
H1075 H 0.57794 0.45976 0.98063 0.0
H1076 H 0.72883 0.64787 0.02422 0.0
H1077 H 0.76215 0.62497 1.01485 0.0
H1078 H 0.67394 0.65318 1.00604 0.0
H1079 H 0.61538 0.62407 1.00328 0.0
C1080 C 0.47193 0.15642 0.96787 0.0
C1081 C 0.4417 0.16432 0.98348 0.0
C1082 C 0.42698 0.10196 0.01779 0.0
C1083 C 0.4558 0.09293 1.0013 0.0
N1084 N 0.49098 0.10384 0.95531 0.0
N1085 N 0.38356 0.13996 0.02085 0.0
C1086 C 0.47326 0.11743 0.97455 0.0
C1087 C 0.41662 0.13518 1.0075 0.0
N1088 N 0.50236 0.18763 0.94811 0.0
N1089 N 0.41043 0.07968 0.0437 0.0
H1090 H 0.37698 0.16532 1.01487 0.0
H1091 H 0.36042 0.11731 0.0365 0.0
H1092 H 0.41608 0.05452 0.05169 0.0
H1093 H 0.39407 0.08801 0.05807 0.0
H1094 H 0.52836 0.18514 0.93787 0.0
H1095 H 0.50501 0.21785 0.9446 0.0
H1096 H 0.50123 0.11941 0.93499 0.0
H1097 H 0.48955 0.07426 0.95845 0.0
C1098 C 0.6679 0.1744 0.98818 0.0
C1099 C 0.71167 0.17684 0.98708 0.0
C1100 C 0.67598 0.10019 1.00545 0.0
C1101 C 0.63125 0.09677 1.00521 0.0
N1102 N 0.58614 0.13085 0.98884 0.0
N1103 N 0.7587 0.1456 1.00236 0.0
C1104 C 0.62763 0.13408 0.9949 0.0
C1105 C 0.71601 0.14051 0.99753 0.0
N1106 N 0.66481 0.21115 0.98369 0.0
N1107 N 0.68037 0.06464 1.01337 0.0
H1108 H 0.78789 0.17529 0.99876 0.0
H1109 H 0.76503 0.12189 1.01257 0.0
H1110 H 0.65332 0.03632 0.02293 0.0
H1111 H 0.71034 0.0629 1.01 0.0
H1112 H 0.63484 0.21252 0.98797 0.0
H1113 H 0.69329 0.24102 0.97828 0.0
H1114 H 0.58191 0.15584 0.97858 0.0
H1115 H 0.55644 0.10209 0.9906 0.0
C1116 C 0.88606 0.60236 1.00517 0.0
C1117 C 0.85059 0.56913 0.9934 0.0
C1118 C 0.89539 0.53159 0.99381 0.0
C1119 C 0.9308 0.5639 1.00673 0.0
N1120 N 0.96431 0.63524 0.01827 0.0
N1121 N 0.81537 0.49647 0.98485 0.0
C1122 C 0.92744 0.60092 1.01042 0.0
C1123 C 0.85345 0.53209 0.99021 0.0
N1124 N 0.87843 0.63336 1.01356 0.0
N1125 N 0.90323 0.50302 0.98205 0.0
H1126 H 0.78358 0.4953 0.98263 0.0
H1127 H 0.81439 0.46706 0.98522 0.0
H1128 H 0.93417 0.50257 0.98247 0.0
H1129 H 0.88054 0.48259 0.96931 0.0
H1130 H 0.90091 0.65641 0.0249 0.0
H1131 H 0.84705 0.63308 1.01183 0.0
H1132 H 0.96658 0.66519 0.01749 0.0
H1133 H 0.9934 0.6339 0.02484 0.0
C1134 C 0.41684 0.3061 1.00804 0.0
C1135 C 0.45551 0.30367 0.99858 0.0
C1136 C 0.50543 0.37097 0.01533 0.0
C1137 C 0.46707 0.37787 0.01975 0.0
N1138 N 0.38513 0.35055 0.01918 0.0
N1139 N 0.53697 0.33626 0.98956 0.0
C1140 C 0.42243 0.34493 0.01574 0.0
C1141 C 0.49992 0.33669 1.00135 0.0
N1142 N 0.37474 0.27084 1.01004 0.0
N1143 N 0.547 0.39615 0.02471 0.0
H1144 H 0.53388 0.31168 0.97902 0.0
H1145 H 0.57 0.36191 0.98826 0.0
H1146 H 0.55423 0.42261 0.03414 0.0
H1147 H 0.57358 0.38844 0.02512 0.0
H1148 H 0.34549 0.26901 0.01936 0.0
H1149 H 0.37003 0.24197 1.0047 0.0
H1150 H 0.35282 0.33045 1.01304 0.0
H1151 H 0.38723 0.37659 0.02715 0.0
C1152 C 0.16629 0.67887 0.08265 0.0
C1153 C 0.16703 0.71765 0.07216 0.0
C1154 C 0.10813 0.68061 0.04045 0.0
C1155 C 0.10374 0.64074 0.05288 0.0
N1156 N 0.12741 0.60189 0.0873 0.0
N1157 N 0.13571 0.75559 0.04367 0.0
C1158 C 0.13251 0.63993 0.07445 0.0
C1159 C 0.13715 0.71852 0.05171 0.0
N1160 N 0.19909 0.67969 0.09987 0.0
N1161 N 0.08548 0.68249 0.01742 0.0
H1162 H 0.15689 0.7837 0.05146 0.0
H1163 H 0.1114 0.75777 0.03105 0.0
H1164 H 0.06401 0.6555 1.00882 0.0
H1165 H 0.09082 0.71081 1.00556 0.0
H1166 H 0.2041 0.65354 0.10612 0.0
H1167 H 0.22384 0.70775 0.10627 0.0
H1168 H 0.14285 0.59842 0.10534 0.0
H1169 H 0.10568 0.57322 0.08063 0.0
C1170 C 0.31067 0.46474 0.07001 0.0
C1171 C 0.27443 0.4227 0.07127 0.0
C1172 C 0.32995 0.39705 0.06625 0.0
C1173 C 0.36648 0.43977 0.06336 0.0
N1174 N 0.38929 0.50766 0.07852 0.0
N1175 N 0.24875 0.35104 0.06322 0.0
C1176 C 0.35644 0.47218 0.06925 0.0
C1177 C 0.28386 0.38943 0.06738 0.0
N1178 N 0.30175 0.49814 0.0687 0.0
N1179 N 0.33872 0.36344 0.07074 0.0
H1180 H 0.21512 0.34578 0.06228 0.0
H1181 H 0.25374 0.32658 0.05743 0.0
H1182 H 0.37152 0.3669 0.07244 0.0
H1183 H 0.31309 0.33199 0.0759 0.0
H1184 H 0.32741 0.5298 0.06477 0.0
H1185 H 0.26874 0.49429 0.06872 0.0
H1186 H 0.38164 0.5285 0.08756 0.0
H1187 H 0.4225 0.51296 0.08106 0.0
C1188 C 0.51788 0.84916 0.0941 0.0
C1189 C 0.553 0.84243 0.08334 0.0
C1190 C 0.58557 0.91279 0.05471 0.0
C1191 C 0.55236 0.92092 0.06733 0.0
N1192 N 0.49357 0.89945 0.10442 0.0
N1193 N 0.62263 0.86851 0.05503 0.0
C1194 C 0.52122 0.89028 0.08906 0.0
C1195 C 0.58795 0.87481 0.0644 0.0
N1196 N 0.47894 0.81522 0.10686 0.0
N1197 N 0.61354 0.94047 0.03265 0.0
H1198 H 0.62271 0.83955 0.05989 0.0
H1199 H 0.65216 0.89233 0.04372 0.0
H1200 H 0.61278 0.96843 0.02522 0.0
H1201 H 0.63488 0.93439 0.02045 0.0
H1202 H 0.45003 0.81736 0.11277 0.0
H1203 H 0.47362 0.78407 0.10845 0.0
H1204 H 0.47419 0.87969 0.12231 0.0
H1205 H 0.49184 0.92767 0.10044 0.0
C1206 C 0.01309 0.17681 0.41798 0.0
C1207 C 0.97525 0.18452 0.41385 0.0
C1208 C 0.02916 0.25888 0.39457 0.0
C1209 C 0.06722 0.25106 0.39769 0.0
N1210 N 0.09147 0.19764 0.40362 0.0
N1211 N 0.94896 0.22735 0.3855 0.0
C1212 C 0.05803 0.20859 0.40715 0.0
C1213 C 0.98362 0.22408 0.39863 0.0
N1214 N 0.0059 0.13823 0.43116 0.0
N1215 N 0.03597 0.29929 0.38751 0.0
H1216 H 0.91686 0.20094 0.38498 0.0
H1217 H 0.95394 0.25457 0.3723 0.0
H1218 H 0.06846 0.32496 0.38275 0.0
H1219 H 0.0094 0.30698 0.38769 0.0
H1220 H 0.03237 0.13229 0.43789 0.0
H1221 H 0.97323 0.1127 0.43627 0.0
H1222 H 0.08596 0.16641 0.40699 0.0
H1223 H 0.12319 0.21937 0.39378 0.0
C1224 C 0.81737 0.82151 0.381 0.0
C1225 C 0.80535 0.77819 0.38665 0.0
C1226 C 0.72442 0.75721 0.38441 0.0
C1227 C 0.73572 0.80117 0.37974 0.0
N1228 N 0.7929 0.87426 0.38129 0.0
N1229 N 0.75152 0.70515 0.38622 0.0
C1230 C 0.78235 0.83326 0.37952 0.0
C1231 C 0.76005 0.74621 0.38575 0.0
N1232 N 0.86256 0.85135 0.37736 0.0
N1233 N 0.67996 0.72595 0.39033 0.0
H1234 H 0.77774 0.69691 0.38726 0.0
H1235 H 0.71978 0.68039 0.38274 0.0
H1236 H 0.65185 0.73142 0.38941 0.0
H1237 H 0.6707 0.69437 0.39778 0.0
H1238 H 0.87415 0.88354 0.37043 0.0
H1239 H 0.88868 0.84315 0.3784 0.0
H1240 H 0.82544 0.89821 0.38423 0.0
H1241 H 0.76806 0.88341 0.38286 0.0
C1242 C 0.23625 0.0184 0.39787 0.0
C1243 C 0.20041 0.02685 0.4045 0.0
C1244 C 0.14512 0.95875 0.39029 0.0
C1245 C 0.18042 0.94694 0.38821 0.0
N1246 N 0.26016 0.96617 0.39333 0.0
N1247 N 0.11988 1.00331 0.41042 0.0
C1248 C 0.22606 0.97693 0.39312 0.0
C1249 C 0.15456 0.9966 0.40151 0.0
N1250 N 0.28028 0.0508 0.39501 0.0
N1251 N 0.10275 0.93448 0.38144 0.0
H1252 H 0.12597 0.03068 0.4187 0.0
H1253 H 0.08547 0.98037 0.41173 0.0
H1254 H 0.09344 0.90633 0.37353 0.0
H1255 H 0.07782 0.94427 0.37972 0.0
H1256 H 0.3079 0.04787 0.38755 0.0
H1257 H 0.28825 0.08193 0.39706 0.0
H1258 H 0.29217 0.98431 0.40065 0.0
H1259 H 0.2557 0.93828 0.38705 0.0
C1260 C 0.55693 0.66287 0.32947 0.0
C1261 C 0.51086 0.65242 0.32592 0.0
C1262 C 0.52552 0.72098 0.33984 0.0
C1263 C 0.57345 0.73379 0.34096 0.0
N1264 N 0.63419 0.71575 0.33493 0.0
N1265 N 0.45188 0.67271 0.3238 0.0
C1266 C 0.58887 0.7044 0.33504 0.0
C1267 C 0.49533 0.68175 0.33018 0.0
N1268 N 0.5697 0.63208 0.32862 0.0
N1269 N 0.50818 0.74578 0.34804 0.0
H1270 H 0.42918 0.64418 0.31699 0.0
H1271 H 0.43957 0.69454 0.32301 0.0
H1272 H 0.52801 0.77613 0.35303 0.0
H1273 H 0.47325 0.73515 0.35155 0.0
H1274 H 0.6013 0.63529 0.33427 0.0
H1275 H 0.54702 0.60161 0.32443 0.0
H1276 H 0.6487 0.69931 0.32648 0.0
H1277 H 0.65762 0.74236 0.34288 0.0
C1278 C 0.35786 0.93438 0.34398 0.0
C1279 C 0.36824 0.90265 0.33809 0.0
C1280 C 0.28879 0.84894 0.34878 0.0
C1281 C 0.27638 0.88158 0.35084 0.0
N1282 N 0.30143 0.95794 0.34095 0.0
N1283 N 0.34325 0.83156 0.32876 0.0
C1284 C 0.31155 0.92514 0.34599 0.0
C1285 C 0.33369 0.86038 0.33893 0.0
N1286 N 0.39249 0.97379 0.34677 0.0
N1287 N 0.25831 0.80702 0.35574 0.0
H1288 H 0.37594 0.83917 0.32107 0.0
H1289 H 0.3181 0.80147 0.32548 0.0
H1290 H 0.22515 0.79655 0.36283 0.0
H1291 H 0.26744 0.78287 0.3575 0.0
H1292 H 0.3867 0.9973 0.35352 0.0
H1293 H 0.42691 0.98122 0.34491 0.0
H1294 H 0.32631 0.98928 0.33421 0.0
H1295 H 0.26841 0.95421 0.3412 0.0
C1296 C 0.08387 0.4621 0.34602 0.0
C1297 C 0.10713 0.4902 0.32133 0.0
C1298 C 0.14229 0.44576 0.3137 0.0
C1299 C 0.12589 0.42203 0.34091 0.0
N1300 N 0.08395 0.41242 0.38437 0.0
N1301 N 0.16898 0.51511 0.28665 0.0
C1302 C 0.09738 0.43149 0.35747 0.0
C1303 C 0.13892 0.48359 0.30638 0.0
N1304 N 0.04903 0.465 0.35875 0.0
N1305 N 0.1615 0.43318 0.2946 0.0
H1306 H 0.17052 0.54483 0.28306 0.0
H1307 H 0.19601 0.51367 0.27683 0.0
H1308 H 0.16459 0.40575 0.298 0.0
H1309 H 0.16993 0.44794 0.27402 0.0
H1310 H 0.02735 0.44256 0.37504 0.0
H1311 H 0.03936 0.48792 0.35147 0.0
H1312 H 0.06819 0.4222 0.39818 0.0
H1313 H 0.09131 0.38898 0.39376 0.0
C1314 C 0.34049 0.50125 0.32427 0.0
C1315 C 0.38391 0.50365 0.32737 0.0
C1316 C 0.34534 0.43031 0.353 0.0
C1317 C 0.30163 0.42579 0.34621 0.0
N1318 N 0.25957 0.4576 0.32128 0.0
N1319 N 0.42859 0.47126 0.34577 0.0
C1320 C 0.29983 0.46138 0.3306 0.0
C1321 C 0.38652 0.46823 0.342 0.0
N1322 N 0.33785 0.53789 0.3171 0.0
N1323 N 0.34735 0.3992 0.37124 0.0
H1324 H 0.45878 0.49974 0.34029 0.0
H1325 H 0.43369 0.44553 0.35326 0.0
H1326 H 0.31801 0.37257 0.38075 0.0
H1327 H 0.37743 0.40164 0.37921 0.0
H1328 H 0.30709 0.53905 0.31733 0.0
H1329 H 0.36676 0.56782 0.31426 0.0
H1330 H 0.25777 0.48052 0.30669 0.0
H1331 H 0.22825 0.43089 0.32688 0.0
C1332 C 0.55979 0.94707 0.33908 0.0
C1333 C 0.5222 0.91552 0.32746 0.0
C1334 C 0.56095 0.87252 0.32734 0.0
C1335 C 0.59855 0.9033 0.33977 0.0
N1336 N 0.63742 0.97353 0.35306 0.0
N1337 N 0.48056 0.84229 0.32004 0.0
C1338 C 0.59903 0.94177 0.34427 0.0
C1339 C 0.52087 0.87651 0.3244 0.0
N1340 N 0.55609 0.98018 0.34738 0.0
N1341 N 0.56482 0.84182 0.31558 0.0
H1342 H 0.44998 0.84358 0.31836 0.0
H1343 H 0.47674 0.81171 0.32084 0.0
H1344 H 0.59409 0.8383 0.31578 0.0
H1345 H 0.54034 0.82234 0.30318 0.0
H1346 H 0.5802 1.00244 0.3585 0.0
H1347 H 0.5263 0.98286 0.34558 0.0
H1348 H 0.64289 1.00448 0.35294 0.0
H1349 H 0.66446 0.96886 0.36008 0.0
C1350 C 0.08127 0.62602 0.35138 0.0
C1351 C 0.11082 0.62766 0.32984 0.0
C1352 C 0.155 0.70517 0.32716 0.0
C1353 C 0.12634 0.7038 0.3495 0.0
N1354 N 0.06761 0.66159 0.38634 0.0
N1355 N 0.18042 0.6663 0.30077 0.0
C1356 C 0.09115 0.66376 0.36272 0.0
C1357 C 0.14895 0.66661 0.31869 0.0
N1358 N 0.04287 0.5884 0.3603 0.0
N1359 N 0.18818 0.74339 0.31398 0.0
H1360 H 0.17683 0.63834 0.2945 0.0
H1361 H 0.21176 0.6928 0.29395 0.0
H1362 H 0.19683 0.77182 0.32127 0.0
H1363 H 0.20586 0.74717 0.29529 0.0
H1364 H 0.01697 0.58554 0.37384 0.0
H1365 H 0.03529 0.56037 0.35242 0.0
H1366 H 0.04534 0.63318 0.39873 0.0
H1367 H 0.07275 0.68852 0.39464 0.0
C1368 C 0.82583 0.01215 0.41552 0.0
C1369 C 0.83281 0.05194 0.40174 0.0
C1370 C 0.7765 0.01571 0.36861 0.0
C1371 C 0.76679 0.97536 0.38362 0.0
N1372 N 0.77758 0.93573 0.42434 0.0
N1373 N 0.81173 0.09253 0.36769 0.0
C1374 C 0.7901 0.97376 0.40797 0.0
C1375 C 0.80741 0.05394 0.37886 0.0
N1376 N 0.85452 0.01126 0.43538 0.0
N1377 N 0.756 0.01757 0.34461 0.0
H1378 H 0.83444 0.12084 0.37474 0.0
H1379 H 0.79086 0.09638 0.35292 0.0
H1380 H 0.73102 0.99052 0.33757 0.0
H1381 H 0.76539 0.04545 0.33091 0.0
H1382 H 0.85488 0.98358 0.44431 0.0
H1383 H 0.88089 0.03895 0.44121 0.0
H1384 H 0.78935 0.93309 0.44393 0.0
H1385 H 0.75262 0.90674 0.41945 0.0
C1386 C 0.97716 0.79958 0.40093 0.0
C1387 C 0.9399 0.75829 0.40132 0.0
C1388 C 0.99227 0.734 0.38568 0.0
C1389 C 0.03005 0.77438 0.38833 0.0
N1390 N 0.05636 0.83879 0.40925 0.0
N1391 N 0.91065 0.68536 0.39506 0.0
C1392 C 0.02214 0.8056 0.39864 0.0
C1393 C 0.94712 0.72512 0.39404 0.0
N1394 N 0.96985 0.83345 0.4026 0.0
N1395 N 0.99967 0.70458 0.37468 0.0
H1396 H 0.87722 0.67912 0.39971 0.0
H1397 H 0.91345 0.65835 0.39276 0.0
H1398 H 0.03208 0.71123 0.36722 0.0
H1399 H 0.97379 0.67561 0.37029 0.0
H1400 H 0.99625 0.86485 0.3992 0.0
H1401 H 0.93732 0.83028 0.40573 0.0
H1402 H 0.05018 0.85886 0.4202 0.0
H1403 H 0.08979 0.84382 0.40986 0.0
C1404 C 0.26403 0.20824 0.39757 0.0
C1405 C 0.22846 0.17309 0.41471 0.0
C1406 C 0.19443 0.21761 0.42408 0.0
C1407 C 0.2256 0.2511 0.40382 0.0
N1408 N 0.29125 0.27891 0.3713 0.0
N1409 N 0.15362 0.14147 0.43803 0.0
C1410 C 0.26115 0.24673 0.39075 0.0
C1411 C 0.19214 0.17708 0.42643 0.0
N1412 N 0.29983 0.20423 0.38741 0.0
N1413 N 0.16671 0.22424 0.44112 0.0
H1414 H 0.14949 0.1109 0.43808 0.0
H1415 H 0.12416 0.142 0.44482 0.0
H1416 H 0.16707 0.25331 0.43972 0.0
H1417 H 0.14656 0.20207 0.458 0.0
H1418 H 0.32938 0.22945 0.37703 0.0
H1419 H 0.30052 0.17539 0.39047 0.0
H1420 H 0.31515 0.27659 0.35882 0.0
H1421 H 0.29059 0.30763 0.36665 0.0
C1422 C 0.68225 0.52703 0.75286 0.0
C1423 C 0.64187 0.52961 0.74651 0.0
C1424 C 0.69081 0.60093 0.71978 0.0
C1425 C 0.73135 0.59799 0.72556 0.0
N1426 N 0.7609 0.54948 0.73843 0.0
N1427 N 0.60966 0.56191 0.71335 0.0
C1428 C 0.72575 0.55857 0.73962 0.0
C1429 C 0.64663 0.56471 0.72705 0.0
N1430 N 0.67893 0.49335 0.77088 0.0
N1431 N 0.6942 0.63769 0.70589 0.0
H1432 H 0.57742 0.53508 0.71684 0.0
H1433 H 0.61205 0.58438 0.69675 0.0
H1434 H 0.725 0.66185 0.69615 0.0
H1435 H 0.66646 0.64372 0.70421 0.0
H1436 H 0.70736 0.49172 0.7787 0.0
H1437 H 0.64751 0.46851 0.7793 0.0
H1438 H 0.75746 0.5194 0.74514 0.0
H1439 H 0.79142 0.5704 0.72714 0.0
C1440 C 0.43125 0.08421 0.71538 0.0
C1441 C 0.47531 0.114 0.72125 0.0
C1442 C 0.4538 0.17047 0.71389 0.0
C1443 C 0.40738 0.13951 0.71141 0.0
N1444 N 0.35133 0.06404 0.71939 0.0
N1445 N 0.5272 0.18414 0.73099 0.0
C1446 C 0.39582 0.0955 0.71466 0.0
C1447 C 0.48648 0.15692 0.72148 0.0
N1448 N 0.42304 0.04449 0.71142 0.0
N1449 N 0.46678 0.21276 0.7102 0.0
H1450 H 0.55199 0.17536 0.73673 0.0
H1451 H 0.53499 0.21427 0.73537 0.0
H1452 H 0.44373 0.2241 0.70741 0.0
H1453 H 0.50083 0.23664 0.70789 0.0
H1454 H 0.39226 0.02234 0.70461 0.0
H1455 H 0.44875 0.03556 0.71239 0.0
H1456 H 0.34233 0.03204 0.72502 0.0
H1457 H 0.32331 0.06956 0.71991 0.0
C1458 C 0.81435 0.32366 0.74021 0.0
C1459 C 0.85977 0.35631 0.74129 0.0
C1460 C 0.88881 0.31059 0.72612 0.0
C1461 C 0.84322 0.2778 0.72386 0.0
N1462 N 0.76317 0.26 0.72129 0.0
N1463 N 0.93929 0.38571 0.72742 0.0
C1464 C 0.80611 0.28644 0.72847 0.0
C1465 C 0.89668 0.35114 0.73186 0.0
N1466 N 0.77905 0.32759 0.75129 0.0
N1467 N 0.92502 0.30334 0.72276 0.0
H1468 H 0.94525 0.416 0.73034 0.0
H1469 H 0.96725 0.3854 0.71797 0.0
H1470 H 0.92135 0.27565 0.71644 0.0
H1471 H 0.95808 0.32362 0.72778 0.0
H1472 H 0.74542 0.30289 0.75408 0.0
H1473 H 0.78425 0.35465 0.75967 0.0
H1474 H 0.73656 0.26761 0.72136 0.0
H1475 H 0.75478 0.23244 0.7128 0.0
C1476 C 0.22015 1.00301 0.66303 0.0
C1477 C 0.17579 0.99553 0.6566 0.0
C1478 C 0.19447 0.06627 0.66854 0.0
C1479 C 0.24156 0.0765 0.67108 0.0
N1480 N 0.29869 0.05329 0.66751 0.0
N1481 N 0.12164 0.02148 0.65002 0.0
C1482 C 0.25415 0.04454 0.66715 0.0
C1483 C 0.16318 0.02755 0.65859 0.0
N1484 N 0.22916 0.96952 0.66666 0.0
N1485 N 0.17894 0.0929 0.67579 0.0
H1486 H 0.09819 0.99339 0.64303 0.0
H1487 H 0.11204 0.0453 0.64775 0.0
H1488 H 0.19976 0.12231 0.68188 0.0
H1489 H 0.14429 0.08435 0.67771 0.0
H1490 H 0.25939 0.97154 0.67417 0.0
H1491 H 0.20409 0.93852 0.66525 0.0
H1492 H 0.3108 0.03387 0.66072 0.0
H1493 H 0.32382 0.0808 0.67368 0.0
C1494 C 0.02928 0.26504 0.67833 0.0
C1495 C 0.04031 0.23386 0.67227 0.0
C1496 C 0.96041 0.17951 0.68172 0.0
C1497 C 0.9478 0.21202 0.68403 0.0
N1498 N 0.97291 0.2884 0.67418 0.0
N1499 N 0.01792 0.16225 0.66562 0.0
C1500 C 0.98293 0.25561 0.67974 0.0
C1501 C 0.00639 0.19116 0.67368 0.0
N1502 N 0.06354 0.30441 0.68154 0.0
N1503 N 0.92877 0.13758 0.68625 0.0
H1504 H 0.05168 0.16984 0.66052 0.0
H1505 H 0.99416 0.13175 0.66223 0.0
H1506 H 0.89449 0.12729 0.68999 0.0
H1507 H 0.9369 0.11281 0.68848 0.0
H1508 H 0.05734 0.3276 0.68843 0.0
H1509 H 0.098 0.31189 0.68013 0.0
H1510 H 0.99798 0.31987 0.66811 0.0
H1511 H 0.94004 0.28463 0.67261 0.0
C1512 C 0.7566 0.79642 0.67552 0.0
C1513 C 0.77865 0.82436 0.65053 0.0
C1514 C 0.81162 0.7783 0.64115 0.0
C1515 C 0.79683 0.75518 0.66849 0.0
N1516 N 0.75299 0.74177 0.71153 0.0
N1517 N 0.83266 0.84506 0.61153 0.0
C1518 C 0.76837 0.76399 0.68551 0.0
C1519 C 0.8071 0.81578 0.63366 0.0
N1520 N 0.72431 0.80122 0.68979 0.0
N1521 N 0.83009 0.76488 0.62215 0.0
H1522 H 0.83139 0.87333 0.60633 0.0
H1523 H 0.85814 0.84324 0.60021 0.0
H1524 H 0.83422 0.73795 0.62647 0.0
H1525 H 0.83718 0.77815 0.60128 0.0
H1526 H 0.70319 0.77961 0.70652 0.0
H1527 H 0.71563 0.82508 0.68328 0.0
H1528 H 0.7373 0.74997 0.72639 0.0
H1529 H 0.75839 0.71628 0.719 0.0
C1530 C 0.05593 0.81028 0.66505 0.0
C1531 C 0.05036 0.84593 0.65465 0.0
C1532 C 0.96624 0.80011 0.66066 0.0
C1533 C 0.97147 0.76386 0.6712 0.0
N1534 N 0.02294 0.73383 0.67685 0.0
N1535 N 1.00041 0.87688 0.64769 0.0
C1536 C 0.01687 0.76888 0.67128 0.0
C1537 C 0.00552 0.84138 0.65418 0.0
N1538 N 0.0986 0.81669 0.67124 0.0
N1539 N 0.92426 0.79442 0.65351 0.0
H1540 H 0.02796 0.907 0.6412 0.0
H1541 H 0.9695 0.87712 0.65071 0.0
H1542 H 0.8966 0.76435 0.65388 0.0
H1543 H 0.91822 0.81846 0.64354 0.0
H1544 H 0.10511 0.79321 0.68168 0.0
H1545 H 0.12682 0.84701 0.6689 0.0
H1546 H 0.05427 0.73445 0.67364 0.0
H1547 H 0.99603 0.70348 0.6831 0.0
C1548 C 0.19702 0.22114 0.65036 0.0
C1549 C 0.1981 0.26004 0.65372 0.0
C1550 C 0.27461 0.28545 0.67132 0.0
C1551 C 0.27363 0.24651 0.66754 0.0
N1552 N 0.24073 0.18573 0.64271 0.0
N1553 N 0.23244 0.32464 0.67379 0.0
C1554 C 0.23666 0.2165 0.65424 0.0
C1555 C 0.23571 0.29124 0.66565 0.0
N1556 N 0.15697 0.18724 0.64521 0.0
N1557 N 0.31334 0.3175 0.67959 0.0
H1558 H 0.2035 0.32844 0.67104 0.0
H1559 H 0.2561 0.3461 0.68557 0.0
H1560 H 0.34083 0.31323 0.68619 0.0
H1561 H 0.31899 0.3486 0.67896 0.0
H1562 H 0.15294 0.1566 0.64602 0.0
H1563 H 0.1267 0.18885 0.64255 0.0
H1564 H 0.21707 0.16691 0.62966 0.0
H1565 H 0.26954 0.18155 0.64378 0.0
C1566 C 0.76054 0.95944 0.69036 0.0
C1567 C 0.78729 0.96164 0.667 0.0
C1568 C 0.82478 0.03976 0.66097 0.0
C1569 C 0.79913 0.03794 0.6851 0.0
N1570 N 0.74753 0.99575 0.7252 0.0
N1571 N 0.8506 1.00238 0.63335 0.0
C1572 C 0.76871 0.99764 0.70065 0.0
C1573 C 0.82113 1.00147 0.65331 0.0
N1574 N 0.72594 0.92073 0.70194 0.0
N1575 N 0.85232 0.07803 0.64509 0.0
H1576 H 0.8487 0.97466 0.62771 0.0
H1577 H 0.87924 0.03003 0.62423 0.0
H1578 H 0.85857 0.1071 0.65063 0.0
H1579 H 0.86703 0.08102 0.62551 0.0
H1580 H 0.70147 0.91675 0.71702 0.0
H1581 H 0.71998 0.89244 0.69503 0.0
H1582 H 0.72923 0.96783 0.73905 0.0
H1583 H 0.75061 0.02268 0.73267 0.0
C1584 C 0.49938 0.35318 0.74618 0.0
C1585 C 0.50548 0.39306 0.73311 0.0
C1586 C 0.45215 0.35746 0.69834 0.0
C1587 C 0.44266 0.31689 0.71286 0.0
N1588 N 0.45435 0.27626 0.75263 0.0
N1589 N 0.48502 0.43384 0.6988 0.0
C1590 C 0.46546 0.31484 0.73739 0.0
C1591 C 0.48132 0.39536 0.70961 0.0
N1592 N 0.52731 0.35226 0.76653 0.0
N1593 N 0.43317 0.35987 0.6738 0.0
H1594 H 0.50645 0.4619 0.70656 0.0
H1595 H 0.4648 0.43773 0.68358 0.0
H1596 H 0.40952 0.33302 0.66592 0.0
H1597 H 0.4427 0.38813 0.66048 0.0
H1598 H 0.52845 0.32484 0.77516 0.0
H1599 H 0.55242 0.37991 0.77314 0.0
H1600 H 0.46521 0.27277 0.77239 0.0
H1601 H 0.43178 0.24734 0.74641 0.0
C1602 C 0.62098 0.06875 0.72359 0.0
C1603 C 0.61485 0.09944 0.73581 0.0
C1604 C 0.69729 0.1401 0.73994 0.0
C1605 C 0.70416 0.11032 0.72675 0.0
N1606 N 0.67139 0.04044 0.71295 0.0
N1607 N 0.64739 0.16954 0.74852 0.0
C1608 C 0.66557 0.07283 0.72066 0.0
C1609 C 0.65307 0.13651 0.74206 0.0
N1610 N 0.58449 0.03731 0.71306 0.0
N1611 N 0.73196 0.16952 0.75286 0.0
H1612 H 0.6157 0.1687 0.74859 0.0
H1613 H 0.67452 0.19924 0.75069 0.0
H1614 H 0.76464 0.17266 0.75279 0.0
H1615 H 0.7271 0.18782 0.76609 0.0
H1616 H 0.58724 0.01648 0.70117 0.0
H1617 H 0.55175 0.03445 0.71412 0.0
H1618 H 0.64449 0.01017 0.71181 0.0
H1619 H 0.70359 0.04339 0.70879 0.0
C1620 C 0.85572 0.51078 0.76344 0.0
C1621 C 0.88982 0.50312 0.7521 0.0
C1622 C 0.9259 0.5755 0.72558 0.0
C1623 C 0.8917 0.58298 0.73737 0.0
N1624 N 0.83412 0.56264 0.77462 0.0
N1625 N 0.95813 0.52752 0.72282 0.0
C1626 C 0.86014 0.55233 0.75875 0.0
C1627 C 0.92558 0.53563 0.7335 0.0
N1628 N 0.81671 0.47735 0.77653 0.0
N1629 N 0.95846 0.60676 0.70676 0.0
H1630 H 0.95634 0.49767 0.72682 0.0
H1631 H 0.98694 0.54981 0.71028 0.0
H1632 H 0.96024 0.63652 0.70215 0.0
H1633 H 0.9832 0.60372 0.69565 0.0
H1634 H 0.78853 0.48023 0.78301 0.0
H1635 H 0.81055 0.44596 0.77788 0.0
H1636 H 0.81413 0.54286 0.79233 0.0
H1637 H 0.83504 0.59213 0.7712 0.0
C1638 C 0.51154 0.94057 0.25354 0.0
C1639 C 0.50582 0.9622 0.27425 0.0
C1640 C 0.5375 0.02824 0.24122 0.0
C1641 C 0.54596 1.00707 0.22107 0.0
N1642 N 0.55214 0.9462 0.21062 0.0
N1643 N 0.52 0.02785 0.28955 0.0
C1644 C 0.53684 0.96426 0.22814 0.0
C1645 C 0.52189 1.00669 0.26869 0.0
N1646 N 0.4893 0.8972 0.25707 0.0
N1647 N 0.54075 0.06752 0.23368 0.0
H1648 H 0.50534 0.01222 0.30934 0.0
H1649 H 0.53569 0.06093 0.28775 0.0
H1650 H 0.54995 0.08382 0.2135 0.0
H1651 H 0.53013 0.08237 0.24679 0.0
H1652 H 0.48868 0.87953 0.24158 0.0
H1653 H 0.46728 0.87919 0.27443 0.0
H1654 H 0.54979 0.91627 0.21602 0.0
H1655 H 0.57118 0.96285 0.19193 0.0
C1656 C 0.029 0.48405 0.26604 0.0
C1657 C 0.07301 0.51935 0.26683 0.0
C1658 C 0.08845 0.52093 0.21706 0.0
C1659 C 0.04299 0.48814 0.2157 0.0
N1660 N 0.96759 0.4421 0.23807 0.0
N1661 N 0.14074 0.57722 0.24159 0.0
C1662 C 0.01267 0.47037 0.24007 0.0
C1663 C 0.10167 0.53935 0.2419 0.0
N1664 N 0.00234 0.46439 0.29017 0.0
N1665 N 0.11959 0.53371 0.19489 0.0
H1666 H 0.152 0.59168 0.25928 0.0
H1667 H 0.16002 0.59594 0.22343 0.0
H1668 H 0.11141 0.52092 0.17636 0.0
H1669 H 0.15446 0.5541 0.19575 0.0
H1670 H 0.9721 0.43559 0.29196 0.0
H1671 H 0.01209 0.47597 0.30891 0.0
H1672 H 0.94255 0.43105 0.25434 0.0
H1673 H 0.95418 0.43214 0.21939 0.0
C1674 C 0.40731 0.54253 0.24733 0.0
C1675 C 0.4341 0.53642 0.26832 0.0
C1676 C 0.45122 0.49293 0.24011 0.0
C1677 C 0.42673 0.50114 0.21838 0.0
N1678 N 0.38528 0.53726 0.19975 0.0
N1679 N 0.49031 0.51483 0.28183 0.0
C1680 C 0.40547 0.52667 0.22167 0.0
C1681 C 0.45823 0.51382 0.26399 0.0
N1682 N 0.38457 0.56457 0.25185 0.0
N1683 N 0.46706 0.46452 0.23818 0.0
H1684 H 0.4978 0.53166 0.29865 0.0
H1685 H 0.51256 0.50277 0.27844 0.0
H1686 H 0.46333 0.4492 0.22083 0.0
H1687 H 0.48066 0.45364 0.2546 0.0
H1688 H 0.36 0.56624 0.23927 0.0
H1689 H 0.38932 0.5802 0.26906 0.0
H1690 H 0.37263 0.55873 0.19961 0.0
H1691 H 0.38379 0.52666 0.18064 0.0
C1692 C 0.90701 0.47601 0.82395 0.0
C1693 C 0.92804 0.46979 0.801 0.0
C1694 C 0.00139 0.50076 0.82279 0.0
C1695 C 0.98169 0.513 0.84347 0.0
N1696 N 0.91666 0.51873 0.86035 0.0
N1697 N 0.99649 0.47922 0.7773 0.0
C1698 C 0.93471 0.50255 0.84307 0.0
C1699 C 0.97573 0.48334 0.8 0.0
N1700 N 0.86054 0.45424 0.82854 0.0
N1701 N 0.0436 0.50345 0.82573 0.0
H1702 H 0.97825 0.46444 0.76105 0.0
H1703 H 0.03191 0.49295 0.77379 0.0
H1704 H 0.06258 0.51398 0.8428 0.0
H1705 H 0.0577 0.49106 0.8128 0.0
H1706 H 0.84329 0.45484 0.84622 0.0
H1707 H 0.84007 0.4314 0.81638 0.0
H1708 H 0.88366 0.51501 0.859 0.0
H1709 H 0.93605 0.53931 0.87408 0.0
C1710 C 0.56249 0.53394 0.80109 0.0
C1711 C 0.56761 0.49736 0.79928 0.0
C1712 C 0.5404 0.4723 0.8489 0.0
C1713 C 0.53574 0.50925 0.85054 0.0
N1714 N 0.55792 0.58146 0.83058 0.0
N1715 N 0.57229 0.43728 0.82365 0.0
C1716 C 0.55256 0.5423 0.82745 0.0
C1717 C 0.56131 0.46917 0.82421 0.0
N1718 N 0.56255 0.55858 0.77747 0.0
N1719 N 0.5211 0.43834 0.86964 0.0
H1720 H 0.57307 0.41827 0.84145 0.0
H1721 H 0.58376 0.432 0.80541 0.0
H1722 H 0.50408 0.43827 0.8876 0.0
H1723 H 0.5185 0.40875 0.86803 0.0
H1724 H 0.55418 0.58308 0.77724 0.0
H1725 H 0.56648 0.55148 0.75805 0.0
H1726 H 0.57335 0.60774 0.81508 0.0
H1727 H 0.55133 0.58846 0.84969 0.0
C1728 C 0.54963 0.027 0.79891 0.0
C1729 C 0.55626 0.06873 0.79059 0.0
C1730 C 0.57884 0.08684 0.83704 0.0
C1731 C 0.56927 0.04422 0.84591 0.0
N1732 N 0.54189 0.97234 0.83664 0.0
N1733 N 0.56933 0.13619 0.80256 0.0
C1734 C 0.55419 0.01396 0.8271 0.0
C1735 C 0.56911 0.09819 0.80984 0.0
N1736 N 0.53738 0.99953 0.77985 0.0
N1737 N 0.59798 0.11672 0.85449 0.0
H1738 H 0.56184 0.14547 0.78297 0.0
H1739 H 0.57295 0.15699 0.81652 0.0
H1740 H 0.60433 0.10954 0.87492 0.0
H1741 H 0.61123 0.14928 0.84811 0.0
H1742 H 0.53685 0.97019 0.78314 0.0
H1743 H 0.52912 1.00701 0.76004 0.0
H1744 H 0.52677 0.94768 0.82483 0.0
H1745 H 0.54419 0.96162 0.85721 0.0
C1746 C 0.17811 0.28843 0.57942 0.0
C1747 C 0.17033 0.30468 0.60269 0.0
C1748 C 0.18895 0.37206 0.57291 0.0
C1749 C 0.19929 0.35653 0.55001 0.0
N1750 N 0.21374 0.30366 0.53306 0.0
N1751 N 0.17413 0.36384 0.62261 0.0
C1752 C 0.19723 0.31592 0.55383 0.0
C1753 C 0.1786 0.34748 0.59974 0.0
N1754 N 0.16381 0.24594 0.58113 0.0
N1755 N 0.18556 0.40874 0.56872 0.0
H1756 H 0.16226 0.34544 0.64204 0.0
H1757 H 0.18481 0.39606 0.62269 0.0
H1758 H 0.19108 0.42695 0.54928 0.0
H1759 H 0.17317 0.41925 0.58397 0.0
H1760 H 0.16399 0.23119 0.56411 0.0
H1761 H 0.14767 0.22491 0.59916 0.0
H1762 H 0.21733 0.27623 0.53557 0.0
H1763 H 0.22771 0.32302 0.51409 0.0
C1764 C 0.6977 0.82031 0.59896 0.0
C1765 C 0.73833 0.85905 0.60004 0.0
C1766 C 0.73353 0.88247 0.5509 0.0
C1767 C 0.6933 0.84322 0.54972 0.0
N1768 N 0.64607 0.77013 0.57021 0.0
N1769 N 0.8012 0.92202 0.57508 0.0
C1770 C 0.67861 0.8105 0.57296 0.0
C1771 C 0.75868 0.88789 0.57509 0.0
N1772 N 0.67514 0.79448 0.62296 0.0
N1773 N 0.74565 0.91606 0.53018 0.0
H1774 H 0.81921 0.92838 0.59291 0.0
H1775 H 0.81993 0.94182 0.55705 0.0
H1776 H 0.72737 0.91461 0.51264 0.0
H1777 H 0.77147 0.94676 0.53157 0.0
H1778 H 0.64276 0.76805 0.62378 0.0
H1779 H 0.6872 0.80185 0.64224 0.0
H1780 H 0.6367 0.74424 0.58578 0.0
H1781 H 0.63205 0.76196 0.55132 0.0
C1782 C 0.08248 0.86241 0.58244 0.0
C1783 C 0.11662 0.87504 0.60186 0.0
C1784 C 0.16087 0.85203 0.57441 0.0
C1785 C 0.12459 0.83541 0.5566 0.0
N1786 N 0.04752 0.81907 0.54615 0.0
N1787 N 0.18508 0.87574 0.61868 0.0
C1788 C 0.08434 0.83893 0.56134 0.0
C1789 C 0.15471 0.86777 0.59854 0.0
N1790 N 0.04964 0.87486 0.58327 0.0
N1791 N 0.20213 0.85452 0.56762 0.0
H1792 H 0.18246 0.88846 0.63615 0.0
H1793 H 0.21051 0.86657 0.6192 0.0
H1794 H 0.20846 0.84437 0.54976 0.0
H1795 H 0.23144 0.87048 0.5781 0.0
H1796 H 0.0262 0.87031 0.56817 0.0
H1797 H 0.04868 0.89326 0.59784 0.0
H1798 H 0.01559 0.81664 0.55054 0.0
H1799 H 0.04803 0.80219 0.53042 0.0
C1800 C 0.64064 0.82305 0.13109 0.0
C1801 C 0.59315 0.81037 0.1318 0.0
C1802 C 0.60032 0.84477 0.17309 0.0
C1803 C 0.64682 0.85386 0.17402 0.0
N1804 N 0.70787 0.84224 0.15728 0.0
N1805 N 0.5259 0.79703 0.15871 0.0
C1806 C 0.6662 0.84056 0.15386 0.0
C1807 C 0.57239 0.81796 0.15423 0.0
N1808 N 0.66129 0.81799 0.10872 0.0
N1809 N 0.58296 0.86232 0.18972 0.0
H1810 H 0.50522 0.7736 0.14699 0.0
H1811 H 0.50881 0.79878 0.17604 0.0
H1812 H 0.60265 0.88311 0.20327 0.0
H1813 H 0.55038 0.85952 0.18794 0.0
H1814 H 0.69669 0.83112 0.10544 0.0
H1815 H 0.64312 0.80308 0.09249 0.0
H1816 H 0.72151 0.82897 0.14476 0.0
H1817 H 0.7268 0.85286 0.17435 0.0
C1818 C 0.26114 0.82432 0.15511 0.0
C1819 C 0.23754 0.83101 0.13231 0.0
C1820 C 0.20616 0.86401 0.16149 0.0
C1821 C 0.23229 0.85965 0.18357 0.0
N1822 N 0.29094 0.84257 0.19977 0.0
N1823 N 0.18738 0.85707 0.11348 0.0
C1824 C 0.26191 0.84213 0.17978 0.0
C1825 C 0.21039 0.85131 0.13542 0.0
N1826 N 0.27947 0.79767 0.1541 0.0
N1827 N 0.17594 0.87881 0.1659 0.0
H1828 H 0.1858 0.84398 0.09541 0.0
H1829 H 0.17108 0.87569 0.11262 0.0
H1830 H 0.17239 0.88875 0.18452 0.0
H1831 H 0.15245 0.87919 0.15191 0.0
H1832 H 0.29314 0.78781 0.17095 0.0
H1833 H 0.27635 0.78169 0.13724 0.0
H1834 H 0.31694 0.83473 0.19689 0.0
H1835 H 0.29135 0.8539 0.21849 0.0
C1836 C 0.24413 0.42186 0.1456 0.0
C1837 C 0.22179 0.39008 0.12838 0.0
C1838 C 0.21438 0.33467 0.16625 0.0
C1839 C 0.23531 0.36638 0.18375 0.0
N1840 N 0.2756 0.44039 0.18987 0.0
N1841 N 0.17954 0.3164 0.12276 0.0
C1842 C 0.25188 0.41012 0.17331 0.0
C1843 C 0.20599 0.34653 0.13871 0.0
N1844 N 0.25474 0.46292 0.13587 0.0
N1845 N 0.20246 0.29323 0.17606 0.0
H1846 H 0.17162 0.32427 0.10291 0.0
H1847 H 0.16261 0.28381 0.12966 0.0
H1848 H 0.20555 0.28297 0.19659 0.0
H1849 H 0.19189 0.26924 0.16366 0.0
H1850 H 0.26663 0.48753 0.1478 0.0
H1851 H 0.24892 0.472 0.11578 0.0
H1852 H 0.29316 0.47293 0.18288 0.0
H1853 H 0.28026 0.43299 0.21063 0.0
C1854 C 0.84771 0.65881 0.93543 0.0
C1855 C 0.83366 0.6146 0.9401 0.0
C1856 C 0.87108 0.62111 0.8951 0.0
C1857 C 0.87884 0.66361 0.88871 0.0
N1858 N 0.86917 0.72162 0.90161 0.0
N1859 N 0.82385 0.55206 0.92207 0.0
C1860 C 0.86639 0.68245 0.90871 0.0
C1861 C 0.84371 0.59533 0.91947 0.0
N1862 N 0.84146 0.67774 0.95637 0.0
N1863 N 0.88983 0.6054 0.8779 0.0
H1864 H 0.80078 0.53245 0.93868 0.0
H1865 H 0.82635 0.53584 0.90647 0.0
H1866 H 0.91035 0.62356 0.85993 0.0
H1867 H 0.8887 0.57593 0.88298 0.0
H1868 H 0.85551 0.7106 0.95547 0.0
H1869 H 0.82464 0.66057 0.97544 0.0
H1870 H 0.85575 0.73485 0.91429 0.0
H1871 H 0.88132 0.7396 0.88202 0.0
C1872 C 0.43559 0.22711 0.90498 0.0
C1873 C 0.41119 0.2023 0.9302 0.0
C1874 C 0.34833 0.15738 0.90338 0.0
C1875 C 0.36827 0.18804 0.87918 0.0
N1876 N 0.43045 0.25567 0.858 0.0
N1877 N 0.34092 0.14606 0.95352 0.0
C1878 C 0.41248 0.2235 0.87994 0.0
C1879 C 0.36693 0.16737 0.92945 0.0
N1880 N 0.48048 0.25581 0.90614 0.0
N1881 N 0.31106 0.11903 0.90149 0.0
H1882 H 0.35273 0.15428 0.97271 0.0
H1883 H 0.30655 0.1232 0.95422 0.0
H1884 H 0.29719 0.11074 0.88258 0.0
H1885 H 0.29726 0.09419 0.91802 0.0
H1886 H 0.50263 0.27424 0.88887 0.0
H1887 H 0.50263 0.27424 0.88887 0.0
H1888 H 0.45954 0.28471 0.85881 0.0
H1889 H 0.41416 0.25533 0.83971 0.0
C1890 C 0.78962 0.18695 0.92489 0.0
C1891 C 0.76524 0.20922 0.92947 0.0
C1892 C 0.73658 0.19967 0.88294 0.0
C1893 C 0.75704 0.17341 0.87966 0.0
N1894 N 0.79524 0.13507 0.90033 0.0
N1895 N 0.71319 0.23483 0.91397 0.0
C1896 C 0.78134 0.16502 0.90146 0.0
C1897 C 0.73766 0.2146 0.90885 0.0
N1898 N 0.8226 0.18867 0.94217 0.0
N1899 N 0.71813 0.21205 0.86082 0.0
H1900 H 0.71594 0.24843 0.93198 0.0
H1901 H 0.68833 0.23587 0.90136 0.0
H1902 H 0.71813 0.20302 0.84131 0.0
H1903 H 0.70645 0.23422 0.86097 0.0
H1904 H 0.84476 0.17665 0.93838 0.0
H1905 H 0.83091 0.20609 0.9587 0.0
H1906 H 0.8088 0.12456 0.91696 0.0
H1907 H 0.78934 0.11783 0.88378 0.0
C1908 C 0.24614 0.14845 0.48558 0.0
C1909 C 0.26774 0.14147 0.4633 0.0
C1910 C 0.34087 0.17484 0.48487 0.0
C1911 C 0.32047 0.18763 0.50477 0.0
N1912 N 0.25478 0.19349 0.52032 0.0
N1913 N 0.3368 0.15155 0.44002 0.0
C1914 C 0.27336 0.1765 0.50404 0.0
C1915 C 0.31557 0.15598 0.46238 0.0
N1916 N 0.19969 0.12614 0.49016 0.0
N1917 N 0.38343 0.17854 0.48823 0.0
H1918 H 0.31888 0.13628 0.42381 0.0
H1919 H 0.37228 0.16571 0.43663 0.0
H1920 H 0.40229 0.19031 0.50512 0.0
H1921 H 0.39802 0.16587 0.47588 0.0
H1922 H 0.18215 0.12753 0.50741 0.0
H1923 H 0.17968 0.10224 0.47855 0.0
H1924 H 0.2216 0.18919 0.51858 0.0
H1925 H 0.2739 0.21527 0.53349 0.0
C1926 C 0.90072 0.13301 0.49072 0.0
C1927 C 0.90251 0.15866 0.46549 0.0
C1928 C 0.88608 0.20314 0.49315 0.0
C1929 C 0.87343 0.17182 0.51702 0.0
N1930 N 0.86586 0.10383 0.53753 0.0
N1931 N 0.88737 0.21388 0.44323 0.0
C1932 C 0.88112 0.13639 0.51584 0.0
C1933 C 0.8938 0.19335 0.46688 0.0
N1934 N 0.91452 0.10302 0.49013 0.0
N1935 N 0.88882 0.24161 0.49542 0.0
H1936 H 0.88723 0.20402 0.42413 0.0
H1937 H 0.87668 0.23683 0.44315 0.0
H1938 H 0.88351 0.24955 0.51448 0.0
H1939 H 0.90098 0.26671 0.47902 0.0
H1940 H 0.9254 0.09781 0.47168 0.0
H1941 H 0.91839 0.08593 0.50793 0.0
H1942 H 0.86554 0.075 0.53648 0.0
H1943 H 0.84993 0.10388 0.55591 0.0
C1944 C 0.84207 0.68203 0.46439 0.0
C1945 C 0.87747 0.72445 0.45677 0.0
C1946 C 0.90925 0.72123 0.50185 0.0
C1947 C 0.87041 0.68115 0.51077 0.0
N1948 N 0.79496 0.62724 0.50197 0.0
N1949 N 0.93861 0.78759 0.47055 0.0
C1950 C 0.83557 0.66234 0.49236 0.0
C1951 C 0.90967 0.74491 0.47605 0.0
N1952 N 0.81383 0.66097 0.44495 0.0
N1953 N 0.946 0.73643 0.51771 0.0
H1954 H 0.93723 0.80603 0.45269 0.0
H1955 H 0.96011 0.80512 0.48492 0.0
H1956 H 0.94716 0.71983 0.53663 0.0
H1957 H 0.97684 0.76342 0.51068 0.0
H1958 H 0.79052 0.62856 0.44846 0.0
H1959 H 0.81635 0.67515 0.42454 0.0
H1960 H 0.76661 0.61491 0.49016 0.0
H1961 H 0.78773 0.6129 0.52264 0.0
loop_
_geom_bond_atom_site_label_1
_geom_bond_atom_site_label_2
_geom_bond_distance
_geom_bond_site_symmetry_2
_ccdc_geom_bond_type
C0 N1 1.317 . S
C0 N2 1.348 . S
C0 C3 1.485 . S
N1 C0 1.317 . S
N1 N5 1.370 . S
N2 C0 1.348 . S
N2 C4 1.346 . S
C3 C0 1.485 . S
C3 H7 0.960 . S
C3 H8 0.961 . S
C3 H9 0.960 . S
C4 N2 1.346 . S
C4 N5 1.307 . S
C4 C6 1.486 . S
N5 N1 1.370 . S
N5 C4 1.307 . S
C6 C4 1.486 . S
C6 H10 0.960 . S
C6 H11 0.960 . S
C6 H12 0.959 . S
H7 C3 0.960 . S
H8 C3 0.961 . S
H9 C3 0.960 . S
H10 C6 0.960 . S
H11 C6 0.960 . S
H12 C6 0.959 . S
C13 N14 1.317 . S
C13 N15 1.348 . S
C13 C16 1.485 . S
N14 C13 1.317 . S
N14 N18 1.370 . S
N15 C13 1.348 . S
N15 C17 1.346 . S
C16 C13 1.485 . S
C16 H20 0.960 . S
C16 H21 0.961 . S
C16 H22 0.960 . S
C17 N15 1.346 . S
C17 N18 1.307 . S
C17 C19 1.486 . S
N18 N14 1.370 . S
N18 C17 1.307 . S
C19 C17 1.486 . S
C19 H23 0.960 . S
C19 H24 0.960 . S
C19 H25 0.959 . S
H20 C16 0.960 . S
H21 C16 0.961 . S
H22 C16 0.960 . S
H23 C19 0.960 . S
H24 C19 0.960 . S
H25 C19 0.959 . S
C26 N27 1.317 . S
C26 N28 1.348 . S
C26 C29 1.485 . S
N27 C26 1.317 . S
N27 N31 1.370 . S
N28 C26 1.348 . S
N28 C30 1.346 . S
C29 C26 1.485 . S
C29 H33 0.960 . S
C29 H34 0.961 . S
C29 H35 0.960 . S
C30 N28 1.346 . S
C30 N31 1.307 . S
C30 C32 1.486 . S
N31 N27 1.370 . S
N31 C30 1.307 . S
C32 C30 1.486 . S
C32 H36 0.960 . S
C32 H37 0.960 . S
C32 H38 0.959 . S
H33 C29 0.960 . S
H34 C29 0.961 . S
H35 C29 0.960 . S
H36 C32 0.960 . S
H37 C32 0.960 . S
H38 C32 0.959 . S
C39 N40 1.317 . S
C39 N41 1.348 . S
C39 C42 1.485 . S
N40 C39 1.317 . S
N40 N44 1.370 . S
N41 C39 1.348 . S
N41 C43 1.346 . S
C42 C39 1.485 . S
C42 H46 0.960 . S
C42 H47 0.961 . S
C42 H48 0.960 . S
C43 N41 1.346 . S
C43 N44 1.307 . S
C43 C45 1.486 . S
N44 N40 1.370 . S
N44 C43 1.307 . S
C45 C43 1.486 . S
C45 H49 0.960 . S
C45 H50 0.960 1_455 S
C45 H51 0.959 . S
H46 C42 0.960 . S
H47 C42 0.961 . S
H48 C42 0.960 . S
H49 C45 0.960 . S
H50 C45 0.960 1_655 S
H51 C45 0.959 . S
C52 N53 1.317 . S
C52 N54 1.348 . S
C52 C55 1.485 . S
N53 C52 1.317 . S
N53 N57 1.370 . S
N54 C52 1.348 . S
N54 C56 1.346 . S
C55 C52 1.485 . S
C55 H59 0.960 . S
C55 H60 0.961 . S
C55 H61 0.960 . S
C56 N54 1.346 . S
C56 N57 1.307 . S
C56 C58 1.486 . S
N57 N53 1.370 . S
N57 C56 1.307 . S
C58 C56 1.486 . S
C58 H62 0.960 . S
C58 H63 0.960 . S
C58 H64 0.959 . S
H59 C55 0.960 . S
H60 C55 0.961 . S
H61 C55 0.960 . S
H62 C58 0.960 . S
H63 C58 0.960 . S
H64 C58 0.959 . S
C65 N66 1.317 . S
C65 N67 1.348 . S
C65 C68 1.485 . S
N66 C65 1.317 . S
N66 N70 1.370 . S
N67 C65 1.348 . S
N67 C69 1.346 . S
C68 C65 1.485 . S
C68 H72 0.960 . S
C68 H73 0.961 . S
C68 H74 0.960 . S
C69 N67 1.346 . S
C69 N70 1.307 . S
C69 C71 1.486 . S
N70 N66 1.370 . S
N70 C69 1.307 . S
C71 C69 1.486 . S
C71 H75 0.960 . S
C71 H76 0.960 . S
C71 H77 0.959 . S
H72 C68 0.960 . S
H73 C68 0.961 . S
H74 C68 0.960 . S
H75 C71 0.960 . S
H76 C71 0.960 . S
H77 C71 0.959 . S
C78 N79 1.317 . S
C78 N80 1.348 . S
C78 C81 1.485 . S
N79 C78 1.317 . S
N79 N83 1.370 . S
N80 C78 1.348 . S
N80 C82 1.346 . S
C81 C78 1.485 . S
C81 H85 0.960 . S
C81 H86 0.961 . S
C81 H87 0.960 . S
C82 N80 1.346 . S
C82 N83 1.307 . S
C82 C84 1.486 . S
N83 N79 1.370 . S
N83 C82 1.307 . S
C84 C82 1.486 . S
C84 H88 0.960 . S
C84 H89 0.960 . S
C84 H90 0.959 . S
H85 C81 0.960 . S
H86 C81 0.961 . S
H87 C81 0.960 . S
H88 C84 0.960 . S
H89 C84 0.960 . S
H90 C84 0.959 . S
C91 N92 1.317 . S
C91 N93 1.348 . S
C91 C94 1.485 . S
N92 C91 1.317 . S
N92 N96 1.370 . S
N93 C91 1.348 . S
N93 C95 1.346 . S
C94 C91 1.485 . S
C94 H98 0.960 . S
C94 H99 0.961 . S
C94 H100 0.960 . S
C95 N93 1.346 . S
C95 N96 1.307 . S
C95 C97 1.486 . S
N96 N92 1.370 . S
N96 C95 1.307 . S
C97 C95 1.486 . S
C97 H101 0.960 . S
C97 H102 0.960 . S
C97 H103 0.959 . S
H98 C94 0.960 . S
H99 C94 0.961 . S
H100 C94 0.960 . S
H101 C97 0.960 . S
H102 C97 0.960 . S
H103 C97 0.959 . S
C104 N105 1.317 . S
C104 N106 1.348 . S
C104 C107 1.485 . S
N105 C104 1.317 . S
N105 N109 1.370 . S
N106 C104 1.348 . S
N106 C108 1.346 . S
C107 C104 1.485 . S
C107 H111 0.960 . S
C107 H112 0.961 . S
C107 H113 0.960 . S
C108 N106 1.346 . S
C108 N109 1.307 . S
C108 C110 1.486 . S
N109 N105 1.370 . S
N109 C108 1.307 . S
C110 C108 1.486 . S
C110 H114 0.960 . S
C110 H115 0.960 . S
C110 H116 0.959 . S
H111 C107 0.960 . S
H112 C107 0.961 . S
H113 C107 0.960 . S
H114 C110 0.960 . S
H115 C110 0.960 . S
H116 C110 0.959 . S
C117 N118 1.317 . S
C117 N119 1.348 . S
C117 C120 1.485 1_556 S
N118 C117 1.317 . S
N118 N122 1.370 . S
N119 C117 1.348 . S
N119 C121 1.346 . S
C120 C117 1.485 1_554 S
C120 H124 0.960 . S
C120 H125 0.961 . S
C120 H126 0.960 . S
C121 N119 1.346 . S
C121 N122 1.307 . S
C121 C123 1.486 . S
N122 N118 1.370 . S
N122 C121 1.307 . S
C123 C121 1.486 . S
C123 H127 0.960 . S
C123 H128 0.960 . S
C123 H129 0.959 . S
H124 C120 0.960 . S
H125 C120 0.961 . S
H126 C120 0.960 . S
H127 C123 0.960 . S
H128 C123 0.960 . S
H129 C123 0.959 . S
C130 N131 1.317 . S
C130 N132 1.348 . S
C130 C133 1.485 1_556 S
N131 C130 1.317 . S
N131 N135 1.370 . S
N132 C130 1.348 . S
N132 C134 1.346 . S
C133 C130 1.485 1_554 S
C133 H137 0.960 . S
C133 H138 0.961 . S
C133 H139 0.960 . S
C134 N132 1.346 . S
C134 N135 1.307 . S
C134 C136 1.486 . S
N135 N131 1.370 . S
N135 C134 1.307 . S
C136 C134 1.486 . S
C136 H140 0.960 . S
C136 H141 0.960 . S
C136 H142 0.959 . S
H137 C133 0.960 . S
H138 C133 0.961 . S
H139 C133 0.960 . S
H140 C136 0.960 . S
H141 C136 0.960 . S
H142 C136 0.959 . S
C143 N144 1.317 . S
C143 N145 1.348 . S
C143 C146 1.485 1_556 S
N144 C143 1.317 . S
N144 N148 1.370 . S
N145 C143 1.348 . S
N145 C147 1.346 . S
C146 C143 1.485 1_554 S
C146 H150 0.960 . S
C146 H151 0.961 . S
C146 H152 0.960 . S
C147 N145 1.346 . S
C147 N148 1.307 . S
C147 C149 1.486 . S
N148 N144 1.370 . S
N148 C147 1.307 . S
C149 C147 1.486 . S
C149 H153 0.960 . S
C149 H154 0.960 . S
C149 H155 0.959 . S
H150 C146 0.960 . S
H151 C146 0.961 . S
H152 C146 0.960 . S
H153 C149 0.960 . S
H154 C149 0.960 . S
H155 C149 0.959 . S
C156 N157 1.317 . S
C156 N158 1.348 . S
C156 C159 1.485 . S
N157 C156 1.317 . S
N157 N161 1.370 . S
N158 C156 1.348 . S
N158 C160 1.346 . S
C159 C156 1.485 . S
C159 H163 0.960 . S
C159 H164 0.961 . S
C159 H165 0.960 . S
C160 N158 1.346 . S
C160 N161 1.307 . S
C160 C162 1.486 . S
N161 N157 1.370 . S
N161 C160 1.307 . S
C162 C160 1.486 . S
C162 H166 0.960 . S
C162 H167 0.960 . S
C162 H168 0.959 . S
H163 C159 0.960 . S
H164 C159 0.961 . S
H165 C159 0.960 . S
H166 C162 0.960 . S
H167 C162 0.960 . S
H168 C162 0.959 . S
C169 N170 1.317 . S
C169 N171 1.348 . S
C169 C172 1.485 . S
N170 C169 1.317 . S
N170 N174 1.370 . S
N171 C169 1.348 . S
N171 C173 1.346 . S
C172 C169 1.485 . S
C172 H176 0.960 . S
C172 H177 0.961 . S
C172 H178 0.960 . S
C173 N171 1.346 . S
C173 N174 1.307 . S
C173 C175 1.486 . S
N174 N170 1.370 . S
N174 C173 1.307 . S
C175 C173 1.486 . S
C175 H179 0.960 . S
C175 H180 0.960 . S
C175 H181 0.959 . S
H176 C172 0.960 . S
H177 C172 0.961 . S
H178 C172 0.960 . S
H179 C175 0.960 . S
H180 C175 0.960 . S
H181 C175 0.959 . S
C182 N183 1.317 . S
C182 N184 1.348 . S
C182 C185 1.485 . S
N183 C182 1.317 . S
N183 N187 1.370 . S
N184 C182 1.348 . S
N184 C186 1.346 . S
C185 C182 1.485 . S
C185 H189 0.960 . S
C185 H190 0.961 . S
C185 H191 0.960 . S
C186 N184 1.346 . S
C186 N187 1.307 . S
C186 C188 1.486 . S
N187 N183 1.370 . S
N187 C186 1.307 . S
C188 C186 1.486 . S
C188 H192 0.960 . S
C188 H193 0.960 . S
C188 H194 0.959 . S
H189 C185 0.960 . S
H190 C185 0.961 . S
H191 C185 0.960 . S
H192 C188 0.960 . S
H193 C188 0.960 . S
H194 C188 0.959 . S
C195 N196 1.317 . S
C195 N197 1.348 . S
C195 C198 1.485 . S
N196 C195 1.317 . S
N196 N200 1.370 . S
N197 C195 1.348 . S
N197 C199 1.346 . S
C198 C195 1.485 . S
C198 H202 0.960 . S
C198 H203 0.961 . S
C198 H204 0.960 . S
C199 N197 1.346 . S
C199 N200 1.307 . S
C199 C201 1.486 . S
N200 N196 1.370 . S
N200 C199 1.307 . S
C201 C199 1.486 . S
C201 H205 0.960 . S
C201 H206 0.960 . S
C201 H207 0.959 . S
H202 C198 0.960 . S
H203 C198 0.961 . S
H204 C198 0.960 . S
H205 C201 0.960 . S
H206 C201 0.960 . S
H207 C201 0.959 . S
C208 N209 1.317 . S
C208 N210 1.348 . S
C208 C211 1.485 . S
N209 C208 1.317 . S
N209 N213 1.370 . S
N210 C208 1.348 . S
N210 C212 1.346 . S
C211 C208 1.485 . S
C211 H215 0.960 . S
C211 H216 0.961 . S
C211 H217 0.960 . S
C212 N210 1.346 . S
C212 N213 1.307 . S
C212 C214 1.486 . S
N213 N209 1.370 . S
N213 C212 1.307 . S
C214 C212 1.486 . S
C214 H218 0.960 . S
C214 H219 0.960 . S
C214 H220 0.959 . S
H215 C211 0.960 . S
H216 C211 0.961 . S
H217 C211 0.960 . S
H218 C214 0.960 . S
H219 C214 0.960 . S
H220 C214 0.959 . S
C221 N222 1.317 . S
C221 N223 1.348 . S
C221 C224 1.485 . S
N222 C221 1.317 . S
N222 N226 1.370 . S
N223 C221 1.348 . S
N223 C225 1.346 . S
C224 C221 1.485 . S
C224 H228 0.960 . S
C224 H229 0.961 . S
C224 H230 0.960 . S
C225 N223 1.346 . S
C225 N226 1.307 . S
C225 C227 1.486 . S
N226 N222 1.370 . S
N226 C225 1.307 . S
C227 C225 1.486 . S
C227 H231 0.960 . S
C227 H232 0.960 . S
C227 H233 0.959 . S
H228 C224 0.960 . S
H229 C224 0.961 . S
H230 C224 0.960 . S
H231 C227 0.960 . S
H232 C227 0.960 . S
H233 C227 0.959 . S
Gd234 N265 2.661 . S
Gd234 N271 2.601 . S
Gd234 O278 2.545 . S
Gd234 O279 2.606 1_545 S
Gd234 O281 2.429 . S
Gd234 O282 2.545 1_545 S
Gd234 O283 2.412 1_545 S
Gd234 O285 2.362 . S
Gd234 O286 2.324 1_545 S
Gd234 C293 2.828 1_545 S
Gd235 N244 2.661 . S
Gd235 N248 2.601 . S
Gd235 O279 2.362 1_556 S
Gd235 O280 2.324 1_565 S
Gd235 O284 2.545 . S
Gd235 O285 2.606 1_566 S
Gd235 O287 2.429 1_556 S
Gd235 O288 2.545 1_565 S
Gd235 O289 2.412 1_565 S
Gd235 C302 2.828 1_565 S
C236 C239 1.417 . S
C236 C241 1.431 . S
C236 C242 1.412 . S
C237 C240 1.437 . S
C237 C241 1.317 . S
C237 H256 0.929 . S
C238 C239 1.426 . S
C238 C240 1.413 . S
C238 N248 1.359 . S
C239 C236 1.417 . S
C239 C238 1.426 . S
C239 N244 1.350 . S
C240 C237 1.437 . S
C240 C238 1.413 . S
C240 C250 1.391 . S
C241 C236 1.431 . S
C241 C237 1.317 . S
C241 H252 0.930 . S
C242 C236 1.412 . S
C242 C243 1.355 . S
C242 H254 0.930 . S
C243 C242 1.355 . S
C243 C245 1.402 . S
C243 H255 0.930 . S
N244 Gd235 2.661 . S
N244 C239 1.350 . S
N244 C245 1.307 . S
C245 C243 1.402 . S
C245 N244 1.307 . S
C245 H246 0.906 1_565 S
H246 C245 0.906 1_545 S
C247 N248 1.334 . S
C247 C249 1.394 . S
C247 H251 0.930 . S
N248 Gd235 2.601 . S
N248 C238 1.359 . S
N248 C247 1.334 . S
C249 C247 1.394 . S
C249 C250 1.359 . S
C249 H261 0.930 . S
C250 C240 1.391 . S
C250 C249 1.359 . S
C250 H262 0.929 . S
H251 C247 0.930 . S
H252 C241 0.930 . S
H253 C270 0.930 . S
H254 C242 0.930 . S
H255 C243 0.930 . S
H256 C237 0.929 . S
H257 C275 0.930 . S
H258 C266 0.930 . S
H259 C267 0.930 . S
H260 C291 0.929 . S
H261 C249 0.930 . S
H262 C250 0.929 . S
H263 C292 0.930 . S
H264 C273 0.930 . S
N265 Gd234 2.661 . S
N265 C269 1.350 . S
N265 C270 1.307 . S
C266 H258 0.930 . S
C266 C267 1.355 . S
C266 C268 1.412 . S
C267 H259 0.930 . S
C267 C266 1.355 . S
C267 C270 1.402 . S
C268 C266 1.412 . S
C268 C269 1.417 . S
C268 C292 1.431 . S
C269 N265 1.350 . S
C269 C268 1.417 . S
C269 C272 1.426 . S
C270 H253 0.930 . S
C270 N265 1.307 . S
C270 C267 1.402 . S
N271 Gd234 2.601 . S
N271 C272 1.359 . S
N271 C275 1.334 . S
C272 C269 1.426 . S
C272 N271 1.359 . S
C272 C276 1.413 . S
C273 H264 0.930 . S
C273 C274 1.359 . S
C273 C275 1.394 . S
C274 C273 1.359 . S
C274 C276 1.391 . S
C274 H277 0.929 . S
C275 H257 0.930 . S
C275 N271 1.334 . S
C275 C273 1.394 . S
C276 C272 1.413 . S
C276 C274 1.391 . S
C276 C291 1.437 . S
H277 C274 0.929 . S
O278 Gd234 2.545 . S
O278 C293 1.258 1_545 S
O279 Gd234 2.606 1_565 S
O279 Gd235 2.362 1_554 S
O279 C290 1.284 . S
O280 Gd235 2.324 1_545 S
O280 C300 1.254 1_556 S
O281 Gd234 2.429 . S
O281 C300 1.268 . S
O282 Gd234 2.545 1_565 S
O282 C290 1.250 . S
O283 Gd234 2.412 1_565 S
O283 C293 1.252 . S
O284 Gd235 2.545 . S
O284 C302 1.258 1_565 S
O285 Gd234 2.362 . S
O285 Gd235 2.606 1_544 S
O285 C301 1.284 1_554 S
O286 Gd234 2.324 1_565 S
O286 C309 1.254 . S
O287 Gd235 2.429 1_554 S
O287 C309 1.268 . S
O288 Gd235 2.545 1_545 S
O288 C301 1.250 . S
O289 Gd235 2.412 1_545 S
O289 C302 1.252 . S
C290 O279 1.284 . S
C290 O282 1.250 . S
C291 H260 0.929 . S
C291 C276 1.437 . S
C291 C292 1.317 . S
C292 H263 0.930 . S
C292 C268 1.431 . S
C292 C291 1.317 . S
C293 Gd234 2.828 1_565 S
C293 O278 1.258 1_565 S
C293 O283 1.252 . S
C293 C294 1.497 . S
C294 C293 1.497 . S
C294 C295 1.395 . S
C294 C296 1.380 . S
C295 C294 1.395 . S
C295 C298 1.398 . S
C295 H310 0.930 1_565 S
C296 C294 1.380 . S
C296 C297 1.391 . S
C296 H311 0.930 . S
C297 C296 1.391 . S
C297 C299 1.387 . S
C298 C295 1.398 . S
C298 C299 1.380 . S
C298 H312 0.930 . S
C299 C297 1.387 . S
C299 C298 1.380 . S
C299 H313 0.930 . S
C300 O280 1.254 1_554 S
C300 O281 1.268 . S
C301 O285 1.284 1_556 S
C301 O288 1.250 . S
C302 Gd235 2.828 1_545 S
C302 O284 1.258 1_545 S
C302 O289 1.252 . S
C302 C303 1.497 . S
C303 C302 1.497 . S
C303 C304 1.395 . S
C303 C305 1.380 . S
C304 C303 1.395 . S
C304 C307 1.398 . S
C304 H314 0.930 1_545 S
C305 C303 1.380 . S
C305 C306 1.391 . S
C305 H315 0.930 . S
C306 C305 1.391 . S
C306 C308 1.387 . S
C307 C304 1.398 . S
C307 C308 1.380 . S
C307 H316 0.930 . S
C308 C306 1.387 . S
C308 C307 1.380 . S
C308 H317 0.930 . S
C309 O286 1.254 . S
C309 O287 1.268 . S
H310 C295 0.930 1_545 S
H311 C296 0.930 . S
H312 C298 0.930 . S
H313 C299 0.930 . S
H314 C304 0.930 1_565 S
H315 C305 0.930 . S
H316 C307 0.930 . S
H317 C308 0.930 . S
Gd318 N349 2.661 . S
Gd318 N355 2.601 . S
Gd318 O362 2.545 . S
Gd318 O363 2.606 1_655 S
Gd318 O365 2.429 . S
Gd318 O366 2.545 1_655 S
Gd318 O367 2.412 . S
Gd318 O369 2.362 . S
Gd318 O370 2.324 1_655 S
Gd318 C377 2.828 . S
Gd319 N328 2.661 . S
Gd319 N332 2.601 . S
Gd319 O363 2.362 1_556 S
Gd319 O364 2.324 1_455 S
Gd319 O368 2.545 . S
Gd319 O369 2.606 1_456 S
Gd319 O371 2.429 . S
Gd319 O372 2.545 1_455 S
Gd319 O373 2.412 . S
Gd319 C386 2.828 . S
C320 C323 1.417 . S
C320 C325 1.431 . S
C320 C326 1.412 . S
C321 C324 1.437 . S
C321 C325 1.317 . S
C321 H340 0.929 . S
C322 C323 1.426 . S
C322 C324 1.413 . S
C322 N332 1.359 . S
C323 C320 1.417 . S
C323 C322 1.426 . S
C323 N328 1.350 . S
C324 C321 1.437 . S
C324 C322 1.413 . S
C324 C334 1.391 . S
C325 C320 1.431 . S
C325 C321 1.317 . S
C325 H336 0.930 . S
C326 C320 1.412 . S
C326 C327 1.355 . S
C326 H338 0.930 . S
C327 C326 1.355 . S
C327 C329 1.402 . S
C327 H339 0.930 . S
N328 Gd319 2.661 . S
N328 C323 1.350 . S
N328 C329 1.307 . S
C329 C327 1.402 . S
C329 N328 1.307 . S
C329 H330 0.930 . S
H330 C329 0.930 . S
C331 N332 1.334 . S
C331 C333 1.394 . S
C331 H335 0.930 . S
N332 Gd319 2.601 . S
N332 C322 1.359 . S
N332 C331 1.334 . S
C333 C331 1.394 . S
C333 C334 1.359 . S
C333 H345 0.930 . S
C334 C324 1.391 . S
C334 C333 1.359 . S
C334 H346 0.929 . S
H335 C331 0.930 . S
H336 C325 0.930 . S
H337 C354 0.930 . S
H338 C326 0.930 . S
H339 C327 0.930 . S
H340 C321 0.929 . S
H341 C359 0.930 . S
H342 C350 0.930 . S
H343 C351 0.930 . S
H344 C375 0.929 . S
H345 C333 0.930 . S
H346 C334 0.929 . S
H347 C376 0.930 . S
H348 C357 0.930 . S
N349 Gd318 2.661 . S
N349 C353 1.350 . S
N349 C354 1.307 . S
C350 H342 0.930 . S
C350 C351 1.355 . S
C350 C352 1.412 . S
C351 H343 0.930 . S
C351 C350 1.355 . S
C351 C354 1.402 . S
C352 C350 1.412 . S
C352 C353 1.417 . S
C352 C376 1.431 . S
C353 N349 1.350 . S
C353 C352 1.417 . S
C353 C356 1.426 . S
C354 H337 0.930 . S
C354 N349 1.307 . S
C354 C351 1.402 . S
N355 Gd318 2.601 . S
N355 C356 1.359 . S
N355 C359 1.334 . S
C356 C353 1.426 . S
C356 N355 1.359 . S
C356 C360 1.413 . S
C357 H348 0.930 . S
C357 C358 1.359 . S
C357 C359 1.394 . S
C358 C357 1.359 . S
C358 C360 1.391 . S
C358 H361 0.929 . S
C359 H341 0.930 . S
C359 N355 1.334 . S
C359 C357 1.394 . S
C360 C356 1.413 . S
C360 C358 1.391 . S
C360 C375 1.437 . S
H361 C358 0.929 . S
O362 Gd318 2.545 . S
O362 C377 1.258 . S
O363 Gd318 2.606 1_455 S
O363 Gd319 2.362 1_554 S
O363 C374 1.284 . S
O364 Gd319 2.324 1_655 S
O364 C384 1.262 . S
O365 Gd318 2.429 . S
O365 C384 1.254 1_554 S
O366 Gd318 2.545 1_455 S
O366 C374 1.250 . S
O367 Gd318 2.412 . S
O367 C377 1.252 . S
O368 Gd319 2.545 . S
O368 C386 1.258 . S
O369 Gd318 2.362 . S
O369 Gd319 2.606 1_654 S
O369 C385 1.284 1_554 S
O370 Gd318 2.324 1_455 S
O370 C393 1.254 . S
O371 Gd319 2.429 . S
O371 C393 1.268 1_556 S
O372 Gd319 2.545 1_655 S
O372 C385 1.250 . S
O373 Gd319 2.412 . S
O373 C386 1.252 . S
C374 O363 1.284 . S
C374 O366 1.250 . S
C375 H344 0.929 . S
C375 C360 1.437 . S
C375 C376 1.317 . S
C376 H347 0.930 . S
C376 C352 1.431 . S
C376 C375 1.317 . S
C377 Gd318 2.828 . S
C377 O362 1.258 . S
C377 O367 1.252 . S
C377 C378 1.497 . S
C378 C377 1.497 . S
C378 C379 1.395 . S
C378 C380 1.380 1_655 S
C379 C378 1.395 . S
C379 C382 1.398 . S
C379 H394 0.930 . S
C380 C378 1.380 1_455 S
C380 C381 1.391 . S
C380 H395 0.930 . S
C381 C380 1.391 . S
C381 C383 1.387 . S
C382 C379 1.398 . S
C382 C383 1.380 1_655 S
C382 H396 0.930 . S
C383 C381 1.387 . S
C383 C382 1.380 1_455 S
C383 H397 0.930 . S
C384 O364 1.262 . S
C384 O365 1.254 1_556 S
C385 O369 1.284 1_556 S
C385 O372 1.250 . S
C386 Gd319 2.828 . S
C386 O368 1.258 . S
C386 O373 1.252 . S
C386 C387 1.497 . S
C387 C386 1.497 . S
C387 C388 1.395 . S
C387 C389 1.380 1_455 S
C388 C387 1.395 . S
C388 C391 1.398 . S
C388 H398 0.930 . S
C389 C387 1.380 1_655 S
C389 C390 1.391 . S
C389 H399 0.930 . S
C390 C389 1.391 . S
C390 C392 1.387 1_655 S
C391 C388 1.398 . S
C391 C392 1.380 . S
C391 H400 0.930 . S
C392 C390 1.387 1_455 S
C392 C391 1.380 . S
C392 H401 0.930 . S
C393 O370 1.254 . S
C393 O371 1.268 1_554 S
H394 C379 0.930 . S
H395 C380 0.930 . S
H396 C382 0.930 . S
H397 C383 0.930 . S
H398 C388 0.930 . S
H399 C389 0.930 . S
H400 C391 0.930 . S
H401 C392 0.930 . S
Gd402 N433 2.661 . S
Gd402 N439 2.601 . S
Gd402 O446 2.545 . S
Gd402 O447 2.606 1_556 S
Gd402 O449 2.429 1_556 S
Gd402 O450 2.545 . S
Gd402 O451 2.412 . S
Gd402 O453 2.362 1_556 S
Gd402 O454 2.319 1_556 S
Gd402 C461 2.828 . S
Gd403 N412 2.661 . S
Gd403 N416 2.601 . S
Gd403 O447 2.362 . S
Gd403 O448 2.324 . S
Gd403 O452 2.545 . S
Gd403 O453 2.606 . S
Gd403 O455 2.429 . S
Gd403 O456 2.545 . S
Gd403 O457 2.412 . S
Gd403 C470 2.828 . S
C404 C407 1.417 . S
C404 C409 1.431 . S
C404 C410 1.412 . S
C405 C408 1.437 . S
C405 C409 1.317 . S
C405 H424 0.929 . S
C406 C407 1.426 . S
C406 C408 1.413 . S
C406 N416 1.359 . S
C407 C404 1.417 . S
C407 C406 1.426 . S
C407 N412 1.350 . S
C408 C405 1.437 . S
C408 C406 1.413 . S
C408 C418 1.391 . S
C409 C404 1.431 . S
C409 C405 1.317 . S
C409 H420 0.930 . S
C410 C404 1.412 . S
C410 C411 1.355 . S
C410 H422 0.930 . S
C411 C410 1.355 . S
C411 C413 1.402 . S
C411 H423 0.930 . S
N412 Gd403 2.661 . S
N412 C407 1.350 . S
N412 C413 1.307 . S
C413 C411 1.402 . S
C413 N412 1.307 . S
C413 H414 0.930 . S
H414 C413 0.930 . S
C415 N416 1.334 . S
C415 C417 1.394 . S
C415 H419 0.930 . S
N416 Gd403 2.601 . S
N416 C406 1.359 . S
N416 C415 1.334 . S
C417 C415 1.394 . S
C417 C418 1.359 . S
C417 H429 0.930 . S
C418 C408 1.391 . S
C418 C417 1.359 . S
C418 H430 0.929 . S
H419 C415 0.930 . S
H420 C409 0.930 . S
H421 C438 0.930 . S
H422 C410 0.930 . S
H423 C411 0.930 . S
H424 C405 0.929 . S
H425 C443 0.930 . S
H426 C434 0.930 . S
H427 C435 0.930 . S
H428 C459 0.929 . S
H429 C417 0.930 . S
H430 C418 0.929 . S
H431 C460 0.930 . S
H432 C441 0.930 . S
N433 Gd402 2.661 . S
N433 C437 1.350 . S
N433 C438 1.307 . S
C434 H426 0.930 . S
C434 C435 1.355 . S
C434 C436 1.412 . S
C435 H427 0.930 . S
C435 C434 1.355 . S
C435 C438 1.402 . S
C436 C434 1.412 . S
C436 C437 1.417 . S
C436 C460 1.431 . S
C437 N433 1.350 . S
C437 C436 1.417 . S
C437 C440 1.426 . S
C438 H421 0.930 . S
C438 N433 1.307 . S
C438 C435 1.402 . S
N439 Gd402 2.601 . S
N439 C440 1.359 . S
N439 C443 1.334 . S
C440 C437 1.426 . S
C440 N439 1.359 . S
C440 C444 1.413 . S
C441 H432 0.930 . S
C441 C442 1.359 . S
C441 C443 1.394 . S
C442 C441 1.359 . S
C442 C444 1.391 . S
C442 H445 0.929 . S
C443 H425 0.930 . S
C443 N439 1.334 . S
C443 C441 1.394 . S
C444 C440 1.413 . S
C444 C442 1.391 . S
C444 C459 1.437 . S
H445 C442 0.929 . S
O446 Gd402 2.545 . S
O446 C461 1.258 . S
O447 Gd402 2.606 1_554 S
O447 Gd403 2.362 . S
O447 C458 1.312 . S
O448 Gd403 2.324 . S
O448 C468 1.254 . S
O449 Gd402 2.429 1_554 S
O449 C468 1.268 . S
O450 Gd402 2.545 . S
O450 C458 1.218 1_556 S
O451 Gd402 2.412 . S
O451 C461 1.252 . S
O452 Gd403 2.545 . S
O452 C470 1.258 . S
O453 Gd402 2.362 1_554 S
O453 Gd403 2.606 . S
O453 C469 1.284 . S
O454 Gd402 2.319 1_554 S
O454 C477 1.279 . S
O455 Gd403 2.429 . S
O455 C477 1.268 . S
O456 Gd403 2.545 . S
O456 C469 1.250 . S
O457 Gd403 2.412 . S
O457 C470 1.252 . S
C458 O447 1.312 . S
C458 O450 1.218 1_554 S
C459 H428 0.929 . S
C459 C444 1.437 . S
C459 C460 1.317 . S
C460 H431 0.930 . S
C460 C436 1.431 . S
C460 C459 1.317 . S
C461 Gd402 2.828 . S
C461 O446 1.258 . S
C461 O451 1.252 . S
C461 C462 1.497 . S
C462 C461 1.497 . S
C462 C463 1.395 . S
C462 C464 1.380 . S
C463 C462 1.395 . S
C463 C466 1.398 . S
C463 H478 0.930 . S
C464 C462 1.380 . S
C464 C465 1.391 . S
C464 H479 0.930 . S
C465 C464 1.391 . S
C465 C467 1.387 . S
C466 C463 1.398 . S
C466 C467 1.380 . S
C466 H480 0.930 . S
C467 C465 1.387 . S
C467 C466 1.380 . S
C467 H481 0.930 . S
C468 O448 1.254 . S
C468 O449 1.268 . S
C469 O453 1.284 . S
C469 O456 1.250 . S
C470 Gd403 2.828 . S
C470 O452 1.258 . S
C470 O457 1.252 . S
C470 C471 1.497 . S
C471 C470 1.497 . S
C471 C472 1.395 . S
C471 C473 1.380 . S
C472 C471 1.395 . S
C472 C475 1.398 . S
C472 H482 0.930 . S
C473 C471 1.380 . S
C473 C474 1.391 . S
C473 H483 0.930 . S
C474 C473 1.391 . S
C474 C476 1.387 . S
C475 C472 1.398 . S
C475 C476 1.380 . S
C475 H484 0.930 . S
C476 C474 1.387 . S
C476 C475 1.380 . S
C476 H485 0.930 . S
C477 O454 1.279 . S
C477 O455 1.268 . S
H478 C463 0.930 . S
H479 C464 0.930 . S
H480 C466 0.930 . S
H481 C467 0.930 . S
H482 C472 0.930 . S
H483 C473 0.930 . S
H484 C475 0.930 . S
H485 C476 0.930 . S
Gd486 N517 2.661 . S
Gd486 N523 2.601 . S
Gd486 O530 2.545 . S
Gd486 O531 2.606 . S
Gd486 O533 2.429 . S
Gd486 O534 2.545 . S
Gd486 O535 2.412 . S
Gd486 O537 2.362 . S
Gd486 O538 2.324 . S
Gd486 C545 2.828 . S
Gd487 N496 2.661 . S
Gd487 N500 2.601 . S
Gd487 O531 2.362 . S
Gd487 O532 2.324 . S
Gd487 O536 2.545 . S
Gd487 O537 2.606 . S
Gd487 O539 2.429 . S
Gd487 O540 2.545 . S
Gd487 O541 2.412 . S
Gd487 C554 2.828 . S
C488 C491 1.417 . S
C488 C493 1.431 . S
C488 C494 1.412 . S
C489 C492 1.437 . S
C489 C493 1.317 . S
C489 H508 0.929 . S
C490 C491 1.426 . S
C490 C492 1.413 . S
C490 N500 1.359 . S
C491 C488 1.417 . S
C491 C490 1.426 . S
C491 N496 1.350 . S
C492 C489 1.437 . S
C492 C490 1.413 . S
C492 C502 1.391 . S
C493 C488 1.431 . S
C493 C489 1.317 . S
C493 H504 0.930 1_455 S
C494 C488 1.412 . S
C494 C495 1.355 . S
C494 H506 0.930 1_455 S
C495 C494 1.355 . S
C495 C497 1.402 . S
C495 H507 0.930 . S
N496 Gd487 2.661 . S
N496 C491 1.350 . S
N496 C497 1.307 . S
C497 C495 1.402 . S
C497 N496 1.307 . S
C497 H498 0.930 . S
H498 C497 0.930 . S
C499 N500 1.334 . S
C499 C501 1.394 . S
C499 H503 0.930 . S
N500 Gd487 2.601 . S
N500 C490 1.359 . S
N500 C499 1.334 . S
C501 C499 1.394 . S
C501 C502 1.359 . S
C501 H513 0.930 . S
C502 C492 1.391 . S
C502 C501 1.359 . S
C502 H514 0.929 . S
H503 C499 0.930 . S
H504 C493 0.930 1_655 S
H505 C522 0.930 . S
H506 C494 0.930 1_655 S
H507 C495 0.930 . S
H508 C489 0.929 . S
H509 C527 0.930 . S
H510 C518 0.930 . S
H511 C519 0.930 . S
H512 C543 0.929 . S
H513 C501 0.930 . S
H514 C502 0.929 . S
H515 C544 0.930 . S
H516 C525 0.930 . S
N517 Gd486 2.661 . S
N517 C521 1.350 . S
N517 C522 1.307 . S
C518 H510 0.930 . S
C518 C519 1.355 . S
C518 C520 1.412 . S
C519 H511 0.930 . S
C519 C518 1.355 . S
C519 C522 1.402 . S
C520 C518 1.412 . S
C520 C521 1.417 . S
C520 C544 1.431 . S
C521 N517 1.350 . S
C521 C520 1.417 . S
C521 C524 1.426 . S
C522 H505 0.930 . S
C522 N517 1.307 . S
C522 C519 1.402 . S
N523 Gd486 2.601 . S
N523 C524 1.359 . S
N523 C527 1.334 . S
C524 C521 1.426 . S
C524 N523 1.359 . S
C524 C528 1.413 . S
C525 H516 0.930 . S
C525 C526 1.359 . S
C525 C527 1.394 . S
C526 C525 1.359 . S
C526 C528 1.391 . S
C526 H529 0.929 . S
C527 H509 0.930 . S
C527 N523 1.334 . S
C527 C525 1.394 . S
C528 C524 1.413 . S
C528 C526 1.391 . S
C528 C543 1.437 . S
H529 C526 0.929 . S
O530 Gd486 2.545 . S
O530 C545 1.258 . S
O531 Gd486 2.606 . S
O531 Gd487 2.362 . S
O531 C542 1.284 . S
O532 Gd487 2.324 . S
O532 C552 1.254 . S
O533 Gd486 2.429 . S
O533 C552 1.268 . S
O534 Gd486 2.545 . S
O534 C542 1.250 . S
O535 Gd486 2.412 . S
O535 C545 1.252 . S
O536 Gd487 2.545 . S
O536 C554 1.258 . S
O537 Gd486 2.362 . S
O537 Gd487 2.606 . S
O537 C553 1.284 . S
O538 Gd486 2.324 . S
O538 C561 1.254 . S
O539 Gd487 2.429 . S
O539 C561 1.268 . S
O540 Gd487 2.545 . S
O540 C553 1.250 . S
O541 Gd487 2.412 . S
O541 C554 1.252 . S
C542 O531 1.284 . S
C542 O534 1.250 . S
C543 H512 0.929 . S
C543 C528 1.437 . S
C543 C544 1.317 . S
C544 H515 0.930 . S
C544 C520 1.431 . S
C544 C543 1.317 . S
C545 Gd486 2.828 . S
C545 O530 1.258 . S
C545 O535 1.252 . S
C545 C546 1.497 . S
C546 C545 1.497 . S
C546 C547 1.395 . S
C546 C548 1.380 . S
C547 C546 1.395 . S
C547 C550 1.398 . S
C547 H562 0.930 . S
C548 C546 1.380 . S
C548 C549 1.391 . S
C548 H563 0.930 . S
C549 C548 1.391 . S
C549 C551 1.387 . S
C550 C547 1.398 . S
C550 C551 1.380 . S
C550 H564 0.930 . S
C551 C549 1.387 . S
C551 C550 1.380 . S
C551 H565 0.930 . S
C552 O532 1.254 . S
C552 O533 1.268 . S
C553 O537 1.284 . S
C553 O540 1.250 . S
C554 Gd487 2.828 . S
C554 O536 1.258 . S
C554 O541 1.252 . S
C554 C555 1.497 . S
C555 C554 1.497 . S
C555 C556 1.395 . S
C555 C557 1.380 . S
C556 C555 1.395 . S
C556 C559 1.398 . S
C556 H566 0.930 . S
C557 C555 1.380 . S
C557 C558 1.391 . S
C557 H567 0.930 . S
C558 C557 1.391 . S
C558 C560 1.387 . S
C559 C556 1.398 . S
C559 C560 1.380 . S
C559 H568 0.930 . S
C560 C558 1.387 . S
C560 C559 1.380 . S
C560 H569 0.930 . S
C561 O538 1.254 . S
C561 O539 1.268 . S
H562 C547 0.930 . S
H563 C548 0.930 . S
H564 C550 0.930 . S
H565 C551 0.930 . S
H566 C556 0.930 . S
H567 C557 0.930 . S
H568 C559 0.930 . S
H569 C560 0.930 . S
Gd570 N601 2.661 . S
Gd570 N607 2.601 . S
Gd570 O614 2.545 . S
Gd570 O615 2.606 . S
Gd570 O617 2.429 . S
Gd570 O618 2.545 . S
Gd570 O619 2.412 . S
Gd570 O621 2.362 . S
Gd570 O622 2.324 . S
Gd570 C629 2.828 . S
Gd571 N580 2.661 . S
Gd571 N584 2.601 . S
Gd571 O615 2.362 . S
Gd571 O616 2.324 . S
Gd571 O620 2.545 . S
Gd571 O621 2.606 . S
Gd571 O623 2.429 . S
Gd571 O624 2.545 . S
Gd571 O625 2.412 . S
Gd571 C638 2.828 . S
C572 C575 1.417 . S
C572 C577 1.431 . S
C572 C578 1.412 . S
C573 C576 1.437 . S
C573 C577 1.317 . S
C573 H592 0.929 . S
C574 C575 1.426 . S
C574 C576 1.413 . S
C574 N584 1.359 . S
C575 C572 1.417 . S
C575 C574 1.426 . S
C575 N580 1.350 . S
C576 C573 1.437 . S
C576 C574 1.413 . S
C576 C586 1.391 . S
C577 C572 1.431 . S
C577 C573 1.317 . S
C577 H588 0.930 . S
C578 C572 1.412 . S
C578 C579 1.355 . S
C578 H590 0.930 . S
C579 C578 1.355 . S
C579 C581 1.402 . S
C579 H591 0.930 . S
N580 Gd571 2.661 . S
N580 C575 1.350 . S
N580 C581 1.307 . S
C581 C579 1.402 . S
C581 N580 1.307 . S
C581 H582 0.930 . S
H582 C581 0.930 . S
C583 N584 1.334 . S
C583 C585 1.394 . S
C583 H587 0.930 . S
N584 Gd571 2.601 . S
N584 C574 1.359 . S
N584 C583 1.334 . S
C585 C583 1.394 . S
C585 C586 1.359 . S
C585 H597 0.930 1_565 S
C586 C576 1.391 . S
C586 C585 1.359 . S
C586 H598 0.929 . S
H587 C583 0.930 . S
H588 C577 0.930 . S
H589 C606 0.930 . S
H590 C578 0.930 . S
H591 C579 0.930 . S
H592 C573 0.929 . S
H593 C611 0.930 . S
H594 C602 0.930 . S
H595 C603 0.930 . S
H596 C627 0.929 . S
H597 C585 0.930 1_545 S
H598 C586 0.929 . S
H599 C628 0.930 . S
H600 C609 0.930 . S
N601 Gd570 2.661 . S
N601 C605 1.350 . S
N601 C606 1.307 . S
C602 H594 0.930 . S
C602 C603 1.355 . S
C602 C604 1.412 . S
C603 H595 0.930 . S
C603 C602 1.355 . S
C603 C606 1.402 . S
C604 C602 1.412 . S
C604 C605 1.417 . S
C604 C628 1.431 . S
C605 N601 1.350 . S
C605 C604 1.417 . S
C605 C608 1.426 . S
C606 H589 0.930 . S
C606 N601 1.307 . S
C606 C603 1.402 . S
N607 Gd570 2.601 . S
N607 C608 1.359 . S
N607 C611 1.334 . S
C608 C605 1.426 . S
C608 N607 1.359 . S
C608 C612 1.413 . S
C609 H600 0.930 . S
C609 C610 1.359 . S
C609 C611 1.394 . S
C610 C609 1.359 . S
C610 C612 1.391 . S
C610 H613 0.929 . S
C611 H593 0.930 . S
C611 N607 1.334 . S
C611 C609 1.394 . S
C612 C608 1.413 . S
C612 C610 1.391 . S
C612 C627 1.437 . S
H613 C610 0.929 . S
O614 Gd570 2.545 . S
O614 C629 1.258 . S
O615 Gd570 2.606 . S
O615 Gd571 2.362 . S
O615 C626 1.284 . S
O616 Gd571 2.324 . S
O616 C636 1.254 . S
O617 Gd570 2.429 . S
O617 C636 1.268 . S
O618 Gd570 2.545 . S
O618 C626 1.250 . S
O619 Gd570 2.412 . S
O619 C629 1.252 . S
O620 Gd571 2.545 . S
O620 C638 1.258 . S
O621 Gd570 2.362 . S
O621 Gd571 2.606 . S
O621 C637 1.284 . S
O622 Gd570 2.324 . S
O622 C645 1.254 . S
O623 Gd571 2.429 . S
O623 C645 1.268 . S
O624 Gd571 2.545 . S
O624 C637 1.250 . S
O625 Gd571 2.412 . S
O625 C638 1.252 . S
C626 O615 1.284 . S
C626 O618 1.250 . S
C627 H596 0.929 . S
C627 C612 1.437 . S
C627 C628 1.317 . S
C628 H599 0.930 . S
C628 C604 1.431 . S
C628 C627 1.317 . S
C629 Gd570 2.828 . S
C629 O614 1.258 . S
C629 O619 1.252 . S
C629 C630 1.497 . S
C630 C629 1.497 . S
C630 C631 1.395 . S
C630 C632 1.380 . S
C631 C630 1.395 . S
C631 C634 1.398 . S
C631 H646 0.930 . S
C632 C630 1.380 . S
C632 C633 1.391 . S
C632 H647 0.930 . S
C633 C632 1.391 . S
C633 C635 1.387 . S
C634 C631 1.398 . S
C634 C635 1.380 . S
C634 H648 0.930 . S
C635 C633 1.387 . S
C635 C634 1.380 . S
C635 H649 0.930 . S
C636 O616 1.254 . S
C636 O617 1.268 . S
C637 O621 1.284 . S
C637 O624 1.250 . S
C638 Gd571 2.828 . S
C638 O620 1.258 . S
C638 O625 1.252 . S
C638 C639 1.497 . S
C639 C638 1.497 . S
C639 C640 1.395 . S
C639 C641 1.380 . S
C640 C639 1.395 . S
C640 C643 1.398 . S
C640 H650 0.930 . S
C641 C639 1.380 . S
C641 C642 1.391 . S
C641 H651 0.930 . S
C642 C641 1.391 . S
C642 C644 1.387 . S
C643 C640 1.398 . S
C643 C644 1.380 . S
C643 H652 0.930 . S
C644 C642 1.387 . S
C644 C643 1.380 . S
C644 H653 0.930 . S
C645 O622 1.254 . S
C645 O623 1.268 . S
H646 C631 0.930 . S
H647 C632 0.930 . S
H648 C634 0.930 . S
H649 C635 0.930 . S
H650 C640 0.930 . S
H651 C641 0.930 . S
H652 C643 0.930 . S
H653 C644 0.930 . S
Gd654 N685 2.661 . S
Gd654 N691 2.601 . S
Gd654 O698 2.545 . S
Gd654 O699 2.606 . S
Gd654 O701 2.429 . S
Gd654 O702 2.545 . S
Gd654 O703 2.412 . S
Gd654 O705 2.362 . S
Gd654 O706 2.324 . S
Gd654 C713 2.828 . S
Gd655 N664 2.661 . S
Gd655 N668 2.601 . S
Gd655 O699 2.362 . S
Gd655 O700 2.324 . S
Gd655 O704 2.545 . S
Gd655 O705 2.606 . S
Gd655 O707 2.429 . S
Gd655 O708 2.545 . S
Gd655 O709 2.412 . S
Gd655 C722 2.828 . S
C656 C659 1.417 . S
C656 C661 1.431 . S
C656 C662 1.412 . S
C657 C660 1.437 . S
C657 C661 1.317 . S
C657 H676 0.929 . S
C658 C659 1.426 . S
C658 C660 1.413 . S
C658 N668 1.359 . S
C659 C656 1.417 . S
C659 C658 1.426 . S
C659 N664 1.350 . S
C660 C657 1.437 . S
C660 C658 1.413 . S
C660 C670 1.391 . S
C661 C656 1.431 . S
C661 C657 1.317 . S
C661 H672 0.930 . S
C662 C656 1.412 . S
C662 C663 1.355 . S
C662 H674 0.930 . S
C663 C662 1.355 . S
C663 C665 1.402 . S
C663 H675 0.930 . S
N664 Gd655 2.661 . S
N664 C659 1.350 . S
N664 C665 1.307 . S
C665 C663 1.402 . S
C665 N664 1.307 . S
C665 H666 0.930 . S
H666 C665 0.930 . S
C667 N668 1.334 . S
C667 C669 1.394 . S
C667 H671 0.930 . S
N668 Gd655 2.601 . S
N668 C658 1.359 . S
N668 C667 1.334 . S
C669 C667 1.394 . S
C669 C670 1.359 . S
C669 H681 0.930 . S
C670 C660 1.391 . S
C670 C669 1.359 . S
C670 H682 0.929 . S
H671 C667 0.930 . S
H672 C661 0.930 . S
H673 C690 0.930 . S
H674 C662 0.930 . S
H675 C663 0.930 . S
H676 C657 0.929 . S
H677 C695 0.930 . S
H678 C686 0.930 . S
H679 C687 0.930 . S
H680 C711 0.929 1_655 S
H681 C669 0.930 . S
H682 C670 0.929 . S
H683 C712 0.930 . S
H684 C693 0.930 . S
N685 Gd654 2.661 . S
N685 C689 1.350 . S
N685 C690 1.307 . S
C686 H678 0.930 . S
C686 C687 1.355 . S
C686 C688 1.412 . S
C687 H679 0.930 . S
C687 C686 1.355 . S
C687 C690 1.402 1_655 S
C688 C686 1.412 . S
C688 C689 1.417 1_655 S
C688 C712 1.431 . S
C689 N685 1.350 . S
C689 C688 1.417 1_455 S
C689 C692 1.426 . S
C690 H673 0.930 . S
C690 N685 1.307 . S
C690 C687 1.402 1_455 S
N691 Gd654 2.601 . S
N691 C692 1.359 . S
N691 C695 1.334 . S
C692 C689 1.426 . S
C692 N691 1.359 . S
C692 C696 1.413 . S
C693 H684 0.930 . S
C693 C694 1.359 . S
C693 C695 1.394 . S
C694 C693 1.359 . S
C694 C696 1.391 . S
C694 H697 0.929 . S
C695 H677 0.930 . S
C695 N691 1.334 . S
C695 C693 1.394 . S
C696 C692 1.413 . S
C696 C694 1.391 . S
C696 C711 1.437 . S
H697 C694 0.929 . S
O698 Gd654 2.545 . S
O698 C713 1.258 . S
O699 Gd654 2.606 . S
O699 Gd655 2.362 . S
O699 C710 1.284 . S
O700 Gd655 2.324 . S
O700 C720 1.254 . S
O701 Gd654 2.429 . S
O701 C720 1.268 . S
O702 Gd654 2.545 . S
O702 C710 1.250 . S
O703 Gd654 2.412 . S
O703 C713 1.252 . S
O704 Gd655 2.545 . S
O704 C722 1.258 . S
O705 Gd654 2.362 . S
O705 Gd655 2.606 . S
O705 C721 1.284 . S
O706 Gd654 2.324 . S
O706 C729 1.254 . S
O707 Gd655 2.429 . S
O707 C729 1.268 . S
O708 Gd655 2.545 . S
O708 C721 1.250 . S
O709 Gd655 2.412 . S
O709 C722 1.252 . S
C710 O699 1.284 . S
C710 O702 1.250 . S
C711 H680 0.929 1_455 S
C711 C696 1.437 . S
C711 C712 1.317 1_455 S
C712 H683 0.930 . S
C712 C688 1.431 . S
C712 C711 1.317 1_655 S
C713 Gd654 2.828 . S
C713 O698 1.258 . S
C713 O703 1.252 . S
C713 C714 1.497 . S
C714 C713 1.497 . S
C714 C715 1.395 . S
C714 C716 1.380 . S
C715 C714 1.395 . S
C715 C718 1.398 . S
C715 H730 0.930 . S
C716 C714 1.380 . S
C716 C717 1.391 . S
C716 H731 0.930 . S
C717 C716 1.391 . S
C717 C719 1.387 . S
C718 C715 1.398 . S
C718 C719 1.380 . S
C718 H732 0.930 . S
C719 C717 1.387 . S
C719 C718 1.380 . S
C719 H733 0.930 . S
C720 O700 1.254 . S
C720 O701 1.268 . S
C721 O705 1.284 . S
C721 O708 1.250 . S
C722 Gd655 2.828 . S
C722 O704 1.258 . S
C722 O709 1.252 . S
C722 C723 1.497 . S
C723 C722 1.497 . S
C723 C724 1.395 . S
C723 C725 1.380 . S
C724 C723 1.395 . S
C724 C727 1.398 . S
C724 H734 0.930 . S
C725 C723 1.380 . S
C725 C726 1.391 . S
C725 H735 0.930 . S
C726 C725 1.391 . S
C726 C728 1.387 . S
C727 C724 1.398 . S
C727 C728 1.380 . S
C727 H736 0.930 . S
C728 C726 1.387 . S
C728 C727 1.380 . S
C728 H737 0.930 . S
C729 O706 1.254 . S
C729 O707 1.268 . S
H730 C715 0.930 . S
H731 C716 0.930 . S
H732 C718 0.930 . S
H733 C719 0.930 . S
H734 C724 0.930 . S
H735 C725 0.930 . S
H736 C727 0.930 . S
H737 C728 0.930 . S
Gd738 N769 2.661 . S
Gd738 N775 2.601 . S
Gd738 O782 2.545 . S
Gd738 O783 2.606 . S
Gd738 O785 2.429 . S
Gd738 O786 2.545 . S
Gd738 O787 2.412 . S
Gd738 O789 2.362 . S
Gd738 O790 2.324 . S
Gd738 C797 2.828 . S
Gd739 N748 2.661 . S
Gd739 N752 2.601 . S
Gd739 O783 2.362 . S
Gd739 O784 2.324 . S
Gd739 O788 2.545 . S
Gd739 O789 2.606 . S
Gd739 O791 2.429 . S
Gd739 O792 2.545 . S
Gd739 O793 2.412 . S
Gd739 C806 2.828 . S
C740 C743 1.417 . S
C740 C745 1.431 . S
C740 C746 1.412 . S
C741 C744 1.437 . S
C741 C745 1.317 . S
C741 H760 0.929 . S
C742 C743 1.426 . S
C742 C744 1.413 . S
C742 N752 1.359 . S
C743 C740 1.417 . S
C743 C742 1.426 . S
C743 N748 1.350 . S
C744 C741 1.437 . S
C744 C742 1.413 . S
C744 C754 1.391 . S
C745 C740 1.431 . S
C745 C741 1.317 . S
C745 H756 0.930 . S
C746 C740 1.412 . S
C746 C747 1.355 . S
C746 H758 0.930 . S
C747 C746 1.355 . S
C747 C749 1.402 . S
C747 H759 0.930 . S
N748 Gd739 2.661 . S
N748 C743 1.350 . S
N748 C749 1.307 . S
C749 C747 1.402 . S
C749 N748 1.307 . S
C749 H750 0.930 . S
H750 C749 0.930 . S
C751 N752 1.334 . S
C751 C753 1.394 . S
C751 H755 0.930 . S
N752 Gd739 2.601 . S
N752 C742 1.359 . S
N752 C751 1.334 . S
C753 C751 1.394 . S
C753 C754 1.359 . S
C753 H765 0.930 . S
C754 C744 1.391 . S
C754 C753 1.359 . S
C754 H766 0.929 . S
H755 C751 0.930 . S
H756 C745 0.930 . S
H757 C774 0.930 . S
H758 C746 0.930 . S
H759 C747 0.930 . S
H760 C741 0.929 . S
H761 C779 0.930 . S
H762 C770 0.930 . S
H763 C771 0.930 . S
H764 C795 0.929 . S
H765 C753 0.930 . S
H766 C754 0.929 . S
H767 C796 0.930 . S
H768 C777 0.930 . S
N769 Gd738 2.661 . S
N769 C773 1.350 . S
N769 C774 1.307 . S
C770 H762 0.930 . S
C770 C771 1.355 . S
C770 C772 1.412 . S
C771 H763 0.930 . S
C771 C770 1.355 . S
C771 C774 1.402 1_455 S
C772 C770 1.412 . S
C772 C773 1.417 1_455 S
C772 C796 1.431 . S
C773 N769 1.350 . S
C773 C772 1.417 1_655 S
C773 C776 1.426 . S
C774 H757 0.930 . S
C774 N769 1.307 . S
C774 C771 1.402 1_655 S
N775 Gd738 2.601 . S
N775 C776 1.359 . S
N775 C779 1.334 . S
C776 C773 1.426 . S
C776 N775 1.359 . S
C776 C780 1.413 . S
C777 H768 0.930 . S
C777 C778 1.359 . S
C777 C779 1.394 . S
C778 C777 1.359 . S
C778 C780 1.391 . S
C778 H781 0.929 . S
C779 H761 0.930 . S
C779 N775 1.334 . S
C779 C777 1.394 . S
C780 C776 1.413 . S
C780 C778 1.391 . S
C780 C795 1.437 1_655 S
H781 C778 0.929 . S
O782 Gd738 2.545 . S
O782 C797 1.258 . S
O783 Gd738 2.606 . S
O783 Gd739 2.362 . S
O783 C794 1.284 . S
O784 Gd739 2.324 . S
O784 C804 1.254 . S
O785 Gd738 2.429 . S
O785 C804 1.268 . S
O786 Gd738 2.545 . S
O786 C794 1.250 . S
O787 Gd738 2.412 . S
O787 C797 1.252 . S
O788 Gd739 2.545 . S
O788 C806 1.258 . S
O789 Gd738 2.362 . S
O789 Gd739 2.606 . S
O789 C805 1.284 . S
O790 Gd738 2.324 . S
O790 C813 1.254 . S
O791 Gd739 2.429 . S
O791 C813 1.268 . S
O792 Gd739 2.545 . S
O792 C805 1.250 . S
O793 Gd739 2.412 . S
O793 C806 1.252 . S
C794 O783 1.284 . S
C794 O786 1.250 . S
C795 H764 0.929 . S
C795 C780 1.437 1_455 S
C795 C796 1.317 . S
C796 H767 0.930 . S
C796 C772 1.431 . S
C796 C795 1.317 . S
C797 Gd738 2.828 . S
C797 O782 1.258 . S
C797 O787 1.252 . S
C797 C798 1.497 . S
C798 C797 1.497 . S
C798 C799 1.395 . S
C798 C800 1.380 . S
C799 C798 1.395 . S
C799 C802 1.398 . S
C799 H814 0.930 . S
C800 C798 1.380 . S
C800 C801 1.391 . S
C800 H815 0.930 . S
C801 C800 1.391 . S
C801 C803 1.387 . S
C802 C799 1.398 . S
C802 C803 1.380 . S
C802 H816 0.930 . S
C803 C801 1.387 . S
C803 C802 1.380 . S
C803 H817 0.930 . S
C804 O784 1.254 . S
C804 O785 1.268 . S
C805 O789 1.284 . S
C805 O792 1.250 . S
C806 Gd739 2.828 . S
C806 O788 1.258 . S
C806 O793 1.252 . S
C806 C807 1.497 . S
C807 C806 1.497 . S
C807 C808 1.395 . S
C807 C809 1.380 . S
C808 C807 1.395 . S
C808 C811 1.398 . S
C808 H818 0.930 . S
C809 C807 1.380 . S
C809 C810 1.391 . S
C809 H819 0.930 . S
C810 C809 1.391 . S
C810 C812 1.387 . S
C811 C808 1.398 . S
C811 C812 1.380 . S
C811 H820 0.930 . S
C812 C810 1.387 . S
C812 C811 1.380 . S
C812 H821 0.930 . S
C813 O790 1.254 . S
C813 O791 1.268 . S
H814 C799 0.930 . S
H815 C800 0.930 . S
H816 C802 0.930 . S
H817 C803 0.930 . S
H818 C808 0.930 . S
H819 C809 0.930 . S
H820 C811 0.930 . S
H821 C812 0.930 . S
Gd822 N853 2.661 . S
Gd822 N859 2.601 . S
Gd822 O866 2.545 . S
Gd822 O867 2.606 . S
Gd822 O869 2.429 . S
Gd822 O870 2.545 . S
Gd822 O871 2.412 . S
Gd822 O873 2.362 . S
Gd822 O874 2.324 . S
Gd822 C881 2.828 . S
Gd823 N832 2.661 . S
Gd823 N836 2.601 . S
Gd823 O867 2.362 . S
Gd823 O868 2.324 . S
Gd823 O872 2.545 . S
Gd823 O873 2.606 . S
Gd823 O875 2.429 . S
Gd823 O876 2.545 . S
Gd823 O877 2.412 . S
Gd823 C890 2.828 . S
C824 C827 1.417 . S
C824 C829 1.431 . S
C824 C830 1.412 . S
C825 C828 1.437 . S
C825 C829 1.317 . S
C825 H844 0.929 . S
C826 C827 1.426 . S
C826 C828 1.413 . S
C826 N836 1.359 . S
C827 C824 1.417 . S
C827 C826 1.426 . S
C827 N832 1.350 . S
C828 C825 1.437 . S
C828 C826 1.413 . S
C828 C838 1.391 . S
C829 C824 1.431 . S
C829 C825 1.317 . S
C829 H840 0.930 . S
C830 C824 1.412 . S
C830 C831 1.355 . S
C830 H842 0.930 . S
C831 C830 1.355 . S
C831 C833 1.402 . S
C831 H843 0.930 . S
N832 Gd823 2.661 . S
N832 C827 1.350 . S
N832 C833 1.307 . S
C833 C831 1.402 . S
C833 N832 1.307 . S
C833 H834 0.930 . S
H834 C833 0.930 . S
C835 N836 1.334 . S
C835 C837 1.394 . S
C835 H839 0.930 . S
N836 Gd823 2.601 . S
N836 C826 1.359 . S
N836 C835 1.334 . S
C837 C835 1.394 . S
C837 C838 1.359 . S
C837 H849 0.930 . S
C838 C828 1.391 . S
C838 C837 1.359 . S
C838 H850 0.929 . S
H839 C835 0.930 . S
H840 C829 0.930 . S
H841 C858 0.930 . S
H842 C830 0.930 . S
H843 C831 0.930 . S
H844 C825 0.929 . S
H845 C863 0.930 . S
H846 C854 0.930 . S
H847 C855 0.930 . S
H848 C879 0.929 . S
H849 C837 0.930 . S
H850 C838 0.929 . S
H851 C880 0.930 . S
H852 C861 0.930 . S
N853 Gd822 2.661 . S
N853 C857 1.350 . S
N853 C858 1.307 . S
C854 H846 0.930 . S
C854 C855 1.355 . S
C854 C856 1.412 . S
C855 H847 0.930 . S
C855 C854 1.355 . S
C855 C858 1.402 . S
C856 C854 1.412 . S
C856 C857 1.417 . S
C856 C880 1.431 . S
C857 N853 1.350 . S
C857 C856 1.417 . S
C857 C860 1.426 . S
C858 H841 0.930 . S
C858 N853 1.307 . S
C858 C855 1.402 . S
N859 Gd822 2.601 . S
N859 C860 1.359 . S
N859 C863 1.334 . S
C860 C857 1.426 . S
C860 N859 1.359 . S
C860 C864 1.413 . S
C861 H852 0.930 . S
C861 C862 1.359 . S
C861 C863 1.394 . S
C862 C861 1.359 . S
C862 C864 1.391 . S
C862 H865 0.929 . S
C863 H845 0.930 . S
C863 N859 1.334 . S
C863 C861 1.394 . S
C864 C860 1.413 . S
C864 C862 1.391 . S
C864 C879 1.437 . S
H865 C862 0.929 . S
O866 Gd822 2.545 . S
O866 C881 1.258 . S
O867 Gd822 2.606 . S
O867 Gd823 2.362 . S
O867 C878 1.284 . S
O868 Gd823 2.324 . S
O868 C888 1.254 . S
O869 Gd822 2.429 . S
O869 C888 1.268 . S
O870 Gd822 2.545 . S
O870 C878 1.250 . S
O871 Gd822 2.412 . S
O871 C881 1.252 . S
O872 Gd823 2.545 . S
O872 C890 1.258 . S
O873 Gd822 2.362 . S
O873 Gd823 2.606 . S
O873 C889 1.284 . S
O874 Gd822 2.324 . S
O874 C897 1.254 . S
O875 Gd823 2.429 . S
O875 C897 1.268 . S
O876 Gd823 2.545 . S
O876 C889 1.250 . S
O877 Gd823 2.412 . S
O877 C890 1.252 . S
C878 O867 1.284 . S
C878 O870 1.250 . S
C879 H848 0.929 . S
C879 C864 1.437 . S
C879 C880 1.317 . S
C880 H851 0.930 . S
C880 C856 1.431 . S
C880 C879 1.317 . S
C881 Gd822 2.828 . S
C881 O866 1.258 . S
C881 O871 1.252 . S
C881 C882 1.497 . S
C882 C881 1.497 . S
C882 C883 1.395 . S
C882 C884 1.380 . S
C883 C882 1.395 . S
C883 C886 1.398 . S
C883 H898 0.930 . S
C884 C882 1.380 . S
C884 C885 1.391 . S
C884 H899 0.930 . S
C885 C884 1.391 . S
C885 C887 1.387 . S
C886 C883 1.398 . S
C886 C887 1.380 . S
C886 H900 0.930 . S
C887 C885 1.387 . S
C887 C886 1.380 . S
C887 H901 0.930 . S
C888 O868 1.254 . S
C888 O869 1.268 . S
C889 O873 1.284 . S
C889 O876 1.250 . S
C890 Gd823 2.828 . S
C890 O872 1.258 . S
C890 O877 1.252 . S
C890 C891 1.497 . S
C891 C890 1.497 . S
C891 C892 1.395 . S
C891 C893 1.380 . S
C892 C891 1.395 . S
C892 C895 1.398 . S
C892 H902 0.930 . S
C893 C891 1.380 . S
C893 C894 1.391 . S
C893 H903 0.930 . S
C894 C893 1.391 . S
C894 C896 1.387 . S
C895 C892 1.398 . S
C895 C896 1.380 . S
C895 H904 0.930 . S
C896 C894 1.387 . S
C896 C895 1.380 . S
C896 H905 0.930 . S
C897 O874 1.254 . S
C897 O875 1.268 . S
H898 C883 0.930 . S
H899 C884 0.930 . S
H900 C886 0.930 . S
H901 C887 0.930 . S
H902 C892 0.930 . S
H903 C893 0.930 . S
H904 C895 0.930 . S
H905 C896 0.930 . S
Gd906 N937 2.661 . S
Gd906 N943 2.601 . S
Gd906 O950 2.545 . S
Gd906 O951 2.606 . S
Gd906 O953 2.429 . S
Gd906 O954 2.545 . S
Gd906 O955 2.412 . S
Gd906 O957 2.362 . S
Gd906 O958 2.324 . S
Gd906 C965 2.828 . S
Gd907 N916 2.661 . S
Gd907 N920 2.601 . S
Gd907 O951 2.362 . S
Gd907 O952 2.324 . S
Gd907 O956 2.545 . S
Gd907 O957 2.606 . S
Gd907 O959 2.429 . S
Gd907 O960 2.545 . S
Gd907 O961 2.412 . S
Gd907 C974 2.828 . S
C908 C911 1.417 . S
C908 C913 1.431 1_655 S
C908 C914 1.412 1_655 S
C909 C912 1.437 . S
C909 C913 1.317 1_655 S
C909 H928 0.929 . S
C910 C911 1.426 . S
C910 C912 1.413 . S
C910 N920 1.359 . S
C911 C908 1.417 . S
C911 C910 1.426 . S
C911 N916 1.350 . S
C912 C909 1.437 . S
C912 C910 1.413 . S
C912 C922 1.391 . S
C913 C908 1.431 1_455 S
C913 C909 1.317 1_455 S
C913 H924 0.930 . S
C914 C908 1.412 1_455 S
C914 C915 1.355 1_455 S
C914 H926 0.930 . S
C915 C914 1.355 1_655 S
C915 C917 1.402 . S
C915 H927 0.930 1_655 S
N916 Gd907 2.661 . S
N916 C911 1.350 . S
N916 C917 1.307 . S
C917 C915 1.402 . S
C917 N916 1.307 . S
C917 H918 0.930 . S
H918 C917 0.930 . S
C919 N920 1.334 . S
C919 C921 1.394 . S
C919 H923 0.930 . S
N920 Gd907 2.601 . S
N920 C910 1.359 . S
N920 C919 1.334 . S
C921 C919 1.394 . S
C921 C922 1.359 . S
C921 H933 0.930 1_545 S
C922 C912 1.391 . S
C922 C921 1.359 . S
C922 H934 0.929 . S
H923 C919 0.930 . S
H924 C913 0.930 . S
H925 C942 0.930 . S
H926 C914 0.930 . S
H927 C915 0.930 1_455 S
H928 C909 0.929 . S
H929 C947 0.930 . S
H930 C938 0.930 . S
H931 C939 0.930 . S
H932 C963 0.929 . S
H933 C921 0.930 1_565 S
H934 C922 0.929 . S
H935 C964 0.930 . S
H936 C945 0.930 . S
N937 Gd906 2.661 . S
N937 C941 1.350 . S
N937 C942 1.307 . S
C938 H930 0.930 . S
C938 C939 1.355 . S
C938 C940 1.412 . S
C939 H931 0.930 . S
C939 C938 1.355 . S
C939 C942 1.402 . S
C940 C938 1.412 . S
C940 C941 1.417 . S
C940 C964 1.431 . S
C941 N937 1.350 . S
C941 C940 1.417 . S
C941 C944 1.426 . S
C942 H925 0.930 . S
C942 N937 1.307 . S
C942 C939 1.402 . S
N943 Gd906 2.601 . S
N943 C944 1.359 . S
N943 C947 1.334 . S
C944 C941 1.426 . S
C944 N943 1.359 . S
C944 C948 1.413 . S
C945 H936 0.930 . S
C945 C946 1.359 . S
C945 C947 1.394 . S
C946 C945 1.359 . S
C946 C948 1.391 . S
C946 H949 0.929 . S
C947 H929 0.930 . S
C947 N943 1.334 . S
C947 C945 1.394 . S
C948 C944 1.413 . S
C948 C946 1.391 . S
C948 C963 1.437 . S
H949 C946 0.929 . S
O950 Gd906 2.545 . S
O950 C965 1.258 . S
O951 Gd906 2.606 . S
O951 Gd907 2.362 . S
O951 C962 1.284 . S
O952 Gd907 2.324 . S
O952 C972 1.254 . S
O953 Gd906 2.429 . S
O953 C972 1.268 . S
O954 Gd906 2.545 . S
O954 C962 1.250 . S
O955 Gd906 2.412 . S
O955 C965 1.252 . S
O956 Gd907 2.545 . S
O956 C974 1.258 . S
O957 Gd906 2.362 . S
O957 Gd907 2.606 . S
O957 C973 1.284 . S
O958 Gd906 2.324 . S
O958 C981 1.254 . S
O959 Gd907 2.429 . S
O959 C981 1.268 . S
O960 Gd907 2.545 . S
O960 C973 1.250 . S
O961 Gd907 2.412 . S
O961 C974 1.252 . S
C962 O951 1.284 . S
C962 O954 1.250 . S
C963 H932 0.929 . S
C963 C948 1.437 . S
C963 C964 1.317 . S
C964 H935 0.930 . S
C964 C940 1.431 . S
C964 C963 1.317 . S
C965 Gd906 2.828 . S
C965 O950 1.258 . S
C965 O955 1.252 . S
C965 C966 1.497 . S
C966 C965 1.497 . S
C966 C967 1.395 . S
C966 C968 1.380 . S
C967 C966 1.395 . S
C967 C970 1.398 . S
C967 H982 0.930 . S
C968 C966 1.380 . S
C968 C969 1.391 . S
C968 H983 0.930 . S
C969 C968 1.391 . S
C969 C971 1.387 . S
C970 C967 1.398 . S
C970 C971 1.380 . S
C970 H984 0.930 . S
C971 C969 1.387 . S
C971 C970 1.380 . S
C971 H985 0.930 . S
C972 O952 1.254 . S
C972 O953 1.268 . S
C973 O957 1.284 . S
C973 O960 1.250 . S
C974 Gd907 2.828 . S
C974 O956 1.258 . S
C974 O961 1.252 . S
C974 C975 1.497 . S
C975 C974 1.497 . S
C975 C976 1.395 . S
C975 C977 1.380 . S
C976 C975 1.395 . S
C976 C979 1.398 . S
C976 H986 0.930 . S
C977 C975 1.380 . S
C977 C978 1.391 . S
C977 H987 0.930 . S
C978 C977 1.391 . S
C978 C980 1.387 . S
C979 C976 1.398 . S
C979 C980 1.380 . S
C979 H988 0.930 . S
C980 C978 1.387 . S
C980 C979 1.380 . S
C980 H989 0.930 . S
C981 O958 1.254 . S
C981 O959 1.268 . S
H982 C967 0.930 . S
H983 C968 0.930 . S
H984 C970 0.930 . S
H985 C971 0.930 . S
H986 C976 0.930 . S
H987 C977 0.930 . S
H988 C979 0.930 . S
H989 C980 0.930 . S
C990 C991 1.363 . S
C990 C996 1.379 . S
C990 N998 1.356 . S
C991 C990 1.363 . S
C991 C997 1.363 . S
C992 C993 1.363 . S
C992 C997 1.379 . S
C992 N999 1.356 . S
C993 C992 1.363 . S
C993 C996 1.363 . S
N994 C996 1.356 . S
N994 H1006 0.984 . S
N994 H1007 0.985 . S
N995 C997 1.356 . S
N995 H1000 0.984 . S
N995 H1001 0.985 . S
C996 C990 1.379 . S
C996 C993 1.363 . S
C996 N994 1.356 . S
C997 C991 1.363 . S
C997 C992 1.379 . S
C997 N995 1.356 . S
N998 C990 1.356 . S
N998 H1004 0.984 . S
N998 H1005 0.984 . S
N999 C992 1.356 . S
N999 H1002 0.984 . S
N999 H1003 0.985 . S
H1000 N995 0.984 . S
H1001 N995 0.985 . S
H1002 N999 0.984 . S
H1003 N999 0.985 . S
H1004 N998 0.984 . S
H1005 N998 0.984 . S
H1006 N994 0.984 . S
H1007 N994 0.985 . S
C1008 C1009 1.363 . S
C1008 C1014 1.379 . S
C1008 N1016 1.356 . S
C1009 C1008 1.363 . S
C1009 C1015 1.363 . S
C1010 C1011 1.363 . S
C1010 C1015 1.379 . S
C1010 N1017 1.356 . S
C1011 C1010 1.363 . S
C1011 C1014 1.363 . S
N1012 C1014 1.356 . S
N1012 H1024 0.984 . S
N1012 H1025 0.985 . S
N1013 C1015 1.356 . S
N1013 H1018 0.984 . S
N1013 H1019 0.985 . S
C1014 C1008 1.379 . S
C1014 C1011 1.363 . S
C1014 N1012 1.356 . S
C1015 C1009 1.363 . S
C1015 C1010 1.379 . S
C1015 N1013 1.356 . S
N1016 C1008 1.356 . S
N1016 H1022 0.984 . S
N1016 H1023 0.984 . S
N1017 C1010 1.356 . S
N1017 H1020 0.984 . S
N1017 H1021 0.985 . S
H1018 N1013 0.984 . S
H1019 N1013 0.985 . S
H1020 N1017 0.984 . S
H1021 N1017 0.985 . S
H1022 N1016 0.984 . S
H1023 N1016 0.984 . S
H1024 N1012 0.984 . S
H1025 N1012 0.985 . S
C1026 C1027 1.363 . S
C1026 C1032 1.379 . S
C1026 N1034 1.356 . S
C1027 C1026 1.363 . S
C1027 C1033 1.363 . S
C1028 C1029 1.363 . S
C1028 C1033 1.379 . S
C1028 N1035 1.356 . S
C1029 C1028 1.363 . S
C1029 C1032 1.363 . S
N1030 C1032 1.356 . S
N1030 H1042 0.984 . S
N1030 H1043 0.985 . S
N1031 C1033 1.356 . S
N1031 H1036 0.984 . S
N1031 H1037 0.985 . S
C1032 C1026 1.379 . S
C1032 C1029 1.363 . S
C1032 N1030 1.356 . S
C1033 C1027 1.363 . S
C1033 C1028 1.379 . S
C1033 N1031 1.356 . S
N1034 C1026 1.356 . S
N1034 H1040 0.984 . S
N1034 H1041 0.984 . S
N1035 C1028 1.356 . S
N1035 H1038 0.984 . S
N1035 H1039 0.985 1_554 S
H1036 N1031 0.984 . S
H1037 N1031 0.985 . S
H1038 N1035 0.984 . S
H1039 N1035 0.985 1_556 S
H1040 N1034 0.984 . S
H1041 N1034 0.984 . S
H1042 N1030 0.984 . S
H1043 N1030 0.985 . S
C1044 C1045 1.363 1_554 S
C1044 C1050 1.379 . S
C1044 N1052 1.356 . S
C1045 C1044 1.363 1_556 S
C1045 C1051 1.363 . S
C1046 C1047 1.363 . S
C1046 C1051 1.379 . S
C1046 N1053 1.356 . S
C1047 C1046 1.363 . S
C1047 C1050 1.363 1_556 S
N1048 C1050 1.356 . S
N1048 H1060 0.984 . S
N1048 H1061 0.985 . S
N1049 C1051 1.356 . S
N1049 H1054 0.984 . S
N1049 H1055 0.985 . S
C1050 C1044 1.379 . S
C1050 C1047 1.363 1_554 S
C1050 N1048 1.356 . S
C1051 C1045 1.363 . S
C1051 C1046 1.379 . S
C1051 N1049 1.356 . S
N1052 C1044 1.356 . S
N1052 H1058 0.984 . S
N1052 H1059 0.984 . S
N1053 C1046 1.356 . S
N1053 H1056 0.984 . S
N1053 H1057 0.965 1_655 S
H1054 N1049 0.984 . S
H1055 N1049 0.985 . S
H1056 N1053 0.984 . S
H1057 N1053 0.965 1_455 S
H1058 N1052 0.984 . S
H1059 N1052 0.984 . S
H1060 N1048 0.984 . S
H1061 N1048 0.985 . S
C1062 C1063 1.363 . S
C1062 C1068 1.379 . S
C1062 N1070 1.356 . S
C1063 C1062 1.363 . S
C1063 C1069 1.363 . S
C1064 C1065 1.363 1_556 S
C1064 C1069 1.379 . S
C1064 N1071 1.356 1_556 S
C1065 C1064 1.363 1_554 S
C1065 C1068 1.363 1_554 S
N1066 C1068 1.356 1_554 S
N1066 H1078 0.984 . S
N1066 H1079 0.985 . S
N1067 C1069 1.356 . S
N1067 H1072 0.984 . S
N1067 H1073 0.985 . S
C1068 C1062 1.379 . S
C1068 C1065 1.363 1_556 S
C1068 N1066 1.356 1_556 S
C1069 C1063 1.363 . S
C1069 C1064 1.379 . S
C1069 N1067 1.356 . S
N1070 C1062 1.356 . S
N1070 H1076 0.984 . S
N1070 H1077 0.984 . S
N1071 C1064 1.356 1_554 S
N1071 H1074 0.984 . S
N1071 H1075 0.985 1_554 S
H1072 N1067 0.984 . S
H1073 N1067 0.985 . S
H1074 N1071 0.984 . S
H1075 N1071 0.985 1_556 S
H1076 N1070 0.984 . S
H1077 N1070 0.984 . S
H1078 N1066 0.984 . S
H1079 N1066 0.985 . S
C1080 C1081 1.363 . S
C1080 C1086 1.379 . S
C1080 N1088 1.356 . S
C1081 C1080 1.363 . S
C1081 C1087 1.363 1_556 S
C1082 C1083 1.363 1_554 S
C1082 C1087 1.379 . S
C1082 N1089 1.356 . S
C1083 C1082 1.363 1_556 S
C1083 C1086 1.363 . S
N1084 C1086 1.356 . S
N1084 H1096 0.984 . S
N1084 H1097 0.985 . S
N1085 C1087 1.356 . S
N1085 H1090 0.984 . S
N1085 H1091 0.985 . S
C1086 C1080 1.379 . S
C1086 C1083 1.363 . S
C1086 N1084 1.356 . S
C1087 C1081 1.363 1_554 S
C1087 C1082 1.379 . S
C1087 N1085 1.356 . S
N1088 C1080 1.356 . S
N1088 H1094 0.984 . S
N1088 H1095 0.984 . S
N1089 C1082 1.356 . S
N1089 H1092 0.984 . S
N1089 H1093 0.985 . S
H1090 N1085 0.984 . S
H1091 N1085 0.985 . S
H1092 N1089 0.984 . S
H1093 N1089 0.985 . S
H1094 N1088 0.984 . S
H1095 N1088 0.984 . S
H1096 N1084 0.984 . S
H1097 N1084 0.985 . S
C1098 C1099 1.363 . S
C1098 C1104 1.379 . S
C1098 N1106 1.356 . S
C1099 C1098 1.363 . S
C1099 C1105 1.363 1_556 S
C1100 C1101 1.363 1_554 S
C1100 C1105 1.379 . S
C1100 N1107 1.356 . S
C1101 C1100 1.363 1_556 S
C1101 C1104 1.363 . S
N1102 C1104 1.356 . S
N1102 H1114 0.984 . S
N1102 H1115 0.985 . S
N1103 C1105 1.356 . S
N1103 H1108 0.984 . S
N1103 H1109 0.985 . S
C1104 C1098 1.379 . S
C1104 C1101 1.363 . S
C1104 N1102 1.356 . S
C1105 C1099 1.363 1_554 S
C1105 C1100 1.379 . S
C1105 N1103 1.356 . S
N1106 C1098 1.356 . S
N1106 H1112 0.984 . S
N1106 H1113 0.984 . S
N1107 C1100 1.356 . S
N1107 H1110 0.984 . S
N1107 H1111 0.985 . S
H1108 N1103 0.984 . S
H1109 N1103 0.985 . S
H1110 N1107 0.984 . S
H1111 N1107 0.985 . S
H1112 N1106 0.984 . S
H1113 N1106 0.984 . S
H1114 N1102 0.984 . S
H1115 N1102 0.985 . S
C1116 C1117 1.363 . S
C1116 C1122 1.379 . S
C1116 N1124 1.356 . S
C1117 C1116 1.363 . S
C1117 C1123 1.363 . S
C1118 C1119 1.363 . S
C1118 C1123 1.379 . S
C1118 N1125 1.356 . S
C1119 C1118 1.363 . S
C1119 C1122 1.363 . S
N1120 C1122 1.332 1_554 S
N1120 H1132 1.006 . S
N1120 H1133 0.990 . S
N1121 C1123 1.356 . S
N1121 H1126 0.984 . S
N1121 H1127 0.985 . S
C1122 C1116 1.379 . S
C1122 C1119 1.363 . S
C1122 N1120 1.332 1_556 S
C1123 C1117 1.363 . S
C1123 C1118 1.379 . S
C1123 N1121 1.356 . S
N1124 C1116 1.356 . S
N1124 H1130 0.984 . S
N1124 H1131 0.984 . S
N1125 C1118 1.356 . S
N1125 H1128 0.984 . S
N1125 H1129 0.985 . S
H1126 N1121 0.984 . S
H1127 N1121 0.985 . S
H1128 N1125 0.984 . S
H1129 N1125 0.985 . S
H1130 N1124 0.984 . S
H1131 N1124 0.984 . S
H1132 N1120 1.006 . S
H1133 N1120 0.990 . S
C1134 C1135 1.363 . S
C1134 C1140 1.379 . S
C1134 N1142 1.356 . S
C1135 C1134 1.363 . S
C1135 C1141 1.363 1_556 S
C1136 C1137 1.363 . S
C1136 C1141 1.379 . S
C1136 N1143 1.356 . S
C1137 C1136 1.363 . S
C1137 C1140 1.363 1_554 S
N1138 C1140 1.356 . S
N1138 H1150 0.984 . S
N1138 H1151 0.985 . S
N1139 C1141 1.356 . S
N1139 H1144 0.984 . S
N1139 H1145 0.985 . S
C1140 C1134 1.379 . S
C1140 C1137 1.363 1_556 S
C1140 N1138 1.356 . S
C1141 C1135 1.363 1_554 S
C1141 C1136 1.379 . S
C1141 N1139 1.356 . S
N1142 C1134 1.356 . S
N1142 H1148 0.984 . S
N1142 H1149 0.984 . S
N1143 C1136 1.356 . S
N1143 H1146 0.984 . S
N1143 H1147 0.985 . S
H1144 N1139 0.984 . S
H1145 N1139 0.985 . S
H1146 N1143 0.984 . S
H1147 N1143 0.985 . S
H1148 N1142 0.984 . S
H1149 N1142 0.984 . S
H1150 N1138 0.984 . S
H1151 N1138 0.985 . S
C1152 C1153 1.363 . S
C1152 C1158 1.379 . S
C1152 N1160 1.356 . S
C1153 C1152 1.363 . S
C1153 C1159 1.363 . S
C1154 C1155 1.363 . S
C1154 C1159 1.379 . S
C1154 N1161 1.356 1_554 S
C1155 C1154 1.363 . S
C1155 C1158 1.363 . S
N1156 C1158 1.356 . S
N1156 H1168 0.984 . S
N1156 H1169 0.985 . S
N1157 C1159 1.356 . S
N1157 H1162 0.984 . S
N1157 H1163 0.985 . S
C1158 C1152 1.379 . S
C1158 C1155 1.363 . S
C1158 N1156 1.356 . S
C1159 C1153 1.363 . S
C1159 C1154 1.379 . S
C1159 N1157 1.356 . S
N1160 C1152 1.356 . S
N1160 H1166 0.984 . S
N1160 H1167 0.984 . S
N1161 C1154 1.356 1_556 S
N1161 H1164 0.984 . S
N1161 H1165 0.985 . S
H1162 N1157 0.984 . S
H1163 N1157 0.985 . S
H1164 N1161 0.984 . S
H1165 N1161 0.985 . S
H1166 N1160 0.984 . S
H1167 N1160 0.984 . S
H1168 N1156 0.984 . S
H1169 N1156 0.985 . S
C1170 C1171 1.363 . S
C1170 C1176 1.379 . S
C1170 N1178 1.356 . S
C1171 C1170 1.363 . S
C1171 C1177 1.363 . S
C1172 C1173 1.363 . S
C1172 C1177 1.379 . S
C1172 N1179 1.356 . S
C1173 C1172 1.363 . S
C1173 C1176 1.363 . S
N1174 C1176 1.356 . S
N1174 H1186 0.984 1_554 S
N1174 H1187 0.985 . S
N1175 C1177 1.356 . S
N1175 H1180 0.984 . S
N1175 H1181 0.985 . S
C1176 C1170 1.379 . S
C1176 C1173 1.363 . S
C1176 N1174 1.356 . S
C1177 C1171 1.363 . S
C1177 C1172 1.379 . S
C1177 N1175 1.356 . S
N1178 C1170 1.356 . S
N1178 H1184 0.984 . S
N1178 H1185 0.984 . S
N1179 C1172 1.356 . S
N1179 H1182 0.984 . S
N1179 H1183 0.985 . S
H1180 N1175 0.984 . S
H1181 N1175 0.985 . S
H1182 N1179 0.984 . S
H1183 N1179 0.985 . S
H1184 N1178 0.984 . S
H1185 N1178 0.984 . S
H1186 N1174 0.984 1_556 S
H1187 N1174 0.985 . S
C1188 C1189 1.363 . S
C1188 C1194 1.379 . S
C1188 N1196 1.356 . S
C1189 C1188 1.363 . S
C1189 C1195 1.363 . S
C1190 C1191 1.363 . S
C1190 C1195 1.379 . S
C1190 N1197 1.356 . S
C1191 C1190 1.363 . S
C1191 C1194 1.363 . S
N1192 C1194 1.356 . S
N1192 H1204 0.984 . S
N1192 H1205 0.985 . S
N1193 C1195 1.356 . S
N1193 H1198 0.984 . S
N1193 H1199 0.985 . S
C1194 C1188 1.379 . S
C1194 C1191 1.363 . S
C1194 N1192 1.356 . S
C1195 C1189 1.363 . S
C1195 C1190 1.379 . S
C1195 N1193 1.356 . S
N1196 C1188 1.356 . S
N1196 H1202 0.984 . S
N1196 H1203 0.984 . S
N1197 C1190 1.356 . S
N1197 H1200 0.984 . S
N1197 H1201 0.985 . S
H1198 N1193 0.984 . S
H1199 N1193 0.985 . S
H1200 N1197 0.984 . S
H1201 N1197 0.985 . S
H1202 N1196 0.984 . S
H1203 N1196 0.984 . S
H1204 N1192 0.984 . S
H1205 N1192 0.985 . S
C1206 C1207 1.363 . S
C1206 C1212 1.379 1_655 S
C1206 N1214 1.356 . S
C1207 C1206 1.363 . S
C1207 C1213 1.363 . S
C1208 C1209 1.363 . S
C1208 C1213 1.379 1_455 S
C1208 N1215 1.356 . S
C1209 C1208 1.363 . S
C1209 C1212 1.363 . S
N1210 C1212 1.356 . S
N1210 H1222 0.984 . S
N1210 H1223 0.985 . S
N1211 C1213 1.356 . S
N1211 H1216 0.984 . S
N1211 H1217 0.985 . S
C1212 C1206 1.379 1_455 S
C1212 C1209 1.363 . S
C1212 N1210 1.356 . S
C1213 C1207 1.363 . S
C1213 C1208 1.379 1_655 S
C1213 N1211 1.356 . S
N1214 C1206 1.356 . S
N1214 H1220 0.984 . S
N1214 H1221 0.984 . S
N1215 C1208 1.356 . S
N1215 H1218 0.984 . S
N1215 H1219 0.985 . S
H1216 N1211 0.984 . S
H1217 N1211 0.985 . S
H1218 N1215 0.984 . S
H1219 N1215 0.985 . S
H1220 N1214 0.984 . S
H1221 N1214 0.984 . S
H1222 N1210 0.984 . S
H1223 N1210 0.985 . S
C1224 C1225 1.363 . S
C1224 C1230 1.379 . S
C1224 N1232 1.356 . S
C1225 C1224 1.363 . S
C1225 C1231 1.363 . S
C1226 C1227 1.363 . S
C1226 C1231 1.379 . S
C1226 N1233 1.356 . S
C1227 C1226 1.363 . S
C1227 C1230 1.363 . S
N1228 C1230 1.356 . S
N1228 H1240 0.984 . S
N1228 H1241 0.985 . S
N1229 C1231 1.356 . S
N1229 H1234 0.984 . S
N1229 H1235 0.985 . S
C1230 C1224 1.379 . S
C1230 C1227 1.363 . S
C1230 N1228 1.356 . S
C1231 C1225 1.363 . S
C1231 C1226 1.379 . S
C1231 N1229 1.356 . S
N1232 C1224 1.356 . S
N1232 H1238 0.984 . S
N1232 H1239 0.984 . S
N1233 C1226 1.356 . S
N1233 H1236 0.984 . S
N1233 H1237 0.985 . S
H1234 N1229 0.984 . S
H1235 N1229 0.985 . S
H1236 N1233 0.984 . S
H1237 N1233 0.985 . S
H1238 N1232 0.984 . S
H1239 N1232 0.984 . S
H1240 N1228 0.984 . S
H1241 N1228 0.985 . S
C1242 C1243 1.363 1_565 S
C1242 C1248 1.379 . S
C1242 N1250 1.356 1_565 S
C1243 C1242 1.363 1_545 S
C1243 C1249 1.363 . S
C1244 C1245 1.363 . S
C1244 C1249 1.379 1_565 S
C1244 N1251 1.356 . S
C1245 C1244 1.363 . S
C1245 C1248 1.363 . S
N1246 C1248 1.356 . S
N1246 H1258 0.984 . S
N1246 H1259 0.985 . S
N1247 C1249 1.356 . S
N1247 H1252 0.984 . S
N1247 H1253 0.985 . S
C1248 C1242 1.379 . S
C1248 C1245 1.363 . S
C1248 N1246 1.356 . S
C1249 C1243 1.363 . S
C1249 C1244 1.379 1_545 S
C1249 N1247 1.356 . S
N1250 C1242 1.356 1_545 S
N1250 H1256 0.984 . S
N1250 H1257 0.984 . S
N1251 C1244 1.356 . S
N1251 H1254 0.984 . S
N1251 H1255 0.985 . S
H1252 N1247 0.984 . S
H1253 N1247 0.985 . S
H1254 N1251 0.984 . S
H1255 N1251 0.985 . S
H1256 N1250 0.984 . S
H1257 N1250 0.984 . S
H1258 N1246 0.984 . S
H1259 N1246 0.985 . S
C1260 C1261 1.363 . S
C1260 C1266 1.379 . S
C1260 N1268 1.356 . S
C1261 C1260 1.363 . S
C1261 C1267 1.363 . S
C1262 C1263 1.363 . S
C1262 C1267 1.379 . S
C1262 N1269 1.356 . S
C1263 C1262 1.363 . S
C1263 C1266 1.363 . S
N1264 C1266 1.356 . S
N1264 H1276 0.984 . S
N1264 H1277 0.985 . S
N1265 C1267 1.356 . S
N1265 H1270 0.984 . S
N1265 H1271 0.985 . S
C1266 C1260 1.379 . S
C1266 C1263 1.363 . S
C1266 N1264 1.356 . S
C1267 C1261 1.363 . S
C1267 C1262 1.379 . S
C1267 N1265 1.356 . S
N1268 C1260 1.356 . S
N1268 H1274 0.984 . S
N1268 H1275 0.984 . S
N1269 C1262 1.356 . S
N1269 H1272 0.984 . S
N1269 H1273 0.985 . S
H1270 N1265 0.984 . S
H1271 N1265 0.985 . S
H1272 N1269 0.984 . S
H1273 N1269 0.985 . S
H1274 N1268 0.984 . S
H1275 N1268 0.984 . S
H1276 N1264 0.984 . S
H1277 N1264 0.985 . S
C1278 C1279 1.363 . S
C1278 C1284 1.379 . S
C1278 N1286 1.356 . S
C1279 C1278 1.363 . S
C1279 C1285 1.363 . S
C1280 C1281 1.363 . S
C1280 C1285 1.379 . S
C1280 N1287 1.356 . S
C1281 C1280 1.363 . S
C1281 C1284 1.363 . S
N1282 C1284 1.356 . S
N1282 H1294 0.984 . S
N1282 H1295 0.985 . S
N1283 C1285 1.356 . S
N1283 H1288 0.984 . S
N1283 H1289 0.985 . S
C1284 C1278 1.379 . S
C1284 C1281 1.363 . S
C1284 N1282 1.356 . S
C1285 C1279 1.363 . S
C1285 C1280 1.379 . S
C1285 N1283 1.356 . S
N1286 C1278 1.356 . S
N1286 H1292 0.984 . S
N1286 H1293 0.984 . S
N1287 C1280 1.356 . S
N1287 H1290 0.984 . S
N1287 H1291 0.985 . S
H1288 N1283 0.984 . S
H1289 N1283 0.985 . S
H1290 N1287 0.984 . S
H1291 N1287 0.985 . S
H1292 N1286 0.984 . S
H1293 N1286 0.984 . S
H1294 N1282 0.984 . S
H1295 N1282 0.985 . S
C1296 C1297 1.363 . S
C1296 C1302 1.379 . S
C1296 N1304 1.356 . S
C1297 C1296 1.363 . S
C1297 C1303 1.363 . S
C1298 C1299 1.363 . S
C1298 C1303 1.379 . S
C1298 N1305 1.356 . S
C1299 C1298 1.363 . S
C1299 C1302 1.363 . S
N1300 C1302 1.356 . S
N1300 H1312 0.984 . S
N1300 H1313 0.985 . S
N1301 C1303 1.356 . S
N1301 H1306 0.984 . S
N1301 H1307 0.985 . S
C1302 C1296 1.379 . S
C1302 C1299 1.363 . S
C1302 N1300 1.356 . S
C1303 C1297 1.363 . S
C1303 C1298 1.379 . S
C1303 N1301 1.356 . S
N1304 C1296 1.356 . S
N1304 H1310 0.984 . S
N1304 H1311 0.984 . S
N1305 C1298 1.356 . S
N1305 H1308 0.984 . S
N1305 H1309 0.985 . S
H1306 N1301 0.984 . S
H1307 N1301 0.985 . S
H1308 N1305 0.984 . S
H1309 N1305 0.985 . S
H1310 N1304 0.984 . S
H1311 N1304 0.984 . S
H1312 N1300 0.984 . S
H1313 N1300 0.985 . S
C1314 C1315 1.363 . S
C1314 C1320 1.379 . S
C1314 N1322 1.356 . S
C1315 C1314 1.363 . S
C1315 C1321 1.363 . S
C1316 C1317 1.363 . S
C1316 C1321 1.379 . S
C1316 N1323 1.356 . S
C1317 C1316 1.363 . S
C1317 C1320 1.363 . S
N1318 C1320 1.356 . S
N1318 H1330 0.984 . S
N1318 H1331 0.985 . S
N1319 C1321 1.356 . S
N1319 H1324 0.984 . S
N1319 H1325 0.985 . S
C1320 C1314 1.379 . S
C1320 C1317 1.363 . S
C1320 N1318 1.356 . S
C1321 C1315 1.363 . S
C1321 C1316 1.379 . S
C1321 N1319 1.356 . S
N1322 C1314 1.356 . S
N1322 H1328 0.984 . S
N1322 H1329 0.984 . S
N1323 C1316 1.356 . S
N1323 H1326 0.984 . S
N1323 H1327 0.985 . S
H1324 N1319 0.984 . S
H1325 N1319 0.985 . S
H1326 N1323 0.984 . S
H1327 N1323 0.985 . S
H1328 N1322 0.984 . S
H1329 N1322 0.984 . S
H1330 N1318 0.984 . S
H1331 N1318 0.985 . S
C1332 C1333 1.363 . S
C1332 C1338 1.379 . S
C1332 N1340 1.356 . S
C1333 C1332 1.363 . S
C1333 C1339 1.363 . S
C1334 C1335 1.363 . S
C1334 C1339 1.379 . S
C1334 N1341 1.356 . S
C1335 C1334 1.363 . S
C1335 C1338 1.363 . S
N1336 C1338 1.356 . S
N1336 H1348 0.984 . S
N1336 H1349 0.985 . S
N1337 C1339 1.356 . S
N1337 H1342 0.984 . S
N1337 H1343 0.985 . S
C1338 C1332 1.379 . S
C1338 C1335 1.363 . S
C1338 N1336 1.356 . S
C1339 C1333 1.363 . S
C1339 C1334 1.379 . S
C1339 N1337 1.356 . S
N1340 C1332 1.356 . S
N1340 H1346 0.984 . S
N1340 H1347 0.984 . S
N1341 C1334 1.356 . S
N1341 H1344 0.984 . S
N1341 H1345 0.985 . S
H1342 N1337 0.984 . S
H1343 N1337 0.985 . S
H1344 N1341 0.984 . S
H1345 N1341 0.985 . S
H1346 N1340 0.984 . S
H1347 N1340 0.984 . S
H1348 N1336 0.984 . S
H1349 N1336 0.985 . S
C1350 C1351 1.363 . S
C1350 C1356 1.379 . S
C1350 N1358 1.356 . S
C1351 C1350 1.363 . S
C1351 C1357 1.363 . S
C1352 C1353 1.363 . S
C1352 C1357 1.379 . S
C1352 N1359 1.356 . S
C1353 C1352 1.363 . S
C1353 C1356 1.363 . S
N1354 C1356 1.356 . S
N1354 H1366 0.984 . S
N1354 H1367 0.985 . S
N1355 C1357 1.356 . S
N1355 H1360 0.984 . S
N1355 H1361 0.985 . S
C1356 C1350 1.379 . S
C1356 C1353 1.363 . S
C1356 N1354 1.356 . S
C1357 C1351 1.363 . S
C1357 C1352 1.379 . S
C1357 N1355 1.356 . S
N1358 C1350 1.356 . S
N1358 H1364 0.984 1_455 S
N1358 H1365 0.984 . S
N1359 C1352 1.356 . S
N1359 H1362 0.984 . S
N1359 H1363 0.985 . S
H1360 N1355 0.984 . S
H1361 N1355 0.985 . S
H1362 N1359 0.984 . S
H1363 N1359 0.985 . S
H1364 N1358 0.984 1_655 S
H1365 N1358 0.984 . S
H1366 N1354 0.984 . S
H1367 N1354 0.985 . S
C1368 C1369 1.363 . S
C1368 C1374 1.379 1_545 S
C1368 N1376 1.356 . S
C1369 C1368 1.363 . S
C1369 C1375 1.363 . S
C1370 C1371 1.363 1_545 S
C1370 C1375 1.379 . S
C1370 N1377 1.356 1_545 S
C1371 C1370 1.363 1_565 S
C1371 C1374 1.363 . S
N1372 C1374 1.356 . S
N1372 H1384 0.984 . S
N1372 H1385 0.985 . S
N1373 C1375 1.356 . S
N1373 H1378 0.984 . S
N1373 H1379 0.985 . S
C1374 C1368 1.379 1_565 S
C1374 C1371 1.363 . S
C1374 N1372 1.356 . S
C1375 C1369 1.363 . S
C1375 C1370 1.379 . S
C1375 N1373 1.356 . S
N1376 C1368 1.356 . S
N1376 H1382 0.984 1_545 S
N1376 H1383 0.984 . S
N1377 C1370 1.356 1_565 S
N1377 H1380 0.984 . S
N1377 H1381 0.985 1_565 S
H1378 N1373 0.984 . S
H1379 N1373 0.985 . S
H1380 N1377 0.984 . S
H1381 N1377 0.985 1_545 S
H1382 N1376 0.984 1_565 S
H1383 N1376 0.984 . S
H1384 N1372 0.984 . S
H1385 N1372 0.985 . S
C1386 C1387 1.363 1_455 S
C1386 C1392 1.379 . S
C1386 N1394 1.356 . S
C1387 C1386 1.363 1_655 S
C1387 C1393 1.363 . S
C1388 C1389 1.363 . S
C1388 C1393 1.379 1_455 S
C1388 N1395 1.356 . S
C1389 C1388 1.363 . S
C1389 C1392 1.363 . S
N1390 C1392 1.356 . S
N1390 H1402 0.984 . S
N1390 H1403 0.985 . S
N1391 C1393 1.356 . S
N1391 H1396 0.984 . S
N1391 H1397 0.985 . S
C1392 C1386 1.379 . S
C1392 C1389 1.363 . S
C1392 N1390 1.356 . S
C1393 C1387 1.363 . S
C1393 C1388 1.379 1_655 S
C1393 N1391 1.356 . S
N1394 C1386 1.356 . S
N1394 H1400 0.984 . S
N1394 H1401 0.984 . S
N1395 C1388 1.356 . S
N1395 H1398 0.984 . S
N1395 H1399 0.985 1_455 S
H1396 N1391 0.984 . S
H1397 N1391 0.985 . S
H1398 N1395 0.984 . S
H1399 N1395 0.985 1_655 S
H1400 N1394 0.984 . S
H1401 N1394 0.984 . S
H1402 N1390 0.984 . S
H1403 N1390 0.985 . S
C1404 C1405 1.363 . S
C1404 C1410 1.379 . S
C1404 N1412 1.356 . S
C1405 C1404 1.363 . S
C1405 C1411 1.363 . S
C1406 C1407 1.363 . S
C1406 C1411 1.379 . S
C1406 N1413 1.356 . S
C1407 C1406 1.363 . S
C1407 C1410 1.363 . S
N1408 C1410 1.356 . S
N1408 H1420 0.984 . S
N1408 H1421 0.985 . S
N1409 C1411 1.356 . S
N1409 H1414 0.984 . S
N1409 H1415 0.985 . S
C1410 C1404 1.379 . S
C1410 C1407 1.363 . S
C1410 N1408 1.356 . S
C1411 C1405 1.363 . S
C1411 C1406 1.379 . S
C1411 N1409 1.356 . S
N1412 C1404 1.356 . S
N1412 H1418 0.984 . S
N1412 H1419 0.984 . S
N1413 C1406 1.356 . S
N1413 H1416 0.984 . S
N1413 H1417 0.985 . S
H1414 N1409 0.984 . S
H1415 N1409 0.985 . S
H1416 N1413 0.984 . S
H1417 N1413 0.985 . S
H1418 N1412 0.984 . S
H1419 N1412 0.984 . S
H1420 N1408 0.984 . S
H1421 N1408 0.985 . S
C1422 C1423 1.363 . S
C1422 C1428 1.379 . S
C1422 N1430 1.356 . S
C1423 C1422 1.363 . S
C1423 C1429 1.363 . S
C1424 C1425 1.363 . S
C1424 C1429 1.379 . S
C1424 N1431 1.356 . S
C1425 C1424 1.363 . S
C1425 C1428 1.363 . S
N1426 C1428 1.356 . S
N1426 H1438 0.984 . S
N1426 H1439 0.985 . S
N1427 C1429 1.356 . S
N1427 H1432 0.984 . S
N1427 H1433 0.985 . S
C1428 C1422 1.379 . S
C1428 C1425 1.363 . S
C1428 N1426 1.356 . S
C1429 C1423 1.363 . S
C1429 C1424 1.379 . S
C1429 N1427 1.356 . S
N1430 C1422 1.356 . S
N1430 H1436 0.984 . S
N1430 H1437 0.984 . S
N1431 C1424 1.356 . S
N1431 H1434 0.984 . S
N1431 H1435 0.985 . S
H1432 N1427 0.984 . S
H1433 N1427 0.985 . S
H1434 N1431 0.984 . S
H1435 N1431 0.985 . S
H1436 N1430 0.984 . S
H1437 N1430 0.984 . S
H1438 N1426 0.984 . S
H1439 N1426 0.985 . S
C1440 C1441 1.363 . S
C1440 C1446 1.379 . S
C1440 N1448 1.356 . S
C1441 C1440 1.363 . S
C1441 C1447 1.363 . S
C1442 C1443 1.363 . S
C1442 C1447 1.379 . S
C1442 N1449 1.356 . S
C1443 C1442 1.363 . S
C1443 C1446 1.363 . S
N1444 C1446 1.356 . S
N1444 H1456 0.984 . S
N1444 H1457 0.985 . S
N1445 C1447 1.356 . S
N1445 H1450 0.984 . S
N1445 H1451 0.985 . S
C1446 C1440 1.379 . S
C1446 C1443 1.363 . S
C1446 N1444 1.356 . S
C1447 C1441 1.363 . S
C1447 C1442 1.379 . S
C1447 N1445 1.356 . S
N1448 C1440 1.356 . S
N1448 H1454 0.984 . S
N1448 H1455 0.984 . S
N1449 C1442 1.356 . S
N1449 H1452 0.984 . S
N1449 H1453 0.985 . S
H1450 N1445 0.984 . S
H1451 N1445 0.985 . S
H1452 N1449 0.984 . S
H1453 N1449 0.985 . S
H1454 N1448 0.984 . S
H1455 N1448 0.984 . S
H1456 N1444 0.984 . S
H1457 N1444 0.985 . S
C1458 C1459 1.363 . S
C1458 C1464 1.379 . S
C1458 N1466 1.356 . S
C1459 C1458 1.363 . S
C1459 C1465 1.363 . S
C1460 C1461 1.363 . S
C1460 C1465 1.379 . S
C1460 N1467 1.356 . S
C1461 C1460 1.363 . S
C1461 C1464 1.363 . S
N1462 C1464 1.356 . S
N1462 H1474 0.984 . S
N1462 H1475 0.985 . S
N1463 C1465 1.356 . S
N1463 H1468 0.984 . S
N1463 H1469 0.985 . S
C1464 C1458 1.379 . S
C1464 C1461 1.363 . S
C1464 N1462 1.356 . S
C1465 C1459 1.363 . S
C1465 C1460 1.379 . S
C1465 N1463 1.356 . S
N1466 C1458 1.356 . S
N1466 H1472 0.984 . S
N1466 H1473 0.984 . S
N1467 C1460 1.356 . S
N1467 H1470 0.984 . S
N1467 H1471 0.985 . S
H1468 N1463 0.984 . S
H1469 N1463 0.985 . S
H1470 N1467 0.984 . S
H1471 N1467 0.985 . S
H1472 N1466 0.984 . S
H1473 N1466 0.984 . S
H1474 N1462 0.984 . S
H1475 N1462 0.985 . S
C1476 C1477 1.363 1_545 S
C1476 C1482 1.379 . S
C1476 N1484 1.356 1_545 S
C1477 C1476 1.363 1_565 S
C1477 C1483 1.363 . S
C1478 C1479 1.363 . S
C1478 C1483 1.379 1_545 S
C1478 N1485 1.356 . S
C1479 C1478 1.363 . S
C1479 C1482 1.363 . S
N1480 C1482 1.356 . S
N1480 H1492 0.984 . S
N1480 H1493 0.985 . S
N1481 C1483 1.356 . S
N1481 H1486 0.984 . S
N1481 H1487 0.985 . S
C1482 C1476 1.379 . S
C1482 C1479 1.363 . S
C1482 N1480 1.356 . S
C1483 C1477 1.363 . S
C1483 C1478 1.379 1_565 S
C1483 N1481 1.356 . S
N1484 C1476 1.356 1_565 S
N1484 H1490 0.984 . S
N1484 H1491 0.984 . S
N1485 C1478 1.356 . S
N1485 H1488 0.984 . S
N1485 H1489 0.985 . S
H1486 N1481 0.984 . S
H1487 N1481 0.985 . S
H1488 N1485 0.984 . S
H1489 N1485 0.985 . S
H1490 N1484 0.984 . S
H1491 N1484 0.984 . S
H1492 N1480 0.984 . S
H1493 N1480 0.985 . S
C1494 C1495 1.357 . S
C1494 C1500 1.401 . S
C1494 N1502 1.336 1_655 S
C1495 C1494 1.357 . S
C1495 C1501 1.363 . S
C1496 C1497 1.363 . S
C1496 C1501 1.379 . S
C1496 N1503 1.356 . S
C1497 C1496 1.363 . S
C1497 C1500 1.363 . S
N1498 C1500 1.356 . S
N1498 H1510 0.984 . S
N1498 H1511 0.985 . S
N1499 C1501 1.356 . S
N1499 H1504 0.984 . S
N1499 H1505 0.985 . S
C1500 C1494 1.401 . S
C1500 C1497 1.363 . S
C1500 N1498 1.356 . S
C1501 C1495 1.363 . S
C1501 C1496 1.379 . S
C1501 N1499 1.356 . S
N1502 C1494 1.336 1_455 S
N1502 H1508 0.984 . S
N1502 H1509 0.984 . S
N1503 C1496 1.356 . S
N1503 H1506 0.984 . S
N1503 H1507 0.985 . S
H1504 N1499 0.984 . S
H1505 N1499 0.985 . S
H1506 N1503 0.984 . S
H1507 N1503 0.985 . S
H1508 N1502 0.984 . S
H1509 N1502 0.984 . S
H1510 N1498 0.984 . S
H1511 N1498 0.985 . S
C1512 C1513 1.363 . S
C1512 C1518 1.379 . S
C1512 N1520 1.356 . S
C1513 C1512 1.363 . S
C1513 C1519 1.363 . S
C1514 C1515 1.363 . S
C1514 C1519 1.379 . S
C1514 N1521 1.356 . S
C1515 C1514 1.363 . S
C1515 C1518 1.363 . S
N1516 C1518 1.356 . S
N1516 H1528 0.984 . S
N1516 H1529 0.985 . S
N1517 C1519 1.356 . S
N1517 H1522 0.984 . S
N1517 H1523 0.985 . S
C1518 C1512 1.379 . S
C1518 C1515 1.363 . S
C1518 N1516 1.356 . S
C1519 C1513 1.363 . S
C1519 C1514 1.379 . S
C1519 N1517 1.356 . S
N1520 C1512 1.356 . S
N1520 H1526 0.984 . S
N1520 H1527 0.984 . S
N1521 C1514 1.356 . S
N1521 H1524 0.984 . S
N1521 H1525 0.985 . S
H1522 N1517 0.984 . S
H1523 N1517 0.985 . S
H1524 N1521 0.984 . S
H1525 N1521 0.985 . S
H1526 N1520 0.984 . S
H1527 N1520 0.984 . S
H1528 N1516 0.984 . S
H1529 N1516 0.985 . S
C1530 C1531 1.363 . S
C1530 C1536 1.379 . S
C1530 N1538 1.356 . S
C1531 C1530 1.363 . S
C1531 C1537 1.363 . S
C1532 C1533 1.363 . S
C1532 C1537 1.379 1_655 S
C1532 N1539 1.356 . S
C1533 C1532 1.363 . S
C1533 C1536 1.363 1_655 S
N1534 C1536 1.356 1_655 S
N1534 H1546 0.984 1_655 S
N1534 H1547 0.985 . S
N1535 C1537 1.356 . S
N1535 H1540 0.984 . S
N1535 H1541 0.985 . S
C1536 C1530 1.379 . S
C1536 C1533 1.363 1_455 S
C1536 N1534 1.356 1_455 S
C1537 C1531 1.363 . S
C1537 C1532 1.379 1_455 S
C1537 N1535 1.356 . S
N1538 C1530 1.356 . S
N1538 H1544 0.984 . S
N1538 H1545 0.984 . S
N1539 C1532 1.356 . S
N1539 H1542 0.984 . S
N1539 H1543 0.985 . S
H1540 N1535 0.984 . S
H1541 N1535 0.985 . S
H1542 N1539 0.984 . S
H1543 N1539 0.985 . S
H1544 N1538 0.984 . S
H1545 N1538 0.984 . S
H1546 N1534 0.984 1_455 S
H1547 N1534 0.985 . S
C1548 C1549 1.363 . S
C1548 C1554 1.379 . S
C1548 N1556 1.356 . S
C1549 C1548 1.363 . S
C1549 C1555 1.363 . S
C1550 C1551 1.363 . S
C1550 C1555 1.379 . S
C1550 N1557 1.356 . S
C1551 C1550 1.363 . S
C1551 C1554 1.363 . S
N1552 C1554 1.356 . S
N1552 H1564 0.984 . S
N1552 H1565 0.985 . S
N1553 C1555 1.356 . S
N1553 H1558 0.984 . S
N1553 H1559 0.985 . S
C1554 C1548 1.379 . S
C1554 C1551 1.363 . S
C1554 N1552 1.356 . S
C1555 C1549 1.363 . S
C1555 C1550 1.379 . S
C1555 N1553 1.356 . S
N1556 C1548 1.356 . S
N1556 H1562 0.984 . S
N1556 H1563 0.984 . S
N1557 C1550 1.356 . S
N1557 H1560 0.984 . S
N1557 H1561 0.985 . S
H1558 N1553 0.984 . S
H1559 N1553 0.985 . S
H1560 N1557 0.984 . S
H1561 N1557 0.985 . S
H1562 N1556 0.984 . S
H1563 N1556 0.984 . S
H1564 N1552 0.984 . S
H1565 N1552 0.985 . S
C1566 C1567 1.363 . S
C1566 C1572 1.379 . S
C1566 N1574 1.356 . S
C1567 C1566 1.363 . S
C1567 C1573 1.363 . S
C1568 C1569 1.363 . S
C1568 C1573 1.379 1_545 S
C1568 N1575 1.356 . S
C1569 C1568 1.363 . S
C1569 C1572 1.363 1_545 S
N1570 C1572 1.356 1_545 S
N1570 H1582 0.984 1_545 S
N1570 H1583 0.985 . S
N1571 C1573 1.356 . S
N1571 H1576 0.984 . S
N1571 H1577 0.985 1_565 S
C1572 C1566 1.379 . S
C1572 C1569 1.363 1_565 S
C1572 N1570 1.356 1_565 S
C1573 C1567 1.363 . S
C1573 C1568 1.379 1_565 S
C1573 N1571 1.356 . S
N1574 C1566 1.356 . S
N1574 H1580 0.984 . S
N1574 H1581 0.984 . S
N1575 C1568 1.356 . S
N1575 H1578 0.984 . S
N1575 H1579 0.985 . S
H1576 N1571 0.984 . S
H1577 N1571 0.985 1_545 S
H1578 N1575 0.984 . S
H1579 N1575 0.985 . S
H1580 N1574 0.984 . S
H1581 N1574 0.984 . S
H1582 N1570 0.984 1_565 S
H1583 N1570 0.985 . S
C1584 C1585 1.363 . S
C1584 C1590 1.379 . S
C1584 N1592 1.356 . S
C1585 C1584 1.363 . S
C1585 C1591 1.363 . S
C1586 C1587 1.363 . S
C1586 C1591 1.379 . S
C1586 N1593 1.356 . S
C1587 C1586 1.363 . S
C1587 C1590 1.363 . S
N1588 C1590 1.356 . S
N1588 H1600 0.984 . S
N1588 H1601 0.985 . S
N1589 C1591 1.356 . S
N1589 H1594 0.984 . S
N1589 H1595 0.985 . S
C1590 C1584 1.379 . S
C1590 C1587 1.363 . S
C1590 N1588 1.356 . S
C1591 C1585 1.363 . S
C1591 C1586 1.379 . S
C1591 N1589 1.356 . S
N1592 C1584 1.356 . S
N1592 H1598 0.984 . S
N1592 H1599 0.984 . S
N1593 C1586 1.356 . S
N1593 H1596 0.984 . S
N1593 H1597 0.985 . S
H1594 N1589 0.984 . S
H1595 N1589 0.985 . S
H1596 N1593 0.984 . S
H1597 N1593 0.985 . S
H1598 N1592 0.984 . S
H1599 N1592 0.984 . S
H1600 N1588 0.984 . S
H1601 N1588 0.985 . S
C1602 C1603 1.363 . S
C1602 C1608 1.379 . S
C1602 N1610 1.356 . S
C1603 C1602 1.363 . S
C1603 C1609 1.363 . S
C1604 C1605 1.363 . S
C1604 C1609 1.379 . S
C1604 N1611 1.356 . S
C1605 C1604 1.363 . S
C1605 C1608 1.363 . S
N1606 C1608 1.356 . S
N1606 H1618 0.984 . S
N1606 H1619 0.985 . S
N1607 C1609 1.356 . S
N1607 H1612 0.984 . S
N1607 H1613 0.985 . S
C1608 C1602 1.379 . S
C1608 C1605 1.363 . S
C1608 N1606 1.356 . S
C1609 C1603 1.363 . S
C1609 C1604 1.379 . S
C1609 N1607 1.356 . S
N1610 C1602 1.356 . S
N1610 H1616 0.984 . S
N1610 H1617 0.984 . S
N1611 C1604 1.356 . S
N1611 H1614 0.984 . S
N1611 H1615 0.985 . S
H1612 N1607 0.984 . S
H1613 N1607 0.985 . S
H1614 N1611 0.984 . S
H1615 N1611 0.985 . S
H1616 N1610 0.984 . S
H1617 N1610 0.984 . S
H1618 N1606 0.984 . S
H1619 N1606 0.985 . S
C1620 C1621 1.363 . S
C1620 C1626 1.379 . S
C1620 N1628 1.356 . S
C1621 C1620 1.363 . S
C1621 C1627 1.363 . S
C1622 C1623 1.363 . S
C1622 C1627 1.379 . S
C1622 N1629 1.356 . S
C1623 C1622 1.363 . S
C1623 C1626 1.363 . S
N1624 C1626 1.356 . S
N1624 H1636 0.984 . S
N1624 H1637 0.985 . S
N1625 C1627 1.356 . S
N1625 H1630 0.984 . S
N1625 H1631 0.985 . S
C1626 C1620 1.379 . S
C1626 C1623 1.363 . S
C1626 N1624 1.356 . S
C1627 C1621 1.363 . S
C1627 C1622 1.379 . S
C1627 N1625 1.356 . S
N1628 C1620 1.356 . S
N1628 H1634 0.984 . S
N1628 H1635 0.984 . S
N1629 C1622 1.356 . S
N1629 H1632 0.984 . S
N1629 H1633 0.985 . S
H1630 N1625 0.984 . S
H1631 N1625 0.985 . S
H1632 N1629 0.984 . S
H1633 N1629 0.985 . S
H1634 N1628 0.984 . S
H1635 N1628 0.984 . S
H1636 N1624 0.984 . S
H1637 N1624 0.985 . S
C1638 C1639 1.363 . S
C1638 C1644 1.379 . S
C1638 N1646 1.356 . S
C1639 C1638 1.363 . S
C1639 C1645 1.363 . S
C1640 C1641 1.363 . S
C1640 C1645 1.379 . S
C1640 N1647 1.356 . S
C1641 C1640 1.363 . S
C1641 C1644 1.363 . S
N1642 C1644 1.356 . S
N1642 H1654 0.984 . S
N1642 H1655 0.985 . S
N1643 C1645 1.356 . S
N1643 H1648 0.984 . S
N1643 H1649 0.985 . S
C1644 C1638 1.379 . S
C1644 C1641 1.363 . S
C1644 N1642 1.356 . S
C1645 C1639 1.363 . S
C1645 C1640 1.379 . S
C1645 N1643 1.356 . S
N1646 C1638 1.356 . S
N1646 H1652 0.984 . S
N1646 H1653 0.984 . S
N1647 C1640 1.356 . S
N1647 H1650 0.984 . S
N1647 H1651 0.985 . S
H1648 N1643 0.984 . S
H1649 N1643 0.985 . S
H1650 N1647 0.984 . S
H1651 N1647 0.985 . S
H1652 N1646 0.984 . S
H1653 N1646 0.984 . S
H1654 N1642 0.984 . S
H1655 N1642 0.985 . S
C1656 C1657 1.363 . S
C1656 C1662 1.379 . S
C1656 N1664 1.356 . S
C1657 C1656 1.363 . S
C1657 C1663 1.363 . S
C1658 C1659 1.363 . S
C1658 C1663 1.379 . S
C1658 N1665 1.356 . S
C1659 C1658 1.363 . S
C1659 C1662 1.363 . S
N1660 C1662 1.356 . S
N1660 H1672 0.984 . S
N1660 H1673 0.985 . S
N1661 C1663 1.356 . S
N1661 H1666 0.984 . S
N1661 H1667 0.985 . S
C1662 C1656 1.379 . S
C1662 C1659 1.363 . S
C1662 N1660 1.356 . S
C1663 C1657 1.363 . S
C1663 C1658 1.379 . S
C1663 N1661 1.356 . S
N1664 C1656 1.356 . S
N1664 H1670 0.984 . S
N1664 H1671 0.984 . S
N1665 C1658 1.356 . S
N1665 H1668 0.984 . S
N1665 H1669 0.985 . S
H1666 N1661 0.984 . S
H1667 N1661 0.985 . S
H1668 N1665 0.984 . S
H1669 N1665 0.985 . S
H1670 N1664 0.984 . S
H1671 N1664 0.984 . S
H1672 N1660 0.984 . S
H1673 N1660 0.985 . S
C1674 C1675 1.363 . S
C1674 C1680 1.379 . S
C1674 N1682 1.356 . S
C1675 C1674 1.363 . S
C1675 C1681 1.363 . S
C1676 C1677 1.363 . S
C1676 C1681 1.379 . S
C1676 N1683 1.356 . S
C1677 C1676 1.363 . S
C1677 C1680 1.363 . S
N1678 C1680 1.356 . S
N1678 H1690 0.984 . S
N1678 H1691 0.985 . S
N1679 C1681 1.356 . S
N1679 H1684 0.984 . S
N1679 H1685 0.985 . S
C1680 C1674 1.379 . S
C1680 C1677 1.363 . S
C1680 N1678 1.356 . S
C1681 C1675 1.363 . S
C1681 C1676 1.379 . S
C1681 N1679 1.356 . S
N1682 C1674 1.356 . S
N1682 H1688 0.984 . S
N1682 H1689 0.984 . S
N1683 C1676 1.356 . S
N1683 H1686 0.984 . S
N1683 H1687 0.985 . S
H1684 N1679 0.984 . S
H1685 N1679 0.985 . S
H1686 N1683 0.984 . S
H1687 N1683 0.985 . S
H1688 N1682 0.984 . S
H1689 N1682 0.984 . S
H1690 N1678 0.984 . S
H1691 N1678 0.985 . S
C1692 C1693 1.363 . S
C1692 C1698 1.379 . S
C1692 N1700 1.356 . S
C1693 C1692 1.363 . S
C1693 C1699 1.363 . S
C1694 C1695 1.363 . S
C1694 C1699 1.379 . S
C1694 N1701 1.356 1_655 S
C1695 C1694 1.363 . S
C1695 C1698 1.363 . S
N1696 C1698 1.356 . S
N1696 H1708 0.984 . S
N1696 H1709 0.985 . S
N1697 C1699 1.356 . S
N1697 H1702 0.984 . S
N1697 H1703 0.985 1_655 S
C1698 C1692 1.379 . S
C1698 C1695 1.363 . S
C1698 N1696 1.356 . S
C1699 C1693 1.363 . S
C1699 C1694 1.379 . S
C1699 N1697 1.356 . S
N1700 C1692 1.356 . S
N1700 H1706 0.984 . S
N1700 H1707 0.984 . S
N1701 C1694 1.356 1_455 S
N1701 H1704 0.984 . S
N1701 H1705 0.985 . S
H1702 N1697 0.984 . S
H1703 N1697 0.985 1_455 S
H1704 N1701 0.984 . S
H1705 N1701 0.985 . S
H1706 N1700 0.984 . S
H1707 N1700 0.984 . S
H1708 N1696 0.984 . S
H1709 N1696 0.985 . S
C1710 C1711 1.363 . S
C1710 C1716 1.379 . S
C1710 N1718 1.356 . S
C1711 C1710 1.363 . S
C1711 C1717 1.363 . S
C1712 C1713 1.363 . S
C1712 C1717 1.379 . S
C1712 N1719 1.356 . S
C1713 C1712 1.363 . S
C1713 C1716 1.363 . S
N1714 C1716 1.356 . S
N1714 H1726 0.984 . S
N1714 H1727 0.985 . S
N1715 C1717 1.356 . S
N1715 H1720 0.984 . S
N1715 H1721 0.985 . S
C1716 C1710 1.379 . S
C1716 C1713 1.363 . S
C1716 N1714 1.356 . S
C1717 C1711 1.363 . S
C1717 C1712 1.379 . S
C1717 N1715 1.356 . S
N1718 C1710 1.356 . S
N1718 H1724 0.984 . S
N1718 H1725 0.984 . S
N1719 C1712 1.356 . S
N1719 H1722 0.984 . S
N1719 H1723 0.985 . S
H1720 N1715 0.984 . S
H1721 N1715 0.985 . S
H1722 N1719 0.984 . S
H1723 N1719 0.985 . S
H1724 N1718 0.984 . S
H1725 N1718 0.984 . S
H1726 N1714 0.984 . S
H1727 N1714 0.985 . S
C1728 C1729 1.363 . S
C1728 C1734 1.379 . S
C1728 N1736 1.356 . S
C1729 C1728 1.363 . S
C1729 C1735 1.363 . S
C1730 C1731 1.363 . S
C1730 C1735 1.379 . S
C1730 N1737 1.356 . S
C1731 C1730 1.363 . S
C1731 C1734 1.363 . S
N1732 C1734 1.356 . S
N1732 H1744 0.984 . S
N1732 H1745 0.985 . S
N1733 C1735 1.356 . S
N1733 H1738 0.984 . S
N1733 H1739 0.985 . S
C1734 C1728 1.379 . S
C1734 C1731 1.363 . S
C1734 N1732 1.356 . S
C1735 C1729 1.363 . S
C1735 C1730 1.379 . S
C1735 N1733 1.356 . S
N1736 C1728 1.356 . S
N1736 H1742 0.984 . S
N1736 H1743 0.984 . S
N1737 C1730 1.356 . S
N1737 H1740 0.984 . S
N1737 H1741 0.985 . S
H1738 N1733 0.984 . S
H1739 N1733 0.985 . S
H1740 N1737 0.984 . S
H1741 N1737 0.985 . S
H1742 N1736 0.984 . S
H1743 N1736 0.984 . S
H1744 N1732 0.984 . S
H1745 N1732 0.985 . S
C1746 C1747 1.363 . S
C1746 C1752 1.379 . S
C1746 N1754 1.356 . S
C1747 C1746 1.363 . S
C1747 C1753 1.363 . S
C1748 C1749 1.363 . S
C1748 C1753 1.379 . S
C1748 N1755 1.356 . S
C1749 C1748 1.363 . S
C1749 C1752 1.363 . S
N1750 C1752 1.356 . S
N1750 H1762 0.984 . S
N1750 H1763 0.985 . S
N1751 C1753 1.356 . S
N1751 H1756 0.984 . S
N1751 H1757 0.985 . S
C1752 C1746 1.379 . S
C1752 C1749 1.363 . S
C1752 N1750 1.356 . S
C1753 C1747 1.363 . S
C1753 C1748 1.379 . S
C1753 N1751 1.356 . S
N1754 C1746 1.356 . S
N1754 H1760 0.984 . S
N1754 H1761 0.984 . S
N1755 C1748 1.356 . S
N1755 H1758 0.984 . S
N1755 H1759 0.985 . S
H1756 N1751 0.984 . S
H1757 N1751 0.985 . S
H1758 N1755 0.984 . S
H1759 N1755 0.985 . S
H1760 N1754 0.984 . S
H1761 N1754 0.984 . S
H1762 N1750 0.984 . S
H1763 N1750 0.985 . S
C1764 C1765 1.363 . S
C1764 C1770 1.379 . S
C1764 N1772 1.356 . S
C1765 C1764 1.363 . S
C1765 C1771 1.363 . S
C1766 C1767 1.363 . S
C1766 C1771 1.379 . S
C1766 N1773 1.356 . S
C1767 C1766 1.363 . S
C1767 C1770 1.363 . S
N1768 C1770 1.356 . S
N1768 H1780 0.984 . S
N1768 H1781 0.985 . S
N1769 C1771 1.356 . S
N1769 H1774 0.984 . S
N1769 H1775 0.985 . S
C1770 C1764 1.379 . S
C1770 C1767 1.363 . S
C1770 N1768 1.356 . S
C1771 C1765 1.363 . S
C1771 C1766 1.379 . S
C1771 N1769 1.356 . S
N1772 C1764 1.356 . S
N1772 H1778 0.984 . S
N1772 H1779 0.984 . S
N1773 C1766 1.356 . S
N1773 H1776 0.984 . S
N1773 H1777 0.985 . S
H1774 N1769 0.984 . S
H1775 N1769 0.985 . S
H1776 N1773 0.984 . S
H1777 N1773 0.985 . S
H1778 N1772 0.984 . S
H1779 N1772 0.984 . S
H1780 N1768 0.984 . S
H1781 N1768 0.985 . S
C1782 C1783 1.363 . S
C1782 C1788 1.379 . S
C1782 N1790 1.356 . S
C1783 C1782 1.363 . S
C1783 C1789 1.363 . S
C1784 C1785 1.363 . S
C1784 C1789 1.379 . S
C1784 N1791 1.356 . S
C1785 C1784 1.363 . S
C1785 C1788 1.363 . S
N1786 C1788 1.356 . S
N1786 H1798 0.984 . S
N1786 H1799 0.985 . S
N1787 C1789 1.356 . S
N1787 H1792 0.984 . S
N1787 H1793 0.985 . S
C1788 C1782 1.379 . S
C1788 C1785 1.363 . S
C1788 N1786 1.356 . S
C1789 C1783 1.363 . S
C1789 C1784 1.379 . S
C1789 N1787 1.356 . S
N1790 C1782 1.356 . S
N1790 H1796 0.984 . S
N1790 H1797 0.984 . S
N1791 C1784 1.356 . S
N1791 H1794 0.984 . S
N1791 H1795 0.985 . S
H1792 N1787 0.984 . S
H1793 N1787 0.985 . S
H1794 N1791 0.984 . S
H1795 N1791 0.985 . S
H1796 N1790 0.984 . S
H1797 N1790 0.984 . S
H1798 N1786 0.984 . S
H1799 N1786 0.985 . S
C1800 C1801 1.363 . S
C1800 C1806 1.379 . S
C1800 N1808 1.356 . S
C1801 C1800 1.363 . S
C1801 C1807 1.363 . S
C1802 C1803 1.363 . S
C1802 C1807 1.379 . S
C1802 N1809 1.356 . S
C1803 C1802 1.363 . S
C1803 C1806 1.363 . S
N1804 C1806 1.356 . S
N1804 H1816 0.984 . S
N1804 H1817 0.985 . S
N1805 C1807 1.356 . S
N1805 H1810 0.984 . S
N1805 H1811 0.985 . S
C1806 C1800 1.379 . S
C1806 C1803 1.363 . S
C1806 N1804 1.356 . S
C1807 C1801 1.363 . S
C1807 C1802 1.379 . S
C1807 N1805 1.356 . S
N1808 C1800 1.356 . S
N1808 H1814 0.984 . S
N1808 H1815 0.984 . S
N1809 C1802 1.356 . S
N1809 H1812 0.984 . S
N1809 H1813 0.985 . S
H1810 N1805 0.984 . S
H1811 N1805 0.985 . S
H1812 N1809 0.984 . S
H1813 N1809 0.985 . S
H1814 N1808 0.984 . S
H1815 N1808 0.984 . S
H1816 N1804 0.984 . S
H1817 N1804 0.985 . S
C1818 C1819 1.363 . S
C1818 C1824 1.379 . S
C1818 N1826 1.356 . S
C1819 C1818 1.363 . S
C1819 C1825 1.363 . S
C1820 C1821 1.363 . S
C1820 C1825 1.379 . S
C1820 N1827 1.356 . S
C1821 C1820 1.363 . S
C1821 C1824 1.363 . S
N1822 C1824 1.356 . S
N1822 H1834 0.984 . S
N1822 H1835 0.985 . S
N1823 C1825 1.356 . S
N1823 H1828 0.984 . S
N1823 H1829 0.985 . S
C1824 C1818 1.379 . S
C1824 C1821 1.363 . S
C1824 N1822 1.356 . S
C1825 C1819 1.363 . S
C1825 C1820 1.379 . S
C1825 N1823 1.356 . S
N1826 C1818 1.356 . S
N1826 H1832 0.984 . S
N1826 H1833 0.984 . S
N1827 C1820 1.356 . S
N1827 H1830 0.984 . S
N1827 H1831 0.985 . S
H1828 N1823 0.984 . S
H1829 N1823 0.985 . S
H1830 N1827 0.984 . S
H1831 N1827 0.985 . S
H1832 N1826 0.984 . S
H1833 N1826 0.984 . S
H1834 N1822 0.984 . S
H1835 N1822 0.985 . S
C1836 C1837 1.363 . S
C1836 C1842 1.379 . S
C1836 N1844 1.356 . S
C1837 C1836 1.363 . S
C1837 C1843 1.363 . S
C1838 C1839 1.363 . S
C1838 C1843 1.379 . S
C1838 N1845 1.356 . S
C1839 C1838 1.363 . S
C1839 C1842 1.363 . S
N1840 C1842 1.356 . S
N1840 H1852 0.984 . S
N1840 H1853 0.985 . S
N1841 C1843 1.356 . S
N1841 H1846 0.984 . S
N1841 H1847 0.985 . S
C1842 C1836 1.379 . S
C1842 C1839 1.363 . S
C1842 N1840 1.356 . S
C1843 C1837 1.363 . S
C1843 C1838 1.379 . S
C1843 N1841 1.356 . S
N1844 C1836 1.356 . S
N1844 H1850 0.984 . S
N1844 H1851 0.984 . S
N1845 C1838 1.356 . S
N1845 H1848 0.984 . S
N1845 H1849 0.985 . S
H1846 N1841 0.984 . S
H1847 N1841 0.985 . S
H1848 N1845 0.984 . S
H1849 N1845 0.985 . S
H1850 N1844 0.984 . S
H1851 N1844 0.984 . S
H1852 N1840 0.984 . S
H1853 N1840 0.985 . S
C1854 C1855 1.363 . S
C1854 C1860 1.379 . S
C1854 N1862 1.356 . S
C1855 C1854 1.363 . S
C1855 C1861 1.363 . S
C1856 C1857 1.363 . S
C1856 C1861 1.379 . S
C1856 N1863 1.356 . S
C1857 C1856 1.363 . S
C1857 C1860 1.363 . S
N1858 C1860 1.356 . S
N1858 H1870 0.984 . S
N1858 H1871 0.985 . S
N1859 C1861 1.356 . S
N1859 H1864 0.984 . S
N1859 H1865 0.985 . S
C1860 C1854 1.379 . S
C1860 C1857 1.363 . S
C1860 N1858 1.356 . S
C1861 C1855 1.363 . S
C1861 C1856 1.379 . S
C1861 N1859 1.356 . S
N1862 C1854 1.356 . S
N1862 H1868 0.984 . S
N1862 H1869 0.984 . S
N1863 C1856 1.356 . S
N1863 H1866 0.984 . S
N1863 H1867 0.985 . S
H1864 N1859 0.984 . S
H1865 N1859 0.985 . S
H1866 N1863 0.984 . S
H1867 N1863 0.985 . S
H1868 N1862 0.984 . S
H1869 N1862 0.984 . S
H1870 N1858 0.984 . S
H1871 N1858 0.985 . S
C1872 C1873 1.363 . S
C1872 C1878 1.379 . S
C1872 N1880 1.356 . S
C1873 C1872 1.363 . S
C1873 C1879 1.363 . S
C1874 C1875 1.363 . S
C1874 C1879 1.379 . S
C1874 N1881 1.356 . S
C1875 C1874 1.363 . S
C1875 C1878 1.363 . S
N1876 C1878 1.356 . S
N1876 H1888 0.984 . S
N1876 H1889 0.985 . S
N1877 C1879 1.356 . S
N1877 H1882 0.984 . S
N1877 H1883 0.985 . S
C1878 C1872 1.379 . S
C1878 C1875 1.363 . S
C1878 N1876 1.356 . S
C1879 C1873 1.363 . S
C1879 C1874 1.379 . S
C1879 N1877 1.356 . S
N1880 C1872 1.356 . S
N1880 H1886 0.984 . S
N1880 H1887 0.984 . S
N1881 C1874 1.356 . S
N1881 H1884 0.984 . S
N1881 H1885 0.985 . S
H1882 N1877 0.984 . S
H1883 N1877 0.985 . S
H1884 N1881 0.984 . S
H1885 N1881 0.985 . S
H1886 N1880 0.984 . S
H1887 N1880 0.984 . S
H1888 N1876 0.984 . S
H1889 N1876 0.985 . S
C1890 C1891 1.363 . S
C1890 C1896 1.379 . S
C1890 N1898 1.356 . S
C1891 C1890 1.363 . S
C1891 C1897 1.363 . S
C1892 C1893 1.363 . S
C1892 C1897 1.379 . S
C1892 N1899 1.356 . S
C1893 C1892 1.363 . S
C1893 C1896 1.363 . S
N1894 C1896 1.356 . S
N1894 H1906 0.984 . S
N1894 H1907 0.985 . S
N1895 C1897 1.356 . S
N1895 H1900 0.984 . S
N1895 H1901 0.985 . S
C1896 C1890 1.379 . S
C1896 C1893 1.363 . S
C1896 N1894 1.356 . S
C1897 C1891 1.363 . S
C1897 C1892 1.379 . S
C1897 N1895 1.356 . S
N1898 C1890 1.356 . S
N1898 H1904 0.984 . S
N1898 H1905 0.984 . S
N1899 C1892 1.356 . S
N1899 H1902 0.984 . S
N1899 H1903 0.985 . S
H1900 N1895 0.984 . S
H1901 N1895 0.985 . S
H1902 N1899 0.984 . S
H1903 N1899 0.985 . S
H1904 N1898 0.984 . S
H1905 N1898 0.984 . S
H1906 N1894 0.984 . S
H1907 N1894 0.985 . S
C1908 C1909 1.363 . S
C1908 C1914 1.379 . S
C1908 N1916 1.356 . S
C1909 C1908 1.363 . S
C1909 C1915 1.363 . S
C1910 C1911 1.363 . S
C1910 C1915 1.379 . S
C1910 N1917 1.356 . S
C1911 C1910 1.363 . S
C1911 C1914 1.363 . S
N1912 C1914 1.356 . S
N1912 H1924 0.984 . S
N1912 H1925 0.985 . S
N1913 C1915 1.356 . S
N1913 H1918 0.984 . S
N1913 H1919 0.985 . S
C1914 C1908 1.379 . S
C1914 C1911 1.363 . S
C1914 N1912 1.356 . S
C1915 C1909 1.363 . S
C1915 C1910 1.379 . S
C1915 N1913 1.356 . S
N1916 C1908 1.356 . S
N1916 H1922 0.984 . S
N1916 H1923 0.984 . S
N1917 C1910 1.356 . S
N1917 H1920 0.984 . S
N1917 H1921 0.985 . S
H1918 N1913 0.984 . S
H1919 N1913 0.985 . S
H1920 N1917 0.984 . S
H1921 N1917 0.985 . S
H1922 N1916 0.984 . S
H1923 N1916 0.984 . S
H1924 N1912 0.984 . S
H1925 N1912 0.985 . S
C1926 C1927 1.363 . S
C1926 C1932 1.379 . S
C1926 N1934 1.356 . S
C1927 C1926 1.363 . S
C1927 C1933 1.363 . S
C1928 C1929 1.363 . S
C1928 C1933 1.379 . S
C1928 N1935 1.356 . S
C1929 C1928 1.363 . S
C1929 C1932 1.363 . S
N1930 C1932 1.356 . S
N1930 H1942 0.984 . S
N1930 H1943 0.985 . S
N1931 C1933 1.356 . S
N1931 H1936 0.984 . S
N1931 H1937 0.985 . S
C1932 C1926 1.379 . S
C1932 C1929 1.363 . S
C1932 N1930 1.356 . S
C1933 C1927 1.363 . S
C1933 C1928 1.379 . S
C1933 N1931 1.356 . S
N1934 C1926 1.356 . S
N1934 H1940 0.984 . S
N1934 H1941 0.984 . S
N1935 C1928 1.356 . S
N1935 H1938 0.984 . S
N1935 H1939 0.985 . S
H1936 N1931 0.984 . S
H1937 N1931 0.985 . S
H1938 N1935 0.984 . S
H1939 N1935 0.985 . S
H1940 N1934 0.984 . S
H1941 N1934 0.984 . S
H1942 N1930 0.984 . S
H1943 N1930 0.985 . S
C1944 C1945 1.363 . S
C1944 C1950 1.379 . S
C1944 N1952 1.356 . S
C1945 C1944 1.363 . S
C1945 C1951 1.363 . S
C1946 C1947 1.363 . S
C1946 C1951 1.379 . S
C1946 N1953 1.356 . S
C1947 C1946 1.363 . S
C1947 C1950 1.363 . S
N1948 C1950 1.356 . S
N1948 H1960 0.984 . S
N1948 H1961 0.985 . S
N1949 C1951 1.356 . S
N1949 H1954 0.984 . S
N1949 H1955 0.985 1_655 S
C1950 C1944 1.379 . S
C1950 C1947 1.363 . S
C1950 N1948 1.356 . S
C1951 C1945 1.363 . S
C1951 C1946 1.379 . S
C1951 N1949 1.356 . S
N1952 C1944 1.356 . S
N1952 H1958 0.984 . S
N1952 H1959 0.984 . S
N1953 C1946 1.356 . S
N1953 H1956 0.984 . S
N1953 H1957 0.985 1_655 S
H1954 N1949 0.984 . S
H1955 N1949 0.985 1_455 S
H1956 N1953 0.984 . S
H1957 N1953 0.985 1_455 S
H1958 N1952 0.984 . S
H1959 N1952 0.984 . S
H1960 N1948 0.984 . S
H1961 N1948 0.985 . S
C991 N170 1.892 . S
C993 C290 1.822 . S
C1009 N184 1.096 . S
C1011 C374 1.075 . S
C1027 N158 1.556 . S
C1029 C468 1.527 . S
C1045 N145 1.538 . S
C1047 C384 1.515 . S
C1065 C458 1.034 . S
C1063 N119 1.058 . S
C1081 N131 1.853 . S
C1083 C300 1.811 1_556 S
C1101 C301 1.567 . S
C1099 N144 1.629 . S
C1119 C385 1.415 . S
C1117 N118 1.421 . S
C1135 N132 1.461 . S
C1137 C477 1.456 . S
C1153 N171 1.451 . S
C1155 C393 1.446 . S
C1171 N183 1.383 . S
C1173 C469 1.375 . S
C1191 C309 1.555 . S
C1189 N157 1.593 . S
C1209 C542 1.822 . S
C1207 N14 1.892 . S
C1225 N28 1.096 . S
C1227 C626 1.075 . S
C1243 N2 1.556 . S
C1245 C720 1.527 . S
C1261 N223 1.538 . S
C1263 C636 1.509 . S
C1279 N197 1.058 . S
C1281 C710 1.034 . S
C1297 N209 1.853 . S
C1299 C552 1.811 . S
C1315 N222 1.629 . S
C1317 C553 1.567 . S
C1333 N196 1.421 . S
C1335 C637 1.415 . S
C1353 C729 1.456 . S
C1351 N210 1.461 . S
C1369 N15 1.452 . S
C1371 C645 1.446 . S
C1389 C721 1.375 . S
C1387 N27 1.383 . S
C1405 N1 1.593 . S
C1407 C561 1.555 . S
C1425 C794 1.822 . S
C1423 N92 1.892 . S
C1441 N106 1.096 . S
C1443 C878 1.075 . S
C1461 C972 1.527 . S
C1459 N80 1.556 . S
C1479 C888 1.509 . S
C1477 N67 1.538 . S
C1497 C962 1.034 . S
C1495 N41 1.058 1_655 S
C1513 N53 1.853 . S
C1515 C804 1.811 . S
C1531 N66 1.629 . S
C1533 C805 1.567 . S
C1549 N40 1.421 . S
C1551 C889 1.415 . S
C1569 C981 1.456 . S
C1567 N54 1.461 . S
C1585 N93 1.451 . S
C1587 C897 1.446 . S
C1603 N105 1.383 . S
C1605 C973 1.375 . S
C1621 N79 1.593 . S
C1623 C813 1.555 . S
C1639 N200 1.331 . S
C1641 C297 1.216 . S
C1659 C381 1.510 . S
C1657 N213 1.697 . S
C1675 N226 1.524 . S
C1677 C474 1.403 . S
C1693 N83 1.550 . S
C1695 C390 1.418 . S
C1711 N96 1.682 . S
C1713 C465 1.504 . S
C1731 C306 1.256 . S
C1729 N109 1.356 . S
C1747 N44 1.331 . S
C1749 C549 1.216 . S
C1765 N57 1.697 . S
C1767 C633 1.510 . S
C1783 N70 1.524 . S
C1785 C726 1.403 . S
C1801 N161 1.550 . S
C1803 C642 1.419 . S
C1821 C717 1.504 . S
C1819 N174 1.682 . S
C1837 N187 1.356 . S
C1839 C558 1.256 . S
C1855 N122 1.331 . S
C1857 C801 1.216 . S
C1873 N135 1.697 . S
C1875 C885 1.510 . S
C1893 C978 1.403 . S
C1891 N148 1.524 . S
C1909 N5 1.550 . S
C1911 C894 1.418 . S
C1927 N18 1.682 . S
C1929 C969 1.504 . S
C1945 N31 1.356 . S
C1947 C810 1.256 . S
