# Generated by pormake.
# Topology pto, (3,4)-cn, num edge types: 1
# Building blocks:
#     Node 0, Type 0, BuildingBlock: ESEHIV_clean_linker_0, # of connection points: 3
#     Node 1, Type 0, BuildingBlock: ESEHIV_clean_linker_0, # of connection points: 3
#     Node 2, Type 0, BuildingBlock: ESEHIV_clean_linker_0, # of connection points: 3
#     Node 3, Type 0, BuildingBlock: ESEHIV_clean_linker_0, # of connection points: 3
#     Node 4, Type 0, BuildingBlock: ESEHIV_clean_linker_0, # of connection points: 3
#     Node 5, Type 0, BuildingBlock: ESEHIV_clean_linker_0, # of connection points: 3
#     Node 6, Type 0, BuildingBlock: ESEHIV_clean_linker_0, # of connection points: 3
#     Node 7, Type 0, BuildingBlock: ESEHIV_clean_linker_0, # of connection points: 3
#     Node 8, Type 1, BuildingBlock: KOZSID_clean_sbu_0, # of connection points: 4
#     Node 9, Type 1, BuildingBlock: KOZSID_clean_sbu_0, # of connection points: 4
#     Node 10, Type 1, BuildingBlock: KOZSID_clean_sbu_0, # of connection points: 4
#     Node 11, Type 1, BuildingBlock: KOZSID_clean_sbu_0, # of connection points: 4
#     Node 12, Type 1, BuildingBlock: KOZSID_clean_sbu_0, # of connection points: 4
#     Node 13, Type 1, BuildingBlock: KOZSID_clean_sbu_0, # of connection points: 4
#     Edge 14, Type (0, 1), BuildingBlock: TEMPAE_clean_linker_10, # of connection points: 2
#     Edge 15, Type (0, 1), BuildingBlock: TEMPAE_clean_linker_10, # of connection points: 2
#     Edge 16, Type (0, 1), BuildingBlock: TEMPAE_clean_linker_10, # of connection points: 2
#     Edge 17, Type (0, 1), BuildingBlock: TEMPAE_clean_linker_10, # of connection points: 2
#     Edge 18, Type (0, 1), BuildingBlock: TEMPAE_clean_linker_10, # of connection points: 2
#     Edge 19, Type (0, 1), BuildingBlock: TEMPAE_clean_linker_10, # of connection points: 2
#     Edge 20, Type (0, 1), BuildingBlock: TEMPAE_clean_linker_10, # of connection points: 2
#     Edge 21, Type (0, 1), BuildingBlock: TEMPAE_clean_linker_10, # of connection points: 2
#     Edge 22, Type (0, 1), BuildingBlock: TEMPAE_clean_linker_10, # of connection points: 2
#     Edge 23, Type (0, 1), BuildingBlock: TEMPAE_clean_linker_10, # of connection points: 2
#     Edge 24, Type (0, 1), BuildingBlock: TEMPAE_clean_linker_10, # of connection points: 2
#     Edge 25, Type (0, 1), BuildingBlock: TEMPAE_clean_linker_10, # of connection points: 2
#     Edge 26, Type (0, 1), BuildingBlock: TEMPAE_clean_linker_10, # of connection points: 2
#     Edge 27, Type (0, 1), BuildingBlock: TEMPAE_clean_linker_10, # of connection points: 2
#     Edge 28, Type (0, 1), BuildingBlock: TEMPAE_clean_linker_10, # of connection points: 2
#     Edge 29, Type (0, 1), BuildingBlock: TEMPAE_clean_linker_10, # of connection points: 2
#     Edge 30, Type (0, 1), BuildingBlock: TEMPAE_clean_linker_10, # of connection points: 2
#     Edge 31, Type (0, 1), BuildingBlock: TEMPAE_clean_linker_10, # of connection points: 2
#     Edge 32, Type (0, 1), BuildingBlock: TEMPAE_clean_linker_10, # of connection points: 2
#     Edge 33, Type (0, 1), BuildingBlock: TEMPAE_clean_linker_10, # of connection points: 2
#     Edge 34, Type (0, 1), BuildingBlock: TEMPAE_clean_linker_10, # of connection points: 2
#     Edge 35, Type (0, 1), BuildingBlock: TEMPAE_clean_linker_10, # of connection points: 2
#     Edge 36, Type (0, 1), BuildingBlock: TEMPAE_clean_linker_10, # of connection points: 2
#     Edge 37, Type (0, 1), BuildingBlock: TEMPAE_clean_linker_10, # of connection points: 2
# Relax obj value: 0.000
# Max RMSD: 0.029
# Mean RMSD: 0.013
data_MOF--net-pto--node1-KOZSID_clean_sbu_0--node2-ESEHIV_clean_linker_0--edge1-TEMPAE_clean_linker_10
_symmetry_space_group_name_H-M    P1
_symmetry_Int_Tables_number       1
_symmetry_cell_setting            triclinic
loop_
_symmetry_equiv_pos_as_xyz
'x, y, z'
_cell_length_a     37.09811
_cell_length_b     50.12305
_cell_length_c     43.669499
_cell_angle_alpha  87.488887
_cell_angle_beta   86.608212
_cell_angle_gamma 93.267661
loop_
_atom_site_label
_atom_site_type_symbol
_atom_site_fract_x
_atom_site_fract_y
_atom_site_fract_z
_atom_type_partial_charge
H0 H 0.28241 0.30007 0.28223 0.0
H1 H 0.30402 0.21813 0.3019 0.0
H2 H 0.21766 0.25479 0.35196 0.0
C3 C 0.27617 0.28111 0.29479 0.0
C4 C 0.24845 0.27954 0.31803 0.0
C5 C 0.29576 0.2587 0.28801 0.0
C6 C 0.28835 0.23502 0.30657 0.0
C7 C 0.26085 0.23299 0.33061 0.0
C8 C 0.24047 0.25554 0.33532 0.0
H9 H 0.25232 0.73395 0.77849 0.0
H10 H 0.2819 0.81603 0.75085 0.0
H11 H 0.20711 0.77006 0.69947 0.0
C12 C 0.24966 0.75131 0.76328 0.0
C13 C 0.22672 0.74931 0.73892 0.0
C14 C 0.26992 0.77522 0.76767 0.0
C15 C 0.26718 0.79726 0.74714 0.0
C16 C 0.24481 0.79557 0.72234 0.0
C17 C 0.22458 0.77151 0.71843 0.0
H18 H 0.7515 0.8112 0.29595 0.0
H19 H 0.80993 0.76524 0.35979 0.0
H20 H 0.77388 0.73004 0.27816 0.0
C21 C 0.76269 0.79258 0.30301 0.0
C22 C 0.75933 0.77053 0.28438 0.0
C23 C 0.78104 0.79098 0.33023 0.0
C24 C 0.79668 0.76699 0.33841 0.0
C25 C 0.79484 0.74503 0.31952 0.0
C26 C 0.77581 0.74695 0.29269 0.0
H27 H 0.76331 0.2265 0.77764 0.0
H28 H 0.8139 0.27798 0.70497 0.0
H29 H 0.78167 0.31045 0.79134 0.0
C30 C 0.77303 0.24643 0.7693 0.0
C31 C 0.76882 0.26835 0.78795 0.0
C32 C 0.78907 0.24999 0.73943 0.0
C33 C 0.80224 0.27556 0.72831 0.0
C34 C 0.80105 0.29758 0.74719 0.0
C35 C 0.78368 0.29368 0.77682 0.0
H36 H 0.73758 0.81523 0.75584 0.0
H37 H 0.76952 0.73629 0.78025 0.0
H38 H 0.80942 0.77532 0.69439 0.0
C39 C 0.75252 0.79792 0.75038 0.0
C40 C 0.7739 0.79813 0.72268 0.0
C41 C 0.75044 0.77562 0.77121 0.0
C42 C 0.77036 0.75345 0.76417 0.0
C43 C 0.79157 0.75328 0.73649 0.0
C44 C 0.79302 0.77553 0.71575 0.0
H45 H 0.75189 0.22111 0.31422 0.0
H46 H 0.78182 0.30371 0.29021 0.0
H47 H 0.82621 0.26496 0.36824 0.0
C48 C 0.76699 0.23954 0.31875 0.0
C49 C 0.78897 0.24037 0.34384 0.0
C50 C 0.76431 0.26231 0.29942 0.0
C51 C 0.78399 0.28609 0.30515 0.0
C52 C 0.80669 0.2872 0.32976 0.0
C53 C 0.80889 0.26426 0.34912 0.0
H54 H 0.21761 0.26192 0.71029 0.0
H55 H 0.29731 0.22251 0.76022 0.0
H56 H 0.2714 0.30289 0.78064 0.0
C57 C 0.2369 0.26206 0.728 0.0
C58 C 0.24206 0.28486 0.74511 0.0
C59 C 0.25765 0.23989 0.73283 0.0
C60 C 0.28249 0.24016 0.75587 0.0
C61 C 0.28731 0.26259 0.7738 0.0
C62 C 0.26746 0.28512 0.76767 0.0
H63 H 0.21114 0.75738 0.34479 0.0
H64 H 0.27243 0.72138 0.27318 0.0
H65 H 0.29044 0.80538 0.28768 0.0
C66 C 0.23219 0.75915 0.32641 0.0
C67 C 0.25109 0.78395 0.31921 0.0
C68 C 0.23948 0.73667 0.3096 0.0
C69 C 0.2659 0.73912 0.28513 0.0
C70 C 0.28405 0.76395 0.27632 0.0
C71 C 0.2765 0.7862 0.29379 0.0
C72 C 0.07608 0.5506 0.37576 0.0
C73 C 0.08857 0.5581 0.40364 0.0
C74 C 0.06888 0.54268 0.42592 0.0
C75 C 0.04572 0.52665 0.41041 0.0
N76 N 0.04952 0.53082 0.37956 0.0
Co77 Co 0.02185 0.51152 0.3483 0.0
N78 N 0.99015 0.4911 0.38115 0.0
C79 C 0.99007 0.49421 0.41175 0.0
C80 C 0.96497 0.47754 0.42855 0.0
C81 C 0.94812 0.46281 0.40741 0.0
C82 C 0.96415 0.47132 0.37888 0.0
N83 N 0.99571 0.49103 0.31705 0.0
C84 C 0.97044 0.47038 0.32097 0.0
C85 C 0.96116 0.46048 0.2931 0.0
C86 C 0.98157 0.47526 0.27076 0.0
C87 C 0.00215 0.49314 0.2862 0.0
N88 N 0.05202 0.53315 0.31541 0.0
C89 C 0.04946 0.5321 0.28471 0.0
C90 C 0.0722 0.55046 0.26789 0.0
C91 C 0.08997 0.56441 0.28912 0.0
C92 C 0.07705 0.55359 0.31776 0.0
N93 N 0.05739 0.4834 0.34891 0.0
C94 C 0.1035 0.44083 0.3484 0.0
C95 C 0.10054 0.45703 0.32203 0.0
C96 C 0.07729 0.47792 0.3227 0.0
C97 C 0.08397 0.44664 0.37529 0.0
C98 C 0.06166 0.46816 0.37518 0.0
N99 N 0.9863 0.53961 0.34761 0.0
C100 C 0.94682 0.56709 0.31954 0.0
C101 C 0.9396 0.58203 0.34525 0.0
C102 C 0.95528 0.57472 0.37249 0.0
C103 C 0.97805 0.55347 0.37323 0.0
C104 C 0.97018 0.54632 0.32115 0.0
H105 H 0.98907 0.54892 0.39471 0.0
H106 H 0.97503 0.53621 0.30051 0.0
H107 H 0.07545 0.48899 0.30155 0.0
H108 H 0.04782 0.47183 0.39653 0.0
C109 C 0.0171 0.51018 0.42413 0.0
C110 C 0.08887 0.56378 0.34646 0.0
C111 C 0.9552 0.45902 0.35052 0.0
C112 C 0.02666 0.51283 0.27239 0.0
H113 H 0.10909 0.57362 0.40746 0.0
H114 H 0.07026 0.5438 0.45052 0.0
H115 H 0.96052 0.47553 0.45329 0.0
H116 H 0.92716 0.44704 0.41244 0.0
H117 H 0.94183 0.44412 0.28934 0.0
H118 H 0.98149 0.47317 0.24619 0.0
H119 H 0.07547 0.55335 0.24315 0.0
H120 H 0.11004 0.5808 0.28411 0.0
H121 H 0.11523 0.45304 0.30068 0.0
H122 H 0.08594 0.43462 0.3963 0.0
H123 H 0.93466 0.57142 0.29808 0.0
H124 H 0.95079 0.58569 0.39305 0.0
C125 C 0.0705 0.55947 0.74846 0.0
C126 C 0.08016 0.56627 0.77746 0.0
C127 C 0.05836 0.55056 0.79805 0.0
C128 C 0.03677 0.5351 0.78054 0.0
N129 N 0.04377 0.5398 0.74998 0.0
Co130 Co 0.01892 0.52189 0.71619 0.0
N131 N 0.98262 0.50247 0.74627 0.0
C132 C 0.9796 0.50501 0.77703 0.0
C133 C 0.95038 0.49067 0.79138 0.0
C134 C 0.93404 0.47791 0.76848 0.0
C135 C 0.95475 0.48486 0.74144 0.0
N136 N 0.99499 0.50302 0.6825 0.0
C137 C 0.96861 0.48298 0.68415 0.0
C138 C 0.96319 0.47316 0.65539 0.0
C139 C 0.9866 0.48762 0.63493 0.0
C140 C 0.00532 0.50512 0.65222 0.0
N141 N 0.05407 0.54255 0.68603 0.0
C142 C 0.05595 0.54131 0.65511 0.0
C143 C 0.08117 0.55922 0.64036 0.0
C144 C 0.09579 0.57319 0.66321 0.0
C145 C 0.07857 0.56284 0.6906 0.0
N146 N 0.05193 0.49206 0.71954 0.0
C147 C 0.0959 0.4479 0.72359 0.0
C148 C 0.09631 0.46409 0.69665 0.0
C149 C 0.07417 0.48569 0.69506 0.0
C150 C 0.07344 0.45457 0.7486 0.0
C151 C 0.05229 0.47664 0.74623 0.0
N152 N 0.98597 0.55149 0.71293 0.0
C153 C 0.95407 0.58285 0.68247 0.0
C154 C 0.93961 0.59375 0.70902 0.0
C155 C 0.94875 0.58336 0.73743 0.0
C156 C 0.9721 0.56263 0.73885 0.0
C157 C 0.97676 0.56159 0.68494 0.0
H158 H 0.97876 0.55609 0.76121 0.0
H159 H 0.98666 0.55367 0.66398 0.0
H160 H 0.07548 0.49678 0.67365 0.0
H161 H 0.03618 0.48054 0.76631 0.0
C162 C 0.00621 0.51938 0.79192 0.0
C163 C 0.08559 0.57347 0.72028 0.0
C164 C 0.94909 0.47212 0.7125 0.0
C165 C 0.03326 0.52329 0.64073 0.0
H166 H 0.09998 0.58168 0.78312 0.0
H167 H 0.05705 0.55136 0.82282 0.0
H168 H 0.94251 0.48907 0.81569 0.0
H169 H 0.91035 0.46421 0.77153 0.0
H170 H 0.94491 0.45686 0.6496 0.0
H171 H 0.99018 0.48519 0.61045 0.0
H172 H 0.08765 0.56211 0.61591 0.0
H173 H 0.11638 0.58944 0.66009 0.0
H174 H 0.11373 0.46027 0.67674 0.0
H175 H 0.07152 0.44258 0.76994 0.0
H176 H 0.94755 0.59048 0.65999 0.0
H177 H 0.93845 0.5916 0.75853 0.0
C178 C 0.26877 0.97221 0.56899 0.0
C179 C 0.30214 0.96314 0.57594 0.0
C180 C 0.32755 0.97808 0.55776 0.0
C181 C 0.30831 0.9953 0.54083 0.0
N182 N 0.27218 0.99262 0.5474 0.0
Co183 Co 0.23415 0.0123 0.52652 0.0
N184 N 0.27159 0.03448 0.50002 0.0
C185 C 0.30795 0.03359 0.5006 0.0
C186 C 0.32684 0.05067 0.47933 0.0
C187 C 0.3011 0.06375 0.46473 0.0
C188 C 0.26776 0.0541 0.4783 0.0
N189 N 0.19606 0.03088 0.50438 0.0
C190 C 0.19919 0.05147 0.48294 0.0
C191 C 0.16539 0.05926 0.47516 0.0
C192 C 0.14027 0.04269 0.49162 0.0
C193 C 0.15984 0.02599 0.50884 0.0
N194 N 0.19683 0.9913 0.5544 0.0
C195 C 0.16064 0.99346 0.5553 0.0
C196 C 0.14185 0.97665 0.57699 0.0
C197 C 0.16758 0.96281 0.59074 0.0
C198 C 0.20068 0.972 0.57648 0.0
N199 N 0.23576 0.04054 0.55697 0.0
C200 C 0.23868 0.08247 0.59763 0.0
C201 C 0.20634 0.07463 0.58504 0.0
C202 C 0.20535 0.05351 0.56525 0.0
C203 C 0.26942 0.06877 0.59016 0.0
C204 C 0.26748 0.04817 0.56966 0.0
N205 N 0.2326 0.98397 0.49599 0.0
C206 C 0.20149 0.9463 0.47394 0.0
C207 C 0.23226 0.94159 0.45528 0.0
C208 C 0.26273 0.95912 0.45678 0.0
C209 C 0.2625 0.97964 0.47731 0.0
C210 C 0.20206 0.96763 0.49356 0.0
H211 H 0.28712 0.99152 0.47768 0.0
H212 H 0.17753 0.97021 0.50679 0.0
H213 H 0.1797 0.0482 0.55679 0.0
H214 H 0.29208 0.03895 0.56414 0.0
C215 C 0.32339 0.01479 0.51941 0.0
C216 C 0.23467 0.96056 0.58325 0.0
C217 C 0.23342 0.06483 0.47042 0.0
C218 C 0.14504 0.00903 0.53306 0.0
H219 H 0.3075 0.94726 0.59237 0.0
H220 H 0.35658 0.97656 0.55695 0.0
H221 H 0.35586 0.05301 0.47463 0.0
H222 H 0.30641 0.07873 0.44618 0.0
H223 H 0.1591 0.07579 0.46009 0.0
H224 H 0.11117 0.04377 0.49234 0.0
H225 H 0.11282 0.97402 0.58143 0.0
H226 H 0.16247 0.94714 0.60857 0.0
H227 H 0.18186 0.08468 0.59058 0.0
H228 H 0.29504 0.0744 0.59948 0.0
H229 H 0.17712 0.93335 0.47401 0.0
H230 H 0.287 0.95713 0.44224 0.0
C231 C 0.46805 0.80344 0.06991 0.0
C232 C 0.45937 0.82838 0.07989 0.0
C233 C 0.4792 0.84701 0.06132 0.0
C234 C 0.49913 0.83258 0.04133 0.0
N235 N 0.49313 0.80575 0.04585 0.0
Co236 Co 0.51872 0.77741 0.02345 0.0
N237 N 0.55101 0.80498 0.99882 0.0
C238 C 0.55155 0.83184 0.00099 0.0
C239 C 0.57678 0.84562 0.98123 0.0
C240 C 0.59326 0.82645 0.96527 0.0
C241 C 0.57688 0.802 0.97619 0.0
N242 N 0.54384 0.74907 0.00072 0.0
C243 C 0.57001 0.75142 0.97756 0.0
C244 C 0.57882 0.72661 0.96735 0.0
C245 C 0.55748 0.70792 0.98463 0.0
C246 C 0.53682 0.72228 0.0042 0.0
N247 N 0.48694 0.74983 0.04851 0.0
C248 C 0.48677 0.72293 0.04662 0.0
C249 C 0.4616 0.70913 0.06638 0.0
C250 C 0.44509 0.72829 0.08232 0.0
C251 C 0.46153 0.7528 0.07154 0.0
N252 N 0.48287 0.7786 0.99142 0.0
C253 C 0.43527 0.77981 0.94339 0.0
C254 C 0.44211 0.75574 0.95867 0.0
C255 C 0.4658 0.75559 0.9823 0.0
C256 C 0.45199 0.80338 0.95312 0.0
C257 C 0.47532 0.80233 0.97707 0.0
N258 N 0.55457 0.77623 0.05537 0.0
C259 C 0.59053 0.75104 0.08942 0.0
C260 C 0.60349 0.77446 0.10235 0.0
C261 C 0.59188 0.7988 0.09097 0.0
C262 C 0.56787 0.79922 0.06758 0.0
C263 C 0.56618 0.75236 0.06628 0.0
H264 H 0.56016 0.81841 0.06002 0.0
H265 H 0.55698 0.73378 0.05771 0.0
H266 H 0.47003 0.73653 0.99259 0.0
H267 H 0.48726 0.82097 0.98326 0.0
C268 C 0.52667 0.84357 0.02063 0.0
C269 C 0.45296 0.77816 0.08474 0.0
C270 C 0.58631 0.77661 0.96379 0.0
C271 C 0.51035 0.71121 0.02581 0.0
H272 H 0.44148 0.83287 0.09917 0.0
H273 H 0.4802 0.86851 0.0631 0.0
H274 H 0.5821 0.86707 0.97838 0.0
H275 H 0.61461 0.83006 0.94732 0.0
H276 H 0.59829 0.72243 0.94901 0.0
H277 H 0.55675 0.68642 0.98285 0.0
H278 H 0.45603 0.68769 0.06899 0.0
H279 H 0.42362 0.72455 0.10012 0.0
H280 H 0.4292 0.73696 0.95252 0.0
H281 H 0.44777 0.82256 0.94193 0.0
H282 H 0.59913 0.73168 0.09701 0.0
H283 H 0.60065 0.81752 0.10043 0.0
C284 C 0.82863 0.98123 0.57874 0.0
C285 C 0.86154 0.97226 0.58709 0.0
C286 C 0.88777 0.98726 0.56984 0.0
C287 C 0.86945 0.00437 0.55196 0.0
N288 N 0.83308 0.00158 0.55712 0.0
Co289 Co 0.79602 0.02077 0.53444 0.0
N290 N 0.83458 0.04211 0.50819 0.0
C291 C 0.8708 0.04135 0.5099 0.0
C292 C 0.8904 0.05939 0.49008 0.0
C293 C 0.86519 0.07285 0.47514 0.0
C294 C 0.83158 0.06208 0.48672 0.0
N295 N 0.75892 0.03904 0.51087 0.0
C296 C 0.76323 0.05857 0.4883 0.0
C297 C 0.73029 0.06556 0.47782 0.0
C298 C 0.70415 0.05013 0.49469 0.0
C299 C 0.72256 0.0346 0.51433 0.0
N300 N 0.75747 0.00037 0.5616 0.0
C301 C 0.72133 0.00277 0.56159 0.0
C302 C 0.70175 0.9861 0.58296 0.0
C303 C 0.72685 0.97203 0.59729 0.0
C304 C 0.76038 0.98091 0.58365 0.0
N305 N 0.79665 0.04967 0.56406 0.0
C306 C 0.79758 0.09191 0.60462 0.0
C307 C 0.76547 0.08271 0.59241 0.0
C308 C 0.76558 0.06171 0.57251 0.0
C309 C 0.82922 0.07942 0.59634 0.0
C310 C 0.82816 0.05855 0.57617 0.0
N311 N 0.79534 0.99183 0.50484 0.0
C312 C 0.763 0.9557 0.48125 0.0
C313 C 0.79471 0.94882 0.46562 0.0
C314 C 0.82665 0.96406 0.46932 0.0
C315 C 0.82643 0.98521 0.48912 0.0
C316 C 0.76382 0.9773 0.5003 0.0
H317 H 0.85182 0.99565 0.49159 0.0
H318 H 0.73861 0.98168 0.51126 0.0
H319 H 0.74019 0.05578 0.56404 0.0
H320 H 0.85323 0.05003 0.57061 0.0
C321 C 0.88554 0.02326 0.53017 0.0
C322 C 0.79391 0.96912 0.59108 0.0
C323 C 0.79765 0.07204 0.47731 0.0
C324 C 0.70647 0.01822 0.53866 0.0
H325 H 0.86605 0.95624 0.60361 0.0
H326 H 0.91673 0.98562 0.56998 0.0
H327 H 0.91952 0.06258 0.48709 0.0
H328 H 0.87086 0.08898 0.45792 0.0
H329 H 0.72564 0.08079 0.46038 0.0
H330 H 0.67516 0.05092 0.49363 0.0
H331 H 0.67262 0.98363 0.58674 0.0
H332 H 0.72109 0.95639 0.61509 0.0
H333 H 0.7403 0.09195 0.59771 0.0
H334 H 0.85473 0.08556 0.6055 0.0
H335 H 0.73757 0.94454 0.47862 0.0
H336 H 0.85184 0.95927 0.45756 0.0
C337 C 0.47321 0.28157 0.07925 0.0
C338 C 0.45973 0.3059 0.08681 0.0
C339 C 0.48001 0.32527 0.06964 0.0
C340 C 0.50426 0.31174 0.05233 0.0
N341 N 0.50029 0.28483 0.05693 0.0
Co342 Co 0.52884 0.25751 0.03561 0.0
N343 N 0.56083 0.28612 0.01236 0.0
C344 C 0.55926 0.3129 0.01443 0.0
C345 C 0.58586 0.32752 0.99694 0.0
C346 C 0.60542 0.30903 0.98251 0.0
C347 C 0.58923 0.28406 0.99176 0.0
N348 N 0.55735 0.23018 0.01411 0.0
C349 C 0.58454 0.23339 0.99182 0.0
C350 C 0.59454 0.20889 0.98137 0.0
C351 C 0.57354 0.18961 0.99798 0.0
C352 C 0.55163 0.20326 0.01726 0.0
N353 N 0.49702 0.22895 0.05924 0.0
C354 C 0.49872 0.20217 0.05729 0.0
C355 C 0.4762 0.18749 0.07843 0.0
C356 C 0.4593 0.20591 0.09521 0.0
C357 C 0.4721 0.23099 0.08296 0.0
N358 N 0.49513 0.25762 0.0018 0.0
C359 C 0.44998 0.25799 0.95188 0.0
C360 C 0.45985 0.23395 0.96553 0.0
C361 C 0.48193 0.23423 0.99037 0.0
C362 C 0.46268 0.28181 0.96409 0.0
C363 C 0.48515 0.28117 0.9886 0.0
N364 N 0.56246 0.25743 0.06925 0.0
C365 C 0.59502 0.2334 0.10693 0.0
C366 C 0.60805 0.25736 0.11845 0.0
C367 C 0.59828 0.28135 0.10483 0.0
C368 C 0.5754 0.28093 0.0806 0.0
C369 C 0.57272 0.23389 0.08228 0.0
H370 H 0.56826 0.29987 0.07166 0.0
H371 H 0.56395 0.21499 0.07427 0.0
H372 H 0.48818 0.21523 0.99968 0.0
H373 H 0.49423 0.30006 0.99627 0.0
C374 C 0.53232 0.32377 0.03287 0.0
C375 C 0.46094 0.25616 0.09526 0.0
C376 C 0.60099 0.25913 0.97935 0.0
C377 C 0.52435 0.19139 0.03754 0.0
H378 H 0.43808 0.30937 0.10362 0.0
H379 H 0.47791 0.34669 0.07026 0.0
H380 H 0.5904 0.34907 0.99483 0.0
H381 H 0.62876 0.3135 0.96669 0.0
H382 H 0.61442 0.20512 0.96322 0.0
H383 H 0.57362 0.16819 0.99574 0.0
H384 H 0.47365 0.16596 0.08216 0.0
H385 H 0.44062 0.20113 0.11485 0.0
H386 H 0.45115 0.21487 0.95686 0.0
H387 H 0.45526 0.30102 0.95493 0.0
H388 H 0.60229 0.21434 0.11671 0.0
H389 H 0.60761 0.30038 0.11328 0.0
C390 C 0.2095 0.3153 0.30022 0.0
C391 C 0.22732 0.30309 0.32397 0.0
C392 C 0.18918 0.33758 0.30549 0.0
C393 C 0.18743 0.34818 0.33504 0.0
C394 C 0.2057 0.33602 0.35905 0.0
C395 C 0.22513 0.31336 0.35329 0.0
C396 C 0.16946 0.34967 0.27948 0.0
C397 C 0.20507 0.34712 0.39065 0.0
C398 C 0.16229 0.42041 0.33718 0.0
C399 C 0.12571 0.41736 0.3473 0.0
C400 C 0.18309 0.39807 0.33417 0.0
C401 C 0.16655 0.37211 0.34066 0.0
C402 C 0.12965 0.36899 0.35123 0.0
C403 C 0.10974 0.39174 0.35475 0.0
C404 C 0.22257 0.4022 0.32352 0.0
C405 C 0.11088 0.34163 0.35775 0.0
H406 H 0.21108 0.30714 0.27762 0.0
H407 H 0.23919 0.30391 0.37154 0.0
H408 H 0.14019 0.34995 0.28628 0.0
H409 H 0.17973 0.3707 0.27435 0.0
H410 H 0.17267 0.33848 0.25818 0.0
H411 H 0.22112 0.33552 0.40665 0.0
H412 H 0.21604 0.36823 0.38906 0.0
H413 H 0.17682 0.34701 0.40052 0.0
H414 H 0.17453 0.44032 0.33156 0.0
H415 H 0.0813 0.3895 0.36228 0.0
H416 H 0.22718 0.39361 0.30074 0.0
H417 H 0.23945 0.39159 0.3397 0.0
H418 H 0.2319 0.4237 0.32163 0.0
H419 H 0.11135 0.33036 0.33643 0.0
H420 H 0.0823 0.3427 0.36654 0.0
H421 H 0.12539 0.33006 0.37487 0.0
C422 C 0.18688 0.71024 0.76066 0.0
C423 C 0.20508 0.72396 0.73507 0.0
C424 C 0.16711 0.6859 0.75771 0.0
C425 C 0.16549 0.67498 0.72845 0.0
C426 C 0.18348 0.68884 0.70245 0.0
C427 C 0.20304 0.71321 0.70607 0.0
C428 C 0.1481 0.67179 0.78595 0.0
C429 C 0.18243 0.67775 0.6709 0.0
C430 C 0.14319 0.60017 0.72695 0.0
C431 C 0.10636 0.59942 0.72169 0.0
C432 C 0.16296 0.6247 0.72875 0.0
C433 C 0.14527 0.64888 0.72522 0.0
C434 C 0.10803 0.64807 0.71953 0.0
C435 C 0.08898 0.62324 0.71779 0.0
C436 C 0.20261 0.62476 0.73478 0.0
C437 C 0.08823 0.67338 0.71568 0.0
H438 H 0.18796 0.71866 0.78306 0.0
H439 H 0.21736 0.72359 0.68627 0.0
H440 H 0.11873 0.66883 0.78271 0.0
H441 H 0.15862 0.65169 0.78957 0.0
H442 H 0.15173 0.68311 0.80697 0.0
H443 H 0.19727 0.69123 0.65295 0.0
H444 H 0.19454 0.65802 0.67089 0.0
H445 H 0.15399 0.67452 0.66469 0.0
H446 H 0.15636 0.58154 0.72982 0.0
H447 H 0.06041 0.62236 0.71364 0.0
H448 H 0.20741 0.63431 0.75674 0.0
H449 H 0.21889 0.63673 0.71636 0.0
H450 H 0.2125 0.60426 0.73606 0.0
H451 H 0.08907 0.68468 0.73694 0.0
H452 H 0.0595 0.66927 0.71062 0.0
H453 H 0.10175 0.68647 0.69676 0.0
C454 C 0.79829 0.69503 0.32149 0.0
C455 C 0.81375 0.72041 0.32721 0.0
C456 C 0.8173 0.67193 0.32606 0.0
C457 C 0.85234 0.67418 0.33721 0.0
C458 C 0.86746 0.69954 0.34436 0.0
C459 C 0.84815 0.72237 0.33899 0.0
C460 C 0.80043 0.64524 0.3179 0.0
C461 C 0.90457 0.7027 0.3567 0.0
C462 C 0.89327 0.61142 0.36818 0.0
C463 C 0.91673 0.60545 0.34331 0.0
C464 C 0.87222 0.6338 0.36663 0.0
C465 C 0.8742 0.65032 0.3394 0.0
C466 C 0.89748 0.64428 0.31413 0.0
C467 C 0.9187 0.62213 0.31651 0.0
C468 C 0.84804 0.63987 0.39418 0.0
C469 C 0.90011 0.6613 0.28457 0.0
H470 H 0.77142 0.69322 0.31303 0.0
H471 H 0.86058 0.74186 0.34315 0.0
H472 H 0.81684 0.6372 0.29872 0.0
H473 H 0.80022 0.6306 0.33771 0.0
H474 H 0.77229 0.64671 0.31089 0.0
H475 H 0.91099 0.72336 0.36381 0.0
H476 H 0.90661 0.68857 0.37672 0.0
H477 H 0.92535 0.6978 0.33883 0.0
H478 H 0.89114 0.59851 0.38884 0.0
H479 H 0.93726 0.61811 0.29739 0.0
H480 H 0.81949 0.63977 0.38793 0.0
H481 H 0.85548 0.66018 0.40178 0.0
H482 H 0.84991 0.62522 0.41378 0.0
H483 H 0.87293 0.66256 0.27546 0.0
H484 H 0.91852 0.65329 0.26667 0.0
H485 H 0.91016 0.68197 0.28896 0.0
C486 C 0.80757 0.34806 0.74869 0.0
C487 C 0.81926 0.32419 0.73667 0.0
C488 C 0.82768 0.37248 0.74266 0.0
C489 C 0.85887 0.3736 0.72229 0.0
C490 C 0.86898 0.35027 0.70777 0.0
C491 C 0.84988 0.32577 0.71586 0.0
C492 C 0.81639 0.3968 0.75919 0.0
C493 C 0.90071 0.351 0.68435 0.0
C494 C 0.89635 0.44359 0.69589 0.0
C495 C 0.92687 0.44637 0.71315 0.0
C496 C 0.8749 0.4195 0.69736 0.0
C497 C 0.88271 0.39852 0.7183 0.0
C498 C 0.91311 0.40153 0.73627 0.0
C499 C 0.93545 0.42507 0.73271 0.0
C500 C 0.84379 0.41681 0.67672 0.0
C501 C 0.92143 0.38029 0.76002 0.0
H502 H 0.78313 0.34777 0.76352 0.0
H503 H 0.85994 0.30783 0.70643 0.0
H504 H 0.83937 0.40547 0.77142 0.0
H505 H 0.8087 0.41235 0.74239 0.0
H506 H 0.79312 0.39208 0.77612 0.0
H507 H 0.90109 0.33246 0.67132 0.0
H508 H 0.89986 0.36842 0.66786 0.0
H509 H 0.92637 0.35324 0.69603 0.0
H510 H 0.88927 0.46024 0.6812 0.0
H511 H 0.95905 0.42728 0.74611 0.0
H512 H 0.81846 0.42168 0.68947 0.0
H513 H 0.84007 0.39611 0.6689 0.0
H514 H 0.84798 0.43081 0.65621 0.0
H515 H 0.89733 0.37545 0.77602 0.0
H516 H 0.94452 0.38665 0.77362 0.0
H517 H 0.92801 0.36165 0.74871 0.0
C518 C 0.23446 0.20796 0.3796 0.0
C519 C 0.25366 0.2077 0.35075 0.0
C520 C 0.2274 0.18465 0.39846 0.0
C521 C 0.24286 0.16066 0.39003 0.0
C522 C 0.2631 0.16016 0.36156 0.0
C523 C 0.26655 0.1831 0.34178 0.0
C524 C 0.20363 0.18634 0.42755 0.0
C525 C 0.28165 0.13563 0.35151 0.0
C526 C 0.25378 0.11282 0.45841 0.0
C527 C 0.23389 0.08982 0.45048 0.0
C528 C 0.25798 0.13563 0.43852 0.0
C529 C 0.23891 0.13644 0.41128 0.0
C530 C 0.21691 0.11372 0.40415 0.0
C531 C 0.2162 0.0903 0.42304 0.0
C532 C 0.28345 0.1584 0.44689 0.0
C533 C 0.19409 0.11353 0.37665 0.0
H534 H 0.22482 0.22631 0.38817 0.0
H535 H 0.27984 0.18126 0.31938 0.0
H536 H 0.19172 0.16655 0.43661 0.0
H537 H 0.21977 0.19552 0.44535 0.0
H538 H 0.18119 0.19956 0.42344 0.0
H539 H 0.30697 0.14138 0.33731 0.0
H540 H 0.28853 0.12251 0.37118 0.0
H541 H 0.26362 0.12398 0.33697 0.0
H542 H 0.26745 0.11254 0.4797 0.0
H543 H 0.20138 0.07239 0.41645 0.0
H544 H 0.26877 0.1713 0.46275 0.0
H545 H 0.2947 0.17084 0.42654 0.0
H546 H 0.30638 0.15069 0.45919 0.0
H547 H 0.18896 0.13392 0.36764 0.0
H548 H 0.1676 0.10252 0.38267 0.0
H549 H 0.20782 0.10266 0.35815 0.0
C550 C 0.32827 0.79058 0.78948 0.0
C551 C 0.29399 0.77711 0.79366 0.0
C552 C 0.35144 0.79215 0.81369 0.0
C553 C 0.34022 0.7797 0.84267 0.0
C554 C 0.30562 0.76621 0.84711 0.0
C555 C 0.28286 0.7652 0.82261 0.0
C556 C 0.38808 0.80685 0.80815 0.0
C557 C 0.2928 0.75257 0.87766 0.0
C558 C 0.41231 0.75999 0.89601 0.0
C559 C 0.41123 0.78016 0.9173 0.0
C560 C 0.38939 0.75965 0.87161 0.0
C561 C 0.36505 0.78015 0.86816 0.0
C562 C 0.36415 0.80079 0.88924 0.0
C563 C 0.38713 0.80049 0.91365 0.0
C564 C 0.39107 0.73724 0.84964 0.0
C565 C 0.3387 0.82309 0.88613 0.0
H566 H 0.3373 0.79953 0.7671 0.0
H567 H 0.25619 0.75515 0.82619 0.0
H568 H 0.39141 0.82253 0.82509 0.0
H569 H 0.40969 0.79275 0.81137 0.0
H570 H 0.39209 0.81641 0.78466 0.0
H571 H 0.26501 0.74311 0.8774 0.0
H572 H 0.31142 0.73691 0.88386 0.0
H573 H 0.29318 0.76724 0.89594 0.0
H574 H 0.43132 0.7445 0.89827 0.0
H575 H 0.3858 0.81598 0.93016 0.0
H576 H 0.39784 0.74554 0.8259 0.0
H577 H 0.36422 0.72627 0.84972 0.0
H578 H 0.41146 0.72278 0.85558 0.0
H579 H 0.34332 0.83342 0.86312 0.0
H580 H 0.3421 0.83808 0.90389 0.0
H581 H 0.31029 0.81471 0.88809 0.0
C582 C 0.8157 0.82025 0.36499 0.0
C583 C 0.7839 0.81436 0.35005 0.0
C584 C 0.81854 0.842 0.38404 0.0
C585 C 0.7892 0.85865 0.38772 0.0
C586 C 0.75724 0.8531 0.37242 0.0
C587 C 0.75482 0.83088 0.35407 0.0
C588 C 0.85286 0.84708 0.40037 0.0
C589 C 0.72553 0.87062 0.37549 0.0
C590 C 0.78011 0.90059 0.45768 0.0
C591 C 0.79435 0.92566 0.44585 0.0
C592 C 0.77897 0.87845 0.43915 0.0
C593 C 0.79168 0.88169 0.40792 0.0
C594 C 0.80613 0.90702 0.39588 0.0
C595 C 0.80765 0.9287 0.41515 0.0
C596 C 0.76409 0.85163 0.45297 0.0
C597 C 0.81929 0.91134 0.36256 0.0
H598 H 0.83858 0.80797 0.36164 0.0
H599 H 0.72989 0.82629 0.34313 0.0
H600 H 0.86546 0.86715 0.39322 0.0
H601 H 0.84651 0.84691 0.42553 0.0
H602 H 0.8729 0.83191 0.39558 0.0
H603 H 0.70325 0.86425 0.36102 0.0
H604 H 0.71479 0.87009 0.39977 0.0
H605 H 0.73441 0.8917 0.36885 0.0
H606 H 0.77015 0.89828 0.48155 0.0
H607 H 0.81844 0.9482 0.40605 0.0
H608 H 0.78435 0.83641 0.44948 0.0
H609 H 0.73969 0.8449 0.44125 0.0
H610 H 0.75673 0.85227 0.47794 0.0
H611 H 0.84099 0.8977 0.35695 0.0
H612 H 0.82988 0.93226 0.35686 0.0
H613 H 0.79682 0.90651 0.34766 0.0
C614 C 0.71841 0.24582 0.82284 0.0
C615 C 0.74762 0.26504 0.81832 0.0
C616 C 0.6968 0.24352 0.85039 0.0
C617 C 0.70314 0.2618 0.87351 0.0
C618 C 0.73259 0.28107 0.86945 0.0
C619 C 0.75506 0.28193 0.84236 0.0
C620 C 0.66653 0.22195 0.85436 0.0
C621 C 0.73949 0.30153 0.89314 0.0
C622 C 0.62035 0.27376 0.9251 0.0
C623 C 0.6278 0.26018 0.9525 0.0
C624 C 0.64531 0.27528 0.89962 0.0
C625 C 0.67765 0.26169 0.9011 0.0
C626 C 0.68509 0.24761 0.92861 0.0
C627 C 0.66051 0.2477 0.95431 0.0
C628 C 0.63705 0.29145 0.87116 0.0
C629 C 0.7184 0.23183 0.93064 0.0
H630 H 0.71153 0.2329 0.80457 0.0
H631 H 0.77812 0.29626 0.83999 0.0
H632 H 0.66683 0.21133 0.87718 0.0
H633 H 0.64009 0.23108 0.85326 0.0
H634 H 0.66847 0.20704 0.83633 0.0
H635 H 0.76343 0.31532 0.88643 0.0
H636 H 0.71546 0.31356 0.89642 0.0
H637 H 0.74374 0.29146 0.91563 0.0
H638 H 0.59503 0.28342 0.92376 0.0
H639 H 0.66636 0.23744 0.97566 0.0
H640 H 0.63291 0.27802 0.852 0.0
H641 H 0.66023 0.30576 0.86391 0.0
H642 H 0.61244 0.30283 0.87481 0.0
H643 H 0.71873 0.21674 0.91277 0.0
H644 H 0.71965 0.22136 0.95347 0.0
H645 H 0.74314 0.24523 0.92614 0.0
C646 C 0.274 0.83443 0.69027 0.0
C647 C 0.24254 0.81909 0.70078 0.0
C648 C 0.27232 0.85722 0.67072 0.0
C649 C 0.23834 0.86483 0.66137 0.0
C650 C 0.20651 0.84924 0.67153 0.0
C651 C 0.20898 0.82655 0.69114 0.0
C652 C 0.30689 0.87328 0.66026 0.0
C653 C 0.16981 0.85675 0.662 0.0
C654 C 0.23142 0.93752 0.63523 0.0
C655 C 0.2345 0.93597 0.60332 0.0
C656 C 0.2322 0.91441 0.65446 0.0
C657 C 0.23618 0.88933 0.64127 0.0
C658 C 0.23898 0.88777 0.60891 0.0
C659 C 0.23817 0.91122 0.59027 0.0
C660 C 0.22923 0.91687 0.68883 0.0
C661 C 0.24322 0.86142 0.59401 0.0
H662 H 0.30006 0.82854 0.69727 0.0
H663 H 0.18454 0.81495 0.69945 0.0
H664 H 0.31012 0.87451 0.63481 0.0
H665 H 0.30566 0.89404 0.66793 0.0
H666 H 0.33116 0.86449 0.66933 0.0
H667 H 0.14778 0.84215 0.67128 0.0
H668 H 0.16404 0.87681 0.67019 0.0
H669 H 0.16954 0.858 0.63659 0.0
H670 H 0.22869 0.95685 0.64505 0.0
H671 H 0.24058 0.91031 0.56547 0.0
H672 H 0.25406 0.91002 0.69892 0.0
H673 H 0.20613 0.90382 0.69917 0.0
H674 H 0.22543 0.93774 0.69537 0.0
H675 H 0.26851 0.85268 0.60087 0.0
H676 H 0.24409 0.86359 0.56855 0.0
H677 H 0.22046 0.847 0.60202 0.0
C678 C 0.7055 0.78488 0.25715 0.0
C679 C 0.73813 0.77199 0.25652 0.0
C680 C 0.68457 0.78576 0.23146 0.0
C681 C 0.69622 0.77308 0.20461 0.0
C682 C 0.72918 0.76017 0.20369 0.0
C683 C 0.74989 0.75997 0.22956 0.0
C684 C 0.64973 0.79998 0.2332 0.0
C685 C 0.74232 0.74625 0.17552 0.0
C686 C 0.62354 0.75307 0.15103 0.0
C687 C 0.62826 0.77355 0.12792 0.0
C688 C 0.64597 0.75238 0.17577 0.0
C689 C 0.67346 0.77289 0.17774 0.0
C690 C 0.67859 0.79352 0.15446 0.0
C691 C 0.65612 0.79349 0.12972 0.0
C692 C 0.63991 0.7299 0.20004 0.0
C693 C 0.70744 0.81585 0.15593 0.0
H694 H 0.69588 0.79388 0.27799 0.0
H695 H 0.77535 0.75038 0.22863 0.0
H696 H 0.64987 0.81533 0.21409 0.0
H697 H 0.6265 0.78549 0.23062 0.0
H698 H 0.64534 0.80988 0.25527 0.0
H699 H 0.76864 0.73723 0.17846 0.0
H700 H 0.72205 0.73021 0.17027 0.0
H701 H 0.74536 0.76061 0.15535 0.0
H702 H 0.60177 0.73781 0.15018 0.0
H703 H 0.66044 0.80913 0.11173 0.0
H704 H 0.63192 0.73809 0.22247 0.0
H705 H 0.66538 0.71973 0.20287 0.0
H706 H 0.61855 0.7148 0.19435 0.0
H707 H 0.70259 0.82686 0.17715 0.0
H708 H 0.70812 0.83029 0.13583 0.0
H709 H 0.73441 0.80751 0.15702 0.0
C710 C 0.77832 0.22779 0.69046 0.0
C711 C 0.79187 0.22685 0.71972 0.0
C712 C 0.77994 0.20574 0.67183 0.0
C713 C 0.79601 0.18244 0.68261 0.0
C714 C 0.81028 0.18159 0.71198 0.0
C715 C 0.80775 0.20378 0.73032 0.0
C716 C 0.76394 0.20723 0.64084 0.0
C717 C 0.82813 0.15726 0.72402 0.0
C718 C 0.76934 0.11688 0.64745 0.0
C719 C 0.79799 0.11459 0.62544 0.0
C720 C 0.76847 0.13879 0.66632 0.0
C721 C 0.79717 0.15875 0.66338 0.0
C722 C 0.82655 0.15632 0.64169 0.0
C723 C 0.82652 0.13434 0.62286 0.0
C724 C 0.7366 0.14075 0.68912 0.0
C725 C 0.85777 0.17713 0.63809 0.0
H726 H 0.76579 0.24561 0.68243 0.0
H727 H 0.8185 0.20322 0.75288 0.0
H728 H 0.78488 0.20373 0.62249 0.0
H729 H 0.74208 0.19127 0.6399 0.0
H730 H 0.75261 0.22687 0.63581 0.0
H731 H 0.83887 0.16015 0.74693 0.0
H732 H 0.80842 0.13969 0.72584 0.0
H733 H 0.85072 0.15248 0.70776 0.0
H734 H 0.74751 0.10148 0.64999 0.0
H735 H 0.84853 0.13293 0.60566 0.0
H736 H 0.72287 0.15941 0.68413 0.0
H737 H 0.74602 0.14178 0.7127 0.0
H738 H 0.71653 0.12348 0.68861 0.0
H739 H 0.84794 0.19669 0.63049 0.0
H740 H 0.87932 0.17167 0.62115 0.0
H741 H 0.86976 0.17986 0.66051 0.0
C742 C 0.35209 0.24303 0.26011 0.0
C743 C 0.32283 0.25973 0.26092 0.0
C744 C 0.37522 0.24196 0.2336 0.0
C745 C 0.37073 0.25935 0.2079 0.0
C746 C 0.34286 0.27743 0.20909 0.0
C747 C 0.31861 0.27677 0.23503 0.0
C748 C 0.40372 0.2216 0.23277 0.0
C749 C 0.33819 0.29725 0.18274 0.0
C750 C 0.45038 0.2706 0.14907 0.0
C751 C 0.43804 0.25631 0.12447 0.0
C752 C 0.42847 0.27226 0.17615 0.0
C753 C 0.3943 0.25801 0.17932 0.0
C754 C 0.38216 0.24294 0.15482 0.0
C755 C 0.40363 0.24311 0.12727 0.0
C756 C 0.44145 0.28989 0.20093 0.0
C757 C 0.34659 0.22653 0.15771 0.0
H758 H 0.35697 0.23041 0.27998 0.0
H759 H 0.29594 0.2894 0.2345 0.0
H760 H 0.40022 0.20876 0.21295 0.0
H761 H 0.43107 0.23179 0.22955 0.0
H762 H 0.40249 0.20857 0.2541 0.0
H763 H 0.31913 0.31266 0.18922 0.0
H764 H 0.36461 0.30746 0.17472 0.0
H765 H 0.32757 0.28662 0.16312 0.0
H766 H 0.47689 0.28103 0.14675 0.0
H767 H 0.39369 0.23263 0.10797 0.0
H768 H 0.4441 0.27777 0.22243 0.0
H769 H 0.42129 0.30487 0.20608 0.0
H770 H 0.46795 0.30063 0.19422 0.0
H771 H 0.3446 0.2138 0.17926 0.0
H772 H 0.34323 0.21348 0.13804 0.0
H773 H 0.32384 0.23993 0.15885 0.0
C774 C 0.80846 0.71642 0.70268 0.0
C775 C 0.81297 0.73004 0.72965 0.0
C776 C 0.82806 0.69391 0.69642 0.0
C777 C 0.85324 0.68533 0.71735 0.0
C778 C 0.85839 0.69946 0.7443 0.0
C779 C 0.83786 0.72149 0.75028 0.0
C780 C 0.82129 0.67901 0.66782 0.0
C781 C 0.88546 0.69124 0.7669 0.0
C782 C 0.88155 0.61394 0.72324 0.0
C783 C 0.91572 0.61628 0.70761 0.0
C784 C 0.86007 0.636 0.72518 0.0
C785 C 0.87356 0.6611 0.71178 0.0
C786 C 0.90764 0.66334 0.69513 0.0
C787 C 0.92823 0.64075 0.69299 0.0
C788 C 0.82357 0.63266 0.74257 0.0
C789 C 0.92319 0.68985 0.68097 0.0
H790 H 0.78901 0.72306 0.68684 0.0
H791 H 0.8415 0.73226 0.77098 0.0
H792 H 0.84691 0.67801 0.6536 0.0
H793 H 0.81124 0.65812 0.67427 0.0
H794 H 0.8012 0.68852 0.65367 0.0
H795 H 0.88748 0.70518 0.7859 0.0
H796 H 0.87761 0.67088 0.77693 0.0
H797 H 0.91261 0.69047 0.75496 0.0
H798 H 0.87194 0.5949 0.73441 0.0
H799 H 0.95485 0.64251 0.68116 0.0
H800 H 0.80252 0.64111 0.72863 0.0
H801 H 0.82423 0.64381 0.76394 0.0
H802 H 0.81552 0.61134 0.74887 0.0
H803 H 0.90347 0.69906 0.66624 0.0
H804 H 0.94879 0.68783 0.66696 0.0
H805 H 0.92865 0.70381 0.69941 0.0
C806 C 0.84683 0.32673 0.30985 0.0
C807 C 0.82849 0.31222 0.33482 0.0
C808 C 0.86726 0.35054 0.31403 0.0
C809 C 0.86948 0.36008 0.34393 0.0
C810 C 0.85125 0.34547 0.36929 0.0
C811 C 0.83096 0.32168 0.36443 0.0
C812 C 0.88647 0.36551 0.28642 0.0
C813 C 0.85297 0.35509 0.40148 0.0
C814 C 0.94869 0.40932 0.35484 0.0
C815 C 0.93254 0.43372 0.35164 0.0
C816 C 0.92822 0.38507 0.35332 0.0
C817 C 0.89082 0.38545 0.34844 0.0
C818 C 0.8743 0.4102 0.34607 0.0
C819 C 0.89549 0.43414 0.34765 0.0
C820 C 0.94681 0.35911 0.35591 0.0
C821 C 0.83455 0.41142 0.34089 0.0
H822 H 0.84548 0.31929 0.28698 0.0
H823 H 0.81655 0.31068 0.38377 0.0
H824 H 0.87688 0.38603 0.2842 0.0
H825 H 0.91597 0.3675 0.28944 0.0
H826 H 0.88202 0.35537 0.26472 0.0
H827 H 0.83764 0.34123 0.41877 0.0
H828 H 0.88153 0.35725 0.40768 0.0
H829 H 0.84183 0.37512 0.4027 0.0
H830 H 0.97751 0.4093 0.35781 0.0
H831 H 0.88335 0.45322 0.3451 0.0
H832 H 0.94588 0.3489 0.33391 0.0
H833 H 0.93248 0.34549 0.37394 0.0
H834 H 0.97554 0.36224 0.36148 0.0
H835 H 0.82896 0.40346 0.31822 0.0
H836 H 0.82546 0.43214 0.3415 0.0
H837 H 0.81818 0.39869 0.3586 0.0
C838 C 0.183 0.30614 0.74311 0.0
C839 C 0.22081 0.30849 0.73966 0.0
C840 C 0.16259 0.32872 0.73985 0.0
C841 C 0.18049 0.35408 0.73224 0.0
C842 C 0.2187 0.35636 0.72786 0.0
C843 C 0.23845 0.33355 0.73202 0.0
C844 C 0.12197 0.32556 0.74535 0.0
C845 C 0.23872 0.38291 0.71903 0.0
C846 C 0.1244 0.40862 0.69992 0.0
C847 C 0.11831 0.42413 0.72556 0.0
C848 C 0.14509 0.38605 0.7016 0.0
C849 C 0.15933 0.37835 0.72979 0.0
C850 C 0.15322 0.39376 0.75578 0.0
C851 C 0.13324 0.41661 0.75325 0.0
C852 C 0.15158 0.37039 0.67324 0.0
C853 C 0.16757 0.38599 0.78637 0.0
H854 H 0.16949 0.28672 0.74925 0.0
H855 H 0.26774 0.33524 0.72919 0.0
H856 H 0.11322 0.33781 0.76469 0.0
H857 H 0.10872 0.33298 0.72478 0.0
H858 H 0.11221 0.30443 0.75081 0.0
H859 H 0.26826 0.381 0.71481 0.0
H860 H 0.22798 0.39185 0.69798 0.0
H861 H 0.23442 0.39705 0.73755 0.0
H862 H 0.11258 0.41384 0.67854 0.0
H863 H 0.12949 0.42865 0.77306 0.0
H864 H 0.13929 0.34974 0.67717 0.0
H865 H 0.18105 0.3688 0.66827 0.0
H866 H 0.14007 0.37972 0.65273 0.0
H867 H 0.15739 0.36532 0.79377 0.0
H868 H 0.15957 0.39967 0.80459 0.0
H869 H 0.19752 0.38615 0.78419 0.0
C870 C 0.21195 0.70115 0.34763 0.0
C871 C 0.21877 0.71072 0.31704 0.0
C872 C 0.19163 0.67695 0.35484 0.0
C873 C 0.17778 0.66207 0.33088 0.0
C874 C 0.18483 0.67153 0.29996 0.0
C875 C 0.20523 0.69573 0.29343 0.0
C876 C 0.18478 0.6674 0.38805 0.0
C877 C 0.17039 0.65626 0.27378 0.0
C878 C 0.14957 0.58816 0.34264 0.0
C879 C 0.11193 0.58888 0.34567 0.0
C880 C 0.17155 0.61195 0.33885 0.0
C881 C 0.15525 0.63684 0.33797 0.0
C882 C 0.11713 0.63752 0.34196 0.0
C883 C 0.09587 0.61342 0.34574 0.0
C884 C 0.21205 0.61042 0.33471 0.0
C885 C 0.09875 0.66363 0.34114 0.0
H886 H 0.22269 0.71253 0.36594 0.0
H887 H 0.21 0.70321 0.26978 0.0
H888 H 0.15527 0.66577 0.39423 0.0
H889 H 0.19489 0.64715 0.39159 0.0
H890 H 0.19804 0.68105 0.40392 0.0
H891 H 0.17895 0.66607 0.251 0.0
H892 H 0.17988 0.63566 0.27451 0.0
H893 H 0.1404 0.65449 0.27613 0.0
H894 H 0.16166 0.56897 0.34248 0.0
H895 H 0.06662 0.61368 0.34797 0.0
H896 H 0.2257 0.62333 0.35106 0.0
H897 H 0.22158 0.61798 0.31119 0.0
H898 H 0.22055 0.58966 0.33821 0.0
H899 H 0.11036 0.67726 0.35783 0.0
H900 H 0.06909 0.66074 0.3465 0.0
H901 H 0.10354 0.6737 0.31801 0.0
C902 C 0.81088 0.83182 0.68811 0.0
C903 C 0.77702 0.82229 0.70153 0.0
C904 C 0.81452 0.85532 0.66923 0.0
C905 C 0.7836 0.86967 0.66375 0.0
C906 C 0.74928 0.85997 0.67684 0.0
C907 C 0.74639 0.83636 0.69552 0.0
C908 C 0.85155 0.86504 0.65559 0.0
C909 C 0.71568 0.87473 0.67145 0.0
C910 C 0.79631 0.94376 0.64122 0.0
C911 C 0.79239 0.94364 0.6096 0.0
C912 C 0.79377 0.91974 0.65914 0.0
C913 C 0.78722 0.8952 0.64491 0.0
C914 C 0.78358 0.89511 0.6128 0.0
C915 C 0.78614 0.91946 0.59549 0.0
C916 C 0.7977 0.92062 0.6933 0.0
C917 C 0.77672 0.86937 0.59682 0.0
H918 H 0.83473 0.82125 0.69297 0.0
H919 H 0.72009 0.82889 0.70545 0.0
H920 H 0.85113 0.86768 0.63026 0.0
H921 H 0.85929 0.88485 0.6644 0.0
H922 H 0.87263 0.85101 0.6611 0.0
H923 H 0.69093 0.86426 0.68286 0.0
H924 H 0.71864 0.89512 0.68027 0.0
H925 H 0.71198 0.87707 0.64648 0.0
H926 H 0.80104 0.96269 0.65186 0.0
H927 H 0.78308 0.91969 0.57094 0.0
H928 H 0.82005 0.90826 0.70007 0.0
H929 H 0.77257 0.91202 0.70591 0.0
H930 H 0.80325 0.94131 0.70067 0.0
H931 H 0.79849 0.85565 0.60116 0.0
H932 H 0.77536 0.87277 0.57161 0.0
H933 H 0.75088 0.85912 0.60621 0.0
C934 C 0.74507 0.24117 0.25183 0.0
C935 C 0.74119 0.26118 0.27299 0.0
C936 C 0.72377 0.2401 0.22637 0.0
C937 C 0.69759 0.25923 0.22237 0.0
C938 C 0.6933 0.2793 0.24392 0.0
C939 C 0.71542 0.28017 0.26887 0.0
C940 C 0.72953 0.2187 0.2036 0.0
C941 C 0.66526 0.29976 0.24069 0.0
C942 C 0.66396 0.27302 0.14314 0.0
C943 C 0.63131 0.2574 0.1448 0.0
C944 C 0.68607 0.27351 0.1681 0.0
C945 C 0.67485 0.25839 0.1955 0.0
C946 C 0.6418 0.24265 0.19731 0.0
C947 C 0.62056 0.24215 0.17178 0.0
C948 C 0.72144 0.29016 0.16514 0.0
C949 C 0.62866 0.22663 0.22632 0.0
H950 H 0.76526 0.22664 0.25494 0.0
H951 H 0.71228 0.2955 0.28543 0.0
H952 H 0.70413 0.20617 0.20207 0.0
H953 H 0.73678 0.22809 0.18041 0.0
H954 H 0.75125 0.20549 0.20991 0.0
H955 H 0.66477 0.31362 0.25986 0.0
H956 H 0.67075 0.31171 0.21876 0.0
H957 H 0.63801 0.28953 0.23997 0.0
H958 H 0.67235 0.28464 0.12214 0.0
H959 H 0.5951 0.23027 0.17311 0.0
H960 H 0.74413 0.27737 0.16979 0.0
H961 H 0.72132 0.30572 0.18243 0.0
H962 H 0.72669 0.30014 0.14195 0.0
H963 H 0.64876 0.21205 0.23244 0.0
H964 H 0.60222 0.21557 0.22401 0.0
H965 H 0.62581 0.24014 0.24567 0.0
C966 C 0.2845 0.20828 0.6967 0.0
C967 C 0.25408 0.21658 0.7134 0.0
C968 C 0.28171 0.18646 0.67776 0.0
C969 C 0.24783 0.17225 0.67612 0.0
C970 C 0.21709 0.18038 0.6933 0.0
C971 C 0.22051 0.20273 0.71147 0.0
C972 C 0.31491 0.17883 0.65924 0.0
C973 C 0.18071 0.16536 0.69268 0.0
C974 C 0.23248 0.13073 0.60682 0.0
C975 C 0.24048 0.10525 0.61791 0.0
C976 C 0.23488 0.15276 0.6255 0.0
C977 C 0.2446 0.14899 0.65621 0.0
C978 C 0.25201 0.12311 0.66765 0.0
C979 C 0.25036 0.10157 0.64818 0.0
C980 C 0.22767 0.18013 0.61221 0.0
C981 C 0.26164 0.11819 0.70045 0.0
H982 H 0.31039 0.21921 0.69809 0.0
H983 H 0.19708 0.20914 0.72458 0.0
H984 H 0.32118 0.15805 0.66581 0.0
H985 H 0.30975 0.1794 0.63445 0.0
H986 H 0.33901 0.19234 0.66258 0.0
H987 H 0.15977 0.17378 0.70808 0.0
H988 H 0.17149 0.16596 0.66897 0.0
H989 H 0.18301 0.14402 0.69975 0.0
H990 H 0.22506 0.13346 0.58329 0.0
H991 H 0.25631 0.08175 0.65667 0.0
H992 H 0.25189 0.19396 0.6137 0.0
H993 H 0.20507 0.18851 0.6257 0.0
H994 H 0.22076 0.17967 0.58783 0.0
H995 H 0.28723 0.12966 0.70451 0.0
H996 H 0.26493 0.09668 0.70616 0.0
H997 H 0.24027 0.12533 0.71642 0.0
C998 C 0.33955 0.78585 0.2467 0.0
C999 C 0.31024 0.76661 0.24868 0.0
C1000 C 0.36314 0.7892 0.22026 0.0
C1001 C 0.35869 0.77197 0.19579 0.0
C1002 C 0.33005 0.75199 0.1979 0.0
C1003 C 0.30566 0.75008 0.2238 0.0
C1004 C 0.39256 0.81143 0.21836 0.0
C1005 C 0.32513 0.73254 0.17279 0.0
C1006 C 0.3966 0.79026 0.11442 0.0
C1007 C 0.42955 0.7779 0.1137 0.0
C1008 C 0.37411 0.78959 0.14146 0.0
C1009 C 0.3838 0.77483 0.16783 0.0
C1010 C 0.41679 0.76191 0.16703 0.0
C1011 C 0.43969 0.76418 0.14018 0.0
C1012 C 0.33991 0.80456 0.14174 0.0
C1013 C 0.4273 0.74492 0.19411 0.0
H1014 H 0.34433 0.79839 0.26576 0.0
H1015 H 0.28278 0.73565 0.22423 0.0
H1016 H 0.41951 0.80292 0.21711 0.0
H1017 H 0.39076 0.82415 0.19712 0.0
H1018 H 0.39084 0.82428 0.23842 0.0
H1019 H 0.30376 0.71653 0.17932 0.0
H1020 H 0.31766 0.74332 0.15159 0.0
H1021 H 0.35088 0.72306 0.16719 0.0
H1022 H 0.38852 0.80051 0.09378 0.0
H1023 H 0.46513 0.75453 0.13952 0.0
H1024 H 0.33821 0.81721 0.16196 0.0
H1025 H 0.31596 0.79018 0.14372 0.0
H1026 H 0.33846 0.81751 0.1206 0.0
H1027 H 0.4292 0.75708 0.2146 0.0
H1028 H 0.4536 0.73583 0.18953 0.0
H1029 H 0.40612 0.72863 0.19984 0.0
C1030 C 0.82461 0.20816 0.37342 0.0
C1031 C 0.79108 0.21619 0.36436 0.0
C1032 C 0.82691 0.18491 0.39216 0.0
C1033 C 0.79492 0.16941 0.40207 0.0
C1034 C 0.76098 0.17758 0.39326 0.0
C1035 C 0.75948 0.20087 0.3745 0.0
C1036 C 0.86358 0.17677 0.40105 0.0
C1037 C 0.72626 0.16165 0.40354 0.0
C1038 C 0.80067 0.09613 0.42599 0.0
C1039 C 0.79799 0.09702 0.45797 0.0
C1040 C 0.80014 0.11965 0.40745 0.0
C1041 C 0.79686 0.14447 0.42141 0.0
C1042 C 0.7945 0.14534 0.45385 0.0
C1043 C 0.79505 0.12148 0.47179 0.0
C1044 C 0.80265 0.11794 0.37296 0.0
C1045 C 0.791 0.17139 0.46955 0.0
H1046 H 0.84913 0.2198 0.36536 0.0
H1047 H 0.73347 0.20721 0.36789 0.0
H1048 H 0.8642 0.17501 0.42643 0.0
H1049 H 0.86879 0.15681 0.39229 0.0
H1050 H 0.88578 0.19127 0.39189 0.0
H1051 H 0.70206 0.17088 0.39492 0.0
H1052 H 0.72705 0.14106 0.39527 0.0
H1053 H 0.72326 0.15989 0.42899 0.0
H1054 H 0.8029 0.07699 0.4156 0.0
H1055 H 0.79297 0.12185 0.49665 0.0
H1056 H 0.82587 0.13097 0.36278 0.0
H1057 H 0.77784 0.12528 0.36332 0.0
H1058 H 0.80598 0.09719 0.36578 0.0
H1059 H 0.81396 0.1857 0.46176 0.0
H1060 H 0.79038 0.16866 0.49497 0.0
H1061 H 0.76582 0.18059 0.46319 0.0
C1062 C 0.30302 0.27433 0.82695 0.0
C1063 C 0.31223 0.26224 0.79937 0.0
C1064 C 0.32586 0.27389 0.85142 0.0
C1065 C 0.35837 0.26052 0.84861 0.0
C1066 C 0.36782 0.24813 0.821 0.0
C1067 C 0.34486 0.24939 0.79661 0.0
C1068 C 0.31509 0.28767 0.88036 0.0
C1069 C 0.40207 0.23337 0.8173 0.0
C1070 C 0.43265 0.27847 0.90165 0.0
C1071 C 0.42683 0.25831 0.92509 0.0
C1072 C 0.41056 0.27945 0.87668 0.0
C1073 C 0.38241 0.25946 0.87466 0.0
C1074 C 0.37678 0.23875 0.89784 0.0
C1075 C 0.39879 0.23858 0.9229 0.0
C1076 C 0.41711 0.30205 0.8526 0.0
C1077 C 0.34731 0.21687 0.89627 0.0
H1078 H 0.27761 0.28385 0.82967 0.0
H1079 H 0.35261 0.24035 0.7753 0.0
H1080 H 0.31145 0.27283 0.90007 0.0
H1081 H 0.33686 0.30256 0.88565 0.0
H1082 H 0.28958 0.29804 0.87845 0.0
H1083 H 0.40515 0.22433 0.79458 0.0
H1084 H 0.42596 0.24722 0.81995 0.0
H1085 H 0.40212 0.21725 0.83554 0.0
H1086 H 0.45465 0.2935 0.90266 0.0
H1087 H 0.39361 0.22313 0.94102 0.0
H1088 H 0.39238 0.31336 0.85104 0.0
H1089 H 0.42309 0.29393 0.82976 0.0
H1090 H 0.43993 0.31616 0.85768 0.0
H1091 H 0.32048 0.2256 0.89716 0.0
H1092 H 0.34757 0.20151 0.91537 0.0
H1093 H 0.35044 0.2069 0.87416 0.0
C1094 C 0.23759 0.80341 0.37049 0.0
C1095 C 0.24474 0.80729 0.33859 0.0
C1096 C 0.2328 0.82509 0.38926 0.0
C1097 C 0.23651 0.85146 0.37606 0.0
C1098 C 0.24343 0.85563 0.34394 0.0
C1099 C 0.24684 0.83351 0.32555 0.0
C1100 C 0.22458 0.81978 0.42335 0.0
C1101 C 0.24835 0.88349 0.3291 0.0
C1102 C 0.20174 0.909 0.42111 0.0
C1103 C 0.23303 0.91846 0.43483 0.0
C1104 C 0.2023 0.88701 0.40223 0.0
C1105 C 0.23516 0.87467 0.39611 0.0
C1106 C 0.26691 0.88426 0.40947 0.0
C1107 C 0.26531 0.90563 0.42906 0.0
C1108 C 0.16767 0.87685 0.38904 0.0
C1109 C 0.30267 0.87195 0.40307 0.0
H1110 H 0.2365 0.7834 0.38107 0.0
H1111 H 0.25141 0.83688 0.30093 0.0
H1112 H 0.24789 0.82715 0.43605 0.0
H1113 H 0.20087 0.83076 0.43125 0.0
H1114 H 0.21892 0.79815 0.42952 0.0
H1115 H 0.25315 0.88333 0.30375 0.0
H1116 H 0.22412 0.89481 0.33441 0.0
H1117 H 0.27169 0.89446 0.33858 0.0
H1118 H 0.17674 0.91885 0.42487 0.0
H1119 H 0.2895 0.91208 0.44007 0.0
H1120 H 0.16193 0.85537 0.39589 0.0
H1121 H 0.17058 0.87844 0.3636 0.0
H1122 H 0.14413 0.8881 0.39682 0.0
H1123 H 0.30091 0.85081 0.41192 0.0
H1124 H 0.32527 0.88277 0.41382 0.0
H1125 H 0.30918 0.87198 0.37793 0.0
C1126 C 0.70529 0.7528 0.81018 0.0
C1127 C 0.72743 0.77553 0.80026 0.0
C1128 C 0.68274 0.75264 0.83716 0.0
C1129 C 0.68228 0.77578 0.8546 0.0
C1130 C 0.70479 0.7987 0.84488 0.0
C1131 C 0.72712 0.79829 0.81785 0.0
C1132 C 0.65906 0.72783 0.84678 0.0
C1133 C 0.70509 0.82373 0.86293 0.0
C1134 C 0.59922 0.78471 0.90738 0.0
C1135 C 0.61111 0.77653 0.9359 0.0
C1136 C 0.62218 0.78464 0.88069 0.0
C1137 C 0.65777 0.77616 0.88276 0.0
C1138 C 0.66986 0.76798 0.91168 0.0
C1139 C 0.64631 0.76832 0.93801 0.0
C1140 C 0.60834 0.79357 0.8503 0.0
C1141 C 0.70758 0.75878 0.91478 0.0
H1142 H 0.70507 0.73527 0.7965 0.0
H1143 H 0.74456 0.81578 0.81054 0.0
H1144 H 0.66464 0.72083 0.87039 0.0
H1145 H 0.63017 0.73253 0.8472 0.0
H1146 H 0.66329 0.71127 0.83111 0.0
H1147 H 0.72443 0.83976 0.85242 0.0
H1148 H 0.67764 0.83147 0.86445 0.0
H1149 H 0.71246 0.81906 0.88675 0.0
H1150 H 0.57187 0.79106 0.90603 0.0
H1151 H 0.65527 0.76211 0.96026 0.0
H1152 H 0.60953 0.77712 0.83416 0.0
H1153 H 0.62581 0.81067 0.83982 0.0
H1154 H 0.58005 0.79972 0.8527 0.0
H1155 H 0.71177 0.74126 0.9006 0.0
H1156 H 0.71278 0.75316 0.93895 0.0
H1157 H 0.72785 0.77488 0.9061 0.0
loop_
_geom_bond_atom_site_label_1
_geom_bond_atom_site_label_2
_geom_bond_distance
_geom_bond_site_symmetry_2
_ccdc_geom_bond_type
H0 C3 0.931 . S
H1 C6 0.928 . S
H2 C8 0.930 . S
C3 H0 0.931 . S
C3 C4 1.413 . S
C3 C5 1.360 . S
C4 C3 1.413 . S
C4 C8 1.429 . S
C5 C3 1.360 . S
C5 C6 1.372 . S
C6 H1 0.928 . S
C6 C5 1.372 . S
C6 C7 1.404 . S
C7 C6 1.404 . S
C7 C8 1.391 . S
C8 H2 0.930 . S
C8 C4 1.429 . S
C8 C7 1.391 . S
H9 C12 0.931 . S
H10 C15 0.928 . S
H11 C17 0.930 . S
C12 H9 0.931 . S
C12 C13 1.413 . S
C12 C14 1.360 . S
C13 C12 1.413 . S
C13 C17 1.429 . S
C14 C12 1.360 . S
C14 C15 1.372 . S
C15 H10 0.928 . S
C15 C14 1.372 . S
C15 C16 1.404 . S
C16 C15 1.404 . S
C16 C17 1.391 . S
C17 H11 0.930 . S
C17 C13 1.429 . S
C17 C16 1.391 . S
H18 C21 0.931 . S
H19 C24 0.928 . S
H20 C26 0.930 . S
C21 H18 0.931 . S
C21 C22 1.413 . S
C21 C23 1.360 . S
C22 C21 1.413 . S
C22 C26 1.429 . S
C23 C21 1.360 . S
C23 C24 1.372 . S
C24 H19 0.928 . S
C24 C23 1.372 . S
C24 C25 1.404 . S
C25 C24 1.404 . S
C25 C26 1.391 . S
C26 H20 0.930 . S
C26 C22 1.429 . S
C26 C25 1.391 . S
H27 C30 0.931 . S
H28 C33 0.928 . S
H29 C35 0.930 . S
C30 H27 0.931 . S
C30 C31 1.413 . S
C30 C32 1.360 . S
C31 C30 1.413 . S
C31 C35 1.429 . S
C32 C30 1.360 . S
C32 C33 1.372 . S
C33 H28 0.928 . S
C33 C32 1.372 . S
C33 C34 1.404 . S
C34 C33 1.404 . S
C34 C35 1.391 . S
C35 H29 0.930 . S
C35 C31 1.429 . S
C35 C34 1.391 . S
H36 C39 0.931 . S
H37 C42 0.928 . S
H38 C44 0.930 . S
C39 H36 0.931 . S
C39 C40 1.413 . S
C39 C41 1.360 . S
C40 C39 1.413 . S
C40 C44 1.429 . S
C41 C39 1.360 . S
C41 C42 1.372 . S
C42 H37 0.928 . S
C42 C41 1.372 . S
C42 C43 1.404 . S
C43 C42 1.404 . S
C43 C44 1.391 . S
C44 H38 0.930 . S
C44 C40 1.429 . S
C44 C43 1.391 . S
H45 C48 0.931 . S
H46 C51 0.928 . S
H47 C53 0.930 . S
C48 H45 0.931 . S
C48 C49 1.413 . S
C48 C50 1.360 . S
C49 C48 1.413 . S
C49 C53 1.429 . S
C50 C48 1.360 . S
C50 C51 1.372 . S
C51 H46 0.928 . S
C51 C50 1.372 . S
C51 C52 1.404 . S
C52 C51 1.404 . S
C52 C53 1.391 . S
C53 H47 0.930 . S
C53 C49 1.429 . S
C53 C52 1.391 . S
H54 C57 0.931 . S
H55 C60 0.928 . S
H56 C62 0.930 . S
C57 H54 0.931 . S
C57 C58 1.413 . S
C57 C59 1.360 . S
C58 C57 1.413 . S
C58 C62 1.429 . S
C59 C57 1.360 . S
C59 C60 1.372 . S
C60 H55 0.928 . S
C60 C59 1.372 . S
C60 C61 1.404 . S
C61 C60 1.404 . S
C61 C62 1.391 . S
C62 H56 0.930 . S
C62 C58 1.429 . S
C62 C61 1.391 . S
H63 C66 0.931 . S
H64 C69 0.928 . S
H65 C71 0.930 . S
C66 H63 0.931 . S
C66 C67 1.413 . S
C66 C68 1.360 . S
C67 C66 1.413 . S
C67 C71 1.429 . S
C68 C66 1.360 . S
C68 C69 1.372 . S
C69 H64 0.928 . S
C69 C68 1.372 . S
C69 C70 1.404 . S
C70 C69 1.404 . S
C70 C71 1.391 . S
C71 H65 0.930 . S
C71 C67 1.429 . S
C71 C70 1.391 . S
C72 C73 1.443 . S
C72 N76 1.376 . S
C72 C110 1.389 . S
C73 C72 1.443 . S
C73 C74 1.340 . S
C73 H113 0.951 . S
C74 C73 1.340 . S
C74 C75 1.439 . S
C74 H114 0.950 . S
C75 C74 1.439 . S
C75 N76 1.374 . S
C75 C109 1.395 . S
N76 C72 1.376 . S
N76 C75 1.374 . S
N76 Co77 2.008 . S
Co77 N76 2.008 . S
Co77 N78 1.995 1_455 S
Co77 N83 2.008 . S
Co77 N88 1.995 . S
Co77 N93 2.282 . S
Co77 N99 2.282 1_455 S
N78 Co77 1.995 1_655 S
N78 C79 1.376 . S
N78 C82 1.383 . S
C79 N78 1.376 . S
C79 C80 1.446 . S
C79 C109 1.391 1_655 S
C80 C79 1.446 . S
C80 C81 1.339 . S
C80 H115 0.949 . S
C81 C80 1.339 . S
C81 C82 1.439 . S
C81 H116 0.950 . S
C82 N78 1.383 . S
C82 C81 1.439 . S
C82 C111 1.392 . S
N83 Co77 2.008 . S
N83 C84 1.376 1_455 S
N83 C87 1.374 . S
C84 N83 1.376 1_655 S
C84 C85 1.443 . S
C84 C111 1.389 . S
C85 C84 1.443 . S
C85 C86 1.340 . S
C85 H117 0.951 . S
C86 C85 1.340 . S
C86 C87 1.439 1_655 S
C86 H118 0.950 . S
C87 N83 1.374 . S
C87 C86 1.439 1_455 S
C87 C112 1.395 . S
N88 Co77 1.995 . S
N88 C89 1.376 . S
N88 C92 1.383 . S
C89 N88 1.376 . S
C89 C90 1.446 . S
C89 C112 1.391 . S
C90 C89 1.446 . S
C90 C91 1.339 . S
C90 H119 0.949 . S
C91 C90 1.339 . S
C91 C92 1.439 . S
C91 H120 0.950 . S
C92 N88 1.383 . S
C92 C91 1.439 . S
C92 C110 1.392 . S
N93 Co77 2.282 . S
N93 C96 1.332 . S
N93 C98 1.332 . S
C94 C95 1.386 . S
C94 C97 1.388 . S
C95 C94 1.386 . S
C95 C96 1.382 . S
C95 H121 0.950 . S
C96 N93 1.332 . S
C96 C95 1.382 . S
C96 H107 0.952 . S
C97 C94 1.388 . S
C97 C98 1.382 . S
C97 H122 0.950 . S
C98 N93 1.332 . S
C98 C97 1.382 . S
C98 H108 0.948 . S
N99 Co77 2.282 1_655 S
N99 C103 1.332 . S
N99 C104 1.332 . S
C100 C101 1.388 . S
C100 C104 1.382 . S
C100 H123 0.950 . S
C101 C100 1.388 . S
C101 C102 1.386 . S
C102 C101 1.386 . S
C102 C103 1.382 . S
C102 H124 0.950 . S
C103 N99 1.332 . S
C103 C102 1.382 . S
C103 H105 0.952 . S
C104 N99 1.332 . S
C104 C100 1.382 . S
C104 H106 0.948 . S
H105 C103 0.952 . S
H106 C104 0.948 . S
H107 C96 0.952 . S
H108 C98 0.948 . S
C109 C75 1.395 . S
C109 C79 1.391 1_455 S
C110 C72 1.389 . S
C110 C92 1.392 . S
C111 C82 1.392 . S
C111 C84 1.389 . S
C112 C87 1.395 . S
C112 C89 1.391 . S
H113 C73 0.951 . S
H114 C74 0.950 . S
H115 C80 0.949 . S
H116 C81 0.950 . S
H117 C85 0.951 . S
H118 C86 0.950 . S
H119 C90 0.949 . S
H120 C91 0.950 . S
H121 C95 0.950 . S
H122 C97 0.950 . S
H123 C100 0.950 . S
H124 C102 0.950 . S
C125 C126 1.443 . S
C125 N129 1.376 . S
C125 C163 1.389 . S
C126 C125 1.443 . S
C126 C127 1.340 . S
C126 H166 0.951 . S
C127 C126 1.340 . S
C127 C128 1.439 . S
C127 H167 0.950 . S
C128 C127 1.439 . S
C128 N129 1.374 . S
C128 C162 1.395 . S
N129 C125 1.376 . S
N129 C128 1.374 . S
N129 Co130 2.008 . S
Co130 N129 2.008 . S
Co130 N131 1.995 1_455 S
Co130 N136 2.008 1_455 S
Co130 N141 1.995 . S
Co130 N146 2.282 . S
Co130 N152 2.282 1_455 S
N131 Co130 1.995 1_655 S
N131 C132 1.376 . S
N131 C135 1.383 . S
C132 N131 1.376 . S
C132 C133 1.446 . S
C132 C162 1.391 1_655 S
C133 C132 1.446 . S
C133 C134 1.339 . S
C133 H168 0.949 . S
C134 C133 1.339 . S
C134 C135 1.439 . S
C134 H169 0.950 . S
C135 N131 1.383 . S
C135 C134 1.439 . S
C135 C164 1.392 . S
N136 Co130 2.008 1_655 S
N136 C137 1.376 . S
N136 C140 1.374 1_655 S
C137 N136 1.376 . S
C137 C138 1.443 . S
C137 C164 1.389 . S
C138 C137 1.443 . S
C138 C139 1.340 . S
C138 H170 0.951 . S
C139 C138 1.340 . S
C139 C140 1.439 1_655 S
C139 H171 0.950 . S
C140 N136 1.374 1_455 S
C140 C139 1.439 1_455 S
C140 C165 1.395 . S
N141 Co130 1.995 . S
N141 C142 1.376 . S
N141 C145 1.383 . S
C142 N141 1.376 . S
C142 C143 1.446 . S
C142 C165 1.391 . S
C143 C142 1.446 . S
C143 C144 1.339 . S
C143 H172 0.949 . S
C144 C143 1.339 . S
C144 C145 1.439 . S
C144 H173 0.950 . S
C145 N141 1.383 . S
C145 C144 1.439 . S
C145 C163 1.392 . S
N146 Co130 2.282 . S
N146 C149 1.332 . S
N146 C151 1.332 . S
C147 C148 1.386 . S
C147 C150 1.388 . S
C148 C147 1.386 . S
C148 C149 1.382 . S
C148 H174 0.950 . S
C149 N146 1.332 . S
C149 C148 1.382 . S
C149 H160 0.952 . S
C150 C147 1.388 . S
C150 C151 1.382 . S
C150 H175 0.950 . S
C151 N146 1.332 . S
C151 C150 1.382 . S
C151 H161 0.948 . S
N152 Co130 2.282 1_655 S
N152 C156 1.332 . S
N152 C157 1.332 . S
C153 C154 1.388 . S
C153 C157 1.382 . S
C153 H176 0.950 . S
C154 C153 1.388 . S
C154 C155 1.386 . S
C155 C154 1.386 . S
C155 C156 1.382 . S
C155 H177 0.950 . S
C156 N152 1.332 . S
C156 C155 1.382 . S
C156 H158 0.952 . S
C157 N152 1.332 . S
C157 C153 1.382 . S
C157 H159 0.948 . S
H158 C156 0.952 . S
H159 C157 0.948 . S
H160 C149 0.952 . S
H161 C151 0.948 . S
C162 C128 1.395 . S
C162 C132 1.391 1_455 S
C163 C125 1.389 . S
C163 C145 1.392 . S
C164 C135 1.392 . S
C164 C137 1.389 . S
C165 C140 1.395 . S
C165 C142 1.391 . S
H166 C126 0.951 . S
H167 C127 0.950 . S
H168 C133 0.949 . S
H169 C134 0.950 . S
H170 C138 0.951 . S
H171 C139 0.950 . S
H172 C143 0.949 . S
H173 C144 0.950 . S
H174 C148 0.950 . S
H175 C150 0.950 . S
H176 C153 0.950 . S
H177 C155 0.950 . S
C178 C179 1.443 . S
C178 N182 1.376 . S
C178 C216 1.389 . S
C179 C178 1.443 . S
C179 C180 1.340 . S
C179 H219 0.951 . S
C180 C179 1.340 . S
C180 C181 1.439 . S
C180 H220 0.950 . S
C181 C180 1.439 . S
C181 N182 1.374 . S
C181 C215 1.395 1_565 S
N182 C178 1.376 . S
N182 C181 1.374 . S
N182 Co183 2.008 1_565 S
Co183 N182 2.008 1_545 S
Co183 N184 1.995 . S
Co183 N189 2.008 . S
Co183 N194 1.995 1_545 S
Co183 N199 2.282 . S
Co183 N205 2.282 1_545 S
N184 Co183 1.995 . S
N184 C185 1.376 . S
N184 C188 1.383 . S
C185 N184 1.376 . S
C185 C186 1.446 . S
C185 C215 1.391 . S
C186 C185 1.446 . S
C186 C187 1.339 . S
C186 H221 0.949 . S
C187 C186 1.339 . S
C187 C188 1.439 . S
C187 H222 0.950 . S
C188 N184 1.383 . S
C188 C187 1.439 . S
C188 C217 1.392 . S
N189 Co183 2.008 . S
N189 C190 1.376 . S
N189 C193 1.374 . S
C190 N189 1.376 . S
C190 C191 1.443 . S
C190 C217 1.389 . S
C191 C190 1.443 . S
C191 C192 1.340 . S
C191 H223 0.951 . S
C192 C191 1.340 . S
C192 C193 1.439 . S
C192 H224 0.950 . S
C193 N189 1.374 . S
C193 C192 1.439 . S
C193 C218 1.395 . S
N194 Co183 1.995 1_565 S
N194 C195 1.376 . S
N194 C198 1.383 . S
C195 N194 1.376 . S
C195 C196 1.446 . S
C195 C218 1.391 1_565 S
C196 C195 1.446 . S
C196 C197 1.339 . S
C196 H225 0.949 . S
C197 C196 1.339 . S
C197 C198 1.439 . S
C197 H226 0.950 . S
C198 N194 1.383 . S
C198 C197 1.439 . S
C198 C216 1.392 . S
N199 Co183 2.282 . S
N199 C202 1.332 . S
N199 C204 1.332 . S
C200 C201 1.386 . S
C200 C203 1.388 . S
C201 C200 1.386 . S
C201 C202 1.382 . S
C201 H227 0.950 . S
C202 N199 1.332 . S
C202 C201 1.382 . S
C202 H213 0.952 . S
C203 C200 1.388 . S
C203 C204 1.382 . S
C203 H228 0.950 . S
C204 N199 1.332 . S
C204 C203 1.382 . S
C204 H214 0.948 . S
N205 Co183 2.282 1_565 S
N205 C209 1.332 . S
N205 C210 1.332 . S
C206 C207 1.388 . S
C206 C210 1.382 . S
C206 H229 0.950 . S
C207 C206 1.388 . S
C207 C208 1.386 . S
C208 C207 1.386 . S
C208 C209 1.382 . S
C208 H230 0.950 . S
C209 N205 1.332 . S
C209 C208 1.382 . S
C209 H211 0.952 . S
C210 N205 1.332 . S
C210 C206 1.382 . S
C210 H212 0.948 . S
H211 C209 0.952 . S
H212 C210 0.948 . S
H213 C202 0.952 . S
H214 C204 0.948 . S
C215 C181 1.395 1_545 S
C215 C185 1.391 . S
C216 C178 1.389 . S
C216 C198 1.392 . S
C217 C188 1.392 . S
C217 C190 1.389 . S
C218 C193 1.395 . S
C218 C195 1.391 1_545 S
H219 C179 0.951 . S
H220 C180 0.950 . S
H221 C186 0.949 . S
H222 C187 0.950 . S
H223 C191 0.951 . S
H224 C192 0.950 . S
H225 C196 0.949 . S
H226 C197 0.950 . S
H227 C201 0.950 . S
H228 C203 0.950 . S
H229 C206 0.950 . S
H230 C208 0.950 . S
C231 C232 1.443 . S
C231 N235 1.376 . S
C231 C269 1.389 . S
C232 C231 1.443 . S
C232 C233 1.340 . S
C232 H272 0.951 . S
C233 C232 1.340 . S
C233 C234 1.439 . S
C233 H273 0.950 . S
C234 C233 1.439 . S
C234 N235 1.374 . S
C234 C268 1.395 . S
N235 C231 1.376 . S
N235 C234 1.374 . S
N235 Co236 2.008 . S
Co236 N235 2.008 . S
Co236 N237 1.995 1_554 S
Co236 N242 2.008 1_554 S
Co236 N247 1.995 . S
Co236 N252 2.282 1_554 S
Co236 N258 2.282 . S
N237 Co236 1.995 1_556 S
N237 C238 1.376 1_556 S
N237 C241 1.383 . S
C238 N237 1.376 1_554 S
C238 C239 1.446 1_554 S
C238 C268 1.391 . S
C239 C238 1.446 1_556 S
C239 C240 1.339 . S
C239 H274 0.949 . S
C240 C239 1.339 . S
C240 C241 1.439 . S
C240 H275 0.950 . S
C241 N237 1.383 . S
C241 C240 1.439 . S
C241 C270 1.392 . S
N242 Co236 2.008 1_556 S
N242 C243 1.376 . S
N242 C246 1.374 . S
C243 N242 1.376 . S
C243 C244 1.443 . S
C243 C270 1.389 . S
C244 C243 1.443 . S
C244 C245 1.340 . S
C244 H276 0.951 . S
C245 C244 1.340 . S
C245 C246 1.439 . S
C245 H277 0.950 . S
C246 N242 1.374 . S
C246 C245 1.439 . S
C246 C271 1.395 1_556 S
N247 Co236 1.995 . S
N247 C248 1.376 . S
N247 C251 1.383 . S
C248 N247 1.376 . S
C248 C249 1.446 . S
C248 C271 1.391 . S
C249 C248 1.446 . S
C249 C250 1.339 . S
C249 H278 0.949 . S
C250 C249 1.339 . S
C250 C251 1.439 . S
C250 H279 0.950 . S
C251 N247 1.383 . S
C251 C250 1.439 . S
C251 C269 1.392 . S
N252 Co236 2.282 1_556 S
N252 C255 1.332 . S
N252 C257 1.332 . S
C253 C254 1.386 . S
C253 C256 1.388 . S
C254 C253 1.386 . S
C254 C255 1.382 . S
C254 H280 0.950 . S
C255 N252 1.332 . S
C255 C254 1.382 . S
C255 H266 0.952 . S
C256 C253 1.388 . S
C256 C257 1.382 . S
C256 H281 0.950 . S
C257 N252 1.332 . S
C257 C256 1.382 . S
C257 H267 0.948 . S
N258 Co236 2.282 . S
N258 C262 1.332 . S
N258 C263 1.332 . S
C259 C260 1.388 . S
C259 C263 1.382 . S
C259 H282 0.950 . S
C260 C259 1.388 . S
C260 C261 1.386 . S
C261 C260 1.386 . S
C261 C262 1.382 . S
C261 H283 0.950 . S
C262 N258 1.332 . S
C262 C261 1.382 . S
C262 H264 0.952 . S
C263 N258 1.332 . S
C263 C259 1.382 . S
C263 H265 0.948 . S
H264 C262 0.952 . S
H265 C263 0.948 . S
H266 C255 0.952 . S
H267 C257 0.948 . S
C268 C234 1.395 . S
C268 C238 1.391 . S
C269 C231 1.389 . S
C269 C251 1.392 . S
C270 C241 1.392 . S
C270 C243 1.389 . S
C271 C246 1.395 1_554 S
C271 C248 1.391 . S
H272 C232 0.951 . S
H273 C233 0.950 . S
H274 C239 0.949 . S
H275 C240 0.950 . S
H276 C244 0.951 . S
H277 C245 0.950 . S
H278 C249 0.949 . S
H279 C250 0.950 . S
H280 C254 0.950 . S
H281 C256 0.950 . S
H282 C259 0.950 . S
H283 C261 0.950 . S
C284 C285 1.443 . S
C284 N288 1.376 1_565 S
C284 C322 1.389 . S
C285 C284 1.443 . S
C285 C286 1.340 . S
C285 H325 0.951 . S
C286 C285 1.340 . S
C286 C287 1.439 1_565 S
C286 H326 0.950 . S
C287 C286 1.439 1_545 S
C287 N288 1.374 . S
C287 C321 1.395 . S
N288 C284 1.376 1_545 S
N288 C287 1.374 . S
N288 Co289 2.008 . S
Co289 N288 2.008 . S
Co289 N290 1.995 . S
Co289 N295 2.008 . S
Co289 N300 1.995 . S
Co289 N305 2.282 . S
Co289 N311 2.282 1_545 S
N290 Co289 1.995 . S
N290 C291 1.376 . S
N290 C294 1.383 . S
C291 N290 1.376 . S
C291 C292 1.446 . S
C291 C321 1.391 . S
C292 C291 1.446 . S
C292 C293 1.339 . S
C292 H327 0.949 . S
C293 C292 1.339 . S
C293 C294 1.439 . S
C293 H328 0.950 . S
C294 N290 1.383 . S
C294 C293 1.439 . S
C294 C323 1.392 . S
N295 Co289 2.008 . S
N295 C296 1.376 . S
N295 C299 1.374 . S
C296 N295 1.376 . S
C296 C297 1.443 . S
C296 C323 1.389 . S
C297 C296 1.443 . S
C297 C298 1.340 . S
C297 H329 0.951 . S
C298 C297 1.340 . S
C298 C299 1.439 . S
C298 H330 0.950 . S
C299 N295 1.374 . S
C299 C298 1.439 . S
C299 C324 1.395 . S
N300 Co289 1.995 . S
N300 C301 1.376 . S
N300 C304 1.383 1_545 S
C301 N300 1.376 . S
C301 C302 1.446 1_545 S
C301 C324 1.391 . S
C302 C301 1.446 1_565 S
C302 C303 1.339 . S
C302 H331 0.949 . S
C303 C302 1.339 . S
C303 C304 1.439 . S
C303 H332 0.950 . S
C304 N300 1.383 1_565 S
C304 C303 1.439 . S
C304 C322 1.392 . S
N305 Co289 2.282 . S
N305 C308 1.332 . S
N305 C310 1.332 . S
C306 C307 1.386 . S
C306 C309 1.388 . S
C307 C306 1.386 . S
C307 C308 1.382 . S
C307 H333 0.950 . S
C308 N305 1.332 . S
C308 C307 1.382 . S
C308 H319 0.952 . S
C309 C306 1.388 . S
C309 C310 1.382 . S
C309 H334 0.950 . S
C310 N305 1.332 . S
C310 C309 1.382 . S
C310 H320 0.948 . S
N311 Co289 2.282 1_565 S
N311 C315 1.332 . S
N311 C316 1.332 . S
C312 C313 1.388 . S
C312 C316 1.382 . S
C312 H335 0.950 . S
C313 C312 1.388 . S
C313 C314 1.386 . S
C314 C313 1.386 . S
C314 C315 1.382 . S
C314 H336 0.950 . S
C315 N311 1.332 . S
C315 C314 1.382 . S
C315 H317 0.952 . S
C316 N311 1.332 . S
C316 C312 1.382 . S
C316 H318 0.948 . S
H317 C315 0.952 . S
H318 C316 0.948 . S
H319 C308 0.952 . S
H320 C310 0.948 . S
C321 C287 1.395 . S
C321 C291 1.391 . S
C322 C284 1.389 . S
C322 C304 1.392 . S
C323 C294 1.392 . S
C323 C296 1.389 . S
C324 C299 1.395 . S
C324 C301 1.391 . S
H325 C285 0.951 . S
H326 C286 0.950 . S
H327 C292 0.949 . S
H328 C293 0.950 . S
H329 C297 0.951 . S
H330 C298 0.950 . S
H331 C302 0.949 . S
H332 C303 0.950 . S
H333 C307 0.950 . S
H334 C309 0.950 . S
H335 C312 0.950 . S
H336 C314 0.950 . S
C337 C338 1.443 . S
C337 N341 1.376 . S
C337 C375 1.389 . S
C338 C337 1.443 . S
C338 C339 1.340 . S
C338 H378 0.951 . S
C339 C338 1.340 . S
C339 C340 1.439 . S
C339 H379 0.950 . S
C340 C339 1.439 . S
C340 N341 1.374 . S
C340 C374 1.395 . S
N341 C337 1.376 . S
N341 C340 1.374 . S
N341 Co342 2.008 . S
Co342 N341 2.008 . S
Co342 N343 1.995 . S
Co342 N348 2.008 . S
Co342 N353 1.995 . S
Co342 N358 2.282 . S
Co342 N364 2.282 . S
N343 Co342 1.995 . S
N343 C344 1.376 . S
N343 C347 1.383 1_554 S
C344 N343 1.376 . S
C344 C345 1.446 1_554 S
C344 C374 1.391 . S
C345 C344 1.446 1_556 S
C345 C346 1.339 . S
C345 H380 0.949 . S
C346 C345 1.339 . S
C346 C347 1.439 . S
C346 H381 0.950 . S
C347 N343 1.383 1_556 S
C347 C346 1.439 . S
C347 C376 1.392 . S
N348 Co342 2.008 . S
N348 C349 1.376 1_554 S
N348 C352 1.374 . S
C349 N348 1.376 1_556 S
C349 C350 1.443 . S
C349 C376 1.389 . S
C350 C349 1.443 . S
C350 C351 1.340 . S
C350 H382 0.951 . S
C351 C350 1.340 . S
C351 C352 1.439 1_556 S
C351 H383 0.950 . S
C352 N348 1.374 . S
C352 C351 1.439 1_554 S
C352 C377 1.395 . S
N353 Co342 1.995 . S
N353 C354 1.376 . S
N353 C357 1.383 . S
C354 N353 1.376 . S
C354 C355 1.446 . S
C354 C377 1.391 . S
C355 C354 1.446 . S
C355 C356 1.339 . S
C355 H384 0.949 . S
C356 C355 1.339 . S
C356 C357 1.439 . S
C356 H385 0.950 . S
C357 N353 1.383 . S
C357 C356 1.439 . S
C357 C375 1.392 . S
N358 Co342 2.282 . S
N358 C361 1.332 1_554 S
N358 C363 1.332 1_554 S
C359 C360 1.386 . S
C359 C362 1.388 . S
C360 C359 1.386 . S
C360 C361 1.382 . S
C360 H386 0.950 . S
C361 N358 1.332 1_556 S
C361 C360 1.382 . S
C361 H372 0.952 1_556 S
C362 C359 1.388 . S
C362 C363 1.382 . S
C362 H387 0.950 . S
C363 N358 1.332 1_556 S
C363 C362 1.382 . S
C363 H373 0.948 . S
N364 Co342 2.282 . S
N364 C368 1.332 . S
N364 C369 1.332 . S
C365 C366 1.388 . S
C365 C369 1.382 . S
C365 H388 0.950 . S
C366 C365 1.388 . S
C366 C367 1.386 . S
C367 C366 1.386 . S
C367 C368 1.382 . S
C367 H389 0.950 . S
C368 N364 1.332 . S
C368 C367 1.382 . S
C368 H370 0.952 . S
C369 N364 1.332 . S
C369 C365 1.382 . S
C369 H371 0.948 . S
H370 C368 0.952 . S
H371 C369 0.948 . S
H372 C361 0.952 1_554 S
H373 C363 0.948 . S
C374 C340 1.395 . S
C374 C344 1.391 . S
C375 C337 1.389 . S
C375 C357 1.392 . S
C376 C347 1.392 . S
C376 C349 1.389 . S
C377 C352 1.395 . S
C377 C354 1.391 . S
H378 C338 0.951 . S
H379 C339 0.950 . S
H380 C345 0.949 . S
H381 C346 0.950 . S
H382 C350 0.951 . S
H383 C351 0.950 . S
H384 C355 0.949 . S
H385 C356 0.950 . S
H386 C360 0.950 . S
H387 C362 0.950 . S
H388 C365 0.950 . S
H389 C367 0.950 . S
C390 C391 1.391 . S
C390 C392 1.394 . S
C390 H406 0.931 . S
C391 C390 1.391 . S
C391 C395 1.376 . S
C392 C390 1.394 . S
C392 C393 1.369 . S
C392 C396 1.531 . S
C393 C392 1.369 . S
C393 C394 1.410 . S
C393 C401 1.503 . S
C394 C393 1.410 . S
C394 C395 1.392 . S
C394 C397 1.511 . S
C395 C391 1.376 . S
C395 C394 1.392 . S
C395 H407 0.929 . S
C396 C392 1.531 . S
C396 H408 0.960 . S
C396 H409 0.962 . S
C396 H410 0.960 . S
C397 C394 1.511 . S
C397 H411 0.961 . S
C397 H412 0.961 . S
C397 H413 0.961 . S
C398 C399 1.370 . S
C398 C400 1.363 . S
C398 H414 0.931 . S
C399 C398 1.370 . S
C399 C403 1.408 . S
C400 C398 1.363 . S
C400 C401 1.370 . S
C400 C404 1.524 . S
C401 C393 1.503 . S
C401 C400 1.370 . S
C401 C402 1.403 . S
C402 C401 1.403 . S
C402 C403 1.404 . S
C402 C405 1.539 . S
C403 C399 1.408 . S
C403 C402 1.404 . S
C403 H415 0.930 . S
C404 C400 1.524 . S
C404 H416 0.956 . S
C404 H417 0.961 . S
C404 H418 0.961 . S
C405 C402 1.539 . S
C405 H419 0.958 . S
C405 H420 0.961 . S
C405 H421 0.960 . S
H406 C390 0.931 . S
H407 C395 0.929 . S
H408 C396 0.960 . S
H409 C396 0.962 . S
H410 C396 0.960 . S
H411 C397 0.961 . S
H412 C397 0.961 . S
H413 C397 0.961 . S
H414 C398 0.931 . S
H415 C403 0.930 . S
H416 C404 0.956 . S
H417 C404 0.961 . S
H418 C404 0.961 . S
H419 C405 0.958 . S
H420 C405 0.961 . S
H421 C405 0.960 . S
C422 C423 1.391 . S
C422 C424 1.394 . S
C422 H438 0.931 . S
C423 C422 1.391 . S
C423 C427 1.376 . S
C424 C422 1.394 . S
C424 C425 1.369 . S
C424 C428 1.531 . S
C425 C424 1.369 . S
C425 C426 1.410 . S
C425 C433 1.503 . S
C426 C425 1.410 . S
C426 C427 1.392 . S
C426 C429 1.511 . S
C427 C423 1.376 . S
C427 C426 1.392 . S
C427 H439 0.929 . S
C428 C424 1.531 . S
C428 H440 0.960 . S
C428 H441 0.962 . S
C428 H442 0.960 . S
C429 C426 1.511 . S
C429 H443 0.961 . S
C429 H444 0.961 . S
C429 H445 0.961 . S
C430 C431 1.370 . S
C430 C432 1.363 . S
C430 H446 0.931 . S
C431 C430 1.370 . S
C431 C435 1.408 . S
C432 C430 1.363 . S
C432 C433 1.370 . S
C432 C436 1.524 . S
C433 C425 1.503 . S
C433 C432 1.370 . S
C433 C434 1.403 . S
C434 C433 1.403 . S
C434 C435 1.404 . S
C434 C437 1.539 . S
C435 C431 1.408 . S
C435 C434 1.404 . S
C435 H447 0.930 . S
C436 C432 1.524 . S
C436 H448 0.956 . S
C436 H449 0.961 . S
C436 H450 0.961 . S
C437 C434 1.539 . S
C437 H451 0.958 . S
C437 H452 0.961 . S
C437 H453 0.960 . S
H438 C422 0.931 . S
H439 C427 0.929 . S
H440 C428 0.960 . S
H441 C428 0.962 . S
H442 C428 0.960 . S
H443 C429 0.961 . S
H444 C429 0.961 . S
H445 C429 0.961 . S
H446 C430 0.931 . S
H447 C435 0.930 . S
H448 C436 0.956 . S
H449 C436 0.961 . S
H450 C436 0.961 . S
H451 C437 0.958 . S
H452 C437 0.961 . S
H453 C437 0.960 . S
C454 C455 1.391 . S
C454 C456 1.394 . S
C454 H470 0.931 . S
C455 C454 1.391 . S
C455 C459 1.376 . S
C456 C454 1.394 . S
C456 C457 1.369 . S
C456 C460 1.531 . S
C457 C456 1.369 . S
C457 C458 1.410 . S
C457 C465 1.503 . S
C458 C457 1.410 . S
C458 C459 1.392 . S
C458 C461 1.511 . S
C459 C455 1.376 . S
C459 C458 1.392 . S
C459 H471 0.929 . S
C460 C456 1.531 . S
C460 H472 0.960 . S
C460 H473 0.962 . S
C460 H474 0.960 . S
C461 C458 1.511 . S
C461 H475 0.961 . S
C461 H476 0.961 . S
C461 H477 0.961 . S
C462 C463 1.370 . S
C462 C464 1.363 . S
C462 H478 0.931 . S
C463 C462 1.370 . S
C463 C467 1.408 . S
C464 C462 1.363 . S
C464 C465 1.370 . S
C464 C468 1.524 . S
C465 C457 1.503 . S
C465 C464 1.370 . S
C465 C466 1.403 . S
C466 C465 1.403 . S
C466 C467 1.404 . S
C466 C469 1.539 . S
C467 C463 1.408 . S
C467 C466 1.404 . S
C467 H479 0.930 . S
C468 C464 1.524 . S
C468 H480 0.956 . S
C468 H481 0.961 . S
C468 H482 0.961 . S
C469 C466 1.539 . S
C469 H483 0.958 . S
C469 H484 0.961 . S
C469 H485 0.960 . S
H470 C454 0.931 . S
H471 C459 0.929 . S
H472 C460 0.960 . S
H473 C460 0.962 . S
H474 C460 0.960 . S
H475 C461 0.961 . S
H476 C461 0.961 . S
H477 C461 0.961 . S
H478 C462 0.931 . S
H479 C467 0.930 . S
H480 C468 0.956 . S
H481 C468 0.961 . S
H482 C468 0.961 . S
H483 C469 0.958 . S
H484 C469 0.961 . S
H485 C469 0.960 . S
C486 C487 1.391 . S
C486 C488 1.394 . S
C486 H502 0.931 . S
C487 C486 1.391 . S
C487 C491 1.376 . S
C488 C486 1.394 . S
C488 C489 1.369 . S
C488 C492 1.531 . S
C489 C488 1.369 . S
C489 C490 1.410 . S
C489 C497 1.503 . S
C490 C489 1.410 . S
C490 C491 1.392 . S
C490 C493 1.511 . S
C491 C487 1.376 . S
C491 C490 1.392 . S
C491 H503 0.929 . S
C492 C488 1.531 . S
C492 H504 0.960 . S
C492 H505 0.962 . S
C492 H506 0.960 . S
C493 C490 1.511 . S
C493 H507 0.961 . S
C493 H508 0.961 . S
C493 H509 0.961 . S
C494 C495 1.370 . S
C494 C496 1.363 . S
C494 H510 0.931 . S
C495 C494 1.370 . S
C495 C499 1.408 . S
C496 C494 1.363 . S
C496 C497 1.370 . S
C496 C500 1.524 . S
C497 C489 1.503 . S
C497 C496 1.370 . S
C497 C498 1.403 . S
C498 C497 1.403 . S
C498 C499 1.404 . S
C498 C501 1.539 . S
C499 C495 1.408 . S
C499 C498 1.404 . S
C499 H511 0.930 . S
C500 C496 1.524 . S
C500 H512 0.956 . S
C500 H513 0.961 . S
C500 H514 0.961 . S
C501 C498 1.539 . S
C501 H515 0.958 . S
C501 H516 0.961 . S
C501 H517 0.960 . S
H502 C486 0.931 . S
H503 C491 0.929 . S
H504 C492 0.960 . S
H505 C492 0.962 . S
H506 C492 0.960 . S
H507 C493 0.961 . S
H508 C493 0.961 . S
H509 C493 0.961 . S
H510 C494 0.931 . S
H511 C499 0.930 . S
H512 C500 0.956 . S
H513 C500 0.961 . S
H514 C500 0.961 . S
H515 C501 0.958 . S
H516 C501 0.961 . S
H517 C501 0.960 . S
C518 C519 1.391 . S
C518 C520 1.394 . S
C518 H534 0.931 . S
C519 C518 1.391 . S
C519 C523 1.376 . S
C520 C518 1.394 . S
C520 C521 1.369 . S
C520 C524 1.531 . S
C521 C520 1.369 . S
C521 C522 1.410 . S
C521 C529 1.503 . S
C522 C521 1.410 . S
C522 C523 1.392 . S
C522 C525 1.511 . S
C523 C519 1.376 . S
C523 C522 1.392 . S
C523 H535 0.929 . S
C524 C520 1.531 . S
C524 H536 0.960 . S
C524 H537 0.962 . S
C524 H538 0.960 . S
C525 C522 1.511 . S
C525 H539 0.961 . S
C525 H540 0.961 . S
C525 H541 0.961 . S
C526 C527 1.370 . S
C526 C528 1.363 . S
C526 H542 0.931 . S
C527 C526 1.370 . S
C527 C531 1.408 . S
C528 C526 1.363 . S
C528 C529 1.370 . S
C528 C532 1.524 . S
C529 C521 1.503 . S
C529 C528 1.370 . S
C529 C530 1.403 . S
C530 C529 1.403 . S
C530 C531 1.404 . S
C530 C533 1.539 . S
C531 C527 1.408 . S
C531 C530 1.404 . S
C531 H543 0.930 . S
C532 C528 1.524 . S
C532 H544 0.956 . S
C532 H545 0.961 . S
C532 H546 0.961 . S
C533 C530 1.539 . S
C533 H547 0.958 . S
C533 H548 0.961 . S
C533 H549 0.960 . S
H534 C518 0.931 . S
H535 C523 0.929 . S
H536 C524 0.960 . S
H537 C524 0.962 . S
H538 C524 0.960 . S
H539 C525 0.961 . S
H540 C525 0.961 . S
H541 C525 0.961 . S
H542 C526 0.931 . S
H543 C531 0.930 . S
H544 C532 0.956 . S
H545 C532 0.961 . S
H546 C532 0.961 . S
H547 C533 0.958 . S
H548 C533 0.961 . S
H549 C533 0.960 . S
C550 C551 1.391 . S
C550 C552 1.394 . S
C550 H566 0.931 . S
C551 C550 1.391 . S
C551 C555 1.376 . S
C552 C550 1.394 . S
C552 C553 1.369 . S
C552 C556 1.531 . S
C553 C552 1.369 . S
C553 C554 1.410 . S
C553 C561 1.503 . S
C554 C553 1.410 . S
C554 C555 1.392 . S
C554 C557 1.511 . S
C555 C551 1.376 . S
C555 C554 1.392 . S
C555 H567 0.929 . S
C556 C552 1.531 . S
C556 H568 0.960 . S
C556 H569 0.962 . S
C556 H570 0.960 . S
C557 C554 1.511 . S
C557 H571 0.961 . S
C557 H572 0.961 . S
C557 H573 0.961 . S
C558 C559 1.370 . S
C558 C560 1.363 . S
C558 H574 0.931 . S
C559 C558 1.370 . S
C559 C563 1.408 . S
C560 C558 1.363 . S
C560 C561 1.370 . S
C560 C564 1.524 . S
C561 C553 1.503 . S
C561 C560 1.370 . S
C561 C562 1.403 . S
C562 C561 1.403 . S
C562 C563 1.404 . S
C562 C565 1.539 . S
C563 C559 1.408 . S
C563 C562 1.404 . S
C563 H575 0.930 . S
C564 C560 1.524 . S
C564 H576 0.956 . S
C564 H577 0.961 . S
C564 H578 0.961 . S
C565 C562 1.539 . S
C565 H579 0.958 . S
C565 H580 0.961 . S
C565 H581 0.960 . S
H566 C550 0.931 . S
H567 C555 0.929 . S
H568 C556 0.960 . S
H569 C556 0.962 . S
H570 C556 0.960 . S
H571 C557 0.961 . S
H572 C557 0.961 . S
H573 C557 0.961 . S
H574 C558 0.931 . S
H575 C563 0.930 . S
H576 C564 0.956 . S
H577 C564 0.961 . S
H578 C564 0.961 . S
H579 C565 0.958 . S
H580 C565 0.961 . S
H581 C565 0.960 . S
C582 C583 1.391 . S
C582 C584 1.394 . S
C582 H598 0.931 . S
C583 C582 1.391 . S
C583 C587 1.376 . S
C584 C582 1.394 . S
C584 C585 1.369 . S
C584 C588 1.531 . S
C585 C584 1.369 . S
C585 C586 1.410 . S
C585 C593 1.503 . S
C586 C585 1.410 . S
C586 C587 1.392 . S
C586 C589 1.511 . S
C587 C583 1.376 . S
C587 C586 1.392 . S
C587 H599 0.929 . S
C588 C584 1.531 . S
C588 H600 0.960 . S
C588 H601 0.962 . S
C588 H602 0.960 . S
C589 C586 1.511 . S
C589 H603 0.961 . S
C589 H604 0.961 . S
C589 H605 0.961 . S
C590 C591 1.370 . S
C590 C592 1.363 . S
C590 H606 0.931 . S
C591 C590 1.370 . S
C591 C595 1.408 . S
C592 C590 1.363 . S
C592 C593 1.370 . S
C592 C596 1.524 . S
C593 C585 1.503 . S
C593 C592 1.370 . S
C593 C594 1.403 . S
C594 C593 1.403 . S
C594 C595 1.404 . S
C594 C597 1.539 . S
C595 C591 1.408 . S
C595 C594 1.404 . S
C595 H607 0.930 . S
C596 C592 1.524 . S
C596 H608 0.956 . S
C596 H609 0.961 . S
C596 H610 0.961 . S
C597 C594 1.539 . S
C597 H611 0.958 . S
C597 H612 0.961 . S
C597 H613 0.960 . S
H598 C582 0.931 . S
H599 C587 0.929 . S
H600 C588 0.960 . S
H601 C588 0.962 . S
H602 C588 0.960 . S
H603 C589 0.961 . S
H604 C589 0.961 . S
H605 C589 0.961 . S
H606 C590 0.931 . S
H607 C595 0.930 . S
H608 C596 0.956 . S
H609 C596 0.961 . S
H610 C596 0.961 . S
H611 C597 0.958 . S
H612 C597 0.961 . S
H613 C597 0.960 . S
C614 C615 1.391 . S
C614 C616 1.394 . S
C614 H630 0.931 . S
C615 C614 1.391 . S
C615 C619 1.376 . S
C616 C614 1.394 . S
C616 C617 1.369 . S
C616 C620 1.531 . S
C617 C616 1.369 . S
C617 C618 1.410 . S
C617 C625 1.503 . S
C618 C617 1.410 . S
C618 C619 1.392 . S
C618 C621 1.511 . S
C619 C615 1.376 . S
C619 C618 1.392 . S
C619 H631 0.929 . S
C620 C616 1.531 . S
C620 H632 0.960 . S
C620 H633 0.962 . S
C620 H634 0.960 . S
C621 C618 1.511 . S
C621 H635 0.961 . S
C621 H636 0.961 . S
C621 H637 0.961 . S
C622 C623 1.370 . S
C622 C624 1.363 . S
C622 H638 0.931 . S
C623 C622 1.370 . S
C623 C627 1.408 . S
C624 C622 1.363 . S
C624 C625 1.370 . S
C624 C628 1.524 . S
C625 C617 1.503 . S
C625 C624 1.370 . S
C625 C626 1.403 . S
C626 C625 1.403 . S
C626 C627 1.404 . S
C626 C629 1.539 . S
C627 C623 1.408 . S
C627 C626 1.404 . S
C627 H639 0.930 . S
C628 C624 1.524 . S
C628 H640 0.956 . S
C628 H641 0.961 . S
C628 H642 0.961 . S
C629 C626 1.539 . S
C629 H643 0.958 . S
C629 H644 0.961 . S
C629 H645 0.960 . S
H630 C614 0.931 . S
H631 C619 0.929 . S
H632 C620 0.960 . S
H633 C620 0.962 . S
H634 C620 0.960 . S
H635 C621 0.961 . S
H636 C621 0.961 . S
H637 C621 0.961 . S
H638 C622 0.931 . S
H639 C627 0.930 . S
H640 C628 0.956 . S
H641 C628 0.961 . S
H642 C628 0.961 . S
H643 C629 0.958 . S
H644 C629 0.961 . S
H645 C629 0.960 . S
C646 C647 1.391 . S
C646 C648 1.394 . S
C646 H662 0.931 . S
C647 C646 1.391 . S
C647 C651 1.376 . S
C648 C646 1.394 . S
C648 C649 1.369 . S
C648 C652 1.531 . S
C649 C648 1.369 . S
C649 C650 1.410 . S
C649 C657 1.503 . S
C650 C649 1.410 . S
C650 C651 1.392 . S
C650 C653 1.511 . S
C651 C647 1.376 . S
C651 C650 1.392 . S
C651 H663 0.929 . S
C652 C648 1.531 . S
C652 H664 0.960 . S
C652 H665 0.962 . S
C652 H666 0.960 . S
C653 C650 1.511 . S
C653 H667 0.961 . S
C653 H668 0.961 . S
C653 H669 0.961 . S
C654 C655 1.370 . S
C654 C656 1.363 . S
C654 H670 0.931 . S
C655 C654 1.370 . S
C655 C659 1.408 . S
C656 C654 1.363 . S
C656 C657 1.370 . S
C656 C660 1.524 . S
C657 C649 1.503 . S
C657 C656 1.370 . S
C657 C658 1.403 . S
C658 C657 1.403 . S
C658 C659 1.404 . S
C658 C661 1.539 . S
C659 C655 1.408 . S
C659 C658 1.404 . S
C659 H671 0.930 . S
C660 C656 1.524 . S
C660 H672 0.956 . S
C660 H673 0.961 . S
C660 H674 0.961 . S
C661 C658 1.539 . S
C661 H675 0.958 . S
C661 H676 0.961 . S
C661 H677 0.960 . S
H662 C646 0.931 . S
H663 C651 0.929 . S
H664 C652 0.960 . S
H665 C652 0.962 . S
H666 C652 0.960 . S
H667 C653 0.961 . S
H668 C653 0.961 . S
H669 C653 0.961 . S
H670 C654 0.931 . S
H671 C659 0.930 . S
H672 C660 0.956 . S
H673 C660 0.961 . S
H674 C660 0.961 . S
H675 C661 0.958 . S
H676 C661 0.961 . S
H677 C661 0.960 . S
C678 C679 1.391 . S
C678 C680 1.394 . S
C678 H694 0.931 . S
C679 C678 1.391 . S
C679 C683 1.376 . S
C680 C678 1.394 . S
C680 C681 1.369 . S
C680 C684 1.531 . S
C681 C680 1.369 . S
C681 C682 1.410 . S
C681 C689 1.503 . S
C682 C681 1.410 . S
C682 C683 1.392 . S
C682 C685 1.511 . S
C683 C679 1.376 . S
C683 C682 1.392 . S
C683 H695 0.929 . S
C684 C680 1.531 . S
C684 H696 0.960 . S
C684 H697 0.962 . S
C684 H698 0.960 . S
C685 C682 1.511 . S
C685 H699 0.961 . S
C685 H700 0.961 . S
C685 H701 0.961 . S
C686 C687 1.370 . S
C686 C688 1.363 . S
C686 H702 0.931 . S
C687 C686 1.370 . S
C687 C691 1.408 . S
C688 C686 1.363 . S
C688 C689 1.370 . S
C688 C692 1.524 . S
C689 C681 1.503 . S
C689 C688 1.370 . S
C689 C690 1.403 . S
C690 C689 1.403 . S
C690 C691 1.404 . S
C690 C693 1.539 . S
C691 C687 1.408 . S
C691 C690 1.404 . S
C691 H703 0.930 . S
C692 C688 1.524 . S
C692 H704 0.956 . S
C692 H705 0.961 . S
C692 H706 0.961 . S
C693 C690 1.539 . S
C693 H707 0.958 . S
C693 H708 0.961 . S
C693 H709 0.960 . S
H694 C678 0.931 . S
H695 C683 0.929 . S
H696 C684 0.960 . S
H697 C684 0.962 . S
H698 C684 0.960 . S
H699 C685 0.961 . S
H700 C685 0.961 . S
H701 C685 0.961 . S
H702 C686 0.931 . S
H703 C691 0.930 . S
H704 C692 0.956 . S
H705 C692 0.961 . S
H706 C692 0.961 . S
H707 C693 0.958 . S
H708 C693 0.961 . S
H709 C693 0.960 . S
C710 C711 1.391 . S
C710 C712 1.394 . S
C710 H726 0.931 . S
C711 C710 1.391 . S
C711 C715 1.376 . S
C712 C710 1.394 . S
C712 C713 1.369 . S
C712 C716 1.531 . S
C713 C712 1.369 . S
C713 C714 1.410 . S
C713 C721 1.503 . S
C714 C713 1.410 . S
C714 C715 1.392 . S
C714 C717 1.511 . S
C715 C711 1.376 . S
C715 C714 1.392 . S
C715 H727 0.929 . S
C716 C712 1.531 . S
C716 H728 0.960 . S
C716 H729 0.962 . S
C716 H730 0.960 . S
C717 C714 1.511 . S
C717 H731 0.961 . S
C717 H732 0.961 . S
C717 H733 0.961 . S
C718 C719 1.370 . S
C718 C720 1.363 . S
C718 H734 0.931 . S
C719 C718 1.370 . S
C719 C723 1.408 . S
C720 C718 1.363 . S
C720 C721 1.370 . S
C720 C724 1.524 . S
C721 C713 1.503 . S
C721 C720 1.370 . S
C721 C722 1.403 . S
C722 C721 1.403 . S
C722 C723 1.404 . S
C722 C725 1.539 . S
C723 C719 1.408 . S
C723 C722 1.404 . S
C723 H735 0.930 . S
C724 C720 1.524 . S
C724 H736 0.956 . S
C724 H737 0.961 . S
C724 H738 0.961 . S
C725 C722 1.539 . S
C725 H739 0.958 . S
C725 H740 0.961 . S
C725 H741 0.960 . S
H726 C710 0.931 . S
H727 C715 0.929 . S
H728 C716 0.960 . S
H729 C716 0.962 . S
H730 C716 0.960 . S
H731 C717 0.961 . S
H732 C717 0.961 . S
H733 C717 0.961 . S
H734 C718 0.931 . S
H735 C723 0.930 . S
H736 C724 0.956 . S
H737 C724 0.961 . S
H738 C724 0.961 . S
H739 C725 0.958 . S
H740 C725 0.961 . S
H741 C725 0.960 . S
C742 C743 1.391 . S
C742 C744 1.394 . S
C742 H758 0.931 . S
C743 C742 1.391 . S
C743 C747 1.376 . S
C744 C742 1.394 . S
C744 C745 1.369 . S
C744 C748 1.531 . S
C745 C744 1.369 . S
C745 C746 1.410 . S
C745 C753 1.503 . S
C746 C745 1.410 . S
C746 C747 1.392 . S
C746 C749 1.511 . S
C747 C743 1.376 . S
C747 C746 1.392 . S
C747 H759 0.929 . S
C748 C744 1.531 . S
C748 H760 0.960 . S
C748 H761 0.962 . S
C748 H762 0.960 . S
C749 C746 1.511 . S
C749 H763 0.961 . S
C749 H764 0.961 . S
C749 H765 0.961 . S
C750 C751 1.370 . S
C750 C752 1.363 . S
C750 H766 0.931 . S
C751 C750 1.370 . S
C751 C755 1.408 . S
C752 C750 1.363 . S
C752 C753 1.370 . S
C752 C756 1.524 . S
C753 C745 1.503 . S
C753 C752 1.370 . S
C753 C754 1.403 . S
C754 C753 1.403 . S
C754 C755 1.404 . S
C754 C757 1.539 . S
C755 C751 1.408 . S
C755 C754 1.404 . S
C755 H767 0.930 . S
C756 C752 1.524 . S
C756 H768 0.956 . S
C756 H769 0.961 . S
C756 H770 0.961 . S
C757 C754 1.539 . S
C757 H771 0.958 . S
C757 H772 0.961 . S
C757 H773 0.960 . S
H758 C742 0.931 . S
H759 C747 0.929 . S
H760 C748 0.960 . S
H761 C748 0.962 . S
H762 C748 0.960 . S
H763 C749 0.961 . S
H764 C749 0.961 . S
H765 C749 0.961 . S
H766 C750 0.931 . S
H767 C755 0.930 . S
H768 C756 0.956 . S
H769 C756 0.961 . S
H770 C756 0.961 . S
H771 C757 0.958 . S
H772 C757 0.961 . S
H773 C757 0.960 . S
C774 C775 1.391 . S
C774 C776 1.394 . S
C774 H790 0.931 . S
C775 C774 1.391 . S
C775 C779 1.376 . S
C776 C774 1.394 . S
C776 C777 1.369 . S
C776 C780 1.531 . S
C777 C776 1.369 . S
C777 C778 1.410 . S
C777 C785 1.503 . S
C778 C777 1.410 . S
C778 C779 1.392 . S
C778 C781 1.511 . S
C779 C775 1.376 . S
C779 C778 1.392 . S
C779 H791 0.929 . S
C780 C776 1.531 . S
C780 H792 0.960 . S
C780 H793 0.962 . S
C780 H794 0.960 . S
C781 C778 1.511 . S
C781 H795 0.961 . S
C781 H796 0.961 . S
C781 H797 0.961 . S
C782 C783 1.370 . S
C782 C784 1.363 . S
C782 H798 0.931 . S
C783 C782 1.370 . S
C783 C787 1.408 . S
C784 C782 1.363 . S
C784 C785 1.370 . S
C784 C788 1.524 . S
C785 C777 1.503 . S
C785 C784 1.370 . S
C785 C786 1.403 . S
C786 C785 1.403 . S
C786 C787 1.404 . S
C786 C789 1.539 . S
C787 C783 1.408 . S
C787 C786 1.404 . S
C787 H799 0.930 . S
C788 C784 1.524 . S
C788 H800 0.956 . S
C788 H801 0.961 . S
C788 H802 0.961 . S
C789 C786 1.539 . S
C789 H803 0.958 . S
C789 H804 0.961 . S
C789 H805 0.960 . S
H790 C774 0.931 . S
H791 C779 0.929 . S
H792 C780 0.960 . S
H793 C780 0.962 . S
H794 C780 0.960 . S
H795 C781 0.961 . S
H796 C781 0.961 . S
H797 C781 0.961 . S
H798 C782 0.931 . S
H799 C787 0.930 . S
H800 C788 0.956 . S
H801 C788 0.961 . S
H802 C788 0.961 . S
H803 C789 0.958 . S
H804 C789 0.961 . S
H805 C789 0.960 . S
C806 C807 1.391 . S
C806 C808 1.394 . S
C806 H822 0.931 . S
C807 C806 1.391 . S
C807 C811 1.376 . S
C808 C806 1.394 . S
C808 C809 1.369 . S
C808 C812 1.531 . S
C809 C808 1.369 . S
C809 C810 1.410 . S
C809 C817 1.503 . S
C810 C809 1.410 . S
C810 C811 1.392 . S
C810 C813 1.511 . S
C811 C807 1.376 . S
C811 C810 1.392 . S
C811 H823 0.929 . S
C812 C808 1.531 . S
C812 H824 0.960 . S
C812 H825 0.962 . S
C812 H826 0.960 . S
C813 C810 1.511 . S
C813 H827 0.961 . S
C813 H828 0.961 . S
C813 H829 0.961 . S
C814 C815 1.370 . S
C814 C816 1.363 . S
C814 H830 0.931 . S
C815 C814 1.370 . S
C815 C819 1.408 . S
C816 C814 1.363 . S
C816 C817 1.370 . S
C816 C820 1.524 . S
C817 C809 1.503 . S
C817 C816 1.370 . S
C817 C818 1.403 . S
C818 C817 1.403 . S
C818 C819 1.404 . S
C818 C821 1.539 . S
C819 C815 1.408 . S
C819 C818 1.404 . S
C819 H831 0.930 . S
C820 C816 1.524 . S
C820 H832 0.956 . S
C820 H833 0.961 . S
C820 H834 0.961 . S
C821 C818 1.539 . S
C821 H835 0.958 . S
C821 H836 0.961 . S
C821 H837 0.960 . S
H822 C806 0.931 . S
H823 C811 0.929 . S
H824 C812 0.960 . S
H825 C812 0.962 . S
H826 C812 0.960 . S
H827 C813 0.961 . S
H828 C813 0.961 . S
H829 C813 0.961 . S
H830 C814 0.931 . S
H831 C819 0.930 . S
H832 C820 0.956 . S
H833 C820 0.961 . S
H834 C820 0.961 . S
H835 C821 0.958 . S
H836 C821 0.961 . S
H837 C821 0.960 . S
C838 C839 1.391 . S
C838 C840 1.394 . S
C838 H854 0.931 . S
C839 C838 1.391 . S
C839 C843 1.376 . S
C840 C838 1.394 . S
C840 C841 1.369 . S
C840 C844 1.531 . S
C841 C840 1.369 . S
C841 C842 1.410 . S
C841 C849 1.503 . S
C842 C841 1.410 . S
C842 C843 1.392 . S
C842 C845 1.511 . S
C843 C839 1.376 . S
C843 C842 1.392 . S
C843 H855 0.929 . S
C844 C840 1.531 . S
C844 H856 0.960 . S
C844 H857 0.962 . S
C844 H858 0.960 . S
C845 C842 1.511 . S
C845 H859 0.961 . S
C845 H860 0.961 . S
C845 H861 0.961 . S
C846 C847 1.370 . S
C846 C848 1.363 . S
C846 H862 0.931 . S
C847 C846 1.370 . S
C847 C851 1.408 . S
C848 C846 1.363 . S
C848 C849 1.370 . S
C848 C852 1.524 . S
C849 C841 1.503 . S
C849 C848 1.370 . S
C849 C850 1.403 . S
C850 C849 1.403 . S
C850 C851 1.404 . S
C850 C853 1.539 . S
C851 C847 1.408 . S
C851 C850 1.404 . S
C851 H863 0.930 . S
C852 C848 1.524 . S
C852 H864 0.956 . S
C852 H865 0.961 . S
C852 H866 0.961 . S
C853 C850 1.539 . S
C853 H867 0.958 . S
C853 H868 0.961 . S
C853 H869 0.960 . S
H854 C838 0.931 . S
H855 C843 0.929 . S
H856 C844 0.960 . S
H857 C844 0.962 . S
H858 C844 0.960 . S
H859 C845 0.961 . S
H860 C845 0.961 . S
H861 C845 0.961 . S
H862 C846 0.931 . S
H863 C851 0.930 . S
H864 C852 0.956 . S
H865 C852 0.961 . S
H866 C852 0.961 . S
H867 C853 0.958 . S
H868 C853 0.961 . S
H869 C853 0.960 . S
C870 C871 1.391 . S
C870 C872 1.394 . S
C870 H886 0.931 . S
C871 C870 1.391 . S
C871 C875 1.376 . S
C872 C870 1.394 . S
C872 C873 1.369 . S
C872 C876 1.531 . S
C873 C872 1.369 . S
C873 C874 1.410 . S
C873 C881 1.503 . S
C874 C873 1.410 . S
C874 C875 1.392 . S
C874 C877 1.511 . S
C875 C871 1.376 . S
C875 C874 1.392 . S
C875 H887 0.929 . S
C876 C872 1.531 . S
C876 H888 0.960 . S
C876 H889 0.962 . S
C876 H890 0.960 . S
C877 C874 1.511 . S
C877 H891 0.961 . S
C877 H892 0.961 . S
C877 H893 0.961 . S
C878 C879 1.370 . S
C878 C880 1.363 . S
C878 H894 0.931 . S
C879 C878 1.370 . S
C879 C883 1.408 . S
C880 C878 1.363 . S
C880 C881 1.370 . S
C880 C884 1.524 . S
C881 C873 1.503 . S
C881 C880 1.370 . S
C881 C882 1.403 . S
C882 C881 1.403 . S
C882 C883 1.404 . S
C882 C885 1.539 . S
C883 C879 1.408 . S
C883 C882 1.404 . S
C883 H895 0.930 . S
C884 C880 1.524 . S
C884 H896 0.956 . S
C884 H897 0.961 . S
C884 H898 0.961 . S
C885 C882 1.539 . S
C885 H899 0.958 . S
C885 H900 0.961 . S
C885 H901 0.960 . S
H886 C870 0.931 . S
H887 C875 0.929 . S
H888 C876 0.960 . S
H889 C876 0.962 . S
H890 C876 0.960 . S
H891 C877 0.961 . S
H892 C877 0.961 . S
H893 C877 0.961 . S
H894 C878 0.931 . S
H895 C883 0.930 . S
H896 C884 0.956 . S
H897 C884 0.961 . S
H898 C884 0.961 . S
H899 C885 0.958 . S
H900 C885 0.961 . S
H901 C885 0.960 . S
C902 C903 1.391 . S
C902 C904 1.394 . S
C902 H918 0.931 . S
C903 C902 1.391 . S
C903 C907 1.376 . S
C904 C902 1.394 . S
C904 C905 1.369 . S
C904 C908 1.531 . S
C905 C904 1.369 . S
C905 C906 1.410 . S
C905 C913 1.503 . S
C906 C905 1.410 . S
C906 C907 1.392 . S
C906 C909 1.511 . S
C907 C903 1.376 . S
C907 C906 1.392 . S
C907 H919 0.929 . S
C908 C904 1.531 . S
C908 H920 0.960 . S
C908 H921 0.962 . S
C908 H922 0.960 . S
C909 C906 1.511 . S
C909 H923 0.961 . S
C909 H924 0.961 . S
C909 H925 0.961 . S
C910 C911 1.370 . S
C910 C912 1.363 . S
C910 H926 0.931 . S
C911 C910 1.370 . S
C911 C915 1.408 . S
C912 C910 1.363 . S
C912 C913 1.370 . S
C912 C916 1.524 . S
C913 C905 1.503 . S
C913 C912 1.370 . S
C913 C914 1.403 . S
C914 C913 1.403 . S
C914 C915 1.404 . S
C914 C917 1.539 . S
C915 C911 1.408 . S
C915 C914 1.404 . S
C915 H927 0.930 . S
C916 C912 1.524 . S
C916 H928 0.956 . S
C916 H929 0.961 . S
C916 H930 0.961 . S
C917 C914 1.539 . S
C917 H931 0.958 . S
C917 H932 0.961 . S
C917 H933 0.960 . S
H918 C902 0.931 . S
H919 C907 0.929 . S
H920 C908 0.960 . S
H921 C908 0.962 . S
H922 C908 0.960 . S
H923 C909 0.961 . S
H924 C909 0.961 . S
H925 C909 0.961 . S
H926 C910 0.931 . S
H927 C915 0.930 . S
H928 C916 0.956 . S
H929 C916 0.961 . S
H930 C916 0.961 . S
H931 C917 0.958 . S
H932 C917 0.961 . S
H933 C917 0.960 . S
C934 C935 1.391 . S
C934 C936 1.394 . S
C934 H950 0.931 . S
C935 C934 1.391 . S
C935 C939 1.376 . S
C936 C934 1.394 . S
C936 C937 1.369 . S
C936 C940 1.531 . S
C937 C936 1.369 . S
C937 C938 1.410 . S
C937 C945 1.503 . S
C938 C937 1.410 . S
C938 C939 1.392 . S
C938 C941 1.511 . S
C939 C935 1.376 . S
C939 C938 1.392 . S
C939 H951 0.929 . S
C940 C936 1.531 . S
C940 H952 0.960 . S
C940 H953 0.962 . S
C940 H954 0.960 . S
C941 C938 1.511 . S
C941 H955 0.961 . S
C941 H956 0.961 . S
C941 H957 0.961 . S
C942 C943 1.370 . S
C942 C944 1.363 . S
C942 H958 0.931 . S
C943 C942 1.370 . S
C943 C947 1.408 . S
C944 C942 1.363 . S
C944 C945 1.370 . S
C944 C948 1.524 . S
C945 C937 1.503 . S
C945 C944 1.370 . S
C945 C946 1.403 . S
C946 C945 1.403 . S
C946 C947 1.404 . S
C946 C949 1.539 . S
C947 C943 1.408 . S
C947 C946 1.404 . S
C947 H959 0.930 . S
C948 C944 1.524 . S
C948 H960 0.956 . S
C948 H961 0.961 . S
C948 H962 0.961 . S
C949 C946 1.539 . S
C949 H963 0.958 . S
C949 H964 0.961 . S
C949 H965 0.960 . S
H950 C934 0.931 . S
H951 C939 0.929 . S
H952 C940 0.960 . S
H953 C940 0.962 . S
H954 C940 0.960 . S
H955 C941 0.961 . S
H956 C941 0.961 . S
H957 C941 0.961 . S
H958 C942 0.931 . S
H959 C947 0.930 . S
H960 C948 0.956 . S
H961 C948 0.961 . S
H962 C948 0.961 . S
H963 C949 0.958 . S
H964 C949 0.961 . S
H965 C949 0.960 . S
C966 C967 1.391 . S
C966 C968 1.394 . S
C966 H982 0.931 . S
C967 C966 1.391 . S
C967 C971 1.376 . S
C968 C966 1.394 . S
C968 C969 1.369 . S
C968 C972 1.531 . S
C969 C968 1.369 . S
C969 C970 1.410 . S
C969 C977 1.503 . S
C970 C969 1.410 . S
C970 C971 1.392 . S
C970 C973 1.511 . S
C971 C967 1.376 . S
C971 C970 1.392 . S
C971 H983 0.929 . S
C972 C968 1.531 . S
C972 H984 0.960 . S
C972 H985 0.962 . S
C972 H986 0.960 . S
C973 C970 1.511 . S
C973 H987 0.961 . S
C973 H988 0.961 . S
C973 H989 0.961 . S
C974 C975 1.370 . S
C974 C976 1.363 . S
C974 H990 0.931 . S
C975 C974 1.370 . S
C975 C979 1.408 . S
C976 C974 1.363 . S
C976 C977 1.370 . S
C976 C980 1.524 . S
C977 C969 1.503 . S
C977 C976 1.370 . S
C977 C978 1.403 . S
C978 C977 1.403 . S
C978 C979 1.404 . S
C978 C981 1.539 . S
C979 C975 1.408 . S
C979 C978 1.404 . S
C979 H991 0.930 . S
C980 C976 1.524 . S
C980 H992 0.956 . S
C980 H993 0.961 . S
C980 H994 0.961 . S
C981 C978 1.539 . S
C981 H995 0.958 . S
C981 H996 0.961 . S
C981 H997 0.960 . S
H982 C966 0.931 . S
H983 C971 0.929 . S
H984 C972 0.960 . S
H985 C972 0.962 . S
H986 C972 0.960 . S
H987 C973 0.961 . S
H988 C973 0.961 . S
H989 C973 0.961 . S
H990 C974 0.931 . S
H991 C979 0.930 . S
H992 C980 0.956 . S
H993 C980 0.961 . S
H994 C980 0.961 . S
H995 C981 0.958 . S
H996 C981 0.961 . S
H997 C981 0.960 . S
C998 C999 1.391 . S
C998 C1000 1.394 . S
C998 H1014 0.931 . S
C999 C998 1.391 . S
C999 C1003 1.376 . S
C1000 C998 1.394 . S
C1000 C1001 1.369 . S
C1000 C1004 1.531 . S
C1001 C1000 1.369 . S
C1001 C1002 1.410 . S
C1001 C1009 1.503 . S
C1002 C1001 1.410 . S
C1002 C1003 1.392 . S
C1002 C1005 1.511 . S
C1003 C999 1.376 . S
C1003 C1002 1.392 . S
C1003 H1015 0.929 . S
C1004 C1000 1.531 . S
C1004 H1016 0.960 . S
C1004 H1017 0.962 . S
C1004 H1018 0.960 . S
C1005 C1002 1.511 . S
C1005 H1019 0.961 . S
C1005 H1020 0.961 . S
C1005 H1021 0.961 . S
C1006 C1007 1.370 . S
C1006 C1008 1.363 . S
C1006 H1022 0.931 . S
C1007 C1006 1.370 . S
C1007 C1011 1.408 . S
C1008 C1006 1.363 . S
C1008 C1009 1.370 . S
C1008 C1012 1.524 . S
C1009 C1001 1.503 . S
C1009 C1008 1.370 . S
C1009 C1010 1.403 . S
C1010 C1009 1.403 . S
C1010 C1011 1.404 . S
C1010 C1013 1.539 . S
C1011 C1007 1.408 . S
C1011 C1010 1.404 . S
C1011 H1023 0.930 . S
C1012 C1008 1.524 . S
C1012 H1024 0.956 . S
C1012 H1025 0.961 . S
C1012 H1026 0.961 . S
C1013 C1010 1.539 . S
C1013 H1027 0.958 . S
C1013 H1028 0.961 . S
C1013 H1029 0.960 . S
H1014 C998 0.931 . S
H1015 C1003 0.929 . S
H1016 C1004 0.960 . S
H1017 C1004 0.962 . S
H1018 C1004 0.960 . S
H1019 C1005 0.961 . S
H1020 C1005 0.961 . S
H1021 C1005 0.961 . S
H1022 C1006 0.931 . S
H1023 C1011 0.930 . S
H1024 C1012 0.956 . S
H1025 C1012 0.961 . S
H1026 C1012 0.961 . S
H1027 C1013 0.958 . S
H1028 C1013 0.961 . S
H1029 C1013 0.960 . S
C1030 C1031 1.391 . S
C1030 C1032 1.394 . S
C1030 H1046 0.931 . S
C1031 C1030 1.391 . S
C1031 C1035 1.376 . S
C1032 C1030 1.394 . S
C1032 C1033 1.369 . S
C1032 C1036 1.531 . S
C1033 C1032 1.369 . S
C1033 C1034 1.410 . S
C1033 C1041 1.503 . S
C1034 C1033 1.410 . S
C1034 C1035 1.392 . S
C1034 C1037 1.511 . S
C1035 C1031 1.376 . S
C1035 C1034 1.392 . S
C1035 H1047 0.929 . S
C1036 C1032 1.531 . S
C1036 H1048 0.960 . S
C1036 H1049 0.962 . S
C1036 H1050 0.960 . S
C1037 C1034 1.511 . S
C1037 H1051 0.961 . S
C1037 H1052 0.961 . S
C1037 H1053 0.961 . S
C1038 C1039 1.370 . S
C1038 C1040 1.363 . S
C1038 H1054 0.931 . S
C1039 C1038 1.370 . S
C1039 C1043 1.408 . S
C1040 C1038 1.363 . S
C1040 C1041 1.370 . S
C1040 C1044 1.524 . S
C1041 C1033 1.503 . S
C1041 C1040 1.370 . S
C1041 C1042 1.403 . S
C1042 C1041 1.403 . S
C1042 C1043 1.404 . S
C1042 C1045 1.539 . S
C1043 C1039 1.408 . S
C1043 C1042 1.404 . S
C1043 H1055 0.930 . S
C1044 C1040 1.524 . S
C1044 H1056 0.956 . S
C1044 H1057 0.961 . S
C1044 H1058 0.961 . S
C1045 C1042 1.539 . S
C1045 H1059 0.958 . S
C1045 H1060 0.961 . S
C1045 H1061 0.960 . S
H1046 C1030 0.931 . S
H1047 C1035 0.929 . S
H1048 C1036 0.960 . S
H1049 C1036 0.962 . S
H1050 C1036 0.960 . S
H1051 C1037 0.961 . S
H1052 C1037 0.961 . S
H1053 C1037 0.961 . S
H1054 C1038 0.931 . S
H1055 C1043 0.930 . S
H1056 C1044 0.956 . S
H1057 C1044 0.961 . S
H1058 C1044 0.961 . S
H1059 C1045 0.958 . S
H1060 C1045 0.961 . S
H1061 C1045 0.960 . S
C1062 C1063 1.391 . S
C1062 C1064 1.394 . S
C1062 H1078 0.931 . S
C1063 C1062 1.391 . S
C1063 C1067 1.376 . S
C1064 C1062 1.394 . S
C1064 C1065 1.369 . S
C1064 C1068 1.531 . S
C1065 C1064 1.369 . S
C1065 C1066 1.410 . S
C1065 C1073 1.503 . S
C1066 C1065 1.410 . S
C1066 C1067 1.392 . S
C1066 C1069 1.511 . S
C1067 C1063 1.376 . S
C1067 C1066 1.392 . S
C1067 H1079 0.929 . S
C1068 C1064 1.531 . S
C1068 H1080 0.960 . S
C1068 H1081 0.962 . S
C1068 H1082 0.960 . S
C1069 C1066 1.511 . S
C1069 H1083 0.961 . S
C1069 H1084 0.961 . S
C1069 H1085 0.961 . S
C1070 C1071 1.370 . S
C1070 C1072 1.363 . S
C1070 H1086 0.931 . S
C1071 C1070 1.370 . S
C1071 C1075 1.408 . S
C1072 C1070 1.363 . S
C1072 C1073 1.370 . S
C1072 C1076 1.524 . S
C1073 C1065 1.503 . S
C1073 C1072 1.370 . S
C1073 C1074 1.403 . S
C1074 C1073 1.403 . S
C1074 C1075 1.404 . S
C1074 C1077 1.539 . S
C1075 C1071 1.408 . S
C1075 C1074 1.404 . S
C1075 H1087 0.930 . S
C1076 C1072 1.524 . S
C1076 H1088 0.956 . S
C1076 H1089 0.961 . S
C1076 H1090 0.961 . S
C1077 C1074 1.539 . S
C1077 H1091 0.958 . S
C1077 H1092 0.961 . S
C1077 H1093 0.960 . S
H1078 C1062 0.931 . S
H1079 C1067 0.929 . S
H1080 C1068 0.960 . S
H1081 C1068 0.962 . S
H1082 C1068 0.960 . S
H1083 C1069 0.961 . S
H1084 C1069 0.961 . S
H1085 C1069 0.961 . S
H1086 C1070 0.931 . S
H1087 C1075 0.930 . S
H1088 C1076 0.956 . S
H1089 C1076 0.961 . S
H1090 C1076 0.961 . S
H1091 C1077 0.958 . S
H1092 C1077 0.961 . S
H1093 C1077 0.960 . S
C1094 C1095 1.391 . S
C1094 C1096 1.394 . S
C1094 H1110 0.931 . S
C1095 C1094 1.391 . S
C1095 C1099 1.376 . S
C1096 C1094 1.394 . S
C1096 C1097 1.369 . S
C1096 C1100 1.531 . S
C1097 C1096 1.369 . S
C1097 C1098 1.410 . S
C1097 C1105 1.503 . S
C1098 C1097 1.410 . S
C1098 C1099 1.392 . S
C1098 C1101 1.511 . S
C1099 C1095 1.376 . S
C1099 C1098 1.392 . S
C1099 H1111 0.929 . S
C1100 C1096 1.531 . S
C1100 H1112 0.960 . S
C1100 H1113 0.962 . S
C1100 H1114 0.960 . S
C1101 C1098 1.511 . S
C1101 H1115 0.961 . S
C1101 H1116 0.961 . S
C1101 H1117 0.961 . S
C1102 C1103 1.370 . S
C1102 C1104 1.363 . S
C1102 H1118 0.931 . S
C1103 C1102 1.370 . S
C1103 C1107 1.408 . S
C1104 C1102 1.363 . S
C1104 C1105 1.370 . S
C1104 C1108 1.524 . S
C1105 C1097 1.503 . S
C1105 C1104 1.370 . S
C1105 C1106 1.403 . S
C1106 C1105 1.403 . S
C1106 C1107 1.404 . S
C1106 C1109 1.539 . S
C1107 C1103 1.408 . S
C1107 C1106 1.404 . S
C1107 H1119 0.930 . S
C1108 C1104 1.524 . S
C1108 H1120 0.956 . S
C1108 H1121 0.961 . S
C1108 H1122 0.961 . S
C1109 C1106 1.539 . S
C1109 H1123 0.958 . S
C1109 H1124 0.961 . S
C1109 H1125 0.960 . S
H1110 C1094 0.931 . S
H1111 C1099 0.929 . S
H1112 C1100 0.960 . S
H1113 C1100 0.962 . S
H1114 C1100 0.960 . S
H1115 C1101 0.961 . S
H1116 C1101 0.961 . S
H1117 C1101 0.961 . S
H1118 C1102 0.931 . S
H1119 C1107 0.930 . S
H1120 C1108 0.956 . S
H1121 C1108 0.961 . S
H1122 C1108 0.961 . S
H1123 C1109 0.958 . S
H1124 C1109 0.961 . S
H1125 C1109 0.960 . S
C1126 C1127 1.391 . S
C1126 C1128 1.394 . S
C1126 H1142 0.931 . S
C1127 C1126 1.391 . S
C1127 C1131 1.376 . S
C1128 C1126 1.394 . S
C1128 C1129 1.369 . S
C1128 C1132 1.531 . S
C1129 C1128 1.369 . S
C1129 C1130 1.410 . S
C1129 C1137 1.503 . S
C1130 C1129 1.410 . S
C1130 C1131 1.392 . S
C1130 C1133 1.511 . S
C1131 C1127 1.376 . S
C1131 C1130 1.392 . S
C1131 H1143 0.929 . S
C1132 C1128 1.531 . S
C1132 H1144 0.960 . S
C1132 H1145 0.962 . S
C1132 H1146 0.960 . S
C1133 C1130 1.511 . S
C1133 H1147 0.961 . S
C1133 H1148 0.961 . S
C1133 H1149 0.961 . S
C1134 C1135 1.370 . S
C1134 C1136 1.363 . S
C1134 H1150 0.931 . S
C1135 C1134 1.370 . S
C1135 C1139 1.408 . S
C1136 C1134 1.363 . S
C1136 C1137 1.370 . S
C1136 C1140 1.524 . S
C1137 C1129 1.503 . S
C1137 C1136 1.370 . S
C1137 C1138 1.403 . S
C1138 C1137 1.403 . S
C1138 C1139 1.404 . S
C1138 C1141 1.539 . S
C1139 C1135 1.408 . S
C1139 C1138 1.404 . S
C1139 H1151 0.930 . S
C1140 C1136 1.524 . S
C1140 H1152 0.956 . S
C1140 H1153 0.961 . S
C1140 H1154 0.961 . S
C1141 C1138 1.539 . S
C1141 H1155 0.958 . S
C1141 H1156 0.961 . S
C1141 H1157 0.960 . S
H1142 C1126 0.931 . S
H1143 C1131 0.929 . S
H1144 C1132 0.960 . S
H1145 C1132 0.962 . S
H1146 C1132 0.960 . S
H1147 C1133 0.961 . S
H1148 C1133 0.961 . S
H1149 C1133 0.961 . S
H1150 C1134 0.931 . S
H1151 C1139 0.930 . S
H1152 C1140 0.956 . S
H1153 C1140 0.961 . S
H1154 C1140 0.961 . S
H1155 C1141 0.958 . S
H1156 C1141 0.961 . S
H1157 C1141 0.960 . S
C399 C94 1.548 . S
C391 C4 1.542 . S
C431 C163 1.543 . S
C423 C13 1.539 . S
C463 C101 1.539 . S
C455 C25 1.544 . S
C495 C164 1.536 . S
C487 C34 1.541 . S
C527 C217 1.543 . S
C519 C7 1.530 . S
C559 C253 1.520 . S
C551 C14 1.508 . S
C583 C23 1.524 . S
C591 C313 1.528 . S
C623 C376 1.523 . S
C615 C31 1.515 . S
C655 C216 1.538 . S
C647 C16 1.536 . S
C679 C22 1.513 . S
C687 C260 1.522 . S
C719 C306 1.533 . S
C711 C32 1.526 . S
C751 C375 1.525 . S
C743 C5 1.512 . S
C775 C43 1.546 . S
C783 C154 1.551 . S
C815 C111 1.539 . S
C807 C52 1.546 . S
C839 C58 1.549 . S
C847 C147 1.539 . S
C871 C68 1.540 . S
C879 C110 1.543 . S
C911 C322 1.537 . S
C903 C40 1.541 . S
C943 C366 1.516 . S
C935 C50 1.513 . S
C975 C200 1.545 . S
C967 C59 1.544 . S
C999 C70 1.510 . S
C1007 C269 1.509 . S
C1039 C323 1.537 . S
C1031 C49 1.529 . S
C1071 C359 1.513 . S
C1063 C61 1.502 . S
C1103 C207 1.544 . S
C1095 C67 1.553 . S
C1127 C41 1.510 . S
C1135 C270 1.513 . S
