# Generated by pormake.
# Topology pth, (4,4)-cn, num edge types: 1
# Building blocks:
#     Node 0, Type 0, BuildingBlock: GALJAG_clean_sbu_0, # of connection points: 4
#     Node 1, Type 0, BuildingBlock: GALJAG_clean_sbu_0, # of connection points: 4
#     Node 2, Type 0, BuildingBlock: GALJAG_clean_sbu_0, # of connection points: 4
#     Node 3, Type 1, BuildingBlock: NAHDIM_clean_linker_0, # of connection points: 4
#     Node 4, Type 1, BuildingBlock: NAHDIM_clean_linker_0, # of connection points: 4
#     Node 5, Type 1, BuildingBlock: NAHDIM_clean_linker_0, # of connection points: 4
#     Edge 6, Type (0, 1), BuildingBlock: EZIPEK_clean_linker_0, # of connection points: 2
#     Edge 7, Type (0, 1), BuildingBlock: EZIPEK_clean_linker_0, # of connection points: 2
#     Edge 8, Type (0, 1), BuildingBlock: EZIPEK_clean_linker_0, # of connection points: 2
#     Edge 9, Type (0, 1), BuildingBlock: EZIPEK_clean_linker_0, # of connection points: 2
#     Edge 10, Type (0, 1), BuildingBlock: EZIPEK_clean_linker_0, # of connection points: 2
#     Edge 11, Type (0, 1), BuildingBlock: EZIPEK_clean_linker_0, # of connection points: 2
#     Edge 12, Type (0, 1), BuildingBlock: EZIPEK_clean_linker_0, # of connection points: 2
#     Edge 13, Type (0, 1), BuildingBlock: EZIPEK_clean_linker_0, # of connection points: 2
#     Edge 14, Type (0, 1), BuildingBlock: EZIPEK_clean_linker_0, # of connection points: 2
#     Edge 15, Type (0, 1), BuildingBlock: EZIPEK_clean_linker_0, # of connection points: 2
#     Edge 16, Type (0, 1), BuildingBlock: EZIPEK_clean_linker_0, # of connection points: 2
#     Edge 17, Type (0, 1), BuildingBlock: EZIPEK_clean_linker_0, # of connection points: 2
# Relax obj value: 0.024
# Max RMSD: 0.068
# Mean RMSD: 0.066
data_MOF--net-pth--node1-GALJAG_clean_sbu_0--node2-NAHDIM_clean_linker_0--edge1-EZIPEK_clean_linker_0
_symmetry_space_group_name_H-M    P1
_symmetry_Int_Tables_number       1
_symmetry_cell_setting            triclinic
loop_
_symmetry_equiv_pos_as_xyz
'x, y, z'
_cell_length_a     26.258139
_cell_length_b     26.157536
_cell_length_c     64.009694
_cell_angle_alpha  89.789094
_cell_angle_beta   91.049051
_cell_angle_gamma 120.03145
loop_
_atom_site_label
_atom_site_type_symbol
_atom_site_fract_x
_atom_site_fract_y
_atom_site_fract_z
_atom_type_partial_charge
In0 In 0.01758 0.99798 0.06456 0.0
O1 O 0.99197 0.05706 0.08248 0.0
O2 O 0.06754 0.05344 0.09292 0.0
C3 C 0.91147 0.92147 0.04778 0.0
C4 C 0.08261 0.07791 0.03561 0.0
C5 C 0.04216 0.9162 0.07937 0.0
O6 O 0.91726 0.9417 0.0661 0.0
O7 O 0.95875 0.94045 0.03803 0.0
O8 O 0.0599 0.94023 0.06181 0.0
O9 O 0.01285 0.93386 0.08935 0.0
C10 C 0.0343 0.07467 0.09547 0.0
O11 O 0.10344 0.05309 0.04708 0.0
O12 O 0.02951 0.06223 0.03868 0.0
In13 In 0.02237 0.0282 0.38805 0.0
O14 O 0.08567 0.12622 0.38323 0.0
O15 O 0.00205 0.08836 0.36781 0.0
C16 C 0.09645 0.01237 0.41323 0.0
C17 C 0.93698 0.0183 0.41319 0.0
C18 C 0.00839 0.95134 0.35744 0.0
O19 O 0.11298 0.05794 0.40226 0.0
O20 O 0.04237 0.97481 0.41174 0.0
O21 O 0.97053 0.93942 0.37125 0.0
O22 O 0.05239 0.00269 0.35853 0.0
C23 C 0.05068 0.13421 0.37182 0.0
O24 O 0.92569 0.99146 0.39589 0.0
O25 O 0.99086 0.04867 0.418 0.0
In26 In 0.0195 0.05682 0.73677 0.0
O27 O 0.97908 0.96403 0.75079 0.0
O28 O 0.95353 0.02263 0.76326 0.0
C29 C 0.09474 0.03746 0.71463 0.0
C30 C 0.9605 0.0782 0.70643 0.0
C31 C 0.08578 0.15948 0.75734 0.0
O32 O 0.04386 0.02298 0.70786 0.0
O33 O 0.10639 0.05846 0.7329 0.0
O34 O 0.03746 0.14644 0.7485 0.0
O35 O 0.0992 0.11944 0.75697 0.0
C36 C 0.94779 0.97192 0.7636 0.0
O37 O 0.01189 0.11575 0.71236 0.0
O38 O 0.93828 0.0292 0.71571 0.0
C39 C 0.9108 0.75604 0.28519 0.0
C40 C 0.96122 0.76216 0.29957 0.0
C41 C 0.01451 0.7178 0.28337 0.0
C42 C 0.07066 0.73083 0.27747 0.0
C43 C 0.08259 0.68588 0.27223 0.0
C44 C 0.03659 0.62633 0.27243 0.0
C45 C 0.9795 0.6127 0.27831 0.0
C46 C 0.96899 0.65854 0.28376 0.0
C47 C 0.14424 0.70211 0.26631 0.0
C48 C 0.92941 0.54968 0.2785 0.0
C49 C 0.16328 0.40845 0.37757 0.0
C50 C 0.12159 0.381 0.35865 0.0
C51 C 0.1301 0.43038 0.32506 0.0
C52 C 0.07002 0.40521 0.32 0.0
C53 C 0.0509 0.42907 0.30405 0.0
C54 C 0.09285 0.47861 0.29284 0.0
C55 C 0.15352 0.50318 0.29762 0.0
C56 C 0.17129 0.4783 0.31357 0.0
C57 C 0.98604 0.40113 0.29901 0.0
C58 C 0.19956 0.55583 0.28591 0.0
C59 C 0.12905 0.32339 0.17308 0.0
C60 C 0.06964 0.30801 0.17392 0.0
C61 C 0.05391 0.35016 0.17939 0.0
C62 C 0.09849 0.4088 0.18392 0.0
C63 C 0.15832 0.42471 0.18254 0.0
C64 C 0.17273 0.3817 0.17708 0.0
C65 C 0.98971 0.33207 0.18047 0.0
C66 C 0.20701 0.48703 0.18702 0.0
C67 C 0.08173 0.77549 0.14803 0.0
C68 C 0.08981 0.75599 0.1262 0.0
C69 C 0.06271 0.65484 0.13605 0.0
C70 C 0.01296 0.59897 0.13809 0.0
C71 C 0.01298 0.55742 0.15204 0.0
C72 C 0.06448 0.57208 0.16392 0.0
C73 C 0.11612 0.62716 0.16092 0.0
C74 C 0.11472 0.66798 0.14702 0.0
C75 C 0.95745 0.49884 0.15472 0.0
C76 C 0.17238 0.64366 0.17291 0.0
C77 C 0.04783 0.57856 0.26577 0.0
C78 C 0.0606 0.54837 0.28118 0.0
C79 C 0.07379 0.50452 0.27587 0.0
C80 C 0.07325 0.48938 0.25465 0.0
C81 C 0.08506 0.44462 0.24879 0.0
C82 C 0.08695 0.43182 0.22784 0.0
C83 C 0.07787 0.46381 0.21193 0.0
C84 C 0.08272 0.4533 0.19058 0.0
C85 C 0.07597 0.48767 0.17521 0.0
C86 C 0.06369 0.53208 0.18056 0.0
C87 C 0.05623 0.54157 0.20175 0.0
C88 C 0.04168 0.58442 0.20759 0.0
C89 C 0.03741 0.59557 0.22852 0.0
C90 C 0.04857 0.56507 0.24444 0.0
C91 C 0.0616 0.5205 0.23888 0.0
C92 C 0.06463 0.5082 0.2175 0.0
C93 C 0.15296 0.19774 0.17188 0.0
C94 C 0.11262 0.22321 0.16733 0.0
O95 O 0.00626 0.76376 0.28812 0.0
O96 O 0.05839 0.69506 0.12376 0.0
O97 O 0.14646 0.2841 0.16806 0.0
O98 O 0.15033 0.40933 0.34059 0.0
H99 H 0.94003 0.72196 0.30939 0.0
H100 H 0.88742 0.71129 0.27802 0.0
H101 H 0.92622 0.78806 0.27221 0.0
H102 H 0.87842 0.76166 0.29438 0.0
H103 H 0.10543 0.77663 0.27713 0.0
H104 H 0.92497 0.64765 0.2879 0.0
H105 H 0.15899 0.67563 0.2755 0.0
H106 H 0.17617 0.74974 0.26894 0.0
H107 H 0.1447 0.69171 0.24954 0.0
H108 H 0.88712 0.54638 0.28287 0.0
H109 H 0.93978 0.52366 0.28977 0.0
H110 H 0.92395 0.52936 0.26281 0.0
H111 H 0.08712 0.3923 0.36156 0.0
H112 H 0.13951 0.38829 0.39222 0.0
H113 H 0.17946 0.45664 0.37827 0.0
H114 H 0.20197 0.4022 0.37692 0.0
H115 H 0.03815 0.36645 0.32818 0.0
H116 H 0.21762 0.49682 0.31741 0.0
H117 H 0.97762 0.38718 0.28234 0.0
H118 H 0.97171 0.43409 0.30128 0.0
H119 H 0.95898 0.36215 0.30893 0.0
H120 H 0.24472 0.57133 0.29219 0.0
H121 H 0.19028 0.59277 0.28678 0.0
H122 H 0.19793 0.54409 0.26917 0.0
H123 H 0.08279 0.20911 0.18076 0.0
H124 H 0.0355 0.26354 0.17017 0.0
H125 H 0.21844 0.39329 0.1761 0.0
H126 H 0.97959 0.33982 0.19653 0.0
H127 H 0.96025 0.28484 0.1763 0.0
H128 H 0.98014 0.3597 0.1697 0.0
H129 H 0.25136 0.49244 0.18494 0.0
H130 H 0.20383 0.49948 0.2033 0.0
H131 H 0.2021 0.51811 0.17645 0.0
H132 H 0.13734 0.77123 0.12547 0.0
H133 H 0.1019 0.8243 0.14868 0.0
H134 H 0.10409 0.76303 0.1602 0.0
H135 H 0.03484 0.75508 0.15224 0.0
H136 H 0.97329 0.5889 0.12932 0.0
H137 H 0.15414 0.71028 0.14504 0.0
H138 H 0.94262 0.49462 0.1711 0.0
H139 H 0.96642 0.46231 0.15173 0.0
H140 H 0.92132 0.49367 0.14404 0.0
H141 H 0.21026 0.68516 0.16713 0.0
H142 H 0.18292 0.60764 0.17177 0.0
H143 H 0.16654 0.64969 0.18968 0.0
H144 H 0.06163 0.56013 0.29748 0.0
H145 H 0.09324 0.41914 0.26036 0.0
H146 H 0.09658 0.39714 0.22428 0.0
H147 H 0.08201 0.48091 0.15893 0.0
H148 H 0.0336 0.61 0.19604 0.0
H149 H 0.02626 0.62919 0.23205 0.0
H150 H 0.12708 0.14869 0.17196 0.0
H151 H 0.17469 0.21309 0.18746 0.0
H152 H 0.18769 0.21228 0.15995 0.0
C153 C 0.34816 0.10897 0.69277 0.0
C154 C 0.30464 0.07724 0.67449 0.0
C155 C 0.35887 0.04328 0.65283 0.0
C156 C 0.40069 0.09905 0.6452 0.0
C157 C 0.44644 0.10542 0.63245 0.0
C158 C 0.45083 0.05525 0.62734 0.0
C159 C 0.40873 0.99909 0.63487 0.0
C160 C 0.36312 0.99389 0.64741 0.0
C161 C 0.49038 0.1659 0.62454 0.0
C162 C 0.41224 0.94464 0.62981 0.0
C163 C 0.92908 0.20226 0.62745 0.0
C164 C 0.87096 0.15633 0.63717 0.0
C165 C 0.77827 0.15719 0.63684 0.0
C166 C 0.73909 0.0963 0.63843 0.0
C167 C 0.67997 0.07191 0.63203 0.0
C168 C 0.66009 0.10935 0.62389 0.0
C169 C 0.69866 0.1712 0.62368 0.0
C170 C 0.75726 0.19435 0.6304 0.0
C171 C 0.63945 0.00601 0.63308 0.0
C172 C 0.67872 0.21258 0.61543 0.0
C173 C 0.71038 0.02191 0.49294 0.0
C174 C 0.6675 0.97172 0.50304 0.0
C175 C 0.62219 0.97276 0.51394 0.0
C176 C 0.62 0.02562 0.51481 0.0
C177 C 0.66297 0.07661 0.50454 0.0
C178 C 0.70768 0.07428 0.49366 0.0
C179 C 0.57698 0.91757 0.52472 0.0
C180 C 0.66185 0.13371 0.5052 0.0
C181 C 0.26325 0.91811 0.44957 0.0
C182 C 0.25108 0.95913 0.46332 0.0
C183 C 0.34054 0.00762 0.48591 0.0
C184 C 0.33239 0.95705 0.49659 0.0
C185 C 0.37591 0.9602 0.51052 0.0
C186 C 0.42748 0.0152 0.51425 0.0
C187 C 0.43407 0.0666 0.5044 0.0
C188 C 0.39068 0.06192 0.49023 0.0
C189 C 0.36758 0.90468 0.52086 0.0
C190 C 0.48784 0.12631 0.50834 0.0
C191 C 0.49997 0.06148 0.61442 0.0
C192 C 0.55414 0.07886 0.6244 0.0
C193 C 0.60171 0.08398 0.61325 0.0
C194 C 0.59468 0.06901 0.59178 0.0
C195 C 0.64074 0.07054 0.58039 0.0
C196 C 0.6336 0.05606 0.55927 0.0
C197 C 0.58077 0.0413 0.54856 0.0
C198 C 0.57364 0.02792 0.52698 0.0
C199 C 0.52218 0.01734 0.51649 0.0
C200 C 0.47685 0.0189 0.52706 0.0
C201 C 0.48164 0.02871 0.5489 0.0
C202 C 0.43582 0.02783 0.56022 0.0
C203 C 0.44124 0.03759 0.58174 0.0
C204 C 0.49342 0.05044 0.59262 0.0
C205 C 0.54063 0.05304 0.58139 0.0
C206 C 0.53418 0.04063 0.55963 0.0
C207 C 0.84997 0.10428 0.48647 0.0
C208 C 0.79981 0.06067 0.47184 0.0
O209 O 0.31413 0.03476 0.66545 0.0
O210 O 0.3025 0.00667 0.47105 0.0
O211 O 0.75334 0.01751 0.48295 0.0
O212 O 0.83661 0.18158 0.64116 0.0
H213 H 0.31386 0.11264 0.66308 0.0
H214 H 0.3936 0.13545 0.68692 0.0
H215 H 0.34846 0.07794 0.70451 0.0
H216 H 0.33697 0.13975 0.70067 0.0
H217 H 0.39839 0.13799 0.64906 0.0
H218 H 0.33073 0.95107 0.6533 0.0
H219 H 0.53403 0.1802 0.63197 0.0
H220 H 0.47753 0.19943 0.62806 0.0
H221 H 0.49515 0.16435 0.60739 0.0
H222 H 0.37785 0.90471 0.63776 0.0
H223 H 0.45616 0.95152 0.63453 0.0
H224 H 0.40701 0.9366 0.61269 0.0
H225 H 0.84953 0.12383 0.62439 0.0
H226 H 0.95501 0.18113 0.62301 0.0
H227 H 0.95645 0.2395 0.63823 0.0
H228 H 0.91992 0.22055 0.6131 0.0
H229 H 0.75466 0.06788 0.6445 0.0
H230 H 0.78773 0.24147 0.62971 0.0
H231 H 0.59744 0.9959 0.64041 0.0
H232 H 0.65946 0.98381 0.64204 0.0
H233 H 0.62887 0.98738 0.61699 0.0
H234 H 0.71357 0.25968 0.61699 0.0
H235 H 0.63945 0.20575 0.624 0.0
H236 H 0.66577 0.20269 0.59868 0.0
H237 H 0.78558 0.08839 0.46325 0.0
H238 H 0.66987 0.93156 0.50241 0.0
H239 H 0.74026 0.11374 0.48598 0.0
H240 H 0.57963 0.9257 0.54183 0.0
H241 H 0.58334 0.8793 0.52181 0.0
H242 H 0.5321 0.90611 0.51925 0.0
H243 H 0.70021 0.17037 0.49736 0.0
H244 H 0.6614 0.14673 0.52166 0.0
H245 H 0.62098 0.12723 0.49737 0.0
H246 H 0.22466 0.93054 0.47629 0.0
H247 H 0.27232 0.88853 0.45944 0.0
H248 H 0.22412 0.88938 0.43959 0.0
H249 H 0.3019 0.94272 0.43951 0.0
H250 H 0.29294 0.91496 0.49396 0.0
H251 H 0.39619 0.10078 0.48212 0.0
H252 H 0.3699 0.91019 0.5381 0.0
H253 H 0.40369 0.89668 0.51641 0.0
H254 H 0.32482 0.86531 0.51645 0.0
H255 H 0.48296 0.16273 0.50147 0.0
H256 H 0.52663 0.12721 0.50134 0.0
H257 H 0.49677 0.13441 0.52538 0.0
H258 H 0.55958 0.08936 0.64096 0.0
H259 H 0.68277 0.08241 0.58767 0.0
H260 H 0.67042 0.05751 0.55138 0.0
H261 H 0.51793 0.00915 0.49976 0.0
H262 H 0.39503 0.01893 0.55259 0.0
H263 H 0.40438 0.03585 0.5897 0.0
H264 H 0.88809 0.13601 0.47713 0.0
H265 H 0.86508 0.08211 0.49766 0.0
H266 H 0.83529 0.13009 0.49577 0.0
C267 C 0.83491 0.7702 0.83277 0.0
C268 C 0.79359 0.77794 0.81734 0.0
C269 C 0.69674 0.73514 0.83412 0.0
C270 C 0.65592 0.74902 0.84207 0.0
C271 C 0.60126 0.7049 0.84931 0.0
C272 C 0.58747 0.64526 0.84883 0.0
C273 C 0.62836 0.63065 0.84072 0.0
C274 C 0.68256 0.67567 0.83339 0.0
C275 C 0.55845 0.72205 0.85763 0.0
C276 C 0.61495 0.56743 0.84003 0.0
C277 C 0.19651 0.43147 0.75961 0.0
C278 C 0.22862 0.41022 0.77441 0.0
C279 C 0.28027 0.45411 0.8075 0.0
C280 C 0.31645 0.42888 0.80866 0.0
C281 C 0.36527 0.45179 0.82243 0.0
C282 C 0.37752 0.50041 0.83541 0.0
C283 C 0.3403 0.52509 0.83455 0.0
C284 C 0.29175 0.50111 0.82071 0.0
C285 C 0.40327 0.42364 0.82336 0.0
C286 C 0.35177 0.57678 0.84824 0.0
C287 C 0.23245 0.33024 0.95896 0.0
C288 C 0.27911 0.31966 0.95563 0.0
C289 C 0.33336 0.36472 0.94841 0.0
C290 C 0.34129 0.42161 0.94478 0.0
C291 C 0.29504 0.4329 0.94881 0.0
C292 C 0.24117 0.38692 0.95585 0.0
C293 C 0.38218 0.35155 0.94455 0.0
C294 C 0.30239 0.49336 0.9455 0.0
C295 C 0.72941 0.79408 0.97689 0.0
C296 C 0.70318 0.7706 -0.00145 0.0
C297 C 0.62913 0.67062 0.98703 0.0
C298 C 0.62284 0.61508 0.98344 0.0
C299 C 0.5792 0.57451 0.96965 0.0
C300 C 0.54032 0.58976 0.95958 0.0
C301 C 0.54439 0.64467 0.96404 0.0
C302 C 0.58888 0.68463 0.97767 0.0
C303 C 0.57563 0.51612 0.96538 0.0
C304 C 0.5024 0.66166 0.9541 0.0
C305 C 0.53081 0.59829 0.85724 0.0
C306 C 0.48297 0.56871 0.84337 0.0
C307 C 0.42817 0.52481 0.85037 0.0
C308 C 0.42103 0.50851 0.87165 0.0
C309 C 0.36726 0.4627 0.87901 0.0
C310 C 0.3599 0.44864 0.90014 0.0
C311 C 0.40559 0.48079 0.91477 0.0
C312 C 0.39762 0.46903 0.93641 0.0
C313 C 0.44289 0.50395 0.95061 0.0
C314 C 0.49678 0.54973 0.94373 0.0
C315 C 0.50672 0.56002 0.92209 0.0
C316 C 0.56147 0.6037 0.9146 0.0
C317 C 0.56996 0.61534 0.89333 0.0
C318 C 0.52367 0.5846 0.87878 0.0
C319 C 0.46855 0.53949 0.88597 0.0
C320 C 0.46044 0.5264 0.9076 0.0
C321 C 0.09026 0.19749 0.96123 0.0
C322 C 0.15645 0.2274 0.96588 0.0
O323 O 0.74904 0.78061 0.82767 0.0
O324 O 0.67482 0.70946 -0.00061 0.0
O325 O 0.17893 0.28784 0.96568 0.0
O326 O 0.2333 0.43374 0.79417 0.0
H327 H 0.77515 0.73797 0.80727 0.0
H328 H 0.81166 0.72553 0.83978 0.0
H329 H 0.85059 0.80239 0.84584 0.0
H330 H 0.87361 0.77452 0.82444 0.0
H331 H 0.66713 0.79491 0.84258 0.0
H332 H 0.7135 0.66382 0.8274 0.0
H333 H 0.51526 0.69651 0.84938 0.0
H334 H 0.57435 0.76993 0.85577 0.0
H335 H 0.55126 0.711 0.87447 0.0
H336 H 0.65169 0.56325 0.83357 0.0
H337 H 0.57481 0.54058 0.83027 0.0
H338 H 0.6058 0.5487 0.85602 0.0
H339 H 0.27318 0.43103 0.76788 0.0
H340 H 0.19524 0.41523 0.74348 0.0
H341 H 0.22035 0.48052 0.75932 0.0
H342 H 0.15075 0.41597 0.76443 0.0
H343 H 0.30592 0.39059 0.79924 0.0
H344 H 0.26295 0.51964 0.8199 0.0
H345 H 0.44919 0.45687 0.81942 0.0
H346 H 0.38743 0.38554 0.81243 0.0
H347 H 0.40407 0.4083 0.8395 0.0
H348 H 0.32094 0.59325 0.84469 0.0
H349 H 0.39753 0.61351 0.84621 0.0
H350 H 0.34715 0.56343 0.8649 0.0
H351 H 0.17426 0.21509 0.95247 0.0
H352 H 0.27374 0.27669 0.95876 0.0
H353 H 0.20522 0.39491 0.95882 0.0
H354 H 0.396 0.36129 0.92803 0.0
H355 H 0.36882 0.30479 0.94783 0.0
H356 H 0.421 0.38059 0.95458 0.0
H357 H 0.26322 0.49568 0.95041 0.0
H358 H 0.31002 0.5051 0.92872 0.0
H359 H 0.34153 0.52688 0.95445 0.0
H360 H 0.6704 0.78484 0.00056 0.0
H361 H 0.75643 0.84306 0.97732 0.0
H362 H 0.69384 0.78213 0.96501 0.0
H363 H 0.75716 0.77608 0.97148 0.0
H364 H 0.65362 0.60437 0.99096 0.0
H365 H 0.59203 0.72671 0.9808 0.0
H366 H 0.58021 0.5114 0.94838 0.0
H367 H 0.53184 0.47948 0.96993 0.0
H368 H 0.61019 0.51157 0.97403 0.0
H369 H 0.50658 0.70233 0.96119 0.0
H370 H 0.45629 0.6252 0.95564 0.0
H371 H 0.51148 0.66951 0.93717 0.0
H372 H 0.4881 0.58096 0.827 0.0
H373 H 0.33022 0.43719 0.86852 0.0
H374 H 0.31752 0.41301 0.90489 0.0
H375 H 0.43564 0.49623 0.96724 0.0
H376 H 0.59838 0.62945 0.92512 0.0
H377 H 0.61299 0.64955 0.8885 0.0
H378 H 0.07055 0.14872 0.96058 0.0
H379 H 0.08226 0.21242 0.94587 0.0
H380 H 0.06791 0.20883 0.97344 0.0
C381 C 0.10069 0.17404 0.11142 0.0
C382 C 0.04686 0.11972 0.11178 0.0
C383 C 0.02412 0.14661 0.14564 0.0
C384 C 0.08061 0.19899 0.14607 0.0
N385 N 0.15539 0.27413 0.12426 0.0
N386 N 0.95083 0.06001 0.12647 0.0
C387 C 0.11364 0.21651 0.12738 0.0
C388 C 0.00621 0.10815 0.12791 0.0
N389 N 0.14001 0.18528 0.0959 0.0
N390 N 0.98826 0.13241 0.16246 0.0
H391 H 0.93734 0.02854 0.11458 0.0
H392 H 0.91677 0.05277 0.13631 0.0
H393 H 0.9936 0.16276 0.17397 0.0
H394 H 0.9524 0.09056 0.16495 0.0
H395 H 0.1832 0.22032 0.09654 0.0
H396 H 0.13098 0.15774 0.08298 0.0
H397 H 0.17762 0.28953 0.11028 0.0
H398 H 0.16112 0.30846 0.13391 0.0
C399 C 0.8518 0.03426 0.41998 0.0
C400 C 0.89097 0.01498 0.42703 0.0
C401 C 0.85349 0.00383 0.46245 0.0
C402 C 0.82108 0.0317 0.45608 0.0
N403 N 0.76503 0.04053 0.42745 0.0
N404 N 0.9206 0.96991 0.45402 0.0
C405 C 0.81255 0.03673 0.43437 0.0
C406 C 0.88888 0.99601 0.44791 0.0
N407 N 0.85416 0.05346 0.39995 0.0
N408 N 0.84996 0.98203 0.48203 0.0
H409 H 0.94459 0.95997 0.44362 0.0
H410 H 0.92129 0.95671 0.46939 0.0
H411 H 0.8216 0.9811 0.49341 0.0
H412 H 0.8216 0.9811 0.49341 0.0
H413 H 0.83205 0.07517 0.3949 0.0
H414 H 0.88137 0.05169 0.38869 0.0
H415 H 0.75394 0.03953 0.41169 0.0
H416 H 0.73217 0.0362 0.43745 0.0
C417 C 0.91065 0.93263 0.79928 0.0
C418 C 0.90517 0.92458 0.77729 0.0
C419 C 0.81596 0.82807 0.78157 0.0
C420 C 0.8264 0.83279 0.80354 0.0
N421 N 0.8627 0.90167 0.83253 0.0
N422 N 0.8522 0.86582 0.74704 0.0
C423 C 0.86755 0.88874 0.81227 0.0
C424 C 0.85756 0.87267 0.76829 0.0
N425 N 0.95873 0.98072 0.8079 0.0
N426 N 0.76369 0.78383 0.77361 0.0
H427 H 0.87826 0.89933 0.73669 0.0
H428 H 0.8238 0.82598 0.73958 0.0
H429 H 0.72926 0.75488 0.78305 0.0
H430 H 0.75097 0.78027 0.75795 0.0
H431 H 0.96854 0.98517 0.82386 0.0
H432 H 0.99182 0.01372 0.79901 0.0
H433 H 0.88809 0.94354 0.83913 0.0
H434 H 0.82809 0.87301 0.84192 0.0
C435 C 0.00338 0.81629 0.09529 0.0
C436 C 0.05185 0.86854 0.08749 0.0
C437 C 0.11605 0.82859 0.09613 0.0
C438 C 0.07189 0.78547 0.10904 0.0
N439 N 0.96896 0.73312 0.11858 0.0
N440 N 0.15665 0.92657 0.08191 0.0
C441 C 0.01389 0.7772 0.10772 0.0
C442 C 0.10879 0.87509 0.08803 0.0
N443 N 0.94722 0.80299 0.0902 0.0
N444 N 0.16373 0.82395 0.09087 0.0
H445 H 0.15411 0.96286 0.0765 0.0
H446 H 0.19965 0.9351 0.08412 0.0
H447 H 0.16715 0.78684 0.09447 0.0
H448 H 0.19503 0.85232 0.08033 0.0
H449 H 0.91015 0.76264 0.09351 0.0
H450 H 0.93783 0.82977 0.08068 0.0
H451 H 0.92881 0.73113 0.12078 0.0
H452 H 0.97195 0.69943 0.12612 0.0
C453 C 0.18891 0.00767 0.41765 0.0
C454 C 0.13792 0.00342 0.42654 0.0
C455 C 0.16739 0.98349 0.46077 0.0
C456 C 0.21613 0.98311 0.45148 0.0
N457 N 0.28805 0.02837 0.42431 0.0
N458 N 0.08242 0.99528 0.45735 0.0
C459 C 0.23159 0.00539 0.43086 0.0
C460 C 0.12825 0.99354 0.44827 0.0
N461 N 0.1956 0.01104 0.39647 0.0
N462 N 0.15902 0.97858 0.48179 0.0
H463 H 0.05438 0.00606 0.4492 0.0
H464 H 0.07347 0.98729 0.47323 0.0
H465 H 0.1884 0.97752 0.49274 0.0
H466 H 0.1884 0.97752 0.49274 0.0
H467 H 0.22915 0.00791 0.3892 0.0
H468 H 0.16449 0.01074 0.38603 0.0
H469 H 0.30229 0.04944 0.40999 0.0
H470 H 0.32236 0.03423 0.43428 0.0
C471 C 0.18195 0.25416 0.75548 0.0
C472 C 0.12672 0.22003 0.76498 0.0
C473 C 0.13996 0.30768 0.78349 0.0
C474 C 0.19701 0.34221 0.77453 0.0
N475 N 0.27892 0.33901 0.75842 0.0
N476 N 0.0608 0.20977 0.79227 0.0
C477 C 0.22026 0.31264 0.76264 0.0
C478 C 0.10834 0.24539 0.7804 0.0
N479 N 0.19696 0.23233 0.73876 0.0
N480 N 0.11401 0.33369 0.79408 0.0
H481 H 0.03689 0.16397 0.79034 0.0
H482 H 0.04895 0.22477 0.80535 0.0
H483 H 0.13398 0.37836 0.79764 0.0
H484 H 0.06985 0.31103 0.79815 0.0
H485 H 0.2336 0.25837 0.72971 0.0
H486 H 0.17016 0.19014 0.73257 0.0
H487 H 0.29752 0.31642 0.75144 0.0
H488 H 0.31079 0.3799 0.76424 0.0
C489 C 0.90882 0.05892 0.67152 0.0
C490 C 0.92861 0.09217 0.69024 0.0
C491 C 0.90554 0.16503 0.67578 0.0
C492 C 0.88267 0.13026 0.65705 0.0
N493 N 0.84378 0.03219 0.64155 0.0
N494 N 0.92851 0.16573 0.71264 0.0
C495 C 0.87831 0.07349 0.65626 0.0
C496 C 0.92132 0.1416 0.69314 0.0
N497 N 0.92124 0.0149 0.66779 0.0
N498 N 0.91509 0.22138 0.67703 0.0
H499 H 0.93924 0.14908 0.7258 0.0
H500 H 0.91749 0.19783 0.71615 0.0
H501 H 0.90408 0.24224 0.66546 0.0
H502 H 0.93901 0.25009 0.68927 0.0
H503 H 0.9141 0.99423 0.65327 0.0
H504 H 0.94361 0.00276 0.6785 0.0
H505 H 0.83603 0.98903 0.64179 0.0
H506 H 0.81608 0.03695 0.63094 0.0
C507 C 0.80428 0.88316 0.03901 0.0
C508 C 0.85434 0.8761 0.03859 0.0
C509 C 0.80094 0.78921 0.01582 0.0
C510 C 0.75123 0.79766 0.01571 0.0
N511 N 0.69839 0.83302 0.03617 0.0
N512 N 0.89267 0.81061 0.03296 0.0
C513 C 0.75047 0.83842 0.03015 0.0
C514 C 0.85032 0.82541 0.02895 0.0
N515 N 0.80825 0.93356 0.04685 0.0
N516 N 0.80201 0.7477 0.00322 0.0
H517 H 0.92863 0.83506 0.04296 0.0
H518 H 0.889 0.77083 0.02823 0.0
H519 H 0.76564 0.71577 0.9949 0.0
H520 H 0.84026 0.7464 0.00034 0.0
H521 H 0.77401 0.94274 0.04544 0.0
H522 H 0.84717 0.96864 0.05289 0.0
H523 H 0.69582 0.85957 0.04773 0.0
H524 H 0.65776 0.79665 0.03208 0.0
C525 C 0.00302 0.85476 0.34998 0.0
C526 C 0.00432 0.90654 0.3424 0.0
C527 C -0.00021 0.87285 0.30642 0.0
C528 C 0.98637 0.81643 0.31403 0.0
N529 N 0.00619 0.76589 0.34178 0.0
N530 N 0.00155 0.96455 0.31345 0.0
C531 C 0.99696 0.81073 0.33553 0.0
C532 C 0.00294 0.91596 0.32062 0.0
N533 N 0.0072 0.84752 0.371 0.0
N534 N 0.01411 0.88686 0.28598 0.0
H535 H 0.00354 0.99719 0.3233 0.0
H536 H 0.99343 0.96995 0.29784 0.0
H537 H 0.01893 0.8588 0.27573 0.0
H538 H 0.02915 0.929 0.27999 0.0
H539 H 0.99814 0.80771 0.37779 0.0
H540 H 0.01766 0.88094 0.38194 0.0
H541 H 0.01864 0.76144 0.35689 0.0
H542 H 0.00877 0.73695 0.33126 0.0
C543 C 0.16839 0.00485 0.70921 0.0
C544 C 0.13955 0.03496 0.70167 0.0
C545 C 0.20316 0.06712 0.67122 0.0
C546 C 0.24048 0.0496 0.68132 0.0
N547 N 0.24405 0.98059 0.70616 0.0
N548 N 0.13168 0.09832 0.67566 0.0
C549 C 0.21885 0.01196 0.699 0.0
C550 C 0.15664 0.06611 0.68249 0.0
N551 N 0.14782 0.96913 0.72627 0.0
N552 N 0.21057 0.08217 0.65059 0.0
H553 H 0.09845 0.10053 0.68351 0.0
H554 H 0.1477 0.12719 0.66308 0.0
H555 H 0.24063 0.07776 0.64142 0.0
H556 H 0.18163 0.09077 0.64199 0.0
H557 H 0.16861 0.9472 0.73251 0.0
H558 H 0.10935 0.96038 0.73378 0.0
H559 H 0.27852 0.97922 0.69885 0.0
H560 H 0.27852 0.97922 0.69885 0.0
C561 C 0.14113 0.10898 0.00269 0.0
C562 C 0.11781 0.12352 0.02004 0.0
C563 C 0.15365 0.22287 0.00598 0.0
C564 C 0.16649 0.20442 0.98689 0.0
N565 N 0.2001 0.14291 0.97155 0.0
N566 N 0.10257 0.1945 0.03882 0.0
C567 C 0.16911 0.15148 0.9867 0.0
C568 C 0.12479 0.18075 0.02196 0.0
N569 N 0.13236 0.05309 0.00062 0.0
N570 N 0.17333 0.28131 0.00956 0.0
H571 H 0.0849 0.16671 0.05161 0.0
H572 H 0.09852 0.23206 0.03964 0.0
H573 H 0.20315 0.31445 -7e-05 0.0
H574 H 0.16858 0.29801 0.02367 0.0
H575 H 0.14134 0.03739 0.98707 0.0
H576 H 0.11192 0.02048 0.01187 0.0
H577 H 0.20798 0.10767 0.97142 0.0
H578 H 0.22467 0.17506 0.96061 0.0
C579 C 0.11498 0.22957 0.3537 0.0
C580 C 0.06415 0.194 0.36535 0.0
C581 C 0.0412 0.27379 0.36535 0.0
C582 C 0.09837 0.31399 0.35761 0.0
N583 N 0.19304 0.32778 0.34636 0.0
N584 N 0.9844 0.18613 0.38586 0.0
C585 C 0.1361 0.29122 0.3521 0.0
C586 C 0.02856 0.21696 0.37207 0.0
N587 N 0.14293 0.20435 0.34393 0.0
N588 N 0.99791 0.28827 0.36594 0.0
H589 H 0.97482 0.14524 0.39185 0.0
H590 H 0.96154 0.20407 0.39306 0.0
H591 H 0.00155 0.32683 0.35991 0.0
H592 H 0.95472 0.25785 0.36983 0.0
H593 H 0.17648 0.22687 0.3333 0.0
H594 H 0.12843 0.15926 0.34478 0.0
H595 H 0.22337 0.3134 0.34505 0.0
H596 H 0.21256 0.37314 0.34452 0.0
loop_
_geom_bond_atom_site_label_1
_geom_bond_atom_site_label_2
_geom_bond_distance
_geom_bond_site_symmetry_2
_ccdc_geom_bond_type
In0 O1 2.294 1_455 S
In0 O2 2.326 . S
In0 O6 2.266 1_445 S
In0 O7 2.326 1_445 S
In0 O8 2.266 1_545 S
In0 O9 2.326 1_445 S
In0 O11 2.294 . S
In0 O12 2.326 . S
O1 In0 2.294 1_655 S
O1 C10 1.240 1_655 S
O2 In0 2.326 . S
O2 C10 1.252 . S
C3 O6 1.252 . S
C3 O7 1.260 . S
C4 O11 1.240 . S
C4 O12 1.252 . S
C5 O8 1.252 . S
C5 O9 1.260 1_455 S
O6 In0 2.266 1_665 S
O6 C3 1.252 . S
O7 In0 2.326 1_665 S
O7 C3 1.260 . S
O8 In0 2.266 1_565 S
O8 C5 1.252 . S
O9 In0 2.326 1_665 S
O9 C5 1.260 1_655 S
C10 O1 1.240 1_455 S
C10 O2 1.252 . S
O11 In0 2.294 . S
O11 C4 1.240 . S
O12 In0 2.326 . S
O12 C4 1.252 . S
In13 O14 2.294 . S
In13 O15 2.326 1_455 S
In13 O19 2.266 . S
In13 O20 2.326 1_545 S
In13 O21 2.266 1_445 S
In13 O22 2.326 . S
In13 O24 2.294 1_455 S
In13 O25 2.333 . S
O14 In13 2.294 . S
O14 C23 1.240 . S
O15 In13 2.326 1_655 S
O15 C23 1.252 1_655 S
C16 O19 1.252 . S
C16 O20 1.260 1_545 S
C17 O24 1.240 . S
C17 O25 1.246 1_655 S
C18 O21 1.252 1_455 S
C18 O22 1.260 1_565 S
O19 In13 2.266 . S
O19 C16 1.252 . S
O20 In13 2.326 1_565 S
O20 C16 1.260 1_565 S
O21 In13 2.266 1_665 S
O21 C18 1.252 1_655 S
O22 In13 2.326 . S
O22 C18 1.260 1_545 S
C23 O14 1.240 . S
C23 O15 1.252 1_455 S
O24 In13 2.294 1_655 S
O24 C17 1.240 . S
O25 In13 2.333 . S
O25 C17 1.246 1_455 S
In26 O27 2.294 1_445 S
In26 O28 2.326 1_455 S
In26 O32 2.266 1_545 S
In26 O33 2.326 . S
In26 O34 2.266 . S
In26 O35 2.326 . S
In26 O37 2.294 1_455 S
In26 O38 2.326 1_445 S
O27 In26 2.294 1_665 S
O27 C36 1.240 . S
O28 In26 2.326 1_655 S
O28 C36 1.252 1_545 S
C29 O32 1.252 1_545 S
C29 O33 1.260 . S
C30 O37 1.240 . S
C30 O38 1.252 1_545 S
C31 O34 1.252 . S
C31 O35 1.260 . S
O32 In26 2.266 1_565 S
O32 C29 1.252 1_565 S
O33 In26 2.326 . S
O33 C29 1.260 . S
O34 In26 2.266 . S
O34 C31 1.252 . S
O35 In26 2.326 . S
O35 C31 1.260 . S
C36 O27 1.240 . S
C36 O28 1.252 1_565 S
O37 In26 2.294 1_655 S
O37 C30 1.240 . S
O38 In26 2.326 1_665 S
O38 C30 1.252 1_565 S
C39 C40 1.560 . S
C39 H100 0.959 . S
C39 H101 0.959 . S
C39 H102 0.960 . S
C40 C39 1.560 . S
C40 O95 1.426 . S
C40 H99 0.980 1_655 S
C41 C42 1.407 1_655 S
C41 C46 1.418 . S
C41 O95 1.334 . S
C42 C41 1.407 1_455 S
C42 C43 1.360 . S
C42 H103 0.929 . S
C43 C42 1.360 . S
C43 C44 1.401 . S
C43 C47 1.527 . S
C44 C43 1.401 . S
C44 C45 1.405 1_455 S
C44 C77 1.587 . S
C45 C44 1.405 1_655 S
C45 C46 1.332 . S
C45 C48 1.496 . S
C46 C41 1.418 . S
C46 C45 1.332 . S
C46 H104 0.929 . S
C47 C43 1.527 . S
C47 H105 0.959 . S
C47 H106 0.961 . S
C47 H107 0.961 . S
C48 C45 1.496 . S
C48 H108 0.960 . S
C48 H109 0.960 . S
C48 H110 0.961 . S
C49 C50 1.517 . S
C49 H112 0.961 . S
C49 H113 0.960 . S
C49 H114 0.959 . S
C50 C49 1.517 . S
C50 O98 1.468 . S
C50 H111 0.980 . S
C51 C52 1.349 . S
C51 C56 1.367 . S
C51 O98 1.408 . S
C52 C51 1.349 . S
C52 C53 1.407 . S
C52 H115 0.930 . S
C53 C52 1.407 . S
C53 C54 1.449 . S
C53 C57 1.535 1_455 S
C54 C53 1.449 . S
C54 C55 1.384 . S
C54 C79 1.553 . S
C55 C54 1.384 . S
C55 C56 1.364 . S
C55 C58 1.450 . S
C56 C51 1.367 . S
C56 C55 1.364 . S
C56 H116 0.931 . S
C57 C53 1.535 1_655 S
C57 H117 0.959 . S
C57 H118 0.961 . S
C57 H119 0.959 . S
C58 C55 1.450 . S
C58 H120 0.960 . S
C58 H121 0.960 . S
C58 H122 0.960 . S
C59 C60 1.309 . S
C59 C64 1.304 . S
C59 O97 1.435 . S
C60 C59 1.309 . S
C60 C61 1.476 . S
C60 H124 0.930 1_455 S
C61 C60 1.476 . S
C61 C62 1.400 . S
C61 C65 1.567 1_455 S
C62 C61 1.400 . S
C62 C63 1.373 . S
C62 C84 1.432 . S
C63 C62 1.373 . S
C63 C64 1.339 . S
C63 C66 1.530 . S
C64 C59 1.304 . S
C64 C63 1.339 . S
C64 H125 0.930 . S
C65 C61 1.567 1_655 S
C65 H126 0.961 . S
C65 H127 0.960 . S
C65 H128 0.958 . S
C66 C63 1.530 . S
C66 H129 0.961 . S
C66 H130 0.960 . S
C66 H131 0.960 . S
C67 C68 1.530 1_655 S
C67 H133 0.961 . S
C67 H134 0.961 . S
C67 H135 0.959 . S
C68 C67 1.530 1_455 S
C68 O96 1.412 1_455 S
C68 H132 0.980 . S
C69 C70 1.288 . S
C69 C74 1.377 1_655 S
C69 O96 1.393 . S
C70 C69 1.288 . S
C70 C71 1.369 . S
C70 H136 0.932 . S
C71 C70 1.369 . S
C71 C72 1.398 1_655 S
C71 C75 1.527 . S
C72 C71 1.398 1_455 S
C72 C73 1.380 . S
C72 C86 1.497 . S
C73 C72 1.380 . S
C73 C74 1.383 . S
C73 C76 1.603 . S
C74 C69 1.377 1_455 S
C74 C73 1.383 . S
C74 H137 0.929 . S
C75 C71 1.527 . S
C75 H138 0.961 . S
C75 H139 0.959 . S
C75 H140 0.959 . S
C76 C73 1.603 . S
C76 H141 0.960 . S
C76 H142 0.962 . S
C76 H143 0.961 . S
C77 C44 1.587 . S
C77 C78 1.360 . S
C77 C90 1.412 . S
C78 C77 1.360 . S
C78 C79 1.365 . S
C78 H144 0.929 . S
C79 C54 1.553 . S
C79 C78 1.365 . S
C79 C80 1.404 . S
C80 C79 1.404 . S
C80 C81 1.395 . S
C80 C91 1.451 . S
C81 C80 1.395 . S
C81 C82 1.322 . S
C81 H145 0.930 . S
C82 C81 1.322 . S
C82 C83 1.459 . S
C82 H146 0.929 . S
C83 C82 1.459 . S
C83 C84 1.445 . S
C83 C92 1.395 . S
C84 C62 1.432 . S
C84 C83 1.445 . S
C84 C85 1.370 . S
C85 C84 1.370 . S
C85 C86 1.438 . S
C85 H147 0.930 . S
C86 C72 1.497 . S
C86 C85 1.438 . S
C86 C87 1.360 . S
C87 C86 1.360 . S
C87 C88 1.401 . S
C87 C92 1.446 . S
C88 C87 1.401 . S
C88 C89 1.347 . S
C88 H148 0.929 . S
C89 C88 1.347 . S
C89 C90 1.455 . S
C89 H149 0.930 . S
C90 C77 1.412 . S
C90 C89 1.455 . S
C90 C91 1.331 . S
C91 C80 1.451 . S
C91 C90 1.331 . S
C91 C92 1.497 . S
C92 C83 1.395 . S
C92 C87 1.446 . S
C92 C91 1.497 . S
C93 C94 1.582 . S
C93 H150 0.962 . S
C93 H151 0.959 . S
C93 H152 0.958 . S
C94 C93 1.582 . S
C94 O97 1.458 . S
C94 H123 0.980 . S
O95 C40 1.426 . S
O95 C41 1.334 . S
O96 C68 1.412 1_655 S
O96 C69 1.393 . S
O97 C59 1.435 . S
O97 C94 1.458 . S
O98 C50 1.468 . S
O98 C51 1.408 . S
H99 C40 0.980 1_455 S
H100 C39 0.959 . S
H101 C39 0.959 . S
H102 C39 0.960 . S
H103 C42 0.929 . S
H104 C46 0.929 . S
H105 C47 0.959 . S
H106 C47 0.961 . S
H107 C47 0.961 . S
H108 C48 0.960 . S
H109 C48 0.960 . S
H110 C48 0.961 . S
H111 C50 0.980 . S
H112 C49 0.961 . S
H113 C49 0.960 . S
H114 C49 0.959 . S
H115 C52 0.930 . S
H116 C56 0.931 . S
H117 C57 0.959 . S
H118 C57 0.961 . S
H119 C57 0.959 . S
H120 C58 0.960 . S
H121 C58 0.960 . S
H122 C58 0.960 . S
H123 C94 0.980 . S
H124 C60 0.930 1_655 S
H125 C64 0.930 . S
H126 C65 0.961 . S
H127 C65 0.960 . S
H128 C65 0.958 . S
H129 C66 0.961 . S
H130 C66 0.960 . S
H131 C66 0.960 . S
H132 C68 0.980 . S
H133 C67 0.961 . S
H134 C67 0.961 . S
H135 C67 0.959 . S
H136 C70 0.932 . S
H137 C74 0.929 . S
H138 C75 0.961 . S
H139 C75 0.959 . S
H140 C75 0.959 . S
H141 C76 0.960 . S
H142 C76 0.962 . S
H143 C76 0.961 . S
H144 C78 0.929 . S
H145 C81 0.930 . S
H146 C82 0.929 . S
H147 C85 0.930 . S
H148 C88 0.929 . S
H149 C89 0.930 . S
H150 C93 0.962 . S
H151 C93 0.959 . S
H152 C93 0.958 . S
C153 C154 1.560 1_565 S
C153 H214 0.959 . S
C153 H215 0.959 . S
C153 H216 0.960 . S
C154 C153 1.560 1_545 S
C154 O209 1.426 1_545 S
C154 H213 0.980 . S
C155 C156 1.407 . S
C155 C160 1.418 1_545 S
C155 O209 1.334 1_545 S
C156 C155 1.407 . S
C156 C157 1.360 . S
C156 H217 0.929 . S
C157 C156 1.360 . S
C157 C158 1.401 . S
C157 C161 1.527 . S
C158 C157 1.401 . S
C158 C159 1.405 1_545 S
C158 C191 1.587 . S
C159 C158 1.405 1_565 S
C159 C160 1.332 . S
C159 C162 1.496 . S
C160 C155 1.418 1_565 S
C160 C159 1.332 . S
C160 H218 0.929 . S
C161 C157 1.527 . S
C161 H219 0.959 . S
C161 H220 0.961 . S
C161 H221 0.961 . S
C162 C159 1.496 . S
C162 H222 0.960 . S
C162 H223 0.960 . S
C162 H224 0.961 . S
C163 C164 1.517 . S
C163 H226 0.961 . S
C163 H227 0.960 . S
C163 H228 0.959 . S
C164 C163 1.517 . S
C164 O212 1.468 . S
C164 H225 0.980 . S
C165 C166 1.349 . S
C165 C170 1.367 . S
C165 O212 1.408 . S
C166 C165 1.349 . S
C166 C167 1.407 . S
C166 H229 0.930 . S
C167 C166 1.407 . S
C167 C168 1.449 . S
C167 C171 1.535 1_545 S
C168 C167 1.449 . S
C168 C169 1.384 . S
C168 C193 1.553 . S
C169 C168 1.384 . S
C169 C170 1.364 . S
C169 C172 1.450 . S
C170 C165 1.367 . S
C170 C169 1.364 . S
C170 H230 0.931 . S
C171 C167 1.535 1_565 S
C171 H231 0.959 . S
C171 H232 0.961 . S
C171 H233 0.959 . S
C172 C169 1.450 . S
C172 H234 0.960 . S
C172 H235 0.960 . S
C172 H236 0.960 . S
C173 C174 1.309 . S
C173 C178 1.304 . S
C173 O211 1.435 . S
C174 C173 1.309 . S
C174 C175 1.476 . S
C174 H238 0.930 . S
C175 C174 1.476 . S
C175 C176 1.400 . S
C175 C179 1.567 1_545 S
C176 C175 1.400 . S
C176 C177 1.373 . S
C176 C198 1.432 . S
C177 C176 1.373 . S
C177 C178 1.339 . S
C177 C180 1.530 . S
C178 C173 1.304 . S
C178 C177 1.339 . S
C178 H239 0.930 . S
C179 C175 1.567 1_565 S
C179 H240 0.961 . S
C179 H241 0.960 . S
C179 H242 0.958 . S
C180 C177 1.530 . S
C180 H243 0.961 . S
C180 H244 0.960 . S
C180 H245 0.960 . S
C181 C182 1.530 1_565 S
C181 H247 0.961 1_565 S
C181 H248 0.961 . S
C181 H249 0.959 . S
C182 C181 1.530 1_545 S
C182 O210 1.412 1_545 S
C182 H246 0.980 . S
C183 C184 1.288 1_545 S
C183 C188 1.377 . S
C183 O210 1.393 1_545 S
C184 C183 1.288 1_565 S
C184 C185 1.369 . S
C184 H250 0.932 . S
C185 C184 1.369 . S
C185 C186 1.398 1_565 S
C185 C189 1.527 . S
C186 C185 1.398 1_545 S
C186 C187 1.380 . S
C186 C200 1.497 . S
C187 C186 1.380 . S
C187 C188 1.383 . S
C187 C190 1.603 . S
C188 C183 1.377 . S
C188 C187 1.383 . S
C188 H251 0.929 . S
C189 C185 1.527 . S
C189 H252 0.961 . S
C189 H253 0.959 . S
C189 H254 0.959 . S
C190 C187 1.603 . S
C190 H255 0.960 . S
C190 H256 0.962 . S
C190 H257 0.961 . S
C191 C158 1.587 . S
C191 C192 1.360 . S
C191 C204 1.412 . S
C192 C191 1.360 . S
C192 C193 1.365 . S
C192 H258 0.929 . S
C193 C168 1.553 . S
C193 C192 1.365 . S
C193 C194 1.404 . S
C194 C193 1.404 . S
C194 C195 1.395 . S
C194 C205 1.451 . S
C195 C194 1.395 . S
C195 C196 1.322 . S
C195 H259 0.930 . S
C196 C195 1.322 . S
C196 C197 1.459 . S
C196 H260 0.929 . S
C197 C196 1.459 . S
C197 C198 1.445 . S
C197 C206 1.395 . S
C198 C176 1.432 . S
C198 C197 1.445 . S
C198 C199 1.370 . S
C199 C198 1.370 . S
C199 C200 1.438 . S
C199 H261 0.930 . S
C200 C186 1.497 . S
C200 C199 1.438 . S
C200 C201 1.360 . S
C201 C200 1.360 . S
C201 C202 1.401 . S
C201 C206 1.446 . S
C202 C201 1.401 . S
C202 C203 1.347 . S
C202 H262 0.929 . S
C203 C202 1.347 . S
C203 C204 1.455 . S
C203 H263 0.930 . S
C204 C191 1.412 . S
C204 C203 1.455 . S
C204 C205 1.331 . S
C205 C194 1.451 . S
C205 C204 1.331 . S
C205 C206 1.497 . S
C206 C197 1.395 . S
C206 C201 1.446 . S
C206 C205 1.497 . S
C207 C208 1.582 . S
C207 H264 0.962 . S
C207 H265 0.959 . S
C207 H266 0.958 . S
C208 C207 1.582 . S
C208 O211 1.458 . S
C208 H237 0.980 . S
O209 C154 1.426 1_565 S
O209 C155 1.334 1_565 S
O210 C182 1.412 1_565 S
O210 C183 1.393 1_565 S
O211 C173 1.435 . S
O211 C208 1.458 . S
O212 C164 1.468 . S
O212 C165 1.408 . S
H213 C154 0.980 . S
H214 C153 0.959 . S
H215 C153 0.959 . S
H216 C153 0.960 . S
H217 C156 0.929 . S
H218 C160 0.929 . S
H219 C161 0.959 . S
H220 C161 0.961 . S
H221 C161 0.961 . S
H222 C162 0.960 . S
H223 C162 0.960 . S
H224 C162 0.961 . S
H225 C164 0.980 . S
H226 C163 0.961 . S
H227 C163 0.960 . S
H228 C163 0.959 . S
H229 C166 0.930 . S
H230 C170 0.931 . S
H231 C171 0.959 . S
H232 C171 0.961 . S
H233 C171 0.959 . S
H234 C172 0.960 . S
H235 C172 0.960 . S
H236 C172 0.960 . S
H237 C208 0.980 . S
H238 C174 0.930 . S
H239 C178 0.930 . S
H240 C179 0.961 . S
H241 C179 0.960 . S
H242 C179 0.958 . S
H243 C180 0.961 . S
H244 C180 0.960 . S
H245 C180 0.960 . S
H246 C182 0.980 . S
H247 C181 0.961 1_545 S
H248 C181 0.961 . S
H249 C181 0.959 . S
H250 C184 0.932 . S
H251 C188 0.929 . S
H252 C189 0.961 . S
H253 C189 0.959 . S
H254 C189 0.959 . S
H255 C190 0.960 . S
H256 C190 0.962 . S
H257 C190 0.961 . S
H258 C192 0.929 . S
H259 C195 0.930 . S
H260 C196 0.929 . S
H261 C199 0.930 . S
H262 C202 0.929 . S
H263 C203 0.930 . S
H264 C207 0.962 . S
H265 C207 0.959 . S
H266 C207 0.958 . S
C267 C268 1.560 . S
C267 H328 0.959 . S
C267 H329 0.959 . S
C267 H330 0.960 . S
C268 C267 1.560 . S
C268 O323 1.426 . S
C268 H327 0.980 . S
C269 C270 1.407 . S
C269 C274 1.418 . S
C269 O323 1.334 . S
C270 C269 1.407 . S
C270 C271 1.360 . S
C270 H331 0.929 . S
C271 C270 1.360 . S
C271 C272 1.401 . S
C271 C275 1.527 . S
C272 C271 1.401 . S
C272 C273 1.405 . S
C272 C305 1.587 . S
C273 C272 1.405 . S
C273 C274 1.332 . S
C273 C276 1.496 . S
C274 C269 1.418 . S
C274 C273 1.332 . S
C274 H332 0.929 . S
C275 C271 1.527 . S
C275 H333 0.959 . S
C275 H334 0.961 . S
C275 H335 0.961 . S
C276 C273 1.496 . S
C276 H336 0.960 . S
C276 H337 0.960 . S
C276 H338 0.961 . S
C277 C278 1.517 . S
C277 H340 0.961 . S
C277 H341 0.960 . S
C277 H342 0.959 . S
C278 C277 1.517 . S
C278 O326 1.468 . S
C278 H339 0.980 . S
C279 C280 1.349 . S
C279 C284 1.367 . S
C279 O326 1.408 . S
C280 C279 1.349 . S
C280 C281 1.407 . S
C280 H343 0.930 . S
C281 C280 1.407 . S
C281 C282 1.449 . S
C281 C285 1.535 . S
C282 C281 1.449 . S
C282 C283 1.384 . S
C282 C307 1.553 . S
C283 C282 1.384 . S
C283 C284 1.364 . S
C283 C286 1.450 . S
C284 C279 1.367 . S
C284 C283 1.364 . S
C284 H344 0.931 . S
C285 C281 1.535 . S
C285 H345 0.959 . S
C285 H346 0.961 . S
C285 H347 0.959 . S
C286 C283 1.450 . S
C286 H348 0.960 . S
C286 H349 0.960 . S
C286 H350 0.960 . S
C287 C288 1.309 . S
C287 C292 1.304 . S
C287 O325 1.435 . S
C288 C287 1.309 . S
C288 C289 1.476 . S
C288 H352 0.930 . S
C289 C288 1.476 . S
C289 C290 1.400 . S
C289 C293 1.567 . S
C290 C289 1.400 . S
C290 C291 1.373 . S
C290 C312 1.432 . S
C291 C290 1.373 . S
C291 C292 1.339 . S
C291 C294 1.530 . S
C292 C287 1.304 . S
C292 C291 1.339 . S
C292 H353 0.930 . S
C293 C289 1.567 . S
C293 H354 0.961 . S
C293 H355 0.960 . S
C293 H356 0.958 . S
C294 C291 1.530 . S
C294 H357 0.961 . S
C294 H358 0.960 . S
C294 H359 0.960 . S
C295 C296 1.541 . S
C295 H361 0.950 1_556 S
C295 H362 0.994 . S
C295 H363 0.928 1_556 S
C296 C295 1.541 . S
C296 O324 1.412 . S
C296 H360 0.980 . S
C297 C298 1.288 . S
C297 C302 1.377 . S
C297 O324 1.393 . S
C298 C297 1.288 . S
C298 C299 1.369 . S
C298 H364 0.932 . S
C299 C298 1.369 . S
C299 C300 1.398 . S
C299 C303 1.527 . S
C300 C299 1.398 . S
C300 C301 1.380 . S
C300 C314 1.497 . S
C301 C300 1.380 . S
C301 C302 1.383 . S
C301 C304 1.603 . S
C302 C297 1.377 . S
C302 C301 1.383 . S
C302 H365 0.929 . S
C303 C299 1.527 . S
C303 H366 0.961 . S
C303 H367 0.959 . S
C303 H368 0.959 . S
C304 C301 1.603 . S
C304 H369 0.960 . S
C304 H370 0.962 . S
C304 H371 0.961 . S
C305 C272 1.587 . S
C305 C306 1.360 . S
C305 C318 1.412 . S
C306 C305 1.360 . S
C306 C307 1.365 . S
C306 H372 0.929 . S
C307 C282 1.553 . S
C307 C306 1.365 . S
C307 C308 1.404 . S
C308 C307 1.404 . S
C308 C309 1.395 . S
C308 C319 1.451 . S
C309 C308 1.395 . S
C309 C310 1.322 . S
C309 H373 0.930 . S
C310 C309 1.322 . S
C310 C311 1.459 . S
C310 H374 0.929 . S
C311 C310 1.459 . S
C311 C312 1.445 . S
C311 C320 1.395 . S
C312 C290 1.432 . S
C312 C311 1.445 . S
C312 C313 1.370 . S
C313 C312 1.370 . S
C313 C314 1.438 . S
C313 H375 0.930 . S
C314 C300 1.497 . S
C314 C313 1.438 . S
C314 C315 1.360 . S
C315 C314 1.360 . S
C315 C316 1.401 . S
C315 C320 1.446 . S
C316 C315 1.401 . S
C316 C317 1.347 . S
C316 H376 0.929 . S
C317 C316 1.347 . S
C317 C318 1.455 . S
C317 H377 0.930 . S
C318 C305 1.412 . S
C318 C317 1.455 . S
C318 C319 1.331 . S
C319 C308 1.451 . S
C319 C318 1.331 . S
C319 C320 1.497 . S
C320 C311 1.395 . S
C320 C315 1.446 . S
C320 C319 1.497 . S
C321 C322 1.582 . S
C321 H378 0.962 1_556 S
C321 H379 0.959 . S
C321 H380 0.958 1_556 S
C322 C321 1.582 . S
C322 O325 1.458 . S
C322 H351 0.980 . S
O323 C268 1.426 . S
O323 C269 1.334 . S
O324 C296 1.412 . S
O324 C297 1.393 . S
O325 C287 1.435 . S
O325 C322 1.458 . S
O326 C278 1.468 . S
O326 C279 1.408 . S
H327 C268 0.980 . S
H328 C267 0.959 . S
H329 C267 0.959 . S
H330 C267 0.960 . S
H331 C270 0.929 . S
H332 C274 0.929 . S
H333 C275 0.959 . S
H334 C275 0.961 . S
H335 C275 0.961 . S
H336 C276 0.960 . S
H337 C276 0.960 . S
H338 C276 0.961 . S
H339 C278 0.980 . S
H340 C277 0.961 . S
H341 C277 0.960 . S
H342 C277 0.959 . S
H343 C280 0.930 . S
H344 C284 0.931 . S
H345 C285 0.959 . S
H346 C285 0.961 . S
H347 C285 0.959 . S
H348 C286 0.960 . S
H349 C286 0.960 . S
H350 C286 0.960 . S
H351 C322 0.980 . S
H352 C288 0.930 . S
H353 C292 0.930 . S
H354 C293 0.961 . S
H355 C293 0.960 . S
H356 C293 0.958 . S
H357 C294 0.961 . S
H358 C294 0.960 . S
H359 C294 0.960 . S
H360 C296 0.980 . S
H361 C295 0.950 1_554 S
H362 C295 0.994 . S
H363 C295 0.928 1_554 S
H364 C298 0.932 . S
H365 C302 0.929 . S
H366 C303 0.961 . S
H367 C303 0.959 . S
H368 C303 0.959 . S
H369 C304 0.960 . S
H370 C304 0.962 . S
H371 C304 0.961 . S
H372 C306 0.929 . S
H373 C309 0.930 . S
H374 C310 0.929 . S
H375 C313 0.930 . S
H376 C316 0.929 . S
H377 C317 0.930 . S
H378 C321 0.962 1_554 S
H379 C321 0.959 . S
H380 C321 0.958 1_554 S
C381 C382 1.363 . S
C381 C387 1.379 . S
C381 N389 1.356 . S
C382 C381 1.363 . S
C382 C388 1.363 1_455 S
C383 C384 1.363 1_655 S
C383 C388 1.379 . S
C383 N390 1.356 . S
C384 C383 1.363 1_455 S
C384 C387 1.363 . S
N385 C387 1.356 . S
N385 H397 0.984 . S
N385 H398 0.985 . S
N386 C388 1.356 . S
N386 H391 0.984 . S
N386 H392 0.985 . S
C387 C381 1.379 . S
C387 C384 1.363 . S
C387 N385 1.356 . S
C388 C382 1.363 1_655 S
C388 C383 1.379 . S
C388 N386 1.356 . S
N389 C381 1.356 . S
N389 H395 0.984 . S
N389 H396 0.984 . S
N390 C383 1.356 . S
N390 H393 0.984 . S
N390 H394 0.985 . S
H391 N386 0.984 . S
H392 N386 0.985 . S
H393 N390 0.984 . S
H394 N390 0.985 . S
H395 N389 0.984 . S
H396 N389 0.984 . S
H397 N385 0.984 . S
H398 N385 0.985 . S
C399 C400 1.363 . S
C399 C405 1.375 . S
C399 N407 1.356 1_545 S
C400 C399 1.363 . S
C400 C406 1.363 . S
C401 C402 1.363 . S
C401 C406 1.379 . S
C401 N408 1.356 . S
C402 C401 1.363 . S
C402 C405 1.369 . S
N403 C405 1.356 1_565 S
N403 H415 0.984 . S
N403 H416 0.985 . S
N404 C406 1.356 . S
N404 H409 0.984 . S
N404 H410 0.985 . S
C405 C399 1.375 . S
C405 C402 1.369 . S
C405 N403 1.356 1_545 S
C406 C400 1.363 . S
C406 C401 1.379 . S
C406 N404 1.356 . S
N407 C399 1.356 1_565 S
N407 H413 0.984 . S
N407 H414 0.984 . S
N408 C401 1.356 . S
N408 H411 0.984 . S
N408 H412 0.985 . S
H409 N404 0.984 . S
H410 N404 0.985 . S
H411 N408 0.984 . S
H412 N408 0.985 . S
H413 N407 0.984 . S
H414 N407 0.984 . S
H415 N403 0.984 . S
H416 N403 0.985 . S
C417 C418 1.363 . S
C417 C423 1.379 . S
C417 N425 1.356 . S
C418 C417 1.363 . S
C418 C424 1.363 . S
C419 C420 1.363 . S
C419 C424 1.379 . S
C419 N426 1.356 . S
C420 C419 1.363 . S
C420 C423 1.363 . S
N421 C423 1.356 . S
N421 H433 0.984 . S
N421 H434 0.985 . S
N422 C424 1.356 . S
N422 H427 0.984 . S
N422 H428 0.985 . S
C423 C417 1.379 . S
C423 C420 1.363 . S
C423 N421 1.356 . S
C424 C418 1.363 . S
C424 C419 1.379 . S
C424 N422 1.356 . S
N425 C417 1.356 . S
N425 H431 0.984 . S
N425 H432 0.984 . S
N426 C419 1.356 . S
N426 H429 0.984 . S
N426 H430 0.985 . S
H427 N422 0.984 . S
H428 N422 0.985 . S
H429 N426 0.984 . S
H430 N426 0.985 . S
H431 N425 0.984 . S
H432 N425 0.984 . S
H433 N421 0.984 . S
H434 N421 0.985 . S
C435 C436 1.363 1_655 S
C435 C441 1.379 . S
C435 N443 1.356 . S
C436 C435 1.363 1_455 S
C436 C442 1.363 . S
C437 C438 1.363 . S
C437 C442 1.379 . S
C437 N444 1.356 . S
C438 C437 1.363 . S
C438 C441 1.363 1_455 S
N439 C441 1.356 . S
N439 H451 0.984 . S
N439 H452 0.985 . S
N440 C442 1.356 . S
N440 H445 0.984 . S
N440 H446 0.985 . S
C441 C435 1.379 . S
C441 C438 1.363 1_655 S
C441 N439 1.356 . S
C442 C436 1.363 . S
C442 C437 1.379 . S
C442 N440 1.356 . S
N443 C435 1.356 . S
N443 H449 0.984 . S
N443 H450 0.984 . S
N444 C437 1.356 . S
N444 H447 0.984 . S
N444 H448 0.985 . S
H445 N440 0.984 . S
H446 N440 0.985 . S
H447 N444 0.984 . S
H448 N444 0.985 . S
H449 N443 0.984 . S
H450 N443 0.984 . S
H451 N439 0.984 . S
H452 N439 0.985 . S
C453 C454 1.363 . S
C453 C459 1.379 . S
C453 N461 1.356 . S
C454 C453 1.363 . S
C454 C460 1.363 . S
C455 C456 1.363 . S
C455 C460 1.379 . S
C455 N462 1.356 1_545 S
C456 C455 1.363 . S
C456 C459 1.363 . S
N457 C459 1.356 . S
N457 H469 0.984 . S
N457 H470 0.985 . S
N458 C460 1.356 1_565 S
N458 H463 0.984 . S
N458 H464 0.985 . S
C459 C453 1.379 . S
C459 C456 1.363 . S
C459 N457 1.356 . S
C460 C454 1.363 . S
C460 C455 1.379 . S
C460 N458 1.356 1_545 S
N461 C453 1.356 . S
N461 H467 0.984 . S
N461 H468 0.984 . S
N462 C455 1.356 1_565 S
N462 H465 0.984 . S
N462 H466 0.985 . S
H463 N458 0.984 . S
H464 N458 0.985 . S
H465 N462 0.984 . S
H466 N462 0.985 . S
H467 N461 0.984 . S
H468 N461 0.984 . S
H469 N457 0.984 . S
H470 N457 0.985 . S
C471 C472 1.363 . S
C471 C477 1.379 . S
C471 N479 1.356 . S
C472 C471 1.363 . S
C472 C478 1.363 . S
C473 C474 1.363 . S
C473 C478 1.379 . S
C473 N480 1.356 . S
C474 C473 1.363 . S
C474 C477 1.363 . S
N475 C477 1.356 . S
N475 H487 0.984 . S
N475 H488 0.985 . S
N476 C478 1.356 . S
N476 H481 0.984 . S
N476 H482 0.985 . S
C477 C471 1.379 . S
C477 C474 1.363 . S
C477 N475 1.356 . S
C478 C472 1.363 . S
C478 C473 1.379 . S
C478 N476 1.356 . S
N479 C471 1.356 . S
N479 H485 0.984 . S
N479 H486 0.984 . S
N480 C473 1.356 . S
N480 H483 0.984 . S
N480 H484 0.985 . S
H481 N476 0.984 . S
H482 N476 0.985 . S
H483 N480 0.984 . S
H484 N480 0.985 . S
H485 N479 0.984 . S
H486 N479 0.984 . S
H487 N475 0.984 . S
H488 N475 0.985 . S
C489 C490 1.369 . S
C489 C495 1.386 . S
C489 N497 1.343 1_545 S
C490 C489 1.369 . S
C490 C496 1.363 . S
C491 C492 1.363 . S
C491 C496 1.379 . S
C491 N498 1.356 . S
C492 C491 1.363 . S
C492 C495 1.363 . S
N493 C495 1.356 1_565 S
N493 H505 0.984 . S
N493 H506 0.986 1_565 S
N494 C496 1.356 . S
N494 H499 0.984 . S
N494 H500 0.985 . S
C495 C489 1.386 . S
C495 C492 1.363 . S
C495 N493 1.356 1_545 S
C496 C490 1.363 . S
C496 C491 1.379 . S
C496 N494 1.356 . S
N497 C489 1.343 1_565 S
N497 H503 0.984 . S
N497 H504 0.984 . S
N498 C491 1.356 . S
N498 H501 0.984 . S
N498 H502 0.985 . S
H499 N494 0.984 . S
H500 N494 0.985 . S
H501 N498 0.984 . S
H502 N498 0.985 . S
H503 N497 0.984 . S
H504 N497 0.984 . S
H505 N493 0.984 . S
H506 N493 0.986 1_545 S
C507 C508 1.363 . S
C507 C513 1.385 . S
C507 N515 1.356 . S
C508 C507 1.363 . S
C508 C514 1.363 . S
C509 C510 1.363 . S
C509 C514 1.379 . S
C509 N516 1.356 . S
C510 C509 1.363 . S
C510 C513 1.367 . S
N511 C513 1.346 1_556 S
N511 H523 0.984 . S
N511 H524 0.985 . S
N512 C514 1.356 . S
N512 H517 0.984 . S
N512 H518 0.985 . S
C513 C507 1.385 . S
C513 C510 1.367 . S
C513 N511 1.346 1_554 S
C514 C508 1.363 . S
C514 C509 1.379 . S
C514 N512 1.356 . S
N515 C507 1.356 . S
N515 H521 0.984 1_554 S
N515 H522 0.984 . S
N516 C509 1.356 . S
N516 H519 0.984 . S
N516 H520 0.985 . S
H517 N512 0.984 . S
H518 N512 0.985 . S
H519 N516 0.984 . S
H520 N516 0.985 . S
H521 N515 0.984 1_556 S
H522 N515 0.984 . S
H523 N511 0.984 . S
H524 N511 0.985 . S
C525 C526 1.363 . S
C525 C531 1.379 . S
C525 N533 1.356 . S
C526 C525 1.363 . S
C526 C532 1.363 . S
C527 C528 1.363 . S
C527 C532 1.379 . S
C527 N534 1.356 1_455 S
C528 C527 1.363 . S
C528 C531 1.363 . S
N529 C531 1.356 . S
N529 H541 0.984 . S
N529 H542 0.985 . S
N530 C532 1.356 1_655 S
N530 H535 0.984 1_655 S
N530 H536 0.985 . S
C531 C525 1.379 . S
C531 C528 1.363 . S
C531 N529 1.356 . S
C532 C526 1.363 . S
C532 C527 1.379 . S
C532 N530 1.356 1_455 S
N533 C525 1.356 . S
N533 H539 0.984 . S
N533 H540 0.984 . S
N534 C527 1.356 1_655 S
N534 H537 0.984 . S
N534 H538 0.985 . S
H535 N530 0.984 1_455 S
H536 N530 0.985 . S
H537 N534 0.984 . S
H538 N534 0.985 . S
H539 N533 0.984 . S
H540 N533 0.984 . S
H541 N529 0.984 . S
H542 N529 0.985 . S
C543 C544 1.363 1_565 S
C543 C549 1.379 . S
C543 N551 1.356 . S
C544 C543 1.363 1_545 S
C544 C550 1.363 . S
C545 C546 1.363 . S
C545 C550 1.379 . S
C545 N552 1.356 . S
C546 C545 1.363 . S
C546 C549 1.363 1_545 S
N547 C549 1.356 . S
N547 H559 0.984 . S
N547 H560 0.985 . S
N548 C550 1.356 . S
N548 H553 0.984 . S
N548 H554 0.985 . S
C549 C543 1.379 . S
C549 C546 1.363 1_565 S
C549 N547 1.356 . S
C550 C544 1.363 . S
C550 C545 1.379 . S
C550 N548 1.356 . S
N551 C543 1.356 . S
N551 H557 0.984 . S
N551 H558 0.984 . S
N552 C545 1.356 . S
N552 H555 0.984 . S
N552 H556 0.985 . S
H553 N548 0.984 . S
H554 N548 0.985 . S
H555 N552 0.984 . S
H556 N552 0.985 . S
H557 N551 0.984 . S
H558 N551 0.984 . S
H559 N547 0.984 . S
H560 N547 0.985 . S
C561 C562 1.363 . S
C561 C567 1.379 1_554 S
C561 N569 1.356 . S
C562 C561 1.363 . S
C562 C568 1.363 . S
C563 C564 1.359 1_554 S
C563 C568 1.379 . S
C563 N570 1.356 . S
C564 C563 1.359 1_556 S
C564 C567 1.364 . S
N565 C567 1.356 . S
N565 H577 0.984 . S
N565 H578 0.985 . S
N566 C568 1.356 . S
N566 H571 0.984 . S
N566 H572 0.985 . S
C567 C561 1.379 1_556 S
C567 C564 1.364 . S
C567 N565 1.356 . S
C568 C562 1.363 . S
C568 C563 1.379 . S
C568 N566 1.356 . S
N569 C561 1.356 . S
N569 H575 0.984 1_554 S
N569 H576 0.984 . S
N570 C563 1.356 . S
N570 H573 0.984 . S
N570 H574 0.985 . S
H571 N566 0.984 . S
H572 N566 0.985 . S
H573 N570 0.984 . S
H574 N570 0.985 . S
H575 N569 0.984 1_556 S
H576 N569 0.984 . S
H577 N565 0.984 . S
H578 N565 0.985 . S
C579 C580 1.363 . S
C579 C585 1.379 . S
C579 N587 1.356 . S
C580 C579 1.363 . S
C580 C586 1.363 1_455 S
C581 C582 1.363 1_655 S
C581 C586 1.379 . S
C581 N588 1.356 . S
C582 C581 1.363 1_455 S
C582 C585 1.363 . S
N583 C585 1.356 . S
N583 H595 0.984 . S
N583 H596 0.985 . S
N584 C586 1.356 . S
N584 H589 0.984 . S
N584 H590 0.985 . S
C585 C579 1.379 . S
C585 C582 1.363 . S
C585 N583 1.356 . S
C586 C580 1.363 1_655 S
C586 C581 1.379 . S
C586 N584 1.356 . S
N587 C579 1.356 . S
N587 H593 0.984 . S
N587 H594 0.984 . S
N588 C581 1.356 . S
N588 H591 0.984 . S
N588 H592 0.985 . S
H589 N584 0.984 . S
H590 N584 0.985 . S
H591 N588 0.984 . S
H592 N588 0.985 . S
H593 N587 0.984 . S
H594 N587 0.984 . S
H595 N583 0.984 . S
H596 N583 0.985 . S
C384 C94 1.129 . S
C382 C10 1.604 . S
C400 C17 1.609 . S
C402 C208 1.142 . S
C418 C36 1.415 . S
C420 C268 1.175 . S
C436 C5 1.510 . S
C438 C68 1.137 . S
C456 C182 1.135 . S
C454 C16 1.520 . S
C472 C31 1.530 . S
C474 C278 0.972 . S
C492 C164 0.985 . S
C490 C30 1.535 . S
C508 C3 1.513 . S
C510 C296 1.136 1_554 S
C528 C40 1.181 1_455 S
C526 C18 1.419 . S
C546 C154 1.173 . S
C544 C29 1.420 . S
C564 C322 1.137 . S
C562 C4 1.608 . S
C580 C23 1.522 . S
C582 C50 0.960 . S
