# Generated by pormake.
# Topology tsx, (6,3)-cn, num edge types: 1
# Building blocks:
#     Node 0, Type 0, BuildingBlock: FUNLAD_clean_sbu_0, # of connection points: 6
#     Node 1, Type 0, BuildingBlock: FUNLAD_clean_sbu_0, # of connection points: 6
#     Node 2, Type 1, BuildingBlock: PAMTOO_clean_linker_0, # of connection points: 3
#     Node 3, Type 1, BuildingBlock: PAMTOO_clean_linker_0, # of connection points: 3
#     Node 4, Type 1, BuildingBlock: PAMTOO_clean_linker_0, # of connection points: 3
#     Node 5, Type 1, BuildingBlock: PAMTOO_clean_linker_0, # of connection points: 3
#     Edge 6, Type (0, 1), BuildingBlock: MIFKUJ_clean_linker_0, # of connection points: 2
#     Edge 7, Type (0, 1), BuildingBlock: MIFKUJ_clean_linker_0, # of connection points: 2
#     Edge 8, Type (0, 1), BuildingBlock: MIFKUJ_clean_linker_0, # of connection points: 2
#     Edge 9, Type (0, 1), BuildingBlock: MIFKUJ_clean_linker_0, # of connection points: 2
#     Edge 10, Type (0, 1), BuildingBlock: MIFKUJ_clean_linker_0, # of connection points: 2
#     Edge 11, Type (0, 1), BuildingBlock: MIFKUJ_clean_linker_0, # of connection points: 2
#     Edge 12, Type (0, 1), BuildingBlock: MIFKUJ_clean_linker_0, # of connection points: 2
#     Edge 13, Type (0, 1), BuildingBlock: MIFKUJ_clean_linker_0, # of connection points: 2
#     Edge 14, Type (0, 1), BuildingBlock: MIFKUJ_clean_linker_0, # of connection points: 2
#     Edge 15, Type (0, 1), BuildingBlock: MIFKUJ_clean_linker_0, # of connection points: 2
#     Edge 16, Type (0, 1), BuildingBlock: MIFKUJ_clean_linker_0, # of connection points: 2
#     Edge 17, Type (0, 1), BuildingBlock: MIFKUJ_clean_linker_0, # of connection points: 2
# Relax obj value: 0.122
# Max RMSD: 0.129
# Mean RMSD: 0.118
data_MOF--net-tsx--node1-FUNLAD_clean_sbu_0--node2-PAMTOO_clean_linker_0--edge1-MIFKUJ_clean_linker_0
_symmetry_space_group_name_H-M    P1
_symmetry_Int_Tables_number       1
_symmetry_cell_setting            triclinic
loop_
_symmetry_equiv_pos_as_xyz
'x, y, z'
_cell_length_a     25.335827
_cell_length_b     28.030576
_cell_length_c     49.483282
_cell_angle_alpha  82.357151
_cell_angle_beta   92.211832
_cell_angle_gamma 90.051671
loop_
_atom_site_label
_atom_site_type_symbol
_atom_site_fract_x
_atom_site_fract_y
_atom_site_fract_z
_atom_type_partial_charge
C0 C 0.94469 0.97297 -0.0017 0.0
N1 N 0.01819 0.02871 0.06429 0.0
C2 C 0.97124 0.03384 0.07607 0.0
C3 C 0.96917 0.03122 0.10435 0.0
C4 C 0.01568 0.02229 0.12048 0.0
C5 C 0.06333 0.01608 0.10792 0.0
C6 C 0.0638 0.01992 0.07957 0.0
Zn7 Zn 0.02128 0.03652 0.02302 0.0
C8 C 0.09777 0.96945 0.0043 0.0
N9 N 0.02844 0.05404 0.93681 0.0
C10 C 0.98363 0.05831 0.92062 0.0
C11 C 0.07689 0.05288 0.92603 0.0
C12 C 0.0816 0.05421 0.898 0.0
C13 C 0.03603 0.05758 0.88074 0.0
C14 C 0.98656 0.06052 0.89238 0.0
Zn15 Zn 0.02416 0.04616 0.97805 0.0
O16 O 0.95947 0.98669 0.02085 0.0
C17 C 0.94704 0.1128 -0.00328 0.0
O18 O 0.96595 0.9913 0.97647 0.0
H19 H 0.11204 0.04971 0.93926 0.0
H20 H 0.93543 0.0405 0.06353 0.0
H21 H 0.94552 0.05921 0.92966 0.0
O22 O 0.96572 0.09362 0.01979 0.0
O23 O 0.96392 0.09915 0.97514 0.0
H24 H 0.10075 0.0165 0.06977 0.0
O25 O 0.08286 0.10033 0.98019 0.0
O26 O 0.08312 0.08641 0.02484 0.0
O27 O 0.08371 0.99301 0.98148 0.0
O28 O 0.07678 0.97916 0.02581 0.0
C29 C 0.10144 0.10897 0.00327 0.0
H30 H 0.93172 0.03592 0.11354 0.0
H31 H 0.09997 0.00955 0.11986 0.0
H32 H 0.12054 0.051 0.89015 0.0
H33 H 0.95039 0.06399 0.87988 0.0
C34 C 0.44516 0.45012 0.50716 0.0
N35 N 0.52493 0.50571 0.57186 0.0
C36 C 0.47931 0.50309 0.58558 0.0
C37 C 0.4807 0.50286 0.61383 0.0
C38 C 0.5295 0.50601 0.62802 0.0
C39 C 0.57596 0.50714 0.61333 0.0
C40 C 0.57275 0.50661 0.58522 0.0
Zn41 Zn 0.52284 0.51383 0.5304 0.0
C42 C 0.59842 0.44979 0.50863 0.0
N43 N 0.52077 0.53446 0.44366 0.0
C44 C 0.47474 0.53815 0.42844 0.0
C45 C 0.56825 0.53431 0.43177 0.0
C46 C 0.57074 0.53654 0.40359 0.0
C47 C 0.52395 0.53977 0.38725 0.0
C48 C 0.47543 0.54114 0.40004 0.0
Zn49 Zn 0.52081 0.52594 0.48516 0.0
O50 O 0.46341 0.46139 0.52973 0.0
C51 C 0.44475 0.58957 0.50671 0.0
O52 O 0.46249 0.4714 0.48496 0.0
H53 H 0.60441 0.53145 0.44423 0.0
H54 H 0.44171 0.50242 0.57452 0.0
H55 H 0.43743 0.5382 0.43835 0.0
O56 O 0.46449 0.56878 0.52922 0.0
O57 O 0.46092 0.57824 0.48441 0.0
H58 H 0.60856 0.50859 0.57392 0.0
O59 O 0.57933 0.58034 0.48582 0.0
O60 O 0.58203 0.5665 0.53046 0.0
O61 O 0.58023 0.47318 0.48653 0.0
O62 O 0.58109 0.45884 0.53117 0.0
C63 C 0.59858 0.58953 0.50863 0.0
H64 H 0.4439 0.501 0.62432 0.0
H65 H 0.61445 0.51032 0.62319 0.0
H66 H 0.60905 0.53442 0.39485 0.0
H67 H 0.43836 0.54432 0.38829 0.0
H68 H 0.08726 0.94053 0.41777 0.0
H69 H 0.9767 0.05848 0.41339 0.0
H70 H 0.02409 0.98029 0.49073 0.0
H71 H 0.90461 0.0105 0.48216 0.0
C72 C 0.91188 0.04221 0.46688 0.0
O73 O 0.96538 0.05115 0.46565 0.0
H74 H 0.89554 0.0339 0.44682 0.0
C75 C 0.06158 0.9634 0.42754 0.0
C76 C 0.05829 0.95553 0.456 0.0
C77 C 0.03223 0.00021 0.4117 0.0
C78 C 0.00087 0.03051 0.42499 0.0
C79 C 0.99788 0.02326 0.45341 0.0
C80 C 0.02702 0.98617 0.46889 0.0
H81 H 0.14592 0.0602 0.59421 0.0
H82 H 0.02907 0.94796 0.59588 0.0
H83 H 0.07833 0.02111 0.51948 0.0
H84 H 0.95991 0.00193 0.52117 0.0
C85 C 0.96209 0.97396 0.53925 0.0
O86 O 0.01324 0.95703 0.54351 0.0
H87 H 0.94944 0.99137 0.55695 0.0
C88 C 0.12064 0.03663 0.58383 0.0
C89 C 0.11815 0.04257 0.5552 0.0
C90 C 0.08812 0.0032 0.59894 0.0
C91 C 0.05423 0.97447 0.58487 0.0
C92 C 0.0502 0.98137 0.55639 0.0
C93 C 0.08204 0.01541 0.54152 0.0
H94 H 0.59585 0.47791 0.91389 0.0
H95 H 0.4993 0.60322 0.91745 0.0
H96 H 0.52787 0.50116 0.98909 0.0
H97 H 0.41345 0.53676 0.98171 0.0
C98 C 0.42203 0.56915 0.96718 0.0
O99 O 0.47546 0.57905 0.96814 0.0
H100 H 0.40932 0.56153 0.94636 0.0
C101 C 0.57274 0.50017 0.92537 0.0
C102 C 0.56508 0.48481 0.95308 0.0
C103 C 0.5497 0.54302 0.91221 0.0
C104 C 0.51844 0.57052 0.92721 0.0
C105 C 0.50989 0.55497 0.95476 0.0
C106 C 0.53434 0.5129 0.96784 0.0
H107 H 0.63701 0.57902 0.10128 0.0
H108 H 0.53163 0.45994 0.09549 0.0
H109 H 0.58148 0.54538 0.02273 0.0
H110 H 0.46537 0.51745 0.02027 0.0
C111 C 0.46831 0.48911 0.03811 0.0
O112 O 0.52033 0.47483 0.04286 0.0
H113 H 0.45335 0.50538 0.05574 0.0
C114 C 0.61454 0.55619 0.0891 0.0
C115 C 0.6143 0.56622 0.06046 0.0
C116 C 0.58451 0.51835 0.10214 0.0
C117 C 0.55529 0.48933 0.08607 0.0
C118 C 0.55394 0.49941 0.05762 0.0
C119 C 0.58383 0.53734 0.04477 0.0
H120 H 0.1455 0.13769 0.04956 0.0
H121 H 0.21205 0.19963 0.05317 0.0
H122 H 0.21946 0.22454 0.96551 0.0
H123 H 0.1527 0.1621 0.96162 0.0
H124 H 0.31972 0.22404 0.99275 0.0
H125 H 0.15044 0.29967 0.99462 0.0
H126 H 0.06015 0.30805 0.01033 0.0
H127 H 0.12201 0.31706 0.0915 0.0
H128 H 0.21269 0.308 0.07636 0.0
H129 H 0.44555 0.45351 0.9899 0.0
H130 H 0.38719 0.38649 0.9823 0.0
H131 H 0.3599 0.36044 0.06858 0.0
H132 H 0.41742 0.4282 0.07605 0.0
H133 H 0.26908 0.36252 0.0393 0.0
H134 H 0.43861 0.28648 0.03769 0.0
H135 H 0.5291 0.27891 0.02202 0.0
H136 H 0.46782 0.27142 0.9406 0.0
H137 H 0.37695 0.27972 0.95568 0.0
C138 C 0.16135 0.15609 0.03099 0.0
C139 C 0.14339 0.14526 0.00527 0.0
C140 C 0.19942 0.19151 0.03312 0.0
C141 C 0.22024 0.21696 0.0096 0.0
C142 C 0.20378 0.20528 0.98389 0.0
C143 C 0.16546 0.16982 0.98172 0.0
C144 C 0.25726 0.25724 0.01207 0.0
C145 C 0.30856 0.2547 0.00257 0.0
C146 C 0.2428 0.29677 0.02528 0.0
C147 C 0.18833 0.30273 0.0344 0.0
C148 C 0.14477 0.30309 0.01587 0.0
C149 C 0.09352 0.30801 0.02466 0.0
C150 C 0.08534 0.31298 0.05191 0.0
C151 C 0.12841 0.31316 0.07041 0.0
C152 C 0.17975 0.30818 0.06173 0.0
C153 C 0.42697 0.4335 0.00717 0.0
C154 C 0.43474 0.44659 0.03345 0.0
C155 C 0.39399 0.39501 0.00287 0.0
C156 C 0.36917 0.36846 0.02489 0.0
C157 C 0.37834 0.38067 0.05128 0.0
C158 C 0.41112 0.41923 0.05554 0.0
C159 C 0.33201 0.32912 0.02041 0.0
C160 C 0.28044 0.33194 0.02944 0.0
C161 C 0.34638 0.28997 0.0068 0.0
C162 C 0.40095 0.28412 -0.00222 0.0
C163 C 0.44443 0.28353 0.0164 0.0
C164 C 0.49579 0.27908 0.00763 0.0
C165 C 0.50419 0.27474 0.98033 0.0
C166 C 0.46124 0.2748 0.96174 0.0
C167 C 0.40979 0.27933 0.97039 0.0
H168 H 0.54395 0.27114 0.97361 0.0
H169 H 0.04563 0.31678 0.05868 0.0
H170 H 0.16552 0.95387 0.96505 0.0
H171 H 0.2258 0.88594 0.96517 0.0
H172 H 0.17872 0.82822 0.0458 0.0
H173 H 0.11836 0.89658 0.04597 0.0
H174 H 0.31099 0.84958 0.00054 0.0
H175 H 0.16672 0.70381 0.04293 0.0
H176 H 0.07085 0.69103 0.04747 0.0
H177 H 0.03946 0.79151 0.97527 0.0
H178 H 0.13509 0.80434 0.97011 0.0
H179 H 0.43836 0.6174 0.01144 0.0
H180 H 0.38706 0.68524 0.02371 0.0
H181 H 0.28397 0.68033 0.95267 0.0
H182 H 0.33512 0.61303 0.94033 0.0
H183 H 0.2294 0.68887 -0.00099 0.0
H184 H 0.37941 0.7622 0.95109 0.0
H185 H 0.47424 0.7765 0.94387 0.0
H186 H 0.49302 0.82281 0.02297 0.0
H187 H 0.39838 0.80824 0.03077 0.0
C188 C 0.16833 0.927 0.98293 0.0
C189 C 0.13699 0.93032 0.00544 0.0
C190 C 0.20303 0.88841 0.98303 0.0
C191 C 0.20647 0.85214 0.00544 0.0
C192 C 0.17642 0.85593 0.0283 0.0
C193 C 0.14207 0.89493 0.02836 0.0
C194 C 0.23883 0.80889 0.00379 0.0
C195 C 0.29336 0.81428 0.00055 0.0
C196 C 0.21558 0.76306 0.00363 0.0
C197 C 0.158 0.75541 0.00635 0.0
C198 C 0.13932 0.72308 0.02801 0.0
C199 C 0.08505 0.71581 0.03068 0.0
C200 C 0.04912 0.74048 0.01169 0.0
C201 C 0.06735 0.77251 0.99 0.0
C202 C 0.12157 0.77984 0.98722 0.0
C203 C 0.40492 0.6312 -0.00157 0.0
C204 C 0.39121 0.61088 0.97465 0.0
C205 C 0.37568 0.66968 0.00546 0.0
C206 C 0.33201 0.68788 0.98897 0.0
C207 C 0.31757 0.66675 0.96563 0.0
C208 C 0.34693 0.6286 0.95851 0.0
C209 C 0.30159 0.72957 -0.0045 0.0
C210 C 0.24734 0.72389 -0.00035 0.0
C211 C 0.32507 0.77519 -0.00371 0.0
C212 C 0.38198 0.78364 0.99163 0.0
C213 C 0.40387 0.77502 0.96703 0.0
C214 C 0.45755 0.78328 0.96282 0.0
C215 C 0.48964 0.80049 0.98297 0.0
C216 C 0.46812 0.80945 0.00739 0.0
C217 C 0.41447 0.80122 0.01171 0.0
H218 H 0.53114 0.80705 0.97965 0.0
H219 H 0.00716 0.73466 0.01373 0.0
H220 H 0.87311 0.94537 0.0367 0.0
H221 H 0.81547 0.87539 0.0396 0.0
H222 H 0.87056 0.8412 0.963 0.0
H223 H 0.92753 0.91257 0.95953 0.0
H224 H 0.76585 0.81946 0.96807 0.0
H225 H 0.92422 0.78466 0.02037 0.0
H226 H 0.99717 0.79722 0.05307 0.0
H227 H 0.88821 0.78933 0.11784 0.0
H228 H 0.81441 0.77759 0.08543 0.0
H229 H 0.67456 0.57255 0.01499 0.0
H230 H 0.72999 0.64057 -0.00323 0.0
H231 H 0.677 0.72207 0.05866 0.0
H232 H 0.62064 0.65561 0.0763 0.0
H233 H 0.79109 0.71089 0.05541 0.0
H234 H 0.63127 0.74879 -0.00209 0.0
H235 H 0.56489 0.72803 0.96367 0.0
H236 H 0.68597 0.72165 0.90593 0.0
H237 H 0.75347 0.7406 0.94015 0.0
C238 C 0.87249 0.92338 0.02026 0.0
C239 C 0.90532 0.93408 -0.00194 0.0
C240 C 0.83956 0.88334 0.02195 0.0
C241 C 0.83962 0.85244 0.00182 0.0
C242 C 0.8701 0.86443 0.97881 0.0
C243 C 0.90266 0.90512 0.9769 0.0
C244 C 0.8108 0.80607 0.00624 0.0
C245 C 0.77186 0.79533 0.98697 0.0
C246 C 0.81933 0.77403 0.03067 0.0
C247 C 0.86369 0.78048 0.0504 0.0
C248 C 0.91575 0.78584 0.04155 0.0
C249 C 0.95727 0.79281 0.06004 0.0
C250 C 0.94732 0.79408 0.08751 0.0
C251 C 0.89585 0.78832 0.09655 0.0
C252 C 0.85415 0.78147 0.07813 0.0
C253 C 0.6741 0.60532 0.02438 0.0
C254 C 0.64405 0.60833 0.04745 0.0
C255 C 0.70587 0.64396 0.01402 0.0
C256 C 0.70788 0.68598 0.02662 0.0
C257 C 0.67639 0.68967 0.0489 0.0
C258 C 0.64447 0.6515 0.05904 0.0
C259 C 0.74459 0.72562 0.01792 0.0
C260 C 0.78547 0.7348 0.03638 0.0
C261 C 0.73858 0.75523 0.99251 0.0
C262 C 0.69758 0.74554 0.97173 0.0
C263 C 0.64388 0.74252 0.97801 0.0
C264 C 0.60601 0.73114 0.95859 0.0
C265 C 0.62117 0.72359 0.93265 0.0
C266 C 0.67427 0.72746 0.92605 0.0
C267 C 0.71237 0.73842 0.94547 0.0
H268 H 0.59178 0.71478 0.91766 0.0
H269 H 0.97951 0.7995 0.10179 0.0
H270 H 0.92158 0.16845 0.03564 0.0
H271 H 0.85081 0.22831 0.03307 0.0
H272 H 0.80475 0.19755 0.95227 0.0
H273 H 0.87705 0.13952 0.95425 0.0
H274 H 0.80224 0.28772 0.95188 0.0
H275 H 0.73497 0.15589 0.01235 0.0
H276 H 0.73587 0.09377 0.05264 0.0
H277 H 0.74638 0.20341 0.10549 0.0
H278 H 0.74627 0.2662 0.06549 0.0
H279 H 0.55873 0.39797 0.93458 0.0
H280 H 0.61551 0.32813 0.94892 0.0
H281 H 0.68253 0.39803 0.01475 0.0
H282 H 0.62569 0.46851 0.00034 0.0
H283 H 0.67334 0.28952 0.02483 0.0
H284 H 0.73789 0.42125 0.96018 0.0
H285 H 0.72605 0.47865 0.91807 0.0
H286 H 0.71413 0.36122 0.87064 0.0
H287 H 0.72361 0.30316 0.91254 0.0
C288 C 0.89637 0.1746 0.01732 0.0
C289 C 0.90481 0.1494 0.99512 0.0
C290 C 0.85565 0.20853 0.01595 0.0
C291 C 0.82172 0.21693 0.99266 0.0
C292 C 0.83034 0.19179 0.97046 0.0
C293 C 0.87168 0.15862 0.9716 0.0
C294 C 0.77813 0.2528 0.99095 0.0
C295 C 0.77388 0.28758 0.96777 0.0
C296 C 0.74134 0.25337 0.01183 0.0
C297 C 0.74117 0.21572 0.03592 0.0
C298 C 0.73786 0.16674 0.03256 0.0
C299 C 0.73817 0.13141 0.05535 0.0
C300 C 0.74133 0.14463 0.08161 0.0
C301 C 0.74402 0.19323 0.08514 0.0
C302 C 0.7438 0.2287 0.06241 0.0
C303 C 0.5846 0.39791 0.95254 0.0
C304 C 0.58906 0.43894 0.96596 0.0
C305 C 0.61665 0.35791 0.96082 0.0
C306 C 0.65369 0.35844 0.98256 0.0
C307 C 0.65414 0.39714 -0.00211 0.0
C308 C 0.62188 0.43735 0.98961 0.0
C309 C 0.69768 0.32338 0.98576 0.0
C310 C 0.70206 0.28928 0.00914 0.0
C311 C 0.73414 0.32271 0.96487 0.0
C312 C 0.7309 0.35782 0.93956 0.0
C313 C 0.73226 0.40767 0.94079 0.0
C314 C 0.72579 0.44035 0.91695 0.0
C315 C 0.71894 0.42363 0.89168 0.0
C316 C 0.71893 0.37419 0.89021 0.0
C317 C 0.72477 0.34137 0.91401 0.0
H318 H 0.71383 0.44896 0.87325 0.0
H319 H 0.74158 0.11722 0.09923 0.0
H320 H 0.63732 0.62442 0.55417 0.0
H321 H 0.70126 0.68881 0.55688 0.0
H322 H 0.71574 0.70455 0.4696 0.0
H323 H 0.65123 0.63988 0.46658 0.0
H324 H 0.81448 0.70593 0.50069 0.0
H325 H 0.64394 0.78247 0.49228 0.0
H326 H 0.55129 0.79256 0.50404 0.0
H327 H 0.60156 0.81328 0.58551 0.0
H328 H 0.69453 0.80256 0.57435 0.0
H329 H 0.94464 0.93164 0.49289 0.0
H330 H 0.88441 0.86602 0.48586 0.0
H331 H 0.84075 0.8558 0.5699 0.0
H332 H 0.89983 0.92285 0.57663 0.0
H333 H 0.75573 0.85249 0.53759 0.0
H334 H 0.92498 0.77395 0.54747 0.0
H335 H 0.01822 0.76298 0.53697 0.0
H336 H 0.97196 0.74486 0.45459 0.0
H337 H 0.87842 0.75641 0.46448 0.0
C338 C 0.65418 0.64133 0.5355 0.0
C339 C 0.63893 0.62728 0.51011 0.0
C340 C 0.69069 0.67814 0.53712 0.0
C341 C 0.71278 0.70156 0.51343 0.0
C342 C 0.69896 0.68682 0.4881 0.0
C343 C 0.662 0.65011 0.48641 0.0
C344 C 0.74883 0.74256 0.51529 0.0
C345 C 0.80161 0.73835 0.50834 0.0
C346 C 0.73202 0.78423 0.52585 0.0
C347 C 0.67618 0.79129 0.53254 0.0
C348 C 0.63522 0.78881 0.51276 0.0
C349 C 0.58265 0.7947 0.51931 0.0
C350 C 0.57054 0.80345 0.54553 0.0
C351 C 0.611 0.80646 0.56522 0.0
C352 C 0.66365 0.80053 0.55879 0.0
C353 C 0.92188 0.91569 0.50975 0.0
C354 C 0.92583 0.93298 0.53509 0.0
C355 C 0.88782 0.87788 0.5058 0.0
C356 C 0.85826 0.85582 0.5274 0.0
C357 C 0.86296 0.8725 0.55291 0.0
C358 C 0.89667 0.91065 0.55676 0.0
C359 C 0.82181 0.81581 0.52333 0.0
C360 C 0.76878 0.82022 0.52984 0.0
C361 C 0.83858 0.77424 0.51255 0.0
C362 C 0.89471 0.76642 0.50666 0.0
C363 C 0.9347 0.7679 0.52707 0.0
C364 C 0.9876 0.76156 0.52123 0.0
C365 C 0.00099 0.75328 0.49513 0.0
C366 C 0.9615 0.75128 0.4748 0.0
C367 C 0.90853 0.75766 0.48052 0.0
H368 H 0.04193 0.74821 0.49068 0.0
H369 H 0.52981 0.80798 0.55056 0.0
H370 H 0.62698 0.37639 0.54886 0.0
H371 H 0.6851 0.30807 0.5448 0.0
H372 H 0.71667 0.36832 0.46215 0.0
H373 H 0.65778 0.43562 0.46581 0.0
H374 H 0.69068 0.27804 0.4638 0.0
H375 H 0.80987 0.36709 0.51628 0.0
H376 H 0.83798 0.40872 0.55526 0.0
H377 H 0.81875 0.27814 0.61003 0.0
H378 H 0.78982 0.23588 0.5714 0.0
H379 H 0.89722 0.12809 0.43485 0.0
H380 H 0.84869 0.19881 0.445 0.0
H381 H 0.81579 0.12493 0.52474 0.0
H382 H 0.86528 0.05445 0.51475 0.0
H383 H 0.84087 0.21919 0.52667 0.0
H384 H 0.72277 0.13039 0.4739 0.0
H385 H 0.69528 0.08886 0.43478 0.0
H386 H 0.71277 0.22012 0.38035 0.0
H387 H 0.74107 0.26228 0.41912 0.0
C388 C 0.64689 0.37529 0.52997 0.0
C389 C 0.6376 0.41116 0.5076 0.0
C390 C 0.68021 0.33634 0.52769 0.0
C391 C 0.7054 0.33314 0.50318 0.0
C392 C 0.69746 0.36987 0.4812 0.0
C393 C 0.66383 0.40837 0.48335 0.0
C394 C 0.73735 0.29027 0.49956 0.0
C395 C 0.72399 0.26566 0.47736 0.0
C396 C 0.77972 0.2731 0.51774 0.0
C397 C 0.79714 0.29846 0.54098 0.0
C398 C 0.81121 0.34736 0.53666 0.0
C399 C 0.82737 0.37105 0.55869 0.0
C400 C 0.83 0.34613 0.58512 0.0
C401 C 0.81661 0.29742 0.58956 0.0
C402 C 0.80037 0.27357 0.5676 0.0
C403 C 0.87973 0.12723 0.45455 0.0
C404 C 0.88403 0.08587 0.47386 0.0
C405 C 0.85203 0.16743 0.46032 0.0
C406 C 0.82786 0.16674 0.48545 0.0
C407 C 0.83391 0.12606 0.50519 0.0
C408 C 0.86185 0.08585 0.49944 0.0
C409 C 0.79475 0.20786 0.49061 0.0
C410 C 0.8076 0.2318 0.51315 0.0
C411 C 0.75186 0.22461 0.47272 0.0
C412 C 0.73448 0.19938 0.44939 0.0
C413 C 0.72111 0.15031 0.45357 0.0
C414 C 0.70533 0.12667 0.43146 0.0
C415 C 0.7024 0.15181 0.40509 0.0
C416 C 0.7151 0.20068 0.40078 0.0
C417 C 0.73097 0.22448 0.42282 0.0
H418 H 0.69018 0.13344 0.388 0.0
H419 H 0.84253 0.36453 0.60214 0.0
H420 H 0.39992 0.39881 0.55094 0.0
H421 H 0.33905 0.33142 0.55093 0.0
H422 H 0.33893 0.34653 0.46302 0.0
H423 H 0.40065 0.41387 0.46282 0.0
H424 H 0.24139 0.32116 0.53011 0.0
H425 H 0.33257 0.23167 0.4446 0.0
H426 H 0.41754 0.22839 0.4221 0.0
H427 H 0.50079 0.25743 0.49535 0.0
H428 H 0.41641 0.26023 0.51836 0.0
H429 H 0.0851 0.11627 0.51663 0.0
H430 H 0.13691 0.18676 0.49873 0.0
H431 H 0.27586 0.12384 0.54258 0.0
H432 H 0.22425 0.0537 0.56057 0.0
H433 H 0.29816 0.17561 0.49154 0.0
H434 H 0.20444 0.19162 0.57318 0.0
H435 H 0.12447 0.19006 0.60007 0.0
H436 H 0.05582 0.30347 0.54259 0.0
H437 H 0.135 0.30475 0.51492 0.0
C438 C 0.38678 0.38806 0.53156 0.0
C439 C 0.40548 0.41145 0.50689 0.0
C440 C 0.35175 0.34966 0.53159 0.0
C441 C 0.3348 0.33374 0.507 0.0
C442 C 0.35201 0.35794 0.48224 0.0
C443 C 0.38718 0.39644 0.48218 0.0
C444 C 0.30107 0.29042 0.50768 0.0
C445 C 0.25348 0.28961 0.52134 0.0
C446 C 0.31713 0.24901 0.49653 0.0
C447 C 0.36815 0.24677 0.48305 0.0
C448 C 0.36904 0.23724 0.4559 0.0
C449 C 0.41708 0.23546 0.44307 0.0
C450 C 0.46451 0.24289 0.45725 0.0
C451 C 0.46402 0.25189 0.48435 0.0
C452 C 0.4161 0.25362 0.49728 0.0
C453 C 0.12704 0.117 0.52174 0.0
C454 C 0.1508 0.08001 0.54012 0.0
C455 C 0.15649 0.15719 0.51158 0.0
C456 C 0.21003 0.16054 0.51954 0.0
C457 C 0.23464 0.12182 0.53615 0.0
C458 C 0.20514 0.082 0.54653 0.0
C459 C 0.23874 0.20652 0.51395 0.0
C460 C 0.2854 0.20773 0.49955 0.0
C461 C 0.22254 0.24796 0.52498 0.0
C462 C 0.17531 0.24785 0.5418 0.0
C463 C 0.17211 0.21594 0.56615 0.0
C464 C 0.12695 0.21513 0.58155 0.0
C465 C 0.08505 0.24664 0.57306 0.0
C466 C 0.08827 0.27903 0.54913 0.0
C467 C 0.13325 0.27975 0.53355 0.0
H468 H 0.05015 0.24601 0.58504 0.0
H469 H 0.50165 0.24155 0.44727 0.0
H470 H 0.42578 0.6473 0.54569 0.0
H471 H 0.35765 0.70968 0.54403 0.0
H472 H 0.29958 0.67442 0.46592 0.0
H473 H 0.36932 0.61427 0.46685 0.0
H474 H 0.30268 0.7644 0.46278 0.0
H475 H 0.23645 0.64097 0.53014 0.0
H476 H 0.24008 0.58412 0.57275 0.0
H477 H 0.26278 0.70164 0.61944 0.0
H478 H 0.25992 0.75915 0.57706 0.0
H479 H 0.05393 0.86249 0.44689 0.0
H480 H 0.11566 0.79814 0.46489 0.0
H481 H 0.18929 0.89074 0.51814 0.0
H482 H 0.12771 0.95589 0.49979 0.0
H483 H 0.18102 0.77791 0.53772 0.0
H484 H 0.24542 0.90056 0.46679 0.0
H485 H 0.23073 0.9533 0.4231 0.0
H486 H 0.20297 0.82958 0.38191 0.0
H487 H 0.21648 0.77618 0.4255 0.0
C488 C 0.39832 0.65295 0.52822 0.0
C489 C 0.40283 0.62614 0.50635 0.0
C490 C 0.35917 0.68835 0.52737 0.0
C491 C 0.32287 0.69648 0.50501 0.0
C492 C 0.32715 0.66912 0.48335 0.0
C493 C 0.36698 0.63466 0.4839 0.0
C494 C 0.28148 0.73448 0.50339 0.0
C495 C 0.27611 0.7669 0.47922 0.0
C496 C 0.24711 0.73879 0.52495 0.0
C497 C 0.24855 0.70429 0.55042 0.0
C498 C 0.24258 0.65464 0.54948 0.0
C499 C 0.24444 0.62231 0.57359 0.0
C500 C 0.25182 0.63924 0.59878 0.0
C501 C 0.25716 0.68856 0.59991 0.0
C502 C 0.25539 0.72104 0.57586 0.0
C503 C 0.08241 0.8687 0.46294 0.0
C504 C 0.08695 0.91427 0.47162 0.0
C505 C 0.11724 0.83185 0.47336 0.0
C506 C 0.15709 0.83997 0.49263 0.0
C507 C 0.15849 0.88387 0.50336 0.0
C508 C 0.1235 0.92101 0.49285 0.0
C509 C 0.20238 0.80639 0.49713 0.0
C510 C 0.20837 0.77526 0.52165 0.0
C511 C 0.23698 0.80253 0.47581 0.0
C512 C 0.23167 0.83445 0.4494 0.0
C513 C 0.23601 0.88465 0.44842 0.0
C514 C 0.22785 0.91465 0.42369 0.0
C515 C 0.21583 0.89481 0.39975 0.0
C516 C 0.21226 0.8449 0.40047 0.0
C517 C 0.22023 0.81475 0.42517 0.0
H518 H 0.20936 0.9181 0.38064 0.0
H519 H 0.25327 0.61415 0.61742 0.0
H520 H 0.9787 0.09092 0.14887 0.0
H521 H 0.98103 0.08956 0.19864 0.0
H522 H 0.05256 0.9484 0.20866 0.0
H523 H 0.05145 0.95009 0.15889 0.0
H524 H 0.95854 0.96491 0.24238 0.0
H525 H 0.13129 0.02664 0.21653 0.0
H526 H 0.19071 0.08286 0.18993 0.0
H527 H 0.11936 0.20198 0.22133 0.0
H528 H 0.05889 0.14646 0.24779 0.0
H529 H 0.03786 0.9279 0.37971 0.0
H530 H 0.03609 0.9349 0.33034 0.0
H531 H 0.01898 0.08905 0.32511 0.0
H532 H 0.02564 0.08289 0.37483 0.0
H533 H 0.08133 0.06991 0.288 0.0
H534 H 0.91169 0.01263 0.31519 0.0
H535 H 0.84787 0.96014 0.34112 0.0
H536 H 0.90516 0.8383 0.30661 0.0
H537 H 0.96986 0.88995 0.28075 0.0
C538 C 0.99462 0.05959 0.16178 0.0
C539 C 0.01491 0.02059 0.15031 0.0
C540 C 0.99609 0.05893 0.19004 0.0
C541 C 0.01708 0.01894 0.20707 0.0
C542 C 0.03627 0.9795 0.19568 0.0
C543 C 0.03577 0.98055 0.16741 0.0
C544 C 0.01945 0.01839 0.23686 0.0
C545 C 0.98567 0.98741 0.2525 0.0
C546 C 0.05362 0.04913 0.24964 0.0
C547 C 0.09015 0.08246 0.23387 0.0
C548 C 0.12789 0.06486 0.21754 0.0
C549 C 0.16185 0.09659 0.20254 0.0
C550 C 0.15869 0.14598 0.20387 0.0
C551 C 0.12168 0.16373 0.22027 0.0
C552 C 0.08759 0.13214 0.23529 0.0
C553 C 0.03501 0.96353 0.36823 0.0
C554 C 0.03193 0.00488 0.38142 0.0
C555 C 0.033 0.96735 0.33988 0.0
C556 C 0.02598 0.01236 0.32401 0.0
C557 C 0.02389 0.05386 0.33698 0.0
C558 C 0.02709 0.0502 0.36543 0.0
C559 C 0.02073 0.0158 0.29391 0.0
C560 C 0.05385 0.04747 0.27807 0.0
C561 C 0.98515 0.98626 0.28087 0.0
C562 C 0.94591 0.95513 0.29619 0.0
C563 C 0.9109 0.97459 0.31325 0.0
C564 C 0.87454 0.94499 0.32793 0.0
C565 C 0.87253 0.8959 0.32555 0.0
C566 C 0.90678 0.87633 0.30844 0.0
C567 C 0.94326 0.90577 0.29374 0.0
H568 H 0.84437 0.87304 0.33694 0.0
H569 H 0.18503 0.17049 0.19224 0.0
H570 H 0.96837 0.01392 0.84712 0.0
H571 H 0.97852 0.00539 0.79932 0.0
H572 H 0.12518 0.08375 0.79968 0.0
H573 H 0.11321 0.09592 0.84694 0.0
H574 H 0.07567 0.10836 0.75375 0.0
H575 H 0.12048 0.95751 0.80604 0.0
H576 H 0.10852 0.88596 0.84 0.0
H577 H 0.97196 0.84563 0.79427 0.0
H578 H 0.98268 0.91735 0.76022 0.0
H579 H 0.1695 0.01529 0.63585 0.0
H580 H 0.16252 0.02402 0.68411 0.0
H581 H 0.99562 0.99521 0.67872 0.0
H582 H 0.00112 0.98944 0.63025 0.0
H583 H 0.06048 0.94425 0.72696 0.0
H584 H 0.019 0.10089 0.67514 0.0
H585 H 0.03835 0.17115 0.64146 0.0
H586 H 0.17994 0.1979 0.68748 0.0
H587 H 0.16195 0.12719 0.72116 0.0
C588 C 0.00218 0.03043 0.83694 0.0
C589 C 0.04023 0.05528 0.85107 0.0
C590 C 0.00837 0.02479 0.80967 0.0
C591 C 0.05337 0.04274 0.79614 0.0
C592 C 0.09041 0.06911 0.8098 0.0
C593 C 0.08378 0.07556 0.83695 0.0
C594 C 0.06217 0.03333 0.76789 0.0
C595 C 0.07304 0.07236 0.74804 0.0
C596 C 0.05859 0.98636 0.76034 0.0
C597 C 0.05212 0.94305 0.78071 0.0
C598 C 0.08769 0.93357 0.80333 0.0
C599 C 0.08116 0.89296 0.82258 0.0
C600 C 0.03943 0.86133 0.81933 0.0
C601 C 0.00423 0.87019 0.79678 0.0
C602 C 0.01054 0.91079 0.77748 0.0
C603 C 0.13122 0.01097 0.64484 0.0
C604 C 0.08583 0.00195 0.62899 0.0
C605 C 0.12748 0.01562 0.67243 0.0
C606 C 0.07855 0.01042 0.68471 0.0
C607 C 0.03372 0.99909 0.66946 0.0
C608 C 0.03715 0.99541 0.64178 0.0
C609 C 0.07338 0.01921 0.71315 0.0
C610 C 0.06329 0.98008 0.73291 0.0
C611 C 0.07877 0.06585 0.72073 0.0
C612 C 0.08946 0.10841 0.70049 0.0
C613 C 0.05457 0.12141 0.67791 0.0
C614 C 0.06522 0.16139 0.65886 0.0
C615 C 0.11039 0.18891 0.66231 0.0
C616 C 0.145 0.17651 0.68482 0.0
C617 C 0.1346 0.13649 0.70389 0.0
H618 H 0.11849 0.21995 0.6476 0.0
H619 H 0.03444 0.82991 0.83426 0.0
H620 H 0.4608 0.5543 0.65636 0.0
H621 H 0.46781 0.56597 0.70423 0.0
H622 H 0.61307 0.48412 0.71418 0.0
H623 H 0.6042 0.469 0.66685 0.0
H624 H 0.55942 0.46163 0.75648 0.0
H625 H 0.60959 0.61108 0.70672 0.0
H626 H 0.60099 0.68247 0.67187 0.0
H627 H 0.46133 0.72597 0.70876 0.0
H628 H 0.46867 0.65444 0.74363 0.0
H629 H 0.63709 0.53599 0.88206 0.0
H630 H 0.6387 0.53869 0.83253 0.0
H631 H 0.47487 0.58166 0.82515 0.0
H632 H 0.47218 0.5774 0.87467 0.0
H633 H 0.54296 0.62637 0.78181 0.0
H634 H 0.4978 0.47123 0.83209 0.0
H635 H 0.51592 0.40226 0.86764 0.0
H636 H 0.65779 0.3707 0.82855 0.0
H637 H 0.64167 0.44067 0.79344 0.0
C638 C 0.49367 0.53781 0.66881 0.0
C639 C 0.5321 0.51088 0.65759 0.0
C640 C 0.49811 0.54528 0.69612 0.0
C641 C 0.5417 0.52701 0.71264 0.0
C642 C 0.57935 0.49901 0.70176 0.0
C643 C 0.57447 0.4908 0.67458 0.0
C644 C 0.54789 0.53681 0.74131 0.0
C645 C 0.5566 0.49778 0.76189 0.0
C646 C 0.54387 0.58395 0.7485 0.0
C647 C 0.53942 0.62715 0.72764 0.0
C648 C 0.57683 0.63569 0.70729 0.0
C649 C 0.57221 0.6762 0.68755 0.0
C650 C 0.53057 0.70867 0.68806 0.0
C651 C 0.49353 0.70075 0.70837 0.0
C652 C 0.49793 0.66025 0.72814 0.0
C653 C 0.60159 0.54671 0.86988 0.0
C654 C 0.55421 0.55557 0.88233 0.0
C655 C 0.60274 0.54857 0.84161 0.0
C656 C 0.55671 0.55976 0.82539 0.0
C657 C 0.51075 0.57301 0.83745 0.0
C658 C 0.50937 0.57068 0.86576 0.0
C659 C 0.55436 0.55128 0.7966 0.0
C660 C 0.54615 0.59042 0.77615 0.0
C661 C 0.55996 0.50439 0.78945 0.0
C662 C 0.56891 0.46166 0.81033 0.0
C663 C 0.53323 0.44998 0.83127 0.0
C664 C 0.54319 0.41072 0.85139 0.0
C665 C 0.5882 0.3823 0.8505 0.0
C666 C 0.62319 0.39296 0.8294 0.0
C667 C 0.61373 0.4325 0.80942 0.0
H668 H 0.59584 0.35189 0.86607 0.0
H669 H 0.52706 0.74002 0.67275 0.0
H670 H 0.59789 0.58235 0.35291 0.0
H671 H 0.60639 0.57578 0.3048 0.0
H672 H 0.46196 0.49403 0.3047 0.0
H673 H 0.45542 0.49704 0.3535 0.0
H674 H 0.52991 0.45335 0.2784 0.0
H675 H 0.47088 0.61538 0.2745 0.0
H676 H 0.46947 0.69843 0.28577 0.0
H677 H 0.62525 0.72205 0.25556 0.0
H678 H 0.6279 0.63889 0.24444 0.0
H679 H 0.4962 0.49487 0.13131 0.0
H680 H 0.48612 0.49392 0.18021 0.0
H681 H 0.65018 0.53109 0.19006 0.0
H682 H 0.66173 0.52952 0.14136 0.0
H683 H 0.56953 0.59407 0.21039 0.0
H684 H 0.6242 0.42782 0.21465 0.0
H685 H 0.61853 0.34592 0.20177 0.0
H686 H 0.45993 0.33293 0.22942 0.0
H687 H 0.4644 0.4151 0.24209 0.0
C688 C 0.56808 0.56256 0.3428 0.0
C689 C 0.52612 0.53996 0.35725 0.0
C690 C 0.57258 0.5595 0.31509 0.0
C691 C 0.53443 0.53498 0.30096 0.0
C692 C 0.49185 0.51324 0.31514 0.0
C693 C 0.48781 0.51555 0.34301 0.0
C694 C 0.54027 0.53041 0.27169 0.0
C695 C 0.53773 0.48431 0.26349 0.0
C696 C 0.55118 0.57063 0.25222 0.0
C697 C 0.54976 0.62072 0.25886 0.0
C698 C 0.505 0.63816 0.27045 0.0
C699 C 0.50395 0.68528 0.27678 0.0
C700 C 0.54729 0.71546 0.27145 0.0
C701 C 0.59173 0.69861 0.25971 0.0
C702 C 0.593 0.6515 0.25336 0.0
C703 C 0.53067 0.50138 0.14389 0.0
C704 C 0.57982 0.51246 0.13227 0.0
C705 C 0.52462 0.50123 0.17181 0.0
C706 C 0.56735 0.51268 0.18854 0.0
C707 C 0.61673 0.52246 0.17731 0.0
C708 C 0.62311 0.52179 0.14947 0.0
C709 C 0.5596 0.51725 0.21746 0.0
C710 C 0.5616 0.56334 0.22545 0.0
C711 C 0.54708 0.47726 0.23656 0.0
C712 C 0.54444 0.42781 0.22904 0.0
C713 C 0.58793 0.40769 0.21773 0.0
C714 C 0.58498 0.36117 0.21053 0.0
C715 C 0.53884 0.33428 0.2147 0.0
C716 C 0.49562 0.35382 0.22616 0.0
C717 C 0.49836 0.40035 0.23338 0.0
H718 H 0.53664 0.29827 0.20911 0.0
H719 H 0.5464 0.75193 0.27636 0.0
loop_
_geom_bond_atom_site_label_1
_geom_bond_atom_site_label_2
_geom_bond_distance
_geom_bond_site_symmetry_2
_ccdc_geom_bond_type
C0 O16 1.251 . S
C0 O18 1.254 1_554 S
N1 C2 1.310 1_445 S
N1 C6 1.307 . S
N1 Zn7 2.020 . S
C2 N1 1.310 1_665 S
C2 C3 1.382 . S
C2 H20 0.974 . S
C3 C2 1.382 . S
C3 C4 1.390 1_665 S
C3 H30 0.949 . S
C4 C3 1.390 1_445 S
C4 C5 1.357 . S
C5 C4 1.357 . S
C5 C6 1.370 . S
C5 H31 0.950 . S
C6 N1 1.307 . S
C6 C5 1.370 . S
C6 H24 0.948 . S
Zn7 N1 2.020 . S
Zn7 O16 2.039 1_445 S
Zn7 O22 2.034 1_455 S
Zn7 O26 2.025 . S
Zn7 O28 2.024 1_545 S
C8 O27 1.246 1_554 S
C8 O28 1.249 . S
N9 C10 1.307 1_455 S
N9 C11 1.333 . S
N9 Zn15 2.020 . S
C10 N9 1.307 1_655 S
C10 C14 1.370 . S
C10 H21 0.948 . S
C11 N9 1.333 . S
C11 C12 1.379 . S
C11 H19 0.952 . S
C12 C11 1.379 . S
C12 C13 1.390 . S
C12 H32 0.949 . S
C13 C12 1.390 . S
C13 C14 1.357 1_455 S
C14 C10 1.370 . S
C14 C13 1.357 1_655 S
C14 H33 0.950 . S
Zn15 N9 2.020 . S
Zn15 O18 2.025 1_445 S
Zn15 O23 2.024 1_455 S
Zn15 O25 2.039 . S
Zn15 O27 2.034 1_545 S
O16 C0 1.251 . S
O16 Zn7 2.039 1_665 S
C17 O22 1.246 . S
C17 O23 1.249 1_554 S
O18 C0 1.254 1_556 S
O18 Zn15 2.025 1_665 S
H19 C11 0.952 . S
H20 C2 0.974 . S
H21 C10 0.948 . S
O22 Zn7 2.034 1_655 S
O22 C17 1.246 . S
O23 Zn15 2.024 1_655 S
O23 C17 1.249 1_556 S
H24 C6 0.948 . S
O25 Zn15 2.039 . S
O25 C29 1.251 1_556 S
O26 Zn7 2.025 . S
O26 C29 1.254 . S
O27 C8 1.246 1_556 S
O27 Zn15 2.034 1_565 S
O28 Zn7 2.024 1_565 S
O28 C8 1.249 . S
C29 O25 1.251 1_554 S
C29 O26 1.254 . S
H30 C3 0.949 . S
H31 C5 0.950 . S
H32 C12 0.949 . S
H33 C14 0.950 . S
C34 O50 1.251 . S
C34 O52 1.254 . S
N35 C36 1.333 . S
N35 C40 1.307 . S
N35 Zn41 2.020 . S
C36 N35 1.333 . S
C36 C37 1.379 . S
C36 H54 0.952 . S
C37 C36 1.379 . S
C37 C38 1.390 . S
C37 H64 0.949 . S
C38 C37 1.390 . S
C38 C39 1.357 . S
C39 C38 1.357 . S
C39 C40 1.370 . S
C39 H65 0.950 . S
C40 N35 1.307 . S
C40 C39 1.370 . S
C40 H58 0.948 . S
Zn41 N35 2.020 . S
Zn41 O50 2.039 . S
Zn41 O56 2.034 . S
Zn41 O60 2.025 . S
Zn41 O62 2.024 . S
C42 O61 1.246 . S
C42 O62 1.249 . S
N43 C44 1.307 . S
N43 C45 1.333 . S
N43 Zn49 2.020 . S
C44 N43 1.307 . S
C44 C48 1.370 . S
C44 H55 0.948 . S
C45 N43 1.333 . S
C45 C46 1.379 . S
C45 H53 0.952 . S
C46 C45 1.379 . S
C46 C47 1.390 . S
C46 H66 0.949 . S
C47 C46 1.390 . S
C47 C48 1.357 . S
C48 C44 1.370 . S
C48 C47 1.357 . S
C48 H67 0.950 . S
Zn49 N43 2.020 . S
Zn49 O52 2.025 . S
Zn49 O57 2.024 . S
Zn49 O59 2.039 . S
Zn49 O61 2.034 . S
O50 C34 1.251 . S
O50 Zn41 2.039 . S
C51 O56 1.246 . S
C51 O57 1.249 . S
O52 C34 1.254 . S
O52 Zn49 2.025 . S
H53 C45 0.952 . S
H54 C36 0.952 . S
H55 C44 0.948 . S
O56 Zn41 2.034 . S
O56 C51 1.246 . S
O57 Zn49 2.024 . S
O57 C51 1.249 . S
H58 C40 0.948 . S
O59 Zn49 2.039 . S
O59 C63 1.251 . S
O60 Zn41 2.025 . S
O60 C63 1.254 . S
O61 C42 1.246 . S
O61 Zn49 2.034 . S
O62 Zn41 2.024 . S
O62 C42 1.249 . S
C63 O59 1.251 . S
C63 O60 1.254 . S
H64 C37 0.949 . S
H65 C39 0.950 . S
H66 C46 0.949 . S
H67 C48 0.950 . S
H68 C75 0.929 . S
H69 C78 0.930 . S
H70 C80 0.929 . S
H71 C72 0.969 . S
C72 H71 0.969 . S
C72 O73 1.550 . S
C72 H74 0.973 . S
O73 C72 1.550 . S
O73 C79 1.412 . S
H74 C72 0.973 . S
C75 H68 0.929 . S
C75 C76 1.400 . S
C75 C77 1.364 . S
C76 C75 1.400 . S
C76 C80 1.377 . S
C77 C75 1.364 . S
C77 C78 1.374 1_465 S
C78 H69 0.930 . S
C78 C77 1.374 1_645 S
C78 C79 1.383 . S
C79 O73 1.412 . S
C79 C78 1.383 . S
C79 C80 1.394 1_645 S
C80 H70 0.929 . S
C80 C76 1.377 . S
C80 C79 1.394 1_465 S
H81 C88 0.929 . S
H82 C91 0.928 1_665 S
H83 C93 0.929 . S
H84 C85 0.969 . S
C85 H84 0.969 . S
C85 O86 1.550 . S
C85 H87 0.973 . S
O86 C85 1.550 . S
O86 C92 1.412 1_665 S
H87 C85 0.973 . S
C88 H81 0.929 . S
C88 C89 1.400 . S
C88 C90 1.364 . S
C89 C88 1.400 . S
C89 C93 1.377 . S
C90 C88 1.364 . S
C90 C91 1.374 . S
C91 H82 0.928 1_445 S
C91 C90 1.374 . S
C91 C92 1.383 . S
C92 O86 1.412 1_445 S
C92 C91 1.383 . S
C92 C93 1.394 . S
C93 H83 0.929 . S
C93 C89 1.377 . S
C93 C92 1.394 . S
H94 C101 0.929 . S
H95 C104 0.930 . S
H96 C106 0.929 1_554 S
H97 C98 0.969 . S
C98 H97 0.969 . S
C98 O99 1.550 . S
C98 H100 0.973 . S
O99 C98 1.550 . S
O99 C105 1.412 . S
H100 C98 0.973 . S
C101 H94 0.929 . S
C101 C102 1.400 . S
C101 C103 1.364 . S
C102 C101 1.400 . S
C102 C106 1.377 . S
C103 C101 1.364 . S
C103 C104 1.374 . S
C104 H95 0.930 . S
C104 C103 1.374 . S
C104 C105 1.383 . S
C105 O99 1.412 . S
C105 C104 1.383 . S
C105 C106 1.394 . S
C106 H96 0.929 1_556 S
C106 C102 1.377 . S
C106 C105 1.394 . S
H107 C114 0.929 . S
H108 C117 0.930 . S
H109 C119 0.929 . S
H110 C111 0.969 . S
C111 H110 0.969 . S
C111 O112 1.550 . S
C111 H113 0.973 . S
O112 C111 1.550 . S
O112 C118 1.412 . S
H113 C111 0.973 . S
C114 H107 0.929 . S
C114 C115 1.400 . S
C114 C116 1.364 . S
C115 C114 1.400 . S
C115 C119 1.377 . S
C116 C114 1.364 . S
C116 C117 1.374 . S
C117 H108 0.930 . S
C117 C116 1.374 . S
C117 C118 1.383 . S
C118 O112 1.412 . S
C118 C117 1.383 . S
C118 C119 1.394 . S
C119 H109 0.929 . S
C119 C115 1.377 . S
C119 C118 1.394 . S
H120 C138 0.951 . S
H121 C140 0.951 . S
H122 C142 0.950 . S
H123 C143 0.950 . S
H124 C145 0.950 . S
H125 C148 0.950 . S
H126 C149 0.950 . S
H127 C151 0.950 . S
H128 C152 0.950 . S
H129 C153 0.951 1_556 S
H130 C155 0.951 1_556 S
H131 C157 0.950 . S
H132 C158 0.950 . S
H133 C160 0.950 . S
H134 C163 0.950 . S
H135 C164 0.950 . S
H136 C166 0.950 1_556 S
H137 C167 0.950 1_556 S
C138 H120 0.951 . S
C138 C139 1.366 . S
C138 C140 1.388 . S
C139 C138 1.366 . S
C139 C143 1.385 1_554 S
C140 H121 0.951 . S
C140 C138 1.388 . S
C140 C141 1.366 . S
C141 C140 1.366 . S
C141 C142 1.414 1_554 S
C141 C144 1.499 . S
C142 H122 0.950 . S
C142 C141 1.414 1_556 S
C142 C143 1.374 . S
C143 H123 0.950 . S
C143 C139 1.385 1_556 S
C143 C142 1.374 . S
C144 C141 1.499 . S
C144 C145 1.373 . S
C144 C146 1.389 . S
C145 H124 0.950 . S
C145 C144 1.373 . S
C145 C161 1.377 . S
C146 C144 1.389 . S
C146 C147 1.524 . S
C146 C160 1.377 . S
C147 C146 1.524 . S
C147 C148 1.397 1_554 S
C147 C152 1.363 . S
C148 H125 0.950 . S
C148 C147 1.397 1_556 S
C148 C149 1.334 . S
C149 H126 0.950 . S
C149 C148 1.334 . S
C149 C150 1.287 . S
C150 C149 1.287 . S
C150 C151 1.524 1_556 S
C150 H169 0.913 . S
C151 H127 0.950 . S
C151 C150 1.524 1_554 S
C151 C152 1.415 . S
C152 H128 0.950 . S
C152 C147 1.363 . S
C152 C151 1.415 . S
C153 H129 0.951 1_554 S
C153 C154 1.366 . S
C153 C155 1.388 . S
C154 C153 1.366 . S
C154 C158 1.385 . S
C155 H130 0.951 1_554 S
C155 C153 1.388 . S
C155 C156 1.366 . S
C156 C155 1.366 . S
C156 C157 1.414 . S
C156 C159 1.499 . S
C157 H131 0.950 . S
C157 C156 1.414 . S
C157 C158 1.374 . S
C158 H132 0.950 . S
C158 C154 1.385 . S
C158 C157 1.374 . S
C159 C156 1.499 . S
C159 C160 1.373 . S
C159 C161 1.389 . S
C160 H133 0.950 . S
C160 C146 1.377 . S
C160 C159 1.373 . S
C161 C145 1.377 . S
C161 C159 1.389 . S
C161 C162 1.524 . S
C162 C161 1.524 . S
C162 C163 1.397 . S
C162 C167 1.363 . S
C163 H134 0.950 . S
C163 C162 1.397 . S
C163 C164 1.334 . S
C164 H135 0.950 . S
C164 C163 1.334 . S
C164 C165 1.287 . S
C165 C164 1.287 . S
C165 C166 1.524 . S
C165 H168 0.999 . S
C166 H136 0.950 1_554 S
C166 C165 1.524 . S
C166 C167 1.415 . S
C167 H137 0.950 1_554 S
C167 C162 1.363 . S
C167 C166 1.415 . S
H168 C165 0.999 . S
H169 C150 0.913 . S
H170 C188 0.951 1_556 S
H171 C190 0.953 . S
H172 C192 0.950 . S
H173 C193 0.950 . S
H174 C195 0.950 . S
H175 C198 0.950 . S
H176 C199 0.950 . S
H177 C201 0.950 . S
H178 C202 0.950 . S
H179 C203 0.951 . S
H180 C205 0.951 . S
H181 C207 0.950 . S
H182 C208 0.950 . S
H183 C210 0.950 . S
H184 C213 0.950 . S
H185 C214 0.950 . S
H186 C216 0.950 . S
H187 C217 0.950 . S
C188 H170 0.951 1_554 S
C188 C189 1.366 . S
C188 C190 1.387 1_554 S
C189 C188 1.366 . S
C189 C193 1.385 . S
C190 H171 0.953 . S
C190 C188 1.387 1_556 S
C190 C191 1.364 1_556 S
C191 C190 1.364 1_554 S
C191 C192 1.414 . S
C191 C194 1.499 . S
C192 H172 0.950 . S
C192 C191 1.414 . S
C192 C193 1.374 . S
C193 H173 0.950 . S
C193 C189 1.385 . S
C193 C192 1.374 . S
C194 C191 1.499 . S
C194 C195 1.373 1_554 S
C194 C196 1.389 . S
C195 H174 0.950 . S
C195 C194 1.373 1_556 S
C195 C211 1.377 . S
C196 C194 1.389 . S
C196 C197 1.524 . S
C196 C210 1.377 . S
C197 C196 1.524 . S
C197 C198 1.397 . S
C197 C202 1.363 . S
C198 H175 0.950 . S
C198 C197 1.397 . S
C198 C199 1.334 . S
C199 H176 0.950 . S
C199 C198 1.334 . S
C199 C200 1.287 . S
C200 C199 1.287 . S
C200 C201 1.524 . S
C200 H219 0.913 . S
C201 H177 0.950 . S
C201 C200 1.524 . S
C201 C202 1.415 . S
C202 H178 0.950 . S
C202 C197 1.363 . S
C202 C201 1.415 . S
C203 H179 0.951 . S
C203 C204 1.366 1_554 S
C203 C205 1.388 . S
C204 C203 1.366 1_556 S
C204 C208 1.385 . S
C205 H180 0.951 . S
C205 C203 1.388 . S
C205 C206 1.366 1_554 S
C206 C205 1.366 1_556 S
C206 C207 1.414 . S
C206 C209 1.499 . S
C207 H181 0.950 . S
C207 C206 1.414 . S
C207 C208 1.374 . S
C208 H182 0.950 . S
C208 C204 1.385 . S
C208 C207 1.374 . S
C209 C206 1.499 . S
C209 C210 1.373 1_556 S
C209 C211 1.389 . S
C210 H183 0.950 . S
C210 C196 1.377 . S
C210 C209 1.373 1_554 S
C211 C195 1.377 . S
C211 C209 1.389 . S
C211 C212 1.524 . S
C212 C211 1.524 . S
C212 C213 1.397 . S
C212 C217 1.363 . S
C213 H184 0.950 . S
C213 C212 1.397 . S
C213 C214 1.334 . S
C214 H185 0.950 . S
C214 C213 1.334 . S
C214 C215 1.287 . S
C215 C214 1.287 . S
C215 C216 1.524 . S
C215 H218 0.999 . S
C216 H186 0.950 . S
C216 C215 1.524 . S
C216 C217 1.415 . S
C217 H187 0.950 . S
C217 C212 1.363 . S
C217 C216 1.415 . S
H218 C215 0.999 . S
H219 C200 0.913 . S
H220 C238 0.951 . S
H221 C240 0.951 . S
H222 C242 0.950 . S
H223 C243 0.950 1_556 S
H224 C245 0.950 1_556 S
H225 C248 0.950 . S
H226 C249 0.950 . S
H227 C251 0.950 . S
H228 C252 0.950 . S
H229 C253 0.951 . S
H230 C255 0.951 . S
H231 C257 0.950 . S
H232 C258 0.950 . S
H233 C260 0.950 . S
H234 C263 0.950 . S
H235 C264 0.950 . S
H236 C266 0.950 . S
H237 C267 0.950 . S
C238 H220 0.951 . S
C238 C239 1.366 . S
C238 C240 1.388 . S
C239 C238 1.366 . S
C239 C243 1.385 . S
C240 H221 0.951 . S
C240 C238 1.388 . S
C240 C241 1.366 . S
C241 C240 1.366 . S
C241 C242 1.414 . S
C241 C244 1.499 . S
C242 H222 0.950 . S
C242 C241 1.414 . S
C242 C243 1.374 . S
C243 H223 0.950 1_554 S
C243 C239 1.385 . S
C243 C242 1.374 . S
C244 C241 1.499 . S
C244 C245 1.373 . S
C244 C246 1.389 . S
C245 H224 0.950 1_554 S
C245 C244 1.373 . S
C245 C261 1.377 . S
C246 C244 1.389 . S
C246 C247 1.524 . S
C246 C260 1.377 . S
C247 C246 1.524 . S
C247 C248 1.397 . S
C247 C252 1.363 . S
C248 H225 0.950 . S
C248 C247 1.397 . S
C248 C249 1.334 . S
C249 H226 0.950 . S
C249 C248 1.334 . S
C249 C250 1.287 . S
C250 C249 1.287 . S
C250 C251 1.524 . S
C250 H269 0.913 . S
C251 H227 0.950 . S
C251 C250 1.524 . S
C251 C252 1.415 . S
C252 H228 0.950 . S
C252 C247 1.363 . S
C252 C251 1.415 . S
C253 H229 0.951 . S
C253 C254 1.366 . S
C253 C255 1.388 . S
C254 C253 1.366 . S
C254 C258 1.385 . S
C255 H230 0.951 . S
C255 C253 1.388 . S
C255 C256 1.366 . S
C256 C255 1.366 . S
C256 C257 1.414 . S
C256 C259 1.499 . S
C257 H231 0.950 . S
C257 C256 1.414 . S
C257 C258 1.374 . S
C258 H232 0.950 . S
C258 C254 1.385 . S
C258 C257 1.374 . S
C259 C256 1.499 . S
C259 C260 1.373 . S
C259 C261 1.389 . S
C260 H233 0.950 . S
C260 C246 1.377 . S
C260 C259 1.373 . S
C261 C245 1.377 . S
C261 C259 1.389 . S
C261 C262 1.524 1_554 S
C262 C261 1.524 1_556 S
C262 C263 1.397 . S
C262 C267 1.363 . S
C263 H234 0.950 . S
C263 C262 1.397 . S
C263 C264 1.334 . S
C264 H235 0.950 . S
C264 C263 1.334 . S
C264 C265 1.287 . S
C265 C264 1.287 . S
C265 C266 1.524 . S
C265 H268 0.999 . S
C266 H236 0.950 . S
C266 C265 1.524 . S
C266 C267 1.415 . S
C267 H237 0.950 . S
C267 C262 1.363 . S
C267 C266 1.415 . S
H268 C265 0.999 . S
H269 C250 0.913 . S
H270 C288 0.951 . S
H271 C290 0.951 . S
H272 C292 0.950 . S
H273 C293 0.950 . S
H274 C295 0.950 . S
H275 C298 0.950 . S
H276 C299 0.950 . S
H277 C301 0.950 . S
H278 C302 0.950 . S
H279 C303 0.951 . S
H280 C305 0.951 . S
H281 C307 0.950 . S
H282 C308 0.950 . S
H283 C310 0.950 . S
H284 C313 0.950 . S
H285 C314 0.950 . S
H286 C316 0.950 . S
H287 C317 0.950 . S
C288 H270 0.951 . S
C288 C289 1.366 . S
C288 C290 1.388 . S
C289 C288 1.366 . S
C289 C293 1.385 1_554 S
C290 H271 0.951 . S
C290 C288 1.388 . S
C290 C291 1.375 . S
C291 C290 1.375 . S
C291 C292 1.403 1_554 S
C291 C294 1.499 1_554 S
C292 H272 0.950 . S
C292 C291 1.403 1_556 S
C292 C293 1.374 . S
C293 H273 0.950 . S
C293 C289 1.385 1_556 S
C293 C292 1.374 . S
C294 C291 1.499 1_556 S
C294 C295 1.373 . S
C294 C296 1.389 1_556 S
C295 H274 0.950 . S
C295 C294 1.373 . S
C295 C311 1.377 . S
C296 C294 1.389 1_554 S
C296 C297 1.524 . S
C296 C310 1.377 . S
C297 C296 1.524 . S
C297 C298 1.397 . S
C297 C302 1.363 . S
C298 H275 0.950 . S
C298 C297 1.397 . S
C298 C299 1.334 . S
C299 H276 0.950 . S
C299 C298 1.334 . S
C299 C300 1.287 . S
C300 C299 1.287 . S
C300 C301 1.524 . S
C300 H319 0.913 . S
C301 H277 0.950 . S
C301 C300 1.524 . S
C301 C302 1.415 . S
C302 H278 0.950 . S
C302 C297 1.363 . S
C302 C301 1.415 . S
C303 H279 0.951 . S
C303 C304 1.366 . S
C303 C305 1.388 . S
C304 C303 1.366 . S
C304 C308 1.385 . S
C305 H280 0.951 . S
C305 C303 1.388 . S
C305 C306 1.366 . S
C306 C305 1.366 . S
C306 C307 1.414 . S
C306 C309 1.499 . S
C307 H281 0.950 . S
C307 C306 1.414 . S
C307 C308 1.374 . S
C308 H282 0.950 . S
C308 C304 1.385 . S
C308 C307 1.374 . S
C309 C306 1.499 . S
C309 C310 1.373 1_556 S
C309 C311 1.389 . S
C310 H283 0.950 . S
C310 C296 1.377 . S
C310 C309 1.373 1_554 S
C311 C295 1.377 . S
C311 C309 1.389 . S
C311 C312 1.524 . S
C312 C311 1.524 . S
C312 C313 1.397 . S
C312 C317 1.363 . S
C313 H284 0.950 . S
C313 C312 1.397 . S
C313 C314 1.334 . S
C314 H285 0.950 . S
C314 C313 1.334 . S
C314 C315 1.287 . S
C315 C314 1.287 . S
C315 C316 1.524 . S
C315 H318 0.999 . S
C316 H286 0.950 . S
C316 C315 1.524 . S
C316 C317 1.415 . S
C317 H287 0.950 . S
C317 C312 1.363 . S
C317 C316 1.415 . S
H318 C315 0.999 . S
H319 C300 0.913 . S
H320 C338 0.951 . S
H321 C340 0.951 . S
H322 C342 0.950 . S
H323 C343 0.950 . S
H324 C345 0.950 . S
H325 C348 0.950 . S
H326 C349 0.950 . S
H327 C351 0.950 . S
H328 C352 0.950 . S
H329 C353 0.951 . S
H330 C355 0.951 . S
H331 C357 0.950 . S
H332 C358 0.950 . S
H333 C360 0.950 . S
H334 C363 0.950 . S
H335 C364 0.950 . S
H336 C366 0.950 . S
H337 C367 0.950 . S
C338 H320 0.951 . S
C338 C339 1.366 . S
C338 C340 1.388 . S
C339 C338 1.366 . S
C339 C343 1.385 . S
C340 H321 0.951 . S
C340 C338 1.388 . S
C340 C341 1.366 . S
C341 C340 1.366 . S
C341 C342 1.414 . S
C341 C344 1.499 . S
C342 H322 0.950 . S
C342 C341 1.414 . S
C342 C343 1.374 . S
C343 H323 0.950 . S
C343 C339 1.385 . S
C343 C342 1.374 . S
C344 C341 1.499 . S
C344 C345 1.373 . S
C344 C346 1.389 . S
C345 H324 0.950 . S
C345 C344 1.373 . S
C345 C361 1.377 . S
C346 C344 1.389 . S
C346 C347 1.524 . S
C346 C360 1.377 . S
C347 C346 1.524 . S
C347 C348 1.397 . S
C347 C352 1.363 . S
C348 H325 0.950 . S
C348 C347 1.397 . S
C348 C349 1.334 . S
C349 H326 0.950 . S
C349 C348 1.334 . S
C349 C350 1.287 . S
C350 C349 1.287 . S
C350 C351 1.524 . S
C350 H369 0.913 . S
C351 H327 0.950 . S
C351 C350 1.524 . S
C351 C352 1.415 . S
C352 H328 0.950 . S
C352 C347 1.363 . S
C352 C351 1.415 . S
C353 H329 0.951 . S
C353 C354 1.366 . S
C353 C355 1.388 . S
C354 C353 1.366 . S
C354 C358 1.385 . S
C355 H330 0.951 . S
C355 C353 1.388 . S
C355 C356 1.366 . S
C356 C355 1.366 . S
C356 C357 1.414 . S
C356 C359 1.499 . S
C357 H331 0.950 . S
C357 C356 1.414 . S
C357 C358 1.374 . S
C358 H332 0.950 . S
C358 C354 1.385 . S
C358 C357 1.374 . S
C359 C356 1.499 . S
C359 C360 1.373 . S
C359 C361 1.389 . S
C360 H333 0.950 . S
C360 C346 1.377 . S
C360 C359 1.373 . S
C361 C345 1.377 . S
C361 C359 1.389 . S
C361 C362 1.524 . S
C362 C361 1.524 . S
C362 C363 1.397 . S
C362 C367 1.363 . S
C363 H334 0.950 . S
C363 C362 1.397 . S
C363 C364 1.334 . S
C364 H335 0.950 . S
C364 C363 1.334 . S
C364 C365 1.287 . S
C365 C364 1.287 . S
C365 C366 1.524 . S
C365 H368 0.999 1_655 S
C366 H336 0.950 . S
C366 C365 1.524 . S
C366 C367 1.415 . S
C367 H337 0.950 . S
C367 C362 1.363 . S
C367 C366 1.415 . S
H368 C365 0.999 1_455 S
H369 C350 0.913 . S
H370 C388 0.951 . S
H371 C390 0.951 . S
H372 C392 0.950 . S
H373 C393 0.950 . S
H374 C395 0.950 . S
H375 C398 0.950 . S
H376 C399 0.950 . S
H377 C401 0.950 . S
H378 C402 0.950 . S
H379 C403 0.951 . S
H380 C405 0.951 . S
H381 C407 0.950 . S
H382 C408 0.950 . S
H383 C410 0.950 . S
H384 C413 0.950 . S
H385 C414 0.950 . S
H386 C416 0.950 . S
H387 C417 0.950 . S
C388 H370 0.951 . S
C388 C389 1.366 . S
C388 C390 1.388 . S
C389 C388 1.366 . S
C389 C393 1.385 . S
C390 H371 0.951 . S
C390 C388 1.388 . S
C390 C391 1.366 . S
C391 C390 1.366 . S
C391 C392 1.414 . S
C391 C394 1.499 . S
C392 H372 0.950 . S
C392 C391 1.414 . S
C392 C393 1.374 . S
C393 H373 0.950 . S
C393 C389 1.385 . S
C393 C392 1.374 . S
C394 C391 1.499 . S
C394 C395 1.373 . S
C394 C396 1.389 . S
C395 H374 0.950 . S
C395 C394 1.373 . S
C395 C411 1.377 . S
C396 C394 1.389 . S
C396 C397 1.524 . S
C396 C410 1.377 . S
C397 C396 1.524 . S
C397 C398 1.397 . S
C397 C402 1.363 . S
C398 H375 0.950 . S
C398 C397 1.397 . S
C398 C399 1.334 . S
C399 H376 0.950 . S
C399 C398 1.334 . S
C399 C400 1.287 . S
C400 C399 1.287 . S
C400 C401 1.524 . S
C400 H419 0.913 . S
C401 H377 0.950 . S
C401 C400 1.524 . S
C401 C402 1.415 . S
C402 H378 0.950 . S
C402 C397 1.363 . S
C402 C401 1.415 . S
C403 H379 0.951 . S
C403 C404 1.366 . S
C403 C405 1.388 . S
C404 C403 1.366 . S
C404 C408 1.385 . S
C405 H380 0.951 . S
C405 C403 1.388 . S
C405 C406 1.366 . S
C406 C405 1.366 . S
C406 C407 1.414 . S
C406 C409 1.499 . S
C407 H381 0.950 . S
C407 C406 1.414 . S
C407 C408 1.374 . S
C408 H382 0.950 . S
C408 C404 1.385 . S
C408 C407 1.374 . S
C409 C406 1.499 . S
C409 C410 1.373 . S
C409 C411 1.389 . S
C410 H383 0.950 . S
C410 C396 1.377 . S
C410 C409 1.373 . S
C411 C395 1.377 . S
C411 C409 1.389 . S
C411 C412 1.524 . S
C412 C411 1.524 . S
C412 C413 1.397 . S
C412 C417 1.363 . S
C413 H384 0.950 . S
C413 C412 1.397 . S
C413 C414 1.334 . S
C414 H385 0.950 . S
C414 C413 1.334 . S
C414 C415 1.287 . S
C415 C414 1.287 . S
C415 C416 1.524 . S
C415 H418 0.999 . S
C416 H386 0.950 . S
C416 C415 1.524 . S
C416 C417 1.415 . S
C417 H387 0.950 . S
C417 C412 1.363 . S
C417 C416 1.415 . S
H418 C415 0.999 . S
H419 C400 0.913 . S
H420 C438 0.951 . S
H421 C440 0.951 . S
H422 C442 0.950 . S
H423 C443 0.950 . S
H424 C445 0.950 . S
H425 C448 0.950 . S
H426 C449 0.950 . S
H427 C451 0.950 . S
H428 C452 0.950 . S
H429 C453 0.951 . S
H430 C455 0.951 . S
H431 C457 0.950 . S
H432 C458 0.950 . S
H433 C460 0.950 . S
H434 C463 0.950 . S
H435 C464 0.950 . S
H436 C466 0.950 . S
H437 C467 0.950 . S
C438 H420 0.951 . S
C438 C439 1.366 . S
C438 C440 1.388 . S
C439 C438 1.366 . S
C439 C443 1.385 . S
C440 H421 0.951 . S
C440 C438 1.388 . S
C440 C441 1.366 . S
C441 C440 1.366 . S
C441 C442 1.414 . S
C441 C444 1.499 . S
C442 H422 0.950 . S
C442 C441 1.414 . S
C442 C443 1.374 . S
C443 H423 0.950 . S
C443 C439 1.385 . S
C443 C442 1.374 . S
C444 C441 1.499 . S
C444 C445 1.373 . S
C444 C446 1.389 . S
C445 H424 0.950 . S
C445 C444 1.373 . S
C445 C461 1.377 . S
C446 C444 1.389 . S
C446 C447 1.524 . S
C446 C460 1.377 . S
C447 C446 1.524 . S
C447 C448 1.397 . S
C447 C452 1.363 . S
C448 H425 0.950 . S
C448 C447 1.397 . S
C448 C449 1.334 . S
C449 H426 0.950 . S
C449 C448 1.334 . S
C449 C450 1.287 . S
C450 C449 1.287 . S
C450 C451 1.524 . S
C450 H469 0.913 . S
C451 H427 0.950 . S
C451 C450 1.524 . S
C451 C452 1.415 . S
C452 H428 0.950 . S
C452 C447 1.363 . S
C452 C451 1.415 . S
C453 H429 0.951 . S
C453 C454 1.366 . S
C453 C455 1.388 . S
C454 C453 1.366 . S
C454 C458 1.385 . S
C455 H430 0.951 . S
C455 C453 1.388 . S
C455 C456 1.366 . S
C456 C455 1.366 . S
C456 C457 1.414 . S
C456 C459 1.499 . S
C457 H431 0.950 . S
C457 C456 1.414 . S
C457 C458 1.374 . S
C458 H432 0.950 . S
C458 C454 1.385 . S
C458 C457 1.374 . S
C459 C456 1.499 . S
C459 C460 1.373 . S
C459 C461 1.389 . S
C460 H433 0.950 . S
C460 C446 1.377 . S
C460 C459 1.373 . S
C461 C445 1.377 . S
C461 C459 1.389 . S
C461 C462 1.524 . S
C462 C461 1.524 . S
C462 C463 1.397 . S
C462 C467 1.363 . S
C463 H434 0.950 . S
C463 C462 1.397 . S
C463 C464 1.334 . S
C464 H435 0.950 . S
C464 C463 1.334 . S
C464 C465 1.287 . S
C465 C464 1.287 . S
C465 C466 1.524 . S
C465 H468 0.999 . S
C466 H436 0.950 . S
C466 C465 1.524 . S
C466 C467 1.415 . S
C467 H437 0.950 . S
C467 C462 1.363 . S
C467 C466 1.415 . S
H468 C465 0.999 . S
H469 C450 0.913 . S
H470 C488 0.951 . S
H471 C490 0.951 . S
H472 C492 0.950 . S
H473 C493 0.950 . S
H474 C495 0.950 . S
H475 C498 0.950 . S
H476 C499 0.950 . S
H477 C501 0.950 . S
H478 C502 0.950 . S
H479 C503 0.951 . S
H480 C505 0.951 . S
H481 C507 0.950 . S
H482 C508 0.950 . S
H483 C510 0.950 . S
H484 C513 0.950 . S
H485 C514 0.950 . S
H486 C516 0.950 . S
H487 C517 0.950 . S
C488 H470 0.951 . S
C488 C489 1.366 . S
C488 C490 1.388 . S
C489 C488 1.366 . S
C489 C493 1.385 . S
C490 H471 0.951 . S
C490 C488 1.388 . S
C490 C491 1.366 . S
C491 C490 1.366 . S
C491 C492 1.414 . S
C491 C494 1.499 . S
C492 H472 0.950 . S
C492 C491 1.414 . S
C492 C493 1.374 . S
C493 H473 0.950 . S
C493 C489 1.385 . S
C493 C492 1.374 . S
C494 C491 1.499 . S
C494 C495 1.373 . S
C494 C496 1.389 . S
C495 H474 0.950 . S
C495 C494 1.373 . S
C495 C511 1.377 . S
C496 C494 1.389 . S
C496 C497 1.524 . S
C496 C510 1.377 . S
C497 C496 1.524 . S
C497 C498 1.397 . S
C497 C502 1.363 . S
C498 H475 0.950 . S
C498 C497 1.397 . S
C498 C499 1.334 . S
C499 H476 0.950 . S
C499 C498 1.334 . S
C499 C500 1.287 . S
C500 C499 1.287 . S
C500 C501 1.524 . S
C500 H519 0.913 . S
C501 H477 0.950 . S
C501 C500 1.524 . S
C501 C502 1.415 . S
C502 H478 0.950 . S
C502 C497 1.363 . S
C502 C501 1.415 . S
C503 H479 0.951 . S
C503 C504 1.366 . S
C503 C505 1.388 . S
C504 C503 1.366 . S
C504 C508 1.385 . S
C505 H480 0.951 . S
C505 C503 1.388 . S
C505 C506 1.366 . S
C506 C505 1.366 . S
C506 C507 1.414 . S
C506 C509 1.499 . S
C507 H481 0.950 . S
C507 C506 1.414 . S
C507 C508 1.374 . S
C508 H482 0.950 . S
C508 C504 1.385 . S
C508 C507 1.374 . S
C509 C506 1.499 . S
C509 C510 1.373 . S
C509 C511 1.389 . S
C510 H483 0.950 . S
C510 C496 1.377 . S
C510 C509 1.373 . S
C511 C495 1.377 . S
C511 C509 1.389 . S
C511 C512 1.524 . S
C512 C511 1.524 . S
C512 C513 1.397 . S
C512 C517 1.363 . S
C513 H484 0.950 . S
C513 C512 1.397 . S
C513 C514 1.334 . S
C514 H485 0.950 . S
C514 C513 1.334 . S
C514 C515 1.287 . S
C515 C514 1.287 . S
C515 C516 1.524 . S
C515 H518 0.999 . S
C516 H486 0.950 . S
C516 C515 1.524 . S
C516 C517 1.415 . S
C517 H487 0.950 . S
C517 C512 1.363 . S
C517 C516 1.415 . S
H518 C515 0.999 . S
H519 C500 0.913 . S
H520 C538 0.951 . S
H521 C540 0.951 . S
H522 C542 0.950 . S
H523 C543 0.950 . S
H524 C545 0.950 1_655 S
H525 C548 0.950 . S
H526 C549 0.950 . S
H527 C551 0.950 . S
H528 C552 0.950 . S
H529 C553 0.951 . S
H530 C555 0.951 . S
H531 C557 0.950 1_655 S
H532 C558 0.950 1_655 S
H533 C560 0.950 . S
H534 C563 0.950 . S
H535 C564 0.950 . S
H536 C566 0.950 . S
H537 C567 0.950 1_455 S
C538 H520 0.951 . S
C538 C539 1.387 . S
C538 C540 1.388 . S
C539 C538 1.387 . S
C539 C543 1.366 1_545 S
C540 H521 0.951 . S
C540 C538 1.388 . S
C540 C541 1.372 . S
C541 C540 1.372 . S
C541 C542 1.406 1_545 S
C541 C544 1.499 1_545 S
C542 H522 0.950 . S
C542 C541 1.406 1_565 S
C542 C543 1.374 . S
C543 H523 0.950 . S
C543 C539 1.366 1_565 S
C543 C542 1.374 . S
C544 C541 1.499 1_565 S
C544 C545 1.373 . S
C544 C546 1.389 1_565 S
C545 H524 0.950 1_455 S
C545 C544 1.373 . S
C545 C561 1.377 . S
C546 C544 1.389 1_545 S
C546 C547 1.524 . S
C546 C560 1.377 . S
C547 C546 1.524 . S
C547 C548 1.397 . S
C547 C552 1.363 . S
C548 H525 0.950 . S
C548 C547 1.397 . S
C548 C549 1.334 . S
C549 H526 0.950 . S
C549 C548 1.334 . S
C549 C550 1.287 . S
C550 C549 1.287 . S
C550 C551 1.524 . S
C550 H569 0.913 . S
C551 H527 0.950 . S
C551 C550 1.524 . S
C551 C552 1.415 . S
C552 H528 0.950 . S
C552 C547 1.363 . S
C552 C551 1.415 . S
C553 H529 0.951 . S
C553 C554 1.366 . S
C553 C555 1.388 . S
C554 C553 1.366 . S
C554 C558 1.385 1_565 S
C555 H530 0.951 . S
C555 C553 1.388 . S
C555 C556 1.366 . S
C556 C555 1.366 . S
C556 C557 1.414 1_565 S
C556 C559 1.499 . S
C557 H531 0.950 1_455 S
C557 C556 1.414 1_545 S
C557 C558 1.374 . S
C558 H532 0.950 1_455 S
C558 C554 1.385 1_545 S
C558 C557 1.374 . S
C559 C556 1.499 . S
C559 C560 1.373 1_565 S
C559 C561 1.389 . S
C560 H533 0.950 . S
C560 C546 1.377 . S
C560 C559 1.373 1_545 S
C561 C545 1.377 . S
C561 C559 1.389 . S
C561 C562 1.524 1_455 S
C562 C561 1.524 1_655 S
C562 C563 1.397 . S
C562 C567 1.363 . S
C563 H534 0.950 . S
C563 C562 1.397 . S
C563 C564 1.334 . S
C564 H535 0.950 . S
C564 C563 1.334 . S
C564 C565 1.287 . S
C565 C564 1.287 . S
C565 C566 1.524 . S
C565 H568 0.999 . S
C566 H536 0.950 . S
C566 C565 1.524 . S
C566 C567 1.415 . S
C567 H537 0.950 1_655 S
C567 C562 1.363 . S
C567 C566 1.415 . S
H568 C565 0.999 . S
H569 C550 0.913 . S
H570 C588 0.951 1_665 S
H571 C590 0.951 1_665 S
H572 C592 0.950 . S
H573 C593 0.950 . S
H574 C595 0.950 . S
H575 C598 0.950 . S
H576 C599 0.950 . S
H577 C601 0.950 . S
H578 C602 0.950 . S
H579 C603 0.951 . S
H580 C605 0.951 . S
H581 C607 0.950 1_665 S
H582 C608 0.950 1_665 S
H583 C610 0.950 1_565 S
H584 C613 0.950 . S
H585 C614 0.950 . S
H586 C616 0.950 . S
H587 C617 0.950 . S
C588 H570 0.951 1_445 S
C588 C589 1.366 . S
C588 C590 1.388 . S
C589 C588 1.366 . S
C589 C593 1.385 . S
C590 H571 0.951 1_445 S
C590 C588 1.388 . S
C590 C591 1.366 . S
C591 C590 1.366 . S
C591 C592 1.414 . S
C591 C594 1.499 . S
C592 H572 0.950 . S
C592 C591 1.414 . S
C592 C593 1.374 . S
C593 H573 0.950 . S
C593 C589 1.385 . S
C593 C592 1.374 . S
C594 C591 1.499 . S
C594 C595 1.373 . S
C594 C596 1.389 . S
C595 H574 0.950 . S
C595 C594 1.373 . S
C595 C611 1.377 . S
C596 C594 1.389 . S
C596 C597 1.524 1_545 S
C596 C610 1.377 . S
C597 C596 1.524 1_565 S
C597 C598 1.397 . S
C597 C602 1.363 . S
C598 H575 0.950 . S
C598 C597 1.397 . S
C598 C599 1.334 . S
C599 H576 0.950 . S
C599 C598 1.334 . S
C599 C600 1.287 . S
C600 C599 1.287 . S
C600 C601 1.524 . S
C600 H619 0.913 . S
C601 H577 0.950 . S
C601 C600 1.524 . S
C601 C602 1.415 . S
C602 H578 0.950 . S
C602 C597 1.363 . S
C602 C601 1.415 . S
C603 H579 0.951 . S
C603 C604 1.366 . S
C603 C605 1.388 . S
C604 C603 1.366 . S
C604 C608 1.385 . S
C605 H580 0.951 . S
C605 C603 1.388 . S
C605 C606 1.366 . S
C606 C605 1.366 . S
C606 C607 1.414 . S
C606 C609 1.499 . S
C607 H581 0.950 1_445 S
C607 C606 1.414 . S
C607 C608 1.374 . S
C608 H582 0.950 1_445 S
C608 C604 1.385 . S
C608 C607 1.374 . S
C609 C606 1.499 . S
C609 C610 1.373 . S
C609 C611 1.389 . S
C610 H583 0.950 1_545 S
C610 C596 1.377 . S
C610 C609 1.373 . S
C611 C595 1.377 . S
C611 C609 1.389 . S
C611 C612 1.524 . S
C612 C611 1.524 . S
C612 C613 1.397 1_455 S
C612 C617 1.363 . S
C613 H584 0.950 . S
C613 C612 1.397 1_655 S
C613 C614 1.334 . S
C614 H585 0.950 . S
C614 C613 1.334 . S
C614 C615 1.287 . S
C615 C614 1.287 . S
C615 C616 1.524 1_655 S
C615 H618 0.999 . S
C616 H586 0.950 . S
C616 C615 1.524 1_455 S
C616 C617 1.415 . S
C617 H587 0.950 . S
C617 C612 1.363 . S
C617 C616 1.415 . S
H618 C615 0.999 . S
H619 C600 0.913 . S
H620 C638 0.951 . S
H621 C640 0.951 . S
H622 C642 0.950 . S
H623 C643 0.950 . S
H624 C645 0.950 . S
H625 C648 0.950 . S
H626 C649 0.950 . S
H627 C651 0.950 . S
H628 C652 0.950 . S
H629 C653 0.951 . S
H630 C655 0.951 . S
H631 C657 0.950 . S
H632 C658 0.950 . S
H633 C660 0.950 . S
H634 C663 0.950 . S
H635 C664 0.950 . S
H636 C666 0.950 . S
H637 C667 0.950 . S
C638 H620 0.951 . S
C638 C639 1.366 . S
C638 C640 1.388 . S
C639 C638 1.366 . S
C639 C643 1.385 . S
C640 H621 0.951 . S
C640 C638 1.388 . S
C640 C641 1.366 . S
C641 C640 1.366 . S
C641 C642 1.414 . S
C641 C644 1.499 . S
C642 H622 0.950 . S
C642 C641 1.414 . S
C642 C643 1.374 . S
C643 H623 0.950 . S
C643 C639 1.385 . S
C643 C642 1.374 . S
C644 C641 1.499 . S
C644 C645 1.373 . S
C644 C646 1.389 . S
C645 H624 0.950 . S
C645 C644 1.373 . S
C645 C661 1.377 . S
C646 C644 1.389 . S
C646 C647 1.524 . S
C646 C660 1.377 . S
C647 C646 1.524 . S
C647 C648 1.397 . S
C647 C652 1.363 . S
C648 H625 0.950 . S
C648 C647 1.397 . S
C648 C649 1.334 . S
C649 H626 0.950 . S
C649 C648 1.334 . S
C649 C650 1.287 . S
C650 C649 1.287 . S
C650 C651 1.524 . S
C650 H669 0.913 . S
C651 H627 0.950 . S
C651 C650 1.524 . S
C651 C652 1.415 . S
C652 H628 0.950 . S
C652 C647 1.363 . S
C652 C651 1.415 . S
C653 H629 0.951 . S
C653 C654 1.366 . S
C653 C655 1.388 . S
C654 C653 1.366 . S
C654 C658 1.385 . S
C655 H630 0.951 . S
C655 C653 1.388 . S
C655 C656 1.366 . S
C656 C655 1.366 . S
C656 C657 1.414 . S
C656 C659 1.499 . S
C657 H631 0.950 . S
C657 C656 1.414 . S
C657 C658 1.374 . S
C658 H632 0.950 . S
C658 C654 1.385 . S
C658 C657 1.374 . S
C659 C656 1.499 . S
C659 C660 1.373 . S
C659 C661 1.389 . S
C660 H633 0.950 . S
C660 C646 1.377 . S
C660 C659 1.373 . S
C661 C645 1.377 . S
C661 C659 1.389 . S
C661 C662 1.524 . S
C662 C661 1.524 . S
C662 C663 1.397 . S
C662 C667 1.363 . S
C663 H634 0.950 . S
C663 C662 1.397 . S
C663 C664 1.334 . S
C664 H635 0.950 . S
C664 C663 1.334 . S
C664 C665 1.287 . S
C665 C664 1.287 . S
C665 C666 1.524 . S
C665 H668 0.999 . S
C666 H636 0.950 . S
C666 C665 1.524 . S
C666 C667 1.415 . S
C667 H637 0.950 . S
C667 C662 1.363 . S
C667 C666 1.415 . S
H668 C665 0.999 . S
H669 C650 0.913 . S
H670 C688 0.951 . S
H671 C690 0.951 . S
H672 C692 0.950 . S
H673 C693 0.950 . S
H674 C695 0.950 . S
H675 C698 0.950 . S
H676 C699 0.950 . S
H677 C701 0.950 . S
H678 C702 0.950 . S
H679 C703 0.951 . S
H680 C705 0.951 . S
H681 C707 0.950 . S
H682 C708 0.950 . S
H683 C710 0.950 . S
H684 C713 0.950 . S
H685 C714 0.950 . S
H686 C716 0.950 . S
H687 C717 0.950 . S
C688 H670 0.951 . S
C688 C689 1.366 . S
C688 C690 1.388 . S
C689 C688 1.366 . S
C689 C693 1.385 . S
C690 H671 0.951 . S
C690 C688 1.388 . S
C690 C691 1.366 . S
C691 C690 1.366 . S
C691 C692 1.414 . S
C691 C694 1.499 . S
C692 H672 0.950 . S
C692 C691 1.414 . S
C692 C693 1.374 . S
C693 H673 0.950 . S
C693 C689 1.385 . S
C693 C692 1.374 . S
C694 C691 1.499 . S
C694 C695 1.373 . S
C694 C696 1.389 . S
C695 H674 0.950 . S
C695 C694 1.373 . S
C695 C711 1.377 . S
C696 C694 1.389 . S
C696 C697 1.524 . S
C696 C710 1.377 . S
C697 C696 1.524 . S
C697 C698 1.397 . S
C697 C702 1.363 . S
C698 H675 0.950 . S
C698 C697 1.397 . S
C698 C699 1.334 . S
C699 H676 0.950 . S
C699 C698 1.334 . S
C699 C700 1.287 . S
C700 C699 1.287 . S
C700 C701 1.524 . S
C700 H719 0.913 . S
C701 H677 0.950 . S
C701 C700 1.524 . S
C701 C702 1.415 . S
C702 H678 0.950 . S
C702 C697 1.363 . S
C702 C701 1.415 . S
C703 H679 0.951 . S
C703 C704 1.366 . S
C703 C705 1.388 . S
C704 C703 1.366 . S
C704 C708 1.385 . S
C705 H680 0.951 . S
C705 C703 1.388 . S
C705 C706 1.366 . S
C706 C705 1.366 . S
C706 C707 1.414 . S
C706 C709 1.499 . S
C707 H681 0.950 . S
C707 C706 1.414 . S
C707 C708 1.374 . S
C708 H682 0.950 . S
C708 C704 1.385 . S
C708 C707 1.374 . S
C709 C706 1.499 . S
C709 C710 1.373 . S
C709 C711 1.389 . S
C710 H683 0.950 . S
C710 C696 1.377 . S
C710 C709 1.373 . S
C711 C695 1.377 . S
C711 C709 1.389 . S
C711 C712 1.524 . S
C712 C711 1.524 . S
C712 C713 1.397 . S
C712 C717 1.363 . S
C713 H684 0.950 . S
C713 C712 1.397 . S
C713 C714 1.334 . S
C714 H685 0.950 . S
C714 C713 1.334 . S
C714 C715 1.287 . S
C715 C714 1.287 . S
C715 C716 1.524 . S
C715 H718 0.999 . S
C716 H686 0.950 . S
C716 C715 1.524 . S
C716 C717 1.415 . S
C717 H687 0.950 . S
C717 C712 1.363 . S
C717 C716 1.415 . S
H718 C715 0.999 . S
H719 C700 0.913 . S
C154 C111 1.232 . S
C139 C29 1.350 . S
C189 C8 1.368 . S
C204 C98 1.256 . S
C239 C0 1.488 . S
C254 C115 1.466 . S
C289 C17 1.474 . S
C304 C102 1.457 . S
C339 C63 1.350 . S
C354 C85 1.232 . S
C389 C42 1.368 . S
C404 C72 1.256 . S
C454 C89 1.466 . S
C439 C34 1.488 . S
C504 C76 1.457 . S
C489 C51 1.474 . S
C539 C4 1.512 . S
C554 C77 1.512 . S
C589 C13 1.523 . S
C604 C90 1.527 . S
C654 C103 1.512 . S
C639 C38 1.513 . S
C689 C47 1.523 . S
C704 C116 1.526 . S
