# Generated by pormake.
# Topology pyr, (3,6)-cn, num edge types: 1
# Building blocks:
#     Node 0, Type 0, BuildingBlock: BELTOD_clean_linker_0, # of connection points: 3
#     Node 1, Type 0, BuildingBlock: BELTOD_clean_linker_0, # of connection points: 3
#     Node 2, Type 0, BuildingBlock: BELTOD_clean_linker_0, # of connection points: 3
#     Node 3, Type 0, BuildingBlock: BELTOD_clean_linker_0, # of connection points: 3
#     Node 4, Type 0, BuildingBlock: BELTOD_clean_linker_0, # of connection points: 3
#     Node 5, Type 0, BuildingBlock: BELTOD_clean_linker_0, # of connection points: 3
#     Node 6, Type 0, BuildingBlock: BELTOD_clean_linker_0, # of connection points: 3
#     Node 7, Type 0, BuildingBlock: BELTOD_clean_linker_0, # of connection points: 3
#     Node 8, Type 1, BuildingBlock: BETGAK_clean_sbu_0, # of connection points: 6
#     Node 9, Type 1, BuildingBlock: BETGAK_clean_sbu_0, # of connection points: 6
#     Node 10, Type 1, BuildingBlock: BETGAK_clean_sbu_0, # of connection points: 6
#     Node 11, Type 1, BuildingBlock: BETGAK_clean_sbu_0, # of connection points: 6
#     Edge 12, Type (0, 1), BuildingBlock: CIFDUS_clean_linker_0, # of connection points: 2
#     Edge 13, Type (0, 1), BuildingBlock: CIFDUS_clean_linker_0, # of connection points: 2
#     Edge 14, Type (0, 1), BuildingBlock: CIFDUS_clean_linker_0, # of connection points: 2
#     Edge 15, Type (0, 1), BuildingBlock: CIFDUS_clean_linker_0, # of connection points: 2
#     Edge 16, Type (0, 1), BuildingBlock: CIFDUS_clean_linker_0, # of connection points: 2
#     Edge 17, Type (0, 1), BuildingBlock: CIFDUS_clean_linker_0, # of connection points: 2
#     Edge 18, Type (0, 1), BuildingBlock: CIFDUS_clean_linker_0, # of connection points: 2
#     Edge 19, Type (0, 1), BuildingBlock: CIFDUS_clean_linker_0, # of connection points: 2
#     Edge 20, Type (0, 1), BuildingBlock: CIFDUS_clean_linker_0, # of connection points: 2
#     Edge 21, Type (0, 1), BuildingBlock: CIFDUS_clean_linker_0, # of connection points: 2
#     Edge 22, Type (0, 1), BuildingBlock: CIFDUS_clean_linker_0, # of connection points: 2
#     Edge 23, Type (0, 1), BuildingBlock: CIFDUS_clean_linker_0, # of connection points: 2
#     Edge 24, Type (0, 1), BuildingBlock: CIFDUS_clean_linker_0, # of connection points: 2
#     Edge 25, Type (0, 1), BuildingBlock: CIFDUS_clean_linker_0, # of connection points: 2
#     Edge 26, Type (0, 1), BuildingBlock: CIFDUS_clean_linker_0, # of connection points: 2
#     Edge 27, Type (0, 1), BuildingBlock: CIFDUS_clean_linker_0, # of connection points: 2
#     Edge 28, Type (0, 1), BuildingBlock: CIFDUS_clean_linker_0, # of connection points: 2
#     Edge 29, Type (0, 1), BuildingBlock: CIFDUS_clean_linker_0, # of connection points: 2
#     Edge 30, Type (0, 1), BuildingBlock: CIFDUS_clean_linker_0, # of connection points: 2
#     Edge 31, Type (0, 1), BuildingBlock: CIFDUS_clean_linker_0, # of connection points: 2
#     Edge 32, Type (0, 1), BuildingBlock: CIFDUS_clean_linker_0, # of connection points: 2
#     Edge 33, Type (0, 1), BuildingBlock: CIFDUS_clean_linker_0, # of connection points: 2
#     Edge 34, Type (0, 1), BuildingBlock: CIFDUS_clean_linker_0, # of connection points: 2
#     Edge 35, Type (0, 1), BuildingBlock: CIFDUS_clean_linker_0, # of connection points: 2
# Relax obj value: 0.125
# Max RMSD: 0.128
# Mean RMSD: 0.062
data_MOF--net-pyr--node1-BETGAK_clean_sbu_0--node2-BELTOD_clean_linker_0--edge1-CIFDUS_clean_linker_0
_symmetry_space_group_name_H-M    P1
_symmetry_Int_Tables_number       1
_symmetry_cell_setting            triclinic
loop_
_symmetry_equiv_pos_as_xyz
'x, y, z'
_cell_length_a     38.361611
_cell_length_b     41.46911
_cell_length_c     36.855418
_cell_angle_alpha  90.685743
_cell_angle_beta   88.551511
_cell_angle_gamma 102.5323
loop_
_atom_site_label
_atom_site_type_symbol
_atom_site_fract_x
_atom_site_fract_y
_atom_site_fract_z
_atom_type_partial_charge
P0 P 0.37203 0.32126 0.25064 0.0
H1 H 0.43657 0.30824 0.21479 0.0
H2 H 0.45197 0.25774 0.19051 0.0
H3 H 0.34774 0.20194 0.22427 0.0
H4 H 0.33229 0.25247 0.2473 0.0
H5 H 0.3638 0.38902 0.24493 0.0
H6 H 0.32354 0.41331 0.20882 0.0
H7 H 0.29617 0.32289 0.14641 0.0
H8 H 0.33658 0.29896 0.18228 0.0
H9 H 0.37473 0.29615 0.32411 0.0
H10 H 0.29517 0.3212 0.25533 0.0
O11 O 0.40823 0.34629 0.26725 0.0
H12 H 0.32798 0.27538 0.37002 0.0
H13 H 0.24919 0.30061 0.30024 0.0
C14 C 0.38358 0.28401 0.23341 0.0
C15 C 0.41716 0.28507 0.21707 0.0
C16 C 0.42597 0.25614 0.20341 0.0
C17 C 0.40118 0.22569 0.20567 0.0
C18 C 0.36739 0.22494 0.22182 0.0
C19 C 0.35862 0.25384 0.23533 0.0
C20 C 0.35358 0.34237 0.21601 0.0
C21 C 0.35026 0.37495 0.22248 0.0
C22 C 0.32688 0.38863 0.20216 0.0
C23 C 0.30636 0.36986 0.17508 0.0
C24 C 0.31181 0.33809 0.16687 0.0
C25 C 0.33508 0.32438 0.18733 0.0
C26 C 0.33873 0.31064 0.28643 0.0
C27 C 0.34747 0.29782 0.31918 0.0
C28 C 0.32075 0.28584 0.34525 0.0
C29 C 0.28491 0.28657 0.33885 0.0
C30 C 0.27658 0.30034 0.30643 0.0
C31 C 0.30312 0.31207 0.28046 0.0
P32 P 0.36406 0.94815 0.58807 0.0
H33 H 0.40048 0.99322 0.64397 0.0
H34 H 0.40197 0.9889 0.71013 0.0
H35 H 0.3355 0.89069 0.70473 0.0
H36 H 0.33474 0.89469 0.63861 0.0
H37 H 0.43269 0.93749 0.56122 0.0
H38 H 0.45309 0.88719 0.54556 0.0
H39 H 0.34471 0.83054 0.55812 0.0
H40 H 0.32442 0.88121 0.57189 0.0
H41 H 0.29557 0.93926 0.62956 0.0
H42 H 0.33411 0.96165 0.51973 0.0
O43 O 0.39195 0.98254 0.57371 0.0
H44 H 0.23613 0.94322 0.61267 0.0
H45 H 0.27461 0.96763 0.50293 0.0
C46 C 0.36748 0.9443 0.63637 0.0
C47 C 0.38663 0.97059 0.65691 0.0
C48 C 0.38754 0.96809 0.69463 0.0
C49 C 0.36877 0.93948 0.71229 0.0
C50 C 0.35008 0.913 0.69164 0.0
C51 C 0.34981 0.91525 0.6539 0.0
C52 C 0.37707 0.91302 0.56752 0.0
C53 C 0.41319 0.91438 0.55935 0.0
C54 C 0.42485 0.88553 0.55079 0.0
C55 C 0.40064 0.85472 0.55114 0.0
C56 C 0.36407 0.85381 0.5572 0.0
C57 C 0.3524 0.88278 0.56527 0.0
C58 C 0.31948 0.95018 0.57586 0.0
C59 C 0.29142 0.94496 0.60172 0.0
C60 C 0.25724 0.94761 0.59209 0.0
C61 C 0.25052 0.95605 0.55651 0.0
C62 C 0.27865 0.9607 0.53049 0.0
C63 C 0.31278 0.9576 0.5401 0.0
P64 P 0.66847 0.34504 0.85873 0.0
H65 H 0.6983 0.32863 0.92713 0.0
H66 H 0.74979 0.35522 0.96203 0.0
H67 H 0.76726 0.43926 0.89062 0.0
H68 H 0.71476 0.41269 0.85624 0.0
H69 H 0.65281 0.27249 0.84884 0.0
H70 H 0.62017 0.22628 0.88482 0.0
H71 H 0.58671 0.29472 0.96017 0.0
H72 H 0.61969 0.3412 0.92369 0.0
H73 H 0.69395 0.38282 0.79295 0.0
H74 H 0.59638 0.36268 0.85699 0.0
O75 O 0.6931 0.32692 0.83042 0.0
H76 H 0.66702 0.41359 0.74958 0.0
H77 H 0.56887 0.39347 0.81333 0.0
C78 C 0.70156 0.3688 0.88934 0.0
C79 C 0.71234 0.35323 0.91947 0.0
C80 C 0.74246 0.36837 0.93922 0.0
C81 C 0.76336 0.39947 0.92921 0.0
C82 C 0.75189 0.41553 0.89962 0.0
C83 C 0.7216 0.40029 0.87984 0.0
C84 C 0.63881 0.31082 0.88312 0.0
C85 C 0.63825 0.27785 0.87287 0.0
C86 C 0.61974 0.25112 0.89389 0.0
C87 C 0.6008 0.25628 0.92591 0.0
C88 C 0.60064 0.2894 0.93567 0.0
C89 C 0.61945 0.31621 0.91467 0.0
C90 C 0.64741 0.3701 0.82858 0.0
C91 C 0.6666 0.385 0.79783 0.0
C92 C 0.65094 0.40252 0.77261 0.0
C93 C 0.61539 0.40612 0.77722 0.0
C94 C 0.59633 0.39165 0.80856 0.0
C95 C 0.61207 0.37387 0.83378 0.0
P96 P 0.83752 0.69874 0.33879 0.0
H97 H 0.83732 0.76948 0.33693 0.0
H98 H 0.86569 0.81739 0.37189 0.0
H99 H 0.92136 0.75656 0.43265 0.0
H100 H 0.89176 0.70789 0.39744 0.0
H101 H 0.81393 0.63633 0.3 0.0
H102 H 0.84177 0.60779 0.2527 0.0
H103 H 0.94287 0.67475 0.26999 0.0
H104 H 0.91441 0.70408 0.3169 0.0
H105 H 0.76457 0.70784 0.35019 0.0
H106 H 0.82688 0.64172 0.39041 0.0
O107 O 0.81854 0.71487 0.30518 0.0
H108 H 0.71255 0.6788 0.38477 0.0
H109 H 0.77426 0.61238 0.42599 0.0
C110 C 0.86267 0.73466 0.36374 0.0
C111 C 0.856 0.76617 0.35732 0.0
C112 C 0.87255 0.794 0.37752 0.0
C113 C 0.89639 0.79155 0.4053 0.0
C114 C 0.9031 0.75983 0.41179 0.0
C115 C 0.88639 0.7318 0.39138 0.0
C116 C 0.86201 0.67201 0.31319 0.0
C117 C 0.84236 0.64439 0.29462 0.0
C118 C 0.8583 0.62824 0.26704 0.0
C119 C 0.89469 0.63887 0.25714 0.0
C120 C 0.9149 0.66559 0.27691 0.0
C121 C 0.89864 0.68227 0.30412 0.0
C122 C 0.79978 0.67669 0.36678 0.0
C123 C 0.76716 0.68689 0.36634 0.0
C124 C 0.73715 0.67013 0.38626 0.0
C125 C 0.73871 0.64277 0.40796 0.0
C126 C 0.77186 0.63324 0.40959 0.0
C127 C 0.80202 0.64995 0.38911 0.0
P128 P 0.69765 0.81611 0.8681 0.0
H129 H 0.66027 0.7985 0.93757 0.0
H130 H 0.61934 0.82578 0.97085 0.0
H131 H 0.60435 0.87819 0.87392 0.0
H132 H 0.64386 0.84949 0.84022 0.0
H133 H 0.76541 0.81926 0.90339 0.0
H134 H 0.79156 0.77803 0.9321 0.0
H135 H 0.69478 0.70438 0.91512 0.0
H136 H 0.66811 0.74643 0.88658 0.0
H137 H 0.6963 0.85788 0.80565 0.0
H138 H 0.7058 0.75759 0.82429 0.0
O139 O 0.72572 0.85246 0.87451 0.0
H140 H 0.71819 0.85434 0.74376 0.0
H141 H 0.72913 0.75454 0.7626 0.0
C142 C 0.65552 0.82202 0.88628 0.0
C143 C 0.64678 0.81441 0.9228 0.0
C144 C 0.62363 0.83042 0.94204 0.0
C145 C 0.60957 0.85496 0.9253 0.0
C146 C 0.61485 0.85953 0.88769 0.0
C147 C 0.63766 0.8431 0.86832 0.0
C148 C 0.71474 0.78593 0.89293 0.0
C149 C 0.74937 0.79449 0.90638 0.0
C150 C 0.76431 0.77088 0.923 0.0
C151 C 0.7451 0.73807 0.92606 0.0
C152 C 0.7101 0.72954 0.91314 0.0
C153 C 0.69488 0.75346 0.89695 0.0
C154 C 0.69946 0.80815 0.81999 0.0
C155 C 0.70123 0.83448 0.79604 0.0
C156 C 0.7139 0.83245 0.76046 0.0
C157 C 0.72572 0.80426 0.74852 0.0
C158 C 0.7203 0.77659 0.77124 0.0
C159 C 0.70704 0.77846 0.80671 0.0
P160 P 0.87338 0.28717 0.41674 0.0
H161 H 0.87479 0.35455 0.44357 0.0
H162 H 0.82808 0.37982 0.47062 0.0
H163 H 0.75451 0.28467 0.46923 0.0
H164 H 0.80143 0.25967 0.44354 0.0
H165 H 0.92786 0.24946 0.40304 0.0
H166 H 0.94652 0.20624 0.43748 0.0
H167 H 0.87777 0.22271 0.52725 0.0
H168 H 0.85951 0.26597 0.49302 0.0
H169 H 0.84255 0.30657 0.35125 0.0
H170 H 0.84742 0.21574 0.40478 0.0
O171 O 0.90604 0.31639 0.39901 0.0
H172 H 0.79931 0.27561 0.30889 0.0
H173 H 0.80576 0.18476 0.36195 0.0
C174 C 0.8413 0.30541 0.44109 0.0
C175 C 0.84874 0.33915 0.44965 0.0
C176 C 0.82198 0.35354 0.46494 0.0
C177 C 0.78745 0.33432 0.47179 0.0
C178 C 0.78083 0.30017 0.46473 0.0
C179 C 0.80756 0.28587 0.44966 0.0
C180 C 0.89215 0.26075 0.44529 0.0
C181 C 0.91743 0.24424 0.43044 0.0
C182 C 0.92782 0.21942 0.44999 0.0
C183 C 0.91322 0.21089 0.48484 0.0
C184 C 0.88951 0.22885 0.5005 0.0
C185 C 0.87893 0.25352 0.48079 0.0
C186 C 0.84877 0.26351 0.38077 0.0
C187 C 0.83524 0.27989 0.35312 0.0
C188 C 0.81049 0.26216 0.32898 0.0
C189 C 0.7988 0.22772 0.33226 0.0
C190 C 0.81369 0.21132 0.35907 0.0
C191 C 0.8381 0.22906 0.38331 0.0
P192 P 0.37039 0.69549 0.22616 0.0
H193 H 0.33991 0.6926 0.1539 0.0
H194 H 0.28276 0.66482 0.12854 0.0
H195 H 0.24436 0.63113 0.23555 0.0
H196 H 0.30154 0.65954 0.26086 0.0
H197 H 0.43894 0.74426 0.22466 0.0
H198 H 0.45647 0.80122 0.20314 0.0
H199 H 0.34534 0.80343 0.19121 0.0
H200 H 0.3282 0.74637 0.21222 0.0
H201 H 0.3532 0.6281 0.25397 0.0
H202 H 0.4117 0.72224 0.29252 0.0
O203 O 0.39763 0.68182 0.19663 0.0
H204 H 0.37255 0.60082 0.30534 0.0
H205 H 0.43244 0.69466 0.34414 0.0
C206 C 0.32561 0.67788 0.20932 0.0
C207 C 0.31911 0.67954 0.17207 0.0
C208 C 0.28621 0.66364 0.15753 0.0
C209 C 0.25875 0.64527 0.17978 0.0
C210 C 0.26494 0.64449 0.21736 0.0
C211 C 0.29777 0.66086 0.23197 0.0
C212 C 0.38214 0.74058 0.22041 0.0
C213 C 0.41823 0.75724 0.21836 0.0
C214 C 0.42829 0.79007 0.20583 0.0
C215 C 0.40253 0.8074 0.19472 0.0
C216 C 0.36624 0.79108 0.19861 0.0
C217 C 0.35625 0.75828 0.2112 0.0
C218 C 0.37982 0.6776 0.26943 0.0
C219 C 0.36952 0.64321 0.27401 0.0
C220 C 0.38129 0.62739 0.30339 0.0
C221 C 0.40463 0.64519 0.32922 0.0
C222 C 0.41431 0.67991 0.32526 0.0
C223 C 0.40234 0.69584 0.29559 0.0
P224 P 0.16981 0.35523 0.74438 0.0
H225 H 0.18367 0.28857 0.73543 0.0
H226 H 0.15604 0.23954 0.7012 0.0
H227 H 0.07609 0.2898 0.66446 0.0
H228 H 0.10447 0.33936 0.69894 0.0
H229 H 0.22693 0.41436 0.75646 0.0
H230 H 0.27637 0.44432 0.71849 0.0
H231 H 0.23782 0.37999 0.62828 0.0
H232 H 0.18781 0.35162 0.66578 0.0
H233 H 0.11585 0.33299 0.80164 0.0
H234 H 0.16425 0.42615 0.75272 0.0
O235 O 0.19485 0.34163 0.7746 0.0
H236 H 0.08765 0.36148 0.84841 0.0
H237 H 0.13557 0.45508 0.79909 0.0
C238 C 0.14593 0.31787 0.72068 0.0
C239 C 0.15983 0.28911 0.72057 0.0
C240 C 0.14381 0.26072 0.70083 0.0
C241 C 0.1134 0.26004 0.6799 0.0
C242 C 0.09952 0.28905 0.67991 0.0
C243 C 0.11557 0.31753 0.69996 0.0
C244 C 0.20271 0.3811 0.71406 0.0
C245 C 0.22852 0.40734 0.72817 0.0
C246 C 0.25737 0.42416 0.70642 0.0
C247 C 0.26175 0.41489 0.66987 0.0
C248 C 0.2355 0.38869 0.65584 0.0
C249 C 0.20653 0.37217 0.67752 0.0
C250 C 0.14205 0.37703 0.77294 0.0
C251 C 0.11968 0.3596 0.80026 0.0
C252 C 0.10351 0.37618 0.82734 0.0
C253 C 0.10909 0.41103 0.82829 0.0
C254 C 0.13083 0.42841 0.80016 0.0
C255 C 0.14706 0.41171 0.77305 0.0
La256 La 0.01941 0.04345 0.50638 0.0
La257 La 0.99906 1.00801 0.57521 0.0
C258 C 0.03185 0.0855 0.45644 0.0
C259 C 0.06317 0.11229 0.45015 0.0
C260 C 0.09321 0.11463 0.47179 0.0
C261 C 0.12455 0.13787 0.46389 0.0
C262 C 0.12623 0.15929 0.43437 0.0
C263 C 0.09554 0.15782 0.41372 0.0
C264 C 0.06421 0.13434 0.4215 0.0
C265 C 0.06699 1.01153 0.52952 0.0
C266 C 0.0396 0.08149 0.58264 0.0
C267 C 0.98689 0.96602 0.62507 0.0
C268 C 0.95747 0.93712 0.63173 0.0
C269 C 0.92178 0.94036 0.63196 0.0
C270 C 0.89414 0.91338 0.63987 0.0
C271 C 0.90135 0.88227 0.64723 0.0
C272 C 0.93705 0.87874 0.64536 0.0
C273 C 0.96486 0.90598 0.63784 0.0
C274 C 0.95237 0.04075 0.55095 0.0
C275 C 0.97817 0.96993 0.49915 0.0
O276 O 0.03823 0.05588 0.45344 0.0
O277 O 1.01259 0.08861 0.48552 0.0
O278 O 0.06106 1.01588 0.49583 0.0
O279 O 0.04903 1.02738 0.54884 0.0
O280 O 0.03256 0.08382 0.54774 0.0
O281 O 0.03424 0.05199 0.59802 0.0
O282 O 0.97853 0.99495 0.62738 0.0
O283 O 1.00796 0.96388 0.59707 0.0
O284 O 0.95856 0.03775 0.58492 0.0
O285 O 0.97019 1.02404 0.53293 0.0
O286 O 0.98464 0.96764 0.53418 0.0
O287 O 0.98429 0.99938 0.48353 0.0
H288 H 0.09273 0.09779 0.49416 0.0
H289 H 0.14769 0.13869 0.48041 0.0
H290 H 0.09625 0.17387 0.39061 0.0
H291 H 0.04121 0.13278 0.40458 0.0
H292 H 0.91511 0.96396 0.62687 0.0
H293 H 0.86721 0.91743 0.64176 0.0
H294 H 0.9436 0.8551 0.6504 0.0
H295 H 0.99218 0.90283 0.63728 0.0
La296 La 0.53948 0.04182 0.08798 0.0
La297 La 0.46998 1.03164 0.05742 0.0
C298 C 0.60047 0.06254 0.11429 0.0
C299 C 0.62077 0.08765 0.13879 0.0
C300 C 0.63874 0.07687 0.16732 0.0
C301 C 0.66043 0.09957 0.18976 0.0
C302 C 0.66477 0.13367 0.1841 0.0
C303 C 0.6465 0.14458 0.15567 0.0
C304 C 0.62453 0.12172 0.1332 0.0
C305 C 0.49677 0.98456 0.10795 0.0
C306 C 0.48177 0.07782 0.12303 0.0
C307 C 0.41057 1.0067 1.02983 0.0
C308 C 0.40135 0.98817 0.99582 0.0
C309 C 0.37759 0.99806 0.97226 0.0
C310 C 0.37367 0.98518 0.93704 0.0
C311 C 0.39371 0.96237 0.92482 0.0
C312 C 0.41574 0.9509 0.94919 0.0
C313 C 0.41939 0.96356 0.98448 0.0
C314 C 0.51362 0.08746 1.03482 0.0
C315 C 0.52862 0.99708 1.02037 0.0
O316 O 0.5755 0.03988 0.12936 0.0
O317 O 0.59092 0.07213 0.08308 0.0
O318 O 0.53049 0.98935 0.10012 0.0
O319 O 0.48783 1.0123 0.10583 0.0
O320 O 0.51604 0.07901 0.11652 0.0
O321 O 0.45717 0.05582 0.10659 0.0
O322 O 0.42708 1.03747 1.02564 0.0
O323 O 0.42525 0.99218 0.05472 0.0
O324 O 0.47986 0.08396 1.04223 0.0
O325 O 0.52171 0.05966 1.03888 0.0
O326 O 0.49465 0.99843 1.02346 0.0
O327 O 0.55286 1.01566 1.04064 0.0
H328 H 0.63656 0.05071 0.17184 0.0
H329 H 0.67462 0.09035 0.21098 0.0
H330 H 0.64922 0.17073 0.15083 0.0
H331 H 0.61097 0.13068 0.11128 0.0
H332 H 0.36347 1.01704 0.98046 0.0
H333 H 0.35666 0.99458 0.91871 0.0
H334 H 0.43113 0.93304 0.94051 0.0
H335 H 0.43759 0.95513 1.00222 0.0
La336 La 0.51057 0.504 0.53118 0.0
La337 La 0.51358 0.55663 0.58168 0.0
C338 C 0.52809 0.45989 0.49175 0.0
C339 C 0.56161 0.44827 0.4897 0.0
C340 C 0.56122 0.41506 0.48195 0.0
C341 C 0.59319 0.40403 0.48044 0.0
C342 C 0.62591 0.42621 0.48636 0.0
C343 C 0.62615 0.45939 0.49451 0.0
C344 C 0.59424 0.47028 0.49647 0.0
C345 C 0.44989 0.49868 0.56985 0.0
C346 C 0.54382 0.49894 0.6092 0.0
C347 C 0.49789 0.60197 0.62046 0.0
C348 C 0.49182 0.63505 0.6122 0.0
C349 C 0.52001 0.66079 0.60054 0.0
C350 C 0.51339 0.69144 0.59128 0.0
C351 C 0.47849 0.69683 0.59325 0.0
C352 C 0.45039 0.67118 0.60504 0.0
C353 C 0.45704 0.64065 0.61461 0.0
C354 C 0.57477 0.5614 0.54395 0.0
C355 C 0.48149 0.56312 0.50203 0.0
O356 O 0.50955 0.45357 0.522 0.0
O357 O 0.53044 0.49026 0.48125 0.0
O358 O 0.45189 0.49094 0.53582 0.0
O359 O 0.48134 0.50767 0.58117 0.0
O360 O 0.54686 0.49341 0.57379 0.0
O361 O 0.52564 0.52099 0.62019 0.0
O362 O 0.53046 0.59754 0.61594 0.0
O363 O 0.47417 0.57705 0.6079 0.0
O364 O 0.57212 0.56858 0.57806 0.0
O365 O 0.54353 0.55297 0.5318 0.0
O366 O 0.48757 0.57528 0.53534 0.0
O367 O 0.48974 0.53474 0.49304 0.0
H368 H 0.53626 0.39772 0.47701 0.0
H369 H 0.59243 0.37835 0.47393 0.0
H370 H 0.651 0.47684 0.49956 0.0
H371 H 0.5951 0.49595 0.50317 0.0
H372 H 0.54713 0.65727 0.59825 0.0
H373 H 0.53549 0.71081 0.58217 0.0
H374 H 0.42332 0.67488 0.60737 0.0
H375 H 0.43488 0.62129 0.62365 0.0
La376 La 1.0168 0.50036 0.05987 0.0
La377 La 1.0105 0.56521 1.02423 0.0
C378 C 0.03899 0.44812 0.06716 0.0
C379 C 0.06647 0.43834 0.08885 0.0
C380 C 0.08531 0.46009 0.11461 0.0
C381 C 0.11525 0.45289 0.13088 0.0
C382 C 0.12688 0.42388 0.12148 0.0
C383 C 0.10709 0.40168 0.09655 0.0
C384 C 0.07719 0.40892 0.08032 0.0
C385 C 0.98971 0.53809 0.10834 0.0
C386 C 0.07744 0.56657 0.0725 0.0
C387 C 0.98998 0.6153 1.00328 0.0
C388 C 0.95546 0.62531 1.00098 0.0
C389 C 0.94396 0.63313 0.96703 0.0
C390 C 0.91221 0.64408 0.96419 0.0
C391 C 0.89148 0.64771 0.99535 0.0
C392 C 0.9026 0.63924 1.02931 0.0
C393 C 0.93423 0.62798 1.03211 0.0
C394 C 0.04767 0.52829 0.98618 0.0
C395 C 0.94482 0.50213 1.02083 0.0
O396 O 1.01063 0.4539 0.08457 0.0
O397 O 0.05175 0.47072 1.0429 0.0
O398 O 0.9968 0.50958 0.11537 0.0
O399 O 0.99847 0.54343 0.07535 0.0
O400 O 0.06826 0.53374 0.0738 0.0
O401 O 0.05721 0.58424 0.05675 0.0
O402 O 0.99465 0.59136 0.98144 0.0
O403 O 1.00191 0.61245 1.03586 0.0
O404 O 0.05516 0.56034 0.98754 0.0
O405 O 0.01941 0.51831 1.00507 0.0
O406 O 0.95622 0.53471 1.01917 0.0
O407 O 0.96513 0.48287 1.03368 0.0
H408 H 0.07763 0.48317 0.12114 0.0
H409 H 0.13006 0.47062 0.14975 0.0
H410 H 0.11502 0.37889 0.08919 0.0
H411 H 0.06313 0.39203 0.06021 0.0
H412 H 0.95989 0.63133 0.94269 0.0
H413 H 0.9046 0.6509 0.93773 0.0
H414 H 0.88702 0.64166 0.05372 0.0
H415 H 0.94226 0.6219 0.05869 0.0
H416 H 0.27787 0.22724 0.37176 0.0
H417 H 0.22554 0.30871 0.3609 0.0
H418 H 0.17216 0.27711 0.39188 0.0
H419 H 0.13841 0.22429 0.41654 0.0
H420 H 0.19099 0.14301 0.42711 0.0
H421 H 0.24648 0.17683 0.40251 0.0
C422 C 0.25518 0.23845 0.37705 0.0
C423 C 0.25553 0.27012 0.36367 0.0
C424 C 0.22449 0.22006 0.39455 0.0
C425 C 0.2257 0.28413 0.37041 0.0
C426 C 0.19518 0.2661 0.38811 0.0
C427 C 0.16215 0.21416 0.41369 0.0
C428 C 0.1606 0.1812 0.42332 0.0
C429 C 0.19389 0.23367 0.39928 0.0
C430 C 0.19161 0.16841 0.42004 0.0
C431 C 0.22328 0.18766 0.40579 0.0
H432 H 0.42459 0.94924 0.7575 0.0
H433 H 0.30956 0.92655 0.75617 0.0
H434 H 0.30676 0.92924 0.82256 0.0
H435 H 0.33734 0.94216 0.88061 0.0
H436 H 0.45247 0.96376 0.88175 0.0
H437 H 0.45504 0.95684 0.81592 0.0
C438 C 0.39899 0.94467 0.77191 0.0
C439 C 0.36734 0.93804 0.75229 0.0
C440 C 0.39764 0.94603 0.80994 0.0
C441 C 0.33423 0.93168 0.77095 0.0
C442 C 0.33264 0.93333 0.8088 0.0
C443 C 0.36291 0.94501 0.86638 0.0
C444 C 0.39463 0.95363 0.88584 0.0
C445 C 0.36419 0.94109 0.82853 0.0
C446 C 0.42767 0.95689 0.8673 0.0
C447 C 0.42918 0.9532 0.82966 0.0
H448 H 0.62436 0.40899 0.70209 0.0
H449 H 0.56858 0.44721 0.79014 0.0
H450 H 0.54225 0.47885 0.74711 0.0
H451 H 0.53491 0.49656 0.68406 0.0
H452 H 0.59012 0.45782 0.59599 0.0
H453 H 0.61671 0.42633 0.6391 0.0
C454 C 0.60665 0.42438 0.7121 0.0
C455 C 0.59875 0.4253 0.74992 0.0
C456 C 0.59136 0.44279 0.68691 0.0
C457 C 0.57509 0.44526 0.76157 0.0
C458 C 0.56009 0.46371 0.73681 0.0
C459 C 0.55286 0.48135 0.67419 0.0
C460 C 0.56041 0.47999 0.63638 0.0
C461 C 0.56798 0.46278 0.69936 0.0
C462 C 0.58361 0.45968 0.62461 0.0
C463 C 0.59893 0.44152 0.6494 0.0
H464 H 0.95638 0.61431 0.25194 0.0
H465 H 0.86795 0.62841 0.18882 0.0
H466 H 0.89083 0.60217 0.1362 0.0
H467 H 0.93467 0.57202 0.10822 0.0
H468 H 0.01984 0.55373 0.17341 0.0
H469 H 1.00014 0.58457 0.22407 0.0
C470 C 0.94224 0.61186 0.22661 0.0
C471 C 0.91027 0.62346 0.22474 0.0
C472 C 0.95516 0.59579 0.19638 0.0
C473 C 0.89235 0.61959 0.19149 0.0
C474 C 0.90554 0.60458 0.16117 0.0
C475 C 0.94927 0.57536 0.13329 0.0
C476 C 0.97922 0.56092 0.1366 0.0
C477 C 0.93677 0.5922 0.16323 0.0
C478 C 0.99704 0.56478 0.16981 0.0
C479 C 0.98562 0.58235 0.19899 0.0
H480 H 0.46429 0.20568 0.20972 0.0
H481 H 0.35807 0.17652 0.16736 0.0
H482 H 0.37261 0.1266 0.14138 0.0
H483 H 0.41629 0.0928 0.12761 0.0
H484 H 0.52355 0.12309 0.16705 0.0
H485 H 0.50775 0.17092 0.19719 0.0
C486 C 0.44438 0.1885 0.19464 0.0
C487 C 0.41013 0.19496 0.19053 0.0
C488 C 0.45306 0.15998 0.17926 0.0
C489 C 0.38449 0.17207 0.1714 0.0
C490 C 0.39283 0.14355 0.15633 0.0
C491 C 0.43612 0.10956 0.14324 0.0
C492 C 0.47104 0.1043 0.14507 0.0
C493 C 0.4271 0.1374 0.15982 0.0
C494 C 0.49645 0.12651 0.16518 0.0
C495 C 0.48748 0.15397 0.18232 0.0
H496 H 0.2059 0.98468 0.59831 0.0
H497 H 0.21458 0.93935 0.49329 0.0
H498 H 0.15774 0.9515 0.47631 0.0
H499 H 0.10689 0.97707 0.49037 0.0
H500 H 0.09704 1.02029 0.59614 0.0
H501 H 0.15268 1.00594 0.61421 0.0
C502 C 0.19511 0.97681 0.57196 0.0
C503 C 0.21474 0.96132 0.54703 0.0
C504 C 0.1622 0.98344 0.56255 0.0
C505 C 0.20047 0.95189 0.51276 0.0
C506 C 0.16784 0.95862 0.5031 0.0
C507 C 0.11685 0.98308 0.51746 0.0
C508 C 0.09829 0.99996 0.5418 0.0
C509 C 0.14874 0.97476 0.5276 0.0
C510 C 0.11106 1.00737 0.57694 0.0
C511 C 0.14288 0.99928 0.58722 0.0
H512 H 0.79273 0.46475 0.94661 0.0
H513 H 0.8128 0.36667 0.95453 0.0
H514 H 0.86878 0.38885 0.98475 0.0
H515 H 0.91374 0.43638 1.0078 0.0
H516 H 0.89404 0.53455 0.99886 0.0
H517 H 0.83716 0.51214 0.97045 0.0
C518 C 0.80933 0.44815 0.95477 0.0
C519 C 0.79786 0.41384 0.94823 0.0
C520 C 0.84203 0.46116 0.97216 0.0
C521 C 0.82008 0.39302 0.95957 0.0
C522 C 0.85247 0.40576 0.97675 0.0
C523 C 0.89693 0.4529 0.99996 0.0
C524 C 0.90867 0.48728 1.00574 0.0
C525 C 0.86389 0.43981 0.98319 0.0
C526 C 0.88619 0.50805 0.99496 0.0
C527 C 0.85343 0.49523 0.97853 0.0
H528 H 0.73081 0.62002 0.4787 0.0
H529 H 0.671 0.62408 0.38202 0.0
H530 H 0.6158 0.5978 0.41401 0.0
H531 H 0.58324 0.57558 0.47062 0.0
H532 H 0.64272 0.57367 0.56789 0.0
H533 H 0.69852 0.59642 0.5348 0.0
C534 C 0.70579 0.61483 0.46449 0.0
C535 C 0.70544 0.6244 0.42782 0.0
C536 C 0.67366 0.59998 0.48336 0.0
C537 C 0.67238 0.61756 0.41024 0.0
C538 C 0.64062 0.60235 0.42855 0.0
C539 C 0.60845 0.57985 0.48447 0.0
C540 C 0.60856 0.57286 0.52188 0.0
C541 C 0.64072 0.59376 0.46529 0.0
C542 C 0.64164 0.57885 0.53925 0.0
C543 C 0.6737 0.59195 0.52028 0.0
H544 H 0.25759 0.39874 0.20937 0.0
H545 H 0.28762 0.36642 0.10369 0.0
H546 H 0.23496 0.38082 0.07773 0.0
H547 H 0.17948 0.40092 0.08556 0.0
H548 H 0.14906 0.43224 0.19159 0.0
H549 H 0.20326 0.42053 0.21681 0.0
C550 C 0.25301 0.39545 0.18051 0.0
C551 C 0.27658 0.38166 0.15845 0.0
C552 C 0.22256 0.40346 0.1659 0.0
C553 C 0.2698 0.37685 0.12126 0.0
C554 C 0.23972 0.38508 0.10643 0.0
C555 C 0.18458 0.40495 0.11425 0.0
C556 C 0.1601 0.4172 0.13671 0.0
C557 C 0.21567 0.39796 0.1286 0.0
C558 C 0.16752 0.423 0.17366 0.0
C559 C 0.19844 0.41619 0.18813 0.0
H560 H 0.62053 0.19744 0.94186 0.0
H561 H 0.53559 0.24926 0.96119 0.0
H562 H 0.50235 0.20286 0.99669 0.0
H563 H 0.49608 0.14668 1.02152 0.0
H564 H 0.58059 0.09447 1.00294 0.0
H565 H 0.61483 0.14141 0.96811 0.0
C566 C 0.59466 0.19863 0.95363 0.0
C567 C 0.5809 0.22736 0.94848 0.0
C568 C 0.57538 0.17151 0.97432 0.0
C569 C 0.54742 0.2281 0.96474 0.0
C570 C 0.52814 0.2013 0.985 0.0
C571 C 0.52205 0.14553 1.00994 0.0
C572 C 0.53552 0.11674 1.01487 0.0
C573 C 0.54171 0.1728 0.98992 0.0
C574 C 0.56939 0.11606 0.9997 0.0
C575 C 0.589 0.14301 0.97965 0.0
H576 H 0.91761 0.85686 0.3839 0.0
H577 H 0.91258 0.79515 0.4782 0.0
H578 H 0.93717 0.84374 0.51504 0.0
H579 H 0.95937 0.90456 0.52131 0.0
H580 H 0.96273 0.96581 0.42688 0.0
H581 H 0.93915 0.91707 0.3901 0.0
C582 C 0.9215 0.85381 0.41257 0.0
C583 C 0.91294 0.82173 0.4278 0.0
C584 C 0.93534 0.88216 0.43398 0.0
C585 C 0.91919 0.81899 0.46509 0.0
C586 C 0.93307 0.84702 0.48645 0.0
C587 C 0.95492 0.90734 0.4927 0.0
C588 C 0.96295 0.93932 0.47722 0.0
C589 C 0.94117 0.87884 0.4713 0.0
C590 C 0.95688 0.94192 0.43992 0.0
C591 C 0.94336 0.91387 0.41868 0.0
H592 H 0.45961 0.84304 0.58297 0.0
H593 H 0.3708 0.79605 0.51753 0.0
H594 H 0.38813 0.74302 0.52345 0.0
H595 H 0.42621 0.7095 0.55083 0.0
H596 H 0.51504 0.75717 0.61569 0.0
H597 H 0.50058 0.8108 0.60541 0.0
C598 C 0.44452 0.82146 0.5691 0.0
C599 C 0.41383 0.82357 0.54994 0.0
C600 C 0.45457 0.79117 0.57266 0.0
C601 C 0.39425 0.79506 0.53287 0.0
C602 C 0.40418 0.76475 0.53618 0.0
C603 C 0.44241 0.73171 0.56257 0.0
C604 C 0.47142 0.72945 0.58425 0.0
C605 C 0.43381 0.76241 0.55671 0.0
C606 C 0.49266 0.75836 0.5988 0.0
C607 C 0.48429 0.78897 0.59309 0.0
H608 H 0.7912 0.79103 0.74828 0.0
H609 H 0.71822 0.82659 0.68001 0.0
H610 H 0.76718 0.84828 0.63701 0.0
H611 H 0.83181 0.86646 0.62593 0.0
H612 H 0.90466 0.83708 0.69991 0.0
H613 H 0.85478 0.80242 0.73246 0.0
C614 C 0.78573 0.80233 0.72325 0.0
C615 C 0.75126 0.80739 0.71732 0.0
C616 C 0.81424 0.81628 0.69988 0.0
C617 C 0.74463 0.82256 0.6851 0.0
C618 C 0.77266 0.83516 0.66073 0.0
C619 C 0.83684 0.85224 0.64898 0.0
C620 C 0.87202 0.85517 0.6609 0.0
C621 C 0.80784 0.83379 0.66898 0.0
C622 C 0.87803 0.83551 0.68996 0.0
C623 C 0.8494 0.81588 0.70895 0.0
H624 H 0.78885 0.23519 0.2598 0.0
H625 H 0.74294 0.17857 0.35357 0.0
H626 H 0.69643 0.14595 0.31639 0.0
H627 H 0.66988 0.13209 0.25715 0.0
H628 H 0.71506 0.18808 0.16293 0.0
H629 H 0.75991 0.22318 0.20063 0.0
C630 C 0.76845 0.21596 0.27216 0.0
C631 C 0.76982 0.20902 0.30934 0.0
C632 C 0.74145 0.19736 0.25062 0.0
C633 C 0.74316 0.18391 0.32486 0.0
C634 C 0.71632 0.1654 0.3037 0.0
C635 C 0.68953 0.15201 0.24487 0.0
C636 C 0.68936 0.1573 0.2073 0.0
C637 C 0.71547 0.17163 0.26652 0.0
C638 C 0.71451 0.18363 0.19186 0.0
C639 C 0.74033 0.20351 0.21334 0.0
H640 H 0.41899 0.662 0.40195 0.0
H641 H 0.42638 0.58665 0.32209 0.0
H642 H 0.44945 0.55506 0.36735 0.0
H643 H 0.46785 0.54784 0.42988 0.0
H644 H 0.46151 0.62283 0.51036 0.0
H645 H 0.43828 0.65493 0.46513 0.0
C646 C 0.42579 0.63877 0.39432 0.0
C647 C 0.42016 0.62688 0.35819 0.0
C648 C 0.4394 0.6203 0.42089 0.0
C649 C 0.42933 0.59647 0.34946 0.0
C650 C 0.44288 0.57828 0.37546 0.0
C651 C 0.46136 0.57116 0.43772 0.0
C652 C 0.46657 0.58253 0.47397 0.0
C653 C 0.44791 0.58975 0.41135 0.0
C654 C 0.45791 0.61307 0.48299 0.0
C655 C 0.44456 0.63161 0.45695 0.0
H656 H 0.13612 0.472 0.8607 0.0
H657 H 0.04445 0.39057 0.86534 0.0
H658 H 0.01865 0.41759 0.91514 0.0
H659 H 0.02086 0.46542 0.9576 0.0
H660 H 0.11135 0.5476 0.95057 0.0
H661 H 0.13812 0.51957 0.90218 0.0
C662 C 0.11031 0.46013 0.87216 0.0
C663 C 0.09274 0.42878 0.85864 0.0
C664 C 0.0951 0.47612 0.90095 0.0
C665 C 0.0594 0.41417 0.87497 0.0
C666 C 0.04431 0.42982 0.9036 0.0
C667 C 0.04656 0.47707 0.94568 0.0
C668 C 0.06398 0.50878 0.95815 0.0
C669 C 0.06183 0.46085 0.91698 0.0
C670 C 0.09717 0.52336 0.94184 0.0
C671 C 0.11257 0.5073 0.91393 0.0
H672 H 0.55234 0.88316 0.9131 0.0
H673 H 0.63779 0.88366 0.9874 0.0
H674 H 0.62094 0.92823 1.02201 0.0
H675 H 0.58339 0.96792 1.03082 0.0
H676 H 0.49679 0.96821 0.95864 0.0
H677 H 0.51293 0.92289 0.9232 0.0
C678 C 0.56705 0.89294 0.937 0.0
C679 C 0.59599 0.87971 0.94783 0.0
C680 C 0.55739 0.91901 0.95685 0.0
C681 C 0.61483 0.89268 0.97889 0.0
C682 C 0.60555 0.91852 0.99851 0.0
C683 C 0.56827 0.95836 1.00707 0.0
C684 C 0.53923 0.97155 0.99705 0.0
C685 C 0.57717 0.93205 0.98756 0.0
C686 C 0.51934 0.9584 0.96677 0.0
C687 C 0.52854 0.93249 0.94659 0.0
H688 H 0.9111 0.1505 0.45583 0.0
H689 H 0.93068 0.20576 0.55584 0.0
H690 H 0.94174 0.15687 0.58635 0.0
H691 H 0.9479 0.09882 0.58369 0.0
H692 H 0.92939 0.04452 0.48295 0.0
H693 H 0.91551 0.09258 0.45355 0.0
C694 C 0.9181 0.1519 0.48423 0.0
C695 C 0.9205 0.1817 0.50349 0.0
C696 C 0.92423 0.12381 0.50147 0.0
C697 C 0.92872 0.18302 0.54049 0.0
C698 C 0.93503 0.15512 0.5579 0.0
C699 C 0.94016 0.09744 0.55551 0.0
C700 C 0.93939 0.06829 0.53543 0.0
C701 C 0.93294 0.12539 0.53862 0.0
C702 C 0.92991 0.06678 0.49884 0.0
C703 C 0.92222 0.09425 0.48201 0.0
H704 H 0.2184 0.66471 0.12679 0.0
H705 H 0.2216 0.58243 0.19607 0.0
H706 H 0.16715 0.55052 0.16893 0.0
H707 H 0.11801 0.5456 0.12495 0.0
H708 H 0.11436 0.6291 0.05751 0.0
H709 H 0.16913 0.66029 0.08403 0.0
C710 C 0.20733 0.63975 0.13593 0.0
C711 C 0.22447 0.62622 0.16364 0.0
C712 C 0.17564 0.62149 0.12031 0.0
C713 C 0.20908 0.59386 0.17522 0.0
C714 C 0.1779 0.57542 0.15948 0.0
C715 C 0.12926 0.57056 0.11592 0.0
C716 C 0.11173 0.58473 0.08897 0.0
C717 C 0.16086 0.5889 0.13191 0.0
C718 C 0.12684 0.61735 0.07813 0.0
C719 C 0.15837 0.63534 0.09333 0.0
H720 H 0.33112 0.44266 0.69043 0.0
H721 H 0.26487 0.42608 0.59604 0.0
H722 H 0.31618 0.45002 0.55754 0.0
H723 H 0.38064 0.47497 0.54966 0.0
H724 H 0.44627 0.49449 0.64401 0.0
H725 H 0.39464 0.47101 0.68307 0.0
C726 C 0.32752 0.44463 0.66155 0.0
C727 C 0.29356 0.4318 0.6466 0.0
C728 C 0.35734 0.45918 0.63922 0.0
C729 C 0.29037 0.43463 0.60875 0.0
C730 C 0.31984 0.4487 0.5865 0.0
C731 C 0.38362 0.47427 0.5788 0.0
C732 C 0.41756 0.48641 0.59371 0.0
C733 C 0.35357 0.46083 0.6013 0.0
C734 C 0.42066 0.48538 0.63163 0.0
C735 C 0.39104 0.47182 0.65405 0.0
H736 H 0.78349 0.74131 0.98722 0.0
H737 H 0.74803 0.67861 0.89525 0.0
H738 H 0.78774 0.64238 0.91117 0.0
H739 H 0.83817 0.63292 0.94658 0.0
H740 H 0.87479 0.6969 1.03734 0.0
H741 H 0.82881 0.72802 1.02687 0.0
C742 C 0.78411 0.7194 0.97105 0.0
C743 C 0.76326 0.71279 0.93992 0.0
C744 C 0.80746 0.69912 0.97995 0.0
C745 C 0.76378 0.68411 0.91943 0.0
C746 C 0.78672 0.66358 0.92832 0.0
C747 C 0.83575 0.65346 0.96427 0.0
C748 C 0.86006 0.66287 0.9924 0.0
C749 C 0.80957 0.67153 0.95777 0.0
C750 C 0.85631 0.68912 1.01558 0.0
C751 C 0.8302 0.70707 1.00945 0.0
H752 H 0.45956 0.85909 0.21028 0.0
H753 H 0.37045 0.83268 0.13865 0.0
H754 H 0.38882 0.88576 0.10814 0.0
H755 H 0.43283 0.93915 0.09854 0.0
H756 H 0.52283 0.96406 0.16888 0.0
H757 H 0.50167 0.91287 0.20254 0.0
C758 C 0.44405 0.86476 0.18799 0.0
C759 C 0.41339 0.84126 0.17722 0.0
C760 C 0.45502 0.89556 0.17004 0.0
C761 C 0.39376 0.84994 0.14835 0.0
C762 C 0.40444 0.88045 0.13052 0.0
C763 C 0.44727 0.93374 0.12179 0.0
C764 C 0.47919 0.95597 0.13144 0.0
C765 C 0.43524 0.90349 0.14082 0.0
C766 C 0.49801 0.94781 0.16106 0.0
C767 C 0.48601 0.9183 0.18025 0.0
H768 H 0.10645 0.1939 0.6965 0.0
H769 H 0.0838 0.25698 0.61201 0.0
H770 H 0.05953 0.20848 0.57485 0.0
H771 H 0.04523 0.14745 0.56535 0.0
H772 H 0.06787 0.0849 0.6504 0.0
H773 H 0.09178 0.13342 0.68741 0.0
C774 C 0.09648 0.19726 0.66987 0.0
C775 C 0.09726 0.22966 0.65749 0.0
C776 C 0.08253 0.169 0.6483 0.0
C777 C 0.08337 0.23278 0.62292 0.0
C778 C 0.06963 0.20486 0.60134 0.0
C779 C 0.0555 0.14437 0.59192 0.0
C780 C 0.05469 0.11208 0.60468 0.0
C781 C 0.06914 0.17274 0.6136 0.0
C782 C 0.06796 0.10905 0.6395 0.0
C783 C 0.08174 0.13698 0.66087 0.0
H784 H 0.77439 0.39208 0.44775 0.0
H785 H 0.73273 0.31128 0.52046 0.0
H786 H 0.67913 0.33296 0.53192 0.0
H787 H 0.64257 0.37315 0.51837 0.0
H788 H 0.68517 0.45452 0.44691 0.0
H789 H 0.74037 0.43468 0.43841 0.0
C790 C 0.75405 0.3796 0.4668 0.0
C791 C 0.75749 0.34995 0.48298 0.0
C792 C 0.72337 0.39219 0.47329 0.0
C793 C 0.7305 0.33387 0.50717 0.0
C794 C 0.69987 0.34627 0.5138 0.0
C795 C 0.66405 0.38648 0.50102 0.0
C796 C 0.65987 0.41501 0.48303 0.0
C797 C 0.6957 0.37502 0.4964 0.0
C798 C 0.68795 0.4325 0.46107 0.0
C799 C 0.71941 0.42113 0.45613 0.0
loop_
_geom_bond_atom_site_label_1
_geom_bond_atom_site_label_2
_geom_bond_distance
_geom_bond_site_symmetry_2
_ccdc_geom_bond_type
P0 O11 1.490 . S
P0 C14 1.812 . S
P0 C20 1.803 . S
P0 C26 1.819 . S
H1 C15 0.941 . S
H2 C16 0.939 . S
H3 C18 0.940 . S
H4 C19 0.940 . S
H5 C21 0.939 . S
H6 C22 0.942 . S
H7 C24 0.940 . S
H8 C25 0.939 . S
H9 C27 0.941 . S
H10 C31 0.939 . S
O11 P0 1.490 . S
H12 C28 0.939 . S
H13 C30 0.940 . S
C14 P0 1.812 . S
C14 C15 1.389 . S
C14 C19 1.391 . S
C15 H1 0.941 . S
C15 C14 1.389 . S
C15 C16 1.397 . S
C16 H2 0.939 . S
C16 C15 1.397 . S
C16 C17 1.378 . S
C17 C16 1.378 . S
C17 C18 1.378 . S
C18 H3 0.940 . S
C18 C17 1.378 . S
C18 C19 1.396 . S
C19 H4 0.940 . S
C19 C14 1.391 . S
C19 C18 1.396 . S
C20 P0 1.803 . S
C20 C21 1.378 . S
C20 C25 1.400 . S
C21 H5 0.939 . S
C21 C20 1.378 . S
C21 C22 1.361 . S
C22 H6 0.942 . S
C22 C21 1.361 . S
C22 C23 1.369 . S
C23 C22 1.369 . S
C23 C24 1.404 . S
C24 H7 0.940 . S
C24 C23 1.404 . S
C24 C25 1.389 . S
C25 H8 0.939 . S
C25 C20 1.400 . S
C25 C24 1.389 . S
C26 P0 1.819 . S
C26 C27 1.391 . S
C26 C31 1.391 . S
C27 H9 0.941 . S
C27 C26 1.391 . S
C27 C28 1.396 . S
C28 H12 0.939 . S
C28 C27 1.396 . S
C28 C29 1.397 . S
C29 C28 1.397 . S
C29 C30 1.385 . S
C30 H13 0.940 . S
C30 C29 1.385 . S
C30 C31 1.388 . S
C31 H10 0.939 . S
C31 C26 1.391 . S
C31 C30 1.388 . S
P32 O43 1.490 . S
P32 C46 1.812 . S
P32 C52 1.803 . S
P32 C58 1.819 . S
H33 C47 0.941 . S
H34 C48 0.939 . S
H35 C50 0.940 . S
H36 C51 0.940 . S
H37 C53 0.939 . S
H38 C54 0.942 . S
H39 C56 0.940 . S
H40 C57 0.939 . S
H41 C59 0.941 . S
H42 C63 0.939 . S
O43 P32 1.490 . S
H44 C60 0.939 . S
H45 C62 0.940 . S
C46 P32 1.812 . S
C46 C47 1.389 . S
C46 C51 1.391 . S
C47 H33 0.941 . S
C47 C46 1.389 . S
C47 C48 1.397 . S
C48 H34 0.939 . S
C48 C47 1.397 . S
C48 C49 1.378 . S
C49 C48 1.378 . S
C49 C50 1.378 . S
C50 H35 0.940 . S
C50 C49 1.378 . S
C50 C51 1.396 . S
C51 H36 0.940 . S
C51 C46 1.391 . S
C51 C50 1.396 . S
C52 P32 1.803 . S
C52 C53 1.378 . S
C52 C57 1.400 . S
C53 H37 0.939 . S
C53 C52 1.378 . S
C53 C54 1.361 . S
C54 H38 0.942 . S
C54 C53 1.361 . S
C54 C55 1.369 . S
C55 C54 1.369 . S
C55 C56 1.404 . S
C56 H39 0.940 . S
C56 C55 1.404 . S
C56 C57 1.389 . S
C57 H40 0.939 . S
C57 C52 1.400 . S
C57 C56 1.389 . S
C58 P32 1.819 . S
C58 C59 1.391 . S
C58 C63 1.391 . S
C59 H41 0.941 . S
C59 C58 1.391 . S
C59 C60 1.396 . S
C60 H44 0.939 . S
C60 C59 1.396 . S
C60 C61 1.397 . S
C61 C60 1.397 . S
C61 C62 1.385 . S
C62 H45 0.940 . S
C62 C61 1.385 . S
C62 C63 1.388 . S
C63 H42 0.939 . S
C63 C58 1.391 . S
C63 C62 1.388 . S
P64 O75 1.490 . S
P64 C78 1.812 . S
P64 C84 1.803 . S
P64 C90 1.819 . S
H65 C79 0.941 . S
H66 C80 0.939 . S
H67 C82 0.940 . S
H68 C83 0.940 . S
H69 C85 0.939 . S
H70 C86 0.942 . S
H71 C88 0.940 . S
H72 C89 0.939 . S
H73 C91 0.941 . S
H74 C95 0.939 . S
O75 P64 1.490 . S
H76 C92 0.939 . S
H77 C94 0.940 . S
C78 P64 1.812 . S
C78 C79 1.389 . S
C78 C83 1.391 . S
C79 H65 0.941 . S
C79 C78 1.389 . S
C79 C80 1.397 . S
C80 H66 0.939 . S
C80 C79 1.397 . S
C80 C81 1.378 . S
C81 C80 1.378 . S
C81 C82 1.378 . S
C82 H67 0.940 . S
C82 C81 1.378 . S
C82 C83 1.396 . S
C83 H68 0.940 . S
C83 C78 1.391 . S
C83 C82 1.396 . S
C84 P64 1.803 . S
C84 C85 1.378 . S
C84 C89 1.400 . S
C85 H69 0.939 . S
C85 C84 1.378 . S
C85 C86 1.361 . S
C86 H70 0.942 . S
C86 C85 1.361 . S
C86 C87 1.369 . S
C87 C86 1.369 . S
C87 C88 1.404 . S
C88 H71 0.940 . S
C88 C87 1.404 . S
C88 C89 1.389 . S
C89 H72 0.939 . S
C89 C84 1.400 . S
C89 C88 1.389 . S
C90 P64 1.819 . S
C90 C91 1.391 . S
C90 C95 1.391 . S
C91 H73 0.941 . S
C91 C90 1.391 . S
C91 C92 1.396 . S
C92 H76 0.939 . S
C92 C91 1.396 . S
C92 C93 1.397 . S
C93 C92 1.397 . S
C93 C94 1.385 . S
C94 H77 0.940 . S
C94 C93 1.385 . S
C94 C95 1.388 . S
C95 H74 0.939 . S
C95 C90 1.391 . S
C95 C94 1.388 . S
P96 O107 1.490 . S
P96 C110 1.812 . S
P96 C116 1.803 . S
P96 C122 1.819 . S
H97 C111 0.941 . S
H98 C112 0.939 . S
H99 C114 0.940 . S
H100 C115 0.940 . S
H101 C117 0.939 . S
H102 C118 0.942 . S
H103 C120 0.940 . S
H104 C121 0.939 . S
H105 C123 0.941 . S
H106 C127 0.939 . S
O107 P96 1.490 . S
H108 C124 0.939 . S
H109 C126 0.940 . S
C110 P96 1.812 . S
C110 C111 1.389 . S
C110 C115 1.391 . S
C111 H97 0.941 . S
C111 C110 1.389 . S
C111 C112 1.397 . S
C112 H98 0.939 . S
C112 C111 1.397 . S
C112 C113 1.378 . S
C113 C112 1.378 . S
C113 C114 1.378 . S
C114 H99 0.940 . S
C114 C113 1.378 . S
C114 C115 1.396 . S
C115 H100 0.940 . S
C115 C110 1.391 . S
C115 C114 1.396 . S
C116 P96 1.803 . S
C116 C117 1.378 . S
C116 C121 1.400 . S
C117 H101 0.939 . S
C117 C116 1.378 . S
C117 C118 1.361 . S
C118 H102 0.942 . S
C118 C117 1.361 . S
C118 C119 1.369 . S
C119 C118 1.369 . S
C119 C120 1.404 . S
C120 H103 0.940 . S
C120 C119 1.404 . S
C120 C121 1.389 . S
C121 H104 0.939 . S
C121 C116 1.400 . S
C121 C120 1.389 . S
C122 P96 1.819 . S
C122 C123 1.391 . S
C122 C127 1.391 . S
C123 H105 0.941 . S
C123 C122 1.391 . S
C123 C124 1.396 . S
C124 H108 0.939 . S
C124 C123 1.396 . S
C124 C125 1.397 . S
C125 C124 1.397 . S
C125 C126 1.385 . S
C126 H109 0.940 . S
C126 C125 1.385 . S
C126 C127 1.388 . S
C127 H106 0.939 . S
C127 C122 1.391 . S
C127 C126 1.388 . S
P128 O139 1.490 . S
P128 C142 1.812 . S
P128 C148 1.803 . S
P128 C154 1.819 . S
H129 C143 0.941 . S
H130 C144 0.939 . S
H131 C146 0.940 . S
H132 C147 0.940 . S
H133 C149 0.939 . S
H134 C150 0.942 . S
H135 C152 0.940 . S
H136 C153 0.939 . S
H137 C155 0.941 . S
H138 C159 0.939 . S
O139 P128 1.490 . S
H140 C156 0.939 . S
H141 C158 0.940 . S
C142 P128 1.812 . S
C142 C143 1.389 . S
C142 C147 1.391 . S
C143 H129 0.941 . S
C143 C142 1.389 . S
C143 C144 1.397 . S
C144 H130 0.939 . S
C144 C143 1.397 . S
C144 C145 1.378 . S
C145 C144 1.378 . S
C145 C146 1.378 . S
C146 H131 0.940 . S
C146 C145 1.378 . S
C146 C147 1.396 . S
C147 H132 0.940 . S
C147 C142 1.391 . S
C147 C146 1.396 . S
C148 P128 1.803 . S
C148 C149 1.378 . S
C148 C153 1.400 . S
C149 H133 0.939 . S
C149 C148 1.378 . S
C149 C150 1.361 . S
C150 H134 0.942 . S
C150 C149 1.361 . S
C150 C151 1.369 . S
C151 C150 1.369 . S
C151 C152 1.404 . S
C152 H135 0.940 . S
C152 C151 1.404 . S
C152 C153 1.389 . S
C153 H136 0.939 . S
C153 C148 1.400 . S
C153 C152 1.389 . S
C154 P128 1.819 . S
C154 C155 1.391 . S
C154 C159 1.391 . S
C155 H137 0.941 . S
C155 C154 1.391 . S
C155 C156 1.396 . S
C156 H140 0.939 . S
C156 C155 1.396 . S
C156 C157 1.397 . S
C157 C156 1.397 . S
C157 C158 1.385 . S
C158 H141 0.940 . S
C158 C157 1.385 . S
C158 C159 1.388 . S
C159 H138 0.939 . S
C159 C154 1.391 . S
C159 C158 1.388 . S
P160 O171 1.490 . S
P160 C174 1.812 . S
P160 C180 1.803 . S
P160 C186 1.819 . S
H161 C175 0.941 . S
H162 C176 0.939 . S
H163 C178 0.940 . S
H164 C179 0.940 . S
H165 C181 0.939 . S
H166 C182 0.942 . S
H167 C184 0.940 . S
H168 C185 0.939 . S
H169 C187 0.941 . S
H170 C191 0.939 . S
O171 P160 1.490 . S
H172 C188 0.939 . S
H173 C190 0.940 . S
C174 P160 1.812 . S
C174 C175 1.389 . S
C174 C179 1.391 . S
C175 H161 0.941 . S
C175 C174 1.389 . S
C175 C176 1.397 . S
C176 H162 0.939 . S
C176 C175 1.397 . S
C176 C177 1.378 . S
C177 C176 1.378 . S
C177 C178 1.378 . S
C178 H163 0.940 . S
C178 C177 1.378 . S
C178 C179 1.396 . S
C179 H164 0.940 . S
C179 C174 1.391 . S
C179 C178 1.396 . S
C180 P160 1.803 . S
C180 C181 1.378 . S
C180 C185 1.400 . S
C181 H165 0.939 . S
C181 C180 1.378 . S
C181 C182 1.361 . S
C182 H166 0.942 . S
C182 C181 1.361 . S
C182 C183 1.369 . S
C183 C182 1.369 . S
C183 C184 1.404 . S
C184 H167 0.940 . S
C184 C183 1.404 . S
C184 C185 1.389 . S
C185 H168 0.939 . S
C185 C180 1.400 . S
C185 C184 1.389 . S
C186 P160 1.819 . S
C186 C187 1.391 . S
C186 C191 1.391 . S
C187 H169 0.941 . S
C187 C186 1.391 . S
C187 C188 1.396 . S
C188 H172 0.939 . S
C188 C187 1.396 . S
C188 C189 1.397 . S
C189 C188 1.397 . S
C189 C190 1.385 . S
C190 H173 0.940 . S
C190 C189 1.385 . S
C190 C191 1.388 . S
C191 H170 0.939 . S
C191 C186 1.391 . S
C191 C190 1.388 . S
P192 O203 1.490 . S
P192 C206 1.812 . S
P192 C212 1.803 . S
P192 C218 1.819 . S
H193 C207 0.941 . S
H194 C208 0.939 . S
H195 C210 0.940 . S
H196 C211 0.940 . S
H197 C213 0.939 . S
H198 C214 0.942 . S
H199 C216 0.940 . S
H200 C217 0.939 . S
H201 C219 0.941 . S
H202 C223 0.939 . S
O203 P192 1.490 . S
H204 C220 0.939 . S
H205 C222 0.940 . S
C206 P192 1.812 . S
C206 C207 1.389 . S
C206 C211 1.391 . S
C207 H193 0.941 . S
C207 C206 1.389 . S
C207 C208 1.397 . S
C208 H194 0.939 . S
C208 C207 1.397 . S
C208 C209 1.378 . S
C209 C208 1.378 . S
C209 C210 1.378 . S
C210 H195 0.940 . S
C210 C209 1.378 . S
C210 C211 1.396 . S
C211 H196 0.940 . S
C211 C206 1.391 . S
C211 C210 1.396 . S
C212 P192 1.803 . S
C212 C213 1.378 . S
C212 C217 1.400 . S
C213 H197 0.939 . S
C213 C212 1.378 . S
C213 C214 1.361 . S
C214 H198 0.942 . S
C214 C213 1.361 . S
C214 C215 1.369 . S
C215 C214 1.369 . S
C215 C216 1.404 . S
C216 H199 0.940 . S
C216 C215 1.404 . S
C216 C217 1.389 . S
C217 H200 0.939 . S
C217 C212 1.400 . S
C217 C216 1.389 . S
C218 P192 1.819 . S
C218 C219 1.391 . S
C218 C223 1.391 . S
C219 H201 0.941 . S
C219 C218 1.391 . S
C219 C220 1.396 . S
C220 H204 0.939 . S
C220 C219 1.396 . S
C220 C221 1.397 . S
C221 C220 1.397 . S
C221 C222 1.385 . S
C222 H205 0.940 . S
C222 C221 1.385 . S
C222 C223 1.388 . S
C223 H202 0.939 . S
C223 C218 1.391 . S
C223 C222 1.388 . S
P224 O235 1.490 . S
P224 C238 1.812 . S
P224 C244 1.803 . S
P224 C250 1.819 . S
H225 C239 0.941 . S
H226 C240 0.939 . S
H227 C242 0.940 . S
H228 C243 0.940 . S
H229 C245 0.939 . S
H230 C246 0.942 . S
H231 C248 0.940 . S
H232 C249 0.939 . S
H233 C251 0.941 . S
H234 C255 0.939 . S
O235 P224 1.490 . S
H236 C252 0.939 . S
H237 C254 0.940 . S
C238 P224 1.812 . S
C238 C239 1.389 . S
C238 C243 1.391 . S
C239 H225 0.941 . S
C239 C238 1.389 . S
C239 C240 1.397 . S
C240 H226 0.939 . S
C240 C239 1.397 . S
C240 C241 1.378 . S
C241 C240 1.378 . S
C241 C242 1.378 . S
C242 H227 0.940 . S
C242 C241 1.378 . S
C242 C243 1.396 . S
C243 H228 0.940 . S
C243 C238 1.391 . S
C243 C242 1.396 . S
C244 P224 1.803 . S
C244 C245 1.378 . S
C244 C249 1.400 . S
C245 H229 0.939 . S
C245 C244 1.378 . S
C245 C246 1.361 . S
C246 H230 0.942 . S
C246 C245 1.361 . S
C246 C247 1.369 . S
C247 C246 1.369 . S
C247 C248 1.404 . S
C248 H231 0.940 . S
C248 C247 1.404 . S
C248 C249 1.389 . S
C249 H232 0.939 . S
C249 C244 1.400 . S
C249 C248 1.389 . S
C250 P224 1.819 . S
C250 C251 1.391 . S
C250 C255 1.391 . S
C251 H233 0.941 . S
C251 C250 1.391 . S
C251 C252 1.396 . S
C252 H236 0.939 . S
C252 C251 1.396 . S
C252 C253 1.397 . S
C253 C252 1.397 . S
C253 C254 1.385 . S
C254 H237 0.940 . S
C254 C253 1.385 . S
C254 C255 1.388 . S
C255 H234 0.939 . S
C255 C250 1.391 . S
C255 C254 1.388 . S
La256 C258 2.928 . S
La256 O276 2.521 . S
La256 O277 2.628 . S
La256 O278 2.554 1_545 S
La256 O279 2.757 1_545 S
La256 O280 2.470 . S
La256 O285 2.482 1_455 S
La256 O287 2.503 1_445 S
La257 C267 2.928 . S
La257 O279 2.482 1_655 S
La257 O281 2.503 1_665 S
La257 O282 2.521 . S
La257 O283 2.628 . S
La257 O284 2.554 1_565 S
La257 O285 2.757 1_565 S
La257 O286 2.470 . S
C258 La256 2.928 . S
C258 C259 1.503 . S
C258 O276 1.261 . S
C258 O277 1.243 . S
C259 C258 1.503 . S
C259 C260 1.394 . S
C259 C264 1.373 . S
C260 C259 1.394 . S
C260 C261 1.380 . S
C260 H288 0.930 . S
C261 C260 1.380 . S
C261 C262 1.376 . S
C261 H289 0.930 . S
C262 C261 1.376 . S
C262 C263 1.370 . S
C263 C262 1.370 . S
C263 C264 1.396 . S
C263 H290 0.929 . S
C264 C259 1.373 . S
C264 C263 1.396 . S
C264 H291 0.929 . S
C265 O278 1.240 . S
C265 O279 1.289 . S
C266 O280 1.258 . S
C266 O281 1.256 . S
C267 La257 2.928 . S
C267 C268 1.503 . S
C267 O282 1.261 . S
C267 O283 1.243 . S
C268 C267 1.503 . S
C268 C269 1.394 . S
C268 C273 1.373 . S
C269 C268 1.394 . S
C269 C270 1.380 . S
C269 H292 0.930 . S
C270 C269 1.380 . S
C270 C271 1.376 . S
C270 H293 0.930 . S
C271 C270 1.376 . S
C271 C272 1.370 . S
C272 C271 1.370 . S
C272 C273 1.396 . S
C272 H294 0.929 . S
C273 C268 1.373 . S
C273 C272 1.396 . S
C273 H295 0.929 . S
C274 O284 1.240 . S
C274 O285 1.289 . S
C275 O286 1.258 . S
C275 O287 1.256 . S
O276 La256 2.521 . S
O276 C258 1.261 . S
O277 La256 2.628 . S
O277 C258 1.243 . S
O278 La256 2.554 1_565 S
O278 C265 1.240 . S
O279 La256 2.757 1_565 S
O279 La257 2.482 1_455 S
O279 C265 1.289 . S
O280 La256 2.470 . S
O280 C266 1.258 . S
O281 La257 2.503 1_445 S
O281 C266 1.256 . S
O282 La257 2.521 . S
O282 C267 1.261 . S
O283 La257 2.628 . S
O283 C267 1.243 . S
O284 La257 2.554 1_545 S
O284 C274 1.240 . S
O285 La256 2.482 1_655 S
O285 La257 2.757 1_545 S
O285 C274 1.289 . S
O286 La257 2.470 . S
O286 C275 1.258 . S
O287 La256 2.503 1_665 S
O287 C275 1.256 . S
H288 C260 0.930 . S
H289 C261 0.930 . S
H290 C263 0.929 . S
H291 C264 0.929 . S
H292 C269 0.930 . S
H293 C270 0.930 . S
H294 C272 0.929 . S
H295 C273 0.929 . S
La296 C298 2.928 . S
La296 O316 2.521 . S
La296 O317 2.628 . S
La296 O318 2.554 1_545 S
La296 O319 2.757 1_545 S
La296 O320 2.470 . S
La296 O325 2.482 1_554 S
La296 O327 2.503 1_544 S
La297 C307 2.928 1_545 S
La297 O319 2.482 1_546 S
La297 O321 2.503 1_556 S
La297 O322 2.520 1_545 S
La297 O323 2.628 1_545 S
La297 O324 2.554 . S
La297 O325 2.757 . S
La297 O326 2.470 1_545 S
C298 La296 2.928 . S
C298 C299 1.503 . S
C298 O316 1.261 . S
C298 O317 1.243 . S
C299 C298 1.503 . S
C299 C300 1.394 . S
C299 C304 1.373 . S
C300 C299 1.394 . S
C300 C301 1.380 . S
C300 H328 0.930 . S
C301 C300 1.380 . S
C301 C302 1.376 . S
C301 H329 0.930 . S
C302 C301 1.376 . S
C302 C303 1.370 . S
C303 C302 1.370 . S
C303 C304 1.396 . S
C303 H330 0.929 . S
C304 C299 1.373 . S
C304 C303 1.396 . S
C304 H331 0.929 . S
C305 O318 1.240 . S
C305 O319 1.289 . S
C306 O320 1.258 . S
C306 O321 1.256 . S
C307 La297 2.928 1_565 S
C307 C308 1.503 . S
C307 O322 1.285 . S
C307 O323 1.243 . S
C308 C307 1.503 . S
C308 C309 1.394 . S
C308 C313 1.373 . S
C309 C308 1.394 . S
C309 C310 1.380 . S
C309 H332 0.930 . S
C310 C309 1.380 . S
C310 C311 1.376 . S
C310 H333 0.930 . S
C311 C310 1.376 . S
C311 C312 1.370 . S
C312 C311 1.370 . S
C312 C313 1.396 . S
C312 H334 0.929 . S
C313 C308 1.373 . S
C313 C312 1.396 . S
C313 H335 0.929 . S
C314 O324 1.240 . S
C314 O325 1.289 . S
C315 O326 1.258 . S
C315 O327 1.256 . S
O316 La296 2.521 . S
O316 C298 1.261 . S
O317 La296 2.628 . S
O317 C298 1.243 . S
O318 La296 2.554 1_565 S
O318 C305 1.240 . S
O319 La296 2.757 1_565 S
O319 La297 2.482 1_564 S
O319 C305 1.289 . S
O320 La296 2.470 . S
O320 C306 1.258 . S
O321 La297 2.503 1_554 S
O321 C306 1.256 . S
O322 La297 2.520 1_565 S
O322 C307 1.285 . S
O323 La297 2.628 1_565 S
O323 C307 1.243 . S
O324 La297 2.554 . S
O324 C314 1.240 . S
O325 La296 2.482 1_556 S
O325 La297 2.757 . S
O325 C314 1.289 . S
O326 La297 2.470 1_565 S
O326 C315 1.258 . S
O327 La296 2.503 1_566 S
O327 C315 1.256 . S
H328 C300 0.930 . S
H329 C301 0.930 . S
H330 C303 0.929 . S
H331 C304 0.929 . S
H332 C309 0.930 . S
H333 C310 0.930 . S
H334 C312 0.929 . S
H335 C313 0.929 . S
La336 C338 2.928 . S
La336 O356 2.521 . S
La336 O357 2.628 . S
La336 O358 2.554 . S
La336 O359 2.757 . S
La336 O360 2.470 . S
La336 O365 2.482 . S
La336 O367 2.503 . S
La337 C347 2.928 . S
La337 O359 2.482 . S
La337 O361 2.503 . S
La337 O362 2.521 . S
La337 O363 2.628 . S
La337 O364 2.554 . S
La337 O365 2.757 . S
La337 O366 2.470 . S
C338 La336 2.928 . S
C338 C339 1.503 . S
C338 O356 1.261 . S
C338 O357 1.243 . S
C339 C338 1.503 . S
C339 C340 1.394 . S
C339 C344 1.373 . S
C340 C339 1.394 . S
C340 C341 1.380 . S
C340 H368 0.930 . S
C341 C340 1.380 . S
C341 C342 1.376 . S
C341 H369 0.930 . S
C342 C341 1.376 . S
C342 C343 1.370 . S
C343 C342 1.370 . S
C343 C344 1.396 . S
C343 H370 0.929 . S
C344 C339 1.373 . S
C344 C343 1.396 . S
C344 H371 0.929 . S
C345 O358 1.240 . S
C345 O359 1.289 . S
C346 O360 1.258 . S
C346 O361 1.256 . S
C347 La337 2.928 . S
C347 C348 1.503 . S
C347 O362 1.261 . S
C347 O363 1.243 . S
C348 C347 1.503 . S
C348 C349 1.394 . S
C348 C353 1.373 . S
C349 C348 1.394 . S
C349 C350 1.380 . S
C349 H372 0.930 . S
C350 C349 1.380 . S
C350 C351 1.376 . S
C350 H373 0.930 . S
C351 C350 1.376 . S
C351 C352 1.370 . S
C352 C351 1.370 . S
C352 C353 1.396 . S
C352 H374 0.929 . S
C353 C348 1.373 . S
C353 C352 1.396 . S
C353 H375 0.929 . S
C354 O364 1.240 . S
C354 O365 1.289 . S
C355 O366 1.258 . S
C355 O367 1.256 . S
O356 La336 2.521 . S
O356 C338 1.261 . S
O357 La336 2.628 . S
O357 C338 1.243 . S
O358 La336 2.554 . S
O358 C345 1.240 . S
O359 La336 2.757 . S
O359 La337 2.482 . S
O359 C345 1.289 . S
O360 La336 2.470 . S
O360 C346 1.258 . S
O361 La337 2.503 . S
O361 C346 1.256 . S
O362 La337 2.521 . S
O362 C347 1.261 . S
O363 La337 2.628 . S
O363 C347 1.243 . S
O364 La337 2.554 . S
O364 C354 1.240 . S
O365 La336 2.482 . S
O365 La337 2.757 . S
O365 C354 1.289 . S
O366 La337 2.470 . S
O366 C355 1.258 . S
O367 La336 2.503 . S
O367 C355 1.256 . S
H368 C340 0.930 . S
H369 C341 0.930 . S
H370 C343 0.929 . S
H371 C344 0.929 . S
H372 C349 0.930 . S
H373 C350 0.930 . S
H374 C352 0.929 . S
H375 C353 0.929 . S
La376 C378 2.928 . S
La376 O396 2.521 . S
La376 O397 2.628 . S
La376 O398 2.554 1_455 S
La376 O399 2.757 1_455 S
La376 O400 2.470 . S
La376 O405 2.482 1_554 S
La376 O407 2.503 1_454 S
La377 C387 2.928 . S
La377 O399 2.482 1_556 S
La377 O401 2.503 1_656 S
La377 O402 2.521 . S
La377 O403 2.628 . S
La377 O404 2.554 1_655 S
La377 O405 2.757 1_655 S
La377 O406 2.470 . S
C378 La376 2.928 . S
C378 C379 1.503 . S
C378 O396 1.261 . S
C378 O397 1.243 . S
C379 C378 1.503 . S
C379 C380 1.394 . S
C379 C384 1.373 . S
C380 C379 1.394 . S
C380 C381 1.380 . S
C380 H408 0.930 . S
C381 C380 1.380 . S
C381 C382 1.376 . S
C381 H409 0.930 . S
C382 C381 1.376 . S
C382 C383 1.370 . S
C383 C382 1.370 . S
C383 C384 1.396 . S
C383 H410 0.929 . S
C384 C379 1.373 . S
C384 C383 1.396 . S
C384 H411 0.929 . S
C385 O398 1.240 . S
C385 O399 1.289 . S
C386 O400 1.258 . S
C386 O401 1.256 . S
C387 La377 2.928 . S
C387 C388 1.503 . S
C387 O402 1.261 . S
C387 O403 1.243 . S
C388 C387 1.503 . S
C388 C389 1.394 . S
C388 C393 1.373 . S
C389 C388 1.394 . S
C389 C390 1.380 . S
C389 H412 0.930 . S
C390 C389 1.380 . S
C390 C391 1.376 . S
C390 H413 0.930 . S
C391 C390 1.376 . S
C391 C392 1.370 . S
C392 C391 1.370 . S
C392 C393 1.396 . S
C392 H414 0.929 . S
C393 C388 1.373 . S
C393 C392 1.396 . S
C393 H415 0.929 . S
C394 O404 1.240 . S
C394 O405 1.289 . S
C395 O406 1.258 . S
C395 O407 1.256 . S
O396 La376 2.521 . S
O396 C378 1.261 . S
O397 La376 2.628 . S
O397 C378 1.243 . S
O398 La376 2.554 1_655 S
O398 C385 1.240 . S
O399 La376 2.757 1_655 S
O399 La377 2.482 1_554 S
O399 C385 1.289 . S
O400 La376 2.470 . S
O400 C386 1.258 . S
O401 La377 2.503 1_454 S
O401 C386 1.256 . S
O402 La377 2.521 . S
O402 C387 1.261 . S
O403 La377 2.628 . S
O403 C387 1.243 . S
O404 La377 2.554 1_455 S
O404 C394 1.240 . S
O405 La376 2.482 1_556 S
O405 La377 2.757 1_455 S
O405 C394 1.289 . S
O406 La377 2.470 . S
O406 C395 1.258 . S
O407 La376 2.503 1_656 S
O407 C395 1.256 . S
H408 C380 0.930 . S
H409 C381 0.930 . S
H410 C383 0.929 . S
H411 C384 0.929 . S
H412 C389 0.930 . S
H413 C390 0.930 . S
H414 C392 0.929 . S
H415 C393 0.929 . S
H416 C422 0.930 . S
H417 C425 0.930 . S
H418 C426 0.930 . S
H419 C427 0.930 . S
H420 C430 0.930 . S
H421 C431 0.930 . S
C422 H416 0.930 . S
C422 C423 1.355 . S
C422 C424 1.415 . S
C423 C422 1.355 . S
C423 C425 1.419 . S
C424 C422 1.415 . S
C424 C429 1.425 . S
C424 C431 1.409 . S
C425 H417 0.930 . S
C425 C423 1.419 . S
C425 C426 1.362 . S
C426 H418 0.930 . S
C426 C425 1.362 . S
C426 C429 1.409 . S
C427 H419 0.930 . S
C427 C428 1.355 . S
C427 C429 1.415 . S
C428 C427 1.355 . S
C428 C430 1.419 . S
C429 C424 1.425 . S
C429 C426 1.409 . S
C429 C427 1.415 . S
C430 H420 0.930 . S
C430 C428 1.419 . S
C430 C431 1.362 . S
C431 H421 0.930 . S
C431 C424 1.409 . S
C431 C430 1.362 . S
H432 C438 0.930 . S
H433 C441 0.930 . S
H434 C442 0.930 . S
H435 C443 0.930 . S
H436 C446 0.930 . S
H437 C447 0.930 . S
C438 H432 0.930 . S
C438 C439 1.355 . S
C438 C440 1.415 . S
C439 C438 1.355 . S
C439 C441 1.419 . S
C440 C438 1.415 . S
C440 C445 1.425 . S
C440 C447 1.409 . S
C441 H433 0.930 . S
C441 C439 1.419 . S
C441 C442 1.362 . S
C442 H434 0.930 . S
C442 C441 1.362 . S
C442 C445 1.409 . S
C443 H435 0.930 . S
C443 C444 1.355 . S
C443 C445 1.415 . S
C444 C443 1.355 . S
C444 C446 1.419 . S
C445 C440 1.425 . S
C445 C442 1.409 . S
C445 C443 1.415 . S
C446 H436 0.930 . S
C446 C444 1.419 . S
C446 C447 1.362 . S
C447 H437 0.930 . S
C447 C440 1.409 . S
C447 C446 1.362 . S
H448 C454 0.930 . S
H449 C457 0.930 . S
H450 C458 0.930 . S
H451 C459 0.930 . S
H452 C462 0.930 . S
H453 C463 0.930 . S
C454 H448 0.930 . S
C454 C455 1.355 . S
C454 C456 1.415 . S
C455 C454 1.355 . S
C455 C457 1.419 . S
C456 C454 1.415 . S
C456 C461 1.425 . S
C456 C463 1.409 . S
C457 H449 0.930 . S
C457 C455 1.419 . S
C457 C458 1.362 . S
C458 H450 0.930 . S
C458 C457 1.362 . S
C458 C461 1.409 . S
C459 H451 0.930 . S
C459 C460 1.355 . S
C459 C461 1.415 . S
C460 C459 1.355 . S
C460 C462 1.419 . S
C461 C456 1.425 . S
C461 C458 1.409 . S
C461 C459 1.415 . S
C462 H452 0.930 . S
C462 C460 1.419 . S
C462 C463 1.362 . S
C463 H453 0.930 . S
C463 C456 1.409 . S
C463 C462 1.362 . S
H464 C470 0.930 . S
H465 C473 0.930 . S
H466 C474 0.930 . S
H467 C475 0.930 . S
H468 C478 0.930 . S
H469 C479 0.930 . S
C470 H464 0.930 . S
C470 C471 1.355 . S
C470 C472 1.415 . S
C471 C470 1.355 . S
C471 C473 1.419 . S
C472 C470 1.415 . S
C472 C477 1.425 . S
C472 C479 1.409 . S
C473 H465 0.930 . S
C473 C471 1.419 . S
C473 C474 1.362 . S
C474 H466 0.930 . S
C474 C473 1.362 . S
C474 C477 1.409 . S
C475 H467 0.930 . S
C475 C476 1.355 . S
C475 C477 1.415 . S
C476 C475 1.355 . S
C476 C478 1.419 . S
C477 C472 1.425 . S
C477 C474 1.409 . S
C477 C475 1.415 . S
C478 H468 0.930 . S
C478 C476 1.419 . S
C478 C479 1.362 . S
C479 H469 0.930 . S
C479 C472 1.409 . S
C479 C478 1.362 . S
H480 C486 0.930 . S
H481 C489 0.930 . S
H482 C490 0.930 . S
H483 C491 0.930 . S
H484 C494 0.930 . S
H485 C495 0.930 . S
C486 H480 0.930 . S
C486 C487 1.355 . S
C486 C488 1.415 . S
C487 C486 1.355 . S
C487 C489 1.419 . S
C488 C486 1.415 . S
C488 C493 1.425 . S
C488 C495 1.409 . S
C489 H481 0.930 . S
C489 C487 1.419 . S
C489 C490 1.362 . S
C490 H482 0.930 . S
C490 C489 1.362 . S
C490 C493 1.409 . S
C491 H483 0.930 . S
C491 C492 1.355 . S
C491 C493 1.415 . S
C492 C491 1.355 . S
C492 C494 1.419 . S
C493 C488 1.425 . S
C493 C490 1.409 . S
C493 C491 1.415 . S
C494 H484 0.930 . S
C494 C492 1.419 . S
C494 C495 1.362 . S
C495 H485 0.930 . S
C495 C488 1.409 . S
C495 C494 1.362 . S
H496 C502 0.930 . S
H497 C505 0.930 . S
H498 C506 0.930 . S
H499 C507 0.930 . S
H500 C510 0.930 1_545 S
H501 C511 0.930 . S
C502 H496 0.930 . S
C502 C503 1.355 . S
C502 C504 1.415 . S
C503 C502 1.355 . S
C503 C505 1.419 . S
C504 C502 1.415 . S
C504 C509 1.425 . S
C504 C511 1.409 . S
C505 H497 0.930 . S
C505 C503 1.419 . S
C505 C506 1.362 . S
C506 H498 0.930 . S
C506 C505 1.362 . S
C506 C509 1.409 . S
C507 H499 0.930 . S
C507 C508 1.355 . S
C507 C509 1.415 . S
C508 C507 1.355 . S
C508 C510 1.419 . S
C509 C504 1.425 . S
C509 C506 1.409 . S
C509 C507 1.415 . S
C510 H500 0.930 1_565 S
C510 C508 1.419 . S
C510 C511 1.362 . S
C511 H501 0.930 . S
C511 C504 1.409 . S
C511 C510 1.362 . S
H512 C518 0.930 . S
H513 C521 0.930 . S
H514 C522 0.930 . S
H515 C523 0.930 . S
H516 C526 0.930 . S
H517 C527 0.930 . S
C518 H512 0.930 . S
C518 C519 1.355 . S
C518 C520 1.415 . S
C519 C518 1.355 . S
C519 C521 1.419 . S
C520 C518 1.415 . S
C520 C525 1.425 . S
C520 C527 1.409 . S
C521 H513 0.930 . S
C521 C519 1.419 . S
C521 C522 1.362 . S
C522 H514 0.930 . S
C522 C521 1.362 . S
C522 C525 1.409 . S
C523 H515 0.930 . S
C523 C524 1.355 . S
C523 C525 1.415 . S
C524 C523 1.355 . S
C524 C526 1.419 . S
C525 C520 1.425 . S
C525 C522 1.409 . S
C525 C523 1.415 . S
C526 H516 0.930 . S
C526 C524 1.419 . S
C526 C527 1.362 . S
C527 H517 0.930 . S
C527 C520 1.409 . S
C527 C526 1.362 . S
H528 C534 0.930 . S
H529 C537 0.930 . S
H530 C538 0.930 . S
H531 C539 0.930 . S
H532 C542 0.930 . S
H533 C543 0.930 . S
C534 H528 0.930 . S
C534 C535 1.355 . S
C534 C536 1.415 . S
C535 C534 1.355 . S
C535 C537 1.419 . S
C536 C534 1.415 . S
C536 C541 1.425 . S
C536 C543 1.409 . S
C537 H529 0.930 . S
C537 C535 1.419 . S
C537 C538 1.362 . S
C538 H530 0.930 . S
C538 C537 1.362 . S
C538 C541 1.409 . S
C539 H531 0.930 . S
C539 C540 1.355 . S
C539 C541 1.415 . S
C540 C539 1.355 . S
C540 C542 1.419 . S
C541 C536 1.425 . S
C541 C538 1.409 . S
C541 C539 1.415 . S
C542 H532 0.930 . S
C542 C540 1.419 . S
C542 C543 1.362 . S
C543 H533 0.930 . S
C543 C536 1.409 . S
C543 C542 1.362 . S
H544 C550 0.930 . S
H545 C553 0.930 . S
H546 C554 0.930 . S
H547 C555 0.930 . S
H548 C558 0.930 . S
H549 C559 0.930 . S
C550 H544 0.930 . S
C550 C551 1.355 . S
C550 C552 1.415 . S
C551 C550 1.355 . S
C551 C553 1.419 . S
C552 C550 1.415 . S
C552 C557 1.425 . S
C552 C559 1.409 . S
C553 H545 0.930 . S
C553 C551 1.419 . S
C553 C554 1.362 . S
C554 H546 0.930 . S
C554 C553 1.362 . S
C554 C557 1.409 . S
C555 H547 0.930 . S
C555 C556 1.355 . S
C555 C557 1.415 . S
C556 C555 1.355 . S
C556 C558 1.419 . S
C557 C552 1.425 . S
C557 C554 1.409 . S
C557 C555 1.415 . S
C558 H548 0.930 . S
C558 C556 1.419 . S
C558 C559 1.362 . S
C559 H549 0.930 . S
C559 C552 1.409 . S
C559 C558 1.362 . S
H560 C566 0.930 . S
H561 C569 0.930 . S
H562 C570 0.930 . S
H563 C571 0.930 . S
H564 C574 0.930 . S
H565 C575 0.930 . S
C566 H560 0.930 . S
C566 C567 1.355 . S
C566 C568 1.415 . S
C567 C566 1.355 . S
C567 C569 1.419 . S
C568 C566 1.415 . S
C568 C573 1.425 . S
C568 C575 1.409 . S
C569 H561 0.930 . S
C569 C567 1.419 . S
C569 C570 1.362 . S
C570 H562 0.930 . S
C570 C569 1.362 . S
C570 C573 1.409 . S
C571 H563 0.930 . S
C571 C572 1.355 . S
C571 C573 1.415 . S
C572 C571 1.355 . S
C572 C574 1.419 . S
C573 C568 1.425 . S
C573 C570 1.409 . S
C573 C571 1.415 . S
C574 H564 0.930 . S
C574 C572 1.419 . S
C574 C575 1.362 . S
C575 H565 0.930 . S
C575 C568 1.409 . S
C575 C574 1.362 . S
H576 C582 0.930 . S
H577 C585 0.930 . S
H578 C586 0.930 . S
H579 C587 0.930 . S
H580 C590 0.930 1_455 S
H581 C591 0.930 . S
C582 H576 0.930 . S
C582 C583 1.355 . S
C582 C584 1.415 . S
C583 C582 1.355 . S
C583 C585 1.419 . S
C584 C582 1.415 . S
C584 C589 1.425 . S
C584 C591 1.409 . S
C585 H577 0.930 . S
C585 C583 1.419 . S
C585 C586 1.362 . S
C586 H578 0.930 . S
C586 C585 1.362 . S
C586 C589 1.409 . S
C587 H579 0.930 . S
C587 C588 1.355 . S
C587 C589 1.415 . S
C588 C587 1.355 . S
C588 C590 1.419 . S
C589 C584 1.425 . S
C589 C586 1.409 . S
C589 C587 1.415 . S
C590 H580 0.930 1_655 S
C590 C588 1.419 . S
C590 C591 1.362 . S
C591 H581 0.930 . S
C591 C584 1.409 . S
C591 C590 1.362 . S
H592 C598 0.930 . S
H593 C601 0.930 . S
H594 C602 0.930 . S
H595 C603 0.930 . S
H596 C606 0.930 . S
H597 C607 0.930 . S
C598 H592 0.930 . S
C598 C599 1.355 . S
C598 C600 1.415 . S
C599 C598 1.355 . S
C599 C601 1.419 . S
C600 C598 1.415 . S
C600 C605 1.425 . S
C600 C607 1.409 . S
C601 H593 0.930 . S
C601 C599 1.419 . S
C601 C602 1.362 . S
C602 H594 0.930 . S
C602 C601 1.362 . S
C602 C605 1.409 . S
C603 H595 0.930 . S
C603 C604 1.355 . S
C603 C605 1.415 . S
C604 C603 1.355 . S
C604 C606 1.419 . S
C605 C600 1.425 . S
C605 C602 1.409 . S
C605 C603 1.415 . S
C606 H596 0.930 . S
C606 C604 1.419 . S
C606 C607 1.362 . S
C607 H597 0.930 . S
C607 C600 1.409 . S
C607 C606 1.362 . S
H608 C614 0.930 . S
H609 C617 0.930 . S
H610 C618 0.930 . S
H611 C619 0.930 . S
H612 C622 0.930 . S
H613 C623 0.930 . S
C614 H608 0.930 . S
C614 C615 1.355 . S
C614 C616 1.415 . S
C615 C614 1.355 . S
C615 C617 1.419 . S
C616 C614 1.415 . S
C616 C621 1.425 . S
C616 C623 1.409 . S
C617 H609 0.930 . S
C617 C615 1.419 . S
C617 C618 1.362 . S
C618 H610 0.930 . S
C618 C617 1.362 . S
C618 C621 1.409 . S
C619 H611 0.930 . S
C619 C620 1.355 . S
C619 C621 1.415 . S
C620 C619 1.355 . S
C620 C622 1.419 . S
C621 C616 1.425 . S
C621 C618 1.409 . S
C621 C619 1.415 . S
C622 H612 0.930 . S
C622 C620 1.419 . S
C622 C623 1.362 . S
C623 H613 0.930 . S
C623 C616 1.409 . S
C623 C622 1.362 . S
H624 C630 0.930 . S
H625 C633 0.930 . S
H626 C634 0.930 . S
H627 C635 0.930 . S
H628 C638 0.930 . S
H629 C639 0.930 . S
C630 H624 0.930 . S
C630 C631 1.355 . S
C630 C632 1.415 . S
C631 C630 1.355 . S
C631 C633 1.419 . S
C632 C630 1.415 . S
C632 C637 1.425 . S
C632 C639 1.409 . S
C633 H625 0.930 . S
C633 C631 1.419 . S
C633 C634 1.362 . S
C634 H626 0.930 . S
C634 C633 1.362 . S
C634 C637 1.409 . S
C635 H627 0.930 . S
C635 C636 1.355 . S
C635 C637 1.415 . S
C636 C635 1.355 . S
C636 C638 1.419 . S
C637 C632 1.425 . S
C637 C634 1.409 . S
C637 C635 1.415 . S
C638 H628 0.930 . S
C638 C636 1.419 . S
C638 C639 1.362 . S
C639 H629 0.930 . S
C639 C632 1.409 . S
C639 C638 1.362 . S
H640 C646 0.930 . S
H641 C649 0.930 . S
H642 C650 0.930 . S
H643 C651 0.930 . S
H644 C654 0.930 . S
H645 C655 0.930 . S
C646 H640 0.930 . S
C646 C647 1.355 . S
C646 C648 1.415 . S
C647 C646 1.355 . S
C647 C649 1.419 . S
C648 C646 1.415 . S
C648 C653 1.425 . S
C648 C655 1.409 . S
C649 H641 0.930 . S
C649 C647 1.419 . S
C649 C650 1.362 . S
C650 H642 0.930 . S
C650 C649 1.362 . S
C650 C653 1.409 . S
C651 H643 0.930 . S
C651 C652 1.355 . S
C651 C653 1.415 . S
C652 C651 1.355 . S
C652 C654 1.419 . S
C653 C648 1.425 . S
C653 C650 1.409 . S
C653 C651 1.415 . S
C654 H644 0.930 . S
C654 C652 1.419 . S
C654 C655 1.362 . S
C655 H645 0.930 . S
C655 C648 1.409 . S
C655 C654 1.362 . S
H656 C662 0.930 . S
H657 C665 0.930 . S
H658 C666 0.930 . S
H659 C667 0.930 . S
H660 C670 0.930 . S
H661 C671 0.930 . S
C662 H656 0.930 . S
C662 C663 1.355 . S
C662 C664 1.415 . S
C663 C662 1.355 . S
C663 C665 1.419 . S
C664 C662 1.415 . S
C664 C669 1.425 . S
C664 C671 1.409 . S
C665 H657 0.930 . S
C665 C663 1.419 . S
C665 C666 1.362 . S
C666 H658 0.930 . S
C666 C665 1.362 . S
C666 C669 1.409 . S
C667 H659 0.930 . S
C667 C668 1.355 . S
C667 C669 1.415 . S
C668 C667 1.355 . S
C668 C670 1.419 . S
C669 C664 1.425 . S
C669 C666 1.409 . S
C669 C667 1.415 . S
C670 H660 0.930 . S
C670 C668 1.419 . S
C670 C671 1.362 . S
C671 H661 0.930 . S
C671 C664 1.409 . S
C671 C670 1.362 . S
H672 C678 0.930 . S
H673 C681 0.930 . S
H674 C682 0.930 . S
H675 C683 0.930 . S
H676 C686 0.930 . S
H677 C687 0.930 . S
C678 H672 0.930 . S
C678 C679 1.355 . S
C678 C680 1.415 . S
C679 C678 1.355 . S
C679 C681 1.419 . S
C680 C678 1.415 . S
C680 C685 1.425 . S
C680 C687 1.409 . S
C681 H673 0.930 . S
C681 C679 1.419 . S
C681 C682 1.362 . S
C682 H674 0.930 . S
C682 C681 1.362 . S
C682 C685 1.409 . S
C683 H675 0.930 . S
C683 C684 1.355 . S
C683 C685 1.415 . S
C684 C683 1.355 . S
C684 C686 1.419 . S
C685 C680 1.425 . S
C685 C682 1.409 . S
C685 C683 1.415 . S
C686 H676 0.930 . S
C686 C684 1.419 . S
C686 C687 1.362 . S
C687 H677 0.930 . S
C687 C680 1.409 . S
C687 C686 1.362 . S
H688 C694 0.930 . S
H689 C697 0.930 . S
H690 C698 0.930 . S
H691 C699 0.930 . S
H692 C702 0.930 . S
H693 C703 0.930 . S
C694 H688 0.930 . S
C694 C695 1.355 . S
C694 C696 1.415 . S
C695 C694 1.355 . S
C695 C697 1.419 . S
C696 C694 1.415 . S
C696 C701 1.425 . S
C696 C703 1.409 . S
C697 H689 0.930 . S
C697 C695 1.419 . S
C697 C698 1.362 . S
C698 H690 0.930 . S
C698 C697 1.362 . S
C698 C701 1.409 . S
C699 H691 0.930 . S
C699 C700 1.355 . S
C699 C701 1.415 . S
C700 C699 1.355 . S
C700 C702 1.419 . S
C701 C696 1.425 . S
C701 C698 1.409 . S
C701 C699 1.415 . S
C702 H692 0.930 . S
C702 C700 1.419 . S
C702 C703 1.362 . S
C703 H693 0.930 . S
C703 C696 1.409 . S
C703 C702 1.362 . S
H704 C710 0.930 . S
H705 C713 0.930 . S
H706 C714 0.930 . S
H707 C715 0.930 . S
H708 C718 0.930 . S
H709 C719 0.930 . S
C710 H704 0.930 . S
C710 C711 1.355 . S
C710 C712 1.415 . S
C711 C710 1.355 . S
C711 C713 1.419 . S
C712 C710 1.415 . S
C712 C717 1.425 . S
C712 C719 1.409 . S
C713 H705 0.930 . S
C713 C711 1.419 . S
C713 C714 1.362 . S
C714 H706 0.930 . S
C714 C713 1.362 . S
C714 C717 1.409 . S
C715 H707 0.930 . S
C715 C716 1.355 . S
C715 C717 1.415 . S
C716 C715 1.355 . S
C716 C718 1.419 . S
C717 C712 1.425 . S
C717 C714 1.409 . S
C717 C715 1.415 . S
C718 H708 0.930 . S
C718 C716 1.419 . S
C718 C719 1.362 . S
C719 H709 0.930 . S
C719 C712 1.409 . S
C719 C718 1.362 . S
H720 C726 0.930 . S
H721 C729 0.930 . S
H722 C730 0.930 . S
H723 C731 0.930 . S
H724 C734 0.930 . S
H725 C735 0.930 . S
C726 H720 0.930 . S
C726 C727 1.355 . S
C726 C728 1.415 . S
C727 C726 1.355 . S
C727 C729 1.419 . S
C728 C726 1.415 . S
C728 C733 1.425 . S
C728 C735 1.409 . S
C729 H721 0.930 . S
C729 C727 1.419 . S
C729 C730 1.362 . S
C730 H722 0.930 . S
C730 C729 1.362 . S
C730 C733 1.409 . S
C731 H723 0.930 . S
C731 C732 1.355 . S
C731 C733 1.415 . S
C732 C731 1.355 . S
C732 C734 1.419 . S
C733 C728 1.425 . S
C733 C730 1.409 . S
C733 C731 1.415 . S
C734 H724 0.930 . S
C734 C732 1.419 . S
C734 C735 1.362 . S
C735 H725 0.930 . S
C735 C728 1.409 . S
C735 C734 1.362 . S
H736 C742 0.930 . S
H737 C745 0.930 . S
H738 C746 0.930 . S
H739 C747 0.930 . S
H740 C750 0.930 . S
H741 C751 0.930 . S
C742 H736 0.930 . S
C742 C743 1.355 . S
C742 C744 1.415 . S
C743 C742 1.355 . S
C743 C745 1.419 . S
C744 C742 1.415 . S
C744 C749 1.425 . S
C744 C751 1.409 . S
C745 H737 0.930 . S
C745 C743 1.419 . S
C745 C746 1.362 . S
C746 H738 0.930 . S
C746 C745 1.362 . S
C746 C749 1.409 . S
C747 H739 0.930 . S
C747 C748 1.355 . S
C747 C749 1.415 . S
C748 C747 1.355 . S
C748 C750 1.419 . S
C749 C744 1.425 . S
C749 C746 1.409 . S
C749 C747 1.415 . S
C750 H740 0.930 . S
C750 C748 1.419 . S
C750 C751 1.362 . S
C751 H741 0.930 . S
C751 C744 1.409 . S
C751 C750 1.362 . S
H752 C758 0.930 . S
H753 C761 0.930 . S
H754 C762 0.930 . S
H755 C763 0.930 . S
H756 C766 0.930 . S
H757 C767 0.930 . S
C758 H752 0.930 . S
C758 C759 1.355 . S
C758 C760 1.415 . S
C759 C758 1.355 . S
C759 C761 1.419 . S
C760 C758 1.415 . S
C760 C765 1.425 . S
C760 C767 1.409 . S
C761 H753 0.930 . S
C761 C759 1.419 . S
C761 C762 1.362 . S
C762 H754 0.930 . S
C762 C761 1.362 . S
C762 C765 1.409 . S
C763 H755 0.930 . S
C763 C764 1.355 . S
C763 C765 1.415 . S
C764 C763 1.355 . S
C764 C766 1.419 . S
C765 C760 1.425 . S
C765 C762 1.409 . S
C765 C763 1.415 . S
C766 H756 0.930 . S
C766 C764 1.419 . S
C766 C767 1.362 . S
C767 H757 0.930 . S
C767 C760 1.409 . S
C767 C766 1.362 . S
H768 C774 0.930 . S
H769 C777 0.930 . S
H770 C778 0.930 . S
H771 C779 0.930 . S
H772 C782 0.930 . S
H773 C783 0.930 . S
C774 H768 0.930 . S
C774 C775 1.355 . S
C774 C776 1.415 . S
C775 C774 1.355 . S
C775 C777 1.419 . S
C776 C774 1.415 . S
C776 C781 1.425 . S
C776 C783 1.409 . S
C777 H769 0.930 . S
C777 C775 1.419 . S
C777 C778 1.362 . S
C778 H770 0.930 . S
C778 C777 1.362 . S
C778 C781 1.409 . S
C779 H771 0.930 . S
C779 C780 1.355 . S
C779 C781 1.415 . S
C780 C779 1.355 . S
C780 C782 1.419 . S
C781 C776 1.425 . S
C781 C778 1.409 . S
C781 C779 1.415 . S
C782 H772 0.930 . S
C782 C780 1.419 . S
C782 C783 1.362 . S
C783 H773 0.930 . S
C783 C776 1.409 . S
C783 C782 1.362 . S
H784 C790 0.930 . S
H785 C793 0.930 . S
H786 C794 0.930 . S
H787 C795 0.930 . S
H788 C798 0.930 . S
H789 C799 0.930 . S
C790 H784 0.930 . S
C790 C791 1.355 . S
C790 C792 1.415 . S
C791 C790 1.355 . S
C791 C793 1.419 . S
C792 C790 1.415 . S
C792 C797 1.425 . S
C792 C799 1.409 . S
C793 H785 0.930 . S
C793 C791 1.419 . S
C793 C794 1.362 . S
C794 H786 0.930 . S
C794 C793 1.362 . S
C794 C797 1.409 . S
C795 H787 0.930 . S
C795 C796 1.355 . S
C795 C797 1.415 . S
C796 C795 1.355 . S
C796 C798 1.419 . S
C797 C792 1.425 . S
C797 C794 1.409 . S
C797 C795 1.415 . S
C798 H788 0.930 . S
C798 C796 1.419 . S
C798 C799 1.362 . S
C799 H789 0.930 . S
C799 C792 1.409 . S
C799 C798 1.362 . S
C423 C29 1.186 . S
C428 C262 1.192 . S
C439 C49 0.969 . S
C444 C311 0.943 . S
C460 C346 2.510 . S
C455 C93 2.543 . S
C471 C119 2.340 . S
C476 C385 2.326 . S
C492 C306 2.293 . S
C487 C17 2.241 . S
C508 C265 0.743 . S
C503 C61 0.863 . S
C524 C395 1.920 . S
C519 C81 1.926 . S
C540 C354 1.706 . S
C535 C125 1.675 . S
C551 C23 1.599 . S
C556 C382 1.604 . S
C572 C314 2.284 . S
C567 C87 2.359 . S
C583 C113 2.336 . S
C588 C275 2.360 . S
C599 C55 0.973 . S
C604 C351 0.972 . S
C620 C271 1.225 . S
C615 C157 1.140 . S
C631 C189 0.976 . S
C636 C302 0.950 . S
C647 C221 2.492 . S
C652 C355 2.489 . S
C663 C253 2.413 . S
C668 C394 2.411 . S
C679 C145 2.054 . S
C684 C315 2.371 . S
C700 C274 0.834 . S
C695 C183 0.812 . S
C716 C386 1.955 . S
C711 C209 1.964 . S
C732 C345 1.668 . S
C727 C247 1.680 . S
C743 C151 1.483 . S
C748 C391 1.606 . S
C764 C305 2.281 . S
C759 C215 2.366 . S
C780 C266 2.324 . S
C775 C241 2.307 . S
C791 C177 0.961 . S
C796 C342 0.913 . S
