# Generated by pormake.
# Topology anh, (6,3)-cn, num edge types: 1
# Building blocks:
#     Node 0, Type 0, BuildingBlock: PAMTUU_clean_sbu_0, # of connection points: 6
#     Node 1, Type 0, BuildingBlock: PAMTUU_clean_sbu_0, # of connection points: 6
#     Node 2, Type 0, BuildingBlock: PAMTUU_clean_sbu_0, # of connection points: 6
#     Node 3, Type 1, BuildingBlock: VETTIZ_charged_linker_0, # of connection points: 3
#     Node 4, Type 1, BuildingBlock: VETTIZ_charged_linker_0, # of connection points: 3
#     Node 5, Type 1, BuildingBlock: VETTIZ_charged_linker_0, # of connection points: 3
#     Node 6, Type 1, BuildingBlock: VETTIZ_charged_linker_0, # of connection points: 3
#     Node 7, Type 1, BuildingBlock: VETTIZ_charged_linker_0, # of connection points: 3
#     Node 8, Type 1, BuildingBlock: VETTIZ_charged_linker_0, # of connection points: 3
#     Edge 9, Type (0, 1), BuildingBlock: XUDNAN_clean_linker_2, # of connection points: 2
#     Edge 10, Type (0, 1), BuildingBlock: XUDNAN_clean_linker_2, # of connection points: 2
#     Edge 11, Type (0, 1), BuildingBlock: XUDNAN_clean_linker_2, # of connection points: 2
#     Edge 12, Type (0, 1), BuildingBlock: XUDNAN_clean_linker_2, # of connection points: 2
#     Edge 13, Type (0, 1), BuildingBlock: XUDNAN_clean_linker_2, # of connection points: 2
#     Edge 14, Type (0, 1), BuildingBlock: XUDNAN_clean_linker_2, # of connection points: 2
#     Edge 15, Type (0, 1), BuildingBlock: XUDNAN_clean_linker_2, # of connection points: 2
#     Edge 16, Type (0, 1), BuildingBlock: XUDNAN_clean_linker_2, # of connection points: 2
#     Edge 17, Type (0, 1), BuildingBlock: XUDNAN_clean_linker_2, # of connection points: 2
#     Edge 18, Type (0, 1), BuildingBlock: XUDNAN_clean_linker_2, # of connection points: 2
#     Edge 19, Type (0, 1), BuildingBlock: XUDNAN_clean_linker_2, # of connection points: 2
#     Edge 20, Type (0, 1), BuildingBlock: XUDNAN_clean_linker_2, # of connection points: 2
#     Edge 21, Type (0, 1), BuildingBlock: XUDNAN_clean_linker_2, # of connection points: 2
#     Edge 22, Type (0, 1), BuildingBlock: XUDNAN_clean_linker_2, # of connection points: 2
#     Edge 23, Type (0, 1), BuildingBlock: XUDNAN_clean_linker_2, # of connection points: 2
#     Edge 24, Type (0, 1), BuildingBlock: XUDNAN_clean_linker_2, # of connection points: 2
#     Edge 25, Type (0, 1), BuildingBlock: XUDNAN_clean_linker_2, # of connection points: 2
#     Edge 26, Type (0, 1), BuildingBlock: XUDNAN_clean_linker_2, # of connection points: 2
# Relax obj value: 0.242
# Max RMSD: 0.191
# Mean RMSD: 0.158
data_MOF--net-anh--node1-PAMTUU_clean_sbu_0--node2-VETTIZ_charged_linker_0--edge1-XUDNAN_clean_linker_2
_symmetry_space_group_name_H-M    P1
_symmetry_Int_Tables_number       1
_symmetry_cell_setting            triclinic
loop_
_symmetry_equiv_pos_as_xyz
'x, y, z'
_cell_length_a     35.267928
_cell_length_b     35.362704
_cell_length_c     67.556893
_cell_angle_alpha  93.511605
_cell_angle_beta   90.123613
_cell_angle_gamma 119.88075
loop_
_atom_site_label
_atom_site_type_symbol
_atom_site_fract_x
_atom_site_fract_y
_atom_site_fract_z
_atom_type_partial_charge
Tb0 Tb 0.1591 0.66059 0.16382 0.0
Tb1 Tb 0.21138 0.60817 0.15195 0.0
C2 C 0.17841 0.6454 0.11945 0.0
C3 C 1.07745 0.68781 0.18387 0.0
C4 C 0.98994 0.65519 0.1943 0.0
C5 C 1.01319 0.69567 0.18579 0.0
C6 C 1.05657 0.71179 0.18065 0.0
C7 C 1.05573 0.64908 0.19367 0.0
C8 C 1.01237 0.63307 0.19901 0.0
C9 C 0.11908 0.70034 0.1745 0.0
O10 O 1.10469 0.59312 0.15815 0.0
O11 O 0.1438 0.55692 0.15703 0.0
O12 O 0.22761 0.63117 0.18298 0.0
O13 O 0.1626 0.62762 0.18919 0.0
O14 O 0.25419 0.59629 0.13422 0.0
O15 O 0.21686 0.55364 0.15713 0.0
O16 O 0.26481 0.67702 0.1534 0.0
O17 O 0.22839 0.712 0.16599 0.0
O18 O 0.17664 0.67247 0.13308 0.0
O19 O 0.18231 0.61214 0.12427 0.0
C20 C 1.10627 0.5566 0.15773 0.0
O21 O 0.14962 0.70018 0.18538 0.0
O22 O 0.11531 0.68187 0.15673 0.0
C23 C 0.19841 0.62905 0.19545 0.0
C24 C 0.27874 0.54917 0.14634 0.0
C25 C 0.32325 0.50157 0.14646 0.0
C26 C 0.3017 0.50485 0.16339 0.0
C27 C 0.2796 0.52847 0.16334 0.0
C28 C 0.30339 0.54902 0.13014 0.0
C29 C 0.32546 0.52551 0.13018 0.0
C30 C 0.2449 0.56124 0.14327 0.0
C31 C 0.26456 0.71281 0.16021 0.0
H32 H 0.99706 0.71337 0.1816 0.0
H33 H 1.07288 0.74161 0.17299 0.0
H34 H 1.07145 0.63007 0.19622 0.0
H35 H 0.99567 0.60213 0.20577 0.0
H36 H 0.30004 0.48734 0.17626 0.0
H37 H 0.26077 0.5279 0.17607 0.0
H38 H 0.30273 0.56414 0.11676 0.0
H39 H 0.34133 0.52339 0.11679 0.0
Tb40 Tb 0.63068 0.09027 0.48694 0.0
Tb41 Tb 0.73389 0.15121 0.49689 0.0
C42 C 0.69572 0.13139 0.45298 0.0
C43 C 0.51794 1.0022 0.49159 0.0
C44 C 0.46081 0.92645 0.5105 0.0
C45 C 0.46362 0.92519 0.48972 0.0
C46 C 0.49185 0.96271 0.48038 0.0
C47 C 0.51533 1.00368 0.51239 0.0
C48 C 0.48672 0.96611 0.52176 0.0
C49 C 0.5496 1.04045 0.4814 0.0
O50 O 0.65244 1.04471 0.49545 0.0
O51 O 0.72555 0.08572 0.4894 0.0
O52 O 0.70845 0.11827 0.52374 0.0
O53 O 0.63789 0.10326 0.51901 0.0
O54 O 0.79836 0.18221 0.48692 0.0
O55 O 0.7852 0.19225 0.51732 0.0
O56 O 0.70457 0.1929 0.50342 0.0
O57 O 0.64559 0.15728 0.48187 0.0
O58 O 0.66034 0.0968 0.45826 0.0
O59 O 0.72339 0.16097 0.46628 0.0
C60 C 0.69076 1.04763 0.49252 0.0
O61 O 0.56689 0.07833 0.49146 0.0
O62 O 0.57872 1.03525 0.47168 0.0
C63 C 0.66992 0.10756 0.53057 0.0
C64 C 0.82901 0.25483 0.50009 0.0
C65 C 0.83759 0.3317 0.48548 0.0
C66 C 0.86181 0.3129 0.4775 0.0
C67 C 0.85736 0.27463 0.48468 0.0
C68 C 0.80826 0.27611 0.50929 0.0
C69 C 0.81218 0.31374 0.50196 0.0
C70 C 0.81251 0.2082 0.50308 0.0
C71 C 0.67318 0.19284 0.49283 0.0
H72 H 0.44319 0.89533 0.4806 0.0
H73 H 0.4935 0.96084 0.46436 0.0
H74 H 0.5354 1.03374 0.52141 0.0
H75 H 0.48486 0.96799 0.53776 0.0
H76 H 0.88274 0.3266 0.46514 0.0
H77 H 0.87361 0.25889 0.47729 0.0
H78 H 0.78597 0.26188 0.52117 0.0
H79 H 0.79275 0.32686 0.5084 0.0
Tb80 Tb 0.65057 0.58416 0.81793 0.0
Tb81 Tb 0.70575 0.68757 0.82903 0.0
C82 C 0.68734 0.6489 0.78511 0.0
C83 C 0.6093 0.4663 0.81983 0.0
C84 C 0.60846 0.39435 0.83585 0.0
C85 C 0.61342 0.40003 0.81539 0.0
C86 C 0.61377 0.43565 0.80747 0.0
C87 C 0.60578 0.46151 0.8404 0.0
C88 C 0.60521 0.4257 0.84833 0.0
C89 C 0.60775 0.50254 0.81104 0.0
O90 O 0.71967 0.60084 0.81629 0.0
O91 O 0.7567 0.66953 0.83258 0.0
O92 O 0.6739 0.65517 0.85554 0.0
O93 O 0.67451 0.59209 0.84808 0.0
O94 O 0.7319 0.75135 0.82 0.0
O95 O 0.73516 0.74032 0.8508 0.0
O96 O 0.63948 0.67333 0.8202 0.0
O97 O 0.60191 0.60237 0.82786 0.0
O98 O 0.65204 0.61495 0.79094 0.0
O99 O 0.71773 0.67664 0.79812 0.0
C100 C 0.75602 0.63412 0.82459 0.0
O101 O 0.59472 0.5245 0.82248 0.0
O102 O 0.64139 0.52809 0.80094 0.0
C103 C 0.67268 0.61978 0.86115 0.0
C104 C 0.70644 0.78518 0.84233 0.0
C105 C 0.63329 0.79437 0.83434 0.0
C106 C 0.67482 0.82472 0.82783 0.0
C107 C 0.71114 0.82001 0.83172 0.0
C108 C 0.66643 0.75892 0.85126 0.0
C109 C 0.63009 0.76336 0.84723 0.0
C110 C 0.73557 0.76718 0.83828 0.0
C111 C 0.60256 0.63892 0.82456 0.0
H112 H 0.61506 0.37586 0.80533 0.0
H113 H 0.61655 0.43876 0.7916 0.0
H114 H 0.6025 0.48484 0.85033 0.0
H115 H 0.60131 0.42201 0.86412 0.0
H116 H 0.67845 0.84973 0.81827 0.0
H117 H 0.7415 0.84049 0.82461 0.0
H118 H 0.6616 0.73151 0.85941 0.0
H119 H 0.59867 0.73947 0.85249 0.0
C120 C 0.79812 0.2466 0.17991 0.0
C121 C 0.8338 0.28481 0.18986 0.0
C122 C 0.83511 0.28777 0.21076 0.0
C123 C 0.76862 0.21704 0.21165 0.0
C124 C 0.76552 0.21325 0.19117 0.0
C125 C 0.72379 0.17097 0.18387 0.0
H126 H 0.54585 0.97544 0.21052 0.0
C127 C 0.73178 0.17719 0.2194 0.0
C128 C 0.70474 0.14915 0.20329 0.0
H129 H 0.56826 1.02144 0.15171 0.0
H130 H 0.63626 0.08686 0.16381 0.0
H131 H 0.64569 1.00507 0.22268 0.0
H132 H 0.56511 1.06374 0.23109 0.0
H133 H 0.59565 0.07539 0.25335 0.0
H134 H 0.55874 1.01925 0.24485 0.0
H135 H 0.6036 0.9874 0.24049 0.0
H136 H 0.65878 1.03083 0.24672 0.0
C137 C 0.73607 0.14276 0.17009 0.0
C138 C 0.69311 0.18352 0.17349 0.0
C139 C 0.72685 0.16462 0.29427 0.0
C140 C 0.70053 0.13085 0.30652 0.0
C141 C 0.667 0.09103 0.29733 0.0
C142 C 0.65963 0.08523 0.27664 0.0
C143 C 0.68616 0.11939 0.2647 0.0
C144 C 0.71945 0.15798 0.27359 0.0
C145 C 0.74602 0.18981 0.2586 0.0
C146 C 0.72251 0.16445 0.2392 0.0
C147 C 0.6872 0.12346 0.24287 0.0
C148 C 0.79347 0.19782 0.26028 0.0
C149 C 0.74195 0.23131 0.26253 0.0
C150 C 0.56552 0.99901 0.20006 0.0
C151 C 0.55134 0.99239 0.18006 0.0
C152 C 0.57801 1.02525 0.16724 0.0
C153 C 0.61744 1.06344 0.17428 0.0
C154 C 0.63035 1.06995 0.19456 0.0
C155 C 0.60396 1.03762 0.20693 0.0
C156 C 0.61964 1.05 0.22819 0.0
C157 C 0.65947 0.09494 0.22688 0.0
C158 C 0.66709 0.10726 0.20709 0.0
C159 C 0.63237 1.0166 0.23507 0.0
C160 C 0.58304 1.052 0.24016 0.0
H161 H 0.80732 0.25983 0.23734 0.0
H162 H 0.79546 0.24304 0.16386 0.0
H163 H 0.68936 0.20814 0.18303 0.0
H164 H 0.65997 0.1553 0.1705 0.0
H165 H 0.70654 0.19787 0.15921 0.0
H166 H 0.76077 0.13724 0.17763 0.0
H167 H 0.75016 0.15916 0.15628 0.0
H168 H 0.70741 0.11035 0.16589 0.0
H169 H 0.75272 0.19591 0.30053 0.0
H170 H 0.64671 1.06383 0.30607 0.0
H171 H 0.63351 1.05415 0.27076 0.0
H172 H 0.79422 0.16943 0.26612 0.0
H173 H 0.81456 0.22695 0.27044 0.0
H174 H 0.80887 0.20159 0.24574 0.0
H175 H 0.70859 0.22255 0.26739 0.0
H176 H 0.74628 0.24923 0.24911 0.0
H177 H 0.76573 0.2539 0.27438 0.0
H178 H 0.86179 0.3156 0.21902 0.0
C179 C 0.80329 0.25468 0.22152 0.0
C180 C 0.68287 0.73281 0.51073 0.0
C181 C 0.68057 0.76886 0.52028 0.0
C182 C 0.67672 0.76978 0.54099 0.0
C183 C 0.67828 0.70202 0.54262 0.0
C184 C 0.68087 0.69917 0.52224 0.0
C185 C 0.68081 0.6569 0.51538 0.0
H186 H 0.67055 0.46626 0.54472 0.0
C187 C 0.67793 0.66379 0.55082 0.0
C188 C 0.67867 0.63601 0.53506 0.0
H189 H 0.67885 0.50271 0.48431 0.0
H190 H 0.68066 0.57025 0.49602 0.0
H191 H 0.7445 0.55917 0.56162 0.0
H192 H 0.60415 0.49561 0.55922 0.0
H193 H 0.62151 0.52314 0.58286 0.0
H194 H 0.63416 0.48087 0.57553 0.0
H195 H 0.71155 0.51798 0.57801 0.0
H196 H 0.73018 0.57511 0.58413 0.0
C197 C 0.72358 0.66881 0.50484 0.0
C198 C 0.63987 0.62807 0.50189 0.0
C199 C 0.68499 0.66173 0.62598 0.0
C200 C 0.68578 0.63221 0.63878 0.0
C201 C 0.68181 0.59278 0.63048 0.0
C202 C 0.6784 0.58357 0.6098 0.0
C203 C 0.67876 0.61399 0.59715 0.0
C204 C 0.68134 0.65192 0.60539 0.0
C205 C 0.67999 0.67995 0.5899 0.0
C206 C 0.67802 0.65356 0.57086 0.0
C207 C 0.67729 0.615 0.57517 0.0
C208 C 0.72314 0.72462 0.59226 0.0
C209 C 0.6375 0.68251 0.59248 0.0
C210 C 0.67332 0.48847 0.53376 0.0
C211 C 0.67441 0.47776 0.51342 0.0
C212 C 0.67714 0.5087 0.50009 0.0
C213 C 0.67839 0.54831 0.50687 0.0
C214 C 0.67704 0.55798 0.52733 0.0
C215 C 0.67492 0.52796 0.54024 0.0
C216 C 0.67514 0.54276 0.56149 0.0
C217 C 0.67679 0.58602 0.55952 0.0
C218 C 0.67778 0.59585 0.53944 0.0
C219 C 0.71721 0.54888 0.57203 0.0
C220 C 0.63175 0.50889 0.57043 0.0
H221 H 0.67356 0.74131 0.56771 0.0
H222 H 0.68565 0.7307 0.4948 0.0
H223 H 0.60998 0.62355 0.50938 0.0
H224 H 0.63539 0.59521 0.49828 0.0
H225 H 0.642 0.64348 0.48777 0.0
H226 H 0.7523 0.69287 0.51438 0.0
H227 H 0.72453 0.68355 0.49066 0.0
H228 H 0.72747 0.63998 0.50157 0.0
H229 H 0.68709 0.69193 0.63187 0.0
H230 H 0.68243 0.56948 0.63997 0.0
H231 H 0.67602 0.55321 0.60449 0.0
H232 H 0.75126 0.72005 0.59603 0.0
H233 H 0.72119 0.7463 0.60433 0.0
H234 H 0.73229 0.74204 0.57853 0.0
H235 H 0.61219 0.65438 0.60019 0.0
H236 H 0.62134 0.68066 0.57808 0.0
H237 H 0.64408 0.71282 0.60133 0.0
H238 H 0.6756 0.79677 0.54893 0.0
C239 C 0.67573 0.73721 0.55203 0.0
C240 C 0.2897 0.63681 0.84791 0.0
C241 C 0.32548 0.63685 0.85797 0.0
C242 C 0.32549 0.63824 0.87888 0.0
C243 C 0.25671 0.63875 0.87947 0.0
C244 C 0.25551 0.63753 0.85899 0.0
C245 C 0.21422 0.6369 0.85136 0.0
H246 H 1.02608 0.64318 0.87681 0.0
C247 C 0.2176 0.63981 0.88701 0.0
C248 C 0.19187 0.63882 0.87066 0.0
H249 H 1.0644 0.63216 0.81708 0.0
H250 H 0.1301 0.63382 0.83006 0.0
H251 H 1.04538 0.5749 0.89279 0.0
H252 H 0.11928 0.71468 0.89393 0.0
H253 H 0.13037 0.70192 0.91711 0.0
H254 H 1.07481 0.68622 0.90997 0.0
H255 H 1.03449 0.60939 0.90954 0.0
H256 H 1.07251 0.59166 0.91612 0.0
C257 C 0.18597 0.59378 0.83871 0.0
C258 C 0.22777 0.67751 0.83969 0.0
C259 C 0.20076 0.64978 0.96218 0.0
C260 C 0.16975 0.65411 0.97376 0.0
C261 C 0.13389 0.65326 0.9641 0.0
C262 C 0.12929 0.64922 0.9434 0.0
C263 C 0.16099 0.64614 0.93192 0.0
C264 C 0.19584 0.64618 0.94131 0.0
C265 C 0.22667 0.64363 0.92654 0.0
C266 C 0.20448 0.64206 0.90681 0.0
C267 C 0.16607 0.64347 0.91015 0.0
C268 C 0.22717 0.60062 0.92914 0.0
C269 C 0.27182 0.68592 0.93001 0.0
C270 C 1.04864 0.64186 0.86632 0.0
C271 C 1.03947 0.63803 0.84583 0.0
C272 C 1.06999 0.63504 0.833 0.0
C273 C 1.1083 0.63604 0.84054 0.0
C274 C 0.11649 0.63954 0.86121 0.0
C275 C 1.08633 0.64224 0.87352 0.0
C276 C 1.09794 0.64439 0.89499 0.0
C277 C 0.13998 0.6427 0.89392 0.0
C278 C 0.15194 0.64012 0.87413 0.0
C279 C 1.06074 0.60329 0.90401 0.0
C280 C 1.10577 0.68882 0.90468 0.0
H281 H 0.29479 0.6402 0.90533 0.0
H282 H 0.28812 0.63576 0.83187 0.0
H283 H 0.25145 0.70764 0.84872 0.0
H284 H 0.19955 0.68137 0.83577 0.0
H285 H 0.2436 0.6755 0.82577 0.0
H286 H 0.18113 0.56547 0.84691 0.0
H287 H 0.20202 0.59332 0.82463 0.0
H288 H 0.15313 0.58856 0.83504 0.0
H289 H 0.22888 0.65065 0.96917 0.0
H290 H 1.10931 0.65603 0.97265 0.0
H291 H 1.10128 0.64917 0.93719 0.0
H292 H 0.1943 0.5741 0.93299 0.0
H293 H 0.25072 0.60505 0.94124 0.0
H294 H 0.2348 0.58755 0.9154 0.0
H295 H 0.26804 0.7141 0.93556 0.0
H296 H 0.28991 0.69655 0.91623 0.0
H297 H 0.29254 0.68192 0.94114 0.0
H298 H 0.35236 0.63968 0.88732 0.0
C299 C 0.29182 0.63905 0.8895 0.0
C300 C 0.95614 0.59224 0.43171 0.0
C301 C 0.92364 0.57188 0.41648 0.0
C302 C 0.93629 0.57627 0.39659 0.0
C303 C 1.01273 0.61318 0.40768 0.0
C304 C 1.00003 0.61119 0.42709 0.0
C305 C 1.03698 0.62395 0.44186 0.0
H306 H 0.25063 0.69863 0.46073 0.0
C307 C 1.06 0.62772 0.4082 0.0
C308 C 1.07408 0.63356 0.42817 0.0
H309 H 0.14825 0.66623 0.50287 0.0
H310 H 1.0948 0.64162 0.47598 0.0
H311 H 0.19694 0.60997 0.43367 0.0
H312 H 0.21765 0.73949 0.4287 0.0
H313 H 0.22628 0.71965 0.40551 0.0
H314 H 0.25993 0.72532 0.42674 0.0
H315 H 0.24487 0.65119 0.42272 0.0
H316 H 0.1951 0.6159 0.40814 0.0
C317 C 1.02592 0.58417 0.45416 0.0
C318 C 1.0443 0.66546 0.45429 0.0
C319 C 0.13916 0.64259 0.34398 0.0
C320 C 0.18145 0.65027 0.33968 0.0
C321 C 0.21103 0.65842 0.35568 0.0
C322 C 0.19887 0.65903 0.37538 0.0
C323 C 0.15641 0.65068 0.37929 0.0
C324 C 0.1272 0.64216 0.36372 0.0
C325 C 1.08225 0.62997 0.37065 0.0
C326 C 1.08981 0.63406 0.39297 0.0
C327 C 0.13338 0.64649 0.39794 0.0
C328 C 1.04989 0.58219 0.36269 0.0
C329 C 1.07043 0.66391 0.36383 0.0
C330 C 0.21662 0.6851 0.46434 0.0
C331 C 0.20402 0.68512 0.48416 0.0
C332 C 0.15922 0.66764 0.48784 0.0
C333 C 0.12811 0.65329 0.47215 0.0
C334 C 0.14167 0.65567 0.45249 0.0
C335 C 0.18504 0.67001 0.44885 0.0
C336 C 0.19316 0.66866 0.42701 0.0
C337 C 0.1477 0.65297 0.41815 0.0
C338 C 0.11796 0.64593 0.43315 0.0
C339 C 0.20859 0.63499 0.42253 0.0
C340 C 0.22616 0.71562 0.42158 0.0
H341 H 0.98861 0.59842 0.37673 0.0
H342 H 0.94781 0.58832 0.44717 0.0
H343 H 1.04171 0.68858 0.44466 0.0
H344 H 1.07715 0.68422 0.46158 0.0
H345 H 1.01932 0.65697 0.46576 0.0
H346 H 1.00329 0.55267 0.4457 0.0
H347 H 1.00999 0.58562 0.46813 0.0
H348 H 1.05494 0.58127 0.45777 0.0
H349 H 0.11542 0.63666 0.3323 0.0
H350 H 0.24343 0.66344 0.35308 0.0
H351 H 0.22286 0.66544 0.38683 0.0
H352 H 1.06697 0.56327 0.35964 0.0
H353 H 1.03287 0.58118 0.34865 0.0
H354 H 1.02524 0.56352 0.37359 0.0
H355 H 1.09845 0.69767 0.3669 0.0
H356 H 1.04263 0.66297 0.37172 0.0
H357 H 1.06239 0.65883 0.34763 0.0
H358 H 0.9118 0.56054 0.38461 0.0
C359 C 0.98082 0.59745 0.3921 0.0
C360 C 0.41948 0.8479 0.76416 0.0
C361 C 0.42465 0.81609 0.75298 0.0
C362 C 0.43204 0.82088 0.73251 0.0
C363 C 0.44235 0.89408 0.73651 0.0
C364 C 0.43009 0.88706 0.75596 0.0
C365 C 0.43919 0.92818 0.7678 0.0
H366 H 0.5466 0.14705 0.77786 0.0
C367 C 0.46158 0.94144 0.73406 0.0
C368 C 0.45983 0.96133 0.75243 0.0
H369 H 0.47506 1.05592 0.82194 0.0
H370 H 0.44995 0.99588 0.79705 0.0
H371 H 0.58736 0.09195 0.75786 0.0
H372 H 0.4735 0.10073 0.74306 0.0
H373 H 0.49444 0.09396 0.72039 0.0
H374 H 0.52737 0.1418 0.73696 0.0
H375 H 0.59006 0.13973 0.74862 0.0
H376 H 0.58605 0.09591 0.73211 0.0
C377 C 0.47191 0.9365 0.78531 0.0
C378 C 0.39485 0.92318 0.77415 0.0
C379 C 0.53595 1.00605 0.67024 0.0
C380 C 0.56193 1.04945 0.66519 0.0
C381 C 0.56706 0.08393 0.67855 0.0
C382 C 0.54758 0.07551 0.69698 0.0
C383 C 0.52346 1.03216 0.7023 0.0
C384 C 0.51725 0.99816 0.68893 0.0
C385 C 0.49224 0.95441 0.69764 0.0
C386 C 0.4836 0.96779 0.71821 0.0
C387 C 0.50259 1.01346 0.72089 0.0
C388 C 0.52247 0.93424 0.69841 0.0
C389 C 0.44928 0.92609 0.68515 0.0
C390 C 0.52603 0.11408 0.78224 0.0
C391 C 0.51362 0.10612 0.80202 0.0
C392 C 0.48529 1.06291 0.80686 0.0
C393 C 0.47084 1.02809 0.79237 0.0
C394 C 0.4854 1.03644 0.7729 0.0
C395 C 0.51174 0.07892 0.76801 0.0
C396 C 0.52389 0.08158 0.7466 0.0
C397 C 0.50136 1.03343 0.73958 0.0
C398 C 0.47935 1.00735 0.75511 0.0
C399 C 0.57444 0.10364 0.74608 0.0
C400 C 0.50418 0.10601 0.73611 0.0
H401 H 0.44864 0.86268 0.70881 0.0
H402 H 0.41435 0.84586 0.77994 0.0
H403 H 0.36909 0.90505 0.76223 0.0
H404 H 0.39604 0.95493 0.77678 0.0
H405 H 0.38356 0.90475 0.78768 0.0
H406 H 0.49261 0.92159 0.78172 0.0
H407 H 0.45444 0.92243 0.79898 0.0
H408 H 0.49597 0.9714 0.78875 0.0
H409 H 0.53201 0.97906 0.66025 0.0
H410 H 0.58672 0.11754 0.6748 0.0
H411 H 0.55312 0.1032 0.70658 0.0
H412 H 0.55758 0.96007 0.69981 0.0
H413 H 0.51808 0.91313 0.68474 0.0
H414 H 0.5174 0.91522 0.71149 0.0
H415 H 0.43353 0.94565 0.68185 0.0
H416 H 0.42477 0.89807 0.69295 0.0
H417 H 0.45569 0.91367 0.67078 0.0
H418 H 0.43527 0.79641 0.72341 0.0
C419 C 0.44053 0.85968 0.72415 0.0
C420 C 0.68596 0.46685 0.12293 0.0
C421 C 0.72329 0.50836 0.12299 0.0
C422 C 0.73524 0.53012 0.10539 0.0
C423 C 0.67154 0.46999 0.0881 0.0
C424 C 0.66002 0.44869 0.10544 0.0
C425 C 0.61681 0.40679 0.10322 0.0
H426 H 0.42354 0.33233 0.06305 0.0
C427 C 0.63668 0.44362 0.07288 0.0
C428 C 0.60421 0.40662 0.08157 0.0
H429 H 0.46253 0.30655 0.11877 0.0
H430 H 0.53342 0.32485 0.1058 0.0
H431 H 0.49813 0.41976 0.05626 0.0
H432 H 0.4796 0.29559 0.03444 0.0
H433 H 0.52414 0.3333 0.02103 0.0
H434 H 0.47138 0.32938 0.01839 0.0
H435 H 0.45622 0.37999 0.03895 0.0
H436 H 0.50814 0.41808 0.03046 0.0
C437 C 0.58469 0.41003 0.11814 0.0
C438 C 0.62512 0.36854 0.10637 0.0
C439 C 0.64279 0.5043 0.00607 0.0
C440 C 0.61411 0.48858 0.9893 0.0
C441 C 0.57601 0.44712 0.98916 0.0
C442 C 0.56574 0.4226 0.0059 0.0
C443 C 0.59353 0.44002 0.02291 0.0
C444 C 0.63215 0.47926 0.02253 0.0
C445 C 0.65908 0.49091 0.04151 0.0
C446 C 0.63026 0.45184 0.05323 0.0
C447 C 0.59128 0.42304 0.0425 0.0
C448 C 0.66376 0.53418 0.0511 0.0
C449 C 0.70298 0.49303 0.03668 0.0
C450 C 0.44701 0.329 0.07204 0.0
C451 C 0.43888 0.3204 0.09211 0.0
C452 C 0.46876 0.31451 0.10345 0.0
C453 C 0.5103 0.32698 0.09632 0.0
C454 C 0.52151 0.3463 0.07816 0.0
C455 C 0.48922 0.3428 0.06532 0.0
C456 C 0.50789 0.36477 0.04642 0.0
C457 C 0.55672 0.38812 0.05186 0.0
C458 C 0.56415 0.37821 0.07082 0.0
C459 C 0.49184 0.39746 0.04277 0.0
C460 C 0.4951 0.3291 0.02915 0.0
H461 H 0.72064 0.52909 0.07492 0.0
H462 H 0.67639 0.44963 0.13638 0.0
H463 H 0.65476 0.37313 0.0986 0.0
H464 H 0.59797 0.33676 0.10021 0.0
H465 H 0.6303 0.3664 0.1224 0.0
H466 H 0.60083 0.43962 0.12863 0.0
H467 H 0.57006 0.382 0.12764 0.0
H468 H 0.55808 0.41223 0.11044 0.0
H469 H 0.6729 0.53548 0.00637 0.0
H470 H 0.5537 0.4342 0.9763 0.0
H471 H 0.53624 0.39146 0.00526 0.0
H472 H 0.63594 0.53858 0.04653 0.0
H473 H 0.69431 0.56303 0.04671 0.0
H474 H 0.66296 0.53497 0.06747 0.0
H475 H 0.6977 0.46645 0.02538 0.0
H476 H 0.71878 0.48812 0.04964 0.0
H477 H 0.72622 0.52467 0.03064 0.0
H478 H 0.76445 0.56196 0.10521 0.0
C479 C 0.70986 0.51091 0.08786 0.0
H480 H 0.39765 0.5119 0.12931 0.0
H481 H 0.28227 0.41778 0.15833 0.0
H482 H 0.30087 0.36031 0.14943 0.0
H483 H 0.38517 0.44401 0.08826 0.0
H484 H 0.44266 0.46373 0.08526 0.0
H485 H 0.42509 0.49912 0.09701 0.0
H486 H 0.47406 0.512 0.12825 0.0
H487 H 0.49257 0.47735 0.11642 0.0
H488 H 0.46874 0.46571 0.14042 0.0
H489 H 0.32914 0.3111 0.13418 0.0
H490 H 0.36584 0.27691 0.11479 0.0
H491 H 0.45765 0.40339 0.09425 0.0
C492 C 0.37672 0.47942 0.13414 0.0
C493 C 0.33865 0.46943 0.14456 0.0
C494 C 0.31213 0.42647 0.15065 0.0
C495 C 0.32222 0.39348 0.14553 0.0
C496 C 0.35894 0.40404 0.13438 0.0
C497 C 0.38598 0.44619 0.12896 0.0
C498 C 0.42134 0.44876 0.11566 0.0
C499 C 0.41834 0.46484 0.09535 0.0
C500 C 0.46687 0.47766 0.1258 0.0
C501 C 0.4092 0.40132 0.11389 0.0
C502 C 0.37367 0.37585 0.12499 0.0
C503 C 0.35699 0.33078 0.12542 0.0
C504 C 0.3776 0.31155 0.11431 0.0
C505 C 0.41347 0.33745 0.10267 0.0
C506 C 0.42935 0.38272 0.10261 0.0
H507 H 0.83977 0.34463 0.44568 0.0
H508 H 0.83351 0.40132 0.50348 0.0
H509 H 0.82599 0.45799 0.4875 0.0
H510 H 0.91427 0.44202 0.42924 0.0
H511 H 0.89459 0.42865 0.40368 0.0
H512 H 0.88504 0.38587 0.41928 0.0
H513 H 0.8018 0.34969 0.41054 0.0
H514 H 0.81158 0.39402 0.39558 0.0
H515 H 0.77401 0.38021 0.4155 0.0
H516 H 0.83074 0.51432 0.46649 0.0
H517 H 0.87068 0.57537 0.44534 0.0
H518 H 0.88262 0.48793 0.40143 0.0
C519 C 0.83637 0.36867 0.45501 0.0
C520 C 0.83569 0.36749 0.47587 0.0
C521 C 0.83185 0.4001 0.48745 0.0
C522 C 0.82747 0.43245 0.47847 0.0
C523 C 0.82793 0.4325 0.45784 0.0
C524 C 0.83352 0.40207 0.4463 0.0
C525 C 0.84331 0.4149 0.42518 0.0
C526 C 0.88688 0.41811 0.41901 0.0
C527 C 0.8054 0.38278 0.41086 0.0
C528 C 0.84614 0.45919 0.42704 0.0
C529 C 0.83427 0.46736 0.44566 0.0
C530 C 0.83958 0.50813 0.45181 0.0
C531 C 0.86196 0.54265 0.4396 0.0
C532 C 0.88041 0.53636 0.42199 0.0
C533 C 0.86838 0.49343 0.41471 0.0
H534 H 0.61914 0.79996 0.79534 0.0
H535 H 0.55581 0.77644 0.85184 0.0
H536 H 0.48755 0.76355 0.83493 0.0
H537 H 0.57423 0.86031 0.77688 0.0
H538 H 0.57005 0.83845 0.75164 0.0
H539 H 0.61106 0.84166 0.76854 0.0
H540 H 0.58079 0.75838 0.76083 0.0
H541 H 0.53844 0.75485 0.74452 0.0
H542 H 0.52416 0.72034 0.76497 0.0
H543 H 0.42771 0.7575 0.81175 0.0
H544 H 0.38705 0.77166 0.78624 0.0
H545 H 0.49176 0.80083 0.74564 0.0
C546 C 0.59117 0.79267 0.80428 0.0
C547 C 0.59302 0.78985 0.82497 0.0
C548 C 0.55517 0.77893 0.83597 0.0
C549 C 0.51623 0.77126 0.82647 0.0
C550 C 0.51558 0.774 0.80596 0.0
C551 C 0.5523 0.78485 0.79508 0.0
C552 C 0.54453 0.78886 0.77353 0.0
C553 C 0.57684 0.83505 0.7673 0.0
C554 C 0.54713 0.75349 0.76018 0.0
C555 C 0.49818 0.78055 0.77404 0.0
C556 C 0.48147 0.77067 0.79271 0.0
C557 C 0.44042 0.76499 0.79706 0.0
C558 C 0.41745 0.77291 0.78243 0.0
C559 C 0.43644 0.78803 0.76399 0.0
C560 C 0.47579 0.78868 0.75937 0.0
H561 H 0.93201 0.56897 0.18494 0.0
H562 H 0.93815 0.69175 0.20297 0.0
H563 H 0.86063 0.65984 0.1925 0.0
H564 H 0.87953 0.54852 0.14312 0.0
H565 H 0.84501 0.49015 0.14371 0.0
H566 H 0.89558 0.5179 0.15797 0.0
H567 H 0.85333 0.4872 0.19062 0.0
H568 H 0.80373 0.45821 0.17533 0.0
H569 H 0.80733 0.49421 0.19624 0.0
H570 H 0.79315 0.62382 0.171 0.0
H571 H 0.73768 0.5829 0.14383 0.0
H572 H 0.77245 0.48149 0.14172 0.0
C573 C 0.9165 0.5884 0.18787 0.0
C574 C 0.94138 0.633 0.19461 0.0
C575 C 0.91996 0.65766 0.19757 0.0
C576 C 0.87577 0.63967 0.19181 0.0
C577 C 0.85312 0.59659 0.18369 0.0
C578 C 0.87238 0.57074 0.18235 0.0
C579 C 0.84341 0.52781 0.17049 0.0
C580 C 0.8673 0.52073 0.15279 0.0
C581 C 0.82589 0.48955 0.18395 0.0
C582 C 0.8071 0.53538 0.16367 0.0
C583 C 0.81263 0.57479 0.17182 0.0
C584 C 0.78734 0.5921 0.1652 0.0
C585 C 0.7562 0.56892 0.14971 0.0
C586 C 0.75066 0.52893 0.14118 0.0
C587 C 0.7754 0.51137 0.1486 0.0
H588 H 0.44414 0.84305 0.50316 0.0
H589 H 0.40184 0.92144 0.53775 0.0
H590 H 0.33358 0.85497 0.54467 0.0
H591 H 0.35831 0.78694 0.47705 0.0
H592 H 0.35459 0.73409 0.47541 0.0
H593 H 0.40646 0.78221 0.48065 0.0
H594 H 0.4165 0.75175 0.5129 0.0
H595 H 0.36439 0.70275 0.50762 0.0
H596 H 0.3748 0.734 0.53109 0.0
H597 H 0.26353 0.79011 0.53691 0.0
H598 H 0.20108 0.73443 0.51651 0.0
H599 H 0.28473 0.69173 0.48793 0.0
C600 C 0.42126 0.84565 0.51302 0.0
C601 C 0.42788 0.88706 0.51984 0.0
C602 C 0.39755 0.8899 0.53256 0.0
C603 C 0.35863 0.85216 0.53659 0.0
C604 C 0.35097 0.81189 0.52805 0.0
C605 C 0.3821 0.80819 0.51694 0.0
C606 C 0.36283 0.76353 0.50591 0.0
C607 C 0.37099 0.76697 0.48345 0.0
C608 C 0.38069 0.7364 0.51493 0.0
C609 C 0.31495 0.74523 0.5102 0.0
C610 C 0.30903 0.77268 0.52374 0.0
C611 C 0.26768 0.76738 0.52696 0.0
C612 C 0.23209 0.73531 0.51522 0.0
C613 C 0.23794 0.70874 0.50039 0.0
C614 C 0.27932 0.71182 0.49899 0.0
H615 H 0.65461 0.35291 0.82753 0.0
H616 H 0.544 0.34171 0.85982 0.0
H617 H 0.51774 0.26371 0.86307 0.0
H618 H 0.60173 0.27006 0.7975 0.0
H619 H 0.63895 0.24905 0.79568 0.0
H620 H 0.6595 0.30557 0.80298 0.0
H621 H 0.69377 0.29836 0.83544 0.0
H622 H 0.67401 0.24152 0.82805 0.0
H623 H 0.6603 0.25677 0.85177 0.0
H624 H 0.49037 0.18678 0.8527 0.0
H625 H 0.46733 0.11903 0.83165 0.0
H626 H 0.5955 0.1773 0.80633 0.0
C627 C 0.62612 0.3343 0.83615 0.0
C628 C 0.60126 0.353 0.84337 0.0
C629 C 0.56386 0.32806 0.8544 0.0
C630 C 0.54869 0.28363 0.85631 0.0
C631 C 0.57173 0.26498 0.84741 0.0
C632 C 0.61049 0.28986 0.83799 0.0
C633 C 0.6244 0.26122 0.82628 0.0
C634 C 0.63147 0.27212 0.80433 0.0
C635 C 0.66555 0.26467 0.83597 0.0
C636 C 0.58486 0.21678 0.82855 0.0
C637 C 0.55563 0.21935 0.84142 0.0
C638 C 0.51366 0.18393 0.84323 0.0
C639 C 0.50076 0.14554 0.83115 0.0
C640 C 0.52965 0.14308 0.81732 0.0
C641 C 0.57277 0.17844 0.81676 0.0
H642 H 0.63583 0.96956 0.50957 0.0
H643 H 0.75532 1.03315 0.47723 0.0
H644 H 0.76232 0.96696 0.47803 0.0
H645 H 0.67343 0.91733 0.54211 0.0
H646 H 0.6208 0.86848 0.54287 0.0
H647 H 0.62401 0.91973 0.53858 0.0
H648 H 0.57695 0.88476 0.50614 0.0
H649 H 0.57393 0.83346 0.51024 0.0
H650 H 0.59437 0.85885 0.48734 0.0
H651 H 0.75614 0.89152 0.48266 0.0
H652 H 0.74199 0.82017 0.49387 0.0
H653 H 0.62847 0.80694 0.52432 0.0
C654 C 0.66334 0.96955 0.50249 0.0
C655 C 0.69486 1.00704 0.49316 0.0
C656 C 0.73062 1.0053 0.48445 0.0
C657 C 0.73477 0.96753 0.48475 0.0
C658 C 0.70317 0.93123 0.49403 0.0
C659 C 0.66837 0.93224 0.50295 0.0
C660 C 0.64023 0.88999 0.51298 0.0
C661 C 0.6396 0.89946 0.53547 0.0
C662 C 0.59361 0.86531 0.50361 0.0
C663 C 0.66454 0.86507 0.5084 0.0
C664 C 0.70046 0.88905 0.49721 0.0
C665 C 0.72799 0.87265 0.49141 0.0
C666 C 0.71947 0.83167 0.49768 0.0
C667 C 0.68396 0.80727 0.50991 0.0
C668 C 0.65583 0.82432 0.51491 0.0
H669 H 0.83291 0.68046 0.84861 0.0
H670 H 0.77332 0.58022 0.80017 0.0
H671 H 0.83929 0.57292 0.79933 0.0
H672 H 0.94535 0.73077 0.83217 0.0
H673 H 0.9693 0.7399 0.85683 0.0
H674 H 0.91818 0.73896 0.85319 0.0
H675 H 0.88175 0.67839 0.87775 0.0
H676 H 0.93276 0.67921 0.88148 0.0
H677 H 0.88403 0.62872 0.87356 0.0
H678 H 0.91296 0.57616 0.8036 0.0
H679 H 0.98463 0.58604 0.81422 0.0
H680 H 0.99705 0.68236 0.86065 0.0
C681 C 0.83384 0.65721 0.83771 0.0
C682 C 0.79739 0.63112 0.82435 0.0
C683 C 0.80027 0.60069 0.81059 0.0
C684 C 0.83791 0.59635 0.80995 0.0
C685 C 0.87301 0.6223 0.82329 0.0
C686 C 0.87121 0.65193 0.83705 0.0
C687 C 0.9129 0.67445 0.85027 0.0
C688 C 0.93791 0.72396 0.84797 0.0
C689 C 0.90221 0.6646 0.87206 0.0
C690 C 0.93827 0.65292 0.84181 0.0
C691 C 0.91481 0.62323 0.82611 0.0
C692 C 0.9315 0.59941 0.81589 0.0
C693 C 0.97267 0.60552 0.82196 0.0
C694 C 0.99726 0.63499 0.83833 0.0
C695 C 0.97944 0.65919 0.84819 0.0
H696 H 0.34966 0.74033 0.1752 0.0
H697 H 0.27241 0.78626 0.14583 0.0
H698 H 0.33728 0.86019 0.14598 0.0
H699 H 0.41017 0.83831 0.2079 0.0
H700 H 0.46084 0.83746 0.20748 0.0
H701 H 0.40946 0.78711 0.20372 0.0
H702 H 0.43539 0.76964 0.17038 0.0
H703 H 0.48683 0.82001 0.17404 0.0
H704 H 0.45376 0.80879 0.15172 0.0
H705 H 0.41156 0.93012 0.14881 0.0
H706 H 0.48608 0.99153 0.15744 0.0
H707 H 0.51566 0.9042 0.18777 0.0
C708 C 0.34663 0.76587 0.16859 0.0
C709 C 0.30564 0.75696 0.1602 0.0
C710 C 0.30315 0.79186 0.15221 0.0
C711 C 0.34003 0.83413 0.15219 0.0
C712 C 0.37975 0.84199 0.16059 0.0
C713 C 0.38322 0.80901 0.16892 0.0
C714 C 0.42921 0.82732 0.17818 0.0
C715 C 0.42729 0.82225 0.20066 0.0
C716 C 0.45268 0.80511 0.16797 0.0
C717 C 0.45087 0.8755 0.17376 0.0
C718 C 0.42187 0.88297 0.16326 0.0
C719 C 0.43438 0.92451 0.15709 0.0
C720 C 0.47711 0.95935 0.16196 0.0
C721 C 0.50735 0.9533 0.17328 0.0
C722 C 0.49363 0.91036 0.17916 0.0
H723 H 0.70176 0.26319 0.52158 0.0
H724 H 0.63676 0.21627 0.46346 0.0
H725 H 0.63149 0.28318 0.46202 0.0
H726 H 0.63324 0.3093 0.53809 0.0
H727 H 0.67663 0.35491 0.55262 0.0
H728 H 0.67706 0.30421 0.54898 0.0
H729 H 0.75441 0.3452 0.53456 0.0
H730 H 0.75387 0.39573 0.53873 0.0
H731 H 0.76299 0.37937 0.51431 0.0
H732 H 0.63401 0.35715 0.46667 0.0
H733 H 0.64011 0.42777 0.4777 0.0
H734 H 0.70224 0.42735 0.53323 0.0
C735 C 0.68653 0.26703 0.50851 0.0
C736 C 0.66984 0.23394 0.49255 0.0
C737 C 0.64972 0.24055 0.47592 0.0
C738 C 0.64669 0.27877 0.47493 0.0
C739 C 0.66323 0.31052 0.49085 0.0
C740 C 0.68232 0.30482 0.50747 0.0
C741 C 0.69526 0.34299 0.52298 0.0
C742 C 0.66899 0.32689 0.54178 0.0
C743 C 0.74462 0.36721 0.52795 0.0
C744 C 0.68216 0.37175 0.51221 0.0
C745 C 0.66352 0.35229 0.49373 0.0
C746 C 0.64873 0.37257 0.48113 0.0
C747 C 0.65281 0.41333 0.48752 0.0
C748 C 0.67181 0.43447 0.50645 0.0
C749 C 0.68683 0.41276 0.5188 0.0
H750 H 0.53301 0.59827 0.84954 0.0
H751 H 0.57809 0.68606 0.80208 0.0
H752 H 0.5099 0.68989 0.80311 0.0
H753 H 0.41648 0.54092 0.8361 0.0
H754 H 0.39991 0.53852 0.86143 0.0
H755 H 0.4504 0.53974 0.85578 0.0
H756 H 0.49285 0.60778 0.88037 0.0
H757 H 0.4425 0.6067 0.88614 0.0
H758 H 0.48785 0.6555 0.87755 0.0
H759 H 0.43481 0.6847 0.81002 0.0
H760 H 0.3671 0.67799 0.82423 0.0
H761 H 0.37237 0.59603 0.86814 0.0
C762 C 0.52845 0.61816 0.83929 0.0
C763 C 0.56106 0.64139 0.82551 0.0
C764 C 0.55386 0.66776 0.81271 0.0
C765 C 0.51506 0.67023 0.81323 0.0
C766 C 0.48376 0.64729 0.82708 0.0
C767 C 0.49041 0.62216 0.84005 0.0
C768 C 0.45302 0.60271 0.85431 0.0
C769 C 0.4285 0.55249 0.85175 0.0
C770 C 0.47008 0.61916 0.87587 0.0
C771 C 0.42434 0.62078 0.84743 0.0
C772 C 0.4422 0.64595 0.83153 0.0
C773 C 0.42113 0.66569 0.8227 0.0
C774 C 0.3821 0.66118 0.83074 0.0
C775 C 0.36386 0.63692 0.84758 0.0
C776 C 0.38531 0.6157 0.85557 0.0
H777 H 1.03281 0.53273 0.18072 0.0
H778 H 1.08603 0.48027 0.13635 0.0
H779 H 1.02039 0.40701 0.13759 0.0
H780 H 0.99054 0.43916 0.20996 0.0
H781 H 0.94277 0.4418 0.2173 0.0
H782 H 0.99179 0.49085 0.21158 0.0
H783 H 0.94802 0.50572 0.18538 0.0
H784 H 0.89908 0.45659 0.19121 0.0
H785 H 0.91648 0.46387 0.16599 0.0
H786 H 0.947 0.3373 0.144 0.0
H787 H 0.8791 0.2786 0.15747 0.0
H788 H 0.87525 0.37481 0.1991 0.0
C789 C 1.03029 0.50597 0.17102 0.0
C790 C 1.06466 0.51286 0.15811 0.0
C791 C 1.0603 0.47631 0.1462 0.0
C792 C 1.0229 0.43438 0.14679 0.0
C793 C 0.98979 0.42855 0.15971 0.0
C794 C 0.99348 0.46335 0.17182 0.0
C795 C 0.95497 0.44757 0.18554 0.0
C796 C 0.97098 0.45531 0.20739 0.0
C797 C 0.92807 0.46985 0.18179 0.0
C798 C 0.92887 0.39881 0.17915 0.0
C799 C 0.94919 0.38846 0.16407 0.0
C800 C 0.93101 0.34532 0.15584 0.0
C801 C 0.89197 0.31201 0.16347 0.0
C802 C 0.87116 0.32136 0.17944 0.0
C803 C 0.89 0.3659 0.18701 0.0
H804 H 0.18586 0.59975 0.08624 0.0
H805 H 0.16839 0.70999 0.10431 0.0
H806 H 0.16775 0.72543 0.06933 0.0
H807 H 0.25735 0.65012 0.04575 0.0
H808 H 0.23399 0.6005 0.02975 0.0
H809 H 0.23363 0.59784 0.05631 0.0
H810 H 0.14952 0.54695 0.0543 0.0
H811 H 0.14965 0.54924 0.02774 0.0
H812 H 0.1157 0.56429 0.04221 0.0
H813 H 0.16755 0.72871 0.03268 0.0
H814 H 0.16595 0.71841 -0.0038 0.0
H815 H 0.18428 0.60673 0.00098 0.0
C816 C 0.18187 0.62712 0.08286 0.0
C817 C 0.17716 0.65362 0.09817 0.0
C818 C 0.17207 0.68914 0.09299 0.0
C819 C 0.17175 0.69829 0.07311 0.0
C820 C 0.17668 0.67177 0.05845 0.0
C821 C 0.18157 0.63685 0.063 0.0
C822 C 0.1856 0.61324 0.04424 0.0
C823 C 0.23031 0.61558 0.044 0.0
C824 C 0.14786 0.56561 0.04199 0.0
C825 C 0.18186 0.64019 0.02847 0.0
C826 C 0.17685 0.67384 0.03709 0.0
C827 C 0.17155 0.70256 0.02575 0.0
C828 C 0.1706 0.6964 0.00504 0.0
C829 C 0.17497 0.66181 -0.00424 0.0
C830 C 0.18137 0.63374 0.00768 0.0
H831 H 0.63766 0.09268 0.4208 0.0
H832 H 0.77417 0.18434 0.43672 0.0
H833 H 0.7902 0.19387 0.40124 0.0
H834 H 0.65476 1.04137 0.37693 0.0
H835 H 0.60881 1.03683 0.36303 0.0
H836 H 0.60793 1.03674 0.38969 0.0
H837 H 0.59378 0.10205 0.39156 0.0
H838 H 0.59443 0.10221 0.3649 0.0
H839 H 0.63077 0.15124 0.37997 0.0
H840 H 0.79211 0.19083 0.36393 0.0
H841 H 0.77913 0.17977 0.32772 0.0
H842 H 0.6401 0.09485 0.33592 0.0
C843 C 0.67094 0.11469 0.41682 0.0
C844 C 0.70472 0.13758 0.43159 0.0
C845 C 0.74772 0.16648 0.42573 0.0
C846 C 0.75719 0.17202 0.40558 0.0
C847 C 0.72324 0.14888 0.39141 0.0
C848 C 0.68087 0.12118 0.39676 0.0
C849 C 0.65022 0.10112 0.37857 0.0
C850 C 0.6292 1.05105 0.37697 0.0
C851 C 0.61524 0.115 0.37877 0.0
C852 C 0.68206 0.1215 0.36218 0.0
C853 C 0.72403 0.14869 0.36992 0.0
C854 C 0.75923 0.17013 0.35771 0.0
C855 C 0.75136 0.16387 0.33706 0.0
C856 C 0.70842 0.13682 0.32864 0.0
C857 C 0.67344 0.11544 0.34159 0.0
H858 H 0.64151 0.58952 0.75379 0.0
H859 H 0.74691 0.72253 0.76767 0.0
H860 H 0.75727 0.73293 0.73184 0.0
H861 H 0.69172 0.56598 0.71232 0.0
H862 H 0.64105 0.53336 0.69811 0.0
H863 H 0.641 0.53679 0.72482 0.0
H864 H 0.58454 0.56327 0.72376 0.0
H865 H 0.58435 0.55986 0.69705 0.0
H866 H 0.59659 0.6105 0.71051 0.0
H867 H 0.75574 0.72901 0.69442 0.0
H868 H 0.74446 0.71021 0.65825 0.0
H869 H 0.6414 0.57909 0.66868 0.0
C870 C 0.66663 0.62095 0.74932 0.0
C871 C 0.69329 0.65531 0.76358 0.0
C872 C 0.7261 0.69572 0.75706 0.0
C873 C 0.73217 0.70197 0.73672 0.0
C874 C 0.70541 0.66739 0.72307 0.0
C875 C 0.67343 0.62759 0.72909 0.0
C876 C 0.64979 0.59539 0.71141 0.0
C877 C 0.6563 0.55553 0.71169 0.0
C878 C 0.60092 0.58145 0.71064 0.0
C879 C 0.67342 0.62329 0.69448 0.0
C880 C 0.70519 0.66481 0.70154 0.0
C881 C 0.73097 0.69659 0.68874 0.0
C882 C 0.72417 0.68567 0.66821 0.0
C883 C 0.69205 0.64321 0.66062 0.0
C884 C 0.66647 0.61169 0.67402 0.0
H885 H 0.59171 1.05983 0.54826 0.0
H886 H 0.73149 0.13999 0.56096 0.0
H887 H 0.71903 0.13128 0.59677 0.0
H888 H 0.55631 0.0989 0.58945 0.0
H889 H 0.51004 1.04649 0.59398 0.0
H890 H 0.52996 1.05757 0.56928 0.0
H891 H 0.53958 0.98943 0.56745 0.0
H892 H 0.51912 0.97784 0.59207 0.0
H893 H 0.5717 0.98369 0.58657 0.0
H894 H 0.6911 0.11859 0.6311 0.0
H895 H 0.6497 0.09874 0.66188 0.0
H896 H 0.52842 1.02338 0.62697 0.0
C897 C 0.61968 0.07543 0.55857 0.0
C898 C 0.66255 0.1008 0.55188 0.0
C899 C 0.69839 0.12032 0.56579 0.0
C900 C 0.69164 0.11562 0.58614 0.0
C901 C 0.64893 0.09069 0.59227 0.0
C902 C 0.61359 1.07046 0.5789 0.0
C903 C 0.57102 1.04547 0.5894 0.0
C904 C 0.54002 1.06319 0.58528 0.0
C905 C 0.54907 0.99618 0.58352 0.0
C906 C 0.58786 1.05578 0.61081 0.0
C907 C 0.63292 0.08196 0.6121 0.0
C908 C 0.6559 0.09765 0.6303 0.0
C909 C 0.6322 0.08638 0.64765 0.0
C910 C 0.58613 1.05941 0.64666 0.0
C911 C 0.56373 1.04356 0.62803 0.0
H912 H 0.64946 0.5412 0.87575 0.0
H913 H 0.68047 0.67376 0.89379 0.0
H914 H 0.66859 0.65455 0.92875 0.0
H915 H 0.56254 0.48858 0.90969 0.0
H916 H 0.57557 0.44641 0.91387 0.0
H917 H 0.58729 0.47133 0.89053 0.0
H918 H 0.66837 0.49158 0.89508 0.0
H919 H 0.65699 0.46713 0.91852 0.0
H920 H 0.69931 0.52331 0.91721 0.0
H921 H 0.65504 0.62093 0.96175 0.0
H922 H 0.63778 0.57481 0.99018 0.0
H923 H 0.61252 0.46366 0.94997 0.0
C924 C 0.65381 0.56629 0.88701 0.0
C925 C 0.66605 0.60904 0.88209 0.0
C926 C 0.67113 0.64081 0.89727 0.0
C927 C 0.66448 0.6302 0.91713 0.0
C928 C 0.65227 0.58762 0.92144 0.0
C929 C 0.64665 0.55611 0.90677 0.0
C930 C 0.63248 0.51249 0.91515 0.0
C931 C 0.58675 0.47766 0.90682 0.0
C932 C 0.66633 0.49779 0.91126 0.0
C933 C 0.63158 0.52447 0.93694 0.0
C934 C 0.64323 0.56797 0.94028 0.0
C935 C 0.6457 0.5868 0.9593 0.0
C936 C 0.63603 0.56046 0.97533 0.0
C937 C 0.62376 0.51577 0.97219 0.0
C938 C 0.62133 0.49761 0.95273 0.0
H939 H 0.13775 0.59065 0.22324 0.0
H940 H 0.2771 0.67294 0.21594 0.0
H941 H 0.28914 0.68447 0.25248 0.0
H942 H 0.12708 0.65031 0.26317 0.0
H943 H 1.08832 0.60394 0.27596 0.0
H944 H 1.09118 0.5991 0.24941 0.0
H945 H 1.10432 0.53366 0.25193 0.0
H946 H 1.10088 0.53784 0.27851 0.0
H947 H 0.14849 0.53972 0.26778 0.0
H948 H 0.28381 0.69513 0.28949 0.0
H949 H 0.26339 0.6973 0.32417 0.0
H950 H 0.12847 0.60079 0.30715 0.0
C951 C 0.17088 0.61042 0.22938 0.0
C952 C 0.20655 0.631 0.21693 0.0
C953 C 0.24946 0.65663 0.22534 0.0
C954 C 0.25653 0.66348 0.24603 0.0
C955 C 0.22043 0.64356 0.25794 0.0
C956 C 0.17858 0.61672 0.24991 0.0
C957 C 0.14525 0.59977 0.26587 0.0
C958 C 0.11096 0.61416 0.26345 0.0
C959 C 0.12347 0.54978 0.26603 0.0
C960 C 0.17466 0.62251 0.28413 0.0
C961 C 0.21783 0.64776 0.27928 0.0
C962 C 0.25029 0.67451 0.29354 0.0
C963 C 0.2383 0.67528 0.31329 0.0
C964 C 0.19424 0.64895 0.31871 0.0
C965 C 0.16235 0.62188 0.30377 0.0
loop_
_geom_bond_atom_site_label_1
_geom_bond_atom_site_label_2
_geom_bond_distance
_geom_bond_site_symmetry_2
_ccdc_geom_bond_type
Tb0 C9 2.764 1_455 S
Tb0 O10 2.325 1_455 S
Tb0 O13 2.303 . S
Tb0 O17 2.322 . S
Tb0 O18 2.349 . S
Tb0 O21 2.415 1_455 S
Tb0 O22 2.399 1_455 S
Tb1 O11 2.322 . S
Tb1 O12 2.349 . S
Tb1 O14 2.415 . S
Tb1 O15 2.399 . S
Tb1 O16 2.325 . S
Tb1 O19 2.303 . S
Tb1 C30 2.764 . S
C2 O18 1.261 . S
C2 O19 1.257 . S
C3 C6 1.358 . S
C3 C7 1.332 . S
C3 C9 1.504 . S
C4 C5 1.373 . S
C4 C8 1.308 . S
C5 C4 1.373 . S
C5 C6 1.429 . S
C5 H32 0.932 . S
C6 C3 1.358 . S
C6 C5 1.429 . S
C6 H33 0.930 . S
C7 C3 1.332 . S
C7 C8 1.394 . S
C7 H34 0.932 . S
C8 C4 1.308 . S
C8 C7 1.394 . S
C8 H35 0.929 . S
C9 Tb0 2.764 1_655 S
C9 C3 1.504 . S
C9 O21 1.239 . S
C9 O22 1.263 . S
O10 Tb0 2.325 1_655 S
O10 C20 1.236 . S
O11 Tb1 2.322 . S
O11 C20 1.257 1_455 S
O12 Tb1 2.349 . S
O12 C23 1.261 . S
O13 Tb0 2.303 . S
O13 C23 1.257 . S
O14 Tb1 2.415 . S
O14 C30 1.239 . S
O15 Tb1 2.399 . S
O15 C30 1.263 . S
O16 Tb1 2.325 . S
O16 C31 1.236 . S
O17 Tb0 2.322 . S
O17 C31 1.257 . S
O18 Tb0 2.349 . S
O18 C2 1.261 . S
O19 Tb1 2.303 . S
O19 C2 1.257 . S
C20 O10 1.236 . S
C20 O11 1.257 1_655 S
O21 Tb0 2.415 1_655 S
O21 C9 1.239 . S
O22 Tb0 2.399 1_655 S
O22 C9 1.263 . S
C23 O12 1.261 . S
C23 O13 1.257 . S
C24 C27 1.358 . S
C24 C28 1.332 . S
C24 C30 1.504 . S
C25 C26 1.373 . S
C25 C29 1.308 . S
C26 C25 1.373 . S
C26 C27 1.429 . S
C26 H36 0.932 . S
C27 C24 1.358 . S
C27 C26 1.429 . S
C27 H37 0.930 . S
C28 C24 1.332 . S
C28 C29 1.394 . S
C28 H38 0.932 . S
C29 C25 1.308 . S
C29 C28 1.394 . S
C29 H39 0.929 . S
C30 Tb1 2.764 . S
C30 O14 1.239 . S
C30 O15 1.263 . S
C30 C24 1.504 . S
C31 O16 1.236 . S
C31 O17 1.257 . S
H32 C5 0.932 . S
H33 C6 0.930 . S
H34 C7 0.932 . S
H35 C8 0.929 . S
H36 C26 0.932 . S
H37 C27 0.930 . S
H38 C28 0.932 . S
H39 C29 0.929 . S
Tb40 C49 2.764 . S
Tb40 O50 2.325 . S
Tb40 O53 2.303 1_565 S
Tb40 O57 2.322 1_565 S
Tb40 O58 2.349 1_565 S
Tb40 O61 2.415 . S
Tb40 O62 2.399 . S
Tb41 O51 2.322 1_545 S
Tb41 O52 2.349 . S
Tb41 O54 2.415 . S
Tb41 O55 2.399 . S
Tb41 O56 2.325 . S
Tb41 O59 2.303 . S
Tb41 C70 2.764 . S
C42 O58 1.261 . S
C42 O59 1.257 . S
C43 C46 1.358 . S
C43 C47 1.332 . S
C43 C49 1.504 . S
C44 C45 1.373 . S
C44 C48 1.308 . S
C45 C44 1.373 . S
C45 C46 1.429 . S
C45 H72 0.932 . S
C46 C43 1.358 . S
C46 C45 1.429 . S
C46 H73 0.930 . S
C47 C43 1.332 . S
C47 C48 1.394 . S
C47 H74 0.932 . S
C48 C44 1.308 . S
C48 C47 1.394 . S
C48 H75 0.929 . S
C49 Tb40 2.764 . S
C49 C43 1.504 . S
C49 O61 1.239 . S
C49 O62 1.263 . S
O50 Tb40 2.325 . S
O50 C60 1.236 . S
O51 Tb41 2.322 1_565 S
O51 C60 1.257 . S
O52 Tb41 2.349 . S
O52 C63 1.261 . S
O53 Tb40 2.303 1_545 S
O53 C63 1.257 . S
O54 Tb41 2.415 . S
O54 C70 1.239 . S
O55 Tb41 2.399 . S
O55 C70 1.263 . S
O56 Tb41 2.325 . S
O56 C71 1.236 . S
O57 Tb40 2.322 1_545 S
O57 C71 1.257 . S
O58 Tb40 2.349 1_545 S
O58 C42 1.261 . S
O59 Tb41 2.303 . S
O59 C42 1.257 . S
C60 O50 1.236 . S
C60 O51 1.257 . S
O61 Tb40 2.415 . S
O61 C49 1.239 . S
O62 Tb40 2.399 . S
O62 C49 1.263 . S
C63 O52 1.261 . S
C63 O53 1.257 . S
C64 C67 1.358 . S
C64 C68 1.332 . S
C64 C70 1.504 . S
C65 C66 1.373 . S
C65 C69 1.308 . S
C66 C65 1.373 . S
C66 C67 1.429 . S
C66 H76 0.932 . S
C67 C64 1.358 . S
C67 C66 1.429 . S
C67 H77 0.930 . S
C68 C64 1.332 . S
C68 C69 1.394 . S
C68 H78 0.932 . S
C69 C65 1.308 . S
C69 C68 1.394 . S
C69 H79 0.929 . S
C70 Tb41 2.764 . S
C70 O54 1.239 . S
C70 O55 1.263 . S
C70 C64 1.504 . S
C71 O56 1.236 . S
C71 O57 1.257 . S
H72 C45 0.932 . S
H73 C46 0.930 . S
H74 C47 0.932 . S
H75 C48 0.929 . S
H76 C66 0.932 . S
H77 C67 0.930 . S
H78 C68 0.932 . S
H79 C69 0.929 . S
Tb80 C89 2.764 . S
Tb80 O90 2.325 . S
Tb80 O93 2.303 . S
Tb80 O97 2.322 . S
Tb80 O98 2.349 . S
Tb80 O101 2.415 . S
Tb80 O102 2.399 . S
Tb81 O91 2.322 . S
Tb81 O92 2.349 . S
Tb81 O94 2.415 . S
Tb81 O95 2.399 . S
Tb81 O96 2.325 . S
Tb81 O99 2.303 . S
Tb81 C110 2.764 . S
C82 O98 1.261 . S
C82 O99 1.257 . S
C83 C86 1.358 . S
C83 C87 1.332 . S
C83 C89 1.504 . S
C84 C85 1.373 . S
C84 C88 1.308 . S
C85 C84 1.373 . S
C85 C86 1.429 . S
C85 H112 0.932 . S
C86 C83 1.358 . S
C86 C85 1.429 . S
C86 H113 0.930 . S
C87 C83 1.332 . S
C87 C88 1.394 . S
C87 H114 0.932 . S
C88 C84 1.308 . S
C88 C87 1.394 . S
C88 H115 0.929 . S
C89 Tb80 2.764 . S
C89 C83 1.504 . S
C89 O101 1.239 . S
C89 O102 1.263 . S
O90 Tb80 2.325 . S
O90 C100 1.236 . S
O91 Tb81 2.322 . S
O91 C100 1.257 . S
O92 Tb81 2.349 . S
O92 C103 1.261 . S
O93 Tb80 2.303 . S
O93 C103 1.257 . S
O94 Tb81 2.415 . S
O94 C110 1.239 . S
O95 Tb81 2.399 . S
O95 C110 1.263 . S
O96 Tb81 2.325 . S
O96 C111 1.236 . S
O97 Tb80 2.322 . S
O97 C111 1.257 . S
O98 Tb80 2.349 . S
O98 C82 1.261 . S
O99 Tb81 2.303 . S
O99 C82 1.257 . S
C100 O90 1.236 . S
C100 O91 1.257 . S
O101 Tb80 2.415 . S
O101 C89 1.239 . S
O102 Tb80 2.399 . S
O102 C89 1.263 . S
C103 O92 1.261 . S
C103 O93 1.257 . S
C104 C107 1.358 . S
C104 C108 1.332 . S
C104 C110 1.504 . S
C105 C106 1.373 . S
C105 C109 1.308 . S
C106 C105 1.373 . S
C106 C107 1.429 . S
C106 H116 0.932 . S
C107 C104 1.358 . S
C107 C106 1.429 . S
C107 H117 0.930 . S
C108 C104 1.332 . S
C108 C109 1.394 . S
C108 H118 0.932 . S
C109 C105 1.308 . S
C109 C108 1.394 . S
C109 H119 0.929 . S
C110 Tb81 2.764 . S
C110 O94 1.239 . S
C110 O95 1.263 . S
C110 C104 1.504 . S
C111 O96 1.236 . S
C111 O97 1.257 . S
H112 C85 0.932 . S
H113 C86 0.930 . S
H114 C87 0.932 . S
H115 C88 0.929 . S
H116 C106 0.932 . S
H117 C107 0.930 . S
H118 C108 0.932 . S
H119 C109 0.929 . S
C120 C121 1.391 . S
C120 C124 1.391 . S
C120 H162 0.948 . S
C121 C120 1.391 . S
C121 C122 1.391 . S
C122 C121 1.391 . S
C122 H178 0.947 . S
C122 C179 1.392 . S
C123 C124 1.391 . S
C123 C127 1.397 . S
C123 C179 1.419 . S
C124 C120 1.391 . S
C124 C123 1.391 . S
C124 C125 1.399 . S
C125 C124 1.399 . S
C125 C128 1.396 . S
C125 C137 1.453 . S
C125 C138 1.684 . S
H126 C150 0.948 . S
C127 C123 1.397 . S
C127 C128 1.394 . S
C127 C146 1.723 . S
C128 C125 1.396 . S
C128 C127 1.394 . S
C128 C158 1.723 1_545 S
H129 C152 0.947 . S
H130 C153 0.948 . S
H131 C159 0.982 . S
H132 C160 0.979 . S
H133 C160 0.980 . S
H134 C160 0.983 . S
H135 C159 0.979 . S
H136 C159 0.977 . S
C137 C125 1.453 . S
C137 H166 0.982 . S
C137 H167 0.979 . S
C137 H168 0.977 . S
C138 C125 1.684 . S
C138 H163 0.979 . S
C138 H164 0.980 . S
C138 H165 0.983 . S
C139 C140 1.391 . S
C139 C144 1.391 . S
C139 H169 0.948 . S
C140 C139 1.391 . S
C140 C141 1.391 . S
C141 C140 1.391 . S
C141 C142 1.392 1_545 S
C141 H170 0.947 1_545 S
C142 C141 1.392 1_565 S
C142 C143 1.419 1_565 S
C142 H171 0.948 . S
C143 C142 1.419 1_545 S
C143 C144 1.391 . S
C143 C147 1.397 . S
C144 C139 1.391 . S
C144 C143 1.391 . S
C144 C145 1.399 . S
C145 C144 1.399 . S
C145 C146 1.396 . S
C145 C148 1.453 . S
C145 C149 1.684 . S
C146 C127 1.723 . S
C146 C145 1.396 . S
C146 C147 1.394 . S
C147 C143 1.397 . S
C147 C146 1.394 . S
C147 C157 1.723 1_545 S
C148 C145 1.453 . S
C148 H172 0.982 . S
C148 H173 0.979 . S
C148 H174 0.977 . S
C149 C145 1.684 . S
C149 H175 0.979 . S
C149 H176 0.980 . S
C149 H177 0.983 . S
C150 H126 0.948 . S
C150 C151 1.391 . S
C150 C155 1.391 . S
C151 C150 1.391 . S
C151 C152 1.391 . S
C152 H129 0.947 . S
C152 C151 1.391 . S
C152 C153 1.392 . S
C153 H130 0.948 . S
C153 C152 1.392 . S
C153 C154 1.419 . S
C154 C153 1.419 . S
C154 C155 1.391 . S
C154 C158 1.397 . S
C155 C150 1.391 . S
C155 C154 1.391 . S
C155 C156 1.399 . S
C156 C155 1.399 . S
C156 C157 1.396 . S
C156 C159 1.453 . S
C156 C160 1.684 . S
C157 C147 1.723 1_565 S
C157 C156 1.396 . S
C157 C158 1.394 . S
C158 C128 1.723 1_565 S
C158 C154 1.397 . S
C158 C157 1.394 . S
C159 H131 0.982 . S
C159 H135 0.979 . S
C159 H136 0.977 . S
C159 C156 1.453 . S
C160 H132 0.979 . S
C160 H133 0.980 . S
C160 H134 0.983 . S
C160 C156 1.684 . S
H161 C179 0.948 . S
H162 C120 0.948 . S
H163 C138 0.979 . S
H164 C138 0.980 . S
H165 C138 0.983 . S
H166 C137 0.982 . S
H167 C137 0.979 . S
H168 C137 0.977 . S
H169 C139 0.948 . S
H170 C141 0.947 1_565 S
H171 C142 0.948 . S
H172 C148 0.982 . S
H173 C148 0.979 . S
H174 C148 0.977 . S
H175 C149 0.979 . S
H176 C149 0.980 . S
H177 C149 0.983 . S
H178 C122 0.947 . S
C179 C122 1.392 . S
C179 C123 1.419 . S
C179 H161 0.948 . S
C180 C181 1.391 . S
C180 C184 1.391 . S
C180 H222 0.948 . S
C181 C180 1.391 . S
C181 C182 1.391 . S
C182 C181 1.391 . S
C182 H238 0.947 . S
C182 C239 1.392 . S
C183 C184 1.391 . S
C183 C187 1.397 . S
C183 C239 1.419 . S
C184 C180 1.391 . S
C184 C183 1.391 . S
C184 C185 1.399 . S
C185 C184 1.399 . S
C185 C188 1.396 . S
C185 C197 1.453 . S
C185 C198 1.684 . S
H186 C210 0.948 . S
C187 C183 1.397 . S
C187 C188 1.394 . S
C187 C206 1.723 . S
C188 C185 1.396 . S
C188 C187 1.394 . S
C188 C218 1.723 . S
H189 C212 0.947 . S
H190 C213 0.948 . S
H191 C219 0.982 . S
H192 C220 0.979 . S
H193 C220 0.980 . S
H194 C220 0.983 . S
H195 C219 0.979 . S
H196 C219 0.977 . S
C197 C185 1.453 . S
C197 H226 0.982 . S
C197 H227 0.979 . S
C197 H228 0.977 . S
C198 C185 1.684 . S
C198 H223 0.979 . S
C198 H224 0.980 . S
C198 H225 0.983 . S
C199 C200 1.391 . S
C199 C204 1.391 . S
C199 H229 0.948 . S
C200 C199 1.391 . S
C200 C201 1.391 . S
C201 C200 1.391 . S
C201 C202 1.392 . S
C201 H230 0.947 . S
C202 C201 1.392 . S
C202 C203 1.419 . S
C202 H231 0.948 . S
C203 C202 1.419 . S
C203 C204 1.391 . S
C203 C207 1.397 . S
C204 C199 1.391 . S
C204 C203 1.391 . S
C204 C205 1.399 . S
C205 C204 1.399 . S
C205 C206 1.396 . S
C205 C208 1.453 . S
C205 C209 1.684 . S
C206 C187 1.723 . S
C206 C205 1.396 . S
C206 C207 1.394 . S
C207 C203 1.397 . S
C207 C206 1.394 . S
C207 C217 1.723 . S
C208 C205 1.453 . S
C208 H232 0.982 . S
C208 H233 0.979 . S
C208 H234 0.977 . S
C209 C205 1.684 . S
C209 H235 0.979 . S
C209 H236 0.980 . S
C209 H237 0.983 . S
C210 H186 0.948 . S
C210 C211 1.391 . S
C210 C215 1.391 . S
C211 C210 1.391 . S
C211 C212 1.391 . S
C212 H189 0.947 . S
C212 C211 1.391 . S
C212 C213 1.392 . S
C213 H190 0.948 . S
C213 C212 1.392 . S
C213 C214 1.419 . S
C214 C213 1.419 . S
C214 C215 1.391 . S
C214 C218 1.397 . S
C215 C210 1.391 . S
C215 C214 1.391 . S
C215 C216 1.399 . S
C216 C215 1.399 . S
C216 C217 1.396 . S
C216 C219 1.453 . S
C216 C220 1.684 . S
C217 C207 1.723 . S
C217 C216 1.396 . S
C217 C218 1.394 . S
C218 C188 1.723 . S
C218 C214 1.397 . S
C218 C217 1.394 . S
C219 H191 0.982 . S
C219 H195 0.979 . S
C219 H196 0.977 . S
C219 C216 1.453 . S
C220 H192 0.979 . S
C220 H193 0.980 . S
C220 H194 0.983 . S
C220 C216 1.684 . S
H221 C239 0.948 . S
H222 C180 0.948 . S
H223 C198 0.979 . S
H224 C198 0.980 . S
H225 C198 0.983 . S
H226 C197 0.982 . S
H227 C197 0.979 . S
H228 C197 0.977 . S
H229 C199 0.948 . S
H230 C201 0.947 . S
H231 C202 0.948 . S
H232 C208 0.982 . S
H233 C208 0.979 . S
H234 C208 0.977 . S
H235 C209 0.979 . S
H236 C209 0.980 . S
H237 C209 0.983 . S
H238 C182 0.947 . S
C239 C182 1.392 . S
C239 C183 1.419 . S
C239 H221 0.948 . S
C240 C241 1.391 . S
C240 C244 1.391 . S
C240 H282 0.948 . S
C241 C240 1.391 . S
C241 C242 1.391 . S
C242 C241 1.391 . S
C242 H298 0.947 . S
C242 C299 1.392 . S
C243 C244 1.391 . S
C243 C247 1.397 . S
C243 C299 1.419 . S
C244 C240 1.391 . S
C244 C243 1.391 . S
C244 C245 1.399 . S
C245 C244 1.399 . S
C245 C248 1.396 . S
C245 C257 1.453 . S
C245 C258 1.684 . S
H246 C270 0.948 . S
C247 C243 1.397 . S
C247 C248 1.394 . S
C247 C266 1.723 . S
C248 C245 1.396 . S
C248 C247 1.394 . S
C248 C278 1.723 . S
H249 C272 0.947 . S
H250 C273 0.948 . S
H251 C279 0.982 . S
H252 C280 0.979 1_455 S
H253 C280 0.980 . S
H254 C280 0.983 . S
H255 C279 0.979 . S
H256 C279 0.977 . S
C257 C245 1.453 . S
C257 H286 0.982 . S
C257 H287 0.979 . S
C257 H288 0.977 . S
C258 C245 1.684 . S
C258 H283 0.979 . S
C258 H284 0.980 . S
C258 H285 0.983 . S
C259 C260 1.391 . S
C259 C264 1.391 . S
C259 H289 0.948 . S
C260 C259 1.391 . S
C260 C261 1.391 . S
C261 C260 1.391 . S
C261 C262 1.392 . S
C261 H290 0.947 . S
C262 C261 1.392 . S
C262 C263 1.419 . S
C262 H291 0.948 . S
C263 C262 1.419 . S
C263 C264 1.391 . S
C263 C267 1.397 . S
C264 C259 1.391 . S
C264 C263 1.391 . S
C264 C265 1.399 . S
C265 C264 1.399 . S
C265 C266 1.396 . S
C265 C268 1.453 . S
C265 C269 1.684 . S
C266 C247 1.723 . S
C266 C265 1.396 . S
C266 C267 1.394 . S
C267 C263 1.397 . S
C267 C266 1.394 . S
C267 C277 1.723 . S
C268 C265 1.453 . S
C268 H292 0.982 . S
C268 H293 0.979 . S
C268 H294 0.977 . S
C269 C265 1.684 . S
C269 H295 0.979 . S
C269 H296 0.980 . S
C269 H297 0.983 . S
C270 H246 0.948 . S
C270 C271 1.391 . S
C270 C275 1.391 . S
C271 C270 1.391 . S
C271 C272 1.391 . S
C272 H249 0.947 . S
C272 C271 1.391 . S
C272 C273 1.392 1_655 S
C273 H250 0.948 . S
C273 C272 1.392 1_455 S
C273 C274 1.419 . S
C274 C273 1.419 . S
C274 C275 1.391 1_455 S
C274 C278 1.397 . S
C275 C270 1.391 . S
C275 C274 1.391 1_655 S
C275 C276 1.399 . S
C276 C275 1.399 . S
C276 C277 1.396 1_655 S
C276 C279 1.453 . S
C276 C280 1.684 . S
C277 C267 1.723 . S
C277 C276 1.396 1_455 S
C277 C278 1.394 . S
C278 C248 1.723 . S
C278 C274 1.397 . S
C278 C277 1.394 . S
C279 H251 0.982 . S
C279 H255 0.979 . S
C279 H256 0.977 . S
C279 C276 1.453 . S
C280 H252 0.979 1_655 S
C280 H253 0.980 . S
C280 H254 0.983 . S
C280 C276 1.684 . S
H281 C299 0.948 . S
H282 C240 0.948 . S
H283 C258 0.979 . S
H284 C258 0.980 . S
H285 C258 0.983 . S
H286 C257 0.982 . S
H287 C257 0.979 . S
H288 C257 0.977 . S
H289 C259 0.948 . S
H290 C261 0.947 . S
H291 C262 0.948 . S
H292 C268 0.982 . S
H293 C268 0.979 . S
H294 C268 0.977 . S
H295 C269 0.979 . S
H296 C269 0.980 . S
H297 C269 0.983 . S
H298 C242 0.947 . S
C299 C242 1.392 . S
C299 C243 1.419 . S
C299 H281 0.948 . S
C300 C301 1.391 . S
C300 C304 1.391 . S
C300 H342 0.948 . S
C301 C300 1.391 . S
C301 C302 1.391 . S
C302 C301 1.391 . S
C302 H358 0.947 . S
C302 C359 1.392 . S
C303 C304 1.391 . S
C303 C307 1.397 . S
C303 C359 1.419 . S
C304 C300 1.391 . S
C304 C303 1.391 . S
C304 C305 1.399 . S
C305 C304 1.399 . S
C305 C308 1.396 . S
C305 C317 1.453 . S
C305 C318 1.684 . S
H306 C330 0.948 . S
C307 C303 1.397 . S
C307 C308 1.394 . S
C307 C326 1.723 . S
C308 C305 1.396 . S
C308 C307 1.394 . S
C308 C338 1.723 1_655 S
H309 C332 0.947 . S
H310 C333 0.948 . S
H311 C339 0.982 . S
H312 C340 0.979 . S
H313 C340 0.980 . S
H314 C340 0.983 . S
H315 C339 0.979 . S
H316 C339 0.977 . S
C317 C305 1.453 . S
C317 H346 0.982 1_655 S
C317 H347 0.979 . S
C317 H348 0.977 1_655 S
C318 C305 1.684 . S
C318 H343 0.979 . S
C318 H344 0.980 . S
C318 H345 0.983 . S
C319 C320 1.391 1_655 S
C319 C324 1.391 . S
C319 H349 0.948 . S
C320 C319 1.391 1_455 S
C320 C321 1.391 . S
C321 C320 1.391 . S
C321 C322 1.392 . S
C321 H350 0.947 . S
C322 C321 1.392 . S
C322 C323 1.419 . S
C322 H351 0.948 . S
C323 C322 1.419 . S
C323 C324 1.391 1_455 S
C323 C327 1.397 . S
C324 C319 1.391 . S
C324 C323 1.391 1_655 S
C324 C325 1.399 . S
C325 C324 1.399 . S
C325 C326 1.396 . S
C325 C328 1.453 . S
C325 C329 1.684 . S
C326 C307 1.723 . S
C326 C325 1.396 . S
C326 C327 1.394 1_655 S
C327 C323 1.397 . S
C327 C326 1.394 1_455 S
C327 C337 1.723 . S
C328 C325 1.453 . S
C328 H352 0.982 . S
C328 H353 0.979 . S
C328 H354 0.977 . S
C329 C325 1.684 . S
C329 H355 0.979 . S
C329 H356 0.980 . S
C329 H357 0.983 . S
C330 H306 0.948 . S
C330 C331 1.391 . S
C330 C335 1.391 . S
C331 C330 1.391 . S
C331 C332 1.391 . S
C332 H309 0.947 . S
C332 C331 1.391 . S
C332 C333 1.392 . S
C333 H310 0.948 . S
C333 C332 1.392 . S
C333 C334 1.419 . S
C334 C333 1.419 . S
C334 C335 1.391 . S
C334 C338 1.397 . S
C335 C330 1.391 . S
C335 C334 1.391 . S
C335 C336 1.399 . S
C336 C335 1.399 . S
C336 C337 1.396 . S
C336 C339 1.453 . S
C336 C340 1.684 . S
C337 C327 1.723 . S
C337 C336 1.396 . S
C337 C338 1.394 . S
C338 C308 1.723 1_455 S
C338 C334 1.397 . S
C338 C337 1.394 . S
C339 H311 0.982 . S
C339 H315 0.979 . S
C339 H316 0.977 . S
C339 C336 1.453 . S
C340 H312 0.979 . S
C340 H313 0.980 . S
C340 H314 0.983 . S
C340 C336 1.684 . S
H341 C359 0.948 . S
H342 C300 0.948 . S
H343 C318 0.979 . S
H344 C318 0.980 . S
H345 C318 0.983 . S
H346 C317 0.982 1_455 S
H347 C317 0.979 . S
H348 C317 0.977 1_455 S
H349 C319 0.948 . S
H350 C321 0.947 . S
H351 C322 0.948 . S
H352 C328 0.982 . S
H353 C328 0.979 . S
H354 C328 0.977 . S
H355 C329 0.979 . S
H356 C329 0.980 . S
H357 C329 0.983 . S
H358 C302 0.947 . S
C359 C302 1.392 . S
C359 C303 1.419 . S
C359 H341 0.948 . S
C360 C361 1.391 . S
C360 C364 1.391 . S
C360 H402 0.948 . S
C361 C360 1.391 . S
C361 C362 1.391 . S
C362 C361 1.391 . S
C362 H418 0.947 . S
C362 C419 1.392 . S
C363 C364 1.391 . S
C363 C367 1.397 . S
C363 C419 1.419 . S
C364 C360 1.391 . S
C364 C363 1.391 . S
C364 C365 1.399 . S
C365 C364 1.399 . S
C365 C368 1.396 . S
C365 C377 1.443 1_565 S
C365 C378 1.684 . S
H366 C390 0.948 . S
C367 C363 1.397 . S
C367 C368 1.394 . S
C367 C386 1.723 . S
C368 C365 1.396 . S
C368 C367 1.394 . S
C368 C398 1.723 1_565 S
H369 C392 0.947 . S
H370 C393 0.948 . S
H371 C399 0.982 . S
H372 C400 0.979 . S
H373 C400 0.980 . S
H374 C400 0.983 . S
H375 C399 0.979 . S
H376 C399 0.977 . S
C377 C365 1.443 1_545 S
C377 H406 0.976 . S
C377 H407 0.961 1_545 S
C377 H408 1.012 . S
C378 C365 1.684 . S
C378 H403 0.979 . S
C378 H404 1.009 . S
C378 H405 0.983 . S
C379 C380 1.391 . S
C379 C384 1.391 . S
C379 H409 0.948 . S
C380 C379 1.391 . S
C380 C381 1.391 1_565 S
C381 C380 1.391 1_545 S
C381 C382 1.392 . S
C381 H410 0.947 . S
C382 C381 1.392 . S
C382 C383 1.419 . S
C382 H411 0.948 . S
C383 C382 1.419 . S
C383 C384 1.391 1_545 S
C383 C387 1.397 . S
C384 C379 1.391 . S
C384 C383 1.391 1_565 S
C384 C385 1.399 . S
C385 C384 1.399 . S
C385 C386 1.396 . S
C385 C388 1.453 . S
C385 C389 1.684 . S
C386 C367 1.723 . S
C386 C385 1.396 . S
C386 C387 1.394 1_565 S
C387 C383 1.397 . S
C387 C386 1.394 1_545 S
C387 C397 1.723 . S
C388 C385 1.453 . S
C388 H412 0.982 . S
C388 H413 0.979 . S
C388 H414 0.977 . S
C389 C385 1.684 . S
C389 H415 0.979 . S
C389 H416 0.980 . S
C389 H417 0.983 . S
C390 H366 0.948 . S
C390 C391 1.391 . S
C390 C395 1.391 . S
C391 C390 1.391 . S
C391 C392 1.391 . S
C392 H369 0.947 . S
C392 C391 1.391 . S
C392 C393 1.392 . S
C393 H370 0.948 . S
C393 C392 1.392 . S
C393 C394 1.419 . S
C394 C393 1.419 . S
C394 C395 1.391 . S
C394 C398 1.397 . S
C395 C390 1.391 . S
C395 C394 1.391 . S
C395 C396 1.399 . S
C396 C395 1.399 . S
C396 C397 1.396 . S
C396 C399 1.453 . S
C396 C400 1.684 . S
C397 C387 1.723 . S
C397 C396 1.396 . S
C397 C398 1.394 . S
C398 C368 1.723 1_545 S
C398 C394 1.397 . S
C398 C397 1.394 . S
C399 H371 0.982 . S
C399 H375 0.979 . S
C399 H376 0.977 . S
C399 C396 1.453 . S
C400 H372 0.979 . S
C400 H373 0.980 . S
C400 H374 0.983 . S
C400 C396 1.684 . S
H401 C419 0.948 . S
H402 C360 0.948 . S
H403 C378 0.979 . S
H404 C378 1.009 . S
H405 C378 0.983 . S
H406 C377 0.976 . S
H407 C377 0.961 1_565 S
H408 C377 1.012 . S
H409 C379 0.948 . S
H410 C381 0.947 . S
H411 C382 0.948 . S
H412 C388 0.982 . S
H413 C388 0.979 . S
H414 C388 0.977 . S
H415 C389 0.979 . S
H416 C389 0.980 . S
H417 C389 0.983 . S
H418 C362 0.947 . S
C419 C362 1.392 . S
C419 C363 1.419 . S
C419 H401 0.948 . S
C420 C421 1.391 . S
C420 C424 1.391 . S
C420 H462 0.948 . S
C421 C420 1.391 . S
C421 C422 1.391 . S
C422 C421 1.391 . S
C422 H478 0.947 . S
C422 C479 1.392 . S
C423 C424 1.391 . S
C423 C427 1.397 . S
C423 C479 1.419 . S
C424 C420 1.391 . S
C424 C423 1.391 . S
C424 C425 1.399 . S
C425 C424 1.399 . S
C425 C428 1.396 . S
C425 C437 1.453 . S
C425 C438 1.684 . S
H426 C450 0.948 . S
C427 C423 1.397 . S
C427 C428 1.394 . S
C427 C446 1.723 . S
C428 C425 1.396 . S
C428 C427 1.394 . S
C428 C458 1.723 . S
H429 C452 0.947 . S
H430 C453 0.948 . S
H431 C459 0.982 . S
H432 C460 0.979 . S
H433 C460 0.980 . S
H434 C460 0.983 . S
H435 C459 0.979 . S
H436 C459 0.977 . S
C437 C425 1.453 . S
C437 H466 0.982 . S
C437 H467 0.979 . S
C437 H468 0.977 . S
C438 C425 1.684 . S
C438 H463 0.979 . S
C438 H464 0.980 . S
C438 H465 0.983 . S
C439 C440 1.391 . S
C439 C444 1.391 . S
C439 H469 0.948 . S
C440 C439 1.391 . S
C440 C441 1.391 . S
C441 C440 1.391 . S
C441 C442 1.392 . S
C441 H470 0.947 . S
C442 C441 1.392 . S
C442 C443 1.419 . S
C442 H471 0.948 . S
C443 C442 1.419 . S
C443 C444 1.391 . S
C443 C447 1.397 . S
C444 C439 1.391 . S
C444 C443 1.391 . S
C444 C445 1.399 . S
C445 C444 1.399 . S
C445 C446 1.396 . S
C445 C448 1.453 . S
C445 C449 1.684 . S
C446 C427 1.723 . S
C446 C445 1.396 . S
C446 C447 1.394 . S
C447 C443 1.397 . S
C447 C446 1.394 . S
C447 C457 1.723 . S
C448 C445 1.453 . S
C448 H472 0.982 . S
C448 H473 0.979 . S
C448 H474 0.977 . S
C449 C445 1.684 . S
C449 H475 0.979 . S
C449 H476 0.980 . S
C449 H477 0.983 . S
C450 H426 0.948 . S
C450 C451 1.391 . S
C450 C455 1.391 . S
C451 C450 1.391 . S
C451 C452 1.391 . S
C452 H429 0.947 . S
C452 C451 1.391 . S
C452 C453 1.392 . S
C453 H430 0.948 . S
C453 C452 1.392 . S
C453 C454 1.419 . S
C454 C453 1.419 . S
C454 C455 1.391 . S
C454 C458 1.397 . S
C455 C450 1.391 . S
C455 C454 1.391 . S
C455 C456 1.399 . S
C456 C455 1.399 . S
C456 C457 1.396 . S
C456 C459 1.453 . S
C456 C460 1.684 . S
C457 C447 1.723 . S
C457 C456 1.396 . S
C457 C458 1.394 . S
C458 C428 1.723 . S
C458 C454 1.397 . S
C458 C457 1.394 . S
C459 H431 0.982 . S
C459 H435 0.979 . S
C459 H436 0.977 . S
C459 C456 1.453 . S
C460 H432 0.979 . S
C460 H433 0.980 . S
C460 H434 0.983 . S
C460 C456 1.684 . S
H461 C479 0.948 . S
H462 C420 0.948 . S
H463 C438 0.979 . S
H464 C438 0.980 . S
H465 C438 0.983 . S
H466 C437 0.982 . S
H467 C437 0.979 . S
H468 C437 0.977 . S
H469 C439 0.948 . S
H470 C441 0.947 . S
H471 C442 0.948 . S
H472 C448 0.982 . S
H473 C448 0.979 . S
H474 C448 0.977 . S
H475 C449 0.979 . S
H476 C449 0.980 . S
H477 C449 0.983 . S
H478 C422 0.947 . S
C479 C422 1.392 . S
C479 C423 1.419 . S
C479 H461 0.948 . S
H480 C492 0.930 . S
H481 C494 0.930 . S
H482 C495 0.930 . S
H483 C499 0.959 . S
H484 C499 0.959 . S
H485 C499 0.961 . S
H486 C500 0.960 . S
H487 C500 0.961 . S
H488 C500 0.959 . S
H489 C503 0.929 . S
H490 C504 0.931 . S
H491 C506 0.930 . S
C492 H480 0.930 . S
C492 C493 1.399 . S
C492 C497 1.399 . S
C493 C492 1.399 . S
C493 C494 1.376 . S
C494 H481 0.930 . S
C494 C493 1.376 . S
C494 C495 1.388 . S
C495 H482 0.930 . S
C495 C494 1.388 . S
C495 C496 1.390 . S
C496 C495 1.390 . S
C496 C497 1.394 . S
C496 C502 1.465 . S
C497 C492 1.399 . S
C497 C496 1.394 . S
C497 C498 1.516 . S
C498 C497 1.516 . S
C498 C499 1.502 . S
C498 C500 1.561 . S
C498 C501 1.526 . S
C499 H483 0.959 . S
C499 H484 0.959 . S
C499 H485 0.961 . S
C499 C498 1.502 . S
C500 H486 0.960 . S
C500 H487 0.961 . S
C500 H488 0.959 . S
C500 C498 1.561 . S
C501 C498 1.526 . S
C501 C502 1.396 . S
C501 C506 1.390 . S
C502 C496 1.465 . S
C502 C501 1.396 . S
C502 C503 1.399 . S
C503 H489 0.929 . S
C503 C502 1.399 . S
C503 C504 1.385 . S
C504 H490 0.931 . S
C504 C503 1.385 . S
C504 C505 1.389 . S
C505 C504 1.389 . S
C505 C506 1.387 . S
C506 H491 0.930 . S
C506 C501 1.390 . S
C506 C505 1.387 . S
H507 C519 0.930 . S
H508 C521 0.930 . S
H509 C522 0.930 . S
H510 C526 0.959 . S
H511 C526 0.959 . S
H512 C526 0.961 . S
H513 C527 0.960 . S
H514 C527 0.961 . S
H515 C527 0.959 . S
H516 C530 0.929 . S
H517 C531 0.931 . S
H518 C533 0.930 . S
C519 H507 0.930 . S
C519 C520 1.399 . S
C519 C524 1.399 . S
C520 C519 1.399 . S
C520 C521 1.376 . S
C521 H508 0.930 . S
C521 C520 1.376 . S
C521 C522 1.388 . S
C522 H509 0.930 . S
C522 C521 1.388 . S
C522 C523 1.390 . S
C523 C522 1.390 . S
C523 C524 1.394 . S
C523 C529 1.465 . S
C524 C519 1.399 . S
C524 C523 1.394 . S
C524 C525 1.516 . S
C525 C524 1.516 . S
C525 C526 1.502 . S
C525 C527 1.561 . S
C525 C528 1.526 . S
C526 H510 0.959 . S
C526 H511 0.959 . S
C526 H512 0.961 . S
C526 C525 1.502 . S
C527 H513 0.960 . S
C527 H514 0.961 . S
C527 H515 0.959 . S
C527 C525 1.561 . S
C528 C525 1.526 . S
C528 C529 1.396 . S
C528 C533 1.390 . S
C529 C523 1.465 . S
C529 C528 1.396 . S
C529 C530 1.399 . S
C530 H516 0.929 . S
C530 C529 1.399 . S
C530 C531 1.385 . S
C531 H517 0.931 . S
C531 C530 1.385 . S
C531 C532 1.389 . S
C532 C531 1.389 . S
C532 C533 1.387 . S
C533 H518 0.930 . S
C533 C528 1.390 . S
C533 C532 1.387 . S
H534 C546 0.930 . S
H535 C548 0.930 . S
H536 C549 0.930 . S
H537 C553 0.959 . S
H538 C553 0.959 . S
H539 C553 0.961 . S
H540 C554 0.960 . S
H541 C554 0.961 . S
H542 C554 0.959 . S
H543 C557 0.929 . S
H544 C558 0.931 . S
H545 C560 0.930 . S
C546 H534 0.930 . S
C546 C547 1.399 . S
C546 C551 1.399 . S
C547 C546 1.399 . S
C547 C548 1.376 . S
C548 H535 0.930 . S
C548 C547 1.376 . S
C548 C549 1.388 . S
C549 H536 0.930 . S
C549 C548 1.388 . S
C549 C550 1.390 . S
C550 C549 1.390 . S
C550 C551 1.394 . S
C550 C556 1.465 . S
C551 C546 1.399 . S
C551 C550 1.394 . S
C551 C552 1.516 . S
C552 C551 1.516 . S
C552 C553 1.502 . S
C552 C554 1.561 . S
C552 C555 1.526 . S
C553 H537 0.959 . S
C553 H538 0.959 . S
C553 H539 0.961 . S
C553 C552 1.502 . S
C554 H540 0.960 . S
C554 H541 0.961 . S
C554 H542 0.959 . S
C554 C552 1.561 . S
C555 C552 1.526 . S
C555 C556 1.396 . S
C555 C560 1.390 . S
C556 C550 1.465 . S
C556 C555 1.396 . S
C556 C557 1.399 . S
C557 H543 0.929 . S
C557 C556 1.399 . S
C557 C558 1.385 . S
C558 H544 0.931 . S
C558 C557 1.385 . S
C558 C559 1.389 . S
C559 C558 1.389 . S
C559 C560 1.387 . S
C560 H545 0.930 . S
C560 C555 1.390 . S
C560 C559 1.387 . S
H561 C573 0.930 . S
H562 C575 0.930 . S
H563 C576 0.930 . S
H564 C580 0.959 . S
H565 C580 0.959 . S
H566 C580 0.961 . S
H567 C581 0.960 . S
H568 C581 0.961 . S
H569 C581 0.959 . S
H570 C584 0.929 . S
H571 C585 0.931 . S
H572 C587 0.930 . S
C573 H561 0.930 . S
C573 C574 1.399 . S
C573 C578 1.399 . S
C574 C573 1.399 . S
C574 C575 1.376 . S
C575 H562 0.930 . S
C575 C574 1.376 . S
C575 C576 1.388 . S
C576 H563 0.930 . S
C576 C575 1.388 . S
C576 C577 1.390 . S
C577 C576 1.390 . S
C577 C578 1.394 . S
C577 C583 1.465 . S
C578 C573 1.399 . S
C578 C577 1.394 . S
C578 C579 1.516 . S
C579 C578 1.516 . S
C579 C580 1.502 . S
C579 C581 1.561 . S
C579 C582 1.526 . S
C580 H564 0.959 . S
C580 H565 0.959 . S
C580 H566 0.961 . S
C580 C579 1.502 . S
C581 H567 0.960 . S
C581 H568 0.961 . S
C581 H569 0.959 . S
C581 C579 1.561 . S
C582 C579 1.526 . S
C582 C583 1.396 . S
C582 C587 1.390 . S
C583 C577 1.465 . S
C583 C582 1.396 . S
C583 C584 1.399 . S
C584 H570 0.929 . S
C584 C583 1.399 . S
C584 C585 1.385 . S
C585 H571 0.931 . S
C585 C584 1.385 . S
C585 C586 1.389 . S
C586 C585 1.389 . S
C586 C587 1.387 . S
C587 H572 0.930 . S
C587 C582 1.390 . S
C587 C586 1.387 . S
H588 C600 0.930 . S
H589 C602 0.930 . S
H590 C603 0.930 . S
H591 C607 0.959 . S
H592 C607 0.959 . S
H593 C607 0.961 . S
H594 C608 0.960 . S
H595 C608 0.961 . S
H596 C608 0.959 . S
H597 C611 0.929 . S
H598 C612 0.931 . S
H599 C614 0.930 . S
C600 H588 0.930 . S
C600 C601 1.399 . S
C600 C605 1.399 . S
C601 C600 1.399 . S
C601 C602 1.376 . S
C602 H589 0.930 . S
C602 C601 1.376 . S
C602 C603 1.388 . S
C603 H590 0.930 . S
C603 C602 1.388 . S
C603 C604 1.390 . S
C604 C603 1.390 . S
C604 C605 1.394 . S
C604 C610 1.465 . S
C605 C600 1.399 . S
C605 C604 1.394 . S
C605 C606 1.516 . S
C606 C605 1.516 . S
C606 C607 1.502 . S
C606 C608 1.561 . S
C606 C609 1.526 . S
C607 H591 0.959 . S
C607 H592 0.959 . S
C607 H593 0.961 . S
C607 C606 1.502 . S
C608 H594 0.960 . S
C608 H595 0.961 . S
C608 H596 0.959 . S
C608 C606 1.561 . S
C609 C606 1.526 . S
C609 C610 1.396 . S
C609 C614 1.390 . S
C610 C604 1.465 . S
C610 C609 1.396 . S
C610 C611 1.399 . S
C611 H597 0.929 . S
C611 C610 1.399 . S
C611 C612 1.385 . S
C612 H598 0.931 . S
C612 C611 1.385 . S
C612 C613 1.389 . S
C613 C612 1.389 . S
C613 C614 1.387 . S
C614 H599 0.930 . S
C614 C609 1.390 . S
C614 C613 1.387 . S
H615 C627 0.930 . S
H616 C629 0.930 . S
H617 C630 0.930 . S
H618 C634 0.959 . S
H619 C634 0.959 . S
H620 C634 0.961 . S
H621 C635 0.960 . S
H622 C635 0.961 . S
H623 C635 0.959 . S
H624 C638 0.929 . S
H625 C639 0.931 . S
H626 C641 0.930 . S
C627 H615 0.930 . S
C627 C628 1.399 . S
C627 C632 1.399 . S
C628 C627 1.399 . S
C628 C629 1.376 . S
C629 H616 0.930 . S
C629 C628 1.376 . S
C629 C630 1.388 . S
C630 H617 0.930 . S
C630 C629 1.388 . S
C630 C631 1.390 . S
C631 C630 1.390 . S
C631 C632 1.394 . S
C631 C637 1.465 . S
C632 C627 1.399 . S
C632 C631 1.394 . S
C632 C633 1.516 . S
C633 C632 1.516 . S
C633 C634 1.502 . S
C633 C635 1.561 . S
C633 C636 1.526 . S
C634 H618 0.959 . S
C634 H619 0.959 . S
C634 H620 0.961 . S
C634 C633 1.502 . S
C635 H621 0.960 . S
C635 H622 0.961 . S
C635 H623 0.959 . S
C635 C633 1.561 . S
C636 C633 1.526 . S
C636 C637 1.396 . S
C636 C641 1.390 . S
C637 C631 1.465 . S
C637 C636 1.396 . S
C637 C638 1.399 . S
C638 H624 0.929 . S
C638 C637 1.399 . S
C638 C639 1.385 . S
C639 H625 0.931 . S
C639 C638 1.385 . S
C639 C640 1.389 . S
C640 C639 1.389 . S
C640 C641 1.387 . S
C641 H626 0.930 . S
C641 C636 1.390 . S
C641 C640 1.387 . S
H642 C654 0.930 . S
H643 C656 0.930 . S
H644 C657 0.930 . S
H645 C661 0.959 . S
H646 C661 0.959 . S
H647 C661 0.961 . S
H648 C662 0.960 . S
H649 C662 0.961 . S
H650 C662 0.959 . S
H651 C665 0.929 . S
H652 C666 0.931 . S
H653 C668 0.930 . S
C654 H642 0.930 . S
C654 C655 1.399 . S
C654 C659 1.399 . S
C655 C654 1.399 . S
C655 C656 1.376 . S
C656 H643 0.930 . S
C656 C655 1.376 . S
C656 C657 1.388 . S
C657 H644 0.930 . S
C657 C656 1.388 . S
C657 C658 1.390 . S
C658 C657 1.390 . S
C658 C659 1.394 . S
C658 C664 1.465 . S
C659 C654 1.399 . S
C659 C658 1.394 . S
C659 C660 1.516 . S
C660 C659 1.516 . S
C660 C661 1.502 . S
C660 C662 1.561 . S
C660 C663 1.526 . S
C661 H645 0.959 . S
C661 H646 0.959 . S
C661 H647 0.961 . S
C661 C660 1.502 . S
C662 H648 0.960 . S
C662 H649 0.961 . S
C662 H650 0.959 . S
C662 C660 1.561 . S
C663 C660 1.526 . S
C663 C664 1.396 . S
C663 C668 1.390 . S
C664 C658 1.465 . S
C664 C663 1.396 . S
C664 C665 1.399 . S
C665 H651 0.929 . S
C665 C664 1.399 . S
C665 C666 1.385 . S
C666 H652 0.931 . S
C666 C665 1.385 . S
C666 C667 1.389 . S
C667 C666 1.389 . S
C667 C668 1.387 . S
C668 H653 0.930 . S
C668 C663 1.390 . S
C668 C667 1.387 . S
H669 C681 0.930 . S
H670 C683 0.930 . S
H671 C684 0.930 . S
H672 C688 0.959 . S
H673 C688 0.959 . S
H674 C688 0.961 . S
H675 C689 0.960 . S
H676 C689 0.961 . S
H677 C689 0.959 . S
H678 C692 0.929 . S
H679 C693 0.931 . S
H680 C695 0.930 . S
C681 H669 0.930 . S
C681 C682 1.399 . S
C681 C686 1.399 . S
C682 C681 1.399 . S
C682 C683 1.376 . S
C683 H670 0.930 . S
C683 C682 1.376 . S
C683 C684 1.388 . S
C684 H671 0.930 . S
C684 C683 1.388 . S
C684 C685 1.390 . S
C685 C684 1.390 . S
C685 C686 1.394 . S
C685 C691 1.465 . S
C686 C681 1.399 . S
C686 C685 1.394 . S
C686 C687 1.516 . S
C687 C686 1.516 . S
C687 C688 1.502 . S
C687 C689 1.561 . S
C687 C690 1.526 . S
C688 H672 0.959 . S
C688 H673 0.959 . S
C688 H674 0.961 . S
C688 C687 1.502 . S
C689 H675 0.960 . S
C689 H676 0.961 . S
C689 H677 0.959 . S
C689 C687 1.561 . S
C690 C687 1.526 . S
C690 C691 1.396 . S
C690 C695 1.390 . S
C691 C685 1.465 . S
C691 C690 1.396 . S
C691 C692 1.399 . S
C692 H678 0.929 . S
C692 C691 1.399 . S
C692 C693 1.385 . S
C693 H679 0.931 . S
C693 C692 1.385 . S
C693 C694 1.389 . S
C694 C693 1.389 . S
C694 C695 1.387 . S
C695 H680 0.930 . S
C695 C690 1.390 . S
C695 C694 1.387 . S
H696 C708 0.930 . S
H697 C710 0.930 . S
H698 C711 0.930 . S
H699 C715 0.959 . S
H700 C715 0.959 . S
H701 C715 0.961 . S
H702 C716 0.960 . S
H703 C716 0.961 . S
H704 C716 0.959 . S
H705 C719 0.929 . S
H706 C720 0.931 . S
H707 C722 0.930 . S
C708 H696 0.930 . S
C708 C709 1.399 . S
C708 C713 1.399 . S
C709 C708 1.399 . S
C709 C710 1.376 . S
C710 H697 0.930 . S
C710 C709 1.376 . S
C710 C711 1.388 . S
C711 H698 0.930 . S
C711 C710 1.388 . S
C711 C712 1.390 . S
C712 C711 1.390 . S
C712 C713 1.394 . S
C712 C718 1.465 . S
C713 C708 1.399 . S
C713 C712 1.394 . S
C713 C714 1.516 . S
C714 C713 1.516 . S
C714 C715 1.502 . S
C714 C716 1.561 . S
C714 C717 1.526 . S
C715 H699 0.959 . S
C715 H700 0.959 . S
C715 H701 0.961 . S
C715 C714 1.502 . S
C716 H702 0.960 . S
C716 H703 0.961 . S
C716 H704 0.959 . S
C716 C714 1.561 . S
C717 C714 1.526 . S
C717 C718 1.396 . S
C717 C722 1.390 . S
C718 C712 1.465 . S
C718 C717 1.396 . S
C718 C719 1.399 . S
C719 H705 0.929 . S
C719 C718 1.399 . S
C719 C720 1.385 . S
C720 H706 0.931 . S
C720 C719 1.385 . S
C720 C721 1.389 . S
C721 C720 1.389 . S
C721 C722 1.387 . S
C722 H707 0.930 . S
C722 C717 1.390 . S
C722 C721 1.387 . S
H723 C735 0.930 . S
H724 C737 0.930 . S
H725 C738 0.930 . S
H726 C742 0.959 . S
H727 C742 0.959 . S
H728 C742 0.961 . S
H729 C743 0.960 . S
H730 C743 0.961 . S
H731 C743 0.959 . S
H732 C746 0.929 . S
H733 C747 0.931 . S
H734 C749 0.930 . S
C735 H723 0.930 . S
C735 C736 1.399 . S
C735 C740 1.399 . S
C736 C735 1.399 . S
C736 C737 1.376 . S
C737 H724 0.930 . S
C737 C736 1.376 . S
C737 C738 1.388 . S
C738 H725 0.930 . S
C738 C737 1.388 . S
C738 C739 1.390 . S
C739 C738 1.390 . S
C739 C740 1.394 . S
C739 C745 1.465 . S
C740 C735 1.399 . S
C740 C739 1.394 . S
C740 C741 1.516 . S
C741 C740 1.516 . S
C741 C742 1.502 . S
C741 C743 1.561 . S
C741 C744 1.526 . S
C742 H726 0.959 . S
C742 H727 0.959 . S
C742 H728 0.961 . S
C742 C741 1.502 . S
C743 H729 0.960 . S
C743 H730 0.961 . S
C743 H731 0.959 . S
C743 C741 1.561 . S
C744 C741 1.526 . S
C744 C745 1.396 . S
C744 C749 1.390 . S
C745 C739 1.465 . S
C745 C744 1.396 . S
C745 C746 1.399 . S
C746 H732 0.929 . S
C746 C745 1.399 . S
C746 C747 1.385 . S
C747 H733 0.931 . S
C747 C746 1.385 . S
C747 C748 1.389 . S
C748 C747 1.389 . S
C748 C749 1.387 . S
C749 H734 0.930 . S
C749 C744 1.390 . S
C749 C748 1.387 . S
H750 C762 0.930 . S
H751 C764 0.930 . S
H752 C765 0.930 . S
H753 C769 0.959 . S
H754 C769 0.959 . S
H755 C769 0.961 . S
H756 C770 0.960 . S
H757 C770 0.961 . S
H758 C770 0.959 . S
H759 C773 0.929 . S
H760 C774 0.931 . S
H761 C776 0.930 . S
C762 H750 0.930 . S
C762 C763 1.399 . S
C762 C767 1.399 . S
C763 C762 1.399 . S
C763 C764 1.376 . S
C764 H751 0.930 . S
C764 C763 1.376 . S
C764 C765 1.388 . S
C765 H752 0.930 . S
C765 C764 1.388 . S
C765 C766 1.390 . S
C766 C765 1.390 . S
C766 C767 1.394 . S
C766 C772 1.465 . S
C767 C762 1.399 . S
C767 C766 1.394 . S
C767 C768 1.516 . S
C768 C767 1.516 . S
C768 C769 1.502 . S
C768 C770 1.561 . S
C768 C771 1.526 . S
C769 H753 0.959 . S
C769 H754 0.959 . S
C769 H755 0.961 . S
C769 C768 1.502 . S
C770 H756 0.960 . S
C770 H757 0.961 . S
C770 H758 0.959 . S
C770 C768 1.561 . S
C771 C768 1.526 . S
C771 C772 1.396 . S
C771 C776 1.390 . S
C772 C766 1.465 . S
C772 C771 1.396 . S
C772 C773 1.399 . S
C773 H759 0.929 . S
C773 C772 1.399 . S
C773 C774 1.385 . S
C774 H760 0.931 . S
C774 C773 1.385 . S
C774 C775 1.389 . S
C775 C774 1.389 . S
C775 C776 1.387 . S
C776 H761 0.930 . S
C776 C771 1.390 . S
C776 C775 1.387 . S
H777 C789 0.930 . S
H778 C791 0.930 . S
H779 C792 0.930 . S
H780 C796 0.959 . S
H781 C796 0.959 . S
H782 C796 0.961 . S
H783 C797 0.960 . S
H784 C797 0.961 . S
H785 C797 0.959 . S
H786 C800 0.929 . S
H787 C801 0.931 . S
H788 C803 0.930 . S
C789 H777 0.930 . S
C789 C790 1.399 . S
C789 C794 1.399 . S
C790 C789 1.399 . S
C790 C791 1.376 . S
C791 H778 0.930 . S
C791 C790 1.376 . S
C791 C792 1.388 . S
C792 H779 0.930 . S
C792 C791 1.388 . S
C792 C793 1.390 . S
C793 C792 1.390 . S
C793 C794 1.394 . S
C793 C799 1.465 . S
C794 C789 1.399 . S
C794 C793 1.394 . S
C794 C795 1.516 . S
C795 C794 1.516 . S
C795 C796 1.502 . S
C795 C797 1.561 . S
C795 C798 1.526 . S
C796 H780 0.959 . S
C796 H781 0.959 . S
C796 H782 0.961 . S
C796 C795 1.502 . S
C797 H783 0.960 . S
C797 H784 0.961 . S
C797 H785 0.959 . S
C797 C795 1.561 . S
C798 C795 1.526 . S
C798 C799 1.396 . S
C798 C803 1.390 . S
C799 C793 1.465 . S
C799 C798 1.396 . S
C799 C800 1.399 . S
C800 H786 0.929 . S
C800 C799 1.399 . S
C800 C801 1.385 . S
C801 H787 0.931 . S
C801 C800 1.385 . S
C801 C802 1.389 . S
C802 C801 1.389 . S
C802 C803 1.387 . S
C803 H788 0.930 . S
C803 C798 1.390 . S
C803 C802 1.387 . S
H804 C816 0.930 . S
H805 C818 0.930 . S
H806 C819 0.930 . S
H807 C823 0.959 . S
H808 C823 0.959 . S
H809 C823 0.961 . S
H810 C824 0.960 . S
H811 C824 0.961 . S
H812 C824 0.959 . S
H813 C827 0.929 . S
H814 C828 0.931 . S
H815 C830 0.930 . S
C816 H804 0.930 . S
C816 C817 1.399 . S
C816 C821 1.399 . S
C817 C816 1.399 . S
C817 C818 1.376 . S
C818 H805 0.930 . S
C818 C817 1.376 . S
C818 C819 1.388 . S
C819 H806 0.930 . S
C819 C818 1.388 . S
C819 C820 1.390 . S
C820 C819 1.390 . S
C820 C821 1.394 . S
C820 C826 1.465 . S
C821 C816 1.399 . S
C821 C820 1.394 . S
C821 C822 1.516 . S
C822 C821 1.516 . S
C822 C823 1.502 . S
C822 C824 1.561 1_455 S
C822 C825 1.526 . S
C823 H807 0.959 . S
C823 H808 0.959 . S
C823 H809 0.961 . S
C823 C822 1.502 . S
C824 H810 0.960 . S
C824 H811 0.961 . S
C824 H812 0.959 . S
C824 C822 1.561 1_655 S
C825 C822 1.526 . S
C825 C826 1.396 . S
C825 C830 1.390 . S
C826 C820 1.465 . S
C826 C825 1.396 . S
C826 C827 1.399 . S
C827 H813 0.929 . S
C827 C826 1.399 . S
C827 C828 1.385 . S
C828 H814 0.931 . S
C828 C827 1.385 . S
C828 C829 1.389 . S
C829 C828 1.389 . S
C829 C830 1.387 . S
C830 H815 0.930 . S
C830 C825 1.390 . S
C830 C829 1.387 . S
H831 C843 0.930 . S
H832 C845 0.930 1_565 S
H833 C846 0.930 . S
H834 C850 0.959 . S
H835 C850 0.959 . S
H836 C850 0.961 . S
H837 C851 0.960 . S
H838 C851 0.961 . S
H839 C851 0.959 . S
H840 C854 0.929 . S
H841 C855 0.931 1_565 S
H842 C857 0.930 . S
C843 H831 0.930 . S
C843 C844 1.399 . S
C843 C848 1.399 . S
C844 C843 1.399 . S
C844 C845 1.376 . S
C845 H832 0.930 1_545 S
C845 C844 1.376 . S
C845 C846 1.388 1_545 S
C846 H833 0.930 . S
C846 C845 1.388 1_565 S
C846 C847 1.390 1_565 S
C847 C846 1.390 1_545 S
C847 C848 1.394 . S
C847 C853 1.465 . S
C848 C843 1.399 . S
C848 C847 1.394 . S
C848 C849 1.516 . S
C849 C848 1.516 . S
C849 C850 1.502 . S
C849 C851 1.561 . S
C849 C852 1.526 . S
C850 H834 0.959 . S
C850 H835 0.959 . S
C850 H836 0.961 . S
C850 C849 1.502 . S
C851 H837 0.960 . S
C851 H838 0.961 . S
C851 H839 0.959 . S
C851 C849 1.561 . S
C852 C849 1.526 . S
C852 C853 1.396 . S
C852 C857 1.390 . S
C853 C847 1.465 . S
C853 C852 1.396 . S
C853 C854 1.399 1_545 S
C854 H840 0.929 . S
C854 C853 1.399 1_565 S
C854 C855 1.385 1_565 S
C855 H841 0.931 1_545 S
C855 C854 1.385 1_545 S
C855 C856 1.389 . S
C856 C855 1.389 . S
C856 C857 1.387 . S
C857 H842 0.930 . S
C857 C852 1.390 . S
C857 C856 1.387 . S
H858 C870 0.930 . S
H859 C872 0.930 . S
H860 C873 0.930 . S
H861 C877 0.959 . S
H862 C877 0.959 . S
H863 C877 0.961 . S
H864 C878 0.960 . S
H865 C878 0.961 . S
H866 C878 0.959 . S
H867 C881 0.929 . S
H868 C882 0.931 . S
H869 C884 0.930 . S
C870 H858 0.930 . S
C870 C871 1.399 . S
C870 C875 1.399 . S
C871 C870 1.399 . S
C871 C872 1.376 . S
C872 H859 0.930 . S
C872 C871 1.376 . S
C872 C873 1.388 . S
C873 H860 0.930 . S
C873 C872 1.388 . S
C873 C874 1.390 . S
C874 C873 1.390 . S
C874 C875 1.394 . S
C874 C880 1.465 . S
C875 C870 1.399 . S
C875 C874 1.394 . S
C875 C876 1.516 . S
C876 C875 1.516 . S
C876 C877 1.502 . S
C876 C878 1.561 . S
C876 C879 1.526 . S
C877 H861 0.959 . S
C877 H862 0.959 . S
C877 H863 0.961 . S
C877 C876 1.502 . S
C878 H864 0.960 . S
C878 H865 0.961 . S
C878 H866 0.959 . S
C878 C876 1.561 . S
C879 C876 1.526 . S
C879 C880 1.396 . S
C879 C884 1.390 . S
C880 C874 1.465 . S
C880 C879 1.396 . S
C880 C881 1.399 . S
C881 H867 0.929 . S
C881 C880 1.399 . S
C881 C882 1.385 . S
C882 H868 0.931 . S
C882 C881 1.385 . S
C882 C883 1.389 . S
C883 C882 1.389 . S
C883 C884 1.387 . S
C884 H869 0.930 . S
C884 C879 1.390 . S
C884 C883 1.387 . S
H885 C897 0.930 . S
H886 C899 0.930 . S
H887 C900 0.930 . S
H888 C904 0.959 . S
H889 C904 0.959 . S
H890 C904 0.961 . S
H891 C905 0.960 . S
H892 C905 0.961 . S
H893 C905 0.959 . S
H894 C908 0.929 . S
H895 C909 0.931 . S
H896 C911 0.930 . S
C897 H885 0.930 . S
C897 C898 1.399 1_565 S
C897 C902 1.399 . S
C898 C897 1.399 1_545 S
C898 C899 1.376 . S
C899 H886 0.930 . S
C899 C898 1.376 . S
C899 C900 1.388 . S
C900 H887 0.930 . S
C900 C899 1.388 . S
C900 C901 1.390 . S
C901 C900 1.390 . S
C901 C902 1.394 1_545 S
C901 C907 1.465 . S
C902 C897 1.399 . S
C902 C901 1.394 1_565 S
C902 C903 1.516 . S
C903 C902 1.516 . S
C903 C904 1.502 . S
C903 C905 1.561 . S
C903 C906 1.526 . S
C904 H888 0.959 . S
C904 H889 0.959 . S
C904 H890 0.961 . S
C904 C903 1.502 . S
C905 H891 0.960 . S
C905 H892 0.961 . S
C905 H893 0.959 . S
C905 C903 1.561 . S
C906 C903 1.526 . S
C906 C907 1.396 1_565 S
C906 C911 1.390 . S
C907 C901 1.465 . S
C907 C906 1.396 1_545 S
C907 C908 1.399 . S
C908 H894 0.929 . S
C908 C907 1.399 . S
C908 C909 1.385 . S
C909 H895 0.931 . S
C909 C908 1.385 . S
C909 C910 1.389 1_545 S
C910 C909 1.389 1_565 S
C910 C911 1.387 . S
C911 H896 0.930 . S
C911 C906 1.390 . S
C911 C910 1.387 . S
H912 C924 0.930 . S
H913 C926 0.930 . S
H914 C927 0.930 . S
H915 C931 0.959 . S
H916 C931 0.959 . S
H917 C931 0.961 . S
H918 C932 0.960 . S
H919 C932 0.961 . S
H920 C932 0.959 . S
H921 C935 0.929 . S
H922 C936 0.909 1_554 S
H923 C938 0.930 . S
C924 H912 0.930 . S
C924 C925 1.399 . S
C924 C929 1.399 . S
C925 C924 1.399 . S
C925 C926 1.376 . S
C926 H913 0.930 . S
C926 C925 1.376 . S
C926 C927 1.388 . S
C927 H914 0.930 . S
C927 C926 1.388 . S
C927 C928 1.390 . S
C928 C927 1.390 . S
C928 C929 1.394 . S
C928 C934 1.465 . S
C929 C924 1.399 . S
C929 C928 1.394 . S
C929 C930 1.516 . S
C930 C929 1.516 . S
C930 C931 1.502 . S
C930 C932 1.561 . S
C930 C933 1.526 . S
C931 H915 0.959 . S
C931 H916 0.959 . S
C931 H917 0.961 . S
C931 C930 1.502 . S
C932 H918 0.960 . S
C932 H919 0.961 . S
C932 H920 0.959 . S
C932 C930 1.561 . S
C933 C930 1.526 . S
C933 C934 1.396 . S
C933 C938 1.390 . S
C934 C928 1.465 . S
C934 C933 1.396 . S
C934 C935 1.399 . S
C935 H921 0.929 . S
C935 C934 1.399 . S
C935 C936 1.385 . S
C936 H922 0.909 1_556 S
C936 C935 1.385 . S
C936 C937 1.389 . S
C937 C936 1.389 . S
C937 C938 1.387 . S
C938 H923 0.930 . S
C938 C933 1.390 . S
C938 C937 1.387 . S
H939 C951 0.930 1_655 S
H940 C953 0.930 . S
H941 C954 0.930 . S
H942 C958 0.959 . S
H943 C958 0.959 . S
H944 C958 0.961 . S
H945 C959 0.960 . S
H946 C959 0.961 . S
H947 C959 0.959 1_455 S
H948 C962 0.929 . S
H949 C963 0.931 . S
H950 C965 0.930 . S
C951 H939 0.930 1_455 S
C951 C952 1.399 . S
C951 C956 1.399 . S
C952 C951 1.399 . S
C952 C953 1.376 . S
C953 H940 0.930 . S
C953 C952 1.376 . S
C953 C954 1.388 . S
C954 H941 0.930 . S
C954 C953 1.388 . S
C954 C955 1.390 . S
C955 C954 1.390 . S
C955 C956 1.394 . S
C955 C961 1.465 . S
C956 C951 1.399 . S
C956 C955 1.394 . S
C956 C957 1.516 1_455 S
C957 C956 1.516 1_655 S
C957 C958 1.502 . S
C957 C959 1.561 . S
C957 C960 1.526 . S
C958 H942 0.959 . S
C958 H943 0.959 . S
C958 H944 0.961 . S
C958 C957 1.502 . S
C959 H945 0.960 . S
C959 H946 0.961 . S
C959 H947 0.959 1_655 S
C959 C957 1.561 . S
C960 C957 1.526 . S
C960 C961 1.396 1_655 S
C960 C965 1.390 . S
C961 C955 1.465 . S
C961 C960 1.396 1_455 S
C961 C962 1.399 . S
C962 H948 0.929 . S
C962 C961 1.399 . S
C962 C963 1.385 . S
C963 H949 0.931 . S
C963 C962 1.385 . S
C963 C964 1.389 . S
C964 C963 1.389 . S
C964 C965 1.387 1_455 S
C965 H950 0.930 . S
C965 C960 1.390 . S
C965 C964 1.387 1_655 S
C493 C25 0.391 . S
C505 C451 0.403 . S
C520 C65 0.424 . S
C532 C301 0.433 . S
C547 C105 0.536 . S
C559 C361 0.466 . S
C574 C4 0.524 . S
C586 C421 0.332 . S
C613 C331 0.381 . S
C601 C44 0.342 . S
C640 C391 0.392 . S
C628 C84 0.539 . S
C655 C60 2.910 . S
C667 C181 2.732 . S
C682 C100 3.086 . S
C694 C271 3.086 . S
C709 C31 3.100 . S
C721 C151 3.084 . S
C748 C211 3.093 . S
C736 C71 3.104 . S
C775 C241 2.761 . S
C763 C111 2.911 . S
C790 C20 2.911 . S
C802 C121 2.743 . S
C829 C260 1.764 1_554 S
C817 C2 1.706 . S
C844 C42 1.751 . S
C856 C140 1.752 . S
C871 C82 1.755 . S
C883 C200 1.772 . S
C910 C380 1.028 . S
C898 C63 1.023 . S
C937 C440 1.108 1_556 S
C925 C103 1.096 . S
C952 C23 1.027 . S
C964 C320 0.995 . S
