# Generated by pormake.
# Topology anh, (6,3)-cn, num edge types: 1
# Building blocks:
#     Node 0, Type 0, BuildingBlock: PAMTUU_clean_sbu_0, # of connection points: 6
#     Node 1, Type 0, BuildingBlock: PAMTUU_clean_sbu_0, # of connection points: 6
#     Node 2, Type 0, BuildingBlock: PAMTUU_clean_sbu_0, # of connection points: 6
#     Node 3, Type 1, BuildingBlock: BETDIP_clean_linker_0, # of connection points: 3
#     Node 4, Type 1, BuildingBlock: BETDIP_clean_linker_0, # of connection points: 3
#     Node 5, Type 1, BuildingBlock: BETDIP_clean_linker_0, # of connection points: 3
#     Node 6, Type 1, BuildingBlock: BETDIP_clean_linker_0, # of connection points: 3
#     Node 7, Type 1, BuildingBlock: BETDIP_clean_linker_0, # of connection points: 3
#     Node 8, Type 1, BuildingBlock: BETDIP_clean_linker_0, # of connection points: 3
#     Edge 9, Type (0, 1), BuildingBlock: UVAHIK_clean_linker_0, # of connection points: 2
#     Edge 10, Type (0, 1), BuildingBlock: UVAHIK_clean_linker_0, # of connection points: 2
#     Edge 11, Type (0, 1), BuildingBlock: UVAHIK_clean_linker_0, # of connection points: 2
#     Edge 12, Type (0, 1), BuildingBlock: UVAHIK_clean_linker_0, # of connection points: 2
#     Edge 13, Type (0, 1), BuildingBlock: UVAHIK_clean_linker_0, # of connection points: 2
#     Edge 14, Type (0, 1), BuildingBlock: UVAHIK_clean_linker_0, # of connection points: 2
#     Edge 15, Type (0, 1), BuildingBlock: UVAHIK_clean_linker_0, # of connection points: 2
#     Edge 16, Type (0, 1), BuildingBlock: UVAHIK_clean_linker_0, # of connection points: 2
#     Edge 17, Type (0, 1), BuildingBlock: UVAHIK_clean_linker_0, # of connection points: 2
#     Edge 18, Type (0, 1), BuildingBlock: UVAHIK_clean_linker_0, # of connection points: 2
#     Edge 19, Type (0, 1), BuildingBlock: UVAHIK_clean_linker_0, # of connection points: 2
#     Edge 20, Type (0, 1), BuildingBlock: UVAHIK_clean_linker_0, # of connection points: 2
#     Edge 21, Type (0, 1), BuildingBlock: UVAHIK_clean_linker_0, # of connection points: 2
#     Edge 22, Type (0, 1), BuildingBlock: UVAHIK_clean_linker_0, # of connection points: 2
#     Edge 23, Type (0, 1), BuildingBlock: UVAHIK_clean_linker_0, # of connection points: 2
#     Edge 24, Type (0, 1), BuildingBlock: UVAHIK_clean_linker_0, # of connection points: 2
#     Edge 25, Type (0, 1), BuildingBlock: UVAHIK_clean_linker_0, # of connection points: 2
#     Edge 26, Type (0, 1), BuildingBlock: UVAHIK_clean_linker_0, # of connection points: 2
# Relax obj value: 0.181
# Max RMSD: 0.167
# Mean RMSD: 0.113
data_MOF--net-anh--node1-PAMTUU_clean_sbu_0--node2-BETDIP_clean_linker_0--edge1-UVAHIK_clean_linker_0
_symmetry_space_group_name_H-M    P1
_symmetry_Int_Tables_number       1
_symmetry_cell_setting            triclinic
loop_
_symmetry_equiv_pos_as_xyz
'x, y, z'
_cell_length_a     40.873284
_cell_length_b     41.15412
_cell_length_c     64.964907
_cell_angle_alpha  96.194021
_cell_angle_beta   91.348528
_cell_angle_gamma 119.77203
loop_
_atom_site_label
_atom_site_type_symbol
_atom_site_fract_x
_atom_site_fract_y
_atom_site_fract_z
_atom_type_partial_charge
Tb0 Tb 0.07653 0.63014 0.15191 0.0
Tb1 Tb 0.121 0.58521 0.15476 0.0
C2 C 0.09769 0.59876 0.11231 0.0
C3 C 0.99801 0.64949 0.15099 0.0
C4 C 0.91871 0.61373 0.15107 0.0
C5 C 0.93759 0.63853 0.13657 0.0
C6 C 0.97687 0.6563 0.1366 0.0
C7 C 0.97969 0.62647 0.16622 0.0
C8 C 0.9404 0.60904 0.16639 0.0
C9 C 1.03754 0.66127 0.1477 0.0
O10 O 1.02907 0.56941 0.14982 0.0
O11 O 0.06176 0.54031 0.15877 0.0
O12 O 0.12651 0.61273 0.18616 0.0
O13 O 0.07312 0.61701 0.18334 0.0
O14 O 0.15661 0.56826 0.14063 0.0
O15 O 0.13454 0.55012 0.1698 0.0
O16 O 0.16819 0.64498 0.15391 0.0
O17 O 0.13653 0.67785 0.15922 0.0
O18 O 0.10033 0.62922 0.12245 0.0
O19 O 0.09596 0.57254 0.12273 0.0
C20 C 1.02888 0.53875 0.15493 0.0
O21 O 0.06051 0.66909 0.16417 0.0
O22 O 1.04148 0.64004 0.13273 0.0
C23 C 0.09987 0.6169 0.1947 0.0
C24 C 0.19499 0.55796 0.1641 0.0
C25 C 0.26385 0.56129 0.17515 0.0
C26 C 0.23116 0.53898 0.18491 0.0
C27 C 0.19703 0.53718 0.17934 0.0
C28 C 0.22818 0.58225 0.15534 0.0
C29 C 0.26225 0.58386 0.16081 0.0
C30 C 0.15763 0.55093 0.1561 0.0
C31 C 0.169 0.67793 0.15749 0.0
H32 H 0.92197 0.64246 0.12434 0.0
H33 H 0.99052 0.67357 0.12456 0.0
H34 H 0.99548 0.62051 0.17736 0.0
H35 H 0.92693 0.59072 0.17801 0.0
H36 H 0.23158 0.5217 0.19625 0.0
H37 H 0.17185 0.5183 0.18635 0.0
H38 H 0.22758 0.59873 0.14357 0.0
H39 H 0.28673 0.60105 0.15281 0.0
Tb40 Tb 0.55333 0.06179 0.48249 0.0
Tb41 Tb 0.64328 0.10697 0.48857 0.0
C42 C 0.60048 0.08315 0.44428 0.0
C43 C 0.45607 0.98797 0.4864 0.0
C44 C 0.40581 0.91965 0.50068 0.0
C45 C 0.39207 0.9396 0.49052 0.0
C46 C 0.41706 0.97352 0.48342 0.0
C47 C 0.47003 0.96855 0.49679 0.0
C48 C 0.44507 0.93453 0.50382 0.0
C49 C 0.48226 1.0234 0.47885 0.0
O50 O 0.56749 1.015 0.48072 0.0
O51 O 0.63099 0.0481 0.49144 0.0
O52 O 0.62423 0.11227 0.51918 0.0
O53 O 0.56839 0.05707 0.5135 0.0
O54 O 0.69418 0.14122 0.47603 0.0
O55 O 0.69436 0.12541 0.50661 0.0
O56 O 0.62993 0.15349 0.48678 0.0
O57 O 0.56624 0.12195 0.49022 0.0
O58 O 0.5718 0.0825 0.45314 0.0
O59 O 0.6277 0.08349 0.4556 0.0
C60 C 0.59907 1.01512 0.48663 0.0
O61 O 0.50175 0.05201 0.49334 0.0
O62 O 0.50335 1.02079 0.46472 0.0
C63 C 0.59539 0.08446 0.52628 0.0
C64 C 0.73614 0.18871 0.50181 0.0
C65 C 0.7662 0.26726 0.50998 0.0
C66 C 0.78115 0.25197 0.49516 0.0
C67 C 0.76629 0.21295 0.49115 0.0
C68 C 0.72275 0.20415 0.51756 0.0
C69 C 0.73791 0.24321 0.52172 0.0
C70 C 0.71404 0.14833 0.4936 0.0
C71 C 0.59818 0.15435 0.48943 0.0
H72 H 0.36194 0.9285 0.48755 0.0
H73 H 0.40592 0.98827 0.47546 0.0
H74 H 0.50021 0.97961 0.49938 0.0
H75 H 0.45644 0.9199 0.51168 0.0
H76 H 0.80318 0.27011 0.48602 0.0
H77 H 0.77664 0.20159 0.47879 0.0
H78 H 0.69898 0.186 0.52574 0.0
H79 H 0.72576 0.25436 0.53309 0.0
Tb80 Tb 0.59135 0.53003 0.81403 0.0
Tb81 Tb 0.63735 0.62036 0.82419 0.0
C82 C 0.61403 0.57926 0.77805 0.0
C83 C 0.5638 0.43011 0.81566 0.0
C84 C 0.57585 0.37386 0.82935 0.0
C85 C 0.57667 0.37865 0.80823 0.0
C86 C 0.57057 0.40641 0.80145 0.0
C87 C 0.56353 0.42572 0.83687 0.0
C88 C 0.5694 0.39778 0.84362 0.0
C89 C 0.55691 0.45895 0.80813 0.0
O90 O 0.65174 0.54334 0.81372 0.0
O91 O 0.68336 0.60622 0.82728 0.0
O92 O 0.61339 0.59856 0.85272 0.0
O93 O 0.61487 0.54423 0.84588 0.0
O94 O 0.65361 0.67314 0.81496 0.0
O95 O 0.67458 0.66904 0.84482 0.0
O96 O 0.57741 0.60799 0.82063 0.0
O97 O 0.5455 0.54373 0.82068 0.0
O98 O 0.58702 0.54971 0.78501 0.0
O99 O 0.6411 0.60694 0.791 0.0
C100 C 0.68389 0.57464 0.82113 0.0
O101 O 0.54875 0.47873 0.82193 0.0
O102 O 0.58059 0.47992 0.79559 0.0
C103 C 0.61277 0.56916 0.8591 0.0
C104 C 0.663 0.71915 0.84257 0.0
C105 C 0.64258 0.77349 0.85585 0.0
C106 C 0.68032 0.7846 0.85228 0.0
C107 C 0.69039 0.75759 0.84561 0.0
C108 C 0.62588 0.70772 0.84736 0.0
C109 C 0.61572 0.73467 0.85392 0.0
C110 C 0.6725 0.69147 0.83281 0.0
C111 C 0.54512 0.57596 0.8213 0.0
H112 H 0.5809 0.36016 0.79681 0.0
H113 H 0.57075 0.40912 0.78504 0.0
H114 H 0.55847 0.44359 0.84825 0.0
H115 H 0.56872 0.39477 0.85999 0.0
H116 H 0.70176 0.81424 0.8539 0.0
H117 H 0.71924 0.76679 0.84208 0.0
H118 H 0.60441 0.67806 0.84514 0.0
H119 H 0.58633 0.72508 0.85626 0.0
H120 H 0.56742 0.07742 0.16049 0.0
H121 H 0.63846 0.13657 0.21804 0.0
H122 H 0.53287 0.03428 0.21878 0.0
H123 H 0.65666 0.1895 0.20259 0.0
C124 C 0.66384 0.18174 0.18758 0.0
C125 C 0.5727 0.07974 0.17713 0.0
C126 C 0.54455 0.05055 0.18831 0.0
C127 C 0.60724 0.11264 0.18782 0.0
C128 C 0.61269 0.11393 0.20954 0.0
C129 C 0.58638 0.08571 0.22057 0.0
C130 C 0.55305 0.05515 0.20991 0.0
N131 N 0.6366 0.14317 0.17727 0.0
H132 H 0.6015 0.55478 0.49249 0.0
H133 H 0.60221 0.61811 0.55062 0.0
H134 H 0.60286 0.51443 0.5511 0.0
H135 H 0.57073 0.63805 0.53122 0.0
C136 C 0.58782 0.64713 0.51821 0.0
C137 C 0.6013 0.55786 0.50923 0.0
C138 C 0.60209 0.52916 0.52045 0.0
C139 C 0.6007 0.59088 0.51993 0.0
C140 C 0.60152 0.59386 0.54186 0.0
C141 C 0.60181 0.56634 0.55297 0.0
C142 C 0.60205 0.53487 0.54219 0.0
N143 N 0.60087 0.62132 0.50939 0.0
H144 H 0.08191 0.57522 0.82675 0.0
H145 H 0.13771 0.57228 0.88351 0.0
H146 H 1.03538 0.57665 0.88577 0.0
H147 H 0.19129 0.60741 0.86782 0.0
C148 C 0.18492 0.5892 0.85314 0.0
C149 C 0.08321 0.57494 0.84338 0.0
C150 C 0.05346 0.57598 0.85495 0.0
C151 C 0.11541 0.57494 0.8537 0.0
C152 C 0.11552 0.5743 0.87538 0.0
C153 C 0.08697 0.57484 0.88688 0.0
C154 C 0.05679 0.57574 0.87659 0.0
N155 N 0.1468 0.57467 0.84291 0.0
H156 H 1.03334 0.63326 0.47187 0.0
H157 H 0.98708 0.60963 0.40838 0.0
H158 H 0.10266 0.63848 0.42237 0.0
H159 H 0.98656 0.64859 0.47745 0.0
C160 C 0.9641 0.62418 0.46757 0.0
C161 C 1.03664 0.63092 0.45539 0.0
C162 C 0.07127 0.63645 0.44882 0.0
C163 C 1.0064 0.62185 0.44077 0.0
C164 C 1.01082 0.61751 0.41953 0.0
C165 C 1.04538 0.62306 0.41265 0.0
C166 C 0.0754 0.63252 0.42746 0.0
N167 N 0.97062 0.61482 0.44697 0.0
H168 H 0.48152 0.98528 0.78847 0.0
H169 H 0.48471 0.95416 0.72366 0.0
H170 H 0.55795 0.06861 0.75215 0.0
H171 H 0.40595 0.89434 0.77559 0.0
C172 C 0.43631 0.91138 0.77488 0.0
C173 C 0.49367 0.99287 0.77392 0.0
C174 C 0.5219 0.03035 0.77275 0.0
C175 C 0.48025 0.96537 0.75621 0.0
C176 C 0.49571 0.97529 0.73735 0.0
C177 C 0.52415 1.01243 0.73588 0.0
C178 C 0.53694 0.03972 0.75358 0.0
N179 N 0.44945 0.9282 0.75657 0.0
H180 H 0.48149 0.39273 0.10691 0.0
H181 H 0.53251 0.39514 0.04988 0.0
H182 H 0.51141 0.48509 0.07178 0.0
H183 H 0.52854 0.32106 0.07099 0.0
C184 C 0.53393 0.34832 0.07852 0.0
C185 C 0.49315 0.40679 0.09351 0.0
C186 C 0.49625 0.44188 0.09161 0.0
C187 C 0.50644 0.39023 0.07859 0.0
C188 C 0.5223 0.40832 0.06133 0.0
C189 C 0.52396 0.44253 0.05853 0.0
C190 C 0.51124 0.45927 0.07394 0.0
N191 N 0.50313 0.35484 0.08086 0.0
C192 C 0.29328 0.52104 0.17763 0.0
C193 C 0.29778 0.55719 0.17764 0.0
C194 C 0.32417 0.51557 0.17591 0.0
C195 C 0.41252 0.55632 0.15157 0.0
H196 H 0.41868 0.47383 0.17146 0.0
C197 C 0.50299 0.49923 0.11369 0.0
C198 C 0.48274 0.45987 0.10764 0.0
C199 C 0.48891 0.51644 0.1277 0.0
C200 C 0.41747 0.49712 0.16588 0.0
H201 H 0.33891 0.6165 0.17775 0.0
H202 H 0.39309 0.60686 0.17463 0.0
H203 H 0.37912 0.49625 0.18798 0.0
H204 H 0.4323 0.40767 0.11202 0.0
H205 H 0.40786 0.43762 0.13646 0.0
H206 H 0.44946 0.55611 0.12889 0.0
C207 C 0.36543 0.58269 0.17565 0.0
C208 C 0.39488 0.50996 0.17533 0.0
C209 C 0.33442 0.58819 0.1774 0.0
C210 C 0.44885 0.43797 0.11652 0.0
C211 C 0.43488 0.45515 0.13059 0.0
C212 C 0.43522 0.54359 0.14219 0.0
C213 C 0.36037 0.5461 0.17411 0.0
C214 C 0.3909 0.53864 0.16769 0.0
C215 C 0.4544 0.49462 0.13604 0.0
C216 C 0.4367 0.51285 0.1487 0.0
H217 H 0.26546 0.49641 0.17748 0.0
H218 H 0.31907 0.48693 0.17447 0.0
H219 H 0.40983 0.57817 0.14513 0.0
H220 H 0.52958 0.5168 0.10742 0.0
H221 H 0.50472 0.54688 0.13177 0.0
C222 C 0.78838 0.33089 0.53065 0.0
C223 C 0.77703 0.30746 0.51143 0.0
C224 C 0.79935 0.36914 0.53153 0.0
C225 C 0.79567 0.4384 0.50089 0.0
H226 H 0.89839 0.50635 0.52521 0.0
C227 C 0.90152 0.56468 0.46481 0.0
C228 C 0.93142 0.59602 0.47717 0.0
C229 C 0.87417 0.53476 0.47398 0.0
C230 C 0.86928 0.48817 0.51884 0.0
H231 H 0.76599 0.30463 0.47832 0.0
H232 H 0.78513 0.3711 0.47979 0.0
H233 H 0.86499 0.44153 0.53274 0.0
H234 H 0.95471 0.62234 0.50873 0.0
H235 H 0.90676 0.5697 0.52487 0.0
H236 H 0.80078 0.48444 0.486 0.0
C237 C 0.78566 0.36023 0.49418 0.0
C238 C 0.85016 0.45094 0.52315 0.0
C239 C 0.77529 0.32234 0.49328 0.0
C240 C 0.93196 0.59828 0.4989 0.0
C241 C 0.90467 0.56817 0.5081 0.0
C242 C 0.81473 0.47564 0.49663 0.0
C243 C 0.79831 0.38417 0.51324 0.0
C244 C 0.81396 0.42524 0.51333 0.0
C245 C 0.87625 0.53553 0.49568 0.0
C246 C 0.85246 0.5003 0.50469 0.0
H247 H 0.78964 0.31984 0.54486 0.0
H248 H 0.80905 0.38706 0.54641 0.0
H249 H 0.76745 0.41926 0.49344 0.0
H250 H 0.9002 0.56235 0.44801 0.0
H251 H 0.85294 0.50992 0.46392 0.0
C252 C 0.64339 0.83112 0.84639 0.0
C253 C 0.63006 0.80181 0.85876 0.0
C254 C 0.6265 0.85328 0.84577 0.0
C255 C 0.53297 0.84163 0.85027 0.0
H256 H 0.58215 0.94216 0.8341 0.0
C257 C 0.44771 0.8971 0.80975 0.0
C258 C 0.46168 0.90981 0.79092 0.0
C259 C 0.47004 0.89241 0.82445 0.0
C260 C 0.56802 0.91419 0.83878 0.0
H261 H 0.59101 0.77524 0.88173 0.0
H262 H 0.56136 0.81409 0.88063 0.0
H263 H 0.6202 0.9195 0.85028 0.0
H264 H 0.51013 0.92746 0.77269 0.0
H265 H 0.54903 0.91984 0.7983 0.0
H266 H 0.48105 0.83563 0.8379 0.0
C267 C 0.58448 0.81941 0.87113 0.0
C268 C 0.58977 0.90121 0.84801 0.0
C269 C 0.60142 0.79715 0.87175 0.0
C270 C 0.49874 0.91862 0.78724 0.0
C271 C 0.52114 0.91426 0.80197 0.0
C272 C 0.51124 0.8547 0.84115 0.0
C273 C 0.59584 0.8467 0.8575 0.0
C274 C 0.57265 0.86411 0.85295 0.0
C275 C 0.50682 0.90046 0.82056 0.0
C276 C 0.52873 0.89044 0.83445 0.0
H277 H 0.66504 0.83524 0.83598 0.0
H278 H 0.63569 0.87363 0.83486 0.0
H279 H 0.51881 0.81279 0.85366 0.0
H280 H 0.41918 0.89002 0.81292 0.0
H281 H 0.45829 0.88173 0.83865 0.0
C282 C 0.85917 0.55172 0.15187 0.0
C283 C 0.87673 0.58988 0.14865 0.0
C284 C 0.8204 0.52769 0.14675 0.0
C285 C 0.7467 0.51318 0.1093 0.0
H286 H 0.67738 0.44255 0.14387 0.0
C287 C 0.60399 0.38042 0.07754 0.0
C288 C 0.57256 0.37696 0.08746 0.0
C289 C 0.64056 0.40788 0.08583 0.0
C290 C 0.69648 0.46224 0.13412 0.0
H291 H 0.86649 0.6331 0.13884 0.0
H292 H 0.79891 0.59057 0.12919 0.0
H293 H 0.74209 0.48936 0.15828 0.0
H294 H 0.55434 0.39784 0.1143 0.0
H295 H 0.6183 0.44543 0.12895 0.0
H296 H 0.70151 0.48537 0.08496 0.0
C297 C 0.81545 0.57951 0.13566 0.0
C298 C 0.73336 0.48885 0.14231 0.0
C299 C 0.85413 0.60374 0.1411 0.0
C300 C 0.57815 0.40054 0.1061 0.0
C301 C 0.61466 0.42749 0.11458 0.0
C302 C 0.71008 0.48614 0.10099 0.0
C303 C 0.79847 0.54115 0.13804 0.0
C304 C 0.75875 0.5145 0.12995 0.0
C305 C 0.64614 0.43156 0.10444 0.0
C306 C 0.68473 0.4604 0.11332 0.0
H307 H 0.8756 0.53974 0.15729 0.0
H308 H 0.80795 0.49811 0.14857 0.0
H309 H 0.76595 0.53243 0.09941 0.0
H310 H 0.60021 0.36229 0.06323 0.0
H311 H 0.66451 0.41035 0.07786 0.0
C312 C 0.38446 0.85141 0.50206 0.0
C313 C 0.37895 0.8824 0.50681 0.0
C314 C 0.35587 0.81498 0.50436 0.0
C315 C 0.25955 0.76007 0.52272 0.0
H316 H 0.23744 0.70102 0.46836 0.0
C317 C 0.11351 0.67919 0.48005 0.0
C318 C 0.10426 0.64938 0.46409 0.0
C319 C 0.14812 0.6963 0.49204 0.0
C320 C 0.24331 0.71622 0.48391 0.0
H321 H 0.34107 0.9002 0.51974 0.0
H322 H 0.29088 0.83678 0.52324 0.0
H323 H 0.30017 0.75427 0.47824 0.0
H324 H 0.122 0.61137 0.44962 0.0
H325 H 0.18256 0.64117 0.47071 0.0
H326 H 0.20163 0.72322 0.52772 0.0
C327 C 0.31722 0.84037 0.51788 0.0
C328 C 0.27953 0.74696 0.4896 0.0
C329 C 0.34575 0.87671 0.51558 0.0
C330 C 0.12882 0.63485 0.46156 0.0
C331 C 0.16341 0.65185 0.47365 0.0
C332 C 0.22325 0.72917 0.51704 0.0
C333 C 0.32129 0.80892 0.51144 0.0
C334 C 0.2874 0.77053 0.50856 0.0
C335 C 0.17418 0.68387 0.48838 0.0
C336 C 0.21419 0.70832 0.49706 0.0
H337 H 0.40981 0.85494 0.49531 0.0
H338 H 0.35997 0.79134 0.49949 0.0
H339 H 0.26506 0.77727 0.53763 0.0
H340 H 0.09525 0.69113 0.4823 0.0
H341 H 0.15556 0.72117 0.50303 0.0
C342 C 0.55274 0.31824 0.84879 0.0
C343 C 0.579 0.34218 0.83606 0.0
C344 C 0.55132 0.28462 0.85211 0.0
C345 C 0.53219 0.20515 0.83548 0.0
H346 H 0.61597 0.18634 0.83937 0.0
C347 C 0.50629 0.06008 0.80405 0.0
C348 C 0.53321 0.0606 0.79078 0.0
C349 C 0.51495 0.09161 0.81843 0.0
C350 C 0.59221 0.19105 0.83825 0.0
H351 H 0.62669 0.35169 0.81851 0.0
H352 H 0.62394 0.29273 0.82408 0.0
H353 H 0.62719 0.25042 0.84881 0.0
H354 H 0.59192 0.09319 0.78422 0.0
H355 H 0.60596 0.149 0.80785 0.0
H356 H 0.49766 0.1472 0.82323 0.0
C357 C 0.60452 0.29992 0.83155 0.0
C358 C 0.59866 0.2277 0.84379 0.0
C359 C 0.60579 0.33342 0.82812 0.0
C360 C 0.56997 0.09222 0.79359 0.0
C361 C 0.57831 0.12413 0.80756 0.0
C362 C 0.52584 0.16878 0.82965 0.0
C363 C 0.57627 0.27447 0.84285 0.0
C364 C 0.56889 0.23526 0.84175 0.0
C365 C 0.55033 0.12487 0.81948 0.0
C366 C 0.556 0.16144 0.83017 0.0
H367 H 0.5317 0.32424 0.85509 0.0
H368 H 0.52941 0.26558 0.86099 0.0
H369 H 0.50873 0.21014 0.83346 0.0
H370 H 0.47766 0.03638 0.80253 0.0
H371 H 0.49304 0.09059 0.82786 0.0
C372 C 0.56478 0.94116 0.48555 0.0
C373 C 0.59859 0.97698 0.48832 0.0
C374 C 0.5643 0.90644 0.4876 0.0
C375 C 0.62898 0.86153 0.49263 0.0
H376 H 0.53694 0.77579 0.50563 0.0
C377 C 0.61666 0.7084 0.49822 0.0
C378 C 0.59058 0.68387 0.51121 0.0
C379 C 0.61851 0.74342 0.49456 0.0
C380 C 0.56342 0.79907 0.50214 0.0
H381 H 0.65887 1.00151 0.49566 0.0
H382 H 0.65819 0.94246 0.49908 0.0
H383 H 0.53849 0.83463 0.50188 0.0
H384 H 0.5463 0.67989 0.53026 0.0
H385 H 0.54915 0.73813 0.52401 0.0
H386 H 0.65386 0.82564 0.4931 0.0
C387 C 0.63147 0.94072 0.49511 0.0
C388 C 0.56417 0.8337 0.49967 0.0
C389 C 0.63189 0.97546 0.4932 0.0
C390 C 0.56669 0.69665 0.51996 0.0
C391 C 0.56825 0.73094 0.51621 0.0
C392 C 0.62814 0.82665 0.49496 0.0
C393 C 0.59763 0.90475 0.49247 0.0
C394 C 0.59698 0.86648 0.49491 0.0
C395 C 0.59421 0.75596 0.50345 0.0
C396 C 0.59536 0.79407 0.49998 0.0
H397 H 0.53811 0.93976 0.48184 0.0
H398 H 0.5372 0.88059 0.48504 0.0
H399 H 0.65518 0.88472 0.48878 0.0
H400 H 0.63627 0.70108 0.49116 0.0
H401 H 0.63917 0.76066 0.48455 0.0
C402 C 0.75727 0.60812 0.8287 0.0
C403 C 0.72203 0.5745 0.82298 0.0
C404 C 0.79238 0.60838 0.83069 0.0
C405 C 0.83828 0.54395 0.82265 0.0
H406 H 0.92689 0.63436 0.8494 0.0
C407 C 0.98982 0.55149 0.83147 0.0
C408 C 1.01889 0.57884 0.84653 0.0
C409 C 0.95469 0.55098 0.82749 0.0
C410 C 0.9029 0.60824 0.84203 0.0
H411 H 0.69852 0.51418 0.81506 0.0
H412 H 0.75817 0.51423 0.81885 0.0
H413 H 0.86738 0.63278 0.84589 0.0
H414 H 1.03136 0.6274 0.86884 0.0
H415 H 0.97245 0.62656 0.86238 0.0
H416 H 0.87407 0.51918 0.81944 0.0
C417 C 0.75941 0.5412 0.82155 0.0
C418 C 0.86762 0.6075 0.83965 0.0
C419 C 0.72427 0.54103 0.81939 0.0
C420 C 1.01081 0.60593 0.85689 0.0
C421 C 0.97603 0.60539 0.85303 0.0
C422 C 0.87365 0.54461 0.82517 0.0
C423 C 0.79496 0.57492 0.82732 0.0
C424 C 0.83378 0.57538 0.82986 0.0
C425 C 0.94626 0.57768 0.83838 0.0
C426 C 0.9074 0.57679 0.83503 0.0
H427 H 0.75796 0.63486 0.83163 0.0
H428 H 0.81766 0.63558 0.83477 0.0
H429 H 0.81439 0.51825 0.81479 0.0
H430 H 0.99349 0.52936 0.82325 0.0
H431 H 0.93394 0.529 0.81587 0.0
C432 C 0.2098 0.75213 0.16221 0.0
C433 C 0.20764 0.71635 0.15955 0.0
C434 C 0.24501 0.78732 0.16403 0.0
C435 C 0.35496 0.83172 0.16034 0.0
H436 H 0.35701 0.92453 0.18052 0.0
C437 C 0.50085 0.98286 0.16677 0.0
C438 C 0.50522 1.01518 0.17968 0.0
C439 C 0.46544 0.94744 0.16332 0.0
C440 C 0.35806 0.89938 0.17498 0.0
H441 H 0.24427 0.69239 0.15689 0.0
H442 H 0.30429 0.75213 0.16029 0.0
H443 H 0.29826 0.86499 0.17757 0.0
H444 H 0.4729 0.03248 0.19918 0.0
H445 H 0.41324 0.9732 0.19333 0.0
H446 H 0.41519 0.86636 0.15825 0.0
C447 C 0.27865 0.75361 0.16074 0.0
C448 C 0.32303 0.86404 0.17297 0.0
C449 C 0.24336 0.71838 0.15885 0.0
C450 C 0.47166 1.00958 0.18862 0.0
C451 C 0.43655 0.9745 0.18522 0.0
C452 C 0.39012 0.86715 0.16241 0.0
C453 C 0.28101 0.78964 0.16342 0.0
C454 C 0.31988 0.82862 0.16557 0.0
C455 C 0.43191 0.94167 0.17266 0.0
C456 C 0.39319 0.90253 0.16989 0.0
H457 H 0.18387 0.75314 0.16282 0.0
H458 H 0.24345 0.8129 0.1657 0.0
H459 H 0.3557 0.80657 0.15437 0.0
H460 H 0.52536 0.98432 0.15993 0.0
H461 H 0.46483 0.92429 0.15336 0.0
C462 C 0.56563 0.19588 0.49407 0.0
C463 C 0.59864 0.19304 0.49156 0.0
C464 C 0.56617 0.23132 0.49598 0.0
C465 C 0.63429 0.34158 0.50279 0.0
H466 H 0.54143 0.34368 0.49438 0.0
C467 C 0.6342 0.48816 0.51928 0.0
C468 C 0.60436 0.49325 0.51165 0.0
C469 C 0.63365 0.45289 0.51587 0.0
C470 C 0.56812 0.34451 0.49673 0.0
H471 H 0.6587 0.22869 0.48926 0.0
H472 H 0.65975 0.28886 0.49225 0.0
H473 H 0.54026 0.28358 0.49053 0.0
H474 H 0.54931 0.46129 0.49441 0.0
H475 H 0.54858 0.40088 0.48787 0.0
H476 H 0.66229 0.40242 0.50855 0.0
C477 C 0.63282 0.26372 0.49303 0.0
C478 C 0.56739 0.30895 0.4947 0.0
C479 C 0.63225 0.22829 0.49113 0.0
C480 C 0.57379 0.4602 0.50013 0.0
C481 C 0.57314 0.4246 0.49671 0.0
C482 C 0.63501 0.37707 0.50482 0.0
C483 C 0.59979 0.26679 0.49553 0.0
C484 C 0.60046 0.30595 0.49768 0.0
C485 C 0.6029 0.41939 0.5047 0.0
C486 C 0.60196 0.38011 0.50195 0.0
H487 H 0.53883 0.17036 0.49462 0.0
H488 H 0.53965 0.23054 0.49808 0.0
H489 H 0.66096 0.34255 0.50556 0.0
H490 H 0.65799 0.51166 0.52881 0.0
H491 H 0.65737 0.45198 0.52288 0.0
C492 C 0.47172 0.54291 0.82343 0.0
C493 C 0.50719 0.57631 0.82312 0.0
C494 C 0.437 0.54334 0.82529 0.0
C495 C 0.3968 0.61067 0.83858 0.0
H496 H 0.29982 0.5218 0.8198 0.0
C497 C 0.25468 0.60843 0.85832 0.0
C498 C 0.2195 0.58555 0.8462 0.0
C499 C 0.28782 0.60647 0.85447 0.0
C500 C 0.32638 0.54727 0.82512 0.0
H501 H 0.53142 0.63682 0.82461 0.0
H502 H 0.47241 0.63771 0.82762 0.0
H503 H 0.35842 0.52026 0.8154 0.0
H504 H 0.1938 0.54138 0.81986 0.0
H505 H 0.25147 0.53788 0.81294 0.0
H506 H 0.36519 0.63796 0.84798 0.0
C507 C 0.47093 0.61062 0.82669 0.0
C508 C 0.36079 0.54628 0.82276 0.0
C509 C 0.50557 0.61015 0.82477 0.0
C510 C 0.21968 0.56007 0.82967 0.0
C511 C 0.2533 0.5579 0.82581 0.0
C512 C 0.36255 0.6116 0.841 0.0
C513 C 0.43528 0.57725 0.82706 0.0
C514 C 0.39734 0.57798 0.82945 0.0
C515 C 0.28866 0.58125 0.83811 0.0
C516 C 0.32599 0.57993 0.83451 0.0
H517 H 0.47062 0.51594 0.8223 0.0
H518 H 0.41139 0.51662 0.82567 0.0
H519 H 0.42312 0.63606 0.84432 0.0
H520 H 0.25674 0.62829 0.87138 0.0
H521 H 0.31289 0.62467 0.86494 0.0
C522 C 0.98941 0.46704 0.15998 0.0
C523 C 0.99067 0.50126 0.15665 0.0
C524 C 0.95477 0.43276 0.16185 0.0
C525 C 0.84759 0.39235 0.16994 0.0
H526 H 0.84047 0.29474 0.1578 0.0
C527 C 0.71223 0.25286 0.19056 0.0
C528 C 0.69945 0.2159 0.18001 0.0
C529 C 0.74611 0.2857 0.18661 0.0
C530 C 0.84122 0.32143 0.16126 0.0
H531 H 0.95302 0.52345 0.15293 0.0
H532 H 0.89391 0.46515 0.15619 0.0
H533 H 0.89921 0.35257 0.15346 0.0
H534 H 0.71624 0.187 0.1565 0.0
H535 H 0.7751 0.24382 0.14957 0.0
H536 H 0.78976 0.36146 0.17765 0.0
C537 C 0.91997 0.46445 0.15747 0.0
C538 C 0.87589 0.35551 0.15891 0.0
C539 C 0.95463 0.49866 0.1554 0.0
C540 C 0.72351 0.21417 0.16499 0.0
C541 C 0.75815 0.24742 0.16115 0.0
C542 C 0.81317 0.35841 0.17249 0.0
C543 C 0.9186 0.43004 0.16076 0.0
C544 C 0.8805 0.3924 0.16318 0.0
C545 C 0.77072 0.28453 0.17188 0.0
C546 C 0.80854 0.32153 0.16833 0.0
H547 H 1.01562 0.46656 0.1612 0.0
H548 H 0.95674 0.40828 0.16455 0.0
H549 H 0.8483 0.41895 0.17372 0.0
H550 H 0.69586 0.25661 0.20248 0.0
H551 H 0.75339 0.31227 0.19582 0.0
C552 C 0.09872 0.62321 0.07832 0.0
C553 C 0.09698 0.5946 0.08913 0.0
C554 C 0.09822 0.61991 0.05661 0.0
C555 C 0.0725 0.55011 0.00892 0.0
H556 H 0.13451 0.63983 0.98341 0.0
C557 C 0.05613 0.55364 0.92003 0.0
C558 C 0.0889 0.57509 0.91004 0.0
C559 C 0.05776 0.55483 0.94173 0.0
C560 C 0.11724 0.61434 -0.00981 0.0
H561 H 0.09321 0.53984 0.08529 0.0
H562 H 0.09262 0.53416 0.04736 0.0
H563 H 0.1368 0.64391 0.02111 0.0
H564 H 0.14924 0.61457 0.9154 0.0
H565 H 0.15223 0.61608 0.95304 0.0
H566 H 0.05337 0.52046 0.97793 0.0
C567 C 0.09401 0.55909 0.05573 0.0
C568 C 0.11818 0.61679 0.01192 0.0
C569 C 0.09456 0.56244 0.07753 0.0
C570 C 0.12344 0.59741 0.92243 0.0
C571 C 0.12506 0.59863 0.94413 0.0
C572 C 0.0715 0.54767 0.98715 0.0
C573 C 0.09598 0.58788 0.04493 0.0
C574 C 0.09568 0.58478 0.02166 0.0
C575 C 0.09222 0.57753 0.95415 0.0
C576 C 0.09377 0.57979 0.97743 0.0
H577 H 0.1004 0.64834 0.08663 0.0
H578 H 0.0991 0.64239 0.04895 0.0
H579 H 0.05452 0.52488 0.01575 0.0
H580 H 1.02908 0.53577 0.91107 0.0
H581 H 1.03177 0.53844 0.94879 0.0
C582 C 0.57302 0.08503 0.4096 0.0
C583 C 0.60191 0.08413 0.42134 0.0
C584 C 0.57419 0.08671 0.38818 0.0
C585 C 0.61727 0.06846 0.3417 0.0
H586 H 0.58237 0.12913 0.31744 0.0
C587 C 0.6064 0.12193 0.25705 0.0
C588 C 0.59325 0.08783 0.24364 0.0
C589 C 0.61034 0.12307 0.27873 0.0
C590 C 0.5926 0.11231 0.3239 0.0
H591 H 0.65478 0.08416 0.41938 0.0
H592 H 0.65689 0.08714 0.38195 0.0
H593 H 0.58415 0.12851 0.3549 0.0
H594 H 0.57543 1.02847 0.24276 0.0
H595 H 0.58183 0.03033 0.28031 0.0
H596 H 0.62597 0.05247 0.31067 0.0
C597 C 0.63308 0.08627 0.38937 0.0
C598 C 0.59317 0.11157 0.34546 0.0
C599 C 0.63197 0.08471 0.41091 0.0
C600 C 0.58518 0.05517 0.25254 0.0
C601 C 0.58926 0.05633 0.27416 0.0
C602 C 0.61656 0.06908 0.3201 0.0
C603 C 0.60427 0.08749 0.37769 0.0
C604 C 0.60522 0.08939 0.35471 0.0
C605 C 0.60152 0.09019 0.28764 0.0
C606 C 0.60396 0.09082 0.31083 0.0
H607 H 0.5493 0.08451 0.41697 0.0
H608 H 0.55112 0.08692 0.37977 0.0
H609 H 0.6265 0.05083 0.34812 0.0
H610 H 0.61273 0.14761 0.25083 0.0
H611 H 0.62032 0.1498 0.28851 0.0
C612 C 0.58711 0.54879 0.74131 0.0
C613 C 0.6139 0.58045 0.75509 0.0
C614 C 0.5868 0.54905 0.71975 0.0
C615 C 0.61804 0.61206 0.67877 0.0
H616 H 0.60009 0.5213 0.6438 0.0
C617 C 0.62712 0.60475 0.58876 0.0
C618 C 0.60233 0.5703 0.57625 0.0
C619 C 0.62907 0.60745 0.61058 0.0
C620 C 0.60458 0.54677 0.65321 0.0
H621 H 0.66121 0.63756 0.75668 0.0
H622 H 0.66058 0.63805 0.71896 0.0
H623 H 0.60285 0.52348 0.68137 0.0
H624 H 0.55896 0.51215 0.57711 0.0
H625 H 0.56177 0.51689 0.61484 0.0
H626 H 0.61935 0.6352 0.65053 0.0
C627 C 0.63969 0.61297 0.72494 0.0
C628 C 0.60629 0.54804 0.67488 0.0
C629 C 0.64019 0.61263 0.7466 0.0
C630 C 0.57887 0.53897 0.58619 0.0
C631 C 0.58065 0.54169 0.60793 0.0
C632 C 0.61612 0.61073 0.65701 0.0
C633 C 0.61313 0.58103 0.71119 0.0
C634 C 0.61276 0.58057 0.68802 0.0
C635 C 0.60615 0.57581 0.62054 0.0
C636 C 0.60906 0.57792 0.64385 0.0
H637 H 0.56629 0.52347 0.74713 0.0
H638 H 0.56552 0.52412 0.70977 0.0
H639 H 0.62273 0.63749 0.68833 0.0
H640 H 0.64586 0.62939 0.58167 0.0
H641 H 0.64935 0.63414 0.61961 0.0
C642 C 0.62465 0.10509 0.56332 0.0
C643 C 0.59319 0.08225 0.54881 0.0
C644 C 0.62241 0.10007 0.58437 0.0
C645 C 0.60123 0.09485 0.62966 0.0
H646 H 0.5433 0.99125 0.64094 0.0
C647 C 0.54208 0.05572 0.70867 0.0
C648 C 0.53906 1.02323 0.7156 0.0
C649 C 0.55443 0.06504 0.68916 0.0
C650 C 0.56011 1.02034 0.63818 0.0
H651 H 0.53425 0.03758 0.54517 0.0
H652 H 0.53028 1.02945 0.58154 0.0
H653 H 0.55463 1.00389 0.60541 0.0
H654 H 0.54802 0.97586 0.70796 0.0
H655 H 0.57019 0.99236 0.67397 0.0
H656 H 0.60689 0.11121 0.66258 0.0
C657 C 0.55699 0.05045 0.57673 0.0
C658 C 0.56615 1.02762 0.61773 0.0
C659 C 0.55924 0.05533 0.55585 0.0
C660 C 0.54958 1.00077 0.70286 0.0
C661 C 0.56224 1.01025 0.68341 0.0
C662 C 0.59528 0.08755 0.65021 0.0
C663 C 0.58867 0.07217 0.59119 0.0
C664 C 0.58598 0.06494 0.61317 0.0
C665 C 0.56426 0.04218 0.67617 0.0
C666 C 0.57401 0.0502 0.65467 0.0
H667 H 0.65119 0.12607 0.55834 0.0
H668 H 0.64731 0.11726 0.59517 0.0
H669 H 0.6166 0.12391 0.62666 0.0
H670 H 0.53375 0.07333 0.71807 0.0
H671 H 0.55497 0.08943 0.68399 0.0
C672 C 0.5971 0.52579 0.88584 0.0
C673 C 0.60672 0.56174 0.88088 0.0
C674 C 0.58899 0.51711 0.90589 0.0
C675 C 0.60608 0.55349 0.96018 0.0
H676 H 0.51026 0.46338 0.96472 0.0
C677 C 0.55671 0.49888 0.03916 0.0
C678 C 0.53653 0.45943 0.039 0.0
C679 C 0.56588 0.51444 0.02056 0.0
C680 C 0.53734 0.48833 0.96376 0.0
H681 H 0.6165 0.6172 0.89333 0.0
H682 H 0.60312 0.60203 0.92891 0.0
H683 H 0.52557 0.48577 0.93116 0.0
H684 H 0.51077 0.40554 0.01896 0.0
H685 H 0.52835 0.43245 0.98689 0.0
H686 H 0.61866 0.55516 -0.00738 0.0
C687 C 0.60154 0.58066 0.91698 0.0
C688 C 0.5459 0.50132 0.94455 0.0
C689 C 0.60908 0.58924 0.89668 0.0
C690 C 0.52672 0.43601 0.01982 0.0
C691 C 0.53622 0.45152 0.00131 0.0
C692 C 0.59774 0.54018 0.97944 0.0
C693 C 0.59083 0.54427 0.9216 0.0
C694 C 0.58055 0.5336 0.94251 0.0
C695 C 0.55531 0.49091 0.00136 0.0
C696 C 0.56353 0.50696 0.98137 0.0
H697 H 0.59502 0.50389 0.87412 0.0
H698 H 0.58117 0.48899 0.90913 0.0
H699 H 0.63309 0.57836 0.95891 0.0
H700 H 0.56524 0.51783 0.05365 0.0
H701 H 0.5805 0.54488 0.02122 0.0
C702 C 0.12008 0.61046 0.23012 0.0
C703 C 0.09888 0.62038 0.21752 0.0
C704 C 0.11698 0.61167 0.25156 0.0
C705 C 0.0885 0.65423 0.2951 0.0
H706 H 0.06899 0.56631 0.32086 0.0
C707 C 1.03607 0.63557 0.3766 0.0
C708 C 1.0509 0.62066 0.39011 0.0
C709 C 1.04319 0.6354 0.35568 0.0
C710 C 0.07495 0.59131 0.314 0.0
H711 H 0.05861 0.64025 0.2176 0.0
H712 H 0.05358 0.64266 0.25489 0.0
H713 H 0.08151 0.56796 0.28431 0.0
H714 H 0.08387 0.59274 0.392 0.0
H715 H 0.09722 0.59349 0.35567 0.0
H716 H 0.0822 0.67779 0.32466 0.0
C717 C 0.07253 0.63395 0.24824 0.0
C718 C 0.08212 0.59223 0.29307 0.0
C719 C 0.07528 0.63235 0.22685 0.0
C720 C 0.07243 0.60492 0.38209 0.0
C721 C 0.07973 0.60496 0.36118 0.0
C722 C 0.08162 0.65346 0.31603 0.0
C723 C 0.09306 0.62331 0.2608 0.0
C724 C 0.08846 0.6235 0.28336 0.0
C725 C 0.06551 0.62054 0.34777 0.0
C726 C 0.07423 0.62178 0.32568 0.0
H727 H 0.13842 0.60102 0.22337 0.0
H728 H 0.13329 0.60354 0.26093 0.0
H729 H 0.09383 0.67893 0.28807 0.0
H730 H 1.0197 0.64825 0.38227 0.0
H731 H 1.0312 0.64702 0.34571 0.0
loop_
_geom_bond_atom_site_label_1
_geom_bond_atom_site_label_2
_geom_bond_distance
_geom_bond_site_symmetry_2
_ccdc_geom_bond_type
Tb0 C9 2.764 1_455 S
Tb0 O10 2.325 . S
Tb0 O13 2.303 . S
Tb0 O17 2.322 . S
Tb0 O18 2.349 . S
Tb0 O21 2.415 1_455 S
Tb0 O22 2.399 1_455 S
Tb1 O11 2.322 . S
Tb1 O12 2.349 . S
Tb1 O14 2.415 . S
Tb1 O15 2.399 . S
Tb1 O16 2.325 . S
Tb1 O19 2.303 . S
Tb1 C30 2.764 . S
C2 O18 1.261 . S
C2 O19 1.257 . S
C3 C6 1.358 . S
C3 C7 1.332 . S
C3 C9 1.504 . S
C4 C5 1.373 . S
C4 C8 1.308 . S
C5 C4 1.373 . S
C5 C6 1.429 . S
C5 H32 0.932 . S
C6 C3 1.358 . S
C6 C5 1.429 . S
C6 H33 0.930 . S
C7 C3 1.332 . S
C7 C8 1.394 . S
C7 H34 0.932 . S
C8 C4 1.308 . S
C8 C7 1.394 . S
C8 H35 0.929 . S
C9 Tb0 2.764 1_655 S
C9 C3 1.504 . S
C9 O21 1.239 . S
C9 O22 1.263 . S
O10 Tb0 2.325 . S
O10 C20 1.236 . S
O11 Tb1 2.322 . S
O11 C20 1.257 . S
O12 Tb1 2.349 . S
O12 C23 1.261 . S
O13 Tb0 2.303 . S
O13 C23 1.257 . S
O14 Tb1 2.415 . S
O14 C30 1.239 . S
O15 Tb1 2.399 . S
O15 C30 1.263 . S
O16 Tb1 2.325 . S
O16 C31 1.236 . S
O17 Tb0 2.322 . S
O17 C31 1.257 . S
O18 Tb0 2.349 . S
O18 C2 1.261 . S
O19 Tb1 2.303 . S
O19 C2 1.257 . S
C20 O10 1.236 . S
C20 O11 1.257 . S
O21 Tb0 2.415 1_655 S
O21 C9 1.239 . S
O22 Tb0 2.399 1_655 S
O22 C9 1.263 . S
C23 O12 1.261 . S
C23 O13 1.257 . S
C24 C27 1.358 . S
C24 C28 1.332 . S
C24 C30 1.504 . S
C25 C26 1.373 . S
C25 C29 1.308 . S
C26 C25 1.373 . S
C26 C27 1.429 . S
C26 H36 0.932 . S
C27 C24 1.358 . S
C27 C26 1.429 . S
C27 H37 0.930 . S
C28 C24 1.332 . S
C28 C29 1.394 . S
C28 H38 0.932 . S
C29 C25 1.308 . S
C29 C28 1.394 . S
C29 H39 0.929 . S
C30 Tb1 2.764 . S
C30 O14 1.239 . S
C30 O15 1.263 . S
C30 C24 1.504 . S
C31 O16 1.236 . S
C31 O17 1.257 . S
H32 C5 0.932 . S
H33 C6 0.930 . S
H34 C7 0.932 . S
H35 C8 0.929 . S
H36 C26 0.932 . S
H37 C27 0.930 . S
H38 C28 0.932 . S
H39 C29 0.929 . S
Tb40 C49 2.764 1_545 S
Tb40 O50 2.325 1_545 S
Tb40 O53 2.303 . S
Tb40 O57 2.322 . S
Tb40 O58 2.349 . S
Tb40 O61 2.415 1_545 S
Tb40 O62 2.399 1_545 S
Tb41 O51 2.322 . S
Tb41 O52 2.349 . S
Tb41 O54 2.415 . S
Tb41 O55 2.399 . S
Tb41 O56 2.325 . S
Tb41 O59 2.303 . S
Tb41 C70 2.764 . S
C42 O58 1.261 . S
C42 O59 1.257 . S
C43 C46 1.358 . S
C43 C47 1.332 . S
C43 C49 1.504 . S
C44 C45 1.373 . S
C44 C48 1.308 . S
C45 C44 1.373 . S
C45 C46 1.429 . S
C45 H72 0.932 . S
C46 C43 1.358 . S
C46 C45 1.429 . S
C46 H73 0.930 . S
C47 C43 1.332 . S
C47 C48 1.394 . S
C47 H74 0.932 . S
C48 C44 1.308 . S
C48 C47 1.394 . S
C48 H75 0.929 . S
C49 Tb40 2.764 1_565 S
C49 C43 1.504 . S
C49 O61 1.239 . S
C49 O62 1.263 . S
O50 Tb40 2.325 1_565 S
O50 C60 1.236 . S
O51 Tb41 2.322 . S
O51 C60 1.257 1_545 S
O52 Tb41 2.349 . S
O52 C63 1.261 . S
O53 Tb40 2.303 . S
O53 C63 1.257 . S
O54 Tb41 2.415 . S
O54 C70 1.239 . S
O55 Tb41 2.399 . S
O55 C70 1.263 . S
O56 Tb41 2.325 . S
O56 C71 1.236 . S
O57 Tb40 2.322 . S
O57 C71 1.257 . S
O58 Tb40 2.349 . S
O58 C42 1.261 . S
O59 Tb41 2.303 . S
O59 C42 1.257 . S
C60 O50 1.236 . S
C60 O51 1.257 1_565 S
O61 Tb40 2.415 1_565 S
O61 C49 1.239 . S
O62 Tb40 2.399 1_565 S
O62 C49 1.263 . S
C63 O52 1.261 . S
C63 O53 1.257 . S
C64 C67 1.358 . S
C64 C68 1.332 . S
C64 C70 1.504 . S
C65 C66 1.373 . S
C65 C69 1.308 . S
C66 C65 1.373 . S
C66 C67 1.429 . S
C66 H76 0.932 . S
C67 C64 1.358 . S
C67 C66 1.429 . S
C67 H77 0.930 . S
C68 C64 1.332 . S
C68 C69 1.394 . S
C68 H78 0.932 . S
C69 C65 1.308 . S
C69 C68 1.394 . S
C69 H79 0.929 . S
C70 Tb41 2.764 . S
C70 O54 1.239 . S
C70 O55 1.263 . S
C70 C64 1.504 . S
C71 O56 1.236 . S
C71 O57 1.257 . S
H72 C45 0.932 . S
H73 C46 0.930 . S
H74 C47 0.932 . S
H75 C48 0.929 . S
H76 C66 0.932 . S
H77 C67 0.930 . S
H78 C68 0.932 . S
H79 C69 0.929 . S
Tb80 C89 2.764 . S
Tb80 O90 2.325 . S
Tb80 O93 2.303 . S
Tb80 O97 2.322 . S
Tb80 O98 2.349 . S
Tb80 O101 2.415 . S
Tb80 O102 2.399 . S
Tb81 O91 2.322 . S
Tb81 O92 2.349 . S
Tb81 O94 2.415 . S
Tb81 O95 2.399 . S
Tb81 O96 2.325 . S
Tb81 O99 2.303 . S
Tb81 C110 2.764 . S
C82 O98 1.261 . S
C82 O99 1.257 . S
C83 C86 1.358 . S
C83 C87 1.332 . S
C83 C89 1.504 . S
C84 C85 1.373 . S
C84 C88 1.308 . S
C85 C84 1.373 . S
C85 C86 1.429 . S
C85 H112 0.932 . S
C86 C83 1.358 . S
C86 C85 1.429 . S
C86 H113 0.930 . S
C87 C83 1.332 . S
C87 C88 1.394 . S
C87 H114 0.932 . S
C88 C84 1.308 . S
C88 C87 1.394 . S
C88 H115 0.929 . S
C89 Tb80 2.764 . S
C89 C83 1.504 . S
C89 O101 1.239 . S
C89 O102 1.263 . S
O90 Tb80 2.325 . S
O90 C100 1.236 . S
O91 Tb81 2.322 . S
O91 C100 1.257 . S
O92 Tb81 2.349 . S
O92 C103 1.261 . S
O93 Tb80 2.303 . S
O93 C103 1.257 . S
O94 Tb81 2.415 . S
O94 C110 1.239 . S
O95 Tb81 2.399 . S
O95 C110 1.263 . S
O96 Tb81 2.325 . S
O96 C111 1.236 . S
O97 Tb80 2.322 . S
O97 C111 1.257 . S
O98 Tb80 2.349 . S
O98 C82 1.261 . S
O99 Tb81 2.303 . S
O99 C82 1.257 . S
C100 O90 1.236 . S
C100 O91 1.257 . S
O101 Tb80 2.415 . S
O101 C89 1.239 . S
O102 Tb80 2.399 . S
O102 C89 1.263 . S
C103 O92 1.261 . S
C103 O93 1.257 . S
C104 C107 1.358 . S
C104 C108 1.332 . S
C104 C110 1.504 . S
C105 C106 1.373 . S
C105 C109 1.308 . S
C106 C105 1.373 . S
C106 C107 1.429 . S
C106 H116 0.932 . S
C107 C104 1.358 . S
C107 C106 1.429 . S
C107 H117 0.930 . S
C108 C104 1.332 . S
C108 C109 1.394 . S
C108 H118 0.932 . S
C109 C105 1.308 . S
C109 C108 1.394 . S
C109 H119 0.929 . S
C110 Tb81 2.764 . S
C110 O94 1.239 . S
C110 O95 1.263 . S
C110 C104 1.504 . S
C111 O96 1.236 . S
C111 O97 1.257 . S
H112 C85 0.932 . S
H113 C86 0.930 . S
H114 C87 0.932 . S
H115 C88 0.929 . S
H116 C106 0.932 . S
H117 C107 0.930 . S
H118 C108 0.932 . S
H119 C109 0.929 . S
H120 C125 0.930 . S
H121 C128 0.930 . S
H122 C130 0.930 . S
H123 C124 1.016 . S
C124 H123 1.016 . S
C124 N131 1.286 . S
C125 H120 0.930 . S
C125 C126 1.397 . S
C125 C127 1.361 . S
C126 C125 1.397 . S
C126 C130 1.390 . S
C127 C125 1.361 . S
C127 C128 1.393 . S
C127 N131 1.413 . S
C128 H121 0.930 . S
C128 C127 1.393 . S
C128 C129 1.399 . S
C129 C128 1.399 . S
C129 C130 1.381 . S
C130 H122 0.930 . S
C130 C126 1.390 . S
C130 C129 1.381 . S
N131 C124 1.286 . S
N131 C127 1.413 . S
H132 C137 0.930 . S
H133 C140 0.930 . S
H134 C142 0.930 . S
H135 C136 1.016 . S
C136 H135 1.016 . S
C136 N143 1.286 . S
C137 H132 0.930 . S
C137 C138 1.397 . S
C137 C139 1.361 . S
C138 C137 1.397 . S
C138 C142 1.390 . S
C139 C137 1.361 . S
C139 C140 1.393 . S
C139 N143 1.413 . S
C140 H133 0.930 . S
C140 C139 1.393 . S
C140 C141 1.399 . S
C141 C140 1.399 . S
C141 C142 1.381 . S
C142 H134 0.930 . S
C142 C138 1.390 . S
C142 C141 1.381 . S
N143 C136 1.286 . S
N143 C139 1.413 . S
H144 C149 0.930 . S
H145 C152 0.930 . S
H146 C154 0.930 . S
H147 C148 1.016 . S
C148 H147 1.016 . S
C148 N155 1.286 . S
C149 H144 0.930 . S
C149 C150 1.397 . S
C149 C151 1.361 . S
C150 C149 1.397 . S
C150 C154 1.390 . S
C151 C149 1.361 . S
C151 C152 1.393 . S
C151 N155 1.413 . S
C152 H145 0.930 . S
C152 C151 1.393 . S
C152 C153 1.399 . S
C153 C152 1.399 . S
C153 C154 1.381 . S
C154 H146 0.930 . S
C154 C150 1.390 . S
C154 C153 1.381 . S
N155 C148 1.286 . S
N155 C151 1.413 . S
H156 C161 0.930 . S
H157 C164 0.930 . S
H158 C166 0.930 . S
H159 C160 1.016 . S
C160 H159 1.016 . S
C160 N167 1.286 . S
C161 H156 0.930 . S
C161 C162 1.397 . S
C161 C163 1.361 1_455 S
C162 C161 1.397 . S
C162 C166 1.390 . S
C163 C161 1.361 1_655 S
C163 C164 1.393 . S
C163 N167 1.413 . S
C164 H157 0.930 . S
C164 C163 1.393 . S
C164 C165 1.399 1_655 S
C165 C164 1.399 1_455 S
C165 C166 1.381 . S
C166 H158 0.930 . S
C166 C162 1.390 . S
C166 C165 1.381 . S
N167 C160 1.286 . S
N167 C163 1.413 . S
H168 C173 0.930 . S
H169 C176 0.931 . S
H170 C178 0.930 . S
H171 C172 1.016 . S
C172 H171 1.016 . S
C172 N179 1.286 . S
C173 H168 0.930 . S
C173 C174 1.397 . S
C173 C175 1.361 . S
C174 C173 1.397 . S
C174 C178 1.390 . S
C175 C173 1.361 . S
C175 C176 1.393 1_545 S
C175 N179 1.413 1_545 S
C176 H169 0.931 . S
C176 C175 1.393 1_565 S
C176 C177 1.398 1_565 S
C177 C176 1.398 1_545 S
C177 C178 1.381 . S
C178 H170 0.930 . S
C178 C174 1.390 . S
C178 C177 1.381 . S
N179 C172 1.286 . S
N179 C175 1.413 1_565 S
H180 C185 0.930 . S
H181 C188 0.930 . S
H182 C190 0.930 . S
H183 C184 1.016 . S
C184 H183 1.016 . S
C184 N191 1.286 . S
C185 H180 0.930 . S
C185 C186 1.397 . S
C185 C187 1.361 . S
C186 C185 1.397 . S
C186 C190 1.390 . S
C187 C185 1.361 . S
C187 C188 1.393 . S
C187 N191 1.413 . S
C188 H181 0.930 . S
C188 C187 1.393 . S
C188 C189 1.399 . S
C189 C188 1.399 . S
C189 C190 1.381 . S
C190 H182 0.930 . S
C190 C186 1.390 . S
C190 C189 1.381 . S
N191 C184 1.286 . S
N191 C187 1.413 . S
C192 C193 1.349 . S
C192 C194 1.327 . S
C192 H217 0.950 . S
C193 C192 1.349 . S
C193 C209 1.349 . S
C194 C192 1.327 . S
C194 C213 1.429 . S
C194 H218 0.950 . S
C195 C212 1.574 . S
C195 C214 1.368 . S
C195 H219 0.949 . S
H196 C200 0.949 . S
C197 C198 1.349 . S
C197 C199 1.327 . S
C197 H220 0.950 . S
C198 C197 1.349 . S
C198 C210 1.349 . S
C199 C197 1.327 . S
C199 C215 1.429 . S
C199 H221 0.950 . S
C200 H196 0.949 . S
C200 C208 1.574 . S
C200 C216 1.368 . S
H201 C209 0.950 . S
H202 C207 0.950 . S
H203 C208 0.949 . S
H204 C210 0.950 . S
H205 C211 0.950 . S
H206 C212 0.949 . S
C207 H202 0.950 . S
C207 C209 1.327 . S
C207 C213 1.429 . S
C208 C200 1.574 . S
C208 H203 0.949 . S
C208 C214 1.368 . S
C209 C193 1.349 . S
C209 H201 0.950 . S
C209 C207 1.327 . S
C210 C198 1.349 . S
C210 H204 0.950 . S
C210 C211 1.327 . S
C211 H205 0.950 . S
C211 C210 1.327 . S
C211 C215 1.429 . S
C212 C195 1.574 . S
C212 H206 0.949 . S
C212 C216 1.368 . S
C213 C194 1.429 . S
C213 C207 1.429 . S
C213 C214 1.523 . S
C214 C195 1.368 . S
C214 C208 1.368 . S
C214 C213 1.523 . S
C215 C199 1.429 . S
C215 C211 1.429 . S
C215 C216 1.523 . S
C216 C200 1.368 . S
C216 C212 1.368 . S
C216 C215 1.523 . S
H217 C192 0.950 . S
H218 C194 0.950 . S
H219 C195 0.949 . S
H220 C197 0.950 . S
H221 C199 0.950 . S
C222 C223 1.349 . S
C222 C224 1.327 . S
C222 H247 0.950 . S
C223 C222 1.349 . S
C223 C239 1.349 . S
C224 C222 1.327 . S
C224 C243 1.429 . S
C224 H248 0.950 . S
C225 C242 1.574 . S
C225 C244 1.368 . S
C225 H249 0.949 . S
H226 C230 0.949 . S
C227 C228 1.349 . S
C227 C229 1.327 . S
C227 H250 0.950 . S
C228 C227 1.349 . S
C228 C240 1.349 . S
C229 C227 1.327 . S
C229 C245 1.429 . S
C229 H251 0.950 . S
C230 H226 0.949 . S
C230 C238 1.574 . S
C230 C246 1.368 . S
H231 C239 0.950 . S
H232 C237 0.950 . S
H233 C238 0.949 . S
H234 C240 0.950 . S
H235 C241 0.950 . S
H236 C242 0.949 . S
C237 H232 0.950 . S
C237 C239 1.327 . S
C237 C243 1.429 . S
C238 C230 1.574 . S
C238 H233 0.949 . S
C238 C244 1.368 . S
C239 C223 1.349 . S
C239 H231 0.950 . S
C239 C237 1.327 . S
C240 C228 1.349 . S
C240 H234 0.950 . S
C240 C241 1.327 . S
C241 H235 0.950 . S
C241 C240 1.327 . S
C241 C245 1.429 . S
C242 C225 1.574 . S
C242 H236 0.949 . S
C242 C246 1.368 . S
C243 C224 1.429 . S
C243 C237 1.429 . S
C243 C244 1.523 . S
C244 C225 1.368 . S
C244 C238 1.368 . S
C244 C243 1.523 . S
C245 C229 1.429 . S
C245 C241 1.429 . S
C245 C246 1.523 . S
C246 C230 1.368 . S
C246 C242 1.368 . S
C246 C245 1.523 . S
H247 C222 0.950 . S
H248 C224 0.950 . S
H249 C225 0.949 . S
H250 C227 0.950 . S
H251 C229 0.950 . S
C252 C253 1.349 . S
C252 C254 1.327 . S
C252 H277 0.950 . S
C253 C252 1.349 . S
C253 C269 1.349 . S
C254 C252 1.327 . S
C254 C273 1.429 . S
C254 H278 0.950 . S
C255 C272 1.574 . S
C255 C274 1.368 . S
C255 H279 0.949 . S
H256 C260 0.949 . S
C257 C258 1.349 . S
C257 C259 1.327 . S
C257 H280 0.950 . S
C258 C257 1.349 . S
C258 C270 1.349 . S
C259 C257 1.327 . S
C259 C275 1.429 . S
C259 H281 0.950 . S
C260 H256 0.949 . S
C260 C268 1.574 . S
C260 C276 1.368 . S
H261 C269 0.950 . S
H262 C267 0.950 . S
H263 C268 0.949 . S
H264 C270 0.950 . S
H265 C271 0.950 . S
H266 C272 0.949 . S
C267 H262 0.950 . S
C267 C269 1.327 . S
C267 C273 1.429 . S
C268 C260 1.574 . S
C268 H263 0.949 . S
C268 C274 1.368 . S
C269 C253 1.349 . S
C269 H261 0.950 . S
C269 C267 1.327 . S
C270 C258 1.349 . S
C270 H264 0.950 . S
C270 C271 1.327 . S
C271 H265 0.950 . S
C271 C270 1.327 . S
C271 C275 1.429 . S
C272 C255 1.574 . S
C272 H266 0.949 . S
C272 C276 1.368 . S
C273 C254 1.429 . S
C273 C267 1.429 . S
C273 C274 1.523 . S
C274 C255 1.368 . S
C274 C268 1.368 . S
C274 C273 1.523 . S
C275 C259 1.429 . S
C275 C271 1.429 . S
C275 C276 1.523 . S
C276 C260 1.368 . S
C276 C272 1.368 . S
C276 C275 1.523 . S
H277 C252 0.950 . S
H278 C254 0.950 . S
H279 C255 0.949 . S
H280 C257 0.950 . S
H281 C259 0.950 . S
C282 C283 1.349 . S
C282 C284 1.327 . S
C282 H307 0.950 . S
C283 C282 1.349 . S
C283 C299 1.349 . S
C284 C282 1.327 . S
C284 C303 1.429 . S
C284 H308 0.950 . S
C285 C302 1.574 . S
C285 C304 1.368 . S
C285 H309 0.949 . S
H286 C290 0.949 . S
C287 C288 1.349 . S
C287 C289 1.327 . S
C287 H310 0.950 . S
C288 C287 1.349 . S
C288 C300 1.349 . S
C289 C287 1.327 . S
C289 C305 1.429 . S
C289 H311 0.950 . S
C290 H286 0.949 . S
C290 C298 1.574 . S
C290 C306 1.368 . S
H291 C299 0.950 . S
H292 C297 0.950 . S
H293 C298 0.949 . S
H294 C300 0.950 . S
H295 C301 0.950 . S
H296 C302 0.949 . S
C297 H292 0.950 . S
C297 C299 1.327 . S
C297 C303 1.429 . S
C298 C290 1.574 . S
C298 H293 0.949 . S
C298 C304 1.368 . S
C299 C283 1.349 . S
C299 H291 0.950 . S
C299 C297 1.327 . S
C300 C288 1.349 . S
C300 H294 0.950 . S
C300 C301 1.327 . S
C301 H295 0.950 . S
C301 C300 1.327 . S
C301 C305 1.429 . S
C302 C285 1.574 . S
C302 H296 0.949 . S
C302 C306 1.368 . S
C303 C284 1.429 . S
C303 C297 1.429 . S
C303 C304 1.523 . S
C304 C285 1.368 . S
C304 C298 1.368 . S
C304 C303 1.523 . S
C305 C289 1.429 . S
C305 C301 1.429 . S
C305 C306 1.523 . S
C306 C290 1.368 . S
C306 C302 1.368 . S
C306 C305 1.523 . S
H307 C282 0.950 . S
H308 C284 0.950 . S
H309 C285 0.949 . S
H310 C287 0.950 . S
H311 C289 0.950 . S
C312 C313 1.349 . S
C312 C314 1.327 . S
C312 H337 0.950 . S
C313 C312 1.349 . S
C313 C329 1.349 . S
C314 C312 1.327 . S
C314 C333 1.429 . S
C314 H338 0.950 . S
C315 C332 1.574 . S
C315 C334 1.368 . S
C315 H339 0.949 . S
H316 C320 0.949 . S
C317 C318 1.349 . S
C317 C319 1.327 . S
C317 H340 0.950 . S
C318 C317 1.349 . S
C318 C330 1.349 . S
C319 C317 1.327 . S
C319 C335 1.429 . S
C319 H341 0.950 . S
C320 H316 0.949 . S
C320 C328 1.574 . S
C320 C336 1.368 . S
H321 C329 0.950 . S
H322 C327 0.950 . S
H323 C328 0.949 . S
H324 C330 0.950 . S
H325 C331 0.950 . S
H326 C332 0.949 . S
C327 H322 0.950 . S
C327 C329 1.327 . S
C327 C333 1.429 . S
C328 C320 1.574 . S
C328 H323 0.949 . S
C328 C334 1.368 . S
C329 C313 1.349 . S
C329 H321 0.950 . S
C329 C327 1.327 . S
C330 C318 1.349 . S
C330 H324 0.950 . S
C330 C331 1.327 . S
C331 H325 0.950 . S
C331 C330 1.327 . S
C331 C335 1.429 . S
C332 C315 1.574 . S
C332 H326 0.949 . S
C332 C336 1.368 . S
C333 C314 1.429 . S
C333 C327 1.429 . S
C333 C334 1.523 . S
C334 C315 1.368 . S
C334 C328 1.368 . S
C334 C333 1.523 . S
C335 C319 1.429 . S
C335 C331 1.429 . S
C335 C336 1.523 . S
C336 C320 1.368 . S
C336 C332 1.368 . S
C336 C335 1.523 . S
H337 C312 0.950 . S
H338 C314 0.950 . S
H339 C315 0.949 . S
H340 C317 0.950 . S
H341 C319 0.950 . S
C342 C343 1.349 . S
C342 C344 1.327 . S
C342 H367 0.950 . S
C343 C342 1.349 . S
C343 C359 1.349 . S
C344 C342 1.327 . S
C344 C363 1.429 . S
C344 H368 0.950 . S
C345 C362 1.574 . S
C345 C364 1.368 . S
C345 H369 0.949 . S
H346 C350 0.949 . S
C347 C348 1.349 . S
C347 C349 1.327 . S
C347 H370 0.950 . S
C348 C347 1.349 . S
C348 C360 1.349 . S
C349 C347 1.327 . S
C349 C365 1.429 . S
C349 H371 0.950 . S
C350 H346 0.949 . S
C350 C358 1.574 . S
C350 C366 1.368 . S
H351 C359 0.950 . S
H352 C357 0.950 . S
H353 C358 0.949 . S
H354 C360 0.950 . S
H355 C361 0.950 . S
H356 C362 0.949 . S
C357 H352 0.950 . S
C357 C359 1.327 . S
C357 C363 1.429 . S
C358 C350 1.574 . S
C358 H353 0.949 . S
C358 C364 1.368 . S
C359 C343 1.349 . S
C359 H351 0.950 . S
C359 C357 1.327 . S
C360 C348 1.349 . S
C360 H354 0.950 . S
C360 C361 1.327 . S
C361 H355 0.950 . S
C361 C360 1.327 . S
C361 C365 1.429 . S
C362 C345 1.574 . S
C362 H356 0.949 . S
C362 C366 1.368 . S
C363 C344 1.429 . S
C363 C357 1.429 . S
C363 C364 1.523 . S
C364 C345 1.368 . S
C364 C358 1.368 . S
C364 C363 1.523 . S
C365 C349 1.429 . S
C365 C361 1.429 . S
C365 C366 1.523 . S
C366 C350 1.368 . S
C366 C362 1.368 . S
C366 C365 1.523 . S
H367 C342 0.950 . S
H368 C344 0.950 . S
H369 C345 0.949 . S
H370 C347 0.950 . S
H371 C349 0.950 . S
C372 C373 1.349 . S
C372 C374 1.327 . S
C372 H397 0.950 . S
C373 C372 1.349 . S
C373 C389 1.349 . S
C374 C372 1.327 . S
C374 C393 1.429 . S
C374 H398 0.950 . S
C375 C392 1.574 . S
C375 C394 1.368 . S
C375 H399 0.949 . S
H376 C380 0.949 . S
C377 C378 1.349 . S
C377 C379 1.327 . S
C377 H400 0.950 . S
C378 C377 1.349 . S
C378 C390 1.349 . S
C379 C377 1.327 . S
C379 C395 1.429 . S
C379 H401 0.950 . S
C380 H376 0.949 . S
C380 C388 1.574 . S
C380 C396 1.368 . S
H381 C389 0.950 . S
H382 C387 0.950 . S
H383 C388 0.949 . S
H384 C390 0.950 . S
H385 C391 0.950 . S
H386 C392 0.949 . S
C387 H382 0.950 . S
C387 C389 1.327 . S
C387 C393 1.429 . S
C388 C380 1.574 . S
C388 H383 0.949 . S
C388 C394 1.368 . S
C389 C373 1.349 . S
C389 H381 0.950 . S
C389 C387 1.327 . S
C390 C378 1.349 . S
C390 H384 0.950 . S
C390 C391 1.327 . S
C391 H385 0.950 . S
C391 C390 1.327 . S
C391 C395 1.429 . S
C392 C375 1.574 . S
C392 H386 0.949 . S
C392 C396 1.368 . S
C393 C374 1.429 . S
C393 C387 1.429 . S
C393 C394 1.523 . S
C394 C375 1.368 . S
C394 C388 1.368 . S
C394 C393 1.523 . S
C395 C379 1.429 . S
C395 C391 1.429 . S
C395 C396 1.523 . S
C396 C380 1.368 . S
C396 C392 1.368 . S
C396 C395 1.523 . S
H397 C372 0.950 . S
H398 C374 0.950 . S
H399 C375 0.949 . S
H400 C377 0.950 . S
H401 C379 0.950 . S
C402 C403 1.349 . S
C402 C404 1.327 . S
C402 H427 0.950 . S
C403 C402 1.349 . S
C403 C419 1.349 . S
C404 C402 1.327 . S
C404 C423 1.429 . S
C404 H428 0.950 . S
C405 C422 1.574 . S
C405 C424 1.368 . S
C405 H429 0.949 . S
H406 C410 0.949 . S
C407 C408 1.349 . S
C407 C409 1.327 . S
C407 H430 0.950 . S
C408 C407 1.349 . S
C408 C420 1.349 . S
C409 C407 1.327 . S
C409 C425 1.429 . S
C409 H431 0.950 . S
C410 H406 0.949 . S
C410 C418 1.574 . S
C410 C426 1.368 . S
H411 C419 0.950 . S
H412 C417 0.950 . S
H413 C418 0.949 . S
H414 C420 0.950 . S
H415 C421 0.950 . S
H416 C422 0.949 . S
C417 H412 0.950 . S
C417 C419 1.327 . S
C417 C423 1.429 . S
C418 C410 1.574 . S
C418 H413 0.949 . S
C418 C424 1.368 . S
C419 C403 1.349 . S
C419 H411 0.950 . S
C419 C417 1.327 . S
C420 C408 1.349 . S
C420 H414 0.950 . S
C420 C421 1.327 . S
C421 H415 0.950 . S
C421 C420 1.327 . S
C421 C425 1.429 . S
C422 C405 1.574 . S
C422 H416 0.949 . S
C422 C426 1.368 . S
C423 C404 1.429 . S
C423 C417 1.429 . S
C423 C424 1.523 . S
C424 C405 1.368 . S
C424 C418 1.368 . S
C424 C423 1.523 . S
C425 C409 1.429 . S
C425 C421 1.429 . S
C425 C426 1.523 . S
C426 C410 1.368 . S
C426 C422 1.368 . S
C426 C425 1.523 . S
H427 C402 0.950 . S
H428 C404 0.950 . S
H429 C405 0.949 . S
H430 C407 0.950 . S
H431 C409 0.950 . S
C432 C433 1.349 . S
C432 C434 1.327 . S
C432 H457 0.950 . S
C433 C432 1.349 . S
C433 C449 1.349 . S
C434 C432 1.327 . S
C434 C453 1.429 . S
C434 H458 0.950 . S
C435 C452 1.574 . S
C435 C454 1.368 . S
C435 H459 0.949 . S
H436 C440 0.949 . S
C437 C438 1.349 . S
C437 C439 1.327 . S
C437 H460 0.950 . S
C438 C437 1.349 . S
C438 C450 1.349 . S
C439 C437 1.327 . S
C439 C455 1.429 . S
C439 H461 0.950 . S
C440 H436 0.949 . S
C440 C448 1.574 . S
C440 C456 1.368 . S
H441 C449 0.950 . S
H442 C447 0.950 . S
H443 C448 0.949 . S
H444 C450 0.950 . S
H445 C451 0.950 . S
H446 C452 0.949 . S
C447 H442 0.950 . S
C447 C449 1.327 . S
C447 C453 1.429 . S
C448 C440 1.574 . S
C448 H443 0.949 . S
C448 C454 1.368 . S
C449 C433 1.349 . S
C449 H441 0.950 . S
C449 C447 1.327 . S
C450 C438 1.349 . S
C450 H444 0.950 . S
C450 C451 1.327 . S
C451 H445 0.950 . S
C451 C450 1.327 . S
C451 C455 1.429 . S
C452 C435 1.574 . S
C452 H446 0.949 . S
C452 C456 1.368 . S
C453 C434 1.429 . S
C453 C447 1.429 . S
C453 C454 1.523 . S
C454 C435 1.368 . S
C454 C448 1.368 . S
C454 C453 1.523 . S
C455 C439 1.429 . S
C455 C451 1.429 . S
C455 C456 1.523 . S
C456 C440 1.368 . S
C456 C452 1.368 . S
C456 C455 1.523 . S
H457 C432 0.950 . S
H458 C434 0.950 . S
H459 C435 0.949 . S
H460 C437 0.950 . S
H461 C439 0.950 . S
C462 C463 1.349 . S
C462 C464 1.327 . S
C462 H487 0.950 . S
C463 C462 1.349 . S
C463 C479 1.349 . S
C464 C462 1.327 . S
C464 C483 1.429 . S
C464 H488 0.950 . S
C465 C482 1.574 . S
C465 C484 1.368 . S
C465 H489 0.949 . S
H466 C470 0.949 . S
C467 C468 1.349 . S
C467 C469 1.327 . S
C467 H490 0.950 . S
C468 C467 1.349 . S
C468 C480 1.349 . S
C469 C467 1.327 . S
C469 C485 1.429 . S
C469 H491 0.950 . S
C470 H466 0.949 . S
C470 C478 1.574 . S
C470 C486 1.368 . S
H471 C479 0.950 . S
H472 C477 0.950 . S
H473 C478 0.949 . S
H474 C480 0.950 . S
H475 C481 0.950 . S
H476 C482 0.949 . S
C477 H472 0.950 . S
C477 C479 1.327 . S
C477 C483 1.429 . S
C478 C470 1.574 . S
C478 H473 0.949 . S
C478 C484 1.368 . S
C479 C463 1.349 . S
C479 H471 0.950 . S
C479 C477 1.327 . S
C480 C468 1.349 . S
C480 H474 0.950 . S
C480 C481 1.327 . S
C481 H475 0.950 . S
C481 C480 1.327 . S
C481 C485 1.429 . S
C482 C465 1.574 . S
C482 H476 0.949 . S
C482 C486 1.368 . S
C483 C464 1.429 . S
C483 C477 1.429 . S
C483 C484 1.523 . S
C484 C465 1.368 . S
C484 C478 1.368 . S
C484 C483 1.523 . S
C485 C469 1.429 . S
C485 C481 1.429 . S
C485 C486 1.523 . S
C486 C470 1.368 . S
C486 C482 1.368 . S
C486 C485 1.523 . S
H487 C462 0.950 . S
H488 C464 0.950 . S
H489 C465 0.949 . S
H490 C467 0.950 . S
H491 C469 0.950 . S
C492 C493 1.349 . S
C492 C494 1.327 . S
C492 H517 0.950 . S
C493 C492 1.349 . S
C493 C509 1.349 . S
C494 C492 1.327 . S
C494 C513 1.429 . S
C494 H518 0.950 . S
C495 C512 1.574 . S
C495 C514 1.368 . S
C495 H519 0.949 . S
H496 C500 0.949 . S
C497 C498 1.349 . S
C497 C499 1.327 . S
C497 H520 0.950 . S
C498 C497 1.349 . S
C498 C510 1.349 . S
C499 C497 1.327 . S
C499 C515 1.429 . S
C499 H521 0.950 . S
C500 H496 0.949 . S
C500 C508 1.574 . S
C500 C516 1.368 . S
H501 C509 0.950 . S
H502 C507 0.950 . S
H503 C508 0.949 . S
H504 C510 0.950 . S
H505 C511 0.950 . S
H506 C512 0.949 . S
C507 H502 0.950 . S
C507 C509 1.327 . S
C507 C513 1.429 . S
C508 C500 1.574 . S
C508 H503 0.949 . S
C508 C514 1.368 . S
C509 C493 1.349 . S
C509 H501 0.950 . S
C509 C507 1.327 . S
C510 C498 1.349 . S
C510 H504 0.950 . S
C510 C511 1.327 . S
C511 H505 0.950 . S
C511 C510 1.327 . S
C511 C515 1.429 . S
C512 C495 1.574 . S
C512 H506 0.949 . S
C512 C516 1.368 . S
C513 C494 1.429 . S
C513 C507 1.429 . S
C513 C514 1.523 . S
C514 C495 1.368 . S
C514 C508 1.368 . S
C514 C513 1.523 . S
C515 C499 1.429 . S
C515 C511 1.429 . S
C515 C516 1.523 . S
C516 C500 1.368 . S
C516 C512 1.368 . S
C516 C515 1.523 . S
H517 C492 0.950 . S
H518 C494 0.950 . S
H519 C495 0.949 . S
H520 C497 0.950 . S
H521 C499 0.950 . S
C522 C523 1.349 . S
C522 C524 1.327 . S
C522 H547 0.950 . S
C523 C522 1.349 . S
C523 C539 1.349 . S
C524 C522 1.327 . S
C524 C543 1.429 . S
C524 H548 0.950 . S
C525 C542 1.574 . S
C525 C544 1.368 . S
C525 H549 0.949 . S
H526 C530 0.949 . S
C527 C528 1.349 . S
C527 C529 1.327 . S
C527 H550 0.950 . S
C528 C527 1.349 . S
C528 C540 1.349 . S
C529 C527 1.327 . S
C529 C545 1.429 . S
C529 H551 0.950 . S
C530 H526 0.949 . S
C530 C538 1.574 . S
C530 C546 1.368 . S
H531 C539 0.950 . S
H532 C537 0.950 . S
H533 C538 0.949 . S
H534 C540 0.950 . S
H535 C541 0.950 . S
H536 C542 0.949 . S
C537 H532 0.950 . S
C537 C539 1.327 . S
C537 C543 1.429 . S
C538 C530 1.574 . S
C538 H533 0.949 . S
C538 C544 1.368 . S
C539 C523 1.349 . S
C539 H531 0.950 . S
C539 C537 1.327 . S
C540 C528 1.349 . S
C540 H534 0.950 . S
C540 C541 1.327 . S
C541 H535 0.950 . S
C541 C540 1.327 . S
C541 C545 1.429 . S
C542 C525 1.574 . S
C542 H536 0.949 . S
C542 C546 1.368 . S
C543 C524 1.429 . S
C543 C537 1.429 . S
C543 C544 1.523 . S
C544 C525 1.368 . S
C544 C538 1.368 . S
C544 C543 1.523 . S
C545 C529 1.429 . S
C545 C541 1.429 . S
C545 C546 1.523 . S
C546 C530 1.368 . S
C546 C542 1.368 . S
C546 C545 1.523 . S
H547 C522 0.950 . S
H548 C524 0.950 . S
H549 C525 0.949 . S
H550 C527 0.950 . S
H551 C529 0.950 . S
C552 C553 1.349 . S
C552 C554 1.327 . S
C552 H577 0.950 . S
C553 C552 1.349 . S
C553 C569 1.349 . S
C554 C552 1.327 . S
C554 C573 1.429 . S
C554 H578 0.950 . S
C555 C572 1.574 . S
C555 C574 1.368 . S
C555 H579 0.949 . S
H556 C560 0.951 . S
C557 C558 1.349 . S
C557 C559 1.327 . S
C557 H580 0.950 . S
C558 C557 1.349 . S
C558 C570 1.349 . S
C559 C557 1.327 . S
C559 C575 1.429 . S
C559 H581 0.950 . S
C560 H556 0.951 . S
C560 C568 1.574 . S
C560 C576 1.368 1_554 S
H561 C569 0.950 . S
H562 C567 0.950 . S
H563 C568 0.949 . S
H564 C570 0.950 . S
H565 C571 0.950 . S
H566 C572 0.949 1_556 S
C567 H562 0.950 . S
C567 C569 1.327 . S
C567 C573 1.429 . S
C568 C560 1.574 . S
C568 H563 0.949 . S
C568 C574 1.368 . S
C569 C553 1.349 . S
C569 H561 0.950 . S
C569 C567 1.327 . S
C570 C558 1.349 . S
C570 H564 0.950 . S
C570 C571 1.327 . S
C571 H565 0.950 . S
C571 C570 1.327 . S
C571 C575 1.429 . S
C572 C555 1.574 . S
C572 H566 0.949 1_554 S
C572 C576 1.368 1_554 S
C573 C554 1.429 . S
C573 C567 1.429 . S
C573 C574 1.523 . S
C574 C555 1.368 . S
C574 C568 1.368 . S
C574 C573 1.523 . S
C575 C559 1.429 . S
C575 C571 1.429 . S
C575 C576 1.523 . S
C576 C560 1.368 1_556 S
C576 C572 1.368 1_556 S
C576 C575 1.523 . S
H577 C552 0.950 . S
H578 C554 0.950 . S
H579 C555 0.949 . S
H580 C557 0.950 . S
H581 C559 0.950 . S
C582 C583 1.349 . S
C582 C584 1.327 . S
C582 H607 0.950 . S
C583 C582 1.349 . S
C583 C599 1.349 . S
C584 C582 1.327 . S
C584 C603 1.429 . S
C584 H608 0.950 . S
C585 C602 1.574 . S
C585 C604 1.368 . S
C585 H609 0.949 . S
H586 C590 0.949 . S
C587 C588 1.349 . S
C587 C589 1.327 . S
C587 H610 0.950 . S
C588 C587 1.349 . S
C588 C600 1.349 . S
C589 C587 1.327 . S
C589 C605 1.429 . S
C589 H611 0.950 . S
C590 H586 0.949 . S
C590 C598 1.574 . S
C590 C606 1.368 . S
H591 C599 0.950 . S
H592 C597 0.950 . S
H593 C598 0.949 . S
H594 C600 0.950 . S
H595 C601 0.950 . S
H596 C602 0.949 . S
C597 H592 0.950 . S
C597 C599 1.327 . S
C597 C603 1.429 . S
C598 C590 1.574 . S
C598 H593 0.949 . S
C598 C604 1.368 . S
C599 C583 1.349 . S
C599 H591 0.950 . S
C599 C597 1.327 . S
C600 C588 1.349 . S
C600 H594 0.950 . S
C600 C601 1.327 . S
C601 H595 0.950 . S
C601 C600 1.327 . S
C601 C605 1.429 . S
C602 C585 1.574 . S
C602 H596 0.949 . S
C602 C606 1.368 . S
C603 C584 1.429 . S
C603 C597 1.429 . S
C603 C604 1.523 . S
C604 C585 1.368 . S
C604 C598 1.368 . S
C604 C603 1.523 . S
C605 C589 1.429 . S
C605 C601 1.429 . S
C605 C606 1.523 . S
C606 C590 1.368 . S
C606 C602 1.368 . S
C606 C605 1.523 . S
H607 C582 0.950 . S
H608 C584 0.950 . S
H609 C585 0.949 . S
H610 C587 0.950 . S
H611 C589 0.950 . S
C612 C613 1.349 . S
C612 C614 1.327 . S
C612 H637 0.950 . S
C613 C612 1.349 . S
C613 C629 1.349 . S
C614 C612 1.327 . S
C614 C633 1.429 . S
C614 H638 0.950 . S
C615 C632 1.574 . S
C615 C634 1.368 . S
C615 H639 0.949 . S
H616 C620 0.949 . S
C617 C618 1.349 . S
C617 C619 1.327 . S
C617 H640 0.950 . S
C618 C617 1.349 . S
C618 C630 1.349 . S
C619 C617 1.327 . S
C619 C635 1.429 . S
C619 H641 0.950 . S
C620 H616 0.949 . S
C620 C628 1.574 . S
C620 C636 1.368 . S
H621 C629 0.950 . S
H622 C627 0.950 . S
H623 C628 0.949 . S
H624 C630 0.950 . S
H625 C631 0.950 . S
H626 C632 0.949 . S
C627 H622 0.950 . S
C627 C629 1.327 . S
C627 C633 1.429 . S
C628 C620 1.574 . S
C628 H623 0.949 . S
C628 C634 1.368 . S
C629 C613 1.349 . S
C629 H621 0.950 . S
C629 C627 1.327 . S
C630 C618 1.349 . S
C630 H624 0.950 . S
C630 C631 1.327 . S
C631 H625 0.950 . S
C631 C630 1.327 . S
C631 C635 1.429 . S
C632 C615 1.574 . S
C632 H626 0.949 . S
C632 C636 1.368 . S
C633 C614 1.429 . S
C633 C627 1.429 . S
C633 C634 1.523 . S
C634 C615 1.368 . S
C634 C628 1.368 . S
C634 C633 1.523 . S
C635 C619 1.429 . S
C635 C631 1.429 . S
C635 C636 1.523 . S
C636 C620 1.368 . S
C636 C632 1.368 . S
C636 C635 1.523 . S
H637 C612 0.950 . S
H638 C614 0.950 . S
H639 C615 0.949 . S
H640 C617 0.950 . S
H641 C619 0.950 . S
C642 C643 1.349 . S
C642 C644 1.327 . S
C642 H667 0.950 . S
C643 C642 1.349 . S
C643 C659 1.349 . S
C644 C642 1.327 . S
C644 C663 1.429 . S
C644 H668 0.950 . S
C645 C662 1.574 . S
C645 C664 1.368 . S
C645 H669 0.949 . S
H646 C650 0.949 1_565 S
C647 C648 1.349 . S
C647 C649 1.327 . S
C647 H670 0.950 . S
C648 C647 1.349 . S
C648 C660 1.349 . S
C649 C647 1.327 . S
C649 C665 1.429 . S
C649 H671 0.950 . S
C650 H646 0.949 1_545 S
C650 C658 1.574 . S
C650 C666 1.368 . S
H651 C659 0.950 . S
H652 C657 0.950 . S
H653 C658 0.949 . S
H654 C660 0.950 1_565 S
H655 C661 0.950 1_565 S
H656 C662 0.949 . S
C657 H652 0.950 . S
C657 C659 1.327 . S
C657 C663 1.429 . S
C658 C650 1.574 . S
C658 H653 0.949 . S
C658 C664 1.368 . S
C659 C643 1.349 . S
C659 H651 0.950 . S
C659 C657 1.327 . S
C660 C648 1.349 . S
C660 H654 0.950 1_545 S
C660 C661 1.327 . S
C661 H655 0.950 1_545 S
C661 C660 1.327 . S
C661 C665 1.429 . S
C662 C645 1.574 . S
C662 H656 0.949 . S
C662 C666 1.368 . S
C663 C644 1.429 . S
C663 C657 1.429 . S
C663 C664 1.523 . S
C664 C645 1.368 . S
C664 C658 1.368 . S
C664 C663 1.523 . S
C665 C649 1.429 . S
C665 C661 1.429 . S
C665 C666 1.523 . S
C666 C650 1.368 . S
C666 C662 1.368 . S
C666 C665 1.523 . S
H667 C642 0.950 . S
H668 C644 0.950 . S
H669 C645 0.949 . S
H670 C647 0.950 . S
H671 C649 0.950 . S
C672 C673 1.349 . S
C672 C674 1.327 . S
C672 H697 0.950 . S
C673 C672 1.349 . S
C673 C689 1.349 . S
C674 C672 1.327 . S
C674 C693 1.429 . S
C674 H698 0.950 . S
C675 C692 1.574 . S
C675 C694 1.368 . S
C675 H699 0.949 . S
H676 C680 0.949 . S
C677 C678 1.349 . S
C677 C679 1.327 . S
C677 H700 0.950 . S
C678 C677 1.349 . S
C678 C690 1.349 . S
C679 C677 1.327 . S
C679 C695 1.429 . S
C679 H701 0.950 . S
C680 H676 0.949 . S
C680 C688 1.574 . S
C680 C696 1.368 1_556 S
H681 C689 0.950 . S
H682 C687 0.950 . S
H683 C688 0.949 . S
H684 C690 0.950 . S
H685 C691 0.950 . S
H686 C692 0.949 1_554 S
C687 H682 0.950 . S
C687 C689 1.327 . S
C687 C693 1.429 . S
C688 C680 1.574 . S
C688 H683 0.949 . S
C688 C694 1.368 . S
C689 C673 1.349 . S
C689 H681 0.950 . S
C689 C687 1.327 . S
C690 C678 1.349 . S
C690 H684 0.950 . S
C690 C691 1.327 . S
C691 H685 0.950 . S
C691 C690 1.327 . S
C691 C695 1.429 . S
C692 C675 1.574 . S
C692 H686 0.949 1_556 S
C692 C696 1.368 1_556 S
C693 C674 1.429 . S
C693 C687 1.429 . S
C693 C694 1.523 . S
C694 C675 1.368 . S
C694 C688 1.368 . S
C694 C693 1.523 . S
C695 C679 1.429 . S
C695 C691 1.429 . S
C695 C696 1.523 . S
C696 C680 1.368 1_554 S
C696 C692 1.368 1_554 S
C696 C695 1.523 . S
H697 C672 0.950 . S
H698 C674 0.950 . S
H699 C675 0.949 . S
H700 C677 0.950 . S
H701 C679 0.950 . S
C702 C703 1.349 . S
C702 C704 1.327 . S
C702 H727 0.950 . S
C703 C702 1.349 . S
C703 C719 1.349 . S
C704 C702 1.327 . S
C704 C723 1.429 . S
C704 H728 0.950 . S
C705 C722 1.574 . S
C705 C724 1.368 . S
C705 H729 0.949 . S
H706 C710 0.949 . S
C707 C708 1.349 . S
C707 C709 1.327 . S
C707 H730 0.950 1_455 S
C708 C707 1.349 . S
C708 C720 1.349 . S
C709 C707 1.327 . S
C709 C725 1.429 . S
C709 H731 0.972 . S
C710 H706 0.949 . S
C710 C718 1.574 . S
C710 C726 1.368 . S
H711 C719 0.950 . S
H712 C717 0.950 . S
H713 C718 0.949 . S
H714 C720 0.950 . S
H715 C721 0.950 . S
H716 C722 0.949 . S
C717 H712 0.950 . S
C717 C719 1.327 . S
C717 C723 1.429 . S
C718 C710 1.574 . S
C718 H713 0.949 . S
C718 C724 1.368 . S
C719 C703 1.349 . S
C719 H711 0.950 . S
C719 C717 1.327 . S
C720 C708 1.349 . S
C720 H714 0.950 . S
C720 C721 1.327 . S
C721 H715 0.950 . S
C721 C720 1.327 . S
C721 C725 1.429 . S
C722 C705 1.574 . S
C722 H716 0.949 . S
C722 C726 1.368 . S
C723 C704 1.429 . S
C723 C717 1.429 . S
C723 C724 1.523 . S
C724 C705 1.368 . S
C724 C718 1.368 . S
C724 C723 1.523 . S
C725 C709 1.429 . S
C725 C721 1.429 . S
C725 C726 1.523 . S
C726 C710 1.368 . S
C726 C722 1.368 . S
C726 C725 1.523 . S
H727 C702 0.950 . S
H728 C704 0.950 . S
H729 C705 0.949 . S
H730 C707 0.950 1_655 S
H731 C709 0.972 . S
C193 C25 0.574 . S
C198 C186 0.577 . S
C223 C65 0.240 . S
C228 C160 0.269 . S
C253 C105 0.265 . S
C258 C172 0.261 . S
C283 C4 0.375 . S
C288 C184 0.426 . S
C318 C162 0.200 . S
C313 C44 0.160 . S
C348 C174 0.226 . S
C343 C84 0.128 . S
C373 C60 2.988 . S
C378 C136 2.912 . S
C403 C100 3.380 . S
C408 C150 3.348 1_655 S
C433 C31 2.935 . S
C438 C126 2.891 1_565 S
C468 C138 2.893 . S
C463 C71 2.932 . S
C498 C148 2.492 . S
C493 C111 2.580 . S
C523 C20 2.988 1_655 S
C528 C124 2.913 . S
C558 C153 1.772 . S
C553 C2 1.701 . S
C583 C42 1.738 . S
C588 C129 1.752 . S
C613 C82 1.701 . S
C618 C141 1.721 . S
C648 C177 1.242 . S
C643 C63 1.216 . S
C678 C189 1.257 . S
C673 C103 1.234 . S
C703 C23 1.199 . S
C708 C165 1.214 . S
