# Generated by pormake.
# Topology nom, (4,4)-cn, num edge types: 1
# Building blocks:
#     Node 0, Type 0, BuildingBlock: NAWXER_clean_linker_0, # of connection points: 4
#     Node 1, Type 0, BuildingBlock: NAWXER_clean_linker_0, # of connection points: 4
#     Node 2, Type 0, BuildingBlock: NAWXER_clean_linker_0, # of connection points: 4
#     Node 3, Type 0, BuildingBlock: NAWXER_clean_linker_0, # of connection points: 4
#     Node 4, Type 0, BuildingBlock: NAWXER_clean_linker_0, # of connection points: 4
#     Node 5, Type 0, BuildingBlock: NAWXER_clean_linker_0, # of connection points: 4
#     Node 6, Type 1, BuildingBlock: CEKHIL_clean_sbu_0, # of connection points: 4
#     Node 7, Type 1, BuildingBlock: CEKHIL_clean_sbu_0, # of connection points: 4
#     Node 8, Type 1, BuildingBlock: CEKHIL_clean_sbu_0, # of connection points: 4
#     Node 9, Type 1, BuildingBlock: CEKHIL_clean_sbu_0, # of connection points: 4
#     Node 10, Type 1, BuildingBlock: CEKHIL_clean_sbu_0, # of connection points: 4
#     Node 11, Type 1, BuildingBlock: CEKHIL_clean_sbu_0, # of connection points: 4
#     Edge 12, Type (0, 1), BuildingBlock: OJICUG_clean_linker_0, # of connection points: 2
#     Edge 13, Type (0, 1), BuildingBlock: OJICUG_clean_linker_0, # of connection points: 2
#     Edge 14, Type (0, 1), BuildingBlock: OJICUG_clean_linker_0, # of connection points: 2
#     Edge 15, Type (0, 1), BuildingBlock: OJICUG_clean_linker_0, # of connection points: 2
#     Edge 16, Type (0, 1), BuildingBlock: OJICUG_clean_linker_0, # of connection points: 2
#     Edge 17, Type (0, 1), BuildingBlock: OJICUG_clean_linker_0, # of connection points: 2
#     Edge 18, Type (0, 1), BuildingBlock: OJICUG_clean_linker_0, # of connection points: 2
#     Edge 19, Type (0, 1), BuildingBlock: OJICUG_clean_linker_0, # of connection points: 2
#     Edge 20, Type (0, 1), BuildingBlock: OJICUG_clean_linker_0, # of connection points: 2
#     Edge 21, Type (0, 1), BuildingBlock: OJICUG_clean_linker_0, # of connection points: 2
#     Edge 22, Type (0, 1), BuildingBlock: OJICUG_clean_linker_0, # of connection points: 2
#     Edge 23, Type (0, 1), BuildingBlock: OJICUG_clean_linker_0, # of connection points: 2
#     Edge 24, Type (0, 1), BuildingBlock: OJICUG_clean_linker_0, # of connection points: 2
#     Edge 25, Type (0, 1), BuildingBlock: OJICUG_clean_linker_0, # of connection points: 2
#     Edge 26, Type (0, 1), BuildingBlock: OJICUG_clean_linker_0, # of connection points: 2
#     Edge 27, Type (0, 1), BuildingBlock: OJICUG_clean_linker_0, # of connection points: 2
#     Edge 28, Type (0, 1), BuildingBlock: OJICUG_clean_linker_0, # of connection points: 2
#     Edge 29, Type (0, 1), BuildingBlock: OJICUG_clean_linker_0, # of connection points: 2
#     Edge 30, Type (0, 1), BuildingBlock: OJICUG_clean_linker_0, # of connection points: 2
#     Edge 31, Type (0, 1), BuildingBlock: OJICUG_clean_linker_0, # of connection points: 2
#     Edge 32, Type (0, 1), BuildingBlock: OJICUG_clean_linker_0, # of connection points: 2
#     Edge 33, Type (0, 1), BuildingBlock: OJICUG_clean_linker_0, # of connection points: 2
#     Edge 34, Type (0, 1), BuildingBlock: OJICUG_clean_linker_0, # of connection points: 2
#     Edge 35, Type (0, 1), BuildingBlock: OJICUG_clean_linker_0, # of connection points: 2
# Relax obj value: 0.006
# Max RMSD: 0.110
# Mean RMSD: 0.075
data_MOF--net-nom--node1-CEKHIL_clean_sbu_0--node2-NAWXER_clean_linker_0--edge1-OJICUG_clean_linker_0
_symmetry_space_group_name_H-M    P1
_symmetry_Int_Tables_number       1
_symmetry_cell_setting            triclinic
loop_
_symmetry_equiv_pos_as_xyz
'x, y, z'
_cell_length_a     40.860082
_cell_length_b     40.387693
_cell_length_c     44.541328
_cell_angle_alpha  90.060596
_cell_angle_beta   89.941068
_cell_angle_gamma 121.2004
loop_
_atom_site_label
_atom_site_type_symbol
_atom_site_fract_x
_atom_site_fract_y
_atom_site_fract_z
_atom_type_partial_charge
C0 C 0.87556 0.51928 0.35668 0.0
C1 C 0.85594 0.48503 0.37349 0.0
C2 C 0.91415 0.53507 0.34955 0.0
C3 C 0.93393 0.5172 0.35944 0.0
C4 C 0.87591 0.46745 0.38376 0.0
C5 C 0.91478 0.48371 0.37709 0.0
C6 C 0.97443 0.5336 0.35092 0.0
C7 C 0.91305 0.461 0.27029 0.0
C8 C 0.90691 0.48195 0.24798 0.0
C9 C 0.93804 0.47999 0.29411 0.0
C10 C 0.9583 0.52044 0.29599 0.0
C11 C 0.92706 0.52272 0.25027 0.0
C12 C 0.95291 0.54178 0.27384 0.0
C13 C 0.98603 0.5397 0.32065 0.0
C14 C 0.15385 0.59924 0.32211 0.0
C15 C 0.16761 0.63276 0.30435 0.0
C16 C 0.11627 0.5798 0.33305 0.0
C17 C 0.09175 0.59344 0.32637 0.0
C18 C 0.14293 0.64655 0.29826 0.0
C19 C 0.10534 0.62684 0.30885 0.0
C20 C 0.05128 0.57216 0.33598 0.0
C21 C 0.12236 0.62317 0.41977 0.0
C22 C 0.11639 0.5956 0.44181 0.0
C23 C 0.09777 0.61297 0.39512 0.0
C24 C 0.06689 0.57484 0.39174 0.0
C25 C 0.08548 0.55744 0.43833 0.0
C26 C 0.06089 0.54726 0.41366 0.0
C27 C 0.03962 0.56372 0.36636 0.0
H28 H 0.86078 0.53323 0.34835 0.0
H29 H 0.92858 0.56121 0.33615 0.0
H30 H 0.86138 0.44108 0.39687 0.0
H31 H 0.9296 0.46962 0.38502 0.0
H32 H 0.89933 0.42983 0.26914 0.0
H33 H 0.94229 0.46303 0.31078 0.0
H34 H 0.92288 0.54004 0.23396 0.0
H35 H 0.96837 0.5731 0.27496 0.0
H36 H 0.17173 0.58739 0.32692 0.0
H37 H 0.1061 0.55366 0.34614 0.0
H38 H 0.1526 0.67267 0.28528 0.0
H39 H 0.08684 0.63783 0.30346 0.0
H40 H 0.146 0.65278 0.42163 0.0
H41 H 0.10255 0.63509 0.379 0.0
H42 H 0.07968 0.53562 0.45507 0.0
H43 H 0.03704 0.51775 0.41172 0.0
N44 N 1.0015 0.54507 0.37271 0.0
N45 N 0.024 0.5593 0.31423 0.0
C46 C 0.37918 0.85389 0.50462 0.0
C47 C 0.39397 0.84122 0.52724 0.0
C48 C 0.39969 0.89236 0.49498 0.0
C49 C 0.43606 0.91847 0.50699 0.0
C50 C 0.42988 0.86726 0.53967 0.0
C51 C 0.45082 0.90549 0.52952 0.0
C52 C 0.45735 0.95999 0.49831 0.0
C53 C 0.44271 0.89553 0.41228 0.0
C54 C 0.42102 0.90027 0.39006 0.0
C55 C 0.45498 0.91912 0.43783 0.0
C56 C 0.44534 0.94757 0.44195 0.0
C57 C 0.41225 0.92943 0.39394 0.0
C58 C 0.42437 0.95285 0.41953 0.0
C59 C 0.45865 0.97327 0.46868 0.0
C60 C 0.56202 0.14547 0.47522 0.0
C61 C 0.53892 0.15756 0.46146 0.0
C62 C 0.54657 0.10685 0.48374 0.0
C63 C 0.50772 0.07967 0.47877 0.0
C64 C 0.49997 0.13011 0.45665 0.0
C65 C 0.48466 0.09152 0.46498 0.0
C66 C 0.49105 0.03848 0.48657 0.0
C67 C 0.52534 0.10675 0.5731 0.0
C68 C 0.55131 0.10161 0.59024 0.0
C69 C 0.50559 0.08193 0.54906 0.0
C70 C 0.51177 0.05177 0.5415 0.0
C71 C 0.55627 0.07052 0.5832 0.0
C72 C 0.53669 0.0459 0.5592 0.0
C73 C 0.49215 0.02547 0.51576 0.0
H74 H 0.35117 0.83436 0.49518 0.0
H75 H 0.38657 0.90178 0.47869 0.0
H76 H 0.44165 0.85802 0.55728 0.0
H77 H 0.47847 0.92505 0.53951 0.0
H78 H 0.4499 0.87333 0.41011 0.0
H79 H 0.47215 0.91519 0.45431 0.0
H80 H 0.39634 0.93451 0.37701 0.0
H81 H 0.41713 0.97502 0.4219 0.0
H82 H 0.59226 0.16563 0.47878 0.0
H83 H 0.56505 0.0981 0.4938 0.0
H84 H 0.48119 0.13842 0.44654 0.0
H85 H 0.45462 0.0709 0.46087 0.0
H86 H 0.52079 0.13036 0.57791 0.0
H87 H 0.48559 0.08638 0.53639 0.0
H88 H 0.57531 0.0651 0.59633 0.0
H89 H 0.5415 0.0225 0.55415 0.0
N90 N 0.47493 0.98672 0.52047 0.0
N91 N 0.47465 0.01193 0.46418 0.0
C92 C 0.53603 0.42196 0.57714 0.0
C93 C 0.51094 0.40284 0.55305 0.0
C94 C 0.52298 0.43068 0.60331 0.0
C95 C 0.48441 0.41994 0.60619 0.0
C96 C 0.47258 0.39298 0.55575 0.0
C97 C 0.45954 0.40155 0.58196 0.0
C98 C 0.47048 0.43019 0.63343 0.0
C99 C 0.50597 0.34783 0.66483 0.0
C100 C 0.53268 0.36088 0.68828 0.0
C101 C 0.48879 0.36877 0.65664 0.0
C102 C 0.49916 0.40399 0.67099 0.0
C103 C 0.54221 0.39525 0.70332 0.0
C104 C 0.52573 0.41669 0.69468 0.0
C105 C 0.48067 0.42636 0.66308 0.0
C106 C 0.40971 0.49852 0.73926 0.0
C107 C 0.44243 0.52433 0.75593 0.0
C108 C 0.41232 0.47724 0.71545 0.0
C109 C 0.44777 0.48171 0.7077 0.0
C110 C 0.47744 0.52734 0.74886 0.0
C111 C 0.48002 0.50625 0.7251 0.0
C112 C 0.45231 0.46144 0.68165 0.0
C113 C 0.40923 0.53602 0.64397 0.0
C114 C 0.37198 0.51334 0.63217 0.0
C115 C 0.43118 0.51951 0.65052 0.0
C116 C 0.41642 0.47999 0.64537 0.0
C117 C 0.35762 0.47382 0.62661 0.0
C118 C 0.37977 0.45743 0.63293 0.0
C119 C 0.43912 0.46202 0.65245 0.0
H120 H 0.56569 0.42988 0.57594 0.0
H121 H 0.54318 0.44609 0.62122 0.0
H122 H 0.45261 0.37899 0.53745 0.0
H123 H 0.42987 0.39365 0.58333 0.0
H124 H 0.49795 0.3211 0.6532 0.0
H125 H 0.46707 0.35706 0.63934 0.0
H126 H 0.56279 0.40574 0.7215 0.0
H127 H 0.5339 0.44333 0.7065 0.0
H128 H 0.38229 0.49542 0.74415 0.0
H129 H 0.38671 0.4576 0.70299 0.0
H130 H 0.50302 0.5462 0.76165 0.0
H131 H 0.50759 0.50982 0.7199 0.0
H132 H 0.42171 0.56672 0.64787 0.0
H133 H 0.45974 0.5376 0.65954 0.0
H134 H 0.32902 0.45533 0.61785 0.0
H135 H 0.36797 0.42689 0.62864 0.0
N136 N 0.44912 0.44684 0.62946 0.0
N137 N 0.47205 0.44313 0.68581 0.0
C138 C 0.86831 0.3693 0.83256 0.0
C139 C 0.85741 0.38386 0.80846 0.0
C140 C 0.90629 0.38905 0.84257 0.0
C141 C 0.93366 0.42435 0.82927 0.0
C142 C 0.88457 0.41904 0.79523 0.0
C143 C 0.92222 0.43917 0.80563 0.0
C144 C 0.97492 0.44407 0.83717 0.0
C145 C 0.91545 0.43941 0.92333 0.0
C146 C 0.92028 0.41921 0.94695 0.0
C147 C 0.9378 0.44888 0.89732 0.0
C148 C 0.96501 0.43773 0.89405 0.0
C149 C 0.94844 0.40924 0.94397 0.0
C150 C 0.97056 0.41846 0.91788 0.0
C151 C 0.98923 0.44785 0.86671 0.0
C152 C 0.1606 0.5473 0.84819 0.0
C153 C 0.17319 0.52828 0.86728 0.0
C154 C 0.12171 0.53158 0.8424 0.0
C155 C 0.09435 0.49538 0.8542 0.0
C156 C 0.14542 0.49284 0.88023 0.0
C157 C 0.10654 0.47656 0.87366 0.0
C158 C 0.05301 0.4774 0.84719 0.0
C159 C 0.11589 0.50286 0.75843 0.0
C160 C 0.11123 0.5292 0.74101 0.0
C161 C 0.09188 0.48423 0.78308 0.0
C162 C 0.06316 0.49203 0.79085 0.0
C163 C 0.08111 0.53518 0.74799 0.0
C164 C 0.05737 0.51678 0.77255 0.0
C165 C 0.03875 0.47518 0.81783 0.0
H166 H 0.84784 0.34188 0.84277 0.0
H167 H 0.9144 0.37599 0.85997 0.0
H168 H 0.87672 0.43073 0.77658 0.0
H169 H 0.94268 0.46607 0.79473 0.0
H170 H 0.89402 0.44749 0.92471 0.0
H171 H 0.93381 0.46502 0.87978 0.0
H172 H 0.95367 0.3945 0.96192 0.0
H173 H 0.99187 0.41023 0.91623 0.0
H174 H 0.18068 0.5743 0.83732 0.0
H175 H 0.11318 0.54773 0.82843 0.0
H176 H 0.15351 0.47767 0.89571 0.0
H177 H 0.08594 0.44902 0.88365 0.0
H178 H 0.13874 0.49753 0.75356 0.0
H179 H 0.09626 0.46444 0.79642 0.0
H180 H 0.07608 0.55448 0.7346 0.0
H181 H 0.03502 0.52277 0.77774 0.0
N182 N 1.00041 0.45847 0.81415 0.0
N183 N 0.02762 0.46366 0.8704 0.0
C184 C 0.51796 0.86915 0.97745 0.0
C185 C 0.48646 0.85161 0.95799 0.0
C186 C 0.53346 0.90764 0.98622 0.0
C187 C 0.51808 0.92932 0.97524 0.0
C188 C 0.4709 0.87318 0.94713 0.0
C189 C 0.487 0.91201 0.95535 0.0
C190 C 0.53532 0.97033 0.98394 0.0
C191 C 0.46257 0.90316 0.06176 0.0
C192 C 0.48164 0.90682 0.08893 0.0
C193 C 0.48202 0.92711 0.03744 0.0
C194 C 0.52124 0.95497 0.03942 0.0
C195 C 0.52102 0.93441 0.09089 0.0
C196 C 0.54056 0.95849 0.06641 0.0
C197 C 0.54094 0.98233 0.01423 0.0
C198 C 0.61186 0.15448 0.00915 0.0
C199 C 0.64447 0.16673 0.02721 0.0
C200 C 0.5901 0.11607 0.99936 0.0
C201 C 0.60047 0.08919 0.00751 0.0
C202 C 0.65482 0.1396 0.035 0.0
C203 C 0.63281 0.10118 0.02552 0.0
C204 C 0.57724 0.0482 0.99834 0.0
C205 C 0.63353 0.1168 0.914 0.0
C206 C 0.6075 0.1122 0.89132 0.0
C207 C 0.62124 0.09255 0.93914 0.0
C208 C 0.58259 0.06346 0.94232 0.0
C209 C 0.56882 0.08305 0.89461 0.0
C210 C 0.55658 0.05883 0.91975 0.0
C211 C 0.56919 0.03621 0.96803 0.0
H212 H 0.53034 0.85294 0.98603 0.0
H213 H 0.55779 0.92066 1.00129 0.0
H214 H 0.4467 0.86013 0.93194 0.0
H215 H 0.47493 0.92838 0.94653 0.0
H216 H 0.43234 0.88202 0.05938 0.0
H217 H 0.46597 0.92451 0.01734 0.0
H218 H 0.53643 0.93823 0.11161 0.0
H219 H 0.57068 0.9801 0.06866 0.0
H220 H 0.60257 0.1743 1.00312 0.0
H221 H 0.56483 0.10719 0.98586 0.0
H222 H 0.68008 0.148 0.04836 0.0
H223 H 0.64127 0.08082 0.03203 0.0
H224 H 0.66348 0.13909 0.91227 0.0
H225 H 0.64213 0.09612 0.95579 0.0
H226 H 0.54813 0.07827 0.87738 0.0
H227 H 0.52669 0.03629 0.92153 0.0
N228 N 0.54889 0.99762 0.96199 0.0
N229 N 0.56242 0.02084 0.0203 0.0
C230 C 0.51944 0.65951 0.16443 0.0
C231 C 0.49359 0.64758 0.18849 0.0
C232 C 0.53628 0.63817 0.15643 0.0
C233 C 0.52635 0.60357 0.17155 0.0
C234 C 0.48462 0.6139 0.20431 0.0
C235 C 0.50069 0.59201 0.19584 0.0
C236 C 0.54437 0.58069 0.16379 0.0
C237 C 0.48757 0.58405 0.07816 0.0
C238 C 0.5126 0.60272 0.05393 0.0
C239 C 0.50051 0.57508 0.10426 0.0
C240 C 0.53888 0.58504 0.10685 0.0
C241 C 0.55069 0.61162 0.05633 0.0
C242 C 0.5636 0.60277 0.08241 0.0
C243 C 0.55296 0.57505 0.13409 0.0
C244 C 0.61803 0.47138 0.14961 0.0
C245 C 0.6496 0.49013 0.12996 0.0
C246 C 0.5963 0.48798 0.15673 0.0
C247 C 0.6066 0.52463 0.14558 0.0
C248 C 0.65881 0.52617 0.11787 0.0
C249 C 0.63766 0.5432 0.12569 0.0
C250 C 0.58446 0.54331 0.15315 0.0
C251 C 0.61871 0.51297 0.24067 0.0
C252 C 0.58638 0.48664 0.25752 0.0
C253 C 0.61519 0.53364 0.21684 0.0
C254 C 0.5792 0.52797 0.20931 0.0
C255 C 0.55096 0.48291 0.25091 0.0
C256 C 0.54747 0.50337 0.22717 0.0
C257 C 0.57334 0.54634 0.18267 0.0
H258 H 0.5271 0.68573 0.1522 0.0
H259 H 0.55739 0.64909 0.13865 0.0
H260 H 0.46473 0.60423 0.22297 0.0
H261 H 0.49291 0.56588 0.20825 0.0
H262 H 0.45811 0.57682 0.07715 0.0
H263 H 0.48046 0.56024 0.12238 0.0
H264 H 0.57057 0.62521 0.03789 0.0
H265 H 0.59309 0.61007 0.08356 0.0
H266 H 0.61002 0.44388 0.15979 0.0
H267 H 0.5715 0.47207 0.17105 0.0
H268 H 0.68208 0.54117 0.10204 0.0
H269 H 0.6457 0.57111 0.11619 0.0
H270 H 0.64642 0.51663 0.24525 0.0
H271 H 0.6403 0.5532 0.20383 0.0
H272 H 0.52568 0.46369 0.26389 0.0
H273 H 0.51954 0.49897 0.22214 0.0
N274 N 0.55411 0.56522 0.18672 0.0
N275 N 0.57351 0.55754 0.13012 0.0
Co276 Co 0.62984 0.37702 0.40447 0.0
O277 O 0.66984 0.37879 0.38054 0.0
O278 O 0.67789 0.42487 0.41201 0.0
C279 C 0.60607 0.31578 0.4206 0.0
O280 O 0.59558 0.38374 0.43438 0.0
Co281 Co 0.54482 0.31883 0.38948 0.0
O282 O 0.53624 0.33159 0.43061 0.0
C283 C 0.58862 0.389 0.35228 0.0
C284 C 0.69295 0.41173 0.39324 0.0
C285 C 0.56103 0.36226 0.44416 0.0
O286 O 0.6168 0.40214 0.37089 0.0
O287 O 0.55868 0.3552 0.35465 0.0
O288 O 0.63543 0.34443 0.43381 0.0
O289 O 0.59417 0.32464 0.39681 0.0
Co290 Co 0.26318 0.6257 0.59056 0.0
O291 O 0.29958 0.62287 0.61604 0.0
O292 O 0.26059 0.57678 0.58455 0.0
C293 C 0.30385 0.68608 0.57367 0.0
O294 O 0.22322 0.61949 0.55966 0.0
Co295 Co 0.24029 0.68662 0.60281 0.0
O296 O 0.21782 0.67208 0.56203 0.0
C297 C 0.21071 0.61809 0.64209 0.0
C298 C 0.28792 0.58915 0.60434 0.0
C299 C 0.21085 0.64083 0.54923 0.0
O300 O 0.22368 0.60282 0.6238 0.0
O301 O 0.21709 0.65245 0.63882 0.0
O302 O 0.30321 0.65661 0.5613 0.0
O303 O 0.28254 0.67851 0.59713 0.0
Co304 Co 0.64673 0.25771 0.73917 0.0
O305 O 0.64483 0.29422 0.71253 0.0
O306 O 0.59858 0.25562 0.74394 0.0
C307 C 0.70613 0.29815 0.75697 0.0
O308 O 0.63911 0.21782 0.77095 0.0
Co309 Co 0.70583 0.23249 0.72953 0.0
O310 O 0.69 0.21048 0.77046 0.0
C311 C 0.63924 0.20269 0.68909 0.0
C312 C 0.6112 0.28263 0.72361 0.0
C313 C 0.65909 0.20465 0.78243 0.0
O314 O 0.62439 0.217 0.70645 0.0
O315 O 0.6728 0.20839 0.6932 0.0
O316 O 0.67702 0.29861 0.76823 0.0
O317 O 0.69895 0.27621 0.73377 0.0
Co318 Co 0.3982 0.63225 0.90359 0.0
O319 O 0.35946 0.63116 0.87851 0.0
O320 O 0.34967 0.58446 0.90999 0.0
C321 C 0.42163 0.69337 0.91983 0.0
O322 O 0.43094 0.62485 0.93461 0.0
Co323 Co 0.48404 0.68998 0.89053 0.0
O324 O 0.49076 0.67645 0.93187 0.0
C325 C 0.44104 0.62058 0.85244 0.0
C326 C 0.33566 0.59814 0.89078 0.0
C327 C 0.46522 0.64585 0.94505 0.0
O328 O 0.4124 0.6073 0.87063 0.0
O329 O 0.47102 0.65427 0.8553 0.0
O330 O 0.39146 0.66479 0.93229 0.0
O331 O 0.43463 0.68458 0.89663 0.0
Co332 Co 0.76626 0.38453 0.09075 0.0
O333 O 0.72596 0.38395 0.11339 0.0
O334 O 0.76638 0.43211 0.08393 0.0
C335 C 0.72999 0.32376 0.0728 0.0
O336 O 0.80967 0.39364 0.06252 0.0
Co337 Co 0.79292 0.3276 0.10716 0.0
O338 O 0.81823 0.34318 0.06726 0.0
C339 C 0.81416 0.39465 0.14604 0.0
C340 C 0.73687 0.41751 0.10179 0.0
C341 C 0.82434 0.37367 0.05367 0.0
O342 O 0.80274 0.40904 0.12572 0.0
O343 O 0.80927 0.36073 0.14427 0.0
O344 O 0.7296 0.35233 0.05978 0.0
O345 O 0.74939 0.33232 0.09742 0.0
Co346 Co 0.38141 0.75324 0.23831 0.0
O347 O 0.38346 0.71713 0.21123 0.0
O348 O 0.42873 0.75395 0.24395 0.0
C349 C 0.32099 0.71312 0.25451 0.0
O350 O 0.38878 0.79248 0.27066 0.0
Co351 Co 0.32404 0.78067 0.22834 0.0
O352 O 0.33853 0.80086 0.26985 0.0
C353 C 0.39245 0.81114 0.1896 0.0
C354 C 0.41646 0.72763 0.22308 0.0
C355 C 0.36893 0.80586 0.28213 0.0
O356 O 0.40579 0.79502 0.20655 0.0
O357 O 0.35919 0.80641 0.19333 0.0
O358 O 0.34922 0.71149 0.26623 0.0
O359 O 0.32966 0.73612 0.23184 0.0
C360 C 0.23793 0.65557 0.30787 0.0
C361 C 0.2071 0.65289 0.2916 0.0
H362 H 0.29808 0.67656 0.30889 0.0
C363 C 0.2143 0.66976 0.26286 0.0
H364 H 0.23367 0.64343 0.3302 0.0
C365 C 0.25127 0.68932 0.25096 0.0
C366 C 0.28194 0.69202 0.26725 0.0
H367 H 0.1913 0.66758 0.24929 0.0
H368 H 0.25576 0.70207 0.22883 0.0
C369 C 0.27491 0.67475 0.29575 0.0
C370 C 0.54369 0.2067 0.42431 0.0
C371 C 0.55548 0.19835 0.45149 0.0
H372 H 0.55022 0.25026 0.3934 0.0
C373 C 0.58348 0.22925 0.46877 0.0
H374 H 0.52265 0.18367 0.41017 0.0
C375 C 0.59965 0.26746 0.45891 0.0
C376 C 0.588 0.2756 0.43165 0.0
H377 H 0.59281 0.22396 0.49003 0.0
H378 H 0.62134 0.2906 0.47261 0.0
C379 C 0.55965 0.24489 0.41458 0.0
C380 C 0.32398 0.51949 0.6006 0.0
C381 C 0.34838 0.53095 0.62576 0.0
H382 H 0.28535 0.52858 0.57421 0.0
C383 C 0.35059 0.56001 0.64461 0.0
H384 H 0.32176 0.49751 0.58538 0.0
C385 C 0.33018 0.5781 0.63792 0.0
C386 C 0.30659 0.5673 0.61244 0.0
H387 H 0.36821 0.56896 0.66459 0.0
H388 H 0.33318 0.60085 0.65267 0.0
C389 C 0.30314 0.53735 0.5941 0.0
C390 C 0.81349 0.34954 0.76562 0.0
C391 C 0.81845 0.36139 0.79574 0.0
H392 H 0.77386 0.31965 0.72991 0.0
C393 C 0.78624 0.35208 0.81328 0.0
H394 H 0.83799 0.3563 0.75175 0.0
C395 C 0.74958 0.33183 0.80063 0.0
C396 C 0.74462 0.31982 0.77049 0.0
H397 H 0.78952 0.36103 0.83657 0.0
H398 H 0.72513 0.32523 0.81449 0.0
C399 C 0.77687 0.32855 0.7532 0.0
C400 C 0.49255 0.79978 0.9329 0.0
C401 C 0.47013 0.81095 0.94878 0.0
H402 H 0.49447 0.7536 0.91086 0.0
C403 C 0.43205 0.78317 0.95574 0.0
H404 H 0.52201 0.82088 0.92732 0.0
C405 C 0.41659 0.74463 0.94699 0.0
C406 C 0.43872 0.73355 0.9305 0.0
H407 H 0.41439 0.79127 0.9681 0.0
H408 H 0.38708 0.72371 0.95254 0.0
C409 C 0.47681 0.76144 0.9235 0.0
C410 C 0.7118 0.4946 0.11525 0.0
C411 C 0.67234 0.4719 0.12187 0.0
H412 H 0.76314 0.49528 0.1032 0.0
C413 C 0.65471 0.43133 0.12085 0.0
H414 H 0.72675 0.52587 0.11621 0.0
C415 C 0.67593 0.41406 0.11442 0.0
C416 C 0.71515 0.43674 0.10794 0.0
H417 H 0.62433 0.41262 0.12478 0.0
H418 H 0.66142 0.38275 0.11412 0.0
C419 C 0.73285 0.47717 0.10797 0.0
C420 C 0.36013 0.76951 0.52004 0.0
C421 C 0.37111 0.80141 0.53894 0.0
H422 H 0.33059 0.70761 0.51646 0.0
C423 C 0.35978 0.79522 0.56915 0.0
H424 H 0.36861 0.77378 0.49664 0.0
C425 C 0.33745 0.75762 0.58029 0.0
C426 C 0.32687 0.72563 0.56156 0.0
H427 H 0.36781 0.8195 0.58402 0.0
H428 H 0.32887 0.7536 0.60366 0.0
C429 C 0.33855 0.73184 0.53138 0.0
C430 C 0.57737 0.33772 0.6773 0.0
C431 C 0.55111 0.33903 0.69681 0.0
H432 H 0.61732 0.31907 0.67073 0.0
C433 C 0.54344 0.32037 0.72474 0.0
H434 H 0.58368 0.35202 0.65568 0.0
C435 C 0.56198 0.30077 0.73312 0.0
C436 C 0.58917 0.30044 0.71398 0.0
H437 H 0.52321 0.32109 0.74007 0.0
H438 H 0.5559 0.28691 0.75491 0.0
C439 C 0.59657 0.31897 0.68595 0.0
C440 C 0.23053 0.5224 0.88016 0.0
C441 C 0.21492 0.54571 0.87383 0.0
H442 H 0.28094 0.52063 0.89092 0.0
C443 C 0.23977 0.58618 0.87363 0.0
H444 H 0.21273 0.49115 0.8801 0.0
C445 C 0.27888 0.60272 0.87863 0.0
C446 C 0.29423 0.57946 0.88497 0.0
H447 H 0.22917 0.60545 0.86995 0.0
H448 H 0.29707 0.63397 0.87818 0.0
C449 C 0.26971 0.53916 0.8861 0.0
C450 C 0.67262 0.23856 0.02069 0.0
C451 C 0.66711 0.2073 0.03852 0.0
H452 H 0.69681 0.29991 0.01755 0.0
C453 C 0.68314 0.21505 0.0675 0.0
H454 H 0.66128 0.23385 0.99811 0.0
C455 C 0.70409 0.25294 0.07834 0.0
C456 C 0.70909 0.28397 0.06067 0.0
H457 H 0.67894 0.19179 0.08215 0.0
H458 H 0.71577 0.2578 0.10084 0.0
C459 C 0.69322 0.27647 0.03173 0.0
C460 C 0.48168 0.68695 0.22541 0.0
C461 C 0.47556 0.66992 0.19688 0.0
H462 H 0.46839 0.71958 0.25586 0.0
C463 C 0.4512 0.67332 0.17663 0.0
H464 H 0.50045 0.68466 0.24133 0.0
C465 C 0.43229 0.69246 0.1851 0.0
C466 C 0.43817 0.70936 0.2137 0.0
H467 H 0.44606 0.66028 0.15454 0.0
H468 H 0.41297 0.69395 0.16928 0.0
C469 C 0.46352 0.70699 0.23363 0.0
C470 C 0.78951 0.42772 0.37136 0.0
C471 C 0.81431 0.46668 0.37899 0.0
H472 H 0.73181 0.3802 0.3694 0.0
C473 C 0.79896 0.48799 0.39103 0.0
H474 H 0.80058 0.4108 0.36174 0.0
C475 C 0.75946 0.47034 0.3958 0.0
C476 C 0.73466 0.43137 0.38794 0.0
H477 H 0.81759 0.51813 0.39708 0.0
H478 H 0.74833 0.48718 0.40543 0.0
C479 C 0.75012 0.41036 0.37554 0.0
C480 C 0.15265 0.64236 0.48342 0.0
C481 C 0.14125 0.60708 0.46898 0.0
H482 H 0.18315 0.68051 0.5197 0.0
C483 C 0.15315 0.58279 0.48106 0.0
H484 H 0.14355 0.66151 0.47508 0.0
C485 C 0.17591 0.59363 0.50699 0.0
C486 C 0.1871 0.6289 0.52149 0.0
H487 H 0.14513 0.55554 0.47034 0.0
H488 H 0.18458 0.57429 0.51569 0.0
C489 C 0.17521 0.65311 0.50926 0.0
C490 C 0.557 0.1427 0.63505 0.0
C491 C 0.57376 0.12869 0.61506 0.0
H492 H 0.56431 0.17694 0.67415 0.0
C493 C 0.61235 0.14026 0.61916 0.0
H494 H 0.52727 0.13417 0.63265 0.0
C495 C 0.63342 0.16442 0.64296 0.0
C496 C 0.61661 0.17793 0.66335 0.0
H497 H 0.62645 0.13074 0.60385 0.0
H498 H 0.66301 0.17241 0.64534 0.0
C499 C 0.5782 0.16707 0.65894 0.0
C500 C 0.4101 0.53408 0.80062 0.0
C501 C 0.44074 0.54892 0.78013 0.0
H502 H 0.38604 0.54483 0.83959 0.0
C503 C 0.47051 0.58768 0.78311 0.0
H504 H 0.38679 0.50428 0.79905 0.0
C505 C 0.47023 0.61076 0.80631 0.0
C506 C 0.44008 0.59586 0.82725 0.0
H507 H 0.49415 0.60036 0.76738 0.0
H508 H 0.49392 0.64039 0.80783 0.0
C509 C 0.40977 0.55729 0.82394 0.0
C510 C 0.88313 0.37212 0.98826 0.0
C511 C 0.89579 0.40802 0.97439 0.0
H512 H 0.85105 0.3333 0.02379 0.0
C513 C 0.88466 0.43276 0.9869 0.0
H514 H 0.89038 0.35191 0.979 0.0
C515 C 0.8615 0.42182 0.01261 0.0
C516 C 0.84913 0.38597 0.02652 0.0
H517 H 0.8942 0.46084 0.97706 0.0
H518 H 0.85354 0.44157 0.02166 0.0
C519 C 0.86029 0.36133 0.01397 0.0
C520 C 0.42357 0.87741 0.12182 0.0
C521 C 0.45978 0.88308 0.11535 0.0
H522 H 0.37428 0.85073 0.15001 0.0
C523 C 0.47438 0.86568 0.13403 0.0
H524 H 0.41177 0.891 0.10826 0.0
C525 C 0.45278 0.84244 0.15829 0.0
C526 C 0.41624 0.83635 0.16444 0.0
H527 H 0.50214 0.86938 0.12954 0.0
H528 H 0.4646 0.82904 0.17203 0.0
C529 C 0.40212 0.8544 0.14596 0.0
C530 C 0.55955 0.42266 0.28331 0.0
C531 C 0.58867 0.46178 0.28111 0.0
H532 H 0.53679 0.36934 0.30699 0.0
C533 C 0.6191 0.47659 0.30178 0.0
H534 H 0.53615 0.41001 0.26738 0.0
C535 C 0.61964 0.45299 0.32468 0.0
C536 C 0.58982 0.41408 0.3273 0.0
H537 H 0.64195 0.50663 0.30072 0.0
H538 H 0.64307 0.46543 0.34058 0.0
C539 C 0.56007 0.39921 0.30604 0.0
C540 C 0.37096 0.86213 0.35108 0.0
C541 C 0.40752 0.87503 0.36291 0.0
H542 H 0.33017 0.83032 0.31668 0.0
C543 C 0.43103 0.86399 0.34837 0.0
H544 H 0.35175 0.86936 0.36198 0.0
C545 C 0.41845 0.84112 0.32239 0.0
C546 C 0.38214 0.8289 0.31029 0.0
H547 H 0.4595 0.8737 0.35668 0.0
H548 H 0.43746 0.83357 0.31156 0.0
C549 C 0.35849 0.83949 0.32511 0.0
C550 C 0.56083 0.41827 0.51303 0.0
C551 C 0.52442 0.39275 0.5253 0.0
H552 H 0.60105 0.42891 0.47783 0.0
C553 C 0.50067 0.35725 0.51079 0.0
H554 H 0.57976 0.44604 0.52345 0.0
C555 C 0.51267 0.34763 0.48459 0.0
C556 C 0.54892 0.37315 0.47214 0.0
H557 H 0.47279 0.33651 0.51985 0.0
H558 H 0.49342 0.31991 0.47422 0.0
C559 C 0.57297 0.40855 0.48677 0.0
C560 C 0.15099 0.5344 0.69572 0.0
C561 C 0.13821 0.55174 0.7163 0.0
H562 H 0.1838 0.54156 0.65597 0.0
C563 C 0.15079 0.59114 0.71289 0.0
H564 H 0.14173 0.50405 0.69771 0.0
C565 C 0.17454 0.61246 0.68908 0.0
C566 C 0.18663 0.59509 0.66795 0.0
H567 H 0.14225 0.60567 0.72871 0.0
H568 H 0.18323 0.64267 0.68724 0.0
C569 C 0.17495 0.55586 0.67175 0.0
C570 C 0.59902 0.15069 0.85076 0.0
C571 C 0.62087 0.13665 0.86379 0.0
H572 H 0.59384 0.1832 0.81505 0.0
C573 C 0.65535 0.14541 0.84992 0.0
H574 H 0.5725 0.14479 0.86104 0.0
C575 C 0.66763 0.16746 0.82366 0.0
C576 C 0.64577 0.1814 0.81049 0.0
H577 H 0.67261 0.1346 0.85904 0.0
H578 H 0.69428 0.17337 0.81362 0.0
C579 C 0.61135 0.17286 0.82445 0.0
C580 C 0.52385 0.64913 0.01222 0.0
C581 C 0.49952 0.61355 0.0264 0.0
H582 H 0.53225 0.68708 0.97591 0.0
C583 C 0.46308 0.58869 0.01392 0.0
H584 H 0.55175 0.66939 0.02148 0.0
C585 C 0.45159 0.59902 0.98763 0.0
C586 C 0.47631 0.63442 0.97324 0.0
H587 H 0.4437 0.56092 0.02415 0.0
H588 H 0.42354 0.57911 0.97845 0.0
C589 C 0.51248 0.65936 0.98605 0.0
C590 C 0.88755 0.47815 0.19341 0.0
C591 C 0.88065 0.46113 0.22215 0.0
H592 H 0.87134 0.47063 0.14688 0.0
C593 C 0.84938 0.42302 0.22565 0.0
H594 H 0.91146 0.50712 0.18946 0.0
C595 C 0.82743 0.40179 0.20097 0.0
C596 C 0.83516 0.41851 0.17232 0.0
H597 H 0.84197 0.40913 0.24742 0.0
H598 H 0.80443 0.37212 0.20427 0.0
C599 C 0.8647 0.4572 0.16885 0.0
loop_
_geom_bond_atom_site_label_1
_geom_bond_atom_site_label_2
_geom_bond_distance
_geom_bond_site_symmetry_2
_ccdc_geom_bond_type
C0 C1 1.384 . S
C0 C2 1.384 . S
C0 H28 0.931 . S
C1 C0 1.384 . S
C1 C4 1.382 . S
C2 C0 1.384 . S
C2 C3 1.381 . S
C2 H29 0.930 . S
C3 C2 1.381 . S
C3 C5 1.381 . S
C3 C6 1.487 . S
C4 C1 1.382 . S
C4 C5 1.387 . S
C4 H30 0.930 . S
C5 C3 1.381 . S
C5 C4 1.387 . S
C5 H31 0.931 . S
C6 C3 1.487 . S
C6 C13 1.399 . S
C6 N44 1.348 . S
C7 C8 1.384 . S
C7 C9 1.384 . S
C7 H32 0.931 . S
C8 C7 1.384 . S
C8 C11 1.382 . S
C9 C7 1.384 . S
C9 C10 1.381 . S
C9 H33 0.930 . S
C10 C9 1.381 . S
C10 C12 1.381 . S
C10 C13 1.487 . S
C11 C8 1.382 . S
C11 C12 1.387 . S
C11 H34 0.930 . S
C12 C10 1.381 . S
C12 C11 1.387 . S
C12 H35 0.931 . S
C13 C6 1.399 . S
C13 C10 1.487 . S
C13 N45 1.343 1_655 S
C14 C15 1.384 . S
C14 C16 1.384 . S
C14 H36 0.931 . S
C15 C14 1.384 . S
C15 C18 1.382 . S
C16 C14 1.384 . S
C16 C17 1.381 . S
C16 H37 0.930 . S
C17 C16 1.381 . S
C17 C19 1.381 . S
C17 C20 1.487 . S
C18 C15 1.382 . S
C18 C19 1.387 . S
C18 H38 0.930 . S
C19 C17 1.381 . S
C19 C18 1.387 . S
C19 H39 0.931 . S
C20 C17 1.487 . S
C20 C27 1.399 . S
C20 N45 1.343 . S
C21 C22 1.384 . S
C21 C23 1.384 . S
C21 H40 0.931 . S
C22 C21 1.384 . S
C22 C25 1.382 . S
C23 C21 1.384 . S
C23 C24 1.381 . S
C23 H41 0.930 . S
C24 C23 1.381 . S
C24 C26 1.381 . S
C24 C27 1.487 . S
C25 C22 1.382 . S
C25 C26 1.387 . S
C25 H42 0.930 . S
C26 C24 1.381 . S
C26 C25 1.387 . S
C26 H43 0.931 . S
C27 C20 1.399 . S
C27 C24 1.487 . S
C27 N44 1.336 1_455 S
H28 C0 0.931 . S
H29 C2 0.930 . S
H30 C4 0.930 . S
H31 C5 0.931 . S
H32 C7 0.931 . S
H33 C9 0.930 . S
H34 C11 0.930 . S
H35 C12 0.931 . S
H36 C14 0.931 . S
H37 C16 0.930 . S
H38 C18 0.930 . S
H39 C19 0.931 . S
H40 C21 0.931 . S
H41 C23 0.930 . S
H42 C25 0.930 . S
H43 C26 0.931 . S
N44 C6 1.348 . S
N44 C27 1.336 1_655 S
N45 C13 1.343 1_455 S
N45 C20 1.343 . S
C46 C47 1.384 . S
C46 C48 1.384 . S
C46 H74 0.931 . S
C47 C46 1.384 . S
C47 C50 1.382 . S
C48 C46 1.384 . S
C48 C49 1.381 . S
C48 H75 0.930 . S
C49 C48 1.381 . S
C49 C51 1.381 . S
C49 C52 1.487 . S
C50 C47 1.382 . S
C50 C51 1.387 . S
C50 H76 0.930 . S
C51 C49 1.381 . S
C51 C50 1.387 . S
C51 H77 0.931 . S
C52 C49 1.487 . S
C52 C59 1.399 . S
C52 N90 1.343 . S
C53 C54 1.384 . S
C53 C55 1.384 . S
C53 H78 0.931 . S
C54 C53 1.384 . S
C54 C57 1.382 . S
C55 C53 1.384 . S
C55 C56 1.381 . S
C55 H79 0.930 . S
C56 C55 1.381 . S
C56 C58 1.381 . S
C56 C59 1.487 . S
C57 C54 1.382 . S
C57 C58 1.387 . S
C57 H80 0.930 . S
C58 C56 1.381 . S
C58 C57 1.387 . S
C58 H81 0.931 . S
C59 C52 1.399 . S
C59 C56 1.487 . S
C59 N91 1.343 1_565 S
C60 C61 1.384 . S
C60 C62 1.384 . S
C60 H82 0.931 . S
C61 C60 1.384 . S
C61 C64 1.382 . S
C62 C60 1.384 . S
C62 C63 1.381 . S
C62 H83 0.930 . S
C63 C62 1.381 . S
C63 C65 1.381 . S
C63 C66 1.487 . S
C64 C61 1.382 . S
C64 C65 1.387 . S
C64 H84 0.930 . S
C65 C63 1.381 . S
C65 C64 1.387 . S
C65 H85 0.931 . S
C66 C63 1.487 . S
C66 C73 1.399 . S
C66 N91 1.343 . S
C67 C68 1.384 . S
C67 C69 1.384 . S
C67 H86 0.931 . S
C68 C67 1.384 . S
C68 C71 1.382 . S
C69 C67 1.384 . S
C69 C70 1.381 . S
C69 H87 0.930 . S
C70 C69 1.381 . S
C70 C72 1.381 . S
C70 C73 1.487 . S
C71 C68 1.382 . S
C71 C72 1.387 . S
C71 H88 0.930 . S
C72 C70 1.381 . S
C72 C71 1.387 . S
C72 H89 0.931 . S
C73 C66 1.399 . S
C73 C70 1.487 . S
C73 N90 1.343 1_545 S
H74 C46 0.931 . S
H75 C48 0.930 . S
H76 C50 0.930 . S
H77 C51 0.931 . S
H78 C53 0.931 . S
H79 C55 0.930 . S
H80 C57 0.930 . S
H81 C58 0.931 . S
H82 C60 0.931 . S
H83 C62 0.930 . S
H84 C64 0.930 . S
H85 C65 0.931 . S
H86 C67 0.931 . S
H87 C69 0.930 . S
H88 C71 0.930 . S
H89 C72 0.931 . S
N90 C52 1.343 . S
N90 C73 1.343 1_565 S
N91 C59 1.343 1_545 S
N91 C66 1.343 . S
C92 C93 1.384 . S
C92 C94 1.384 . S
C92 H120 0.931 . S
C93 C92 1.384 . S
C93 C96 1.382 . S
C94 C92 1.384 . S
C94 C95 1.381 . S
C94 H121 0.930 . S
C95 C94 1.381 . S
C95 C97 1.381 . S
C95 C98 1.487 . S
C96 C93 1.382 . S
C96 C97 1.387 . S
C96 H122 0.930 . S
C97 C95 1.381 . S
C97 C96 1.387 . S
C97 H123 0.931 . S
C98 C95 1.487 . S
C98 C105 1.399 . S
C98 N136 1.343 . S
C99 C100 1.384 . S
C99 C101 1.384 . S
C99 H124 0.931 . S
C100 C99 1.384 . S
C100 C103 1.382 . S
C101 C99 1.384 . S
C101 C102 1.381 . S
C101 H125 0.930 . S
C102 C101 1.381 . S
C102 C104 1.381 . S
C102 C105 1.487 . S
C103 C100 1.382 . S
C103 C104 1.387 . S
C103 H126 0.930 . S
C104 C102 1.381 . S
C104 C103 1.387 . S
C104 H127 0.931 . S
C105 C98 1.399 . S
C105 C102 1.487 . S
C105 N137 1.343 . S
C106 C107 1.384 . S
C106 C108 1.384 . S
C106 H128 0.931 . S
C107 C106 1.384 . S
C107 C110 1.382 . S
C108 C106 1.384 . S
C108 C109 1.381 . S
C108 H129 0.930 . S
C109 C108 1.381 . S
C109 C111 1.381 . S
C109 C112 1.487 . S
C110 C107 1.382 . S
C110 C111 1.387 . S
C110 H130 0.930 . S
C111 C109 1.381 . S
C111 C110 1.387 . S
C111 H131 0.931 . S
C112 C109 1.487 . S
C112 C119 1.399 . S
C112 N137 1.343 . S
C113 C114 1.384 . S
C113 C115 1.384 . S
C113 H132 0.931 . S
C114 C113 1.384 . S
C114 C117 1.382 . S
C115 C113 1.384 . S
C115 C116 1.381 . S
C115 H133 0.930 . S
C116 C115 1.381 . S
C116 C118 1.381 . S
C116 C119 1.487 . S
C117 C114 1.382 . S
C117 C118 1.387 . S
C117 H134 0.930 . S
C118 C116 1.381 . S
C118 C117 1.387 . S
C118 H135 0.931 . S
C119 C112 1.399 . S
C119 C116 1.487 . S
C119 N136 1.343 . S
H120 C92 0.931 . S
H121 C94 0.930 . S
H122 C96 0.930 . S
H123 C97 0.931 . S
H124 C99 0.931 . S
H125 C101 0.930 . S
H126 C103 0.930 . S
H127 C104 0.931 . S
H128 C106 0.931 . S
H129 C108 0.930 . S
H130 C110 0.930 . S
H131 C111 0.931 . S
H132 C113 0.931 . S
H133 C115 0.930 . S
H134 C117 0.930 . S
H135 C118 0.931 . S
N136 C98 1.343 . S
N136 C119 1.343 . S
N137 C105 1.343 . S
N137 C112 1.343 . S
C138 C139 1.384 . S
C138 C140 1.384 . S
C138 H166 0.931 . S
C139 C138 1.384 . S
C139 C142 1.382 . S
C140 C138 1.384 . S
C140 C141 1.381 . S
C140 H167 0.930 . S
C141 C140 1.381 . S
C141 C143 1.381 . S
C141 C144 1.487 . S
C142 C139 1.382 . S
C142 C143 1.387 . S
C142 H168 0.930 . S
C143 C141 1.381 . S
C143 C142 1.387 . S
C143 H169 0.931 . S
C144 C141 1.487 . S
C144 C151 1.399 . S
C144 N182 1.343 . S
C145 C146 1.384 . S
C145 C147 1.384 . S
C145 H170 0.931 . S
C146 C145 1.384 . S
C146 C149 1.382 . S
C147 C145 1.384 . S
C147 C148 1.381 . S
C147 H171 0.930 . S
C148 C147 1.381 . S
C148 C150 1.381 . S
C148 C151 1.487 . S
C149 C146 1.382 . S
C149 C150 1.387 . S
C149 H172 0.930 . S
C150 C148 1.381 . S
C150 C149 1.387 . S
C150 H173 0.931 . S
C151 C144 1.399 . S
C151 C148 1.487 . S
C151 N183 1.343 1_655 S
C152 C153 1.384 . S
C152 C154 1.384 . S
C152 H174 0.931 . S
C153 C152 1.384 . S
C153 C156 1.382 . S
C154 C152 1.384 . S
C154 C155 1.381 . S
C154 H175 0.930 . S
C155 C154 1.381 . S
C155 C157 1.381 . S
C155 C158 1.487 . S
C156 C153 1.382 . S
C156 C157 1.387 . S
C156 H176 0.930 . S
C157 C155 1.381 . S
C157 C156 1.387 . S
C157 H177 0.931 . S
C158 C155 1.487 . S
C158 C165 1.399 . S
C158 N183 1.343 . S
C159 C160 1.384 . S
C159 C161 1.384 . S
C159 H178 0.931 . S
C160 C159 1.384 . S
C160 C163 1.382 . S
C161 C159 1.384 . S
C161 C162 1.381 . S
C161 H179 0.930 . S
C162 C161 1.381 . S
C162 C164 1.381 . S
C162 C165 1.487 . S
C163 C160 1.382 . S
C163 C164 1.387 . S
C163 H180 0.930 . S
C164 C162 1.381 . S
C164 C163 1.387 . S
C164 H181 0.931 . S
C165 C158 1.399 . S
C165 C162 1.487 . S
C165 N182 1.343 1_455 S
H166 C138 0.931 . S
H167 C140 0.930 . S
H168 C142 0.930 . S
H169 C143 0.931 . S
H170 C145 0.931 . S
H171 C147 0.930 . S
H172 C149 0.930 . S
H173 C150 0.931 . S
H174 C152 0.931 . S
H175 C154 0.930 . S
H176 C156 0.930 . S
H177 C157 0.931 . S
H178 C159 0.931 . S
H179 C161 0.930 . S
H180 C163 0.930 . S
H181 C164 0.931 . S
N182 C144 1.343 . S
N182 C165 1.343 1_655 S
N183 C151 1.343 1_455 S
N183 C158 1.343 . S
C184 C185 1.384 . S
C184 C186 1.384 . S
C184 H212 0.931 . S
C185 C184 1.384 . S
C185 C188 1.382 . S
C186 C184 1.384 . S
C186 C187 1.381 . S
C186 H213 0.930 1_556 S
C187 C186 1.381 . S
C187 C189 1.381 . S
C187 C190 1.487 . S
C188 C185 1.382 . S
C188 C189 1.387 . S
C188 H214 0.930 . S
C189 C187 1.381 . S
C189 C188 1.387 . S
C189 H215 0.931 . S
C190 C187 1.487 . S
C190 C197 1.399 1_556 S
C190 N228 1.343 . S
C191 C192 1.384 . S
C191 C193 1.384 . S
C191 H216 0.931 . S
C192 C191 1.384 . S
C192 C195 1.382 . S
C193 C191 1.384 . S
C193 C194 1.381 . S
C193 H217 0.930 . S
C194 C193 1.381 . S
C194 C196 1.381 . S
C194 C197 1.487 . S
C195 C192 1.382 . S
C195 C196 1.387 . S
C195 H218 0.930 . S
C196 C194 1.381 . S
C196 C195 1.387 . S
C196 H219 0.931 . S
C197 C190 1.399 1_554 S
C197 C194 1.487 . S
C197 N229 1.343 1_565 S
C198 C199 1.384 . S
C198 C200 1.382 1_554 S
C198 H220 0.931 . S
C199 C198 1.384 . S
C199 C202 1.382 . S
C200 C198 1.382 1_556 S
C200 C201 1.379 1_556 S
C200 H221 0.934 . S
C201 C200 1.379 1_554 S
C201 C203 1.381 . S
C201 C204 1.487 . S
C202 C199 1.382 . S
C202 C203 1.387 . S
C202 H222 0.930 . S
C203 C201 1.381 . S
C203 C202 1.387 . S
C203 H223 0.931 . S
C204 C201 1.487 . S
C204 C211 1.399 1_554 S
C204 N229 1.343 . S
C205 C206 1.384 . S
C205 C207 1.384 . S
C205 H224 0.931 . S
C206 C205 1.384 . S
C206 C209 1.382 . S
C207 C205 1.384 . S
C207 C208 1.381 . S
C207 H225 0.930 . S
C208 C207 1.381 . S
C208 C210 1.381 . S
C208 C211 1.487 . S
C209 C206 1.382 . S
C209 C210 1.387 . S
C209 H226 0.930 . S
C210 C208 1.381 . S
C210 C209 1.387 . S
C210 H227 0.931 . S
C211 C204 1.399 1_556 S
C211 C208 1.487 . S
C211 N228 1.343 1_545 S
H212 C184 0.931 . S
H213 C186 0.930 1_554 S
H214 C188 0.930 . S
H215 C189 0.931 . S
H216 C191 0.931 . S
H217 C193 0.930 . S
H218 C195 0.930 . S
H219 C196 0.931 . S
H220 C198 0.931 . S
H221 C200 0.934 . S
H222 C202 0.930 . S
H223 C203 0.931 . S
H224 C205 0.931 . S
H225 C207 0.930 . S
H226 C209 0.930 . S
H227 C210 0.931 . S
N228 C190 1.343 . S
N228 C211 1.343 1_565 S
N229 C197 1.343 1_545 S
N229 C204 1.343 . S
C230 C231 1.384 . S
C230 C232 1.384 . S
C230 H258 0.931 . S
C231 C230 1.384 . S
C231 C234 1.382 . S
C232 C230 1.384 . S
C232 C233 1.381 . S
C232 H259 0.930 . S
C233 C232 1.381 . S
C233 C235 1.381 . S
C233 C236 1.487 . S
C234 C231 1.382 . S
C234 C235 1.387 . S
C234 H260 0.930 . S
C235 C233 1.381 . S
C235 C234 1.387 . S
C235 H261 0.931 . S
C236 C233 1.487 . S
C236 C243 1.399 . S
C236 N274 1.343 . S
C237 C238 1.384 . S
C237 C239 1.384 . S
C237 H262 0.931 . S
C238 C237 1.384 . S
C238 C241 1.382 . S
C239 C237 1.384 . S
C239 C240 1.381 . S
C239 H263 0.930 . S
C240 C239 1.381 . S
C240 C242 1.381 . S
C240 C243 1.487 . S
C241 C238 1.382 . S
C241 C242 1.387 . S
C241 H264 0.930 . S
C242 C240 1.381 . S
C242 C241 1.387 . S
C242 H265 0.931 . S
C243 C236 1.399 . S
C243 C240 1.487 . S
C243 N275 1.343 . S
C244 C245 1.384 . S
C244 C246 1.384 . S
C244 H266 0.931 . S
C245 C244 1.384 . S
C245 C248 1.382 . S
C246 C244 1.384 . S
C246 C247 1.381 . S
C246 H267 0.930 . S
C247 C246 1.381 . S
C247 C249 1.381 . S
C247 C250 1.487 . S
C248 C245 1.382 . S
C248 C249 1.387 . S
C248 H268 0.930 . S
C249 C247 1.381 . S
C249 C248 1.387 . S
C249 H269 0.931 . S
C250 C247 1.487 . S
C250 C257 1.399 . S
C250 N275 1.343 . S
C251 C252 1.384 . S
C251 C253 1.384 . S
C251 H270 0.931 . S
C252 C251 1.384 . S
C252 C255 1.382 . S
C253 C251 1.384 . S
C253 C254 1.381 . S
C253 H271 0.930 . S
C254 C253 1.381 . S
C254 C256 1.381 . S
C254 C257 1.487 . S
C255 C252 1.382 . S
C255 C256 1.387 . S
C255 H272 0.930 . S
C256 C254 1.381 . S
C256 C255 1.387 . S
C256 H273 0.931 . S
C257 C250 1.399 . S
C257 C254 1.487 . S
C257 N274 1.343 . S
H258 C230 0.931 . S
H259 C232 0.930 . S
H260 C234 0.930 . S
H261 C235 0.931 . S
H262 C237 0.931 . S
H263 C239 0.930 . S
H264 C241 0.930 . S
H265 C242 0.931 . S
H266 C244 0.931 . S
H267 C246 0.930 . S
H268 C248 0.930 . S
H269 C249 0.931 . S
H270 C251 0.931 . S
H271 C253 0.930 . S
H272 C255 0.930 . S
H273 C256 0.931 . S
N274 C236 1.343 . S
N274 C257 1.343 . S
N275 C243 1.343 . S
N275 C250 1.343 . S
Co276 O277 2.216 . S
Co276 O278 2.091 . S
Co276 O280 2.004 . S
Co276 O286 2.021 . S
Co276 O288 2.137 . S
Co276 O289 2.244 . S
O277 Co276 2.216 . S
O277 C284 1.247 . S
O278 Co276 2.091 . S
O278 C284 1.261 . S
C279 O288 1.247 . S
C279 O289 1.272 . S
O280 Co276 2.004 . S
O280 C285 1.259 . S
Co281 O282 2.061 . S
Co281 O287 2.052 . S
Co281 O289 2.135 . S
O282 Co281 2.061 . S
O282 C285 1.235 . S
C283 O286 1.238 . S
C283 O287 1.241 . S
C284 O277 1.247 . S
C284 O278 1.261 . S
C285 O280 1.259 . S
C285 O282 1.235 . S
O286 Co276 2.021 . S
O286 C283 1.238 . S
O287 Co281 2.052 . S
O287 C283 1.241 . S
O288 Co276 2.137 . S
O288 C279 1.247 . S
O289 Co276 2.244 . S
O289 C279 1.272 . S
O289 Co281 2.135 . S
Co290 O291 2.216 . S
Co290 O292 2.091 . S
Co290 O294 2.004 . S
Co290 O300 2.021 . S
Co290 O302 2.137 . S
Co290 O303 2.244 . S
O291 Co290 2.216 . S
O291 C298 1.247 . S
O292 Co290 2.091 . S
O292 C298 1.261 . S
C293 O302 1.247 . S
C293 O303 1.272 . S
O294 Co290 2.004 . S
O294 C299 1.259 . S
Co295 O296 2.061 . S
Co295 O301 2.052 . S
Co295 O303 2.135 . S
O296 Co295 2.061 . S
O296 C299 1.235 . S
C297 O300 1.238 . S
C297 O301 1.241 . S
C298 O291 1.247 . S
C298 O292 1.261 . S
C299 O294 1.259 . S
C299 O296 1.235 . S
O300 Co290 2.021 . S
O300 C297 1.238 . S
O301 Co295 2.052 . S
O301 C297 1.241 . S
O302 Co290 2.137 . S
O302 C293 1.247 . S
O303 Co290 2.244 . S
O303 C293 1.272 . S
O303 Co295 2.135 . S
Co304 O305 2.216 . S
Co304 O306 2.091 . S
Co304 O308 2.004 . S
Co304 O314 2.021 . S
Co304 O316 2.137 . S
Co304 O317 2.244 . S
O305 Co304 2.216 . S
O305 C312 1.247 . S
O306 Co304 2.091 . S
O306 C312 1.261 . S
C307 O316 1.247 . S
C307 O317 1.272 . S
O308 Co304 2.004 . S
O308 C313 1.259 . S
Co309 O310 2.061 . S
Co309 O315 2.052 . S
Co309 O317 2.135 . S
O310 Co309 2.061 . S
O310 C313 1.235 . S
C311 O314 1.238 . S
C311 O315 1.241 . S
C312 O305 1.247 . S
C312 O306 1.261 . S
C313 O308 1.259 . S
C313 O310 1.235 . S
O314 Co304 2.021 . S
O314 C311 1.238 . S
O315 Co309 2.052 . S
O315 C311 1.241 . S
O316 Co304 2.137 . S
O316 C307 1.247 . S
O317 Co304 2.244 . S
O317 C307 1.272 . S
O317 Co309 2.135 . S
Co318 O319 2.216 . S
Co318 O320 2.091 . S
Co318 O322 2.004 . S
Co318 O328 2.021 . S
Co318 O330 2.137 . S
Co318 O331 2.244 . S
O319 Co318 2.216 . S
O319 C326 1.247 . S
O320 Co318 2.091 . S
O320 C326 1.261 . S
C321 O330 1.247 . S
C321 O331 1.272 . S
O322 Co318 2.004 . S
O322 C327 1.259 . S
Co323 O324 2.061 . S
Co323 O329 2.052 . S
Co323 O331 2.135 . S
O324 Co323 2.061 . S
O324 C327 1.235 . S
C325 O328 1.238 . S
C325 O329 1.241 . S
C326 O319 1.247 . S
C326 O320 1.261 . S
C327 O322 1.259 . S
C327 O324 1.235 . S
O328 Co318 2.021 . S
O328 C325 1.238 . S
O329 Co323 2.052 . S
O329 C325 1.241 . S
O330 Co318 2.137 . S
O330 C321 1.247 . S
O331 Co318 2.244 . S
O331 C321 1.272 . S
O331 Co323 2.135 . S
Co332 O333 2.216 . S
Co332 O334 2.091 . S
Co332 O336 2.004 . S
Co332 O342 2.021 . S
Co332 O344 2.137 . S
Co332 O345 2.244 . S
O333 Co332 2.216 . S
O333 C340 1.247 . S
O334 Co332 2.091 . S
O334 C340 1.261 . S
C335 O344 1.247 . S
C335 O345 1.272 . S
O336 Co332 2.004 . S
O336 C341 1.259 . S
Co337 O338 2.061 . S
Co337 O343 2.052 . S
Co337 O345 2.135 . S
O338 Co337 2.061 . S
O338 C341 1.235 . S
C339 O342 1.238 . S
C339 O343 1.241 . S
C340 O333 1.247 . S
C340 O334 1.261 . S
C341 O336 1.259 . S
C341 O338 1.235 . S
O342 Co332 2.021 . S
O342 C339 1.238 . S
O343 Co337 2.052 . S
O343 C339 1.241 . S
O344 Co332 2.137 . S
O344 C335 1.247 . S
O345 Co332 2.244 . S
O345 C335 1.272 . S
O345 Co337 2.135 . S
Co346 O347 2.216 . S
Co346 O348 2.091 . S
Co346 O350 2.004 . S
Co346 O356 2.021 . S
Co346 O358 2.137 . S
Co346 O359 2.244 . S
O347 Co346 2.216 . S
O347 C354 1.247 . S
O348 Co346 2.091 . S
O348 C354 1.261 . S
C349 O358 1.247 . S
C349 O359 1.272 . S
O350 Co346 2.004 . S
O350 C355 1.259 . S
Co351 O352 2.061 . S
Co351 O357 2.052 . S
Co351 O359 2.135 . S
O352 Co351 2.061 . S
O352 C355 1.235 . S
C353 O356 1.238 . S
C353 O357 1.241 . S
C354 O347 1.247 . S
C354 O348 1.261 . S
C355 O350 1.259 . S
C355 O352 1.235 . S
O356 Co346 2.021 . S
O356 C353 1.238 . S
O357 Co351 2.052 . S
O357 C353 1.241 . S
O358 Co346 2.137 . S
O358 C349 1.247 . S
O359 Co346 2.244 . S
O359 C349 1.272 . S
O359 Co351 2.135 . S
C360 C361 1.387 . S
C360 H364 0.950 . S
C360 C369 1.390 . S
C361 C360 1.387 . S
C361 C363 1.387 . S
H362 C369 0.950 . S
C363 C361 1.387 . S
C363 C365 1.390 . S
C363 H367 0.950 . S
H364 C360 0.950 . S
C365 C363 1.390 . S
C365 C366 1.387 . S
C365 H368 0.950 . S
C366 C365 1.387 . S
C366 C369 1.387 . S
H367 C363 0.950 . S
H368 C365 0.950 . S
C369 C360 1.390 . S
C369 H362 0.950 . S
C369 C366 1.387 . S
C370 C371 1.387 . S
C370 H374 0.950 . S
C370 C379 1.390 . S
C371 C370 1.387 . S
C371 C373 1.387 . S
H372 C379 0.950 . S
C373 C371 1.387 . S
C373 C375 1.390 . S
C373 H377 0.950 . S
H374 C370 0.950 . S
C375 C373 1.390 . S
C375 C376 1.387 . S
C375 H378 0.950 . S
C376 C375 1.387 . S
C376 C379 1.387 . S
H377 C373 0.950 . S
H378 C375 0.950 . S
C379 C370 1.390 . S
C379 H372 0.950 . S
C379 C376 1.387 . S
C380 C381 1.387 . S
C380 H384 0.950 . S
C380 C389 1.390 . S
C381 C380 1.387 . S
C381 C383 1.387 . S
H382 C389 0.950 . S
C383 C381 1.387 . S
C383 C385 1.390 . S
C383 H387 0.950 . S
H384 C380 0.950 . S
C385 C383 1.390 . S
C385 C386 1.387 . S
C385 H388 0.950 . S
C386 C385 1.387 . S
C386 C389 1.387 . S
H387 C383 0.950 . S
H388 C385 0.950 . S
C389 C380 1.390 . S
C389 H382 0.950 . S
C389 C386 1.387 . S
C390 C391 1.387 . S
C390 H394 0.950 . S
C390 C399 1.390 . S
C391 C390 1.387 . S
C391 C393 1.387 . S
H392 C399 0.950 . S
C393 C391 1.387 . S
C393 C395 1.390 . S
C393 H397 0.950 . S
H394 C390 0.950 . S
C395 C393 1.390 . S
C395 C396 1.387 . S
C395 H398 0.950 . S
C396 C395 1.387 . S
C396 C399 1.387 . S
H397 C393 0.950 . S
H398 C395 0.950 . S
C399 C390 1.390 . S
C399 H392 0.950 . S
C399 C396 1.387 . S
C400 C401 1.387 . S
C400 H404 0.950 . S
C400 C409 1.390 . S
C401 C400 1.387 . S
C401 C403 1.387 . S
H402 C409 0.950 . S
C403 C401 1.387 . S
C403 C405 1.390 . S
C403 H407 0.950 . S
H404 C400 0.950 . S
C405 C403 1.390 . S
C405 C406 1.387 . S
C405 H408 0.950 . S
C406 C405 1.387 . S
C406 C409 1.387 . S
H407 C403 0.950 . S
H408 C405 0.950 . S
C409 C400 1.390 . S
C409 H402 0.950 . S
C409 C406 1.387 . S
C410 C411 1.387 . S
C410 H414 0.950 . S
C410 C419 1.390 . S
C411 C410 1.387 . S
C411 C413 1.387 . S
H412 C419 0.950 . S
C413 C411 1.387 . S
C413 C415 1.390 . S
C413 H417 0.950 . S
H414 C410 0.950 . S
C415 C413 1.390 . S
C415 C416 1.387 . S
C415 H418 0.950 . S
C416 C415 1.387 . S
C416 C419 1.387 . S
H417 C413 0.950 . S
H418 C415 0.950 . S
C419 C410 1.390 . S
C419 H412 0.950 . S
C419 C416 1.387 . S
C420 C421 1.387 . S
C420 H424 0.950 . S
C420 C429 1.390 . S
C421 C420 1.387 . S
C421 C423 1.387 . S
H422 C429 0.950 . S
C423 C421 1.387 . S
C423 C425 1.390 . S
C423 H427 0.950 . S
H424 C420 0.950 . S
C425 C423 1.390 . S
C425 C426 1.387 . S
C425 H428 0.950 . S
C426 C425 1.387 . S
C426 C429 1.387 . S
H427 C423 0.950 . S
H428 C425 0.950 . S
C429 C420 1.390 . S
C429 H422 0.950 . S
C429 C426 1.387 . S
C430 C431 1.387 . S
C430 H434 0.950 . S
C430 C439 1.390 . S
C431 C430 1.387 . S
C431 C433 1.387 . S
H432 C439 0.950 . S
C433 C431 1.387 . S
C433 C435 1.390 . S
C433 H437 0.950 . S
H434 C430 0.950 . S
C435 C433 1.390 . S
C435 C436 1.387 . S
C435 H438 0.950 . S
C436 C435 1.387 . S
C436 C439 1.387 . S
H437 C433 0.950 . S
H438 C435 0.950 . S
C439 C430 1.390 . S
C439 H432 0.950 . S
C439 C436 1.387 . S
C440 C441 1.387 . S
C440 H444 0.950 . S
C440 C449 1.390 . S
C441 C440 1.387 . S
C441 C443 1.387 . S
H442 C449 0.950 . S
C443 C441 1.387 . S
C443 C445 1.390 . S
C443 H447 0.950 . S
H444 C440 0.950 . S
C445 C443 1.390 . S
C445 C446 1.387 . S
C445 H448 0.950 . S
C446 C445 1.387 . S
C446 C449 1.387 . S
H447 C443 0.950 . S
H448 C445 0.950 . S
C449 C440 1.390 . S
C449 H442 0.950 . S
C449 C446 1.387 . S
C450 C451 1.387 . S
C450 H454 0.950 1_554 S
C450 C459 1.390 . S
C451 C450 1.387 . S
C451 C453 1.387 . S
H452 C459 0.950 . S
C453 C451 1.387 . S
C453 C455 1.390 . S
C453 H457 0.950 . S
H454 C450 0.950 1_556 S
C455 C453 1.390 . S
C455 C456 1.387 . S
C455 H458 0.950 . S
C456 C455 1.387 . S
C456 C459 1.387 . S
H457 C453 0.950 . S
H458 C455 0.950 . S
C459 C450 1.390 . S
C459 H452 0.950 . S
C459 C456 1.387 . S
C460 C461 1.387 . S
C460 H464 0.950 . S
C460 C469 1.390 . S
C461 C460 1.387 . S
C461 C463 1.387 . S
H462 C469 0.950 . S
C463 C461 1.387 . S
C463 C465 1.390 . S
C463 H467 0.950 . S
H464 C460 0.950 . S
C465 C463 1.390 . S
C465 C466 1.387 . S
C465 H468 0.950 . S
C466 C465 1.387 . S
C466 C469 1.387 . S
H467 C463 0.950 . S
H468 C465 0.950 . S
C469 C460 1.390 . S
C469 H462 0.950 . S
C469 C466 1.387 . S
C470 C471 1.387 . S
C470 H474 0.950 . S
C470 C479 1.390 . S
C471 C470 1.387 . S
C471 C473 1.387 . S
H472 C479 0.950 . S
C473 C471 1.387 . S
C473 C475 1.390 . S
C473 H477 0.950 . S
H474 C470 0.950 . S
C475 C473 1.390 . S
C475 C476 1.387 . S
C475 H478 0.950 . S
C476 C475 1.387 . S
C476 C479 1.387 . S
H477 C473 0.950 . S
H478 C475 0.950 . S
C479 C470 1.390 . S
C479 H472 0.950 . S
C479 C476 1.387 . S
C480 C481 1.387 . S
C480 H484 0.950 . S
C480 C489 1.390 . S
C481 C480 1.387 . S
C481 C483 1.387 . S
H482 C489 0.950 . S
C483 C481 1.387 . S
C483 C485 1.390 . S
C483 H487 0.950 . S
H484 C480 0.950 . S
C485 C483 1.390 . S
C485 C486 1.387 . S
C485 H488 0.950 . S
C486 C485 1.387 . S
C486 C489 1.387 . S
H487 C483 0.950 . S
H488 C485 0.950 . S
C489 C480 1.390 . S
C489 H482 0.950 . S
C489 C486 1.387 . S
C490 C491 1.387 . S
C490 H494 0.950 . S
C490 C499 1.390 . S
C491 C490 1.387 . S
C491 C493 1.387 . S
H492 C499 0.950 . S
C493 C491 1.387 . S
C493 C495 1.390 . S
C493 H497 0.950 . S
H494 C490 0.950 . S
C495 C493 1.390 . S
C495 C496 1.387 . S
C495 H498 0.950 . S
C496 C495 1.387 . S
C496 C499 1.387 . S
H497 C493 0.950 . S
H498 C495 0.950 . S
C499 C490 1.390 . S
C499 H492 0.950 . S
C499 C496 1.387 . S
C500 C501 1.387 . S
C500 H504 0.950 . S
C500 C509 1.390 . S
C501 C500 1.387 . S
C501 C503 1.387 . S
H502 C509 0.950 . S
C503 C501 1.387 . S
C503 C505 1.390 . S
C503 H507 0.950 . S
H504 C500 0.950 . S
C505 C503 1.390 . S
C505 C506 1.387 . S
C505 H508 0.950 . S
C506 C505 1.387 . S
C506 C509 1.387 . S
H507 C503 0.950 . S
H508 C505 0.950 . S
C509 C500 1.390 . S
C509 H502 0.950 . S
C509 C506 1.387 . S
C510 C511 1.387 . S
C510 H514 0.950 . S
C510 C519 1.390 . S
C511 C510 1.387 . S
C511 C513 1.387 . S
H512 C519 0.950 . S
C513 C511 1.387 . S
C513 C515 1.393 . S
C513 H517 0.950 . S
H514 C510 0.950 . S
C515 C513 1.393 . S
C515 C516 1.387 1_556 S
C515 H518 0.947 1_556 S
C516 C515 1.387 1_554 S
C516 C519 1.387 1_554 S
H517 C513 0.950 . S
H518 C515 0.947 1_554 S
C519 C510 1.390 . S
C519 H512 0.950 . S
C519 C516 1.387 1_556 S
C520 C521 1.387 . S
C520 H524 0.950 . S
C520 C529 1.390 . S
C521 C520 1.387 . S
C521 C523 1.387 . S
H522 C529 0.950 . S
C523 C521 1.387 . S
C523 C525 1.390 . S
C523 H527 0.950 . S
H524 C520 0.950 . S
C525 C523 1.390 . S
C525 C526 1.387 . S
C525 H528 0.950 . S
C526 C525 1.387 . S
C526 C529 1.387 . S
H527 C523 0.950 . S
H528 C525 0.950 . S
C529 C520 1.390 . S
C529 H522 0.950 . S
C529 C526 1.387 . S
C530 C531 1.387 . S
C530 H534 0.950 . S
C530 C539 1.390 . S
C531 C530 1.387 . S
C531 C533 1.387 . S
H532 C539 0.950 . S
C533 C531 1.387 . S
C533 C535 1.390 . S
C533 H537 0.950 . S
H534 C530 0.950 . S
C535 C533 1.390 . S
C535 C536 1.387 . S
C535 H538 0.950 . S
C536 C535 1.387 . S
C536 C539 1.387 . S
H537 C533 0.950 . S
H538 C535 0.950 . S
C539 C530 1.390 . S
C539 H532 0.950 . S
C539 C536 1.387 . S
C540 C541 1.387 . S
C540 H544 0.950 . S
C540 C549 1.390 . S
C541 C540 1.387 . S
C541 C543 1.387 . S
H542 C549 0.950 . S
C543 C541 1.387 . S
C543 C545 1.390 . S
C543 H547 0.950 . S
H544 C540 0.950 . S
C545 C543 1.390 . S
C545 C546 1.387 . S
C545 H548 0.950 . S
C546 C545 1.387 . S
C546 C549 1.387 . S
H547 C543 0.950 . S
H548 C545 0.950 . S
C549 C540 1.390 . S
C549 H542 0.950 . S
C549 C546 1.387 . S
C550 C551 1.387 . S
C550 H554 0.950 . S
C550 C559 1.390 . S
C551 C550 1.387 . S
C551 C553 1.387 . S
H552 C559 0.950 . S
C553 C551 1.387 . S
C553 C555 1.390 . S
C553 H557 0.950 . S
H554 C550 0.950 . S
C555 C553 1.390 . S
C555 C556 1.387 . S
C555 H558 0.950 . S
C556 C555 1.387 . S
C556 C559 1.387 . S
H557 C553 0.950 . S
H558 C555 0.950 . S
C559 C550 1.390 . S
C559 H552 0.950 . S
C559 C556 1.387 . S
C560 C561 1.387 . S
C560 H564 0.950 . S
C560 C569 1.390 . S
C561 C560 1.387 . S
C561 C563 1.387 . S
H562 C569 0.950 . S
C563 C561 1.387 . S
C563 C565 1.390 . S
C563 H567 0.950 . S
H564 C560 0.950 . S
C565 C563 1.390 . S
C565 C566 1.387 . S
C565 H568 0.950 . S
C566 C565 1.387 . S
C566 C569 1.387 . S
H567 C563 0.950 . S
H568 C565 0.950 . S
C569 C560 1.390 . S
C569 H562 0.950 . S
C569 C566 1.387 . S
C570 C571 1.387 . S
C570 H574 0.950 . S
C570 C579 1.390 . S
C571 C570 1.387 . S
C571 C573 1.387 . S
H572 C579 0.950 . S
C573 C571 1.387 . S
C573 C575 1.390 . S
C573 H577 0.950 . S
H574 C570 0.950 . S
C575 C573 1.390 . S
C575 C576 1.387 . S
C575 H578 0.950 . S
C576 C575 1.387 . S
C576 C579 1.387 . S
H577 C573 0.950 . S
H578 C575 0.950 . S
C579 C570 1.390 . S
C579 H572 0.950 . S
C579 C576 1.387 . S
C580 C581 1.387 . S
C580 H584 0.950 . S
C580 C589 1.390 . S
C581 C580 1.387 . S
C581 C583 1.387 . S
H582 C589 0.950 . S
C583 C581 1.387 . S
C583 C585 1.390 1_554 S
C583 H587 0.950 . S
H584 C580 0.950 . S
C585 C583 1.390 1_556 S
C585 C586 1.387 . S
C585 H588 0.950 . S
C586 C585 1.387 . S
C586 C589 1.387 1_556 S
H587 C583 0.950 . S
H588 C585 0.950 . S
C589 C580 1.390 . S
C589 H582 0.950 . S
C589 C586 1.387 1_554 S
C590 C591 1.387 . S
C590 H594 0.950 . S
C590 C599 1.390 . S
C591 C590 1.387 . S
C591 C593 1.387 . S
H592 C599 0.950 . S
C593 C591 1.387 . S
C593 C595 1.390 . S
C593 H597 0.950 . S
H594 C590 0.950 . S
C595 C593 1.390 . S
C595 C596 1.387 . S
C595 H598 0.950 . S
C596 C595 1.387 . S
C596 C599 1.387 . S
H597 C593 0.950 . S
H598 C595 0.950 . S
C599 C590 1.390 . S
C599 H592 0.950 . S
C599 C596 1.387 . S
C366 C349 1.625 . S
C361 C15 1.595 . S
C371 C61 1.595 . S
C376 C279 1.616 . S
C381 C114 1.614 . S
C386 C298 1.647 . S
C391 C139 1.613 . S
C396 C307 1.627 . S
C406 C321 1.616 . S
C401 C185 1.609 . S
C411 C245 1.613 . S
C416 C340 1.646 . S
C421 C47 1.586 . S
C426 C293 1.595 . S
C431 C100 1.608 . S
C436 C312 1.626 . S
C441 C153 1.590 . S
C446 C326 1.618 . S
C456 C335 1.595 . S
C451 C199 1.571 . S
C466 C354 1.627 . S
C461 C231 1.610 . S
C476 C284 1.617 . S
C471 C1 1.604 . S
C481 C22 1.492 . S
C486 C299 1.480 . S
C491 C68 1.493 . S
C496 C311 1.482 . S
C506 C325 1.469 . S
C501 C107 1.493 . S
C511 C146 1.494 . S
C516 C341 1.480 . S
C526 C353 1.483 . S
C521 C192 1.497 . S
C536 C283 1.471 . S
C531 C252 1.493 . S
C546 C355 1.489 . S
C541 C54 1.503 . S
C551 C93 1.502 . S
C556 C285 1.494 . S
C566 C297 1.479 . S
C561 C160 1.497 . S
C571 C206 1.500 . S
C576 C313 1.488 . S
C581 C238 1.502 . S
C586 C327 1.493 . S
C591 C8 1.499 . S
C596 C339 1.478 . S
