# Generated by pormake.
# Topology apo, (3,6)-cn, num edge types: 1
# Building blocks:
#     Node 0, Type 0, BuildingBlock: MIDCAF_clean_linker_0, # of connection points: 3
#     Node 1, Type 0, BuildingBlock: MIDCAF_clean_linker_0, # of connection points: 3
#     Node 2, Type 0, BuildingBlock: MIDCAF_clean_linker_0, # of connection points: 3
#     Node 3, Type 0, BuildingBlock: MIDCAF_clean_linker_0, # of connection points: 3
#     Node 4, Type 0, BuildingBlock: MIDCAF_clean_linker_0, # of connection points: 3
#     Node 5, Type 0, BuildingBlock: MIDCAF_clean_linker_0, # of connection points: 3
#     Node 6, Type 0, BuildingBlock: MIDCAF_clean_linker_0, # of connection points: 3
#     Node 7, Type 0, BuildingBlock: MIDCAF_clean_linker_0, # of connection points: 3
#     Node 8, Type 1, BuildingBlock: MIDCAF_clean_sbu_0, # of connection points: 6
#     Node 9, Type 1, BuildingBlock: MIDCAF_clean_sbu_0, # of connection points: 6
#     Node 10, Type 1, BuildingBlock: MIDCAF_clean_sbu_0, # of connection points: 6
#     Node 11, Type 1, BuildingBlock: MIDCAF_clean_sbu_0, # of connection points: 6
#     Edge 12, Type (0, 1), BuildingBlock: AJUNOK_clean_linker_0, # of connection points: 2
#     Edge 13, Type (0, 1), BuildingBlock: AJUNOK_clean_linker_0, # of connection points: 2
#     Edge 14, Type (0, 1), BuildingBlock: AJUNOK_clean_linker_0, # of connection points: 2
#     Edge 15, Type (0, 1), BuildingBlock: AJUNOK_clean_linker_0, # of connection points: 2
#     Edge 16, Type (0, 1), BuildingBlock: AJUNOK_clean_linker_0, # of connection points: 2
#     Edge 17, Type (0, 1), BuildingBlock: AJUNOK_clean_linker_0, # of connection points: 2
#     Edge 18, Type (0, 1), BuildingBlock: AJUNOK_clean_linker_0, # of connection points: 2
#     Edge 19, Type (0, 1), BuildingBlock: AJUNOK_clean_linker_0, # of connection points: 2
#     Edge 20, Type (0, 1), BuildingBlock: AJUNOK_clean_linker_0, # of connection points: 2
#     Edge 21, Type (0, 1), BuildingBlock: AJUNOK_clean_linker_0, # of connection points: 2
#     Edge 22, Type (0, 1), BuildingBlock: AJUNOK_clean_linker_0, # of connection points: 2
#     Edge 23, Type (0, 1), BuildingBlock: AJUNOK_clean_linker_0, # of connection points: 2
#     Edge 24, Type (0, 1), BuildingBlock: AJUNOK_clean_linker_0, # of connection points: 2
#     Edge 25, Type (0, 1), BuildingBlock: AJUNOK_clean_linker_0, # of connection points: 2
#     Edge 26, Type (0, 1), BuildingBlock: AJUNOK_clean_linker_0, # of connection points: 2
#     Edge 27, Type (0, 1), BuildingBlock: AJUNOK_clean_linker_0, # of connection points: 2
#     Edge 28, Type (0, 1), BuildingBlock: AJUNOK_clean_linker_0, # of connection points: 2
#     Edge 29, Type (0, 1), BuildingBlock: AJUNOK_clean_linker_0, # of connection points: 2
#     Edge 30, Type (0, 1), BuildingBlock: AJUNOK_clean_linker_0, # of connection points: 2
#     Edge 31, Type (0, 1), BuildingBlock: AJUNOK_clean_linker_0, # of connection points: 2
#     Edge 32, Type (0, 1), BuildingBlock: AJUNOK_clean_linker_0, # of connection points: 2
#     Edge 33, Type (0, 1), BuildingBlock: AJUNOK_clean_linker_0, # of connection points: 2
#     Edge 34, Type (0, 1), BuildingBlock: AJUNOK_clean_linker_0, # of connection points: 2
#     Edge 35, Type (0, 1), BuildingBlock: AJUNOK_clean_linker_0, # of connection points: 2
# Relax obj value: 0.088
# Max RMSD: 0.100
# Mean RMSD: 0.092
data_MOF--net-apo--node1-MIDCAF_clean_sbu_0--node2-MIDCAF_clean_linker_0--edge1-AJUNOK_clean_linker_0
_symmetry_space_group_name_H-M    P1
_symmetry_Int_Tables_number       1
_symmetry_cell_setting            triclinic
loop_
_symmetry_equiv_pos_as_xyz
'x, y, z'
_cell_length_a     33.420581
_cell_length_b     39.768164
_cell_length_c     35.516965
_cell_angle_alpha  90.035976
_cell_angle_beta   90.047524
_cell_angle_gamma 90.268126
loop_
_atom_site_label
_atom_site_type_symbol
_atom_site_fract_x
_atom_site_fract_y
_atom_site_fract_z
_atom_type_partial_charge
C0 C 0.38333 0.34144 0.52644 0.0
C1 C 0.37063 0.31244 0.54556 0.0
C2 C 0.34958 0.28749 0.52558 0.0
C3 C 0.34095 0.29183 0.48715 0.0
H4 H 0.25764 0.26689 0.40268 0.0
H5 H 0.20009 0.23971 0.37317 0.0
H6 H 0.22708 0.28902 0.26817 0.0
H7 H 0.2849 0.31681 0.29755 0.0
H8 H 0.34994 0.37848 0.29769 0.0
H9 H 0.38207 0.42746 0.26837 0.0
H10 H 0.44187 0.45002 0.37314 0.0
H11 H 0.41072 0.40149 0.40223 0.0
H12 H 0.38578 0.36833 0.4746 0.0
H13 H 0.40015 0.36082 0.54106 0.0
H14 H 0.3397 0.26481 0.53972 0.0
H15 H 0.32454 0.2723 0.47244 0.0
N16 N 0.31724 0.30754 0.40884 0.0
N17 N 0.32849 0.33867 0.35347 0.0
N18 N 0.36471 0.35101 0.40831 0.0
C19 C 0.30859 0.31359 0.3719 0.0
C20 C 0.35676 0.35745 0.37154 0.0
C21 C 0.34533 0.32618 0.42723 0.0
C22 C 0.2759 0.29445 0.35272 0.0
C23 C 0.25182 0.27182 0.3732 0.0
C24 C 0.21882 0.25614 0.35632 0.0
C25 C 0.2092 0.26237 0.31846 0.0
C26 C 0.23405 0.28372 0.29735 0.0
C27 C 0.267 0.29972 0.31433 0.0
C28 C 0.37766 0.38583 0.35238 0.0
C29 C 0.37038 0.39361 0.31431 0.0
C30 C 0.38883 0.42159 0.29745 0.0
C31 C 0.41518 0.44215 0.3182 0.0
C32 C 0.42281 0.43407 0.356 0.0
C33 C 0.40446 0.40631 0.3728 0.0
C34 C 0.35389 0.32093 0.46796 0.0
C35 C 0.3753 0.34557 0.48819 0.0
C36 C 0.10219 0.14762 0.02099 0.0
C37 C 0.11875 0.17429 0.04172 0.0
C38 C 0.1469 0.19559 0.02473 0.0
C39 C 0.15742 0.19084 0.98689 0.0
H40 H 0.22634 0.22965 0.89665 0.0
H41 H 0.28336 0.25799 0.86772 0.0
H42 H 0.28269 0.18586 0.77689 0.0
H43 H 0.22526 0.15746 0.80542 0.0
H44 H 0.15978 0.10413 0.80127 0.0
H45 H 0.13225 0.05319 0.77269 0.0
H46 H 0.03664 0.05257 0.85401 0.0
H47 H 0.06408 0.10331 0.88328 0.0
H48 H 0.09848 0.12241 0.9681 0.0
H49 H 0.08015 0.13106 0.03366 0.0
H50 H 0.15957 0.21653 0.04026 0.0
H51 H 0.17856 0.20811 0.97413 0.0
N52 N 0.17885 0.17822 0.90837 0.0
N53 N 0.16603 0.15096 0.851 0.0
N54 N 0.12711 0.13837 0.90389 0.0
C55 C 0.18764 0.17342 0.87135 0.0
C56 C 0.13556 0.13356 0.8669 0.0
C57 C 0.14863 0.16062 0.9249 0.0
C58 C 0.22133 0.19131 0.85341 0.0
C59 C 0.23814 0.21988 0.87046 0.0
C60 C 0.27063 0.23613 0.85386 0.0
C61 C 0.28705 0.22404 0.82005 0.0
C62 C 0.27002 0.19586 0.8026 0.0
C63 C 0.23734 0.17963 0.81912 0.0
C64 C 0.11449 0.10733 0.84505 0.0
C65 C 0.13214 0.09386 0.8124 0.0
C66 C 0.11629 0.06494 0.79571 0.0
C67 C 0.08228 0.04957 0.81105 0.0
C68 C 0.0626 0.06458 0.84152 0.0
C69 C 0.07862 0.09326 0.85849 0.0
C70 C 0.13965 0.16484 0.96555 0.0
C71 C 0.11248 0.14293 0.98335 0.0
C72 C 0.88173 0.14772 0.48152 0.0
C73 C 0.86642 0.17511 0.4615 0.0
C74 C 0.84162 0.19823 0.47988 0.0
C75 C 0.83215 0.19381 0.51809 0.0
H76 H 0.75743 0.22692 0.60867 0.0
H77 H 0.70503 0.25702 0.64282 0.0
H78 H 0.72095 0.19151 0.73834 0.0
H79 H 0.77302 0.16133 0.70475 0.0
H80 H 0.82366 0.09423 0.69461 0.0
H81 H 0.85348 0.04316 0.72052 0.0
H82 H 0.95593 0.05646 0.64807 0.0
H83 H 0.9257 0.10679 0.62118 0.0
H84 H 0.88538 0.12202 0.53395 0.0
H85 H 0.9013 0.12983 0.46782 0.0
H86 H 0.8299 0.21971 0.46481 0.0
H87 H 0.81301 0.212 0.53175 0.0
N88 N 0.81 0.17923 0.5969 0.0
N89 N 0.82199 0.14891 0.65249 0.0
N90 N 0.85956 0.13763 0.59855 0.0
C91 C 0.80141 0.17306 0.6338 0.0
C92 C 0.85125 0.13133 0.63522 0.0
C93 C 0.83909 0.16138 0.57904 0.0
C94 C 0.76956 0.1917 0.65387 0.0
C95 C 0.74987 0.21894 0.63695 0.0
C96 C 0.72008 0.23629 0.65653 0.0
C97 C 0.70922 0.22652 0.69318 0.0
C98 C 0.72875 0.19938 0.71008 0.0
C99 C 0.75865 0.18221 0.69071 0.0
C100 C 0.872 0.104 0.65526 0.0
C101 C 0.8529 0.0866 0.68473 0.0
C102 C 0.87001 0.05752 0.69976 0.0
C103 C 0.90658 0.0457 0.68576 0.0
C104 C 0.92728 0.0648 0.65875 0.0
C105 C 0.90994 0.09348 0.64331 0.0
C106 C 0.84793 0.16646 0.53842 0.0
C107 C 0.87272 0.14347 0.5195 0.0
C108 C 0.62351 0.3462 0.98033 0.0
C109 C 0.6333 0.31551 0.96329 0.0
C110 C 0.65373 0.29111 0.98425 0.0
C111 C 0.6644 0.2975 0.02182 0.0
H112 H 0.7383 0.26654 0.11073 0.0
H113 H 0.78764 0.23344 0.14477 0.0
H114 H 0.77933 0.30073 0.23969 0.0
H115 H 0.72961 0.33416 0.20586 0.0
H116 H 0.65688 0.38501 0.20928 0.0
H117 H 0.62178 0.43097 0.24068 0.0
H118 H 0.55867 0.4526 0.13744 0.0
H119 H 0.59263 0.4066 0.10634 0.0
H120 H 0.62482 0.37615 0.03022 0.0
H121 H 0.60707 0.36511 0.96482 0.0
H122 H 0.66103 0.26709 0.97168 0.0
H123 H 0.67994 0.27819 0.03748 0.0
N124 N 0.69082 0.31631 0.09823 0.0
N125 N 0.67853 0.34724 0.15335 0.0
N126 N 0.64271 0.35899 0.09827 0.0
C127 C 0.699 0.32268 0.13515 0.0
C128 C 0.6502 0.36542 0.13517 0.0
C129 C 0.66279 0.33453 0.07954 0.0
C130 C 0.72972 0.30296 0.15555 0.0
C131 C 0.74684 0.27443 0.13881 0.0
C132 C 0.77498 0.25535 0.15834 0.0
C133 C 0.78693 0.26449 0.19488 0.0
C134 C 0.77052 0.29324 0.21153 0.0
C135 C 0.742 0.31223 0.19212 0.0
C136 C 0.62788 0.3922 0.15511 0.0
C137 C 0.63524 0.39937 0.19336 0.0
C138 C 0.6152 0.42569 0.21139 0.0
C139 C 0.58753 0.44537 0.1915 0.0
C140 C 0.5794 0.43756 0.15368 0.0
C141 C 0.59925 0.41133 0.13573 0.0
C142 C 0.65382 0.32804 0.03921 0.0
C143 C 0.63342 0.35234 0.01788 0.0
C144 C 0.61491 0.64813 0.48011 0.0
C145 C 0.62788 0.67742 0.46181 0.0
C146 C 0.65307 0.69999 0.48103 0.0
C147 C 0.66496 0.69326 0.51823 0.0
H148 H 0.7335 0.72835 0.61247 0.0
H149 H 0.78579 0.7589 0.64674 0.0
H150 H 0.78372 0.68375 0.73418 0.0
H151 H 0.73137 0.65316 0.70052 0.0
H152 H 0.64892 0.60894 0.7066 0.0
H153 H 0.6168 0.56043 0.73659 0.0
H154 H 0.57768 0.5249 0.62768 0.0
H155 H 0.60875 0.57327 0.59779 0.0
H156 H 0.615 0.61889 0.53023 0.0
H157 H 0.59495 0.63061 0.46603 0.0
H158 H 0.66323 0.72284 0.46741 0.0
H159 H 0.68422 0.71112 0.53255 0.0
N160 N 0.68876 0.67599 0.59598 0.0
N161 N 0.67874 0.64264 0.64983 0.0
N162 N 0.64317 0.63102 0.59466 0.0
C163 C 0.6976 0.66875 0.6326 0.0
C164 C 0.65145 0.62372 0.63109 0.0
C165 C 0.66147 0.65705 0.57681 0.0
C166 C 0.72824 0.68824 0.65361 0.0
C167 C 0.74391 0.71842 0.63911 0.0
C168 C 0.77359 0.73603 0.6588 0.0
C169 C 0.78843 0.7236 0.69305 0.0
C170 C 0.77259 0.69375 0.70783 0.0
C171 C 0.74263 0.67634 0.68844 0.0
C172 C 0.63144 0.59498 0.64976 0.0
C173 C 0.63331 0.59083 0.68909 0.0
C174 C 0.61498 0.56312 0.7063 0.0
C175 C 0.59474 0.53902 0.68442 0.0
C176 C 0.59251 0.54342 0.64527 0.0
C177 C 0.61055 0.57108 0.62814 0.0
C178 C 0.65121 0.66413 0.53685 0.0
C179 C 0.62627 0.6416 0.51709 0.0
C180 C 0.8701 0.84628 0.97707 0.0
C181 C 0.85569 0.81818 0.95732 0.0
C182 C 0.83068 0.79508 0.97577 0.0
C183 C 0.81966 0.80045 0.01341 0.0
H184 H 0.7376 0.77211 0.09667 0.0
H185 H 0.68861 0.73692 0.12877 0.0
H186 H 0.71809 0.78451 0.23456 0.0
H187 H 0.76636 0.82056 0.2025 0.0
H188 H 0.81873 0.88606 0.20258 0.0
H189 H 0.85359 0.93067 0.23723 0.0
H190 H 0.92646 0.95098 0.13953 0.0
H191 H 0.89252 0.90655 0.10512 0.0
H192 H 0.87164 0.87332 0.0289 0.0
H193 H 0.89017 0.86402 0.96356 0.0
H194 H 0.81971 0.773 0.9611 0.0
H195 H 0.80018 0.7823 0.02695 0.0
N196 N 0.79572 0.81493 0.09093 0.0
N197 N 0.8047 0.84563 0.14682 0.0
N198 N 0.84167 0.85958 0.0931 0.0
C199 C 0.78616 0.82043 0.12767 0.0
C200 C 0.83249 0.86533 0.12978 0.0
C201 C 0.82349 0.83448 0.07341 0.0
C202 C 0.75619 0.79904 0.14698 0.0
C203 C 0.73379 0.7751 0.12677 0.0
C204 C 0.70591 0.75475 0.14521 0.0
C205 C 0.70023 0.75755 0.18432 0.0
C206 C 0.72204 0.78179 0.20444 0.0
C207 C 0.74974 0.80234 0.18599 0.0
C208 C 0.85307 0.89243 0.15109 0.0
C209 C 0.8425 0.89981 0.1886 0.0
C210 C 0.86244 0.92526 0.20854 0.0
C211 C 0.89357 0.94351 0.19147 0.0
C212 C 0.90365 0.93644 0.15391 0.0
C213 C 0.88378 0.91119 0.13401 0.0
C214 C 0.83418 0.82867 0.03333 0.0
C215 C 0.85962 0.85143 0.01461 0.0
C216 C 0.10922 0.84278 0.51897 0.0
C217 C 0.13077 0.82198 0.54344 0.0
C218 C 0.16155 0.80189 0.5289 0.0
C219 C 0.17169 0.80382 0.49053 0.0
H220 H 0.24581 0.76548 0.40388 0.0
H221 H 0.30009 0.73402 0.37491 0.0
H222 H 0.29316 0.79669 0.27603 0.0
H223 H 0.23843 0.82813 0.30454 0.0
H224 H 0.18875 0.90272 0.31691 0.0
H225 H 0.15971 0.95493 0.29259 0.0
H226 H 0.04892 0.93204 0.34973 0.0
H227 H 0.07831 0.88098 0.37531 0.0
H228 H 0.1018 0.86134 0.46328 0.0
H229 H 0.08481 0.85802 0.52943 0.0
H230 H 0.17829 0.78542 0.54731 0.0
H231 H 0.19625 0.78877 0.48015 0.0
N232 N 0.1931 0.81257 0.41039 0.0
N233 N 0.18598 0.84318 0.3541 0.0
N234 N 0.14395 0.85409 0.40525 0.0
C235 C 0.20472 0.81877 0.3742 0.0
C236 C 0.15535 0.86069 0.36941 0.0
C237 C 0.16263 0.83029 0.42613 0.0
C238 C 0.23776 0.7995 0.35672 0.0
C239 C 0.25577 0.77269 0.37601 0.0
C240 C 0.28695 0.75471 0.35947 0.0
C241 C 0.30101 0.76324 0.32342 0.0
C242 C 0.28277 0.78962 0.30381 0.0
C243 C 0.25153 0.80765 0.32032 0.0
C244 C 0.13601 0.8883 0.34866 0.0
C245 C 0.15797 0.90863 0.32367 0.0
C246 C 0.14137 0.9384 0.30968 0.0
C247 C 0.1025 0.94789 0.32022 0.0
C248 C 0.0794 0.9258 0.34218 0.0
C249 C 0.09616 0.89656 0.35671 0.0
C250 C 0.15082 0.82561 0.46619 0.0
C251 C 0.119 0.84455 0.48094 0.0
C252 C 0.37259 0.64313 0.02385 0.0
C253 C 0.35939 0.67189 0.04281 0.0
C254 C 0.33345 0.6942 0.02447 0.0
C255 C 0.32077 0.68756 0.98746 0.0
H256 H 0.25553 0.72502 0.89019 0.0
H257 H 0.20654 0.75679 0.85342 0.0
H258 H 0.20118 0.6768 0.77149 0.0
H259 H 0.24998 0.64498 0.80772 0.0
H260 H 0.32883 0.60169 0.79895 0.0
H261 H 0.3665 0.55787 0.76632 0.0
H262 H 0.42772 0.53401 0.86987 0.0
H263 H 0.39073 0.5775 0.90251 0.0
H264 H 0.37183 0.61435 0.97346 0.0
H265 H 0.39324 0.62592 0.03725 0.0
H266 H 0.32327 0.71671 0.03864 0.0
H267 H 0.3009 0.70518 0.97375 0.0
N268 N 0.29575 0.67035 0.90976 0.0
N269 N 0.30656 0.63803 0.85529 0.0
N270 N 0.34304 0.62694 0.90984 0.0
C271 C 0.2869 0.66319 0.8731 0.0
C272 C 0.33472 0.61987 0.87337 0.0
C273 C 0.32383 0.65197 0.92837 0.0
C274 C 0.25667 0.68251 0.85192 0.0
C275 C 0.24395 0.71422 0.86436 0.0
C276 C 0.21632 0.73252 0.84318 0.0
C277 C 0.20064 0.71919 0.80957 0.0
C278 C 0.21313 0.68754 0.79721 0.0
C279 C 0.24101 0.66943 0.81807 0.0
C280 C 0.35698 0.5933 0.85334 0.0
C281 C 0.35058 0.58729 0.81471 0.0
C282 C 0.37221 0.56242 0.79592 0.0
C283 C 0.4008 0.54343 0.81536 0.0
C284 C 0.40692 0.54923 0.85392 0.0
C285 C 0.38533 0.5739 0.87271 0.0
C286 C 0.33459 0.65888 0.96822 0.0
C287 C 0.36043 0.6367 0.9871 0.0
Zn288 Zn 0.02292 0.14216 0.31174 0.0
Zn289 Zn 0.961 0.13264 0.19639 0.0
Zn290 Zn -0.0024 0.14232 0.25354 0.0
C291 C 0.03352 0.16355 0.17683 0.0
C292 C 0.96133 0.07047 0.22306 0.0
O293 O 0.95441 0.16578 0.29328 0.0
O294 O 0.97408 0.13584 0.3419 0.0
C295 C 0.06345 0.19257 0.28006 0.0
O296 O 0.03787 0.16689 0.21261 0.0
O297 O 0.00443 0.14691 0.16379 0.0
O298 O 0.94492 0.08596 0.19643 0.0
O299 O 0.98507 0.08626 0.24591 0.0
O300 O 0.04576 0.1877 0.31092 0.0
O301 O 0.05386 0.17396 0.25156 0.0
O302 O 0.01666 0.09056 0.26988 0.0
O303 O 0.06188 0.10541 0.31194 0.0
C304 C 0.04644 0.08303 0.29142 0.0
O305 O 0.93993 0.17124 0.25644 0.0
O306 O 0.91582 0.16293 0.19928 0.0
C307 C 0.94907 0.15552 0.32732 0.0
C308 C 0.91304 0.17661 0.23109 0.0
Zn309 Zn 0.52959 0.34349 0.69679 0.0
Zn310 Zn 0.46897 0.35527 0.81834 0.0
Zn311 Zn 0.49801 0.34362 0.75561 0.0
C312 C 0.46603 0.41599 0.79028 0.0
C313 C 0.41928 0.30816 0.78276 0.0
O314 O 0.55594 0.31669 0.76066 0.0
O315 O 0.55851 0.30095 0.70119 0.0
C316 C 0.5412 0.40594 0.71825 0.0
O317 O 0.48218 0.39804 0.76416 0.0
O318 O 0.45678 0.40305 0.82139 0.0
O319 O 0.42362 0.32542 0.81223 0.0
O320 O 0.44342 0.31195 0.75487 0.0
O321 O 0.56223 0.38547 0.69993 0.0
O322 O 0.51068 0.3953 0.73685 0.0
O323 O 0.45593 0.3176 0.71666 0.0
O324 O 0.48035 0.34279 0.66625 0.0
C325 C 0.45331 0.32527 0.6815 0.0
O326 O 0.54091 0.32254 0.79759 0.0
O327 O 0.51059 0.33669 0.85055 0.0
C328 C 0.57157 0.29873 0.73434 0.0
C329 C 0.53928 0.32269 0.83386 0.0
Zn330 Zn 0.02748 0.84401 0.81531 0.0
Zn331 Zn 0.96747 0.8462 0.69514 0.0
Zn332 Zn -0.00319 0.84709 0.75341 0.0
C333 C 0.95234 0.9085 0.71862 0.0
C334 C 0.92683 0.799 0.72964 0.0
O335 O 0.05171 0.81619 0.74741 0.0
O336 O 0.06554 0.80805 0.80761 0.0
C337 C 0.03731 0.91015 0.79198 0.0
O338 O 0.98272 0.89985 0.73872 0.0
O339 O 0.93349 0.88639 0.70024 0.0
O340 O 0.94117 0.80182 0.69702 0.0
O341 O 0.94006 0.81796 0.75635 0.0
O342 O 0.04993 0.88961 0.81618 0.0
O343 O 0.01219 0.9 0.76682 0.0
O344 O 0.95212 0.82465 0.7935 0.0
O345 O 0.98258 0.83295 0.84799 0.0
C346 C 0.95237 0.82312 0.82978 0.0
O347 O 0.04036 0.82569 0.71168 0.0
O348 O 0.01434 0.85094 0.66226 0.0
C349 C 0.07243 0.80199 0.77348 0.0
C350 C 0.04276 0.83494 0.67693 0.0
Zn351 Zn 0.5415 0.63625 0.16548 0.0
Zn352 Zn 0.44559 0.64041 0.33918 0.0
Zn353 Zn 0.49639 0.64711 0.25067 0.0
C354 C 0.52615 0.67302 0.33722 0.0
C355 C 0.46252 0.57819 0.29467 0.0
O356 O 0.46338 0.66892 0.20118 0.0
O357 O 0.4924 0.65704 0.14571 0.0
C358 C 0.57138 0.67606 0.23745 0.0
O359 O 0.52839 0.67011 0.30084 0.0
O360 O 0.49687 0.66162 0.35633 0.0
O361 O 0.44833 0.5915 0.32441 0.0
O362 O 0.47977 0.59541 0.26836 0.0
O363 O 0.55958 0.66037 0.20911 0.0
O364 O 0.54906 0.67567 0.26638 0.0
O365 O 0.51166 0.59478 0.23759 0.0
O366 O 0.53996 0.58833 0.1807 0.0
C367 C 0.52776 0.57645 0.21181 0.0
O368 O 0.44411 0.67774 0.2347 0.0
O369 O 0.44138 0.65866 0.29006 0.0
C370 C 0.46443 0.67012 0.16473 0.0
C371 C 0.4273 0.67858 0.26659 0.0
C372 C 0.08943 -0.00396 0.27583 0.0
C373 C 0.08753 0.98219 0.31228 0.0
C374 C 0.07534 0.0287 0.26868 0.0
C375 C 0.05869 0.04811 0.29767 0.0
H376 H 0.10186 0.98158 0.25281 0.0
H377 H 0.07823 0.03909 0.24063 0.0
S378 S 0.05138 0.02525 0.39848 0.0
N379 N 0.07132 0.99198 0.37817 0.0
N380 N 0.04371 0.05253 0.36428 0.0
C381 C 0.05765 0.03493 0.33422 0.0
C382 C 0.07222 0.00211 0.34161 0.0
C383 C 0.39793 0.489 0.78118 0.0
C384 C 0.42116 0.51485 0.7972 0.0
C385 C 0.41446 0.45731 0.77454 0.0
C386 C 0.45458 0.4508 0.78347 0.0
H387 H 0.36603 0.49223 0.77715 0.0
H388 H 0.39487 0.437 0.76564 0.0
S389 S 0.52984 0.51202 0.8177 0.0
N390 N 0.48778 0.53362 0.81544 0.0
N391 N 0.51862 0.47357 0.80337 0.0
C392 C 0.47913 0.47731 0.79541 0.0
C393 C 0.46241 0.5096 0.80213 0.0
C394 C 0.53938 0.49705 0.69087 0.0
C395 C 0.57802 0.50796 0.70124 0.0
C396 C 0.52618 0.46441 0.6991 0.0
C397 C 0.55147 0.44171 0.71749 0.0
H398 H 0.52005 0.51331 0.67458 0.0
H399 H 0.49716 0.45623 0.6889 0.0
S400 S 0.65227 0.45922 0.75617 0.0
N401 N 0.6392 0.4946 0.73524 0.0
N402 N 0.61426 0.43303 0.75025 0.0
C403 C 0.5887 0.45296 0.73069 0.0
C404 C 0.602 0.48628 0.72278 0.0
C405 C 0.89024 -0.00184 0.22589 0.0
C406 C 0.9135 0.97199 0.21102 0.0
C407 C 0.90761 0.02934 0.23458 0.0
C408 C 0.94867 0.03539 0.2287 0.0
H409 H 0.85801 -0.00441 0.22764 0.0
H410 H 0.88812 0.04983 0.24266 0.0
S411 S 0.02322 0.97326 0.19642 0.0
N412 N 0.98047 0.95228 0.1967 0.0
N413 N 0.01248 0.01173 0.21064 0.0
C414 C 0.97269 0.00856 0.21719 0.0
C415 C 0.9552 0.97659 0.20898 0.0
C416 C 0.92434 0.00029 0.73225 0.0
C417 C 0.92006 0.01125 0.69475 0.0
C418 C 0.93554 0.96699 0.74035 0.0
C419 C 0.94272 0.94393 0.71113 0.0
H420 H 0.91891 0.0175 0.75532 0.0
H421 H 0.93826 0.95916 0.76945 0.0
S422 S 0.93304 0.95964 0.60862 0.0
N423 N 0.92173 -0.00414 0.62852 0.0
N424 N 0.94369 0.93395 0.64365 0.0
C425 C 0.9381 0.9546 0.67372 0.0
C426 C 0.92667 0.98814 0.66554 0.0
C427 C 0.52885 0.48305 0.20205 0.0
C428 C 0.56967 0.47606 0.20814 0.0
C429 C 0.51363 0.51548 0.20741 0.0
C430 C 0.53865 0.54162 0.21966 0.0
H431 H 0.50926 0.46394 0.19035 0.0
H432 H 0.48305 0.52069 0.19921 0.0
S433 S 0.64606 0.53592 0.24434 0.0
N434 N 0.6337 0.49754 0.23066 0.0
N435 N 0.60465 0.55826 0.24143 0.0
C436 C 0.57838 0.53437 0.22931 0.0
C437 C 0.59403 0.50151 0.22357 0.0
C438 C 0.40449 0.49769 0.28695 0.0
C439 C 0.43116 0.47418 0.30249 0.0
C440 C 0.41633 0.53112 0.28088 0.0
C441 C 0.45525 0.54202 0.28976 0.0
H442 H 0.37343 0.49097 0.2823 0.0
H443 H 0.39408 0.54911 0.27175 0.0
S444 S 0.53838 0.4893 0.32428 0.0
N445 N 0.49992 0.46315 0.32128 0.0
N446 N 0.52168 0.52632 0.31043 0.0
C447 C 0.48314 0.5183 0.30206 0.0
C448 C 0.47121 0.48423 0.30822 0.0
C449 C 0.04556 0.0046 0.77537 0.0
C450 C 0.0738 0.01417 0.80259 0.0
C451 C 0.03521 0.97057 0.77066 0.0
C452 C 0.05162 0.9455 0.79394 0.0
H453 H 0.03112 0.02344 0.75811 0.0
H454 H 0.01402 0.96398 0.74902 0.0
S455 S 0.13168 0.95854 0.86558 0.0
N456 N 0.12161 -0.00344 0.84979 0.0
N457 N 0.10168 0.93296 0.84212 0.0
C458 C 0.08172 0.95507 0.81981 0.0
C459 C 0.09272 0.98939 0.82395 0.0
C460 C 0.12153 0.17165 0.11237 0.0
C461 C 0.10197 0.18182 0.07917 0.0
C462 C 0.10074 0.17021 0.14688 0.0
C463 C 0.06008 0.17897 0.14863 0.0
H464 H 0.15181 0.16214 0.11104 0.0
H465 H 0.11521 0.15898 0.17107 0.0
S466 S -0.00237 0.21154 0.07046 0.0
N467 N 0.0415 0.20396 0.051 0.0
N468 N 0.00292 0.20235 0.1155 0.0
C469 C 0.04194 0.19272 0.11638 0.0
C470 C 0.0627 0.19365 0.08157 0.0
C471 C 0.37198 0.3343 0.6115 0.0
C472 C 0.38147 0.30851 0.58588 0.0
C473 C 0.39138 0.33676 0.64644 0.0
C474 C 0.42082 0.31348 0.65692 0.0
H475 H 0.35188 0.35426 0.60316 0.0
H476 H 0.38634 0.3589 0.66357 0.0
S477 S 0.45307 0.23918 0.60219 0.0
N478 N 0.41915 0.25731 0.57519 0.0
N479 N 0.45568 0.26213 0.64091 0.0
C480 C 0.42765 0.28581 0.63328 0.0
C481 C 0.40792 0.28325 0.59767 0.0
C482 C 0.58473 0.28738 0.92055 0.0
C483 C 0.61821 0.30849 0.92491 0.0
C484 C 0.5617 0.28841 0.88756 0.0
C485 C 0.57183 0.31018 0.85777 0.0
H486 H 0.57404 0.27251 0.94408 0.0
H487 H 0.53365 0.27462 0.88686 0.0
S488 S 0.66022 0.36626 0.8532 0.0
N489 N 0.66307 0.34868 0.89527 0.0
N490 N 0.62014 0.34994 0.83283 0.0
C491 C 0.60766 0.32846 0.86018 0.0
C492 C 0.63073 0.3279 0.89402 0.0
C493 C 0.86322 0.1589 0.39381 0.0
C494 C 0.87925 0.17977 0.42212 0.0
C495 C 0.88338 0.15446 0.35948 0.0
C496 C 0.91995 0.17088 0.35272 0.0
H497 H 0.83693 0.14371 0.39956 0.0
H498 H 0.87242 0.13569 0.33985 0.0
S499 S 0.97274 0.22978 0.41657 0.0
N500 N 0.93221 0.21851 0.44009 0.0
N501 N 0.96977 0.21045 0.37549 0.0
C502 C 0.93427 0.19398 0.37941 0.0
C503 C 0.91401 0.19833 0.41429 0.0
C504 C 0.89754 0.78696 0.91124 0.0
C505 C 0.8697 0.81253 0.91834 0.0
C506 C 0.92113 0.78762 0.87858 0.0
C507 C 0.91703 0.8135 0.85187 0.0
H508 H 0.90394 0.76836 0.93267 0.0
H509 H 0.94537 0.76975 0.87605 0.0
S510 S 0.84387 0.88295 0.85476 0.0
N511 N 0.83588 0.86189 0.89416 0.0
N512 N 0.87975 0.86265 0.83238 0.0
C513 C 0.8862 0.83686 0.85668 0.0
C514 C 0.86267 0.83656 0.89016 0.0
C515 C 0.6176 0.66088 0.39479 0.0
C516 C 0.61197 0.68456 0.42373 0.0
C517 C 0.59287 0.66057 0.36285 0.0
C518 C 0.56129 0.68353 0.35929 0.0
H519 H 0.63899 0.64073 0.39839 0.0
H520 H 0.59559 0.63993 0.34309 0.0
S521 S 0.53792 0.75353 0.42435 0.0
N522 N 0.57618 0.73428 0.44429 0.0
N523 N 0.52877 0.73295 0.38481 0.0
C524 C 0.55786 0.70924 0.38619 0.0
C525 C 0.58351 0.70996 0.41835 0.0
C526 C 0.40463 0.70445 0.085 0.0
C527 C 0.37585 0.67884 0.08064 0.0
C528 C 0.43103 0.70431 0.11576 0.0
C529 C 0.42854 0.67911 0.1434 0.0
H530 H 0.40947 0.72255 0.06265 0.0
H531 H 0.45566 0.72213 0.11616 0.0
S532 S 0.35588 0.60873 0.1467 0.0
N533 N 0.34439 0.62939 0.10786 0.0
N534 N 0.39325 0.62978 0.16617 0.0
C535 C 0.39739 0.65549 0.14124 0.0
C536 C 0.37116 0.65518 0.10965 0.0
C537 C 0.10176 0.79393 0.6005 0.0
C538 C 0.12022 0.82216 0.58397 0.0
C539 C 0.0806 0.7969 0.63461 0.0
C540 C 0.07766 0.8281 0.65303 0.0
H541 H 0.10052 0.7703 0.58534 0.0
H542 H 0.06325 0.77561 0.64452 0.0
S543 S 0.1259 0.90802 0.6242 0.0
N544 N 0.13848 0.88099 0.59098 0.0
N545 N 0.09865 0.88653 0.6547 0.0
C546 C 0.09933 0.8555 0.63865 0.0
C547 C 0.12068 0.85254 0.60414 0.0
C548 C 0.17072 0.22411 0.27431 0.0
C549 C 0.17113 0.24893 0.30268 0.0
C550 C 0.13474 0.20783 0.2637 0.0
C551 C 0.09817 0.21611 0.28102 0.0
H552 H 0.19861 0.2159 0.26189 0.0
H553 H 0.13607 0.18706 0.244 0.0
S554 S 0.08301 0.28287 0.35287 0.0
N555 N 0.13166 0.2833 0.34489 0.0
N556 N 0.06441 0.2536 0.32481 0.0
C557 C 0.09814 0.24283 0.3072 0.0
C558 C 0.13452 0.25893 0.31815 0.0
C559 C 0.3564 0.24338 0.8298 0.0
C560 C 0.32386 0.23968 0.80527 0.0
C561 C 0.38906 0.26318 0.81996 0.0
C562 C 0.39035 0.2804 0.78539 0.0
H563 H 0.35572 0.23218 0.85762 0.0
H564 H 0.41247 0.26681 0.84075 0.0
S565 S 0.31588 0.2741 0.70856 0.0
N566 N 0.29705 0.25069 0.74276 0.0
N567 N 0.35899 0.28898 0.72447 0.0
C568 C 0.35988 0.27451 0.75905 0.0
C569 C 0.32637 0.25387 0.76903 0.0
C570 C 0.6779 0.27923 0.7171 0.0
C571 C 0.67658 0.24408 0.71312 0.0
C572 C 0.64457 0.29696 0.73019 0.0
C573 C 0.6088 0.28011 0.73922 0.0
H574 H 0.7041 0.29322 0.70813 0.0
H575 H 0.6455 0.32421 0.7297 0.0
S576 S 0.59112 0.18825 0.73678 0.0
N577 N 0.63781 0.19286 0.72236 0.0
N578 N 0.57478 0.22653 0.74601 0.0
C579 C 0.60805 0.24492 0.73795 0.0
C580 C 0.64209 0.22677 0.72507 0.0
C581 C 0.80986 0.20882 0.21816 0.0
C582 C 0.81666 0.24359 0.21492 0.0
C583 C 0.84068 0.18712 0.22881 0.0
C584 C 0.87925 0.19946 0.23673 0.0
H585 H 0.78128 0.19811 0.20994 0.0
H586 H 0.83524 0.16024 0.22764 0.0
S587 S 0.91139 0.28859 0.23611 0.0
N588 N 0.86373 0.28971 0.2237 0.0
N589 N 0.92179 0.2486 0.2438 0.0
C590 C 0.88551 0.23434 0.2369 0.0
C591 C 0.85411 0.25654 0.22591 0.0
C592 C 0.8196 0.77474 0.72185 0.0
C593 C 0.82243 0.74065 0.7117 0.0
C594 C 0.85361 0.79294 0.73311 0.0
C595 C 0.89139 0.77765 0.73389 0.0
H596 H 0.79136 0.78779 0.71911 0.0
H597 H 0.85093 0.81977 0.73782 0.0
S598 S 0.91413 0.68863 0.71284 0.0
N599 N 0.86535 0.69173 0.70617 0.0
N600 N 0.92943 0.72635 0.72625 0.0
C601 C 0.89413 0.74318 0.72622 0.0
C602 C 0.85953 0.72452 0.71535 0.0
C603 C 0.64232 0.74889 0.22833 0.0
C604 C 0.67134 0.7353 0.2039 0.0
C605 C 0.61156 0.7287 0.2432 0.0
C606 C 0.60925 0.69443 0.23408 0.0
H607 H 0.642 0.77563 0.23415 0.0
H608 H 0.5879 0.74043 0.25931 0.0
S609 S 0.6807 0.64583 0.17585 0.0
N610 N 0.69814 0.68473 0.17499 0.0
N611 N 0.64027 0.64704 0.20243 0.0
C612 C 0.63969 0.68018 0.21203 0.0
C613 C 0.67072 0.70056 0.19694 0.0
C614 C 0.33232 0.73026 0.27068 0.0
C615 C 0.33518 0.74483 0.30682 0.0
C616 C 0.36323 0.71 0.2564 0.0
C617 C 0.39758 0.70374 0.27804 0.0
H618 H 0.30544 0.73347 0.25404 0.0
H619 H 0.35944 0.69797 0.22924 0.0
S620 S 0.42245 0.74072 0.3711 0.0
N621 N 0.37733 0.75507 0.36144 0.0
N622 N 0.43488 0.71684 0.33497 0.0
C623 C 0.40171 0.71982 0.31306 0.0
C624 C 0.37061 0.74041 0.3274 0.0
C625 C 0.17584 0.77077 0.77735 0.0
C626 C 0.16913 0.73748 0.7891 0.0
C627 C 0.14396 0.79098 0.76558 0.0
C628 C 0.10463 0.77843 0.76556 0.0
H629 H 0.2054 0.78188 0.77973 0.0
H630 H 0.14953 0.81744 0.7604 0.0
S631 S 0.07199 0.69228 0.79045 0.0
N632 N 0.12095 0.69206 0.79682 0.0
N633 N 0.06104 0.73033 0.77506 0.0
C634 C 0.09815 0.74443 0.77397 0.0
C635 C 0.13048 0.72383 0.78581 0.0
loop_
_geom_bond_atom_site_label_1
_geom_bond_atom_site_label_2
_geom_bond_distance
_geom_bond_site_symmetry_2
_ccdc_geom_bond_type
C0 C1 1.384 . S
C0 H13 0.947 . S
C0 C35 1.382 . S
C1 C0 1.384 . S
C1 C2 1.378 . S
C2 C1 1.378 . S
C2 C3 1.378 . S
C2 H14 0.952 . S
C3 C2 1.378 . S
C3 H15 0.950 . S
C3 C34 1.383 . S
H4 C23 0.947 . S
H5 C24 0.946 . S
H6 C26 0.953 . S
H7 C27 0.945 . S
H8 C29 0.952 . S
H9 C30 0.949 . S
H10 C32 0.950 . S
H11 C33 0.948 . S
H12 C35 0.951 . S
H13 C0 0.947 . S
H14 C2 0.952 . S
H15 C3 0.950 . S
N16 C19 1.382 . S
N16 C21 1.363 . S
N17 C19 1.371 . S
N17 C20 1.372 . S
N18 C20 1.361 . S
N18 C21 1.377 . S
C19 N16 1.382 . S
C19 N17 1.371 . S
C19 C22 1.480 . S
C20 N17 1.372 . S
C20 N18 1.361 . S
C20 C28 1.457 . S
C21 N16 1.363 . S
C21 N18 1.377 . S
C21 C34 1.479 . S
C22 C19 1.480 . S
C22 C23 1.383 . S
C22 C27 1.385 . S
C23 H4 0.947 . S
C23 C22 1.383 . S
C23 C24 1.388 . S
C24 H5 0.946 . S
C24 C23 1.388 . S
C24 C25 1.384 . S
C25 C24 1.384 . S
C25 C26 1.377 . S
C26 H6 0.953 . S
C26 C25 1.377 . S
C26 C27 1.369 . S
C27 H7 0.945 . S
C27 C22 1.385 . S
C27 C26 1.369 . S
C28 C20 1.457 . S
C28 C29 1.372 . S
C28 C33 1.364 . S
C29 H8 0.952 . S
C29 C28 1.372 . S
C29 C30 1.389 . S
C30 H9 0.949 . S
C30 C29 1.389 . S
C30 C31 1.387 . S
C31 C30 1.387 . S
C31 C32 1.372 . S
C32 H10 0.950 . S
C32 C31 1.372 . S
C32 C33 1.379 . S
C33 H11 0.948 . S
C33 C28 1.364 . S
C33 C32 1.379 . S
C34 C3 1.383 . S
C34 C21 1.479 . S
C34 C35 1.398 . S
C35 C0 1.382 . S
C35 H12 0.951 . S
C35 C34 1.398 . S
C36 C37 1.384 . S
C36 H49 0.947 . S
C36 C71 1.382 1_554 S
C37 C36 1.384 . S
C37 C38 1.378 . S
C38 C37 1.378 . S
C38 C39 1.378 1_554 S
C38 H50 0.952 . S
C39 C38 1.378 1_556 S
C39 H51 0.950 . S
C39 C70 1.383 . S
H40 C59 0.947 . S
H41 C60 0.946 . S
H42 C62 0.953 . S
H43 C63 0.945 . S
H44 C65 0.952 . S
H45 C66 0.949 . S
H46 C68 0.950 . S
H47 C69 0.948 . S
H48 C71 0.951 . S
H49 C36 0.947 . S
H50 C38 0.952 . S
H51 C39 0.950 . S
N52 C55 1.382 . S
N52 C57 1.363 . S
N53 C55 1.371 . S
N53 C56 1.372 . S
N54 C56 1.361 . S
N54 C57 1.377 . S
C55 N52 1.382 . S
C55 N53 1.371 . S
C55 C58 1.480 . S
C56 N53 1.372 . S
C56 N54 1.361 . S
C56 C64 1.457 . S
C57 N52 1.363 . S
C57 N54 1.377 . S
C57 C70 1.479 . S
C58 C55 1.480 . S
C58 C59 1.383 . S
C58 C63 1.385 . S
C59 H40 0.947 . S
C59 C58 1.383 . S
C59 C60 1.388 . S
C60 H41 0.946 . S
C60 C59 1.388 . S
C60 C61 1.384 . S
C61 C60 1.384 . S
C61 C62 1.377 . S
C62 H42 0.953 . S
C62 C61 1.377 . S
C62 C63 1.369 . S
C63 H43 0.945 . S
C63 C58 1.385 . S
C63 C62 1.369 . S
C64 C56 1.457 . S
C64 C65 1.372 . S
C64 C69 1.364 . S
C65 H44 0.952 . S
C65 C64 1.372 . S
C65 C66 1.389 . S
C66 H45 0.949 . S
C66 C65 1.389 . S
C66 C67 1.387 . S
C67 C66 1.387 . S
C67 C68 1.372 . S
C68 H46 0.950 . S
C68 C67 1.372 . S
C68 C69 1.379 . S
C69 H47 0.948 . S
C69 C64 1.364 . S
C69 C68 1.379 . S
C70 C39 1.383 . S
C70 C57 1.479 . S
C70 C71 1.398 . S
C71 C36 1.382 1_556 S
C71 H48 0.951 . S
C71 C70 1.398 . S
C72 C73 1.384 . S
C72 H85 0.947 . S
C72 C107 1.382 . S
C73 C72 1.384 . S
C73 C74 1.378 . S
C74 C73 1.378 . S
C74 C75 1.378 . S
C74 H86 0.952 . S
C75 C74 1.378 . S
C75 H87 0.950 . S
C75 C106 1.383 . S
H76 C95 0.947 . S
H77 C96 0.946 . S
H78 C98 0.953 . S
H79 C99 0.945 . S
H80 C101 0.952 . S
H81 C102 0.949 . S
H82 C104 0.950 . S
H83 C105 0.948 . S
H84 C107 0.951 . S
H85 C72 0.947 . S
H86 C74 0.952 . S
H87 C75 0.950 . S
N88 C91 1.382 . S
N88 C93 1.363 . S
N89 C91 1.371 . S
N89 C92 1.372 . S
N90 C92 1.361 . S
N90 C93 1.377 . S
C91 N88 1.382 . S
C91 N89 1.371 . S
C91 C94 1.480 . S
C92 N89 1.372 . S
C92 N90 1.361 . S
C92 C100 1.457 . S
C93 N88 1.363 . S
C93 N90 1.377 . S
C93 C106 1.479 . S
C94 C91 1.480 . S
C94 C95 1.383 . S
C94 C99 1.385 . S
C95 H76 0.947 . S
C95 C94 1.383 . S
C95 C96 1.388 . S
C96 H77 0.946 . S
C96 C95 1.388 . S
C96 C97 1.384 . S
C97 C96 1.384 . S
C97 C98 1.377 . S
C98 H78 0.953 . S
C98 C97 1.377 . S
C98 C99 1.369 . S
C99 H79 0.945 . S
C99 C94 1.385 . S
C99 C98 1.369 . S
C100 C92 1.457 . S
C100 C101 1.372 . S
C100 C105 1.364 . S
C101 H80 0.952 . S
C101 C100 1.372 . S
C101 C102 1.389 . S
C102 H81 0.949 . S
C102 C101 1.389 . S
C102 C103 1.387 . S
C103 C102 1.387 . S
C103 C104 1.372 . S
C104 H82 0.950 . S
C104 C103 1.372 . S
C104 C105 1.379 . S
C105 H83 0.948 . S
C105 C100 1.364 . S
C105 C104 1.379 . S
C106 C75 1.383 . S
C106 C93 1.479 . S
C106 C107 1.398 . S
C107 C72 1.382 . S
C107 H84 0.951 . S
C107 C106 1.398 . S
C108 C109 1.384 . S
C108 H121 0.947 . S
C108 C143 1.382 1_556 S
C109 C108 1.384 . S
C109 C110 1.378 . S
C110 C109 1.378 . S
C110 C111 1.378 1_556 S
C110 H122 0.952 . S
C111 C110 1.378 1_554 S
C111 H123 0.950 . S
C111 C142 1.383 . S
H112 C131 0.947 . S
H113 C132 0.946 . S
H114 C134 0.953 . S
H115 C135 0.945 . S
H116 C137 0.952 . S
H117 C138 0.949 . S
H118 C140 0.950 . S
H119 C141 0.948 . S
H120 C143 0.951 . S
H121 C108 0.947 . S
H122 C110 0.952 . S
H123 C111 0.950 . S
N124 C127 1.382 . S
N124 C129 1.363 . S
N125 C127 1.371 . S
N125 C128 1.372 . S
N126 C128 1.361 . S
N126 C129 1.377 . S
C127 N124 1.382 . S
C127 N125 1.371 . S
C127 C130 1.480 . S
C128 N125 1.372 . S
C128 N126 1.361 . S
C128 C136 1.457 . S
C129 N124 1.363 . S
C129 N126 1.377 . S
C129 C142 1.479 . S
C130 C127 1.480 . S
C130 C131 1.383 . S
C130 C135 1.385 . S
C131 H112 0.947 . S
C131 C130 1.383 . S
C131 C132 1.388 . S
C132 H113 0.946 . S
C132 C131 1.388 . S
C132 C133 1.384 . S
C133 C132 1.384 . S
C133 C134 1.377 . S
C134 H114 0.953 . S
C134 C133 1.377 . S
C134 C135 1.369 . S
C135 H115 0.945 . S
C135 C130 1.385 . S
C135 C134 1.369 . S
C136 C128 1.457 . S
C136 C137 1.372 . S
C136 C141 1.364 . S
C137 H116 0.952 . S
C137 C136 1.372 . S
C137 C138 1.389 . S
C138 H117 0.949 . S
C138 C137 1.389 . S
C138 C139 1.387 . S
C139 C138 1.387 . S
C139 C140 1.372 . S
C140 H118 0.950 . S
C140 C139 1.372 . S
C140 C141 1.379 . S
C141 H119 0.948 . S
C141 C136 1.364 . S
C141 C140 1.379 . S
C142 C111 1.383 . S
C142 C129 1.479 . S
C142 C143 1.398 . S
C143 C108 1.382 1_554 S
C143 H120 0.951 . S
C143 C142 1.398 . S
C144 C145 1.384 . S
C144 H157 0.947 . S
C144 C179 1.382 . S
C145 C144 1.384 . S
C145 C146 1.378 . S
C146 C145 1.378 . S
C146 C147 1.378 . S
C146 H158 0.952 . S
C147 C146 1.378 . S
C147 H159 0.950 . S
C147 C178 1.383 . S
H148 C167 0.947 . S
H149 C168 0.946 . S
H150 C170 0.953 . S
H151 C171 0.945 . S
H152 C173 0.952 . S
H153 C174 0.949 . S
H154 C176 0.950 . S
H155 C177 0.948 . S
H156 C179 0.951 . S
H157 C144 0.947 . S
H158 C146 0.952 . S
H159 C147 0.950 . S
N160 C163 1.382 . S
N160 C165 1.363 . S
N161 C163 1.371 . S
N161 C164 1.372 . S
N162 C164 1.361 . S
N162 C165 1.377 . S
C163 N160 1.382 . S
C163 N161 1.371 . S
C163 C166 1.480 . S
C164 N161 1.372 . S
C164 N162 1.361 . S
C164 C172 1.457 . S
C165 N160 1.363 . S
C165 N162 1.377 . S
C165 C178 1.479 . S
C166 C163 1.480 . S
C166 C167 1.383 . S
C166 C171 1.385 . S
C167 H148 0.947 . S
C167 C166 1.383 . S
C167 C168 1.388 . S
C168 H149 0.946 . S
C168 C167 1.388 . S
C168 C169 1.384 . S
C169 C168 1.384 . S
C169 C170 1.377 . S
C170 H150 0.953 . S
C170 C169 1.377 . S
C170 C171 1.369 . S
C171 H151 0.945 . S
C171 C166 1.385 . S
C171 C170 1.369 . S
C172 C164 1.457 . S
C172 C173 1.372 . S
C172 C177 1.364 . S
C173 H152 0.952 . S
C173 C172 1.372 . S
C173 C174 1.389 . S
C174 H153 0.949 . S
C174 C173 1.389 . S
C174 C175 1.387 . S
C175 C174 1.387 . S
C175 C176 1.372 . S
C176 H154 0.950 . S
C176 C175 1.372 . S
C176 C177 1.379 . S
C177 H155 0.948 . S
C177 C172 1.364 . S
C177 C176 1.379 . S
C178 C147 1.383 . S
C178 C165 1.479 . S
C178 C179 1.398 . S
C179 C144 1.382 . S
C179 H156 0.951 . S
C179 C178 1.398 . S
C180 C181 1.384 . S
C180 H193 0.947 . S
C180 C215 1.382 1_556 S
C181 C180 1.384 . S
C181 C182 1.378 . S
C182 C181 1.378 . S
C182 C183 1.378 1_556 S
C182 H194 0.952 . S
C183 C182 1.378 1_554 S
C183 H195 0.950 . S
C183 C214 1.383 . S
H184 C203 0.947 . S
H185 C204 0.946 . S
H186 C206 0.953 . S
H187 C207 0.945 . S
H188 C209 0.952 . S
H189 C210 0.949 . S
H190 C212 0.950 . S
H191 C213 0.948 . S
H192 C215 0.951 . S
H193 C180 0.947 . S
H194 C182 0.952 . S
H195 C183 0.950 . S
N196 C199 1.382 . S
N196 C201 1.363 . S
N197 C199 1.371 . S
N197 C200 1.372 . S
N198 C200 1.361 . S
N198 C201 1.377 . S
C199 N196 1.382 . S
C199 N197 1.371 . S
C199 C202 1.480 . S
C200 N197 1.372 . S
C200 N198 1.361 . S
C200 C208 1.457 . S
C201 N196 1.363 . S
C201 N198 1.377 . S
C201 C214 1.479 . S
C202 C199 1.480 . S
C202 C203 1.383 . S
C202 C207 1.385 . S
C203 H184 0.947 . S
C203 C202 1.383 . S
C203 C204 1.388 . S
C204 H185 0.946 . S
C204 C203 1.388 . S
C204 C205 1.384 . S
C205 C204 1.384 . S
C205 C206 1.377 . S
C206 H186 0.953 . S
C206 C205 1.377 . S
C206 C207 1.369 . S
C207 H187 0.945 . S
C207 C202 1.385 . S
C207 C206 1.369 . S
C208 C200 1.457 . S
C208 C209 1.372 . S
C208 C213 1.364 . S
C209 H188 0.952 . S
C209 C208 1.372 . S
C209 C210 1.389 . S
C210 H189 0.949 . S
C210 C209 1.389 . S
C210 C211 1.387 . S
C211 C210 1.387 . S
C211 C212 1.372 . S
C212 H190 0.950 . S
C212 C211 1.372 . S
C212 C213 1.379 . S
C213 H191 0.948 . S
C213 C208 1.364 . S
C213 C212 1.379 . S
C214 C183 1.383 . S
C214 C201 1.479 . S
C214 C215 1.398 . S
C215 C180 1.382 1_554 S
C215 H192 0.951 . S
C215 C214 1.398 . S
C216 C217 1.384 . S
C216 H229 0.947 . S
C216 C251 1.382 . S
C217 C216 1.384 . S
C217 C218 1.378 . S
C218 C217 1.378 . S
C218 C219 1.378 . S
C218 H230 0.952 . S
C219 C218 1.378 . S
C219 H231 0.950 . S
C219 C250 1.383 . S
H220 C239 0.947 . S
H221 C240 0.946 . S
H222 C242 0.953 . S
H223 C243 0.945 . S
H224 C245 0.952 . S
H225 C246 0.949 . S
H226 C248 0.950 . S
H227 C249 0.948 . S
H228 C251 0.951 . S
H229 C216 0.947 . S
H230 C218 0.952 . S
H231 C219 0.950 . S
N232 C235 1.382 . S
N232 C237 1.363 . S
N233 C235 1.371 . S
N233 C236 1.372 . S
N234 C236 1.361 . S
N234 C237 1.377 . S
C235 N232 1.382 . S
C235 N233 1.371 . S
C235 C238 1.480 . S
C236 N233 1.372 . S
C236 N234 1.361 . S
C236 C244 1.457 . S
C237 N232 1.363 . S
C237 N234 1.377 . S
C237 C250 1.479 . S
C238 C235 1.480 . S
C238 C239 1.383 . S
C238 C243 1.385 . S
C239 H220 0.947 . S
C239 C238 1.383 . S
C239 C240 1.388 . S
C240 H221 0.946 . S
C240 C239 1.388 . S
C240 C241 1.384 . S
C241 C240 1.384 . S
C241 C242 1.377 . S
C242 H222 0.953 . S
C242 C241 1.377 . S
C242 C243 1.369 . S
C243 H223 0.945 . S
C243 C238 1.385 . S
C243 C242 1.369 . S
C244 C236 1.457 . S
C244 C245 1.372 . S
C244 C249 1.364 . S
C245 H224 0.952 . S
C245 C244 1.372 . S
C245 C246 1.389 . S
C246 H225 0.949 . S
C246 C245 1.389 . S
C246 C247 1.387 . S
C247 C246 1.387 . S
C247 C248 1.372 . S
C248 H226 0.950 . S
C248 C247 1.372 . S
C248 C249 1.379 . S
C249 H227 0.948 . S
C249 C244 1.364 . S
C249 C248 1.379 . S
C250 C219 1.383 . S
C250 C237 1.479 . S
C250 C251 1.398 . S
C251 C216 1.382 . S
C251 H228 0.951 . S
C251 C250 1.398 . S
C252 C253 1.384 . S
C252 H265 0.947 . S
C252 C287 1.382 1_554 S
C253 C252 1.384 . S
C253 C254 1.378 . S
C254 C253 1.378 . S
C254 C255 1.378 1_554 S
C254 H266 0.952 . S
C255 C254 1.378 1_556 S
C255 H267 0.950 . S
C255 C286 1.383 . S
H256 C275 0.947 . S
H257 C276 0.946 . S
H258 C278 0.953 . S
H259 C279 0.945 . S
H260 C281 0.952 . S
H261 C282 0.949 . S
H262 C284 0.950 . S
H263 C285 0.948 . S
H264 C287 0.951 . S
H265 C252 0.947 . S
H266 C254 0.952 . S
H267 C255 0.950 . S
N268 C271 1.382 . S
N268 C273 1.363 . S
N269 C271 1.371 . S
N269 C272 1.372 . S
N270 C272 1.361 . S
N270 C273 1.377 . S
C271 N268 1.382 . S
C271 N269 1.371 . S
C271 C274 1.480 . S
C272 N269 1.372 . S
C272 N270 1.361 . S
C272 C280 1.457 . S
C273 N268 1.363 . S
C273 N270 1.377 . S
C273 C286 1.479 . S
C274 C271 1.480 . S
C274 C275 1.383 . S
C274 C279 1.385 . S
C275 H256 0.947 . S
C275 C274 1.383 . S
C275 C276 1.388 . S
C276 H257 0.946 . S
C276 C275 1.388 . S
C276 C277 1.384 . S
C277 C276 1.384 . S
C277 C278 1.377 . S
C278 H258 0.953 . S
C278 C277 1.377 . S
C278 C279 1.369 . S
C279 H259 0.945 . S
C279 C274 1.385 . S
C279 C278 1.369 . S
C280 C272 1.457 . S
C280 C281 1.372 . S
C280 C285 1.364 . S
C281 H260 0.952 . S
C281 C280 1.372 . S
C281 C282 1.389 . S
C282 H261 0.949 . S
C282 C281 1.389 . S
C282 C283 1.387 . S
C283 C282 1.387 . S
C283 C284 1.372 . S
C284 H262 0.950 . S
C284 C283 1.372 . S
C284 C285 1.379 . S
C285 H263 0.948 . S
C285 C280 1.364 . S
C285 C284 1.379 . S
C286 C255 1.383 . S
C286 C273 1.479 . S
C286 C287 1.398 . S
C287 C252 1.382 1_556 S
C287 H264 0.951 . S
C287 C286 1.398 . S
Zn288 O294 1.920 1_455 S
Zn288 O300 1.898 . S
Zn288 O303 1.905 . S
Zn289 O297 1.905 1_655 S
Zn289 O298 1.898 . S
Zn289 O306 1.920 . S
Zn290 O293 2.080 1_455 S
Zn290 O296 2.114 . S
Zn290 O299 2.120 1_455 S
Zn290 O301 2.120 . S
Zn290 O302 2.114 . S
Zn290 O305 2.080 1_455 S
C291 O296 1.166 . S
C291 O297 1.182 . S
C292 O298 1.167 . S
C292 O299 1.299 . S
O293 Zn290 2.080 1_655 S
O293 C307 1.305 . S
O294 Zn288 1.920 1_655 S
O294 C307 1.234 . S
C295 O300 1.167 . S
C295 O301 1.299 . S
O296 Zn290 2.114 . S
O296 C291 1.166 . S
O297 Zn289 1.905 1_455 S
O297 C291 1.182 . S
O298 Zn289 1.898 . S
O298 C292 1.167 . S
O299 Zn290 2.120 1_655 S
O299 C292 1.299 . S
O300 Zn288 1.898 . S
O300 C295 1.167 . S
O301 Zn290 2.120 . S
O301 C295 1.299 . S
O302 Zn290 2.114 . S
O302 C304 1.166 . S
O303 Zn288 1.905 . S
O303 C304 1.182 . S
C304 O302 1.166 . S
C304 O303 1.182 . S
O305 Zn290 2.080 1_655 S
O305 C308 1.305 . S
O306 Zn289 1.920 . S
O306 C308 1.234 . S
C307 O293 1.305 . S
C307 O294 1.234 . S
C308 O305 1.305 . S
C308 O306 1.234 . S
Zn309 O315 1.920 . S
Zn309 O321 1.898 . S
Zn309 O324 1.905 . S
Zn310 O318 1.905 . S
Zn310 O319 1.898 . S
Zn310 O327 1.920 . S
Zn311 O314 2.080 . S
Zn311 O317 2.114 . S
Zn311 O320 2.120 . S
Zn311 O322 2.120 . S
Zn311 O323 2.114 . S
Zn311 O326 2.080 . S
C312 O317 1.166 . S
C312 O318 1.182 . S
C313 O319 1.167 . S
C313 O320 1.299 . S
O314 Zn311 2.080 . S
O314 C328 1.305 . S
O315 Zn309 1.920 . S
O315 C328 1.234 . S
C316 O321 1.167 . S
C316 O322 1.299 . S
O317 Zn311 2.114 . S
O317 C312 1.166 . S
O318 Zn310 1.905 . S
O318 C312 1.182 . S
O319 Zn310 1.898 . S
O319 C313 1.167 . S
O320 Zn311 2.120 . S
O320 C313 1.299 . S
O321 Zn309 1.898 . S
O321 C316 1.167 . S
O322 Zn311 2.120 . S
O322 C316 1.299 . S
O323 Zn311 2.114 . S
O323 C325 1.166 . S
O324 Zn309 1.905 . S
O324 C325 1.182 . S
C325 O323 1.166 . S
C325 O324 1.182 . S
O326 Zn311 2.080 . S
O326 C329 1.305 . S
O327 Zn310 1.920 . S
O327 C329 1.234 . S
C328 O314 1.305 . S
C328 O315 1.234 . S
C329 O326 1.305 . S
C329 O327 1.234 . S
Zn330 O336 1.920 . S
Zn330 O342 1.898 . S
Zn330 O345 1.905 1_455 S
Zn331 O339 1.905 . S
Zn331 O340 1.898 . S
Zn331 O348 1.920 1_655 S
Zn332 O335 2.080 . S
Zn332 O338 2.114 1_455 S
Zn332 O341 2.120 1_455 S
Zn332 O343 2.120 . S
Zn332 O344 2.114 1_455 S
Zn332 O347 2.080 . S
C333 O338 1.166 . S
C333 O339 1.182 . S
C334 O340 1.167 . S
C334 O341 1.299 . S
O335 Zn332 2.080 . S
O335 C349 1.305 . S
O336 Zn330 1.920 . S
O336 C349 1.234 . S
C337 O342 1.167 . S
C337 O343 1.299 . S
O338 Zn332 2.114 1_655 S
O338 C333 1.166 . S
O339 Zn331 1.905 . S
O339 C333 1.182 . S
O340 Zn331 1.898 . S
O340 C334 1.167 . S
O341 Zn332 2.120 1_655 S
O341 C334 1.299 . S
O342 Zn330 1.898 . S
O342 C337 1.167 . S
O343 Zn332 2.120 . S
O343 C337 1.299 . S
O344 Zn332 2.114 1_655 S
O344 C346 1.166 . S
O345 Zn330 1.905 1_655 S
O345 C346 1.182 . S
C346 O344 1.166 . S
C346 O345 1.182 . S
O347 Zn332 2.080 . S
O347 C350 1.305 . S
O348 Zn331 1.920 1_455 S
O348 C350 1.234 . S
C349 O335 1.305 . S
C349 O336 1.234 . S
C350 O347 1.305 . S
C350 O348 1.234 . S
Zn351 O357 1.920 . S
Zn351 O363 1.898 . S
Zn351 O366 1.905 . S
Zn352 O360 1.905 . S
Zn352 O361 1.898 . S
Zn352 O369 1.920 . S
Zn353 O356 2.080 . S
Zn353 O359 2.114 . S
Zn353 O362 2.120 . S
Zn353 O364 2.120 . S
Zn353 O365 2.114 . S
Zn353 O368 2.080 . S
C354 O359 1.166 . S
C354 O360 1.182 . S
C355 O361 1.167 . S
C355 O362 1.299 . S
O356 Zn353 2.080 . S
O356 C370 1.305 . S
O357 Zn351 1.920 . S
O357 C370 1.234 . S
C358 O363 1.167 . S
C358 O364 1.299 . S
O359 Zn353 2.114 . S
O359 C354 1.166 . S
O360 Zn352 1.905 . S
O360 C354 1.182 . S
O361 Zn352 1.898 . S
O361 C355 1.167 . S
O362 Zn353 2.120 . S
O362 C355 1.299 . S
O363 Zn351 1.898 . S
O363 C358 1.167 . S
O364 Zn353 2.120 . S
O364 C358 1.299 . S
O365 Zn353 2.114 . S
O365 C367 1.166 . S
O366 Zn351 1.905 . S
O366 C367 1.182 . S
C367 O365 1.166 . S
C367 O366 1.182 . S
O368 Zn353 2.080 . S
O368 C371 1.305 . S
O369 Zn352 1.920 . S
O369 C371 1.234 . S
C370 O356 1.305 . S
C370 O357 1.234 . S
C371 O368 1.305 . S
C371 O369 1.234 . S
C372 C373 1.369 1_545 S
C372 C374 1.419 . S
C372 H376 0.930 1_545 S
C373 C372 1.369 1_565 S
C373 C382 1.429 1_565 S
C374 C372 1.419 . S
C374 C375 1.363 . S
C374 H377 0.929 . S
C375 C374 1.363 . S
C375 C381 1.428 . S
H376 C372 0.930 1_565 S
H377 C374 0.929 . S
S378 N379 1.613 1_545 S
S378 N380 1.610 . S
N379 S378 1.613 1_565 S
N379 C382 1.350 1_565 S
N380 S378 1.610 . S
N380 C381 1.351 . S
C381 C375 1.428 . S
C381 N380 1.351 . S
C381 C382 1.434 . S
C382 C373 1.429 1_545 S
C382 N379 1.350 1_545 S
C382 C381 1.434 . S
C383 C384 1.369 . S
C383 C385 1.419 . S
C383 H387 0.930 . S
C384 C383 1.369 . S
C384 C393 1.429 . S
C385 C383 1.419 . S
C385 C386 1.363 . S
C385 H388 0.929 . S
C386 C385 1.363 . S
C386 C392 1.428 . S
H387 C383 0.930 . S
H388 C385 0.929 . S
S389 N390 1.613 . S
S389 N391 1.610 . S
N390 S389 1.613 . S
N390 C393 1.350 . S
N391 S389 1.610 . S
N391 C392 1.351 . S
C392 C386 1.428 . S
C392 N391 1.351 . S
C392 C393 1.434 . S
C393 C384 1.429 . S
C393 N390 1.350 . S
C393 C392 1.434 . S
C394 C395 1.369 . S
C394 C396 1.419 . S
C394 H398 0.930 . S
C395 C394 1.369 . S
C395 C404 1.429 . S
C396 C394 1.419 . S
C396 C397 1.363 . S
C396 H399 0.929 . S
C397 C396 1.363 . S
C397 C403 1.428 . S
H398 C394 0.930 . S
H399 C396 0.929 . S
S400 N401 1.613 . S
S400 N402 1.610 . S
N401 S400 1.613 . S
N401 C404 1.350 . S
N402 S400 1.610 . S
N402 C403 1.351 . S
C403 C397 1.428 . S
C403 N402 1.351 . S
C403 C404 1.434 . S
C404 C395 1.429 . S
C404 N401 1.350 . S
C404 C403 1.434 . S
C405 C406 1.369 1_545 S
C405 C407 1.419 . S
C405 H409 0.930 . S
C406 C405 1.369 1_565 S
C406 C415 1.429 . S
C407 C405 1.419 . S
C407 C408 1.363 . S
C407 H410 0.929 . S
C408 C407 1.363 . S
C408 C414 1.428 . S
H409 C405 0.930 . S
H410 C407 0.929 . S
S411 N412 1.613 1_455 S
S411 N413 1.610 1_565 S
N412 S411 1.613 1_655 S
N412 C415 1.350 . S
N413 S411 1.610 1_545 S
N413 C414 1.351 1_455 S
C414 C408 1.428 . S
C414 N413 1.351 1_655 S
C414 C415 1.434 1_545 S
C415 C406 1.429 . S
C415 N412 1.350 . S
C415 C414 1.434 1_565 S
C416 C417 1.369 1_565 S
C416 C418 1.419 . S
C416 H420 0.930 1_565 S
C417 C416 1.369 1_545 S
C417 C426 1.429 1_545 S
C418 C416 1.419 . S
C418 C419 1.363 . S
C418 H421 0.929 . S
C419 C418 1.363 . S
C419 C425 1.428 . S
H420 C416 0.930 1_545 S
H421 C418 0.929 . S
S422 N423 1.613 1_565 S
S422 N424 1.610 . S
N423 S422 1.613 1_545 S
N423 C426 1.350 1_545 S
N424 S422 1.610 . S
N424 C425 1.351 . S
C425 C419 1.428 . S
C425 N424 1.351 . S
C425 C426 1.434 . S
C426 C417 1.429 1_565 S
C426 N423 1.350 1_565 S
C426 C425 1.434 . S
C427 C428 1.369 . S
C427 C429 1.419 . S
C427 H431 0.930 . S
C428 C427 1.369 . S
C428 C437 1.429 . S
C429 C427 1.419 . S
C429 C430 1.363 . S
C429 H432 0.929 . S
C430 C429 1.363 . S
C430 C436 1.428 . S
H431 C427 0.930 . S
H432 C429 0.929 . S
S433 N434 1.613 . S
S433 N435 1.610 . S
N434 S433 1.613 . S
N434 C437 1.350 . S
N435 S433 1.610 . S
N435 C436 1.351 . S
C436 C430 1.428 . S
C436 N435 1.351 . S
C436 C437 1.434 . S
C437 C428 1.429 . S
C437 N434 1.350 . S
C437 C436 1.434 . S
C438 C439 1.369 . S
C438 C440 1.419 . S
C438 H442 0.930 . S
C439 C438 1.369 . S
C439 C448 1.429 . S
C440 C438 1.419 . S
C440 C441 1.363 . S
C440 H443 0.929 . S
C441 C440 1.363 . S
C441 C447 1.428 . S
H442 C438 0.930 . S
H443 C440 0.929 . S
S444 N445 1.613 . S
S444 N446 1.610 . S
N445 S444 1.613 . S
N445 C448 1.350 . S
N446 S444 1.610 . S
N446 C447 1.351 . S
C447 C441 1.428 . S
C447 N446 1.351 . S
C447 C448 1.434 . S
C448 C439 1.429 . S
C448 N445 1.350 . S
C448 C447 1.434 . S
C449 C450 1.369 . S
C449 C451 1.419 1_545 S
C449 H453 0.930 . S
C450 C449 1.369 . S
C450 C459 1.429 1_545 S
C451 C449 1.419 1_565 S
C451 C452 1.363 . S
C451 H454 0.929 . S
C452 C451 1.363 . S
C452 C458 1.428 . S
H453 C449 0.930 . S
H454 C451 0.929 . S
S455 N456 1.613 . S
S455 N457 1.610 . S
N456 S455 1.613 . S
N456 C459 1.350 . S
N457 S455 1.610 . S
N457 C458 1.351 . S
C458 C452 1.428 . S
C458 N457 1.351 . S
C458 C459 1.434 . S
C459 C450 1.429 1_565 S
C459 N456 1.350 . S
C459 C458 1.434 . S
C460 C461 1.369 . S
C460 C462 1.419 . S
C460 H464 0.930 . S
C461 C460 1.369 . S
C461 C470 1.429 . S
C462 C460 1.419 . S
C462 C463 1.363 . S
C462 H465 0.929 . S
C463 C462 1.363 . S
C463 C469 1.428 . S
H464 C460 0.930 . S
H465 C462 0.929 . S
S466 N467 1.613 1_655 S
S466 N468 1.610 . S
N467 S466 1.613 1_455 S
N467 C470 1.350 . S
N468 S466 1.610 . S
N468 C469 1.351 1_655 S
C469 C463 1.428 . S
C469 N468 1.351 1_455 S
C469 C470 1.434 . S
C470 C461 1.429 . S
C470 N467 1.350 . S
C470 C469 1.434 . S
C471 C472 1.369 . S
C471 C473 1.419 . S
C471 H475 0.930 . S
C472 C471 1.369 . S
C472 C481 1.429 . S
C473 C471 1.419 . S
C473 C474 1.363 . S
C473 H476 0.929 . S
C474 C473 1.363 . S
C474 C480 1.428 . S
H475 C471 0.930 . S
H476 C473 0.929 . S
S477 N478 1.613 . S
S477 N479 1.610 . S
N478 S477 1.613 . S
N478 C481 1.350 . S
N479 S477 1.610 . S
N479 C480 1.351 . S
C480 C474 1.428 . S
C480 N479 1.351 . S
C480 C481 1.434 . S
C481 C472 1.429 . S
C481 N478 1.350 . S
C481 C480 1.434 . S
C482 C483 1.369 . S
C482 C484 1.419 . S
C482 H486 0.930 . S
C483 C482 1.369 . S
C483 C492 1.429 . S
C484 C482 1.419 . S
C484 C485 1.363 . S
C484 H487 0.929 . S
C485 C484 1.363 . S
C485 C491 1.428 . S
H486 C482 0.930 . S
H487 C484 0.929 . S
S488 N489 1.613 . S
S488 N490 1.610 . S
N489 S488 1.613 . S
N489 C492 1.350 . S
N490 S488 1.610 . S
N490 C491 1.351 . S
C491 C485 1.428 . S
C491 N490 1.351 . S
C491 C492 1.434 . S
C492 C483 1.429 . S
C492 N489 1.350 . S
C492 C491 1.434 . S
C493 C494 1.369 . S
C493 C495 1.419 . S
C493 H497 0.930 . S
C494 C493 1.369 . S
C494 C503 1.429 . S
C495 C493 1.419 . S
C495 C496 1.363 . S
C495 H498 0.929 . S
C496 C495 1.363 . S
C496 C502 1.428 . S
H497 C493 0.930 . S
H498 C495 0.929 . S
S499 N500 1.613 1_455 S
S499 N501 1.610 . S
N500 S499 1.613 1_655 S
N500 C503 1.350 . S
N501 S499 1.610 . S
N501 C502 1.351 1_455 S
C502 C496 1.428 . S
C502 N501 1.351 1_655 S
C502 C503 1.434 . S
C503 C494 1.429 . S
C503 N500 1.350 . S
C503 C502 1.434 . S
C504 C505 1.369 . S
C504 C506 1.419 . S
C504 H508 0.930 . S
C505 C504 1.369 . S
C505 C514 1.429 . S
C506 C504 1.419 . S
C506 C507 1.363 . S
C506 H509 0.929 . S
C507 C506 1.363 . S
C507 C513 1.428 . S
H508 C504 0.930 . S
H509 C506 0.929 . S
S510 N511 1.613 . S
S510 N512 1.610 . S
N511 S510 1.613 . S
N511 C514 1.350 . S
N512 S510 1.610 . S
N512 C513 1.351 . S
C513 C507 1.428 . S
C513 N512 1.351 . S
C513 C514 1.434 . S
C514 C505 1.429 . S
C514 N511 1.350 . S
C514 C513 1.434 . S
C515 C516 1.369 . S
C515 C517 1.419 . S
C515 H519 0.930 . S
C516 C515 1.369 . S
C516 C525 1.429 . S
C517 C515 1.419 . S
C517 C518 1.363 . S
C517 H520 0.929 . S
C518 C517 1.363 . S
C518 C524 1.428 . S
H519 C515 0.930 . S
H520 C517 0.929 . S
S521 N522 1.613 . S
S521 N523 1.610 . S
N522 S521 1.613 . S
N522 C525 1.350 . S
N523 S521 1.610 . S
N523 C524 1.351 . S
C524 C518 1.428 . S
C524 N523 1.351 . S
C524 C525 1.434 . S
C525 C516 1.429 . S
C525 N522 1.350 . S
C525 C524 1.434 . S
C526 C527 1.369 . S
C526 C528 1.419 . S
C526 H530 0.930 . S
C527 C526 1.369 . S
C527 C536 1.429 . S
C528 C526 1.419 . S
C528 C529 1.363 . S
C528 H531 0.929 . S
C529 C528 1.363 . S
C529 C535 1.428 . S
H530 C526 0.930 . S
H531 C528 0.929 . S
S532 N533 1.613 . S
S532 N534 1.610 . S
N533 S532 1.613 . S
N533 C536 1.350 . S
N534 S532 1.610 . S
N534 C535 1.351 . S
C535 C529 1.428 . S
C535 N534 1.351 . S
C535 C536 1.434 . S
C536 C527 1.429 . S
C536 N533 1.350 . S
C536 C535 1.434 . S
C537 C538 1.369 . S
C537 C539 1.419 . S
C537 H541 0.930 . S
C538 C537 1.369 . S
C538 C547 1.429 . S
C539 C537 1.419 . S
C539 C540 1.363 . S
C539 H542 0.929 . S
C540 C539 1.363 . S
C540 C546 1.428 . S
H541 C537 0.930 . S
H542 C539 0.929 . S
S543 N544 1.613 . S
S543 N545 1.610 . S
N544 S543 1.613 . S
N544 C547 1.350 . S
N545 S543 1.610 . S
N545 C546 1.351 . S
C546 C540 1.428 . S
C546 N545 1.351 . S
C546 C547 1.434 . S
C547 C538 1.429 . S
C547 N544 1.350 . S
C547 C546 1.434 . S
C548 C549 1.369 . S
C548 C550 1.419 . S
C548 H552 0.930 . S
C549 C548 1.369 . S
C549 C558 1.429 . S
C550 C548 1.419 . S
C550 C551 1.363 . S
C550 H553 0.929 . S
C551 C550 1.363 . S
C551 C557 1.428 . S
H552 C548 0.930 . S
H553 C550 0.929 . S
S554 N555 1.613 . S
S554 N556 1.610 . S
N555 S554 1.613 . S
N555 C558 1.350 . S
N556 S554 1.610 . S
N556 C557 1.351 . S
C557 C551 1.428 . S
C557 N556 1.351 . S
C557 C558 1.434 . S
C558 C549 1.429 . S
C558 N555 1.350 . S
C558 C557 1.434 . S
C559 C560 1.369 . S
C559 C561 1.419 . S
C559 H563 0.930 . S
C560 C559 1.369 . S
C560 C569 1.429 . S
C561 C559 1.419 . S
C561 C562 1.363 . S
C561 H564 0.929 . S
C562 C561 1.363 . S
C562 C568 1.428 . S
H563 C559 0.930 . S
H564 C561 0.929 . S
S565 N566 1.613 . S
S565 N567 1.610 . S
N566 S565 1.613 . S
N566 C569 1.350 . S
N567 S565 1.610 . S
N567 C568 1.351 . S
C568 C562 1.428 . S
C568 N567 1.351 . S
C568 C569 1.434 . S
C569 C560 1.429 . S
C569 N566 1.350 . S
C569 C568 1.434 . S
C570 C571 1.369 . S
C570 C572 1.419 . S
C570 H574 0.930 . S
C571 C570 1.369 . S
C571 C580 1.429 . S
C572 C570 1.419 . S
C572 C573 1.363 . S
C572 H575 0.929 . S
C573 C572 1.363 . S
C573 C579 1.428 . S
H574 C570 0.930 . S
H575 C572 0.929 . S
S576 N577 1.613 . S
S576 N578 1.610 . S
N577 S576 1.613 . S
N577 C580 1.350 . S
N578 S576 1.610 . S
N578 C579 1.351 . S
C579 C573 1.428 . S
C579 N578 1.351 . S
C579 C580 1.434 . S
C580 C571 1.429 . S
C580 N577 1.350 . S
C580 C579 1.434 . S
C581 C582 1.369 . S
C581 C583 1.419 . S
C581 H585 0.930 . S
C582 C581 1.369 . S
C582 C591 1.429 . S
C583 C581 1.419 . S
C583 C584 1.363 . S
C583 H586 0.929 . S
C584 C583 1.363 . S
C584 C590 1.428 . S
H585 C581 0.930 . S
H586 C583 0.929 . S
S587 N588 1.613 . S
S587 N589 1.610 . S
N588 S587 1.613 . S
N588 C591 1.350 . S
N589 S587 1.610 . S
N589 C590 1.351 . S
C590 C584 1.428 . S
C590 N589 1.351 . S
C590 C591 1.434 . S
C591 C582 1.429 . S
C591 N588 1.350 . S
C591 C590 1.434 . S
C592 C593 1.369 . S
C592 C594 1.419 . S
C592 H596 0.930 . S
C593 C592 1.369 . S
C593 C602 1.429 . S
C594 C592 1.419 . S
C594 C595 1.363 . S
C594 H597 0.929 . S
C595 C594 1.363 . S
C595 C601 1.428 . S
H596 C592 0.930 . S
H597 C594 0.929 . S
S598 N599 1.613 . S
S598 N600 1.610 . S
N599 S598 1.613 . S
N599 C602 1.350 . S
N600 S598 1.610 . S
N600 C601 1.351 . S
C601 C595 1.428 . S
C601 N600 1.351 . S
C601 C602 1.434 . S
C602 C593 1.429 . S
C602 N599 1.350 . S
C602 C601 1.434 . S
C603 C604 1.369 . S
C603 C605 1.419 . S
C603 H607 0.930 . S
C604 C603 1.369 . S
C604 C613 1.429 . S
C605 C603 1.419 . S
C605 C606 1.363 . S
C605 H608 0.929 . S
C606 C605 1.363 . S
C606 C612 1.428 . S
H607 C603 0.930 . S
H608 C605 0.929 . S
S609 N610 1.613 . S
S609 N611 1.610 . S
N610 S609 1.613 . S
N610 C613 1.350 . S
N611 S609 1.610 . S
N611 C612 1.351 . S
C612 C606 1.428 . S
C612 N611 1.351 . S
C612 C613 1.434 . S
C613 C604 1.429 . S
C613 N610 1.350 . S
C613 C612 1.434 . S
C614 C615 1.369 . S
C614 C616 1.419 . S
C614 H618 0.930 . S
C615 C614 1.369 . S
C615 C624 1.429 . S
C616 C614 1.419 . S
C616 C617 1.363 . S
C616 H619 0.929 . S
C617 C616 1.363 . S
C617 C623 1.428 . S
H618 C614 0.930 . S
H619 C616 0.929 . S
S620 N621 1.613 . S
S620 N622 1.610 . S
N621 S620 1.613 . S
N621 C624 1.350 . S
N622 S620 1.610 . S
N622 C623 1.351 . S
C623 C617 1.428 . S
C623 N622 1.351 . S
C623 C624 1.434 . S
C624 C615 1.429 . S
C624 N621 1.350 . S
C624 C623 1.434 . S
C625 C626 1.369 . S
C625 C627 1.419 . S
C625 H629 0.930 . S
C626 C625 1.369 . S
C626 C635 1.429 . S
C627 C625 1.419 . S
C627 C628 1.363 . S
C627 H630 0.929 . S
C628 C627 1.363 . S
C628 C634 1.428 . S
H629 C625 0.930 . S
H630 C627 0.929 . S
S631 N632 1.613 . S
S631 N633 1.610 . S
N632 S631 1.613 . S
N632 C635 1.350 . S
N633 S631 1.610 . S
N633 C634 1.351 . S
C634 C628 1.428 . S
C634 N633 1.351 . S
C634 C635 1.434 . S
C635 C626 1.429 . S
C635 N632 1.350 . S
C635 C634 1.434 . S
C373 C247 1.458 . S
C375 C304 1.485 . S
C386 C312 1.489 . S
C384 C283 1.464 . S
C397 C316 1.469 . S
C395 C175 1.455 . S
C406 C211 1.456 . S
C408 C292 1.473 . S
C419 C333 1.484 . S
C417 C103 1.480 . S
C430 C367 1.488 . S
C428 C139 1.489 . S
C439 C31 1.471 . S
C441 C355 1.468 . S
C450 C67 1.474 . S
C452 C337 1.466 . S
C463 C291 1.335 . S
C461 C37 1.490 . S
C474 C325 1.340 . S
C472 C1 1.492 . S
C485 C329 1.343 . S
C483 C109 1.490 . S
C496 C307 1.336 . S
C494 C73 1.491 . S
C507 C346 1.345 . S
C505 C181 1.477 . S
C516 C145 1.481 . S
C518 C354 1.337 . S
C529 C370 1.343 . S
C527 C253 1.479 . S
C538 C217 1.478 . S
C540 C350 1.341 . S
C551 C295 1.306 . S
C549 C25 1.513 . S
C562 C313 1.317 . S
C560 C61 1.511 . S
C571 C97 1.498 . S
C573 C328 1.311 . S
C584 C308 1.311 . S
C582 C133 1.498 . S
C595 C334 1.314 . S
C593 C169 1.493 . S
C604 C205 1.498 . S
C606 C358 1.304 . S
C615 C241 1.484 . S
C617 C371 1.306 . S
C626 C277 1.483 . S
C628 C349 1.311 . S
