# Generated by pormake.
# Topology zzz, (3,6)-cn, num edge types: 1
# Building blocks:
#     Node 0, Type 0, BuildingBlock: BETDIP_clean_linker_0, # of connection points: 3
#     Node 1, Type 0, BuildingBlock: BETDIP_clean_linker_0, # of connection points: 3
#     Node 2, Type 0, BuildingBlock: BETDIP_clean_linker_0, # of connection points: 3
#     Node 3, Type 0, BuildingBlock: BETDIP_clean_linker_0, # of connection points: 3
#     Node 4, Type 0, BuildingBlock: BETDIP_clean_linker_0, # of connection points: 3
#     Node 5, Type 0, BuildingBlock: BETDIP_clean_linker_0, # of connection points: 3
#     Node 6, Type 0, BuildingBlock: BETDIP_clean_linker_0, # of connection points: 3
#     Node 7, Type 0, BuildingBlock: BETDIP_clean_linker_0, # of connection points: 3
#     Node 8, Type 1, BuildingBlock: KUMBUR_clean_sbu_0, # of connection points: 6
#     Node 9, Type 1, BuildingBlock: KUMBUR_clean_sbu_0, # of connection points: 6
#     Node 10, Type 1, BuildingBlock: KUMBUR_clean_sbu_0, # of connection points: 6
#     Node 11, Type 1, BuildingBlock: KUMBUR_clean_sbu_0, # of connection points: 6
#     Edge 12, Type (0, 1), BuildingBlock: EZIPEK_clean_linker_0, # of connection points: 2
#     Edge 13, Type (0, 1), BuildingBlock: EZIPEK_clean_linker_0, # of connection points: 2
#     Edge 14, Type (0, 1), BuildingBlock: EZIPEK_clean_linker_0, # of connection points: 2
#     Edge 15, Type (0, 1), BuildingBlock: EZIPEK_clean_linker_0, # of connection points: 2
#     Edge 16, Type (0, 1), BuildingBlock: EZIPEK_clean_linker_0, # of connection points: 2
#     Edge 17, Type (0, 1), BuildingBlock: EZIPEK_clean_linker_0, # of connection points: 2
#     Edge 18, Type (0, 1), BuildingBlock: EZIPEK_clean_linker_0, # of connection points: 2
#     Edge 19, Type (0, 1), BuildingBlock: EZIPEK_clean_linker_0, # of connection points: 2
#     Edge 20, Type (0, 1), BuildingBlock: EZIPEK_clean_linker_0, # of connection points: 2
#     Edge 21, Type (0, 1), BuildingBlock: EZIPEK_clean_linker_0, # of connection points: 2
#     Edge 22, Type (0, 1), BuildingBlock: EZIPEK_clean_linker_0, # of connection points: 2
#     Edge 23, Type (0, 1), BuildingBlock: EZIPEK_clean_linker_0, # of connection points: 2
#     Edge 24, Type (0, 1), BuildingBlock: EZIPEK_clean_linker_0, # of connection points: 2
#     Edge 25, Type (0, 1), BuildingBlock: EZIPEK_clean_linker_0, # of connection points: 2
#     Edge 26, Type (0, 1), BuildingBlock: EZIPEK_clean_linker_0, # of connection points: 2
#     Edge 27, Type (0, 1), BuildingBlock: EZIPEK_clean_linker_0, # of connection points: 2
#     Edge 28, Type (0, 1), BuildingBlock: EZIPEK_clean_linker_0, # of connection points: 2
#     Edge 29, Type (0, 1), BuildingBlock: EZIPEK_clean_linker_0, # of connection points: 2
#     Edge 30, Type (0, 1), BuildingBlock: EZIPEK_clean_linker_0, # of connection points: 2
#     Edge 31, Type (0, 1), BuildingBlock: EZIPEK_clean_linker_0, # of connection points: 2
#     Edge 32, Type (0, 1), BuildingBlock: EZIPEK_clean_linker_0, # of connection points: 2
#     Edge 33, Type (0, 1), BuildingBlock: EZIPEK_clean_linker_0, # of connection points: 2
#     Edge 34, Type (0, 1), BuildingBlock: EZIPEK_clean_linker_0, # of connection points: 2
#     Edge 35, Type (0, 1), BuildingBlock: EZIPEK_clean_linker_0, # of connection points: 2
# Relax obj value: 0.235
# Max RMSD: 0.183
# Mean RMSD: 0.118
data_MOF--net-zzz--node1-KUMBUR_clean_sbu_0--node2-BETDIP_clean_linker_0--edge1-EZIPEK_clean_linker_0
_symmetry_space_group_name_H-M    P1
_symmetry_Int_Tables_number       1
_symmetry_cell_setting            triclinic
loop_
_symmetry_equiv_pos_as_xyz
'x, y, z'
_cell_length_a     37.471886
_cell_length_b     37.484868
_cell_length_c     11.057933
_cell_angle_alpha  91.251914
_cell_angle_beta   89.849779
_cell_angle_gamma 90.117833
loop_
_atom_site_label
_atom_site_type_symbol
_atom_site_fract_x
_atom_site_fract_y
_atom_site_fract_z
_atom_type_partial_charge
H0 H 0.77659 0.52642 0.42473 0.0
H1 H 0.75391 0.60173 0.1461 0.0
H2 H 0.85519 0.60424 0.32602 0.0
H3 H 0.69767 0.59482 0.20104 0.0
C4 C 0.69636 0.56592 0.19709 0.0
C5 C 0.78443 0.54901 0.37138 0.0
C6 C 0.81939 0.56474 0.38905 0.0
C7 C 0.75979 0.56284 0.2835 0.0
C8 C 0.77122 0.59185 0.21512 0.0
C9 C 0.80568 0.60628 0.22452 0.0
C10 C 0.82859 0.59334 0.31527 0.0
N11 N 0.72524 0.54659 0.25496 0.0
H12 H 0.05053 0.7874 0.44551 0.0
H13 H 0.97139 0.76179 0.17446 0.0
H14 H 0.96591 0.86079 0.36969 0.0
H15 H 0.97677 0.70582 0.23558 0.0
C16 C 1.00552 0.70388 0.22552 0.0
C17 C 0.02641 0.794 0.39736 0.0
C18 C 1.00963 0.82857 0.41992 0.0
C19 C 1.01116 0.76807 0.31166 0.0
C20 C 0.9816 0.77916 0.24483 0.0
C21 C 0.96763 0.81372 0.25503 0.0
C22 C 0.97894 0.83568 0.35288 0.0
N23 N 0.02656 0.73299 0.28067 0.0
H24 H 0.75198 1.00291 0.4609 0.0
H25 H 0.77857 0.0239 0.08959 0.0
H26 H 0.67166 0.03941 0.21077 0.0
H27 H 0.82667 0.99497 0.27771 0.0
C28 C 0.83019 0.98495 0.18692 0.0
C29 C 0.74338 1.0094 0.3707 0.0
C30 C 0.70633 0.01905 0.34963 0.0
C31 C 0.76944 1.00895 0.27296 0.0
C32 C 0.75883 0.02067 0.16039 0.0
C33 C 0.7248 0.03372 0.14255 0.0
C34 C 0.69826 0.02994 0.23116 0.0
N35 N 0.8082 1.00062 0.28645 0.0
H36 H 0.51811 0.76488 0.43622 0.0
H37 H 0.59229 0.78546 0.1477 0.0
H38 H 0.59225 0.68388 0.32088 0.0
H39 H 0.54189 0.81088 0.06648 0.0
C40 C 0.53678 0.82868 0.14341 0.0
C41 C 0.53983 0.75621 0.37803 0.0
C42 C 0.55444 0.72115 0.39058 0.0
C43 C 0.55284 0.77946 0.28658 0.0
C44 C 0.58142 0.76762 0.21364 0.0
C45 C 0.59452 0.73256 0.21807 0.0
C46 C 0.58199 0.71065 0.3117 0.0
N47 N 0.53686 0.81383 0.2632 0.0
H48 H 0.28186 0.51871 0.0295 0.0
H49 H 0.30077 0.45459 0.34024 0.0
H50 H 0.1942 0.4716 0.22228 0.0
H51 H 0.3309 0.50509 0.40889 0.0
C52 C 0.34867 0.50578 0.33114 0.0
C53 C 0.27136 0.50286 0.10203 0.0
C54 C 0.23361 0.49382 0.10556 0.0
C55 C 0.29552 0.49114 0.19566 0.0
C56 C 0.2825 0.46665 0.27861 0.0
C57 C 0.24632 0.45938 0.29065 0.0
C58 C 0.22251 0.4745 0.20736 0.0
N59 N 0.33226 0.5034 0.21138 0.0
H60 H 0.06217 0.27224 0.07278 0.0
H61 H 0.99072 0.28876 0.37933 0.0
H62 H 0.99138 0.18868 0.19308 0.0
H63 H 0.99487 0.34475 0.33962 0.0
C64 C 0.02347 0.34863 0.33225 0.0
C65 C 0.04278 0.26218 0.13625 0.0
C66 C 0.02884 0.22602 0.11904 0.0
C67 C 0.02994 0.28569 0.23447 0.0
C68 C 1.0023 0.27256 0.30747 0.0
C69 C 0.98822 0.23854 0.28916 0.0
C70 C 1.00309 0.21512 0.20298 0.0
N71 N 0.04332 0.32198 0.25994 0.0
H72 H 0.27251 0.05281 1.00411 0.0
H73 H 0.23168 0.97087 0.23562 0.0
H74 H 0.32972 0.95387 0.04754 0.0
H75 H 0.1725 0.99502 0.17167 0.0
C76 C 0.18138 0.02143 0.20047 0.0
C77 C 0.27409 0.0259 0.03719 0.0
C78 C 0.30525 1.00435 0.0083 0.0
C79 C 0.24545 0.0126 0.11344 0.0
C80 C 0.25017 0.97941 0.16647 0.0
C81 C 0.28219 0.96089 0.1516 0.0
C82 C 0.30644 0.9706 0.06171 0.0
N83 N 0.21569 0.03446 0.1553 0.0
H84 H 0.46781 0.27915 0.04711 0.0
H85 H 0.54856 0.23264 0.27397 0.0
H86 H 0.5662 0.33529 0.12396 0.0
H87 H 0.48926 0.22537 0.38832 0.0
C88 C 0.48336 0.20675 0.31424 0.0
C89 C 0.49401 0.28018 0.088 0.0
C90 C 0.51654 0.3108 0.0699 0.0
C91 C 0.50527 0.25168 0.16455 0.0
C92 C 0.53921 0.25387 0.2171 0.0
C93 C 0.56019 0.28431 0.20638 0.0
C94 C 0.54942 0.3118 0.13075 0.0
N95 N 0.483 0.2215 0.1942 0.0
Tb96 Tb 0.05419 0.02009 0.85714 0.0
C97 C 0.90805 0.01856 0.65633 0.0
C98 C 0.90325 0.95908 0.57105 0.0
C99 C 0.85077 0.98814 0.65675 0.0
C100 C 0.9241 0.98898 0.60537 0.0
C101 C 0.87106 0.01909 0.67944 0.0
C102 C 0.86686 0.95812 0.60208 0.0
C103 C 0.87607 0.08235 0.72082 0.0
N104 N 0.92873 0.04807 0.67428 0.0
C105 C 0.91255 0.08041 0.694 0.0
C106 C 0.85539 0.0513 0.71721 0.0
Tb107 Tb 0.98942 0.04206 0.63823 0.0
N108 N 0.95908 0.99164 0.57369 0.0
C109 C 0.9728 0.96791 0.49076 0.0
C110 C 0.91896 0.93242 0.4988 0.0
C111 C 0.95348 0.9376 0.45532 0.0
H112 H 0.92743 0.10475 0.68521 0.0
H113 H 0.96573 0.91813 0.3963 0.0
H114 H 0.85057 0.93513 0.57828 0.0
H115 H 0.86375 0.10792 0.74046 0.0
H116 H 0.99893 0.9724 0.45219 0.0
H117 H 0.97972 0.10821 0.1772 0.0
H118 H 0.90408 0.90889 0.47046 0.0
H119 H 0.14144 0.02904 0.7589 0.0
H120 H 0.99084 0.07415 0.998 0.0
H121 H 0.19579 0.05926 0.81455 0.0
H122 H 0.82234 0.9878 0.67498 0.0
H123 H 0.02405 0.12345 0.33141 0.0
H124 H 0.10495 0.13529 0.39084 0.0
H125 H 0.82702 0.05294 0.73563 0.0
H126 H 0.17733 0.12595 0.25744 0.0
N127 N 0.04196 0.05552 0.03415 0.0
C128 C 1.01142 0.07377 0.06329 0.0
C129 C 0.03035 0.10365 0.26204 0.0
C130 C 0.06435 0.09067 0.25167 0.0
C131 C 1.00543 0.09523 0.17007 0.0
C132 C 0.06937 0.0589 0.11022 0.0
H133 H 0.20584 0.09342 1.00293 0.0
N134 N 0.11079 0.0432 0.91314 0.0
C135 C 0.17432 0.06003 0.88021 0.0
C136 C 0.11363 0.05272 0.02999 0.0
C137 C 0.14155 0.04292 0.84543 0.0
C138 C 0.18117 0.07878 0.99021 0.0
C139 C 0.15625 0.07777 0.08194 0.0
O140 O 0.09535 0.98344 0.89197 0.0
O141 O 0.01832 0.99636 0.71764 0.0
O142 O 0.95813 0.03557 0.80641 0.0
O143 O 0.99838 1.00834 0.93449 0.0
O144 O 0.06779 0.97565 0.73174 0.0
O145 O 0.0473 0.98534 1.00036 0.0
O146 O 0.97692 0.03745 0.45222 0.0
O147 O 0.02615 0.0642 0.77765 0.0
O148 O 0.08206 0.04226 0.68832 0.0
O149 O 0.04014 0.03291 0.5368 0.0
O150 O 0.99367 0.09867 0.70002 0.0
O151 O 0.98807 0.08833 0.53465 0.0
C152 C 0.03854 0.971 0.67358 0.0
C153 C 0.07572 0.92955 0.97595 0.0
C154 C 0.0379 0.87791 1.00097 0.0
C155 C 0.04314 0.91214 0.95679 0.0
C156 C 0.06751 0.85827 0.03943 0.0
C157 C 0.10527 0.91005 0.01494 0.0
C158 C 0.10135 0.87403 0.04245 0.0
C159 C 0.96473 0.01828 0.9069 0.0
C160 C 0.07722 0.96864 0.97769 0.0
C161 C 0.15448 0.10995 0.2312 0.0
C162 C 0.10763 0.11565 0.31836 0.0
C163 C 0.01764 0.09779 0.78314 0.0
C164 C 0.93903 0.08562 0.40458 0.0
C165 C 0.93593 0.12241 0.39539 0.0
C166 C 0.90254 0.13909 0.40165 0.0
C167 C 0.87154 0.11837 0.41046 0.0
C168 C 0.90782 0.06469 0.40463 0.0
C169 C 0.87427 0.08113 0.40989 0.0
C170 C 0.07348 0.04049 0.56888 0.0
C171 C 0.97392 0.0716 0.44234 0.0
H172 H 0.02048 0.92705 0.92586 0.0
H173 H 0.06414 0.83151 0.07291 0.0
H174 H 0.13082 0.92304 0.02926 0.0
H175 H 0.124 0.8591 0.07449 0.0
H176 H 0.96 0.13855 0.39296 0.0
H177 H 0.84558 0.13086 0.4179 0.0
H178 H 0.90928 0.03592 0.40833 0.0
H179 H 0.85041 0.06495 0.41623 0.0
Tb180 Tb 0.52023 0.04698 0.81772 0.0
C181 C 0.57314 0.94973 0.48713 0.0
C182 C 0.58327 0.97742 0.29485 0.0
C183 C 0.62548 0.934 0.3647 0.0
C184 C 0.56212 0.97274 0.39959 0.0
C185 C 0.60424 0.9288 0.46738 0.0
C186 C 0.61569 0.95932 0.28084 0.0
C187 C 0.5916 0.89851 0.6509 0.0
N188 N 0.55258 0.94631 0.58779 0.0
C189 C 0.56123 0.91959 0.6668 0.0
C190 C 0.61336 0.90325 0.55125 0.0
Tb191 Tb 0.50087 0.98184 0.59663 0.0
N192 N 0.52958 0.9884 0.41191 0.0
C193 C 0.51415 1.00216 0.3106 0.0
C194 C 0.57032 0.9987 0.20386 0.0
C195 C 0.53517 1.00985 0.20968 0.0
H196 H 0.5444 0.91165 0.73954 0.0
H197 H 0.52506 0.02549 0.1381 0.0
H198 H 0.63244 0.96329 0.20225 0.0
H199 H 0.59769 0.8779 0.71474 0.0
H200 H 0.48646 1.0103 0.31094 0.0
H201 H 0.43338 0.04517 0.20558 0.0
H202 H 0.5864 1.00472 0.12536 0.0
H203 H 0.55536 0.1219 0.68523 0.0
H204 H 0.47473 0.01975 0.05423 0.0
H205 H 0.53968 0.18423 0.6674 0.0
H206 H 0.64969 0.91873 0.34982 0.0
H207 H 0.40662 0.10418 0.17537 0.0
H208 H 0.40664 0.16107 0.06277 0.0
H209 H 0.63682 0.88669 0.53891 0.0
H210 H 0.43658 0.19948 0.91687 0.0
N211 N 0.47446 0.065 0.94317 0.0
C212 C 0.46405 0.04582 0.04045 0.0
C213 C 0.42535 0.09347 0.10922 0.0
C214 C 0.43727 0.11396 0.01329 0.0
C215 C 0.44009 0.05994 0.12585 0.0
C216 C 0.46312 0.09934 0.93313 0.0
H217 H 0.48667 0.20857 0.77223 0.0
N218 N 0.50922 0.10769 0.79043 0.0
C219 C 0.5227 0.16679 0.7191 0.0
C220 C 0.48108 0.12144 0.85464 0.0
C221 C 0.53124 0.13073 0.72884 0.0
C222 C 0.49277 0.18042 0.7783 0.0
C223 C 0.4721 0.15802 0.84955 0.0
O224 O 0.5335 0.07333 0.98148 0.0
O225 O 0.54523 1.01125 0.67893 0.0
O226 O 0.50282 0.95322 0.7678 0.0
O227 O 0.52029 0.99467 0.91489 0.0
O228 O 0.56327 0.06174 0.69457 0.0
O229 O 0.572 0.04116 0.88972 0.0
O230 O 0.49177 0.92684 0.58109 0.0
O231 O 0.47865 1.00864 0.76235 0.0
O232 O 0.49333 0.07467 0.67071 0.0
O233 O 0.49552 0.03509 0.50849 0.0
O234 O 0.4449 1.00018 0.6235 0.0
O235 O 0.4619 0.96272 0.473 0.0
C236 C 0.56837 0.03284 0.63326 0.0
C237 C 0.59158 0.09718 0.96238 0.0
C238 C 0.65124 0.1181 0.909 0.0
C239 C 0.62771 0.09059 0.94236 0.0
C240 C 0.63789 0.15285 0.8981 0.0
C241 C 0.57919 0.13252 0.9581 0.0
C242 C 0.60218 0.16006 0.9251 0.0
C243 C 0.5144 0.96087 0.87842 0.0
C244 C 0.56706 0.06636 0.97008 0.0
C245 C 0.44394 0.17158 0.92042 0.0
C246 C 0.42674 0.14966 1.00292 0.0
C247 C 0.4455 0.01295 0.73286 0.0
C248 C 0.43355 0.90829 0.52891 0.0
C249 C 0.40244 0.91415 0.46253 0.0
C250 C 0.37189 0.89321 0.48061 0.0
C251 C 0.37239 0.86595 0.56518 0.0
C252 C 0.43397 0.88042 0.61242 0.0
C253 C 0.4035 0.85954 0.63055 0.0
C254 C 0.49074 0.06794 0.55371 0.0
C255 C 0.4659 0.92973 0.50482 0.0
H256 H 0.63725 0.0635 0.95141 0.0
H257 H 0.65475 0.17445 0.86909 0.0
H258 H 0.55147 0.13885 0.97379 0.0
H259 H 0.59205 0.18696 0.91805 0.0
H260 H 0.40175 0.93523 0.39686 0.0
H261 H 0.34877 0.85001 0.58102 0.0
H262 H 0.45782 0.87457 0.66335 0.0
H263 H 0.40401 0.8384 0.69563 0.0
Tb264 Tb 0.56009 0.50555 0.64975 0.0
C265 C 0.4225 0.48883 0.93219 0.0
C266 C 0.37454 0.49697 0.79032 0.0
C267 C 0.36601 0.45799 0.96061 0.0
C268 C 0.4102 0.50304 0.82678 0.0
C269 C 0.4004 0.46669 1.00198 0.0
C270 C 0.35297 0.47336 0.85526 0.0
C271 C 0.44526 0.46872 0.15768 0.0
N272 N 0.45529 0.49919 0.97138 0.0
C273 C 0.46532 0.49205 0.08745 0.0
C274 C 0.41286 0.45549 0.11392 0.0
Tb275 Tb 0.48844 0.53486 0.84528 0.0
N276 N 0.43184 0.52599 0.76767 0.0
C277 C 0.41746 0.54735 0.6817 0.0
C278 C 0.36091 0.51666 0.69519 0.0
C279 C 0.38215 0.5428 0.6433 0.0
H280 H 0.48967 0.50317 0.1237 0.0
H281 H 0.37147 0.55935 0.57309 0.0
H282 H 0.32569 0.46806 0.82792 0.0
H283 H 0.45455 0.46149 0.24637 0.0
H284 H 0.43322 0.56784 0.64125 0.0
H285 H 0.64417 0.44588 0.98706 0.0
H286 H 0.33361 0.5131 0.66505 0.0
H287 H 0.57925 0.56358 0.43033 0.0
H288 H 0.58735 0.4604 0.89118 0.0
H289 H 0.63152 0.59788 0.36242 0.0
H290 H 0.34868 0.4409 0.01256 0.0
H291 H 0.70026 0.47262 0.9147 0.0
H292 H 0.73121 0.51335 0.77129 0.0
H293 H 0.3969 0.43821 0.16986 0.0
H294 H 0.72755 0.55583 0.60539 0.0
N295 N 0.61039 0.49529 0.76195 0.0
C296 C 0.61137 0.47208 0.85595 0.0
C297 C 0.67534 0.47885 0.87045 0.0
C298 C 0.67443 0.5021 0.77347 0.0
C299 C 0.64368 0.46378 0.91174 0.0
C300 C 0.64122 0.5095 0.71946 0.0
H301 H 0.69019 0.58922 0.45841 0.0
N302 N 0.60682 0.53917 0.57569 0.0
C303 C 0.63405 0.57978 0.43665 0.0
C304 C 0.63928 0.53281 0.62481 0.0
C305 C 0.60448 0.56044 0.47629 0.0
C306 C 0.66715 0.5747 0.49065 0.0
C307 C 0.67032 0.55022 0.58346 0.0
O308 O 0.56956 0.48913 0.47094 0.0
O309 O 0.50201 0.5101 0.66974 0.0
O310 O 0.49214 0.47618 0.87041 0.0
O311 O 0.54033 0.45788 0.74988 0.0
O312 O 0.5222 0.51128 0.4999 0.0
O313 O 0.57958 0.45278 0.61895 0.0
O314 O 0.47763 0.56262 0.00801 0.0
O315 O 0.54666 0.52867 0.8247 0.0
O316 O 0.55562 0.56512 0.63832 0.0
O317 O 0.49868 0.57747 0.71098 0.0
O318 O 0.53015 0.54571 0.98566 0.0
O319 O 0.46208 0.58407 0.83733 0.0
C320 C 0.49258 0.51324 0.55835 0.0
C321 C 0.59359 0.43113 0.41268 0.0
C322 C 0.62605 0.37651 0.35565 0.0
C323 C 0.61314 0.40085 0.44539 0.0
C324 C 0.62134 0.38524 0.23268 0.0
C325 C 0.58709 0.43689 0.29041 0.0
C326 C 0.60156 0.41482 0.20107 0.0
C327 C 0.51452 0.45109 0.82966 0.0
C328 C 0.58151 0.45816 0.50302 0.0
C329 C 0.70344 0.54285 0.63639 0.0
C330 C 0.70553 0.51863 0.73065 0.0
C331 C 0.55923 0.53816 0.92884 0.0
C332 C 0.47615 0.62442 0.9926 0.0
C333 C 0.51177 0.63349 0.97225 0.0
C334 C 0.5253 0.66599 0.0158 0.0
C335 C 0.50221 0.69021 0.07545 0.0
C336 C 0.45329 0.64849 0.05237 0.0
C337 C 0.46631 0.68154 0.09268 0.0
C338 C 0.52811 0.58733 0.65266 0.0
C339 C 0.46321 0.58944 0.95376 0.0
H340 H 0.61746 0.39604 0.54021 0.0
H341 H 0.63067 0.36817 0.15918 0.0
H342 H 0.57112 0.459 0.26393 0.0
H343 H 0.59657 0.4201 0.10682 0.0
H344 H 0.52895 0.61453 0.92646 0.0
H345 H 0.5121 0.71561 0.11018 0.0
H346 H 0.4256 0.64163 0.06829 0.0
H347 H 0.44874 0.70023 0.13903 0.0
Tb348 Tb 0.04248 0.56134 0.64673 0.0
C349 C 0.04021 0.42235 0.89811 0.0
C350 C 0.01546 0.38238 0.74603 0.0
C351 C 0.05592 0.35934 0.89631 0.0
C352 C 0.01978 0.41705 0.79675 0.0
C353 C 0.05692 0.39317 0.95327 0.0
C354 C 0.03508 0.35392 0.79255 0.0
C355 C 0.06499 0.43045 0.13078 0.0
N356 N 0.03878 0.45494 0.95327 0.0
C357 C 0.04714 0.45806 0.07292 0.0
C358 C 0.07107 0.39821 0.06911 0.0
Tb359 Tb 1.00914 0.49939 0.85678 0.0
N360 N 1.00049 0.44508 0.75779 0.0
C361 C 0.97367 0.43912 0.6759 0.0
C362 C 0.99012 0.37705 0.6549 0.0
C363 C 0.96859 0.40544 0.62153 0.0
H364 H 0.04134 0.48253 0.12242 0.0
H365 H 0.9477 0.40134 0.55522 0.0
H366 H 0.03274 0.3273 0.75314 0.0
H367 H 0.0741 0.43416 0.22282 0.0
H368 H 0.95519 0.4598 0.65563 0.0
H369 H 0.08668 0.67841 0.90215 0.0
H370 H 0.98594 0.35089 0.6136 0.0
H371 H 1.00465 0.55977 0.36972 0.0
H372 H 0.0865 0.61483 0.8425 0.0
H373 H 0.96528 0.59764 0.25434 0.0
H374 H 0.0691 0.33675 0.93622 0.0
H375 H 0.04402 0.71987 0.80931 0.0
H376 H 0.99597 0.73005 0.65673 0.0
H377 H 0.08427 0.37667 0.11493 0.0
H378 H 0.96095 0.70734 0.4837 0.0
N379 N 0.04325 0.61942 0.71858 0.0
C380 C 0.06756 0.63243 0.80106 0.0
C381 C 0.04385 0.6919 0.78225 0.0
C382 C 0.02059 0.67907 0.69262 0.0
C383 C 0.06797 0.66861 0.83474 0.0
C384 C 0.02162 0.64243 0.65994 0.0
H385 H 0.94821 0.65745 0.33438 0.0
N386 N 1.00767 0.59555 0.52239 0.0
C387 C 0.97481 0.607 0.3411 0.0
C388 C 1.00262 0.62992 0.56047 0.0
C389 C 0.99728 0.58537 0.40742 0.0
C390 C 0.96553 0.64068 0.38663 0.0
C391 C 0.98112 0.65334 0.4941 0.0
O392 O 0.06564 0.55898 0.47305 0.0
O393 O 0.024 0.50585 0.6685 0.0
O394 O 0.06938 0.49727 0.87264 0.0
O395 O 0.0854 0.55079 0.78431 0.0
O396 O 0.06354 0.51322 0.55143 0.0
O397 O 0.08917 0.59045 0.61781 0.0
O398 O 0.98313 0.51134 0.02204 0.0
O399 O 0.01818 0.5564 0.82498 0.0
O400 O 0.98325 0.55951 0.61279 0.0
O401 O 0.9618 0.51734 0.74616 0.0
O402 O 0.02533 0.53979 0.99604 0.0
O403 O 0.9632 0.4704 0.9034 0.0
C404 C 0.04556 0.48822 0.5991 0.0
C405 C 0.12783 0.56695 0.4729 0.0
C406 C 0.17458 0.52277 0.48339 0.0
C407 C 0.14191 0.53612 0.52381 0.0
C408 C 0.19485 0.54246 0.40056 0.0
C409 C 0.14791 0.58615 0.38936 0.0
C410 C 0.18162 0.5741 0.35441 0.0
C411 C 0.09404 0.52254 0.85 0.0
C412 C 0.09231 0.57936 0.50634 0.0
C413 C 0.97758 0.68906 0.53297 0.0
C414 C 0.99757 0.702 0.63139 0.0
C415 C 0.02611 0.56824 0.93233 0.0
C416 C 0.9212 0.50132 0.01968 0.0
C417 C 0.9116 0.53621 0.99049 0.0
C418 C 0.87717 0.54887 0.01669 0.0
C419 C 0.85184 0.52492 0.06389 0.0
C420 C 0.89564 0.4779 0.0653 0.0
C421 C 0.86082 0.48951 0.08451 0.0
C422 C 0.95641 0.54034 0.65704 0.0
C423 C 0.95765 0.48861 1.00191 0.0
H424 H 0.12725 0.52188 0.59199 0.0
H425 H 0.22065 0.53299 0.36969 0.0
H426 H 0.13762 0.61047 0.35163 0.0
H427 H 0.19719 0.58888 0.28981 0.0
H428 H 0.93117 0.55297 0.94823 0.0
H429 H 0.82498 0.53362 0.08554 0.0
H430 H 0.90263 0.45065 0.08572 0.0
H431 H 0.84096 0.47127 0.11858 0.0
C432 C 0.16459 0.04985 0.4054 0.0
C433 C 0.15516 0.04369 0.28044 0.0
C434 C 0.09694 0.03945 0.33539 0.0
C435 C 0.10196 0.04706 0.46492 0.0
N436 N 0.1453 0.07705 0.59359 0.0
N437 N 0.10634 0.10222 0.12963 0.0
C438 C 0.13728 0.05828 0.49087 0.0
C439 C 0.11914 0.05921 0.23929 0.0
N440 N 0.19875 0.04783 0.44576 0.0
N441 N 0.07591 1.01134 0.30192 0.0
H442 H 0.11475 0.12267 0.07098 0.0
H443 H 0.11475 0.12267 0.07098 0.0
H444 H 0.06138 0.99681 0.36445 0.0
H445 H 0.07664 1.00055 0.21441 0.0
H446 H 0.22063 0.04223 0.39009 0.0
H447 H 0.22063 0.04223 0.39009 0.0
H448 H 0.17136 0.08522 0.6132 0.0
H449 H 0.12548 0.08777 0.64945 0.0
C450 C 0.45886 0.1619 0.46086 0.0
C451 C 0.47747 0.168 0.3514 0.0
C452 C 0.50226 0.10698 0.36414 0.0
C453 C 0.48287 0.1002 0.47322 0.0
N454 N 0.43435 0.11966 0.60289 0.0
N455 N 0.50834 0.14145 0.18179 0.0
C456 C 0.45847 0.12721 0.51426 0.0
C457 C 0.49594 0.13886 0.29693 0.0
N458 N 0.44266 0.1906 0.5149 0.0
N459 N 0.52945 0.08499 0.32966 0.0
H460 H 0.5049 0.16393 0.12975 0.0
H461 H 0.518 0.11943 0.13374 0.0
H462 H 0.53735 0.06362 0.38093 0.0
H463 H 0.54711 0.09053 0.25954 0.0
H464 H 0.43074 0.1905 0.6002 0.0
H465 H 0.43074 0.1905 0.6002 0.0
H466 H 0.41311 0.13626 0.6266 0.0
H467 H 0.43343 0.09523 0.64543 0.0
C468 C 0.4131 0.5307 0.33673 0.0
C469 C 0.38836 0.50341 0.36492 0.0
C470 C 0.43223 0.4807 0.51541 0.0
C471 C 0.45651 0.50914 0.49114 0.0
N472 N 0.47432 0.55147 0.33865 0.0
N473 N 0.37892 0.44688 0.45782 0.0
C474 C 0.44829 0.53104 0.38944 0.0
C475 C 0.39944 0.47682 0.44757 0.0
N476 N 0.40273 0.55736 0.26245 0.0
N477 N 0.44046 0.45711 0.60327 0.0
H478 H 0.3562 0.44255 0.4055 0.0
H479 H 0.386 0.42478 0.50758 0.0
H480 H 0.46502 0.45705 0.64643 0.0
H481 H 0.42252 0.43877 0.63821 0.0
H482 H 0.41765 0.58051 0.25025 0.0
H483 H 0.37809 0.55727 0.21889 0.0
H484 H 0.47112 0.56405 0.25633 0.0
H485 H 0.49986 0.55454 0.37386 0.0
C486 C 0.06075 0.38886 0.48109 0.0
C487 C 0.03564 0.38541 0.3843 0.0
C488 C 0.02021 0.44965 0.42103 0.0
C489 C 0.0412 0.452 0.52853 0.0
N490 N 0.08993 0.42619 0.63706 0.0
N491 N 0.98965 0.41359 0.26834 0.0
C492 C 0.06411 0.42221 0.55076 0.0
C493 C 0.01496 0.41618 0.35696 0.0
N494 N 0.07968 0.35939 0.5121 0.0
N495 N 1.00737 0.48023 0.37327 0.0
H496 H 0.98744 0.39152 0.20968 0.0
H497 H 0.97008 0.43287 0.25584 0.0
H498 H 1.00996 0.50478 0.41742 0.0
H499 H 0.99597 0.4816 0.2877 0.0
H500 H 0.09529 0.35782 0.58941 0.0
H501 H 0.07844 0.33551 0.46209 0.0
H502 H 0.09254 0.44937 0.69024 0.0
H503 H 0.11002 0.4077 0.65174 0.0
C504 C 0.87689 0.03158 0.10779 0.0
C505 C 0.86534 0.9959 0.12388 0.0
C506 C 0.91921 0.9752 0.00796 0.0
C507 C 0.93174 1.01081 0.99164 0.0
N508 N 0.91568 0.07308 1.00574 0.0
N509 N 0.86911 0.9356 0.06017 0.0
C510 C 0.90859 0.03896 0.03681 0.0
C511 C 0.88494 0.96838 0.064 0.0
N512 N 0.85639 0.05876 0.15354 0.0
N513 N 0.94019 0.94774 0.96922 0.0
H514 H 0.8786 0.91331 0.01238 0.0
H515 H 0.8786 0.91331 0.01238 0.0
H516 H 0.96672 0.9518 0.94715 0.0
H517 H 0.93305 0.92101 0.96915 0.0
H518 H 0.86414 0.0854 0.15703 0.0
H519 H 0.83157 0.05471 0.19307 0.0
H520 H 0.8991 0.09489 0.02136 0.0
H521 H 0.93733 0.07904 0.95339 0.0
C522 C 0.55881 0.89055 0.08606 0.0
C523 C 0.52988 0.86723 0.11077 0.0
C524 C 0.49075 0.90417 0.9853 0.0
C525 C 0.51885 0.92966 0.96553 0.0
N526 N 0.58141 0.94367 0.98664 0.0
N527 N 0.46804 0.85609 0.1114 0.0
C528 C 0.55329 0.92215 0.01548 0.0
C529 C 0.49569 0.87597 0.0694 0.0
N530 N 0.59174 0.88181 0.12924 0.0
N531 N 0.46069 0.90402 0.91553 0.0
H532 H 0.4412 0.86159 0.09561 0.0
H533 H 0.4412 0.86159 0.09561 0.0
H534 H 0.45594 0.92153 0.84618 0.0
H535 H 0.44198 0.88345 0.91563 0.0
H536 H 0.6151 0.89597 0.11407 0.0
H537 H 0.59564 0.85988 0.18424 0.0
H538 H 0.60764 0.93967 0.01275 0.0
H539 H 0.57885 0.96608 0.9336 0.0
C540 C 0.6601 0.56515 1.00151 0.0
C541 C 0.66548 0.55121 0.11868 0.0
C542 C 0.60287 0.52912 0.11112 0.0
C543 C 0.59732 0.54092 0.98954 0.0
N544 N 0.62052 0.57885 0.8366 0.0
N545 N 0.64381 0.51312 0.27238 0.0
C546 C 0.62623 0.56111 0.93992 0.0
C547 C 0.63744 0.53109 0.16884 0.0
N548 N 0.68841 0.58108 0.94583 0.0
N549 N 0.57439 0.51893 0.17837 0.0
H550 H 0.66863 0.51319 0.31466 0.0
H551 H 0.62533 0.49623 0.31151 0.0
H552 H 0.54956 0.5126 0.14336 0.0
H553 H 0.57511 0.51935 0.27229 0.0
H554 H 0.68838 0.58925 0.85659 0.0
H555 H 0.71354 0.58306 0.9857 0.0
H556 H 0.63704 0.59867 0.80302 0.0
H557 H 0.59814 0.57352 0.78565 0.0
C558 C 0.04149 0.64645 0.17216 0.0
C559 C 0.01716 0.67313 0.13777 0.0
C560 C 0.99883 0.63274 0.96499 0.0
C561 C 0.02445 0.60616 0.99551 0.0
N562 N 0.07585 0.59305 0.11777 0.0
N563 N 0.97795 0.6942 0.98383 0.0
C564 C 0.04734 0.61464 0.09673 0.0
C565 C 0.99736 0.66676 0.02927 0.0
N566 N 0.05717 0.65127 0.28204 0.0
N567 N 0.97515 0.62554 0.87484 0.0
H568 H 0.97767 0.71954 0.0243 0.0
H569 H 0.96559 0.69336 0.89965 0.0
H570 H 0.97751 0.6032 0.81874 0.0
H571 H 0.95269 0.64096 0.85841 0.0
H572 H 0.07293 0.63229 0.32373 0.0
H573 H 0.07293 0.63229 0.32373 0.0
H574 H 0.09575 0.59922 0.1802 0.0
H575 H 0.08183 0.57083 0.06326 0.0
C576 C 0.95205 0.21669 0.46572 0.0
C577 C 0.95377 0.22841 0.345 0.0
C578 C 0.89959 0.19555 0.29316 0.0
C579 C 0.90247 0.17848 0.40499 0.0
N580 N 0.91771 0.18388 0.61416 0.0
N581 N 0.92129 0.24282 0.1653 0.0
C582 C 0.9232 0.19426 0.49832 0.0
C583 C 0.92429 0.22295 0.26664 0.0
N584 N 0.9792 0.22412 0.54436 0.0
N585 N 0.87603 0.18285 0.20881 0.0
H586 H 0.93939 0.2632 0.14652 0.0
H587 H 0.89951 0.24134 0.10711 0.0
H588 H 0.85732 0.1632 0.22922 0.0
H589 H 0.87563 0.19103 0.11945 0.0
H590 H 0.98108 0.21309 0.62974 0.0
H591 H 1.00067 0.24043 0.52187 0.0
H592 H 0.93107 0.19502 0.68824 0.0
H593 H 0.89731 0.16593 0.63486 0.0
C594 C 0.30436 0.95486 0.36464 0.0
C595 C 0.29574 0.93849 0.25064 0.0
C596 C 0.33053 0.88588 0.30331 0.0
C597 C 0.33897 0.90268 0.41564 0.0
N598 N 0.32378 0.94601 0.5703 0.0
N599 N 0.29269 0.88534 0.12507 0.0
C600 C 0.32179 0.93448 0.45248 0.0
C601 C 0.30596 0.90271 0.22506 0.0
N602 N 0.29971 0.99067 0.38536 0.0
N603 N 0.34749 0.85508 0.26894 0.0
H604 H 0.27465 0.8974 0.06695 0.0
H605 H 0.29701 0.85837 0.10604 0.0
H606 H 0.36477 0.84174 0.32629 0.0
H607 H 0.3457 0.84373 0.18237 0.0
H608 H 0.30955 1.00402 0.46192 0.0
H609 H 0.28983 1.00812 0.32189 0.0
H610 H 0.30902 0.96752 0.60444 0.0
H611 H 0.33717 0.93163 0.636 0.0
C612 C 0.62589 0.29436 0.23236 0.0
C613 C 0.59161 0.29022 0.28552 0.0
C614 C 0.61329 0.32223 0.4642 0.0
C615 C 0.6374 0.33941 0.38769 0.0
N616 N 0.68403 0.32403 0.24915 0.0
N617 N 0.55555 0.29387 0.46845 0.0
C618 C 0.65055 0.31784 0.2916 0.0
C619 C 0.58649 0.30096 0.40869 0.0
N620 N 0.63323 0.27842 0.1232 0.0
N621 N 0.61534 0.32766 0.58594 0.0
H622 H 0.53512 0.27824 0.43194 0.0
H623 H 0.54998 0.30492 0.55338 0.0
H624 H 0.63579 0.34324 0.62371 0.0
H625 H 0.5991 0.31432 0.64699 0.0
H626 H 0.65677 0.28251 0.07527 0.0
H627 H 0.61512 0.2609 0.08142 0.0
H628 H 0.69577 0.30929 0.17885 0.0
H629 H 0.70024 0.34335 0.29103 0.0
C630 C 0.19687 0.43155 0.40142 0.0
C631 C 0.23304 0.44139 0.40284 0.0
C632 C 0.22158 0.48403 0.56385 0.0
C633 C 0.18675 0.48675 0.51582 0.0
N634 N 0.13703 0.45554 0.42171 0.0
N635 N 0.27635 0.44912 0.56083 0.0
C636 C 0.17233 0.45689 0.45037 0.0
C637 C 0.24437 0.45783 0.51198 0.0
N638 N 0.18672 0.402 0.33678 0.0
N639 N 0.23329 0.50843 0.64768 0.0
H640 H 0.292 0.42889 0.52181 0.0
H641 H 0.28533 0.45968 0.64321 0.0
H642 H 0.2161 0.52777 0.68401 0.0
H643 H 0.25962 0.50971 0.67757 0.0
H644 H 0.16048 0.39282 0.33262 0.0
H645 H 0.20583 0.38584 0.29388 0.0
H646 H 0.126 0.4362 0.36402 0.0
H647 H 0.1188 0.47401 0.45629 0.0
C648 C 0.95925 0.81558 0.03471 0.0
C649 C 0.94849 0.8296 0.14821 0.0
C650 C 0.97834 0.88458 0.10874 0.0
C651 C 1.00131 0.86505 0.02715 0.0
N652 N 1.00759 0.81455 0.88807 0.0
N653 N 0.92057 0.88376 0.21262 0.0
C654 C 0.98947 0.83145 0.97962 0.0
C655 C 0.94726 0.86694 0.15073 0.0
N656 N 0.94173 0.787 0.98564 0.0
N657 N 0.98738 0.91747 0.15459 0.0
H658 H 0.89982 0.86907 0.25075 0.0
H659 H 0.91835 0.9114 0.21972 0.0
H660 H 0.0126 0.92876 0.14663 0.0
H661 H 0.96997 0.93333 0.20528 0.0
H662 H 0.94738 0.77648 0.89971 0.0
H663 H 0.92019 0.77561 0.03115 0.0
H664 H 1.00165 0.78864 0.85843 0.0
H665 H 0.0289 0.82661 0.84364 0.0
C666 C 0.71096 0.04949 0.92729 0.0
C667 C 0.72014 0.06014 0.04699 0.0
C668 C 0.71061 0.12239 0.99695 0.0
C669 C 0.68992 0.10991 0.89919 0.0
N670 N 0.68976 0.06915 0.73126 0.0
N671 N 0.73957 0.10738 0.1847 0.0
C672 C 0.69822 0.0761 0.84884 0.0
C673 C 0.72416 0.09701 0.07775 0.0
N674 N 0.71177 0.01432 0.89293 0.0
N675 N 0.71678 0.15805 0.01116 0.0
H676 H 0.75153 0.08941 0.24268 0.0
H677 H 0.73981 0.13361 0.21757 0.0
H678 H 0.73304 0.16919 0.07818 0.0
H679 H 0.70843 0.17601 0.94645 0.0
H680 H 0.70238 1.00467 0.80991 0.0
H681 H 0.72117 0.99462 0.94993 0.0
H682 H 0.69677 0.04563 0.68574 0.0
H683 H 0.67826 0.08888 0.67861 0.0
C684 C 0.60152 0.72755 0.99847 0.0
C685 C 0.6148 0.71666 0.11095 0.0
C686 C 0.58993 0.65828 0.07576 0.0
C687 C 0.56353 0.67526 1.00404 0.0
N688 N 0.55277 0.72103 0.85761 0.0
N689 N 0.6484 0.66596 0.17079 0.0
C690 C 0.57254 0.70805 0.94971 0.0
C691 C 0.61948 0.67949 0.11425 0.0
N692 N 0.61372 0.75743 0.94514 0.0
N693 N 0.58514 0.6247 0.11765 0.0
H694 H 0.66809 0.68294 0.20637 0.0
H695 H 0.65335 0.63869 0.17442 0.0
H696 H 0.56339 0.60879 0.09425 0.0
H697 H 0.60248 0.61314 0.17878 0.0
H698 H 0.63476 0.77243 0.9817 0.0
H699 H 0.63476 0.77243 0.9817 0.0
H700 H 0.55852 0.74555 0.81885 0.0
H701 H 0.53143 0.70658 0.82053 0.0
C702 C 0.80974 0.6181 0.00707 0.0
C703 C 0.81971 0.62955 0.12458 0.0
C704 C 0.88034 0.6144 0.07745 0.0
C705 C 0.86633 0.58673 1.00013 0.0
N706 N 0.82046 0.57165 0.85492 0.0
N707 N 0.86676 0.66526 0.20873 0.0
C708 C 0.83219 0.59266 0.94862 0.0
C709 C 0.85598 0.63841 0.1328 0.0
N710 N 0.7791 0.63021 0.95716 0.0
N711 N 0.91537 0.61742 0.10524 0.0
H712 H 0.84808 0.68105 0.25534 0.0
H713 H 0.89367 0.67155 0.22132 0.0
H714 H 0.93499 0.60104 0.06749 0.0
H715 H 0.93499 0.60104 0.06749 0.0
H716 H 0.77131 0.62354 0.86909 0.0
H717 H 0.76313 0.64871 1.00409 0.0
H718 H 0.79448 0.57272 0.82173 0.0
H719 H 0.83711 0.55258 0.81399 0.0
C720 C 0.0627 0.17855 0.97633 0.0
C721 C 0.03221 0.1998 0.00737 0.0
C722 C 0.99503 0.15536 0.8961 0.0
C723 C 0.02454 0.13182 0.86809 0.0
N724 N 0.08829 0.12939 0.85164 0.0
N725 N 0.974 0.21556 0.94041 0.0
C726 C 0.05909 0.14602 0.89955 0.0
C727 C 1.00018 0.19039 0.94769 0.0
N728 N 0.0951 0.19041 0.01606 0.0
N729 N 0.96093 0.14398 0.87954 0.0
H730 H 0.97764 0.2416 0.97369 0.0
H731 H 0.95087 0.21198 0.88952 0.0
H732 H 0.95512 0.11894 0.84625 0.0
H733 H 0.93864 0.15777 0.91209 0.0
H734 H 0.11934 0.17861 0.99322 0.0
H735 H 0.09753 0.21348 0.07 0.0
H736 H 0.11413 0.13946 0.85795 0.0
H737 H 0.08598 0.10601 0.79971 0.0
C738 C 0.37342 1.00787 0.99832 0.0
C739 C 0.34037 0.01589 0.9423 0.0
C740 C 0.37706 0.02972 0.75766 0.0
C741 C 0.40965 0.01625 0.81004 0.0
N742 N 0.42939 0.9786 0.97041 0.0
N743 N 0.31147 0.03124 0.75729 0.0
C744 C 0.40499 1.00153 0.92762 0.0
C745 C 0.34249 0.02633 0.81891 0.0
N746 N 0.37456 1.00488 0.12121 0.0
N747 N 0.37864 0.04546 0.64768 0.0
H748 H 0.28651 0.02904 0.79824 0.0
H749 H 0.31032 0.03507 0.66447 0.0
H750 H 0.40184 0.04669 0.59615 0.0
H751 H 0.35747 0.05952 0.61107 0.0
H752 H 0.39748 0.9979 0.16813 0.0
H753 H 0.35312 0.01229 0.17676 0.0
H754 H 0.42539 0.96311 0.04653 0.0
H755 H 0.45274 0.97428 0.9246 0.0
C756 C 0.50878 0.34689 0.87348 0.0
C757 C 0.50663 0.34482 1.00203 0.0
C758 C 0.51155 0.41065 0.01388 0.0
C759 C 0.51199 0.41367 0.88576 0.0
N760 N 0.50596 0.38345 0.69246 0.0
N761 N 0.49498 0.37617 0.18937 0.0
C762 C 0.50901 0.38132 0.81509 0.0
C763 C 0.50396 0.37732 0.06971 0.0
N764 N 0.51133 0.31585 0.80742 0.0
N765 N 0.52189 0.43912 0.08349 0.0
H766 H 0.48937 0.35222 0.23209 0.0
H767 H 0.48924 0.39881 0.24207 0.0
H768 H 0.53338 0.46168 0.04615 0.0
H769 H 0.52162 0.43921 0.17737 0.0
H770 H 0.515 0.31465 0.71447 0.0
H771 H 0.51043 0.29087 0.8471 0.0
H772 H 0.50064 0.36171 0.63525 0.0
H773 H 0.50651 0.40768 0.64802 0.0
C774 C 0.17431 0.47802 1.00015 0.0
C775 C 0.20312 0.50269 0.01327 0.0
C776 C 0.16362 0.54199 0.88808 0.0
C777 C 0.13279 0.519 0.9049 0.0
N778 N 0.11703 0.48786 0.08149 0.0
N779 N 0.21897 0.5644 0.98036 0.0
C780 C 0.13938 0.49151 0.98664 0.0
C781 C 0.19629 0.53658 0.95897 0.0
N782 N 0.17876 0.44249 0.01711 0.0
N783 N 0.16259 0.56909 0.80829 0.0
H784 H 0.24112 0.56244 0.03627 0.0
H785 H 0.2135 0.59025 0.95292 0.0
H786 H 0.14056 0.5748 0.7561 0.0
H787 H 0.18517 0.58397 0.78661 0.0
H788 H 0.15695 0.42505 0.01509 0.0
H789 H 0.20405 0.43108 0.0242 0.0
H790 H 0.12384 0.47183 0.15406 0.0
H791 H 0.09634 0.50607 0.09595 0.0
C792 C 1.00163 0.87263 0.60233 0.0
C793 C 0.02281 0.8607 0.50141 0.0
C794 C 0.05539 0.91933 0.52031 0.0
C795 C 0.03133 0.93323 0.61149 0.0
N796 N 0.97842 0.92179 0.72734 0.0
N797 N 0.06695 0.87672 0.35455 0.0
C798 C 1.00399 0.9091 0.65033 0.0
C799 C 0.04904 0.88517 0.45893 0.0
N800 N 0.97854 0.84879 0.65197 0.0
N801 N 0.08494 0.93875 0.49106 0.0
H802 H 0.06443 0.85196 0.31055 0.0
H803 H 0.08236 0.89499 0.30754 0.0
H804 H 0.08999 0.9643 0.52574 0.0
H805 H 0.10573 0.92859 0.43804 0.0
H806 H 0.96393 0.8538 0.7306 0.0
H807 H 0.9765 0.82245 0.61998 0.0
H808 H 0.95553 0.90777 0.75057 0.0
H809 H 0.97806 0.94831 0.75603 0.0
C810 C 0.66372 0.99631 0.52574 0.0
C811 C 0.67545 0.02336 0.4451 0.0
C812 C 0.61879 0.05601 0.49433 0.0
C813 C 0.60519 0.02773 0.56716 0.0
N814 N 0.62497 0.98061 0.69515 0.0
N815 N 0.66792 0.08601 0.40308 0.0
C816 C 0.63081 1.00073 0.59591 0.0
C817 C 0.65418 0.05495 0.44483 0.0
N818 N 0.68345 0.96598 0.53488 0.0
N819 N 0.59889 0.08588 0.47602 0.0
H820 H 0.69449 0.08919 0.377 0.0
H821 H 0.69449 0.08919 0.377 0.0
H822 H 0.57366 0.09008 0.51227 0.0
H823 H 0.60754 0.10665 0.42174 0.0
H824 H 0.6758 0.94445 0.58683 0.0
H825 H 0.70633 0.96126 0.48355 0.0
H826 H 0.64392 0.96339 0.73009 0.0
H827 H 0.60228 0.98373 0.74875 0.0
C828 C 0.56691 0.68035 0.56724 0.0
C829 C 0.54221 0.69294 0.48041 0.0
C830 C 0.50513 0.63886 0.5167 0.0
C831 C 0.53072 0.62544 0.60038 0.0
N832 N 0.57864 0.6415 0.73417 0.0
N833 N 0.48423 0.68728 0.39013 0.0
C834 C 0.55967 0.64849 0.63291 0.0
C835 C 0.51007 0.67323 0.46168 0.0
N836 N 0.59777 0.69907 0.58702 0.0
N837 N 0.4766 0.61811 0.48555 0.0
H838 H 0.48739 0.71137 0.34625 0.0
H839 H 0.45863 0.67684 0.3809 0.0
H840 H 0.4719 0.5937 0.52454 0.0
H841 H 0.45882 0.62362 0.41642 0.0
H842 H 0.61948 0.68911 0.63412 0.0
H843 H 0.6023 0.72421 0.55117 0.0
H844 H 0.59917 0.65744 0.76835 0.0
H845 H 0.57003 0.62236 0.7936 0.0
C846 C 0.8713 0.5233 0.45225 0.0
C847 C 0.84887 0.55314 0.47879 0.0
C848 C 0.89424 0.57202 0.63476 0.0
C849 C 0.91834 0.54402 0.59932 0.0
N850 N 0.92816 0.49373 0.46423 0.0
N851 N 0.84015 0.60673 0.59769 0.0
C852 C 0.9061 0.51999 0.50589 0.0
C853 C 0.86089 0.57763 0.57114 0.0
N854 N 0.86056 0.49735 0.37273 0.0
N855 N 0.90266 0.59267 0.73315 0.0
H856 H 0.81456 0.6097 0.5623 0.0
H857 H 0.84826 0.62838 0.65124 0.0
H858 H 0.92415 0.58648 0.78694 0.0
H859 H 0.88707 0.61327 0.76858 0.0
H860 H 0.83544 0.49681 0.33227 0.0
H861 H 0.83544 0.49681 0.33227 0.0
H862 H 0.92103 0.47551 0.39565 0.0
H863 H 0.95398 0.49144 0.49614 0.0
loop_
_geom_bond_atom_site_label_1
_geom_bond_atom_site_label_2
_geom_bond_distance
_geom_bond_site_symmetry_2
_ccdc_geom_bond_type
H0 C5 0.930 . S
H1 C8 0.930 . S
H2 C10 0.930 . S
H3 C4 1.016 . S
C4 H3 1.016 . S
C4 N11 1.286 . S
C5 H0 0.930 . S
C5 C6 1.397 . S
C5 C7 1.361 . S
C6 C5 1.397 . S
C6 C10 1.390 . S
C7 C5 1.361 . S
C7 C8 1.393 . S
C7 N11 1.413 . S
C8 H1 0.930 . S
C8 C7 1.393 . S
C8 C9 1.399 . S
C9 C8 1.399 . S
C9 C10 1.381 . S
C10 H2 0.930 . S
C10 C6 1.390 . S
C10 C9 1.381 . S
N11 C4 1.286 . S
N11 C7 1.413 . S
H12 C17 0.930 . S
H13 C20 0.930 . S
H14 C22 0.930 . S
H15 C16 1.016 . S
C16 H15 1.016 . S
C16 N23 1.286 . S
C17 H12 0.930 . S
C17 C18 1.397 . S
C17 C19 1.361 . S
C18 C17 1.397 . S
C18 C22 1.390 . S
C19 C17 1.361 . S
C19 C20 1.393 . S
C19 N23 1.413 . S
C20 H13 0.930 . S
C20 C19 1.393 . S
C20 C21 1.399 . S
C21 C20 1.399 . S
C21 C22 1.381 . S
C22 H14 0.930 . S
C22 C18 1.390 . S
C22 C21 1.381 . S
N23 C16 1.286 . S
N23 C19 1.413 . S
H24 C29 0.930 . S
H25 C32 0.930 . S
H26 C34 0.930 . S
H27 C28 1.016 . S
C28 H27 1.016 . S
C28 N35 1.286 . S
C29 H24 0.930 . S
C29 C30 1.397 . S
C29 C31 1.361 . S
C30 C29 1.397 . S
C30 C34 1.390 . S
C31 C29 1.361 . S
C31 C32 1.393 . S
C31 N35 1.413 . S
C32 H25 0.930 . S
C32 C31 1.393 . S
C32 C33 1.399 . S
C33 C32 1.399 . S
C33 C34 1.381 . S
C34 H26 0.930 . S
C34 C30 1.390 . S
C34 C33 1.381 . S
N35 C28 1.286 . S
N35 C31 1.413 . S
H36 C41 0.930 . S
H37 C44 0.930 . S
H38 C46 0.930 . S
H39 C40 1.016 . S
C40 H39 1.016 . S
C40 N47 1.286 . S
C41 H36 0.930 . S
C41 C42 1.397 . S
C41 C43 1.361 . S
C42 C41 1.397 . S
C42 C46 1.390 . S
C43 C41 1.361 . S
C43 C44 1.393 . S
C43 N47 1.413 . S
C44 H37 0.930 . S
C44 C43 1.393 . S
C44 C45 1.399 . S
C45 C44 1.399 . S
C45 C46 1.381 . S
C46 H38 0.930 . S
C46 C42 1.390 . S
C46 C45 1.381 . S
N47 C40 1.286 . S
N47 C43 1.413 . S
H48 C53 0.930 . S
H49 C56 0.930 . S
H50 C58 0.930 . S
H51 C52 1.016 . S
C52 H51 1.016 . S
C52 N59 1.286 . S
C53 H48 0.930 . S
C53 C54 1.397 . S
C53 C55 1.361 1_556 S
C54 C53 1.397 . S
C54 C58 1.390 . S
C55 C53 1.361 1_554 S
C55 C56 1.393 . S
C55 N59 1.413 . S
C56 H49 0.930 . S
C56 C55 1.393 . S
C56 C57 1.399 . S
C57 C56 1.399 . S
C57 C58 1.381 1_554 S
C58 H50 0.930 . S
C58 C54 1.390 . S
C58 C57 1.381 1_556 S
N59 C52 1.286 . S
N59 C55 1.413 . S
H60 C65 0.930 . S
H61 C68 0.930 . S
H62 C70 0.930 . S
H63 C64 1.016 . S
C64 H63 1.016 . S
C64 N71 1.286 . S
C65 H60 0.930 . S
C65 C66 1.397 . S
C65 C67 1.361 1_556 S
C66 C65 1.397 . S
C66 C70 1.390 . S
C67 C65 1.361 1_554 S
C67 C68 1.393 . S
C67 N71 1.413 . S
C68 H61 0.930 . S
C68 C67 1.393 . S
C68 C69 1.399 . S
C69 C68 1.399 . S
C69 C70 1.381 1_554 S
C70 H62 0.930 . S
C70 C66 1.390 . S
C70 C69 1.381 1_556 S
N71 C64 1.286 . S
N71 C67 1.413 . S
H72 C77 0.930 . S
H73 C80 0.930 . S
H74 C82 0.930 . S
H75 C76 1.016 . S
C76 H75 1.016 . S
C76 N83 1.286 . S
C77 H72 0.930 . S
C77 C78 1.397 . S
C77 C79 1.361 1_556 S
C78 C77 1.397 . S
C78 C82 1.390 . S
C79 C77 1.361 1_554 S
C79 C80 1.393 . S
C79 N83 1.413 . S
C80 H73 0.930 . S
C80 C79 1.393 . S
C80 C81 1.399 . S
C81 C80 1.399 . S
C81 C82 1.381 1_554 S
C82 H74 0.930 . S
C82 C78 1.390 . S
C82 C81 1.381 1_556 S
N83 C76 1.286 . S
N83 C79 1.413 . S
H84 C89 0.930 . S
H85 C92 0.930 . S
H86 C94 0.930 . S
H87 C88 1.016 . S
C88 H87 1.016 . S
C88 N95 1.286 . S
C89 H84 0.930 . S
C89 C90 1.397 . S
C89 C91 1.361 1_556 S
C90 C89 1.397 . S
C90 C94 1.390 . S
C91 C89 1.361 1_554 S
C91 C92 1.393 . S
C91 N95 1.413 . S
C92 H85 0.930 . S
C92 C91 1.393 . S
C92 C93 1.399 . S
C93 C92 1.399 . S
C93 C94 1.381 1_554 S
C94 H86 0.930 . S
C94 C90 1.390 . S
C94 C93 1.381 1_556 S
N95 C88 1.286 . S
N95 C91 1.413 . S
Tb96 N127 2.660 1_566 S
Tb96 N134 2.600 1_565 S
Tb96 O140 2.546 . S
Tb96 O141 2.610 1_455 S
Tb96 O143 2.320 1_455 S
Tb96 O144 2.552 . S
Tb96 O145 2.413 1_556 S
Tb96 O147 2.362 1_565 S
Tb96 O148 2.421 . S
Tb96 C160 2.833 . S
C97 C100 1.432 . S
C97 C101 1.414 . S
C97 N104 1.359 1_565 S
C98 C100 1.417 . S
C98 C102 1.432 . S
C98 C110 1.410 . S
C99 C101 1.444 . S
C99 C102 1.317 . S
C99 H122 0.929 . S
C100 C97 1.432 . S
C100 C98 1.417 . S
C100 N108 1.360 . S
C101 C97 1.414 . S
C101 C99 1.444 . S
C101 C106 1.385 1_565 S
C102 C98 1.432 . S
C102 C99 1.317 . S
C102 H114 0.930 . S
C103 C105 1.392 . S
C103 C106 1.370 . S
C103 H115 0.931 . S
N104 C97 1.359 1_545 S
N104 C105 1.327 . S
N104 Tb107 2.600 . S
C105 C103 1.392 . S
C105 N104 1.327 . S
C105 H112 0.930 . S
C106 C101 1.385 1_545 S
C106 C103 1.370 . S
C106 H125 0.930 . S
Tb107 N104 2.600 . S
Tb107 N108 2.660 1_545 S
Tb107 O141 2.362 1_545 S
Tb107 O142 2.421 . S
Tb107 O146 2.546 . S
Tb107 O147 2.610 1_655 S
Tb107 O149 2.320 1_655 S
Tb107 O150 2.552 1_655 S
Tb107 O151 2.413 . S
Tb107 C171 2.833 . S
N108 C100 1.360 . S
N108 Tb107 2.660 1_565 S
N108 C109 1.305 1_655 S
C109 N108 1.305 1_455 S
C109 C111 1.407 . S
C109 H116 0.930 . S
C110 C98 1.410 . S
C110 C111 1.345 1_655 S
C110 H118 0.930 . S
C111 C109 1.407 . S
C111 C110 1.345 1_455 S
C111 H113 0.930 . S
H112 C105 0.930 . S
H113 C111 0.930 . S
H114 C102 0.930 . S
H115 C103 0.931 . S
H116 C109 0.930 . S
H117 C131 0.930 1_655 S
H118 C110 0.930 . S
H119 C137 0.930 . S
H120 C128 0.930 1_655 S
H121 C135 0.931 . S
H122 C99 0.929 . S
H123 C129 0.930 . S
H124 C162 0.930 . S
H125 C106 0.930 . S
H126 C161 0.929 . S
N127 Tb96 2.660 1_544 S
N127 C128 1.305 . S
N127 C132 1.360 . S
C128 H120 0.930 1_455 S
C128 N127 1.305 . S
C128 C131 1.407 . S
C129 H123 0.930 . S
C129 C130 1.410 . S
C129 C131 1.345 . S
C130 C129 1.410 . S
C130 C132 1.417 . S
C130 C162 1.432 . S
C131 H117 0.930 1_455 S
C131 C128 1.407 . S
C131 C129 1.345 . S
C132 N127 1.360 . S
C132 C130 1.417 . S
C132 C136 1.432 . S
H133 C138 0.930 . S
N134 Tb96 2.600 1_545 S
N134 C136 1.359 1_556 S
N134 C137 1.327 1_545 S
C135 H121 0.931 . S
C135 C137 1.392 . S
C135 C138 1.370 1_566 S
C136 C132 1.432 . S
C136 N134 1.359 1_554 S
C136 C139 1.414 . S
C137 H119 0.930 . S
C137 N134 1.327 1_565 S
C137 C135 1.392 . S
C138 H133 0.930 . S
C138 C135 1.370 1_544 S
C138 C139 1.385 . S
C139 C136 1.414 . S
C139 C138 1.385 . S
C139 C161 1.444 . S
O140 Tb96 2.546 . S
O140 C160 1.251 . S
O141 Tb96 2.610 1_655 S
O141 Tb107 2.362 1_565 S
O141 C152 1.283 . S
O142 Tb107 2.421 . S
O142 C159 1.262 . S
O143 Tb96 2.320 1_655 S
O143 C159 1.260 1_565 S
O144 Tb96 2.552 . S
O144 C152 1.243 1_455 S
O145 Tb96 2.413 1_554 S
O145 C160 1.256 1_554 S
O146 Tb107 2.546 . S
O146 C171 1.251 . S
O147 Tb96 2.362 1_545 S
O147 Tb107 2.610 1_455 S
O147 C163 1.283 . S
O148 Tb96 2.421 . S
O148 C170 1.262 1_565 S
O149 Tb107 2.320 1_455 S
O149 C170 1.260 . S
O150 Tb107 2.552 1_455 S
O150 C163 1.243 . S
O151 Tb107 2.413 . S
O151 C171 1.256 . S
C152 O141 1.283 . S
C152 O144 1.243 1_655 S
C153 C155 1.382 . S
C153 C157 1.393 . S
C153 C160 1.500 1_554 S
C154 C155 1.400 . S
C154 C156 1.384 . S
C155 C153 1.382 . S
C155 C154 1.400 . S
C155 H172 0.930 . S
C156 C154 1.384 . S
C156 C158 1.392 . S
C156 H173 0.931 . S
C157 C153 1.393 . S
C157 C158 1.401 . S
C157 H174 0.930 . S
C158 C156 1.392 . S
C158 C157 1.401 . S
C158 H175 0.930 . S
C159 O142 1.262 . S
C159 O143 1.260 1_545 S
C160 Tb96 2.833 . S
C160 O140 1.251 . S
C160 O145 1.256 1_556 S
C160 C153 1.500 1_556 S
C161 H126 0.929 . S
C161 C139 1.444 . S
C161 C162 1.317 . S
C162 H124 0.930 . S
C162 C130 1.432 . S
C162 C161 1.317 . S
C163 O147 1.283 . S
C163 O150 1.243 . S
C164 C165 1.382 . S
C164 C168 1.393 . S
C164 C171 1.500 . S
C165 C164 1.382 . S
C165 C166 1.400 . S
C165 H176 0.930 1_655 S
C166 C165 1.400 . S
C166 C167 1.384 . S
C167 C166 1.384 . S
C167 C169 1.392 . S
C167 H177 0.931 . S
C168 C164 1.393 . S
C168 C169 1.401 . S
C168 H178 0.930 . S
C169 C167 1.392 . S
C169 C168 1.401 . S
C169 H179 0.930 . S
C170 O148 1.262 1_545 S
C170 O149 1.260 . S
C171 Tb107 2.833 . S
C171 O146 1.251 . S
C171 O151 1.256 . S
C171 C164 1.500 . S
H172 C155 0.930 . S
H173 C156 0.931 . S
H174 C157 0.930 . S
H175 C158 0.930 . S
H176 C165 0.930 1_455 S
H177 C167 0.931 . S
H178 C168 0.930 . S
H179 C169 0.930 . S
Tb180 N211 2.660 1_556 S
Tb180 N218 2.600 . S
Tb180 O224 2.546 . S
Tb180 O225 2.610 1_545 S
Tb180 O227 2.320 1_545 S
Tb180 O228 2.552 . S
Tb180 O229 2.413 1_556 S
Tb180 O231 2.362 . S
Tb180 O232 2.421 . S
Tb180 C244 2.833 . S
C181 C184 1.432 . S
C181 C185 1.414 . S
C181 N188 1.359 . S
C182 C184 1.417 . S
C182 C186 1.432 . S
C182 C194 1.410 . S
C183 C185 1.444 . S
C183 C186 1.317 . S
C183 H206 0.929 . S
C184 C181 1.432 . S
C184 C182 1.417 . S
C184 N192 1.360 . S
C185 C181 1.414 . S
C185 C183 1.444 . S
C185 C190 1.385 . S
C186 C182 1.432 . S
C186 C183 1.317 . S
C186 H198 0.930 . S
C187 C189 1.392 . S
C187 C190 1.370 . S
C187 H199 0.931 . S
N188 C181 1.359 . S
N188 C189 1.327 . S
N188 Tb191 2.600 . S
C189 C187 1.392 . S
C189 N188 1.327 . S
C189 H196 0.930 . S
C190 C185 1.385 . S
C190 C187 1.370 . S
C190 H209 0.930 . S
Tb191 N188 2.600 . S
Tb191 N192 2.660 . S
Tb191 O225 2.362 . S
Tb191 O226 2.421 . S
Tb191 O230 2.546 . S
Tb191 O231 2.610 1_565 S
Tb191 O233 2.320 1_565 S
Tb191 O234 2.552 1_565 S
Tb191 O235 2.413 . S
Tb191 C255 2.833 . S
N192 C184 1.360 . S
N192 Tb191 2.660 . S
N192 C193 1.305 1_565 S
C193 N192 1.305 1_545 S
C193 C195 1.407 . S
C193 H200 0.930 . S
C194 C182 1.410 . S
C194 C195 1.345 1_565 S
C194 H202 0.930 . S
C195 C193 1.407 . S
C195 C194 1.345 1_545 S
C195 H197 0.930 . S
H196 C189 0.930 . S
H197 C195 0.930 . S
H198 C186 0.930 . S
H199 C187 0.931 . S
H200 C193 0.930 . S
H201 C215 0.930 1_565 S
H202 C194 0.930 . S
H203 C221 0.930 . S
H204 C212 0.930 1_565 S
H205 C219 0.931 . S
H206 C183 0.929 . S
H207 C213 0.930 . S
H208 C246 0.930 . S
H209 C190 0.930 . S
H210 C245 0.929 . S
N211 Tb180 2.660 1_554 S
N211 C212 1.305 . S
N211 C216 1.360 . S
C212 H204 0.930 1_545 S
C212 N211 1.305 . S
C212 C215 1.407 . S
C213 H207 0.930 . S
C213 C214 1.410 . S
C213 C215 1.345 . S
C214 C213 1.410 . S
C214 C216 1.417 . S
C214 C246 1.432 . S
C215 H201 0.930 1_545 S
C215 C212 1.407 . S
C215 C213 1.345 . S
C216 N211 1.360 . S
C216 C214 1.417 . S
C216 C220 1.432 . S
H217 C222 0.930 . S
N218 Tb180 2.600 . S
N218 C220 1.359 1_556 S
N218 C221 1.327 . S
C219 H205 0.931 . S
C219 C221 1.392 . S
C219 C222 1.370 1_556 S
C220 C216 1.432 . S
C220 N218 1.359 1_554 S
C220 C223 1.414 . S
C221 H203 0.930 . S
C221 N218 1.327 . S
C221 C219 1.392 . S
C222 H217 0.930 . S
C222 C219 1.370 1_554 S
C222 C223 1.385 . S
C223 C220 1.414 . S
C223 C222 1.385 . S
C223 C245 1.444 . S
O224 Tb180 2.546 . S
O224 C244 1.251 . S
O225 Tb180 2.610 1_565 S
O225 Tb191 2.362 . S
O225 C236 1.283 . S
O226 Tb191 2.421 . S
O226 C243 1.262 . S
O227 Tb180 2.320 1_565 S
O227 C243 1.260 . S
O228 Tb180 2.552 . S
O228 C236 1.243 1_545 S
O229 Tb180 2.413 1_554 S
O229 C244 1.256 1_554 S
O230 Tb191 2.546 . S
O230 C255 1.251 . S
O231 Tb180 2.362 . S
O231 Tb191 2.610 1_545 S
O231 C247 1.283 . S
O232 Tb180 2.421 . S
O232 C254 1.262 . S
O233 Tb191 2.320 1_545 S
O233 C254 1.260 . S
O234 Tb191 2.552 1_545 S
O234 C247 1.243 . S
O235 Tb191 2.413 . S
O235 C255 1.256 . S
C236 O225 1.283 . S
C236 O228 1.243 1_565 S
C237 C239 1.382 . S
C237 C241 1.393 . S
C237 C244 1.500 1_554 S
C238 C239 1.400 . S
C238 C240 1.384 . S
C239 C237 1.382 . S
C239 C238 1.400 . S
C239 H256 0.930 . S
C240 C238 1.384 . S
C240 C242 1.392 . S
C240 H257 0.931 . S
C241 C237 1.393 . S
C241 C242 1.401 . S
C241 H258 0.930 . S
C242 C240 1.392 . S
C242 C241 1.401 . S
C242 H259 0.930 . S
C243 O226 1.262 . S
C243 O227 1.260 . S
C244 Tb180 2.833 . S
C244 O224 1.251 . S
C244 O229 1.256 1_556 S
C244 C237 1.500 1_556 S
C245 H210 0.929 . S
C245 C223 1.444 . S
C245 C246 1.317 . S
C246 H208 0.930 . S
C246 C214 1.432 . S
C246 C245 1.317 . S
C247 O231 1.283 . S
C247 O234 1.243 . S
C248 C249 1.382 . S
C248 C252 1.393 . S
C248 C255 1.500 . S
C249 C248 1.382 . S
C249 C250 1.400 . S
C249 H260 0.930 1_565 S
C250 C249 1.400 . S
C250 C251 1.384 . S
C251 C250 1.384 . S
C251 C253 1.392 . S
C251 H261 0.931 . S
C252 C248 1.393 . S
C252 C253 1.401 . S
C252 H262 0.930 . S
C253 C251 1.392 . S
C253 C252 1.401 . S
C253 H263 0.930 . S
C254 O232 1.262 . S
C254 O233 1.260 . S
C255 Tb191 2.833 . S
C255 O230 1.251 . S
C255 O235 1.256 . S
C255 C248 1.500 . S
H256 C239 0.930 . S
H257 C240 0.931 . S
H258 C241 0.930 . S
H259 C242 0.930 . S
H260 C249 0.930 1_545 S
H261 C251 0.931 . S
H262 C252 0.930 . S
H263 C253 0.930 . S
Tb264 N295 2.660 . S
Tb264 N302 2.600 . S
Tb264 O308 2.546 . S
Tb264 O309 2.610 . S
Tb264 O311 2.320 . S
Tb264 O312 2.552 . S
Tb264 O313 2.413 . S
Tb264 O315 2.362 . S
Tb264 O316 2.421 . S
Tb264 C328 2.833 . S
C265 C268 1.432 . S
C265 C269 1.414 . S
C265 N272 1.359 . S
C266 C268 1.417 . S
C266 C270 1.432 . S
C266 C278 1.410 . S
C267 C269 1.444 . S
C267 C270 1.317 . S
C267 H290 0.929 . S
C268 C265 1.432 . S
C268 C266 1.417 . S
C268 N276 1.360 . S
C269 C265 1.414 . S
C269 C267 1.444 . S
C269 C274 1.385 1_556 S
C270 C266 1.432 . S
C270 C267 1.317 . S
C270 H282 0.930 . S
C271 C273 1.392 . S
C271 C274 1.370 . S
C271 H283 0.931 . S
N272 C265 1.359 . S
N272 C273 1.327 1_556 S
N272 Tb275 2.600 . S
C273 C271 1.392 . S
C273 N272 1.327 1_554 S
C273 H280 0.930 . S
C274 C269 1.385 1_554 S
C274 C271 1.370 . S
C274 H293 0.930 . S
Tb275 N272 2.600 . S
Tb275 N276 2.660 . S
Tb275 O309 2.362 . S
Tb275 O310 2.421 . S
Tb275 O314 2.546 1_556 S
Tb275 O315 2.610 . S
Tb275 O317 2.320 . S
Tb275 O318 2.552 . S
Tb275 O319 2.413 . S
Tb275 C339 2.833 1_556 S
N276 C268 1.360 . S
N276 Tb275 2.660 . S
N276 C277 1.305 . S
C277 N276 1.305 . S
C277 C279 1.407 . S
C277 H284 0.930 . S
C278 C266 1.410 . S
C278 C279 1.345 . S
C278 H286 0.930 . S
C279 C277 1.407 . S
C279 C278 1.345 . S
C279 H281 0.930 . S
H280 C273 0.930 . S
H281 C279 0.930 . S
H282 C270 0.930 . S
H283 C271 0.931 . S
H284 C277 0.930 . S
H285 C299 0.930 . S
H286 C278 0.930 . S
H287 C305 0.930 . S
H288 C296 0.930 . S
H289 C303 0.931 . S
H290 C267 0.929 . S
H291 C297 0.930 . S
H292 C330 0.930 . S
H293 C274 0.930 . S
H294 C329 0.929 . S
N295 Tb264 2.660 . S
N295 C296 1.305 . S
N295 C300 1.360 . S
C296 H288 0.930 . S
C296 N295 1.305 . S
C296 C299 1.407 . S
C297 H291 0.930 . S
C297 C298 1.410 . S
C297 C299 1.345 . S
C298 C297 1.410 . S
C298 C300 1.417 . S
C298 C330 1.432 . S
C299 H285 0.930 . S
C299 C296 1.407 . S
C299 C297 1.345 . S
C300 N295 1.360 . S
C300 C298 1.417 . S
C300 C304 1.432 . S
H301 C306 0.930 . S
N302 Tb264 2.600 . S
N302 C304 1.359 . S
N302 C305 1.327 . S
C303 H289 0.931 . S
C303 C305 1.392 . S
C303 C306 1.370 . S
C304 C300 1.432 . S
C304 N302 1.359 . S
C304 C307 1.414 . S
C305 H287 0.930 . S
C305 N302 1.327 . S
C305 C303 1.392 . S
C306 H301 0.930 . S
C306 C303 1.370 . S
C306 C307 1.385 . S
C307 C304 1.414 . S
C307 C306 1.385 . S
C307 C329 1.444 . S
O308 Tb264 2.546 . S
O308 C328 1.251 . S
O309 Tb264 2.610 . S
O309 Tb275 2.362 . S
O309 C320 1.283 . S
O310 Tb275 2.421 . S
O310 C327 1.262 . S
O311 Tb264 2.320 . S
O311 C327 1.260 . S
O312 Tb264 2.552 . S
O312 C320 1.243 . S
O313 Tb264 2.413 . S
O313 C328 1.256 . S
O314 Tb275 2.546 1_554 S
O314 C339 1.251 . S
O315 Tb264 2.362 . S
O315 Tb275 2.610 . S
O315 C331 1.283 . S
O316 Tb264 2.421 . S
O316 C338 1.262 . S
O317 Tb275 2.320 . S
O317 C338 1.260 . S
O318 Tb275 2.552 . S
O318 C331 1.243 . S
O319 Tb275 2.413 . S
O319 C339 1.256 1_556 S
C320 O309 1.283 . S
C320 O312 1.243 . S
C321 C323 1.382 . S
C321 C325 1.393 . S
C321 C328 1.500 . S
C322 C323 1.400 . S
C322 C324 1.384 . S
C323 C321 1.382 . S
C323 C322 1.400 . S
C323 H340 0.930 . S
C324 C322 1.384 . S
C324 C326 1.392 . S
C324 H341 0.931 . S
C325 C321 1.393 . S
C325 C326 1.401 . S
C325 H342 0.930 . S
C326 C324 1.392 . S
C326 C325 1.401 . S
C326 H343 0.930 . S
C327 O310 1.262 . S
C327 O311 1.260 . S
C328 Tb264 2.833 . S
C328 O308 1.251 . S
C328 O313 1.256 . S
C328 C321 1.500 . S
C329 H294 0.929 . S
C329 C307 1.444 . S
C329 C330 1.317 . S
C330 H292 0.930 . S
C330 C298 1.432 . S
C330 C329 1.317 . S
C331 O315 1.283 . S
C331 O318 1.243 . S
C332 C333 1.382 . S
C332 C336 1.393 . S
C332 C339 1.500 . S
C333 C332 1.382 . S
C333 C334 1.400 . S
C333 H344 0.930 . S
C334 C333 1.400 . S
C334 C335 1.384 . S
C335 C334 1.384 . S
C335 C337 1.392 . S
C335 H345 0.931 . S
C336 C332 1.393 . S
C336 C337 1.401 . S
C336 H346 0.930 . S
C337 C335 1.392 . S
C337 C336 1.401 . S
C337 H347 0.930 . S
C338 O316 1.262 . S
C338 O317 1.260 . S
C339 Tb275 2.833 1_554 S
C339 O314 1.251 . S
C339 O319 1.256 1_554 S
C339 C332 1.500 . S
H340 C323 0.930 . S
H341 C324 0.931 . S
H342 C325 0.930 . S
H343 C326 0.930 . S
H344 C333 0.930 . S
H345 C335 0.931 . S
H346 C336 0.930 . S
H347 C337 0.930 . S
Tb348 N379 2.660 . S
Tb348 N386 2.600 . S
Tb348 O392 2.546 . S
Tb348 O393 2.610 . S
Tb348 O395 2.320 . S
Tb348 O396 2.552 . S
Tb348 O397 2.413 . S
Tb348 O399 2.362 . S
Tb348 O400 2.421 1_455 S
Tb348 C412 2.833 . S
C349 C352 1.432 . S
C349 C353 1.414 . S
C349 N356 1.359 . S
C350 C352 1.417 . S
C350 C354 1.432 . S
C350 C362 1.410 . S
C351 C353 1.444 . S
C351 C354 1.317 . S
C351 H374 0.929 . S
C352 C349 1.432 . S
C352 C350 1.417 . S
C352 N360 1.360 . S
C353 C349 1.414 . S
C353 C351 1.444 . S
C353 C358 1.385 1_656 S
C354 C350 1.432 . S
C354 C351 1.317 . S
C354 H366 0.930 . S
C355 C357 1.392 . S
C355 C358 1.370 . S
C355 H367 0.931 . S
N356 C349 1.359 . S
N356 C357 1.327 1_656 S
N356 Tb359 2.600 . S
C357 C355 1.392 . S
C357 N356 1.327 1_454 S
C357 H364 0.930 . S
C358 C353 1.385 1_454 S
C358 C355 1.370 . S
C358 H377 0.930 . S
Tb359 N356 2.600 . S
Tb359 N360 2.660 . S
Tb359 O393 2.362 1_655 S
Tb359 O394 2.421 1_655 S
Tb359 O398 2.546 1_556 S
Tb359 O399 2.610 1_655 S
Tb359 O401 2.320 . S
Tb359 O402 2.552 . S
Tb359 O403 2.413 . S
Tb359 C423 2.833 1_556 S
N360 C352 1.360 . S
N360 Tb359 2.660 . S
N360 C361 1.305 . S
C361 N360 1.305 . S
C361 C363 1.407 . S
C361 H368 0.930 . S
C362 C350 1.410 . S
C362 C363 1.345 . S
C362 H370 0.930 . S
C363 C361 1.407 . S
C363 C362 1.345 . S
C363 H365 0.930 . S
H364 C357 0.930 . S
H365 C363 0.930 . S
H366 C354 0.930 . S
H367 C355 0.931 . S
H368 C361 0.930 . S
H369 C383 0.930 . S
H370 C362 0.930 . S
H371 C389 0.930 . S
H372 C380 0.930 . S
H373 C387 0.931 . S
H374 C351 0.929 . S
H375 C381 0.930 . S
H376 C414 0.930 . S
H377 C358 0.930 . S
H378 C413 0.929 . S
N379 Tb348 2.660 . S
N379 C380 1.305 . S
N379 C384 1.360 . S
C380 H372 0.930 . S
C380 N379 1.305 . S
C380 C383 1.407 . S
C381 H375 0.930 . S
C381 C382 1.410 . S
C381 C383 1.345 . S
C382 C381 1.410 . S
C382 C384 1.417 . S
C382 C414 1.432 . S
C383 H369 0.930 . S
C383 C380 1.407 . S
C383 C381 1.345 . S
C384 N379 1.360 . S
C384 C382 1.417 . S
C384 C388 1.432 . S
H385 C390 0.930 1_655 S
N386 Tb348 2.600 . S
N386 C388 1.359 . S
N386 C389 1.327 1_455 S
C387 H373 0.931 . S
C387 C389 1.392 . S
C387 C390 1.370 1_655 S
C388 C384 1.432 . S
C388 N386 1.359 . S
C388 C391 1.414 . S
C389 H371 0.930 . S
C389 N386 1.327 1_655 S
C389 C387 1.392 . S
C390 H385 0.930 1_455 S
C390 C387 1.370 1_455 S
C390 C391 1.385 . S
C391 C388 1.414 . S
C391 C390 1.385 . S
C391 C413 1.444 . S
O392 Tb348 2.546 . S
O392 C412 1.251 . S
O393 Tb348 2.610 . S
O393 Tb359 2.362 1_455 S
O393 C404 1.283 . S
O394 Tb359 2.421 1_455 S
O394 C411 1.262 . S
O395 Tb348 2.320 . S
O395 C411 1.260 . S
O396 Tb348 2.552 . S
O396 C404 1.243 . S
O397 Tb348 2.413 . S
O397 C412 1.256 . S
O398 Tb359 2.546 1_554 S
O398 C423 1.251 . S
O399 Tb348 2.362 . S
O399 Tb359 2.610 1_455 S
O399 C415 1.283 1_455 S
O400 Tb348 2.421 1_655 S
O400 C422 1.262 . S
O401 Tb359 2.320 . S
O401 C422 1.260 . S
O402 Tb359 2.552 . S
O402 C415 1.243 . S
O403 Tb359 2.413 . S
O403 C423 1.256 1_556 S
C404 O393 1.283 . S
C404 O396 1.243 . S
C405 C407 1.382 . S
C405 C409 1.393 . S
C405 C412 1.500 . S
C406 C407 1.400 . S
C406 C408 1.384 . S
C407 C405 1.382 . S
C407 C406 1.400 . S
C407 H424 0.930 . S
C408 C406 1.384 . S
C408 C410 1.392 . S
C408 H425 0.931 . S
C409 C405 1.393 . S
C409 C410 1.401 . S
C409 H426 0.930 . S
C410 C408 1.392 . S
C410 C409 1.401 . S
C410 H427 0.930 . S
C411 O394 1.262 . S
C411 O395 1.260 . S
C412 Tb348 2.833 . S
C412 O392 1.251 . S
C412 O397 1.256 . S
C412 C405 1.500 . S
C413 H378 0.929 . S
C413 C391 1.444 . S
C413 C414 1.317 . S
C414 H376 0.930 . S
C414 C382 1.432 . S
C414 C413 1.317 . S
C415 O399 1.283 1_655 S
C415 O402 1.243 . S
C416 C417 1.382 . S
C416 C420 1.393 . S
C416 C423 1.500 . S
C417 C416 1.382 . S
C417 C418 1.400 . S
C417 H428 0.930 . S
C418 C417 1.400 . S
C418 C419 1.384 . S
C419 C418 1.384 . S
C419 C421 1.392 . S
C419 H429 0.931 . S
C420 C416 1.393 . S
C420 C421 1.401 . S
C420 H430 0.930 . S
C421 C419 1.392 . S
C421 C420 1.401 . S
C421 H431 0.930 . S
C422 O400 1.262 . S
C422 O401 1.260 . S
C423 Tb359 2.833 1_554 S
C423 O398 1.251 . S
C423 O403 1.256 1_554 S
C423 C416 1.500 . S
H424 C407 0.930 . S
H425 C408 0.931 . S
H426 C409 0.930 . S
H427 C410 0.930 . S
H428 C417 0.930 . S
H429 C419 0.931 . S
H430 C420 0.930 . S
H431 C421 0.930 . S
C432 C433 1.363 . S
C432 C438 1.379 . S
C432 N440 1.356 . S
C433 C432 1.363 . S
C433 C439 1.363 . S
C434 C435 1.363 . S
C434 C439 1.379 . S
C434 N441 1.356 . S
C435 C434 1.363 . S
C435 C438 1.363 . S
N436 C438 1.356 . S
N436 H448 0.984 . S
N436 H449 0.985 . S
N437 C439 1.356 . S
N437 H442 0.984 . S
N437 H443 0.985 . S
C438 C432 1.379 . S
C438 C435 1.363 . S
C438 N436 1.356 . S
C439 C433 1.363 . S
C439 C434 1.379 . S
C439 N437 1.356 . S
N440 C432 1.356 . S
N440 H446 0.984 . S
N440 H447 0.984 . S
N441 C434 1.356 . S
N441 H444 0.984 . S
N441 H445 0.985 . S
H442 N437 0.984 . S
H443 N437 0.985 . S
H444 N441 0.984 . S
H445 N441 0.985 . S
H446 N440 0.984 . S
H447 N440 0.984 . S
H448 N436 0.984 . S
H449 N436 0.985 . S
C450 C451 1.363 . S
C450 C456 1.379 . S
C450 N458 1.356 . S
C451 C450 1.363 . S
C451 C457 1.363 . S
C452 C453 1.363 . S
C452 C457 1.379 . S
C452 N459 1.356 . S
C453 C452 1.363 . S
C453 C456 1.363 . S
N454 C456 1.356 . S
N454 H466 0.984 . S
N454 H467 0.985 . S
N455 C457 1.356 . S
N455 H460 0.984 . S
N455 H461 0.985 . S
C456 C450 1.379 . S
C456 C453 1.363 . S
C456 N454 1.356 . S
C457 C451 1.363 . S
C457 C452 1.379 . S
C457 N455 1.356 . S
N458 C450 1.356 . S
N458 H464 0.984 . S
N458 H465 0.984 . S
N459 C452 1.356 . S
N459 H462 0.984 . S
N459 H463 0.985 . S
H460 N455 0.984 . S
H461 N455 0.985 . S
H462 N459 0.984 . S
H463 N459 0.985 . S
H464 N458 0.984 . S
H465 N458 0.984 . S
H466 N454 0.984 . S
H467 N454 0.985 . S
C468 C469 1.363 . S
C468 C474 1.379 . S
C468 N476 1.356 . S
C469 C468 1.363 . S
C469 C475 1.363 . S
C470 C471 1.363 . S
C470 C475 1.379 . S
C470 N477 1.356 . S
C471 C470 1.363 . S
C471 C474 1.363 . S
N472 C474 1.356 . S
N472 H484 0.984 . S
N472 H485 0.985 . S
N473 C475 1.356 . S
N473 H478 0.984 . S
N473 H479 0.985 . S
C474 C468 1.379 . S
C474 C471 1.363 . S
C474 N472 1.356 . S
C475 C469 1.363 . S
C475 C470 1.379 . S
C475 N473 1.356 . S
N476 C468 1.356 . S
N476 H482 0.984 . S
N476 H483 0.984 . S
N477 C470 1.356 . S
N477 H480 0.984 . S
N477 H481 0.985 . S
H478 N473 0.984 . S
H479 N473 0.985 . S
H480 N477 0.984 . S
H481 N477 0.985 . S
H482 N476 0.984 . S
H483 N476 0.984 . S
H484 N472 0.984 . S
H485 N472 0.985 . S
C486 C487 1.363 . S
C486 C492 1.379 . S
C486 N494 1.356 . S
C487 C486 1.363 . S
C487 C493 1.363 . S
C488 C489 1.363 . S
C488 C493 1.379 . S
C488 N495 1.356 1_455 S
C489 C488 1.363 . S
C489 C492 1.363 . S
N490 C492 1.356 . S
N490 H502 0.984 . S
N490 H503 0.985 . S
N491 C493 1.356 . S
N491 H496 0.984 . S
N491 H497 0.985 1_455 S
C492 C486 1.379 . S
C492 C489 1.363 . S
C492 N490 1.356 . S
C493 C487 1.363 . S
C493 C488 1.379 . S
C493 N491 1.356 . S
N494 C486 1.356 . S
N494 H500 0.984 . S
N494 H501 0.984 . S
N495 C488 1.356 1_655 S
N495 H498 0.984 . S
N495 H499 0.985 . S
H496 N491 0.984 . S
H497 N491 0.985 1_655 S
H498 N495 0.984 . S
H499 N495 0.985 . S
H500 N494 0.984 . S
H501 N494 0.984 . S
H502 N490 0.984 . S
H503 N490 0.985 . S
C504 C505 1.363 1_545 S
C504 C510 1.379 . S
C504 N512 1.356 . S
C505 C504 1.363 1_565 S
C505 C511 1.363 . S
C506 C507 1.363 . S
C506 C511 1.379 . S
C506 N513 1.356 1_554 S
C507 C506 1.363 . S
C507 C510 1.363 1_565 S
N508 C510 1.356 1_556 S
N508 H520 0.984 . S
N508 H521 0.985 . S
N509 C511 1.356 . S
N509 H514 0.984 . S
N509 H515 0.985 . S
C510 C504 1.379 . S
C510 C507 1.363 1_545 S
C510 N508 1.356 1_554 S
C511 C505 1.363 . S
C511 C506 1.379 . S
C511 N509 1.356 . S
N512 C504 1.356 . S
N512 H518 0.984 . S
N512 H519 0.984 . S
N513 C506 1.356 1_556 S
N513 H516 0.984 . S
N513 H517 0.985 1_556 S
H514 N509 0.984 . S
H515 N509 0.985 . S
H516 N513 0.984 . S
H517 N513 0.985 1_554 S
H518 N512 0.984 . S
H519 N512 0.984 . S
H520 N508 0.984 . S
H521 N508 0.985 . S
C522 C523 1.363 . S
C522 C528 1.379 . S
C522 N530 1.356 . S
C523 C522 1.363 . S
C523 C529 1.363 . S
C524 C525 1.363 . S
C524 C529 1.379 . S
C524 N531 1.356 . S
C525 C524 1.363 . S
C525 C528 1.363 . S
N526 C528 1.356 1_556 S
N526 H538 0.984 . S
N526 H539 0.985 . S
N527 C529 1.356 . S
N527 H532 0.984 . S
N527 H533 0.985 . S
C528 C522 1.379 . S
C528 C525 1.363 . S
C528 N526 1.356 1_554 S
C529 C523 1.363 . S
C529 C524 1.379 . S
C529 N527 1.356 . S
N530 C522 1.356 . S
N530 H536 0.984 . S
N530 H537 0.984 . S
N531 C524 1.356 . S
N531 H534 0.984 1_554 S
N531 H535 0.985 . S
H532 N527 0.984 . S
H533 N527 0.985 . S
H534 N531 0.984 1_556 S
H535 N531 0.985 . S
H536 N530 0.984 . S
H537 N530 0.984 . S
H538 N526 0.984 . S
H539 N526 0.985 . S
C540 C541 1.363 . S
C540 C546 1.379 . S
C540 N548 1.356 . S
C541 C540 1.363 . S
C541 C547 1.363 . S
C542 C543 1.363 1_554 S
C542 C547 1.379 . S
C542 N549 1.356 . S
C543 C542 1.363 1_556 S
C543 C546 1.363 1_556 S
N544 C546 1.356 1_556 S
N544 H556 0.984 . S
N544 H557 0.985 . S
N545 C547 1.356 . S
N545 H550 0.984 . S
N545 H551 0.985 . S
C546 C540 1.379 . S
C546 C543 1.363 1_554 S
C546 N544 1.356 1_554 S
C547 C541 1.363 . S
C547 C542 1.379 . S
C547 N545 1.356 . S
N548 C540 1.356 . S
N548 H554 0.984 . S
N548 H555 0.984 . S
N549 C542 1.356 . S
N549 H552 0.984 1_554 S
N549 H553 0.985 . S
H550 N545 0.984 . S
H551 N545 0.985 . S
H552 N549 0.984 1_556 S
H553 N549 0.985 . S
H554 N548 0.984 . S
H555 N548 0.984 . S
H556 N544 0.984 . S
H557 N544 0.985 . S
C558 C559 1.363 . S
C558 C564 1.379 1_655 S
C558 N566 1.356 1_655 S
C559 C558 1.363 . S
C559 C565 1.363 . S
C560 C561 1.363 . S
C560 C565 1.379 . S
C560 N567 1.356 1_554 S
C561 C560 1.363 . S
C561 C564 1.365 1_655 S
N562 C564 1.356 . S
N562 H574 0.984 . S
N562 H575 0.985 1_554 S
N563 C565 1.356 . S
N563 H568 0.984 . S
N563 H569 0.985 . S
C564 C558 1.379 1_455 S
C564 C561 1.365 1_455 S
C564 N562 1.356 . S
C565 C559 1.363 . S
C565 C560 1.379 . S
C565 N563 1.356 . S
N566 C558 1.356 1_455 S
N566 H572 0.984 . S
N566 H573 0.984 . S
N567 C560 1.356 1_556 S
N567 H570 0.984 . S
N567 H571 0.985 . S
H568 N563 0.984 . S
H569 N563 0.985 . S
H570 N567 0.984 . S
H571 N567 0.985 . S
H572 N566 0.984 . S
H573 N566 0.984 . S
H574 N562 0.984 . S
H575 N562 0.985 1_556 S
C576 C577 1.363 . S
C576 C582 1.379 . S
C576 N584 1.356 . S
C577 C576 1.363 . S
C577 C583 1.363 . S
C578 C579 1.365 . S
C578 C583 1.379 1_655 S
C578 N585 1.356 . S
C579 C578 1.365 . S
C579 C582 1.346 1_655 S
N580 C582 1.356 . S
N580 H592 0.984 . S
N580 H593 0.997 . S
N581 C583 1.356 1_556 S
N581 H586 0.984 . S
N581 H587 0.985 . S
C582 C576 1.379 . S
C582 C579 1.346 1_455 S
C582 N580 1.356 . S
C583 C577 1.363 . S
C583 C578 1.379 1_455 S
C583 N581 1.356 1_554 S
N584 C576 1.356 . S
N584 H590 0.984 . S
N584 H591 0.984 . S
N585 C578 1.356 . S
N585 H588 0.984 . S
N585 H589 0.985 . S
H586 N581 0.984 . S
H587 N581 0.985 . S
H588 N585 0.984 . S
H589 N585 0.985 . S
H590 N584 0.984 . S
H591 N584 0.984 . S
H592 N580 0.984 . S
H593 N580 0.997 . S
C594 C595 1.363 . S
C594 C600 1.379 . S
C594 N602 1.356 . S
C595 C594 1.363 . S
C595 C601 1.363 . S
C596 C597 1.367 . S
C596 C601 1.379 1_565 S
C596 N603 1.356 . S
C597 C596 1.367 . S
C597 C600 1.342 1_565 S
N598 C600 1.356 . S
N598 H610 0.984 . S
N598 H611 0.985 . S
N599 C601 1.356 1_556 S
N599 H604 0.984 . S
N599 H605 0.985 . S
C600 C594 1.379 . S
C600 C597 1.342 1_545 S
C600 N598 1.356 . S
C601 C595 1.363 . S
C601 C596 1.379 1_545 S
C601 N599 1.356 1_554 S
N602 C594 1.356 . S
N602 H608 0.984 . S
N602 H609 0.984 . S
N603 C596 1.356 . S
N603 H606 0.984 . S
N603 H607 0.985 . S
H604 N599 0.984 . S
H605 N599 0.985 . S
H606 N603 0.984 . S
H607 N603 0.985 . S
H608 N602 0.984 . S
H609 N602 0.984 . S
H610 N598 0.984 . S
H611 N598 0.985 . S
C612 C613 1.363 . S
C612 C618 1.379 . S
C612 N620 1.356 1_554 S
C613 C612 1.363 . S
C613 C619 1.363 . S
C614 C615 1.363 . S
C614 C619 1.379 . S
C614 N621 1.356 . S
C615 C614 1.363 . S
C615 C618 1.363 . S
N616 C618 1.356 . S
N616 H628 0.984 1_554 S
N616 H629 0.985 . S
N617 C619 1.356 . S
N617 H622 0.984 . S
N617 H623 0.985 . S
C618 C612 1.379 . S
C618 C615 1.363 . S
C618 N616 1.356 . S
C619 C613 1.363 . S
C619 C614 1.379 . S
C619 N617 1.356 . S
N620 C612 1.356 1_556 S
N620 H626 0.984 . S
N620 H627 0.984 1_556 S
N621 C614 1.356 . S
N621 H624 0.984 . S
N621 H625 0.985 . S
H622 N617 0.984 . S
H623 N617 0.985 . S
H624 N621 0.984 . S
H625 N621 0.985 . S
H626 N620 0.984 . S
H627 N620 0.984 1_554 S
H628 N616 0.984 1_556 S
H629 N616 0.985 . S
C630 C631 1.363 . S
C630 C636 1.379 . S
C630 N638 1.356 . S
C631 C630 1.363 . S
C631 C637 1.363 . S
C632 C633 1.363 . S
C632 C637 1.379 . S
C632 N639 1.356 . S
C633 C632 1.363 . S
C633 C636 1.363 . S
N634 C636 1.356 . S
N634 H646 0.984 . S
N634 H647 0.985 . S
N635 C637 1.356 . S
N635 H640 0.984 . S
N635 H641 0.985 1_554 S
C636 C630 1.379 . S
C636 C633 1.363 . S
C636 N634 1.356 . S
C637 C631 1.363 . S
C637 C632 1.379 . S
C637 N635 1.356 . S
N638 C630 1.356 . S
N638 H644 0.984 . S
N638 H645 0.984 . S
N639 C632 1.356 . S
N639 H642 0.984 . S
N639 H643 0.985 . S
H640 N635 0.984 . S
H641 N635 0.985 1_556 S
H642 N639 0.984 . S
H643 N639 0.985 . S
H644 N638 0.984 . S
H645 N638 0.984 . S
H646 N634 0.984 . S
H647 N634 0.985 . S
C648 C649 1.363 . S
C648 C654 1.379 1_655 S
C648 N656 1.356 . S
C649 C648 1.363 . S
C649 C655 1.363 . S
C650 C651 1.363 1_655 S
C650 C655 1.379 . S
C650 N657 1.356 . S
C651 C650 1.363 1_455 S
C651 C654 1.363 . S
N652 C654 1.356 . S
N652 H664 0.984 . S
N652 H665 0.985 . S
N653 C655 1.356 . S
N653 H658 0.984 . S
N653 H659 0.985 . S
C654 C648 1.379 1_455 S
C654 C651 1.363 . S
C654 N652 1.356 . S
C655 C649 1.363 . S
C655 C650 1.379 . S
C655 N653 1.356 . S
N656 C648 1.356 . S
N656 H662 0.984 1_655 S
N656 H663 0.984 . S
N657 C650 1.356 . S
N657 H660 0.984 1_655 S
N657 H661 0.985 . S
H658 N653 0.984 . S
H659 N653 0.985 . S
H660 N657 0.984 1_455 S
H661 N657 0.985 . S
H662 N656 0.984 1_455 S
H663 N656 0.984 . S
H664 N652 0.984 . S
H665 N652 0.985 . S
C666 C667 1.363 . S
C666 C672 1.379 1_565 S
C666 N674 1.356 . S
C667 C666 1.363 . S
C667 C673 1.363 . S
C668 C669 1.363 . S
C668 C673 1.379 1_545 S
C668 N675 1.356 . S
C669 C668 1.363 . S
C669 C672 1.363 . S
N670 C672 1.356 . S
N670 H682 0.984 1_554 S
N670 H683 0.985 . S
N671 C673 1.356 . S
N671 H676 0.984 . S
N671 H677 0.985 . S
C672 C666 1.379 1_545 S
C672 C669 1.363 . S
C672 N670 1.356 . S
C673 C667 1.363 . S
C673 C668 1.379 1_565 S
C673 N671 1.356 . S
N674 C666 1.356 . S
N674 H680 0.984 . S
N674 H681 0.984 . S
N675 C668 1.356 . S
N675 H678 0.984 . S
N675 H679 0.985 . S
H676 N671 0.984 . S
H677 N671 0.985 . S
H678 N675 0.984 . S
H679 N675 0.985 . S
H680 N674 0.984 . S
H681 N674 0.984 . S
H682 N670 0.984 1_556 S
H683 N670 0.985 . S
C684 C685 1.363 . S
C684 C690 1.379 . S
C684 N692 1.356 . S
C685 C684 1.363 . S
C685 C691 1.363 . S
C686 C687 1.363 . S
C686 C691 1.379 . S
C686 N693 1.356 . S
C687 C686 1.363 . S
C687 C690 1.363 . S
N688 C690 1.356 . S
N688 H700 0.984 . S
N688 H701 0.985 . S
N689 C691 1.356 . S
N689 H694 0.984 . S
N689 H695 0.985 . S
C690 C684 1.379 . S
C690 C687 1.363 . S
C690 N688 1.356 . S
C691 C685 1.363 . S
C691 C686 1.379 . S
C691 N689 1.356 . S
N692 C684 1.356 . S
N692 H698 0.984 . S
N692 H699 0.984 . S
N693 C686 1.356 . S
N693 H696 0.984 . S
N693 H697 0.985 . S
H694 N689 0.984 . S
H695 N689 0.985 . S
H696 N693 0.984 . S
H697 N693 0.985 . S
H698 N692 0.984 . S
H699 N692 0.984 . S
H700 N688 0.984 . S
H701 N688 0.985 . S
C702 C703 1.363 . S
C702 C708 1.379 . S
C702 N710 1.356 . S
C703 C702 1.363 . S
C703 C709 1.363 . S
C704 C705 1.363 . S
C704 C709 1.379 . S
C704 N711 1.356 . S
C705 C704 1.363 . S
C705 C708 1.363 . S
N706 C708 1.356 . S
N706 H718 0.984 1_554 S
N706 H719 0.985 . S
N707 C709 1.356 . S
N707 H712 0.984 . S
N707 H713 0.985 . S
C708 C702 1.379 . S
C708 C705 1.363 . S
C708 N706 1.356 . S
C709 C703 1.363 . S
C709 C704 1.379 . S
C709 N707 1.356 . S
N710 C702 1.356 . S
N710 H716 0.984 . S
N710 H717 0.984 . S
N711 C704 1.356 . S
N711 H714 0.984 . S
N711 H715 0.985 . S
H712 N707 0.984 . S
H713 N707 0.985 . S
H714 N711 0.984 . S
H715 N711 0.985 . S
H716 N710 0.984 . S
H717 N710 0.984 . S
H718 N706 0.984 1_556 S
H719 N706 0.985 . S
C720 C721 1.363 . S
C720 C726 1.379 . S
C720 N728 1.356 . S
C721 C720 1.363 . S
C721 C727 1.363 . S
C722 C723 1.363 . S
C722 C727 1.379 . S
C722 N729 1.356 . S
C723 C722 1.363 . S
C723 C726 1.363 . S
N724 C726 1.356 . S
N724 H736 0.984 1_556 S
N724 H737 0.985 . S
N725 C727 1.356 . S
N725 H730 0.984 . S
N725 H731 0.985 . S
C726 C720 1.379 . S
C726 C723 1.363 . S
C726 N724 1.356 . S
C727 C721 1.363 . S
C727 C722 1.379 . S
C727 N725 1.356 . S
N728 C720 1.356 . S
N728 H734 0.984 1_556 S
N728 H735 0.984 . S
N729 C722 1.356 . S
N729 H732 0.984 . S
N729 H733 0.985 1_455 S
H730 N725 0.984 . S
H731 N725 0.985 . S
H732 N729 0.984 . S
H733 N729 0.985 1_655 S
H734 N728 0.984 1_554 S
H735 N728 0.984 . S
H736 N724 0.984 1_554 S
H737 N724 0.985 . S
C738 C739 1.363 . S
C738 C744 1.379 . S
C738 N746 1.356 . S
C739 C738 1.363 . S
C739 C745 1.363 . S
C740 C741 1.363 . S
C740 C745 1.379 . S
C740 N747 1.356 . S
C741 C740 1.363 . S
C741 C744 1.363 . S
N742 C744 1.356 . S
N742 H754 0.984 1_556 S
N742 H755 0.985 . S
N743 C745 1.356 . S
N743 H748 0.984 . S
N743 H749 0.985 . S
C744 C738 1.379 . S
C744 C741 1.363 . S
C744 N742 1.356 . S
C745 C739 1.363 . S
C745 C740 1.379 . S
C745 N743 1.356 . S
N746 C738 1.356 . S
N746 H752 0.984 1_556 S
N746 H753 0.984 . S
N747 C740 1.356 . S
N747 H750 0.984 . S
N747 H751 0.985 . S
H748 N743 0.984 . S
H749 N743 0.985 . S
H750 N747 0.984 . S
H751 N747 0.985 . S
H752 N746 0.984 1_554 S
H753 N746 0.984 . S
H754 N742 0.984 1_554 S
H755 N742 0.985 . S
C756 C757 1.363 . S
C756 C762 1.379 . S
C756 N764 1.356 . S
C757 C756 1.363 . S
C757 C763 1.363 . S
C758 C759 1.363 . S
C758 C763 1.379 . S
C758 N765 1.356 . S
C759 C758 1.363 . S
C759 C762 1.363 . S
N760 C762 1.356 . S
N760 H772 0.984 . S
N760 H773 0.985 . S
N761 C763 1.356 . S
N761 H766 0.984 . S
N761 H767 0.985 1_556 S
C762 C756 1.379 . S
C762 C759 1.363 . S
C762 N760 1.356 . S
C763 C757 1.363 . S
C763 C758 1.379 . S
C763 N761 1.356 . S
N764 C756 1.356 . S
N764 H770 0.984 . S
N764 H771 0.984 . S
N765 C758 1.356 . S
N765 H768 0.984 . S
N765 H769 0.985 1_556 S
H766 N761 0.984 . S
H767 N761 0.985 1_554 S
H768 N765 0.984 . S
H769 N765 0.985 1_554 S
H770 N764 0.984 . S
H771 N764 0.984 . S
H772 N760 0.984 . S
H773 N760 0.985 . S
C774 C775 1.363 . S
C774 C780 1.379 . S
C774 N782 1.358 . S
C775 C774 1.363 . S
C775 C781 1.363 . S
C776 C777 1.363 . S
C776 C781 1.379 . S
C776 N783 1.356 . S
C777 C776 1.363 . S
C777 C780 1.363 . S
N778 C780 1.356 . S
N778 H790 0.984 1_556 S
N778 H791 0.985 . S
N779 C781 1.356 . S
N779 H784 0.984 . S
N779 H785 0.985 . S
C780 C774 1.379 . S
C780 C777 1.363 . S
C780 N778 1.356 . S
C781 C775 1.363 . S
C781 C776 1.379 . S
C781 N779 1.356 . S
N782 C774 1.358 . S
N782 H788 0.982 1_556 S
N782 H789 0.985 . S
N783 C776 1.356 . S
N783 H786 0.984 . S
N783 H787 0.985 . S
H784 N779 0.984 . S
H785 N779 0.985 . S
H786 N783 0.984 . S
H787 N783 0.985 . S
H788 N782 0.982 1_554 S
H789 N782 0.985 . S
H790 N778 0.984 1_554 S
H791 N778 0.985 . S
C792 C793 1.363 . S
C792 C798 1.379 . S
C792 N800 1.356 . S
C793 C792 1.363 . S
C793 C799 1.363 . S
C794 C795 1.363 . S
C794 C799 1.379 . S
C794 N801 1.356 1_655 S
C795 C794 1.363 . S
C795 C798 1.363 . S
N796 C798 1.356 . S
N796 H808 0.984 . S
N796 H809 0.985 . S
N797 C799 1.356 . S
N797 H802 0.984 . S
N797 H803 0.985 1_655 S
C798 C792 1.379 . S
C798 C795 1.363 . S
C798 N796 1.356 . S
C799 C793 1.363 . S
C799 C794 1.379 . S
C799 N797 1.356 . S
N800 C792 1.356 . S
N800 H806 0.984 . S
N800 H807 0.984 . S
N801 C794 1.356 1_455 S
N801 H804 0.984 . S
N801 H805 0.985 . S
H802 N797 0.984 . S
H803 N797 0.985 1_455 S
H804 N801 0.984 . S
H805 N801 0.985 . S
H806 N800 0.984 . S
H807 N800 0.984 . S
H808 N796 0.984 . S
H809 N796 0.985 . S
C810 C811 1.363 . S
C810 C816 1.379 . S
C810 N818 1.356 . S
C811 C810 1.363 . S
C811 C817 1.363 . S
C812 C813 1.363 . S
C812 C817 1.379 . S
C812 N819 1.356 1_565 S
C813 C812 1.363 . S
C813 C816 1.363 . S
N814 C816 1.356 . S
N814 H826 0.984 . S
N814 H827 0.985 . S
N815 C817 1.356 . S
N815 H820 0.984 . S
N815 H821 0.985 1_565 S
C816 C810 1.379 . S
C816 C813 1.363 . S
C816 N814 1.356 . S
C817 C811 1.363 . S
C817 C812 1.379 . S
C817 N815 1.356 . S
N818 C810 1.356 . S
N818 H824 0.984 . S
N818 H825 0.984 . S
N819 C812 1.356 1_545 S
N819 H822 0.984 . S
N819 H823 0.985 . S
H820 N815 0.984 . S
H821 N815 0.985 1_545 S
H822 N819 0.984 . S
H823 N819 0.985 . S
H824 N818 0.984 . S
H825 N818 0.984 . S
H826 N814 0.984 . S
H827 N814 0.985 . S
C828 C829 1.363 . S
C828 C834 1.379 . S
C828 N836 1.356 . S
C829 C828 1.363 . S
C829 C835 1.363 . S
C830 C831 1.363 . S
C830 C835 1.379 . S
C830 N837 1.356 . S
C831 C830 1.363 . S
C831 C834 1.363 . S
N832 C834 1.356 . S
N832 H844 0.984 . S
N832 H845 0.985 . S
N833 C835 1.356 . S
N833 H838 0.984 . S
N833 H839 0.985 . S
C834 C828 1.379 . S
C834 C831 1.363 . S
C834 N832 1.356 . S
C835 C829 1.363 . S
C835 C830 1.379 . S
C835 N833 1.356 . S
N836 C828 1.356 . S
N836 H842 0.984 . S
N836 H843 0.984 . S
N837 C830 1.356 . S
N837 H840 0.984 . S
N837 H841 0.985 . S
H838 N833 0.984 . S
H839 N833 0.985 . S
H840 N837 0.984 . S
H841 N837 0.985 . S
H842 N836 0.984 . S
H843 N836 0.984 . S
H844 N832 0.984 . S
H845 N832 0.985 . S
C846 C847 1.363 . S
C846 C852 1.379 . S
C846 N854 1.356 . S
C847 C846 1.363 . S
C847 C853 1.363 . S
C848 C849 1.363 . S
C848 C853 1.379 . S
C848 N855 1.356 . S
C849 C848 1.363 . S
C849 C852 1.363 . S
N850 C852 1.356 . S
N850 H862 0.984 . S
N850 H863 0.985 . S
N851 C853 1.356 . S
N851 H856 0.984 . S
N851 H857 0.985 . S
C852 C846 1.379 . S
C852 C849 1.363 . S
C852 N850 1.356 . S
C853 C847 1.363 . S
C853 C848 1.379 . S
C853 N851 1.356 . S
N854 C846 1.356 . S
N854 H860 0.984 . S
N854 H861 0.984 . S
N855 C848 1.356 . S
N855 H858 0.984 . S
N855 H859 0.985 . S
H856 N851 0.984 . S
H857 N851 0.985 . S
H858 N855 0.984 . S
H859 N855 0.985 . S
H860 N854 0.984 . S
H861 N854 0.984 . S
H862 N850 0.984 . S
H863 N850 0.985 . S
C433 C76 1.939 . S
C435 C170 2.102 . S
C453 C254 2.112 . S
C451 C88 1.948 . S
C471 C320 2.015 . S
C469 C52 2.019 . S
C489 C404 2.008 . S
C487 C64 2.011 . S
C507 C159 2.102 1_564 S
C505 C28 1.949 . S
C523 C40 1.959 . S
C525 C243 2.111 1_554 S
C541 C4 2.032 . S
C543 C331 2.015 . S
C559 C16 2.023 . S
C561 C415 2.006 1_554 S
C579 C166 0.953 . S
C577 C69 0.888 . S
C597 C250 0.919 . S
C595 C81 0.862 . S
C615 C322 0.877 . S
C613 C93 0.841 . S
C631 C57 0.865 . S
C633 C406 0.911 . S
C649 C21 0.879 . S
C651 C154 0.935 . S
C669 C238 0.900 . S
C667 C33 0.855 . S
C687 C334 0.877 . S
C685 C45 0.834 . S
C703 C9 0.856 . S
C705 C418 0.911 . S
C721 C66 2.126 . S
C723 C163 2.221 . S
C739 C78 2.104 . S
C741 C247 2.200 . S
C759 C327 2.297 . S
C757 C90 2.025 . S
C777 C411 2.316 . S
C775 C54 2.046 . S
C793 C18 2.115 . S
C795 C152 2.221 . S
C813 C236 2.200 . S
C811 C30 2.095 . S
C831 C338 2.296 . S
C829 C42 2.014 . S
C847 C6 2.033 . S
C849 C422 2.316 . S
