# Generated by pormake.
# Topology pyr, (3,6)-cn, num edge types: 1
# Building blocks:
#     Node 0, Type 0, BuildingBlock: ESEHIV_clean_linker_0, # of connection points: 3
#     Node 1, Type 0, BuildingBlock: ESEHIV_clean_linker_0, # of connection points: 3
#     Node 2, Type 0, BuildingBlock: ESEHIV_clean_linker_0, # of connection points: 3
#     Node 3, Type 0, BuildingBlock: ESEHIV_clean_linker_0, # of connection points: 3
#     Node 4, Type 0, BuildingBlock: ESEHIV_clean_linker_0, # of connection points: 3
#     Node 5, Type 0, BuildingBlock: ESEHIV_clean_linker_0, # of connection points: 3
#     Node 6, Type 0, BuildingBlock: ESEHIV_clean_linker_0, # of connection points: 3
#     Node 7, Type 0, BuildingBlock: ESEHIV_clean_linker_0, # of connection points: 3
#     Node 8, Type 1, BuildingBlock: MIFKUJ_clean_sbu_0, # of connection points: 6
#     Node 9, Type 1, BuildingBlock: MIFKUJ_clean_sbu_0, # of connection points: 6
#     Node 10, Type 1, BuildingBlock: MIFKUJ_clean_sbu_0, # of connection points: 6
#     Node 11, Type 1, BuildingBlock: MIFKUJ_clean_sbu_0, # of connection points: 6
#     Edge 12, Type (0, 1), BuildingBlock: EZIPEK_clean_linker_0, # of connection points: 2
#     Edge 13, Type (0, 1), BuildingBlock: EZIPEK_clean_linker_0, # of connection points: 2
#     Edge 14, Type (0, 1), BuildingBlock: EZIPEK_clean_linker_0, # of connection points: 2
#     Edge 15, Type (0, 1), BuildingBlock: EZIPEK_clean_linker_0, # of connection points: 2
#     Edge 16, Type (0, 1), BuildingBlock: EZIPEK_clean_linker_0, # of connection points: 2
#     Edge 17, Type (0, 1), BuildingBlock: EZIPEK_clean_linker_0, # of connection points: 2
#     Edge 18, Type (0, 1), BuildingBlock: EZIPEK_clean_linker_0, # of connection points: 2
#     Edge 19, Type (0, 1), BuildingBlock: EZIPEK_clean_linker_0, # of connection points: 2
#     Edge 20, Type (0, 1), BuildingBlock: EZIPEK_clean_linker_0, # of connection points: 2
#     Edge 21, Type (0, 1), BuildingBlock: EZIPEK_clean_linker_0, # of connection points: 2
#     Edge 22, Type (0, 1), BuildingBlock: EZIPEK_clean_linker_0, # of connection points: 2
#     Edge 23, Type (0, 1), BuildingBlock: EZIPEK_clean_linker_0, # of connection points: 2
#     Edge 24, Type (0, 1), BuildingBlock: EZIPEK_clean_linker_0, # of connection points: 2
#     Edge 25, Type (0, 1), BuildingBlock: EZIPEK_clean_linker_0, # of connection points: 2
#     Edge 26, Type (0, 1), BuildingBlock: EZIPEK_clean_linker_0, # of connection points: 2
#     Edge 27, Type (0, 1), BuildingBlock: EZIPEK_clean_linker_0, # of connection points: 2
#     Edge 28, Type (0, 1), BuildingBlock: EZIPEK_clean_linker_0, # of connection points: 2
#     Edge 29, Type (0, 1), BuildingBlock: EZIPEK_clean_linker_0, # of connection points: 2
#     Edge 30, Type (0, 1), BuildingBlock: EZIPEK_clean_linker_0, # of connection points: 2
#     Edge 31, Type (0, 1), BuildingBlock: EZIPEK_clean_linker_0, # of connection points: 2
#     Edge 32, Type (0, 1), BuildingBlock: EZIPEK_clean_linker_0, # of connection points: 2
#     Edge 33, Type (0, 1), BuildingBlock: EZIPEK_clean_linker_0, # of connection points: 2
#     Edge 34, Type (0, 1), BuildingBlock: EZIPEK_clean_linker_0, # of connection points: 2
#     Edge 35, Type (0, 1), BuildingBlock: EZIPEK_clean_linker_0, # of connection points: 2
# Relax obj value: 0.038
# Max RMSD: 0.089
# Mean RMSD: 0.052
data_MOF--net-pyr--node1-MIFKUJ_clean_sbu_0--node2-ESEHIV_clean_linker_0--edge1-EZIPEK_clean_linker_0
_symmetry_space_group_name_H-M    P1
_symmetry_Int_Tables_number       1
_symmetry_cell_setting            triclinic
loop_
_symmetry_equiv_pos_as_xyz
'x, y, z'
_cell_length_a     27.730141
_cell_length_b     24.961638
_cell_length_c     25.939934
_cell_angle_alpha  83.920244
_cell_angle_beta   87.436568
_cell_angle_gamma 96.637014
loop_
_atom_site_label
_atom_site_type_symbol
_atom_site_fract_x
_atom_site_fract_y
_atom_site_fract_z
_atom_type_partial_charge
H0 H 0.10901 0.19768 0.24656 0.0
H1 H 0.21822 0.08885 0.26054 0.0
H2 H 0.23438 0.22327 0.13953 0.0
C3 C 0.14351 0.18586 0.23331 0.0
C4 C 0.17003 0.21625 0.19094 0.0
C5 C 0.1615 0.14129 0.2597 0.0
C6 C 0.20516 0.12459 0.2412 0.0
C7 C 0.23124 0.1532 0.19692 0.0
C8 C 0.21436 0.20046 0.17324 0.0
H9 H 0.29703 0.90825 0.72638 0.0
H10 H 0.40101 0.79413 0.71786 0.0
H11 H 0.27518 0.78038 0.62723 0.0
C12 C 0.30908 0.87355 0.70995 0.0
C13 C 0.28067 0.847 0.67442 0.0
C14 C 0.35154 0.85353 0.7268 0.0
C15 C 0.36789 0.80935 0.70521 0.0
C16 C 0.34118 0.78407 0.66808 0.0
C17 C 0.29685 0.80171 0.65419 0.0
H18 H 0.68284 0.26849 0.87064 0.0
H19 H 0.69334 0.39741 0.74571 0.0
H20 H 0.56128 0.28706 0.77528 0.0
C21 C 0.66654 0.2896 0.83843 0.0
C22 C 0.61911 0.27092 0.826 0.0
C23 C 0.69281 0.33624 0.81137 0.0
C24 C 0.67274 0.36229 0.76793 0.0
C25 C 0.62541 0.34442 0.75433 0.0
C26 C 0.59824 0.29986 0.78465 0.0
H27 H 0.80157 0.70127 0.33408 0.0
H28 H 0.92081 0.69936 0.22282 0.0
H29 H 0.79413 0.58126 0.2265 0.0
C30 C 0.81731 0.6843 0.30133 0.0
C31 C 0.79234 0.63908 0.28268 0.0
C32 C 0.86306 0.70682 0.27912 0.0
C33 C 0.88459 0.68315 0.2387 0.0
C34 C 0.85962 0.63807 0.21933 0.0
C35 C 0.81307 0.61677 0.24069 0.0
H36 H 0.78137 0.89613 0.73653 0.0
H37 H 0.87086 0.76583 0.74102 0.0
H38 H 0.77031 0.77588 0.8693 0.0
C39 C 0.79215 0.85897 0.7556 0.0
C40 C 0.7689 0.83641 0.80358 0.0
C41 C 0.8296 0.83417 0.73273 0.0
C42 C 0.84245 0.78585 0.75822 0.0
C43 C 0.8229 0.76632 0.80829 0.0
C44 C 0.78568 0.79116 0.83064 0.0
H45 H 0.58513 0.17074 0.29652 0.0
H46 H 0.71414 0.0995 0.2573 0.0
H47 H 0.70181 0.1737 0.39925 0.0
C48 C 0.62031 0.1589 0.30633 0.0
C49 C 0.64176 0.17762 0.34973 0.0
C50 C 0.64603 0.13071 0.27233 0.0
C51 C 0.69304 0.11916 0.28426 0.0
C52 C 0.71254 0.1318 0.33149 0.0
C53 C 0.68616 0.16072 0.3644 0.0
H54 H 0.32533 0.69642 0.11431 0.0
H55 H 0.30128 0.58351 0.25327 0.0
H56 H 0.4357 0.69067 0.22458 0.0
C57 C 0.33769 0.67868 0.15061 0.0
C58 C 0.38226 0.70013 0.16773 0.0
C59 C 0.30776 0.63677 0.18111 0.0
C60 C 0.3244 0.61514 0.22893 0.0
C61 C 0.37158 0.63246 0.24433 0.0
C62 C 0.4001 0.67537 0.21301 0.0
H63 H 0.0738 0.28389 0.77555 0.0
H64 H 0.19774 0.27476 0.67263 0.0
H65 H 0.20027 0.40272 0.77115 0.0
C66 C 0.11062 0.29917 0.76103 0.0
C67 C 0.13476 0.34573 0.77912 0.0
C68 C 0.13368 0.27317 0.72317 0.0
C69 C 0.18062 0.29368 0.70326 0.0
C70 C 0.20416 0.34084 0.7197 0.0
C71 C 0.1819 0.36598 0.75863 0.0
Zn72 Zn 0.05023 0.00764 0.55534 0.0
Zn73 Zn 0.95042 0.97488 0.43582 0.0
C74 C 0.07432 0.10648 0.59832 0.0
O75 O 0.10034 0.1182 0.55425 0.0
C76 C 0.91856 0.89074 0.38337 0.0
O77 O 0.8795 0.89932 0.41029 0.0
O78 O 0.10174 0.96105 0.57661 0.0
O79 O 0.98293 0.96424 0.54995 0.0
O80 O 0.92318 0.93437 0.50263 0.0
C81 C 0.10064 0.93093 0.61929 0.0
O82 O 0.06191 0.926 0.6512 0.0
O83 O 0.04785 0.06114 0.60788 0.0
C84 C 0.89975 0.06414 0.38353 0.0
O85 O 0.94159 0.08966 0.36361 0.0
O86 O 0.89833 0.02003 0.41298 0.0
O87 O 0.01277 0.01299 0.45286 0.0
O88 O 0.07748 0.04732 0.48674 0.0
O89 O 0.95835 0.92038 0.38671 0.0
C90 C 0.94127 0.9374 0.5465 0.0
C91 C 0.05378 0.0413 0.4469 0.0
Zn92 Zn 0.53433 0.95598 0.96568 0.0
Zn93 Zn 0.46593 0.02258 0.04006 0.0
C94 C 0.47393 0.90955 0.88909 0.0
O95 O 0.50218 0.87113 0.8955 0.0
C96 C 0.53527 0.0798 0.09531 0.0
O97 O 0.52266 0.11844 0.06209 0.0
O98 O 0.59012 0.91934 0.93803 0.0
O99 O 0.56139 0.03515 0.96164 0.0
O100 O 0.49031 0.06587 0.97035 0.0
C101 C 0.60634 0.93008 0.89101 0.0
O102 O 0.58674 0.96547 0.85995 0.0
O103 O 0.47944 0.94961 0.91568 0.0
C104 C 0.38469 0.0471 0.10684 0.0
O105 O 0.38469 -0.00281 0.12854 0.0
O106 O 0.41444 0.06503 0.06853 0.0
O107 O 0.44029 0.94171 0.04538 0.0
O108 O 0.51218 0.91287 0.03537 0.0
O109 O 0.51705 0.03131 0.09208 0.0
C110 C 0.53429 0.07229 0.95233 0.0
C111 C 0.46797 0.90448 0.05261 0.0
Zn112 Zn 0.54392 0.46191 0.45229 0.0
Zn113 Zn 0.45161 0.51631 0.54888 0.0
C114 C 0.61249 0.52857 0.38141 0.0
O115 O 0.57814 0.51963 0.34904 0.0
C116 C 0.37702 0.46213 0.61734 0.0
O117 O 0.39925 0.49479 0.64763 0.0
O118 O 0.54759 0.39201 0.42085 0.0
O119 O 0.5508 0.44444 0.52964 0.0
O120 O 0.50468 0.48054 0.58489 0.0
C121 C 0.58007 0.36325 0.43655 0.0
O122 O 0.6092 0.37993 0.47164 0.0
O123 O 0.60535 0.50961 0.4288 0.0
C124 C 0.40658 0.60813 0.56701 0.0
O125 O 0.38124 0.59136 0.52896 0.0
O126 O 0.44131 0.58289 0.58273 0.0
O127 O 0.44606 0.53805 0.47193 0.0
O128 O 0.49138 0.50031 0.41693 0.0
O129 O 0.39375 0.46255 0.57097 0.0
C130 C 0.53835 0.45186 0.5758 0.0
C131 C 0.45876 0.53035 0.42599 0.0
Zn132 Zn 0.93318 0.49271 0.951 0.0
Zn133 Zn 0.05672 0.49083 0.04319 0.0
C134 C 0.8735 0.42241 0.89506 0.0
O135 O 0.9105 0.43794 0.86135 0.0
C136 C 0.1215 0.55461 0.10462 0.0
O137 O 0.08414 0.54313 0.13849 0.0
O138 O 0.91705 0.55381 0.90102 0.0
O139 O 0.93028 0.52152 0.02212 0.0
O140 O -0.00255 0.5226 0.0668 0.0
C141 C 0.92787 0.60262 0.90939 0.0
O142 O 0.95842 0.61367 0.94487 0.0
O143 O 0.87538 0.43735 0.94055 0.0
C144 C 0.10013 0.40293 0.08301 0.0
O145 O 0.13427 0.43031 0.05065 0.0
O146 O 0.05927 0.42073 0.08779 0.0
O147 O 0.06161 0.46864 0.97072 0.0
O148 O -0.00493 0.46657 0.9251 0.0
O149 O 0.11815 0.53887 0.05958 0.0
C150 C 0.9541 0.53302 0.06129 0.0
C151 C 0.03922 0.459 0.93034 0.0
C152 C 0.12547 0.14453 0.34922 0.0
C153 C 0.13404 0.11368 0.3075 0.0
C154 C 0.08765 0.03353 0.35673 0.0
C155 C 0.07529 0.0662 0.39576 0.0
N156 N 0.07185 0.15528 0.42248 0.0
N157 N 0.11486 0.03157 0.26699 0.0
C158 C 0.09083 0.12257 0.38978 0.0
C159 C 0.1127 0.05887 0.30983 0.0
N160 N 0.15199 0.19385 0.3513 0.0
N161 N 0.0776 0.97832 0.36521 0.0
H162 H 0.13198 0.04897 0.23158 0.0
H163 H 0.09585 -0.00665 0.26521 0.0
H164 H 0.0593 0.9581 0.39897 0.0
H165 H 0.09087 0.95239 0.34054 0.0
H166 H 0.14989 0.21586 0.38312 0.0
H167 H 0.18006 0.20984 0.32395 0.0
H168 H 0.07852 0.19749 0.41673 0.0
H169 H 0.04533 0.14046 0.45199 0.0
C170 C 0.36883 0.84514 0.82081 0.0
C171 C 0.37672 0.87509 0.77087 0.0
C172 C 0.44176 0.93645 0.80229 0.0
C173 C 0.43568 0.90443 0.85132 0.0
N174 N 0.38759 0.83738 0.91173 0.0
N175 N 0.4146 0.95276 0.7145 0.0
C176 C 0.39724 0.86154 0.86191 0.0
C177 C 0.41092 0.92245 0.76198 0.0
N178 N 0.3351 0.80003 0.82829 0.0
N179 N 0.47847 0.9785 0.79391 0.0
H180 H 0.39343 0.94247 0.68397 0.0
H181 H 0.43696 0.98919 0.70523 0.0
H182 H 0.5018 0.98906 0.82252 0.0
H183 H 0.48701 0.00265 0.75883 0.0
H184 H 0.33154 0.77226 0.86147 0.0
H185 H 0.31138 0.78883 0.80011 0.0
H186 H 0.35809 0.80837 0.92354 0.0
H187 H 0.40711 0.84986 0.94271 0.0
C188 C 0.59673 0.34565 0.66301 0.0
C189 C 0.60419 0.37245 0.7081 0.0
C190 C 0.57662 0.45411 0.66284 0.0
C191 C 0.56254 0.42483 0.62062 0.0
N192 N 0.54984 0.33746 0.5873 0.0
N193 N 0.59227 0.44919 0.75429 0.0
C194 C 0.57024 0.36916 0.62237 0.0
C195 C 0.59155 0.42586 0.70898 0.0
N196 N 0.6158 0.2982 0.65835 0.0
N197 N 0.57803 0.50931 0.65822 0.0
H198 H 0.60189 0.42935 0.78905 0.0
H199 H 0.57865 0.48578 0.75845 0.0
H200 H 0.57033 0.53206 0.62417 0.0
H201 H 0.59225 0.533 0.68599 0.0
H202 H 0.61592 0.27996 0.62402 0.0
H203 H 0.63577 0.27999 0.68699 0.0
H204 H 0.55082 0.29566 0.58989 0.0
H205 H 0.52714 0.35133 0.55923 0.0
C206 C 0.89326 0.63776 0.12799 0.0
C207 C 0.88379 0.61096 0.17893 0.0
C208 C 0.91792 0.53128 0.15207 0.0
C209 C 0.93081 0.55996 0.10235 0.0
N210 N 0.94744 0.64713 0.05146 0.0
N211 N 0.89964 0.53859 0.24295 0.0
C212 C 0.92298 0.6151 0.09238 0.0
C213 C 0.8996 0.55938 0.19209 0.0
N214 N 0.87399 0.68464 0.11351 0.0
N215 N 0.92277 0.4773 0.16103 0.0
H216 H 0.88928 0.55963 0.2734 0.0
H217 H 0.91507 0.50359 0.25505 0.0
H218 H 0.93676 0.45556 0.13279 0.0
H219 H 0.90936 0.45328 0.1951 0.0
H220 H 0.87646 0.70283 0.07524 0.0
H221 H 0.85185 0.70246 0.13865 0.0
H222 H 0.94535 0.68865 0.04418 0.0
H223 H 0.97552 0.63367 0.03024 0.0
C224 C 0.31471 0.12128 0.20178 0.0
C225 C 0.27374 0.13106 0.17276 0.0
C226 C 0.31404 0.10118 0.09644 0.0
C227 C 0.35036 0.0821 0.12784 0.0
N228 N 0.38565 0.07332 0.21133 0.0
N229 N 0.23031 0.11769 0.0955 0.0
C230 C 0.35076 0.0919 0.1809 0.0
C231 C 0.27256 0.11836 0.12064 0.0
N232 N 0.32005 0.14169 0.24833 0.0
N233 N 0.31798 0.10165 0.0437 0.0
H234 H 0.19741 0.12306 0.11386 0.0
H235 H 0.22644 0.10443 0.05898 0.0
H236 H 0.34611 0.08676 0.02389 0.0
H237 H 0.29531 0.12155 0.01919 0.0
H238 H 0.35116 0.14009 0.2692 0.0
H239 H 0.29524 0.16497 0.26376 0.0
H240 H 0.38411 0.07274 0.25159 0.0
H241 H 0.41521 0.05624 0.19653 0.0
C242 C 0.22112 0.87359 0.60741 0.0
C243 C 0.2331 0.8654 0.66019 0.0
C244 C 0.16021 0.90485 0.68568 0.0
C245 C 0.14469 0.90556 0.63421 0.0
N246 N 0.15516 0.87405 0.54975 0.0
N247 N 0.20344 0.85647 0.75036 0.0
C248 C 0.17346 0.88472 0.59609 0.0
C249 C 0.19934 0.8757 0.69968 0.0
N250 N 0.25544 0.87374 0.56794 0.0
N251 N 0.14026 0.93451 0.72056 0.0
H252 H 0.22926 0.83113 0.76199 0.0
H253 H 0.17737 0.86031 0.77957 0.0
H254 H 0.11474 0.96091 0.71114 0.0
H255 H 0.15394 0.93813 0.75701 0.0
H256 H 0.24867 0.88358 0.52907 0.0
H257 H 0.29193 0.87057 0.57416 0.0
H258 H 0.17382 0.85472 0.52275 0.0
H259 H 0.11932 0.87833 0.54118 0.0
C260 C 0.77792 0.32554 0.83996 0.0
C261 C 0.74004 0.3589 0.83129 0.0
C262 C 0.79204 0.43486 0.86029 0.0
C263 C 0.82669 0.39967 0.87572 0.0
N264 N 0.84914 0.30913 0.8877 0.0
N265 N 0.70743 0.44199 0.84711 0.0
C266 C 0.81851 0.34416 0.86793 0.0
C267 C 0.74605 0.41272 0.84527 0.0
N268 N 0.77628 0.27717 0.81952 0.0
N269 N 0.80348 0.48973 0.8581 0.0
H270 H 0.67216 0.42621 0.84031 0.0
H271 H 0.70943 0.47962 0.86142 0.0
H272 H 0.83733 0.50757 0.86737 0.0
H273 H 0.78132 0.51723 0.8418 0.0
H274 H 0.80482 0.25343 0.82091 0.0
H275 H 0.74861 0.26357 0.7964 0.0
H276 H 0.84208 0.26718 0.88799 0.0
H277 H 0.87931 0.32175 0.90798 0.0
C278 C 0.74664 0.55963 0.33858 0.0
C279 C 0.74679 0.61203 0.31099 0.0
C280 C 0.6616 0.61336 0.33978 0.0
C281 C 0.65986 0.55874 0.3619 0.0
N282 N 0.70131 0.48195 0.3907 0.0
N283 N 0.70425 0.68765 0.28141 0.0
C284 C 0.70259 0.53233 0.36366 0.0
C285 C 0.70435 0.63891 0.31098 0.0
N286 N 0.78888 0.53624 0.34057 0.0
N287 N 0.62303 0.64147 0.34849 0.0
H288 H 0.73457 0.70732 0.25898 0.0
H289 H 0.67314 0.70669 0.27564 0.0
H290 H 0.59149 0.62411 0.37033 0.0
H291 H 0.62398 0.68313 0.33869 0.0
H292 H 0.79124 0.49576 0.35308 0.0
H293 H 0.82277 0.55789 0.32958 0.0
H294 H 0.73123 0.46105 0.3965 0.0
H295 H 0.6701 0.46057 0.40985 0.0
C296 C 0.13971 0.3075 0.19084 0.0
C297 C 0.14926 0.26296 0.16378 0.0
C298 C 0.12214 0.30858 0.08418 0.0
C299 C 0.11002 0.3516 0.11199 0.0
N300 N 0.093 0.38304 0.19518 0.0
N301 N 0.13337 0.21371 0.08998 0.0
C302 C 0.11386 0.34807 0.16652 0.0
C303 C 0.13586 0.26127 0.11185 0.0
N304 N 0.1573 0.31256 0.23868 0.0
N305 N 0.12042 0.31263 0.03139 0.0
H306 H 0.1387 0.17716 0.11093 0.0
H307 H 0.11998 0.20919 0.05359 0.0
H308 H 0.10757 0.34508 0.00982 0.0
H309 H 0.13458 0.28527 0.00891 0.0
H310 H 0.15518 0.34693 0.25784 0.0
H311 H 0.17851 0.28506 0.25673 0.0
H312 H 0.09097 0.37851 0.23565 0.0
H313 H 0.07363 0.41334 0.17894 0.0
C314 C 0.56835 0.17734 0.83445 0.0
C315 C 0.5922 0.22158 0.85786 0.0
C316 C 0.58399 0.16418 0.94118 0.0
C317 C 0.55406 0.12346 0.91965 0.0
N318 N 0.50863 0.09749 0.84718 0.0
N319 N 0.60559 0.26076 0.93834 0.0
C320 C 0.54286 0.13227 0.86681 0.0
C321 C 0.59459 0.21621 0.91282 0.0
N322 N 0.5728 0.17582 0.78201 0.0
N323 N 0.60391 0.15318 0.98767 0.0
H324 H 0.60981 0.30018 0.9194 0.0
H325 H 0.60461 0.25857 0.97876 0.0
H326 H 0.60018 0.11431 0.00765 0.0
H327 H 0.62874 0.18119 0.00281 0.0
H328 H 0.55919 0.14216 0.76418 0.0
H329 H 0.59494 0.20488 0.75709 0.0
H330 H 0.49625 0.10504 0.81005 0.0
H331 H 0.48958 0.06395 0.86968 0.0
C332 C 0.89352 0.80618 0.27395 0.0
C333 C 0.88897 0.75336 0.3014 0.0
C334 C 0.9129 0.79096 0.38096 0.0
C335 C 0.91641 0.84368 0.35379 0.0
N336 N 0.92296 0.90177 0.27295 0.0
N337 N 0.90707 0.69407 0.37563 0.0
C338 C 0.9114 0.85131 0.29957 0.0
C339 C 0.90303 0.74536 0.35326 0.0
N340 N 0.87773 0.81356 0.22481 0.0
N341 N 0.9174 0.78468 0.43349 0.0
H342 H 0.90068 0.65993 0.35575 0.0
H343 H 0.921 0.68576 0.41183 0.0
H344 H 0.92736 0.81718 0.45458 0.0
H345 H 0.90897 0.74774 0.45657 0.0
H346 H 0.87479 0.85154 0.20519 0.0
H347 H 0.86439 0.78158 0.20463 0.0
H348 H 0.92455 0.90908 0.23261 0.0
H349 H 0.93523 0.93578 0.29104 0.0
C350 C 0.40224 0.74779 0.61072 0.0
C351 C 0.35935 0.73832 0.64408 0.0
C352 C 0.34679 0.64374 0.62547 0.0
C353 C 0.3913 0.65239 0.59483 0.0
N354 N 0.46579 0.70923 0.56514 0.0
N355 N 0.29662 0.67521 0.69213 0.0
C356 C 0.42059 0.70329 0.5899 0.0
C357 C 0.33317 0.68567 0.65395 0.0
N358 N 0.42398 0.79965 0.59669 0.0
N359 N 0.3174 0.59555 0.62728 0.0
H360 H 0.2864 0.70461 0.71476 0.0
H361 H 0.27947 0.63642 0.70482 0.0
H362 H 0.32723 0.56239 0.60977 0.0
H363 H 0.28186 0.58946 0.64342 0.0
H364 H 0.45225 0.80963 0.56827 0.0
H365 H 0.41108 0.83361 0.61 0.0
H366 H 0.49107 0.74338 0.56583 0.0
H367 H 0.47954 0.6784 0.547 0.0
C368 C 0.90958 0.86396 0.68062 0.0
C369 C 0.85784 0.86033 0.68417 0.0
C370 C 0.86193 0.91501 0.59983 0.0
C371 C 0.91245 0.91049 0.59343 0.0
N372 N 0.97886 0.8623 0.62181 0.0
N373 N 0.78501 0.86917 0.63725 0.0
C374 C 0.93472 0.87922 0.63188 0.0
C375 C 0.83386 0.8819 0.64082 0.0
N376 N 0.93535 0.8568 0.7238 0.0
N377 N 0.84087 0.9521 0.56855 0.0
H378 H 0.76374 0.84126 0.66421 0.0
H379 H 0.76712 0.88129 0.60426 0.0
H380 H 0.86056 0.97993 0.54029 0.0
H381 H 0.8049 0.95924 0.57506 0.0
H382 H 0.97329 0.86197 0.72232 0.0
H383 H 0.91906 0.8539 0.76099 0.0
H384 H 0.99394 0.83529 0.64816 0.0
H385 H -0.00246 0.87049 0.5855 0.0
C386 C 0.60245 0.15907 0.19311 0.0
C387 C 0.6243 0.11816 0.22249 0.0
C388 C 0.59897 0.05644 0.1586 0.0
C389 C 0.56745 0.09334 0.13785 0.0
N390 N 0.52979 0.17471 0.15024 0.0
N391 N 0.63437 0.02257 0.23699 0.0
C392 C 0.56662 0.14355 0.15888 0.0
C393 C 0.62045 0.06521 0.20624 0.0
N394 N 0.61555 0.21266 0.19784 0.0
N395 N 0.6098 0.01418 0.13259 0.0
H396 H 0.64653 0.02595 0.27398 0.0
H397 H 0.6284 0.9827 0.22795 0.0
H398 H 0.59812 0.00875 0.09565 0.0
H399 H 0.63547 0.98894 0.14495 0.0
H400 H 0.60196 0.24356 0.17463 0.0
H401 H 0.64392 0.2258 0.22034 0.0
H402 H 0.52713 0.20977 0.16826 0.0
H403 H 0.49851 0.16178 0.13199 0.0
C404 C 0.41341 0.63839 0.3298 0.0
C405 C 0.39149 0.60605 0.29298 0.0
C406 C 0.40538 0.5244 0.35006 0.0
C407 C 0.43426 0.55671 0.38149 0.0
N408 N 0.47293 0.64526 0.39522 0.0
N409 N 0.37863 0.51682 0.26374 0.0
C410 C 0.44034 0.61401 0.36965 0.0
C411 C 0.39036 0.54853 0.30212 0.0
N412 N 0.40678 0.69189 0.32842 0.0
N413 N 0.39168 0.4707 0.36612 0.0
H414 H 0.37385 0.53314 0.22603 0.0
H415 H 0.38041 0.47512 0.26743 0.0
H416 H 0.40177 0.45174 0.40113 0.0
H417 H 0.36631 0.44675 0.34725 0.0
H418 H 0.41893 0.71606 0.35674 0.0
H419 H 0.38431 0.71035 0.30261 0.0
H420 H 0.48276 0.68657 0.38397 0.0
H421 H 0.49342 0.62899 0.42443 0.0
C422 C 0.10261 0.43024 0.80506 0.0
C423 C 0.10983 0.37494 0.81774 0.0
C424 C 0.06469 0.37374 0.90127 0.0
C425 C 0.06328 0.43048 0.89129 0.0
N426 N 0.08713 0.51474 0.83728 0.0
N427 N 0.10625 0.2974 0.8827 0.0
C428 C 0.08422 0.45941 0.84425 0.0
C429 C 0.09315 0.3475 0.8672 0.0
N430 N 0.11092 0.45416 0.75506 0.0
N431 N 0.03784 0.34461 0.94255 0.0
H432 H 0.12896 0.2777 0.85993 0.0
H433 H 0.09863 0.27782 0.92016 0.0
H434 H 0.01695 0.36243 0.96887 0.0
H435 H 0.03332 0.30233 0.94823 0.0
H436 H 0.10213 0.49276 0.74287 0.0
H437 H 0.12178 0.43345 0.72451 0.0
H438 H 0.10692 0.53841 0.80618 0.0
H439 H 0.07309 0.53722 0.86487 0.0
C440 C 0.73439 0.91464 0.83998 0.0
C441 C 0.72753 0.86076 0.82646 0.0
C442 C 0.64412 0.84949 0.86474 0.0
C443 C 0.64885 0.90544 0.87176 0.0
N444 N 0.69721 -0.00678 0.86135 0.0
N445 N 0.67253 0.78075 0.81598 0.0
C446 C 0.69354 0.9387 0.85759 0.0
C447 C 0.68143 0.82918 0.83608 0.0
N448 N 0.78022 0.94188 0.8386 0.0
N449 N 0.60453 0.81538 0.88599 0.0
H450 H 0.69835 0.7652 0.79317 0.0
H451 H 0.63809 0.7588 0.81733 0.0
H452 H 0.57705 0.82816 0.90852 0.0
H453 H 0.60167 0.77337 0.88612 0.0
H454 H 0.78794 0.97915 0.85295 0.0
H455 H 0.81131 0.92494 0.82788 0.0
H456 H 0.72678 0.02036 0.84533 0.0
H457 H 0.66952 0.01195 0.87784 0.0
C458 C 0.7695 0.06042 0.34484 0.0
C459 C 0.76097 0.11535 0.34566 0.0
C460 C 0.84251 0.13568 0.37749 0.0
C461 C 0.85315 0.0832 0.36849 0.0
N462 N 0.82966 -6e-05 0.33129 0.0
N463 N 0.79492 0.20817 0.35236 0.0
C464 C 0.81752 0.04684 0.34837 0.0
C465 C 0.79899 0.15394 0.3592 0.0
N466 N 0.73157 0.02057 0.34356 0.0
N467 N 0.87285 0.16744 0.40501 0.0
H468 H 0.76547 0.22382 0.33545 0.0
H469 H 0.8233 0.23781 0.35797 0.0
H470 H 0.90476 0.15519 0.41963 0.0
H471 H 0.86376 0.2035 0.41757 0.0
H472 H 0.73586 0.97943 0.34684 0.0
H473 H 0.69538 0.0281 0.34599 0.0
H474 H 0.80577 0.97467 0.312 0.0
H475 H 0.86502 0.98951 0.33112 0.0
C476 C 0.24699 0.55916 0.15935 0.0
C477 C 0.25933 0.61567 0.16201 0.0
C478 C 0.18461 0.63235 0.11792 0.0
C479 C 0.16953 0.57584 0.12253 0.0
N480 N 0.18244 0.48572 0.1581 0.0
N481 N 0.23249 0.70501 0.1541 0.0
C482 C 0.19937 0.53938 0.14684 0.0
C483 C 0.2261 0.65214 0.14397 0.0
N484 N 0.28156 0.52459 0.16477 0.0
N485 N 0.15958 0.66715 0.08852 0.0
H486 H 0.25993 0.72017 0.17673 0.0
H487 H 0.20735 0.73205 0.14514 0.0
H488 H 0.12875 0.6539 0.06954 0.0
H489 H 0.17211 0.7082 0.07925 0.0
H490 H 0.27506 0.48359 0.15964 0.0
H491 H 0.31818 0.53837 0.16699 0.0
H492 H 0.20063 0.45861 0.18106 0.0
H493 H 0.14829 0.46961 0.14824 0.0
C494 C 0.24644 0.39595 0.64113 0.0
C495 C 0.24942 0.36755 0.69115 0.0
C496 C 0.33761 0.39217 0.68672 0.0
C497 C 0.33417 0.42423 0.63872 0.0
N498 N 0.28796 0.44707 0.56414 0.0
N499 N 0.29594 0.33999 0.76342 0.0
C500 C 0.2895 0.42285 0.6138 0.0
C501 C 0.29456 0.36572 0.71435 0.0
N502 N 0.20185 0.40083 0.62161 0.0
N503 N 0.38247 0.38455 0.70414 0.0
H504 H 0.2655 0.31771 0.78369 0.0
H505 H 0.32641 0.34306 0.78541 0.0
H506 H 0.41483 0.40071 0.68321 0.0
H507 H 0.38809 0.35803 0.73643 0.0
H508 H 0.19635 0.42623 0.5885 0.0
H509 H 0.16917 0.38264 0.64053 0.0
H510 H 0.25871 0.43973 0.54105 0.0
H511 H 0.31678 0.47219 0.5441 0.0
C512 C 0.82317 0.67255 0.85555 0.0
C513 C 0.84707 0.72523 0.83958 0.0
C514 C 0.92417 0.69695 0.8668 0.0
C515 C 0.9 0.64514 0.88598 0.0
N516 N 0.8231 0.59277 0.91678 0.0
N517 N 0.91478 0.79196 0.85063 0.0
C518 C 0.84839 0.63526 0.88564 0.0
C519 C 0.89599 0.73888 0.8515 0.0
N520 N 0.77705 0.65772 0.84162 0.0
N521 N 0.97374 0.70602 0.86146 0.0
H522 H 0.89334 0.8235 0.8444 0.0
H523 H 0.9494 0.80386 0.86262 0.0
H524 H -0.00406 0.67566 0.87001 0.0
H525 H 0.99232 0.74232 0.84334 0.0
H526 H 0.76006 0.61792 0.84858 0.0
H527 H 0.75745 0.68416 0.81962 0.0
H528 H 0.78523 0.58703 0.92093 0.0
H529 H 0.83976 0.56697 0.94278 0.0
C530 C 0.43642 0.75131 0.09361 0.0
C531 C 0.40782 0.75181 0.14014 0.0
C532 C 0.42623 0.85097 0.13359 0.0
C533 C 0.44911 0.85142 0.08346 0.0
N534 N 0.4718 0.80139 0.01315 0.0
N535 N 0.36896 0.80276 0.2006 0.0
C536 C 0.45346 0.80132 0.06289 0.0
C537 C 0.40086 0.80184 0.15906 0.0
N538 N 0.4478 0.703 0.07912 0.0
N539 N 0.43112 0.89679 0.15831 0.0
H540 H 0.35011 0.76774 0.22096 0.0
H541 H 0.35819 0.83853 0.2121 0.0
H542 H 0.45234 0.93244 0.14241 0.0
H543 H 0.41893 0.8976 0.19677 0.0
H544 H 0.47281 0.70007 0.0487 0.0
H545 H 0.43531 0.66576 0.10043 0.0
H546 H 0.47067 0.76677 0.99389 0.0
H547 H 0.48459 0.83681 0.98943 0.0
C548 C 0.12418 0.17477 0.71166 0.0
C549 C 0.1084 0.22652 0.70042 0.0
C550 C 0.0585 0.19248 0.63259 0.0
C551 C 0.08045 0.14394 0.63831 0.0
N552 N 0.13616 0.08869 0.68069 0.0
N553 N 0.06292 0.28677 0.64842 0.0
C554 C 0.11331 0.13456 0.6777 0.0
C555 C 0.07547 0.2358 0.66098 0.0
N556 N 0.1498 0.1645 0.75468 0.0
N557 N 0.02154 0.197 0.59985 0.0
H558 H 0.07405 0.31954 0.66864 0.0
H559 H 0.04401 0.29756 0.61589 0.0
H560 H 0.00871 0.16585 0.57829 0.0
H561 H 0.0008 0.22928 0.59755 0.0
H562 H 0.15893 0.12626 0.76764 0.0
H563 H 0.15814 0.19347 0.78018 0.0
H564 H 0.16489 0.08259 0.70427 0.0
H565 H 0.12843 0.05783 0.65707 0.0
C566 C 0.58237 0.21739 0.407 0.0
C567 C 0.62348 0.22476 0.37123 0.0
C568 C 0.62685 0.32359 0.36929 0.0
C569 C 0.5904 0.31593 0.41017 0.0
N570 N 0.5312 0.25761 0.4673 0.0
N571 N 0.68468 0.28436 0.31666 0.0
C572 C 0.56715 0.26335 0.42859 0.0
C573 C 0.64569 0.27778 0.35195 0.0
N574 N 0.55769 0.16668 0.41952 0.0
N575 N 0.64159 0.37474 0.34535 0.0
H576 H 0.69618 0.25277 0.29792 0.0
H577 H 0.7071 0.32083 0.30729 0.0
H578 H 0.62596 0.40861 0.35505 0.0
H579 H 0.66537 0.38332 0.31257 0.0
H580 H 0.52457 0.15892 0.44101 0.0
H581 H 0.56908 0.13217 0.4057 0.0
H582 H 0.51565 0.22044 0.48631 0.0
H583 H 0.51783 0.29076 0.48184 0.0
loop_
_geom_bond_atom_site_label_1
_geom_bond_atom_site_label_2
_geom_bond_distance
_geom_bond_site_symmetry_2
_ccdc_geom_bond_type
H0 C3 0.931 . S
H1 C6 0.928 . S
H2 C8 0.930 . S
C3 H0 0.931 . S
C3 C4 1.413 . S
C3 C5 1.360 . S
C4 C3 1.413 . S
C4 C8 1.429 . S
C5 C3 1.360 . S
C5 C6 1.372 . S
C6 H1 0.928 . S
C6 C5 1.372 . S
C6 C7 1.404 . S
C7 C6 1.404 . S
C7 C8 1.391 . S
C8 H2 0.930 . S
C8 C4 1.429 . S
C8 C7 1.391 . S
H9 C12 0.931 . S
H10 C15 0.928 . S
H11 C17 0.930 . S
C12 H9 0.931 . S
C12 C13 1.413 . S
C12 C14 1.360 . S
C13 C12 1.413 . S
C13 C17 1.429 . S
C14 C12 1.360 . S
C14 C15 1.372 . S
C15 H10 0.928 . S
C15 C14 1.372 . S
C15 C16 1.404 . S
C16 C15 1.404 . S
C16 C17 1.391 . S
C17 H11 0.930 . S
C17 C13 1.429 . S
C17 C16 1.391 . S
H18 C21 0.931 . S
H19 C24 0.928 . S
H20 C26 0.930 . S
C21 H18 0.931 . S
C21 C22 1.413 . S
C21 C23 1.360 . S
C22 C21 1.413 . S
C22 C26 1.429 . S
C23 C21 1.360 . S
C23 C24 1.372 . S
C24 H19 0.928 . S
C24 C23 1.372 . S
C24 C25 1.404 . S
C25 C24 1.404 . S
C25 C26 1.391 . S
C26 H20 0.930 . S
C26 C22 1.429 . S
C26 C25 1.391 . S
H27 C30 0.931 . S
H28 C33 0.928 . S
H29 C35 0.930 . S
C30 H27 0.931 . S
C30 C31 1.413 . S
C30 C32 1.360 . S
C31 C30 1.413 . S
C31 C35 1.429 . S
C32 C30 1.360 . S
C32 C33 1.372 . S
C33 H28 0.928 . S
C33 C32 1.372 . S
C33 C34 1.404 . S
C34 C33 1.404 . S
C34 C35 1.391 . S
C35 H29 0.930 . S
C35 C31 1.429 . S
C35 C34 1.391 . S
H36 C39 0.931 . S
H37 C42 0.928 . S
H38 C44 0.930 . S
C39 H36 0.931 . S
C39 C40 1.413 . S
C39 C41 1.360 . S
C40 C39 1.413 . S
C40 C44 1.429 . S
C41 C39 1.360 . S
C41 C42 1.372 . S
C42 H37 0.928 . S
C42 C41 1.372 . S
C42 C43 1.404 . S
C43 C42 1.404 . S
C43 C44 1.391 . S
C44 H38 0.930 . S
C44 C40 1.429 . S
C44 C43 1.391 . S
H45 C48 0.931 . S
H46 C51 0.928 . S
H47 C53 0.930 . S
C48 H45 0.931 . S
C48 C49 1.413 . S
C48 C50 1.360 . S
C49 C48 1.413 . S
C49 C53 1.429 . S
C50 C48 1.360 . S
C50 C51 1.372 . S
C51 H46 0.928 . S
C51 C50 1.372 . S
C51 C52 1.404 . S
C52 C51 1.404 . S
C52 C53 1.391 . S
C53 H47 0.930 . S
C53 C49 1.429 . S
C53 C52 1.391 . S
H54 C57 0.931 . S
H55 C60 0.928 . S
H56 C62 0.930 . S
C57 H54 0.931 . S
C57 C58 1.413 . S
C57 C59 1.360 . S
C58 C57 1.413 . S
C58 C62 1.429 . S
C59 C57 1.360 . S
C59 C60 1.372 . S
C60 H55 0.928 . S
C60 C59 1.372 . S
C60 C61 1.404 . S
C61 C60 1.404 . S
C61 C62 1.391 . S
C62 H56 0.930 . S
C62 C58 1.429 . S
C62 C61 1.391 . S
H63 C66 0.931 . S
H64 C69 0.928 . S
H65 C71 0.930 . S
C66 H63 0.931 . S
C66 C67 1.413 . S
C66 C68 1.360 . S
C67 C66 1.413 . S
C67 C71 1.429 . S
C68 C66 1.360 . S
C68 C69 1.372 . S
C69 H64 0.928 . S
C69 C68 1.372 . S
C69 C70 1.404 . S
C70 C69 1.404 . S
C70 C71 1.391 . S
C71 H65 0.930 . S
C71 C67 1.429 . S
C71 C70 1.391 . S
Zn72 O78 1.969 1_545 S
Zn72 O79 1.965 1_545 S
Zn72 O83 2.024 . S
Zn72 O88 1.969 . S
Zn73 O80 1.969 . S
Zn73 O86 1.969 1_565 S
Zn73 O87 1.952 1_665 S
Zn73 O89 2.024 . S
C74 O75 1.229 . S
C74 O83 1.058 . S
O75 C74 1.229 . S
C76 O77 1.229 . S
C76 O89 1.058 . S
O77 C76 1.229 . S
O78 Zn72 1.969 1_565 S
O78 C81 1.267 . S
O79 Zn72 1.965 1_565 S
O79 C90 1.260 1_455 S
O80 Zn73 1.969 . S
O80 C90 1.258 . S
C81 O78 1.267 . S
C81 O82 1.228 . S
O82 C81 1.228 . S
O83 Zn72 2.024 . S
O83 C74 1.058 . S
C84 O85 1.228 . S
C84 O86 1.267 . S
O85 C84 1.228 . S
O86 Zn73 1.969 1_545 S
O86 C84 1.267 . S
O87 Zn73 1.952 1_445 S
O87 C91 1.277 . S
O88 Zn72 1.969 . S
O88 C91 1.258 . S
O89 Zn73 2.024 . S
O89 C76 1.058 . S
C90 O79 1.260 1_655 S
C90 O80 1.258 . S
C91 O87 1.277 . S
C91 O88 1.258 . S
Zn92 O98 1.969 . S
Zn92 O99 1.965 1_565 S
Zn92 O103 2.024 . S
Zn92 O108 1.969 1_556 S
Zn93 O100 1.969 . S
Zn93 O106 1.969 . S
Zn93 O107 1.965 1_545 S
Zn93 O109 2.024 . S
C94 O95 1.229 . S
C94 O103 1.058 . S
O95 C94 1.229 . S
C96 O97 1.229 . S
C96 O109 1.058 . S
O97 C96 1.229 . S
O98 Zn92 1.969 . S
O98 C101 1.267 . S
O99 Zn92 1.965 1_545 S
O99 C110 1.260 . S
O100 Zn93 1.969 . S
O100 C110 1.258 1_554 S
C101 O98 1.267 . S
C101 O102 1.228 . S
O102 C101 1.228 . S
O103 Zn92 2.024 . S
O103 C94 1.058 . S
C104 O105 1.228 . S
C104 O106 1.267 . S
O105 C104 1.228 . S
O106 Zn93 1.969 . S
O106 C104 1.267 . S
O107 Zn93 1.965 1_565 S
O107 C111 1.260 . S
O108 Zn92 1.969 1_554 S
O108 C111 1.258 . S
O109 Zn93 2.024 . S
O109 C96 1.058 . S
C110 O99 1.260 . S
C110 O100 1.258 1_556 S
C111 O107 1.260 . S
C111 O108 1.258 . S
Zn112 O118 1.969 . S
Zn112 O119 1.965 . S
Zn112 O123 2.024 . S
Zn112 O128 1.969 . S
Zn113 O120 1.969 . S
Zn113 O126 1.969 . S
Zn113 O127 1.965 . S
Zn113 O129 2.024 . S
C114 O115 1.229 . S
C114 O123 1.058 . S
O115 C114 1.229 . S
C116 O117 1.229 . S
C116 O129 1.058 . S
O117 C116 1.229 . S
O118 Zn112 1.969 . S
O118 C121 1.267 . S
O119 Zn112 1.965 . S
O119 C130 1.260 . S
O120 Zn113 1.969 . S
O120 C130 1.258 . S
C121 O118 1.267 . S
C121 O122 1.228 . S
O122 C121 1.228 . S
O123 Zn112 2.024 . S
O123 C114 1.058 . S
C124 O125 1.228 . S
C124 O126 1.267 . S
O125 C124 1.228 . S
O126 Zn113 1.969 . S
O126 C124 1.267 . S
O127 Zn113 1.965 . S
O127 C131 1.260 . S
O128 Zn112 1.969 . S
O128 C131 1.258 . S
O129 Zn113 2.024 . S
O129 C116 1.058 . S
C130 O119 1.260 . S
C130 O120 1.258 . S
C131 O127 1.260 . S
C131 O128 1.258 . S
Zn132 O138 1.969 . S
Zn132 O139 1.965 1_556 S
Zn132 O143 2.024 . S
Zn132 O148 1.969 1_655 S
Zn133 O140 1.969 . S
Zn133 O146 1.969 . S
Zn133 O147 1.965 1_554 S
Zn133 O149 2.024 . S
C134 O135 1.229 . S
C134 O143 1.058 . S
O135 C134 1.229 . S
C136 O137 1.229 . S
C136 O149 1.058 . S
O137 C136 1.229 . S
O138 Zn132 1.969 . S
O138 C141 1.267 . S
O139 Zn132 1.965 1_554 S
O139 C150 1.260 . S
O140 Zn133 1.969 . S
O140 C150 1.258 1_455 S
C141 O138 1.267 . S
C141 O142 1.228 . S
O142 C141 1.228 . S
O143 Zn132 2.024 . S
O143 C134 1.058 . S
C144 O145 1.228 . S
C144 O146 1.267 . S
O145 C144 1.228 . S
O146 Zn133 1.969 . S
O146 C144 1.267 . S
O147 Zn133 1.965 1_556 S
O147 C151 1.260 . S
O148 Zn132 1.969 1_455 S
O148 C151 1.258 . S
O149 Zn133 2.024 . S
O149 C136 1.058 . S
C150 O139 1.260 . S
C150 O140 1.258 1_655 S
C151 O147 1.260 . S
C151 O148 1.258 . S
C152 C153 1.363 . S
C152 C158 1.379 . S
C152 N160 1.356 . S
C153 C152 1.363 . S
C153 C159 1.363 . S
C154 C155 1.363 . S
C154 C159 1.379 . S
C154 N161 1.356 1_545 S
C155 C154 1.363 . S
C155 C158 1.363 . S
N156 C158 1.356 . S
N156 H168 0.984 . S
N156 H169 0.985 . S
N157 C159 1.356 . S
N157 H162 0.984 . S
N157 H163 0.985 . S
C158 C152 1.379 . S
C158 C155 1.363 . S
C158 N156 1.356 . S
C159 C153 1.363 . S
C159 C154 1.379 . S
C159 N157 1.356 . S
N160 C152 1.356 . S
N160 H166 0.984 . S
N160 H167 0.984 . S
N161 C154 1.356 1_565 S
N161 H164 0.984 . S
N161 H165 0.985 . S
H162 N157 0.984 . S
H163 N157 0.985 . S
H164 N161 0.984 . S
H165 N161 0.985 . S
H166 N160 0.984 . S
H167 N160 0.984 . S
H168 N156 0.984 . S
H169 N156 0.985 . S
C170 C171 1.363 . S
C170 C176 1.379 . S
C170 N178 1.356 . S
C171 C170 1.363 . S
C171 C177 1.363 . S
C172 C173 1.363 . S
C172 C177 1.379 . S
C172 N179 1.355 . S
C173 C172 1.363 . S
C173 C176 1.363 . S
N174 C176 1.356 . S
N174 H186 0.984 . S
N174 H187 0.985 . S
N175 C177 1.356 . S
N175 H180 0.984 . S
N175 H181 0.985 . S
C176 C170 1.379 . S
C176 C173 1.363 . S
C176 N174 1.356 . S
C177 C171 1.363 . S
C177 C172 1.379 . S
C177 N175 1.356 . S
N178 C170 1.356 . S
N178 H184 0.984 . S
N178 H185 0.984 . S
N179 C172 1.355 . S
N179 H182 0.985 1_565 S
N179 H183 0.986 1_565 S
H180 N175 0.984 . S
H181 N175 0.985 . S
H182 N179 0.985 1_545 S
H183 N179 0.986 1_545 S
H184 N178 0.984 . S
H185 N178 0.984 . S
H186 N174 0.984 . S
H187 N174 0.985 . S
C188 C189 1.363 . S
C188 C194 1.379 . S
C188 N196 1.356 . S
C189 C188 1.363 . S
C189 C195 1.363 . S
C190 C191 1.363 . S
C190 C195 1.379 . S
C190 N197 1.356 . S
C191 C190 1.363 . S
C191 C194 1.363 . S
N192 C194 1.356 . S
N192 H204 0.984 . S
N192 H205 0.985 . S
N193 C195 1.356 . S
N193 H198 0.984 . S
N193 H199 0.985 . S
C194 C188 1.379 . S
C194 C191 1.363 . S
C194 N192 1.356 . S
C195 C189 1.363 . S
C195 C190 1.379 . S
C195 N193 1.356 . S
N196 C188 1.356 . S
N196 H202 0.984 . S
N196 H203 0.984 . S
N197 C190 1.356 . S
N197 H200 0.984 . S
N197 H201 0.985 . S
H198 N193 0.984 . S
H199 N193 0.985 . S
H200 N197 0.984 . S
H201 N197 0.985 . S
H202 N196 0.984 . S
H203 N196 0.984 . S
H204 N192 0.984 . S
H205 N192 0.985 . S
C206 C207 1.363 . S
C206 C212 1.379 . S
C206 N214 1.356 . S
C207 C206 1.363 . S
C207 C213 1.363 . S
C208 C209 1.363 . S
C208 C213 1.379 . S
C208 N215 1.356 . S
C209 C208 1.363 . S
C209 C212 1.363 . S
N210 C212 1.356 . S
N210 H222 0.984 . S
N210 H223 0.985 . S
N211 C213 1.356 . S
N211 H216 0.984 . S
N211 H217 0.985 . S
C212 C206 1.379 . S
C212 C209 1.363 . S
C212 N210 1.356 . S
C213 C207 1.363 . S
C213 C208 1.379 . S
C213 N211 1.356 . S
N214 C206 1.356 . S
N214 H220 0.984 . S
N214 H221 0.984 . S
N215 C208 1.356 . S
N215 H218 0.984 . S
N215 H219 0.985 . S
H216 N211 0.984 . S
H217 N211 0.985 . S
H218 N215 0.984 . S
H219 N215 0.985 . S
H220 N214 0.984 . S
H221 N214 0.984 . S
H222 N210 0.984 . S
H223 N210 0.985 . S
C224 C225 1.363 . S
C224 C230 1.379 . S
C224 N232 1.356 . S
C225 C224 1.363 . S
C225 C231 1.363 . S
C226 C227 1.363 . S
C226 C231 1.379 . S
C226 N233 1.356 . S
C227 C226 1.363 . S
C227 C230 1.363 . S
N228 C230 1.356 . S
N228 H240 0.984 . S
N228 H241 0.985 . S
N229 C231 1.356 . S
N229 H234 0.984 . S
N229 H235 0.985 . S
C230 C224 1.379 . S
C230 C227 1.363 . S
C230 N228 1.356 . S
C231 C225 1.363 . S
C231 C226 1.379 . S
C231 N229 1.356 . S
N232 C224 1.356 . S
N232 H238 0.984 . S
N232 H239 0.984 . S
N233 C226 1.356 . S
N233 H236 0.984 . S
N233 H237 0.985 . S
H234 N229 0.984 . S
H235 N229 0.985 . S
H236 N233 0.984 . S
H237 N233 0.985 . S
H238 N232 0.984 . S
H239 N232 0.984 . S
H240 N228 0.984 . S
H241 N228 0.985 . S
C242 C243 1.363 . S
C242 C248 1.379 . S
C242 N250 1.356 . S
C243 C242 1.363 . S
C243 C249 1.363 . S
C244 C245 1.363 . S
C244 C249 1.379 . S
C244 N251 1.356 . S
C245 C244 1.363 . S
C245 C248 1.363 . S
N246 C248 1.356 . S
N246 H258 0.984 . S
N246 H259 0.985 . S
N247 C249 1.356 . S
N247 H252 0.984 . S
N247 H253 0.985 . S
C248 C242 1.379 . S
C248 C245 1.363 . S
C248 N246 1.356 . S
C249 C243 1.363 . S
C249 C244 1.379 . S
C249 N247 1.356 . S
N250 C242 1.356 . S
N250 H256 0.984 . S
N250 H257 0.984 . S
N251 C244 1.356 . S
N251 H254 0.984 . S
N251 H255 0.985 . S
H252 N247 0.984 . S
H253 N247 0.985 . S
H254 N251 0.984 . S
H255 N251 0.985 . S
H256 N250 0.984 . S
H257 N250 0.984 . S
H258 N246 0.984 . S
H259 N246 0.985 . S
C260 C261 1.363 . S
C260 C266 1.379 . S
C260 N268 1.356 . S
C261 C260 1.363 . S
C261 C267 1.363 . S
C262 C263 1.363 . S
C262 C267 1.379 . S
C262 N269 1.356 . S
C263 C262 1.363 . S
C263 C266 1.363 . S
N264 C266 1.356 . S
N264 H276 0.984 . S
N264 H277 0.985 . S
N265 C267 1.356 . S
N265 H270 0.984 . S
N265 H271 0.985 . S
C266 C260 1.379 . S
C266 C263 1.363 . S
C266 N264 1.356 . S
C267 C261 1.363 . S
C267 C262 1.379 . S
C267 N265 1.356 . S
N268 C260 1.356 . S
N268 H274 0.984 . S
N268 H275 0.984 . S
N269 C262 1.356 . S
N269 H272 0.984 . S
N269 H273 0.985 . S
H270 N265 0.984 . S
H271 N265 0.985 . S
H272 N269 0.984 . S
H273 N269 0.985 . S
H274 N268 0.984 . S
H275 N268 0.984 . S
H276 N264 0.984 . S
H277 N264 0.985 . S
C278 C279 1.363 . S
C278 C284 1.379 . S
C278 N286 1.356 . S
C279 C278 1.363 . S
C279 C285 1.363 . S
C280 C281 1.363 . S
C280 C285 1.379 . S
C280 N287 1.356 . S
C281 C280 1.363 . S
C281 C284 1.363 . S
N282 C284 1.356 . S
N282 H294 0.984 . S
N282 H295 0.985 . S
N283 C285 1.356 . S
N283 H288 0.984 . S
N283 H289 0.985 . S
C284 C278 1.379 . S
C284 C281 1.363 . S
C284 N282 1.356 . S
C285 C279 1.363 . S
C285 C280 1.379 . S
C285 N283 1.356 . S
N286 C278 1.356 . S
N286 H292 0.984 . S
N286 H293 0.984 . S
N287 C280 1.356 . S
N287 H290 0.984 . S
N287 H291 0.985 . S
H288 N283 0.984 . S
H289 N283 0.985 . S
H290 N287 0.984 . S
H291 N287 0.985 . S
H292 N286 0.984 . S
H293 N286 0.984 . S
H294 N282 0.984 . S
H295 N282 0.985 . S
C296 C297 1.363 . S
C296 C302 1.379 . S
C296 N304 1.356 . S
C297 C296 1.363 . S
C297 C303 1.363 . S
C298 C299 1.363 . S
C298 C303 1.379 . S
C298 N305 1.356 . S
C299 C298 1.363 . S
C299 C302 1.363 . S
N300 C302 1.356 . S
N300 H312 0.984 . S
N300 H313 0.985 . S
N301 C303 1.356 . S
N301 H306 0.984 . S
N301 H307 0.985 . S
C302 C296 1.379 . S
C302 C299 1.363 . S
C302 N300 1.356 . S
C303 C297 1.363 . S
C303 C298 1.379 . S
C303 N301 1.356 . S
N304 C296 1.356 . S
N304 H310 0.984 . S
N304 H311 0.984 . S
N305 C298 1.356 . S
N305 H308 0.984 . S
N305 H309 0.985 . S
H306 N301 0.984 . S
H307 N301 0.985 . S
H308 N305 0.984 . S
H309 N305 0.985 . S
H310 N304 0.984 . S
H311 N304 0.984 . S
H312 N300 0.984 . S
H313 N300 0.985 . S
C314 C315 1.363 . S
C314 C320 1.379 . S
C314 N322 1.356 . S
C315 C314 1.363 . S
C315 C321 1.363 . S
C316 C317 1.363 . S
C316 C321 1.379 . S
C316 N323 1.356 . S
C317 C316 1.363 . S
C317 C320 1.363 . S
N318 C320 1.356 . S
N318 H330 0.984 . S
N318 H331 0.985 . S
N319 C321 1.356 . S
N319 H324 0.984 . S
N319 H325 0.985 . S
C320 C314 1.379 . S
C320 C317 1.363 . S
C320 N318 1.356 . S
C321 C315 1.363 . S
C321 C316 1.379 . S
C321 N319 1.356 . S
N322 C314 1.356 . S
N322 H328 0.984 . S
N322 H329 0.984 . S
N323 C316 1.356 . S
N323 H326 0.984 1_556 S
N323 H327 0.985 1_556 S
H324 N319 0.984 . S
H325 N319 0.985 . S
H326 N323 0.984 1_554 S
H327 N323 0.985 1_554 S
H328 N322 0.984 . S
H329 N322 0.984 . S
H330 N318 0.984 . S
H331 N318 0.985 . S
C332 C333 1.363 . S
C332 C338 1.379 . S
C332 N340 1.356 . S
C333 C332 1.363 . S
C333 C339 1.363 . S
C334 C335 1.363 . S
C334 C339 1.379 . S
C334 N341 1.356 . S
C335 C334 1.363 . S
C335 C338 1.363 . S
N336 C338 1.356 . S
N336 H348 0.984 . S
N336 H349 0.985 . S
N337 C339 1.356 . S
N337 H342 0.984 . S
N337 H343 0.985 . S
C338 C332 1.379 . S
C338 C335 1.363 . S
C338 N336 1.356 . S
C339 C333 1.363 . S
C339 C334 1.379 . S
C339 N337 1.356 . S
N340 C332 1.356 . S
N340 H346 0.984 . S
N340 H347 0.984 . S
N341 C334 1.356 . S
N341 H344 0.984 . S
N341 H345 0.985 . S
H342 N337 0.984 . S
H343 N337 0.985 . S
H344 N341 0.984 . S
H345 N341 0.985 . S
H346 N340 0.984 . S
H347 N340 0.984 . S
H348 N336 0.984 . S
H349 N336 0.985 . S
C350 C351 1.363 . S
C350 C356 1.379 . S
C350 N358 1.356 . S
C351 C350 1.363 . S
C351 C357 1.363 . S
C352 C353 1.363 . S
C352 C357 1.379 . S
C352 N359 1.356 . S
C353 C352 1.363 . S
C353 C356 1.363 . S
N354 C356 1.356 . S
N354 H366 0.984 . S
N354 H367 0.985 . S
N355 C357 1.356 . S
N355 H360 0.984 . S
N355 H361 0.985 . S
C356 C350 1.379 . S
C356 C353 1.363 . S
C356 N354 1.356 . S
C357 C351 1.363 . S
C357 C352 1.379 . S
C357 N355 1.356 . S
N358 C350 1.356 . S
N358 H364 0.984 . S
N358 H365 0.984 . S
N359 C352 1.356 . S
N359 H362 0.984 . S
N359 H363 0.985 . S
H360 N355 0.984 . S
H361 N355 0.985 . S
H362 N359 0.984 . S
H363 N359 0.985 . S
H364 N358 0.984 . S
H365 N358 0.984 . S
H366 N354 0.984 . S
H367 N354 0.985 . S
C368 C369 1.363 . S
C368 C374 1.379 . S
C368 N376 1.356 . S
C369 C368 1.363 . S
C369 C375 1.363 . S
C370 C371 1.363 . S
C370 C375 1.379 . S
C370 N377 1.356 . S
C371 C370 1.363 . S
C371 C374 1.363 . S
N372 C374 1.356 . S
N372 H384 0.984 1_655 S
N372 H385 0.985 1_655 S
N373 C375 1.356 . S
N373 H378 0.984 . S
N373 H379 0.985 . S
C374 C368 1.379 . S
C374 C371 1.363 . S
C374 N372 1.356 . S
C375 C369 1.363 . S
C375 C370 1.379 . S
C375 N373 1.356 . S
N376 C368 1.356 . S
N376 H382 0.984 . S
N376 H383 0.984 . S
N377 C370 1.356 . S
N377 H380 0.984 . S
N377 H381 0.985 . S
H378 N373 0.984 . S
H379 N373 0.985 . S
H380 N377 0.984 . S
H381 N377 0.985 . S
H382 N376 0.984 . S
H383 N376 0.984 . S
H384 N372 0.984 1_455 S
H385 N372 0.985 1_455 S
C386 C387 1.363 . S
C386 C392 1.379 . S
C386 N394 1.356 . S
C387 C386 1.363 . S
C387 C393 1.363 . S
C388 C389 1.363 . S
C388 C393 1.379 . S
C388 N395 1.356 . S
C389 C388 1.363 . S
C389 C392 1.363 . S
N390 C392 1.356 . S
N390 H402 0.984 . S
N390 H403 0.985 . S
N391 C393 1.356 . S
N391 H396 0.984 . S
N391 H397 0.985 . S
C392 C386 1.379 . S
C392 C389 1.363 . S
C392 N390 1.356 . S
C393 C387 1.363 . S
C393 C388 1.379 . S
C393 N391 1.356 . S
N394 C386 1.356 . S
N394 H400 0.984 . S
N394 H401 0.984 . S
N395 C388 1.356 . S
N395 H398 0.984 . S
N395 H399 0.985 1_545 S
H396 N391 0.984 . S
H397 N391 0.985 . S
H398 N395 0.984 . S
H399 N395 0.985 1_565 S
H400 N394 0.984 . S
H401 N394 0.984 . S
H402 N390 0.984 . S
H403 N390 0.985 . S
C404 C405 1.363 . S
C404 C410 1.379 . S
C404 N412 1.356 . S
C405 C404 1.363 . S
C405 C411 1.363 . S
C406 C407 1.363 . S
C406 C411 1.379 . S
C406 N413 1.356 . S
C407 C406 1.363 . S
C407 C410 1.363 . S
N408 C410 1.356 . S
N408 H420 0.984 . S
N408 H421 0.985 . S
N409 C411 1.356 . S
N409 H414 0.984 . S
N409 H415 0.985 . S
C410 C404 1.379 . S
C410 C407 1.363 . S
C410 N408 1.356 . S
C411 C405 1.363 . S
C411 C406 1.379 . S
C411 N409 1.356 . S
N412 C404 1.356 . S
N412 H418 0.984 . S
N412 H419 0.984 . S
N413 C406 1.356 . S
N413 H416 0.984 . S
N413 H417 0.985 . S
H414 N409 0.984 . S
H415 N409 0.985 . S
H416 N413 0.984 . S
H417 N413 0.985 . S
H418 N412 0.984 . S
H419 N412 0.984 . S
H420 N408 0.984 . S
H421 N408 0.985 . S
C422 C423 1.363 . S
C422 C428 1.379 . S
C422 N430 1.356 . S
C423 C422 1.363 . S
C423 C429 1.363 . S
C424 C425 1.363 . S
C424 C429 1.379 . S
C424 N431 1.356 . S
C425 C424 1.363 . S
C425 C428 1.363 . S
N426 C428 1.356 . S
N426 H438 0.984 . S
N426 H439 0.985 . S
N427 C429 1.356 . S
N427 H432 0.984 . S
N427 H433 0.985 . S
C428 C422 1.379 . S
C428 C425 1.363 . S
C428 N426 1.356 . S
C429 C423 1.363 . S
C429 C424 1.379 . S
C429 N427 1.356 . S
N430 C422 1.356 . S
N430 H436 0.984 . S
N430 H437 0.984 . S
N431 C424 1.356 . S
N431 H434 0.984 . S
N431 H435 0.985 . S
H432 N427 0.984 . S
H433 N427 0.985 . S
H434 N431 0.984 . S
H435 N431 0.985 . S
H436 N430 0.984 . S
H437 N430 0.984 . S
H438 N426 0.984 . S
H439 N426 0.985 . S
C440 C441 1.363 . S
C440 C446 1.379 . S
C440 N448 1.356 . S
C441 C440 1.363 . S
C441 C447 1.363 . S
C442 C443 1.363 . S
C442 C447 1.379 . S
C442 N449 1.356 . S
C443 C442 1.363 . S
C443 C446 1.363 . S
N444 C446 1.356 . S
N444 H456 0.984 1_565 S
N444 H457 0.985 . S
N445 C447 1.356 . S
N445 H450 0.984 . S
N445 H451 0.985 . S
C446 C440 1.379 . S
C446 C443 1.363 . S
C446 N444 1.356 . S
C447 C441 1.363 . S
C447 C442 1.379 . S
C447 N445 1.356 . S
N448 C440 1.356 . S
N448 H454 0.984 . S
N448 H455 0.984 . S
N449 C442 1.356 . S
N449 H452 0.984 . S
N449 H453 0.985 . S
H450 N445 0.984 . S
H451 N445 0.985 . S
H452 N449 0.984 . S
H453 N449 0.985 . S
H454 N448 0.984 . S
H455 N448 0.984 . S
H456 N444 0.984 1_545 S
H457 N444 0.985 . S
C458 C459 1.363 . S
C458 C464 1.379 . S
C458 N466 1.356 . S
C459 C458 1.363 . S
C459 C465 1.363 . S
C460 C461 1.363 . S
C460 C465 1.379 . S
C460 N467 1.356 . S
C461 C460 1.363 . S
C461 C464 1.363 . S
N462 C464 1.356 . S
N462 H474 0.984 1_545 S
N462 H475 0.985 . S
N463 C465 1.356 . S
N463 H468 0.984 . S
N463 H469 0.985 . S
C464 C458 1.379 . S
C464 C461 1.363 . S
C464 N462 1.356 . S
C465 C459 1.363 . S
C465 C460 1.379 . S
C465 N463 1.356 . S
N466 C458 1.356 . S
N466 H472 0.984 . S
N466 H473 0.984 . S
N467 C460 1.356 . S
N467 H470 0.984 . S
N467 H471 0.985 . S
H468 N463 0.984 . S
H469 N463 0.985 . S
H470 N467 0.984 . S
H471 N467 0.985 . S
H472 N466 0.984 . S
H473 N466 0.984 . S
H474 N462 0.984 1_565 S
H475 N462 0.985 . S
C476 C477 1.363 . S
C476 C482 1.379 . S
C476 N484 1.356 . S
C477 C476 1.363 . S
C477 C483 1.363 . S
C478 C479 1.363 . S
C478 C483 1.379 . S
C478 N485 1.356 . S
C479 C478 1.363 . S
C479 C482 1.363 . S
N480 C482 1.356 . S
N480 H492 0.984 . S
N480 H493 0.985 . S
N481 C483 1.356 . S
N481 H486 0.984 . S
N481 H487 0.985 . S
C482 C476 1.379 . S
C482 C479 1.363 . S
C482 N480 1.356 . S
C483 C477 1.363 . S
C483 C478 1.379 . S
C483 N481 1.356 . S
N484 C476 1.356 . S
N484 H490 0.984 . S
N484 H491 0.984 . S
N485 C478 1.356 . S
N485 H488 0.984 . S
N485 H489 0.985 . S
H486 N481 0.984 . S
H487 N481 0.985 . S
H488 N485 0.984 . S
H489 N485 0.985 . S
H490 N484 0.984 . S
H491 N484 0.984 . S
H492 N480 0.984 . S
H493 N480 0.985 . S
C494 C495 1.363 . S
C494 C500 1.379 . S
C494 N502 1.356 . S
C495 C494 1.363 . S
C495 C501 1.363 . S
C496 C497 1.363 . S
C496 C501 1.379 . S
C496 N503 1.356 . S
C497 C496 1.363 . S
C497 C500 1.363 . S
N498 C500 1.356 . S
N498 H510 0.984 . S
N498 H511 0.985 . S
N499 C501 1.356 . S
N499 H504 0.984 . S
N499 H505 0.985 . S
C500 C494 1.379 . S
C500 C497 1.363 . S
C500 N498 1.356 . S
C501 C495 1.363 . S
C501 C496 1.379 . S
C501 N499 1.356 . S
N502 C494 1.356 . S
N502 H508 0.984 . S
N502 H509 0.984 . S
N503 C496 1.356 . S
N503 H506 0.984 . S
N503 H507 0.985 . S
H504 N499 0.984 . S
H505 N499 0.985 . S
H506 N503 0.984 . S
H507 N503 0.985 . S
H508 N502 0.984 . S
H509 N502 0.984 . S
H510 N498 0.984 . S
H511 N498 0.985 . S
C512 C513 1.363 . S
C512 C518 1.379 . S
C512 N520 1.356 . S
C513 C512 1.363 . S
C513 C519 1.363 . S
C514 C515 1.363 . S
C514 C519 1.379 . S
C514 N521 1.356 . S
C515 C514 1.363 . S
C515 C518 1.363 . S
N516 C518 1.356 . S
N516 H528 0.984 . S
N516 H529 0.985 . S
N517 C519 1.356 . S
N517 H522 0.984 . S
N517 H523 0.985 . S
C518 C512 1.379 . S
C518 C515 1.363 . S
C518 N516 1.356 . S
C519 C513 1.363 . S
C519 C514 1.379 . S
C519 N517 1.356 . S
N520 C512 1.356 . S
N520 H526 0.984 . S
N520 H527 0.984 . S
N521 C514 1.356 . S
N521 H524 0.984 . S
N521 H525 0.985 1_655 S
H522 N517 0.984 . S
H523 N517 0.985 . S
H524 N521 0.984 . S
H525 N521 0.985 1_455 S
H526 N520 0.984 . S
H527 N520 0.984 . S
H528 N516 0.984 . S
H529 N516 0.985 . S
C530 C531 1.363 . S
C530 C536 1.379 . S
C530 N538 1.356 . S
C531 C530 1.363 . S
C531 C537 1.363 . S
C532 C533 1.363 . S
C532 C537 1.379 . S
C532 N539 1.356 . S
C533 C532 1.363 . S
C533 C536 1.363 . S
N534 C536 1.356 . S
N534 H546 0.984 . S
N534 H547 0.985 . S
N535 C537 1.356 . S
N535 H540 0.984 . S
N535 H541 0.985 . S
C536 C530 1.379 . S
C536 C533 1.363 . S
C536 N534 1.356 . S
C537 C531 1.363 . S
C537 C532 1.379 . S
C537 N535 1.356 . S
N538 C530 1.356 . S
N538 H544 0.984 . S
N538 H545 0.984 . S
N539 C532 1.356 . S
N539 H542 0.984 . S
N539 H543 0.985 . S
H540 N535 0.984 . S
H541 N535 0.985 . S
H542 N539 0.984 . S
H543 N539 0.985 . S
H544 N538 0.984 . S
H545 N538 0.984 . S
H546 N534 0.984 . S
H547 N534 0.985 . S
C548 C549 1.363 . S
C548 C554 1.379 . S
C548 N556 1.356 . S
C549 C548 1.363 . S
C549 C555 1.363 . S
C550 C551 1.363 . S
C550 C555 1.379 . S
C550 N557 1.356 . S
C551 C550 1.363 . S
C551 C554 1.363 . S
N552 C554 1.356 . S
N552 H564 0.984 . S
N552 H565 0.985 . S
N553 C555 1.356 . S
N553 H558 0.984 . S
N553 H559 0.985 . S
C554 C548 1.379 . S
C554 C551 1.363 . S
C554 N552 1.356 . S
C555 C549 1.363 . S
C555 C550 1.379 . S
C555 N553 1.356 . S
N556 C548 1.356 . S
N556 H562 0.984 . S
N556 H563 0.984 . S
N557 C550 1.356 . S
N557 H560 0.984 . S
N557 H561 0.985 . S
H558 N553 0.984 . S
H559 N553 0.985 . S
H560 N557 0.984 . S
H561 N557 0.985 . S
H562 N556 0.984 . S
H563 N556 0.984 . S
H564 N552 0.984 . S
H565 N552 0.985 . S
C566 C567 1.363 . S
C566 C572 1.379 . S
C566 N574 1.356 . S
C567 C566 1.363 . S
C567 C573 1.363 . S
C568 C569 1.363 . S
C568 C573 1.379 . S
C568 N575 1.356 . S
C569 C568 1.363 . S
C569 C572 1.363 . S
N570 C572 1.356 . S
N570 H582 0.984 . S
N570 H583 0.985 . S
N571 C573 1.356 . S
N571 H576 0.984 . S
N571 H577 0.985 . S
C572 C566 1.379 . S
C572 C569 1.363 . S
C572 N570 1.356 . S
C573 C567 1.363 . S
C573 C568 1.379 . S
C573 N571 1.356 . S
N574 C566 1.356 . S
N574 H580 0.984 . S
N574 H581 0.984 . S
N575 C568 1.356 . S
N575 H578 0.984 . S
N575 H579 0.985 . S
H576 N571 0.984 . S
H577 N571 0.985 . S
H578 N575 0.984 . S
H579 N575 0.985 . S
H580 N574 0.984 . S
H581 N574 0.984 . S
H582 N570 0.984 . S
H583 N570 0.985 . S
C153 C5 1.444 . S
C155 C91 1.415 . S
C171 C14 1.261 . S
C173 C94 1.224 . S
C191 C130 1.802 . S
C189 C25 1.834 . S
C207 C34 1.708 . S
C209 C150 1.678 . S
C227 C104 1.573 . S
C225 C7 1.601 . S
C245 C81 1.455 . S
C243 C13 1.469 . S
C263 C134 1.563 . S
C261 C23 1.690 . S
C281 C114 1.366 . S
C279 C31 1.446 . S
C297 C4 1.360 . S
C299 C144 1.301 . S
C317 C110 1.670 . S
C315 C22 1.697 . S
C333 C32 1.623 . S
C335 C76 1.576 . S
C351 C16 1.324 . S
C353 C124 1.290 . S
C371 C90 1.405 . S
C369 C41 1.433 . S
C387 C50 1.266 . S
C389 C96 1.228 . S
C405 C61 1.832 . S
C407 C131 1.799 . S
C423 C67 1.715 . S
C425 C151 1.686 . S
C441 C40 1.612 . S
C443 C101 1.585 . S
C461 C84 1.438 . S
C459 C52 1.452 . S
C479 C136 1.568 . S
C477 C59 1.694 . S
C497 C116 1.364 . S
C495 C70 1.443 . S
C513 C43 1.357 . S
C515 C141 1.298 . S
C533 C111 1.676 . S
C531 C58 1.704 . S
C551 C74 1.567 . S
C549 C68 1.612 . S
C567 C49 1.330 . S
C569 C121 1.297 . S
