# Generated by pormake.
# Topology pyr, (3,6)-cn, num edge types: 1
# Building blocks:
#     Node 0, Type 0, BuildingBlock: VETTIZ_charged_linker_0, # of connection points: 3
#     Node 1, Type 0, BuildingBlock: VETTIZ_charged_linker_0, # of connection points: 3
#     Node 2, Type 0, BuildingBlock: VETTIZ_charged_linker_0, # of connection points: 3
#     Node 3, Type 0, BuildingBlock: VETTIZ_charged_linker_0, # of connection points: 3
#     Node 4, Type 0, BuildingBlock: VETTIZ_charged_linker_0, # of connection points: 3
#     Node 5, Type 0, BuildingBlock: VETTIZ_charged_linker_0, # of connection points: 3
#     Node 6, Type 0, BuildingBlock: VETTIZ_charged_linker_0, # of connection points: 3
#     Node 7, Type 0, BuildingBlock: VETTIZ_charged_linker_0, # of connection points: 3
#     Node 8, Type 1, BuildingBlock: PAMTOO_clean_sbu_0, # of connection points: 6
#     Node 9, Type 1, BuildingBlock: PAMTOO_clean_sbu_0, # of connection points: 6
#     Node 10, Type 1, BuildingBlock: PAMTOO_clean_sbu_0, # of connection points: 6
#     Node 11, Type 1, BuildingBlock: PAMTOO_clean_sbu_0, # of connection points: 6
#     Edge 12, Type (0, 1), BuildingBlock: CIFDUS_clean_linker_0, # of connection points: 2
#     Edge 13, Type (0, 1), BuildingBlock: CIFDUS_clean_linker_0, # of connection points: 2
#     Edge 14, Type (0, 1), BuildingBlock: CIFDUS_clean_linker_0, # of connection points: 2
#     Edge 15, Type (0, 1), BuildingBlock: CIFDUS_clean_linker_0, # of connection points: 2
#     Edge 16, Type (0, 1), BuildingBlock: CIFDUS_clean_linker_0, # of connection points: 2
#     Edge 17, Type (0, 1), BuildingBlock: CIFDUS_clean_linker_0, # of connection points: 2
#     Edge 18, Type (0, 1), BuildingBlock: CIFDUS_clean_linker_0, # of connection points: 2
#     Edge 19, Type (0, 1), BuildingBlock: CIFDUS_clean_linker_0, # of connection points: 2
#     Edge 20, Type (0, 1), BuildingBlock: CIFDUS_clean_linker_0, # of connection points: 2
#     Edge 21, Type (0, 1), BuildingBlock: CIFDUS_clean_linker_0, # of connection points: 2
#     Edge 22, Type (0, 1), BuildingBlock: CIFDUS_clean_linker_0, # of connection points: 2
#     Edge 23, Type (0, 1), BuildingBlock: CIFDUS_clean_linker_0, # of connection points: 2
#     Edge 24, Type (0, 1), BuildingBlock: CIFDUS_clean_linker_0, # of connection points: 2
#     Edge 25, Type (0, 1), BuildingBlock: CIFDUS_clean_linker_0, # of connection points: 2
#     Edge 26, Type (0, 1), BuildingBlock: CIFDUS_clean_linker_0, # of connection points: 2
#     Edge 27, Type (0, 1), BuildingBlock: CIFDUS_clean_linker_0, # of connection points: 2
#     Edge 28, Type (0, 1), BuildingBlock: CIFDUS_clean_linker_0, # of connection points: 2
#     Edge 29, Type (0, 1), BuildingBlock: CIFDUS_clean_linker_0, # of connection points: 2
#     Edge 30, Type (0, 1), BuildingBlock: CIFDUS_clean_linker_0, # of connection points: 2
#     Edge 31, Type (0, 1), BuildingBlock: CIFDUS_clean_linker_0, # of connection points: 2
#     Edge 32, Type (0, 1), BuildingBlock: CIFDUS_clean_linker_0, # of connection points: 2
#     Edge 33, Type (0, 1), BuildingBlock: CIFDUS_clean_linker_0, # of connection points: 2
#     Edge 34, Type (0, 1), BuildingBlock: CIFDUS_clean_linker_0, # of connection points: 2
#     Edge 35, Type (0, 1), BuildingBlock: CIFDUS_clean_linker_0, # of connection points: 2
# Relax obj value: 0.106
# Max RMSD: 0.164
# Mean RMSD: 0.070
data_MOF--net-pyr--node1-PAMTOO_clean_sbu_0--node2-VETTIZ_charged_linker_0--edge1-CIFDUS_clean_linker_0
_symmetry_space_group_name_H-M    P1
_symmetry_Int_Tables_number       1
_symmetry_cell_setting            triclinic
loop_
_symmetry_equiv_pos_as_xyz
'x, y, z'
_cell_length_a     40.569914
_cell_length_b     42.292247
_cell_length_c     41.576577
_cell_angle_alpha  90.104473
_cell_angle_beta   90.093592
_cell_angle_gamma 102.89635
loop_
_atom_site_label
_atom_site_type_symbol
_atom_site_fract_x
_atom_site_fract_y
_atom_site_fract_z
_atom_type_partial_charge
C0 C 0.309 0.25178 0.35014 0.0
C1 C 0.28486 0.26688 0.36431 0.0
C2 C 0.278 0.29467 0.34942 0.0
C3 C 0.31065 0.28575 0.30317 0.0
C4 C 0.32185 0.26186 0.31962 0.0
C5 C 0.34562 0.24723 0.29951 0.0
H6 H 0.39175 0.20992 0.15114 0.0
C7 C 0.32107 0.28487 0.26938 0.0
C8 C 0.34229 0.26295 0.26704 0.0
H9 H 0.43558 0.19092 0.24197 0.0
H10 H 0.40153 0.22277 0.26972 0.0
H11 H 0.39405 0.28789 0.16656 0.0
H12 H 0.31734 0.19964 0.17455 0.0
H13 H 0.29641 0.23032 0.16445 0.0
H14 H 0.32674 0.22008 0.13681 0.0
H15 H 0.376 0.26356 0.13272 0.0
H16 H 0.35598 0.29377 0.14946 0.0
C17 C 0.38183 0.25798 0.31368 0.0
C18 C 0.3325 0.20996 0.29824 0.0
C19 C 0.2503 0.32755 0.18692 0.0
C20 C 0.24375 0.32063 0.15424 0.0
C21 C 0.2632 0.30224 0.13754 0.0
C22 C 0.28862 0.29053 0.15352 0.0
C23 C 0.29387 0.29655 0.18668 0.0
C24 C 0.27471 0.31473 0.20276 0.0
C25 C 0.28119 0.31638 0.23835 0.0
C26 C 0.3072 0.29566 0.24118 0.0
C27 C 0.31507 0.28471 0.21082 0.0
C28 C 0.29682 0.35211 0.2473 0.0
C29 C 0.24752 0.30172 0.25631 0.0
C30 C 0.39396 0.21261 0.17702 0.0
C31 C 0.41605 0.1977 0.19449 0.0
C32 C 0.41876 0.20222 0.22806 0.0
C33 C 0.39894 0.22046 0.24414 0.0
C34 C 0.37616 0.23419 0.22649 0.0
C35 C 0.37466 0.23106 0.19342 0.0
C36 C 0.35017 0.24892 0.17868 0.0
C37 C 0.33826 0.26416 0.20834 0.0
C38 C 0.3527 0.25441 0.23629 0.0
C39 C 0.36985 0.27487 0.15542 0.0
C40 C 0.32119 0.22368 0.16254 0.0
H41 H 0.28379 0.32465 0.30805 0.0
H42 H 0.31567 0.23095 0.36124 0.0
H43 H 0.30548 0.20365 0.29078 0.0
H44 H 0.34661 0.19818 0.28101 0.0
H45 H 0.33466 0.19894 0.32216 0.0
H46 H 0.38365 0.27727 0.33226 0.0
H47 H 0.3901 0.2374 0.32527 0.0
H48 H 0.40056 0.26856 0.29499 0.0
H49 H 0.23516 0.341 0.20049 0.0
H50 H 0.25843 0.29665 0.11229 0.0
H51 H 0.30258 0.27655 0.13968 0.0
H52 H 0.31609 0.36343 0.22927 0.0
H53 H 0.27707 0.36657 0.24806 0.0
H54 H 0.31021 0.35447 0.27065 0.0
H55 H 0.22585 0.29321 0.23969 0.0
H56 H 0.24915 0.27997 0.27053 0.0
H57 H 0.23992 0.31975 0.27248 0.0
H58 H 0.26105 0.30794 0.36051 0.0
C59 C 0.29083 0.30417 0.31889 0.0
C60 C 0.10504 0.81485 0.66046 0.0
C61 C 0.08681 0.83547 0.6754 0.0
C62 C 0.08525 0.83646 0.70916 0.0
C63 C 0.12411 0.80088 0.71282 0.0
C64 C 0.12355 0.7977 0.67972 0.0
C65 C 0.14662 0.77649 0.66837 0.0
H66 H 0.26837 0.69525 0.70564 0.0
C67 C 0.1492 0.78391 0.7258 0.0
C68 C 0.16205 0.76884 0.70003 0.0
H69 H 0.22657 0.70556 0.61172 0.0
H70 H 0.1878 0.73552 0.63515 0.0
H71 H 0.27817 0.76307 0.72302 0.0
H72 H 0.1974 0.68342 0.74835 0.0
H73 H 0.21014 0.70677 0.78332 0.0
H74 H 0.24041 0.68936 0.76194 0.0
H75 H 0.28004 0.7405 0.75907 0.0
H76 H 0.26234 0.77608 0.75864 0.0
C77 C 0.17345 0.79673 0.64568 0.0
C78 C 0.12462 0.74577 0.65261 0.0
C79 C 0.19381 0.81108 0.83851 0.0
C80 C 0.22366 0.8069 0.85355 0.0
C81 C 0.23976 0.7831 0.84129 0.0
C82 C 0.22839 0.76639 0.81284 0.0
C83 C 0.20132 0.7742 0.79588 0.0
C84 C 0.18375 0.79535 0.80931 0.0
C85 C 0.15763 0.80304 0.78672 0.0
C86 C 0.16345 0.78399 0.75702 0.0
C87 C 0.18897 0.76715 0.76262 0.0
C88 C 0.16646 0.84024 0.7808 0.0
C89 C 0.12217 0.7898 0.80148 0.0
C90 C 0.25029 0.70329 0.69022 0.0
C91 C 0.24991 0.6976 0.657 0.0
C92 C 0.22701 0.70955 0.63747 0.0
C93 C 0.20463 0.72688 0.65113 0.0
C94 C 0.20582 0.7329 0.6845 0.0
C95 C 0.22849 0.72111 0.70333 0.0
C96 C 0.22866 0.73186 0.7377 0.0
C97 C 0.20103 0.7507 0.737 0.0
C98 C 0.18773 0.75147 0.70582 0.0
C99 C 0.26403 0.75385 0.74525 0.0
C100 C 0.21884 0.70136 0.75918 0.0
H101 H 0.10198 0.82139 0.75352 0.0
H102 H 0.10641 0.81361 0.63448 0.0
H103 H 0.10061 0.7374 0.66612 0.0
H104 H 0.13691 0.72497 0.65279 0.0
H105 H 0.11797 0.75068 0.62746 0.0
H106 H 0.18217 0.82191 0.65497 0.0
H107 H 0.16289 0.79822 0.6212 0.0
H108 H 0.19652 0.78717 0.64369 0.0
H109 H 0.18014 0.82839 0.84775 0.0
H110 H 0.2627 0.77901 0.85218 0.0
H111 H 0.24245 0.74949 0.80417 0.0
H112 H 0.19426 0.8493 0.77812 0.0
H113 H 0.15811 0.85345 0.80125 0.0
H114 H 0.1556 0.84767 0.75857 0.0
H115 H 0.12217 0.76909 0.81796 0.0
H116 H 0.10293 0.77988 0.78299 0.0
H117 H 0.11358 0.8088 0.81555 0.0
H118 H 0.07089 0.85186 0.721 0.0
C119 C 0.10342 0.81892 0.72794 0.0
C120 C 0.61628 0.26379 0.92473 0.0
C121 C 0.58703 0.24224 0.91329 0.0
C122 C 0.57108 0.25131 0.88554 0.0
C123 C 0.61333 0.3022 0.88168 0.0
C124 C 0.62888 0.29313 0.90869 0.0
C125 C 0.6599 0.31794 0.91816 0.0
H126 H 0.76878 0.46201 0.89635 0.0
C127 C 0.63324 0.33461 0.87115 0.0
C128 C 0.66055 0.34364 0.89261 0.0
H129 H 0.77107 0.38819 0.96787 0.0
H130 H 0.72055 0.3552 0.94606 0.0
H131 H 0.68628 0.45577 0.89753 0.0
H132 H 0.74924 0.4109 0.83703 0.0
H133 H 0.71831 0.42218 0.81272 0.0
H134 H 0.74868 0.45309 0.83361 0.0
H135 H 0.71541 0.47833 0.86893 0.0
H136 H 0.67334 0.45757 0.85725 0.0
C137 C 0.65394 0.3306 0.95225 0.0
C138 C 0.69075 0.30196 0.91543 0.0
C139 C 0.59727 0.39245 0.7733 0.0
C140 C 0.61117 0.42219 0.75774 0.0
C141 C 0.64099 0.44187 0.77085 0.0
C142 C 0.65647 0.43235 0.7984 0.0
C143 C 0.64238 0.40261 0.81336 0.0
C144 C 0.61325 0.38314 0.80075 0.0
C145 C 0.60221 0.352 0.81954 0.0
C146 C 0.62938 0.35601 0.8455 0.0
C147 C 0.65293 0.38588 0.8418 0.0
C148 C 0.56691 0.35114 0.83393 0.0
C149 C 0.60326 0.32323 0.79685 0.0
C150 C 0.75841 0.43869 0.90724 0.0
C151 C 0.77399 0.42824 0.93451 0.0
C152 C 0.75941 0.39759 0.94765 0.0
C153 C 0.73002 0.37809 0.93462 0.0
C154 C 0.71467 0.38884 0.90773 0.0
C155 C 0.72884 0.41859 0.89428 0.0
C156 C 0.70898 0.4253 0.86521 0.0
C157 C 0.6806 0.39476 0.86376 0.0
C158 C 0.68424 0.37366 0.88887 0.0
C159 C 0.69534 0.45596 0.87227 0.0
C160 C 0.73237 0.4283 0.83546 0.0
H161 H 0.57066 0.28643 0.84889 0.0
H162 H 0.62907 0.25832 0.9462 0.0
H163 H 0.68659 0.28272 0.89662 0.0
H164 H 0.7141 0.3192 0.9078 0.0
H165 H 0.69558 0.29053 0.93848 0.0
H166 H 0.62697 0.3316 0.95557 0.0
H167 H 0.66038 0.31451 0.97122 0.0
H168 H 0.66819 0.35568 0.95671 0.0
H169 H 0.57427 0.37666 0.76447 0.0
H170 H 0.65295 0.46449 0.75943 0.0
H171 H 0.67911 0.44848 0.80686 0.0
H172 H 0.56569 0.37536 0.84371 0.0
H173 H 0.54687 0.34446 0.81532 0.0
H174 H 0.56074 0.33419 0.85429 0.0
H175 H 0.62585 0.32909 0.78099 0.0
H176 H 0.60546 0.30111 0.8099 0.0
H177 H 0.58047 0.31753 0.7812 0.0
H178 H 0.54873 0.23527 0.87573 0.0
C179 C 0.58398 0.28105 0.86978 0.0
C180 C 0.92396 0.79964 0.39255 0.0
C181 C 0.91169 0.81588 0.41816 0.0
C182 C 0.88335 0.79939 0.43549 0.0
C183 C 0.87838 0.75212 0.40138 0.0
C184 C 0.90668 0.76763 0.38447 0.0
C185 C 0.91448 0.74629 0.35736 0.0
H186 H 0.87291 0.59994 0.27844 0.0
C187 C 0.86522 0.71981 0.3869 0.0
C188 C 0.88618 0.71576 0.36106 0.0
H189 H 0.95547 0.68075 0.25651 0.0
H190 H 0.93842 0.7119 0.3001 0.0
H191 H 0.87884 0.60452 0.35636 0.0
H192 H 0.81803 0.64422 0.2888 0.0
H193 H 0.79265 0.62909 0.32198 0.0
H194 H 0.81003 0.60161 0.29746 0.0
H195 H 0.84512 0.57949 0.33369 0.0
H196 H 0.8372 0.59801 0.3711 0.0
C197 C 0.94969 0.7393 0.36365 0.0
C198 C 0.91181 0.7637 0.32514 0.0
C199 C 0.75697 0.65126 0.43246 0.0
C200 C 0.73656 0.62082 0.42465 0.0
C201 C 0.74758 0.60226 0.40032 0.0
C202 C 0.77785 0.61448 0.38339 0.0
C203 C 0.79743 0.64557 0.39093 0.0
C204 C 0.78688 0.66303 0.41546 0.0
C205 C 0.81032 0.6954 0.42069 0.0
C206 C 0.83652 0.69511 0.39478 0.0
C207 C 0.82908 0.66596 0.37732 0.0
C208 C 0.82564 0.69554 0.45499 0.0
C209 C 0.79002 0.72194 0.41459 0.0
C210 C 0.88747 0.62427 0.28312 0.0
C211 C 0.91578 0.63771 0.26405 0.0
C212 C 0.93351 0.66979 0.27067 0.0
C213 C 0.92367 0.6878 0.29612 0.0
C214 C 0.89545 0.67386 0.3151 0.0
C215 C 0.87768 0.64266 0.30809 0.0
C216 C 0.84753 0.63195 0.32969 0.0
C217 C 0.85043 0.66137 0.35137 0.0
C218 C 0.87872 0.68609 0.34298 0.0
C219 C 0.85207 0.60177 0.34868 0.0
C220 C 0.81523 0.62613 0.30859 0.0
H221 H 0.84527 0.75719 0.44163 0.0
H222 H 0.94573 0.81178 0.37878 0.0
H223 H 0.88957 0.77506 0.32526 0.0
H224 H 0.90792 0.747 0.30439 0.0
H225 H 0.93475 0.78316 0.32088 0.0
H226 H 0.95222 0.73278 0.3893 0.0
H227 H 0.97002 0.76098 0.35828 0.0
H228 H 0.95424 0.71863 0.34949 0.0
H229 H 0.74968 0.66592 0.45142 0.0
H230 H 0.73235 0.57868 0.39382 0.0
H231 H 0.78466 0.59942 0.36486 0.0
H232 H 0.82733 0.67071 0.46253 0.0
H233 H 0.80996 0.70474 0.47309 0.0
H234 H 0.85197 0.70989 0.45651 0.0
H235 H 0.7702 0.71405 0.39591 0.0
H236 H 0.80571 0.74473 0.40504 0.0
H237 H 0.77716 0.72737 0.43682 0.0
H238 H 0.87369 0.81119 0.45541 0.0
C239 C 0.86684 0.76784 0.4274 0.0
C240 C 0.75495 0.73458 0.91817 0.0
C241 C 0.7796 0.72171 0.90206 0.0
C242 C 0.78028 0.72209 0.86818 0.0
C243 C 0.73322 0.74845 0.86687 0.0
C244 C 0.73186 0.74757 0.90005 0.0
C245 C 0.70399 0.76246 0.91285 0.0
H246 H 0.58665 0.85031 0.88264 0.0
C247 C 0.70657 0.76416 0.85508 0.0
C248 C 0.68873 0.77191 0.88176 0.0
H249 H 0.61869 0.82109 0.97497 0.0
H250 H 0.65295 0.78881 0.94861 0.0
H251 H 0.57679 0.78134 0.84787 0.0
H252 H 0.66028 0.86456 0.8503 0.0
H253 H 0.65141 0.85224 0.81011 0.0
H254 H 0.61952 0.86466 0.83335 0.0
H255 H 0.57808 0.81537 0.82185 0.0
H256 H 0.59726 0.78227 0.81055 0.0
C257 C 0.67863 0.73612 0.9315 0.0
C258 C 0.7206 0.79245 0.93332 0.0
C259 C 0.70831 0.7997 0.7389 0.0
C260 C 0.6885 0.8171 0.72129 0.0
C261 C 0.65734 0.82031 0.73453 0.0
C262 C 0.64836 0.81011 0.76603 0.0
C263 C 0.67066 0.79648 0.78448 0.0
C264 C 0.6988 0.78946 0.77015 0.0
C265 C 0.71833 0.77272 0.79271 0.0
C266 C 0.69863 0.77322 0.82367 0.0
C267 C 0.67127 0.78791 0.81889 0.0
C268 C 0.71592 0.73768 0.78014 0.0
C269 C 0.75491 0.79356 0.79537 0.0
C270 C 0.60049 0.83643 0.89718 0.0
C271 C 0.60028 0.83858 0.93089 0.0
C272 C 0.61892 0.82032 0.94893 0.0
C273 C 0.63887 0.80167 0.93359 0.0
C274 C 0.64059 0.80158 0.89983 0.0
C275 C 0.62087 0.81808 0.88222 0.0
C276 C 0.62649 0.81608 0.84663 0.0
C277 C 0.65326 0.79609 0.84577 0.0
C278 C 0.66173 0.78792 0.87704 0.0
C279 C 0.59298 0.79806 0.83067 0.0
C280 C 0.64001 0.8511 0.83416 0.0
H281 H 0.75948 0.73509 0.82494 0.0
H282 H 0.75359 0.7344 0.94419 0.0
H283 H 0.74442 0.8059 0.92193 0.0
H284 H 0.70478 0.81039 0.93558 0.0
H285 H 0.72701 0.78511 0.95777 0.0
H286 H 0.6756 0.71207 0.91956 0.0
H287 H 0.68746 0.73373 0.95649 0.0
H288 H 0.65292 0.74079 0.93218 0.0
H289 H 0.7322 0.79621 0.7298 0.0
H290 H 0.64062 0.83218 0.72119 0.0
H291 H 0.62521 0.81464 0.77536 0.0
H292 H 0.6941 0.72967 0.76353 0.0
H293 H 0.73908 0.73573 0.76681 0.0
H294 H 0.71149 0.71958 0.79981 0.0
H295 H 0.75466 0.81973 0.79763 0.0
H296 H 0.76868 0.78791 0.8167 0.0
H297 H 0.76992 0.79058 0.77371 0.0
H298 H 0.79926 0.71285 0.85515 0.0
C299 C 0.7572 0.73517 0.85059 0.0
C300 C 0.91397 0.22451 0.42382 0.0
C301 C 0.93151 0.20507 0.40616 0.0
C302 C 0.93086 0.20628 0.37228 0.0
C303 C 0.89291 0.2432 0.37444 0.0
C304 C 0.89488 0.2432 0.40759 0.0
C305 C 0.87274 0.26317 0.42291 0.0
H306 H 0.75263 0.34983 0.40542 0.0
C307 C 0.86955 0.26385 0.36514 0.0
C308 C 0.85822 0.27623 0.3934 0.0
H309 H 0.78781 0.31422 0.49329 0.0
H310 H 0.83079 0.29475 0.4636 0.0
H311 H 0.7535 0.28243 0.36499 0.0
H312 H 0.8207 0.37677 0.37101 0.0
H313 H 0.82714 0.36136 0.33275 0.0
H314 H 0.78622 0.36879 0.34297 0.0
H315 H 0.74228 0.32024 0.3559 0.0
H316 H 0.7617 0.30008 0.32647 0.0
C317 C 0.84512 0.24015 0.44294 0.0
C318 C 0.8954 0.29069 0.44268 0.0
C319 C 0.82035 0.25815 0.25279 0.0
C320 C 0.79675 0.27392 0.2386 0.0
C321 C 0.79167 0.30272 0.253 0.0
C322 C 0.80532 0.31245 0.28332 0.0
C323 C 0.82406 0.29316 0.29932 0.0
C324 C 0.83407 0.26852 0.28298 0.0
C325 C 0.85783 0.25361 0.30276 0.0
C326 C 0.85668 0.27074 0.33483 0.0
C327 C 0.83573 0.29297 0.33284 0.0
C328 C 0.84312 0.21662 0.30533 0.0
C329 C 0.89345 0.26258 0.28725 0.0
C330 C 0.7701 0.33837 0.41825 0.0
C331 C 0.76713 0.3336 0.45159 0.0
C332 C 0.78973 0.31805 0.46754 0.0
C333 C 0.81445 0.30665 0.45024 0.0
C334 C 0.81582 0.30996 0.41654 0.0
C335 C 0.79401 0.32587 0.40117 0.0
C336 C 0.79667 0.32455 0.36516 0.0
C337 C 0.82394 0.30531 0.36136 0.0
C338 C 0.83497 0.29679 0.39152 0.0
C339 C 0.76184 0.30594 0.3522 0.0
C340 C 0.80807 0.3596 0.3521 0.0
H341 H 0.91139 0.22467 0.33057 0.0
H342 H 0.91427 0.22448 0.44988 0.0
H343 H 0.91846 0.302 0.42884 0.0
H344 H 0.88277 0.31059 0.44837 0.0
H345 H 0.90367 0.28121 0.4655 0.0
H346 H 0.84082 0.21462 0.43434 0.0
H347 H 0.85232 0.2403 0.46874 0.0
H348 H 0.82005 0.24619 0.44086 0.0
H349 H 0.82593 0.23661 0.24214 0.0
H350 H 0.77534 0.3166 0.24185 0.0
H351 H 0.79911 0.33345 0.29405 0.0
H352 H 0.81599 0.21173 0.31228 0.0
H353 H 0.84503 0.20436 0.28198 0.0
H354 H 0.85597 0.20484 0.32363 0.0
H355 H 0.89613 0.28361 0.27065 0.0
H356 H 0.91367 0.27025 0.30546 0.0
H357 H 0.89885 0.24201 0.27311 0.0
H358 H 0.94399 0.19145 0.35811 0.0
C359 C 0.91176 0.22538 0.35635 0.0
C360 C 0.41414 0.65293 0.33518 0.0
C361 C 0.40009 0.62164 0.34723 0.0
C362 C 0.37242 0.60227 0.33057 0.0
C363 C 0.37231 0.64563 0.292 0.0
C364 C 0.4001 0.66429 0.30768 0.0
C365 C 0.41247 0.69675 0.29165 0.0
H366 H 0.38964 0.8044 0.17689 0.0
C367 C 0.36295 0.66514 0.26503 0.0
C368 C 0.38659 0.69528 0.26489 0.0
H369 H 0.47394 0.81487 0.24276 0.0
H370 H 0.44857 0.76277 0.26665 0.0
H371 H 0.33296 0.77672 0.22489 0.0
H372 H 0.38912 0.7324 0.15812 0.0
H373 H 0.34722 0.7103 0.15515 0.0
H374 H 0.35693 0.75305 0.14631 0.0
H375 H 0.32185 0.77248 0.18312 0.0
H376 H 0.30416 0.74158 0.21216 0.0
C377 C 0.41091 0.72378 0.31631 0.0
C378 C 0.44832 0.69808 0.27822 0.0
C379 C 0.26072 0.62074 0.19114 0.0
C380 C 0.24589 0.63539 0.16589 0.0
C381 C 0.25889 0.66861 0.15968 0.0
C382 C 0.28683 0.68633 0.17632 0.0
C383 C 0.30233 0.67123 0.20015 0.0
C384 C 0.28884 0.63928 0.20809 0.0
C385 C 0.30788 0.62867 0.23608 0.0
C386 C 0.33571 0.65911 0.24227 0.0
C387 C 0.33222 0.68364 0.22069 0.0
C388 C 0.28322 0.62081 0.26476 0.0
C389 C 0.32259 0.59978 0.22497 0.0
C390 C 0.40312 0.79553 0.19616 0.0
C391 C 0.43422 0.81393 0.20744 0.0
C392 C 0.44993 0.80145 0.23344 0.0
C393 C 0.43529 0.77098 0.24712 0.0
C394 C 0.40458 0.75256 0.23469 0.0
C395 C 0.38921 0.7652 0.20964 0.0
C396 C 0.35744 0.74255 0.19838 0.0
C397 C 0.35625 0.71373 0.22035 0.0
C398 C 0.38358 0.7196 0.24198 0.0
C399 C 0.32745 0.75906 0.20465 0.0
C400 C 0.36253 0.73413 0.16261 0.0
H401 H 0.33734 0.59817 0.29185 0.0
H402 H 0.43581 0.66827 0.34686 0.0
H403 H 0.45061 0.67383 0.26933 0.0
H404 H 0.45437 0.71427 0.25723 0.0
H405 H 0.46791 0.70586 0.29706 0.0
H406 H 0.38656 0.71799 0.32966 0.0
H407 H 0.43176 0.72636 0.33415 0.0
H408 H 0.41215 0.74756 0.30496 0.0
H409 H 0.25115 0.59548 0.19719 0.0
H410 H 0.24739 0.68127 0.14174 0.0
H411 H 0.2954 0.71123 0.16962 0.0
H412 H 0.26691 0.6387 0.26632 0.0
H413 H 0.2664 0.59632 0.26206 0.0
H414 H 0.29626 0.62226 0.28818 0.0
H415 H 0.33376 0.60435 0.20054 0.0
H416 H 0.34324 0.59576 0.24062 0.0
H417 H 0.30257 0.57709 0.22391 0.0
H418 H 0.36098 0.57817 0.33918 0.0
C419 C 0.35848 0.61406 0.30321 0.0
C420 C 0.09377 0.26372 0.71253 0.0
C421 C 0.1042 0.25056 0.68389 0.0
C422 C 0.1274 0.27103 0.6637 0.0
C423 C 0.13346 0.31504 0.70196 0.0
C424 C 0.1088 0.29629 0.72105 0.0
C425 C 0.10199 0.31532 0.75045 0.0
H426 H 0.14784 0.45532 0.83974 0.0
C427 C 0.1469 0.34631 0.71829 0.0
C428 C 0.12859 0.34715 0.74683 0.0
H429 H 0.06233 0.37558 0.85641 0.0
H430 H 0.07869 0.34672 0.81078 0.0
H431 H 0.13984 0.45777 0.76173 0.0
H432 H 0.20003 0.41173 0.82403 0.0
H433 H 0.2243 0.42436 0.78957 0.0
H434 H 0.21195 0.45425 0.81522 0.0
H435 H 0.17291 0.47975 0.78729 0.0
H436 H 0.18203 0.46634 0.74796 0.0
C437 C 0.06566 0.32065 0.74755 0.0
C438 C 0.10791 0.29666 0.781 0.0
C439 C 0.25056 0.42093 0.67026 0.0
C440 C 0.27347 0.44891 0.68135 0.0
C441 C 0.26642 0.46251 0.71101 0.0
C442 C 0.23758 0.44839 0.7291 0.0
C443 C 0.21546 0.42002 0.71781 0.0
C444 C 0.22247 0.40676 0.68895 0.0
C445 C 0.19807 0.37534 0.68158 0.0
C446 C 0.17498 0.37185 0.71069 0.0
C447 C 0.18476 0.39831 0.73161 0.0
C448 C 0.17894 0.37995 0.65017 0.0
C449 C 0.21852 0.34834 0.68005 0.0
C450 C 0.13221 0.43186 0.83345 0.0
C451 C 0.10339 0.41816 0.85181 0.0
C452 C 0.08468 0.38692 0.843 0.0
C453 C 0.09397 0.37028 0.81618 0.0
C454 C 0.12228 0.38488 0.79763 0.0
C455 C 0.14097 0.41513 0.80669 0.0
C456 C 0.17045 0.4272 0.78466 0.0
C457 C 0.16558 0.40012 0.75993 0.0
C458 C 0.13748 0.37491 0.76761 0.0
C459 C 0.16642 0.45958 0.76961 0.0
C460 C 0.20352 0.42982 0.80422 0.0
H461 H 0.15999 0.31649 0.65612 0.0
H462 H 0.07543 0.24882 0.72826 0.0
H463 H 0.13234 0.28896 0.77931 0.0
H464 H 0.1094 0.31157 0.80298 0.0
H465 H 0.08743 0.27458 0.78414 0.0
H466 H 0.06012 0.32662 0.72234 0.0
H467 H 0.04676 0.29846 0.75458 0.0
H468 H 0.06164 0.34127 0.76212 0.0
H469 H 0.25436 0.40981 0.64751 0.0
H470 H 0.28359 0.4837 0.72076 0.0
H471 H 0.23382 0.45987 0.75143 0.0
H472 H 0.1757 0.40531 0.64799 0.0
H473 H 0.19291 0.3747 0.62858 0.0
H474 H 0.15289 0.36488 0.64946 0.0
H475 H 0.24127 0.35417 0.69583 0.0
H476 H 0.20427 0.32466 0.689 0.0
H477 H 0.22738 0.34525 0.65522 0.0
H478 H 0.13507 0.26202 0.64112 0.0
C479 C 0.14194 0.30287 0.67248 0.0
Dy480 Dy 0.04853 0.03973 0.54027 0.0
Dy481 Dy 0.97236 1.01828 0.57154 0.0
C482 C 0.02691 0.08154 0.5975 0.0
O483 O 0.05179 1.01222 0.58559 0.0
O484 O 0.99883 0.9795 0.58547 0.0
O485 O 0.10246 0.05268 0.54767 0.0
O486 O 0.0821 0.04572 0.49932 0.0
O487 O 0.97036 0.99083 0.52491 0.0
O488 O 0.02637 0.98956 0.52199 0.0
O489 O 0.97412 0.06457 0.54639 0.0
O490 O 0.01579 0.064 0.50942 0.0
O491 O 0.9184 1.01093 0.56589 0.0
O492 O 0.93996 1.00399 0.61262 0.0
C493 C 0.03066 0.98535 0.59402 0.0
O494 O 0.04495 0.08202 0.57118 0.0
O495 O 1.00165 0.05701 0.60454 0.0
C496 C 0.13424 0.08296 0.50655 0.0
C497 C 0.18284 0.13709 0.48513 0.0
C498 C 0.15203 0.14104 0.49825 0.0
C499 C 0.12788 0.11414 0.50891 0.0
C500 C 0.16508 0.07896 0.49413 0.0
C501 C 0.1892 0.10576 0.4835 0.0
C502 C 0.10921 0.05432 0.51703 0.0
C503 C 0.99473 0.97803 0.51358 0.0
C504 C 0.98919 0.07431 0.51922 0.0
C505 C 0.88412 0.97492 0.6022 0.0
C506 C 0.82795 0.92419 0.61549 0.0
C507 C 0.84933 0.92173 0.58941 0.0
C508 C 0.87727 0.94701 0.58275 0.0
C509 C 0.86308 0.97724 0.62827 0.0
C510 C 0.83537 0.95216 0.63493 0.0
C511 C 0.91241 1.00244 0.59585 0.0
H512 H 0.1465 0.16488 0.50004 0.0
H513 H 0.10418 0.11758 0.5187 0.0
H514 H 0.17033 0.055 0.49225 0.0
H515 H 0.21236 0.10178 0.47301 0.0
H516 H 0.84432 0.90045 0.57409 0.0
H517 H 0.89339 0.94485 0.56249 0.0
H518 H 0.86813 0.99855 0.64359 0.0
H519 H 0.82008 0.9545 0.65575 0.0
Dy520 Dy 0.48335 1.01756 1.03634 0.0
Dy521 Dy 0.55087 0.03585 0.08226 0.0
C522 C 0.4933 0.97083 0.09446 0.0
O523 O 0.47011 0.04006 0.08155 0.0
O524 O 0.52115 0.07317 0.09278 0.0
O525 O 0.42897 1.00822 1.03448 0.0
O526 O 0.45784 1.01032 0.99036 0.0
O527 O 0.56302 0.06688 1.0381 0.0
O528 O 0.50931 0.06795 1.02194 0.0
O529 O 0.55581 0.9918 0.05532 0.0
O530 O 0.52037 0.99301 1.01238 0.0
O531 O 0.60448 0.03991 0.08753 0.0
O532 O 0.57508 0.05128 0.12773 0.0
C533 C 0.48813 0.06635 0.09484 0.0
O534 O 0.48231 0.97282 0.06492 0.0
O535 O 0.51496 0.99519 0.10799 0.0
C536 C 0.4032 0.97548 0.99191 0.0
C537 C 0.35435 0.92209 0.96908 0.0
C538 C 0.38871 0.92081 0.97014 0.0
C539 C 0.413 0.94732 0.98158 0.0
C540 C 0.36893 0.97641 0.99182 0.0
C541 C 0.3447 0.94994 0.98063 0.0
C542 C 0.42786 1.00407 1.00345 0.0
C543 C 0.54207 0.07995 1.02116 0.0
C544 C 0.54473 0.98222 1.02649 0.0
C545 C 0.63169 0.08053 0.12287 0.0
C546 C 0.68354 0.13571 0.13474 0.0
C547 C 0.65279 0.1389 0.12086 0.0
C548 C 0.62707 0.11146 0.11483 0.0
C549 C 0.66244 0.0772 0.13614 0.0
C550 C 0.68818 0.10453 0.14202 0.0
C551 C 0.60522 0.05139 0.11667 0.0
H552 H 0.39695 0.89978 0.96118 0.0
H553 H 0.43937 0.94601 0.98191 0.0
H554 H 0.36091 0.99779 1.00019 0.0
H555 H 0.3184 0.95145 0.98065 0.0
H556 H 0.64859 0.16261 0.11487 0.0
H557 H 0.60356 0.11435 0.1041 0.0
H558 H 0.66644 0.05343 0.14223 0.0
H559 H 0.71133 0.10131 0.15322 0.0
Dy560 Dy 0.50516 0.48221 0.53462 0.0
Dy561 Dy 0.50808 0.5547 0.56443 0.0
C562 C 0.53784 0.50239 0.60432 0.0
O563 O 0.45218 0.47854 0.55124 0.0
O564 O 0.46165 0.52259 0.58541 0.0
O565 O 0.49897 0.43031 0.53988 0.0
O566 O 0.51344 0.45305 0.49402 0.0
O567 O 0.47194 0.55095 0.52314 0.0
O568 O 0.48805 0.51058 0.49442 0.0
O569 O 0.55054 0.5607 0.52898 0.0
O570 O 0.55902 0.50936 0.53217 0.0
O571 O 0.51591 0.60651 0.55805 0.0
O572 O 0.50439 0.5855 0.60521 0.0
C573 C 0.44243 0.49538 0.5746 0.0
O574 O 0.51898 0.47957 0.58661 0.0
O575 O 0.5425 0.53317 0.59617 0.0
C576 C 0.54216 0.41413 0.51099 0.0
C577 C 0.60445 0.39653 0.50274 0.0
C578 C 0.60205 0.42235 0.52312 0.0
C579 C 0.57109 0.43087 0.52746 0.0
C580 C 0.54413 0.38751 0.49156 0.0
C581 C 0.57513 0.37854 0.48768 0.0
C582 C 0.51152 0.42718 0.51151 0.0
C583 C 0.4729 0.53505 0.49612 0.0
C584 C 0.56925 0.53968 0.52346 0.0
C585 C 0.47786 0.62769 0.59061 0.0
C586 C 0.41889 0.652 0.59764 0.0
C587 C 0.43238 0.64916 0.56697 0.0
C588 C 0.46151 0.63697 0.56344 0.0
C589 C 0.46517 0.63194 0.62131 0.0
C590 C 0.4359 0.64381 0.62479 0.0
C591 C 0.50613 0.61106 0.58723 0.0
H592 H 0.62434 0.43647 0.535 0.0
H593 H 0.57002 0.45138 0.54272 0.0
H594 H 0.5221 0.37448 0.47854 0.0
H595 H 0.57657 0.35865 0.47168 0.0
H596 H 0.41974 0.65526 0.54565 0.0
H597 H 0.47057 0.63399 0.53939 0.0
H598 H 0.47734 0.62515 0.64263 0.0
H599 H 0.42633 0.64628 0.64876 0.0
Dy600 Dy 0.01164 0.55541 1.03632 0.0
Dy601 Dy 1.00042 0.49037 0.08142 0.0
C602 C 0.97788 0.55397 0.10743 0.0
O603 O 0.0573 0.56567 0.06845 0.0
O604 O 0.05514 0.514 0.08709 0.0
O605 O 0.0149 0.607 1.03133 0.0
O606 O 0.01531 0.57716 0.98916 0.0
O607 O 0.01411 0.47662 1.03179 0.0
O608 O 0.0437 0.52522 1.01252 0.0
O609 O 0.94843 0.49299 0.06566 0.0
O610 O 0.96485 0.52047 1.01907 0.0
O611 O 0.98392 0.43814 0.08412 0.0
O612 O 1.0069 0.4654 0.12549 0.0
C613 C 0.07043 0.54471 0.0846 0.0
O614 O 0.97903 0.56448 0.07755 0.0
O615 O 0.98805 0.52753 0.1151 0.0
C616 C 0.98278 0.61667 0.98688 0.0
C617 C 0.92653 0.6385 0.96335 0.0
C618 C 0.92402 0.60545 0.96976 0.0
C619 C 0.95178 0.59469 0.98152 0.0
C620 C 0.9854 0.64975 0.98087 0.0
C621 C 0.95743 0.66063 0.96923 0.0
C622 C 0.01157 0.60503 1.00017 0.0
C623 C 0.03539 0.49339 1.01101 0.0
C624 C 0.94143 0.50198 1.03669 0.0
C625 C 0.02647 0.41957 0.11139 0.0
C626 C 0.08485 0.39454 0.11594 0.0
C627 C 0.08285 0.41815 0.09291 0.0
C628 C 0.05384 0.43041 0.09052 0.0
C629 C 0.02777 0.39501 0.13363 0.0
C630 C 0.05685 0.38234 0.13574 0.0
C631 C 0.99899 0.43701 0.11169 0.0
H632 H 0.90044 0.58789 0.96593 0.0
H633 H 0.94895 0.56912 0.98648 0.0
H634 H 0.00901 0.66711 0.9852 0.0
H635 H 0.96013 0.68622 0.96432 0.0
H636 H 0.10423 0.42791 0.07753 0.0
H637 H 0.05338 0.44946 0.07328 0.0
H638 H 1.007 0.38658 0.15007 0.0
H639 H 0.05817 0.36431 0.15388 0.0
H640 H 0.30231 0.23314 0.41571 0.0
H641 H 0.21736 0.2631 0.37225 0.0
H642 H 0.17902 0.22891 0.40906 0.0
H643 H 0.16832 0.18458 0.44775 0.0
H644 H 0.25205 0.15163 0.48958 0.0
H645 H 0.29187 0.19225 0.45876 0.0
C646 C 0.27546 0.2324 0.41443 0.0
C647 C 0.26298 0.2507 0.39096 0.0
C648 C 0.2531 0.21159 0.43498 0.0
C649 C 0.22806 0.24984 0.39024 0.0
C650 C 0.20587 0.22987 0.41107 0.0
C651 C 0.1953 0.18681 0.45081 0.0
C652 C 0.20716 0.16489 0.47067 0.0
C653 C 0.21796 0.20985 0.43275 0.0
C654 C 0.24224 0.16787 0.474 0.0
C655 C 0.26502 0.19115 0.45646 0.0
H656 H 0.26317 0.79718 0.90489 0.0
H657 H 0.22472 0.87166 0.85585 0.0
H658 H 0.25924 0.91283 0.88943 0.0
H659 H 0.30497 0.92887 0.92791 0.0
H660 H 0.34718 0.85618 0.97516 0.0
H661 H 0.30754 0.81337 0.94614 0.0
C662 C 0.26222 0.82238 0.90159 0.0
C663 C 0.24107 0.83096 0.87775 0.0
C664 C 0.28341 0.84646 0.92016 0.0
C665 C 0.23992 0.86385 0.87435 0.0
C666 C 0.26014 0.88769 0.89327 0.0
C667 C 0.30508 0.90364 0.93244 0.0
C668 C 0.32895 0.89572 0.95366 0.0
C669 C 0.28256 0.87937 0.9156 0.0
C670 C 0.32924 0.86291 0.95867 0.0
C671 C 0.30649 0.83845 0.94221 0.0
H672 H 0.60831 0.48392 0.73774 0.0
H673 H 0.5785 0.38337 0.70889 0.0
H674 H 0.5532 0.39911 0.66002 0.0
H675 H 0.53991 0.44123 0.62463 0.0
H676 H 0.57165 0.54194 0.652 0.0
H677 H 0.59634 0.52626 0.70157 0.0
C678 C 0.59665 0.46533 0.72071 0.0
C679 C 0.59539 0.43229 0.72761 0.0
C680 C 0.58253 0.47461 0.69203 0.0
C681 C 0.57946 0.40887 0.70505 0.0
C682 C 0.56516 0.41789 0.67674 0.0
C683 C 0.5522 0.45986 0.64137 0.0
C684 C 0.55371 0.49284 0.63434 0.0
C685 C 0.56654 0.45066 0.66992 0.0
C686 C 0.57003 0.51642 0.6565 0.0
C687 C 0.58414 0.50743 0.685 0.0
H688 H 0.93276 0.65531 0.20166 0.0
H689 H 0.92377 0.57537 0.26766 0.0
H690 H 0.94172 0.54242 0.22559 0.0
H691 H 0.96054 0.53619 0.16989 0.0
H692 H 0.9673 0.61551 0.10326 0.0
H693 H 0.94973 0.64842 0.14539 0.0
C694 C 0.93489 0.63073 0.20685 0.0
C695 C 0.92698 0.61796 0.23793 0.0
C696 C 0.94477 0.61161 0.18228 0.0
C697 C 0.92946 0.58584 0.244 0.0
C698 C 0.93983 0.56695 0.21992 0.0
C699 C 0.95808 0.56063 0.1645 0.0
C700 C 0.96537 0.57316 0.13321 0.0
C701 C 0.94757 0.57953 0.18892 0.0
C702 C 0.9618 0.60495 0.1269 0.0
C703 C 0.95183 0.62395 0.1511 0.0
H704 H 0.3911 0.14908 0.15305 0.0
H705 H 0.48343 0.19827 0.19949 0.0
H706 H 0.51436 0.16219 0.17254 0.0
H707 H 0.51482 0.11633 0.13571 0.0
H708 H 0.42131 0.06643 0.09121 0.0
H709 H 0.39128 0.10311 0.11736 0.0
C710 C 0.41806 0.15204 0.15702 0.0
C711 C 0.43507 0.17636 0.17795 0.0
C712 C 0.43544 0.131 0.14188 0.0
C713 C 0.46985 0.17961 0.18346 0.0
C714 C 0.4875 0.15905 0.16804 0.0
C715 C 0.48789 0.11353 0.13176 0.0
C716 C 0.4704 0.08864 0.11154 0.0
C717 C 0.47053 0.13458 0.14721 0.0
C718 C 0.43544 0.08522 0.1068 0.0
C719 C 0.41818 0.10626 0.12166 0.0
H720 H 0.10382 0.90014 0.68069 0.0
H721 H 0.03865 0.82295 0.628 0.0
H722 H 0.01396 0.86276 0.59898 0.0
H723 H 0.01115 0.91984 0.58908 0.0
H724 H 0.07967 0.99661 0.63959 0.0
H725 H 0.10278 0.95667 0.66935 0.0
C726 C 0.08415 0.89213 0.66285 0.0
C727 C 0.07268 0.85887 0.65655 0.0
C728 C 0.07066 0.91504 0.64613 0.0
C729 C 0.04769 0.84855 0.63311 0.0
C730 C 0.03357 0.87125 0.6167 0.0
C731 C 0.03092 0.92768 0.60684 0.0
C732 C 0.04349 0.96099 0.61254 0.0
C733 C 0.04477 0.90458 0.62315 0.0
C734 C 0.06961 0.97105 0.63498 0.0
C735 C 0.08282 0.94827 0.65193 0.0
H736 H 0.79134 0.43471 0.99817 0.0
H737 H 0.82865 0.46666 0.9038 0.0
H738 H 0.88272 0.49426 0.92735 0.0
H739 H 0.92104 0.50562 0.97424 0.0
H740 H 0.88437 0.47022 0.06785 0.0
H741 H 0.8288 0.4471 1.0449 0.0
C742 C 0.8113 0.44747 0.98258 0.0
C743 C 0.80579 0.44809 0.94906 0.0
C744 C 0.84271 0.46241 0.99615 0.0
C745 C 0.83183 0.4658 0.92962 0.0
C746 C 0.86297 0.48137 0.94307 0.0
C747 C 0.90085 0.49305 0.98971 0.0
C748 C 0.9071 0.48954 1.0228 0.0
C749 C 0.86894 0.4793 0.97623 0.0
C750 C 0.88051 0.47313 1.04233 0.0
C751 C 0.84864 0.45991 1.02922 0.0
H752 H 0.70943 0.56073 0.44985 0.0
H753 H 0.68935 0.65588 0.43699 0.0
H754 H 0.63672 0.63965 0.46695 0.0
H755 H 0.59641 0.5988 0.49724 0.0
H756 H 0.61565 0.50326 0.51011 0.0
H757 H 0.66826 0.51924 0.47987 0.0
C758 C 0.69335 0.57776 0.45337 0.0
C759 C 0.70352 0.60955 0.44134 0.0
C760 C 0.66297 0.56828 0.47085 0.0
C761 C 0.68244 0.63141 0.44636 0.0
C762 C 0.65225 0.62213 0.46344 0.0
C763 C 0.61214 0.58147 0.49361 0.0
C764 C 0.60199 0.54992 0.50615 0.0
C765 C 0.64235 0.59073 0.47601 0.0
C766 C 0.62275 0.52778 0.5009 0.0
C767 C 0.65289 0.53687 0.4835 0.0
H768 H 0.23096 0.38052 0.15351 0.0
H769 H 0.19084 0.28223 0.12238 0.0
H770 H 0.13751 0.2963 0.10704 0.0
H771 H 0.10066 0.3359 0.10698 0.0
H772 H 0.14197 0.43427 0.13728 0.0
H773 H 0.19639 0.42093 0.14885 0.0
C774 C 0.21068 0.36238 0.14286 0.0
C775 C 0.2146 0.33045 0.13911 0.0
C776 C 0.18017 0.37056 0.13453 0.0
C777 C 0.18837 0.30707 0.12517 0.0
C778 C 0.1578 0.31502 0.11676 0.0
C779 C 0.12174 0.35426 0.11601 0.0
C780 C 0.11754 0.38584 0.12168 0.0
C781 C 0.15312 0.3465 0.12212 0.0
C782 C 0.14488 0.40976 0.13295 0.0
C783 C 0.1759 0.40217 0.1395 0.0
H784 H 0.62211 0.20224 0.94371 0.0
H785 H 0.52042 0.21143 0.9226 0.0
H786 H 0.49779 0.16195 0.95281 0.0
H787 H 0.5066 0.1169 0.987 0.0
H788 H 0.60837 0.10935 1.01004 0.0
H789 H 0.63095 0.15757 0.97797 0.0
C790 C 0.59496 0.19374 0.94589 0.0
C791 C 0.57316 0.21098 0.93072 0.0
C792 C 0.582 0.16549 0.96393 0.0
C793 C 0.53802 0.19874 0.93343 0.0
C794 C 0.52497 0.17047 0.95103 0.0
C795 C 0.53375 0.12569 0.98499 0.0
C796 C 0.55566 0.10925 1.00107 0.0
C797 C 0.54669 0.15374 0.96659 0.0
C798 C 0.59077 0.12129 0.99808 0.0
C799 C 0.60377 0.14896 0.97967 0.0
H800 H 0.97505 0.8424 0.44174 0.0
H801 H 0.88012 0.86571 0.4169 0.0
H802 H 0.8976 0.9185 0.44321 0.0
H803 H 0.93754 0.95598 0.47788 0.0
H804 H 0.03296 0.9334 0.50265 0.0
H805 H 0.01779 0.88284 0.47203 0.0
C806 C 0.95871 0.8595 0.44131 0.0
C807 C 0.9264 0.85023 0.42725 0.0
C808 C 0.96876 0.8898 0.4571 0.0
C809 C 0.90519 0.8724 0.4274 0.0
C810 C 0.91506 0.90249 0.4427 0.0
C811 C 0.95513 0.94013 0.47639 0.0
C812 C 0.98623 0.94849 0.49284 0.0
C813 C 0.94637 0.9111 0.45845 0.0
C814 C 0.00883 0.92771 0.49028 0.0
C815 C 1.00016 0.89867 0.47276 0.0
H816 H 0.29543 0.7195 0.60982 0.0
H817 H 0.26187 0.63956 0.67485 0.0
H818 H 0.31052 0.61724 0.66058 0.0
H819 H 0.36521 0.62332 0.6337 0.0
H820 H 0.4002 0.7039 0.56974 0.0
H821 H 0.3483 0.72303 0.57918 0.0
C822 C 0.29842 0.69678 0.62016 0.0
C823 C 0.27527 0.68115 0.64333 0.0
C824 C 0.32693 0.68453 0.61243 0.0
C825 C 0.27952 0.65196 0.65699 0.0
C826 C 0.30737 0.63932 0.64899 0.0
C827 C 0.36141 0.64507 0.62183 0.0
C828 C 0.38662 0.66249 0.60148 0.0
C829 C 0.33173 0.65593 0.62751 0.0
C830 C 0.38113 0.69016 0.5856 0.0
C831 C 0.35153 0.70113 0.59105 0.0
H832 H 0.73227 0.80228 0.67598 0.0
H833 H 0.67848 0.87619 0.70169 0.0
H834 H 0.71307 0.91371 0.66493 0.0
H835 H 0.76549 0.92935 0.63449 0.0
H836 H 0.82517 0.85877 0.61569 0.0
H837 H 0.78177 0.81655 0.64066 0.0
C838 C 0.72795 0.82654 0.67357 0.0
C839 C 0.70316 0.83631 0.69255 0.0
C840 C 0.74958 0.84901 0.65395 0.0
C841 C 0.69708 0.86749 0.68765 0.0
C842 C 0.7173 0.88937 0.66685 0.0
C843 C 0.76887 0.90465 0.6356 0.0
C844 C 0.79888 0.8974 0.62399 0.0
C845 C 0.74472 0.88094 0.65135 0.0
C846 C 0.80239 0.86508 0.62458 0.0
C847 C 0.77769 0.84096 0.63911 0.0
H848 H 0.80994 0.23511 0.1892 0.0
H849 H 0.7299 0.27444 0.23068 0.0
H850 H 0.68858 0.23853 0.19767 0.0
H851 H 0.67358 0.18957 0.16479 0.0
H852 H 0.75215 0.1464 0.12677 0.0
H853 H 0.79528 0.18948 0.15128 0.0
C854 C 0.78352 0.23604 0.19092 0.0
C855 C 0.77336 0.25737 0.21294 0.0
C856 C 0.75932 0.214 0.17299 0.0
C857 C 0.73896 0.25875 0.21389 0.0
C858 C 0.715 0.23777 0.19528 0.0
C859 C 0.70016 0.19007 0.1611 0.0
C860 C 0.70966 0.16466 0.14434 0.0
C861 C 0.7247 0.2144 0.17586 0.0
C862 C 0.74421 0.16545 0.14006 0.0
C863 C 0.76886 0.19009 0.15401 0.0
H864 H 0.41299 0.56157 0.35961 0.0
H865 H 0.41743 0.65495 0.40343 0.0
H866 H 0.43888 0.63631 0.45321 0.0
H867 H 0.45698 0.59367 0.48457 0.0
H868 H 0.45493 0.50096 0.44023 0.0
H869 H 0.43182 0.51898 0.3909 0.0
C870 C 0.41848 0.5778 0.3801 0.0
C871 C 0.41355 0.60974 0.37753 0.0
C872 C 0.43124 0.56698 0.40878 0.0
C873 C 0.42127 0.63043 0.40438 0.0
C874 C 0.43341 0.61971 0.43302 0.0
C875 C 0.45127 0.57727 0.46422 0.0
C876 C 0.45759 0.54581 0.4664 0.0
C877 C 0.43856 0.58805 0.43555 0.0
C878 C 0.45039 0.52522 0.43945 0.0
C879 C 0.43714 0.53555 0.41112 0.0
H880 H 0.0761 0.39538 0.91035 0.0
H881 H 0.10626 0.48357 0.85543 0.0
H882 H 0.08998 0.51466 0.89972 0.0
H883 H 0.0658 0.51716 0.95404 0.0
H884 H 0.03405 0.42865 1.00815 0.0
H885 H 0.05198 0.39782 0.96449 0.0
C886 C 0.0789 0.42136 0.90788 0.0
C887 C 0.09271 0.43687 0.87932 0.0
C888 C 0.06912 0.4393 0.93352 0.0
C889 C 0.09638 0.47076 0.8771 0.0
C890 C 0.08683 0.48868 0.90246 0.0
C891 C 0.06302 0.49117 0.9564 0.0
C892 C 0.04846 0.47543 0.98456 0.0
C893 C 0.07314 0.47328 0.93085 0.0
C894 C 0.04495 0.4416 0.98686 0.0
C895 C 0.05523 0.42382 0.96181 0.0
H896 H 0.62563 0.88016 0.9789 0.0
H897 H 0.53805 0.85112 0.9178 0.0
H898 H 0.51341 0.89386 0.94099 0.0
H899 H 0.51724 0.94004 0.9785 0.0
H900 H 0.60514 0.96777 1.03967 0.0
H901 H 0.62902 0.92496 1.01662 0.0
C902 C 0.60086 0.88275 0.97104 0.0
C903 C 0.58363 0.86235 0.94682 0.0
C904 C 0.58702 0.90739 0.98429 0.0
C905 C 0.5519 0.86661 0.93636 0.0
C906 C 0.53782 0.89104 0.94959 0.0
C907 C 0.54173 0.93683 0.98656 0.0
C908 C 0.55939 0.95716 1.0107 0.0
C909 C 0.5553 0.91179 0.9734 0.0
C910 C 0.59092 0.95244 1.02118 0.0
C911 C 0.60464 0.92792 1.00805 0.0
H912 H 0.906 0.16674 0.45589 0.0
H913 H 0.99317 0.19021 0.39402 0.0
H914 H 0.01894 0.15115 0.4228 0.0
H915 H 0.01672 0.11078 0.46679 0.0
H916 H 0.9286 0.08962 0.52816 0.0
H917 H 0.90364 0.1276 0.49862 0.0
C918 C 0.93088 0.16373 0.44893 0.0
C919 C 0.94782 0.18169 0.42317 0.0
C920 C 0.94547 0.14158 0.46558 0.0
C921 C 0.97958 0.17665 0.41382 0.0
C922 C 0.99435 0.15441 0.43034 0.0
C923 C 0.99207 0.11449 0.47358 0.0
C924 C 0.97481 0.09741 0.49987 0.0
C925 C 0.97755 0.13675 0.45641 0.0
C926 C 0.9428 0.10253 0.50832 0.0
C927 C 0.9283 0.12426 0.49138 0.0
H928 H 0.19141 0.58643 0.18346 0.0
H929 H 0.23564 0.64284 0.10152 0.0
H930 H 0.18555 0.62097 0.06967 0.0
H931 H 0.12737 0.58802 0.06535 0.0
H932 H 0.08533 0.52667 0.14453 0.0
H933 H 0.13609 0.54777 0.17669 0.0
C934 C 0.19042 0.59354 0.15851 0.0
C935 C 0.21709 0.61732 0.14555 0.0
C936 C 0.16162 0.58006 0.13966 0.0
C937 C 0.21512 0.62574 0.11287 0.0
C938 C 0.18647 0.61303 0.09436 0.0
C939 C 0.12948 0.5792 0.08958 0.0
C940 C 0.1025 0.55614 0.10265 0.0
C941 C 0.1592 0.59074 0.10766 0.0
C942 C 0.10578 0.54448 0.13391 0.0
C943 C 0.1348 0.55659 0.15237 0.0
H944 H 0.31104 0.41699 0.64344 0.0
H945 H 0.30718 0.51311 0.67634 0.0
H946 H 0.35875 0.53576 0.64657 0.0
H947 H 0.40528 0.5284 0.61115 0.0
H948 H 0.40596 0.43279 0.57503 0.0
H949 H 0.35455 0.41018 0.60516 0.0
C950 C 0.32081 0.44301 0.64373 0.0
C951 C 0.3048 0.4631 0.66246 0.0
C952 C 0.34995 0.45611 0.62569 0.0
C953 C 0.31897 0.49671 0.66287 0.0
C954 C 0.34842 0.50983 0.64552 0.0
C955 C 0.39408 0.50263 0.60973 0.0
C956 C 0.40963 0.48233 0.59088 0.0
C957 C 0.3642 0.48975 0.62692 0.0
C958 C 0.39455 0.44905 0.58915 0.0
C959 C 0.3652 0.43604 0.60655 0.0
H960 H 0.80049 0.66654 0.88912 0.0
H961 H 0.81657 0.74754 0.95488 0.0
H962 H 0.86326 0.72873 0.98023 0.0
H963 H 0.90148 0.6906 0.98164 0.0
H964 H 0.88549 0.61064 0.91453 0.0
H965 H 0.83708 0.62792 0.89153 0.0
C966 C 0.81423 0.6801 0.909 0.0
C967 C 0.80529 0.70854 0.9199 0.0
C968 C 0.84127 0.66948 0.92302 0.0
C969 C 0.82283 0.72545 0.94615 0.0
C970 C 0.84971 0.71487 0.96045 0.0
C971 C 0.88744 0.67711 0.96189 0.0
C972 C 0.89711 0.64943 0.94976 0.0
C973 C 0.85953 0.6872 0.94871 0.0
C974 C 0.8784 0.63186 0.92448 0.0
C975 C 0.85077 0.64177 0.91124 0.0
H976 H 0.43401 0.82824 0.14356 0.0
H977 H 0.47026 0.87091 0.2349 0.0
H978 H 0.49285 0.92289 0.20832 0.0
H979 H 0.50019 0.95709 0.1589 0.0
H980 H 0.46047 0.91327 0.06884 0.0
H981 H 0.4408 0.86147 0.09535 0.0
C982 C 0.44644 0.84892 0.15792 0.0
C983 C 0.44992 0.84547 0.1914 0.0
C984 C 0.45861 0.87886 0.14264 0.0
C985 C 0.46725 0.87255 0.20912 0.0
C986 C 0.47998 0.90245 0.19392 0.0
C987 C 0.48727 0.9362 0.1451 0.0
C988 C 0.48177 0.93943 0.11182 0.0
C989 C 0.47551 0.90604 0.16067 0.0
C990 C 0.46493 0.91191 0.09444 0.0
C991 C 0.45368 0.88206 0.10958 0.0
H992 H 0.03972 0.21153 0.67795 0.0
H993 H 0.14542 0.21096 0.66817 0.0
H994 H 0.13098 0.15847 0.64141 0.0
H995 H 0.08887 0.11513 0.61577 0.0
H996 H 0.98288 0.11227 0.62781 0.0
H997 H 0.99665 0.16322 0.65858 0.0
C998 C 0.05946 0.19949 0.67067 0.0
C999 C 0.09366 0.21555 0.67458 0.0
C1000 C 0.05094 0.16882 0.65518 0.0
C1001 C 0.11893 0.19946 0.665 0.0
C1002 C 0.11073 0.16942 0.64957 0.0
C1003 C 0.06879 0.1255 0.62545 0.0
C1004 C 0.03495 0.11019 0.61924 0.0
C1005 C 0.07691 0.15434 0.64362 0.0
C1006 C 0.00917 0.12363 0.63229 0.0
C1007 C 0.01706 0.15284 0.64981 0.0
H1008 H 0.74923 0.39151 0.45192 0.0
H1009 H 0.71979 0.29387 0.48808 0.0
H1010 H 0.66661 0.3047 0.50807 0.0
H1011 H 0.62649 0.34092 0.51122 0.0
H1012 H 0.65721 0.43908 0.47663 0.0
H1013 H 0.71182 0.4292 0.45993 0.0
C1014 C 0.73133 0.37284 0.46466 0.0
C1015 C 0.73821 0.34198 0.46853 0.0
C1016 C 0.70091 0.37924 0.47594 0.0
C1017 C 0.71505 0.31792 0.48514 0.0
C1018 C 0.68455 0.324 0.49626 0.0
C1019 C 0.64534 0.36007 0.50021 0.0
C1020 C 0.63799 0.39053 0.49484 0.0
C1021 C 0.67687 0.35435 0.49114 0.0
C1022 C 0.66253 0.41544 0.48092 0.0
C1023 C 0.69365 0.4098 0.47136 0.0
loop_
_geom_bond_atom_site_label_1
_geom_bond_atom_site_label_2
_geom_bond_distance
_geom_bond_site_symmetry_2
_ccdc_geom_bond_type
C0 C1 1.391 . S
C0 C4 1.391 . S
C0 H42 0.948 . S
C1 C0 1.391 . S
C1 C2 1.391 . S
C2 C1 1.391 . S
C2 H58 0.947 . S
C2 C59 1.392 . S
C3 C4 1.391 . S
C3 C7 1.397 . S
C3 C59 1.419 . S
C4 C0 1.391 . S
C4 C3 1.391 . S
C4 C5 1.399 . S
C5 C4 1.399 . S
C5 C8 1.396 . S
C5 C17 1.453 . S
C5 C18 1.684 . S
H6 C30 0.948 . S
C7 C3 1.397 . S
C7 C8 1.394 . S
C7 C26 1.723 . S
C8 C5 1.396 . S
C8 C7 1.394 . S
C8 C38 1.723 . S
H9 C32 0.947 . S
H10 C33 0.948 . S
H11 C39 0.982 . S
H12 C40 0.979 . S
H13 C40 0.980 . S
H14 C40 0.983 . S
H15 C39 0.979 . S
H16 C39 0.977 . S
C17 C5 1.453 . S
C17 H46 0.982 . S
C17 H47 0.979 . S
C17 H48 0.977 . S
C18 C5 1.684 . S
C18 H43 0.979 . S
C18 H44 0.980 . S
C18 H45 0.983 . S
C19 C20 1.391 . S
C19 C24 1.391 . S
C19 H49 0.948 . S
C20 C19 1.391 . S
C20 C21 1.391 . S
C21 C20 1.391 . S
C21 C22 1.392 . S
C21 H50 0.947 . S
C22 C21 1.392 . S
C22 C23 1.419 . S
C22 H51 0.948 . S
C23 C22 1.419 . S
C23 C24 1.391 . S
C23 C27 1.397 . S
C24 C19 1.391 . S
C24 C23 1.391 . S
C24 C25 1.399 . S
C25 C24 1.399 . S
C25 C26 1.396 . S
C25 C28 1.453 . S
C25 C29 1.684 . S
C26 C7 1.723 . S
C26 C25 1.396 . S
C26 C27 1.394 . S
C27 C23 1.397 . S
C27 C26 1.394 . S
C27 C37 1.723 . S
C28 C25 1.453 . S
C28 H52 0.982 . S
C28 H53 0.979 . S
C28 H54 0.977 . S
C29 C25 1.684 . S
C29 H55 0.979 . S
C29 H56 0.980 . S
C29 H57 0.983 . S
C30 H6 0.948 . S
C30 C31 1.391 . S
C30 C35 1.391 . S
C31 C30 1.391 . S
C31 C32 1.391 . S
C32 H9 0.947 . S
C32 C31 1.391 . S
C32 C33 1.392 . S
C33 H10 0.948 . S
C33 C32 1.392 . S
C33 C34 1.419 . S
C34 C33 1.419 . S
C34 C35 1.391 . S
C34 C38 1.397 . S
C35 C30 1.391 . S
C35 C34 1.391 . S
C35 C36 1.399 . S
C36 C35 1.399 . S
C36 C37 1.396 . S
C36 C39 1.453 . S
C36 C40 1.684 . S
C37 C27 1.723 . S
C37 C36 1.396 . S
C37 C38 1.394 . S
C38 C8 1.723 . S
C38 C34 1.397 . S
C38 C37 1.394 . S
C39 H11 0.982 . S
C39 H15 0.979 . S
C39 H16 0.977 . S
C39 C36 1.453 . S
C40 H12 0.979 . S
C40 H13 0.980 . S
C40 H14 0.983 . S
C40 C36 1.684 . S
H41 C59 0.948 . S
H42 C0 0.948 . S
H43 C18 0.979 . S
H44 C18 0.980 . S
H45 C18 0.983 . S
H46 C17 0.982 . S
H47 C17 0.979 . S
H48 C17 0.977 . S
H49 C19 0.948 . S
H50 C21 0.947 . S
H51 C22 0.948 . S
H52 C28 0.982 . S
H53 C28 0.979 . S
H54 C28 0.977 . S
H55 C29 0.979 . S
H56 C29 0.980 . S
H57 C29 0.983 . S
H58 C2 0.947 . S
C59 C2 1.392 . S
C59 C3 1.419 . S
C59 H41 0.948 . S
C60 C61 1.391 . S
C60 C64 1.391 . S
C60 H102 0.948 . S
C61 C60 1.391 . S
C61 C62 1.391 . S
C62 C61 1.391 . S
C62 H118 0.947 . S
C62 C119 1.392 . S
C63 C64 1.391 . S
C63 C67 1.397 . S
C63 C119 1.419 . S
C64 C60 1.391 . S
C64 C63 1.391 . S
C64 C65 1.399 . S
C65 C64 1.399 . S
C65 C68 1.396 . S
C65 C77 1.453 . S
C65 C78 1.684 . S
H66 C90 0.948 . S
C67 C63 1.397 . S
C67 C68 1.394 . S
C67 C86 1.723 . S
C68 C65 1.396 . S
C68 C67 1.394 . S
C68 C98 1.723 . S
H69 C92 0.947 . S
H70 C93 0.948 . S
H71 C99 0.982 . S
H72 C100 0.979 . S
H73 C100 0.980 . S
H74 C100 0.983 . S
H75 C99 0.979 . S
H76 C99 0.977 . S
C77 C65 1.453 . S
C77 H106 0.982 . S
C77 H107 0.979 . S
C77 H108 0.977 . S
C78 C65 1.684 . S
C78 H103 0.979 . S
C78 H104 0.980 . S
C78 H105 0.983 . S
C79 C80 1.391 . S
C79 C84 1.391 . S
C79 H109 0.948 . S
C80 C79 1.391 . S
C80 C81 1.391 . S
C81 C80 1.391 . S
C81 C82 1.392 . S
C81 H110 0.947 . S
C82 C81 1.392 . S
C82 C83 1.419 . S
C82 H111 0.948 . S
C83 C82 1.419 . S
C83 C84 1.391 . S
C83 C87 1.397 . S
C84 C79 1.391 . S
C84 C83 1.391 . S
C84 C85 1.399 . S
C85 C84 1.399 . S
C85 C86 1.396 . S
C85 C88 1.453 . S
C85 C89 1.684 . S
C86 C67 1.723 . S
C86 C85 1.396 . S
C86 C87 1.394 . S
C87 C83 1.397 . S
C87 C86 1.394 . S
C87 C97 1.723 . S
C88 C85 1.453 . S
C88 H112 0.982 . S
C88 H113 0.979 . S
C88 H114 0.977 . S
C89 C85 1.684 . S
C89 H115 0.979 . S
C89 H116 0.980 . S
C89 H117 0.983 . S
C90 H66 0.948 . S
C90 C91 1.391 . S
C90 C95 1.391 . S
C91 C90 1.391 . S
C91 C92 1.391 . S
C92 H69 0.947 . S
C92 C91 1.391 . S
C92 C93 1.392 . S
C93 H70 0.948 . S
C93 C92 1.392 . S
C93 C94 1.419 . S
C94 C93 1.419 . S
C94 C95 1.391 . S
C94 C98 1.397 . S
C95 C90 1.391 . S
C95 C94 1.391 . S
C95 C96 1.399 . S
C96 C95 1.399 . S
C96 C97 1.396 . S
C96 C99 1.453 . S
C96 C100 1.684 . S
C97 C87 1.723 . S
C97 C96 1.396 . S
C97 C98 1.394 . S
C98 C68 1.723 . S
C98 C94 1.397 . S
C98 C97 1.394 . S
C99 H71 0.982 . S
C99 H75 0.979 . S
C99 H76 0.977 . S
C99 C96 1.453 . S
C100 H72 0.979 . S
C100 H73 0.980 . S
C100 H74 0.983 . S
C100 C96 1.684 . S
H101 C119 0.948 . S
H102 C60 0.948 . S
H103 C78 0.979 . S
H104 C78 0.980 . S
H105 C78 0.983 . S
H106 C77 0.982 . S
H107 C77 0.979 . S
H108 C77 0.977 . S
H109 C79 0.948 . S
H110 C81 0.947 . S
H111 C82 0.948 . S
H112 C88 0.982 . S
H113 C88 0.979 . S
H114 C88 0.977 . S
H115 C89 0.979 . S
H116 C89 0.980 . S
H117 C89 0.983 . S
H118 C62 0.947 . S
C119 C62 1.392 . S
C119 C63 1.419 . S
C119 H101 0.948 . S
C120 C121 1.391 . S
C120 C124 1.391 . S
C120 H162 0.948 . S
C121 C120 1.391 . S
C121 C122 1.391 . S
C122 C121 1.391 . S
C122 H178 0.947 . S
C122 C179 1.392 . S
C123 C124 1.391 . S
C123 C127 1.397 . S
C123 C179 1.419 . S
C124 C120 1.391 . S
C124 C123 1.391 . S
C124 C125 1.399 . S
C125 C124 1.399 . S
C125 C128 1.396 . S
C125 C137 1.453 . S
C125 C138 1.684 . S
H126 C150 0.948 . S
C127 C123 1.397 . S
C127 C128 1.394 . S
C127 C146 1.723 . S
C128 C125 1.396 . S
C128 C127 1.394 . S
C128 C158 1.723 . S
H129 C152 0.947 . S
H130 C153 0.948 . S
H131 C159 0.982 . S
H132 C160 0.979 . S
H133 C160 0.980 . S
H134 C160 0.983 . S
H135 C159 0.979 . S
H136 C159 0.977 . S
C137 C125 1.453 . S
C137 H166 0.982 . S
C137 H167 0.979 . S
C137 H168 0.977 . S
C138 C125 1.684 . S
C138 H163 0.979 . S
C138 H164 0.980 . S
C138 H165 0.983 . S
C139 C140 1.391 . S
C139 C144 1.391 . S
C139 H169 0.948 . S
C140 C139 1.391 . S
C140 C141 1.391 . S
C141 C140 1.391 . S
C141 C142 1.392 . S
C141 H170 0.947 . S
C142 C141 1.392 . S
C142 C143 1.419 . S
C142 H171 0.948 . S
C143 C142 1.419 . S
C143 C144 1.391 . S
C143 C147 1.397 . S
C144 C139 1.391 . S
C144 C143 1.391 . S
C144 C145 1.399 . S
C145 C144 1.399 . S
C145 C146 1.396 . S
C145 C148 1.453 . S
C145 C149 1.684 . S
C146 C127 1.723 . S
C146 C145 1.396 . S
C146 C147 1.394 . S
C147 C143 1.397 . S
C147 C146 1.394 . S
C147 C157 1.723 . S
C148 C145 1.453 . S
C148 H172 0.982 . S
C148 H173 0.979 . S
C148 H174 0.977 . S
C149 C145 1.684 . S
C149 H175 0.979 . S
C149 H176 0.980 . S
C149 H177 0.983 . S
C150 H126 0.948 . S
C150 C151 1.391 . S
C150 C155 1.391 . S
C151 C150 1.391 . S
C151 C152 1.391 . S
C152 H129 0.947 . S
C152 C151 1.391 . S
C152 C153 1.392 . S
C153 H130 0.948 . S
C153 C152 1.392 . S
C153 C154 1.419 . S
C154 C153 1.419 . S
C154 C155 1.391 . S
C154 C158 1.397 . S
C155 C150 1.391 . S
C155 C154 1.391 . S
C155 C156 1.399 . S
C156 C155 1.399 . S
C156 C157 1.396 . S
C156 C159 1.453 . S
C156 C160 1.684 . S
C157 C147 1.723 . S
C157 C156 1.396 . S
C157 C158 1.394 . S
C158 C128 1.723 . S
C158 C154 1.397 . S
C158 C157 1.394 . S
C159 H131 0.982 . S
C159 H135 0.979 . S
C159 H136 0.977 . S
C159 C156 1.453 . S
C160 H132 0.979 . S
C160 H133 0.980 . S
C160 H134 0.983 . S
C160 C156 1.684 . S
H161 C179 0.948 . S
H162 C120 0.948 . S
H163 C138 0.979 . S
H164 C138 0.980 . S
H165 C138 0.983 . S
H166 C137 0.982 . S
H167 C137 0.979 . S
H168 C137 0.977 . S
H169 C139 0.948 . S
H170 C141 0.947 . S
H171 C142 0.948 . S
H172 C148 0.982 . S
H173 C148 0.979 . S
H174 C148 0.977 . S
H175 C149 0.979 . S
H176 C149 0.980 . S
H177 C149 0.983 . S
H178 C122 0.947 . S
C179 C122 1.392 . S
C179 C123 1.419 . S
C179 H161 0.948 . S
C180 C181 1.391 . S
C180 C184 1.391 . S
C180 H222 0.948 . S
C181 C180 1.391 . S
C181 C182 1.391 . S
C182 C181 1.391 . S
C182 H238 0.947 . S
C182 C239 1.392 . S
C183 C184 1.391 . S
C183 C187 1.397 . S
C183 C239 1.419 . S
C184 C180 1.391 . S
C184 C183 1.391 . S
C184 C185 1.399 . S
C185 C184 1.399 . S
C185 C188 1.396 . S
C185 C197 1.453 . S
C185 C198 1.684 . S
H186 C210 0.948 . S
C187 C183 1.397 . S
C187 C188 1.394 . S
C187 C206 1.723 . S
C188 C185 1.396 . S
C188 C187 1.394 . S
C188 C218 1.723 . S
H189 C212 0.947 . S
H190 C213 0.948 . S
H191 C219 0.982 . S
H192 C220 0.979 . S
H193 C220 0.980 . S
H194 C220 0.983 . S
H195 C219 0.979 . S
H196 C219 0.977 . S
C197 C185 1.453 . S
C197 H226 0.982 . S
C197 H227 0.979 . S
C197 H228 0.977 . S
C198 C185 1.684 . S
C198 H223 0.979 . S
C198 H224 0.980 . S
C198 H225 0.983 . S
C199 C200 1.391 . S
C199 C204 1.391 . S
C199 H229 0.948 . S
C200 C199 1.391 . S
C200 C201 1.391 . S
C201 C200 1.391 . S
C201 C202 1.392 . S
C201 H230 0.947 . S
C202 C201 1.392 . S
C202 C203 1.419 . S
C202 H231 0.948 . S
C203 C202 1.419 . S
C203 C204 1.391 . S
C203 C207 1.397 . S
C204 C199 1.391 . S
C204 C203 1.391 . S
C204 C205 1.399 . S
C205 C204 1.399 . S
C205 C206 1.396 . S
C205 C208 1.453 . S
C205 C209 1.684 . S
C206 C187 1.723 . S
C206 C205 1.396 . S
C206 C207 1.394 . S
C207 C203 1.397 . S
C207 C206 1.394 . S
C207 C217 1.723 . S
C208 C205 1.453 . S
C208 H232 0.982 . S
C208 H233 0.979 . S
C208 H234 0.977 . S
C209 C205 1.684 . S
C209 H235 0.979 . S
C209 H236 0.980 . S
C209 H237 0.983 . S
C210 H186 0.948 . S
C210 C211 1.391 . S
C210 C215 1.391 . S
C211 C210 1.391 . S
C211 C212 1.391 . S
C212 H189 0.947 . S
C212 C211 1.391 . S
C212 C213 1.392 . S
C213 H190 0.948 . S
C213 C212 1.392 . S
C213 C214 1.419 . S
C214 C213 1.419 . S
C214 C215 1.391 . S
C214 C218 1.397 . S
C215 C210 1.391 . S
C215 C214 1.391 . S
C215 C216 1.399 . S
C216 C215 1.399 . S
C216 C217 1.396 . S
C216 C219 1.453 . S
C216 C220 1.684 . S
C217 C207 1.723 . S
C217 C216 1.396 . S
C217 C218 1.394 . S
C218 C188 1.723 . S
C218 C214 1.397 . S
C218 C217 1.394 . S
C219 H191 0.982 . S
C219 H195 0.979 . S
C219 H196 0.977 . S
C219 C216 1.453 . S
C220 H192 0.979 . S
C220 H193 0.980 . S
C220 H194 0.983 . S
C220 C216 1.684 . S
H221 C239 0.948 . S
H222 C180 0.948 . S
H223 C198 0.979 . S
H224 C198 0.980 . S
H225 C198 0.983 . S
H226 C197 0.982 . S
H227 C197 0.979 . S
H228 C197 0.977 . S
H229 C199 0.948 . S
H230 C201 0.947 . S
H231 C202 0.948 . S
H232 C208 0.982 . S
H233 C208 0.979 . S
H234 C208 0.977 . S
H235 C209 0.979 . S
H236 C209 0.980 . S
H237 C209 0.983 . S
H238 C182 0.947 . S
C239 C182 1.392 . S
C239 C183 1.419 . S
C239 H221 0.948 . S
C240 C241 1.391 . S
C240 C244 1.391 . S
C240 H282 0.948 . S
C241 C240 1.391 . S
C241 C242 1.391 . S
C242 C241 1.391 . S
C242 H298 0.947 . S
C242 C299 1.392 . S
C243 C244 1.391 . S
C243 C247 1.397 . S
C243 C299 1.419 . S
C244 C240 1.391 . S
C244 C243 1.391 . S
C244 C245 1.399 . S
C245 C244 1.399 . S
C245 C248 1.396 . S
C245 C257 1.453 . S
C245 C258 1.684 . S
H246 C270 0.948 . S
C247 C243 1.397 . S
C247 C248 1.394 . S
C247 C266 1.723 . S
C248 C245 1.396 . S
C248 C247 1.394 . S
C248 C278 1.723 . S
H249 C272 0.947 . S
H250 C273 0.948 . S
H251 C279 0.982 . S
H252 C280 0.979 . S
H253 C280 0.980 . S
H254 C280 0.983 . S
H255 C279 0.979 . S
H256 C279 0.977 . S
C257 C245 1.453 . S
C257 H286 0.982 . S
C257 H287 0.979 . S
C257 H288 0.977 . S
C258 C245 1.684 . S
C258 H283 0.979 . S
C258 H284 0.980 . S
C258 H285 0.983 . S
C259 C260 1.391 . S
C259 C264 1.391 . S
C259 H289 0.948 . S
C260 C259 1.391 . S
C260 C261 1.391 . S
C261 C260 1.391 . S
C261 C262 1.392 . S
C261 H290 0.947 . S
C262 C261 1.392 . S
C262 C263 1.419 . S
C262 H291 0.948 . S
C263 C262 1.419 . S
C263 C264 1.391 . S
C263 C267 1.397 . S
C264 C259 1.391 . S
C264 C263 1.391 . S
C264 C265 1.399 . S
C265 C264 1.399 . S
C265 C266 1.396 . S
C265 C268 1.453 . S
C265 C269 1.684 . S
C266 C247 1.723 . S
C266 C265 1.396 . S
C266 C267 1.394 . S
C267 C263 1.397 . S
C267 C266 1.394 . S
C267 C277 1.723 . S
C268 C265 1.453 . S
C268 H292 0.982 . S
C268 H293 0.979 . S
C268 H294 0.977 . S
C269 C265 1.684 . S
C269 H295 0.979 . S
C269 H296 0.980 . S
C269 H297 0.983 . S
C270 H246 0.948 . S
C270 C271 1.391 . S
C270 C275 1.391 . S
C271 C270 1.391 . S
C271 C272 1.391 . S
C272 H249 0.947 . S
C272 C271 1.391 . S
C272 C273 1.392 . S
C273 H250 0.948 . S
C273 C272 1.392 . S
C273 C274 1.419 . S
C274 C273 1.419 . S
C274 C275 1.391 . S
C274 C278 1.397 . S
C275 C270 1.391 . S
C275 C274 1.391 . S
C275 C276 1.399 . S
C276 C275 1.399 . S
C276 C277 1.396 . S
C276 C279 1.453 . S
C276 C280 1.684 . S
C277 C267 1.723 . S
C277 C276 1.396 . S
C277 C278 1.394 . S
C278 C248 1.723 . S
C278 C274 1.397 . S
C278 C277 1.394 . S
C279 H251 0.982 . S
C279 H255 0.979 . S
C279 H256 0.977 . S
C279 C276 1.453 . S
C280 H252 0.979 . S
C280 H253 0.980 . S
C280 H254 0.983 . S
C280 C276 1.684 . S
H281 C299 0.948 . S
H282 C240 0.948 . S
H283 C258 0.979 . S
H284 C258 0.980 . S
H285 C258 0.983 . S
H286 C257 0.982 . S
H287 C257 0.979 . S
H288 C257 0.977 . S
H289 C259 0.948 . S
H290 C261 0.947 . S
H291 C262 0.948 . S
H292 C268 0.982 . S
H293 C268 0.979 . S
H294 C268 0.977 . S
H295 C269 0.979 . S
H296 C269 0.980 . S
H297 C269 0.983 . S
H298 C242 0.947 . S
C299 C242 1.392 . S
C299 C243 1.419 . S
C299 H281 0.948 . S
C300 C301 1.391 . S
C300 C304 1.391 . S
C300 H342 0.948 . S
C301 C300 1.391 . S
C301 C302 1.391 . S
C302 C301 1.391 . S
C302 H358 0.947 . S
C302 C359 1.392 . S
C303 C304 1.391 . S
C303 C307 1.397 . S
C303 C359 1.419 . S
C304 C300 1.391 . S
C304 C303 1.391 . S
C304 C305 1.399 . S
C305 C304 1.399 . S
C305 C308 1.396 . S
C305 C317 1.453 . S
C305 C318 1.684 . S
H306 C330 0.948 . S
C307 C303 1.397 . S
C307 C308 1.394 . S
C307 C326 1.723 . S
C308 C305 1.396 . S
C308 C307 1.394 . S
C308 C338 1.723 . S
H309 C332 0.947 . S
H310 C333 0.948 . S
H311 C339 0.982 . S
H312 C340 0.979 . S
H313 C340 0.980 . S
H314 C340 0.983 . S
H315 C339 0.979 . S
H316 C339 0.977 . S
C317 C305 1.453 . S
C317 H346 0.982 . S
C317 H347 0.979 . S
C317 H348 0.977 . S
C318 C305 1.684 . S
C318 H343 0.979 . S
C318 H344 0.980 . S
C318 H345 0.983 . S
C319 C320 1.391 . S
C319 C324 1.391 . S
C319 H349 0.948 . S
C320 C319 1.391 . S
C320 C321 1.391 . S
C321 C320 1.391 . S
C321 C322 1.392 . S
C321 H350 0.947 . S
C322 C321 1.392 . S
C322 C323 1.419 . S
C322 H351 0.948 . S
C323 C322 1.419 . S
C323 C324 1.391 . S
C323 C327 1.397 . S
C324 C319 1.391 . S
C324 C323 1.391 . S
C324 C325 1.399 . S
C325 C324 1.399 . S
C325 C326 1.396 . S
C325 C328 1.453 . S
C325 C329 1.684 . S
C326 C307 1.723 . S
C326 C325 1.396 . S
C326 C327 1.394 . S
C327 C323 1.397 . S
C327 C326 1.394 . S
C327 C337 1.723 . S
C328 C325 1.453 . S
C328 H352 0.982 . S
C328 H353 0.979 . S
C328 H354 0.977 . S
C329 C325 1.684 . S
C329 H355 0.979 . S
C329 H356 0.980 . S
C329 H357 0.983 . S
C330 H306 0.948 . S
C330 C331 1.391 . S
C330 C335 1.391 . S
C331 C330 1.391 . S
C331 C332 1.391 . S
C332 H309 0.947 . S
C332 C331 1.391 . S
C332 C333 1.392 . S
C333 H310 0.948 . S
C333 C332 1.392 . S
C333 C334 1.419 . S
C334 C333 1.419 . S
C334 C335 1.391 . S
C334 C338 1.397 . S
C335 C330 1.391 . S
C335 C334 1.391 . S
C335 C336 1.399 . S
C336 C335 1.399 . S
C336 C337 1.396 . S
C336 C339 1.453 . S
C336 C340 1.684 . S
C337 C327 1.723 . S
C337 C336 1.396 . S
C337 C338 1.394 . S
C338 C308 1.723 . S
C338 C334 1.397 . S
C338 C337 1.394 . S
C339 H311 0.982 . S
C339 H315 0.979 . S
C339 H316 0.977 . S
C339 C336 1.453 . S
C340 H312 0.979 . S
C340 H313 0.980 . S
C340 H314 0.983 . S
C340 C336 1.684 . S
H341 C359 0.948 . S
H342 C300 0.948 . S
H343 C318 0.979 . S
H344 C318 0.980 . S
H345 C318 0.983 . S
H346 C317 0.982 . S
H347 C317 0.979 . S
H348 C317 0.977 . S
H349 C319 0.948 . S
H350 C321 0.947 . S
H351 C322 0.948 . S
H352 C328 0.982 . S
H353 C328 0.979 . S
H354 C328 0.977 . S
H355 C329 0.979 . S
H356 C329 0.980 . S
H357 C329 0.983 . S
H358 C302 0.947 . S
C359 C302 1.392 . S
C359 C303 1.419 . S
C359 H341 0.948 . S
C360 C361 1.391 . S
C360 C364 1.391 . S
C360 H402 0.948 . S
C361 C360 1.391 . S
C361 C362 1.391 . S
C362 C361 1.391 . S
C362 H418 0.947 . S
C362 C419 1.392 . S
C363 C364 1.391 . S
C363 C367 1.397 . S
C363 C419 1.419 . S
C364 C360 1.391 . S
C364 C363 1.391 . S
C364 C365 1.399 . S
C365 C364 1.399 . S
C365 C368 1.396 . S
C365 C377 1.453 . S
C365 C378 1.684 . S
H366 C390 0.948 . S
C367 C363 1.397 . S
C367 C368 1.394 . S
C367 C386 1.723 . S
C368 C365 1.396 . S
C368 C367 1.394 . S
C368 C398 1.723 . S
H369 C392 0.947 . S
H370 C393 0.948 . S
H371 C399 0.982 . S
H372 C400 0.979 . S
H373 C400 0.980 . S
H374 C400 0.983 . S
H375 C399 0.979 . S
H376 C399 0.977 . S
C377 C365 1.453 . S
C377 H406 0.982 . S
C377 H407 0.979 . S
C377 H408 0.977 . S
C378 C365 1.684 . S
C378 H403 0.979 . S
C378 H404 0.980 . S
C378 H405 0.983 . S
C379 C380 1.391 . S
C379 C384 1.391 . S
C379 H409 0.948 . S
C380 C379 1.391 . S
C380 C381 1.391 . S
C381 C380 1.391 . S
C381 C382 1.392 . S
C381 H410 0.947 . S
C382 C381 1.392 . S
C382 C383 1.419 . S
C382 H411 0.948 . S
C383 C382 1.419 . S
C383 C384 1.391 . S
C383 C387 1.397 . S
C384 C379 1.391 . S
C384 C383 1.391 . S
C384 C385 1.399 . S
C385 C384 1.399 . S
C385 C386 1.396 . S
C385 C388 1.453 . S
C385 C389 1.684 . S
C386 C367 1.723 . S
C386 C385 1.396 . S
C386 C387 1.394 . S
C387 C383 1.397 . S
C387 C386 1.394 . S
C387 C397 1.723 . S
C388 C385 1.453 . S
C388 H412 0.982 . S
C388 H413 0.979 . S
C388 H414 0.977 . S
C389 C385 1.684 . S
C389 H415 0.979 . S
C389 H416 0.980 . S
C389 H417 0.983 . S
C390 H366 0.948 . S
C390 C391 1.391 . S
C390 C395 1.391 . S
C391 C390 1.391 . S
C391 C392 1.391 . S
C392 H369 0.947 . S
C392 C391 1.391 . S
C392 C393 1.392 . S
C393 H370 0.948 . S
C393 C392 1.392 . S
C393 C394 1.419 . S
C394 C393 1.419 . S
C394 C395 1.391 . S
C394 C398 1.397 . S
C395 C390 1.391 . S
C395 C394 1.391 . S
C395 C396 1.399 . S
C396 C395 1.399 . S
C396 C397 1.396 . S
C396 C399 1.453 . S
C396 C400 1.684 . S
C397 C387 1.723 . S
C397 C396 1.396 . S
C397 C398 1.394 . S
C398 C368 1.723 . S
C398 C394 1.397 . S
C398 C397 1.394 . S
C399 H371 0.982 . S
C399 H375 0.979 . S
C399 H376 0.977 . S
C399 C396 1.453 . S
C400 H372 0.979 . S
C400 H373 0.980 . S
C400 H374 0.983 . S
C400 C396 1.684 . S
H401 C419 0.948 . S
H402 C360 0.948 . S
H403 C378 0.979 . S
H404 C378 0.980 . S
H405 C378 0.983 . S
H406 C377 0.982 . S
H407 C377 0.979 . S
H408 C377 0.977 . S
H409 C379 0.948 . S
H410 C381 0.947 . S
H411 C382 0.948 . S
H412 C388 0.982 . S
H413 C388 0.979 . S
H414 C388 0.977 . S
H415 C389 0.979 . S
H416 C389 0.980 . S
H417 C389 0.983 . S
H418 C362 0.947 . S
C419 C362 1.392 . S
C419 C363 1.419 . S
C419 H401 0.948 . S
C420 C421 1.391 . S
C420 C424 1.391 . S
C420 H462 0.948 . S
C421 C420 1.391 . S
C421 C422 1.391 . S
C422 C421 1.391 . S
C422 H478 0.947 . S
C422 C479 1.392 . S
C423 C424 1.391 . S
C423 C427 1.397 . S
C423 C479 1.419 . S
C424 C420 1.391 . S
C424 C423 1.391 . S
C424 C425 1.399 . S
C425 C424 1.399 . S
C425 C428 1.396 . S
C425 C437 1.453 . S
C425 C438 1.684 . S
H426 C450 0.948 . S
C427 C423 1.397 . S
C427 C428 1.394 . S
C427 C446 1.723 . S
C428 C425 1.396 . S
C428 C427 1.394 . S
C428 C458 1.723 . S
H429 C452 0.947 . S
H430 C453 0.948 . S
H431 C459 0.982 . S
H432 C460 0.979 . S
H433 C460 0.980 . S
H434 C460 0.983 . S
H435 C459 0.979 . S
H436 C459 0.977 . S
C437 C425 1.453 . S
C437 H466 0.982 . S
C437 H467 0.979 . S
C437 H468 0.977 . S
C438 C425 1.684 . S
C438 H463 0.979 . S
C438 H464 0.980 . S
C438 H465 0.983 . S
C439 C440 1.391 . S
C439 C444 1.391 . S
C439 H469 0.948 . S
C440 C439 1.391 . S
C440 C441 1.391 . S
C441 C440 1.391 . S
C441 C442 1.392 . S
C441 H470 0.947 . S
C442 C441 1.392 . S
C442 C443 1.419 . S
C442 H471 0.948 . S
C443 C442 1.419 . S
C443 C444 1.391 . S
C443 C447 1.397 . S
C444 C439 1.391 . S
C444 C443 1.391 . S
C444 C445 1.399 . S
C445 C444 1.399 . S
C445 C446 1.396 . S
C445 C448 1.453 . S
C445 C449 1.684 . S
C446 C427 1.723 . S
C446 C445 1.396 . S
C446 C447 1.394 . S
C447 C443 1.397 . S
C447 C446 1.394 . S
C447 C457 1.723 . S
C448 C445 1.453 . S
C448 H472 0.982 . S
C448 H473 0.979 . S
C448 H474 0.977 . S
C449 C445 1.684 . S
C449 H475 0.979 . S
C449 H476 0.980 . S
C449 H477 0.983 . S
C450 H426 0.948 . S
C450 C451 1.391 . S
C450 C455 1.391 . S
C451 C450 1.391 . S
C451 C452 1.391 . S
C452 H429 0.947 . S
C452 C451 1.391 . S
C452 C453 1.392 . S
C453 H430 0.948 . S
C453 C452 1.392 . S
C453 C454 1.419 . S
C454 C453 1.419 . S
C454 C455 1.391 . S
C454 C458 1.397 . S
C455 C450 1.391 . S
C455 C454 1.391 . S
C455 C456 1.399 . S
C456 C455 1.399 . S
C456 C457 1.396 . S
C456 C459 1.453 . S
C456 C460 1.684 . S
C457 C447 1.723 . S
C457 C456 1.396 . S
C457 C458 1.394 . S
C458 C428 1.723 . S
C458 C454 1.397 . S
C458 C457 1.394 . S
C459 H431 0.982 . S
C459 H435 0.979 . S
C459 H436 0.977 . S
C459 C456 1.453 . S
C460 H432 0.979 . S
C460 H433 0.980 . S
C460 H434 0.983 . S
C460 C456 1.684 . S
H461 C479 0.948 . S
H462 C420 0.948 . S
H463 C438 0.979 . S
H464 C438 0.980 . S
H465 C438 0.983 . S
H466 C437 0.982 . S
H467 C437 0.979 . S
H468 C437 0.977 . S
H469 C439 0.948 . S
H470 C441 0.947 . S
H471 C442 0.948 . S
H472 C448 0.982 . S
H473 C448 0.979 . S
H474 C448 0.977 . S
H475 C449 0.979 . S
H476 C449 0.980 . S
H477 C449 0.983 . S
H478 C422 0.947 . S
C479 C422 1.392 . S
C479 C423 1.419 . S
C479 H461 0.948 . S
Dy480 O483 2.307 1_545 S
Dy480 O485 2.395 . S
Dy480 O486 2.379 . S
Dy480 O488 2.339 1_545 S
Dy480 O490 2.298 1_455 S
Dy480 O494 2.275 . S
Dy480 C502 2.738 . S
Dy481 O484 2.298 1_655 S
Dy481 O487 2.275 . S
Dy481 O489 2.307 1_565 S
Dy481 O491 2.395 . S
Dy481 O492 2.379 . S
Dy481 O495 2.339 1_565 S
Dy481 C511 2.738 . S
C482 O494 1.254 . S
C482 O495 1.257 1_455 S
O483 Dy480 2.307 1_565 S
O483 C493 1.266 . S
O484 Dy481 2.298 1_455 S
O484 C493 1.236 . S
O485 Dy480 2.395 . S
O485 C502 1.255 . S
O486 Dy480 2.379 . S
O486 C502 1.249 . S
O487 Dy481 2.275 . S
O487 C503 1.254 . S
O488 Dy480 2.339 1_565 S
O488 C503 1.257 1_455 S
O489 Dy481 2.307 1_545 S
O489 C504 1.266 . S
O490 Dy480 2.298 1_655 S
O490 C504 1.236 . S
O491 Dy481 2.395 . S
O491 C511 1.255 . S
O492 Dy481 2.379 . S
O492 C511 1.249 . S
C493 O483 1.266 . S
C493 O484 1.236 . S
O494 Dy480 2.275 . S
O494 C482 1.254 . S
O495 Dy481 2.339 1_545 S
O495 C482 1.257 1_655 S
C496 C499 1.344 . S
C496 C500 1.328 . S
C496 C502 1.516 . S
C497 C498 1.304 . S
C497 C501 1.323 . S
C498 C497 1.304 . S
C498 C499 1.371 . S
C498 H512 0.930 . S
C499 C496 1.344 . S
C499 C498 1.371 . S
C499 H513 0.931 . S
C500 C496 1.328 . S
C500 C501 1.433 . S
C500 H514 0.931 . S
C501 C497 1.323 . S
C501 C500 1.433 . S
C501 H515 0.933 . S
C502 Dy480 2.738 . S
C502 O485 1.255 . S
C502 O486 1.249 . S
C502 C496 1.516 . S
C503 O487 1.254 . S
C503 O488 1.257 1_655 S
C504 O489 1.266 . S
C504 O490 1.236 . S
C505 C508 1.344 . S
C505 C509 1.328 . S
C505 C511 1.516 . S
C506 C507 1.304 . S
C506 C510 1.323 . S
C507 C506 1.304 . S
C507 C508 1.371 . S
C507 H516 0.930 . S
C508 C505 1.344 . S
C508 C507 1.371 . S
C508 H517 0.931 . S
C509 C505 1.328 . S
C509 C510 1.433 . S
C509 H518 0.931 . S
C510 C506 1.323 . S
C510 C509 1.433 . S
C510 H519 0.933 . S
C511 Dy481 2.738 . S
C511 O491 1.255 . S
C511 O492 1.249 . S
C511 C505 1.516 . S
H512 C498 0.930 . S
H513 C499 0.931 . S
H514 C500 0.931 . S
H515 C501 0.933 . S
H516 C507 0.930 . S
H517 C508 0.931 . S
H518 C509 0.931 . S
H519 C510 0.933 . S
Dy520 O523 2.307 1_566 S
Dy520 O525 2.395 . S
Dy520 O526 2.379 . S
Dy520 O528 2.339 1_565 S
Dy520 O530 2.298 . S
Dy520 O534 2.275 1_556 S
Dy520 C542 2.738 . S
Dy521 O524 2.298 . S
Dy521 O527 2.275 1_554 S
Dy521 O529 2.307 1_544 S
Dy521 O531 2.395 . S
Dy521 O532 2.379 . S
Dy521 O535 2.339 1_545 S
Dy521 C551 2.738 . S
C522 O534 1.254 . S
C522 O535 1.257 . S
O523 Dy520 2.307 1_544 S
O523 C533 1.266 . S
O524 Dy521 2.298 . S
O524 C533 1.236 . S
O525 Dy520 2.395 . S
O525 C542 1.255 . S
O526 Dy520 2.379 . S
O526 C542 1.249 . S
O527 Dy521 2.275 1_556 S
O527 C543 1.254 . S
O528 Dy520 2.339 1_545 S
O528 C543 1.257 . S
O529 Dy521 2.307 1_566 S
O529 C544 1.266 . S
O530 Dy520 2.298 . S
O530 C544 1.236 . S
O531 Dy521 2.395 . S
O531 C551 1.255 . S
O532 Dy521 2.379 . S
O532 C551 1.249 . S
C533 O523 1.266 . S
C533 O524 1.236 . S
O534 Dy520 2.275 1_554 S
O534 C522 1.254 . S
O535 Dy521 2.339 1_565 S
O535 C522 1.257 . S
C536 C539 1.344 . S
C536 C540 1.328 . S
C536 C542 1.516 . S
C537 C538 1.304 . S
C537 C541 1.323 . S
C538 C537 1.304 . S
C538 C539 1.371 . S
C538 H552 0.930 . S
C539 C536 1.344 . S
C539 C538 1.371 . S
C539 H553 0.931 . S
C540 C536 1.328 . S
C540 C541 1.433 . S
C540 H554 0.931 . S
C541 C537 1.323 . S
C541 C540 1.433 . S
C541 H555 0.933 . S
C542 Dy520 2.738 . S
C542 O525 1.255 . S
C542 O526 1.249 . S
C542 C536 1.516 . S
C543 O527 1.254 . S
C543 O528 1.257 . S
C544 O529 1.266 . S
C544 O530 1.236 . S
C545 C548 1.344 . S
C545 C549 1.328 . S
C545 C551 1.516 . S
C546 C547 1.304 . S
C546 C550 1.323 . S
C547 C546 1.304 . S
C547 C548 1.371 . S
C547 H556 0.930 . S
C548 C545 1.344 . S
C548 C547 1.371 . S
C548 H557 0.931 . S
C549 C545 1.328 . S
C549 C550 1.433 . S
C549 H558 0.931 . S
C550 C546 1.323 . S
C550 C549 1.433 . S
C550 H559 0.933 . S
C551 Dy521 2.738 . S
C551 O531 1.255 . S
C551 O532 1.249 . S
C551 C545 1.516 . S
H552 C538 0.930 . S
H553 C539 0.931 . S
H554 C540 0.931 . S
H555 C541 0.933 . S
H556 C547 0.930 . S
H557 C548 0.931 . S
H558 C549 0.931 . S
H559 C550 0.933 . S
Dy560 O563 2.307 . S
Dy560 O565 2.395 . S
Dy560 O566 2.379 . S
Dy560 O568 2.339 . S
Dy560 O570 2.298 . S
Dy560 O574 2.275 . S
Dy560 C582 2.738 . S
Dy561 O564 2.298 . S
Dy561 O567 2.275 . S
Dy561 O569 2.307 . S
Dy561 O571 2.395 . S
Dy561 O572 2.379 . S
Dy561 O575 2.339 . S
Dy561 C591 2.738 . S
C562 O574 1.254 . S
C562 O575 1.257 . S
O563 Dy560 2.307 . S
O563 C573 1.266 . S
O564 Dy561 2.298 . S
O564 C573 1.236 . S
O565 Dy560 2.395 . S
O565 C582 1.255 . S
O566 Dy560 2.379 . S
O566 C582 1.249 . S
O567 Dy561 2.275 . S
O567 C583 1.254 . S
O568 Dy560 2.339 . S
O568 C583 1.257 . S
O569 Dy561 2.307 . S
O569 C584 1.266 . S
O570 Dy560 2.298 . S
O570 C584 1.236 . S
O571 Dy561 2.395 . S
O571 C591 1.255 . S
O572 Dy561 2.379 . S
O572 C591 1.249 . S
C573 O563 1.266 . S
C573 O564 1.236 . S
O574 Dy560 2.275 . S
O574 C562 1.254 . S
O575 Dy561 2.339 . S
O575 C562 1.257 . S
C576 C579 1.344 . S
C576 C580 1.328 . S
C576 C582 1.516 . S
C577 C578 1.304 . S
C577 C581 1.323 . S
C578 C577 1.304 . S
C578 C579 1.371 . S
C578 H592 0.930 . S
C579 C576 1.344 . S
C579 C578 1.371 . S
C579 H593 0.931 . S
C580 C576 1.328 . S
C580 C581 1.433 . S
C580 H594 0.931 . S
C581 C577 1.323 . S
C581 C580 1.433 . S
C581 H595 0.933 . S
C582 Dy560 2.738 . S
C582 O565 1.255 . S
C582 O566 1.249 . S
C582 C576 1.516 . S
C583 O567 1.254 . S
C583 O568 1.257 . S
C584 O569 1.266 . S
C584 O570 1.236 . S
C585 C588 1.344 . S
C585 C589 1.328 . S
C585 C591 1.516 . S
C586 C587 1.304 . S
C586 C590 1.323 . S
C587 C586 1.304 . S
C587 C588 1.371 . S
C587 H596 0.930 . S
C588 C585 1.344 . S
C588 C587 1.371 . S
C588 H597 0.931 . S
C589 C585 1.328 . S
C589 C590 1.433 . S
C589 H598 0.931 . S
C590 C586 1.323 . S
C590 C589 1.433 . S
C590 H599 0.933 . S
C591 Dy561 2.738 . S
C591 O571 1.255 . S
C591 O572 1.249 . S
C591 C585 1.516 . S
H592 C578 0.930 . S
H593 C579 0.931 . S
H594 C580 0.931 . S
H595 C581 0.933 . S
H596 C587 0.930 . S
H597 C588 0.931 . S
H598 C589 0.931 . S
H599 C590 0.933 . S
Dy600 O603 2.306 1_656 S
Dy600 O605 2.395 . S
Dy600 O606 2.379 . S
Dy600 O608 2.339 1_655 S
Dy600 O610 2.298 . S
Dy600 O614 2.275 1_556 S
Dy600 C622 2.738 . S
Dy601 O604 2.298 . S
Dy601 O607 2.275 1_554 S
Dy601 O609 2.310 1_455 S
Dy601 O611 2.395 . S
Dy601 O612 2.379 . S
Dy601 O615 2.339 1_455 S
Dy601 C631 2.738 . S
C602 O614 1.254 . S
C602 O615 1.257 . S
O603 Dy600 2.306 1_454 S
O603 C613 1.268 . S
O604 Dy601 2.298 . S
O604 C613 1.236 . S
O605 Dy600 2.395 . S
O605 C622 1.255 . S
O606 Dy600 2.379 . S
O606 C622 1.249 . S
O607 Dy601 2.275 1_556 S
O607 C623 1.254 . S
O608 Dy600 2.339 1_455 S
O608 C623 1.257 . S
O609 Dy601 2.310 1_655 S
O609 C624 1.262 1_554 S
O610 Dy600 2.298 . S
O610 C624 1.236 . S
O611 Dy601 2.395 . S
O611 C631 1.255 . S
O612 Dy601 2.379 . S
O612 C631 1.249 . S
C613 O603 1.268 . S
C613 O604 1.236 . S
O614 Dy600 2.275 1_554 S
O614 C602 1.254 . S
O615 Dy601 2.339 1_655 S
O615 C602 1.257 . S
C616 C619 1.344 . S
C616 C620 1.328 . S
C616 C622 1.516 . S
C617 C618 1.304 . S
C617 C621 1.323 . S
C618 C617 1.304 . S
C618 C619 1.371 . S
C618 H632 0.930 . S
C619 C616 1.344 . S
C619 C618 1.371 . S
C619 H633 0.931 . S
C620 C616 1.328 . S
C620 C621 1.433 . S
C620 H634 0.931 . S
C621 C617 1.323 . S
C621 C620 1.433 . S
C621 H635 0.933 . S
C622 Dy600 2.738 . S
C622 O605 1.255 . S
C622 O606 1.249 . S
C622 C616 1.516 . S
C623 O607 1.254 . S
C623 O608 1.257 . S
C624 O609 1.262 1_556 S
C624 O610 1.236 . S
C625 C628 1.344 . S
C625 C629 1.328 . S
C625 C631 1.516 . S
C626 C627 1.304 . S
C626 C630 1.323 . S
C627 C626 1.304 . S
C627 C628 1.371 . S
C627 H636 0.930 . S
C628 C625 1.344 . S
C628 C627 1.371 . S
C628 H637 0.931 . S
C629 C625 1.328 . S
C629 C630 1.433 . S
C629 H638 0.931 . S
C630 C626 1.323 . S
C630 C629 1.433 . S
C630 H639 0.933 . S
C631 Dy601 2.738 . S
C631 O611 1.255 . S
C631 O612 1.249 . S
C631 C625 1.516 . S
H632 C618 0.930 . S
H633 C619 0.931 . S
H634 C620 0.931 . S
H635 C621 0.933 . S
H636 C627 0.930 . S
H637 C628 0.931 . S
H638 C629 0.931 . S
H639 C630 0.933 . S
H640 C646 0.930 . S
H641 C649 0.930 . S
H642 C650 0.930 . S
H643 C651 0.930 . S
H644 C654 0.930 . S
H645 C655 0.930 . S
C646 H640 0.930 . S
C646 C647 1.355 . S
C646 C648 1.415 . S
C647 C646 1.355 . S
C647 C649 1.419 . S
C648 C646 1.415 . S
C648 C653 1.425 . S
C648 C655 1.409 . S
C649 H641 0.930 . S
C649 C647 1.419 . S
C649 C650 1.362 . S
C650 H642 0.930 . S
C650 C649 1.362 . S
C650 C653 1.409 . S
C651 H643 0.930 . S
C651 C652 1.355 . S
C651 C653 1.415 . S
C652 C651 1.355 . S
C652 C654 1.419 . S
C653 C648 1.425 . S
C653 C650 1.409 . S
C653 C651 1.415 . S
C654 H644 0.930 . S
C654 C652 1.419 . S
C654 C655 1.362 . S
C655 H645 0.930 . S
C655 C648 1.409 . S
C655 C654 1.362 . S
H656 C662 0.930 . S
H657 C665 0.930 . S
H658 C666 0.930 . S
H659 C667 0.930 . S
H660 C670 0.930 . S
H661 C671 0.930 . S
C662 H656 0.930 . S
C662 C663 1.355 . S
C662 C664 1.415 . S
C663 C662 1.355 . S
C663 C665 1.419 . S
C664 C662 1.415 . S
C664 C669 1.425 . S
C664 C671 1.409 . S
C665 H657 0.930 . S
C665 C663 1.419 . S
C665 C666 1.362 . S
C666 H658 0.930 . S
C666 C665 1.362 . S
C666 C669 1.409 . S
C667 H659 0.930 . S
C667 C668 1.355 . S
C667 C669 1.415 . S
C668 C667 1.355 . S
C668 C670 1.419 . S
C669 C664 1.425 . S
C669 C666 1.409 . S
C669 C667 1.415 . S
C670 H660 0.930 . S
C670 C668 1.419 . S
C670 C671 1.362 . S
C671 H661 0.930 . S
C671 C664 1.409 . S
C671 C670 1.362 . S
H672 C678 0.930 . S
H673 C681 0.930 . S
H674 C682 0.930 . S
H675 C683 0.930 . S
H676 C686 0.930 . S
H677 C687 0.930 . S
C678 H672 0.930 . S
C678 C679 1.355 . S
C678 C680 1.415 . S
C679 C678 1.355 . S
C679 C681 1.419 . S
C680 C678 1.415 . S
C680 C685 1.425 . S
C680 C687 1.409 . S
C681 H673 0.930 . S
C681 C679 1.419 . S
C681 C682 1.362 . S
C682 H674 0.930 . S
C682 C681 1.362 . S
C682 C685 1.409 . S
C683 H675 0.930 . S
C683 C684 1.355 . S
C683 C685 1.415 . S
C684 C683 1.355 . S
C684 C686 1.419 . S
C685 C680 1.425 . S
C685 C682 1.409 . S
C685 C683 1.415 . S
C686 H676 0.930 . S
C686 C684 1.419 . S
C686 C687 1.362 . S
C687 H677 0.930 . S
C687 C680 1.409 . S
C687 C686 1.362 . S
H688 C694 0.930 . S
H689 C697 0.930 . S
H690 C698 0.930 . S
H691 C699 0.930 . S
H692 C702 0.930 . S
H693 C703 0.930 . S
C694 H688 0.930 . S
C694 C695 1.355 . S
C694 C696 1.415 . S
C695 C694 1.355 . S
C695 C697 1.419 . S
C696 C694 1.415 . S
C696 C701 1.425 . S
C696 C703 1.409 . S
C697 H689 0.930 . S
C697 C695 1.419 . S
C697 C698 1.362 . S
C698 H690 0.930 . S
C698 C697 1.362 . S
C698 C701 1.409 . S
C699 H691 0.930 . S
C699 C700 1.355 . S
C699 C701 1.415 . S
C700 C699 1.355 . S
C700 C702 1.419 . S
C701 C696 1.425 . S
C701 C698 1.409 . S
C701 C699 1.415 . S
C702 H692 0.930 . S
C702 C700 1.419 . S
C702 C703 1.362 . S
C703 H693 0.930 . S
C703 C696 1.409 . S
C703 C702 1.362 . S
H704 C710 0.930 . S
H705 C713 0.930 . S
H706 C714 0.930 . S
H707 C715 0.930 . S
H708 C718 0.930 . S
H709 C719 0.930 . S
C710 H704 0.930 . S
C710 C711 1.355 . S
C710 C712 1.415 . S
C711 C710 1.355 . S
C711 C713 1.419 . S
C712 C710 1.415 . S
C712 C717 1.425 . S
C712 C719 1.409 . S
C713 H705 0.930 . S
C713 C711 1.419 . S
C713 C714 1.362 . S
C714 H706 0.930 . S
C714 C713 1.362 . S
C714 C717 1.409 . S
C715 H707 0.930 . S
C715 C716 1.355 . S
C715 C717 1.415 . S
C716 C715 1.355 . S
C716 C718 1.419 . S
C717 C712 1.425 . S
C717 C714 1.409 . S
C717 C715 1.415 . S
C718 H708 0.930 . S
C718 C716 1.419 . S
C718 C719 1.362 . S
C719 H709 0.930 . S
C719 C712 1.409 . S
C719 C718 1.362 . S
H720 C726 0.930 . S
H721 C729 0.930 . S
H722 C730 0.930 . S
H723 C731 0.930 . S
H724 C734 0.930 . S
H725 C735 0.930 . S
C726 H720 0.930 . S
C726 C727 1.355 . S
C726 C728 1.415 . S
C727 C726 1.355 . S
C727 C729 1.419 . S
C728 C726 1.415 . S
C728 C733 1.425 . S
C728 C735 1.409 . S
C729 H721 0.930 . S
C729 C727 1.419 . S
C729 C730 1.362 . S
C730 H722 0.930 . S
C730 C729 1.362 . S
C730 C733 1.409 . S
C731 H723 0.930 . S
C731 C732 1.355 . S
C731 C733 1.415 . S
C732 C731 1.355 . S
C732 C734 1.419 . S
C733 C728 1.425 . S
C733 C730 1.409 . S
C733 C731 1.415 . S
C734 H724 0.930 . S
C734 C732 1.419 . S
C734 C735 1.362 . S
C735 H725 0.930 . S
C735 C728 1.409 . S
C735 C734 1.362 . S
H736 C742 0.930 . S
H737 C745 0.930 . S
H738 C746 0.930 . S
H739 C747 0.930 . S
H740 C750 0.930 . S
H741 C751 0.930 . S
C742 H736 0.930 . S
C742 C743 1.355 . S
C742 C744 1.415 . S
C743 C742 1.355 . S
C743 C745 1.419 . S
C744 C742 1.415 . S
C744 C749 1.425 . S
C744 C751 1.409 . S
C745 H737 0.930 . S
C745 C743 1.419 . S
C745 C746 1.362 . S
C746 H738 0.930 . S
C746 C745 1.362 . S
C746 C749 1.409 . S
C747 H739 0.930 . S
C747 C748 1.355 . S
C747 C749 1.415 . S
C748 C747 1.355 . S
C748 C750 1.419 . S
C749 C744 1.425 . S
C749 C746 1.409 . S
C749 C747 1.415 . S
C750 H740 0.930 . S
C750 C748 1.419 . S
C750 C751 1.362 . S
C751 H741 0.930 . S
C751 C744 1.409 . S
C751 C750 1.362 . S
H752 C758 0.930 . S
H753 C761 0.930 . S
H754 C762 0.930 . S
H755 C763 0.930 . S
H756 C766 0.930 . S
H757 C767 0.930 . S
C758 H752 0.930 . S
C758 C759 1.355 . S
C758 C760 1.415 . S
C759 C758 1.355 . S
C759 C761 1.419 . S
C760 C758 1.415 . S
C760 C765 1.425 . S
C760 C767 1.409 . S
C761 H753 0.930 . S
C761 C759 1.419 . S
C761 C762 1.362 . S
C762 H754 0.930 . S
C762 C761 1.362 . S
C762 C765 1.409 . S
C763 H755 0.930 . S
C763 C764 1.355 . S
C763 C765 1.415 . S
C764 C763 1.355 . S
C764 C766 1.419 . S
C765 C760 1.425 . S
C765 C762 1.409 . S
C765 C763 1.415 . S
C766 H756 0.930 . S
C766 C764 1.419 . S
C766 C767 1.362 . S
C767 H757 0.930 . S
C767 C760 1.409 . S
C767 C766 1.362 . S
H768 C774 0.930 . S
H769 C777 0.930 . S
H770 C778 0.930 . S
H771 C779 0.930 . S
H772 C782 0.930 . S
H773 C783 0.930 . S
C774 H768 0.930 . S
C774 C775 1.355 . S
C774 C776 1.415 . S
C775 C774 1.355 . S
C775 C777 1.419 . S
C776 C774 1.415 . S
C776 C781 1.425 . S
C776 C783 1.409 . S
C777 H769 0.930 . S
C777 C775 1.419 . S
C777 C778 1.362 . S
C778 H770 0.930 . S
C778 C777 1.362 . S
C778 C781 1.409 . S
C779 H771 0.930 . S
C779 C780 1.355 . S
C779 C781 1.415 . S
C780 C779 1.355 . S
C780 C782 1.419 . S
C781 C776 1.425 . S
C781 C778 1.409 . S
C781 C779 1.415 . S
C782 H772 0.930 . S
C782 C780 1.419 . S
C782 C783 1.362 . S
C783 H773 0.930 . S
C783 C776 1.409 . S
C783 C782 1.362 . S
H784 C790 0.930 . S
H785 C793 0.930 . S
H786 C794 0.930 . S
H787 C795 0.930 . S
H788 C798 0.930 . S
H789 C799 0.930 . S
C790 H784 0.930 . S
C790 C791 1.355 . S
C790 C792 1.415 . S
C791 C790 1.355 . S
C791 C793 1.419 . S
C792 C790 1.415 . S
C792 C797 1.425 . S
C792 C799 1.409 . S
C793 H785 0.930 . S
C793 C791 1.419 . S
C793 C794 1.362 . S
C794 H786 0.930 . S
C794 C793 1.362 . S
C794 C797 1.409 . S
C795 H787 0.930 . S
C795 C796 1.355 . S
C795 C797 1.415 . S
C796 C795 1.355 . S
C796 C798 1.419 . S
C797 C792 1.425 . S
C797 C794 1.409 . S
C797 C795 1.415 . S
C798 H788 0.930 . S
C798 C796 1.419 . S
C798 C799 1.362 . S
C799 H789 0.930 . S
C799 C792 1.409 . S
C799 C798 1.362 . S
H800 C806 0.930 . S
H801 C809 0.930 . S
H802 C810 0.930 . S
H803 C811 0.930 . S
H804 C814 0.930 1_455 S
H805 C815 0.930 1_455 S
C806 H800 0.930 . S
C806 C807 1.355 . S
C806 C808 1.415 . S
C807 C806 1.355 . S
C807 C809 1.419 . S
C808 C806 1.415 . S
C808 C813 1.425 . S
C808 C815 1.409 . S
C809 H801 0.930 . S
C809 C807 1.419 . S
C809 C810 1.362 . S
C810 H802 0.930 . S
C810 C809 1.362 . S
C810 C813 1.409 . S
C811 H803 0.930 . S
C811 C812 1.355 . S
C811 C813 1.415 . S
C812 C811 1.355 . S
C812 C814 1.419 . S
C813 C808 1.425 . S
C813 C810 1.409 . S
C813 C811 1.415 . S
C814 H804 0.930 1_655 S
C814 C812 1.419 . S
C814 C815 1.362 . S
C815 H805 0.930 1_655 S
C815 C808 1.409 . S
C815 C814 1.362 . S
H816 C822 0.930 . S
H817 C825 0.930 . S
H818 C826 0.930 . S
H819 C827 0.930 . S
H820 C830 0.930 . S
H821 C831 0.930 . S
C822 H816 0.930 . S
C822 C823 1.355 . S
C822 C824 1.415 . S
C823 C822 1.355 . S
C823 C825 1.419 . S
C824 C822 1.415 . S
C824 C829 1.425 . S
C824 C831 1.409 . S
C825 H817 0.930 . S
C825 C823 1.419 . S
C825 C826 1.362 . S
C826 H818 0.930 . S
C826 C825 1.362 . S
C826 C829 1.409 . S
C827 H819 0.930 . S
C827 C828 1.355 . S
C827 C829 1.415 . S
C828 C827 1.355 . S
C828 C830 1.419 . S
C829 C824 1.425 . S
C829 C826 1.409 . S
C829 C827 1.415 . S
C830 H820 0.930 . S
C830 C828 1.419 . S
C830 C831 1.362 . S
C831 H821 0.930 . S
C831 C824 1.409 . S
C831 C830 1.362 . S
H832 C838 0.930 . S
H833 C841 0.930 . S
H834 C842 0.930 . S
H835 C843 0.930 . S
H836 C846 0.930 . S
H837 C847 0.930 . S
C838 H832 0.930 . S
C838 C839 1.355 . S
C838 C840 1.415 . S
C839 C838 1.355 . S
C839 C841 1.419 . S
C840 C838 1.415 . S
C840 C845 1.425 . S
C840 C847 1.409 . S
C841 H833 0.930 . S
C841 C839 1.419 . S
C841 C842 1.362 . S
C842 H834 0.930 . S
C842 C841 1.362 . S
C842 C845 1.409 . S
C843 H835 0.930 . S
C843 C844 1.355 . S
C843 C845 1.415 . S
C844 C843 1.355 . S
C844 C846 1.419 . S
C845 C840 1.425 . S
C845 C842 1.409 . S
C845 C843 1.415 . S
C846 H836 0.930 . S
C846 C844 1.419 . S
C846 C847 1.362 . S
C847 H837 0.930 . S
C847 C840 1.409 . S
C847 C846 1.362 . S
H848 C854 0.930 . S
H849 C857 0.930 . S
H850 C858 0.930 . S
H851 C859 0.930 . S
H852 C862 0.930 . S
H853 C863 0.930 . S
C854 H848 0.930 . S
C854 C855 1.355 . S
C854 C856 1.415 . S
C855 C854 1.355 . S
C855 C857 1.419 . S
C856 C854 1.415 . S
C856 C861 1.425 . S
C856 C863 1.409 . S
C857 H849 0.930 . S
C857 C855 1.419 . S
C857 C858 1.362 . S
C858 H850 0.930 . S
C858 C857 1.362 . S
C858 C861 1.409 . S
C859 H851 0.930 . S
C859 C860 1.355 . S
C859 C861 1.415 . S
C860 C859 1.355 . S
C860 C862 1.419 . S
C861 C856 1.425 . S
C861 C858 1.409 . S
C861 C859 1.415 . S
C862 H852 0.930 . S
C862 C860 1.419 . S
C862 C863 1.362 . S
C863 H853 0.930 . S
C863 C856 1.409 . S
C863 C862 1.362 . S
H864 C870 0.930 . S
H865 C873 0.930 . S
H866 C874 0.930 . S
H867 C875 0.930 . S
H868 C878 0.930 . S
H869 C879 0.930 . S
C870 H864 0.930 . S
C870 C871 1.355 . S
C870 C872 1.415 . S
C871 C870 1.355 . S
C871 C873 1.419 . S
C872 C870 1.415 . S
C872 C877 1.425 . S
C872 C879 1.409 . S
C873 H865 0.930 . S
C873 C871 1.419 . S
C873 C874 1.362 . S
C874 H866 0.930 . S
C874 C873 1.362 . S
C874 C877 1.409 . S
C875 H867 0.930 . S
C875 C876 1.355 . S
C875 C877 1.415 . S
C876 C875 1.355 . S
C876 C878 1.419 . S
C877 C872 1.425 . S
C877 C874 1.409 . S
C877 C875 1.415 . S
C878 H868 0.930 . S
C878 C876 1.419 . S
C878 C879 1.362 . S
C879 H869 0.930 . S
C879 C872 1.409 . S
C879 C878 1.362 . S
H880 C886 0.930 . S
H881 C889 0.930 . S
H882 C890 0.930 . S
H883 C891 0.930 . S
H884 C894 0.930 1_655 S
H885 C895 0.930 . S
C886 H880 0.930 . S
C886 C887 1.355 . S
C886 C888 1.415 . S
C887 C886 1.355 . S
C887 C889 1.419 . S
C888 C886 1.415 . S
C888 C893 1.425 . S
C888 C895 1.409 . S
C889 H881 0.930 . S
C889 C887 1.419 . S
C889 C890 1.362 . S
C890 H882 0.930 . S
C890 C889 1.362 . S
C890 C893 1.409 . S
C891 H883 0.930 . S
C891 C892 1.355 . S
C891 C893 1.415 . S
C892 C891 1.355 . S
C892 C894 1.419 . S
C893 C888 1.425 . S
C893 C890 1.409 . S
C893 C891 1.415 . S
C894 H884 0.930 1_455 S
C894 C892 1.419 . S
C894 C895 1.362 . S
C895 H885 0.930 . S
C895 C888 1.409 . S
C895 C894 1.362 . S
H896 C902 0.930 . S
H897 C905 0.930 . S
H898 C906 0.930 . S
H899 C907 0.930 . S
H900 C910 0.930 . S
H901 C911 0.930 . S
C902 H896 0.930 . S
C902 C903 1.355 . S
C902 C904 1.415 . S
C903 C902 1.355 . S
C903 C905 1.419 . S
C904 C902 1.415 . S
C904 C909 1.425 . S
C904 C911 1.409 . S
C905 H897 0.930 . S
C905 C903 1.419 . S
C905 C906 1.362 . S
C906 H898 0.930 . S
C906 C905 1.362 . S
C906 C909 1.409 . S
C907 H899 0.930 . S
C907 C908 1.355 . S
C907 C909 1.415 . S
C908 C907 1.355 . S
C908 C910 1.419 . S
C909 C904 1.425 . S
C909 C906 1.409 . S
C909 C907 1.415 . S
C910 H900 0.930 . S
C910 C908 1.419 . S
C910 C911 1.362 . S
C911 H901 0.930 . S
C911 C904 1.409 . S
C911 C910 1.362 . S
H912 C918 0.930 . S
H913 C921 0.930 1_455 S
H914 C922 0.918 1_455 S
H915 C923 0.930 1_455 S
H916 C926 0.930 . S
H917 C927 0.930 . S
C918 H912 0.930 . S
C918 C919 1.355 . S
C918 C920 1.415 . S
C919 C918 1.355 . S
C919 C921 1.419 . S
C920 C918 1.415 . S
C920 C925 1.425 . S
C920 C927 1.409 . S
C921 H913 0.930 1_655 S
C921 C919 1.419 . S
C921 C922 1.368 . S
C922 H914 0.918 1_655 S
C922 C921 1.368 . S
C922 C925 1.415 . S
C923 H915 0.930 1_655 S
C923 C924 1.355 . S
C923 C925 1.415 . S
C924 C923 1.355 . S
C924 C926 1.419 . S
C925 C920 1.425 . S
C925 C922 1.415 . S
C925 C923 1.415 . S
C926 H916 0.930 . S
C926 C924 1.419 . S
C926 C927 1.362 . S
C927 H917 0.930 . S
C927 C920 1.409 . S
C927 C926 1.362 . S
H928 C934 0.930 . S
H929 C937 0.930 . S
H930 C938 0.930 . S
H931 C939 0.930 . S
H932 C942 0.930 . S
H933 C943 0.930 . S
C934 H928 0.930 . S
C934 C935 1.355 . S
C934 C936 1.415 . S
C935 C934 1.355 . S
C935 C937 1.419 . S
C936 C934 1.415 . S
C936 C941 1.425 . S
C936 C943 1.409 . S
C937 H929 0.930 . S
C937 C935 1.419 . S
C937 C938 1.362 . S
C938 H930 0.930 . S
C938 C937 1.362 . S
C938 C941 1.409 . S
C939 H931 0.930 . S
C939 C940 1.355 . S
C939 C941 1.415 . S
C940 C939 1.355 . S
C940 C942 1.419 . S
C941 C936 1.425 . S
C941 C938 1.409 . S
C941 C939 1.415 . S
C942 H932 0.930 . S
C942 C940 1.419 . S
C942 C943 1.362 . S
C943 H933 0.930 . S
C943 C936 1.409 . S
C943 C942 1.362 . S
H944 C950 0.930 . S
H945 C953 0.930 . S
H946 C954 0.930 . S
H947 C955 0.930 . S
H948 C958 0.930 . S
H949 C959 0.930 . S
C950 H944 0.930 . S
C950 C951 1.355 . S
C950 C952 1.415 . S
C951 C950 1.355 . S
C951 C953 1.419 . S
C952 C950 1.415 . S
C952 C957 1.425 . S
C952 C959 1.409 . S
C953 H945 0.930 . S
C953 C951 1.419 . S
C953 C954 1.362 . S
C954 H946 0.930 . S
C954 C953 1.362 . S
C954 C957 1.409 . S
C955 H947 0.930 . S
C955 C956 1.355 . S
C955 C957 1.415 . S
C956 C955 1.355 . S
C956 C958 1.419 . S
C957 C952 1.425 . S
C957 C954 1.409 . S
C957 C955 1.415 . S
C958 H948 0.930 . S
C958 C956 1.419 . S
C958 C959 1.362 . S
C959 H949 0.930 . S
C959 C952 1.409 . S
C959 C958 1.362 . S
H960 C966 0.930 . S
H961 C969 0.930 . S
H962 C970 0.930 . S
H963 C971 0.930 . S
H964 C974 0.930 . S
H965 C975 0.930 . S
C966 H960 0.930 . S
C966 C967 1.355 . S
C966 C968 1.415 . S
C967 C966 1.355 . S
C967 C969 1.419 . S
C968 C966 1.415 . S
C968 C973 1.425 . S
C968 C975 1.409 . S
C969 H961 0.930 . S
C969 C967 1.419 . S
C969 C970 1.362 . S
C970 H962 0.930 . S
C970 C969 1.362 . S
C970 C973 1.409 . S
C971 H963 0.930 . S
C971 C972 1.355 . S
C971 C973 1.415 . S
C972 C971 1.355 . S
C972 C974 1.419 . S
C973 C968 1.425 . S
C973 C970 1.409 . S
C973 C971 1.415 . S
C974 H964 0.930 . S
C974 C972 1.419 . S
C974 C975 1.362 . S
C975 H965 0.930 . S
C975 C968 1.409 . S
C975 C974 1.362 . S
H976 C982 0.930 . S
H977 C985 0.930 . S
H978 C986 0.930 . S
H979 C987 0.930 . S
H980 C990 0.930 . S
H981 C991 0.930 . S
C982 H976 0.930 . S
C982 C983 1.355 . S
C982 C984 1.415 . S
C983 C982 1.355 . S
C983 C985 1.419 . S
C984 C982 1.415 . S
C984 C989 1.425 . S
C984 C991 1.409 . S
C985 H977 0.930 . S
C985 C983 1.419 . S
C985 C986 1.362 . S
C986 H978 0.930 . S
C986 C985 1.362 . S
C986 C989 1.409 . S
C987 H979 0.930 . S
C987 C988 1.355 . S
C987 C989 1.415 . S
C988 C987 1.355 . S
C988 C990 1.419 . S
C989 C984 1.425 . S
C989 C986 1.409 . S
C989 C987 1.415 . S
C990 H980 0.930 . S
C990 C988 1.419 . S
C990 C991 1.362 . S
C991 H981 0.930 . S
C991 C984 1.409 . S
C991 C990 1.362 . S
H992 C998 0.930 . S
H993 C1001 0.930 . S
H994 C1002 0.930 . S
H995 C1003 0.930 . S
H996 C1006 0.930 1_655 S
H997 C1007 0.930 1_655 S
C998 H992 0.930 . S
C998 C999 1.355 . S
C998 C1000 1.415 . S
C999 C998 1.355 . S
C999 C1001 1.419 . S
C1000 C998 1.415 . S
C1000 C1005 1.425 . S
C1000 C1007 1.409 . S
C1001 H993 0.930 . S
C1001 C999 1.419 . S
C1001 C1002 1.362 . S
C1002 H994 0.930 . S
C1002 C1001 1.362 . S
C1002 C1005 1.409 . S
C1003 H995 0.930 . S
C1003 C1004 1.355 . S
C1003 C1005 1.415 . S
C1004 C1003 1.355 . S
C1004 C1006 1.419 . S
C1005 C1000 1.425 . S
C1005 C1002 1.409 . S
C1005 C1003 1.415 . S
C1006 H996 0.930 1_455 S
C1006 C1004 1.419 . S
C1006 C1007 1.362 . S
C1007 H997 0.930 1_455 S
C1007 C1000 1.409 . S
C1007 C1006 1.362 . S
H1008 C1014 0.930 . S
H1009 C1017 0.930 . S
H1010 C1018 0.930 . S
H1011 C1019 0.930 . S
H1012 C1022 0.930 . S
H1013 C1023 0.930 . S
C1014 H1008 0.930 . S
C1014 C1015 1.355 . S
C1014 C1016 1.415 . S
C1015 C1014 1.355 . S
C1015 C1017 1.419 . S
C1016 C1014 1.415 . S
C1016 C1021 1.425 . S
C1016 C1023 1.409 . S
C1017 H1009 0.930 . S
C1017 C1015 1.419 . S
C1017 C1018 1.362 . S
C1018 H1010 0.930 . S
C1018 C1017 1.362 . S
C1018 C1021 1.409 . S
C1019 H1011 0.930 . S
C1019 C1020 1.355 . S
C1019 C1021 1.415 . S
C1020 C1019 1.355 . S
C1020 C1022 1.419 . S
C1021 C1016 1.425 . S
C1021 C1018 1.409 . S
C1021 C1019 1.415 . S
C1022 H1012 0.930 . S
C1022 C1020 1.419 . S
C1022 C1023 1.362 . S
C1023 H1013 0.930 . S
C1023 C1016 1.409 . S
C1023 C1022 1.362 . S
C647 C1 1.072 . S
C652 C497 1.244 . S
C663 C80 1.237 . S
C668 C537 1.260 . S
C684 C562 2.419 . S
C679 C140 2.423 . S
C695 C211 2.444 . S
C700 C602 2.391 . S
C716 C533 1.860 . S
C711 C31 1.657 . S
C732 C493 1.864 . S
C727 C61 1.794 . S
C748 C624 1.695 . S
C743 C151 1.685 . S
C764 C584 1.694 . S
C759 C200 1.759 . S
C775 C20 1.414 . S
C780 C626 1.448 . S
C796 C543 2.185 . S
C791 C121 2.198 . S
C807 C181 2.109 . S
C812 C503 2.143 . S
C823 C91 1.534 . S
C828 C586 1.496 . S
C844 C506 1.251 . S
C839 C260 1.150 . S
C855 C320 1.180 . S
C860 C546 1.266 . S
C871 C361 2.427 . S
C876 C583 2.417 . S
C887 C451 2.445 . S
C892 C623 2.393 . S
C903 C271 1.737 . S
C908 C544 1.861 . S
C924 C504 1.865 . S
C919 C301 1.791 . S
C940 C613 1.691 . S
C935 C380 1.646 . S
C956 C573 1.739 . S
C951 C440 1.749 . S
C967 C241 1.247 . S
C972 C617 1.441 . S
C988 C522 2.181 . S
C983 C391 2.217 . S
C1004 C482 2.151 . S
C999 C421 2.113 . S
C1015 C331 1.479 . S
C1020 C577 1.444 . S
