# Generated by pormake.
# Topology csq, (4,8)-cn, num edge types: 1
# Building blocks:
#     Node 0, Type 0, BuildingBlock: KUFVIS_clean_linker_0, # of connection points: 4
#     Node 1, Type 0, BuildingBlock: KUFVIS_clean_linker_0, # of connection points: 4
#     Node 2, Type 0, BuildingBlock: KUFVIS_clean_linker_0, # of connection points: 4
#     Node 3, Type 0, BuildingBlock: KUFVIS_clean_linker_0, # of connection points: 4
#     Node 4, Type 0, BuildingBlock: KUFVIS_clean_linker_0, # of connection points: 4
#     Node 5, Type 0, BuildingBlock: KUFVIS_clean_linker_0, # of connection points: 4
#     Node 6, Type 1, BuildingBlock: TAGTUT_clean_sbu_3, # of connection points: 8
#     Node 7, Type 1, BuildingBlock: TAGTUT_clean_sbu_3, # of connection points: 8
#     Node 8, Type 1, BuildingBlock: TAGTUT_clean_sbu_3, # of connection points: 8
#     Edge 9, Type (0, 1), BuildingBlock: EZIPEK_clean_linker_0, # of connection points: 2
#     Edge 10, Type (0, 1), BuildingBlock: EZIPEK_clean_linker_0, # of connection points: 2
#     Edge 11, Type (0, 1), BuildingBlock: EZIPEK_clean_linker_0, # of connection points: 2
#     Edge 12, Type (0, 1), BuildingBlock: EZIPEK_clean_linker_0, # of connection points: 2
#     Edge 13, Type (0, 1), BuildingBlock: EZIPEK_clean_linker_0, # of connection points: 2
#     Edge 14, Type (0, 1), BuildingBlock: EZIPEK_clean_linker_0, # of connection points: 2
#     Edge 15, Type (0, 1), BuildingBlock: EZIPEK_clean_linker_0, # of connection points: 2
#     Edge 16, Type (0, 1), BuildingBlock: EZIPEK_clean_linker_0, # of connection points: 2
#     Edge 17, Type (0, 1), BuildingBlock: EZIPEK_clean_linker_0, # of connection points: 2
#     Edge 18, Type (0, 1), BuildingBlock: EZIPEK_clean_linker_0, # of connection points: 2
#     Edge 19, Type (0, 1), BuildingBlock: EZIPEK_clean_linker_0, # of connection points: 2
#     Edge 20, Type (0, 1), BuildingBlock: EZIPEK_clean_linker_0, # of connection points: 2
#     Edge 21, Type (0, 1), BuildingBlock: EZIPEK_clean_linker_0, # of connection points: 2
#     Edge 22, Type (0, 1), BuildingBlock: EZIPEK_clean_linker_0, # of connection points: 2
#     Edge 23, Type (0, 1), BuildingBlock: EZIPEK_clean_linker_0, # of connection points: 2
#     Edge 24, Type (0, 1), BuildingBlock: EZIPEK_clean_linker_0, # of connection points: 2
#     Edge 25, Type (0, 1), BuildingBlock: EZIPEK_clean_linker_0, # of connection points: 2
#     Edge 26, Type (0, 1), BuildingBlock: EZIPEK_clean_linker_0, # of connection points: 2
#     Edge 27, Type (0, 1), BuildingBlock: EZIPEK_clean_linker_0, # of connection points: 2
#     Edge 28, Type (0, 1), BuildingBlock: EZIPEK_clean_linker_0, # of connection points: 2
#     Edge 29, Type (0, 1), BuildingBlock: EZIPEK_clean_linker_0, # of connection points: 2
#     Edge 30, Type (0, 1), BuildingBlock: EZIPEK_clean_linker_0, # of connection points: 2
#     Edge 31, Type (0, 1), BuildingBlock: EZIPEK_clean_linker_0, # of connection points: 2
#     Edge 32, Type (0, 1), BuildingBlock: EZIPEK_clean_linker_0, # of connection points: 2
# Relax obj value: 0.039
# Max RMSD: 0.108
# Mean RMSD: 0.085
data_MOF--net-csq--node1-TAGTUT_clean_sbu_3--node2-KUFVIS_clean_linker_0--edge1-EZIPEK_clean_linker_0
_symmetry_space_group_name_H-M    P1
_symmetry_Int_Tables_number       1
_symmetry_cell_setting            triclinic
loop_
_symmetry_equiv_pos_as_xyz
'x, y, z'
_cell_length_a     40.696355
_cell_length_b     40.33171
_cell_length_c     13.93615
_cell_angle_alpha  92.553263
_cell_angle_beta   93.281862
_cell_angle_gamma 120.00721
loop_
_atom_site_label
_atom_site_type_symbol
_atom_site_fract_x
_atom_site_fract_y
_atom_site_fract_z
_atom_type_partial_charge
H0 H 0.37634 0.50289 0.21902 0.0
H1 H 0.27542 0.49106 0.32915 0.0
H2 H 0.28437 0.48654 0.02023 0.0
H3 H 0.22036 0.44534 0.02416 0.0
H4 H 0.13055 0.46135 0.11801 0.0
H5 H 0.23948 0.51849 0.28294 0.0
C6 C 0.34824 0.49965 0.20595 0.0
C7 C 0.3327 0.49495 0.11186 0.0
C8 C 0.32763 0.49758 0.28344 0.0
C9 C 0.29123 0.49311 0.26762 0.0
C10 C 0.2749 0.48943 0.17243 0.0
C11 C 0.29606 0.49004 0.09416 0.0
C12 C 0.23528 0.48289 0.15565 0.0
C13 C 0.21079 0.45902 0.07517 0.0
C14 C 0.17381 0.45308 0.05865 0.0
C15 C 0.15979 0.46763 0.12846 0.0
C16 C 0.18279 0.49021 0.21117 0.0
C17 C 0.22117 0.49944 0.22157 0.0
H18 H 0.6807 0.14252 0.11726 0.0
H19 H 0.78044 0.24121 0.25133 0.0
H20 H 0.7299 0.24616 0.97294 0.0
H21 H 0.79149 0.28337 0.947 0.0
H22 H 0.89047 0.38321 0.08331 0.0
H23 H 0.80836 0.30427 0.25911 0.0
C24 C 0.70263 0.17238 0.11474 0.0
C25 C 0.70264 0.19171 0.03456 0.0
C26 C 0.7292 0.19095 0.19391 0.0
C27 C 0.75897 0.22863 0.19069 0.0
C28 C 0.76049 0.24934 0.11031 0.0
C29 C 0.73075 0.23086 0.03401 0.0
C30 C 0.79426 0.28871 0.10382 0.0
C31 C 0.80679 0.30112 0.01279 0.0
C32 C 0.84135 0.33504 0.00589 0.0
C33 C 0.86321 0.35752 0.08926 0.0
C34 C 0.85166 0.34631 0.18025 0.0
C35 C 0.81687 0.31234 0.18778 0.0
H36 H 0.55868 0.89516 0.09182 0.0
H37 H 0.56621 0.80241 0.20715 0.0
H38 H 0.54103 0.80051 0.89977 0.0
H39 H 0.56973 0.76536 0.89339 0.0
H40 H 0.54855 0.66014 0.00642 0.0
H41 H 0.52918 0.73862 0.1766 0.0
C42 C 0.55721 0.86765 0.08029 0.0
C43 C 0.55019 0.85017 -0.01341 0.0
C44 C 0.56217 0.84993 0.15936 0.0
C45 C 0.56078 0.8147 0.14495 0.0
C46 C 0.55294 0.79595 0.05159 0.0
C47 C 0.5477 0.8142 0.97237 0.0
C48 C 0.55071 0.7578 0.03789 0.0
C49 C 0.56077 0.74682 0.95183 0.0
C50 C 0.55882 0.71122 0.93987 0.0
C51 C 0.54934 0.68741 0.01572 0.0
C52 C 0.5394 0.69752 0.10185 0.0
C53 C 0.53876 0.73204 0.11135 0.0
H54 H 0.92262 0.57621 0.02982 0.0
H55 H 0.8383 0.58863 0.16723 0.0
H56 H 0.8081 0.51896 0.89494 0.0
H57 H 0.76589 0.54225 0.87775 0.0
H58 H 0.6759 0.53215 0.04126 0.0
H59 H 0.77874 0.55038 0.19099 0.0
C60 C 0.89351 0.57053 0.02771 0.0
C61 C 0.86726 0.54742 0.95098 0.0
C62 C 0.88222 0.58289 0.10705 0.0
C63 C 0.84536 0.57696 0.10562 0.0
C64 C 0.81764 0.55375 0.02955 0.0
C65 C 0.82886 0.53826 0.95249 0.0
C66 C 0.77737 0.54531 0.03328 0.0
C67 C 0.75462 0.5401 0.94719 0.0
C68 C 0.71802 0.53501 0.95105 0.0
C69 C 0.70371 0.53464 0.03938 0.0
C70 C 0.72611 0.54196 0.12509 0.0
C71 C 0.76237 0.5459 0.1229 0.0
H72 H 0.36448 0.89401 0.02972 0.0
H73 H 0.31051 0.81491 0.24269 0.0
H74 H 0.24947 0.80241 0.96603 0.0
H75 H 0.22827 0.73937 0.98222 0.0
H76 H 0.156 0.66844 0.18746 0.0
H77 H 0.24955 0.7807 0.28437 0.0
C78 C 0.34004 0.86838 0.05103 0.0
C79 C 0.30692 0.84911 -0.01201 0.0
C80 C 0.34079 0.85755 0.14465 0.0
C81 C 0.30921 0.8239 0.17123 0.0
C82 C 0.27635 0.80229 0.10566 0.0
C83 C 0.2751 0.81641 0.01529 0.0
C84 C 0.24332 0.76525 0.13006 0.0
C85 C 0.22106 0.73589 0.05613 0.0
C86 C 0.18944 0.70138 0.07649 0.0
C87 C 0.18037 0.6953 0.1717 0.0
C88 C 0.2023 0.72367 0.24669 0.0
C89 C 0.23356 0.75869 0.22593 0.0
H90 H 0.46407 0.34665 0.18869 0.0
H91 H 0.45683 0.25201 0.33187 0.0
H92 H 0.50528 0.27859 0.05717 0.0
H93 H 0.48234 0.2158 0.04287 0.0
H94 H 0.50338 0.13883 0.19913 0.0
H95 H 0.49496 0.22765 0.35618 0.0
C96 C 0.46823 0.3221 0.18941 0.0
C97 C 0.48256 0.31289 0.10988 0.0
C98 C 0.462 0.30229 0.27263 0.0
C99 C 0.46579 0.26964 0.2718 0.0
C100 C 0.4819 0.26052 0.19525 0.0
C101 C 0.49115 0.2833 0.11522 0.0
C102 C 0.48914 0.22756 0.19889 0.0
C103 C 0.48886 0.20817 0.11198 0.0
C104 C 0.49463 0.17691 0.113 0.0
C105 C 0.50023 0.16404 0.19983 0.0
C106 C 0.49941 0.18155 0.28725 0.0
C107 C 0.49468 0.2139 0.28749 0.0
C108 C 0.08278 0.4991 0.47144 0.0
C109 C 0.06393 0.42442 0.78375 0.0
C110 C 0.95411 0.41799 0.76619 0.0
Mg111 Mg 0.04544 0.55219 0.41099 0.0
Mg112 Mg 0.03157 0.60191 0.58241 0.0
O113 O 0.02031 0.55332 0.52845 0.0
Mg114 Mg 0.0321 0.52077 0.60917 0.0
O115 O 0.04433 0.48646 0.68268 0.0
Mg116 Mg 0.016 0.43716 0.59679 0.0
Mg117 Mg 0.0356 0.48285 0.81281 0.0
C118 C 0.97758 0.54546 0.72842 0.0
O119 O 0.07744 0.57151 0.71692 0.0
O120 O 1.01203 0.5793 0.3436 0.0
O121 O 0.06798 0.54392 0.85821 0.0
O122 O 0.09658 0.61243 0.45136 0.0
O123 O 1.00439 0.6134 0.46425 0.0
O124 O 0.09215 0.64228 0.58419 0.0
O125 O 0.98785 0.46702 0.51469 0.0
O126 O 0.99331 0.49136 0.37241 0.0
C127 C 0.97732 0.46321 0.42484 0.0
C128 C 0.99929 0.60071 0.37585 0.0
O129 O 0.9856 0.51919 0.7042 0.0
O130 O 0.04934 0.41543 0.69533 0.0
O131 O 0.9957 0.57962 0.70069 0.0
O132 O 0.96493 0.40987 0.68885 0.0
O133 O 0.06136 0.44889 0.83978 0.0
O134 O 0.97579 0.44794 0.82234 0.0
O135 O 0.07523 0.52505 0.50063 0.0
O136 O 0.0659 0.46561 0.50248 0.0
C137 C 0.11064 0.64119 0.51427 0.0
C138 C 0.08403 0.57339 0.80928 0.0
C139 C 0.51187 0.07009 0.47595 0.0
C140 C 0.63896 0.07223 0.40867 0.0
C141 C 0.57616 0.95263 0.45923 0.0
Mg142 Mg 0.44757 0.01506 0.61535 0.0
Mg143 Mg 0.47316 0.98578 0.80766 0.0
O144 O 0.47266 0.98781 0.67475 0.0
Mg145 Mg 0.52129 0.0111 0.61224 0.0
O146 O 0.56737 0.034 0.54149 0.0
Mg147 Mg 0.54409 0.01362 0.40701 0.0
Mg148 Mg 0.6075 0.02636 0.58522 0.0
C149 C 0.52549 0.95055 0.76283 0.0
O150 O 0.56166 0.05545 0.73932 0.0
O151 O 0.39209 0.97114 0.68167 0.0
O152 O 0.61534 0.05234 0.73023 0.0
O153 O 0.46463 0.05766 0.74687 0.0
O154 O 0.4129 0.95164 0.8088 0.0
O155 O 0.49161 0.04239 0.86827 0.0
O156 O 0.48724 0.9726 0.47306 0.0
O157 O 0.43303 0.97318 0.4853 0.0
C158 C 0.45286 0.96193 0.44126 0.0
C159 C 0.3861 0.95026 0.75297 0.0
O160 O 0.53276 0.96488 0.68039 0.0
O161 O 0.60495 0.05737 0.36694 0.0
O162 O 0.50651 0.95782 0.82227 0.0
O163 O 0.55995 0.96654 0.40716 0.0
O164 O 0.64648 0.06376 0.49118 0.0
O165 O 0.59375 0.96859 0.54172 0.0
O166 O 0.50575 0.05457 0.55593 0.0
O167 O 0.52773 0.06094 0.41133 0.0
C168 C 0.48207 0.06491 0.83074 0.0
C169 C 0.59657 0.06653 0.76845 0.0
C170 C 0.55416 0.59493 0.72658 0.0
C171 C 0.4454 0.48934 0.90172 0.0
C172 C 0.49099 0.41804 0.8297 0.0
Mg173 Mg 0.5889 0.58421 0.53075 0.0
Mg174 Mg 0.53439 0.51354 0.3636 0.0
O175 O 0.5538 0.52798 0.49331 0.0
Mg176 Mg 0.5211 0.51295 0.60304 0.0
O177 O 0.49183 0.50002 0.71677 0.0
Mg178 Mg 0.53186 0.51509 0.82413 0.0
Mg179 Mg 0.44933 0.45028 0.71206 0.0
C180 C 0.48877 0.43386 0.46055 0.0
O181 O 0.46693 0.50752 0.52496 0.0
O182 O 0.62755 0.58117 0.41753 0.0
O183 O 0.42134 0.45344 0.57833 0.0
O184 O 0.55712 0.60147 0.42191 0.0
O185 O 0.58939 0.5295 0.31373 0.0
O186 O 0.5149 0.55276 0.32087 0.0
O187 O 0.57077 0.51738 0.70207 0.0
O188 O 0.61892 0.56662 0.64016 0.0
C189 C 0.60645 0.54071 0.69933 0.0
C190 C 0.62246 0.55718 0.34634 0.0
O191 O 0.49748 0.45011 0.54697 0.0
O192 O 0.48218 0.50905 0.91817 0.0
O193 O 0.49667 0.45256 0.38462 0.0
O194 O 0.51603 0.45338 0.84879 0.0
O195 O 0.42802 0.4653 0.82857 0.0
O196 O 0.46223 0.40801 0.76879 0.0
O197 O 0.54614 0.57722 0.64292 0.0
O198 O 0.54895 0.57703 0.8025 0.0
C199 C 0.52998 0.58779 0.35474 0.0
C200 C 0.43152 0.48384 0.5337 0.0
C201 C 0.14333 0.51978 0.25708 0.0
C202 C 0.16518 0.50271 0.28624 0.0
C203 C 0.14408 0.5012 0.44812 0.0
C204 C 0.11505 0.5081 0.41149 0.0
N205 N 0.08484 0.52028 0.27443 0.0
N206 N 0.18164 0.47216 0.4116 0.0
C207 C 0.11441 0.51715 0.31448 0.0
C208 C 0.16498 0.49271 0.38298 0.0
N209 N 0.14991 0.538 0.17409 0.0
N210 N 0.15148 0.50242 0.54532 0.0
H211 H 0.19486 0.46239 0.36572 0.0
H212 H 0.17873 0.46128 0.47905 0.0
H213 H 0.13668 0.50873 0.59493 0.0
H214 H 0.17515 0.50175 0.57552 0.0
H215 H 0.13669 0.55334 0.15325 0.0
H216 H 0.1716 0.54117 0.13213 0.0
H217 H 0.08129 0.52326 0.20126 0.0
H218 H 0.06197 0.51593 0.31241 0.0
C219 C 0.72536 0.13731 0.27982 0.0
C220 C 0.72158 0.1703 0.28191 0.0
C221 C 0.6714 0.14217 0.39058 0.0
C222 C 0.66965 0.10644 0.37115 0.0
N223 N 0.69673 0.06973 0.30839 0.0
N224 N 0.69533 0.20731 0.34697 0.0
C225 C 0.69774 0.10405 0.32069 0.0
C226 C 0.69681 0.17416 0.34264 0.0
N227 N 0.75452 0.1379 0.2347 0.0
N228 N 0.64862 0.14534 0.45445 0.0
H229 H 0.71508 0.23189 0.31665 0.0
H230 H 0.67418 0.21032 0.37785 0.0
H231 H 0.62804 0.12198 0.48693 0.0
H232 H 0.65177 0.17144 0.48051 0.0
H233 H 0.76054 0.11568 0.23291 0.0
H234 H 0.77457 0.16252 0.20474 0.0
H235 H 0.71449 0.06505 0.26604 0.0
H236 H 0.67686 0.0451 0.33846 0.0
C237 C 0.49763 0.63255 0.16229 0.0
C238 C 0.52895 0.67077 0.18013 0.0
C239 C 0.5423 0.65501 0.33931 0.0
C240 C 0.52019 0.61529 0.30856 0.0
N241 N 0.46556 0.56669 0.20761 0.0
N242 N 0.58235 0.71824 0.28837 0.0
C243 C 0.49409 0.60404 0.22508 0.0
C244 C 0.55127 0.68225 0.27016 0.0
N245 N 0.47093 0.62411 0.08707 0.0
N246 N 0.55319 0.66672 0.43494 0.0
H247 H 0.5911 0.739 0.23889 0.0
H248 H 0.60136 0.72617 0.34986 0.0
H249 H 0.54302 0.64745 0.48816 0.0
H250 H 0.56732 0.69556 0.46131 0.0
H251 H 0.44589 0.59785 0.07422 0.0
H252 H 0.4723 0.6447 0.04209 0.0
H253 H 0.44886 0.55511 0.1424 0.0
H254 H 0.45767 0.54743 0.26091 0.0
C255 C 0.90103 0.56215 0.25394 0.0
C256 C 0.90681 0.59277 0.19757 0.0
C257 C 0.97311 0.63129 0.26621 0.0
C258 C 0.96764 0.59985 0.31829 0.0
N259 N 0.92503 0.5399 0.38305 0.0
N260 N 0.94394 0.65865 0.16338 0.0
C261 C 0.93106 0.56687 0.31941 0.0
C262 C 0.94151 0.62834 0.20908 0.0
N263 N 0.86807 0.52729 0.23869 0.0
N264 N 1.00863 0.66303 0.26893 0.0
H265 H 0.92066 0.65653 0.1219 0.0
H266 H 0.96755 0.68625 0.17196 0.0
H267 H 0.03197 0.66585 0.31159 0.0
H268 H 0.01552 0.68578 0.22644 0.0
H269 H 0.8648 0.50226 0.26578 0.0
H270 H 0.84437 0.52249 0.19441 0.0
H271 H 0.898 0.51826 0.39646 0.0
H272 H 0.94674 0.54067 0.42833 0.0
C273 C 0.38202 0.92329 0.23013 0.0
C274 C 0.37324 0.88447 0.21617 0.0
C275 C 0.4245 0.89821 0.34137 0.0
C276 C 0.43418 0.93734 0.35011 0.0
N277 N 0.43111 0.98885 0.27806 0.0
N278 N 0.39286 0.8378 0.24122 0.0
C279 C 0.4161 0.95037 0.28508 0.0
C280 C 0.39663 0.87272 0.2663 0.0
N281 N 0.3567 0.93397 0.1968 0.0
N282 N 0.4402 0.88487 0.40726 0.0
H283 H 0.3733 0.81885 0.18554 0.0
H284 H 0.41152 0.82932 0.2695 0.0
H285 H 0.46121 0.90279 0.46162 0.0
H286 H 0.43076 0.85575 0.41106 0.0
H287 H 0.36077 0.96135 0.21255 0.0
H288 H 0.32965 0.91447 0.16367 0.0
H289 H 0.42052 0.99996 0.2266 0.0
H290 H 0.45671 0.00916 0.31671 0.0
C291 C 0.42859 0.33124 0.35492 0.0
C292 C 0.45662 0.32024 0.3618 0.0
C293 C 0.49925 0.378 0.46658 0.0
C294 C 0.47405 0.39209 0.4466 0.0
N295 N 0.41111 0.37945 0.39576 0.0
N296 N 0.50841 0.32318 0.46232 0.0
C297 C 0.43711 0.36745 0.3997 0.0
C298 C 0.48832 0.34009 0.43148 0.0
N299 N 0.39535 0.30803 0.29891 0.0
N300 N 0.53489 0.4018 0.51159 0.0
H301 H 0.50046 0.29501 0.44039 0.0
H302 H 0.52994 0.33525 0.5188 0.0
H303 H 0.54417 0.42982 0.53862 0.0
H304 H 0.55624 0.3947 0.51633 0.0
H305 H 0.3744 0.31499 0.28248 0.0
H306 H 0.38918 0.28118 0.26829 0.0
H307 H 0.38308 0.36266 0.36586 0.0
H308 H 0.41729 0.40603 0.42802 0.0
C309 C 0.50847 0.85913 0.86176 0.0
C310 C 0.54543 0.87045 0.90463 0.0
C311 C 0.57204 0.93098 0.82651 0.0
C312 C 0.53476 0.92063 0.78902 0.0
N313 N 0.47016 0.87086 0.74299 0.0
N314 N 0.61338 0.91135 0.90723 0.0
C315 C 0.50391 0.88314 0.79705 0.0
C316 C 0.57762 0.9045 0.87959 0.0
N317 N 0.47747 0.82685 0.8877 0.0
N318 N 0.60163 0.96679 0.81546 0.0
H319 H 0.61805 0.89223 0.94572 0.0
H320 H 0.63816 0.93399 0.88532 0.0
H321 H 0.59838 0.98558 0.77241 0.0
H322 H 0.62878 0.97823 0.85075 0.0
H323 H 0.44947 0.81962 0.86803 0.0
H324 H 0.47963 0.80831 0.93408 0.0
H325 H 0.44737 0.84277 0.73886 0.0
H326 H 0.46649 0.88803 0.69457 0.0
C327 C 0.69573 0.57224 0.86181 0.0
C328 C 0.69597 0.5374 0.86679 0.0
C329 C 0.63862 0.50454 0.75414 0.0
C330 C 0.63509 0.53787 0.76236 0.0
N331 N 0.65672 0.60124 0.83777 0.0
N332 N 0.66698 0.46956 0.82373 0.0
C333 C 0.66285 0.57127 0.81953 0.0
C334 C 0.66735 0.50328 0.81399 0.0
N335 N 0.72661 0.60599 0.90038 0.0
N336 N 0.61564 0.47488 0.68691 0.0
H337 H 0.68882 0.46831 0.86345 0.0
H338 H 0.64429 0.44286 0.79646 0.0
H339 H 0.59479 0.47518 0.64072 0.0
H340 H 0.61944 0.45157 0.67139 0.0
H341 H 0.72936 0.63278 0.89206 0.0
H342 H 0.7511 0.60732 0.93245 0.0
H343 H 0.67439 0.62495 0.88613 0.0
H344 H 0.63165 0.60038 0.81271 0.0
C345 C 0.1337 0.67162 0.95005 0.0
C346 C 0.16531 0.67125 -0.00235 0.0
C347 C 0.14689 0.60973 0.90865 0.0
C348 C 0.11469 0.6096 0.86252 0.0
N349 N 0.08194 0.64368 0.82235 0.0
N350 N 0.20637 0.64443 0.01176 0.0
C351 C 0.10965 0.64174 0.87753 0.0
C352 C 0.17327 0.64164 0.97346 0.0
N353 N 0.12587 0.69978 0.97715 0.0
N354 N 0.1518 0.57887 0.89131 0.0
H355 H 0.22586 0.66703 0.0609 0.0
H356 H 0.21602 0.62595 -0.00931 0.0
H357 H 0.13535 0.55681 0.83755 0.0
H358 H 0.17129 0.57431 0.93156 0.0
H359 H 0.10089 0.69939 0.95419 0.0
H360 H 0.14349 0.72276 0.02768 0.0
H361 H 0.07897 0.66785 0.82251 0.0
H362 H 0.06373 0.62209 0.76975 0.0
C363 C 0.45409 0.12035 -0.00145 0.0
C364 C 0.49004 0.15361 0.02386 0.0
C365 C 0.51913 0.13219 0.90595 0.0
C366 C 0.48462 0.09649 0.89234 0.0
N367 N 0.41973 0.05467 0.92819 0.0
N368 N 0.55687 0.19272 0.00401 0.0
C369 C 0.452 0.09016 0.93826 0.0
C370 C 0.5226 0.16027 0.97725 0.0
N371 N 0.42214 0.11766 0.03319 0.0
N372 N 0.54815 0.13906 0.85032 0.0
H373 H 0.55974 0.21444 0.05338 0.0
H374 H 0.5826 0.19762 0.98035 0.0
H375 H 0.54625 0.11867 0.79806 0.0
H376 H 0.57301 0.16557 0.85106 0.0
H377 H 0.39458 0.0958 0.00996 0.0
H378 H 0.42287 0.13923 0.07903 0.0
H379 H 0.3967 0.04697 0.96899 0.0
H380 H 0.41685 0.03168 0.88384 0.0
C381 C 0.36078 0.45907 0.04033 0.0
C382 C 0.35517 0.49096 0.03684 0.0
C383 C 0.41181 0.52434 0.94833 0.0
C384 C 0.42001 0.4945 0.96409 0.0
N385 N 0.40536 0.43594 0.03512 0.0
N386 N 0.37372 0.55361 -0.01364 0.0
C387 C 0.39529 0.46256 0.01316 0.0
C388 C 0.38008 0.52345 -0.01049 0.0
N389 N 0.33287 0.42557 0.07085 0.0
N390 N 0.434 0.553 0.89268 0.0
H391 H 0.34988 0.55275 0.01294 0.0
H392 H 0.39206 0.57964 0.95957 0.0
H393 H 0.45853 0.55549 0.86617 0.0
H394 H 0.42766 0.57357 0.87007 0.0
H395 H 0.33361 0.40012 0.0682 0.0
H396 H 0.30711 0.42247 0.09013 0.0
H397 H 0.39029 0.41372 0.07841 0.0
H398 H 0.43097 0.43829 0.01727 0.0
C399 C 0.86021 0.37872 0.87308 0.0
C400 C 0.85829 0.3462 0.9132 0.0
C401 C 0.9134 0.35494 0.83251 0.0
C402 C 0.91742 0.38946 0.79918 0.0
N403 N 0.88987 0.42855 0.76271 0.0
N404 N 0.87408 0.2961 0.90683 0.0
C405 C 0.88896 0.39936 0.81081 0.0
C406 C 0.88162 0.33163 0.88341 0.0
N407 N 0.83568 0.39068 0.89891 0.0
N408 N 0.94149 0.34611 0.82298 0.0
H409 H 0.85147 0.27874 0.94617 0.0
H410 H 0.8878 0.28227 0.87956 0.0
H411 H 0.96526 0.36208 0.78573 0.0
H412 H 0.94265 0.32426 0.85725 0.0
H413 H 0.83769 0.41633 0.88073 0.0
H414 H 0.81344 0.3748 0.94113 0.0
H415 H 0.86871 0.43587 0.76267 0.0
H416 H 0.91067 0.44367 0.71621 0.0
C417 C 0.88852 0.54722 0.78449 0.0
C418 C 0.88215 0.53211 0.87567 0.0
C419 C 0.93421 0.51823 0.86357 0.0
C420 C 0.94175 0.53503 0.77447 0.0
N421 N 0.91612 0.55025 0.63359 0.0
N422 N 0.88877 0.49043 0.9833 0.0
C423 C 0.91549 0.54442 0.7294 0.0
C424 C 0.90123 0.51259 0.90756 0.0
N425 N 0.87093 0.56653 0.75304 0.0
N426 N 0.95973 0.51038 0.90974 0.0
H427 H 0.86481 0.48649 0.01643 0.0
H428 H 0.89961 0.47323 0.006 0.0
H429 H 0.98499 0.51585 0.88164 0.0
H430 H 0.95735 0.50145 0.97926 0.0
H431 H 0.87835 0.58238 0.69289 0.0
H432 H 0.8503 0.56842 0.78994 0.0
H433 H 0.89563 0.55397 0.59509 0.0
H434 H 0.9346 0.54699 0.59054 0.0
C435 C 0.31822 0.85465 0.81405 0.0
C436 C 0.30636 0.8661 0.89632 0.0
C437 C 0.32865 0.92975 0.84005 0.0
C438 C 0.34721 0.92066 0.76996 0.0
N439 N 0.34875 0.87306 0.66464 0.0
N440 N 0.28723 0.9078 0.97053 0.0
C441 C 0.3374 0.88214 0.74717 0.0
C442 C 0.30651 0.90132 0.90208 0.0
N443 N 0.31393 0.81882 0.80502 0.0
N444 N 0.33495 0.96631 0.85122 0.0
H445 H 0.27113 0.88678 0.0161 0.0
H446 H 0.28499 0.93235 0.97794 0.0
H447 H 0.35026 0.9866 0.80324 0.0
H448 H 0.32545 0.97653 0.90668 0.0
H449 H 0.32525 0.80962 0.75198 0.0
H450 H 0.29906 0.79822 0.85263 0.0
H451 H 0.34154 0.84528 0.6404 0.0
H452 H 0.36324 0.89372 0.61667 0.0
C453 C 0.51396 0.37815 0.05066 0.0
C454 C 0.49194 0.33806 0.02764 0.0
C455 C 0.4784 0.35078 0.86294 0.0
C456 C 0.49242 0.38997 0.89492 0.0
N457 N 0.51155 0.43572 0.03638 0.0
N458 N 0.44968 0.28553 0.91018 0.0
C459 C 0.50744 0.40257 -0.00674 0.0
C460 C 0.47341 0.32399 0.93277 0.0
N461 N 0.5395 0.39281 0.13053 0.0
N462 N 0.4706 0.33919 0.76678 0.0
H463 H 0.44497 0.2651 0.95897 0.0
H464 H 0.43256 0.27433 0.84518 0.0
H465 H 0.47575 0.35827 0.71385 0.0
H466 H 0.46318 0.31157 0.73978 0.0
H467 H 0.5577 0.42229 0.14676 0.0
H468 H 0.54506 0.37535 0.17374 0.0
H469 H 0.52016 0.44399 0.10965 0.0
H470 H 0.50065 0.45154 0.00467 0.0
C471 C 0.11171 0.40029 0.9779 0.0
C472 C 0.1486 0.43191 0.96878 0.0
C473 C 0.12816 0.43327 0.80113 0.0
C474 C 0.08995 0.41156 0.82215 0.0
N475 N 0.04428 0.36848 0.92271 0.0
N476 N 0.19241 0.47854 0.86716 0.0
C477 C 0.08146 0.39225 0.90728 0.0
C478 C 0.15749 0.44763 0.87802 0.0
N479 N 0.10572 0.37921 0.05568 0.0
N480 N 0.13603 0.44172 0.70871 0.0
H481 H 0.21472 0.49102 0.92149 0.0
H482 H 0.19839 0.49359 0.8056 0.0
H483 H 0.11446 0.43157 0.65228 0.0
H484 H 0.16361 0.45453 0.68751 0.0
H485 H 0.08003 0.35445 0.06404 0.0
H486 H 0.12788 0.38486 0.10746 0.0
H487 H 0.03544 0.35673 -0.01212 0.0
H488 H 0.02227 0.36163 0.86928 0.0
C489 C 0.63427 0.14609 0.97538 0.0
C490 C 0.67278 0.16861 0.95331 0.0
C491 C 0.65443 0.13205 0.79603 0.0
C492 C 0.61989 0.10346 0.82959 0.0
N493 N 0.57762 0.08284 0.95603 0.0
N494 N 0.72013 0.1795 0.84167 0.0
C495 C 0.60952 0.1106 0.92005 0.0
C496 C 0.68301 0.16119 0.8626 0.0
N497 N 0.622 0.15819 0.05121 0.0
N498 N 0.65982 0.1317 0.70023 0.0
H499 H 0.74264 0.20033 0.88832 0.0
H500 H 0.72892 0.17147 0.78043 0.0
H501 H 0.63874 0.1119 0.64847 0.0
H502 H 0.68323 0.15375 0.67145 0.0
H503 H 0.59365 0.14439 0.0669 0.0
H504 H 0.6397 0.18433 0.09181 0.0
H505 H 0.57055 0.0854 0.02559 0.0
H506 H 0.5601 0.05587 0.91931 0.0
C507 C 0.52891 0.67022 0.78868 0.0
C508 C 0.56294 0.69574 0.84604 0.0
C509 C 0.59488 0.66481 0.77235 0.0
C510 C 0.55868 0.63347 0.73848 0.0
N511 N 0.49051 0.6058 0.71203 0.0
N512 N 0.63004 0.72201 0.88401 0.0
C513 C 0.52553 0.63653 0.74261 0.0
C514 C 0.59685 0.69514 0.83304 0.0
N515 N 0.49925 0.67706 0.7844 0.0
N516 N 0.62683 0.66459 0.74867 0.0
H517 H 0.63178 0.74499 0.92622 0.0
H518 H 0.65514 0.72101 0.88639 0.0
H519 H 0.62516 0.64255 0.70258 0.0
H520 H 0.65438 0.6874 0.76703 0.0
H521 H 0.47441 0.66086 0.73859 0.0
H522 H 0.50138 0.70148 0.81992 0.0
H523 H 0.46496 0.60499 0.72186 0.0
H524 H 0.48686 0.57979 0.68315 0.0
C525 C 0.53618 0.16966 0.41757 0.0
C526 C 0.50048 0.16219 0.3749 0.0
C527 C 0.46961 0.09704 0.4284 0.0
C528 C 0.50596 0.10316 0.46161 0.0
N529 N 0.57109 0.14807 0.51946 0.0
N530 N 0.43231 0.12468 0.3659 0.0
C531 C 0.53836 0.1406 0.46713 0.0
C532 C 0.46679 0.12789 0.39074 0.0
N533 N 0.56818 0.20352 0.40462 0.0
N534 N 0.43831 0.0613 0.42768 0.0
H535 H 0.43016 0.14716 0.33774 0.0
H536 H 0.40636 0.1016 0.38065 0.0
H537 H 0.43957 0.03879 0.45791 0.0
H538 H 0.41162 0.0535 0.39429 0.0
H539 H 0.59575 0.20913 0.42302 0.0
H540 H 0.56681 0.22564 0.37189 0.0
H541 H 0.59481 0.17548 0.53326 0.0
H542 H 0.57304 0.12716 0.55689 0.0
C543 C 0.38114 0.53216 0.40867 0.0
C544 C 0.34595 0.49876 0.37906 0.0
C545 C 0.36185 0.46392 0.49303 0.0
C546 C 0.40125 0.49245 0.49535 0.0
N547 N 0.44625 0.5599 0.47486 0.0
N548 N 0.30204 0.43162 0.39401 0.0
C549 C 0.41036 0.5287 0.46 0.0
C550 C 0.33577 0.46434 0.42237 0.0
N551 N 0.38645 0.56695 0.38525 0.0
N552 N 0.34852 0.43852 0.56217 0.0
H553 H 0.28154 0.43089 0.34419 0.0
H554 H 0.29566 0.40489 0.4166 0.0
H555 H 0.36463 0.44204 0.62663 0.0
H556 H 0.31965 0.41861 0.56392 0.0
H557 H 0.41019 0.59321 0.41057 0.0
H558 H 0.36493 0.56936 0.34744 0.0
H559 H 0.45557 0.58402 0.43608 0.0
H560 H 0.46668 0.56269 0.52753 0.0
C561 C 0.87564 0.39817 0.31733 0.0
C562 C 0.87908 0.36918 0.26543 0.0
C563 C 0.94564 0.39804 0.33323 0.0
C564 C 0.94254 0.42769 0.38255 0.0
N565 N 0.90266 0.45059 0.44371 0.0
N566 N 0.91311 0.33528 0.24321 0.0
C567 C 0.90676 0.42582 0.38217 0.0
C568 C 0.91275 0.36702 0.28043 0.0
N569 N 0.84353 0.40057 0.30036 0.0
N570 N 0.98036 0.40046 0.33356 0.0
H571 H 0.88927 0.31218 0.20461 0.0
H572 H 0.93553 0.33023 0.25766 0.0
H573 H 1.0046 0.42213 0.37424 0.0
H574 H 0.98567 0.38232 0.29003 0.0
H575 H 0.84109 0.4238 0.32628 0.0
H576 H 0.81983 0.38008 0.25573 0.0
H577 H 0.87653 0.44846 0.45357 0.0
H578 H 0.92501 0.47132 0.49144 0.0
C579 C 0.53764 0.86002 0.31272 0.0
C580 C 0.5689 0.86904 0.25763 0.0
C581 C 0.60983 0.92693 0.36496 0.0
C582 C 0.57767 0.9197 0.41434 0.0
N583 N 0.51559 0.87495 0.45829 0.0
N584 N 0.63659 0.90354 0.24624 0.0
C585 C 0.54312 0.88442 0.39613 0.0
C586 C 0.60578 0.89991 0.2895 0.0
N587 N 0.50239 0.82965 0.28191 0.0
N588 N 0.64331 0.96088 0.38557 0.0
H589 H 0.63409 0.88415 0.19018 0.0
H590 H 0.66467 0.92355 0.27084 0.0
H591 H 0.64754 0.9805 0.44298 0.0
H592 H 0.66636 0.97031 0.34413 0.0
H593 H 0.47759 0.82423 0.31238 0.0
H594 H 0.49766 0.81067 0.22242 0.0
H595 H 0.49066 0.84833 0.45415 0.0
H596 H 0.51967 0.89286 0.51975 0.0
C597 C 0.71336 0.58652 0.2225 0.0
C598 C 0.71167 0.55052 0.21285 0.0
C599 C 0.66007 0.52446 0.31886 0.0
C600 C 0.65621 0.55741 0.31003 0.0
N601 N 0.67945 0.6205 0.2548 0.0
N602 N 0.68497 0.48542 0.25398 0.0
C603 C 0.6835 0.58912 0.2642 0.0
C604 C 0.68596 0.51976 0.26348 0.0
N605 N 0.74298 0.61772 0.18832 0.0
N606 N 0.63937 0.49806 0.3813 0.0
H607 H 0.70494 0.48203 0.21748 0.0
H608 H 0.6637 0.46022 0.27852 0.0
H609 H 0.62087 0.50116 0.42481 0.0
H610 H 0.64324 0.47517 0.39696 0.0
H611 H 0.74778 0.64556 0.19898 0.0
H612 H 0.76485 0.61605 0.15692 0.0
H613 H 0.69592 0.64272 0.21293 0.0
H614 H 0.65779 0.62324 0.28387 0.0
C615 C 0.20014 0.69057 0.39551 0.0
C616 C 0.19128 0.71557 0.34659 0.0
C617 C 0.14559 0.70761 0.46324 0.0
C618 C 0.14693 0.67522 0.49343 0.0
N619 N 0.18 0.6402 0.50616 0.0
N620 N 0.15849 0.75133 0.33776 0.0
C621 C 0.17656 0.66888 0.467 0.0
C622 C 0.1656 0.72597 0.38335 0.0
N623 N 0.23024 0.68692 0.37081 0.0
N624 N 0.12449 0.71999 0.50926 0.0
H625 H 0.17359 0.76606 0.28101 0.0
H626 H 0.13667 0.75654 0.35318 0.0
H627 H 0.11081 0.7077 0.56992 0.0
H628 H 0.12411 0.74489 0.49461 0.0
H629 H 0.23975 0.67072 0.4064 0.0
H630 H 0.24762 0.70272 0.31836 0.0
H631 H 0.19805 0.63068 0.48369 0.0
H632 H 0.16372 0.6254 0.56142 0.0
loop_
_geom_bond_atom_site_label_1
_geom_bond_atom_site_label_2
_geom_bond_distance
_geom_bond_site_symmetry_2
_ccdc_geom_bond_type
H0 C6 0.930 . S
H1 C9 0.931 . S
H2 C11 0.931 . S
H3 C13 0.930 . S
H4 C15 0.930 . S
H5 C17 0.931 . S
C6 H0 0.930 . S
C6 C7 1.380 . S
C6 C8 1.394 . S
C7 C6 1.380 . S
C7 C11 1.382 . S
C8 C6 1.394 . S
C8 C9 1.400 . S
C9 H1 0.931 . S
C9 C8 1.400 . S
C9 C10 1.375 . S
C10 C9 1.375 . S
C10 C11 1.415 . S
C10 C12 1.501 . S
C11 H2 0.931 . S
C11 C7 1.382 . S
C11 C10 1.415 . S
C12 C10 1.501 . S
C12 C13 1.384 . S
C12 C17 1.408 . S
C13 H3 0.930 . S
C13 C12 1.384 . S
C13 C14 1.389 . S
C14 C13 1.389 . S
C14 C15 1.405 . S
C15 H4 0.930 . S
C15 C14 1.405 . S
C15 C16 1.364 . S
C16 C15 1.364 . S
C16 C17 1.400 . S
C17 H5 0.931 . S
C17 C12 1.408 . S
C17 C16 1.400 . S
H18 C24 0.930 . S
H19 C27 0.931 . S
H20 C29 0.931 1_556 S
H21 C31 0.930 1_556 S
H22 C33 0.930 . S
H23 C35 0.931 . S
C24 H18 0.930 . S
C24 C25 1.380 . S
C24 C26 1.394 . S
C25 C24 1.380 . S
C25 C29 1.382 . S
C26 C24 1.394 . S
C26 C27 1.400 . S
C27 H19 0.931 . S
C27 C26 1.400 . S
C27 C28 1.375 . S
C28 C27 1.375 . S
C28 C29 1.415 . S
C28 C30 1.501 . S
C29 H20 0.931 1_554 S
C29 C25 1.382 . S
C29 C28 1.415 . S
C30 C28 1.501 . S
C30 C31 1.384 . S
C30 C35 1.408 . S
C31 H21 0.930 1_554 S
C31 C30 1.384 . S
C31 C32 1.389 . S
C32 C31 1.389 . S
C32 C33 1.405 . S
C33 H22 0.930 . S
C33 C32 1.405 . S
C33 C34 1.364 . S
C34 C33 1.364 . S
C34 C35 1.400 . S
C35 H23 0.931 . S
C35 C30 1.408 . S
C35 C34 1.400 . S
H36 C42 0.930 . S
H37 C45 0.931 . S
H38 C47 0.931 . S
H39 C49 0.930 . S
H40 C51 0.930 . S
H41 C53 0.931 . S
C42 H36 0.930 . S
C42 C43 1.380 1_554 S
C42 C44 1.394 . S
C43 C42 1.380 1_556 S
C43 C47 1.382 . S
C44 C42 1.394 . S
C44 C45 1.400 . S
C45 H37 0.931 . S
C45 C44 1.400 . S
C45 C46 1.375 . S
C46 C45 1.375 . S
C46 C47 1.415 1_554 S
C46 C48 1.501 . S
C47 H38 0.931 . S
C47 C43 1.382 . S
C47 C46 1.415 1_556 S
C48 C46 1.501 . S
C48 C49 1.384 1_554 S
C48 C53 1.408 . S
C49 H39 0.930 . S
C49 C48 1.384 1_556 S
C49 C50 1.389 . S
C50 C49 1.389 . S
C50 C51 1.405 1_556 S
C51 H40 0.930 . S
C51 C50 1.405 1_554 S
C51 C52 1.364 . S
C52 C51 1.364 . S
C52 C53 1.400 . S
C53 H41 0.931 . S
C53 C48 1.408 . S
C53 C52 1.400 . S
H54 C60 0.930 . S
H55 C63 0.931 . S
H56 C65 0.931 . S
H57 C67 0.930 . S
H58 C69 0.930 . S
H59 C71 0.931 . S
C60 H54 0.930 . S
C60 C61 1.380 1_554 S
C60 C62 1.394 . S
C61 C60 1.380 1_556 S
C61 C65 1.382 . S
C62 C60 1.394 . S
C62 C63 1.400 . S
C63 H55 0.931 . S
C63 C62 1.400 . S
C63 C64 1.375 . S
C64 C63 1.375 . S
C64 C65 1.415 1_554 S
C64 C66 1.501 . S
C65 H56 0.931 . S
C65 C61 1.382 . S
C65 C64 1.415 1_556 S
C66 C64 1.501 . S
C66 C67 1.384 1_554 S
C66 C71 1.408 . S
C67 H57 0.930 . S
C67 C66 1.384 1_556 S
C67 C68 1.389 . S
C68 C67 1.389 . S
C68 C69 1.405 1_556 S
C69 H58 0.930 . S
C69 C68 1.405 1_554 S
C69 C70 1.364 . S
C70 C69 1.364 . S
C70 C71 1.400 . S
C71 H59 0.931 . S
C71 C66 1.408 . S
C71 C70 1.400 . S
H72 C78 0.930 . S
H73 C81 0.931 . S
H74 C83 0.931 1_556 S
H75 C85 0.930 1_556 S
H76 C87 0.930 . S
H77 C89 0.931 . S
C78 H72 0.930 . S
C78 C79 1.380 . S
C78 C80 1.394 . S
C79 C78 1.380 . S
C79 C83 1.382 . S
C80 C78 1.394 . S
C80 C81 1.400 . S
C81 H73 0.931 . S
C81 C80 1.400 . S
C81 C82 1.375 . S
C82 C81 1.375 . S
C82 C83 1.415 . S
C82 C84 1.501 . S
C83 H74 0.931 1_554 S
C83 C79 1.382 . S
C83 C82 1.415 . S
C84 C82 1.501 . S
C84 C85 1.384 . S
C84 C89 1.408 . S
C85 H75 0.930 1_554 S
C85 C84 1.384 . S
C85 C86 1.389 . S
C86 C85 1.389 . S
C86 C87 1.405 . S
C87 H76 0.930 . S
C87 C86 1.405 . S
C87 C88 1.364 . S
C88 C87 1.364 . S
C88 C89 1.400 . S
C89 H77 0.931 . S
C89 C84 1.408 . S
C89 C88 1.400 . S
H90 C96 0.930 . S
H91 C99 0.931 . S
H92 C101 0.931 . S
H93 C103 0.930 . S
H94 C105 0.930 . S
H95 C107 0.931 . S
C96 H90 0.930 . S
C96 C97 1.380 . S
C96 C98 1.394 . S
C97 C96 1.380 . S
C97 C101 1.382 . S
C98 C96 1.394 . S
C98 C99 1.400 . S
C99 H91 0.931 . S
C99 C98 1.400 . S
C99 C100 1.375 . S
C100 C99 1.375 . S
C100 C101 1.415 . S
C100 C102 1.501 . S
C101 H92 0.931 . S
C101 C97 1.382 . S
C101 C100 1.415 . S
C102 C100 1.501 . S
C102 C103 1.384 . S
C102 C107 1.408 . S
C103 H93 0.930 . S
C103 C102 1.384 . S
C103 C104 1.389 . S
C104 C103 1.389 . S
C104 C105 1.405 . S
C105 H94 0.930 . S
C105 C104 1.405 . S
C105 C106 1.364 . S
C106 C105 1.364 . S
C106 C107 1.400 . S
C107 H95 0.931 . S
C107 C102 1.408 . S
C107 C106 1.400 . S
C108 O135 1.312 . S
C108 O136 1.208 . S
C109 O130 1.331 . S
C109 O133 1.244 . S
C110 O132 1.264 . S
C110 O134 1.273 . S
Mg111 O113 1.936 1_455 S
Mg111 O120 2.081 1_455 S
Mg111 O122 2.023 . S
Mg111 O126 2.031 1_455 S
Mg111 O135 2.291 . S
Mg112 O113 1.963 . S
Mg112 O123 1.942 . S
Mg112 O124 1.955 1_655 S
Mg112 O131 1.986 . S
O113 Mg111 1.936 1_655 S
O113 Mg112 1.963 . S
O113 Mg114 1.915 1_655 S
Mg114 O113 1.915 1_455 S
Mg114 O115 1.915 . S
Mg114 O119 2.013 . S
Mg114 O125 2.114 1_455 S
Mg114 O129 2.013 1_455 S
Mg114 O135 2.114 . S
O115 Mg114 1.915 . S
O115 Mg116 1.936 . S
O115 Mg117 1.963 . S
Mg116 O115 1.936 . S
Mg116 O125 2.291 1_455 S
Mg116 O130 2.081 . S
Mg116 O132 2.023 1_455 S
Mg116 O136 2.031 . S
Mg117 O115 1.963 . S
Mg117 O121 1.986 . S
Mg117 O133 1.942 . S
Mg117 O134 1.955 1_455 S
C118 O129 1.191 . S
C118 O131 1.307 . S
O119 Mg114 2.013 . S
O119 C138 1.191 . S
O120 Mg111 2.081 1_655 S
O120 C128 1.331 . S
O121 Mg117 1.986 . S
O121 C138 1.307 . S
O122 Mg111 2.023 . S
O122 C137 1.264 . S
O123 Mg112 1.942 . S
O123 C128 1.244 . S
O124 Mg112 1.955 1_455 S
O124 C137 1.273 . S
O125 Mg114 2.114 1_655 S
O125 Mg116 2.291 1_655 S
O125 C127 1.312 . S
O126 Mg111 2.031 1_655 S
O126 C127 1.208 . S
C127 O125 1.312 . S
C127 O126 1.208 . S
C128 O120 1.331 . S
C128 O123 1.244 . S
O129 Mg114 2.013 1_655 S
O129 C118 1.191 . S
O130 C109 1.331 . S
O130 Mg116 2.081 . S
O131 Mg112 1.986 . S
O131 C118 1.307 . S
O132 C110 1.264 . S
O132 Mg116 2.023 1_655 S
O133 C109 1.244 . S
O133 Mg117 1.942 . S
O134 C110 1.273 . S
O134 Mg117 1.955 1_655 S
O135 C108 1.312 . S
O135 Mg111 2.291 . S
O135 Mg114 2.114 . S
O136 C108 1.208 . S
O136 Mg116 2.031 . S
C137 O122 1.264 . S
C137 O124 1.273 . S
C138 O119 1.191 . S
C138 O121 1.307 . S
C139 O166 1.312 . S
C139 O167 1.208 . S
C140 O161 1.331 . S
C140 O164 1.244 . S
C141 O163 1.264 . S
C141 O165 1.273 . S
Mg142 O144 1.936 1_545 S
Mg142 O151 2.081 1_545 S
Mg142 O153 2.023 . S
Mg142 O157 2.031 1_545 S
Mg142 O166 2.291 . S
Mg143 O144 1.963 . S
Mg143 O154 1.942 . S
Mg143 O155 1.955 1_565 S
Mg143 O162 1.986 . S
O144 Mg142 1.936 1_565 S
O144 Mg143 1.963 . S
O144 Mg145 1.915 1_565 S
Mg145 O144 1.915 1_545 S
Mg145 O146 1.915 . S
Mg145 O150 2.013 . S
Mg145 O156 2.114 1_545 S
Mg145 O160 2.013 1_545 S
Mg145 O166 2.114 . S
O146 Mg145 1.915 . S
O146 Mg147 1.936 . S
O146 Mg148 1.963 . S
Mg147 O146 1.936 . S
Mg147 O156 2.291 1_545 S
Mg147 O161 2.081 . S
Mg147 O163 2.023 1_545 S
Mg147 O167 2.031 . S
Mg148 O146 1.963 . S
Mg148 O152 1.986 . S
Mg148 O164 1.942 . S
Mg148 O165 1.955 1_545 S
C149 O160 1.191 . S
C149 O162 1.307 . S
O150 Mg145 2.013 . S
O150 C169 1.191 . S
O151 Mg142 2.081 1_565 S
O151 C159 1.331 . S
O152 Mg148 1.986 . S
O152 C169 1.307 . S
O153 Mg142 2.023 . S
O153 C168 1.264 . S
O154 Mg143 1.942 . S
O154 C159 1.244 . S
O155 Mg143 1.955 1_545 S
O155 C168 1.273 . S
O156 Mg145 2.114 1_565 S
O156 Mg147 2.291 1_565 S
O156 C158 1.312 . S
O157 Mg142 2.031 1_565 S
O157 C158 1.208 . S
C158 O156 1.312 . S
C158 O157 1.208 . S
C159 O151 1.331 . S
C159 O154 1.244 . S
O160 Mg145 2.013 1_565 S
O160 C149 1.191 . S
O161 C140 1.331 . S
O161 Mg147 2.081 . S
O162 Mg143 1.986 . S
O162 C149 1.307 . S
O163 C141 1.264 . S
O163 Mg147 2.023 1_565 S
O164 C140 1.244 . S
O164 Mg148 1.942 . S
O165 C141 1.273 . S
O165 Mg148 1.955 1_565 S
O166 C139 1.312 . S
O166 Mg142 2.291 . S
O166 Mg145 2.114 . S
O167 C139 1.208 . S
O167 Mg147 2.031 . S
C168 O153 1.264 . S
C168 O155 1.273 . S
C169 O150 1.191 . S
C169 O152 1.307 . S
C170 O197 1.312 . S
C170 O198 1.208 . S
C171 O192 1.331 . S
C171 O195 1.244 . S
C172 O194 1.264 . S
C172 O196 1.273 . S
Mg173 O175 1.936 . S
Mg173 O182 2.081 . S
Mg173 O184 2.023 . S
Mg173 O188 2.031 . S
Mg173 O197 2.291 . S
Mg174 O175 1.963 . S
Mg174 O185 1.942 . S
Mg174 O186 1.955 . S
Mg174 O193 1.986 . S
O175 Mg173 1.936 . S
O175 Mg174 1.963 . S
O175 Mg176 1.915 . S
Mg176 O175 1.915 . S
Mg176 O177 1.915 . S
Mg176 O181 2.013 . S
Mg176 O187 2.114 . S
Mg176 O191 2.013 . S
Mg176 O197 2.114 . S
O177 Mg176 1.915 . S
O177 Mg178 1.936 . S
O177 Mg179 1.963 . S
Mg178 O177 1.936 . S
Mg178 O187 2.291 . S
Mg178 O192 2.081 . S
Mg178 O194 2.023 . S
Mg178 O198 2.031 . S
Mg179 O177 1.963 . S
Mg179 O183 1.986 . S
Mg179 O195 1.942 . S
Mg179 O196 1.955 . S
C180 O191 1.191 . S
C180 O193 1.307 . S
O181 Mg176 2.013 . S
O181 C200 1.191 . S
O182 Mg173 2.081 . S
O182 C190 1.331 . S
O183 Mg179 1.986 . S
O183 C200 1.307 . S
O184 Mg173 2.023 . S
O184 C199 1.264 . S
O185 Mg174 1.942 . S
O185 C190 1.244 . S
O186 Mg174 1.955 . S
O186 C199 1.273 . S
O187 Mg176 2.114 . S
O187 Mg178 2.291 . S
O187 C189 1.312 . S
O188 Mg173 2.031 . S
O188 C189 1.208 . S
C189 O187 1.312 . S
C189 O188 1.208 . S
C190 O182 1.331 . S
C190 O185 1.244 . S
O191 Mg176 2.013 . S
O191 C180 1.191 . S
O192 C171 1.331 . S
O192 Mg178 2.081 . S
O193 Mg174 1.986 . S
O193 C180 1.307 . S
O194 C172 1.264 . S
O194 Mg178 2.023 . S
O195 C171 1.244 . S
O195 Mg179 1.942 . S
O196 C172 1.273 . S
O196 Mg179 1.955 . S
O197 C170 1.312 . S
O197 Mg173 2.291 . S
O197 Mg176 2.114 . S
O198 C170 1.208 . S
O198 Mg178 2.031 . S
C199 O184 1.264 . S
C199 O186 1.273 . S
C200 O181 1.191 . S
C200 O183 1.307 . S
C201 C202 1.363 . S
C201 C207 1.379 . S
C201 N209 1.356 . S
C202 C201 1.363 . S
C202 C208 1.363 . S
C203 C204 1.363 . S
C203 C208 1.379 . S
C203 N210 1.356 . S
C204 C203 1.363 . S
C204 C207 1.363 . S
N205 C207 1.356 . S
N205 H217 0.984 . S
N205 H218 0.985 . S
N206 C208 1.356 . S
N206 H211 0.984 . S
N206 H212 0.985 . S
C207 C201 1.379 . S
C207 C204 1.363 . S
C207 N205 1.356 . S
C208 C202 1.363 . S
C208 C203 1.379 . S
C208 N206 1.356 . S
N209 C201 1.356 . S
N209 H215 0.984 . S
N209 H216 0.984 . S
N210 C203 1.356 . S
N210 H213 0.984 . S
N210 H214 0.985 . S
H211 N206 0.984 . S
H212 N206 0.985 . S
H213 N210 0.984 . S
H214 N210 0.985 . S
H215 N209 0.984 . S
H216 N209 0.984 . S
H217 N205 0.984 . S
H218 N205 0.985 . S
C219 C220 1.363 . S
C219 C225 1.379 . S
C219 N227 1.356 . S
C220 C219 1.363 . S
C220 C226 1.363 . S
C221 C222 1.363 . S
C221 C226 1.379 . S
C221 N228 1.356 . S
C222 C221 1.363 . S
C222 C225 1.363 . S
N223 C225 1.356 . S
N223 H235 0.984 . S
N223 H236 0.985 . S
N224 C226 1.356 . S
N224 H229 0.984 . S
N224 H230 0.985 . S
C225 C219 1.379 . S
C225 C222 1.363 . S
C225 N223 1.356 . S
C226 C220 1.363 . S
C226 C221 1.379 . S
C226 N224 1.356 . S
N227 C219 1.356 . S
N227 H233 0.984 . S
N227 H234 0.984 . S
N228 C221 1.356 . S
N228 H231 0.984 . S
N228 H232 0.985 . S
H229 N224 0.984 . S
H230 N224 0.985 . S
H231 N228 0.984 . S
H232 N228 0.985 . S
H233 N227 0.984 . S
H234 N227 0.984 . S
H235 N223 0.984 . S
H236 N223 0.985 . S
C237 C238 1.363 . S
C237 C243 1.379 . S
C237 N245 1.356 . S
C238 C237 1.363 . S
C238 C244 1.363 . S
C239 C240 1.363 . S
C239 C244 1.379 . S
C239 N246 1.356 . S
C240 C239 1.363 . S
C240 C243 1.363 . S
N241 C243 1.356 . S
N241 H253 0.984 . S
N241 H254 0.985 . S
N242 C244 1.356 . S
N242 H247 0.984 . S
N242 H248 0.985 . S
C243 C237 1.379 . S
C243 C240 1.363 . S
C243 N241 1.356 . S
C244 C238 1.363 . S
C244 C239 1.379 . S
C244 N242 1.356 . S
N245 C237 1.356 . S
N245 H251 0.984 . S
N245 H252 0.984 . S
N246 C239 1.356 . S
N246 H249 0.984 . S
N246 H250 0.985 . S
H247 N242 0.984 . S
H248 N242 0.985 . S
H249 N246 0.984 . S
H250 N246 0.985 . S
H251 N245 0.984 . S
H252 N245 0.984 . S
H253 N241 0.984 . S
H254 N241 0.985 . S
C255 C256 1.363 . S
C255 C261 1.379 . S
C255 N263 1.356 . S
C256 C255 1.363 . S
C256 C262 1.363 . S
C257 C258 1.363 . S
C257 C262 1.379 . S
C257 N264 1.356 . S
C258 C257 1.363 . S
C258 C261 1.363 . S
N259 C261 1.356 . S
N259 H271 0.984 . S
N259 H272 0.985 . S
N260 C262 1.356 . S
N260 H265 0.984 . S
N260 H266 0.985 . S
C261 C255 1.379 . S
C261 C258 1.363 . S
C261 N259 1.356 . S
C262 C256 1.363 . S
C262 C257 1.379 . S
C262 N260 1.356 . S
N263 C255 1.356 . S
N263 H269 0.984 . S
N263 H270 0.984 . S
N264 C257 1.356 . S
N264 H267 0.984 . S
N264 H268 0.985 . S
H265 N260 0.984 . S
H266 N260 0.985 . S
H267 N264 0.984 . S
H268 N264 0.985 . S
H269 N263 0.984 . S
H270 N263 0.984 . S
H271 N259 0.984 . S
H272 N259 0.985 . S
C273 C274 1.363 . S
C273 C279 1.379 . S
C273 N281 1.356 . S
C274 C273 1.363 . S
C274 C280 1.363 . S
C275 C276 1.363 . S
C275 C280 1.379 . S
C275 N282 1.356 . S
C276 C275 1.363 . S
C276 C279 1.363 . S
N277 C279 1.356 . S
N277 H289 0.984 . S
N277 H290 0.985 . S
N278 C280 1.356 . S
N278 H283 0.984 . S
N278 H284 0.985 . S
C279 C273 1.379 . S
C279 C276 1.363 . S
C279 N277 1.356 . S
C280 C274 1.363 . S
C280 C275 1.379 . S
C280 N278 1.356 . S
N281 C273 1.356 . S
N281 H287 0.984 . S
N281 H288 0.984 . S
N282 C275 1.356 . S
N282 H285 0.984 . S
N282 H286 0.985 . S
H283 N278 0.984 . S
H284 N278 0.985 . S
H285 N282 0.984 . S
H286 N282 0.985 . S
H287 N281 0.984 . S
H288 N281 0.984 . S
H289 N277 0.984 . S
H290 N277 0.985 . S
C291 C292 1.363 . S
C291 C297 1.379 . S
C291 N299 1.356 . S
C292 C291 1.363 . S
C292 C298 1.363 . S
C293 C294 1.363 . S
C293 C298 1.379 . S
C293 N300 1.356 . S
C294 C293 1.363 . S
C294 C297 1.363 . S
N295 C297 1.356 . S
N295 H307 0.984 . S
N295 H308 0.985 . S
N296 C298 1.356 . S
N296 H301 0.984 . S
N296 H302 0.985 . S
C297 C291 1.379 . S
C297 C294 1.363 . S
C297 N295 1.356 . S
C298 C292 1.363 . S
C298 C293 1.379 . S
C298 N296 1.356 . S
N299 C291 1.356 . S
N299 H305 0.984 . S
N299 H306 0.984 . S
N300 C293 1.356 . S
N300 H303 0.984 . S
N300 H304 0.985 . S
H301 N296 0.984 . S
H302 N296 0.985 . S
H303 N300 0.984 . S
H304 N300 0.985 . S
H305 N299 0.984 . S
H306 N299 0.984 . S
H307 N295 0.984 . S
H308 N295 0.985 . S
C309 C310 1.363 . S
C309 C315 1.379 . S
C309 N317 1.356 . S
C310 C309 1.363 . S
C310 C316 1.363 . S
C311 C312 1.363 . S
C311 C316 1.379 . S
C311 N318 1.356 . S
C312 C311 1.363 . S
C312 C315 1.363 . S
N313 C315 1.356 . S
N313 H325 0.984 . S
N313 H326 0.985 . S
N314 C316 1.356 . S
N314 H319 0.984 . S
N314 H320 0.985 . S
C315 C309 1.379 . S
C315 C312 1.363 . S
C315 N313 1.356 . S
C316 C310 1.363 . S
C316 C311 1.379 . S
C316 N314 1.356 . S
N317 C309 1.356 . S
N317 H323 0.984 1_556 S
N317 H324 0.986 . S
N318 C311 1.356 . S
N318 H321 0.984 . S
N318 H322 0.985 . S
H319 N314 0.984 . S
H320 N314 0.985 . S
H321 N318 0.984 . S
H322 N318 0.985 . S
H323 N317 0.984 1_554 S
H324 N317 0.986 . S
H325 N313 0.984 . S
H326 N313 0.985 . S
C327 C328 1.363 . S
C327 C333 1.379 . S
C327 N335 1.356 . S
C328 C327 1.363 . S
C328 C334 1.363 . S
C329 C330 1.363 . S
C329 C334 1.379 . S
C329 N336 1.356 . S
C330 C329 1.363 . S
C330 C333 1.363 . S
N331 C333 1.356 . S
N331 H343 0.984 . S
N331 H344 0.985 . S
N332 C334 1.356 . S
N332 H337 0.984 . S
N332 H338 0.985 . S
C333 C327 1.379 . S
C333 C330 1.363 . S
C333 N331 1.356 . S
C334 C328 1.363 . S
C334 C329 1.379 . S
C334 N332 1.356 . S
N335 C327 1.356 . S
N335 H341 0.984 . S
N335 H342 0.984 . S
N336 C329 1.356 . S
N336 H339 0.984 . S
N336 H340 0.985 . S
H337 N332 0.984 . S
H338 N332 0.985 . S
H339 N336 0.984 . S
H340 N336 0.985 . S
H341 N335 0.984 . S
H342 N335 0.984 . S
H343 N331 0.984 . S
H344 N331 0.985 . S
C345 C346 1.363 . S
C345 C351 1.379 . S
C345 N353 1.356 . S
C346 C345 1.363 . S
C346 C352 1.363 . S
C347 C348 1.363 . S
C347 C352 1.379 . S
C347 N354 1.356 . S
C348 C347 1.363 . S
C348 C351 1.363 . S
N349 C351 1.356 . S
N349 H361 0.984 . S
N349 H362 0.985 . S
N350 C352 1.356 1_554 S
N350 H355 0.984 . S
N350 H356 0.985 . S
C351 C345 1.379 . S
C351 C348 1.363 . S
C351 N349 1.356 . S
C352 C346 1.363 . S
C352 C347 1.379 . S
C352 N350 1.356 1_556 S
N353 C345 1.356 . S
N353 H359 0.984 . S
N353 H360 0.984 . S
N354 C347 1.356 . S
N354 H357 0.984 . S
N354 H358 0.985 . S
H355 N350 0.984 . S
H356 N350 0.985 . S
H357 N354 0.984 . S
H358 N354 0.985 . S
H359 N353 0.984 . S
H360 N353 0.984 . S
H361 N349 0.984 . S
H362 N349 0.985 . S
C363 C364 1.363 . S
C363 C369 1.379 . S
C363 N371 1.356 . S
C364 C363 1.363 . S
C364 C370 1.363 1_554 S
C365 C366 1.363 . S
C365 C370 1.379 . S
C365 N372 1.356 . S
C366 C365 1.363 . S
C366 C369 1.363 1_556 S
N367 C369 1.356 . S
N367 H379 0.984 . S
N367 H380 0.985 1_554 S
N368 C370 1.356 . S
N368 H373 0.984 1_556 S
N368 H374 0.985 . S
C369 C363 1.379 . S
C369 C366 1.363 1_554 S
C369 N367 1.356 . S
C370 C364 1.363 1_556 S
C370 C365 1.379 . S
C370 N368 1.356 . S
N371 C363 1.356 . S
N371 H377 0.984 . S
N371 H378 0.984 . S
N372 C365 1.356 . S
N372 H375 0.984 . S
N372 H376 0.985 . S
H373 N368 0.984 1_554 S
H374 N368 0.985 . S
H375 N372 0.984 . S
H376 N372 0.985 . S
H377 N371 0.984 . S
H378 N371 0.984 . S
H379 N367 0.984 . S
H380 N367 0.985 1_556 S
C381 C382 1.363 1_556 S
C381 C387 1.379 . S
C381 N389 1.356 . S
C382 C381 1.363 1_554 S
C382 C388 1.363 . S
C383 C384 1.363 1_554 S
C383 C388 1.379 . S
C383 N390 1.356 . S
C384 C383 1.363 1_556 S
C384 C387 1.363 . S
N385 C387 1.356 . S
N385 H397 0.984 . S
N385 H398 0.985 . S
N386 C388 1.356 . S
N386 H391 0.984 . S
N386 H392 0.985 . S
C387 C381 1.379 . S
C387 C384 1.363 . S
C387 N385 1.356 . S
C388 C382 1.363 . S
C388 C383 1.379 . S
C388 N386 1.356 . S
N389 C381 1.356 . S
N389 H395 0.984 . S
N389 H396 0.984 1_556 S
N390 C383 1.356 . S
N390 H393 0.984 1_554 S
N390 H394 0.985 . S
H391 N386 0.984 . S
H392 N386 0.985 . S
H393 N390 0.984 1_556 S
H394 N390 0.985 . S
H395 N389 0.984 . S
H396 N389 0.984 1_554 S
H397 N385 0.984 . S
H398 N385 0.985 . S
C399 C400 1.363 . S
C399 C405 1.379 . S
C399 N407 1.356 . S
C400 C399 1.363 . S
C400 C406 1.364 . S
C401 C402 1.363 . S
C401 C406 1.380 . S
C401 N408 1.356 . S
C402 C401 1.363 . S
C402 C405 1.363 . S
N403 C405 1.356 . S
N403 H415 0.984 . S
N403 H416 0.985 . S
N404 C406 1.354 1_554 S
N404 H409 0.984 . S
N404 H410 0.985 . S
C405 C399 1.379 . S
C405 C402 1.363 . S
C405 N403 1.356 . S
C406 C400 1.364 . S
C406 C401 1.380 . S
C406 N404 1.354 1_556 S
N407 C399 1.356 . S
N407 H413 0.984 . S
N407 H414 0.984 . S
N408 C401 1.356 . S
N408 H411 0.984 . S
N408 H412 0.985 1_556 S
H409 N404 0.984 . S
H410 N404 0.985 . S
H411 N408 0.984 . S
H412 N408 0.985 1_554 S
H413 N407 0.984 . S
H414 N407 0.984 . S
H415 N403 0.984 . S
H416 N403 0.985 . S
C417 C418 1.363 . S
C417 C423 1.379 . S
C417 N425 1.356 . S
C418 C417 1.363 . S
C418 C424 1.363 . S
C419 C420 1.363 . S
C419 C424 1.379 . S
C419 N426 1.356 . S
C420 C419 1.363 . S
C420 C423 1.363 . S
N421 C423 1.356 . S
N421 H433 0.984 . S
N421 H434 0.985 . S
N422 C424 1.356 . S
N422 H427 0.984 . S
N422 H428 0.985 . S
C423 C417 1.379 . S
C423 C420 1.363 . S
C423 N421 1.356 . S
C424 C418 1.363 . S
C424 C419 1.379 . S
C424 N422 1.356 . S
N425 C417 1.356 . S
N425 H431 0.984 . S
N425 H432 0.984 . S
N426 C419 1.356 . S
N426 H429 0.984 . S
N426 H430 0.985 . S
H427 N422 0.984 . S
H428 N422 0.985 . S
H429 N426 0.984 . S
H430 N426 0.985 . S
H431 N425 0.984 . S
H432 N425 0.984 . S
H433 N421 0.984 . S
H434 N421 0.985 . S
C435 C436 1.363 . S
C435 C441 1.379 . S
C435 N443 1.356 . S
C436 C435 1.363 . S
C436 C442 1.363 . S
C437 C438 1.363 . S
C437 C442 1.379 . S
C437 N444 1.356 . S
C438 C437 1.363 . S
C438 C441 1.363 . S
N439 C441 1.356 . S
N439 H451 0.984 . S
N439 H452 0.985 . S
N440 C442 1.356 . S
N440 H445 0.984 1_556 S
N440 H446 0.985 . S
C441 C435 1.379 . S
C441 C438 1.363 . S
C441 N439 1.356 . S
C442 C436 1.363 . S
C442 C437 1.379 . S
C442 N440 1.356 . S
N443 C435 1.356 . S
N443 H449 0.984 . S
N443 H450 0.984 1_556 S
N444 C437 1.356 . S
N444 H447 0.984 . S
N444 H448 0.985 . S
H445 N440 0.984 1_554 S
H446 N440 0.985 . S
H447 N444 0.984 . S
H448 N444 0.985 . S
H449 N443 0.984 . S
H450 N443 0.984 1_554 S
H451 N439 0.984 . S
H452 N439 0.985 . S
C453 C454 1.363 . S
C453 C459 1.377 1_554 S
C453 N461 1.356 . S
C454 C453 1.363 . S
C454 C460 1.363 1_554 S
C455 C456 1.363 . S
C455 C460 1.379 . S
C455 N462 1.356 . S
C456 C455 1.363 . S
C456 C459 1.366 . S
N457 C459 1.356 1_554 S
N457 H469 0.984 . S
N457 H470 0.985 1_554 S
N458 C460 1.356 . S
N458 H463 0.984 . S
N458 H464 0.985 . S
C459 C453 1.377 1_556 S
C459 C456 1.366 . S
C459 N457 1.356 1_556 S
C460 C454 1.363 1_556 S
C460 C455 1.379 . S
C460 N458 1.356 . S
N461 C453 1.356 . S
N461 H467 0.984 . S
N461 H468 0.984 . S
N462 C455 1.356 . S
N462 H465 0.984 . S
N462 H466 0.985 . S
H463 N458 0.984 . S
H464 N458 0.985 . S
H465 N462 0.984 . S
H466 N462 0.985 . S
H467 N461 0.984 . S
H468 N461 0.984 . S
H469 N457 0.984 . S
H470 N457 0.985 1_556 S
C471 C472 1.363 1_556 S
C471 C477 1.379 . S
C471 N479 1.356 1_556 S
C472 C471 1.363 1_554 S
C472 C478 1.363 . S
C473 C474 1.363 . S
C473 C478 1.379 1_556 S
C473 N480 1.356 . S
C474 C473 1.363 . S
C474 C477 1.363 . S
N475 C477 1.356 . S
N475 H487 0.984 . S
N475 H488 0.985 . S
N476 C478 1.356 . S
N476 H481 0.984 . S
N476 H482 0.985 . S
C477 C471 1.379 . S
C477 C474 1.363 . S
C477 N475 1.356 . S
C478 C472 1.363 . S
C478 C473 1.379 1_554 S
C478 N476 1.356 . S
N479 C471 1.356 1_554 S
N479 H485 0.984 1_554 S
N479 H486 0.984 . S
N480 C473 1.356 . S
N480 H483 0.984 . S
N480 H484 0.985 1_556 S
H481 N476 0.984 . S
H482 N476 0.985 . S
H483 N480 0.984 . S
H484 N480 0.985 1_554 S
H485 N479 0.984 1_556 S
H486 N479 0.984 . S
H487 N475 0.984 . S
H488 N475 0.985 . S
C489 C490 1.363 . S
C489 C495 1.379 . S
C489 N497 1.356 1_556 S
C490 C489 1.363 . S
C490 C496 1.363 . S
C491 C492 1.363 . S
C491 C496 1.379 . S
C491 N498 1.356 . S
C492 C491 1.363 . S
C492 C495 1.363 . S
N493 C495 1.356 . S
N493 H505 0.984 . S
N493 H506 0.985 . S
N494 C496 1.356 . S
N494 H499 0.984 . S
N494 H500 0.985 . S
C495 C489 1.379 . S
C495 C492 1.363 . S
C495 N493 1.356 . S
C496 C490 1.363 . S
C496 C491 1.379 . S
C496 N494 1.356 . S
N497 C489 1.356 1_554 S
N497 H503 0.984 . S
N497 H504 0.984 . S
N498 C491 1.356 . S
N498 H501 0.984 . S
N498 H502 0.985 . S
H499 N494 0.984 . S
H500 N494 0.985 . S
H501 N498 0.984 . S
H502 N498 0.985 . S
H503 N497 0.984 . S
H504 N497 0.984 . S
H505 N493 0.984 . S
H506 N493 0.985 . S
C507 C508 1.363 . S
C507 C513 1.379 . S
C507 N515 1.356 1_556 S
C508 C507 1.363 . S
C508 C514 1.363 . S
C509 C510 1.363 . S
C509 C514 1.379 . S
C509 N516 1.356 . S
C510 C509 1.363 . S
C510 C513 1.363 . S
N511 C513 1.356 . S
N511 H523 0.984 . S
N511 H524 0.985 . S
N512 C514 1.356 . S
N512 H517 0.984 . S
N512 H518 0.985 . S
C513 C507 1.379 . S
C513 C510 1.363 . S
C513 N511 1.356 . S
C514 C508 1.363 . S
C514 C509 1.379 . S
C514 N512 1.356 . S
N515 C507 1.356 1_554 S
N515 H521 0.984 . S
N515 H522 0.984 . S
N516 C509 1.356 . S
N516 H519 0.984 . S
N516 H520 0.985 . S
H517 N512 0.984 . S
H518 N512 0.985 . S
H519 N516 0.984 . S
H520 N516 0.985 . S
H521 N515 0.984 . S
H522 N515 0.984 . S
H523 N511 0.984 . S
H524 N511 0.985 . S
C525 C526 1.363 . S
C525 C531 1.379 . S
C525 N533 1.356 . S
C526 C525 1.363 . S
C526 C532 1.363 . S
C527 C528 1.363 . S
C527 C532 1.379 . S
C527 N534 1.356 . S
C528 C527 1.363 . S
C528 C531 1.363 . S
N529 C531 1.356 . S
N529 H541 0.984 . S
N529 H542 0.985 . S
N530 C532 1.356 . S
N530 H535 0.984 . S
N530 H536 0.985 . S
C531 C525 1.379 . S
C531 C528 1.363 . S
C531 N529 1.356 . S
C532 C526 1.363 . S
C532 C527 1.379 . S
C532 N530 1.356 . S
N533 C525 1.356 . S
N533 H539 0.984 . S
N533 H540 0.984 . S
N534 C527 1.356 . S
N534 H537 0.984 . S
N534 H538 0.985 . S
H535 N530 0.984 . S
H536 N530 0.985 . S
H537 N534 0.984 . S
H538 N534 0.985 . S
H539 N533 0.984 . S
H540 N533 0.984 . S
H541 N529 0.984 . S
H542 N529 0.985 . S
C543 C544 1.363 . S
C543 C549 1.379 . S
C543 N551 1.356 . S
C544 C543 1.363 . S
C544 C550 1.363 . S
C545 C546 1.363 . S
C545 C550 1.379 . S
C545 N552 1.356 . S
C546 C545 1.363 . S
C546 C549 1.363 . S
N547 C549 1.356 . S
N547 H559 0.984 . S
N547 H560 0.985 . S
N548 C550 1.356 . S
N548 H553 0.984 . S
N548 H554 0.985 . S
C549 C543 1.379 . S
C549 C546 1.363 . S
C549 N547 1.356 . S
C550 C544 1.363 . S
C550 C545 1.379 . S
C550 N548 1.356 . S
N551 C543 1.356 . S
N551 H557 0.984 . S
N551 H558 0.984 . S
N552 C545 1.356 . S
N552 H555 0.984 . S
N552 H556 0.985 . S
H553 N548 0.984 . S
H554 N548 0.985 . S
H555 N552 0.984 . S
H556 N552 0.985 . S
H557 N551 0.984 . S
H558 N551 0.984 . S
H559 N547 0.984 . S
H560 N547 0.985 . S
C561 C562 1.363 . S
C561 C567 1.379 . S
C561 N569 1.356 . S
C562 C561 1.363 . S
C562 C568 1.363 . S
C563 C564 1.363 . S
C563 C568 1.379 . S
C563 N570 1.356 . S
C564 C563 1.363 . S
C564 C567 1.363 . S
N565 C567 1.356 . S
N565 H577 0.984 . S
N565 H578 0.985 . S
N566 C568 1.356 . S
N566 H571 0.984 . S
N566 H572 0.985 . S
C567 C561 1.379 . S
C567 C564 1.363 . S
C567 N565 1.356 . S
C568 C562 1.363 . S
C568 C563 1.379 . S
C568 N566 1.356 . S
N569 C561 1.356 . S
N569 H575 0.984 . S
N569 H576 0.984 . S
N570 C563 1.356 . S
N570 H573 0.984 . S
N570 H574 0.985 . S
H571 N566 0.984 . S
H572 N566 0.985 . S
H573 N570 0.984 . S
H574 N570 0.985 . S
H575 N569 0.984 . S
H576 N569 0.984 . S
H577 N565 0.984 . S
H578 N565 0.985 . S
C579 C580 1.363 . S
C579 C585 1.379 . S
C579 N587 1.356 . S
C580 C579 1.363 . S
C580 C586 1.363 . S
C581 C582 1.363 . S
C581 C586 1.379 . S
C581 N588 1.356 . S
C582 C581 1.363 . S
C582 C585 1.363 . S
N583 C585 1.356 . S
N583 H595 0.984 . S
N583 H596 0.985 . S
N584 C586 1.356 . S
N584 H589 0.984 . S
N584 H590 0.985 . S
C585 C579 1.379 . S
C585 C582 1.363 . S
C585 N583 1.356 . S
C586 C580 1.363 . S
C586 C581 1.379 . S
C586 N584 1.356 . S
N587 C579 1.356 . S
N587 H593 0.984 . S
N587 H594 0.984 . S
N588 C581 1.356 . S
N588 H591 0.984 . S
N588 H592 0.985 . S
H589 N584 0.984 . S
H590 N584 0.985 . S
H591 N588 0.984 . S
H592 N588 0.985 . S
H593 N587 0.984 . S
H594 N587 0.984 . S
H595 N583 0.984 . S
H596 N583 0.985 . S
C597 C598 1.363 . S
C597 C603 1.379 . S
C597 N605 1.356 . S
C598 C597 1.363 . S
C598 C604 1.363 . S
C599 C600 1.363 . S
C599 C604 1.379 . S
C599 N606 1.356 . S
C600 C599 1.363 . S
C600 C603 1.363 . S
N601 C603 1.356 . S
N601 H613 0.984 . S
N601 H614 0.985 . S
N602 C604 1.356 . S
N602 H607 0.984 . S
N602 H608 0.985 . S
C603 C597 1.379 . S
C603 C600 1.363 . S
C603 N601 1.356 . S
C604 C598 1.363 . S
C604 C599 1.379 . S
C604 N602 1.356 . S
N605 C597 1.356 . S
N605 H611 0.984 . S
N605 H612 0.984 . S
N606 C599 1.356 . S
N606 H609 0.984 . S
N606 H610 0.985 . S
H607 N602 0.984 . S
H608 N602 0.985 . S
H609 N606 0.984 . S
H610 N606 0.985 . S
H611 N605 0.984 . S
H612 N605 0.984 . S
H613 N601 0.984 . S
H614 N601 0.985 . S
C615 C616 1.363 . S
C615 C621 1.379 . S
C615 N623 1.356 . S
C616 C615 1.363 . S
C616 C622 1.363 . S
C617 C618 1.363 . S
C617 C622 1.379 . S
C617 N624 1.356 . S
C618 C617 1.363 . S
C618 C621 1.363 . S
N619 C621 1.356 . S
N619 H631 0.984 . S
N619 H632 0.985 . S
N620 C622 1.356 . S
N620 H625 0.984 . S
N620 H626 0.985 . S
C621 C615 1.379 . S
C621 C618 1.363 . S
C621 N619 1.356 . S
C622 C616 1.363 . S
C622 C617 1.379 . S
C622 N620 1.356 . S
N623 C615 1.356 . S
N623 H629 0.984 . S
N623 H630 0.984 . S
N624 C617 1.356 . S
N624 H627 0.984 . S
N624 H628 0.985 . S
H625 N620 0.984 . S
H626 N620 0.985 . S
H627 N624 0.984 . S
H628 N624 0.985 . S
H629 N623 0.984 . S
H630 N623 0.984 . S
H631 N619 0.984 . S
H632 N619 0.985 . S
C202 C16 1.751 . S
C204 C108 1.765 . S
C220 C26 1.475 . S
C222 C140 1.514 . S
C240 C199 1.797 . S
C238 C52 1.797 . S
C258 C128 1.401 . S
C256 C62 1.404 . S
C274 C80 1.718 . S
C276 C158 1.652 . S
C294 C180 1.402 . S
C292 C98 1.336 . S
C312 C149 1.788 . S
C310 C43 1.713 . S
C328 C68 1.411 . S
C330 C189 1.410 . S
C348 C138 1.682 . S
C346 C86 1.677 1_556 S
C364 C104 1.485 . S
C366 C168 1.472 . S
C382 C7 1.726 . S
C384 C171 1.726 . S
C402 C110 1.587 . S
C400 C32 1.552 1_556 S
C420 C118 1.697 . S
C418 C61 1.681 . S
C438 C159 1.463 . S
C436 C79 1.448 1_556 S
C456 C172 1.785 . S
C454 C97 1.816 . S
C474 C109 1.390 . S
C472 C14 1.408 . S
C492 C169 1.590 . S
C490 C25 1.615 1_556 S
C508 C50 1.318 . S
C510 C170 1.343 . S
C528 C139 1.684 . S
C526 C106 1.699 . S
C546 C200 1.344 . S
C544 C8 1.318 . S
C564 C127 1.581 . S
C562 C34 1.647 . S
C582 C141 1.465 . S
C580 C44 1.485 . S
C598 C70 1.727 . S
C600 C190 1.689 . S
C616 C88 1.540 . S
C618 C137 1.553 . S
