# Generated by pormake.
# Topology anh, (6,3)-cn, num edge types: 1
# Building blocks:
#     Node 0, Type 0, BuildingBlock: VOLQOD_clean_sbu_1, # of connection points: 6
#     Node 1, Type 0, BuildingBlock: VOLQOD_clean_sbu_1, # of connection points: 6
#     Node 2, Type 0, BuildingBlock: VOLQOD_clean_sbu_1, # of connection points: 6
#     Node 3, Type 1, BuildingBlock: BETDAH_clean_linker_0, # of connection points: 3
#     Node 4, Type 1, BuildingBlock: BETDAH_clean_linker_0, # of connection points: 3
#     Node 5, Type 1, BuildingBlock: BETDAH_clean_linker_0, # of connection points: 3
#     Node 6, Type 1, BuildingBlock: BETDAH_clean_linker_0, # of connection points: 3
#     Node 7, Type 1, BuildingBlock: BETDAH_clean_linker_0, # of connection points: 3
#     Node 8, Type 1, BuildingBlock: BETDAH_clean_linker_0, # of connection points: 3
#     Edge 9, Type (0, 1), BuildingBlock: CIFDUS_clean_linker_0, # of connection points: 2
#     Edge 10, Type (0, 1), BuildingBlock: CIFDUS_clean_linker_0, # of connection points: 2
#     Edge 11, Type (0, 1), BuildingBlock: CIFDUS_clean_linker_0, # of connection points: 2
#     Edge 12, Type (0, 1), BuildingBlock: CIFDUS_clean_linker_0, # of connection points: 2
#     Edge 13, Type (0, 1), BuildingBlock: CIFDUS_clean_linker_0, # of connection points: 2
#     Edge 14, Type (0, 1), BuildingBlock: CIFDUS_clean_linker_0, # of connection points: 2
#     Edge 15, Type (0, 1), BuildingBlock: CIFDUS_clean_linker_0, # of connection points: 2
#     Edge 16, Type (0, 1), BuildingBlock: CIFDUS_clean_linker_0, # of connection points: 2
#     Edge 17, Type (0, 1), BuildingBlock: CIFDUS_clean_linker_0, # of connection points: 2
#     Edge 18, Type (0, 1), BuildingBlock: CIFDUS_clean_linker_0, # of connection points: 2
#     Edge 19, Type (0, 1), BuildingBlock: CIFDUS_clean_linker_0, # of connection points: 2
#     Edge 20, Type (0, 1), BuildingBlock: CIFDUS_clean_linker_0, # of connection points: 2
#     Edge 21, Type (0, 1), BuildingBlock: CIFDUS_clean_linker_0, # of connection points: 2
#     Edge 22, Type (0, 1), BuildingBlock: CIFDUS_clean_linker_0, # of connection points: 2
#     Edge 23, Type (0, 1), BuildingBlock: CIFDUS_clean_linker_0, # of connection points: 2
#     Edge 24, Type (0, 1), BuildingBlock: CIFDUS_clean_linker_0, # of connection points: 2
#     Edge 25, Type (0, 1), BuildingBlock: CIFDUS_clean_linker_0, # of connection points: 2
#     Edge 26, Type (0, 1), BuildingBlock: CIFDUS_clean_linker_0, # of connection points: 2
# Relax obj value: 0.158
# Max RMSD: 0.216
# Mean RMSD: 0.135
data_MOF--net-anh--node1-VOLQOD_clean_sbu_1--node2-BETDAH_clean_linker_0--edge1-CIFDUS_clean_linker_0
_symmetry_space_group_name_H-M    P1
_symmetry_Int_Tables_number       1
_symmetry_cell_setting            triclinic
loop_
_symmetry_equiv_pos_as_xyz
'x, y, z'
_cell_length_a     26.295432
_cell_length_b     26.092443
_cell_length_c     49.468337
_cell_angle_alpha  92.86282
_cell_angle_beta   92.595832
_cell_angle_gamma 121.04673
loop_
_atom_site_label
_atom_site_type_symbol
_atom_site_fract_x
_atom_site_fract_y
_atom_site_fract_z
_atom_type_partial_charge
O0 O 0.0434 0.62963 0.22041 0.0
Zn1 Zn 0.03633 0.64397 0.18053 0.0
O2 O 0.04314 0.58476 0.15701 0.0
Zn3 Zn 0.96966 0.53214 0.13506 0.0
Zn4 Zn 0.05983 0.53482 0.17903 0.0
Zn5 Zn 0.10609 0.62536 0.13274 0.0
O6 O 0.98091 0.53575 0.09529 0.0
O7 O 0.07391 0.61107 0.09339 0.0
O8 O 0.95726 0.63982 0.17157 0.0
O9 O 0.91415 0.55959 0.14165 0.0
O10 O 0.92703 0.4468 0.14509 0.0
O11 O 0.98982 0.4504 0.17756 0.0
O12 O 0.12877 0.53014 0.16646 0.0
O13 O 0.1063 0.72751 0.17673 0.0
O14 O 0.16077 0.59323 0.13416 0.0
O15 O 0.15561 0.71347 0.14471 0.0
C16 C 0.06315 0.59987 0.23195 0.0
C17 C 0.02352 0.57104 0.0817 0.0
C18 C 0.94046 0.42167 0.16309 0.0
C19 C 0.91285 0.60096 0.15563 0.0
C20 C 0.16438 0.55566 0.1483 0.0
C21 C 0.15063 0.74776 0.16226 0.0
O22 O 0.07535 0.56565 0.21813 0.0
O23 O 0.50498 0.04256 0.44052 0.0
Zn24 Zn 0.49018 0.04367 0.48075 0.0
O25 O 0.54889 0.0343 0.50251 0.0
Zn26 Zn 0.60432 0.10703 0.52437 0.0
Zn27 Zn 0.59407 0.01475 0.47884 0.0
Zn28 Zn 0.50924 0.97182 0.5269 0.0
O29 O 0.60473 0.09438 0.56406 0.0
O30 O 0.52279 0.00527 0.56608 0.0
O31 O 0.49284 0.12106 0.49379 0.0
O32 O 0.57602 0.163 0.52129 0.0
O33 O 0.68709 0.14912 0.51184 0.0
O34 O 0.67843 0.0837 0.47893 0.0
O35 O 0.59756 0.94392 0.49028 0.0
O36 O 0.40795 0.97092 0.48316 0.0
O37 O 0.54313 0.91859 0.52574 0.0
O38 O 0.42219 0.92025 0.51443 0.0
C39 C 0.53018 0.01897 0.42778 0.0
C40 C 0.56658 0.05382 0.57776 0.0
C41 C 0.70921 0.13394 0.49295 0.0
C42 C 0.53288 0.16479 0.50978 0.0
C43 C 0.57644 0.91157 0.51 0.0
C44 C 0.38826 0.92516 0.49686 0.0
O45 O 0.56042 0.00082 0.44046 0.0
O46 O 0.47636 0.5201 0.77747 0.0
Zn47 Zn 0.44662 0.48846 0.81369 0.0
O48 O 0.50134 0.54188 0.84428 0.0
Zn49 Zn 0.46679 0.57575 0.8675 0.0
Zn50 Zn 0.5717 0.60646 0.83008 0.0
Zn51 Zn 0.52054 0.49648 0.86775 0.0
O52 O 0.47668 0.56666 0.90783 0.0
O53 O 0.48702 0.48758 0.90391 0.0
O54 O 0.36454 0.47523 0.81783 0.0
O55 O 0.37975 0.53095 0.85647 0.0
O56 O 0.49918 0.66259 0.86147 0.0
O57 O 0.57303 0.68421 0.83533 0.0
O58 O 0.64627 0.61537 0.84838 0.0
O59 O 0.44282 0.40895 0.81222 0.0
O60 O 0.60852 0.54031 0.87525 0.0
O61 O 0.49399 0.41489 0.85047 0.0
C62 C 0.52862 0.55823 0.77138 0.0
C63 C 0.47801 0.52358 0.91816 0.0
C64 C 0.54116 0.69951 0.84801 0.0
C65 C 0.3453 0.49418 0.83674 0.0
C66 C 0.65277 0.58554 0.86641 0.0
C67 C 0.46378 0.38647 0.82831 0.0
O68 O 0.57028 0.591 0.78976 0.0
H69 H 0.41868 0.99052 0.25608 0.0
H70 H 0.60825 0.07935 0.27202 0.0
H71 H 0.53228 0.03451 0.18981 0.0
C72 C 0.4624 0.0124 0.24847 0.0
C73 C 0.46833 0.00943 0.22029 0.0
C74 C 0.51261 0.0382 0.26725 0.0
C75 C 0.56923 0.06142 0.25776 0.0
C76 C 0.57618 0.06071 0.22998 0.0
C77 C 0.5261 0.03612 0.21126 0.0
N78 N 0.63254 0.0761 0.22142 0.0
C79 C 0.66477 0.12365 0.20585 0.0
H80 H 0.53827 0.43061 0.60933 0.0
H81 H 0.61404 0.62242 0.61197 0.0
H82 H 0.64895 0.53201 0.54754 0.0
C83 C 0.56337 0.47292 0.60037 0.0
C84 C 0.59076 0.47479 0.57639 0.0
C85 C 0.57263 0.52634 0.61386 0.0
C86 C 0.60684 0.58093 0.60208 0.0
C87 C 0.63437 0.58263 0.57824 0.0
C88 C 0.62677 0.52994 0.56578 0.0
N89 N 0.67221 0.63722 0.567 0.0
C90 C 0.65719 0.68047 0.56461 0.0
H91 H 0.97374 0.62966 0.92813 0.0
H92 H 0.04403 0.5181 0.90756 0.0
H93 H 0.94049 0.54591 0.8469 0.0
C94 C 0.98073 0.60295 0.91294 0.0
C95 C 0.95389 0.59207 0.88649 0.0
C96 C 0.01231 0.57559 0.92074 0.0
C97 C 0.02129 0.54071 0.90126 0.0
C98 C -0.00374 0.53111 0.87432 0.0
C99 C 0.96245 0.55649 0.86722 0.0
N100 N 0.00031 0.49259 0.85441 0.0
C101 C 0.04378 0.47769 0.85633 0.0
H102 H 0.1491 0.65203 0.39977 0.0
H103 H 0.05374 0.45988 0.38529 0.0
H104 H 0.10793 0.54039 0.46681 0.0
C105 C 0.127 0.60832 0.40768 0.0
C106 C 0.1319 0.60348 0.43586 0.0
C107 C 0.09835 0.55681 0.38925 0.0
C108 C 0.07426 0.50006 0.39921 0.0
C109 C 0.07739 0.49441 0.42705 0.0
C110 C 0.10489 0.54576 0.44534 0.0
N111 N 0.06119 0.4378 0.43605 0.0
C112 C 0.01113 0.40493 0.44999 0.0
H113 H 0.50427 0.12646 0.72615 0.0
H114 H 0.5809 0.02611 0.75447 0.0
H115 H 0.55932 0.1423 0.81109 0.0
C116 C 0.52294 0.11428 0.74285 0.0
C117 C 0.52784 0.13886 0.76942 0.0
C118 C 0.54293 0.07462 0.7373 0.0
C119 C 0.56499 0.05634 0.75876 0.0
C120 C 0.57016 0.08063 0.78551 0.0
C121 C 0.55268 0.12234 0.79053 0.0
N122 N 0.59549 0.06665 0.80774 0.0
C123 C 0.59551 0.01359 0.80848 0.0
H124 H 0.61421 0.5605 0.07845 0.0
H125 H 0.42393 0.46613 0.08273 0.0
H126 H 0.53509 0.45678 0.14594 0.0
C127 C 0.57534 0.53386 0.08938 0.0
C128 C 0.58165 0.51196 0.11391 0.0
C129 C 0.51833 0.51669 0.07772 0.0
C130 C 0.46804 0.48 0.09162 0.0
C131 C 0.47445 0.45881 0.11633 0.0
C132 C 0.53087 0.47435 0.12711 0.0
N133 N 0.42469 0.41966 0.13023 0.0
C134 C 0.37634 0.42686 0.1319 0.0
H135 H 0.16885 0.46069 0.16527 0.0
H136 H 0.26016 0.61393 0.11839 0.0
H137 H 0.33293 0.58575 0.1082 0.0
H138 H 0.3715 0.5182 0.11317 0.0
H139 H 0.28021 0.36511 0.15969 0.0
H140 H 0.20589 0.39216 0.16937 0.0
C141 C 0.20481 0.48812 0.15293 0.0
C142 C 0.20926 0.53949 0.14273 0.0
C143 C 0.24609 0.47138 0.14694 0.0
C144 C 0.25575 0.57416 0.12651 0.0
C145 C 0.29735 0.55809 0.12064 0.0
C146 C 0.33483 0.49068 0.12517 0.0
C147 C 0.33029 0.43979 0.13563 0.0
C148 C 0.29291 0.50682 0.13074 0.0
C149 C 0.28358 0.40429 0.15137 0.0
C150 C 0.24151 0.4199 0.15697 0.0
H151 H 0.7757 0.25456 0.50694 0.0
H152 H 0.77858 0.11032 0.46166 0.0
H153 H 0.87392 0.18211 0.44526 0.0
H154 H 0.95386 0.28627 0.44166 0.0
H155 H 0.95062 0.43122 0.48542 0.0
H156 H 0.85792 0.35893 0.50463 0.0
C157 C 0.79757 0.23875 0.49379 0.0
C158 C 0.76993 0.1771 0.48552 0.0
C159 C 0.85199 0.28047 0.48399 0.0
C160 C 0.7987 0.15748 0.46827 0.0
C161 C 0.85319 0.1985 0.45882 0.0
C162 C 0.93279 0.30171 0.45555 0.0
C163 C 0.95815 0.36331 0.46225 0.0
C164 C 0.8797 0.26008 0.46619 0.0
C165 C 0.93122 0.3836 0.48012 0.0
C166 C 0.87845 0.34237 0.49104 0.0
H167 H 0.6057 0.77942 0.81189 0.0
H168 H 0.49554 0.75473 0.87805 0.0
H169 H 0.50346 0.85059 0.8716 0.0
H170 H 0.53894 0.94006 0.84626 0.0
H171 H 0.64695 0.96439 0.77962 0.0
H172 H 0.64259 0.86979 0.78701 0.0
C173 C 0.58391 0.79525 0.82509 0.0
C174 C 0.5501 0.75987 0.84545 0.0
C175 C 0.58787 0.85003 0.82101 0.0
C176 C 0.52175 0.78092 0.8622 0.0
C177 C 0.52614 0.8357 0.85851 0.0
C178 C 0.56142 0.92435 0.83343 0.0
C179 C 0.59299 0.95815 0.81244 0.0
C180 C 0.55849 0.87024 0.83781 0.0
C181 C 0.62227 0.93834 0.79585 0.0
C182 C 0.61982 0.88454 0.80012 0.0
H183 H 0.80573 0.50337 0.15521 0.0
H184 H 0.89351 0.69452 0.1505 0.0
H185 H 0.79698 0.68444 0.13744 0.0
H186 H 0.68826 0.61846 0.12345 0.0
H187 H 0.6049 0.42708 0.12775 0.0
H188 H 0.69934 0.43984 0.14464 0.0
C189 C 0.80359 0.543 0.15171 0.0
C190 C 0.85616 0.59946 0.15359 0.0
C191 C 0.74892 0.53653 0.14373 0.0
C192 C 0.85321 0.65065 0.14932 0.0
C193 C 0.79825 0.6447 0.14155 0.0
C194 C 0.69114 0.57984 0.12816 0.0
C195 C 0.63987 0.52192 0.1244 0.0
C196 C 0.74597 0.58751 0.13797 0.0
C197 C 0.64369 0.47208 0.13073 0.0
C198 C 0.69761 0.47928 0.14034 0.0
H199 H 0.34286 0.81201 0.51184 0.0
H200 H 0.29872 0.91887 0.46332 0.0
H201 H 0.20949 0.8278 0.44277 0.0
H202 H 0.15179 0.7176 0.4343 0.0
H203 H 0.20478 0.61287 0.47966 0.0
H204 H 0.28109 0.70303 0.50613 0.0
C205 C 0.31317 0.81572 0.49721 0.0
C206 C 0.32801 0.8723 0.48894 0.0
C207 C 0.26336 0.7632 0.4847 0.0
C208 C 0.28874 0.87591 0.46994 0.0
C209 C 0.2378 0.82378 0.45806 0.0
C210 C 0.17984 0.71435 0.45002 0.0
C211 C 0.1722 0.65796 0.45465 0.0
C212 C 0.226 0.76706 0.46451 0.0
C213 C 0.20834 0.65496 0.47567 0.0
C214 C 0.25282 0.70685 0.49073 0.0
H215 H 0.48325 0.3548 0.77908 0.0
H216 H 0.44013 0.29411 0.8589 0.0
H217 H 0.45015 0.20778 0.84658 0.0
H218 H 0.47893 0.15471 0.81436 0.0
H219 H 0.53685 0.2253 0.737 0.0
H220 H 0.51183 0.30148 0.74681 0.0
C221 C 0.47476 0.3218 0.7935 0.0
C222 C 0.46029 0.32997 0.81968 0.0
C223 C 0.48368 0.27432 0.78675 0.0
C224 C 0.4509 0.28812 0.83855 0.0
C225 C 0.45694 0.23911 0.83155 0.0
C226 C 0.48666 0.18697 0.79968 0.0
C227 C 0.50987 0.1838 0.77495 0.0
C228 C 0.47488 0.23269 0.80595 0.0
C229 C 0.51803 0.22543 0.75599 0.0
C230 C 0.50426 0.26962 0.76167 0.0
H231 H 0.55746 0.85071 0.55501 0.0
H232 H 0.63473 0.87358 0.47801 0.0
H233 H 0.66742 0.80414 0.48858 0.0
H234 H 0.67498 0.7377 0.51992 0.0
H235 H 0.59881 0.71535 0.59685 0.0
H236 H 0.56482 0.78438 0.58623 0.0
C237 C 0.58111 0.84027 0.54043 0.0
C238 C 0.59354 0.86723 0.51573 0.0
C239 C 0.60031 0.80089 0.54675 0.0
C240 C 0.62462 0.85349 0.49718 0.0
C241 C 0.64342 0.81388 0.50321 0.0
C242 C 0.65118 0.74846 0.53431 0.0
C243 C 0.63945 0.72261 0.5591 0.0
C244 C 0.63182 0.78767 0.52797 0.0
C245 C 0.60837 0.73567 0.57772 0.0
C246 C 0.58889 0.77476 0.5716 0.0
H247 H 0.75138 0.63005 0.83837 0.0
H248 H 0.68708 0.57212 0.91651 0.0
H249 H 0.77953 0.57715 0.93082 0.0
H250 H 0.87044 0.58302 0.9188 0.0
H251 H 0.93498 0.63628 0.84023 0.0
H252 H 0.85004 0.64758 0.82821 0.0
C253 C 0.75845 0.62003 0.85873 0.0
C254 C 0.71262 0.60021 0.87631 0.0
C255 C 0.81099 0.62108 0.86651 0.0
C256 C 0.72173 0.58685 0.90258 0.0
C257 C 0.77441 0.58958 0.91074 0.0
C258 C 0.86726 0.59908 0.89936 0.0
C259 C 0.90894 0.60881 0.88043 0.0
C260 C 0.81824 0.60445 0.89253 0.0
C261 C 0.90304 0.62797 0.85505 0.0
C262 C 0.85462 0.63451 0.8482 0.0
H263 H 0.26168 0.79582 0.14527 0.0
H264 H 0.15605 0.83823 0.19551 0.0
H265 H 0.24604 0.93023 0.21472 0.0
H266 H 0.35536 0.99007 0.22204 0.0
H267 H 0.45937 0.93836 0.17535 0.0
H268 H 0.36967 0.86054 0.14941 0.0
C269 C 0.25795 0.82573 0.15997 0.0
C270 C 0.20215 0.80953 0.1692 0.0
C271 C 0.30997 0.87713 0.17175 0.0
C272 C 0.19846 0.84918 0.18821 0.0
C273 C 0.24998 0.90173 0.19931 0.0
C274 C 0.35859 0.96203 0.20612 0.0
C275 C 0.4146 0.97021 0.20111 0.0
C276 C 0.30619 0.91474 0.19208 0.0
C277 C 0.41755 0.93429 0.17972 0.0
C278 C 0.36591 0.88888 0.16498 0.0
H279 H 0.6265 0.27494 0.5221 0.0
H280 H 0.43452 0.17597 0.51378 0.0
H281 H 0.43487 0.26417 0.53421 0.0
H282 H 0.49131 0.36786 0.55754 0.0
H283 H 0.68336 0.46211 0.56611 0.0
H284 H 0.68154 0.37652 0.54301 0.0
C285 C 0.58458 0.2727 0.52451 0.0
C286 C 0.53058 0.21912 0.5167 0.0
C287 C 0.5853 0.32233 0.53681 0.0
C288 C 0.47667 0.21703 0.51953 0.0
C289 C 0.47694 0.26713 0.5315 0.0
C290 C 0.53247 0.3691 0.5544 0.0
C291 C 0.58742 0.42081 0.56352 0.0
C292 C 0.5311 0.31959 0.54084 0.0
C293 C 0.64068 0.42268 0.55916 0.0
C294 C 0.63969 0.37395 0.54592 0.0
H295 H 0.28262 0.48731 0.87927 0.0
H296 H 0.26664 0.46013 0.79183 0.0
H297 H 0.16688 0.44602 0.79035 0.0
H298 H 0.08989 0.45392 0.81394 0.0
H299 H 0.10777 0.48203 0.90128 0.0
H300 H 0.20131 0.48314 0.90293 0.0
C301 C 0.25701 0.47764 0.85989 0.0
C302 C 0.28207 0.47581 0.83566 0.0
C303 C 0.20041 0.47024 0.85924 0.0
C304 C 0.24816 0.46199 0.81073 0.0
C305 C 0.19138 0.45428 0.80988 0.0
C306 C 0.11398 0.45909 0.83327 0.0
C307 C 0.09302 0.46843 0.85744 0.0
C308 C 0.16789 0.46014 0.83397 0.0
C309 C 0.12376 0.47518 0.88247 0.0
C310 C 0.17715 0.47589 0.8834 0.0
H311 H 0.82058 0.36058 0.15007 0.0
H312 H 0.96031 0.34498 0.19064 0.0
H313 H 0.88633 0.24871 0.20594 0.0
H314 H 0.78187 0.17271 0.21077 0.0
H315 H 0.64155 0.18933 0.17224 0.0
H316 H 0.71566 0.28155 0.15303 0.0
C317 C 0.83488 0.33564 0.16188 0.0
C318 C 0.89593 0.36002 0.16925 0.0
C319 C 0.79196 0.28087 0.17116 0.0
C320 C 0.91365 0.32738 0.18479 0.0
C321 C 0.87138 0.27238 0.1936 0.0
C322 C 0.7678 0.19642 0.1979 0.0
C323 C 0.70703 0.17506 0.19274 0.0
C324 C 0.81049 0.24937 0.18739 0.0
C325 C 0.68851 0.20553 0.17628 0.0
C326 C 0.73078 0.25806 0.16539 0.0
H327 H 0.10599 0.60832 0.04403 0.0
H328 H 0.917 0.52165 0.05228 0.0
H329 H 0.89761 0.51388 0.00324 0.0
H330 H 0.93375 0.53382 0.9582 0.0
H331 H 0.12125 0.61699 0.9484 0.0
H332 H 0.14208 0.62342 0.99789 0.0
C333 C 0.06065 0.58781 0.03504 0.0
C334 C 0.01304 0.56596 0.05181 0.0
C335 C 0.0496 0.58267 0.00663 0.0
C336 C 0.95443 0.53875 0.03987 0.0
C337 C 0.94324 0.53433 0.01182 0.0
C338 C 0.97917 0.5532 0.96698 0.0
C339 C 0.02608 0.57558 0.95 0.0
C340 C -0.0096 0.55639 0.99509 0.0
C341 C 0.08465 0.59969 0.96129 0.0
C342 C 0.09642 0.60355 0.98949 0.0
H343 H 0.47252 0.05341 0.39194 0.0
H344 H 0.58252 0.97491 0.39564 0.0
H345 H 0.58522 0.97291 0.34671 0.0
H346 H 0.55988 0.99614 0.30288 0.0
H347 H 0.44944 0.07325 0.29765 0.0
H348 H 0.44287 0.0725 0.34701 0.0
C349 C 0.49679 0.03559 0.38202 0.0
C350 C 0.5276 0.01482 0.39766 0.0
C351 C 0.49828 0.03441 0.35357 0.0
C352 C 0.55855 0.99154 0.38433 0.0
C353 C 0.56026 0.99035 0.35625 0.0
C354 C 0.53458 0.01304 0.31259 0.0
C355 C 0.50594 0.03554 0.29683 0.0
C356 C 0.53097 0.01228 0.34073 0.0
C357 C 0.47203 0.05589 0.30949 0.0
C358 C 0.46844 0.0556 0.33766 0.0
H359 H 0.45933 0.48359 0.72693 0.0
H360 H 0.62959 0.64402 0.75091 0.0
H361 H 0.65646 0.64939 0.70426 0.0
H362 H 0.63455 0.60601 0.65734 0.0
H363 H 0.46534 0.44549 0.63258 0.0
H364 H 0.43545 0.44244 0.67893 0.0
C365 C 0.50207 0.52005 0.72191 0.0
C366 C 0.54239 0.56319 0.74252 0.0
C367 C 0.5177 0.52265 0.69495 0.0
C368 C 0.59771 0.60997 0.73559 0.0
C369 C 0.61322 0.61314 0.70887 0.0
C370 C 0.5906 0.57096 0.66188 0.0
C371 C 0.55214 0.52622 0.64143 0.0
C372 C 0.57391 0.56939 0.68849 0.0
C373 C 0.49598 0.48029 0.64795 0.0
C374 C 0.47881 0.47863 0.67444 0.0
H375 H 0.51201 0.9727 0.61538 0.0
H376 H 0.63369 0.16127 0.60742 0.0
H377 H 0.63918 0.18309 0.65619 0.0
H378 H 0.6057 0.15011 0.70077 0.0
H379 H 0.48653 0.96249 0.71014 0.0
H380 H 0.48414 0.93846 0.66119 0.0
C381 C 0.53988 0.01848 0.62436 0.0
C382 C 0.57198 0.0653 0.60768 0.0
C383 C 0.5433 0.03085 0.65263 0.0
C384 C 0.60847 0.12432 0.61969 0.0
C385 C 0.6116 0.13696 0.64761 0.0
C386 C 0.57964 0.10391 0.69203 0.0
C387 C 0.54595 0.05808 0.7087 0.0
C388 C 0.5787 0.09079 0.66418 0.0
C389 C 0.51277 0.99831 0.69749 0.0
C390 C 0.51123 0.98476 0.66958 0.0
H391 H 0.53199 0.60874 0.96079 0.0
H392 H 0.41057 0.41923 0.94054 0.0
H393 H 0.40772 0.40147 0.98864 0.0
H394 H 0.44647 0.43825 0.03593 0.0
H395 H 0.57529 0.6259 0.05646 0.0
H396 H 0.56892 0.64628 0.00892 0.0
C397 C 0.50413 0.56386 0.96708 0.0
C398 C 0.47114 0.51534 0.94732 0.0
C399 C 0.50467 0.55367 0.99476 0.0
C400 C 0.43615 0.45715 0.9555 0.0
C401 C 0.43465 0.44699 0.98295 0.0
C402 C 0.47229 0.48378 0.03006 0.0
C403 C 0.51091 0.53062 0.04962 0.0
C404 C 0.46969 0.49466 0.00269 0.0
C405 C 0.54522 0.5892 0.04168 0.0
C406 C 0.54156 0.60079 0.01454 0.0
H407 H 0.10099 0.54 0.262 0.0
H408 H 0.04092 0.66557 0.26977 0.0
H409 H 0.0486 0.66525 0.31928 0.0
H410 H 0.06901 0.62595 0.3604 0.0
H411 H 0.12771 0.49956 0.35138 0.0
H412 H 0.12367 0.5035 0.30228 0.0
C413 C 0.08971 0.56762 0.27441 0.0
C414 C 0.07018 0.60261 0.26205 0.0
C415 C 0.09367 0.56678 0.3027 0.0
C416 C 0.05598 0.63809 0.27865 0.0
C417 C 0.06029 0.63787 0.30699 0.0
C418 C 0.0813 0.5997 0.34763 0.0
C419 C 0.09796 0.56198 0.35949 0.0
C420 C 0.07862 0.60195 0.31924 0.0
C421 C 0.11365 0.52805 0.34273 0.0
C422 C 0.11166 0.5305 0.31466 0.0
loop_
_geom_bond_atom_site_label_1
_geom_bond_atom_site_label_2
_geom_bond_distance
_geom_bond_site_symmetry_2
_ccdc_geom_bond_type
O0 Zn1 1.953 . S
O0 C16 1.225 . S
Zn1 O0 1.953 . S
Zn1 O2 1.949 . S
Zn1 O8 1.919 1_455 S
Zn1 O13 1.924 . S
O2 Zn1 1.949 . S
O2 Zn3 1.923 1_455 S
O2 Zn4 1.950 . S
O2 Zn5 1.945 . S
Zn3 O2 1.923 1_655 S
Zn3 O6 1.933 . S
Zn3 O9 1.941 . S
Zn3 O10 1.965 . S
Zn4 O2 1.950 . S
Zn4 O11 1.938 1_455 S
Zn4 O12 1.906 . S
Zn4 O22 1.953 . S
Zn5 O2 1.945 . S
Zn5 O7 1.932 . S
Zn5 O14 1.977 . S
Zn5 O15 1.910 . S
O6 Zn3 1.933 . S
O6 C17 1.226 1_655 S
O7 Zn5 1.932 . S
O7 C17 1.307 . S
O8 Zn1 1.919 1_655 S
O8 C19 1.253 . S
O9 Zn3 1.941 . S
O9 C19 1.283 . S
O10 Zn3 1.965 . S
O10 C18 1.303 . S
O11 Zn4 1.938 1_655 S
O11 C18 1.247 . S
O12 Zn4 1.906 . S
O12 C20 1.304 . S
O13 Zn1 1.924 . S
O13 C21 1.311 . S
O14 Zn5 1.977 . S
O14 C20 1.272 . S
O15 Zn5 1.910 . S
O15 C21 1.231 . S
C16 O0 1.225 . S
C16 O22 1.298 . S
C17 O6 1.226 1_455 S
C17 O7 1.307 . S
C18 O10 1.303 . S
C18 O11 1.247 . S
C19 O8 1.253 . S
C19 O9 1.283 . S
C20 O12 1.304 . S
C20 O14 1.272 . S
C21 O13 1.311 . S
C21 O15 1.231 . S
O22 Zn4 1.953 . S
O22 C16 1.298 . S
O23 Zn24 1.953 . S
O23 C39 1.225 . S
Zn24 O23 1.953 . S
Zn24 O25 1.949 . S
Zn24 O31 1.919 . S
Zn24 O36 1.924 1_545 S
O25 Zn24 1.949 . S
O25 Zn26 1.923 . S
O25 Zn27 1.950 . S
O25 Zn28 1.945 1_545 S
Zn26 O25 1.923 . S
Zn26 O29 1.933 . S
Zn26 O32 1.941 . S
Zn26 O33 1.965 . S
Zn27 O25 1.950 . S
Zn27 O34 1.938 . S
Zn27 O35 1.906 1_545 S
Zn27 O45 1.953 . S
Zn28 O25 1.945 1_565 S
Zn28 O30 1.932 1_565 S
Zn28 O37 1.977 . S
Zn28 O38 1.910 . S
O29 Zn26 1.933 . S
O29 C40 1.226 . S
O30 Zn28 1.932 1_545 S
O30 C40 1.307 . S
O31 Zn24 1.919 . S
O31 C42 1.253 . S
O32 Zn26 1.941 . S
O32 C42 1.283 . S
O33 Zn26 1.965 . S
O33 C41 1.303 . S
O34 Zn27 1.938 . S
O34 C41 1.247 . S
O35 Zn27 1.906 1_565 S
O35 C43 1.304 . S
O36 Zn24 1.924 1_565 S
O36 C44 1.311 . S
O37 Zn28 1.977 . S
O37 C43 1.272 . S
O38 Zn28 1.910 . S
O38 C44 1.231 . S
C39 O23 1.225 . S
C39 O45 1.298 . S
C40 O29 1.226 . S
C40 O30 1.307 . S
C41 O33 1.303 . S
C41 O34 1.247 . S
C42 O31 1.253 . S
C42 O32 1.283 . S
C43 O35 1.304 . S
C43 O37 1.272 . S
C44 O36 1.311 . S
C44 O38 1.231 . S
O45 Zn27 1.953 . S
O45 C39 1.298 . S
O46 Zn47 1.953 . S
O46 C62 1.225 . S
Zn47 O46 1.953 . S
Zn47 O48 1.949 . S
Zn47 O54 1.919 . S
Zn47 O59 1.924 . S
O48 Zn47 1.949 . S
O48 Zn49 1.923 . S
O48 Zn50 1.950 . S
O48 Zn51 1.945 . S
Zn49 O48 1.923 . S
Zn49 O52 1.933 . S
Zn49 O55 1.941 . S
Zn49 O56 1.965 . S
Zn50 O48 1.950 . S
Zn50 O57 1.938 . S
Zn50 O58 1.906 . S
Zn50 O68 1.953 . S
Zn51 O48 1.945 . S
Zn51 O53 1.932 . S
Zn51 O60 1.977 . S
Zn51 O61 1.910 . S
O52 Zn49 1.933 . S
O52 C63 1.226 . S
O53 Zn51 1.932 . S
O53 C63 1.307 . S
O54 Zn47 1.919 . S
O54 C65 1.253 . S
O55 Zn49 1.941 . S
O55 C65 1.283 . S
O56 Zn49 1.965 . S
O56 C64 1.303 . S
O57 Zn50 1.938 . S
O57 C64 1.247 . S
O58 Zn50 1.906 . S
O58 C66 1.304 . S
O59 Zn47 1.924 . S
O59 C67 1.311 . S
O60 Zn51 1.977 . S
O60 C66 1.272 . S
O61 Zn51 1.910 . S
O61 C67 1.231 . S
C62 O46 1.225 . S
C62 O68 1.298 . S
C63 O52 1.226 . S
C63 O53 1.307 . S
C64 O56 1.303 . S
C64 O57 1.247 . S
C65 O54 1.253 . S
C65 O55 1.283 . S
C66 O58 1.304 . S
C66 O60 1.272 . S
C67 O59 1.311 . S
C67 O61 1.231 . S
O68 Zn50 1.953 . S
O68 C62 1.298 . S
H69 C72 0.929 1_565 S
H70 C75 0.929 . S
H71 C77 0.930 . S
C72 H69 0.929 1_545 S
C72 C73 1.398 1_545 S
C72 C74 1.396 . S
C73 C72 1.398 1_565 S
C73 C77 1.407 1_565 S
C74 C72 1.396 . S
C74 C75 1.394 . S
C75 H70 0.929 . S
C75 C74 1.394 . S
C75 C76 1.382 . S
C76 C75 1.382 . S
C76 C77 1.392 . S
C76 N78 1.420 . S
C77 H71 0.930 . S
C77 C73 1.407 1_545 S
C77 C76 1.392 . S
N78 C76 1.420 . S
N78 C79 1.244 . S
C79 N78 1.244 . S
H80 C83 0.929 . S
H81 C86 0.929 . S
H82 C88 0.930 . S
C83 H80 0.929 . S
C83 C84 1.398 . S
C83 C85 1.396 . S
C84 C83 1.398 . S
C84 C88 1.407 . S
C85 C83 1.396 . S
C85 C86 1.394 . S
C86 H81 0.929 . S
C86 C85 1.394 . S
C86 C87 1.382 . S
C87 C86 1.382 . S
C87 C88 1.392 . S
C87 N89 1.420 . S
C88 H82 0.930 . S
C88 C84 1.407 . S
C88 C87 1.392 . S
N89 C87 1.420 . S
N89 C90 1.244 . S
C90 N89 1.244 . S
H91 C94 0.929 1_655 S
H92 C97 0.929 . S
H93 C99 0.930 . S
C94 H91 0.929 1_455 S
C94 C95 1.398 1_455 S
C94 C96 1.396 . S
C95 C94 1.398 1_655 S
C95 C99 1.407 1_655 S
C96 C94 1.396 . S
C96 C97 1.394 . S
C97 H92 0.929 . S
C97 C96 1.394 . S
C97 C98 1.382 . S
C98 C97 1.382 . S
C98 C99 1.392 . S
C98 N100 1.420 . S
C99 H93 0.930 . S
C99 C95 1.407 1_455 S
C99 C98 1.392 . S
N100 C98 1.420 . S
N100 C101 1.244 . S
C101 N100 1.244 . S
H102 C105 0.929 . S
H103 C108 0.929 1_655 S
H104 C110 0.930 . S
C105 H102 0.929 . S
C105 C106 1.398 . S
C105 C107 1.396 . S
C106 C105 1.398 . S
C106 C110 1.407 . S
C107 C105 1.396 . S
C107 C108 1.394 . S
C108 H103 0.929 1_455 S
C108 C107 1.394 . S
C108 C109 1.382 . S
C109 C108 1.382 . S
C109 C110 1.392 . S
C109 N111 1.420 1_455 S
C110 H104 0.930 . S
C110 C106 1.407 . S
C110 C109 1.392 . S
N111 C109 1.420 1_655 S
N111 C112 1.244 . S
C112 N111 1.244 . S
H113 C116 0.929 . S
H114 C119 0.929 1_565 S
H115 C121 0.930 . S
C116 H113 0.929 . S
C116 C117 1.398 . S
C116 C118 1.396 . S
C117 C116 1.398 . S
C117 C121 1.407 . S
C118 C116 1.396 . S
C118 C119 1.394 . S
C119 H114 0.929 1_545 S
C119 C118 1.394 . S
C119 C120 1.382 . S
C120 C119 1.382 . S
C120 C121 1.392 . S
C120 N122 1.420 1_545 S
C121 H115 0.930 . S
C121 C117 1.407 . S
C121 C120 1.392 . S
N122 C120 1.420 1_565 S
N122 C123 1.244 . S
C123 N122 1.244 . S
H124 C127 0.929 . S
H125 C130 0.929 . S
H126 C132 0.930 . S
C127 H124 0.929 . S
C127 C128 1.398 . S
C127 C129 1.396 . S
C128 C127 1.398 . S
C128 C132 1.407 . S
C129 C127 1.396 . S
C129 C130 1.394 . S
C130 H125 0.929 . S
C130 C129 1.394 . S
C130 C131 1.382 . S
C131 C130 1.382 . S
C131 C132 1.392 . S
C131 N133 1.420 . S
C132 H126 0.930 . S
C132 C128 1.407 . S
C132 C131 1.392 . S
N133 C131 1.420 . S
N133 C134 1.244 . S
C134 N133 1.244 . S
H135 C141 0.930 . S
H136 C144 0.930 . S
H137 C145 0.930 . S
H138 C146 0.930 . S
H139 C149 0.930 . S
H140 C150 0.930 . S
C141 H135 0.930 . S
C141 C142 1.355 . S
C141 C143 1.415 . S
C142 C141 1.355 . S
C142 C144 1.419 . S
C143 C141 1.415 . S
C143 C148 1.425 . S
C143 C150 1.409 . S
C144 H136 0.930 . S
C144 C142 1.419 . S
C144 C145 1.362 . S
C145 H137 0.930 . S
C145 C144 1.362 . S
C145 C148 1.409 . S
C146 H138 0.930 . S
C146 C147 1.355 . S
C146 C148 1.415 . S
C147 C146 1.355 . S
C147 C149 1.419 . S
C148 C143 1.425 . S
C148 C145 1.409 . S
C148 C146 1.415 . S
C149 H139 0.930 . S
C149 C147 1.419 . S
C149 C150 1.362 . S
C150 H140 0.930 . S
C150 C143 1.409 . S
C150 C149 1.362 . S
H151 C157 0.930 . S
H152 C160 0.930 . S
H153 C161 0.930 . S
H154 C162 0.930 . S
H155 C165 0.930 . S
H156 C166 0.930 . S
C157 H151 0.930 . S
C157 C158 1.355 . S
C157 C159 1.415 . S
C158 C157 1.355 . S
C158 C160 1.419 . S
C159 C157 1.415 . S
C159 C164 1.425 . S
C159 C166 1.409 . S
C160 H152 0.930 . S
C160 C158 1.419 . S
C160 C161 1.362 . S
C161 H153 0.930 . S
C161 C160 1.362 . S
C161 C164 1.409 . S
C162 H154 0.930 . S
C162 C163 1.355 . S
C162 C164 1.415 . S
C163 C162 1.355 . S
C163 C165 1.419 . S
C164 C159 1.425 . S
C164 C161 1.409 . S
C164 C162 1.415 . S
C165 H155 0.930 . S
C165 C163 1.419 . S
C165 C166 1.362 . S
C166 H156 0.930 . S
C166 C159 1.409 . S
C166 C165 1.362 . S
H167 C173 0.930 . S
H168 C176 0.930 . S
H169 C177 0.930 . S
H170 C178 0.930 . S
H171 C181 0.930 . S
H172 C182 0.930 . S
C173 H167 0.930 . S
C173 C174 1.355 . S
C173 C175 1.415 . S
C174 C173 1.355 . S
C174 C176 1.419 . S
C175 C173 1.415 . S
C175 C180 1.425 . S
C175 C182 1.409 . S
C176 H168 0.930 . S
C176 C174 1.419 . S
C176 C177 1.362 . S
C177 H169 0.930 . S
C177 C176 1.362 . S
C177 C180 1.409 . S
C178 H170 0.930 . S
C178 C179 1.355 . S
C178 C180 1.415 . S
C179 C178 1.355 . S
C179 C181 1.419 . S
C180 C175 1.425 . S
C180 C177 1.409 . S
C180 C178 1.415 . S
C181 H171 0.930 . S
C181 C179 1.419 . S
C181 C182 1.362 . S
C182 H172 0.930 . S
C182 C175 1.409 . S
C182 C181 1.362 . S
H183 C189 0.930 . S
H184 C192 0.930 . S
H185 C193 0.930 . S
H186 C194 0.930 . S
H187 C197 0.930 . S
H188 C198 0.930 . S
C189 H183 0.930 . S
C189 C190 1.355 . S
C189 C191 1.415 . S
C190 C189 1.355 . S
C190 C192 1.419 . S
C191 C189 1.415 . S
C191 C196 1.425 . S
C191 C198 1.409 . S
C192 H184 0.930 . S
C192 C190 1.419 . S
C192 C193 1.362 . S
C193 H185 0.930 . S
C193 C192 1.362 . S
C193 C196 1.409 . S
C194 H186 0.930 . S
C194 C195 1.355 . S
C194 C196 1.415 . S
C195 C194 1.355 . S
C195 C197 1.419 . S
C196 C191 1.425 . S
C196 C193 1.409 . S
C196 C194 1.415 . S
C197 H187 0.930 . S
C197 C195 1.419 . S
C197 C198 1.362 . S
C198 H188 0.930 . S
C198 C191 1.409 . S
C198 C197 1.362 . S
H199 C205 0.930 . S
H200 C208 0.930 . S
H201 C209 0.930 . S
H202 C210 0.930 . S
H203 C213 0.930 . S
H204 C214 0.930 . S
C205 H199 0.930 . S
C205 C206 1.355 . S
C205 C207 1.415 . S
C206 C205 1.355 . S
C206 C208 1.419 . S
C207 C205 1.415 . S
C207 C212 1.425 . S
C207 C214 1.409 . S
C208 H200 0.930 . S
C208 C206 1.419 . S
C208 C209 1.362 . S
C209 H201 0.930 . S
C209 C208 1.362 . S
C209 C212 1.409 . S
C210 H202 0.930 . S
C210 C211 1.355 . S
C210 C212 1.415 . S
C211 C210 1.355 . S
C211 C213 1.419 . S
C212 C207 1.425 . S
C212 C209 1.409 . S
C212 C210 1.415 . S
C213 H203 0.930 . S
C213 C211 1.419 . S
C213 C214 1.362 . S
C214 H204 0.930 . S
C214 C207 1.409 . S
C214 C213 1.362 . S
H215 C221 0.930 . S
H216 C224 0.930 . S
H217 C225 0.930 . S
H218 C226 0.930 . S
H219 C229 0.930 . S
H220 C230 0.930 . S
C221 H215 0.930 . S
C221 C222 1.355 . S
C221 C223 1.415 . S
C222 C221 1.355 . S
C222 C224 1.419 . S
C223 C221 1.415 . S
C223 C228 1.425 . S
C223 C230 1.409 . S
C224 H216 0.930 . S
C224 C222 1.419 . S
C224 C225 1.362 . S
C225 H217 0.930 . S
C225 C224 1.362 . S
C225 C228 1.409 . S
C226 H218 0.930 . S
C226 C227 1.355 . S
C226 C228 1.415 . S
C227 C226 1.355 . S
C227 C229 1.419 . S
C228 C223 1.425 . S
C228 C225 1.409 . S
C228 C226 1.415 . S
C229 H219 0.930 . S
C229 C227 1.419 . S
C229 C230 1.362 . S
C230 H220 0.930 . S
C230 C223 1.409 . S
C230 C229 1.362 . S
H231 C237 0.930 . S
H232 C240 0.930 . S
H233 C241 0.930 . S
H234 C242 0.930 . S
H235 C245 0.930 . S
H236 C246 0.930 . S
C237 H231 0.930 . S
C237 C238 1.355 . S
C237 C239 1.415 . S
C238 C237 1.355 . S
C238 C240 1.419 . S
C239 C237 1.415 . S
C239 C244 1.425 . S
C239 C246 1.409 . S
C240 H232 0.930 . S
C240 C238 1.419 . S
C240 C241 1.362 . S
C241 H233 0.930 . S
C241 C240 1.362 . S
C241 C244 1.409 . S
C242 H234 0.930 . S
C242 C243 1.355 . S
C242 C244 1.415 . S
C243 C242 1.355 . S
C243 C245 1.419 . S
C244 C239 1.425 . S
C244 C241 1.409 . S
C244 C242 1.415 . S
C245 H235 0.930 . S
C245 C243 1.419 . S
C245 C246 1.362 . S
C246 H236 0.930 . S
C246 C239 1.409 . S
C246 C245 1.362 . S
H247 C253 0.930 . S
H248 C256 0.930 . S
H249 C257 0.930 . S
H250 C258 0.930 . S
H251 C261 0.930 . S
H252 C262 0.930 . S
C253 H247 0.930 . S
C253 C254 1.355 . S
C253 C255 1.415 . S
C254 C253 1.355 . S
C254 C256 1.419 . S
C255 C253 1.415 . S
C255 C260 1.425 . S
C255 C262 1.409 . S
C256 H248 0.930 . S
C256 C254 1.419 . S
C256 C257 1.362 . S
C257 H249 0.930 . S
C257 C256 1.362 . S
C257 C260 1.409 . S
C258 H250 0.930 . S
C258 C259 1.355 . S
C258 C260 1.415 . S
C259 C258 1.355 . S
C259 C261 1.419 . S
C260 C255 1.425 . S
C260 C257 1.409 . S
C260 C258 1.415 . S
C261 H251 0.930 . S
C261 C259 1.419 . S
C261 C262 1.362 . S
C262 H252 0.930 . S
C262 C255 1.409 . S
C262 C261 1.362 . S
H263 C269 0.930 . S
H264 C272 0.930 . S
H265 C273 0.930 . S
H266 C274 0.930 . S
H267 C277 0.930 . S
H268 C278 0.930 . S
C269 H263 0.930 . S
C269 C270 1.355 . S
C269 C271 1.415 . S
C270 C269 1.355 . S
C270 C272 1.419 . S
C271 C269 1.415 . S
C271 C276 1.425 . S
C271 C278 1.409 . S
C272 H264 0.930 . S
C272 C270 1.419 . S
C272 C273 1.362 . S
C273 H265 0.930 . S
C273 C272 1.362 . S
C273 C276 1.409 . S
C274 H266 0.930 . S
C274 C275 1.355 . S
C274 C276 1.415 . S
C275 C274 1.355 . S
C275 C277 1.419 . S
C276 C271 1.425 . S
C276 C273 1.409 . S
C276 C274 1.415 . S
C277 H267 0.930 . S
C277 C275 1.419 . S
C277 C278 1.362 . S
C278 H268 0.930 . S
C278 C271 1.409 . S
C278 C277 1.362 . S
H279 C285 0.930 . S
H280 C288 0.930 . S
H281 C289 0.930 . S
H282 C290 0.930 . S
H283 C293 0.930 . S
H284 C294 0.930 . S
C285 H279 0.930 . S
C285 C286 1.355 . S
C285 C287 1.415 . S
C286 C285 1.355 . S
C286 C288 1.419 . S
C287 C285 1.415 . S
C287 C292 1.425 . S
C287 C294 1.409 . S
C288 H280 0.930 . S
C288 C286 1.419 . S
C288 C289 1.362 . S
C289 H281 0.930 . S
C289 C288 1.362 . S
C289 C292 1.409 . S
C290 H282 0.930 . S
C290 C291 1.355 . S
C290 C292 1.415 . S
C291 C290 1.355 . S
C291 C293 1.419 . S
C292 C287 1.425 . S
C292 C289 1.409 . S
C292 C290 1.415 . S
C293 H283 0.930 . S
C293 C291 1.419 . S
C293 C294 1.362 . S
C294 H284 0.930 . S
C294 C287 1.409 . S
C294 C293 1.362 . S
H295 C301 0.930 . S
H296 C304 0.930 . S
H297 C305 0.930 . S
H298 C306 0.930 . S
H299 C309 0.930 . S
H300 C310 0.930 . S
C301 H295 0.930 . S
C301 C302 1.355 . S
C301 C303 1.415 . S
C302 C301 1.355 . S
C302 C304 1.419 . S
C303 C301 1.415 . S
C303 C308 1.425 . S
C303 C310 1.409 . S
C304 H296 0.930 . S
C304 C302 1.419 . S
C304 C305 1.362 . S
C305 H297 0.930 . S
C305 C304 1.362 . S
C305 C308 1.409 . S
C306 H298 0.930 . S
C306 C307 1.355 . S
C306 C308 1.415 . S
C307 C306 1.355 . S
C307 C309 1.419 . S
C308 C303 1.425 . S
C308 C305 1.409 . S
C308 C306 1.415 . S
C309 H299 0.930 . S
C309 C307 1.419 . S
C309 C310 1.362 . S
C310 H300 0.930 . S
C310 C303 1.409 . S
C310 C309 1.362 . S
H311 C317 0.930 . S
H312 C320 0.930 . S
H313 C321 0.930 . S
H314 C322 0.930 . S
H315 C325 0.930 . S
H316 C326 0.930 . S
C317 H311 0.930 . S
C317 C318 1.355 . S
C317 C319 1.415 . S
C318 C317 1.355 . S
C318 C320 1.419 . S
C319 C317 1.415 . S
C319 C324 1.425 . S
C319 C326 1.409 . S
C320 H312 0.930 . S
C320 C318 1.419 . S
C320 C321 1.362 . S
C321 H313 0.930 . S
C321 C320 1.362 . S
C321 C324 1.409 . S
C322 H314 0.930 . S
C322 C323 1.355 . S
C322 C324 1.415 . S
C323 C322 1.355 . S
C323 C325 1.419 . S
C324 C319 1.425 . S
C324 C321 1.409 . S
C324 C322 1.415 . S
C325 H315 0.930 . S
C325 C323 1.419 . S
C325 C326 1.362 . S
C326 H316 0.930 . S
C326 C319 1.409 . S
C326 C325 1.362 . S
H327 C333 0.930 . S
H328 C336 0.930 . S
H329 C337 0.930 . S
H330 C338 0.930 1_655 S
H331 C341 0.930 . S
H332 C342 0.930 . S
C333 H327 0.930 . S
C333 C334 1.355 . S
C333 C335 1.415 . S
C334 C333 1.355 . S
C334 C336 1.419 1_455 S
C335 C333 1.415 . S
C335 C340 1.425 . S
C335 C342 1.409 . S
C336 H328 0.930 . S
C336 C334 1.419 1_655 S
C336 C337 1.362 . S
C337 H329 0.930 . S
C337 C336 1.362 . S
C337 C340 1.409 1_655 S
C338 H330 0.930 1_455 S
C338 C339 1.355 . S
C338 C340 1.415 1_556 S
C339 C338 1.355 . S
C339 C341 1.419 . S
C340 C335 1.425 . S
C340 C337 1.409 1_455 S
C340 C338 1.415 1_554 S
C341 H331 0.930 . S
C341 C339 1.419 . S
C341 C342 1.362 1_556 S
C342 H332 0.930 . S
C342 C335 1.409 . S
C342 C341 1.362 1_554 S
H343 C349 0.930 . S
H344 C352 0.930 1_565 S
H345 C353 0.930 . S
H346 C354 0.930 . S
H347 C357 0.930 . S
H348 C358 0.930 . S
C349 H343 0.930 . S
C349 C350 1.355 . S
C349 C351 1.415 . S
C350 C349 1.355 . S
C350 C352 1.419 . S
C351 C349 1.415 . S
C351 C356 1.425 . S
C351 C358 1.409 . S
C352 H344 0.930 1_545 S
C352 C350 1.419 . S
C352 C353 1.362 1_545 S
C353 H345 0.930 . S
C353 C352 1.362 1_565 S
C353 C356 1.410 1_565 S
C354 H346 0.930 . S
C354 C355 1.355 . S
C354 C356 1.415 . S
C355 C354 1.355 . S
C355 C357 1.419 . S
C356 C351 1.425 . S
C356 C353 1.410 1_545 S
C356 C354 1.415 . S
C357 H347 0.930 . S
C357 C355 1.419 . S
C357 C358 1.362 . S
C358 H348 0.930 . S
C358 C351 1.409 . S
C358 C357 1.362 . S
H359 C365 0.930 . S
H360 C368 0.930 . S
H361 C369 0.930 . S
H362 C370 0.930 . S
H363 C373 0.930 . S
H364 C374 0.930 . S
C365 H359 0.930 . S
C365 C366 1.355 . S
C365 C367 1.415 . S
C366 C365 1.355 . S
C366 C368 1.419 . S
C367 C365 1.415 . S
C367 C372 1.425 . S
C367 C374 1.409 . S
C368 H360 0.930 . S
C368 C366 1.419 . S
C368 C369 1.362 . S
C369 H361 0.930 . S
C369 C368 1.362 . S
C369 C372 1.409 . S
C370 H362 0.930 . S
C370 C371 1.355 . S
C370 C372 1.415 . S
C371 C370 1.355 . S
C371 C373 1.419 . S
C372 C367 1.425 . S
C372 C369 1.409 . S
C372 C370 1.415 . S
C373 H363 0.930 . S
C373 C371 1.419 . S
C373 C374 1.362 . S
C374 H364 0.930 . S
C374 C367 1.409 . S
C374 C373 1.362 . S
H375 C381 0.930 . S
H376 C384 0.930 . S
H377 C385 0.930 . S
H378 C386 0.930 . S
H379 C389 0.930 . S
H380 C390 0.930 . S
C381 H375 0.930 . S
C381 C382 1.355 . S
C381 C383 1.415 . S
C382 C381 1.355 . S
C382 C384 1.419 . S
C383 C381 1.415 . S
C383 C388 1.425 . S
C383 C390 1.409 . S
C384 H376 0.930 . S
C384 C382 1.419 . S
C384 C385 1.362 . S
C385 H377 0.930 . S
C385 C384 1.362 . S
C385 C388 1.409 . S
C386 H378 0.930 . S
C386 C387 1.355 . S
C386 C388 1.415 . S
C387 C386 1.355 . S
C387 C389 1.419 . S
C388 C383 1.425 . S
C388 C385 1.409 . S
C388 C386 1.415 . S
C389 H379 0.930 . S
C389 C387 1.419 . S
C389 C390 1.362 . S
C390 H380 0.930 . S
C390 C383 1.409 . S
C390 C389 1.362 . S
H391 C397 0.930 . S
H392 C400 0.930 . S
H393 C401 0.930 . S
H394 C402 0.930 . S
H395 C405 0.930 . S
H396 C406 0.918 1_556 S
C397 H391 0.930 . S
C397 C398 1.355 . S
C397 C399 1.415 . S
C398 C397 1.355 . S
C398 C400 1.419 . S
C399 C397 1.415 . S
C399 C404 1.425 . S
C399 C406 1.409 1_556 S
C400 H392 0.930 . S
C400 C398 1.419 . S
C400 C401 1.362 . S
C401 H393 0.930 . S
C401 C400 1.362 . S
C401 C404 1.409 . S
C402 H394 0.930 . S
C402 C403 1.355 . S
C402 C404 1.415 1_554 S
C403 C402 1.355 . S
C403 C405 1.419 . S
C404 C399 1.425 . S
C404 C401 1.409 . S
C404 C402 1.415 1_556 S
C405 H395 0.930 . S
C405 C403 1.419 . S
C405 C406 1.362 . S
C406 H396 0.918 1_554 S
C406 C399 1.409 1_554 S
C406 C405 1.362 . S
H407 C413 0.930 . S
H408 C416 0.930 . S
H409 C417 0.930 . S
H410 C418 0.930 1_655 S
H411 C421 0.930 . S
H412 C422 0.930 . S
C413 H407 0.930 . S
C413 C414 1.355 . S
C413 C415 1.415 . S
C414 C413 1.355 . S
C414 C416 1.419 1_455 S
C415 C413 1.415 . S
C415 C420 1.425 . S
C415 C422 1.409 . S
C416 H408 0.930 . S
C416 C414 1.419 1_655 S
C416 C417 1.362 . S
C417 H409 0.930 . S
C417 C416 1.362 . S
C417 C420 1.409 1_655 S
C418 H410 0.930 1_455 S
C418 C419 1.355 . S
C418 C420 1.415 . S
C419 C418 1.355 . S
C419 C421 1.419 . S
C420 C415 1.425 . S
C420 C417 1.409 1_455 S
C420 C418 1.415 . S
C421 H411 0.930 . S
C421 C419 1.419 . S
C421 C422 1.362 . S
C422 H412 0.930 . S
C422 C415 1.409 . S
C422 C421 1.362 . S
C142 C20 1.280 . S
C147 C134 1.329 . S
C158 C41 1.349 . S
C163 C112 1.342 . S
C174 C64 1.369 . S
C179 C123 1.354 . S
C190 C19 1.357 . S
C195 C128 1.399 . S
C211 C106 1.363 . S
C206 C44 1.357 . S
C227 C117 1.295 . S
C222 C67 1.301 . S
C238 C43 1.327 . S
C243 C90 1.344 . S
C254 C66 1.230 . S
C259 C95 1.292 . S
C270 C21 1.354 . S
C275 C73 1.354 . S
C291 C84 1.379 . S
C286 C42 1.341 . S
C307 C101 1.365 . S
C302 C65 1.361 . S
C318 C18 1.353 . S
C323 C79 1.353 . S
C339 C96 1.529 . S
C334 C17 1.530 . S
C350 C39 1.526 . S
C355 C74 1.524 . S
C366 C62 1.535 . S
C371 C85 1.535 . S
C387 C118 1.499 . S
C382 C40 1.490 . S
C403 C129 1.510 . S
C398 C63 1.522 . S
C414 C16 1.515 . S
C419 C107 1.502 . S
