# Generated by pormake.
# Topology wbl, (4,4)-cn, num edge types: 1
# Building blocks:
#     Node 0, Type 0, BuildingBlock: MIFKUJ_clean_linker_1, # of connection points: 4
#     Node 1, Type 0, BuildingBlock: MIFKUJ_clean_linker_1, # of connection points: 4
#     Node 2, Type 0, BuildingBlock: MIFKUJ_clean_linker_1, # of connection points: 4
#     Node 3, Type 0, BuildingBlock: MIFKUJ_clean_linker_1, # of connection points: 4
#     Node 4, Type 0, BuildingBlock: MIFKUJ_clean_linker_1, # of connection points: 4
#     Node 5, Type 0, BuildingBlock: MIFKUJ_clean_linker_1, # of connection points: 4
#     Node 6, Type 0, BuildingBlock: MIFKUJ_clean_linker_1, # of connection points: 4
#     Node 7, Type 0, BuildingBlock: MIFKUJ_clean_linker_1, # of connection points: 4
#     Node 8, Type 1, BuildingBlock: GALJAG_clean_sbu_0, # of connection points: 4
#     Node 9, Type 1, BuildingBlock: GALJAG_clean_sbu_0, # of connection points: 4
#     Node 10, Type 1, BuildingBlock: GALJAG_clean_sbu_0, # of connection points: 4
#     Node 11, Type 1, BuildingBlock: GALJAG_clean_sbu_0, # of connection points: 4
#     Node 12, Type 1, BuildingBlock: GALJAG_clean_sbu_0, # of connection points: 4
#     Node 13, Type 1, BuildingBlock: GALJAG_clean_sbu_0, # of connection points: 4
#     Node 14, Type 1, BuildingBlock: GALJAG_clean_sbu_0, # of connection points: 4
#     Node 15, Type 1, BuildingBlock: GALJAG_clean_sbu_0, # of connection points: 4
#     Edge 16, Type (0, 1), BuildingBlock: KIFKEQ_clean_linker_1, # of connection points: 2
#     Edge 17, Type (0, 1), BuildingBlock: KIFKEQ_clean_linker_1, # of connection points: 2
#     Edge 18, Type (0, 1), BuildingBlock: KIFKEQ_clean_linker_1, # of connection points: 2
#     Edge 19, Type (0, 1), BuildingBlock: KIFKEQ_clean_linker_1, # of connection points: 2
#     Edge 20, Type (0, 1), BuildingBlock: KIFKEQ_clean_linker_1, # of connection points: 2
#     Edge 21, Type (0, 1), BuildingBlock: KIFKEQ_clean_linker_1, # of connection points: 2
#     Edge 22, Type (0, 1), BuildingBlock: KIFKEQ_clean_linker_1, # of connection points: 2
#     Edge 23, Type (0, 1), BuildingBlock: KIFKEQ_clean_linker_1, # of connection points: 2
#     Edge 24, Type (0, 1), BuildingBlock: KIFKEQ_clean_linker_1, # of connection points: 2
#     Edge 25, Type (0, 1), BuildingBlock: KIFKEQ_clean_linker_1, # of connection points: 2
#     Edge 26, Type (0, 1), BuildingBlock: KIFKEQ_clean_linker_1, # of connection points: 2
#     Edge 27, Type (0, 1), BuildingBlock: KIFKEQ_clean_linker_1, # of connection points: 2
#     Edge 28, Type (0, 1), BuildingBlock: KIFKEQ_clean_linker_1, # of connection points: 2
#     Edge 29, Type (0, 1), BuildingBlock: KIFKEQ_clean_linker_1, # of connection points: 2
#     Edge 30, Type (0, 1), BuildingBlock: KIFKEQ_clean_linker_1, # of connection points: 2
#     Edge 31, Type (0, 1), BuildingBlock: KIFKEQ_clean_linker_1, # of connection points: 2
#     Edge 32, Type (0, 1), BuildingBlock: KIFKEQ_clean_linker_1, # of connection points: 2
#     Edge 33, Type (0, 1), BuildingBlock: KIFKEQ_clean_linker_1, # of connection points: 2
#     Edge 34, Type (0, 1), BuildingBlock: KIFKEQ_clean_linker_1, # of connection points: 2
#     Edge 35, Type (0, 1), BuildingBlock: KIFKEQ_clean_linker_1, # of connection points: 2
#     Edge 36, Type (0, 1), BuildingBlock: KIFKEQ_clean_linker_1, # of connection points: 2
#     Edge 37, Type (0, 1), BuildingBlock: KIFKEQ_clean_linker_1, # of connection points: 2
#     Edge 38, Type (0, 1), BuildingBlock: KIFKEQ_clean_linker_1, # of connection points: 2
#     Edge 39, Type (0, 1), BuildingBlock: KIFKEQ_clean_linker_1, # of connection points: 2
#     Edge 40, Type (0, 1), BuildingBlock: KIFKEQ_clean_linker_1, # of connection points: 2
#     Edge 41, Type (0, 1), BuildingBlock: KIFKEQ_clean_linker_1, # of connection points: 2
#     Edge 42, Type (0, 1), BuildingBlock: KIFKEQ_clean_linker_1, # of connection points: 2
#     Edge 43, Type (0, 1), BuildingBlock: KIFKEQ_clean_linker_1, # of connection points: 2
#     Edge 44, Type (0, 1), BuildingBlock: KIFKEQ_clean_linker_1, # of connection points: 2
#     Edge 45, Type (0, 1), BuildingBlock: KIFKEQ_clean_linker_1, # of connection points: 2
#     Edge 46, Type (0, 1), BuildingBlock: KIFKEQ_clean_linker_1, # of connection points: 2
#     Edge 47, Type (0, 1), BuildingBlock: KIFKEQ_clean_linker_1, # of connection points: 2
# Relax obj value: 0.140
# Max RMSD: 0.144
# Mean RMSD: 0.131
data_MOF--net-wbl--node1-GALJAG_clean_sbu_0--node2-MIFKUJ_clean_linker_1--edge1-KIFKEQ_clean_linker_1
_symmetry_space_group_name_H-M    P1
_symmetry_Int_Tables_number       1
_symmetry_cell_setting            triclinic
loop_
_symmetry_equiv_pos_as_xyz
'x, y, z'
_cell_length_a     45.461938
_cell_length_b     45.589825
_cell_length_c     83.371546
_cell_angle_alpha  90.084979
_cell_angle_beta   90.011893
_cell_angle_gamma 89.99739
loop_
_atom_site_label
_atom_site_type_symbol
_atom_site_fract_x
_atom_site_fract_y
_atom_site_fract_z
_atom_type_partial_charge
H0 H 0.00675 0.07822 0.37158 0.0
H1 H 0.97564 0.10568 0.39019 0.0
H2 H 0.8996 0.05776 0.3734 0.0
H3 H 0.93103 0.03006 0.35488 0.0
H4 H 0.01193 0.01761 0.37397 0.0
H5 H 0.97919 0.08897 0.33544 0.0
H6 H 0.94089 0.11578 0.32114 0.0
H7 H 0.91304 0.03508 0.29841 0.0
H8 H 0.94985 0.00818 0.31364 0.0
H9 H 0.01175 0.94983 0.31451 0.0
H10 H 0.04429 0.91531 0.30055 0.0
H11 H 0.11925 0.95345 0.32463 0.0
H12 H 0.08689 0.98808 0.33829 0.0
H13 H 0.00594 0.00688 0.31487 0.0
H14 H 0.02577 0.93528 0.35526 0.0
H15 H 0.05168 0.90338 0.37421 0.0
H16 H 0.097 0.97879 0.39362 0.0
H17 H 0.07128 0.01047 0.37457 0.0
C18 C 0.97117 0.0522 0.36184 0.0
C19 C 0.98329 0.07403 0.37171 0.0
C20 C 0.96546 0.0898 0.38227 0.0
C21 C 0.93519 0.08381 0.38329 0.0
C22 C 0.9229 0.06267 0.37296 0.0
C23 C 0.94076 0.04701 0.3623 0.0
C24 C 0.99084 0.03281 0.35244 0.0
C25 C 0.01103 0.0157 0.361 0.0
C26 C 0.9886 0.02943 0.3356 0.0
C27 C 0.96702 0.04639 0.32594 0.0
C28 C 0.96458 0.07699 0.32754 0.0
C29 C 0.9429 0.0924 0.31914 0.0
C30 C 0.92356 0.0776 0.30872 0.0
C31 C 0.92699 0.04715 0.30662 0.0
C32 C 0.94833 0.03173 0.31519 0.0
C33 C 0.0468 0.97129 0.32765 0.0
C34 C 0.03522 0.95085 0.3167 0.0
C35 C 0.0538 0.93113 0.30875 0.0
C36 C 0.08426 0.93145 0.31165 0.0
C37 C 0.0958 0.95225 0.32241 0.0
C38 C 0.07731 0.97207 0.33023 0.0
C39 C 0.02713 0.99177 0.33645 0.0
C40 C 0.00701 0.00905 0.32781 0.0
C41 C 0.02872 0.99486 0.35331 0.0
C42 C 0.04673 0.97521 0.36348 0.0
C43 C 0.04171 0.94483 0.3634 0.0
C44 C 0.05632 0.92668 0.3743 0.0
C45 C 0.07628 0.93862 0.38542 0.0
C46 C 0.08198 0.96892 0.38509 0.0
C47 C 0.0672 0.98706 0.37429 0.0
H48 H 0.99728 0.44129 0.5617 0.0
H49 H 0.96534 0.40675 0.54772 0.0
H50 H 0.8895 0.44511 0.57088 0.0
H51 H 0.92169 0.4801 0.58475 0.0
H52 H 0.00127 0.49935 0.56114 0.0
H53 H 0.97265 0.42587 0.60227 0.0
H54 H 0.94133 0.4006 0.62188 0.0
H55 H 0.9145 0.48433 0.64127 0.0
H56 H 0.94541 0.50937 0.62166 0.0
H57 H 0.02095 0.57689 0.60665 0.0
H58 H 0.05267 0.60292 0.62571 0.0
H59 H 0.10776 0.5259 0.62953 0.0
H60 H 0.07518 0.49983 0.61107 0.0
H61 H 0.00455 0.50389 0.62052 0.0
H62 H 0.00528 0.55953 0.56035 0.0
H63 H 0.036 0.59302 0.54482 0.0
H64 H 0.11393 0.55323 0.56497 0.0
H65 H 0.08299 0.51944 0.58034 0.0
C66 C 0.96195 0.46311 0.5744 0.0
C67 C 0.97375 0.44252 0.56366 0.0
C68 C 0.95545 0.42283 0.55563 0.0
C69 C 0.9249 0.42327 0.55818 0.0
C70 C 0.913 0.44412 0.5688 0.0
C71 C 0.93136 0.46405 0.57674 0.0
C72 C 0.98205 0.48322 0.5831 0.0
C73 C 0.00196 0.50023 0.57414 0.0
C74 C 0.98245 0.48522 0.60004 0.0
C75 C 0.96133 0.4695 0.6105 0.0
C76 C 0.95954 0.43874 0.61053 0.0
C77 C 0.94168 0.42436 0.62173 0.0
C78 C 0.92573 0.44054 0.63317 0.0
C79 C 0.92686 0.47131 0.63273 0.0
C80 C 0.94445 0.48562 0.62151 0.0
C81 C 0.04587 0.53656 0.6075 0.0
C82 C 0.04023 0.56594 0.61138 0.0
C83 C 0.05847 0.58078 0.62222 0.0
C84 C 0.08261 0.56638 0.6293 0.0
C85 C 0.08904 0.53744 0.62457 0.0
C86 C 0.07063 0.52259 0.61392 0.0
C87 C 0.02396 0.51911 0.59859 0.0
C88 C 0.00368 0.50286 0.60752 0.0
C89 C 0.02273 0.51841 0.58169 0.0
C90 C 0.04182 0.53736 0.57172 0.0
C91 C 0.02899 0.5578 0.56129 0.0
C92 C 0.04657 0.57684 0.55238 0.0
C93 C 0.07738 0.5758 0.55372 0.0
C94 C 0.09024 0.55479 0.56386 0.0
C95 C 0.0726 0.53559 0.5727 0.0
H96 H 0.50666 0.5743 0.87033 0.0
H97 H 0.47505 0.60207 0.8885 0.0
H98 H 0.39881 0.55771 0.86921 0.0
H99 H 0.43077 0.52953 0.8512 0.0
H100 H 0.51126 0.51474 0.87174 0.0
H101 H 0.48351 0.58733 0.83316 0.0
H102 H 0.44775 0.61667 0.81822 0.0
H103 H 0.41409 0.53786 0.79601 0.0
H104 H 0.44949 0.50856 0.81118 0.0
H105 H 0.513 0.44817 0.81205 0.0
H106 H 0.54597 0.41441 0.79784 0.0
H107 H 0.62047 0.45307 0.82209 0.0
H108 H 0.58767 0.48704 0.83597 0.0
H109 H 0.50699 0.50538 0.81253 0.0
H110 H 0.53204 0.43271 0.85195 0.0
H111 H 0.56053 0.40236 0.87046 0.0
H112 H 0.59567 0.48077 0.89255 0.0
H113 H 0.56834 0.51076 0.87356 0.0
C114 C 0.47106 0.5499 0.85942 0.0
C115 C 0.48309 0.5709 0.86984 0.0
C116 C 0.46496 0.5869 0.88014 0.0
C117 C 0.43442 0.58204 0.88032 0.0
C118 C 0.42229 0.56175 0.86943 0.0
C119 C 0.44047 0.54582 0.85906 0.0
C120 C 0.49084 0.53038 0.85014 0.0
C121 C 0.51076 0.51306 0.85875 0.0
C122 C 0.48927 0.52753 0.83326 0.0
C123 C 0.46887 0.54565 0.82351 0.0
C124 C 0.46832 0.57633 0.82515 0.0
C125 C 0.44795 0.59309 0.81658 0.0
C126 C 0.42808 0.57954 0.80599 0.0
C127 C 0.42933 0.54895 0.80396 0.0
C128 C 0.4495 0.53217 0.81265 0.0
C129 C 0.54778 0.46985 0.82528 0.0
C130 C 0.53646 0.44948 0.81423 0.0
C131 C 0.55528 0.4302 0.80613 0.0
C132 C 0.58573 0.4309 0.809 0.0
C133 C 0.59704 0.45162 0.81987 0.0
C134 C 0.5783 0.47105 0.82782 0.0
C135 C 0.52778 0.48987 0.83417 0.0
C136 C 0.50772 0.5072 0.8255 0.0
C137 C 0.52908 0.49271 0.85108 0.0
C138 C 0.54818 0.47403 0.86129 0.0
C139 C 0.54642 0.4433 0.86054 0.0
C140 C 0.56247 0.42599 0.87127 0.0
C141 C 0.58034 0.43909 0.88307 0.0
C142 C 0.58253 0.46986 0.8835 0.0
C143 C 0.56667 0.4871 0.87273 0.0
H144 H 0.49347 0.9418 0.06132 0.0
H145 H 0.46171 0.90807 0.04658 0.0
H146 H 0.38552 0.94514 0.06997 0.0
H147 H 0.41739 0.97954 0.08445 0.0
H148 H 0.49894 0.99862 0.06186 0.0
H149 H 0.46789 0.92511 0.10222 0.0
H150 H 0.43696 0.89926 0.12183 0.0
H151 H 0.40798 0.98247 0.14091 0.0
H152 H 0.43835 0.00809 0.12128 0.0
H153 H 0.52247 0.07901 0.0998 0.0
H154 H 0.55228 0.10947 0.11788 0.0
H155 H 0.58786 0.0311 0.1396 0.0
H156 H 0.55842 0.001 0.12146 0.0
H157 H 0.49701 0.00371 0.12123 0.0
H158 H 0.50466 0.05566 0.05878 0.0
H159 H 0.53751 0.08837 0.04407 0.0
H160 H 0.6116 0.0547 0.07075 0.0
H161 H 0.57869 0.02143 0.08521 0.0
C162 C 0.45792 0.963 0.07417 0.0
C163 C 0.4699 0.94296 0.06316 0.0
C164 C 0.45172 0.92372 0.05471 0.0
C165 C 0.42114 0.92399 0.05713 0.0
C166 C 0.40905 0.94429 0.06799 0.0
C167 C 0.42726 0.96385 0.07631 0.0
C168 C 0.4778 0.98272 0.08333 0.0
C169 C 0.49848 -0.0003 0.07486 0.0
C170 C 0.47698 0.98463 0.10027 0.0
C171 C 0.45546 0.96853 0.11032 0.0
C172 C 0.4543 0.93773 0.11037 0.0
C173 C 0.43669 0.92301 0.12157 0.0
C174 C 0.4204 0.93893 0.13297 0.0
C175 C 0.42063 0.9697 0.13239 0.0
C176 C 0.43792 0.98433 0.12116 0.0
C177 C 0.53835 0.0378 0.10929 0.0
C178 C 0.53714 0.06849 0.10827 0.0
C179 C 0.554 0.08582 0.11866 0.0
C180 C 0.57238 0.07267 0.13018 0.0
C181 C 0.57424 0.04191 0.13074 0.0
C182 C 0.5573 0.02467 0.12045 0.0
C183 C 0.51812 0.01918 0.09981 0.0
C184 C 0.49738 0.00254 0.10822 0.0
C185 C 0.51852 0.01812 0.08287 0.0
C186 C 0.53909 0.03639 0.07329 0.0
C187 C 0.52802 0.05497 0.06131 0.0
C188 C 0.54683 0.07362 0.05289 0.0
C189 C 0.57711 0.07416 0.05631 0.0
C190 C 0.58831 0.05499 0.068 0.0
C191 C 0.56951 0.03606 0.0763 0.0
H192 H 0.99724 0.571 0.89048 0.0
H193 H 0.02932 0.59906 0.87277 0.0
H194 H 0.10485 0.55301 0.89166 0.0
H195 H 0.07239 0.52435 0.90907 0.0
H196 H 0.99172 0.51168 0.88816 0.0
H197 H 0.0225 0.58155 0.92828 0.0
H198 H 0.06092 0.60791 0.94284 0.0
H199 H 0.09051 0.52616 0.96354 0.0
H200 H 0.05319 0.49982 0.94824 0.0
H201 H 0.98868 0.44179 0.94674 0.0
H202 H 0.95487 0.40763 0.95999 0.0
H203 H 0.88157 0.44886 0.93595 0.0
H204 H 0.91522 0.48305 0.92297 0.0
H205 H 0.99584 0.49902 0.94719 0.0
H206 H 0.9755 0.42897 0.90593 0.0
H207 H 0.94908 0.39812 0.88663 0.0
H208 H 0.90616 0.47506 0.86751 0.0
H209 H 0.93238 0.50571 0.88692 0.0
C210 C 0.03242 0.54565 0.90111 0.0
C211 C 0.02076 0.56726 0.89097 0.0
C212 C 0.03918 0.58345 0.88094 0.0
C213 C 0.06966 0.57823 0.88077 0.0
C214 C 0.08143 0.55734 0.8914 0.0
C215 C 0.06295 0.54114 0.90146 0.0
C216 C 0.01231 0.52599 0.91006 0.0
C217 C 0.9922 0.50937 0.90112 0.0
C218 C 0.01396 0.52204 0.92687 0.0
C219 C 0.03531 0.5386 0.93689 0.0
C220 C 0.03738 0.56929 0.93589 0.0
C221 C 0.05917 0.5844 0.94439 0.0
C222 C 0.07907 0.56915 0.95426 0.0
C223 C 0.07602 0.53856 0.95579 0.0
C224 C 0.05444 0.52347 0.94718 0.0
C225 C 0.95456 0.46472 0.93366 0.0
C226 C 0.96531 0.44355 0.9444 0.0
C227 C 0.946 0.42405 0.95195 0.0
C228 C 0.91562 0.42535 0.94885 0.0
C229 C 0.90492 0.44688 0.93831 0.0
C230 C 0.92415 0.46646 0.93089 0.0
C231 C 0.97498 0.48496 0.92526 0.0
C232 C 0.99513 0.50162 0.93427 0.0
C233 C 0.97395 0.48858 0.90842 0.0
C234 C 0.95578 0.46961 0.8979 0.0
C235 C 0.95999 0.4391 0.89778 0.0
C236 C 0.94508 0.42155 0.88667 0.0
C237 C 0.92562 0.4342 0.87555 0.0
C238 C 0.92077 0.46465 0.87604 0.0
C239 C 0.93585 0.4822 0.88706 0.0
H240 H 0.50534 0.5595 0.19725 0.0
H241 H 0.47923 0.59734 0.21236 0.0
H242 H 0.39672 0.56657 0.19279 0.0
H243 H 0.42288 0.52799 0.17827 0.0
H244 H 0.50424 0.50089 0.1973 0.0
H245 H 0.48158 0.57712 0.15787 0.0
H246 H 0.45299 0.60906 0.14009 0.0
H247 H 0.40455 0.53367 0.12298 0.0
H248 H 0.43268 0.50214 0.14095 0.0
H249 H 0.49419 0.43944 0.13612 0.0
H250 H 0.52274 0.41063 0.11709 0.0
H251 H 0.60314 0.44084 0.13939 0.0
H252 H 0.57432 0.47097 0.15788 0.0
H253 H 0.49249 0.49576 0.13823 0.0
H254 H 0.51647 0.41895 0.17372 0.0
H255 H 0.54869 0.38395 0.18719 0.0
H256 H 0.5925 0.45525 0.21158 0.0
H257 H 0.56059 0.49045 0.19772 0.0
C258 C 0.46614 0.54117 0.18644 0.0
C259 C 0.4816 0.5607 0.19636 0.0
C260 C 0.46665 0.58249 0.20488 0.0
C261 C 0.4359 0.58521 0.20365 0.0
C262 C 0.42037 0.56501 0.19409 0.0
C263 C 0.43534 0.54314 0.18563 0.0
C264 C 0.48238 0.51928 0.17668 0.0
C265 C 0.50192 0.49992 0.18436 0.0
C266 C 0.47863 0.51731 0.15988 0.0
C267 C 0.45917 0.53729 0.15074 0.0
C268 C 0.46434 0.56764 0.15054 0.0
C269 C 0.44816 0.5858 0.14029 0.0
C270 C 0.42656 0.57388 0.13009 0.0
C271 C 0.42072 0.54363 0.13082 0.0
C272 C 0.43693 0.52553 0.141 0.0
C273 C 0.53205 0.45734 0.14847 0.0
C274 C 0.51797 0.43975 0.13697 0.0
C275 C 0.53438 0.42301 0.12618 0.0
C276 C 0.56531 0.42335 0.12667 0.0
C277 C 0.57938 0.44033 0.13853 0.0
C278 C 0.56291 0.4573 0.14925 0.0
C279 C 0.51442 0.47734 0.15876 0.0
C280 C 0.4947 0.49646 0.15119 0.0
C281 C 0.51771 0.47867 0.17564 0.0
C282 C 0.53645 0.45741 0.18445 0.0
C283 C 0.5332 0.42715 0.18182 0.0
C284 C 0.5516 0.40715 0.18953 0.0
C285 C 0.57329 0.41693 0.20029 0.0
C286 C 0.57593 0.44714 0.20335 0.0
C287 C 0.55772 0.46722 0.19546 0.0
H288 H 0.50246 0.92546 0.39347 0.0
H289 H 0.47153 0.89722 0.37509 0.0
H290 H 0.39622 0.94908 0.38913 0.0
H291 H 0.42747 0.97767 0.40722 0.0
H292 H 0.50933 0.9857 0.38881 0.0
H293 H 0.48794 0.92255 0.4365 0.0
H294 H 0.45103 0.89409 0.45139 0.0
H295 H 0.39521 0.97054 0.45384 0.0
H296 H 0.43257 0.99917 0.4394 0.0
H297 H 0.50855 0.0608 0.44564 0.0
H298 H 0.54165 0.09507 0.45938 0.0
H299 H 0.61642 0.05096 0.43837 0.0
H300 H 0.58346 0.0166 0.42493 0.0
H301 H 0.50039 0.00403 0.44725 0.0
H302 H 0.53008 0.0701 0.40557 0.0
H303 H 0.5584 0.0972 0.38546 0.0
H304 H 0.59434 0.01569 0.36773 0.0
H305 H 0.56642 0.98875 0.38795 0.0
C306 C 0.46723 0.95351 0.40178 0.0
C307 C 0.47915 0.93028 0.39284 0.0
C308 C 0.46141 0.91408 0.3824 0.0
C309 C 0.43146 0.92104 0.3806 0.0
C310 C 0.41928 0.9434 0.39016 0.0
C311 C 0.43703 0.95952 0.40064 0.0
C312 C 0.48696 0.97384 0.41052 0.0
C313 C 0.50791 0.98935 0.40165 0.0
C314 C 0.48411 0.97938 0.42709 0.0
C315 C 0.46285 0.96286 0.43692 0.0
C316 C 0.46793 0.93323 0.44047 0.0
C317 C 0.44697 0.91707 0.44896 0.0
C318 C 0.42045 0.93025 0.45369 0.0
C319 C 0.41556 0.96001 0.45028 0.0
C320 C 0.43681 0.97633 0.44211 0.0
C321 C 0.54348 0.0364 0.43404 0.0
C322 C 0.53209 0.05845 0.44406 0.0
C323 C 0.55098 0.078 0.4519 0.0
C324 C 0.58158 0.07587 0.4498 0.0
C325 C 0.59291 0.05352 0.43995 0.0
C326 C 0.57408 0.03387 0.43225 0.0
C327 C 0.52351 0.01582 0.42555 0.0
C328 C 0.5023 0.00032 0.43444 0.0
C329 C 0.52608 0.01044 0.40886 0.0
C330 C 0.54611 0.02736 0.39828 0.0
C331 C 0.54464 0.05813 0.39764 0.0
C332 C 0.56077 0.0736 0.38612 0.0
C333 C 0.57829 0.05848 0.37494 0.0
C334 C 0.58067 0.02784 0.37606 0.0
C335 C 0.56479 0.01245 0.38762 0.0
H336 H 0.00015 0.0569 0.69513 0.0
H337 H 0.97268 0.09472 0.70932 0.0
H338 H 0.8917 0.06159 0.68898 0.0
H339 H 0.91928 0.02263 0.67553 0.0
H340 H 0.00054 0.99956 0.69696 0.0
H341 H 0.97296 0.0699 0.65483 0.0
H342 H 0.94255 0.09679 0.63546 0.0
H343 H 0.90443 0.01509 0.61942 0.0
H344 H 0.93441 0.98844 0.63885 0.0
H345 H 0.99938 0.92834 0.63899 0.0
H346 H 0.03201 0.90112 0.62103 0.0
H347 H 0.10712 0.94498 0.64191 0.0
H348 H 0.07428 0.9727 0.65952 0.0
H349 H 0.99304 0.9866 0.63805 0.0
H350 H 0.0041 0.91888 0.68233 0.0
H351 H 0.0327 0.88412 0.69842 0.0
H352 H 0.09688 0.95158 0.70822 0.0
H353 H 0.06754 0.98674 0.69245 0.0
C354 C 0.96189 0.03715 0.68405 0.0
C355 C 0.97645 0.05759 0.69383 0.0
C356 C 0.9607 0.07943 0.70181 0.0
C357 C 0.92997 0.08151 0.70014 0.0
C358 C 0.91531 0.06059 0.69061 0.0
C359 C 0.9311 0.03851 0.68274 0.0
C360 C 0.9792 0.01459 0.67531 0.0
C361 C 0.99906 0.9971 0.68404 0.0
C362 C 0.97642 0.01013 0.65855 0.0
C363 C 0.95591 0.02715 0.64831 0.0
C364 C 0.95756 0.05788 0.6474 0.0
C365 C 0.94023 0.0732 0.63633 0.0
C366 C 0.92136 0.05796 0.62586 0.0
C367 C 0.91908 0.02734 0.62719 0.0
C368 C 0.93614 0.01213 0.63831 0.0
C369 C 0.03438 0.95242 0.65065 0.0
C370 C 0.02291 0.9317 0.63988 0.0
C371 C 0.04162 0.91604 0.62969 0.0
C372 C 0.07215 0.921 0.63001 0.0
C373 C 0.08368 0.94088 0.64129 0.0
C374 C 0.06496 0.95647 0.65149 0.0
C375 C 0.0144 0.9722 0.65964 0.0
C376 C 0.99426 0.98917 0.65097 0.0
C377 C 0.01627 0.9757 0.67641 0.0
C378 C 0.03379 0.95526 0.68626 0.0
C379 C 0.02422 0.92622 0.68804 0.0
C380 C 0.04047 0.90648 0.69723 0.0
C381 C 0.06684 0.91533 0.70454 0.0
C382 C 0.07658 0.94437 0.70267 0.0
C383 C 0.05989 0.96437 0.69374 0.0
In384 In 0.31278 0.68844 0.00532 0.0
O385 O 0.30209 0.73486 0.01433 0.0
O386 O 0.34362 0.72743 0.00343 0.0
C387 C 0.25717 0.66945 0.00042 0.0
C388 C 0.33565 0.66767 0.03294 0.0
C389 C 0.33582 0.66765 0.97771 0.0
O390 O 0.26561 0.69458 0.99604 0.0
O391 O 0.27642 0.65459 0.00763 0.0
O392 O 0.33671 0.65363 0.99073 0.0
O393 O 0.32347 0.6924 0.9786 0.0
C394 C 0.32673 0.74534 0.01034 0.0
O395 O 0.34933 0.66693 0.01979 0.0
O396 O 0.31021 0.67869 0.03218 0.0
In397 In 0.30885 0.81449 0.25556 0.0
O398 O 0.30518 0.76681 0.24708 0.0
O399 O 0.34637 0.78165 0.25604 0.0
C400 C 0.25081 0.82473 0.26078 0.0
C401 C 0.32502 0.84121 0.2281 0.0
C402 C 0.33428 0.83488 0.28271 0.0
O403 O 0.2643 0.80357 0.26711 0.0
O404 O 0.26619 0.83978 0.25134 0.0
O405 O 0.33784 0.84684 0.26923 0.0
O406 O 0.31812 0.81241 0.28252 0.0
C407 C 0.33178 0.76082 0.25003 0.0
O408 O 0.32555 0.85393 0.24156 0.0
O409 O 0.31585 0.81507 0.22841 0.0
In410 In 0.19145 0.81112 0.50605 0.0
O411 O 0.1734 0.84922 0.5208 0.0
O412 O 0.18608 0.81057 0.53326 0.0
C413 C 0.16487 0.8326 0.47953 0.0
C414 C 0.1743 0.75471 0.5094 0.0
C415 C 0.2485 0.8247 0.50079 0.0
O416 O 0.15369 0.83479 0.49333 0.0
O417 O 0.18916 0.81931 0.47911 0.0
O418 O 0.23601 0.80306 0.49427 0.0
O419 O 0.23258 0.83881 0.51048 0.0
C420 C 0.17536 0.83607 0.53408 0.0
O421 O 0.19971 0.76335 0.51324 0.0
O422 O 0.15798 0.77431 0.50355 0.0
In423 In 0.18931 0.68445 0.75548 0.0
O424 O 0.16786 0.64913 0.77074 0.0
O425 O 0.1785 0.68932 0.78223 0.0
C426 C 0.17053 0.66004 0.72785 0.0
C427 C 0.24671 0.67093 0.75983 0.0
C428 C 0.16732 0.73857 0.75014 0.0
O429 O 0.15955 0.65404 0.74135 0.0
O430 O 0.19139 0.67835 0.72822 0.0
O431 O 0.19446 0.73309 0.74885 0.0
O432 O 0.15178 0.71709 0.75444 0.0
C433 C 0.1678 0.6639 0.78352 0.0
O434 O 0.23598 0.6951 0.76433 0.0
O435 O 0.2288 0.65431 0.75274 0.0
In436 In 0.80659 0.19061 0.50654 0.0
O437 O 0.79942 0.23718 0.51602 0.0
O438 O 0.84134 0.22635 0.50631 0.0
C439 C 0.74849 0.18181 0.50071 0.0
C440 C 0.82406 0.16245 0.53339 0.0
C441 C 0.83433 0.17035 0.47996 0.0
O442 O 0.76374 0.20008 0.49307 0.0
O443 O 0.76216 0.16889 0.51176 0.0
O444 O 0.83612 0.15785 0.4934 0.0
O445 O 0.81894 0.19333 0.47996 0.0
C446 C 0.82528 0.24555 0.51283 0.0
O447 O 0.81844 0.14916 0.52044 0.0
O448 O 0.82044 0.18986 0.53287 0.0
In449 In 0.80965 0.3121 0.75321 0.0
O450 O 0.82434 0.35292 0.7396 0.0
O451 O 0.81937 0.31337 0.72635 0.0
C452 C 0.83585 0.33221 0.78022 0.0
C453 C 0.82821 0.25645 0.7484 0.0
C454 C 0.75191 0.32361 0.75794 0.0
O455 O 0.84723 0.33495 0.76651 0.0
O456 O 0.8115 0.319 0.78034 0.0
O457 O 0.7645 0.30154 0.76393 0.0
O458 O 0.76809 0.339 0.74902 0.0
C459 C 0.82632 0.34015 0.7262 0.0
O460 O 0.80318 0.26517 0.74388 0.0
O461 O 0.84319 0.27545 0.75576 0.0
In462 In 0.68945 0.30803 0.00459 0.0
O463 O 0.69901 0.26259 0.01531 0.0
O464 O 0.65955 0.26842 0.00211 0.0
C465 C 0.74663 0.31923 0.99821 0.0
C466 C 0.66544 0.33128 0.03138 0.0
C467 C 0.66736 0.3339 0.97807 0.0
O468 O 0.73285 0.29835 0.99167 0.0
O469 O 0.7319 0.33354 0.00836 0.0
O470 O 0.6741 0.3481 0.99054 0.0
O471 O 0.6715 0.3066 0.97901 0.0
C472 C 0.67533 0.25137 0.0103 0.0
O473 O 0.65095 0.32701 0.01869 0.0
O474 O 0.69219 0.32407 0.03056 0.0
In475 In 0.69024 0.18879 0.25362 0.0
O476 O 0.67285 0.149 0.26702 0.0
O477 O 0.67285 0.18981 0.27937 0.0
C478 C 0.66607 0.16793 0.22629 0.0
C479 C 0.74693 0.17458 0.25954 0.0
C480 C 0.67747 0.2459 0.24858 0.0
O481 O 0.6518 0.17026 0.2392 0.0
O482 O 0.69256 0.17597 0.22717 0.0
O483 O 0.70011 0.23383 0.2428 0.0
O484 O 0.66205 0.22947 0.25735 0.0
C485 C 0.66722 0.16271 0.2798 0.0
O486 O 0.73517 0.19729 0.26539 0.0
O487 O 0.73047 0.15998 0.25037 0.0
H488 H 0.12883 0.89964 0.32489 0.0
H489 H 0.0848 0.91606 0.27989 0.0
H490 H 0.16476 0.86898 0.31113 0.0
H491 H 0.12052 0.88476 0.26609 0.0
H492 H 0.21702 0.80176 0.28479 0.0
H493 H 0.17226 0.82294 0.29619 0.0
H494 H 0.17331 0.89039 0.25985 0.0
H495 H 0.21773 0.86907 0.24839 0.0
C496 C 0.12669 0.89644 0.31206 0.0
C497 C 0.1042 0.9105 0.30344 0.0
C498 C 0.14706 0.87858 0.3042 0.0
C499 C 0.1455 0.87444 0.28751 0.0
C500 C 0.1224 0.88769 0.27895 0.0
C501 C 0.10186 0.90544 0.28685 0.0
C502 C 0.20728 0.8207 0.27902 0.0
C503 C 0.22101 0.83393 0.26579 0.0
C504 C 0.18178 0.83294 0.28561 0.0
C505 C 0.16945 0.85854 0.27904 0.0
C506 C 0.18212 0.87056 0.26514 0.0
C507 C 0.20767 0.85841 0.25861 0.0
H508 H 0.12376 0.60698 0.56561 0.0
H509 H 0.07225 0.59424 0.52263 0.0
H510 H 0.15015 0.647 0.55273 0.0
H511 H 0.09894 0.63408 0.50961 0.0
H512 H 0.11959 0.733 0.50362 0.0
H513 H 0.0993 0.68651 0.51259 0.0
H514 H 0.18402 0.66225 0.53203 0.0
H515 H 0.20416 0.70935 0.52336 0.0
C516 C 0.11857 0.6123 0.55327 0.0
C517 C 0.09577 0.59765 0.54518 0.0
C518 C 0.13374 0.63521 0.54586 0.0
C519 C 0.12653 0.64391 0.53016 0.0
C520 C 0.10466 0.6283 0.52181 0.0
C521 C 0.0894 0.60547 0.52925 0.0
C522 C 0.134 0.71758 0.50961 0.0
C523 C 0.16339 0.7249 0.51291 0.0
C524 C 0.12242 0.69081 0.51467 0.0
C525 C 0.13999 0.67067 0.52311 0.0
C526 C 0.16979 0.67746 0.52576 0.0
C527 C 0.18137 0.70434 0.52072 0.0
H528 H 0.39287 0.6222 0.81859 0.0
H529 H 0.41155 0.57605 0.7745 0.0
H530 H 0.3521 0.64744 0.80562 0.0
H531 H 0.37112 0.60175 0.76135 0.0
H532 H 0.27226 0.61862 0.75269 0.0
H533 H 0.31881 0.59966 0.76248 0.0
H534 H 0.33623 0.68247 0.78596 0.0
H535 H 0.28891 0.70116 0.7765 0.0
C536 C 0.38863 0.61794 0.80602 0.0
C537 C 0.40524 0.59699 0.7976 0.0
C538 C 0.3653 0.63249 0.79855 0.0
C539 C 0.35817 0.62654 0.78245 0.0
C540 C 0.37563 0.60646 0.77385 0.0
C541 C 0.39882 0.59176 0.78136 0.0
C542 C 0.28619 0.63295 0.75976 0.0
C543 C 0.27683 0.6613 0.76393 0.0
C544 C 0.31303 0.62213 0.7653 0.0
C545 C 0.33128 0.63946 0.7751 0.0
C546 C 0.3225 0.66836 0.77866 0.0
C547 C 0.29551 0.67916 0.77314 0.0
H548 H 0.3778 0.88979 0.06993 0.0
H549 H 0.42223 0.90904 0.02543 0.0
H550 H 0.35137 0.84973 0.05691 0.0
H551 H 0.39538 0.86944 0.01225 0.0
H552 H 0.29666 0.78693 0.02755 0.0
H553 H 0.31553 0.83394 0.03732 0.0
H554 H 0.39814 0.81723 0.01333 0.0
H555 H 0.37908 0.77099 0.00331 0.0
C556 C 0.38138 0.88587 0.05726 0.0
C557 C 0.4023 0.90229 0.04873 0.0
C558 C 0.36618 0.86296 0.04977 0.0
C559 C 0.37146 0.85613 0.03355 0.0
C560 C 0.39124 0.87367 0.02484 0.0
C561 C 0.40658 0.89639 0.03236 0.0
C562 C 0.31866 0.79363 0.02416 0.0
C563 C 0.33644 0.77524 0.01472 0.0
C564 C 0.32955 0.82044 0.02985 0.0
C565 C 0.35842 0.82935 0.02619 0.0
C566 C 0.37568 0.81136 0.01622 0.0
C567 C 0.36481 0.78468 0.01054 0.0
H568 H 0.13568 0.55031 0.95814 0.0
H569 H 0.07847 0.62366 0.96856 0.0
H570 H 0.1763 0.57572 0.97101 0.0
H571 H 0.11962 0.64941 0.9812 0.0
H572 H 0.21309 0.69508 0.98292 0.0
H573 H 0.16818 0.67162 0.97298 0.0
H574 H 0.19128 0.59218 0.99817 0.0
H575 H 0.23606 0.61541 0.00797 0.0
C576 C 0.1316 0.57169 0.96337 0.0
C577 C 0.10366 0.58479 0.9624 0.0
C578 C 0.15496 0.58629 0.97072 0.0
C579 C 0.1511 0.61448 0.97721 0.0
C580 C 0.12327 0.62777 0.97621 0.0
C581 C 0.09975 0.61303 0.96893 0.0
C582 C 0.2083 0.67276 0.98652 0.0
C583 C 0.2282 0.657 0.99611 0.0
C584 C 0.18258 0.65937 0.98087 0.0
C585 C 0.17642 0.62995 0.98465 0.0
C586 C 0.1957 0.61471 0.99483 0.0
C587 C 0.22126 0.62809 0.00052 0.0
H588 H 0.38266 0.58368 0.21924 0.0
H589 H 0.45357 0.64223 0.2064 0.0
H590 H 0.35667 0.62448 0.23197 0.0
H591 H 0.4278 0.68272 0.21918 0.0
H592 H 0.38828 0.74393 0.2555 0.0
H593 H 0.41295 0.69999 0.24571 0.0
H594 H 0.3317 0.67051 0.22418 0.0
H595 H 0.30683 0.7144 0.23423 0.0
C596 C 0.39267 0.60523 0.2191 0.0
C597 C 0.42027 0.60965 0.21185 0.0
C598 C 0.37779 0.62857 0.2264 0.0
C599 C 0.39024 0.65679 0.22666 0.0
C600 C 0.41786 0.66114 0.21948 0.0
C601 C 0.43266 0.63789 0.21216 0.0
C602 C 0.37558 0.72791 0.24884 0.0
C603 C 0.34566 0.73269 0.24554 0.0
C604 C 0.38977 0.70283 0.24314 0.0
C605 C 0.37437 0.68194 0.234 0.0
C606 C 0.34413 0.68611 0.23126 0.0
C607 C 0.32991 0.71128 0.23697 0.0
H608 H 0.42369 0.89988 0.48182 0.0
H609 H 0.36518 0.92097 0.44275 0.0
H610 H 0.38441 0.87094 0.49457 0.0
H611 H 0.32637 0.8915 0.45519 0.0
H612 H 0.27852 0.80945 0.47384 0.0
H613 H 0.32253 0.83306 0.46302 0.0
H614 H 0.32844 0.88746 0.50527 0.0
H615 H 0.28387 0.8644 0.516 0.0
C616 C 0.40248 0.89813 0.47597 0.0
C617 C 0.39722 0.91263 0.4614 0.0
C618 C 0.38014 0.8817 0.48323 0.0
C619 C 0.35259 0.87896 0.47576 0.0
C620 C 0.34756 0.89314 0.46108 0.0
C621 C 0.36959 0.91008 0.45404 0.0
C622 C 0.28952 0.82603 0.48097 0.0
C623 C 0.27774 0.83522 0.49572 0.0
C624 C 0.31457 0.83957 0.47474 0.0
C625 C 0.32862 0.86207 0.48331 0.0
C626 C 0.31797 0.87004 0.4985 0.0
C627 C 0.29252 0.85691 0.5046 0.0
H628 H 0.12335 0.89797 0.69934 0.0
H629 H 0.04885 0.88411 0.73039 0.0
H630 H 0.14919 0.85728 0.71219 0.0
H631 H 0.07499 0.84454 0.74392 0.0
H632 H 0.1093 0.7511 0.74711 0.0
H633 H 0.08698 0.79621 0.73786 0.0
H634 H 0.17296 0.83642 0.73466 0.0
H635 H 0.19546 0.79031 0.74328 0.0
C636 C 0.11289 0.88661 0.70922 0.0
C637 C 0.08411 0.89383 0.71383 0.0
C638 C 0.12768 0.86338 0.71665 0.0
C639 C 0.11407 0.84723 0.72899 0.0
C640 C 0.08589 0.85585 0.73418 0.0
C641 C 0.07095 0.87865 0.72655 0.0
C642 C 0.12346 0.76963 0.74457 0.0
C643 C 0.15413 0.76714 0.74588 0.0
C644 C 0.11062 0.7957 0.73937 0.0
C645 C 0.12807 0.8202 0.73554 0.0
C646 C 0.15882 0.81793 0.73728 0.0
C647 C 0.17173 0.7916 0.74232 0.0
H648 H 0.5867 0.41654 0.77711 0.0
H649 H 0.63028 0.39891 0.8221 0.0
H650 H 0.62248 0.3855 0.76317 0.0
H651 H 0.66619 0.36836 0.8082 0.0
H652 H 0.72014 0.36923 0.74588 0.0
H653 H 0.67589 0.39103 0.75733 0.0
H654 H 0.67261 0.32217 0.79281 0.0
H655 H 0.71708 0.30042 0.7814 0.0
C656 C 0.60368 0.40572 0.78403 0.0
C657 C 0.60588 0.41032 0.80066 0.0
C658 C 0.62424 0.38811 0.77605 0.0
C659 C 0.64716 0.37451 0.78458 0.0
C660 C 0.64861 0.37826 0.8013 0.0
C661 C 0.62827 0.39603 0.80924 0.0
C662 C 0.7096 0.35837 0.7559 0.0
C663 C 0.72222 0.33329 0.76284 0.0
C664 C 0.68417 0.3708 0.76242 0.0
C665 C 0.67096 0.35849 0.77608 0.0
C666 C 0.68256 0.33236 0.78241 0.0
C667 C 0.7079 0.31981 0.77582 0.0
H668 H 0.57932 0.08762 0.02441 0.0
H669 H 0.61832 0.10973 0.07006 0.0
H670 H 0.60723 0.12687 0.01163 0.0
H671 H 0.64574 0.1494 0.05743 0.0
H672 H 0.70333 0.21117 0.02937 0.0
H673 H 0.68364 0.16452 0.03909 0.0
H674 H 0.60424 0.179 0.01168 0.0
H675 H 0.62421 0.22483 0.00169 0.0
C676 C 0.59399 0.10082 0.03168 0.0
C677 C 0.59647 0.09578 0.04824 0.0
C678 C 0.60993 0.12335 0.02439 0.0
C679 C 0.62852 0.14155 0.03352 0.0
C680 C 0.63194 0.13563 0.04997 0.0
C681 C 0.61616 0.11293 0.05724 0.0
C682 C 0.68189 0.20405 0.02524 0.0
C683 C 0.66526 0.22169 0.01483 0.0
C684 C 0.67051 0.17745 0.03088 0.0
C685 C 0.64227 0.16802 0.02624 0.0
C686 C 0.62622 0.18526 0.01534 0.0
C687 C 0.6376 0.21171 0.00968 0.0
H688 H 0.92402 0.13351 0.29609 0.0
H689 H 0.86771 0.05804 0.30282 0.0
H690 H 0.88346 0.15935 0.28294 0.0
H691 H 0.82797 0.08344 0.28921 0.0
H692 H 0.77352 0.1241 0.25008 0.0
H693 H 0.8182 0.10228 0.26091 0.0
H694 H 0.8313 0.17829 0.29101 0.0
H695 H 0.78627 0.20028 0.28018 0.0
C696 C 0.90309 0.12241 0.29482 0.0
C697 C 0.8993 0.09353 0.30044 0.0
C698 C 0.87995 0.1372 0.28723 0.0
C699 C 0.85274 0.12326 0.28493 0.0
C700 C 0.84893 0.09451 0.29055 0.0
C701 C 0.87181 0.07991 0.29829 0.0
C702 C 0.78612 0.13641 0.25882 0.0
C703 C 0.77625 0.1638 0.26439 0.0
C704 C 0.81162 0.12383 0.26507 0.0
C705 C 0.82796 0.13845 0.27692 0.0
C706 C 0.81911 0.1666 0.28185 0.0
C707 C 0.79335 0.17913 0.27568 0.0
H708 H 0.92658 0.40589 0.52684 0.0
H709 H 0.88062 0.39072 0.57139 0.0
H710 H 0.89941 0.36579 0.51435 0.0
H711 H 0.85362 0.35037 0.55896 0.0
H712 H 0.79674 0.28921 0.52917 0.0
H713 H 0.81755 0.33549 0.5388 0.0
H714 H 0.90085 0.31305 0.51704 0.0
H715 H 0.87996 0.26734 0.50721 0.0
C716 C 0.91055 0.39404 0.53393 0.0
C717 C 0.90593 0.40123 0.55013 0.0
C718 C 0.89501 0.37107 0.52679 0.0
C719 C 0.87457 0.35467 0.5357 0.0
C720 C 0.86898 0.36274 0.55171 0.0
C721 C 0.88447 0.38583 0.55884 0.0
C722 C 0.81937 0.29441 0.52629 0.0
C723 C 0.83676 0.27465 0.51748 0.0
C724 C 0.83133 0.32081 0.53188 0.0
C725 C 0.86087 0.32795 0.52872 0.0
C726 C 0.87791 0.30848 0.5195 0.0
C727 C 0.86599 0.28216 0.51394 0.0
H728 H 0.6285 0.10427 0.43675 0.0
H729 H 0.58049 0.09422 0.48109 0.0
H730 H 0.66461 0.13482 0.45042 0.0
H731 H 0.61644 0.12544 0.49478 0.0
H732 H 0.71309 0.14016 0.51409 0.0
H733 H 0.66864 0.119 0.50248 0.0
H734 H 0.67223 0.18213 0.46394 0.0
H735 H 0.71694 0.20304 0.47544 0.0
C736 C 0.62555 0.10884 0.44941 0.0
C737 C 0.60186 0.09663 0.45789 0.0
C738 C 0.64604 0.12664 0.4572 0.0
C739 C 0.64337 0.13257 0.47369 0.0
C740 C 0.61916 0.1211 0.48209 0.0
C741 C 0.5985 0.10341 0.47424 0.0
C742 C 0.70401 0.14993 0.50333 0.0
C743 C 0.71868 0.17301 0.49556 0.0
C744 C 0.67847 0.13788 0.49671 0.0
C745 C 0.66716 0.14866 0.48217 0.0
C746 C 0.68073 0.17305 0.47501 0.0
C747 C 0.70622 0.18514 0.48165 0.0
H748 H 0.94709 0.13864 0.70349 0.0
H749 H 0.8755 0.07964 0.71456 0.0
H750 H 0.92118 0.17835 0.71685 0.0
H751 H 0.84916 0.11992 0.72765 0.0
H752 H 0.80213 0.21289 0.73074 0.0
H753 H 0.82568 0.1687 0.72001 0.0
H754 H 0.90594 0.1913 0.74481 0.0
H755 H 0.88261 0.23531 0.75545 0.0
C756 C 0.92596 0.13401 0.70892 0.0
C757 C 0.91356 0.10579 0.70807 0.0
C758 C 0.91108 0.15684 0.71655 0.0
C759 C 0.88328 0.15216 0.72343 0.0
C760 C 0.87053 0.12415 0.72239 0.0
C761 C 0.88558 0.10114 0.71485 0.0
C762 C 0.82464 0.20811 0.7341 0.0
C763 C 0.84061 0.22767 0.74382 0.0
C764 C 0.83808 0.18282 0.72799 0.0
C765 C 0.86775 0.1768 0.73141 0.0
C766 C 0.8832 0.19565 0.74176 0.0
C767 C 0.86976 0.22076 0.74792 0.0
H768 H 0.91418 0.4084 0.98035 0.0
H769 H 0.87018 0.39565 0.93496 0.0
H770 H 0.87742 0.37747 0.99349 0.0
H771 H 0.83318 0.36541 0.94809 0.0
H772 H 0.78035 0.36268 0.01107 0.0
H773 H 0.8249 0.384 0.9998 0.0
H774 H 0.82423 0.31885 0.96212 0.0
H775 H 0.77932 0.29769 0.97333 0.0
C776 C 0.89689 0.39868 0.97315 0.0
C777 C 0.89489 0.40465 0.95666 0.0
C778 C 0.87574 0.38115 0.98069 0.0
C779 C 0.85234 0.36905 0.97184 0.0
C780 C 0.85108 0.37411 0.95523 0.0
C781 C 0.87207 0.39174 0.94773 0.0
C782 C 0.79002 0.35255 0.00056 0.0
C783 C 0.7762 0.32869 0.99299 0.0
C784 C 0.81565 0.36469 0.99414 0.0
C785 C 0.82795 0.35328 0.97997 0.0
C786 C 0.81502 0.32837 0.97292 0.0
C787 C 0.78943 0.31614 0.97939 0.0
H788 H 0.60307 0.37184 0.18634 0.0
H789 H 0.5878 0.41361 0.23209 0.0
H790 H 0.6325 0.33414 0.19947 0.0
H791 H 0.6176 0.37591 0.24529 0.0
H792 H 0.70069 0.28121 0.22538 0.0
H793 H 0.67931 0.32628 0.21463 0.0
H794 H 0.61015 0.32203 0.25005 0.0
H795 H 0.63151 0.2771 0.26082 0.0
C796 C 0.60622 0.37303 0.1992 0.0
C797 C 0.59299 0.39548 0.20822 0.0
C798 C 0.62332 0.35165 0.2067 0.0
C799 C 0.62739 0.3521 0.22341 0.0
C800 C 0.61473 0.37496 0.2324 0.0
C801 C 0.59784 0.39659 0.22486 0.0
C802 C 0.68127 0.29024 0.23108 0.0
C803 C 0.66762 0.27553 0.24386 0.0
C804 C 0.66895 0.31593 0.22486 0.0
C805 C 0.64292 0.32751 0.23141 0.0
C806 C 0.63032 0.31375 0.24482 0.0
C807 C 0.64249 0.28795 0.25094 0.0
H808 H 0.13359 0.93801 0.39536 0.0
H809 H 0.04918 0.89757 0.40405 0.0
H810 H 0.15466 0.91032 0.41765 0.0
H811 H 0.07037 0.86953 0.42616 0.0
H812 H 0.11101 0.85866 0.47703 0.0
H813 H 0.08962 0.88204 0.4534 0.0
H814 H 0.16668 0.85902 0.42582 0.0
H815 H 0.18813 0.83575 0.44946 0.0
C816 C 0.11963 0.92303 0.40196 0.0
C817 C 0.08975 0.91998 0.39799 0.0
C818 C 0.13172 0.90703 0.41463 0.0
C819 C 0.11412 0.88784 0.42367 0.0
C820 C 0.08438 0.88435 0.41949 0.0
C821 C 0.07235 0.90017 0.40674 0.0
C822 C 0.12328 0.85844 0.4659 0.0
C823 C 0.15125 0.84545 0.46509 0.0
C824 C 0.11098 0.87168 0.45235 0.0
C825 C 0.12652 0.87238 0.43778 0.0
C826 C 0.15433 0.85905 0.43694 0.0
C827 C 0.16653 0.84562 0.45044 0.0
H828 H 0.10201 0.54024 0.65674 0.0
H829 H 0.10004 0.62398 0.63251 0.0
H830 H 0.12574 0.5629 0.67968 0.0
H831 H 0.12285 0.64701 0.65596 0.0
H832 H 0.18775 0.6715 0.69697 0.0
H833 H 0.1688 0.64898 0.67233 0.0
H834 H 0.10901 0.59644 0.70051 0.0
H835 H 0.12808 0.6185 0.72495 0.0
C836 C 0.107 0.56344 0.65618 0.0
C837 C 0.09913 0.58026 0.64272 0.0
C838 C 0.12026 0.57651 0.66946 0.0
C839 C 0.12586 0.6068 0.66971 0.0
C840 C 0.1189 0.62358 0.65609 0.0
C841 C 0.10559 0.61045 0.64273 0.0
C842 C 0.17063 0.65506 0.69785 0.0
C843 C 0.15947 0.64665 0.71288 0.0
C844 C 0.15969 0.64231 0.68376 0.0
C845 C 0.13756 0.62079 0.68449 0.0
C846 C 0.12642 0.61257 0.69955 0.0
C847 C 0.13723 0.62534 0.71356 0.0
H848 H 0.39145 0.55675 0.89849 0.0
H849 H 0.43598 0.63917 0.89058 0.0
H850 H 0.36503 0.57824 0.92107 0.0
H851 H 0.41007 0.66046 0.91348 0.0
H852 H 0.3401 0.69501 0.94861 0.0
H853 H 0.36092 0.67516 0.9238 0.0
H854 H 0.38032 0.59384 0.94813 0.0
H855 H 0.35938 0.6135 0.9728 0.0
C856 C 0.39523 0.57961 0.9014 0.0
C857 C 0.41589 0.59624 0.89278 0.0
C858 C 0.38035 0.5918 0.91446 0.0
C859 C 0.38571 0.62094 0.91916 0.0
C860 C 0.40539 0.63798 0.91011 0.0
C861 C 0.42039 0.62573 0.89708 0.0
C862 C 0.34875 0.67287 0.94862 0.0
C863 C 0.34815 0.65581 0.96264 0.0
C864 C 0.36074 0.66156 0.93444 0.0
C865 C 0.37214 0.63289 0.93399 0.0
C866 C 0.37131 0.61583 0.94801 0.0
C867 C 0.35951 0.62718 0.96218 0.0
H868 H 0.42514 0.95103 0.16466 0.0
H869 H 0.38173 0.89279 0.13139 0.0
H870 H 0.40055 0.92717 0.18694 0.0
H871 H 0.3559 0.86933 0.15374 0.0
H872 H 0.3401 0.81505 0.19978 0.0
H873 H 0.36212 0.8382 0.1763 0.0
H874 H 0.35475 0.92284 0.19946 0.0
H875 H 0.33417 0.89942 0.22313 0.0
C876 C 0.40993 0.93331 0.16213 0.0
C877 C 0.40511 0.9239 0.14632 0.0
C878 C 0.39567 0.91969 0.1749 0.0
C879 C 0.37584 0.89652 0.17219 0.0
C880 C 0.37118 0.88693 0.15632 0.0
C881 C 0.38585 0.90038 0.1435 0.0
C882 C 0.34306 0.83863 0.19976 0.0
C883 C 0.3357 0.85543 0.21332 0.0
C884 C 0.35554 0.85195 0.18627 0.0
C885 C 0.36058 0.88241 0.18599 0.0
C886 C 0.35197 0.89925 0.19937 0.0
C887 C 0.33994 0.88589 0.21291 0.0
H888 H 0.11326 0.55329 0.86283 0.0
H889 H 0.06824 0.63552 0.87074 0.0
H890 H 0.14004 0.57498 0.84052 0.0
H891 H 0.09433 0.65693 0.848 0.0
H892 H 0.16298 0.69196 0.81247 0.0
H893 H 0.14267 0.67225 0.83743 0.0
H894 H 0.12532 0.58984 0.81358 0.0
H895 H 0.14587 0.60931 0.78885 0.0
C896 C 0.10943 0.57615 0.85999 0.0
C897 C 0.08848 0.59263 0.86852 0.0
C898 C 0.12452 0.58847 0.84706 0.0
C899 C 0.11903 0.61755 0.84236 0.0
C900 C 0.09913 0.63449 0.85135 0.0
C901 C 0.08399 0.62215 0.86429 0.0
C902 C 0.15493 0.66961 0.81263 0.0
C903 C 0.15598 0.65218 0.79872 0.0
C904 C 0.14322 0.65837 0.82688 0.0
C905 C 0.13252 0.62945 0.8275 0.0
C906 C 0.13384 0.61203 0.81359 0.0
C907 C 0.14541 0.62327 0.79937 0.0
H908 H 0.45151 0.61546 0.11086 0.0
H909 H 0.36855 0.57328 0.12115 0.0
H910 H 0.42895 0.64119 0.0884 0.0
H911 H 0.34623 0.5983 0.09833 0.0
H912 H 0.30994 0.66518 0.06256 0.0
H913 H 0.33131 0.64609 0.08737 0.0
H914 H 0.41159 0.62558 0.06198 0.0
H915 H 0.39043 0.64497 0.03734 0.0
C916 C 0.42833 0.61205 0.1085 0.0
C917 C 0.41186 0.59221 0.11774 0.0
C918 C 0.41551 0.62652 0.0955 0.0
C919 C 0.3859 0.62152 0.09146 0.0
C920 C 0.36905 0.60273 0.10116 0.0
C921 C 0.3819 0.5882 0.11414 0.0
C922 C 0.33219 0.65668 0.06233 0.0
C923 C 0.3485 0.6565 0.04802 0.0
C924 C 0.34438 0.64568 0.07651 0.0
C925 C 0.37317 0.63441 0.07665 0.0
C926 C 0.38952 0.63453 0.06234 0.0
C927 C 0.37732 0.64542 0.04819 0.0
H928 H 0.3942 0.94786 0.35963 0.0
H929 H 0.42965 0.86293 0.37201 0.0
H930 H 0.36916 0.92629 0.33663 0.0
H931 H 0.405 0.84141 0.3487 0.0
H932 H 0.33346 0.81063 0.31269 0.0
H933 H 0.35492 0.83073 0.33729 0.0
H934 H 0.38655 0.90564 0.31073 0.0
H935 H 0.36507 0.88569 0.28624 0.0
C936 C 0.39626 0.92448 0.3576 0.0
C937 C 0.4139 0.90709 0.36765 0.0
C938 C 0.38221 0.9122 0.3443 0.0
C939 C 0.38536 0.88223 0.34078 0.0
C940 C 0.40209 0.86457 0.35115 0.0
C941 C 0.41634 0.87691 0.36442 0.0
C942 C 0.34502 0.83138 0.31213 0.0
C943 C 0.34758 0.84662 0.29756 0.0
C944 C 0.35737 0.84281 0.32619 0.0
C945 C 0.37226 0.86982 0.32595 0.0
C946 C 0.37483 0.88498 0.31134 0.0
C947 C 0.36271 0.87346 0.2973 0.0
H948 H 0.11604 0.94722 0.61291 0.0
H949 H 0.07151 0.86429 0.61905 0.0
H950 H 0.1446 0.92651 0.59089 0.0
H951 H 0.09958 0.84378 0.5967 0.0
H952 H 0.1714 0.80961 0.56337 0.0
H953 H 0.14976 0.82968 0.58788 0.0
H954 H 0.13232 0.91121 0.56331 0.0
H955 H 0.15413 0.89128 0.53891 0.0
C956 C 0.11267 0.92442 0.60972 0.0
C957 C 0.09146 0.90739 0.61771 0.0
C958 C 0.12881 0.91267 0.59699 0.0
C959 C 0.12419 0.8836 0.59199 0.0
C960 C 0.10378 0.86621 0.60035 0.0
C961 C 0.08752 0.87801 0.61305 0.0
C962 C 0.16322 0.83192 0.56327 0.0
C963 C 0.16439 0.84887 0.54922 0.0
C964 C 0.15069 0.84334 0.57727 0.0
C965 C 0.13929 0.87199 0.57752 0.0
C966 C 0.14122 0.88918 0.56357 0.0
C967 C 0.15357 0.87771 0.54956 0.0
H968 H 0.55921 0.39026 0.89838 0.0
H969 H 0.63514 0.44721 0.89615 0.0
H970 H 0.58171 0.36351 0.92051 0.0
H971 H 0.6572 0.42082 0.91856 0.0
H972 H 0.66394 0.39246 0.97188 0.0
H973 H 0.64459 0.41621 0.94787 0.0
H974 H 0.62524 0.33139 0.92729 0.0
H975 H 0.64466 0.30756 0.95135 0.0
C976 C 0.5809 0.39679 0.90239 0.0
C977 C 0.59526 0.42105 0.89552 0.0
C978 C 0.59372 0.38149 0.91512 0.0
C979 C 0.62107 0.39026 0.92134 0.0
C980 C 0.63586 0.4139 0.91418 0.0
C981 C 0.62318 0.42903 0.90136 0.0
C982 C 0.6556 0.37888 0.96223 0.0
C983 C 0.65575 0.34817 0.96349 0.0
C984 C 0.64473 0.39247 0.94844 0.0
C985 C 0.63351 0.37563 0.9357 0.0
C986 C 0.63361 0.3449 0.93697 0.0
C987 C 0.64479 0.33129 0.95071 0.0
H988 H 0.5507 0.1191 0.1472 0.0
H989 H 0.62881 0.06632 0.14106 0.0
H990 H 0.57407 0.14489 0.16948 0.0
H991 H 0.65188 0.09155 0.16363 0.0
H992 H 0.69307 0.15887 0.19744 0.0
H993 H 0.67131 0.13903 0.17291 0.0
H994 H 0.58757 0.13106 0.197 0.0
H995 H 0.6092 0.1512 0.22142 0.0
C996 C 0.57304 0.11333 0.15044 0.0
C997 C 0.58788 0.0906 0.14241 0.0
C998 C 0.58629 0.12786 0.16332 0.0
C999 C 0.61471 0.12006 0.16841 0.0
C1000 C 0.63002 0.09818 0.15995 0.0
C1001 C 0.61673 0.08357 0.14711 0.0
C1002 C 0.66998 0.15299 0.19746 0.0
C1003 C 0.65284 0.1565 0.21135 0.0
C1004 C 0.65756 0.14154 0.18344 0.0
C1005 C 0.62771 0.13353 0.18301 0.0
C1006 C 0.61052 0.13742 0.19687 0.0
C1007 C 0.62296 0.14875 0.21089 0.0
H1008 H 0.89549 0.05748 0.40311 0.0
H1009 H 0.93482 0.14151 0.39255 0.0
H1010 H 0.86969 0.0791 0.42589 0.0
H1011 H 0.90941 0.16302 0.41558 0.0
H1012 H 0.83688 0.19552 0.45027 0.0
H1013 H 0.8592 0.17524 0.42596 0.0
H1014 H 0.8857 0.09826 0.45243 0.0
H1015 H 0.86334 0.11842 0.47665 0.0
C1016 C 0.89826 0.08068 0.4055 0.0
C1017 C 0.91721 0.09779 0.39605 0.0
C1018 C 0.88376 0.09296 0.41867 0.0
C1019 C 0.88775 0.12268 0.42261 0.0
C1020 C 0.90582 0.14009 0.4128 0.0
C1021 C 0.92051 0.12774 0.39969 0.0
C1022 C 0.84752 0.17429 0.45088 0.0
C1023 C 0.84839 0.15854 0.46535 0.0
C1024 C 0.86036 0.16274 0.43699 0.0
C1025 C 0.87405 0.1351 0.43728 0.0
C1026 C 0.87493 0.11942 0.45178 0.0
C1027 C 0.86232 0.13106 0.46567 0.0
H1028 H 0.92794 0.45294 0.665 0.0
H1029 H 0.88727 0.39438 0.63085 0.0
H1030 H 0.90202 0.42881 0.68676 0.0
H1031 H 0.86036 0.37054 0.65266 0.0
H1032 H 0.84413 0.315 0.69812 0.0
H1033 H 0.8668 0.33918 0.67517 0.0
H1034 H 0.85525 0.42322 0.69845 0.0
H1035 H 0.83383 0.39881 0.72164 0.0
C1036 C 0.91306 0.43512 0.66214 0.0
C1037 C 0.90946 0.42564 0.64623 0.0
C1038 C 0.89806 0.42133 0.67462 0.0
C1039 C 0.8788 0.39786 0.6715 0.0
C1040 C 0.87522 0.38833 0.65554 0.0
C1041 C 0.89054 0.402 0.64303 0.0
C1042 C 0.84628 0.33867 0.69825 0.0
C1043 C 0.83746 0.35502 0.71171 0.0
C1044 C 0.85914 0.35257 0.68506 0.0
C1045 C 0.86315 0.38317 0.68497 0.0
C1046 C 0.85319 0.39956 0.69823 0.0
C1047 C 0.8407 0.38562 0.71149 0.0
H1048 H 0.61093 0.10906 0.37585 0.0
H1049 H 0.57656 0.04359 0.34344 0.0
H1050 H 0.63367 0.13458 0.35321 0.0
H1051 H 0.59825 0.0693 0.32085 0.0
H1052 H 0.66354 0.10407 0.28523 0.0
H1053 H 0.64377 0.07933 0.30868 0.0
H1054 H 0.62306 0.16333 0.33004 0.0
H1055 H 0.64413 0.18807 0.30675 0.0
C1056 C 0.60814 0.10026 0.36387 0.0
C1057 C 0.59228 0.07421 0.3614 0.0
C1058 C 0.62102 0.1149 0.35089 0.0
C1059 C 0.61799 0.10393 0.33517 0.0
C1060 C 0.60173 0.07804 0.33278 0.0
C1061 C 0.58919 0.06331 0.34573 0.0
C1062 C 0.6548 0.11724 0.29495 0.0
C1063 C 0.65522 0.14798 0.29414 0.0
C1064 C 0.6433 0.10307 0.30838 0.0
C1065 C 0.63152 0.11928 0.32124 0.0
C1066 C 0.63223 0.15011 0.32047 0.0
C1067 C 0.6441 0.16432 0.30708 0.0
H1068 H 0.9187 0.04273 0.5944 0.0
H1069 H 0.88865 0.10834 0.62797 0.0
H1070 H 0.89361 0.06803 0.57272 0.0
H1071 H 0.86251 0.13343 0.60631 0.0
H1072 H 0.84803 0.18714 0.56018 0.0
H1073 H 0.87033 0.16207 0.58294 0.0
H1074 H 0.84688 0.07842 0.56202 0.0
H1075 H 0.82579 0.10358 0.53897 0.0
C1076 C 0.9063 0.0624 0.59716 0.0
C1077 C 0.90547 0.0735 0.61287 0.0
C1078 C 0.89177 0.07687 0.58474 0.0
C1079 C 0.87575 0.1027 0.58773 0.0
C1080 C 0.8749 0.1138 0.60351 0.0
C1081 C 0.88976 0.09943 0.61593 0.0
C1082 C 0.84753 0.16339 0.56052 0.0
C1083 C 0.83538 0.14729 0.54776 0.0
C1084 C 0.86016 0.14899 0.57362 0.0
C1085 C 0.86064 0.11816 0.57432 0.0
C1086 C 0.84753 0.10215 0.56175 0.0
C1087 C 0.83524 0.11655 0.54857 0.0
H1088 H 0.95176 0.39261 0.85679 0.0
H1089 H 0.86843 0.43534 0.86536 0.0
H1090 H 0.9301 0.36546 0.83445 0.0
H1091 H 0.84687 0.4085 0.84284 0.0
H1092 H 0.81201 0.33526 0.81021 0.0
H1093 H 0.83355 0.35755 0.83417 0.0
H1094 H 0.91169 0.37921 0.80722 0.0
H1095 H 0.89022 0.35688 0.78329 0.0
C1096 C 0.92872 0.3959 0.85403 0.0
C1097 C 0.91178 0.41611 0.86281 0.0
C1098 C 0.91641 0.38059 0.84114 0.0
C1099 C 0.88685 0.38497 0.83685 0.0
C1100 C 0.86967 0.40452 0.84593 0.0
C1101 C 0.88205 0.42004 0.85873 0.0
C1102 C 0.83386 0.34461 0.80944 0.0
C1103 C 0.84943 0.34439 0.79488 0.0
C1104 C 0.84611 0.35749 0.82313 0.0
C1105 C 0.87428 0.37013 0.82256 0.0
C1106 C 0.89007 0.36936 0.80806 0.0
C1107 C 0.87771 0.35672 0.79435 0.0
H1108 H 0.55376 0.36951 0.11331 0.0
H1109 H 0.61594 0.44122 0.11168 0.0
H1110 H 0.57898 0.34613 0.09087 0.0
H1111 H 0.64157 0.41726 0.08957 0.0
H1112 H 0.69329 0.35046 0.0585 0.0
H1113 H 0.67068 0.37101 0.08269 0.0
H1114 H 0.58469 0.35993 0.06153 0.0
H1115 H 0.60719 0.3396 0.03738 0.0
C1116 C 0.57284 0.38025 0.10824 0.0
C1117 C 0.5826 0.40742 0.11424 0.0
C1118 C 0.58731 0.36679 0.09541 0.0
C1119 C 0.61209 0.38 0.08842 0.0
C1120 C 0.62265 0.40648 0.09482 0.0
C1121 C 0.608 0.42013 0.10754 0.0
C1122 C 0.66957 0.3524 0.05905 0.0
C1123 C 0.65198 0.3435 0.04606 0.0
C1124 C 0.65667 0.36421 0.07286 0.0
C1125 C 0.62595 0.36693 0.074 0.0
C1126 C 0.6084 0.35776 0.06105 0.0
C1127 C 0.62129 0.34631 0.04719 0.0
loop_
_geom_bond_atom_site_label_1
_geom_bond_atom_site_label_2
_geom_bond_distance
_geom_bond_site_symmetry_2
_ccdc_geom_bond_type
H0 C19 0.949 . S
H1 C20 0.950 . S
H2 C22 0.950 . S
H3 C23 0.950 . S
H4 C25 0.950 . S
H5 C28 0.950 . S
H6 C29 0.950 . S
H7 C31 0.951 . S
H8 C32 0.949 1_565 S
H9 C34 0.949 . S
H10 C35 0.950 . S
H11 C37 0.950 . S
H12 C38 0.950 . S
H13 C40 0.951 . S
H14 C43 0.950 . S
H15 C44 0.950 . S
H16 C46 0.951 . S
H17 C47 0.949 1_545 S
C18 C19 1.376 . S
C18 C23 1.386 . S
C18 C24 1.483 . S
C19 H0 0.949 . S
C19 C18 1.376 . S
C19 C20 1.397 . S
C20 H1 0.950 . S
C20 C19 1.397 . S
C20 C21 1.391 . S
C21 C20 1.391 . S
C21 C22 1.405 . S
C22 H2 0.950 . S
C22 C21 1.405 . S
C22 C23 1.367 . S
C23 H3 0.950 . S
C23 C18 1.386 . S
C23 C22 1.367 . S
C24 C18 1.483 . S
C24 C25 1.382 1_655 S
C24 C26 1.403 . S
C25 H4 0.950 . S
C25 C24 1.382 1_455 S
C25 C41 1.411 1_545 S
C26 C24 1.403 . S
C26 C27 1.489 . S
C26 C40 1.419 1_545 S
C27 C26 1.489 . S
C27 C28 1.383 . S
C27 C32 1.382 . S
C28 H5 0.950 . S
C28 C27 1.383 . S
C28 C29 1.395 . S
C29 H6 0.950 . S
C29 C28 1.395 . S
C29 C30 1.288 . S
C30 C29 1.288 . S
C30 C31 1.392 . S
C31 H7 0.951 . S
C31 C30 1.392 . S
C31 C32 1.392 . S
C32 H8 0.949 1_545 S
C32 C27 1.382 . S
C32 C31 1.392 . S
C33 C34 1.376 . S
C33 C38 1.386 . S
C33 C39 1.483 . S
C34 H9 0.949 . S
C34 C33 1.376 . S
C34 C35 1.397 . S
C35 H10 0.950 . S
C35 C34 1.397 . S
C35 C36 1.391 . S
C36 C35 1.391 . S
C36 C37 1.405 . S
C37 H11 0.950 . S
C37 C36 1.405 . S
C37 C38 1.367 . S
C38 H12 0.950 . S
C38 C33 1.386 . S
C38 C37 1.367 . S
C39 C33 1.483 . S
C39 C40 1.372 1_455 S
C39 C41 1.403 . S
C40 H13 0.951 . S
C40 C26 1.419 1_565 S
C40 C39 1.372 1_655 S
C41 C25 1.411 1_565 S
C41 C39 1.403 . S
C41 C42 1.489 . S
C42 C41 1.489 . S
C42 C43 1.383 . S
C42 C47 1.382 . S
C43 H14 0.950 . S
C43 C42 1.383 . S
C43 C44 1.395 . S
C44 H15 0.950 . S
C44 C43 1.395 . S
C44 C45 1.288 . S
C45 C44 1.288 . S
C45 C46 1.392 . S
C46 H16 0.951 . S
C46 C45 1.392 . S
C46 C47 1.392 . S
C47 H17 0.949 1_565 S
C47 C42 1.382 . S
C47 C46 1.392 . S
H48 C67 0.949 1_455 S
H49 C68 0.950 . S
H50 C70 0.950 . S
H51 C71 0.950 . S
H52 C73 0.950 . S
H53 C76 0.950 . S
H54 C77 0.950 . S
H55 C79 0.951 . S
H56 C80 0.949 . S
H57 C82 0.949 1_655 S
H58 C83 0.950 . S
H59 C85 0.950 . S
H60 C86 0.950 . S
H61 C88 0.950 . S
H62 C91 0.950 . S
H63 C92 0.950 . S
H64 C94 0.951 . S
H65 C95 0.949 . S
C66 C67 1.376 . S
C66 C71 1.386 . S
C66 C72 1.483 . S
C67 H48 0.949 1_655 S
C67 C66 1.376 . S
C67 C68 1.397 . S
C68 H49 0.950 . S
C68 C67 1.397 . S
C68 C69 1.391 . S
C69 C68 1.391 . S
C69 C70 1.405 . S
C70 H50 0.950 . S
C70 C69 1.405 . S
C70 C71 1.367 . S
C71 H51 0.950 . S
C71 C66 1.386 . S
C71 C70 1.367 . S
C72 C66 1.483 . S
C72 C73 1.382 1_655 S
C72 C74 1.403 . S
C73 H52 0.950 . S
C73 C72 1.382 1_455 S
C73 C89 1.411 . S
C74 C72 1.403 . S
C74 C75 1.489 . S
C74 C88 1.411 . S
C75 C74 1.489 . S
C75 C76 1.383 . S
C75 C80 1.382 . S
C76 H53 0.950 . S
C76 C75 1.383 . S
C76 C77 1.395 . S
C77 H54 0.950 . S
C77 C76 1.395 . S
C77 C78 1.288 . S
C78 C77 1.288 . S
C78 C79 1.392 . S
C79 H55 0.951 . S
C79 C78 1.392 . S
C79 C80 1.392 . S
C80 H56 0.949 . S
C80 C75 1.382 . S
C80 C79 1.392 . S
C81 C82 1.376 . S
C81 C86 1.386 . S
C81 C87 1.483 . S
C82 H57 0.949 1_455 S
C82 C81 1.376 . S
C82 C83 1.397 . S
C83 H58 0.950 . S
C83 C82 1.397 . S
C83 C84 1.391 . S
C84 C83 1.391 . S
C84 C85 1.405 . S
C85 H59 0.950 . S
C85 C84 1.405 . S
C85 C86 1.367 . S
C86 H60 0.950 . S
C86 C81 1.386 . S
C86 C85 1.367 . S
C87 C81 1.483 . S
C87 C88 1.382 1_455 S
C87 C89 1.403 . S
C88 H61 0.950 . S
C88 C74 1.411 . S
C88 C87 1.382 1_655 S
C89 C73 1.411 . S
C89 C87 1.403 . S
C89 C90 1.489 . S
C90 C89 1.489 . S
C90 C91 1.383 . S
C90 C95 1.382 . S
C91 H62 0.950 . S
C91 C90 1.383 . S
C91 C92 1.395 . S
C92 H63 0.950 . S
C92 C91 1.395 . S
C92 C93 1.288 . S
C93 C92 1.288 . S
C93 C94 1.392 . S
C94 H64 0.951 . S
C94 C93 1.392 . S
C94 C95 1.392 . S
C95 H65 0.949 . S
C95 C90 1.382 . S
C95 C94 1.392 . S
H96 C115 0.949 . S
H97 C116 0.950 . S
H98 C118 0.950 . S
H99 C119 0.950 . S
H100 C121 0.950 . S
H101 C124 0.950 . S
H102 C125 0.950 . S
H103 C127 0.951 . S
H104 C128 0.949 . S
H105 C130 0.949 . S
H106 C131 0.950 . S
H107 C133 0.950 . S
H108 C134 0.950 . S
H109 C136 0.950 . S
H110 C139 0.950 . S
H111 C140 0.950 . S
H112 C142 0.951 . S
H113 C143 0.949 . S
C114 C115 1.376 . S
C114 C119 1.386 . S
C114 C120 1.483 . S
C115 H96 0.949 . S
C115 C114 1.376 . S
C115 C116 1.397 . S
C116 H97 0.950 . S
C116 C115 1.397 . S
C116 C117 1.391 . S
C117 C116 1.391 . S
C117 C118 1.405 . S
C118 H98 0.950 . S
C118 C117 1.405 . S
C118 C119 1.367 . S
C119 H99 0.950 . S
C119 C114 1.386 . S
C119 C118 1.367 . S
C120 C114 1.483 . S
C120 C121 1.382 . S
C120 C122 1.403 . S
C121 H100 0.950 . S
C121 C120 1.382 . S
C121 C137 1.411 . S
C122 C120 1.403 . S
C122 C123 1.489 . S
C122 C136 1.411 . S
C123 C122 1.489 . S
C123 C124 1.383 . S
C123 C128 1.382 . S
C124 H101 0.950 . S
C124 C123 1.383 . S
C124 C125 1.395 . S
C125 H102 0.950 . S
C125 C124 1.395 . S
C125 C126 1.288 . S
C126 C125 1.288 . S
C126 C127 1.392 . S
C127 H103 0.951 . S
C127 C126 1.392 . S
C127 C128 1.392 . S
C128 H104 0.949 . S
C128 C123 1.382 . S
C128 C127 1.392 . S
C129 C130 1.376 . S
C129 C134 1.386 . S
C129 C135 1.483 . S
C130 H105 0.949 . S
C130 C129 1.376 . S
C130 C131 1.397 . S
C131 H106 0.950 . S
C131 C130 1.397 . S
C131 C132 1.391 . S
C132 C131 1.391 . S
C132 C133 1.405 . S
C133 H107 0.950 . S
C133 C132 1.405 . S
C133 C134 1.367 . S
C134 H108 0.950 . S
C134 C129 1.386 . S
C134 C133 1.367 . S
C135 C129 1.483 . S
C135 C136 1.382 . S
C135 C137 1.403 . S
C136 H109 0.950 . S
C136 C122 1.411 . S
C136 C135 1.382 . S
C137 C121 1.411 . S
C137 C135 1.403 . S
C137 C138 1.489 . S
C138 C137 1.489 . S
C138 C139 1.383 . S
C138 C143 1.382 . S
C139 H110 0.950 . S
C139 C138 1.383 . S
C139 C140 1.395 . S
C140 H111 0.950 . S
C140 C139 1.395 . S
C140 C141 1.288 . S
C141 C140 1.288 . S
C141 C142 1.392 . S
C142 H112 0.951 . S
C142 C141 1.392 . S
C142 C143 1.392 . S
C143 H113 0.949 . S
C143 C138 1.382 . S
C143 C142 1.392 . S
H144 C163 0.949 . S
H145 C164 0.950 . S
H146 C166 0.950 . S
H147 C167 0.950 . S
H148 C169 0.950 . S
H149 C172 0.950 . S
H150 C173 0.950 . S
H151 C175 0.951 . S
H152 C176 0.949 . S
H153 C178 0.949 . S
H154 C179 0.950 . S
H155 C181 0.950 . S
H156 C182 0.950 . S
H157 C184 0.950 . S
H158 C187 0.950 . S
H159 C188 0.950 . S
H160 C190 0.951 . S
H161 C191 0.949 . S
C162 C163 1.376 . S
C162 C167 1.386 . S
C162 C168 1.483 . S
C163 H144 0.949 . S
C163 C162 1.376 . S
C163 C164 1.397 . S
C164 H145 0.950 . S
C164 C163 1.397 . S
C164 C165 1.391 . S
C165 C164 1.391 . S
C165 C166 1.405 . S
C166 H146 0.950 . S
C166 C165 1.405 . S
C166 C167 1.367 . S
C167 H147 0.950 . S
C167 C162 1.386 . S
C167 C166 1.367 . S
C168 C162 1.483 . S
C168 C169 1.382 . S
C168 C170 1.403 . S
C169 H148 0.950 . S
C169 C168 1.382 . S
C169 C185 1.411 1_565 S
C170 C168 1.403 . S
C170 C171 1.489 . S
C170 C184 1.411 1_565 S
C171 C170 1.489 . S
C171 C172 1.383 . S
C171 C176 1.382 . S
C172 H149 0.950 . S
C172 C171 1.383 . S
C172 C173 1.395 . S
C173 H150 0.950 . S
C173 C172 1.395 . S
C173 C174 1.288 . S
C174 C173 1.288 . S
C174 C175 1.392 . S
C175 H151 0.951 . S
C175 C174 1.392 . S
C175 C176 1.392 . S
C176 H152 0.949 . S
C176 C171 1.382 . S
C176 C175 1.392 . S
C177 C178 1.376 . S
C177 C182 1.386 . S
C177 C183 1.483 . S
C178 H153 0.949 . S
C178 C177 1.376 . S
C178 C179 1.397 . S
C179 H154 0.950 . S
C179 C178 1.397 . S
C179 C180 1.391 . S
C180 C179 1.391 . S
C180 C181 1.405 . S
C181 H155 0.950 . S
C181 C180 1.405 . S
C181 C182 1.367 . S
C182 H156 0.950 . S
C182 C177 1.386 . S
C182 C181 1.367 . S
C183 C177 1.483 . S
C183 C184 1.382 . S
C183 C185 1.403 . S
C184 H157 0.950 . S
C184 C170 1.411 1_545 S
C184 C183 1.382 . S
C185 C169 1.411 1_545 S
C185 C183 1.403 . S
C185 C186 1.489 . S
C186 C185 1.489 . S
C186 C187 1.383 . S
C186 C191 1.382 . S
C187 H158 0.950 . S
C187 C186 1.383 . S
C187 C188 1.395 . S
C188 H159 0.950 . S
C188 C187 1.395 . S
C188 C189 1.288 . S
C189 C188 1.288 . S
C189 C190 1.392 . S
C190 H160 0.951 . S
C190 C189 1.392 . S
C190 C191 1.392 . S
C191 H161 0.949 . S
C191 C186 1.382 . S
C191 C190 1.392 . S
H192 C211 0.949 . S
H193 C212 0.950 . S
H194 C214 0.950 . S
H195 C215 0.950 . S
H196 C217 0.950 . S
H197 C220 0.950 . S
H198 C221 0.950 . S
H199 C223 0.951 . S
H200 C224 0.949 . S
H201 C226 0.949 . S
H202 C227 0.950 . S
H203 C229 0.950 . S
H204 C230 0.950 . S
H205 C232 0.950 . S
H206 C235 0.950 . S
H207 C236 0.950 . S
H208 C238 0.951 . S
H209 C239 0.949 . S
C210 C211 1.376 . S
C210 C215 1.386 . S
C210 C216 1.483 . S
C211 H192 0.949 . S
C211 C210 1.376 . S
C211 C212 1.397 . S
C212 H193 0.950 . S
C212 C211 1.397 . S
C212 C213 1.391 . S
C213 C212 1.391 . S
C213 C214 1.405 . S
C214 H194 0.950 . S
C214 C213 1.405 . S
C214 C215 1.367 . S
C215 H195 0.950 . S
C215 C210 1.386 . S
C215 C214 1.367 . S
C216 C210 1.483 . S
C216 C217 1.382 1_455 S
C216 C218 1.403 . S
C217 H196 0.950 . S
C217 C216 1.382 1_655 S
C217 C233 1.411 . S
C218 C216 1.403 . S
C218 C219 1.489 . S
C218 C232 1.411 . S
C219 C218 1.489 . S
C219 C220 1.383 . S
C219 C224 1.382 . S
C220 H197 0.950 . S
C220 C219 1.383 . S
C220 C221 1.395 . S
C221 H198 0.950 . S
C221 C220 1.395 . S
C221 C222 1.288 . S
C222 C221 1.288 . S
C222 C223 1.392 . S
C223 H199 0.951 . S
C223 C222 1.392 . S
C223 C224 1.392 . S
C224 H200 0.949 . S
C224 C219 1.382 . S
C224 C223 1.392 . S
C225 C226 1.376 . S
C225 C230 1.386 . S
C225 C231 1.483 . S
C226 H201 0.949 . S
C226 C225 1.376 . S
C226 C227 1.397 . S
C227 H202 0.950 . S
C227 C226 1.397 . S
C227 C228 1.391 . S
C228 C227 1.391 . S
C228 C229 1.405 . S
C229 H203 0.950 . S
C229 C228 1.405 . S
C229 C230 1.367 . S
C230 H204 0.950 . S
C230 C225 1.386 . S
C230 C229 1.367 . S
C231 C225 1.483 . S
C231 C232 1.382 1_655 S
C231 C233 1.403 . S
C232 H205 0.950 . S
C232 C218 1.411 . S
C232 C231 1.382 1_455 S
C233 C217 1.411 . S
C233 C231 1.403 . S
C233 C234 1.489 . S
C234 C233 1.489 . S
C234 C235 1.383 . S
C234 C239 1.382 . S
C235 H206 0.950 . S
C235 C234 1.383 . S
C235 C236 1.395 . S
C236 H207 0.950 . S
C236 C235 1.395 . S
C236 C237 1.288 . S
C237 C236 1.288 . S
C237 C238 1.392 . S
C238 H208 0.951 . S
C238 C237 1.392 . S
C238 C239 1.392 . S
C239 H209 0.949 . S
C239 C234 1.382 . S
C239 C238 1.392 . S
H240 C259 0.949 . S
H241 C260 0.950 . S
H242 C262 0.950 . S
H243 C263 0.950 . S
H244 C265 0.950 . S
H245 C268 0.950 . S
H246 C269 0.950 . S
H247 C271 0.951 . S
H248 C272 0.949 . S
H249 C274 0.949 . S
H250 C275 0.950 . S
H251 C277 0.950 . S
H252 C278 0.950 . S
H253 C280 0.950 . S
H254 C283 0.950 . S
H255 C284 0.950 . S
H256 C286 0.951 . S
H257 C287 0.949 . S
C258 C259 1.376 . S
C258 C263 1.386 . S
C258 C264 1.483 . S
C259 H240 0.949 . S
C259 C258 1.376 . S
C259 C260 1.397 . S
C260 H241 0.950 . S
C260 C259 1.397 . S
C260 C261 1.391 . S
C261 C260 1.391 . S
C261 C262 1.405 . S
C262 H242 0.950 . S
C262 C261 1.405 . S
C262 C263 1.367 . S
C263 H243 0.950 . S
C263 C258 1.386 . S
C263 C262 1.367 . S
C264 C258 1.483 . S
C264 C265 1.382 . S
C264 C266 1.403 . S
C265 H244 0.950 . S
C265 C264 1.382 . S
C265 C281 1.411 . S
C266 C264 1.403 . S
C266 C267 1.489 . S
C266 C280 1.411 . S
C267 C266 1.489 . S
C267 C268 1.383 . S
C267 C272 1.382 . S
C268 H245 0.950 . S
C268 C267 1.383 . S
C268 C269 1.395 . S
C269 H246 0.950 . S
C269 C268 1.395 . S
C269 C270 1.288 . S
C270 C269 1.288 . S
C270 C271 1.392 . S
C271 H247 0.951 . S
C271 C270 1.392 . S
C271 C272 1.392 . S
C272 H248 0.949 . S
C272 C267 1.382 . S
C272 C271 1.392 . S
C273 C274 1.376 . S
C273 C278 1.386 . S
C273 C279 1.483 . S
C274 H249 0.949 . S
C274 C273 1.376 . S
C274 C275 1.397 . S
C275 H250 0.950 . S
C275 C274 1.397 . S
C275 C276 1.391 . S
C276 C275 1.391 . S
C276 C277 1.405 . S
C277 H251 0.950 . S
C277 C276 1.405 . S
C277 C278 1.367 . S
C278 H252 0.950 . S
C278 C273 1.386 . S
C278 C277 1.367 . S
C279 C273 1.483 . S
C279 C280 1.382 . S
C279 C281 1.403 . S
C280 H253 0.950 . S
C280 C266 1.411 . S
C280 C279 1.382 . S
C281 C265 1.411 . S
C281 C279 1.403 . S
C281 C282 1.489 . S
C282 C281 1.489 . S
C282 C283 1.383 . S
C282 C287 1.382 . S
C283 H254 0.950 . S
C283 C282 1.383 . S
C283 C284 1.395 . S
C284 H255 0.950 . S
C284 C283 1.395 . S
C284 C285 1.288 . S
C285 C284 1.288 . S
C285 C286 1.392 . S
C286 H256 0.951 . S
C286 C285 1.392 . S
C286 C287 1.392 . S
C287 H257 0.949 . S
C287 C282 1.382 . S
C287 C286 1.392 . S
H288 C307 0.949 . S
H289 C308 0.950 . S
H290 C310 0.950 . S
H291 C311 0.950 . S
H292 C313 0.950 . S
H293 C316 0.950 . S
H294 C317 0.950 . S
H295 C319 0.951 . S
H296 C320 0.949 1_545 S
H297 C322 0.949 . S
H298 C323 0.950 . S
H299 C325 0.950 . S
H300 C326 0.950 . S
H301 C328 0.950 . S
H302 C331 0.950 . S
H303 C332 0.950 . S
H304 C334 0.951 . S
H305 C335 0.949 1_565 S
C306 C307 1.376 . S
C306 C311 1.386 . S
C306 C312 1.483 . S
C307 H288 0.949 . S
C307 C306 1.376 . S
C307 C308 1.397 . S
C308 H289 0.950 . S
C308 C307 1.397 . S
C308 C309 1.391 . S
C309 C308 1.391 . S
C309 C310 1.405 . S
C310 H290 0.950 . S
C310 C309 1.405 . S
C310 C311 1.367 . S
C311 H291 0.950 . S
C311 C306 1.386 . S
C311 C310 1.367 . S
C312 C306 1.483 . S
C312 C313 1.382 . S
C312 C314 1.403 . S
C313 H292 0.950 . S
C313 C312 1.382 . S
C313 C329 1.411 1_565 S
C314 C312 1.403 . S
C314 C315 1.489 . S
C314 C328 1.411 1_565 S
C315 C314 1.489 . S
C315 C316 1.383 . S
C315 C320 1.382 . S
C316 H293 0.950 . S
C316 C315 1.383 . S
C316 C317 1.395 . S
C317 H294 0.950 . S
C317 C316 1.395 . S
C317 C318 1.288 . S
C318 C317 1.288 . S
C318 C319 1.392 . S
C319 H295 0.951 . S
C319 C318 1.392 . S
C319 C320 1.392 . S
C320 H296 0.949 1_565 S
C320 C315 1.382 . S
C320 C319 1.392 . S
C321 C322 1.376 . S
C321 C326 1.386 . S
C321 C327 1.483 . S
C322 H297 0.949 . S
C322 C321 1.376 . S
C322 C323 1.397 . S
C323 H298 0.950 . S
C323 C322 1.397 . S
C323 C324 1.391 . S
C324 C323 1.391 . S
C324 C325 1.405 . S
C325 H299 0.950 . S
C325 C324 1.405 . S
C325 C326 1.367 . S
C326 H300 0.950 . S
C326 C321 1.386 . S
C326 C325 1.367 . S
C327 C321 1.483 . S
C327 C328 1.382 . S
C327 C329 1.403 . S
C328 H301 0.950 . S
C328 C314 1.411 1_545 S
C328 C327 1.382 . S
C329 C313 1.411 1_545 S
C329 C327 1.403 . S
C329 C330 1.489 . S
C330 C329 1.489 . S
C330 C331 1.383 . S
C330 C335 1.382 . S
C331 H302 0.950 . S
C331 C330 1.383 . S
C331 C332 1.395 . S
C332 H303 0.950 . S
C332 C331 1.395 . S
C332 C333 1.288 . S
C333 C332 1.288 . S
C333 C334 1.392 . S
C334 H304 0.951 . S
C334 C333 1.392 . S
C334 C335 1.392 . S
C335 H305 0.949 1_545 S
C335 C330 1.382 . S
C335 C334 1.392 . S
H336 C355 0.949 1_455 S
H337 C356 0.950 . S
H338 C358 0.950 . S
H339 C359 0.950 . S
H340 C361 0.950 . S
H341 C364 0.950 . S
H342 C365 0.950 . S
H343 C367 0.951 . S
H344 C368 0.949 . S
H345 C370 0.949 1_655 S
H346 C371 0.950 . S
H347 C373 0.950 . S
H348 C374 0.950 . S
H349 C376 0.950 . S
H350 C379 0.950 . S
H351 C380 0.950 . S
H352 C382 0.951 . S
H353 C383 0.949 . S
C354 C355 1.376 . S
C354 C359 1.386 . S
C354 C360 1.483 . S
C355 H336 0.949 1_655 S
C355 C354 1.376 . S
C355 C356 1.397 . S
C356 H337 0.950 . S
C356 C355 1.397 . S
C356 C357 1.391 . S
C357 C356 1.391 . S
C357 C358 1.405 . S
C358 H338 0.950 . S
C358 C357 1.405 . S
C358 C359 1.367 . S
C359 H339 0.950 . S
C359 C354 1.386 . S
C359 C358 1.367 . S
C360 C354 1.483 . S
C360 C361 1.382 1_655 S
C360 C362 1.403 . S
C361 H340 0.950 . S
C361 C360 1.382 1_455 S
C361 C377 1.411 1_545 S
C362 C360 1.403 . S
C362 C363 1.489 . S
C362 C376 1.411 1_545 S
C363 C362 1.489 . S
C363 C364 1.383 . S
C363 C368 1.382 . S
C364 H341 0.950 . S
C364 C363 1.383 . S
C364 C365 1.395 . S
C365 H342 0.950 . S
C365 C364 1.395 . S
C365 C366 1.288 . S
C366 C365 1.288 . S
C366 C367 1.392 . S
C367 H343 0.951 . S
C367 C366 1.392 . S
C367 C368 1.392 . S
C368 H344 0.949 . S
C368 C363 1.382 . S
C368 C367 1.392 . S
C369 C370 1.376 . S
C369 C374 1.386 . S
C369 C375 1.483 . S
C370 H345 0.949 1_455 S
C370 C369 1.376 . S
C370 C371 1.397 . S
C371 H346 0.950 . S
C371 C370 1.397 . S
C371 C372 1.391 . S
C372 C371 1.391 . S
C372 C373 1.405 . S
C373 H347 0.950 . S
C373 C372 1.405 . S
C373 C374 1.367 . S
C374 H348 0.950 . S
C374 C369 1.386 . S
C374 C373 1.367 . S
C375 C369 1.483 . S
C375 C376 1.382 1_455 S
C375 C377 1.403 . S
C376 H349 0.950 . S
C376 C362 1.411 1_565 S
C376 C375 1.382 1_655 S
C377 C361 1.411 1_565 S
C377 C375 1.403 . S
C377 C378 1.489 . S
C378 C377 1.489 . S
C378 C379 1.383 . S
C378 C383 1.382 . S
C379 H350 0.950 . S
C379 C378 1.383 . S
C379 C380 1.395 . S
C380 H351 0.950 . S
C380 C379 1.395 . S
C380 C381 1.288 . S
C381 C380 1.288 . S
C381 C382 1.392 . S
C382 H352 0.951 . S
C382 C381 1.392 . S
C382 C383 1.392 . S
C383 H353 0.949 . S
C383 C378 1.382 . S
C383 C382 1.392 . S
In384 O385 2.294 . S
In384 O386 2.326 . S
In384 O390 2.266 1_554 S
In384 O391 2.326 1_554 S
In384 O392 2.266 1_554 S
In384 O393 2.326 1_554 S
In384 O395 2.294 . S
In384 O396 2.326 . S
O385 In384 2.294 . S
O385 C394 1.240 . S
O386 In384 2.326 . S
O386 C394 1.252 . S
C387 O390 1.252 . S
C387 O391 1.260 . S
C388 O395 1.240 . S
C388 O396 1.252 . S
C389 O392 1.252 . S
C389 O393 1.260 . S
O390 In384 2.266 1_556 S
O390 C387 1.252 . S
O391 In384 2.326 1_556 S
O391 C387 1.260 . S
O392 In384 2.266 1_556 S
O392 C389 1.252 . S
O393 In384 2.326 1_556 S
O393 C389 1.260 . S
C394 O385 1.240 . S
C394 O386 1.252 . S
O395 In384 2.294 . S
O395 C388 1.240 . S
O396 In384 2.326 . S
O396 C388 1.252 . S
In397 O398 2.294 . S
In397 O399 2.326 . S
In397 O403 2.266 . S
In397 O404 2.326 . S
In397 O405 2.266 . S
In397 O406 2.326 . S
In397 O408 2.294 . S
In397 O409 2.326 . S
O398 In397 2.294 . S
O398 C407 1.240 . S
O399 In397 2.326 . S
O399 C407 1.252 . S
C400 O403 1.252 . S
C400 O404 1.260 . S
C401 O408 1.240 . S
C401 O409 1.252 . S
C402 O405 1.252 . S
C402 O406 1.260 . S
O403 In397 2.266 . S
O403 C400 1.252 . S
O404 In397 2.326 . S
O404 C400 1.260 . S
O405 In397 2.266 . S
O405 C402 1.252 . S
O406 In397 2.326 . S
O406 C402 1.260 . S
C407 O398 1.240 . S
C407 O399 1.252 . S
O408 In397 2.294 . S
O408 C401 1.240 . S
O409 In397 2.326 . S
O409 C401 1.252 . S
In410 O411 2.294 . S
In410 O412 2.326 . S
In410 O416 2.266 . S
In410 O417 2.326 . S
In410 O418 2.266 . S
In410 O419 2.326 . S
In410 O421 2.294 . S
In410 O422 2.326 . S
O411 In410 2.294 . S
O411 C420 1.240 . S
O412 In410 2.326 . S
O412 C420 1.252 . S
C413 O416 1.252 . S
C413 O417 1.260 . S
C414 O421 1.240 . S
C414 O422 1.252 . S
C415 O418 1.252 . S
C415 O419 1.260 . S
O416 In410 2.266 . S
O416 C413 1.252 . S
O417 In410 2.326 . S
O417 C413 1.260 . S
O418 In410 2.266 . S
O418 C415 1.252 . S
O419 In410 2.326 . S
O419 C415 1.260 . S
C420 O411 1.240 . S
C420 O412 1.252 . S
O421 In410 2.294 . S
O421 C414 1.240 . S
O422 In410 2.326 . S
O422 C414 1.252 . S
In423 O424 2.294 . S
In423 O425 2.326 . S
In423 O429 2.266 . S
In423 O430 2.326 . S
In423 O431 2.266 . S
In423 O432 2.326 . S
In423 O434 2.294 . S
In423 O435 2.326 . S
O424 In423 2.294 . S
O424 C433 1.240 . S
O425 In423 2.326 . S
O425 C433 1.252 . S
C426 O429 1.252 . S
C426 O430 1.260 . S
C427 O434 1.240 . S
C427 O435 1.252 . S
C428 O431 1.252 . S
C428 O432 1.260 . S
O429 In423 2.266 . S
O429 C426 1.252 . S
O430 In423 2.326 . S
O430 C426 1.260 . S
O431 In423 2.266 . S
O431 C428 1.252 . S
O432 In423 2.326 . S
O432 C428 1.260 . S
C433 O424 1.240 . S
C433 O425 1.252 . S
O434 In423 2.294 . S
O434 C427 1.240 . S
O435 In423 2.326 . S
O435 C427 1.252 . S
In436 O437 2.294 . S
In436 O438 2.326 . S
In436 O442 2.266 . S
In436 O443 2.326 . S
In436 O444 2.266 . S
In436 O445 2.326 . S
In436 O447 2.294 . S
In436 O448 2.326 . S
O437 In436 2.294 . S
O437 C446 1.240 . S
O438 In436 2.326 . S
O438 C446 1.252 . S
C439 O442 1.252 . S
C439 O443 1.260 . S
C440 O447 1.240 . S
C440 O448 1.252 . S
C441 O444 1.252 . S
C441 O445 1.260 . S
O442 In436 2.266 . S
O442 C439 1.252 . S
O443 In436 2.326 . S
O443 C439 1.260 . S
O444 In436 2.266 . S
O444 C441 1.252 . S
O445 In436 2.326 . S
O445 C441 1.260 . S
C446 O437 1.240 . S
C446 O438 1.252 . S
O447 In436 2.294 . S
O447 C440 1.240 . S
O448 In436 2.326 . S
O448 C440 1.252 . S
In449 O450 2.294 . S
In449 O451 2.326 . S
In449 O455 2.266 . S
In449 O456 2.326 . S
In449 O457 2.266 . S
In449 O458 2.326 . S
In449 O460 2.294 . S
In449 O461 2.326 . S
O450 In449 2.294 . S
O450 C459 1.240 . S
O451 In449 2.326 . S
O451 C459 1.252 . S
C452 O455 1.252 . S
C452 O456 1.260 . S
C453 O460 1.240 . S
C453 O461 1.252 . S
C454 O457 1.252 . S
C454 O458 1.260 . S
O455 In449 2.266 . S
O455 C452 1.252 . S
O456 In449 2.326 . S
O456 C452 1.260 . S
O457 In449 2.266 . S
O457 C454 1.252 . S
O458 In449 2.326 . S
O458 C454 1.260 . S
C459 O450 1.240 . S
C459 O451 1.252 . S
O460 In449 2.294 . S
O460 C453 1.240 . S
O461 In449 2.326 . S
O461 C453 1.252 . S
In462 O463 2.294 . S
In462 O464 2.326 . S
In462 O468 2.266 1_554 S
In462 O469 2.326 1_554 S
In462 O470 2.266 1_554 S
In462 O471 2.326 1_554 S
In462 O473 2.294 . S
In462 O474 2.326 . S
O463 In462 2.294 . S
O463 C472 1.240 . S
O464 In462 2.326 . S
O464 C472 1.252 . S
C465 O468 1.252 . S
C465 O469 1.260 . S
C466 O473 1.240 . S
C466 O474 1.252 . S
C467 O470 1.252 . S
C467 O471 1.260 . S
O468 In462 2.266 1_556 S
O468 C465 1.252 . S
O469 In462 2.326 1_556 S
O469 C465 1.260 . S
O470 In462 2.266 1_556 S
O470 C467 1.252 . S
O471 In462 2.326 1_556 S
O471 C467 1.260 . S
C472 O463 1.240 . S
C472 O464 1.252 . S
O473 In462 2.294 . S
O473 C466 1.240 . S
O474 In462 2.326 . S
O474 C466 1.252 . S
In475 O476 2.294 . S
In475 O477 2.326 . S
In475 O481 2.266 . S
In475 O482 2.326 . S
In475 O483 2.266 . S
In475 O484 2.326 . S
In475 O486 2.294 . S
In475 O487 2.326 . S
O476 In475 2.294 . S
O476 C485 1.240 . S
O477 In475 2.326 . S
O477 C485 1.252 . S
C478 O481 1.252 . S
C478 O482 1.260 . S
C479 O486 1.240 . S
C479 O487 1.252 . S
C480 O483 1.252 . S
C480 O484 1.260 . S
O481 In475 2.266 . S
O481 C478 1.252 . S
O482 In475 2.326 . S
O482 C478 1.260 . S
O483 In475 2.266 . S
O483 C480 1.252 . S
O484 In475 2.326 . S
O484 C480 1.260 . S
C485 O476 1.240 . S
C485 O477 1.252 . S
O486 In475 2.294 . S
O486 C479 1.240 . S
O487 In475 2.326 . S
O487 C479 1.252 . S
H488 C496 0.950 . S
H489 C501 0.950 . S
H490 C498 0.950 . S
H491 C500 0.950 . S
H492 C502 0.950 . S
H493 C504 0.950 . S
H494 C506 0.950 . S
H495 C507 0.950 . S
C496 H488 0.950 . S
C496 C497 1.386 . S
C496 C498 1.391 . S
C497 C496 1.386 . S
C497 C501 1.393 . S
C498 H490 0.950 . S
C498 C496 1.391 . S
C498 C499 1.400 . S
C499 C498 1.400 . S
C499 C500 1.398 . S
C499 C505 1.491 . S
C500 H491 0.950 . S
C500 C499 1.398 . S
C500 C501 1.391 . S
C501 H489 0.950 . S
C501 C497 1.393 . S
C501 C500 1.391 . S
C502 H492 0.950 . S
C502 C503 1.386 . S
C502 C504 1.391 . S
C503 C502 1.386 . S
C503 C507 1.393 . S
C504 H493 0.950 . S
C504 C502 1.391 . S
C504 C505 1.400 . S
C505 C499 1.491 . S
C505 C504 1.400 . S
C505 C506 1.398 . S
C506 H494 0.950 . S
C506 C505 1.398 . S
C506 C507 1.391 . S
C507 H495 0.950 . S
C507 C503 1.393 . S
C507 C506 1.391 . S
H508 C516 0.950 . S
H509 C521 0.950 . S
H510 C518 0.950 . S
H511 C520 0.950 . S
H512 C522 0.950 . S
H513 C524 0.950 . S
H514 C526 0.950 . S
H515 C527 0.950 . S
C516 H508 0.950 . S
C516 C517 1.386 . S
C516 C518 1.391 . S
C517 C516 1.386 . S
C517 C521 1.393 . S
C518 H510 0.950 . S
C518 C516 1.391 . S
C518 C519 1.400 . S
C519 C518 1.400 . S
C519 C520 1.398 . S
C519 C525 1.491 . S
C520 H511 0.950 . S
C520 C519 1.398 . S
C520 C521 1.391 . S
C521 H509 0.950 . S
C521 C517 1.393 . S
C521 C520 1.391 . S
C522 H512 0.950 . S
C522 C523 1.386 . S
C522 C524 1.391 . S
C523 C522 1.386 . S
C523 C527 1.393 . S
C524 H513 0.950 . S
C524 C522 1.391 . S
C524 C525 1.400 . S
C525 C519 1.491 . S
C525 C524 1.400 . S
C525 C526 1.398 . S
C526 H514 0.950 . S
C526 C525 1.398 . S
C526 C527 1.391 . S
C527 H515 0.950 . S
C527 C523 1.393 . S
C527 C526 1.391 . S
H528 C536 0.950 . S
H529 C541 0.950 . S
H530 C538 0.950 . S
H531 C540 0.950 . S
H532 C542 0.950 . S
H533 C544 0.950 . S
H534 C546 0.950 . S
H535 C547 0.950 . S
C536 H528 0.950 . S
C536 C537 1.386 . S
C536 C538 1.391 . S
C537 C536 1.386 . S
C537 C541 1.393 . S
C538 H530 0.950 . S
C538 C536 1.391 . S
C538 C539 1.400 . S
C539 C538 1.400 . S
C539 C540 1.398 . S
C539 C545 1.491 . S
C540 H531 0.950 . S
C540 C539 1.398 . S
C540 C541 1.391 . S
C541 H529 0.950 . S
C541 C537 1.393 . S
C541 C540 1.391 . S
C542 H532 0.950 . S
C542 C543 1.386 . S
C542 C544 1.391 . S
C543 C542 1.386 . S
C543 C547 1.393 . S
C544 H533 0.950 . S
C544 C542 1.391 . S
C544 C545 1.400 . S
C545 C539 1.491 . S
C545 C544 1.400 . S
C545 C546 1.398 . S
C546 H534 0.950 . S
C546 C545 1.398 . S
C546 C547 1.391 . S
C547 H535 0.950 . S
C547 C543 1.393 . S
C547 C546 1.391 . S
H548 C556 0.950 . S
H549 C561 0.950 . S
H550 C558 0.950 . S
H551 C560 0.950 . S
H552 C562 0.950 1_556 S
H553 C564 0.950 . S
H554 C566 0.950 . S
H555 C567 0.950 . S
C556 H548 0.950 . S
C556 C557 1.386 . S
C556 C558 1.391 . S
C557 C556 1.386 . S
C557 C561 1.393 . S
C558 H550 0.950 . S
C558 C556 1.391 . S
C558 C559 1.400 . S
C559 C558 1.400 . S
C559 C560 1.398 . S
C559 C565 1.491 . S
C560 H551 0.950 . S
C560 C559 1.398 . S
C560 C561 1.391 . S
C561 H549 0.950 . S
C561 C557 1.393 . S
C561 C560 1.391 . S
C562 H552 0.950 1_554 S
C562 C563 1.386 . S
C562 C564 1.391 . S
C563 C562 1.386 . S
C563 C567 1.393 . S
C564 H553 0.950 . S
C564 C562 1.391 . S
C564 C565 1.400 . S
C565 C559 1.491 . S
C565 C564 1.400 . S
C565 C566 1.398 . S
C566 H554 0.950 . S
C566 C565 1.398 . S
C566 C567 1.391 . S
C567 H555 0.950 . S
C567 C563 1.393 . S
C567 C566 1.391 . S
H568 C576 0.950 . S
H569 C581 0.950 . S
H570 C578 0.950 . S
H571 C580 0.950 . S
H572 C582 0.950 . S
H573 C584 0.950 . S
H574 C586 0.950 . S
H575 C587 0.950 . S
C576 H568 0.950 . S
C576 C577 1.386 . S
C576 C578 1.391 . S
C577 C576 1.386 . S
C577 C581 1.393 . S
C578 H570 0.950 . S
C578 C576 1.391 . S
C578 C579 1.400 . S
C579 C578 1.400 . S
C579 C580 1.398 . S
C579 C585 1.491 . S
C580 H571 0.950 . S
C580 C579 1.398 . S
C580 C581 1.391 . S
C581 H569 0.950 . S
C581 C577 1.393 . S
C581 C580 1.391 . S
C582 H572 0.950 . S
C582 C583 1.386 . S
C582 C584 1.391 . S
C583 C582 1.386 . S
C583 C587 1.393 . S
C584 H573 0.950 . S
C584 C582 1.391 . S
C584 C585 1.400 . S
C585 C579 1.491 . S
C585 C584 1.400 . S
C585 C586 1.398 . S
C586 H574 0.950 . S
C586 C585 1.398 . S
C586 C587 1.391 . S
C587 H575 0.950 . S
C587 C583 1.393 . S
C587 C586 1.391 . S
H588 C596 0.950 . S
H589 C601 0.950 . S
H590 C598 0.950 . S
H591 C600 0.950 . S
H592 C602 0.950 . S
H593 C604 0.950 . S
H594 C606 0.950 . S
H595 C607 0.950 . S
C596 H588 0.950 . S
C596 C597 1.386 . S
C596 C598 1.391 . S
C597 C596 1.386 . S
C597 C601 1.393 . S
C598 H590 0.950 . S
C598 C596 1.391 . S
C598 C599 1.400 . S
C599 C598 1.400 . S
C599 C600 1.398 . S
C599 C605 1.491 . S
C600 H591 0.950 . S
C600 C599 1.398 . S
C600 C601 1.391 . S
C601 H589 0.950 . S
C601 C597 1.393 . S
C601 C600 1.391 . S
C602 H592 0.950 . S
C602 C603 1.386 . S
C602 C604 1.391 . S
C603 C602 1.386 . S
C603 C607 1.393 . S
C604 H593 0.950 . S
C604 C602 1.391 . S
C604 C605 1.400 . S
C605 C599 1.491 . S
C605 C604 1.400 . S
C605 C606 1.398 . S
C606 H594 0.950 . S
C606 C605 1.398 . S
C606 C607 1.391 . S
C607 H595 0.950 . S
C607 C603 1.393 . S
C607 C606 1.391 . S
H608 C616 0.950 . S
H609 C621 0.950 . S
H610 C618 0.950 . S
H611 C620 0.950 . S
H612 C622 0.950 . S
H613 C624 0.950 . S
H614 C626 0.950 . S
H615 C627 0.950 . S
C616 H608 0.950 . S
C616 C617 1.386 . S
C616 C618 1.391 . S
C617 C616 1.386 . S
C617 C621 1.393 . S
C618 H610 0.950 . S
C618 C616 1.391 . S
C618 C619 1.400 . S
C619 C618 1.400 . S
C619 C620 1.398 . S
C619 C625 1.491 . S
C620 H611 0.950 . S
C620 C619 1.398 . S
C620 C621 1.391 . S
C621 H609 0.950 . S
C621 C617 1.393 . S
C621 C620 1.391 . S
C622 H612 0.950 . S
C622 C623 1.386 . S
C622 C624 1.391 . S
C623 C622 1.386 . S
C623 C627 1.393 . S
C624 H613 0.950 . S
C624 C622 1.391 . S
C624 C625 1.400 . S
C625 C619 1.491 . S
C625 C624 1.400 . S
C625 C626 1.398 . S
C626 H614 0.950 . S
C626 C625 1.398 . S
C626 C627 1.391 . S
C627 H615 0.950 . S
C627 C623 1.393 . S
C627 C626 1.391 . S
H628 C636 0.950 . S
H629 C641 0.950 . S
H630 C638 0.950 . S
H631 C640 0.950 . S
H632 C642 0.950 . S
H633 C644 0.950 . S
H634 C646 0.950 . S
H635 C647 0.950 . S
C636 H628 0.950 . S
C636 C637 1.386 . S
C636 C638 1.391 . S
C637 C636 1.386 . S
C637 C641 1.393 . S
C638 H630 0.950 . S
C638 C636 1.391 . S
C638 C639 1.400 . S
C639 C638 1.400 . S
C639 C640 1.398 . S
C639 C645 1.491 . S
C640 H631 0.950 . S
C640 C639 1.398 . S
C640 C641 1.391 . S
C641 H629 0.950 . S
C641 C637 1.393 . S
C641 C640 1.391 . S
C642 H632 0.950 . S
C642 C643 1.386 . S
C642 C644 1.391 . S
C643 C642 1.386 . S
C643 C647 1.393 . S
C644 H633 0.950 . S
C644 C642 1.391 . S
C644 C645 1.400 . S
C645 C639 1.491 . S
C645 C644 1.400 . S
C645 C646 1.398 . S
C646 H634 0.950 . S
C646 C645 1.398 . S
C646 C647 1.391 . S
C647 H635 0.950 . S
C647 C643 1.393 . S
C647 C646 1.391 . S
H648 C656 0.950 . S
H649 C661 0.950 . S
H650 C658 0.950 . S
H651 C660 0.950 . S
H652 C662 0.950 . S
H653 C664 0.950 . S
H654 C666 0.950 . S
H655 C667 0.950 . S
C656 H648 0.950 . S
C656 C657 1.386 . S
C656 C658 1.391 . S
C657 C656 1.386 . S
C657 C661 1.393 . S
C658 H650 0.950 . S
C658 C656 1.391 . S
C658 C659 1.400 . S
C659 C658 1.400 . S
C659 C660 1.398 . S
C659 C665 1.491 . S
C660 H651 0.950 . S
C660 C659 1.398 . S
C660 C661 1.391 . S
C661 H649 0.950 . S
C661 C657 1.393 . S
C661 C660 1.391 . S
C662 H652 0.950 . S
C662 C663 1.386 . S
C662 C664 1.391 . S
C663 C662 1.386 . S
C663 C667 1.393 . S
C664 H653 0.950 . S
C664 C662 1.391 . S
C664 C665 1.400 . S
C665 C659 1.491 . S
C665 C664 1.400 . S
C665 C666 1.398 . S
C666 H654 0.950 . S
C666 C665 1.398 . S
C666 C667 1.391 . S
C667 H655 0.950 . S
C667 C663 1.393 . S
C667 C666 1.391 . S
H668 C676 0.950 . S
H669 C681 0.950 . S
H670 C678 0.950 . S
H671 C680 0.950 . S
H672 C682 0.950 . S
H673 C684 0.950 . S
H674 C686 0.950 . S
H675 C687 0.950 . S
C676 H668 0.950 . S
C676 C677 1.386 . S
C676 C678 1.391 . S
C677 C676 1.386 . S
C677 C681 1.393 . S
C678 H670 0.950 . S
C678 C676 1.391 . S
C678 C679 1.400 . S
C679 C678 1.400 . S
C679 C680 1.398 . S
C679 C685 1.491 . S
C680 H671 0.950 . S
C680 C679 1.398 . S
C680 C681 1.391 . S
C681 H669 0.950 . S
C681 C677 1.393 . S
C681 C680 1.391 . S
C682 H672 0.950 . S
C682 C683 1.386 . S
C682 C684 1.391 . S
C683 C682 1.386 . S
C683 C687 1.393 . S
C684 H673 0.950 . S
C684 C682 1.391 . S
C684 C685 1.400 . S
C685 C679 1.491 . S
C685 C684 1.400 . S
C685 C686 1.398 . S
C686 H674 0.950 . S
C686 C685 1.398 . S
C686 C687 1.391 . S
C687 H675 0.950 . S
C687 C683 1.393 . S
C687 C686 1.391 . S
H688 C696 0.950 . S
H689 C701 0.950 . S
H690 C698 0.950 . S
H691 C700 0.950 . S
H692 C702 0.950 . S
H693 C704 0.950 . S
H694 C706 0.950 . S
H695 C707 0.950 . S
C696 H688 0.950 . S
C696 C697 1.386 . S
C696 C698 1.391 . S
C697 C696 1.386 . S
C697 C701 1.393 . S
C698 H690 0.950 . S
C698 C696 1.391 . S
C698 C699 1.400 . S
C699 C698 1.400 . S
C699 C700 1.398 . S
C699 C705 1.491 . S
C700 H691 0.950 . S
C700 C699 1.398 . S
C700 C701 1.391 . S
C701 H689 0.950 . S
C701 C697 1.393 . S
C701 C700 1.391 . S
C702 H692 0.950 . S
C702 C703 1.386 . S
C702 C704 1.391 . S
C703 C702 1.386 . S
C703 C707 1.393 . S
C704 H693 0.950 . S
C704 C702 1.391 . S
C704 C705 1.400 . S
C705 C699 1.491 . S
C705 C704 1.400 . S
C705 C706 1.398 . S
C706 H694 0.950 . S
C706 C705 1.398 . S
C706 C707 1.391 . S
C707 H695 0.950 . S
C707 C703 1.393 . S
C707 C706 1.391 . S
H708 C716 0.950 . S
H709 C721 0.950 . S
H710 C718 0.950 . S
H711 C720 0.950 . S
H712 C722 0.950 . S
H713 C724 0.950 . S
H714 C726 0.950 . S
H715 C727 0.950 . S
C716 H708 0.950 . S
C716 C717 1.386 . S
C716 C718 1.391 . S
C717 C716 1.386 . S
C717 C721 1.393 . S
C718 H710 0.950 . S
C718 C716 1.391 . S
C718 C719 1.400 . S
C719 C718 1.400 . S
C719 C720 1.398 . S
C719 C725 1.491 . S
C720 H711 0.950 . S
C720 C719 1.398 . S
C720 C721 1.391 . S
C721 H709 0.950 . S
C721 C717 1.393 . S
C721 C720 1.391 . S
C722 H712 0.950 . S
C722 C723 1.386 . S
C722 C724 1.391 . S
C723 C722 1.386 . S
C723 C727 1.393 . S
C724 H713 0.950 . S
C724 C722 1.391 . S
C724 C725 1.400 . S
C725 C719 1.491 . S
C725 C724 1.400 . S
C725 C726 1.398 . S
C726 H714 0.950 . S
C726 C725 1.398 . S
C726 C727 1.391 . S
C727 H715 0.950 . S
C727 C723 1.393 . S
C727 C726 1.391 . S
H728 C736 0.950 . S
H729 C741 0.950 . S
H730 C738 0.950 . S
H731 C740 0.950 . S
H732 C742 0.950 . S
H733 C744 0.950 . S
H734 C746 0.950 . S
H735 C747 0.950 . S
C736 H728 0.950 . S
C736 C737 1.386 . S
C736 C738 1.391 . S
C737 C736 1.386 . S
C737 C741 1.393 . S
C738 H730 0.950 . S
C738 C736 1.391 . S
C738 C739 1.400 . S
C739 C738 1.400 . S
C739 C740 1.398 . S
C739 C745 1.491 . S
C740 H731 0.950 . S
C740 C739 1.398 . S
C740 C741 1.391 . S
C741 H729 0.950 . S
C741 C737 1.393 . S
C741 C740 1.391 . S
C742 H732 0.950 . S
C742 C743 1.386 . S
C742 C744 1.391 . S
C743 C742 1.386 . S
C743 C747 1.393 . S
C744 H733 0.950 . S
C744 C742 1.391 . S
C744 C745 1.400 . S
C745 C739 1.491 . S
C745 C744 1.400 . S
C745 C746 1.398 . S
C746 H734 0.950 . S
C746 C745 1.398 . S
C746 C747 1.391 . S
C747 H735 0.950 . S
C747 C743 1.393 . S
C747 C746 1.391 . S
H748 C756 0.950 . S
H749 C761 0.950 . S
H750 C758 0.950 . S
H751 C760 0.950 . S
H752 C762 0.950 . S
H753 C764 0.950 . S
H754 C766 0.950 . S
H755 C767 0.950 . S
C756 H748 0.950 . S
C756 C757 1.386 . S
C756 C758 1.391 . S
C757 C756 1.386 . S
C757 C761 1.393 . S
C758 H750 0.950 . S
C758 C756 1.391 . S
C758 C759 1.400 . S
C759 C758 1.400 . S
C759 C760 1.398 . S
C759 C765 1.491 . S
C760 H751 0.950 . S
C760 C759 1.398 . S
C760 C761 1.391 . S
C761 H749 0.950 . S
C761 C757 1.393 . S
C761 C760 1.391 . S
C762 H752 0.950 . S
C762 C763 1.386 . S
C762 C764 1.391 . S
C763 C762 1.386 . S
C763 C767 1.393 . S
C764 H753 0.950 . S
C764 C762 1.391 . S
C764 C765 1.400 . S
C765 C759 1.491 . S
C765 C764 1.400 . S
C765 C766 1.398 . S
C766 H754 0.950 . S
C766 C765 1.398 . S
C766 C767 1.391 . S
C767 H755 0.950 . S
C767 C763 1.393 . S
C767 C766 1.391 . S
H768 C776 0.950 . S
H769 C781 0.950 . S
H770 C778 0.950 . S
H771 C780 0.950 . S
H772 C782 0.950 . S
H773 C784 0.950 . S
H774 C786 0.950 . S
H775 C787 0.950 1_554 S
C776 H768 0.950 . S
C776 C777 1.386 . S
C776 C778 1.391 . S
C777 C776 1.386 . S
C777 C781 1.393 . S
C778 H770 0.950 . S
C778 C776 1.391 . S
C778 C779 1.400 . S
C779 C778 1.400 . S
C779 C780 1.398 . S
C779 C785 1.491 . S
C780 H771 0.950 . S
C780 C779 1.398 . S
C780 C781 1.391 . S
C781 H769 0.950 . S
C781 C777 1.393 . S
C781 C780 1.391 . S
C782 H772 0.950 . S
C782 C783 1.386 . S
C782 C784 1.391 . S
C783 C782 1.386 . S
C783 C787 1.393 . S
C784 H773 0.950 . S
C784 C782 1.391 . S
C784 C785 1.400 . S
C785 C779 1.491 . S
C785 C784 1.400 . S
C785 C786 1.398 . S
C786 H774 0.950 . S
C786 C785 1.398 . S
C786 C787 1.391 . S
C787 H775 0.950 1_556 S
C787 C783 1.393 . S
C787 C786 1.391 . S
H788 C796 0.950 . S
H789 C801 0.950 . S
H790 C798 0.950 . S
H791 C800 0.950 . S
H792 C802 0.950 . S
H793 C804 0.950 . S
H794 C806 0.950 . S
H795 C807 0.950 . S
C796 H788 0.950 . S
C796 C797 1.386 . S
C796 C798 1.391 . S
C797 C796 1.386 . S
C797 C801 1.393 . S
C798 H790 0.950 . S
C798 C796 1.391 . S
C798 C799 1.400 . S
C799 C798 1.400 . S
C799 C800 1.398 . S
C799 C805 1.491 . S
C800 H791 0.950 . S
C800 C799 1.398 . S
C800 C801 1.391 . S
C801 H789 0.950 . S
C801 C797 1.393 . S
C801 C800 1.391 . S
C802 H792 0.950 . S
C802 C803 1.386 . S
C802 C804 1.391 . S
C803 C802 1.386 . S
C803 C807 1.393 . S
C804 H793 0.950 . S
C804 C802 1.391 . S
C804 C805 1.400 . S
C805 C799 1.491 . S
C805 C804 1.400 . S
C805 C806 1.398 . S
C806 H794 0.950 . S
C806 C805 1.398 . S
C806 C807 1.391 . S
C807 H795 0.950 . S
C807 C803 1.393 . S
C807 C806 1.391 . S
H808 C816 0.950 . S
H809 C821 0.950 . S
H810 C818 0.950 . S
H811 C820 0.950 . S
H812 C822 0.950 . S
H813 C824 0.950 . S
H814 C826 0.950 . S
H815 C827 0.950 . S
C816 H808 0.950 . S
C816 C817 1.386 . S
C816 C818 1.391 . S
C817 C816 1.386 . S
C817 C821 1.393 . S
C818 H810 0.950 . S
C818 C816 1.391 . S
C818 C819 1.400 . S
C819 C818 1.400 . S
C819 C820 1.398 . S
C819 C825 1.491 . S
C820 H811 0.950 . S
C820 C819 1.398 . S
C820 C821 1.391 . S
C821 H809 0.950 . S
C821 C817 1.393 . S
C821 C820 1.391 . S
C822 H812 0.950 . S
C822 C823 1.386 . S
C822 C824 1.391 . S
C823 C822 1.386 . S
C823 C827 1.393 . S
C824 H813 0.950 . S
C824 C822 1.391 . S
C824 C825 1.400 . S
C825 C819 1.491 . S
C825 C824 1.400 . S
C825 C826 1.398 . S
C826 H814 0.950 . S
C826 C825 1.398 . S
C826 C827 1.391 . S
C827 H815 0.950 . S
C827 C823 1.393 . S
C827 C826 1.391 . S
H828 C836 0.950 . S
H829 C841 0.950 . S
H830 C838 0.950 . S
H831 C840 0.950 . S
H832 C842 0.950 . S
H833 C844 0.950 . S
H834 C846 0.950 . S
H835 C847 0.950 . S
C836 H828 0.950 . S
C836 C837 1.386 . S
C836 C838 1.391 . S
C837 C836 1.386 . S
C837 C841 1.393 . S
C838 H830 0.950 . S
C838 C836 1.391 . S
C838 C839 1.400 . S
C839 C838 1.400 . S
C839 C840 1.398 . S
C839 C845 1.491 . S
C840 H831 0.950 . S
C840 C839 1.398 . S
C840 C841 1.391 . S
C841 H829 0.950 . S
C841 C837 1.393 . S
C841 C840 1.391 . S
C842 H832 0.950 . S
C842 C843 1.386 . S
C842 C844 1.391 . S
C843 C842 1.386 . S
C843 C847 1.393 . S
C844 H833 0.950 . S
C844 C842 1.391 . S
C844 C845 1.400 . S
C845 C839 1.491 . S
C845 C844 1.400 . S
C845 C846 1.398 . S
C846 H834 0.950 . S
C846 C845 1.398 . S
C846 C847 1.391 . S
C847 H835 0.950 . S
C847 C843 1.393 . S
C847 C846 1.391 . S
H848 C856 0.950 . S
H849 C861 0.950 . S
H850 C858 0.950 . S
H851 C860 0.950 . S
H852 C862 0.950 . S
H853 C864 0.950 . S
H854 C866 0.950 . S
H855 C867 0.950 . S
C856 H848 0.950 . S
C856 C857 1.386 . S
C856 C858 1.391 . S
C857 C856 1.386 . S
C857 C861 1.393 . S
C858 H850 0.950 . S
C858 C856 1.391 . S
C858 C859 1.400 . S
C859 C858 1.400 . S
C859 C860 1.398 . S
C859 C865 1.491 . S
C860 H851 0.950 . S
C860 C859 1.398 . S
C860 C861 1.391 . S
C861 H849 0.950 . S
C861 C857 1.393 . S
C861 C860 1.391 . S
C862 H852 0.950 . S
C862 C863 1.386 . S
C862 C864 1.391 . S
C863 C862 1.386 . S
C863 C867 1.393 . S
C864 H853 0.950 . S
C864 C862 1.391 . S
C864 C865 1.400 . S
C865 C859 1.491 . S
C865 C864 1.400 . S
C865 C866 1.398 . S
C866 H854 0.950 . S
C866 C865 1.398 . S
C866 C867 1.391 . S
C867 H855 0.950 . S
C867 C863 1.393 . S
C867 C866 1.391 . S
H868 C876 0.950 . S
H869 C881 0.950 . S
H870 C878 0.950 . S
H871 C880 0.950 . S
H872 C882 0.950 . S
H873 C884 0.950 . S
H874 C886 0.950 . S
H875 C887 0.950 . S
C876 H868 0.950 . S
C876 C877 1.386 . S
C876 C878 1.391 . S
C877 C876 1.386 . S
C877 C881 1.393 . S
C878 H870 0.950 . S
C878 C876 1.391 . S
C878 C879 1.400 . S
C879 C878 1.400 . S
C879 C880 1.398 . S
C879 C885 1.491 . S
C880 H871 0.950 . S
C880 C879 1.398 . S
C880 C881 1.391 . S
C881 H869 0.950 . S
C881 C877 1.393 . S
C881 C880 1.391 . S
C882 H872 0.950 . S
C882 C883 1.386 . S
C882 C884 1.391 . S
C883 C882 1.386 . S
C883 C887 1.393 . S
C884 H873 0.950 . S
C884 C882 1.391 . S
C884 C885 1.400 . S
C885 C879 1.491 . S
C885 C884 1.400 . S
C885 C886 1.398 . S
C886 H874 0.950 . S
C886 C885 1.398 . S
C886 C887 1.391 . S
C887 H875 0.950 . S
C887 C883 1.393 . S
C887 C886 1.391 . S
H888 C896 0.950 . S
H889 C901 0.950 . S
H890 C898 0.950 . S
H891 C900 0.950 . S
H892 C902 0.950 . S
H893 C904 0.950 . S
H894 C906 0.950 . S
H895 C907 0.950 . S
C896 H888 0.950 . S
C896 C897 1.386 . S
C896 C898 1.391 . S
C897 C896 1.386 . S
C897 C901 1.393 . S
C898 H890 0.950 . S
C898 C896 1.391 . S
C898 C899 1.400 . S
C899 C898 1.400 . S
C899 C900 1.398 . S
C899 C905 1.491 . S
C900 H891 0.950 . S
C900 C899 1.398 . S
C900 C901 1.391 . S
C901 H889 0.950 . S
C901 C897 1.393 . S
C901 C900 1.391 . S
C902 H892 0.950 . S
C902 C903 1.386 . S
C902 C904 1.391 . S
C903 C902 1.386 . S
C903 C907 1.393 . S
C904 H893 0.950 . S
C904 C902 1.391 . S
C904 C905 1.400 . S
C905 C899 1.491 . S
C905 C904 1.400 . S
C905 C906 1.398 . S
C906 H894 0.950 . S
C906 C905 1.398 . S
C906 C907 1.391 . S
C907 H895 0.950 . S
C907 C903 1.393 . S
C907 C906 1.391 . S
H908 C916 0.950 . S
H909 C921 0.950 . S
H910 C918 0.950 . S
H911 C920 0.950 . S
H912 C922 0.950 . S
H913 C924 0.950 . S
H914 C926 0.950 . S
H915 C927 0.950 . S
C916 H908 0.950 . S
C916 C917 1.386 . S
C916 C918 1.391 . S
C917 C916 1.386 . S
C917 C921 1.393 . S
C918 H910 0.950 . S
C918 C916 1.391 . S
C918 C919 1.400 . S
C919 C918 1.400 . S
C919 C920 1.398 . S
C919 C925 1.491 . S
C920 H911 0.950 . S
C920 C919 1.398 . S
C920 C921 1.391 . S
C921 H909 0.950 . S
C921 C917 1.393 . S
C921 C920 1.391 . S
C922 H912 0.950 . S
C922 C923 1.386 . S
C922 C924 1.391 . S
C923 C922 1.386 . S
C923 C927 1.393 . S
C924 H913 0.950 . S
C924 C922 1.391 . S
C924 C925 1.400 . S
C925 C919 1.491 . S
C925 C924 1.400 . S
C925 C926 1.398 . S
C926 H914 0.950 . S
C926 C925 1.398 . S
C926 C927 1.391 . S
C927 H915 0.950 . S
C927 C923 1.393 . S
C927 C926 1.391 . S
H928 C936 0.950 . S
H929 C941 0.950 . S
H930 C938 0.950 . S
H931 C940 0.950 . S
H932 C942 0.950 . S
H933 C944 0.950 . S
H934 C946 0.950 . S
H935 C947 0.950 . S
C936 H928 0.950 . S
C936 C937 1.386 . S
C936 C938 1.391 . S
C937 C936 1.386 . S
C937 C941 1.393 . S
C938 H930 0.950 . S
C938 C936 1.391 . S
C938 C939 1.400 . S
C939 C938 1.400 . S
C939 C940 1.398 . S
C939 C945 1.491 . S
C940 H931 0.950 . S
C940 C939 1.398 . S
C940 C941 1.391 . S
C941 H929 0.950 . S
C941 C937 1.393 . S
C941 C940 1.391 . S
C942 H932 0.950 . S
C942 C943 1.386 . S
C942 C944 1.391 . S
C943 C942 1.386 . S
C943 C947 1.393 . S
C944 H933 0.950 . S
C944 C942 1.391 . S
C944 C945 1.400 . S
C945 C939 1.491 . S
C945 C944 1.400 . S
C945 C946 1.398 . S
C946 H934 0.950 . S
C946 C945 1.398 . S
C946 C947 1.391 . S
C947 H935 0.950 . S
C947 C943 1.393 . S
C947 C946 1.391 . S
H948 C956 0.950 . S
H949 C961 0.950 . S
H950 C958 0.950 . S
H951 C960 0.950 . S
H952 C962 0.950 . S
H953 C964 0.950 . S
H954 C966 0.950 . S
H955 C967 0.950 . S
C956 H948 0.950 . S
C956 C957 1.386 . S
C956 C958 1.391 . S
C957 C956 1.386 . S
C957 C961 1.393 . S
C958 H950 0.950 . S
C958 C956 1.391 . S
C958 C959 1.400 . S
C959 C958 1.400 . S
C959 C960 1.398 . S
C959 C965 1.491 . S
C960 H951 0.950 . S
C960 C959 1.398 . S
C960 C961 1.391 . S
C961 H949 0.950 . S
C961 C957 1.393 . S
C961 C960 1.391 . S
C962 H952 0.950 . S
C962 C963 1.386 . S
C962 C964 1.391 . S
C963 C962 1.386 . S
C963 C967 1.393 . S
C964 H953 0.950 . S
C964 C962 1.391 . S
C964 C965 1.400 . S
C965 C959 1.491 . S
C965 C964 1.400 . S
C965 C966 1.398 . S
C966 H954 0.950 . S
C966 C965 1.398 . S
C966 C967 1.391 . S
C967 H955 0.950 . S
C967 C963 1.393 . S
C967 C966 1.391 . S
H968 C976 0.950 . S
H969 C981 0.950 . S
H970 C978 0.950 . S
H971 C980 0.950 . S
H972 C982 0.950 . S
H973 C984 0.950 . S
H974 C986 0.950 . S
H975 C987 0.950 . S
C976 H968 0.950 . S
C976 C977 1.386 . S
C976 C978 1.391 . S
C977 C976 1.386 . S
C977 C981 1.393 . S
C978 H970 0.950 . S
C978 C976 1.391 . S
C978 C979 1.400 . S
C979 C978 1.400 . S
C979 C980 1.398 . S
C979 C985 1.491 . S
C980 H971 0.950 . S
C980 C979 1.398 . S
C980 C981 1.391 . S
C981 H969 0.950 . S
C981 C977 1.393 . S
C981 C980 1.391 . S
C982 H972 0.950 . S
C982 C983 1.386 . S
C982 C984 1.391 . S
C983 C982 1.386 . S
C983 C987 1.393 . S
C984 H973 0.950 . S
C984 C982 1.391 . S
C984 C985 1.400 . S
C985 C979 1.491 . S
C985 C984 1.400 . S
C985 C986 1.398 . S
C986 H974 0.950 . S
C986 C985 1.398 . S
C986 C987 1.391 . S
C987 H975 0.950 . S
C987 C983 1.393 . S
C987 C986 1.391 . S
H988 C996 0.950 . S
H989 C1001 0.950 . S
H990 C998 0.950 . S
H991 C1000 0.950 . S
H992 C1002 0.950 . S
H993 C1004 0.950 . S
H994 C1006 0.950 . S
H995 C1007 0.950 . S
C996 H988 0.950 . S
C996 C997 1.386 . S
C996 C998 1.391 . S
C997 C996 1.386 . S
C997 C1001 1.393 . S
C998 H990 0.950 . S
C998 C996 1.391 . S
C998 C999 1.400 . S
C999 C998 1.400 . S
C999 C1000 1.398 . S
C999 C1005 1.491 . S
C1000 H991 0.950 . S
C1000 C999 1.398 . S
C1000 C1001 1.391 . S
C1001 H989 0.950 . S
C1001 C997 1.393 . S
C1001 C1000 1.391 . S
C1002 H992 0.950 . S
C1002 C1003 1.386 . S
C1002 C1004 1.391 . S
C1003 C1002 1.386 . S
C1003 C1007 1.393 . S
C1004 H993 0.950 . S
C1004 C1002 1.391 . S
C1004 C1005 1.400 . S
C1005 C999 1.491 . S
C1005 C1004 1.400 . S
C1005 C1006 1.398 . S
C1006 H994 0.950 . S
C1006 C1005 1.398 . S
C1006 C1007 1.391 . S
C1007 H995 0.950 . S
C1007 C1003 1.393 . S
C1007 C1006 1.391 . S
H1008 C1016 0.950 . S
H1009 C1021 0.950 . S
H1010 C1018 0.950 . S
H1011 C1020 0.950 . S
H1012 C1022 0.950 . S
H1013 C1024 0.950 . S
H1014 C1026 0.950 . S
H1015 C1027 0.950 . S
C1016 H1008 0.950 . S
C1016 C1017 1.386 . S
C1016 C1018 1.391 . S
C1017 C1016 1.386 . S
C1017 C1021 1.393 . S
C1018 H1010 0.950 . S
C1018 C1016 1.391 . S
C1018 C1019 1.400 . S
C1019 C1018 1.400 . S
C1019 C1020 1.398 . S
C1019 C1025 1.491 . S
C1020 H1011 0.950 . S
C1020 C1019 1.398 . S
C1020 C1021 1.391 . S
C1021 H1009 0.950 . S
C1021 C1017 1.393 . S
C1021 C1020 1.391 . S
C1022 H1012 0.950 . S
C1022 C1023 1.386 . S
C1022 C1024 1.391 . S
C1023 C1022 1.386 . S
C1023 C1027 1.393 . S
C1024 H1013 0.950 . S
C1024 C1022 1.391 . S
C1024 C1025 1.400 . S
C1025 C1019 1.491 . S
C1025 C1024 1.400 . S
C1025 C1026 1.398 . S
C1026 H1014 0.950 . S
C1026 C1025 1.398 . S
C1026 C1027 1.391 . S
C1027 H1015 0.950 . S
C1027 C1023 1.393 . S
C1027 C1026 1.391 . S
H1028 C1036 0.950 . S
H1029 C1041 0.950 . S
H1030 C1038 0.950 . S
H1031 C1040 0.950 . S
H1032 C1042 0.950 . S
H1033 C1044 0.950 . S
H1034 C1046 0.950 . S
H1035 C1047 0.950 . S
C1036 H1028 0.950 . S
C1036 C1037 1.386 . S
C1036 C1038 1.391 . S
C1037 C1036 1.386 . S
C1037 C1041 1.393 . S
C1038 H1030 0.950 . S
C1038 C1036 1.391 . S
C1038 C1039 1.400 . S
C1039 C1038 1.400 . S
C1039 C1040 1.398 . S
C1039 C1045 1.491 . S
C1040 H1031 0.950 . S
C1040 C1039 1.398 . S
C1040 C1041 1.391 . S
C1041 H1029 0.950 . S
C1041 C1037 1.393 . S
C1041 C1040 1.391 . S
C1042 H1032 0.950 . S
C1042 C1043 1.386 . S
C1042 C1044 1.391 . S
C1043 C1042 1.386 . S
C1043 C1047 1.393 . S
C1044 H1033 0.950 . S
C1044 C1042 1.391 . S
C1044 C1045 1.400 . S
C1045 C1039 1.491 . S
C1045 C1044 1.400 . S
C1045 C1046 1.398 . S
C1046 H1034 0.950 . S
C1046 C1045 1.398 . S
C1046 C1047 1.391 . S
C1047 H1035 0.950 . S
C1047 C1043 1.393 . S
C1047 C1046 1.391 . S
H1048 C1056 0.950 . S
H1049 C1061 0.950 . S
H1050 C1058 0.950 . S
H1051 C1060 0.950 . S
H1052 C1062 0.950 . S
H1053 C1064 0.950 . S
H1054 C1066 0.950 . S
H1055 C1067 0.950 . S
C1056 H1048 0.950 . S
C1056 C1057 1.386 . S
C1056 C1058 1.391 . S
C1057 C1056 1.386 . S
C1057 C1061 1.393 . S
C1058 H1050 0.950 . S
C1058 C1056 1.391 . S
C1058 C1059 1.400 . S
C1059 C1058 1.400 . S
C1059 C1060 1.398 . S
C1059 C1065 1.491 . S
C1060 H1051 0.950 . S
C1060 C1059 1.398 . S
C1060 C1061 1.391 . S
C1061 H1049 0.950 . S
C1061 C1057 1.393 . S
C1061 C1060 1.391 . S
C1062 H1052 0.950 . S
C1062 C1063 1.386 . S
C1062 C1064 1.391 . S
C1063 C1062 1.386 . S
C1063 C1067 1.393 . S
C1064 H1053 0.950 . S
C1064 C1062 1.391 . S
C1064 C1065 1.400 . S
C1065 C1059 1.491 . S
C1065 C1064 1.400 . S
C1065 C1066 1.398 . S
C1066 H1054 0.950 . S
C1066 C1065 1.398 . S
C1066 C1067 1.391 . S
C1067 H1055 0.950 . S
C1067 C1063 1.393 . S
C1067 C1066 1.391 . S
H1068 C1076 0.950 . S
H1069 C1081 0.950 . S
H1070 C1078 0.950 . S
H1071 C1080 0.950 . S
H1072 C1082 0.950 . S
H1073 C1084 0.950 . S
H1074 C1086 0.950 . S
H1075 C1087 0.950 . S
C1076 H1068 0.950 . S
C1076 C1077 1.386 . S
C1076 C1078 1.391 . S
C1077 C1076 1.386 . S
C1077 C1081 1.393 . S
C1078 H1070 0.950 . S
C1078 C1076 1.391 . S
C1078 C1079 1.400 . S
C1079 C1078 1.400 . S
C1079 C1080 1.398 . S
C1079 C1085 1.491 . S
C1080 H1071 0.950 . S
C1080 C1079 1.398 . S
C1080 C1081 1.391 . S
C1081 H1069 0.950 . S
C1081 C1077 1.393 . S
C1081 C1080 1.391 . S
C1082 H1072 0.950 . S
C1082 C1083 1.386 . S
C1082 C1084 1.391 . S
C1083 C1082 1.386 . S
C1083 C1087 1.393 . S
C1084 H1073 0.950 . S
C1084 C1082 1.391 . S
C1084 C1085 1.400 . S
C1085 C1079 1.491 . S
C1085 C1084 1.400 . S
C1085 C1086 1.398 . S
C1086 H1074 0.950 . S
C1086 C1085 1.398 . S
C1086 C1087 1.391 . S
C1087 H1075 0.950 . S
C1087 C1083 1.393 . S
C1087 C1086 1.391 . S
H1088 C1096 0.950 . S
H1089 C1101 0.950 . S
H1090 C1098 0.950 . S
H1091 C1100 0.950 . S
H1092 C1102 0.950 . S
H1093 C1104 0.950 . S
H1094 C1106 0.950 . S
H1095 C1107 0.950 . S
C1096 H1088 0.950 . S
C1096 C1097 1.386 . S
C1096 C1098 1.391 . S
C1097 C1096 1.386 . S
C1097 C1101 1.393 . S
C1098 H1090 0.950 . S
C1098 C1096 1.391 . S
C1098 C1099 1.400 . S
C1099 C1098 1.400 . S
C1099 C1100 1.398 . S
C1099 C1105 1.491 . S
C1100 H1091 0.950 . S
C1100 C1099 1.398 . S
C1100 C1101 1.391 . S
C1101 H1089 0.950 . S
C1101 C1097 1.393 . S
C1101 C1100 1.391 . S
C1102 H1092 0.950 . S
C1102 C1103 1.386 . S
C1102 C1104 1.391 . S
C1103 C1102 1.386 . S
C1103 C1107 1.393 . S
C1104 H1093 0.950 . S
C1104 C1102 1.391 . S
C1104 C1105 1.400 . S
C1105 C1099 1.491 . S
C1105 C1104 1.400 . S
C1105 C1106 1.398 . S
C1106 H1094 0.950 . S
C1106 C1105 1.398 . S
C1106 C1107 1.391 . S
C1107 H1095 0.950 . S
C1107 C1103 1.393 . S
C1107 C1106 1.391 . S
H1108 C1116 0.950 . S
H1109 C1121 0.950 . S
H1110 C1118 0.950 . S
H1111 C1120 0.950 . S
H1112 C1122 0.950 . S
H1113 C1124 0.950 . S
H1114 C1126 0.950 . S
H1115 C1127 0.950 . S
C1116 H1108 0.950 . S
C1116 C1117 1.386 . S
C1116 C1118 1.391 . S
C1117 C1116 1.386 . S
C1117 C1121 1.393 . S
C1118 H1110 0.950 . S
C1118 C1116 1.391 . S
C1118 C1119 1.400 . S
C1119 C1118 1.400 . S
C1119 C1120 1.398 . S
C1119 C1125 1.491 . S
C1120 H1111 0.950 . S
C1120 C1119 1.398 . S
C1120 C1121 1.391 . S
C1121 H1109 0.950 . S
C1121 C1117 1.393 . S
C1121 C1120 1.391 . S
C1122 H1112 0.950 . S
C1122 C1123 1.386 . S
C1122 C1124 1.391 . S
C1123 C1122 1.386 . S
C1123 C1127 1.393 . S
C1124 H1113 0.950 . S
C1124 C1122 1.391 . S
C1124 C1125 1.400 . S
C1125 C1119 1.491 . S
C1125 C1124 1.400 . S
C1125 C1126 1.398 . S
C1126 H1114 0.950 . S
C1126 C1125 1.398 . S
C1126 C1127 1.391 . S
C1127 H1115 0.950 . S
C1127 C1123 1.393 . S
C1127 C1126 1.391 . S
C503 C400 1.346 . S
C497 C36 1.333 . S
C523 C414 1.344 . S
C517 C93 1.349 . S
C543 C427 1.345 . S
C537 C126 1.346 . S
C557 C165 1.335 . S
C563 C394 1.349 . S
C577 C222 1.340 . S
C583 C387 1.360 . S
C597 C261 1.347 . S
C603 C407 1.353 . S
C623 C415 1.356 . S
C617 C318 1.333 . S
C643 C428 1.355 . S
C637 C381 1.359 . S
C657 C132 1.339 . S
C663 C454 1.355 . S
C683 C472 1.343 . S
C677 C189 1.336 . S
C697 C30 1.345 . S
C703 C479 1.346 . S
C723 C446 1.357 . S
C717 C69 1.325 . S
C737 C324 1.352 . S
C743 C439 1.354 . S
C757 C357 1.330 . S
C763 C453 1.355 . S
C783 C465 1.355 . S
C777 C228 1.343 . S
C797 C285 1.346 . S
C803 C480 1.350 . S
C823 C413 1.799 . S
C817 C45 1.792 . S
C843 C426 1.790 . S
C837 C84 1.813 . S
C857 C117 1.789 . S
C863 C389 1.791 . S
C877 C174 1.766 . S
C883 C401 1.772 . S
C897 C213 1.780 . S
C903 C433 1.773 . S
C923 C388 1.776 . S
C917 C270 1.753 . S
C943 C402 1.792 . S
C937 C309 1.789 . S
C963 C420 1.772 . S
C957 C372 1.801 . S
C983 C467 1.788 . S
C977 C141 1.805 . S
C1003 C478 1.790 . S
C997 C180 1.809 . S
C1017 C21 1.790 . S
C1023 C441 1.787 . S
C1043 C459 1.771 . S
C1037 C78 1.763 . S
C1063 C485 1.773 . S
C1057 C333 1.789 . S
C1077 C366 1.759 . S
C1083 C440 1.768 . S
C1103 C452 1.783 . S
C1097 C237 1.801 . S
C1123 C466 1.784 . S
C1117 C276 1.795 . S
