# Generated by pormake.
# Topology tbo, (3,4)-cn, num edge types: 1
# Building blocks:
#     Node 0, Type 0, BuildingBlock: OLANEW_clean_sbu_2, # of connection points: 3
#     Node 1, Type 0, BuildingBlock: OLANEW_clean_sbu_2, # of connection points: 3
#     Node 2, Type 0, BuildingBlock: OLANEW_clean_sbu_2, # of connection points: 3
#     Node 3, Type 0, BuildingBlock: OLANEW_clean_sbu_2, # of connection points: 3
#     Node 4, Type 0, BuildingBlock: OLANEW_clean_sbu_2, # of connection points: 3
#     Node 5, Type 0, BuildingBlock: OLANEW_clean_sbu_2, # of connection points: 3
#     Node 6, Type 0, BuildingBlock: OLANEW_clean_sbu_2, # of connection points: 3
#     Node 7, Type 0, BuildingBlock: OLANEW_clean_sbu_2, # of connection points: 3
#     Node 8, Type 0, BuildingBlock: OLANEW_clean_sbu_2, # of connection points: 3
#     Node 9, Type 0, BuildingBlock: OLANEW_clean_sbu_2, # of connection points: 3
#     Node 10, Type 0, BuildingBlock: OLANEW_clean_sbu_2, # of connection points: 3
#     Node 11, Type 0, BuildingBlock: OLANEW_clean_sbu_2, # of connection points: 3
#     Node 12, Type 0, BuildingBlock: OLANEW_clean_sbu_2, # of connection points: 3
#     Node 13, Type 0, BuildingBlock: OLANEW_clean_sbu_2, # of connection points: 3
#     Node 14, Type 0, BuildingBlock: OLANEW_clean_sbu_2, # of connection points: 3
#     Node 15, Type 0, BuildingBlock: OLANEW_clean_sbu_2, # of connection points: 3
#     Node 16, Type 0, BuildingBlock: OLANEW_clean_sbu_2, # of connection points: 3
#     Node 17, Type 0, BuildingBlock: OLANEW_clean_sbu_2, # of connection points: 3
#     Node 18, Type 0, BuildingBlock: OLANEW_clean_sbu_2, # of connection points: 3
#     Node 19, Type 0, BuildingBlock: OLANEW_clean_sbu_2, # of connection points: 3
#     Node 20, Type 0, BuildingBlock: OLANEW_clean_sbu_2, # of connection points: 3
#     Node 21, Type 0, BuildingBlock: OLANEW_clean_sbu_2, # of connection points: 3
#     Node 22, Type 0, BuildingBlock: OLANEW_clean_sbu_2, # of connection points: 3
#     Node 23, Type 0, BuildingBlock: OLANEW_clean_sbu_2, # of connection points: 3
#     Node 24, Type 0, BuildingBlock: OLANEW_clean_sbu_2, # of connection points: 3
#     Node 25, Type 0, BuildingBlock: OLANEW_clean_sbu_2, # of connection points: 3
#     Node 26, Type 0, BuildingBlock: OLANEW_clean_sbu_2, # of connection points: 3
#     Node 27, Type 0, BuildingBlock: OLANEW_clean_sbu_2, # of connection points: 3
#     Node 28, Type 0, BuildingBlock: OLANEW_clean_sbu_2, # of connection points: 3
#     Node 29, Type 0, BuildingBlock: OLANEW_clean_sbu_2, # of connection points: 3
#     Node 30, Type 0, BuildingBlock: OLANEW_clean_sbu_2, # of connection points: 3
#     Node 31, Type 0, BuildingBlock: OLANEW_clean_sbu_2, # of connection points: 3
#     Node 32, Type 1, BuildingBlock: GIZVER_clean_linker_0, # of connection points: 4
#     Node 33, Type 1, BuildingBlock: GIZVER_clean_linker_0, # of connection points: 4
#     Node 34, Type 1, BuildingBlock: GIZVER_clean_linker_0, # of connection points: 4
#     Node 35, Type 1, BuildingBlock: GIZVER_clean_linker_0, # of connection points: 4
#     Node 36, Type 1, BuildingBlock: GIZVER_clean_linker_0, # of connection points: 4
#     Node 37, Type 1, BuildingBlock: GIZVER_clean_linker_0, # of connection points: 4
#     Node 38, Type 1, BuildingBlock: GIZVER_clean_linker_0, # of connection points: 4
#     Node 39, Type 1, BuildingBlock: GIZVER_clean_linker_0, # of connection points: 4
#     Node 40, Type 1, BuildingBlock: GIZVER_clean_linker_0, # of connection points: 4
#     Node 41, Type 1, BuildingBlock: GIZVER_clean_linker_0, # of connection points: 4
#     Node 42, Type 1, BuildingBlock: GIZVER_clean_linker_0, # of connection points: 4
#     Node 43, Type 1, BuildingBlock: GIZVER_clean_linker_0, # of connection points: 4
#     Node 44, Type 1, BuildingBlock: GIZVER_clean_linker_0, # of connection points: 4
#     Node 45, Type 1, BuildingBlock: GIZVER_clean_linker_0, # of connection points: 4
#     Node 46, Type 1, BuildingBlock: GIZVER_clean_linker_0, # of connection points: 4
#     Node 47, Type 1, BuildingBlock: GIZVER_clean_linker_0, # of connection points: 4
#     Node 48, Type 1, BuildingBlock: GIZVER_clean_linker_0, # of connection points: 4
#     Node 49, Type 1, BuildingBlock: GIZVER_clean_linker_0, # of connection points: 4
#     Node 50, Type 1, BuildingBlock: GIZVER_clean_linker_0, # of connection points: 4
#     Node 51, Type 1, BuildingBlock: GIZVER_clean_linker_0, # of connection points: 4
#     Node 52, Type 1, BuildingBlock: GIZVER_clean_linker_0, # of connection points: 4
#     Node 53, Type 1, BuildingBlock: GIZVER_clean_linker_0, # of connection points: 4
#     Node 54, Type 1, BuildingBlock: GIZVER_clean_linker_0, # of connection points: 4
#     Node 55, Type 1, BuildingBlock: GIZVER_clean_linker_0, # of connection points: 4
#     Edge 56, Type (0, 1), None
#     Edge 57, Type (0, 1), None
#     Edge 58, Type (0, 1), None
#     Edge 59, Type (0, 1), None
#     Edge 60, Type (0, 1), None
#     Edge 61, Type (0, 1), None
#     Edge 62, Type (0, 1), None
#     Edge 63, Type (0, 1), None
#     Edge 64, Type (0, 1), None
#     Edge 65, Type (0, 1), None
#     Edge 66, Type (0, 1), None
#     Edge 67, Type (0, 1), None
#     Edge 68, Type (0, 1), None
#     Edge 69, Type (0, 1), None
#     Edge 70, Type (0, 1), None
#     Edge 71, Type (0, 1), None
#     Edge 72, Type (0, 1), None
#     Edge 73, Type (0, 1), None
#     Edge 74, Type (0, 1), None
#     Edge 75, Type (0, 1), None
#     Edge 76, Type (0, 1), None
#     Edge 77, Type (0, 1), None
#     Edge 78, Type (0, 1), None
#     Edge 79, Type (0, 1), None
#     Edge 80, Type (0, 1), None
#     Edge 81, Type (0, 1), None
#     Edge 82, Type (0, 1), None
#     Edge 83, Type (0, 1), None
#     Edge 84, Type (0, 1), None
#     Edge 85, Type (0, 1), None
#     Edge 86, Type (0, 1), None
#     Edge 87, Type (0, 1), None
#     Edge 88, Type (0, 1), None
#     Edge 89, Type (0, 1), None
#     Edge 90, Type (0, 1), None
#     Edge 91, Type (0, 1), None
#     Edge 92, Type (0, 1), None
#     Edge 93, Type (0, 1), None
#     Edge 94, Type (0, 1), None
#     Edge 95, Type (0, 1), None
#     Edge 96, Type (0, 1), None
#     Edge 97, Type (0, 1), None
#     Edge 98, Type (0, 1), None
#     Edge 99, Type (0, 1), None
#     Edge 100, Type (0, 1), None
#     Edge 101, Type (0, 1), None
#     Edge 102, Type (0, 1), None
#     Edge 103, Type (0, 1), None
#     Edge 104, Type (0, 1), None
#     Edge 105, Type (0, 1), None
#     Edge 106, Type (0, 1), None
#     Edge 107, Type (0, 1), None
#     Edge 108, Type (0, 1), None
#     Edge 109, Type (0, 1), None
#     Edge 110, Type (0, 1), None
#     Edge 111, Type (0, 1), None
#     Edge 112, Type (0, 1), None
#     Edge 113, Type (0, 1), None
#     Edge 114, Type (0, 1), None
#     Edge 115, Type (0, 1), None
#     Edge 116, Type (0, 1), None
#     Edge 117, Type (0, 1), None
#     Edge 118, Type (0, 1), None
#     Edge 119, Type (0, 1), None
#     Edge 120, Type (0, 1), None
#     Edge 121, Type (0, 1), None
#     Edge 122, Type (0, 1), None
#     Edge 123, Type (0, 1), None
#     Edge 124, Type (0, 1), None
#     Edge 125, Type (0, 1), None
#     Edge 126, Type (0, 1), None
#     Edge 127, Type (0, 1), None
#     Edge 128, Type (0, 1), None
#     Edge 129, Type (0, 1), None
#     Edge 130, Type (0, 1), None
#     Edge 131, Type (0, 1), None
#     Edge 132, Type (0, 1), None
#     Edge 133, Type (0, 1), None
#     Edge 134, Type (0, 1), None
#     Edge 135, Type (0, 1), None
#     Edge 136, Type (0, 1), None
#     Edge 137, Type (0, 1), None
#     Edge 138, Type (0, 1), None
#     Edge 139, Type (0, 1), None
#     Edge 140, Type (0, 1), None
#     Edge 141, Type (0, 1), None
#     Edge 142, Type (0, 1), None
#     Edge 143, Type (0, 1), None
#     Edge 144, Type (0, 1), None
#     Edge 145, Type (0, 1), None
#     Edge 146, Type (0, 1), None
#     Edge 147, Type (0, 1), None
#     Edge 148, Type (0, 1), None
#     Edge 149, Type (0, 1), None
#     Edge 150, Type (0, 1), None
#     Edge 151, Type (0, 1), None
# Relax obj value: 0.024
# Max RMSD: 0.148
# Mean RMSD: 0.089
data_MOF--net-tbo--node1-OLANEW_clean_sbu_2--node2-GIZVER_clean_linker_0--edge1-none
_symmetry_space_group_name_H-M    P1
_symmetry_Int_Tables_number       1
_symmetry_cell_setting            triclinic
loop_
_symmetry_equiv_pos_as_xyz
'x, y, z'
_cell_length_a     36.350209
_cell_length_b     37.608222
_cell_length_c     35.822921
_cell_angle_alpha  99.745533
_cell_angle_beta   86.693344
_cell_angle_gamma 101.10573
loop_
_atom_site_label
_atom_site_type_symbol
_atom_site_fract_x
_atom_site_fract_y
_atom_site_fract_z
_atom_type_partial_charge
O0 O 0.27208 0.14722 0.11846 0.0
Cd1 Cd 0.23379 0.0876 0.12608 0.0
O2 O 0.22163 0.16551 0.14447 0.0
Cd3 Cd 0.18828 0.206 0.17133 0.0
O4 O 0.16473 0.24187 0.2172 0.0
C5 C 0.13195 0.23451 0.23184 0.0
O6 O 0.10912 0.20432 0.21768 0.0
C7 C 0.25468 0.17327 0.13061 0.0
C8 C 0.24345 0.07046 0.197 0.0
O9 O 0.25886 0.05472 0.1673 0.0
O10 O 0.22324 0.09394 0.19323 0.0
O11 O 0.90451 0.24268 0.2403 0.0
Cd12 Cd 0.86364 0.20155 0.19183 0.0
O13 O 0.94928 0.21004 0.22879 0.0
Cd14 Cd 0.91151 0.16562 0.19558 0.0
O15 O 0.86628 0.12865 0.21943 0.0
C16 C 0.87529 0.10152 0.23108 0.0
O17 O 0.90939 0.09495 0.22351 0.0
C18 C 0.93735 0.23806 0.24649 0.0
C19 C 0.82451 0.23576 0.14788 0.0
O20 O 0.80761 0.22011 0.17485 0.0
O21 O 0.8596 0.23561 0.14213 0.0
O22 O 0.9087 0.76381 0.11777 0.0
Cd23 Cd 0.97576 0.78416 0.13038 0.0
O24 O 0.90857 0.82249 0.13257 0.0
Cd25 Cd 0.88586 0.87268 0.15039 0.0
O26 O 0.86726 0.91179 0.1962 0.0
C27 C 0.84084 0.89685 0.21636 0.0
O28 O 0.82653 0.86193 0.20589 0.0
C29 C 0.89054 0.79001 0.12251 0.0
C30 C 0.00623 0.74789 0.17957 0.0
O31 O 0.01004 0.7393 0.14356 0.0
O32 O 0.98721 0.77292 0.19237 0.0
O33 O 0.34049 0.9497 0.13817 0.0
Cd34 Cd 0.34048 0.92009 0.07243 0.0
O35 O 0.29854 0.9015 0.14791 0.0
Cd36 Cd 0.26568 0.86407 0.18345 0.0
O37 O 0.23928 0.81767 0.21159 0.0
C38 C 0.21047 0.79529 0.19811 0.0
O39 O 0.19599 0.80071 0.16723 0.0
C40 C 0.31943 0.93175 0.16082 0.0
C41 C 0.31201 0.84643 0.07437 0.0
O42 O 0.29094 0.86761 0.0663 0.0
O43 O 0.34682 0.85973 0.07977 0.0
O44 O 0.21567 0.8934 0.87784 0.0
Cd45 Cd 0.16675 0.84883 0.90379 0.0
O46 O 0.1933 0.94444 0.89418 0.0
Cd47 Cd 0.14032 0.91114 0.90893 0.0
O48 O 0.09765 0.86695 0.88175 0.0
C49 C 0.10713 0.85342 0.84843 0.0
O50 O 0.13997 0.86712 0.83434 0.0
C51 C 0.21913 0.92792 0.87897 0.0
C52 C 0.19737 0.79741 0.93404 0.0
O53 O 0.19421 0.79487 0.89822 0.0
O54 O 0.18594 0.82409 0.95573 0.0
O55 O 0.21314 0.21737 0.92591 0.0
Cd56 Cd 0.17456 0.17666 0.87663 0.0
O57 O 0.16959 0.23591 0.96575 0.0
Cd58 Cd 0.12929 0.22656 0.92071 0.0
O59 O 0.11023 0.26206 0.88626 0.0
C60 C 0.08565 0.28105 0.89958 0.0
O61 O 0.06965 0.27662 0.93273 0.0
C62 C 0.20372 0.23378 0.95802 0.0
C63 C 0.22093 0.12949 0.83985 0.0
O64 O 0.21769 0.15856 0.82708 0.0
O65 O 0.20083 0.12174 0.869 0.0
O66 O 0.79912 0.23451 0.93617 0.0
Cd67 Cd 0.84898 0.21044 0.89816 0.0
O68 O 0.77556 0.17891 0.9464 0.0
Cd69 Cd 0.73109 0.13475 0.95917 0.0
O70 O 0.7096 0.09366 0.91119 0.0
C71 C 0.70937 0.10739 0.88114 0.0
O72 O 0.71922 0.14315 0.88307 0.0
C73 C 0.77354 0.21267 0.95073 0.0
C74 C 0.89399 0.26808 0.86883 0.0
O75 O 0.86573 0.24864 0.85061 0.0
O76 O 0.90129 0.25958 0.90043 0.0
O77 O 0.90376 0.8819 0.7817 0.0
Cd78 Cd 0.88531 0.94286 0.79727 0.0
O79 O 0.90578 0.87855 0.84196 0.0
Cd80 Cd 0.9021 0.8473 0.88857 0.0
O81 O 0.86018 0.8196 0.92532 0.0
C82 C 0.85449 0.83285 0.95976 0.0
O83 O 0.87675 0.8629 0.97523 0.0
C84 C 0.9099 0.86447 0.8075 0.0
C85 C 0.8139 0.94761 0.77438 0.0
O86 O 0.84191 0.94725 0.75098 0.0
O87 O 0.81915 0.94512 0.80885 0.0
O88 O 0.22222 0.69127 0.62362 0.0
Cd89 Cd 0.1681 0.65397 0.65055 0.0
O90 O 0.2175 0.74516 0.65743 0.0
Cd91 Cd 0.1631 0.73312 0.68777 0.0
O92 O 0.12769 0.75684 0.73389 0.0
C93 C 0.09253 0.74885 0.74076 0.0
O94 O 0.07186 0.72186 0.71863 0.0
C95 C 0.23519 0.72531 0.63318 0.0
C96 C 0.19685 0.6177 0.70086 0.0
O97 O 0.19436 0.60417 0.66559 0.0
O98 O 0.18447 0.64748 0.7124 0.0
O99 O 0.8588 0.74742 0.71441 0.0
Cd100 Cd 0.8212 0.71062 0.66253 0.0
O101 O 0.89141 0.70608 0.72342 0.0
Cd102 Cd 0.84968 0.65947 0.69861 0.0
O103 O 0.80825 0.62696 0.73217 0.0
C104 C 0.81722 0.60289 0.74918 0.0
O105 O 0.85047 0.59403 0.74219 0.0
C106 C 0.88576 0.73894 0.72994 0.0
C107 C 0.81895 0.75901 0.61197 0.0
O108 O 0.84495 0.73998 0.60936 0.0
O109 O 0.79305 0.75388 0.63738 0.0
O110 O 0.87026 0.31127 0.66151 0.0
Cd111 Cd 0.90111 0.36675 0.70236 0.0
O112 O 0.81555 0.32404 0.6831 0.0
Cd113 Cd 0.83515 0.37795 0.71691 0.0
O114 O 0.82503 0.422 0.76245 0.0
C115 C 0.80208 0.41005 0.78757 0.0
O116 O 0.78937 0.3745 0.78391 0.0
C117 C 0.83466 0.30258 0.66285 0.0
C118 C 0.92134 0.34969 0.77039 0.0
O119 O 0.94622 0.35681 0.74453 0.0
O120 O 0.88728 0.35096 0.76434 0.0
O121 O 0.22229 0.41921 0.65022 0.0
Cd122 Cd 0.28016 0.45392 0.6278 0.0
O123 O 0.19594 0.39298 0.69752 0.0
Cd124 Cd 0.18858 0.38239 0.75543 0.0
O125 O 0.15529 0.35956 0.80097 0.0
C126 C 0.12212 0.36593 0.80432 0.0
O127 O 0.11171 0.38602 0.78164 0.0
C128 C 0.22075 0.41724 0.68533 0.0
C129 C 0.32279 0.39994 0.60513 0.0
O130 O 0.30723 0.4129 0.58054 0.0
O131 O 0.31993 0.41386 0.64011 0.0
O132 O 0.28668 0.35228 0.33689 0.0
Cd133 Cd 0.24971 0.31266 0.37821 0.0
O134 O 0.27686 0.4057 0.36748 0.0
Cd135 Cd 0.22581 0.3777 0.39305 0.0
O136 O 0.17281 0.34218 0.37505 0.0
C137 C 0.17164 0.33435 0.33917 0.0
O138 O 0.20032 0.34861 0.31896 0.0
C139 C 0.29445 0.3872 0.34193 0.0
C140 C 0.30286 0.29068 0.4184 0.0
O141 O 0.2902 0.27102 0.38739 0.0
O142 O 0.28902 0.31942 0.43103 0.0
O143 O 0.27109 0.65336 0.43129 0.0
Cd144 Cd 0.23312 0.60993 0.38334 0.0
O145 O 0.28224 0.69697 0.39576 0.0
Cd146 Cd 0.24028 0.67497 0.35237 0.0
O147 O 0.20723 0.68401 0.3067 0.0
C148 C 0.21787 0.71401 0.29388 0.0
O149 O 0.24757 0.73685 0.3083 0.0
C150 C 0.28838 0.68475 0.42539 0.0
C151 C 0.28292 0.57623 0.33346 0.0
O152 O 0.27142 0.60464 0.32679 0.0
O153 O 0.2698 0.56283 0.36314 0.0
O154 O 0.95034 0.74949 0.41082 0.0
Cd155 Cd 0.98287 0.70114 0.37834 0.0
O156 O 0.90119 0.70867 0.3916 0.0
Cd157 Cd 0.84257 0.6831 0.38372 0.0
O158 O 0.83048 0.63762 0.33754 0.0
C159 C 0.81193 0.63937 0.30919 0.0
O160 O 0.79498 0.66739 0.31013 0.0
C161 C 0.91489 0.74037 0.40885 0.0
C162 C 0.01302 0.7112 0.30652 0.0
O163 O 0.97764 0.7013 0.31186 0.0
O164 O 0.03424 0.71702 0.33511 0.0
O165 O 0.9472 0.37302 0.32144 0.0
Cd166 Cd 0.91266 0.42174 0.34749 0.0
O167 O 0.95068 0.35946 0.37811 0.0
Cd168 Cd 0.95194 0.32117 0.41757 0.0
O169 O 0.91062 0.28094 0.44256 0.0
C170 C 0.90579 0.2739 0.47623 0.0
O171 O 0.92971 0.29107 0.5024 0.0
C172 C 0.95641 0.35234 0.34249 0.0
C173 C 0.8909 0.45317 0.28922 0.0
O174 O 0.91914 0.46922 0.30946 0.0
O175 O 0.87255 0.42245 0.29674 0.0
O176 O 0.71614 0.16358 0.65569 0.0
Cd177 Cd 0.66068 0.13125 0.68693 0.0
O178 O 0.70801 0.21902 0.68257 0.0
Cd179 Cd 0.65697 0.2086 0.71834 0.0
O180 O 0.62451 0.23623 0.76452 0.0
C181 C 0.58939 0.22929 0.77183 0.0
O182 O 0.56818 0.2017 0.75095 0.0
C183 C 0.72663 0.19832 0.66042 0.0
C184 C 0.67712 0.09642 0.74569 0.0
O185 O 0.67305 0.07871 0.71187 0.0
O186 O 0.67384 0.13027 0.75136 0.0
O187 O 0.37139 0.25174 0.72767 0.0
Cd188 Cd 0.33738 0.22351 0.67073 0.0
O189 O 0.4039 0.20917 0.73241 0.0
Cd190 Cd 0.3631 0.16784 0.69886 0.0
O191 O 0.31805 0.13598 0.72908 0.0
C192 C 0.32723 0.11355 0.74811 0.0
O193 O 0.36176 0.10744 0.7446 0.0
C194 C 0.39707 0.24126 0.74321 0.0
C195 C 0.34716 0.27866 0.62603 0.0
O196 O 0.36829 0.25454 0.62114 0.0
O197 O 0.32052 0.2758 0.651 0.0
O198 O 0.38426 0.83098 0.65096 0.0
Cd199 Cd 0.41572 0.8855 0.69276 0.0
O200 O 0.32965 0.84746 0.66578 0.0
Cd201 Cd 0.35018 0.89931 0.70255 0.0
O202 O 0.33803 0.93888 0.75152 0.0
C203 C 0.31531 0.92361 0.77488 0.0
O204 O 0.30434 0.88778 0.76778 0.0
C205 C 0.34878 0.82461 0.6481 0.0
C206 C 0.44338 0.86798 0.75722 0.0
O207 O 0.4655 0.87604 0.72948 0.0
O208 O 0.40843 0.86816 0.75452 0.0
O209 O 0.72223 0.94143 0.64609 0.0
Cd210 Cd 0.70975 0.90386 0.5845 0.0
O211 O 0.71347 0.88729 0.6638 0.0
Cd212 Cd 0.70692 0.85512 0.70977 0.0
O213 O 0.67515 0.83977 0.75994 0.0
C214 C 0.64683 0.85516 0.76764 0.0
O215 O 0.63999 0.87745 0.74541 0.0
C216 C 0.72194 0.92202 0.67185 0.0
C217 C 0.76395 0.85989 0.57446 0.0
O218 O 0.73207 0.84902 0.59004 0.0
O219 O 0.76929 0.89059 0.56212 0.0
O220 O 0.76573 0.85665 0.33076 0.0
Cd221 Cd 0.74027 0.81152 0.37121 0.0
O222 O 0.75801 0.90653 0.37025 0.0
Cd223 Cd 0.71291 0.873 0.3984 0.0
O224 O 0.66307 0.83748 0.3729 0.0
C225 C 0.66116 0.83969 0.33807 0.0
O226 O 0.68682 0.86313 0.323 0.0
C227 C 0.77183 0.89148 0.33954 0.0
C228 C 0.80182 0.79889 0.40696 0.0
O229 O 0.79107 0.77927 0.37527 0.0
O230 O 0.78273 0.82323 0.42196 0.0
O231 O 0.7602 0.16884 0.43395 0.0
Cd232 Cd 0.72482 0.14016 0.37716 0.0
O233 O 0.78293 0.21932 0.41013 0.0
Cd234 Cd 0.74833 0.21591 0.36107 0.0
O235 O 0.72957 0.2469 0.32118 0.0
C236 C 0.70058 0.26109 0.33001 0.0
O237 O 0.68176 0.25477 0.36139 0.0
C238 C 0.78242 0.1996 0.43585 0.0
C239 C 0.77216 0.10107 0.32941 0.0
O240 O 0.7695 0.13375 0.32558 0.0
O241 O 0.75141 0.08634 0.35493 0.0
O242 O 0.43973 0.22376 0.42245 0.0
Cd243 Cd 0.47636 0.18289 0.38362 0.0
O244 O 0.38812 0.18693 0.40283 0.0
Cd245 Cd 0.32913 0.16303 0.39416 0.0
O246 O 0.29564 0.11554 0.36016 0.0
C247 C 0.28761 0.11969 0.32735 0.0
O248 O 0.29683 0.1525 0.31767 0.0
C249 C 0.40418 0.21727 0.4213 0.0
C250 C 0.51045 0.22342 0.32875 0.0
O251 O 0.5268 0.22422 0.35972 0.0
O252 O 0.47877 0.20177 0.32281 0.0
O253 O 0.46658 0.88042 0.28916 0.0
Cd254 Cd 0.45566 0.94332 0.31054 0.0
O255 O 0.45371 0.8669 0.34628 0.0
Cd256 Cd 0.4398 0.82733 0.3855 0.0
O257 O 0.40244 0.78611 0.41309 0.0
C258 C 0.40145 0.78359 0.44811 0.0
O259 O 0.42543 0.80658 0.47089 0.0
C260 C 0.46306 0.85736 0.31184 0.0
C261 C 0.3917 0.95469 0.27822 0.0
O262 O 0.42331 0.95689 0.26015 0.0
O263 O 0.39017 0.94762 0.31209 0.0
O264 O 0.78267 0.67535 0.10094 0.0
Cd265 Cd 0.75055 0.61417 0.10956 0.0
O266 O 0.73473 0.69699 0.12929 0.0
Cd267 Cd 0.70242 0.73719 0.15949 0.0
O268 O 0.67207 0.76495 0.20695 0.0
C269 C 0.63816 0.75382 0.21698 0.0
O270 O 0.61837 0.72471 0.19684 0.0
C271 C 0.76763 0.70272 0.11457 0.0
C272 C 0.78344 0.60001 0.17224 0.0
O273 O 0.79539 0.58954 0.13857 0.0
O274 O 0.75472 0.61557 0.17608 0.0
O275 O 0.39904 0.74285 0.21853 0.0
Cd276 Cd 0.35981 0.69991 0.17055 0.0
O277 O 0.43656 0.70314 0.21674 0.0
Cd278 Cd 0.39628 0.65603 0.19066 0.0
O279 O 0.36139 0.61312 0.21777 0.0
C280 C 0.37647 0.58822 0.22717 0.0
O281 O 0.41121 0.58647 0.21588 0.0
C282 C 0.42926 0.735 0.22831 0.0
C283 C 0.32022 0.7341 0.1272 0.0
O284 O 0.30331 0.71714 0.15327 0.0
O285 O 0.3555 0.73507 0.12179 0.0
O286 O 0.38671 0.26016 0.15356 0.0
Cd287 Cd 0.45509 0.28314 0.15301 0.0
O288 O 0.37733 0.31225 0.13912 0.0
Cd289 Cd 0.42611 0.34803 0.16666 0.0
O290 O 0.41528 0.38909 0.21529 0.0
C291 C 0.38444 0.37811 0.23209 0.0
O292 O 0.3655 0.34516 0.21966 0.0
C293 C 0.3651 0.27878 0.1422 0.0
C294 C 0.49667 0.27912 0.21483 0.0
O295 O 0.48351 0.25013 0.19172 0.0
O296 O 0.48928 0.30984 0.20956 0.0
O297 O 0.86956 0.44808 0.12425 0.0
Cd298 Cd 0.86141 0.40812 0.06359 0.0
O299 O 0.83517 0.40444 0.15153 0.0
Cd300 Cd 0.80389 0.37715 0.19659 0.0
O301 O 0.76494 0.34547 0.23363 0.0
C302 C 0.72988 0.34443 0.23182 0.0
O303 O 0.71806 0.36233 0.20783 0.0
C304 C 0.85509 0.43655 0.1542 0.0
C305 C 0.82484 0.34088 0.08008 0.0
O306 O 0.80646 0.36341 0.07002 0.0
O307 O 0.86068 0.34963 0.08075 0.0
O308 O 0.71041 0.39409 0.90176 0.0
Cd309 Cd 0.6611 0.3558 0.93553 0.0
O310 O 0.68467 0.44309 0.90571 0.0
Cd311 Cd 0.6325 0.40998 0.92286 0.0
O312 O 0.59229 0.36122 0.89998 0.0
C313 C 0.60396 0.34209 0.87055 0.0
O314 O 0.63802 0.35283 0.85726 0.0
C315 C 0.71206 0.42682 0.89568 0.0
C316 C 0.68685 0.30112 0.96558 0.0
O317 O 0.67981 0.29724 0.93033 0.0
O318 O 0.68185 0.33088 0.9869 0.0
O319 O 0.73385 0.73282 0.92798 0.0
Cd320 Cd 0.6878 0.68679 0.88979 0.0
O321 O 0.69326 0.7621 0.96213 0.0
Cd322 Cd 0.65266 0.74546 0.91701 0.0
O323 O 0.63498 0.77298 0.8737 0.0
C324 C 0.614 0.79646 0.8842 0.0
O325 O 0.60146 0.80084 0.91951 0.0
C326 C 0.72652 0.75628 0.956 0.0
C327 C 0.7249 0.63201 0.85161 0.0
O328 O 0.72077 0.65941 0.83633 0.0
O329 O 0.71035 0.62974 0.88477 0.0
O330 O 0.32757 0.75459 0.92926 0.0
Cd331 Cd 0.38583 0.73943 0.89967 0.0
O332 O 0.30616 0.6955 0.91793 0.0
Cd333 Cd 0.26465 0.64498 0.90881 0.0
O334 O 0.25352 0.60736 0.85562 0.0
C335 C 0.23512 0.61813 0.83202 0.0
O336 O 0.22102 0.648 0.8429 0.0
C337 C 0.30063 0.72773 0.93049 0.0
C338 C 0.42606 0.79544 0.86378 0.0
O339 O 0.39966 0.77164 0.84686 0.0
O340 O 0.43324 0.79282 0.89773 0.0
O341 O 0.39791 0.37476 0.81472 0.0
Cd342 Cd 0.35924 0.42097 0.83946 0.0
O343 O 0.39388 0.36205 0.87225 0.0
Cd344 Cd 0.38807 0.32456 0.91334 0.0
O345 O 0.34206 0.2944 0.94382 0.0
C346 C 0.33285 0.30596 0.97784 0.0
O347 O 0.35377 0.33518 0.99665 0.0
C348 C 0.40468 0.35482 0.83791 0.0
C349 C 0.31764 0.44225 0.78625 0.0
O350 O 0.3496 0.46107 0.79712 0.0
O351 O 0.30543 0.4126 0.79978 0.0
H352 H 0.30853 0.31619 0.0514 0.0
H353 H 0.19747 0.25193 0.03484 0.0
H354 H 0.27534 0.2604 0.9403 0.0
H355 H 0.25351 0.32145 0.10076 0.0
H356 H 0.21393 0.28442 0.09685 0.0
H357 H 0.31471 0.31227 0.11658 0.0
H358 H 0.32648 0.20857 0.14614 0.0
H359 H 0.22161 0.22234 0.10571 0.0
C360 C 0.28776 0.29835 0.03289 0.0
C361 C 0.29647 0.28947 0.99417 0.0
C362 C 0.25243 0.28411 0.04796 0.0
C363 C 0.22502 0.26229 0.02354 0.0
C364 C 0.23314 0.25375 0.98462 0.0
C365 C 0.26918 0.26659 0.97042 0.0
C366 C 0.24445 0.29165 0.0901 0.0
C367 C 0.26582 0.26983 0.10971 0.0
C368 C 0.30303 0.28417 0.11984 0.0
C369 C 0.32547 0.26246 0.13282 0.0
C370 C 0.30966 0.22582 0.13629 0.0
C371 C 0.2718 0.21158 0.12755 0.0
C372 C 0.25022 0.23369 0.11411 0.0
H373 H 0.75304 0.21469 0.12212 0.0
H374 H 0.75342 0.30744 0.06614 0.0
H375 H 0.85246 0.29773 0.12045 0.0
H376 H 0.70217 0.21279 0.08096 0.0
H377 H 0.6898 0.25737 0.09018 0.0
H378 H 0.74846 0.20265 0.02103 0.0
H379 H 0.73249 0.2574 0.92893 0.0
H380 H 0.67863 0.28466 0.03726 0.0
C381 C 0.76734 0.24045 0.11409 0.0
C382 C 0.80464 0.25463 0.12474 0.0
C383 C 0.74905 0.25877 0.0917 0.0
C384 C 0.76768 0.29256 0.08229 0.0
C385 C 0.80515 0.30626 0.0917 0.0
C386 C 0.8236 0.28697 0.11259 0.0
C387 C 0.71084 0.24153 0.0756 0.0
C388 C 0.71159 0.24198 0.03333 0.0
C389 C 0.73424 0.22101 0.00941 0.0
C390 C 0.74236 0.22707 0.97207 0.0
C391 C 0.72553 0.25229 0.95764 0.0
C392 C 0.7019 0.27271 0.9807 0.0
C393 C 0.69531 0.26771 0.01871 0.0
H394 H 0.74237 0.7609 0.09717 0.0
H395 H 0.84856 0.83493 0.10061 0.0
H396 H 0.84124 0.72675 0.12793 0.0
H397 H 0.74636 0.82579 0.0887 0.0
H398 H 0.79101 0.85629 0.0893 0.0
H399 H 0.72564 0.78308 0.03145 0.0
H400 H 0.79544 0.78243 0.9305 0.0
H401 H 0.83658 0.84898 0.03495 0.0
C402 C 0.77191 0.76722 0.10371 0.0
C403 C 0.78909 0.74014 0.11398 0.0
C404 C 0.79341 0.80137 0.09856 0.0
C405 C 0.83193 0.80907 0.10592 0.0
C406 C 0.84945 0.78254 0.11709 0.0
C407 C 0.82787 0.74786 0.12038 0.0
C408 C 0.77651 0.82748 0.08026 0.0
C409 C 0.78063 0.81728 0.03783 0.0
C410 C 0.75192 0.79268 0.01724 0.0
C411 C 0.75732 0.77989 0.97858 0.0
C412 C 0.7917 0.79176 0.96057 0.0
C413 C 0.82021 0.81738 0.98036 0.0
C414 C 0.81457 0.82976 0.01914 0.0
H415 H 0.25473 0.70712 0.09079 0.0
H416 H 0.24712 0.80509 0.04682 0.0
H417 H 0.34203 0.80247 0.11188 0.0
H418 H 0.20855 0.70337 0.04434 0.0
H419 H 0.18877 0.74423 0.05378 0.0
H420 H 0.26661 0.70729 0.99401 0.0
H421 H 0.25592 0.7666 0.90395 0.0
H422 H 0.1811 0.77318 0.00135 0.0
C423 C 0.26592 0.73542 0.08791 0.0
C424 C 0.30001 0.75311 0.10471 0.0
C425 C 0.24735 0.75364 0.06576 0.0
C426 C 0.26185 0.79058 0.06296 0.0
C427 C 0.2963 0.80813 0.07879 0.0
C428 C 0.31551 0.78903 0.0992 0.0
C429 C 0.21412 0.73314 0.04239 0.0
C430 C 0.22155 0.73795 0.00135 0.0
C431 C 0.25125 0.72385 0.98105 0.0
C432 C 0.26402 0.73461 0.9463 0.0
C433 C 0.2454 0.75763 0.93043 0.0
C434 C 0.21492 0.77106 0.94977 0.0
C435 C 0.20339 0.76145 0.98543 0.0
H436 H 0.06523 0.22719 0.27193 0.0
H437 H 0.09981 0.31349 0.3653 0.0
H438 H 0.17601 0.29279 0.27142 0.0
H439 H 0.03313 0.22949 0.33774 0.0
H440 H 0.04218 0.27106 0.3709 0.0
H441 H 0.99818 0.22595 0.27959 0.0
H442 H 0.9266 0.30521 0.28227 0.0
H443 H 0.01276 0.32287 0.36441 0.0
C444 C 0.08607 0.24983 0.28486 0.0
C445 C 0.12152 0.25782 0.26706 0.0
C446 C 0.07777 0.27021 0.32005 0.0
C447 C 0.10563 0.29834 0.33775 0.0
C448 C 0.1411 0.3066 0.32021 0.0
C449 C 0.14842 0.28677 0.28465 0.0
C450 C 0.04044 0.2599 0.3401 0.0
C451 C 0.00945 0.27329 0.32324 0.0
C452 C 0.99038 0.25197 0.29161 0.0
C453 C 0.96015 0.26301 0.27677 0.0
C454 C 0.94997 0.29646 0.29328 0.0
C455 C 0.96871 0.31805 0.32495 0.0
C456 C 0.99837 0.30635 0.33987 0.0
H457 H 0.88506 0.04127 0.25823 0.0
H458 H 0.79699 0.04089 0.34326 0.0
H459 H 0.81287 0.12081 0.26795 0.0
H460 H 0.88718 0.01056 0.31141 0.0
H461 H 0.85358 0.01415 0.34949 0.0
H462 H 0.86573 0.96847 0.2485 0.0
H463 H 0.79209 0.86872 0.26761 0.0
H464 H 0.80493 0.96362 0.35475 0.0
C465 C 0.86092 0.05212 0.27106 0.0
C466 C 0.85076 0.08226 0.25868 0.0
C467 C 0.84166 0.03718 0.3015 0.0
C468 C 0.81108 0.05186 0.31902 0.0
C469 C 0.8005 0.08216 0.30714 0.0
C470 C 0.82017 0.09683 0.27655 0.0
C471 C 0.85665 0.00872 0.31805 0.0
C472 C 0.83672 0.97047 0.30289 0.0
C473 C 0.8455 0.95339 0.26626 0.0
C474 C 0.8294 0.91658 0.25326 0.0
C475 C 0.80423 0.89725 0.2772 0.0
C476 C 0.7955 0.9138 0.31391 0.0
C477 C 0.81121 0.95069 0.32631 0.0
H478 H 0.07599 0.68893 0.27539 0.0
H479 H 0.06789 0.71671 0.16495 0.0
H480 H 0.98521 0.73979 0.25218 0.0
H481 H 0.1064 0.65719 0.21499 0.0
H482 H 0.11141 0.67869 0.17369 0.0
H483 H 0.15216 0.6767 0.26252 0.0
H484 H 0.23846 0.77172 0.25617 0.0
H485 H 0.14595 0.74614 0.18031 0.0
C486 C 0.06184 0.70084 0.25612 0.0
C487 C 0.02895 0.71429 0.26815 0.0
C488 C 0.07571 0.70115 0.21874 0.0
C489 C 0.05695 0.71604 0.19367 0.0
C490 C 0.02459 0.73056 0.20564 0.0
C491 C 0.0105 0.7292 0.24285 0.0
C492 C 0.1095 0.68418 0.20519 0.0
C493 C 0.14526 0.70889 0.21992 0.0
C494 C 0.1639 0.70072 0.24979 0.0
C495 C 0.19765 0.72315 0.26301 0.0
C496 C 0.21235 0.75436 0.24627 0.0
C497 C 0.19405 0.76297 0.21634 0.0
C498 C 0.16042 0.74004 0.20341 0.0
H499 H 0.26449 0.95191 0.20836 0.0
H500 H 0.32849 0.97816 0.31022 0.0
H501 H 0.37895 0.938 0.20347 0.0
H502 H 0.23378 0.96486 0.27278 0.0
H503 H 0.26198 0.98179 0.31369 0.0
H504 H 0.24141 0.00499 0.21895 0.0
H505 H 0.26224 0.12092 0.25828 0.0
H506 H 0.28075 0.04684 0.33192 0.0
C507 C 0.29051 0.95425 0.22263 0.0
C508 C 0.32167 0.94441 0.2017 0.0
C509 C 0.29322 0.96817 0.26153 0.0
C510 C 0.32657 0.96868 0.27997 0.0
C511 C 0.35751 0.95725 0.25925 0.0
C512 C 0.35521 0.9465 0.21987 0.0
C513 C 0.26064 0.9826 0.2829 0.0
C514 C 0.26044 0.02138 0.27653 0.0
C515 C 0.25016 0.02778 0.24133 0.0
C516 C 0.25092 0.06358 0.23478 0.0
C517 C 0.26127 0.09326 0.26377 0.0
C518 C 0.27237 0.08765 0.29888 0.0
C519 C 0.27173 0.05153 0.30514 0.0
H520 H 0.96022 0.83543 0.84081 0.0
H521 H 0.94237 0.72913 0.771 0.0
H522 H 0.87974 0.8106 0.75231 0.0
H523 H 0.97906 0.78002 0.86078 0.0
H524 H 0.97634 0.73822 0.82808 0.0
H525 H 0.03342 0.82685 0.86177 0.0
H526 H 0.12677 0.80931 0.78632 0.0
H527 H 0.02001 0.73644 0.76926 0.0
C528 C 0.94605 0.81646 0.81755 0.0
C529 C 0.91916 0.82732 0.79737 0.0
C530 C 0.95493 0.78119 0.80763 0.0
C531 C 0.93617 0.75659 0.77787 0.0
C532 C 0.90857 0.76664 0.75806 0.0
C533 C 0.90093 0.80243 0.76739 0.0
C534 C 0.98238 0.76864 0.83027 0.0
C535 C 0.02234 0.78049 0.81684 0.0
C536 C 0.04508 0.81128 0.8372 0.0
C537 C 0.08275 0.82175 0.82634 0.0
C538 C 0.09757 0.80132 0.79454 0.0
C539 C 0.07541 0.7704 0.77363 0.0
C540 C 0.03754 0.76031 0.78483 0.0
H541 H 0.24861 0.00151 0.88984 0.0
H542 H 0.33294 0.99764 0.80047 0.0
H543 H 0.26064 0.89821 0.82251 0.0
H544 H 0.29891 0.0537 0.88789 0.0
H545 H 0.338 0.05007 0.85603 0.0
H546 H 0.24543 0.07684 0.87007 0.0
H547 H 0.26292 0.13588 0.77562 0.0
H548 H 0.33746 0.06392 0.79157 0.0
C549 C 0.26258 0.98587 0.86705 0.0
C550 C 0.25134 0.94758 0.85883 0.0
C551 C 0.29242 0.004 0.84645 0.0
C552 C 0.31015 0.98365 0.81654 0.0
C553 C 0.29869 0.94541 0.8076 0.0
C554 C 0.26982 0.92768 0.82939 0.0
C555 C 0.3068 0.04455 0.85781 0.0
C556 C 0.2922 0.06697 0.83272 0.0
C557 C 0.26039 0.08258 0.84406 0.0
C558 C 0.24979 0.10778 0.82379 0.0
C559 C 0.27034 0.11576 0.79078 0.0
C560 C 0.30204 0.10009 0.77883 0.0
C561 C 0.31244 0.07532 0.79974 0.0
H562 H 0.98087 0.38158 0.81464 0.0
H563 H 0.95584 0.31251 0.90034 0.0
H564 H 0.88389 0.29493 0.80495 0.0
H565 H 0.01009 0.40038 0.87755 0.0
H566 H 0.99818 0.3722 0.91361 0.0
H567 H 0.05776 0.38849 0.82973 0.0
H568 H 0.12735 0.31135 0.84361 0.0
H569 H 0.02639 0.3165 0.9119 0.0
C570 C 0.96321 0.35875 0.82557 0.0
C571 C 0.93129 0.33934 0.80585 0.0
C572 C 0.97164 0.34952 0.86013 0.0
C573 C 0.94891 0.31977 0.87392 0.0
C574 C 0.91746 0.29958 0.85404 0.0
C575 C 0.90842 0.30998 0.82033 0.0
C576 C 0.00448 0.37145 0.88275 0.0
C577 C 0.03872 0.35452 0.87214 0.0
C578 C 0.06343 0.36667 0.84355 0.0
C579 C 0.09566 0.35157 0.83342 0.0
C580 C 0.10245 0.32309 0.85139 0.0
C581 C 0.07752 0.31003 0.87966 0.0
C582 C 0.04573 0.32605 0.88998 0.0
H583 H 0.67912 0.95563 0.72505 0.0
H584 H 0.757 0.97558 0.81588 0.0
H585 H 0.78681 0.92443 0.7042 0.0
H586 H 0.65719 0.96985 0.78999 0.0
H587 H 0.68797 0.97435 0.82831 0.0
H588 H 0.67615 0.02336 0.74611 0.0
H589 H 0.69477 0.1294 0.81677 0.0
H590 H 0.70314 0.03326 0.8633 0.0
C591 C 0.70642 0.95479 0.73521 0.0
C592 C 0.73221 0.93907 0.71055 0.0
C593 C 0.71513 0.96808 0.77331 0.0
C594 C 0.75027 0.96557 0.78643 0.0
C595 C 0.77663 0.95025 0.76149 0.0
C596 C 0.7672 0.93705 0.72357 0.0
C597 C 0.68583 0.98251 0.80018 0.0
C598 C 0.68991 0.02378 0.80408 0.0
C599 C 0.68329 0.04034 0.77322 0.0
C600 C 0.68498 0.07855 0.77756 0.0
C601 C 0.69344 0.09998 0.81314 0.0
C602 C 0.69993 0.08393 0.8442 0.0
C603 C 0.69815 0.04584 0.83945 0.0
H604 H 0.29915 0.67752 0.49857 0.0
H605 H 0.39653 0.7631 0.51824 0.0
H606 H 0.34287 0.74021 0.41065 0.0
H607 H 0.33945 0.68102 0.55221 0.0
H608 H 0.38081 0.71552 0.5596 0.0
H609 H 0.27864 0.69363 0.57726 0.0
H610 H 0.27703 0.79196 0.65826 0.0
H611 H 0.37714 0.77828 0.59168 0.0
C612 C 0.31947 0.69922 0.4886 0.0
C613 C 0.31736 0.70664 0.45173 0.0
C614 C 0.34788 0.71967 0.51277 0.0
C615 C 0.37441 0.74765 0.49974 0.0
C616 C 0.37294 0.75508 0.46277 0.0
C617 C 0.34413 0.73465 0.43922 0.0
C618 C 0.35085 0.71063 0.55181 0.0
C619 C 0.32988 0.73375 0.58089 0.0
C620 C 0.29234 0.72053 0.5908 0.0
C621 C 0.273 0.74124 0.61895 0.0
C622 C 0.29143 0.77605 0.63607 0.0
C623 C 0.32908 0.78954 0.62675 0.0
C624 C 0.34807 0.76827 0.59896 0.0
H625 H 0.82918 0.87105 0.5346 0.0
H626 H 0.87387 0.78105 0.56125 0.0
H627 H 0.76677 0.80137 0.60896 0.0
H628 H 0.89287 0.86479 0.51493 0.0
H629 H 0.91298 0.82884 0.52824 0.0
H630 H 0.83012 0.83711 0.47253 0.0
H631 H 0.8503 0.75174 0.38202 0.0
H632 H 0.92495 0.78517 0.47578 0.0
C633 C 0.82641 0.84773 0.54934 0.0
C634 C 0.79406 0.83808 0.57136 0.0
C635 C 0.85476 0.82674 0.54487 0.0
C636 C 0.85162 0.79691 0.56441 0.0
C637 C 0.82026 0.78793 0.58825 0.0
C638 C 0.79122 0.80825 0.59096 0.0
C639 C 0.88722 0.83517 0.51757 0.0
C640 C 0.87797 0.81293 0.47893 0.0
C641 C 0.8465 0.81677 0.46007 0.0
C642 C 0.83567 0.79437 0.42559 0.0
C643 C 0.85779 0.76867 0.40908 0.0
C644 C 0.89047 0.76584 0.42677 0.0
C645 C 0.90024 0.78789 0.46171 0.0
H646 H 0.85898 0.25861 0.60143 0.0
H647 H 0.76497 0.16877 0.59822 0.0
H648 H 0.76758 0.26551 0.6822 0.0
H649 H 0.86082 0.1892 0.57105 0.0
H650 H 0.81701 0.16151 0.55624 0.0
H651 H 0.88997 0.24116 0.53979 0.0
H652 H 0.84596 0.24807 0.43308 0.0
H653 H 0.78222 0.17698 0.50526 0.0
C654 C 0.83169 0.24687 0.61221 0.0
C655 C 0.81512 0.2665 0.6434 0.0
C656 C 0.81332 0.21196 0.59506 0.0
C657 C 0.77866 0.19612 0.61052 0.0
C658 C 0.76194 0.21526 0.6421 0.0
C659 C 0.78003 0.25073 0.65761 0.0
C660 C 0.83222 0.19042 0.56248 0.0
C661 C 0.83543 0.20763 0.52685 0.0
C662 C 0.86769 0.2333 0.51951 0.0
C663 C 0.87175 0.24782 0.48555 0.0
C664 C 0.8429 0.23702 0.45937 0.0
C665 C 0.81059 0.21156 0.46597 0.0
C666 C 0.80691 0.19694 0.49992 0.0
H667 H 0.36694 0.3875 0.54292 0.0
H668 H 0.38955 0.28387 0.5615 0.0
H669 H 0.31954 0.34195 0.64108 0.0
H670 H 0.41081 0.35955 0.50187 0.0
H671 H 0.43218 0.32659 0.51911 0.0
H672 H 0.34099 0.33311 0.47756 0.0
H673 H 0.33827 0.23178 0.39975 0.0
H674 H 0.42581 0.26902 0.48096 0.0
C675 C 0.36352 0.36588 0.56007 0.0
C676 C 0.34181 0.36851 0.59364 0.0
C677 C 0.38121 0.33564 0.54876 0.0
C678 C 0.37624 0.30743 0.57072 0.0
C679 C 0.35351 0.30912 0.60378 0.0
C680 C 0.3369 0.34014 0.61543 0.0
C681 C 0.40477 0.33302 0.51286 0.0
C682 C 0.38492 0.30365 0.48291 0.0
C683 C 0.35207 0.30837 0.46728 0.0
C684 C 0.33466 0.28245 0.4375 0.0
C685 C 0.35035 0.25104 0.42385 0.0
C686 C 0.38336 0.24606 0.43941 0.0
C687 C 0.40007 0.27231 0.46921 0.0
H688 H 0.82673 0.5514 0.79129 0.0
H689 H 0.74658 0.57649 0.88002 0.0
H690 H 0.75886 0.63146 0.78286 0.0
H691 H 0.83323 0.54043 0.85659 0.0
H692 H 0.79788 0.54775 0.89196 0.0
H693 H 0.82283 0.48498 0.80574 0.0
H694 H 0.74943 0.39127 0.84006 0.0
H695 H 0.74372 0.49956 0.89885 0.0
C696 C 0.80401 0.56552 0.80201 0.0
C697 C 0.79416 0.59143 0.78218 0.0
C698 C 0.78662 0.55966 0.83713 0.0
C699 C 0.75873 0.57971 0.85217 0.0
C700 C 0.74878 0.60595 0.83285 0.0
C701 C 0.7658 0.61068 0.79739 0.0
C702 C 0.80233 0.53716 0.86141 0.0
C703 C 0.78538 0.49676 0.85333 0.0
C704 C 0.80056 0.4734 0.82404 0.0
C705 C 0.78764 0.43521 0.81897 0.0
C706 C 0.75969 0.42065 0.84378 0.0
C707 C 0.74342 0.44353 0.87233 0.0
C708 C 0.75595 0.4817 0.87665 0.0
H709 H 0.24362 0.56854 0.68285 0.0
H710 H 0.27697 0.56887 0.79605 0.0
H711 H 0.1948 0.63206 0.77716 0.0
H712 H 0.298 0.54471 0.69147 0.0
H713 H 0.31971 0.55798 0.73637 0.0
H714 H 0.24174 0.48941 0.68581 0.0
H715 H 0.26139 0.40159 0.74062 0.0
H716 H 0.3246 0.51128 0.77134 0.0
C717 C 0.24028 0.57681 0.71315 0.0
C718 C 0.21592 0.60113 0.72713 0.0
C719 C 0.26245 0.56517 0.73791 0.0
C720 C 0.25904 0.57698 0.77712 0.0
C721 C 0.23465 0.60118 0.79155 0.0
C722 C 0.21302 0.61279 0.76634 0.0
C723 C 0.29302 0.54417 0.72232 0.0
C724 C 0.28363 0.50468 0.72847 0.0
C725 C 0.2564 0.47978 0.70653 0.0
C726 C 0.24821 0.44263 0.71072 0.0
C727 C 0.26729 0.43036 0.7377 0.0
C728 C 0.29549 0.45494 0.75934 0.0
C729 C 0.30318 0.49208 0.75468 0.0
H730 H 0.40061 0.53317 0.25345 0.0
H731 H 0.32108 0.52398 0.34629 0.0
H732 H 0.31335 0.59748 0.26843 0.0
H733 H 0.41421 0.50613 0.30599 0.0
H734 H 0.38463 0.50751 0.34747 0.0
H735 H 0.40608 0.45207 0.25696 0.0
H736 H 0.32918 0.35575 0.28033 0.0
H737 H 0.32712 0.45982 0.35099 0.0
C738 C 0.37551 0.54029 0.26822 0.0
C739 C 0.35821 0.5668 0.25655 0.0
C740 C 0.36211 0.52458 0.30042 0.0
C741 C 0.33049 0.53499 0.32059 0.0
C742 C 0.31266 0.56128 0.30919 0.0
C743 C 0.3263 0.57645 0.27671 0.0
C744 C 0.38441 0.50062 0.31601 0.0
C745 C 0.36817 0.46036 0.30503 0.0
C746 C 0.38335 0.43911 0.2739 0.0
C747 C 0.36936 0.40126 0.26482 0.0
C748 C 0.33994 0.38497 0.2871 0.0
C749 C 0.32444 0.40572 0.3182 0.0
C750 C 0.3385 0.44354 0.32679 0.0
H751 H 0.84294 0.56631 0.17306 0.0
H752 H 0.86465 0.59682 0.29161 0.0
H753 H 0.7721 0.62972 0.24541 0.0
H754 H 0.90613 0.56853 0.19892 0.0
H755 H 0.91231 0.57616 0.24894 0.0
H756 H 0.86745 0.51012 0.16742 0.0
H757 H 0.86328 0.41611 0.22224 0.0
H758 H 0.89905 0.52511 0.28347 0.0
C759 C 0.83491 0.57899 0.20101 0.0
C760 C 0.8039 0.59674 0.20564 0.0
C761 C 0.85671 0.5788 0.23203 0.0
C762 C 0.84707 0.5962 0.26799 0.0
C763 C 0.81688 0.61511 0.27297 0.0
C764 C 0.795 0.61466 0.2418 0.0
C765 C 0.89206 0.56291 0.2263 0.0
C766 C 0.88317 0.52205 0.22579 0.0
C767 C 0.87046 0.49857 0.19257 0.0
C768 C 0.86283 0.46037 0.1911 0.0
C769 C 0.86745 0.44561 0.22364 0.0
C770 C 0.88112 0.46884 0.25689 0.0
C771 C 0.88851 0.50705 0.25792 0.0
H772 H 0.51687 0.22014 0.79962 0.0
H773 H 0.52986 0.31718 0.8842 0.0
H774 H 0.6244 0.29201 0.81387 0.0
H775 H 0.46965 0.22772 0.85255 0.0
H776 H 0.47475 0.26914 0.8862 0.0
H777 H 0.44785 0.22585 0.78836 0.0
H778 H 0.38714 0.30974 0.77303 0.0
H779 H 0.45243 0.32301 0.8723 0.0
C780 C 0.53454 0.2447 0.81379 0.0
C781 C 0.57267 0.25319 0.80298 0.0
C782 C 0.51906 0.2677 0.84319 0.0
C783 C 0.54189 0.29946 0.86169 0.0
C784 C 0.57992 0.30843 0.85126 0.0
C785 C 0.59503 0.28515 0.82197 0.0
C786 C 0.47849 0.25807 0.85566 0.0
C787 C 0.45357 0.27312 0.8324 0.0
C788 C 0.44025 0.25248 0.7978 0.0
C789 C 0.41587 0.26523 0.77641 0.0
C790 C 0.40624 0.29976 0.78913 0.0
C791 C 0.41882 0.32054 0.8238 0.0
C792 C 0.44263 0.30716 0.84539 0.0
H793 H 0.51015 0.89716 0.79043 0.0
H794 H 0.49305 0.83778 0.8844 0.0
H795 H 0.4085 0.81848 0.80021 0.0
H796 H 0.55098 0.91675 0.8446 0.0
H797 H 0.53988 0.89668 0.88664 0.0
H798 H 0.58939 0.88954 0.79387 0.0
H799 H 0.65035 0.80868 0.81762 0.0
H800 H 0.56166 0.83999 0.89363 0.0
C801 C 0.49292 0.87689 0.80537 0.0
C802 C 0.45763 0.85893 0.79155 0.0
C803 C 0.50552 0.8697 0.83922 0.0
C804 C 0.48309 0.84354 0.85852 0.0
C805 C 0.44837 0.82443 0.84431 0.0
C806 C 0.43555 0.83269 0.8111 0.0
C807 C 0.54254 0.89014 0.85524 0.0
C808 C 0.57247 0.86717 0.84479 0.0
C809 C 0.59426 0.87029 0.81157 0.0
C810 C 0.62267 0.84956 0.80165 0.0
C811 C 0.62833 0.82459 0.82494 0.0
C812 C 0.60641 0.82087 0.85825 0.0
C813 C 0.57854 0.84232 0.86791 0.0
H814 H 0.56779 0.73656 0.2492 0.0
H815 H 0.58913 0.81006 0.35488 0.0
H816 H 0.67462 0.80915 0.26718 0.0
H817 H 0.53025 0.72697 0.31166 0.0
H818 H 0.53316 0.76494 0.34944 0.0
H819 H 0.48912 0.72173 0.26152 0.0
H820 H 0.42584 0.80686 0.25713 0.0
H821 H 0.51433 0.82442 0.33676 0.0
C822 C 0.58628 0.75825 0.26669 0.0
C823 C 0.62288 0.77115 0.25346 0.0
C824 C 0.57372 0.77256 0.30312 0.0
C825 C 0.59822 0.79952 0.32649 0.0
C826 C 0.63443 0.81288 0.31339 0.0
C827 C 0.64626 0.79917 0.27677 0.0
C828 C 0.53521 0.75748 0.31808 0.0
C829 C 0.50515 0.77161 0.30065 0.0
C830 C 0.48366 0.74916 0.27134 0.0
C831 C 0.4544 0.76115 0.25584 0.0
C832 C 0.44806 0.797 0.2689 0.0
C833 C 0.4696 0.81984 0.29811 0.0
C834 C 0.49781 0.80691 0.3141 0.0
H835 H 0.56063 0.32498 0.2399 0.0
H836 H 0.57217 0.27665 0.33798 0.0
H837 H 0.48193 0.2293 0.26191 0.0
H838 H 0.60433 0.35717 0.28793 0.0
H839 H 0.6031 0.34153 0.33236 0.0
H840 H 0.65822 0.35337 0.24847 0.0
H841 H 0.7413 0.29421 0.27463 0.0
H842 H 0.63525 0.28561 0.33521 0.0
C843 C 0.55141 0.30355 0.25698 0.0
C844 C 0.51908 0.27705 0.24715 0.0
C845 C 0.57163 0.30273 0.28903 0.0
C846 C 0.55833 0.2758 0.31183 0.0
C847 C 0.52619 0.24903 0.30225 0.0
C848 C 0.50719 0.24936 0.26929 0.0
C849 C 0.60498 0.33259 0.30119 0.0
C850 C 0.64202 0.31979 0.29186 0.0
C851 C 0.66669 0.33419 0.26418 0.0
C852 C 0.70288 0.32574 0.25825 0.0
C853 C 0.71353 0.30095 0.27909 0.0
C854 C 0.68892 0.28574 0.30648 0.0
C855 C 0.65355 0.29583 0.31299 0.0
loop_
_geom_bond_atom_site_label_1
_geom_bond_atom_site_label_2
_geom_bond_distance
_geom_bond_site_symmetry_2
_ccdc_geom_bond_type
O0 Cd1 2.300 . S
O0 C7 1.275 . S
Cd1 O0 2.300 . S
Cd1 O9 2.381 . S
Cd1 O10 2.378 . S
O2 Cd3 2.385 . S
O2 C7 1.255 . S
Cd3 O2 2.385 . S
Cd3 O4 2.317 . S
O4 Cd3 2.317 . S
O4 C5 1.232 . S
C5 O4 1.232 . S
C5 O6 1.218 . S
O6 C5 1.218 . S
C7 O0 1.275 . S
C7 O2 1.255 . S
C8 O9 1.258 . S
C8 O10 1.256 . S
O9 Cd1 2.381 . S
O9 C8 1.258 . S
O10 Cd1 2.378 . S
O10 C8 1.256 . S
O11 Cd12 2.300 . S
O11 C18 1.275 . S
Cd12 O11 2.300 . S
Cd12 O20 2.381 . S
Cd12 O21 2.378 . S
O13 Cd14 2.385 . S
O13 C18 1.255 . S
Cd14 O13 2.385 . S
Cd14 O15 2.317 . S
O15 Cd14 2.317 . S
O15 C16 1.232 . S
C16 O15 1.232 . S
C16 O17 1.218 . S
O17 C16 1.218 . S
C18 O11 1.275 . S
C18 O13 1.255 . S
C19 O20 1.258 . S
C19 O21 1.256 . S
O20 Cd12 2.381 . S
O20 C19 1.258 . S
O21 Cd12 2.378 . S
O21 C19 1.256 . S
O22 Cd23 2.300 . S
O22 C29 1.275 . S
Cd23 O22 2.300 . S
Cd23 O31 2.381 . S
Cd23 O32 2.378 . S
O24 Cd25 2.385 . S
O24 C29 1.255 . S
Cd25 O24 2.385 . S
Cd25 O26 2.317 . S
O26 Cd25 2.317 . S
O26 C27 1.232 . S
C27 O26 1.232 . S
C27 O28 1.218 . S
O28 C27 1.218 . S
C29 O22 1.275 . S
C29 O24 1.255 . S
C30 O31 1.258 . S
C30 O32 1.256 . S
O31 Cd23 2.381 . S
O31 C30 1.258 . S
O32 Cd23 2.378 . S
O32 C30 1.256 . S
O33 Cd34 2.300 . S
O33 C40 1.275 . S
Cd34 O33 2.300 . S
Cd34 O42 2.381 . S
Cd34 O43 2.378 . S
O35 Cd36 2.385 . S
O35 C40 1.255 . S
Cd36 O35 2.385 . S
Cd36 O37 2.317 . S
O37 Cd36 2.317 . S
O37 C38 1.232 . S
C38 O37 1.232 . S
C38 O39 1.218 . S
O39 C38 1.218 . S
C40 O33 1.275 . S
C40 O35 1.255 . S
C41 O42 1.258 . S
C41 O43 1.256 . S
O42 Cd34 2.381 . S
O42 C41 1.258 . S
O43 Cd34 2.378 . S
O43 C41 1.256 . S
O44 Cd45 2.300 . S
O44 C51 1.275 . S
Cd45 O44 2.300 . S
Cd45 O53 2.381 . S
Cd45 O54 2.378 . S
O46 Cd47 2.385 . S
O46 C51 1.255 . S
Cd47 O46 2.385 . S
Cd47 O48 2.317 . S
O48 Cd47 2.317 . S
O48 C49 1.232 . S
C49 O48 1.232 . S
C49 O50 1.218 . S
O50 C49 1.218 . S
C51 O44 1.275 . S
C51 O46 1.255 . S
C52 O53 1.258 . S
C52 O54 1.256 . S
O53 Cd45 2.381 . S
O53 C52 1.258 . S
O54 Cd45 2.378 . S
O54 C52 1.256 . S
O55 Cd56 2.300 . S
O55 C62 1.275 . S
Cd56 O55 2.300 . S
Cd56 O64 2.381 . S
Cd56 O65 2.378 . S
O57 Cd58 2.385 . S
O57 C62 1.255 . S
Cd58 O57 2.385 . S
Cd58 O59 2.317 . S
O59 Cd58 2.317 . S
O59 C60 1.232 . S
C60 O59 1.232 . S
C60 O61 1.218 . S
O61 C60 1.218 . S
C62 O55 1.275 . S
C62 O57 1.255 . S
C63 O64 1.258 . S
C63 O65 1.256 . S
O64 Cd56 2.381 . S
O64 C63 1.258 . S
O65 Cd56 2.378 . S
O65 C63 1.256 . S
O66 Cd67 2.300 . S
O66 C73 1.275 . S
Cd67 O66 2.300 . S
Cd67 O75 2.381 . S
Cd67 O76 2.378 . S
O68 Cd69 2.385 . S
O68 C73 1.255 . S
Cd69 O68 2.385 . S
Cd69 O70 2.317 . S
O70 Cd69 2.317 . S
O70 C71 1.232 . S
C71 O70 1.232 . S
C71 O72 1.218 . S
O72 C71 1.218 . S
C73 O66 1.275 . S
C73 O68 1.255 . S
C74 O75 1.258 . S
C74 O76 1.256 . S
O75 Cd67 2.381 . S
O75 C74 1.258 . S
O76 Cd67 2.378 . S
O76 C74 1.256 . S
O77 Cd78 2.300 . S
O77 C84 1.275 . S
Cd78 O77 2.300 . S
Cd78 O86 2.381 . S
Cd78 O87 2.378 . S
O79 Cd80 2.385 . S
O79 C84 1.255 . S
Cd80 O79 2.385 . S
Cd80 O81 2.317 . S
O81 Cd80 2.317 . S
O81 C82 1.232 . S
C82 O81 1.232 . S
C82 O83 1.218 . S
O83 C82 1.218 . S
C84 O77 1.275 . S
C84 O79 1.255 . S
C85 O86 1.258 . S
C85 O87 1.256 . S
O86 Cd78 2.381 . S
O86 C85 1.258 . S
O87 Cd78 2.378 . S
O87 C85 1.256 . S
O88 Cd89 2.300 . S
O88 C95 1.275 . S
Cd89 O88 2.300 . S
Cd89 O97 2.381 . S
Cd89 O98 2.378 . S
O90 Cd91 2.385 . S
O90 C95 1.255 . S
Cd91 O90 2.385 . S
Cd91 O92 2.317 . S
O92 Cd91 2.317 . S
O92 C93 1.232 . S
C93 O92 1.232 . S
C93 O94 1.218 . S
O94 C93 1.218 . S
C95 O88 1.275 . S
C95 O90 1.255 . S
C96 O97 1.258 . S
C96 O98 1.256 . S
O97 Cd89 2.381 . S
O97 C96 1.258 . S
O98 Cd89 2.378 . S
O98 C96 1.256 . S
O99 Cd100 2.300 . S
O99 C106 1.275 . S
Cd100 O99 2.300 . S
Cd100 O108 2.381 . S
Cd100 O109 2.378 . S
O101 Cd102 2.385 . S
O101 C106 1.255 . S
Cd102 O101 2.385 . S
Cd102 O103 2.317 . S
O103 Cd102 2.317 . S
O103 C104 1.232 . S
C104 O103 1.232 . S
C104 O105 1.218 . S
O105 C104 1.218 . S
C106 O99 1.275 . S
C106 O101 1.255 . S
C107 O108 1.258 . S
C107 O109 1.256 . S
O108 Cd100 2.381 . S
O108 C107 1.258 . S
O109 Cd100 2.378 . S
O109 C107 1.256 . S
O110 Cd111 2.300 . S
O110 C117 1.275 . S
Cd111 O110 2.300 . S
Cd111 O119 2.381 . S
Cd111 O120 2.378 . S
O112 Cd113 2.385 . S
O112 C117 1.255 . S
Cd113 O112 2.385 . S
Cd113 O114 2.317 . S
O114 Cd113 2.317 . S
O114 C115 1.232 . S
C115 O114 1.232 . S
C115 O116 1.218 . S
O116 C115 1.218 . S
C117 O110 1.275 . S
C117 O112 1.255 . S
C118 O119 1.258 . S
C118 O120 1.256 . S
O119 Cd111 2.381 . S
O119 C118 1.258 . S
O120 Cd111 2.378 . S
O120 C118 1.256 . S
O121 Cd122 2.300 . S
O121 C128 1.275 . S
Cd122 O121 2.300 . S
Cd122 O130 2.381 . S
Cd122 O131 2.378 . S
O123 Cd124 2.385 . S
O123 C128 1.255 . S
Cd124 O123 2.385 . S
Cd124 O125 2.317 . S
O125 Cd124 2.317 . S
O125 C126 1.232 . S
C126 O125 1.232 . S
C126 O127 1.218 . S
O127 C126 1.218 . S
C128 O121 1.275 . S
C128 O123 1.255 . S
C129 O130 1.258 . S
C129 O131 1.256 . S
O130 Cd122 2.381 . S
O130 C129 1.258 . S
O131 Cd122 2.378 . S
O131 C129 1.256 . S
O132 Cd133 2.300 . S
O132 C139 1.275 . S
Cd133 O132 2.300 . S
Cd133 O141 2.381 . S
Cd133 O142 2.378 . S
O134 Cd135 2.385 . S
O134 C139 1.255 . S
Cd135 O134 2.385 . S
Cd135 O136 2.317 . S
O136 Cd135 2.317 . S
O136 C137 1.232 . S
C137 O136 1.232 . S
C137 O138 1.218 . S
O138 C137 1.218 . S
C139 O132 1.275 . S
C139 O134 1.255 . S
C140 O141 1.258 . S
C140 O142 1.256 . S
O141 Cd133 2.381 . S
O141 C140 1.258 . S
O142 Cd133 2.378 . S
O142 C140 1.256 . S
O143 Cd144 2.300 . S
O143 C150 1.275 . S
Cd144 O143 2.300 . S
Cd144 O152 2.381 . S
Cd144 O153 2.378 . S
O145 Cd146 2.385 . S
O145 C150 1.255 . S
Cd146 O145 2.385 . S
Cd146 O147 2.317 . S
O147 Cd146 2.317 . S
O147 C148 1.232 . S
C148 O147 1.232 . S
C148 O149 1.218 . S
O149 C148 1.218 . S
C150 O143 1.275 . S
C150 O145 1.255 . S
C151 O152 1.258 . S
C151 O153 1.256 . S
O152 Cd144 2.381 . S
O152 C151 1.258 . S
O153 Cd144 2.378 . S
O153 C151 1.256 . S
O154 Cd155 2.300 . S
O154 C161 1.275 . S
Cd155 O154 2.300 . S
Cd155 O163 2.381 . S
Cd155 O164 2.378 . S
O156 Cd157 2.385 . S
O156 C161 1.255 . S
Cd157 O156 2.385 . S
Cd157 O158 2.317 . S
O158 Cd157 2.317 . S
O158 C159 1.232 . S
C159 O158 1.232 . S
C159 O160 1.218 . S
O160 C159 1.218 . S
C161 O154 1.275 . S
C161 O156 1.255 . S
C162 O163 1.258 . S
C162 O164 1.256 . S
O163 Cd155 2.381 . S
O163 C162 1.258 . S
O164 Cd155 2.378 . S
O164 C162 1.256 . S
O165 Cd166 2.300 . S
O165 C172 1.275 . S
Cd166 O165 2.300 . S
Cd166 O174 2.381 . S
Cd166 O175 2.378 . S
O167 Cd168 2.385 . S
O167 C172 1.255 . S
Cd168 O167 2.385 . S
Cd168 O169 2.317 . S
O169 Cd168 2.317 . S
O169 C170 1.232 . S
C170 O169 1.232 . S
C170 O171 1.218 . S
O171 C170 1.218 . S
C172 O165 1.275 . S
C172 O167 1.255 . S
C173 O174 1.258 . S
C173 O175 1.256 . S
O174 Cd166 2.381 . S
O174 C173 1.258 . S
O175 Cd166 2.378 . S
O175 C173 1.256 . S
O176 Cd177 2.300 . S
O176 C183 1.275 . S
Cd177 O176 2.300 . S
Cd177 O185 2.381 . S
Cd177 O186 2.378 . S
O178 Cd179 2.385 . S
O178 C183 1.255 . S
Cd179 O178 2.385 . S
Cd179 O180 2.317 . S
O180 Cd179 2.317 . S
O180 C181 1.232 . S
C181 O180 1.232 . S
C181 O182 1.218 . S
O182 C181 1.218 . S
C183 O176 1.275 . S
C183 O178 1.255 . S
C184 O185 1.258 . S
C184 O186 1.256 . S
O185 Cd177 2.381 . S
O185 C184 1.258 . S
O186 Cd177 2.378 . S
O186 C184 1.256 . S
O187 Cd188 2.300 . S
O187 C194 1.275 . S
Cd188 O187 2.300 . S
Cd188 O196 2.381 . S
Cd188 O197 2.378 . S
O189 Cd190 2.385 . S
O189 C194 1.255 . S
Cd190 O189 2.385 . S
Cd190 O191 2.317 . S
O191 Cd190 2.317 . S
O191 C192 1.232 . S
C192 O191 1.232 . S
C192 O193 1.218 . S
O193 C192 1.218 . S
C194 O187 1.275 . S
C194 O189 1.255 . S
C195 O196 1.258 . S
C195 O197 1.256 . S
O196 Cd188 2.381 . S
O196 C195 1.258 . S
O197 Cd188 2.378 . S
O197 C195 1.256 . S
O198 Cd199 2.300 . S
O198 C205 1.275 . S
Cd199 O198 2.300 . S
Cd199 O207 2.381 . S
Cd199 O208 2.378 . S
O200 Cd201 2.385 . S
O200 C205 1.255 . S
Cd201 O200 2.385 . S
Cd201 O202 2.317 . S
O202 Cd201 2.317 . S
O202 C203 1.232 . S
C203 O202 1.232 . S
C203 O204 1.218 . S
O204 C203 1.218 . S
C205 O198 1.275 . S
C205 O200 1.255 . S
C206 O207 1.258 . S
C206 O208 1.256 . S
O207 Cd199 2.381 . S
O207 C206 1.258 . S
O208 Cd199 2.378 . S
O208 C206 1.256 . S
O209 Cd210 2.300 . S
O209 C216 1.275 . S
Cd210 O209 2.300 . S
Cd210 O218 2.381 . S
Cd210 O219 2.378 . S
O211 Cd212 2.385 . S
O211 C216 1.255 . S
Cd212 O211 2.385 . S
Cd212 O213 2.317 . S
O213 Cd212 2.317 . S
O213 C214 1.232 . S
C214 O213 1.232 . S
C214 O215 1.218 . S
O215 C214 1.218 . S
C216 O209 1.275 . S
C216 O211 1.255 . S
C217 O218 1.258 . S
C217 O219 1.256 . S
O218 Cd210 2.381 . S
O218 C217 1.258 . S
O219 Cd210 2.378 . S
O219 C217 1.256 . S
O220 Cd221 2.300 . S
O220 C227 1.275 . S
Cd221 O220 2.300 . S
Cd221 O229 2.381 . S
Cd221 O230 2.378 . S
O222 Cd223 2.385 . S
O222 C227 1.255 . S
Cd223 O222 2.385 . S
Cd223 O224 2.317 . S
O224 Cd223 2.317 . S
O224 C225 1.232 . S
C225 O224 1.232 . S
C225 O226 1.218 . S
O226 C225 1.218 . S
C227 O220 1.275 . S
C227 O222 1.255 . S
C228 O229 1.258 . S
C228 O230 1.256 . S
O229 Cd221 2.381 . S
O229 C228 1.258 . S
O230 Cd221 2.378 . S
O230 C228 1.256 . S
O231 Cd232 2.300 . S
O231 C238 1.275 . S
Cd232 O231 2.300 . S
Cd232 O240 2.381 . S
Cd232 O241 2.378 . S
O233 Cd234 2.385 . S
O233 C238 1.255 . S
Cd234 O233 2.385 . S
Cd234 O235 2.317 . S
O235 Cd234 2.317 . S
O235 C236 1.232 . S
C236 O235 1.232 . S
C236 O237 1.218 . S
O237 C236 1.218 . S
C238 O231 1.275 . S
C238 O233 1.255 . S
C239 O240 1.258 . S
C239 O241 1.256 . S
O240 Cd232 2.381 . S
O240 C239 1.258 . S
O241 Cd232 2.378 . S
O241 C239 1.256 . S
O242 Cd243 2.300 . S
O242 C249 1.275 . S
Cd243 O242 2.300 . S
Cd243 O251 2.381 . S
Cd243 O252 2.378 . S
O244 Cd245 2.385 . S
O244 C249 1.255 . S
Cd245 O244 2.385 . S
Cd245 O246 2.317 . S
O246 Cd245 2.317 . S
O246 C247 1.232 . S
C247 O246 1.232 . S
C247 O248 1.218 . S
O248 C247 1.218 . S
C249 O242 1.275 . S
C249 O244 1.255 . S
C250 O251 1.258 . S
C250 O252 1.256 . S
O251 Cd243 2.381 . S
O251 C250 1.258 . S
O252 Cd243 2.378 . S
O252 C250 1.256 . S
O253 Cd254 2.300 . S
O253 C260 1.275 . S
Cd254 O253 2.300 . S
Cd254 O262 2.381 . S
Cd254 O263 2.378 . S
O255 Cd256 2.385 . S
O255 C260 1.255 . S
Cd256 O255 2.385 . S
Cd256 O257 2.317 . S
O257 Cd256 2.317 . S
O257 C258 1.232 . S
C258 O257 1.232 . S
C258 O259 1.218 . S
O259 C258 1.218 . S
C260 O253 1.275 . S
C260 O255 1.255 . S
C261 O262 1.258 . S
C261 O263 1.256 . S
O262 Cd254 2.381 . S
O262 C261 1.258 . S
O263 Cd254 2.378 . S
O263 C261 1.256 . S
O264 Cd265 2.300 . S
O264 C271 1.275 . S
Cd265 O264 2.300 . S
Cd265 O273 2.381 . S
Cd265 O274 2.378 . S
O266 Cd267 2.385 . S
O266 C271 1.255 . S
Cd267 O266 2.385 . S
Cd267 O268 2.317 . S
O268 Cd267 2.317 . S
O268 C269 1.232 . S
C269 O268 1.232 . S
C269 O270 1.218 . S
O270 C269 1.218 . S
C271 O264 1.275 . S
C271 O266 1.255 . S
C272 O273 1.258 . S
C272 O274 1.256 . S
O273 Cd265 2.381 . S
O273 C272 1.258 . S
O274 Cd265 2.378 . S
O274 C272 1.256 . S
O275 Cd276 2.300 . S
O275 C282 1.275 . S
Cd276 O275 2.300 . S
Cd276 O284 2.381 . S
Cd276 O285 2.378 . S
O277 Cd278 2.385 . S
O277 C282 1.255 . S
Cd278 O277 2.385 . S
Cd278 O279 2.317 . S
O279 Cd278 2.317 . S
O279 C280 1.232 . S
C280 O279 1.232 . S
C280 O281 1.218 . S
O281 C280 1.218 . S
C282 O275 1.275 . S
C282 O277 1.255 . S
C283 O284 1.258 . S
C283 O285 1.256 . S
O284 Cd276 2.381 . S
O284 C283 1.258 . S
O285 Cd276 2.378 . S
O285 C283 1.256 . S
O286 Cd287 2.300 . S
O286 C293 1.275 . S
Cd287 O286 2.300 . S
Cd287 O295 2.381 . S
Cd287 O296 2.378 . S
O288 Cd289 2.385 . S
O288 C293 1.255 . S
Cd289 O288 2.385 . S
Cd289 O290 2.317 . S
O290 Cd289 2.317 . S
O290 C291 1.232 . S
C291 O290 1.232 . S
C291 O292 1.218 . S
O292 C291 1.218 . S
C293 O286 1.275 . S
C293 O288 1.255 . S
C294 O295 1.258 . S
C294 O296 1.256 . S
O295 Cd287 2.381 . S
O295 C294 1.258 . S
O296 Cd287 2.378 . S
O296 C294 1.256 . S
O297 Cd298 2.300 . S
O297 C304 1.275 . S
Cd298 O297 2.300 . S
Cd298 O306 2.381 . S
Cd298 O307 2.378 . S
O299 Cd300 2.385 . S
O299 C304 1.255 . S
Cd300 O299 2.385 . S
Cd300 O301 2.317 . S
O301 Cd300 2.317 . S
O301 C302 1.232 . S
C302 O301 1.232 . S
C302 O303 1.218 . S
O303 C302 1.218 . S
C304 O297 1.275 . S
C304 O299 1.255 . S
C305 O306 1.258 . S
C305 O307 1.256 . S
O306 Cd298 2.381 . S
O306 C305 1.258 . S
O307 Cd298 2.378 . S
O307 C305 1.256 . S
O308 Cd309 2.300 . S
O308 C315 1.275 . S
Cd309 O308 2.300 . S
Cd309 O317 2.381 . S
Cd309 O318 2.378 . S
O310 Cd311 2.385 . S
O310 C315 1.255 . S
Cd311 O310 2.385 . S
Cd311 O312 2.317 . S
O312 Cd311 2.317 . S
O312 C313 1.232 . S
C313 O312 1.232 . S
C313 O314 1.218 . S
O314 C313 1.218 . S
C315 O308 1.275 . S
C315 O310 1.255 . S
C316 O317 1.258 . S
C316 O318 1.256 . S
O317 Cd309 2.381 . S
O317 C316 1.258 . S
O318 Cd309 2.378 . S
O318 C316 1.256 . S
O319 Cd320 2.300 . S
O319 C326 1.275 . S
Cd320 O319 2.300 . S
Cd320 O328 2.381 . S
Cd320 O329 2.378 . S
O321 Cd322 2.385 . S
O321 C326 1.255 . S
Cd322 O321 2.385 . S
Cd322 O323 2.317 . S
O323 Cd322 2.317 . S
O323 C324 1.232 . S
C324 O323 1.232 . S
C324 O325 1.218 . S
O325 C324 1.218 . S
C326 O319 1.275 . S
C326 O321 1.255 . S
C327 O328 1.258 . S
C327 O329 1.256 . S
O328 Cd320 2.381 . S
O328 C327 1.258 . S
O329 Cd320 2.378 . S
O329 C327 1.256 . S
O330 Cd331 2.300 . S
O330 C337 1.275 . S
Cd331 O330 2.300 . S
Cd331 O339 2.381 . S
Cd331 O340 2.378 . S
O332 Cd333 2.385 . S
O332 C337 1.255 . S
Cd333 O332 2.385 . S
Cd333 O334 2.317 . S
O334 Cd333 2.317 . S
O334 C335 1.232 . S
C335 O334 1.232 . S
C335 O336 1.218 . S
O336 C335 1.218 . S
C337 O330 1.275 . S
C337 O332 1.255 . S
C338 O339 1.258 . S
C338 O340 1.256 . S
O339 Cd331 2.381 . S
O339 C338 1.258 . S
O340 Cd331 2.378 . S
O340 C338 1.256 . S
O341 Cd342 2.300 . S
O341 C348 1.275 . S
Cd342 O341 2.300 . S
Cd342 O350 2.381 . S
Cd342 O351 2.378 . S
O343 Cd344 2.385 . S
O343 C348 1.255 . S
Cd344 O343 2.385 . S
Cd344 O345 2.317 . S
O345 Cd344 2.317 . S
O345 C346 1.232 . S
C346 O345 1.232 . S
C346 O347 1.218 . S
O347 C346 1.218 . S
C348 O341 1.275 . S
C348 O343 1.255 . S
C349 O350 1.258 . S
C349 O351 1.256 . S
O350 Cd342 2.381 . S
O350 C349 1.258 . S
O351 Cd342 2.378 . S
O351 C349 1.256 . S
H352 C360 0.930 . S
H353 C363 0.930 . S
H354 C365 0.930 . S
H355 C366 0.970 . S
H356 C366 0.970 . S
H357 C368 0.930 . S
H358 C370 0.930 . S
H359 C372 0.930 . S
C360 H352 0.930 . S
C360 C361 1.382 1_554 S
C360 C362 1.426 . S
C361 C360 1.382 1_556 S
C361 C365 1.389 . S
C362 C360 1.426 . S
C362 C363 1.375 . S
C362 C366 1.532 . S
C363 H353 0.930 . S
C363 C362 1.375 . S
C363 C364 1.416 1_554 S
C364 C363 1.416 1_556 S
C364 C365 1.371 . S
C365 H354 0.930 . S
C365 C361 1.389 . S
C365 C364 1.371 . S
C366 H355 0.970 . S
C366 H356 0.970 . S
C366 C362 1.532 . S
C366 C367 1.499 . S
C367 C366 1.499 . S
C367 C368 1.370 . S
C367 C372 1.415 . S
C368 H357 0.930 . S
C368 C367 1.370 . S
C368 C369 1.407 . S
C369 C368 1.407 . S
C369 C370 1.365 . S
C370 H358 0.930 . S
C370 C369 1.365 . S
C370 C371 1.393 . S
C371 C370 1.393 . S
C371 C372 1.387 . S
C372 H359 0.930 . S
C372 C367 1.415 . S
C372 C371 1.387 . S
H373 C381 0.930 . S
H374 C384 0.930 . S
H375 C386 0.930 . S
H376 C387 0.970 . S
H377 C387 0.970 1_554 S
H378 C389 0.930 . S
H379 C391 0.930 . S
H380 C393 0.930 . S
C381 H373 0.930 . S
C381 C382 1.382 . S
C381 C383 1.426 . S
C382 C381 1.382 . S
C382 C386 1.389 . S
C383 C381 1.426 . S
C383 C384 1.375 . S
C383 C387 1.532 1_554 S
C384 H374 0.930 . S
C384 C383 1.375 . S
C384 C385 1.416 . S
C385 C384 1.416 . S
C385 C386 1.371 . S
C386 H375 0.930 . S
C386 C382 1.389 . S
C386 C385 1.371 . S
C387 H376 0.970 . S
C387 H377 0.970 1_556 S
C387 C383 1.532 1_556 S
C387 C388 1.499 . S
C388 C387 1.499 . S
C388 C389 1.370 . S
C388 C393 1.415 . S
C389 H378 0.930 . S
C389 C388 1.370 . S
C389 C390 1.407 . S
C390 C389 1.407 . S
C390 C391 1.365 . S
C391 H379 0.930 . S
C391 C390 1.365 . S
C391 C392 1.393 . S
C392 C391 1.393 . S
C392 C393 1.387 . S
C393 H380 0.930 . S
C393 C388 1.415 . S
C393 C392 1.387 . S
H394 C402 0.930 . S
H395 C405 0.930 . S
H396 C407 0.930 . S
H397 C408 0.970 . S
H398 C408 0.970 . S
H399 C410 0.930 . S
H400 C412 0.930 . S
H401 C414 0.930 . S
C402 H394 0.930 . S
C402 C403 1.382 . S
C402 C404 1.426 . S
C403 C402 1.382 . S
C403 C407 1.389 . S
C404 C402 1.426 . S
C404 C405 1.375 . S
C404 C408 1.532 . S
C405 H395 0.930 . S
C405 C404 1.375 . S
C405 C406 1.416 . S
C406 C405 1.416 . S
C406 C407 1.371 . S
C407 H396 0.930 . S
C407 C403 1.389 . S
C407 C406 1.371 . S
C408 H397 0.970 . S
C408 H398 0.970 . S
C408 C404 1.532 . S
C408 C409 1.499 . S
C409 C408 1.499 . S
C409 C410 1.370 . S
C409 C414 1.415 . S
C410 H399 0.930 . S
C410 C409 1.370 . S
C410 C411 1.407 1_554 S
C411 C410 1.407 1_556 S
C411 C412 1.365 . S
C412 H400 0.930 . S
C412 C411 1.365 . S
C412 C413 1.393 . S
C413 C412 1.393 . S
C413 C414 1.387 1_556 S
C414 H401 0.930 . S
C414 C409 1.415 . S
C414 C413 1.387 1_554 S
H415 C423 0.930 . S
H416 C426 0.930 . S
H417 C428 0.930 . S
H418 C429 0.970 . S
H419 C429 0.970 . S
H420 C431 0.930 . S
H421 C433 0.930 . S
H422 C435 0.930 . S
C423 H415 0.930 . S
C423 C424 1.382 . S
C423 C425 1.426 . S
C424 C423 1.382 . S
C424 C428 1.389 . S
C425 C423 1.426 . S
C425 C426 1.375 . S
C425 C429 1.532 1_554 S
C426 H416 0.930 . S
C426 C425 1.375 . S
C426 C427 1.416 . S
C427 C426 1.416 . S
C427 C428 1.371 . S
C428 H417 0.930 . S
C428 C424 1.389 . S
C428 C427 1.371 . S
C429 H418 0.970 . S
C429 H419 0.970 . S
C429 C425 1.532 1_556 S
C429 C430 1.499 . S
C430 C429 1.499 . S
C430 C431 1.370 . S
C430 C435 1.415 . S
C431 H420 0.930 . S
C431 C430 1.370 . S
C431 C432 1.407 . S
C432 C431 1.407 . S
C432 C433 1.365 . S
C433 H421 0.930 . S
C433 C432 1.365 . S
C433 C434 1.393 . S
C434 C433 1.393 . S
C434 C435 1.387 . S
C435 H422 0.930 . S
C435 C430 1.415 . S
C435 C434 1.387 . S
H436 C444 0.930 . S
H437 C447 0.930 . S
H438 C449 0.930 . S
H439 C450 0.970 1_655 S
H440 C450 0.970 . S
H441 C452 0.930 . S
H442 C454 0.930 . S
H443 C456 0.930 . S
C444 H436 0.930 . S
C444 C445 1.382 . S
C444 C446 1.426 . S
C445 C444 1.382 . S
C445 C449 1.389 . S
C446 C444 1.426 . S
C446 C447 1.375 . S
C446 C450 1.532 . S
C447 H437 0.930 . S
C447 C446 1.375 . S
C447 C448 1.416 . S
C448 C447 1.416 . S
C448 C449 1.371 . S
C449 H438 0.930 . S
C449 C445 1.389 . S
C449 C448 1.371 . S
C450 H439 0.970 1_455 S
C450 H440 0.970 . S
C450 C446 1.532 . S
C450 C451 1.499 1_455 S
C451 C450 1.499 1_655 S
C451 C452 1.370 . S
C451 C456 1.415 . S
C452 H441 0.930 . S
C452 C451 1.370 . S
C452 C453 1.407 . S
C453 C452 1.407 . S
C453 C454 1.365 . S
C454 H442 0.930 . S
C454 C453 1.365 . S
C454 C455 1.393 . S
C455 C454 1.393 . S
C455 C456 1.387 . S
C456 H443 0.930 . S
C456 C451 1.415 . S
C456 C455 1.387 . S
H457 C465 0.930 . S
H458 C468 0.930 . S
H459 C470 0.930 . S
H460 C471 0.970 . S
H461 C471 0.970 . S
H462 C473 0.930 . S
H463 C475 0.930 . S
H464 C477 0.930 . S
C465 H457 0.930 . S
C465 C466 1.382 . S
C465 C467 1.426 . S
C466 C465 1.382 . S
C466 C470 1.389 . S
C467 C465 1.426 . S
C467 C468 1.375 . S
C467 C471 1.532 . S
C468 H458 0.930 . S
C468 C467 1.375 . S
C468 C469 1.416 . S
C469 C468 1.416 . S
C469 C470 1.371 . S
C470 H459 0.930 . S
C470 C466 1.389 . S
C470 C469 1.371 . S
C471 H460 0.970 . S
C471 H461 0.970 . S
C471 C467 1.532 . S
C471 C472 1.499 1_545 S
C472 C471 1.499 1_565 S
C472 C473 1.370 . S
C472 C477 1.415 . S
C473 H462 0.930 . S
C473 C472 1.370 . S
C473 C474 1.407 . S
C474 C473 1.407 . S
C474 C475 1.365 . S
C475 H463 0.930 . S
C475 C474 1.365 . S
C475 C476 1.393 . S
C476 C475 1.393 . S
C476 C477 1.387 . S
C477 H464 0.930 . S
C477 C472 1.415 . S
C477 C476 1.387 . S
H478 C486 0.930 . S
H479 C489 0.930 . S
H480 C491 0.930 . S
H481 C492 0.970 . S
H482 C492 0.970 . S
H483 C494 0.930 . S
H484 C496 0.930 . S
H485 C498 0.930 . S
C486 H478 0.930 . S
C486 C487 1.382 1_455 S
C486 C488 1.426 . S
C487 C486 1.382 1_655 S
C487 C491 1.389 . S
C488 C486 1.426 . S
C488 C489 1.375 . S
C488 C492 1.532 . S
C489 H479 0.930 . S
C489 C488 1.375 . S
C489 C490 1.416 . S
C490 C489 1.416 . S
C490 C491 1.371 1_455 S
C491 H480 0.930 . S
C491 C487 1.389 . S
C491 C490 1.371 1_655 S
C492 H481 0.970 . S
C492 H482 0.970 . S
C492 C488 1.532 . S
C492 C493 1.499 . S
C493 C492 1.499 . S
C493 C494 1.370 . S
C493 C498 1.415 . S
C494 H483 0.930 . S
C494 C493 1.370 . S
C494 C495 1.407 . S
C495 C494 1.407 . S
C495 C496 1.365 . S
C496 H484 0.930 . S
C496 C495 1.365 . S
C496 C497 1.393 . S
C497 C496 1.393 . S
C497 C498 1.387 . S
C498 H485 0.930 . S
C498 C493 1.415 . S
C498 C497 1.387 . S
H499 C507 0.930 . S
H500 C510 0.928 1_545 S
H501 C512 0.930 . S
H502 C513 0.970 . S
H503 C513 0.970 . S
H504 C515 0.930 . S
H505 C517 0.930 . S
H506 C519 0.930 . S
C507 H499 0.930 . S
C507 C508 1.382 . S
C507 C509 1.426 . S
C508 C507 1.382 . S
C508 C512 1.389 . S
C509 C507 1.426 . S
C509 C510 1.375 . S
C509 C513 1.532 1_565 S
C510 H500 0.928 1_565 S
C510 C509 1.375 . S
C510 C511 1.416 . S
C511 C510 1.416 . S
C511 C512 1.371 . S
C512 H501 0.930 . S
C512 C508 1.389 . S
C512 C511 1.371 . S
C513 H502 0.970 . S
C513 H503 0.970 . S
C513 C509 1.532 1_545 S
C513 C514 1.499 . S
C514 C513 1.499 . S
C514 C515 1.370 . S
C514 C519 1.415 . S
C515 H504 0.930 . S
C515 C514 1.370 . S
C515 C516 1.407 . S
C516 C515 1.407 . S
C516 C517 1.365 . S
C517 H505 0.930 . S
C517 C516 1.365 . S
C517 C518 1.393 . S
C518 C517 1.393 . S
C518 C519 1.387 . S
C519 H506 0.930 . S
C519 C514 1.415 . S
C519 C518 1.387 . S
H520 C528 0.930 . S
H521 C531 0.930 . S
H522 C533 0.930 . S
H523 C534 0.970 . S
H524 C534 0.970 1_655 S
H525 C536 0.930 . S
H526 C538 0.930 . S
H527 C540 0.930 . S
C528 H520 0.930 . S
C528 C529 1.382 . S
C528 C530 1.426 . S
C529 C528 1.382 . S
C529 C533 1.389 . S
C530 C528 1.426 . S
C530 C531 1.375 . S
C530 C534 1.532 1_655 S
C531 H521 0.930 . S
C531 C530 1.375 . S
C531 C532 1.416 . S
C532 C531 1.416 . S
C532 C533 1.371 . S
C533 H522 0.930 . S
C533 C529 1.389 . S
C533 C532 1.371 . S
C534 H523 0.970 . S
C534 H524 0.970 1_455 S
C534 C530 1.532 1_455 S
C534 C535 1.499 . S
C535 C534 1.499 . S
C535 C536 1.370 . S
C535 C540 1.415 . S
C536 H525 0.930 . S
C536 C535 1.370 . S
C536 C537 1.407 . S
C537 C536 1.407 . S
C537 C538 1.365 . S
C538 H526 0.930 . S
C538 C537 1.365 . S
C538 C539 1.393 . S
C539 C538 1.393 . S
C539 C540 1.387 . S
C540 H527 0.930 . S
C540 C535 1.415 . S
C540 C539 1.387 . S
H541 C549 0.930 . S
H542 C552 0.930 . S
H543 C554 0.930 . S
H544 C555 0.970 . S
H545 C555 0.970 . S
H546 C557 0.930 . S
H547 C559 0.930 . S
H548 C561 0.930 . S
C549 H541 0.930 . S
C549 C550 1.382 . S
C549 C551 1.426 . S
C550 C549 1.382 . S
C550 C554 1.389 . S
C551 C549 1.426 . S
C551 C552 1.375 . S
C551 C555 1.532 1_565 S
C552 H542 0.930 . S
C552 C551 1.375 . S
C552 C553 1.416 . S
C553 C552 1.416 . S
C553 C554 1.371 . S
C554 H543 0.930 . S
C554 C550 1.389 . S
C554 C553 1.371 . S
C555 H544 0.970 . S
C555 H545 0.970 . S
C555 C551 1.532 1_545 S
C555 C556 1.499 . S
C556 C555 1.499 . S
C556 C557 1.370 . S
C556 C561 1.415 . S
C557 H546 0.930 . S
C557 C556 1.370 . S
C557 C558 1.407 . S
C558 C557 1.407 . S
C558 C559 1.365 . S
C559 H547 0.930 . S
C559 C558 1.365 . S
C559 C560 1.393 . S
C560 C559 1.393 . S
C560 C561 1.387 . S
C561 H548 0.930 . S
C561 C556 1.415 . S
C561 C560 1.387 . S
H562 C570 0.930 . S
H563 C573 0.930 . S
H564 C575 0.930 . S
H565 C576 0.970 . S
H566 C576 0.970 . S
H567 C578 0.930 . S
H568 C580 0.930 . S
H569 C582 0.930 . S
C570 H562 0.930 . S
C570 C571 1.382 . S
C570 C572 1.426 . S
C571 C570 1.382 . S
C571 C575 1.389 1_455 S
C572 C570 1.426 . S
C572 C573 1.375 . S
C572 C576 1.532 . S
C573 H563 0.930 . S
C573 C572 1.375 . S
C573 C574 1.416 1_455 S
C574 C573 1.416 1_655 S
C574 C575 1.371 . S
C575 H564 0.930 . S
C575 C571 1.389 1_655 S
C575 C574 1.371 . S
C576 H565 0.970 . S
C576 H566 0.970 . S
C576 C572 1.532 . S
C576 C577 1.499 . S
C577 C576 1.499 . S
C577 C578 1.370 . S
C577 C582 1.415 . S
C578 H567 0.930 . S
C578 C577 1.370 . S
C578 C579 1.407 . S
C579 C578 1.407 . S
C579 C580 1.365 . S
C580 H568 0.930 . S
C580 C579 1.365 . S
C580 C581 1.393 . S
C581 C580 1.393 . S
C581 C582 1.387 . S
C582 H569 0.930 . S
C582 C577 1.415 . S
C582 C581 1.387 . S
H583 C591 0.930 . S
H584 C594 0.930 1_545 S
H585 C596 0.930 . S
H586 C597 0.970 . S
H587 C597 0.970 . S
H588 C599 0.930 . S
H589 C601 0.930 . S
H590 C603 0.930 . S
C591 H583 0.930 . S
C591 C592 1.382 . S
C591 C593 1.426 . S
C592 C591 1.382 . S
C592 C596 1.389 . S
C593 C591 1.426 . S
C593 C594 1.375 . S
C593 C597 1.532 1_565 S
C594 H584 0.930 1_565 S
C594 C593 1.375 . S
C594 C595 1.416 . S
C595 C594 1.416 . S
C595 C596 1.371 . S
C596 H585 0.930 . S
C596 C592 1.389 . S
C596 C595 1.371 . S
C597 H586 0.970 . S
C597 H587 0.970 . S
C597 C593 1.532 1_545 S
C597 C598 1.499 . S
C598 C597 1.499 . S
C598 C599 1.370 . S
C598 C603 1.415 . S
C599 H588 0.930 . S
C599 C598 1.370 . S
C599 C600 1.407 . S
C600 C599 1.407 . S
C600 C601 1.365 . S
C601 H589 0.930 . S
C601 C600 1.365 . S
C601 C602 1.393 . S
C602 C601 1.393 . S
C602 C603 1.387 . S
C603 H590 0.930 . S
C603 C598 1.415 . S
C603 C602 1.387 . S
H604 C612 0.930 . S
H605 C615 0.930 . S
H606 C617 0.930 . S
H607 C618 0.970 . S
H608 C618 0.970 . S
H609 C620 0.930 . S
H610 C622 0.930 . S
H611 C624 0.930 . S
C612 H604 0.930 . S
C612 C613 1.382 . S
C612 C614 1.426 . S
C613 C612 1.382 . S
C613 C617 1.389 . S
C614 C612 1.426 . S
C614 C615 1.375 . S
C614 C618 1.532 . S
C615 H605 0.930 . S
C615 C614 1.375 . S
C615 C616 1.416 . S
C616 C615 1.416 . S
C616 C617 1.371 . S
C617 H606 0.930 . S
C617 C613 1.389 . S
C617 C616 1.371 . S
C618 H607 0.970 . S
C618 H608 0.970 . S
C618 C614 1.532 . S
C618 C619 1.499 . S
C619 C618 1.499 . S
C619 C620 1.370 . S
C619 C624 1.415 . S
C620 H609 0.930 . S
C620 C619 1.370 . S
C620 C621 1.407 . S
C621 C620 1.407 . S
C621 C622 1.365 . S
C622 H610 0.930 . S
C622 C621 1.365 . S
C622 C623 1.393 . S
C623 C622 1.393 . S
C623 C624 1.387 . S
C624 H611 0.930 . S
C624 C619 1.415 . S
C624 C623 1.387 . S
H625 C633 0.930 . S
H626 C636 0.930 . S
H627 C638 0.930 . S
H628 C639 0.970 . S
H629 C639 0.970 . S
H630 C641 0.930 . S
H631 C643 0.930 . S
H632 C645 0.930 . S
C633 H625 0.930 . S
C633 C634 1.382 . S
C633 C635 1.426 . S
C634 C633 1.382 . S
C634 C638 1.389 . S
C635 C633 1.426 . S
C635 C636 1.375 . S
C635 C639 1.532 . S
C636 H626 0.930 . S
C636 C635 1.375 . S
C636 C637 1.416 . S
C637 C636 1.416 . S
C637 C638 1.371 . S
C638 H627 0.930 . S
C638 C634 1.389 . S
C638 C637 1.371 . S
C639 H628 0.970 . S
C639 H629 0.970 . S
C639 C635 1.532 . S
C639 C640 1.499 . S
C640 C639 1.499 . S
C640 C641 1.370 . S
C640 C645 1.415 . S
C641 H630 0.930 . S
C641 C640 1.370 . S
C641 C642 1.407 . S
C642 C641 1.407 . S
C642 C643 1.365 . S
C643 H631 0.930 . S
C643 C642 1.365 . S
C643 C644 1.393 . S
C644 C643 1.393 . S
C644 C645 1.387 . S
C645 H632 0.930 . S
C645 C640 1.415 . S
C645 C644 1.387 . S
H646 C654 0.930 . S
H647 C657 0.930 . S
H648 C659 0.930 . S
H649 C660 0.970 . S
H650 C660 0.970 . S
H651 C662 0.930 . S
H652 C664 0.930 . S
H653 C666 0.930 . S
C654 H646 0.930 . S
C654 C655 1.382 . S
C654 C656 1.426 . S
C655 C654 1.382 . S
C655 C659 1.389 . S
C656 C654 1.426 . S
C656 C657 1.375 . S
C656 C660 1.532 . S
C657 H647 0.930 . S
C657 C656 1.375 . S
C657 C658 1.416 . S
C658 C657 1.416 . S
C658 C659 1.371 . S
C659 H648 0.930 . S
C659 C655 1.389 . S
C659 C658 1.371 . S
C660 H649 0.970 . S
C660 H650 0.970 . S
C660 C656 1.532 . S
C660 C661 1.499 . S
C661 C660 1.499 . S
C661 C662 1.370 . S
C661 C666 1.415 . S
C662 H651 0.930 . S
C662 C661 1.370 . S
C662 C663 1.407 . S
C663 C662 1.407 . S
C663 C664 1.365 . S
C664 H652 0.930 . S
C664 C663 1.365 . S
C664 C665 1.393 . S
C665 C664 1.393 . S
C665 C666 1.387 . S
C666 H653 0.930 . S
C666 C661 1.415 . S
C666 C665 1.387 . S
H667 C675 0.930 . S
H668 C678 0.930 . S
H669 C680 0.930 . S
H670 C681 0.970 . S
H671 C681 0.970 . S
H672 C683 0.930 . S
H673 C685 0.930 . S
H674 C687 0.930 . S
C675 H667 0.930 . S
C675 C676 1.382 . S
C675 C677 1.426 . S
C676 C675 1.382 . S
C676 C680 1.389 . S
C677 C675 1.426 . S
C677 C678 1.375 . S
C677 C681 1.532 . S
C678 H668 0.930 . S
C678 C677 1.375 . S
C678 C679 1.416 . S
C679 C678 1.416 . S
C679 C680 1.371 . S
C680 H669 0.930 . S
C680 C676 1.389 . S
C680 C679 1.371 . S
C681 H670 0.970 . S
C681 H671 0.970 . S
C681 C677 1.532 . S
C681 C682 1.499 . S
C682 C681 1.499 . S
C682 C683 1.370 . S
C682 C687 1.415 . S
C683 H672 0.930 . S
C683 C682 1.370 . S
C683 C684 1.407 . S
C684 C683 1.407 . S
C684 C685 1.365 . S
C685 H673 0.930 . S
C685 C684 1.365 . S
C685 C686 1.393 . S
C686 C685 1.393 . S
C686 C687 1.387 . S
C687 H674 0.930 . S
C687 C682 1.415 . S
C687 C686 1.387 . S
H688 C696 0.930 . S
H689 C699 0.930 . S
H690 C701 0.930 . S
H691 C702 0.970 . S
H692 C702 0.970 . S
H693 C704 0.930 . S
H694 C706 0.930 . S
H695 C708 0.930 . S
C696 H688 0.930 . S
C696 C697 1.382 . S
C696 C698 1.426 . S
C697 C696 1.382 . S
C697 C701 1.389 . S
C698 C696 1.426 . S
C698 C699 1.375 . S
C698 C702 1.532 . S
C699 H689 0.930 . S
C699 C698 1.375 . S
C699 C700 1.416 . S
C700 C699 1.416 . S
C700 C701 1.371 . S
C701 H690 0.930 . S
C701 C697 1.389 . S
C701 C700 1.371 . S
C702 H691 0.970 . S
C702 H692 0.970 . S
C702 C698 1.532 . S
C702 C703 1.499 . S
C703 C702 1.499 . S
C703 C704 1.370 . S
C703 C708 1.415 . S
C704 H693 0.930 . S
C704 C703 1.370 . S
C704 C705 1.407 . S
C705 C704 1.407 . S
C705 C706 1.365 . S
C706 H694 0.930 . S
C706 C705 1.365 . S
C706 C707 1.393 . S
C707 C706 1.393 . S
C707 C708 1.387 . S
C708 H695 0.930 . S
C708 C703 1.415 . S
C708 C707 1.387 . S
H709 C717 0.930 . S
H710 C720 0.930 . S
H711 C722 0.930 . S
H712 C723 0.970 . S
H713 C723 0.970 . S
H714 C725 0.930 . S
H715 C727 0.930 . S
H716 C729 0.930 . S
C717 H709 0.930 . S
C717 C718 1.382 . S
C717 C719 1.426 . S
C718 C717 1.382 . S
C718 C722 1.389 . S
C719 C717 1.426 . S
C719 C720 1.375 . S
C719 C723 1.532 . S
C720 H710 0.930 . S
C720 C719 1.375 . S
C720 C721 1.416 . S
C721 C720 1.416 . S
C721 C722 1.371 . S
C722 H711 0.930 . S
C722 C718 1.389 . S
C722 C721 1.371 . S
C723 H712 0.970 . S
C723 H713 0.970 . S
C723 C719 1.532 . S
C723 C724 1.499 . S
C724 C723 1.499 . S
C724 C725 1.370 . S
C724 C729 1.415 . S
C725 H714 0.930 . S
C725 C724 1.370 . S
C725 C726 1.407 . S
C726 C725 1.407 . S
C726 C727 1.365 . S
C727 H715 0.930 . S
C727 C726 1.365 . S
C727 C728 1.393 . S
C728 C727 1.393 . S
C728 C729 1.387 . S
C729 H716 0.930 . S
C729 C724 1.415 . S
C729 C728 1.387 . S
H730 C738 0.930 . S
H731 C741 0.930 . S
H732 C743 0.930 . S
H733 C744 0.970 . S
H734 C744 0.970 . S
H735 C746 0.930 . S
H736 C748 0.930 . S
H737 C750 0.930 . S
C738 H730 0.930 . S
C738 C739 1.382 . S
C738 C740 1.426 . S
C739 C738 1.382 . S
C739 C743 1.389 . S
C740 C738 1.426 . S
C740 C741 1.375 . S
C740 C744 1.532 . S
C741 H731 0.930 . S
C741 C740 1.375 . S
C741 C742 1.416 . S
C742 C741 1.416 . S
C742 C743 1.371 . S
C743 H732 0.930 . S
C743 C739 1.389 . S
C743 C742 1.371 . S
C744 H733 0.970 . S
C744 H734 0.970 . S
C744 C740 1.532 . S
C744 C745 1.499 . S
C745 C744 1.499 . S
C745 C746 1.370 . S
C745 C750 1.415 . S
C746 H735 0.930 . S
C746 C745 1.370 . S
C746 C747 1.407 . S
C747 C746 1.407 . S
C747 C748 1.365 . S
C748 H736 0.930 . S
C748 C747 1.365 . S
C748 C749 1.393 . S
C749 C748 1.393 . S
C749 C750 1.387 . S
C750 H737 0.930 . S
C750 C745 1.415 . S
C750 C749 1.387 . S
H751 C759 0.930 . S
H752 C762 0.930 . S
H753 C764 0.930 . S
H754 C765 0.970 . S
H755 C765 0.970 . S
H756 C767 0.930 . S
H757 C769 0.930 . S
H758 C771 0.930 . S
C759 H751 0.930 . S
C759 C760 1.382 . S
C759 C761 1.426 . S
C760 C759 1.382 . S
C760 C764 1.389 . S
C761 C759 1.426 . S
C761 C762 1.375 . S
C761 C765 1.532 . S
C762 H752 0.930 . S
C762 C761 1.375 . S
C762 C763 1.416 . S
C763 C762 1.416 . S
C763 C764 1.371 . S
C764 H753 0.930 . S
C764 C760 1.389 . S
C764 C763 1.371 . S
C765 H754 0.970 . S
C765 H755 0.970 . S
C765 C761 1.532 . S
C765 C766 1.499 . S
C766 C765 1.499 . S
C766 C767 1.370 . S
C766 C771 1.415 . S
C767 H756 0.930 . S
C767 C766 1.370 . S
C767 C768 1.407 . S
C768 C767 1.407 . S
C768 C769 1.365 . S
C769 H757 0.930 . S
C769 C768 1.365 . S
C769 C770 1.393 . S
C770 C769 1.393 . S
C770 C771 1.387 . S
C771 H758 0.930 . S
C771 C766 1.415 . S
C771 C770 1.387 . S
H772 C780 0.930 . S
H773 C783 0.930 . S
H774 C785 0.930 . S
H775 C786 0.970 . S
H776 C786 0.970 . S
H777 C788 0.930 . S
H778 C790 0.930 . S
H779 C792 0.930 . S
C780 H772 0.930 . S
C780 C781 1.382 . S
C780 C782 1.426 . S
C781 C780 1.382 . S
C781 C785 1.389 . S
C782 C780 1.426 . S
C782 C783 1.375 . S
C782 C786 1.532 . S
C783 H773 0.930 . S
C783 C782 1.375 . S
C783 C784 1.416 . S
C784 C783 1.416 . S
C784 C785 1.371 . S
C785 H774 0.930 . S
C785 C781 1.389 . S
C785 C784 1.371 . S
C786 H775 0.970 . S
C786 H776 0.970 . S
C786 C782 1.532 . S
C786 C787 1.499 . S
C787 C786 1.499 . S
C787 C788 1.370 . S
C787 C792 1.415 . S
C788 H777 0.930 . S
C788 C787 1.370 . S
C788 C789 1.407 . S
C789 C788 1.407 . S
C789 C790 1.365 . S
C790 H778 0.930 . S
C790 C789 1.365 . S
C790 C791 1.393 . S
C791 C790 1.393 . S
C791 C792 1.387 . S
C792 H779 0.930 . S
C792 C787 1.415 . S
C792 C791 1.387 . S
H793 C801 0.930 . S
H794 C804 0.930 . S
H795 C806 0.930 . S
H796 C807 0.970 . S
H797 C807 0.970 . S
H798 C809 0.930 . S
H799 C811 0.930 . S
H800 C813 0.930 . S
C801 H793 0.930 . S
C801 C802 1.382 . S
C801 C803 1.426 . S
C802 C801 1.382 . S
C802 C806 1.389 . S
C803 C801 1.426 . S
C803 C804 1.375 . S
C803 C807 1.532 . S
C804 H794 0.930 . S
C804 C803 1.375 . S
C804 C805 1.416 . S
C805 C804 1.416 . S
C805 C806 1.371 . S
C806 H795 0.930 . S
C806 C802 1.389 . S
C806 C805 1.371 . S
C807 H796 0.970 . S
C807 H797 0.970 . S
C807 C803 1.532 . S
C807 C808 1.499 . S
C808 C807 1.499 . S
C808 C809 1.370 . S
C808 C813 1.415 . S
C809 H798 0.930 . S
C809 C808 1.370 . S
C809 C810 1.407 . S
C810 C809 1.407 . S
C810 C811 1.365 . S
C811 H799 0.930 . S
C811 C810 1.365 . S
C811 C812 1.393 . S
C812 C811 1.393 . S
C812 C813 1.387 . S
C813 H800 0.930 . S
C813 C808 1.415 . S
C813 C812 1.387 . S
H814 C822 0.930 . S
H815 C825 0.930 . S
H816 C827 0.930 . S
H817 C828 0.970 . S
H818 C828 0.970 . S
H819 C830 0.930 . S
H820 C832 0.930 . S
H821 C834 0.930 . S
C822 H814 0.930 . S
C822 C823 1.382 . S
C822 C824 1.426 . S
C823 C822 1.382 . S
C823 C827 1.389 . S
C824 C822 1.426 . S
C824 C825 1.375 . S
C824 C828 1.532 . S
C825 H815 0.930 . S
C825 C824 1.375 . S
C825 C826 1.416 . S
C826 C825 1.416 . S
C826 C827 1.371 . S
C827 H816 0.930 . S
C827 C823 1.389 . S
C827 C826 1.371 . S
C828 H817 0.970 . S
C828 H818 0.970 . S
C828 C824 1.532 . S
C828 C829 1.499 . S
C829 C828 1.499 . S
C829 C830 1.370 . S
C829 C834 1.415 . S
C830 H819 0.930 . S
C830 C829 1.370 . S
C830 C831 1.407 . S
C831 C830 1.407 . S
C831 C832 1.365 . S
C832 H820 0.930 . S
C832 C831 1.365 . S
C832 C833 1.393 . S
C833 C832 1.393 . S
C833 C834 1.387 . S
C834 H821 0.930 . S
C834 C829 1.415 . S
C834 C833 1.387 . S
H835 C843 0.930 . S
H836 C846 0.930 . S
H837 C848 0.930 . S
H838 C849 0.970 . S
H839 C849 0.970 . S
H840 C851 0.930 . S
H841 C853 0.930 . S
H842 C855 0.930 . S
C843 H835 0.930 . S
C843 C844 1.382 . S
C843 C845 1.426 . S
C844 C843 1.382 . S
C844 C848 1.389 . S
C845 C843 1.426 . S
C845 C846 1.375 . S
C845 C849 1.532 . S
C846 H836 0.930 . S
C846 C845 1.375 . S
C846 C847 1.416 . S
C847 C846 1.416 . S
C847 C848 1.371 . S
C848 H837 0.930 . S
C848 C844 1.389 . S
C848 C847 1.371 . S
C849 H838 0.970 . S
C849 H839 0.970 . S
C849 C845 1.532 . S
C849 C850 1.499 . S
C850 C849 1.499 . S
C850 C851 1.370 . S
C850 C855 1.415 . S
C851 H840 0.930 . S
C851 C850 1.370 . S
C851 C852 1.407 . S
C852 C851 1.407 . S
C852 C853 1.365 . S
C853 H841 0.930 . S
C853 C852 1.365 . S
C853 C854 1.393 . S
C854 C853 1.393 . S
C854 C855 1.387 . S
C855 H842 0.930 . S
C855 C850 1.415 . S
C855 C854 1.387 . S
C371 C7 1.933 . S
C382 C19 1.110 . S
C29 C406 1.989 . S
C427 C41 1.761 . S
C52 C434 1.461 . S
C62 C364 1.405 . S
C73 C390 1.038 . S
C413 C82 1.561 . S
C445 C5 1.507 . S
C16 C466 1.255 . S
C30 C490 1.784 1_655 S
C508 C40 1.980 . S
C49 C537 1.320 . S
C558 C63 1.461 . S
C74 C574 1.598 . S
C595 C85 1.404 . S
C8 C516 1.411 . S
C51 C550 1.414 . S
C581 C60 1.789 . S
C71 C602 0.950 . S
C529 C84 1.902 . S
C474 C27 1.301 . S
C38 C497 1.453 . S
C453 C18 1.622 . S
C621 C95 1.962 . S
C107 C637 1.188 . S
C117 C655 1.865 . S
C676 C129 1.491 . S
C140 C684 1.381 . S
C150 C613 1.465 . S
C161 C644 0.989 . S
C170 C663 1.354 . S
C539 C93 1.509 . S
C104 C697 1.250 . S
C571 C118 2.224 1_455 S
C128 C726 1.590 . S
C137 C448 1.371 . S
C742 C151 1.394 . S
C162 C487 1.292 . S
C770 C173 1.407 . S
C96 C718 1.445 . S
C749 C139 1.421 . S
C148 C495 1.706 . S
C763 C159 0.892 . S
C172 C455 1.915 . S
C115 C705 1.279 . S
C126 C579 1.517 . S
C106 C532 1.613 . S
C183 C658 1.980 . S
C679 C195 1.231 . S
C205 C623 1.861 . S
C217 C634 1.511 . S
C228 C642 1.377 . S
C238 C665 1.445 . S
C686 C249 0.995 . S
C258 C616 1.335 . S
C781 C181 1.511 . S
C192 C560 1.272 . S
C802 C206 2.216 . S
C216 C592 1.907 . S
C225 C826 1.340 . S
C239 C469 1.380 . S
C847 C250 1.593 . S
C261 C511 1.395 . S
C600 C184 1.430 . S
C476 C227 1.439 . S
C236 C854 1.786 . S
C247 C518 0.950 . S
C833 C260 1.917 . S
C553 C203 1.261 . S
C810 C214 1.526 . S
C789 C194 1.605 . S
C271 C403 1.927 . S
C283 C424 1.101 . S
C369 C293 1.971 . S
C385 C305 1.749 . S
C392 C316 1.429 . S
C411 C326 1.430 . S
C432 C337 1.030 . S
C346 C361 1.551 . S
C269 C823 1.500 . S
C739 C280 1.264 . S
C844 C294 2.199 . S
C768 C304 1.629 . S
C313 C784 1.344 . S
C700 C327 1.405 . S
C805 C338 1.625 . S
C349 C728 1.397 . S
C760 C272 1.435 . S
C707 C315 1.416 . S
C812 C324 1.779 . S
C335 C721 0.931 . S
C348 C791 1.915 . S
C291 C747 1.310 . S
C302 C852 1.519 . S
C831 C282 1.631 . S
