# Generated by pormake.
# Topology tsx, (6,3)-cn, num edge types: 1
# Building blocks:
#     Node 0, Type 0, BuildingBlock: VOLQOD_clean_sbu_1, # of connection points: 6
#     Node 1, Type 0, BuildingBlock: VOLQOD_clean_sbu_1, # of connection points: 6
#     Node 2, Type 1, BuildingBlock: BETDAH_clean_linker_0, # of connection points: 3
#     Node 3, Type 1, BuildingBlock: BETDAH_clean_linker_0, # of connection points: 3
#     Node 4, Type 1, BuildingBlock: BETDAH_clean_linker_0, # of connection points: 3
#     Node 5, Type 1, BuildingBlock: BETDAH_clean_linker_0, # of connection points: 3
#     Edge 6, Type (0, 1), BuildingBlock: KIFKEQ_clean_linker_1, # of connection points: 2
#     Edge 7, Type (0, 1), BuildingBlock: KIFKEQ_clean_linker_1, # of connection points: 2
#     Edge 8, Type (0, 1), BuildingBlock: KIFKEQ_clean_linker_1, # of connection points: 2
#     Edge 9, Type (0, 1), BuildingBlock: KIFKEQ_clean_linker_1, # of connection points: 2
#     Edge 10, Type (0, 1), BuildingBlock: KIFKEQ_clean_linker_1, # of connection points: 2
#     Edge 11, Type (0, 1), BuildingBlock: KIFKEQ_clean_linker_1, # of connection points: 2
#     Edge 12, Type (0, 1), BuildingBlock: KIFKEQ_clean_linker_1, # of connection points: 2
#     Edge 13, Type (0, 1), BuildingBlock: KIFKEQ_clean_linker_1, # of connection points: 2
#     Edge 14, Type (0, 1), BuildingBlock: KIFKEQ_clean_linker_1, # of connection points: 2
#     Edge 15, Type (0, 1), BuildingBlock: KIFKEQ_clean_linker_1, # of connection points: 2
#     Edge 16, Type (0, 1), BuildingBlock: KIFKEQ_clean_linker_1, # of connection points: 2
#     Edge 17, Type (0, 1), BuildingBlock: KIFKEQ_clean_linker_1, # of connection points: 2
# Relax obj value: 0.053
# Max RMSD: 0.112
# Mean RMSD: 0.100
data_MOF--net-tsx--node1-VOLQOD_clean_sbu_1--node2-BETDAH_clean_linker_0--edge1-KIFKEQ_clean_linker_1
_symmetry_space_group_name_H-M    P1
_symmetry_Int_Tables_number       1
_symmetry_cell_setting            triclinic
loop_
_symmetry_equiv_pos_as_xyz
'x, y, z'
_cell_length_a     21.57397
_cell_length_b     22.371836
_cell_length_c     37.9605
_cell_angle_alpha  90.31259
_cell_angle_beta   97.624516
_cell_angle_gamma 90.392622
loop_
_atom_site_label
_atom_site_type_symbol
_atom_site_fract_x
_atom_site_fract_y
_atom_site_fract_z
_atom_type_partial_charge
O0 O 0.0547 0.00042 0.08856 0.0
Zn1 Zn 0.07371 0.00275 0.03715 0.0
O2 O -0.00191 0.01978 0.00391 0.0
Zn3 Zn 0.97867 0.9544 0.97018 0.0
Zn4 Zn 0.92804 0.0305 0.03059 0.0
Zn5 Zn 0.0098 0.09165 0.97691 0.0
O6 O 0.96988 0.98207 0.91902 0.0
O7 O 0.01094 0.07341 0.92496 0.0
O8 O 0.11477 0.92614 0.02291 0.0
O9 O 0.04998 0.89729 0.97532 0.0
O10 O 0.9029 0.90753 0.98042 0.0
O11 O 0.86921 0.96003 0.02376 0.0
O12 O 0.88115 0.10593 0.01672 0.0
O13 O 0.13669 0.06949 0.0355 0.0
O14 O 0.93966 0.14926 0.98008 0.0
O15 O 0.09036 0.13256 0.9955 0.0
C16 C 0.00704 0.01838 0.10222 0.0
C17 C 0.98991 0.02932 0.9055 0.0
C18 C 0.86498 0.91473 0.00311 0.0
C19 C 0.09983 0.89024 0.99685 0.0
C20 C 0.89203 0.1491 0.99663 0.0
C21 C 0.13653 0.11821 0.01825 0.0
O22 O 0.95743 0.03443 0.08274 0.0
O23 O 0.55953 0.50004 0.58761 0.0
Zn24 Zn 0.57824 0.5028 0.53629 0.0
O25 O 0.50255 0.51978 0.50336 0.0
Zn26 Zn 0.48183 0.45419 0.46994 0.0
Zn27 Zn 0.43334 0.53184 0.53053 0.0
Zn28 Zn 0.51491 0.5907 0.47579 0.0
O29 O 0.4731 0.48102 0.41858 0.0
O30 O 0.51701 0.57118 0.4241 0.0
O31 O 0.61853 0.42607 0.52199 0.0
O32 O 0.55241 0.39631 0.47515 0.0
O33 O 0.40559 0.40853 0.48068 0.0
O34 O 0.3739 0.46181 0.52433 0.0
O35 O 0.38665 0.60692 0.51574 0.0
O36 O 0.64128 0.56954 0.53471 0.0
O37 O 0.44434 0.64794 0.47784 0.0
O38 O 0.59492 0.63231 0.49456 0.0
C39 C 0.51278 0.51886 0.6018 0.0
C40 C 0.49471 0.52733 0.40484 0.0
C41 C 0.36846 0.41644 0.50373 0.0
C42 C 0.60268 0.38955 0.49637 0.0
C43 C 0.39699 0.64874 0.4946 0.0
C44 C 0.641 0.61825 0.51744 0.0
O45 O 0.46323 0.53633 0.58278 0.0
H46 H 0.09613 0.95389 0.37007 0.0
H47 H 0.91512 0.03258 0.37387 0.0
H48 H 0.00498 0.93533 0.46336 0.0
C49 C 0.05756 0.96478 0.38453 0.0
C50 C 0.05758 0.94261 0.41901 0.0
C51 C 0.00615 -0.00333 0.36762 0.0
C52 C 0.95535 0.00836 0.38645 0.0
C53 C 0.95539 0.98623 0.42109 0.0
C54 C 0.00591 0.95288 0.43686 0.0
N55 N 0.9035 0.99302 0.43991 0.0
C56 C 0.87208 0.04647 0.44197 0.0
H57 H 0.93581 0.93195 0.64472 0.0
H58 H 0.09931 0.04035 0.6363 0.0
H59 H 0.03172 0.91586 0.55317 0.0
C60 C 0.97265 0.9469 0.62994 0.0
C61 C 0.97743 0.92044 0.59689 0.0
C62 C 0.01656 0.98983 0.64482 0.0
C63 C 0.06504 0.00724 0.62543 0.0
C64 C 0.07029 0.98028 0.59234 0.0
C65 C 0.02726 0.93634 0.57866 0.0
N66 N 0.11973 0.99457 0.57274 0.0
C67 C 0.14033 0.05255 0.56829 0.0
H68 H 0.60305 0.45406 0.87593 0.0
H69 H 0.41658 0.5253 0.8687 0.0
H70 H 0.5013 0.44526 0.96565 0.0
C71 C 0.56171 0.46466 0.88809 0.0
C72 C 0.5589 0.44773 0.92335 0.0
C73 C 0.51032 0.49155 0.86767 0.0
C74 C 0.45718 0.50552 0.88402 0.0
C75 C 0.45446 0.4891 0.91952 0.0
C76 C 0.5047 0.45941 0.93869 0.0
N77 N 0.39912 0.49579 0.9353 0.0
C78 C 0.37061 0.55052 0.93854 0.0
H79 H 0.43693 0.42868 0.144 0.0
H80 H 0.60139 0.53524 0.13487 0.0
H81 H 0.53092 0.41176 0.05176 0.0
C82 C 0.47366 0.44324 0.12903 0.0
C83 C 0.47752 0.41682 0.09586 0.0
C84 C 0.51828 0.48562 0.14377 0.0
C85 C 0.56659 0.50253 0.12412 0.0
C86 C 0.57093 0.47561 0.0909 0.0
C87 C 0.52717 0.4322 0.07735 0.0
N88 N 0.62007 0.4895 0.071 0.0
C89 C 0.64081 0.54736 0.06636 0.0
H90 H 0.14426 0.23289 0.99487 0.0
H91 H 0.24959 0.09884 0.05852 0.0
H92 H 0.2292 0.30453 0.01027 0.0
H93 H 0.33453 0.17095 0.07387 0.0
H94 H 0.49534 0.30647 0.06773 0.0
H95 H 0.41486 0.23267 0.04542 0.0
H96 H 0.27137 0.35525 0.06825 0.0
H97 H 0.35148 0.42877 0.09029 0.0
C98 C 0.18568 0.21849 0.0119 0.0
C99 C 0.18993 0.16023 0.02569 0.0
C100 C 0.23417 0.25964 0.02078 0.0
C101 C 0.28816 0.24327 0.04336 0.0
C102 C 0.29351 0.18453 0.0562 0.0
C103 C 0.24472 0.14344 0.04759 0.0
C104 C 0.44653 0.31764 0.06761 0.0
C105 C 0.42942 0.37304 0.08083 0.0
C106 C 0.40066 0.27542 0.0551 0.0
C107 C 0.33704 0.28838 0.05514 0.0
C108 C 0.32006 0.34434 0.06763 0.0
C109 C 0.36582 0.38615 0.08049 0.0
H110 H 0.21797 0.86652 0.03058 0.0
H111 H 0.07729 0.80176 0.94707 0.0
H112 H 0.28861 0.7878 0.01596 0.0
H113 H 0.14701 0.72313 0.93308 0.0
H114 H 0.30462 0.62459 0.89201 0.0
H115 H 0.24228 0.71014 0.90678 0.0
H116 H 0.30043 0.67944 0.01863 0.0
H117 H 0.36357 0.59496 0.00348 0.0
C118 C 0.2019 0.83532 0.00935 0.0
C119 C 0.14199 0.84066 0.98997 0.0
C120 C 0.24235 0.7902 1.00099 0.0
C121 C 0.22369 0.74957 0.97308 0.0
C122 C 0.16345 0.75445 0.95418 0.0
C123 C 0.1232 0.79936 0.96247 0.0
C124 C 0.30446 0.63697 0.91964 0.0
C125 C 0.33846 0.60393 0.9467 0.0
C126 C 0.26857 0.68547 0.92817 0.0
C127 C 0.26599 0.70134 0.96394 0.0
C128 C 0.30184 0.66887 0.99087 0.0
C129 C 0.33772 0.62046 0.98227 0.0
H130 H 0.8446 0.80963 0.96592 0.0
H131 H 0.78413 0.90949 0.0529 0.0
H132 H 0.78263 0.72419 0.98049 0.0
H133 H 0.72139 0.82411 0.06707 0.0
H134 H 0.70004 0.63111 0.11032 0.0
H135 H 0.74588 0.72509 0.09264 0.0
H136 H 0.67708 0.68588 0.98266 0.0
H137 H 0.63245 0.59167 1.00061 0.0
C138 C 0.8172 0.81383 0.98772 0.0
C139 C 0.81985 0.86635 0.0084 0.0
C140 C 0.78144 0.76484 0.99601 0.0
C141 C 0.74752 0.76718 0.02516 0.0
C142 C 0.74782 0.8206 0.04481 0.0
C143 C 0.78345 0.86969 0.03648 0.0
C144 C 0.69436 0.64328 0.08249 0.0
C145 C 0.66316 0.60491 0.05671 0.0
C146 C 0.72015 0.69703 0.07233 0.0
C147 C 0.71521 0.71289 0.0362 0.0
C148 C 0.68231 0.67466 0.01061 0.0
C149 C 0.65652 0.62106 0.02083 0.0
H150 H 0.88678 0.23679 0.94669 0.0
H151 H 0.79665 0.17495 0.03503 0.0
H152 H 0.80919 0.31472 0.93522 0.0
H153 H 0.72006 0.25463 0.02436 0.0
H154 H 0.54879 0.34318 0.95842 0.0
H155 H 0.63284 0.27638 0.98141 0.0
H156 H 0.7689 0.40569 0.95481 0.0
H157 H 0.68417 0.47169 0.93075 0.0
C158 C 0.85097 0.24043 0.96405 0.0
C159 C 0.84754 0.19927 0.99155 0.0
C160 C 0.80667 0.28555 0.95767 0.0
C161 C 0.75822 0.29103 0.97885 0.0
C162 C 0.75614 0.25112 0.00718 0.0
C163 C 0.80016 0.20556 0.01336 0.0
C164 C 0.59672 0.35779 0.95821 0.0
C165 C 0.61012 0.41223 0.94252 0.0
C166 C 0.64501 0.31958 0.97147 0.0
C167 C 0.70773 0.33529 0.96958 0.0
C168 C 0.72109 0.39158 0.95591 0.0
C169 C 0.67272 0.4295 0.9423 0.0
H170 H 0.64818 0.73288 0.49392 0.0
H171 H 0.75365 0.59989 0.55837 0.0
H172 H 0.73213 0.80535 0.50985 0.0
H173 H 0.83762 0.67284 0.57425 0.0
H174 H 0.99726 0.81023 0.56918 0.0
H175 H 0.91806 0.7355 0.54643 0.0
H176 H 0.77232 0.85642 0.56806 0.0
H177 H 0.85116 0.93087 0.59054 0.0
C178 C 0.68944 0.71888 0.51123 0.0
C179 C 0.69399 0.66069 0.5251 0.0
C180 C 0.73736 0.76051 0.52042 0.0
C181 C 0.79107 0.7447 0.5434 0.0
C182 C 0.7968 0.686 0.55629 0.0
C183 C 0.74856 0.64443 0.54736 0.0
C184 C 0.94824 0.82083 0.5687 0.0
C185 C 0.93012 0.87605 0.5817 0.0
C186 C 0.9031 0.77808 0.55594 0.0
C187 C 0.83922 0.79032 0.55551 0.0
C188 C 0.82124 0.84607 0.5678 0.0
C189 C 0.86626 0.88841 0.58092 0.0
H190 H 0.57953 0.30097 0.44666 0.0
H191 H 0.72005 0.36474 0.53058 0.0
H192 H 0.64826 0.22091 0.43345 0.0
H193 H 0.78961 0.28464 0.51675 0.0
H194 H 0.86175 0.09102 0.50636 0.0
H195 H 0.79853 0.17612 0.52035 0.0
H196 H 0.74443 0.2057 0.40801 0.0
H197 H 0.80695 0.11949 0.39438 0.0
C198 C 0.62518 0.29805 0.4623 0.0
C199 C 0.64423 0.33943 0.48972 0.0
C200 C 0.66484 0.25233 0.45447 0.0
C201 C 0.72465 0.24673 0.47378 0.0
C202 C 0.74361 0.28758 0.50151 0.0
C203 C 0.7038 0.33349 0.50941 0.0
C204 C 0.83663 0.1163 0.4848 0.0
C205 C 0.83863 0.09937 0.44941 0.0
C206 C 0.80077 0.16507 0.49274 0.0
C207 C 0.76624 0.19755 0.46531 0.0
C208 C 0.76977 0.18105 0.42975 0.0
C209 C 0.80569 0.13216 0.42187 0.0
H210 H 0.34475 0.31184 0.4664 0.0
H211 H 0.28955 0.41247 0.55456 0.0
H212 H 0.28157 0.22754 0.48142 0.0
H213 H 0.22567 0.32823 0.56921 0.0
H214 H 0.20244 0.13495 0.61206 0.0
H215 H 0.24919 0.22838 0.5942 0.0
H216 H 0.1752 0.19165 0.48466 0.0
H217 H 0.12958 0.09802 0.50277 0.0
C218 C 0.31827 0.31646 0.48858 0.0
C219 C 0.32273 0.36884 0.50942 0.0
C220 C 0.28181 0.26814 0.49712 0.0
C221 C 0.24903 0.27102 0.52672 0.0
C222 C 0.25118 0.32432 0.54659 0.0
C223 C 0.28747 0.37275 0.53799 0.0
C224 C 0.19576 0.14759 0.58431 0.0
C225 C 0.16284 0.11005 0.55867 0.0
C226 C 0.2221 0.20101 0.57405 0.0
C227 C 0.21601 0.21734 0.53796 0.0
C228 C 0.18132 0.18003 0.51256 0.0
C229 C 0.15497 0.12677 0.52288 0.0
H230 H 0.30046 0.67576 0.53182 0.0
H231 H 0.39097 0.73298 0.44258 0.0
H232 H 0.22181 0.75293 0.51845 0.0
H233 H 0.31135 0.80844 0.42851 0.0
H234 H 0.18266 0.96543 0.42291 0.0
H235 H 0.26856 0.9001 0.44617 0.0
H236 H 0.1349 0.76928 0.47385 0.0
H237 H 0.04965 0.83525 0.4515 0.0
C238 C 0.30364 0.70485 0.5094 0.0
C239 C 0.3517 0.69797 0.48812 0.0
C240 C 0.25843 0.74891 0.50165 0.0
C241 C 0.26001 0.78664 0.47227 0.0
C242 C 0.30916 0.78079 0.45165 0.0
C243 C 0.35464 0.73715 0.45958 0.0
C244 C 0.17197 0.92283 0.43424 0.0
C245 C 0.10971 0.90517 0.43532 0.0
C246 C 0.221 0.88538 0.44747 0.0
C247 C 0.20862 0.82928 0.46169 0.0
C248 C 0.14623 0.81253 0.46363 0.0
C249 C 0.09731 0.85019 0.4507 0.0
H250 H 0.9153 0.05874 0.13927 0.0
H251 H 0.10097 0.98362 0.1542 0.0
H252 H 0.9149 0.06143 0.20318 0.0
H253 H 0.0999 0.98526 0.21848 0.0
H254 H 0.10004 0.0426 0.33353 0.0
H255 H 0.1011 0.05219 0.26958 0.0
H256 H 0.90877 0.99197 0.25104 0.0
H257 H 0.90776 0.98254 0.31486 0.0
C258 C 0.95612 0.04263 0.15614 0.0
C259 C 0.00814 0.02065 0.14144 0.0
C260 C 0.95569 0.04399 0.19289 0.0
C261 C 0.0072 0.02338 0.21603 0.0
C262 C 0.05968 0.00216 0.20144 0.0
C263 C 0.06016 0.00082 0.16456 0.0
C264 C 0.05782 0.03195 0.31577 0.0
C265 C 0.00385 0.01162 0.32931 0.0
C266 C 0.05855 0.03712 0.27912 0.0
C267 C 0.00527 0.02224 0.25511 0.0
C268 C 0.95049 0.00438 0.26874 0.0
C269 C 0.94978 -0.00081 0.30539 0.0
H270 H 0.92302 0.96118 0.85357 0.0
H271 H 0.06063 0.1034 0.8695 0.0
H272 H 0.92908 0.9628 0.78978 0.0
H273 H 0.06718 0.10423 0.80563 0.0
H274 H 0.11317 0.00837 0.69865 0.0
H275 H 0.10525 0.02661 0.76148 0.0
H276 H 0.90446 0.03665 0.73742 0.0
H277 H 0.91219 0.02059 0.67455 0.0
C278 C 0.95432 0.99294 0.84346 0.0
C279 C 0.99129 0.03215 0.86661 0.0
C280 C 0.95753 0.99409 0.80693 0.0
C281 C -0.00148 0.03375 0.79282 0.0
C282 C 0.03533 0.07315 0.81586 0.0
C283 C 0.03129 0.07278 0.85235 0.0
C284 C 0.06749 0.01632 0.70655 0.0
C285 C 0.01325 0.01206 0.68159 0.0
C286 C 0.06297 0.02645 0.74256 0.0
C287 C 0.00415 0.03199 0.7543 0.0
C288 C 0.95029 0.0314 0.72913 0.0
C289 C 0.95482 0.02212 0.69317 0.0
H290 H 0.42247 0.55789 0.64053 0.0
H291 H 0.60757 0.48159 0.65226 0.0
H292 H 0.423 0.55479 0.70462 0.0
H293 H 0.60838 0.47954 0.71658 0.0
H294 H 0.55208 0.41229 0.82159 0.0
H295 H 0.55522 0.42309 0.7583 0.0
H296 H 0.47128 0.59746 0.76137 0.0
H297 H 0.46833 0.58664 0.82537 0.0
C298 C 0.46356 0.54085 0.65676 0.0
C299 C 0.51485 0.51953 0.64109 0.0
C300 C 0.46396 0.53953 0.69361 0.0
C301 C 0.51558 0.51674 0.71578 0.0
C302 C 0.56745 0.49661 0.70022 0.0
C303 C 0.56712 0.49801 0.66333 0.0
C304 C 0.53512 0.45344 0.80899 0.0
C305 C 0.51079 0.49904 0.82873 0.0
C306 C 0.53697 0.4596 0.77261 0.0
C307 C 0.51422 0.5114 0.75477 0.0
C308 C 0.48896 0.55683 0.7743 0.0
C309 C 0.48721 0.55068 0.81092 0.0
H310 H 0.56689 0.59933 0.36847 0.0
H311 H 0.42636 0.45965 0.3532 0.0
H312 H 0.57294 0.59934 0.30455 0.0
H313 H 0.43198 0.46043 0.28936 0.0
H314 H 0.41487 0.5177 0.17402 0.0
H315 H 0.40821 0.53396 0.23698 0.0
H316 H 0.60892 0.52129 0.26021 0.0
H317 H 0.61575 0.50289 0.19726 0.0
C318 C 0.53686 0.56905 0.35146 0.0
C319 C 0.49613 0.52941 0.36592 0.0
C320 C 0.5406 0.56895 0.31493 0.0
C321 C 0.50282 0.53007 0.29205 0.0
C322 C 0.46121 0.49132 0.30638 0.0
C323 C 0.45825 0.49065 0.34294 0.0
C324 C 0.45772 0.51868 0.19247 0.0
C325 C 0.51579 0.50788 0.18062 0.0
C326 C 0.4538 0.52807 0.2285 0.0
C327 C 0.50792 0.52798 0.25347 0.0
C328 C 0.56644 0.52164 0.24146 0.0
C329 C 0.57035 0.51143 0.20537 0.0
loop_
_geom_bond_atom_site_label_1
_geom_bond_atom_site_label_2
_geom_bond_distance
_geom_bond_site_symmetry_2
_ccdc_geom_bond_type
O0 Zn1 1.953 . S
O0 C16 1.225 1_565 S
Zn1 O0 1.953 . S
Zn1 O2 1.949 1_565 S
Zn1 O8 1.919 . S
Zn1 O13 1.924 1_565 S
O2 Zn1 1.949 1_545 S
O2 Zn3 1.923 1_444 S
O2 Zn4 1.950 1_455 S
O2 Zn5 1.945 1_554 S
Zn3 O2 1.923 1_666 S
Zn3 O6 1.933 . S
Zn3 O9 1.941 1_655 S
Zn3 O10 1.965 . S
Zn4 O2 1.950 1_655 S
Zn4 O11 1.938 1_545 S
Zn4 O12 1.906 . S
Zn4 O22 1.953 . S
Zn5 O2 1.945 1_556 S
Zn5 O7 1.932 . S
Zn5 O14 1.977 1_455 S
Zn5 O15 1.910 . S
O6 Zn3 1.933 . S
O6 C17 1.226 1_565 S
O7 Zn5 1.932 . S
O7 C17 1.307 1_455 S
O8 Zn1 1.919 . S
O8 C19 1.253 1_554 S
O9 Zn3 1.941 1_455 S
O9 C19 1.283 . S
O10 Zn3 1.965 . S
O10 C18 1.303 1_556 S
O11 Zn4 1.938 1_565 S
O11 C18 1.247 . S
O12 Zn4 1.906 . S
O12 C20 1.304 1_554 S
O13 Zn1 1.924 1_545 S
O13 C21 1.311 . S
O14 Zn5 1.977 1_655 S
O14 C20 1.272 . S
O15 Zn5 1.910 . S
O15 C21 1.231 1_556 S
C16 O0 1.225 1_545 S
C16 O22 1.298 1_455 S
C17 O6 1.226 1_545 S
C17 O7 1.307 1_655 S
C18 O10 1.303 1_554 S
C18 O11 1.247 . S
C19 O8 1.253 1_556 S
C19 O9 1.283 . S
C20 O12 1.304 1_556 S
C20 O14 1.272 . S
C21 O13 1.311 . S
C21 O15 1.231 1_554 S
O22 Zn4 1.953 . S
O22 C16 1.298 1_655 S
O23 Zn24 1.953 . S
O23 C39 1.225 . S
Zn24 O23 1.953 . S
Zn24 O25 1.949 . S
Zn24 O31 1.919 . S
Zn24 O36 1.924 . S
O25 Zn24 1.949 . S
O25 Zn26 1.923 . S
O25 Zn27 1.950 . S
O25 Zn28 1.945 . S
Zn26 O25 1.923 . S
Zn26 O29 1.933 . S
Zn26 O32 1.941 . S
Zn26 O33 1.965 . S
Zn27 O25 1.950 . S
Zn27 O34 1.938 . S
Zn27 O35 1.906 . S
Zn27 O45 1.953 . S
Zn28 O25 1.945 . S
Zn28 O30 1.932 . S
Zn28 O37 1.977 . S
Zn28 O38 1.910 . S
O29 Zn26 1.933 . S
O29 C40 1.226 . S
O30 Zn28 1.932 . S
O30 C40 1.307 . S
O31 Zn24 1.919 . S
O31 C42 1.253 . S
O32 Zn26 1.941 . S
O32 C42 1.283 . S
O33 Zn26 1.965 . S
O33 C41 1.303 . S
O34 Zn27 1.938 . S
O34 C41 1.247 . S
O35 Zn27 1.906 . S
O35 C43 1.304 . S
O36 Zn24 1.924 . S
O36 C44 1.311 . S
O37 Zn28 1.977 . S
O37 C43 1.272 . S
O38 Zn28 1.910 . S
O38 C44 1.231 . S
C39 O23 1.225 . S
C39 O45 1.298 . S
C40 O29 1.226 . S
C40 O30 1.307 . S
C41 O33 1.303 . S
C41 O34 1.247 . S
C42 O31 1.253 . S
C42 O32 1.283 . S
C43 O35 1.304 . S
C43 O37 1.272 . S
C44 O36 1.311 . S
C44 O38 1.231 . S
O45 Zn27 1.953 . S
O45 C39 1.298 . S
H46 C49 0.929 . S
H47 C52 0.929 . S
H48 C54 0.930 . S
C49 H46 0.929 . S
C49 C50 1.398 . S
C49 C51 1.396 1_565 S
C50 C49 1.398 . S
C50 C54 1.407 . S
C51 C49 1.396 1_545 S
C51 C52 1.394 1_455 S
C52 H47 0.929 . S
C52 C51 1.394 1_655 S
C52 C53 1.382 . S
C53 C52 1.382 . S
C53 C54 1.392 1_645 S
C53 N55 1.420 . S
C54 H48 0.930 . S
C54 C50 1.407 . S
C54 C53 1.392 1_465 S
N55 C53 1.420 . S
N55 C56 1.244 . S
C56 N55 1.244 . S
H57 C60 0.929 . S
H58 C63 0.929 . S
H59 C65 0.930 . S
C60 H57 0.929 . S
C60 C61 1.398 . S
C60 C62 1.396 1_565 S
C61 C60 1.398 . S
C61 C65 1.407 . S
C62 C60 1.396 1_545 S
C62 C63 1.394 1_655 S
C63 H58 0.929 . S
C63 C62 1.394 1_455 S
C63 C64 1.382 . S
C64 C63 1.382 . S
C64 C65 1.392 1_445 S
C64 N66 1.420 . S
C65 H59 0.930 . S
C65 C61 1.407 . S
C65 C64 1.392 1_665 S
N66 C64 1.420 . S
N66 C67 1.244 . S
C67 N66 1.244 . S
H68 C71 0.929 . S
H69 C74 0.929 . S
H70 C76 0.930 . S
C71 H68 0.929 . S
C71 C72 1.398 . S
C71 C73 1.396 . S
C72 C71 1.398 . S
C72 C76 1.407 . S
C73 C71 1.396 . S
C73 C74 1.394 . S
C74 H69 0.929 . S
C74 C73 1.394 . S
C74 C75 1.382 . S
C75 C74 1.382 . S
C75 C76 1.392 . S
C75 N77 1.420 . S
C76 H70 0.930 . S
C76 C72 1.407 . S
C76 C75 1.392 . S
N77 C75 1.420 . S
N77 C78 1.244 . S
C78 N77 1.244 . S
H79 C82 0.929 . S
H80 C85 0.929 . S
H81 C87 0.930 . S
C82 H79 0.929 . S
C82 C83 1.398 . S
C82 C84 1.396 . S
C83 C82 1.398 . S
C83 C87 1.407 . S
C84 C82 1.396 . S
C84 C85 1.394 . S
C85 H80 0.929 . S
C85 C84 1.394 . S
C85 C86 1.382 . S
C86 C85 1.382 . S
C86 C87 1.392 . S
C86 N88 1.420 . S
C87 H81 0.930 . S
C87 C83 1.407 . S
C87 C86 1.392 . S
N88 C86 1.420 . S
N88 C89 1.244 . S
C89 N88 1.244 . S
H90 C98 0.950 . S
H91 C103 0.950 . S
H92 C100 0.950 . S
H93 C102 0.950 . S
H94 C104 0.950 . S
H95 C106 0.950 . S
H96 C108 0.950 . S
H97 C109 0.950 . S
C98 H90 0.950 . S
C98 C99 1.386 . S
C98 C100 1.391 . S
C99 C98 1.386 . S
C99 C103 1.393 . S
C100 H92 0.950 . S
C100 C98 1.391 . S
C100 C101 1.400 . S
C101 C100 1.400 . S
C101 C102 1.398 . S
C101 C107 1.491 . S
C102 H93 0.950 . S
C102 C101 1.398 . S
C102 C103 1.391 . S
C103 H91 0.950 . S
C103 C99 1.393 . S
C103 C102 1.391 . S
C104 H94 0.950 . S
C104 C105 1.386 . S
C104 C106 1.391 . S
C105 C104 1.386 . S
C105 C109 1.393 . S
C106 H95 0.950 . S
C106 C104 1.391 . S
C106 C107 1.400 . S
C107 C101 1.491 . S
C107 C106 1.400 . S
C107 C108 1.398 . S
C108 H96 0.950 . S
C108 C107 1.398 . S
C108 C109 1.391 . S
C109 H97 0.950 . S
C109 C105 1.393 . S
C109 C108 1.391 . S
H110 C118 0.950 . S
H111 C123 0.950 . S
H112 C120 0.950 1_554 S
H113 C122 0.950 . S
H114 C124 0.950 . S
H115 C126 0.950 . S
H116 C128 0.950 . S
H117 C129 0.950 . S
C118 H110 0.950 . S
C118 C119 1.386 1_554 S
C118 C120 1.391 1_554 S
C119 C118 1.386 1_556 S
C119 C123 1.393 . S
C120 H112 0.950 1_556 S
C120 C118 1.391 1_556 S
C120 C121 1.400 . S
C121 C120 1.400 . S
C121 C122 1.398 . S
C121 C127 1.491 . S
C122 H113 0.950 . S
C122 C121 1.398 . S
C122 C123 1.391 . S
C123 H111 0.950 . S
C123 C119 1.393 . S
C123 C122 1.391 . S
C124 H114 0.950 . S
C124 C125 1.386 . S
C124 C126 1.391 . S
C125 C124 1.386 . S
C125 C129 1.393 . S
C126 H115 0.950 . S
C126 C124 1.391 . S
C126 C127 1.400 . S
C127 C121 1.491 . S
C127 C126 1.400 . S
C127 C128 1.398 . S
C128 H116 0.950 . S
C128 C127 1.398 . S
C128 C129 1.391 . S
C129 H117 0.950 . S
C129 C125 1.393 . S
C129 C128 1.391 . S
H130 C138 0.972 . S
H131 C143 0.950 . S
H132 C140 0.950 1_556 S
H133 C142 0.950 . S
H134 C144 0.950 . S
H135 C146 0.950 . S
H136 C148 0.950 . S
H137 C149 0.950 . S
C138 H130 0.972 . S
C138 C139 1.374 1_556 S
C138 C140 1.382 1_556 S
C139 C138 1.374 1_554 S
C139 C143 1.393 . S
C140 H132 0.950 1_554 S
C140 C138 1.382 1_554 S
C140 C141 1.400 . S
C141 C140 1.400 . S
C141 C142 1.398 . S
C141 C147 1.491 . S
C142 H133 0.950 . S
C142 C141 1.398 . S
C142 C143 1.391 . S
C143 H131 0.950 . S
C143 C139 1.393 . S
C143 C142 1.391 . S
C144 H134 0.950 . S
C144 C145 1.386 . S
C144 C146 1.391 . S
C145 C144 1.386 . S
C145 C149 1.393 . S
C146 H135 0.950 . S
C146 C144 1.391 . S
C146 C147 1.400 . S
C147 C141 1.491 . S
C147 C146 1.400 . S
C147 C148 1.398 . S
C148 H136 0.950 . S
C148 C147 1.398 . S
C148 C149 1.391 . S
C149 H137 0.950 . S
C149 C145 1.393 . S
C149 C148 1.391 . S
H150 C158 0.950 . S
H151 C163 0.950 . S
H152 C160 0.950 . S
H153 C162 0.950 . S
H154 C164 0.950 . S
H155 C166 0.950 . S
H156 C168 0.950 . S
H157 C169 0.950 . S
C158 H150 0.950 . S
C158 C159 1.386 . S
C158 C160 1.391 . S
C159 C158 1.386 . S
C159 C163 1.393 . S
C160 H152 0.950 . S
C160 C158 1.391 . S
C160 C161 1.400 . S
C161 C160 1.400 . S
C161 C162 1.398 . S
C161 C167 1.491 . S
C162 H153 0.950 . S
C162 C161 1.398 . S
C162 C163 1.391 . S
C163 H151 0.950 . S
C163 C159 1.393 . S
C163 C162 1.391 . S
C164 H154 0.950 . S
C164 C165 1.386 . S
C164 C166 1.391 . S
C165 C164 1.386 . S
C165 C169 1.393 . S
C166 H155 0.950 . S
C166 C164 1.391 . S
C166 C167 1.400 . S
C167 C161 1.491 . S
C167 C166 1.400 . S
C167 C168 1.398 . S
C168 H156 0.950 . S
C168 C167 1.398 . S
C168 C169 1.391 . S
C169 H157 0.950 . S
C169 C165 1.393 . S
C169 C168 1.391 . S
H170 C178 0.950 . S
H171 C183 0.950 . S
H172 C180 0.950 . S
H173 C182 0.950 . S
H174 C184 0.950 . S
H175 C186 0.950 . S
H176 C188 0.950 . S
H177 C189 0.950 . S
C178 H170 0.950 . S
C178 C179 1.386 . S
C178 C180 1.391 . S
C179 C178 1.386 . S
C179 C183 1.393 . S
C180 H172 0.950 . S
C180 C178 1.391 . S
C180 C181 1.400 . S
C181 C180 1.400 . S
C181 C182 1.398 . S
C181 C187 1.491 . S
C182 H173 0.950 . S
C182 C181 1.398 . S
C182 C183 1.391 . S
C183 H171 0.950 . S
C183 C179 1.393 . S
C183 C182 1.391 . S
C184 H174 0.950 . S
C184 C185 1.386 . S
C184 C186 1.391 . S
C185 C184 1.386 . S
C185 C189 1.393 . S
C186 H175 0.950 . S
C186 C184 1.391 . S
C186 C187 1.400 . S
C187 C181 1.491 . S
C187 C186 1.400 . S
C187 C188 1.398 . S
C188 H176 0.950 . S
C188 C187 1.398 . S
C188 C189 1.391 . S
C189 H177 0.950 . S
C189 C185 1.393 . S
C189 C188 1.391 . S
H190 C198 0.950 . S
H191 C203 0.950 . S
H192 C200 0.950 . S
H193 C202 0.950 . S
H194 C204 0.950 . S
H195 C206 0.950 . S
H196 C208 0.950 . S
H197 C209 0.950 . S
C198 H190 0.950 . S
C198 C199 1.386 . S
C198 C200 1.391 . S
C199 C198 1.386 . S
C199 C203 1.393 . S
C200 H192 0.950 . S
C200 C198 1.391 . S
C200 C201 1.400 . S
C201 C200 1.400 . S
C201 C202 1.398 . S
C201 C207 1.491 . S
C202 H193 0.950 . S
C202 C201 1.398 . S
C202 C203 1.391 . S
C203 H191 0.950 . S
C203 C199 1.393 . S
C203 C202 1.391 . S
C204 H194 0.950 . S
C204 C205 1.386 . S
C204 C206 1.391 . S
C205 C204 1.386 . S
C205 C209 1.393 . S
C206 H195 0.950 . S
C206 C204 1.391 . S
C206 C207 1.400 . S
C207 C201 1.491 . S
C207 C206 1.400 . S
C207 C208 1.398 . S
C208 H196 0.950 . S
C208 C207 1.398 . S
C208 C209 1.391 . S
C209 H197 0.950 . S
C209 C205 1.393 . S
C209 C208 1.391 . S
H210 C218 0.950 . S
H211 C223 0.950 . S
H212 C220 0.950 . S
H213 C222 0.950 . S
H214 C224 0.950 . S
H215 C226 0.950 . S
H216 C228 0.950 . S
H217 C229 0.950 . S
C218 H210 0.950 . S
C218 C219 1.386 . S
C218 C220 1.391 . S
C219 C218 1.386 . S
C219 C223 1.393 . S
C220 H212 0.950 . S
C220 C218 1.391 . S
C220 C221 1.400 . S
C221 C220 1.400 . S
C221 C222 1.398 . S
C221 C227 1.491 . S
C222 H213 0.950 . S
C222 C221 1.398 . S
C222 C223 1.391 . S
C223 H211 0.950 . S
C223 C219 1.393 . S
C223 C222 1.391 . S
C224 H214 0.950 . S
C224 C225 1.386 . S
C224 C226 1.391 . S
C225 C224 1.386 . S
C225 C229 1.393 . S
C226 H215 0.950 . S
C226 C224 1.391 . S
C226 C227 1.400 . S
C227 C221 1.491 . S
C227 C226 1.400 . S
C227 C228 1.398 . S
C228 H216 0.950 . S
C228 C227 1.398 . S
C228 C229 1.391 . S
C229 H217 0.950 . S
C229 C225 1.393 . S
C229 C228 1.391 . S
H230 C238 0.950 . S
H231 C243 0.950 . S
H232 C240 0.950 . S
H233 C242 0.950 . S
H234 C244 0.950 . S
H235 C246 0.950 . S
H236 C248 0.950 . S
H237 C249 0.950 . S
C238 H230 0.950 . S
C238 C239 1.386 . S
C238 C240 1.391 . S
C239 C238 1.386 . S
C239 C243 1.393 . S
C240 H232 0.950 . S
C240 C238 1.391 . S
C240 C241 1.400 . S
C241 C240 1.400 . S
C241 C242 1.398 . S
C241 C247 1.491 . S
C242 H233 0.950 . S
C242 C241 1.398 . S
C242 C243 1.391 . S
C243 H231 0.950 . S
C243 C239 1.393 . S
C243 C242 1.391 . S
C244 H234 0.950 . S
C244 C245 1.386 . S
C244 C246 1.391 . S
C245 C244 1.386 . S
C245 C249 1.393 . S
C246 H235 0.950 . S
C246 C244 1.391 . S
C246 C247 1.400 . S
C247 C241 1.491 . S
C247 C246 1.400 . S
C247 C248 1.398 . S
C248 H236 0.950 . S
C248 C247 1.398 . S
C248 C249 1.391 . S
C249 H237 0.950 . S
C249 C245 1.393 . S
C249 C248 1.391 . S
H250 C258 0.950 1_565 S
H251 C263 0.950 . S
H252 C260 0.950 1_565 S
H253 C262 0.950 . S
H254 C264 0.950 . S
H255 C266 0.950 . S
H256 C268 0.950 . S
H257 C269 0.950 . S
C258 H250 0.950 1_545 S
C258 C259 1.386 1_655 S
C258 C260 1.391 . S
C259 C258 1.386 1_455 S
C259 C263 1.393 . S
C260 H252 0.950 1_545 S
C260 C258 1.391 . S
C260 C261 1.400 1_655 S
C261 C260 1.400 1_455 S
C261 C262 1.398 . S
C261 C267 1.491 . S
C262 H253 0.950 . S
C262 C261 1.398 . S
C262 C263 1.391 . S
C263 H251 0.950 . S
C263 C259 1.393 . S
C263 C262 1.391 . S
C264 H254 0.950 . S
C264 C265 1.386 . S
C264 C266 1.391 . S
C265 C264 1.386 . S
C265 C269 1.393 1_455 S
C266 H255 0.950 . S
C266 C264 1.391 . S
C266 C267 1.400 . S
C267 C261 1.491 . S
C267 C266 1.400 . S
C267 C268 1.398 1_455 S
C268 H256 0.950 . S
C268 C267 1.398 1_655 S
C268 C269 1.391 . S
C269 H257 0.950 . S
C269 C265 1.393 1_655 S
C269 C268 1.391 . S
H270 C278 0.950 . S
H271 C283 0.950 . S
H272 C280 0.950 . S
H273 C282 0.950 . S
H274 C284 0.950 . S
H275 C286 0.950 . S
H276 C288 0.950 . S
H277 C289 0.950 . S
C278 H270 0.950 . S
C278 C279 1.386 1_565 S
C278 C280 1.391 . S
C279 C278 1.386 1_545 S
C279 C283 1.393 1_655 S
C280 H272 0.950 . S
C280 C278 1.391 . S
C280 C281 1.409 1_565 S
C281 C280 1.409 1_545 S
C281 C282 1.391 1_655 S
C281 C287 1.488 1_655 S
C282 H273 0.950 . S
C282 C281 1.391 1_455 S
C282 C283 1.391 . S
C283 H271 0.950 . S
C283 C279 1.393 1_455 S
C283 C282 1.391 . S
C284 H274 0.950 . S
C284 C285 1.397 . S
C284 C286 1.391 . S
C285 C284 1.397 . S
C285 C289 1.379 1_445 S
C286 H275 0.950 . S
C286 C284 1.391 . S
C286 C287 1.403 . S
C287 C281 1.488 1_455 S
C287 C286 1.403 . S
C287 C288 1.396 1_445 S
C288 H276 0.950 . S
C288 C287 1.396 1_665 S
C288 C289 1.391 . S
C289 H277 0.950 . S
C289 C285 1.379 1_665 S
C289 C288 1.391 . S
H290 C298 0.950 . S
H291 C303 0.950 . S
H292 C300 0.950 . S
H293 C302 0.950 . S
H294 C304 0.950 . S
H295 C306 0.950 . S
H296 C308 0.950 . S
H297 C309 0.950 . S
C298 H290 0.950 . S
C298 C299 1.386 . S
C298 C300 1.391 . S
C299 C298 1.386 . S
C299 C303 1.393 . S
C300 H292 0.950 . S
C300 C298 1.391 . S
C300 C301 1.400 . S
C301 C300 1.400 . S
C301 C302 1.398 . S
C301 C307 1.491 . S
C302 H293 0.950 . S
C302 C301 1.398 . S
C302 C303 1.391 . S
C303 H291 0.950 . S
C303 C299 1.393 . S
C303 C302 1.391 . S
C304 H294 0.950 . S
C304 C305 1.386 . S
C304 C306 1.391 . S
C305 C304 1.386 . S
C305 C309 1.393 . S
C306 H295 0.950 . S
C306 C304 1.391 . S
C306 C307 1.400 . S
C307 C301 1.491 . S
C307 C306 1.400 . S
C307 C308 1.398 . S
C308 H296 0.950 . S
C308 C307 1.398 . S
C308 C309 1.391 . S
C309 H297 0.950 . S
C309 C305 1.393 . S
C309 C308 1.391 . S
H310 C318 0.950 . S
H311 C323 0.950 . S
H312 C320 0.950 . S
H313 C322 0.950 . S
H314 C324 0.950 . S
H315 C326 0.950 . S
H316 C328 0.950 . S
H317 C329 0.950 . S
C318 H310 0.950 . S
C318 C319 1.386 . S
C318 C320 1.391 . S
C319 C318 1.386 . S
C319 C323 1.393 . S
C320 H312 0.950 . S
C320 C318 1.391 . S
C320 C321 1.400 . S
C321 C320 1.400 . S
C321 C322 1.398 . S
C321 C327 1.491 . S
C322 H313 0.950 . S
C322 C321 1.398 . S
C322 C323 1.391 . S
C323 H311 0.950 . S
C323 C319 1.393 . S
C323 C322 1.391 . S
C324 H314 0.950 . S
C324 C325 1.386 . S
C324 C326 1.391 . S
C325 C324 1.386 . S
C325 C329 1.393 . S
C326 H315 0.950 . S
C326 C324 1.391 . S
C326 C327 1.400 . S
C327 C321 1.491 . S
C327 C326 1.400 . S
C327 C328 1.398 . S
C328 H316 0.950 . S
C328 C327 1.398 . S
C328 C329 1.391 . S
C329 H317 0.950 . S
C329 C325 1.393 . S
C329 C328 1.391 . S
C105 C83 1.523 . S
C99 C21 1.522 . S
C119 C19 1.403 . S
C125 C78 1.386 . S
C139 C18 1.382 . S
C145 C89 1.368 . S
C159 C20 1.507 . S
C165 C72 1.511 . S
C179 C44 1.521 . S
C185 C61 1.523 . S
C199 C42 1.413 . S
C205 C56 1.397 . S
C225 C67 1.378 . S
C219 C41 1.386 . S
C245 C50 1.498 . S
C239 C43 1.494 . S
C259 C16 1.528 . S
C265 C51 1.526 . S
C279 C17 1.492 . S
C285 C62 1.485 1_455 S
C305 C73 1.520 . S
C299 C39 1.527 . S
C319 C40 1.491 . S
C325 C84 1.490 . S
