# Generated by pormake.
# Topology pth, (4,4)-cn, num edge types: 1
# Building blocks:
#     Node 0, Type 0, BuildingBlock: QUQFOY_clean_sbu_3, # of connection points: 4
#     Node 1, Type 0, BuildingBlock: QUQFOY_clean_sbu_3, # of connection points: 4
#     Node 2, Type 0, BuildingBlock: QUQFOY_clean_sbu_3, # of connection points: 4
#     Node 3, Type 1, BuildingBlock: AZAVOO_clean_linker_0, # of connection points: 4
#     Node 4, Type 1, BuildingBlock: AZAVOO_clean_linker_0, # of connection points: 4
#     Node 5, Type 1, BuildingBlock: AZAVOO_clean_linker_0, # of connection points: 4
#     Edge 6, Type (0, 1), BuildingBlock: KIFKEQ_clean_linker_1, # of connection points: 2
#     Edge 7, Type (0, 1), BuildingBlock: KIFKEQ_clean_linker_1, # of connection points: 2
#     Edge 8, Type (0, 1), BuildingBlock: KIFKEQ_clean_linker_1, # of connection points: 2
#     Edge 9, Type (0, 1), BuildingBlock: KIFKEQ_clean_linker_1, # of connection points: 2
#     Edge 10, Type (0, 1), BuildingBlock: KIFKEQ_clean_linker_1, # of connection points: 2
#     Edge 11, Type (0, 1), BuildingBlock: KIFKEQ_clean_linker_1, # of connection points: 2
#     Edge 12, Type (0, 1), BuildingBlock: KIFKEQ_clean_linker_1, # of connection points: 2
#     Edge 13, Type (0, 1), BuildingBlock: KIFKEQ_clean_linker_1, # of connection points: 2
#     Edge 14, Type (0, 1), BuildingBlock: KIFKEQ_clean_linker_1, # of connection points: 2
#     Edge 15, Type (0, 1), BuildingBlock: KIFKEQ_clean_linker_1, # of connection points: 2
#     Edge 16, Type (0, 1), BuildingBlock: KIFKEQ_clean_linker_1, # of connection points: 2
#     Edge 17, Type (0, 1), BuildingBlock: KIFKEQ_clean_linker_1, # of connection points: 2
# Relax obj value: 0.108
# Max RMSD: 0.224
# Mean RMSD: 0.148
data_MOF--net-pth--node1-QUQFOY_clean_sbu_3--node2-AZAVOO_clean_linker_0--edge1-KIFKEQ_clean_linker_1
_symmetry_space_group_name_H-M    P1
_symmetry_Int_Tables_number       1
_symmetry_cell_setting            triclinic
loop_
_symmetry_equiv_pos_as_xyz
'x, y, z'
_cell_length_a     26.835888
_cell_length_b     26.895641
_cell_length_c     74.148523
_cell_angle_alpha  92.456789
_cell_angle_beta   89.422112
_cell_angle_gamma 120.79606
loop_
_atom_site_label
_atom_site_type_symbol
_atom_site_fract_x
_atom_site_fract_y
_atom_site_fract_z
_atom_type_partial_charge
C0 C 0.98548 0.12713 0.10788 0.0
O1 O 0.96482 0.13761 0.09419 0.0
Cd2 Cd 0.9798 0.11775 0.06358 0.0
O3 O 0.01568 0.10304 0.10602 0.0
Cd4 Cd 0.05051 0.06197 0.08194 0.0
C5 C 0.13007 0.19132 0.06276 0.0
O6 O 0.96569 0.02324 0.06292 0.0
O7 O 0.03706 0.01836 0.05121 0.0
O8 O 0.01987 0.97776 0.09933 0.0
C9 C 0.98563 0.00821 0.04959 0.0
O10 O 0.08172 0.18543 0.05807 0.0
C11 C 0.06977 0.98433 0.10145 0.0
O12 O 0.13205 0.15394 0.07226 0.0
O13 O 0.11214 0.02789 0.09438 0.0
C14 C 0.16595 0.12845 0.4231 0.0
O15 O 0.18433 0.14451 0.40732 0.0
Cd16 Cd 0.11683 0.12246 0.38302 0.0
O17 O 0.11185 0.10152 0.42635 0.0
Cd18 Cd 0.01424 0.06369 0.41348 0.0
C19 C 0.03644 0.97304 0.3861 0.0
O20 O 0.04776 0.14573 0.39517 0.0
O21 O 0.95738 0.08087 0.3912 0.0
O22 O -0.00016 0.09818 0.44254 0.0
C23 C 0.00019 0.12942 0.38707 0.0
O24 O 0.07475 0.01809 0.37841 0.0
C25 C 0.95233 0.05259 0.44588 0.0
O26 O 0.00779 0.97675 0.39935 0.0
O27 O 0.93255 0.01155 0.43388 0.0
C28 C 0.94629 0.11894 0.73052 0.0
O29 O 0.95475 0.15386 0.74382 0.0
Cd30 Cd 0.02387 0.17612 0.76752 0.0
O31 O 0.97607 0.09434 0.72891 0.0
Cd32 Cd 0.0544 0.09238 0.74564 0.0
C33 C 0.96735 0.03799 0.78158 0.0
O34 O 0.11311 0.19632 0.75359 0.0
O35 O 0.13711 0.14063 0.76622 0.0
O36 O 0.09118 0.08567 0.71614 0.0
C37 C 0.149 0.19157 0.76327 0.0
O38 O 0.97739 0.08916 0.78492 0.0
C39 C 0.10286 0.0473 0.72016 0.0
O40 O 0.9879 0.02615 0.7676 0.0
O41 O 0.08942 0.02776 0.73587 0.0
H42 H 0.00936 0.4308 0.13193 0.0
H43 H 0.10676 0.91727 0.27877 0.0
H44 H 0.92238 0.40179 0.24216 0.0
H45 H 0.90509 0.30974 0.22877 0.0
H46 H 0.08564 0.39296 0.21364 0.0
H47 H 0.10307 0.48308 0.22839 0.0
H48 H 0.94792 0.46842 0.20509 0.0
H49 H 0.95629 0.44107 0.1738 0.0
H50 H 0.1408 0.56457 0.17615 0.0
H51 H 0.13191 0.59088 0.20752 0.0
H52 H 0.96321 0.5974 0.20875 0.0
H53 H 0.98111 0.66218 0.18419 0.0
H54 H 0.16282 0.76167 0.19936 0.0
H55 H 0.14416 0.69658 0.22405 0.0
H56 H 0.9462 0.63643 0.25417 0.0
H57 H 0.95247 0.72815 0.26324 0.0
H58 H 0.13932 0.81131 0.26692 0.0
H59 H 0.13225 0.71921 0.25796 0.0
H60 H 0.92096 0.5399 0.28176 0.0
H61 H 0.90885 0.57953 0.31071 0.0
H62 H 0.09543 0.68782 0.31623 0.0
H63 H 0.10667 0.6458 0.28784 0.0
H64 H 0.91629 0.44123 0.27533 0.0
H65 H 0.90541 0.36857 0.29643 0.0
H66 H 0.09105 0.44017 0.29595 0.0
H67 H 0.101 0.51123 0.27458 0.0
O68 O 0.00698 0.44247 0.1443 0.0
O69 O 0.10146 0.50727 0.14611 0.0
O70 O 0.00683 0.83575 0.27296 0.0
O71 O 0.10302 0.88054 0.27504 0.0
C72 C 0.02175 0.50667 0.24118 0.0
C73 C 0.03427 0.54697 0.2277 0.0
C74 C 0.04132 0.60157 0.23243 0.0
C75 C 0.03448 0.61537 0.25048 0.0
C76 C 0.02166 0.57494 0.26391 0.0
C77 C 0.01598 0.52094 0.2593 0.0
C78 C 0.01386 0.44914 0.23608 0.0
C79 C 0.95857 0.39938 0.23658 0.0
C80 C 0.94866 0.34699 0.22868 0.0
C81 C -0.00639 0.34393 0.21975 0.0
C82 C 0.04993 0.39311 0.2205 0.0
C83 C 0.06 0.44505 0.22876 0.0
C84 C 0.03927 0.53167 0.20854 0.0
C85 C 0.99008 0.48949 0.19881 0.0
C86 C -0.005 0.47399 0.18094 0.0
C87 C 0.04923 0.50065 0.17247 0.0
C88 C 0.09839 0.54324 0.18226 0.0
C89 C 0.09342 0.55852 0.20015 0.0
C90 C 0.0523 0.64274 0.21819 0.0
C91 C 0.00677 0.63339 0.20679 0.0
C92 C 0.01724 0.67007 0.1927 0.0
C93 C 0.07352 0.71676 0.18976 0.0
C94 C 0.119 0.72632 0.20137 0.0
C95 C 0.10845 0.68939 0.21546 0.0
C96 C 0.03879 0.67151 0.25529 0.0
C97 C 0.9884 0.67465 0.25685 0.0
C98 C 0.99214 0.72702 0.26206 0.0
C99 C 0.04645 0.77712 0.26579 0.0
C100 C 0.09686 0.77364 0.26412 0.0
C101 C 0.09301 0.72121 0.25894 0.0
C102 C 0.01466 0.5901 0.28279 0.0
C103 C 0.95908 0.57067 0.2896 0.0
C104 C 0.9523 0.59384 0.30603 0.0
C105 C 0.0011 0.63734 0.31576 0.0
C106 C 0.05682 0.65385 0.30932 0.0
C107 C 0.06347 0.63021 0.29302 0.0
C108 C 0.00942 0.48126 0.27351 0.0
C109 C 0.95451 0.44146 0.28001 0.0
C110 C 0.94844 0.4001 0.29203 0.0
C111 C -0.0027 0.3982 0.29769 0.0
C112 C 0.05242 0.43964 0.29155 0.0
C113 C 0.05834 0.48064 0.27951 0.0
C114 C 0.05436 0.48385 0.15351 0.0
C115 C 0.05066 0.83276 0.27146 0.0
H116 H 0.59611 0.03629 0.46038 0.0
H117 H 0.24635 0.12571 0.61809 0.0
H118 H 0.5621 0.95474 0.55738 0.0
H119 H 0.64157 0.9525 0.54188 0.0
H120 H 0.75925 0.12937 0.56083 0.0
H121 H 0.6786 0.1319 0.57549 0.0
H122 H 0.48366 0.97799 0.53062 0.0
H123 H 0.51733 0.98655 0.49948 0.0
H124 H 0.66233 0.15754 0.51342 0.0
H125 H 0.62764 0.14868 0.54444 0.0
H126 H 0.38375 0.98451 0.54504 0.0
H127 H 0.33491 0.00592 0.52158 0.0
H128 H 0.46896 0.18698 0.52628 0.0
H129 H 0.51818 0.16454 0.54942 0.0
H130 H 0.35035 0.96654 0.58145 0.0
H131 H 0.2679 0.97348 0.59274 0.0
H132 H 0.38135 0.15805 0.60262 0.0
H133 H 0.46324 0.15038 0.59127 0.0
H134 H 0.4119 0.94455 0.60866 0.0
H135 H 0.3502 0.93718 0.63405 0.0
H136 H 0.46257 0.12019 0.64697 0.0
H137 H 0.52298 0.12726 0.62113 0.0
H138 H 0.53591 0.95436 0.60907 0.0
H139 H 0.59726 0.9603 0.63443 0.0
H140 H 0.70044 0.1462 0.62993 0.0
H141 H 0.63753 0.13978 0.60537 0.0
O142 O 0.58337 0.03395 0.47274 0.0
O143 O 0.65762 0.12129 0.48067 0.0
O144 O 0.22063 0.02741 0.60693 0.0
O145 O 0.27767 0.12204 0.61291 0.0
C146 C 0.56417 0.04887 0.57249 0.0
C147 C 0.53325 0.05677 0.55869 0.0
C148 C 0.48369 0.05997 0.56295 0.0
C149 C 0.46352 0.05276 0.58077 0.0
C150 C 0.49412 0.04427 0.59452 0.0
C151 C 0.54562 0.04454 0.59052 0.0
C152 C 0.61473 0.04333 0.56762 0.0
C153 C 0.60547 0.99231 0.55865 0.0
C154 C 0.65104 0.99114 0.54984 0.0
C155 C 0.7067 0.04102 0.54995 0.0
C156 C 0.71668 0.09054 0.56025 0.0
C157 C 0.67089 0.09183 0.5689 0.0
C158 C 0.55334 0.06262 0.53975 0.0
C159 C 0.52252 0.01734 0.52688 0.0
C160 C 0.54194 0.0223 0.50912 0.0
C161 C 0.59261 0.07268 0.50396 0.0
C162 C 0.62321 0.11812 0.51694 0.0
C163 C 0.60359 0.11316 0.53466 0.0
C164 C 0.45415 0.07305 0.54887 0.0
C165 C 0.40235 0.02872 0.54097 0.0
C166 C 0.37451 0.04116 0.52767 0.0
C167 C 0.39793 0.09827 0.52215 0.0
C168 C 0.45017 0.14253 0.53009 0.0
C169 C 0.4781 0.12993 0.54336 0.0
C170 C 0.41249 0.05799 0.58549 0.0
C171 C 0.35699 0.00851 0.58579 0.0
C172 C 0.31013 0.01259 0.59234 0.0
C173 C 0.31812 0.06632 0.59868 0.0
C174 C 0.37369 0.11603 0.59789 0.0
C175 C 0.42045 0.11187 0.59132 0.0
C176 C 0.47153 0.03645 0.61308 0.0
C177 C 0.42452 0.98245 0.61747 0.0
C178 C 0.38922 0.9784 0.63196 0.0
C179 C 0.40082 0.02839 0.64226 0.0
C180 C 0.45187 0.08119 0.63901 0.0
C181 C 0.48693 0.08521 0.62445 0.0
C182 C 0.58294 0.0466 0.60535 0.0
C183 C 0.57188 -0.00383 0.61364 0.0
C184 C 0.60706 -0.0003 0.62803 0.0
C185 C 0.6537 0.05378 0.63426 0.0
C186 C 0.66437 0.104 0.62574 0.0
C187 C 0.62899 0.10042 0.61155 0.0
C188 C 0.61334 0.07766 0.48512 0.0
C189 C 0.26905 0.07053 0.60637 0.0
H190 H 0.6334 0.74196 0.02785 0.0
H191 H 0.2546 0.21273 0.90009 0.0
H192 H 0.58823 0.72939 0.93031 0.0
H193 H 0.66479 0.81658 0.94612 0.0
H194 H 0.78475 0.75663 0.93614 0.0
H195 H 0.70796 0.66992 0.92005 0.0
H196 H 0.51478 0.64127 0.95849 0.0
H197 H 0.5505 0.68536 0.98869 0.0
H198 H 0.69233 0.65332 0.98291 0.0
H199 H 0.65567 0.60874 0.95281 0.0
H200 H 0.41257 0.52668 0.94437 0.0
H201 H 0.36262 0.47581 0.97143 0.0
H202 H 0.49536 0.43341 0.98014 0.0
H203 H 0.54509 0.48449 0.95297 0.0
H204 H 0.39073 0.50144 0.90058 0.0
H205 H 0.30333 0.40697 0.89437 0.0
H206 H 0.39305 0.32251 0.91256 0.0
H207 H 0.48037 0.41726 0.9185 0.0
H208 H 0.48062 0.60222 0.876 0.0
H209 H 0.43481 0.56123 0.84643 0.0
H210 H 0.47537 0.42585 0.85067 0.0
H211 H 0.52283 0.46842 0.87984 0.0
H212 H 0.58419 0.71474 0.89276 0.0
H213 H 0.64792 0.78066 0.87023 0.0
H214 H 0.70326 0.65951 0.85489 0.0
H215 H 0.6412 0.5951 0.87816 0.0
O216 O 0.61921 0.72307 0.01605 0.0
O217 O 0.69153 0.70597 0.01235 0.0
O218 O 0.24445 0.29622 0.89318 0.0
O219 O 0.28856 0.25068 0.90244 0.0
C220 C 0.59323 0.63445 0.92018 0.0
C221 C 0.56337 0.59923 0.93468 0.0
C222 C 0.51446 0.5438 0.9313 0.0
C223 C 0.49509 0.52352 0.91339 0.0
C224 C 0.52577 0.5586 0.89883 0.0
C225 C 0.5751 0.61401 0.90225 0.0
C226 C 0.64272 0.69345 0.92424 0.0
C227 C 0.63172 0.73641 0.93087 0.0
C228 C 0.67528 0.78583 0.93998 0.0
C229 C 0.73024 0.79265 0.94263 0.0
C230 C 0.74282 0.75253 0.93423 0.0
C231 C 0.69912 0.70304 0.92505 0.0
C232 C 0.5826 0.62175 0.95353 0.0
C233 C 0.55311 0.64317 0.96389 0.0
C234 C 0.5738 0.6686 0.98108 0.0
C235 C 0.62442 0.67308 0.98819 0.0
C236 C 0.65329 0.65064 0.97784 0.0
C237 C 0.63242 0.62506 0.96067 0.0
C238 C 0.48204 0.50877 0.94672 0.0
C239 C 0.43046 0.50589 0.95204 0.0
C240 C 0.40248 0.47748 0.96757 0.0
C241 C 0.42555 0.45124 0.97795 0.0
C242 C 0.47668 0.4532 0.97236 0.0
C243 C 0.50495 0.48212 0.95689 0.0
C244 C 0.44184 0.46612 0.90995 0.0
C245 C 0.39142 0.46246 0.90317 0.0
C246 C 0.34156 0.40846 0.89967 0.0
C247 C 0.34121 0.35715 0.90296 0.0
C248 C 0.39182 0.36112 0.90987 0.0
C249 C 0.4417 0.41516 0.91332 0.0
C250 C 0.50463 0.53799 0.88006 0.0
C251 C 0.48076 0.56452 0.8703 0.0
C252 C 0.45428 0.54083 0.8535 0.0
C253 C 0.45111 0.49008 0.84625 0.0
C254 C 0.47769 0.46537 0.85573 0.0
C255 C 0.50437 0.48925 0.87247 0.0
C256 C 0.60864 0.65057 0.88719 0.0
C257 C 0.60998 0.70246 0.88448 0.0
C258 C 0.64604 0.73977 0.87147 0.0
C259 C 0.68096 0.7255 0.86078 0.0
C260 C 0.67771 0.67226 0.8631 0.0
C261 C 0.64193 0.63517 0.87624 0.0
C262 C 0.64721 0.70157 0.00625 0.0
C263 C 0.2884 0.29966 0.89922 0.0
H264 H 0.0146 0.10433 0.1406 0.0
H265 H 0.93537 0.19102 0.11639 0.0
H266 H 0.00531 0.14071 0.17042 0.0
H267 H 0.92803 0.22876 0.14585 0.0
H268 H 0.89619 0.27716 0.19884 0.0
H269 H 0.88349 0.20927 0.17432 0.0
H270 H 0.05112 0.23206 0.18679 0.0
H271 H 0.06178 0.29642 0.21241 0.0
C272 C -0.00504 0.13087 0.14164 0.0
C273 C 0.97616 0.14519 0.1261 0.0
C274 C 0.98977 0.15181 0.15872 0.0
C275 C 0.96594 0.18768 0.16057 0.0
C276 C 0.94552 0.20031 0.14504 0.0
C277 C 0.95028 0.1791 0.12805 0.0
C278 C 0.92943 0.26605 0.19693 0.0
C279 C 0.98067 0.2934 0.20747 0.0
C280 C 0.92248 0.22769 0.18259 0.0
C281 C 0.96703 0.21659 0.17821 0.0
C282 C 0.01595 0.23976 0.1897 0.0
C283 C 0.02247 0.27742 0.20427 0.0
H284 H 0.84865 0.96206 0.4567 0.0
H285 H 0.98679 0.13367 0.47354 0.0
H286 H 0.7955 0.95864 0.48404 0.0
H287 H 0.93411 0.12984 0.50087 0.0
H288 H 0.77998 0.1309 0.52941 0.0
H289 H 0.84439 0.132 0.50606 0.0
H290 H 0.79742 0.95746 0.5178 0.0
H291 H 0.7332 0.95656 0.54161 0.0
C292 C 0.86789 -0.00126 0.46631 0.0
C293 C 0.92151 0.0484 0.46287 0.0
C294 C 0.83771 -0.0034 0.48202 0.0
C295 C 0.86059 0.04412 0.49453 0.0
C296 C 0.91511 0.0929 0.49135 0.0
C297 C 0.94526 0.09501 0.4757 0.0
C298 C 0.78457 0.09331 0.52746 0.0
C299 C 0.75152 0.04369 0.53746 0.0
C300 C 0.82138 0.09388 0.51399 0.0
C301 C 0.82581 0.04476 0.51008 0.0
C302 C 0.79429 -0.0043 0.52041 0.0
C303 C 0.75762 -0.00476 0.53403 0.0
H304 H 0.94679 0.92711 0.7819 0.0
H305 H 0.89904 0.04318 0.80816 0.0
H306 H 0.87726 0.84878 0.80048 0.0
H307 H 0.82983 0.96502 0.82654 0.0
H308 H 0.66424 0.7952 0.83884 0.0
H309 H 0.73526 0.86998 0.81976 0.0
H310 H 0.86217 0.82478 0.8341 0.0
H311 H 0.79184 0.75099 0.85365 0.0
C312 C 0.92176 0.936 0.79167 0.0
C313 C 0.92831 0.99131 0.79351 0.0
C314 C 0.88214 0.89124 0.80231 0.0
C315 C 0.84791 0.90086 0.81478 0.0
C316 C 0.85514 0.9563 0.81683 0.0
C317 C 0.89511 0.00113 0.80638 0.0
C318 C 0.70734 0.80132 0.83802 0.0
C319 C 0.72242 0.76735 0.84789 0.0
C320 C 0.74789 0.84403 0.82707 0.0
C321 C 0.80421 0.85331 0.82559 0.0
C322 C 0.81886 0.81816 0.83492 0.0
C323 C 0.77846 0.77578 0.84604 0.0
H324 H 0.98571 0.87816 0.11143 0.0
H325 H 0.17055 -0.0017 0.11556 0.0
H326 H -0.00478 0.81306 0.1309 0.0
H327 H 0.1801 0.93243 0.13522 0.0
H328 H 0.13962 0.83517 0.19046 0.0
H329 H 0.14668 0.89915 0.16688 0.0
H330 H 0.03781 0.75008 0.13178 0.0
H331 H 0.03103 0.68616 0.15525 0.0
C332 C 0.02853 0.8904 0.11637 0.0
C333 C 0.07736 0.94345 0.11207 0.0
C334 C 0.03403 0.85285 0.12741 0.0
C335 C 0.08843 0.86762 0.13453 0.0
C336 C 0.13763 0.92016 0.12995 0.0
C337 C 0.13219 0.95763 0.11867 0.0
C338 C 0.11828 0.81612 0.17756 0.0
C339 C 0.08394 0.75566 0.1748 0.0
C340 C 0.12244 0.85275 0.16406 0.0
C341 C 0.09224 0.82951 0.14759 0.0
C342 C 0.06071 0.76911 0.14447 0.0
C343 C 0.05665 0.73258 0.15792 0.0
H344 H 0.14983 0.13655 0.45903 0.0
H345 H 0.27366 0.14157 0.42038 0.0
H346 H 0.21081 0.13983 0.48364 0.0
H347 H 0.33372 0.1422 0.445 0.0
H348 H 0.44551 0.1718 0.49428 0.0
H349 H 0.3945 0.19094 0.47102 0.0
H350 H 0.23069 0.07079 0.49493 0.0
H351 H 0.28161 0.05451 0.51863 0.0
C352 C 0.19032 0.13863 0.45583 0.0
C353 C 0.20675 0.13806 0.43782 0.0
C354 C 0.22511 0.14017 0.46991 0.0
C355 C 0.27656 0.14008 0.46628 0.0
C356 C 0.29454 0.14265 0.44828 0.0
C357 C 0.26006 0.14204 0.43416 0.0
C358 C 0.39866 0.15035 0.49472 0.0
C359 C 0.36755 0.11138 0.50824 0.0
C360 C 0.36942 0.16084 0.48128 0.0
C361 C 0.30852 0.13245 0.48109 0.0
C362 C 0.27766 0.09419 0.4948 0.0
C363 C 0.30681 0.08405 0.50824 0.0
H364 H 0.17551 0.30445 0.76462 0.0
H365 H 0.23783 0.19352 0.7812 0.0
H366 H 0.25639 0.38678 0.781 0.0
H367 H 0.31791 0.27523 0.79757 0.0
H368 H 0.47493 0.43557 0.81832 0.0
H369 H 0.40772 0.37051 0.79464 0.0
H370 H 0.27862 0.40972 0.81384 0.0
H371 H 0.34515 0.47397 0.83753 0.0
C372 C 0.20678 0.29781 0.77159 0.0
C373 C 0.20004 0.24248 0.77183 0.0
C374 C 0.25295 0.34485 0.78096 0.0
C375 C 0.29341 0.33741 0.79056 0.0
C376 C 0.28791 0.28254 0.79011 0.0
C377 C 0.24165 0.23557 0.78089 0.0
C378 C 0.43245 0.43081 0.81732 0.0
C379 C 0.41513 0.45937 0.82994 0.0
C380 C 0.39408 0.39371 0.80376 0.0
C381 C 0.33777 0.38462 0.80252 0.0
C382 C 0.32192 0.41628 0.81433 0.0
C383 C 0.36016 0.45319 0.82792 0.0
H384 H 0.93334 0.07025 0.6965 0.0
H385 H 0.85592 0.13766 0.73406 0.0
H386 H 0.85944 0.05106 0.67398 0.0
H387 H 0.78052 0.1161 0.71191 0.0
H388 H 0.69942 0.13723 0.6615 0.0
H389 H 0.76854 0.1506 0.68476 0.0
H390 H 0.76004 0.99215 0.66573 0.0
H391 H 0.69374 0.98101 0.64156 0.0
C392 C 0.90016 0.08042 0.7 0.0
C393 C 0.90075 0.10598 0.71698 0.0
C394 C 0.85746 0.06898 0.68715 0.0
C395 C 0.81396 0.08212 0.69108 0.0
C396 C 0.81397 0.1065 0.70825 0.0
C397 C 0.85711 0.1187 0.72099 0.0
C398 C 0.71266 0.10547 0.66215 0.0
C399 C 0.69159 0.05846 0.64949 0.0
C400 C 0.75171 0.11265 0.6757 0.0
C401 C 0.77011 0.07254 0.67714 0.0
C402 C 0.74757 0.02442 0.66485 0.0
C403 C 0.70887 0.01755 0.65114 0.0
H404 H 0.88861 0.00872 0.0398 0.0
H405 H 0.00779 0.95545 0.02095 0.0
H406 H 0.83084 0.96681 0.01228 0.0
H407 H 0.94866 0.91137 -0.00637 0.0
H408 H 0.84812 0.86601 0.94084 0.0
H409 H 0.91381 0.92658 0.96563 0.0
H410 H 0.76688 0.87042 0.0009 0.0
H411 H 0.70207 0.81155 0.97629 0.0
C412 C 0.90233 0.98784 0.02978 0.0
C413 C 0.95221 0.9846 0.03259 0.0
C414 C 0.8692 0.96376 0.01402 0.0
C415 C 0.88479 0.93521 0.00084 0.0
C416 C 0.93578 0.93359 0.00342 0.0
C417 C 0.96936 0.95833 0.01913 0.0
C418 C 0.83015 0.86762 0.95385 0.0
C419 C 0.77008 0.8348 0.9566 0.0
C420 C 0.86762 0.9019 0.96804 0.0
C421 C 0.84556 0.90344 0.98523 0.0
C422 C 0.78531 0.87143 0.98776 0.0
C423 C 0.74805 0.83765 0.97362 0.0
H424 H 0.93693 0.86683 0.38791 0.0
H425 H 0.11426 0.95086 0.36984 0.0
H426 H 0.92045 0.77378 0.37501 0.0
H427 H 0.09813 0.85844 0.35741 0.0
H428 H 0.06723 0.68126 0.34681 0.0
H429 H 0.07083 0.75558 0.36781 0.0
H430 H 0.92346 0.7435 0.34058 0.0
H431 H 0.92097 0.67119 0.31916 0.0
C432 C 0.97248 0.86522 0.38144 0.0
C433 C 0.02668 0.91603 0.37968 0.0
C434 C 0.96306 0.81217 0.37411 0.0
C435 C 0.00818 0.80909 0.36538 0.0
C436 C 0.06287 0.85952 0.36431 0.0
C437 C 0.07189 0.91248 0.37124 0.0
C438 C 0.03505 0.69381 0.34545 0.0
C439 C -0.00546 0.67099 0.33107 0.0
C440 C 0.03694 0.73601 0.35753 0.0
C441 C -0.00226 0.75544 0.35566 0.0
C442 C 0.95386 0.72886 0.34239 0.0
C443 C 0.95244 0.68724 0.33014 0.0
H444 H 0.16334 -0.00522 0.72844 0.0
H445 H 0.11909 0.06499 0.68418 0.0
H446 H 0.2331 0.98545 0.70947 0.0
H447 H 0.18694 0.05348 0.66497 0.0
H448 H 0.3666 0.10756 0.64524 0.0
H449 H 0.2897 0.1042 0.66351 0.0
H450 H 0.25217 0.94029 0.68376 0.0
H451 H 0.33189 0.94532 0.66605 0.0
C452 C 0.16743 0.00676 0.71451 0.0
C453 C 0.1364 0.03133 0.70784 0.0
C454 C 0.20734 0.00131 0.70362 0.0
C455 C 0.21648 0.0198 0.6858 0.0
C456 C 0.18223 0.04044 0.6788 0.0
C457 C 0.14296 0.04656 0.68974 0.0
C458 C 0.34293 0.07141 0.6539 0.0
C459 C 0.356 0.02714 0.65441 0.0
C460 C 0.29788 0.06883 0.6641 0.0
C461 C 0.2642 0.0216 0.67496 0.0
C462 C 0.27746 0.97742 0.67561 0.0
C463 C 0.32289 0.98014 0.66541 0.0
H464 H 0.14292 0.28684 0.04721 0.0
H465 H 0.2386 0.20475 0.06168 0.0
H466 H 0.22498 0.35666 0.03029 0.0
H467 H 0.32197 0.27609 0.04493 0.0
H468 H 0.39958 0.34409 0.9878 0.0
H469 H 0.33841 0.28936 0.01262 0.0
H470 H 0.32332 0.43642 0.03015 0.0
H471 H 0.38361 0.4906 0.00507 0.0
C472 C 0.18202 0.28446 0.0471 0.0
C473 C 0.18389 0.23965 0.05554 0.0
C474 C 0.2294 0.32493 0.03751 0.0
C475 C 0.27992 0.32167 0.03613 0.0
C476 C 0.2833 0.27918 0.04555 0.0
C477 C 0.23573 0.2386 0.05524 0.0
C478 C 0.38412 0.36501 -0.00281 0.0
C479 C 0.39538 0.42111 -0.00563 0.0
C480 C 0.34934 0.33383 0.01148 0.0
C481 C 0.3255 0.35835 0.02325 0.0
C482 C 0.34012 0.41594 0.0211 0.0
C483 C 0.3745 0.44691 0.00675 0.0
H484 H 0.08899 0.22126 0.37104 0.0
H485 H 0.9018 0.11763 0.37192 0.0
H486 H 0.08316 0.2814 0.34853 0.0
H487 H 0.89608 0.17846 0.34928 0.0
H488 H 0.92747 0.35561 0.32717 0.0
H489 H 0.92336 0.28532 0.34794 0.0
H490 H 0.04963 0.26823 0.31601 0.0
H491 H 0.05301 0.33727 0.29511 0.0
C492 C 0.04657 0.21129 0.3664 0.0
C493 C -0.00416 0.1648 0.37323 0.0
C494 C 0.04327 0.24551 0.35343 0.0
C495 C 0.98918 0.23435 0.34714 0.0
C496 C 0.93829 0.18801 0.35398 0.0
C497 C 0.9416 0.15317 0.36684 0.0
C498 C 0.95359 0.3361 0.32443 0.0
C499 C 0.99128 0.3527 0.30967 0.0
C500 C 0.95121 0.29592 0.3363 0.0
C501 C 0.98667 0.27196 0.33365 0.0
C502 C 0.02262 0.28689 0.31853 0.0
C503 C 0.02473 0.32662 0.30663 0.0
loop_
_geom_bond_atom_site_label_1
_geom_bond_atom_site_label_2
_geom_bond_distance
_geom_bond_site_symmetry_2
_ccdc_geom_bond_type
C0 O1 1.306 . S
C0 O3 1.160 . S
O1 C0 1.306 . S
O1 Cd2 2.228 . S
Cd2 O1 2.228 . S
Cd2 O6 2.273 1_455 S
Cd2 O10 2.277 . S
O3 C0 1.160 . S
O3 Cd4 2.203 . S
Cd4 O3 2.203 . S
Cd4 O6 2.411 1_455 S
Cd4 O7 2.333 1_545 S
Cd4 O8 2.352 1_545 S
Cd4 O12 2.277 . S
Cd4 O13 2.356 . S
C5 O10 1.209 . S
C5 O12 1.226 . S
O6 Cd2 2.273 1_655 S
O6 Cd4 2.411 1_655 S
O6 C9 1.321 1_545 S
O7 Cd4 2.333 1_565 S
O7 C9 1.213 1_455 S
O8 Cd4 2.352 1_565 S
O8 C11 1.258 . S
C9 O6 1.321 1_565 S
C9 O7 1.213 1_655 S
O10 Cd2 2.277 . S
O10 C5 1.209 . S
C11 O8 1.258 . S
C11 O13 1.282 1_565 S
O12 Cd4 2.277 . S
O12 C5 1.226 . S
O13 Cd4 2.356 . S
O13 C11 1.282 1_545 S
C14 O15 1.306 . S
C14 O17 1.160 . S
O15 C14 1.306 . S
O15 Cd16 2.228 . S
Cd16 O15 2.228 . S
Cd16 O20 2.273 . S
Cd16 O24 2.271 1_545 S
O17 C14 1.160 . S
O17 Cd18 2.203 1_455 S
Cd18 O17 2.203 1_655 S
Cd18 O20 2.411 1_655 S
Cd18 O21 2.333 . S
Cd18 O22 2.352 . S
Cd18 O26 2.277 1_545 S
Cd18 O27 2.356 1_545 S
C19 O24 1.214 . S
C19 O26 1.226 1_455 S
O20 Cd16 2.273 . S
O20 Cd18 2.411 1_455 S
O20 C23 1.320 . S
O21 Cd18 2.333 . S
O21 C23 1.214 1_655 S
O22 Cd18 2.352 . S
O22 C25 1.258 . S
C23 O20 1.320 . S
C23 O21 1.214 1_455 S
O24 Cd16 2.271 1_565 S
O24 C19 1.214 . S
C25 O22 1.258 . S
C25 O27 1.282 1_545 S
O26 Cd18 2.277 1_565 S
O26 C19 1.226 1_655 S
O27 Cd18 2.356 1_565 S
O27 C25 1.282 1_565 S
C28 O29 1.306 . S
C28 O31 1.160 . S
O29 C28 1.306 . S
O29 Cd30 2.228 . S
Cd30 O29 2.228 . S
Cd30 O34 2.273 . S
Cd30 O38 2.277 . S
O31 C28 1.160 . S
O31 Cd32 2.203 . S
Cd32 O31 2.203 . S
Cd32 O34 2.411 . S
Cd32 O35 2.333 . S
Cd32 O36 2.352 . S
Cd32 O40 2.277 . S
Cd32 O41 2.356 . S
C33 O38 1.209 . S
C33 O40 1.226 . S
O34 Cd30 2.273 . S
O34 Cd32 2.411 . S
O34 C37 1.320 . S
O35 Cd32 2.333 . S
O35 C37 1.214 . S
O36 Cd32 2.352 . S
O36 C39 1.258 . S
C37 O34 1.320 . S
C37 O35 1.214 . S
O38 Cd30 2.277 . S
O38 C33 1.209 . S
C39 O36 1.258 . S
C39 O41 1.282 . S
O40 Cd32 2.277 . S
O40 C33 1.226 . S
O41 Cd32 2.356 . S
O41 C39 1.282 . S
H42 O68 0.856 . S
H43 O71 0.854 . S
H44 C79 0.930 . S
H45 C80 0.930 . S
H46 C82 0.930 . S
H47 C83 0.930 . S
H48 C85 0.931 1_655 S
H49 C86 0.930 1_655 S
H50 C88 0.930 . S
H51 C89 0.929 . S
H52 C91 0.930 1_655 S
H53 C92 0.931 1_655 S
H54 C94 0.930 . S
H55 C95 0.929 . S
H56 C97 0.931 1_655 S
H57 C98 0.930 1_655 S
H58 C100 0.930 . S
H59 C101 0.932 . S
H60 C103 0.930 . S
H61 C104 0.929 . S
H62 C106 0.931 . S
H63 C107 0.930 . S
H64 C109 0.929 . S
H65 C110 0.935 . S
H66 C112 0.930 . S
H67 C113 0.929 . S
O68 H42 0.856 . S
O68 C114 1.300 . S
O69 C114 1.209 . S
O70 C115 1.199 . S
O71 H43 0.854 . S
O71 C115 1.297 . S
C72 C73 1.404 . S
C72 C77 1.397 . S
C72 C78 1.492 . S
C73 C72 1.404 . S
C73 C74 1.396 . S
C73 C84 1.492 . S
C74 C73 1.396 . S
C74 C75 1.397 . S
C74 C90 1.509 . S
C75 C74 1.397 . S
C75 C76 1.412 . S
C75 C96 1.485 . S
C76 C75 1.412 . S
C76 C77 1.388 . S
C76 C102 1.490 . S
C77 C72 1.397 . S
C77 C76 1.388 . S
C77 C108 1.519 . S
C78 C72 1.492 . S
C78 C79 1.363 1_455 S
C78 C83 1.390 . S
C79 H44 0.930 . S
C79 C78 1.363 1_655 S
C79 C80 1.372 . S
C80 H45 0.930 . S
C80 C79 1.372 . S
C80 C81 1.383 1_655 S
C81 C80 1.383 1_455 S
C81 C82 1.395 . S
C82 H46 0.930 . S
C82 C81 1.395 . S
C82 C83 1.362 . S
C83 H47 0.930 . S
C83 C78 1.390 . S
C83 C82 1.362 . S
C84 C73 1.492 . S
C84 C85 1.377 . S
C84 C89 1.397 . S
C85 H48 0.931 1_455 S
C85 C84 1.377 . S
C85 C86 1.376 . S
C86 H49 0.930 1_455 S
C86 C85 1.376 . S
C86 C87 1.376 . S
C87 C86 1.376 . S
C87 C88 1.378 . S
C87 C114 1.486 . S
C88 H50 0.930 . S
C88 C87 1.378 . S
C88 C89 1.376 . S
C89 H51 0.929 . S
C89 C84 1.397 . S
C89 C88 1.376 . S
C90 C74 1.509 . S
C90 C91 1.391 . S
C90 C95 1.386 . S
C91 H52 0.930 1_455 S
C91 C90 1.391 . S
C91 C92 1.375 . S
C92 H53 0.931 1_455 S
C92 C91 1.375 . S
C92 C93 1.375 . S
C93 C92 1.375 . S
C93 C94 1.361 . S
C94 H54 0.930 . S
C94 C93 1.361 . S
C94 C95 1.399 . S
C95 H55 0.929 . S
C95 C90 1.386 . S
C95 C94 1.399 . S
C96 C75 1.485 . S
C96 C97 1.394 . S
C96 C101 1.360 . S
C97 H56 0.931 1_455 S
C97 C96 1.394 . S
C97 C98 1.372 . S
C98 H57 0.930 1_455 S
C98 C97 1.372 . S
C98 C99 1.397 . S
C99 C98 1.397 . S
C99 C100 1.390 . S
C99 C115 1.476 . S
C100 H58 0.930 . S
C100 C99 1.390 . S
C100 C101 1.366 . S
C101 H59 0.932 . S
C101 C96 1.360 . S
C101 C100 1.366 . S
C102 C76 1.490 . S
C102 C103 1.380 1_455 S
C102 C107 1.386 . S
C103 H60 0.930 . S
C103 C102 1.380 1_655 S
C103 C104 1.381 . S
C104 H61 0.929 . S
C104 C103 1.381 . S
C104 C105 1.371 1_655 S
C105 C104 1.371 1_455 S
C105 C106 1.380 . S
C106 H62 0.931 . S
C106 C105 1.380 . S
C106 C107 1.387 . S
C107 H63 0.930 . S
C107 C102 1.386 . S
C107 C106 1.387 . S
C108 C77 1.519 . S
C108 C109 1.377 1_455 S
C108 C113 1.361 . S
C109 H64 0.929 . S
C109 C108 1.377 1_655 S
C109 C110 1.391 . S
C110 H65 0.935 . S
C110 C109 1.391 . S
C110 C111 1.355 1_655 S
C111 C110 1.355 1_455 S
C111 C112 1.385 . S
C112 H66 0.930 . S
C112 C111 1.385 . S
C112 C113 1.396 . S
C113 H67 0.929 . S
C113 C108 1.361 . S
C113 C112 1.396 . S
C114 O68 1.300 . S
C114 O69 1.209 . S
C114 C87 1.486 . S
C115 O70 1.199 . S
C115 O71 1.297 . S
C115 C99 1.476 . S
H116 O142 0.856 . S
H117 O145 0.854 . S
H118 C153 0.930 1_565 S
H119 C154 0.930 1_565 S
H120 C156 0.930 . S
H121 C157 0.930 . S
H122 C159 0.931 . S
H123 C160 0.930 . S
H124 C162 0.930 . S
H125 C163 0.929 . S
H126 C165 0.930 . S
H127 C166 0.931 . S
H128 C168 0.930 . S
H129 C169 0.929 . S
H130 C171 0.931 . S
H131 C172 0.930 . S
H132 C174 0.930 . S
H133 C175 0.932 . S
H134 C177 0.930 . S
H135 C178 0.929 1_565 S
H136 C180 0.931 . S
H137 C181 0.930 . S
H138 C183 0.929 . S
H139 C184 0.931 . S
H140 C186 0.930 . S
H141 C187 0.929 . S
O142 H116 0.856 . S
O142 C188 1.300 . S
O143 C188 1.209 . S
O144 C189 1.199 . S
O145 H117 0.854 . S
O145 C189 1.297 . S
C146 C147 1.404 . S
C146 C151 1.397 . S
C146 C152 1.492 . S
C147 C146 1.404 . S
C147 C148 1.396 . S
C147 C158 1.492 . S
C148 C147 1.396 . S
C148 C149 1.397 . S
C148 C164 1.509 . S
C149 C148 1.397 . S
C149 C150 1.412 . S
C149 C170 1.485 . S
C150 C149 1.412 . S
C150 C151 1.388 . S
C150 C176 1.490 . S
C151 C146 1.397 . S
C151 C150 1.388 . S
C151 C182 1.519 . S
C152 C146 1.492 . S
C152 C153 1.363 . S
C152 C157 1.390 . S
C153 H118 0.930 1_545 S
C153 C152 1.363 . S
C153 C154 1.372 . S
C154 H119 0.930 1_545 S
C154 C153 1.372 . S
C154 C155 1.383 . S
C155 C154 1.383 . S
C155 C156 1.395 . S
C156 H120 0.930 . S
C156 C155 1.395 . S
C156 C157 1.362 . S
C157 H121 0.930 . S
C157 C152 1.390 . S
C157 C156 1.362 . S
C158 C147 1.492 . S
C158 C159 1.377 . S
C158 C163 1.397 . S
C159 H122 0.931 . S
C159 C158 1.377 . S
C159 C160 1.376 . S
C160 H123 0.930 . S
C160 C159 1.376 . S
C160 C161 1.376 . S
C161 C160 1.376 . S
C161 C162 1.378 . S
C161 C188 1.486 . S
C162 H124 0.930 . S
C162 C161 1.378 . S
C162 C163 1.376 . S
C163 H125 0.929 . S
C163 C158 1.397 . S
C163 C162 1.376 . S
C164 C148 1.509 . S
C164 C165 1.391 . S
C164 C169 1.386 . S
C165 H126 0.930 . S
C165 C164 1.391 . S
C165 C166 1.375 . S
C166 H127 0.931 . S
C166 C165 1.375 . S
C166 C167 1.375 . S
C167 C166 1.375 . S
C167 C168 1.361 . S
C168 H128 0.930 . S
C168 C167 1.361 . S
C168 C169 1.399 . S
C169 H129 0.929 . S
C169 C164 1.386 . S
C169 C168 1.399 . S
C170 C149 1.485 . S
C170 C171 1.394 . S
C170 C175 1.360 . S
C171 H130 0.931 . S
C171 C170 1.394 . S
C171 C172 1.372 . S
C172 H131 0.930 . S
C172 C171 1.372 . S
C172 C173 1.397 . S
C173 C172 1.397 . S
C173 C174 1.390 . S
C173 C189 1.476 . S
C174 H132 0.930 . S
C174 C173 1.390 . S
C174 C175 1.366 . S
C175 H133 0.932 . S
C175 C170 1.360 . S
C175 C174 1.366 . S
C176 C150 1.490 . S
C176 C177 1.380 . S
C176 C181 1.386 . S
C177 H134 0.930 . S
C177 C176 1.380 . S
C177 C178 1.381 . S
C178 H135 0.929 1_545 S
C178 C177 1.381 . S
C178 C179 1.371 . S
C179 C178 1.371 . S
C179 C180 1.380 . S
C180 H136 0.931 . S
C180 C179 1.380 . S
C180 C181 1.387 . S
C181 H137 0.930 . S
C181 C176 1.386 . S
C181 C180 1.387 . S
C182 C151 1.519 . S
C182 C183 1.377 . S
C182 C187 1.361 . S
C183 H138 0.929 . S
C183 C182 1.377 . S
C183 C184 1.386 . S
C184 H139 0.931 . S
C184 C183 1.386 . S
C184 C185 1.363 . S
C185 C184 1.363 . S
C185 C186 1.385 . S
C186 H140 0.930 . S
C186 C185 1.385 . S
C186 C187 1.396 . S
C187 H141 0.929 . S
C187 C182 1.361 . S
C187 C186 1.396 . S
C188 O142 1.300 . S
C188 O143 1.209 . S
C188 C161 1.486 . S
C189 O144 1.199 . S
C189 O145 1.297 . S
C189 C173 1.476 . S
H190 O216 0.856 . S
H191 O219 0.854 . S
H192 C227 0.930 . S
H193 C228 0.930 . S
H194 C230 0.930 . S
H195 C231 0.930 . S
H196 C233 0.931 . S
H197 C234 0.930 . S
H198 C236 0.930 1_554 S
H199 C237 0.929 . S
H200 C239 0.930 . S
H201 C240 0.931 . S
H202 C242 0.930 . S
H203 C243 0.929 . S
H204 C245 0.931 . S
H205 C246 0.930 . S
H206 C248 0.930 . S
H207 C249 0.932 . S
H208 C251 0.930 . S
H209 C252 0.929 . S
H210 C254 0.931 . S
H211 C255 0.930 . S
H212 C257 0.929 . S
H213 C258 0.931 . S
H214 C260 0.930 . S
H215 C261 0.929 . S
O216 H190 0.856 . S
O216 C262 1.300 . S
O217 C262 1.209 . S
O218 C263 1.199 . S
O219 H191 0.854 . S
O219 C263 1.297 . S
C220 C221 1.404 . S
C220 C225 1.397 . S
C220 C226 1.492 . S
C221 C220 1.404 . S
C221 C222 1.396 . S
C221 C232 1.492 . S
C222 C221 1.396 . S
C222 C223 1.397 . S
C222 C238 1.509 . S
C223 C222 1.397 . S
C223 C224 1.412 . S
C223 C244 1.485 . S
C224 C223 1.412 . S
C224 C225 1.388 . S
C224 C250 1.490 . S
C225 C220 1.397 . S
C225 C224 1.388 . S
C225 C256 1.519 . S
C226 C220 1.492 . S
C226 C227 1.363 . S
C226 C231 1.390 . S
C227 H192 0.930 . S
C227 C226 1.363 . S
C227 C228 1.372 . S
C228 H193 0.930 . S
C228 C227 1.372 . S
C228 C229 1.383 . S
C229 C228 1.383 . S
C229 C230 1.395 . S
C230 H194 0.930 . S
C230 C229 1.395 . S
C230 C231 1.362 . S
C231 H195 0.930 . S
C231 C226 1.390 . S
C231 C230 1.362 . S
C232 C221 1.492 . S
C232 C233 1.377 . S
C232 C237 1.397 . S
C233 H196 0.931 . S
C233 C232 1.377 . S
C233 C234 1.376 1_556 S
C234 H197 0.930 . S
C234 C233 1.376 1_554 S
C234 C235 1.376 . S
C235 C234 1.376 . S
C235 C236 1.378 1_554 S
C235 C262 1.486 . S
C236 H198 0.930 1_556 S
C236 C235 1.378 1_556 S
C236 C237 1.376 . S
C237 H199 0.929 . S
C237 C232 1.397 . S
C237 C236 1.376 . S
C238 C222 1.509 . S
C238 C239 1.391 . S
C238 C243 1.386 . S
C239 H200 0.930 . S
C239 C238 1.391 . S
C239 C240 1.375 . S
C240 H201 0.931 . S
C240 C239 1.375 . S
C240 C241 1.375 . S
C241 C240 1.375 . S
C241 C242 1.361 . S
C242 H202 0.930 . S
C242 C241 1.361 . S
C242 C243 1.399 . S
C243 H203 0.929 . S
C243 C238 1.386 . S
C243 C242 1.399 . S
C244 C223 1.485 . S
C244 C245 1.394 . S
C244 C249 1.360 . S
C245 H204 0.931 . S
C245 C244 1.394 . S
C245 C246 1.372 . S
C246 H205 0.930 . S
C246 C245 1.372 . S
C246 C247 1.397 . S
C247 C246 1.397 . S
C247 C248 1.390 . S
C247 C263 1.476 . S
C248 H206 0.930 . S
C248 C247 1.390 . S
C248 C249 1.366 . S
C249 H207 0.932 . S
C249 C244 1.360 . S
C249 C248 1.366 . S
C250 C224 1.490 . S
C250 C251 1.380 . S
C250 C255 1.386 . S
C251 H208 0.930 . S
C251 C250 1.380 . S
C251 C252 1.381 . S
C252 H209 0.929 . S
C252 C251 1.381 . S
C252 C253 1.371 . S
C253 C252 1.371 . S
C253 C254 1.380 . S
C254 H210 0.931 . S
C254 C253 1.380 . S
C254 C255 1.387 . S
C255 H211 0.930 . S
C255 C250 1.386 . S
C255 C254 1.387 . S
C256 C225 1.519 . S
C256 C257 1.377 . S
C256 C261 1.361 . S
C257 H212 0.929 . S
C257 C256 1.377 . S
C257 C258 1.386 . S
C258 H213 0.931 . S
C258 C257 1.386 . S
C258 C259 1.363 . S
C259 C258 1.363 . S
C259 C260 1.385 . S
C260 H214 0.930 . S
C260 C259 1.385 . S
C260 C261 1.396 . S
C261 H215 0.929 . S
C261 C256 1.361 . S
C261 C260 1.396 . S
C262 O216 1.300 . S
C262 O217 1.209 . S
C262 C235 1.486 . S
C263 O218 1.199 . S
C263 O219 1.297 . S
C263 C247 1.476 . S
H264 C272 0.950 . S
H265 C277 0.950 1_655 S
H266 C274 0.950 . S
H267 C276 0.950 1_655 S
H268 C278 0.950 . S
H269 C280 0.950 . S
H270 C282 0.950 . S
H271 C283 0.950 . S
C272 H264 0.950 . S
C272 C273 1.386 . S
C272 C274 1.391 . S
C273 C272 1.386 . S
C273 C277 1.393 . S
C274 H266 0.950 . S
C274 C272 1.391 . S
C274 C275 1.400 . S
C275 C274 1.400 . S
C275 C276 1.398 . S
C275 C281 1.491 . S
C276 H267 0.950 1_455 S
C276 C275 1.398 . S
C276 C277 1.391 . S
C277 H265 0.950 1_455 S
C277 C273 1.393 . S
C277 C276 1.391 . S
C278 H268 0.950 . S
C278 C279 1.386 1_655 S
C278 C280 1.391 . S
C279 C278 1.386 1_455 S
C279 C283 1.393 . S
C280 H269 0.950 . S
C280 C278 1.391 . S
C280 C281 1.400 1_655 S
C281 C275 1.491 . S
C281 C280 1.400 1_455 S
C281 C282 1.398 . S
C282 H270 0.950 . S
C282 C281 1.398 . S
C282 C283 1.391 . S
C283 H271 0.950 . S
C283 C279 1.393 . S
C283 C282 1.391 . S
H284 C292 0.950 . S
H285 C297 0.950 . S
H286 C294 0.950 . S
H287 C296 0.950 . S
H288 C298 0.950 . S
H289 C300 0.950 . S
H290 C302 0.950 . S
H291 C303 0.950 . S
C292 H284 0.950 . S
C292 C293 1.386 1_565 S
C292 C294 1.391 . S
C293 C292 1.386 1_545 S
C293 C297 1.393 . S
C294 H286 0.950 . S
C294 C292 1.391 . S
C294 C295 1.400 1_565 S
C295 C294 1.400 1_545 S
C295 C296 1.398 . S
C295 C301 1.491 . S
C296 H287 0.950 . S
C296 C295 1.398 . S
C296 C297 1.391 . S
C297 H285 0.950 . S
C297 C293 1.393 . S
C297 C296 1.391 . S
C298 H288 0.950 . S
C298 C299 1.386 . S
C298 C300 1.391 . S
C299 C298 1.386 . S
C299 C303 1.393 1_545 S
C300 H289 0.950 . S
C300 C298 1.391 . S
C300 C301 1.400 . S
C301 C295 1.491 . S
C301 C300 1.400 . S
C301 C302 1.398 1_545 S
C302 H290 0.950 . S
C302 C301 1.398 1_565 S
C302 C303 1.391 . S
C303 H291 0.950 . S
C303 C299 1.393 1_565 S
C303 C302 1.391 . S
H304 C312 0.950 . S
H305 C317 0.950 . S
H306 C314 0.950 . S
H307 C316 0.950 . S
H308 C318 0.950 . S
H309 C320 0.950 . S
H310 C322 0.950 . S
H311 C323 0.950 . S
C312 H304 0.950 . S
C312 C313 1.386 . S
C312 C314 1.391 . S
C313 C312 1.386 . S
C313 C317 1.393 . S
C314 H306 0.950 . S
C314 C312 1.391 . S
C314 C315 1.400 . S
C315 C314 1.400 . S
C315 C316 1.398 . S
C315 C321 1.491 . S
C316 H307 0.950 . S
C316 C315 1.398 . S
C316 C317 1.391 . S
C317 H305 0.950 . S
C317 C313 1.393 . S
C317 C316 1.391 . S
C318 H308 0.950 . S
C318 C319 1.386 . S
C318 C320 1.391 . S
C319 C318 1.386 . S
C319 C323 1.393 . S
C320 H309 0.950 . S
C320 C318 1.391 . S
C320 C321 1.400 . S
C321 C315 1.491 . S
C321 C320 1.400 . S
C321 C322 1.398 . S
C322 H310 0.950 . S
C322 C321 1.398 . S
C322 C323 1.391 . S
C323 H311 0.950 . S
C323 C319 1.393 . S
C323 C322 1.391 . S
H324 C332 0.950 1_655 S
H325 C337 0.950 1_545 S
H326 C334 0.950 1_655 S
H327 C336 0.950 . S
H328 C338 0.950 . S
H329 C340 0.950 . S
H330 C342 0.950 1_655 S
H331 C343 0.950 1_655 S
C332 H324 0.950 1_455 S
C332 C333 1.386 . S
C332 C334 1.391 . S
C333 C332 1.386 . S
C333 C337 1.393 . S
C334 H326 0.950 1_455 S
C334 C332 1.391 . S
C334 C335 1.400 . S
C335 C334 1.400 . S
C335 C336 1.398 . S
C335 C341 1.491 . S
C336 H327 0.950 . S
C336 C335 1.398 . S
C336 C337 1.391 . S
C337 H325 0.950 1_565 S
C337 C333 1.393 . S
C337 C336 1.391 . S
C338 H328 0.950 . S
C338 C339 1.386 . S
C338 C340 1.391 . S
C339 C338 1.386 . S
C339 C343 1.393 . S
C340 H329 0.950 . S
C340 C338 1.391 . S
C340 C341 1.400 . S
C341 C335 1.491 . S
C341 C340 1.400 . S
C341 C342 1.398 . S
C342 H330 0.950 1_455 S
C342 C341 1.398 . S
C342 C343 1.391 . S
C343 H331 0.950 1_455 S
C343 C339 1.393 . S
C343 C342 1.391 . S
H344 C352 0.950 . S
H345 C357 0.950 . S
H346 C354 0.950 . S
H347 C356 0.950 . S
H348 C358 0.950 . S
H349 C360 0.950 . S
H350 C362 0.950 . S
H351 C363 0.950 . S
C352 H344 0.950 . S
C352 C353 1.386 . S
C352 C354 1.391 . S
C353 C352 1.386 . S
C353 C357 1.393 . S
C354 H346 0.950 . S
C354 C352 1.391 . S
C354 C355 1.400 . S
C355 C354 1.400 . S
C355 C356 1.398 . S
C355 C361 1.491 . S
C356 H347 0.950 . S
C356 C355 1.398 . S
C356 C357 1.391 . S
C357 H345 0.950 . S
C357 C353 1.393 . S
C357 C356 1.391 . S
C358 H348 0.950 . S
C358 C359 1.386 . S
C358 C360 1.391 . S
C359 C358 1.386 . S
C359 C363 1.393 . S
C360 H349 0.950 . S
C360 C358 1.391 . S
C360 C361 1.400 . S
C361 C355 1.491 . S
C361 C360 1.400 . S
C361 C362 1.398 . S
C362 H350 0.950 . S
C362 C361 1.398 . S
C362 C363 1.391 . S
C363 H351 0.950 . S
C363 C359 1.393 . S
C363 C362 1.391 . S
H364 C372 0.950 . S
H365 C377 0.950 . S
H366 C374 0.950 . S
H367 C376 0.950 . S
H368 C378 0.950 . S
H369 C380 0.950 . S
H370 C382 0.950 . S
H371 C383 0.950 . S
C372 H364 0.950 . S
C372 C373 1.386 . S
C372 C374 1.391 . S
C373 C372 1.386 . S
C373 C377 1.393 . S
C374 H366 0.950 . S
C374 C372 1.391 . S
C374 C375 1.400 . S
C375 C374 1.400 . S
C375 C376 1.398 . S
C375 C381 1.491 . S
C376 H367 0.950 . S
C376 C375 1.398 . S
C376 C377 1.391 . S
C377 H365 0.950 . S
C377 C373 1.393 . S
C377 C376 1.391 . S
C378 H368 0.950 . S
C378 C379 1.386 . S
C378 C380 1.391 . S
C379 C378 1.386 . S
C379 C383 1.393 . S
C380 H369 0.950 . S
C380 C378 1.391 . S
C380 C381 1.400 . S
C381 C375 1.491 . S
C381 C380 1.400 . S
C381 C382 1.398 . S
C382 H370 0.950 . S
C382 C381 1.398 . S
C382 C383 1.391 . S
C383 H371 0.950 . S
C383 C379 1.393 . S
C383 C382 1.391 . S
H384 C392 0.950 . S
H385 C397 0.950 . S
H386 C394 0.950 . S
H387 C396 0.950 . S
H388 C398 0.950 . S
H389 C400 0.950 . S
H390 C402 0.950 . S
H391 C403 0.950 . S
C392 H384 0.950 . S
C392 C393 1.386 . S
C392 C394 1.391 . S
C393 C392 1.386 . S
C393 C397 1.393 . S
C394 H386 0.950 . S
C394 C392 1.391 . S
C394 C395 1.400 . S
C395 C394 1.400 . S
C395 C396 1.398 . S
C395 C401 1.491 . S
C396 H387 0.950 . S
C396 C395 1.398 . S
C396 C397 1.391 . S
C397 H385 0.950 . S
C397 C393 1.393 . S
C397 C396 1.391 . S
C398 H388 0.950 . S
C398 C399 1.386 . S
C398 C400 1.391 . S
C399 C398 1.386 . S
C399 C403 1.393 . S
C400 H389 0.950 . S
C400 C398 1.391 . S
C400 C401 1.400 . S
C401 C395 1.491 . S
C401 C400 1.400 . S
C401 C402 1.398 . S
C402 H390 0.950 . S
C402 C401 1.398 . S
C402 C403 1.391 . S
C403 H391 0.950 . S
C403 C399 1.393 . S
C403 C402 1.391 . S
H404 C412 0.950 . S
H405 C417 0.950 1_545 S
H406 C414 0.950 . S
H407 C416 0.950 . S
H408 C418 0.950 . S
H409 C420 0.950 . S
H410 C422 0.950 . S
H411 C423 0.950 . S
C412 H404 0.950 . S
C412 C413 1.386 . S
C412 C414 1.391 . S
C413 C412 1.386 . S
C413 C417 1.393 . S
C414 H406 0.950 . S
C414 C412 1.391 . S
C414 C415 1.400 . S
C415 C414 1.400 . S
C415 C416 1.398 . S
C415 C421 1.491 . S
C416 H407 0.950 . S
C416 C415 1.398 . S
C416 C417 1.391 . S
C417 H405 0.950 1_565 S
C417 C413 1.393 . S
C417 C416 1.391 . S
C418 H408 0.950 . S
C418 C419 1.386 . S
C418 C420 1.391 . S
C419 C418 1.386 . S
C419 C423 1.393 . S
C420 H409 0.950 . S
C420 C418 1.391 . S
C420 C421 1.400 1_556 S
C421 C415 1.491 . S
C421 C420 1.400 1_554 S
C421 C422 1.398 . S
C422 H410 0.950 . S
C422 C421 1.398 . S
C422 C423 1.391 1_554 S
C423 H411 0.950 . S
C423 C419 1.393 . S
C423 C422 1.391 1_556 S
H424 C432 0.950 . S
H425 C437 0.950 . S
H426 C434 0.950 . S
H427 C436 0.950 . S
H428 C438 0.950 . S
H429 C440 0.950 . S
H430 C442 0.950 . S
H431 C443 0.950 . S
C432 H424 0.950 . S
C432 C433 1.386 1_655 S
C432 C434 1.391 . S
C433 C432 1.386 1_455 S
C433 C437 1.393 . S
C434 H426 0.950 . S
C434 C432 1.391 . S
C434 C435 1.400 1_655 S
C435 C434 1.400 1_455 S
C435 C436 1.398 . S
C435 C441 1.491 . S
C436 H427 0.950 . S
C436 C435 1.398 . S
C436 C437 1.391 . S
C437 H425 0.950 . S
C437 C433 1.393 . S
C437 C436 1.391 . S
C438 H428 0.950 . S
C438 C439 1.386 . S
C438 C440 1.391 . S
C439 C438 1.386 . S
C439 C443 1.393 1_455 S
C440 H429 0.950 . S
C440 C438 1.391 . S
C440 C441 1.400 . S
C441 C435 1.491 . S
C441 C440 1.400 . S
C441 C442 1.398 1_455 S
C442 H430 0.950 . S
C442 C441 1.398 1_655 S
C442 C443 1.391 . S
C443 H431 0.950 . S
C443 C439 1.393 1_655 S
C443 C442 1.391 . S
H444 C452 0.950 . S
H445 C457 0.950 . S
H446 C454 0.950 . S
H447 C456 0.950 . S
H448 C458 0.950 . S
H449 C460 0.950 . S
H450 C462 0.950 . S
H451 C463 0.950 1_565 S
C452 H444 0.950 . S
C452 C453 1.386 . S
C452 C454 1.391 . S
C453 C452 1.386 . S
C453 C457 1.393 . S
C454 H446 0.950 . S
C454 C452 1.391 . S
C454 C455 1.400 . S
C455 C454 1.400 . S
C455 C456 1.398 . S
C455 C461 1.491 . S
C456 H447 0.950 . S
C456 C455 1.398 . S
C456 C457 1.391 . S
C457 H445 0.950 . S
C457 C453 1.393 . S
C457 C456 1.391 . S
C458 H448 0.950 . S
C458 C459 1.386 . S
C458 C460 1.391 . S
C459 C458 1.386 . S
C459 C463 1.393 . S
C460 H449 0.950 . S
C460 C458 1.391 . S
C460 C461 1.400 . S
C461 C455 1.491 . S
C461 C460 1.400 . S
C461 C462 1.398 . S
C462 H450 0.950 . S
C462 C461 1.398 . S
C462 C463 1.391 . S
C463 H451 0.950 1_545 S
C463 C459 1.393 . S
C463 C462 1.391 . S
H464 C472 0.950 . S
H465 C477 0.950 . S
H466 C474 0.950 . S
H467 C476 0.950 . S
H468 C478 0.950 . S
H469 C480 0.950 . S
H470 C482 0.950 . S
H471 C483 0.950 . S
C472 H464 0.950 . S
C472 C473 1.386 . S
C472 C474 1.391 . S
C473 C472 1.386 . S
C473 C477 1.393 . S
C474 H466 0.950 . S
C474 C472 1.391 . S
C474 C475 1.400 . S
C475 C474 1.400 . S
C475 C476 1.398 . S
C475 C481 1.491 . S
C476 H467 0.950 . S
C476 C475 1.398 . S
C476 C477 1.391 . S
C477 H465 0.950 . S
C477 C473 1.393 . S
C477 C476 1.391 . S
C478 H468 0.950 . S
C478 C479 1.386 . S
C478 C480 1.391 1_556 S
C479 C478 1.386 . S
C479 C483 1.393 1_556 S
C480 H469 0.950 . S
C480 C478 1.391 1_554 S
C480 C481 1.400 . S
C481 C475 1.491 . S
C481 C480 1.400 . S
C481 C482 1.398 . S
C482 H470 0.950 . S
C482 C481 1.398 . S
C482 C483 1.391 . S
C483 H471 0.950 . S
C483 C479 1.393 1_554 S
C483 C482 1.391 . S
H484 C492 0.950 . S
H485 C497 0.950 . S
H486 C494 0.950 . S
H487 C496 0.950 . S
H488 C498 0.950 1_655 S
H489 C500 0.950 1_655 S
H490 C502 0.950 . S
H491 C503 0.950 . S
C492 H484 0.950 . S
C492 C493 1.386 . S
C492 C494 1.391 . S
C493 C492 1.386 . S
C493 C497 1.393 1_455 S
C494 H486 0.950 . S
C494 C492 1.391 . S
C494 C495 1.400 . S
C495 C494 1.400 . S
C495 C496 1.398 1_455 S
C495 C501 1.491 . S
C496 H487 0.950 . S
C496 C495 1.398 1_655 S
C496 C497 1.391 . S
C497 H485 0.950 . S
C497 C493 1.393 1_655 S
C497 C496 1.391 . S
C498 H488 0.950 1_455 S
C498 C499 1.386 . S
C498 C500 1.391 . S
C499 C498 1.386 . S
C499 C503 1.393 . S
C500 H489 0.950 1_455 S
C500 C498 1.391 . S
C500 C501 1.400 . S
C501 C495 1.491 . S
C501 C500 1.400 . S
C501 C502 1.398 . S
C502 H490 0.950 . S
C502 C501 1.398 . S
C502 C503 1.391 . S
C503 H491 0.950 . S
C503 C499 1.393 . S
C503 C502 1.391 . S
C279 C81 1.430 . S
C273 C0 1.513 . S
C293 C25 1.453 . S
C299 C155 1.356 . S
C313 C33 2.129 1_665 S
C319 C259 2.132 . S
C333 C11 0.797 . S
C339 C93 0.791 . S
C359 C167 0.817 . S
C353 C14 0.813 . S
C373 C37 1.582 . S
C379 C253 1.480 . S
C399 C185 2.130 . S
C393 C28 2.131 1_655 S
C413 C9 1.572 . S
C419 C229 1.458 . S
C439 C105 1.519 . S
C433 C19 1.619 . S
C459 C179 1.416 . S
C453 C39 1.503 . S
C479 C241 0.831 . S
C473 C5 0.840 . S
C493 C23 2.231 . S
C499 C111 2.234 . S
