# Generated by pormake.
# Topology rtl, (3,6)-cn, num edge types: 1
# Building blocks:
#     Node 0, Type 0, BuildingBlock: INOVEN_clean_linker_0, # of connection points: 3
#     Node 1, Type 0, BuildingBlock: INOVEN_clean_linker_0, # of connection points: 3
#     Node 2, Type 0, BuildingBlock: INOVEN_clean_linker_0, # of connection points: 3
#     Node 3, Type 0, BuildingBlock: INOVEN_clean_linker_0, # of connection points: 3
#     Node 4, Type 1, BuildingBlock: FUNLAD_clean_sbu_0, # of connection points: 6
#     Node 5, Type 1, BuildingBlock: FUNLAD_clean_sbu_0, # of connection points: 6
#     Edge 6, Type (0, 1), BuildingBlock: EZIPEK_clean_linker_0, # of connection points: 2
#     Edge 7, Type (0, 1), BuildingBlock: EZIPEK_clean_linker_0, # of connection points: 2
#     Edge 8, Type (0, 1), BuildingBlock: EZIPEK_clean_linker_0, # of connection points: 2
#     Edge 9, Type (0, 1), BuildingBlock: EZIPEK_clean_linker_0, # of connection points: 2
#     Edge 10, Type (0, 1), BuildingBlock: EZIPEK_clean_linker_0, # of connection points: 2
#     Edge 11, Type (0, 1), BuildingBlock: EZIPEK_clean_linker_0, # of connection points: 2
#     Edge 12, Type (0, 1), BuildingBlock: EZIPEK_clean_linker_0, # of connection points: 2
#     Edge 13, Type (0, 1), BuildingBlock: EZIPEK_clean_linker_0, # of connection points: 2
#     Edge 14, Type (0, 1), BuildingBlock: EZIPEK_clean_linker_0, # of connection points: 2
#     Edge 15, Type (0, 1), BuildingBlock: EZIPEK_clean_linker_0, # of connection points: 2
#     Edge 16, Type (0, 1), BuildingBlock: EZIPEK_clean_linker_0, # of connection points: 2
#     Edge 17, Type (0, 1), BuildingBlock: EZIPEK_clean_linker_0, # of connection points: 2
# Relax obj value: 0.003
# Max RMSD: 0.042
# Mean RMSD: 0.027
data_MOF--net-rtl--node1-FUNLAD_clean_sbu_0--node2-INOVEN_clean_linker_0--edge1-EZIPEK_clean_linker_0
_symmetry_space_group_name_H-M    P1
_symmetry_Int_Tables_number       1
_symmetry_cell_setting            triclinic
loop_
_symmetry_equiv_pos_as_xyz
'x, y, z'
_cell_length_a     30.39884
_cell_length_b     30.438204
_cell_length_c     15.234893
_cell_angle_alpha  91.696215
_cell_angle_beta   92.742739
_cell_angle_gamma 89.905909
loop_
_atom_site_label
_atom_site_type_symbol
_atom_site_fract_x
_atom_site_fract_y
_atom_site_fract_z
_atom_type_partial_charge
H0 H 0.18624 0.83457 0.86134 0.0
H1 H 0.10785 0.92376 0.01221 0.0
H2 H 0.18326 0.8234 0.14266 0.0
N3 N 0.22011 0.79042 -0.00513 0.0
N4 N 0.23186 0.76835 0.05961 0.0
C5 C 0.17514 0.84646 0.92429 0.0
C6 C 0.14542 0.88171 0.92796 0.0
C7 C 0.18978 0.82578 0.00146 0.0
C8 C 0.17351 0.83995 0.08281 0.0
C9 C 0.14405 0.87545 0.08662 0.0
C10 C 0.13112 0.89672 0.00943 0.0
H11 H 0.68743 0.68184 0.68803 0.0
H12 H 0.59261 0.60374 0.53448 0.0
H13 H 0.68569 0.6818 0.40458 0.0
N14 N 0.72396 0.71877 0.554 0.0
N15 N 0.73594 0.73821 0.48825 0.0
C16 C 0.6731 0.67094 0.62461 0.0
C17 C 0.63792 0.64099 0.62003 0.0
C18 C 0.68971 0.68697 0.54728 0.0
C19 C 0.67213 0.67117 0.46492 0.0
C20 C 0.63722 0.64099 0.4605 0.0
C21 C 0.61958 0.62716 0.53802 0.0
H22 H 0.84288 0.18829 0.85184 0.0
H23 H 0.91882 0.09313 -0.0029 0.0
H24 H 0.83175 0.18026 0.13209 0.0
N25 N 0.80289 0.2237 0.98672 0.0
N26 N 0.7897 0.24274 0.05419 0.0
C27 C 0.85214 0.17319 0.91358 0.0
C28 C 0.88262 0.13851 0.91533 0.0
C29 C 0.8336 0.18854 -0.00873 0.0
C30 C 0.84593 0.16897 0.07153 0.0
C31 C 0.87709 0.13487 0.0738 0.0
C32 C 0.89495 0.11967 -0.00447 0.0
H33 H 0.33612 0.32963 0.3504 0.0
H34 H 0.42931 0.40728 0.50867 0.0
H35 H 0.33302 0.33069 0.63337 0.0
N36 N 0.29606 0.29454 0.48136 0.0
N37 N 0.27554 0.28269 0.54556 0.0
C38 C 0.34968 0.34042 0.41452 0.0
C39 C 0.38491 0.37023 0.42097 0.0
C40 C 0.33129 0.32517 0.49068 0.0
C41 C 0.34772 0.34097 0.57394 0.0
C42 C 0.38321 0.37055 0.58026 0.0
C43 C 0.4022 0.38404 0.50379 0.0
C44 C 0.05388 0.95765 0.37271 0.0
N45 N 0.08135 0.08154 0.49351 0.0
C46 C 0.12491 0.07096 0.49487 0.0
C47 C 0.1569 0.10399 0.50008 0.0
C48 C 0.14378 0.14815 0.50464 0.0
C49 C 0.09876 0.15825 0.50161 0.0
C50 C 0.0679 0.12424 0.49557 0.0
Zn51 Zn 0.03512 0.03269 0.49515 0.0
C52 C 0.96011 0.04643 0.36751 0.0
N53 N 0.93861 0.93123 0.50391 0.0
C54 C 0.9507 0.88817 0.50689 0.0
C55 C 0.89542 0.94323 0.50178 0.0
C56 C 0.86242 0.91141 0.50124 0.0
C57 C 0.87401 0.86688 0.50374 0.0
C58 C 0.9187 0.85523 0.50729 0.0
Zn59 Zn 0.98543 0.97948 0.5009 0.0
O60 O 0.06943 0.99429 0.40198 0.0
C61 C 0.05944 0.96616 0.62996 0.0
O62 O 0.01808 0.94366 0.40161 0.0
H63 H 0.88646 0.97759 0.49989 0.0
H64 H 0.13491 0.03686 0.49345 0.0
H65 H 0.98519 0.87932 0.50841 0.0
O66 O 0.07124 1.00309 0.60201 0.0
O67 O 0.02505 0.94769 0.59577 0.0
H68 H 0.03317 0.13199 0.49423 0.0
O69 O 0.95433 0.01532 0.60179 0.0
O70 O 0.99977 0.07029 0.58711 0.0
O71 O 0.94589 0.01298 0.40521 0.0
O72 O 0.99812 0.06139 0.39045 0.0
C73 C 0.96726 0.05391 0.62396 0.0
H74 H 0.19148 0.09523 0.50236 0.0
H75 H 0.08768 0.19207 0.50506 0.0
H76 H 0.82816 0.92136 0.49851 0.0
H77 H 0.92859 0.82106 0.50927 0.0
C78 C 0.46694 0.45888 0.88476 0.0
N79 N 0.58844 0.43681 0.02202 0.0
C80 C 0.57831 0.39326 0.01465 0.0
C81 C 0.61163 0.36162 0.01829 0.0
C82 C 0.65563 0.37504 0.03045 0.0
C83 C 0.66531 0.42005 0.03743 0.0
C84 C 0.63101 0.4506 0.03257 0.0
Zn85 Zn 0.53848 0.48207 0.0207 0.0
C86 C 0.55311 0.55351 0.89807 0.0
N87 N 0.43264 0.57491 0.01941 0.0
C88 C 0.39014 0.56096 0.02069 0.0
C89 C 0.44266 0.61853 0.02161 0.0
C90 C 0.40933 0.65005 0.02616 0.0
C91 C 0.36542 0.63643 0.02904 0.0
C92 C 0.35582 0.59137 0.02586 0.0
Zn93 Zn 0.48267 0.5297 0.01893 0.0
O94 O 0.50451 0.44641 0.91505 0.0
C95 C 0.46854 0.45808 0.1418 0.0
O96 O 0.44953 0.49321 0.91745 0.0
H97 H 0.47662 0.62893 0.021 0.0
H98 H 0.54431 0.38298 0.00678 0.0
H99 H 0.38286 0.52618 0.01886 0.0
O100 O 0.50584 0.4458 0.11575 0.0
O101 O 0.4508 0.49245 0.11074 0.0
H102 H 0.63837 0.48534 0.03812 0.0
O103 O 0.51637 0.56544 0.12419 0.0
O104 O 0.5713 0.51866 0.12263 0.0
O105 O 0.51566 0.56591 0.92344 0.0
O106 O 0.57068 0.51912 0.9295 0.0
C107 C 0.55379 0.55299 0.15504 0.0
H108 H 0.60319 0.32705 0.01287 0.0
H109 H 0.69903 0.43134 0.04697 0.0
H110 H 0.41769 0.68465 0.02869 0.0
H111 H 0.32218 0.57992 0.02813 0.0
C112 C 0.23627 0.2211 0.60401 0.0
C113 C 0.2405 0.25155 0.53662 0.0
C114 C 0.18278 0.21329 0.44668 0.0
C115 C 0.17709 0.18385 0.51574 0.0
N116 N 0.19171 0.16533 0.66739 0.0
N117 N 0.20717 0.28559 0.40875 0.0
C118 C 0.20193 0.18934 0.59671 0.0
C119 C 0.21083 0.25027 0.4618 0.0
N120 N 0.2661 0.22195 0.67403 0.0
N121 N 0.16225 0.20547 0.36599 0.0
H122 H 0.22384 0.31503 0.42316 0.0
H123 H 0.1834 0.28781 0.35749 0.0
H124 H 0.14166 0.17852 0.35202 0.0
H125 H 0.16886 0.22346 0.311 0.0
H126 H 0.2682 0.19764 0.72073 0.0
H127 H 0.29079 0.24573 0.68211 0.0
H128 H 0.20568 0.17098 0.73044 0.0
H129 H 0.16643 0.14213 0.66493 0.0
C130 C 0.26253 0.70448 0.97804 0.0
C131 C 0.26261 0.73312 0.05322 0.0
C132 C 0.32555 0.69317 0.11858 0.0
C133 C 0.32958 0.66933 0.03778 0.0
N134 N 0.30537 0.65636 0.88597 0.0
N135 N 0.29432 0.75642 0.19408 0.0
C136 C 0.29902 0.67611 0.9661 0.0
C137 C 0.29402 0.72762 0.12355 0.0
N138 N 0.22638 0.70219 0.92133 0.0
N139 N 0.35088 0.68199 0.1911 0.0
H140 H 0.27075 0.78117 0.20029 0.0
H141 H 0.31929 0.75765 0.2433 0.0
H142 H 0.37406 0.65669 0.19013 0.0
H143 H 0.34644 0.69517 0.25388 0.0
H144 H 0.22309 0.67918 0.86945 0.0
H145 H 0.19739 0.71931 0.93288 0.0
H146 H 0.28662 0.66384 0.82932 0.0
H147 H 0.33182 0.63545 0.87437 0.0
C148 C 0.79888 0.77213 0.42388 0.0
C149 C 0.76974 0.77072 0.4934 0.0
C150 C 0.8118 0.82895 0.57351 0.0
C151 C 0.83908 0.83267 0.50107 0.0
N152 N 0.85372 0.81336 0.35038 0.0
N153 N 0.74023 0.80765 0.62022 0.0
C154 C 0.83135 0.80572 0.42418 0.0
C155 C 0.77388 0.80171 0.56479 0.0
N156 N 0.79587 0.74054 0.35828 0.0
N157 N 0.82243 0.85091 0.65114 0.0
H158 H 0.70999 0.79175 0.61046 0.0
H159 H 0.74013 0.8325 0.66873 0.0
H160 H 0.85018 0.87095 0.66031 0.0
H161 H 0.80609 0.84587 0.70858 0.0
H162 H 0.81906 0.73653 0.31053 0.0
H163 H 0.77163 0.71621 0.35543 0.0
H164 H 0.84625 0.79786 0.28967 0.0
H165 H 0.87745 0.83792 0.34765 0.0
C166 C 0.72735 0.28118 0.11577 0.0
C167 C 0.75876 0.27796 0.05034 0.0
C168 C 0.72196 0.33732 0.9704 0.0
C169 C 0.69152 0.34193 0.03785 0.0
N170 N 0.67075 0.32477 0.18393 0.0
N171 N 0.79492 0.31344 0.9339 0.0
C172 C 0.6958 0.31573 0.11341 0.0
C173 C 0.7587 0.30893 0.98253 0.0
N174 N 0.72711 0.25024 0.1789 0.0
N175 N 0.71528 0.35915 0.89381 0.0
H176 H 0.82421 0.29654 0.94731 0.0
H177 H 0.79793 0.33806 0.88849 0.0
H178 H 0.68854 0.38002 0.88196 0.0
H179 H 0.73405 0.35337 0.83916 0.0
H180 H 0.70213 0.2475 0.22285 0.0
H181 H 0.75071 0.22534 0.18347 0.0
H182 H 0.67543 0.30969 0.24411 0.0
H183 H 0.64768 0.35016 0.18503 0.0
C184 C 0.0766 0.88462 0.17186 0.0
C185 C 0.12286 0.88894 0.16905 0.0
C186 C 0.12411 0.92784 0.31186 0.0
C187 C 0.07739 0.93164 0.30499 0.0
N188 N 0.00988 0.91959 0.2162 0.0
N189 N 0.19099 0.91871 0.23309 0.0
C190 C 0.05363 0.91122 0.23218 0.0
C191 C 0.14689 0.91144 0.23843 0.0
N192 N 0.05461 0.85518 0.11647 0.0
N193 N 0.14663 0.93815 0.38937 0.0
H194 H 0.20891 0.90703 0.1806 0.0
H195 H 0.20895 0.93918 0.27756 0.0
H196 H 0.13079 0.94724 0.44619 0.0
H197 H 0.18026 0.9325 0.39988 0.0
H198 H 0.02124 0.84819 0.12071 0.0
H199 H 0.07092 0.83423 0.07336 0.0
H200 H 0.99246 0.90861 0.15916 0.0
H201 H 0.9922 0.94172 0.25396 0.0
C202 C 0.59636 0.64563 0.75965 0.0
C203 C 0.62124 0.62079 0.69946 0.0
C204 C 0.59661 0.55279 0.76232 0.0
C205 C 0.57569 0.57735 0.82923 0.0
N206 N 0.56466 0.64807 0.90207 0.0
N207 N 0.65509 0.55168 0.66051 0.0
C208 C 0.57809 0.62411 0.83108 0.0
C209 C 0.62477 0.57465 0.70676 0.0
N210 N 0.58867 0.68928 0.74706 0.0
N211 N 0.58742 0.50917 0.7474 0.0
H212 H 0.6773 0.56706 0.62126 0.0
H213 H 0.66132 0.51835 0.66912 0.0
H214 H 0.56367 0.49245 0.78059 0.0
H215 H 0.59921 0.49108 0.6943 0.0
H216 H 0.5666 0.70766 0.78341 0.0
H217 H 0.60154 0.70628 0.69571 0.0
H218 H 0.56986 0.6818 0.91018 0.0
H219 H 0.55249 0.63375 0.95698 0.0
C220 C 0.91677 0.13767 0.2233 0.0
C221 C 0.89144 0.11392 0.15735 0.0
C222 C 0.90829 0.04512 0.23122 0.0
C223 C 0.93237 0.06911 0.29937 0.0
N224 N 0.94457 0.13937 0.37463 0.0
N225 N 0.85197 0.0477 0.11344 0.0
C226 C 0.93197 0.11581 0.29992 0.0
C227 C 0.88348 0.06848 0.16648 0.0
N228 N 0.92824 0.18039 0.21145 0.0
N229 N 0.91093 1.00035 0.22427 0.0
H230 H 0.83278 0.06414 0.06617 0.0
H231 H 0.84177 0.01557 0.12273 0.0
H232 H 0.92884 0.9812 0.26849 0.0
H233 H 0.89828 0.98226 0.16967 0.0
H234 H 0.95064 0.19742 0.2537 0.0
H235 H 0.91857 0.1976 0.15563 0.0
H236 H 0.94145 0.17343 0.38034 0.0
H237 H 0.95281 0.12454 0.43405 0.0
C238 C 0.39557 0.43719 0.67686 0.0
C239 C 0.39928 0.39103 0.66541 0.0
C240 C 0.44157 0.38821 0.80588 0.0
C241 C 0.44406 0.43497 0.80928 0.0
N242 N 0.43231 0.50298 0.73267 0.0
N243 N 0.4313 0.32266 0.71315 0.0
C244 C 0.42332 0.45932 0.74077 0.0
C245 C 0.4237 0.3664 0.72842 0.0
N246 N 0.36545 0.45991 0.62659 0.0
N247 N 0.45451 0.3646 0.87736 0.0
H248 H 0.41861 0.30544 0.65743 0.0
H249 H 0.45308 0.30437 0.75238 0.0
H250 H 0.46608 0.37927 0.93641 0.0
H251 H 0.44934 0.33088 0.88098 0.0
H252 H 0.35904 0.49325 0.63738 0.0
H253 H 0.34352 0.44432 0.58103 0.0
H254 H 0.42073 0.52089 0.67906 0.0
H255 H 0.45567 0.51994 0.77286 0.0
C256 C 0.59573 0.64515 0.31341 0.0
C257 C 0.62041 0.62047 0.37594 0.0
C258 C 0.59684 0.55231 0.29957 0.0
C259 C 0.57621 0.57679 0.23113 0.0
N260 N 0.56516 0.64745 0.16438 0.0
N261 N 0.65463 0.55158 0.41379 0.0
C262 C 0.57822 0.62356 0.23543 0.0
C263 C 0.62438 0.57435 0.3639 0.0
N264 N 0.58752 0.68871 0.32961 0.0
N265 N 0.58795 0.5086 0.30714 0.0
H266 H 0.6765 0.56707 0.45961 0.0
H267 H 0.66119 0.51832 0.40244 0.0
H268 H 0.56466 0.49169 0.26669 0.0
H269 H 0.5995 0.49057 0.36063 0.0
H270 H 0.56559 0.70694 0.2906 0.0
H271 H 0.5997 0.70573 0.38598 0.0
H272 H 0.57007 0.68125 0.16152 0.0
H273 H 0.55371 0.63306 0.10499 0.0
C274 C 0.94947 0.12511 0.82879 0.0
C275 C 0.90316 0.12192 0.83417 0.0
C276 C 0.89869 0.08249 0.69156 0.0
C277 C 0.94533 0.07912 0.69418 0.0
N278 N 0.01491 0.09035 0.7759 0.0
N279 N 0.83388 0.09161 0.77639 0.0
C280 C 0.97082 0.09885 0.7653 0.0
C281 C 0.87766 0.09918 0.76688 0.0
N282 N 0.97302 0.15349 0.88397 0.0
N283 N 0.87454 0.07112 0.61638 0.0
H284 H 0.81723 0.10258 0.83114 0.0
H285 H 0.81503 0.0711 0.73353 0.0
H286 H 0.88889 0.06059 0.55857 0.0
H287 H 0.84078 0.07675 0.60855 0.0
H288 H 0.00632 0.16003 0.87735 0.0
H289 H 0.95824 0.17391 0.93029 0.0
H290 H 0.03382 0.10055 0.83163 0.0
H291 H 0.03175 0.06914 0.73434 0.0
C292 C 0.42709 0.36593 0.28223 0.0
C293 C 0.40214 0.39068 0.3424 0.0
C294 C 0.4259 0.45874 0.27858 0.0
C295 C 0.44658 0.43421 0.21132 0.0
N296 N 0.45828 0.36335 0.13938 0.0
N297 N 0.36781 0.45962 0.38113 0.0
C298 C 0.4448 0.38741 0.21019 0.0
C299 C 0.39821 0.43678 0.33483 0.0
N300 N 0.4353 0.32242 0.29532 0.0
N301 N 0.43486 0.50243 0.29306 0.0
H302 H 0.34577 0.4442 0.42066 0.0
H303 H 0.36132 0.49288 0.37225 0.0
H304 H 0.45834 0.51924 0.25934 0.0
H305 H 0.42323 0.5205 0.34634 0.0
H306 H 0.45742 0.30413 0.2589 0.0
H307 H 0.42288 0.30549 0.34725 0.0
H308 H 0.45342 0.32954 0.13183 0.0
H309 H 0.4702 0.37754 0.0841 0.0
C310 C 0.07915 0.89775 0.83128 0.0
C311 C 0.12534 0.9009 0.84689 0.0
C312 C 0.12999 0.94399 0.71426 0.0
C313 C 0.08311 0.94576 0.70626 0.0
N314 N 0.01432 0.93562 0.77717 0.0
N315 N 0.19427 0.93382 0.81201 0.0
C316 C 0.05796 0.92581 0.77042 0.0
C317 C 0.15076 0.92593 0.79084 0.0
N318 N 0.05546 0.86748 0.87364 0.0
N319 N 0.15482 0.95778 0.648 0.0
H320 H 0.21058 0.92133 0.86766 0.0
H321 H 0.21308 0.95584 0.77854 0.0
H322 H 0.14135 0.97054 0.59021 0.0
H323 H 0.1887 0.95272 0.647 0.0
H324 H 0.0221 0.86167 0.85881 0.0
H325 H 0.07024 0.84483 0.91585 0.0
H326 H 0.99583 0.92441 0.82788 0.0
H327 H 0.99815 0.95941 0.73977 0.0
loop_
_geom_bond_atom_site_label_1
_geom_bond_atom_site_label_2
_geom_bond_distance
_geom_bond_site_symmetry_2
_ccdc_geom_bond_type
H0 C5 0.929 . S
H1 C10 0.931 . S
H2 C8 0.930 . S
N3 N4 1.234 1_556 S
N3 C7 1.453 1_556 S
N4 N3 1.234 1_554 S
C5 H0 0.929 . S
C5 C6 1.373 . S
C5 C7 1.368 1_556 S
C6 C5 1.373 . S
C6 C10 1.397 1_556 S
C7 N3 1.453 1_554 S
C7 C5 1.368 1_554 S
C7 C8 1.373 . S
C8 H2 0.930 . S
C8 C7 1.373 . S
C8 C9 1.371 . S
C9 C8 1.371 . S
C9 C10 1.383 . S
C10 H1 0.931 . S
C10 C6 1.397 1_554 S
C10 C9 1.383 . S
H11 C16 0.929 . S
H12 C21 0.931 . S
H13 C19 0.930 . S
N14 N15 1.234 . S
N14 C18 1.453 . S
N15 N14 1.234 . S
C16 H11 0.929 . S
C16 C17 1.373 . S
C16 C18 1.368 . S
C17 C16 1.373 . S
C17 C21 1.397 . S
C18 N14 1.453 . S
C18 C16 1.368 . S
C18 C19 1.373 . S
C19 H13 0.930 . S
C19 C18 1.373 . S
C19 C20 1.371 . S
C20 C19 1.371 . S
C20 C21 1.383 . S
C21 H12 0.931 . S
C21 C17 1.397 . S
C21 C20 1.383 . S
H22 C27 0.929 . S
H23 C32 0.931 . S
H24 C30 0.930 . S
N25 N26 1.234 1_556 S
N25 C29 1.453 . S
N26 N25 1.234 1_554 S
C27 H22 0.929 . S
C27 C28 1.373 . S
C27 C29 1.368 . S
C28 C27 1.373 . S
C28 C32 1.397 1_556 S
C29 N25 1.453 . S
C29 C27 1.368 . S
C29 C30 1.373 1_556 S
C30 H24 0.930 . S
C30 C29 1.373 1_554 S
C30 C31 1.371 . S
C31 C30 1.371 . S
C31 C32 1.383 . S
C32 H23 0.931 . S
C32 C28 1.397 1_554 S
C32 C31 1.383 . S
H33 C38 0.929 . S
H34 C43 0.931 . S
H35 C41 0.930 . S
N36 N37 1.234 . S
N36 C40 1.453 . S
N37 N36 1.234 . S
C38 H33 0.929 . S
C38 C39 1.373 . S
C38 C40 1.368 . S
C39 C38 1.373 . S
C39 C43 1.397 . S
C40 N36 1.453 . S
C40 C38 1.368 . S
C40 C41 1.373 . S
C41 H35 0.930 . S
C41 C40 1.373 . S
C41 C42 1.371 . S
C42 C41 1.371 . S
C42 C43 1.383 . S
C43 H34 0.931 . S
C43 C39 1.397 . S
C43 C42 1.383 . S
C44 O60 1.251 . S
C44 O62 1.254 . S
N45 C46 1.333 . S
N45 C50 1.307 . S
N45 Zn51 2.020 . S
C46 N45 1.333 . S
C46 C47 1.379 . S
C46 H64 0.952 . S
C47 C46 1.379 . S
C47 C48 1.390 . S
C47 H74 0.949 . S
C48 C47 1.390 . S
C48 C49 1.357 . S
C49 C48 1.357 . S
C49 C50 1.370 . S
C49 H75 0.950 . S
C50 N45 1.307 . S
C50 C49 1.370 . S
C50 H68 0.948 . S
Zn51 N45 2.020 . S
Zn51 O60 2.039 1_545 S
Zn51 O66 2.034 1_545 S
Zn51 O70 2.025 1_455 S
Zn51 O72 2.024 1_455 S
C52 O71 1.246 . S
C52 O72 1.249 . S
N53 C54 1.307 . S
N53 C55 1.333 . S
N53 Zn59 2.020 . S
C54 N53 1.307 . S
C54 C58 1.370 . S
C54 H65 0.948 . S
C55 N53 1.333 . S
C55 C56 1.379 . S
C55 H63 0.952 . S
C56 C55 1.379 . S
C56 C57 1.390 . S
C56 H76 0.949 . S
C57 C56 1.390 . S
C57 C58 1.357 . S
C58 C54 1.370 . S
C58 C57 1.357 . S
C58 H77 0.950 . S
Zn59 N53 2.020 . S
Zn59 O62 2.025 1_655 S
Zn59 O67 2.024 1_655 S
Zn59 O69 2.039 1_565 S
Zn59 O71 2.034 1_565 S
O60 C44 1.251 . S
O60 Zn51 2.039 1_565 S
C61 O66 1.246 . S
C61 O67 1.249 . S
O62 C44 1.254 . S
O62 Zn59 2.025 1_455 S
H63 C55 0.952 . S
H64 C46 0.952 . S
H65 C54 0.948 . S
O66 Zn51 2.034 1_565 S
O66 C61 1.246 . S
O67 Zn59 2.024 1_455 S
O67 C61 1.249 . S
H68 C50 0.948 . S
O69 Zn59 2.039 1_545 S
O69 C73 1.251 . S
O70 Zn51 2.025 1_655 S
O70 C73 1.254 . S
O71 C52 1.246 . S
O71 Zn59 2.034 1_545 S
O72 Zn51 2.024 1_655 S
O72 C52 1.249 . S
C73 O69 1.251 . S
C73 O70 1.254 . S
H74 C47 0.949 . S
H75 C49 0.950 . S
H76 C56 0.949 . S
H77 C58 0.950 . S
C78 O94 1.251 . S
C78 O96 1.254 . S
N79 C80 1.333 . S
N79 C84 1.307 . S
N79 Zn85 2.020 . S
C80 N79 1.333 . S
C80 C81 1.379 . S
C80 H98 0.952 1_554 S
C81 C80 1.379 . S
C81 C82 1.390 . S
C81 H108 0.949 1_554 S
C82 C81 1.390 . S
C82 C83 1.357 . S
C83 C82 1.357 . S
C83 C84 1.370 . S
C83 H109 0.950 . S
C84 N79 1.307 . S
C84 C83 1.370 . S
C84 H102 0.948 . S
Zn85 N79 2.020 . S
Zn85 O94 2.039 1_554 S
Zn85 O100 2.034 . S
Zn85 O104 2.025 . S
Zn85 O106 2.024 1_554 S
C86 O105 1.246 . S
C86 O106 1.249 . S
N87 C88 1.307 . S
N87 C89 1.333 . S
N87 Zn93 2.020 . S
C88 N87 1.307 . S
C88 C92 1.370 . S
C88 H99 0.948 1_554 S
C89 N87 1.333 . S
C89 C90 1.379 . S
C89 H97 0.952 . S
C90 C89 1.379 . S
C90 C91 1.390 . S
C90 H110 0.949 . S
C91 C90 1.390 . S
C91 C92 1.357 . S
C92 C88 1.370 . S
C92 C91 1.357 . S
C92 H111 0.950 1_554 S
Zn93 N87 2.020 . S
Zn93 O96 2.025 1_554 S
Zn93 O101 2.024 . S
Zn93 O103 2.039 . S
Zn93 O105 2.034 1_554 S
O94 C78 1.251 . S
O94 Zn85 2.039 1_556 S
C95 O100 1.246 . S
C95 O101 1.249 . S
O96 C78 1.254 . S
O96 Zn93 2.025 1_556 S
H97 C89 0.952 . S
H98 C80 0.952 1_556 S
H99 C88 0.948 1_556 S
O100 Zn85 2.034 . S
O100 C95 1.246 . S
O101 Zn93 2.024 . S
O101 C95 1.249 . S
H102 C84 0.948 . S
O103 Zn93 2.039 . S
O103 C107 1.251 . S
O104 Zn85 2.025 . S
O104 C107 1.254 . S
O105 C86 1.246 . S
O105 Zn93 2.034 1_556 S
O106 Zn85 2.024 1_556 S
O106 C86 1.249 . S
C107 O103 1.251 . S
C107 O104 1.254 . S
H108 C81 0.949 1_556 S
H109 C83 0.950 . S
H110 C90 0.949 . S
H111 C92 0.950 1_556 S
C112 C113 1.363 . S
C112 C118 1.379 . S
C112 N120 1.356 . S
C113 C112 1.363 . S
C113 C119 1.363 . S
C114 C115 1.363 . S
C114 C119 1.379 . S
C114 N121 1.356 . S
C115 C114 1.363 . S
C115 C118 1.363 . S
N116 C118 1.356 . S
N116 H128 0.984 . S
N116 H129 0.985 . S
N117 C119 1.356 . S
N117 H122 0.984 . S
N117 H123 0.985 . S
C118 C112 1.379 . S
C118 C115 1.363 . S
C118 N116 1.356 . S
C119 C113 1.363 . S
C119 C114 1.379 . S
C119 N117 1.356 . S
N120 C112 1.356 . S
N120 H126 0.984 . S
N120 H127 0.984 . S
N121 C114 1.356 . S
N121 H124 0.984 . S
N121 H125 0.985 . S
H122 N117 0.984 . S
H123 N117 0.985 . S
H124 N121 0.984 . S
H125 N121 0.985 . S
H126 N120 0.984 . S
H127 N120 0.984 . S
H128 N116 0.984 . S
H129 N116 0.985 . S
C130 C131 1.363 1_556 S
C130 C136 1.379 . S
C130 N138 1.356 . S
C131 C130 1.363 1_554 S
C131 C137 1.363 . S
C132 C133 1.363 . S
C132 C137 1.379 . S
C132 N139 1.356 . S
C133 C132 1.363 . S
C133 C136 1.363 1_554 S
N134 C136 1.356 . S
N134 H146 0.984 . S
N134 H147 0.985 . S
N135 C137 1.356 . S
N135 H140 0.984 . S
N135 H141 0.985 . S
C136 C130 1.379 . S
C136 C133 1.363 1_556 S
C136 N134 1.356 . S
C137 C131 1.363 . S
C137 C132 1.379 . S
C137 N135 1.356 . S
N138 C130 1.356 . S
N138 H144 0.984 . S
N138 H145 0.984 . S
N139 C132 1.356 . S
N139 H142 0.984 . S
N139 H143 0.985 . S
H140 N135 0.984 . S
H141 N135 0.985 . S
H142 N139 0.984 . S
H143 N139 0.985 . S
H144 N138 0.984 . S
H145 N138 0.984 . S
H146 N134 0.984 . S
H147 N134 0.985 . S
C148 C149 1.363 . S
C148 C154 1.379 . S
C148 N156 1.356 . S
C149 C148 1.363 . S
C149 C155 1.363 . S
C150 C151 1.363 . S
C150 C155 1.379 . S
C150 N157 1.356 . S
C151 C150 1.363 . S
C151 C154 1.363 . S
N152 C154 1.356 . S
N152 H164 0.984 . S
N152 H165 0.985 . S
N153 C155 1.356 . S
N153 H158 0.984 . S
N153 H159 0.985 . S
C154 C148 1.379 . S
C154 C151 1.363 . S
C154 N152 1.356 . S
C155 C149 1.363 . S
C155 C150 1.379 . S
C155 N153 1.356 . S
N156 C148 1.356 . S
N156 H162 0.984 . S
N156 H163 0.984 . S
N157 C150 1.356 . S
N157 H160 0.984 . S
N157 H161 0.985 . S
H158 N153 0.984 . S
H159 N153 0.985 . S
H160 N157 0.984 . S
H161 N157 0.985 . S
H162 N156 0.984 . S
H163 N156 0.984 . S
H164 N152 0.984 . S
H165 N152 0.985 . S
C166 C167 1.363 . S
C166 C172 1.379 . S
C166 N174 1.356 . S
C167 C166 1.363 . S
C167 C173 1.363 1_554 S
C168 C169 1.363 1_556 S
C168 C173 1.379 . S
C168 N175 1.356 . S
C169 C168 1.363 1_554 S
C169 C172 1.363 . S
N170 C172 1.356 . S
N170 H182 0.984 . S
N170 H183 0.985 . S
N171 C173 1.356 . S
N171 H176 0.984 . S
N171 H177 0.985 . S
C172 C166 1.379 . S
C172 C169 1.363 . S
C172 N170 1.356 . S
C173 C167 1.363 1_556 S
C173 C168 1.379 . S
C173 N171 1.356 . S
N174 C166 1.356 . S
N174 H180 0.984 . S
N174 H181 0.984 . S
N175 C168 1.356 . S
N175 H178 0.984 . S
N175 H179 0.985 . S
H176 N171 0.984 . S
H177 N171 0.985 . S
H178 N175 0.984 . S
H179 N175 0.985 . S
H180 N174 0.984 . S
H181 N174 0.984 . S
H182 N170 0.984 . S
H183 N170 0.985 . S
C184 C185 1.363 . S
C184 C190 1.379 . S
C184 N192 1.356 . S
C185 C184 1.363 . S
C185 C191 1.363 . S
C186 C187 1.363 . S
C186 C191 1.379 . S
C186 N193 1.356 . S
C187 C186 1.363 . S
C187 C190 1.363 . S
N188 C190 1.356 . S
N188 H200 0.984 1_455 S
N188 H201 0.985 . S
N189 C191 1.356 . S
N189 H194 0.984 . S
N189 H195 0.985 . S
C190 C184 1.379 . S
C190 C187 1.363 . S
C190 N188 1.356 . S
C191 C185 1.363 . S
C191 C186 1.379 . S
C191 N189 1.356 . S
N192 C184 1.356 . S
N192 H198 0.984 . S
N192 H199 0.984 . S
N193 C186 1.356 . S
N193 H196 0.984 . S
N193 H197 0.985 . S
H194 N189 0.984 . S
H195 N189 0.985 . S
H196 N193 0.984 . S
H197 N193 0.985 . S
H198 N192 0.984 . S
H199 N192 0.984 . S
H200 N188 0.984 1_655 S
H201 N188 0.985 . S
C202 C203 1.363 . S
C202 C208 1.379 . S
C202 N210 1.356 . S
C203 C202 1.363 . S
C203 C209 1.363 . S
C204 C205 1.363 . S
C204 C209 1.379 . S
C204 N211 1.356 . S
C205 C204 1.363 . S
C205 C208 1.363 . S
N206 C208 1.356 . S
N206 H218 0.984 . S
N206 H219 0.985 . S
N207 C209 1.356 . S
N207 H212 0.984 . S
N207 H213 0.985 . S
C208 C202 1.379 . S
C208 C205 1.363 . S
C208 N206 1.356 . S
C209 C203 1.363 . S
C209 C204 1.379 . S
C209 N207 1.356 . S
N210 C202 1.356 . S
N210 H216 0.984 . S
N210 H217 0.984 . S
N211 C204 1.356 . S
N211 H214 0.984 . S
N211 H215 0.985 . S
H212 N207 0.984 . S
H213 N207 0.985 . S
H214 N211 0.984 . S
H215 N211 0.985 . S
H216 N210 0.984 . S
H217 N210 0.984 . S
H218 N206 0.984 . S
H219 N206 0.985 . S
C220 C221 1.363 . S
C220 C226 1.379 . S
C220 N228 1.356 . S
C221 C220 1.363 . S
C221 C227 1.363 . S
C222 C223 1.363 . S
C222 C227 1.379 . S
C222 N229 1.356 . S
C223 C222 1.363 . S
C223 C226 1.363 . S
N224 C226 1.356 . S
N224 H236 0.984 . S
N224 H237 0.985 . S
N225 C227 1.356 . S
N225 H230 0.984 . S
N225 H231 0.985 . S
C226 C220 1.379 . S
C226 C223 1.363 . S
C226 N224 1.356 . S
C227 C221 1.363 . S
C227 C222 1.379 . S
C227 N225 1.356 . S
N228 C220 1.356 . S
N228 H234 0.984 . S
N228 H235 0.984 . S
N229 C222 1.356 . S
N229 H232 0.984 1_545 S
N229 H233 0.985 1_545 S
H230 N225 0.984 . S
H231 N225 0.985 . S
H232 N229 0.984 1_565 S
H233 N229 0.985 1_565 S
H234 N228 0.984 . S
H235 N228 0.984 . S
H236 N224 0.984 . S
H237 N224 0.985 . S
C238 C239 1.363 . S
C238 C244 1.379 . S
C238 N246 1.356 . S
C239 C238 1.363 . S
C239 C245 1.363 . S
C240 C241 1.363 . S
C240 C245 1.379 . S
C240 N247 1.356 . S
C241 C240 1.363 . S
C241 C244 1.363 . S
N242 C244 1.356 . S
N242 H254 0.984 . S
N242 H255 0.985 . S
N243 C245 1.356 . S
N243 H248 0.984 . S
N243 H249 0.985 . S
C244 C238 1.379 . S
C244 C241 1.363 . S
C244 N242 1.356 . S
C245 C239 1.363 . S
C245 C240 1.379 . S
C245 N243 1.356 . S
N246 C238 1.356 . S
N246 H252 0.984 . S
N246 H253 0.984 . S
N247 C240 1.356 . S
N247 H250 0.984 . S
N247 H251 0.985 . S
H248 N243 0.984 . S
H249 N243 0.985 . S
H250 N247 0.984 . S
H251 N247 0.985 . S
H252 N246 0.984 . S
H253 N246 0.984 . S
H254 N242 0.984 . S
H255 N242 0.985 . S
C256 C257 1.363 . S
C256 C262 1.379 . S
C256 N264 1.356 . S
C257 C256 1.363 . S
C257 C263 1.363 . S
C258 C259 1.363 . S
C258 C263 1.379 . S
C258 N265 1.356 . S
C259 C258 1.363 . S
C259 C262 1.363 . S
N260 C262 1.356 . S
N260 H272 0.984 . S
N260 H273 0.985 . S
N261 C263 1.356 . S
N261 H266 0.984 . S
N261 H267 0.985 . S
C262 C256 1.379 . S
C262 C259 1.363 . S
C262 N260 1.356 . S
C263 C257 1.363 . S
C263 C258 1.379 . S
C263 N261 1.356 . S
N264 C256 1.356 . S
N264 H270 0.984 . S
N264 H271 0.984 . S
N265 C258 1.356 . S
N265 H268 0.984 . S
N265 H269 0.985 . S
H266 N261 0.984 . S
H267 N261 0.985 . S
H268 N265 0.984 . S
H269 N265 0.985 . S
H270 N264 0.984 . S
H271 N264 0.984 . S
H272 N260 0.984 . S
H273 N260 0.985 . S
C274 C275 1.363 . S
C274 C280 1.379 . S
C274 N282 1.356 . S
C275 C274 1.363 . S
C275 C281 1.363 . S
C276 C277 1.363 . S
C276 C281 1.379 . S
C276 N283 1.356 . S
C277 C276 1.363 . S
C277 C280 1.363 . S
N278 C280 1.356 . S
N278 H290 0.984 1_655 S
N278 H291 0.985 1_655 S
N279 C281 1.356 . S
N279 H284 0.984 . S
N279 H285 0.985 . S
C280 C274 1.379 . S
C280 C277 1.363 . S
C280 N278 1.356 . S
C281 C275 1.363 . S
C281 C276 1.379 . S
C281 N279 1.356 . S
N282 C274 1.356 . S
N282 H288 0.984 . S
N282 H289 0.984 . S
N283 C276 1.356 . S
N283 H286 0.984 . S
N283 H287 0.985 . S
H284 N279 0.984 . S
H285 N279 0.985 . S
H286 N283 0.984 . S
H287 N283 0.985 . S
H288 N282 0.984 . S
H289 N282 0.984 . S
H290 N278 0.984 1_455 S
H291 N278 0.985 1_455 S
C292 C293 1.363 . S
C292 C298 1.379 . S
C292 N300 1.356 . S
C293 C292 1.363 . S
C293 C299 1.363 . S
C294 C295 1.363 . S
C294 C299 1.379 . S
C294 N301 1.356 . S
C295 C294 1.363 . S
C295 C298 1.363 . S
N296 C298 1.356 . S
N296 H308 0.984 . S
N296 H309 0.985 . S
N297 C299 1.356 . S
N297 H302 0.984 . S
N297 H303 0.985 . S
C298 C292 1.379 . S
C298 C295 1.363 . S
C298 N296 1.356 . S
C299 C293 1.363 . S
C299 C294 1.379 . S
C299 N297 1.356 . S
N300 C292 1.356 . S
N300 H306 0.984 . S
N300 H307 0.984 . S
N301 C294 1.356 . S
N301 H304 0.984 . S
N301 H305 0.985 . S
H302 N297 0.984 . S
H303 N297 0.985 . S
H304 N301 0.984 . S
H305 N301 0.985 . S
H306 N300 0.984 . S
H307 N300 0.984 . S
H308 N296 0.984 . S
H309 N296 0.985 . S
C310 C311 1.363 . S
C310 C316 1.379 . S
C310 N318 1.356 . S
C311 C310 1.363 . S
C311 C317 1.363 . S
C312 C313 1.363 . S
C312 C317 1.379 . S
C312 N319 1.356 . S
C313 C312 1.363 . S
C313 C316 1.363 . S
N314 C316 1.356 . S
N314 H326 0.984 . S
N314 H327 0.985 . S
N315 C317 1.356 . S
N315 H320 0.984 . S
N315 H321 0.985 . S
C316 C310 1.379 . S
C316 C313 1.363 . S
C316 N314 1.356 . S
C317 C311 1.363 . S
C317 C312 1.379 . S
C317 N315 1.356 . S
N318 C310 1.356 . S
N318 H324 0.984 . S
N318 H325 0.984 . S
N319 C312 1.356 . S
N319 H322 0.984 . S
N319 H323 0.985 . S
H320 N315 0.984 . S
H321 N315 0.985 . S
H322 N319 0.984 . S
H323 N319 0.985 . S
H324 N318 0.984 . S
H325 N318 0.984 . S
H326 N314 0.984 . S
H327 N314 0.985 . S
C115 C48 1.504 . S
C113 N37 1.505 . S
C131 N4 1.506 . S
C133 C91 1.507 . S
C149 N15 1.498 . S
C151 C57 1.508 . S
C167 N26 1.502 . S
C169 C82 1.505 . S
C187 C44 1.559 . S
C185 C9 1.531 . S
C205 C86 1.536 . S
C203 C17 1.535 . S
C221 C31 1.534 . S
C223 C52 1.554 . S
C239 C42 1.515 . S
C241 C78 1.538 . S
C259 C107 1.472 . S
C257 C20 1.452 . S
C277 C73 1.456 . S
C275 C28 1.451 . S
C295 C95 1.472 . S
C293 C39 1.469 . S
C311 C6 1.453 . S
C313 C61 1.455 . S
