# Generated by pormake.
# Topology nom, (4,4)-cn, num edge types: 1
# Building blocks:
#     Node 0, Type 0, BuildingBlock: NAWXER_clean_linker_0, # of connection points: 4
#     Node 1, Type 0, BuildingBlock: NAWXER_clean_linker_0, # of connection points: 4
#     Node 2, Type 0, BuildingBlock: NAWXER_clean_linker_0, # of connection points: 4
#     Node 3, Type 0, BuildingBlock: NAWXER_clean_linker_0, # of connection points: 4
#     Node 4, Type 0, BuildingBlock: NAWXER_clean_linker_0, # of connection points: 4
#     Node 5, Type 0, BuildingBlock: NAWXER_clean_linker_0, # of connection points: 4
#     Node 6, Type 1, BuildingBlock: QUQFOY_clean_sbu_1, # of connection points: 4
#     Node 7, Type 1, BuildingBlock: QUQFOY_clean_sbu_1, # of connection points: 4
#     Node 8, Type 1, BuildingBlock: QUQFOY_clean_sbu_1, # of connection points: 4
#     Node 9, Type 1, BuildingBlock: QUQFOY_clean_sbu_1, # of connection points: 4
#     Node 10, Type 1, BuildingBlock: QUQFOY_clean_sbu_1, # of connection points: 4
#     Node 11, Type 1, BuildingBlock: QUQFOY_clean_sbu_1, # of connection points: 4
#     Edge 12, Type (0, 1), BuildingBlock: XIVTED_clean_linker_0, # of connection points: 2
#     Edge 13, Type (0, 1), BuildingBlock: XIVTED_clean_linker_0, # of connection points: 2
#     Edge 14, Type (0, 1), BuildingBlock: XIVTED_clean_linker_0, # of connection points: 2
#     Edge 15, Type (0, 1), BuildingBlock: XIVTED_clean_linker_0, # of connection points: 2
#     Edge 16, Type (0, 1), BuildingBlock: XIVTED_clean_linker_0, # of connection points: 2
#     Edge 17, Type (0, 1), BuildingBlock: XIVTED_clean_linker_0, # of connection points: 2
#     Edge 18, Type (0, 1), BuildingBlock: XIVTED_clean_linker_0, # of connection points: 2
#     Edge 19, Type (0, 1), BuildingBlock: XIVTED_clean_linker_0, # of connection points: 2
#     Edge 20, Type (0, 1), BuildingBlock: XIVTED_clean_linker_0, # of connection points: 2
#     Edge 21, Type (0, 1), BuildingBlock: XIVTED_clean_linker_0, # of connection points: 2
#     Edge 22, Type (0, 1), BuildingBlock: XIVTED_clean_linker_0, # of connection points: 2
#     Edge 23, Type (0, 1), BuildingBlock: XIVTED_clean_linker_0, # of connection points: 2
#     Edge 24, Type (0, 1), BuildingBlock: XIVTED_clean_linker_0, # of connection points: 2
#     Edge 25, Type (0, 1), BuildingBlock: XIVTED_clean_linker_0, # of connection points: 2
#     Edge 26, Type (0, 1), BuildingBlock: XIVTED_clean_linker_0, # of connection points: 2
#     Edge 27, Type (0, 1), BuildingBlock: XIVTED_clean_linker_0, # of connection points: 2
#     Edge 28, Type (0, 1), BuildingBlock: XIVTED_clean_linker_0, # of connection points: 2
#     Edge 29, Type (0, 1), BuildingBlock: XIVTED_clean_linker_0, # of connection points: 2
#     Edge 30, Type (0, 1), BuildingBlock: XIVTED_clean_linker_0, # of connection points: 2
#     Edge 31, Type (0, 1), BuildingBlock: XIVTED_clean_linker_0, # of connection points: 2
#     Edge 32, Type (0, 1), BuildingBlock: XIVTED_clean_linker_0, # of connection points: 2
#     Edge 33, Type (0, 1), BuildingBlock: XIVTED_clean_linker_0, # of connection points: 2
#     Edge 34, Type (0, 1), BuildingBlock: XIVTED_clean_linker_0, # of connection points: 2
#     Edge 35, Type (0, 1), BuildingBlock: XIVTED_clean_linker_0, # of connection points: 2
# Relax obj value: 0.026
# Max RMSD: 0.132
# Mean RMSD: 0.124
data_MOF--net-nom--node1-QUQFOY_clean_sbu_1--node2-NAWXER_clean_linker_0--edge1-XIVTED_clean_linker_0
_symmetry_space_group_name_H-M    P1
_symmetry_Int_Tables_number       1
_symmetry_cell_setting            triclinic
loop_
_symmetry_equiv_pos_as_xyz
'x, y, z'
_cell_length_a     54.852879
_cell_length_b     54.844487
_cell_length_c     55.185768
_cell_angle_alpha  89.967775
_cell_angle_beta   90.052538
_cell_angle_gamma 120.01471
loop_
_atom_site_label
_atom_site_type_symbol
_atom_site_fract_x
_atom_site_fract_y
_atom_site_fract_z
_atom_type_partial_charge
C0 C 0.92447 0.48483 0.34486 0.0
C1 C 0.90654 0.45803 0.35481 0.0
C2 C 0.9514 0.49221 0.33697 0.0
C3 C 0.96131 0.47325 0.33927 0.0
C4 C 0.91695 0.43935 0.3578 0.0
C5 C 0.94428 0.44705 0.35029 0.0
C6 C 0.98912 0.48101 0.32918 0.0
C7 C 0.92583 0.43895 0.27013 0.0
C8 C 0.92763 0.45706 0.25129 0.0
C9 C 0.94743 0.44764 0.28718 0.0
C10 C 0.97109 0.47478 0.286 0.0
C11 C 0.95156 0.4841 0.24996 0.0
C12 C 0.9731 0.49281 0.2671 0.0
C13 C 0.9941 0.4842 0.304 0.0
C14 C 0.12039 0.533 0.29706 0.0
C15 C 0.1269 0.55606 0.28179 0.0
C16 C 0.09318 0.51657 0.30641 0.0
C17 C 0.07204 0.52292 0.30066 0.0
C18 C 0.10535 0.56181 0.27569 0.0
C19 C 0.07822 0.54528 0.28485 0.0
C20 C 0.0435 0.50701 0.31122 0.0
C21 C 0.10209 0.55534 0.37246 0.0
C22 C 0.10307 0.53815 0.39091 0.0
C23 C 0.0813 0.54396 0.3546 0.0
C24 C 0.06129 0.5151 0.35463 0.0
C25 C 0.08291 0.50927 0.39094 0.0
C26 C 0.0621 0.4979 0.37304 0.0
C27 C 0.03846 0.50315 0.33644 0.0
H28 H 0.91773 0.50023 0.34301 0.0
H29 H 0.96448 0.51271 0.32881 0.0
H30 H 0.90377 0.41851 0.36526 0.0
H31 H 0.95173 0.4322 0.35223 0.0
H32 H 0.90767 0.41804 0.27178 0.0
H33 H 0.94576 0.43297 0.3011 0.0
H34 H 0.95389 0.49839 0.23544 0.0
H35 H 0.9913 0.51375 0.26567 0.0
H36 H 0.1363 0.52765 0.30183 0.0
H37 H 0.08871 0.49904 0.31823 0.0
H38 H 0.10956 0.57965 0.26442 0.0
H39 H 0.06222 0.55058 0.2802 0.0
H40 H 0.11738 0.57762 0.37185 0.0
H41 H 0.08063 0.55781 0.34095 0.0
H42 H 0.08279 0.49556 0.40514 0.0
H43 H 0.04658 0.47567 0.3736 0.0
N44 N 0.01141 0.49041 0.34451 0.0
N45 N 0.0211 0.49737 0.29597 0.0
C46 C 0.40214 0.91048 0.51767 0.0
C47 C 0.41424 0.9006 0.53471 0.0
C48 C 0.41774 0.93751 0.508 0.0
C49 C 0.44584 0.95517 0.51501 0.0
C50 C 0.44226 0.91848 0.54202 0.0
C51 C 0.45785 0.94565 0.5324 0.0
C52 C 0.46241 0.98374 0.50457 0.0
C53 C 0.4515 0.92429 0.44494 0.0
C54 C 0.43623 0.92476 0.42465 0.0
C55 C 0.46013 0.945 0.46275 0.0
C56 C 0.45317 0.96635 0.461 0.0
C57 C 0.42932 0.9462 0.42286 0.0
C58 C 0.43784 0.96687 0.44083 0.0
C59 C 0.4634 0.98903 0.47939 0.0
C60 C 0.54451 0.11257 0.47026 0.0
C61 C 0.52852 0.12213 0.45767 0.0
C62 C 0.53165 0.08538 0.47994 0.0
C63 C 0.50264 0.06713 0.47705 0.0
C64 C 0.49939 0.10359 0.45484 0.0
C65 C 0.48667 0.07628 0.4642 0.0
C66 C 0.48889 0.03836 0.4871 0.0
C67 C 0.50496 0.09525 0.55184 0.0
C68 C 0.52745 0.09771 0.56604 0.0
C69 C 0.49284 0.07456 0.53392 0.0
C70 C 0.50273 0.05574 0.53006 0.0
C71 C 0.53757 0.07904 0.56165 0.0
C72 C 0.52508 0.05805 0.54405 0.0
C73 C 0.48924 0.03302 0.51203 0.0
H74 H 0.38068 0.89716 0.51153 0.0
H75 H 0.40781 0.94461 0.49501 0.0
H76 H 0.45203 0.91155 0.55531 0.0
H77 H 0.47941 0.95907 0.53825 0.0
H78 H 0.45698 0.90798 0.44702 0.0
H79 H 0.47271 0.94456 0.4777 0.0
H80 H 0.41797 0.94744 0.40729 0.0
H81 H 0.43257 0.98336 0.43892 0.0
H82 H 0.56703 0.12592 0.47242 0.0
H83 H 0.54441 0.07849 0.48949 0.0
H84 H 0.48621 0.11024 0.44572 0.0
H85 H 0.46422 0.06245 0.46181 0.0
H86 H 0.49619 0.10881 0.5549 0.0
H87 H 0.47534 0.07283 0.52342 0.0
H88 H 0.55523 0.0806 0.57174 0.0
H89 H 0.53302 0.04372 0.54121 0.0
N90 N 0.47582 0.00594 0.51993 0.0
N91 N 0.47617 0.01619 0.47163 0.0
C92 C 0.59763 0.51213 0.59871 0.0
C93 C 0.57981 0.49626 0.57954 0.0
C94 C 0.58823 0.52379 0.61637 0.0
C95 C 0.56077 0.51954 0.61528 0.0
C96 C 0.55272 0.49293 0.5781 0.0
C97 C 0.54337 0.50454 0.59573 0.0
C98 C 0.54976 0.53042 0.63433 0.0
C99 C 0.56368 0.46462 0.66882 0.0
C100 C 0.58101 0.47316 0.68938 0.0
C101 C 0.55404 0.48178 0.65918 0.0
C102 C 0.56254 0.5084 0.66928 0.0
C103 C 0.58875 0.49922 0.70013 0.0
C104 C 0.57969 0.51679 0.69006 0.0
C105 C 0.55188 0.5265 0.65942 0.0
C106 C 0.47586 0.56394 0.70417 0.0
C107 C 0.49186 0.57751 0.72479 0.0
C108 C 0.48731 0.55533 0.68572 0.0
C109 C 0.51537 0.56124 0.68714 0.0
C110 C 0.51954 0.58265 0.72664 0.0
C111 C 0.53123 0.5747 0.70791 0.0
C112 C 0.5278 0.55174 0.66809 0.0
C113 C 0.4976 0.60499 0.63032 0.0
C114 C 0.47534 0.58885 0.61418 0.0
C115 C 0.51429 0.5944 0.6395 0.0
C116 C 0.50888 0.56745 0.63277 0.0
C117 C 0.47062 0.56218 0.6071 0.0
C118 C 0.48734 0.55175 0.61612 0.0
C119 C 0.52496 0.55482 0.64297 0.0
H120 H 0.61861 0.51506 0.60032 0.0
H121 H 0.60226 0.53582 0.63102 0.0
H122 H 0.53872 0.48137 0.56328 0.0
H123 H 0.52222 0.50127 0.59435 0.0
H124 H 0.55689 0.44425 0.66065 0.0
H125 H 0.53955 0.47392 0.64405 0.0
H126 H 0.60184 0.50599 0.71621 0.0
H127 H 0.58602 0.5369 0.69853 0.0
H128 H 0.45425 0.55928 0.70267 0.0
H129 H 0.474 0.54365 0.6706 0.0
H130 H 0.53213 0.59294 0.74253 0.0
H131 H 0.55272 0.57901 0.70968 0.0
H132 H 0.50208 0.62575 0.6359 0.0
H133 H 0.53117 0.60707 0.65202 0.0
H134 H 0.45339 0.54883 0.59514 0.0
H135 H 0.48282 0.53092 0.61068 0.0
N136 N 0.53605 0.54405 0.62715 0.0
N137 N 0.54122 0.53774 0.67527 0.0
C138 C 0.90485 0.39743 0.80344 0.0
C139 C 0.89462 0.40882 0.78603 0.0
C140 C 0.93229 0.41319 0.81222 0.0
C141 C 0.95003 0.44076 0.80394 0.0
C142 C 0.9126 0.43625 0.7774 0.0
C143 C 0.94017 0.452 0.78614 0.0
C144 C 0.97891 0.45766 0.81368 0.0
C145 C 0.9204 0.44962 0.87341 0.0
C146 C 0.92093 0.43439 0.89371 0.0
C147 C 0.94109 0.45818 0.85556 0.0
C148 C 0.9625 0.45133 0.85744 0.0
C149 C 0.94257 0.42782 0.89568 0.0
C150 C 0.96325 0.43635 0.87776 0.0
C151 C 0.98477 0.46078 0.83878 0.0
C152 C 0.11088 0.53939 0.8413 0.0
C153 C 0.11854 0.5253 0.85833 0.0
C154 C 0.08327 0.52691 0.83259 0.0
C155 C 0.06292 0.49987 0.84038 0.0
C156 C 0.09769 0.49885 0.86698 0.0
C157 C 0.07019 0.48631 0.85812 0.0
C158 C 0.03399 0.48548 0.83035 0.0
C159 C 0.09315 0.49943 0.76885 0.0
C160 C 0.09314 0.51799 0.75127 0.0
C161 C 0.0718 0.4876 0.78624 0.0
C162 C 0.05025 0.49436 0.78646 0.0
C163 C 0.07099 0.52393 0.75111 0.0
C164 C 0.04969 0.51211 0.76847 0.0
C165 C 0.02809 0.48303 0.80522 0.0
H166 H 0.89149 0.37646 0.8106 0.0
H167 H 0.93964 0.40385 0.82558 0.0
H168 H 0.90541 0.44545 0.76378 0.0
H169 H 0.95364 0.47313 0.77933 0.0
H170 H 0.90395 0.45489 0.87126 0.0
H171 H 0.94047 0.4704 0.84039 0.0
H172 H 0.94385 0.41654 0.91129 0.0
H173 H 0.97979 0.43116 0.87973 0.0
H174 H 0.12635 0.55974 0.83419 0.0
H175 H 0.07796 0.53823 0.81949 0.0
H176 H 0.10265 0.48769 0.88053 0.0
H177 H 0.05471 0.46567 0.86474 0.0
H178 H 0.10992 0.49446 0.76946 0.0
H179 H 0.07227 0.47341 0.79965 0.0
H180 H 0.07005 0.53766 0.73749 0.0
H181 H 0.03304 0.51728 0.76812 0.0
N182 N 0.00078 0.46924 0.79785 0.0
N183 N 0.01207 0.47423 0.84616 0.0
C184 C 0.47261 0.91613 0.96559 0.0
C185 C 0.44852 0.9028 0.95089 0.0
C186 C 0.48025 0.94177 0.97666 0.0
C187 C 0.46394 0.95469 0.97335 0.0
C188 C 0.43198 0.91556 0.94768 0.0
C189 C 0.43987 0.94157 0.95862 0.0
C190 C 0.4734 0.98261 0.98433 0.0
C191 C 0.43746 0.92227 0.04691 0.0
C192 C 0.45816 0.92263 0.06229 0.0
C193 C 0.44471 0.94305 0.02926 0.0
C194 C 0.4727 0.96479 0.02682 0.0
C195 C 0.48632 0.94418 0.05929 0.0
C196 C 0.49343 0.96524 0.04197 0.0
C197 C 0.48027 0.98769 0.00915 0.0
C198 C 0.53031 0.11376 0.01875 0.0
C199 C 0.55547 0.12023 0.03082 0.0
C200 C 0.51268 0.0867 0.00955 0.0
C201 C 0.51991 0.06564 0.01226 0.0
C202 C 0.56234 0.09887 0.03367 0.0
C203 C 0.54464 0.07186 0.02469 0.0
C204 C 0.5021 0.03703 0.00228 0.0
C205 C 0.54176 0.0934 0.93785 0.0
C206 C 0.52255 0.09949 0.92623 0.0
C207 C 0.53243 0.07149 0.95461 0.0
C208 C 0.50371 0.055 0.95993 0.0
C209 C 0.49368 0.08279 0.9317 0.0
C210 C 0.48434 0.06055 0.94823 0.0
C211 C 0.4941 0.03194 0.97767 0.0
H212 H 0.48562 0.90668 0.96855 0.0
H213 H 0.49926 0.95179 0.98751 0.0
H214 H 0.41339 0.90575 0.93632 0.0
H215 H 0.42721 0.95139 0.95564 0.0
H216 H 0.4155 0.90643 0.04889 0.0
H217 H 0.42833 0.94257 0.01793 0.0
H218 H 0.50299 0.94489 0.07032 0.0
H219 H 0.51519 0.9818 0.04025 0.0
H220 H 0.5241 0.12952 0.01654 0.0
H221 H 0.49337 0.08219 0.00044 0.0
H222 H 0.58177 0.1031 0.04238 0.0
H223 H 0.55065 0.05593 0.02693 0.0
H224 H 0.56403 0.10521 0.93374 0.0
H225 H 0.54764 0.06723 0.96329 0.0
H226 H 0.47828 0.08701 0.92342 0.0
H227 H 0.46206 0.04798 0.9522 0.0
N228 N 0.48027 0.00492 0.96947 0.0
N229 N 0.49475 0.01469 0.01715 0.0
C230 C 0.51586 0.61502 0.17912 0.0
C231 C 0.49415 0.60304 0.19639 0.0
C232 C 0.52574 0.59876 0.16805 0.0
C233 C 0.51403 0.57016 0.17394 0.0
C234 C 0.48265 0.57446 0.20247 0.0
C235 C 0.49272 0.55823 0.19149 0.0
C236 C 0.52468 0.55302 0.16234 0.0
C237 C 0.47769 0.56977 0.10458 0.0
C238 C 0.49383 0.58533 0.08456 0.0
C239 C 0.48885 0.55933 0.12172 0.0
C240 C 0.5166 0.56464 0.11949 0.0
C241 C 0.52162 0.59062 0.08236 0.0
C242 C 0.53283 0.58025 0.0996 0.0
C243 C 0.5281 0.55247 0.137 0.0
C244 C 0.56727 0.46853 0.12492 0.0
C245 C 0.59265 0.48429 0.11208 0.0
C246 C 0.55313 0.48158 0.13458 0.0
C247 C 0.56395 0.51057 0.1314 0.0
C248 C 0.60294 0.51326 0.10847 0.0
C249 C 0.58855 0.52617 0.11781 0.0
C250 C 0.55022 0.52497 0.14271 0.0
C251 C 0.59226 0.50328 0.20216 0.0
C252 C 0.57358 0.48515 0.2199 0.0
C253 C 0.58336 0.51611 0.1852 0.0
C254 C 0.55549 0.51072 0.1854 0.0
C255 C 0.54577 0.48004 0.22018 0.0
C256 C 0.53687 0.4928 0.20315 0.0
C257 C 0.5459 0.52468 0.16796 0.0
H258 H 0.525 0.63691 0.17393 0.0
H259 H 0.54263 0.60858 0.15494 0.0
H260 H 0.46611 0.56477 0.21589 0.0
H261 H 0.48363 0.53627 0.19647 0.0
H262 H 0.4563 0.56547 0.10694 0.0
H263 H 0.47554 0.54663 0.13647 0.0
H264 H 0.53447 0.60213 0.06696 0.0
H265 H 0.55416 0.58431 0.09733 0.0
H266 H 0.55831 0.44611 0.12763 0.0
H267 H 0.53388 0.46911 0.14471 0.0
H268 H 0.6226 0.52628 0.09908 0.0
H269 H 0.5972 0.54859 0.11519 0.0
H270 H 0.61378 0.50759 0.20136 0.0
H271 H 0.5984 0.53053 0.17215 0.0
H272 H 0.531 0.46664 0.23388 0.0
H273 H 0.51538 0.48866 0.20385 0.0
N274 N 0.53334 0.53877 0.17683 0.0
N275 N 0.54113 0.53879 0.12816 0.0
O276 O 0.61261 0.38877 0.43271 0.0
Cd277 Cd 0.61648 0.36906 0.40234 0.0
Cd278 Cd 0.66844 0.41513 0.40109 0.0
O279 O 0.65622 0.4244 0.43349 0.0
O280 O 0.58559 0.32927 0.40431 0.0
O281 O 0.63074 0.34195 0.40663 0.0
C282 C 0.60463 0.32226 0.407 0.0
C283 C 0.71349 0.42119 0.39755 0.0
C284 C 0.63176 0.41102 0.44275 0.0
C285 C 0.62942 0.40639 0.35928 0.0
O286 O 0.65277 0.42239 0.36963 0.0
O287 O 0.61187 0.38305 0.36887 0.0
O288 O 0.70934 0.44232 0.39825 0.0
O289 O 0.69191 0.39622 0.39972 0.0
O290 O 0.24127 0.59219 0.60509 0.0
Cd291 Cd 0.26599 0.6056 0.57441 0.0
Cd292 Cd 0.25741 0.64934 0.57668 0.0
O293 O 0.23803 0.63049 0.60885 0.0
O294 O 0.28838 0.58623 0.57322 0.0
O295 O 0.30742 0.63228 0.57855 0.0
C296 C 0.31051 0.6105 0.57663 0.0
C297 C 0.28937 0.69758 0.57611 0.0
C298 C 0.23269 0.60651 0.61665 0.0
C299 C 0.23414 0.61165 0.5332 0.0
O300 O 0.23568 0.63233 0.54488 0.0
O301 O 0.2459 0.59843 0.54141 0.0
O302 O 0.26266 0.68792 0.57793 0.0
O303 O 0.29812 0.67968 0.5751 0.0
O304 O 0.62131 0.24068 0.78148 0.0
Cd305 Cd 0.6403 0.25895 0.74908 0.0
Cd306 Cd 0.5954 0.26623 0.74455 0.0
O307 O 0.58347 0.24461 0.77699 0.0
O308 O 0.67826 0.26285 0.75151 0.0
O309 O 0.67176 0.29938 0.74828 0.0
C310 C 0.68886 0.28974 0.75041 0.0
C311 C 0.59888 0.3101 0.74148 0.0
C312 C 0.59764 0.23633 0.78916 0.0
C313 C 0.60203 0.23215 0.70596 0.0
O314 O 0.5876 0.24299 0.71329 0.0
O315 O 0.62357 0.23592 0.71774 0.0
O316 O 0.57473 0.2873 0.74235 0.0
O317 O 0.62133 0.30806 0.74264 0.0
O318 O 0.42552 0.65827 0.93307 0.0
Cd319 Cd 0.41394 0.6705 0.90158 0.0
Cd320 Cd 0.37008 0.61801 0.90402 0.0
O321 O 0.38624 0.61773 0.93753 0.0
O322 O 0.43795 0.71215 0.90072 0.0
O323 O 0.39158 0.69048 0.90412 0.0
C324 C 0.4154 0.71373 0.90303 0.0
C325 C 0.32213 0.60217 0.90019 0.0
C326 C 0.41037 0.63605 0.94528 0.0
C327 C 0.40946 0.63127 0.86217 0.0
O328 O 0.38948 0.61214 0.87447 0.0
O329 O 0.42112 0.65682 0.86888 0.0
O330 O 0.33136 0.58498 0.90372 0.0
O331 O 0.34028 0.62878 0.89925 0.0
O332 O 0.77945 0.36551 0.04454 0.0
Cd333 Cd 0.75526 0.35362 0.07553 0.0
Cd334 Cd 0.76175 0.40508 0.07239 0.0
O335 O 0.78062 0.40599 0.03985 0.0
O336 O 0.73699 0.3119 0.07747 0.0
O337 O 0.7132 0.33427 0.07185 0.0
C338 C 0.71323 0.31083 0.07399 0.0
C339 C 0.72517 0.41492 0.07367 0.0
C340 C 0.78686 0.38785 0.03243 0.0
C341 C 0.78749 0.39393 0.11561 0.0
O342 O 0.78524 0.41244 0.10352 0.0
O343 O 0.7758 0.36864 0.10815 0.0
O344 O 0.75088 0.43464 0.07045 0.0
O345 O 0.72012 0.38934 0.07576 0.0
O346 O 0.41895 0.78975 0.21736 0.0
Cd347 Cd 0.41049 0.76561 0.24812 0.0
Cd348 Cd 0.35916 0.75806 0.24211 0.0
O349 O 0.37493 0.77727 0.20908 0.0
O350 O 0.44179 0.75732 0.25073 0.0
O351 O 0.3974 0.72443 0.24468 0.0
C352 C 0.42347 0.7312 0.24704 0.0
C353 C 0.31777 0.71477 0.24369 0.0
C354 C 0.40086 0.79042 0.20343 0.0
C355 C 0.39073 0.79031 0.28611 0.0
O356 O 0.36946 0.78331 0.27258 0.0
O357 O 0.40901 0.78355 0.28037 0.0
O358 O 0.31744 0.73765 0.239 0.0
O359 O 0.34183 0.71638 0.24712 0.0
H360 H 0.14394 0.5826 0.23766 0.0
H361 H 0.30794 0.66794 0.26935 0.0
H362 H 0.17685 0.57285 0.30589 0.0
H363 H 0.26699 0.70059 0.22366 0.0
H364 H 0.26209 0.62544 0.27638 0.0
H365 H 0.19146 0.61846 0.22589 0.0
C366 C 0.16109 0.58786 0.25017 0.0
C367 C 0.15615 0.57498 0.27306 0.0
C368 C 0.26331 0.64184 0.26463 0.0
C369 C 0.21074 0.61556 0.25929 0.0
C370 C 0.28939 0.66596 0.26052 0.0
C371 C 0.29113 0.68783 0.24607 0.0
C372 C 0.23905 0.63944 0.25377 0.0
C373 C 0.26649 0.68431 0.23512 0.0
C374 C 0.18822 0.60823 0.24333 0.0
C375 C 0.17952 0.58208 0.28806 0.0
N376 N 0.24145 0.66057 0.23919 0.0
N377 N 0.20579 0.60204 0.28098 0.0
H378 H 0.5154 0.14055 0.41584 0.0
H379 H 0.63495 0.30155 0.4297 0.0
H380 H 0.57266 0.17068 0.47675 0.0
H381 H 0.5553 0.27555 0.39466 0.0
H382 H 0.61839 0.25217 0.44033 0.0
H383 H 0.53577 0.18893 0.40144 0.0
C384 C 0.53216 0.15722 0.42628 0.0
C385 C 0.54199 0.15134 0.44779 0.0
C386 C 0.60471 0.25736 0.43015 0.0
C387 C 0.56598 0.20676 0.43083 0.0
C388 C 0.61417 0.28542 0.42396 0.0
C389 C 0.59637 0.29258 0.41143 0.0
C390 C 0.57753 0.2364 0.42329 0.0
C391 C 0.56959 0.27092 0.40451 0.0
C392 C 0.54391 0.18482 0.41789 0.0
C393 C 0.56448 0.17396 0.45998 0.0
N394 N 0.56098 0.24379 0.41051 0.0
N395 N 0.57569 0.20066 0.45134 0.0
H396 H 0.45076 0.58133 0.56935 0.0
H397 H 0.35623 0.64958 0.60229 0.0
H398 H 0.45569 0.619 0.63924 0.0
H399 H 0.32782 0.57642 0.5567 0.0
H400 H 0.40055 0.64955 0.60928 0.0
H401 H 0.41344 0.59096 0.55775 0.0
C402 C 0.44416 0.59176 0.58224 0.0
C403 C 0.45602 0.59875 0.60556 0.0
C404 C 0.38467 0.63376 0.59754 0.0
C405 C 0.4138 0.61047 0.59203 0.0
C406 C 0.35953 0.63383 0.59347 0.0
C407 C 0.33835 0.61283 0.57906 0.0
C408 C 0.38876 0.61298 0.58662 0.0
C409 C 0.34354 0.5928 0.56812 0.0
C410 C 0.42297 0.59737 0.57552 0.0
C411 C 0.44724 0.61319 0.6211 0.0
N412 N 0.36824 0.59339 0.5721 0.0
N413 N 0.42646 0.61839 0.61412 0.0
H414 H 0.86582 0.35308 0.77365 0.0
H415 H 0.7185 0.34757 0.75341 0.0
H416 H 0.8563 0.4264 0.77852 0.0
H417 H 0.72938 0.27488 0.75192 0.0
H418 H 0.76942 0.37767 0.75923 0.0
H419 H 0.81636 0.32493 0.76231 0.0
C420 C 0.8533 0.36326 0.77231 0.0
C421 C 0.86515 0.39208 0.77728 0.0
C422 C 0.76064 0.35514 0.75749 0.0
C423 C 0.80838 0.35996 0.76417 0.0
C424 C 0.7316 0.33797 0.75413 0.0
C425 C 0.71965 0.30865 0.75234 0.0
C426 C 0.77778 0.34287 0.75901 0.0
C427 C 0.73761 0.29735 0.75337 0.0
C428 C 0.82506 0.3472 0.76574 0.0
C429 C 0.84805 0.40427 0.77476 0.0
N430 N 0.76569 0.31444 0.75673 0.0
N431 N 0.82045 0.3881 0.76856 0.0
H432 H 0.4835 0.89082 0.92517 0.0
H433 H 0.37401 0.72554 0.91635 0.0
H434 H 0.39745 0.85365 0.94934 0.0
H435 H 0.46143 0.76529 0.89544 0.0
H436 H 0.37988 0.77227 0.92409 0.0
H437 H 0.47349 0.84521 0.90953 0.0
C438 C 0.4624 0.87299 0.92705 0.0
C439 C 0.44136 0.87588 0.93884 0.0
C440 C 0.39766 0.77071 0.91758 0.0
C441 C 0.42968 0.82338 0.92107 0.0
C442 C 0.39432 0.74407 0.91312 0.0
C443 C 0.41735 0.74151 0.90547 0.0
C444 C 0.42419 0.79486 0.91428 0.0
C445 C 0.44316 0.7662 0.90156 0.0
C446 C 0.45665 0.84693 0.91808 0.0
C447 C 0.41426 0.85224 0.94039 0.0
N448 N 0.44589 0.79174 0.90614 0.0
N449 N 0.40924 0.82683 0.93187 0.0
H450 H 0.62472 0.49619 0.07066 0.0
H451 H 0.67367 0.38368 0.09521 0.0
H452 H 0.59809 0.44189 0.13353 0.0
H453 H 0.72535 0.46207 0.05766 0.0
H454 H 0.63842 0.39799 0.10227 0.0
H455 H 0.65476 0.4771 0.05888 0.0
C456 C 0.62509 0.48028 0.08202 0.0
C457 C 0.60898 0.47098 0.10335 0.0
C458 C 0.6574 0.41189 0.09231 0.0
C459 C 0.6428 0.44849 0.08945 0.0
C460 C 0.67741 0.4037 0.08818 0.0
C461 C 0.70251 0.42183 0.076 0.0
C462 C 0.66236 0.43811 0.0838 0.0
C463 C 0.70637 0.44759 0.06733 0.0
C464 C 0.64213 0.46929 0.07515 0.0
C465 C 0.60981 0.44961 0.11683 0.0
N466 N 0.6865 0.45497 0.07138 0.0
N467 N 0.62648 0.43915 0.10968 0.0
H468 H 0.43108 0.86166 0.54168 0.0
H469 H 0.27696 0.73979 0.57972 0.0
H470 H 0.35946 0.87351 0.54995 0.0
H471 H 0.34638 0.72519 0.56766 0.0
H472 H 0.30847 0.7899 0.57292 0.0
H473 H 0.40203 0.81281 0.5552 0.0
C474 C 0.40934 0.85408 0.5466 0.0
C475 C 0.3976 0.8716 0.54449 0.0
C476 C 0.31691 0.77581 0.57188 0.0
C477 C 0.36422 0.81576 0.55976 0.0
C478 C 0.29891 0.74715 0.5758 0.0
C479 C 0.309 0.72822 0.57407 0.0
C480 C 0.34527 0.78574 0.56609 0.0
C481 C 0.33769 0.73903 0.56907 0.0
C482 C 0.39274 0.82617 0.55418 0.0
C483 C 0.36925 0.86061 0.5509 0.0
N484 N 0.3548 0.76708 0.56508 0.0
N485 N 0.35354 0.8334 0.55813 0.0
H486 H 0.61256 0.45321 0.66853 0.0
H487 H 0.56078 0.32501 0.7561 0.0
H488 H 0.56795 0.44895 0.73407 0.0
H489 H 0.6401 0.35711 0.71885 0.0
H490 H 0.5609 0.36869 0.74664 0.0
H491 H 0.62142 0.41658 0.68468 0.0
C492 C 0.60503 0.44478 0.68648 0.0
C493 C 0.58959 0.45396 0.7001 0.0
C494 C 0.57846 0.36632 0.74084 0.0
C495 C 0.59895 0.4119 0.71831 0.0
C496 C 0.57835 0.34141 0.74612 0.0
C497 C 0.60042 0.33751 0.73815 0.0
C498 C 0.60039 0.38711 0.72689 0.0
C499 C 0.62274 0.35939 0.72536 0.0
C500 C 0.61012 0.42403 0.69568 0.0
C501 C 0.58008 0.44242 0.72316 0.0
N502 N 0.62192 0.38313 0.71971 0.0
N503 N 0.58448 0.42158 0.73141 0.0
H504 H 0.15739 0.58083 0.86801 0.0
H505 H 0.2799 0.54741 0.90068 0.0
H506 H 0.14777 0.49773 0.86674 0.0
H507 H 0.29498 0.63199 0.89107 0.0
H508 H 0.2302 0.52915 0.89221 0.0
H509 H 0.20675 0.60022 0.87976 0.0
C510 C 0.16561 0.56665 0.87016 0.0
C511 C 0.14829 0.53755 0.86637 0.0
C512 C 0.24431 0.55172 0.89199 0.0
C513 C 0.20466 0.5596 0.88011 0.0
C514 C 0.27274 0.56219 0.89689 0.0
C515 C 0.2917 0.59129 0.89646 0.0
C516 C 0.23459 0.57041 0.88662 0.0
C517 C 0.28112 0.60939 0.89152 0.0
C518 C 0.19375 0.57773 0.87699 0.0
C519 C 0.16006 0.5202 0.86982 0.0
N520 N 0.25324 0.59865 0.8867 0.0
N521 N 0.18744 0.53149 0.87645 0.0
H522 H 0.56825 0.17095 0.01 0.0
H523 H 0.70319 0.25985 0.09054 0.0
H524 H 0.58749 0.13585 0.07232 0.0
H525 H 0.66425 0.29938 0.05112 0.0
H526 H 0.66181 0.21391 0.0827 0.0
H527 H 0.60366 0.21806 0.02347 0.0
C528 C 0.57956 0.17307 0.02668 0.0
C529 C 0.57503 0.14921 0.03985 0.0
C530 C 0.66216 0.23264 0.07599 0.0
C531 C 0.61602 0.2031 0.055 0.0
C532 C 0.6858 0.25885 0.08039 0.0
C533 C 0.68715 0.2834 0.07138 0.0
C534 C 0.63994 0.23089 0.06202 0.0
C535 C 0.66398 0.28092 0.05842 0.0
C536 C 0.59986 0.20001 0.03428 0.0
C537 C 0.59071 0.15345 0.06117 0.0
N538 N 0.64144 0.25505 0.0538 0.0
N539 N 0.61071 0.17979 0.06789 0.0
H540 H 0.52486 0.65646 0.21435 0.0
H541 H 0.391 0.67496 0.23627 0.0
H542 H 0.43933 0.58919 0.20422 0.0
H543 H 0.47675 0.73958 0.2507 0.0
H544 H 0.40764 0.64202 0.22724 0.0
H545 H 0.50713 0.68616 0.2302 0.0
C546 C 0.50231 0.64794 0.21551 0.0
C547 C 0.48353 0.62042 0.20775 0.0
C548 C 0.42276 0.66334 0.2326 0.0
C549 C 0.46301 0.65429 0.22595 0.0
C550 C 0.41327 0.68214 0.23779 0.0
C551 C 0.43254 0.71013 0.24405 0.0
C552 C 0.45172 0.67267 0.23359 0.0
C553 C 0.46115 0.71827 0.24579 0.0
C554 C 0.49218 0.66485 0.22468 0.0
C555 C 0.45453 0.61027 0.21008 0.0
N556 N 0.46987 0.6997 0.2404 0.0
N557 N 0.44514 0.6273 0.21877 0.0
H558 H 0.87391 0.42426 0.39267 0.0
H559 H 0.75783 0.46792 0.37852 0.0
H560 H 0.87131 0.47252 0.33178 0.0
H561 H 0.73394 0.38504 0.40551 0.0
H562 H 0.8042 0.47509 0.36841 0.0
H563 H 0.82613 0.41338 0.4037 0.0
C564 C 0.86339 0.43244 0.38152 0.0
C565 C 0.87705 0.4498 0.36144 0.0
C566 C 0.78883 0.45536 0.3766 0.0
C567 C 0.82289 0.43799 0.37443 0.0
C568 C 0.76242 0.45129 0.38252 0.0
C569 C 0.74198 0.4258 0.39281 0.0
C570 C 0.79514 0.43402 0.38138 0.0
C571 C 0.74911 0.40494 0.39748 0.0
C572 C 0.83619 0.42629 0.38793 0.0
C573 C 0.86225 0.4599 0.34786 0.0
N574 N 0.77528 0.40956 0.39185 0.0
N575 N 0.8362 0.45415 0.35478 0.0
H576 H 0.1211 0.58802 0.41487 0.0
H577 H 0.2232 0.5662 0.50484 0.0
H578 H 0.13352 0.51633 0.41176 0.0
H579 H 0.20688 0.63532 0.50997 0.0
H580 H 0.1931 0.54931 0.46896 0.0
H581 H 0.15517 0.60736 0.44789 0.0
C582 C 0.1312 0.57646 0.42097 0.0
C583 C 0.1244 0.55048 0.41052 0.0
C584 C 0.19621 0.56824 0.47788 0.0
C585 C 0.16324 0.57237 0.44861 0.0
C586 C 0.21345 0.57794 0.49835 0.0
C587 C 0.21748 0.60216 0.51054 0.0
C588 C 0.1829 0.58285 0.4695 0.0
C589 C 0.2043 0.6165 0.50125 0.0
C590 C 0.15054 0.58744 0.43995 0.0
C591 C 0.13784 0.53624 0.41948 0.0
N592 N 0.18754 0.60657 0.48136 0.0
N593 N 0.15658 0.54735 0.43803 0.0
H594 H 0.53444 0.1512 0.5675 0.0
H595 H 0.61676 0.19323 0.693 0.0
H596 H 0.54854 0.09311 0.60998 0.0
H597 H 0.56681 0.22965 0.66952 0.0
H598 H 0.59977 0.16151 0.65812 0.0
H599 H 0.55342 0.18501 0.60087 0.0
C600 C 0.54138 0.14541 0.58377 0.0
C601 C 0.53977 0.11906 0.58578 0.0
C602 C 0.59263 0.17652 0.6606 0.0
C603 C 0.56226 0.15813 0.62368 0.0
C604 C 0.6024 0.19472 0.6804 0.0
C605 C 0.59306 0.21401 0.68421 0.0
C606 C 0.57377 0.17794 0.64426 0.0
C607 C 0.57437 0.21494 0.66733 0.0
C608 C 0.55236 0.16484 0.60273 0.0
C609 C 0.5498 0.11323 0.60722 0.0
N610 N 0.56538 0.19718 0.648 0.0
N611 N 0.56069 0.13263 0.62525 0.0
H612 H 0.48431 0.5592 0.7714 0.0
H613 H 0.43775 0.66406 0.82303 0.0
H614 H 0.47107 0.61349 0.72336 0.0
H615 H 0.40598 0.58083 0.8529 0.0
H616 H 0.4572 0.65081 0.78867 0.0
H617 H 0.46295 0.572 0.8045 0.0
C618 C 0.47697 0.5739 0.76794 0.0
C619 C 0.47933 0.58535 0.74479 0.0
C620 C 0.44581 0.63549 0.80274 0.0
C621 C 0.45538 0.60028 0.78233 0.0
C622 C 0.43482 0.64302 0.82232 0.0
C623 C 0.42021 0.62347 0.84077 0.0
C624 C 0.44278 0.60853 0.80202 0.0
C625 C 0.41695 0.59647 0.83898 0.0
C626 C 0.46471 0.58106 0.78669 0.0
C627 C 0.46945 0.60421 0.74103 0.0
N628 N 0.42845 0.58989 0.82008 0.0
N629 N 0.4581 0.61135 0.75972 0.0
H630 H 0.89396 0.38453 0.91883 0.0
H631 H 0.80744 0.43386 0.00259 0.0
H632 H 0.89889 0.46536 0.91272 0.0
H633 H 0.80566 0.35478 0.01181 0.0
H634 H 0.8384 0.44421 0.96774 0.0
H635 H 0.85951 0.37197 0.9514 0.0
C636 C 0.88785 0.39966 0.92437 0.0
C637 C 0.8994 0.42607 0.91305 0.0
C638 C 0.83116 0.42453 0.97732 0.0
C639 C 0.85977 0.41173 0.95014 0.0
C640 C 0.81341 0.41857 0.99722 0.0
C641 C 0.80403 0.39346 0.01027 0.0
C642 C 0.83966 0.40529 0.97036 0.0
C643 C 0.81245 0.37445 0.00237 0.0
C644 C 0.86806 0.39241 0.94287 0.0
C645 C 0.89032 0.44464 0.92071 0.0
N646 N 0.82988 0.38081 0.983 0.0
N647 N 0.87114 0.43715 0.93881 0.0
H648 H 0.41638 0.86667 0.06214 0.0
H649 H 0.45387 0.83274 0.1926 0.0
H650 H 0.48177 0.92973 0.10758 0.0
H651 H 0.36932 0.78798 0.16391 0.0
H652 H 0.46858 0.86362 0.15717 0.0
H653 H 0.40264 0.83303 0.09557 0.0
C654 C 0.42786 0.87356 0.07905 0.0
C655 C 0.45029 0.9013 0.08192 0.0
C656 C 0.44685 0.84694 0.15862 0.0
C657 C 0.43508 0.86251 0.11991 0.0
C658 C 0.43845 0.82922 0.17874 0.0
C659 C 0.41027 0.80786 0.18126 0.0
C660 C 0.42706 0.84301 0.14069 0.0
C661 C 0.3912 0.80434 0.16275 0.0
C662 C 0.42006 0.85424 0.09804 0.0
C663 C 0.46473 0.90858 0.10418 0.0
N664 N 0.39995 0.82174 0.14317 0.0
N665 N 0.45692 0.8893 0.12225 0.0
H666 H 0.62419 0.50967 0.24383 0.0
H667 H 0.58081 0.37886 0.33247 0.0
H668 H 0.5451 0.43162 0.23875 0.0
H669 H 0.6614 0.45559 0.33453 0.0
H670 H 0.56812 0.3967 0.29687 0.0
H671 H 0.63902 0.4891 0.27571 0.0
C672 C 0.61004 0.48809 0.24921 0.0
C673 C 0.5833 0.4724 0.2386 0.0
C674 C 0.58865 0.40954 0.30504 0.0
C675 C 0.60002 0.4488 0.27547 0.0
C676 C 0.59592 0.39936 0.32536 0.0
C677 C 0.62215 0.41582 0.33664 0.0
C678 C 0.60769 0.43641 0.29595 0.0
C679 C 0.64089 0.4422 0.32654 0.0
C680 C 0.61847 0.47639 0.26755 0.0
C681 C 0.56571 0.44467 0.24667 0.0
N682 N 0.63323 0.45172 0.30689 0.0
N683 N 0.57434 0.4338 0.26468 0.0
H684 H 0.46811 0.90357 0.40617 0.0
H685 H 0.3571 0.8101 0.30395 0.0
H686 H 0.38709 0.89786 0.3982 0.0
H687 H 0.43477 0.81049 0.31799 0.0
H688 H 0.36698 0.84162 0.33855 0.0
H689 H 0.45563 0.86902 0.37399 0.0
C690 C 0.44755 0.89485 0.39782 0.0
C691 C 0.42858 0.90358 0.40504 0.0
C692 C 0.38175 0.83466 0.33411 0.0
C693 C 0.41429 0.86419 0.36771 0.0
C694 C 0.37612 0.81664 0.31438 0.0
C695 C 0.3952 0.80771 0.30796 0.0
C696 C 0.40668 0.84389 0.34744 0.0
C697 C 0.41948 0.81686 0.32216 0.0
C698 C 0.44049 0.8752 0.37931 0.0
C699 C 0.4025 0.89198 0.39308 0.0
N700 N 0.42457 0.83453 0.34112 0.0
N701 N 0.39613 0.8729 0.37497 0.0
H702 H 0.63145 0.51858 0.55738 0.0
H703 H 0.58252 0.38693 0.46849 0.0
H704 H 0.54951 0.44364 0.55979 0.0
H705 H 0.6658 0.46017 0.46717 0.0
H706 H 0.57097 0.40663 0.50326 0.0
H707 H 0.64544 0.49676 0.52576 0.0
C708 C 0.61648 0.49745 0.55141 0.0
C709 C 0.58918 0.48301 0.56111 0.0
C710 C 0.59183 0.41835 0.49546 0.0
C711 C 0.60494 0.45803 0.52479 0.0
C712 C 0.59845 0.4071 0.47557 0.0
C713 C 0.62514 0.42198 0.46477 0.0
C714 C 0.61197 0.44476 0.50462 0.0
C715 C 0.64494 0.44799 0.47485 0.0
C716 C 0.62443 0.48507 0.53328 0.0
C717 C 0.57058 0.45578 0.55251 0.0
N718 N 0.63789 0.45863 0.49412 0.0
N719 N 0.57877 0.44425 0.53481 0.0
H720 H 0.11875 0.49387 0.7259 0.0
H721 H 0.21268 0.6321 0.64676 0.0
H722 H 0.12003 0.57259 0.73553 0.0
H723 H 0.21262 0.55399 0.63659 0.0
H724 H 0.18102 0.6113 0.68112 0.0
H725 H 0.1554 0.51613 0.69498 0.0
C726 C 0.1269 0.51589 0.72166 0.0
C727 C 0.11614 0.53133 0.73317 0.0
C728 C 0.18803 0.59872 0.67147 0.0
C729 C 0.15787 0.55686 0.69771 0.0
C730 C 0.20615 0.61061 0.65182 0.0
C731 C 0.2152 0.59472 0.63863 0.0
C732 C 0.17872 0.57066 0.678 0.0
C733 C 0.20611 0.56701 0.64617 0.0
C734 C 0.14772 0.52855 0.70393 0.0
C735 C 0.12731 0.55973 0.7268 0.0
N736 N 0.18822 0.55579 0.66526 0.0
N737 N 0.14746 0.57153 0.70946 0.0
H738 H 0.57211 0.15037 0.92638 0.0
H739 H 0.54233 0.2063 0.80279 0.0
H740 H 0.49614 0.10183 0.8845 0.0
H741 H 0.626 0.22853 0.82634 0.0
H742 H 0.52292 0.17515 0.83803 0.0
H743 H 0.58994 0.1862 0.89466 0.0
C744 C 0.55913 0.14713 0.91058 0.0
C745 C 0.53266 0.12267 0.90807 0.0
C746 C 0.54553 0.18708 0.83553 0.0
C747 C 0.55275 0.1642 0.87208 0.0
C748 C 0.55662 0.20494 0.81555 0.0
C749 C 0.58581 0.21985 0.81158 0.0
C750 C 0.56378 0.18454 0.85183 0.0
C751 C 0.60336 0.21722 0.82863 0.0
C752 C 0.5693 0.16774 0.89258 0.0
C753 C 0.51652 0.12032 0.88746 0.0
N754 N 0.59207 0.19988 0.84803 0.0
N755 N 0.52685 0.14078 0.87024 0.0
H756 H 0.51851 0.63562 0.05979 0.0
H757 H 0.38339 0.5912 0.97605 0.0
H758 H 0.44051 0.55663 0.06577 0.0
H759 H 0.46258 0.66814 0.96594 0.0
H760 H 0.40302 0.58036 0.0113 0.0
H761 H 0.49766 0.64972 0.02734 0.0
C762 C 0.49702 0.62124 0.05429 0.0
C763 C 0.48127 0.59487 0.06554 0.0
C764 C 0.4161 0.5997 0.00146 0.0
C765 C 0.45721 0.61098 0.02858 0.0
C766 C 0.40487 0.60594 0.98132 0.0
C767 C 0.42141 0.63054 0.96787 0.0
C768 C 0.44414 0.61812 0.00827 0.0
C769 C 0.44908 0.64888 0.97569 0.0
C770 C 0.48509 0.62937 0.03586 0.0
C771 C 0.45337 0.5773 0.0579 0.0
N772 N 0.45964 0.64221 0.9953 0.0
N773 N 0.4423 0.58563 0.03988 0.0
H774 H 0.90575 0.48738 0.23021 0.0
H775 H 0.79985 0.36076 0.14427 0.0
H776 H 0.89788 0.40501 0.23006 0.0
H777 H 0.81571 0.44591 0.13724 0.0
H778 H 0.83206 0.37554 0.17869 0.0
H779 H 0.86966 0.47161 0.1987 0.0
C780 C 0.8965 0.466 0.22354 0.0
C781 C 0.905 0.44754 0.23277 0.0
C782 C 0.8284 0.39097 0.16969 0.0
C783 C 0.86338 0.42925 0.1969 0.0
C784 C 0.80993 0.38253 0.15006 0.0
C785 C 0.80518 0.40216 0.13771 0.0
C786 C 0.84224 0.41925 0.17712 0.0
C787 C 0.81883 0.43007 0.14611 0.0
C788 C 0.87577 0.45697 0.20564 0.0
C789 C 0.89182 0.41991 0.22373 0.0
N790 N 0.83683 0.43781 0.16523 0.0
N791 N 0.87176 0.41165 0.20627 0.0
loop_
_geom_bond_atom_site_label_1
_geom_bond_atom_site_label_2
_geom_bond_distance
_geom_bond_site_symmetry_2
_ccdc_geom_bond_type
C0 C1 1.384 . S
C0 C2 1.384 . S
C0 H28 0.931 . S
C1 C0 1.384 . S
C1 C4 1.382 . S
C2 C0 1.384 . S
C2 C3 1.381 . S
C2 H29 0.930 . S
C3 C2 1.381 . S
C3 C5 1.381 . S
C3 C6 1.487 . S
C4 C1 1.382 . S
C4 C5 1.387 . S
C4 H30 0.930 . S
C5 C3 1.381 . S
C5 C4 1.387 . S
C5 H31 0.931 . S
C6 C3 1.487 . S
C6 C13 1.399 . S
C6 N44 1.343 1_655 S
C7 C8 1.384 . S
C7 C9 1.384 . S
C7 H32 0.931 . S
C8 C7 1.384 . S
C8 C11 1.382 . S
C9 C7 1.384 . S
C9 C10 1.381 . S
C9 H33 0.930 . S
C10 C9 1.381 . S
C10 C12 1.381 . S
C10 C13 1.487 . S
C11 C8 1.382 . S
C11 C12 1.387 . S
C11 H34 0.930 . S
C12 C10 1.381 . S
C12 C11 1.387 . S
C12 H35 0.931 . S
C13 C6 1.399 . S
C13 C10 1.487 . S
C13 N45 1.343 1_655 S
C14 C15 1.384 . S
C14 C16 1.384 . S
C14 H36 0.931 . S
C15 C14 1.384 . S
C15 C18 1.382 . S
C16 C14 1.384 . S
C16 C17 1.381 . S
C16 H37 0.930 . S
C17 C16 1.381 . S
C17 C19 1.381 . S
C17 C20 1.487 . S
C18 C15 1.382 . S
C18 C19 1.387 . S
C18 H38 0.930 . S
C19 C17 1.381 . S
C19 C18 1.387 . S
C19 H39 0.931 . S
C20 C17 1.487 . S
C20 C27 1.399 . S
C20 N45 1.343 . S
C21 C22 1.384 . S
C21 C23 1.384 . S
C21 H40 0.931 . S
C22 C21 1.384 . S
C22 C25 1.382 . S
C23 C21 1.384 . S
C23 C24 1.381 . S
C23 H41 0.930 . S
C24 C23 1.381 . S
C24 C26 1.381 . S
C24 C27 1.487 . S
C25 C22 1.382 . S
C25 C26 1.387 . S
C25 H42 0.930 . S
C26 C24 1.381 . S
C26 C25 1.387 . S
C26 H43 0.931 . S
C27 C20 1.399 . S
C27 C24 1.487 . S
C27 N44 1.343 . S
H28 C0 0.931 . S
H29 C2 0.930 . S
H30 C4 0.930 . S
H31 C5 0.931 . S
H32 C7 0.931 . S
H33 C9 0.930 . S
H34 C11 0.930 . S
H35 C12 0.931 . S
H36 C14 0.931 . S
H37 C16 0.930 . S
H38 C18 0.930 . S
H39 C19 0.931 . S
H40 C21 0.931 . S
H41 C23 0.930 . S
H42 C25 0.930 . S
H43 C26 0.931 . S
N44 C6 1.343 1_455 S
N44 C27 1.343 . S
N45 C13 1.343 1_455 S
N45 C20 1.343 . S
C46 C47 1.384 . S
C46 C48 1.384 . S
C46 H74 0.931 . S
C47 C46 1.384 . S
C47 C50 1.382 . S
C48 C46 1.384 . S
C48 C49 1.381 . S
C48 H75 0.930 . S
C49 C48 1.381 . S
C49 C51 1.381 . S
C49 C52 1.487 . S
C50 C47 1.382 . S
C50 C51 1.387 . S
C50 H76 0.930 . S
C51 C49 1.381 . S
C51 C50 1.387 . S
C51 H77 0.931 . S
C52 C49 1.487 . S
C52 C59 1.399 . S
C52 N90 1.343 1_565 S
C53 C54 1.384 . S
C53 C55 1.384 . S
C53 H78 0.931 . S
C54 C53 1.384 . S
C54 C57 1.382 . S
C55 C53 1.384 . S
C55 C56 1.381 . S
C55 H79 0.930 . S
C56 C55 1.381 . S
C56 C58 1.381 . S
C56 C59 1.487 . S
C57 C54 1.382 . S
C57 C58 1.387 . S
C57 H80 0.930 . S
C58 C56 1.381 . S
C58 C57 1.387 . S
C58 H81 0.931 . S
C59 C52 1.399 . S
C59 C56 1.487 . S
C59 N91 1.343 1_565 S
C60 C61 1.384 . S
C60 C62 1.384 . S
C60 H82 0.931 . S
C61 C60 1.384 . S
C61 C64 1.382 . S
C62 C60 1.384 . S
C62 C63 1.381 . S
C62 H83 0.930 . S
C63 C62 1.381 . S
C63 C65 1.381 . S
C63 C66 1.487 . S
C64 C61 1.382 . S
C64 C65 1.387 . S
C64 H84 0.930 . S
C65 C63 1.381 . S
C65 C64 1.387 . S
C65 H85 0.931 . S
C66 C63 1.487 . S
C66 C73 1.399 . S
C66 N91 1.343 . S
C67 C68 1.384 . S
C67 C69 1.384 . S
C67 H86 0.931 . S
C68 C67 1.384 . S
C68 C71 1.382 . S
C69 C67 1.384 . S
C69 C70 1.381 . S
C69 H87 0.930 . S
C70 C69 1.381 . S
C70 C72 1.381 . S
C70 C73 1.487 . S
C71 C68 1.382 . S
C71 C72 1.387 . S
C71 H88 0.930 . S
C72 C70 1.381 . S
C72 C71 1.387 . S
C72 H89 0.931 . S
C73 C66 1.399 . S
C73 C70 1.487 . S
C73 N90 1.343 . S
H74 C46 0.931 . S
H75 C48 0.930 . S
H76 C50 0.930 . S
H77 C51 0.931 . S
H78 C53 0.931 . S
H79 C55 0.930 . S
H80 C57 0.930 . S
H81 C58 0.931 . S
H82 C60 0.931 . S
H83 C62 0.930 . S
H84 C64 0.930 . S
H85 C65 0.931 . S
H86 C67 0.931 . S
H87 C69 0.930 . S
H88 C71 0.930 . S
H89 C72 0.931 . S
N90 C52 1.343 1_545 S
N90 C73 1.343 . S
N91 C59 1.343 1_545 S
N91 C66 1.343 . S
C92 C93 1.384 . S
C92 C94 1.384 . S
C92 H120 0.931 . S
C93 C92 1.384 . S
C93 C96 1.382 . S
C94 C92 1.384 . S
C94 C95 1.381 . S
C94 H121 0.930 . S
C95 C94 1.381 . S
C95 C97 1.381 . S
C95 C98 1.487 . S
C96 C93 1.382 . S
C96 C97 1.387 . S
C96 H122 0.930 . S
C97 C95 1.381 . S
C97 C96 1.387 . S
C97 H123 0.931 . S
C98 C95 1.487 . S
C98 C105 1.399 . S
C98 N136 1.343 . S
C99 C100 1.384 . S
C99 C101 1.384 . S
C99 H124 0.931 . S
C100 C99 1.384 . S
C100 C103 1.382 . S
C101 C99 1.384 . S
C101 C102 1.381 . S
C101 H125 0.930 . S
C102 C101 1.381 . S
C102 C104 1.381 . S
C102 C105 1.487 . S
C103 C100 1.382 . S
C103 C104 1.387 . S
C103 H126 0.930 . S
C104 C102 1.381 . S
C104 C103 1.387 . S
C104 H127 0.931 . S
C105 C98 1.399 . S
C105 C102 1.487 . S
C105 N137 1.343 . S
C106 C107 1.384 . S
C106 C108 1.384 . S
C106 H128 0.931 . S
C107 C106 1.384 . S
C107 C110 1.382 . S
C108 C106 1.384 . S
C108 C109 1.381 . S
C108 H129 0.930 . S
C109 C108 1.381 . S
C109 C111 1.381 . S
C109 C112 1.487 . S
C110 C107 1.382 . S
C110 C111 1.387 . S
C110 H130 0.930 . S
C111 C109 1.381 . S
C111 C110 1.387 . S
C111 H131 0.931 . S
C112 C109 1.487 . S
C112 C119 1.399 . S
C112 N137 1.343 . S
C113 C114 1.384 . S
C113 C115 1.384 . S
C113 H132 0.931 . S
C114 C113 1.384 . S
C114 C117 1.382 . S
C115 C113 1.384 . S
C115 C116 1.381 . S
C115 H133 0.930 . S
C116 C115 1.381 . S
C116 C118 1.381 . S
C116 C119 1.487 . S
C117 C114 1.382 . S
C117 C118 1.387 . S
C117 H134 0.930 . S
C118 C116 1.381 . S
C118 C117 1.387 . S
C118 H135 0.931 . S
C119 C112 1.399 . S
C119 C116 1.487 . S
C119 N136 1.343 . S
H120 C92 0.931 . S
H121 C94 0.930 . S
H122 C96 0.930 . S
H123 C97 0.931 . S
H124 C99 0.931 . S
H125 C101 0.930 . S
H126 C103 0.930 . S
H127 C104 0.931 . S
H128 C106 0.931 . S
H129 C108 0.930 . S
H130 C110 0.930 . S
H131 C111 0.931 . S
H132 C113 0.931 . S
H133 C115 0.930 . S
H134 C117 0.930 . S
H135 C118 0.931 . S
N136 C98 1.343 . S
N136 C119 1.343 . S
N137 C105 1.343 . S
N137 C112 1.343 . S
C138 C139 1.384 . S
C138 C140 1.384 . S
C138 H166 0.931 . S
C139 C138 1.384 . S
C139 C142 1.382 . S
C140 C138 1.384 . S
C140 C141 1.381 . S
C140 H167 0.930 . S
C141 C140 1.381 . S
C141 C143 1.381 . S
C141 C144 1.487 . S
C142 C139 1.382 . S
C142 C143 1.387 . S
C142 H168 0.930 . S
C143 C141 1.381 . S
C143 C142 1.387 . S
C143 H169 0.931 . S
C144 C141 1.487 . S
C144 C151 1.399 . S
C144 N182 1.343 1_655 S
C145 C146 1.384 . S
C145 C147 1.384 . S
C145 H170 0.931 . S
C146 C145 1.384 . S
C146 C149 1.382 . S
C147 C145 1.384 . S
C147 C148 1.381 . S
C147 H171 0.930 . S
C148 C147 1.381 . S
C148 C150 1.381 . S
C148 C151 1.487 . S
C149 C146 1.382 . S
C149 C150 1.387 . S
C149 H172 0.930 . S
C150 C148 1.381 . S
C150 C149 1.387 . S
C150 H173 0.931 . S
C151 C144 1.399 . S
C151 C148 1.487 . S
C151 N183 1.343 1_655 S
C152 C153 1.384 . S
C152 C154 1.384 . S
C152 H174 0.931 . S
C153 C152 1.384 . S
C153 C156 1.382 . S
C154 C152 1.384 . S
C154 C155 1.381 . S
C154 H175 0.930 . S
C155 C154 1.381 . S
C155 C157 1.381 . S
C155 C158 1.487 . S
C156 C153 1.382 . S
C156 C157 1.387 . S
C156 H176 0.930 . S
C157 C155 1.381 . S
C157 C156 1.387 . S
C157 H177 0.931 . S
C158 C155 1.487 . S
C158 C165 1.399 . S
C158 N183 1.343 . S
C159 C160 1.384 . S
C159 C161 1.384 . S
C159 H178 0.931 . S
C160 C159 1.384 . S
C160 C163 1.382 . S
C161 C159 1.384 . S
C161 C162 1.381 . S
C161 H179 0.930 . S
C162 C161 1.381 . S
C162 C164 1.381 . S
C162 C165 1.487 . S
C163 C160 1.382 . S
C163 C164 1.387 . S
C163 H180 0.930 . S
C164 C162 1.381 . S
C164 C163 1.387 . S
C164 H181 0.931 . S
C165 C158 1.399 . S
C165 C162 1.487 . S
C165 N182 1.343 . S
H166 C138 0.931 . S
H167 C140 0.930 . S
H168 C142 0.930 . S
H169 C143 0.931 . S
H170 C145 0.931 . S
H171 C147 0.930 . S
H172 C149 0.930 . S
H173 C150 0.931 . S
H174 C152 0.931 . S
H175 C154 0.930 . S
H176 C156 0.930 . S
H177 C157 0.931 . S
H178 C159 0.931 . S
H179 C161 0.930 . S
H180 C163 0.930 . S
H181 C164 0.931 . S
N182 C144 1.343 1_455 S
N182 C165 1.343 . S
N183 C151 1.343 1_455 S
N183 C158 1.343 . S
C184 C185 1.384 . S
C184 C186 1.384 . S
C184 H212 0.931 . S
C185 C184 1.384 . S
C185 C188 1.382 . S
C186 C184 1.384 . S
C186 C187 1.381 . S
C186 H213 0.957 . S
C187 C186 1.381 . S
C187 C189 1.381 . S
C187 C190 1.487 . S
C188 C185 1.382 . S
C188 C189 1.387 . S
C188 H214 0.930 . S
C189 C187 1.381 . S
C189 C188 1.387 . S
C189 H215 0.931 . S
C190 C187 1.487 . S
C190 C197 1.399 1_556 S
C190 N228 1.343 1_565 S
C191 C192 1.384 . S
C191 C193 1.384 . S
C191 H216 0.931 . S
C192 C191 1.384 . S
C192 C195 1.382 . S
C193 C191 1.384 . S
C193 C194 1.381 . S
C193 H217 0.930 . S
C194 C193 1.381 . S
C194 C196 1.381 . S
C194 C197 1.487 . S
C195 C192 1.382 . S
C195 C196 1.387 . S
C195 H218 0.930 . S
C196 C194 1.381 . S
C196 C195 1.387 . S
C196 H219 0.931 . S
C197 C190 1.399 1_554 S
C197 C194 1.487 . S
C197 N229 1.343 1_565 S
C198 C199 1.384 . S
C198 C200 1.384 1_554 S
C198 H220 0.931 1_554 S
C199 C198 1.384 . S
C199 C202 1.382 . S
C200 C198 1.384 1_556 S
C200 C201 1.381 1_556 S
C200 H221 0.930 . S
C201 C200 1.381 1_554 S
C201 C203 1.381 . S
C201 C204 1.487 1_554 S
C202 C199 1.382 . S
C202 C203 1.387 . S
C202 H222 0.930 . S
C203 C201 1.381 . S
C203 C202 1.387 . S
C203 H223 0.931 . S
C204 C201 1.487 1_556 S
C204 C211 1.399 . S
C204 N229 1.343 1_556 S
C205 C206 1.384 . S
C205 C207 1.384 . S
C205 H224 0.931 . S
C206 C205 1.384 . S
C206 C209 1.382 . S
C207 C205 1.384 . S
C207 C208 1.381 . S
C207 H225 0.930 . S
C208 C207 1.381 . S
C208 C210 1.381 . S
C208 C211 1.487 . S
C209 C206 1.382 . S
C209 C210 1.387 . S
C209 H226 0.930 . S
C210 C208 1.381 . S
C210 C209 1.387 . S
C210 H227 0.931 . S
C211 C204 1.399 . S
C211 C208 1.487 . S
C211 N228 1.343 . S
H212 C184 0.931 . S
H213 C186 0.957 . S
H214 C188 0.930 . S
H215 C189 0.931 . S
H216 C191 0.931 . S
H217 C193 0.930 . S
H218 C195 0.930 . S
H219 C196 0.931 . S
H220 C198 0.931 1_556 S
H221 C200 0.930 . S
H222 C202 0.930 . S
H223 C203 0.931 . S
H224 C205 0.931 . S
H225 C207 0.930 . S
H226 C209 0.930 . S
H227 C210 0.931 . S
N228 C190 1.343 1_545 S
N228 C211 1.343 . S
N229 C197 1.343 1_545 S
N229 C204 1.343 1_554 S
C230 C231 1.384 . S
C230 C232 1.384 . S
C230 H258 0.931 . S
C231 C230 1.384 . S
C231 C234 1.382 . S
C232 C230 1.384 . S
C232 C233 1.381 . S
C232 H259 0.930 . S
C233 C232 1.381 . S
C233 C235 1.381 . S
C233 C236 1.487 . S
C234 C231 1.382 . S
C234 C235 1.387 . S
C234 H260 0.930 . S
C235 C233 1.381 . S
C235 C234 1.387 . S
C235 H261 0.931 . S
C236 C233 1.487 . S
C236 C243 1.399 . S
C236 N274 1.343 . S
C237 C238 1.384 . S
C237 C239 1.384 . S
C237 H262 0.931 . S
C238 C237 1.384 . S
C238 C241 1.382 . S
C239 C237 1.384 . S
C239 C240 1.381 . S
C239 H263 0.930 . S
C240 C239 1.381 . S
C240 C242 1.381 . S
C240 C243 1.487 . S
C241 C238 1.382 . S
C241 C242 1.387 . S
C241 H264 0.930 . S
C242 C240 1.381 . S
C242 C241 1.387 . S
C242 H265 0.931 . S
C243 C236 1.399 . S
C243 C240 1.487 . S
C243 N275 1.343 . S
C244 C245 1.384 . S
C244 C246 1.384 . S
C244 H266 0.931 . S
C245 C244 1.384 . S
C245 C248 1.382 . S
C246 C244 1.384 . S
C246 C247 1.381 . S
C246 H267 0.930 . S
C247 C246 1.381 . S
C247 C249 1.381 . S
C247 C250 1.487 . S
C248 C245 1.382 . S
C248 C249 1.387 . S
C248 H268 0.930 . S
C249 C247 1.381 . S
C249 C248 1.387 . S
C249 H269 0.931 . S
C250 C247 1.487 . S
C250 C257 1.399 . S
C250 N275 1.343 . S
C251 C252 1.384 . S
C251 C253 1.384 . S
C251 H270 0.931 . S
C252 C251 1.384 . S
C252 C255 1.382 . S
C253 C251 1.384 . S
C253 C254 1.381 . S
C253 H271 0.930 . S
C254 C253 1.381 . S
C254 C256 1.381 . S
C254 C257 1.487 . S
C255 C252 1.382 . S
C255 C256 1.387 . S
C255 H272 0.930 . S
C256 C254 1.381 . S
C256 C255 1.387 . S
C256 H273 0.931 . S
C257 C250 1.399 . S
C257 C254 1.487 . S
C257 N274 1.343 . S
H258 C230 0.931 . S
H259 C232 0.930 . S
H260 C234 0.930 . S
H261 C235 0.931 . S
H262 C237 0.931 . S
H263 C239 0.930 . S
H264 C241 0.930 . S
H265 C242 0.931 . S
H266 C244 0.931 . S
H267 C246 0.930 . S
H268 C248 0.930 . S
H269 C249 0.931 . S
H270 C251 0.931 . S
H271 C253 0.930 . S
H272 C255 0.930 . S
H273 C256 0.931 . S
N274 C236 1.343 . S
N274 C257 1.343 . S
N275 C243 1.343 . S
N275 C250 1.343 . S
O276 Cd277 2.223 . S
O276 C284 1.315 . S
Cd277 O276 2.223 . S
Cd277 O280 2.297 . S
Cd277 O281 2.439 . S
Cd277 O287 2.240 . S
Cd278 O279 2.240 . S
Cd278 O286 2.223 . S
Cd278 O288 2.297 . S
Cd278 O289 2.439 . S
O279 Cd278 2.240 . S
O279 C284 1.279 . S
O280 Cd277 2.297 . S
O280 C282 1.247 . S
O281 Cd277 2.439 . S
O281 C282 1.208 . S
C282 O280 1.247 . S
C282 O281 1.208 . S
C283 O288 1.247 . S
C283 O289 1.208 . S
C284 O276 1.315 . S
C284 O279 1.279 . S
C285 O286 1.315 . S
C285 O287 1.279 . S
O286 Cd278 2.223 . S
O286 C285 1.315 . S
O287 Cd277 2.240 . S
O287 C285 1.279 . S
O288 Cd278 2.297 . S
O288 C283 1.247 . S
O289 Cd278 2.439 . S
O289 C283 1.208 . S
O290 Cd291 2.223 . S
O290 C298 1.315 . S
Cd291 O290 2.223 . S
Cd291 O294 2.297 . S
Cd291 O295 2.439 . S
Cd291 O301 2.240 . S
Cd292 O293 2.240 . S
Cd292 O300 2.223 . S
Cd292 O302 2.297 . S
Cd292 O303 2.439 . S
O293 Cd292 2.240 . S
O293 C298 1.279 . S
O294 Cd291 2.297 . S
O294 C296 1.247 . S
O295 Cd291 2.439 . S
O295 C296 1.208 . S
C296 O294 1.247 . S
C296 O295 1.208 . S
C297 O302 1.247 . S
C297 O303 1.208 . S
C298 O290 1.315 . S
C298 O293 1.279 . S
C299 O300 1.315 . S
C299 O301 1.279 . S
O300 Cd292 2.223 . S
O300 C299 1.315 . S
O301 Cd291 2.240 . S
O301 C299 1.279 . S
O302 Cd292 2.297 . S
O302 C297 1.247 . S
O303 Cd292 2.439 . S
O303 C297 1.208 . S
O304 Cd305 2.223 . S
O304 C312 1.315 . S
Cd305 O304 2.223 . S
Cd305 O308 2.297 . S
Cd305 O309 2.439 . S
Cd305 O315 2.240 . S
Cd306 O307 2.240 . S
Cd306 O314 2.223 . S
Cd306 O316 2.297 . S
Cd306 O317 2.439 . S
O307 Cd306 2.240 . S
O307 C312 1.279 . S
O308 Cd305 2.297 . S
O308 C310 1.247 . S
O309 Cd305 2.439 . S
O309 C310 1.208 . S
C310 O308 1.247 . S
C310 O309 1.208 . S
C311 O316 1.247 . S
C311 O317 1.208 . S
C312 O304 1.315 . S
C312 O307 1.279 . S
C313 O314 1.315 . S
C313 O315 1.279 . S
O314 Cd306 2.223 . S
O314 C313 1.315 . S
O315 Cd305 2.240 . S
O315 C313 1.279 . S
O316 Cd306 2.297 . S
O316 C311 1.247 . S
O317 Cd306 2.439 . S
O317 C311 1.208 . S
O318 Cd319 2.223 . S
O318 C326 1.315 . S
Cd319 O318 2.223 . S
Cd319 O322 2.297 . S
Cd319 O323 2.439 . S
Cd319 O329 2.240 . S
Cd320 O321 2.240 . S
Cd320 O328 2.223 . S
Cd320 O330 2.297 . S
Cd320 O331 2.439 . S
O321 Cd320 2.240 . S
O321 C326 1.279 . S
O322 Cd319 2.297 . S
O322 C324 1.247 . S
O323 Cd319 2.439 . S
O323 C324 1.208 . S
C324 O322 1.247 . S
C324 O323 1.208 . S
C325 O330 1.247 . S
C325 O331 1.208 . S
C326 O318 1.315 . S
C326 O321 1.279 . S
C327 O328 1.315 . S
C327 O329 1.279 . S
O328 Cd320 2.223 . S
O328 C327 1.315 . S
O329 Cd319 2.240 . S
O329 C327 1.279 . S
O330 Cd320 2.297 . S
O330 C325 1.247 . S
O331 Cd320 2.439 . S
O331 C325 1.208 . S
O332 Cd333 2.223 . S
O332 C340 1.315 . S
Cd333 O332 2.223 . S
Cd333 O336 2.297 . S
Cd333 O337 2.439 . S
Cd333 O343 2.240 . S
Cd334 O335 2.240 . S
Cd334 O342 2.223 . S
Cd334 O344 2.297 . S
Cd334 O345 2.439 . S
O335 Cd334 2.240 . S
O335 C340 1.279 . S
O336 Cd333 2.297 . S
O336 C338 1.247 . S
O337 Cd333 2.439 . S
O337 C338 1.208 . S
C338 O336 1.247 . S
C338 O337 1.208 . S
C339 O344 1.247 . S
C339 O345 1.208 . S
C340 O332 1.315 . S
C340 O335 1.279 . S
C341 O342 1.315 . S
C341 O343 1.279 . S
O342 Cd334 2.223 . S
O342 C341 1.315 . S
O343 Cd333 2.240 . S
O343 C341 1.279 . S
O344 Cd334 2.297 . S
O344 C339 1.247 . S
O345 Cd334 2.439 . S
O345 C339 1.208 . S
O346 Cd347 2.223 . S
O346 C354 1.315 . S
Cd347 O346 2.223 . S
Cd347 O350 2.297 . S
Cd347 O351 2.439 . S
Cd347 O357 2.240 . S
Cd348 O349 2.240 . S
Cd348 O356 2.223 . S
Cd348 O358 2.297 . S
Cd348 O359 2.439 . S
O349 Cd348 2.240 . S
O349 C354 1.279 . S
O350 Cd347 2.297 . S
O350 C352 1.247 . S
O351 Cd347 2.439 . S
O351 C352 1.208 . S
C352 O350 1.247 . S
C352 O351 1.208 . S
C353 O358 1.247 . S
C353 O359 1.208 . S
C354 O346 1.315 . S
C354 O349 1.279 . S
C355 O356 1.315 . S
C355 O357 1.279 . S
O356 Cd348 2.223 . S
O356 C355 1.315 . S
O357 Cd347 2.240 . S
O357 C355 1.279 . S
O358 Cd348 2.297 . S
O358 C353 1.247 . S
O359 Cd348 2.439 . S
O359 C353 1.208 . S
H360 C366 0.930 . S
H361 C370 0.930 . S
H362 C375 0.929 . S
H363 C373 0.929 . S
H364 C368 0.929 . S
H365 C374 0.929 . S
C366 H360 0.930 . S
C366 C367 1.367 . S
C366 C374 1.378 . S
C367 C366 1.367 . S
C367 C375 1.433 . S
C368 H364 0.929 . S
C368 C370 1.378 . S
C368 C372 1.350 . S
C369 C372 1.463 . S
C369 C374 1.350 . S
C369 N377 1.427 . S
C370 H361 0.930 . S
C370 C368 1.378 . S
C370 C371 1.367 . S
C371 C370 1.367 . S
C371 C373 1.433 . S
C372 C368 1.350 . S
C372 C369 1.463 . S
C372 N376 1.427 . S
C373 H363 0.929 . S
C373 C371 1.433 . S
C373 N376 1.384 . S
C374 H365 0.929 . S
C374 C366 1.378 . S
C374 C369 1.350 . S
C375 H362 0.929 . S
C375 C367 1.433 . S
C375 N377 1.384 . S
N376 C372 1.427 . S
N376 C373 1.384 . S
N377 C369 1.427 . S
N377 C375 1.384 . S
H378 C384 0.930 . S
H379 C388 0.930 . S
H380 C393 0.929 . S
H381 C391 0.929 . S
H382 C386 0.929 . S
H383 C392 0.929 . S
C384 H378 0.930 . S
C384 C385 1.367 . S
C384 C392 1.378 . S
C385 C384 1.367 . S
C385 C393 1.433 . S
C386 H382 0.929 . S
C386 C388 1.378 . S
C386 C390 1.350 . S
C387 C390 1.463 . S
C387 C392 1.350 . S
C387 N395 1.427 . S
C388 H379 0.930 . S
C388 C386 1.378 . S
C388 C389 1.367 . S
C389 C388 1.367 . S
C389 C391 1.433 . S
C390 C386 1.350 . S
C390 C387 1.463 . S
C390 N394 1.427 . S
C391 H381 0.929 . S
C391 C389 1.433 . S
C391 N394 1.384 . S
C392 H383 0.929 . S
C392 C384 1.378 . S
C392 C387 1.350 . S
C393 H380 0.929 . S
C393 C385 1.433 . S
C393 N395 1.384 . S
N394 C390 1.427 . S
N394 C391 1.384 . S
N395 C387 1.427 . S
N395 C393 1.384 . S
H396 C402 0.930 . S
H397 C406 0.930 . S
H398 C411 0.929 . S
H399 C409 0.929 . S
H400 C404 0.929 . S
H401 C410 0.929 . S
C402 H396 0.930 . S
C402 C403 1.367 . S
C402 C410 1.378 . S
C403 C402 1.367 . S
C403 C411 1.433 . S
C404 H400 0.929 . S
C404 C406 1.378 . S
C404 C408 1.350 . S
C405 C408 1.463 . S
C405 C410 1.350 . S
C405 N413 1.427 . S
C406 H397 0.930 . S
C406 C404 1.378 . S
C406 C407 1.367 . S
C407 C406 1.367 . S
C407 C409 1.433 . S
C408 C404 1.350 . S
C408 C405 1.463 . S
C408 N412 1.427 . S
C409 H399 0.929 . S
C409 C407 1.433 . S
C409 N412 1.384 . S
C410 H401 0.929 . S
C410 C402 1.378 . S
C410 C405 1.350 . S
C411 H398 0.929 . S
C411 C403 1.433 . S
C411 N413 1.384 . S
N412 C408 1.427 . S
N412 C409 1.384 . S
N413 C405 1.427 . S
N413 C411 1.384 . S
H414 C420 0.930 . S
H415 C424 0.930 . S
H416 C429 0.929 . S
H417 C427 0.929 . S
H418 C422 0.929 . S
H419 C428 0.929 . S
C420 H414 0.930 . S
C420 C421 1.367 . S
C420 C428 1.378 . S
C421 C420 1.367 . S
C421 C429 1.433 . S
C422 H418 0.929 . S
C422 C424 1.378 . S
C422 C426 1.350 . S
C423 C426 1.463 . S
C423 C428 1.350 . S
C423 N431 1.427 . S
C424 H415 0.930 . S
C424 C422 1.378 . S
C424 C425 1.367 . S
C425 C424 1.367 . S
C425 C427 1.433 . S
C426 C422 1.350 . S
C426 C423 1.463 . S
C426 N430 1.427 . S
C427 H417 0.929 . S
C427 C425 1.433 . S
C427 N430 1.384 . S
C428 H419 0.929 . S
C428 C420 1.378 . S
C428 C423 1.350 . S
C429 H416 0.929 . S
C429 C421 1.433 . S
C429 N431 1.384 . S
N430 C426 1.427 . S
N430 C427 1.384 . S
N431 C423 1.427 . S
N431 C429 1.384 . S
H432 C438 0.930 . S
H433 C442 0.930 . S
H434 C447 0.929 . S
H435 C445 0.929 . S
H436 C440 0.929 . S
H437 C446 0.929 . S
C438 H432 0.930 . S
C438 C439 1.367 . S
C438 C446 1.378 . S
C439 C438 1.367 . S
C439 C447 1.433 . S
C440 H436 0.929 . S
C440 C442 1.378 . S
C440 C444 1.350 . S
C441 C444 1.463 . S
C441 C446 1.350 . S
C441 N449 1.427 . S
C442 H433 0.930 . S
C442 C440 1.378 . S
C442 C443 1.367 . S
C443 C442 1.367 . S
C443 C445 1.433 . S
C444 C440 1.350 . S
C444 C441 1.463 . S
C444 N448 1.427 . S
C445 H435 0.929 . S
C445 C443 1.433 . S
C445 N448 1.384 . S
C446 H437 0.929 . S
C446 C438 1.378 . S
C446 C441 1.350 . S
C447 H434 0.929 . S
C447 C439 1.433 . S
C447 N449 1.384 . S
N448 C444 1.427 . S
N448 C445 1.384 . S
N449 C441 1.427 . S
N449 C447 1.384 . S
H450 C456 0.930 . S
H451 C460 0.930 . S
H452 C465 0.929 . S
H453 C463 0.929 . S
H454 C458 0.929 . S
H455 C464 0.929 . S
C456 H450 0.930 . S
C456 C457 1.367 . S
C456 C464 1.378 . S
C457 C456 1.367 . S
C457 C465 1.433 . S
C458 H454 0.929 . S
C458 C460 1.378 . S
C458 C462 1.350 . S
C459 C462 1.463 . S
C459 C464 1.350 . S
C459 N467 1.427 . S
C460 H451 0.930 . S
C460 C458 1.378 . S
C460 C461 1.367 . S
C461 C460 1.367 . S
C461 C463 1.433 . S
C462 C458 1.350 . S
C462 C459 1.463 . S
C462 N466 1.427 . S
C463 H453 0.929 . S
C463 C461 1.433 . S
C463 N466 1.384 . S
C464 H455 0.929 . S
C464 C456 1.378 . S
C464 C459 1.350 . S
C465 H452 0.929 . S
C465 C457 1.433 . S
C465 N467 1.384 . S
N466 C462 1.427 . S
N466 C463 1.384 . S
N467 C459 1.427 . S
N467 C465 1.384 . S
H468 C474 0.930 . S
H469 C478 0.930 . S
H470 C483 0.929 . S
H471 C481 0.929 . S
H472 C476 0.929 . S
H473 C482 0.929 . S
C474 H468 0.930 . S
C474 C475 1.367 . S
C474 C482 1.378 . S
C475 C474 1.367 . S
C475 C483 1.433 . S
C476 H472 0.929 . S
C476 C478 1.378 . S
C476 C480 1.350 . S
C477 C480 1.463 . S
C477 C482 1.350 . S
C477 N485 1.427 . S
C478 H469 0.930 . S
C478 C476 1.378 . S
C478 C479 1.367 . S
C479 C478 1.367 . S
C479 C481 1.433 . S
C480 C476 1.350 . S
C480 C477 1.463 . S
C480 N484 1.427 . S
C481 H471 0.929 . S
C481 C479 1.433 . S
C481 N484 1.384 . S
C482 H473 0.929 . S
C482 C474 1.378 . S
C482 C477 1.350 . S
C483 H470 0.929 . S
C483 C475 1.433 . S
C483 N485 1.384 . S
N484 C480 1.427 . S
N484 C481 1.384 . S
N485 C477 1.427 . S
N485 C483 1.384 . S
H486 C492 0.930 . S
H487 C496 0.930 . S
H488 C501 0.929 . S
H489 C499 0.929 . S
H490 C494 0.929 . S
H491 C500 0.929 . S
C492 H486 0.930 . S
C492 C493 1.367 . S
C492 C500 1.378 . S
C493 C492 1.367 . S
C493 C501 1.433 . S
C494 H490 0.929 . S
C494 C496 1.378 . S
C494 C498 1.350 . S
C495 C498 1.463 . S
C495 C500 1.350 . S
C495 N503 1.427 . S
C496 H487 0.930 . S
C496 C494 1.378 . S
C496 C497 1.367 . S
C497 C496 1.367 . S
C497 C499 1.433 . S
C498 C494 1.350 . S
C498 C495 1.463 . S
C498 N502 1.427 . S
C499 H489 0.929 . S
C499 C497 1.433 . S
C499 N502 1.384 . S
C500 H491 0.929 . S
C500 C492 1.378 . S
C500 C495 1.350 . S
C501 H488 0.929 . S
C501 C493 1.433 . S
C501 N503 1.384 . S
N502 C498 1.427 . S
N502 C499 1.384 . S
N503 C495 1.427 . S
N503 C501 1.384 . S
H504 C510 0.930 . S
H505 C514 0.930 . S
H506 C519 0.929 . S
H507 C517 0.929 . S
H508 C512 0.929 . S
H509 C518 0.929 . S
C510 H504 0.930 . S
C510 C511 1.367 . S
C510 C518 1.378 . S
C511 C510 1.367 . S
C511 C519 1.433 . S
C512 H508 0.929 . S
C512 C514 1.378 . S
C512 C516 1.350 . S
C513 C516 1.463 . S
C513 C518 1.350 . S
C513 N521 1.427 . S
C514 H505 0.930 . S
C514 C512 1.378 . S
C514 C515 1.367 . S
C515 C514 1.367 . S
C515 C517 1.433 . S
C516 C512 1.350 . S
C516 C513 1.463 . S
C516 N520 1.427 . S
C517 H507 0.929 . S
C517 C515 1.433 . S
C517 N520 1.384 . S
C518 H509 0.929 . S
C518 C510 1.378 . S
C518 C513 1.350 . S
C519 H506 0.929 . S
C519 C511 1.433 . S
C519 N521 1.384 . S
N520 C516 1.427 . S
N520 C517 1.384 . S
N521 C513 1.427 . S
N521 C519 1.384 . S
H522 C528 0.930 1_556 S
H523 C532 0.930 . S
H524 C537 0.929 . S
H525 C535 0.929 . S
H526 C530 0.929 . S
H527 C536 0.929 . S
C528 H522 0.930 1_554 S
C528 C529 1.367 . S
C528 C536 1.378 . S
C529 C528 1.367 . S
C529 C537 1.433 . S
C530 H526 0.929 . S
C530 C532 1.378 . S
C530 C534 1.350 . S
C531 C534 1.463 . S
C531 C536 1.350 . S
C531 N539 1.427 . S
C532 H523 0.930 . S
C532 C530 1.378 . S
C532 C533 1.367 . S
C533 C532 1.367 . S
C533 C535 1.433 . S
C534 C530 1.350 . S
C534 C531 1.463 . S
C534 N538 1.427 . S
C535 H525 0.929 . S
C535 C533 1.433 . S
C535 N538 1.384 . S
C536 H527 0.929 . S
C536 C528 1.378 . S
C536 C531 1.350 . S
C537 H524 0.929 . S
C537 C529 1.433 . S
C537 N539 1.384 . S
N538 C534 1.427 . S
N538 C535 1.384 . S
N539 C531 1.427 . S
N539 C537 1.384 . S
H540 C546 0.930 . S
H541 C550 0.930 . S
H542 C555 0.929 . S
H543 C553 0.929 . S
H544 C548 0.929 . S
H545 C554 0.929 . S
C546 H540 0.930 . S
C546 C547 1.367 . S
C546 C554 1.378 . S
C547 C546 1.367 . S
C547 C555 1.433 . S
C548 H544 0.929 . S
C548 C550 1.378 . S
C548 C552 1.350 . S
C549 C552 1.463 . S
C549 C554 1.350 . S
C549 N557 1.427 . S
C550 H541 0.930 . S
C550 C548 1.378 . S
C550 C551 1.367 . S
C551 C550 1.367 . S
C551 C553 1.433 . S
C552 C548 1.350 . S
C552 C549 1.463 . S
C552 N556 1.427 . S
C553 H543 0.929 . S
C553 C551 1.433 . S
C553 N556 1.384 . S
C554 H545 0.929 . S
C554 C546 1.378 . S
C554 C549 1.350 . S
C555 H542 0.929 . S
C555 C547 1.433 . S
C555 N557 1.384 . S
N556 C552 1.427 . S
N556 C553 1.384 . S
N557 C549 1.427 . S
N557 C555 1.384 . S
H558 C564 0.930 . S
H559 C568 0.930 . S
H560 C573 0.929 . S
H561 C571 0.929 . S
H562 C566 0.929 . S
H563 C572 0.929 . S
C564 H558 0.930 . S
C564 C565 1.367 . S
C564 C572 1.378 . S
C565 C564 1.367 . S
C565 C573 1.433 . S
C566 H562 0.929 . S
C566 C568 1.378 . S
C566 C570 1.350 . S
C567 C570 1.463 . S
C567 C572 1.350 . S
C567 N575 1.427 . S
C568 H559 0.930 . S
C568 C566 1.378 . S
C568 C569 1.367 . S
C569 C568 1.367 . S
C569 C571 1.433 . S
C570 C566 1.350 . S
C570 C567 1.463 . S
C570 N574 1.427 . S
C571 H561 0.929 . S
C571 C569 1.433 . S
C571 N574 1.384 . S
C572 H563 0.929 . S
C572 C564 1.378 . S
C572 C567 1.350 . S
C573 H560 0.929 . S
C573 C565 1.433 . S
C573 N575 1.384 . S
N574 C570 1.427 . S
N574 C571 1.384 . S
N575 C567 1.427 . S
N575 C573 1.384 . S
H576 C582 0.930 . S
H577 C586 0.930 . S
H578 C591 0.929 . S
H579 C589 0.929 . S
H580 C584 0.929 . S
H581 C590 0.929 . S
C582 H576 0.930 . S
C582 C583 1.367 . S
C582 C590 1.378 . S
C583 C582 1.367 . S
C583 C591 1.433 . S
C584 H580 0.929 . S
C584 C586 1.378 . S
C584 C588 1.350 . S
C585 C588 1.463 . S
C585 C590 1.350 . S
C585 N593 1.427 . S
C586 H577 0.930 . S
C586 C584 1.378 . S
C586 C587 1.367 . S
C587 C586 1.367 . S
C587 C589 1.433 . S
C588 C584 1.350 . S
C588 C585 1.463 . S
C588 N592 1.427 . S
C589 H579 0.929 . S
C589 C587 1.433 . S
C589 N592 1.384 . S
C590 H581 0.929 . S
C590 C582 1.378 . S
C590 C585 1.350 . S
C591 H578 0.929 . S
C591 C583 1.433 . S
C591 N593 1.384 . S
N592 C588 1.427 . S
N592 C589 1.384 . S
N593 C585 1.427 . S
N593 C591 1.384 . S
H594 C600 0.930 . S
H595 C604 0.930 . S
H596 C609 0.929 . S
H597 C607 0.929 . S
H598 C602 0.929 . S
H599 C608 0.929 . S
C600 H594 0.930 . S
C600 C601 1.367 . S
C600 C608 1.378 . S
C601 C600 1.367 . S
C601 C609 1.433 . S
C602 H598 0.929 . S
C602 C604 1.378 . S
C602 C606 1.350 . S
C603 C606 1.463 . S
C603 C608 1.350 . S
C603 N611 1.427 . S
C604 H595 0.930 . S
C604 C602 1.378 . S
C604 C605 1.367 . S
C605 C604 1.367 . S
C605 C607 1.433 . S
C606 C602 1.350 . S
C606 C603 1.463 . S
C606 N610 1.427 . S
C607 H597 0.929 . S
C607 C605 1.433 . S
C607 N610 1.384 . S
C608 H599 0.929 . S
C608 C600 1.378 . S
C608 C603 1.350 . S
C609 H596 0.929 . S
C609 C601 1.433 . S
C609 N611 1.384 . S
N610 C606 1.427 . S
N610 C607 1.384 . S
N611 C603 1.427 . S
N611 C609 1.384 . S
H612 C618 0.930 . S
H613 C622 0.930 . S
H614 C627 0.929 . S
H615 C625 0.929 . S
H616 C620 0.929 . S
H617 C626 0.929 . S
C618 H612 0.930 . S
C618 C619 1.367 . S
C618 C626 1.378 . S
C619 C618 1.367 . S
C619 C627 1.433 . S
C620 H616 0.929 . S
C620 C622 1.378 . S
C620 C624 1.350 . S
C621 C624 1.463 . S
C621 C626 1.350 . S
C621 N629 1.427 . S
C622 H613 0.930 . S
C622 C620 1.378 . S
C622 C623 1.367 . S
C623 C622 1.367 . S
C623 C625 1.433 . S
C624 C620 1.350 . S
C624 C621 1.463 . S
C624 N628 1.427 . S
C625 H615 0.929 . S
C625 C623 1.433 . S
C625 N628 1.384 . S
C626 H617 0.929 . S
C626 C618 1.378 . S
C626 C621 1.350 . S
C627 H614 0.929 . S
C627 C619 1.433 . S
C627 N629 1.384 . S
N628 C624 1.427 . S
N628 C625 1.384 . S
N629 C621 1.427 . S
N629 C627 1.384 . S
H630 C636 0.930 . S
H631 C640 0.930 . S
H632 C645 0.929 . S
H633 C643 0.929 . S
H634 C638 0.929 . S
H635 C644 0.929 . S
C636 H630 0.930 . S
C636 C637 1.367 . S
C636 C644 1.378 . S
C637 C636 1.367 . S
C637 C645 1.433 . S
C638 H634 0.929 . S
C638 C640 1.378 1_556 S
C638 C642 1.350 . S
C639 C642 1.463 . S
C639 C644 1.350 . S
C639 N647 1.427 . S
C640 H631 0.930 . S
C640 C638 1.378 1_554 S
C640 C641 1.367 . S
C641 C640 1.367 . S
C641 C643 1.433 . S
C642 C638 1.350 . S
C642 C639 1.463 . S
C642 N646 1.427 1_556 S
C643 H633 0.929 . S
C643 C641 1.433 . S
C643 N646 1.384 . S
C644 H635 0.929 . S
C644 C636 1.378 . S
C644 C639 1.350 . S
C645 H632 0.929 . S
C645 C637 1.433 . S
C645 N647 1.384 . S
N646 C642 1.427 1_554 S
N646 C643 1.384 . S
N647 C639 1.427 . S
N647 C645 1.384 . S
H648 C654 0.930 . S
H649 C658 0.930 . S
H650 C663 0.929 . S
H651 C661 0.929 . S
H652 C656 0.929 . S
H653 C662 0.929 . S
C654 H648 0.930 . S
C654 C655 1.367 . S
C654 C662 1.378 . S
C655 C654 1.367 . S
C655 C663 1.433 . S
C656 H652 0.929 . S
C656 C658 1.378 . S
C656 C660 1.350 . S
C657 C660 1.463 . S
C657 C662 1.350 . S
C657 N665 1.427 . S
C658 H649 0.930 . S
C658 C656 1.378 . S
C658 C659 1.367 . S
C659 C658 1.367 . S
C659 C661 1.433 . S
C660 C656 1.350 . S
C660 C657 1.463 . S
C660 N664 1.427 . S
C661 H651 0.929 . S
C661 C659 1.433 . S
C661 N664 1.384 . S
C662 H653 0.929 . S
C662 C654 1.378 . S
C662 C657 1.350 . S
C663 H650 0.929 . S
C663 C655 1.433 . S
C663 N665 1.384 . S
N664 C660 1.427 . S
N664 C661 1.384 . S
N665 C657 1.427 . S
N665 C663 1.384 . S
H666 C672 0.930 . S
H667 C676 0.930 . S
H668 C681 0.929 . S
H669 C679 0.929 . S
H670 C674 0.929 . S
H671 C680 0.929 . S
C672 H666 0.930 . S
C672 C673 1.367 . S
C672 C680 1.378 . S
C673 C672 1.367 . S
C673 C681 1.433 . S
C674 H670 0.929 . S
C674 C676 1.378 . S
C674 C678 1.350 . S
C675 C678 1.463 . S
C675 C680 1.350 . S
C675 N683 1.427 . S
C676 H667 0.930 . S
C676 C674 1.378 . S
C676 C677 1.367 . S
C677 C676 1.367 . S
C677 C679 1.433 . S
C678 C674 1.350 . S
C678 C675 1.463 . S
C678 N682 1.427 . S
C679 H669 0.929 . S
C679 C677 1.433 . S
C679 N682 1.384 . S
C680 H671 0.929 . S
C680 C672 1.378 . S
C680 C675 1.350 . S
C681 H668 0.929 . S
C681 C673 1.433 . S
C681 N683 1.384 . S
N682 C678 1.427 . S
N682 C679 1.384 . S
N683 C675 1.427 . S
N683 C681 1.384 . S
H684 C690 0.930 . S
H685 C694 0.930 . S
H686 C699 0.929 . S
H687 C697 0.929 . S
H688 C692 0.929 . S
H689 C698 0.929 . S
C690 H684 0.930 . S
C690 C691 1.367 . S
C690 C698 1.378 . S
C691 C690 1.367 . S
C691 C699 1.433 . S
C692 H688 0.929 . S
C692 C694 1.378 . S
C692 C696 1.350 . S
C693 C696 1.463 . S
C693 C698 1.350 . S
C693 N701 1.427 . S
C694 H685 0.930 . S
C694 C692 1.378 . S
C694 C695 1.367 . S
C695 C694 1.367 . S
C695 C697 1.433 . S
C696 C692 1.350 . S
C696 C693 1.463 . S
C696 N700 1.427 . S
C697 H687 0.929 . S
C697 C695 1.433 . S
C697 N700 1.384 . S
C698 H689 0.929 . S
C698 C690 1.378 . S
C698 C693 1.350 . S
C699 H686 0.929 . S
C699 C691 1.433 . S
C699 N701 1.384 . S
N700 C696 1.427 . S
N700 C697 1.384 . S
N701 C693 1.427 . S
N701 C699 1.384 . S
H702 C708 0.930 . S
H703 C712 0.930 . S
H704 C717 0.929 . S
H705 C715 0.929 . S
H706 C710 0.929 . S
H707 C716 0.929 . S
C708 H702 0.930 . S
C708 C709 1.367 . S
C708 C716 1.378 . S
C709 C708 1.367 . S
C709 C717 1.433 . S
C710 H706 0.929 . S
C710 C712 1.378 . S
C710 C714 1.350 . S
C711 C714 1.463 . S
C711 C716 1.350 . S
C711 N719 1.427 . S
C712 H703 0.930 . S
C712 C710 1.378 . S
C712 C713 1.367 . S
C713 C712 1.367 . S
C713 C715 1.433 . S
C714 C710 1.350 . S
C714 C711 1.463 . S
C714 N718 1.427 . S
C715 H705 0.929 . S
C715 C713 1.433 . S
C715 N718 1.384 . S
C716 H707 0.929 . S
C716 C708 1.378 . S
C716 C711 1.350 . S
C717 H704 0.929 . S
C717 C709 1.433 . S
C717 N719 1.384 . S
N718 C714 1.427 . S
N718 C715 1.384 . S
N719 C711 1.427 . S
N719 C717 1.384 . S
H720 C726 0.930 . S
H721 C730 0.930 . S
H722 C735 0.929 . S
H723 C733 0.929 . S
H724 C728 0.929 . S
H725 C734 0.929 . S
C726 H720 0.930 . S
C726 C727 1.367 . S
C726 C734 1.378 . S
C727 C726 1.367 . S
C727 C735 1.433 . S
C728 H724 0.929 . S
C728 C730 1.378 . S
C728 C732 1.350 . S
C729 C732 1.463 . S
C729 C734 1.350 . S
C729 N737 1.427 . S
C730 H721 0.930 . S
C730 C728 1.378 . S
C730 C731 1.367 . S
C731 C730 1.367 . S
C731 C733 1.433 . S
C732 C728 1.350 . S
C732 C729 1.463 . S
C732 N736 1.427 . S
C733 H723 0.929 . S
C733 C731 1.433 . S
C733 N736 1.384 . S
C734 H725 0.929 . S
C734 C726 1.378 . S
C734 C729 1.350 . S
C735 H722 0.929 . S
C735 C727 1.433 . S
C735 N737 1.384 . S
N736 C732 1.427 . S
N736 C733 1.384 . S
N737 C729 1.427 . S
N737 C735 1.384 . S
H738 C744 0.930 . S
H739 C748 0.930 . S
H740 C753 0.929 . S
H741 C751 0.929 . S
H742 C746 0.929 . S
H743 C752 0.929 . S
C744 H738 0.930 . S
C744 C745 1.367 . S
C744 C752 1.378 . S
C745 C744 1.367 . S
C745 C753 1.433 . S
C746 H742 0.929 . S
C746 C748 1.378 . S
C746 C750 1.350 . S
C747 C750 1.463 . S
C747 C752 1.350 . S
C747 N755 1.427 . S
C748 H739 0.930 . S
C748 C746 1.378 . S
C748 C749 1.367 . S
C749 C748 1.367 . S
C749 C751 1.433 . S
C750 C746 1.350 . S
C750 C747 1.463 . S
C750 N754 1.427 . S
C751 H741 0.929 . S
C751 C749 1.433 . S
C751 N754 1.384 . S
C752 H743 0.929 . S
C752 C744 1.378 . S
C752 C747 1.350 . S
C753 H740 0.929 . S
C753 C745 1.433 . S
C753 N755 1.384 . S
N754 C750 1.427 . S
N754 C751 1.384 . S
N755 C747 1.427 . S
N755 C753 1.384 . S
H756 C762 0.930 . S
H757 C766 0.930 . S
H758 C771 0.929 . S
H759 C769 0.929 . S
H760 C764 0.929 . S
H761 C770 0.929 . S
C762 H756 0.930 . S
C762 C763 1.367 . S
C762 C770 1.378 . S
C763 C762 1.367 . S
C763 C771 1.433 . S
C764 H760 0.929 . S
C764 C766 1.378 . S
C764 C768 1.350 . S
C765 C768 1.463 1_554 S
C765 C770 1.350 . S
C765 N773 1.427 . S
C766 H757 0.930 . S
C766 C764 1.378 . S
C766 C767 1.367 . S
C767 C766 1.367 . S
C767 C769 1.433 . S
C768 C764 1.350 . S
C768 C765 1.463 1_556 S
C768 N772 1.427 . S
C769 H759 0.929 . S
C769 C767 1.433 . S
C769 N772 1.384 . S
C770 H761 0.929 . S
C770 C762 1.378 . S
C770 C765 1.350 . S
C771 H758 0.929 . S
C771 C763 1.433 . S
C771 N773 1.384 . S
N772 C768 1.427 . S
N772 C769 1.384 . S
N773 C765 1.427 . S
N773 C771 1.384 . S
H774 C780 0.930 . S
H775 C784 0.930 . S
H776 C789 0.929 . S
H777 C787 0.929 . S
H778 C782 0.929 . S
H779 C788 0.929 . S
C780 H774 0.930 . S
C780 C781 1.367 . S
C780 C788 1.378 . S
C781 C780 1.367 . S
C781 C789 1.433 . S
C782 H778 0.929 . S
C782 C784 1.378 . S
C782 C786 1.350 . S
C783 C786 1.463 . S
C783 C788 1.350 . S
C783 N791 1.427 . S
C784 H775 0.930 . S
C784 C782 1.378 . S
C784 C785 1.367 . S
C785 C784 1.367 . S
C785 C787 1.433 . S
C786 C782 1.350 . S
C786 C783 1.463 . S
C786 N790 1.427 . S
C787 H777 0.929 . S
C787 C785 1.433 . S
C787 N790 1.384 . S
C788 H779 0.929 . S
C788 C780 1.378 . S
C788 C783 1.350 . S
C789 H776 0.929 . S
C789 C781 1.433 . S
C789 N791 1.384 . S
N790 C786 1.427 . S
N790 C787 1.384 . S
N791 C783 1.427 . S
N791 C789 1.384 . S
C371 C353 1.592 . S
C367 C15 1.579 . S
C385 C61 1.464 . S
C389 C282 1.441 . S
C403 C114 1.577 . S
C407 C296 1.592 . S
C421 C139 1.464 . S
C425 C310 1.440 . S
C443 C324 1.592 . S
C439 C185 1.590 . S
C457 C245 1.464 . S
C461 C339 1.441 . S
C475 C47 1.458 . S
C479 C297 1.430 . S
C493 C100 1.590 . S
C497 C311 1.582 . S
C511 C153 1.463 . S
C515 C325 1.431 . S
C533 C338 1.582 . S
C529 C199 1.578 . S
C551 C352 1.439 . S
C547 C231 1.462 . S
C569 C283 1.589 . S
C565 C1 1.596 . S
C583 C22 1.479 . S
C587 C299 1.464 . S
C601 C68 1.684 . S
C605 C313 1.676 . S
C623 C327 1.464 . S
C619 C107 1.479 . S
C637 C146 1.702 . S
C641 C340 1.679 . S
C659 C354 1.465 . S
C655 C192 1.476 . S
C677 C285 1.679 . S
C673 C252 1.689 . S
C695 C355 1.669 . S
C691 C54 1.698 . S
C709 C93 1.477 . S
C713 C284 1.459 . S
C731 C298 1.671 . S
C727 C160 1.684 . S
C745 C206 1.476 . S
C749 C312 1.466 . S
C763 C238 1.701 . S
C767 C326 1.679 . S
C781 C8 1.477 . S
C785 C341 1.467 . S
