# Generated by pormake.
# Topology ptr, (4,4)-cn, num edge types: 1
# Building blocks:
#     Node 0, Type 0, BuildingBlock: UXUYUI_clean_sbu_0, # of connection points: 4
#     Node 1, Type 0, BuildingBlock: UXUYUI_clean_sbu_0, # of connection points: 4
#     Node 2, Type 0, BuildingBlock: UXUYUI_clean_sbu_0, # of connection points: 4
#     Node 3, Type 0, BuildingBlock: UXUYUI_clean_sbu_0, # of connection points: 4
#     Node 4, Type 0, BuildingBlock: UXUYUI_clean_sbu_0, # of connection points: 4
#     Node 5, Type 0, BuildingBlock: UXUYUI_clean_sbu_0, # of connection points: 4
#     Node 6, Type 0, BuildingBlock: UXUYUI_clean_sbu_0, # of connection points: 4
#     Node 7, Type 0, BuildingBlock: UXUYUI_clean_sbu_0, # of connection points: 4
#     Node 8, Type 0, BuildingBlock: UXUYUI_clean_sbu_0, # of connection points: 4
#     Node 9, Type 0, BuildingBlock: UXUYUI_clean_sbu_0, # of connection points: 4
#     Node 10, Type 0, BuildingBlock: UXUYUI_clean_sbu_0, # of connection points: 4
#     Node 11, Type 0, BuildingBlock: UXUYUI_clean_sbu_0, # of connection points: 4
#     Node 12, Type 0, BuildingBlock: UXUYUI_clean_sbu_0, # of connection points: 4
#     Node 13, Type 0, BuildingBlock: UXUYUI_clean_sbu_0, # of connection points: 4
#     Node 14, Type 0, BuildingBlock: UXUYUI_clean_sbu_0, # of connection points: 4
#     Node 15, Type 0, BuildingBlock: UXUYUI_clean_sbu_0, # of connection points: 4
#     Node 16, Type 0, BuildingBlock: UXUYUI_clean_sbu_0, # of connection points: 4
#     Node 17, Type 0, BuildingBlock: UXUYUI_clean_sbu_0, # of connection points: 4
#     Node 18, Type 1, BuildingBlock: MIFKUJ_clean_linker_1, # of connection points: 4
#     Node 19, Type 1, BuildingBlock: MIFKUJ_clean_linker_1, # of connection points: 4
#     Node 20, Type 1, BuildingBlock: MIFKUJ_clean_linker_1, # of connection points: 4
#     Node 21, Type 1, BuildingBlock: MIFKUJ_clean_linker_1, # of connection points: 4
#     Node 22, Type 1, BuildingBlock: MIFKUJ_clean_linker_1, # of connection points: 4
#     Node 23, Type 1, BuildingBlock: MIFKUJ_clean_linker_1, # of connection points: 4
#     Node 24, Type 1, BuildingBlock: MIFKUJ_clean_linker_1, # of connection points: 4
#     Node 25, Type 1, BuildingBlock: MIFKUJ_clean_linker_1, # of connection points: 4
#     Node 26, Type 1, BuildingBlock: MIFKUJ_clean_linker_1, # of connection points: 4
#     Node 27, Type 1, BuildingBlock: MIFKUJ_clean_linker_1, # of connection points: 4
#     Node 28, Type 1, BuildingBlock: MIFKUJ_clean_linker_1, # of connection points: 4
#     Node 29, Type 1, BuildingBlock: MIFKUJ_clean_linker_1, # of connection points: 4
#     Node 30, Type 1, BuildingBlock: MIFKUJ_clean_linker_1, # of connection points: 4
#     Node 31, Type 1, BuildingBlock: MIFKUJ_clean_linker_1, # of connection points: 4
#     Node 32, Type 1, BuildingBlock: MIFKUJ_clean_linker_1, # of connection points: 4
#     Node 33, Type 1, BuildingBlock: MIFKUJ_clean_linker_1, # of connection points: 4
#     Node 34, Type 1, BuildingBlock: MIFKUJ_clean_linker_1, # of connection points: 4
#     Node 35, Type 1, BuildingBlock: MIFKUJ_clean_linker_1, # of connection points: 4
#     Edge 36, Type (0, 1), BuildingBlock: TEMPAE_clean_linker_10, # of connection points: 2
#     Edge 37, Type (0, 1), BuildingBlock: TEMPAE_clean_linker_10, # of connection points: 2
#     Edge 38, Type (0, 1), BuildingBlock: TEMPAE_clean_linker_10, # of connection points: 2
#     Edge 39, Type (0, 1), BuildingBlock: TEMPAE_clean_linker_10, # of connection points: 2
#     Edge 40, Type (0, 1), BuildingBlock: TEMPAE_clean_linker_10, # of connection points: 2
#     Edge 41, Type (0, 1), BuildingBlock: TEMPAE_clean_linker_10, # of connection points: 2
#     Edge 42, Type (0, 1), BuildingBlock: TEMPAE_clean_linker_10, # of connection points: 2
#     Edge 43, Type (0, 1), BuildingBlock: TEMPAE_clean_linker_10, # of connection points: 2
#     Edge 44, Type (0, 1), BuildingBlock: TEMPAE_clean_linker_10, # of connection points: 2
#     Edge 45, Type (0, 1), BuildingBlock: TEMPAE_clean_linker_10, # of connection points: 2
#     Edge 46, Type (0, 1), BuildingBlock: TEMPAE_clean_linker_10, # of connection points: 2
#     Edge 47, Type (0, 1), BuildingBlock: TEMPAE_clean_linker_10, # of connection points: 2
#     Edge 48, Type (0, 1), BuildingBlock: TEMPAE_clean_linker_10, # of connection points: 2
#     Edge 49, Type (0, 1), BuildingBlock: TEMPAE_clean_linker_10, # of connection points: 2
#     Edge 50, Type (0, 1), BuildingBlock: TEMPAE_clean_linker_10, # of connection points: 2
#     Edge 51, Type (0, 1), BuildingBlock: TEMPAE_clean_linker_10, # of connection points: 2
#     Edge 52, Type (0, 1), BuildingBlock: TEMPAE_clean_linker_10, # of connection points: 2
#     Edge 53, Type (0, 1), BuildingBlock: TEMPAE_clean_linker_10, # of connection points: 2
#     Edge 54, Type (0, 1), BuildingBlock: TEMPAE_clean_linker_10, # of connection points: 2
#     Edge 55, Type (0, 1), BuildingBlock: TEMPAE_clean_linker_10, # of connection points: 2
#     Edge 56, Type (0, 1), BuildingBlock: TEMPAE_clean_linker_10, # of connection points: 2
#     Edge 57, Type (0, 1), BuildingBlock: TEMPAE_clean_linker_10, # of connection points: 2
#     Edge 58, Type (0, 1), BuildingBlock: TEMPAE_clean_linker_10, # of connection points: 2
#     Edge 59, Type (0, 1), BuildingBlock: TEMPAE_clean_linker_10, # of connection points: 2
#     Edge 60, Type (0, 1), BuildingBlock: TEMPAE_clean_linker_10, # of connection points: 2
#     Edge 61, Type (0, 1), BuildingBlock: TEMPAE_clean_linker_10, # of connection points: 2
#     Edge 62, Type (0, 1), BuildingBlock: TEMPAE_clean_linker_10, # of connection points: 2
#     Edge 63, Type (0, 1), BuildingBlock: TEMPAE_clean_linker_10, # of connection points: 2
#     Edge 64, Type (0, 1), BuildingBlock: TEMPAE_clean_linker_10, # of connection points: 2
#     Edge 65, Type (0, 1), BuildingBlock: TEMPAE_clean_linker_10, # of connection points: 2
#     Edge 66, Type (0, 1), BuildingBlock: TEMPAE_clean_linker_10, # of connection points: 2
#     Edge 67, Type (0, 1), BuildingBlock: TEMPAE_clean_linker_10, # of connection points: 2
#     Edge 68, Type (0, 1), BuildingBlock: TEMPAE_clean_linker_10, # of connection points: 2
#     Edge 69, Type (0, 1), BuildingBlock: TEMPAE_clean_linker_10, # of connection points: 2
#     Edge 70, Type (0, 1), BuildingBlock: TEMPAE_clean_linker_10, # of connection points: 2
#     Edge 71, Type (0, 1), BuildingBlock: TEMPAE_clean_linker_10, # of connection points: 2
#     Edge 72, Type (0, 1), BuildingBlock: TEMPAE_clean_linker_10, # of connection points: 2
#     Edge 73, Type (0, 1), BuildingBlock: TEMPAE_clean_linker_10, # of connection points: 2
#     Edge 74, Type (0, 1), BuildingBlock: TEMPAE_clean_linker_10, # of connection points: 2
#     Edge 75, Type (0, 1), BuildingBlock: TEMPAE_clean_linker_10, # of connection points: 2
#     Edge 76, Type (0, 1), BuildingBlock: TEMPAE_clean_linker_10, # of connection points: 2
#     Edge 77, Type (0, 1), BuildingBlock: TEMPAE_clean_linker_10, # of connection points: 2
#     Edge 78, Type (0, 1), BuildingBlock: TEMPAE_clean_linker_10, # of connection points: 2
#     Edge 79, Type (0, 1), BuildingBlock: TEMPAE_clean_linker_10, # of connection points: 2
#     Edge 80, Type (0, 1), BuildingBlock: TEMPAE_clean_linker_10, # of connection points: 2
#     Edge 81, Type (0, 1), BuildingBlock: TEMPAE_clean_linker_10, # of connection points: 2
#     Edge 82, Type (0, 1), BuildingBlock: TEMPAE_clean_linker_10, # of connection points: 2
#     Edge 83, Type (0, 1), BuildingBlock: TEMPAE_clean_linker_10, # of connection points: 2
#     Edge 84, Type (0, 1), BuildingBlock: TEMPAE_clean_linker_10, # of connection points: 2
#     Edge 85, Type (0, 1), BuildingBlock: TEMPAE_clean_linker_10, # of connection points: 2
#     Edge 86, Type (0, 1), BuildingBlock: TEMPAE_clean_linker_10, # of connection points: 2
#     Edge 87, Type (0, 1), BuildingBlock: TEMPAE_clean_linker_10, # of connection points: 2
#     Edge 88, Type (0, 1), BuildingBlock: TEMPAE_clean_linker_10, # of connection points: 2
#     Edge 89, Type (0, 1), BuildingBlock: TEMPAE_clean_linker_10, # of connection points: 2
#     Edge 90, Type (0, 1), BuildingBlock: TEMPAE_clean_linker_10, # of connection points: 2
#     Edge 91, Type (0, 1), BuildingBlock: TEMPAE_clean_linker_10, # of connection points: 2
#     Edge 92, Type (0, 1), BuildingBlock: TEMPAE_clean_linker_10, # of connection points: 2
#     Edge 93, Type (0, 1), BuildingBlock: TEMPAE_clean_linker_10, # of connection points: 2
#     Edge 94, Type (0, 1), BuildingBlock: TEMPAE_clean_linker_10, # of connection points: 2
#     Edge 95, Type (0, 1), BuildingBlock: TEMPAE_clean_linker_10, # of connection points: 2
#     Edge 96, Type (0, 1), BuildingBlock: TEMPAE_clean_linker_10, # of connection points: 2
#     Edge 97, Type (0, 1), BuildingBlock: TEMPAE_clean_linker_10, # of connection points: 2
#     Edge 98, Type (0, 1), BuildingBlock: TEMPAE_clean_linker_10, # of connection points: 2
#     Edge 99, Type (0, 1), BuildingBlock: TEMPAE_clean_linker_10, # of connection points: 2
#     Edge 100, Type (0, 1), BuildingBlock: TEMPAE_clean_linker_10, # of connection points: 2
#     Edge 101, Type (0, 1), BuildingBlock: TEMPAE_clean_linker_10, # of connection points: 2
#     Edge 102, Type (0, 1), BuildingBlock: TEMPAE_clean_linker_10, # of connection points: 2
#     Edge 103, Type (0, 1), BuildingBlock: TEMPAE_clean_linker_10, # of connection points: 2
#     Edge 104, Type (0, 1), BuildingBlock: TEMPAE_clean_linker_10, # of connection points: 2
#     Edge 105, Type (0, 1), BuildingBlock: TEMPAE_clean_linker_10, # of connection points: 2
#     Edge 106, Type (0, 1), BuildingBlock: TEMPAE_clean_linker_10, # of connection points: 2
#     Edge 107, Type (0, 1), BuildingBlock: TEMPAE_clean_linker_10, # of connection points: 2
# Relax obj value: 0.094
# Max RMSD: 0.272
# Mean RMSD: 0.119
data_MOF--net-ptr--node1-UXUYUI_clean_sbu_0--node2-MIFKUJ_clean_linker_1--edge1-TEMPAE_clean_linker_10
_symmetry_space_group_name_H-M    P1
_symmetry_Int_Tables_number       1
_symmetry_cell_setting            triclinic
loop_
_symmetry_equiv_pos_as_xyz
'x, y, z'
_cell_length_a     108.81429
_cell_length_b     108.80607
_cell_length_c     71.426248
_cell_angle_alpha  90.124092
_cell_angle_beta   89.89786
_cell_angle_gamma 120.11603
loop_
_atom_site_label
_atom_site_type_symbol
_atom_site_fract_x
_atom_site_fract_y
_atom_site_fract_z
_atom_type_partial_charge
Li0 Li 0.99011 0.33441 0.00825 0.0
Li1 Li 0.01402 0.34839 0.01918 0.0
Li2 Li 0.996 0.35355 0.03013 0.0
Li3 Li 0.00443 0.35879 0.99853 0.0
C4 C 0.99748 0.32447 0.04049 0.0
N5 N -0.00069 0.30141 0.05289 0.0
C6 C -0.00018 0.31609 0.02775 0.0
C7 C 0.9961 0.32115 0.05954 0.0
C8 C 0.0007 0.30447 0.03429 0.0
C9 C 0.99704 0.30943 0.06554 0.0
C10 C 0.01898 0.34738 0.98106 0.0
C11 C 0.04311 0.36439 0.97248 0.0
N12 N 0.04174 0.35668 0.95682 0.0
C13 C 0.01781 0.33962 0.96488 0.0
C14 C 0.03173 0.35987 0.98492 0.0
C15 C 0.02944 0.3445 0.9528 0.0
C16 C 0.97496 0.31515 0.98046 0.0
N17 N 0.97608 0.31632 0.99938 0.0
C18 C 0.95826 0.29193 0.00301 0.0
C19 C 0.96785 0.30514 0.01075 0.0
C20 C 0.95707 0.29032 0.98344 0.0
C21 C 0.96546 0.30221 0.97215 0.0
H22 H 0.98155 0.3243 0.97183 0.0
H23 H 0.96887 0.3064 0.02578 0.0
C24 C 0.03674 0.35409 0.04298 0.0
N25 N 0.02997 0.34713 0.02708 0.0
C26 C 0.04708 0.35173 0.05097 0.0
C27 C 0.04349 0.33538 0.02576 0.0
C28 C 0.0333 0.33811 0.01821 0.0
C29 C 0.0503 0.342 0.04256 0.0
H30 H 0.03367 0.36102 0.04985 0.0
H31 H 0.02762 0.33256 0.00573 0.0
C32 C 0.97021 0.34281 0.01117 0.0
N33 N 0.94159 0.33012 0.01946 0.0
C34 C 0.96131 0.34567 0.00024 0.0
C35 C 0.96455 0.33347 0.02633 0.0
C36 C 0.94687 0.33916 0.00467 0.0
C37 C 0.95006 0.32717 0.03028 0.0
C38 C 0.01813 0.38078 0.02424 0.0
C39 C 0.00789 0.38431 0.0191 0.0
C40 C 0.03084 0.39107 0.03239 0.0
C41 C 0.01057 0.39812 0.02219 0.0
C42 C 0.03312 0.40477 0.03524 0.0
N43 N 0.02303 0.40798 0.03014 0.0
C44 C 0.99921 0.36398 0.06645 0.0
C45 C 0.98079 0.36479 0.04983 0.0
C46 C 0.99791 0.37166 0.08126 0.0
N47 N 0.99085 0.3609 0.05105 0.0
C48 C 0.97895 0.37224 0.06445 0.0
C49 C 0.9878 0.37603 0.0802 0.0
H50 H 0.00735 0.36104 0.06683 0.0
H51 H 0.97466 0.36279 0.03717 0.0
C52 C 0.99691 0.36748 0.96617 0.0
N53 N 0.00791 0.37126 0.97816 0.0
C54 C 0.99807 0.37654 0.95165 0.0
C55 C 0.02207 0.393 0.96169 0.0
C56 C 0.02042 0.38362 0.97608 0.0
C57 C 0.0107 0.38959 0.94944 0.0
H58 H 0.98713 0.35752 0.96814 0.0
H59 H 0.029 0.38637 0.98585 0.0
O60 O 0.99688 0.3361 0.03453 0.0
O61 O 0.00761 0.34271 0.99291 0.0
O62 O 0.98434 0.34904 0.00683 0.0
O63 O 0.01572 0.36727 0.02169 0.0
H64 H 0.00103 0.31856 0.01297 0.0
H65 H 0.99436 0.32759 0.06959 0.0
H66 H 0.00254 0.29791 0.02459 0.0
H67 H 0.99599 0.30673 0.08025 0.0
H68 H 0.05303 0.37404 0.97529 0.0
H69 H 0.00801 0.32993 0.96171 0.0
H70 H 0.03287 0.36601 0.99736 0.0
H71 H 0.02869 0.3386 0.94023 0.0
H72 H 0.95207 0.28304 0.01225 0.0
H73 H 0.96467 0.30157 0.95703 0.0
H74 H 0.05199 0.35693 0.06404 0.0
H75 H 0.04578 0.32789 0.01879 0.0
H76 H 0.96551 0.35287 0.98847 0.0
H77 H 0.97124 0.33114 0.03501 0.0
H78 H 0.93986 0.3413 0.99633 0.0
H79 H 0.94555 0.31994 0.04196 0.0
H80 H 0.99797 0.3765 0.01284 0.0
H81 H 0.03885 0.38848 0.03651 0.0
H82 H 0.00274 0.401 0.0183 0.0
H83 H 0.04292 0.41284 0.04155 0.0
H84 H 0.00497 0.37447 0.09318 0.0
H85 H 0.97124 0.3757 0.06299 0.0
H86 H 0.98913 0.37343 0.94234 0.0
H87 H 0.03194 0.40302 0.96056 0.0
Li88 Li 0.66332 0.64958 0.99857 0.0
Li89 Li 0.65167 0.66122 0.014 0.0
Li90 Li 0.64496 0.63601 0.02153 0.0
Li91 Li 0.63752 0.64141 0.99211 0.0
C92 C 0.67667 0.65924 0.03263 0.0
N93 N 0.70398 0.67033 0.04624 0.0
C94 C 0.68504 0.67381 0.03609 0.0
C95 C 0.68211 0.65029 0.0364 0.0
C96 C 0.69884 0.67922 0.04289 0.0
C97 C 0.69596 0.6561 0.04319 0.0
C98 C 0.65667 0.67112 0.97575 0.0
C99 C 0.64751 0.68469 0.9607 0.0
N100 N 0.66064 0.69363 0.9536 0.0
C101 C 0.67004 0.68035 0.96812 0.0
C102 C 0.64528 0.67323 0.97186 0.0
C103 C 0.67185 0.69171 0.95704 0.0
C104 C 0.68132 0.64354 0.9765 0.0
N105 N 0.68081 0.6534 0.98769 0.0
C106 C 0.70547 0.6697 0.98255 0.0
C107 C 0.6925 0.66634 0.99066 0.0
C108 C 0.70633 0.65974 0.97095 0.0
C109 C 0.69406 0.64652 0.96789 0.0
H110 H 0.6718 0.63344 0.97407 0.0
H111 H 0.69168 0.67419 0.99898 0.0
C112 C 0.64882 0.67847 0.04095 0.0
N113 N 0.65503 0.67876 0.02431 0.0
C114 C 0.65179 0.69113 0.04979 0.0
C115 C 0.66737 0.70413 0.02408 0.0
C116 C 0.6642 0.69124 0.01584 0.0
C117 C 0.66128 0.70421 0.0414 0.0
H118 H 0.64176 0.66837 0.04752 0.0
H119 H 0.66937 0.69126 0.00296 0.0
C120 C 0.64483 0.61657 0.99812 0.0
N121 N 0.64035 0.58946 0.00329 0.0
C122 C 0.63193 0.60475 0.99283 0.0
C123 C 0.65553 0.61459 0.00571 0.0
C124 C 0.62985 0.59113 0.99565 0.0
C125 C 0.65305 0.60081 0.0083 0.0
C126 C 0.6199 0.64429 0.01836 0.0
C127 C 0.60758 0.63241 0.025 0.0
C128 C 0.61935 0.65627 0.01265 0.0
C129 C 0.59483 0.63258 0.02532 0.0
C130 C 0.60641 0.65605 0.01321 0.0
N131 N 0.59451 0.6443 0.01945 0.0
C132 C 0.64592 0.62388 0.05657 0.0
C133 C 0.6255 0.61027 0.03785 0.0
C134 C 0.64034 0.61367 0.07075 0.0
N135 N 0.63843 0.622 0.04057 0.0
C136 C 0.61955 0.5998 0.05157 0.0
C137 C 0.62693 0.60146 0.06837 0.0
H138 H 0.65609 0.63342 0.05848 0.0
H139 H 0.61967 0.60919 0.02514 0.0
C140 C 0.62495 0.63853 0.95611 0.0
N141 N 0.62275 0.63358 0.97398 0.0
C142 C 0.61422 0.6319 0.94272 0.0
C143 C 0.59931 0.61509 0.96632 0.0
C144 C 0.61025 0.62212 0.97926 0.0
C145 C 0.60128 0.61991 0.94775 0.0
H146 H 0.63514 0.64737 0.9521 0.0
H147 H 0.60894 0.61814 0.9934 0.0
O148 O 0.66314 0.65377 0.02588 0.0
O149 O 0.65477 0.65999 0.98671 0.0
O150 O 0.647 0.62999 0.99574 0.0
O151 O 0.63249 0.64429 0.01798 0.0
H152 H 0.68099 0.6809 0.03343 0.0
H153 H 0.6757 0.63896 0.03421 0.0
H154 H 0.70547 0.69049 0.0455 0.0
H155 H 0.70032 0.64929 0.04607 0.0
H156 H 0.63878 0.68645 0.9576 0.0
H157 H 0.67896 0.67882 0.97081 0.0
H158 H 0.63478 0.66597 0.97714 0.0
H159 H 0.68216 0.69898 0.95116 0.0
H160 H 0.71464 0.68011 0.98492 0.0
H161 H 0.69433 0.63859 0.95899 0.0
H162 H 0.64702 0.69066 0.06327 0.0
H163 H 0.67462 0.71392 0.01698 0.0
H164 H 0.62358 0.60607 0.98674 0.0
H165 H 0.66567 0.62361 0.00949 0.0
H166 H 0.61987 0.5819 0.99176 0.0
H167 H 0.66123 0.59913 0.01426 0.0
H168 H 0.60782 0.62311 0.02977 0.0
H169 H 0.62882 0.66572 0.00801 0.0
H170 H 0.5852 0.62341 0.03028 0.0
H171 H 0.60584 0.66525 0.00876 0.0
H172 H 0.64638 0.61534 0.08348 0.0
H173 H 0.60907 0.59072 0.04929 0.0
H174 H 0.6162 0.63578 0.92845 0.0
H175 H 0.58948 0.60587 0.97073 0.0
Li176 Li 0.35379 0.99451 0.9934 0.0
Li177 Li 0.35889 0.00379 0.02461 0.0
Li178 Li 0.3346 0.98859 0.0149 0.0
Li179 Li 0.34788 0.01228 0.00303 0.0
C180 C 0.34386 0.96934 0.01337 0.0
N181 N 0.33202 0.94063 0.00614 0.0
C182 C 0.34676 0.96086 0.02512 0.0
C183 C 0.33493 0.96321 0.99792 0.0
C184 C 0.34068 0.94637 0.02123 0.0
C185 C 0.32905 0.94869 0.99451 0.0
C186 C 0.38071 0.01756 0.99839 0.0
C187 C 0.40424 0.03284 0.98612 0.0
N188 N 0.4083 0.02363 0.99246 0.0
C189 C 0.38511 0.00824 0.00478 0.0
C190 C 0.39034 0.02996 0.98898 0.0
C191 C 0.3991 0.0115 0.00164 0.0
C192 C 0.36237 0.99492 0.95621 0.0
N193 N 0.36135 0.98891 0.97322 0.0
C194 C 0.37469 0.97834 0.96233 0.0
C195 C 0.36717 0.98059 0.97644 0.0
C196 C 0.37644 0.98488 0.94482 0.0
C197 C 0.36989 0.99302 0.9417 0.0
H198 H 0.35787 0.00172 0.95419 0.0
H199 H 0.36655 0.97622 0.99019 0.0
C200 C 0.36832 0.99758 0.05743 0.0
N201 N 0.37156 0.00824 0.04506 0.0
C202 C 0.37767 0.99943 0.0719 0.0
C203 C 0.39328 0.02341 0.06108 0.0
C204 C 0.38363 0.02108 0.04674 0.0
C205 C 0.39046 0.0124 0.07367 0.0
H206 H 0.35859 0.98753 0.05578 0.0
H207 H 0.38597 0.02937 0.03665 0.0
C208 C 0.32393 0.99451 0.98265 0.0
N209 N 0.29979 0.99459 0.97089 0.0
C210 C 0.31603 0.99759 0.99532 0.0
C211 C 0.31956 0.99148 0.964 0.0
C212 C 0.30386 0.99758 0.9891 0.0
C213 C 0.30732 0.99157 0.95833 0.0
C214 C 0.34671 0.01798 0.04099 0.0
C215 C 0.33885 0.0169 0.05701 0.0
C216 C 0.35899 0.03085 0.03685 0.0
C217 C 0.34339 0.02874 0.06865 0.0
C218 C 0.36318 0.04244 0.04884 0.0
N219 N 0.35537 0.04115 0.06436 0.0
C220 C 0.31504 0.97332 0.04264 0.0
C221 C 0.30581 0.96563 0.01208 0.0
C222 C 0.30206 0.96351 0.05059 0.0
N223 N 0.31661 0.97428 0.02374 0.0
C224 C 0.29257 0.95578 0.01944 0.0
C225 C 0.29059 0.9547 0.03892 0.0
H226 H 0.32387 0.98032 0.05151 0.0
H227 H 0.30741 0.96647 0.9971 0.0
C228 C 0.35191 0.03313 0.97703 0.0
N229 N 0.3461 0.02772 0.99402 0.0
C230 C 0.34945 0.04322 0.96845 0.0
C231 C 0.33539 0.04222 0.99527 0.0
C232 C 0.33803 0.0321 0.00325 0.0
C233 C 0.34091 0.04775 0.97748 0.0
H234 H 0.35805 0.02922 0.96988 0.0
H235 H 0.33324 0.02739 0.01654 0.0
O236 O 0.34971 0.98353 0.01715 0.0
O237 O 0.36702 0.01455 0.001 0.0
O238 O 0.33602 0.99466 0.98826 0.0
O239 O 0.34238 0.00641 0.02959 0.0
H240 H 0.35366 0.96543 0.03712 0.0
H241 H 0.33258 0.96957 0.9886 0.0
H242 H 0.34284 0.93968 0.03021 0.0
H243 H 0.32213 0.94381 0.98262 0.0
H244 H 0.41181 0.0424 0.97885 0.0
H245 H 0.37781 0.99857 0.01203 0.0
H246 H 0.38707 0.03725 0.9839 0.0
H247 H 0.40263 0.00437 0.00649 0.0
H248 H 0.37943 0.97186 0.96529 0.0
H249 H 0.37113 0.99841 0.92851 0.0
H250 H 0.37502 0.99074 0.08149 0.0
H251 H 0.40308 0.03353 0.06188 0.0
H252 H 0.31925 -1e-05 0.0098 0.0
H253 H 0.3256 0.98913 0.95401 0.0
H254 H 0.29766 -4e-05 0.99875 0.0
H255 H 0.30382 0.98925 0.94393 0.0
H256 H 0.32933 0.00701 0.06041 0.0
H257 H 0.3652 0.03192 0.0245 0.0
H258 H 0.33741 0.02806 0.0811 0.0
H259 H 0.37265 0.05245 0.0458 0.0
H260 H 0.3009 0.96305 0.06568 0.0
H261 H 0.284 0.94904 0.01003 0.0
H262 H 0.35375 0.04701 0.95462 0.0
H263 H 0.32889 0.04552 0.00283 0.0
Li264 Li 0.00849 0.66255 0.01429 0.0
Li265 Li 0.99144 0.63842 0.0223 0.0
Li266 Li 0.00197 0.64339 0.99141 0.0
Li267 Li 0.98403 0.64978 0.99944 0.0
C268 C 0.02589 0.6507 0.01515 0.0
N269 N 0.05465 0.66006 0.01356 0.0
C270 C 0.03261 0.64824 0.03014 0.0
C271 C 0.03378 0.65784 0.99932 0.0
C272 C 0.04716 0.65308 0.02909 0.0
C273 C 0.0483 0.66251 0.99878 0.0
C274 C 0.98186 0.65182 0.04201 0.0
C275 C 0.95952 0.63852 0.05821 0.0
N276 N 0.96637 0.64341 0.07483 0.0
C277 C 0.98868 0.65677 0.05922 0.0
C278 C 0.96716 0.64267 0.04145 0.0
C279 C 0.98066 0.65238 0.07568 0.0
C280 C 0.02548 0.69247 0.01592 0.0
N281 N 0.02261 0.68009 0.02423 0.0
C282 C 0.03848 0.69265 0.04935 0.0
C283 C 0.02888 0.67993 0.04059 0.0
C284 C 0.04166 0.70561 0.04108 0.0
C285 C 0.03517 0.70546 0.02404 0.0
H286 H 0.01999 0.69227 0.00322 0.0
H287 H 0.02615 0.66989 0.04706 0.0
C288 C 0.9734 0.61313 0.04277 0.0
N289 N 0.98583 0.6257 0.0428 0.0
C290 C 0.97033 0.6034 0.05727 0.0
C291 C 0.99266 0.62006 0.07181 0.0
C292 C 0.99528 0.62943 0.05706 0.0
C293 C 0.98018 0.60671 0.07186 0.0
H294 H 0.96602 0.61054 0.03132 0.0
H295 H 0.00502 0.63957 0.05673 0.0
C296 C 0.00791 0.66972 0.97164 0.0
N297 N 0.01788 0.68565 0.93926 0.0
C298 C 0.99845 0.66846 0.95752 0.0
C299 C 0.02243 0.67933 0.9694 0.0
C300 C 0.0037 0.67654 0.94123 0.0
C301 C 0.02727 0.68722 0.9529 0.0
C302 C 0.97352 0.62273 0.98323 0.0
C303 C 0.97674 0.6287 0.96534 0.0
C304 C 0.96219 0.60888 0.98559 0.0
C305 C 0.96852 0.62079 0.95012 0.0
C306 C 0.95419 0.60131 0.97003 0.0
N307 N 0.95749 0.60737 0.95276 0.0
C308 C 0.00677 0.62276 0.97679 0.0
C309 C 0.01293 0.64142 0.95509 0.0
C310 C 0.0097 0.61511 0.96361 0.0
N311 N 0.00827 0.63556 0.97229 0.0
C312 C 0.01601 0.63412 0.94144 0.0
C313 C 0.01423 0.6207 0.94557 0.0
H314 H 0.00289 0.61832 0.99053 0.0
H315 H 0.01396 0.65156 0.95176 0.0
C316 C 0.97301 0.66712 0.99191 0.0
N317 N 0.96969 0.65333 0.99057 0.0
C318 C 0.96384 0.6714 0.98478 0.0
C319 C 0.94784 0.64715 0.97524 0.0
C320 C 0.95725 0.6433 0.98282 0.0
C321 C 0.95115 0.66142 0.97596 0.0
H322 H 0.98295 0.67483 0.99829 0.0
H323 H 0.95468 0.63236 0.98218 0.0
O324 O 0.01167 0.64614 0.01609 0.0
O325 O 0.98955 0.65564 0.02579 0.0
O326 O 0.00293 0.66196 0.98779 0.0
O327 O 0.98152 0.63022 0.99834 0.0
H328 H 0.02668 0.64267 0.04249 0.0
H329 H 0.02875 0.65968 0.98755 0.0
H330 H 0.0525 0.65129 0.04062 0.0
H331 H 0.05452 0.66805 0.98659 0.0
H332 H 0.94814 0.63138 0.05801 0.0
H333 H 6e-05 0.66382 0.05987 0.0
H334 H 0.96176 0.63869 0.02821 0.0
H335 H 0.98579 0.65606 0.08912 0.0
H336 H 0.04331 0.69238 0.06247 0.0
H337 H 0.03722 0.71526 0.01742 0.0
H338 H 0.96049 0.5933 0.05691 0.0
H339 H 0.00062 0.62301 0.08263 0.0
H340 H 0.98714 0.66138 0.9591 0.0
H341 H 0.02992 0.68082 0.98032 0.0
H342 H 0.99649 0.67559 0.93018 0.0
H343 H 0.03848 0.69464 0.95098 0.0
H344 H 0.98554 0.63928 0.96322 0.0
H345 H 0.95957 0.60403 0.9993 0.0
H346 H 0.97092 0.62531 0.93621 0.0
H347 H 0.94536 0.59061 0.97167 0.0
H348 H 0.00794 0.6047 0.96733 0.0
H349 H 0.01958 0.63887 0.92775 0.0
H350 H 0.96672 0.68244 0.98608 0.0
H351 H 0.93828 0.63909 0.96846 0.0
Li352 Li 0.33634 0.3493 0.02142 0.0
Li353 Li 0.36046 0.35561 0.02813 0.0
Li354 Li 0.3556 0.36288 0.99785 0.0
Li355 Li 0.34816 0.33819 0.00467 0.0
C356 C 0.35784 0.37753 0.03859 0.0
N357 N 0.36869 0.3948 0.06974 0.0
C358 C 0.35175 0.37258 0.05621 0.0
C359 C 0.3694 0.39131 0.03682 0.0
C360 C 0.35738 0.38147 0.07178 0.0
C361 C 0.37475 0.39986 0.05274 0.0
C362 C 0.34343 0.33141 0.04838 0.0
C363 C 0.35293 0.32072 0.06902 0.0
N364 N 0.34417 0.32037 0.08287 0.0
C365 C 0.33445 0.33086 0.06278 0.0
C366 C 0.35269 0.32622 0.05146 0.0
C367 C 0.33501 0.32527 0.08014 0.0
C368 C 0.30755 0.33216 0.02839 0.0
N369 N 0.31851 0.34565 0.03048 0.0
C370 C 0.30352 0.35248 0.0463 0.0
C371 C 0.31672 0.35586 0.03884 0.0
C372 C 0.29201 0.3385 0.04478 0.0
C373 C 0.29413 0.32835 0.03535 0.0
H374 H 0.30931 0.32433 0.02143 0.0
H375 H 0.32556 0.36659 0.03995 0.0
C376 C 0.38828 0.37193 0.04033 0.0
N377 N 0.37506 0.36269 0.04686 0.0
C378 C 0.39957 0.37925 0.05274 0.0
C379 C 0.38357 0.36705 0.07839 0.0
C380 C 0.37255 0.36013 0.06551 0.0
C381 C 0.39727 0.37699 0.07211 0.0
H382 H 0.38994 0.37406 0.02548 0.0
H383 H 0.36193 0.35321 0.07057 0.0
C384 C 0.32721 0.3487 0.98485 0.0
N385 N 0.30819 0.35454 0.96709 0.0
C386 C 0.31777 0.33923 0.97159 0.0
C387 C 0.32696 0.36111 0.98915 0.0
C388 C 0.30824 0.34239 0.96274 0.0
C389 C 0.31727 0.36388 0.98 0.0
C390 C 0.37473 0.34939 0.99354 0.0
C391 C 0.3769 0.35179 0.9743 0.0
C392 C 0.37964 0.34134 0.00269 0.0
C393 C 0.38379 0.34588 0.96443 0.0
C394 C 0.38647 0.33561 0.99232 0.0
N395 N 0.38838 0.33797 0.97357 0.0
C396 C 0.37618 0.38845 0.98255 0.0
C397 C 0.35685 0.37531 0.96196 0.0
C398 C 0.3831 0.39901 0.9691 0.0
N399 N 0.36325 0.37699 0.97887 0.0
C400 C 0.36339 0.38562 0.94807 0.0
C401 C 0.37672 0.39766 0.95156 0.0
H402 H 0.3813 0.38918 0.99578 0.0
H403 H 0.34683 0.36586 0.95903 0.0
C404 C 0.34061 0.30928 0.00398 0.0
N405 N 0.34463 0.32098 0.99323 0.0
C406 C 0.33718 0.29634 0.99568 0.0
C407 C 0.34215 0.30774 0.96538 0.0
C408 C 0.34536 0.32044 0.97427 0.0
C409 C 0.33789 0.29546 0.97614 0.0
H410 H 0.3398 0.30992 0.01898 0.0
H411 H 0.34821 0.32984 0.96605 0.0
O412 O 0.35268 0.36882 0.02327 0.0
O413 O 0.34291 0.33671 0.03125 0.0
O414 O 0.33647 0.34564 0.99376 0.0
O415 O 0.3678 0.35487 0.00339 0.0
H416 H 0.34293 0.36189 0.0579 0.0
H417 H 0.37421 0.39537 0.02332 0.0
H418 H 0.35283 0.37772 0.08551 0.0
H419 H 0.38373 0.41053 0.05157 0.0
H420 H 0.36009 0.31673 0.07163 0.0
H421 H 0.32714 0.33473 0.06061 0.0
H422 H 0.35966 0.32651 0.04045 0.0
H423 H 0.32816 0.32482 0.09143 0.0
H424 H 0.30249 0.36065 0.05357 0.0
H425 H 0.28553 0.31755 0.03341 0.0
H426 H 0.40984 0.38702 0.04719 0.0
H427 H 0.38127 0.36484 0.09316 0.0
H428 H 0.31781 0.32955 0.96818 0.0
H429 H 0.33417 0.36855 0.9994 0.0
H430 H 0.30088 0.33517 0.95242 0.0
H431 H 0.31696 0.37345 0.98317 0.0
H432 H 0.37318 0.35802 0.96703 0.0
H433 H 0.37815 0.33953 0.01761 0.0
H434 H 0.38547 0.34756 0.9495 0.0
H435 H 0.39026 0.32929 0.99919 0.0
H436 H 0.39353 0.40792 0.97219 0.0
H437 H 0.35812 0.38414 0.93472 0.0
H438 H 0.33399 0.28711 0.00445 0.0
H439 H 0.34262 0.30743 0.95025 0.0
Li440 Li 0.65149 0.98887 0.0188 0.0
Li441 Li 0.64455 0.00654 0.02883 0.0
Li442 Li 0.63886 0.99581 0.99714 0.0
Li443 Li 0.66286 0.01205 0.00586 0.0
C444 C 0.62164 0.97231 0.01892 0.0
N445 N 0.60059 0.94445 0.01326 0.0
C446 C 0.60886 0.9667 0.0288 0.0
C447 C 0.62372 0.96376 0.00614 0.0
C448 C 0.59834 0.95258 0.02575 0.0
C449 C 0.61295 0.9497 0.00349 0.0
C450 C 0.67679 0.01507 0.03682 0.0
C451 C 0.69682 0.03742 0.04642 0.0
N452 N 0.70552 0.03195 0.04368 0.0
C453 C 0.6859 0.00964 0.03425 0.0
C454 C 0.68225 0.02903 0.04308 0.0
C455 C 0.7004 0.01836 0.03775 0.0
C456 C 0.66091 0.96903 0.01704 0.0
N457 N 0.65402 0.974 0.02776 0.0
C458 C 0.65235 0.95902 0.05314 0.0
C459 C 0.64962 0.96918 0.04542 0.0
C460 C 0.6597 0.95384 0.04256 0.0
C461 C 0.66385 0.95885 0.02419 0.0
H462 H 0.66437 0.97319 0.00311 0.0
H463 H 0.64429 0.97349 0.05362 0.0
C464 C 0.6243 0.01164 0.04412 0.0
N465 N 0.63671 0.01214 0.04831 0.0
C466 C 0.61709 0.0147 0.05779 0.0
C467 C 0.63568 0.01894 0.07983 0.0
C468 C 0.64256 0.01578 0.06566 0.0
C469 C 0.62269 0.0183 0.07598 0.0
H470 H 0.6199 0.00857 0.03019 0.0
H471 H 0.65244 0.01603 0.06855 0.0
C472 C 0.65864 0.99586 0.97328 0.0
N473 N 0.66447 3e-05 0.93539 0.0
C474 C 0.65898 0.00739 0.9642 0.0
C475 C 0.66125 0.98643 0.96306 0.0
C476 C 0.66196 0.00933 0.94506 0.0
C477 C 0.66418 0.98872 0.94392 0.0
C478 C 0.64976 0.02949 0.00262 0.0
C479 C 0.64742 0.03414 0.98547 0.0
C480 C 0.65463 0.03878 0.0179 0.0
C481 C 0.65023 0.04811 0.98382 0.0
C482 C 0.6573 0.05267 0.01569 0.0
N483 N 0.65508 0.05701 0.99883 0.0
C484 C 0.61701 0.99681 0.97932 0.0
C485 C 0.62268 0.98071 0.96462 0.0
C486 C 0.6068 0.99419 0.96577 0.0
N487 N 0.62478 0.99021 0.9784 0.0
C488 C 0.61252 0.97775 0.95072 0.0
C489 C 0.60448 0.98461 0.95115 0.0
H490 H 0.61893 0.0043 0.99048 0.0
H491 H 0.62895 0.97555 0.96431 0.0
C492 C 0.68951 0.02113 0.99024 0.0
N493 N 0.68109 0.02621 0.99648 0.0
C494 C 0.70273 0.03025 0.9823 0.0
C495 C 0.69864 0.04983 0.98782 0.0
C496 C 0.68548 0.04031 0.99565 0.0
C497 C 0.70739 0.0448 0.98083 0.0
H498 H 0.68587 0.0099 0.99125 0.0
H499 H 0.67885 0.04424 0.00096 0.0
O500 O 0.63198 0.98614 0.02169 0.0
O501 O 0.66262 0.00682 0.03295 0.0
O502 O 0.65566 0.99363 0.99201 0.0
O503 O 0.64678 0.01575 0.00455 0.0
H504 H 0.60709 0.9732 0.0387 0.0
H505 H 0.63352 0.96793 0.99831 0.0
H506 H 0.58839 0.94809 0.0333 0.0
H507 H 0.61441 0.94297 0.99364 0.0
H508 H 0.70122 0.04827 0.05115 0.0
H509 H 0.68184 0.99886 0.02936 0.0
H510 H 0.67534 0.03338 0.04523 0.0
H511 H 0.7076 0.01433 0.03568 0.0
H512 H 0.64913 0.9556 0.06743 0.0
H513 H 0.66939 0.95503 0.01549 0.0
H514 H 0.60699 0.0138 0.05428 0.0
H515 H 0.6404 0.02176 0.09363 0.0
H516 H 0.65702 0.0148 0.97183 0.0
H517 H 0.66095 0.9774 0.96982 0.0
H518 H 0.66227 0.01823 0.93789 0.0
H519 H 0.66621 0.9815 0.93585 0.0
H520 H 0.64342 0.02703 0.97357 0.0
H521 H 0.65647 0.03539 0.03128 0.0
H522 H 0.64852 0.05187 0.97061 0.0
H523 H 0.66115 0.05999 0.02737 0.0
H524 H 0.60103 -0.0001 0.96651 0.0
H525 H 0.61097 0.97019 0.9398 0.0
H526 H 0.70907 0.02589 0.97698 0.0
H527 H 0.70195 0.06102 0.98726 0.0
Li528 Li 0.6562 0.67323 0.33564 0.0
Li529 Li 0.67913 0.68486 0.35099 0.0
Li530 Li 0.66137 0.69205 0.35601 0.0
Li531 Li 0.67351 0.69793 0.3265 0.0
C532 C 0.65065 0.66021 0.36716 0.0
N533 N 0.63094 0.63205 0.37408 0.0
C534 C 0.65482 0.64998 0.36731 0.0
C535 C 0.63648 0.65614 0.37076 0.0
C536 C 0.6447 0.63579 0.37078 0.0
C537 C 0.62667 0.64184 0.37417 0.0
C538 C 0.68691 0.6835 0.31369 0.0
C539 C 0.71207 0.69803 0.30798 0.0
N540 N 0.71079 0.68985 0.29285 0.0
C541 C 0.68584 0.67525 0.29809 0.0
C542 C 0.70013 0.69499 0.31869 0.0
C543 C 0.69803 0.67863 0.28773 0.0
C544 C 0.62878 0.65129 0.32373 0.0
N545 N 0.64271 0.65524 0.32569 0.0
C546 C 0.63854 0.63326 0.31262 0.0
C547 C 0.6477 0.64655 0.32039 0.0
C548 C 0.62411 0.62889 0.31037 0.0
C549 C 0.61922 0.63803 0.31616 0.0
H550 H 0.62512 0.65844 0.32792 0.0
H551 H 0.65883 0.64998 0.32222 0.0
C552 C 0.70271 0.6904 0.37408 0.0
N553 N 0.69357 0.68172 0.36074 0.0
C554 C 0.71277 0.68751 0.38176 0.0
C555 C 0.70424 0.66715 0.36124 0.0
C556 C 0.69428 0.67038 0.35406 0.0
C557 C 0.71352 0.67566 0.37547 0.0
H558 H 0.70217 0.69953 0.37884 0.0
H559 H 0.68694 0.66371 0.34333 0.0
C560 C 0.64373 0.69429 0.33219 0.0
N561 N 0.62548 0.70492 0.33562 0.0
C562 C 0.64721 0.70735 0.32411 0.0
C563 C 0.63092 0.68663 0.34192 0.0
C564 C 0.63785 0.71254 0.32601 0.0
C565 C 0.62186 0.69219 0.34355 0.0
C566 C 0.68579 0.71544 0.36365 0.0
C567 C 0.68873 0.72879 0.35731 0.0
C568 C 0.68588 0.71305 0.38287 0.0
C569 C 0.69175 0.73956 0.37032 0.0
C570 C 0.68891 0.72408 0.39543 0.0
N571 N 0.69177 0.73699 0.38895 0.0
C572 C 0.64923 0.69249 0.39127 0.0
C573 C 0.65458 0.71202 0.37151 0.0
C574 C 0.64484 0.69828 0.40549 0.0
N575 N 0.65399 0.69941 0.37468 0.0
C576 C 0.6503 0.71816 0.38528 0.0
C577 C 0.64542 0.71133 0.40261 0.0
H578 H 0.64916 0.68265 0.39364 0.0
H579 H 0.65882 0.71757 0.3585 0.0
C580 C 0.67251 0.70784 0.29084 0.0
N581 N 0.68097 0.71067 0.30607 0.0
C582 C 0.67679 0.71753 0.27611 0.0
C583 C 0.69883 0.73242 0.29251 0.0
C584 C 0.69408 0.72245 0.30697 0.0
C585 C 0.68999 0.73017 0.27701 0.0
H586 H 0.66218 0.69831 0.2905 0.0
H587 H 0.7007 0.72427 0.31912 0.0
O588 O 0.66032 0.67409 0.36321 0.0
O589 O 0.67503 0.68031 0.3239 0.0
O590 O 0.65277 0.68902 0.33044 0.0
O591 O 0.68258 0.70469 0.35114 0.0
H592 H 0.66573 0.65292 0.36462 0.0
H593 H 0.63306 0.6639 0.37078 0.0
H594 H 0.64777 0.62776 0.3708 0.0
H595 H 0.61565 0.63854 0.37684 0.0
H596 H 0.72237 0.70689 0.31168 0.0
H597 H 0.67567 0.66633 0.29402 0.0
H598 H 0.70118 0.70151 0.3307 0.0
H599 H 0.69736 0.67233 0.27562 0.0
H600 H 0.64269 0.62645 0.30849 0.0
H601 H 0.60818 0.63509 0.31446 0.0
H602 H 0.71991 0.69447 0.39249 0.0
H603 H 0.70443 0.65788 0.35608 0.0
H604 H 0.65712 0.71355 0.31673 0.0
H605 H 0.62807 0.67658 0.34838 0.0
H606 H 0.64045 0.72266 0.31993 0.0
H607 H 0.61196 0.68641 0.35115 0.0
H608 H 0.68845 0.73079 0.34255 0.0
H609 H 0.68325 0.70268 0.38807 0.0
H610 H 0.69398 0.74992 0.36561 0.0
H611 H 0.68889 0.72234 0.41034 0.0
H612 H 0.64114 0.69266 0.41865 0.0
H613 H 0.65128 0.7284 0.3826 0.0
H614 H 0.66956 0.71541 0.26456 0.0
H615 H 0.70918 0.74189 0.29361 0.0
Li616 Li 0.29841 0.97515 0.32625 0.0
Li617 Li 0.30313 0.96932 0.35815 0.0
Li618 Li 0.31227 0.99421 0.34808 0.0
Li619 Li 0.32186 0.98048 0.33512 0.0
C620 C 0.28328 0.9842 0.34842 0.0
N621 N 0.26542 0.99512 0.34354 0.0
C622 C 0.27191 0.9804 0.36066 0.0
C623 C 0.28558 0.99355 0.33368 0.0
C624 C 0.26299 0.98604 0.35796 0.0
C625 C 0.27643 0.99896 0.33145 0.0
C626 C 0.30857 0.95356 0.32366 0.0
C627 C 0.31954 0.93908 0.32191 0.0
N628 N 0.31768 0.93812 0.30303 0.0
C629 C 0.30664 0.95233 0.30426 0.0
C630 C 0.31496 0.94679 0.33259 0.0
C631 C 0.31136 0.94451 0.29407 0.0
C632 C 0.28617 0.9748 0.29078 0.0
N633 N 0.28435 0.96805 0.30742 0.0
C634 C 0.26203 0.94877 0.29751 0.0
C635 C 0.27255 0.95538 0.31108 0.0
C636 C 0.26371 0.95527 0.27999 0.0
C637 C 0.27587 0.96857 0.27677 0.0
H638 H 0.29573 0.98485 0.28828 0.0
H639 H 0.27146 0.95031 0.32448 0.0
C640 C 0.2984 0.96001 0.39603 0.0
N641 N 0.29486 0.9561 0.37786 0.0
C642 C 0.292 0.95001 0.41031 0.0
C643 C 0.27814 0.93234 0.38689 0.0
C644 C 0.28498 0.94261 0.37306 0.0
C645 C 0.28167 0.93602 0.40576 0.0
H646 H 0.30616 0.9709 0.39942 0.0
H647 H 0.28235 0.93987 0.35847 0.0
C648 C 0.32848 0.00516 0.31593 0.0
N649 N 0.35279 0.02976 0.30528 0.0
C650 C 0.34006 0.01175 0.32813 0.0
C651 C 0.32929 0.01106 0.29831 0.0
C652 C 0.35225 0.02418 0.32249 0.0
C653 C 0.34166 0.02351 0.29318 0.0
C654 C 0.33181 0.98593 0.37381 0.0
C655 C 0.34243 0.99871 0.38145 0.0
C656 C 0.33104 0.97316 0.37884 0.0
C657 C 0.35221 0.9985 0.3939 0.0
C658 C 0.34101 0.97339 0.39135 0.0
N659 N 0.3513 0.98595 0.39855 0.0
C660 C 0.31711 0.01363 0.37642 0.0
C661 C 0.31863 0.02311 0.34608 0.0
C662 C 0.32064 0.02664 0.38462 0.0
N663 N 0.31631 0.01216 0.3575 0.0
C664 C 0.32238 0.03637 0.35367 0.0
C665 C 0.32348 0.03824 0.37317 0.0
H666 H 0.31517 0.0047 0.38512 0.0
H667 H 0.3177 0.02161 0.33108 0.0
C668 C 0.33908 0.98125 0.30572 0.0
N669 N 0.33868 0.98156 0.32473 0.0
C670 C 0.35095 0.98249 0.29648 0.0
C671 C 0.36198 0.9846 0.32654 0.0
C672 C 0.34984 0.98321 0.33518 0.0
C673 C 0.36267 0.98428 0.30691 0.0
H674 H 0.33018 0.98018 0.29768 0.0
H675 H 0.34958 0.98375 0.35018 0.0
O676 O 0.2921 0.97878 0.35096 0.0
O677 O 0.30423 0.96137 0.33383 0.0
O678 O 0.31643 0.99289 0.32101 0.0
O679 O 0.32208 0.98599 0.36177 0.0
H680 H 0.27 0.97317 0.37214 0.0
H681 H 0.29432 0.99663 0.32407 0.0
H682 H 0.25415 0.98319 0.36734 0.0
H683 H 0.27809 0.00622 0.32012 0.0
H684 H 0.32458 0.93385 0.32863 0.0
H685 H 0.30173 0.95751 0.29709 0.0
H686 H 0.31639 0.94749 0.3476 0.0
H687 H 0.31003 0.94356 0.27903 0.0
H688 H 0.25273 0.93861 0.30065 0.0
H689 H 0.27761 0.97387 0.2634 0.0
H690 H 0.29486 0.95323 0.42475 0.0
H691 H 0.27025 0.92162 0.38289 0.0
H692 H 0.33969 0.00736 0.34178 0.0
H693 H 0.32044 0.00608 0.28867 0.0
H694 H 0.36128 0.02939 0.33179 0.0
H695 H 0.34243 0.0282 0.27958 0.0
H696 H 0.34312 0.00869 0.37779 0.0
H697 H 0.32289 0.96319 0.3731 0.0
H698 H 0.36052 0.00831 0.39989 0.0
H699 H 0.34056 0.96358 0.39533 0.0
H700 H 0.32146 0.02771 0.39971 0.0
H701 H 0.32435 0.04506 0.34443 0.0
H702 H 0.35094 0.98206 0.28133 0.0
H703 H 0.37086 0.98625 0.33515 0.0
Li704 Li 0.0227 0.32797 0.32886 0.0
Li705 Li 0.02819 0.33916 0.36007 0.0
Li706 Li 0.00377 0.32249 0.35086 0.0
Li707 Li 0.01622 0.34522 0.33702 0.0
C708 C 0.02904 0.31423 0.35792 0.0
N709 N 0.04842 0.30578 0.36667 0.0
C710 C 0.04308 0.32215 0.35167 0.0
C711 C 0.02486 0.30205 0.36866 0.0
C712 C 0.05272 0.3177 0.35623 0.0
C713 C 0.03481 0.29794 0.37292 0.0
C714 C 0.04346 0.36243 0.33259 0.0
C715 C 0.05234 0.38641 0.3436 0.0
N716 N 0.05807 0.39141 0.32643 0.0
C717 C 0.04948 0.36782 0.31508 0.0
C718 C 0.04492 0.3718 0.347 0.0
C719 C 0.05681 0.3825 0.31223 0.0
C720 C 0.0333 0.32879 0.29308 0.0
N721 N 0.029 0.32084 0.30892 0.0
C722 C 0.03492 0.30425 0.29583 0.0
C723 C 0.02927 0.30852 0.31033 0.0
C724 C 0.04016 0.31266 0.27966 0.0
C725 C 0.03898 0.32491 0.27821 0.0
H726 H 0.03242 0.33822 0.29208 0.0
H727 H 0.02534 0.30211 0.32281 0.0
C728 C 0.03691 0.33998 0.39745 0.0
N729 N 0.0415 0.34507 0.37993 0.0
C730 C 0.04671 0.34298 0.41185 0.0
C731 C 0.06568 0.35668 0.38992 0.0
C732 C 0.05555 0.35334 0.37596 0.0
C733 C 0.06134 0.35128 0.40809 0.0
H734 H 0.02566 0.33323 0.40008 0.0
H735 H 0.05892 0.35701 0.36183 0.0
C736 C 0.99608 0.31501 0.3137 0.0
N737 N 0.9793 0.29071 0.29311 0.0
C738 C 0.98873 0.31557 0.29801 0.0
C739 C 0.99491 0.30208 0.31891 0.0
C740 C 0.98029 0.30317 0.28779 0.0
C741 C 0.98637 0.28992 0.30832 0.0
C742 C 7e-05 0.34277 0.36899 0.0
C743 C 0.98943 0.34027 0.35605 0.0
C744 C 0.99911 0.3468 0.38728 0.0
C745 C 0.978 0.34187 0.36165 0.0
C746 C 0.98752 0.34829 0.39233 0.0
N747 N 0.97729 0.34582 0.37952 0.0
C748 C 0.98574 0.30256 0.37732 0.0
C749 C 0.97371 0.30505 0.35125 0.0
C750 C 0.97282 0.29297 0.3857 0.0
N751 N 0.98592 0.3084 0.36046 0.0
C752 C 0.96058 0.29547 0.35904 0.0
C753 C 0.96 0.28939 0.3766 0.0
H754 H 0.99563 0.30561 0.38444 0.0
H755 H 0.97412 0.31002 0.33801 0.0
C756 C 0.01433 0.36094 0.30762 0.0
N757 N 0.01468 0.36044 0.32661 0.0
C758 C 0.01336 0.37184 0.2988 0.0
C759 C 0.01303 0.38144 0.32927 0.0
C760 C 0.01422 0.37047 0.3375 0.0
C761 C 0.01258 0.38218 0.30969 0.0
H762 H 0.01484 0.35286 0.29937 0.0
H763 H 0.01484 0.36999 0.35256 0.0
O764 O 0.01945 0.3185 0.354 0.0
O765 O 0.03586 0.34807 0.33556 0.0
O766 O 0.00445 0.32715 0.32367 0.0
O767 O 0.01129 0.3411 0.36399 0.0
H768 H 0.04653 0.33163 0.34336 0.0
H769 H 0.01404 0.29585 0.37369 0.0
H770 H 0.06361 0.32372 0.35148 0.0
H771 H 0.03172 0.28852 0.38121 0.0
H772 H 0.05347 0.39376 0.35459 0.0
H773 H 0.04852 0.36077 0.30378 0.0
H774 H 0.04017 0.36781 0.36058 0.0
H775 H 0.06149 0.38681 0.29873 0.0
H776 H 0.03562 0.29474 0.29755 0.0
H777 H 0.04257 0.33151 0.26582 0.0
H778 H 0.04289 0.33843 0.42557 0.0
H779 H 0.07682 0.36325 0.38642 0.0
H780 H 0.98955 0.32551 0.29378 0.0
H781 H 0.00049 0.30139 0.33099 0.0
H782 H 0.97453 0.30345 0.27562 0.0
H783 H 0.98537 0.27985 0.3122 0.0
H784 H 0.98996 0.33713 0.34184 0.0
H785 H 0.00724 0.34871 0.39747 0.0
H786 H 0.9697 0.33997 0.35178 0.0
H787 H 0.98664 0.3514 0.40644 0.0
H788 H 0.97287 0.28872 0.39937 0.0
H789 H 0.95099 0.29289 0.35141 0.0
H790 H 0.01298 0.37207 0.28366 0.0
H791 H 0.01261 0.38934 0.33808 0.0
Li792 Li 0.67749 0.99389 0.34847 0.0
Li793 Li 0.66219 0.96939 0.35598 0.0
Li794 Li 0.67392 0.976 0.32593 0.0
Li795 Li 0.65501 0.9805 0.33286 0.0
C796 C 0.69 0.98058 0.36728 0.0
N797 N 0.70428 0.98349 0.40043 0.0
C798 C 0.68653 0.98555 0.38337 0.0
C799 C 0.70072 0.97709 0.36806 0.0
C800 C 0.69387 0.98695 0.39999 0.0
C801 C 0.70782 0.97864 0.38495 0.0
C802 C 0.6455 0.98044 0.36865 0.0
C803 C 0.62132 0.96202 0.37447 0.0
N804 N 0.61963 0.97093 0.38621 0.0
C805 C 0.64353 0.98939 0.38079 0.0
C806 C 0.63431 0.96663 0.36547 0.0
C807 C 0.63037 0.98439 0.38953 0.0
C808 C 0.68476 0.02012 0.36422 0.0
N809 N 0.69037 0.01209 0.35835 0.0
C810 C 0.71364 0.03015 0.36745 0.0
C811 C 0.70451 0.01681 0.35974 0.0
C812 C 0.70811 0.03861 0.37387 0.0
C813 C 0.69347 0.03347 0.37214 0.0
H814 H 0.67348 0.0161 0.3628 0.0
H815 H 0.70868 0.01017 0.35505 0.0
C816 C 0.65613 0.9432 0.37021 0.0
N817 N 0.65647 0.95545 0.37504 0.0
C818 C 0.6528 0.93264 0.38355 0.0
C819 C 0.65 0.94742 0.40654 0.0
C820 C 0.65353 0.95776 0.39279 0.0
C821 C 0.64973 0.93473 0.40199 0.0
H822 H 0.65864 0.94175 0.356 0.0
H823 H 0.65415 0.96771 0.39636 0.0
C824 C 0.68577 0.00369 0.3125 0.0
N825 N 0.71034 0.02371 0.29485 0.0
C826 C 0.68546 0.0136 0.3004 0.0
C827 C 0.69858 0.00395 0.3156 0.0
C828 C 0.69799 0.02364 0.29161 0.0
C829 C 0.71088 0.01415 0.30656 0.0
C830 C 0.64735 0.95489 0.31492 0.0
C831 C 0.64912 0.9626 0.29851 0.0
C832 C 0.63909 0.94008 0.3146 0.0
C833 C 0.64256 0.95533 0.28204 0.0
C834 C 0.6327 0.9332 0.29785 0.0
N835 N 0.63456 0.94091 0.28205 0.0
C836 C 0.6838 0.95869 0.31216 0.0
C837 C 0.68381 0.97442 0.28923 0.0
C838 C 0.6879 0.95206 0.29883 0.0
N839 N 0.68172 0.96954 0.30713 0.0
C840 C 0.68805 0.96818 0.27546 0.0
C841 C 0.68992 0.95667 0.28011 0.0
H842 H 0.68178 0.95488 0.32644 0.0
H843 H 0.68179 0.98286 0.28549 0.0
C844 C 0.64247 0.99502 0.31757 0.0
N845 N 0.63963 0.98186 0.32281 0.0
C846 C 0.63178 0.99697 0.30995 0.0
C847 C 0.6154 0.97178 0.31344 0.0
C848 C 0.62643 0.97032 0.32097 0.0
C849 C 0.61803 0.98525 0.30779 0.0
H850 H 0.65308 0.00399 0.31927 0.0
H851 H 0.62444 0.95997 0.32534 0.0
O852 O 0.68295 0.97902 0.35081 0.0
O853 O 0.65835 0.98528 0.35998 0.0
O854 O 0.67355 0.99388 0.32125 0.0
O855 O 0.65378 0.96169 0.33122 0.0
H856 H 0.67828 0.98831 0.38308 0.0
H857 H 0.70351 0.97322 0.35572 0.0
H858 H 0.6913 0.99077 0.41254 0.0
H859 H 0.71614 0.97598 0.38575 0.0
H860 H 0.61258 0.95137 0.37213 0.0
H861 H 0.65208 0.0001 0.38344 0.0
H862 H 0.63561 0.95949 0.35623 0.0
H863 H 0.6287 0.99122 0.39895 0.0
H864 H 0.72485 0.03369 0.36872 0.0
H865 H 0.68884 0.03975 0.37675 0.0
H866 H 0.65262 0.92295 0.3795 0.0
H867 H 0.64787 0.94947 0.42068 0.0
H868 H 0.67563 0.01354 0.29783 0.0
H869 H 0.69906 0.99635 0.32485 0.0
H870 H 0.6979 0.03138 0.28221 0.0
H871 H 0.72086 0.01447 0.30884 0.0
H872 H 0.65549 0.97406 0.29845 0.0
H873 H 0.63765 0.93396 0.32718 0.0
H874 H 0.64385 0.96117 0.26925 0.0
H875 H 0.62628 0.92174 0.2974 0.0
H876 H 0.68892 0.94306 0.30303 0.0
H877 H 0.68961 0.97218 0.26128 0.0
H878 H 0.63432 0.00751 0.30555 0.0
H879 H 0.60492 0.9625 0.31223 0.0
Li880 Li 0.03001 0.69399 0.36134 0.0
Li881 Li 0.00485 0.68543 0.35218 0.0
Li882 Li 0.01805 0.67597 0.33767 0.0
Li883 Li 0.02387 0.69987 0.33034 0.0
C884 C 0.00915 0.66116 0.36809 0.0
N885 N 0.00138 0.63301 0.37315 0.0
C886 C 0.99498 0.6505 0.36591 0.0
C887 C 0.01935 0.65753 0.37301 0.0
C888 C 0.99126 0.63632 0.3685 0.0
C889 C 0.01521 0.64323 0.37545 0.0
C890 C 0.01594 0.71493 0.35389 0.0
C891 C 0.00072 0.72227 0.33922 0.0
N892 N 0.00638 0.73401 0.35035 0.0
C893 C 0.02162 0.72707 0.36516 0.0
C894 C 0.00542 0.7125 0.34079 0.0
C895 C 0.01663 0.73659 0.36316 0.0
C896 C 0.05542 0.71437 0.37717 0.0
N897 N 0.04371 0.70156 0.38057 0.0
C898 C 0.05236 0.70055 0.4109 0.0
C899 C 0.04195 0.69458 0.39699 0.0
C900 C 0.06461 0.71381 0.40781 0.0
C901 C 0.06606 0.72072 0.39065 0.0
H902 H 0.05645 0.71965 0.36396 0.0
H903 H 0.03248 0.68441 0.39927 0.0
C904 C 0.97499 0.67142 0.35278 0.0
N905 N 0.98695 0.68129 0.36164 0.0
C906 C 0.96164 0.66765 0.36008 0.0
C907 C 0.97324 0.68451 0.38522 0.0
C908 C 0.98636 0.68787 0.37752 0.0
C909 C 0.96067 0.67418 0.37656 0.0
H910 H 0.97584 0.66634 0.34021 0.0
H911 H 0.99609 0.69559 0.38432 0.0
C912 C 0.04921 0.693 0.33236 0.0
N913 N 0.07428 0.69344 0.32429 0.0
C914 C 0.05555 0.69745 0.31477 0.0
C915 C 0.05573 0.68894 0.34593 0.0
C916 C 0.06819 0.69754 0.31093 0.0
C917 C 0.06837 0.68919 0.34156 0.0
C918 C 0.00436 0.67932 0.30633 0.0
C919 C 0.0158 0.68027 0.29618 0.0
C920 C 0.99162 0.67556 0.29715 0.0
C921 C 0.0143 0.67745 0.27698 0.0
C922 C 0.99054 0.67283 0.27792 0.0
N923 N 0.00181 0.67382 0.26832 0.0
C924 C 0.00281 0.64932 0.32039 0.0
C925 C 0.02672 0.65592 0.32658 0.0
C926 C 0.00034 0.63671 0.312 0.0
N927 N 0.01589 0.65873 0.32722 0.0
C928 C 0.02471 0.64338 0.3184 0.0
C929 C 0.01142 0.63366 0.31079 0.0
H930 H 0.99426 0.65165 0.32144 0.0
H931 H 0.03693 0.66334 0.33239 0.0
C932 C 0.04519 0.72459 0.31476 0.0
N933 N 0.03132 0.71462 0.31228 0.0
C934 C 0.0522 0.7354 0.30167 0.0
C935 C 0.03039 0.72573 0.28391 0.0
C936 C 0.02376 0.71515 0.29747 0.0
C937 C 0.04488 0.73592 0.28576 0.0
H938 H 0.05087 0.72397 0.3268 0.0
H939 H 0.01267 0.70722 0.29597 0.0
O940 O 0.01306 0.67505 0.36504 0.0
O941 O 0.02076 0.70555 0.35568 0.0
O942 O 0.03701 0.69316 0.33648 0.0
O943 O 0.00552 0.68204 0.32516 0.0
H944 H 0.98697 0.65313 0.36205 0.0
H945 H 0.03037 0.66565 0.37469 0.0
H946 H 0.98035 0.62795 0.36673 0.0
H947 H 0.02301 0.64025 0.37913 0.0
H948 H 0.99259 0.72053 0.32916 0.0
H949 H 0.02979 0.7291 0.37534 0.0
H950 H 0.00091 0.70318 0.33193 0.0
H951 H 0.02092 0.74602 0.3718 0.0
H952 H 0.05087 0.69481 0.42386 0.0
H953 H 0.07519 0.73105 0.3878 0.0
H954 H 0.95219 0.65972 0.35291 0.0
H955 H 0.97295 0.68966 0.39806 0.0
H956 H 0.0508 0.70086 0.30418 0.0
H957 H 0.05102 0.6855 0.35963 0.0
H958 H 0.07319 0.70092 0.29736 0.0
H959 H 0.07347 0.68599 0.35189 0.0
H960 H 0.02569 0.68307 0.30305 0.0
H961 H 0.98267 0.6748 0.30481 0.0
H962 H 0.02307 0.67813 0.26897 0.0
H963 H 0.98075 0.66993 0.27063 0.0
H964 H 0.98986 0.62937 0.30659 0.0
H965 H 0.03354 0.64144 0.31771 0.0
H966 H 0.06327 0.74321 0.30392 0.0
H967 H 0.02434 0.72568 0.27186 0.0
Li968 Li 0.3116 0.3413 0.35616 0.0
Li969 Li 0.31885 0.32391 0.35121 0.0
Li970 Li 0.33018 0.34607 0.33286 0.0
Li971 Li 0.30596 0.32749 0.32696 0.0
C972 C 0.33432 0.34392 0.37901 0.0
N973 N 0.34146 0.3439 0.41614 0.0
C974 C 0.32371 0.33732 0.39255 0.0
C975 C 0.34858 0.35057 0.38439 0.0
C976 C 0.32752 0.33741 0.41123 0.0
C977 C 0.35197 0.35042 0.40322 0.0
C978 C 0.29139 0.30807 0.36191 0.0
C979 C 0.28151 0.28269 0.36398 0.0
N980 N 0.27602 0.28275 0.38108 0.0
C981 C 0.28554 0.30785 0.37945 0.0
C982 C 0.28925 0.29537 0.35405 0.0
C983 C 0.27785 0.29495 0.38893 0.0
C984 C 0.29008 0.34395 0.37283 0.0
N985 N 0.30439 0.34958 0.37318 0.0
C986 C 0.30661 0.36506 0.39837 0.0
C987 C 0.31275 0.36013 0.38533 0.0
C988 C 0.29178 0.35912 0.39871 0.0
C989 C 0.28352 0.34855 0.38556 0.0
H990 H 0.28374 0.33561 0.36294 0.0
H991 H 0.32414 0.36455 0.38513 0.0
C992 C 0.33158 0.30717 0.3533 0.0
N993 N 0.32299 0.31066 0.36297 0.0
C994 C 0.33556 0.29792 0.36103 0.0
C995 C 0.3219 0.2961 0.38866 0.0
C996 C 0.31814 0.30534 0.38036 0.0
C997 C 0.33075 0.29229 0.37899 0.0
H998 H 0.33544 0.31166 0.33959 0.0
H999 H 0.31143 0.30831 0.38791 0.0
C1000 C 0.31693 0.36221 0.33002 0.0
N1001 N 0.3242 0.39045 0.3305 0.0
C1002 C 0.30958 0.36688 0.31881 0.0
C1003 C 0.32799 0.3719 0.34147 0.0
C1004 C 0.31341 0.38121 0.31924 0.0
C1005 C 0.3315 0.38613 0.34151 0.0
C1006 C 0.32131 0.31963 0.30749 0.0
C1007 C 0.32566 0.32742 0.29086 0.0
C1008 C 0.31449 0.30481 0.30682 0.0
C1009 C 0.32288 0.32022 0.27378 0.0
C1010 C 0.31191 0.298 0.28947 0.0
N1011 N 0.3161 0.30579 0.27344 0.0
C1012 C 0.35973 0.36255 0.32907 0.0
C1013 C 0.34683 0.36676 0.30572 0.0
C1014 C 0.37258 0.37234 0.32078 0.0
N1015 N 0.34723 0.35999 0.32147 0.0
C1016 C 0.35943 0.3765 0.29681 0.0
C1017 C 0.37256 0.37937 0.3043 0.0
H1018 H 0.35968 0.35685 0.34144 0.0
H1019 H 0.3367 0.36438 0.29987 0.0
C1020 C 0.27974 0.30726 0.31006 0.0
N1021 N 0.29225 0.31955 0.30753 0.0
C1022 C 0.26924 0.30243 0.29627 0.0
C1023 C 0.28486 0.3228 0.27738 0.0
C1024 C 0.29499 0.32729 0.29159 0.0
C1025 C 0.27169 0.31034 0.27979 0.0
H1026 H 0.27769 0.30145 0.323 0.0
H1027 H 0.30492 0.33719 0.29016 0.0
O1028 O 0.33082 0.34397 0.3606 0.0
O1029 O 0.29903 0.32062 0.35245 0.0
O1030 O 0.31324 0.3482 0.32971 0.0
O1031 O 0.32371 0.32649 0.32433 0.0
H1032 H 0.31265 0.33213 0.38868 0.0
H1033 H 0.35697 0.35581 0.37417 0.0
H1034 H 0.31938 0.33229 0.42182 0.0
H1035 H 0.36297 0.35551 0.40755 0.0
H1036 H 0.27987 0.27281 0.35809 0.0
H1037 H 0.28695 0.31752 0.38573 0.0
H1038 H 0.2936 0.29532 0.34047 0.0
H1039 H 0.27333 0.29465 0.40255 0.0
H1040 H 0.31337 0.37333 0.40813 0.0
H1041 H 0.27205 0.34354 0.38547 0.0
H1042 H 0.34226 0.29515 0.35297 0.0
H1043 H 0.31811 0.29219 0.40264 0.0
H1044 H 0.301 0.3595 0.30986 0.0
H1045 H 0.33383 0.3685 0.35021 0.0
H1046 H 0.30781 0.38498 0.31064 0.0
H1047 H 0.34003 0.39374 0.35031 0.0
H1048 H 0.33098 0.33888 0.29111 0.0
H1049 H 0.31129 0.29862 0.31955 0.0
H1050 H 0.32608 0.32612 0.2608 0.0
H1051 H 0.30659 0.28653 0.28875 0.0
H1052 H 0.38241 0.37434 0.32724 0.0
H1053 H 0.35884 0.38146 0.28398 0.0
H1054 H 0.25922 0.29276 0.29864 0.0
H1055 H 0.28706 0.32934 0.26503 0.0
Li1056 Li 0.32143 0.00725 0.66686 0.0
Li1057 Li 0.34598 0.02061 0.68285 0.0
Li1058 Li 0.32733 0.02665 0.68843 0.0
Li1059 Li 0.3389 0.03192 0.65948 0.0
C1060 C 0.31979 0.0051 0.71064 0.0
N1061 N 0.30611 -0.00012 0.74476 0.0
C1062 C 0.32767 0.01033 0.72709 0.0
C1063 C 0.30497 0.99715 0.71151 0.0
C1064 C 0.32055 0.0076 0.74422 0.0
C1065 C 0.29825 0.99463 0.72891 0.0
C1066 C 0.34883 0.01831 0.64018 0.0
C1067 C 0.37142 0.02912 0.62427 0.0
N1068 N 0.36457 0.02616 0.60753 0.0
C1069 C 0.342 0.01531 0.62283 0.0
C1070 C 0.36365 0.02523 0.64095 0.0
C1071 C 0.35015 0.0194 0.60648 0.0
C1072 C 0.3022 0.98882 0.64004 0.0
N1073 N 0.30782 0.98942 0.65721 0.0
C1074 C 0.2948 0.96415 0.6598 0.0
C1075 C 0.30432 0.97749 0.66718 0.0
C1076 C 0.28898 0.96316 0.64194 0.0
C1077 C 0.29271 0.97571 0.63206 0.0
H1078 H 0.30518 0.99854 0.6325 0.0
H1079 H 0.3091 0.97834 0.68074 0.0
C1080 C 0.36814 0.02672 0.70803 0.0
N1081 N 0.36052 0.01835 0.69345 0.0
C1082 C 0.3787 0.02488 0.71635 0.0
C1083 C 0.37332 0.00585 0.69443 0.0
C1084 C 0.36286 0.00805 0.68655 0.0
C1085 C 0.38136 0.0143 0.70959 0.0
H1086 H 0.36595 0.03478 0.71323 0.0
H1087 H 0.35651 0.0015 0.67501 0.0
C1088 C 0.30656 0.02463 0.66486 0.0
N1089 N 0.2827 0.02734 0.6676 0.0
C1090 C 0.30787 0.03808 0.66442 0.0
C1091 C 0.2931 0.01254 0.66642 0.0
C1092 C 0.29569 0.03923 0.66593 0.0
C1093 C 0.28117 0.01414 0.66784 0.0
C1094 C 0.35676 0.05354 0.68194 0.0
C1095 C 0.35133 0.06266 0.67963 0.0
C1096 C 0.37146 0.05906 0.68203 0.0
C1097 C 0.3607 0.07717 0.67709 0.0
C1098 C 0.38049 0.07365 0.67947 0.0
N1099 N 0.37497 0.08232 0.67705 0.0
C1100 C 0.33059 0.04362 0.71942 0.0
C1101 C 0.30638 0.02892 0.71127 0.0
C1102 C 0.32693 0.04972 0.73396 0.0
N1103 N 0.32039 0.03361 0.70817 0.0
C1104 C 0.30223 0.03488 0.72554 0.0
C1105 C 0.31261 0.0455 0.737 0.0
H1106 H 0.34163 0.04691 0.71707 0.0
H1107 H 0.29838 0.02053 0.70279 0.0
C1108 C 0.3354 0.04477 0.62771 0.0
N1109 N 0.34556 0.04499 0.63898 0.0
C1110 C 0.33917 0.05426 0.61284 0.0
C1111 C 0.36386 0.0639 0.62112 0.0
C1112 C 0.35961 0.05408 0.63571 0.0
C1113 C 0.35355 0.06412 0.60958 0.0
H1114 H 0.32432 0.03727 0.63037 0.0
H1115 H 0.36753 0.05377 0.64445 0.0
O1116 O 0.32654 0.00803 0.69371 0.0
O1117 O 0.34106 0.0147 0.65635 0.0
O1118 O 0.31835 0.02328 0.66318 0.0
O1119 O 0.34776 0.0393 0.68438 0.0
H1120 H 0.33915 0.01658 0.72661 0.0
H1121 H 0.29873 0.99313 0.69886 0.0
H1122 H 0.3265 0.01166 0.75707 0.0
H1123 H 0.28678 0.98856 0.7298 0.0
H1124 H 0.38291 0.03456 0.62465 0.0
H1125 H 0.33054 0.01002 0.62201 0.0
H1126 H 0.3691 0.02775 0.65427 0.0
H1127 H 0.34502 0.01723 0.59295 0.0
H1128 H 0.29229 0.95471 0.66776 0.0
H1129 H 0.28832 0.97538 0.61835 0.0
H1130 H 0.38476 0.03171 0.72789 0.0
H1131 H 0.3749 0.99746 0.68896 0.0
H1132 H 0.31818 0.04752 0.66289 0.0
H1133 H 0.29187 0.00205 0.66677 0.0
H1134 H 0.29656 0.04958 0.66571 0.0
H1135 H 0.27069 0.00489 0.66919 0.0
H1136 H 0.33999 0.05856 0.67978 0.0
H1137 H 0.37583 0.05214 0.68381 0.0
H1138 H 0.35664 0.08435 0.67518 0.0
H1139 H 0.39188 0.07806 0.67937 0.0
H1140 H 0.33525 0.05792 0.74246 0.0
H1141 H 0.29106 0.03118 0.72768 0.0
H1142 H 0.3309 0.05416 0.60431 0.0
H1143 H 0.37507 0.07124 0.61887 0.0
Li1144 Li 0.99585 0.31386 0.66694 0.0
Li1145 Li 0.98208 0.32337 0.68182 0.0
Li1146 Li 0.9772 0.29866 0.68985 0.0
Li1147 Li 0.97012 0.304 0.65979 0.0
C1148 C 0.00576 0.3208 0.70555 0.0
N1149 N 0.02828 0.32781 0.72945 0.0
C1150 C 0.01472 0.33494 0.71085 0.0
C1151 C 0.00809 0.3102 0.71272 0.0
C1152 C 0.0261 0.33828 0.72285 0.0
C1153 C 0.01957 0.31397 0.7247 0.0
C1154 C 0.98955 0.33615 0.64771 0.0
C1155 C 0.98259 0.35331 0.63964 0.0
N1156 N 0.99614 0.36252 0.63413 0.0
C1157 C 0.00338 0.34574 0.64185 0.0
C1158 C 0.97903 0.3399 0.64648 0.0
C1159 C 0.00651 0.35904 0.63507 0.0
C1160 C 0.01463 0.3117 0.64177 0.0
N1161 N 0.01394 0.31908 0.65673 0.0
C1162 C 0.03913 0.3344 0.65632 0.0
C1163 C 0.02581 0.33035 0.66393 0.0
C1164 C 0.0402 0.32685 0.64104 0.0
C1165 C 0.02772 0.31537 0.63373 0.0
H1166 H 0.00498 0.30296 0.63608 0.0
H1167 H 0.02493 0.33637 0.67534 0.0
C1168 C 0.97349 0.3389 0.70459 0.0
N1169 N 0.98363 0.34011 0.6924 0.0
C1170 C 0.97482 0.35094 0.71352 0.0
C1171 C 0.99682 0.36525 0.69679 0.0
C1172 C 0.99522 0.35291 0.68853 0.0
C1173 C 0.98664 0.36439 0.7097 0.0
H1174 H 0.96453 0.32852 0.7077 0.0
H1175 H 0.00335 0.35355 0.67924 0.0
C1176 C 0.98378 0.28298 0.6632 0.0
N1177 N 0.99047 0.26165 0.66088 0.0
C1178 C 0.97458 0.27021 0.65415 0.0
C1179 C 0.99644 0.28494 0.67093 0.0
C1180 C 0.97813 0.25953 0.65318 0.0
C1181 C -0.00038 0.27403 0.66964 0.0
C1182 C 0.94931 0.29953 0.68349 0.0
C1183 C 0.94043 0.28531 0.68845 0.0
C1184 C 0.94342 0.30742 0.67653 0.0
C1185 C 0.92577 0.27915 0.68608 0.0
C1186 C 0.9287 0.30087 0.67435 0.0
N1187 N 0.92026 0.28699 0.67911 0.0
C1188 C 0.96682 0.28909 0.72545 0.0
C1189 C 0.9704 0.27242 0.70845 0.0
C1190 C 0.9608 0.27958 0.74031 0.0
N1191 N 0.97127 0.28531 0.70982 0.0
C1192 C 0.96458 0.26263 0.72304 0.0
C1193 C 0.95941 0.26604 0.7391 0.0
H1194 H 0.9675 0.29935 0.72607 0.0
H1195 H 0.97386 0.26951 0.69593 0.0
C1196 C 0.9558 0.30329 0.62603 0.0
N1197 N 0.95595 0.29565 0.64097 0.0
C1198 C 0.94543 0.2968 0.61217 0.0
C1199 C 0.93561 0.27476 0.6294 0.0
C1200 C 0.94619 0.28164 0.64282 0.0
C1201 C 0.93517 0.28231 0.61373 0.0
H1202 H 0.96383 0.31435 0.62473 0.0
H1203 H 0.94667 0.27579 0.65475 0.0
O1204 O 0.99447 0.31733 0.69398 0.0
O1205 O 0.98632 0.32313 0.65451 0.0
O1206 O 0.98044 0.29353 0.66421 0.0
O1207 O 0.96371 0.30569 0.68546 0.0
H1208 H 0.01297 0.34326 0.70563 0.0
H1209 H 0.00104 0.29916 0.70923 0.0
H1210 H 0.03319 0.34919 0.72693 0.0
H1211 H 0.02153 0.30587 0.73029 0.0
H1212 H 0.97458 0.35639 0.63871 0.0
H1213 H 0.01162 0.34297 0.6426 0.0
H1214 H 0.96827 0.33258 0.65087 0.0
H1215 H 0.01719 0.36659 0.63056 0.0
H1216 H 0.04844 0.34352 0.66211 0.0
H1217 H 0.02808 0.30921 0.62203 0.0
H1218 H 0.96683 0.34964 0.72363 0.0
H1219 H 0.006 0.37533 0.69311 0.0
H1220 H 0.96479 0.26854 0.64797 0.0
H1221 H 0.00377 0.29481 0.67774 0.0
H1222 H 0.97109 0.24958 0.64627 0.0
H1223 H 0.00938 0.27541 0.67558 0.0
H1224 H 0.94483 0.27905 0.69385 0.0
H1225 H 0.95013 0.31848 0.67284 0.0
H1226 H 0.91877 0.26813 0.68973 0.0
H1227 H 0.92399 0.30683 0.66888 0.0
H1228 H 0.95677 0.28261 0.75225 0.0
H1229 H 0.9639 0.2524 0.72159 0.0
H1230 H 0.94564 0.30298 0.60019 0.0
H1231 H 0.92781 0.26364 0.63134 0.0
Li1232 Li 0.67993 0.67583 0.666 0.0
Li1233 Li 0.66844 0.6529 0.68216 0.0
Li1234 Li 0.69356 0.67068 0.68856 0.0
Li1235 Li 0.687 0.65795 0.65912 0.0
C1236 C 0.68008 0.6843 0.70337 0.0
N1237 N 0.68784 0.70869 0.72382 0.0
C1238 C 0.67239 0.68377 0.71933 0.0
C1239 C 0.69173 0.69722 0.69783 0.0
C1240 C 0.67647 0.69623 0.72948 0.0
C1241 C 0.69548 0.70944 0.70834 0.0
C1242 C 0.65967 0.64447 0.64488 0.0
C1243 C 0.64971 0.61933 0.63972 0.0
N1244 N 0.64258 0.62012 0.62457 0.0
C1245 C 0.65228 0.64505 0.62925 0.0
C1246 C 0.65841 0.63153 0.65016 0.0
C1247 C 0.64367 0.63261 0.61917 0.0
C1248 C 0.68269 0.69611 0.63934 0.0
N1249 N 0.6763 0.68961 0.65563 0.0
C1250 C 0.6633 0.7019 0.65656 0.0
C1251 C 0.66674 0.69226 0.66427 0.0
C1252 C 0.66958 0.70871 0.63959 0.0
C1253 C 0.67947 0.70575 0.63101 0.0
H1254 H 0.69011 0.6936 0.63268 0.0
H1255 H 0.66166 0.68676 0.67708 0.0
C1256 C 0.65133 0.6333 0.70967 0.0
N1257 N 0.65113 0.63924 0.69306 0.0
C1258 C 0.6386 0.6239 0.71861 0.0
C1259 C 0.62578 0.62682 0.693 0.0
C1260 C 0.63874 0.63625 0.68467 0.0
C1261 C 0.62559 0.62062 0.71032 0.0
H1262 H 0.66139 0.63609 0.71613 0.0
H1263 H 0.63892 0.64134 0.6716 0.0
C1264 C 0.71323 0.68666 0.6587 0.0
N1265 N 0.74177 0.70291 0.65008 0.0
C1266 C 0.72163 0.68032 0.65726 0.0
C1267 C 0.71931 0.70124 0.65551 0.0
C1268 C 0.73604 0.68872 0.65295 0.0
C1269 C 0.73377 0.70929 0.65125 0.0
C1270 C 0.69044 0.64165 0.68899 0.0
C1271 C 0.70514 0.64759 0.69052 0.0
C1272 C 0.68152 0.62712 0.6922 0.0
C1273 C 0.71071 0.63885 0.69493 0.0
C1274 C 0.68749 0.61873 0.69656 0.0
N1275 N 0.70184 0.62471 0.69781 0.0
C1276 C 0.70381 0.66976 0.72371 0.0
C1277 C 0.71991 0.69021 0.70655 0.0
C1278 C 0.71356 0.67349 0.7383 0.0
N1279 N 0.70725 0.67794 0.70809 0.0
C1280 C 0.73001 0.69434 0.72078 0.0
C1281 C 0.72699 0.68579 0.73678 0.0
H1282 H 0.69358 0.66013 0.72462 0.0
H1283 H 0.72232 0.6967 0.69419 0.0
C1284 C 0.69773 0.65865 0.62362 0.0
N1285 N 0.6932 0.65059 0.63938 0.0
C1286 C 0.70368 0.6549 0.60894 0.0
C1287 C 0.69972 0.63433 0.62669 0.0
C1288 C 0.69376 0.63843 0.64099 0.0
C1289 C 0.70498 0.64274 0.61055 0.0
H1290 H 0.69711 0.66824 0.62273 0.0
H1291 H 0.68983 0.63203 0.65345 0.0
O1292 O 0.67626 0.67215 0.69341 0.0
O1293 O 0.66821 0.65659 0.65477 0.0
O1294 O 0.69908 0.67867 0.66285 0.0
O1295 O 0.68471 0.64999 0.68477 0.0
H1296 H 0.66336 0.67382 0.72383 0.0
H1297 H 0.69782 0.69782 0.68555 0.0
H1298 H 0.67061 0.69598 0.74186 0.0
H1299 H 0.70448 0.71951 0.70421 0.0
H1300 H 0.64863 0.60924 0.64365 0.0
H1301 H 0.65319 0.65501 0.62496 0.0
H1302 H 0.66408 0.6309 0.66217 0.0
H1303 H 0.63788 0.6329 0.60704 0.0
H1304 H 0.65579 0.70399 0.66381 0.0
H1305 H 0.6844 0.71056 0.61779 0.0
H1306 H 0.63898 0.61955 0.73208 0.0
H1307 H 0.61603 0.62447 0.68596 0.0
H1308 H 0.71707 0.66902 0.65925 0.0
H1309 H 0.71294 0.7063 0.6564 0.0
H1310 H 0.74266 0.68395 0.65181 0.0
H1311 H 0.73863 0.72059 0.64885 0.0
H1312 H 0.7122 0.65884 0.68854 0.0
H1313 H 0.6701 0.62237 0.69127 0.0
H1314 H 0.72207 0.64331 0.69614 0.0
H1315 H 0.68072 0.60746 0.69898 0.0
H1316 H 0.71067 0.66673 0.75052 0.0
H1317 H 0.74025 0.70385 0.71896 0.0
H1318 H 0.70773 0.66175 0.5968 0.0
H1319 H 0.70038 0.62478 0.62834 0.0
Li1320 Li 0.34358 0.327 0.683 0.0
Li1321 Li 0.32629 0.3029 0.69109 0.0
Li1322 Li 0.33826 0.30778 0.66057 0.0
Li1323 Li 0.32036 0.31423 0.66706 0.0
C1324 C 0.36104 0.31525 0.6841 0.0
N1325 N 0.3895 0.32392 0.67999 0.0
C1326 C 0.36708 0.30878 0.69452 0.0
C1327 C 0.36946 0.32613 0.67157 0.0
C1328 C 0.3815 0.31331 0.69225 0.0
C1329 C 0.38383 0.33035 0.66969 0.0
C1330 C 0.31799 0.31746 0.71066 0.0
C1331 C 0.29684 0.30801 0.72965 0.0
N1332 N 0.30498 0.31139 0.74534 0.0
C1333 C 0.32616 0.32097 0.72696 0.0
C1334 C 0.30323 0.31104 0.71198 0.0
C1335 C 0.31938 0.31776 0.74437 0.0
C1336 C 0.35956 0.35682 0.68467 0.0
N1337 N 0.35753 0.34471 0.69291 0.0
C1338 C 0.37432 0.35802 0.71684 0.0
C1339 C 0.36473 0.34504 0.7086 0.0
C1340 C 0.37658 0.37077 0.70876 0.0
C1341 C 0.36916 0.37003 0.6923 0.0
H1342 H 0.35355 0.35619 0.67233 0.0
H1343 H 0.36279 0.3352 0.71494 0.0
C1344 C 0.30675 0.27857 0.71261 0.0
N1345 N 0.32011 0.28998 0.71156 0.0
C1346 C 0.30308 0.26878 0.72716 0.0
C1347 C 0.32688 0.28282 0.73944 0.0
C1348 C 0.33007 0.29234 0.7247 0.0
C1349 C 0.3133 0.27072 0.74063 0.0
H1350 H 0.29904 0.27686 0.70195 0.0
H1351 H 0.3406 0.30153 0.72354 0.0
C1352 C 0.33813 0.32883 0.63711 0.0
N1353 N 0.33488 0.33374 0.59998 0.0
C1354 C 0.3306 0.31745 0.62485 0.0
C1355 C 0.34404 0.34273 0.63045 0.0
C1356 C 0.32907 0.32013 0.60614 0.0
C1357 C 0.34227 0.345 0.61164 0.0
C1358 C 0.30506 0.28594 0.65859 0.0
C1359 C 0.30419 0.27885 0.64186 0.0
C1360 C 0.29261 0.28389 0.66716 0.0
C1361 C 0.29089 0.26992 0.63391 0.0
C1362 C 0.27951 0.27488 0.65877 0.0
N1363 N 0.27892 0.26814 0.64245 0.0
C1364 C 0.34204 0.28654 0.645 0.0
C1365 C 0.35509 0.30849 0.62904 0.0
C1366 C 0.34663 0.27994 0.6323 0.0
N1367 N 0.34611 0.30048 0.64298 0.0
C1368 C 0.35983 0.30228 0.61587 0.0
C1369 C 0.35547 0.28778 0.61734 0.0
H1370 H 0.33498 0.28049 0.65633 0.0
H1371 H 0.35842 0.31964 0.62798 0.0
C1372 C 0.30398 0.32733 0.66487 0.0
N1373 N 0.30615 0.31742 0.65625 0.0
C1374 C 0.2946 0.33119 0.65725 0.0
C1375 C 0.28977 0.31453 0.63204 0.0
C1376 C 0.29926 0.31102 0.64012 0.0
C1377 C 0.28744 0.32485 0.64052 0.0
H1378 H 0.30979 0.33246 0.67749 0.0
H1379 H 0.30125 0.30333 0.6333 0.0
O1380 O 0.34691 0.31083 0.68616 0.0
O1381 O 0.32442 0.32019 0.6935 0.0
O1382 O 0.33965 0.32644 0.65555 0.0
O1383 O 0.31802 0.29477 0.66653 0.0
H1384 H 0.3607 0.30031 0.70424 0.0
H1385 H 0.365 0.33127 0.66335 0.0
H1386 H 0.38632 0.3084 0.70023 0.0
H1387 H 0.39046 0.33875 0.66005 0.0
H1388 H 0.28541 0.30299 0.73088 0.0
H1389 H 0.33759 0.32593 0.72619 0.0
H1390 H 0.29676 0.30844 0.69952 0.0
H1391 H 0.32556 0.3203 0.7571 0.0
H1392 H 0.37959 0.35801 0.72968 0.0
H1393 H 0.3707 0.37955 0.6854 0.0
H1394 H 0.29253 0.25951 0.72747 0.0
H1395 H 0.33501 0.28482 0.74968 0.0
H1396 H 0.32595 0.30664 0.62973 0.0
H1397 H 0.34993 0.3517 0.63968 0.0
H1398 H 0.32324 0.3114 0.59654 0.0
H1399 H 0.34678 0.3557 0.60631 0.0
H1400 H 0.31369 0.28026 0.63503 0.0
H1401 H 0.29307 0.28936 0.68 0.0
H1402 H 0.29007 0.26441 0.62094 0.0
H1403 H 0.2698 0.27328 0.6652 0.0
H1404 H 0.34293 0.26871 0.63382 0.0
H1405 H 0.36677 0.3087 0.60464 0.0
H1406 H 0.29329 0.33935 0.66411 0.0
H1407 H 0.28436 0.30926 0.61923 0.0
Li1408 Li 0.67473 0.01769 0.68548 0.0
Li1409 Li 0.69791 0.02237 0.69246 0.0
Li1410 Li 0.69416 0.03059 0.66261 0.0
Li1411 Li 0.68425 0.00443 0.66924 0.0
C1412 C 0.70062 0.04756 0.69919 0.0
N1413 N 0.7191 0.0691 0.72277 0.0
C1414 C 0.69744 0.04718 0.71823 0.0
C1415 C 0.7131 0.05899 0.6921 0.0
C1416 C 0.70696 0.05813 0.72994 0.0
C1417 C 0.72232 0.06976 0.70426 0.0
C1418 C 0.67645 0.99863 0.71357 0.0
C1419 C 0.67386 0.98109 0.73627 0.0
N1420 N 0.66935 0.98719 0.74914 0.0
C1421 C 0.67174 0.00469 0.72703 0.0
C1422 C 0.67746 0.98669 0.7182 0.0
C1423 C 0.66822 0.99877 0.74493 0.0
C1424 C 0.64575 0.00274 0.69486 0.0
N1425 N 0.65756 0.01586 0.69468 0.0
C1426 C 0.64494 0.02602 0.70922 0.0
C1427 C 0.65739 0.02744 0.70152 0.0
C1428 C 0.63259 0.0126 0.70956 0.0
C1429 C 0.63302 0.00089 0.70209 0.0
H1430 H 0.64631 0.99371 0.68957 0.0
H1431 H 0.66698 0.03772 0.70124 0.0
C1432 C 0.72564 0.03867 0.7056 0.0
N1433 N 0.71254 0.0283 0.71117 0.0
C1434 C 0.73668 0.04531 0.71851 0.0
C1435 C 0.7209 0.02982 0.74251 0.0
C1436 C 0.71011 0.02359 0.72917 0.0
C1437 C 0.73431 0.04111 0.73737 0.0
H1438 H 0.72733 0.04226 0.69123 0.0
H1439 H 0.69977 0.01532 0.73346 0.0
C1440 C 0.66196 0.01176 0.65216 0.0
N1441 N 0.63539 0.00685 0.64204 0.0
C1442 C 0.65093 0.9979 0.64896 0.0
C1443 C 0.65955 0.02314 0.65008 0.0
C1444 C 0.63755 0.99563 0.64388 0.0
C1445 C 0.64601 0.02043 0.645 0.0
C1446 C 0.71385 0.01525 0.66889 0.0
C1447 C 0.72688 0.02223 0.65951 0.0
C1448 C 0.71053 0.00342 0.67997 0.0
C1449 C 0.73636 0.01717 0.66131 0.0
C1450 C 0.72028 0.99869 0.68141 0.0
N1451 N 0.73289 0.0056 0.67213 0.0
C1452 C 0.69983 0.05569 0.64331 0.0
C1453 C 0.70981 0.04262 0.63016 0.0
C1454 C 0.70611 0.06603 0.62938 0.0
N1455 N 0.70191 0.04437 0.64349 0.0
C1456 C 0.7163 0.05269 0.61602 0.0
C1457 C 0.71459 0.06466 0.61561 0.0
H1458 H 0.69349 0.05679 0.65415 0.0
H1459 H 0.71114 0.03342 0.6306 0.0
C1460 C 0.66966 0.97471 0.6666 0.0
N1461 N 0.67946 0.98687 0.65807 0.0
C1462 C 0.66553 0.96156 0.65839 0.0
C1463 C 0.68155 0.97374 0.63267 0.0
C1464 C 0.68544 0.98666 0.64146 0.0
C1465 C 0.67143 0.96094 0.64113 0.0
H1466 H 0.66495 0.97525 0.6797 0.0
H1467 H 0.6931 0.99656 0.63495 0.0
O1468 O 0.69163 0.03674 0.6876 0.0
O1469 O 0.67974 0.00409 0.69583 0.0
O1470 O 0.67502 0.01417 0.6576 0.0
O1471 O 0.70453 0.02017 0.66743 0.0
H1472 H 0.68781 0.03846 0.72395 0.0
H1473 H 0.71579 0.05942 0.67744 0.0
H1474 H 0.7047 0.0579 0.74473 0.0
H1475 H 0.73209 0.0786 0.69899 0.0
H1476 H 0.67463 0.97188 0.74005 0.0
H1477 H 0.67095 0.01395 0.72382 0.0
H1478 H 0.68101 0.98179 0.70798 0.0
H1479 H 0.66462 0.00339 0.75548 0.0
H1480 H 0.64495 0.03528 0.71483 0.0
H1481 H 0.62372 0.99036 0.70233 0.0
H1482 H 0.74676 0.05408 0.71387 0.0
H1483 H 0.71865 0.02601 0.7568 0.0
H1484 H 0.65265 0.98898 0.65056 0.0
H1485 H 0.66799 0.03393 0.6526 0.0
H1486 H 0.62888 0.98495 0.64145 0.0
H1487 H 0.64395 0.02912 0.64346 0.0
H1488 H 0.72965 0.03148 0.65099 0.0
H1489 H 0.70056 0.99797 0.68743 0.0
H1490 H 0.74648 0.02246 0.65414 0.0
H1491 H 0.71784 0.98953 0.68994 0.0
H1492 H 0.70463 0.07516 0.62965 0.0
H1493 H 0.72257 0.05112 0.60552 0.0
H1494 H 0.65784 0.95198 0.66555 0.0
H1495 H 0.68621 0.97381 0.61925 0.0
Li1496 Li 0.97634 0.6718 0.68992 0.0
Li1497 Li 0.98106 0.65275 0.68201 0.0
Li1498 Li 0.99479 0.67611 0.66793 0.0
Li1499 Li 0.97006 0.66022 0.65932 0.0
C1500 C 0.99704 0.67587 0.71238 0.0
N1501 N 0.00218 0.68546 0.74896 0.0
C1502 C 0.99348 0.66623 0.72713 0.0
C1503 C 0.00326 0.69038 0.71623 0.0
C1504 C 0.99617 0.6713 0.74552 0.0
C1505 C 0.00575 0.69502 0.73482 0.0
C1506 C 0.94834 0.64445 0.68064 0.0
C1507 C 0.92779 0.62486 0.66622 0.0
N1508 N 0.91981 0.63067 0.67157 0.0
C1509 C 0.93993 0.65022 0.68603 0.0
C1510 C 0.94223 0.63164 0.67071 0.0
C1511 C 0.92553 0.64309 0.68131 0.0
C1512 C 0.97004 0.69169 0.70669 0.0
N1513 N 0.97022 0.67942 0.70935 0.0
C1514 C 0.95976 0.67642 0.73962 0.0
C1515 C 0.96523 0.67177 0.72537 0.0
C1516 C 0.95919 0.68892 0.73716 0.0
C1517 C 0.96452 0.69666 0.7205 0.0
H1518 H 0.97383 0.69741 0.69366 0.0
H1519 H 0.96517 0.66185 0.72687 0.0
C1520 C 0.99601 0.64053 0.69696 0.0
N1521 N 0.98274 0.63756 0.69202 0.0
C1522 C 0.99811 0.63008 0.705 0.0
C1523 C 0.97287 0.61358 0.70236 0.0
C1524 C 0.97124 0.62442 0.69452 0.0
C1525 C 0.98643 0.61643 0.70786 0.0
H1526 H 0.00494 0.65111 0.69481 0.0
H1527 H 0.9608 0.62241 0.69062 0.0
C1528 C 0.98606 0.69305 0.65525 0.0
N1529 N 0.00045 0.71777 0.63463 0.0
C1530 C 0.98376 0.69288 0.63597 0.0
C1531 C 0.99562 0.70581 0.66405 0.0
C1532 C 0.99114 0.70549 0.6258 0.0
C1533 C 0.00282 0.71818 0.65337 0.0
C1534 C 0.9912 0.64835 0.65149 0.0
C1535 C 0.00579 0.65327 0.65178 0.0
C1536 C 0.98165 0.63394 0.64825 0.0
C1537 C 0.01058 0.64366 0.64891 0.0
C1538 C 0.98686 0.62467 0.64549 0.0
N1539 N 0.00109 0.62968 0.64587 0.0
C1540 C 0.02415 0.69622 0.67034 0.0
C1541 C 0.0145 0.69143 0.63967 0.0
C1542 C 0.03764 0.70565 0.66331 0.0
N1543 N 0.01294 0.68943 0.65849 0.0
C1544 C 0.02775 0.70088 0.63206 0.0
C1545 C 0.03952 0.70808 0.64395 0.0
H1546 H 0.02266 0.69418 0.6852 0.0
H1547 H 0.00545 0.68556 0.63057 0.0
C1548 C 0.94825 0.66084 0.6399 0.0
N1549 N 0.95659 0.65484 0.63967 0.0
C1550 C 0.93813 0.65758 0.62597 0.0
C1551 C 0.94533 0.64198 0.61176 0.0
C1552 C 0.95539 0.6456 0.62598 0.0
C1553 C 0.93661 0.64808 0.61161 0.0
H1554 H 0.94951 0.66819 0.65096 0.0
H1555 H 0.96226 0.6411 0.62605 0.0
O1556 O 0.99427 0.67111 0.69427 0.0
O1557 O 0.96254 0.65144 0.68473 0.0
O1558 O 0.97911 0.68077 0.66541 0.0
O1559 O 0.98628 0.65751 0.65476 0.0
H1560 H 0.98851 0.65495 0.72445 0.0
H1561 H 0.00601 0.69798 0.70501 0.0
H1562 H 0.9934 0.66396 0.75708 0.0
H1563 H 0.01049 0.70621 0.73801 0.0
H1564 H 0.92296 0.61501 0.6584 0.0
H1565 H 0.94448 0.66016 0.69359 0.0
H1566 H 0.94862 0.62713 0.66618 0.0
H1567 H 0.9189 0.64746 0.68533 0.0
H1568 H 0.9555 0.67001 0.7521 0.0
H1569 H 0.96422 0.70634 0.71809 0.0
H1570 H 0.00875 0.63262 0.70891 0.0
H1571 H 0.96361 0.6032 0.70452 0.0
H1572 H 0.97649 0.68309 0.62889 0.0
H1573 H 0.99757 0.70613 0.67893 0.0
H1574 H 0.98952 0.70549 0.61086 0.0
H1575 H 0.01031 0.72811 0.65999 0.0
H1576 H 0.01334 0.66435 0.6544 0.0
H1577 H 0.97032 0.62991 0.64824 0.0
H1578 H 0.02183 0.64731 0.64918 0.0
H1579 H 0.97958 0.61348 0.64313 0.0
H1580 H 0.04649 0.71103 0.6729 0.0
H1581 H 0.02884 0.70232 0.61703 0.0
H1582 H 0.93149 0.66237 0.62652 0.0
H1583 H 0.94455 0.6347 0.60084 0.0
H1584 H 0.13996 0.31274 0.19352 0.0
H1585 H 0.12075 0.31177 0.2122 0.0
H1586 H 0.09 0.28128 0.1736 0.0
H1587 H 0.10937 0.28213 0.15493 0.0
H1588 H 0.1476 0.29463 0.18539 0.0
H1589 H 0.13292 0.32207 0.15133 0.0
H1590 H 0.11761 0.32866 0.13434 0.0
H1591 H 0.10952 0.29666 0.09265 0.0
H1592 H 0.12469 0.28991 0.10989 0.0
H1593 H 0.16512 0.28687 0.11334 0.0
H1594 H 0.18694 0.29272 0.09637 0.0
H1595 H 0.20972 0.33133 0.12892 0.0
H1596 H 0.188 0.32503 0.14629 0.0
H1597 H 0.15243 0.30557 0.1175 0.0
H1598 H 0.17368 0.28323 0.15445 0.0
H1599 H 0.19345 0.28407 0.17188 0.0
H1600 H 0.19285 0.31469 0.20999 0.0
H1601 H 0.17367 0.31433 0.19204 0.0
C1602 C 0.12613 0.29753 0.1728 0.0
C1603 C 0.12909 0.3057 0.18916 0.0
C1604 C 0.1181 0.30513 0.19984 0.0
C1605 C 0.10388 0.29639 0.1944 0.0
C1606 C 0.10087 0.28817 0.17804 0.0
C1607 C 0.11191 0.28866 0.16739 0.0
C1608 C 0.13804 0.29854 0.16144 0.0
C1609 C 0.14863 0.29703 0.17054 0.0
C1610 C 0.13942 0.30168 0.14205 0.0
C1611 C 0.12973 0.30531 0.13207 0.0
C1612 C 0.12764 0.31628 0.13873 0.0
C1613 C 0.11893 0.32007 0.12899 0.0
C1614 C 0.11236 0.31314 0.11222 0.0
C1615 C 0.11454 0.30223 0.10548 0.0
C1616 C 0.12315 0.29835 0.11533 0.0
C1617 C 0.17505 0.30546 0.13113 0.0
C1618 C 0.17486 0.29656 0.11678 0.0
C1619 C 0.18732 0.29998 0.10705 0.0
C1620 C 0.20013 0.3125 0.11129 0.0
C1621 C 0.20015 0.32148 0.12553 0.0
C1622 C 0.18774 0.31795 0.13539 0.0
C1623 C 0.16195 0.30185 0.14156 0.0
C1624 C 0.15115 0.30283 0.13225 0.0
C1625 C 0.16073 0.29897 0.16096 0.0
C1626 C 0.17228 0.29883 0.17181 0.0
C1627 C 0.17792 0.29023 0.16644 0.0
C1628 C 0.18912 0.29061 0.17653 0.0
C1629 C 0.19481 0.29953 0.19224 0.0
C1630 C 0.18893 0.30792 0.19774 0.0
C1631 C 0.17783 0.30759 0.18762 0.0
H1632 H 0.72141 0.88077 0.17147 0.0
H1633 H 0.72125 0.89893 0.19178 0.0
H1634 H 0.67675 0.88205 0.17965 0.0
H1635 H 0.67696 0.86395 0.15945 0.0
H1636 H 0.70382 0.85077 0.17637 0.0
H1637 H 0.71226 0.88664 0.12998 0.0
H1638 H 0.70681 0.90316 0.11383 0.0
H1639 H 0.66597 0.86803 0.09753 0.0
H1640 H 0.67142 0.8516 0.11376 0.0
H1641 H 0.67234 0.81814 0.11195 0.0
H1642 H 0.66729 0.79631 0.0957 0.0
H1643 H 0.70754 0.80187 0.11414 0.0
H1644 H 0.71279 0.82397 0.13 0.0
H1645 H 0.69092 0.84454 0.10905 0.0
H1646 H 0.67793 0.80991 0.1564 0.0
H1647 H 0.67807 0.79131 0.17526 0.0
H1648 H 0.72095 0.8209 0.19306 0.0
H1649 H 0.72094 0.83935 0.17348 0.0
C1650 C 0.69923 0.87111 0.1639 0.0
C1651 C 0.71167 0.88108 0.17311 0.0
C1652 C 0.71158 0.89146 0.18459 0.0
C1653 C 0.69898 0.89185 0.18728 0.0
C1654 C 0.68657 0.88191 0.17791 0.0
C1655 C 0.6867 0.87165 0.1663 0.0
C1656 C 0.69907 0.85967 0.15248 0.0
C1657 C 0.70135 0.84957 0.16154 0.0
C1658 C 0.69521 0.85781 0.13335 0.0
C1659 C 0.69221 0.86789 0.12319 0.0
C1660 C 0.70211 0.88252 0.12301 0.0
C1661 C 0.69898 0.89194 0.1138 0.0
C1662 C 0.68596 0.88688 0.10443 0.0
C1663 C 0.67616 0.87222 0.10442 0.0
C1664 C 0.67926 0.86283 0.11371 0.0
C1665 C 0.69289 0.82265 0.12236 0.0
C1666 C 0.68019 0.8148 0.11229 0.0
C1667 C 0.67729 0.80232 0.10303 0.0
C1668 C 0.68699 0.7974 0.10377 0.0
C1669 C 0.69981 0.80536 0.11357 0.0
C1670 C 0.7028 0.81796 0.12263 0.0
C1671 C 0.69549 0.83548 0.13297 0.0
C1672 C 0.6937 0.84586 0.12379 0.0
C1673 C 0.69922 0.8373 0.15218 0.0
C1674 C 0.6995 0.82596 0.16334 0.0
C1675 C 0.68745 0.81233 0.16411 0.0
C1676 C 0.68749 0.80175 0.17506 0.0
C1677 C 0.69951 0.80464 0.1857 0.0
C1678 C 0.7116 0.81829 0.18484 0.0
C1679 C 0.71157 0.82887 0.1738 0.0
H1680 H 0.11604 0.8432 0.17368 0.0
H1681 H 0.09807 0.82559 0.19478 0.0
H1682 H 0.11081 0.79532 0.17867 0.0
H1683 H 0.12889 0.81298 0.15794 0.0
H1684 H 0.14413 0.85484 0.17523 0.0
H1685 H 0.10783 0.8252 0.13072 0.0
H1686 H 0.09131 0.80263 0.11577 0.0
H1687 H 0.12675 0.79826 0.09706 0.0
H1688 H 0.14307 0.82025 0.11308 0.0
H1689 H 0.17785 0.8543 0.11513 0.0
H1690 H 0.19953 0.87044 0.09823 0.0
H1691 H 0.19077 0.90466 0.10697 0.0
H1692 H 0.16927 0.88846 0.12441 0.0
H1693 H 0.15015 0.84603 0.1086 0.0
H1694 H 0.18467 0.86918 0.15608 0.0
H1695 H 0.20293 0.88811 0.17518 0.0
H1696 H 0.17373 0.90276 0.18903 0.0
H1697 H 0.1554 0.88365 0.16988 0.0
C1698 C 0.12367 0.82936 0.16401 0.0
C1699 C 0.1149 0.83275 0.17463 0.0
C1700 C 0.10466 0.8227 0.18667 0.0
C1701 C 0.10299 0.80907 0.18825 0.0
C1702 C 0.11169 0.80566 0.17747 0.0
C1703 C 0.12201 0.81574 0.1656 0.0
C1704 C 0.1351 0.84028 0.15206 0.0
C1705 C 0.14522 0.85305 0.16052 0.0
C1706 C 0.13685 0.83771 0.13305 0.0
C1707 C 0.1267 0.82436 0.12325 0.0
C1708 C 0.11202 0.81929 0.12358 0.0
C1709 C 0.10259 0.80645 0.11482 0.0
C1710 C 0.10767 0.79856 0.10527 0.0
C1711 C 0.12241 0.80388 0.1046 0.0
C1712 C 0.1318 0.81658 0.11356 0.0
C1713 C 0.172 0.87021 0.12105 0.0
C1714 C 0.18057 0.86527 0.11329 0.0
C1715 C 0.19293 0.8745 0.10356 0.0
C1716 C 0.19689 0.88886 0.10118 0.0
C1717 C 0.18815 0.89373 0.10877 0.0
C1718 C 0.17583 0.88449 0.11866 0.0
C1719 C 0.15918 0.86037 0.13188 0.0
C1720 C 0.1488 0.8479 0.12319 0.0
C1721 C 0.1574 0.86298 0.1508 0.0
C1722 C 0.16873 0.87511 0.16136 0.0
C1723 C 0.18228 0.87664 0.16291 0.0
C1724 C 0.19273 0.88749 0.17383 0.0
C1725 C 0.18981 0.89699 0.18357 0.0
C1726 C 0.17627 0.89555 0.18181 0.0
C1727 C 0.16581 0.88467 0.17084 0.0
H1728 H 0.27721 0.15979 0.84516 0.0
H1729 H 0.27636 0.1781 0.82614 0.0
H1730 H 0.31944 0.20823 0.84247 0.0
H1731 H 0.32029 0.18995 0.86117 0.0
H1732 H 0.29478 0.14896 0.84132 0.0
H1733 H 0.28535 0.17408 0.89076 0.0
H1734 H 0.29018 0.19579 0.90728 0.0
H1735 H 0.33296 0.20489 0.91864 0.0
H1736 H 0.32796 0.18309 0.90247 0.0
H1737 H 0.32867 0.14901 0.90317 0.0
H1738 H 0.33468 0.13292 0.91924 0.0
H1739 H 0.29445 0.09715 0.90243 0.0
H1740 H 0.28833 0.11332 0.88664 0.0
H1741 H 0.30922 0.15559 0.9081 0.0
H1742 H 0.32272 0.13652 0.85726 0.0
H1743 H 0.32312 0.11864 0.83686 0.0
H1744 H 0.27852 0.10133 0.82496 0.0
H1745 H 0.27815 0.11923 0.84558 0.0
C1746 C 0.29872 0.17356 0.85483 0.0
C1747 C 0.28642 0.17037 0.84471 0.0
C1748 C 0.28595 0.18082 0.83386 0.0
C1749 C 0.29779 0.19462 0.83295 0.0
C1750 C 0.31005 0.19779 0.8432 0.0
C1751 C 0.31054 0.18734 0.85391 0.0
C1752 C 0.29955 0.16236 0.86562 0.0
C1753 C 0.29756 0.15022 0.85606 0.0
C1754 C 0.30374 0.16427 0.88463 0.0
C1755 C 0.30631 0.17701 0.89536 0.0
C1756 C 0.29574 0.18075 0.8969 0.0
C1757 C 0.29854 0.19318 0.90625 0.0
C1758 C 0.31197 0.20209 0.91425 0.0
C1759 C 0.32245 0.19817 0.9129 0.0
C1760 C 0.31962 0.18572 0.90363 0.0
C1761 C 0.30809 0.13238 0.89358 0.0
C1762 C 0.32108 0.13772 0.90306 0.0
C1763 C 0.32451 0.12853 0.91223 0.0
C1764 C 0.31504 0.1138 0.91204 0.0
C1765 C 0.30201 0.10845 0.9026 0.0
C1766 C 0.29852 0.11767 0.89357 0.0
C1767 C 0.30465 0.14228 0.88373 0.0
C1768 C 0.30608 0.15414 0.89348 0.0
C1769 C 0.30039 0.14035 0.86474 0.0
C1770 C 0.30037 0.1291 0.85303 0.0
C1771 C 0.31299 0.12877 0.85042 0.0
C1772 C 0.31323 0.11863 0.83868 0.0
C1773 C 0.30085 0.10863 0.82932 0.0
C1774 C 0.28817 0.10884 0.83214 0.0
C1775 C 0.28796 0.11908 0.8438 0.0
H1776 H 0.84157 0.11732 0.84693 0.0
H1777 H 0.82375 0.09935 0.8259 0.0
H1778 H 0.79574 0.1159 0.83696 0.0
H1779 H 0.81354 0.1338 0.85789 0.0
H1780 H 0.8541 0.14735 0.84256 0.0
H1781 H 0.82581 0.11104 0.88848 0.0
H1782 H 0.80402 0.09442 0.90511 0.0
H1783 H 0.79723 0.12912 0.91977 0.0
H1784 H 0.81899 0.14564 0.90325 0.0
H1785 H 0.85427 0.1804 0.90476 0.0
H1786 H 0.87078 0.20157 0.92249 0.0
H1787 H 0.90474 0.19309 0.91047 0.0
H1788 H 0.88813 0.17181 0.89277 0.0
H1789 H 0.84566 0.15281 0.90954 0.0
H1790 H 0.86931 0.18824 0.8644 0.0
H1791 H 0.88812 0.20695 0.84578 0.0
H1792 H 0.90035 0.1771 0.82565 0.0
H1793 H 0.88199 0.15858 0.8453 0.0
C1794 C 0.82881 0.12679 0.85404 0.0
C1795 C 0.83154 0.11697 0.84491 0.0
C1796 C 0.82136 0.10671 0.833 0.0
C1797 C 0.80841 0.10629 0.8298 0.0
C1798 C 0.80568 0.11607 0.83908 0.0
C1799 C 0.81578 0.12621 0.85112 0.0
C1800 C 0.83981 0.13814 0.86588 0.0
C1801 C 0.85246 0.14837 0.85734 0.0
C1802 C 0.83729 0.13979 0.88489 0.0
C1803 C 0.824 0.12957 0.89459 0.0
C1804 C 0.81956 0.11503 0.89516 0.0
C1805 C 0.80711 0.10556 0.90465 0.0
C1806 C 0.79895 0.11048 0.91381 0.0
C1807 C 0.80341 0.12504 0.91312 0.0
C1808 C 0.81582 0.13448 0.90364 0.0
C1809 C 0.87 0.17458 0.8974 0.0
C1810 C 0.86525 0.18304 0.90605 0.0
C1811 C 0.87469 0.19517 0.91605 0.0
C1812 C 0.88902 0.19897 0.91777 0.0
C1813 C 0.89372 0.19034 0.90943 0.0
C1814 C 0.88429 0.17826 0.89925 0.0
C1815 C 0.85997 0.16204 0.88625 0.0
C1816 C 0.8475 0.15162 0.89488 0.0
C1817 C 0.86242 0.16051 0.86714 0.0
C1818 C 0.87438 0.17204 0.85653 0.0
C1819 C 0.87628 0.18579 0.8564 0.0
C1820 C 0.88692 0.19645 0.84549 0.0
C1821 C 0.89572 0.19353 0.83412 0.0
C1822 C 0.8939 0.17978 0.83443 0.0
C1823 C 0.88333 0.16914 0.84552 0.0
H1824 H 0.82713 0.68711 0.82569 0.0
H1825 H 0.80859 0.68701 0.80645 0.0
H1826 H 0.80769 0.71825 0.84293 0.0
H1827 H 0.82652 0.71853 0.86209 0.0
H1828 H 0.8528 0.70592 0.83302 0.0
H1829 H 0.81198 0.67717 0.8702 0.0
H1830 H 0.78973 0.67039 0.88666 0.0
H1831 H 0.81148 0.70785 0.92137 0.0
H1832 H 0.83379 0.71459 0.90482 0.0
H1833 H 0.87926 0.71588 0.90464 0.0
H1834 H 0.89508 0.70999 0.92184 0.0
H1835 H 0.87733 0.67009 0.89185 0.0
H1836 H 0.86214 0.67642 0.8742 0.0
H1837 H 0.84715 0.69722 0.90148 0.0
H1838 H 0.89063 0.71834 0.8638 0.0
H1839 H 0.9094 0.71711 0.84636 0.0
H1840 H 0.87767 0.6854 0.80977 0.0
H1841 H 0.85905 0.68616 0.82773 0.0
C1842 C 0.82822 0.70281 0.84538 0.0
C1843 C 0.82307 0.69407 0.82948 0.0
C1844 C 0.81248 0.69401 0.81848 0.0
C1845 C 0.80676 0.70267 0.82315 0.0
C1846 C 0.81186 0.71141 0.8391 0.0
C1847 C 0.82258 0.71155 0.85004 0.0
C1848 C 0.83944 0.70262 0.85697 0.0
C1849 C 0.85156 0.70404 0.848 0.0
C1850 C 0.83789 0.7002 0.8765 0.0
C1851 C 0.82446 0.69643 0.88623 0.0
C1852 C 0.81193 0.68396 0.88129 0.0
C1853 C 0.79927 0.68006 0.89075 0.0
C1854 C 0.79893 0.6886 0.90527 0.0
C1855 C 0.81147 0.70115 0.91013 0.0
C1856 C 0.82419 0.70497 0.90078 0.0
C1857 C 0.86969 0.69664 0.88808 0.0
C1858 C 0.87887 0.7059 0.9018 0.0
C1859 C 0.88782 0.70246 0.91168 0.0
C1860 C 0.88754 0.68957 0.90821 0.0
C1861 C 0.87809 0.68023 0.89462 0.0
C1862 C 0.86931 0.68378 0.8846 0.0
C1863 C 0.8603 0.70022 0.87741 0.0
C1864 C 0.84857 0.69951 0.8866 0.0
C1865 C 0.86184 0.7025 0.85787 0.0
C1866 C 0.87341 0.70225 0.84718 0.0
C1867 C 0.88774 0.71101 0.85215 0.0
C1868 C 0.89846 0.71039 0.84207 0.0
C1869 C 0.89503 0.70108 0.82676 0.0
C1870 C 0.88068 0.69249 0.82171 0.0
C1871 C 0.87001 0.69304 0.83183 0.0
H1872 H 0.80757 0.65078 0.51928 0.0
H1873 H 0.78857 0.65071 0.53741 0.0
H1874 H 0.75756 0.62035 0.49887 0.0
H1875 H 0.77669 0.61997 0.48117 0.0
H1876 H 0.81378 0.6311 0.51273 0.0
H1877 H 0.80304 0.66075 0.47499 0.0
H1878 H 0.78749 0.66692 0.45777 0.0
H1879 H 0.77548 0.63117 0.42082 0.0
H1880 H 0.79095 0.62492 0.43835 0.0
H1881 H 0.83197 0.62506 0.43812 0.0
H1882 H 0.85388 0.6304 0.42164 0.0
H1883 H 0.87839 0.66306 0.46233 0.0
H1884 H 0.85652 0.65785 0.47856 0.0
H1885 H 0.82069 0.64187 0.44482 0.0
H1886 H 0.83937 0.61799 0.48339 0.0
H1887 H 0.85745 0.61696 0.50277 0.0
H1888 H 0.85737 0.64811 0.5403 0.0
H1889 H 0.83961 0.64928 0.52089 0.0
C1890 C 0.79358 0.63543 0.49881 0.0
C1891 C 0.79668 0.64403 0.51477 0.0
C1892 C 0.7858 0.64411 0.52501 0.0
C1893 C 0.77155 0.63563 0.51948 0.0
C1894 C 0.76843 0.62695 0.50354 0.0
C1895 C 0.77935 0.62682 0.49332 0.0
C1896 C 0.80537 0.6356 0.48811 0.0
C1897 C 0.81532 0.63349 0.49788 0.0
C1898 C 0.80728 0.63852 0.46871 0.0
C1899 C 0.79799 0.64229 0.45806 0.0
C1900 C 0.79701 0.65421 0.46323 0.0
C1901 C 0.78822 0.65779 0.45329 0.0
C1902 C 0.78028 0.64952 0.43796 0.0
C1903 C 0.78138 0.63764 0.43269 0.0
C1904 C 0.79024 0.63411 0.4426 0.0
C1905 C 0.84263 0.64087 0.45976 0.0
C1906 C 0.84207 0.63337 0.44347 0.0
C1907 C 0.85457 0.63644 0.43406 0.0
C1908 C 0.86783 0.64707 0.44079 0.0
C1909 C 0.86834 0.65464 0.45702 0.0
C1910 C 0.85585 0.65165 0.46631 0.0
C1911 C 0.82937 0.6378 0.46958 0.0
C1912 C 0.81904 0.63921 0.45959 0.0
C1913 C 0.82743 0.6348 0.489 0.0
C1914 C 0.83814 0.63374 0.50066 0.0
C1915 C 0.84331 0.62463 0.49575 0.0
C1916 C 0.85361 0.62404 0.50681 0.0
C1917 C 0.85872 0.63238 0.5231 0.0
C1918 C 0.85345 0.64138 0.52801 0.0
C1919 C 0.8433 0.64207 0.51691 0.0
H1920 H 0.38866 0.21327 0.50879 0.0
H1921 H 0.38816 0.23061 0.53016 0.0
H1922 H 0.34652 0.21952 0.50949 0.0
H1923 H 0.34675 0.20169 0.48906 0.0
H1924 H 0.37191 0.18534 0.50875 0.0
H1925 H 0.38202 0.22244 0.46424 0.0
H1926 H 0.37769 0.23999 0.44876 0.0
H1927 H 0.33709 0.20626 0.42924 0.0
H1928 H 0.34132 0.18881 0.44493 0.0
H1929 H 0.33863 0.15266 0.44795 0.0
H1930 H 0.33251 0.13065 0.4315 0.0
H1931 H 0.37499 0.13818 0.4411 0.0
H1932 H 0.38083 0.15997 0.45817 0.0
H1933 H 0.35941 0.18048 0.44134 0.0
H1934 H 0.34486 0.14589 0.48993 0.0
H1935 H 0.34416 0.127 0.5092 0.0
H1936 H 0.38865 0.15392 0.52219 0.0
H1937 H 0.38933 0.17281 0.50269 0.0
C1938 C 0.36783 0.20629 0.49713 0.0
C1939 C 0.37945 0.21462 0.50885 0.0
C1940 C 0.37919 0.22461 0.52094 0.0
C1941 C 0.36729 0.22646 0.52156 0.0
C1942 C 0.35578 0.21825 0.50957 0.0
C1943 C 0.35598 0.20818 0.49765 0.0
C1944 C 0.36765 0.195 0.48521 0.0
C1945 C 0.36959 0.18453 0.49389 0.0
C1946 C 0.36412 0.19363 0.46593 0.0
C1947 C 0.36195 0.20431 0.45587 0.0
C1948 C 0.37217 0.21883 0.45668 0.0
C1949 C 0.36969 0.22884 0.44785 0.0
C1950 C 0.35706 0.22446 0.43782 0.0
C1951 C 0.34699 0.20991 0.4367 0.0
C1952 C 0.34941 0.19994 0.44565 0.0
C1953 C 0.36016 0.1579 0.45429 0.0
C1954 C 0.34664 0.14959 0.44639 0.0
C1955 C 0.34319 0.13704 0.43692 0.0
C1956 C 0.35326 0.13263 0.43492 0.0
C1957 C 0.3669 0.14113 0.44262 0.0
C1958 C 0.37029 0.15363 0.45228 0.0
C1959 C 0.36345 0.17085 0.46501 0.0
C1960 C 0.36215 0.1816 0.45608 0.0
C1961 C 0.36725 0.17236 0.48412 0.0
C1962 C 0.36718 0.16069 0.49478 0.0
C1963 C 0.35451 0.14765 0.49669 0.0
C1964 C 0.3541 0.13692 0.5078 0.0
C1965 C 0.36634 0.13904 0.51721 0.0
C1966 C 0.3791 0.15199 0.51496 0.0
C1967 C 0.37949 0.16278 0.50393 0.0
H1968 H 0.7836 0.17406 0.50623 0.0
H1969 H 0.76559 0.15583 0.52666 0.0
H1970 H 0.77864 0.1262 0.50848 0.0
H1971 H 0.79659 0.1444 0.48824 0.0
H1972 H 0.81224 0.18502 0.50858 0.0
H1973 H 0.77606 0.15952 0.46058 0.0
H1974 H 0.75907 0.13745 0.44464 0.0
H1975 H 0.79331 0.13002 0.42989 0.0
H1976 H 0.81018 0.15193 0.44596 0.0
H1977 H 0.84427 0.18676 0.44331 0.0
H1978 H 0.86623 0.20362 0.42739 0.0
H1979 H 0.86132 0.2384 0.44742 0.0
H1980 H 0.83915 0.22146 0.46305 0.0
H1981 H 0.81788 0.17934 0.44073 0.0
H1982 H 0.85301 0.2 0.48753 0.0
H1983 H 0.87174 0.2178 0.50742 0.0
H1984 H 0.84274 0.23099 0.52781 0.0
H1985 H 0.82403 0.21327 0.50758 0.0
C1986 C 0.7913 0.16054 0.49552 0.0
C1987 C 0.78246 0.16359 0.50653 0.0
C1988 C 0.77222 0.15319 0.51822 0.0
C1989 C 0.77067 0.13957 0.51912 0.0
C1990 C 0.77939 0.1365 0.50784 0.0
C1991 C 0.78966 0.1469 0.49625 0.0
C1992 C 0.80292 0.17186 0.48428 0.0
C1993 C 0.81329 0.184 0.49363 0.0
C1994 C 0.80462 0.17016 0.46498 0.0
C1995 C 0.79436 0.15731 0.45452 0.0
C1996 C 0.77989 0.15314 0.45386 0.0
C1997 C 0.77022 0.1406 0.44469 0.0
C1998 C 0.77489 0.13201 0.43614 0.0
C1999 C 0.78941 0.13635 0.43656 0.0
C2000 C 0.79906 0.14891 0.44559 0.0
C2001 C 0.84011 0.20284 0.45452 0.0
C2002 C 0.84779 0.198 0.44406 0.0
C2003 C 0.86034 0.20763 0.43499 0.0
C2004 C 0.86549 0.2223 0.43626 0.0
C2005 C 0.85767 0.22714 0.44642 0.0
C2006 C 0.84502 0.21749 0.45534 0.0
C2007 C 0.82726 0.19255 0.46504 0.0
C2008 C 0.81666 0.18061 0.45557 0.0
C2009 C 0.82563 0.19416 0.48441 0.0
C2010 C 0.83717 0.20545 0.49584 0.0
C2011 C 0.85075 0.20692 0.49596 0.0
C2012 C 0.86145 0.21709 0.50734 0.0
C2013 C 0.85871 0.22582 0.51909 0.0
C2014 C 0.84512 0.22436 0.51894 0.0
C2015 C 0.83444 0.21427 0.5074 0.0
H2016 H 0.96536 0.50256 0.17459 0.0
H2017 H 0.96254 0.51961 0.15545 0.0
H2018 H 0.00484 0.5525 0.17093 0.0
H2019 H 0.00778 0.53529 0.1894 0.0
H2020 H 0.98402 0.49338 0.17076 0.0
H2021 H 0.97295 0.51758 0.21911 0.0
H2022 H 0.97601 0.53855 0.23598 0.0
H2023 H 0.01929 0.55022 0.24899 0.0
H2024 H 0.01625 0.52938 0.23183 0.0
H2025 H 0.01713 0.49156 0.23153 0.0
H2026 H 0.02079 0.47405 0.24814 0.0
H2027 H 0.97688 0.44225 0.23822 0.0
H2028 H 0.97352 0.45973 0.22102 0.0
H2029 H 0.99796 0.5012 0.23774 0.0
H2030 H 0.00909 0.47675 0.19207 0.0
H2031 H 0.00726 0.45649 0.17479 0.0
H2032 H 0.96568 0.44614 0.15508 0.0
H2033 H 0.96723 0.46608 0.1731 0.0
C2034 C 0.98673 0.51768 0.18354 0.0
C2035 C 0.97401 0.51345 0.17384 0.0
C2036 C 0.97237 0.52323 0.16306 0.0
C2037 C 0.98346 0.53742 0.16171 0.0
C2038 C 0.99615 0.54162 0.17154 0.0
C2039 C 0.9978 0.53183 0.18226 0.0
C2040 C 0.98857 0.50718 0.19457 0.0
C2041 C 0.9868 0.49494 0.1855 0.0
C2042 C 0.99271 0.50949 0.21361 0.0
C2043 C 0.99441 0.52201 0.2241 0.0
C2044 C 0.9831 0.52469 0.22553 0.0
C2045 C 0.98483 0.5366 0.23528 0.0
C2046 C 0.9979 0.54602 0.24376 0.0
C2047 C 0.00916 0.54323 0.24242 0.0
C2048 C 0.0074 0.53129 0.23275 0.0
C2049 C 0.9951 0.47688 0.22497 0.0
C2050 C 0.0083 0.48082 0.23305 0.0
C2051 C 0.01035 0.4708 0.24259 0.0
C2052 C 0.99914 0.45671 0.24447 0.0
C2053 C 0.98582 0.45292 0.23672 0.0
C2054 C 0.98383 0.46291 0.22701 0.0
C2055 C 0.99319 0.48731 0.214 0.0
C2056 C 0.99503 0.49956 0.22305 0.0
C2057 C 0.98921 0.48503 0.1949 0.0
C2058 C 0.98817 0.4728 0.18424 0.0
C2059 C -0.00057 0.46996 0.18441 0.0
C2060 C 0.99842 0.45842 0.17447 0.0
C2061 C 0.98629 0.44974 0.16376 0.0
C2062 C 0.97513 0.4527 0.16327 0.0
C2063 C 0.97603 0.46409 0.1735 0.0
H2064 H 0.50774 0.45388 0.17684 0.0
H2065 H 0.48942 0.43594 0.15622 0.0
H2066 H 0.46334 0.45498 0.16518 0.0
H2067 H 0.48156 0.47274 0.18588 0.0
H2068 H 0.52162 0.48457 0.17201 0.0
H2069 H 0.4917 0.44807 0.21546 0.0
H2070 H 0.4691 0.43135 0.23032 0.0
H2071 H 0.46448 0.46643 0.24968 0.0
H2072 H 0.48679 0.48313 0.23424 0.0
H2073 H 0.52134 0.51758 0.2338 0.0
H2074 H 0.53778 0.53906 0.25104 0.0
H2075 H 0.57196 0.53079 0.23955 0.0
H2076 H 0.5554 0.50915 0.2225 0.0
H2077 H 0.51269 0.49003 0.23882 0.0
H2078 H 0.53641 0.52504 0.19237 0.0
H2079 H 0.55547 0.54346 0.17355 0.0
H2080 H 0.56912 0.51384 0.15764 0.0
H2081 H 0.55025 0.49552 0.17706 0.0
C2082 C 0.49592 0.46453 0.18293 0.0
C2083 C 0.49804 0.45412 0.17439 0.0
C2084 C 0.48759 0.44388 0.16273 0.0
C2085 C 0.47503 0.44414 0.15914 0.0
C2086 C 0.47298 0.45463 0.16765 0.0
C2087 C 0.48332 0.4647 0.17951 0.0
C2088 C 0.507 0.47554 0.19504 0.0
C2089 C 0.51985 0.48557 0.18676 0.0
C2090 C 0.50437 0.4771 0.21405 0.0
C2091 C 0.49089 0.46687 0.2235 0.0
C2092 C 0.48574 0.45218 0.22266 0.0
C2093 C 0.47287 0.44264 0.2312 0.0
C2094 C 0.46509 0.44764 0.24108 0.0
C2095 C 0.47035 0.46233 0.24223 0.0
C2096 C 0.4831 0.47186 0.23345 0.0
C2097 C 0.53717 0.51182 0.22681 0.0
C2098 C 0.53235 0.52032 0.23514 0.0
C2099 C 0.54176 0.53264 0.24484 0.0
C2100 C 0.55615 0.53662 0.24653 0.0
C2101 C 0.56091 0.52792 0.23855 0.0
C2102 C 0.55149 0.51563 0.22873 0.0
C2103 C 0.52722 0.49918 0.21572 0.0
C2104 C 0.51461 0.48884 0.2242 0.0
C2105 C 0.52984 0.49757 0.19672 0.0
C2106 C 0.54202 0.50896 0.1863 0.0
C2107 C 0.54369 0.52259 0.18517 0.0
C2108 C 0.55449 0.53307 0.17424 0.0
C2109 C 0.56376 0.53008 0.16405 0.0
C2110 C 0.56225 0.5165 0.16549 0.0
C2111 C 0.55142 0.50601 0.17646 0.0
H2112 H 0.53749 0.03793 0.18126 0.0
H2113 H 0.55732 0.03988 0.16257 0.0
H2114 H 0.54311 0.99567 0.17337 0.0
H2115 H 0.5232 0.99372 0.19167 0.0
H2116 H 0.5087 0.02043 0.17498 0.0
H2117 H 0.542 0.02828 0.22416 0.0
H2118 H 0.55915 0.02382 0.24035 0.0
H2119 H 0.5262 0.98041 0.25033 0.0
H2120 H 0.50907 0.985 0.23429 0.0
H2121 H 0.47152 0.98478 0.23267 0.0
H2122 H 0.44957 0.98014 0.24839 0.0
H2123 H 0.46082 0.02385 0.2398 0.0
H2124 H 0.4828 0.02846 0.22422 0.0
H2125 H 0.49962 0.00341 0.24073 0.0
H2126 H 0.46664 0.99438 0.19194 0.0
H2127 H 0.4492 0.99661 0.17305 0.0
H2128 H 0.48063 0.04002 0.16006 0.0
H2129 H 0.49806 0.03779 0.17927 0.0
C2130 C 0.52894 0.01572 0.18793 0.0
C2131 C 0.53869 0.02869 0.17962 0.0
C2132 C 0.55006 0.02981 0.16909 0.0
C2133 C 0.55175 0.01793 0.16654 0.0
C2134 C 0.54201 0.00498 0.17498 0.0
C2135 C 0.5307 0.00388 0.18555 0.0
C2136 C 0.51667 0.01437 0.19867 0.0
C2137 C 0.50686 0.01702 0.18949 0.0
C2138 C 0.51406 0.00946 0.21738 0.0
C2139 C 0.5243 0.00693 0.22789 0.0
C2140 C 0.53849 0.0178 0.22983 0.0
C2141 C 0.54828 0.01523 0.23902 0.0
C2142 C 0.54405 0.00173 0.24651 0.0
C2143 C 0.52976 0.99095 0.24488 0.0
C2144 C 0.51996 0.99354 0.2357 0.0
C2145 C 0.47873 0.00694 0.22723 0.0
C2146 C 0.46929 0.99338 0.23431 0.0
C2147 C 0.45673 0.99071 0.24313 0.0
C2148 C 0.4535 0.00163 0.24523 0.0
C2149 C 0.46311 0.01527 0.23847 0.0
C2150 C 0.47561 0.0179 0.2295 0.0
C2151 C 0.49166 0.00951 0.21704 0.0
C2152 C 0.50157 0.00705 0.22632 0.0
C2153 C 0.49427 0.01446 0.19834 0.0
C2154 C 0.4836 0.01599 0.18726 0.0
C2155 C 0.46972 0.00447 0.18534 0.0
C2156 C 0.45976 0.00576 0.17453 0.0
C2157 C 0.46354 0.01852 0.16518 0.0
C2158 C 0.47745 0.03004 0.16706 0.0
C2159 C 0.48739 0.02878 0.17802 0.0
H2160 H 0.48413 0.00444 0.85218 0.0
H2161 H 0.46448 0.00337 0.87014 0.0
H2162 H 0.43454 0.96823 0.83599 0.0
H2163 H 0.45431 0.96917 0.81826 0.0
H2164 H 0.49251 0.9852 0.84777 0.0
H2165 H 0.47766 0.01065 0.80892 0.0
H2166 H 0.46056 0.01473 0.79197 0.0
H2167 H 0.45042 0.97871 0.75633 0.0
H2168 H 0.46729 0.97443 0.77378 0.0
H2169 H 0.50772 0.97209 0.77727 0.0
H2170 H 0.52901 0.97598 0.76018 0.0
H2171 H 0.55395 0.01584 0.7892 0.0
H2172 H 0.53273 0.0118 0.80646 0.0
H2173 H 0.49618 0.9917 0.77883 0.0
H2174 H 0.5153 0.96934 0.81834 0.0
H2175 H 0.53351 0.96803 0.83682 0.0
H2176 H 0.53724 0.00202 0.87221 0.0
H2177 H 0.51955 0.0037 0.8532 0.0
C2178 C 0.47067 0.98692 0.83386 0.0
C2179 C 0.47334 0.99648 0.8486 0.0
C2180 C 0.4621 0.99595 0.85872 0.0
C2181 C 0.44797 0.98577 0.85438 0.0
C2182 C 0.44532 0.97614 0.83968 0.0
C2183 C 0.45658 0.97672 0.8295 0.0
C2184 C 0.48269 0.9877 0.82305 0.0
C2185 C 0.49336 0.98671 0.83271 0.0
C2186 C 0.48371 0.98952 0.8034 0.0
C2187 C 0.47357 0.99211 0.79276 0.0
C2188 C 0.47167 0.00357 0.79755 0.0
C2189 C 0.46201 0.00597 0.78773 0.0
C2190 C 0.45414 0.99703 0.77282 0.0
C2191 C 0.45621 0.98567 0.76789 0.0
C2192 C 0.46589 0.98327 0.77774 0.0
C2193 C 0.51873 0.99163 0.79315 0.0
C2194 C 0.51779 0.98165 0.77992 0.0
C2195 C 0.52991 0.98385 0.77026 0.0
C2196 C 0.54304 0.99621 0.77342 0.0
C2197 C 0.5439 0.00628 0.78647 0.0
C2198 C 0.53185 0.00396 0.79635 0.0
C2199 C 0.50601 0.98928 0.80359 0.0
C2200 C 0.49521 0.98999 0.79385 0.0
C2201 C 0.50507 0.98755 0.82324 0.0
C2202 C 0.51617 0.98673 0.83427 0.0
C2203 C 0.52022 0.97666 0.82989 0.0
C2204 C 0.53052 0.97582 0.84059 0.0
C2205 C 0.53687 0.98495 0.85595 0.0
C2206 C 0.53275 0.99499 0.86028 0.0
C2207 C 0.52253 0.99587 0.84955 0.0
H2208 H 0.03532 0.53579 0.84172 0.0
H2209 H 0.03674 0.55532 0.86053 0.0
H2210 H 0.99336 0.54223 0.8459 0.0
H2211 H 0.9919 0.52256 0.82751 0.0
H2212 H 0.01716 0.50715 0.84709 0.0
H2213 H 0.02755 0.54096 0.79661 0.0
H2214 H 0.02352 0.55803 0.77924 0.0
H2215 H 0.98023 0.52517 0.76849 0.0
H2216 H 0.9843 0.50818 0.78594 0.0
H2217 H 0.98589 0.47295 0.7824 0.0
H2218 H 0.98205 0.45159 0.76578 0.0
H2219 H 0.02174 0.45765 0.78727 0.0
H2220 H 0.02604 0.47948 0.80303 0.0
H2221 H 0.00367 0.49915 0.77999 0.0
H2222 H 0.99177 0.4653 0.82903 0.0
H2223 H 0.99316 0.44764 0.84863 0.0
H2224 H 0.03601 0.4789 0.86443 0.0
H2225 H 0.03459 0.49652 0.84469 0.0
C2226 C 0.01355 0.5278 0.83312 0.0
C2227 C 0.02615 0.53719 0.84251 0.0
C2228 C 0.02698 0.54839 0.85312 0.0
C2229 C 0.01516 0.5503 0.85468 0.0
C2230 C 0.0026 0.54096 0.84508 0.0
C2231 C 0.0018 0.5298 0.83444 0.0
C2232 C 0.01244 0.51552 0.82262 0.0
C2233 C 0.01448 0.5055 0.83233 0.0
C2234 C 0.00843 0.51313 0.80357 0.0
C2235 C 0.00619 0.52336 0.79261 0.0
C2236 C 0.01721 0.53746 0.79049 0.0
C2237 C 0.01492 0.54715 0.7805 0.0
C2238 C 0.00156 0.54289 0.77258 0.0
C2239 C 0.99059 0.52874 0.7746 0.0
C2240 C 0.99292 0.51902 0.78443 0.0
C2241 C 0.00617 0.47776 0.79423 0.0
C2242 C 0.99387 0.46982 0.78339 0.0
C2243 C 0.99164 0.45761 0.77396 0.0
C2244 C 0.00156 0.45302 0.77546 0.0
C2245 C 0.01389 0.46096 0.78614 0.0
C2246 C 0.01629 0.47336 0.7952 0.0
C2247 C 0.00834 0.49062 0.80445 0.0
C2248 C 0.0065 0.50078 0.79471 0.0
C2249 C 0.01223 0.49297 0.82361 0.0
C2250 C 0.01314 0.48218 0.83525 0.0
C2251 C 0.00153 0.4683 0.83653 0.0
C2252 C 0.00234 0.45822 0.8477 0.0
C2253 C 0.01472 0.46189 0.858 0.0
C2254 C 0.02631 0.47581 0.85675 0.0
C2255 C 0.02551 0.48587 0.84549 0.0
H2256 H 0.44981 0.505 0.84287 0.0
H2257 H 0.43231 0.48637 0.86337 0.0
H2258 H 0.44752 0.45832 0.84584 0.0
H2259 H 0.46515 0.47704 0.82574 0.0
H2260 H 0.47899 0.5173 0.84544 0.0
H2261 H 0.44246 0.48959 0.80035 0.0
H2262 H 0.42585 0.46757 0.78409 0.0
H2263 H 0.46111 0.46399 0.76296 0.0
H2264 H 0.47767 0.48567 0.77967 0.0
H2265 H 0.51099 0.51888 0.7806 0.0
H2266 H 0.5329 0.53558 0.76445 0.0
H2267 H 0.5281 0.57056 0.78384 0.0
H2268 H 0.50591 0.55378 0.79959 0.0
H2269 H 0.48463 0.51164 0.77759 0.0
H2270 H 0.51889 0.53123 0.82689 0.0
H2271 H 0.53751 0.54949 0.84638 0.0
H2272 H 0.50975 0.56592 0.86021 0.0
H2273 H 0.49099 0.54729 0.84102 0.0
C2274 C 0.45868 0.49235 0.83268 0.0
C2275 C 0.44929 0.49479 0.84338 0.0
C2276 C 0.43925 0.48413 0.85497 0.0
C2277 C 0.43856 0.4709 0.8562 0.0
C2278 C 0.44788 0.46844 0.84529 0.0
C2279 C 0.45787 0.47908 0.83368 0.0
C2280 C 0.46988 0.50388 0.82126 0.0
C2281 C 0.48004 0.51622 0.8305 0.0
C2282 C 0.47151 0.50219 0.80192 0.0
C2283 C 0.46133 0.48924 0.79142 0.0
C2284 C 0.44662 0.48401 0.79236 0.0
C2285 C 0.43715 0.47147 0.78305 0.0
C2286 C 0.44223 0.46412 0.77231 0.0
C2287 C 0.45694 0.46953 0.77101 0.0
C2288 C 0.46639 0.48193 0.78054 0.0
C2289 C 0.50685 0.53507 0.79145 0.0
C2290 C 0.51453 0.53013 0.78118 0.0
C2291 C 0.52705 0.53966 0.77199 0.0
C2292 C 0.53219 0.55434 0.77299 0.0
C2293 C 0.52443 0.5593 0.78305 0.0
C2294 C 0.51179 0.54973 0.79205 0.0
C2295 C 0.49392 0.52484 0.80188 0.0
C2296 C 0.48341 0.51283 0.79244 0.0
C2297 C 0.49221 0.52652 0.82118 0.0
C2298 C 0.50362 0.538 0.83243 0.0
C2299 C 0.51687 0.53886 0.834 0.0
C2300 C 0.52754 0.54936 0.84507 0.0
C2301 C 0.52517 0.55925 0.85481 0.0
C2302 C 0.51188 0.5584 0.85307 0.0
C2303 C 0.50117 0.54781 0.84207 0.0
H2304 H 0.61032 0.82576 0.51105 0.0
H2305 H 0.61116 0.84447 0.49116 0.0
H2306 H 0.65511 0.87211 0.50661 0.0
H2307 H 0.65402 0.85353 0.52679 0.0
H2308 H 0.6281 0.81369 0.50762 0.0
H2309 H 0.6179 0.84054 0.55269 0.0
H2310 H 0.62304 0.86266 0.56838 0.0
H2311 H 0.66231 0.8673 0.58948 0.0
H2312 H 0.65737 0.84544 0.57341 0.0
H2313 H 0.65734 0.81184 0.57371 0.0
H2314 H 0.66232 0.79497 0.58969 0.0
H2315 H 0.62299 0.76015 0.56869 0.0
H2316 H 0.61782 0.77707 0.55309 0.0
H2317 H 0.63823 0.81909 0.57578 0.0
H2318 H 0.65401 0.79978 0.52797 0.0
H2319 H 0.65513 0.78189 0.50842 0.0
H2320 H 0.61188 0.76638 0.4906 0.0
H2321 H 0.61073 0.78419 0.51048 0.0
C2322 C 0.63206 0.83833 0.52048 0.0
C2323 C 0.62008 0.83591 0.51022 0.0
C2324 C 0.6206 0.84659 0.49882 0.0
C2325 C 0.6332 0.85981 0.49729 0.0
C2326 C 0.64516 0.86218 0.50772 0.0
C2327 C 0.64459 0.85155 0.5192 0.0
C2328 C 0.63177 0.82685 0.53189 0.0
C2329 C 0.62996 0.81468 0.52262 0.0
C2330 C 0.6348 0.8285 0.55129 0.0
C2331 C 0.63733 0.84139 0.56169 0.0
C2332 C 0.62766 0.84636 0.56059 0.0
C2333 C 0.63058 0.85896 0.56957 0.0
C2334 C 0.64308 0.86667 0.58009 0.0
C2335 C 0.65254 0.86149 0.58159 0.0
C2336 C 0.64971 0.849 0.57244 0.0
C2337 C 0.63727 0.79573 0.56203 0.0
C2338 C 0.64967 0.80059 0.57276 0.0
C2339 C 0.65252 0.79096 0.58186 0.0
C2340 C 0.64307 0.77629 0.5803 0.0
C2341 C 0.63053 0.77142 0.5699 0.0
C2342 C 0.62758 0.78107 0.56099 0.0
C2343 C 0.63481 0.80602 0.55145 0.0
C2344 C 0.63605 0.81793 0.56086 0.0
C2345 C 0.63184 0.80446 0.53203 0.0
C2346 C 0.63224 0.79321 0.52078 0.0
C2347 C 0.6447 0.7924 0.52004 0.0
C2348 C 0.64537 0.78225 0.50878 0.0
C2349 C 0.63359 0.77276 0.49798 0.0
C2350 C 0.62105 0.77347 0.49893 0.0
C2351 C 0.62042 0.78368 0.51015 0.0
H2352 H 0.17417 0.78406 0.51464 0.0
H2353 H 0.15518 0.7667 0.49435 0.0
H2354 H 0.12726 0.78135 0.51447 0.0
H2355 H 0.14631 0.79885 0.53423 0.0
H2356 H 0.18613 0.81331 0.51252 0.0
H2357 H 0.16175 0.77714 0.56049 0.0
H2358 H 0.14027 0.75996 0.57719 0.0
H2359 H 0.13234 0.79377 0.59286 0.0
H2360 H 0.15393 0.81085 0.57659 0.0
H2361 H 0.18735 0.84524 0.57687 0.0
H2362 H 0.20353 0.86756 0.5925 0.0
H2363 H 0.23934 0.86438 0.57244 0.0
H2364 H 0.22304 0.84165 0.55762 0.0
H2365 H 0.18137 0.81909 0.58061 0.0
H2366 H 0.19717 0.85203 0.52956 0.0
H2367 H 0.21402 0.87107 0.5093 0.0
H2368 H 0.23492 0.84694 0.49765 0.0
H2369 H 0.2175 0.82763 0.51738 0.0
C2370 C 0.1616 0.79263 0.52609 0.0
C2371 C 0.16391 0.78341 0.51477 0.0
C2372 C 0.15304 0.77347 0.50329 0.0
C2373 C 0.13975 0.7727 0.5028 0.0
C2374 C 0.13742 0.78178 0.51442 0.0
C2375 C 0.14825 0.79168 0.52587 0.0
C2376 C 0.17335 0.80396 0.53715 0.0
C2377 C 0.18531 0.81435 0.52752 0.0
C2378 C 0.172 0.80564 0.55655 0.0
C2379 C 0.1594 0.79525 0.5673 0.0
C2380 C 0.15539 0.78082 0.56763 0.0
C2381 C 0.14309 0.77102 0.57709 0.0
C2382 C 0.13458 0.77549 0.58635 0.0
C2383 C 0.13877 0.79 0.58617 0.0
C2384 C 0.15109 0.79978 0.57682 0.0
C2385 C 0.20398 0.84182 0.56595 0.0
C2386 C 0.19868 0.84925 0.57604 0.0
C2387 C 0.20795 0.8621 0.58478 0.0
C2388 C 0.22273 0.86783 0.58357 0.0
C2389 C 0.22801 0.86022 0.57376 0.0
C2390 C 0.21872 0.8473 0.56511 0.0
C2391 C 0.19402 0.82854 0.55593 0.0
C2392 C 0.18245 0.81781 0.56574 0.0
C2393 C 0.19543 0.82678 0.53658 0.0
C2394 C 0.20617 0.8385 0.52499 0.0
C2395 C 0.20545 0.85091 0.5227 0.0
C2396 C 0.21518 0.86183 0.51121 0.0
C2397 C 0.22592 0.86061 0.50186 0.0
C2398 C 0.22669 0.84818 0.50441 0.0
C2399 C 0.21681 0.83716 0.51574 0.0
H2400 H 0.1564 0.34584 0.50105 0.0
H2401 H 0.13634 0.34451 0.48396 0.0
H2402 H 0.13984 0.37969 0.5164 0.0
H2403 H 0.16007 0.38104 0.53346 0.0
H2404 H 0.18385 0.3672 0.50386 0.0
H2405 H 0.1445 0.33944 0.54383 0.0
H2406 H 0.12302 0.33407 0.56116 0.0
H2407 H 0.14746 0.37111 0.59586 0.0
H2408 H 0.16893 0.37665 0.57802 0.0
H2409 H 0.21021 0.37617 0.57781 0.0
H2410 H 0.22613 0.3703 0.59483 0.0
H2411 H 0.21612 0.33615 0.55575 0.0
H2412 H 0.19989 0.34171 0.53933 0.0
H2413 H 0.18167 0.35953 0.57252 0.0
H2414 H 0.2232 0.38244 0.53202 0.0
H2415 H 0.24224 0.38323 0.51269 0.0
H2416 H 0.21079 0.34995 0.47756 0.0
H2417 H 0.19194 0.34891 0.49715 0.0
C2418 C 0.15971 0.36353 0.5185 0.0
C2419 C 0.15289 0.35331 0.50443 0.0
C2420 C 0.14135 0.35247 0.49482 0.0
C2421 C 0.13648 0.36193 0.49897 0.0
C2422 C 0.14341 0.37229 0.51292 0.0
C2423 C 0.15491 0.37304 0.52268 0.0
C2424 C 0.17164 0.36392 0.52896 0.0
C2425 C 0.18343 0.36556 0.51889 0.0
C2426 C 0.1711 0.36191 0.54854 0.0
C2427 C 0.15824 0.35855 0.55949 0.0
C2428 C 0.14521 0.34645 0.5551 0.0
C2429 C 0.13298 0.34332 0.56513 0.0
C2430 C 0.13356 0.35217 0.57988 0.0
C2431 C 0.14667 0.36419 0.58443 0.0
C2432 C 0.15893 0.36732 0.57436 0.0
C2433 C 0.20403 0.35951 0.55716 0.0
C2434 C 0.2115 0.36745 0.57293 0.0
C2435 C 0.22064 0.36413 0.58255 0.0
C2436 C 0.22238 0.35275 0.57664 0.0
C2437 C 0.2149 0.34487 0.5608 0.0
C2438 C 0.20576 0.34816 0.55124 0.0
C2439 C 0.19385 0.36256 0.54737 0.0
C2440 C 0.18237 0.3616 0.55759 0.0
C2441 C 0.19448 0.36475 0.52778 0.0
C2442 C 0.20614 0.36557 0.51608 0.0
C2443 C 0.22044 0.37526 0.52022 0.0
C2444 C 0.23129 0.37577 0.50911 0.0
C2445 C 0.22801 0.36659 0.49368 0.0
C2446 C 0.21368 0.357 0.48953 0.0
C2447 C 0.20288 0.3565 0.5006 0.0
C2448 C 0.97438 0.38266 0.10261 0.0
C2449 C 0.98732 0.38561 0.09454 0.0
C2450 C 0.97369 0.39229 0.11508 0.0
C2451 C 0.98619 0.40529 0.11918 0.0
C2452 C -0.00067 0.40819 0.11128 0.0
C2453 C -0.00026 0.39825 0.09917 0.0
C2454 C 0.95955 0.3887 0.12353 0.0
C2455 C 0.01285 0.42204 0.11504 0.0
C2456 C 0.98259 0.43696 0.13342 0.0
C2457 C 0.98554 0.43791 0.15261 0.0
C2458 C 0.98265 0.4263 0.12241 0.0
C2459 C 0.98547 0.41621 0.1309 0.0
C2460 C 0.98807 0.41691 0.1504 0.0
C2461 C 0.98823 0.42786 0.16101 0.0
C2462 C 0.98009 0.42607 0.1016 0.0
C2463 C 0.99083 0.40618 0.16 0.0
H2464 H 0.96478 0.37284 0.09905 0.0
H2465 H 0.00972 0.4006 0.09271 0.0
H2466 H 0.96049 0.3899 0.13898 0.0
H2467 H 0.95626 0.3962 0.11827 0.0
H2468 H 0.95108 0.3777 0.12012 0.0
H2469 H 0.02225 0.42245 0.10828 0.0
H2470 H 0.01176 0.43102 0.10971 0.0
H2471 H 0.01481 0.42365 0.13031 0.0
H2472 H 0.98065 0.44482 0.12692 0.0
H2473 H 0.9904 0.42857 0.1759 0.0
H2474 H 0.97095 0.41566 0.09743 0.0
H2475 H 0.98952 0.42741 0.09382 0.0
H2476 H 0.97792 0.43459 0.09723 0.0
H2477 H 0.98208 0.39525 0.15695 0.0
H2478 H 0.99182 0.40771 0.17542 0.0
H2479 H 0.00077 0.40703 0.15452 0.0
C2480 C 0.62045 0.59536 0.10211 0.0
C2481 C 0.62017 0.59088 0.08361 0.0
C2482 C 0.61259 0.58557 0.11622 0.0
C2483 C 0.60423 0.57097 0.11168 0.0
C2484 C 0.6045 0.56631 0.09325 0.0
C2485 C 0.61248 0.57632 0.07944 0.0
C2486 C 0.6126 0.59094 0.13573 0.0
C2487 C 0.59578 0.55082 0.08787 0.0
C2488 C 0.58827 0.54316 0.15016 0.0
C2489 C 0.57439 0.54085 0.15114 0.0
C2490 C 0.59822 0.55309 0.13756 0.0
C2491 C 0.59412 0.56079 0.12564 0.0
C2492 C 0.58015 0.55855 0.12667 0.0
C2493 C 0.57047 0.54862 0.13939 0.0
C2494 C 0.61305 0.55527 0.13691 0.0
C2495 C 0.57535 0.56649 0.11411 0.0
H2496 H 0.62628 0.60661 0.10541 0.0
H2497 H 0.61243 0.57278 0.06523 0.0
H2498 H 0.60207 0.5898 0.13875 0.0
H2499 H 0.61442 0.58454 0.14627 0.0
H2500 H 0.62086 0.60229 0.1375 0.0
H2501 H 0.59816 0.54878 0.07344 0.0
H2502 H 0.59776 0.54416 0.09777 0.0
H2503 H 0.58432 0.54737 0.08873 0.0
H2504 H 0.59137 0.53726 0.15933 0.0
H2505 H 0.55969 0.54671 0.13986 0.0
H2506 H 0.62096 0.56661 0.13945 0.0
H2507 H 0.61522 0.55252 0.12279 0.0
H2508 H 0.61465 0.5487 0.14743 0.0
H2509 H 0.58234 0.57811 0.11602 0.0
H2510 H 0.56421 0.56372 0.11695 0.0
H2511 H 0.57619 0.56405 0.09923 0.0
C2512 C 0.40815 0.02658 0.0987 0.0
C2513 C 0.40108 0.01413 0.08797 0.0
C2514 C 0.4184 0.02833 0.112 0.0
C2515 C 0.42171 0.0174 0.11447 0.0
C2516 C 0.4146 0.00482 0.10367 0.0
C2517 C 0.40436 0.00332 0.09059 0.0
C2518 C 0.4257 0.04184 0.12337 0.0
C2519 C 0.41792 0.99297 0.10579 0.0
C2520 C 0.45708 0.02517 0.13478 0.0
C2521 C 0.45312 0.01951 0.15284 0.0
C2522 C 0.44704 0.025 0.12232 0.0
C2523 C 0.43273 0.0191 0.12814 0.0
C2524 C 0.4288 0.01388 0.14661 0.0
C2525 C 0.43904 0.0141 0.15873 0.0
C2526 C 0.45163 0.03058 0.1027 0.0
C2527 C 0.41367 0.00763 0.15338 0.0
H2528 H 0.40556 0.03491 0.0968 0.0
H2529 H 0.39909 0.99378 0.08211 0.0
H2530 H 0.42403 0.03931 0.13853 0.0
H2531 H 0.43732 0.04739 0.12079 0.0
H2532 H 0.42174 0.04921 0.11998 0.0
H2533 H 0.41137 0.98384 0.09639 0.0
H2534 H 0.42929 0.99699 0.10262 0.0
H2535 H 0.41605 0.98911 0.12046 0.0
H2536 H 0.46793 0.02923 0.13011 0.0
H2537 H 0.43599 0.00989 0.17278 0.0
H2538 H 0.44828 0.0384 0.09925 0.0
H2539 H 0.44638 0.02171 0.09252 0.0
H2540 H 0.46331 0.03572 0.10079 0.0
H2541 H 0.40976 0.01512 0.15069 0.0
H2542 H 0.41259 0.0051 0.16856 0.0
H2543 H 0.4067 0.99773 0.14551 0.0
C2544 C 0.38231 0.98252 0.91141 0.0
C2545 C 0.38591 0.98407 0.93046 0.0
C2546 C 0.39154 0.98232 0.89777 0.0
C2547 C 0.40464 0.98368 0.90336 0.0
C2548 C 0.40826 0.9851 0.92258 0.0
C2549 C 0.39889 0.98532 0.93586 0.0
C2550 C 0.38734 0.9808 0.8774 0.0
C2551 C 0.42216 0.98661 0.9291 0.0
C2552 C 0.42517 0.97199 0.87212 0.0
C2553 C 0.43612 0.98507 0.86553 0.0
C2554 C 0.41452 0.97132 0.88393 0.0
C2555 C 0.41483 0.98402 0.8892 0.0
C2556 C 0.42556 0.9972 0.88201 0.0
C2557 C 0.43609 0.99757 0.87029 0.0
C2558 C 0.40329 0.95707 0.89138 0.0
C2559 C 0.42619 0.01097 0.8872 0.0
H2560 H 0.37225 0.98143 0.90715 0.0
H2561 H 0.4019 0.98682 0.9505 0.0
H2562 H 0.39521 0.99029 0.86951 0.0
H2563 H 0.38737 0.97146 0.87122 0.0
H2564 H 0.37665 0.97955 0.8754 0.0
H2565 H 0.42315 0.98715 0.9446 0.0
H2566 H 0.42316 0.97751 0.92404 0.0
H2567 H 0.43116 0.99641 0.92313 0.0
H2568 H 0.42521 0.96232 0.86859 0.0
H2569 H 0.44442 0.00768 0.86498 0.0
H2570 H 0.39254 0.95556 0.88899 0.0
H2571 H 0.40463 0.95667 0.90673 0.0
H2572 H 0.40384 0.94812 0.88477 0.0
H2573 H 0.41582 0.01024 0.88441 0.0
H2574 H 0.43459 0.02018 0.87936 0.0
H2575 H 0.42836 0.01301 0.9024 0.0
C2576 C 0.02403 0.4073 0.92409 0.0
C2577 C 0.01174 0.39986 0.93502 0.0
C2578 C 0.02519 0.41731 0.91079 0.0
C2579 C 0.01382 0.41998 0.90849 0.0
C2580 C 0.00135 0.41242 0.91939 0.0
C2581 C 0.00046 0.40245 0.9325 0.0
C2582 C 0.03861 0.42512 0.89932 0.0
C2583 C 0.98903 0.41505 0.91743 0.0
C2584 C 0.02061 0.45518 0.88876 0.0
C2585 C 0.01531 0.45134 0.8705 0.0
C2586 C 0.02051 0.44514 0.90113 0.0
C2587 C 0.01502 0.43094 0.89506 0.0
C2588 C 0.01 0.42708 0.87649 0.0
C2589 C 0.01017 0.43733 0.86443 0.0
C2590 C 0.02588 0.44963 0.92086 0.0
C2591 C 0.00417 0.41206 0.86949 0.0
H2592 H 0.03272 0.40523 0.92588 0.0
H2593 H 0.99102 0.39689 0.94112 0.0
H2594 H 0.03601 0.42354 0.88417 0.0
H2595 H 0.04381 0.43669 0.90213 0.0
H2596 H 0.0463 0.42151 0.90242 0.0
H2597 H 0.97998 0.40806 0.92669 0.0
H2598 H 0.99254 0.42628 0.9209 0.0
H2599 H 0.98523 0.41324 0.90273 0.0
H2600 H 0.02445 0.46596 0.89356 0.0
H2601 H 0.00624 0.43438 0.85025 0.0
H2602 H 0.03412 0.44683 0.92416 0.0
H2603 H 0.01703 0.44386 0.93094 0.0
H2604 H 0.03045 0.46123 0.92309 0.0
H2605 H 0.01201 0.40854 0.87182 0.0
H2606 H 0.00146 0.41099 0.85436 0.0
H2607 H 0.99445 0.40477 0.87748 0.0
C2608 C 0.58389 0.59716 0.9323 0.0
C2609 C 0.59015 0.61196 0.93354 0.0
C2610 C 0.57341 0.58938 0.91891 0.0
C2611 C 0.56897 0.59657 0.90658 0.0
C2612 C 0.57523 0.61152 0.90778 0.0
C2613 C 0.58585 0.61907 0.92118 0.0
C2614 C 0.56714 0.57347 0.91791 0.0
C2615 C 0.57063 0.61951 0.89502 0.0
C2616 C 0.55073 0.57653 0.8622 0.0
C2617 C 0.53635 0.56995 0.86733 0.0
C2618 C 0.56147 0.5856 0.87461 0.0
C2619 C 0.55774 0.58832 0.89251 0.0
C2620 C 0.54324 0.58225 0.89746 0.0
C2621 C 0.53272 0.57308 0.88486 0.0
C2622 C 0.57682 0.59183 0.86885 0.0
C2623 C 0.53884 0.585 0.91635 0.0
H2624 H 0.58736 0.59167 0.94167 0.0
H2625 H 0.59063 0.63051 0.92222 0.0
H2626 H 0.55551 0.56805 0.92038 0.0
H2627 H 0.56878 0.57037 0.90372 0.0
H2628 H 0.57191 0.56954 0.92834 0.0
H2629 H 0.57655 0.63113 0.89775 0.0
H2630 H 0.57226 0.61765 0.88019 0.0
H2631 H 0.55911 0.61553 0.89689 0.0
H2632 H 0.55363 0.57441 0.84854 0.0
H2633 H 0.52167 0.56795 0.88905 0.0
H2634 H 0.58202 0.5875 0.87792 0.0
H2635 H 0.58263 0.60353 0.87077 0.0
H2636 H 0.57793 0.58942 0.85403 0.0
H2637 H 0.54205 0.58007 0.92746 0.0
H2638 H 0.52718 0.58063 0.91734 0.0
H2639 H 0.5443 0.59658 0.91925 0.0
C2640 C 0.02269 0.60408 0.93556 0.0
C2641 C 0.01632 0.61215 0.93099 0.0
C2642 C 0.0234 0.59482 0.92249 0.0
C2643 C 0.01767 0.59364 0.90436 0.0
C2644 C 0.01179 0.6022 0.89938 0.0
C2645 C 0.01115 0.61132 0.91277 0.0
C2646 C 0.02979 0.58589 0.92833 0.0
C2647 C 0.00563 0.60128 0.88016 0.0
C2648 C 0.02756 0.57537 0.8667 0.0
C2649 C 0.01571 0.56161 0.86692 0.0
C2650 C 0.02829 0.586 0.87862 0.0
C2651 C 0.01694 0.58274 0.89111 0.0
C2652 C 0.00492 0.56888 0.89129 0.0
C2653 C 0.00445 0.5585 0.87918 0.0
C2654 C 0.04121 0.60069 0.87794 0.0
C2655 C 0.99264 0.56495 0.9045 0.0
H2656 H 0.02692 0.60484 0.94951 0.0
H2657 H 0.00608 0.6174 0.90917 0.0
H2658 H 0.02146 0.5745 0.92825 0.0
H2659 H 0.0381 0.5872 0.91821 0.0
H2660 H 0.03456 0.5887 0.94254 0.0
H2661 H 0.00262 0.60954 0.87796 0.0
H2662 H 0.01337 0.60244 0.86919 0.0
H2663 H 0.99602 0.59068 0.87825 0.0
H2664 H 0.03623 0.57785 0.8571 0.0
H2665 H 0.99536 0.54783 0.87959 0.0
H2666 H 0.0466 0.60341 0.89175 0.0
H2667 H 0.03798 0.60867 0.87497 0.0
H2668 H 0.04896 0.6016 0.8671 0.0
H2669 H 0.99641 0.56641 0.9192 0.0
H2670 H 0.98397 0.55378 0.90264 0.0
H2671 H 0.98822 0.57207 0.90227 0.0
C2672 C 0.38464 0.40422 0.9183 0.0
C2673 C 0.38428 0.40845 0.93677 0.0
C2674 C 0.39261 0.41425 0.90448 0.0
C2675 C 0.40042 0.42884 0.90928 0.0
C2676 C 0.39974 0.43321 0.92775 0.0
C2677 C 0.39167 0.42296 0.94127 0.0
C2678 C 0.39308 0.4092 0.88493 0.0
C2679 C 0.40789 0.44868 0.93337 0.0
C2680 C 0.4334 0.45276 0.88097 0.0
C2681 C 0.42861 0.45992 0.86945 0.0
C2682 C 0.4243 0.44258 0.89391 0.0
C2683 C 0.41003 0.43944 0.89533 0.0
C2684 C 0.40508 0.44654 0.88365 0.0
C2685 C 0.41446 0.45674 0.87087 0.0
C2686 C 0.43 0.4353 0.90621 0.0
C2687 C 0.38991 0.44337 0.8847 0.0
H2688 H 0.37908 0.39302 0.91477 0.0
H2689 H 0.39125 0.42629 0.95545 0.0
H2690 H 0.39049 0.41509 0.8745 0.0
H2691 H 0.40398 0.41136 0.88179 0.0
H2692 H 0.38557 0.39764 0.88312 0.0
H2693 H 0.4056 0.45038 0.948 0.0
H2694 H 0.41947 0.45275 0.93203 0.0
H2695 H 0.40525 0.45508 0.92388 0.0
H2696 H 0.44439 0.45534 0.88011 0.0
H2697 H 0.4107 0.46217 0.86186 0.0
H2698 H 0.42363 0.42362 0.90424 0.0
H2699 H 0.42905 0.43752 0.92115 0.0
H2700 H 0.44131 0.43884 0.90318 0.0
H2701 H 0.38252 0.43192 0.88199 0.0
H2702 H 0.38769 0.44968 0.87446 0.0
H2703 H 0.38759 0.4457 0.89898 0.0
C2704 C 0.58107 0.98135 0.9408 0.0
C2705 C 0.59404 0.98226 0.93622 0.0
C2706 C 0.57175 0.98073 0.92683 0.0
C2707 C 0.57542 0.98087 0.90778 0.0
C2708 C 0.58816 0.98109 0.90303 0.0
C2709 C 0.59735 0.98182 0.91732 0.0
C2710 C 0.55825 0.98049 0.93248 0.0
C2711 C 0.59235 0.98112 0.88286 0.0
C2712 C 0.54536 0.97049 0.8731 0.0
C2713 C 0.54746 0.98383 0.86783 0.0
C2714 C 0.55471 0.96934 0.88554 0.0
C2715 C 0.56635 0.98181 0.89297 0.0
C2716 C 0.5688 0.9953 0.88721 0.0
C2717 C 0.55937 0.99614 0.87465 0.0
C2718 C 0.55184 0.95477 0.89124 0.0
C2719 C 0.5811 0.00886 0.89482 0.0
H2720 H 0.57831 0.9814 0.95539 0.0
H2721 H 0.6074 0.98262 0.91366 0.0
H2722 H 0.55862 0.99035 0.9276 0.0
H2723 H 0.54893 0.97141 0.92573 0.0
H2724 H 0.5566 0.97967 0.94788 0.0
H2725 H 0.60182 0.97983 0.88154 0.0
H2726 H 0.58342 0.97244 0.87497 0.0
H2727 H 0.59477 0.99128 0.87617 0.0
H2728 H 0.53613 0.96092 0.86803 0.0
H2729 H 0.56122 0.00648 0.87034 0.0
H2730 H 0.54873 0.95293 0.90622 0.0
H2731 H 0.5616 0.95403 0.8897 0.0
H2732 H 0.54322 0.94619 0.88283 0.0
H2733 H 0.57982 0.00947 0.91015 0.0
H2734 H 0.58193 0.01848 0.88821 0.0
H2735 H 0.59123 0.00895 0.89252 0.0
C2736 C 0.60726 0.02787 0.08707 0.0
C2737 C 0.61452 0.02055 0.09095 0.0
C2738 C 0.59805 0.02853 0.10025 0.0
C2739 C 0.59612 0.02179 0.11781 0.0
C2740 C 0.60399 0.01504 0.12221 0.0
C2741 C 0.61308 0.01447 0.10871 0.0
C2742 C 0.58986 0.03585 0.09504 0.0
C2743 C 0.60228 0.00782 0.14084 0.0
C2744 C 0.57719 0.03036 0.15603 0.0
C2745 C 0.56329 0.01884 0.15448 0.0
C2746 C 0.58809 0.03138 0.14439 0.0
C2747 C 0.58494 0.0207 0.13081 0.0
C2748 C 0.57094 0.00903 0.12927 0.0
C2749 C 0.5603 0.00824 0.14115 0.0
C2750 C 0.60292 0.0439 0.14653 0.0
C2751 C 0.56713 0.99748 0.11487 0.0
H2752 H 0.60854 0.03282 0.0735 0.0
H2753 H 0.61855 0.00869 0.11177 0.0
H2754 H 0.57838 0.02788 0.09404 0.0
H2755 H 0.59107 0.04359 0.10604 0.0
H2756 H 0.59339 0.04152 0.08144 0.0
H2757 H 0.61028 0.00444 0.14287 0.0
H2758 H 0.60324 0.01501 0.15249 0.0
H2759 H 0.59153 0.99828 0.14173 0.0
H2760 H 0.57956 0.0385 0.16645 0.0
H2761 H 0.54953 0.99942 0.13974 0.0
H2762 H 0.6063 0.05008 0.13333 0.0
H2763 H 0.61051 0.04012 0.14928 0.0
H2764 H 0.60369 0.05109 0.1581 0.0
H2765 H 0.56927 0.00212 0.1006 0.0
H2766 H 0.55578 0.98902 0.11569 0.0
H2767 H 0.57382 0.99255 0.11681 0.0
C2768 C 0.98194 0.60009 0.10497 0.0
C2769 C 0.97809 0.59601 0.08627 0.0
C2770 C 0.98174 0.59047 0.11818 0.0
C2771 C 0.97755 0.57643 0.11257 0.0
C2772 C 0.97299 0.57204 0.09395 0.0
C2773 C 0.97333 0.58189 0.08102 0.0
C2774 C 0.98661 0.59552 0.13793 0.0
C2775 C 0.96841 0.55714 0.08744 0.0
C2776 C 0.99328 0.557 0.13806 0.0
C2777 C 0.98198 0.54767 0.14957 0.0
C2778 C 0.99201 0.56652 0.12615 0.0
C2779 C 0.97908 0.56668 0.12566 0.0
C2780 C 0.96765 0.55738 0.13732 0.0
C2781 C 0.96924 0.54798 0.14916 0.0
C2782 C 0.00444 0.57627 0.11389 0.0
C2783 C 0.95373 0.55728 0.13718 0.0
H2784 H 0.98541 0.61093 0.10918 0.0
H2785 H 0.97049 0.57868 0.06657 0.0
H2786 H 0.97871 0.58809 0.14817 0.0
H2787 H 0.99674 0.5957 0.14062 0.0
H2788 H 0.98831 0.60634 0.14049 0.0
H2789 H 0.96395 0.55504 0.07305 0.0
H2790 H 0.97767 0.55547 0.0876 0.0
H2791 H 0.96032 0.54923 0.09709 0.0
H2792 H 0.00307 0.55667 0.13807 0.0
H2793 H 0.96052 0.54091 0.15819 0.0
H2794 H 0.00751 0.5875 0.11658 0.0
H2795 H 0.00138 0.57404 0.09893 0.0
H2796 H 0.01386 0.57505 0.11628 0.0
H2797 H 0.95556 0.56803 0.14054 0.0
H2798 H 0.94598 0.54959 0.14737 0.0
H2799 H 0.94897 0.5545 0.12299 0.0
C2800 C 0.40591 0.39042 0.10235 0.0
C2801 C 0.40887 0.38556 0.08565 0.0
C2802 C 0.4168 0.39919 0.11476 0.0
C2803 C 0.43105 0.40348 0.11022 0.0
C2804 C 0.43414 0.39847 0.09358 0.0
C2805 C 0.423 0.38947 0.08158 0.0
C2806 C 0.41307 0.40421 0.13249 0.0
C2807 C 0.44923 0.40293 0.08819 0.0
C2808 C 0.45897 0.43834 0.13162 0.0
C2809 C 0.46414 0.43368 0.14629 0.0
C2810 C 0.44843 0.42861 0.11953 0.0
C2811 C 0.44276 0.41386 0.12238 0.0
C2812 C 0.44801 0.4091 0.13713 0.0
C2813 C 0.45876 0.41909 0.14884 0.0
C2814 C 0.44328 0.43411 0.10377 0.0
C2815 C 0.44206 0.39346 0.14079 0.0
H2816 H 0.3951 0.38771 0.10552 0.0
H2817 H 0.4254 0.3856 0.0689 0.0
H2818 H 0.4179 0.40205 0.14479 0.0
H2819 H 0.41747 0.41586 0.13185 0.0
H2820 H 0.40141 0.39899 0.13471 0.0
H2821 H 0.4498 0.39768 0.07512 0.0
H2822 H 0.45538 0.41461 0.08612 0.0
H2823 H 0.45447 0.40036 0.0996 0.0
H2824 H 0.46326 0.44964 0.12956 0.0
H2825 H 0.46271 0.41552 0.16028 0.0
H2826 H 0.43184 0.43048 0.10571 0.0
H2827 H 0.44438 0.42978 0.09019 0.0
H2828 H 0.44922 0.4459 0.10298 0.0
H2829 H 0.43058 0.38839 0.14417 0.0
H2830 H 0.44754 0.39151 0.15255 0.0
H2831 H 0.44302 0.38815 0.12806 0.0
C2832 C 0.64643 0.71862 0.43615 0.0
C2833 C 0.64172 0.71827 0.41777 0.0
C2834 C 0.64425 0.72638 0.45018 0.0
C2835 C 0.63727 0.73402 0.44569 0.0
C2836 C 0.632 0.73324 0.42737 0.0
C2837 C 0.63426 0.72534 0.41365 0.0
C2838 C 0.64997 0.72691 0.4696 0.0
C2839 C 0.62449 0.74121 0.42204 0.0
C2840 C 0.62368 0.7484 0.48411 0.0
C2841 C 0.63464 0.76261 0.48511 0.0
C2842 C 0.62448 0.73886 0.47158 0.0
C2843 C 0.63646 0.74371 0.45969 0.0
C2844 C 0.64758 0.75802 0.46076 0.0
C2845 C 0.64655 0.76728 0.47349 0.0
C2846 C 0.61249 0.72364 0.47094 0.0
C2847 C 0.66048 0.76363 0.44821 0.0
H2848 H 0.65233 0.7133 0.4394 0.0
H2849 H 0.63039 0.7249 0.39955 0.0
H2850 H 0.65887 0.73779 0.47251 0.0
H2851 H 0.64163 0.72451 0.48025 0.0
H2852 H 0.65388 0.71931 0.47129 0.0
H2853 H 0.62023 0.73875 0.40755 0.0
H2854 H 0.61559 0.7386 0.43184 0.0
H2855 H 0.63199 0.75281 0.42312 0.0
H2856 H 0.61452 0.74474 0.49321 0.0
H2857 H 0.65495 0.7783 0.47405 0.0
H2858 H 0.61667 0.71633 0.47338 0.0
H2859 H 0.60753 0.72117 0.45686 0.0
H2860 H 0.60416 0.72144 0.48154 0.0
H2861 H 0.66579 0.75728 0.4501 0.0
H2862 H 0.66832 0.77497 0.45107 0.0
H2863 H 0.65717 0.76258 0.43334 0.0
C2864 C 0.25947 0.91747 0.42104 0.0
C2865 C 0.27434 0.92533 0.4206 0.0
C2866 C 0.25229 0.90722 0.43493 0.0
C2867 C 0.2602 0.90461 0.44846 0.0
C2868 C 0.27524 0.9125 0.44804 0.0
C2869 C 0.28214 0.92289 0.43419 0.0
C2870 C 0.23625 0.89922 0.43512 0.0
C2871 C 0.28401 0.90981 0.46203 0.0
C2872 C 0.24066 0.88636 0.49308 0.0
C2873 C 0.23583 0.87203 0.48893 0.0
C2874 C 0.24888 0.89713 0.48022 0.0
C2875 C 0.25264 0.89352 0.46294 0.0
C2876 C 0.24839 0.87918 0.459 0.0
C2877 C 0.23993 0.8686 0.47196 0.0
C2878 C 0.25312 0.9123 0.48484 0.0
C2879 C 0.25237 0.87495 0.44082 0.0
H2880 H 0.25346 0.91947 0.41062 0.0
H2881 H 0.29365 0.92893 0.43372 0.0
H2882 H 0.23218 0.88768 0.43326 0.0
H2883 H 0.23233 0.90062 0.44886 0.0
H2884 H 0.23171 0.90282 0.42392 0.0
H2885 H 0.2956 0.91687 0.45979 0.0
H2886 H 0.28134 0.91146 0.47647 0.0
H2887 H 0.28148 0.8986 0.46101 0.0
H2888 H 0.23783 0.88917 0.50632 0.0
H2889 H 0.23614 0.85757 0.46847 0.0
H2890 H 0.24809 0.91618 0.47474 0.0
H2891 H 0.26478 0.91928 0.48351 0.0
H2892 H 0.24989 0.91341 0.49923 0.0
H2893 H 0.24693 0.87685 0.42901 0.0
H2894 H 0.2494 0.86358 0.44067 0.0
H2895 H 0.26397 0.88155 0.43834 0.0
C2896 C 0.08418 0.35293 0.4179 0.0
C2897 C 0.07205 0.35367 0.42267 0.0
C2898 C 0.09432 0.35488 0.43142 0.0
C2899 C 0.09223 0.35749 0.45025 0.0
C2900 C 0.08005 0.35828 0.4552 0.0
C2901 C 0.0701 0.35639 0.44133 0.0
C2902 C 0.10717 0.35394 0.42556 0.0
C2903 C 0.07747 0.36099 0.47517 0.0
C2904 C 0.1122 0.34788 0.48517 0.0
C2905 C 0.12441 0.36109 0.48832 0.0
C2906 C 0.10129 0.34666 0.47352 0.0
C2907 C 0.10269 0.35894 0.46471 0.0
C2908 C 0.11471 0.3724 0.46849 0.0
C2909 C 0.12543 0.37332 0.48033 0.0
C2910 C 0.08855 0.33215 0.47001 0.0
C2911 C 0.11661 0.38572 0.45927 0.0
H2912 H 0.08564 0.35055 0.40361 0.0
H2913 H 0.06083 0.35711 0.44509 0.0
H2914 H 0.11704 0.36378 0.42963 0.0
H2915 H 0.10718 0.34496 0.43289 0.0
H2916 H 0.10746 0.35236 0.41023 0.0
H2917 H 0.0676 0.36155 0.47666 0.0
H2918 H 0.07666 0.35241 0.48435 0.0
H2919 H 0.08657 0.37111 0.48027 0.0
H2920 H 0.1113 0.33844 0.49158 0.0
H2921 H 0.1349 0.38353 0.48267 0.0
H2922 H 0.08861 0.32901 0.45523 0.0
H2923 H 0.07858 0.33237 0.47224 0.0
H2924 H 0.08846 0.3239 0.47925 0.0
H2925 H 0.11826 0.38525 0.44401 0.0
H2926 H 0.12584 0.39547 0.46503 0.0
H2927 H 0.10692 0.38653 0.46108 0.0
C2928 C 0.04255 0.29506 0.2594 0.0
C2929 C 0.0476 0.30918 0.26496 0.0
C2930 C 0.05024 0.29163 0.24668 0.0
C2931 C 0.06327 0.30257 0.23942 0.0
C2932 C 0.06816 0.31688 0.24448 0.0
C2933 C 0.06028 0.32 0.2572 0.0
C2934 C 0.04466 0.27627 0.2415 0.0
C2935 C 0.08203 0.32886 0.23708 0.0
C2936 C 0.09273 0.29556 0.2253 0.0
C2937 C 0.09236 0.29621 0.20573 0.0
C2938 C 0.08289 0.29698 0.2364 0.0
C2939 C 0.07243 0.29911 0.22771 0.0
C2940 C 0.07157 0.2991 0.20793 0.0
C2941 C 0.08157 0.29764 0.19714 0.0
C2942 C 0.08411 0.29684 0.25746 0.0
C2943 C 0.06054 0.30132 0.19818 0.0
H2944 H 0.03266 0.28667 0.26516 0.0
H2945 H 0.06436 0.3309 0.26161 0.0
H2946 H 0.04446 0.27505 0.22606 0.0
H2947 H 0.05185 0.27271 0.24715 0.0
H2948 H 0.0338 0.26918 0.24707 0.0
H2949 H 0.08383 0.33946 0.24137 0.0
H2950 H 0.09097 0.32769 0.24235 0.0
H2951 H 0.08224 0.32844 0.22157 0.0
H2952 H 0.10093 0.29422 0.23195 0.0
H2953 H 0.08131 0.29823 0.18201 0.0
H2954 H 0.07371 0.28912 0.26371 0.0
H2955 H 0.08713 0.30748 0.26317 0.0
H2956 H 0.09216 0.29404 0.26198 0.0
H2957 H 0.04983 0.29411 0.20403 0.0
H2958 H 0.0603 0.29949 0.18284 0.0
H2959 H 0.06288 0.31237 0.20059 0.0
C2960 C 0.69067 0.73771 0.24364 0.0
C2961 C 0.69394 0.74136 0.26257 0.0
C2962 C 0.69273 0.74801 0.23027 0.0
C2963 C 0.69822 0.76229 0.23596 0.0
C2964 C 0.70222 0.76617 0.25485 0.0
C2965 C 0.69998 0.75565 0.26793 0.0
C2966 C 0.68838 0.74348 0.21023 0.0
C2967 C 0.70816 0.7813 0.26145 0.0
C2968 C 0.71099 0.79166 0.19959 0.0
C2969 C 0.6992 0.79359 0.1982 0.0
C2970 C 0.71081 0.78141 0.21169 0.0
C2971 C 0.69856 0.77291 0.22261 0.0
C2972 C 0.6866 0.77474 0.22115 0.0
C2973 C 0.68708 0.78507 0.20901 0.0
C2974 C 0.72375 0.77975 0.2129 0.0
C2975 C 0.67334 0.76589 0.23259 0.0
H2976 H 0.68622 0.72673 0.23934 0.0
H2977 H 0.70238 0.75856 0.28255 0.0
H2978 H 0.67906 0.74459 0.20671 0.0
H2979 H 0.69709 0.75043 0.20053 0.0
H2980 H 0.68554 0.73227 0.20773 0.0
H2981 H 0.71204 0.78282 0.27612 0.0
H2982 H 0.71705 0.7887 0.25229 0.0
H2983 H 0.6998 0.78427 0.26059 0.0
H2984 H 0.72032 0.79811 0.19112 0.0
H2985 H 0.67803 0.78666 0.20826 0.0
H2986 H 0.72083 0.76865 0.20953 0.0
H2987 H 0.72796 0.78193 0.2274 0.0
H2988 H 0.73234 0.78702 0.20322 0.0
H2989 H 0.66916 0.75443 0.22984 0.0
H2990 H 0.66484 0.7684 0.22947 0.0
H2991 H 0.67589 0.76773 0.24773 0.0
C2992 C 0.24764 0.93334 0.26182 0.0
C2993 C 0.25305 0.94789 0.26499 0.0
C2994 C 0.23745 0.92606 0.24792 0.0
C2995 C 0.23252 0.9335 0.23687 0.0
C2996 C 0.23802 0.94821 0.23986 0.0
C2997 C 0.24826 0.95526 0.25387 0.0
C2998 C 0.23193 0.91038 0.24508 0.0
C2999 C 0.23296 0.95646 0.22839 0.0
C3000 C 0.21501 0.91516 0.1913 0.0
C3001 C 0.20061 0.90773 0.1964 0.0
C3002 C 0.2255 0.92411 0.20408 0.0
C3003 C 0.22148 0.92569 0.22239 0.0
C3004 C 0.20692 0.91876 0.22734 0.0
C3005 C 0.19666 0.90984 0.2143 0.0
C3006 C 0.24091 0.93137 0.19826 0.0
C3007 C 0.20221 0.9202 0.24673 0.0
H3008 H 0.25149 0.92765 0.27014 0.0
H3009 H 0.25235 0.96648 0.25636 0.0
H3010 H 0.22027 0.90432 0.24737 0.0
H3011 H 0.23391 0.90836 0.23047 0.0
H3012 H 0.23697 0.90621 0.25473 0.0
H3013 H 0.23852 0.96791 0.23217 0.0
H3014 H 0.23467 0.95547 0.21328 0.0
H3015 H 0.22138 0.95198 0.23048 0.0
H3016 H 0.21811 0.91375 0.17738 0.0
H3017 H 0.18558 0.90403 0.21843 0.0
H3018 H 0.24645 0.92686 0.20625 0.0
H3019 H 0.24626 0.94288 0.20155 0.0
H3020 H 0.24218 0.93007 0.18307 0.0
H3021 H 0.20574 0.91499 0.25704 0.0
H3022 H 0.19049 0.91527 0.24777 0.0
H3023 H 0.20719 0.93156 0.25072 0.0
C3024 C 0.702 0.94338 0.2693 0.0
C3025 C 0.69308 0.94891 0.26542 0.0
C3026 C 0.70393 0.93485 0.2562 0.0
C3027 C 0.69691 0.93194 0.23871 0.0
C3028 C 0.6884 0.938 0.23438 0.0
C3029 C 0.6865 0.94632 0.24782 0.0
C3030 C 0.71304 0.92853 0.26137 0.0
C3031 C 0.68084 0.93523 0.2158 0.0
C3032 C 0.70891 0.91666 0.19949 0.0
C3033 C 0.69858 0.90221 0.20039 0.0
C3034 C 0.7085 0.92652 0.21183 0.0
C3035 C 0.69762 0.92174 0.22551 0.0
C3036 C 0.68727 0.90713 0.22657 0.0
C3037 C 0.68783 0.89756 0.21392 0.0
C3038 C 0.71959 0.94204 0.21013 0.0
C3039 C 0.67562 0.90158 0.24112 0.0
H3040 H 0.70733 0.94553 0.28271 0.0
H3041 H 0.67943 0.95036 0.24474 0.0
H3042 H 0.70636 0.91679 0.26207 0.0
H3043 H 0.72124 0.93104 0.25048 0.0
H3044 H 0.71841 0.93248 0.27509 0.0
H3045 H 0.67573 0.94179 0.21392 0.0
H3046 H 0.68841 0.93748 0.20411 0.0
H3047 H 0.67253 0.92386 0.2148 0.0
H3048 H 0.71717 0.92026 0.18893 0.0
H3049 H 0.67996 0.88636 0.21478 0.0
H3050 H 0.72545 0.94596 0.22351 0.0
H3051 H 0.71437 0.94837 0.20728 0.0
H3052 H 0.72735 0.94401 0.19876 0.0
H3053 H 0.68032 0.90434 0.25535 0.0
H3054 H 0.66855 0.88988 0.24027 0.0
H3055 H 0.66906 0.90668 0.23933 0.0
C3056 C 0.04597 0.75338 0.26182 0.0
C3057 C 0.0525 0.74676 0.27098 0.0
C3058 C 0.05316 0.76359 0.24783 0.0
C3059 C 0.06724 0.76734 0.24302 0.0
C3060 C 0.07387 0.76068 0.25217 0.0
C3061 C 0.0664 0.75042 0.26593 0.0
C3062 C 0.04572 0.77042 0.23826 0.0
C3063 C 0.08889 0.76441 0.24747 0.0
C3064 C 0.08395 0.78441 0.19654 0.0
C3065 C 0.09276 0.79864 0.2018 0.0
C3066 C 0.0751 0.77419 0.20966 0.0
C3067 C 0.07519 0.7783 0.22851 0.0
C3068 C 0.08373 0.79273 0.23376 0.0
C3069 C 0.09237 0.80274 0.2203 0.0
C3070 C 0.066 0.75893 0.20349 0.0
C3071 C 0.08422 0.79749 0.25375 0.0
H3072 H 0.03529 0.75072 0.26574 0.0
H3073 H 0.07144 0.74515 0.27261 0.0
H3074 H 0.05164 0.78205 0.24079 0.0
H3075 H 0.04554 0.76878 0.2229 0.0
H3076 H 0.03463 0.76606 0.24327 0.0
H3077 H 0.09257 0.75838 0.25606 0.0
H3078 H 0.08962 0.76217 0.23248 0.0
H3079 H 0.09625 0.77593 0.24973 0.0
H3080 H 0.08412 0.78125 0.18218 0.0
H3081 H 0.09927 0.81371 0.22445 0.0
H3082 H 0.05483 0.75475 0.20797 0.0
H3083 H 0.06981 0.75229 0.21025 0.0
H3084 H 0.06623 0.75771 0.18806 0.0
H3085 H 0.07332 0.79384 0.259 0.0
H3086 H 0.09062 0.80923 0.25526 0.0
H3087 H 0.08891 0.79264 0.26281 0.0
C3088 C 0.24656 0.30294 0.27193 0.0
C3089 C 0.26018 0.30638 0.26589 0.0
C3090 C 0.23594 0.30071 0.25904 0.0
C3091 C 0.23898 0.30184 0.23963 0.0
C3092 C 0.25252 0.30467 0.23341 0.0
C3093 C 0.263 0.307 0.24664 0.0
C3094 C 0.22168 0.29785 0.26623 0.0
C3095 C 0.25608 0.30575 0.21283 0.0
C3096 C 0.20705 0.28769 0.20723 0.0
C3097 C 0.20675 0.30013 0.20306 0.0
C3098 C 0.21779 0.28811 0.21858 0.0
C3099 C 0.22838 0.30126 0.22604 0.0
C3100 C 0.22838 0.3139 0.22139 0.0
C3101 C 0.21763 0.31319 0.20988 0.0
C3102 C 0.21755 0.27444 0.22308 0.0
C3103 C 0.23948 0.32815 0.22907 0.0
H3104 H 0.24439 0.30262 0.28679 0.0
H3105 H 0.27349 0.30952 0.24195 0.0
H3106 H 0.22012 0.30689 0.2626 0.0
H3107 H 0.21299 0.28822 0.25947 0.0
H3108 H 0.2207 0.29636 0.28166 0.0
H3109 H 0.26653 0.30655 0.21028 0.0
H3110 H 0.24777 0.29636 0.2052 0.0
H3111 H 0.25635 0.31528 0.20684 0.0
H3112 H 0.19864 0.27754 0.20212 0.0
H3113 H 0.21766 0.32289 0.20636 0.0
H3114 H 0.21519 0.27197 0.23817 0.0
H3115 H 0.22811 0.27558 0.22035 0.0
H3116 H 0.20943 0.26533 0.21479 0.0
H3117 H 0.23872 0.3281 0.24457 0.0
H3118 H 0.23826 0.33703 0.22358 0.0
H3119 H 0.25027 0.33021 0.22551 0.0
C3120 C 0.289 0.36464 0.43201 0.0
C3121 C 0.28476 0.36328 0.41322 0.0
C3122 C 0.28129 0.36677 0.44617 0.0
C3123 C 0.26904 0.36749 0.4414 0.0
C3124 C 0.26517 0.36687 0.42236 0.0
C3125 C 0.2731 0.36481 0.40851 0.0
C3126 C 0.28581 0.3675 0.4663 0.0
C3127 C 0.25221 0.36764 0.41669 0.0
C3128 C 0.23832 0.35427 0.47549 0.0
C3129 C 0.23937 0.36699 0.48171 0.0
C3130 C 0.24819 0.35433 0.46282 0.0
C3131 C 0.25945 0.36745 0.45627 0.0
C3132 C 0.26093 0.38035 0.46308 0.0
C3133 C 0.25084 0.37997 0.47572 0.0
C3134 C 0.24627 0.34033 0.45596 0.0
C3135 C 0.27287 0.39454 0.4565 0.0
H3136 H 0.29794 0.36337 0.43578 0.0
H3137 H 0.26994 0.36404 0.39397 0.0
H3138 H 0.28596 0.37658 0.4736 0.0
H3139 H 0.27803 0.35767 0.47371 0.0
H3140 H 0.29648 0.36857 0.4675 0.0
H3141 H 0.2513 0.36814 0.40125 0.0
H3142 H 0.2425 0.35813 0.42196 0.0
H3143 H 0.25251 0.37711 0.42303 0.0
H3144 H 0.22964 0.34421 0.48037 0.0
H3145 H 0.25166 0.38984 0.4804 0.0
H3146 H 0.25614 0.33992 0.45825 0.0
H3147 H 0.24415 0.33929 0.44067 0.0
H3148 H 0.23735 0.33109 0.46309 0.0
H3149 H 0.28322 0.39495 0.4579 0.0
H3150 H 0.27333 0.40354 0.46446 0.0
H3151 H 0.27141 0.39596 0.44145 0.0
C3152 C 0.63503 0.91943 0.4286 0.0
C3153 C 0.64666 0.92386 0.41651 0.0
C3154 C 0.63199 0.90903 0.44227 0.0
C3155 C 0.64091 0.9031 0.444 0.0
C3156 C 0.65276 0.90766 0.43196 0.0
C3157 C 0.65544 0.91794 0.41829 0.0
C3158 C 0.61916 0.90429 0.45472 0.0
C3159 C 0.66262 0.90171 0.43353 0.0
C3160 C 0.6419 0.88531 0.48915 0.0
C3161 C 0.63415 0.87088 0.48423 0.0
C3162 C 0.6439 0.89592 0.47635 0.0
C3163 C 0.63785 0.892 0.45827 0.0
C3164 C 0.62955 0.87746 0.45345 0.0
C3165 C 0.62787 0.86708 0.46644 0.0
C3166 C 0.65286 0.91133 0.48198 0.0
C3167 C 0.62283 0.87287 0.43434 0.0
H3168 H 0.62817 0.92393 0.42713 0.0
H3169 H 0.66455 0.9215 0.40912 0.0
H3170 H 0.61177 0.89272 0.45288 0.0
H3171 H 0.62245 0.90605 0.46963 0.0
H3172 H 0.61335 0.91002 0.45165 0.0
H3173 H 0.67151 0.90659 0.42331 0.0
H3174 H 0.66714 0.90353 0.44786 0.0
H3175 H 0.65662 0.89006 0.43116 0.0
H3176 H 0.64657 0.88834 0.50298 0.0
H3177 H 0.62201 0.85598 0.4624 0.0
H3178 H 0.64688 0.91699 0.47976 0.0
H3179 H 0.66249 0.91658 0.47304 0.0
H3180 H 0.65623 0.91259 0.49686 0.0
H3181 H 0.61656 0.87806 0.43101 0.0
H3182 H 0.61576 0.86117 0.43332 0.0
H3183 H 0.63125 0.87625 0.42353 0.0
C3184 C 0.09012 0.72795 0.41762 0.0
C3185 C 0.07568 0.72066 0.4225 0.0
C3186 C 0.10066 0.7355 0.43107 0.0
C3187 C 0.09666 0.73572 0.44988 0.0
C3188 C 0.08215 0.72791 0.45506 0.0
C3189 C 0.07183 0.7205 0.4413 0.0
C3190 C 0.11602 0.74367 0.425 0.0
C3191 C 0.07749 0.72786 0.47499 0.0
C3192 C 0.12536 0.74892 0.48728 0.0
C3193 C 0.12857 0.76303 0.48953 0.0
C3194 C 0.11488 0.73981 0.47456 0.0
C3195 C 0.10755 0.745 0.46378 0.0
C3196 C 0.11075 0.75924 0.46602 0.0
C3197 C 0.1212 0.76806 0.47887 0.0
C3198 C 0.11167 0.72466 0.47261 0.0
C3199 C 0.10324 0.76521 0.45468 0.0
H3200 H 0.09319 0.72789 0.40319 0.0
H3201 H 0.06069 0.715 0.44516 0.0
H3202 H 0.12019 0.75523 0.42685 0.0
H3203 H 0.12255 0.74079 0.43387 0.0
H3204 H 0.11743 0.74166 0.41012 0.0
H3205 H 0.06598 0.72026 0.47705 0.0
H3206 H 0.08362 0.72507 0.48476 0.0
H3207 H 0.07966 0.73866 0.47884 0.0
H3208 H 0.13096 0.74497 0.49561 0.0
H3209 H 0.1238 0.77903 0.48034 0.0
H3210 H 0.1137 0.72265 0.45801 0.0
H3211 H 0.10027 0.71723 0.47559 0.0
H3212 H 0.11818 0.72222 0.48221 0.0
H3213 H 0.10513 0.76456 0.43954 0.0
H3214 H 0.10687 0.77646 0.45828 0.0
H3215 H 0.09161 0.75882 0.45705 0.0
C3216 C 0.31474 0.05495 0.76949 0.0
C3217 C 0.30869 0.0526 0.7516 0.0
C3218 C 0.31231 0.06296 0.78284 0.0
C3219 C 0.30375 0.06889 0.77809 0.0
C3220 C 0.29716 0.06608 0.76029 0.0
C3221 C 0.29966 0.0579 0.74727 0.0
C3222 C 0.31937 0.06556 0.80176 0.0
C3223 C 0.28805 0.07231 0.75465 0.0
C3224 C 0.29103 0.08391 0.81678 0.0
C3225 C 0.30136 0.09837 0.81613 0.0
C3226 C 0.29163 0.07414 0.80447 0.0
C3227 C 0.30272 0.07901 0.7911 0.0
C3228 C 0.31306 0.09363 0.79025 0.0
C3229 C 0.31228 0.10312 0.80283 0.0
C3230 C 0.28051 0.05861 0.80589 0.0
C3231 C 0.32496 0.09927 0.77606 0.0
H3232 H 0.32159 0.0507 0.77293 0.0
H3233 H 0.29506 0.05619 0.73339 0.0
H3234 H 0.32753 0.07696 0.80315 0.0
H3235 H 0.31147 0.06305 0.81309 0.0
H3236 H 0.32457 0.05912 0.80388 0.0
H3237 H 0.28275 0.06816 0.74094 0.0
H3238 H 0.2798 0.06997 0.76541 0.0
H3239 H 0.29474 0.08404 0.75366 0.0
H3240 H 0.28263 0.08022 0.82715 0.0
H3241 H 0.32016 0.11433 0.80213 0.0
H3242 H 0.28567 0.05228 0.80911 0.0
H3243 H 0.27497 0.05473 0.79228 0.0
H3244 H 0.27248 0.05657 0.81689 0.0
H3245 H 0.33155 0.09424 0.77822 0.0
H3246 H 0.33195 0.11098 0.77699 0.0
H3247 H 0.32052 0.0965 0.7617 0.0
C3248 C 0.94227 0.24107 0.74901 0.0
C3249 C 0.95176 0.25525 0.75392 0.0
C3250 C 0.93411 0.23096 0.76262 0.0
C3251 C 0.93534 0.23514 0.78161 0.0
C3252 C 0.94517 0.24932 0.78677 0.0
C3253 C 0.95331 0.25919 0.77287 0.0
C3254 C 0.92377 0.21592 0.75657 0.0
C3255 C 0.94674 0.25418 0.80689 0.0
C3256 C 0.90262 0.21351 0.81151 0.0
C3257 C 0.90621 0.20458 0.82129 0.0
C3258 C 0.91215 0.2237 0.79891 0.0
C3259 C 0.92556 0.22492 0.7958 0.0
C3260 C 0.92934 0.21605 0.8057 0.0
C3261 C 0.91963 0.20601 0.81839 0.0
C3262 C 0.90773 0.233 0.78864 0.0
C3263 C 0.94353 0.21702 0.80267 0.0
H3264 H 0.94082 0.23794 0.7344 0.0
H3265 H 0.96077 0.27007 0.77683 0.0
H3266 H 0.92532 0.20826 0.76502 0.0
H3267 H 0.91273 0.21358 0.759 0.0
H3268 H 0.92494 0.2141 0.74152 0.0
H3269 H 0.95553 0.26529 0.80876 0.0
H3270 H 0.93671 0.25347 0.81172 0.0
H3271 H 0.94874 0.24714 0.81603 0.0
H3272 H 0.89219 0.21232 0.81338 0.0
H3273 H 0.92256 0.19927 0.82605 0.0
H3274 H 0.90724 0.23089 0.77338 0.0
H3275 H 0.91571 0.24437 0.79083 0.0
H3276 H 0.89719 0.23116 0.79329 0.0
H3277 H 0.94447 0.21446 0.78787 0.0
H3278 H 0.94501 0.20965 0.81188 0.0
H3279 H 0.95227 0.22802 0.80533 0.0
C3280 C 0.73983 0.67834 0.75893 0.0
C3281 C 0.73805 0.6892 0.75125 0.0
C3282 C 0.75078 0.68138 0.77166 0.0
C3283 C 0.76027 0.69566 0.77677 0.0
C3284 C 0.75835 0.70667 0.76948 0.0
C3285 C 0.74724 0.7033 0.75681 0.0
C3286 C 0.75248 0.66934 0.77913 0.0
C3287 C 0.76826 0.72201 0.77465 0.0
C3288 C 0.78301 0.70088 0.81964 0.0
C3289 C 0.79538 0.70234 0.81142 0.0
C3290 C 0.77162 0.69919 0.80853 0.0
C3291 C 0.77272 0.69904 0.78878 0.0
C3292 C 0.78543 0.70112 0.78044 0.0
C3293 C 0.79659 0.70271 0.79186 0.0
C3294 C 0.75822 0.69697 0.81792 0.0
C3295 C 0.78706 0.70114 0.75943 0.0
H3296 H 0.73293 0.66744 0.7545 0.0
H3297 H 0.74582 0.71174 0.75113 0.0
H3298 H 0.76263 0.67047 0.77404 0.0
H3299 H 0.75293 0.66972 0.79465 0.0
H3300 H 0.74366 0.65877 0.77473 0.0
H3301 H 0.76478 0.7292 0.76873 0.0
H3302 H 0.76898 0.72327 0.79009 0.0
H3303 H 0.7791 0.7254 0.7694 0.0
H3304 H 0.78202 0.7005 0.83477 0.0
H3305 H 0.80624 0.70406 0.78548 0.0
H3306 H 0.74946 0.68598 0.81521 0.0
H3307 H 0.75494 0.70431 0.812 0.0
H3308 H 0.75952 0.69864 0.8333 0.0
H3309 H 0.77943 0.6905 0.75372 0.0
H3310 H 0.79796 0.70385 0.75518 0.0
H3311 H 0.78456 0.70888 0.75292 0.0
C3312 C 0.71029 0.64041 0.57697 0.0
C3313 C 0.71272 0.6395 0.59605 0.0
C3314 C 0.71852 0.63866 0.56321 0.0
C3315 C 0.72954 0.63612 0.56872 0.0
C3316 C 0.73173 0.63473 0.58796 0.0
C3317 C 0.72325 0.63639 0.60138 0.0
C3318 C 0.71574 0.64 0.54283 0.0
C3319 C 0.74346 0.63216 0.59441 0.0
C3320 C 0.74749 0.62312 0.53476 0.0
C3321 C 0.76008 0.6358 0.53064 0.0
C3322 C 0.73715 0.6231 0.54659 0.0
C3323 C 0.73954 0.63603 0.55459 0.0
C3324 C 0.752 0.6489 0.54997 0.0
C3325 C 0.76206 0.64864 0.53797 0.0
C3326 C 0.72392 0.60919 0.55105 0.0
C3327 C 0.75494 0.66293 0.55821 0.0
H3328 H 0.70205 0.64268 0.57281 0.0
H3329 H 0.72528 0.63584 0.61613 0.0
H3330 H 0.72485 0.64972 0.53687 0.0
H3331 H 0.71474 0.63082 0.53475 0.0
H3332 H 0.70594 0.64061 0.54081 0.0
H3333 H 0.7432 0.63049 0.60978 0.0
H3334 H 0.74264 0.62273 0.58724 0.0
H3335 H 0.75392 0.64142 0.59066 0.0
H3336 H 0.74592 0.61315 0.52925 0.0
H3337 H 0.77161 0.65851 0.53452 0.0
H3338 H 0.71432 0.61011 0.54889 0.0
H3339 H 0.72406 0.60651 0.566 0.0
H3340 H 0.72301 0.60031 0.54231 0.0
H3341 H 0.74598 0.66475 0.55525 0.0
H3342 H 0.76487 0.67204 0.55262 0.0
H3343 H 0.75591 0.66269 0.57366 0.0
C3344 C 0.35153 0.07112 0.57691 0.0
C3345 C 0.3576 0.07499 0.59478 0.0
C3346 C 0.35409 0.08146 0.56339 0.0
C3347 C 0.36278 0.09601 0.56797 0.0
C3348 C 0.36939 0.09995 0.58575 0.0
C3349 C 0.36677 0.08937 0.59893 0.0
C3350 C 0.34702 0.07685 0.54449 0.0
C3351 C 0.37862 0.11536 0.59121 0.0
C3352 C 0.37576 0.12376 0.52935 0.0
C3353 C 0.36556 0.12801 0.53007 0.0
C3354 C 0.37499 0.11327 0.54154 0.0
C3355 C 0.36386 0.10709 0.55486 0.0
C3356 C 0.35362 0.11147 0.55572 0.0
C3357 C 0.35456 0.12183 0.54326 0.0
C3358 C 0.38599 0.10874 0.54009 0.0
C3359 C 0.34169 0.10525 0.56988 0.0
H3360 H 0.34456 0.05998 0.57364 0.0
H3361 H 0.37138 0.09238 0.6128 0.0
H3362 H 0.33885 0.08004 0.54305 0.0
H3363 H 0.3549 0.08217 0.53314 0.0
H3364 H 0.3418 0.06516 0.54248 0.0
H3365 H 0.38393 0.11661 0.60492 0.0
H3366 H 0.38686 0.12115 0.58041 0.0
H3367 H 0.37201 0.12047 0.59212 0.0
H3368 H 0.38422 0.12849 0.51907 0.0
H3369 H 0.34679 0.12526 0.54401 0.0
H3370 H 0.38072 0.09719 0.5371 0.0
H3371 H 0.39164 0.11058 0.55363 0.0
H3372 H 0.39394 0.11456 0.52894 0.0
H3373 H 0.33508 0.09361 0.56779 0.0
H3374 H 0.33472 0.10997 0.56887 0.0
H3375 H 0.34611 0.10702 0.58426 0.0
C3376 C 0.9203 0.26115 0.59345 0.0
C3377 C 0.9242 0.27502 0.599 0.0
C3378 C 0.9097 0.25391 0.57999 0.0
C3379 C 0.90292 0.26074 0.5717 0.0
C3380 C 0.90697 0.27483 0.57694 0.0
C3381 C 0.91753 0.28179 0.59059 0.0
C3382 C 0.90566 0.23888 0.57478 0.0
C3383 C 0.90001 0.28247 0.5683 0.0
C3384 C 0.88384 0.24445 0.52602 0.0
C3385 C 0.86981 0.23583 0.53217 0.0
C3386 C 0.89466 0.25307 0.53863 0.0
C3387 C 0.89137 0.25294 0.55784 0.0
C3388 C 0.87714 0.24458 0.56401 0.0
C3389 C 0.86652 0.23616 0.55108 0.0
C3390 C 0.90968 0.26198 0.53149 0.0
C3391 C 0.87323 0.24408 0.58441 0.0
H3392 H 0.92559 0.25594 0.59959 0.0
H3393 H 0.92038 0.29244 0.59492 0.0
H3394 H 0.89425 0.23158 0.57782 0.0
H3395 H 0.90723 0.23819 0.55955 0.0
H3396 H 0.912 0.23511 0.5825 0.0
H3397 H 0.90479 0.29361 0.57331 0.0
H3398 H 0.90095 0.28254 0.55283 0.0
H3399 H 0.88851 0.27677 0.57171 0.0
H3400 H 0.88637 0.24432 0.51136 0.0
H3401 H 0.85571 0.2294 0.5559 0.0
H3402 H 0.91645 0.25799 0.53742 0.0
H3403 H 0.91422 0.27316 0.53613 0.0
H3404 H 0.91027 0.26176 0.51597 0.0
H3405 H 0.87838 0.23929 0.59271 0.0
H3406 H 0.86158 0.23775 0.58673 0.0
H3407 H 0.87719 0.25498 0.58986 0.0
C3408 C 0.36406 0.27115 0.60825 0.0
C3409 C 0.3595 0.28061 0.60294 0.0
C3410 C 0.36657 0.26324 0.59481 0.0
C3411 C 0.36432 0.26474 0.57563 0.0
C3412 C 0.3602 0.27465 0.57015 0.0
C3413 C 0.3579 0.28252 0.58388 0.0
C3414 C 0.37114 0.25291 0.60119 0.0
C3415 C 0.35758 0.27645 0.54986 0.0
C3416 C 0.37862 0.24974 0.53894 0.0
C3417 C 0.3666 0.23647 0.53517 0.0
C3418 C 0.37807 0.25909 0.55206 0.0
C3419 C 0.36517 0.25512 0.56151 0.0
C3420 C 0.35298 0.24182 0.55768 0.0
C3421 C 0.35387 0.23264 0.54466 0.0
C3422 C 0.39129 0.27317 0.55587 0.0
C3423 C 0.33901 0.23721 0.56744 0.0
H3424 H 0.36547 0.26979 0.62297 0.0
H3425 H 0.35425 0.28973 0.57975 0.0
H3426 H 0.36255 0.24188 0.5983 0.0
H3427 H 0.38066 0.25465 0.59328 0.0
H3428 H 0.37359 0.2539 0.6164 0.0
H3429 H 0.35552 0.28538 0.54778 0.0
H3430 H 0.36683 0.27838 0.54116 0.0
H3431 H 0.34826 0.26654 0.54467 0.0
H3432 H 0.38845 0.25286 0.53152 0.0
H3433 H 0.3446 0.22231 0.54215 0.0
H3434 H 0.39414 0.27397 0.57091 0.0
H3435 H 0.38928 0.282 0.55279 0.0
H3436 H 0.4005 0.27465 0.54738 0.0
H3437 H 0.34027 0.2366 0.58276 0.0
H3438 H 0.33043 0.22669 0.56247 0.0
H3439 H 0.33563 0.24516 0.56508 0.0
C3440 C 0.71487 0.08184 0.59196 0.0
C3441 C 0.72195 0.07579 0.60115 0.0
C3442 C 0.72178 0.09233 0.57821 0.0
C3443 C 0.7361 0.09688 0.57363 0.0
C3444 C 0.7433 0.09085 0.58292 0.0
C3445 C 0.73614 0.08039 0.59655 0.0
C3446 C 0.71377 0.09849 0.56853 0.0
C3447 C 0.75861 0.0955 0.57851 0.0
C3448 C 0.75237 0.11454 0.52725 0.0
C3449 C 0.76063 0.12883 0.53258 0.0
C3450 C 0.74387 0.10408 0.54033 0.0
C3451 C 0.74369 0.10801 0.55919 0.0
C3452 C 0.75159 0.12248 0.5645 0.0
C3453 C 0.75997 0.13273 0.55112 0.0
C3454 C 0.7355 0.08876 0.53411 0.0
C3455 C 0.7517 0.12708 0.58449 0.0
H3456 H 0.70386 0.07823 0.59535 0.0
H3457 H 0.74172 0.07591 0.60381 0.0
H3458 H 0.7193 0.11016 0.57071 0.0
H3459 H 0.71349 0.09662 0.55323 0.0
H3460 H 0.70268 0.09381 0.57372 0.0
H3461 H 0.76266 0.08974 0.58699 0.0
H3462 H 0.75971 0.09366 0.56347 0.0
H3463 H 0.76541 0.10706 0.58117 0.0
H3464 H 0.7527 0.11151 0.51287 0.0
H3465 H 0.76645 0.14373 0.55538 0.0
H3466 H 0.72423 0.084 0.53846 0.0
H3467 H 0.73981 0.08257 0.54096 0.0
H3468 H 0.73591 0.0876 0.5187 0.0
H3469 H 0.74068 0.12282 0.58966 0.0
H3470 H 0.75751 0.13883 0.58603 0.0
H3471 H 0.75684 0.12272 0.5936 0.0
C3472 C 0.91697 0.63054 0.59094 0.0
C3473 C 0.92594 0.64464 0.59662 0.0
C3474 C 0.90613 0.62714 0.57779 0.0
C3475 C 0.90428 0.63811 0.57018 0.0
C3476 C 0.91367 0.65241 0.57535 0.0
C3477 C 0.92437 0.65549 0.5885 0.0
C3478 C 0.89633 0.61178 0.57259 0.0
C3479 C 0.9121 0.66443 0.56748 0.0
C3480 C 0.88205 0.63328 0.52692 0.0
C3481 C 0.8697 0.63201 0.53495 0.0
C3482 C 0.89322 0.63464 0.53822 0.0
C3483 C 0.89194 0.63469 0.55795 0.0
C3484 C 0.87919 0.63269 0.56608 0.0
C3485 C 0.86823 0.63138 0.55447 0.0
C3486 C 0.90664 0.63673 0.52906 0.0
C3487 C 0.87735 0.63258 0.58706 0.0
H3488 H 0.9181 0.62211 0.59726 0.0
H3489 H 0.93146 0.66643 0.59261 0.0
H3490 H 0.88552 0.60825 0.57807 0.0
H3491 H 0.89547 0.61053 0.55715 0.0
H3492 H 0.90001 0.60469 0.57834 0.0
H3493 H 0.9208 0.67501 0.57205 0.0
H3494 H 0.91199 0.66405 0.55195 0.0
H3495 H 0.90183 0.66327 0.57208 0.0
H3496 H 0.88323 0.63384 0.51182 0.0
H3497 H 0.85859 0.63017 0.5607 0.0
H3498 H 0.90989 0.62945 0.53527 0.0
H3499 H 0.9154 0.64775 0.53159 0.0
H3500 H 0.90538 0.63488 0.5137 0.0
H3501 H 0.87985 0.62487 0.59365 0.0
H3502 H 0.8664 0.6298 0.59112 0.0
H3503 H 0.88488 0.64323 0.59285 0.0
C3504 C 0.94166 0.69642 0.74562 0.0
C3505 C 0.95202 0.69315 0.75128 0.0
C3506 C 0.93359 0.69887 0.75883 0.0
C3507 C 0.93604 0.69816 0.77816 0.0
C3508 C 0.94695 0.69554 0.78395 0.0
C3509 C 0.95475 0.69296 0.77042 0.0
C3510 C 0.92195 0.70148 0.75209 0.0
C3511 C 0.95001 0.69495 0.80443 0.0
C3512 C 0.91889 0.71277 0.81094 0.0
C3513 C 0.90626 0.70035 0.81579 0.0
C3514 C 0.929 0.7122 0.79927 0.0
C3515 C 0.92633 0.69893 0.79216 0.0
C3516 C 0.91385 0.68633 0.79753 0.0
C3517 C 0.90403 0.68719 0.80938 0.0
C3518 C 0.94228 0.72583 0.79403 0.0
C3519 C 0.9106 0.67196 0.79023 0.0
H3520 H 0.93942 0.69642 0.73084 0.0
H3521 H 0.96286 0.69057 0.7748 0.0
H3522 H 0.91146 0.69249 0.75634 0.0
H3523 H 0.92304 0.71123 0.75865 0.0
H3524 H 0.92203 0.70263 0.73663 0.0
H3525 H 0.9598 0.69433 0.80657 0.0
H3526 H 0.95121 0.70445 0.81188 0.0
H3527 H 0.94096 0.68549 0.81097 0.0
H3528 H 0.92066 0.72298 0.81574 0.0
H3529 H 0.89447 0.67752 0.81341 0.0
H3530 H 0.94196 0.72803 0.77893 0.0
H3531 H 0.95182 0.72482 0.7963 0.0
H3532 H 0.94346 0.73506 0.80221 0.0
H3533 H 0.90946 0.67166 0.77478 0.0
H3534 H 0.90068 0.66315 0.7963 0.0
H3535 H 0.91949 0.67009 0.79346 0.0
C3536 C 0.31999 0.25551 0.75913 0.0
C3537 C 0.31009 0.25981 0.75521 0.0
C3538 C 0.31706 0.2449 0.77237 0.0
C3539 C 0.3039 0.23843 0.78198 0.0
C3540 C 0.29389 0.24279 0.77823 0.0
C3541 C 0.29709 0.25342 0.76483 0.0
C3542 C 0.32799 0.24048 0.77589 0.0
C3543 C 0.2798 0.23619 0.7883 0.0
C3544 C 0.2929 0.20211 0.80208 0.0
C3545 C 0.29778 0.20554 0.82056 0.0
C3546 C 0.29428 0.21265 0.78955 0.0
C3547 C 0.30065 0.22693 0.79569 0.0
C3548 C 0.30499 0.23034 0.81457 0.0
C3549 C 0.30354 0.2196 0.82677 0.0
C3550 C 0.28956 0.20859 0.7695 0.0
C3551 C 0.31172 0.24543 0.82168 0.0
H3552 H 0.32996 0.26024 0.75152 0.0
H3553 H 0.28946 0.2568 0.76195 0.0
H3554 H 0.33098 0.24188 0.79091 0.0
H3555 H 0.32342 0.22905 0.77251 0.0
H3556 H 0.33777 0.2467 0.7674 0.0
H3557 H 0.27331 0.24099 0.78407 0.0
H3558 H 0.27367 0.22462 0.78535 0.0
H3559 H 0.28154 0.23746 0.80365 0.0
H3560 H 0.28856 0.19128 0.79716 0.0
H3561 H 0.30715 0.22225 0.84113 0.0
H3562 H 0.29898 0.21338 0.76015 0.0
H3563 H 0.28261 0.21283 0.76517 0.0
H3564 H 0.28373 0.1969 0.76736 0.0
H3565 H 0.32221 0.252 0.81489 0.0
H3566 H 0.31327 0.24609 0.8371 0.0
H3567 H 0.30505 0.25012 0.81798 0.0
C3568 C 0.74165 0.05202 0.76929 0.0
C3569 C 0.74543 0.04909 0.75173 0.0
C3570 C 0.75203 0.06046 0.78249 0.0
C3571 C 0.76657 0.06632 0.77794 0.0
C3572 C 0.77048 0.06313 0.76046 0.0
C3573 C 0.75986 0.05448 0.74761 0.0
C3574 C 0.74743 0.06352 0.80105 0.0
C3575 C 0.78588 0.06926 0.75507 0.0
C3576 C 0.79208 0.10071 0.80261 0.0
C3577 C 0.79793 0.096 0.81635 0.0
C3578 C 0.78205 0.09117 0.78982 0.0
C3579 C 0.77765 0.07654 0.79096 0.0
C3580 C 0.78357 0.07173 0.80477 0.0
C3581 C 0.79374 0.08155 0.81724 0.0
C3582 C 0.77612 0.09675 0.77515 0.0
C3583 C 0.77898 0.05619 0.80656 0.0
H3584 H 0.73057 0.04812 0.77254 0.0
H3585 H 0.76289 0.0521 0.73422 0.0
H3586 H 0.75269 0.06124 0.81274 0.0
H3587 H 0.75074 0.07495 0.80188 0.0
H3588 H 0.73574 0.05717 0.80307 0.0
H3589 H 0.78714 0.06515 0.74138 0.0
H3590 H 0.7911 0.081 0.7542 0.0
H3591 H 0.79158 0.06677 0.76593 0.0
H3592 H 0.79546 0.11191 0.80175 0.0
H3593 H 0.79821 0.07791 0.82795 0.0
H3594 H 0.76448 0.09188 0.77703 0.0
H3595 H 0.77793 0.09377 0.76097 0.0
H3596 H 0.78101 0.10849 0.77578 0.0
H3597 H 0.76745 0.04997 0.80969 0.0
H3598 H 0.78484 0.05422 0.81778 0.0
H3599 H 0.7807 0.05213 0.79312 0.0
C3600 C 0.05594 0.32367 0.05376 0.0
C3601 C 0.05996 0.33803 0.05191 0.0
C3602 C 0.06459 0.31961 0.06329 0.0
C3603 C 0.07761 0.33018 0.07106 0.0
C3604 C 0.08182 0.34472 0.06902 0.0
C3605 C 0.0729 0.34847 0.05954 0.0
C3606 C 0.05967 0.304 0.06533 0.0
C3607 C 0.0957 0.35628 0.07698 0.0
C3608 C 0.09326 0.31951 0.11099 0.0
C3609 C 0.10344 0.31746 0.10165 0.0
C3610 C 0.0848 0.32369 0.1012 0.0
C3611 C 0.08666 0.32598 0.08164 0.0
C3612 C 0.09697 0.324 0.07215 0.0
C3613 C 0.10521 0.3197 0.08228 0.0
C3614 C 0.0738 0.32554 0.11176 0.0
C3615 C 0.09933 0.32645 0.05133 0.0
H3616 H 0.04584 0.31556 0.04814 0.0
H3617 H 0.07606 0.35959 0.05801 0.0
H3618 H 0.06773 0.30169 0.05941 0.0
H3619 H 0.05849 0.30111 0.08038 0.0
H3620 H 0.04937 0.29713 0.05821 0.0
H3621 H 0.09761 0.36708 0.07371 0.0
H3622 H 0.09574 0.35515 0.09241 0.0
H3623 H 0.10465 0.35527 0.07133 0.0
H3624 H 0.09179 0.31765 0.12594 0.0
H3625 H 0.11319 0.31829 0.07508 0.0
H3626 H 0.06307 0.31824 0.106 0.0
H3627 H 0.07583 0.33653 0.10995 0.0
H3628 H 0.07374 0.32339 0.12697 0.0
H3629 H 0.08941 0.31921 0.0437 0.0
H3630 H 0.10795 0.32469 0.04613 0.0
H3631 H 0.10207 0.33748 0.04789 0.0
C3632 C 0.67913 0.72928 0.0502 0.0
C3633 C 0.66511 0.71787 0.05083 0.0
C3634 C 0.68291 0.7423 0.05879 0.0
C3635 C 0.67246 0.74391 0.0685 0.0
C3636 C 0.65833 0.73241 0.06943 0.0
C3637 C 0.6548 0.71955 0.0605 0.0
C3638 C 0.69808 0.75435 0.05742 0.0
C3639 C 0.64693 0.73371 0.07979 0.0
C3640 C 0.68501 0.77351 0.10449 0.0
C3641 C 0.68358 0.78384 0.09461 0.0
C3642 C 0.68134 0.76041 0.0962 0.0
C3643 C 0.67631 0.75769 0.07753 0.0
C3644 C 0.675 0.76815 0.06743 0.0
C3645 C 0.67857 0.78108 0.07615 0.0
C3646 C 0.68272 0.74944 0.10748 0.0
C3647 C 0.66987 0.76571 0.0474 0.0
H3648 H 0.68724 0.72801 0.0431 0.0
H3649 H 0.64391 0.71087 0.06088 0.0
H3650 H 0.69838 0.76371 0.05077 0.0
H3651 H 0.7027 0.75765 0.07163 0.0
H3652 H 0.70489 0.75142 0.04915 0.0
H3653 H 0.63655 0.72364 0.07967 0.0
H3654 H 0.65019 0.73685 0.09455 0.0
H3655 H 0.64549 0.74218 0.07336 0.0
H3656 H 0.68873 0.77558 0.11885 0.0
H3657 H 0.67758 0.78913 0.06846 0.0
H3658 H 0.69006 0.74665 0.10036 0.0
H3659 H 0.67224 0.73955 0.10848 0.0
H3660 H 0.68672 0.7532 0.12186 0.0
H3661 H 0.67691 0.76345 0.03858 0.0
H3662 H 0.6696 0.775 0.04145 0.0
H3663 H 0.65904 0.75629 0.04657 0.0
C3664 C 0.27557 0.93583 0.06199 0.0
C3665 C 0.27658 0.94467 0.04712 0.0
C3666 C 0.26242 0.92661 0.07032 0.0
C3667 C 0.25004 0.92638 0.06375 0.0
C3668 C 0.25099 0.93524 0.04868 0.0
C3669 C 0.26426 0.94423 0.04045 0.0
C3670 C 0.26179 0.91715 0.08618 0.0
C3671 C 0.23804 0.93542 0.04147 0.0
C3672 C 0.21437 0.89408 0.07518 0.0
C3673 C 0.21022 0.8987 0.09109 0.0
C3674 C 0.22726 0.90301 0.06606 0.0
C3675 C 0.23612 0.91697 0.07285 0.0
C3676 C 0.23187 0.92183 0.08861 0.0
C3677 C 0.21901 0.91261 0.09761 0.0
C3678 C 0.23149 0.89743 0.04935 0.0
C3679 C 0.24101 0.93671 0.09615 0.0
H3680 H 0.28509 0.93608 0.06703 0.0
H3681 H 0.26507 0.95118 0.02907 0.0
H3682 H 0.25777 0.9197 0.09904 0.0
H3683 H 0.25426 0.90587 0.08269 0.0
H3684 H 0.27234 0.91834 0.08928 0.0
H3685 H 0.24057 0.94282 0.0295 0.0
H3686 H 0.22986 0.9246 0.03694 0.0
H3687 H 0.2333 0.93865 0.05286 0.0
H3688 H 0.20753 0.88344 0.06983 0.0
H3689 H 0.21601 0.91622 0.11003 0.0
H3690 H 0.24166 0.89774 0.05226 0.0
H3691 H 0.23325 0.90428 0.037 0.0
H3692 H 0.22333 0.88634 0.04573 0.0
H3693 H 0.2513 0.93813 0.10109 0.0
H3694 H 0.23584 0.93907 0.10795 0.0
H3695 H 0.24339 0.9446 0.08488 0.0
C3696 C 0.34747 0.06914 0.95751 0.0
C3697 C 0.33727 0.05768 0.96807 0.0
C3698 C 0.34401 0.07836 0.94822 0.0
C3699 C 0.33006 0.07612 0.94964 0.0
C3700 C 0.31974 0.06463 0.96035 0.0
C3701 C 0.32345 0.05551 0.96934 0.0
C3702 C 0.35529 0.09049 0.93686 0.0
C3703 C 0.30475 0.06192 0.96224 0.0
C3704 C 0.32433 0.10715 0.93989 0.0
C3705 C 0.31877 0.10408 0.92169 0.0
C3706 C 0.32803 0.09813 0.94917 0.0
C3707 C 0.32623 0.0858 0.93995 0.0
C3708 C 0.32066 0.08266 0.92155 0.0
C3709 C 0.31693 0.09182 0.91266 0.0
C3710 C 0.33378 0.10173 0.96887 0.0
C3711 C 0.31871 0.06968 0.91121 0.0
H3712 H 0.35821 0.07099 0.95663 0.0
H3713 H 0.31542 0.04652 0.97716 0.0
H3714 H 0.3517 0.08967 0.92214 0.0
H3715 H 0.35703 0.10076 0.94246 0.0
H3716 H 0.36558 0.09065 0.93696 0.0
H3717 H 0.29807 0.05268 0.97138 0.0
H3718 H 0.30491 0.07145 0.96814 0.0
H3719 H 0.29969 0.05994 0.94824 0.0
H3720 H 0.32562 0.11655 0.94697 0.0
H3721 H 0.31278 0.08951 0.89851 0.0
H3722 H 0.34449 0.10287 0.96947 0.0
H3723 H 0.32683 0.09296 0.9785 0.0
H3724 H 0.33454 0.11172 0.97406 0.0
H3725 H 0.32904 0.07 0.91008 0.0
H3726 H 0.31436 0.06883 0.89691 0.0
H3727 H 0.31139 0.05994 0.91913 0.0
C3728 C 0.93371 0.26746 0.98234 0.0
C3729 C 0.94724 0.27634 0.97473 0.0
C3730 C 0.92421 0.25445 0.97383 0.0
C3731 C 0.9283 0.25032 0.95723 0.0
C3732 C 0.942 0.25912 0.94963 0.0
C3733 C 0.95133 0.27196 0.95854 0.0
C3734 C 0.90971 0.24527 0.9824 0.0
C3735 C 0.94672 0.25509 0.9319 0.0
C3736 C 0.90829 0.21178 0.94143 0.0
C3737 C 0.89906 0.21205 0.92799 0.0
C3738 C 0.91775 0.22412 0.95128 0.0
C3739 C 0.91808 0.23704 0.94737 0.0
C3740 C 0.90882 0.23737 0.93374 0.0
C3741 C 0.89937 0.22484 0.92428 0.0
C3742 C 0.92736 0.22335 0.96587 0.0
C3743 C 0.90901 0.25099 0.92901 0.0
H3744 H 0.9304 0.27081 0.99473 0.0
H3745 H 0.96187 0.27861 0.95278 0.0
H3746 H 0.9014 0.24437 0.97261 0.0
H3747 H 0.9078 0.23437 0.9848 0.0
H3748 H 0.90848 0.24961 0.99592 0.0
H3749 H 0.95782 0.263 0.92799 0.0
H3750 H 0.94593 0.24458 0.9336 0.0
H3751 H 0.93962 0.25412 0.92016 0.0
H3752 H 0.90795 0.20185 0.94442 0.0
H3753 H 0.89235 0.22509 0.91373 0.0
H3754 H 0.92559 0.22701 0.9796 0.0
H3755 H 0.93864 0.23054 0.96201 0.0
H3756 H 0.92557 0.21242 0.96751 0.0
H3757 H 0.9068 0.25542 0.94173 0.0
H3758 H 0.90107 0.24941 0.91812 0.0
H3759 H 0.91971 0.25902 0.9239 0.0
C3760 C 0.73256 0.66944 0.97193 0.0
C3761 C 0.71989 0.66338 0.96163 0.0
C3762 C 0.74557 0.6734 0.96316 0.0
C3763 C 0.7459 0.67142 0.94361 0.0
C3764 C 0.73313 0.66526 0.93316 0.0
C3765 C 0.72025 0.66122 0.94234 0.0
C3766 C 0.75894 0.67973 0.9748 0.0
C3767 C 0.7331 0.66316 0.91226 0.0
C3768 C 0.78077 0.69403 0.91803 0.0
C3769 C 0.7855 0.68432 0.91539 0.0
C3770 C 0.76786 0.68996 0.92717 0.0
C3771 C 0.75964 0.67592 0.93404 0.0
C3772 C 0.76449 0.66613 0.93164 0.0
C3773 C 0.77733 0.67043 0.92222 0.0
C3774 C 0.76294 0.70063 0.92928 0.0
C3775 C 0.75612 0.65114 0.93901 0.0
H3776 H 0.73226 0.671 0.98688 0.0
H3777 H 0.71047 0.65668 0.93435 0.0
H3778 H 0.76427 0.67337 0.97309 0.0
H3779 H 0.76649 0.69065 0.9699 0.0
H3780 H 0.7568 0.68019 0.98992 0.0
H3781 H 0.72225 0.65819 0.9062 0.0
H3782 H 0.73986 0.67354 0.90531 0.0
H3783 H 0.73771 0.65633 0.90895 0.0
H3784 H 0.78703 0.70473 0.9126 0.0
H3785 H 0.78108 0.66297 0.92034 0.0
H3786 H 0.76148 0.70217 0.94431 0.0
H3787 H 0.75248 0.69657 0.92236 0.0
H3788 H 0.77056 0.71111 0.92311 0.0
H3789 H 0.75442 0.65132 0.95431 0.0
H3790 H 0.76153 0.64495 0.93635 0.0
H3791 H 0.74548 0.64553 0.93235 0.0
C3792 C 0.94752 0.67907 0.95778 0.0
C3793 C 0.9417 0.66595 0.96706 0.0
C3794 C 0.93881 0.68335 0.94888 0.0
C3795 C 0.92391 0.67418 0.94891 0.0
C3796 C 0.91792 0.66097 0.9583 0.0
C3797 C 0.92688 0.65707 0.96741 0.0
C3798 C 0.94557 0.6976 0.93919 0.0
C3799 C 0.90208 0.65085 0.95845 0.0
C3800 C 0.89989 0.68918 0.93774 0.0
C3801 C 0.89702 0.68581 0.91867 0.0
C3802 C 0.90872 0.68558 0.94774 0.0
C3803 C 0.91463 0.6782 0.93854 0.0
C3804 C 0.91175 0.67472 0.91934 0.0
C3805 C 0.90311 0.67869 0.90961 0.0
C3806 C 0.91174 0.68965 0.96814 0.0
C3807 C 0.91777 0.66675 0.90908 0.0
H3808 H 0.95895 0.68591 0.95709 0.0
H3809 H 0.92223 0.64704 0.9748 0.0
H3810 H 0.94352 0.69605 0.92392 0.0
H3811 H 0.9408 0.70389 0.94435 0.0
H3812 H 0.95724 0.70384 0.94145 0.0
H3813 H 0.8991 0.64104 0.96655 0.0
H3814 H 0.89653 0.65612 0.96457 0.0
H3815 H 0.89817 0.64779 0.94388 0.0
H3816 H 0.89508 0.69449 0.94496 0.0
H3817 H 0.90122 0.67628 0.89481 0.0
H3818 H 0.92337 0.69624 0.97042 0.0
H3819 H 0.90788 0.67998 0.97685 0.0
H3820 H 0.90661 0.69569 0.97311 0.0
H3821 H 0.92954 0.673 0.9093 0.0
H3822 H 0.91419 0.66452 0.89428 0.0
H3823 H 0.91452 0.65652 0.91622 0.0
C3824 C 0.34243 0.28094 0.95292 0.0
C3825 C 0.33386 0.28171 0.967 0.0
C3826 C 0.33876 0.26796 0.94427 0.0
C3827 C 0.32615 0.25551 0.94973 0.0
C3828 C 0.31739 0.25626 0.96382 0.0
C3829 C 0.32138 0.26935 0.97235 0.0
C3830 C 0.34844 0.26753 0.92943 0.0
C3831 C 0.30378 0.24323 0.96986 0.0
C3832 C 0.31051 0.22435 0.91593 0.0
C3833 C 0.3152 0.21557 0.92367 0.0
C3834 C 0.31388 0.23732 0.92438 0.0
C3835 C 0.32221 0.24166 0.94086 0.0
C3836 C 0.3269 0.23282 0.94881 0.0
C3837 C 0.32327 0.21985 0.94017 0.0
C3838 C 0.30863 0.24644 0.91556 0.0
C3839 C 0.33583 0.23711 0.96636 0.0
H3840 H 0.35214 0.29047 0.94889 0.0
H3841 H 0.31464 0.26997 0.98306 0.0
H3842 H 0.35223 0.26022 0.9338 0.0
H3843 H 0.34252 0.26335 0.91613 0.0
H3844 H 0.35782 0.27818 0.92673 0.0
H3845 H 0.29806 0.24566 0.98084 0.0
H3846 H 0.29663 0.23847 0.95764 0.0
H3847 H 0.30613 0.2351 0.97537 0.0
H3848 H 0.30444 0.22121 0.90305 0.0
H3849 H 0.32674 0.21303 0.94639 0.0
H3850 H 0.3178 0.25681 0.91132 0.0
H3851 H 0.30237 0.24868 0.92588 0.0
H3852 H 0.30191 0.24134 0.90305 0.0
H3853 H 0.34578 0.24736 0.96408 0.0
H3854 H 0.33865 0.22904 0.97072 0.0
H3855 H 0.33003 0.23873 0.97801 0.0
C3856 C 0.72209 0.0649 0.95903 0.0
C3857 C 0.72112 0.05458 0.97162 0.0
C3858 C 0.73486 0.07395 0.94977 0.0
C3859 C 0.74695 0.07262 0.95317 0.0
C3860 C 0.74608 0.06228 0.96593 0.0
C3861 C 0.73317 0.05338 0.97503 0.0
C3862 C 0.7354 0.08486 0.93625 0.0
C3863 C 0.75878 0.06059 0.96994 0.0
C3864 C 0.77608 0.08734 0.91637 0.0
C3865 C 0.78584 0.10054 0.92414 0.0
C3866 C 0.76344 0.07806 0.92578 0.0
C3867 C 0.76052 0.08209 0.94336 0.0
C3868 C 0.77042 0.09531 0.95138 0.0
C3869 C 0.78297 0.10437 0.94168 0.0
C3870 C 0.75311 0.06404 0.9168 0.0
C3871 C 0.76769 0.09994 0.97013 0.0
H3872 H 0.71276 0.06573 0.95613 0.0
H3873 H 0.73252 0.04554 0.98491 0.0
H3874 H 0.7437 0.09566 0.94064 0.0
H3875 H 0.73832 0.08297 0.92208 0.0
H3876 H 0.72508 0.08461 0.93531 0.0
H3877 H 0.75633 0.05203 0.98025 0.0
H3878 H 0.76255 0.05811 0.9568 0.0
H3879 H 0.76765 0.0707 0.97545 0.0
H3880 H 0.77818 0.0844 0.90273 0.0
H3881 H 0.79059 0.11446 0.94788 0.0
H3882 H 0.74286 0.0636 0.91415 0.0
H3883 H 0.75091 0.05516 0.9264 0.0
H3884 H 0.75716 0.06232 0.90333 0.0
H3885 H 0.75786 0.10062 0.96944 0.0
H3886 H 0.7766 0.11044 0.97459 0.0
H3887 H 0.766 0.09197 0.98099 0.0
C3888 C 0.65371 0.93248 0.06222 0.0
C3889 C 0.66347 0.94368 0.05091 0.0
C3890 C 0.65735 0.92314 0.07074 0.0
C3891 C 0.67106 0.92501 0.06783 0.0
C3892 C 0.6809 0.93618 0.05626 0.0
C3893 C 0.677 0.9454 0.04797 0.0
C3894 C 0.64656 0.91132 0.08297 0.0
C3895 C 0.69562 0.93851 0.05284 0.0
C3896 C 0.68513 0.90944 0.10369 0.0
C3897 C 0.68249 0.89683 0.09485 0.0
C3898 C 0.68151 0.91875 0.09501 0.0
C3899 C 0.67515 0.91537 0.07706 0.0
C3900 C 0.67259 0.90272 0.06798 0.0
C3901 C 0.67628 0.89359 0.07701 0.0
C3902 C 0.68433 0.93211 0.10515 0.0
C3903 C 0.66593 0.89882 0.04878 0.0
H3904 H 0.64318 0.93099 0.06436 0.0
H3905 H 0.68468 0.95416 0.03949 0.0
H3906 H 0.64446 0.90089 0.0775 0.0
H3907 H 0.65081 0.91243 0.09736 0.0
H3908 H 0.63633 0.91126 0.08372 0.0
H3909 H 0.70188 0.94746 0.04308 0.0
H3910 H 0.70146 0.94076 0.06628 0.0
H3911 H 0.69492 0.92874 0.04693 0.0
H3912 H 0.68977 0.9119 0.11757 0.0
H3913 H 0.67439 0.88394 0.07004 0.0
H3914 H 0.67419 0.93202 0.10742 0.0
H3915 H 0.69124 0.94157 0.0965 0.0
H3916 H 0.68952 0.93328 0.11894 0.0
H3917 H 0.65527 0.89782 0.04911 0.0
H3918 H 0.66479 0.88867 0.04357 0.0
H3919 H 0.67248 0.90736 0.03865 0.0
C3920 C 0.04929 0.72113 0.06945 0.0
C3921 C 0.05132 0.71923 0.05052 0.0
C3922 C 0.05818 0.73405 0.07854 0.0
C3923 C 0.06947 0.74523 0.0685 0.0
C3924 C 0.0716 0.74332 0.04939 0.0
C3925 C 0.06241 0.73036 0.04058 0.0
C3926 C 0.05543 0.73577 0.09885 0.0
C3927 C 0.08368 0.75492 0.03833 0.0
C3928 C 0.08561 0.78304 0.08664 0.0
C3929 C 0.09771 0.78482 0.09606 0.0
C3930 C 0.07624 0.77016 0.07776 0.0
C3931 C 0.07915 0.75886 0.07806 0.0
C3932 C 0.09133 0.76057 0.0875 0.0
C3933 C 0.10038 0.77346 0.09653 0.0
C3934 C 0.06326 0.76866 0.068 0.0
C3935 C 0.09484 0.74879 0.08801 0.0
H3936 H 0.04059 0.71257 0.07707 0.0
H3937 H 0.06402 0.72884 0.02596 0.0
H3938 H 0.06484 0.73806 0.10742 0.0
H3939 H 0.0537 0.74494 0.10043 0.0
H3940 H 0.04603 0.72614 0.10453 0.0
H3941 H 0.08391 0.75171 0.02361 0.0
H3942 H 0.08274 0.76461 0.03824 0.0
H3943 H 0.09396 0.75779 0.04506 0.0
H3944 H 0.08355 0.79179 0.08597 0.0
H3945 H 0.10953 0.77461 0.10407 0.0
H3946 H 0.05353 0.75944 0.07377 0.0
H3947 H 0.06369 0.76659 0.05287 0.0
H3948 H 0.06229 0.77831 0.06953 0.0
H3949 H 0.08611 0.73927 0.09492 0.0
H3950 H 0.10489 0.75193 0.09562 0.0
H3951 H 0.09582 0.74565 0.07354 0.0
C3952 C 0.26994 0.32109 0.06196 0.0
C3953 C 0.27804 0.33444 0.05346 0.0
C3954 C 0.25694 0.31722 0.07067 0.0
C3955 C 0.25205 0.32705 0.07128 0.0
C3956 C 0.26009 0.34051 0.06269 0.0
C3957 C 0.27291 0.34399 0.05373 0.0
C3958 C 0.24856 0.30269 0.07947 0.0
C3959 C 0.25527 0.35132 0.06326 0.0
C3960 C 0.21311 0.31354 0.08168 0.0
C3961 C 0.21343 0.3162 0.10097 0.0
C3962 C 0.22559 0.31695 0.07184 0.0
C3963 C 0.23873 0.32339 0.08144 0.0
C3964 C 0.23916 0.32621 0.10085 0.0
C3965 C 0.2265 0.32246 0.1104 0.0
C3966 C 0.22472 0.31362 0.05118 0.0
C3967 C 0.253 0.33319 0.11154 0.0
H3968 H 0.27388 0.31371 0.06217 0.0
H3969 H 0.27893 0.35422 0.04693 0.0
H3970 H 0.24787 0.30377 0.09483 0.0
H3971 H 0.23754 0.29711 0.07397 0.0
H3972 H 0.25342 0.29598 0.07679 0.0
H3973 H 0.26269 0.36127 0.05578 0.0
H3974 H 0.24458 0.34683 0.05688 0.0
H3975 H 0.25437 0.35399 0.07802 0.0
H3976 H 0.20311 0.30892 0.07419 0.0
H3977 H 0.22684 0.32431 0.12535 0.0
H3978 H 0.22913 0.30655 0.04843 0.0
H3979 H 0.23122 0.32353 0.04312 0.0
H3980 H 0.21364 0.30838 0.04585 0.0
H3981 H 0.25793 0.32641 0.11094 0.0
H3982 H 0.25156 0.33508 0.12646 0.0
H3983 H 0.26057 0.34351 0.10499 0.0
C3984 C 0.73177 0.66815 0.37281 0.0
C3985 C 0.72365 0.67199 0.38405 0.0
C3986 C 0.74124 0.66446 0.38085 0.0
C3987 C 0.7425 0.66451 0.40058 0.0
C3988 C 0.73431 0.66836 0.41198 0.0
C3989 C 0.72502 0.67211 0.40357 0.0
C3990 C 0.7499 0.66054 0.36825 0.0
C3991 C 0.73528 0.66842 0.43308 0.0
C3992 C 0.75689 0.64273 0.42313 0.0
C3993 C 0.77079 0.65325 0.42763 0.0
C3994 C 0.74761 0.64622 0.41409 0.0
C3995 C 0.7524 0.66055 0.40936 0.0
C3996 C 0.76651 0.67118 0.41354 0.0
C3997 C 0.77553 0.6674 0.42269 0.0
C3998 C 0.73259 0.63461 0.40997 0.0
C3999 C 0.77203 0.68656 0.40857 0.0
H4000 H 0.73082 0.66817 0.35771 0.0
H4001 H 0.71862 0.67489 0.4123 0.0
H4002 H 0.7614 0.66777 0.37088 0.0
H4003 H 0.74756 0.6496 0.37141 0.0
H4004 H 0.74774 0.66113 0.35318 0.0
H4005 H 0.72814 0.67162 0.43993 0.0
H4006 H 0.73246 0.65768 0.43813 0.0
H4007 H 0.74635 0.67584 0.43759 0.0
H4008 H 0.75315 0.6318 0.42711 0.0
H4009 H 0.78634 0.67553 0.42594 0.0
H4010 H 0.73029 0.63446 0.39482 0.0
H4011 H 0.72497 0.63674 0.41764 0.0
H4012 H 0.73066 0.62394 0.41406 0.0
H4013 H 0.77067 0.68756 0.39337 0.0
H4014 H 0.78344 0.69343 0.41217 0.0
H4015 H 0.76582 0.69056 0.41611 0.0
C4016 C 0.3399 0.06449 0.37494 0.0
C4017 C 0.32783 0.05228 0.38158 0.0
C4018 C 0.34444 0.07779 0.38321 0.0
C4019 C 0.33658 0.07891 0.39828 0.0
C4020 C 0.32426 0.06663 0.40486 0.0
C4021 C 0.32009 0.05343 0.39651 0.0
C4022 C 0.35775 0.09061 0.37602 0.0
C4023 C 0.31548 0.06744 0.4207 0.0
C4024 C 0.35424 0.11013 0.43185 0.0
C4025 C 0.34943 0.11909 0.4251 0.0
C4026 C 0.35035 0.09715 0.42304 0.0
C4027 C 0.34127 0.0929 0.40727 0.0
C4028 C 0.33644 0.1019 0.4003 0.0
C4029 C 0.34067 0.11493 0.4092 0.0
C4030 C 0.35583 0.08788 0.43076 0.0
C4031 C 0.32665 0.09768 0.38359 0.0
H4032 H 0.34597 0.06356 0.36352 0.0
H4033 H 0.31069 0.044 0.40153 0.0
H4034 H 0.3553 0.09885 0.37129 0.0
H4035 H 0.36566 0.09535 0.38747 0.0
H4036 H 0.36264 0.08794 0.36419 0.0
H4037 H 0.30602 0.05696 0.42386 0.0
H4038 H 0.32205 0.07148 0.43353 0.0
H4039 H 0.31186 0.07503 0.41711 0.0
H4040 H 0.36083 0.11313 0.44427 0.0
H4041 H 0.33711 0.12188 0.40366 0.0
H4042 H 0.3613 0.08534 0.41957 0.0
H4043 H 0.34681 0.07767 0.43574 0.0
H4044 H 0.36334 0.09302 0.44257 0.0
H4045 H 0.33173 0.09584 0.37126 0.0
H4046 H 0.32385 0.10589 0.37992 0.0
H4047 H 0.31671 0.08756 0.38653 0.0
C4048 C 0.93486 0.28246 0.38431 0.0
C4049 C 0.94609 0.27965 0.3855 0.0
C4050 C 0.92162 0.27333 0.39249 0.0
C4051 C 0.91961 0.26116 0.40228 0.0
C4052 C 0.93092 0.25832 0.40371 0.0
C4053 C 0.94401 0.26757 0.39524 0.0
C4054 C 0.90979 0.27669 0.39064 0.0
C4055 C 0.92916 0.24546 0.4141 0.0
C4056 C 0.88946 0.24419 0.43749 0.0
C4057 C 0.87917 0.2325 0.42737 0.0
C4058 C 0.90269 0.25362 0.4295 0.0
C4059 C 0.90561 0.25134 0.4109 0.0
C4060 C 0.89519 0.23965 0.40053 0.0
C4061 C 0.88211 0.23032 0.40893 0.0
C4062 C 0.91359 0.2659 0.44104 0.0
C4063 C 0.89787 0.23698 0.38059 0.0
H4064 H 0.93644 0.29191 0.37712 0.0
H4065 H 0.95257 0.26522 0.39604 0.0
H4066 H 0.90048 0.26773 0.3837 0.0
H4067 H 0.90628 0.27802 0.40471 0.0
H4068 H 0.91306 0.28652 0.38242 0.0
H4069 H 0.9391 0.24494 0.4143 0.0
H4070 H 0.92585 0.24562 0.42876 0.0
H4071 H 0.92066 0.23563 0.40748 0.0
H4072 H 0.88726 0.24578 0.45183 0.0
H4073 H 0.87411 0.22135 0.40104 0.0
H4074 H 0.91669 0.27609 0.43388 0.0
H4075 H 0.92333 0.26512 0.44245 0.0
H4076 H 0.90961 0.26622 0.45526 0.0
H4077 H 0.90046 0.24637 0.37181 0.0
H4078 H 0.88858 0.22752 0.37438 0.0
H4079 H 0.90716 0.23537 0.38005 0.0
C4080 C 0.0003 0.3962 0.30631 0.0
C4081 C 0.01109 0.39356 0.30064 0.0
C4082 C 0.99841 0.4066 0.29738 0.0
C4083 C 0.00768 0.41466 0.28267 0.0
C4084 C 0.01877 0.41221 0.27714 0.0
C4085 C 0.02027 0.40158 0.2861 0.0
C4086 C 0.98633 0.40877 0.30346 0.0
C4087 C 0.02901 0.42077 0.26173 0.0
C4088 C 0.99505 0.43197 0.24749 0.0
C4089 C 0.00138 0.44595 0.25429 0.0
C4090 C 0.99695 0.42167 0.25666 0.0
C4091 C 0.0056 0.42549 0.27283 0.0
C4092 C 0.01217 0.43959 0.27965 0.0
C4093 C 0.00989 0.44963 0.27039 0.0
C4094 C 0.98968 0.40668 0.24905 0.0
C4095 C 0.02159 0.44408 0.29676 0.0
H4096 H 0.99313 0.38989 0.31745 0.0
H4097 H 0.02869 0.39959 0.28186 0.0
H4098 H 0.99049 0.41995 0.30787 0.0
H4099 H 0.97904 0.40671 0.2915 0.0
H4100 H 0.98013 0.40168 0.31522 0.0
H4101 H 0.03734 0.41786 0.25955 0.0
H4102 H 0.02316 0.41911 0.24839 0.0
H4103 H 0.03425 0.43227 0.26509 0.0
H4104 H 0.98868 0.42908 0.23486 0.0
H4105 H 0.01466 0.46034 0.27591 0.0
H4106 H 0.98277 0.39913 0.25999 0.0
H4107 H 0.99772 0.40369 0.24521 0.0
H4108 H 0.9831 0.40539 0.23653 0.0
H4109 H 0.0154 0.43789 0.30911 0.0
H4110 H 0.02627 0.45557 0.29991 0.0
H4111 H 0.03035 0.44177 0.29469 0.0
C4112 C 0.61822 0.61085 0.28511 0.0
C4113 C 0.61428 0.61501 0.30159 0.0
C4114 C 0.60891 0.59793 0.27632 0.0
C4115 C 0.59538 0.58892 0.2843 0.0
C4116 C 0.59142 0.59297 0.30109 0.0
C4117 C 0.6009 0.60602 0.30949 0.0
C4118 C 0.61344 0.59404 0.25832 0.0
C4119 C 0.57713 0.58357 0.31009 0.0
C4120 C 0.56609 0.56255 0.25246 0.0
C4121 C 0.56619 0.54996 0.2563 0.0
C4122 C 0.57553 0.5753 0.26149 0.0
C4123 C 0.58524 0.57544 0.27478 0.0
C4124 C 0.58535 0.56275 0.27879 0.0
C4125 C 0.57585 0.55016 0.26942 0.0
C4126 C 0.5752 0.58864 0.2567 0.0
C4127 C 0.59547 0.56248 0.293 0.0
H4128 H 0.62849 0.61786 0.27886 0.0
H4129 H 0.5979 0.60916 0.32235 0.0
H4130 H 0.61289 0.58363 0.25984 0.0
H4131 H 0.60608 0.59292 0.24686 0.0
H4132 H 0.62442 0.6021 0.25413 0.0
H4133 H 0.57587 0.58807 0.32346 0.0
H4134 H 0.56853 0.58208 0.30041 0.0
H4135 H 0.57571 0.57291 0.3129 0.0
H4136 H 0.55875 0.56245 0.24214 0.0
H4137 H 0.57585 0.54041 0.27254 0.0
H4138 H 0.58572 0.59683 0.25126 0.0
H4139 H 0.57305 0.59307 0.26948 0.0
H4140 H 0.56699 0.58672 0.24607 0.0
H4141 H 0.6066 0.56989 0.28869 0.0
H4142 H 0.59406 0.5517 0.2947 0.0
H4143 H 0.59385 0.56617 0.30679 0.0
C4144 C 0.38324 0.98 0.30478 0.0
C4145 C 0.3757 0.98622 0.29743 0.0
C4146 C 0.39584 0.98219 0.29636 0.0
C4147 C 0.40094 0.99069 0.28008 0.0
C4148 C 0.39327 0.99681 0.2724 0.0
C4149 C 0.38078 0.99457 0.28122 0.0
C4150 C 0.40376 0.97552 0.30498 0.0
C4151 C 0.39835 0.00588 0.25499 0.0
C4152 C 0.44012 0.00796 0.26807 0.0
C4153 C 0.44006 0.99874 0.25429 0.0
C4154 C 0.42746 0.00539 0.2767 0.0
C4155 C 0.41444 0.9934 0.27126 0.0
C4156 C 0.41432 0.98407 0.25733 0.0
C4157 C 0.42716 0.98682 0.24906 0.0
C4158 C 0.42801 0.01549 0.29165 0.0
C4159 C 0.40062 0.97127 0.25102 0.0
H4160 H 0.37927 0.97336 0.31713 0.0
H4161 H 0.37516 -0.0004 0.2756 0.0
H4162 H 0.40487 0.96853 0.29462 0.0
H4163 H 0.41464 0.98392 0.30894 0.0
H4164 H 0.39834 0.96915 0.31762 0.0
H4165 H 0.39087 0.00942 0.25039 0.0
H4166 H 0.40887 0.01541 0.25762 0.0
H4167 H 0.39971 -0.00013 0.24338 0.0
H4168 H 0.45011 0.0171 0.27225 0.0
H4169 H 0.42709 0.97978 0.23825 0.0
H4170 H 0.42342 0.00962 0.30489 0.0
H4171 H 0.4215 0.02024 0.28737 0.0
H4172 H 0.43902 0.02421 0.29444 0.0
H4173 H 0.3952 0.96421 0.26311 0.0
H4174 H 0.40237 0.96504 0.24007 0.0
H4175 H 0.39334 0.97471 0.24538 0.0
C4176 C 0.59711 0.97725 0.28643 0.0
C4177 C 0.60655 0.9871 0.2995 0.0
C4178 C 0.58652 0.97914 0.27804 0.0
C4179 C 0.5854 0.99117 0.28278 0.0
C4180 C 0.59476 0.00104 0.29614 0.0
C4181 C 0.60521 0.99886 0.30437 0.0
C4182 C 0.5767 0.96838 0.26386 0.0
C4183 C 0.59387 0.01399 0.30157 0.0
C4184 C 0.56813 0.00412 0.24799 0.0
C4185 C 0.55457 0.9989 0.25578 0.0
C4186 C 0.57825 0.00163 0.25661 0.0
C4187 C 0.57469 0.99367 0.27339 0.0
C4188 C 0.56099 0.98827 0.28126 0.0
C4189 C 0.55109 0.99096 0.27237 0.0
C4190 C 0.59275 0.00756 0.24778 0.0
C4191 C 0.55682 0.97972 0.29914 0.0
H4192 H 0.5982 0.96823 0.28245 0.0
H4193 H 0.61232 0.00638 0.31468 0.0
H4194 H 0.56547 0.96418 0.26807 0.0
H4195 H 0.57816 0.97356 0.25003 0.0
H4196 H 0.57862 0.95932 0.26227 0.0
H4197 H 0.60175 0.02048 0.31248 0.0
H4198 H 0.59571 0.02075 0.28908 0.0
H4199 H 0.58307 0.01074 0.30688 0.0
H4200 H 0.57081 0.01005 0.235 0.0
H4201 H 0.54068 0.98703 0.27857 0.0
H4202 H 0.59486 0.99881 0.24455 0.0
H4203 H 0.60106 0.01481 0.25775 0.0
H4204 H 0.5938 0.01348 0.23467 0.0
H4205 H 0.55815 0.97031 0.29748 0.0
H4206 H 0.54565 0.97604 0.30324 0.0
H4207 H 0.56391 0.98622 0.31071 0.0
C4208 C 0.00206 0.61645 0.28413 0.0
C4209 C 0.00918 0.62055 0.30135 0.0
C4210 C 8e-05 0.60423 0.27481 0.0
C4211 C 0.00529 0.59589 0.28296 0.0
C4212 C 0.01239 0.59992 0.30042 0.0
C4213 C 0.01429 0.61224 0.30938 0.0
C4214 C 0.99255 0.60033 0.25615 0.0
C4215 C 0.01801 0.59123 0.30959 0.0
C4216 C 0.9894 0.55772 0.26644 0.0
C4217 C -0.00018 0.55877 0.25391 0.0
C4218 C 0.9911 0.56971 0.27612 0.0
C4219 C 0.00346 0.58305 0.27309 0.0
C4220 C 0.014 0.58416 0.26045 0.0
C4221 C 0.01207 0.57199 0.25104 0.0
C4222 C 0.97967 0.56811 0.28959 0.0
C4223 C 0.02727 0.59824 0.25675 0.0
H4224 H 0.99825 0.62295 0.27777 0.0
H4225 H 0.01966 0.61531 0.32279 0.0
H4226 H -0.00029 0.60017 0.24519 0.0
H4227 H 0.98312 0.5895 0.25681 0.0
H4228 H 0.98902 0.60787 0.25181 0.0
H4229 H 0.02309 0.59569 0.32332 0.0
H4230 H 0.00923 0.58017 0.31174 0.0
H4231 H 0.02593 0.59072 0.30031 0.0
H4232 H 0.98 0.54748 0.26885 0.0
H4233 H 0.02006 0.57286 0.24119 0.0
H4234 H 0.97532 0.57492 0.28511 0.0
H4235 H 0.98426 0.57171 0.30376 0.0
H4236 H 0.97079 0.55695 0.29054 0.0
H4237 H 0.02437 0.60595 0.25117 0.0
H4238 H 0.03449 0.59727 0.24659 0.0
H4239 H 0.03314 0.60271 0.27001 0.0
C4240 C 0.38785 0.40179 0.28623 0.0
C4241 C 0.38613 0.38943 0.29481 0.0
C4242 C 0.40056 0.41127 0.27712 0.0
C4243 C 0.41192 0.40846 0.27685 0.0
C4244 C 0.41032 0.39607 0.28555 0.0
C4245 C 0.39741 0.38665 0.29426 0.0
C4246 C 0.40185 0.42432 0.26782 0.0
C4247 C 0.42226 0.39278 0.28569 0.0
C4248 C 0.44088 0.42611 0.24015 0.0
C4249 C 0.4515 0.43758 0.25023 0.0
C4250 C 0.42786 0.41662 0.24858 0.0
C4251 C 0.42556 0.41855 0.26762 0.0
C4252 C 0.43632 0.43005 0.27789 0.0
C4253 C 0.44914 0.43951 0.26901 0.0
C4254 C 0.41655 0.40461 0.23711 0.0
C4255 C 0.43433 0.43229 0.2983 0.0
H4256 H 0.3793 0.40416 0.2868 0.0
H4257 H 0.39613 0.377 0.3005 0.0
H4258 H 0.41051 0.43403 0.27447 0.0
H4259 H 0.40467 0.42456 0.25284 0.0
H4260 H 0.39186 0.42472 0.26875 0.0
H4261 H 0.41939 0.38283 0.29339 0.0
H4262 H 0.42518 0.39172 0.27114 0.0
H4263 H 0.43183 0.40166 0.29231 0.0
H4264 H 0.44269 0.42472 0.22556 0.0
H4265 H 0.45742 0.44832 0.27683 0.0
H4266 H 0.40671 0.40528 0.23706 0.0
H4267 H 0.41385 0.39426 0.24346 0.0
H4268 H 0.41994 0.40475 0.22239 0.0
H4269 H 0.42501 0.43376 0.29999 0.0
H4270 H 0.4438 0.44169 0.30432 0.0
H4271 H 0.43216 0.42276 0.30649 0.0
C4272 C 0.34897 0.28521 0.38565 0.0
C4273 C 0.33502 0.2826 0.38763 0.0
C4274 C 0.35312 0.27611 0.39366 0.0
C4275 C 0.34313 0.26416 0.40402 0.0
C4276 C 0.32907 0.26151 0.40619 0.0
C4277 C 0.32517 0.27073 0.39791 0.0
C4278 C 0.3682 0.27925 0.39103 0.0
C4279 C 0.31812 0.24888 0.41717 0.0
C4280 C 0.34883 0.2328 0.41055 0.0
C4281 C 0.35417 0.23501 0.42885 0.0
C4282 C 0.34542 0.24235 0.40218 0.0
C4283 C 0.3473 0.25432 0.41242 0.0
C4284 C 0.35286 0.25671 0.43082 0.0
C4285 C 0.35628 0.24703 0.43881 0.0
C4286 C 0.33966 0.23954 0.38245 0.0
C4287 C 0.3549 0.26931 0.44222 0.0
H4288 H 0.3567 0.29448 0.37799 0.0
H4289 H 0.31433 0.26853 0.39929 0.0
H4290 H 0.3734 0.28069 0.40484 0.0
H4291 H 0.36821 0.27013 0.38405 0.0
H4292 H 0.37466 0.28894 0.3825 0.0
H4293 H 0.30774 0.2485 0.4179 0.0
H4294 H 0.31645 0.2389 0.41063 0.0
H4295 H 0.32198 0.24922 0.43164 0.0
H4296 H 0.34735 0.22359 0.40277 0.0
H4297 H 0.36025 0.24867 0.45304 0.0
H4298 H 0.34636 0.24883 0.37342 0.0
H4299 H 0.32878 0.23802 0.38238 0.0
H4300 H 0.33925 0.22998 0.3762 0.0
H4301 H 0.36183 0.27932 0.43457 0.0
H4302 H 0.3597 0.26984 0.45613 0.0
H4303 H 0.34451 0.2687 0.44436 0.0
C4304 C 0.71352 0.05639 0.39939 0.0
C4305 C 0.71752 0.05263 0.38263 0.0
C4306 C 0.72249 0.06944 0.40813 0.0
C4307 C 0.73572 0.07899 0.39983 0.0
C4308 C 0.73972 0.07534 0.38274 0.0
C4309 C 0.73059 0.06216 0.37439 0.0
C4310 C 0.71792 0.0729 0.42644 0.0
C4311 C 0.7537 0.08531 0.37339 0.0
C4312 C 0.75437 0.11776 0.41464 0.0
C4313 C 0.76465 0.11842 0.42705 0.0
C4314 C 0.74486 0.10498 0.40565 0.0
C4315 C 0.7456 0.09258 0.40932 0.0
C4316 C 0.75585 0.09316 0.42202 0.0
C4317 C 0.76528 0.10609 0.43068 0.0
C4318 C 0.73414 0.10478 0.39207 0.0
C4319 C 0.75685 0.08013 0.42646 0.0
H4320 H 0.70348 0.04897 0.40589 0.0
H4321 H 0.73364 0.05934 0.36131 0.0
H4322 H 0.72557 0.07426 0.43762 0.0
H4323 H 0.71797 0.08309 0.42525 0.0
H4324 H 0.70714 0.06448 0.4308 0.0
H4325 H 0.75499 0.0811 0.3598 0.0
H4326 H 0.75454 0.09577 0.37093 0.0
H4327 H 0.76262 0.08715 0.3827 0.0
H4328 H 0.75395 0.12731 0.41171 0.0
H4329 H 0.7731 0.10654 0.44047 0.0
H4330 H 0.72322 0.09689 0.39663 0.0
H4331 H 0.73576 0.10146 0.37801 0.0
H4332 H 0.73491 0.11532 0.39084 0.0
H4333 H 0.74654 0.07161 0.432 0.0
H4334 H 0.76528 0.08233 0.43689 0.0
H4335 H 0.75914 0.076 0.4135 0.0
C4336 C 0.94371 0.68035 0.39176 0.0
C4337 C 0.94665 0.66999 0.38501 0.0
C4338 C 0.93066 0.67651 0.40036 0.0
C4339 C 0.92037 0.66195 0.40236 0.0
C4340 C 0.92322 0.65144 0.39541 0.0
C4341 C 0.93632 0.65559 0.38676 0.0
C4342 C 0.92795 0.68802 0.40744 0.0
C4343 C 0.91254 0.63581 0.39742 0.0
C4344 C 0.89298 0.65227 0.44091 0.0
C4345 C 0.88113 0.65043 0.43084 0.0
C4346 C 0.90577 0.65585 0.43178 0.0
C4347 C 0.90674 0.65773 0.41211 0.0
C4348 C 0.89477 0.65578 0.40185 0.0
C4349 C 0.88208 0.6521 0.41134 0.0
C4350 C 0.91826 0.6577 0.44318 0.0
C4351 C 0.89544 0.65779 0.38088 0.0
H4352 H 0.95161 0.6915 0.39024 0.0
H4353 H 0.93862 0.64754 0.38176 0.0
H4354 H 0.91813 0.68683 0.40103 0.0
H4355 H 0.92626 0.68702 0.42282 0.0
H4356 H 0.93689 0.69885 0.4043 0.0
H4357 H 0.91626 0.62898 0.39088 0.0
H4358 H 0.9104 0.63302 0.41246 0.0
H4359 H 0.90231 0.63334 0.39087 0.0
H4360 H 0.89222 0.65082 0.45597 0.0
H4361 H 0.87297 0.65083 0.40354 0.0
H4362 H 0.92728 0.66872 0.44167 0.0
H4363 H 0.92191 0.65046 0.43792 0.0
H4364 H 0.91565 0.65552 0.45829 0.0
H4365 H 0.90366 0.66884 0.37733 0.0
H4366 H 0.88512 0.65564 0.37494 0.0
H4367 H 0.89858 0.65061 0.37403 0.0
C4368 C 0.40149 0.0094 0.70744 0.0
C4369 C 0.3923 0.01191 0.71847 0.0
C4370 C 0.41175 0.00693 0.71568 0.0
C4371 C 0.41282 0.007 0.73543 0.0
C4372 C 0.40361 0.00957 0.74665 0.0
C4373 C 0.39345 0.01199 0.73803 0.0
C4374 C 0.42144 0.00428 0.70329 0.0
C4375 C 0.40443 0.00968 0.76776 0.0
C4376 C 0.43024 0.98811 0.7582 0.0
C4377 C 0.44373 0.99951 0.76262 0.0
C4378 C 0.42012 0.99037 0.74915 0.0
C4379 C 0.42359 0.00438 0.74441 0.0
C4380 C 0.43725 0.01592 0.74859 0.0
C4381 C 0.44716 0.01334 0.75765 0.0
C4382 C 0.40564 0.97781 0.74493 0.0
C4383 C 0.44135 0.03099 0.74368 0.0
H4384 H 0.40076 0.0095 0.69231 0.0
H4385 H 0.38624 0.01373 0.74663 0.0
H4386 H 0.43268 0.01239 0.70604 0.0
H4387 H 0.42022 0.99376 0.70654 0.0
H4388 H 0.41921 0.00456 0.68817 0.0
H4389 H 0.39654 0.01193 0.77445 0.0
H4390 H 0.40257 0.99925 0.77284 0.0
H4391 H 0.41521 0.01784 0.77243 0.0
H4392 H 0.42749 0.97742 0.76221 0.0
H4393 H 0.45765 0.02217 0.76079 0.0
H4394 H 0.40333 0.97742 0.72974 0.0
H4395 H 0.39736 0.97896 0.75248 0.0
H4396 H 0.40477 0.96756 0.74905 0.0
H4397 H 0.44001 0.03186 0.72844 0.0
H4398 H 0.45251 0.03874 0.74755 0.0
H4399 H 0.43423 0.03398 0.75102 0.0
C4400 C 0.97678 0.37882 0.72403 0.0
C4401 C 0.98856 0.37738 0.71942 0.0
C4402 C 0.97849 0.39092 0.73345 0.0
C4403 C 0.99232 0.40203 0.73793 0.0
C4404 C 0.00425 0.40075 0.73316 0.0
C4405 C 0.00222 0.38838 0.72423 0.0
C4406 C 0.9655 0.3918 0.73864 0.0
C4407 C 0.01919 0.41248 0.73744 0.0
C4408 C 0.99774 0.43888 0.74638 0.0
C4409 C 0.99902 0.43994 0.76589 0.0
C4410 C 0.9956 0.4266 0.73707 0.0
C4411 C 0.99435 0.41502 0.74762 0.0
C4412 C 0.99537 0.41597 0.7674 0.0
C4413 C 0.99789 0.42853 0.77629 0.0
C4414 C 0.99492 0.42611 0.71595 0.0
C4415 C 0.99377 0.40373 0.77914 0.0
H4416 H 0.9662 0.37055 0.72016 0.0
H4417 H 0.01139 0.38731 0.72119 0.0
H4418 H 0.96541 0.39358 0.75393 0.0
H4419 H 0.96577 0.40098 0.7315 0.0
H4420 H 0.95546 0.38202 0.7348 0.0
H4421 H 0.02735 0.41007 0.73212 0.0
H4422 H 0.02111 0.42259 0.73108 0.0
H4423 H 0.02058 0.41421 0.75278 0.0
H4424 H 0.9987 0.4478 0.73842 0.0
H4425 H 0.99879 0.4294 0.79142 0.0
H4426 H 0.98463 0.41707 0.71124 0.0
H4427 H 0.00343 0.42435 0.71028 0.0
H4428 H 0.99617 0.43605 0.70984 0.0
H4429 H 0.98349 0.39402 0.77598 0.0
H4430 H 0.99422 0.40597 0.79438 0.0
H4431 H 0.00231 0.40137 0.77566 0.0
C4432 C 0.60991 0.59892 0.72938 0.0
C4433 C 0.61189 0.61103 0.71982 0.0
C4434 C 0.59701 0.58981 0.73838 0.0
C4435 C 0.58578 0.5928 0.73762 0.0
C4436 C 0.58769 0.605 0.72801 0.0
C4437 C 0.60074 0.61401 0.71934 0.0
C4438 C 0.59537 0.57694 0.74861 0.0
C4439 C 0.57591 0.60849 0.72683 0.0
C4440 C 0.54833 0.56216 0.74523 0.0
C4441 C 0.54575 0.56441 0.76379 0.0
C4442 C 0.56128 0.5714 0.73648 0.0
C4443 C 0.57194 0.58306 0.74664 0.0
C4444 C 0.56938 0.5854 0.7654 0.0
C4445 C 0.55626 0.57608 0.77372 0.0
C4446 C 0.56356 0.56869 0.71638 0.0
C4447 C 0.58056 0.59763 0.77672 0.0
H4448 H 0.61838 0.59643 0.72963 0.0
H4449 H 0.60226 0.62349 0.71231 0.0
H4450 H 0.59232 0.57712 0.76339 0.0
H4451 H 0.58674 0.56712 0.74213 0.0
H4452 H 0.60529 0.57637 0.7484 0.0
H4453 H 0.57909 0.61833 0.71869 0.0
H4454 H 0.56642 0.59958 0.72012 0.0
H4455 H 0.57273 0.60985 0.74109 0.0
H4456 H 0.54015 0.5532 0.73751 0.0
H4457 H 0.55431 0.57772 0.78815 0.0
H4458 H 0.57278 0.56699 0.71541 0.0
H4459 H 0.56606 0.5781 0.70769 0.0
H4460 H 0.55411 0.55927 0.71037 0.0
H4461 H 0.59028 0.59678 0.77765 0.0
H4462 H 0.57688 0.59796 0.79114 0.0
H4463 H 0.58358 0.60785 0.76969 0.0
C4464 C 0.65146 0.71556 0.63119 0.0
C4465 C 0.66561 0.71858 0.63077 0.0
C4466 C 0.64754 0.72481 0.62312 0.0
C4467 C 0.65798 0.73732 0.61416 0.0
C4468 C 0.67225 0.74039 0.6135 0.0
C4469 C 0.67591 0.73103 0.6219 0.0
C4470 C 0.63222 0.72122 0.62418 0.0
C4471 C 0.68365 0.7536 0.60396 0.0
C4472 C 0.64561 0.75474 0.57874 0.0
C4473 C 0.64652 0.7661 0.58914 0.0
C4474 C 0.64936 0.7453 0.58669 0.0
C4475 C 0.65396 0.74721 0.60554 0.0
C4476 C 0.65473 0.75857 0.61618 0.0
C4477 C 0.65108 0.76795 0.60779 0.0
C4478 C 0.64857 0.73341 0.57486 0.0
C4479 C 0.6594 0.76082 0.6364 0.0
H4480 H 0.64338 0.70584 0.63769 0.0
H4481 H 0.68689 0.73355 0.62172 0.0
H4482 H 0.63153 0.72995 0.63122 0.0
H4483 H 0.62785 0.72015 0.60986 0.0
H4484 H 0.62545 0.71119 0.63192 0.0
H4485 H 0.69418 0.75427 0.60428 0.0
H4486 H 0.68069 0.75379 0.58914 0.0
H4487 H 0.68463 0.76319 0.61086 0.0
H4488 H 0.64225 0.75342 0.56423 0.0
H4489 H 0.65167 0.77667 0.61587 0.0
H4490 H 0.64129 0.723 0.58143 0.0
H4491 H 0.65921 0.73437 0.57402 0.0
H4492 H 0.6448 0.73341 0.56042 0.0
H4493 H 0.65236 0.75118 0.64467 0.0
H4494 H 0.65922 0.77005 0.64278 0.0
H4495 H 0.67033 0.76257 0.63749 0.0
C4496 C 0.28118 0.94631 0.61487 0.0
C4497 C 0.27929 0.9491 0.6335 0.0
C4498 C 0.27218 0.93303 0.6067 0.0
C4499 C 0.26096 0.92234 0.6174 0.0
C4500 C 0.25898 0.9251 0.63622 0.0
C4501 C 0.26822 0.93844 0.64407 0.0
C4502 C 0.27468 0.93044 0.58664 0.0
C4503 C 0.24704 0.91399 0.64799 0.0
C4504 C 0.22973 0.89299 0.59111 0.0
C4505 C 0.23257 0.88178 0.59228 0.0
C4506 C 0.23884 0.90622 0.59933 0.0
C4507 C 0.25116 0.90833 0.6088 0.0
C4508 C 0.25415 0.89711 0.60996 0.0
C4509 C 0.24479 0.88394 0.60174 0.0
C4510 C 0.23529 0.91794 0.59782 0.0
C4511 C 0.26723 0.89901 0.6199 0.0
H4512 H 0.28985 0.95448 0.60675 0.0
H4513 H 0.26666 0.94063 0.65843 0.0
H4514 H 0.27643 0.92124 0.5859 0.0
H4515 H 0.26516 0.92774 0.57807 0.0
H4516 H 0.28399 0.93981 0.58033 0.0
H4517 H 0.24703 0.91779 0.66244 0.0
H4518 H 0.23667 0.91091 0.64135 0.0
H4519 H 0.24792 0.90428 0.64881 0.0
H4520 H 0.22044 0.89149 0.58355 0.0
H4521 H 0.24696 0.87528 0.6029 0.0
H4522 H 0.24393 0.92717 0.59034 0.0
H4523 H 0.23448 0.92166 0.612 0.0
H4524 H 0.22515 0.91448 0.59028 0.0
H4525 H 0.2769 0.90788 0.61347 0.0
H4526 H 0.2681 0.88927 0.61938 0.0
H4527 H 0.26703 0.90186 0.63478 0.0
C4528 C 0.06606 0.33473 0.64411 0.0
C4529 C 0.05424 0.33102 0.63264 0.0
C4530 C 0.07936 0.33856 0.63634 0.0
C4531 C 0.08085 0.33868 0.61665 0.0
C4532 C 0.069 0.33505 0.605 0.0
C4533 C 0.05584 0.33128 0.61314 0.0
C4534 C 0.09177 0.34235 0.64919 0.0
C4535 C 0.0702 0.33508 0.58392 0.0
C4536 C 0.11737 0.35966 0.59441 0.0
C4537 C 0.12044 0.34888 0.59025 0.0
C4538 C 0.10462 0.35653 0.60332 0.0
C4539 C 0.09474 0.3423 0.60816 0.0
C4540 C 0.09791 0.33142 0.60436 0.0
C4541 C 0.11073 0.33485 0.59546 0.0
C4542 C 0.10158 0.36841 0.60717 0.0
C4543 C 0.08766 0.31613 0.60938 0.0
H4544 H 0.06485 0.3344 0.6592 0.0
H4545 H 0.0468 0.32864 0.6042 0.0
H4546 H 0.09571 0.33482 0.64703 0.0
H4547 H 0.10066 0.35313 0.64584 0.0
H4548 H 0.08892 0.34209 0.66419 0.0
H4549 H 0.06001 0.33217 0.57685 0.0
H4550 H 0.07843 0.34576 0.57901 0.0
H4551 H 0.07361 0.32746 0.57951 0.0
H4552 H 0.12477 0.37049 0.59025 0.0
H4553 H 0.11316 0.32652 0.59253 0.0
H4554 H 0.09916 0.36857 0.62223 0.0
H4555 H 0.09209 0.36658 0.59916 0.0
H4556 H 0.11064 0.37898 0.60329 0.0
H4557 H 0.08514 0.31523 0.62455 0.0
H4558 H 0.09194 0.30902 0.60601 0.0
H4559 H 0.07754 0.31233 0.60168 0.0
C4560 C 0.26857 0.33162 0.64262 0.0
C4561 C 0.27789 0.32923 0.63168 0.0
C4562 C 0.25953 0.33578 0.63438 0.0
C4563 C 0.2598 0.33755 0.61473 0.0
C4564 C 0.26923 0.33523 0.60362 0.0
C4565 C 0.27818 0.33113 0.61223 0.0
C4566 C 0.24961 0.33816 0.64668 0.0
C4567 C 0.26982 0.33702 0.58261 0.0
C4568 C 0.2275 0.33464 0.59036 0.0
C4569 C 0.23182 0.34895 0.58701 0.0
C4570 C 0.23644 0.3308 0.59958 0.0
C4571 C 0.25 0.34153 0.60568 0.0
C4572 C 0.25434 0.356 0.60267 0.0
C4573 C 0.24519 0.35954 0.59334 0.0
C4574 C 0.23144 0.31525 0.60257 0.0
C4575 C 0.26872 0.36773 0.60901 0.0
H4576 H 0.2682 0.33003 0.65764 0.0
H4577 H 0.28553 0.32956 0.60372 0.0
H4578 H 0.25146 0.34907 0.64458 0.0
H4579 H 0.23843 0.33066 0.6427 0.0
H4580 H 0.25097 0.3367 0.66177 0.0
H4581 H 0.27784 0.33494 0.57601 0.0
H4582 H 0.25927 0.32965 0.57645 0.0
H4583 H 0.2724 0.34798 0.57902 0.0
H4584 H 0.21708 0.32641 0.5858 0.0
H4585 H 0.24863 0.37061 0.59064 0.0
H4586 H 0.23175 0.31311 0.61769 0.0
H4587 H 0.23867 0.3124 0.59527 0.0
H4588 H 0.22047 0.30824 0.59734 0.0
H4589 H 0.27007 0.36675 0.62422 0.0
H4590 H 0.27026 0.37846 0.60624 0.0
H4591 H 0.27721 0.36679 0.60167 0.0
C4592 C 0.67692 0.94463 0.62266 0.0
C4593 C 0.66695 0.94705 0.63194 0.0
C4594 C 0.67283 0.93156 0.61397 0.0
C4595 C 0.65845 0.92058 0.61476 0.0
C4596 C 0.64832 0.92292 0.62409 0.0
C4597 C 0.65268 0.93615 0.63247 0.0
C4598 C 0.68392 0.92947 0.60405 0.0
C4599 C 0.6329 0.91143 0.6253 0.0
C4600 C 0.64555 0.89077 0.57901 0.0
C4601 C 0.64645 0.88025 0.58918 0.0
C4602 C 0.64937 0.90395 0.58718 0.0
C4603 C 0.65405 0.90657 0.60602 0.0
C4604 C 0.65473 0.89587 0.61644 0.0
C4605 C 0.651 0.88286 0.60785 0.0
C4606 C 0.64866 0.91515 0.57557 0.0
C4607 C 0.65948 0.89821 0.63663 0.0
H4608 H 0.68799 0.95291 0.62239 0.0
H4609 H 0.64485 0.93799 0.63932 0.0
H4610 H 0.68476 0.92074 0.61079 0.0
H4611 H 0.68073 0.92631 0.58928 0.0
H4612 H 0.69456 0.93922 0.60421 0.0
H4613 H 0.62638 0.91492 0.63318 0.0
H4614 H 0.62841 0.90815 0.61103 0.0
H4615 H 0.63199 0.9019 0.63227 0.0
H4616 H 0.64218 0.8888 0.5645 0.0
H4617 H 0.65157 0.87467 0.61576 0.0
H4618 H 0.65939 0.9247 0.57449 0.0
H4619 H 0.64166 0.9185 0.58246 0.0
H4620 H 0.6446 0.91135 0.56121 0.0
H4621 H 0.67054 0.90722 0.63766 0.0
H4622 H 0.65904 0.88867 0.64292 0.0
H4623 H 0.65268 0.90106 0.64503 0.0
C4624 C 0.06557 0.71694 0.64167 0.0
C4625 C 0.05373 0.7179 0.63611 0.0
C4626 C 0.07904 0.72598 0.63401 0.0
C4627 C 0.08069 0.7363 0.62067 0.0
C4628 C 0.06878 0.7374 0.61515 0.0
C4629 C 0.05542 0.72812 0.62287 0.0
C4630 C 0.09146 0.7244 0.64005 0.0
C4631 C 0.07017 0.7484 0.60114 0.0
C4632 C 0.11714 0.76848 0.61277 0.0
C4633 C 0.12115 0.76507 0.59573 0.0
C4634 C 0.10407 0.75914 0.62117 0.0
C4635 C 0.09486 0.74598 0.61243 0.0
C4636 C 0.09899 0.74228 0.59551 0.0
C4637 C 0.11206 0.7519 0.5873 0.0
C4638 C 0.09999 0.76347 0.6392 0.0
C4639 C 0.08947 0.72829 0.58587 0.0
H4640 H 0.06423 0.70893 0.65176 0.0
H4641 H 0.04628 0.72895 0.61872 0.0
H4642 H 0.09611 0.72199 0.62771 0.0
H4643 H 0.09991 0.73452 0.64613 0.0
H4644 H 0.08838 0.71582 0.65055 0.0
H4645 H 0.0599 0.74797 0.59853 0.0
H4646 H 0.07797 0.7592 0.60624 0.0
H4647 H 0.07424 0.7468 0.58765 0.0
H4648 H 0.12421 0.77852 0.61953 0.0
H4649 H 0.11497 0.74925 0.57402 0.0
H4650 H 0.09763 0.75539 0.65019 0.0
H4651 H 0.09018 0.76402 0.63704 0.0
H4652 H 0.10848 0.77395 0.64439 0.0
H4653 H 0.08651 0.71936 0.59573 0.0
H4654 H 0.0946 0.72668 0.57337 0.0
H4655 H 0.07949 0.72783 0.5814 0.0
C4656 C 0.98226 0.59165 0.70937 0.0
C4657 C 0.9884 0.60534 0.71701 0.0
C4658 C 0.9842 0.58113 0.71788 0.0
C4659 C 0.9923 0.58438 0.73452 0.0
C4660 C 0.99841 0.59817 0.74237 0.0
C4661 C 0.99644 0.60851 0.73345 0.0
C4662 C 0.97766 0.56658 0.70902 0.0
C4663 C 0.00697 0.60197 0.76023 0.0
C4664 C 0.98697 0.55432 0.76653 0.0
C4665 C 0.999 0.55326 0.76246 0.0
C4666 C 0.98459 0.56434 0.75742 0.0
C4667 C 0.99441 0.57338 0.74379 0.0
C4668 C 0.00647 0.5722 0.73942 0.0
C4669 C 0.00867 0.56219 0.7489 0.0
C4670 C 0.9717 0.56542 0.76262 0.0
C4671 C 0.01709 0.58156 0.72481 0.0
H4672 H 0.97614 0.58924 0.69656 0.0
H4673 H 0.00104 0.61906 0.73949 0.0
H4674 H 0.98607 0.56401 0.70564 0.0
H4675 H 0.97025 0.55841 0.71901 0.0
H4676 H 0.97175 0.56581 0.69599 0.0
H4677 H 0.01087 0.61313 0.7646 0.0
H4678 H 0.0004 0.59481 0.7717 0.0
H4679 H 0.01625 0.60046 0.75836 0.0
H4680 H 0.97957 0.5475 0.77716 0.0
H4681 H 0.0179 0.56126 0.74562 0.0
H4682 H 0.96516 0.56394 0.75001 0.0
H4683 H 0.97511 0.57618 0.76825 0.0
H4684 H 0.96496 0.55742 0.77327 0.0
H4685 H 0.01163 0.58047 0.71129 0.0
H4686 H 0.02562 0.57893 0.72257 0.0
H4687 H 0.02207 0.59286 0.72913 0.0
C4688 C 0.39894 0.38716 0.72628 0.0
C4689 C 0.3863 0.3847 0.71772 0.0
C4690 C 0.40798 0.40012 0.73521 0.0
C4691 C 0.40443 0.41097 0.73534 0.0
C4692 C 0.3918 0.40865 0.72655 0.0
C4693 C 0.38283 0.39552 0.71799 0.0
C4694 C 0.42133 0.40218 0.74457 0.0
C4695 C 0.38772 0.42003 0.72626 0.0
C4696 C 0.42091 0.43975 0.77251 0.0
C4697 C 0.43226 0.45071 0.76268 0.0
C4698 C 0.41176 0.42674 0.76378 0.0
C4699 C 0.41392 0.42476 0.74471 0.0
C4700 C 0.42523 0.43589 0.73464 0.0
C4701 C 0.43434 0.44871 0.7438 0.0
C4702 C 0.39993 0.41504 0.77504 0.0
C4703 C 0.42773 0.43425 0.71422 0.0
H4704 H 0.40184 0.37898 0.72592 0.0
H4705 H 0.37298 0.39366 0.71173 0.0
H4706 H 0.4308 0.41125 0.73808 0.0
H4707 H 0.42129 0.40479 0.75959 0.0
H4708 H 0.42243 0.39259 0.74352 0.0
H4709 H 0.37775 0.41669 0.71834 0.0
H4710 H 0.38628 0.42273 0.74078 0.0
H4711 H 0.39636 0.42986 0.71982 0.0
H4712 H 0.4194 0.44126 0.78717 0.0
H4713 H 0.44306 0.45724 0.73617 0.0
H4714 H 0.40124 0.40557 0.77525 0.0
H4715 H 0.38952 0.41178 0.7684 0.0
H4716 H 0.39966 0.41832 0.78971 0.0
H4717 H 0.42992 0.4254 0.71244 0.0
H4718 H 0.43677 0.44406 0.70829 0.0
H4719 H 0.41804 0.4315 0.70599 0.0
C4720 C 0.61969 0.01553 0.73651 0.0
C4721 C 0.61941 0.01069 0.71825 0.0
C4722 C 0.60718 0.01322 0.74531 0.0
C4723 C 0.59416 0.00615 0.73543 0.0
C4724 C 0.59388 0.0015 0.71683 0.0
C4725 C 0.60652 0.0037 0.70851 0.0
C4726 C 0.60786 0.01811 0.76528 0.0
C4727 C 0.58024 0.99417 0.70574 0.0
C4728 C 0.55991 0.98822 0.76351 0.0
C4729 C 0.55589 0.99858 0.76325 0.0
C4730 C 0.57237 0.99054 0.7545 0.0
C4731 C 0.58079 0.00343 0.74472 0.0
C4732 C 0.5766 0.01381 0.74411 0.0
C4733 C 0.56425 0.01132 0.75357 0.0
C4734 C 0.57664 0.97934 0.75574 0.0
C4735 C 0.58517 0.02755 0.73353 0.0
H4736 H 0.62967 0.02081 0.74408 0.0
H4737 H 0.60636 5e-05 0.69433 0.0
H4738 H 0.60379 0.02562 0.76615 0.0
H4739 H 0.60095 0.00888 0.7743 0.0
H4740 H 0.61883 0.02342 0.77099 0.0
H4741 H 0.58194 0.9917 0.69119 0.0
H4742 H 0.57253 0.98411 0.71274 0.0
H4743 H 0.57533 0.00097 0.70521 0.0
H4744 H 0.55348 0.97843 0.77115 0.0
H4745 H 0.56103 0.01927 0.75328 0.0
H4746 H 0.58724 0.98388 0.76244 0.0
H4747 H 0.57756 0.97579 0.7415 0.0
H4748 H 0.56892 0.96992 0.76391 0.0
H4749 H 0.59596 0.03371 0.73965 0.0
H4750 H 0.58013 0.03426 0.73381 0.0
H4751 H 0.58646 0.02528 0.71873 0.0
loop_
_geom_bond_atom_site_label_1
_geom_bond_atom_site_label_2
_geom_bond_distance
_geom_bond_site_symmetry_2
_ccdc_geom_bond_type
Li0 N17 1.983 1_554 S
Li0 O60 1.956 . S
Li0 O61 1.970 1_654 S
Li0 O62 1.961 . S
Li1 N25 1.990 . S
Li1 O60 1.970 1_455 S
Li1 O61 1.956 1_554 S
Li1 O63 1.961 . S
Li2 N47 1.990 . S
Li2 O60 1.961 . S
Li2 O62 1.956 . S
Li2 O63 1.970 1_655 S
Li3 N53 1.990 . S
Li3 O61 1.961 . S
Li3 O62 1.970 1_456 S
Li3 O63 1.956 1_556 S
C4 C6 1.320 1_655 S
C4 C7 1.356 . S
C4 O60 1.325 . S
N5 C8 1.314 . S
N5 C9 1.279 . S
C6 C4 1.320 1_455 S
C6 C8 1.353 1_455 S
C6 H64 0.957 . S
C7 C4 1.356 . S
C7 C9 1.358 . S
C7 H65 0.930 . S
C8 N5 1.314 . S
C8 C6 1.353 1_655 S
C8 H66 0.930 1_655 S
C9 N5 1.279 . S
C9 C7 1.358 . S
C9 H67 0.930 . S
C10 C13 1.348 . S
C10 C14 1.356 . S
C10 O61 1.325 . S
C11 N12 1.279 . S
C11 C14 1.358 . S
C11 H68 0.930 . S
N12 C11 1.279 . S
N12 C15 1.314 . S
C13 C10 1.348 . S
C13 C15 1.353 . S
C13 H69 0.929 1_455 S
C14 C10 1.356 . S
C14 C11 1.358 . S
C14 H70 0.930 . S
C15 N12 1.314 . S
C15 C13 1.353 . S
C15 H71 0.930 . S
C16 N17 1.343 . S
C16 C21 1.353 . S
C16 H22 0.930 . S
N17 Li0 1.983 1_556 S
N17 C16 1.343 . S
N17 C19 1.262 1_556 S
C18 C19 1.358 . S
C18 C20 1.356 1_554 S
C18 H72 0.930 . S
C19 N17 1.262 1_554 S
C19 C18 1.358 . S
C19 H23 0.930 . S
C20 C18 1.356 1_556 S
C20 C21 1.348 . S
C21 C16 1.353 . S
C21 C20 1.348 . S
C21 H73 0.929 . S
H22 C16 0.930 . S
H23 C19 0.930 . S
C24 N25 1.314 . S
C24 C26 1.353 . S
C24 H30 0.930 . S
N25 Li1 1.990 . S
N25 C24 1.314 . S
N25 C28 1.279 . S
C26 C24 1.353 . S
C26 C29 1.348 . S
C26 H74 0.929 . S
C27 C28 1.358 . S
C27 C29 1.356 . S
C27 H75 0.930 . S
C28 N25 1.279 . S
C28 C27 1.358 . S
C28 H31 0.957 . S
C29 C26 1.348 . S
C29 C27 1.356 . S
H30 C24 0.930 . S
H31 C28 0.957 . S
C32 C34 1.380 . S
C32 C35 1.335 1_556 S
C32 O62 1.314 1_556 S
N33 C36 1.314 . S
N33 C37 1.279 1_556 S
C34 C32 1.380 . S
C34 C36 1.353 . S
C34 H76 0.929 . S
C35 C32 1.335 1_554 S
C35 C37 1.358 . S
C35 H77 0.930 . S
C36 N33 1.314 . S
C36 C34 1.353 . S
C36 H78 0.930 . S
C37 N33 1.279 1_554 S
C37 C35 1.358 . S
C37 H79 0.930 . S
C38 C39 1.348 . S
C38 C40 1.356 . S
C38 O63 1.325 . S
C39 C38 1.348 . S
C39 C41 1.353 . S
C39 H80 0.929 . S
C40 C38 1.356 . S
C40 C42 1.358 . S
C40 H81 0.930 . S
C41 C39 1.353 . S
C41 N43 1.314 . S
C41 H82 0.930 . S
C42 C40 1.358 . S
C42 N43 1.279 . S
C42 H83 0.930 . S
N43 C41 1.314 . S
N43 C42 1.279 . S
C44 C46 1.353 . S
C44 N47 1.314 . S
C44 H50 0.886 1_655 S
C45 N47 1.279 . S
C45 C48 1.358 . S
C45 H51 0.930 . S
C46 C44 1.353 . S
C46 C49 1.348 . S
C46 H84 0.929 . S
N47 Li2 1.990 . S
N47 C44 1.314 . S
N47 C45 1.279 . S
C48 C45 1.358 . S
C48 C49 1.356 . S
C48 H85 0.930 . S
C49 C46 1.348 . S
C49 C48 1.356 . S
H50 C44 0.886 1_455 S
H51 C45 0.930 . S
C52 N53 1.314 . S
C52 C54 1.353 . S
C52 H58 0.930 . S
N53 Li3 1.990 . S
N53 C52 1.314 . S
N53 C56 1.279 . S
C54 C52 1.353 . S
C54 C57 1.348 . S
C54 H86 0.929 . S
C55 C56 1.358 . S
C55 C57 1.356 . S
C55 H87 0.930 . S
C56 N53 1.279 . S
C56 C55 1.358 . S
C56 H59 0.930 . S
C57 C54 1.348 . S
C57 C55 1.356 . S
H58 C52 0.930 . S
H59 C56 0.930 . S
O60 Li0 1.956 . S
O60 Li1 1.970 1_655 S
O60 Li2 1.961 . S
O60 C4 1.325 . S
O61 Li0 1.970 1_456 S
O61 Li1 1.956 1_556 S
O61 Li3 1.961 . S
O61 C10 1.325 . S
O62 Li0 1.961 . S
O62 Li2 1.956 . S
O62 Li3 1.970 1_654 S
O62 C32 1.314 1_554 S
O63 Li1 1.961 . S
O63 Li2 1.970 1_455 S
O63 Li3 1.956 1_554 S
O63 C38 1.325 . S
H64 C6 0.957 . S
H65 C7 0.930 . S
H66 C8 0.930 1_455 S
H67 C9 0.930 . S
H68 C11 0.930 . S
H69 C13 0.929 1_655 S
H70 C14 0.930 . S
H71 C15 0.930 . S
H72 C18 0.930 . S
H73 C21 0.929 . S
H74 C26 0.929 . S
H75 C27 0.930 . S
H76 C34 0.929 . S
H77 C35 0.930 . S
H78 C36 0.930 . S
H79 C37 0.930 . S
H80 C39 0.929 . S
H81 C40 0.930 . S
H82 C41 0.930 . S
H83 C42 0.930 . S
H84 C46 0.929 . S
H85 C48 0.930 . S
H86 C54 0.929 . S
H87 C55 0.930 . S
Li88 N105 1.990 1_554 S
Li88 O148 1.956 . S
Li88 O149 1.970 1_554 S
Li88 O150 1.965 . S
Li89 N113 1.990 . S
Li89 O148 1.970 . S
Li89 O149 1.956 1_554 S
Li89 O151 1.961 . S
Li90 N135 1.990 . S
Li90 O148 1.961 . S
Li90 O150 1.999 . S
Li90 O151 1.970 . S
Li91 N141 1.990 . S
Li91 O149 1.961 . S
Li91 O150 1.957 1_556 S
Li91 O151 1.956 1_556 S
C92 C94 1.348 . S
C92 C95 1.356 . S
C92 O148 1.325 . S
N93 C96 1.314 . S
N93 C97 1.279 . S
C94 C92 1.348 . S
C94 C96 1.353 . S
C94 H152 0.929 . S
C95 C92 1.356 . S
C95 C97 1.358 . S
C95 H153 0.930 . S
C96 N93 1.314 . S
C96 C94 1.353 . S
C96 H154 0.930 . S
C97 N93 1.279 . S
C97 C95 1.358 . S
C97 H155 0.930 . S
C98 C101 1.348 . S
C98 C102 1.356 . S
C98 O149 1.325 . S
C99 N100 1.279 . S
C99 C102 1.358 . S
C99 H156 0.930 . S
N100 C99 1.279 . S
N100 C103 1.314 . S
C101 C98 1.348 . S
C101 C103 1.353 . S
C101 H157 0.929 . S
C102 C98 1.356 . S
C102 C99 1.358 . S
C102 H158 0.930 . S
C103 N100 1.314 . S
C103 C101 1.353 . S
C103 H159 0.930 . S
C104 N105 1.314 . S
C104 C109 1.353 . S
C104 H110 0.930 . S
N105 Li88 1.990 1_556 S
N105 C104 1.314 . S
N105 C107 1.279 1_556 S
C106 C107 1.358 1_556 S
C106 C108 1.356 . S
C106 H160 0.930 1_556 S
C107 N105 1.279 1_554 S
C107 C106 1.358 1_554 S
C107 H111 0.930 . S
C108 C106 1.356 . S
C108 C109 1.348 . S
C109 C104 1.353 . S
C109 C108 1.348 . S
C109 H161 0.929 . S
H110 C104 0.930 . S
H111 C107 0.930 . S
C112 N113 1.314 . S
C112 C114 1.353 . S
C112 H118 0.930 . S
N113 Li89 1.990 . S
N113 C112 1.314 . S
N113 C116 1.279 . S
C114 C112 1.353 . S
C114 C117 1.348 . S
C114 H162 0.929 . S
C115 C116 1.358 . S
C115 C117 1.356 . S
C115 H163 0.930 . S
C116 N113 1.279 . S
C116 C115 1.358 . S
C116 H119 0.930 . S
C117 C114 1.348 . S
C117 C115 1.356 . S
H118 C112 0.930 . S
H119 C116 0.930 . S
C120 C122 1.348 . S
C120 C123 1.341 1_556 S
C120 O150 1.312 1_556 S
N121 C124 1.314 . S
N121 C125 1.279 . S
C122 C120 1.348 . S
C122 C124 1.353 . S
C122 H164 0.929 . S
C123 C120 1.341 1_554 S
C123 C125 1.342 1_554 S
C123 H165 0.964 . S
C124 N121 1.314 . S
C124 C122 1.353 . S
C124 H166 0.930 . S
C125 N121 1.279 . S
C125 C123 1.342 1_556 S
C125 H167 0.930 . S
C126 C127 1.348 . S
C126 C128 1.356 . S
C126 O151 1.325 . S
C127 C126 1.348 . S
C127 C129 1.353 . S
C127 H168 0.929 . S
C128 C126 1.356 . S
C128 C130 1.358 . S
C128 H169 0.930 . S
C129 C127 1.353 . S
C129 N131 1.314 . S
C129 H170 0.930 . S
C130 C128 1.358 . S
C130 N131 1.279 . S
C130 H171 0.930 . S
N131 C129 1.314 . S
N131 C130 1.279 . S
C132 C134 1.353 . S
C132 N135 1.314 . S
C132 H138 0.930 . S
C133 N135 1.279 . S
C133 C136 1.358 . S
C133 H139 0.930 . S
C134 C132 1.353 . S
C134 C137 1.348 . S
C134 H172 0.929 . S
N135 Li90 1.990 . S
N135 C132 1.314 . S
N135 C133 1.279 . S
C136 C133 1.358 . S
C136 C137 1.356 . S
C136 H173 0.930 . S
C137 C134 1.348 . S
C137 C136 1.356 . S
H138 C132 0.930 . S
H139 C133 0.930 . S
C140 N141 1.314 . S
C140 C142 1.353 . S
C140 H146 0.930 . S
N141 Li91 1.990 . S
N141 C140 1.314 . S
N141 C144 1.279 . S
C142 C140 1.353 . S
C142 C145 1.348 . S
C142 H174 0.929 . S
C143 C144 1.358 . S
C143 C145 1.356 . S
C143 H175 0.930 . S
C144 N141 1.279 . S
C144 C143 1.358 . S
C144 H147 0.930 . S
C145 C142 1.348 . S
C145 C143 1.356 . S
H146 C140 0.930 . S
H147 C144 0.930 . S
O148 Li88 1.956 . S
O148 Li89 1.970 . S
O148 Li90 1.961 . S
O148 C92 1.325 . S
O149 Li88 1.970 1_556 S
O149 Li89 1.956 1_556 S
O149 Li91 1.961 . S
O149 C98 1.325 . S
O150 Li88 1.965 . S
O150 Li90 1.999 . S
O150 Li91 1.957 1_554 S
O150 C120 1.312 1_554 S
O151 Li89 1.961 . S
O151 Li90 1.970 . S
O151 Li91 1.956 1_554 S
O151 C126 1.325 . S
H152 C94 0.929 . S
H153 C95 0.930 . S
H154 C96 0.930 . S
H155 C97 0.930 . S
H156 C99 0.930 . S
H157 C101 0.929 . S
H158 C102 0.930 . S
H159 C103 0.930 . S
H160 C106 0.930 1_554 S
H161 C109 0.929 . S
H162 C114 0.929 . S
H163 C115 0.930 . S
H164 C122 0.929 . S
H165 C123 0.964 . S
H166 C124 0.930 . S
H167 C125 0.930 . S
H168 C127 0.929 . S
H169 C128 0.930 . S
H170 C129 0.930 . S
H171 C130 0.930 . S
H172 C134 0.929 . S
H173 C136 0.930 . S
H174 C142 0.929 . S
H175 C143 0.930 . S
Li176 N193 1.990 . S
Li176 O236 1.956 1_556 S
Li176 O237 1.970 1_566 S
Li176 O238 1.961 . S
Li177 N201 1.990 . S
Li177 O236 1.970 1_545 S
Li177 O237 1.956 . S
Li177 O239 1.961 . S
Li178 N223 1.990 . S
Li178 O236 1.961 . S
Li178 O238 1.956 1_554 S
Li178 O239 1.970 1_565 S
Li179 N229 1.990 1_554 S
Li179 O237 1.961 . S
Li179 O238 1.970 1_544 S
Li179 O239 1.956 . S
C180 C182 1.348 . S
C180 C183 1.356 . S
C180 O236 1.325 . S
N181 C184 1.314 . S
N181 C185 1.279 . S
C182 C180 1.348 . S
C182 C184 1.353 . S
C182 H240 0.929 . S
C183 C180 1.356 . S
C183 C185 1.358 . S
C183 H241 0.930 . S
C184 N181 1.314 . S
C184 C182 1.353 . S
C184 H242 0.930 . S
C185 N181 1.279 . S
C185 C183 1.358 . S
C185 H243 0.930 . S
C186 C189 1.348 . S
C186 C190 1.356 1_556 S
C186 O237 1.325 1_556 S
C187 N188 1.279 1_554 S
C187 C190 1.358 . S
C187 H244 0.930 . S
N188 C187 1.279 1_556 S
N188 C191 1.314 . S
C189 C186 1.348 . S
C189 C191 1.353 . S
C189 H245 0.929 . S
C190 C186 1.356 1_554 S
C190 C187 1.358 . S
C190 H246 0.930 . S
C191 N188 1.314 . S
C191 C189 1.353 . S
C191 H247 0.930 . S
C192 N193 1.314 . S
C192 C197 1.353 . S
C192 H198 0.885 1_565 S
N193 Li176 1.990 . S
N193 C192 1.314 . S
N193 C195 1.279 . S
C194 C195 1.358 . S
C194 C196 1.356 . S
C194 H248 0.930 . S
C195 N193 1.279 . S
C195 C194 1.358 . S
C195 H199 0.930 . S
C196 C194 1.356 . S
C196 C197 1.348 . S
C197 C192 1.353 . S
C197 C196 1.348 . S
C197 H249 0.929 . S
H198 C192 0.885 1_545 S
H199 C195 0.930 . S
C200 N201 1.314 . S
C200 C202 1.353 . S
C200 H206 0.930 . S
N201 Li177 1.990 . S
N201 C200 1.314 . S
N201 C204 1.279 . S
C202 C200 1.353 . S
C202 C205 1.348 . S
C202 H250 0.929 . S
C203 C204 1.358 . S
C203 C205 1.356 . S
C203 H251 0.930 . S
C204 N201 1.279 . S
C204 C203 1.358 . S
C204 H207 0.930 . S
C205 C202 1.348 . S
C205 C203 1.356 . S
H206 C200 0.930 . S
H207 C204 0.930 . S
C208 C210 1.320 1_565 S
C208 C211 1.356 . S
C208 O238 1.325 . S
N209 C212 1.314 . S
N209 C213 1.279 . S
C210 C208 1.320 1_545 S
C210 C212 1.353 1_545 S
C210 H252 0.957 . S
C211 C208 1.356 . S
C211 C213 1.358 . S
C211 H253 0.930 . S
C212 N209 1.314 . S
C212 C210 1.353 1_565 S
C212 H254 0.930 1_565 S
C213 N209 1.279 . S
C213 C211 1.358 . S
C213 H255 0.930 . S
C214 C215 1.348 . S
C214 C216 1.356 . S
C214 O239 1.325 . S
C215 C214 1.348 . S
C215 C217 1.353 . S
C215 H256 0.929 1_545 S
C216 C214 1.356 . S
C216 C218 1.358 . S
C216 H257 0.930 . S
C217 C215 1.353 . S
C217 N219 1.314 . S
C217 H258 0.930 . S
C218 C216 1.358 . S
C218 N219 1.279 . S
C218 H259 0.930 . S
N219 C217 1.314 . S
N219 C218 1.279 . S
C220 C222 1.353 . S
C220 N223 1.314 . S
C220 H226 0.930 . S
C221 N223 1.279 . S
C221 C224 1.358 . S
C221 H227 0.931 1_554 S
C222 C220 1.353 . S
C222 C225 1.348 . S
C222 H260 0.929 . S
N223 Li178 1.990 . S
N223 C220 1.314 . S
N223 C221 1.279 . S
C224 C221 1.358 . S
C224 C225 1.356 . S
C224 H261 0.930 . S
C225 C222 1.348 . S
C225 C224 1.356 . S
H226 C220 0.930 . S
H227 C221 0.931 1_556 S
C228 N229 1.314 . S
C228 C230 1.353 . S
C228 H234 0.930 . S
N229 Li179 1.990 1_556 S
N229 C228 1.314 . S
N229 C232 1.279 1_556 S
C230 C228 1.353 . S
C230 C233 1.348 . S
C230 H262 0.929 . S
C231 C232 1.358 . S
C231 C233 1.356 1_554 S
C231 H263 0.930 . S
C232 N229 1.279 1_554 S
C232 C231 1.358 . S
C232 H235 0.930 . S
C233 C230 1.348 . S
C233 C231 1.356 1_556 S
H234 C228 0.930 . S
H235 C232 0.930 . S
O236 Li176 1.956 1_554 S
O236 Li177 1.970 1_565 S
O236 Li178 1.961 . S
O236 C180 1.325 . S
O237 Li176 1.970 1_544 S
O237 Li177 1.956 . S
O237 Li179 1.961 . S
O237 C186 1.325 1_554 S
O238 Li176 1.961 . S
O238 Li178 1.956 1_556 S
O238 Li179 1.970 1_566 S
O238 C208 1.325 . S
O239 Li177 1.961 . S
O239 Li178 1.970 1_545 S
O239 Li179 1.956 . S
O239 C214 1.325 . S
H240 C182 0.929 . S
H241 C183 0.930 . S
H242 C184 0.930 . S
H243 C185 0.930 . S
H244 C187 0.930 . S
H245 C189 0.929 . S
H246 C190 0.930 . S
H247 C191 0.930 . S
H248 C194 0.930 . S
H249 C197 0.929 . S
H250 C202 0.929 . S
H251 C203 0.930 . S
H252 C210 0.957 . S
H253 C211 0.930 . S
H254 C212 0.930 1_545 S
H255 C213 0.930 . S
H256 C215 0.929 1_565 S
H257 C216 0.930 . S
H258 C217 0.930 . S
H259 C218 0.930 . S
H260 C222 0.929 . S
H261 C224 0.930 . S
H262 C230 0.929 . S
H263 C231 0.930 . S
Li264 N281 1.990 . S
Li264 O324 1.956 . S
Li264 O325 1.970 1_455 S
Li264 O326 1.961 1_554 S
Li265 N289 1.990 . S
Li265 O324 1.970 1_655 S
Li265 O325 1.956 . S
Li265 O327 1.961 . S
Li266 N311 1.990 . S
Li266 O324 1.961 1_556 S
Li266 O326 1.956 . S
Li266 O327 1.970 1_456 S
Li267 N317 1.990 1_554 S
Li267 O325 1.961 . S
Li267 O326 1.970 1_654 S
Li267 O327 1.956 . S
C268 C270 1.348 . S
C268 C271 1.356 . S
C268 O324 1.325 . S
N269 C272 1.314 . S
N269 C273 1.279 . S
C270 C268 1.348 . S
C270 C272 1.353 . S
C270 H328 0.929 . S
C271 C268 1.356 . S
C271 C273 1.358 . S
C271 H329 0.930 1_554 S
C272 N269 1.314 . S
C272 C270 1.353 . S
C272 H330 0.930 . S
C273 N269 1.279 . S
C273 C271 1.358 . S
C273 H331 0.930 . S
C274 C277 1.348 1_655 S
C274 C278 1.356 . S
C274 O325 1.325 . S
C275 N276 1.279 . S
C275 C278 1.358 . S
C275 H332 0.930 . S
N276 C275 1.279 . S
N276 C279 1.314 . S
C277 C274 1.348 1_455 S
C277 C279 1.353 1_455 S
C277 H333 0.929 . S
C278 C274 1.356 . S
C278 C275 1.358 . S
C278 H334 0.930 . S
C279 N276 1.314 . S
C279 C277 1.353 1_655 S
C279 H335 0.930 1_655 S
C280 N281 1.314 . S
C280 C285 1.353 . S
C280 H286 0.930 . S
N281 Li264 1.990 . S
N281 C280 1.314 . S
N281 C283 1.279 . S
C282 C283 1.358 . S
C282 C284 1.356 . S
C282 H336 0.930 . S
C283 N281 1.279 . S
C283 C282 1.358 . S
C283 H287 0.930 . S
C284 C282 1.356 . S
C284 C285 1.348 . S
C285 C280 1.353 . S
C285 C284 1.348 . S
C285 H337 0.929 . S
H286 C280 0.930 . S
H287 C283 0.930 . S
C288 N289 1.314 . S
C288 C290 1.353 . S
C288 H294 0.930 . S
N289 Li265 1.990 . S
N289 C288 1.314 . S
N289 C292 1.279 . S
C290 C288 1.353 . S
C290 C293 1.348 . S
C290 H338 0.929 . S
C291 C292 1.358 . S
C291 C293 1.356 . S
C291 H339 0.930 . S
C292 N289 1.279 . S
C292 C291 1.358 . S
C292 H295 0.930 . S
C293 C290 1.348 . S
C293 C291 1.356 . S
H294 C288 0.930 . S
H295 C292 0.930 . S
C296 C298 1.348 1_455 S
C296 C299 1.356 . S
C296 O326 1.325 . S
N297 C300 1.314 . S
N297 C301 1.279 . S
C298 C296 1.348 1_655 S
C298 C300 1.353 1_655 S
C298 H340 0.929 . S
C299 C296 1.356 . S
C299 C301 1.358 . S
C299 H341 0.930 . S
C300 N297 1.314 . S
C300 C298 1.353 1_455 S
C300 H342 0.930 1_455 S
C301 N297 1.279 . S
C301 C299 1.358 . S
C301 H343 0.930 . S
C302 C303 1.348 . S
C302 C304 1.356 1_556 S
C302 O327 1.325 1_556 S
C303 C302 1.348 . S
C303 C305 1.353 . S
C303 H344 0.929 . S
C304 C302 1.356 1_554 S
C304 C306 1.358 . S
C304 H345 0.930 . S
C305 C303 1.353 . S
C305 N307 1.314 . S
C305 H346 0.930 . S
C306 C304 1.358 . S
C306 N307 1.279 1_554 S
C306 H347 0.930 . S
N307 C305 1.314 . S
N307 C306 1.279 1_556 S
C308 C310 1.353 . S
C308 N311 1.314 . S
C308 H314 0.930 . S
C309 N311 1.279 . S
C309 C312 1.358 . S
C309 H315 0.930 . S
C310 C308 1.353 . S
C310 C313 1.348 . S
C310 H348 0.929 . S
N311 Li266 1.990 . S
N311 C308 1.314 . S
N311 C309 1.279 . S
C312 C309 1.358 . S
C312 C313 1.356 . S
C312 H349 0.930 . S
C313 C310 1.348 . S
C313 C312 1.356 . S
H314 C308 0.930 . S
H315 C309 0.930 . S
C316 N317 1.314 1_554 S
C316 C318 1.353 1_554 S
C316 H322 0.930 . S
N317 Li267 1.990 1_556 S
N317 C316 1.314 1_556 S
N317 C320 1.279 . S
C318 C316 1.353 1_556 S
C318 C321 1.348 . S
C318 H350 0.929 1_556 S
C319 C320 1.358 . S
C319 C321 1.356 . S
C319 H351 0.930 . S
C320 N317 1.279 . S
C320 C319 1.358 . S
C320 H323 0.930 . S
C321 C318 1.348 . S
C321 C319 1.356 . S
H322 C316 0.930 . S
H323 C320 0.930 . S
O324 Li264 1.956 . S
O324 Li265 1.970 1_455 S
O324 Li266 1.961 1_554 S
O324 C268 1.325 . S
O325 Li264 1.970 1_655 S
O325 Li265 1.956 . S
O325 Li267 1.961 . S
O325 C274 1.325 . S
O326 Li264 1.961 1_556 S
O326 Li266 1.956 . S
O326 Li267 1.970 1_456 S
O326 C296 1.325 . S
O327 Li265 1.961 . S
O327 Li266 1.970 1_654 S
O327 Li267 1.956 . S
O327 C302 1.325 1_554 S
H328 C270 0.929 . S
H329 C271 0.930 1_556 S
H330 C272 0.930 . S
H331 C273 0.930 . S
H332 C275 0.930 . S
H333 C277 0.929 . S
H334 C278 0.930 . S
H335 C279 0.930 1_455 S
H336 C282 0.930 . S
H337 C285 0.929 . S
H338 C290 0.929 . S
H339 C291 0.930 . S
H340 C298 0.929 . S
H341 C299 0.930 . S
H342 C300 0.930 1_655 S
H343 C301 0.930 . S
H344 C303 0.929 . S
H345 C304 0.930 . S
H346 C305 0.930 . S
H347 C306 0.930 . S
H348 C310 0.929 . S
H349 C312 0.930 . S
H350 C318 0.929 1_554 S
H351 C319 0.930 . S
Li352 N369 1.990 . S
Li352 O412 1.956 . S
Li352 O413 1.970 . S
Li352 O414 1.961 1_554 S
Li353 N377 1.990 . S
Li353 O412 1.970 . S
Li353 O413 1.956 . S
Li353 O415 1.961 . S
Li354 N399 1.990 . S
Li354 O412 1.961 1_556 S
Li354 O414 1.956 . S
Li354 O415 1.970 1_556 S
Li355 N405 1.990 1_554 S
Li355 O413 1.961 . S
Li355 O414 1.970 1_554 S
Li355 O415 1.956 . S
C356 C358 1.348 . S
C356 C359 1.356 . S
C356 O412 1.325 . S
N357 C360 1.314 . S
N357 C361 1.279 . S
C358 C356 1.348 . S
C358 C360 1.353 . S
C358 H416 0.929 . S
C359 C356 1.356 . S
C359 C361 1.358 . S
C359 H417 0.930 . S
C360 N357 1.314 . S
C360 C358 1.353 . S
C360 H418 0.930 . S
C361 N357 1.279 . S
C361 C359 1.358 . S
C361 H419 0.930 . S
C362 C365 1.348 . S
C362 C366 1.356 . S
C362 O413 1.325 . S
C363 N364 1.279 . S
C363 C366 1.358 . S
C363 H420 0.930 . S
N364 C363 1.279 . S
N364 C367 1.314 . S
C365 C362 1.348 . S
C365 C367 1.353 . S
C365 H421 0.929 . S
C366 C362 1.356 . S
C366 C363 1.358 . S
C366 H422 0.930 . S
C367 N364 1.314 . S
C367 C365 1.353 . S
C367 H423 0.930 . S
C368 N369 1.314 . S
C368 C373 1.353 . S
C368 H374 0.930 . S
N369 Li352 1.990 . S
N369 C368 1.314 . S
N369 C371 1.279 . S
C370 C371 1.358 . S
C370 C372 1.356 . S
C370 H424 0.930 . S
C371 N369 1.279 . S
C371 C370 1.358 . S
C371 H375 0.930 . S
C372 C370 1.356 . S
C372 C373 1.348 . S
C373 C368 1.353 . S
C373 C372 1.348 . S
C373 H425 0.929 . S
H374 C368 0.930 . S
H375 C371 0.930 . S
C376 N377 1.314 . S
C376 C378 1.353 . S
C376 H382 0.930 . S
N377 Li353 1.990 . S
N377 C376 1.314 . S
N377 C380 1.279 . S
C378 C376 1.353 . S
C378 C381 1.348 . S
C378 H426 0.929 . S
C379 C380 1.358 . S
C379 C381 1.356 . S
C379 H427 0.930 . S
C380 N377 1.279 . S
C380 C379 1.358 . S
C380 H383 0.930 . S
C381 C378 1.348 . S
C381 C379 1.356 . S
H382 C376 0.930 . S
H383 C380 0.930 . S
C384 C386 1.348 . S
C384 C387 1.356 . S
C384 O414 1.325 . S
N385 C388 1.314 . S
N385 C389 1.279 . S
C386 C384 1.348 . S
C386 C388 1.353 . S
C386 H428 0.929 . S
C387 C384 1.356 . S
C387 C389 1.358 . S
C387 H429 0.930 . S
C388 N385 1.314 . S
C388 C386 1.353 . S
C388 H430 0.930 . S
C389 N385 1.279 . S
C389 C387 1.358 . S
C389 H431 0.930 . S
C390 C391 1.348 . S
C390 C392 1.356 1_556 S
C390 O415 1.325 1_556 S
C391 C390 1.348 . S
C391 C393 1.353 . S
C391 H432 0.929 . S
C392 C390 1.356 1_554 S
C392 C394 1.358 1_554 S
C392 H433 0.930 . S
C393 C391 1.353 . S
C393 N395 1.314 . S
C393 H434 0.930 . S
C394 C392 1.358 1_556 S
C394 N395 1.279 . S
C394 H435 0.930 1_556 S
N395 C393 1.314 . S
N395 C394 1.279 . S
C396 C398 1.353 . S
C396 N399 1.314 . S
C396 H402 0.930 . S
C397 N399 1.279 . S
C397 C400 1.358 . S
C397 H403 0.930 . S
C398 C396 1.353 . S
C398 C401 1.348 . S
C398 H436 0.929 . S
N399 Li354 1.990 . S
N399 C396 1.314 . S
N399 C397 1.279 . S
C400 C397 1.358 . S
C400 C401 1.356 . S
C400 H437 0.930 . S
C401 C398 1.348 . S
C401 C400 1.356 . S
H402 C396 0.930 . S
H403 C397 0.930 . S
C404 N405 1.314 . S
C404 C406 1.353 . S
C404 H410 0.930 1_556 S
N405 Li355 1.990 1_556 S
N405 C404 1.314 . S
N405 C408 1.279 . S
C406 C404 1.353 . S
C406 C409 1.348 . S
C406 H438 0.929 . S
C407 C408 1.358 . S
C407 C409 1.356 . S
C407 H439 0.930 . S
C408 N405 1.279 . S
C408 C407 1.358 . S
C408 H411 0.930 . S
C409 C406 1.348 . S
C409 C407 1.356 . S
H410 C404 0.930 1_554 S
H411 C408 0.930 . S
O412 Li352 1.956 . S
O412 Li353 1.970 . S
O412 Li354 1.961 1_554 S
O412 C356 1.325 . S
O413 Li352 1.970 . S
O413 Li353 1.956 . S
O413 Li355 1.961 . S
O413 C362 1.325 . S
O414 Li352 1.961 1_556 S
O414 Li354 1.956 . S
O414 Li355 1.970 1_556 S
O414 C384 1.325 . S
O415 Li353 1.961 . S
O415 Li354 1.970 1_554 S
O415 Li355 1.956 . S
O415 C390 1.325 1_554 S
H416 C358 0.929 . S
H417 C359 0.930 . S
H418 C360 0.930 . S
H419 C361 0.930 . S
H420 C363 0.930 . S
H421 C365 0.929 . S
H422 C366 0.930 . S
H423 C367 0.930 . S
H424 C370 0.930 . S
H425 C373 0.929 . S
H426 C378 0.929 . S
H427 C379 0.930 . S
H428 C386 0.929 . S
H429 C387 0.930 . S
H430 C388 0.930 . S
H431 C389 0.930 . S
H432 C391 0.929 . S
H433 C392 0.930 . S
H434 C393 0.930 . S
H435 C394 0.930 1_554 S
H436 C398 0.929 . S
H437 C400 0.930 . S
H438 C406 0.929 . S
H439 C407 0.930 . S
Li440 N457 1.990 . S
Li440 O500 1.956 . S
Li440 O501 1.970 1_565 S
Li440 O502 1.961 1_554 S
Li441 N465 1.990 . S
Li441 O500 1.970 1_545 S
Li441 O501 1.956 . S
Li441 O503 1.961 . S
Li442 N487 1.990 . S
Li442 O500 1.961 1_556 S
Li442 O502 1.956 . S
Li442 O503 1.970 1_566 S
Li443 N493 1.990 1_554 S
Li443 O501 1.961 . S
Li443 O502 1.970 1_544 S
Li443 O503 1.956 . S
C444 C446 1.348 . S
C444 C447 1.356 . S
C444 O500 1.325 . S
N445 C448 1.314 . S
N445 C449 1.279 . S
C446 C444 1.348 . S
C446 C448 1.353 . S
C446 H504 0.929 . S
C447 C444 1.356 . S
C447 C449 1.358 . S
C447 H505 0.930 1_554 S
C448 N445 1.314 . S
C448 C446 1.353 . S
C448 H506 0.930 . S
C449 N445 1.279 . S
C449 C447 1.358 . S
C449 H507 0.930 . S
C450 C453 1.348 1_545 S
C450 C454 1.356 . S
C450 O501 1.325 . S
C451 N452 1.279 . S
C451 C454 1.358 . S
C451 H508 0.930 . S
N452 C451 1.279 . S
N452 C455 1.314 . S
C453 C450 1.348 1_565 S
C453 C455 1.353 1_565 S
C453 H509 0.929 . S
C454 C450 1.356 . S
C454 C451 1.358 . S
C454 H510 0.930 . S
C455 N452 1.314 . S
C455 C453 1.353 1_545 S
C455 H511 0.930 1_545 S
C456 N457 1.314 . S
C456 C461 1.353 . S
C456 H462 0.930 . S
N457 Li440 1.990 . S
N457 C456 1.314 . S
N457 C459 1.279 . S
C458 C459 1.358 . S
C458 C460 1.356 . S
C458 H512 0.930 . S
C459 N457 1.279 . S
C459 C458 1.358 . S
C459 H463 0.930 . S
C460 C458 1.356 . S
C460 C461 1.348 . S
C461 C456 1.353 . S
C461 C460 1.348 . S
C461 H513 0.929 . S
H462 C456 0.930 . S
H463 C459 0.930 . S
C464 N465 1.314 . S
C464 C466 1.353 . S
C464 H470 0.930 . S
N465 Li441 1.990 . S
N465 C464 1.314 . S
N465 C468 1.279 . S
C466 C464 1.353 . S
C466 C469 1.348 . S
C466 H514 0.929 . S
C467 C468 1.358 . S
C467 C469 1.356 . S
C467 H515 0.930 . S
C468 N465 1.279 . S
C468 C467 1.358 . S
C468 H471 0.930 . S
C469 C466 1.348 . S
C469 C467 1.356 . S
H470 C464 0.930 . S
H471 C468 0.930 . S
C472 C474 1.348 1_565 S
C472 C475 1.356 . S
C472 O502 1.325 . S
N473 C476 1.314 . S
N473 C477 1.279 . S
C474 C472 1.348 1_545 S
C474 C476 1.353 1_545 S
C474 H516 0.929 . S
C475 C472 1.356 . S
C475 C477 1.358 . S
C475 H517 0.930 . S
C476 N473 1.314 . S
C476 C474 1.353 1_565 S
C476 H518 0.930 1_565 S
C477 N473 1.279 . S
C477 C475 1.358 . S
C477 H519 0.930 . S
C478 C479 1.368 . S
C478 C480 1.343 1_556 S
C478 O503 1.320 1_556 S
C479 C478 1.368 . S
C479 C481 1.353 . S
C479 H520 0.929 . S
C480 C478 1.343 1_554 S
C480 C482 1.358 . S
C480 H521 0.930 . S
C481 C479 1.353 . S
C481 N483 1.314 . S
C481 H522 0.930 . S
C482 C480 1.358 . S
C482 N483 1.279 1_554 S
C482 H523 0.930 . S
N483 C481 1.314 . S
N483 C482 1.279 1_556 S
C484 C486 1.353 . S
C484 N487 1.314 . S
C484 H490 0.930 . S
C485 N487 1.279 . S
C485 C488 1.358 . S
C485 H491 0.930 . S
C486 C484 1.353 . S
C486 C489 1.348 . S
C486 H524 0.929 . S
N487 Li442 1.990 . S
N487 C484 1.314 . S
N487 C485 1.279 . S
C488 C485 1.358 . S
C488 C489 1.356 . S
C488 H525 0.930 . S
C489 C486 1.348 . S
C489 C488 1.356 . S
H490 C484 0.930 . S
H491 C485 0.930 . S
C492 N493 1.314 1_554 S
C492 C494 1.353 1_554 S
C492 H498 0.930 . S
N493 Li443 1.990 1_556 S
N493 C492 1.314 1_556 S
N493 C496 1.279 . S
C494 C492 1.353 1_556 S
C494 C497 1.348 . S
C494 H526 0.929 1_556 S
C495 C496 1.358 . S
C495 C497 1.356 . S
C495 H527 0.930 . S
C496 N493 1.279 . S
C496 C495 1.358 . S
C496 H499 0.930 . S
C497 C494 1.348 . S
C497 C495 1.356 . S
H498 C492 0.930 . S
H499 C496 0.930 . S
O500 Li440 1.956 . S
O500 Li441 1.970 1_565 S
O500 Li442 1.961 1_554 S
O500 C444 1.325 . S
O501 Li440 1.970 1_545 S
O501 Li441 1.956 . S
O501 Li443 1.961 . S
O501 C450 1.325 . S
O502 Li440 1.961 1_556 S
O502 Li442 1.956 . S
O502 Li443 1.970 1_566 S
O502 C472 1.325 . S
O503 Li441 1.961 . S
O503 Li442 1.970 1_544 S
O503 Li443 1.956 . S
O503 C478 1.320 1_554 S
H504 C446 0.929 . S
H505 C447 0.930 1_556 S
H506 C448 0.930 . S
H507 C449 0.930 . S
H508 C451 0.930 . S
H509 C453 0.929 . S
H510 C454 0.930 . S
H511 C455 0.930 1_565 S
H512 C458 0.930 . S
H513 C461 0.929 . S
H514 C466 0.929 . S
H515 C467 0.930 . S
H516 C474 0.929 . S
H517 C475 0.930 . S
H518 C476 0.930 1_545 S
H519 C477 0.930 . S
H520 C479 0.929 . S
H521 C480 0.930 . S
H522 C481 0.930 . S
H523 C482 0.930 . S
H524 C486 0.929 . S
H525 C488 0.930 . S
H526 C494 0.929 1_554 S
H527 C495 0.930 . S
Li528 N545 1.990 . S
Li528 O588 1.956 . S
Li528 O589 1.970 . S
Li528 O590 1.961 . S
Li529 N553 1.990 . S
Li529 O588 1.970 . S
Li529 O589 1.956 . S
Li529 O591 1.961 . S
Li530 N575 1.990 . S
Li530 O588 1.961 . S
Li530 O590 1.956 . S
Li530 O591 1.970 . S
Li531 N581 1.990 . S
Li531 O589 1.961 . S
Li531 O590 1.970 . S
Li531 O591 1.956 . S
C532 C534 1.348 . S
C532 C535 1.356 . S
C532 O588 1.325 . S
N533 C536 1.314 . S
N533 C537 1.279 . S
C534 C532 1.348 . S
C534 C536 1.353 . S
C534 H592 0.929 . S
C535 C532 1.356 . S
C535 C537 1.358 . S
C535 H593 0.930 . S
C536 N533 1.314 . S
C536 C534 1.353 . S
C536 H594 0.930 . S
C537 N533 1.279 . S
C537 C535 1.358 . S
C537 H595 0.930 . S
C538 C541 1.348 . S
C538 C542 1.356 . S
C538 O589 1.325 . S
C539 N540 1.279 . S
C539 C542 1.358 . S
C539 H596 0.930 . S
N540 C539 1.279 . S
N540 C543 1.314 . S
C541 C538 1.348 . S
C541 C543 1.353 . S
C541 H597 0.929 . S
C542 C538 1.356 . S
C542 C539 1.358 . S
C542 H598 0.930 . S
C543 N540 1.314 . S
C543 C541 1.353 . S
C543 H599 0.930 . S
C544 N545 1.314 . S
C544 C549 1.353 . S
C544 H550 0.930 . S
N545 Li528 1.990 . S
N545 C544 1.314 . S
N545 C547 1.279 . S
C546 C547 1.358 . S
C546 C548 1.356 . S
C546 H600 0.930 . S
C547 N545 1.279 . S
C547 C546 1.358 . S
C547 H551 0.930 . S
C548 C546 1.356 . S
C548 C549 1.348 . S
C549 C544 1.353 . S
C549 C548 1.348 . S
C549 H601 0.929 . S
H550 C544 0.930 . S
H551 C547 0.930 . S
C552 N553 1.314 . S
C552 C554 1.353 . S
C552 H558 0.930 . S
N553 Li529 1.990 . S
N553 C552 1.314 . S
N553 C556 1.279 . S
C554 C552 1.353 . S
C554 C557 1.348 . S
C554 H602 0.929 . S
C555 C556 1.358 . S
C555 C557 1.356 . S
C555 H603 0.930 . S
C556 N553 1.279 . S
C556 C555 1.358 . S
C556 H559 0.930 . S
C557 C554 1.348 . S
C557 C555 1.356 . S
H558 C552 0.930 . S
H559 C556 0.930 . S
C560 C562 1.348 . S
C560 C563 1.356 . S
C560 O590 1.325 . S
N561 C564 1.314 . S
N561 C565 1.279 . S
C562 C560 1.348 . S
C562 C564 1.353 . S
C562 H604 0.929 . S
C563 C560 1.356 . S
C563 C565 1.358 . S
C563 H605 0.930 . S
C564 N561 1.314 . S
C564 C562 1.353 . S
C564 H606 0.930 . S
C565 N561 1.279 . S
C565 C563 1.358 . S
C565 H607 0.930 . S
C566 C567 1.348 . S
C566 C568 1.356 . S
C566 O591 1.325 . S
C567 C566 1.348 . S
C567 C569 1.353 . S
C567 H608 0.929 . S
C568 C566 1.356 . S
C568 C570 1.358 . S
C568 H609 0.930 . S
C569 C567 1.353 . S
C569 N571 1.314 . S
C569 H610 0.930 . S
C570 C568 1.358 . S
C570 N571 1.279 . S
C570 H611 0.930 . S
N571 C569 1.314 . S
N571 C570 1.279 . S
C572 C574 1.353 . S
C572 N575 1.314 . S
C572 H578 0.930 . S
C573 N575 1.279 . S
C573 C576 1.358 . S
C573 H579 0.930 . S
C574 C572 1.353 . S
C574 C577 1.348 . S
C574 H612 0.929 . S
N575 Li530 1.990 . S
N575 C572 1.314 . S
N575 C573 1.279 . S
C576 C573 1.358 . S
C576 C577 1.356 . S
C576 H613 0.930 . S
C577 C574 1.348 . S
C577 C576 1.356 . S
H578 C572 0.930 . S
H579 C573 0.930 . S
C580 N581 1.314 . S
C580 C582 1.353 . S
C580 H586 0.930 . S
N581 Li531 1.990 . S
N581 C580 1.314 . S
N581 C584 1.279 . S
C582 C580 1.353 . S
C582 C585 1.348 . S
C582 H614 0.929 . S
C583 C584 1.358 . S
C583 C585 1.356 . S
C583 H615 0.930 . S
C584 N581 1.279 . S
C584 C583 1.358 . S
C584 H587 0.930 . S
C585 C582 1.348 . S
C585 C583 1.356 . S
H586 C580 0.930 . S
H587 C584 0.930 . S
O588 Li528 1.956 . S
O588 Li529 1.970 . S
O588 Li530 1.961 . S
O588 C532 1.325 . S
O589 Li528 1.970 . S
O589 Li529 1.956 . S
O589 Li531 1.961 . S
O589 C538 1.325 . S
O590 Li528 1.961 . S
O590 Li530 1.956 . S
O590 Li531 1.970 . S
O590 C560 1.325 . S
O591 Li529 1.961 . S
O591 Li530 1.970 . S
O591 Li531 1.956 . S
O591 C566 1.325 . S
H592 C534 0.929 . S
H593 C535 0.930 . S
H594 C536 0.930 . S
H595 C537 0.930 . S
H596 C539 0.930 . S
H597 C541 0.929 . S
H598 C542 0.930 . S
H599 C543 0.930 . S
H600 C546 0.930 . S
H601 C549 0.929 . S
H602 C554 0.929 . S
H603 C555 0.930 . S
H604 C562 0.929 . S
H605 C563 0.930 . S
H606 C564 0.930 . S
H607 C565 0.930 . S
H608 C567 0.929 . S
H609 C568 0.930 . S
H610 C569 0.930 . S
H611 C570 0.930 . S
H612 C574 0.929 . S
H613 C576 0.930 . S
H614 C582 0.929 . S
H615 C583 0.930 . S
Li616 N633 1.990 . S
Li616 O676 1.956 . S
Li616 O677 1.970 . S
Li616 O678 1.961 . S
Li617 N641 1.990 . S
Li617 O676 1.970 . S
Li617 O677 1.956 . S
Li617 O679 1.961 . S
Li618 N663 1.990 1_565 S
Li618 O676 1.961 . S
Li618 O678 1.956 . S
Li618 O679 1.970 . S
Li619 N669 1.990 . S
Li619 O677 1.961 . S
Li619 O678 1.970 . S
Li619 O679 1.956 . S
C620 C622 1.348 . S
C620 C623 1.356 . S
C620 O676 1.325 . S
N621 C624 1.314 . S
N621 C625 1.279 . S
C622 C620 1.348 . S
C622 C624 1.353 . S
C622 H680 0.929 . S
C623 C620 1.356 . S
C623 C625 1.358 . S
C623 H681 0.930 . S
C624 N621 1.314 . S
C624 C622 1.353 . S
C624 H682 0.930 . S
C625 N621 1.279 . S
C625 C623 1.358 . S
C625 H683 0.930 . S
C626 C629 1.348 . S
C626 C630 1.356 . S
C626 O677 1.325 . S
C627 N628 1.279 . S
C627 C630 1.358 . S
C627 H684 0.930 . S
N628 C627 1.279 . S
N628 C631 1.314 . S
C629 C626 1.348 . S
C629 C631 1.353 . S
C629 H685 0.929 . S
C630 C626 1.356 . S
C630 C627 1.358 . S
C630 H686 0.930 . S
C631 N628 1.314 . S
C631 C629 1.353 . S
C631 H687 0.930 . S
C632 N633 1.314 . S
C632 C637 1.353 . S
C632 H638 0.930 . S
N633 Li616 1.990 . S
N633 C632 1.314 . S
N633 C635 1.279 . S
C634 C635 1.358 . S
C634 C636 1.356 . S
C634 H688 0.930 . S
C635 N633 1.279 . S
C635 C634 1.358 . S
C635 H639 0.930 . S
C636 C634 1.356 . S
C636 C637 1.348 . S
C637 C632 1.353 . S
C637 C636 1.348 . S
C637 H689 0.929 . S
H638 C632 0.930 . S
H639 C635 0.930 . S
C640 N641 1.314 . S
C640 C642 1.353 . S
C640 H646 0.930 . S
N641 Li617 1.990 . S
N641 C640 1.314 . S
N641 C644 1.279 . S
C642 C640 1.353 . S
C642 C645 1.348 . S
C642 H690 0.929 . S
C643 C644 1.358 . S
C643 C645 1.356 . S
C643 H691 0.930 . S
C644 N641 1.279 . S
C644 C643 1.358 . S
C644 H647 0.930 . S
C645 C642 1.348 . S
C645 C643 1.356 . S
H646 C640 0.930 . S
H647 C644 0.930 . S
C648 C650 1.348 . S
C648 C651 1.356 . S
C648 O678 1.325 1_545 S
N649 C652 1.314 . S
N649 C653 1.279 . S
C650 C648 1.348 . S
C650 C652 1.353 . S
C650 H692 0.929 . S
C651 C648 1.356 . S
C651 C653 1.358 . S
C651 H693 0.930 . S
C652 N649 1.314 . S
C652 C650 1.353 . S
C652 H694 0.930 . S
C653 N649 1.279 . S
C653 C651 1.358 . S
C653 H695 0.930 . S
C654 C655 1.348 1_565 S
C654 C656 1.356 . S
C654 O679 1.325 . S
C655 C654 1.348 1_545 S
C655 C657 1.353 . S
C655 H696 0.929 . S
C656 C654 1.356 . S
C656 C658 1.358 . S
C656 H697 0.930 . S
C657 C655 1.353 . S
C657 N659 1.314 . S
C657 H698 0.930 . S
C658 C656 1.358 . S
C658 N659 1.279 1_565 S
C658 H699 0.930 . S
N659 C657 1.314 . S
N659 C658 1.279 1_545 S
C660 C662 1.353 . S
C660 N663 1.314 . S
C660 H666 0.930 . S
C661 N663 1.279 . S
C661 C664 1.358 . S
C661 H667 0.930 . S
C662 C660 1.353 . S
C662 C665 1.348 . S
C662 H700 0.929 . S
N663 Li618 1.990 1_545 S
N663 C660 1.314 . S
N663 C661 1.279 . S
C664 C661 1.358 . S
C664 C665 1.356 . S
C664 H701 0.930 . S
C665 C662 1.348 . S
C665 C664 1.356 . S
H666 C660 0.930 . S
H667 C661 0.930 . S
C668 N669 1.314 . S
C668 C670 1.353 . S
C668 H674 0.930 . S
N669 Li619 1.990 . S
N669 C668 1.314 . S
N669 C672 1.279 . S
C670 C668 1.353 . S
C670 C673 1.348 . S
C670 H702 0.929 . S
C671 C672 1.358 . S
C671 C673 1.356 . S
C671 H703 0.930 . S
C672 N669 1.279 . S
C672 C671 1.358 . S
C672 H675 0.930 . S
C673 C670 1.348 . S
C673 C671 1.356 . S
H674 C668 0.930 . S
H675 C672 0.930 . S
O676 Li616 1.956 . S
O676 Li617 1.970 . S
O676 Li618 1.961 . S
O676 C620 1.325 . S
O677 Li616 1.970 . S
O677 Li617 1.956 . S
O677 Li619 1.961 . S
O677 C626 1.325 . S
O678 Li616 1.961 . S
O678 Li618 1.956 . S
O678 Li619 1.970 . S
O678 C648 1.325 1_565 S
O679 Li617 1.961 . S
O679 Li618 1.970 . S
O679 Li619 1.956 . S
O679 C654 1.325 . S
H680 C622 0.929 . S
H681 C623 0.930 . S
H682 C624 0.930 . S
H683 C625 0.930 . S
H684 C627 0.930 . S
H685 C629 0.929 . S
H686 C630 0.930 . S
H687 C631 0.930 . S
H688 C634 0.930 . S
H689 C637 0.929 . S
H690 C642 0.929 . S
H691 C643 0.930 . S
H692 C650 0.929 . S
H693 C651 0.930 . S
H694 C652 0.930 . S
H695 C653 0.930 . S
H696 C655 0.929 . S
H697 C656 0.930 . S
H698 C657 0.930 . S
H699 C658 0.930 . S
H700 C662 0.929 . S
H701 C664 0.930 . S
H702 C670 0.929 . S
H703 C671 0.930 . S
Li704 N721 1.990 . S
Li704 O764 1.956 . S
Li704 O765 1.970 . S
Li704 O766 1.961 . S
Li705 N729 1.990 . S
Li705 O764 1.970 . S
Li705 O765 1.956 . S
Li705 O767 1.961 . S
Li706 N751 1.990 1_455 S
Li706 O764 1.961 . S
Li706 O766 1.956 . S
Li706 O767 1.970 . S
Li707 N757 1.990 . S
Li707 O765 1.961 . S
Li707 O766 1.970 . S
Li707 O767 1.956 . S
C708 C710 1.348 . S
C708 C711 1.356 . S
C708 O764 1.325 . S
N709 C712 1.314 . S
N709 C713 1.279 . S
C710 C708 1.348 . S
C710 C712 1.353 . S
C710 H768 0.929 . S
C711 C708 1.356 . S
C711 C713 1.358 . S
C711 H769 0.930 . S
C712 N709 1.314 . S
C712 C710 1.353 . S
C712 H770 0.930 . S
C713 N709 1.279 . S
C713 C711 1.358 . S
C713 H771 0.930 . S
C714 C717 1.348 . S
C714 C718 1.356 . S
C714 O765 1.325 . S
C715 N716 1.279 . S
C715 C718 1.358 . S
C715 H772 0.930 . S
N716 C715 1.279 . S
N716 C719 1.314 . S
C717 C714 1.348 . S
C717 C719 1.353 . S
C717 H773 0.929 . S
C718 C714 1.356 . S
C718 C715 1.358 . S
C718 H774 0.930 . S
C719 N716 1.314 . S
C719 C717 1.353 . S
C719 H775 0.930 . S
C720 N721 1.314 . S
C720 C725 1.353 . S
C720 H726 0.930 . S
N721 Li704 1.990 . S
N721 C720 1.314 . S
N721 C723 1.279 . S
C722 C723 1.358 . S
C722 C724 1.356 . S
C722 H776 0.930 . S
C723 N721 1.279 . S
C723 C722 1.358 . S
C723 H727 0.930 . S
C724 C722 1.356 . S
C724 C725 1.348 . S
C725 C720 1.353 . S
C725 C724 1.348 . S
C725 H777 0.929 . S
H726 C720 0.930 . S
H727 C723 0.930 . S
C728 N729 1.314 . S
C728 C730 1.353 . S
C728 H734 0.930 . S
N729 Li705 1.990 . S
N729 C728 1.314 . S
N729 C732 1.279 . S
C730 C728 1.353 . S
C730 C733 1.348 . S
C730 H778 0.929 . S
C731 C732 1.358 . S
C731 C733 1.356 . S
C731 H779 0.930 . S
C732 N729 1.279 . S
C732 C731 1.358 . S
C732 H735 0.930 . S
C733 C730 1.348 . S
C733 C731 1.356 . S
H734 C728 0.930 . S
H735 C732 0.930 . S
C736 C738 1.348 . S
C736 C739 1.356 . S
C736 O766 1.325 1_655 S
N737 C740 1.314 . S
N737 C741 1.279 . S
C738 C736 1.348 . S
C738 C740 1.353 . S
C738 H780 0.929 . S
C739 C736 1.356 . S
C739 C741 1.358 . S
C739 H781 0.930 . S
C740 N737 1.314 . S
C740 C738 1.353 . S
C740 H782 0.930 . S
C741 N737 1.279 . S
C741 C739 1.358 . S
C741 H783 0.930 . S
C742 C743 1.348 1_455 S
C742 C744 1.356 . S
C742 O767 1.325 . S
C743 C742 1.348 1_655 S
C743 C745 1.353 . S
C743 H784 0.929 . S
C744 C742 1.356 . S
C744 C746 1.358 . S
C744 H785 0.930 . S
C745 C743 1.353 . S
C745 N747 1.314 . S
C745 H786 0.930 . S
C746 C744 1.358 . S
C746 N747 1.282 1_455 S
C746 H787 0.930 . S
N747 C745 1.314 . S
N747 C746 1.282 1_655 S
C748 C750 1.353 . S
C748 N751 1.314 . S
C748 H754 0.930 . S
C749 N751 1.279 . S
C749 C752 1.358 . S
C749 H755 0.930 . S
C750 C748 1.353 . S
C750 C753 1.348 . S
C750 H788 0.929 . S
N751 Li706 1.990 1_655 S
N751 C748 1.314 . S
N751 C749 1.279 . S
C752 C749 1.358 . S
C752 C753 1.356 . S
C752 H789 0.930 . S
C753 C750 1.348 . S
C753 C752 1.356 . S
H754 C748 0.930 . S
H755 C749 0.930 . S
C756 N757 1.314 . S
C756 C758 1.353 . S
C756 H762 0.930 . S
N757 Li707 1.990 . S
N757 C756 1.314 . S
N757 C760 1.279 . S
C758 C756 1.353 . S
C758 C761 1.348 . S
C758 H790 0.929 . S
C759 C760 1.358 . S
C759 C761 1.356 . S
C759 H791 0.930 . S
C760 N757 1.279 . S
C760 C759 1.358 . S
C760 H763 0.930 . S
C761 C758 1.348 . S
C761 C759 1.356 . S
H762 C756 0.930 . S
H763 C760 0.930 . S
O764 Li704 1.956 . S
O764 Li705 1.970 . S
O764 Li706 1.961 . S
O764 C708 1.325 . S
O765 Li704 1.970 . S
O765 Li705 1.956 . S
O765 Li707 1.961 . S
O765 C714 1.325 . S
O766 Li704 1.961 . S
O766 Li706 1.956 . S
O766 Li707 1.970 . S
O766 C736 1.325 1_455 S
O767 Li705 1.961 . S
O767 Li706 1.970 . S
O767 Li707 1.956 . S
O767 C742 1.325 . S
H768 C710 0.929 . S
H769 C711 0.930 . S
H770 C712 0.930 . S
H771 C713 0.930 . S
H772 C715 0.930 . S
H773 C717 0.929 . S
H774 C718 0.930 . S
H775 C719 0.930 . S
H776 C722 0.930 . S
H777 C725 0.929 . S
H778 C730 0.929 . S
H779 C731 0.930 . S
H780 C738 0.929 . S
H781 C739 0.930 . S
H782 C740 0.930 . S
H783 C741 0.930 . S
H784 C743 0.929 . S
H785 C744 0.930 . S
H786 C745 0.930 . S
H787 C746 0.930 . S
H788 C750 0.929 . S
H789 C752 0.930 . S
H790 C758 0.929 . S
H791 C759 0.930 . S
Li792 N809 1.990 1_565 S
Li792 O852 1.956 . S
Li792 O853 1.970 . S
Li792 O854 1.961 . S
Li793 N817 1.990 . S
Li793 O852 1.970 . S
Li793 O853 1.956 . S
Li793 O855 1.961 . S
Li794 N839 1.990 . S
Li794 O852 1.961 . S
Li794 O854 1.956 . S
Li794 O855 1.970 . S
Li795 N845 1.990 . S
Li795 O853 1.961 . S
Li795 O854 1.970 . S
Li795 O855 1.956 . S
C796 C798 1.348 . S
C796 C799 1.356 . S
C796 O852 1.325 . S
N797 C800 1.314 . S
N797 C801 1.279 . S
C798 C796 1.348 . S
C798 C800 1.353 . S
C798 H856 0.929 . S
C799 C796 1.356 . S
C799 C801 1.358 . S
C799 H857 0.930 . S
C800 N797 1.314 . S
C800 C798 1.353 . S
C800 H858 0.930 . S
C801 N797 1.279 . S
C801 C799 1.358 . S
C801 H859 0.930 . S
C802 C805 1.348 1_565 S
C802 C806 1.356 . S
C802 O853 1.325 . S
C803 N804 1.284 . S
C803 C806 1.358 . S
C803 H860 0.930 . S
N804 C803 1.284 . S
N804 C807 1.315 1_565 S
C805 C802 1.348 1_545 S
C805 C807 1.353 . S
C805 H861 0.929 . S
C806 C802 1.356 . S
C806 C803 1.358 . S
C806 H862 0.930 . S
C807 N804 1.315 1_545 S
C807 C805 1.353 . S
C807 H863 0.930 . S
C808 N809 1.314 . S
C808 C813 1.353 . S
C808 H814 0.930 . S
N809 Li792 1.990 1_545 S
N809 C808 1.314 . S
N809 C811 1.279 . S
C810 C811 1.358 . S
C810 C812 1.356 . S
C810 H864 0.930 . S
C811 N809 1.279 . S
C811 C810 1.358 . S
C811 H815 0.930 . S
C812 C810 1.356 . S
C812 C813 1.348 . S
C813 C808 1.353 . S
C813 C812 1.348 . S
C813 H865 0.929 . S
H814 C808 0.930 . S
H815 C811 0.930 . S
C816 N817 1.314 . S
C816 C818 1.353 . S
C816 H822 0.930 . S
N817 Li793 1.990 . S
N817 C816 1.314 . S
N817 C820 1.279 . S
C818 C816 1.353 . S
C818 C821 1.348 . S
C818 H866 0.929 . S
C819 C820 1.358 . S
C819 C821 1.356 . S
C819 H867 0.930 . S
C820 N817 1.279 . S
C820 C819 1.358 . S
C820 H823 0.930 . S
C821 C818 1.348 . S
C821 C819 1.356 . S
H822 C816 0.930 . S
H823 C820 0.930 . S
C824 C826 1.348 . S
C824 C827 1.356 . S
C824 O854 1.325 1_545 S
N825 C828 1.314 . S
N825 C829 1.279 . S
C826 C824 1.348 . S
C826 C828 1.353 . S
C826 H868 0.929 1_545 S
C827 C824 1.356 . S
C827 C829 1.358 . S
C827 H869 0.930 . S
C828 N825 1.314 . S
C828 C826 1.353 . S
C828 H870 0.930 . S
C829 N825 1.279 . S
C829 C827 1.358 . S
C829 H871 0.930 . S
C830 C831 1.348 . S
C830 C832 1.356 . S
C830 O855 1.325 . S
C831 C830 1.348 . S
C831 C833 1.353 . S
C831 H872 0.929 . S
C832 C830 1.356 . S
C832 C834 1.358 . S
C832 H873 0.930 . S
C833 C831 1.353 . S
C833 N835 1.314 . S
C833 H874 0.930 . S
C834 C832 1.358 . S
C834 N835 1.279 . S
C834 H875 0.930 . S
N835 C833 1.314 . S
N835 C834 1.279 . S
C836 C838 1.353 . S
C836 N839 1.314 . S
C836 H842 0.930 . S
C837 N839 1.279 . S
C837 C840 1.358 . S
C837 H843 0.930 . S
C838 C836 1.353 . S
C838 C841 1.348 . S
C838 H876 0.929 . S
N839 Li794 1.990 . S
N839 C836 1.314 . S
N839 C837 1.279 . S
C840 C837 1.358 . S
C840 C841 1.356 . S
C840 H877 0.930 . S
C841 C838 1.348 . S
C841 C840 1.356 . S
H842 C836 0.930 . S
H843 C837 0.930 . S
C844 N845 1.314 . S
C844 C846 1.353 . S
C844 H850 0.917 1_565 S
N845 Li795 1.990 . S
N845 C844 1.314 . S
N845 C848 1.279 . S
C846 C844 1.353 . S
C846 C849 1.348 . S
C846 H878 0.929 1_565 S
C847 C848 1.358 . S
C847 C849 1.356 . S
C847 H879 0.930 . S
C848 N845 1.279 . S
C848 C847 1.358 . S
C848 H851 0.930 . S
C849 C846 1.348 . S
C849 C847 1.356 . S
H850 C844 0.917 1_545 S
H851 C848 0.930 . S
O852 Li792 1.956 . S
O852 Li793 1.970 . S
O852 Li794 1.961 . S
O852 C796 1.325 . S
O853 Li792 1.970 . S
O853 Li793 1.956 . S
O853 Li795 1.961 . S
O853 C802 1.325 . S
O854 Li792 1.961 . S
O854 Li794 1.956 . S
O854 Li795 1.970 . S
O854 C824 1.325 1_565 S
O855 Li793 1.961 . S
O855 Li794 1.970 . S
O855 Li795 1.956 . S
O855 C830 1.325 . S
H856 C798 0.929 . S
H857 C799 0.930 . S
H858 C800 0.930 . S
H859 C801 0.930 . S
H860 C803 0.930 . S
H861 C805 0.929 . S
H862 C806 0.930 . S
H863 C807 0.930 . S
H864 C810 0.930 . S
H865 C813 0.929 . S
H866 C818 0.929 . S
H867 C819 0.930 . S
H868 C826 0.929 1_565 S
H869 C827 0.930 . S
H870 C828 0.930 . S
H871 C829 0.930 . S
H872 C831 0.929 . S
H873 C832 0.930 . S
H874 C833 0.930 . S
H875 C834 0.930 . S
H876 C838 0.929 . S
H877 C840 0.930 . S
H878 C846 0.929 1_545 S
H879 C847 0.930 . S
Li880 N897 1.990 . S
Li880 O940 1.956 . S
Li880 O941 1.970 . S
Li880 O942 1.961 . S
Li881 N905 1.990 1_455 S
Li881 O940 1.970 . S
Li881 O941 1.956 . S
Li881 O943 1.961 . S
Li882 N927 1.990 . S
Li882 O940 1.961 . S
Li882 O942 1.956 . S
Li882 O943 1.970 . S
Li883 N933 1.990 . S
Li883 O941 1.961 . S
Li883 O942 1.970 . S
Li883 O943 1.956 . S
C884 C886 1.348 1_455 S
C884 C887 1.356 . S
C884 O940 1.325 . S
N885 C888 1.312 1_455 S
N885 C889 1.281 . S
C886 C884 1.348 1_655 S
C886 C888 1.353 . S
C886 H944 0.929 . S
C887 C884 1.356 . S
C887 C889 1.358 . S
C887 H945 0.930 . S
C888 N885 1.312 1_655 S
C888 C886 1.353 . S
C888 H946 0.930 . S
C889 N885 1.281 . S
C889 C887 1.358 . S
C889 H947 0.930 . S
C890 C893 1.348 . S
C890 C894 1.356 . S
C890 O941 1.325 . S
C891 N892 1.279 . S
C891 C894 1.358 . S
C891 H948 0.930 . S
N892 C891 1.279 . S
N892 C895 1.314 . S
C893 C890 1.348 . S
C893 C895 1.353 . S
C893 H949 0.929 . S
C894 C890 1.356 . S
C894 C891 1.358 . S
C894 H950 0.930 . S
C895 N892 1.314 . S
C895 C893 1.353 . S
C895 H951 0.930 . S
C896 N897 1.314 . S
C896 C901 1.353 . S
C896 H902 0.930 . S
N897 Li880 1.990 . S
N897 C896 1.314 . S
N897 C899 1.279 . S
C898 C899 1.358 . S
C898 C900 1.356 . S
C898 H952 0.930 . S
C899 N897 1.279 . S
C899 C898 1.358 . S
C899 H903 0.930 . S
C900 C898 1.356 . S
C900 C901 1.348 . S
C901 C896 1.353 . S
C901 C900 1.348 . S
C901 H953 0.929 . S
H902 C896 0.930 . S
H903 C899 0.930 . S
C904 N905 1.314 . S
C904 C906 1.353 . S
C904 H910 0.930 . S
N905 Li881 1.990 1_655 S
N905 C904 1.314 . S
N905 C908 1.279 . S
C906 C904 1.353 . S
C906 C909 1.348 . S
C906 H954 0.929 . S
C907 C908 1.358 . S
C907 C909 1.356 . S
C907 H955 0.930 . S
C908 N905 1.279 . S
C908 C907 1.358 . S
C908 H911 0.930 . S
C909 C906 1.348 . S
C909 C907 1.356 . S
H910 C904 0.930 . S
H911 C908 0.930 . S
C912 C914 1.348 . S
C912 C915 1.356 . S
C912 O942 1.325 . S
N913 C916 1.314 . S
N913 C917 1.279 . S
C914 C912 1.348 . S
C914 C916 1.353 . S
C914 H956 0.929 . S
C915 C912 1.356 . S
C915 C917 1.358 . S
C915 H957 0.930 . S
C916 N913 1.314 . S
C916 C914 1.353 . S
C916 H958 0.930 . S
C917 N913 1.279 . S
C917 C915 1.358 . S
C917 H959 0.930 . S
C918 C919 1.348 . S
C918 C920 1.356 . S
C918 O943 1.325 1_655 S
C919 C918 1.348 . S
C919 C921 1.353 . S
C919 H960 0.929 1_655 S
C920 C918 1.356 . S
C920 C922 1.358 . S
C920 H961 0.930 . S
C921 C919 1.353 . S
C921 N923 1.314 . S
C921 H962 0.930 . S
C922 C920 1.358 . S
C922 N923 1.279 . S
C922 H963 0.930 . S
N923 C921 1.314 . S
N923 C922 1.279 . S
C924 C926 1.353 . S
C924 N927 1.314 . S
C924 H930 0.876 1_455 S
C925 N927 1.279 . S
C925 C928 1.358 . S
C925 H931 0.930 . S
C926 C924 1.353 . S
C926 C929 1.348 . S
C926 H964 0.929 1_455 S
N927 Li882 1.990 . S
N927 C924 1.314 . S
N927 C925 1.279 . S
C928 C925 1.358 . S
C928 C929 1.356 . S
C928 H965 0.930 . S
C929 C926 1.348 . S
C929 C928 1.356 . S
H930 C924 0.876 1_655 S
H931 C925 0.930 . S
C932 N933 1.314 . S
C932 C934 1.353 . S
C932 H938 0.930 . S
N933 Li883 1.990 . S
N933 C932 1.314 . S
N933 C936 1.279 . S
C934 C932 1.353 . S
C934 C937 1.348 . S
C934 H966 0.929 . S
C935 C936 1.358 . S
C935 C937 1.356 . S
C935 H967 0.930 . S
C936 N933 1.279 . S
C936 C935 1.358 . S
C936 H939 0.930 . S
C937 C934 1.348 . S
C937 C935 1.356 . S
H938 C932 0.930 . S
H939 C936 0.930 . S
O940 Li880 1.956 . S
O940 Li881 1.970 . S
O940 Li882 1.961 . S
O940 C884 1.325 . S
O941 Li880 1.970 . S
O941 Li881 1.956 . S
O941 Li883 1.961 . S
O941 C890 1.325 . S
O942 Li880 1.961 . S
O942 Li882 1.956 . S
O942 Li883 1.970 . S
O942 C912 1.325 . S
O943 Li881 1.961 . S
O943 Li882 1.970 . S
O943 Li883 1.956 . S
O943 C918 1.325 1_455 S
H944 C886 0.929 . S
H945 C887 0.930 . S
H946 C888 0.930 . S
H947 C889 0.930 . S
H948 C891 0.930 . S
H949 C893 0.929 . S
H950 C894 0.930 . S
H951 C895 0.930 . S
H952 C898 0.930 . S
H953 C901 0.929 . S
H954 C906 0.929 . S
H955 C907 0.930 . S
H956 C914 0.929 . S
H957 C915 0.930 . S
H958 C916 0.930 . S
H959 C917 0.930 . S
H960 C919 0.929 1_455 S
H961 C920 0.930 . S
H962 C921 0.930 . S
H963 C922 0.930 . S
H964 C926 0.929 1_655 S
H965 C928 0.930 . S
H966 C934 0.929 . S
H967 C935 0.930 . S
Li968 N985 1.990 . S
Li968 O1028 1.956 . S
Li968 O1029 1.970 . S
Li968 O1030 1.961 . S
Li969 N993 1.990 . S
Li969 O1028 1.970 . S
Li969 O1029 1.956 . S
Li969 O1031 1.961 . S
Li970 N1015 1.990 . S
Li970 O1028 1.961 . S
Li970 O1030 1.956 . S
Li970 O1031 1.970 . S
Li971 N1021 1.990 . S
Li971 O1029 1.961 . S
Li971 O1030 1.970 . S
Li971 O1031 1.956 . S
C972 C974 1.348 . S
C972 C975 1.356 . S
C972 O1028 1.325 . S
N973 C976 1.314 . S
N973 C977 1.279 . S
C974 C972 1.348 . S
C974 C976 1.353 . S
C974 H1032 0.929 . S
C975 C972 1.356 . S
C975 C977 1.358 . S
C975 H1033 0.930 . S
C976 N973 1.314 . S
C976 C974 1.353 . S
C976 H1034 0.930 . S
C977 N973 1.279 . S
C977 C975 1.358 . S
C977 H1035 0.930 . S
C978 C981 1.348 . S
C978 C982 1.356 . S
C978 O1029 1.325 . S
C979 N980 1.279 . S
C979 C982 1.358 . S
C979 H1036 0.930 . S
N980 C979 1.279 . S
N980 C983 1.314 . S
C981 C978 1.348 . S
C981 C983 1.353 . S
C981 H1037 0.929 . S
C982 C978 1.356 . S
C982 C979 1.358 . S
C982 H1038 0.930 . S
C983 N980 1.314 . S
C983 C981 1.353 . S
C983 H1039 0.930 . S
C984 N985 1.314 . S
C984 C989 1.353 . S
C984 H990 0.930 . S
N985 Li968 1.990 . S
N985 C984 1.314 . S
N985 C987 1.279 . S
C986 C987 1.358 . S
C986 C988 1.356 . S
C986 H1040 0.930 . S
C987 N985 1.279 . S
C987 C986 1.358 . S
C987 H991 0.930 . S
C988 C986 1.356 . S
C988 C989 1.348 . S
C989 C984 1.353 . S
C989 C988 1.348 . S
C989 H1041 0.929 . S
H990 C984 0.930 . S
H991 C987 0.930 . S
C992 N993 1.314 . S
C992 C994 1.353 . S
C992 H998 0.930 . S
N993 Li969 1.990 . S
N993 C992 1.314 . S
N993 C996 1.279 . S
C994 C992 1.353 . S
C994 C997 1.348 . S
C994 H1042 0.929 . S
C995 C996 1.358 . S
C995 C997 1.356 . S
C995 H1043 0.930 . S
C996 N993 1.279 . S
C996 C995 1.358 . S
C996 H999 0.930 . S
C997 C994 1.348 . S
C997 C995 1.356 . S
H998 C992 0.930 . S
H999 C996 0.930 . S
C1000 C1002 1.348 . S
C1000 C1003 1.356 . S
C1000 O1030 1.325 . S
N1001 C1004 1.314 . S
N1001 C1005 1.279 . S
C1002 C1000 1.348 . S
C1002 C1004 1.353 . S
C1002 H1044 0.929 . S
C1003 C1000 1.356 . S
C1003 C1005 1.358 . S
C1003 H1045 0.930 . S
C1004 N1001 1.314 . S
C1004 C1002 1.353 . S
C1004 H1046 0.930 . S
C1005 N1001 1.279 . S
C1005 C1003 1.358 . S
C1005 H1047 0.930 . S
C1006 C1007 1.348 . S
C1006 C1008 1.356 . S
C1006 O1031 1.325 . S
C1007 C1006 1.348 . S
C1007 C1009 1.353 . S
C1007 H1048 0.929 . S
C1008 C1006 1.356 . S
C1008 C1010 1.358 . S
C1008 H1049 0.930 . S
C1009 C1007 1.353 . S
C1009 N1011 1.314 . S
C1009 H1050 0.930 . S
C1010 C1008 1.358 . S
C1010 N1011 1.279 . S
C1010 H1051 0.930 . S
N1011 C1009 1.314 . S
N1011 C1010 1.279 . S
C1012 C1014 1.353 . S
C1012 N1015 1.314 . S
C1012 H1018 0.930 . S
C1013 N1015 1.279 . S
C1013 C1016 1.358 . S
C1013 H1019 0.930 . S
C1014 C1012 1.353 . S
C1014 C1017 1.348 . S
C1014 H1052 0.929 . S
N1015 Li970 1.990 . S
N1015 C1012 1.314 . S
N1015 C1013 1.279 . S
C1016 C1013 1.358 . S
C1016 C1017 1.356 . S
C1016 H1053 0.930 . S
C1017 C1014 1.348 . S
C1017 C1016 1.356 . S
H1018 C1012 0.930 . S
H1019 C1013 0.930 . S
C1020 N1021 1.314 . S
C1020 C1022 1.353 . S
C1020 H1026 0.930 . S
N1021 Li971 1.990 . S
N1021 C1020 1.314 . S
N1021 C1024 1.279 . S
C1022 C1020 1.353 . S
C1022 C1025 1.348 . S
C1022 H1054 0.929 . S
C1023 C1024 1.358 . S
C1023 C1025 1.356 . S
C1023 H1055 0.930 . S
C1024 N1021 1.279 . S
C1024 C1023 1.358 . S
C1024 H1027 0.930 . S
C1025 C1022 1.348 . S
C1025 C1023 1.356 . S
H1026 C1020 0.930 . S
H1027 C1024 0.930 . S
O1028 Li968 1.956 . S
O1028 Li969 1.970 . S
O1028 Li970 1.961 . S
O1028 C972 1.325 . S
O1029 Li968 1.970 . S
O1029 Li969 1.956 . S
O1029 Li971 1.961 . S
O1029 C978 1.325 . S
O1030 Li968 1.961 . S
O1030 Li970 1.956 . S
O1030 Li971 1.970 . S
O1030 C1000 1.325 . S
O1031 Li969 1.961 . S
O1031 Li970 1.970 . S
O1031 Li971 1.956 . S
O1031 C1006 1.325 . S
H1032 C974 0.929 . S
H1033 C975 0.930 . S
H1034 C976 0.930 . S
H1035 C977 0.930 . S
H1036 C979 0.930 . S
H1037 C981 0.929 . S
H1038 C982 0.930 . S
H1039 C983 0.930 . S
H1040 C986 0.930 . S
H1041 C989 0.929 . S
H1042 C994 0.929 . S
H1043 C995 0.930 . S
H1044 C1002 0.929 . S
H1045 C1003 0.930 . S
H1046 C1004 0.930 . S
H1047 C1005 0.930 . S
H1048 C1007 0.929 . S
H1049 C1008 0.930 . S
H1050 C1009 0.930 . S
H1051 C1010 0.930 . S
H1052 C1014 0.929 . S
H1053 C1016 0.930 . S
H1054 C1022 0.929 . S
H1055 C1023 0.930 . S
Li1056 N1073 1.990 1_545 S
Li1056 O1116 1.956 . S
Li1056 O1117 1.970 . S
Li1056 O1118 1.961 . S
Li1057 N1081 1.990 . S
Li1057 O1116 1.970 . S
Li1057 O1117 1.956 . S
Li1057 O1119 1.961 . S
Li1058 N1103 1.990 . S
Li1058 O1116 1.961 . S
Li1058 O1118 1.956 . S
Li1058 O1119 1.970 . S
Li1059 N1109 1.990 . S
Li1059 O1117 1.961 . S
Li1059 O1118 1.970 . S
Li1059 O1119 1.956 . S
C1060 C1062 1.348 . S
C1060 C1063 1.356 . S
C1060 O1116 1.325 1_565 S
N1061 C1064 1.314 . S
N1061 C1065 1.279 . S
C1062 C1060 1.348 . S
C1062 C1064 1.353 . S
C1062 H1120 0.929 . S
C1063 C1060 1.356 . S
C1063 C1065 1.358 . S
C1063 H1121 0.930 . S
C1064 N1061 1.314 . S
C1064 C1062 1.353 . S
C1064 H1122 0.930 . S
C1065 N1061 1.279 . S
C1065 C1063 1.358 . S
C1065 H1123 0.930 . S
C1066 C1069 1.348 1_545 S
C1066 C1070 1.356 . S
C1066 O1117 1.325 . S
C1067 N1068 1.271 1_545 S
C1067 C1070 1.358 . S
C1067 H1124 0.930 . S
N1068 C1067 1.271 1_565 S
N1068 C1071 1.316 . S
C1069 C1066 1.348 1_565 S
C1069 C1071 1.353 . S
C1069 H1125 0.929 . S
C1070 C1066 1.356 . S
C1070 C1067 1.358 . S
C1070 H1126 0.930 . S
C1071 N1068 1.316 . S
C1071 C1069 1.353 . S
C1071 H1127 0.930 . S
C1072 N1073 1.314 . S
C1072 C1077 1.353 . S
C1072 H1078 0.930 . S
N1073 Li1056 1.990 1_565 S
N1073 C1072 1.314 . S
N1073 C1075 1.279 . S
C1074 C1075 1.358 . S
C1074 C1076 1.356 . S
C1074 H1128 0.930 . S
C1075 N1073 1.279 . S
C1075 C1074 1.358 . S
C1075 H1079 0.930 . S
C1076 C1074 1.356 . S
C1076 C1077 1.348 . S
C1077 C1072 1.353 . S
C1077 C1076 1.348 . S
C1077 H1129 0.929 . S
H1078 C1072 0.930 . S
H1079 C1075 0.930 . S
C1080 N1081 1.314 . S
C1080 C1082 1.353 . S
C1080 H1086 0.930 . S
N1081 Li1057 1.990 . S
N1081 C1080 1.314 . S
N1081 C1084 1.279 . S
C1082 C1080 1.353 . S
C1082 C1085 1.348 . S
C1082 H1130 0.929 . S
C1083 C1084 1.358 . S
C1083 C1085 1.356 . S
C1083 H1131 0.930 . S
C1084 N1081 1.279 . S
C1084 C1083 1.358 . S
C1084 H1087 0.930 . S
C1085 C1082 1.348 . S
C1085 C1083 1.356 . S
H1086 C1080 0.930 . S
H1087 C1084 0.930 . S
C1088 C1090 1.348 . S
C1088 C1091 1.356 . S
C1088 O1118 1.325 . S
N1089 C1092 1.314 . S
N1089 C1093 1.279 . S
C1090 C1088 1.348 . S
C1090 C1092 1.353 . S
C1090 H1132 0.929 . S
C1091 C1088 1.356 . S
C1091 C1093 1.358 . S
C1091 H1133 0.930 . S
C1092 N1089 1.314 . S
C1092 C1090 1.353 . S
C1092 H1134 0.930 . S
C1093 N1089 1.279 . S
C1093 C1091 1.358 . S
C1093 H1135 0.930 . S
C1094 C1095 1.348 . S
C1094 C1096 1.356 . S
C1094 O1119 1.325 . S
C1095 C1094 1.348 . S
C1095 C1097 1.353 . S
C1095 H1136 0.929 . S
C1096 C1094 1.356 . S
C1096 C1098 1.358 . S
C1096 H1137 0.930 . S
C1097 C1095 1.353 . S
C1097 N1099 1.314 . S
C1097 H1138 0.930 . S
C1098 C1096 1.358 . S
C1098 N1099 1.279 . S
C1098 H1139 0.930 . S
N1099 C1097 1.314 . S
N1099 C1098 1.279 . S
C1100 C1102 1.353 . S
C1100 N1103 1.314 . S
C1100 H1106 0.930 . S
C1101 N1103 1.279 . S
C1101 C1104 1.358 . S
C1101 H1107 0.930 . S
C1102 C1100 1.353 . S
C1102 C1105 1.348 . S
C1102 H1140 0.929 . S
N1103 Li1058 1.990 . S
N1103 C1100 1.314 . S
N1103 C1101 1.279 . S
C1104 C1101 1.358 . S
C1104 C1105 1.356 . S
C1104 H1141 0.930 . S
C1105 C1102 1.348 . S
C1105 C1104 1.356 . S
H1106 C1100 0.930 . S
H1107 C1101 0.930 . S
C1108 N1109 1.314 . S
C1108 C1110 1.353 . S
C1108 H1114 0.930 . S
N1109 Li1059 1.990 . S
N1109 C1108 1.314 . S
N1109 C1112 1.279 . S
C1110 C1108 1.353 . S
C1110 C1113 1.348 . S
C1110 H1142 0.929 . S
C1111 C1112 1.358 . S
C1111 C1113 1.356 . S
C1111 H1143 0.930 . S
C1112 N1109 1.279 . S
C1112 C1111 1.358 . S
C1112 H1115 0.930 . S
C1113 C1110 1.348 . S
C1113 C1111 1.356 . S
H1114 C1108 0.930 . S
H1115 C1112 0.930 . S
O1116 Li1056 1.956 . S
O1116 Li1057 1.970 . S
O1116 Li1058 1.961 . S
O1116 C1060 1.325 1_545 S
O1117 Li1056 1.970 . S
O1117 Li1057 1.956 . S
O1117 Li1059 1.961 . S
O1117 C1066 1.325 . S
O1118 Li1056 1.961 . S
O1118 Li1058 1.956 . S
O1118 Li1059 1.970 . S
O1118 C1088 1.325 . S
O1119 Li1057 1.961 . S
O1119 Li1058 1.970 . S
O1119 Li1059 1.956 . S
O1119 C1094 1.325 . S
H1120 C1062 0.929 . S
H1121 C1063 0.930 . S
H1122 C1064 0.930 . S
H1123 C1065 0.930 . S
H1124 C1067 0.930 . S
H1125 C1069 0.929 . S
H1126 C1070 0.930 . S
H1127 C1071 0.930 . S
H1128 C1074 0.930 . S
H1129 C1077 0.929 . S
H1130 C1082 0.929 . S
H1131 C1083 0.930 . S
H1132 C1090 0.929 . S
H1133 C1091 0.930 . S
H1134 C1092 0.930 . S
H1135 C1093 0.930 . S
H1136 C1095 0.929 . S
H1137 C1096 0.930 . S
H1138 C1097 0.930 . S
H1139 C1098 0.930 . S
H1140 C1102 0.929 . S
H1141 C1104 0.930 . S
H1142 C1110 0.929 . S
H1143 C1111 0.930 . S
Li1144 N1161 1.990 1_655 S
Li1144 O1204 1.956 . S
Li1144 O1205 1.970 . S
Li1144 O1206 1.961 . S
Li1145 N1169 1.990 . S
Li1145 O1204 1.970 . S
Li1145 O1205 1.956 . S
Li1145 O1207 1.961 . S
Li1146 N1191 1.990 . S
Li1146 O1204 1.961 . S
Li1146 O1206 1.956 . S
Li1146 O1207 1.970 . S
Li1147 N1197 1.990 . S
Li1147 O1205 1.961 . S
Li1147 O1206 1.970 . S
Li1147 O1207 1.956 . S
C1148 C1150 1.348 . S
C1148 C1151 1.356 . S
C1148 O1204 1.325 1_455 S
N1149 C1152 1.314 . S
N1149 C1153 1.279 . S
C1150 C1148 1.348 . S
C1150 C1152 1.353 . S
C1150 H1208 0.929 . S
C1151 C1148 1.356 . S
C1151 C1153 1.358 . S
C1151 H1209 0.930 . S
C1152 N1149 1.314 . S
C1152 C1150 1.353 . S
C1152 H1210 0.930 . S
C1153 N1149 1.279 . S
C1153 C1151 1.358 . S
C1153 H1211 0.930 . S
C1154 C1157 1.348 1_655 S
C1154 C1158 1.356 . S
C1154 O1205 1.325 . S
C1155 N1156 1.279 1_655 S
C1155 C1158 1.358 . S
C1155 H1212 0.930 . S
N1156 C1155 1.279 1_455 S
N1156 C1159 1.314 . S
C1157 C1154 1.348 1_455 S
C1157 C1159 1.353 . S
C1157 H1213 0.929 . S
C1158 C1154 1.356 . S
C1158 C1155 1.358 . S
C1158 H1214 0.930 . S
C1159 N1156 1.314 . S
C1159 C1157 1.353 . S
C1159 H1215 0.930 . S
C1160 N1161 1.314 . S
C1160 C1165 1.353 . S
C1160 H1166 0.930 . S
N1161 Li1144 1.990 1_455 S
N1161 C1160 1.314 . S
N1161 C1163 1.279 . S
C1162 C1163 1.358 . S
C1162 C1164 1.356 . S
C1162 H1216 0.930 . S
C1163 N1161 1.279 . S
C1163 C1162 1.358 . S
C1163 H1167 0.930 . S
C1164 C1162 1.356 . S
C1164 C1165 1.348 . S
C1165 C1160 1.353 . S
C1165 C1164 1.348 . S
C1165 H1217 0.929 . S
H1166 C1160 0.930 . S
H1167 C1163 0.930 . S
C1168 N1169 1.314 . S
C1168 C1170 1.353 . S
C1168 H1174 0.930 . S
N1169 Li1145 1.990 . S
N1169 C1168 1.314 . S
N1169 C1172 1.279 . S
C1170 C1168 1.353 . S
C1170 C1173 1.348 . S
C1170 H1218 0.929 . S
C1171 C1172 1.358 . S
C1171 C1173 1.356 . S
C1171 H1219 0.930 . S
C1172 N1169 1.279 . S
C1172 C1171 1.358 . S
C1172 H1175 0.930 . S
C1173 C1170 1.348 . S
C1173 C1171 1.356 . S
H1174 C1168 0.930 . S
H1175 C1172 0.930 . S
C1176 C1178 1.348 . S
C1176 C1179 1.356 . S
C1176 O1206 1.325 . S
N1177 C1180 1.314 . S
N1177 C1181 1.279 . S
C1178 C1176 1.348 . S
C1178 C1180 1.353 . S
C1178 H1220 0.929 . S
C1179 C1176 1.356 . S
C1179 C1181 1.358 . S
C1179 H1221 0.930 . S
C1180 N1177 1.314 . S
C1180 C1178 1.353 . S
C1180 H1222 0.930 . S
C1181 N1177 1.279 . S
C1181 C1179 1.358 . S
C1181 H1223 0.930 . S
C1182 C1183 1.348 . S
C1182 C1184 1.356 . S
C1182 O1207 1.325 . S
C1183 C1182 1.348 . S
C1183 C1185 1.353 . S
C1183 H1224 0.929 . S
C1184 C1182 1.356 . S
C1184 C1186 1.358 . S
C1184 H1225 0.930 . S
C1185 C1183 1.353 . S
C1185 N1187 1.314 . S
C1185 H1226 0.930 . S
C1186 C1184 1.358 . S
C1186 N1187 1.279 . S
C1186 H1227 0.930 . S
N1187 C1185 1.314 . S
N1187 C1186 1.279 . S
C1188 C1190 1.353 . S
C1188 N1191 1.314 . S
C1188 H1194 0.930 . S
C1189 N1191 1.279 . S
C1189 C1192 1.358 . S
C1189 H1195 0.930 . S
C1190 C1188 1.353 . S
C1190 C1193 1.348 . S
C1190 H1228 0.929 . S
N1191 Li1146 1.990 . S
N1191 C1188 1.314 . S
N1191 C1189 1.279 . S
C1192 C1189 1.358 . S
C1192 C1193 1.356 . S
C1192 H1229 0.930 . S
C1193 C1190 1.348 . S
C1193 C1192 1.356 . S
H1194 C1188 0.930 . S
H1195 C1189 0.930 . S
C1196 N1197 1.314 . S
C1196 C1198 1.353 . S
C1196 H1202 0.930 . S
N1197 Li1147 1.990 . S
N1197 C1196 1.314 . S
N1197 C1200 1.279 . S
C1198 C1196 1.353 . S
C1198 C1201 1.348 . S
C1198 H1230 0.929 . S
C1199 C1200 1.358 . S
C1199 C1201 1.356 . S
C1199 H1231 0.930 . S
C1200 N1197 1.279 . S
C1200 C1199 1.358 . S
C1200 H1203 0.930 . S
C1201 C1198 1.348 . S
C1201 C1199 1.356 . S
H1202 C1196 0.930 . S
H1203 C1200 0.930 . S
O1204 Li1144 1.956 . S
O1204 Li1145 1.970 . S
O1204 Li1146 1.961 . S
O1204 C1148 1.325 1_655 S
O1205 Li1144 1.970 . S
O1205 Li1145 1.956 . S
O1205 Li1147 1.961 . S
O1205 C1154 1.325 . S
O1206 Li1144 1.961 . S
O1206 Li1146 1.956 . S
O1206 Li1147 1.970 . S
O1206 C1176 1.325 . S
O1207 Li1145 1.961 . S
O1207 Li1146 1.970 . S
O1207 Li1147 1.956 . S
O1207 C1182 1.325 . S
H1208 C1150 0.929 . S
H1209 C1151 0.930 . S
H1210 C1152 0.930 . S
H1211 C1153 0.930 . S
H1212 C1155 0.930 . S
H1213 C1157 0.929 . S
H1214 C1158 0.930 . S
H1215 C1159 0.930 . S
H1216 C1162 0.930 . S
H1217 C1165 0.929 . S
H1218 C1170 0.929 . S
H1219 C1171 0.930 . S
H1220 C1178 0.929 . S
H1221 C1179 0.930 . S
H1222 C1180 0.930 . S
H1223 C1181 0.930 . S
H1224 C1183 0.929 . S
H1225 C1184 0.930 . S
H1226 C1185 0.930 . S
H1227 C1186 0.930 . S
H1228 C1190 0.929 . S
H1229 C1192 0.930 . S
H1230 C1198 0.929 . S
H1231 C1199 0.930 . S
Li1232 N1249 1.990 . S
Li1232 O1292 1.956 . S
Li1232 O1293 1.970 . S
Li1232 O1294 1.961 . S
Li1233 N1257 1.990 . S
Li1233 O1292 1.970 . S
Li1233 O1293 1.956 . S
Li1233 O1295 1.961 . S
Li1234 N1279 1.990 . S
Li1234 O1292 1.961 . S
Li1234 O1294 1.956 . S
Li1234 O1295 1.970 . S
Li1235 N1285 1.990 . S
Li1235 O1293 1.961 . S
Li1235 O1294 1.970 . S
Li1235 O1295 1.956 . S
C1236 C1238 1.348 . S
C1236 C1239 1.356 . S
C1236 O1292 1.325 . S
N1237 C1240 1.314 . S
N1237 C1241 1.279 . S
C1238 C1236 1.348 . S
C1238 C1240 1.353 . S
C1238 H1296 0.929 . S
C1239 C1236 1.356 . S
C1239 C1241 1.358 . S
C1239 H1297 0.930 . S
C1240 N1237 1.314 . S
C1240 C1238 1.353 . S
C1240 H1298 0.930 . S
C1241 N1237 1.279 . S
C1241 C1239 1.358 . S
C1241 H1299 0.930 . S
C1242 C1245 1.348 . S
C1242 C1246 1.356 . S
C1242 O1293 1.325 . S
C1243 N1244 1.279 . S
C1243 C1246 1.358 . S
C1243 H1300 0.930 . S
N1244 C1243 1.279 . S
N1244 C1247 1.314 . S
C1245 C1242 1.348 . S
C1245 C1247 1.353 . S
C1245 H1301 0.929 . S
C1246 C1242 1.356 . S
C1246 C1243 1.358 . S
C1246 H1302 0.930 . S
C1247 N1244 1.314 . S
C1247 C1245 1.353 . S
C1247 H1303 0.930 . S
C1248 N1249 1.314 . S
C1248 C1253 1.353 . S
C1248 H1254 0.930 . S
N1249 Li1232 1.990 . S
N1249 C1248 1.314 . S
N1249 C1251 1.279 . S
C1250 C1251 1.358 . S
C1250 C1252 1.356 . S
C1250 H1304 0.930 . S
C1251 N1249 1.279 . S
C1251 C1250 1.358 . S
C1251 H1255 0.930 . S
C1252 C1250 1.356 . S
C1252 C1253 1.348 . S
C1253 C1248 1.353 . S
C1253 C1252 1.348 . S
C1253 H1305 0.929 . S
H1254 C1248 0.930 . S
H1255 C1251 0.930 . S
C1256 N1257 1.314 . S
C1256 C1258 1.353 . S
C1256 H1262 0.930 . S
N1257 Li1233 1.990 . S
N1257 C1256 1.314 . S
N1257 C1260 1.279 . S
C1258 C1256 1.353 . S
C1258 C1261 1.348 . S
C1258 H1306 0.929 . S
C1259 C1260 1.358 . S
C1259 C1261 1.356 . S
C1259 H1307 0.930 . S
C1260 N1257 1.279 . S
C1260 C1259 1.358 . S
C1260 H1263 0.930 . S
C1261 C1258 1.348 . S
C1261 C1259 1.356 . S
H1262 C1256 0.930 . S
H1263 C1260 0.930 . S
C1264 C1266 1.348 . S
C1264 C1267 1.356 . S
C1264 O1294 1.325 . S
N1265 C1268 1.314 . S
N1265 C1269 1.279 . S
C1266 C1264 1.348 . S
C1266 C1268 1.353 . S
C1266 H1308 0.929 . S
C1267 C1264 1.356 . S
C1267 C1269 1.358 . S
C1267 H1309 0.930 . S
C1268 N1265 1.314 . S
C1268 C1266 1.353 . S
C1268 H1310 0.930 . S
C1269 N1265 1.279 . S
C1269 C1267 1.358 . S
C1269 H1311 0.930 . S
C1270 C1271 1.348 . S
C1270 C1272 1.356 . S
C1270 O1295 1.325 . S
C1271 C1270 1.348 . S
C1271 C1273 1.353 . S
C1271 H1312 0.929 . S
C1272 C1270 1.356 . S
C1272 C1274 1.358 . S
C1272 H1313 0.930 . S
C1273 C1271 1.353 . S
C1273 N1275 1.314 . S
C1273 H1314 0.930 . S
C1274 C1272 1.358 . S
C1274 N1275 1.279 . S
C1274 H1315 0.930 . S
N1275 C1273 1.314 . S
N1275 C1274 1.279 . S
C1276 C1278 1.353 . S
C1276 N1279 1.314 . S
C1276 H1282 0.930 . S
C1277 N1279 1.279 . S
C1277 C1280 1.358 . S
C1277 H1283 0.930 . S
C1278 C1276 1.353 . S
C1278 C1281 1.348 . S
C1278 H1316 0.929 . S
N1279 Li1234 1.990 . S
N1279 C1276 1.314 . S
N1279 C1277 1.279 . S
C1280 C1277 1.358 . S
C1280 C1281 1.356 . S
C1280 H1317 0.930 . S
C1281 C1278 1.348 . S
C1281 C1280 1.356 . S
H1282 C1276 0.930 . S
H1283 C1277 0.930 . S
C1284 N1285 1.314 . S
C1284 C1286 1.353 . S
C1284 H1290 0.930 . S
N1285 Li1235 1.990 . S
N1285 C1284 1.314 . S
N1285 C1288 1.279 . S
C1286 C1284 1.353 . S
C1286 C1289 1.348 . S
C1286 H1318 0.929 . S
C1287 C1288 1.358 . S
C1287 C1289 1.356 . S
C1287 H1319 0.930 . S
C1288 N1285 1.279 . S
C1288 C1287 1.358 . S
C1288 H1291 0.930 . S
C1289 C1286 1.348 . S
C1289 C1287 1.356 . S
H1290 C1284 0.930 . S
H1291 C1288 0.930 . S
O1292 Li1232 1.956 . S
O1292 Li1233 1.970 . S
O1292 Li1234 1.961 . S
O1292 C1236 1.325 . S
O1293 Li1232 1.970 . S
O1293 Li1233 1.956 . S
O1293 Li1235 1.961 . S
O1293 C1242 1.325 . S
O1294 Li1232 1.961 . S
O1294 Li1234 1.956 . S
O1294 Li1235 1.970 . S
O1294 C1264 1.325 . S
O1295 Li1233 1.961 . S
O1295 Li1234 1.970 . S
O1295 Li1235 1.956 . S
O1295 C1270 1.325 . S
H1296 C1238 0.929 . S
H1297 C1239 0.930 . S
H1298 C1240 0.930 . S
H1299 C1241 0.930 . S
H1300 C1243 0.930 . S
H1301 C1245 0.929 . S
H1302 C1246 0.930 . S
H1303 C1247 0.930 . S
H1304 C1250 0.930 . S
H1305 C1253 0.929 . S
H1306 C1258 0.929 . S
H1307 C1259 0.930 . S
H1308 C1266 0.929 . S
H1309 C1267 0.930 . S
H1310 C1268 0.930 . S
H1311 C1269 0.930 . S
H1312 C1271 0.929 . S
H1313 C1272 0.930 . S
H1314 C1273 0.930 . S
H1315 C1274 0.930 . S
H1316 C1278 0.929 . S
H1317 C1280 0.930 . S
H1318 C1286 0.929 . S
H1319 C1287 0.930 . S
Li1320 N1337 1.990 . S
Li1320 O1380 1.956 . S
Li1320 O1381 1.970 . S
Li1320 O1382 1.961 . S
Li1321 N1345 1.990 . S
Li1321 O1380 1.970 . S
Li1321 O1381 1.956 . S
Li1321 O1383 1.961 . S
Li1322 N1367 1.990 . S
Li1322 O1380 1.961 . S
Li1322 O1382 1.956 . S
Li1322 O1383 1.970 . S
Li1323 N1373 1.990 . S
Li1323 O1381 1.961 . S
Li1323 O1382 1.970 . S
Li1323 O1383 1.956 . S
C1324 C1326 1.348 . S
C1324 C1327 1.356 . S
C1324 O1380 1.325 . S
N1325 C1328 1.314 . S
N1325 C1329 1.279 . S
C1326 C1324 1.348 . S
C1326 C1328 1.353 . S
C1326 H1384 0.929 . S
C1327 C1324 1.356 . S
C1327 C1329 1.358 . S
C1327 H1385 0.930 . S
C1328 N1325 1.314 . S
C1328 C1326 1.353 . S
C1328 H1386 0.930 . S
C1329 N1325 1.279 . S
C1329 C1327 1.358 . S
C1329 H1387 0.930 . S
C1330 C1333 1.348 . S
C1330 C1334 1.356 . S
C1330 O1381 1.325 . S
C1331 N1332 1.279 . S
C1331 C1334 1.358 . S
C1331 H1388 0.930 . S
N1332 C1331 1.279 . S
N1332 C1335 1.314 . S
C1333 C1330 1.348 . S
C1333 C1335 1.353 . S
C1333 H1389 0.929 . S
C1334 C1330 1.356 . S
C1334 C1331 1.358 . S
C1334 H1390 0.930 . S
C1335 N1332 1.314 . S
C1335 C1333 1.353 . S
C1335 H1391 0.930 . S
C1336 N1337 1.314 . S
C1336 C1341 1.353 . S
C1336 H1342 0.930 . S
N1337 Li1320 1.990 . S
N1337 C1336 1.314 . S
N1337 C1339 1.279 . S
C1338 C1339 1.358 . S
C1338 C1340 1.356 . S
C1338 H1392 0.930 . S
C1339 N1337 1.279 . S
C1339 C1338 1.358 . S
C1339 H1343 0.930 . S
C1340 C1338 1.356 . S
C1340 C1341 1.348 . S
C1341 C1336 1.353 . S
C1341 C1340 1.348 . S
C1341 H1393 0.929 . S
H1342 C1336 0.930 . S
H1343 C1339 0.930 . S
C1344 N1345 1.314 . S
C1344 C1346 1.353 . S
C1344 H1350 0.930 . S
N1345 Li1321 1.990 . S
N1345 C1344 1.314 . S
N1345 C1348 1.279 . S
C1346 C1344 1.353 . S
C1346 C1349 1.348 . S
C1346 H1394 0.929 . S
C1347 C1348 1.358 . S
C1347 C1349 1.356 . S
C1347 H1395 0.930 . S
C1348 N1345 1.279 . S
C1348 C1347 1.358 . S
C1348 H1351 0.930 . S
C1349 C1346 1.348 . S
C1349 C1347 1.356 . S
H1350 C1344 0.930 . S
H1351 C1348 0.930 . S
C1352 C1354 1.348 . S
C1352 C1355 1.356 . S
C1352 O1382 1.325 . S
N1353 C1356 1.314 . S
N1353 C1357 1.279 . S
C1354 C1352 1.348 . S
C1354 C1356 1.353 . S
C1354 H1396 0.929 . S
C1355 C1352 1.356 . S
C1355 C1357 1.358 . S
C1355 H1397 0.930 . S
C1356 N1353 1.314 . S
C1356 C1354 1.353 . S
C1356 H1398 0.930 . S
C1357 N1353 1.279 . S
C1357 C1355 1.358 . S
C1357 H1399 0.930 . S
C1358 C1359 1.348 . S
C1358 C1360 1.356 . S
C1358 O1383 1.325 . S
C1359 C1358 1.348 . S
C1359 C1361 1.353 . S
C1359 H1400 0.929 . S
C1360 C1358 1.356 . S
C1360 C1362 1.358 . S
C1360 H1401 0.930 . S
C1361 C1359 1.353 . S
C1361 N1363 1.314 . S
C1361 H1402 0.930 . S
C1362 C1360 1.358 . S
C1362 N1363 1.279 . S
C1362 H1403 0.930 . S
N1363 C1361 1.314 . S
N1363 C1362 1.279 . S
C1364 C1366 1.353 . S
C1364 N1367 1.314 . S
C1364 H1370 0.930 . S
C1365 N1367 1.279 . S
C1365 C1368 1.358 . S
C1365 H1371 0.930 . S
C1366 C1364 1.353 . S
C1366 C1369 1.348 . S
C1366 H1404 0.929 . S
N1367 Li1322 1.990 . S
N1367 C1364 1.314 . S
N1367 C1365 1.279 . S
C1368 C1365 1.358 . S
C1368 C1369 1.356 . S
C1368 H1405 0.930 . S
C1369 C1366 1.348 . S
C1369 C1368 1.356 . S
H1370 C1364 0.930 . S
H1371 C1365 0.930 . S
C1372 N1373 1.314 . S
C1372 C1374 1.353 . S
C1372 H1378 0.930 . S
N1373 Li1323 1.990 . S
N1373 C1372 1.314 . S
N1373 C1376 1.279 . S
C1374 C1372 1.353 . S
C1374 C1377 1.348 . S
C1374 H1406 0.929 . S
C1375 C1376 1.358 . S
C1375 C1377 1.356 . S
C1375 H1407 0.930 . S
C1376 N1373 1.279 . S
C1376 C1375 1.358 . S
C1376 H1379 0.930 . S
C1377 C1374 1.348 . S
C1377 C1375 1.356 . S
H1378 C1372 0.930 . S
H1379 C1376 0.930 . S
O1380 Li1320 1.956 . S
O1380 Li1321 1.970 . S
O1380 Li1322 1.961 . S
O1380 C1324 1.325 . S
O1381 Li1320 1.970 . S
O1381 Li1321 1.956 . S
O1381 Li1323 1.961 . S
O1381 C1330 1.325 . S
O1382 Li1320 1.961 . S
O1382 Li1322 1.956 . S
O1382 Li1323 1.970 . S
O1382 C1352 1.325 . S
O1383 Li1321 1.961 . S
O1383 Li1322 1.970 . S
O1383 Li1323 1.956 . S
O1383 C1358 1.325 . S
H1384 C1326 0.929 . S
H1385 C1327 0.930 . S
H1386 C1328 0.930 . S
H1387 C1329 0.930 . S
H1388 C1331 0.930 . S
H1389 C1333 0.929 . S
H1390 C1334 0.930 . S
H1391 C1335 0.930 . S
H1392 C1338 0.930 . S
H1393 C1341 0.929 . S
H1394 C1346 0.929 . S
H1395 C1347 0.930 . S
H1396 C1354 0.929 . S
H1397 C1355 0.930 . S
H1398 C1356 0.930 . S
H1399 C1357 0.930 . S
H1400 C1359 0.929 . S
H1401 C1360 0.930 . S
H1402 C1361 0.930 . S
H1403 C1362 0.930 . S
H1404 C1366 0.929 . S
H1405 C1368 0.930 . S
H1406 C1374 0.929 . S
H1407 C1375 0.930 . S
Li1408 N1425 1.990 . S
Li1408 O1468 1.956 . S
Li1408 O1469 1.970 . S
Li1408 O1470 1.961 . S
Li1409 N1433 1.990 . S
Li1409 O1468 1.970 . S
Li1409 O1469 1.956 . S
Li1409 O1471 1.961 . S
Li1410 N1455 1.990 . S
Li1410 O1468 1.961 . S
Li1410 O1470 1.956 . S
Li1410 O1471 1.970 . S
Li1411 N1461 1.990 1_545 S
Li1411 O1469 1.961 . S
Li1411 O1470 1.970 . S
Li1411 O1471 1.956 . S
C1412 C1414 1.348 . S
C1412 C1415 1.356 . S
C1412 O1468 1.325 . S
N1413 C1416 1.314 . S
N1413 C1417 1.279 . S
C1414 C1412 1.348 . S
C1414 C1416 1.353 . S
C1414 H1472 0.929 . S
C1415 C1412 1.356 . S
C1415 C1417 1.358 . S
C1415 H1473 0.930 . S
C1416 N1413 1.314 . S
C1416 C1414 1.353 . S
C1416 H1474 0.930 . S
C1417 N1413 1.279 . S
C1417 C1415 1.358 . S
C1417 H1475 0.930 . S
C1418 C1421 1.348 . S
C1418 C1422 1.356 . S
C1418 O1469 1.325 1_565 S
C1419 N1420 1.279 . S
C1419 C1422 1.358 . S
C1419 H1476 0.930 . S
N1420 C1419 1.279 . S
N1420 C1423 1.314 . S
C1421 C1418 1.348 . S
C1421 C1423 1.353 . S
C1421 H1477 0.929 1_565 S
C1422 C1418 1.356 . S
C1422 C1419 1.358 . S
C1422 H1478 0.930 . S
C1423 N1420 1.314 . S
C1423 C1421 1.353 . S
C1423 H1479 0.930 . S
C1424 N1425 1.314 . S
C1424 C1429 1.353 . S
C1424 H1430 0.875 1_545 S
N1425 Li1408 1.990 . S
N1425 C1424 1.314 . S
N1425 C1427 1.279 . S
C1426 C1427 1.358 . S
C1426 C1428 1.356 . S
C1426 H1480 0.930 . S
C1427 N1425 1.279 . S
C1427 C1426 1.358 . S
C1427 H1431 0.930 . S
C1428 C1426 1.356 . S
C1428 C1429 1.348 . S
C1429 C1424 1.353 . S
C1429 C1428 1.348 . S
C1429 H1481 0.929 1_545 S
H1430 C1424 0.875 1_565 S
H1431 C1427 0.930 . S
C1432 N1433 1.314 . S
C1432 C1434 1.353 . S
C1432 H1438 0.930 . S
N1433 Li1409 1.990 . S
N1433 C1432 1.314 . S
N1433 C1436 1.279 . S
C1434 C1432 1.353 . S
C1434 C1437 1.348 . S
C1434 H1482 0.929 . S
C1435 C1436 1.358 . S
C1435 C1437 1.356 . S
C1435 H1483 0.930 . S
C1436 N1433 1.279 . S
C1436 C1435 1.358 . S
C1436 H1439 0.930 . S
C1437 C1434 1.348 . S
C1437 C1435 1.356 . S
H1438 C1432 0.930 . S
H1439 C1436 0.930 . S
C1440 C1442 1.348 1_545 S
C1440 C1443 1.356 . S
C1440 O1470 1.325 . S
N1441 C1444 1.314 1_545 S
N1441 C1445 1.280 . S
C1442 C1440 1.348 1_565 S
C1442 C1444 1.353 . S
C1442 H1484 0.929 . S
C1443 C1440 1.356 . S
C1443 C1445 1.358 . S
C1443 H1485 0.930 . S
C1444 N1441 1.314 1_565 S
C1444 C1442 1.353 . S
C1444 H1486 0.930 . S
C1445 N1441 1.280 . S
C1445 C1443 1.358 . S
C1445 H1487 0.930 . S
C1446 C1447 1.348 . S
C1446 C1448 1.356 . S
C1446 O1471 1.325 . S
C1447 C1446 1.348 . S
C1447 C1449 1.353 . S
C1447 H1488 0.929 . S
C1448 C1446 1.356 . S
C1448 C1450 1.358 . S
C1448 H1489 0.930 . S
C1449 C1447 1.353 . S
C1449 N1451 1.314 . S
C1449 H1490 0.930 . S
C1450 C1448 1.358 . S
C1450 N1451 1.279 . S
C1450 H1491 0.930 . S
N1451 C1449 1.314 . S
N1451 C1450 1.279 . S
C1452 C1454 1.353 . S
C1452 N1455 1.314 . S
C1452 H1458 0.930 . S
C1453 N1455 1.279 . S
C1453 C1456 1.358 . S
C1453 H1459 0.930 . S
C1454 C1452 1.353 . S
C1454 C1457 1.348 . S
C1454 H1492 0.929 . S
N1455 Li1410 1.990 . S
N1455 C1452 1.314 . S
N1455 C1453 1.279 . S
C1456 C1453 1.358 . S
C1456 C1457 1.356 . S
C1456 H1493 0.930 . S
C1457 C1454 1.348 . S
C1457 C1456 1.356 . S
H1458 C1452 0.930 . S
H1459 C1453 0.930 . S
C1460 N1461 1.314 . S
C1460 C1462 1.353 . S
C1460 H1466 0.930 . S
N1461 Li1411 1.990 1_565 S
N1461 C1460 1.314 . S
N1461 C1464 1.279 . S
C1462 C1460 1.353 . S
C1462 C1465 1.348 . S
C1462 H1494 0.929 . S
C1463 C1464 1.358 . S
C1463 C1465 1.356 . S
C1463 H1495 0.930 . S
C1464 N1461 1.279 . S
C1464 C1463 1.358 . S
C1464 H1467 0.930 . S
C1465 C1462 1.348 . S
C1465 C1463 1.356 . S
H1466 C1460 0.930 . S
H1467 C1464 0.930 . S
O1468 Li1408 1.956 . S
O1468 Li1409 1.970 . S
O1468 Li1410 1.961 . S
O1468 C1412 1.325 . S
O1469 Li1408 1.970 . S
O1469 Li1409 1.956 . S
O1469 Li1411 1.961 . S
O1469 C1418 1.325 1_545 S
O1470 Li1408 1.961 . S
O1470 Li1410 1.956 . S
O1470 Li1411 1.970 . S
O1470 C1440 1.325 . S
O1471 Li1409 1.961 . S
O1471 Li1410 1.970 . S
O1471 Li1411 1.956 . S
O1471 C1446 1.325 . S
H1472 C1414 0.929 . S
H1473 C1415 0.930 . S
H1474 C1416 0.930 . S
H1475 C1417 0.930 . S
H1476 C1419 0.930 . S
H1477 C1421 0.929 1_545 S
H1478 C1422 0.930 . S
H1479 C1423 0.930 . S
H1480 C1426 0.930 . S
H1481 C1429 0.929 1_565 S
H1482 C1434 0.929 . S
H1483 C1435 0.930 . S
H1484 C1442 0.929 . S
H1485 C1443 0.930 . S
H1486 C1444 0.930 . S
H1487 C1445 0.930 . S
H1488 C1447 0.929 . S
H1489 C1448 0.930 . S
H1490 C1449 0.930 . S
H1491 C1450 0.930 . S
H1492 C1454 0.929 . S
H1493 C1456 0.930 . S
H1494 C1462 0.929 . S
H1495 C1463 0.930 . S
Li1496 N1513 1.990 . S
Li1496 O1556 1.956 . S
Li1496 O1557 1.970 . S
Li1496 O1558 1.961 . S
Li1497 N1521 1.990 . S
Li1497 O1556 1.970 . S
Li1497 O1557 1.956 . S
Li1497 O1559 1.961 . S
Li1498 N1543 1.990 1_655 S
Li1498 O1556 1.961 . S
Li1498 O1558 1.956 . S
Li1498 O1559 1.970 . S
Li1499 N1549 1.990 . S
Li1499 O1557 1.961 . S
Li1499 O1558 1.970 . S
Li1499 O1559 1.956 . S
C1500 C1502 1.348 . S
C1500 C1503 1.356 . S
C1500 O1556 1.325 1_455 S
N1501 C1504 1.314 . S
N1501 C1505 1.279 . S
C1502 C1500 1.348 . S
C1502 C1504 1.353 . S
C1502 H1560 0.929 1_455 S
C1503 C1500 1.356 . S
C1503 C1505 1.358 . S
C1503 H1561 0.930 . S
C1504 N1501 1.314 . S
C1504 C1502 1.353 . S
C1504 H1562 0.930 . S
C1505 N1501 1.279 . S
C1505 C1503 1.358 . S
C1505 H1563 0.930 . S
C1506 C1509 1.348 . S
C1506 C1510 1.356 . S
C1506 O1557 1.325 . S
C1507 N1508 1.279 . S
C1507 C1510 1.358 . S
C1507 H1564 0.930 . S
N1508 C1507 1.279 . S
N1508 C1511 1.314 . S
C1509 C1506 1.348 . S
C1509 C1511 1.353 . S
C1509 H1565 0.929 . S
C1510 C1506 1.356 . S
C1510 C1507 1.358 . S
C1510 H1566 0.930 . S
C1511 N1508 1.314 . S
C1511 C1509 1.353 . S
C1511 H1567 0.930 . S
C1512 N1513 1.314 . S
C1512 C1517 1.353 . S
C1512 H1518 0.930 . S
N1513 Li1496 1.990 . S
N1513 C1512 1.314 . S
N1513 C1515 1.279 . S
C1514 C1515 1.358 . S
C1514 C1516 1.356 . S
C1514 H1568 0.930 . S
C1515 N1513 1.279 . S
C1515 C1514 1.358 . S
C1515 H1519 0.930 . S
C1516 C1514 1.356 . S
C1516 C1517 1.348 . S
C1517 C1512 1.353 . S
C1517 C1516 1.348 . S
C1517 H1569 0.929 . S
H1518 C1512 0.930 . S
H1519 C1515 0.930 . S
C1520 N1521 1.314 . S
C1520 C1522 1.353 . S
C1520 H1526 0.911 1_655 S
N1521 Li1497 1.990 . S
N1521 C1520 1.314 . S
N1521 C1524 1.279 . S
C1522 C1520 1.353 . S
C1522 C1525 1.348 . S
C1522 H1570 0.929 1_655 S
C1523 C1524 1.358 . S
C1523 C1525 1.356 . S
C1523 H1571 0.930 . S
C1524 N1521 1.279 . S
C1524 C1523 1.358 . S
C1524 H1527 0.930 . S
C1525 C1522 1.348 . S
C1525 C1523 1.356 . S
H1526 C1520 0.911 1_455 S
H1527 C1524 0.930 . S
C1528 C1530 1.348 . S
C1528 C1531 1.356 . S
C1528 O1558 1.325 . S
N1529 C1532 1.314 . S
N1529 C1533 1.279 . S
C1530 C1528 1.348 . S
C1530 C1532 1.353 . S
C1530 H1572 0.929 . S
C1531 C1528 1.356 . S
C1531 C1533 1.358 . S
C1531 H1573 0.930 . S
C1532 N1529 1.314 . S
C1532 C1530 1.353 . S
C1532 H1574 0.930 . S
C1533 N1529 1.279 . S
C1533 C1531 1.358 . S
C1533 H1575 0.930 . S
C1534 C1535 1.348 1_655 S
C1534 C1536 1.356 . S
C1534 O1559 1.325 . S
C1535 C1534 1.348 1_455 S
C1535 C1537 1.353 . S
C1535 H1576 0.929 . S
C1536 C1534 1.356 . S
C1536 C1538 1.358 . S
C1536 H1577 0.930 . S
C1537 C1535 1.353 . S
C1537 N1539 1.314 1_455 S
C1537 H1578 0.930 . S
C1538 C1536 1.358 . S
C1538 N1539 1.276 . S
C1538 H1579 0.930 . S
N1539 C1537 1.314 1_655 S
N1539 C1538 1.276 . S
C1540 C1542 1.353 . S
C1540 N1543 1.314 . S
C1540 H1546 0.930 . S
C1541 N1543 1.279 . S
C1541 C1544 1.358 . S
C1541 H1547 0.930 . S
C1542 C1540 1.353 . S
C1542 C1545 1.348 . S
C1542 H1580 0.929 . S
N1543 Li1498 1.990 1_455 S
N1543 C1540 1.314 . S
N1543 C1541 1.279 . S
C1544 C1541 1.358 . S
C1544 C1545 1.356 . S
C1544 H1581 0.930 . S
C1545 C1542 1.348 . S
C1545 C1544 1.356 . S
H1546 C1540 0.930 . S
H1547 C1541 0.930 . S
C1548 N1549 1.314 . S
C1548 C1550 1.353 . S
C1548 H1554 0.930 . S
N1549 Li1499 1.990 . S
N1549 C1548 1.314 . S
N1549 C1552 1.279 . S
C1550 C1548 1.353 . S
C1550 C1553 1.348 . S
C1550 H1582 0.929 . S
C1551 C1552 1.358 . S
C1551 C1553 1.356 . S
C1551 H1583 0.930 . S
C1552 N1549 1.279 . S
C1552 C1551 1.358 . S
C1552 H1555 0.930 . S
C1553 C1550 1.348 . S
C1553 C1551 1.356 . S
H1554 C1548 0.930 . S
H1555 C1552 0.930 . S
O1556 Li1496 1.956 . S
O1556 Li1497 1.970 . S
O1556 Li1498 1.961 . S
O1556 C1500 1.325 1_655 S
O1557 Li1496 1.970 . S
O1557 Li1497 1.956 . S
O1557 Li1499 1.961 . S
O1557 C1506 1.325 . S
O1558 Li1496 1.961 . S
O1558 Li1498 1.956 . S
O1558 Li1499 1.970 . S
O1558 C1528 1.325 . S
O1559 Li1497 1.961 . S
O1559 Li1498 1.970 . S
O1559 Li1499 1.956 . S
O1559 C1534 1.325 . S
H1560 C1502 0.929 1_655 S
H1561 C1503 0.930 . S
H1562 C1504 0.930 . S
H1563 C1505 0.930 . S
H1564 C1507 0.930 . S
H1565 C1509 0.929 . S
H1566 C1510 0.930 . S
H1567 C1511 0.930 . S
H1568 C1514 0.930 . S
H1569 C1517 0.929 . S
H1570 C1522 0.929 1_455 S
H1571 C1523 0.930 . S
H1572 C1530 0.929 . S
H1573 C1531 0.930 . S
H1574 C1532 0.930 . S
H1575 C1533 0.930 . S
H1576 C1535 0.929 . S
H1577 C1536 0.930 . S
H1578 C1537 0.930 . S
H1579 C1538 0.930 . S
H1580 C1542 0.929 . S
H1581 C1544 0.930 . S
H1582 C1550 0.929 . S
H1583 C1551 0.930 . S
H1584 C1603 0.949 . S
H1585 C1604 0.950 . S
H1586 C1606 0.950 . S
H1587 C1607 0.950 . S
H1588 C1609 0.950 . S
H1589 C1612 0.950 . S
H1590 C1613 0.950 . S
H1591 C1615 0.951 . S
H1592 C1616 0.949 . S
H1593 C1618 0.949 . S
H1594 C1619 0.950 . S
H1595 C1621 0.950 . S
H1596 C1622 0.950 . S
H1597 C1624 0.950 . S
H1598 C1627 0.950 . S
H1599 C1628 0.950 . S
H1600 C1630 0.951 . S
H1601 C1631 0.949 . S
C1602 C1603 1.376 . S
C1602 C1607 1.386 . S
C1602 C1608 1.483 . S
C1603 H1584 0.949 . S
C1603 C1602 1.376 . S
C1603 C1604 1.397 . S
C1604 H1585 0.950 . S
C1604 C1603 1.397 . S
C1604 C1605 1.391 . S
C1605 C1604 1.391 . S
C1605 C1606 1.405 . S
C1606 H1586 0.950 . S
C1606 C1605 1.405 . S
C1606 C1607 1.367 . S
C1607 H1587 0.950 . S
C1607 C1602 1.386 . S
C1607 C1606 1.367 . S
C1608 C1602 1.483 . S
C1608 C1609 1.382 . S
C1608 C1610 1.403 . S
C1609 H1588 0.950 . S
C1609 C1608 1.382 . S
C1609 C1625 1.411 . S
C1610 C1608 1.403 . S
C1610 C1611 1.489 . S
C1610 C1624 1.411 . S
C1611 C1610 1.489 . S
C1611 C1612 1.383 . S
C1611 C1616 1.382 . S
C1612 H1589 0.950 . S
C1612 C1611 1.383 . S
C1612 C1613 1.395 . S
C1613 H1590 0.950 . S
C1613 C1612 1.395 . S
C1613 C1614 1.288 . S
C1614 C1613 1.288 . S
C1614 C1615 1.392 . S
C1615 H1591 0.951 . S
C1615 C1614 1.392 . S
C1615 C1616 1.392 . S
C1616 H1592 0.949 . S
C1616 C1611 1.382 . S
C1616 C1615 1.392 . S
C1617 C1618 1.376 . S
C1617 C1622 1.386 . S
C1617 C1623 1.483 . S
C1618 H1593 0.949 . S
C1618 C1617 1.376 . S
C1618 C1619 1.397 . S
C1619 H1594 0.950 . S
C1619 C1618 1.397 . S
C1619 C1620 1.391 . S
C1620 C1619 1.391 . S
C1620 C1621 1.405 . S
C1621 H1595 0.950 . S
C1621 C1620 1.405 . S
C1621 C1622 1.367 . S
C1622 H1596 0.950 . S
C1622 C1617 1.386 . S
C1622 C1621 1.367 . S
C1623 C1617 1.483 . S
C1623 C1624 1.382 . S
C1623 C1625 1.403 . S
C1624 H1597 0.950 . S
C1624 C1610 1.411 . S
C1624 C1623 1.382 . S
C1625 C1609 1.411 . S
C1625 C1623 1.403 . S
C1625 C1626 1.489 . S
C1626 C1625 1.489 . S
C1626 C1627 1.383 . S
C1626 C1631 1.382 . S
C1627 H1598 0.950 . S
C1627 C1626 1.383 . S
C1627 C1628 1.395 . S
C1628 H1599 0.950 . S
C1628 C1627 1.395 . S
C1628 C1629 1.288 . S
C1629 C1628 1.288 . S
C1629 C1630 1.392 . S
C1630 H1600 0.951 . S
C1630 C1629 1.392 . S
C1630 C1631 1.392 . S
C1631 H1601 0.949 . S
C1631 C1626 1.382 . S
C1631 C1630 1.392 . S
H1632 C1651 0.949 . S
H1633 C1652 0.950 . S
H1634 C1654 0.950 . S
H1635 C1655 0.950 . S
H1636 C1657 0.950 . S
H1637 C1660 0.950 . S
H1638 C1661 0.950 . S
H1639 C1663 0.951 . S
H1640 C1664 0.949 . S
H1641 C1666 0.949 . S
H1642 C1667 0.950 . S
H1643 C1669 0.950 . S
H1644 C1670 0.950 . S
H1645 C1672 0.950 . S
H1646 C1675 0.950 . S
H1647 C1676 0.950 . S
H1648 C1678 0.951 . S
H1649 C1679 0.949 . S
C1650 C1651 1.376 . S
C1650 C1655 1.386 . S
C1650 C1656 1.483 . S
C1651 H1632 0.949 . S
C1651 C1650 1.376 . S
C1651 C1652 1.397 . S
C1652 H1633 0.950 . S
C1652 C1651 1.397 . S
C1652 C1653 1.391 . S
C1653 C1652 1.391 . S
C1653 C1654 1.405 . S
C1654 H1634 0.950 . S
C1654 C1653 1.405 . S
C1654 C1655 1.367 . S
C1655 H1635 0.950 . S
C1655 C1650 1.386 . S
C1655 C1654 1.367 . S
C1656 C1650 1.483 . S
C1656 C1657 1.382 . S
C1656 C1658 1.403 . S
C1657 H1636 0.950 . S
C1657 C1656 1.382 . S
C1657 C1673 1.411 . S
C1658 C1656 1.403 . S
C1658 C1659 1.489 . S
C1658 C1672 1.411 . S
C1659 C1658 1.489 . S
C1659 C1660 1.383 . S
C1659 C1664 1.382 . S
C1660 H1637 0.950 . S
C1660 C1659 1.383 . S
C1660 C1661 1.395 . S
C1661 H1638 0.950 . S
C1661 C1660 1.395 . S
C1661 C1662 1.288 . S
C1662 C1661 1.288 . S
C1662 C1663 1.392 . S
C1663 H1639 0.951 . S
C1663 C1662 1.392 . S
C1663 C1664 1.392 . S
C1664 H1640 0.949 . S
C1664 C1659 1.382 . S
C1664 C1663 1.392 . S
C1665 C1666 1.376 . S
C1665 C1670 1.386 . S
C1665 C1671 1.483 . S
C1666 H1641 0.949 . S
C1666 C1665 1.376 . S
C1666 C1667 1.397 . S
C1667 H1642 0.950 . S
C1667 C1666 1.397 . S
C1667 C1668 1.391 . S
C1668 C1667 1.391 . S
C1668 C1669 1.405 . S
C1669 H1643 0.950 . S
C1669 C1668 1.405 . S
C1669 C1670 1.367 . S
C1670 H1644 0.950 . S
C1670 C1665 1.386 . S
C1670 C1669 1.367 . S
C1671 C1665 1.483 . S
C1671 C1672 1.382 . S
C1671 C1673 1.403 . S
C1672 H1645 0.950 . S
C1672 C1658 1.411 . S
C1672 C1671 1.382 . S
C1673 C1657 1.411 . S
C1673 C1671 1.403 . S
C1673 C1674 1.489 . S
C1674 C1673 1.489 . S
C1674 C1675 1.383 . S
C1674 C1679 1.382 . S
C1675 H1646 0.950 . S
C1675 C1674 1.383 . S
C1675 C1676 1.395 . S
C1676 H1647 0.950 . S
C1676 C1675 1.395 . S
C1676 C1677 1.288 . S
C1677 C1676 1.288 . S
C1677 C1678 1.392 . S
C1678 H1648 0.951 . S
C1678 C1677 1.392 . S
C1678 C1679 1.392 . S
C1679 H1649 0.949 . S
C1679 C1674 1.382 . S
C1679 C1678 1.392 . S
H1680 C1699 0.949 . S
H1681 C1700 0.950 . S
H1682 C1702 0.950 . S
H1683 C1703 0.950 . S
H1684 C1705 0.950 . S
H1685 C1708 0.950 . S
H1686 C1709 0.950 . S
H1687 C1711 0.951 . S
H1688 C1712 0.949 . S
H1689 C1714 0.949 . S
H1690 C1715 0.950 . S
H1691 C1717 0.950 . S
H1692 C1718 0.950 . S
H1693 C1720 0.950 . S
H1694 C1723 0.950 . S
H1695 C1724 0.950 . S
H1696 C1726 0.951 . S
H1697 C1727 0.949 . S
C1698 C1699 1.376 . S
C1698 C1703 1.386 . S
C1698 C1704 1.483 . S
C1699 H1680 0.949 . S
C1699 C1698 1.376 . S
C1699 C1700 1.397 . S
C1700 H1681 0.950 . S
C1700 C1699 1.397 . S
C1700 C1701 1.391 . S
C1701 C1700 1.391 . S
C1701 C1702 1.405 . S
C1702 H1682 0.950 . S
C1702 C1701 1.405 . S
C1702 C1703 1.367 . S
C1703 H1683 0.950 . S
C1703 C1698 1.386 . S
C1703 C1702 1.367 . S
C1704 C1698 1.483 . S
C1704 C1705 1.382 . S
C1704 C1706 1.403 . S
C1705 H1684 0.950 . S
C1705 C1704 1.382 . S
C1705 C1721 1.411 . S
C1706 C1704 1.403 . S
C1706 C1707 1.489 . S
C1706 C1720 1.411 . S
C1707 C1706 1.489 . S
C1707 C1708 1.383 . S
C1707 C1712 1.382 . S
C1708 H1685 0.950 . S
C1708 C1707 1.383 . S
C1708 C1709 1.395 . S
C1709 H1686 0.950 . S
C1709 C1708 1.395 . S
C1709 C1710 1.288 . S
C1710 C1709 1.288 . S
C1710 C1711 1.392 . S
C1711 H1687 0.951 . S
C1711 C1710 1.392 . S
C1711 C1712 1.392 . S
C1712 H1688 0.949 . S
C1712 C1707 1.382 . S
C1712 C1711 1.392 . S
C1713 C1714 1.376 . S
C1713 C1718 1.386 . S
C1713 C1719 1.483 . S
C1714 H1689 0.949 . S
C1714 C1713 1.376 . S
C1714 C1715 1.397 . S
C1715 H1690 0.950 . S
C1715 C1714 1.397 . S
C1715 C1716 1.391 . S
C1716 C1715 1.391 . S
C1716 C1717 1.405 . S
C1717 H1691 0.950 . S
C1717 C1716 1.405 . S
C1717 C1718 1.367 . S
C1718 H1692 0.950 . S
C1718 C1713 1.386 . S
C1718 C1717 1.367 . S
C1719 C1713 1.483 . S
C1719 C1720 1.382 . S
C1719 C1721 1.403 . S
C1720 H1693 0.950 . S
C1720 C1706 1.411 . S
C1720 C1719 1.382 . S
C1721 C1705 1.411 . S
C1721 C1719 1.403 . S
C1721 C1722 1.489 . S
C1722 C1721 1.489 . S
C1722 C1723 1.383 . S
C1722 C1727 1.382 . S
C1723 H1694 0.950 . S
C1723 C1722 1.383 . S
C1723 C1724 1.395 . S
C1724 H1695 0.950 . S
C1724 C1723 1.395 . S
C1724 C1725 1.288 . S
C1725 C1724 1.288 . S
C1725 C1726 1.392 . S
C1726 H1696 0.951 . S
C1726 C1725 1.392 . S
C1726 C1727 1.392 . S
C1727 H1697 0.949 . S
C1727 C1722 1.382 . S
C1727 C1726 1.392 . S
H1728 C1747 0.949 . S
H1729 C1748 0.950 . S
H1730 C1750 0.950 . S
H1731 C1751 0.950 . S
H1732 C1753 0.950 . S
H1733 C1756 0.950 . S
H1734 C1757 0.950 . S
H1735 C1759 0.951 . S
H1736 C1760 0.949 . S
H1737 C1762 0.949 . S
H1738 C1763 0.950 . S
H1739 C1765 0.950 . S
H1740 C1766 0.950 . S
H1741 C1768 0.950 . S
H1742 C1771 0.950 . S
H1743 C1772 0.950 . S
H1744 C1774 0.951 . S
H1745 C1775 0.949 . S
C1746 C1747 1.376 . S
C1746 C1751 1.386 . S
C1746 C1752 1.483 . S
C1747 H1728 0.949 . S
C1747 C1746 1.376 . S
C1747 C1748 1.397 . S
C1748 H1729 0.950 . S
C1748 C1747 1.397 . S
C1748 C1749 1.391 . S
C1749 C1748 1.391 . S
C1749 C1750 1.405 . S
C1750 H1730 0.950 . S
C1750 C1749 1.405 . S
C1750 C1751 1.367 . S
C1751 H1731 0.950 . S
C1751 C1746 1.386 . S
C1751 C1750 1.367 . S
C1752 C1746 1.483 . S
C1752 C1753 1.382 . S
C1752 C1754 1.403 . S
C1753 H1732 0.950 . S
C1753 C1752 1.382 . S
C1753 C1769 1.411 . S
C1754 C1752 1.403 . S
C1754 C1755 1.489 . S
C1754 C1768 1.411 . S
C1755 C1754 1.489 . S
C1755 C1756 1.383 . S
C1755 C1760 1.382 . S
C1756 H1733 0.950 . S
C1756 C1755 1.383 . S
C1756 C1757 1.395 . S
C1757 H1734 0.950 . S
C1757 C1756 1.395 . S
C1757 C1758 1.288 . S
C1758 C1757 1.288 . S
C1758 C1759 1.392 . S
C1759 H1735 0.951 . S
C1759 C1758 1.392 . S
C1759 C1760 1.392 . S
C1760 H1736 0.949 . S
C1760 C1755 1.382 . S
C1760 C1759 1.392 . S
C1761 C1762 1.376 . S
C1761 C1766 1.386 . S
C1761 C1767 1.483 . S
C1762 H1737 0.949 . S
C1762 C1761 1.376 . S
C1762 C1763 1.397 . S
C1763 H1738 0.950 . S
C1763 C1762 1.397 . S
C1763 C1764 1.391 . S
C1764 C1763 1.391 . S
C1764 C1765 1.405 . S
C1765 H1739 0.950 . S
C1765 C1764 1.405 . S
C1765 C1766 1.367 . S
C1766 H1740 0.950 . S
C1766 C1761 1.386 . S
C1766 C1765 1.367 . S
C1767 C1761 1.483 . S
C1767 C1768 1.382 . S
C1767 C1769 1.403 . S
C1768 H1741 0.950 . S
C1768 C1754 1.411 . S
C1768 C1767 1.382 . S
C1769 C1753 1.411 . S
C1769 C1767 1.403 . S
C1769 C1770 1.489 . S
C1770 C1769 1.489 . S
C1770 C1771 1.383 . S
C1770 C1775 1.382 . S
C1771 H1742 0.950 . S
C1771 C1770 1.383 . S
C1771 C1772 1.395 . S
C1772 H1743 0.950 . S
C1772 C1771 1.395 . S
C1772 C1773 1.288 . S
C1773 C1772 1.288 . S
C1773 C1774 1.392 . S
C1774 H1744 0.951 . S
C1774 C1773 1.392 . S
C1774 C1775 1.392 . S
C1775 H1745 0.949 . S
C1775 C1770 1.382 . S
C1775 C1774 1.392 . S
H1776 C1795 0.949 . S
H1777 C1796 0.950 . S
H1778 C1798 0.950 . S
H1779 C1799 0.950 . S
H1780 C1801 0.950 . S
H1781 C1804 0.950 . S
H1782 C1805 0.950 . S
H1783 C1807 0.951 . S
H1784 C1808 0.949 . S
H1785 C1810 0.949 . S
H1786 C1811 0.950 . S
H1787 C1813 0.950 . S
H1788 C1814 0.950 . S
H1789 C1816 0.950 . S
H1790 C1819 0.950 . S
H1791 C1820 0.950 . S
H1792 C1822 0.951 . S
H1793 C1823 0.949 . S
C1794 C1795 1.376 . S
C1794 C1799 1.386 . S
C1794 C1800 1.483 . S
C1795 H1776 0.949 . S
C1795 C1794 1.376 . S
C1795 C1796 1.397 . S
C1796 H1777 0.950 . S
C1796 C1795 1.397 . S
C1796 C1797 1.391 . S
C1797 C1796 1.391 . S
C1797 C1798 1.405 . S
C1798 H1778 0.950 . S
C1798 C1797 1.405 . S
C1798 C1799 1.367 . S
C1799 H1779 0.950 . S
C1799 C1794 1.386 . S
C1799 C1798 1.367 . S
C1800 C1794 1.483 . S
C1800 C1801 1.382 . S
C1800 C1802 1.403 . S
C1801 H1780 0.950 . S
C1801 C1800 1.382 . S
C1801 C1817 1.411 . S
C1802 C1800 1.403 . S
C1802 C1803 1.489 . S
C1802 C1816 1.411 . S
C1803 C1802 1.489 . S
C1803 C1804 1.383 . S
C1803 C1808 1.382 . S
C1804 H1781 0.950 . S
C1804 C1803 1.383 . S
C1804 C1805 1.395 . S
C1805 H1782 0.950 . S
C1805 C1804 1.395 . S
C1805 C1806 1.288 . S
C1806 C1805 1.288 . S
C1806 C1807 1.392 . S
C1807 H1783 0.951 . S
C1807 C1806 1.392 . S
C1807 C1808 1.392 . S
C1808 H1784 0.949 . S
C1808 C1803 1.382 . S
C1808 C1807 1.392 . S
C1809 C1810 1.376 . S
C1809 C1814 1.386 . S
C1809 C1815 1.483 . S
C1810 H1785 0.949 . S
C1810 C1809 1.376 . S
C1810 C1811 1.397 . S
C1811 H1786 0.950 . S
C1811 C1810 1.397 . S
C1811 C1812 1.391 . S
C1812 C1811 1.391 . S
C1812 C1813 1.405 . S
C1813 H1787 0.950 . S
C1813 C1812 1.405 . S
C1813 C1814 1.367 . S
C1814 H1788 0.950 . S
C1814 C1809 1.386 . S
C1814 C1813 1.367 . S
C1815 C1809 1.483 . S
C1815 C1816 1.382 . S
C1815 C1817 1.403 . S
C1816 H1789 0.950 . S
C1816 C1802 1.411 . S
C1816 C1815 1.382 . S
C1817 C1801 1.411 . S
C1817 C1815 1.403 . S
C1817 C1818 1.489 . S
C1818 C1817 1.489 . S
C1818 C1819 1.383 . S
C1818 C1823 1.382 . S
C1819 H1790 0.950 . S
C1819 C1818 1.383 . S
C1819 C1820 1.395 . S
C1820 H1791 0.950 . S
C1820 C1819 1.395 . S
C1820 C1821 1.288 . S
C1821 C1820 1.288 . S
C1821 C1822 1.392 . S
C1822 H1792 0.951 . S
C1822 C1821 1.392 . S
C1822 C1823 1.392 . S
C1823 H1793 0.949 . S
C1823 C1818 1.382 . S
C1823 C1822 1.392 . S
H1824 C1843 0.949 . S
H1825 C1844 0.950 . S
H1826 C1846 0.950 . S
H1827 C1847 0.950 . S
H1828 C1849 0.950 . S
H1829 C1852 0.950 . S
H1830 C1853 0.950 . S
H1831 C1855 0.951 . S
H1832 C1856 0.949 . S
H1833 C1858 0.949 . S
H1834 C1859 0.950 . S
H1835 C1861 0.950 . S
H1836 C1862 0.950 . S
H1837 C1864 0.950 . S
H1838 C1867 0.950 . S
H1839 C1868 0.950 . S
H1840 C1870 0.951 . S
H1841 C1871 0.949 . S
C1842 C1843 1.376 . S
C1842 C1847 1.386 . S
C1842 C1848 1.483 . S
C1843 H1824 0.949 . S
C1843 C1842 1.376 . S
C1843 C1844 1.397 . S
C1844 H1825 0.950 . S
C1844 C1843 1.397 . S
C1844 C1845 1.391 . S
C1845 C1844 1.391 . S
C1845 C1846 1.405 . S
C1846 H1826 0.950 . S
C1846 C1845 1.405 . S
C1846 C1847 1.367 . S
C1847 H1827 0.950 . S
C1847 C1842 1.386 . S
C1847 C1846 1.367 . S
C1848 C1842 1.483 . S
C1848 C1849 1.382 . S
C1848 C1850 1.403 . S
C1849 H1828 0.950 . S
C1849 C1848 1.382 . S
C1849 C1865 1.411 . S
C1850 C1848 1.403 . S
C1850 C1851 1.489 . S
C1850 C1864 1.411 . S
C1851 C1850 1.489 . S
C1851 C1852 1.383 . S
C1851 C1856 1.382 . S
C1852 H1829 0.950 . S
C1852 C1851 1.383 . S
C1852 C1853 1.395 . S
C1853 H1830 0.950 . S
C1853 C1852 1.395 . S
C1853 C1854 1.288 . S
C1854 C1853 1.288 . S
C1854 C1855 1.392 . S
C1855 H1831 0.951 . S
C1855 C1854 1.392 . S
C1855 C1856 1.392 . S
C1856 H1832 0.949 . S
C1856 C1851 1.382 . S
C1856 C1855 1.392 . S
C1857 C1858 1.376 . S
C1857 C1862 1.386 . S
C1857 C1863 1.483 . S
C1858 H1833 0.949 . S
C1858 C1857 1.376 . S
C1858 C1859 1.397 . S
C1859 H1834 0.950 . S
C1859 C1858 1.397 . S
C1859 C1860 1.391 . S
C1860 C1859 1.391 . S
C1860 C1861 1.405 . S
C1861 H1835 0.950 . S
C1861 C1860 1.405 . S
C1861 C1862 1.367 . S
C1862 H1836 0.950 . S
C1862 C1857 1.386 . S
C1862 C1861 1.367 . S
C1863 C1857 1.483 . S
C1863 C1864 1.382 . S
C1863 C1865 1.403 . S
C1864 H1837 0.950 . S
C1864 C1850 1.411 . S
C1864 C1863 1.382 . S
C1865 C1849 1.411 . S
C1865 C1863 1.403 . S
C1865 C1866 1.489 . S
C1866 C1865 1.489 . S
C1866 C1867 1.383 . S
C1866 C1871 1.382 . S
C1867 H1838 0.950 . S
C1867 C1866 1.383 . S
C1867 C1868 1.395 . S
C1868 H1839 0.950 . S
C1868 C1867 1.395 . S
C1868 C1869 1.288 . S
C1869 C1868 1.288 . S
C1869 C1870 1.392 . S
C1870 H1840 0.951 . S
C1870 C1869 1.392 . S
C1870 C1871 1.392 . S
C1871 H1841 0.949 . S
C1871 C1866 1.382 . S
C1871 C1870 1.392 . S
H1872 C1891 0.949 . S
H1873 C1892 0.950 . S
H1874 C1894 0.950 . S
H1875 C1895 0.950 . S
H1876 C1897 0.950 . S
H1877 C1900 0.950 . S
H1878 C1901 0.950 . S
H1879 C1903 0.951 . S
H1880 C1904 0.949 . S
H1881 C1906 0.949 . S
H1882 C1907 0.950 . S
H1883 C1909 0.950 . S
H1884 C1910 0.950 . S
H1885 C1912 0.950 . S
H1886 C1915 0.950 . S
H1887 C1916 0.950 . S
H1888 C1918 0.951 . S
H1889 C1919 0.949 . S
C1890 C1891 1.376 . S
C1890 C1895 1.386 . S
C1890 C1896 1.483 . S
C1891 H1872 0.949 . S
C1891 C1890 1.376 . S
C1891 C1892 1.397 . S
C1892 H1873 0.950 . S
C1892 C1891 1.397 . S
C1892 C1893 1.391 . S
C1893 C1892 1.391 . S
C1893 C1894 1.405 . S
C1894 H1874 0.950 . S
C1894 C1893 1.405 . S
C1894 C1895 1.367 . S
C1895 H1875 0.950 . S
C1895 C1890 1.386 . S
C1895 C1894 1.367 . S
C1896 C1890 1.483 . S
C1896 C1897 1.382 . S
C1896 C1898 1.403 . S
C1897 H1876 0.950 . S
C1897 C1896 1.382 . S
C1897 C1913 1.411 . S
C1898 C1896 1.403 . S
C1898 C1899 1.489 . S
C1898 C1912 1.411 . S
C1899 C1898 1.489 . S
C1899 C1900 1.383 . S
C1899 C1904 1.382 . S
C1900 H1877 0.950 . S
C1900 C1899 1.383 . S
C1900 C1901 1.395 . S
C1901 H1878 0.950 . S
C1901 C1900 1.395 . S
C1901 C1902 1.288 . S
C1902 C1901 1.288 . S
C1902 C1903 1.392 . S
C1903 H1879 0.951 . S
C1903 C1902 1.392 . S
C1903 C1904 1.392 . S
C1904 H1880 0.949 . S
C1904 C1899 1.382 . S
C1904 C1903 1.392 . S
C1905 C1906 1.376 . S
C1905 C1910 1.386 . S
C1905 C1911 1.483 . S
C1906 H1881 0.949 . S
C1906 C1905 1.376 . S
C1906 C1907 1.397 . S
C1907 H1882 0.950 . S
C1907 C1906 1.397 . S
C1907 C1908 1.391 . S
C1908 C1907 1.391 . S
C1908 C1909 1.405 . S
C1909 H1883 0.950 . S
C1909 C1908 1.405 . S
C1909 C1910 1.367 . S
C1910 H1884 0.950 . S
C1910 C1905 1.386 . S
C1910 C1909 1.367 . S
C1911 C1905 1.483 . S
C1911 C1912 1.382 . S
C1911 C1913 1.403 . S
C1912 H1885 0.950 . S
C1912 C1898 1.411 . S
C1912 C1911 1.382 . S
C1913 C1897 1.411 . S
C1913 C1911 1.403 . S
C1913 C1914 1.489 . S
C1914 C1913 1.489 . S
C1914 C1915 1.383 . S
C1914 C1919 1.382 . S
C1915 H1886 0.950 . S
C1915 C1914 1.383 . S
C1915 C1916 1.395 . S
C1916 H1887 0.950 . S
C1916 C1915 1.395 . S
C1916 C1917 1.288 . S
C1917 C1916 1.288 . S
C1917 C1918 1.392 . S
C1918 H1888 0.951 . S
C1918 C1917 1.392 . S
C1918 C1919 1.392 . S
C1919 H1889 0.949 . S
C1919 C1914 1.382 . S
C1919 C1918 1.392 . S
H1920 C1939 0.949 . S
H1921 C1940 0.950 . S
H1922 C1942 0.950 . S
H1923 C1943 0.950 . S
H1924 C1945 0.950 . S
H1925 C1948 0.950 . S
H1926 C1949 0.950 . S
H1927 C1951 0.951 . S
H1928 C1952 0.949 . S
H1929 C1954 0.949 . S
H1930 C1955 0.950 . S
H1931 C1957 0.950 . S
H1932 C1958 0.950 . S
H1933 C1960 0.950 . S
H1934 C1963 0.950 . S
H1935 C1964 0.950 . S
H1936 C1966 0.951 . S
H1937 C1967 0.949 . S
C1938 C1939 1.376 . S
C1938 C1943 1.386 . S
C1938 C1944 1.483 . S
C1939 H1920 0.949 . S
C1939 C1938 1.376 . S
C1939 C1940 1.397 . S
C1940 H1921 0.950 . S
C1940 C1939 1.397 . S
C1940 C1941 1.391 . S
C1941 C1940 1.391 . S
C1941 C1942 1.405 . S
C1942 H1922 0.950 . S
C1942 C1941 1.405 . S
C1942 C1943 1.367 . S
C1943 H1923 0.950 . S
C1943 C1938 1.386 . S
C1943 C1942 1.367 . S
C1944 C1938 1.483 . S
C1944 C1945 1.382 . S
C1944 C1946 1.403 . S
C1945 H1924 0.950 . S
C1945 C1944 1.382 . S
C1945 C1961 1.411 . S
C1946 C1944 1.403 . S
C1946 C1947 1.489 . S
C1946 C1960 1.411 . S
C1947 C1946 1.489 . S
C1947 C1948 1.383 . S
C1947 C1952 1.382 . S
C1948 H1925 0.950 . S
C1948 C1947 1.383 . S
C1948 C1949 1.395 . S
C1949 H1926 0.950 . S
C1949 C1948 1.395 . S
C1949 C1950 1.288 . S
C1950 C1949 1.288 . S
C1950 C1951 1.392 . S
C1951 H1927 0.951 . S
C1951 C1950 1.392 . S
C1951 C1952 1.392 . S
C1952 H1928 0.949 . S
C1952 C1947 1.382 . S
C1952 C1951 1.392 . S
C1953 C1954 1.376 . S
C1953 C1958 1.386 . S
C1953 C1959 1.483 . S
C1954 H1929 0.949 . S
C1954 C1953 1.376 . S
C1954 C1955 1.397 . S
C1955 H1930 0.950 . S
C1955 C1954 1.397 . S
C1955 C1956 1.391 . S
C1956 C1955 1.391 . S
C1956 C1957 1.405 . S
C1957 H1931 0.950 . S
C1957 C1956 1.405 . S
C1957 C1958 1.367 . S
C1958 H1932 0.950 . S
C1958 C1953 1.386 . S
C1958 C1957 1.367 . S
C1959 C1953 1.483 . S
C1959 C1960 1.382 . S
C1959 C1961 1.403 . S
C1960 H1933 0.950 . S
C1960 C1946 1.411 . S
C1960 C1959 1.382 . S
C1961 C1945 1.411 . S
C1961 C1959 1.403 . S
C1961 C1962 1.489 . S
C1962 C1961 1.489 . S
C1962 C1963 1.383 . S
C1962 C1967 1.382 . S
C1963 H1934 0.950 . S
C1963 C1962 1.383 . S
C1963 C1964 1.395 . S
C1964 H1935 0.950 . S
C1964 C1963 1.395 . S
C1964 C1965 1.288 . S
C1965 C1964 1.288 . S
C1965 C1966 1.392 . S
C1966 H1936 0.951 . S
C1966 C1965 1.392 . S
C1966 C1967 1.392 . S
C1967 H1937 0.949 . S
C1967 C1962 1.382 . S
C1967 C1966 1.392 . S
H1968 C1987 0.949 . S
H1969 C1988 0.950 . S
H1970 C1990 0.950 . S
H1971 C1991 0.950 . S
H1972 C1993 0.950 . S
H1973 C1996 0.950 . S
H1974 C1997 0.950 . S
H1975 C1999 0.951 . S
H1976 C2000 0.949 . S
H1977 C2002 0.949 . S
H1978 C2003 0.950 . S
H1979 C2005 0.950 . S
H1980 C2006 0.950 . S
H1981 C2008 0.950 . S
H1982 C2011 0.950 . S
H1983 C2012 0.950 . S
H1984 C2014 0.951 . S
H1985 C2015 0.949 . S
C1986 C1987 1.376 . S
C1986 C1991 1.386 . S
C1986 C1992 1.483 . S
C1987 H1968 0.949 . S
C1987 C1986 1.376 . S
C1987 C1988 1.397 . S
C1988 H1969 0.950 . S
C1988 C1987 1.397 . S
C1988 C1989 1.391 . S
C1989 C1988 1.391 . S
C1989 C1990 1.405 . S
C1990 H1970 0.950 . S
C1990 C1989 1.405 . S
C1990 C1991 1.367 . S
C1991 H1971 0.950 . S
C1991 C1986 1.386 . S
C1991 C1990 1.367 . S
C1992 C1986 1.483 . S
C1992 C1993 1.382 . S
C1992 C1994 1.403 . S
C1993 H1972 0.950 . S
C1993 C1992 1.382 . S
C1993 C2009 1.411 . S
C1994 C1992 1.403 . S
C1994 C1995 1.489 . S
C1994 C2008 1.411 . S
C1995 C1994 1.489 . S
C1995 C1996 1.383 . S
C1995 C2000 1.382 . S
C1996 H1973 0.950 . S
C1996 C1995 1.383 . S
C1996 C1997 1.395 . S
C1997 H1974 0.950 . S
C1997 C1996 1.395 . S
C1997 C1998 1.288 . S
C1998 C1997 1.288 . S
C1998 C1999 1.392 . S
C1999 H1975 0.951 . S
C1999 C1998 1.392 . S
C1999 C2000 1.392 . S
C2000 H1976 0.949 . S
C2000 C1995 1.382 . S
C2000 C1999 1.392 . S
C2001 C2002 1.376 . S
C2001 C2006 1.386 . S
C2001 C2007 1.483 . S
C2002 H1977 0.949 . S
C2002 C2001 1.376 . S
C2002 C2003 1.397 . S
C2003 H1978 0.950 . S
C2003 C2002 1.397 . S
C2003 C2004 1.391 . S
C2004 C2003 1.391 . S
C2004 C2005 1.405 . S
C2005 H1979 0.950 . S
C2005 C2004 1.405 . S
C2005 C2006 1.367 . S
C2006 H1980 0.950 . S
C2006 C2001 1.386 . S
C2006 C2005 1.367 . S
C2007 C2001 1.483 . S
C2007 C2008 1.382 . S
C2007 C2009 1.403 . S
C2008 H1981 0.950 . S
C2008 C1994 1.411 . S
C2008 C2007 1.382 . S
C2009 C1993 1.411 . S
C2009 C2007 1.403 . S
C2009 C2010 1.489 . S
C2010 C2009 1.489 . S
C2010 C2011 1.383 . S
C2010 C2015 1.382 . S
C2011 H1982 0.950 . S
C2011 C2010 1.383 . S
C2011 C2012 1.395 . S
C2012 H1983 0.950 . S
C2012 C2011 1.395 . S
C2012 C2013 1.288 . S
C2013 C2012 1.288 . S
C2013 C2014 1.392 . S
C2014 H1984 0.951 . S
C2014 C2013 1.392 . S
C2014 C2015 1.392 . S
C2015 H1985 0.949 . S
C2015 C2010 1.382 . S
C2015 C2014 1.392 . S
H2016 C2035 0.949 . S
H2017 C2036 0.950 . S
H2018 C2038 0.950 . S
H2019 C2039 0.950 . S
H2020 C2041 0.950 . S
H2021 C2044 0.950 . S
H2022 C2045 0.950 . S
H2023 C2047 0.951 . S
H2024 C2048 0.949 . S
H2025 C2050 0.949 . S
H2026 C2051 0.950 . S
H2027 C2053 0.950 . S
H2028 C2054 0.950 . S
H2029 C2056 0.950 . S
H2030 C2059 0.950 . S
H2031 C2060 0.950 . S
H2032 C2062 0.951 . S
H2033 C2063 0.949 . S
C2034 C2035 1.376 . S
C2034 C2039 1.386 1_655 S
C2034 C2040 1.483 . S
C2035 H2016 0.949 . S
C2035 C2034 1.376 . S
C2035 C2036 1.397 . S
C2036 H2017 0.950 . S
C2036 C2035 1.397 . S
C2036 C2037 1.391 . S
C2037 C2036 1.391 . S
C2037 C2038 1.405 1_655 S
C2038 H2018 0.950 . S
C2038 C2037 1.405 1_455 S
C2038 C2039 1.367 . S
C2039 H2019 0.950 . S
C2039 C2034 1.386 1_455 S
C2039 C2038 1.367 . S
C2040 C2034 1.483 . S
C2040 C2041 1.382 . S
C2040 C2042 1.403 1_655 S
C2041 H2020 0.950 . S
C2041 C2040 1.382 . S
C2041 C2057 1.411 . S
C2042 C2040 1.403 1_455 S
C2042 C2043 1.489 . S
C2042 C2056 1.411 . S
C2043 C2042 1.489 . S
C2043 C2044 1.383 1_455 S
C2043 C2048 1.382 . S
C2044 H2021 0.950 . S
C2044 C2043 1.383 1_655 S
C2044 C2045 1.395 . S
C2045 H2022 0.950 . S
C2045 C2044 1.395 . S
C2045 C2046 1.288 1_655 S
C2046 C2045 1.288 1_455 S
C2046 C2047 1.392 . S
C2047 H2023 0.951 . S
C2047 C2046 1.392 . S
C2047 C2048 1.392 . S
C2048 H2024 0.949 . S
C2048 C2043 1.382 . S
C2048 C2047 1.392 . S
C2049 C2050 1.376 . S
C2049 C2054 1.386 1_455 S
C2049 C2055 1.483 . S
C2050 H2025 0.949 . S
C2050 C2049 1.376 . S
C2050 C2051 1.397 . S
C2051 H2026 0.950 . S
C2051 C2050 1.397 . S
C2051 C2052 1.391 . S
C2052 C2051 1.391 . S
C2052 C2053 1.405 1_455 S
C2053 H2027 0.950 . S
C2053 C2052 1.405 1_655 S
C2053 C2054 1.367 . S
C2054 H2028 0.950 . S
C2054 C2049 1.386 1_655 S
C2054 C2053 1.367 . S
C2055 C2049 1.483 . S
C2055 C2056 1.382 . S
C2055 C2057 1.403 1_455 S
C2056 H2029 0.950 . S
C2056 C2042 1.411 . S
C2056 C2055 1.382 . S
C2057 C2041 1.411 . S
C2057 C2055 1.403 1_655 S
C2057 C2058 1.489 . S
C2058 C2057 1.489 . S
C2058 C2059 1.383 1_655 S
C2058 C2063 1.382 . S
C2059 H2030 0.950 . S
C2059 C2058 1.383 1_455 S
C2059 C2060 1.395 . S
C2060 H2031 0.950 . S
C2060 C2059 1.395 . S
C2060 C2061 1.288 1_455 S
C2061 C2060 1.288 1_655 S
C2061 C2062 1.392 . S
C2062 H2032 0.951 . S
C2062 C2061 1.392 . S
C2062 C2063 1.392 . S
C2063 H2033 0.949 . S
C2063 C2058 1.382 . S
C2063 C2062 1.392 . S
H2064 C2083 0.949 . S
H2065 C2084 0.950 . S
H2066 C2086 0.950 . S
H2067 C2087 0.950 . S
H2068 C2089 0.950 . S
H2069 C2092 0.950 . S
H2070 C2093 0.950 . S
H2071 C2095 0.951 . S
H2072 C2096 0.949 . S
H2073 C2098 0.949 . S
H2074 C2099 0.950 . S
H2075 C2101 0.950 . S
H2076 C2102 0.950 . S
H2077 C2104 0.950 . S
H2078 C2107 0.950 . S
H2079 C2108 0.950 . S
H2080 C2110 0.951 . S
H2081 C2111 0.949 . S
C2082 C2083 1.376 . S
C2082 C2087 1.386 . S
C2082 C2088 1.483 . S
C2083 H2064 0.949 . S
C2083 C2082 1.376 . S
C2083 C2084 1.397 . S
C2084 H2065 0.950 . S
C2084 C2083 1.397 . S
C2084 C2085 1.391 . S
C2085 C2084 1.391 . S
C2085 C2086 1.405 . S
C2086 H2066 0.950 . S
C2086 C2085 1.405 . S
C2086 C2087 1.367 . S
C2087 H2067 0.950 . S
C2087 C2082 1.386 . S
C2087 C2086 1.367 . S
C2088 C2082 1.483 . S
C2088 C2089 1.382 . S
C2088 C2090 1.403 . S
C2089 H2068 0.950 . S
C2089 C2088 1.382 . S
C2089 C2105 1.411 . S
C2090 C2088 1.403 . S
C2090 C2091 1.489 . S
C2090 C2104 1.411 . S
C2091 C2090 1.489 . S
C2091 C2092 1.383 . S
C2091 C2096 1.382 . S
C2092 H2069 0.950 . S
C2092 C2091 1.383 . S
C2092 C2093 1.395 . S
C2093 H2070 0.950 . S
C2093 C2092 1.395 . S
C2093 C2094 1.288 . S
C2094 C2093 1.288 . S
C2094 C2095 1.392 . S
C2095 H2071 0.951 . S
C2095 C2094 1.392 . S
C2095 C2096 1.392 . S
C2096 H2072 0.949 . S
C2096 C2091 1.382 . S
C2096 C2095 1.392 . S
C2097 C2098 1.376 . S
C2097 C2102 1.386 . S
C2097 C2103 1.483 . S
C2098 H2073 0.949 . S
C2098 C2097 1.376 . S
C2098 C2099 1.397 . S
C2099 H2074 0.950 . S
C2099 C2098 1.397 . S
C2099 C2100 1.391 . S
C2100 C2099 1.391 . S
C2100 C2101 1.405 . S
C2101 H2075 0.950 . S
C2101 C2100 1.405 . S
C2101 C2102 1.367 . S
C2102 H2076 0.950 . S
C2102 C2097 1.386 . S
C2102 C2101 1.367 . S
C2103 C2097 1.483 . S
C2103 C2104 1.382 . S
C2103 C2105 1.403 . S
C2104 H2077 0.950 . S
C2104 C2090 1.411 . S
C2104 C2103 1.382 . S
C2105 C2089 1.411 . S
C2105 C2103 1.403 . S
C2105 C2106 1.489 . S
C2106 C2105 1.489 . S
C2106 C2107 1.383 . S
C2106 C2111 1.382 . S
C2107 H2078 0.950 . S
C2107 C2106 1.383 . S
C2107 C2108 1.395 . S
C2108 H2079 0.950 . S
C2108 C2107 1.395 . S
C2108 C2109 1.288 . S
C2109 C2108 1.288 . S
C2109 C2110 1.392 . S
C2110 H2080 0.951 . S
C2110 C2109 1.392 . S
C2110 C2111 1.392 . S
C2111 H2081 0.949 . S
C2111 C2106 1.382 . S
C2111 C2110 1.392 . S
H2112 C2131 0.949 . S
H2113 C2132 0.950 . S
H2114 C2134 0.950 . S
H2115 C2135 0.950 . S
H2116 C2137 0.950 . S
H2117 C2140 0.950 . S
H2118 C2141 0.950 . S
H2119 C2143 0.951 . S
H2120 C2144 0.949 . S
H2121 C2146 0.949 . S
H2122 C2147 0.950 . S
H2123 C2149 0.950 . S
H2124 C2150 0.950 . S
H2125 C2152 0.950 . S
H2126 C2155 0.950 . S
H2127 C2156 0.950 . S
H2128 C2158 0.951 . S
H2129 C2159 0.949 . S
C2130 C2131 1.376 . S
C2130 C2135 1.386 1_545 S
C2130 C2136 1.483 . S
C2131 H2112 0.949 . S
C2131 C2130 1.376 . S
C2131 C2132 1.397 . S
C2132 H2113 0.950 . S
C2132 C2131 1.397 . S
C2132 C2133 1.391 . S
C2133 C2132 1.391 . S
C2133 C2134 1.405 1_545 S
C2134 H2114 0.950 . S
C2134 C2133 1.405 1_565 S
C2134 C2135 1.367 . S
C2135 H2115 0.950 . S
C2135 C2130 1.386 1_565 S
C2135 C2134 1.367 . S
C2136 C2130 1.483 . S
C2136 C2137 1.382 . S
C2136 C2138 1.403 1_545 S
C2137 H2116 0.950 . S
C2137 C2136 1.382 . S
C2137 C2153 1.411 . S
C2138 C2136 1.403 1_565 S
C2138 C2139 1.489 . S
C2138 C2152 1.411 . S
C2139 C2138 1.489 . S
C2139 C2140 1.383 1_565 S
C2139 C2144 1.382 . S
C2140 H2117 0.950 . S
C2140 C2139 1.383 1_545 S
C2140 C2141 1.395 . S
C2141 H2118 0.950 . S
C2141 C2140 1.395 . S
C2141 C2142 1.288 1_545 S
C2142 C2141 1.288 1_565 S
C2142 C2143 1.392 . S
C2143 H2119 0.951 . S
C2143 C2142 1.392 . S
C2143 C2144 1.392 . S
C2144 H2120 0.949 . S
C2144 C2139 1.382 . S
C2144 C2143 1.392 . S
C2145 C2146 1.376 . S
C2145 C2150 1.386 1_565 S
C2145 C2151 1.483 . S
C2146 H2121 0.949 . S
C2146 C2145 1.376 . S
C2146 C2147 1.397 . S
C2147 H2122 0.950 . S
C2147 C2146 1.397 . S
C2147 C2148 1.391 . S
C2148 C2147 1.391 . S
C2148 C2149 1.405 1_565 S
C2149 H2123 0.950 . S
C2149 C2148 1.405 1_545 S
C2149 C2150 1.367 . S
C2150 H2124 0.950 . S
C2150 C2145 1.386 1_545 S
C2150 C2149 1.367 . S
C2151 C2145 1.483 . S
C2151 C2152 1.382 . S
C2151 C2153 1.403 1_565 S
C2152 H2125 0.950 . S
C2152 C2138 1.411 . S
C2152 C2151 1.382 . S
C2153 C2137 1.411 . S
C2153 C2151 1.403 1_545 S
C2153 C2154 1.489 . S
C2154 C2153 1.489 . S
C2154 C2155 1.383 1_545 S
C2154 C2159 1.382 . S
C2155 H2126 0.950 . S
C2155 C2154 1.383 1_565 S
C2155 C2156 1.395 . S
C2156 H2127 0.950 . S
C2156 C2155 1.395 . S
C2156 C2157 1.288 1_565 S
C2157 C2156 1.288 1_545 S
C2157 C2158 1.392 . S
C2158 H2128 0.951 . S
C2158 C2157 1.392 . S
C2158 C2159 1.392 . S
C2159 H2129 0.949 . S
C2159 C2154 1.382 . S
C2159 C2158 1.392 . S
H2160 C2179 0.949 . S
H2161 C2180 0.950 . S
H2162 C2182 0.950 . S
H2163 C2183 0.950 . S
H2164 C2185 0.950 . S
H2165 C2188 0.950 . S
H2166 C2189 0.950 . S
H2167 C2191 0.951 . S
H2168 C2192 0.949 . S
H2169 C2194 0.949 . S
H2170 C2195 0.950 . S
H2171 C2197 0.950 . S
H2172 C2198 0.950 . S
H2173 C2200 0.950 . S
H2174 C2203 0.950 . S
H2175 C2204 0.950 . S
H2176 C2206 0.951 . S
H2177 C2207 0.949 . S
C2178 C2179 1.378 . S
C2178 C2183 1.385 1_545 S
C2178 C2184 1.506 . S
C2179 H2160 0.949 . S
C2179 C2178 1.378 . S
C2179 C2180 1.397 . S
C2180 H2161 0.950 . S
C2180 C2179 1.397 . S
C2180 C2181 1.391 1_545 S
C2181 C2180 1.391 1_565 S
C2181 C2182 1.405 . S
C2182 H2162 0.950 . S
C2182 C2181 1.405 . S
C2182 C2183 1.367 . S
C2183 H2163 0.950 . S
C2183 C2178 1.385 1_565 S
C2183 C2182 1.367 . S
C2184 C2178 1.506 . S
C2184 C2185 1.359 . S
C2184 C2186 1.399 1_545 S
C2185 H2164 0.950 . S
C2185 C2184 1.359 . S
C2185 C2201 1.440 . S
C2186 C2184 1.399 1_565 S
C2186 C2187 1.480 . S
C2186 C2200 1.429 . S
C2187 C2186 1.480 . S
C2187 C2188 1.369 1_565 S
C2187 C2192 1.389 . S
C2188 H2165 0.950 . S
C2188 C2187 1.369 1_545 S
C2188 C2189 1.395 . S
C2189 H2166 0.950 . S
C2189 C2188 1.395 . S
C2189 C2190 1.288 . S
C2190 C2189 1.288 . S
C2190 C2191 1.392 1_545 S
C2191 H2167 0.951 . S
C2191 C2190 1.392 1_565 S
C2191 C2192 1.392 . S
C2192 H2168 0.949 . S
C2192 C2187 1.389 . S
C2192 C2191 1.392 . S
C2193 C2194 1.378 1_545 S
C2193 C2198 1.385 . S
C2193 C2199 1.497 1_545 S
C2194 H2169 0.949 . S
C2194 C2193 1.378 1_565 S
C2194 C2195 1.397 . S
C2195 H2170 0.950 . S
C2195 C2194 1.397 . S
C2195 C2196 1.391 1_565 S
C2196 C2195 1.391 1_545 S
C2196 C2197 1.405 . S
C2197 H2171 0.950 . S
C2197 C2196 1.405 . S
C2197 C2198 1.367 . S
C2198 H2172 0.950 . S
C2198 C2193 1.385 . S
C2198 C2197 1.367 . S
C2199 C2193 1.497 1_565 S
C2199 C2200 1.367 . S
C2199 C2201 1.399 1_565 S
C2200 H2173 0.950 . S
C2200 C2186 1.429 . S
C2200 C2199 1.367 . S
C2201 C2185 1.440 . S
C2201 C2199 1.399 1_545 S
C2201 C2202 1.480 . S
C2202 C2201 1.480 . S
C2202 C2203 1.348 1_545 S
C2202 C2207 1.401 . S
C2203 H2174 0.950 . S
C2203 C2202 1.348 1_565 S
C2203 C2204 1.395 . S
C2204 H2175 0.950 . S
C2204 C2203 1.395 . S
C2204 C2205 1.288 . S
C2205 C2204 1.288 . S
C2205 C2206 1.392 1_565 S
C2206 H2176 0.951 . S
C2206 C2205 1.392 1_545 S
C2206 C2207 1.392 . S
C2207 H2177 0.949 . S
C2207 C2202 1.401 . S
C2207 C2206 1.392 . S
H2208 C2227 0.949 . S
H2209 C2228 0.950 . S
H2210 C2230 0.950 . S
H2211 C2231 0.950 . S
H2212 C2233 0.950 . S
H2213 C2236 0.950 . S
H2214 C2237 0.950 . S
H2215 C2239 0.951 . S
H2216 C2240 0.949 . S
H2217 C2242 0.949 . S
H2218 C2243 0.950 . S
H2219 C2245 0.950 . S
H2220 C2246 0.950 . S
H2221 C2248 0.950 . S
H2222 C2251 0.950 . S
H2223 C2252 0.950 . S
H2224 C2254 0.951 . S
H2225 C2255 0.949 . S
C2226 C2227 1.376 . S
C2226 C2231 1.386 1_455 S
C2226 C2232 1.483 . S
C2227 H2208 0.949 . S
C2227 C2226 1.376 . S
C2227 C2228 1.397 . S
C2228 H2209 0.950 . S
C2228 C2227 1.397 . S
C2228 C2229 1.391 . S
C2229 C2228 1.391 . S
C2229 C2230 1.405 1_455 S
C2230 H2210 0.950 . S
C2230 C2229 1.405 1_655 S
C2230 C2231 1.367 . S
C2231 H2211 0.950 . S
C2231 C2226 1.386 1_655 S
C2231 C2230 1.367 . S
C2232 C2226 1.483 . S
C2232 C2233 1.382 . S
C2232 C2234 1.403 1_455 S
C2233 H2212 0.950 . S
C2233 C2232 1.382 . S
C2233 C2249 1.411 . S
C2234 C2232 1.403 1_655 S
C2234 C2235 1.489 . S
C2234 C2248 1.411 . S
C2235 C2234 1.489 . S
C2235 C2236 1.383 1_655 S
C2235 C2240 1.382 . S
C2236 H2213 0.950 . S
C2236 C2235 1.383 1_455 S
C2236 C2237 1.395 . S
C2237 H2214 0.950 . S
C2237 C2236 1.395 . S
C2237 C2238 1.288 1_455 S
C2238 C2237 1.288 1_655 S
C2238 C2239 1.392 . S
C2239 H2215 0.951 . S
C2239 C2238 1.392 . S
C2239 C2240 1.392 . S
C2240 H2216 0.949 . S
C2240 C2235 1.382 . S
C2240 C2239 1.392 . S
C2241 C2242 1.376 . S
C2241 C2246 1.386 1_655 S
C2241 C2247 1.483 . S
C2242 H2217 0.949 . S
C2242 C2241 1.376 . S
C2242 C2243 1.397 . S
C2243 H2218 0.950 . S
C2243 C2242 1.397 . S
C2243 C2244 1.391 . S
C2244 C2243 1.391 . S
C2244 C2245 1.405 1_655 S
C2245 H2219 0.950 . S
C2245 C2244 1.405 1_455 S
C2245 C2246 1.367 . S
C2246 H2220 0.950 . S
C2246 C2241 1.386 1_455 S
C2246 C2245 1.367 . S
C2247 C2241 1.483 . S
C2247 C2248 1.382 . S
C2247 C2249 1.403 1_655 S
C2248 H2221 0.950 . S
C2248 C2234 1.411 . S
C2248 C2247 1.382 . S
C2249 C2233 1.411 . S
C2249 C2247 1.403 1_455 S
C2249 C2250 1.489 . S
C2250 C2249 1.489 . S
C2250 C2251 1.383 1_455 S
C2250 C2255 1.382 . S
C2251 H2222 0.950 . S
C2251 C2250 1.383 1_655 S
C2251 C2252 1.395 . S
C2252 H2223 0.950 . S
C2252 C2251 1.395 . S
C2252 C2253 1.288 1_655 S
C2253 C2252 1.288 1_455 S
C2253 C2254 1.392 . S
C2254 H2224 0.951 . S
C2254 C2253 1.392 . S
C2254 C2255 1.392 . S
C2255 H2225 0.949 . S
C2255 C2250 1.382 . S
C2255 C2254 1.392 . S
H2256 C2275 0.949 . S
H2257 C2276 0.950 . S
H2258 C2278 0.950 . S
H2259 C2279 0.950 . S
H2260 C2281 0.950 . S
H2261 C2284 0.950 . S
H2262 C2285 0.950 . S
H2263 C2287 0.951 . S
H2264 C2288 0.949 . S
H2265 C2290 0.949 . S
H2266 C2291 0.950 . S
H2267 C2293 0.950 . S
H2268 C2294 0.950 . S
H2269 C2296 0.950 . S
H2270 C2299 0.950 . S
H2271 C2300 0.950 . S
H2272 C2302 0.951 . S
H2273 C2303 0.949 . S
C2274 C2275 1.376 . S
C2274 C2279 1.386 . S
C2274 C2280 1.483 . S
C2275 H2256 0.949 . S
C2275 C2274 1.376 . S
C2275 C2276 1.397 . S
C2276 H2257 0.950 . S
C2276 C2275 1.397 . S
C2276 C2277 1.391 . S
C2277 C2276 1.391 . S
C2277 C2278 1.405 . S
C2278 H2258 0.950 . S
C2278 C2277 1.405 . S
C2278 C2279 1.367 . S
C2279 H2259 0.950 . S
C2279 C2274 1.386 . S
C2279 C2278 1.367 . S
C2280 C2274 1.483 . S
C2280 C2281 1.382 . S
C2280 C2282 1.403 . S
C2281 H2260 0.950 . S
C2281 C2280 1.382 . S
C2281 C2297 1.411 . S
C2282 C2280 1.403 . S
C2282 C2283 1.489 . S
C2282 C2296 1.411 . S
C2283 C2282 1.489 . S
C2283 C2284 1.383 . S
C2283 C2288 1.382 . S
C2284 H2261 0.950 . S
C2284 C2283 1.383 . S
C2284 C2285 1.395 . S
C2285 H2262 0.950 . S
C2285 C2284 1.395 . S
C2285 C2286 1.288 . S
C2286 C2285 1.288 . S
C2286 C2287 1.392 . S
C2287 H2263 0.951 . S
C2287 C2286 1.392 . S
C2287 C2288 1.392 . S
C2288 H2264 0.949 . S
C2288 C2283 1.382 . S
C2288 C2287 1.392 . S
C2289 C2290 1.376 . S
C2289 C2294 1.386 . S
C2289 C2295 1.483 . S
C2290 H2265 0.949 . S
C2290 C2289 1.376 . S
C2290 C2291 1.397 . S
C2291 H2266 0.950 . S
C2291 C2290 1.397 . S
C2291 C2292 1.391 . S
C2292 C2291 1.391 . S
C2292 C2293 1.405 . S
C2293 H2267 0.950 . S
C2293 C2292 1.405 . S
C2293 C2294 1.367 . S
C2294 H2268 0.950 . S
C2294 C2289 1.386 . S
C2294 C2293 1.367 . S
C2295 C2289 1.483 . S
C2295 C2296 1.382 . S
C2295 C2297 1.403 . S
C2296 H2269 0.950 . S
C2296 C2282 1.411 . S
C2296 C2295 1.382 . S
C2297 C2281 1.411 . S
C2297 C2295 1.403 . S
C2297 C2298 1.489 . S
C2298 C2297 1.489 . S
C2298 C2299 1.383 . S
C2298 C2303 1.382 . S
C2299 H2270 0.950 . S
C2299 C2298 1.383 . S
C2299 C2300 1.395 . S
C2300 H2271 0.950 . S
C2300 C2299 1.395 . S
C2300 C2301 1.288 . S
C2301 C2300 1.288 . S
C2301 C2302 1.392 . S
C2302 H2272 0.951 . S
C2302 C2301 1.392 . S
C2302 C2303 1.392 . S
C2303 H2273 0.949 . S
C2303 C2298 1.382 . S
C2303 C2302 1.392 . S
H2304 C2323 0.949 . S
H2305 C2324 0.950 . S
H2306 C2326 0.950 . S
H2307 C2327 0.950 . S
H2308 C2329 0.950 . S
H2309 C2332 0.950 . S
H2310 C2333 0.950 . S
H2311 C2335 0.951 . S
H2312 C2336 0.949 . S
H2313 C2338 0.949 . S
H2314 C2339 0.950 . S
H2315 C2341 0.950 . S
H2316 C2342 0.950 . S
H2317 C2344 0.950 . S
H2318 C2347 0.950 . S
H2319 C2348 0.950 . S
H2320 C2350 0.951 . S
H2321 C2351 0.949 . S
C2322 C2323 1.376 . S
C2322 C2327 1.386 . S
C2322 C2328 1.483 . S
C2323 H2304 0.949 . S
C2323 C2322 1.376 . S
C2323 C2324 1.397 . S
C2324 H2305 0.950 . S
C2324 C2323 1.397 . S
C2324 C2325 1.391 . S
C2325 C2324 1.391 . S
C2325 C2326 1.405 . S
C2326 H2306 0.950 . S
C2326 C2325 1.405 . S
C2326 C2327 1.367 . S
C2327 H2307 0.950 . S
C2327 C2322 1.386 . S
C2327 C2326 1.367 . S
C2328 C2322 1.483 . S
C2328 C2329 1.382 . S
C2328 C2330 1.403 . S
C2329 H2308 0.950 . S
C2329 C2328 1.382 . S
C2329 C2345 1.411 . S
C2330 C2328 1.403 . S
C2330 C2331 1.489 . S
C2330 C2344 1.411 . S
C2331 C2330 1.489 . S
C2331 C2332 1.383 . S
C2331 C2336 1.382 . S
C2332 H2309 0.950 . S
C2332 C2331 1.383 . S
C2332 C2333 1.395 . S
C2333 H2310 0.950 . S
C2333 C2332 1.395 . S
C2333 C2334 1.288 . S
C2334 C2333 1.288 . S
C2334 C2335 1.392 . S
C2335 H2311 0.951 . S
C2335 C2334 1.392 . S
C2335 C2336 1.392 . S
C2336 H2312 0.949 . S
C2336 C2331 1.382 . S
C2336 C2335 1.392 . S
C2337 C2338 1.376 . S
C2337 C2342 1.386 . S
C2337 C2343 1.483 . S
C2338 H2313 0.949 . S
C2338 C2337 1.376 . S
C2338 C2339 1.397 . S
C2339 H2314 0.950 . S
C2339 C2338 1.397 . S
C2339 C2340 1.391 . S
C2340 C2339 1.391 . S
C2340 C2341 1.405 . S
C2341 H2315 0.950 . S
C2341 C2340 1.405 . S
C2341 C2342 1.367 . S
C2342 H2316 0.950 . S
C2342 C2337 1.386 . S
C2342 C2341 1.367 . S
C2343 C2337 1.483 . S
C2343 C2344 1.382 . S
C2343 C2345 1.403 . S
C2344 H2317 0.950 . S
C2344 C2330 1.411 . S
C2344 C2343 1.382 . S
C2345 C2329 1.411 . S
C2345 C2343 1.403 . S
C2345 C2346 1.489 . S
C2346 C2345 1.489 . S
C2346 C2347 1.383 . S
C2346 C2351 1.382 . S
C2347 H2318 0.950 . S
C2347 C2346 1.383 . S
C2347 C2348 1.395 . S
C2348 H2319 0.950 . S
C2348 C2347 1.395 . S
C2348 C2349 1.288 . S
C2349 C2348 1.288 . S
C2349 C2350 1.392 . S
C2350 H2320 0.951 . S
C2350 C2349 1.392 . S
C2350 C2351 1.392 . S
C2351 H2321 0.949 . S
C2351 C2346 1.382 . S
C2351 C2350 1.392 . S
H2352 C2371 0.949 . S
H2353 C2372 0.950 . S
H2354 C2374 0.950 . S
H2355 C2375 0.950 . S
H2356 C2377 0.950 . S
H2357 C2380 0.950 . S
H2358 C2381 0.950 . S
H2359 C2383 0.951 . S
H2360 C2384 0.949 . S
H2361 C2386 0.949 . S
H2362 C2387 0.950 . S
H2363 C2389 0.950 . S
H2364 C2390 0.950 . S
H2365 C2392 0.950 . S
H2366 C2395 0.950 . S
H2367 C2396 0.950 . S
H2368 C2398 0.951 . S
H2369 C2399 0.949 . S
C2370 C2371 1.376 . S
C2370 C2375 1.386 . S
C2370 C2376 1.483 . S
C2371 H2352 0.949 . S
C2371 C2370 1.376 . S
C2371 C2372 1.397 . S
C2372 H2353 0.950 . S
C2372 C2371 1.397 . S
C2372 C2373 1.391 . S
C2373 C2372 1.391 . S
C2373 C2374 1.405 . S
C2374 H2354 0.950 . S
C2374 C2373 1.405 . S
C2374 C2375 1.367 . S
C2375 H2355 0.950 . S
C2375 C2370 1.386 . S
C2375 C2374 1.367 . S
C2376 C2370 1.483 . S
C2376 C2377 1.382 . S
C2376 C2378 1.403 . S
C2377 H2356 0.950 . S
C2377 C2376 1.382 . S
C2377 C2393 1.411 . S
C2378 C2376 1.403 . S
C2378 C2379 1.489 . S
C2378 C2392 1.411 . S
C2379 C2378 1.489 . S
C2379 C2380 1.383 . S
C2379 C2384 1.382 . S
C2380 H2357 0.950 . S
C2380 C2379 1.383 . S
C2380 C2381 1.395 . S
C2381 H2358 0.950 . S
C2381 C2380 1.395 . S
C2381 C2382 1.288 . S
C2382 C2381 1.288 . S
C2382 C2383 1.392 . S
C2383 H2359 0.951 . S
C2383 C2382 1.392 . S
C2383 C2384 1.392 . S
C2384 H2360 0.949 . S
C2384 C2379 1.382 . S
C2384 C2383 1.392 . S
C2385 C2386 1.376 . S
C2385 C2390 1.386 . S
C2385 C2391 1.483 . S
C2386 H2361 0.949 . S
C2386 C2385 1.376 . S
C2386 C2387 1.397 . S
C2387 H2362 0.950 . S
C2387 C2386 1.397 . S
C2387 C2388 1.391 . S
C2388 C2387 1.391 . S
C2388 C2389 1.405 . S
C2389 H2363 0.950 . S
C2389 C2388 1.405 . S
C2389 C2390 1.367 . S
C2390 H2364 0.950 . S
C2390 C2385 1.386 . S
C2390 C2389 1.367 . S
C2391 C2385 1.483 . S
C2391 C2392 1.382 . S
C2391 C2393 1.403 . S
C2392 H2365 0.950 . S
C2392 C2378 1.411 . S
C2392 C2391 1.382 . S
C2393 C2377 1.411 . S
C2393 C2391 1.403 . S
C2393 C2394 1.489 . S
C2394 C2393 1.489 . S
C2394 C2395 1.383 . S
C2394 C2399 1.382 . S
C2395 H2366 0.950 . S
C2395 C2394 1.383 . S
C2395 C2396 1.395 . S
C2396 H2367 0.950 . S
C2396 C2395 1.395 . S
C2396 C2397 1.288 . S
C2397 C2396 1.288 . S
C2397 C2398 1.392 . S
C2398 H2368 0.951 . S
C2398 C2397 1.392 . S
C2398 C2399 1.392 . S
C2399 H2369 0.949 . S
C2399 C2394 1.382 . S
C2399 C2398 1.392 . S
H2400 C2419 0.949 . S
H2401 C2420 0.950 . S
H2402 C2422 0.950 . S
H2403 C2423 0.950 . S
H2404 C2425 0.950 . S
H2405 C2428 0.950 . S
H2406 C2429 0.950 . S
H2407 C2431 0.951 . S
H2408 C2432 0.949 . S
H2409 C2434 0.949 . S
H2410 C2435 0.950 . S
H2411 C2437 0.950 . S
H2412 C2438 0.950 . S
H2413 C2440 0.950 . S
H2414 C2443 0.950 . S
H2415 C2444 0.950 . S
H2416 C2446 0.951 . S
H2417 C2447 0.949 . S
C2418 C2419 1.376 . S
C2418 C2423 1.386 . S
C2418 C2424 1.483 . S
C2419 H2400 0.949 . S
C2419 C2418 1.376 . S
C2419 C2420 1.397 . S
C2420 H2401 0.950 . S
C2420 C2419 1.397 . S
C2420 C2421 1.391 . S
C2421 C2420 1.391 . S
C2421 C2422 1.405 . S
C2422 H2402 0.950 . S
C2422 C2421 1.405 . S
C2422 C2423 1.367 . S
C2423 H2403 0.950 . S
C2423 C2418 1.386 . S
C2423 C2422 1.367 . S
C2424 C2418 1.483 . S
C2424 C2425 1.382 . S
C2424 C2426 1.403 . S
C2425 H2404 0.950 . S
C2425 C2424 1.382 . S
C2425 C2441 1.411 . S
C2426 C2424 1.403 . S
C2426 C2427 1.489 . S
C2426 C2440 1.411 . S
C2427 C2426 1.489 . S
C2427 C2428 1.383 . S
C2427 C2432 1.382 . S
C2428 H2405 0.950 . S
C2428 C2427 1.383 . S
C2428 C2429 1.395 . S
C2429 H2406 0.950 . S
C2429 C2428 1.395 . S
C2429 C2430 1.288 . S
C2430 C2429 1.288 . S
C2430 C2431 1.392 . S
C2431 H2407 0.951 . S
C2431 C2430 1.392 . S
C2431 C2432 1.392 . S
C2432 H2408 0.949 . S
C2432 C2427 1.382 . S
C2432 C2431 1.392 . S
C2433 C2434 1.376 . S
C2433 C2438 1.386 . S
C2433 C2439 1.483 . S
C2434 H2409 0.949 . S
C2434 C2433 1.376 . S
C2434 C2435 1.397 . S
C2435 H2410 0.950 . S
C2435 C2434 1.397 . S
C2435 C2436 1.391 . S
C2436 C2435 1.391 . S
C2436 C2437 1.405 . S
C2437 H2411 0.950 . S
C2437 C2436 1.405 . S
C2437 C2438 1.367 . S
C2438 H2412 0.950 . S
C2438 C2433 1.386 . S
C2438 C2437 1.367 . S
C2439 C2433 1.483 . S
C2439 C2440 1.382 . S
C2439 C2441 1.403 . S
C2440 H2413 0.950 . S
C2440 C2426 1.411 . S
C2440 C2439 1.382 . S
C2441 C2425 1.411 . S
C2441 C2439 1.403 . S
C2441 C2442 1.489 . S
C2442 C2441 1.489 . S
C2442 C2443 1.383 . S
C2442 C2447 1.382 . S
C2443 H2414 0.950 . S
C2443 C2442 1.383 . S
C2443 C2444 1.395 . S
C2444 H2415 0.950 . S
C2444 C2443 1.395 . S
C2444 C2445 1.288 . S
C2445 C2444 1.288 . S
C2445 C2446 1.392 . S
C2446 H2416 0.951 . S
C2446 C2445 1.392 . S
C2446 C2447 1.392 . S
C2447 H2417 0.949 . S
C2447 C2442 1.382 . S
C2447 C2446 1.392 . S
C2448 C2449 1.391 . S
C2448 C2450 1.394 . S
C2448 H2464 0.931 . S
C2449 C2448 1.391 . S
C2449 C2453 1.376 . S
C2450 C2448 1.394 . S
C2450 C2451 1.369 . S
C2450 C2454 1.531 . S
C2451 C2450 1.369 . S
C2451 C2452 1.410 . S
C2451 C2459 1.503 . S
C2452 C2451 1.410 . S
C2452 C2453 1.392 . S
C2452 C2455 1.511 1_655 S
C2453 C2449 1.376 . S
C2453 C2452 1.392 . S
C2453 H2465 0.929 1_655 S
C2454 C2450 1.531 . S
C2454 H2466 0.960 . S
C2454 H2467 0.962 . S
C2454 H2468 0.960 . S
C2455 C2452 1.511 1_455 S
C2455 H2469 0.961 . S
C2455 H2470 0.961 . S
C2455 H2471 0.961 . S
C2456 C2457 1.387 . S
C2456 C2458 1.347 . S
C2456 H2472 0.935 1_655 S
C2457 C2456 1.387 . S
C2457 C2461 1.408 . S
C2458 C2456 1.347 . S
C2458 C2459 1.370 . S
C2458 C2462 1.524 1_655 S
C2459 C2451 1.503 . S
C2459 C2458 1.370 . S
C2459 C2460 1.403 . S
C2460 C2459 1.403 . S
C2460 C2461 1.404 . S
C2460 C2463 1.539 . S
C2461 C2457 1.408 . S
C2461 C2460 1.404 . S
C2461 H2473 0.930 . S
C2462 C2458 1.524 1_455 S
C2462 H2474 0.956 1_455 S
C2462 H2475 0.961 . S
C2462 H2476 0.961 . S
C2463 C2460 1.539 . S
C2463 H2477 0.958 . S
C2463 H2478 0.961 . S
C2463 H2479 0.960 . S
H2464 C2448 0.931 . S
H2465 C2453 0.929 1_455 S
H2466 C2454 0.960 . S
H2467 C2454 0.962 . S
H2468 C2454 0.960 . S
H2469 C2455 0.961 . S
H2470 C2455 0.961 . S
H2471 C2455 0.961 . S
H2472 C2456 0.935 1_455 S
H2473 C2461 0.930 . S
H2474 C2462 0.956 1_655 S
H2475 C2462 0.961 . S
H2476 C2462 0.961 . S
H2477 C2463 0.958 . S
H2478 C2463 0.961 . S
H2479 C2463 0.960 . S
C2480 C2481 1.391 . S
C2480 C2482 1.394 . S
C2480 H2496 0.931 . S
C2481 C2480 1.391 . S
C2481 C2485 1.376 . S
C2482 C2480 1.394 . S
C2482 C2483 1.369 . S
C2482 C2486 1.531 . S
C2483 C2482 1.369 . S
C2483 C2484 1.410 . S
C2483 C2491 1.503 . S
C2484 C2483 1.410 . S
C2484 C2485 1.392 . S
C2484 C2487 1.511 . S
C2485 C2481 1.376 . S
C2485 C2484 1.392 . S
C2485 H2497 0.929 . S
C2486 C2482 1.531 . S
C2486 H2498 0.960 . S
C2486 H2499 0.962 . S
C2486 H2500 0.960 . S
C2487 C2484 1.511 . S
C2487 H2501 0.961 . S
C2487 H2502 0.961 . S
C2487 H2503 0.961 . S
C2488 C2489 1.370 . S
C2488 C2490 1.363 . S
C2488 H2504 0.931 . S
C2489 C2488 1.370 . S
C2489 C2493 1.408 . S
C2490 C2488 1.363 . S
C2490 C2491 1.370 . S
C2490 C2494 1.524 . S
C2491 C2483 1.503 . S
C2491 C2490 1.370 . S
C2491 C2492 1.403 . S
C2492 C2491 1.403 . S
C2492 C2493 1.404 . S
C2492 C2495 1.539 . S
C2493 C2489 1.408 . S
C2493 C2492 1.404 . S
C2493 H2505 0.930 . S
C2494 C2490 1.524 . S
C2494 H2506 0.956 . S
C2494 H2507 0.961 . S
C2494 H2508 0.961 . S
C2495 C2492 1.539 . S
C2495 H2509 0.958 . S
C2495 H2510 0.961 . S
C2495 H2511 0.960 . S
H2496 C2480 0.931 . S
H2497 C2485 0.929 . S
H2498 C2486 0.960 . S
H2499 C2486 0.962 . S
H2500 C2486 0.960 . S
H2501 C2487 0.961 . S
H2502 C2487 0.961 . S
H2503 C2487 0.961 . S
H2504 C2488 0.931 . S
H2505 C2493 0.930 . S
H2506 C2494 0.956 . S
H2507 C2494 0.961 . S
H2508 C2494 0.961 . S
H2509 C2495 0.958 . S
H2510 C2495 0.961 . S
H2511 C2495 0.960 . S
C2512 C2513 1.391 . S
C2512 C2514 1.394 . S
C2512 H2528 0.931 . S
C2513 C2512 1.391 . S
C2513 C2517 1.376 . S
C2514 C2512 1.394 . S
C2514 C2515 1.369 . S
C2514 C2518 1.531 . S
C2515 C2514 1.369 . S
C2515 C2516 1.452 . S
C2515 C2523 1.503 . S
C2516 C2515 1.452 . S
C2516 C2517 1.445 . S
C2516 C2519 1.423 1_545 S
C2517 C2513 1.376 . S
C2517 C2516 1.445 . S
C2517 H2529 0.929 1_545 S
C2518 C2514 1.531 . S
C2518 H2530 0.960 . S
C2518 H2531 0.962 . S
C2518 H2532 0.960 . S
C2519 C2516 1.423 1_565 S
C2519 H2533 0.961 . S
C2519 H2534 0.961 . S
C2519 H2535 0.961 . S
C2520 C2521 1.370 . S
C2520 C2522 1.363 . S
C2520 H2536 0.931 . S
C2521 C2520 1.370 . S
C2521 C2525 1.408 . S
C2522 C2520 1.363 . S
C2522 C2523 1.370 . S
C2522 C2526 1.524 . S
C2523 C2515 1.503 . S
C2523 C2522 1.370 . S
C2523 C2524 1.403 . S
C2524 C2523 1.403 . S
C2524 C2525 1.404 . S
C2524 C2527 1.539 . S
C2525 C2521 1.408 . S
C2525 C2524 1.404 . S
C2525 H2537 0.930 . S
C2526 C2522 1.524 . S
C2526 H2538 0.956 . S
C2526 H2539 0.961 . S
C2526 H2540 0.961 . S
C2527 C2524 1.539 . S
C2527 H2541 0.958 . S
C2527 H2542 0.961 . S
C2527 H2543 0.960 . S
H2528 C2512 0.931 . S
H2529 C2517 0.929 1_565 S
H2530 C2518 0.960 . S
H2531 C2518 0.962 . S
H2532 C2518 0.960 . S
H2533 C2519 0.961 . S
H2534 C2519 0.961 . S
H2535 C2519 0.961 . S
H2536 C2520 0.931 . S
H2537 C2525 0.930 . S
H2538 C2526 0.956 . S
H2539 C2526 0.961 . S
H2540 C2526 0.961 . S
H2541 C2527 0.958 . S
H2542 C2527 0.961 . S
H2543 C2527 0.960 . S
C2544 C2545 1.391 . S
C2544 C2546 1.394 . S
C2544 H2560 0.931 . S
C2545 C2544 1.391 . S
C2545 C2549 1.376 . S
C2546 C2544 1.394 . S
C2546 C2547 1.369 . S
C2546 C2550 1.531 . S
C2547 C2546 1.369 . S
C2547 C2548 1.410 . S
C2547 C2555 1.503 . S
C2548 C2547 1.410 . S
C2548 C2549 1.392 . S
C2548 C2551 1.511 1_565 S
C2549 C2545 1.376 . S
C2549 C2548 1.392 . S
C2549 H2561 0.913 1_565 S
C2550 C2546 1.531 . S
C2550 H2562 0.960 . S
C2550 H2563 0.962 . S
C2550 H2564 0.960 . S
C2551 C2548 1.511 1_545 S
C2551 H2565 0.961 . S
C2551 H2566 0.961 . S
C2551 H2567 0.961 . S
C2552 C2553 1.370 . S
C2552 C2554 1.363 . S
C2552 H2568 0.931 . S
C2553 C2552 1.370 . S
C2553 C2557 1.408 1_565 S
C2554 C2552 1.363 . S
C2554 C2555 1.370 . S
C2554 C2558 1.524 . S
C2555 C2547 1.503 . S
C2555 C2554 1.370 . S
C2555 C2556 1.403 1_565 S
C2556 C2555 1.403 1_545 S
C2556 C2557 1.404 . S
C2556 C2559 1.539 . S
C2557 C2553 1.408 1_545 S
C2557 C2556 1.404 . S
C2557 H2569 0.930 . S
C2558 C2554 1.524 . S
C2558 H2570 0.956 . S
C2558 H2571 0.961 . S
C2558 H2572 0.961 . S
C2559 C2556 1.539 . S
C2559 H2573 0.958 . S
C2559 H2574 0.961 . S
C2559 H2575 0.960 . S
H2560 C2544 0.931 . S
H2561 C2549 0.913 1_545 S
H2562 C2550 0.960 . S
H2563 C2550 0.962 . S
H2564 C2550 0.960 . S
H2565 C2551 0.961 . S
H2566 C2551 0.961 . S
H2567 C2551 0.961 . S
H2568 C2552 0.931 . S
H2569 C2557 0.930 . S
H2570 C2558 0.956 . S
H2571 C2558 0.961 . S
H2572 C2558 0.961 . S
H2573 C2559 0.958 . S
H2574 C2559 0.961 . S
H2575 C2559 0.960 . S
C2576 C2577 1.391 . S
C2576 C2578 1.394 . S
C2576 H2592 0.931 . S
C2577 C2576 1.391 . S
C2577 C2581 1.376 . S
C2578 C2576 1.394 . S
C2578 C2579 1.369 . S
C2578 C2582 1.531 . S
C2579 C2578 1.369 . S
C2579 C2580 1.451 . S
C2579 C2587 1.503 . S
C2580 C2579 1.451 . S
C2580 C2581 1.444 . S
C2580 C2583 1.425 1_455 S
C2581 C2577 1.376 . S
C2581 C2580 1.444 . S
C2581 H2593 0.929 1_455 S
C2582 C2578 1.531 . S
C2582 H2594 0.960 . S
C2582 H2595 0.962 . S
C2582 H2596 0.960 . S
C2583 C2580 1.425 1_655 S
C2583 H2597 0.961 . S
C2583 H2598 0.961 . S
C2583 H2599 0.961 . S
C2584 C2585 1.370 . S
C2584 C2586 1.363 . S
C2584 H2600 0.931 . S
C2585 C2584 1.370 . S
C2585 C2589 1.408 . S
C2586 C2584 1.363 . S
C2586 C2587 1.370 . S
C2586 C2590 1.524 . S
C2587 C2579 1.503 . S
C2587 C2586 1.370 . S
C2587 C2588 1.403 . S
C2588 C2587 1.403 . S
C2588 C2589 1.404 . S
C2588 C2591 1.539 . S
C2589 C2585 1.408 . S
C2589 C2588 1.404 . S
C2589 H2601 0.930 . S
C2590 C2586 1.524 . S
C2590 H2602 0.956 . S
C2590 H2603 0.961 . S
C2590 H2604 0.961 . S
C2591 C2588 1.539 . S
C2591 H2605 0.958 . S
C2591 H2606 0.957 . S
C2591 H2607 0.960 . S
H2592 C2576 0.931 . S
H2593 C2581 0.929 1_655 S
H2594 C2582 0.960 . S
H2595 C2582 0.962 . S
H2596 C2582 0.960 . S
H2597 C2583 0.961 . S
H2598 C2583 0.961 . S
H2599 C2583 0.961 . S
H2600 C2584 0.931 . S
H2601 C2589 0.930 . S
H2602 C2590 0.956 . S
H2603 C2590 0.961 . S
H2604 C2590 0.961 . S
H2605 C2591 0.958 . S
H2606 C2591 0.957 . S
H2607 C2591 0.960 . S
C2608 C2609 1.391 . S
C2608 C2610 1.394 . S
C2608 H2624 0.931 . S
C2609 C2608 1.391 . S
C2609 C2613 1.376 . S
C2610 C2608 1.394 . S
C2610 C2611 1.369 . S
C2610 C2614 1.531 . S
C2611 C2610 1.369 . S
C2611 C2612 1.410 . S
C2611 C2619 1.503 . S
C2612 C2611 1.410 . S
C2612 C2613 1.392 . S
C2612 C2615 1.511 . S
C2613 C2609 1.376 . S
C2613 C2612 1.392 . S
C2613 H2625 0.929 . S
C2614 C2610 1.531 . S
C2614 H2626 0.960 . S
C2614 H2627 0.962 . S
C2614 H2628 0.960 . S
C2615 C2612 1.511 . S
C2615 H2629 0.961 . S
C2615 H2630 0.961 . S
C2615 H2631 0.961 . S
C2616 C2617 1.370 . S
C2616 C2618 1.363 . S
C2616 H2632 0.931 . S
C2617 C2616 1.370 . S
C2617 C2621 1.408 . S
C2618 C2616 1.363 . S
C2618 C2619 1.370 . S
C2618 C2622 1.524 . S
C2619 C2611 1.503 . S
C2619 C2618 1.370 . S
C2619 C2620 1.403 . S
C2620 C2619 1.403 . S
C2620 C2621 1.404 . S
C2620 C2623 1.539 . S
C2621 C2617 1.408 . S
C2621 C2620 1.404 . S
C2621 H2633 0.930 . S
C2622 C2618 1.524 . S
C2622 H2634 0.956 . S
C2622 H2635 0.961 . S
C2622 H2636 0.961 . S
C2623 C2620 1.539 . S
C2623 H2637 0.958 . S
C2623 H2638 0.961 . S
C2623 H2639 0.960 . S
H2624 C2608 0.931 . S
H2625 C2613 0.929 . S
H2626 C2614 0.960 . S
H2627 C2614 0.962 . S
H2628 C2614 0.960 . S
H2629 C2615 0.961 . S
H2630 C2615 0.961 . S
H2631 C2615 0.961 . S
H2632 C2616 0.931 . S
H2633 C2621 0.930 . S
H2634 C2622 0.956 . S
H2635 C2622 0.961 . S
H2636 C2622 0.961 . S
H2637 C2623 0.958 . S
H2638 C2623 0.961 . S
H2639 C2623 0.960 . S
C2640 C2641 1.391 . S
C2640 C2642 1.394 . S
C2640 H2656 0.931 . S
C2641 C2640 1.391 . S
C2641 C2645 1.376 . S
C2642 C2640 1.394 . S
C2642 C2643 1.369 . S
C2642 C2646 1.531 . S
C2643 C2642 1.369 . S
C2643 C2644 1.410 . S
C2643 C2651 1.503 . S
C2644 C2643 1.410 . S
C2644 C2645 1.392 . S
C2644 C2647 1.511 1_455 S
C2645 C2641 1.376 . S
C2645 C2644 1.392 . S
C2645 H2657 0.974 . S
C2646 C2642 1.531 . S
C2646 H2658 0.960 . S
C2646 H2659 0.962 . S
C2646 H2660 0.960 . S
C2647 C2644 1.511 1_655 S
C2647 H2661 0.961 . S
C2647 H2662 0.961 . S
C2647 H2663 0.961 . S
C2648 C2649 1.370 . S
C2648 C2650 1.363 . S
C2648 H2664 0.931 . S
C2649 C2648 1.370 . S
C2649 C2653 1.408 1_455 S
C2650 C2648 1.363 . S
C2650 C2651 1.370 . S
C2650 C2654 1.524 . S
C2651 C2643 1.503 . S
C2651 C2650 1.370 . S
C2651 C2652 1.403 1_455 S
C2652 C2651 1.403 1_655 S
C2652 C2653 1.404 . S
C2652 C2655 1.539 . S
C2653 C2649 1.408 1_655 S
C2653 C2652 1.404 . S
C2653 H2665 0.930 . S
C2654 C2650 1.524 . S
C2654 H2666 0.956 . S
C2654 H2667 0.961 . S
C2654 H2668 0.961 . S
C2655 C2652 1.539 . S
C2655 H2669 0.958 . S
C2655 H2670 0.961 . S
C2655 H2671 0.960 . S
H2656 C2640 0.931 . S
H2657 C2645 0.974 . S
H2658 C2646 0.960 . S
H2659 C2646 0.962 . S
H2660 C2646 0.960 . S
H2661 C2647 0.961 . S
H2662 C2647 0.961 . S
H2663 C2647 0.961 . S
H2664 C2648 0.931 . S
H2665 C2653 0.930 . S
H2666 C2654 0.956 . S
H2667 C2654 0.961 . S
H2668 C2654 0.961 . S
H2669 C2655 0.958 . S
H2670 C2655 0.961 . S
H2671 C2655 0.960 . S
C2672 C2673 1.391 . S
C2672 C2674 1.394 . S
C2672 H2688 0.931 . S
C2673 C2672 1.391 . S
C2673 C2677 1.376 . S
C2674 C2672 1.394 . S
C2674 C2675 1.369 . S
C2674 C2678 1.531 . S
C2675 C2674 1.369 . S
C2675 C2676 1.410 . S
C2675 C2683 1.503 . S
C2676 C2675 1.410 . S
C2676 C2677 1.392 . S
C2676 C2679 1.511 . S
C2677 C2673 1.376 . S
C2677 C2676 1.392 . S
C2677 H2689 0.929 . S
C2678 C2674 1.531 . S
C2678 H2690 0.960 . S
C2678 H2691 0.962 . S
C2678 H2692 0.960 . S
C2679 C2676 1.511 . S
C2679 H2693 0.961 . S
C2679 H2694 0.961 . S
C2679 H2695 0.961 . S
C2680 C2681 1.370 . S
C2680 C2682 1.363 . S
C2680 H2696 0.931 . S
C2681 C2680 1.370 . S
C2681 C2685 1.408 . S
C2682 C2680 1.363 . S
C2682 C2683 1.370 . S
C2682 C2686 1.524 . S
C2683 C2675 1.503 . S
C2683 C2682 1.370 . S
C2683 C2684 1.403 . S
C2684 C2683 1.403 . S
C2684 C2685 1.404 . S
C2684 C2687 1.539 . S
C2685 C2681 1.408 . S
C2685 C2684 1.404 . S
C2685 H2697 0.930 . S
C2686 C2682 1.524 . S
C2686 H2698 0.956 . S
C2686 H2699 0.961 . S
C2686 H2700 0.961 . S
C2687 C2684 1.539 . S
C2687 H2701 0.958 . S
C2687 H2702 0.961 . S
C2687 H2703 0.960 . S
H2688 C2672 0.931 . S
H2689 C2677 0.929 . S
H2690 C2678 0.960 . S
H2691 C2678 0.962 . S
H2692 C2678 0.960 . S
H2693 C2679 0.961 . S
H2694 C2679 0.961 . S
H2695 C2679 0.961 . S
H2696 C2680 0.931 . S
H2697 C2685 0.930 . S
H2698 C2686 0.956 . S
H2699 C2686 0.961 . S
H2700 C2686 0.961 . S
H2701 C2687 0.958 . S
H2702 C2687 0.961 . S
H2703 C2687 0.960 . S
C2704 C2705 1.391 . S
C2704 C2706 1.394 . S
C2704 H2720 0.931 . S
C2705 C2704 1.391 . S
C2705 C2709 1.376 . S
C2706 C2704 1.394 . S
C2706 C2707 1.369 . S
C2706 C2710 1.531 . S
C2707 C2706 1.369 . S
C2707 C2708 1.410 . S
C2707 C2715 1.503 . S
C2708 C2707 1.410 . S
C2708 C2709 1.392 . S
C2708 C2711 1.511 1_565 S
C2709 C2705 1.376 . S
C2709 C2708 1.392 . S
C2709 H2721 0.929 . S
C2710 C2706 1.531 . S
C2710 H2722 0.960 . S
C2710 H2723 0.962 . S
C2710 H2724 0.960 . S
C2711 C2708 1.511 1_545 S
C2711 H2725 0.981 . S
C2711 H2726 0.964 1_545 S
C2711 H2727 0.961 . S
C2712 C2713 1.370 . S
C2712 C2714 1.363 . S
C2712 H2728 0.931 . S
C2713 C2712 1.370 . S
C2713 C2717 1.408 1_565 S
C2714 C2712 1.363 . S
C2714 C2715 1.370 . S
C2714 C2718 1.524 . S
C2715 C2707 1.503 . S
C2715 C2714 1.370 . S
C2715 C2716 1.403 1_565 S
C2716 C2715 1.403 1_545 S
C2716 C2717 1.404 . S
C2716 C2719 1.539 . S
C2717 C2713 1.408 1_545 S
C2717 C2716 1.404 . S
C2717 H2729 0.930 . S
C2718 C2714 1.524 . S
C2718 H2730 0.956 . S
C2718 H2731 0.961 . S
C2718 H2732 0.961 . S
C2719 C2716 1.539 . S
C2719 H2733 0.958 . S
C2719 H2734 0.961 . S
C2719 H2735 0.960 . S
H2720 C2704 0.931 . S
H2721 C2709 0.929 . S
H2722 C2710 0.960 . S
H2723 C2710 0.962 . S
H2724 C2710 0.960 . S
H2725 C2711 0.981 . S
H2726 C2711 0.964 1_565 S
H2727 C2711 0.961 . S
H2728 C2712 0.931 . S
H2729 C2717 0.930 . S
H2730 C2718 0.956 . S
H2731 C2718 0.961 . S
H2732 C2718 0.961 . S
H2733 C2719 0.958 . S
H2734 C2719 0.961 . S
H2735 C2719 0.960 . S
C2736 C2737 1.391 . S
C2736 C2738 1.394 . S
C2736 H2752 0.931 . S
C2737 C2736 1.391 . S
C2737 C2741 1.376 . S
C2738 C2736 1.394 . S
C2738 C2739 1.369 . S
C2738 C2742 1.531 . S
C2739 C2738 1.369 . S
C2739 C2740 1.410 . S
C2739 C2747 1.503 . S
C2740 C2739 1.410 . S
C2740 C2741 1.392 . S
C2740 C2743 1.511 . S
C2741 C2737 1.376 . S
C2741 C2740 1.392 . S
C2741 H2753 0.929 . S
C2742 C2738 1.531 . S
C2742 H2754 0.960 . S
C2742 H2755 0.962 . S
C2742 H2756 0.960 . S
C2743 C2740 1.511 . S
C2743 H2757 0.961 . S
C2743 H2758 0.961 . S
C2743 H2759 0.961 1_545 S
C2744 C2745 1.370 . S
C2744 C2746 1.363 . S
C2744 H2760 0.931 . S
C2745 C2744 1.370 . S
C2745 C2749 1.408 1_545 S
C2746 C2744 1.363 . S
C2746 C2747 1.370 . S
C2746 C2750 1.524 . S
C2747 C2739 1.503 . S
C2747 C2746 1.370 . S
C2747 C2748 1.403 1_545 S
C2748 C2747 1.403 1_565 S
C2748 C2749 1.404 . S
C2748 C2751 1.539 . S
C2749 C2745 1.408 1_565 S
C2749 C2748 1.404 . S
C2749 H2761 0.930 . S
C2750 C2746 1.524 . S
C2750 H2762 0.956 . S
C2750 H2763 0.961 . S
C2750 H2764 0.961 . S
C2751 C2748 1.539 . S
C2751 H2765 0.958 . S
C2751 H2766 0.961 . S
C2751 H2767 0.960 . S
H2752 C2736 0.931 . S
H2753 C2741 0.929 . S
H2754 C2742 0.960 . S
H2755 C2742 0.962 . S
H2756 C2742 0.960 . S
H2757 C2743 0.961 . S
H2758 C2743 0.961 . S
H2759 C2743 0.961 1_565 S
H2760 C2744 0.931 . S
H2761 C2749 0.930 . S
H2762 C2750 0.956 . S
H2763 C2750 0.961 . S
H2764 C2750 0.961 . S
H2765 C2751 0.958 . S
H2766 C2751 0.961 . S
H2767 C2751 0.960 . S
C2768 C2769 1.391 . S
C2768 C2770 1.394 . S
C2768 H2784 0.931 . S
C2769 C2768 1.391 . S
C2769 C2773 1.376 . S
C2770 C2768 1.394 . S
C2770 C2771 1.369 . S
C2770 C2774 1.531 . S
C2771 C2770 1.369 . S
C2771 C2772 1.410 . S
C2771 C2779 1.503 . S
C2772 C2771 1.410 . S
C2772 C2773 1.392 . S
C2772 C2775 1.511 . S
C2773 C2769 1.376 . S
C2773 C2772 1.392 . S
C2773 H2785 0.929 . S
C2774 C2770 1.531 . S
C2774 H2786 0.960 . S
C2774 H2787 0.962 . S
C2774 H2788 0.960 . S
C2775 C2772 1.511 . S
C2775 H2789 0.982 . S
C2775 H2790 1.032 . S
C2775 H2791 0.961 . S
C2776 C2777 1.370 1_455 S
C2776 C2778 1.363 . S
C2776 H2792 0.931 . S
C2777 C2776 1.370 1_655 S
C2777 C2781 1.408 . S
C2778 C2776 1.363 . S
C2778 C2779 1.370 1_455 S
C2778 C2782 1.524 . S
C2779 C2771 1.503 . S
C2779 C2778 1.370 1_655 S
C2779 C2780 1.403 . S
C2780 C2779 1.403 . S
C2780 C2781 1.404 . S
C2780 C2783 1.539 . S
C2781 C2777 1.408 . S
C2781 C2780 1.404 . S
C2781 H2793 0.930 . S
C2782 C2778 1.524 . S
C2782 H2794 0.956 . S
C2782 H2795 0.961 . S
C2782 H2796 0.961 . S
C2783 C2780 1.539 . S
C2783 H2797 0.958 . S
C2783 H2798 0.961 . S
C2783 H2799 0.960 . S
H2784 C2768 0.931 . S
H2785 C2773 0.929 . S
H2786 C2774 0.960 . S
H2787 C2774 0.962 . S
H2788 C2774 0.960 . S
H2789 C2775 0.982 . S
H2790 C2775 1.032 . S
H2791 C2775 0.961 . S
H2792 C2776 0.931 . S
H2793 C2781 0.930 . S
H2794 C2782 0.956 . S
H2795 C2782 0.961 . S
H2796 C2782 0.961 . S
H2797 C2783 0.958 . S
H2798 C2783 0.961 . S
H2799 C2783 0.960 . S
C2800 C2801 1.391 . S
C2800 C2802 1.394 . S
C2800 H2816 0.931 . S
C2801 C2800 1.391 . S
C2801 C2805 1.376 . S
C2802 C2800 1.394 . S
C2802 C2803 1.369 . S
C2802 C2806 1.531 . S
C2803 C2802 1.369 . S
C2803 C2804 1.410 . S
C2803 C2811 1.503 . S
C2804 C2803 1.410 . S
C2804 C2805 1.392 . S
C2804 C2807 1.511 . S
C2805 C2801 1.376 . S
C2805 C2804 1.392 . S
C2805 H2817 0.929 . S
C2806 C2802 1.531 . S
C2806 H2818 0.960 . S
C2806 H2819 0.962 . S
C2806 H2820 0.960 . S
C2807 C2804 1.511 . S
C2807 H2821 0.961 . S
C2807 H2822 0.961 . S
C2807 H2823 0.961 . S
C2808 C2809 1.370 . S
C2808 C2810 1.363 . S
C2808 H2824 0.931 . S
C2809 C2808 1.370 . S
C2809 C2813 1.408 . S
C2810 C2808 1.363 . S
C2810 C2811 1.370 . S
C2810 C2814 1.524 . S
C2811 C2803 1.503 . S
C2811 C2810 1.370 . S
C2811 C2812 1.403 . S
C2812 C2811 1.403 . S
C2812 C2813 1.404 . S
C2812 C2815 1.539 . S
C2813 C2809 1.408 . S
C2813 C2812 1.404 . S
C2813 H2825 0.930 . S
C2814 C2810 1.524 . S
C2814 H2826 0.956 . S
C2814 H2827 0.961 . S
C2814 H2828 0.961 . S
C2815 C2812 1.539 . S
C2815 H2829 0.958 . S
C2815 H2830 0.961 . S
C2815 H2831 0.960 . S
H2816 C2800 0.931 . S
H2817 C2805 0.929 . S
H2818 C2806 0.960 . S
H2819 C2806 0.962 . S
H2820 C2806 0.960 . S
H2821 C2807 0.961 . S
H2822 C2807 0.961 . S
H2823 C2807 0.961 . S
H2824 C2808 0.931 . S
H2825 C2813 0.930 . S
H2826 C2814 0.956 . S
H2827 C2814 0.961 . S
H2828 C2814 0.961 . S
H2829 C2815 0.958 . S
H2830 C2815 0.961 . S
H2831 C2815 0.960 . S
C2832 C2833 1.391 . S
C2832 C2834 1.394 . S
C2832 H2848 0.931 . S
C2833 C2832 1.391 . S
C2833 C2837 1.376 . S
C2834 C2832 1.394 . S
C2834 C2835 1.369 . S
C2834 C2838 1.531 . S
C2835 C2834 1.369 . S
C2835 C2836 1.410 . S
C2835 C2843 1.503 . S
C2836 C2835 1.410 . S
C2836 C2837 1.392 . S
C2836 C2839 1.511 . S
C2837 C2833 1.376 . S
C2837 C2836 1.392 . S
C2837 H2849 0.929 . S
C2838 C2834 1.531 . S
C2838 H2850 0.960 . S
C2838 H2851 0.962 . S
C2838 H2852 0.960 . S
C2839 C2836 1.511 . S
C2839 H2853 0.961 . S
C2839 H2854 0.961 . S
C2839 H2855 0.961 . S
C2840 C2841 1.370 . S
C2840 C2842 1.363 . S
C2840 H2856 0.931 . S
C2841 C2840 1.370 . S
C2841 C2845 1.408 . S
C2842 C2840 1.363 . S
C2842 C2843 1.370 . S
C2842 C2846 1.524 . S
C2843 C2835 1.503 . S
C2843 C2842 1.370 . S
C2843 C2844 1.403 . S
C2844 C2843 1.403 . S
C2844 C2845 1.404 . S
C2844 C2847 1.539 . S
C2845 C2841 1.408 . S
C2845 C2844 1.404 . S
C2845 H2857 0.930 . S
C2846 C2842 1.524 . S
C2846 H2858 0.956 . S
C2846 H2859 0.961 . S
C2846 H2860 0.961 . S
C2847 C2844 1.539 . S
C2847 H2861 0.958 . S
C2847 H2862 0.961 . S
C2847 H2863 0.960 . S
H2848 C2832 0.931 . S
H2849 C2837 0.929 . S
H2850 C2838 0.960 . S
H2851 C2838 0.962 . S
H2852 C2838 0.960 . S
H2853 C2839 0.961 . S
H2854 C2839 0.961 . S
H2855 C2839 0.961 . S
H2856 C2840 0.931 . S
H2857 C2845 0.930 . S
H2858 C2846 0.956 . S
H2859 C2846 0.961 . S
H2860 C2846 0.961 . S
H2861 C2847 0.958 . S
H2862 C2847 0.961 . S
H2863 C2847 0.960 . S
C2864 C2865 1.391 . S
C2864 C2866 1.394 . S
C2864 H2880 0.931 . S
C2865 C2864 1.391 . S
C2865 C2869 1.376 . S
C2866 C2864 1.394 . S
C2866 C2867 1.369 . S
C2866 C2870 1.531 . S
C2867 C2866 1.369 . S
C2867 C2868 1.410 . S
C2867 C2875 1.503 . S
C2868 C2867 1.410 . S
C2868 C2869 1.392 . S
C2868 C2871 1.511 . S
C2869 C2865 1.376 . S
C2869 C2868 1.392 . S
C2869 H2881 0.929 . S
C2870 C2866 1.531 . S
C2870 H2882 0.960 . S
C2870 H2883 0.962 . S
C2870 H2884 0.960 . S
C2871 C2868 1.511 . S
C2871 H2885 0.961 . S
C2871 H2886 0.961 . S
C2871 H2887 0.961 . S
C2872 C2873 1.370 . S
C2872 C2874 1.363 . S
C2872 H2888 0.931 . S
C2873 C2872 1.370 . S
C2873 C2877 1.408 . S
C2874 C2872 1.363 . S
C2874 C2875 1.370 . S
C2874 C2878 1.524 . S
C2875 C2867 1.503 . S
C2875 C2874 1.370 . S
C2875 C2876 1.403 . S
C2876 C2875 1.403 . S
C2876 C2877 1.404 . S
C2876 C2879 1.539 . S
C2877 C2873 1.408 . S
C2877 C2876 1.404 . S
C2877 H2889 0.930 . S
C2878 C2874 1.524 . S
C2878 H2890 0.956 . S
C2878 H2891 0.961 . S
C2878 H2892 0.961 . S
C2879 C2876 1.539 . S
C2879 H2893 0.958 . S
C2879 H2894 0.961 . S
C2879 H2895 0.960 . S
H2880 C2864 0.931 . S
H2881 C2869 0.929 . S
H2882 C2870 0.960 . S
H2883 C2870 0.962 . S
H2884 C2870 0.960 . S
H2885 C2871 0.961 . S
H2886 C2871 0.961 . S
H2887 C2871 0.961 . S
H2888 C2872 0.931 . S
H2889 C2877 0.930 . S
H2890 C2878 0.956 . S
H2891 C2878 0.961 . S
H2892 C2878 0.961 . S
H2893 C2879 0.958 . S
H2894 C2879 0.961 . S
H2895 C2879 0.960 . S
C2896 C2897 1.391 . S
C2896 C2898 1.394 . S
C2896 H2912 0.931 . S
C2897 C2896 1.391 . S
C2897 C2901 1.376 . S
C2898 C2896 1.394 . S
C2898 C2899 1.369 . S
C2898 C2902 1.531 . S
C2899 C2898 1.369 . S
C2899 C2900 1.410 . S
C2899 C2907 1.503 . S
C2900 C2899 1.410 . S
C2900 C2901 1.392 . S
C2900 C2903 1.511 . S
C2901 C2897 1.376 . S
C2901 C2900 1.392 . S
C2901 H2913 0.929 . S
C2902 C2898 1.531 . S
C2902 H2914 0.960 . S
C2902 H2915 0.962 . S
C2902 H2916 0.960 . S
C2903 C2900 1.511 . S
C2903 H2917 0.961 . S
C2903 H2918 0.961 . S
C2903 H2919 0.961 . S
C2904 C2905 1.370 . S
C2904 C2906 1.363 . S
C2904 H2920 0.931 . S
C2905 C2904 1.370 . S
C2905 C2909 1.408 . S
C2906 C2904 1.363 . S
C2906 C2907 1.370 . S
C2906 C2910 1.524 . S
C2907 C2899 1.503 . S
C2907 C2906 1.370 . S
C2907 C2908 1.403 . S
C2908 C2907 1.403 . S
C2908 C2909 1.404 . S
C2908 C2911 1.539 . S
C2909 C2905 1.408 . S
C2909 C2908 1.404 . S
C2909 H2921 0.930 . S
C2910 C2906 1.524 . S
C2910 H2922 0.956 . S
C2910 H2923 0.961 . S
C2910 H2924 0.961 . S
C2911 C2908 1.539 . S
C2911 H2925 0.958 . S
C2911 H2926 0.961 . S
C2911 H2927 0.960 . S
H2912 C2896 0.931 . S
H2913 C2901 0.929 . S
H2914 C2902 0.960 . S
H2915 C2902 0.962 . S
H2916 C2902 0.960 . S
H2917 C2903 0.961 . S
H2918 C2903 0.961 . S
H2919 C2903 0.961 . S
H2920 C2904 0.931 . S
H2921 C2909 0.930 . S
H2922 C2910 0.956 . S
H2923 C2910 0.961 . S
H2924 C2910 0.961 . S
H2925 C2911 0.958 . S
H2926 C2911 0.961 . S
H2927 C2911 0.960 . S
C2928 C2929 1.391 . S
C2928 C2930 1.394 . S
C2928 H2944 0.931 . S
C2929 C2928 1.391 . S
C2929 C2933 1.376 . S
C2930 C2928 1.394 . S
C2930 C2931 1.369 . S
C2930 C2934 1.531 . S
C2931 C2930 1.369 . S
C2931 C2932 1.410 . S
C2931 C2939 1.503 . S
C2932 C2931 1.410 . S
C2932 C2933 1.392 . S
C2932 C2935 1.511 . S
C2933 C2929 1.376 . S
C2933 C2932 1.392 . S
C2933 H2945 0.929 . S
C2934 C2930 1.531 . S
C2934 H2946 0.960 . S
C2934 H2947 0.962 . S
C2934 H2948 0.960 . S
C2935 C2932 1.511 . S
C2935 H2949 0.961 . S
C2935 H2950 0.961 . S
C2935 H2951 0.961 . S
C2936 C2937 1.370 . S
C2936 C2938 1.363 . S
C2936 H2952 0.931 . S
C2937 C2936 1.370 . S
C2937 C2941 1.408 . S
C2938 C2936 1.363 . S
C2938 C2939 1.370 . S
C2938 C2942 1.524 . S
C2939 C2931 1.503 . S
C2939 C2938 1.370 . S
C2939 C2940 1.403 . S
C2940 C2939 1.403 . S
C2940 C2941 1.404 . S
C2940 C2943 1.539 . S
C2941 C2937 1.408 . S
C2941 C2940 1.404 . S
C2941 H2953 0.930 . S
C2942 C2938 1.524 . S
C2942 H2954 0.956 . S
C2942 H2955 0.961 . S
C2942 H2956 0.961 . S
C2943 C2940 1.539 . S
C2943 H2957 0.958 . S
C2943 H2958 0.961 . S
C2943 H2959 0.960 . S
H2944 C2928 0.931 . S
H2945 C2933 0.929 . S
H2946 C2934 0.960 . S
H2947 C2934 0.962 . S
H2948 C2934 0.960 . S
H2949 C2935 0.961 . S
H2950 C2935 0.961 . S
H2951 C2935 0.961 . S
H2952 C2936 0.931 . S
H2953 C2941 0.930 . S
H2954 C2942 0.956 . S
H2955 C2942 0.961 . S
H2956 C2942 0.961 . S
H2957 C2943 0.958 . S
H2958 C2943 0.961 . S
H2959 C2943 0.960 . S
C2960 C2961 1.391 . S
C2960 C2962 1.394 . S
C2960 H2976 0.931 . S
C2961 C2960 1.391 . S
C2961 C2965 1.376 . S
C2962 C2960 1.394 . S
C2962 C2963 1.369 . S
C2962 C2966 1.531 . S
C2963 C2962 1.369 . S
C2963 C2964 1.410 . S
C2963 C2971 1.503 . S
C2964 C2963 1.410 . S
C2964 C2965 1.392 . S
C2964 C2967 1.511 . S
C2965 C2961 1.376 . S
C2965 C2964 1.392 . S
C2965 H2977 0.929 . S
C2966 C2962 1.531 . S
C2966 H2978 0.960 . S
C2966 H2979 0.962 . S
C2966 H2980 0.960 . S
C2967 C2964 1.511 . S
C2967 H2981 0.961 . S
C2967 H2982 0.961 . S
C2967 H2983 0.961 . S
C2968 C2969 1.370 . S
C2968 C2970 1.363 . S
C2968 H2984 0.931 . S
C2969 C2968 1.370 . S
C2969 C2973 1.408 . S
C2970 C2968 1.363 . S
C2970 C2971 1.370 . S
C2970 C2974 1.524 . S
C2971 C2963 1.503 . S
C2971 C2970 1.370 . S
C2971 C2972 1.403 . S
C2972 C2971 1.403 . S
C2972 C2973 1.404 . S
C2972 C2975 1.539 . S
C2973 C2969 1.408 . S
C2973 C2972 1.404 . S
C2973 H2985 0.930 . S
C2974 C2970 1.524 . S
C2974 H2986 0.956 . S
C2974 H2987 0.961 . S
C2974 H2988 0.961 . S
C2975 C2972 1.539 . S
C2975 H2989 0.958 . S
C2975 H2990 0.961 . S
C2975 H2991 0.960 . S
H2976 C2960 0.931 . S
H2977 C2965 0.929 . S
H2978 C2966 0.960 . S
H2979 C2966 0.962 . S
H2980 C2966 0.960 . S
H2981 C2967 0.961 . S
H2982 C2967 0.961 . S
H2983 C2967 0.961 . S
H2984 C2968 0.931 . S
H2985 C2973 0.930 . S
H2986 C2974 0.956 . S
H2987 C2974 0.961 . S
H2988 C2974 0.961 . S
H2989 C2975 0.958 . S
H2990 C2975 0.961 . S
H2991 C2975 0.960 . S
C2992 C2993 1.391 . S
C2992 C2994 1.394 . S
C2992 H3008 0.931 . S
C2993 C2992 1.391 . S
C2993 C2997 1.376 . S
C2994 C2992 1.394 . S
C2994 C2995 1.369 . S
C2994 C2998 1.531 . S
C2995 C2994 1.369 . S
C2995 C2996 1.410 . S
C2995 C3003 1.503 . S
C2996 C2995 1.410 . S
C2996 C2997 1.392 . S
C2996 C2999 1.511 . S
C2997 C2993 1.376 . S
C2997 C2996 1.392 . S
C2997 H3009 0.929 . S
C2998 C2994 1.531 . S
C2998 H3010 0.960 . S
C2998 H3011 0.962 . S
C2998 H3012 0.960 . S
C2999 C2996 1.511 . S
C2999 H3013 0.961 . S
C2999 H3014 0.961 . S
C2999 H3015 0.961 . S
C3000 C3001 1.370 . S
C3000 C3002 1.363 . S
C3000 H3016 0.931 . S
C3001 C3000 1.370 . S
C3001 C3005 1.408 . S
C3002 C3000 1.363 . S
C3002 C3003 1.370 . S
C3002 C3006 1.524 . S
C3003 C2995 1.503 . S
C3003 C3002 1.370 . S
C3003 C3004 1.403 . S
C3004 C3003 1.403 . S
C3004 C3005 1.404 . S
C3004 C3007 1.539 . S
C3005 C3001 1.408 . S
C3005 C3004 1.404 . S
C3005 H3017 0.930 . S
C3006 C3002 1.524 . S
C3006 H3018 0.956 . S
C3006 H3019 0.961 . S
C3006 H3020 0.961 . S
C3007 C3004 1.539 . S
C3007 H3021 0.958 . S
C3007 H3022 0.961 . S
C3007 H3023 0.960 . S
H3008 C2992 0.931 . S
H3009 C2997 0.929 . S
H3010 C2998 0.960 . S
H3011 C2998 0.962 . S
H3012 C2998 0.960 . S
H3013 C2999 0.961 . S
H3014 C2999 0.961 . S
H3015 C2999 0.961 . S
H3016 C3000 0.931 . S
H3017 C3005 0.930 . S
H3018 C3006 0.956 . S
H3019 C3006 0.961 . S
H3020 C3006 0.961 . S
H3021 C3007 0.958 . S
H3022 C3007 0.961 . S
H3023 C3007 0.960 . S
C3024 C3025 1.391 . S
C3024 C3026 1.394 . S
C3024 H3040 0.931 . S
C3025 C3024 1.391 . S
C3025 C3029 1.376 . S
C3026 C3024 1.394 . S
C3026 C3027 1.369 . S
C3026 C3030 1.531 . S
C3027 C3026 1.369 . S
C3027 C3028 1.410 . S
C3027 C3035 1.503 . S
C3028 C3027 1.410 . S
C3028 C3029 1.392 . S
C3028 C3031 1.511 . S
C3029 C3025 1.376 . S
C3029 C3028 1.392 . S
C3029 H3041 0.929 . S
C3030 C3026 1.531 . S
C3030 H3042 0.960 . S
C3030 H3043 0.962 . S
C3030 H3044 0.960 . S
C3031 C3028 1.511 . S
C3031 H3045 0.961 . S
C3031 H3046 0.961 . S
C3031 H3047 0.961 . S
C3032 C3033 1.370 . S
C3032 C3034 1.363 . S
C3032 H3048 0.931 . S
C3033 C3032 1.370 . S
C3033 C3037 1.408 . S
C3034 C3032 1.363 . S
C3034 C3035 1.370 . S
C3034 C3038 1.524 . S
C3035 C3027 1.503 . S
C3035 C3034 1.370 . S
C3035 C3036 1.403 . S
C3036 C3035 1.403 . S
C3036 C3037 1.404 . S
C3036 C3039 1.539 . S
C3037 C3033 1.408 . S
C3037 C3036 1.404 . S
C3037 H3049 0.930 . S
C3038 C3034 1.524 . S
C3038 H3050 0.956 . S
C3038 H3051 0.961 . S
C3038 H3052 0.961 . S
C3039 C3036 1.539 . S
C3039 H3053 0.958 . S
C3039 H3054 0.961 . S
C3039 H3055 0.960 . S
H3040 C3024 0.931 . S
H3041 C3029 0.929 . S
H3042 C3030 0.960 . S
H3043 C3030 0.962 . S
H3044 C3030 0.960 . S
H3045 C3031 0.961 . S
H3046 C3031 0.961 . S
H3047 C3031 0.961 . S
H3048 C3032 0.931 . S
H3049 C3037 0.930 . S
H3050 C3038 0.956 . S
H3051 C3038 0.961 . S
H3052 C3038 0.961 . S
H3053 C3039 0.958 . S
H3054 C3039 0.961 . S
H3055 C3039 0.960 . S
C3056 C3057 1.391 . S
C3056 C3058 1.394 . S
C3056 H3072 0.931 . S
C3057 C3056 1.391 . S
C3057 C3061 1.376 . S
C3058 C3056 1.394 . S
C3058 C3059 1.369 . S
C3058 C3062 1.531 . S
C3059 C3058 1.369 . S
C3059 C3060 1.410 . S
C3059 C3067 1.503 . S
C3060 C3059 1.410 . S
C3060 C3061 1.392 . S
C3060 C3063 1.511 . S
C3061 C3057 1.376 . S
C3061 C3060 1.392 . S
C3061 H3073 0.929 . S
C3062 C3058 1.531 . S
C3062 H3074 0.960 . S
C3062 H3075 0.962 . S
C3062 H3076 0.960 . S
C3063 C3060 1.511 . S
C3063 H3077 0.961 . S
C3063 H3078 0.961 . S
C3063 H3079 0.961 . S
C3064 C3065 1.370 . S
C3064 C3066 1.363 . S
C3064 H3080 0.931 . S
C3065 C3064 1.370 . S
C3065 C3069 1.408 . S
C3066 C3064 1.363 . S
C3066 C3067 1.370 . S
C3066 C3070 1.524 . S
C3067 C3059 1.503 . S
C3067 C3066 1.370 . S
C3067 C3068 1.403 . S
C3068 C3067 1.403 . S
C3068 C3069 1.404 . S
C3068 C3071 1.539 . S
C3069 C3065 1.408 . S
C3069 C3068 1.404 . S
C3069 H3081 0.930 . S
C3070 C3066 1.524 . S
C3070 H3082 0.956 . S
C3070 H3083 0.961 . S
C3070 H3084 0.961 . S
C3071 C3068 1.539 . S
C3071 H3085 0.958 . S
C3071 H3086 0.961 . S
C3071 H3087 0.960 . S
H3072 C3056 0.931 . S
H3073 C3061 0.929 . S
H3074 C3062 0.960 . S
H3075 C3062 0.962 . S
H3076 C3062 0.960 . S
H3077 C3063 0.961 . S
H3078 C3063 0.961 . S
H3079 C3063 0.961 . S
H3080 C3064 0.931 . S
H3081 C3069 0.930 . S
H3082 C3070 0.956 . S
H3083 C3070 0.961 . S
H3084 C3070 0.961 . S
H3085 C3071 0.958 . S
H3086 C3071 0.961 . S
H3087 C3071 0.960 . S
C3088 C3089 1.391 . S
C3088 C3090 1.394 . S
C3088 H3104 0.931 . S
C3089 C3088 1.391 . S
C3089 C3093 1.376 . S
C3090 C3088 1.394 . S
C3090 C3091 1.369 . S
C3090 C3094 1.531 . S
C3091 C3090 1.369 . S
C3091 C3092 1.410 . S
C3091 C3099 1.503 . S
C3092 C3091 1.410 . S
C3092 C3093 1.392 . S
C3092 C3095 1.511 . S
C3093 C3089 1.376 . S
C3093 C3092 1.392 . S
C3093 H3105 0.929 . S
C3094 C3090 1.531 . S
C3094 H3106 0.960 . S
C3094 H3107 0.962 . S
C3094 H3108 0.960 . S
C3095 C3092 1.511 . S
C3095 H3109 0.961 . S
C3095 H3110 0.961 . S
C3095 H3111 0.961 . S
C3096 C3097 1.370 . S
C3096 C3098 1.363 . S
C3096 H3112 0.931 . S
C3097 C3096 1.370 . S
C3097 C3101 1.408 . S
C3098 C3096 1.363 . S
C3098 C3099 1.370 . S
C3098 C3102 1.524 . S
C3099 C3091 1.503 . S
C3099 C3098 1.370 . S
C3099 C3100 1.403 . S
C3100 C3099 1.403 . S
C3100 C3101 1.404 . S
C3100 C3103 1.539 . S
C3101 C3097 1.408 . S
C3101 C3100 1.404 . S
C3101 H3113 0.930 . S
C3102 C3098 1.524 . S
C3102 H3114 0.956 . S
C3102 H3115 0.961 . S
C3102 H3116 0.961 . S
C3103 C3100 1.539 . S
C3103 H3117 0.958 . S
C3103 H3118 0.961 . S
C3103 H3119 0.960 . S
H3104 C3088 0.931 . S
H3105 C3093 0.929 . S
H3106 C3094 0.960 . S
H3107 C3094 0.962 . S
H3108 C3094 0.960 . S
H3109 C3095 0.961 . S
H3110 C3095 0.961 . S
H3111 C3095 0.961 . S
H3112 C3096 0.931 . S
H3113 C3101 0.930 . S
H3114 C3102 0.956 . S
H3115 C3102 0.961 . S
H3116 C3102 0.961 . S
H3117 C3103 0.958 . S
H3118 C3103 0.961 . S
H3119 C3103 0.960 . S
C3120 C3121 1.391 . S
C3120 C3122 1.394 . S
C3120 H3136 0.931 . S
C3121 C3120 1.391 . S
C3121 C3125 1.376 . S
C3122 C3120 1.394 . S
C3122 C3123 1.369 . S
C3122 C3126 1.531 . S
C3123 C3122 1.369 . S
C3123 C3124 1.410 . S
C3123 C3131 1.503 . S
C3124 C3123 1.410 . S
C3124 C3125 1.392 . S
C3124 C3127 1.511 . S
C3125 C3121 1.376 . S
C3125 C3124 1.392 . S
C3125 H3137 0.929 . S
C3126 C3122 1.531 . S
C3126 H3138 0.960 . S
C3126 H3139 0.962 . S
C3126 H3140 0.960 . S
C3127 C3124 1.511 . S
C3127 H3141 0.961 . S
C3127 H3142 0.961 . S
C3127 H3143 0.961 . S
C3128 C3129 1.370 . S
C3128 C3130 1.363 . S
C3128 H3144 0.931 . S
C3129 C3128 1.370 . S
C3129 C3133 1.408 . S
C3130 C3128 1.363 . S
C3130 C3131 1.370 . S
C3130 C3134 1.524 . S
C3131 C3123 1.503 . S
C3131 C3130 1.370 . S
C3131 C3132 1.403 . S
C3132 C3131 1.403 . S
C3132 C3133 1.404 . S
C3132 C3135 1.539 . S
C3133 C3129 1.408 . S
C3133 C3132 1.404 . S
C3133 H3145 0.930 . S
C3134 C3130 1.524 . S
C3134 H3146 0.956 . S
C3134 H3147 0.961 . S
C3134 H3148 0.961 . S
C3135 C3132 1.539 . S
C3135 H3149 0.958 . S
C3135 H3150 0.961 . S
C3135 H3151 0.960 . S
H3136 C3120 0.931 . S
H3137 C3125 0.929 . S
H3138 C3126 0.960 . S
H3139 C3126 0.962 . S
H3140 C3126 0.960 . S
H3141 C3127 0.961 . S
H3142 C3127 0.961 . S
H3143 C3127 0.961 . S
H3144 C3128 0.931 . S
H3145 C3133 0.930 . S
H3146 C3134 0.956 . S
H3147 C3134 0.961 . S
H3148 C3134 0.961 . S
H3149 C3135 0.958 . S
H3150 C3135 0.961 . S
H3151 C3135 0.960 . S
C3152 C3153 1.391 . S
C3152 C3154 1.394 . S
C3152 H3168 0.931 . S
C3153 C3152 1.391 . S
C3153 C3157 1.376 . S
C3154 C3152 1.394 . S
C3154 C3155 1.369 . S
C3154 C3158 1.531 . S
C3155 C3154 1.369 . S
C3155 C3156 1.410 . S
C3155 C3163 1.503 . S
C3156 C3155 1.410 . S
C3156 C3157 1.392 . S
C3156 C3159 1.511 . S
C3157 C3153 1.376 . S
C3157 C3156 1.392 . S
C3157 H3169 0.929 . S
C3158 C3154 1.531 . S
C3158 H3170 0.960 . S
C3158 H3171 0.962 . S
C3158 H3172 0.960 . S
C3159 C3156 1.511 . S
C3159 H3173 0.961 . S
C3159 H3174 0.961 . S
C3159 H3175 0.961 . S
C3160 C3161 1.370 . S
C3160 C3162 1.363 . S
C3160 H3176 0.931 . S
C3161 C3160 1.370 . S
C3161 C3165 1.408 . S
C3162 C3160 1.363 . S
C3162 C3163 1.370 . S
C3162 C3166 1.524 . S
C3163 C3155 1.503 . S
C3163 C3162 1.370 . S
C3163 C3164 1.403 . S
C3164 C3163 1.403 . S
C3164 C3165 1.404 . S
C3164 C3167 1.539 . S
C3165 C3161 1.408 . S
C3165 C3164 1.404 . S
C3165 H3177 0.930 . S
C3166 C3162 1.524 . S
C3166 H3178 0.956 . S
C3166 H3179 0.961 . S
C3166 H3180 0.961 . S
C3167 C3164 1.539 . S
C3167 H3181 0.958 . S
C3167 H3182 0.961 . S
C3167 H3183 0.960 . S
H3168 C3152 0.931 . S
H3169 C3157 0.929 . S
H3170 C3158 0.960 . S
H3171 C3158 0.962 . S
H3172 C3158 0.960 . S
H3173 C3159 0.961 . S
H3174 C3159 0.961 . S
H3175 C3159 0.961 . S
H3176 C3160 0.931 . S
H3177 C3165 0.930 . S
H3178 C3166 0.956 . S
H3179 C3166 0.961 . S
H3180 C3166 0.961 . S
H3181 C3167 0.958 . S
H3182 C3167 0.961 . S
H3183 C3167 0.960 . S
C3184 C3185 1.391 . S
C3184 C3186 1.394 . S
C3184 H3200 0.931 . S
C3185 C3184 1.391 . S
C3185 C3189 1.376 . S
C3186 C3184 1.394 . S
C3186 C3187 1.369 . S
C3186 C3190 1.531 . S
C3187 C3186 1.369 . S
C3187 C3188 1.410 . S
C3187 C3195 1.503 . S
C3188 C3187 1.410 . S
C3188 C3189 1.392 . S
C3188 C3191 1.511 . S
C3189 C3185 1.376 . S
C3189 C3188 1.392 . S
C3189 H3201 0.929 . S
C3190 C3186 1.531 . S
C3190 H3202 0.960 . S
C3190 H3203 0.962 . S
C3190 H3204 0.960 . S
C3191 C3188 1.511 . S
C3191 H3205 0.961 . S
C3191 H3206 0.961 . S
C3191 H3207 0.961 . S
C3192 C3193 1.370 . S
C3192 C3194 1.363 . S
C3192 H3208 0.931 . S
C3193 C3192 1.370 . S
C3193 C3197 1.408 . S
C3194 C3192 1.363 . S
C3194 C3195 1.370 . S
C3194 C3198 1.524 . S
C3195 C3187 1.503 . S
C3195 C3194 1.370 . S
C3195 C3196 1.403 . S
C3196 C3195 1.403 . S
C3196 C3197 1.404 . S
C3196 C3199 1.539 . S
C3197 C3193 1.408 . S
C3197 C3196 1.404 . S
C3197 H3209 0.930 . S
C3198 C3194 1.524 . S
C3198 H3210 0.956 . S
C3198 H3211 0.961 . S
C3198 H3212 0.961 . S
C3199 C3196 1.539 . S
C3199 H3213 0.958 . S
C3199 H3214 0.961 . S
C3199 H3215 0.960 . S
H3200 C3184 0.931 . S
H3201 C3189 0.929 . S
H3202 C3190 0.960 . S
H3203 C3190 0.962 . S
H3204 C3190 0.960 . S
H3205 C3191 0.961 . S
H3206 C3191 0.961 . S
H3207 C3191 0.961 . S
H3208 C3192 0.931 . S
H3209 C3197 0.930 . S
H3210 C3198 0.956 . S
H3211 C3198 0.961 . S
H3212 C3198 0.961 . S
H3213 C3199 0.958 . S
H3214 C3199 0.961 . S
H3215 C3199 0.960 . S
C3216 C3217 1.391 . S
C3216 C3218 1.394 . S
C3216 H3232 0.931 . S
C3217 C3216 1.391 . S
C3217 C3221 1.376 . S
C3218 C3216 1.394 . S
C3218 C3219 1.369 . S
C3218 C3222 1.531 . S
C3219 C3218 1.369 . S
C3219 C3220 1.410 . S
C3219 C3227 1.503 . S
C3220 C3219 1.410 . S
C3220 C3221 1.392 . S
C3220 C3223 1.511 . S
C3221 C3217 1.376 . S
C3221 C3220 1.392 . S
C3221 H3233 0.929 . S
C3222 C3218 1.531 . S
C3222 H3234 0.960 . S
C3222 H3235 0.962 . S
C3222 H3236 0.960 . S
C3223 C3220 1.511 . S
C3223 H3237 0.961 . S
C3223 H3238 0.961 . S
C3223 H3239 0.961 . S
C3224 C3225 1.370 . S
C3224 C3226 1.363 . S
C3224 H3240 0.931 . S
C3225 C3224 1.370 . S
C3225 C3229 1.408 . S
C3226 C3224 1.363 . S
C3226 C3227 1.370 . S
C3226 C3230 1.524 . S
C3227 C3219 1.503 . S
C3227 C3226 1.370 . S
C3227 C3228 1.403 . S
C3228 C3227 1.403 . S
C3228 C3229 1.404 . S
C3228 C3231 1.539 . S
C3229 C3225 1.408 . S
C3229 C3228 1.404 . S
C3229 H3241 0.930 . S
C3230 C3226 1.524 . S
C3230 H3242 0.956 . S
C3230 H3243 0.961 . S
C3230 H3244 0.961 . S
C3231 C3228 1.539 . S
C3231 H3245 0.958 . S
C3231 H3246 0.961 . S
C3231 H3247 0.960 . S
H3232 C3216 0.931 . S
H3233 C3221 0.929 . S
H3234 C3222 0.960 . S
H3235 C3222 0.962 . S
H3236 C3222 0.960 . S
H3237 C3223 0.961 . S
H3238 C3223 0.961 . S
H3239 C3223 0.961 . S
H3240 C3224 0.931 . S
H3241 C3229 0.930 . S
H3242 C3230 0.956 . S
H3243 C3230 0.961 . S
H3244 C3230 0.961 . S
H3245 C3231 0.958 . S
H3246 C3231 0.961 . S
H3247 C3231 0.960 . S
C3248 C3249 1.391 . S
C3248 C3250 1.394 . S
C3248 H3264 0.931 . S
C3249 C3248 1.391 . S
C3249 C3253 1.376 . S
C3250 C3248 1.394 . S
C3250 C3251 1.369 . S
C3250 C3254 1.531 . S
C3251 C3250 1.369 . S
C3251 C3252 1.410 . S
C3251 C3259 1.503 . S
C3252 C3251 1.410 . S
C3252 C3253 1.392 . S
C3252 C3255 1.511 . S
C3253 C3249 1.376 . S
C3253 C3252 1.392 . S
C3253 H3265 0.929 . S
C3254 C3250 1.531 . S
C3254 H3266 0.960 . S
C3254 H3267 0.962 . S
C3254 H3268 0.960 . S
C3255 C3252 1.511 . S
C3255 H3269 0.961 . S
C3255 H3270 0.961 . S
C3255 H3271 0.961 . S
C3256 C3257 1.370 . S
C3256 C3258 1.363 . S
C3256 H3272 0.931 . S
C3257 C3256 1.370 . S
C3257 C3261 1.408 . S
C3258 C3256 1.363 . S
C3258 C3259 1.370 . S
C3258 C3262 1.524 . S
C3259 C3251 1.503 . S
C3259 C3258 1.370 . S
C3259 C3260 1.403 . S
C3260 C3259 1.403 . S
C3260 C3261 1.404 . S
C3260 C3263 1.539 . S
C3261 C3257 1.408 . S
C3261 C3260 1.404 . S
C3261 H3273 0.930 . S
C3262 C3258 1.524 . S
C3262 H3274 0.956 . S
C3262 H3275 0.961 . S
C3262 H3276 0.961 . S
C3263 C3260 1.539 . S
C3263 H3277 0.958 . S
C3263 H3278 0.961 . S
C3263 H3279 0.960 . S
H3264 C3248 0.931 . S
H3265 C3253 0.929 . S
H3266 C3254 0.960 . S
H3267 C3254 0.962 . S
H3268 C3254 0.960 . S
H3269 C3255 0.961 . S
H3270 C3255 0.961 . S
H3271 C3255 0.961 . S
H3272 C3256 0.931 . S
H3273 C3261 0.930 . S
H3274 C3262 0.956 . S
H3275 C3262 0.961 . S
H3276 C3262 0.961 . S
H3277 C3263 0.958 . S
H3278 C3263 0.961 . S
H3279 C3263 0.960 . S
C3280 C3281 1.391 . S
C3280 C3282 1.394 . S
C3280 H3296 0.931 . S
C3281 C3280 1.391 . S
C3281 C3285 1.376 . S
C3282 C3280 1.394 . S
C3282 C3283 1.369 . S
C3282 C3286 1.531 . S
C3283 C3282 1.369 . S
C3283 C3284 1.410 . S
C3283 C3291 1.503 . S
C3284 C3283 1.410 . S
C3284 C3285 1.392 . S
C3284 C3287 1.511 . S
C3285 C3281 1.376 . S
C3285 C3284 1.392 . S
C3285 H3297 0.929 . S
C3286 C3282 1.531 . S
C3286 H3298 0.960 . S
C3286 H3299 0.962 . S
C3286 H3300 0.960 . S
C3287 C3284 1.511 . S
C3287 H3301 0.961 . S
C3287 H3302 0.961 . S
C3287 H3303 0.961 . S
C3288 C3289 1.370 . S
C3288 C3290 1.363 . S
C3288 H3304 0.931 . S
C3289 C3288 1.370 . S
C3289 C3293 1.408 . S
C3290 C3288 1.363 . S
C3290 C3291 1.370 . S
C3290 C3294 1.524 . S
C3291 C3283 1.503 . S
C3291 C3290 1.370 . S
C3291 C3292 1.403 . S
C3292 C3291 1.403 . S
C3292 C3293 1.404 . S
C3292 C3295 1.539 . S
C3293 C3289 1.408 . S
C3293 C3292 1.404 . S
C3293 H3305 0.930 . S
C3294 C3290 1.524 . S
C3294 H3306 0.956 . S
C3294 H3307 0.961 . S
C3294 H3308 0.961 . S
C3295 C3292 1.539 . S
C3295 H3309 0.958 . S
C3295 H3310 0.961 . S
C3295 H3311 0.960 . S
H3296 C3280 0.931 . S
H3297 C3285 0.929 . S
H3298 C3286 0.960 . S
H3299 C3286 0.962 . S
H3300 C3286 0.960 . S
H3301 C3287 0.961 . S
H3302 C3287 0.961 . S
H3303 C3287 0.961 . S
H3304 C3288 0.931 . S
H3305 C3293 0.930 . S
H3306 C3294 0.956 . S
H3307 C3294 0.961 . S
H3308 C3294 0.961 . S
H3309 C3295 0.958 . S
H3310 C3295 0.961 . S
H3311 C3295 0.960 . S
C3312 C3313 1.391 . S
C3312 C3314 1.394 . S
C3312 H3328 0.931 . S
C3313 C3312 1.391 . S
C3313 C3317 1.376 . S
C3314 C3312 1.394 . S
C3314 C3315 1.369 . S
C3314 C3318 1.531 . S
C3315 C3314 1.369 . S
C3315 C3316 1.410 . S
C3315 C3323 1.503 . S
C3316 C3315 1.410 . S
C3316 C3317 1.392 . S
C3316 C3319 1.511 . S
C3317 C3313 1.376 . S
C3317 C3316 1.392 . S
C3317 H3329 0.929 . S
C3318 C3314 1.531 . S
C3318 H3330 0.960 . S
C3318 H3331 0.962 . S
C3318 H3332 0.960 . S
C3319 C3316 1.511 . S
C3319 H3333 0.961 . S
C3319 H3334 0.961 . S
C3319 H3335 0.961 . S
C3320 C3321 1.370 . S
C3320 C3322 1.363 . S
C3320 H3336 0.931 . S
C3321 C3320 1.370 . S
C3321 C3325 1.408 . S
C3322 C3320 1.363 . S
C3322 C3323 1.370 . S
C3322 C3326 1.524 . S
C3323 C3315 1.503 . S
C3323 C3322 1.370 . S
C3323 C3324 1.403 . S
C3324 C3323 1.403 . S
C3324 C3325 1.404 . S
C3324 C3327 1.539 . S
C3325 C3321 1.408 . S
C3325 C3324 1.404 . S
C3325 H3337 0.930 . S
C3326 C3322 1.524 . S
C3326 H3338 0.956 . S
C3326 H3339 0.961 . S
C3326 H3340 0.961 . S
C3327 C3324 1.539 . S
C3327 H3341 0.958 . S
C3327 H3342 0.961 . S
C3327 H3343 0.960 . S
H3328 C3312 0.931 . S
H3329 C3317 0.929 . S
H3330 C3318 0.960 . S
H3331 C3318 0.962 . S
H3332 C3318 0.960 . S
H3333 C3319 0.961 . S
H3334 C3319 0.961 . S
H3335 C3319 0.961 . S
H3336 C3320 0.931 . S
H3337 C3325 0.930 . S
H3338 C3326 0.956 . S
H3339 C3326 0.961 . S
H3340 C3326 0.961 . S
H3341 C3327 0.958 . S
H3342 C3327 0.961 . S
H3343 C3327 0.960 . S
C3344 C3345 1.391 . S
C3344 C3346 1.394 . S
C3344 H3360 0.931 . S
C3345 C3344 1.391 . S
C3345 C3349 1.376 . S
C3346 C3344 1.394 . S
C3346 C3347 1.369 . S
C3346 C3350 1.531 . S
C3347 C3346 1.369 . S
C3347 C3348 1.410 . S
C3347 C3355 1.503 . S
C3348 C3347 1.410 . S
C3348 C3349 1.392 . S
C3348 C3351 1.511 . S
C3349 C3345 1.376 . S
C3349 C3348 1.392 . S
C3349 H3361 0.929 . S
C3350 C3346 1.531 . S
C3350 H3362 0.960 . S
C3350 H3363 0.962 . S
C3350 H3364 0.960 . S
C3351 C3348 1.511 . S
C3351 H3365 0.961 . S
C3351 H3366 0.961 . S
C3351 H3367 0.961 . S
C3352 C3353 1.370 . S
C3352 C3354 1.363 . S
C3352 H3368 0.931 . S
C3353 C3352 1.370 . S
C3353 C3357 1.408 . S
C3354 C3352 1.363 . S
C3354 C3355 1.370 . S
C3354 C3358 1.524 . S
C3355 C3347 1.503 . S
C3355 C3354 1.370 . S
C3355 C3356 1.403 . S
C3356 C3355 1.403 . S
C3356 C3357 1.404 . S
C3356 C3359 1.539 . S
C3357 C3353 1.408 . S
C3357 C3356 1.404 . S
C3357 H3369 0.930 . S
C3358 C3354 1.524 . S
C3358 H3370 0.956 . S
C3358 H3371 0.961 . S
C3358 H3372 0.961 . S
C3359 C3356 1.539 . S
C3359 H3373 0.958 . S
C3359 H3374 0.961 . S
C3359 H3375 0.960 . S
H3360 C3344 0.931 . S
H3361 C3349 0.929 . S
H3362 C3350 0.960 . S
H3363 C3350 0.962 . S
H3364 C3350 0.960 . S
H3365 C3351 0.961 . S
H3366 C3351 0.961 . S
H3367 C3351 0.961 . S
H3368 C3352 0.931 . S
H3369 C3357 0.930 . S
H3370 C3358 0.956 . S
H3371 C3358 0.961 . S
H3372 C3358 0.961 . S
H3373 C3359 0.958 . S
H3374 C3359 0.961 . S
H3375 C3359 0.960 . S
C3376 C3377 1.391 . S
C3376 C3378 1.394 . S
C3376 H3392 0.931 . S
C3377 C3376 1.391 . S
C3377 C3381 1.376 . S
C3378 C3376 1.394 . S
C3378 C3379 1.369 . S
C3378 C3382 1.531 . S
C3379 C3378 1.369 . S
C3379 C3380 1.410 . S
C3379 C3387 1.503 . S
C3380 C3379 1.410 . S
C3380 C3381 1.392 . S
C3380 C3383 1.511 . S
C3381 C3377 1.376 . S
C3381 C3380 1.392 . S
C3381 H3393 0.929 . S
C3382 C3378 1.531 . S
C3382 H3394 0.960 . S
C3382 H3395 0.962 . S
C3382 H3396 0.960 . S
C3383 C3380 1.511 . S
C3383 H3397 0.961 . S
C3383 H3398 0.961 . S
C3383 H3399 0.961 . S
C3384 C3385 1.370 . S
C3384 C3386 1.363 . S
C3384 H3400 0.931 . S
C3385 C3384 1.370 . S
C3385 C3389 1.408 . S
C3386 C3384 1.363 . S
C3386 C3387 1.370 . S
C3386 C3390 1.524 . S
C3387 C3379 1.503 . S
C3387 C3386 1.370 . S
C3387 C3388 1.403 . S
C3388 C3387 1.403 . S
C3388 C3389 1.404 . S
C3388 C3391 1.539 . S
C3389 C3385 1.408 . S
C3389 C3388 1.404 . S
C3389 H3401 0.930 . S
C3390 C3386 1.524 . S
C3390 H3402 0.956 . S
C3390 H3403 0.961 . S
C3390 H3404 0.961 . S
C3391 C3388 1.539 . S
C3391 H3405 0.958 . S
C3391 H3406 0.961 . S
C3391 H3407 0.960 . S
H3392 C3376 0.931 . S
H3393 C3381 0.929 . S
H3394 C3382 0.960 . S
H3395 C3382 0.962 . S
H3396 C3382 0.960 . S
H3397 C3383 0.961 . S
H3398 C3383 0.961 . S
H3399 C3383 0.961 . S
H3400 C3384 0.931 . S
H3401 C3389 0.930 . S
H3402 C3390 0.956 . S
H3403 C3390 0.961 . S
H3404 C3390 0.961 . S
H3405 C3391 0.958 . S
H3406 C3391 0.961 . S
H3407 C3391 0.960 . S
C3408 C3409 1.391 . S
C3408 C3410 1.394 . S
C3408 H3424 0.931 . S
C3409 C3408 1.391 . S
C3409 C3413 1.376 . S
C3410 C3408 1.394 . S
C3410 C3411 1.369 . S
C3410 C3414 1.531 . S
C3411 C3410 1.369 . S
C3411 C3412 1.410 . S
C3411 C3419 1.503 . S
C3412 C3411 1.410 . S
C3412 C3413 1.392 . S
C3412 C3415 1.511 . S
C3413 C3409 1.376 . S
C3413 C3412 1.392 . S
C3413 H3425 0.929 . S
C3414 C3410 1.531 . S
C3414 H3426 0.960 . S
C3414 H3427 0.962 . S
C3414 H3428 0.960 . S
C3415 C3412 1.511 . S
C3415 H3429 0.961 . S
C3415 H3430 0.961 . S
C3415 H3431 0.961 . S
C3416 C3417 1.370 . S
C3416 C3418 1.363 . S
C3416 H3432 0.931 . S
C3417 C3416 1.370 . S
C3417 C3421 1.408 . S
C3418 C3416 1.363 . S
C3418 C3419 1.370 . S
C3418 C3422 1.524 . S
C3419 C3411 1.503 . S
C3419 C3418 1.370 . S
C3419 C3420 1.403 . S
C3420 C3419 1.403 . S
C3420 C3421 1.404 . S
C3420 C3423 1.539 . S
C3421 C3417 1.408 . S
C3421 C3420 1.404 . S
C3421 H3433 0.930 . S
C3422 C3418 1.524 . S
C3422 H3434 0.956 . S
C3422 H3435 0.961 . S
C3422 H3436 0.961 . S
C3423 C3420 1.539 . S
C3423 H3437 0.958 . S
C3423 H3438 0.961 . S
C3423 H3439 0.960 . S
H3424 C3408 0.931 . S
H3425 C3413 0.929 . S
H3426 C3414 0.960 . S
H3427 C3414 0.962 . S
H3428 C3414 0.960 . S
H3429 C3415 0.961 . S
H3430 C3415 0.961 . S
H3431 C3415 0.961 . S
H3432 C3416 0.931 . S
H3433 C3421 0.930 . S
H3434 C3422 0.956 . S
H3435 C3422 0.961 . S
H3436 C3422 0.961 . S
H3437 C3423 0.958 . S
H3438 C3423 0.961 . S
H3439 C3423 0.960 . S
C3440 C3441 1.391 . S
C3440 C3442 1.394 . S
C3440 H3456 0.931 . S
C3441 C3440 1.391 . S
C3441 C3445 1.376 . S
C3442 C3440 1.394 . S
C3442 C3443 1.369 . S
C3442 C3446 1.531 . S
C3443 C3442 1.369 . S
C3443 C3444 1.410 . S
C3443 C3451 1.503 . S
C3444 C3443 1.410 . S
C3444 C3445 1.392 . S
C3444 C3447 1.511 . S
C3445 C3441 1.376 . S
C3445 C3444 1.392 . S
C3445 H3457 0.929 . S
C3446 C3442 1.531 . S
C3446 H3458 0.960 . S
C3446 H3459 0.962 . S
C3446 H3460 0.960 . S
C3447 C3444 1.511 . S
C3447 H3461 0.961 . S
C3447 H3462 0.961 . S
C3447 H3463 0.961 . S
C3448 C3449 1.370 . S
C3448 C3450 1.363 . S
C3448 H3464 0.931 . S
C3449 C3448 1.370 . S
C3449 C3453 1.408 . S
C3450 C3448 1.363 . S
C3450 C3451 1.370 . S
C3450 C3454 1.524 . S
C3451 C3443 1.503 . S
C3451 C3450 1.370 . S
C3451 C3452 1.403 . S
C3452 C3451 1.403 . S
C3452 C3453 1.404 . S
C3452 C3455 1.539 . S
C3453 C3449 1.408 . S
C3453 C3452 1.404 . S
C3453 H3465 0.930 . S
C3454 C3450 1.524 . S
C3454 H3466 0.956 . S
C3454 H3467 0.961 . S
C3454 H3468 0.961 . S
C3455 C3452 1.539 . S
C3455 H3469 0.958 . S
C3455 H3470 0.961 . S
C3455 H3471 0.960 . S
H3456 C3440 0.931 . S
H3457 C3445 0.929 . S
H3458 C3446 0.960 . S
H3459 C3446 0.962 . S
H3460 C3446 0.960 . S
H3461 C3447 0.961 . S
H3462 C3447 0.961 . S
H3463 C3447 0.961 . S
H3464 C3448 0.931 . S
H3465 C3453 0.930 . S
H3466 C3454 0.956 . S
H3467 C3454 0.961 . S
H3468 C3454 0.961 . S
H3469 C3455 0.958 . S
H3470 C3455 0.961 . S
H3471 C3455 0.960 . S
C3472 C3473 1.391 . S
C3472 C3474 1.394 . S
C3472 H3488 0.931 . S
C3473 C3472 1.391 . S
C3473 C3477 1.376 . S
C3474 C3472 1.394 . S
C3474 C3475 1.369 . S
C3474 C3478 1.531 . S
C3475 C3474 1.369 . S
C3475 C3476 1.410 . S
C3475 C3483 1.503 . S
C3476 C3475 1.410 . S
C3476 C3477 1.392 . S
C3476 C3479 1.511 . S
C3477 C3473 1.376 . S
C3477 C3476 1.392 . S
C3477 H3489 0.929 . S
C3478 C3474 1.531 . S
C3478 H3490 0.960 . S
C3478 H3491 0.962 . S
C3478 H3492 0.960 . S
C3479 C3476 1.511 . S
C3479 H3493 0.961 . S
C3479 H3494 0.961 . S
C3479 H3495 0.961 . S
C3480 C3481 1.370 . S
C3480 C3482 1.363 . S
C3480 H3496 0.931 . S
C3481 C3480 1.370 . S
C3481 C3485 1.408 . S
C3482 C3480 1.363 . S
C3482 C3483 1.370 . S
C3482 C3486 1.524 . S
C3483 C3475 1.503 . S
C3483 C3482 1.370 . S
C3483 C3484 1.403 . S
C3484 C3483 1.403 . S
C3484 C3485 1.404 . S
C3484 C3487 1.539 . S
C3485 C3481 1.408 . S
C3485 C3484 1.404 . S
C3485 H3497 0.930 . S
C3486 C3482 1.524 . S
C3486 H3498 0.956 . S
C3486 H3499 0.961 . S
C3486 H3500 0.961 . S
C3487 C3484 1.539 . S
C3487 H3501 0.958 . S
C3487 H3502 0.961 . S
C3487 H3503 0.960 . S
H3488 C3472 0.931 . S
H3489 C3477 0.929 . S
H3490 C3478 0.960 . S
H3491 C3478 0.962 . S
H3492 C3478 0.960 . S
H3493 C3479 0.961 . S
H3494 C3479 0.961 . S
H3495 C3479 0.961 . S
H3496 C3480 0.931 . S
H3497 C3485 0.930 . S
H3498 C3486 0.956 . S
H3499 C3486 0.961 . S
H3500 C3486 0.961 . S
H3501 C3487 0.958 . S
H3502 C3487 0.961 . S
H3503 C3487 0.960 . S
C3504 C3505 1.391 . S
C3504 C3506 1.394 . S
C3504 H3520 0.931 . S
C3505 C3504 1.391 . S
C3505 C3509 1.376 . S
C3506 C3504 1.394 . S
C3506 C3507 1.369 . S
C3506 C3510 1.531 . S
C3507 C3506 1.369 . S
C3507 C3508 1.410 . S
C3507 C3515 1.503 . S
C3508 C3507 1.410 . S
C3508 C3509 1.392 . S
C3508 C3511 1.511 . S
C3509 C3505 1.376 . S
C3509 C3508 1.392 . S
C3509 H3521 0.929 . S
C3510 C3506 1.531 . S
C3510 H3522 0.960 . S
C3510 H3523 0.962 . S
C3510 H3524 0.960 . S
C3511 C3508 1.511 . S
C3511 H3525 0.961 . S
C3511 H3526 0.961 . S
C3511 H3527 0.961 . S
C3512 C3513 1.370 . S
C3512 C3514 1.363 . S
C3512 H3528 0.931 . S
C3513 C3512 1.370 . S
C3513 C3517 1.408 . S
C3514 C3512 1.363 . S
C3514 C3515 1.370 . S
C3514 C3518 1.524 . S
C3515 C3507 1.503 . S
C3515 C3514 1.370 . S
C3515 C3516 1.403 . S
C3516 C3515 1.403 . S
C3516 C3517 1.404 . S
C3516 C3519 1.539 . S
C3517 C3513 1.408 . S
C3517 C3516 1.404 . S
C3517 H3529 0.930 . S
C3518 C3514 1.524 . S
C3518 H3530 0.956 . S
C3518 H3531 0.961 . S
C3518 H3532 0.961 . S
C3519 C3516 1.539 . S
C3519 H3533 0.958 . S
C3519 H3534 0.961 . S
C3519 H3535 0.960 . S
H3520 C3504 0.931 . S
H3521 C3509 0.929 . S
H3522 C3510 0.960 . S
H3523 C3510 0.962 . S
H3524 C3510 0.960 . S
H3525 C3511 0.961 . S
H3526 C3511 0.961 . S
H3527 C3511 0.961 . S
H3528 C3512 0.931 . S
H3529 C3517 0.930 . S
H3530 C3518 0.956 . S
H3531 C3518 0.961 . S
H3532 C3518 0.961 . S
H3533 C3519 0.958 . S
H3534 C3519 0.961 . S
H3535 C3519 0.960 . S
C3536 C3537 1.391 . S
C3536 C3538 1.394 . S
C3536 H3552 0.931 . S
C3537 C3536 1.391 . S
C3537 C3541 1.376 . S
C3538 C3536 1.394 . S
C3538 C3539 1.369 . S
C3538 C3542 1.531 . S
C3539 C3538 1.369 . S
C3539 C3540 1.410 . S
C3539 C3547 1.503 . S
C3540 C3539 1.410 . S
C3540 C3541 1.392 . S
C3540 C3543 1.511 . S
C3541 C3537 1.376 . S
C3541 C3540 1.392 . S
C3541 H3553 0.929 . S
C3542 C3538 1.531 . S
C3542 H3554 0.960 . S
C3542 H3555 0.962 . S
C3542 H3556 0.960 . S
C3543 C3540 1.511 . S
C3543 H3557 0.961 . S
C3543 H3558 0.961 . S
C3543 H3559 0.961 . S
C3544 C3545 1.370 . S
C3544 C3546 1.363 . S
C3544 H3560 0.931 . S
C3545 C3544 1.370 . S
C3545 C3549 1.408 . S
C3546 C3544 1.363 . S
C3546 C3547 1.370 . S
C3546 C3550 1.524 . S
C3547 C3539 1.503 . S
C3547 C3546 1.370 . S
C3547 C3548 1.403 . S
C3548 C3547 1.403 . S
C3548 C3549 1.404 . S
C3548 C3551 1.539 . S
C3549 C3545 1.408 . S
C3549 C3548 1.404 . S
C3549 H3561 0.930 . S
C3550 C3546 1.524 . S
C3550 H3562 0.956 . S
C3550 H3563 0.961 . S
C3550 H3564 0.961 . S
C3551 C3548 1.539 . S
C3551 H3565 0.958 . S
C3551 H3566 0.961 . S
C3551 H3567 0.960 . S
H3552 C3536 0.931 . S
H3553 C3541 0.929 . S
H3554 C3542 0.960 . S
H3555 C3542 0.962 . S
H3556 C3542 0.960 . S
H3557 C3543 0.961 . S
H3558 C3543 0.961 . S
H3559 C3543 0.961 . S
H3560 C3544 0.931 . S
H3561 C3549 0.930 . S
H3562 C3550 0.956 . S
H3563 C3550 0.961 . S
H3564 C3550 0.961 . S
H3565 C3551 0.958 . S
H3566 C3551 0.961 . S
H3567 C3551 0.960 . S
C3568 C3569 1.391 . S
C3568 C3570 1.394 . S
C3568 H3584 0.931 . S
C3569 C3568 1.391 . S
C3569 C3573 1.376 . S
C3570 C3568 1.394 . S
C3570 C3571 1.369 . S
C3570 C3574 1.531 . S
C3571 C3570 1.369 . S
C3571 C3572 1.410 . S
C3571 C3579 1.503 . S
C3572 C3571 1.410 . S
C3572 C3573 1.392 . S
C3572 C3575 1.511 . S
C3573 C3569 1.376 . S
C3573 C3572 1.392 . S
C3573 H3585 0.929 . S
C3574 C3570 1.531 . S
C3574 H3586 0.960 . S
C3574 H3587 0.962 . S
C3574 H3588 0.960 . S
C3575 C3572 1.511 . S
C3575 H3589 0.961 . S
C3575 H3590 0.961 . S
C3575 H3591 0.961 . S
C3576 C3577 1.370 . S
C3576 C3578 1.363 . S
C3576 H3592 0.931 . S
C3577 C3576 1.370 . S
C3577 C3581 1.408 . S
C3578 C3576 1.363 . S
C3578 C3579 1.370 . S
C3578 C3582 1.524 . S
C3579 C3571 1.503 . S
C3579 C3578 1.370 . S
C3579 C3580 1.403 . S
C3580 C3579 1.403 . S
C3580 C3581 1.404 . S
C3580 C3583 1.539 . S
C3581 C3577 1.408 . S
C3581 C3580 1.404 . S
C3581 H3593 0.930 . S
C3582 C3578 1.524 . S
C3582 H3594 0.956 . S
C3582 H3595 0.961 . S
C3582 H3596 0.961 . S
C3583 C3580 1.539 . S
C3583 H3597 0.958 . S
C3583 H3598 0.961 . S
C3583 H3599 0.960 . S
H3584 C3568 0.931 . S
H3585 C3573 0.929 . S
H3586 C3574 0.960 . S
H3587 C3574 0.962 . S
H3588 C3574 0.960 . S
H3589 C3575 0.961 . S
H3590 C3575 0.961 . S
H3591 C3575 0.961 . S
H3592 C3576 0.931 . S
H3593 C3581 0.930 . S
H3594 C3582 0.956 . S
H3595 C3582 0.961 . S
H3596 C3582 0.961 . S
H3597 C3583 0.958 . S
H3598 C3583 0.961 . S
H3599 C3583 0.960 . S
C3600 C3601 1.391 . S
C3600 C3602 1.394 . S
C3600 H3616 0.931 . S
C3601 C3600 1.391 . S
C3601 C3605 1.376 . S
C3602 C3600 1.394 . S
C3602 C3603 1.369 . S
C3602 C3606 1.531 . S
C3603 C3602 1.369 . S
C3603 C3604 1.410 . S
C3603 C3611 1.503 . S
C3604 C3603 1.410 . S
C3604 C3605 1.392 . S
C3604 C3607 1.511 . S
C3605 C3601 1.376 . S
C3605 C3604 1.392 . S
C3605 H3617 0.929 . S
C3606 C3602 1.531 . S
C3606 H3618 0.960 . S
C3606 H3619 0.962 . S
C3606 H3620 0.960 . S
C3607 C3604 1.511 . S
C3607 H3621 0.961 . S
C3607 H3622 0.961 . S
C3607 H3623 0.961 . S
C3608 C3609 1.370 . S
C3608 C3610 1.363 . S
C3608 H3624 0.931 . S
C3609 C3608 1.370 . S
C3609 C3613 1.408 . S
C3610 C3608 1.363 . S
C3610 C3611 1.370 . S
C3610 C3614 1.524 . S
C3611 C3603 1.503 . S
C3611 C3610 1.370 . S
C3611 C3612 1.403 . S
C3612 C3611 1.403 . S
C3612 C3613 1.404 . S
C3612 C3615 1.539 . S
C3613 C3609 1.408 . S
C3613 C3612 1.404 . S
C3613 H3625 0.930 . S
C3614 C3610 1.524 . S
C3614 H3626 0.956 . S
C3614 H3627 0.961 . S
C3614 H3628 0.961 . S
C3615 C3612 1.539 . S
C3615 H3629 0.958 . S
C3615 H3630 0.961 . S
C3615 H3631 0.960 . S
H3616 C3600 0.931 . S
H3617 C3605 0.929 . S
H3618 C3606 0.960 . S
H3619 C3606 0.962 . S
H3620 C3606 0.960 . S
H3621 C3607 0.961 . S
H3622 C3607 0.961 . S
H3623 C3607 0.961 . S
H3624 C3608 0.931 . S
H3625 C3613 0.930 . S
H3626 C3614 0.956 . S
H3627 C3614 0.961 . S
H3628 C3614 0.961 . S
H3629 C3615 0.958 . S
H3630 C3615 0.961 . S
H3631 C3615 0.960 . S
C3632 C3633 1.391 . S
C3632 C3634 1.394 . S
C3632 H3648 0.931 . S
C3633 C3632 1.391 . S
C3633 C3637 1.376 . S
C3634 C3632 1.394 . S
C3634 C3635 1.369 . S
C3634 C3638 1.531 . S
C3635 C3634 1.369 . S
C3635 C3636 1.410 . S
C3635 C3643 1.503 . S
C3636 C3635 1.410 . S
C3636 C3637 1.392 . S
C3636 C3639 1.511 . S
C3637 C3633 1.376 . S
C3637 C3636 1.392 . S
C3637 H3649 0.929 . S
C3638 C3634 1.531 . S
C3638 H3650 0.960 . S
C3638 H3651 0.962 . S
C3638 H3652 0.960 . S
C3639 C3636 1.511 . S
C3639 H3653 0.961 . S
C3639 H3654 0.961 . S
C3639 H3655 0.961 . S
C3640 C3641 1.370 . S
C3640 C3642 1.363 . S
C3640 H3656 0.931 . S
C3641 C3640 1.370 . S
C3641 C3645 1.408 . S
C3642 C3640 1.363 . S
C3642 C3643 1.370 . S
C3642 C3646 1.524 . S
C3643 C3635 1.503 . S
C3643 C3642 1.370 . S
C3643 C3644 1.403 . S
C3644 C3643 1.403 . S
C3644 C3645 1.404 . S
C3644 C3647 1.539 . S
C3645 C3641 1.408 . S
C3645 C3644 1.404 . S
C3645 H3657 0.930 . S
C3646 C3642 1.524 . S
C3646 H3658 0.956 . S
C3646 H3659 0.961 . S
C3646 H3660 0.961 . S
C3647 C3644 1.539 . S
C3647 H3661 0.958 . S
C3647 H3662 0.961 . S
C3647 H3663 0.960 . S
H3648 C3632 0.931 . S
H3649 C3637 0.929 . S
H3650 C3638 0.960 . S
H3651 C3638 0.962 . S
H3652 C3638 0.960 . S
H3653 C3639 0.961 . S
H3654 C3639 0.961 . S
H3655 C3639 0.961 . S
H3656 C3640 0.931 . S
H3657 C3645 0.930 . S
H3658 C3646 0.956 . S
H3659 C3646 0.961 . S
H3660 C3646 0.961 . S
H3661 C3647 0.958 . S
H3662 C3647 0.961 . S
H3663 C3647 0.960 . S
C3664 C3665 1.391 . S
C3664 C3666 1.394 . S
C3664 H3680 0.931 . S
C3665 C3664 1.391 . S
C3665 C3669 1.376 . S
C3666 C3664 1.394 . S
C3666 C3667 1.369 . S
C3666 C3670 1.531 . S
C3667 C3666 1.369 . S
C3667 C3668 1.410 . S
C3667 C3675 1.503 . S
C3668 C3667 1.410 . S
C3668 C3669 1.392 . S
C3668 C3671 1.511 . S
C3669 C3665 1.376 . S
C3669 C3668 1.392 . S
C3669 H3681 0.929 . S
C3670 C3666 1.531 . S
C3670 H3682 0.960 . S
C3670 H3683 0.962 . S
C3670 H3684 0.960 . S
C3671 C3668 1.511 . S
C3671 H3685 0.961 . S
C3671 H3686 0.961 . S
C3671 H3687 0.961 . S
C3672 C3673 1.370 . S
C3672 C3674 1.363 . S
C3672 H3688 0.931 . S
C3673 C3672 1.370 . S
C3673 C3677 1.408 . S
C3674 C3672 1.363 . S
C3674 C3675 1.370 . S
C3674 C3678 1.524 . S
C3675 C3667 1.503 . S
C3675 C3674 1.370 . S
C3675 C3676 1.403 . S
C3676 C3675 1.403 . S
C3676 C3677 1.404 . S
C3676 C3679 1.539 . S
C3677 C3673 1.408 . S
C3677 C3676 1.404 . S
C3677 H3689 0.930 . S
C3678 C3674 1.524 . S
C3678 H3690 0.956 . S
C3678 H3691 0.961 . S
C3678 H3692 0.961 . S
C3679 C3676 1.539 . S
C3679 H3693 0.958 . S
C3679 H3694 0.961 . S
C3679 H3695 0.960 . S
H3680 C3664 0.931 . S
H3681 C3669 0.929 . S
H3682 C3670 0.960 . S
H3683 C3670 0.962 . S
H3684 C3670 0.960 . S
H3685 C3671 0.961 . S
H3686 C3671 0.961 . S
H3687 C3671 0.961 . S
H3688 C3672 0.931 . S
H3689 C3677 0.930 . S
H3690 C3678 0.956 . S
H3691 C3678 0.961 . S
H3692 C3678 0.961 . S
H3693 C3679 0.958 . S
H3694 C3679 0.961 . S
H3695 C3679 0.960 . S
C3696 C3697 1.391 . S
C3696 C3698 1.394 . S
C3696 H3712 0.931 . S
C3697 C3696 1.391 . S
C3697 C3701 1.376 . S
C3698 C3696 1.394 . S
C3698 C3699 1.369 . S
C3698 C3702 1.531 . S
C3699 C3698 1.369 . S
C3699 C3700 1.410 . S
C3699 C3707 1.503 . S
C3700 C3699 1.410 . S
C3700 C3701 1.392 . S
C3700 C3703 1.511 . S
C3701 C3697 1.376 . S
C3701 C3700 1.392 . S
C3701 H3713 0.929 . S
C3702 C3698 1.531 . S
C3702 H3714 0.960 . S
C3702 H3715 0.962 . S
C3702 H3716 0.960 . S
C3703 C3700 1.511 . S
C3703 H3717 0.961 . S
C3703 H3718 0.961 . S
C3703 H3719 0.961 . S
C3704 C3705 1.370 . S
C3704 C3706 1.363 . S
C3704 H3720 0.931 . S
C3705 C3704 1.370 . S
C3705 C3709 1.408 . S
C3706 C3704 1.363 . S
C3706 C3707 1.370 . S
C3706 C3710 1.524 . S
C3707 C3699 1.503 . S
C3707 C3706 1.370 . S
C3707 C3708 1.403 . S
C3708 C3707 1.403 . S
C3708 C3709 1.404 . S
C3708 C3711 1.539 . S
C3709 C3705 1.408 . S
C3709 C3708 1.404 . S
C3709 H3721 0.930 . S
C3710 C3706 1.524 . S
C3710 H3722 0.956 . S
C3710 H3723 0.961 . S
C3710 H3724 0.961 . S
C3711 C3708 1.539 . S
C3711 H3725 0.958 . S
C3711 H3726 0.961 . S
C3711 H3727 0.960 . S
H3712 C3696 0.931 . S
H3713 C3701 0.929 . S
H3714 C3702 0.960 . S
H3715 C3702 0.962 . S
H3716 C3702 0.960 . S
H3717 C3703 0.961 . S
H3718 C3703 0.961 . S
H3719 C3703 0.961 . S
H3720 C3704 0.931 . S
H3721 C3709 0.930 . S
H3722 C3710 0.956 . S
H3723 C3710 0.961 . S
H3724 C3710 0.961 . S
H3725 C3711 0.958 . S
H3726 C3711 0.961 . S
H3727 C3711 0.960 . S
C3728 C3729 1.391 . S
C3728 C3730 1.394 . S
C3728 H3744 0.931 . S
C3729 C3728 1.391 . S
C3729 C3733 1.376 . S
C3730 C3728 1.394 . S
C3730 C3731 1.369 . S
C3730 C3734 1.531 . S
C3731 C3730 1.369 . S
C3731 C3732 1.410 . S
C3731 C3739 1.503 . S
C3732 C3731 1.410 . S
C3732 C3733 1.392 . S
C3732 C3735 1.511 . S
C3733 C3729 1.376 . S
C3733 C3732 1.392 . S
C3733 H3745 0.929 . S
C3734 C3730 1.531 . S
C3734 H3746 0.960 . S
C3734 H3747 0.962 . S
C3734 H3748 0.960 . S
C3735 C3732 1.511 . S
C3735 H3749 0.961 . S
C3735 H3750 0.961 . S
C3735 H3751 0.961 . S
C3736 C3737 1.370 . S
C3736 C3738 1.363 . S
C3736 H3752 0.931 . S
C3737 C3736 1.370 . S
C3737 C3741 1.408 . S
C3738 C3736 1.363 . S
C3738 C3739 1.370 . S
C3738 C3742 1.524 . S
C3739 C3731 1.503 . S
C3739 C3738 1.370 . S
C3739 C3740 1.403 . S
C3740 C3739 1.403 . S
C3740 C3741 1.404 . S
C3740 C3743 1.539 . S
C3741 C3737 1.408 . S
C3741 C3740 1.404 . S
C3741 H3753 0.930 . S
C3742 C3738 1.524 . S
C3742 H3754 0.956 . S
C3742 H3755 0.961 . S
C3742 H3756 0.961 . S
C3743 C3740 1.539 . S
C3743 H3757 0.958 . S
C3743 H3758 0.961 . S
C3743 H3759 0.960 . S
H3744 C3728 0.931 . S
H3745 C3733 0.929 . S
H3746 C3734 0.960 . S
H3747 C3734 0.962 . S
H3748 C3734 0.960 . S
H3749 C3735 0.961 . S
H3750 C3735 0.961 . S
H3751 C3735 0.961 . S
H3752 C3736 0.931 . S
H3753 C3741 0.930 . S
H3754 C3742 0.956 . S
H3755 C3742 0.961 . S
H3756 C3742 0.961 . S
H3757 C3743 0.958 . S
H3758 C3743 0.961 . S
H3759 C3743 0.960 . S
C3760 C3761 1.391 . S
C3760 C3762 1.394 . S
C3760 H3776 0.931 . S
C3761 C3760 1.391 . S
C3761 C3765 1.376 . S
C3762 C3760 1.394 . S
C3762 C3763 1.369 . S
C3762 C3766 1.531 . S
C3763 C3762 1.369 . S
C3763 C3764 1.410 . S
C3763 C3771 1.503 . S
C3764 C3763 1.410 . S
C3764 C3765 1.392 . S
C3764 C3767 1.511 . S
C3765 C3761 1.376 . S
C3765 C3764 1.392 . S
C3765 H3777 0.929 . S
C3766 C3762 1.531 . S
C3766 H3778 0.960 . S
C3766 H3779 0.962 . S
C3766 H3780 0.960 . S
C3767 C3764 1.511 . S
C3767 H3781 0.961 . S
C3767 H3782 0.961 . S
C3767 H3783 0.961 . S
C3768 C3769 1.370 . S
C3768 C3770 1.363 . S
C3768 H3784 0.931 . S
C3769 C3768 1.370 . S
C3769 C3773 1.408 . S
C3770 C3768 1.363 . S
C3770 C3771 1.370 . S
C3770 C3774 1.524 . S
C3771 C3763 1.503 . S
C3771 C3770 1.370 . S
C3771 C3772 1.403 . S
C3772 C3771 1.403 . S
C3772 C3773 1.404 . S
C3772 C3775 1.539 . S
C3773 C3769 1.408 . S
C3773 C3772 1.404 . S
C3773 H3785 0.930 . S
C3774 C3770 1.524 . S
C3774 H3786 0.956 . S
C3774 H3787 0.961 . S
C3774 H3788 0.961 . S
C3775 C3772 1.539 . S
C3775 H3789 0.958 . S
C3775 H3790 0.961 . S
C3775 H3791 0.960 . S
H3776 C3760 0.931 . S
H3777 C3765 0.929 . S
H3778 C3766 0.960 . S
H3779 C3766 0.962 . S
H3780 C3766 0.960 . S
H3781 C3767 0.961 . S
H3782 C3767 0.961 . S
H3783 C3767 0.961 . S
H3784 C3768 0.931 . S
H3785 C3773 0.930 . S
H3786 C3774 0.956 . S
H3787 C3774 0.961 . S
H3788 C3774 0.961 . S
H3789 C3775 0.958 . S
H3790 C3775 0.961 . S
H3791 C3775 0.960 . S
C3792 C3793 1.391 . S
C3792 C3794 1.394 . S
C3792 H3808 0.931 . S
C3793 C3792 1.391 . S
C3793 C3797 1.376 . S
C3794 C3792 1.394 . S
C3794 C3795 1.369 . S
C3794 C3798 1.531 . S
C3795 C3794 1.369 . S
C3795 C3796 1.410 . S
C3795 C3803 1.503 . S
C3796 C3795 1.410 . S
C3796 C3797 1.392 . S
C3796 C3799 1.511 . S
C3797 C3793 1.376 . S
C3797 C3796 1.392 . S
C3797 H3809 0.929 . S
C3798 C3794 1.531 . S
C3798 H3810 0.960 . S
C3798 H3811 0.962 . S
C3798 H3812 0.960 . S
C3799 C3796 1.511 . S
C3799 H3813 0.961 . S
C3799 H3814 0.961 . S
C3799 H3815 0.961 . S
C3800 C3801 1.370 . S
C3800 C3802 1.363 . S
C3800 H3816 0.931 . S
C3801 C3800 1.370 . S
C3801 C3805 1.408 . S
C3802 C3800 1.363 . S
C3802 C3803 1.370 . S
C3802 C3806 1.524 . S
C3803 C3795 1.503 . S
C3803 C3802 1.370 . S
C3803 C3804 1.403 . S
C3804 C3803 1.403 . S
C3804 C3805 1.404 . S
C3804 C3807 1.539 . S
C3805 C3801 1.408 . S
C3805 C3804 1.404 . S
C3805 H3817 0.930 . S
C3806 C3802 1.524 . S
C3806 H3818 0.956 . S
C3806 H3819 0.961 . S
C3806 H3820 0.961 . S
C3807 C3804 1.539 . S
C3807 H3821 0.958 . S
C3807 H3822 0.961 . S
C3807 H3823 0.960 . S
H3808 C3792 0.931 . S
H3809 C3797 0.929 . S
H3810 C3798 0.960 . S
H3811 C3798 0.962 . S
H3812 C3798 0.960 . S
H3813 C3799 0.961 . S
H3814 C3799 0.961 . S
H3815 C3799 0.961 . S
H3816 C3800 0.931 . S
H3817 C3805 0.930 . S
H3818 C3806 0.956 . S
H3819 C3806 0.961 . S
H3820 C3806 0.961 . S
H3821 C3807 0.958 . S
H3822 C3807 0.961 . S
H3823 C3807 0.960 . S
C3824 C3825 1.391 . S
C3824 C3826 1.394 . S
C3824 H3840 0.931 . S
C3825 C3824 1.391 . S
C3825 C3829 1.376 . S
C3826 C3824 1.394 . S
C3826 C3827 1.369 . S
C3826 C3830 1.531 . S
C3827 C3826 1.369 . S
C3827 C3828 1.410 . S
C3827 C3835 1.503 . S
C3828 C3827 1.410 . S
C3828 C3829 1.392 . S
C3828 C3831 1.511 . S
C3829 C3825 1.376 . S
C3829 C3828 1.392 . S
C3829 H3841 0.929 . S
C3830 C3826 1.531 . S
C3830 H3842 0.960 . S
C3830 H3843 0.962 . S
C3830 H3844 0.960 . S
C3831 C3828 1.511 . S
C3831 H3845 0.961 . S
C3831 H3846 0.961 . S
C3831 H3847 0.961 . S
C3832 C3833 1.370 . S
C3832 C3834 1.363 . S
C3832 H3848 0.931 . S
C3833 C3832 1.370 . S
C3833 C3837 1.408 . S
C3834 C3832 1.363 . S
C3834 C3835 1.370 . S
C3834 C3838 1.524 . S
C3835 C3827 1.503 . S
C3835 C3834 1.370 . S
C3835 C3836 1.403 . S
C3836 C3835 1.403 . S
C3836 C3837 1.404 . S
C3836 C3839 1.539 . S
C3837 C3833 1.408 . S
C3837 C3836 1.404 . S
C3837 H3849 0.930 . S
C3838 C3834 1.524 . S
C3838 H3850 0.956 . S
C3838 H3851 0.961 . S
C3838 H3852 0.961 . S
C3839 C3836 1.539 . S
C3839 H3853 0.958 . S
C3839 H3854 0.961 . S
C3839 H3855 0.960 . S
H3840 C3824 0.931 . S
H3841 C3829 0.929 . S
H3842 C3830 0.960 . S
H3843 C3830 0.962 . S
H3844 C3830 0.960 . S
H3845 C3831 0.961 . S
H3846 C3831 0.961 . S
H3847 C3831 0.961 . S
H3848 C3832 0.931 . S
H3849 C3837 0.930 . S
H3850 C3838 0.956 . S
H3851 C3838 0.961 . S
H3852 C3838 0.961 . S
H3853 C3839 0.958 . S
H3854 C3839 0.961 . S
H3855 C3839 0.960 . S
C3856 C3857 1.391 . S
C3856 C3858 1.394 . S
C3856 H3872 0.931 . S
C3857 C3856 1.391 . S
C3857 C3861 1.376 . S
C3858 C3856 1.394 . S
C3858 C3859 1.369 . S
C3858 C3862 1.531 . S
C3859 C3858 1.369 . S
C3859 C3860 1.410 . S
C3859 C3867 1.503 . S
C3860 C3859 1.410 . S
C3860 C3861 1.392 . S
C3860 C3863 1.511 . S
C3861 C3857 1.376 . S
C3861 C3860 1.392 . S
C3861 H3873 0.929 . S
C3862 C3858 1.531 . S
C3862 H3874 0.960 . S
C3862 H3875 0.962 . S
C3862 H3876 0.960 . S
C3863 C3860 1.511 . S
C3863 H3877 0.961 . S
C3863 H3878 0.961 . S
C3863 H3879 0.961 . S
C3864 C3865 1.370 . S
C3864 C3866 1.363 . S
C3864 H3880 0.931 . S
C3865 C3864 1.370 . S
C3865 C3869 1.408 . S
C3866 C3864 1.363 . S
C3866 C3867 1.370 . S
C3866 C3870 1.524 . S
C3867 C3859 1.503 . S
C3867 C3866 1.370 . S
C3867 C3868 1.403 . S
C3868 C3867 1.403 . S
C3868 C3869 1.404 . S
C3868 C3871 1.539 . S
C3869 C3865 1.408 . S
C3869 C3868 1.404 . S
C3869 H3881 0.930 . S
C3870 C3866 1.524 . S
C3870 H3882 0.956 . S
C3870 H3883 0.961 . S
C3870 H3884 0.961 . S
C3871 C3868 1.539 . S
C3871 H3885 0.958 . S
C3871 H3886 0.961 . S
C3871 H3887 0.960 . S
H3872 C3856 0.931 . S
H3873 C3861 0.929 . S
H3874 C3862 0.960 . S
H3875 C3862 0.962 . S
H3876 C3862 0.960 . S
H3877 C3863 0.961 . S
H3878 C3863 0.961 . S
H3879 C3863 0.961 . S
H3880 C3864 0.931 . S
H3881 C3869 0.930 . S
H3882 C3870 0.956 . S
H3883 C3870 0.961 . S
H3884 C3870 0.961 . S
H3885 C3871 0.958 . S
H3886 C3871 0.961 . S
H3887 C3871 0.960 . S
C3888 C3889 1.391 . S
C3888 C3890 1.394 . S
C3888 H3904 0.931 . S
C3889 C3888 1.391 . S
C3889 C3893 1.376 . S
C3890 C3888 1.394 . S
C3890 C3891 1.369 . S
C3890 C3894 1.531 . S
C3891 C3890 1.369 . S
C3891 C3892 1.410 . S
C3891 C3899 1.503 . S
C3892 C3891 1.410 . S
C3892 C3893 1.392 . S
C3892 C3895 1.511 . S
C3893 C3889 1.376 . S
C3893 C3892 1.392 . S
C3893 H3905 0.929 . S
C3894 C3890 1.531 . S
C3894 H3906 0.960 . S
C3894 H3907 0.962 . S
C3894 H3908 0.960 . S
C3895 C3892 1.511 . S
C3895 H3909 0.961 . S
C3895 H3910 0.961 . S
C3895 H3911 0.961 . S
C3896 C3897 1.370 . S
C3896 C3898 1.363 . S
C3896 H3912 0.931 . S
C3897 C3896 1.370 . S
C3897 C3901 1.408 . S
C3898 C3896 1.363 . S
C3898 C3899 1.370 . S
C3898 C3902 1.524 . S
C3899 C3891 1.503 . S
C3899 C3898 1.370 . S
C3899 C3900 1.403 . S
C3900 C3899 1.403 . S
C3900 C3901 1.404 . S
C3900 C3903 1.539 . S
C3901 C3897 1.408 . S
C3901 C3900 1.404 . S
C3901 H3913 0.930 . S
C3902 C3898 1.524 . S
C3902 H3914 0.956 . S
C3902 H3915 0.961 . S
C3902 H3916 0.961 . S
C3903 C3900 1.539 . S
C3903 H3917 0.958 . S
C3903 H3918 0.961 . S
C3903 H3919 0.960 . S
H3904 C3888 0.931 . S
H3905 C3893 0.929 . S
H3906 C3894 0.960 . S
H3907 C3894 0.962 . S
H3908 C3894 0.960 . S
H3909 C3895 0.961 . S
H3910 C3895 0.961 . S
H3911 C3895 0.961 . S
H3912 C3896 0.931 . S
H3913 C3901 0.930 . S
H3914 C3902 0.956 . S
H3915 C3902 0.961 . S
H3916 C3902 0.961 . S
H3917 C3903 0.958 . S
H3918 C3903 0.961 . S
H3919 C3903 0.960 . S
C3920 C3921 1.391 . S
C3920 C3922 1.394 . S
C3920 H3936 0.931 . S
C3921 C3920 1.391 . S
C3921 C3925 1.376 . S
C3922 C3920 1.394 . S
C3922 C3923 1.369 . S
C3922 C3926 1.531 . S
C3923 C3922 1.369 . S
C3923 C3924 1.410 . S
C3923 C3931 1.503 . S
C3924 C3923 1.410 . S
C3924 C3925 1.392 . S
C3924 C3927 1.511 . S
C3925 C3921 1.376 . S
C3925 C3924 1.392 . S
C3925 H3937 0.929 . S
C3926 C3922 1.531 . S
C3926 H3938 0.960 . S
C3926 H3939 0.962 . S
C3926 H3940 0.960 . S
C3927 C3924 1.511 . S
C3927 H3941 0.961 . S
C3927 H3942 0.961 . S
C3927 H3943 0.961 . S
C3928 C3929 1.370 . S
C3928 C3930 1.363 . S
C3928 H3944 0.931 . S
C3929 C3928 1.370 . S
C3929 C3933 1.408 . S
C3930 C3928 1.363 . S
C3930 C3931 1.370 . S
C3930 C3934 1.524 . S
C3931 C3923 1.503 . S
C3931 C3930 1.370 . S
C3931 C3932 1.403 . S
C3932 C3931 1.403 . S
C3932 C3933 1.404 . S
C3932 C3935 1.539 . S
C3933 C3929 1.408 . S
C3933 C3932 1.404 . S
C3933 H3945 0.930 . S
C3934 C3930 1.524 . S
C3934 H3946 0.956 . S
C3934 H3947 0.961 . S
C3934 H3948 0.961 . S
C3935 C3932 1.539 . S
C3935 H3949 0.958 . S
C3935 H3950 0.961 . S
C3935 H3951 0.960 . S
H3936 C3920 0.931 . S
H3937 C3925 0.929 . S
H3938 C3926 0.960 . S
H3939 C3926 0.962 . S
H3940 C3926 0.960 . S
H3941 C3927 0.961 . S
H3942 C3927 0.961 . S
H3943 C3927 0.961 . S
H3944 C3928 0.931 . S
H3945 C3933 0.930 . S
H3946 C3934 0.956 . S
H3947 C3934 0.961 . S
H3948 C3934 0.961 . S
H3949 C3935 0.958 . S
H3950 C3935 0.961 . S
H3951 C3935 0.960 . S
C3952 C3953 1.391 . S
C3952 C3954 1.394 . S
C3952 H3968 0.931 . S
C3953 C3952 1.391 . S
C3953 C3957 1.376 . S
C3954 C3952 1.394 . S
C3954 C3955 1.369 . S
C3954 C3958 1.531 . S
C3955 C3954 1.369 . S
C3955 C3956 1.410 . S
C3955 C3963 1.503 . S
C3956 C3955 1.410 . S
C3956 C3957 1.392 . S
C3956 C3959 1.511 . S
C3957 C3953 1.376 . S
C3957 C3956 1.392 . S
C3957 H3969 0.929 . S
C3958 C3954 1.531 . S
C3958 H3970 0.960 . S
C3958 H3971 0.962 . S
C3958 H3972 0.960 . S
C3959 C3956 1.511 . S
C3959 H3973 0.961 . S
C3959 H3974 0.961 . S
C3959 H3975 0.961 . S
C3960 C3961 1.370 . S
C3960 C3962 1.363 . S
C3960 H3976 0.931 . S
C3961 C3960 1.370 . S
C3961 C3965 1.408 . S
C3962 C3960 1.363 . S
C3962 C3963 1.370 . S
C3962 C3966 1.524 . S
C3963 C3955 1.503 . S
C3963 C3962 1.370 . S
C3963 C3964 1.403 . S
C3964 C3963 1.403 . S
C3964 C3965 1.404 . S
C3964 C3967 1.539 . S
C3965 C3961 1.408 . S
C3965 C3964 1.404 . S
C3965 H3977 0.930 . S
C3966 C3962 1.524 . S
C3966 H3978 0.956 . S
C3966 H3979 0.961 . S
C3966 H3980 0.961 . S
C3967 C3964 1.539 . S
C3967 H3981 0.958 . S
C3967 H3982 0.961 . S
C3967 H3983 0.960 . S
H3968 C3952 0.931 . S
H3969 C3957 0.929 . S
H3970 C3958 0.960 . S
H3971 C3958 0.962 . S
H3972 C3958 0.960 . S
H3973 C3959 0.961 . S
H3974 C3959 0.961 . S
H3975 C3959 0.961 . S
H3976 C3960 0.931 . S
H3977 C3965 0.930 . S
H3978 C3966 0.956 . S
H3979 C3966 0.961 . S
H3980 C3966 0.961 . S
H3981 C3967 0.958 . S
H3982 C3967 0.961 . S
H3983 C3967 0.960 . S
C3984 C3985 1.391 . S
C3984 C3986 1.394 . S
C3984 H4000 0.931 . S
C3985 C3984 1.391 . S
C3985 C3989 1.376 . S
C3986 C3984 1.394 . S
C3986 C3987 1.369 . S
C3986 C3990 1.531 . S
C3987 C3986 1.369 . S
C3987 C3988 1.410 . S
C3987 C3995 1.503 . S
C3988 C3987 1.410 . S
C3988 C3989 1.392 . S
C3988 C3991 1.511 . S
C3989 C3985 1.376 . S
C3989 C3988 1.392 . S
C3989 H4001 0.929 . S
C3990 C3986 1.531 . S
C3990 H4002 0.960 . S
C3990 H4003 0.962 . S
C3990 H4004 0.960 . S
C3991 C3988 1.511 . S
C3991 H4005 0.961 . S
C3991 H4006 0.961 . S
C3991 H4007 0.961 . S
C3992 C3993 1.370 . S
C3992 C3994 1.363 . S
C3992 H4008 0.931 . S
C3993 C3992 1.370 . S
C3993 C3997 1.408 . S
C3994 C3992 1.363 . S
C3994 C3995 1.370 . S
C3994 C3998 1.524 . S
C3995 C3987 1.503 . S
C3995 C3994 1.370 . S
C3995 C3996 1.403 . S
C3996 C3995 1.403 . S
C3996 C3997 1.404 . S
C3996 C3999 1.539 . S
C3997 C3993 1.408 . S
C3997 C3996 1.404 . S
C3997 H4009 0.930 . S
C3998 C3994 1.524 . S
C3998 H4010 0.956 . S
C3998 H4011 0.961 . S
C3998 H4012 0.961 . S
C3999 C3996 1.539 . S
C3999 H4013 0.958 . S
C3999 H4014 0.961 . S
C3999 H4015 0.960 . S
H4000 C3984 0.931 . S
H4001 C3989 0.929 . S
H4002 C3990 0.960 . S
H4003 C3990 0.962 . S
H4004 C3990 0.960 . S
H4005 C3991 0.961 . S
H4006 C3991 0.961 . S
H4007 C3991 0.961 . S
H4008 C3992 0.931 . S
H4009 C3997 0.930 . S
H4010 C3998 0.956 . S
H4011 C3998 0.961 . S
H4012 C3998 0.961 . S
H4013 C3999 0.958 . S
H4014 C3999 0.961 . S
H4015 C3999 0.960 . S
C4016 C4017 1.391 . S
C4016 C4018 1.394 . S
C4016 H4032 0.931 . S
C4017 C4016 1.391 . S
C4017 C4021 1.376 . S
C4018 C4016 1.394 . S
C4018 C4019 1.369 . S
C4018 C4022 1.531 . S
C4019 C4018 1.369 . S
C4019 C4020 1.410 . S
C4019 C4027 1.503 . S
C4020 C4019 1.410 . S
C4020 C4021 1.392 . S
C4020 C4023 1.511 . S
C4021 C4017 1.376 . S
C4021 C4020 1.392 . S
C4021 H4033 0.929 . S
C4022 C4018 1.531 . S
C4022 H4034 0.960 . S
C4022 H4035 0.962 . S
C4022 H4036 0.960 . S
C4023 C4020 1.511 . S
C4023 H4037 0.961 . S
C4023 H4038 0.961 . S
C4023 H4039 0.961 . S
C4024 C4025 1.370 . S
C4024 C4026 1.363 . S
C4024 H4040 0.931 . S
C4025 C4024 1.370 . S
C4025 C4029 1.408 . S
C4026 C4024 1.363 . S
C4026 C4027 1.370 . S
C4026 C4030 1.524 . S
C4027 C4019 1.503 . S
C4027 C4026 1.370 . S
C4027 C4028 1.403 . S
C4028 C4027 1.403 . S
C4028 C4029 1.404 . S
C4028 C4031 1.539 . S
C4029 C4025 1.408 . S
C4029 C4028 1.404 . S
C4029 H4041 0.930 . S
C4030 C4026 1.524 . S
C4030 H4042 0.956 . S
C4030 H4043 0.961 . S
C4030 H4044 0.961 . S
C4031 C4028 1.539 . S
C4031 H4045 0.958 . S
C4031 H4046 0.961 . S
C4031 H4047 0.960 . S
H4032 C4016 0.931 . S
H4033 C4021 0.929 . S
H4034 C4022 0.960 . S
H4035 C4022 0.962 . S
H4036 C4022 0.960 . S
H4037 C4023 0.961 . S
H4038 C4023 0.961 . S
H4039 C4023 0.961 . S
H4040 C4024 0.931 . S
H4041 C4029 0.930 . S
H4042 C4030 0.956 . S
H4043 C4030 0.961 . S
H4044 C4030 0.961 . S
H4045 C4031 0.958 . S
H4046 C4031 0.961 . S
H4047 C4031 0.960 . S
C4048 C4049 1.391 . S
C4048 C4050 1.394 . S
C4048 H4064 0.931 . S
C4049 C4048 1.391 . S
C4049 C4053 1.376 . S
C4050 C4048 1.394 . S
C4050 C4051 1.369 . S
C4050 C4054 1.531 . S
C4051 C4050 1.369 . S
C4051 C4052 1.410 . S
C4051 C4059 1.503 . S
C4052 C4051 1.410 . S
C4052 C4053 1.392 . S
C4052 C4055 1.511 . S
C4053 C4049 1.376 . S
C4053 C4052 1.392 . S
C4053 H4065 0.929 . S
C4054 C4050 1.531 . S
C4054 H4066 0.960 . S
C4054 H4067 0.962 . S
C4054 H4068 0.960 . S
C4055 C4052 1.511 . S
C4055 H4069 0.961 . S
C4055 H4070 0.961 . S
C4055 H4071 0.961 . S
C4056 C4057 1.370 . S
C4056 C4058 1.363 . S
C4056 H4072 0.931 . S
C4057 C4056 1.370 . S
C4057 C4061 1.408 . S
C4058 C4056 1.363 . S
C4058 C4059 1.370 . S
C4058 C4062 1.524 . S
C4059 C4051 1.503 . S
C4059 C4058 1.370 . S
C4059 C4060 1.403 . S
C4060 C4059 1.403 . S
C4060 C4061 1.404 . S
C4060 C4063 1.539 . S
C4061 C4057 1.408 . S
C4061 C4060 1.404 . S
C4061 H4073 0.930 . S
C4062 C4058 1.524 . S
C4062 H4074 0.956 . S
C4062 H4075 0.961 . S
C4062 H4076 0.961 . S
C4063 C4060 1.539 . S
C4063 H4077 0.958 . S
C4063 H4078 0.961 . S
C4063 H4079 0.960 . S
H4064 C4048 0.931 . S
H4065 C4053 0.929 . S
H4066 C4054 0.960 . S
H4067 C4054 0.962 . S
H4068 C4054 0.960 . S
H4069 C4055 0.961 . S
H4070 C4055 0.961 . S
H4071 C4055 0.961 . S
H4072 C4056 0.931 . S
H4073 C4061 0.930 . S
H4074 C4062 0.956 . S
H4075 C4062 0.961 . S
H4076 C4062 0.961 . S
H4077 C4063 0.958 . S
H4078 C4063 0.961 . S
H4079 C4063 0.960 . S
C4080 C4081 1.429 . S
C4080 C4082 1.373 1_455 S
C4080 H4096 0.915 1_455 S
C4081 C4080 1.429 . S
C4081 C4085 1.376 . S
C4082 C4080 1.373 1_655 S
C4082 C4083 1.369 1_655 S
C4082 C4086 1.531 . S
C4083 C4082 1.369 1_455 S
C4083 C4084 1.410 . S
C4083 C4091 1.503 . S
C4084 C4083 1.410 . S
C4084 C4085 1.392 . S
C4084 C4087 1.511 . S
C4085 C4081 1.376 . S
C4085 C4084 1.392 . S
C4085 H4097 0.929 . S
C4086 C4082 1.531 . S
C4086 H4098 0.960 . S
C4086 H4099 0.962 . S
C4086 H4100 0.960 . S
C4087 C4084 1.511 . S
C4087 H4101 0.961 . S
C4087 H4102 0.961 . S
C4087 H4103 0.961 . S
C4088 C4089 1.370 . S
C4088 C4090 1.363 . S
C4088 H4104 0.929 . S
C4089 C4088 1.370 . S
C4089 C4093 1.408 . S
C4090 C4088 1.363 . S
C4090 C4091 1.370 . S
C4090 C4094 1.524 . S
C4091 C4083 1.503 . S
C4091 C4090 1.370 . S
C4091 C4092 1.403 . S
C4092 C4091 1.403 . S
C4092 C4093 1.404 . S
C4092 C4095 1.539 . S
C4093 C4089 1.408 . S
C4093 C4092 1.404 . S
C4093 H4105 0.930 . S
C4094 C4090 1.524 . S
C4094 H4106 0.956 1_455 S
C4094 H4107 0.961 . S
C4094 H4108 0.961 . S
C4095 C4092 1.539 . S
C4095 H4109 0.958 . S
C4095 H4110 0.961 . S
C4095 H4111 0.960 . S
H4096 C4080 0.915 1_655 S
H4097 C4085 0.929 . S
H4098 C4086 0.960 . S
H4099 C4086 0.962 . S
H4100 C4086 0.960 . S
H4101 C4087 0.961 . S
H4102 C4087 0.961 . S
H4103 C4087 0.961 . S
H4104 C4088 0.929 . S
H4105 C4093 0.930 . S
H4106 C4094 0.956 1_655 S
H4107 C4094 0.961 . S
H4108 C4094 0.961 . S
H4109 C4095 0.958 . S
H4110 C4095 0.961 . S
H4111 C4095 0.960 . S
C4112 C4113 1.391 . S
C4112 C4114 1.394 . S
C4112 H4128 0.931 . S
C4113 C4112 1.391 . S
C4113 C4117 1.376 . S
C4114 C4112 1.394 . S
C4114 C4115 1.369 . S
C4114 C4118 1.531 . S
C4115 C4114 1.369 . S
C4115 C4116 1.410 . S
C4115 C4123 1.503 . S
C4116 C4115 1.410 . S
C4116 C4117 1.392 . S
C4116 C4119 1.511 . S
C4117 C4113 1.376 . S
C4117 C4116 1.392 . S
C4117 H4129 0.929 . S
C4118 C4114 1.531 . S
C4118 H4130 0.960 . S
C4118 H4131 0.962 . S
C4118 H4132 0.960 . S
C4119 C4116 1.511 . S
C4119 H4133 0.961 . S
C4119 H4134 0.961 . S
C4119 H4135 0.961 . S
C4120 C4121 1.370 . S
C4120 C4122 1.363 . S
C4120 H4136 0.931 . S
C4121 C4120 1.370 . S
C4121 C4125 1.408 . S
C4122 C4120 1.363 . S
C4122 C4123 1.370 . S
C4122 C4126 1.524 . S
C4123 C4115 1.503 . S
C4123 C4122 1.370 . S
C4123 C4124 1.403 . S
C4124 C4123 1.403 . S
C4124 C4125 1.404 . S
C4124 C4127 1.539 . S
C4125 C4121 1.408 . S
C4125 C4124 1.404 . S
C4125 H4137 0.930 . S
C4126 C4122 1.524 . S
C4126 H4138 0.956 . S
C4126 H4139 0.961 . S
C4126 H4140 0.961 . S
C4127 C4124 1.539 . S
C4127 H4141 0.958 . S
C4127 H4142 0.961 . S
C4127 H4143 0.960 . S
H4128 C4112 0.931 . S
H4129 C4117 0.929 . S
H4130 C4118 0.960 . S
H4131 C4118 0.962 . S
H4132 C4118 0.960 . S
H4133 C4119 0.961 . S
H4134 C4119 0.961 . S
H4135 C4119 0.961 . S
H4136 C4120 0.931 . S
H4137 C4125 0.930 . S
H4138 C4126 0.956 . S
H4139 C4126 0.961 . S
H4140 C4126 0.961 . S
H4141 C4127 0.958 . S
H4142 C4127 0.961 . S
H4143 C4127 0.960 . S
C4144 C4145 1.391 . S
C4144 C4146 1.394 . S
C4144 H4160 0.931 . S
C4145 C4144 1.391 . S
C4145 C4149 1.376 . S
C4146 C4144 1.394 . S
C4146 C4147 1.369 . S
C4146 C4150 1.531 . S
C4147 C4146 1.369 . S
C4147 C4148 1.410 . S
C4147 C4155 1.503 . S
C4148 C4147 1.410 . S
C4148 C4149 1.392 . S
C4148 C4151 1.511 1_565 S
C4149 C4145 1.376 . S
C4149 C4148 1.392 . S
C4149 H4161 0.929 1_565 S
C4150 C4146 1.531 . S
C4150 H4162 0.960 . S
C4150 H4163 0.962 . S
C4150 H4164 0.960 . S
C4151 C4148 1.511 1_545 S
C4151 H4165 0.961 . S
C4151 H4166 0.961 . S
C4151 H4167 0.961 . S
C4152 C4153 1.370 1_545 S
C4152 C4154 1.363 . S
C4152 H4168 0.931 . S
C4153 C4152 1.370 1_565 S
C4153 C4157 1.408 . S
C4154 C4152 1.363 . S
C4154 C4155 1.370 1_545 S
C4154 C4158 1.524 . S
C4155 C4147 1.503 . S
C4155 C4154 1.370 1_565 S
C4155 C4156 1.403 . S
C4156 C4155 1.403 . S
C4156 C4157 1.404 . S
C4156 C4159 1.539 . S
C4157 C4153 1.408 . S
C4157 C4156 1.404 . S
C4157 H4169 0.930 . S
C4158 C4154 1.524 . S
C4158 H4170 0.956 . S
C4158 H4171 0.961 . S
C4158 H4172 0.961 . S
C4159 C4156 1.539 . S
C4159 H4173 0.958 . S
C4159 H4174 0.961 . S
C4159 H4175 0.960 . S
H4160 C4144 0.931 . S
H4161 C4149 0.929 1_545 S
H4162 C4150 0.960 . S
H4163 C4150 0.962 . S
H4164 C4150 0.960 . S
H4165 C4151 0.961 . S
H4166 C4151 0.961 . S
H4167 C4151 0.961 . S
H4168 C4152 0.931 . S
H4169 C4157 0.930 . S
H4170 C4158 0.956 . S
H4171 C4158 0.961 . S
H4172 C4158 0.961 . S
H4173 C4159 0.958 . S
H4174 C4159 0.961 . S
H4175 C4159 0.960 . S
C4176 C4177 1.391 . S
C4176 C4178 1.394 . S
C4176 H4192 0.931 . S
C4177 C4176 1.391 . S
C4177 C4181 1.376 . S
C4178 C4176 1.394 . S
C4178 C4179 1.369 . S
C4178 C4182 1.531 . S
C4179 C4178 1.369 . S
C4179 C4180 1.410 . S
C4179 C4187 1.503 . S
C4180 C4179 1.410 . S
C4180 C4181 1.392 . S
C4180 C4183 1.511 1_565 S
C4181 C4177 1.376 . S
C4181 C4180 1.392 . S
C4181 H4193 0.929 . S
C4182 C4178 1.531 . S
C4182 H4194 0.960 . S
C4182 H4195 0.962 . S
C4182 H4196 0.960 . S
C4183 C4180 1.511 1_545 S
C4183 H4197 0.961 . S
C4183 H4198 0.961 . S
C4183 H4199 0.961 1_545 S
C4184 C4185 1.370 1_545 S
C4184 C4186 1.363 . S
C4184 H4200 0.931 . S
C4185 C4184 1.370 1_565 S
C4185 C4189 1.408 . S
C4186 C4184 1.363 . S
C4186 C4187 1.370 1_545 S
C4186 C4190 1.524 . S
C4187 C4179 1.503 . S
C4187 C4186 1.370 1_565 S
C4187 C4188 1.403 . S
C4188 C4187 1.403 . S
C4188 C4189 1.404 . S
C4188 C4191 1.539 . S
C4189 C4185 1.408 . S
C4189 C4188 1.404 . S
C4189 H4201 0.930 . S
C4190 C4186 1.524 . S
C4190 H4202 0.956 . S
C4190 H4203 0.961 . S
C4190 H4204 0.961 . S
C4191 C4188 1.539 . S
C4191 H4205 0.958 . S
C4191 H4206 0.961 . S
C4191 H4207 0.960 . S
H4192 C4176 0.931 . S
H4193 C4181 0.929 . S
H4194 C4182 0.960 . S
H4195 C4182 0.962 . S
H4196 C4182 0.960 . S
H4197 C4183 0.961 . S
H4198 C4183 0.961 . S
H4199 C4183 0.961 1_565 S
H4200 C4184 0.931 . S
H4201 C4189 0.930 . S
H4202 C4190 0.956 . S
H4203 C4190 0.961 . S
H4204 C4190 0.961 . S
H4205 C4191 0.958 . S
H4206 C4191 0.961 . S
H4207 C4191 0.960 . S
C4208 C4209 1.391 . S
C4208 C4210 1.394 . S
C4208 H4224 0.864 1_455 S
C4209 C4208 1.391 . S
C4209 C4213 1.376 . S
C4210 C4208 1.394 . S
C4210 C4211 1.369 . S
C4210 C4214 1.531 1_455 S
C4211 C4210 1.369 . S
C4211 C4212 1.410 . S
C4211 C4219 1.503 . S
C4212 C4211 1.410 . S
C4212 C4213 1.392 . S
C4212 C4215 1.511 . S
C4213 C4209 1.376 . S
C4213 C4212 1.392 . S
C4213 H4225 0.929 . S
C4214 C4210 1.531 1_655 S
C4214 H4226 0.960 . S
C4214 H4227 0.962 . S
C4214 H4228 0.960 . S
C4215 C4212 1.511 . S
C4215 H4229 0.961 . S
C4215 H4230 0.961 . S
C4215 H4231 0.961 . S
C4216 C4217 1.370 1_655 S
C4216 C4218 1.363 . S
C4216 H4232 0.931 . S
C4217 C4216 1.370 1_455 S
C4217 C4221 1.408 . S
C4218 C4216 1.363 . S
C4218 C4219 1.370 1_655 S
C4218 C4222 1.524 . S
C4219 C4211 1.503 . S
C4219 C4218 1.370 1_455 S
C4219 C4220 1.403 . S
C4220 C4219 1.403 . S
C4220 C4221 1.404 . S
C4220 C4223 1.539 . S
C4221 C4217 1.408 . S
C4221 C4220 1.404 . S
C4221 H4233 0.930 . S
C4222 C4218 1.524 . S
C4222 H4234 0.956 . S
C4222 H4235 0.961 . S
C4222 H4236 0.961 . S
C4223 C4220 1.539 . S
C4223 H4237 0.958 . S
C4223 H4238 0.961 . S
C4223 H4239 0.960 . S
H4224 C4208 0.864 1_655 S
H4225 C4213 0.929 . S
H4226 C4214 0.960 . S
H4227 C4214 0.962 . S
H4228 C4214 0.960 . S
H4229 C4215 0.961 . S
H4230 C4215 0.961 . S
H4231 C4215 0.961 . S
H4232 C4216 0.931 . S
H4233 C4221 0.930 . S
H4234 C4222 0.956 . S
H4235 C4222 0.961 . S
H4236 C4222 0.961 . S
H4237 C4223 0.958 . S
H4238 C4223 0.961 . S
H4239 C4223 0.960 . S
C4240 C4241 1.391 . S
C4240 C4242 1.394 . S
C4240 H4256 0.931 . S
C4241 C4240 1.391 . S
C4241 C4245 1.376 . S
C4242 C4240 1.394 . S
C4242 C4243 1.369 . S
C4242 C4246 1.531 . S
C4243 C4242 1.369 . S
C4243 C4244 1.410 . S
C4243 C4251 1.503 . S
C4244 C4243 1.410 . S
C4244 C4245 1.392 . S
C4244 C4247 1.511 . S
C4245 C4241 1.376 . S
C4245 C4244 1.392 . S
C4245 H4257 0.929 . S
C4246 C4242 1.531 . S
C4246 H4258 0.960 . S
C4246 H4259 0.962 . S
C4246 H4260 0.960 . S
C4247 C4244 1.511 . S
C4247 H4261 0.961 . S
C4247 H4262 0.961 . S
C4247 H4263 0.961 . S
C4248 C4249 1.370 . S
C4248 C4250 1.363 . S
C4248 H4264 0.931 . S
C4249 C4248 1.370 . S
C4249 C4253 1.408 . S
C4250 C4248 1.363 . S
C4250 C4251 1.370 . S
C4250 C4254 1.524 . S
C4251 C4243 1.503 . S
C4251 C4250 1.370 . S
C4251 C4252 1.403 . S
C4252 C4251 1.403 . S
C4252 C4253 1.404 . S
C4252 C4255 1.539 . S
C4253 C4249 1.408 . S
C4253 C4252 1.404 . S
C4253 H4265 0.930 . S
C4254 C4250 1.524 . S
C4254 H4266 0.956 . S
C4254 H4267 0.961 . S
C4254 H4268 0.961 . S
C4255 C4252 1.539 . S
C4255 H4269 0.958 . S
C4255 H4270 0.961 . S
C4255 H4271 0.960 . S
H4256 C4240 0.931 . S
H4257 C4245 0.929 . S
H4258 C4246 0.960 . S
H4259 C4246 0.962 . S
H4260 C4246 0.960 . S
H4261 C4247 0.961 . S
H4262 C4247 0.961 . S
H4263 C4247 0.961 . S
H4264 C4248 0.931 . S
H4265 C4253 0.930 . S
H4266 C4254 0.956 . S
H4267 C4254 0.961 . S
H4268 C4254 0.961 . S
H4269 C4255 0.958 . S
H4270 C4255 0.961 . S
H4271 C4255 0.960 . S
C4272 C4273 1.391 . S
C4272 C4274 1.394 . S
C4272 H4288 0.931 . S
C4273 C4272 1.391 . S
C4273 C4277 1.376 . S
C4274 C4272 1.394 . S
C4274 C4275 1.369 . S
C4274 C4278 1.531 . S
C4275 C4274 1.369 . S
C4275 C4276 1.410 . S
C4275 C4283 1.503 . S
C4276 C4275 1.410 . S
C4276 C4277 1.392 . S
C4276 C4279 1.511 . S
C4277 C4273 1.376 . S
C4277 C4276 1.392 . S
C4277 H4289 0.929 . S
C4278 C4274 1.531 . S
C4278 H4290 0.960 . S
C4278 H4291 0.962 . S
C4278 H4292 0.960 . S
C4279 C4276 1.511 . S
C4279 H4293 0.961 . S
C4279 H4294 0.961 . S
C4279 H4295 0.961 . S
C4280 C4281 1.370 . S
C4280 C4282 1.363 . S
C4280 H4296 0.931 . S
C4281 C4280 1.370 . S
C4281 C4285 1.408 . S
C4282 C4280 1.363 . S
C4282 C4283 1.370 . S
C4282 C4286 1.524 . S
C4283 C4275 1.503 . S
C4283 C4282 1.370 . S
C4283 C4284 1.403 . S
C4284 C4283 1.403 . S
C4284 C4285 1.404 . S
C4284 C4287 1.539 . S
C4285 C4281 1.408 . S
C4285 C4284 1.404 . S
C4285 H4297 0.930 . S
C4286 C4282 1.524 . S
C4286 H4298 0.956 . S
C4286 H4299 0.961 . S
C4286 H4300 0.961 . S
C4287 C4284 1.539 . S
C4287 H4301 0.958 . S
C4287 H4302 0.961 . S
C4287 H4303 0.960 . S
H4288 C4272 0.931 . S
H4289 C4277 0.929 . S
H4290 C4278 0.960 . S
H4291 C4278 0.962 . S
H4292 C4278 0.960 . S
H4293 C4279 0.961 . S
H4294 C4279 0.961 . S
H4295 C4279 0.961 . S
H4296 C4280 0.931 . S
H4297 C4285 0.930 . S
H4298 C4286 0.956 . S
H4299 C4286 0.961 . S
H4300 C4286 0.961 . S
H4301 C4287 0.958 . S
H4302 C4287 0.961 . S
H4303 C4287 0.960 . S
C4304 C4305 1.391 . S
C4304 C4306 1.394 . S
C4304 H4320 0.931 . S
C4305 C4304 1.391 . S
C4305 C4309 1.376 . S
C4306 C4304 1.394 . S
C4306 C4307 1.369 . S
C4306 C4310 1.531 . S
C4307 C4306 1.369 . S
C4307 C4308 1.410 . S
C4307 C4315 1.503 . S
C4308 C4307 1.410 . S
C4308 C4309 1.392 . S
C4308 C4311 1.511 . S
C4309 C4305 1.376 . S
C4309 C4308 1.392 . S
C4309 H4321 0.929 . S
C4310 C4306 1.531 . S
C4310 H4322 0.960 . S
C4310 H4323 0.962 . S
C4310 H4324 0.960 . S
C4311 C4308 1.511 . S
C4311 H4325 0.961 . S
C4311 H4326 0.961 . S
C4311 H4327 0.961 . S
C4312 C4313 1.370 . S
C4312 C4314 1.363 . S
C4312 H4328 0.931 . S
C4313 C4312 1.370 . S
C4313 C4317 1.408 . S
C4314 C4312 1.363 . S
C4314 C4315 1.370 . S
C4314 C4318 1.524 . S
C4315 C4307 1.503 . S
C4315 C4314 1.370 . S
C4315 C4316 1.403 . S
C4316 C4315 1.403 . S
C4316 C4317 1.404 . S
C4316 C4319 1.539 . S
C4317 C4313 1.408 . S
C4317 C4316 1.404 . S
C4317 H4329 0.930 . S
C4318 C4314 1.524 . S
C4318 H4330 0.956 . S
C4318 H4331 0.961 . S
C4318 H4332 0.961 . S
C4319 C4316 1.539 . S
C4319 H4333 0.958 . S
C4319 H4334 0.961 . S
C4319 H4335 0.960 . S
H4320 C4304 0.931 . S
H4321 C4309 0.929 . S
H4322 C4310 0.960 . S
H4323 C4310 0.962 . S
H4324 C4310 0.960 . S
H4325 C4311 0.961 . S
H4326 C4311 0.961 . S
H4327 C4311 0.961 . S
H4328 C4312 0.931 . S
H4329 C4317 0.930 . S
H4330 C4318 0.956 . S
H4331 C4318 0.961 . S
H4332 C4318 0.961 . S
H4333 C4319 0.958 . S
H4334 C4319 0.961 . S
H4335 C4319 0.960 . S
C4336 C4337 1.391 . S
C4336 C4338 1.394 . S
C4336 H4352 0.931 . S
C4337 C4336 1.391 . S
C4337 C4341 1.376 . S
C4338 C4336 1.394 . S
C4338 C4339 1.369 . S
C4338 C4342 1.531 . S
C4339 C4338 1.369 . S
C4339 C4340 1.410 . S
C4339 C4347 1.503 . S
C4340 C4339 1.410 . S
C4340 C4341 1.392 . S
C4340 C4343 1.511 . S
C4341 C4337 1.376 . S
C4341 C4340 1.392 . S
C4341 H4353 0.929 . S
C4342 C4338 1.531 . S
C4342 H4354 0.960 . S
C4342 H4355 0.962 . S
C4342 H4356 0.960 . S
C4343 C4340 1.511 . S
C4343 H4357 0.961 . S
C4343 H4358 0.961 . S
C4343 H4359 0.961 . S
C4344 C4345 1.370 . S
C4344 C4346 1.363 . S
C4344 H4360 0.931 . S
C4345 C4344 1.370 . S
C4345 C4349 1.408 . S
C4346 C4344 1.363 . S
C4346 C4347 1.370 . S
C4346 C4350 1.524 . S
C4347 C4339 1.503 . S
C4347 C4346 1.370 . S
C4347 C4348 1.403 . S
C4348 C4347 1.403 . S
C4348 C4349 1.404 . S
C4348 C4351 1.539 . S
C4349 C4345 1.408 . S
C4349 C4348 1.404 . S
C4349 H4361 0.930 . S
C4350 C4346 1.524 . S
C4350 H4362 0.956 . S
C4350 H4363 0.961 . S
C4350 H4364 0.961 . S
C4351 C4348 1.539 . S
C4351 H4365 0.958 . S
C4351 H4366 0.961 . S
C4351 H4367 0.960 . S
H4352 C4336 0.931 . S
H4353 C4341 0.929 . S
H4354 C4342 0.960 . S
H4355 C4342 0.962 . S
H4356 C4342 0.960 . S
H4357 C4343 0.961 . S
H4358 C4343 0.961 . S
H4359 C4343 0.961 . S
H4360 C4344 0.931 . S
H4361 C4349 0.930 . S
H4362 C4350 0.956 . S
H4363 C4350 0.961 . S
H4364 C4350 0.961 . S
H4365 C4351 0.958 . S
H4366 C4351 0.961 . S
H4367 C4351 0.960 . S
C4368 C4369 1.391 . S
C4368 C4370 1.394 . S
C4368 H4384 0.931 . S
C4369 C4368 1.391 . S
C4369 C4373 1.376 . S
C4370 C4368 1.394 . S
C4370 C4371 1.369 . S
C4370 C4374 1.531 . S
C4371 C4370 1.369 . S
C4371 C4372 1.410 . S
C4371 C4379 1.503 . S
C4372 C4371 1.410 . S
C4372 C4373 1.392 . S
C4372 C4375 1.511 . S
C4373 C4369 1.376 . S
C4373 C4372 1.392 . S
C4373 H4385 0.929 . S
C4374 C4370 1.531 . S
C4374 H4386 0.960 . S
C4374 H4387 0.962 . S
C4374 H4388 0.960 . S
C4375 C4372 1.511 . S
C4375 H4389 0.961 1_545 S
C4375 H4390 0.961 1_545 S
C4375 H4391 0.961 . S
C4376 C4377 1.370 1_565 S
C4376 C4378 1.363 . S
C4376 H4392 0.931 . S
C4377 C4376 1.370 1_545 S
C4377 C4381 1.408 . S
C4378 C4376 1.363 . S
C4378 C4379 1.370 1_565 S
C4378 C4382 1.524 . S
C4379 C4371 1.503 . S
C4379 C4378 1.370 1_545 S
C4379 C4380 1.403 . S
C4380 C4379 1.403 . S
C4380 C4381 1.404 . S
C4380 C4383 1.539 . S
C4381 C4377 1.408 . S
C4381 C4380 1.404 . S
C4381 H4393 0.930 . S
C4382 C4378 1.524 . S
C4382 H4394 0.956 . S
C4382 H4395 0.961 . S
C4382 H4396 0.961 . S
C4383 C4380 1.539 . S
C4383 H4397 0.958 . S
C4383 H4398 0.961 . S
C4383 H4399 0.960 . S
H4384 C4368 0.931 . S
H4385 C4373 0.929 . S
H4386 C4374 0.960 . S
H4387 C4374 0.962 . S
H4388 C4374 0.960 . S
H4389 C4375 0.961 1_565 S
H4390 C4375 0.961 1_565 S
H4391 C4375 0.961 . S
H4392 C4376 0.931 . S
H4393 C4381 0.930 . S
H4394 C4382 0.956 . S
H4395 C4382 0.961 . S
H4396 C4382 0.961 . S
H4397 C4383 0.958 . S
H4398 C4383 0.961 . S
H4399 C4383 0.960 . S
C4400 C4401 1.391 . S
C4400 C4402 1.394 . S
C4400 H4416 0.931 . S
C4401 C4400 1.391 . S
C4401 C4405 1.376 1_655 S
C4402 C4400 1.394 . S
C4402 C4403 1.369 . S
C4402 C4406 1.531 . S
C4403 C4402 1.369 . S
C4403 C4404 1.410 1_655 S
C4403 C4411 1.503 . S
C4404 C4403 1.410 1_455 S
C4404 C4405 1.392 . S
C4404 C4407 1.511 . S
C4405 C4401 1.376 1_455 S
C4405 C4404 1.392 . S
C4405 H4417 0.929 . S
C4406 C4402 1.531 . S
C4406 H4418 0.960 . S
C4406 H4419 0.962 . S
C4406 H4420 0.960 . S
C4407 C4404 1.511 . S
C4407 H4421 0.961 . S
C4407 H4422 0.961 . S
C4407 H4423 0.961 . S
C4408 C4409 1.370 . S
C4408 C4410 1.363 . S
C4408 H4424 0.931 . S
C4409 C4408 1.370 . S
C4409 C4413 1.396 1_655 S
C4410 C4408 1.363 . S
C4410 C4411 1.370 . S
C4410 C4414 1.524 . S
C4411 C4403 1.503 . S
C4411 C4410 1.370 . S
C4411 C4412 1.403 . S
C4412 C4411 1.403 . S
C4412 C4413 1.412 1_655 S
C4412 C4415 1.539 1_655 S
C4413 C4409 1.396 1_455 S
C4413 C4412 1.412 1_455 S
C4413 H4425 0.935 . S
C4414 C4410 1.524 . S
C4414 H4426 0.956 . S
C4414 H4427 0.961 . S
C4414 H4428 0.961 . S
C4415 C4412 1.539 1_455 S
C4415 H4429 0.958 1_455 S
C4415 H4430 0.961 . S
C4415 H4431 0.960 . S
H4416 C4400 0.931 . S
H4417 C4405 0.929 . S
H4418 C4406 0.960 . S
H4419 C4406 0.962 . S
H4420 C4406 0.960 . S
H4421 C4407 0.961 . S
H4422 C4407 0.961 . S
H4423 C4407 0.961 . S
H4424 C4408 0.931 . S
H4425 C4413 0.935 . S
H4426 C4414 0.956 . S
H4427 C4414 0.961 . S
H4428 C4414 0.961 . S
H4429 C4415 0.958 1_655 S
H4430 C4415 0.961 . S
H4431 C4415 0.960 . S
C4432 C4433 1.391 . S
C4432 C4434 1.394 . S
C4432 H4448 0.931 . S
C4433 C4432 1.391 . S
C4433 C4437 1.376 . S
C4434 C4432 1.394 . S
C4434 C4435 1.369 . S
C4434 C4438 1.531 . S
C4435 C4434 1.369 . S
C4435 C4436 1.410 . S
C4435 C4443 1.503 . S
C4436 C4435 1.410 . S
C4436 C4437 1.392 . S
C4436 C4439 1.511 . S
C4437 C4433 1.376 . S
C4437 C4436 1.392 . S
C4437 H4449 0.929 . S
C4438 C4434 1.531 . S
C4438 H4450 0.960 . S
C4438 H4451 0.962 . S
C4438 H4452 0.960 . S
C4439 C4436 1.511 . S
C4439 H4453 0.961 . S
C4439 H4454 0.961 . S
C4439 H4455 0.961 . S
C4440 C4441 1.370 . S
C4440 C4442 1.363 . S
C4440 H4456 0.931 . S
C4441 C4440 1.370 . S
C4441 C4445 1.408 . S
C4442 C4440 1.363 . S
C4442 C4443 1.370 . S
C4442 C4446 1.524 . S
C4443 C4435 1.503 . S
C4443 C4442 1.370 . S
C4443 C4444 1.403 . S
C4444 C4443 1.403 . S
C4444 C4445 1.404 . S
C4444 C4447 1.539 . S
C4445 C4441 1.408 . S
C4445 C4444 1.404 . S
C4445 H4457 0.930 . S
C4446 C4442 1.524 . S
C4446 H4458 0.956 . S
C4446 H4459 0.961 . S
C4446 H4460 0.961 . S
C4447 C4444 1.539 . S
C4447 H4461 0.958 . S
C4447 H4462 0.961 . S
C4447 H4463 0.960 . S
H4448 C4432 0.931 . S
H4449 C4437 0.929 . S
H4450 C4438 0.960 . S
H4451 C4438 0.962 . S
H4452 C4438 0.960 . S
H4453 C4439 0.961 . S
H4454 C4439 0.961 . S
H4455 C4439 0.961 . S
H4456 C4440 0.931 . S
H4457 C4445 0.930 . S
H4458 C4446 0.956 . S
H4459 C4446 0.961 . S
H4460 C4446 0.961 . S
H4461 C4447 0.958 . S
H4462 C4447 0.961 . S
H4463 C4447 0.960 . S
C4464 C4465 1.391 . S
C4464 C4466 1.394 . S
C4464 H4480 0.931 . S
C4465 C4464 1.391 . S
C4465 C4469 1.376 . S
C4466 C4464 1.394 . S
C4466 C4467 1.369 . S
C4466 C4470 1.531 . S
C4467 C4466 1.369 . S
C4467 C4468 1.410 . S
C4467 C4475 1.503 . S
C4468 C4467 1.410 . S
C4468 C4469 1.392 . S
C4468 C4471 1.511 . S
C4469 C4465 1.376 . S
C4469 C4468 1.392 . S
C4469 H4481 0.929 . S
C4470 C4466 1.531 . S
C4470 H4482 0.960 . S
C4470 H4483 0.962 . S
C4470 H4484 0.960 . S
C4471 C4468 1.511 . S
C4471 H4485 0.961 . S
C4471 H4486 0.961 . S
C4471 H4487 0.961 . S
C4472 C4473 1.370 . S
C4472 C4474 1.363 . S
C4472 H4488 0.931 . S
C4473 C4472 1.370 . S
C4473 C4477 1.408 . S
C4474 C4472 1.363 . S
C4474 C4475 1.370 . S
C4474 C4478 1.524 . S
C4475 C4467 1.503 . S
C4475 C4474 1.370 . S
C4475 C4476 1.403 . S
C4476 C4475 1.403 . S
C4476 C4477 1.404 . S
C4476 C4479 1.539 . S
C4477 C4473 1.408 . S
C4477 C4476 1.404 . S
C4477 H4489 0.930 . S
C4478 C4474 1.524 . S
C4478 H4490 0.956 . S
C4478 H4491 0.961 . S
C4478 H4492 0.961 . S
C4479 C4476 1.539 . S
C4479 H4493 0.958 . S
C4479 H4494 0.961 . S
C4479 H4495 0.960 . S
H4480 C4464 0.931 . S
H4481 C4469 0.929 . S
H4482 C4470 0.960 . S
H4483 C4470 0.962 . S
H4484 C4470 0.960 . S
H4485 C4471 0.961 . S
H4486 C4471 0.961 . S
H4487 C4471 0.961 . S
H4488 C4472 0.931 . S
H4489 C4477 0.930 . S
H4490 C4478 0.956 . S
H4491 C4478 0.961 . S
H4492 C4478 0.961 . S
H4493 C4479 0.958 . S
H4494 C4479 0.961 . S
H4495 C4479 0.960 . S
C4496 C4497 1.391 . S
C4496 C4498 1.394 . S
C4496 H4512 0.931 . S
C4497 C4496 1.391 . S
C4497 C4501 1.376 . S
C4498 C4496 1.394 . S
C4498 C4499 1.369 . S
C4498 C4502 1.531 . S
C4499 C4498 1.369 . S
C4499 C4500 1.410 . S
C4499 C4507 1.503 . S
C4500 C4499 1.410 . S
C4500 C4501 1.392 . S
C4500 C4503 1.511 . S
C4501 C4497 1.376 . S
C4501 C4500 1.392 . S
C4501 H4513 0.929 . S
C4502 C4498 1.531 . S
C4502 H4514 0.960 . S
C4502 H4515 0.962 . S
C4502 H4516 0.960 . S
C4503 C4500 1.511 . S
C4503 H4517 0.961 . S
C4503 H4518 0.961 . S
C4503 H4519 0.961 . S
C4504 C4505 1.370 . S
C4504 C4506 1.363 . S
C4504 H4520 0.931 . S
C4505 C4504 1.370 . S
C4505 C4509 1.408 . S
C4506 C4504 1.363 . S
C4506 C4507 1.370 . S
C4506 C4510 1.524 . S
C4507 C4499 1.503 . S
C4507 C4506 1.370 . S
C4507 C4508 1.403 . S
C4508 C4507 1.403 . S
C4508 C4509 1.404 . S
C4508 C4511 1.539 . S
C4509 C4505 1.408 . S
C4509 C4508 1.404 . S
C4509 H4521 0.930 . S
C4510 C4506 1.524 . S
C4510 H4522 0.956 . S
C4510 H4523 0.961 . S
C4510 H4524 0.961 . S
C4511 C4508 1.539 . S
C4511 H4525 0.958 . S
C4511 H4526 0.961 . S
C4511 H4527 0.960 . S
H4512 C4496 0.931 . S
H4513 C4501 0.929 . S
H4514 C4502 0.960 . S
H4515 C4502 0.962 . S
H4516 C4502 0.960 . S
H4517 C4503 0.961 . S
H4518 C4503 0.961 . S
H4519 C4503 0.961 . S
H4520 C4504 0.931 . S
H4521 C4509 0.930 . S
H4522 C4510 0.956 . S
H4523 C4510 0.961 . S
H4524 C4510 0.961 . S
H4525 C4511 0.958 . S
H4526 C4511 0.961 . S
H4527 C4511 0.960 . S
C4528 C4529 1.391 . S
C4528 C4530 1.394 . S
C4528 H4544 0.931 . S
C4529 C4528 1.391 . S
C4529 C4533 1.376 . S
C4530 C4528 1.394 . S
C4530 C4531 1.369 . S
C4530 C4534 1.531 . S
C4531 C4530 1.369 . S
C4531 C4532 1.410 . S
C4531 C4539 1.503 . S
C4532 C4531 1.410 . S
C4532 C4533 1.392 . S
C4532 C4535 1.511 . S
C4533 C4529 1.376 . S
C4533 C4532 1.392 . S
C4533 H4545 0.929 . S
C4534 C4530 1.531 . S
C4534 H4546 0.960 . S
C4534 H4547 0.962 . S
C4534 H4548 0.960 . S
C4535 C4532 1.511 . S
C4535 H4549 0.961 . S
C4535 H4550 0.961 . S
C4535 H4551 0.961 . S
C4536 C4537 1.370 . S
C4536 C4538 1.363 . S
C4536 H4552 0.931 . S
C4537 C4536 1.370 . S
C4537 C4541 1.408 . S
C4538 C4536 1.363 . S
C4538 C4539 1.370 . S
C4538 C4542 1.524 . S
C4539 C4531 1.503 . S
C4539 C4538 1.370 . S
C4539 C4540 1.403 . S
C4540 C4539 1.403 . S
C4540 C4541 1.404 . S
C4540 C4543 1.539 . S
C4541 C4537 1.408 . S
C4541 C4540 1.404 . S
C4541 H4553 0.930 . S
C4542 C4538 1.524 . S
C4542 H4554 0.956 . S
C4542 H4555 0.961 . S
C4542 H4556 0.961 . S
C4543 C4540 1.539 . S
C4543 H4557 0.958 . S
C4543 H4558 0.961 . S
C4543 H4559 0.960 . S
H4544 C4528 0.931 . S
H4545 C4533 0.929 . S
H4546 C4534 0.960 . S
H4547 C4534 0.962 . S
H4548 C4534 0.960 . S
H4549 C4535 0.961 . S
H4550 C4535 0.961 . S
H4551 C4535 0.961 . S
H4552 C4536 0.931 . S
H4553 C4541 0.930 . S
H4554 C4542 0.956 . S
H4555 C4542 0.961 . S
H4556 C4542 0.961 . S
H4557 C4543 0.958 . S
H4558 C4543 0.961 . S
H4559 C4543 0.960 . S
C4560 C4561 1.391 . S
C4560 C4562 1.394 . S
C4560 H4576 0.931 . S
C4561 C4560 1.391 . S
C4561 C4565 1.376 . S
C4562 C4560 1.394 . S
C4562 C4563 1.369 . S
C4562 C4566 1.531 . S
C4563 C4562 1.369 . S
C4563 C4564 1.410 . S
C4563 C4571 1.503 . S
C4564 C4563 1.410 . S
C4564 C4565 1.392 . S
C4564 C4567 1.511 . S
C4565 C4561 1.376 . S
C4565 C4564 1.392 . S
C4565 H4577 0.929 . S
C4566 C4562 1.531 . S
C4566 H4578 0.960 . S
C4566 H4579 0.962 . S
C4566 H4580 0.960 . S
C4567 C4564 1.511 . S
C4567 H4581 0.961 . S
C4567 H4582 0.961 . S
C4567 H4583 0.961 . S
C4568 C4569 1.370 . S
C4568 C4570 1.363 . S
C4568 H4584 0.931 . S
C4569 C4568 1.370 . S
C4569 C4573 1.408 . S
C4570 C4568 1.363 . S
C4570 C4571 1.370 . S
C4570 C4574 1.524 . S
C4571 C4563 1.503 . S
C4571 C4570 1.370 . S
C4571 C4572 1.403 . S
C4572 C4571 1.403 . S
C4572 C4573 1.404 . S
C4572 C4575 1.539 . S
C4573 C4569 1.408 . S
C4573 C4572 1.404 . S
C4573 H4585 0.930 . S
C4574 C4570 1.524 . S
C4574 H4586 0.956 . S
C4574 H4587 0.961 . S
C4574 H4588 0.961 . S
C4575 C4572 1.539 . S
C4575 H4589 0.958 . S
C4575 H4590 0.961 . S
C4575 H4591 0.960 . S
H4576 C4560 0.931 . S
H4577 C4565 0.929 . S
H4578 C4566 0.960 . S
H4579 C4566 0.962 . S
H4580 C4566 0.960 . S
H4581 C4567 0.961 . S
H4582 C4567 0.961 . S
H4583 C4567 0.961 . S
H4584 C4568 0.931 . S
H4585 C4573 0.930 . S
H4586 C4574 0.956 . S
H4587 C4574 0.961 . S
H4588 C4574 0.961 . S
H4589 C4575 0.958 . S
H4590 C4575 0.961 . S
H4591 C4575 0.960 . S
C4592 C4593 1.391 . S
C4592 C4594 1.394 . S
C4592 H4608 0.931 . S
C4593 C4592 1.391 . S
C4593 C4597 1.376 . S
C4594 C4592 1.394 . S
C4594 C4595 1.369 . S
C4594 C4598 1.531 . S
C4595 C4594 1.369 . S
C4595 C4596 1.410 . S
C4595 C4603 1.503 . S
C4596 C4595 1.410 . S
C4596 C4597 1.392 . S
C4596 C4599 1.511 . S
C4597 C4593 1.376 . S
C4597 C4596 1.392 . S
C4597 H4609 0.929 . S
C4598 C4594 1.531 . S
C4598 H4610 0.960 . S
C4598 H4611 0.962 . S
C4598 H4612 0.960 . S
C4599 C4596 1.511 . S
C4599 H4613 0.961 . S
C4599 H4614 0.961 . S
C4599 H4615 0.961 . S
C4600 C4601 1.370 . S
C4600 C4602 1.363 . S
C4600 H4616 0.931 . S
C4601 C4600 1.370 . S
C4601 C4605 1.408 . S
C4602 C4600 1.363 . S
C4602 C4603 1.370 . S
C4602 C4606 1.524 . S
C4603 C4595 1.503 . S
C4603 C4602 1.370 . S
C4603 C4604 1.403 . S
C4604 C4603 1.403 . S
C4604 C4605 1.404 . S
C4604 C4607 1.539 . S
C4605 C4601 1.408 . S
C4605 C4604 1.404 . S
C4605 H4617 0.930 . S
C4606 C4602 1.524 . S
C4606 H4618 0.956 . S
C4606 H4619 0.961 . S
C4606 H4620 0.961 . S
C4607 C4604 1.539 . S
C4607 H4621 0.958 . S
C4607 H4622 0.961 . S
C4607 H4623 0.960 . S
H4608 C4592 0.931 . S
H4609 C4597 0.929 . S
H4610 C4598 0.960 . S
H4611 C4598 0.962 . S
H4612 C4598 0.960 . S
H4613 C4599 0.961 . S
H4614 C4599 0.961 . S
H4615 C4599 0.961 . S
H4616 C4600 0.931 . S
H4617 C4605 0.930 . S
H4618 C4606 0.956 . S
H4619 C4606 0.961 . S
H4620 C4606 0.961 . S
H4621 C4607 0.958 . S
H4622 C4607 0.961 . S
H4623 C4607 0.960 . S
C4624 C4625 1.391 . S
C4624 C4626 1.394 . S
C4624 H4640 0.931 . S
C4625 C4624 1.391 . S
C4625 C4629 1.376 . S
C4626 C4624 1.394 . S
C4626 C4627 1.369 . S
C4626 C4630 1.531 . S
C4627 C4626 1.369 . S
C4627 C4628 1.410 . S
C4627 C4635 1.503 . S
C4628 C4627 1.410 . S
C4628 C4629 1.392 . S
C4628 C4631 1.511 . S
C4629 C4625 1.376 . S
C4629 C4628 1.392 . S
C4629 H4641 0.929 . S
C4630 C4626 1.531 . S
C4630 H4642 0.960 . S
C4630 H4643 0.962 . S
C4630 H4644 0.960 . S
C4631 C4628 1.511 . S
C4631 H4645 0.961 . S
C4631 H4646 0.961 . S
C4631 H4647 0.961 . S
C4632 C4633 1.370 . S
C4632 C4634 1.363 . S
C4632 H4648 0.931 . S
C4633 C4632 1.370 . S
C4633 C4637 1.408 . S
C4634 C4632 1.363 . S
C4634 C4635 1.370 . S
C4634 C4638 1.524 . S
C4635 C4627 1.503 . S
C4635 C4634 1.370 . S
C4635 C4636 1.403 . S
C4636 C4635 1.403 . S
C4636 C4637 1.404 . S
C4636 C4639 1.539 . S
C4637 C4633 1.408 . S
C4637 C4636 1.404 . S
C4637 H4649 0.930 . S
C4638 C4634 1.524 . S
C4638 H4650 0.956 . S
C4638 H4651 0.961 . S
C4638 H4652 0.961 . S
C4639 C4636 1.539 . S
C4639 H4653 0.958 . S
C4639 H4654 0.961 . S
C4639 H4655 0.960 . S
H4640 C4624 0.931 . S
H4641 C4629 0.929 . S
H4642 C4630 0.960 . S
H4643 C4630 0.962 . S
H4644 C4630 0.960 . S
H4645 C4631 0.961 . S
H4646 C4631 0.961 . S
H4647 C4631 0.961 . S
H4648 C4632 0.931 . S
H4649 C4637 0.930 . S
H4650 C4638 0.956 . S
H4651 C4638 0.961 . S
H4652 C4638 0.961 . S
H4653 C4639 0.958 . S
H4654 C4639 0.961 . S
H4655 C4639 0.960 . S
C4656 C4657 1.391 . S
C4656 C4658 1.394 . S
C4656 H4672 0.931 . S
C4657 C4656 1.391 . S
C4657 C4661 1.376 . S
C4658 C4656 1.394 . S
C4658 C4659 1.369 . S
C4658 C4662 1.531 1_655 S
C4659 C4658 1.369 . S
C4659 C4660 1.410 . S
C4659 C4667 1.503 . S
C4660 C4659 1.410 . S
C4660 C4661 1.392 . S
C4660 C4663 1.511 . S
C4661 C4657 1.376 . S
C4661 C4660 1.392 . S
C4661 H4673 0.929 . S
C4662 C4658 1.531 1_455 S
C4662 H4674 0.960 . S
C4662 H4675 0.962 1_455 S
C4662 H4676 0.960 . S
C4663 C4660 1.511 . S
C4663 H4677 0.961 . S
C4663 H4678 0.961 . S
C4663 H4679 0.961 . S
C4664 C4665 1.370 . S
C4664 C4666 1.363 . S
C4664 H4680 0.931 . S
C4665 C4664 1.370 . S
C4665 C4669 1.408 1_655 S
C4666 C4664 1.363 . S
C4666 C4667 1.370 . S
C4666 C4670 1.524 . S
C4667 C4659 1.503 . S
C4667 C4666 1.370 . S
C4667 C4668 1.403 1_655 S
C4668 C4667 1.403 1_455 S
C4668 C4669 1.404 . S
C4668 C4671 1.539 . S
C4669 C4665 1.408 1_455 S
C4669 C4668 1.404 . S
C4669 H4681 0.930 . S
C4670 C4666 1.524 . S
C4670 H4682 0.956 . S
C4670 H4683 0.961 . S
C4670 H4684 0.961 . S
C4671 C4668 1.539 . S
C4671 H4685 0.958 . S
C4671 H4686 0.961 . S
C4671 H4687 0.960 . S
H4672 C4656 0.931 . S
H4673 C4661 0.929 . S
H4674 C4662 0.960 . S
H4675 C4662 0.962 1_655 S
H4676 C4662 0.960 . S
H4677 C4663 0.961 . S
H4678 C4663 0.961 . S
H4679 C4663 0.961 . S
H4680 C4664 0.931 . S
H4681 C4669 0.930 . S
H4682 C4670 0.956 . S
H4683 C4670 0.961 . S
H4684 C4670 0.961 . S
H4685 C4671 0.958 . S
H4686 C4671 0.961 . S
H4687 C4671 0.960 . S
C4688 C4689 1.391 . S
C4688 C4690 1.394 . S
C4688 H4704 0.931 . S
C4689 C4688 1.391 . S
C4689 C4693 1.376 . S
C4690 C4688 1.394 . S
C4690 C4691 1.369 . S
C4690 C4694 1.531 . S
C4691 C4690 1.369 . S
C4691 C4692 1.410 . S
C4691 C4699 1.503 . S
C4692 C4691 1.410 . S
C4692 C4693 1.392 . S
C4692 C4695 1.511 . S
C4693 C4689 1.376 . S
C4693 C4692 1.392 . S
C4693 H4705 0.929 . S
C4694 C4690 1.531 . S
C4694 H4706 0.960 . S
C4694 H4707 0.962 . S
C4694 H4708 0.960 . S
C4695 C4692 1.511 . S
C4695 H4709 0.961 . S
C4695 H4710 0.961 . S
C4695 H4711 0.961 . S
C4696 C4697 1.370 . S
C4696 C4698 1.363 . S
C4696 H4712 0.931 . S
C4697 C4696 1.370 . S
C4697 C4701 1.408 . S
C4698 C4696 1.363 . S
C4698 C4699 1.370 . S
C4698 C4702 1.524 . S
C4699 C4691 1.503 . S
C4699 C4698 1.370 . S
C4699 C4700 1.403 . S
C4700 C4699 1.403 . S
C4700 C4701 1.404 . S
C4700 C4703 1.539 . S
C4701 C4697 1.408 . S
C4701 C4700 1.404 . S
C4701 H4713 0.930 . S
C4702 C4698 1.524 . S
C4702 H4714 0.956 . S
C4702 H4715 0.961 . S
C4702 H4716 0.961 . S
C4703 C4700 1.539 . S
C4703 H4717 0.958 . S
C4703 H4718 0.961 . S
C4703 H4719 0.960 . S
H4704 C4688 0.931 . S
H4705 C4693 0.929 . S
H4706 C4694 0.960 . S
H4707 C4694 0.962 . S
H4708 C4694 0.960 . S
H4709 C4695 0.961 . S
H4710 C4695 0.961 . S
H4711 C4695 0.961 . S
H4712 C4696 0.931 . S
H4713 C4701 0.930 . S
H4714 C4702 0.956 . S
H4715 C4702 0.961 . S
H4716 C4702 0.961 . S
H4717 C4703 0.958 . S
H4718 C4703 0.961 . S
H4719 C4703 0.960 . S
C4720 C4721 1.391 . S
C4720 C4722 1.394 . S
C4720 H4736 0.931 . S
C4721 C4720 1.391 . S
C4721 C4725 1.376 . S
C4722 C4720 1.394 . S
C4722 C4723 1.369 . S
C4722 C4726 1.531 . S
C4723 C4722 1.369 . S
C4723 C4724 1.410 . S
C4723 C4731 1.503 . S
C4724 C4723 1.410 . S
C4724 C4725 1.392 . S
C4724 C4727 1.511 1_545 S
C4725 C4721 1.376 . S
C4725 C4724 1.392 . S
C4725 H4737 0.929 1_545 S
C4726 C4722 1.531 . S
C4726 H4738 0.960 . S
C4726 H4739 0.962 . S
C4726 H4740 0.960 . S
C4727 C4724 1.511 1_565 S
C4727 H4741 0.961 . S
C4727 H4742 0.961 . S
C4727 H4743 0.961 . S
C4728 C4729 1.370 1_565 S
C4728 C4730 1.351 . S
C4728 H4744 0.931 . S
C4729 C4728 1.370 1_545 S
C4729 C4733 1.408 . S
C4730 C4728 1.351 . S
C4730 C4731 1.350 1_565 S
C4730 C4734 1.558 . S
C4731 C4723 1.503 . S
C4731 C4730 1.350 1_545 S
C4731 C4732 1.403 . S
C4732 C4731 1.403 . S
C4732 C4733 1.404 . S
C4732 C4735 1.539 . S
C4733 C4729 1.408 . S
C4733 C4732 1.404 . S
C4733 H4745 0.930 . S
C4734 C4730 1.558 . S
C4734 H4746 0.984 . S
C4734 H4747 0.961 . S
C4734 H4748 0.961 . S
C4735 C4732 1.539 . S
C4735 H4749 0.958 . S
C4735 H4750 0.961 . S
C4735 H4751 0.960 . S
H4736 C4720 0.931 . S
H4737 C4725 0.929 1_565 S
H4738 C4726 0.960 . S
H4739 C4726 0.962 . S
H4740 C4726 0.960 . S
H4741 C4727 0.961 . S
H4742 C4727 0.961 . S
H4743 C4727 0.961 . S
H4744 C4728 0.931 . S
H4745 C4733 0.930 . S
H4746 C4734 0.984 . S
H4747 C4734 0.961 . S
H4748 C4734 0.961 . S
H4749 C4735 0.958 . S
H4750 C4735 0.961 . S
H4751 C4735 0.960 . S
C2449 C49 1.618 . S
C2457 C2061 1.623 . S
C2481 C137 1.613 . S
C2489 C2109 1.647 . S
C2521 C2157 1.647 . S
C2513 C205 1.631 . S
C2545 C196 1.595 . S
C2553 C2181 1.644 . S
C2577 C57 1.624 . S
C2585 C2253 1.650 . S
C2609 C145 1.625 . S
C2617 C2301 1.648 . S
C2641 C313 1.576 . S
C2649 C2229 1.641 . S
C2681 C2277 1.653 . S
C2673 C401 1.648 . S
C2713 C2205 1.657 . S
C2705 C489 1.588 . S
C2737 C469 1.576 . S
C2745 C2133 1.640 . S
C2777 C2037 1.655 . S
C2769 C293 1.630 . S
C2801 C381 1.648 . S
C2809 C2085 1.653 . S
C2833 C577 1.681 . S
C2841 C2349 1.708 . S
C2865 C645 1.672 . S
C2873 C2397 1.685 . S
C2905 C2421 1.652 . S
C2897 C733 1.646 . S
C2929 C724 1.636 . S
C2937 C1605 1.633 . S
C2961 C585 1.670 . S
C2969 C1677 1.693 . S
C2993 C636 1.684 . S
C3001 C1725 1.697 . S
C3025 C841 1.608 . S
C3033 C1653 1.634 . S
C3057 C937 1.685 . S
C3065 C1701 1.702 . S
C3097 C1629 1.668 . S
C3089 C1025 1.680 . S
C3129 C2445 1.695 . S
C3121 C988 1.709 . S
C3161 C2325 1.650 . S
C3153 C821 1.631 . S
C3193 C2373 1.685 . S
C3185 C900 1.675 . S
C3217 C1105 1.606 . S
C3225 C1773 1.636 . S
C3249 C1193 1.691 . S
C3257 C1821 1.698 . S
C3281 C1281 1.666 . S
C3289 C1845 1.684 . S
C3313 C1289 1.701 . S
C3321 C1893 1.701 . S
C3353 C1965 1.651 . S
C3345 C1113 1.630 . S
C3385 C2013 1.684 . S
C3377 C1201 1.671 . S
C3417 C1941 1.713 . S
C3409 C1369 1.689 . S
C3449 C1989 1.687 . S
C3441 C1457 1.674 . S
C3473 C1553 1.629 . S
C3481 C1917 1.620 . S
C3513 C1869 1.609 . S
C3505 C1516 1.619 . S
C3537 C1349 1.694 . S
C3545 C1749 1.698 . S
C3577 C1797 1.706 . S
C3569 C1437 1.703 . S
C3609 C1614 1.540 . S
C3601 C29 1.525 . S
C3633 C117 1.444 . S
C3641 C1668 1.399 . S
C3673 C1716 1.544 . S
C3665 C225 1.531 . S
C3705 C1764 1.504 . S
C3697 C233 1.511 . S
C3737 C1812 1.525 . S
C3729 C20 1.558 . S
C3769 C1854 1.431 . S
C3761 C108 1.440 . S
C3793 C321 1.534 . S
C3801 C1860 1.534 . S
C3825 C409 1.436 . S
C3833 C1758 1.400 . S
C3857 C497 1.574 . S
C3865 C1806 1.510 . S
C3889 C460 1.540 . S
C3897 C1662 1.504 . S
C3929 C1710 1.507 . S
C3921 C284 1.575 . S
C3953 C372 1.427 . S
C3961 C1620 1.419 . S
C3993 C1902 1.439 . S
C3985 C557 1.453 . S
C4017 C665 1.546 . S
C4025 C1956 1.500 . S
C4049 C753 1.543 . S
C4057 C2004 1.510 . S
C4089 C2052 1.168 . S
C4081 C761 1.169 . S
C4113 C548 1.418 . S
C4121 C2100 1.412 . S
C4145 C673 1.163 . S
C4153 C2148 1.160 . S
C4177 C849 1.169 . S
C4185 C2142 1.150 . S
C4209 C929 1.170 . S
C4217 C2046 1.166 . S
C4249 C2094 1.391 . S
C4241 C1017 1.440 . S
C4273 C997 1.434 . S
C4281 C1950 1.400 . S
C4305 C812 1.542 . S
C4313 C1998 1.476 . S
C4345 C1908 1.535 . S
C4337 C909 1.536 . S
C4377 C2190 1.166 . S
C4369 C1085 1.158 . S
C4401 C1173 1.158 . S
C4409 C2244 1.163 . S
C4433 C1261 1.426 . S
C4441 C2292 1.398 . S
C4473 C2340 1.419 . S
C4465 C1252 1.442 . S
C4505 C2388 1.514 . S
C4497 C1076 1.521 . S
C4529 C1164 1.544 . S
C4537 C2430 1.531 . S
C4561 C1377 1.435 . S
C4569 C2436 1.448 . S
C4593 C1465 1.540 . S
C4601 C2334 1.502 . S
C4633 C2382 1.482 . S
C4625 C1545 1.528 . S
C4665 C2238 1.161 . S
C4657 C1525 1.150 . S
C4697 C2286 1.400 . S
C4689 C1340 1.437 . S
C4721 C1428 1.184 . S
C4729 C2196 1.184 . S
