# Generated by pormake.
# Topology zzz, (3,6)-cn, num edge types: 1
# Building blocks:
#     Node 0, Type 0, BuildingBlock: CUQRIR_clean_linker_1, # of connection points: 3
#     Node 1, Type 0, BuildingBlock: CUQRIR_clean_linker_1, # of connection points: 3
#     Node 2, Type 0, BuildingBlock: CUQRIR_clean_linker_1, # of connection points: 3
#     Node 3, Type 0, BuildingBlock: CUQRIR_clean_linker_1, # of connection points: 3
#     Node 4, Type 0, BuildingBlock: CUQRIR_clean_linker_1, # of connection points: 3
#     Node 5, Type 0, BuildingBlock: CUQRIR_clean_linker_1, # of connection points: 3
#     Node 6, Type 0, BuildingBlock: CUQRIR_clean_linker_1, # of connection points: 3
#     Node 7, Type 0, BuildingBlock: CUQRIR_clean_linker_1, # of connection points: 3
#     Node 8, Type 1, BuildingBlock: KUMBOL_clean_sbu_1, # of connection points: 6
#     Node 9, Type 1, BuildingBlock: KUMBOL_clean_sbu_1, # of connection points: 6
#     Node 10, Type 1, BuildingBlock: KUMBOL_clean_sbu_1, # of connection points: 6
#     Node 11, Type 1, BuildingBlock: KUMBOL_clean_sbu_1, # of connection points: 6
#     Edge 12, Type (0, 1), BuildingBlock: ZUJKAS_clean_linker_0, # of connection points: 2
#     Edge 13, Type (0, 1), BuildingBlock: ZUJKAS_clean_linker_0, # of connection points: 2
#     Edge 14, Type (0, 1), BuildingBlock: ZUJKAS_clean_linker_0, # of connection points: 2
#     Edge 15, Type (0, 1), BuildingBlock: ZUJKAS_clean_linker_0, # of connection points: 2
#     Edge 16, Type (0, 1), BuildingBlock: ZUJKAS_clean_linker_0, # of connection points: 2
#     Edge 17, Type (0, 1), BuildingBlock: ZUJKAS_clean_linker_0, # of connection points: 2
#     Edge 18, Type (0, 1), BuildingBlock: ZUJKAS_clean_linker_0, # of connection points: 2
#     Edge 19, Type (0, 1), BuildingBlock: ZUJKAS_clean_linker_0, # of connection points: 2
#     Edge 20, Type (0, 1), BuildingBlock: ZUJKAS_clean_linker_0, # of connection points: 2
#     Edge 21, Type (0, 1), BuildingBlock: ZUJKAS_clean_linker_0, # of connection points: 2
#     Edge 22, Type (0, 1), BuildingBlock: ZUJKAS_clean_linker_0, # of connection points: 2
#     Edge 23, Type (0, 1), BuildingBlock: ZUJKAS_clean_linker_0, # of connection points: 2
#     Edge 24, Type (0, 1), BuildingBlock: ZUJKAS_clean_linker_0, # of connection points: 2
#     Edge 25, Type (0, 1), BuildingBlock: ZUJKAS_clean_linker_0, # of connection points: 2
#     Edge 26, Type (0, 1), BuildingBlock: ZUJKAS_clean_linker_0, # of connection points: 2
#     Edge 27, Type (0, 1), BuildingBlock: ZUJKAS_clean_linker_0, # of connection points: 2
#     Edge 28, Type (0, 1), BuildingBlock: ZUJKAS_clean_linker_0, # of connection points: 2
#     Edge 29, Type (0, 1), BuildingBlock: ZUJKAS_clean_linker_0, # of connection points: 2
#     Edge 30, Type (0, 1), BuildingBlock: ZUJKAS_clean_linker_0, # of connection points: 2
#     Edge 31, Type (0, 1), BuildingBlock: ZUJKAS_clean_linker_0, # of connection points: 2
#     Edge 32, Type (0, 1), BuildingBlock: ZUJKAS_clean_linker_0, # of connection points: 2
#     Edge 33, Type (0, 1), BuildingBlock: ZUJKAS_clean_linker_0, # of connection points: 2
#     Edge 34, Type (0, 1), BuildingBlock: ZUJKAS_clean_linker_0, # of connection points: 2
#     Edge 35, Type (0, 1), BuildingBlock: ZUJKAS_clean_linker_0, # of connection points: 2
# Relax obj value: 0.170
# Max RMSD: 0.097
# Mean RMSD: 0.085
data_MOF--net-zzz--node1-KUMBOL_clean_sbu_1--node2-CUQRIR_clean_linker_1--edge1-ZUJKAS_clean_linker_0
_symmetry_space_group_name_H-M    P1
_symmetry_Int_Tables_number       1
_symmetry_cell_setting            triclinic
loop_
_symmetry_equiv_pos_as_xyz
'x, y, z'
_cell_length_a     61.589171
_cell_length_b     61.467396
_cell_length_c     18.620354
_cell_angle_alpha  89.983333
_cell_angle_beta   90.214002
_cell_angle_gamma 90.436682
loop_
_atom_site_label
_atom_site_type_symbol
_atom_site_fract_x
_atom_site_fract_y
_atom_site_fract_z
_atom_type_partial_charge
C0 C 0.75687 0.55064 0.26395 0.0
N1 N 0.77798 0.55747 0.26342 0.0
N2 N 0.74615 0.55767 0.20413 0.0
C3 C 0.74668 0.53736 0.32249 0.0
C4 C 0.7616 0.56863 0.16696 0.0
N5 N 0.78074 0.56866 0.20294 0.0
C6 C 0.75858 0.57723 0.09174 0.0
H7 H 0.74916 0.51987 0.31065 0.0
H8 H 0.72896 0.54039 0.32521 0.0
H9 H 0.7544 0.54111 0.37505 0.0
H10 H 0.75593 0.59505 0.09436 0.0
H11 H 0.74442 0.56958 0.0645 0.0
H12 H 0.77325 0.5743 0.05884 0.0
C13 C 1.0116 0.75713 0.26488 0.0
N14 N 1.00254 0.77699 0.27587 0.0
N15 N 1.00141 0.7464 0.20995 0.0
C16 C 0.03003 0.74809 0.30806 0.0
C17 C 0.98612 0.76068 0.18751 0.0
N18 N 0.98673 0.77902 0.22757 0.0
C19 C 0.97215 0.75761 0.12164 0.0
H20 H 0.04557 0.75314 0.28285 0.0
H21 H 0.02928 0.73005 0.30903 0.0
H22 H 0.02975 0.75453 0.36372 0.0
H23 H 0.95689 0.74922 0.13738 0.0
H24 H 0.98048 0.74747 0.08106 0.0
H25 H 0.96787 0.77342 0.09683 0.0
C26 C 0.78927 1.013 0.26058 0.0
N27 N 0.76811 1.00636 0.26247 0.0
N28 N 0.79899 1.00629 0.19888 0.0
C29 C 0.80063 0.02536 0.31924 0.0
C30 C 0.78299 0.99558 0.16321 0.0
N31 N 0.76441 0.9956 0.20155 0.0
C32 C 0.78518 0.9863 0.08881 0.0
H33 H 0.79828 0.04303 0.31023 0.0
H34 H 0.81832 0.02204 0.31877 0.0
H35 H 0.79376 0.02105 0.37242 0.0
H36 H 0.79823 0.9947 0.05836 0.0
H37 H 0.76969 0.9876 0.05856 0.0
H38 H 0.78936 0.96882 0.09322 0.0
C39 C 0.5481 0.79684 0.27473 0.0
N40 N 0.55458 0.77564 0.27399 0.0
N41 N 0.55522 0.80761 0.21502 0.0
C42 C 0.53534 0.80716 0.33381 0.0
C43 C 0.56593 0.79215 0.17781 0.0
N44 N 0.56568 0.77298 0.21348 0.0
C45 C 0.5748 0.79525 0.10309 0.0
H46 H 0.51777 0.80476 0.32268 0.0
H47 H 0.53872 0.8249 0.33642 0.0
H48 H 0.53919 0.79948 0.38623 0.0
H49 H 0.56685 0.80897 0.07493 0.0
H50 H 0.57255 0.7803 0.07042 0.0
H51 H 0.59246 0.79877 0.1069 0.0
C52 C 0.28663 0.51432 0.08525 0.0
N53 N 0.26573 0.5073 0.07834 0.0
N54 N 0.29651 0.50457 0.14235 0.0
C55 C 0.29699 0.53138 0.03893 0.0
C56 C 0.28072 0.49163 0.1701 0.0
N57 N 0.2622 0.4932 0.1312 0.0
C58 C 0.28315 0.47851 0.2378 0.0
H59 H 0.29027 0.53068 0.9836 0.0
H60 H 0.31487 0.52935 0.03767 0.0
H61 H 0.29338 0.54763 0.0617 0.0
H62 H 0.28794 0.48945 0.28264 0.0
H63 H 0.29634 0.46651 0.23086 0.0
H64 H 0.268 0.46967 0.25192 0.0
C65 C 0.04458 0.29813 0.04318 0.0
N66 N 0.05465 0.27852 0.04034 0.0
N67 N 0.05629 0.31262 0.08326 0.0
C68 C 0.02264 0.30259 1.01164 0.0
C69 C 0.07374 0.301 0.10461 0.0
N70 N 0.07264 0.28027 0.0799 0.0
C71 C 0.09117 0.30967 0.15413 0.0
H72 H 0.01983 0.32035 1.00699 0.0
H73 H 1.01005 0.2954 0.04709 0.0
H74 H 0.02109 0.29481 0.95808 0.0
H75 H 0.08419 0.31234 0.20826 0.0
H76 H 0.09719 0.3256 0.13424 0.0
H77 H 0.1051 0.2984 0.15817 0.0
C78 C 0.25727 0.0409 0.08874 0.0
N79 N 0.27785 0.04866 0.08038 0.0
N80 N 0.24786 0.04974 0.148 0.0
C81 C 0.24638 0.02492 0.03937 0.0
C82 C 0.26363 0.06279 0.17569 0.0
N83 N 0.28164 0.06222 0.13457 0.0
C84 C 0.26195 0.07467 0.24605 0.0
H85 H 0.22851 0.02714 0.03972 0.0
H86 H 0.24997 1.00821 0.05825 0.0
H87 H 0.25266 0.02671 0.98387 0.0
H88 H 0.25334 0.06443 0.28613 0.0
H89 H 0.2523 0.08964 0.23781 0.0
H90 H 0.27813 0.07941 0.26746 0.0
C91 C 0.50794 0.26253 0.09666 0.0
N92 N 0.49821 0.28238 0.09369 0.0
N93 N 0.49916 0.25 0.1498 0.0
C94 C 0.5258 0.25535 0.04787 0.0
C95 C 0.48406 0.2631 0.17952 0.0
N96 N 0.48332 0.28253 0.14525 0.0
C97 C 0.47195 0.25793 0.24782 0.0
H98 H 0.52573 0.23737 0.04229 0.0
H99 H 0.54161 0.26047 0.07139 0.0
H100 H 0.52415 0.26307 0.99427 0.0
H101 H 0.47978 0.2447 0.27874 0.0
H102 H 0.45515 0.25278 0.23391 0.0
H103 H 0.47099 0.27247 0.28289 0.0
C104 C 0.08334 0.04412 0.81966 0.0
C105 C 0.06855 0.06984 0.90525 0.0
C106 C 0.06563 0.05278 0.85547 0.0
C107 C 0.08948 0.07828 0.91776 0.0
C108 C 0.1044 0.05243 0.83255 0.0
C109 C 0.10735 0.06961 0.88148 0.0
N110 N 0.08001 0.02751 0.7726 0.0
C111 C 0.09701 1.01811 0.73793 0.0
C112 C 0.12188 0.04318 0.79597 0.0
C113 C 0.11817 0.02589 0.74869 0.0
Gd114 Gd 1.00483 0.03194 0.5987 0.0
Gd115 Gd 0.04386 1.01632 0.75665 0.0
N116 N 0.04547 0.04477 0.84048 0.0
C117 C 0.05032 0.07792 0.94086 0.0
C118 C 0.0278 0.05179 0.8776 0.0
C119 C 0.0299 0.0687 0.92748 0.0
H120 H 1.01208 0.04455 0.86829 0.0
H121 H 1.01577 0.07457 0.95567 0.0
H122 H 0.04069 1.01544 0.47354 0.0
H123 H 0.09432 1.00437 0.70284 0.0
H124 H 0.04268 0.98834 0.37707 0.0
H125 H 0.05187 0.09108 0.97928 0.0
H126 H 0.09203 0.09147 0.95552 0.0
H127 H 0.95394 0.02871 0.6634 0.0
H128 H 0.1383 0.04913 0.80433 0.0
H129 H 0.13161 0.01847 0.72084 0.0
H130 H 0.97227 0.95456 0.3761 0.0
H131 H 0.1234 0.07625 0.89191 0.0
H132 H 0.92009 0.97874 0.54802 0.0
H133 H 0.92084 1.00683 0.64309 0.0
N134 N 0.97233 1.01229 0.58389 0.0
C135 C 0.97212 0.9973 0.53012 0.0
C136 C 0.95413 1.01603 0.62347 0.0
C137 C 0.93482 0.98809 0.55742 0.0
C138 C 0.9352 1.00387 0.61132 0.0
C139 C 0.95335 0.98472 0.51568 0.0
H140 H 0.93935 0.95946 0.44835 0.0
N141 N 1.00892 1.00626 0.50626 0.0
C142 C 0.99087 0.99429 0.48994 0.0
C143 C 1.01007 0.97657 0.39355 0.0
C144 C 0.99109 0.97889 0.43374 0.0
C145 C 0.02713 1.00468 0.46517 0.0
C146 C 0.02812 0.98961 0.4091 0.0
O147 O 0.0429 0.0525 0.72772 0.0
O148 O 1.00885 0.05874 0.68161 0.0
O149 O 1.01077 0.05156 0.50453 0.0
O150 O 0.97899 0.05167 0.55371 0.0
O151 O 1.00738 1.01112 0.77015 0.0
O152 O 0.99024 0.03812 0.70777 0.0
O153 O 1.00628 0.99615 0.63341 0.0
O154 O 0.04146 0.99075 0.66902 0.0
O155 O 0.02954 0.99731 0.84106 0.0
O156 O 0.06456 0.99459 0.82031 0.0
O157 O 0.04119 0.03904 0.58552 0.0
O158 O 0.05828 1.01157 0.64674 0.0
C159 C 0.02679 0.06574 0.7126 0.0
C160 C 0.99106 0.02458 0.76226 0.0
C161 C 0.99271 0.08508 0.50777 0.0
C162 C 1.01064 0.11851 0.46773 0.0
C163 C 0.98001 0.12013 0.54979 0.0
C164 C 0.97827 0.09747 0.54901 0.0
C165 C 0.99603 0.13063 0.50939 0.0
C166 C 1.00879 0.09574 0.46753 0.0
C167 C 0.99197 0.06108 0.50802 0.0
C168 C 0.97239 0.96642 0.41916 0.0
C169 C 0.95362 0.96925 0.4602 0.0
H170 H 1.01084 0.96506 0.34958 0.0
C171 C 0.02343 0.98354 0.63886 0.0
C172 C 0.05816 0.0264 0.59589 0.0
C173 C 0.04922 0.97305 0.91913 0.0
C174 C 0.03057 0.95196 1.01198 0.0
C175 C 0.0694 0.94746 0.99181 0.0
C176 C 0.06881 0.9629 0.93688 0.0
C177 C 0.05044 0.94182 0.0286 0.0
C178 C 0.03035 0.96792 0.95801 0.0
C179 C 0.04802 0.9887 0.85952 0.0
H180 H 0.96886 0.12959 0.58165 0.0
H181 H 0.96578 0.08971 0.58102 0.0
H182 H 0.99669 0.14824 0.50993 0.0
H183 H 0.0202 0.08615 0.43699 0.0
H184 H 0.08451 0.93948 1.0049 0.0
H185 H 0.08359 0.96672 0.90798 0.0
H186 H 0.05133 0.92904 0.06848 0.0
H187 H 1.01536 0.97622 0.94551 0.0
C188 C 0.5347 0.95972 0.63225 0.0
C189 C 0.50621 0.93809 0.68773 0.0
C190 C 0.51367 0.9578 0.65765 0.0
C191 C 0.52054 0.92055 0.69451 0.0
C192 C 0.54879 0.94175 0.63542 0.0
C193 C 0.5418 0.92238 0.66845 0.0
N194 N 0.54087 0.97864 0.60015 0.0
C195 C 0.55978 0.97958 0.56219 0.0
C196 C 0.56916 0.94352 0.60282 0.0
C197 C 0.57446 0.96235 0.5646 0.0
Gd198 Gd 0.53321 0.04932 0.75905 0.0
Gd199 Gd 0.5157 1.00738 0.60629 0.0
N200 N 0.50035 0.97521 0.6517 0.0
C201 C 0.48448 0.93657 0.70924 0.0
C202 C 0.47893 0.97356 0.66936 0.0
C203 C 0.47071 0.95429 0.69908 0.0
H204 H 0.46831 0.98722 0.66147 0.0
H205 H 0.4538 0.95315 0.71434 0.0
H206 H 0.58785 0.05238 0.76931 0.0
H207 H 0.56342 0.99335 0.52852 0.0
H208 H 0.61717 0.07725 0.73039 0.0
H209 H 0.4781 0.9217 0.73259 0.0
H210 H 0.51521 0.90535 0.71839 0.0
H211 H 0.48896 0.0794 0.77665 0.0
H212 H 0.58046 0.9301 0.60398 0.0
H213 H 0.58968 0.96347 0.5359 0.0
H214 H 0.5796 0.14156 0.6551 0.0
H215 H 0.5525 0.90851 0.6722 0.0
H216 H 0.50308 0.14393 0.70137 0.0
H217 H 0.47708 0.11717 0.75223 0.0
N218 N 0.52099 0.0849 0.73855 0.0
C219 C 0.53583 0.09968 0.71541 0.0
C220 C 0.50033 0.09112 0.75486 0.0
C221 C 0.50832 0.12747 0.71224 0.0
C222 C 0.4936 0.11242 0.74106 0.0
C223 C 0.52985 0.12128 0.7002 0.0
H224 H 0.54137 0.15273 0.66315 0.0
N225 N 0.56248 0.07308 0.73379 0.0
C226 C 0.55726 0.09342 0.71165 0.0
C227 C 0.59521 0.10232 0.69578 0.0
C228 C 0.57344 0.10858 0.69163 0.0
C229 C 0.58371 0.06765 0.74435 0.0
C230 C 0.60037 0.0819 0.72371 0.0
O231 O 0.51414 0.99806 0.72491 0.0
O232 O 0.54443 1.01446 0.76954 0.0
O233 O 0.5482 0.06033 0.85893 0.0
O234 O 0.51543 0.04771 0.85891 0.0
O235 O 0.48695 0.02531 0.65499 0.0
O236 O 0.49906 0.03563 0.76807 0.0
O237 O 0.51486 0.06116 0.65953 0.0
O238 O 0.5289 0.04018 0.57116 0.0
O239 O 0.48954 1.01423 0.53107 0.0
O240 O 0.51376 0.99034 0.50437 0.0
O241 O 0.56095 0.02956 0.7098 0.0
O242 O 0.54886 0.02351 0.59444 0.0
C243 C 0.53077 0.99799 0.76927 0.0
C244 C 0.48328 0.03149 0.72188 0.0
C245 C 0.53605 0.04071 0.96118 0.0
C246 C 0.55637 1.01196 0.0212 0.0
C247 C 0.52631 0.02963 0.08188 0.0
C248 C 0.52294 0.04288 0.02206 0.0
C249 C 0.54299 1.01438 0.08185 0.0
C250 C 0.55235 0.02492 0.96026 0.0
C251 C 0.5317 0.05424 0.89786 0.0
C252 C 0.56744 0.12975 0.6715 0.0
C253 C 0.54567 0.13612 0.67612 0.0
H254 H 0.60814 0.11346 0.68081 0.0
C255 C 0.52123 0.05888 0.59276 0.0
C256 C 0.56483 0.02634 0.64089 0.0
C257 C 0.50369 1.01531 0.41419 0.0
C258 C 0.49138 0.03851 0.31614 0.0
C259 C 0.52992 0.03416 0.33852 0.0
C260 C 0.52534 0.02032 0.39614 0.0
C261 C 0.51304 0.0434 0.299 0.0
C262 C 0.48683 0.02432 0.37355 0.0
C263 C 0.49857 1.00299 0.48011 0.0
H264 H 0.51618 0.03144 0.12888 0.0
H265 H 0.51002 0.05475 0.02313 0.0
H266 H 0.5458 1.00504 0.13024 0.0
H267 H 0.562 0.02293 0.91221 0.0
H268 H 0.54661 0.03805 0.32535 0.0
H269 H 0.53872 1.01401 0.42755 0.0
H270 H 0.51688 0.05434 0.25514 0.0
H271 H 0.47013 0.02101 0.38863 0.0
C272 C 0.48262 0.49983 0.84321 0.0
C273 C 0.50491 0.49669 0.9502 0.0
C274 C 0.50031 0.50677 0.88384 0.0
C275 C 0.4922 0.47892 0.97304 0.0
C276 C 0.46915 0.48276 0.86767 0.0
C277 C 0.47432 0.47202 0.93199 0.0
N278 N 0.47846 0.50996 0.77979 0.0
C279 C 0.46004 0.50533 0.74156 0.0
C280 C 0.45081 0.47709 0.82682 0.0
C281 C 0.44608 0.48863 0.76402 0.0
Gd282 Gd 0.5431 0.51639 0.59793 0.0
Gd283 Gd 0.5027 0.53764 0.74613 0.0
N284 N 0.51218 0.52416 0.86062 0.0
C285 C 0.52166 0.50525 0.99285 0.0
C286 C 0.52702 0.5338 0.90537 0.0
C287 C 0.53244 0.52417 0.97101 0.0
H288 H 0.5345 0.54915 0.89153 0.0
H289 H 0.54466 0.53157 1.00528 0.0
H290 H 0.51769 0.52669 0.44497 0.0
H291 H 0.45642 0.5143 0.69309 0.0
H292 H 0.52287 0.54916 0.3357 0.0
H293 H 0.52572 0.49797 0.04413 0.0
H294 H 0.49569 0.47081 0.0234 0.0
H295 H 0.59253 0.51448 0.67753 0.0
H296 H 0.44005 0.46405 0.84381 0.0
H297 H 0.43173 0.48462 0.73283 0.0
H298 H 0.5917 0.58478 0.37483 0.0
H299 H 0.46439 0.45861 0.95107 0.0
H300 H 0.6333 0.56254 0.57986 0.0
H301 H 0.62722 0.53454 0.67333 0.0
N302 N 0.57786 0.53284 0.59364 0.0
C303 C 0.58141 0.54711 0.53921 0.0
C304 C 0.59442 0.52751 0.63925 0.0
C305 C 0.61773 0.55428 0.58304 0.0
C306 C 0.61435 0.53852 0.63592 0.0
C307 C 0.60138 0.5583 0.53249 0.0
H308 H 0.61985 0.58128 0.46828 0.0
N309 N 0.54703 0.53751 0.49399 0.0
C310 C 0.56561 0.54923 0.48695 0.0
C311 C 0.55351 0.56254 0.37156 0.0
C312 C 0.56925 0.56237 0.42607 0.0
C313 C 0.53203 0.5368 0.43983 0.0
C314 C 0.53495 0.54945 0.37806 0.0
O315 O 0.50352 0.50165 0.71286 0.0
O316 O 0.53946 0.49638 0.69902 0.0
O317 O 0.53253 0.48986 0.53048 0.0
O318 O 0.56666 0.49354 0.55521 0.0
O319 O 0.53827 0.54701 0.76432 0.0
O320 O 0.55538 0.51778 0.71362 0.0
O321 O 0.52896 0.55037 0.58329 0.0
O322 O 0.52554 0.56312 0.6982 0.0
O323 O 0.48743 0.55537 0.83249 0.0
O324 O 0.4765 0.56016 0.7235 0.0
O325 O 0.50701 0.51077 0.57442 0.0
O326 O 0.48899 0.5382 0.6335 0.0
C327 C 0.5206 0.4892 0.72109 0.0
C328 C 0.5552 0.53411 0.75946 0.0
C329 C 0.55141 0.45779 0.55491 0.0
C330 C 0.5316 0.42341 0.56617 0.0
C331 C 0.56716 0.42777 0.62153 0.0
C332 C 0.56843 0.44917 0.59634 0.0
C333 C 0.54895 0.41487 0.60607 0.0
C334 C 0.53318 0.44473 0.53989 0.0
C335 C 0.55148 0.48066 0.53056 0.0
C336 C 0.58868 0.57438 0.42075 0.0
C337 C 0.60469 0.5724 0.47402 0.0
H338 H 0.55572 0.57236 0.32378 0.0
C339 C 0.52843 0.5667 0.62906 0.0
C340 C 0.49016 0.52373 0.58168 0.0
C341 C 0.47767 0.59055 0.79886 0.0
C342 C 0.50061 0.62221 0.82375 0.0
C343 C 0.46143 0.62609 0.80876 0.0
C344 C 0.45928 0.60374 0.79739 0.0
C345 C 0.48186 0.63527 0.82263 0.0
C346 C 0.49824 0.59985 0.81024 0.0
C347 C 0.47561 0.56701 0.78942 0.0
H348 H 0.58034 0.42115 0.65311 0.0
H349 H 0.5826 0.45893 0.60956 0.0
H350 H 0.54843 0.39825 0.62519 0.0
H351 H 0.52019 0.45116 0.50685 0.0
H352 H 0.44718 0.63628 0.80836 0.0
H353 H 0.44332 0.59674 0.78809 0.0
H354 H 0.48274 0.65248 0.83461 0.0
H355 H 0.51234 0.58944 0.80947 0.0
C356 C 0.05488 0.49701 0.82876 0.0
C357 C 0.05105 0.51927 0.93513 0.0
C358 C 0.04397 0.51296 0.86605 0.0
C359 C 0.07007 0.51022 0.96393 0.0
C360 C 0.07329 0.48699 0.85888 0.0
C361 C 0.08118 0.4941 0.92581 0.0
N362 N 0.04667 0.4904 0.76468 0.0
C363 C 0.05477 0.4725 0.73087 0.0
C364 C 0.0827 0.46963 0.82194 0.0
C365 C 0.07317 0.46211 0.75826 0.0
Gd366 Gd 0.03343 0.55227 0.56444 0.0
Gd367 Gd 0.01735 0.51035 0.71839 0.0
N368 N 0.02538 0.52089 0.8373 0.0
C369 C 0.03825 0.53371 0.97442 0.0
C370 C 1.01187 0.53332 0.87798 0.0
C371 C 0.01833 0.54041 0.94626 0.0
H372 H 0.99612 0.53791 0.85757 0.0
H373 H 1.00786 0.55084 0.97734 0.0
H374 H 0.02395 0.5254 0.41276 0.0
H375 H 0.04748 0.46685 0.68128 0.0
H376 H 0.99657 0.52455 0.31502 0.0
H377 H 0.04312 0.539 0.02764 0.0
H378 H 0.07582 0.51498 0.01674 0.0
H379 H 0.02602 0.60103 0.64873 0.0
H380 H 0.09692 0.46153 0.84316 0.0
H381 H 0.08 0.44836 0.73022 0.0
H382 H 0.94668 0.58107 0.37836 0.0
H383 H 0.09539 0.48667 0.94959 0.0
H384 H 0.96539 0.62668 0.57802 0.0
H385 H 0.99757 0.62864 0.65762 0.0
N386 N 1.00879 0.58152 0.57246 0.0
C387 C 0.99223 0.58127 0.52384 0.0
C388 C 1.01148 0.59904 0.61693 0.0
C389 C 0.97752 0.61403 0.57554 0.0
C390 C 0.99561 0.61515 0.62074 0.0
C391 C 0.97599 0.59735 0.52469 0.0
H392 H 0.94651 0.60879 0.47365 0.0
N393 N 1.00825 0.55065 0.46999 0.0
C394 C 0.99225 0.5657 0.47002 0.0
C395 C 0.97763 0.5505 0.36017 0.0
C396 C 0.97618 0.56572 0.41591 0.0
C397 C 1.01044 0.53649 0.41404 0.0
C398 C 0.99504 0.53605 0.35867 0.0
O399 O 0.05218 0.51323 0.67889 0.0
O400 O 0.0579 0.54916 0.65595 0.0
O401 O 0.06149 0.54977 0.49516 0.0
O402 O 0.04548 0.58066 0.50695 0.0
O403 O 1.00854 0.54605 0.73461 0.0
O404 O 0.03606 0.56494 0.67919 0.0
O405 O 1.00299 0.53098 0.5605 0.0
O406 O 0.99121 0.53256 0.67491 0.0
O407 O 0.99884 0.49121 0.79528 0.0
O408 O 0.99574 0.4846 0.68183 0.0
O409 O 0.04277 0.51752 0.53609 0.0
O410 O 0.02183 0.49474 0.60857 0.0
C411 C 0.06428 0.53075 0.68495 0.0
C412 C 0.022 0.5628 0.73203 0.0
C413 C 0.05694 0.57073 0.38996 0.0
C414 C 0.06537 0.55596 0.27179 0.0
C415 C 0.04168 0.5871 0.28207 0.0
C416 C 0.04386 0.58655 0.35688 0.0
C417 C 0.05252 0.57197 0.23946 0.0
C418 C 0.06756 0.55548 0.34674 0.0
C419 C 0.05895 0.56925 0.46908 0.0
C420 C 0.95939 0.58101 0.41876 0.0
C421 C 0.95926 0.59675 0.47318 0.0
H422 H 0.96563 0.55003 0.31751 0.0
C423 C 0.98691 0.53271 0.60599 0.0
C424 C 0.03365 0.49845 0.55055 0.0
C425 C 0.96373 0.4844 0.74811 0.0
C426 C 0.93262 0.50641 0.78074 0.0
C427 C 0.92808 0.47605 0.69871 0.0
C428 C 0.95021 0.47146 0.70449 0.0
C429 C 0.9193 0.49356 0.73626 0.0
C430 C 0.95475 0.50176 0.78666 0.0
C431 C 0.98742 0.48169 0.74517 0.0
H432 H 0.03163 0.59935 0.25703 0.0
H433 H 0.03523 0.59843 0.38863 0.0
H434 H 0.05092 0.57274 0.18155 0.0
H435 H 0.07789 0.54332 0.37133 0.0
H436 H 0.91775 0.46617 0.66446 0.0
H437 H 0.95689 0.45822 0.67339 0.0
H438 H 0.90212 0.49693 0.73135 0.0
H439 H 0.96502 0.51218 0.81951 0.0
H440 H 0.23236 1.01153 0.19992 0.0
H441 H 0.19887 1.0061 0.27023 0.0
H442 H 0.1829 0.07368 0.24043 0.0
H443 H 0.21631 0.07898 0.17065 0.0
H444 H 0.18864 0.0298 0.4006 0.0
H445 H 0.12533 0.04124 0.19139 0.0
H446 H 0.15309 0.03464 0.16985 0.0
H447 H 0.14607 0.06195 0.19432 0.0
C448 C 0.22135 0.02501 0.20701 0.0
C449 C 0.22673 0.0456 0.17924 0.0
C450 C 0.20234 0.02198 0.24761 0.0
C451 C 0.18816 0.03943 0.2603 0.0
C452 C 0.19329 0.05986 0.23065 0.0
H453 H 0.0693 0.0603 0.50638 0.0
H454 H 0.10081 0.06316 0.42664 0.0
C455 C 0.21237 0.06291 0.19082 0.0
C456 C 0.16883 0.03675 0.30821 0.0
H457 H 0.11339 0.04038 0.31232 0.0
C458 C 0.17217 0.03193 0.38117 0.0
C459 C 0.14731 0.0398 0.28332 0.0
C460 C 0.1426 0.04453 0.20534 0.0
C461 C 0.15475 0.03055 0.43 0.0
C462 C 0.13314 0.03341 0.40508 0.0
C463 C 0.12983 0.03816 0.3319 0.0
C464 C 0.11383 0.03159 0.4539 0.0
C465 C 0.15982 0.02681 0.50839 0.0
C466 C 0.11023 1.01278 0.49538 0.0
C467 C 0.09232 1.01121 0.54158 0.0
C468 C 0.07731 0.02829 0.54701 0.0
C469 C 0.08059 0.04689 0.50412 0.0
C470 C 0.09862 0.04852 0.45828 0.0
H471 H 0.17674 0.03178 0.52183 0.0
H472 H 0.14857 0.03592 0.54355 0.0
H473 H 0.15814 1.00921 0.52062 0.0
H474 H 0.12116 0.99913 0.49158 0.0
H475 H 0.09008 0.99639 0.57223 0.0
H476 H 0.53759 0.23687 0.20635 0.0
H477 H 0.54423 0.20272 0.27208 0.0
H478 H 0.47912 0.18113 0.2223 0.0
H479 H 0.47282 0.21495 0.15593 0.0
H480 H 0.52414 0.18863 0.39117 0.0
H481 H 0.51144 0.12616 0.18158 0.0
H482 H 0.51488 0.15462 0.16019 0.0
H483 H 0.48879 0.1442 0.18779 0.0
C484 C 0.52505 0.22443 0.20737 0.0
C485 C 0.50482 0.22839 0.1749 0.0
C486 C 0.52872 0.205 0.24568 0.0
C487 C 0.51229 0.18899 0.25195 0.0
C488 C 0.49233 0.19275 0.21725 0.0
H489 H 0.49523 0.09492 0.59938 0.0
H490 H 0.49424 0.12612 0.51784 0.0
C491 C 0.4887 0.21211 0.17915 0.0
C492 C 0.51528 0.16928 0.29911 0.0
H493 H 0.5099 0.1137 0.30345 0.0
C494 C 0.52116 0.17226 0.37161 0.0
C495 C 0.51168 0.1477 0.27424 0.0
C496 C 0.50657 0.14293 0.19652 0.0
C497 C 0.52288 0.15458 0.41978 0.0
C498 C 0.51825 0.13314 0.39569 0.0
C499 C 0.51308 0.13006 0.32272 0.0
C500 C 0.51866 0.11382 0.44537 0.0
C501 C 0.53003 0.15903 0.49601 0.0
C502 C 0.53213 0.09592 0.43137 0.0
C503 C 0.53284 0.07807 0.47872 0.0
C504 C 0.51999 0.07756 0.54118 0.0
C505 C 0.50597 0.09511 0.55362 0.0
C506 C 0.50534 0.11299 0.5066 0.0
H507 H 0.53863 0.17492 0.5008 0.0
H508 H 0.51556 0.15952 0.53129 0.0
H509 H 0.54093 0.14602 0.51588 0.0
H510 H 0.54241 0.09589 0.3843 0.0
H511 H 0.54374 0.06481 0.4669 0.0
H512 H 0.32916 0.47573 0.15192 0.0
H513 H 0.36323 0.47985 0.22027 0.0
H514 H 0.34581 0.54565 0.27377 0.0
H515 H 0.31171 0.5414 0.20517 0.0
H516 H 0.39887 0.51135 0.21148 0.0
H517 H 0.35518 0.51525 0.47153 0.0
H518 H 0.34241 0.5055 0.39013 0.0
H519 H 0.34637 0.53416 0.40395 0.0
C520 C 0.33286 0.49116 0.17736 0.0
C521 C 0.31789 0.50828 0.17303 0.0
C522 C 0.35228 0.49352 0.21653 0.0
C523 C 0.35708 0.51297 0.25323 0.0
C524 C 0.34245 0.53038 0.24679 0.0
H525 H 0.4557 0.55141 0.56727 0.0
H526 H 0.42473 0.54868 0.48571 0.0
C527 C 0.32308 0.52807 0.20703 0.0
C528 C 0.3769 0.51466 0.30021 0.0
H529 H 0.39315 0.52018 0.4754 0.0
C530 C 0.39763 0.51327 0.26921 0.0
C531 C 0.37541 0.51712 0.37567 0.0
C532 C 0.35369 0.51793 0.41271 0.0
C533 C 0.41679 0.51479 0.31111 0.0
C534 C 0.41531 0.51713 0.38684 0.0
C535 C 0.39451 0.51841 0.41765 0.0
C536 C 0.43495 0.51879 0.43516 0.0
C537 C 0.4384 0.51457 0.27327 0.0
C538 C 0.45132 0.50286 0.43514 0.0
C539 C 0.46935 0.5045 0.48169 0.0
C540 C 0.47135 0.52194 0.53046 0.0
C541 C 0.45485 0.53771 0.53077 0.0
C542 C 0.437 0.53616 0.48392 0.0
H543 H 0.43677 0.51935 0.21596 0.0
H544 H 0.45024 0.52573 0.29959 0.0
H545 H 0.44504 0.49785 0.27486 0.0
H546 H 0.45001 0.48891 0.39989 0.0
H547 H 0.48155 0.49192 0.48017 0.0
H548 H 0.07439 0.35213 0.05995 0.0
H549 H 0.06937 0.38503 0.13322 0.0
H550 H 0.01935 0.35203 0.25363 0.0
H551 H 0.02466 0.31912 0.18068 0.0
H552 H 0.03399 0.41242 0.16744 0.0
H553 H 0.06386 0.36887 0.40884 0.0
H554 H 0.0666 0.35801 0.31934 0.0
H555 H 0.04107 0.35601 0.36543 0.0
C556 C 0.06195 0.35219 0.10089 0.0
C557 C 0.04978 0.33317 0.11431 0.0
C558 C 0.05916 0.37093 0.14306 0.0
C559 C 0.04428 0.371 0.20019 0.0
C560 C 0.03122 0.35237 0.21088 0.0
H561 H 1.01479 0.45786 0.55493 0.0
H562 H 0.01758 0.42835 0.46814 0.0
C563 C 0.034 0.33365 0.16854 0.0
C564 C 0.04326 0.39003 0.25068 0.0
H565 H 0.05058 0.40442 0.42686 0.0
C566 C 0.03766 0.41068 0.22415 0.0
C567 C 0.04821 0.38795 0.32477 0.0
C568 C 0.05548 0.36659 0.35641 0.0
C569 C 0.0362 0.42901 0.26975 0.0
C570 C 0.04096 0.42687 0.34411 0.0
C571 C 0.04682 0.40623 0.37024 0.0
C572 C 0.03935 0.44548 0.39638 0.0
C573 C 0.0289 0.45033 0.23798 0.0
C574 C 0.05085 0.46515 0.38632 0.0
C575 C 0.04917 0.4823 0.43613 0.0
C576 C 0.03616 0.48014 0.49796 0.0
C577 C 0.025 0.46029 0.50834 0.0
C578 C 0.02658 0.44328 0.45845 0.0
H579 H 0.02007 0.4479 0.18642 0.0
H580 H 0.01816 0.4592 0.27555 0.0
H581 H 0.04334 0.46069 0.22698 0.0
H582 H 0.06132 0.46724 0.34023 0.0
H583 H 0.05811 0.49722 0.42611 0.0
H584 H 0.83012 0.97627 0.18359 0.0
H585 H 0.86467 0.98053 0.11947 0.0
H586 H 0.85044 0.0483 0.08356 0.0
H587 H 0.8163 0.04399 0.15037 0.0
H588 H 0.87045 0.98943 0.98471 0.0
H589 H 0.91265 0.05445 0.13724 0.0
H590 H 0.88881 0.04076 0.1713 0.0
H591 H 0.88623 0.06269 0.10766 0.0
C592 C 0.83485 0.9922 0.16407 0.0
C593 C 0.82087 1.00992 0.17331 0.0
C594 C 0.85448 0.99463 0.12675 0.0
C595 C 0.86056 1.01483 0.09694 0.0
C596 C 0.84668 0.03268 0.1075 0.0
H597 H 0.95809 0.05398 0.78042 0.0
H598 H 0.92709 0.05156 0.86244 0.0
C599 C 0.82713 0.03027 0.14571 0.0
C600 C 0.88042 1.01663 0.05034 0.0
H601 H 0.92701 0.04623 0.02126 0.0
C602 C 0.88287 1.00176 0.99343 0.0
C603 C 0.8968 0.03271 0.06083 0.0
C604 C 0.89613 0.04841 0.123 0.0
C605 C 0.90082 1.00272 0.94666 0.0
C606 C 0.91697 0.01894 0.95664 0.0
C607 C 0.91461 0.03383 0.01331 0.0
C608 C 0.93633 0.02067 0.90844 0.0
C609 C 0.90216 0.98659 0.88579 0.0
C610 C 0.95213 1.00428 0.90743 0.0
C611 C 0.96996 1.00565 0.86072 0.0
C612 C 0.97237 0.0234 0.81338 0.0
C613 C 0.95669 0.03996 0.8154 0.0
C614 C 0.93896 0.03865 0.86256 0.0
H615 H 0.88649 0.97793 0.87672 0.0
H616 H 0.90699 0.99487 0.83522 0.0
H617 H 0.9147 0.97431 0.89863 0.0
H618 H 0.95067 0.99036 0.94282 0.0
H619 H 0.9817 0.99262 0.86113 0.0
H620 H 0.51708 0.8265 0.17793 0.0
H621 H 0.5128 0.86079 0.11058 0.0
H622 H 0.58172 0.8726 0.12717 0.0
H623 H 0.58588 0.83829 0.19319 0.0
H624 H 0.52286 0.90512 0.13327 0.0
H625 H 0.57255 0.87246 0.91089 0.0
H626 H 0.56265 0.85554 0.98305 0.0
H627 H 0.58624 0.87254 0.99612 0.0
C628 C 0.53115 0.8368 0.1689 0.0
C629 C 0.55179 0.82983 0.19132 0.0
C630 C 0.52877 0.85631 0.12982 0.0
C631 C 0.54701 0.8692 0.11192 0.0
C632 C 0.56742 0.86284 0.13845 0.0
H633 H 0.56794 0.98429 0.83762 0.0
H634 H 0.57196 0.95389 0.92223 0.0
C635 C 0.56978 0.84338 0.17716 0.0
C636 C 0.54495 0.88861 0.06298 0.0
H637 H 0.56252 0.90949 0.90223 0.0
C638 C 0.53149 0.906 0.0827 0.0
C639 C 0.55618 0.88999 0.99662 0.0
C640 C 0.57006 0.87157 0.96989 0.0
C641 C 0.52927 0.92467 0.03889 0.0
C642 C 0.54045 0.92598 0.97251 0.0
C643 C 0.55397 0.90865 0.953 0.0
C644 C 0.53794 0.94485 0.92176 0.0
C645 C 0.51524 0.94306 0.06476 0.0
C646 C 0.51756 0.94989 0.89203 0.0
C647 C 0.51526 0.96718 0.84321 0.0
C648 C 0.53328 0.97989 0.82245 0.0
C649 C 0.55368 0.97491 0.85242 0.0
C650 C 0.55601 0.95747 0.90082 0.0
H651 H 0.51295 0.94249 0.12389 0.0
H652 H 0.52237 0.95911 0.05017 0.0
H653 H 0.49901 0.94172 0.03904 0.0
H654 H 0.50338 0.94027 0.90587 0.0
H655 H 0.49929 0.97063 0.82188 0.0
H656 H 0.71513 0.58761 0.18398 0.0
H657 H 0.68086 0.58282 0.11791 0.0
H658 H 0.69372 0.51426 0.09721 0.0
H659 H 0.72815 0.51925 0.16349 0.0
H660 H 0.68391 0.53411 0.9665 0.0
H661 H 0.62177 0.55657 0.16712 0.0
H662 H 0.64308 0.57643 0.15739 0.0
H663 H 0.64928 0.54987 0.19205 0.0
C664 C 0.71019 0.57141 0.16749 0.0
C665 C 0.72405 0.55373 0.18017 0.0
C666 C 0.69062 0.56866 0.12949 0.0
C667 C 0.68439 0.54811 0.10286 0.0
C668 C 0.69796 0.53026 0.11746 0.0
H669 H 0.58319 0.50257 0.80496 0.0
H670 H 0.61382 0.50596 0.88796 0.0
C671 C 0.71752 0.53303 0.15602 0.0
C672 C 0.66481 0.54571 0.05488 0.0
H673 H 0.60989 0.55415 0.04545 0.0
C674 C 0.66771 0.53831 0.98413 0.0
C675 C 0.64359 0.55144 0.07702 0.0
C676 C 0.63913 0.55884 0.15271 0.0
C677 C 0.65025 0.53686 0.93494 0.0
C678 C 0.62898 0.54243 0.95716 0.0
C679 C 0.62607 0.54986 0.02795 0.0
C680 C 0.60963 0.54035 0.908 0.0
C681 C 0.65495 0.53 0.85878 0.0
C682 C 0.59627 0.55831 0.89297 0.0
C683 C 0.57853 0.55638 0.84533 0.0
C684 C 0.57365 0.53639 0.8117 0.0
C685 C 0.58668 0.51834 0.82843 0.0
C686 C 0.60432 0.52027 0.87599 0.0
H687 H 0.67228 0.53274 0.84474 0.0
H688 H 0.65145 0.51235 0.85292 0.0
H689 H 0.64469 0.53897 0.81976 0.0
H690 H 0.59979 0.57397 0.91721 0.0
H691 H 0.5688 0.5706 0.8341 0.0
H692 H 0.03953 0.73324 0.15206 0.0
H693 H 0.04536 0.70046 0.07872 0.0
H694 H 0.9792 0.68028 0.11676 0.0
H695 H 0.97363 0.71276 0.19097 0.0
H696 H 1.00734 0.64532 0.11989 0.0
H697 H 0.02162 0.69491 0.87519 0.0
H698 H 0.03978 0.70088 0.94834 0.0
H699 H 1.0113 0.70645 0.95719 0.0
C700 C 0.02646 0.7215 0.14606 0.0
C701 C 1.00614 0.72553 0.17728 0.0
C702 C 0.02966 0.70291 0.10328 0.0
C703 C 1.01257 0.68799 0.09052 0.0
C704 C 0.99263 0.69149 0.12503 0.0
H705 H 0.98719 0.57445 0.81616 0.0
H706 H 0.98548 0.60372 0.90542 0.0
C707 C 0.98945 0.71004 0.16758 0.0
C708 C 1.01502 0.66925 0.0393 0.0
H709 H 0.02525 0.65689 0.86319 0.0
C710 C 1.01127 0.64788 0.06379 0.0
C711 C 0.02007 0.67242 0.96573 0.0
C712 C 0.02324 0.69489 0.93464 0.0
C713 C 1.0127 0.62976 0.01738 0.0
C714 C 0.01759 0.63297 0.94375 0.0
C715 C 0.0215 0.6543 0.91943 0.0
C716 C 0.01871 0.61453 0.89092 0.0
C717 C 1.00936 0.60725 0.048 0.0
C718 C 0.03777 0.61092 0.85146 0.0
C719 C 0.0388 0.5941 0.80055 0.0
C720 C 0.02075 0.58046 0.78725 0.0
C721 C 1.00158 0.58424 0.82612 0.0
C722 C 1.00058 0.60103 0.87734 0.0
H723 H 1.01168 0.60703 0.10721 0.0
H724 H 0.99253 0.60171 0.03624 0.0
H725 H 0.02072 0.59546 0.02348 0.0
H726 H 0.05196 0.62111 0.86026 0.0
H727 H 0.05382 0.59175 0.7716 0.0
H728 H 0.07581 0.27182 0.22067 0.0
H729 H 0.08445 0.23707 0.27462 0.0
H730 H 0.10002 0.21124 0.06603 0.0
H731 H 0.09257 0.24692 1.01172 0.0
H732 H 0.05887 0.19864 0.13821 0.0
H733 H 0.1301 0.18766 0.31636 0.0
H734 H 0.118 0.21417 0.32016 0.0
H735 H 0.13052 0.20527 0.23834 0.0
C736 C 0.08246 0.25924 0.18678 0.0
C737 C 0.08344 0.26197 0.11201 0.0
C738 C 0.08747 0.23933 0.21778 0.0
C739 C 0.0929 0.22163 0.17433 0.0
C740 C 0.09602 0.22483 0.10039 0.0
H741 H 0.0256 0.10634 0.33496 0.0
H742 H 0.05159 0.12548 0.25928 0.0
C743 C 0.09154 0.24506 0.06942 0.0
C744 C 0.08783 0.1998 0.20245 0.0
H745 H 0.09741 0.16762 0.34804 0.0
C746 C 0.06779 0.19095 0.18147 0.0
C747 C 0.09913 0.19076 0.26114 0.0
C748 C 0.12075 0.19985 0.28514 0.0
C749 C 0.05781 0.17436 0.22092 0.0
C750 C 0.06849 0.16611 0.28251 0.0
C751 C 0.08931 0.17391 0.30063 0.0
C752 C 0.0568 0.15198 0.33387 0.0
C753 C 0.03501 0.16745 0.20022 0.0
C754 C 0.05214 0.1599 0.40272 0.0
C755 C 0.03771 0.14869 0.44725 0.0
C756 C 0.0275 0.12946 0.42333 0.0
C757 C 0.03318 0.12101 0.35566 0.0
C758 C 0.04793 0.13201 0.31185 0.0
H759 H 0.02764 0.17855 0.15998 0.0
H760 H 0.03542 0.15092 0.17638 0.0
H761 H 0.0243 0.16694 0.24801 0.0
H762 H 0.05889 0.17529 0.42081 0.0
H763 H 0.03424 0.15535 0.49975 0.0
H764 H 0.29905 0.10245 0.12024 0.0
H765 H 0.33789 0.11208 0.13613 0.0
H766 H 0.35058 0.04666 0.20801 0.0
H767 H 0.31214 0.03721 0.19149 0.0
H768 H 0.36906 0.09627 0.28393 0.0
H769 H 0.38736 0.06728 1.00752 0.0
H770 H 0.36315 0.08253 0.0283 0.0
H771 H 0.36518 0.05466 0.05536 0.0
C772 C 0.31022 0.09048 0.14117 0.0
C773 C 0.303 0.06922 0.15539 0.0
C774 C 0.33223 0.09588 0.14977 0.0
C775 C 0.34691 0.08 0.17294 0.0
C776 C 0.33938 0.05908 0.19016 0.0
H777 H 0.45587 0.01857 0.25913 0.0
H778 H 0.42345 0.03584 0.21018 0.0
C779 C 0.31758 0.05372 0.18122 0.0
C780 C 0.37045 0.08416 0.17585 0.0
H781 H 0.41627 0.06668 0.09254 0.0
C782 C 0.37962 0.09071 0.24132 0.0
C783 C 0.38394 0.07681 0.11989 0.0
C784 C 0.37456 0.07 0.04838 0.0
C785 C 0.40186 0.08796 0.2549 0.0
C786 C 0.415 0.07847 0.20132 0.0
C787 C 0.40613 0.07398 0.13337 0.0
C788 C 0.43608 0.06868 0.22007 0.0
C789 C 0.41069 0.0931 0.32874 0.0
C790 C 0.45412 0.08145 0.23972 0.0
C791 C 0.47269 0.07155 0.26784 0.0
C792 C 0.47331 0.04884 0.27686 0.0
C793 C 0.45566 0.03611 0.25343 0.0
C794 C 0.43724 0.04595 0.22509 0.0
H795 H 0.398 0.09942 0.36531 0.0
H796 H 0.41781 0.07827 0.35314 0.0
H797 H 0.4238 0.10551 0.32444 0.0
H798 H 0.45352 0.09901 0.23579 0.0
H799 H 0.4861 0.08167 0.28584 0.0
H800 H 0.50398 0.319 0.18451 0.0
H801 H 0.48931 0.3484 0.25617 0.0
H802 H 0.42578 0.31834 0.24765 0.0
H803 H 0.44067 0.28884 0.17315 0.0
H804 H 0.45299 0.37862 0.25055 0.0
H805 H 0.44499 0.3148 0.4619 0.0
H806 H 0.45945 0.30856 0.38054 0.0
H807 H 0.43061 0.31255 0.37772 0.0
C808 C 0.48671 0.3192 0.19497 0.0
C809 C 0.47342 0.3018 0.17356 0.0
C810 C 0.4783 0.33594 0.23617 0.0
C811 C 0.45649 0.33544 0.2577 0.0
C812 C 0.44267 0.31893 0.23184 0.0
H813 H 0.48867 0.43504 0.5672 0.0
H814 H 0.45846 0.41543 0.5094 0.0
C815 C 0.45113 0.30218 0.18959 0.0
C816 C 0.45022 0.3501 0.31674 0.0
H817 H 0.45742 0.34931 0.49809 0.0
C818 C 0.4528 0.37252 0.30523 0.0
C819 C 0.44955 0.34204 0.38787 0.0
C820 C 0.44594 0.31819 0.40338 0.0
C821 C 0.45877 0.3864 0.3618 0.0
C822 C 0.46187 0.37747 0.43114 0.0
C823 C 0.45537 0.35595 0.44453 0.0
C824 C 0.47774 0.38747 0.48111 0.0
C825 C 0.46474 0.40971 0.34495 0.0
C826 C 0.49818 0.37768 0.48782 0.0
C827 C 0.51539 0.38877 0.52033 0.0
C828 C 0.51245 0.4099 0.54668 0.0
C829 C 0.49147 0.41892 0.54575 0.0
C830 C 0.4742 0.40776 0.51307 0.0
H831 H 0.46133 0.41401 0.28807 0.0
H832 H 0.45539 0.42082 0.3799 0.0
H833 H 0.48228 0.41254 0.35576 0.0
H834 H 0.50127 0.36203 0.46325 0.0
H835 H 0.53131 0.38143 0.51994 0.0
H836 H 0.23898 0.5051 0.24514 0.0
H837 H 0.1997 0.50095 0.25728 0.0
H838 H 0.19812 0.46004 0.06895 0.0
H839 H 0.23757 0.46496 0.05588 0.0
H840 H 0.17285 0.4943 0.05249 0.0
H841 H 0.15376 0.45801 0.31466 0.0
H842 H 0.17356 0.47919 0.32693 0.0
H843 H 0.18027 0.45554 0.27431 0.0
C844 C 0.2303 0.49441 0.2086 0.0
C845 C 0.24105 0.48518 0.1501 0.0
C846 C 0.20788 0.49199 0.21541 0.0
C847 C 0.19594 0.48004 0.16423 0.0
C848 C 0.20702 0.4693 0.10899 0.0
H849 H 0.0633 0.5117 0.27304 0.0
H850 H 0.09061 0.48689 0.22499 0.0
C851 C 0.22946 0.47193 0.10184 0.0
C852 C 0.17205 0.4824 0.16139 0.0
H853 H 0.12848 0.48616 0.27218 0.0
C854 C 0.16289 0.49175 0.09961 0.0
C855 C 0.15887 0.47882 0.2222 0.0
C856 C 0.16713 0.46709 0.28787 0.0
C857 C 0.1416 0.49958 0.0995 0.0
C858 C 0.12939 0.49871 0.16371 0.0
C859 C 0.1378 0.48727 0.223 0.0
C860 C 0.1099 0.51235 0.17517 0.0
C861 C 0.13293 0.50931 0.03092 0.0
C862 C 0.11099 0.53478 0.16025 0.0
C863 C 0.09509 0.54879 0.18587 0.0
C864 C 0.07819 0.54071 0.22856 0.0
C865 C 0.07623 0.5182 0.23982 0.0
C866 C 0.09186 0.50408 0.21266 0.0
H867 H 0.13618 0.49814 0.98548 0.0
H868 H 0.11524 0.51231 0.03283 0.0
H869 H 0.14159 0.52484 0.01953 0.0
H870 H 0.12496 0.54177 0.1334 0.0
H871 H 0.09705 0.56615 0.1776 0.0
H872 H 0.94375 0.78827 0.2274 0.0
H873 H 0.92731 0.82389 0.19776 0.0
H874 H 0.9913 0.8504 0.15944 0.0
H875 H 1.00736 0.81515 0.18709 0.0
H876 H 0.94701 0.87286 0.26372 0.0
H877 H 0.94452 0.8565 0.972 0.0
H878 H 0.93931 0.83576 0.03901 0.0
H879 H 0.96675 0.84331 0.01675 0.0
C880 C 0.95407 0.80185 0.21237 0.0
C881 C 0.97671 0.79932 0.20946 0.0
C882 C 0.94478 0.82205 0.19616 0.0
C883 C 0.95819 0.83964 0.17706 0.0
C884 C 0.98076 0.83697 0.17456 0.0
H885 H 0.02442 0.93725 0.14994 0.0
H886 H 0.99359 0.91678 0.19411 0.0
C887 C 0.98991 0.81696 0.19016 0.0
C888 C 0.94959 0.86091 0.1553 0.0
H889 H 0.95845 0.89204 1.00821 0.0
C890 C 0.94838 0.87729 0.20751 0.0
C891 C 0.95033 0.86669 0.08214 0.0
C892 C 0.95006 0.84961 0.02406 0.0
C893 C 0.9519 0.89915 0.18873 0.0
C894 C 0.9579 0.90421 0.11731 0.0
C895 C 0.95471 0.88834 0.06375 0.0
C896 C 0.97315 0.9224 0.10068 0.0
C897 C 0.9509 0.91628 0.24643 0.0
C898 C 0.97213 0.93304 0.03402 0.0
C899 C 0.99038 0.94378 1.00673 0.0
C900 C 1.00993 0.9446 0.04639 0.0
C901 C 1.00999 0.93629 0.11669 0.0
C902 C 0.99195 0.92505 0.14309 0.0
H903 H 0.93598 0.91393 0.27898 0.0
H904 H 0.96489 0.91447 0.2834 0.0
H905 H 0.95095 0.933 0.22381 0.0
H906 H 0.95785 0.93138 1.00022 0.0
H907 H 0.98951 0.94992 0.95233 0.0
H908 H 0.72923 0.02038 0.18527 0.0
H909 H 0.69254 1.00814 0.15311 0.0
H910 H 0.71567 0.94246 0.12909 0.0
H911 H 0.75259 0.95485 0.16269 0.0
H912 H 0.68731 0.95928 0.01334 0.0
H913 H 0.6527 0.96986 0.28465 0.0
H914 H 0.66882 0.99284 0.25737 0.0
H915 H 0.68149 0.9668 0.26921 0.0
C916 C 0.72638 1.00337 0.17309 0.0
C917 C 0.74342 0.98845 0.17681 0.0
C918 C 0.70553 0.99637 0.15512 0.0
C919 C 0.70142 0.97434 0.14024 0.0
C920 C 0.71858 0.95947 0.14123 0.0
H921 H 0.56092 0.97229 0.0893 0.0
H922 H 0.59492 0.95298 0.11201 0.0
C923 C 0.73953 0.96651 0.15982 0.0
C924 C 0.67906 0.96749 0.12231 0.0
H925 H 0.62763 0.97401 0.1844 0.0
C926 C 0.6742 0.96176 0.05113 0.0
C927 C 0.66206 0.97018 0.17217 0.0
C928 C 0.66652 0.97504 0.25034 0.0
C929 C 0.65264 0.96127 0.02658 0.0
C930 C 0.6358 0.96692 0.07435 0.0
C931 C 0.64056 0.96991 0.14748 0.0
C932 C 0.61461 0.97481 0.04793 0.0
C933 C 0.64819 0.95622 0.94867 0.0
C934 C 0.61437 0.9932 1.00339 0.0
C935 C 0.5952 1.0045 0.99167 0.0
C936 C 0.57573 0.99766 0.02412 0.0
C937 C 0.5757 0.97831 0.06479 0.0
C938 C 0.59504 0.96708 0.07708 0.0
H939 H 0.66002 0.94422 0.92796 0.0
H940 H 0.63148 0.94972 0.94062 0.0
H941 H 0.65005 0.97131 0.9165 0.0
H942 H 0.62935 0.99986 0.98203 0.0
H943 H 0.59611 0.01947 0.96119 0.0
H944 H 0.53848 0.7398 0.18926 0.0
H945 H 0.54642 0.70597 0.12698 0.0
H946 H 0.61339 0.72602 0.10383 0.0
H947 H 0.60516 0.76027 0.16701 0.0
H948 H 0.59689 0.71296 0.97832 0.0
H949 H 0.57624 0.65028 0.17544 0.0
H950 H 0.55486 0.66981 0.17728 0.0
H951 H 0.58212 0.67801 0.2019 0.0
C952 C 0.55499 0.73664 0.17266 0.0
C953 C 0.57127 0.7523 0.18311 0.0
C954 C 0.55961 0.7173 0.13752 0.0
C955 C 0.58067 0.71318 0.11238 0.0
C956 C 0.59715 0.72873 0.12383 0.0
H957 H 0.53403 0.60209 0.89687 0.0
H958 H 0.56589 0.61906 0.94947 0.0
C959 C 0.59247 0.74819 0.15943 0.0
C960 C 0.58404 0.69396 0.06615 0.0
H961 H 0.56227 0.64335 0.05071 0.0
C962 C 0.59011 0.69737 0.99441 0.0
C963 C 0.57641 0.67323 0.08735 0.0
C964 C 0.57234 0.66762 0.16505 0.0
C965 C 0.58519 0.68181 0.94156 0.0
C966 C 0.57318 0.66301 0.96106 0.0
C967 C 0.57069 0.65809 0.0344 0.0
C968 C 0.55891 0.6513 0.90907 0.0
C969 C 0.59172 0.68638 0.86505 0.0
C970 C 0.54504 0.66333 0.86416 0.0
C971 C 0.52716 0.65344 0.83124 0.0
C972 C 0.52216 0.63149 0.84478 0.0
C973 C 0.53711 0.61904 0.88471 0.0
C974 C 0.55543 0.6288 0.91559 0.0
H975 H 0.60859 0.69288 0.86354 0.0
H976 H 0.59075 0.67158 0.83094 0.0
H977 H 0.58104 0.69911 0.84216 0.0
H978 H 0.54686 0.68077 0.85894 0.0
H979 H 0.51658 0.66341 0.79863 0.0
H980 H 0.79276 0.60788 0.14943 0.0
H981 H 0.82566 0.61545 0.07819 0.0
H982 H 0.84802 0.55031 0.11986 0.0
H983 H 0.81494 0.54246 0.18671 0.0
H984 H 0.88189 0.59119 0.11328 0.0
H985 H 0.82548 0.57518 0.88383 0.0
H986 H 0.81867 0.59397 0.95447 0.0
H987 H 0.8183 0.56528 0.97185 0.0
C988 C 0.80501 0.59545 0.14424 0.0
C989 C 0.80145 0.5746 0.17302 0.0
C990 C 0.82378 0.59983 0.10449 0.0
C991 C 0.8392 0.58345 0.0945 0.0
C992 C 0.83639 0.56323 0.12804 0.0
H993 H 0.93242 0.51117 0.92511 0.0
H994 H 0.91369 0.53886 0.99439 0.0
C995 C 0.81755 0.55875 0.16624 0.0
C996 C 0.85585 0.5851 0.03832 0.0
H997 H 0.86204 0.56635 0.86826 0.0
C998 C 0.87773 0.58659 0.05866 0.0
C999 C 0.85031 0.57959 0.96697 0.0
C1000 C 0.82694 0.57843 0.94234 0.0
C1001 C 0.89421 0.58048 1.01105 0.0
C1002 C 0.88839 0.57163 0.9433 0.0
C1003 C 0.86666 0.57276 0.92041 0.0
C1004 C 0.90323 0.55754 0.90162 0.0
C1005 C 0.91751 0.58265 0.03527 0.0
C1006 C 0.90331 0.5583 0.82613 0.0
C1007 C 0.91306 0.54174 0.78668 0.0
C1008 C 0.92346 0.52457 0.8219 0.0
C1009 C 0.92455 0.5244 0.89702 0.0
C1010 C 0.91419 0.54051 0.93657 0.0
H1011 H 0.9199 0.59805 0.06562 0.0
H1012 H 0.92147 0.56912 0.07242 0.0
H1013 H 0.92896 0.58246 0.98935 0.0
H1014 H 0.89489 0.57111 0.79767 0.0
H1015 H 0.91211 0.54208 0.72881 0.0
H1016 H 0.03592 0.24278 0.10033 0.0
H1017 H 0.02888 0.20746 0.042 0.0
H1018 H 0.05183 0.23375 0.84112 0.0
H1019 H 0.05816 0.26915 0.89951 0.0
H1020 H 0.01898 0.20768 0.81374 0.0
H1021 H 0.05141 0.17368 0.04403 0.0
H1022 H 0.07013 0.19286 1.00358 0.0
H1023 H 0.07439 0.16405 0.9954 0.0
C1024 C 0.03895 0.24105 0.04338 0.0
C1025 C 0.04736 0.25877 1.00421 0.0
C1026 C 0.03525 0.22075 1.01009 0.0
C1027 C 0.04026 0.21748 0.93697 0.0
C1028 C 0.04787 0.23554 0.89742 0.0
H1029 H 0.06337 0.08904 0.74944 0.0
H1030 H 0.06591 0.12571 0.79946 0.0
C1031 C 0.05139 0.25586 0.93062 0.0
C1032 C 0.03797 0.19535 0.90191 0.0
H1033 H 0.05215 0.14171 0.91921 0.0
C1034 C 0.02632 0.19331 0.83691 0.0
C1035 C 0.0478 0.17634 0.93046 0.0
C1036 C 0.06184 0.17692 0.99681 0.0
C1037 C 0.02404 0.17312 0.80085 0.0
C1038 C 0.03316 0.15403 0.83115 0.0
C1039 C 0.04494 0.15611 0.89567 0.0
C1040 C 0.03134 0.13186 0.79656 0.0
C1041 C 1.0124 0.17266 0.72942 0.0
C1042 C 1.01108 0.12265 0.77758 0.0
C1043 C 1.00961 0.10154 0.74832 0.0
C1044 C 0.02832 0.08885 0.73838 0.0
C1045 C 0.04856 0.09815 0.75677 0.0
C1046 C 0.05004 0.11925 0.78551 0.0
H1047 H 1.01246 0.18895 0.70351 0.0
H1048 H 0.01991 0.16085 0.69208 0.0
H1049 H 0.99522 0.16778 0.73792 0.0
H1050 H 0.99627 0.13154 0.787 0.0
H1051 H 0.99371 0.09493 0.73547 0.0
H1052 H 0.29793 0.07746 0.99467 0.0
H1053 H 0.33061 0.0716 0.9236 0.0
H1054 H 0.3274 1.00302 0.97191 0.0
H1055 H 0.2951 1.00932 0.04671 0.0
H1056 H 0.36694 1.01649 0.99135 0.0
H1057 H 0.34223 0.04945 0.72876 0.0
H1058 H 0.33832 0.06948 0.79722 0.0
H1059 H 0.32289 0.04441 0.79946 0.0
C1060 C 0.30392 0.06105 0.98855 0.0
C1061 C 0.29378 0.04382 0.02543 0.0
C1062 C 0.32259 0.05765 0.94741 0.0
C1063 C 0.3315 0.03675 0.94048 0.0
C1064 C 0.32089 0.0193 0.97547 0.0
H1065 H 0.44485 0.01898 0.65455 0.0
H1066 H 0.40816 1.01831 0.70549 0.0
C1067 C 0.30224 0.0228 0.01747 0.0
C1068 C 0.35276 0.03365 0.90214 0.0
H1069 H 0.3809 0.0479 0.75047 0.0
C1070 C 0.36982 0.02313 0.93824 0.0
C1071 C 0.35677 0.04192 0.83216 0.0
C1072 C 0.33898 0.05171 0.78694 0.0
C1073 C 0.39077 0.02159 0.9083 0.0
C1074 C 0.39518 0.03122 0.84048 0.0
C1075 C 0.37787 0.04083 0.80289 0.0
C1076 C 0.4176 0.03182 0.80847 0.0
C1077 C 0.4079 1.00944 0.94996 0.0
C1078 C 0.43529 0.04016 0.84797 0.0
C1079 C 0.45633 0.04022 0.8194 0.0
C1080 C 0.46042 0.03233 0.74963 0.0
C1081 C 0.44255 0.02488 0.70874 0.0
C1082 C 0.42145 0.02456 0.73788 0.0
H1083 H 0.40048 0.99701 0.98579 0.0
H1084 H 0.41951 1.00122 0.91368 0.0
H1085 H 0.41702 0.02109 0.98443 0.0
H1086 H 0.43287 0.0467 0.9013 0.0
H1087 H 0.46944 0.04649 0.85253 0.0
H1088 H 0.53636 0.30414 0.07128 0.0
H1089 H 0.54108 0.33897 1.0073 0.0
H1090 H 0.47361 0.33701 0.94478 0.0
H1091 H 0.46892 0.30273 1.01037 0.0
H1092 H 0.53713 0.35341 0.87352 0.0
H1093 H 0.47517 0.39576 0.03389 0.0
H1094 H 0.48462 0.36895 0.05687 0.0
H1095 H 0.46393 0.37243 0.9892 0.0
C1096 C 0.52271 0.31099 0.04256 0.0
C1097 C 0.50228 0.30062 0.0455 0.0
C1098 C 0.52532 0.33104 1.0065 0.0
C1099 C 0.50756 0.34124 0.97252 0.0
C1100 C 0.48746 0.33015 0.97234 0.0
H1101 H 0.48562 0.46099 0.72572 0.0
H1102 H 0.48302 0.42564 0.78685 0.0
C1103 C 0.48484 0.31031 1.00889 0.0
C1104 C 0.50991 0.36331 0.93744 0.0
H1105 H 0.48739 0.41421 0.92851 0.0
C1106 C 0.52631 0.3667 0.88611 0.0
C1107 C 0.496 0.381 0.95358 0.0
C1108 C 0.47911 0.37946 1.01194 0.0
C1109 C 0.52871 0.38671 0.84931 0.0
C1110 C 0.51445 0.4042 0.86409 0.0
C1111 C 0.49822 0.40091 0.91604 0.0
C1112 C 0.5161 0.42596 0.82664 0.0
C1113 C 0.54623 0.38866 0.79338 0.0
C1114 C 0.53544 0.43833 0.82847 0.0
C1115 C 0.5369 0.4586 0.79357 0.0
C1116 C 0.51896 0.46735 0.75669 0.0
C1117 C 0.49963 0.45499 0.75465 0.0
C1118 C 0.49817 0.43468 0.7895 0.0
H1119 H 0.55078 0.37251 0.77157 0.0
H1120 H 0.54095 0.39916 0.74841 0.0
H1121 H 0.56094 0.39607 0.81815 0.0
H1122 H 0.54944 0.43242 0.85765 0.0
H1123 H 0.55204 0.46765 0.79659 0.0
H1124 H 0.23255 0.53417 0.1081 0.0
H1125 H 0.19936 0.53908 0.0363 0.0
H1126 H 0.22684 0.50024 0.86717 0.0
H1127 H 0.25987 0.49508 0.94017 0.0
H1128 H 0.19054 0.55611 0.90081 0.0
H1129 H 0.19429 0.47376 0.8602 0.0
H1130 H 0.17006 0.46851 0.91079 0.0
H1131 H 0.19386 0.47943 0.95473 0.0
C1132 C 0.23169 0.52727 0.05467 0.0
C1133 C 0.24894 0.5146 0.02911 0.0
C1134 C 0.21265 0.52989 0.01381 0.0
C1135 C 0.21027 0.51978 0.94639 0.0
C1136 C 0.22799 0.50798 0.91929 0.0
H1137 H 0.09751 0.50267 0.65911 0.0
H1138 H 0.13289 0.50088 0.71959 0.0
C1139 C 0.24704 0.50533 0.96037 0.0
C1140 C 0.18911 0.52121 0.90586 0.0
H1141 H 0.14707 0.4906 0.83814 0.0
C1142 C 0.18102 0.54177 0.88716 0.0
C1143 C 0.17666 0.50256 0.8868 0.0
C1144 C 0.18407 0.47985 0.90474 0.0
C1145 C 0.16124 0.54423 0.84932 0.0
C1146 C 0.14833 0.52561 0.83236 0.0
C1147 C 0.15659 0.50502 0.85079 0.0
C1148 C 0.12652 0.52697 0.79487 0.0
C1149 C 0.15506 0.56682 0.82545 0.0
C1150 C 0.11055 0.54192 0.81669 0.0
C1151 C 0.09063 0.54352 0.77985 0.0
C1152 C 0.08568 0.52955 0.72229 0.0
C1153 C 0.10103 0.51387 0.7026 0.0
C1154 C 0.12126 0.51278 0.73771 0.0
H1155 H 0.16963 0.57741 0.81902 0.0
H1156 H 0.14609 0.56654 0.77365 0.0
H1157 H 0.14468 0.57437 0.86702 0.0
H1158 H 0.11334 0.55231 0.86269 0.0
H1159 H 0.07882 0.55531 0.79766 0.0
H1160 H 0.04184 0.79671 0.29808 0.0
H1161 H 0.04846 0.83054 0.36648 0.0
H1162 H 0.98165 0.83038 0.43407 0.0
H1163 H 0.97526 0.79649 0.36752 0.0
H1164 H 0.99978 0.87081 0.3565 0.0
H1165 H 0.0475 0.8443 0.59509 0.0
H1166 H 0.05413 0.8334 0.508 0.0
H1167 H 0.0289 0.82607 0.54931 0.0
C1168 C 0.02886 0.80346 0.32989 0.0
C1169 C 1.00808 0.79378 0.3281 0.0
C1170 C 0.03256 0.82293 0.36839 0.0
C1171 C 1.01554 0.83312 0.40561 0.0
C1172 C 0.99507 0.82292 0.40612 0.0
H1173 H 0.98762 0.95859 0.60348 0.0
H1174 H 0.98655 0.9228 0.54599 0.0
C1175 C 0.99145 0.80346 0.36842 0.0
C1176 C 0.01837 0.85514 0.43939 0.0
H1177 H 0.03953 0.88164 0.58603 0.0
C1178 C 1.00852 0.87316 0.40664 0.0
C1179 C 0.02996 0.85838 0.50435 0.0
C1180 C 0.04073 0.83959 0.54188 0.0
C1181 C 1.0099 0.89418 0.43689 0.0
C1182 C 0.02076 0.89738 0.50347 0.0
C1183 C 0.031 0.87937 0.53552 0.0
C1184 C 0.02145 0.91918 0.54054 0.0
C1185 C 1.00013 0.91287 0.39591 0.0
C1186 C 0.04136 0.92915 0.55889 0.0
C1187 C 0.04199 0.9498 0.59163 0.0
C1188 C 0.02272 0.96105 0.60736 0.0
C1189 C 1.00281 0.95075 0.59089 0.0
C1190 C 1.00218 0.93017 0.55789 0.0
H1191 H 0.99995 0.90954 0.33729 0.0
H1192 H 0.98312 0.91515 0.41364 0.0
H1193 H 1.0093 0.9282 0.40526 0.0
H1194 H 0.05649 0.92113 0.5466 0.0
H1195 H 0.05765 0.95713 0.60341 0.0
H1196 H 0.74236 0.97542 0.32106 0.0
H1197 H 0.70985 0.98093 0.39314 0.0
H1198 H 0.72523 0.04938 0.40851 0.0
H1199 H 0.75664 0.04405 0.32964 0.0
H1200 H 0.69917 0.99202 0.51622 0.0
H1201 H 0.66561 0.05599 0.34018 0.0
H1202 H 0.68968 0.04119 0.31702 0.0
H1203 H 0.69125 0.06405 0.37767 0.0
C1204 C 0.73877 0.99167 0.33978 0.0
C1205 C 0.75193 1.00933 0.31846 0.0
C1206 C 0.72016 0.99483 0.3815 0.0
C1207 C 0.71436 1.01574 0.40513 0.0
C1208 C 0.72857 0.03319 0.3889 0.0
H1209 H 0.60402 0.02189 0.71419 0.0
H1210 H 0.64068 0.02146 0.6636 0.0
C1211 C 0.74693 0.03009 0.34513 0.0
C1212 C 0.69331 0.01899 0.44507 0.0
H1213 H 0.64701 0.04952 0.44892 0.0
C1214 C 0.68776 1.00459 0.5011 0.0
C1215 C 0.67794 0.03506 0.42529 0.0
C1216 C 0.68128 0.04977 0.36129 0.0
C1217 C 0.66753 1.00551 0.53659 0.0
C1218 C 0.65256 0.02218 0.51888 0.0
C1219 C 0.6583 0.03682 0.46372 0.0
C1220 C 0.6303 0.0239 0.55243 0.0
C1221 C 0.66216 0.98781 0.58999 0.0
C1222 C 0.61194 0.02683 0.50836 0.0
C1223 C 0.59109 0.02829 0.53768 0.0
C1224 C 0.58761 0.02627 0.61218 0.0
C1225 C 0.60592 0.02364 0.65674 0.0
C1226 C 0.627 0.02289 0.6274 0.0
H1227 H 0.6719 0.97296 0.58033 0.0
H1228 H 0.66604 0.99364 0.64497 0.0
H1229 H 0.6447 0.98321 0.58755 0.0
H1230 H 0.61364 0.02776 0.45056 0.0
H1231 H 0.57755 0.03065 0.50125 0.0
H1232 H 0.58474 0.74882 0.32974 0.0
H1233 H 0.57862 0.71533 0.39783 0.0
H1234 H 0.51026 0.72963 0.40818 0.0
H1235 H 0.51633 0.76253 0.33545 0.0
H1236 H 0.5656 0.70355 0.52196 0.0
H1237 H 0.50536 0.67015 0.32968 0.0
H1238 H 0.52049 0.69472 0.31174 0.0
H1239 H 0.49678 0.69536 0.3682 0.0
C1240 C 0.5684 0.74488 0.34694 0.0
C1241 C 0.55104 0.75837 0.32665 0.0
C1242 C 0.56488 0.72565 0.38614 0.0
C1243 C 0.54384 0.71928 0.40721 0.0
C1244 C 0.52659 0.73352 0.39096 0.0
H1245 H 0.53187 0.60552 0.70464 0.0
H1246 H 0.53385 0.6426 0.65699 0.0
C1247 C 0.5301 0.75268 0.35057 0.0
C1248 C 0.54025 0.69761 0.44438 0.0
H1249 H 0.51081 0.65008 0.43631 0.0
C1250 C 0.5536 0.69188 0.503 0.0
C1251 C 0.52493 0.68191 0.41963 0.0
C1252 C 0.51124 0.6857 0.35345 0.0
C1253 C 0.55225 0.67123 0.5366 0.0
C1254 C 0.53642 0.65578 0.51334 0.0
C1255 C 0.5229 0.66166 0.45526 0.0
C1256 C 0.53433 0.63307 0.54479 0.0
C1257 C 0.56862 0.66601 0.5945 0.0
C1258 C 0.53265 0.61489 0.49898 0.0
C1259 C 0.5304 0.59372 0.5265 0.0
C1260 C 0.53032 0.58966 0.60092 0.0
C1261 C 0.53187 0.60779 0.64709 0.0
C1262 C 0.53345 0.62916 0.61953 0.0
H1263 H 0.58342 0.67637 0.58988 0.0
H1264 H 0.56135 0.66923 0.64786 0.0
H1265 H 0.57361 0.64871 0.59218 0.0
H1266 H 0.53309 0.61701 0.44125 0.0
H1267 H 0.52852 0.58051 0.48893 0.0
H1268 H 0.80308 0.58815 0.32564 0.0
H1269 H 0.83726 0.58264 0.39086 0.0
H1270 H 0.82705 0.51325 0.38224 0.0
H1271 H 0.79275 0.51887 0.3161 0.0
H1272 H 0.84492 0.52952 0.51874 0.0
H1273 H 0.89138 0.55947 0.28333 0.0
H1274 H 0.87053 0.5775 0.31388 0.0
H1275 H 0.86318 0.55141 0.27739 0.0
C1276 C 0.80789 0.57174 0.33923 0.0
C1277 C 0.79515 0.55397 0.31601 0.0
C1278 C 0.82756 0.56858 0.37588 0.0
C1279 C 0.83509 0.54751 0.39049 0.0
C1280 C 0.82172 0.52969 0.37146 0.0
H1281 H 0.97038 0.51378 0.48467 0.0
H1282 H 0.93372 0.51685 0.43428 0.0
C1283 C 0.80197 0.53288 0.33437 0.0
C1284 C 0.8573 0.54426 0.42232 0.0
H1285 H 0.9114 0.55352 0.39053 0.0
C1286 C 0.85944 0.53473 0.49062 0.0
C1287 C 0.87642 0.55077 0.38554 0.0
C1288 C 0.8754 0.56018 0.31072 0.0
C1289 C 0.87999 0.532 0.52352 0.0
C1290 C 0.89905 0.53915 0.48768 0.0
C1291 C 0.89691 0.54823 0.41869 0.0
C1292 C 0.92137 0.53696 0.51999 0.0
C1293 C 0.88112 0.52113 0.59602 0.0
C1294 C 0.92697 0.54731 0.58501 0.0
C1295 C 0.94797 0.54534 0.61455 0.0
C1296 C 0.96405 0.53343 0.5787 0.0
C1297 C 0.95843 0.52314 0.51362 0.0
C1298 C 0.93742 0.5249 0.48464 0.0
H1299 H 0.86621 0.51146 0.60746 0.0
H1300 H 0.89539 0.51024 0.59965 0.0
H1301 H 0.88277 0.53378 0.63821 0.0
H1302 H 0.91518 0.5573 0.61224 0.0
H1303 H 0.95181 0.55372 0.66421 0.0
loop_
_geom_bond_atom_site_label_1
_geom_bond_atom_site_label_2
_geom_bond_distance
_geom_bond_site_symmetry_2
_ccdc_geom_bond_type
C0 N1 1.317 . S
C0 N2 1.348 . S
C0 C3 1.485 . S
N1 C0 1.317 . S
N1 N5 1.370 . S
N2 C0 1.348 . S
N2 C4 1.346 . S
C3 C0 1.485 . S
C3 H7 0.960 . S
C3 H8 0.961 . S
C3 H9 0.960 . S
C4 N2 1.346 . S
C4 N5 1.307 . S
C4 C6 1.486 . S
N5 N1 1.370 . S
N5 C4 1.307 . S
C6 C4 1.486 . S
C6 H10 0.960 . S
C6 H11 0.960 . S
C6 H12 0.959 . S
H7 C3 0.960 . S
H8 C3 0.961 . S
H9 C3 0.960 . S
H10 C6 0.960 . S
H11 C6 0.960 . S
H12 C6 0.959 . S
C13 N14 1.317 . S
C13 N15 1.348 . S
C13 C16 1.485 . S
N14 C13 1.317 . S
N14 N18 1.370 . S
N15 C13 1.348 . S
N15 C17 1.346 . S
C16 C13 1.485 . S
C16 H20 0.960 . S
C16 H21 0.961 . S
C16 H22 0.960 . S
C17 N15 1.346 . S
C17 N18 1.307 . S
C17 C19 1.486 . S
N18 N14 1.370 . S
N18 C17 1.307 . S
C19 C17 1.486 . S
C19 H23 0.960 . S
C19 H24 0.960 . S
C19 H25 0.959 . S
H20 C16 0.960 . S
H21 C16 0.961 . S
H22 C16 0.960 . S
H23 C19 0.960 . S
H24 C19 0.960 . S
H25 C19 0.959 . S
C26 N27 1.317 . S
C26 N28 1.348 . S
C26 C29 1.485 . S
N27 C26 1.317 . S
N27 N31 1.370 . S
N28 C26 1.348 . S
N28 C30 1.346 . S
C29 C26 1.485 . S
C29 H33 0.960 . S
C29 H34 0.961 . S
C29 H35 0.960 . S
C30 N28 1.346 . S
C30 N31 1.307 . S
C30 C32 1.486 . S
N31 N27 1.370 . S
N31 C30 1.307 . S
C32 C30 1.486 . S
C32 H36 0.960 . S
C32 H37 0.960 . S
C32 H38 0.959 . S
H33 C29 0.960 . S
H34 C29 0.961 . S
H35 C29 0.960 . S
H36 C32 0.960 . S
H37 C32 0.960 . S
H38 C32 0.959 . S
C39 N40 1.317 . S
C39 N41 1.348 . S
C39 C42 1.485 . S
N40 C39 1.317 . S
N40 N44 1.370 . S
N41 C39 1.348 . S
N41 C43 1.346 . S
C42 C39 1.485 . S
C42 H46 0.960 . S
C42 H47 0.961 . S
C42 H48 0.960 . S
C43 N41 1.346 . S
C43 N44 1.307 . S
C43 C45 1.486 . S
N44 N40 1.370 . S
N44 C43 1.307 . S
C45 C43 1.486 . S
C45 H49 0.960 . S
C45 H50 0.960 . S
C45 H51 0.959 . S
H46 C42 0.960 . S
H47 C42 0.961 . S
H48 C42 0.960 . S
H49 C45 0.960 . S
H50 C45 0.960 . S
H51 C45 0.959 . S
C52 N53 1.317 1_556 S
C52 N54 1.348 1_556 S
C52 C55 1.485 . S
N53 C52 1.317 1_554 S
N53 N57 1.374 . S
N54 C52 1.348 1_554 S
N54 C56 1.346 . S
C55 C52 1.485 . S
C55 H59 0.960 . S
C55 H60 0.961 . S
C55 H61 0.960 . S
C56 N54 1.346 . S
C56 N57 1.307 . S
C56 C58 1.486 . S
N57 N53 1.374 . S
N57 C56 1.307 . S
C58 C56 1.486 . S
C58 H62 0.960 . S
C58 H63 0.960 . S
C58 H64 0.959 . S
H59 C55 0.960 . S
H60 C55 0.961 . S
H61 C55 0.960 . S
H62 C58 0.960 . S
H63 C58 0.960 . S
H64 C58 0.959 . S
C65 N66 1.317 1_556 S
C65 N67 1.348 1_556 S
C65 C68 1.485 . S
N66 C65 1.317 1_554 S
N66 N70 1.370 . S
N67 C65 1.348 1_554 S
N67 C69 1.346 . S
C68 C65 1.485 . S
C68 H72 0.960 . S
C68 H73 0.961 . S
C68 H74 0.960 . S
C69 N67 1.346 . S
C69 N70 1.307 . S
C69 C71 1.486 . S
N70 N66 1.370 . S
N70 C69 1.307 . S
C71 C69 1.486 . S
C71 H75 0.960 . S
C71 H76 0.960 . S
C71 H77 0.959 . S
H72 C68 0.960 . S
H73 C68 0.961 . S
H74 C68 0.960 . S
H75 C71 0.960 . S
H76 C71 0.960 . S
H77 C71 0.959 . S
C78 N79 1.317 1_556 S
C78 N80 1.348 1_556 S
C78 C81 1.485 . S
N79 C78 1.317 1_554 S
N79 N83 1.370 . S
N80 C78 1.348 1_554 S
N80 C82 1.346 . S
C81 C78 1.485 . S
C81 H85 0.960 . S
C81 H86 0.961 . S
C81 H87 0.960 . S
C82 N80 1.346 . S
C82 N83 1.307 . S
C82 C84 1.486 . S
N83 N79 1.370 . S
N83 C82 1.307 . S
C84 C82 1.486 . S
C84 H88 0.960 . S
C84 H89 0.960 . S
C84 H90 0.959 . S
H85 C81 0.960 . S
H86 C81 0.961 . S
H87 C81 0.960 . S
H88 C84 0.960 . S
H89 C84 0.960 . S
H90 C84 0.959 . S
C91 N92 1.317 . S
C91 N93 1.348 1_556 S
C91 C94 1.485 . S
N92 C91 1.317 . S
N92 N96 1.370 1_556 S
N93 C91 1.348 1_554 S
N93 C95 1.346 . S
C94 C91 1.485 . S
C94 H98 0.960 . S
C94 H99 0.961 . S
C94 H100 0.960 . S
C95 N93 1.346 . S
C95 N96 1.307 . S
C95 C97 1.486 . S
N96 N92 1.370 1_554 S
N96 C95 1.307 . S
C97 C95 1.486 . S
C97 H101 0.960 . S
C97 H102 0.960 . S
C97 H103 0.959 . S
H98 C94 0.960 . S
H99 C94 0.961 . S
H100 C94 0.960 . S
H101 C97 0.960 . S
H102 C97 0.960 . S
H103 C97 0.959 . S
C104 C106 1.422 . S
C104 C108 1.415 . S
C104 N110 1.369 . S
C105 C106 1.421 . S
C105 C107 1.417 . S
C105 C117 1.422 . S
C106 C104 1.422 . S
C106 C105 1.421 . S
C106 N116 1.359 . S
C107 C105 1.417 . S
C107 C109 1.329 . S
C107 H126 0.930 1_556 S
C108 C104 1.415 . S
C108 C109 1.437 . S
C108 C112 1.413 . S
C109 C107 1.329 . S
C109 C108 1.437 . S
C109 H131 0.929 . S
N110 C104 1.369 . S
N110 C111 1.338 . S
N110 Gd115 2.622 1_545 S
C111 N110 1.338 . S
C111 C113 1.378 . S
C111 H123 0.929 1_545 S
C112 C108 1.413 . S
C112 C113 1.348 . S
C112 H128 0.931 . S
C113 C111 1.378 . S
C113 C112 1.348 . S
C113 H129 0.930 . S
Gd114 N134 2.622 . S
Gd114 N141 2.570 . S
Gd114 O148 2.353 1_655 S
Gd114 O149 2.468 1_655 S
Gd114 O150 2.427 . S
Gd114 O152 2.388 . S
Gd114 O153 2.386 1_545 S
Gd114 O157 2.307 1_655 S
Gd114 C167 2.805 . S
Gd115 N110 2.622 1_565 S
Gd115 N116 2.570 1_565 S
Gd115 O147 2.386 1_565 S
Gd115 O151 2.307 1_465 S
Gd115 O154 2.353 . S
Gd115 O155 2.468 . S
Gd115 O156 2.427 . S
Gd115 O158 2.387 1_565 S
Gd115 C179 2.805 . S
N116 C106 1.359 . S
N116 Gd115 2.570 1_545 S
N116 C118 1.343 . S
C117 C105 1.422 . S
C117 C119 1.321 . S
C117 H125 0.931 1_556 S
C118 N116 1.343 . S
C118 C119 1.390 . S
C118 H120 0.931 1_455 S
C119 C117 1.321 . S
C119 C118 1.390 . S
C119 H121 0.930 1_455 S
H120 C118 0.931 1_655 S
H121 C119 0.930 1_655 S
H122 C145 0.931 . S
H123 C111 0.929 1_565 S
H124 C146 0.934 . S
H125 C117 0.931 1_554 S
H126 C107 0.930 1_554 S
H127 C136 0.929 . S
H128 C112 0.931 . S
H129 C113 0.930 . S
H130 C168 0.930 . S
H131 C109 0.929 . S
H132 C137 0.939 . S
H133 C138 0.930 . S
N134 Gd114 2.622 . S
N134 C135 1.369 . S
N134 C136 1.338 . S
C135 N134 1.369 . S
C135 C139 1.415 1_545 S
C135 C142 1.422 . S
C136 H127 0.929 . S
C136 N134 1.338 . S
C136 C138 1.378 . S
C137 H132 0.939 . S
C137 C138 1.338 1_565 S
C137 C139 1.415 . S
C138 H133 0.930 . S
C138 C136 1.378 . S
C138 C137 1.338 1_545 S
C139 C135 1.415 1_565 S
C139 C137 1.415 . S
C139 C169 1.437 . S
H140 C169 0.929 . S
N141 Gd114 2.570 . S
N141 C142 1.359 . S
N141 C145 1.343 1_655 S
C142 C135 1.422 . S
C142 N141 1.359 . S
C142 C144 1.421 1_545 S
C143 C144 1.422 . S
C143 C146 1.336 1_655 S
C143 H170 0.931 . S
C144 C142 1.421 1_565 S
C144 C143 1.422 . S
C144 C168 1.417 . S
C145 H122 0.931 . S
C145 N141 1.343 1_455 S
C145 C146 1.373 1_545 S
C146 H124 0.934 . S
C146 C143 1.336 1_455 S
C146 C145 1.373 1_565 S
O147 Gd115 2.386 1_545 S
O147 C159 1.265 . S
O148 Gd114 2.353 1_455 S
O148 C159 1.242 . S
O149 Gd114 2.468 1_455 S
O149 C167 1.263 1_455 S
O150 Gd114 2.427 . S
O150 C167 1.252 . S
O151 Gd115 2.307 1_645 S
O151 C160 1.261 . S
O152 Gd114 2.388 . S
O152 C160 1.252 . S
O153 Gd114 2.386 1_565 S
O153 C171 1.265 . S
O154 Gd115 2.353 . S
O154 C171 1.242 1_455 S
O155 Gd115 2.468 . S
O155 C179 1.263 . S
O156 Gd115 2.427 . S
O156 C179 1.252 . S
O157 Gd114 2.307 1_455 S
O157 C172 1.261 . S
O158 Gd115 2.387 1_545 S
O158 C172 1.254 . S
C159 O147 1.265 . S
C159 O148 1.242 . S
C160 O151 1.261 . S
C160 O152 1.252 . S
C161 C164 1.394 . S
C161 C166 1.370 1_655 S
C161 C167 1.500 . S
C162 C165 1.383 . S
C162 C166 1.395 1_655 S
C163 C164 1.396 . S
C163 C165 1.365 . S
C163 H180 0.929 . S
C164 C161 1.394 . S
C164 C163 1.396 . S
C164 H181 0.930 . S
C165 C162 1.383 . S
C165 C163 1.365 . S
C165 H182 0.931 . S
C166 C161 1.370 1_455 S
C166 C162 1.395 1_455 S
C166 H183 0.930 . S
C167 Gd114 2.805 . S
C167 O149 1.263 1_655 S
C167 O150 1.252 . S
C167 C161 1.500 . S
C168 H130 0.930 . S
C168 C144 1.417 . S
C168 C169 1.329 . S
C169 C139 1.437 . S
C169 H140 0.929 . S
C169 C168 1.329 . S
H170 C143 0.931 . S
C171 O153 1.265 . S
C171 O154 1.242 1_655 S
C172 O157 1.261 . S
C172 O158 1.254 . S
C173 C176 1.394 . S
C173 C178 1.370 . S
C173 C179 1.500 . S
C174 C177 1.383 . S
C174 C178 1.395 . S
C175 C176 1.396 . S
C175 C177 1.365 . S
C175 H184 0.929 . S
C176 C173 1.394 . S
C176 C175 1.396 . S
C176 H185 0.930 . S
C177 C174 1.383 . S
C177 C175 1.365 . S
C177 H186 0.931 . S
C178 C173 1.370 . S
C178 C174 1.395 . S
C178 H187 0.930 . S
C179 Gd115 2.805 . S
C179 O155 1.263 . S
C179 O156 1.252 . S
C179 C173 1.500 . S
H180 C163 0.929 . S
H181 C164 0.930 . S
H182 C165 0.931 . S
H183 C166 0.930 . S
H184 C175 0.929 . S
H185 C176 0.930 . S
H186 C177 0.931 . S
H187 C178 0.930 . S
C188 C190 1.422 . S
C188 C192 1.415 . S
C188 N194 1.369 . S
C189 C190 1.421 . S
C189 C191 1.417 . S
C189 C201 1.422 . S
C190 C188 1.422 . S
C190 C189 1.421 . S
C190 N200 1.359 . S
C191 C189 1.417 . S
C191 C193 1.329 . S
C191 H210 0.930 . S
C192 C188 1.415 . S
C192 C193 1.437 . S
C192 C196 1.413 . S
C193 C191 1.329 . S
C193 C192 1.437 . S
C193 H215 0.929 . S
N194 C188 1.369 . S
N194 C195 1.338 . S
N194 Gd199 2.622 . S
C195 N194 1.338 . S
C195 C197 1.378 . S
C195 H207 0.929 . S
C196 C192 1.413 . S
C196 C197 1.348 . S
C196 H212 0.931 . S
C197 C195 1.378 . S
C197 C196 1.348 . S
C197 H213 0.930 . S
Gd198 N218 2.622 . S
Gd198 N225 2.570 . S
Gd198 O232 2.353 1_545 S
Gd198 O233 2.468 . S
Gd198 O234 2.427 . S
Gd198 O236 2.388 . S
Gd198 O237 2.386 . S
Gd198 O241 2.307 . S
Gd198 C251 2.805 . S
Gd199 N194 2.622 . S
Gd199 N200 2.570 . S
Gd199 O231 2.386 . S
Gd199 O235 2.307 1_565 S
Gd199 O238 2.353 1_565 S
Gd199 O239 2.466 1_565 S
Gd199 O240 2.427 . S
Gd199 O242 2.388 . S
Gd199 C263 2.805 . S
N200 C190 1.359 . S
N200 Gd199 2.570 . S
N200 C202 1.343 . S
C201 C189 1.422 . S
C201 C203 1.321 . S
C201 H209 0.931 . S
C202 N200 1.343 . S
C202 C203 1.390 . S
C202 H204 0.931 . S
C203 C201 1.321 . S
C203 C202 1.390 . S
C203 H205 0.930 . S
H204 C202 0.931 . S
H205 C203 0.930 . S
H206 C229 0.931 . S
H207 C195 0.929 . S
H208 C230 0.930 . S
H209 C201 0.931 . S
H210 C191 0.930 . S
H211 C220 0.929 . S
H212 C196 0.931 . S
H213 C197 0.930 . S
H214 C252 0.930 . S
H215 C193 0.929 . S
H216 C221 0.931 . S
H217 C222 0.930 . S
N218 Gd198 2.622 . S
N218 C219 1.369 . S
N218 C220 1.338 . S
C219 N218 1.369 . S
C219 C223 1.415 . S
C219 C226 1.422 . S
C220 H211 0.929 . S
C220 N218 1.338 . S
C220 C222 1.378 . S
C221 H216 0.931 . S
C221 C222 1.348 . S
C221 C223 1.413 . S
C222 H217 0.930 . S
C222 C220 1.378 . S
C222 C221 1.348 . S
C223 C219 1.415 . S
C223 C221 1.413 . S
C223 C253 1.437 . S
H224 C253 0.929 . S
N225 Gd198 2.570 . S
N225 C226 1.359 . S
N225 C229 1.343 . S
C226 C219 1.422 . S
C226 N225 1.359 . S
C226 C228 1.421 . S
C227 C228 1.422 . S
C227 C230 1.321 . S
C227 H254 0.931 . S
C228 C226 1.421 . S
C228 C227 1.422 . S
C228 C252 1.417 . S
C229 H206 0.931 . S
C229 N225 1.343 . S
C229 C230 1.390 . S
C230 H208 0.930 . S
C230 C227 1.321 . S
C230 C229 1.390 . S
O231 Gd199 2.386 . S
O231 C243 1.265 . S
O232 Gd198 2.353 1_565 S
O232 C243 1.242 . S
O233 Gd198 2.468 . S
O233 C251 1.263 . S
O234 Gd198 2.427 . S
O234 C251 1.252 . S
O235 Gd199 2.307 1_545 S
O235 C244 1.261 . S
O236 Gd198 2.388 . S
O236 C244 1.252 . S
O237 Gd198 2.386 . S
O237 C255 1.265 . S
O238 Gd199 2.353 1_545 S
O238 C255 1.242 . S
O239 Gd199 2.466 1_545 S
O239 C263 1.262 1_545 S
O240 Gd199 2.427 . S
O240 C263 1.252 . S
O241 Gd198 2.307 . S
O241 C256 1.261 . S
O242 Gd199 2.388 . S
O242 C256 1.252 1_565 S
C243 O231 1.265 . S
C243 O232 1.242 . S
C244 O235 1.261 . S
C244 O236 1.252 . S
C245 C248 1.394 . S
C245 C250 1.370 . S
C245 C251 1.500 . S
C246 C249 1.383 1_556 S
C246 C250 1.395 . S
C247 C248 1.396 1_554 S
C247 C249 1.365 . S
C247 H264 0.929 . S
C248 C245 1.394 . S
C248 C247 1.396 1_556 S
C248 H265 0.930 . S
C249 C246 1.383 1_554 S
C249 C247 1.365 . S
C249 H266 0.931 . S
C250 C245 1.370 . S
C250 C246 1.395 . S
C250 H267 0.930 . S
C251 Gd198 2.805 . S
C251 O233 1.263 . S
C251 O234 1.252 . S
C251 C245 1.500 . S
C252 H214 0.930 . S
C252 C228 1.417 . S
C252 C253 1.329 . S
C253 C223 1.437 . S
C253 H224 0.929 . S
C253 C252 1.329 . S
H254 C227 0.931 . S
C255 O237 1.265 . S
C255 O238 1.242 . S
C256 O241 1.261 . S
C256 O242 1.252 1_545 S
C257 C260 1.392 1_545 S
C257 C262 1.372 . S
C257 C263 1.499 1_545 S
C258 C261 1.383 . S
C258 C262 1.395 . S
C259 C260 1.396 . S
C259 C261 1.365 1_565 S
C259 H268 0.929 . S
C260 C257 1.392 1_565 S
C260 C259 1.396 . S
C260 H269 0.930 . S
C261 C258 1.383 . S
C261 C259 1.365 1_545 S
C261 H270 0.931 . S
C262 C257 1.372 . S
C262 C258 1.395 . S
C262 H271 0.930 . S
C263 Gd199 2.805 . S
C263 O239 1.262 1_565 S
C263 O240 1.252 . S
C263 C257 1.499 1_565 S
H264 C247 0.929 . S
H265 C248 0.930 . S
H266 C249 0.931 . S
H267 C250 0.930 . S
H268 C259 0.929 . S
H269 C260 0.930 . S
H270 C261 0.931 . S
H271 C262 0.930 . S
C272 C274 1.422 . S
C272 C276 1.415 . S
C272 N278 1.369 . S
C273 C274 1.421 . S
C273 C275 1.417 . S
C273 C285 1.422 . S
C274 C272 1.422 . S
C274 C273 1.421 . S
C274 N284 1.359 . S
C275 C273 1.417 . S
C275 C277 1.329 . S
C275 H294 0.930 1_556 S
C276 C272 1.415 . S
C276 C277 1.437 . S
C276 C280 1.413 . S
C277 C275 1.329 . S
C277 C276 1.437 . S
C277 H299 0.929 . S
N278 C272 1.369 . S
N278 C279 1.338 . S
N278 Gd283 2.622 . S
C279 N278 1.338 . S
C279 C281 1.378 . S
C279 H291 0.929 . S
C280 C276 1.413 . S
C280 C281 1.348 . S
C280 H296 0.931 . S
C281 C279 1.378 . S
C281 C280 1.348 . S
C281 H297 0.930 . S
Gd282 N302 2.622 . S
Gd282 N309 2.570 . S
Gd282 O316 2.353 . S
Gd282 O317 2.468 . S
Gd282 O318 2.427 . S
Gd282 O320 2.388 . S
Gd282 O321 2.386 . S
Gd282 O325 2.307 . S
Gd282 C335 2.805 . S
Gd283 N278 2.622 . S
Gd283 N284 2.570 . S
Gd283 O315 2.386 . S
Gd283 O319 2.307 . S
Gd283 O322 2.353 . S
Gd283 O323 2.468 . S
Gd283 O324 2.427 . S
Gd283 O326 2.388 . S
Gd283 C347 2.805 . S
N284 C274 1.359 . S
N284 Gd283 2.570 . S
N284 C286 1.343 . S
C285 C273 1.422 . S
C285 C287 1.321 . S
C285 H293 0.931 1_556 S
C286 N284 1.343 . S
C286 C287 1.390 . S
C286 H288 0.931 . S
C287 C285 1.321 . S
C287 C286 1.390 . S
C287 H289 0.930 . S
H288 C286 0.931 . S
H289 C287 0.930 . S
H290 C313 0.931 . S
H291 C279 0.929 . S
H292 C314 0.930 . S
H293 C285 0.931 1_554 S
H294 C275 0.930 1_554 S
H295 C304 0.929 . S
H296 C280 0.931 . S
H297 C281 0.930 . S
H298 C336 0.930 . S
H299 C277 0.929 . S
H300 C305 0.931 . S
H301 C306 0.930 . S
N302 Gd282 2.622 . S
N302 C303 1.369 . S
N302 C304 1.338 . S
C303 N302 1.369 . S
C303 C307 1.415 . S
C303 C310 1.422 . S
C304 H295 0.929 . S
C304 N302 1.338 . S
C304 C306 1.378 . S
C305 H300 0.931 . S
C305 C306 1.348 . S
C305 C307 1.413 . S
C306 H301 0.930 . S
C306 C304 1.378 . S
C306 C305 1.348 . S
C307 C303 1.415 . S
C307 C305 1.413 . S
C307 C337 1.437 . S
H308 C337 0.929 . S
N309 Gd282 2.570 . S
N309 C310 1.359 . S
N309 C313 1.343 . S
C310 C303 1.422 . S
C310 N309 1.359 . S
C310 C312 1.421 . S
C311 C312 1.422 . S
C311 C314 1.321 . S
C311 H338 0.931 . S
C312 C310 1.421 . S
C312 C311 1.422 . S
C312 C336 1.417 . S
C313 H290 0.931 . S
C313 N309 1.343 . S
C313 C314 1.390 . S
C314 H292 0.930 . S
C314 C311 1.321 . S
C314 C313 1.390 . S
O315 Gd283 2.386 . S
O315 C327 1.265 . S
O316 Gd282 2.353 . S
O316 C327 1.242 . S
O317 Gd282 2.468 . S
O317 C335 1.263 . S
O318 Gd282 2.427 . S
O318 C335 1.252 . S
O319 Gd283 2.307 . S
O319 C328 1.261 . S
O320 Gd282 2.388 . S
O320 C328 1.252 . S
O321 Gd282 2.386 . S
O321 C339 1.265 . S
O322 Gd283 2.353 . S
O322 C339 1.242 . S
O323 Gd283 2.468 . S
O323 C347 1.263 . S
O324 Gd283 2.427 . S
O324 C347 1.252 . S
O325 Gd282 2.307 . S
O325 C340 1.261 . S
O326 Gd283 2.388 . S
O326 C340 1.252 . S
C327 O315 1.265 . S
C327 O316 1.242 . S
C328 O319 1.261 . S
C328 O320 1.252 . S
C329 C332 1.394 . S
C329 C334 1.370 . S
C329 C335 1.500 . S
C330 C333 1.383 . S
C330 C334 1.395 . S
C331 C332 1.396 . S
C331 C333 1.365 . S
C331 H348 0.929 . S
C332 C329 1.394 . S
C332 C331 1.396 . S
C332 H349 0.930 . S
C333 C330 1.383 . S
C333 C331 1.365 . S
C333 H350 0.931 . S
C334 C329 1.370 . S
C334 C330 1.395 . S
C334 H351 0.930 . S
C335 Gd282 2.805 . S
C335 O317 1.263 . S
C335 O318 1.252 . S
C335 C329 1.500 . S
C336 H298 0.930 . S
C336 C312 1.417 . S
C336 C337 1.329 . S
C337 C307 1.437 . S
C337 H308 0.929 . S
C337 C336 1.329 . S
H338 C311 0.931 . S
C339 O321 1.265 . S
C339 O322 1.242 . S
C340 O325 1.261 . S
C340 O326 1.252 . S
C341 C344 1.394 . S
C341 C346 1.370 . S
C341 C347 1.500 . S
C342 C345 1.383 . S
C342 C346 1.395 . S
C343 C344 1.396 . S
C343 C345 1.365 . S
C343 H352 0.929 . S
C344 C341 1.394 . S
C344 C343 1.396 . S
C344 H353 0.930 . S
C345 C342 1.383 . S
C345 C343 1.365 . S
C345 H354 0.931 . S
C346 C341 1.370 . S
C346 C342 1.395 . S
C346 H355 0.930 . S
C347 Gd283 2.805 . S
C347 O323 1.263 . S
C347 O324 1.252 . S
C347 C341 1.500 . S
H348 C331 0.929 . S
H349 C332 0.930 . S
H350 C333 0.931 . S
H351 C334 0.930 . S
H352 C343 0.929 . S
H353 C344 0.930 . S
H354 C345 0.931 . S
H355 C346 0.930 . S
C356 C358 1.422 . S
C356 C360 1.415 . S
C356 N362 1.369 . S
C357 C358 1.421 . S
C357 C359 1.417 . S
C357 C369 1.422 . S
C358 C356 1.422 . S
C358 C357 1.421 . S
C358 N368 1.359 . S
C359 C357 1.417 . S
C359 C361 1.329 . S
C359 H378 0.930 1_556 S
C360 C356 1.415 . S
C360 C361 1.437 . S
C360 C364 1.413 . S
C361 C359 1.329 . S
C361 C360 1.437 . S
C361 H383 0.929 . S
N362 C356 1.369 . S
N362 C363 1.335 1_455 S
N362 Gd367 2.622 1_455 S
C363 N362 1.335 1_655 S
C363 C365 1.368 1_655 S
C363 H375 0.943 . S
C364 C360 1.413 . S
C364 C365 1.348 . S
C364 H380 0.931 . S
C365 C363 1.368 1_455 S
C365 C364 1.348 . S
C365 H381 0.930 . S
Gd366 N386 2.622 . S
Gd366 N393 2.570 . S
Gd366 O400 2.353 . S
Gd366 O401 2.468 . S
Gd366 O402 2.427 . S
Gd366 O404 2.388 . S
Gd366 O405 2.386 1_455 S
Gd366 O409 2.307 . S
Gd366 C419 2.805 . S
Gd367 N362 2.622 1_655 S
Gd367 N368 2.570 1_655 S
Gd367 O399 2.386 1_655 S
Gd367 O403 2.307 1_655 S
Gd367 O406 2.353 . S
Gd367 O407 2.468 . S
Gd367 O408 2.427 . S
Gd367 O410 2.388 . S
Gd367 C431 2.805 . S
N368 C358 1.359 . S
N368 Gd367 2.570 1_455 S
N368 C370 1.343 . S
C369 C357 1.422 . S
C369 C371 1.321 . S
C369 H377 0.931 1_556 S
C370 N368 1.343 . S
C370 C371 1.390 . S
C370 H372 0.931 . S
C371 C369 1.321 . S
C371 C370 1.390 . S
C371 H373 0.930 . S
H372 C370 0.931 . S
H373 C371 0.930 . S
H374 C397 0.931 . S
H375 C363 0.943 . S
H376 C398 0.930 . S
H377 C369 0.931 1_554 S
H378 C359 0.930 1_554 S
H379 C388 0.929 . S
H380 C364 0.931 . S
H381 C365 0.930 . S
H382 C420 0.930 . S
H383 C361 0.929 . S
H384 C389 0.931 . S
H385 C390 0.930 . S
N386 Gd366 2.622 . S
N386 C387 1.369 . S
N386 C388 1.338 . S
C387 N386 1.369 . S
C387 C391 1.415 1_455 S
C387 C394 1.422 . S
C388 H379 0.929 . S
C388 N386 1.338 . S
C388 C390 1.378 . S
C389 H384 0.931 . S
C389 C390 1.348 1_655 S
C389 C391 1.413 . S
C390 H385 0.930 . S
C390 C388 1.378 . S
C390 C389 1.348 1_455 S
C391 C387 1.415 1_655 S
C391 C389 1.413 . S
C391 C421 1.437 . S
H392 C421 0.929 . S
N393 Gd366 2.570 . S
N393 C394 1.359 . S
N393 C397 1.343 . S
C394 C387 1.422 . S
C394 N393 1.359 . S
C394 C396 1.421 1_455 S
C395 C396 1.422 . S
C395 C398 1.321 . S
C395 H422 0.931 . S
C396 C394 1.421 1_655 S
C396 C395 1.422 . S
C396 C420 1.417 . S
C397 H374 0.931 . S
C397 N393 1.343 . S
C397 C398 1.390 1_455 S
C398 H376 0.930 . S
C398 C395 1.321 . S
C398 C397 1.390 1_655 S
O399 Gd367 2.386 1_455 S
O399 C411 1.265 . S
O400 Gd366 2.353 . S
O400 C411 1.242 . S
O401 Gd366 2.468 . S
O401 C419 1.263 . S
O402 Gd366 2.427 . S
O402 C419 1.252 . S
O403 Gd367 2.307 1_455 S
O403 C412 1.261 . S
O404 Gd366 2.388 . S
O404 C412 1.252 . S
O405 Gd366 2.386 1_655 S
O405 C423 1.265 . S
O406 Gd367 2.353 . S
O406 C423 1.242 . S
O407 Gd367 2.468 . S
O407 C431 1.263 . S
O408 Gd367 2.427 . S
O408 C431 1.252 . S
O409 Gd366 2.307 . S
O409 C424 1.261 . S
O410 Gd367 2.388 . S
O410 C424 1.252 1_655 S
C411 O399 1.265 . S
C411 O400 1.242 . S
C412 O403 1.261 . S
C412 O404 1.252 . S
C413 C416 1.394 . S
C413 C418 1.370 . S
C413 C419 1.500 . S
C414 C417 1.383 . S
C414 C418 1.395 . S
C415 C416 1.396 . S
C415 C417 1.365 . S
C415 H432 0.929 . S
C416 C413 1.394 . S
C416 C415 1.396 . S
C416 H433 0.930 . S
C417 C414 1.383 . S
C417 C415 1.365 . S
C417 H434 0.931 . S
C418 C413 1.370 . S
C418 C414 1.395 . S
C418 H435 0.930 . S
C419 Gd366 2.805 . S
C419 O401 1.263 . S
C419 O402 1.252 . S
C419 C413 1.500 . S
C420 H382 0.930 . S
C420 C396 1.417 . S
C420 C421 1.329 . S
C421 C391 1.437 . S
C421 H392 0.929 . S
C421 C420 1.329 . S
H422 C395 0.931 . S
C423 O405 1.265 . S
C423 O406 1.242 . S
C424 O409 1.261 . S
C424 O410 1.252 1_455 S
C425 C428 1.394 . S
C425 C430 1.370 . S
C425 C431 1.500 . S
C426 C429 1.383 . S
C426 C430 1.395 . S
C427 C428 1.396 . S
C427 C429 1.365 . S
C427 H436 0.929 . S
C428 C425 1.394 . S
C428 C427 1.396 . S
C428 H437 0.930 . S
C429 C426 1.383 . S
C429 C427 1.365 . S
C429 H438 0.931 . S
C430 C425 1.370 . S
C430 C426 1.395 . S
C430 H439 0.930 . S
C431 Gd367 2.805 . S
C431 O407 1.263 . S
C431 O408 1.252 . S
C431 C425 1.500 . S
H432 C415 0.929 . S
H433 C416 0.930 . S
H434 C417 0.931 . S
H435 C418 0.930 . S
H436 C427 0.929 . S
H437 C428 0.930 . S
H438 C429 0.931 . S
H439 C430 0.930 . S
H440 C448 0.929 . S
H441 C450 0.930 . S
H442 C452 0.930 . S
H443 C455 0.929 . S
H444 C458 0.930 . S
H445 C460 0.960 . S
H446 C460 0.960 . S
H447 C460 0.960 . S
C448 H440 0.929 . S
C448 C449 1.377 . S
C448 C450 1.384 . S
C449 C448 1.377 . S
C449 C455 1.390 . S
C450 H441 0.930 . S
C450 C448 1.384 . S
C450 C451 1.372 . S
C451 C450 1.372 . S
C451 C452 1.400 . S
C451 C456 1.490 . S
C452 H442 0.930 . S
C452 C451 1.400 . S
C452 C455 1.386 . S
H453 C469 0.930 . S
H454 C470 0.931 . S
C455 H443 0.929 . S
C455 C449 1.390 . S
C455 C452 1.386 . S
C456 C451 1.490 . S
C456 C458 1.395 . S
C456 C459 1.403 . S
H457 C463 0.930 . S
C458 H444 0.930 . S
C458 C456 1.395 . S
C458 C461 1.403 . S
C459 C456 1.403 . S
C459 C460 1.524 . S
C459 C463 1.400 . S
C460 H445 0.960 . S
C460 H446 0.960 . S
C460 H447 0.960 . S
C460 C459 1.524 . S
C461 C458 1.403 . S
C461 C462 1.392 . S
C461 C465 1.495 . S
C462 C461 1.392 . S
C462 C463 1.385 . S
C462 C464 1.478 . S
C463 H457 0.930 . S
C463 C459 1.400 . S
C463 C462 1.385 . S
C464 C462 1.478 . S
C464 C466 1.381 . S
C464 C470 1.383 . S
C465 C461 1.495 . S
C465 H471 0.959 . S
C465 H472 0.961 . S
C465 H473 0.960 1_545 S
C466 C464 1.381 . S
C466 C467 1.396 . S
C466 H474 0.930 1_545 S
C467 C466 1.396 . S
C467 C468 1.398 . S
C467 H475 0.913 1_545 S
C468 C467 1.398 . S
C468 C469 1.377 . S
C469 H453 0.930 . S
C469 C468 1.377 . S
C469 C470 1.379 . S
C470 H454 0.931 . S
C470 C464 1.383 . S
C470 C469 1.379 . S
H471 C465 0.959 . S
H472 C465 0.961 . S
H473 C465 0.960 1_565 S
H474 C466 0.930 1_565 S
H475 C467 0.913 1_565 S
H476 C484 0.929 . S
H477 C486 0.930 . S
H478 C488 0.930 . S
H479 C491 0.929 . S
H480 C494 0.930 . S
H481 C496 0.960 . S
H482 C496 0.960 . S
H483 C496 0.960 . S
C484 H476 0.929 . S
C484 C485 1.377 . S
C484 C486 1.384 . S
C485 C484 1.377 . S
C485 C491 1.390 . S
C486 H477 0.930 . S
C486 C484 1.384 . S
C486 C487 1.372 . S
C487 C486 1.372 . S
C487 C488 1.400 . S
C487 C492 1.490 . S
C488 H478 0.930 . S
C488 C487 1.400 . S
C488 C491 1.386 . S
H489 C505 0.930 . S
H490 C506 0.931 . S
C491 H479 0.929 . S
C491 C485 1.390 . S
C491 C488 1.386 . S
C492 C487 1.490 . S
C492 C494 1.395 . S
C492 C495 1.403 . S
H493 C499 0.930 . S
C494 H480 0.930 . S
C494 C492 1.395 . S
C494 C497 1.403 . S
C495 C492 1.403 . S
C495 C496 1.524 . S
C495 C499 1.400 . S
C496 H481 0.960 . S
C496 H482 0.960 . S
C496 H483 0.960 . S
C496 C495 1.524 . S
C497 C494 1.403 . S
C497 C498 1.392 . S
C497 C501 1.495 . S
C498 C497 1.392 . S
C498 C499 1.385 . S
C498 C500 1.478 . S
C499 H493 0.930 . S
C499 C495 1.400 . S
C499 C498 1.385 . S
C500 C498 1.478 . S
C500 C502 1.381 . S
C500 C506 1.383 . S
C501 C497 1.495 . S
C501 H507 0.959 . S
C501 H508 0.961 . S
C501 H509 0.960 . S
C502 C500 1.381 . S
C502 C503 1.394 . S
C502 H510 0.930 . S
C503 C502 1.394 . S
C503 C504 1.383 . S
C503 H511 0.929 . S
C504 C503 1.383 . S
C504 C505 1.377 . S
C505 H489 0.930 . S
C505 C504 1.377 . S
C505 C506 1.379 . S
C506 H490 0.931 . S
C506 C500 1.383 . S
C506 C505 1.379 . S
H507 C501 0.959 . S
H508 C501 0.961 . S
H509 C501 0.960 . S
H510 C502 0.930 . S
H511 C503 0.929 . S
H512 C520 0.929 . S
H513 C522 0.930 . S
H514 C524 0.930 . S
H515 C527 0.929 . S
H516 C530 0.930 . S
H517 C532 0.960 . S
H518 C532 0.960 . S
H519 C532 0.960 . S
C520 H512 0.929 . S
C520 C521 1.377 . S
C520 C522 1.384 . S
C521 C520 1.377 . S
C521 C527 1.390 . S
C522 H513 0.930 . S
C522 C520 1.384 . S
C522 C523 1.372 . S
C523 C522 1.372 . S
C523 C524 1.400 . S
C523 C528 1.490 . S
C524 H514 0.930 . S
C524 C523 1.400 . S
C524 C527 1.386 . S
H525 C541 0.930 . S
H526 C542 0.931 . S
C527 H515 0.929 . S
C527 C521 1.390 . S
C527 C524 1.386 . S
C528 C523 1.490 . S
C528 C530 1.395 . S
C528 C531 1.403 . S
H529 C535 0.930 . S
C530 H516 0.930 . S
C530 C528 1.395 . S
C530 C533 1.403 . S
C531 C528 1.403 . S
C531 C532 1.524 . S
C531 C535 1.400 . S
C532 H517 0.960 . S
C532 H518 0.960 . S
C532 H519 0.960 . S
C532 C531 1.524 . S
C533 C530 1.403 . S
C533 C534 1.392 . S
C533 C537 1.495 . S
C534 C533 1.392 . S
C534 C535 1.385 . S
C534 C536 1.478 . S
C535 H529 0.930 . S
C535 C531 1.400 . S
C535 C534 1.385 . S
C536 C534 1.478 . S
C536 C538 1.381 . S
C536 C542 1.383 . S
C537 C533 1.495 . S
C537 H543 0.959 . S
C537 H544 0.961 . S
C537 H545 0.960 . S
C538 C536 1.381 . S
C538 C539 1.394 . S
C538 H546 0.930 . S
C539 C538 1.394 . S
C539 C540 1.383 . S
C539 H547 0.929 . S
C540 C539 1.383 . S
C540 C541 1.377 . S
C541 H525 0.930 . S
C541 C540 1.377 . S
C541 C542 1.379 . S
C542 H526 0.931 . S
C542 C536 1.383 . S
C542 C541 1.379 . S
H543 C537 0.959 . S
H544 C537 0.961 . S
H545 C537 0.960 . S
H546 C538 0.930 . S
H547 C539 0.929 . S
H548 C556 0.929 . S
H549 C558 0.930 . S
H550 C560 0.930 . S
H551 C563 0.929 . S
H552 C566 0.930 . S
H553 C568 0.960 . S
H554 C568 0.960 . S
H555 C568 0.960 . S
C556 H548 0.929 . S
C556 C557 1.377 . S
C556 C558 1.384 . S
C557 C556 1.377 . S
C557 C563 1.390 . S
C558 H549 0.930 . S
C558 C556 1.384 . S
C558 C559 1.372 . S
C559 C558 1.372 . S
C559 C560 1.400 . S
C559 C564 1.490 . S
C560 H550 0.930 . S
C560 C559 1.400 . S
C560 C563 1.386 . S
H561 C577 0.972 . S
H562 C578 0.931 1_655 S
C563 H551 0.929 . S
C563 C557 1.390 . S
C563 C560 1.386 . S
C564 C559 1.490 . S
C564 C566 1.395 . S
C564 C567 1.403 . S
H565 C571 0.930 . S
C566 H552 0.930 . S
C566 C564 1.395 . S
C566 C569 1.403 . S
C567 C564 1.403 . S
C567 C568 1.524 . S
C567 C571 1.400 . S
C568 H553 0.960 . S
C568 H554 0.960 . S
C568 H555 0.960 . S
C568 C567 1.524 . S
C569 C566 1.403 . S
C569 C570 1.392 . S
C569 C573 1.495 . S
C570 C569 1.392 . S
C570 C571 1.385 . S
C570 C572 1.478 . S
C571 H565 0.930 . S
C571 C567 1.400 . S
C571 C570 1.385 . S
C572 C570 1.478 . S
C572 C574 1.381 . S
C572 C578 1.383 . S
C573 C569 1.495 . S
C573 H579 0.959 . S
C573 H580 0.961 . S
C573 H581 0.960 . S
C574 C572 1.381 . S
C574 C575 1.394 . S
C574 H582 0.930 . S
C575 C574 1.394 . S
C575 C576 1.383 . S
C575 H583 0.929 . S
C576 C575 1.383 . S
C576 C577 1.341 1_455 S
C577 H561 0.972 . S
C577 C576 1.341 1_655 S
C577 C578 1.374 1_655 S
C578 H562 0.931 1_455 S
C578 C572 1.383 . S
C578 C577 1.374 1_455 S
H579 C573 0.959 . S
H580 C573 0.961 . S
H581 C573 0.960 . S
H582 C574 0.930 . S
H583 C575 0.929 . S
H584 C592 0.929 . S
H585 C594 0.930 . S
H586 C596 0.950 . S
H587 C599 0.929 1_545 S
H588 C602 0.930 . S
H589 C604 0.960 . S
H590 C604 0.960 . S
H591 C604 0.960 . S
C592 H584 0.929 . S
C592 C593 1.377 . S
C592 C594 1.384 . S
C593 C592 1.377 . S
C593 C599 1.390 . S
C594 H585 0.930 . S
C594 C592 1.384 . S
C594 C595 1.372 . S
C595 C594 1.372 . S
C595 C596 1.382 1_565 S
C595 C600 1.490 . S
C596 H586 0.950 . S
C596 C595 1.382 1_545 S
C596 C599 1.383 1_545 S
H597 C613 0.930 . S
H598 C614 0.931 . S
C599 H587 0.929 1_565 S
C599 C593 1.390 . S
C599 C596 1.383 1_565 S
C600 C595 1.490 . S
C600 C602 1.395 1_554 S
C600 C603 1.403 1_565 S
H601 C607 0.930 . S
C602 H588 0.930 . S
C602 C600 1.395 1_556 S
C602 C605 1.403 . S
C603 C600 1.403 1_545 S
C603 C604 1.524 . S
C603 C607 1.400 1_554 S
C604 H589 0.960 . S
C604 H590 0.960 . S
C604 H591 0.960 . S
C604 C603 1.524 . S
C605 C602 1.403 . S
C605 C606 1.392 . S
C605 C609 1.495 . S
C606 C605 1.392 . S
C606 C607 1.385 1_565 S
C606 C608 1.478 . S
C607 H601 0.930 . S
C607 C603 1.400 1_556 S
C607 C606 1.385 1_545 S
C608 C606 1.478 . S
C608 C610 1.381 . S
C608 C614 1.383 1_565 S
C609 C605 1.495 . S
C609 H615 0.959 . S
C609 H616 0.961 . S
C609 H617 0.960 . S
C610 C608 1.381 . S
C610 C611 1.394 . S
C610 H618 0.930 . S
C611 C610 1.394 . S
C611 C612 1.358 1_565 S
C611 H619 0.929 . S
C612 C611 1.358 1_545 S
C612 C613 1.397 . S
C613 H597 0.930 . S
C613 C612 1.397 . S
C613 C614 1.379 . S
C614 H598 0.931 . S
C614 C608 1.383 1_545 S
C614 C613 1.379 . S
H615 C609 0.959 . S
H616 C609 0.961 . S
H617 C609 0.960 . S
H618 C610 0.930 . S
H619 C611 0.929 . S
H620 C628 0.929 . S
H621 C630 0.930 . S
H622 C632 0.930 . S
H623 C635 0.929 . S
H624 C638 0.930 . S
H625 C640 0.960 . S
H626 C640 0.960 . S
H627 C640 0.960 . S
C628 H620 0.929 . S
C628 C629 1.377 . S
C628 C630 1.384 . S
C629 C628 1.377 . S
C629 C635 1.390 . S
C630 H621 0.930 . S
C630 C628 1.384 . S
C630 C631 1.372 . S
C631 C630 1.372 . S
C631 C632 1.400 . S
C631 C636 1.490 . S
C632 H622 0.930 . S
C632 C631 1.400 . S
C632 C635 1.386 . S
H633 C649 0.930 . S
H634 C650 0.931 . S
C635 H623 0.929 . S
C635 C629 1.390 . S
C635 C632 1.386 . S
C636 C631 1.490 . S
C636 C638 1.395 . S
C636 C639 1.403 . S
H637 C643 0.930 . S
C638 H624 0.930 . S
C638 C636 1.395 . S
C638 C641 1.403 1_554 S
C639 C636 1.403 . S
C639 C640 1.524 . S
C639 C643 1.400 1_554 S
C640 H625 0.960 . S
C640 H626 0.960 . S
C640 H627 0.960 . S
C640 C639 1.524 . S
C641 C638 1.403 1_556 S
C641 C642 1.392 . S
C641 C645 1.495 . S
C642 C641 1.392 . S
C642 C643 1.385 . S
C642 C644 1.478 . S
C643 H637 0.930 . S
C643 C639 1.400 1_556 S
C643 C642 1.385 . S
C644 C642 1.478 . S
C644 C646 1.381 . S
C644 C650 1.383 . S
C645 C641 1.495 . S
C645 H651 0.959 . S
C645 H652 0.961 . S
C645 H653 0.960 . S
C646 C644 1.381 . S
C646 C647 1.394 . S
C646 H654 0.930 . S
C647 C646 1.394 . S
C647 C648 1.383 . S
C647 H655 0.929 . S
C648 C647 1.383 . S
C648 C649 1.377 . S
C649 H633 0.930 . S
C649 C648 1.377 . S
C649 C650 1.379 . S
C650 H634 0.931 . S
C650 C644 1.383 . S
C650 C649 1.379 . S
H651 C645 0.959 . S
H652 C645 0.961 . S
H653 C645 0.960 . S
H654 C646 0.930 . S
H655 C647 0.929 . S
H656 C664 0.929 . S
H657 C666 0.930 . S
H658 C668 0.930 . S
H659 C671 0.929 . S
H660 C674 0.930 . S
H661 C676 0.960 . S
H662 C676 0.960 . S
H663 C676 0.960 . S
C664 H656 0.929 . S
C664 C665 1.377 . S
C664 C666 1.384 . S
C665 C664 1.377 . S
C665 C671 1.390 . S
C666 H657 0.930 . S
C666 C664 1.384 . S
C666 C667 1.372 . S
C667 C666 1.372 . S
C667 C668 1.400 . S
C667 C672 1.490 . S
C668 H658 0.930 . S
C668 C667 1.400 . S
C668 C671 1.386 . S
H669 C685 0.930 . S
H670 C686 0.931 . S
C671 H659 0.929 . S
C671 C665 1.390 . S
C671 C668 1.386 . S
C672 C667 1.490 . S
C672 C674 1.395 1_554 S
C672 C675 1.403 . S
H673 C679 0.930 . S
C674 H660 0.930 . S
C674 C672 1.395 1_556 S
C674 C677 1.403 . S
C675 C672 1.403 . S
C675 C676 1.524 . S
C675 C679 1.400 1_554 S
C676 H661 0.960 . S
C676 H662 0.960 . S
C676 H663 0.960 . S
C676 C675 1.524 . S
C677 C674 1.403 . S
C677 C678 1.392 . S
C677 C681 1.495 . S
C678 C677 1.392 . S
C678 C679 1.385 . S
C678 C680 1.478 . S
C679 H673 0.930 . S
C679 C675 1.400 1_556 S
C679 C678 1.385 . S
C680 C678 1.478 . S
C680 C682 1.381 . S
C680 C686 1.383 . S
C681 C677 1.495 . S
C681 H687 0.959 . S
C681 H688 0.961 . S
C681 H689 0.960 . S
C682 C680 1.381 . S
C682 C683 1.394 . S
C682 H690 0.930 . S
C683 C682 1.394 . S
C683 C684 1.383 . S
C683 H691 0.929 . S
C684 C683 1.383 . S
C684 C685 1.377 . S
C685 H669 0.930 . S
C685 C684 1.377 . S
C685 C686 1.379 . S
C686 H670 0.931 . S
C686 C680 1.383 . S
C686 C685 1.379 . S
H687 C681 0.959 . S
H688 C681 0.961 . S
H689 C681 0.960 . S
H690 C682 0.930 . S
H691 C683 0.929 . S
H692 C700 0.929 1_455 S
H693 C702 0.930 1_455 S
H694 C704 0.930 . S
H695 C707 0.929 . S
H696 C710 0.930 . S
H697 C712 0.960 . S
H698 C712 0.960 1_455 S
H699 C712 0.960 . S
C700 H692 0.929 1_655 S
C700 C701 1.377 . S
C700 C702 1.384 . S
C701 C700 1.377 . S
C701 C707 1.390 . S
C702 H693 0.930 1_655 S
C702 C700 1.384 . S
C702 C703 1.372 . S
C703 C702 1.372 . S
C703 C704 1.400 . S
C703 C708 1.490 . S
C704 H694 0.930 . S
C704 C703 1.400 . S
C704 C707 1.386 . S
H705 C721 0.930 . S
H706 C722 0.931 . S
C707 H695 0.929 . S
C707 C701 1.390 . S
C707 C704 1.386 . S
C708 C703 1.490 . S
C708 C710 1.395 . S
C708 C711 1.403 1_554 S
H709 C715 0.930 . S
C710 H696 0.930 . S
C710 C708 1.395 . S
C710 C713 1.403 . S
C711 C708 1.403 1_556 S
C711 C712 1.524 . S
C711 C715 1.400 . S
C712 H697 0.960 . S
C712 H698 0.960 1_655 S
C712 H699 0.960 . S
C712 C711 1.524 . S
C713 C710 1.403 . S
C713 C714 1.392 1_554 S
C713 C717 1.495 . S
C714 C713 1.392 1_556 S
C714 C715 1.385 . S
C714 C716 1.478 . S
C715 H709 0.930 . S
C715 C711 1.400 . S
C715 C714 1.385 . S
C716 C714 1.478 . S
C716 C718 1.381 1_655 S
C716 C722 1.383 . S
C717 C713 1.495 . S
C717 H723 0.959 . S
C717 H724 0.961 . S
C717 H725 0.953 1_655 S
C718 C716 1.381 1_455 S
C718 C719 1.394 . S
C718 H726 0.930 . S
C719 C718 1.394 . S
C719 C720 1.369 1_455 S
C719 H727 0.929 . S
C720 C719 1.369 1_655 S
C720 C721 1.394 . S
C721 H705 0.930 . S
C721 C720 1.394 . S
C721 C722 1.379 . S
C722 H706 0.931 . S
C722 C716 1.383 . S
C722 C721 1.379 . S
H723 C717 0.959 . S
H724 C717 0.961 . S
H725 C717 0.953 1_455 S
H726 C718 0.930 . S
H727 C719 0.929 . S
H728 C736 0.929 . S
H729 C738 0.930 . S
H730 C740 0.930 . S
H731 C743 0.929 . S
H732 C746 0.930 1_655 S
H733 C748 0.960 . S
H734 C748 0.960 . S
H735 C748 0.960 . S
C736 H728 0.929 . S
C736 C737 1.377 . S
C736 C738 1.384 . S
C737 C736 1.377 . S
C737 C743 1.390 . S
C738 H729 0.930 . S
C738 C736 1.384 . S
C738 C739 1.372 . S
C739 C738 1.372 . S
C739 C740 1.400 . S
C739 C744 1.490 . S
C740 H730 0.930 . S
C740 C739 1.400 . S
C740 C743 1.386 . S
H741 C757 0.930 . S
H742 C758 0.931 . S
C743 H731 0.929 . S
C743 C737 1.390 . S
C743 C740 1.386 . S
C744 C739 1.490 . S
C744 C746 1.395 . S
C744 C747 1.403 . S
H745 C751 0.930 . S
C746 H732 0.930 1_455 S
C746 C744 1.395 . S
C746 C749 1.403 . S
C747 C744 1.403 . S
C747 C748 1.524 . S
C747 C751 1.400 . S
C748 H733 0.960 . S
C748 H734 0.960 . S
C748 H735 0.960 . S
C748 C747 1.524 . S
C749 C746 1.403 . S
C749 C750 1.392 . S
C749 C753 1.495 1_455 S
C750 C749 1.392 . S
C750 C751 1.385 . S
C750 C752 1.478 . S
C751 H745 0.930 . S
C751 C747 1.400 . S
C751 C750 1.385 . S
C752 C750 1.478 . S
C752 C754 1.381 1_455 S
C752 C758 1.383 . S
C753 C749 1.495 1_655 S
C753 H759 0.959 . S
C753 H760 0.961 . S
C753 H761 0.960 . S
C754 C752 1.381 1_655 S
C754 C755 1.394 . S
C754 H762 0.930 . S
C755 C754 1.394 . S
C755 C756 1.383 1_655 S
C755 H763 0.929 . S
C756 C755 1.383 1_455 S
C756 C757 1.377 . S
C757 H741 0.930 . S
C757 C756 1.377 . S
C757 C758 1.379 . S
C758 H742 0.931 . S
C758 C752 1.383 . S
C758 C757 1.379 . S
H759 C753 0.959 . S
H760 C753 0.961 . S
H761 C753 0.960 . S
H762 C754 0.930 . S
H763 C755 0.929 . S
H764 C772 0.929 . S
H765 C774 0.930 . S
H766 C776 0.930 . S
H767 C779 0.929 . S
H768 C782 0.930 . S
H769 C784 0.960 . S
H770 C784 0.960 . S
H771 C784 0.960 . S
C772 H764 0.929 . S
C772 C773 1.377 . S
C772 C774 1.384 . S
C773 C772 1.377 . S
C773 C779 1.390 . S
C774 H765 0.930 . S
C774 C772 1.384 . S
C774 C775 1.372 . S
C775 C774 1.372 . S
C775 C776 1.400 . S
C775 C780 1.490 . S
C776 H766 0.930 . S
C776 C775 1.400 . S
C776 C779 1.386 . S
H777 C793 0.930 . S
H778 C794 0.961 . S
C779 H767 0.929 . S
C779 C773 1.390 . S
C779 C776 1.386 . S
C780 C775 1.490 . S
C780 C782 1.395 . S
C780 C783 1.403 . S
H781 C787 0.930 . S
C782 H768 0.930 . S
C782 C780 1.395 . S
C782 C785 1.403 . S
C783 C780 1.403 . S
C783 C784 1.524 . S
C783 C787 1.400 . S
C784 H769 0.960 . S
C784 H770 0.960 . S
C784 H771 0.960 . S
C784 C783 1.524 . S
C785 C782 1.403 . S
C785 C786 1.392 . S
C785 C789 1.495 . S
C786 C785 1.392 . S
C786 C787 1.385 . S
C786 C788 1.478 . S
C787 H781 0.930 . S
C787 C783 1.400 . S
C787 C786 1.385 . S
C788 C786 1.478 . S
C788 C790 1.381 . S
C788 C794 1.345 1_545 S
C789 C785 1.495 . S
C789 H795 0.959 . S
C789 H796 0.961 . S
C789 H797 0.960 . S
C790 C788 1.381 . S
C790 C791 1.394 . S
C790 H798 0.930 . S
C791 C790 1.394 . S
C791 C792 1.383 . S
C791 H799 0.929 . S
C792 C791 1.383 . S
C792 C793 1.377 1_545 S
C793 H777 0.930 . S
C793 C792 1.377 1_565 S
C793 C794 1.388 . S
C794 H778 0.961 . S
C794 C788 1.345 1_565 S
C794 C793 1.388 . S
H795 C789 0.959 . S
H796 C789 0.961 . S
H797 C789 0.960 . S
H798 C790 0.930 . S
H799 C791 0.929 . S
H800 C808 0.929 . S
H801 C810 0.930 . S
H802 C812 0.930 . S
H803 C815 0.929 . S
H804 C818 0.930 . S
H805 C820 0.960 . S
H806 C820 0.960 . S
H807 C820 0.960 . S
C808 H800 0.929 . S
C808 C809 1.377 . S
C808 C810 1.384 . S
C809 C808 1.377 . S
C809 C815 1.390 . S
C810 H801 0.930 . S
C810 C808 1.384 . S
C810 C811 1.372 . S
C811 C810 1.372 . S
C811 C812 1.400 . S
C811 C816 1.490 . S
C812 H802 0.930 . S
C812 C811 1.400 . S
C812 C815 1.386 . S
H813 C829 0.930 . S
H814 C830 0.931 . S
C815 H803 0.929 . S
C815 C809 1.390 . S
C815 C812 1.386 . S
C816 C811 1.490 . S
C816 C818 1.395 . S
C816 C819 1.403 . S
H817 C823 0.930 . S
C818 H804 0.930 . S
C818 C816 1.395 . S
C818 C821 1.403 . S
C819 C816 1.403 . S
C819 C820 1.524 . S
C819 C823 1.400 . S
C820 H805 0.960 . S
C820 H806 0.960 . S
C820 H807 0.960 . S
C820 C819 1.524 . S
C821 C818 1.403 . S
C821 C822 1.392 . S
C821 C825 1.495 . S
C822 C821 1.392 . S
C822 C823 1.385 . S
C822 C824 1.478 . S
C823 H817 0.930 . S
C823 C819 1.400 . S
C823 C822 1.385 . S
C824 C822 1.478 . S
C824 C826 1.381 . S
C824 C830 1.383 . S
C825 C821 1.495 . S
C825 H831 0.959 . S
C825 H832 0.961 . S
C825 H833 0.960 . S
C826 C824 1.381 . S
C826 C827 1.394 . S
C826 H834 0.930 . S
C827 C826 1.394 . S
C827 C828 1.383 . S
C827 H835 0.929 . S
C828 C827 1.383 . S
C828 C829 1.377 . S
C829 H813 0.930 . S
C829 C828 1.377 . S
C829 C830 1.379 . S
C830 H814 0.931 . S
C830 C824 1.383 . S
C830 C829 1.379 . S
H831 C825 0.959 . S
H832 C825 0.961 . S
H833 C825 0.960 . S
H834 C826 0.930 . S
H835 C827 0.929 . S
H836 C844 0.929 . S
H837 C846 0.930 . S
H838 C848 0.930 . S
H839 C851 0.929 . S
H840 C854 0.930 . S
H841 C856 0.960 . S
H842 C856 0.960 . S
H843 C856 0.960 . S
C844 H836 0.929 . S
C844 C845 1.377 . S
C844 C846 1.384 . S
C845 C844 1.377 . S
C845 C851 1.390 . S
C846 H837 0.930 . S
C846 C844 1.384 . S
C846 C847 1.372 . S
C847 C846 1.372 . S
C847 C848 1.400 . S
C847 C852 1.490 . S
C848 H838 0.930 . S
C848 C847 1.400 . S
C848 C851 1.386 . S
H849 C865 0.930 . S
H850 C866 0.931 . S
C851 H839 0.929 . S
C851 C845 1.390 . S
C851 C848 1.386 . S
C852 C847 1.490 . S
C852 C854 1.395 . S
C852 C855 1.403 . S
H853 C859 0.930 . S
C854 H840 0.930 . S
C854 C852 1.395 . S
C854 C857 1.403 . S
C855 C852 1.403 . S
C855 C856 1.524 . S
C855 C859 1.400 . S
C856 H841 0.960 . S
C856 H842 0.960 . S
C856 H843 0.960 . S
C856 C855 1.524 . S
C857 C854 1.403 . S
C857 C858 1.392 . S
C857 C861 1.495 . S
C858 C857 1.392 . S
C858 C859 1.385 . S
C858 C860 1.478 . S
C859 H853 0.930 . S
C859 C855 1.400 . S
C859 C858 1.385 . S
C860 C858 1.478 . S
C860 C862 1.381 . S
C860 C866 1.383 . S
C861 C857 1.495 . S
C861 H867 0.959 . S
C861 H868 0.961 . S
C861 H869 0.960 . S
C862 C860 1.381 . S
C862 C863 1.394 . S
C862 H870 0.930 . S
C863 C862 1.394 . S
C863 C864 1.383 . S
C863 H871 0.929 . S
C864 C863 1.383 . S
C864 C865 1.377 . S
C865 H849 0.930 . S
C865 C864 1.377 . S
C865 C866 1.379 . S
C866 H850 0.931 . S
C866 C860 1.383 . S
C866 C865 1.379 . S
H867 C861 0.959 . S
H868 C861 0.961 . S
H869 C861 0.960 . S
H870 C862 0.930 . S
H871 C863 0.929 . S
H872 C880 0.929 . S
H873 C882 0.930 . S
H874 C884 0.930 1_455 S
H875 C887 0.929 . S
H876 C890 0.930 . S
H877 C892 0.960 . S
H878 C892 0.960 . S
H879 C892 0.960 . S
C880 H872 0.929 . S
C880 C881 1.377 . S
C880 C882 1.384 . S
C881 C880 1.377 . S
C881 C887 1.390 . S
C882 H873 0.930 . S
C882 C880 1.384 . S
C882 C883 1.372 . S
C883 C882 1.372 . S
C883 C884 1.400 . S
C883 C888 1.490 . S
C884 H874 0.930 1_655 S
C884 C883 1.400 . S
C884 C887 1.386 . S
H885 C901 0.930 1_554 S
H886 C902 0.931 . S
C887 H875 0.929 . S
C887 C881 1.390 . S
C887 C884 1.386 . S
C888 C883 1.490 . S
C888 C890 1.395 . S
C888 C891 1.403 1_655 S
H889 C895 0.930 . S
C890 H876 0.930 . S
C890 C888 1.395 . S
C890 C893 1.403 . S
C891 C888 1.403 1_455 S
C891 C892 1.524 . S
C891 C895 1.400 . S
C892 H877 0.960 . S
C892 H878 0.960 . S
C892 H879 0.960 . S
C892 C891 1.524 . S
C893 C890 1.403 . S
C893 C894 1.392 . S
C893 C897 1.495 . S
C894 C893 1.392 . S
C894 C895 1.385 1_655 S
C894 C896 1.478 1_554 S
C895 H889 0.930 . S
C895 C891 1.400 . S
C895 C894 1.385 1_455 S
C896 C894 1.478 1_556 S
C896 C898 1.381 . S
C896 C902 1.383 1_656 S
C897 C893 1.495 . S
C897 H903 0.959 . S
C897 H904 0.961 . S
C897 H905 0.960 1_554 S
C898 C896 1.381 . S
C898 C899 1.394 . S
C898 H906 0.930 . S
C899 C898 1.394 . S
C899 C900 1.383 1_655 S
C899 H907 0.929 . S
C900 C899 1.383 1_455 S
C900 C901 1.377 . S
C901 H885 0.930 1_556 S
C901 C900 1.377 . S
C901 C902 1.379 1_556 S
C902 H886 0.931 . S
C902 C896 1.383 1_454 S
C902 C901 1.379 1_554 S
H903 C897 0.959 . S
H904 C897 0.961 . S
H905 C897 0.960 1_556 S
H906 C898 0.930 . S
H907 C899 0.929 . S
H908 C916 0.929 1_545 S
H909 C918 0.976 . S
H910 C920 0.930 . S
H911 C923 0.929 . S
H912 C926 0.930 . S
H913 C928 0.960 . S
H914 C928 0.960 . S
H915 C928 0.960 . S
C916 H908 0.929 1_565 S
C916 C917 1.377 . S
C916 C918 1.374 1_565 S
C917 C916 1.377 . S
C917 C923 1.390 . S
C918 H909 0.976 . S
C918 C916 1.374 1_545 S
C918 C919 1.338 1_545 S
C919 C918 1.338 1_565 S
C919 C920 1.400 . S
C919 C924 1.490 . S
C920 H910 0.930 . S
C920 C919 1.400 . S
C920 C923 1.386 . S
H921 C937 0.930 . S
H922 C938 0.931 . S
C923 H911 0.929 . S
C923 C917 1.390 . S
C923 C920 1.386 . S
C924 C919 1.490 . S
C924 C926 1.395 . S
C924 C927 1.403 . S
H925 C931 0.930 . S
C926 H912 0.930 . S
C926 C924 1.395 . S
C926 C929 1.410 . S
C927 C924 1.403 . S
C927 C928 1.524 . S
C927 C931 1.400 . S
C928 H913 0.960 . S
C928 H914 0.960 . S
C928 H915 0.960 . S
C928 C927 1.524 . S
C929 C926 1.410 . S
C929 C930 1.395 . S
C929 C933 1.487 1_564 S
C930 C929 1.395 . S
C930 C931 1.385 . S
C930 C932 1.478 1_564 S
C931 H925 0.930 . S
C931 C927 1.400 . S
C931 C930 1.385 . S
C932 C930 1.478 1_546 S
C932 C934 1.381 . S
C932 C938 1.383 1_545 S
C933 C929 1.487 1_546 S
C933 H939 0.959 . S
C933 H940 0.961 1_545 S
C933 H941 0.960 . S
C934 C932 1.381 . S
C934 C935 1.394 . S
C934 H942 0.930 . S
C935 C934 1.394 . S
C935 C936 1.383 . S
C935 H943 0.929 . S
C936 C935 1.383 . S
C936 C937 1.377 1_545 S
C937 H921 0.930 . S
C937 C936 1.377 1_565 S
C937 C938 1.379 . S
C938 H922 0.931 . S
C938 C932 1.383 1_565 S
C938 C937 1.379 . S
H939 C933 0.959 . S
H940 C933 0.961 1_565 S
H941 C933 0.960 . S
H942 C934 0.930 . S
H943 C935 0.929 . S
H944 C952 0.929 . S
H945 C954 0.930 . S
H946 C956 0.930 . S
H947 C959 0.929 . S
H948 C962 0.930 . S
H949 C964 0.960 . S
H950 C964 0.960 . S
H951 C964 0.960 . S
C952 H944 0.929 . S
C952 C953 1.377 . S
C952 C954 1.384 . S
C953 C952 1.377 . S
C953 C959 1.390 . S
C954 H945 0.930 . S
C954 C952 1.384 . S
C954 C955 1.372 . S
C955 C954 1.372 . S
C955 C956 1.400 . S
C955 C960 1.490 . S
C956 H946 0.930 . S
C956 C955 1.400 . S
C956 C959 1.386 . S
H957 C973 0.930 . S
H958 C974 0.931 1_554 S
C959 H947 0.929 . S
C959 C953 1.390 . S
C959 C956 1.386 . S
C960 C955 1.490 . S
C960 C962 1.395 . S
C960 C963 1.403 . S
H961 C967 0.930 . S
C962 H948 0.930 . S
C962 C960 1.395 . S
C962 C965 1.403 1_554 S
C963 C960 1.403 . S
C963 C964 1.524 . S
C963 C967 1.400 . S
C964 H949 0.960 . S
C964 H950 0.960 . S
C964 H951 0.960 . S
C964 C963 1.524 . S
C965 C962 1.403 1_556 S
C965 C966 1.392 1_556 S
C965 C969 1.495 . S
C966 C965 1.392 1_554 S
C966 C967 1.385 . S
C966 C968 1.478 1_554 S
C967 H961 0.930 . S
C967 C963 1.400 . S
C967 C966 1.385 . S
C968 C966 1.478 1_556 S
C968 C970 1.381 . S
C968 C974 1.383 . S
C969 C965 1.495 . S
C969 H975 0.959 . S
C969 H976 0.961 . S
C969 H977 0.960 . S
C970 C968 1.381 . S
C970 C971 1.394 . S
C970 H978 0.930 . S
C971 C970 1.394 . S
C971 C972 1.383 . S
C971 H979 0.929 . S
C972 C971 1.383 . S
C972 C973 1.377 . S
C973 H957 0.930 . S
C973 C972 1.377 . S
C973 C974 1.379 . S
C974 H958 0.931 1_556 S
C974 C968 1.383 . S
C974 C973 1.379 . S
H975 C969 0.959 . S
H976 C969 0.961 . S
H977 C969 0.960 . S
H978 C970 0.930 . S
H979 C971 0.929 . S
H980 C988 0.929 . S
H981 C990 0.930 . S
H982 C992 0.930 . S
H983 C995 0.929 . S
H984 C998 0.930 . S
H985 C1000 0.960 . S
H986 C1000 0.960 . S
H987 C1000 0.960 . S
C988 H980 0.929 . S
C988 C989 1.377 . S
C988 C990 1.384 . S
C989 C988 1.377 . S
C989 C995 1.390 . S
C990 H981 0.930 . S
C990 C988 1.384 . S
C990 C991 1.372 . S
C991 C990 1.372 . S
C991 C992 1.400 . S
C991 C996 1.490 . S
C992 H982 0.930 . S
C992 C991 1.400 . S
C992 C995 1.386 . S
H993 C1009 0.930 . S
H994 C1010 0.931 . S
C995 H983 0.929 . S
C995 C989 1.390 . S
C995 C992 1.386 . S
C996 C991 1.490 . S
C996 C998 1.395 . S
C996 C999 1.403 . S
H997 C1003 0.930 1_556 S
C998 H984 0.930 . S
C998 C996 1.395 . S
C998 C1001 1.403 . S
C999 C996 1.403 . S
C999 C1000 1.524 . S
C999 C1003 1.400 . S
C1000 H985 0.960 . S
C1000 H986 0.960 . S
C1000 H987 0.960 . S
C1000 C999 1.524 . S
C1001 C998 1.403 . S
C1001 C1002 1.392 . S
C1001 C1005 1.495 . S
C1002 C1001 1.392 . S
C1002 C1003 1.385 . S
C1002 C1004 1.478 . S
C1003 H997 0.930 1_554 S
C1003 C999 1.400 . S
C1003 C1002 1.385 . S
C1004 C1002 1.478 . S
C1004 C1006 1.381 1_554 S
C1004 C1010 1.383 . S
C1005 C1001 1.495 . S
C1005 H1011 0.959 . S
C1005 H1012 0.961 . S
C1005 H1013 0.960 . S
C1006 C1004 1.381 1_556 S
C1006 C1007 1.394 . S
C1006 H1014 0.930 . S
C1007 C1006 1.394 . S
C1007 C1008 1.383 . S
C1007 H1015 0.929 . S
C1008 C1007 1.383 . S
C1008 C1009 1.377 . S
C1009 H993 0.930 . S
C1009 C1008 1.377 . S
C1009 C1010 1.379 1_556 S
C1010 H994 0.931 . S
C1010 C1004 1.383 . S
C1010 C1009 1.379 1_554 S
H1011 C1005 0.959 . S
H1012 C1005 0.961 . S
H1013 C1005 0.960 . S
H1014 C1006 0.930 . S
H1015 C1007 0.929 . S
H1016 C1024 0.929 . S
H1017 C1026 0.930 . S
H1018 C1028 0.930 . S
H1019 C1031 0.929 . S
H1020 C1034 0.930 . S
H1021 C1036 0.960 . S
H1022 C1036 0.960 . S
H1023 C1036 0.960 . S
C1024 H1016 0.929 . S
C1024 C1025 1.377 . S
C1024 C1026 1.384 . S
C1025 C1024 1.377 . S
C1025 C1031 1.390 . S
C1026 H1017 0.930 . S
C1026 C1024 1.384 . S
C1026 C1027 1.372 . S
C1027 C1026 1.372 . S
C1027 C1028 1.400 . S
C1027 C1032 1.490 . S
C1028 H1018 0.930 . S
C1028 C1027 1.400 . S
C1028 C1031 1.386 . S
H1029 C1045 0.930 . S
H1030 C1046 0.931 . S
C1031 H1019 0.929 . S
C1031 C1025 1.390 . S
C1031 C1028 1.386 . S
C1032 C1027 1.490 . S
C1032 C1034 1.395 . S
C1032 C1035 1.403 . S
H1033 C1039 0.930 . S
C1034 H1020 0.930 . S
C1034 C1032 1.395 . S
C1034 C1037 1.403 . S
C1035 C1032 1.403 . S
C1035 C1036 1.524 . S
C1035 C1039 1.400 . S
C1036 H1021 0.960 . S
C1036 H1022 0.960 . S
C1036 H1023 0.960 . S
C1036 C1035 1.524 . S
C1037 C1034 1.403 . S
C1037 C1038 1.392 . S
C1037 C1041 1.495 1_455 S
C1038 C1037 1.392 . S
C1038 C1039 1.385 . S
C1038 C1040 1.478 . S
C1039 H1033 0.930 . S
C1039 C1035 1.400 . S
C1039 C1038 1.385 . S
C1040 C1038 1.478 . S
C1040 C1042 1.381 . S
C1040 C1046 1.383 . S
C1041 C1037 1.495 1_655 S
C1041 H1047 0.959 . S
C1041 H1048 0.961 . S
C1041 H1049 0.960 . S
C1042 C1040 1.381 . S
C1042 C1043 1.394 . S
C1042 H1050 0.930 1_455 S
C1043 C1042 1.394 . S
C1043 C1044 1.383 . S
C1043 H1051 0.929 1_455 S
C1044 C1043 1.383 . S
C1044 C1045 1.377 . S
C1045 H1029 0.930 . S
C1045 C1044 1.377 . S
C1045 C1046 1.379 . S
C1046 H1030 0.931 . S
C1046 C1040 1.383 . S
C1046 C1045 1.379 . S
H1047 C1041 0.959 . S
H1048 C1041 0.961 . S
H1049 C1041 0.960 . S
H1050 C1042 0.930 1_655 S
H1051 C1043 0.929 1_655 S
H1052 C1060 0.929 1_554 S
H1053 C1062 0.930 . S
H1054 C1064 0.930 . S
H1055 C1067 0.929 . S
H1056 C1070 0.930 . S
H1057 C1072 0.960 . S
H1058 C1072 0.960 . S
H1059 C1072 0.960 . S
C1060 H1052 0.929 1_556 S
C1060 C1061 1.377 . S
C1060 C1062 1.384 . S
C1061 C1060 1.377 . S
C1061 C1067 1.390 . S
C1062 H1053 0.930 . S
C1062 C1060 1.384 . S
C1062 C1063 1.372 . S
C1063 C1062 1.372 . S
C1063 C1064 1.400 . S
C1063 C1068 1.490 . S
C1064 H1054 0.930 . S
C1064 C1063 1.400 . S
C1064 C1067 1.386 . S
H1065 C1081 0.930 1_565 S
H1066 C1082 0.931 . S
C1067 H1055 0.929 . S
C1067 C1061 1.390 . S
C1067 C1064 1.386 . S
C1068 C1063 1.490 . S
C1068 C1070 1.395 . S
C1068 C1071 1.403 . S
H1069 C1075 0.930 . S
C1070 H1056 0.930 . S
C1070 C1068 1.395 . S
C1070 C1073 1.403 . S
C1071 C1068 1.403 . S
C1071 C1072 1.524 . S
C1071 C1075 1.400 . S
C1072 H1057 0.960 . S
C1072 H1058 0.960 . S
C1072 H1059 0.960 . S
C1072 C1071 1.524 . S
C1073 C1070 1.403 . S
C1073 C1074 1.392 . S
C1073 C1077 1.495 . S
C1074 C1073 1.392 . S
C1074 C1075 1.385 . S
C1074 C1076 1.478 . S
C1075 H1069 0.930 . S
C1075 C1071 1.400 . S
C1075 C1074 1.385 . S
C1076 C1074 1.478 . S
C1076 C1078 1.381 . S
C1076 C1082 1.383 . S
C1077 C1073 1.495 . S
C1077 H1083 0.959 1_556 S
C1077 H1084 0.961 . S
C1077 H1085 0.960 . S
C1078 C1076 1.381 . S
C1078 C1079 1.394 . S
C1078 H1086 0.930 . S
C1079 C1078 1.394 . S
C1079 C1080 1.383 . S
C1079 H1087 0.929 . S
C1080 C1079 1.383 . S
C1080 C1081 1.377 . S
C1081 H1065 0.930 1_545 S
C1081 C1080 1.377 . S
C1081 C1082 1.379 . S
C1082 H1066 0.931 . S
C1082 C1076 1.383 . S
C1082 C1081 1.379 . S
H1083 C1077 0.959 1_554 S
H1084 C1077 0.961 . S
H1085 C1077 0.960 . S
H1086 C1078 0.930 . S
H1087 C1079 0.929 . S
H1088 C1096 0.929 . S
H1089 C1098 0.930 . S
H1090 C1100 0.930 . S
H1091 C1103 0.929 . S
H1092 C1106 0.930 . S
H1093 C1108 0.960 1_554 S
H1094 C1108 0.960 1_554 S
H1095 C1108 0.960 . S
C1096 H1088 0.929 . S
C1096 C1097 1.377 . S
C1096 C1098 1.384 . S
C1097 C1096 1.377 . S
C1097 C1103 1.390 . S
C1098 H1089 0.930 . S
C1098 C1096 1.384 . S
C1098 C1099 1.372 . S
C1099 C1098 1.372 . S
C1099 C1100 1.400 . S
C1099 C1104 1.490 . S
C1100 H1090 0.930 . S
C1100 C1099 1.400 . S
C1100 C1103 1.386 . S
H1101 C1117 0.930 . S
H1102 C1118 0.931 . S
C1103 H1091 0.929 . S
C1103 C1097 1.390 . S
C1103 C1100 1.386 . S
C1104 C1099 1.490 . S
C1104 C1106 1.395 . S
C1104 C1107 1.403 . S
H1105 C1111 0.930 . S
C1106 H1092 0.930 . S
C1106 C1104 1.395 . S
C1106 C1109 1.403 . S
C1107 C1104 1.403 . S
C1107 C1108 1.524 . S
C1107 C1111 1.400 . S
C1108 H1093 0.960 1_556 S
C1108 H1094 0.960 1_556 S
C1108 H1095 0.960 . S
C1108 C1107 1.524 . S
C1109 C1106 1.403 . S
C1109 C1110 1.392 . S
C1109 C1113 1.495 . S
C1110 C1109 1.392 . S
C1110 C1111 1.385 . S
C1110 C1112 1.478 . S
C1111 H1105 0.930 . S
C1111 C1107 1.400 . S
C1111 C1110 1.385 . S
C1112 C1110 1.478 . S
C1112 C1114 1.381 . S
C1112 C1118 1.383 . S
C1113 C1109 1.495 . S
C1113 H1119 0.959 . S
C1113 H1120 0.961 . S
C1113 H1121 0.960 . S
C1114 C1112 1.381 . S
C1114 C1115 1.394 . S
C1114 H1122 0.930 . S
C1115 C1114 1.394 . S
C1115 C1116 1.383 . S
C1115 H1123 0.929 . S
C1116 C1115 1.383 . S
C1116 C1117 1.377 . S
C1117 H1101 0.930 . S
C1117 C1116 1.377 . S
C1117 C1118 1.379 . S
C1118 H1102 0.931 . S
C1118 C1112 1.383 . S
C1118 C1117 1.379 . S
H1119 C1113 0.959 . S
H1120 C1113 0.961 . S
H1121 C1113 0.960 . S
H1122 C1114 0.930 . S
H1123 C1115 0.929 . S
H1124 C1132 0.929 . S
H1125 C1134 0.930 . S
H1126 C1136 0.930 . S
H1127 C1139 0.929 . S
H1128 C1142 0.930 . S
H1129 C1144 0.960 1_554 S
H1130 C1144 0.960 1_554 S
H1131 C1144 0.960 1_554 S
C1132 H1124 0.929 . S
C1132 C1133 1.377 . S
C1132 C1134 1.384 . S
C1133 C1132 1.377 . S
C1133 C1139 1.390 . S
C1134 H1125 0.930 . S
C1134 C1132 1.384 . S
C1134 C1135 1.372 . S
C1135 C1134 1.372 . S
C1135 C1136 1.400 . S
C1135 C1140 1.490 . S
C1136 H1126 0.930 . S
C1136 C1135 1.400 . S
C1136 C1139 1.386 . S
H1137 C1153 0.930 . S
H1138 C1154 0.931 . S
C1139 H1127 0.929 . S
C1139 C1133 1.390 . S
C1139 C1136 1.386 . S
C1140 C1135 1.490 . S
C1140 C1142 1.395 . S
C1140 C1143 1.403 . S
H1141 C1147 0.930 . S
C1142 H1128 0.930 . S
C1142 C1140 1.395 . S
C1142 C1145 1.403 . S
C1143 C1140 1.403 . S
C1143 C1144 1.524 . S
C1143 C1147 1.400 . S
C1144 H1129 0.960 1_556 S
C1144 H1130 0.960 1_556 S
C1144 H1131 0.960 1_556 S
C1144 C1143 1.524 . S
C1145 C1142 1.403 . S
C1145 C1146 1.392 . S
C1145 C1149 1.495 . S
C1146 C1145 1.392 . S
C1146 C1147 1.385 . S
C1146 C1148 1.478 . S
C1147 H1141 0.930 . S
C1147 C1143 1.400 . S
C1147 C1146 1.385 . S
C1148 C1146 1.478 . S
C1148 C1150 1.381 . S
C1148 C1154 1.383 . S
C1149 C1145 1.495 . S
C1149 H1155 0.959 . S
C1149 H1156 0.961 . S
C1149 H1157 0.960 . S
C1150 C1148 1.381 . S
C1150 C1151 1.394 . S
C1150 H1158 0.930 . S
C1151 C1150 1.394 . S
C1151 C1152 1.383 . S
C1151 H1159 0.929 . S
C1152 C1151 1.383 . S
C1152 C1153 1.377 . S
C1153 H1137 0.930 . S
C1153 C1152 1.377 . S
C1153 C1154 1.379 . S
C1154 H1138 0.931 . S
C1154 C1148 1.383 . S
C1154 C1153 1.379 . S
H1155 C1149 0.959 . S
H1156 C1149 0.961 . S
H1157 C1149 0.960 . S
H1158 C1150 0.930 . S
H1159 C1151 0.929 . S
H1160 C1168 0.929 1_455 S
H1161 C1170 0.930 1_455 S
H1162 C1172 0.930 . S
H1163 C1175 0.929 . S
H1164 C1178 0.930 . S
H1165 C1180 0.960 . S
H1166 C1180 0.960 1_455 S
H1167 C1180 0.960 . S
C1168 H1160 0.929 1_655 S
C1168 C1169 1.377 . S
C1168 C1170 1.384 . S
C1169 C1168 1.377 . S
C1169 C1175 1.390 . S
C1170 H1161 0.930 1_655 S
C1170 C1168 1.384 . S
C1170 C1171 1.372 . S
C1171 C1170 1.372 . S
C1171 C1172 1.400 . S
C1171 C1176 1.490 . S
C1172 H1162 0.930 . S
C1172 C1171 1.400 . S
C1172 C1175 1.386 . S
H1173 C1189 0.930 . S
H1174 C1190 0.931 . S
C1175 H1163 0.929 . S
C1175 C1169 1.390 . S
C1175 C1172 1.386 . S
C1176 C1171 1.490 . S
C1176 C1178 1.395 . S
C1176 C1179 1.403 . S
H1177 C1183 0.930 . S
C1178 H1164 0.930 . S
C1178 C1176 1.395 . S
C1178 C1181 1.403 . S
C1179 C1176 1.403 . S
C1179 C1180 1.524 . S
C1179 C1183 1.400 . S
C1180 H1165 0.960 . S
C1180 H1166 0.960 1_655 S
C1180 H1167 0.960 . S
C1180 C1179 1.524 . S
C1181 C1178 1.403 . S
C1181 C1182 1.392 . S
C1181 C1185 1.495 . S
C1182 C1181 1.392 . S
C1182 C1183 1.385 . S
C1182 C1184 1.478 . S
C1183 H1177 0.930 . S
C1183 C1179 1.400 . S
C1183 C1182 1.385 . S
C1184 C1182 1.478 . S
C1184 C1186 1.381 1_655 S
C1184 C1190 1.383 . S
C1185 C1181 1.495 . S
C1185 H1191 0.959 . S
C1185 H1192 0.961 . S
C1185 H1193 0.960 . S
C1186 C1184 1.381 1_455 S
C1186 C1187 1.394 . S
C1186 H1194 0.930 . S
C1187 C1186 1.394 . S
C1187 C1188 1.383 1_455 S
C1187 H1195 0.929 . S
C1188 C1187 1.383 1_655 S
C1188 C1189 1.377 . S
C1189 H1173 0.930 . S
C1189 C1188 1.377 . S
C1189 C1190 1.379 . S
C1190 H1174 0.931 . S
C1190 C1184 1.383 . S
C1190 C1189 1.379 . S
H1191 C1185 0.959 . S
H1192 C1185 0.961 . S
H1193 C1185 0.960 . S
H1194 C1186 0.930 . S
H1195 C1187 0.929 . S
H1196 C1204 0.929 . S
H1197 C1206 0.930 . S
H1198 C1208 0.930 1_545 S
H1199 C1211 0.929 1_545 S
H1200 C1214 0.930 . S
H1201 C1216 0.960 . S
H1202 C1216 0.960 . S
H1203 C1216 0.960 . S
C1204 H1196 0.929 . S
C1204 C1205 1.377 . S
C1204 C1206 1.384 . S
C1205 C1204 1.377 . S
C1205 C1211 1.390 . S
C1206 H1197 0.930 . S
C1206 C1204 1.384 . S
C1206 C1207 1.372 . S
C1207 C1206 1.372 . S
C1207 C1208 1.400 . S
C1207 C1212 1.490 . S
C1208 H1198 0.930 1_565 S
C1208 C1207 1.400 . S
C1208 C1211 1.386 . S
H1209 C1225 0.930 . S
H1210 C1226 0.931 . S
C1211 H1199 0.929 1_565 S
C1211 C1205 1.390 . S
C1211 C1208 1.386 . S
C1212 C1207 1.490 . S
C1212 C1214 1.395 . S
C1212 C1215 1.403 1_565 S
H1213 C1219 0.930 . S
C1214 H1200 0.930 . S
C1214 C1212 1.395 . S
C1214 C1217 1.403 . S
C1215 C1212 1.403 1_545 S
C1215 C1216 1.524 . S
C1215 C1219 1.400 . S
C1216 H1201 0.960 . S
C1216 H1202 0.960 . S
C1216 H1203 0.960 . S
C1216 C1215 1.524 . S
C1217 C1214 1.403 . S
C1217 C1218 1.392 . S
C1217 C1221 1.495 . S
C1218 C1217 1.392 . S
C1218 C1219 1.385 1_565 S
C1218 C1220 1.478 . S
C1219 H1213 0.930 . S
C1219 C1215 1.400 . S
C1219 C1218 1.385 1_545 S
C1220 C1218 1.478 . S
C1220 C1222 1.381 . S
C1220 C1226 1.383 1_565 S
C1221 C1217 1.495 . S
C1221 H1227 0.959 . S
C1221 H1228 0.961 . S
C1221 H1229 0.960 . S
C1222 C1220 1.381 . S
C1222 C1223 1.394 . S
C1222 H1230 0.930 . S
C1223 C1222 1.394 . S
C1223 C1224 1.383 . S
C1223 H1231 0.929 . S
C1224 C1223 1.383 . S
C1224 C1225 1.377 1_565 S
C1225 H1209 0.930 . S
C1225 C1224 1.377 1_545 S
C1225 C1226 1.379 . S
C1226 H1210 0.931 . S
C1226 C1220 1.383 1_545 S
C1226 C1225 1.379 . S
H1227 C1221 0.959 . S
H1228 C1221 0.961 . S
H1229 C1221 0.960 . S
H1230 C1222 0.930 . S
H1231 C1223 0.929 . S
H1232 C1240 0.929 . S
H1233 C1242 0.930 . S
H1234 C1244 0.930 . S
H1235 C1247 0.929 . S
H1236 C1250 0.930 . S
H1237 C1252 0.960 . S
H1238 C1252 0.960 . S
H1239 C1252 0.960 . S
C1240 H1232 0.929 . S
C1240 C1241 1.377 . S
C1240 C1242 1.384 . S
C1241 C1240 1.377 . S
C1241 C1247 1.390 . S
C1242 H1233 0.930 . S
C1242 C1240 1.384 . S
C1242 C1243 1.372 . S
C1243 C1242 1.372 . S
C1243 C1244 1.400 . S
C1243 C1248 1.490 . S
C1244 H1234 0.930 . S
C1244 C1243 1.400 . S
C1244 C1247 1.386 . S
H1245 C1261 0.930 . S
H1246 C1262 0.931 . S
C1247 H1235 0.929 . S
C1247 C1241 1.390 . S
C1247 C1244 1.386 . S
C1248 C1243 1.490 . S
C1248 C1250 1.395 . S
C1248 C1251 1.403 . S
H1249 C1255 0.930 . S
C1250 H1236 0.930 . S
C1250 C1248 1.395 . S
C1250 C1253 1.403 . S
C1251 C1248 1.403 . S
C1251 C1252 1.524 . S
C1251 C1255 1.400 . S
C1252 H1237 0.960 . S
C1252 H1238 0.960 . S
C1252 H1239 0.960 . S
C1252 C1251 1.524 . S
C1253 C1250 1.403 . S
C1253 C1254 1.392 . S
C1253 C1257 1.495 . S
C1254 C1253 1.392 . S
C1254 C1255 1.385 . S
C1254 C1256 1.478 . S
C1255 H1249 0.930 . S
C1255 C1251 1.400 . S
C1255 C1254 1.385 . S
C1256 C1254 1.478 . S
C1256 C1258 1.381 . S
C1256 C1262 1.383 . S
C1257 C1253 1.495 . S
C1257 H1263 0.959 . S
C1257 H1264 0.961 . S
C1257 H1265 0.960 . S
C1258 C1256 1.381 . S
C1258 C1259 1.394 . S
C1258 H1266 0.930 . S
C1259 C1258 1.394 . S
C1259 C1260 1.383 . S
C1259 H1267 0.929 . S
C1260 C1259 1.383 . S
C1260 C1261 1.377 . S
C1261 H1245 0.930 . S
C1261 C1260 1.377 . S
C1261 C1262 1.379 . S
C1262 H1246 0.931 . S
C1262 C1256 1.383 . S
C1262 C1261 1.379 . S
H1263 C1257 0.959 . S
H1264 C1257 0.961 . S
H1265 C1257 0.960 . S
H1266 C1258 0.930 . S
H1267 C1259 0.929 . S
H1268 C1276 0.929 . S
H1269 C1278 0.930 . S
H1270 C1280 0.930 . S
H1271 C1283 0.929 . S
H1272 C1286 0.930 . S
H1273 C1288 0.960 . S
H1274 C1288 0.960 . S
H1275 C1288 0.960 . S
C1276 H1268 0.929 . S
C1276 C1277 1.377 . S
C1276 C1278 1.384 . S
C1277 C1276 1.377 . S
C1277 C1283 1.390 . S
C1278 H1269 0.930 . S
C1278 C1276 1.384 . S
C1278 C1279 1.372 . S
C1279 C1278 1.372 . S
C1279 C1280 1.400 . S
C1279 C1284 1.490 . S
C1280 H1270 0.930 . S
C1280 C1279 1.400 . S
C1280 C1283 1.386 . S
H1281 C1297 0.930 . S
H1282 C1298 0.931 . S
C1283 H1271 0.929 . S
C1283 C1277 1.390 . S
C1283 C1280 1.386 . S
C1284 C1279 1.490 . S
C1284 C1286 1.395 . S
C1284 C1287 1.403 . S
H1285 C1291 0.930 . S
C1286 H1272 0.930 . S
C1286 C1284 1.395 . S
C1286 C1289 1.403 . S
C1287 C1284 1.403 . S
C1287 C1288 1.524 . S
C1287 C1291 1.400 . S
C1288 H1273 0.960 . S
C1288 H1274 0.960 . S
C1288 H1275 0.960 . S
C1288 C1287 1.524 . S
C1289 C1286 1.403 . S
C1289 C1290 1.392 . S
C1289 C1293 1.495 . S
C1290 C1289 1.392 . S
C1290 C1291 1.385 . S
C1290 C1292 1.478 . S
C1291 H1285 0.930 . S
C1291 C1287 1.400 . S
C1291 C1290 1.385 . S
C1292 C1290 1.478 . S
C1292 C1294 1.381 . S
C1292 C1298 1.383 . S
C1293 C1289 1.495 . S
C1293 H1299 0.959 . S
C1293 H1300 0.961 . S
C1293 H1301 0.960 . S
C1294 C1292 1.381 . S
C1294 C1295 1.394 . S
C1294 H1302 0.930 . S
C1295 C1294 1.394 . S
C1295 C1296 1.383 . S
C1295 H1303 0.929 . S
C1296 C1295 1.383 . S
C1296 C1297 1.377 . S
C1297 H1281 0.930 . S
C1297 C1296 1.377 . S
C1297 C1298 1.379 . S
C1298 H1282 0.931 . S
C1298 C1292 1.383 . S
C1298 C1297 1.379 . S
H1299 C1293 0.959 . S
H1300 C1293 0.961 . S
H1301 C1293 0.960 . S
H1302 C1294 0.930 . S
H1303 C1295 0.929 . S
C449 N80 1.892 . S
C468 C172 1.929 . S
C504 C255 1.960 . S
C485 N93 1.899 . S
C540 C340 1.922 . S
C521 N54 1.874 . S
C576 C424 1.907 . S
C557 N67 1.867 . S
C612 C160 1.951 . S
C593 N28 1.900 . S
C629 N41 1.899 . S
C648 C243 1.960 . S
C665 N2 1.881 . S
C684 C328 1.910 . S
C701 N15 1.872 . S
C720 C412 1.903 1_655 S
C756 C162 0.486 1_455 S
C737 N70 0.390 . S
C792 C258 0.615 . S
C773 N83 0.375 . S
C828 C330 0.516 . S
C809 N96 0.391 . S
C845 N57 0.375 . S
C864 C414 0.444 . S
C881 N18 0.385 . S
C900 C174 0.627 . S
C936 C246 0.613 . S
C917 N31 0.356 . S
C972 C342 0.517 . S
C953 N44 0.391 . S
C989 N5 0.370 . S
C1008 C426 0.611 . S
C1025 N66 1.923 1_556 S
C1044 C159 1.978 . S
C1061 N79 1.922 1_556 S
C1080 C244 1.961 . S
C1116 C327 1.993 . S
C1097 N92 1.941 . S
C1152 C411 2.000 . S
C1133 N53 1.948 1_556 S
C1169 N14 1.937 . S
C1188 C171 1.988 . S
C1224 C256 1.979 1_565 S
C1205 N27 1.926 . S
C1260 C339 1.994 . S
C1241 N40 1.953 . S
C1277 N1 1.961 . S
C1296 C423 2.001 . S
