# Generated by pormake.
# Topology ana-f, (3,3)-cn, num edge types: 1
# Building blocks:
#     Node 0, Type 0, BuildingBlock: WUSLED_clean_sbu_0, # of connection points: 3
#     Node 1, Type 0, BuildingBlock: WUSLED_clean_sbu_0, # of connection points: 3
#     Node 2, Type 0, BuildingBlock: WUSLED_clean_sbu_0, # of connection points: 3
#     Node 3, Type 0, BuildingBlock: WUSLED_clean_sbu_0, # of connection points: 3
#     Node 4, Type 0, BuildingBlock: WUSLED_clean_sbu_0, # of connection points: 3
#     Node 5, Type 0, BuildingBlock: WUSLED_clean_sbu_0, # of connection points: 3
#     Node 6, Type 0, BuildingBlock: WUSLED_clean_sbu_0, # of connection points: 3
#     Node 7, Type 0, BuildingBlock: WUSLED_clean_sbu_0, # of connection points: 3
#     Node 8, Type 0, BuildingBlock: WUSLED_clean_sbu_0, # of connection points: 3
#     Node 9, Type 0, BuildingBlock: WUSLED_clean_sbu_0, # of connection points: 3
#     Node 10, Type 0, BuildingBlock: WUSLED_clean_sbu_0, # of connection points: 3
#     Node 11, Type 0, BuildingBlock: WUSLED_clean_sbu_0, # of connection points: 3
#     Node 12, Type 0, BuildingBlock: WUSLED_clean_sbu_0, # of connection points: 3
#     Node 13, Type 0, BuildingBlock: WUSLED_clean_sbu_0, # of connection points: 3
#     Node 14, Type 0, BuildingBlock: WUSLED_clean_sbu_0, # of connection points: 3
#     Node 15, Type 0, BuildingBlock: WUSLED_clean_sbu_0, # of connection points: 3
#     Node 16, Type 0, BuildingBlock: WUSLED_clean_sbu_0, # of connection points: 3
#     Node 17, Type 0, BuildingBlock: WUSLED_clean_sbu_0, # of connection points: 3
#     Node 18, Type 0, BuildingBlock: WUSLED_clean_sbu_0, # of connection points: 3
#     Node 19, Type 0, BuildingBlock: WUSLED_clean_sbu_0, # of connection points: 3
#     Node 20, Type 0, BuildingBlock: WUSLED_clean_sbu_0, # of connection points: 3
#     Node 21, Type 0, BuildingBlock: WUSLED_clean_sbu_0, # of connection points: 3
#     Node 22, Type 0, BuildingBlock: WUSLED_clean_sbu_0, # of connection points: 3
#     Node 23, Type 0, BuildingBlock: WUSLED_clean_sbu_0, # of connection points: 3
#     Node 24, Type 0, BuildingBlock: WUSLED_clean_sbu_0, # of connection points: 3
#     Node 25, Type 0, BuildingBlock: WUSLED_clean_sbu_0, # of connection points: 3
#     Node 26, Type 0, BuildingBlock: WUSLED_clean_sbu_0, # of connection points: 3
#     Node 27, Type 0, BuildingBlock: WUSLED_clean_sbu_0, # of connection points: 3
#     Node 28, Type 0, BuildingBlock: WUSLED_clean_sbu_0, # of connection points: 3
#     Node 29, Type 0, BuildingBlock: WUSLED_clean_sbu_0, # of connection points: 3
#     Node 30, Type 0, BuildingBlock: WUSLED_clean_sbu_0, # of connection points: 3
#     Node 31, Type 0, BuildingBlock: WUSLED_clean_sbu_0, # of connection points: 3
#     Node 32, Type 0, BuildingBlock: WUSLED_clean_sbu_0, # of connection points: 3
#     Node 33, Type 0, BuildingBlock: WUSLED_clean_sbu_0, # of connection points: 3
#     Node 34, Type 0, BuildingBlock: WUSLED_clean_sbu_0, # of connection points: 3
#     Node 35, Type 0, BuildingBlock: WUSLED_clean_sbu_0, # of connection points: 3
#     Node 36, Type 0, BuildingBlock: WUSLED_clean_sbu_0, # of connection points: 3
#     Node 37, Type 0, BuildingBlock: WUSLED_clean_sbu_0, # of connection points: 3
#     Node 38, Type 0, BuildingBlock: WUSLED_clean_sbu_0, # of connection points: 3
#     Node 39, Type 0, BuildingBlock: WUSLED_clean_sbu_0, # of connection points: 3
#     Node 40, Type 0, BuildingBlock: WUSLED_clean_sbu_0, # of connection points: 3
#     Node 41, Type 0, BuildingBlock: WUSLED_clean_sbu_0, # of connection points: 3
#     Node 42, Type 0, BuildingBlock: WUSLED_clean_sbu_0, # of connection points: 3
#     Node 43, Type 0, BuildingBlock: WUSLED_clean_sbu_0, # of connection points: 3
#     Node 44, Type 0, BuildingBlock: WUSLED_clean_sbu_0, # of connection points: 3
#     Node 45, Type 0, BuildingBlock: WUSLED_clean_sbu_0, # of connection points: 3
#     Node 46, Type 0, BuildingBlock: WUSLED_clean_sbu_0, # of connection points: 3
#     Node 47, Type 0, BuildingBlock: WUSLED_clean_sbu_0, # of connection points: 3
#     Node 48, Type 0, BuildingBlock: WUSLED_clean_sbu_0, # of connection points: 3
#     Node 49, Type 0, BuildingBlock: WUSLED_clean_sbu_0, # of connection points: 3
#     Node 50, Type 0, BuildingBlock: WUSLED_clean_sbu_0, # of connection points: 3
#     Node 51, Type 0, BuildingBlock: WUSLED_clean_sbu_0, # of connection points: 3
#     Node 52, Type 0, BuildingBlock: WUSLED_clean_sbu_0, # of connection points: 3
#     Node 53, Type 0, BuildingBlock: WUSLED_clean_sbu_0, # of connection points: 3
#     Node 54, Type 0, BuildingBlock: WUSLED_clean_sbu_0, # of connection points: 3
#     Node 55, Type 0, BuildingBlock: WUSLED_clean_sbu_0, # of connection points: 3
#     Node 56, Type 0, BuildingBlock: WUSLED_clean_sbu_0, # of connection points: 3
#     Node 57, Type 0, BuildingBlock: WUSLED_clean_sbu_0, # of connection points: 3
#     Node 58, Type 0, BuildingBlock: WUSLED_clean_sbu_0, # of connection points: 3
#     Node 59, Type 0, BuildingBlock: WUSLED_clean_sbu_0, # of connection points: 3
#     Node 60, Type 0, BuildingBlock: WUSLED_clean_sbu_0, # of connection points: 3
#     Node 61, Type 0, BuildingBlock: WUSLED_clean_sbu_0, # of connection points: 3
#     Node 62, Type 0, BuildingBlock: WUSLED_clean_sbu_0, # of connection points: 3
#     Node 63, Type 0, BuildingBlock: WUSLED_clean_sbu_0, # of connection points: 3
#     Node 64, Type 0, BuildingBlock: WUSLED_clean_sbu_0, # of connection points: 3
#     Node 65, Type 0, BuildingBlock: WUSLED_clean_sbu_0, # of connection points: 3
#     Node 66, Type 0, BuildingBlock: WUSLED_clean_sbu_0, # of connection points: 3
#     Node 67, Type 0, BuildingBlock: WUSLED_clean_sbu_0, # of connection points: 3
#     Node 68, Type 0, BuildingBlock: WUSLED_clean_sbu_0, # of connection points: 3
#     Node 69, Type 0, BuildingBlock: WUSLED_clean_sbu_0, # of connection points: 3
#     Node 70, Type 0, BuildingBlock: WUSLED_clean_sbu_0, # of connection points: 3
#     Node 71, Type 0, BuildingBlock: WUSLED_clean_sbu_0, # of connection points: 3
#     Node 72, Type 0, BuildingBlock: WUSLED_clean_sbu_0, # of connection points: 3
#     Node 73, Type 0, BuildingBlock: WUSLED_clean_sbu_0, # of connection points: 3
#     Node 74, Type 0, BuildingBlock: WUSLED_clean_sbu_0, # of connection points: 3
#     Node 75, Type 0, BuildingBlock: WUSLED_clean_sbu_0, # of connection points: 3
#     Node 76, Type 0, BuildingBlock: WUSLED_clean_sbu_0, # of connection points: 3
#     Node 77, Type 0, BuildingBlock: WUSLED_clean_sbu_0, # of connection points: 3
#     Node 78, Type 0, BuildingBlock: WUSLED_clean_sbu_0, # of connection points: 3
#     Node 79, Type 0, BuildingBlock: WUSLED_clean_sbu_0, # of connection points: 3
#     Node 80, Type 0, BuildingBlock: WUSLED_clean_sbu_0, # of connection points: 3
#     Node 81, Type 0, BuildingBlock: WUSLED_clean_sbu_0, # of connection points: 3
#     Node 82, Type 0, BuildingBlock: WUSLED_clean_sbu_0, # of connection points: 3
#     Node 83, Type 0, BuildingBlock: WUSLED_clean_sbu_0, # of connection points: 3
#     Node 84, Type 0, BuildingBlock: WUSLED_clean_sbu_0, # of connection points: 3
#     Node 85, Type 0, BuildingBlock: WUSLED_clean_sbu_0, # of connection points: 3
#     Node 86, Type 0, BuildingBlock: WUSLED_clean_sbu_0, # of connection points: 3
#     Node 87, Type 0, BuildingBlock: WUSLED_clean_sbu_0, # of connection points: 3
#     Node 88, Type 0, BuildingBlock: WUSLED_clean_sbu_0, # of connection points: 3
#     Node 89, Type 0, BuildingBlock: WUSLED_clean_sbu_0, # of connection points: 3
#     Node 90, Type 0, BuildingBlock: WUSLED_clean_sbu_0, # of connection points: 3
#     Node 91, Type 0, BuildingBlock: WUSLED_clean_sbu_0, # of connection points: 3
#     Node 92, Type 0, BuildingBlock: WUSLED_clean_sbu_0, # of connection points: 3
#     Node 93, Type 0, BuildingBlock: WUSLED_clean_sbu_0, # of connection points: 3
#     Node 94, Type 0, BuildingBlock: WUSLED_clean_sbu_0, # of connection points: 3
#     Node 95, Type 0, BuildingBlock: WUSLED_clean_sbu_0, # of connection points: 3
#     Node 96, Type 1, BuildingBlock: BETDIP_clean_linker_0, # of connection points: 3
#     Node 97, Type 1, BuildingBlock: BETDIP_clean_linker_0, # of connection points: 3
#     Node 98, Type 1, BuildingBlock: BETDIP_clean_linker_0, # of connection points: 3
#     Node 99, Type 1, BuildingBlock: BETDIP_clean_linker_0, # of connection points: 3
#     Node 100, Type 1, BuildingBlock: BETDIP_clean_linker_0, # of connection points: 3
#     Node 101, Type 1, BuildingBlock: BETDIP_clean_linker_0, # of connection points: 3
#     Node 102, Type 1, BuildingBlock: BETDIP_clean_linker_0, # of connection points: 3
#     Node 103, Type 1, BuildingBlock: BETDIP_clean_linker_0, # of connection points: 3
#     Node 104, Type 1, BuildingBlock: BETDIP_clean_linker_0, # of connection points: 3
#     Node 105, Type 1, BuildingBlock: BETDIP_clean_linker_0, # of connection points: 3
#     Node 106, Type 1, BuildingBlock: BETDIP_clean_linker_0, # of connection points: 3
#     Node 107, Type 1, BuildingBlock: BETDIP_clean_linker_0, # of connection points: 3
#     Node 108, Type 1, BuildingBlock: BETDIP_clean_linker_0, # of connection points: 3
#     Node 109, Type 1, BuildingBlock: BETDIP_clean_linker_0, # of connection points: 3
#     Node 110, Type 1, BuildingBlock: BETDIP_clean_linker_0, # of connection points: 3
#     Node 111, Type 1, BuildingBlock: BETDIP_clean_linker_0, # of connection points: 3
#     Node 112, Type 1, BuildingBlock: BETDIP_clean_linker_0, # of connection points: 3
#     Node 113, Type 1, BuildingBlock: BETDIP_clean_linker_0, # of connection points: 3
#     Node 114, Type 1, BuildingBlock: BETDIP_clean_linker_0, # of connection points: 3
#     Node 115, Type 1, BuildingBlock: BETDIP_clean_linker_0, # of connection points: 3
#     Node 116, Type 1, BuildingBlock: BETDIP_clean_linker_0, # of connection points: 3
#     Node 117, Type 1, BuildingBlock: BETDIP_clean_linker_0, # of connection points: 3
#     Node 118, Type 1, BuildingBlock: BETDIP_clean_linker_0, # of connection points: 3
#     Node 119, Type 1, BuildingBlock: BETDIP_clean_linker_0, # of connection points: 3
#     Node 120, Type 1, BuildingBlock: BETDIP_clean_linker_0, # of connection points: 3
#     Node 121, Type 1, BuildingBlock: BETDIP_clean_linker_0, # of connection points: 3
#     Node 122, Type 1, BuildingBlock: BETDIP_clean_linker_0, # of connection points: 3
#     Node 123, Type 1, BuildingBlock: BETDIP_clean_linker_0, # of connection points: 3
#     Node 124, Type 1, BuildingBlock: BETDIP_clean_linker_0, # of connection points: 3
#     Node 125, Type 1, BuildingBlock: BETDIP_clean_linker_0, # of connection points: 3
#     Node 126, Type 1, BuildingBlock: BETDIP_clean_linker_0, # of connection points: 3
#     Node 127, Type 1, BuildingBlock: BETDIP_clean_linker_0, # of connection points: 3
#     Node 128, Type 1, BuildingBlock: BETDIP_clean_linker_0, # of connection points: 3
#     Node 129, Type 1, BuildingBlock: BETDIP_clean_linker_0, # of connection points: 3
#     Node 130, Type 1, BuildingBlock: BETDIP_clean_linker_0, # of connection points: 3
#     Node 131, Type 1, BuildingBlock: BETDIP_clean_linker_0, # of connection points: 3
#     Node 132, Type 1, BuildingBlock: BETDIP_clean_linker_0, # of connection points: 3
#     Node 133, Type 1, BuildingBlock: BETDIP_clean_linker_0, # of connection points: 3
#     Node 134, Type 1, BuildingBlock: BETDIP_clean_linker_0, # of connection points: 3
#     Node 135, Type 1, BuildingBlock: BETDIP_clean_linker_0, # of connection points: 3
#     Node 136, Type 1, BuildingBlock: BETDIP_clean_linker_0, # of connection points: 3
#     Node 137, Type 1, BuildingBlock: BETDIP_clean_linker_0, # of connection points: 3
#     Node 138, Type 1, BuildingBlock: BETDIP_clean_linker_0, # of connection points: 3
#     Node 139, Type 1, BuildingBlock: BETDIP_clean_linker_0, # of connection points: 3
#     Node 140, Type 1, BuildingBlock: BETDIP_clean_linker_0, # of connection points: 3
#     Node 141, Type 1, BuildingBlock: BETDIP_clean_linker_0, # of connection points: 3
#     Node 142, Type 1, BuildingBlock: BETDIP_clean_linker_0, # of connection points: 3
#     Node 143, Type 1, BuildingBlock: BETDIP_clean_linker_0, # of connection points: 3
#     Node 144, Type 1, BuildingBlock: BETDIP_clean_linker_0, # of connection points: 3
#     Node 145, Type 1, BuildingBlock: BETDIP_clean_linker_0, # of connection points: 3
#     Node 146, Type 1, BuildingBlock: BETDIP_clean_linker_0, # of connection points: 3
#     Node 147, Type 1, BuildingBlock: BETDIP_clean_linker_0, # of connection points: 3
#     Node 148, Type 1, BuildingBlock: BETDIP_clean_linker_0, # of connection points: 3
#     Node 149, Type 1, BuildingBlock: BETDIP_clean_linker_0, # of connection points: 3
#     Node 150, Type 1, BuildingBlock: BETDIP_clean_linker_0, # of connection points: 3
#     Node 151, Type 1, BuildingBlock: BETDIP_clean_linker_0, # of connection points: 3
#     Node 152, Type 1, BuildingBlock: BETDIP_clean_linker_0, # of connection points: 3
#     Node 153, Type 1, BuildingBlock: BETDIP_clean_linker_0, # of connection points: 3
#     Node 154, Type 1, BuildingBlock: BETDIP_clean_linker_0, # of connection points: 3
#     Node 155, Type 1, BuildingBlock: BETDIP_clean_linker_0, # of connection points: 3
#     Node 156, Type 1, BuildingBlock: BETDIP_clean_linker_0, # of connection points: 3
#     Node 157, Type 1, BuildingBlock: BETDIP_clean_linker_0, # of connection points: 3
#     Node 158, Type 1, BuildingBlock: BETDIP_clean_linker_0, # of connection points: 3
#     Node 159, Type 1, BuildingBlock: BETDIP_clean_linker_0, # of connection points: 3
#     Node 160, Type 1, BuildingBlock: BETDIP_clean_linker_0, # of connection points: 3
#     Node 161, Type 1, BuildingBlock: BETDIP_clean_linker_0, # of connection points: 3
#     Node 162, Type 1, BuildingBlock: BETDIP_clean_linker_0, # of connection points: 3
#     Node 163, Type 1, BuildingBlock: BETDIP_clean_linker_0, # of connection points: 3
#     Node 164, Type 1, BuildingBlock: BETDIP_clean_linker_0, # of connection points: 3
#     Node 165, Type 1, BuildingBlock: BETDIP_clean_linker_0, # of connection points: 3
#     Node 166, Type 1, BuildingBlock: BETDIP_clean_linker_0, # of connection points: 3
#     Node 167, Type 1, BuildingBlock: BETDIP_clean_linker_0, # of connection points: 3
#     Node 168, Type 1, BuildingBlock: BETDIP_clean_linker_0, # of connection points: 3
#     Node 169, Type 1, BuildingBlock: BETDIP_clean_linker_0, # of connection points: 3
#     Node 170, Type 1, BuildingBlock: BETDIP_clean_linker_0, # of connection points: 3
#     Node 171, Type 1, BuildingBlock: BETDIP_clean_linker_0, # of connection points: 3
#     Node 172, Type 1, BuildingBlock: BETDIP_clean_linker_0, # of connection points: 3
#     Node 173, Type 1, BuildingBlock: BETDIP_clean_linker_0, # of connection points: 3
#     Node 174, Type 1, BuildingBlock: BETDIP_clean_linker_0, # of connection points: 3
#     Node 175, Type 1, BuildingBlock: BETDIP_clean_linker_0, # of connection points: 3
#     Node 176, Type 1, BuildingBlock: BETDIP_clean_linker_0, # of connection points: 3
#     Node 177, Type 1, BuildingBlock: BETDIP_clean_linker_0, # of connection points: 3
#     Node 178, Type 1, BuildingBlock: BETDIP_clean_linker_0, # of connection points: 3
#     Node 179, Type 1, BuildingBlock: BETDIP_clean_linker_0, # of connection points: 3
#     Node 180, Type 1, BuildingBlock: BETDIP_clean_linker_0, # of connection points: 3
#     Node 181, Type 1, BuildingBlock: BETDIP_clean_linker_0, # of connection points: 3
#     Node 182, Type 1, BuildingBlock: BETDIP_clean_linker_0, # of connection points: 3
#     Node 183, Type 1, BuildingBlock: BETDIP_clean_linker_0, # of connection points: 3
#     Node 184, Type 1, BuildingBlock: BETDIP_clean_linker_0, # of connection points: 3
#     Node 185, Type 1, BuildingBlock: BETDIP_clean_linker_0, # of connection points: 3
#     Node 186, Type 1, BuildingBlock: BETDIP_clean_linker_0, # of connection points: 3
#     Node 187, Type 1, BuildingBlock: BETDIP_clean_linker_0, # of connection points: 3
#     Node 188, Type 1, BuildingBlock: BETDIP_clean_linker_0, # of connection points: 3
#     Node 189, Type 1, BuildingBlock: BETDIP_clean_linker_0, # of connection points: 3
#     Node 190, Type 1, BuildingBlock: BETDIP_clean_linker_0, # of connection points: 3
#     Node 191, Type 1, BuildingBlock: BETDIP_clean_linker_0, # of connection points: 3
#     Edge 192, Type (0, 1), BuildingBlock: KIFKEQ_clean_linker_1, # of connection points: 2
#     Edge 193, Type (0, 1), BuildingBlock: KIFKEQ_clean_linker_1, # of connection points: 2
#     Edge 194, Type (0, 1), BuildingBlock: KIFKEQ_clean_linker_1, # of connection points: 2
#     Edge 195, Type (0, 1), BuildingBlock: KIFKEQ_clean_linker_1, # of connection points: 2
#     Edge 196, Type (0, 1), BuildingBlock: KIFKEQ_clean_linker_1, # of connection points: 2
#     Edge 197, Type (0, 1), BuildingBlock: KIFKEQ_clean_linker_1, # of connection points: 2
#     Edge 198, Type (0, 1), BuildingBlock: KIFKEQ_clean_linker_1, # of connection points: 2
#     Edge 199, Type (0, 1), BuildingBlock: KIFKEQ_clean_linker_1, # of connection points: 2
#     Edge 200, Type (0, 1), BuildingBlock: KIFKEQ_clean_linker_1, # of connection points: 2
#     Edge 201, Type (0, 1), BuildingBlock: KIFKEQ_clean_linker_1, # of connection points: 2
#     Edge 202, Type (0, 1), BuildingBlock: KIFKEQ_clean_linker_1, # of connection points: 2
#     Edge 203, Type (0, 1), BuildingBlock: KIFKEQ_clean_linker_1, # of connection points: 2
#     Edge 204, Type (0, 1), BuildingBlock: KIFKEQ_clean_linker_1, # of connection points: 2
#     Edge 205, Type (0, 1), BuildingBlock: KIFKEQ_clean_linker_1, # of connection points: 2
#     Edge 206, Type (0, 1), BuildingBlock: KIFKEQ_clean_linker_1, # of connection points: 2
#     Edge 207, Type (0, 1), BuildingBlock: KIFKEQ_clean_linker_1, # of connection points: 2
#     Edge 208, Type (0, 1), BuildingBlock: KIFKEQ_clean_linker_1, # of connection points: 2
#     Edge 209, Type (0, 1), BuildingBlock: KIFKEQ_clean_linker_1, # of connection points: 2
#     Edge 210, Type (0, 1), BuildingBlock: KIFKEQ_clean_linker_1, # of connection points: 2
#     Edge 211, Type (0, 1), BuildingBlock: KIFKEQ_clean_linker_1, # of connection points: 2
#     Edge 212, Type (0, 1), BuildingBlock: KIFKEQ_clean_linker_1, # of connection points: 2
#     Edge 213, Type (0, 1), BuildingBlock: KIFKEQ_clean_linker_1, # of connection points: 2
#     Edge 214, Type (0, 1), BuildingBlock: KIFKEQ_clean_linker_1, # of connection points: 2
#     Edge 215, Type (0, 1), BuildingBlock: KIFKEQ_clean_linker_1, # of connection points: 2
#     Edge 216, Type (0, 1), BuildingBlock: KIFKEQ_clean_linker_1, # of connection points: 2
#     Edge 217, Type (0, 1), BuildingBlock: KIFKEQ_clean_linker_1, # of connection points: 2
#     Edge 218, Type (0, 1), BuildingBlock: KIFKEQ_clean_linker_1, # of connection points: 2
#     Edge 219, Type (0, 1), BuildingBlock: KIFKEQ_clean_linker_1, # of connection points: 2
#     Edge 220, Type (0, 1), BuildingBlock: KIFKEQ_clean_linker_1, # of connection points: 2
#     Edge 221, Type (0, 1), BuildingBlock: KIFKEQ_clean_linker_1, # of connection points: 2
#     Edge 222, Type (0, 1), BuildingBlock: KIFKEQ_clean_linker_1, # of connection points: 2
#     Edge 223, Type (0, 1), BuildingBlock: KIFKEQ_clean_linker_1, # of connection points: 2
#     Edge 224, Type (0, 1), BuildingBlock: KIFKEQ_clean_linker_1, # of connection points: 2
#     Edge 225, Type (0, 1), BuildingBlock: KIFKEQ_clean_linker_1, # of connection points: 2
#     Edge 226, Type (0, 1), BuildingBlock: KIFKEQ_clean_linker_1, # of connection points: 2
#     Edge 227, Type (0, 1), BuildingBlock: KIFKEQ_clean_linker_1, # of connection points: 2
#     Edge 228, Type (0, 1), BuildingBlock: KIFKEQ_clean_linker_1, # of connection points: 2
#     Edge 229, Type (0, 1), BuildingBlock: KIFKEQ_clean_linker_1, # of connection points: 2
#     Edge 230, Type (0, 1), BuildingBlock: KIFKEQ_clean_linker_1, # of connection points: 2
#     Edge 231, Type (0, 1), BuildingBlock: KIFKEQ_clean_linker_1, # of connection points: 2
#     Edge 232, Type (0, 1), BuildingBlock: KIFKEQ_clean_linker_1, # of connection points: 2
#     Edge 233, Type (0, 1), BuildingBlock: KIFKEQ_clean_linker_1, # of connection points: 2
#     Edge 234, Type (0, 1), BuildingBlock: KIFKEQ_clean_linker_1, # of connection points: 2
#     Edge 235, Type (0, 1), BuildingBlock: KIFKEQ_clean_linker_1, # of connection points: 2
#     Edge 236, Type (0, 1), BuildingBlock: KIFKEQ_clean_linker_1, # of connection points: 2
#     Edge 237, Type (0, 1), BuildingBlock: KIFKEQ_clean_linker_1, # of connection points: 2
#     Edge 238, Type (0, 1), BuildingBlock: KIFKEQ_clean_linker_1, # of connection points: 2
#     Edge 239, Type (0, 1), BuildingBlock: KIFKEQ_clean_linker_1, # of connection points: 2
#     Edge 240, Type (0, 1), BuildingBlock: KIFKEQ_clean_linker_1, # of connection points: 2
#     Edge 241, Type (0, 1), BuildingBlock: KIFKEQ_clean_linker_1, # of connection points: 2
#     Edge 242, Type (0, 1), BuildingBlock: KIFKEQ_clean_linker_1, # of connection points: 2
#     Edge 243, Type (0, 1), BuildingBlock: KIFKEQ_clean_linker_1, # of connection points: 2
#     Edge 244, Type (0, 1), BuildingBlock: KIFKEQ_clean_linker_1, # of connection points: 2
#     Edge 245, Type (0, 1), BuildingBlock: KIFKEQ_clean_linker_1, # of connection points: 2
#     Edge 246, Type (0, 1), BuildingBlock: KIFKEQ_clean_linker_1, # of connection points: 2
#     Edge 247, Type (0, 1), BuildingBlock: KIFKEQ_clean_linker_1, # of connection points: 2
#     Edge 248, Type (0, 1), BuildingBlock: KIFKEQ_clean_linker_1, # of connection points: 2
#     Edge 249, Type (0, 1), BuildingBlock: KIFKEQ_clean_linker_1, # of connection points: 2
#     Edge 250, Type (0, 1), BuildingBlock: KIFKEQ_clean_linker_1, # of connection points: 2
#     Edge 251, Type (0, 1), BuildingBlock: KIFKEQ_clean_linker_1, # of connection points: 2
#     Edge 252, Type (0, 1), BuildingBlock: KIFKEQ_clean_linker_1, # of connection points: 2
#     Edge 253, Type (0, 1), BuildingBlock: KIFKEQ_clean_linker_1, # of connection points: 2
#     Edge 254, Type (0, 1), BuildingBlock: KIFKEQ_clean_linker_1, # of connection points: 2
#     Edge 255, Type (0, 1), BuildingBlock: KIFKEQ_clean_linker_1, # of connection points: 2
#     Edge 256, Type (0, 1), BuildingBlock: KIFKEQ_clean_linker_1, # of connection points: 2
#     Edge 257, Type (0, 1), BuildingBlock: KIFKEQ_clean_linker_1, # of connection points: 2
#     Edge 258, Type (0, 1), BuildingBlock: KIFKEQ_clean_linker_1, # of connection points: 2
#     Edge 259, Type (0, 1), BuildingBlock: KIFKEQ_clean_linker_1, # of connection points: 2
#     Edge 260, Type (0, 1), BuildingBlock: KIFKEQ_clean_linker_1, # of connection points: 2
#     Edge 261, Type (0, 1), BuildingBlock: KIFKEQ_clean_linker_1, # of connection points: 2
#     Edge 262, Type (0, 1), BuildingBlock: KIFKEQ_clean_linker_1, # of connection points: 2
#     Edge 263, Type (0, 1), BuildingBlock: KIFKEQ_clean_linker_1, # of connection points: 2
#     Edge 264, Type (0, 1), BuildingBlock: KIFKEQ_clean_linker_1, # of connection points: 2
#     Edge 265, Type (0, 1), BuildingBlock: KIFKEQ_clean_linker_1, # of connection points: 2
#     Edge 266, Type (0, 1), BuildingBlock: KIFKEQ_clean_linker_1, # of connection points: 2
#     Edge 267, Type (0, 1), BuildingBlock: KIFKEQ_clean_linker_1, # of connection points: 2
#     Edge 268, Type (0, 1), BuildingBlock: KIFKEQ_clean_linker_1, # of connection points: 2
#     Edge 269, Type (0, 1), BuildingBlock: KIFKEQ_clean_linker_1, # of connection points: 2
#     Edge 270, Type (0, 1), BuildingBlock: KIFKEQ_clean_linker_1, # of connection points: 2
#     Edge 271, Type (0, 1), BuildingBlock: KIFKEQ_clean_linker_1, # of connection points: 2
#     Edge 272, Type (0, 1), BuildingBlock: KIFKEQ_clean_linker_1, # of connection points: 2
#     Edge 273, Type (0, 1), BuildingBlock: KIFKEQ_clean_linker_1, # of connection points: 2
#     Edge 274, Type (0, 1), BuildingBlock: KIFKEQ_clean_linker_1, # of connection points: 2
#     Edge 275, Type (0, 1), BuildingBlock: KIFKEQ_clean_linker_1, # of connection points: 2
#     Edge 276, Type (0, 1), BuildingBlock: KIFKEQ_clean_linker_1, # of connection points: 2
#     Edge 277, Type (0, 1), BuildingBlock: KIFKEQ_clean_linker_1, # of connection points: 2
#     Edge 278, Type (0, 1), BuildingBlock: KIFKEQ_clean_linker_1, # of connection points: 2
#     Edge 279, Type (0, 1), BuildingBlock: KIFKEQ_clean_linker_1, # of connection points: 2
#     Edge 280, Type (0, 1), BuildingBlock: KIFKEQ_clean_linker_1, # of connection points: 2
#     Edge 281, Type (0, 1), BuildingBlock: KIFKEQ_clean_linker_1, # of connection points: 2
#     Edge 282, Type (0, 1), BuildingBlock: KIFKEQ_clean_linker_1, # of connection points: 2
#     Edge 283, Type (0, 1), BuildingBlock: KIFKEQ_clean_linker_1, # of connection points: 2
#     Edge 284, Type (0, 1), BuildingBlock: KIFKEQ_clean_linker_1, # of connection points: 2
#     Edge 285, Type (0, 1), BuildingBlock: KIFKEQ_clean_linker_1, # of connection points: 2
#     Edge 286, Type (0, 1), BuildingBlock: KIFKEQ_clean_linker_1, # of connection points: 2
#     Edge 287, Type (0, 1), BuildingBlock: KIFKEQ_clean_linker_1, # of connection points: 2
#     Edge 288, Type (0, 1), BuildingBlock: KIFKEQ_clean_linker_1, # of connection points: 2
#     Edge 289, Type (0, 1), BuildingBlock: KIFKEQ_clean_linker_1, # of connection points: 2
#     Edge 290, Type (0, 1), BuildingBlock: KIFKEQ_clean_linker_1, # of connection points: 2
#     Edge 291, Type (0, 1), BuildingBlock: KIFKEQ_clean_linker_1, # of connection points: 2
#     Edge 292, Type (0, 1), BuildingBlock: KIFKEQ_clean_linker_1, # of connection points: 2
#     Edge 293, Type (0, 1), BuildingBlock: KIFKEQ_clean_linker_1, # of connection points: 2
#     Edge 294, Type (0, 1), BuildingBlock: KIFKEQ_clean_linker_1, # of connection points: 2
#     Edge 295, Type (0, 1), BuildingBlock: KIFKEQ_clean_linker_1, # of connection points: 2
#     Edge 296, Type (0, 1), BuildingBlock: KIFKEQ_clean_linker_1, # of connection points: 2
#     Edge 297, Type (0, 1), BuildingBlock: KIFKEQ_clean_linker_1, # of connection points: 2
#     Edge 298, Type (0, 1), BuildingBlock: KIFKEQ_clean_linker_1, # of connection points: 2
#     Edge 299, Type (0, 1), BuildingBlock: KIFKEQ_clean_linker_1, # of connection points: 2
#     Edge 300, Type (0, 1), BuildingBlock: KIFKEQ_clean_linker_1, # of connection points: 2
#     Edge 301, Type (0, 1), BuildingBlock: KIFKEQ_clean_linker_1, # of connection points: 2
#     Edge 302, Type (0, 1), BuildingBlock: KIFKEQ_clean_linker_1, # of connection points: 2
#     Edge 303, Type (0, 1), BuildingBlock: KIFKEQ_clean_linker_1, # of connection points: 2
#     Edge 304, Type (0, 1), BuildingBlock: KIFKEQ_clean_linker_1, # of connection points: 2
#     Edge 305, Type (0, 1), BuildingBlock: KIFKEQ_clean_linker_1, # of connection points: 2
#     Edge 306, Type (0, 1), BuildingBlock: KIFKEQ_clean_linker_1, # of connection points: 2
#     Edge 307, Type (0, 1), BuildingBlock: KIFKEQ_clean_linker_1, # of connection points: 2
#     Edge 308, Type (0, 1), BuildingBlock: KIFKEQ_clean_linker_1, # of connection points: 2
#     Edge 309, Type (0, 1), BuildingBlock: KIFKEQ_clean_linker_1, # of connection points: 2
#     Edge 310, Type (0, 1), BuildingBlock: KIFKEQ_clean_linker_1, # of connection points: 2
#     Edge 311, Type (0, 1), BuildingBlock: KIFKEQ_clean_linker_1, # of connection points: 2
#     Edge 312, Type (0, 1), BuildingBlock: KIFKEQ_clean_linker_1, # of connection points: 2
#     Edge 313, Type (0, 1), BuildingBlock: KIFKEQ_clean_linker_1, # of connection points: 2
#     Edge 314, Type (0, 1), BuildingBlock: KIFKEQ_clean_linker_1, # of connection points: 2
#     Edge 315, Type (0, 1), BuildingBlock: KIFKEQ_clean_linker_1, # of connection points: 2
#     Edge 316, Type (0, 1), BuildingBlock: KIFKEQ_clean_linker_1, # of connection points: 2
#     Edge 317, Type (0, 1), BuildingBlock: KIFKEQ_clean_linker_1, # of connection points: 2
#     Edge 318, Type (0, 1), BuildingBlock: KIFKEQ_clean_linker_1, # of connection points: 2
#     Edge 319, Type (0, 1), BuildingBlock: KIFKEQ_clean_linker_1, # of connection points: 2
#     Edge 320, Type (0, 1), BuildingBlock: KIFKEQ_clean_linker_1, # of connection points: 2
#     Edge 321, Type (0, 1), BuildingBlock: KIFKEQ_clean_linker_1, # of connection points: 2
#     Edge 322, Type (0, 1), BuildingBlock: KIFKEQ_clean_linker_1, # of connection points: 2
#     Edge 323, Type (0, 1), BuildingBlock: KIFKEQ_clean_linker_1, # of connection points: 2
#     Edge 324, Type (0, 1), BuildingBlock: KIFKEQ_clean_linker_1, # of connection points: 2
#     Edge 325, Type (0, 1), BuildingBlock: KIFKEQ_clean_linker_1, # of connection points: 2
#     Edge 326, Type (0, 1), BuildingBlock: KIFKEQ_clean_linker_1, # of connection points: 2
#     Edge 327, Type (0, 1), BuildingBlock: KIFKEQ_clean_linker_1, # of connection points: 2
#     Edge 328, Type (0, 1), BuildingBlock: KIFKEQ_clean_linker_1, # of connection points: 2
#     Edge 329, Type (0, 1), BuildingBlock: KIFKEQ_clean_linker_1, # of connection points: 2
#     Edge 330, Type (0, 1), BuildingBlock: KIFKEQ_clean_linker_1, # of connection points: 2
#     Edge 331, Type (0, 1), BuildingBlock: KIFKEQ_clean_linker_1, # of connection points: 2
#     Edge 332, Type (0, 1), BuildingBlock: KIFKEQ_clean_linker_1, # of connection points: 2
#     Edge 333, Type (0, 1), BuildingBlock: KIFKEQ_clean_linker_1, # of connection points: 2
#     Edge 334, Type (0, 1), BuildingBlock: KIFKEQ_clean_linker_1, # of connection points: 2
#     Edge 335, Type (0, 1), BuildingBlock: KIFKEQ_clean_linker_1, # of connection points: 2
#     Edge 336, Type (0, 1), BuildingBlock: KIFKEQ_clean_linker_1, # of connection points: 2
#     Edge 337, Type (0, 1), BuildingBlock: KIFKEQ_clean_linker_1, # of connection points: 2
#     Edge 338, Type (0, 1), BuildingBlock: KIFKEQ_clean_linker_1, # of connection points: 2
#     Edge 339, Type (0, 1), BuildingBlock: KIFKEQ_clean_linker_1, # of connection points: 2
#     Edge 340, Type (0, 1), BuildingBlock: KIFKEQ_clean_linker_1, # of connection points: 2
#     Edge 341, Type (0, 1), BuildingBlock: KIFKEQ_clean_linker_1, # of connection points: 2
#     Edge 342, Type (0, 1), BuildingBlock: KIFKEQ_clean_linker_1, # of connection points: 2
#     Edge 343, Type (0, 1), BuildingBlock: KIFKEQ_clean_linker_1, # of connection points: 2
#     Edge 344, Type (0, 1), BuildingBlock: KIFKEQ_clean_linker_1, # of connection points: 2
#     Edge 345, Type (0, 1), BuildingBlock: KIFKEQ_clean_linker_1, # of connection points: 2
#     Edge 346, Type (0, 1), BuildingBlock: KIFKEQ_clean_linker_1, # of connection points: 2
#     Edge 347, Type (0, 1), BuildingBlock: KIFKEQ_clean_linker_1, # of connection points: 2
#     Edge 348, Type (0, 1), BuildingBlock: KIFKEQ_clean_linker_1, # of connection points: 2
#     Edge 349, Type (0, 1), BuildingBlock: KIFKEQ_clean_linker_1, # of connection points: 2
#     Edge 350, Type (0, 1), BuildingBlock: KIFKEQ_clean_linker_1, # of connection points: 2
#     Edge 351, Type (0, 1), BuildingBlock: KIFKEQ_clean_linker_1, # of connection points: 2
#     Edge 352, Type (0, 1), BuildingBlock: KIFKEQ_clean_linker_1, # of connection points: 2
#     Edge 353, Type (0, 1), BuildingBlock: KIFKEQ_clean_linker_1, # of connection points: 2
#     Edge 354, Type (0, 1), BuildingBlock: KIFKEQ_clean_linker_1, # of connection points: 2
#     Edge 355, Type (0, 1), BuildingBlock: KIFKEQ_clean_linker_1, # of connection points: 2
#     Edge 356, Type (0, 1), BuildingBlock: KIFKEQ_clean_linker_1, # of connection points: 2
#     Edge 357, Type (0, 1), BuildingBlock: KIFKEQ_clean_linker_1, # of connection points: 2
#     Edge 358, Type (0, 1), BuildingBlock: KIFKEQ_clean_linker_1, # of connection points: 2
#     Edge 359, Type (0, 1), BuildingBlock: KIFKEQ_clean_linker_1, # of connection points: 2
#     Edge 360, Type (0, 1), BuildingBlock: KIFKEQ_clean_linker_1, # of connection points: 2
#     Edge 361, Type (0, 1), BuildingBlock: KIFKEQ_clean_linker_1, # of connection points: 2
#     Edge 362, Type (0, 1), BuildingBlock: KIFKEQ_clean_linker_1, # of connection points: 2
#     Edge 363, Type (0, 1), BuildingBlock: KIFKEQ_clean_linker_1, # of connection points: 2
#     Edge 364, Type (0, 1), BuildingBlock: KIFKEQ_clean_linker_1, # of connection points: 2
#     Edge 365, Type (0, 1), BuildingBlock: KIFKEQ_clean_linker_1, # of connection points: 2
#     Edge 366, Type (0, 1), BuildingBlock: KIFKEQ_clean_linker_1, # of connection points: 2
#     Edge 367, Type (0, 1), BuildingBlock: KIFKEQ_clean_linker_1, # of connection points: 2
#     Edge 368, Type (0, 1), BuildingBlock: KIFKEQ_clean_linker_1, # of connection points: 2
#     Edge 369, Type (0, 1), BuildingBlock: KIFKEQ_clean_linker_1, # of connection points: 2
#     Edge 370, Type (0, 1), BuildingBlock: KIFKEQ_clean_linker_1, # of connection points: 2
#     Edge 371, Type (0, 1), BuildingBlock: KIFKEQ_clean_linker_1, # of connection points: 2
#     Edge 372, Type (0, 1), BuildingBlock: KIFKEQ_clean_linker_1, # of connection points: 2
#     Edge 373, Type (0, 1), BuildingBlock: KIFKEQ_clean_linker_1, # of connection points: 2
#     Edge 374, Type (0, 1), BuildingBlock: KIFKEQ_clean_linker_1, # of connection points: 2
#     Edge 375, Type (0, 1), BuildingBlock: KIFKEQ_clean_linker_1, # of connection points: 2
#     Edge 376, Type (0, 1), BuildingBlock: KIFKEQ_clean_linker_1, # of connection points: 2
#     Edge 377, Type (0, 1), BuildingBlock: KIFKEQ_clean_linker_1, # of connection points: 2
#     Edge 378, Type (0, 1), BuildingBlock: KIFKEQ_clean_linker_1, # of connection points: 2
#     Edge 379, Type (0, 1), BuildingBlock: KIFKEQ_clean_linker_1, # of connection points: 2
#     Edge 380, Type (0, 1), BuildingBlock: KIFKEQ_clean_linker_1, # of connection points: 2
#     Edge 381, Type (0, 1), BuildingBlock: KIFKEQ_clean_linker_1, # of connection points: 2
#     Edge 382, Type (0, 1), BuildingBlock: KIFKEQ_clean_linker_1, # of connection points: 2
#     Edge 383, Type (0, 1), BuildingBlock: KIFKEQ_clean_linker_1, # of connection points: 2
#     Edge 384, Type (0, 1), BuildingBlock: KIFKEQ_clean_linker_1, # of connection points: 2
#     Edge 385, Type (0, 1), BuildingBlock: KIFKEQ_clean_linker_1, # of connection points: 2
#     Edge 386, Type (0, 1), BuildingBlock: KIFKEQ_clean_linker_1, # of connection points: 2
#     Edge 387, Type (0, 1), BuildingBlock: KIFKEQ_clean_linker_1, # of connection points: 2
#     Edge 388, Type (0, 1), BuildingBlock: KIFKEQ_clean_linker_1, # of connection points: 2
#     Edge 389, Type (0, 1), BuildingBlock: KIFKEQ_clean_linker_1, # of connection points: 2
#     Edge 390, Type (0, 1), BuildingBlock: KIFKEQ_clean_linker_1, # of connection points: 2
#     Edge 391, Type (0, 1), BuildingBlock: KIFKEQ_clean_linker_1, # of connection points: 2
#     Edge 392, Type (0, 1), BuildingBlock: KIFKEQ_clean_linker_1, # of connection points: 2
#     Edge 393, Type (0, 1), BuildingBlock: KIFKEQ_clean_linker_1, # of connection points: 2
#     Edge 394, Type (0, 1), BuildingBlock: KIFKEQ_clean_linker_1, # of connection points: 2
#     Edge 395, Type (0, 1), BuildingBlock: KIFKEQ_clean_linker_1, # of connection points: 2
#     Edge 396, Type (0, 1), BuildingBlock: KIFKEQ_clean_linker_1, # of connection points: 2
#     Edge 397, Type (0, 1), BuildingBlock: KIFKEQ_clean_linker_1, # of connection points: 2
#     Edge 398, Type (0, 1), BuildingBlock: KIFKEQ_clean_linker_1, # of connection points: 2
#     Edge 399, Type (0, 1), BuildingBlock: KIFKEQ_clean_linker_1, # of connection points: 2
#     Edge 400, Type (0, 1), BuildingBlock: KIFKEQ_clean_linker_1, # of connection points: 2
#     Edge 401, Type (0, 1), BuildingBlock: KIFKEQ_clean_linker_1, # of connection points: 2
#     Edge 402, Type (0, 1), BuildingBlock: KIFKEQ_clean_linker_1, # of connection points: 2
#     Edge 403, Type (0, 1), BuildingBlock: KIFKEQ_clean_linker_1, # of connection points: 2
#     Edge 404, Type (0, 1), BuildingBlock: KIFKEQ_clean_linker_1, # of connection points: 2
#     Edge 405, Type (0, 1), BuildingBlock: KIFKEQ_clean_linker_1, # of connection points: 2
#     Edge 406, Type (0, 1), BuildingBlock: KIFKEQ_clean_linker_1, # of connection points: 2
#     Edge 407, Type (0, 1), BuildingBlock: KIFKEQ_clean_linker_1, # of connection points: 2
#     Edge 408, Type (0, 1), BuildingBlock: KIFKEQ_clean_linker_1, # of connection points: 2
#     Edge 409, Type (0, 1), BuildingBlock: KIFKEQ_clean_linker_1, # of connection points: 2
#     Edge 410, Type (0, 1), BuildingBlock: KIFKEQ_clean_linker_1, # of connection points: 2
#     Edge 411, Type (0, 1), BuildingBlock: KIFKEQ_clean_linker_1, # of connection points: 2
#     Edge 412, Type (0, 1), BuildingBlock: KIFKEQ_clean_linker_1, # of connection points: 2
#     Edge 413, Type (0, 1), BuildingBlock: KIFKEQ_clean_linker_1, # of connection points: 2
#     Edge 414, Type (0, 1), BuildingBlock: KIFKEQ_clean_linker_1, # of connection points: 2
#     Edge 415, Type (0, 1), BuildingBlock: KIFKEQ_clean_linker_1, # of connection points: 2
#     Edge 416, Type (0, 1), BuildingBlock: KIFKEQ_clean_linker_1, # of connection points: 2
#     Edge 417, Type (0, 1), BuildingBlock: KIFKEQ_clean_linker_1, # of connection points: 2
#     Edge 418, Type (0, 1), BuildingBlock: KIFKEQ_clean_linker_1, # of connection points: 2
#     Edge 419, Type (0, 1), BuildingBlock: KIFKEQ_clean_linker_1, # of connection points: 2
#     Edge 420, Type (0, 1), BuildingBlock: KIFKEQ_clean_linker_1, # of connection points: 2
#     Edge 421, Type (0, 1), BuildingBlock: KIFKEQ_clean_linker_1, # of connection points: 2
#     Edge 422, Type (0, 1), BuildingBlock: KIFKEQ_clean_linker_1, # of connection points: 2
#     Edge 423, Type (0, 1), BuildingBlock: KIFKEQ_clean_linker_1, # of connection points: 2
#     Edge 424, Type (0, 1), BuildingBlock: KIFKEQ_clean_linker_1, # of connection points: 2
#     Edge 425, Type (0, 1), BuildingBlock: KIFKEQ_clean_linker_1, # of connection points: 2
#     Edge 426, Type (0, 1), BuildingBlock: KIFKEQ_clean_linker_1, # of connection points: 2
#     Edge 427, Type (0, 1), BuildingBlock: KIFKEQ_clean_linker_1, # of connection points: 2
#     Edge 428, Type (0, 1), BuildingBlock: KIFKEQ_clean_linker_1, # of connection points: 2
#     Edge 429, Type (0, 1), BuildingBlock: KIFKEQ_clean_linker_1, # of connection points: 2
#     Edge 430, Type (0, 1), BuildingBlock: KIFKEQ_clean_linker_1, # of connection points: 2
#     Edge 431, Type (0, 1), BuildingBlock: KIFKEQ_clean_linker_1, # of connection points: 2
#     Edge 432, Type (0, 1), BuildingBlock: KIFKEQ_clean_linker_1, # of connection points: 2
#     Edge 433, Type (0, 1), BuildingBlock: KIFKEQ_clean_linker_1, # of connection points: 2
#     Edge 434, Type (0, 1), BuildingBlock: KIFKEQ_clean_linker_1, # of connection points: 2
#     Edge 435, Type (0, 1), BuildingBlock: KIFKEQ_clean_linker_1, # of connection points: 2
#     Edge 436, Type (0, 1), BuildingBlock: KIFKEQ_clean_linker_1, # of connection points: 2
#     Edge 437, Type (0, 1), BuildingBlock: KIFKEQ_clean_linker_1, # of connection points: 2
#     Edge 438, Type (0, 1), BuildingBlock: KIFKEQ_clean_linker_1, # of connection points: 2
#     Edge 439, Type (0, 1), BuildingBlock: KIFKEQ_clean_linker_1, # of connection points: 2
#     Edge 440, Type (0, 1), BuildingBlock: KIFKEQ_clean_linker_1, # of connection points: 2
#     Edge 441, Type (0, 1), BuildingBlock: KIFKEQ_clean_linker_1, # of connection points: 2
#     Edge 442, Type (0, 1), BuildingBlock: KIFKEQ_clean_linker_1, # of connection points: 2
#     Edge 443, Type (0, 1), BuildingBlock: KIFKEQ_clean_linker_1, # of connection points: 2
#     Edge 444, Type (0, 1), BuildingBlock: KIFKEQ_clean_linker_1, # of connection points: 2
#     Edge 445, Type (0, 1), BuildingBlock: KIFKEQ_clean_linker_1, # of connection points: 2
#     Edge 446, Type (0, 1), BuildingBlock: KIFKEQ_clean_linker_1, # of connection points: 2
#     Edge 447, Type (0, 1), BuildingBlock: KIFKEQ_clean_linker_1, # of connection points: 2
#     Edge 448, Type (0, 1), BuildingBlock: KIFKEQ_clean_linker_1, # of connection points: 2
#     Edge 449, Type (0, 1), BuildingBlock: KIFKEQ_clean_linker_1, # of connection points: 2
#     Edge 450, Type (0, 1), BuildingBlock: KIFKEQ_clean_linker_1, # of connection points: 2
#     Edge 451, Type (0, 1), BuildingBlock: KIFKEQ_clean_linker_1, # of connection points: 2
#     Edge 452, Type (0, 1), BuildingBlock: KIFKEQ_clean_linker_1, # of connection points: 2
#     Edge 453, Type (0, 1), BuildingBlock: KIFKEQ_clean_linker_1, # of connection points: 2
#     Edge 454, Type (0, 1), BuildingBlock: KIFKEQ_clean_linker_1, # of connection points: 2
#     Edge 455, Type (0, 1), BuildingBlock: KIFKEQ_clean_linker_1, # of connection points: 2
#     Edge 456, Type (0, 1), BuildingBlock: KIFKEQ_clean_linker_1, # of connection points: 2
#     Edge 457, Type (0, 1), BuildingBlock: KIFKEQ_clean_linker_1, # of connection points: 2
#     Edge 458, Type (0, 1), BuildingBlock: KIFKEQ_clean_linker_1, # of connection points: 2
#     Edge 459, Type (0, 1), BuildingBlock: KIFKEQ_clean_linker_1, # of connection points: 2
#     Edge 460, Type (0, 1), BuildingBlock: KIFKEQ_clean_linker_1, # of connection points: 2
#     Edge 461, Type (0, 1), BuildingBlock: KIFKEQ_clean_linker_1, # of connection points: 2
#     Edge 462, Type (0, 1), BuildingBlock: KIFKEQ_clean_linker_1, # of connection points: 2
#     Edge 463, Type (0, 1), BuildingBlock: KIFKEQ_clean_linker_1, # of connection points: 2
#     Edge 464, Type (0, 1), BuildingBlock: KIFKEQ_clean_linker_1, # of connection points: 2
#     Edge 465, Type (0, 1), BuildingBlock: KIFKEQ_clean_linker_1, # of connection points: 2
#     Edge 466, Type (0, 1), BuildingBlock: KIFKEQ_clean_linker_1, # of connection points: 2
#     Edge 467, Type (0, 1), BuildingBlock: KIFKEQ_clean_linker_1, # of connection points: 2
#     Edge 468, Type (0, 1), BuildingBlock: KIFKEQ_clean_linker_1, # of connection points: 2
#     Edge 469, Type (0, 1), BuildingBlock: KIFKEQ_clean_linker_1, # of connection points: 2
#     Edge 470, Type (0, 1), BuildingBlock: KIFKEQ_clean_linker_1, # of connection points: 2
#     Edge 471, Type (0, 1), BuildingBlock: KIFKEQ_clean_linker_1, # of connection points: 2
#     Edge 472, Type (0, 1), BuildingBlock: KIFKEQ_clean_linker_1, # of connection points: 2
#     Edge 473, Type (0, 1), BuildingBlock: KIFKEQ_clean_linker_1, # of connection points: 2
#     Edge 474, Type (0, 1), BuildingBlock: KIFKEQ_clean_linker_1, # of connection points: 2
#     Edge 475, Type (0, 1), BuildingBlock: KIFKEQ_clean_linker_1, # of connection points: 2
#     Edge 476, Type (0, 1), BuildingBlock: KIFKEQ_clean_linker_1, # of connection points: 2
#     Edge 477, Type (0, 1), BuildingBlock: KIFKEQ_clean_linker_1, # of connection points: 2
#     Edge 478, Type (0, 1), BuildingBlock: KIFKEQ_clean_linker_1, # of connection points: 2
#     Edge 479, Type (0, 1), BuildingBlock: KIFKEQ_clean_linker_1, # of connection points: 2
# Relax obj value: 0.034
# Max RMSD: 0.055
# Mean RMSD: 0.030
data_MOF--net-ana-f--node1-WUSLED_clean_sbu_0--node2-BETDIP_clean_linker_0--edge1-KIFKEQ_clean_linker_1
_symmetry_space_group_name_H-M    P1
_symmetry_Int_Tables_number       1
_symmetry_cell_setting            triclinic
loop_
_symmetry_equiv_pos_as_xyz
'x, y, z'
_cell_length_a     189.12594
_cell_length_b     188.99496
_cell_length_c     189.21656
_cell_angle_alpha  90.008754
_cell_angle_beta   90.029473
_cell_angle_gamma 89.964311
loop_
_atom_site_label
_atom_site_type_symbol
_atom_site_fract_x
_atom_site_fract_y
_atom_site_fract_z
_atom_type_partial_charge
C0 C 0.0729 0.14823 0.4361 0.0
C1 C 0.07863 0.15245 0.43822 0.0
C2 C 0.08321 0.14283 0.44545 0.0
C3 C 0.08371 0.14979 0.44287 0.0
C4 C 0.07741 0.13865 0.4434 0.0
C5 C 0.07229 0.14134 0.43877 0.0
U6 U 0.06926 0.16033 0.42075 0.0
O7 O 0.06383 0.15855 0.41061 0.0
O8 O 0.06009 0.16684 0.41782 0.0
C9 C 0.05897 0.16333 0.41193 0.0
C10 C 0.06788 0.15084 0.43075 0.0
C11 C 0.05163 0.16114 0.41065 0.0
C12 C 0.04108 0.15459 0.41393 0.0
C13 C 0.04813 0.15647 0.41522 0.0
C14 C 0.04104 0.16197 0.40346 0.0
C15 C 0.03743 0.15736 0.40805 0.0
C16 C 0.04806 0.16384 0.40475 0.0
C17 C 0.08469 0.1721 0.41488 0.0
C18 C 0.0842 0.17992 0.40469 0.0
C19 C 0.09502 0.17889 0.41149 0.0
C20 C 0.09173 0.17408 0.41602 0.0
C21 C 0.09133 0.18181 0.40573 0.0
C22 C 0.08091 0.17508 0.40923 0.0
C23 C 0.08148 0.16679 0.41954 0.0
O24 O 0.06586 0.15746 0.43149 0.0
O25 O 0.06954 0.14921 0.42421 0.0
O26 O 0.08009 0.16067 0.41657 0.0
O27 O 0.07638 0.16906 0.42367 0.0
H28 H 0.07927 0.15776 0.43614 0.0
H29 H 0.08817 0.15311 0.44425 0.0
H30 H 0.07686 0.13328 0.44532 0.0
H31 H 0.06793 0.13799 0.43715 0.0
H32 H 0.03844 0.15107 0.4176 0.0
H33 H 0.05082 0.15433 0.4198 0.0
H34 H 0.03844 0.16411 0.39882 0.0
H35 H 0.05071 0.16742 0.40115 0.0
H36 H 0.08124 0.18204 0.40028 0.0
H37 H 0.10047 0.18032 0.41252 0.0
H38 H 0.0947 0.17185 0.42038 0.0
H39 H 0.07546 0.17359 0.40828 0.0
C40 C 0.11702 0.82536 0.68504 0.0
C41 C 0.11372 0.83201 0.68502 0.0
C42 C 0.12257 0.83656 0.69319 0.0
C43 C 0.11646 0.83755 0.68906 0.0
C44 C 0.12577 0.82983 0.69333 0.0
C45 C 0.12302 0.82428 0.68926 0.0
U46 U 0.10402 0.81974 0.67115 0.0
O47 O 0.10518 0.81351 0.66142 0.0
O48 O 0.09781 0.80999 0.66968 0.0
C49 C 0.10092 0.80849 0.66364 0.0
C50 C 0.11432 0.81971 0.68044 0.0
C51 C 0.10333 0.8011 0.66272 0.0
C52 C 0.11217 0.79244 0.65912 0.0
C53 C 0.11026 0.79945 0.66058 0.0
C54 C 0.10034 0.7886 0.66213 0.0
C55 C 0.1072 0.78694 0.65977 0.0
C56 C 0.09842 0.7956 0.66355 0.0
C57 C 0.09095 0.83412 0.66507 0.0
C58 C 0.08388 0.83384 0.65434 0.0
C59 C 0.0818 0.84291 0.66315 0.0
C60 C 0.08716 0.84006 0.66735 0.0
C61 C 0.08014 0.83989 0.65656 0.0
C62 C 0.08923 0.83096 0.65858 0.0
C63 C 0.09681 0.8315 0.66945 0.0
O64 O 0.10788 0.81755 0.68191 0.0
O65 O 0.11533 0.82078 0.67366 0.0
O66 O 0.10274 0.83012 0.66609 0.0
O67 O 0.09517 0.82669 0.67419 0.0
H68 H 0.10907 0.83293 0.6818 0.0
H69 H 0.1138 0.84262 0.68892 0.0
H70 H 0.13051 0.82892 0.69642 0.0
H71 H 0.12564 0.81918 0.68932 0.0
H72 H 0.11748 0.79137 0.65727 0.0
H73 H 0.11416 0.80358 0.65988 0.0
H74 H 0.09641 0.78449 0.66282 0.0
H75 H 0.09305 0.79673 0.66519 0.0
H76 H 0.08268 0.83135 0.64933 0.0
H77 H 0.07911 0.84763 0.66497 0.0
H78 H 0.08843 0.84257 0.67234 0.0
H79 H 0.09209 0.82634 0.65675 0.0
C80 C 0.44067 0.86606 0.93474 0.0
C81 C 0.43449 0.86208 0.93567 0.0
C82 C 0.42946 0.87137 0.94302 0.0
C83 C 0.42895 0.86469 0.93979 0.0
C84 C 0.43576 0.87526 0.94227 0.0
C85 C 0.44132 0.87263 0.93813 0.0
U86 U 0.44527 0.85388 0.9199 0.0
O87 O 0.451 0.8555 0.90992 0.0
O88 O 0.45461 0.84741 0.91743 0.0
C89 C 0.45586 0.85078 0.91149 0.0
C90 C 0.44612 0.86356 0.92978 0.0
C91 C 0.46321 0.853 0.91032 0.0
C92 C 0.47365 0.85974 0.91361 0.0
C93 C 0.4666 0.8578 0.91484 0.0
C94 C 0.47392 0.85212 0.90331 0.0
C95 C 0.4774 0.85688 0.90785 0.0
C96 C 0.4669 0.8502 0.90455 0.0
C97 C 0.42989 0.84197 0.91387 0.0
C98 C 0.43018 0.8342 0.90364 0.0
C99 C 0.41955 0.83508 0.91073 0.0
C100 C 0.42291 0.8399 0.91519 0.0
C101 C 0.4231 0.83224 0.90485 0.0
C102 C 0.43355 0.83905 0.90811 0.0
C103 C 0.4331 0.84735 0.91845 0.0
O104 O 0.44821 0.85699 0.93073 0.0
O105 O 0.44481 0.86506 0.92313 0.0
O106 O 0.43458 0.8534 0.91537 0.0
O107 O 0.43811 0.84514 0.92272 0.0
H108 H 0.43386 0.85701 0.93307 0.0
H109 H 0.42423 0.86151 0.94035 0.0
H110 H 0.43629 0.88044 0.94465 0.0
H111 H 0.44604 0.8758 0.93742 0.0
H112 H 0.47619 0.86337 0.91724 0.0
H113 H 0.46381 0.86002 0.91933 0.0
H114 H 0.4766 0.84991 0.89876 0.0
H115 H 0.46435 0.84651 0.90098 0.0
H116 H 0.43304 0.83213 0.89913 0.0
H117 H 0.41414 0.83359 0.91189 0.0
H118 H 0.42003 0.84208 0.91963 0.0
H119 H 0.43895 0.84061 0.90703 0.0
C120 C 0.39745 0.18961 0.18343 0.0
C121 C 0.40097 0.18308 0.18364 0.0
C122 C 0.39193 0.17832 0.19146 0.0
C123 C 0.39825 0.1775 0.18762 0.0
C124 C 0.38849 0.18493 0.19134 0.0
C125 C 0.39123 0.19053 0.18734 0.0
U126 U 0.41111 0.19573 0.1704 0.0
O127 O 0.41035 0.20199 0.16064 0.0
O128 O 0.41704 0.20571 0.16939 0.0
C129 C 0.41428 0.20715 0.16317 0.0
C130 C 0.40023 0.19535 0.17899 0.0
C131 C 0.41161 0.21442 0.1622 0.0
C132 C 0.40216 0.22277 0.15955 0.0
C133 C 0.40442 0.21584 0.1609 0.0
C134 C 0.41417 0.22696 0.16098 0.0
C135 C 0.40702 0.2284 0.15953 0.0
C136 C 0.41643 0.22005 0.16228 0.0
C137 C 0.42512 0.18177 0.16532 0.0
C138 C 0.43246 0.18135 0.15478 0.0
C139 C 0.43513 0.17375 0.16474 0.0
C140 C 0.4294 0.17659 0.16843 0.0
C141 C 0.43668 0.17603 0.15783 0.0
C142 C 0.42673 0.18422 0.1585 0.0
C143 C 0.41885 0.18426 0.1692 0.0
O144 O 0.40647 0.19777 0.18087 0.0
O145 O 0.39971 0.19423 0.17215 0.0
O146 O 0.41314 0.18543 0.16542 0.0
O147 O 0.41998 0.18911 0.17405 0.0
H148 H 0.40581 0.18229 0.18067 0.0
H149 H 0.4011 0.17253 0.18769 0.0
H150 H 0.38359 0.18571 0.1942 0.0
H151 H 0.38844 0.19554 0.18722 0.0
H152 H 0.3966 0.22371 0.15852 0.0
H153 H 0.40057 0.2116 0.16084 0.0
H154 H 0.41806 0.23117 0.16091 0.0
H155 H 0.422 0.21907 0.16323 0.0
H156 H 0.43356 0.18327 0.1495 0.0
H157 H 0.43819 0.16959 0.16721 0.0
H158 H 0.42822 0.17462 0.17368 0.0
H159 H 0.42351 0.18826 0.15602 0.0
C160 C 0.07435 0.86781 0.07871 0.0
C161 C 0.08078 0.86414 0.07836 0.0
C162 C 0.08578 0.87335 0.0709 0.0
C163 C 0.08643 0.86687 0.07449 0.0
C164 C 0.07926 0.87695 0.07111 0.0
C165 C 0.07358 0.8742 0.07502 0.0
U166 U 0.06879 0.85432 0.09196 0.0
O167 O 0.06275 0.85498 0.10185 0.0
O168 O 0.05913 0.84797 0.09332 0.0
C169 C 0.05778 0.85068 0.09958 0.0
C170 C 0.06863 0.86505 0.08319 0.0
C171 C 0.05046 0.85298 0.1008 0.0
C172 C 0.04119 0.86191 0.10057 0.0
C173 C 0.04814 0.85982 0.09904 0.0
C174 C 0.03882 0.85031 0.10549 0.0
C175 C 0.03646 0.85718 0.10384 0.0
C176 C 0.04575 0.84825 0.10398 0.0
C177 C 0.08368 0.84116 0.09687 0.0
C178 C 0.08472 0.83385 0.1074 0.0
C179 C 0.09288 0.83225 0.09766 0.0
C180 C 0.08942 0.83757 0.09389 0.0
C181 C 0.09068 0.83043 0.10452 0.0
C182 C 0.08125 0.83919 0.10361 0.0
C183 C 0.08065 0.84718 0.09299 0.0
O184 O 0.06635 0.85871 0.08146 0.0
O185 O 0.06975 0.86576 0.09001 0.0
O186 O 0.07927 0.85287 0.09673 0.0
O187 O 0.07573 0.84568 0.08833 0.0
H188 H 0.08147 0.85919 0.08117 0.0
H189 H 0.09133 0.86391 0.07433 0.0
H190 H 0.07861 0.88197 0.06844 0.0
H191 H 0.06866 0.87712 0.07526 0.0
H192 H 0.03952 0.86721 0.09918 0.0
H193 H 0.05171 0.86354 0.09656 0.0
H194 H 0.03538 0.84657 0.10811 0.0
H195 H 0.04746 0.84296 0.10539 0.0
H196 H 0.08292 0.83258 0.11268 0.0
H197 H 0.09736 0.82963 0.09524 0.0
H198 H 0.09134 0.83899 0.08868 0.0
H199 H 0.0768 0.8419 0.10599 0.0
C200 C 0.39725 0.82428 0.32953 0.0
C201 C 0.40114 0.83058 0.32901 0.0
C202 C 0.39202 0.83574 0.32151 0.0
C203 C 0.39856 0.83624 0.32503 0.0
C204 C 0.3882 0.82936 0.32195 0.0
C205 C 0.39079 0.82368 0.32594 0.0
U206 U 0.41057 0.81795 0.34282 0.0
O207 O 0.40957 0.8116 0.3525 0.0
O208 O 0.41643 0.80792 0.34387 0.0
C209 C 0.41352 0.80644 0.35 0.0
C210 C 0.39988 0.81849 0.334 0.0
C211 C 0.41078 0.79917 0.35083 0.0
C212 C 0.40137 0.79088 0.35374 0.0
C213 C 0.40367 0.79781 0.35251 0.0
C214 C 0.4132 0.78654 0.35142 0.0
C215 C 0.40613 0.78517 0.35326 0.0
C216 C 0.4155 0.79347 0.35024 0.0
C217 C 0.42458 0.83165 0.34839 0.0
C218 C 0.43157 0.83192 0.35918 0.0
C219 C 0.43479 0.83937 0.34927 0.0
C220 C 0.42911 0.83668 0.3454 0.0
C221 C 0.43605 0.83709 0.35624 0.0
C222 C 0.4259 0.8292 0.35528 0.0
C223 C 0.41838 0.82932 0.34432 0.0
O224 O 0.40613 0.81601 0.33224 0.0
O225 O 0.39922 0.81958 0.34083 0.0
O226 O 0.41256 0.82818 0.34794 0.0
O227 O 0.41956 0.82453 0.33943 0.0
H228 H 0.40614 0.83114 0.33174 0.0
H229 H 0.4017 0.84102 0.32471 0.0
H230 H 0.38312 0.82883 0.31935 0.0
H231 H 0.38772 0.81886 0.32631 0.0
H232 H 0.39588 0.78998 0.35508 0.0
H233 H 0.3999 0.8021 0.35297 0.0
H234 H 0.41701 0.78228 0.35109 0.0
H235 H 0.42101 0.79439 0.34899 0.0
H236 H 0.43244 0.83002 0.36451 0.0
H237 H 0.43806 0.84342 0.34688 0.0
H238 H 0.42817 0.83865 0.34011 0.0
H239 H 0.42248 0.82528 0.35767 0.0
C240 C 0.44015 0.14795 0.57925 0.0
C241 C 0.43362 0.15145 0.57886 0.0
C242 C 0.42906 0.14233 0.57102 0.0
C243 C 0.42813 0.14867 0.57478 0.0
C244 C 0.43568 0.13894 0.57124 0.0
C245 C 0.44118 0.14172 0.57536 0.0
U246 U 0.44539 0.16121 0.59299 0.0
O247 O 0.45101 0.16009 0.60312 0.0
O248 O 0.45517 0.16718 0.59493 0.0
C249 C 0.45623 0.16421 0.60113 0.0
C250 C 0.44566 0.15064 0.58401 0.0
C251 C 0.46338 0.16144 0.60244 0.0
C252 C 0.47379 0.15485 0.59875 0.0
C253 C 0.46693 0.15732 0.59739 0.0
C254 C 0.47352 0.16051 0.61024 0.0
C255 C 0.47716 0.15643 0.6052 0.0
C256 C 0.4667 0.16299 0.60886 0.0
C257 C 0.43091 0.17472 0.59782 0.0
C258 C 0.43062 0.18219 0.60829 0.0
C259 C 0.42204 0.18393 0.59893 0.0
C260 C 0.42511 0.17843 0.59509 0.0
C261 C 0.4247 0.18584 0.60561 0.0
C262 C 0.43371 0.17668 0.60441 0.0
C263 C 0.43373 0.1687 0.59381 0.0
O264 O 0.44806 0.15698 0.58248 0.0
O265 O 0.44424 0.14985 0.59077 0.0
O266 O 0.43478 0.16285 0.59741 0.0
O267 O 0.43885 0.17013 0.58934 0.0
H268 H 0.43273 0.15627 0.58183 0.0
H269 H 0.42313 0.15147 0.57464 0.0
H270 H 0.43653 0.13402 0.56843 0.0
H271 H 0.44619 0.13894 0.57562 0.0
H272 H 0.47642 0.15167 0.59479 0.0
H273 H 0.46442 0.15603 0.59241 0.0
H274 H 0.476 0.16191 0.61521 0.0
H275 H 0.46403 0.16618 0.61281 0.0
H276 H 0.43283 0.18357 0.61338 0.0
H277 H 0.41742 0.18654 0.59676 0.0
H278 H 0.42287 0.17697 0.59002 0.0
H279 H 0.43822 0.17388 0.60659 0.0
C280 C 0.1172 0.19038 0.82745 0.0
C281 C 0.1129 0.18476 0.82521 0.0
C282 C 0.12265 0.17981 0.81842 0.0
C283 C 0.11558 0.17955 0.82071 0.0
C284 C 0.12694 0.18547 0.82064 0.0
C285 C 0.12423 0.19072 0.82511 0.0
U286 U 0.10428 0.19498 0.84187 0.0
O287 O 0.10557 0.20064 0.85193 0.0
O288 O 0.09802 0.20456 0.84402 0.0
C289 C 0.10111 0.20567 0.85015 0.0
C290 C 0.11449 0.19562 0.83253 0.0
C291 C 0.10343 0.21296 0.85152 0.0
C292 C 0.1121 0.22243 0.85081 0.0
C293 C 0.11002 0.21548 0.84923 0.0
C294 C 0.10098 0.22437 0.85687 0.0
C295 C 0.1076 0.22695 0.85465 0.0
C296 C 0.09893 0.21745 0.85531 0.0
C297 C 0.09122 0.18052 0.84734 0.0
C298 C 0.08381 0.18125 0.8578 0.0
C299 C 0.08245 0.17145 0.84965 0.0
C300 C 0.0878 0.17425 0.8454 0.0
C301 C 0.08043 0.17489 0.85593 0.0
C302 C 0.08915 0.18406 0.85352 0.0
C303 C 0.09705 0.18317 0.84295 0.0
O304 O 0.10806 0.19795 0.83129 0.0
O305 O 0.11557 0.19402 0.83921 0.0
O306 O 0.10304 0.18431 0.84629 0.0
O307 O 0.09541 0.18824 0.83848 0.0
H308 H 0.10748 0.18434 0.82704 0.0
H309 H 0.11218 0.1752 0.8192 0.0
H310 H 0.1324 0.18583 0.81894 0.0
H311 H 0.12764 0.19499 0.82683 0.0
H312 H 0.11721 0.22427 0.84899 0.0
H313 H 0.11355 0.21208 0.84627 0.0
H314 H 0.09744 0.22765 0.85994 0.0
H315 H 0.09383 0.21558 0.85713 0.0
H316 H 0.08232 0.18405 0.86257 0.0
H317 H 0.08004 0.16649 0.84811 0.0
H318 H 0.08935 0.17145 0.84065 0.0
H319 H 0.09173 0.18894 0.85508 0.0
C320 C 0.43318 0.07499 0.1469 0.0
C321 C 0.43121 0.0821 0.14778 0.0
C322 C 0.44256 0.08599 0.1431 0.0
C323 C 0.43582 0.08753 0.14585 0.0
C324 C 0.4445 0.07885 0.14216 0.0
C325 C 0.43984 0.0734 0.14405 0.0
U326 U 0.41899 0.06918 0.15943 0.0
O327 O 0.40903 0.06334 0.15786 0.0
O328 O 0.41706 0.05929 0.16522 0.0
C329 C 0.41098 0.05814 0.16204 0.0
C330 C 0.42842 0.0693 0.14929 0.0
C331 C 0.4098 0.05095 0.15929 0.0
C332 C 0.41397 0.04012 0.15375 0.0
C333 C 0.41524 0.04704 0.15608 0.0
C334 C 0.40181 0.04103 0.15769 0.0
C335 C 0.40724 0.03703 0.15455 0.0
C336 C 0.40309 0.04792 0.16003 0.0
C337 C 0.41324 0.08327 0.17292 0.0
C338 C 0.40272 0.08265 0.18027 0.0
C339 C 0.41122 0.09207 0.18203 0.0
C340 C 0.41539 0.08933 0.17659 0.0
C341 C 0.40481 0.0888 0.1839 0.0
C342 C 0.40692 0.07988 0.17483 0.0
C343 C 0.41759 0.08072 0.16702 0.0
O344 O 0.42976 0.06683 0.15565 0.0
O345 O 0.42165 0.07046 0.1482 0.0
O346 O 0.41424 0.07967 0.16102 0.0
O347 O 0.42213 0.07569 0.16855 0.0
H348 H 0.42612 0.08347 0.15001 0.0
H349 H 0.43408 0.09294 0.14652 0.0
H350 H 0.44967 0.07747 0.14013 0.0
H351 H 0.44147 0.06794 0.14339 0.0
H352 H 0.41824 0.03719 0.1513 0.0
H353 H 0.42045 0.04931 0.15542 0.0
H354 H 0.39661 0.03879 0.15847 0.0
H355 H 0.39884 0.05086 0.16251 0.0
H356 H 0.39784 0.07997 0.18162 0.0
H357 H 0.41294 0.09688 0.18463 0.0
H358 H 0.42025 0.09201 0.17517 0.0
H359 H 0.4052 0.07517 0.17206 0.0
C360 C 0.18983 0.18562 0.39723 0.0
C361 C 0.1836 0.18693 0.40104 0.0
C362 C 0.17927 0.19453 0.39159 0.0
C363 C 0.17838 0.19135 0.39826 0.0
C364 C 0.18554 0.19322 0.3878 0.0
C365 C 0.19078 0.18881 0.39062 0.0
U366 U 0.1947 0.17124 0.41015 0.0
O367 O 0.20092 0.1615 0.40893 0.0
O368 O 0.20421 0.16954 0.41665 0.0
C369 C 0.20575 0.16353 0.41351 0.0
C370 C 0.19519 0.18075 0.40007 0.0
C371 C 0.21315 0.16264 0.41129 0.0
C372 C 0.22246 0.16333 0.40246 0.0
C373 C 0.21546 0.1646 0.40451 0.0
C374 C 0.22491 0.1583 0.41399 0.0
C375 C 0.22726 0.16012 0.40717 0.0
C376 C 0.21793 0.15955 0.41602 0.0
C377 C 0.18006 0.16474 0.42271 0.0
C378 C 0.17168 0.15577 0.42657 0.0
C379 C 0.17941 0.16135 0.43512 0.0
C380 C 0.18244 0.16541 0.42973 0.0
C381 C 0.17395 0.15653 0.43361 0.0
C382 C 0.17468 0.15985 0.4212 0.0
C383 C 0.18278 0.16932 0.41698 0.0
O384 O 0.1972 0.18203 0.4066 0.0
O385 O 0.19395 0.17401 0.39887 0.0
O386 O 0.18427 0.16614 0.41099 0.0
O387 O 0.18745 0.17417 0.41875 0.0
H388 H 0.18273 0.18444 0.40613 0.0
H389 H 0.17356 0.19215 0.40125 0.0
H390 H 0.18639 0.19562 0.38268 0.0
H391 H 0.19556 0.18784 0.3876 0.0
H392 H 0.22412 0.16485 0.3972 0.0
H393 H 0.21183 0.16702 0.4008 0.0
H394 H 0.22842 0.15572 0.41771 0.0
H395 H 0.21623 0.15799 0.42126 0.0
H396 H 0.16741 0.15219 0.42525 0.0
H397 H 0.1813 0.16202 0.44048 0.0
H398 H 0.18658 0.16913 0.43108 0.0
H399 H 0.17268 0.15928 0.41586 0.0
C400 C 0.07866 0.94096 0.64759 0.0
C401 C 0.0769 0.93509 0.65178 0.0
C402 C 0.06951 0.9304 0.64234 0.0
C403 C 0.07235 0.92988 0.64919 0.0
C404 C 0.07121 0.93635 0.63819 0.0
C405 C 0.07574 0.94159 0.64081 0.0
U406 U 0.09371 0.94523 0.65986 0.0
O407 O 0.10391 0.95052 0.65799 0.0
O408 O 0.09653 0.95476 0.66589 0.0
C409 C 0.10247 0.95569 0.6624 0.0
C410 C 0.08391 0.94612 0.6501 0.0
C411 C 0.10377 0.96288 0.65972 0.0
C412 C 0.09981 0.97364 0.6539 0.0
C413 C 0.09846 0.96675 0.65625 0.0
C414 C 0.1118 0.97279 0.65834 0.0
C415 C 0.1065 0.97675 0.65493 0.0
C416 C 0.11044 0.96593 0.66071 0.0
C417 C 0.09934 0.93027 0.67243 0.0
C418 C 0.10936 0.93097 0.68045 0.0
C419 C 0.10274 0.92005 0.67938 0.0
C420 C 0.09827 0.92324 0.67445 0.0
C421 C 0.1084 0.92384 0.68237 0.0
C422 C 0.10487 0.93416 0.67549 0.0
C423 C 0.09479 0.93332 0.66692 0.0
O424 O 0.083 0.94842 0.6566 0.0
O425 O 0.0905 0.94441 0.64871 0.0
O426 O 0.09787 0.93441 0.6608 0.0
O427 O 0.09067 0.93856 0.6689 0.0
H428 H 0.07918 0.93445 0.657 0.0
H429 H 0.07125 0.92531 0.65247 0.0
H430 H 0.06907 0.93692 0.63291 0.0
H431 H 0.07708 0.94606 0.63749 0.0
H432 H 0.09564 0.97653 0.65123 0.0
H433 H 0.09328 0.96445 0.65539 0.0
H434 H 0.11698 0.97505 0.6593 0.0
H435 H 0.11459 0.96302 0.66338 0.0
H436 H 0.1137 0.93402 0.68263 0.0
H437 H 0.10178 0.91459 0.68083 0.0
H438 H 0.09401 0.92017 0.67215 0.0
H439 H 0.10578 0.93961 0.67395 0.0
C440 C 0.32381 0.82886 0.89687 0.0
C441 C 0.32992 0.82731 0.90078 0.0
C442 C 0.33432 0.81989 0.89122 0.0
C443 C 0.33511 0.82285 0.898 0.0
C444 C 0.32816 0.82143 0.88733 0.0
C445 C 0.32294 0.82588 0.89014 0.0
U446 U 0.31911 0.84277 0.91028 0.0
O447 O 0.31344 0.85288 0.90938 0.0
O448 O 0.30949 0.84466 0.91656 0.0
C449 C 0.30838 0.8509 0.91371 0.0
C450 C 0.31852 0.83382 0.8997 0.0
C451 C 0.3011 0.85233 0.91138 0.0
C452 C 0.29177 0.85201 0.90254 0.0
C453 C 0.29869 0.85037 0.90464 0.0
C454 C 0.28963 0.85747 0.91392 0.0
C455 C 0.28716 0.85559 0.90716 0.0
C456 C 0.29652 0.85585 0.916 0.0
C457 C 0.33366 0.84754 0.92362 0.0
C458 C 0.33357 0.85785 0.93131 0.0
C459 C 0.34253 0.8488 0.9328 0.0
C460 C 0.33959 0.84496 0.92722 0.0
C461 C 0.33959 0.85532 0.93488 0.0
C462 C 0.33061 0.85398 0.92573 0.0
C463 C 0.33089 0.84351 0.91758 0.0
O464 O 0.31618 0.83232 0.90607 0.0
O465 O 0.32011 0.84054 0.8989 0.0
O466 O 0.32976 0.84716 0.91177 0.0
O467 O 0.32582 0.83899 0.91902 0.0
H468 H 0.33072 0.82963 0.90596 0.0
H469 H 0.33984 0.82189 0.90108 0.0
H470 H 0.32738 0.8192 0.88212 0.0
H471 H 0.31827 0.82704 0.88704 0.0
H472 H 0.29002 0.85044 0.89732 0.0
H473 H 0.30216 0.84762 0.90101 0.0
H474 H 0.28627 0.86034 0.91758 0.0
H475 H 0.29831 0.85742 0.92121 0.0
H476 H 0.33115 0.86282 0.93283 0.0
H477 H 0.34723 0.84675 0.93535 0.0
H478 H 0.34202 0.84001 0.92564 0.0
H479 H 0.326 0.85603 0.92302 0.0
C480 C 0.43537 0.93992 0.36526 0.0
C481 C 0.43695 0.93445 0.36051 0.0
C482 C 0.4438 0.92835 0.36955 0.0
C483 C 0.44116 0.92876 0.36261 0.0
C484 C 0.44228 0.9339 0.37429 0.0
C485 C 0.43809 0.93964 0.37215 0.0
U486 U 0.42081 0.94623 0.35332 0.0
O487 O 0.41129 0.95262 0.35522 0.0
O488 O 0.4192 0.9562 0.3475 0.0
C489 C 0.41338 0.95772 0.35098 0.0
C490 C 0.4306 0.9457 0.36312 0.0
C491 C 0.41277 0.96505 0.35364 0.0
C492 C 0.41038 0.97352 0.36303 0.0
C493 C 0.41149 0.96654 0.3608 0.0
C494 C 0.41202 0.97762 0.35101 0.0
C495 C 0.41057 0.97913 0.35814 0.0
C496 C 0.41309 0.97065 0.34879 0.0
C497 C 0.41376 0.93247 0.33995 0.0
C498 C 0.40432 0.92469 0.33594 0.0
C499 C 0.41079 0.93174 0.32744 0.0
C500 C 0.41486 0.9346 0.33291 0.0
C501 C 0.40554 0.92668 0.32888 0.0
C502 C 0.40841 0.92753 0.3414 0.0
C503 C 0.41847 0.93484 0.34574 0.0
O504 O 0.43173 0.94826 0.35676 0.0
O505 O 0.42388 0.94457 0.36444 0.0
O506 O 0.41545 0.93601 0.35188 0.0
O507 O 0.42334 0.93955 0.34416 0.0
H508 H 0.43487 0.93455 0.35517 0.0
H509 H 0.44232 0.92466 0.35878 0.0
H510 H 0.44417 0.93372 0.37969 0.0
H511 H 0.43688 0.94379 0.37591 0.0
H512 H 0.40934 0.97453 0.36857 0.0
H513 H 0.41123 0.96233 0.36467 0.0
H514 H 0.41212 0.9818 0.3471 0.0
H515 H 0.41401 0.96962 0.34323 0.0
H516 H 0.4004 0.92072 0.33722 0.0
H517 H 0.41182 0.9334 0.32206 0.0
H518 H 0.41897 0.93837 0.33159 0.0
H519 H 0.4075 0.92571 0.34675 0.0
C520 C 0.32254 0.18541 0.61574 0.0
C521 C 0.32815 0.18773 0.61147 0.0
C522 C 0.33297 0.19456 0.62126 0.0
C523 C 0.33329 0.19228 0.61419 0.0
C524 C 0.32729 0.19229 0.6255 0.0
C525 C 0.32211 0.18777 0.62275 0.0
U526 U 0.31881 0.17035 0.60333 0.0
O527 O 0.31339 0.16017 0.60488 0.0
O528 O 0.30962 0.16758 0.59678 0.0
C529 C 0.30851 0.1616 0.60016 0.0
C530 C 0.31748 0.18014 0.61305 0.0
C531 C 0.30118 0.16029 0.60236 0.0
C532 C 0.29064 0.1635 0.60898 0.0
C533 C 0.29769 0.16481 0.60709 0.0
C534 C 0.29059 0.15311 0.60147 0.0
C535 C 0.287 0.15765 0.60615 0.0
C536 C 0.2976 0.15443 0.5996 0.0
C537 C 0.33427 0.16477 0.59142 0.0
C538 C 0.3339 0.15471 0.58342 0.0
C539 C 0.34469 0.16151 0.5847 0.0
C540 C 0.34133 0.16595 0.58954 0.0
C541 C 0.34105 0.15579 0.58165 0.0
C542 C 0.33054 0.15916 0.5883 0.0
C543 C 0.33103 0.1693 0.59682 0.0
O544 O 0.31542 0.18103 0.60647 0.0
O545 O 0.31913 0.17354 0.61451 0.0
O546 O 0.32965 0.16618 0.60287 0.0
O547 O 0.3259 0.17346 0.59465 0.0
H548 H 0.32866 0.18588 0.60607 0.0
H549 H 0.33765 0.19382 0.61083 0.0
H550 H 0.32688 0.19398 0.63096 0.0
H551 H 0.31785 0.18599 0.62614 0.0
H552 H 0.28802 0.16713 0.61254 0.0
H553 H 0.30039 0.16937 0.60927 0.0
H554 H 0.28799 0.1485 0.59929 0.0
H555 H 0.30024 0.15086 0.59596 0.0
H556 H 0.33097 0.15032 0.5812 0.0
H557 H 0.35015 0.16256 0.58335 0.0
H558 H 0.34427 0.17027 0.59189 0.0
H559 H 0.32508 0.15818 0.58972 0.0
C560 C 0.07994 0.07449 0.8662 0.0
C561 C 0.07929 0.08081 0.86238 0.0
C562 C 0.07188 0.08581 0.87163 0.0
C563 C 0.07529 0.08641 0.86505 0.0
C564 C 0.07237 0.07939 0.87536 0.0
C565 C 0.0764 0.07377 0.87267 0.0
U566 U 0.0934 0.06895 0.85284 0.0
O567 O 0.10358 0.06338 0.85385 0.0
O568 O 0.09525 0.05907 0.84699 0.0
C569 C 0.10152 0.05808 0.84985 0.0
C570 C 0.08465 0.06889 0.86358 0.0
C571 C 0.10295 0.05096 0.85265 0.0
C572 C 0.09924 0.04022 0.85867 0.0
C573 C 0.09777 0.04708 0.85627 0.0
C574 C 0.11113 0.04115 0.85399 0.0
C575 C 0.10594 0.03717 0.85753 0.0
C576 C 0.10964 0.04797 0.85157 0.0
C577 C 0.0979 0.08317 0.83898 0.0
C578 C 0.10812 0.08314 0.8312 0.0
C579 C 0.09897 0.092 0.82975 0.0
C580 C 0.09522 0.08905 0.83537 0.0
C581 C 0.1055 0.08913 0.82763 0.0
C582 C 0.10433 0.08017 0.83683 0.0
C583 C 0.094 0.08048 0.84513 0.0
O584 O 0.08299 0.06632 0.85734 0.0
O585 O 0.09142 0.07033 0.8642 0.0
O586 O 0.09774 0.07955 0.85091 0.0
O587 O 0.08953 0.07531 0.84388 0.0
H588 H 0.08199 0.08146 0.85737 0.0
H589 H 0.07493 0.09124 0.86199 0.0
H590 H 0.06983 0.07879 0.88046 0.0
H591 H 0.07688 0.06893 0.87571 0.0
H592 H 0.09515 0.03732 0.86144 0.0
H593 H 0.09258 0.04933 0.85721 0.0
H594 H 0.1163 0.03892 0.85295 0.0
H595 H 0.1137 0.05089 0.84878 0.0
H596 H 0.1131 0.08077 0.82966 0.0
H597 H 0.09685 0.09668 0.8272 0.0
H598 H 0.09026 0.09145 0.83698 0.0
H599 H 0.10647 0.0756 0.83956 0.0
C600 C 0.19074 0.82868 0.11605 0.0
C601 C 0.18496 0.82663 0.11187 0.0
C602 C 0.18015 0.81981 0.12167 0.0
C603 C 0.17974 0.82221 0.11465 0.0
C604 C 0.18596 0.82187 0.12584 0.0
C605 C 0.19122 0.82626 0.12304 0.0
U606 U 0.19577 0.84281 0.1029 0.0
O607 O 0.20183 0.85267 0.10404 0.0
O608 O 0.20546 0.84446 0.09665 0.0
C609 C 0.20688 0.85051 0.09977 0.0
C610 C 0.1961 0.83357 0.11323 0.0
C611 C 0.21421 0.8514 0.1023 0.0
C612 C 0.2228 0.85322 0.11171 0.0
C613 C 0.21583 0.85199 0.10952 0.0
C614 C 0.22664 0.85307 0.0995 0.0
C615 C 0.22827 0.85382 0.10672 0.0
C616 C 0.21968 0.8519 0.09732 0.0
C617 C 0.18135 0.84864 0.08984 0.0
C618 C 0.18188 0.8592 0.08253 0.0
C619 C 0.17229 0.85083 0.08101 0.0
C620 C 0.17516 0.84659 0.08634 0.0
C621 C 0.17558 0.85722 0.07908 0.0
C622 C 0.18475 0.85493 0.08785 0.0
C623 C 0.18399 0.84427 0.09569 0.0
O624 O 0.19832 0.83216 0.1068 0.0
O625 O 0.19472 0.84031 0.11422 0.0
O626 O 0.18529 0.84766 0.10162 0.0
O627 O 0.18889 0.83961 0.09406 0.0
H628 H 0.18445 0.82852 0.10649 0.0
H629 H 0.17527 0.82083 0.11134 0.0
H630 H 0.18643 0.82009 0.13126 0.0
H631 H 0.19563 0.82782 0.12635 0.0
H632 H 0.2239 0.85369 0.11731 0.0
H633 H 0.21171 0.85157 0.11348 0.0
H634 H 0.23072 0.85359 0.09552 0.0
H635 H 0.21855 0.85148 0.09172 0.0
H636 H 0.18457 0.86406 0.08112 0.0
H637 H 0.16739 0.8492 0.07856 0.0
H638 H 0.17245 0.84176 0.08783 0.0
H639 H 0.18957 0.85658 0.09048 0.0
C640 C 0.14759 0.43634 0.07209 0.0
C641 C 0.15187 0.43875 0.07766 0.0
C642 C 0.14195 0.4453 0.08262 0.0
C643 C 0.14909 0.44321 0.08285 0.0
C644 C 0.1377 0.44294 0.07698 0.0
C645 C 0.14051 0.4385 0.07175 0.0
U646 U 0.16086 0.42216 0.06794 0.0
O647 O 0.15983 0.41186 0.06261 0.0
O648 O 0.16723 0.41982 0.05851 0.0
C649 C 0.16423 0.41362 0.05753 0.0
C650 C 0.1504 0.43121 0.06695 0.0
C651 C 0.16178 0.41218 0.0503 0.0
C652 C 0.15466 0.41514 0.04002 0.0
C653 C 0.15677 0.41653 0.04698 0.0
C654 C 0.16249 0.40499 0.0397 0.0
C655 C 0.15753 0.40937 0.03628 0.0
C656 C 0.16459 0.40639 0.04664 0.0
C657 C 0.17377 0.41785 0.08313 0.0
C658 C 0.18133 0.40747 0.08401 0.0
C659 C 0.18215 0.41679 0.09277 0.0
C660 C 0.17692 0.42061 0.08923 0.0
C661 C 0.18433 0.41012 0.09028 0.0
C662 C 0.17607 0.41131 0.08046 0.0
C663 C 0.1679 0.42177 0.07989 0.0
O664 O 0.15681 0.43255 0.0646 0.0
O665 O 0.14949 0.42455 0.0687 0.0
O666 O 0.16209 0.41814 0.07875 0.0
O667 O 0.16956 0.42602 0.07464 0.0
H668 H 0.15733 0.43705 0.07808 0.0
H669 H 0.15247 0.44482 0.08718 0.0
H670 H 0.13219 0.44448 0.07665 0.0
H671 H 0.13712 0.43665 0.06752 0.0
H672 H 0.15088 0.41865 0.03752 0.0
H673 H 0.15454 0.42103 0.04974 0.0
H674 H 0.16471 0.40043 0.03703 0.0
H675 H 0.16844 0.40296 0.04914 0.0
H676 H 0.18287 0.40234 0.08198 0.0
H677 H 0.18445 0.41904 0.0975 0.0
H678 H 0.17524 0.42567 0.09133 0.0
H679 H 0.17369 0.40911 0.07573 0.0
C680 C 0.6479 0.0779 0.93957 0.0
C681 C 0.65218 0.07635 0.93371 0.0
C682 C 0.64319 0.06838 0.92908 0.0
C683 C 0.64986 0.07162 0.92854 0.0
C684 C 0.63891 0.06995 0.93496 0.0
C685 C 0.64126 0.07467 0.94017 0.0
U686 U 0.66017 0.09279 0.94437 0.0
O687 O 0.65852 0.10278 0.9501 0.0
O688 O 0.66629 0.09506 0.95401 0.0
C689 C 0.66289 0.10101 0.95522 0.0
C690 C 0.65029 0.08308 0.94486 0.0
C691 C 0.66041 0.10211 0.96254 0.0
C692 C 0.65117 0.10473 0.9711 0.0
C693 C 0.65325 0.10328 0.96415 0.0
C694 C 0.66333 0.1037 0.97495 0.0
C695 C 0.6562 0.105 0.97658 0.0
C696 C 0.66541 0.10229 0.96801 0.0
C697 C 0.6732 0.09852 0.92987 0.0
C698 C 0.68015 0.10934 0.92997 0.0
C699 C 0.6822 0.10047 0.92095 0.0
C700 C 0.67693 0.09623 0.9239 0.0
C701 C 0.68384 0.1071 0.92391 0.0
C702 C 0.67488 0.10507 0.93295 0.0
C703 C 0.66745 0.09408 0.93263 0.0
O704 O 0.65673 0.08207 0.94727 0.0
O705 O 0.64899 0.08972 0.94325 0.0
O706 O 0.6614 0.09732 0.93375 0.0
O707 O 0.6692 0.08967 0.93771 0.0
H708 H 0.65729 0.07887 0.9331 0.0
H709 H 0.65323 0.07064 0.92402 0.0
H710 H 0.63375 0.06752 0.93554 0.0
H711 H 0.63788 0.07584 0.94464 0.0
H712 H 0.64562 0.10565 0.9722 0.0
H713 H 0.64926 0.10314 0.96004 0.0
H714 H 0.66735 0.10396 0.97903 0.0
H715 H 0.67097 0.10146 0.96689 0.0
H716 H 0.68133 0.11439 0.93241 0.0
H717 H 0.68485 0.09863 0.91622 0.0
H718 H 0.67568 0.0912 0.92146 0.0
H719 H 0.67206 0.10691 0.93758 0.0
C720 C 0.18485 0.39779 0.18946 0.0
C721 C 0.18554 0.40151 0.18309 0.0
C722 C 0.19317 0.39226 0.17839 0.0
C723 C 0.18967 0.39879 0.17762 0.0
C724 C 0.19261 0.38863 0.18486 0.0
C725 C 0.18846 0.39137 0.19035 0.0
U726 U 0.17103 0.41102 0.19469 0.0
O727 O 0.16091 0.40987 0.20032 0.0
O728 O 0.1691 0.41701 0.20446 0.0
C729 C 0.16291 0.41402 0.20553 0.0
C730 C 0.18004 0.40046 0.19496 0.0
C731 C 0.16161 0.41129 0.2127 0.0
C732 C 0.16552 0.40539 0.22343 0.0
C733 C 0.16689 0.40776 0.21655 0.0
C734 C 0.15356 0.40993 0.2226 0.0
C735 C 0.15884 0.40646 0.22654 0.0
C736 C 0.15495 0.41233 0.21576 0.0
C737 C 0.16614 0.42452 0.18023 0.0
C738 C 0.15569 0.43202 0.18 0.0
C739 C 0.16496 0.43369 0.17133 0.0
C740 C 0.16882 0.42819 0.17439 0.0
C741 C 0.15832 0.43564 0.17406 0.0
C742 C 0.15958 0.42651 0.18308 0.0
C743 C 0.17018 0.4185 0.18303 0.0
O744 O 0.18156 0.40681 0.19738 0.0
O745 O 0.1733 0.39966 0.1935 0.0
O746 O 0.16658 0.41265 0.18409 0.0
O747 O 0.17466 0.41994 0.18814 0.0
H748 H 0.18279 0.40648 0.18231 0.0
H749 H 0.19008 0.40178 0.17275 0.0
H750 H 0.1952 0.38357 0.18559 0.0
H751 H 0.18795 0.38841 0.19523 0.0
H752 H 0.16967 0.40267 0.2263 0.0
H753 H 0.17206 0.40686 0.21426 0.0
H754 H 0.1484 0.41093 0.22486 0.0
H755 H 0.15081 0.41505 0.21286 0.0
H756 H 0.15062 0.43343 0.18226 0.0
H757 H 0.1671 0.43628 0.1667 0.0
H758 H 0.17387 0.42671 0.17211 0.0
H759 H 0.15744 0.42374 0.18761 0.0
C760 C 0.8647 0.93612 0.44036 0.0
C761 C 0.85999 0.9377 0.43484 0.0
C762 C 0.86891 0.945 0.42913 0.0
C763 C 0.86206 0.94212 0.42932 0.0
C764 C 0.87355 0.94359 0.43478 0.0
C765 C 0.87146 0.93916 0.44034 0.0
U766 U 0.85351 0.9205 0.44491 0.0
O767 O 0.85594 0.91038 0.45014 0.0
O768 O 0.84766 0.91733 0.45442 0.0
C769 C 0.85145 0.91156 0.45531 0.0
C770 C 0.86274 0.9308 0.44569 0.0
C771 C 0.85421 0.91038 0.46248 0.0
C772 C 0.8601 0.91453 0.47312 0.0
C773 C 0.85771 0.91575 0.46622 0.0
C774 C 0.85562 0.90253 0.47254 0.0
C775 C 0.85905 0.90791 0.47637 0.0
C776 C 0.85322 0.90377 0.46567 0.0
C777 C 0.84114 0.91458 0.42981 0.0
C778 C 0.83346 0.90427 0.43011 0.0
C779 C 0.83437 0.9113 0.41944 0.0
C780 C 0.83912 0.91583 0.42281 0.0
C781 C 0.83156 0.90542 0.42301 0.0
C782 C 0.83825 0.90882 0.43349 0.0
C783 C 0.84645 0.91924 0.43302 0.0
O784 O 0.85626 0.93133 0.44818 0.0
O785 O 0.86448 0.92429 0.444 0.0
O786 O 0.85269 0.91638 0.43408 0.0
O787 O 0.84429 0.92318 0.43832 0.0
H788 H 0.85476 0.93537 0.43471 0.0
H789 H 0.85831 0.9432 0.42512 0.0
H790 H 0.87888 0.94568 0.43476 0.0
H791 H 0.87519 0.93794 0.44452 0.0
H792 H 0.86278 0.91876 0.4759 0.0
H793 H 0.85856 0.92088 0.46382 0.0
H794 H 0.85464 0.89741 0.47492 0.0
H795 H 0.85051 0.89956 0.46286 0.0
H796 H 0.8314 0.89977 0.43298 0.0
H797 H 0.83292 0.9124 0.41401 0.0
H798 H 0.84128 0.92027 0.41991 0.0
H799 H 0.83978 0.90778 0.43891 0.0
C800 C 0.82809 0.11613 0.18935 0.0
C801 C 0.8266 0.11178 0.18353 0.0
C802 C 0.81877 0.12078 0.17867 0.0
C803 C 0.82197 0.11407 0.17826 0.0
C804 C 0.82028 0.12513 0.18452 0.0
C805 C 0.8249 0.12281 0.18983 0.0
U806 U 0.84283 0.1038 0.19434 0.0
O807 O 0.8528 0.10542 0.20008 0.0
O808 O 0.84506 0.0977 0.20399 0.0
C809 C 0.85109 0.10096 0.20513 0.0
C810 C 0.8332 0.11377 0.19473 0.0
C811 C 0.85233 0.10334 0.21242 0.0
C812 C 0.85166 0.11216 0.22175 0.0
C813 C 0.85019 0.11004 0.2148 0.0
C814 C 0.85731 0.10087 0.22397 0.0
C815 C 0.85524 0.10759 0.22642 0.0
C816 C 0.85587 0.09877 0.21705 0.0
C817 C 0.84859 0.0906 0.18006 0.0
C818 C 0.85948 0.08376 0.18029 0.0
C819 C 0.85049 0.08119 0.17154 0.0
C820 C 0.84624 0.08656 0.17432 0.0
C821 C 0.85719 0.07977 0.17445 0.0
C822 C 0.85521 0.08912 0.1831 0.0
C823 C 0.84413 0.09641 0.18266 0.0
O824 O 0.83214 0.10736 0.1972 0.0
O825 O 0.83985 0.11501 0.19316 0.0
O826 O 0.84737 0.10247 0.18374 0.0
O827 O 0.83966 0.09476 0.18771 0.0
H828 H 0.82909 0.10664 0.18302 0.0
H829 H 0.82103 0.11064 0.17376 0.0
H830 H 0.81787 0.13031 0.18499 0.0
H831 H 0.82602 0.12624 0.19427 0.0
H832 H 0.84995 0.11735 0.22349 0.0
H833 H 0.84742 0.11362 0.21129 0.0
H834 H 0.86019 0.09727 0.22737 0.0
H835 H 0.85758 0.09359 0.21529 0.0
H836 H 0.86459 0.08275 0.18269 0.0
H837 H 0.8486 0.07829 0.16698 0.0
H838 H 0.84115 0.08764 0.17191 0.0
H839 H 0.85709 0.09216 0.18757 0.0
C840 C 0.36521 0.57873 0.57358 0.0
C841 C 0.36191 0.57858 0.58021 0.0
C842 C 0.37092 0.57053 0.58466 0.0
C843 C 0.36472 0.57452 0.58569 0.0
C844 C 0.37411 0.57052 0.57794 0.0
C845 C 0.37128 0.57462 0.57244 0.0
U846 U 0.35274 0.59333 0.56888 0.0
O847 O 0.35416 0.60322 0.56293 0.0
O848 O 0.34614 0.59552 0.55956 0.0
C849 C 0.34942 0.60148 0.55815 0.0
C850 C 0.36252 0.58352 0.56808 0.0
C851 C 0.35156 0.60253 0.55076 0.0
C852 C 0.3578 0.59879 0.54016 0.0
C853 C 0.35591 0.59765 0.54723 0.0
C854 C 0.35109 0.60971 0.54014 0.0
C855 C 0.35538 0.60482 0.53652 0.0
C856 C 0.3492 0.60856 0.54718 0.0
C857 C 0.34102 0.59964 0.58427 0.0
C858 C 0.33296 0.60965 0.58372 0.0
C859 C 0.33439 0.60314 0.59466 0.0
C860 C 0.33923 0.59864 0.59137 0.0
C861 C 0.33127 0.60875 0.59091 0.0
C862 C 0.33783 0.60513 0.58042 0.0
C863 C 0.34639 0.59502 0.5811 0.0
O864 O 0.35591 0.58244 0.56619 0.0
O865 O 0.36395 0.59023 0.56919 0.0
O866 O 0.35239 0.59811 0.57946 0.0
O867 O 0.34415 0.5906 0.57623 0.0
H868 H 0.35722 0.58173 0.58119 0.0
H869 H 0.36208 0.57456 0.59076 0.0
H870 H 0.37891 0.56753 0.577 0.0
H871 H 0.37392 0.5747 0.56735 0.0
H872 H 0.36107 0.59489 0.53752 0.0
H873 H 0.3578 0.59296 0.54994 0.0
H874 H 0.34924 0.61448 0.53756 0.0
H875 H 0.34588 0.6124 0.54984 0.0
H876 H 0.33067 0.61395 0.5807 0.0
H877 H 0.33311 0.60222 0.60016 0.0
H878 H 0.34162 0.5944 0.5944 0.0
H879 H 0.33918 0.60598 0.57492 0.0
C880 C 0.18452 0.61678 0.32385 0.0
C881 C 0.18477 0.61319 0.33033 0.0
C882 C 0.19247 0.62227 0.33521 0.0
C883 C 0.18871 0.6159 0.33594 0.0
C884 C 0.19234 0.62578 0.32864 0.0
C885 C 0.18837 0.62305 0.32301 0.0
U886 U 0.171 0.60354 0.3179 0.0
O887 O 0.16125 0.60459 0.31167 0.0
O888 O 0.16972 0.59751 0.30801 0.0
C889 C 0.16362 0.60052 0.30655 0.0
C890 C 0.18002 0.61407 0.31812 0.0
C891 C 0.16275 0.60318 0.29926 0.0
C892 C 0.15993 0.61256 0.2909 0.0
C893 C 0.16122 0.61032 0.29784 0.0
C894 C 0.1619 0.60062 0.28669 0.0
C895 C 0.1602 0.60773 0.28526 0.0
C896 C 0.16313 0.59838 0.29362 0.0
C897 C 0.16519 0.59011 0.33206 0.0
C898 C 0.15462 0.58281 0.33171 0.0
C899 C 0.16337 0.58098 0.34088 0.0
C900 C 0.1675 0.5864 0.33803 0.0
C901 C 0.15684 0.57917 0.33781 0.0
C902 C 0.15877 0.58824 0.32884 0.0
C903 C 0.16944 0.5961 0.32951 0.0
O904 O 0.18166 0.60771 0.31583 0.0
O905 O 0.1732 0.6149 0.31918 0.0
O906 O 0.16594 0.60197 0.32822 0.0
O907 O 0.1742 0.59462 0.32468 0.0
H908 H 0.18183 0.60832 0.33107 0.0
H909 H 0.18879 0.613 0.34088 0.0
H910 H 0.19514 0.63073 0.32792 0.0
H911 H 0.18822 0.6259 0.31804 0.0
H912 H 0.15871 0.61808 0.28996 0.0
H913 H 0.16092 0.61416 0.30208 0.0
H914 H 0.16206 0.59675 0.28248 0.0
H915 H 0.16427 0.59284 0.29459 0.0
H916 H 0.14965 0.5815 0.32918 0.0
H917 H 0.1652 0.57836 0.34564 0.0
H918 H 0.17243 0.58779 0.3406 0.0
H919 H 0.15692 0.59104 0.3242 0.0
C920 C 0.32852 0.3988 0.82396 0.0
C921 C 0.32796 0.40253 0.83034 0.0
C922 C 0.32041 0.39331 0.8352 0.0
C923 C 0.32394 0.39982 0.8359 0.0
C924 C 0.32082 0.38967 0.82872 0.0
C925 C 0.32487 0.3924 0.82314 0.0
U926 U 0.34218 0.41203 0.81843 0.0
O927 O 0.35225 0.41087 0.8127 0.0
O928 O 0.34398 0.41793 0.80858 0.0
C929 C 0.35016 0.41493 0.80747 0.0
C930 C 0.33322 0.40145 0.81838 0.0
C931 C 0.35142 0.41212 0.80032 0.0
C932 C 0.34732 0.40658 0.78946 0.0
C933 C 0.34598 0.40903 0.79632 0.0
C934 C 0.35957 0.41017 0.7906 0.0
C935 C 0.35413 0.40714 0.78652 0.0
C936 C 0.35821 0.41264 0.79742 0.0
C937 C 0.3472 0.42568 0.83271 0.0
C938 C 0.3577 0.4331 0.83286 0.0
C939 C 0.34838 0.43501 0.84144 0.0
C940 C 0.3445 0.42948 0.83846 0.0
C941 C 0.35505 0.43685 0.83873 0.0
C942 C 0.35379 0.42756 0.82986 0.0
C943 C 0.34315 0.41963 0.83001 0.0
O944 O 0.33164 0.40776 0.81592 0.0
O945 O 0.33999 0.40068 0.81974 0.0
O946 O 0.34675 0.41377 0.82896 0.0
O947 O 0.33861 0.42101 0.82494 0.0
H948 H 0.33074 0.40749 0.83107 0.0
H949 H 0.32364 0.40281 0.84078 0.0
H950 H 0.31821 0.38462 0.82804 0.0
H951 H 0.32528 0.38944 0.81826 0.0
H952 H 0.34305 0.40422 0.78647 0.0
H953 H 0.3407 0.40853 0.79848 0.0
H954 H 0.36485 0.41076 0.78846 0.0
H955 H 0.36247 0.41502 0.80043 0.0
H956 H 0.36279 0.43443 0.83062 0.0
H957 H 0.34623 0.4377 0.84602 0.0
H958 H 0.33944 0.42808 0.84074 0.0
H959 H 0.35594 0.4247 0.8254 0.0
C960 C 0.94022 0.86547 0.57884 0.0
C961 C 0.93395 0.86157 0.5782 0.0
C962 C 0.9289 0.87069 0.57064 0.0
C963 C 0.92835 0.86414 0.57413 0.0
C964 C 0.93527 0.87449 0.57112 0.0
C965 C 0.94089 0.87191 0.57522 0.0
U966 U 0.94573 0.8527 0.59293 0.0
O967 O 0.9556 0.84692 0.59503 0.0
O968 O 0.95134 0.85421 0.60301 0.0
C969 C 0.95661 0.85008 0.60114 0.0
C970 C 0.9458 0.86301 0.58366 0.0
C971 C 0.96374 0.85293 0.6024 0.0
C972 C 0.97438 0.85894 0.59842 0.0
C973 C 0.96752 0.85648 0.5971 0.0
C974 C 0.97367 0.85445 0.6104 0.0
C975 C 0.97754 0.85794 0.60509 0.0
C976 C 0.96685 0.85197 0.60905 0.0
C977 C 0.93151 0.83918 0.5983 0.0
C978 C 0.9317 0.83197 0.60894 0.0
C979 C 0.92257 0.83017 0.60012 0.0
C980 C 0.92551 0.83552 0.59598 0.0
C981 C 0.92558 0.82838 0.60669 0.0
C982 C 0.93465 0.83733 0.60476 0.0
C983 C 0.93418 0.84509 0.59402 0.0
O984 O 0.94439 0.86398 0.59039 0.0
O985 O 0.94831 0.85666 0.58229 0.0
O986 O 0.93931 0.84357 0.5896 0.0
O987 O 0.93515 0.85108 0.59741 0.0
H988 H 0.93333 0.85659 0.58097 0.0
H989 H 0.92356 0.86102 0.57377 0.0
H990 H 0.93584 0.87958 0.56854 0.0
H991 H 0.94568 0.87501 0.5757 0.0
H992 H 0.9772 0.86167 0.59425 0.0
H993 H 0.96519 0.85732 0.59193 0.0
H994 H 0.97598 0.8535 0.61555 0.0
H995 H 0.96401 0.84923 0.61321 0.0
H996 H 0.93417 0.83068 0.61393 0.0
H997 H 0.9178 0.82759 0.59828 0.0
H998 H 0.92301 0.8369 0.59101 0.0
H999 H 0.93931 0.8401 0.60662 0.0
C1000 C 0.89858 0.19045 0.32796 0.0
C1001 C 0.90233 0.18405 0.32762 0.0
C1002 C 0.8934 0.17911 0.31978 0.0
C1003 C 0.89977 0.17844 0.32356 0.0
C1004 C 0.88976 0.18561 0.31997 0.0
C1005 C 0.89233 0.19123 0.32406 0.0
U1006 U 0.91132 0.19616 0.34203 0.0
O1007 O 0.91703 0.20609 0.34403 0.0
O1008 O 0.90975 0.20188 0.35205 0.0
C1009 C 0.91385 0.20715 0.35012 0.0
C1010 C 0.90104 0.19609 0.33272 0.0
C1011 C 0.91099 0.2143 0.35136 0.0
C1012 C 0.90572 0.22528 0.34721 0.0
C1013 C 0.90814 0.2184 0.34587 0.0
C1014 C 0.90884 0.22395 0.35956 0.0
C1015 C 0.90607 0.22814 0.35407 0.0
C1016 C 0.91128 0.21711 0.35821 0.0
C1017 C 0.92489 0.18211 0.34768 0.0
C1018 C 0.93201 0.18255 0.35837 0.0
C1019 C 0.93399 0.17329 0.34973 0.0
C1020 C 0.92864 0.17611 0.34549 0.0
C1021 C 0.9357 0.17643 0.35626 0.0
C1022 C 0.92666 0.18538 0.35411 0.0
C1023 C 0.91899 0.18465 0.34332 0.0
O1024 O 0.90006 0.19475 0.33946 0.0
O1025 O 0.90738 0.19858 0.33134 0.0
O1026 O 0.92049 0.18973 0.33882 0.0
O1027 O 0.91298 0.18563 0.34665 0.0
H1028 H 0.90717 0.18335 0.3306 0.0
H1029 H 0.90275 0.17355 0.32344 0.0
H1030 H 0.88482 0.18626 0.31715 0.0
H1031 H 0.88936 0.19613 0.3243 0.0
H1032 H 0.90355 0.22835 0.34288 0.0
H1033 H 0.90782 0.21631 0.34054 0.0
H1034 H 0.90927 0.22602 0.36488 0.0
H1035 H 0.91348 0.21403 0.36251 0.0
H1036 H 0.93324 0.18512 0.36334 0.0
H1037 H 0.93664 0.16852 0.34799 0.0
H1038 H 0.92733 0.17351 0.34056 0.0
H1039 H 0.92382 0.19004 0.35586 0.0
C1040 C 0.5728 0.14865 0.07621 0.0
C1041 C 0.57877 0.15275 0.07464 0.0
C1042 C 0.5834 0.14335 0.06714 0.0
C1043 C 0.58401 0.15014 0.07013 0.0
C1044 C 0.57736 0.13929 0.06867 0.0
C1045 C 0.57209 0.14192 0.07317 0.0
U1046 U 0.5682 0.16127 0.09087 0.0
O1047 O 0.55855 0.16726 0.09337 0.0
O1048 O 0.56278 0.15963 0.10104 0.0
C1049 C 0.55757 0.16393 0.09939 0.0
C1050 C 0.56756 0.15121 0.08136 0.0
C1051 C 0.5504 0.16121 0.1007 0.0
C1052 C 0.53945 0.1558 0.09666 0.0
C1053 C 0.54634 0.15815 0.09529 0.0
C1054 C 0.54068 0.15942 0.10889 0.0
C1055 C 0.53654 0.15643 0.10348 0.0
C1056 C 0.54754 0.16179 0.1075 0.0
C1057 C 0.58279 0.17436 0.09625 0.0
C1058 C 0.58292 0.18129 0.10707 0.0
C1059 C 0.59182 0.18329 0.09808 0.0
C1060 C 0.58875 0.17805 0.09388 0.0
C1061 C 0.58899 0.18493 0.10476 0.0
C1062 C 0.57983 0.17605 0.10283 0.0
C1063 C 0.57994 0.16861 0.09187 0.0
O1064 O 0.56924 0.15004 0.08799 0.0
O1065 O 0.56517 0.15765 0.08024 0.0
O1066 O 0.57475 0.17033 0.08759 0.0
O1067 O 0.57893 0.16255 0.09513 0.0
H1068 H 0.57946 0.15792 0.07701 0.0
H1069 H 0.58865 0.15336 0.06917 0.0
H1070 H 0.57671 0.13406 0.06642 0.0
H1071 H 0.56753 0.13867 0.07436 0.0
H1072 H 0.53642 0.15346 0.09241 0.0
H1073 H 0.54847 0.15761 0.09 0.0
H1074 H 0.53858 0.16006 0.11417 0.0
H1075 H 0.55059 0.16415 0.11174 0.0
H1076 H 0.58057 0.18248 0.11215 0.0
H1077 H 0.59655 0.18591 0.09618 0.0
H1078 H 0.59111 0.17679 0.08881 0.0
H1079 H 0.5752 0.17327 0.10473 0.0
C1080 C 0.61496 0.82266 0.8272 0.0
C1081 C 0.61096 0.82873 0.82564 0.0
C1082 C 0.62036 0.83312 0.81802 0.0
C1083 C 0.61362 0.83389 0.82108 0.0
C1084 C 0.62432 0.82699 0.81954 0.0
C1085 C 0.62163 0.8218 0.82409 0.0
U1086 U 0.60274 0.81865 0.84233 0.0
O1087 O 0.59626 0.80937 0.84499 0.0
O1088 O 0.60443 0.81305 0.85238 0.0
C1089 C 0.59971 0.80816 0.85091 0.0
C1090 C 0.61235 0.8175 0.83241 0.0
C1091 C 0.60198 0.80082 0.85207 0.0
C1092 C 0.60916 0.79059 0.84902 0.0
C1093 C 0.60713 0.79762 0.84779 0.0
C1094 C 0.60092 0.78994 0.8588 0.0
C1095 C 0.60606 0.78666 0.85453 0.0
C1096 C 0.5989 0.79695 0.85757 0.0
C1097 C 0.5909 0.83414 0.84822 0.0
C1098 C 0.583 0.83384 0.85835 0.0
C1099 C 0.58419 0.84458 0.85145 0.0
C1100 C 0.58899 0.84119 0.84699 0.0
C1101 C 0.5812 0.84099 0.85723 0.0
C1102 C 0.58784 0.83045 0.85388 0.0
C1103 C 0.59625 0.83087 0.84364 0.0
O1104 O 0.61389 0.81903 0.839 0.0
O1105 O 0.60574 0.81548 0.83155 0.0
O1106 O 0.59401 0.8258 0.83945 0.0
O1107 O 0.60232 0.82942 0.84669 0.0
H1108 H 0.60584 0.82954 0.82807 0.0
H1109 H 0.61049 0.83859 0.82013 0.0
H1110 H 0.6295 0.82623 0.81724 0.0
H1111 H 0.6248 0.81717 0.82527 0.0
H1112 H 0.61308 0.78821 0.8456 0.0
H1113 H 0.60955 0.80055 0.84351 0.0
H1114 H 0.59851 0.78713 0.86316 0.0
H1115 H 0.59494 0.79935 0.86094 0.0
H1116 H 0.58082 0.83095 0.86277 0.0
H1117 H 0.58282 0.85004 0.85036 0.0
H1118 H 0.59129 0.8441 0.84263 0.0
H1119 H 0.58928 0.82499 0.85489 0.0
C1120 C 0.94042 0.14942 0.93439 0.0
C1121 C 0.93445 0.15369 0.93547 0.0
C1122 C 0.92906 0.14453 0.94273 0.0
C1123 C 0.92884 0.15129 0.93962 0.0
C1124 C 0.93515 0.14033 0.9418 0.0
C1125 C 0.94078 0.14276 0.93763 0.0
U1126 U 0.94602 0.16192 0.92007 0.0
O1127 O 0.95594 0.16754 0.91787 0.0
O1128 O 0.95159 0.16018 0.91 0.0
C1129 C 0.95691 0.16427 0.91181 0.0
C1130 C 0.94598 0.15174 0.92948 0.0
C1131 C 0.96401 0.16134 0.91058 0.0
C1132 C 0.9747 0.1555 0.91469 0.0
C1133 C 0.96783 0.15795 0.91597 0.0
C1134 C 0.97391 0.15962 0.90259 0.0
C1135 C 0.97783 0.15633 0.90799 0.0
C1136 C 0.96707 0.1621 0.90388 0.0
C1137 C 0.93207 0.17566 0.91454 0.0
C1138 C 0.9321 0.18243 0.90361 0.0
C1139 C 0.92361 0.18516 0.91281 0.0
C1140 C 0.92645 0.17979 0.91702 0.0
C1141 C 0.92634 0.18649 0.90602 0.0
C1142 C 0.93496 0.17707 0.90785 0.0
C1143 C 0.9346 0.16975 0.9189 0.0
O1144 O 0.94448 0.15071 0.92278 0.0
O1145 O 0.94861 0.15806 0.93074 0.0
O1146 O 0.93976 0.17121 0.92332 0.0
O1147 O 0.93545 0.16369 0.9156 0.0
H1148 H 0.93406 0.15884 0.93298 0.0
H1149 H 0.92429 0.1547 0.94032 0.0
H1150 H 0.93546 0.13509 0.94407 0.0
H1151 H 0.94533 0.13938 0.93681 0.0
H1152 H 0.97756 0.15293 0.91894 0.0
H1153 H 0.96553 0.15727 0.92117 0.0
H1154 H 0.97619 0.16044 0.89741 0.0
H1155 H 0.9642 0.16471 0.89966 0.0
H1156 H 0.93436 0.18337 0.89844 0.0
H1157 H 0.91912 0.18811 0.91479 0.0
H1158 H 0.92415 0.17877 0.92216 0.0
H1159 H 0.93933 0.17394 0.90586 0.0
C1160 C 0.61496 0.19128 0.6858 0.0
C1161 C 0.611 0.18517 0.68727 0.0
C1162 C 0.62042 0.18075 0.69487 0.0
C1163 C 0.61369 0.17998 0.69178 0.0
C1164 C 0.62434 0.18692 0.69343 0.0
C1165 C 0.62162 0.19214 0.68893 0.0
U1166 U 0.60262 0.19544 0.6708 0.0
O1167 O 0.59608 0.20474 0.6683 0.0
O1168 O 0.6042 0.20117 0.66081 0.0
C1169 C 0.59947 0.20603 0.66238 0.0
C1170 C 0.6123 0.1965 0.68067 0.0
C1171 C 0.6017 0.21339 0.66131 0.0
C1172 C 0.60886 0.22359 0.66446 0.0
C1173 C 0.60689 0.21654 0.66558 0.0
C1174 C 0.60049 0.22438 0.65479 0.0
C1175 C 0.60565 0.22761 0.65906 0.0
C1176 C 0.59854 0.21734 0.6559 0.0
C1177 C 0.59073 0.18007 0.66481 0.0
C1178 C 0.58303 0.18039 0.65452 0.0
C1179 C 0.58368 0.16981 0.66173 0.0
C1180 C 0.58853 0.17314 0.66618 0.0
C1181 C 0.58094 0.17336 0.65579 0.0
C1182 C 0.58791 0.18372 0.65899 0.0
C1183 C 0.59613 0.18325 0.66939 0.0
O1184 O 0.61379 0.19504 0.67404 0.0
O1185 O 0.6057 0.1985 0.68159 0.0
O1186 O 0.59393 0.18826 0.67368 0.0
O1187 O 0.60217 0.18473 0.66631 0.0
H1188 H 0.60589 0.18436 0.68482 0.0
H1189 H 0.61059 0.17525 0.69267 0.0
H1190 H 0.62951 0.18768 0.69575 0.0
H1191 H 0.62476 0.1968 0.68782 0.0
H1192 H 0.6128 0.22594 0.66789 0.0
H1193 H 0.60938 0.21354 0.66978 0.0
H1194 H 0.598 0.22727 0.65051 0.0
H1195 H 0.59455 0.21498 0.65254 0.0
H1196 H 0.58104 0.18325 0.64997 0.0
H1197 H 0.58209 0.16444 0.66293 0.0
H1198 H 0.59064 0.17026 0.67067 0.0
H1199 H 0.58957 0.18909 0.65786 0.0
C1200 C 0.57326 0.86496 0.43511 0.0
C1201 C 0.57968 0.86126 0.4355 0.0
C1202 C 0.58465 0.87043 0.44305 0.0
C1203 C 0.58531 0.86396 0.43944 0.0
C1204 C 0.57813 0.87404 0.4428 0.0
C1205 C 0.57249 0.87133 0.43883 0.0
U1206 U 0.56767 0.8521 0.42113 0.0
O1207 O 0.55799 0.84589 0.41947 0.0
O1208 O 0.56151 0.8534 0.41135 0.0
C1209 C 0.55657 0.84897 0.4134 0.0
C1210 C 0.56758 0.86232 0.4305 0.0
C1211 C 0.54925 0.85137 0.41243 0.0
C1212 C 0.53906 0.85838 0.41597 0.0
C1213 C 0.5461 0.85629 0.41701 0.0
C1214 C 0.53832 0.85069 0.40575 0.0
C1215 C 0.53508 0.85556 0.41034 0.0
C1216 C 0.54533 0.84861 0.40679 0.0
C1217 C 0.58208 0.83915 0.41495 0.0
C1218 C 0.58215 0.83254 0.40392 0.0
C1219 C 0.59066 0.82979 0.41309 0.0
C1220 C 0.58776 0.83505 0.41737 0.0
C1221 C 0.58795 0.82852 0.40628 0.0
C1222 C 0.57921 0.8378 0.40823 0.0
C1223 C 0.57945 0.84495 0.41941 0.0
O1224 O 0.56867 0.86341 0.42372 0.0
O1225 O 0.56539 0.85587 0.4319 0.0
O1226 O 0.57463 0.84323 0.4241 0.0
O1227 O 0.57809 0.85093 0.41614 0.0
H1228 H 0.58038 0.85634 0.43264 0.0
H1229 H 0.5902 0.86099 0.43961 0.0
H1230 H 0.57748 0.87906 0.44548 0.0
H1231 H 0.56757 0.87426 0.43856 0.0
H1232 H 0.53671 0.8621 0.41963 0.0
H1233 H 0.54907 0.85847 0.42139 0.0
H1234 H 0.53546 0.84852 0.40128 0.0
H1235 H 0.54769 0.84484 0.40318 0.0
H1236 H 0.5799 0.83165 0.39873 0.0
H1237 H 0.59519 0.82686 0.41503 0.0
H1238 H 0.59004 0.83603 0.42253 0.0
H1239 H 0.57479 0.84089 0.40629 0.0
C1240 C 0.8974 0.82308 0.18552 0.0
C1241 C 0.90167 0.82885 0.18739 0.0
C1242 C 0.8922 0.83369 0.19464 0.0
C1243 C 0.89911 0.83409 0.19192 0.0
C1244 C 0.88797 0.82784 0.19283 0.0
C1245 C 0.89055 0.82257 0.18831 0.0
U1246 U 0.90996 0.81863 0.17079 0.0
O1247 O 0.91595 0.80902 0.16815 0.0
O1248 O 0.90831 0.81335 0.16054 0.0
C1249 C 0.91263 0.80813 0.16211 0.0
C1250 C 0.89991 0.81789 0.1803 0.0
C1251 C 0.90995 0.80096 0.1607 0.0
C1252 C 0.9043 0.79006 0.16453 0.0
C1253 C 0.90656 0.79697 0.16596 0.0
C1254 C 0.90864 0.79113 0.15253 0.0
C1255 C 0.90534 0.78705 0.15779 0.0
C1256 C 0.91093 0.79801 0.15398 0.0
C1257 C 0.92307 0.83331 0.16572 0.0
C1258 C 0.93014 0.83356 0.155 0.0
C1259 C 0.93202 0.84236 0.16412 0.0
C1260 C 0.92673 0.83925 0.16821 0.0
C1261 C 0.93376 0.83959 0.15744 0.0
C1262 C 0.92484 0.83043 0.15912 0.0
C1263 C 0.9173 0.83039 0.17001 0.0
O1264 O 0.89874 0.81966 0.17369 0.0
O1265 O 0.90634 0.81544 0.18137 0.0
O1266 O 0.919 0.82512 0.17421 0.0
O1267 O 0.91127 0.82942 0.1667 0.0
H1268 H 0.90694 0.82939 0.18521 0.0
H1269 H 0.90246 0.83858 0.19311 0.0
H1270 H 0.88264 0.82736 0.19486 0.0
H1271 H 0.88717 0.81817 0.18689 0.0
H1272 H 0.90171 0.78708 0.16867 0.0
H1273 H 0.90572 0.79917 0.17118 0.0
H1274 H 0.90961 0.78896 0.14732 0.0
H1275 H 0.91354 0.80101 0.14986 0.0
H1276 H 0.9314 0.83126 0.1499 0.0
H1277 H 0.93463 0.84706 0.16612 0.0
H1278 H 0.92541 0.84155 0.17329 0.0
H1279 H 0.92208 0.82582 0.15712 0.0
C1280 C 0.57748 0.94094 0.86506 0.0
C1281 C 0.57721 0.93439 0.8616 0.0
C1282 C 0.56945 0.92972 0.87073 0.0
C1283 C 0.57323 0.92884 0.86439 0.0
C1284 C 0.56955 0.93638 0.87408 0.0
C1285 C 0.57357 0.94194 0.87128 0.0
U1286 U 0.59193 0.94565 0.85252 0.0
O1287 O 0.59406 0.95497 0.84588 0.0
O1288 O 0.60184 0.95158 0.85381 0.0
C1289 C 0.60006 0.95638 0.84911 0.0
C1290 C 0.58224 0.94648 0.86238 0.0
C1291 C 0.60111 0.96377 0.85127 0.0
C1292 C 0.59805 0.97398 0.85845 0.0
C1293 C 0.59688 0.96693 0.85647 0.0
C1294 C 0.60769 0.97472 0.85005 0.0
C1295 C 0.60347 0.97797 0.85524 0.0
C1296 C 0.60651 0.96769 0.84808 0.0
C1297 C 0.59787 0.93003 0.84078 0.0
C1298 C 0.60802 0.93 0.8329 0.0
C1299 C 0.60067 0.91954 0.83394 0.0
C1300 C 0.59636 0.92306 0.83878 0.0
C1301 C 0.60661 0.92293 0.83101 0.0
C1302 C 0.60369 0.93352 0.83777 0.0
C1303 C 0.59343 0.93338 0.84619 0.0
O1304 O 0.58896 0.94535 0.86375 0.0
O1305 O 0.5811 0.9484 0.8558 0.0
O1306 O 0.58905 0.93829 0.84396 0.0
O1307 O 0.59665 0.93504 0.85211 0.0
H1308 H 0.58021 0.93351 0.8568 0.0
H1309 H 0.57317 0.92383 0.86163 0.0
H1310 H 0.56673 0.9372 0.879 0.0
H1311 H 0.57375 0.94696 0.87404 0.0
H1312 H 0.59467 0.97634 0.86242 0.0
H1313 H 0.59268 0.96396 0.85899 0.0
H1314 H 0.61198 0.97757 0.84756 0.0
H1315 H 0.60985 0.96531 0.84408 0.0
H1316 H 0.61257 0.93273 0.83075 0.0
H1317 H 0.59937 0.91415 0.83251 0.0
H1318 H 0.59187 0.9203 0.84103 0.0
H1319 H 0.60492 0.93891 0.83927 0.0
C1320 C 0.82333 0.82933 0.61499 0.0
C1321 C 0.82967 0.82882 0.61118 0.0
C1322 C 0.83467 0.82117 0.62024 0.0
C1323 C 0.83527 0.82477 0.61377 0.0
C1324 C 0.82823 0.82154 0.62396 0.0
C1325 C 0.82261 0.82562 0.62136 0.0
U1326 U 0.8179 0.84338 0.60218 0.0
O1327 O 0.8082 0.84529 0.59607 0.0
O1328 O 0.81205 0.85336 0.60349 0.0
C1329 C 0.80701 0.85144 0.59912 0.0
C1330 C 0.81771 0.83407 0.61245 0.0
C1331 C 0.79974 0.85269 0.60155 0.0
C1332 C 0.78944 0.8495 0.60854 0.0
C1333 C 0.79645 0.84823 0.60648 0.0
C1334 C 0.78903 0.85973 0.60083 0.0
C1335 C 0.78563 0.85525 0.60569 0.0
C1336 C 0.79601 0.85846 0.59878 0.0
C1337 C 0.83234 0.84897 0.58904 0.0
C1338 C 0.83206 0.85958 0.58179 0.0
C1339 C 0.84135 0.85091 0.58013 0.0
C1340 C 0.83842 0.84673 0.58547 0.0
C1341 C 0.83825 0.85741 0.57827 0.0
C1342 C 0.82911 0.85538 0.58713 0.0
C1343 C 0.82964 0.84465 0.5949 0.0
O1344 O 0.81898 0.84083 0.61348 0.0
O1345 O 0.81535 0.83269 0.60606 0.0
O1346 O 0.82464 0.84011 0.59327 0.0
O1347 O 0.82845 0.84804 0.60084 0.0
H1348 H 0.83033 0.83166 0.60625 0.0
H1349 H 0.84011 0.82451 0.61072 0.0
H1350 H 0.82763 0.81886 0.62899 0.0
H1351 H 0.81776 0.82598 0.62438 0.0
H1352 H 0.78697 0.84592 0.61226 0.0
H1353 H 0.79927 0.84375 0.60867 0.0
H1354 H 0.78631 0.86427 0.59863 0.0
H1355 H 0.79849 0.86197 0.595 0.0
H1356 H 0.82951 0.86453 0.58044 0.0
H1357 H 0.84618 0.84913 0.57762 0.0
H1358 H 0.84099 0.84181 0.58689 0.0
H1359 H 0.82438 0.85717 0.58982 0.0
C1360 C 0.93621 0.07453 0.36581 0.0
C1361 C 0.93689 0.08073 0.3618 0.0
C1362 C 0.94436 0.08595 0.37089 0.0
C1363 C 0.94094 0.08637 0.3643 0.0
C1364 C 0.94385 0.07963 0.3748 0.0
C1365 C 0.93978 0.07397 0.37229 0.0
U1366 U 0.92203 0.06902 0.35319 0.0
O1367 O 0.91989 0.05918 0.34739 0.0
O1368 O 0.91195 0.06342 0.35473 0.0
C1369 C 0.91378 0.05817 0.35055 0.0
C1370 C 0.93139 0.06892 0.36341 0.0
C1371 C 0.91249 0.05102 0.35333 0.0
C1372 C 0.91632 0.04042 0.35954 0.0
C1373 C 0.91769 0.04729 0.35711 0.0
C1374 C 0.90453 0.04102 0.35454 0.0
C1375 C 0.90972 0.03721 0.35827 0.0
C1376 C 0.90591 0.04786 0.3521 0.0
C1377 C 0.91655 0.08331 0.33979 0.0
C1378 C 0.90591 0.08306 0.33258 0.0
C1379 C 0.91466 0.09226 0.3308 0.0
C1380 C 0.91882 0.08934 0.33615 0.0
C1381 C 0.90812 0.0892 0.32898 0.0
C1382 C 0.91011 0.08013 0.33793 0.0
C1383 C 0.92088 0.08063 0.34565 0.0
O1384 O 0.92467 0.07032 0.36444 0.0
O1385 O 0.9327 0.06641 0.35706 0.0
O1386 O 0.9253 0.0755 0.34408 0.0
O1387 O 0.91753 0.07962 0.35165 0.0
H1388 H 0.93416 0.08127 0.35679 0.0
H1389 H 0.94131 0.09111 0.36111 0.0
H1390 H 0.94638 0.07917 0.37992 0.0
H1391 H 0.93927 0.06923 0.37547 0.0
H1392 H 0.9204 0.03765 0.36245 0.0
H1393 H 0.92279 0.04968 0.35815 0.0
H1394 H 0.89944 0.03867 0.35339 0.0
H1395 H 0.90185 0.05066 0.34919 0.0
H1396 H 0.90094 0.08055 0.33126 0.0
H1397 H 0.91647 0.09704 0.32822 0.0
H1398 H 0.92377 0.09187 0.33753 0.0
H1399 H 0.90829 0.07544 0.34069 0.0
C1400 C 0.69072 0.1871 0.11552 0.0
C1401 C 0.68494 0.18902 0.11127 0.0
C1402 C 0.68008 0.19613 0.12084 0.0
C1403 C 0.6797 0.19351 0.11389 0.0
C1404 C 0.68593 0.19427 0.12505 0.0
C1405 C 0.69122 0.1898 0.1224 0.0
U1406 U 0.6949 0.17217 0.10312 0.0
O1407 O 0.70432 0.16944 0.09689 0.0
O1408 O 0.70027 0.16196 0.10479 0.0
C1409 C 0.70535 0.16346 0.1003 0.0
C1410 C 0.6959 0.18188 0.11295 0.0
C1411 C 0.71258 0.16218 0.10284 0.0
C1412 C 0.72331 0.16604 0.10879 0.0
C1413 C 0.71637 0.16738 0.10654 0.0
C1414 C 0.72266 0.15427 0.10376 0.0
C1415 C 0.72653 0.15947 0.10741 0.0
C1416 C 0.71576 0.15562 0.10149 0.0
C1417 C 0.67961 0.1668 0.09076 0.0
C1418 C 0.67976 0.15669 0.08282 0.0
C1419 C 0.66927 0.16401 0.08372 0.0
C1420 C 0.67268 0.16831 0.08865 0.0
C1421 C 0.67273 0.1581 0.08082 0.0
C1422 C 0.68317 0.16101 0.08779 0.0
C1423 C 0.68286 0.1712 0.09627 0.0
O1424 O 0.69425 0.17527 0.11431 0.0
O1425 O 0.69814 0.18285 0.10644 0.0
O1426 O 0.68807 0.17533 0.09423 0.0
O1427 O 0.68409 0.16801 0.10231 0.0
H1428 H 0.6844 0.1869 0.10598 0.0
H1429 H 0.6752 0.19472 0.11055 0.0
H1430 H 0.6864 0.19623 0.13041 0.0
H1431 H 0.69561 0.18833 0.12578 0.0
H1432 H 0.72612 0.17013 0.11165 0.0
H1433 H 0.71398 0.17247 0.10767 0.0
H1434 H 0.72501 0.14919 0.10253 0.0
H1435 H 0.71291 0.15155 0.09864 0.0
H1436 H 0.68254 0.15215 0.08071 0.0
H1437 H 0.6639 0.16531 0.0822 0.0
H1438 H 0.66987 0.17278 0.09088 0.0
H1439 H 0.68854 0.15977 0.08939 0.0
C1440 C 0.57719 0.07279 0.64999 0.0
C1441 C 0.57601 0.07868 0.65434 0.0
C1442 C 0.56878 0.08417 0.64521 0.0
C1443 C 0.57182 0.08428 0.65199 0.0
C1444 C 0.5698 0.07816 0.64093 0.0
C1445 C 0.574 0.07251 0.6433 0.0
U1446 U 0.59241 0.06813 0.66161 0.0
O1447 O 0.59504 0.05881 0.66805 0.0
O1448 O 0.60232 0.06233 0.65972 0.0
C1449 C 0.60086 0.05749 0.66448 0.0
C1450 C 0.58223 0.0673 0.65225 0.0
C1451 C 0.60183 0.05011 0.66222 0.0
C1452 C 0.59814 0.03977 0.65555 0.0
C1453 C 0.5971 0.04683 0.65754 0.0
C1454 C 0.60865 0.03926 0.66286 0.0
C1455 C 0.60392 0.03588 0.65821 0.0
C1456 C 0.60761 0.0463 0.66484 0.0
C1457 C 0.59867 0.0837 0.67326 0.0
C1458 C 0.60897 0.08364 0.68094 0.0
C1459 C 0.60182 0.09423 0.67986 0.0
C1460 C 0.59734 0.09073 0.67517 0.0
C1461 C 0.60774 0.09077 0.68275 0.0
C1462 C 0.60448 0.08013 0.67621 0.0
C1463 C 0.59403 0.08035 0.66802 0.0
O1464 O 0.58884 0.06861 0.65054 0.0
O1465 O 0.58151 0.06515 0.65883 0.0
O1466 O 0.58984 0.07534 0.67038 0.0
O1467 O 0.59698 0.07881 0.66193 0.0
H1468 H 0.57846 0.07903 0.6595 0.0
H1469 H 0.57105 0.08877 0.65547 0.0
H1470 H 0.56757 0.07793 0.63566 0.0
H1471 H 0.57491 0.06803 0.63984 0.0
H1472 H 0.59437 0.03731 0.65201 0.0
H1473 H 0.59261 0.04972 0.65547 0.0
H1474 H 0.61322 0.03648 0.66491 0.0
H1475 H 0.61133 0.04877 0.66843 0.0
H1476 H 0.61351 0.08085 0.68306 0.0
H1477 H 0.60064 0.09967 0.68124 0.0
H1478 H 0.59286 0.09355 0.67296 0.0
H1479 H 0.60557 0.07469 0.67477 0.0
C1480 C 0.69108 0.82839 0.399 0.0
C1481 C 0.68552 0.82683 0.40365 0.0
C1482 C 0.67965 0.8199 0.39454 0.0
C1483 C 0.67989 0.8226 0.40146 0.0
C1484 C 0.68533 0.8213 0.38994 0.0
C1485 C 0.691 0.82554 0.39216 0.0
U1486 U 0.69627 0.84307 0.41112 0.0
O1487 O 0.70598 0.84554 0.41701 0.0
O1488 O 0.70174 0.8532 0.40937 0.0
C1489 C 0.70692 0.8516 0.41372 0.0
C1490 C 0.69659 0.83344 0.40116 0.0
C1491 C 0.7141 0.85295 0.41112 0.0
C1492 C 0.72436 0.84974 0.40407 0.0
C1493 C 0.7174 0.84843 0.40624 0.0
C1494 C 0.72471 0.86015 0.41154 0.0
C1495 C 0.72812 0.85558 0.40676 0.0
C1496 C 0.71778 0.85883 0.4137 0.0
C1497 C 0.68182 0.84844 0.42438 0.0
C1498 C 0.68178 0.8592 0.43142 0.0
C1499 C 0.67276 0.85029 0.43327 0.0
C1500 C 0.67581 0.8461 0.42801 0.0
C1501 C 0.67566 0.85692 0.43499 0.0
C1502 C 0.68485 0.85498 0.42616 0.0
C1503 C 0.68463 0.84409 0.4186 0.0
O1504 O 0.69501 0.8401 0.39994 0.0
O1505 O 0.69924 0.8324 0.40751 0.0
O1506 O 0.68984 0.83981 0.42026 0.0
O1507 O 0.68558 0.84737 0.41255 0.0
H1508 H 0.68545 0.82902 0.40895 0.0
H1509 H 0.67567 0.82153 0.40518 0.0
H1510 H 0.68528 0.81934 0.38457 0.0
H1511 H 0.69522 0.82674 0.38848 0.0
H1512 H 0.72685 0.8461 0.40042 0.0
H1513 H 0.71462 0.84385 0.4042 0.0
H1514 H 0.7274 0.86476 0.41362 0.0
H1515 H 0.7153 0.86239 0.41744 0.0
H1516 H 0.68418 0.86425 0.43267 0.0
H1517 H 0.66799 0.84842 0.43583 0.0
H1518 H 0.6734 0.84107 0.42669 0.0
H1519 H 0.68951 0.85686 0.42342 0.0
C1520 C 0.93596 0.94078 0.14794 0.0
C1521 C 0.93766 0.93489 0.15213 0.0
C1522 C 0.94514 0.9302 0.14276 0.0
C1523 C 0.94222 0.92966 0.14957 0.0
C1524 C 0.94349 0.93616 0.13861 0.0
C1525 C 0.93894 0.94141 0.14119 0.0
U1526 U 0.92126 0.94544 0.16051 0.0
O1527 O 0.91874 0.95514 0.1664 0.0
O1528 O 0.91107 0.95084 0.15881 0.0
C1529 C 0.91269 0.95607 0.16308 0.0
C1530 C 0.93078 0.94601 0.15046 0.0
C1531 C 0.91137 0.96323 0.16033 0.0
C1532 C 0.91523 0.97388 0.15425 0.0
C1533 C 0.91658 0.96699 0.15662 0.0
C1534 C 0.90341 0.97324 0.15916 0.0
C1535 C 0.90862 0.97709 0.15551 0.0
C1536 C 0.90478 0.96638 0.16155 0.0
C1537 C 0.91589 0.93098 0.17372 0.0
C1538 C 0.90503 0.93094 0.18059 0.0
C1539 C 0.91403 0.92206 0.18275 0.0
C1540 C 0.91826 0.92507 0.1775 0.0
C1541 C 0.90734 0.92491 0.18431 0.0
C1542 C 0.90929 0.93396 0.17534 0.0
C1543 C 0.92028 0.93376 0.16795 0.0
O1544 O 0.92415 0.9443 0.1493 0.0
O1545 O 0.93188 0.94846 0.15687 0.0
O1546 O 0.92456 0.93897 0.16962 0.0
O1547 O 0.91703 0.93471 0.16188 0.0
H1548 H 0.93533 0.93426 0.15732 0.0
H1549 H 0.94328 0.92509 0.15286 0.0
H1550 H 0.94569 0.93675 0.13336 0.0
H1551 H 0.93766 0.9459 0.13787 0.0
H1552 H 0.91932 0.97668 0.15139 0.0
H1553 H 0.9217 0.96462 0.1556 0.0
H1554 H 0.89831 0.97559 0.1603 0.0
H1555 H 0.90071 0.96356 0.16442 0.0
H1556 H 0.89994 0.9333 0.18171 0.0
H1557 H 0.91592 0.91737 0.18543 0.0
H1558 H 0.92333 0.92269 0.1763 0.0
H1559 H 0.90739 0.93856 0.17249 0.0
C1560 C 0.82345 0.18564 0.89887 0.0
C1561 C 0.82904 0.18711 0.90352 0.0
C1562 C 0.83485 0.19423 0.89452 0.0
C1563 C 0.83466 0.19138 0.90138 0.0
C1564 C 0.82915 0.19289 0.88992 0.0
C1565 C 0.8235 0.18861 0.89208 0.0
U1566 U 0.81772 0.17143 0.91135 0.0
O1567 O 0.80771 0.16915 0.91677 0.0
O1568 O 0.81237 0.16121 0.90968 0.0
C1569 C 0.80692 0.16301 0.91361 0.0
C1570 C 0.81789 0.18064 0.901 0.0
C1571 C 0.79991 0.16161 0.91054 0.0
C1572 C 0.78929 0.16548 0.9044 0.0
C1573 C 0.7961 0.16688 0.90695 0.0
C1574 C 0.79012 0.15348 0.90884 0.0
C1575 C 0.7862 0.15877 0.90536 0.0
C1576 C 0.7969 0.1549 0.91141 0.0
C1577 C 0.83157 0.16676 0.9256 0.0
C1578 C 0.83182 0.1562 0.93293 0.0
C1579 C 0.84004 0.16577 0.93517 0.0
C1580 C 0.83711 0.16961 0.92959 0.0
C1581 C 0.83749 0.15899 0.93687 0.0
C1582 C 0.82887 0.16007 0.92734 0.0
C1583 C 0.82895 0.17077 0.91948 0.0
O1584 O 0.81957 0.17394 0.90014 0.0
O1585 O 0.81496 0.18194 0.90716 0.0
O1586 O 0.82364 0.17509 0.92069 0.0
O1587 O 0.82831 0.16721 0.91355 0.0
H1588 H 0.82912 0.18484 0.90878 0.0
H1589 H 0.83889 0.19239 0.9051 0.0
H1590 H 0.82917 0.19496 0.88458 0.0
H1591 H 0.81926 0.18748 0.8884 0.0
H1592 H 0.78644 0.16964 0.90168 0.0
H1593 H 0.79836 0.17209 0.90619 0.0
H1594 H 0.78787 0.14829 0.90974 0.0
H1595 H 0.79976 0.15077 0.91417 0.0
H1596 H 0.8297 0.15102 0.93414 0.0
H1597 H 0.84448 0.16804 0.938 0.0
H1598 H 0.83927 0.17476 0.9283 0.0
H1599 H 0.82456 0.1578 0.92432 0.0
C1600 C 0.86423 0.57808 0.94049 0.0
C1601 C 0.86024 0.57732 0.93429 0.0
C1602 C 0.86937 0.56983 0.92917 0.0
C1603 C 0.86276 0.57322 0.9287 0.0
C1604 C 0.87326 0.5704 0.93549 0.0
C1605 C 0.87072 0.57453 0.9411 0.0
U1606 U 0.85216 0.59293 0.94544 0.0
O1607 O 0.84617 0.59554 0.95505 0.0
O1608 O 0.85406 0.60301 0.95094 0.0
C1609 C 0.84966 0.60147 0.95609 0.0
C1610 C 0.86188 0.58305 0.94599 0.0
C1611 C 0.85236 0.60268 0.96329 0.0
C1612 C 0.85769 0.59851 0.97423 0.0
C1613 C 0.8553 0.59719 0.96734 0.0
C1614 C 0.85434 0.61083 0.97302 0.0
C1615 C 0.85723 0.60535 0.97714 0.0
C1616 C 0.85192 0.6095 0.96617 0.0
C1617 C 0.83973 0.5988 0.93033 0.0
C1618 C 0.83196 0.60905 0.93056 0.0
C1619 C 0.83284 0.60188 0.91997 0.0
C1620 C 0.83765 0.59744 0.92336 0.0
C1621 C 0.83001 0.6078 0.92349 0.0
C1622 C 0.83682 0.60459 0.93395 0.0
C1623 C 0.84518 0.59427 0.93351 0.0
O1624 O 0.8633 0.58971 0.9446 0.0
O1625 O 0.85538 0.5821 0.94828 0.0
O1626 O 0.84311 0.59011 0.93868 0.0
O1627 O 0.85128 0.59734 0.93474 0.0
H1628 H 0.85523 0.58005 0.9337 0.0
H1629 H 0.85959 0.5728 0.92395 0.0
H1630 H 0.87839 0.5679 0.93599 0.0
H1631 H 0.8739 0.57511 0.94583 0.0
H1632 H 0.85995 0.5942 0.97725 0.0
H1633 H 0.85573 0.5919 0.96519 0.0
H1634 H 0.85382 0.61613 0.97513 0.0
H1635 H 0.84966 0.6138 0.96312 0.0
H1636 H 0.82989 0.61358 0.93339 0.0
H1637 H 0.83135 0.6007 0.91457 0.0
H1638 H 0.83984 0.59298 0.9205 0.0
H1639 H 0.8384 0.60571 0.93934 0.0
C1640 C 0.36605 0.93582 0.07184 0.0
C1641 C 0.36192 0.93756 0.07775 0.0
C1642 C 0.37149 0.94477 0.08248 0.0
C1643 C 0.3646 0.94201 0.083 0.0
C1644 C 0.3756 0.94305 0.07651 0.0
C1645 C 0.37289 0.93861 0.07123 0.0
U1646 U 0.35272 0.9219 0.06719 0.0
O1647 O 0.3466 0.91972 0.05756 0.0
O1648 O 0.35372 0.9116 0.06184 0.0
C1649 C 0.3495 0.91347 0.05664 0.0
C1650 C 0.36335 0.93077 0.06657 0.0
C1651 C 0.35207 0.91194 0.04947 0.0
C1652 C 0.35868 0.91517 0.03893 0.0
C1653 C 0.35656 0.91664 0.04588 0.0
C1654 C 0.35197 0.90426 0.0392 0.0
C1655 C 0.35635 0.90899 0.03548 0.0
C1656 C 0.34985 0.90573 0.04611 0.0
C1657 C 0.33919 0.91786 0.08197 0.0
C1658 C 0.3323 0.90718 0.08395 0.0
C1659 C 0.32954 0.9179 0.0904 0.0
C1660 C 0.33497 0.92144 0.08688 0.0
C1661 C 0.32823 0.91069 0.0891 0.0
C1662 C 0.33775 0.91074 0.08041 0.0
C1663 C 0.34527 0.92161 0.07889 0.0
O1664 O 0.36409 0.92409 0.06832 0.0
O1665 O 0.35703 0.93224 0.06405 0.0
O1666 O 0.34388 0.92593 0.07363 0.0
O1667 O 0.35105 0.91786 0.07794 0.0
H1668 H 0.35666 0.93538 0.07836 0.0
H1669 H 0.36135 0.94311 0.08758 0.0
H1670 H 0.3809 0.94512 0.07593 0.0
H1671 H 0.37616 0.93728 0.06672 0.0
H1672 H 0.36202 0.91895 0.03622 0.0
H1673 H 0.35834 0.92146 0.04841 0.0
H1674 H 0.35018 0.89939 0.03676 0.0
H1675 H 0.34642 0.90204 0.04882 0.0
H1676 H 0.33145 0.90162 0.08285 0.0
H1677 H 0.32641 0.9208 0.09422 0.0
H1678 H 0.33597 0.92694 0.08812 0.0
H1679 H 0.34094 0.90788 0.07661 0.0
C1680 C 0.82799 0.61536 0.82328 0.0
C1681 C 0.82773 0.61181 0.82978 0.0
C1682 C 0.8198 0.6208 0.8345 0.0
C1683 C 0.82367 0.61449 0.83533 0.0
C1684 C 0.81992 0.62424 0.8279 0.0
C1685 C 0.82401 0.62154 0.82233 0.0
U1686 U 0.84211 0.60254 0.81794 0.0
O1687 O 0.84407 0.59644 0.80824 0.0
O1688 O 0.85209 0.60391 0.81211 0.0
C1689 C 0.85019 0.59953 0.80706 0.0
C1690 C 0.83274 0.61277 0.8177 0.0
C1691 C 0.85143 0.602 0.7998 0.0
C1692 C 0.84799 0.60866 0.78936 0.0
C1693 C 0.8467 0.60656 0.79634 0.0
C1694 C 0.85878 0.60174 0.78929 0.0
C1695 C 0.85402 0.60622 0.78573 0.0
C1696 C 0.85748 0.59965 0.79625 0.0
C1697 C 0.84787 0.58946 0.8324 0.0
C1698 C 0.85864 0.58243 0.83225 0.0
C1699 C 0.84982 0.58044 0.84132 0.0
C1700 C 0.84559 0.58574 0.83837 0.0
C1701 C 0.85643 0.57877 0.83834 0.0
C1702 C 0.85438 0.58772 0.82928 0.0
C1703 C 0.84348 0.59527 0.82969 0.0
O1704 O 0.83949 0.61383 0.81896 0.0
O1705 O 0.83139 0.60633 0.81541 0.0
O1706 O 0.83895 0.59359 0.8247 0.0
O1707 O 0.8468 0.60126 0.82849 0.0
H1708 H 0.83077 0.60702 0.83061 0.0
H1709 H 0.82361 0.61165 0.8403 0.0
H1710 H 0.81703 0.62913 0.82711 0.0
H1711 H 0.82418 0.62436 0.81735 0.0
H1712 H 0.8442 0.61208 0.78675 0.0
H1713 H 0.84199 0.60843 0.79903 0.0
H1714 H 0.86354 0.59987 0.78672 0.0
H1715 H 0.86121 0.59616 0.79886 0.0
H1716 H 0.86367 0.58122 0.82979 0.0
H1717 H 0.848 0.57781 0.84606 0.0
H1718 H 0.84059 0.58702 0.84085 0.0
H1719 H 0.8562 0.59053 0.82464 0.0
C1720 C 0.14645 0.07963 0.57259 0.0
C1721 C 0.143 0.08251 0.57851 0.0
C1722 C 0.14083 0.07071 0.5832 0.0
C1723 C 0.14022 0.07811 0.58374 0.0
C1724 C 0.14418 0.06782 0.57723 0.0
C1725 C 0.14693 0.07223 0.57195 0.0
U1726 U 0.16006 0.09356 0.56807 0.0
O1727 O 0.16699 0.0951 0.55885 0.0
O1728 O 0.15937 0.10335 0.56183 0.0
C1729 C 0.16407 0.1012 0.55719 0.0
C1730 C 0.14982 0.08426 0.56724 0.0
C1731 C 0.16207 0.10214 0.54975 0.0
C1732 C 0.15533 0.09872 0.53935 0.0
C1733 C 0.15724 0.0976 0.54642 0.0
C1734 C 0.16307 0.10893 0.53891 0.0
C1735 C 0.15823 0.10441 0.53551 0.0
C1736 C 0.16497 0.10779 0.54595 0.0
C1737 C 0.17167 0.09978 0.58356 0.0
C1738 C 0.17997 0.10958 0.58297 0.0
C1739 C 0.17849 0.10306 0.5939 0.0
C1740 C 0.17351 0.0987 0.59064 0.0
C1741 C 0.18171 0.10861 0.59014 0.0
C1742 C 0.17496 0.1052 0.5797 0.0
C1743 C 0.16614 0.09532 0.58042 0.0
O1744 O 0.14871 0.0911 0.56797 0.0
O1745 O 0.15643 0.08274 0.56567 0.0
O1746 O 0.16829 0.09063 0.57576 0.0
O1747 O 0.16034 0.09864 0.57851 0.0
H1748 H 0.14256 0.08818 0.57921 0.0
H1749 H 0.13777 0.08051 0.58832 0.0
H1750 H 0.14468 0.06214 0.57664 0.0
H1751 H 0.14954 0.06987 0.56744 0.0
H1752 H 0.15164 0.09511 0.53688 0.0
H1753 H 0.15493 0.09321 0.5493 0.0
H1754 H 0.1653 0.11343 0.53618 0.0
H1755 H 0.16867 0.11138 0.54846 0.0
H1756 H 0.18233 0.11383 0.57995 0.0
H1757 H 0.17981 0.10208 0.59939 0.0
H1758 H 0.17104 0.09451 0.59367 0.0
H1759 H 0.17358 0.1061 0.57422 0.0
C1760 C 0.18594 0.89861 0.82352 0.0
C1761 C 0.18601 0.90189 0.83017 0.0
C1762 C 0.19424 0.89302 0.83459 0.0
C1763 C 0.19012 0.89913 0.83564 0.0
C1764 C 0.19433 0.88987 0.82785 0.0
C1765 C 0.19018 0.89264 0.82235 0.0
U1766 U 0.17131 0.91104 0.8189 0.0
O1767 O 0.16903 0.91764 0.80961 0.0
O1768 O 0.16137 0.90962 0.81304 0.0
C1769 C 0.16305 0.91437 0.80825 0.0
C1770 C 0.18111 0.90126 0.81803 0.0
C1771 C 0.16191 0.91225 0.80087 0.0
C1772 C 0.16514 0.90548 0.79042 0.0
C1773 C 0.16636 0.90737 0.79749 0.0
C1774 C 0.15499 0.91332 0.79012 0.0
C1775 C 0.15945 0.90847 0.78665 0.0
C1776 C 0.15622 0.91518 0.79715 0.0
C1777 C 0.16525 0.92279 0.83441 0.0
C1778 C 0.15511 0.93069 0.8342 0.0
C1779 C 0.16221 0.92962 0.84482 0.0
C1780 C 0.1666 0.92477 0.84141 0.0
C1781 C 0.15636 0.93258 0.84129 0.0
C1782 C 0.15952 0.92581 0.83078 0.0
C1783 C 0.16978 0.9174 0.83114 0.0
O1784 O 0.17442 0.89982 0.81919 0.0
O1785 O 0.18217 0.90787 0.81611 0.0
O1786 O 0.17414 0.91964 0.82622 0.0
O1787 O 0.16665 0.91141 0.82953 0.0
H1788 H 0.18277 0.90651 0.83117 0.0
H1789 H 0.19002 0.90175 0.84073 0.0
H1790 H 0.19742 0.88514 0.82689 0.0
H1791 H 0.19016 0.89003 0.81726 0.0
H1792 H 0.1687 0.90178 0.78789 0.0
H1793 H 0.17079 0.90504 0.8003 0.0
H1794 H 0.15049 0.91562 0.78743 0.0
H1795 H 0.15271 0.91893 0.7997 0.0
H1796 H 0.15063 0.93285 0.83136 0.0
H1797 H 0.16339 0.93105 0.85023 0.0
H1798 H 0.17102 0.92251 0.84427 0.0
H1799 H 0.15842 0.92432 0.82537 0.0
C1800 C 0.6497 0.4352 0.44083 0.0
C1801 C 0.6543 0.43682 0.43525 0.0
C1802 C 0.64505 0.44361 0.42942 0.0
C1803 C 0.65202 0.441 0.42963 0.0
C1804 C 0.6405 0.44214 0.43511 0.0
C1805 C 0.64281 0.43794 0.44078 0.0
U1806 U 0.66242 0.4211 0.44619 0.0
O1807 O 0.66832 0.41894 0.45596 0.0
O1808 O 0.66108 0.41091 0.45169 0.0
C1809 C 0.66527 0.41276 0.45692 0.0
C1810 C 0.652 0.43024 0.44637 0.0
C1811 C 0.66258 0.41141 0.46407 0.0
C1812 C 0.65589 0.41493 0.47447 0.0
C1813 C 0.65809 0.41622 0.46752 0.0
C1814 C 0.66252 0.40396 0.47451 0.0
C1815 C 0.65816 0.40882 0.47808 0.0
C1816 C 0.66472 0.40525 0.46759 0.0
C1817 C 0.67613 0.41663 0.43164 0.0
C1818 C 0.68261 0.40574 0.4293 0.0
C1819 C 0.68603 0.41664 0.42349 0.0
C1820 C 0.68066 0.42024 0.42704 0.0
C1821 C 0.68696 0.40932 0.42444 0.0
C1822 C 0.67722 0.40937 0.43287 0.0
C1823 C 0.67007 0.42048 0.43464 0.0
O1824 O 0.65112 0.42353 0.44477 0.0
O1825 O 0.65826 0.43157 0.44911 0.0
O1826 O 0.67146 0.42484 0.43987 0.0
O1827 O 0.66422 0.41685 0.43554 0.0
H1828 H 0.65963 0.43472 0.43517 0.0
H1829 H 0.6557 0.44214 0.4254 0.0
H1830 H 0.63509 0.44403 0.43508 0.0
H1831 H 0.63917 0.43669 0.44502 0.0
H1832 H 0.65257 0.4188 0.47707 0.0
H1833 H 0.65638 0.421 0.46486 0.0
H1834 H 0.66426 0.39913 0.47708 0.0
H1835 H 0.66815 0.40146 0.46499 0.0
H1836 H 0.68318 0.4001 0.43012 0.0
H1837 H 0.68938 0.41957 0.41989 0.0
H1838 H 0.67993 0.42584 0.42605 0.0
H1839 H 0.67379 0.40648 0.43643 0.0
C1840 C 0.82794 0.39837 0.68994 0.0
C1841 C 0.82646 0.40239 0.68389 0.0
C1842 C 0.81898 0.39295 0.67932 0.0
C1843 C 0.822 0.39972 0.67864 0.0
C1844 C 0.82046 0.38895 0.68542 0.0
C1845 C 0.8249 0.39165 0.6907 0.0
U1846 U 0.84224 0.4113 0.69499 0.0
O1847 O 0.84411 0.4174 0.70474 0.0
O1848 O 0.85217 0.40996 0.70088 0.0
C1849 C 0.85014 0.41417 0.70603 0.0
C1850 C 0.8329 0.40105 0.6953 0.0
C1851 C 0.85112 0.41155 0.71332 0.0
C1852 C 0.8537 0.40214 0.72173 0.0
C1853 C 0.85242 0.40437 0.71479 0.0
C1854 C 0.85222 0.41419 0.72585 0.0
C1855 C 0.85365 0.40704 0.72733 0.0
C1856 C 0.851 0.41642 0.71892 0.0
C1857 C 0.84792 0.42453 0.68065 0.0
C1858 C 0.85862 0.43163 0.68092 0.0
C1859 C 0.84986 0.43358 0.67178 0.0
C1860 C 0.84565 0.42825 0.67467 0.0
C1861 C 0.85643 0.43529 0.67482 0.0
C1862 C 0.85439 0.4263 0.68383 0.0
C1863 C 0.84356 0.41866 0.6833 0.0
O1864 O 0.83961 0.40001 0.69384 0.0
O1865 O 0.83158 0.40748 0.69761 0.0
O1866 O 0.83901 0.42027 0.6883 0.0
O1867 O 0.84692 0.41268 0.68447 0.0
H1868 H 0.82883 0.40756 0.68318 0.0
H1869 H 0.82108 0.40289 0.67396 0.0
H1870 H 0.81818 0.38374 0.68611 0.0
H1871 H 0.82601 0.38847 0.69533 0.0
H1872 H 0.85472 0.39659 0.72272 0.0
H1873 H 0.85252 0.40049 0.71058 0.0
H1874 H 0.85223 0.4181 0.73004 0.0
H1875 H 0.85004 0.42198 0.71792 0.0
H1876 H 0.86362 0.43287 0.68342 0.0
H1877 H 0.84805 0.43622 0.66703 0.0
H1878 H 0.84068 0.42693 0.67215 0.0
H1879 H 0.8562 0.42349 0.68848 0.0
C1880 C 0.6861 0.61661 0.19016 0.0
C1881 C 0.68785 0.61244 0.18428 0.0
C1882 C 0.69494 0.62204 0.17944 0.0
C1883 C 0.69224 0.61511 0.17899 0.0
C1884 C 0.69318 0.62619 0.18536 0.0
C1885 C 0.68881 0.62349 0.19069 0.0
U1886 U 0.67234 0.60322 0.19522 0.0
O1887 O 0.67067 0.597 0.20493 0.0
O1888 O 0.66231 0.60409 0.20103 0.0
C1889 C 0.66447 0.59991 0.20616 0.0
C1890 C 0.68122 0.61385 0.19555 0.0
C1891 C 0.66322 0.60235 0.21347 0.0
C1892 C 0.66019 0.61149 0.22202 0.0
C1893 C 0.66183 0.60947 0.21508 0.0
C1894 C 0.66152 0.59934 0.22584 0.0
C1895 C 0.65992 0.60643 0.22747 0.0
C1896 C 0.66312 0.59733 0.21892 0.0
C1897 C 0.66761 0.58972 0.18071 0.0
C1898 C 0.65734 0.58199 0.18056 0.0
C1899 C 0.66657 0.58055 0.17179 0.0
C1900 C 0.67033 0.58613 0.17483 0.0
C1901 C 0.66 0.57844 0.17457 0.0
C1902 C 0.66113 0.58757 0.18361 0.0
C1903 C 0.67154 0.59581 0.18351 0.0
O1904 O 0.67448 0.61461 0.19404 0.0
O1905 O 0.68278 0.60752 0.19798 0.0
O1906 O 0.6761 0.59443 0.18856 0.0
O1907 O 0.66782 0.60157 0.18465 0.0
H1908 H 0.68574 0.60714 0.18373 0.0
H1909 H 0.69338 0.61182 0.17444 0.0
H1910 H 0.6952 0.63153 0.18588 0.0
H1911 H 0.68748 0.62679 0.19518 0.0
H1912 H 0.65894 0.61698 0.22306 0.0
H1913 H 0.66188 0.61347 0.21098 0.0
H1914 H 0.66151 0.59531 0.22991 0.0
H1915 H 0.6642 0.5918 0.2178 0.0
H1916 H 0.65233 0.58045 0.18286 0.0
H1917 H 0.66873 0.57803 0.16713 0.0
H1918 H 0.67531 0.58773 0.17251 0.0
H1919 H 0.65897 0.59028 0.18818 0.0
C1920 C 0.57431 0.64769 0.93417 0.0
C1921 C 0.58096 0.65098 0.93416 0.0
C1922 C 0.58547 0.64217 0.94239 0.0
C1923 C 0.58647 0.64825 0.93824 0.0
C1924 C 0.57874 0.63898 0.94253 0.0
C1925 C 0.57321 0.64172 0.93842 0.0
U1926 U 0.56908 0.66041 0.91994 0.0
O1927 O 0.56298 0.65915 0.91014 0.0
O1928 O 0.5595 0.66681 0.91815 0.0
C1929 C 0.55801 0.66357 0.91218 0.0
C1930 C 0.56871 0.65036 0.92949 0.0
C1931 C 0.5506 0.66124 0.91125 0.0
C1932 C 0.54187 0.65233 0.90805 0.0
C1933 C 0.54888 0.65422 0.90949 0.0
C1934 C 0.53816 0.66438 0.91032 0.0
C1935 C 0.53643 0.65741 0.90836 0.0
C1936 C 0.54517 0.66627 0.91172 0.0
C1937 C 0.58418 0.67276 0.91387 0.0
C1938 C 0.58411 0.6803 0.90346 0.0
C1939 C 0.59421 0.68032 0.91135 0.0
C1940 C 0.59087 0.67536 0.91566 0.0
C1941 C 0.59093 0.68277 0.90514 0.0
C1942 C 0.58076 0.67531 0.9078 0.0
C1943 C 0.58109 0.66716 0.91828 0.0
O1944 O 0.56667 0.65689 0.93076 0.0
O1945 O 0.56979 0.64913 0.92273 0.0
O1946 O 0.57955 0.66123 0.91501 0.0
O1947 O 0.57622 0.66916 0.92281 0.0
H1948 H 0.5819 0.6556 0.93091 0.0
H1949 H 0.59155 0.6509 0.9381 0.0
H1950 H 0.57782 0.63426 0.94564 0.0
H1951 H 0.56811 0.6391 0.93846 0.0
H1952 H 0.54075 0.64693 0.9065 0.0
H1953 H 0.55296 0.65021 0.90908 0.0
H1954 H 0.53411 0.6684 0.91074 0.0
H1955 H 0.54636 0.67171 0.91306 0.0
H1956 H 0.58146 0.68207 0.8987 0.0
H1957 H 0.5994 0.68221 0.91286 0.0
H1958 H 0.59357 0.67347 0.92035 0.0
H1959 H 0.57558 0.67334 0.90635 0.0
C1960 C 0.61652 0.32345 0.18562 0.0
C1961 C 0.61256 0.32956 0.18709 0.0
C1962 C 0.62205 0.33407 0.19453 0.0
C1963 C 0.61529 0.3348 0.19152 0.0
C1964 C 0.62598 0.3279 0.19309 0.0
C1965 C 0.62322 0.32263 0.18867 0.0
U1966 U 0.60385 0.31902 0.17099 0.0
O1967 O 0.60514 0.31319 0.16103 0.0
O1968 O 0.59732 0.30961 0.16883 0.0
C1969 C 0.60062 0.30823 0.16287 0.0
C1970 C 0.61379 0.31816 0.18061 0.0
C1971 C 0.60284 0.30081 0.16179 0.0
C1972 C 0.61171 0.29197 0.15877 0.0
C1973 C 0.60989 0.29899 0.16029 0.0
C1974 C 0.59951 0.28846 0.16044 0.0
C1975 C 0.60652 0.28663 0.15874 0.0
C1976 C 0.5977 0.29547 0.16191 0.0
C1977 C 0.59166 0.3343 0.1652 0.0
C1978 C 0.58408 0.3342 0.15482 0.0
C1979 C 0.58421 0.3444 0.16259 0.0
C1980 C 0.58915 0.34104 0.16692 0.0
C1981 C 0.5817 0.34107 0.15643 0.0
C1982 C 0.58905 0.33084 0.15918 0.0
C1983 C 0.5972 0.33114 0.16964 0.0
O1984 O 0.60724 0.31611 0.18172 0.0
O1985 O 0.6151 0.31956 0.17393 0.0
O1986 O 0.60317 0.32966 0.1664 0.0
O1987 O 0.59516 0.32616 0.17402 0.0
H1988 H 0.60741 0.33033 0.18471 0.0
H1989 H 0.61218 0.33953 0.19242 0.0
H1990 H 0.63119 0.32717 0.19535 0.0
H1991 H 0.62637 0.31797 0.18755 0.0
H1992 H 0.61714 0.29077 0.15743 0.0
H1993 H 0.61398 0.30299 0.16015 0.0
H1994 H 0.59541 0.28448 0.16061 0.0
H1995 H 0.59223 0.29674 0.16306 0.0
H1996 H 0.58227 0.33152 0.1501 0.0
H1997 H 0.58238 0.34963 0.16405 0.0
H1998 H 0.59108 0.34377 0.17157 0.0
H1999 H 0.59096 0.32561 0.15778 0.0
C2000 C 0.93903 0.36742 0.43398 0.0
C2001 C 0.93257 0.36381 0.43432 0.0
C2002 C 0.92767 0.37302 0.44186 0.0
C2003 C 0.92696 0.36657 0.43823 0.0
C2004 C 0.93422 0.37656 0.44164 0.0
C2005 C 0.93986 0.37378 0.4377 0.0
U2006 U 0.94475 0.35383 0.4208 0.0
O2007 O 0.95086 0.35452 0.41096 0.0
O2008 O 0.95451 0.3476 0.41956 0.0
C2009 C 0.95587 0.3503 0.4133 0.0
C2010 C 0.94474 0.36462 0.42951 0.0
C2011 C 0.96317 0.3527 0.41214 0.0
C2012 C 0.97233 0.36172 0.41255 0.0
C2013 C 0.9654 0.35953 0.414 0.0
C2014 C 0.97485 0.35022 0.40746 0.0
C2015 C 0.97713 0.35708 0.40923 0.0
C2016 C 0.96795 0.34806 0.4089 0.0
C2017 C 0.93038 0.34033 0.4157 0.0
C2018 C 0.9304 0.33267 0.40537 0.0
C2019 C 0.92167 0.33098 0.41458 0.0
C2020 C 0.92459 0.3366 0.41838 0.0
C2021 C 0.92449 0.32899 0.408 0.0
C2022 C 0.93334 0.33829 0.40921 0.0
C2023 C 0.93304 0.34646 0.41967 0.0
O2024 O 0.94705 0.35831 0.43129 0.0
O2025 O 0.94361 0.36526 0.42268 0.0
O2026 O 0.93433 0.35219 0.41594 0.0
O2027 O 0.93792 0.34512 0.42443 0.0
H2028 H 0.93184 0.35888 0.43149 0.0
H2029 H 0.92203 0.36365 0.43838 0.0
H2030 H 0.93492 0.38156 0.44434 0.0
H2031 H 0.94481 0.37665 0.43747 0.0
H2032 H 0.97393 0.36701 0.41403 0.0
H2033 H 0.96177 0.36318 0.41653 0.0
H2034 H 0.97836 0.34656 0.4048 0.0
H2035 H 0.96631 0.34278 0.4074 0.0
H2036 H 0.93274 0.33123 0.40035 0.0
H2037 H 0.91706 0.32834 0.41671 0.0
H2038 H 0.92222 0.33811 0.42338 0.0
H2039 H 0.93785 0.3411 0.40707 0.0
C2040 C 0.89701 0.6906 0.68489 0.0
C2041 C 0.90134 0.68502 0.68716 0.0
C2042 C 0.89167 0.68018 0.69414 0.0
C2043 C 0.89871 0.67988 0.69176 0.0
C2044 C 0.88736 0.68584 0.69191 0.0
C2045 C 0.89002 0.69101 0.68733 0.0
U2046 U 0.91011 0.69526 0.67061 0.0
O2047 O 0.90868 0.70046 0.66029 0.0
O2048 O 0.91586 0.70506 0.66818 0.0
C2049 C 0.91273 0.70584 0.66202 0.0
C2050 C 0.89963 0.69575 0.67968 0.0
C2051 C 0.9098 0.7129 0.66056 0.0
C2052 C 0.90343 0.72345 0.66425 0.0
C2053 C 0.90591 0.71661 0.66568 0.0
C2054 C 0.90853 0.72283 0.65252 0.0
C2055 C 0.90475 0.72665 0.65766 0.0
C2056 C 0.91104 0.71603 0.65397 0.0
C2057 C 0.92402 0.68111 0.66619 0.0
C2058 C 0.93166 0.68125 0.65586 0.0
C2059 C 0.93334 0.67238 0.66495 0.0
C2060 C 0.92773 0.67526 0.66879 0.0
C2061 C 0.93534 0.6753 0.65841 0.0
C2062 C 0.92605 0.68415 0.65973 0.0
C2063 C 0.91794 0.6838 0.67021 0.0
O2064 O 0.90592 0.6984 0.681 0.0
O2065 O 0.89882 0.69383 0.67305 0.0
O2066 O 0.91202 0.68452 0.66663 0.0
O2067 O 0.91923 0.68913 0.67447 0.0
H2068 H 0.90673 0.68456 0.68526 0.0
H2069 H 0.90213 0.67553 0.69327 0.0
H2070 H 0.88193 0.68624 0.69368 0.0
H2071 H 0.88659 0.69527 0.6856 0.0
H2072 H 0.90046 0.72622 0.66829 0.0
H2073 H 0.90486 0.71426 0.67079 0.0
H2074 H 0.90972 0.72517 0.64744 0.0
H2075 H 0.91404 0.71324 0.64996 0.0
H2076 H 0.93311 0.68366 0.65087 0.0
H2077 H 0.93597 0.66773 0.66702 0.0
H2078 H 0.92622 0.67284 0.67376 0.0
H2079 H 0.92325 0.6887 0.65766 0.0
C2080 C 0.57378 0.36655 0.57871 0.0
C2081 C 0.57999 0.36256 0.57795 0.0
C2082 C 0.58519 0.3718 0.57066 0.0
C2083 C 0.58561 0.36514 0.57395 0.0
C2084 C 0.57888 0.37572 0.57129 0.0
C2085 C 0.57323 0.37312 0.5753 0.0
U2086 U 0.56829 0.35405 0.59304 0.0
O2087 O 0.56218 0.35554 0.6028 0.0
O2088 O 0.55859 0.34786 0.59485 0.0
C2089 C 0.55713 0.35121 0.60077 0.0
C2090 C 0.56814 0.36403 0.58342 0.0
C2091 C 0.54979 0.35376 0.60155 0.0
C2092 C 0.54125 0.36312 0.60388 0.0
C2093 C 0.54823 0.36095 0.6027 0.0
C2094 C 0.53727 0.35101 0.60257 0.0
C2095 C 0.5357 0.35816 0.60387 0.0
C2096 C 0.54425 0.34884 0.60145 0.0
C2097 C 0.58304 0.34147 0.59939 0.0
C2098 C 0.58239 0.3338 0.60969 0.0
C2099 C 0.59302 0.33406 0.60254 0.0
C2100 C 0.58989 0.33901 0.59805 0.0
C2101 C 0.58936 0.33149 0.60848 0.0
C2102 C 0.57926 0.33879 0.60518 0.0
C2103 C 0.58016 0.34707 0.59485 0.0
O2104 O 0.56594 0.35754 0.5822 0.0
O2105 O 0.56925 0.36529 0.59016 0.0
O2106 O 0.57874 0.35308 0.59802 0.0
O2107 O 0.57526 0.34513 0.59031 0.0
H2108 H 0.58053 0.35749 0.58057 0.0
H2109 H 0.59034 0.36193 0.57348 0.0
H2110 H 0.57841 0.38089 0.56887 0.0
H2111 H 0.56849 0.37629 0.57588 0.0
H2112 H 0.54019 0.36868 0.60479 0.0
H2113 H 0.55239 0.36488 0.60277 0.0
H2114 H 0.53313 0.34705 0.60261 0.0
H2115 H 0.54533 0.34327 0.60061 0.0
H2116 H 0.57945 0.33193 0.61423 0.0
H2117 H 0.59835 0.33229 0.60139 0.0
H2118 H 0.59287 0.34101 0.59359 0.0
H2119 H 0.57395 0.34066 0.60628 0.0
C2120 C 0.89801 0.32431 0.82824 0.0
C2121 C 0.90183 0.33063 0.82764 0.0
C2122 C 0.89273 0.33557 0.81999 0.0
C2123 C 0.89923 0.3362 0.82354 0.0
C2124 C 0.88901 0.32913 0.82042 0.0
C2125 C 0.89163 0.32354 0.82454 0.0
U2126 U 0.91025 0.31935 0.84295 0.0
O2127 O 0.90849 0.31374 0.85298 0.0
O2128 O 0.91634 0.30975 0.84542 0.0
C2129 C 0.91293 0.30864 0.85137 0.0
C2130 C 0.90046 0.3188 0.83316 0.0
C2131 C 0.9103 0.30141 0.85251 0.0
C2132 C 0.904 0.29092 0.84855 0.0
C2133 C 0.90639 0.29783 0.84731 0.0
C2134 C 0.90932 0.29118 0.8602 0.0
C2135 C 0.90543 0.28752 0.85501 0.0
C2136 C 0.91172 0.29805 0.85895 0.0
C2137 C 0.92263 0.3344 0.84894 0.0
C2138 C 0.93045 0.33392 0.85913 0.0
C2139 C 0.92957 0.34468 0.85221 0.0
C2140 C 0.92473 0.34139 0.84772 0.0
C2141 C 0.93241 0.34102 0.85803 0.0
C2142 C 0.92556 0.33064 0.85463 0.0
C2143 C 0.91717 0.33131 0.84438 0.0
O2144 O 0.90697 0.31658 0.83213 0.0
O2145 O 0.89908 0.32014 0.83983 0.0
O2146 O 0.91108 0.33003 0.84745 0.0
O2147 O 0.91923 0.32621 0.84013 0.0
H2148 H 0.90676 0.33133 0.83048 0.0
H2149 H 0.90227 0.34104 0.82324 0.0
H2150 H 0.88397 0.3285 0.81779 0.0
H2151 H 0.88859 0.31871 0.82499 0.0
H2152 H 0.90097 0.28827 0.84447 0.0
H2153 H 0.9052 0.30036 0.84231 0.0
H2154 H 0.9106 0.28869 0.86519 0.0
H2155 H 0.91474 0.30074 0.86301 0.0
H2156 H 0.93252 0.33099 0.86359 0.0
H2157 H 0.93106 0.3501 0.85114 0.0
H2158 H 0.92253 0.34436 0.84333 0.0
H2159 H 0.92398 0.32523 0.85564 0.0
C2160 C 0.94106 0.64806 0.0779 0.0
C2161 C 0.9354 0.65234 0.07571 0.0
C2162 C 0.93066 0.64268 0.06863 0.0
C2163 C 0.93028 0.64969 0.0711 0.0
C2164 C 0.93639 0.63843 0.07076 0.0
C2165 C 0.94156 0.64111 0.07535 0.0
U2166 U 0.94494 0.66033 0.09308 0.0
O2167 O 0.95025 0.65851 0.10328 0.0
O2168 O 0.95429 0.66659 0.09598 0.0
C2169 C 0.95531 0.66307 0.10189 0.0
C2170 C 0.94612 0.65065 0.08322 0.0
C2171 C 0.96256 0.66056 0.1032 0.0
C2172 C 0.97377 0.65573 0.09912 0.0
C2173 C 0.96682 0.65789 0.09773 0.0
C2174 C 0.97222 0.65875 0.11147 0.0
C2175 C 0.97655 0.65616 0.10601 0.0
C2176 C 0.96531 0.66094 0.11007 0.0
C2177 C 0.92959 0.67249 0.09863 0.0
C2178 C 0.92985 0.68043 0.10874 0.0
C2179 C 0.91917 0.67929 0.10175 0.0
C2180 C 0.92257 0.67444 0.09734 0.0
C2181 C 0.92274 0.68228 0.10755 0.0
C2182 C 0.93325 0.67554 0.10432 0.0
C2183 C 0.93285 0.66708 0.09412 0.0
O2184 O 0.94828 0.65721 0.08238 0.0
O2185 O 0.94441 0.64917 0.08978 0.0
O2186 O 0.9341 0.66097 0.09719 0.0
O2187 O 0.93805 0.66922 0.09005 0.0
H2188 H 0.93485 0.65769 0.07771 0.0
H2189 H 0.92587 0.65307 0.06966 0.0
H2190 H 0.93686 0.63302 0.06893 0.0
H2191 H 0.94586 0.63771 0.07702 0.0
H2192 H 0.97694 0.65369 0.09482 0.0
H2193 H 0.96478 0.6575 0.09239 0.0
H2194 H 0.97423 0.65923 0.11681 0.0
H2195 H 0.9621 0.663 0.11435 0.0
H2196 H 0.93273 0.68262 0.11318 0.0
H2197 H 0.91374 0.68069 0.10061 0.0
H2198 H 0.91967 0.67214 0.09296 0.0
H2199 H 0.93868 0.67407 0.10539 0.0
C2200 C 0.61651 0.69077 0.32801 0.0
C2201 C 0.61261 0.68449 0.3274 0.0
C2202 C 0.62174 0.67938 0.31991 0.0
C2203 C 0.61519 0.67887 0.32338 0.0
C2204 C 0.62556 0.68575 0.32038 0.0
C2205 C 0.62297 0.6914 0.32443 0.0
U2206 U 0.6038 0.69628 0.34212 0.0
O2207 O 0.60516 0.70227 0.35199 0.0
O2208 O 0.59765 0.70598 0.34395 0.0
C2209 C 0.60075 0.70727 0.35003 0.0
C2210 C 0.61399 0.69641 0.33273 0.0
C2211 C 0.60317 0.71457 0.35113 0.0
C2212 C 0.61055 0.72463 0.34802 0.0
C2213 C 0.60844 0.71761 0.34688 0.0
C2214 C 0.60217 0.72557 0.35767 0.0
C2215 C 0.6074 0.7287 0.3534 0.0
C2216 C 0.60009 0.71858 0.35653 0.0
C2217 C 0.5907 0.68195 0.34805 0.0
C2218 C 0.58388 0.68213 0.35894 0.0
C2219 C 0.58138 0.67335 0.34994 0.0
C2220 C 0.58671 0.67618 0.3457 0.0
C2221 C 0.57995 0.67624 0.35664 0.0
C2222 C 0.58921 0.68498 0.35466 0.0
C2223 C 0.59653 0.68455 0.34362 0.0
O2224 O 0.60757 0.69873 0.33139 0.0
O2225 O 0.61508 0.6952 0.33948 0.0
O2226 O 0.60252 0.68578 0.34692 0.0
O2227 O 0.59487 0.68947 0.33901 0.0
H2228 H 0.60762 0.6839 0.33014 0.0
H2229 H 0.61206 0.67408 0.32303 0.0
H2230 H 0.63065 0.68629 0.31782 0.0
H2231 H 0.62607 0.6962 0.32488 0.0
H2232 H 0.61454 0.7269 0.34461 0.0
H2233 H 0.61088 0.71457 0.34268 0.0
H2234 H 0.59973 0.7285 0.36194 0.0
H2235 H 0.59604 0.71629 0.35988 0.0
H2236 H 0.58286 0.68451 0.36404 0.0
H2237 H 0.57852 0.66875 0.34806 0.0
H2238 H 0.58781 0.67377 0.34062 0.0
H2239 H 0.59222 0.68948 0.35655 0.0
C2240 C 0.93366 0.57432 0.64732 0.0
C2241 C 0.93463 0.58051 0.65129 0.0
C2242 C 0.94185 0.58555 0.64191 0.0
C2243 C 0.9387 0.58605 0.64863 0.0
C2244 C 0.94102 0.57925 0.63802 0.0
C2245 C 0.93693 0.57368 0.6407 0.0
U2246 U 0.92004 0.56902 0.66062 0.0
O2247 O 0.90994 0.56331 0.65965 0.0
O2248 O 0.91824 0.5593 0.66672 0.0
C2249 C 0.912 0.55819 0.66388 0.0
C2250 C 0.92891 0.56877 0.64998 0.0
C2251 C 0.91065 0.55096 0.66136 0.0
C2252 C 0.91379 0.54069 0.65429 0.0
C2253 C 0.9151 0.54767 0.65641 0.0
C2254 C 0.90354 0.5403 0.66196 0.0
C2255 C 0.90802 0.5369 0.6571 0.0
C2256 C 0.90485 0.54726 0.66407 0.0
C2257 C 0.91531 0.58346 0.67417 0.0
C2258 C 0.90498 0.58354 0.68182 0.0
C2259 C 0.91426 0.59223 0.68347 0.0
C2260 C 0.91803 0.58926 0.67787 0.0
C2261 C 0.90765 0.58945 0.68548 0.0
C2262 C 0.90879 0.58055 0.67621 0.0
C2263 C 0.91927 0.58071 0.66808 0.0
O2264 O 0.93049 0.5663 0.65629 0.0
O2265 O 0.92215 0.5702 0.64924 0.0
O2266 O 0.91558 0.57962 0.66229 0.0
O2267 O 0.9238 0.57562 0.66944 0.0
H2268 H 0.93214 0.5811 0.65641 0.0
H2269 H 0.93933 0.59077 0.65181 0.0
H2270 H 0.94333 0.57873 0.63281 0.0
H2271 H 0.93619 0.56895 0.63755 0.0
H2272 H 0.91737 0.5382 0.65058 0.0
H2273 H 0.91961 0.55047 0.65426 0.0
H2274 H 0.89898 0.5376 0.66413 0.0
H2275 H 0.90135 0.54974 0.66786 0.0
H2276 H 0.89994 0.58125 0.68327 0.0
H2277 H 0.91642 0.59684 0.68609 0.0
H2278 H 0.92305 0.59158 0.67634 0.0
H2279 H 0.90662 0.57604 0.67342 0.0
C2280 C 0.69073 0.68674 0.89831 0.0
C2281 C 0.6849 0.68831 0.90262 0.0
C2282 C 0.68032 0.69641 0.89372 0.0
C2283 C 0.67977 0.69312 0.90036 0.0
C2284 C 0.68619 0.69485 0.88942 0.0
C2285 C 0.69137 0.69006 0.89171 0.0
U2286 U 0.69477 0.67111 0.90985 0.0
O2287 O 0.70011 0.66099 0.90771 0.0
O2288 O 0.70411 0.66803 0.91604 0.0
C2289 C 0.7051 0.66218 0.91241 0.0
C2290 C 0.69587 0.68132 0.90054 0.0
C2291 C 0.71238 0.66084 0.91006 0.0
C2292 C 0.72285 0.66406 0.90334 0.0
C2293 C 0.71584 0.66539 0.90533 0.0
C2294 C 0.72295 0.6536 0.91075 0.0
C2295 C 0.72651 0.65817 0.90609 0.0
C2296 C 0.71596 0.65493 0.91271 0.0
C2297 C 0.67958 0.6652 0.92197 0.0
C2298 C 0.68026 0.65528 0.93013 0.0
C2299 C 0.66919 0.66156 0.92853 0.0
C2300 C 0.67243 0.66607 0.92368 0.0
C2301 C 0.67304 0.65606 0.93176 0.0
C2302 C 0.6835 0.65981 0.92524 0.0
C2303 C 0.68273 0.66988 0.91664 0.0
O2304 O 0.69814 0.6819 0.90708 0.0
O2305 O 0.69414 0.67481 0.89883 0.0
O2306 O 0.68393 0.66696 0.91045 0.0
O2307 O 0.68794 0.67392 0.91883 0.0
H2308 H 0.68426 0.68572 0.90769 0.0
H2309 H 0.67525 0.69409 0.90375 0.0
H2310 H 0.68678 0.69732 0.8843 0.0
H2311 H 0.6958 0.68886 0.88829 0.0
H2312 H 0.72546 0.66771 0.89979 0.0
H2313 H 0.71313 0.66999 0.90323 0.0
H2314 H 0.72556 0.64895 0.91286 0.0
H2315 H 0.71336 0.65135 0.91635 0.0
H2316 H 0.68335 0.65108 0.9325 0.0
H2317 H 0.66366 0.66238 0.92977 0.0
H2318 H 0.66934 0.67022 0.92122 0.0
H2319 H 0.68903 0.65906 0.92395 0.0
C2320 C 0.57697 0.44108 0.148 0.0
C2321 C 0.5754 0.43526 0.15233 0.0
C2322 C 0.5675 0.43053 0.14333 0.0
C2323 C 0.5707 0.43006 0.15003 0.0
C2324 C 0.56907 0.43638 0.13901 0.0
C2325 C 0.57376 0.44163 0.14134 0.0
U2326 U 0.59241 0.44544 0.15967 0.0
O2327 O 0.60233 0.45119 0.15777 0.0
O2328 O 0.59504 0.45481 0.16607 0.0
C2329 C 0.60081 0.45614 0.16242 0.0
C2330 C 0.58221 0.44635 0.15032 0.0
C2331 C 0.60185 0.46357 0.16021 0.0
C2332 C 0.60472 0.47244 0.15132 0.0
C2333 C 0.60319 0.46542 0.15314 0.0
C2334 C 0.60338 0.47589 0.16357 0.0
C2335 C 0.60492 0.47775 0.15654 0.0
C2336 C 0.60189 0.46888 0.16538 0.0
C2337 C 0.59866 0.43008 0.17155 0.0
C2338 C 0.60898 0.43038 0.17921 0.0
C2339 C 0.60192 0.41972 0.17837 0.0
C2340 C 0.5974 0.42309 0.1736 0.0
C2341 C 0.60781 0.42329 0.18116 0.0
C2342 C 0.60444 0.43375 0.17441 0.0
C2343 C 0.59399 0.43331 0.16625 0.0
O2344 O 0.58154 0.44851 0.1569 0.0
O2345 O 0.58878 0.44484 0.14862 0.0
O2346 O 0.59694 0.43474 0.16013 0.0
O2347 O 0.58978 0.43835 0.16852 0.0
H2348 H 0.5779 0.43468 0.15745 0.0
H2349 H 0.56972 0.42555 0.15343 0.0
H2350 H 0.56668 0.4369 0.13383 0.0
H2351 H 0.57495 0.44606 0.13792 0.0
H2352 H 0.60594 0.47366 0.14587 0.0
H2353 H 0.60321 0.46144 0.14902 0.0
H2354 H 0.60335 0.47985 0.16771 0.0
H2355 H 0.60088 0.46759 0.17087 0.0
H2356 H 0.6135 0.43326 0.18125 0.0
H2357 H 0.60079 0.4143 0.17986 0.0
H2358 H 0.59294 0.42019 0.17146 0.0
H2359 H 0.60549 0.43917 0.17286 0.0
C2360 C 0.82278 0.32856 0.39756 0.0
C2361 C 0.82844 0.32638 0.40185 0.0
C2362 C 0.83346 0.31968 0.39208 0.0
C2363 C 0.8337 0.32196 0.39915 0.0
C2364 C 0.82775 0.32182 0.38781 0.0
C2365 C 0.82245 0.32622 0.39054 0.0
U2366 U 0.81805 0.34298 0.41046 0.0
O2367 O 0.81229 0.35301 0.40908 0.0
O2368 O 0.80846 0.3451 0.41667 0.0
C2369 C 0.80726 0.35118 0.41351 0.0
C2370 C 0.8175 0.33359 0.40027 0.0
C2371 C 0.79999 0.35234 0.41104 0.0
C2372 C 0.78967 0.34879 0.40424 0.0
C2373 C 0.79668 0.34763 0.40635 0.0
C2374 C 0.78928 0.35941 0.41141 0.0
C2375 C 0.78587 0.35467 0.40679 0.0
C2376 C 0.79626 0.35824 0.41352 0.0
C2377 C 0.83255 0.34863 0.42344 0.0
C2378 C 0.83197 0.3592 0.43073 0.0
C2379 C 0.84166 0.35093 0.43217 0.0
C2380 C 0.8388 0.34665 0.42687 0.0
C2381 C 0.83831 0.35729 0.43412 0.0
C2382 C 0.82909 0.35489 0.42544 0.0
C2383 C 0.82986 0.34421 0.41765 0.0
O2384 O 0.81521 0.33234 0.40672 0.0
O2385 O 0.81901 0.34028 0.39918 0.0
O2386 O 0.82867 0.34752 0.41165 0.0
O2387 O 0.82484 0.33972 0.41934 0.0
H2388 H 0.82886 0.32822 0.40726 0.0
H2389 H 0.83808 0.3205 0.40254 0.0
H2390 H 0.8274 0.32013 0.38235 0.0
H2391 H 0.81815 0.32788 0.38714 0.0
H2392 H 0.78719 0.34502 0.40072 0.0
H2393 H 0.79949 0.34304 0.40438 0.0
H2394 H 0.78657 0.36406 0.41338 0.0
H2395 H 0.79875 0.36194 0.41711 0.0
H2396 H 0.82923 0.36403 0.43216 0.0
H2397 H 0.84661 0.34935 0.43459 0.0
H2398 H 0.84154 0.34184 0.42537 0.0
H2399 H 0.82423 0.35648 0.42285 0.0
C2400 C 0.93499 0.44056 0.86628 0.0
C2401 C 0.9353 0.43403 0.86276 0.0
C2402 C 0.94312 0.42935 0.87185 0.0
C2403 C 0.93933 0.42849 0.86551 0.0
C2404 C 0.94297 0.43597 0.87526 0.0
C2405 C 0.9389 0.44153 0.8725 0.0
U2406 U 0.92105 0.44579 0.85327 0.0
O2407 O 0.91103 0.4516 0.85445 0.0
O2408 O 0.91914 0.45546 0.84709 0.0
C2409 C 0.91297 0.45664 0.85008 0.0
C2410 C 0.93026 0.44613 0.86362 0.0
C2411 C 0.91169 0.46391 0.85251 0.0
C2412 C 0.91472 0.47414 0.85968 0.0
C2413 C 0.91603 0.46715 0.85758 0.0
C2414 C 0.9047 0.47464 0.85171 0.0
C2415 C 0.90906 0.47799 0.85673 0.0
C2416 C 0.90601 0.46768 0.84963 0.0
C2417 C 0.91557 0.43128 0.84017 0.0
C2418 C 0.90506 0.43165 0.83278 0.0
C2419 C 0.91363 0.42223 0.83129 0.0
C2420 C 0.91777 0.42514 0.83666 0.0
C2421 C 0.90719 0.42541 0.82932 0.0
C2422 C 0.90923 0.43458 0.83815 0.0
C2423 C 0.91986 0.43399 0.84604 0.0
O2424 O 0.93169 0.4484 0.8572 0.0
O2425 O 0.9235 0.44484 0.86459 0.0
O2426 O 0.91644 0.43521 0.85196 0.0
O2427 O 0.9244 0.43899 0.84442 0.0
H2428 H 0.93231 0.43319 0.85795 0.0
H2429 H 0.93942 0.4235 0.8627 0.0
H2430 H 0.9458 0.43677 0.88017 0.0
H2431 H 0.9387 0.44653 0.8753 0.0
H2432 H 0.91821 0.47658 0.86351 0.0
H2433 H 0.92045 0.46429 0.85986 0.0
H2434 H 0.90022 0.47739 0.84943 0.0
H2435 H 0.90259 0.46524 0.84573 0.0
H2436 H 0.90017 0.43426 0.83134 0.0
H2437 H 0.91538 0.41736 0.82881 0.0
H2438 H 0.92264 0.42252 0.83817 0.0
H2439 H 0.90747 0.43935 0.84079 0.0
C2440 C 0.82347 0.68477 0.11613 0.0
C2441 C 0.82949 0.68643 0.11213 0.0
C2442 C 0.83389 0.69396 0.1216 0.0
C2443 C 0.83463 0.69099 0.11482 0.0
C2444 C 0.82782 0.69232 0.12558 0.0
C2445 C 0.82264 0.68777 0.12285 0.0
U2446 U 0.81899 0.6706 0.10294 0.0
O2447 O 0.81357 0.66036 0.10406 0.0
O2448 O 0.80941 0.66838 0.09676 0.0
C2449 C 0.80843 0.66217 0.09974 0.0
C2450 C 0.81827 0.67967 0.11341 0.0
C2451 C 0.80122 0.66072 0.10223 0.0
C2452 C 0.79079 0.66387 0.10904 0.0
C2453 C 0.79776 0.66526 0.10698 0.0
C2454 C 0.79074 0.65334 0.10173 0.0
C2455 C 0.78717 0.65792 0.10638 0.0
C2456 C 0.79769 0.65474 0.09967 0.0
C2457 C 0.83362 0.66609 0.08957 0.0
C2458 C 0.83382 0.65576 0.08191 0.0
C2459 C 0.84253 0.66503 0.08041 0.0
C2460 C 0.83948 0.66881 0.08597 0.0
C2461 C 0.83977 0.65844 0.07834 0.0
C2462 C 0.83075 0.65957 0.08747 0.0
C2463 C 0.83074 0.67008 0.09558 0.0
O2464 O 0.81584 0.68103 0.10704 0.0
O2465 O 0.82002 0.673 0.11428 0.0
O2466 O 0.82973 0.66645 0.10142 0.0
O2467 O 0.82553 0.67444 0.09411 0.0
H2468 H 0.83026 0.68409 0.10695 0.0
H2469 H 0.8393 0.69202 0.11167 0.0
H2470 H 0.82707 0.69456 0.13079 0.0
H2471 H 0.81804 0.68652 0.12603 0.0
H2472 H 0.78818 0.66753 0.11259 0.0
H2473 H 0.80043 0.66991 0.109 0.0
H2474 H 0.78817 0.64865 0.09968 0.0
H2475 H 0.8003 0.65116 0.09604 0.0
H2476 H 0.83153 0.65072 0.0804 0.0
H2477 H 0.84718 0.6672 0.07786 0.0
H2478 H 0.84178 0.67383 0.08753 0.0
H2479 H 0.82619 0.6574 0.09018 0.0
C2480 C 0.57848 0.57415 0.36605 0.0
C2481 C 0.57708 0.57995 0.36164 0.0
C2482 C 0.56943 0.5851 0.37062 0.0
C2483 C 0.57258 0.58536 0.36389 0.0
C2484 C 0.57088 0.57929 0.37504 0.0
C2485 C 0.57535 0.57384 0.37275 0.0
U2486 U 0.59309 0.56836 0.35383 0.0
O2487 O 0.60269 0.56205 0.35557 0.0
O2488 O 0.59477 0.55852 0.34784 0.0
C2489 C 0.60062 0.55698 0.35127 0.0
C2490 C 0.58337 0.56856 0.36371 0.0
C2491 C 0.6013 0.5496 0.35383 0.0
C2492 C 0.60521 0.541 0.36259 0.0
C2493 C 0.60401 0.54802 0.36057 0.0
C2494 C 0.60083 0.537 0.35125 0.0
C2495 C 0.60372 0.5354 0.35791 0.0
C2496 C 0.59967 0.54401 0.34923 0.0
C2497 C 0.59982 0.58242 0.34059 0.0
C2498 C 0.60926 0.59021 0.33661 0.0
C2499 C 0.60248 0.58355 0.32804 0.0
C2500 C 0.59851 0.58054 0.33351 0.0
C2501 C 0.60784 0.58848 0.32953 0.0
C2502 C 0.60527 0.58724 0.34207 0.0
C2503 C 0.59521 0.5799 0.3464 0.0
O2504 O 0.58222 0.56614 0.35729 0.0
O2505 O 0.59008 0.56981 0.36499 0.0
O2506 O 0.59831 0.57867 0.35249 0.0
O2507 O 0.59038 0.57516 0.34479 0.0
H2508 H 0.57952 0.58033 0.35647 0.0
H2509 H 0.57169 0.58982 0.36041 0.0
H2510 H 0.56851 0.57893 0.38024 0.0
H2511 H 0.57641 0.56941 0.37624 0.0
H2512 H 0.60751 0.53997 0.36773 0.0
H2513 H 0.60537 0.55221 0.36424 0.0
H2514 H 0.59951 0.53282 0.34756 0.0
H2515 H 0.5976 0.54507 0.34399 0.0
H2516 H 0.61327 0.59408 0.33794 0.0
H2517 H 0.6013 0.58207 0.32264 0.0
H2518 H 0.59432 0.57688 0.33216 0.0
H2519 H 0.60634 0.58886 0.34746 0.0
C2520 C 0.6892 0.32841 0.61571 0.0
C2521 C 0.68327 0.32742 0.61137 0.0
C2522 C 0.67771 0.32014 0.6204 0.0
C2523 C 0.6776 0.3233 0.61367 0.0
C2524 C 0.68373 0.32103 0.62469 0.0
C2525 C 0.68943 0.32516 0.62236 0.0
U2526 U 0.69521 0.34225 0.60293 0.0
O2527 O 0.70126 0.3521 0.60419 0.0
O2528 O 0.70514 0.34378 0.59705 0.0
C2529 C 0.70645 0.34989 0.60011 0.0
C2530 C 0.69493 0.33311 0.61335 0.0
C2531 C 0.71373 0.35089 0.60276 0.0
C2532 C 0.72209 0.35378 0.61211 0.0
C2533 C 0.71516 0.35237 0.6099 0.0
C2534 C 0.72625 0.35206 0.60013 0.0
C2535 C 0.7277 0.35368 0.60724 0.0
C2536 C 0.71934 0.3507 0.59792 0.0
C2537 C 0.68122 0.34769 0.58914 0.0
C2538 C 0.68139 0.35823 0.58178 0.0
C2539 C 0.6727 0.34905 0.57965 0.0
C2540 C 0.67551 0.3451 0.58521 0.0
C2541 C 0.67556 0.3557 0.5779 0.0
C2542 C 0.68422 0.35424 0.58735 0.0
C2543 C 0.68375 0.34355 0.59522 0.0
O2544 O 0.69753 0.33163 0.60708 0.0
O2545 O 0.69365 0.3399 0.61422 0.0
O2546 O 0.68483 0.34711 0.60109 0.0
O2547 O 0.68871 0.33887 0.59388 0.0
H2548 H 0.68299 0.3299 0.60621 0.0
H2549 H 0.67312 0.32263 0.61018 0.0
H2550 H 0.68395 0.31871 0.62992 0.0
H2551 H 0.69395 0.32591 0.62579 0.0
H2552 H 0.72305 0.35494 0.61763 0.0
H2553 H 0.71094 0.35253 0.61376 0.0
H2554 H 0.73044 0.35203 0.59623 0.0
H2555 H 0.71835 0.34962 0.59238 0.0
H2556 H 0.68374 0.3633 0.58053 0.0
H2557 H 0.66814 0.34699 0.57687 0.0
H2558 H 0.67312 0.34006 0.58654 0.0
H2559 H 0.68866 0.35631 0.59031 0.0
C2560 C 0.64839 0.93649 0.57342 0.0
C2561 C 0.65328 0.93852 0.57863 0.0
C2562 C 0.64417 0.94522 0.58478 0.0
C2563 C 0.6512 0.94287 0.58421 0.0
C2564 C 0.63932 0.94333 0.57946 0.0
C2565 C 0.64142 0.93898 0.57383 0.0
U2566 U 0.65975 0.92106 0.56849 0.0
O2567 O 0.65764 0.9112 0.5627 0.0
O2568 O 0.66593 0.91845 0.55899 0.0
C2569 C 0.6622 0.91273 0.55767 0.0
C2570 C 0.65046 0.93133 0.56796 0.0
C2571 C 0.65981 0.9118 0.55027 0.0
C2572 C 0.65094 0.90833 0.5416 0.0
C2573 C 0.65286 0.90971 0.54861 0.0
C2574 C 0.66279 0.91127 0.53778 0.0
C2575 C 0.6559 0.90901 0.5361 0.0
C2576 C 0.66472 0.91261 0.54478 0.0
C2577 C 0.67194 0.9147 0.58359 0.0
C2578 C 0.67963 0.9044 0.58318 0.0
C2579 C 0.67881 0.91139 0.59389 0.0
C2580 C 0.67403 0.91593 0.59058 0.0
C2581 C 0.6816 0.90552 0.59027 0.0
C2582 C 0.6748 0.90895 0.57987 0.0
C2583 C 0.6666 0.91938 0.58045 0.0
O2584 O 0.65695 0.93197 0.56556 0.0
O2585 O 0.64873 0.92474 0.5694 0.0
O2586 O 0.66044 0.91645 0.57913 0.0
O2587 O 0.66879 0.92359 0.57538 0.0
H2588 H 0.65868 0.93661 0.57847 0.0
H2589 H 0.65511 0.94432 0.58813 0.0
H2590 H 0.63385 0.94499 0.57977 0.0
H2591 H 0.63756 0.93742 0.5699 0.0
H2592 H 0.64561 0.90654 0.54051 0.0
H2593 H 0.64895 0.90899 0.55273 0.0
H2594 H 0.66672 0.91198 0.53368 0.0
H2595 H 0.67011 0.91419 0.54591 0.0
H2596 H 0.68166 0.8999 0.58027 0.0
H2597 H 0.68032 0.91248 0.5993 0.0
H2598 H 0.67189 0.92036 0.59352 0.0
H2599 H 0.67322 0.90794 0.57446 0.0
C2600 C 0.14558 0.58052 0.43896 0.0
C2601 C 0.1416 0.58326 0.4333 0.0
C2602 C 0.14005 0.57144 0.42842 0.0
C2603 C 0.13887 0.57878 0.42811 0.0
C2604 C 0.1439 0.56867 0.43415 0.0
C2605 C 0.14661 0.57317 0.43938 0.0
U2606 U 0.15939 0.5942 0.44411 0.0
O2607 O 0.15845 0.60419 0.45001 0.0
O2608 O 0.16554 0.59581 0.45384 0.0
C2609 C 0.16265 0.60201 0.45511 0.0
C2610 C 0.14877 0.58529 0.44433 0.0
C2611 C 0.16003 0.60319 0.46233 0.0
C2612 C 0.15394 0.59922 0.47293 0.0
C2613 C 0.15628 0.59795 0.46602 0.0
C2614 C 0.15898 0.611 0.47247 0.0
C2615 C 0.15527 0.60577 0.47623 0.0
C2616 C 0.16133 0.60972 0.46559 0.0
C2617 C 0.17264 0.59973 0.42984 0.0
C2618 C 0.18015 0.61014 0.43058 0.0
C2619 C 0.18164 0.60182 0.42095 0.0
C2620 C 0.17619 0.59766 0.42369 0.0
C2621 C 0.18364 0.60814 0.42432 0.0
C2622 C 0.1747 0.60595 0.43334 0.0
C2623 C 0.16668 0.59545 0.43238 0.0
O2624 O 0.15516 0.58359 0.4465 0.0
O2625 O 0.148 0.59211 0.44322 0.0
O2626 O 0.1608 0.59894 0.43361 0.0
O2627 O 0.16819 0.59077 0.43729 0.0
H2628 H 0.14066 0.58889 0.4328 0.0
H2629 H 0.13601 0.5811 0.42372 0.0
H2630 H 0.14483 0.56304 0.43459 0.0
H2631 H 0.14959 0.57089 0.44371 0.0
H2632 H 0.15105 0.59511 0.47567 0.0
H2633 H 0.15517 0.5929 0.46357 0.0
H2634 H 0.16017 0.61606 0.47488 0.0
H2635 H 0.16422 0.61382 0.46282 0.0
H2636 H 0.18161 0.61494 0.43334 0.0
H2637 H 0.18414 0.60018 0.41607 0.0
H2638 H 0.17465 0.59288 0.42092 0.0
H2639 H 0.17204 0.6076 0.43813 0.0
C2640 C 0.68474 0.89743 0.68969 0.0
C2641 C 0.6861 0.9014 0.68357 0.0
C2642 C 0.69365 0.892 0.67902 0.0
C2643 C 0.69052 0.89872 0.6783 0.0
C2644 C 0.69229 0.88806 0.68519 0.0
C2645 C 0.68788 0.89076 0.69048 0.0
U2646 U 0.67092 0.91076 0.6951 0.0
O2647 O 0.66098 0.90967 0.70101 0.0
O2648 O 0.66933 0.9167 0.70499 0.0
C2649 C 0.66318 0.91371 0.70623 0.0
C2650 C 0.67988 0.90016 0.69511 0.0
C2651 C 0.66208 0.91104 0.71348 0.0
C2652 C 0.65926 0.9016 0.72177 0.0
C2653 C 0.6607 0.90386 0.71487 0.0
C2654 C 0.66073 0.91361 0.72599 0.0
C2655 C 0.65923 0.90646 0.7274 0.0
C2656 C 0.66212 0.91587 0.7191 0.0
C2657 C 0.66577 0.92467 0.68118 0.0
C2658 C 0.65502 0.93174 0.6809 0.0
C2659 C 0.66488 0.93478 0.67332 0.0
C2660 C 0.66874 0.9291 0.67605 0.0
C2661 C 0.65795 0.93613 0.67565 0.0
C2662 C 0.65891 0.92607 0.68367 0.0
C2663 C 0.66984 0.91852 0.68364 0.0
O2664 O 0.68144 0.90647 0.69758 0.0
O2665 O 0.67313 0.89942 0.69363 0.0
O2666 O 0.66624 0.91265 0.68464 0.0
O2667 O 0.67451 0.91976 0.68863 0.0
H2668 H 0.68366 0.90654 0.68284 0.0
H2669 H 0.69135 0.90185 0.67357 0.0
H2670 H 0.69465 0.88289 0.68592 0.0
H2671 H 0.68687 0.88763 0.69516 0.0
H2672 H 0.65819 0.89605 0.7227 0.0
H2673 H 0.66066 0.90001 0.71063 0.0
H2674 H 0.66066 0.9175 0.7302 0.0
H2675 H 0.66313 0.92143 0.71815 0.0
H2676 H 0.64972 0.93268 0.68285 0.0
H2677 H 0.66726 0.93798 0.66921 0.0
H2678 H 0.67402 0.92809 0.67406 0.0
H2679 H 0.65654 0.92273 0.68767 0.0
C2680 C 0.36566 0.43567 0.9404 0.0
C2681 C 0.36135 0.43791 0.93479 0.0
C2682 C 0.37109 0.44474 0.92987 0.0
C2683 C 0.36403 0.44242 0.9296 0.0
C2684 C 0.37538 0.44253 0.93554 0.0
C2685 C 0.37267 0.43803 0.94077 0.0
U2686 U 0.3528 0.42115 0.94491 0.0
O2687 O 0.35422 0.41098 0.95042 0.0
O2688 O 0.34664 0.4188 0.95446 0.0
C2689 C 0.34979 0.41269 0.95549 0.0
C2690 C 0.36298 0.43053 0.9456 0.0
C2691 C 0.3522 0.41127 0.96274 0.0
C2692 C 0.35814 0.4148 0.97358 0.0
C2693 C 0.3562 0.41621 0.96657 0.0
C2694 C 0.35222 0.40346 0.97292 0.0
C2695 C 0.3561 0.40843 0.97686 0.0
C2696 C 0.35028 0.40487 0.96594 0.0
C2697 C 0.33974 0.41576 0.9304 0.0
C2698 C 0.33251 0.40515 0.93085 0.0
C2699 C 0.3309 0.41361 0.92136 0.0
C2700 C 0.33621 0.41785 0.92424 0.0
C2701 C 0.32902 0.40717 0.92459 0.0
C2702 C 0.33781 0.40942 0.93375 0.0
C2703 C 0.34554 0.42016 0.93312 0.0
O2704 O 0.35655 0.43173 0.94795 0.0
O2705 O 0.36408 0.42387 0.94394 0.0
O2706 O 0.35155 0.41684 0.9342 0.0
O2707 O 0.34387 0.42455 0.93824 0.0
H2708 H 0.35595 0.43605 0.93434 0.0
H2709 H 0.36063 0.44393 0.92524 0.0
H2710 H 0.38083 0.44425 0.93592 0.0
H2711 H 0.37609 0.43632 0.94504 0.0
H2712 H 0.36109 0.41876 0.97648 0.0
H2713 H 0.35774 0.42118 0.96417 0.0
H2714 H 0.35068 0.39844 0.97522 0.0
H2715 H 0.34723 0.40098 0.96305 0.0
H2716 H 0.33114 0.40026 0.9335 0.0
H2717 H 0.3284 0.41527 0.91648 0.0
H2718 H 0.33765 0.42273 0.92159 0.0
H2719 H 0.34047 0.40775 0.93854 0.0
C2720 C 0.3284 0.6157 0.69005 0.0
C2721 C 0.32807 0.61223 0.6835 0.0
C2722 C 0.32012 0.62128 0.67896 0.0
C2723 C 0.32397 0.61497 0.67802 0.0
C2724 C 0.32027 0.62463 0.6856 0.0
C2725 C 0.32441 0.62187 0.6911 0.0
U2726 U 0.34306 0.6033 0.6948 0.0
O2727 O 0.3531 0.60492 0.70044 0.0
O2728 O 0.34549 0.59704 0.70429 0.0
C2729 C 0.35146 0.60042 0.70546 0.0
C2730 C 0.33329 0.61312 0.69551 0.0
C2731 C 0.35263 0.60293 0.71273 0.0
C2732 C 0.34862 0.60873 0.72347 0.0
C2733 C 0.34732 0.60643 0.71655 0.0
C2734 C 0.36056 0.60414 0.72275 0.0
C2735 C 0.35527 0.60762 0.72664 0.0
C2736 C 0.35925 0.60182 0.71586 0.0
C2737 C 0.34905 0.59115 0.67957 0.0
C2738 C 0.3591 0.58314 0.68003 0.0
C2739 C 0.35238 0.58442 0.66919 0.0
C2740 C 0.34792 0.58926 0.67251 0.0
C2741 C 0.35808 0.58136 0.67287 0.0
C2742 C 0.35462 0.58803 0.68335 0.0
C2743 C 0.34449 0.59658 0.68273 0.0
O2744 O 0.33223 0.60656 0.69759 0.0
O2745 O 0.33997 0.6145 0.69422 0.0
O2746 O 0.34758 0.60264 0.68412 0.0
O2747 O 0.34022 0.59445 0.68778 0.0
H2748 H 0.33113 0.60746 0.68259 0.0
H2749 H 0.32388 0.61221 0.67301 0.0
H2750 H 0.3174 0.62951 0.68646 0.0
H2751 H 0.32464 0.62464 0.69611 0.0
H2752 H 0.34446 0.61145 0.72631 0.0
H2753 H 0.34219 0.60738 0.71419 0.0
H2754 H 0.3657 0.60311 0.72506 0.0
H2755 H 0.36341 0.59912 0.71299 0.0
H2756 H 0.36346 0.5809 0.68299 0.0
H2757 H 0.35138 0.58307 0.66371 0.0
H2758 H 0.34363 0.59161 0.66952 0.0
H2759 H 0.35556 0.58945 0.68882 0.0
C2760 C 0.86548 0.07895 0.07349 0.0
C2761 C 0.86103 0.07739 0.07921 0.0
C2762 C 0.8699 0.06943 0.0841 0.0
C2763 C 0.86321 0.07266 0.08445 0.0
C2764 C 0.87433 0.07097 0.07833 0.0
C2765 C 0.87213 0.0757 0.07306 0.0
U2766 U 0.85347 0.09399 0.06845 0.0
O2767 O 0.85558 0.10413 0.06311 0.0
O2768 O 0.84792 0.09665 0.0586 0.0
C2769 C 0.85143 0.1026 0.05775 0.0
C2770 C 0.86332 0.08423 0.0682 0.0
C2771 C 0.85441 0.10383 0.05068 0.0
C2772 C 0.86003 0.09961 0.03991 0.0
C2773 C 0.85756 0.09835 0.04678 0.0
C2774 C 0.85639 0.11186 0.04087 0.0
C2775 C 0.85943 0.10638 0.03687 0.0
C2776 C 0.8539 0.11059 0.0477 0.0
C2777 C 0.83979 0.09959 0.08237 0.0
C2778 C 0.83311 0.11058 0.08222 0.0
C2779 C 0.83029 0.10147 0.09078 0.0
C2780 C 0.83564 0.09719 0.08801 0.0
C2781 C 0.829 0.10824 0.08797 0.0
C2782 C 0.83845 0.10627 0.07943 0.0
C2783 C 0.84561 0.0951 0.07983 0.0
O2784 O 0.85698 0.0833 0.06549 0.0
O2785 O 0.86456 0.09083 0.07001 0.0
O2786 O 0.85176 0.09826 0.07911 0.0
O2787 O 0.84407 0.09084 0.07456 0.0
H2788 H 0.85592 0.07993 0.07968 0.0
H2789 H 0.85972 0.07169 0.08888 0.0
H2790 H 0.8795 0.06854 0.07789 0.0
H2791 H 0.87565 0.07687 0.0687 0.0
H2792 H 0.86241 0.09529 0.037 0.0
H2793 H 0.85804 0.09309 0.04901 0.0
H2794 H 0.85576 0.11711 0.03865 0.0
H2795 H 0.85147 0.11488 0.05063 0.0
H2796 H 0.8322 0.11574 0.0799 0.0
H2797 H 0.82731 0.09955 0.09527 0.0
H2798 H 0.83662 0.09205 0.09035 0.0
H2799 H 0.84159 0.10819 0.07504 0.0
C2800 C 0.68454 0.11635 0.82287 0.0
C2801 C 0.68634 0.11216 0.82872 0.0
C2802 C 0.69374 0.12161 0.83338 0.0
C2803 C 0.69092 0.11475 0.8339 0.0
C2804 C 0.69199 0.12577 0.82746 0.0
C2805 C 0.68743 0.12315 0.82224 0.0
U2806 U 0.66952 0.10403 0.81868 0.0
O2807 O 0.65932 0.10583 0.81335 0.0
O2808 O 0.66673 0.0979 0.80921 0.0
C2809 C 0.66077 0.10136 0.80823 0.0
C2810 C 0.67928 0.11383 0.81772 0.0
C2811 C 0.65948 0.10397 0.80103 0.0
C2812 C 0.66343 0.10975 0.79025 0.0
C2813 C 0.66476 0.10749 0.79718 0.0
C2814 C 0.65151 0.10513 0.79104 0.0
C2815 C 0.65679 0.10858 0.7871 0.0
C2816 C 0.65285 0.10285 0.79793 0.0
C2817 C 0.66405 0.09151 0.83373 0.0
C2818 C 0.65364 0.08396 0.83355 0.0
C2819 C 0.66137 0.08402 0.84377 0.0
C2820 C 0.66573 0.08896 0.84047 0.0
C2821 C 0.65522 0.08154 0.8404 0.0
C2822 C 0.65803 0.08894 0.83024 0.0
C2823 C 0.66852 0.09704 0.83062 0.0
O2824 O 0.6802 0.10731 0.81545 0.0
O2825 O 0.67269 0.11521 0.81943 0.0
O2826 O 0.66538 0.10313 0.82948 0.0
O2827 O 0.67264 0.09505 0.82539 0.0
H2828 H 0.68408 0.10693 0.82935 0.0
H2829 H 0.69205 0.11145 0.83845 0.0
H2830 H 0.69411 0.13106 0.82688 0.0
H2831 H 0.68606 0.12648 0.81778 0.0
H2832 H 0.66758 0.11246 0.78738 0.0
H2833 H 0.6699 0.10845 0.79951 0.0
H2834 H 0.64637 0.10406 0.78874 0.0
H2835 H 0.64872 0.10013 0.80082 0.0
H2836 H 0.64893 0.08218 0.83083 0.0
H2837 H 0.6628 0.08216 0.849 0.0
H2838 H 0.67038 0.09087 0.84322 0.0
H2839 H 0.65666 0.09087 0.82502 0.0
C2840 C 0.82917 0.89883 0.32323 0.0
C2841 C 0.8292 0.90212 0.32987 0.0
C2842 C 0.82106 0.89325 0.33443 0.0
C2843 C 0.82518 0.89937 0.33541 0.0
C2844 C 0.8209 0.89007 0.3277 0.0
C2845 C 0.82495 0.89284 0.32215 0.0
U2846 U 0.84361 0.91131 0.31781 0.0
O2847 O 0.85324 0.90975 0.31148 0.0
O2848 O 0.84538 0.91768 0.30824 0.0
C2849 C 0.85132 0.9144 0.30669 0.0
C2850 C 0.83382 0.90149 0.3176 0.0
C2851 C 0.85219 0.91218 0.29931 0.0
C2852 C 0.84883 0.90508 0.28914 0.0
C2853 C 0.84777 0.9071 0.29619 0.0
C2854 C 0.85872 0.91318 0.28832 0.0
C2855 C 0.8543 0.90812 0.28511 0.0
C2856 C 0.85766 0.91519 0.29534 0.0
C2857 C 0.85088 0.92359 0.33235 0.0
C2858 C 0.86004 0.92705 0.34068 0.0
C2859 C 0.85505 0.93577 0.33275 0.0
C2860 C 0.85066 0.93058 0.32981 0.0
C2861 C 0.85976 0.93407 0.33824 0.0
C2862 C 0.85563 0.92188 0.33779 0.0
C2863 C 0.84601 0.91807 0.32969 0.0
O2864 O 0.83264 0.90807 0.31565 0.0
O2865 O 0.84056 0.9001 0.31854 0.0
O2866 O 0.84891 0.91194 0.32815 0.0
O2867 O 0.84117 0.92004 0.32509 0.0
H2868 H 0.83243 0.90676 0.3308 0.0
H2869 H 0.82534 0.90202 0.34049 0.0
H2870 H 0.81783 0.88532 0.3268 0.0
H2871 H 0.82489 0.89022 0.31705 0.0
H2872 H 0.8453 0.90121 0.28682 0.0
H2873 H 0.84353 0.90472 0.29921 0.0
H2874 H 0.86306 0.91554 0.28543 0.0
H2875 H 0.86115 0.91909 0.29768 0.0
H2876 H 0.86353 0.92558 0.34498 0.0
H2877 H 0.85474 0.94113 0.33073 0.0
H2878 H 0.84705 0.93208 0.32563 0.0
H2879 H 0.85585 0.91655 0.33989 0.0
C2880 C 0.44094 0.36669 0.07662 0.0
C2881 C 0.43523 0.36245 0.07452 0.0
C2882 C 0.43035 0.3722 0.06767 0.0
C2883 C 0.43001 0.36516 0.07006 0.0
C2884 C 0.4361 0.37643 0.06977 0.0
C2885 C 0.44137 0.37368 0.0742 0.0
U2886 U 0.4457 0.35368 0.09094 0.0
O2887 O 0.45529 0.34735 0.09286 0.0
O2888 O 0.45156 0.35487 0.1009 0.0
C2889 C 0.45662 0.35052 0.09891 0.0
C2890 C 0.44624 0.36393 0.08162 0.0
C2891 C 0.464 0.35288 0.10001 0.0
C2892 C 0.47263 0.3617 0.1037 0.0
C2893 C 0.46564 0.35981 0.10218 0.0
C2894 C 0.47648 0.34985 0.10076 0.0
C2895 C 0.47813 0.35672 0.1031 0.0
C2896 C 0.4695 0.34795 0.09927 0.0
C2897 C 0.43102 0.34074 0.09645 0.0
C2898 C 0.43104 0.33358 0.10712 0.0
C2899 C 0.42194 0.33186 0.09826 0.0
C2900 C 0.42498 0.33716 0.09411 0.0
C2901 C 0.42489 0.33005 0.10484 0.0
C2902 C 0.4341 0.33887 0.10294 0.0
C2903 C 0.43384 0.34657 0.09215 0.0
O2904 O 0.44476 0.365 0.08832 0.0
O2905 O 0.4485 0.35748 0.08032 0.0
O2906 O 0.43884 0.34487 0.08763 0.0
O2907 O 0.43511 0.3525 0.09554 0.0
H2908 H 0.43475 0.35706 0.07641 0.0
H2909 H 0.42558 0.36181 0.06865 0.0
H2910 H 0.43652 0.38186 0.06799 0.0
H2911 H 0.44572 0.37705 0.07581 0.0
H2912 H 0.47369 0.36702 0.10556 0.0
H2913 H 0.46151 0.36373 0.10282 0.0
H2914 H 0.48058 0.34591 0.1001 0.0
H2915 H 0.46838 0.34258 0.09762 0.0
H2916 H 0.43347 0.33226 0.11213 0.0
H2917 H 0.41716 0.32933 0.09639 0.0
H2918 H 0.42254 0.33855 0.08912 0.0
H2919 H 0.43879 0.34157 0.10482 0.0
C2920 C 0.39719 0.69063 0.82909 0.0
C2921 C 0.39667 0.6837 0.8317 0.0
C2922 C 0.39316 0.6794 0.82009 0.0
C2923 C 0.39462 0.67817 0.82727 0.0
C2924 C 0.39352 0.68638 0.81751 0.0
C2925 C 0.39553 0.69195 0.82198 0.0
U2926 U 0.40985 0.69568 0.84335 0.0
O2927 O 0.4167 0.70493 0.84511 0.0
O2928 O 0.40879 0.70196 0.85307 0.0
C2929 C 0.41358 0.70659 0.8511 0.0
C2930 C 0.40001 0.69631 0.83364 0.0
C2931 C 0.4116 0.71406 0.85198 0.0
C2932 C 0.40475 0.72441 0.84863 0.0
C2933 C 0.40659 0.71731 0.84757 0.0
C2934 C 0.41289 0.72504 0.8585 0.0
C2935 C 0.40789 0.72837 0.8541 0.0
C2936 C 0.41473 0.71796 0.85743 0.0
C2937 C 0.42135 0.68003 0.84971 0.0
C2938 C 0.42945 0.68022 0.85968 0.0
C2939 C 0.42819 0.66958 0.85263 0.0
C2940 C 0.42327 0.67301 0.84834 0.0
C2941 C 0.43128 0.67311 0.85841 0.0
C2942 C 0.4245 0.68366 0.85536 0.0
C2943 C 0.41594 0.68333 0.84523 0.0
O2944 O 0.39861 0.69565 0.84042 0.0
O2945 O 0.40662 0.69805 0.8324 0.0
O2946 O 0.41821 0.68804 0.84066 0.0
O2947 O 0.41008 0.68523 0.84844 0.0
H2948 H 0.39798 0.68251 0.83714 0.0
H2949 H 0.39426 0.67289 0.82948 0.0
H2950 H 0.39249 0.6875 0.81199 0.0
H2951 H 0.39597 0.69725 0.81985 0.0
H2952 H 0.40092 0.72683 0.84511 0.0
H2953 H 0.40412 0.71435 0.84333 0.0
H2954 H 0.41532 0.72787 0.86284 0.0
H2955 H 0.41857 0.71551 0.86091 0.0
H2956 H 0.43172 0.68306 0.8641 0.0
H2957 H 0.42958 0.66416 0.85142 0.0
H2958 H 0.42091 0.67015 0.84397 0.0
H2959 H 0.42306 0.68909 0.85648 0.0
C2960 C 0.07342 0.64882 0.57783 0.0
C2961 C 0.07964 0.65281 0.57718 0.0
C2962 C 0.08483 0.64372 0.56969 0.0
C2963 C 0.08528 0.65029 0.57315 0.0
C2964 C 0.0785 0.63983 0.57017 0.0
C2965 C 0.07284 0.64236 0.57424 0.0
U2966 U 0.06774 0.6615 0.59194 0.0
O2967 O 0.05782 0.66719 0.59403 0.0
O2968 O 0.06212 0.6599 0.602 0.0
C2969 C 0.05681 0.66398 0.60012 0.0
C2970 C 0.0678 0.65123 0.58263 0.0
C2971 C 0.0497 0.66108 0.60137 0.0
C2972 C 0.03877 0.6557 0.59723 0.0
C2973 C 0.04563 0.65814 0.59589 0.0
C2974 C 0.04004 0.65894 0.60956 0.0
C2975 C 0.03589 0.6561 0.60408 0.0
C2976 C 0.04687 0.66141 0.60821 0.0
C2977 C 0.08183 0.67513 0.59742 0.0
C2978 C 0.08157 0.68226 0.60811 0.0
C2979 C 0.09067 0.68423 0.59931 0.0
C2980 C 0.08778 0.67887 0.59513 0.0
C2981 C 0.08765 0.68594 0.60589 0.0
C2982 C 0.07867 0.6769 0.60389 0.0
C2983 C 0.07922 0.66922 0.59311 0.0
O2984 O 0.0692 0.65025 0.58936 0.0
O2985 O 0.06523 0.65756 0.58128 0.0
O2986 O 0.07409 0.67071 0.58867 0.0
O2987 O 0.0783 0.6632 0.59646 0.0
H2988 H 0.08018 0.65781 0.57994 0.0
H2989 H 0.09003 0.65347 0.57279 0.0
H2990 H 0.07801 0.63473 0.56761 0.0
H2991 H 0.06809 0.6392 0.57471 0.0
H2992 H 0.03573 0.65348 0.59292 0.0
H2993 H 0.04774 0.65779 0.59058 0.0
H2994 H 0.03796 0.65942 0.61487 0.0
H2995 H 0.04992 0.66367 0.6125 0.0
H2996 H 0.07908 0.6835 0.61311 0.0
H2997 H 0.09541 0.68687 0.59749 0.0
H2998 H 0.0903 0.67755 0.59015 0.0
H2999 H 0.07404 0.67407 0.60573 0.0
C3000 C 0.11701 0.32413 0.32988 0.0
C3001 C 0.11668 0.3312 0.33211 0.0
C3002 C 0.1211 0.33519 0.3207 0.0
C3003 C 0.11875 0.33665 0.32761 0.0
C3004 C 0.12155 0.32808 0.31852 0.0
C3005 C 0.11951 0.32259 0.32307 0.0
U3006 U 0.10409 0.31889 0.34385 0.0
O3007 O 0.09748 0.30946 0.34547 0.0
O3008 O 0.10505 0.31271 0.35365 0.0
C3009 C 0.10045 0.30794 0.35157 0.0
C3010 C 0.11426 0.31846 0.33448 0.0
C3011 C 0.10254 0.30053 0.3526 0.0
C3012 C 0.1092 0.29006 0.34919 0.0
C3013 C 0.10736 0.29716 0.34807 0.0
C3014 C 0.10146 0.28969 0.35939 0.0
C3015 C 0.10623 0.28623 0.35485 0.0
C3016 C 0.09963 0.29676 0.35826 0.0
C3017 C 0.09162 0.33391 0.34968 0.0
C3018 C 0.08435 0.33405 0.36027 0.0
C3019 C 0.08265 0.34296 0.35121 0.0
C3020 C 0.08803 0.33988 0.34719 0.0
C3021 C 0.08077 0.34011 0.35781 0.0
C3022 C 0.08972 0.33095 0.35622 0.0
C3023 C 0.0974 0.33097 0.3454 0.0
O3024 O 0.11541 0.31936 0.34128 0.0
O3025 O 0.10776 0.31647 0.33306 0.0
O3026 O 0.09556 0.32618 0.34072 0.0
O3027 O 0.10324 0.32937 0.34882 0.0
H3028 H 0.1147 0.33253 0.33732 0.0
H3029 H 0.11846 0.34204 0.32953 0.0
H3030 H 0.12328 0.32676 0.31322 0.0
H3031 H 0.11974 0.31717 0.32123 0.0
H3032 H 0.11285 0.28754 0.34557 0.0
H3033 H 0.10967 0.30001 0.34367 0.0
H3034 H 0.09917 0.28696 0.36387 0.0
H3035 H 0.09594 0.2993 0.36183 0.0
H3036 H 0.08298 0.3317 0.3653 0.0
H3037 H 0.08009 0.34768 0.34921 0.0
H3038 H 0.08944 0.34224 0.34216 0.0
H3039 H 0.09242 0.3263 0.3582 0.0
C3040 C 0.4403 0.64766 0.43668 0.0
C3041 C 0.43402 0.65154 0.43729 0.0
C3042 C 0.42887 0.64229 0.44461 0.0
C3043 C 0.42837 0.6489 0.44122 0.0
C3044 C 0.43525 0.63848 0.44412 0.0
C3045 C 0.44092 0.64114 0.44017 0.0
U3046 U 0.44626 0.66069 0.42297 0.0
O3047 O 0.45614 0.66671 0.42163 0.0
O3048 O 0.45253 0.6595 0.41327 0.0
C3049 C 0.45762 0.66363 0.41557 0.0
C3050 C 0.44603 0.65028 0.43214 0.0
C3051 C 0.46494 0.66102 0.41474 0.0
C3052 C 0.47339 0.65173 0.41188 0.0
C3053 C 0.46643 0.6539 0.41318 0.0
C3054 C 0.47749 0.66369 0.41389 0.0
C3055 C 0.47899 0.65661 0.41217 0.0
C3056 C 0.47054 0.66587 0.41514 0.0
C3057 C 0.43218 0.67408 0.41689 0.0
C3058 C 0.43227 0.68088 0.40598 0.0
C3059 C 0.42368 0.68353 0.4151 0.0
C3060 C 0.42651 0.67817 0.41932 0.0
C3061 C 0.42646 0.68489 0.40834 0.0
C3062 C 0.43513 0.67552 0.41024 0.0
C3063 C 0.43467 0.66814 0.42126 0.0
O3064 O 0.44496 0.64936 0.42534 0.0
O3065 O 0.44834 0.65666 0.43369 0.0
O3066 O 0.43948 0.66967 0.42603 0.0
O3067 O 0.43594 0.6622 0.41787 0.0
H3068 H 0.43344 0.65659 0.43462 0.0
H3069 H 0.42358 0.65203 0.44158 0.0
H3070 H 0.43578 0.63335 0.44662 0.0
H3071 H 0.44573 0.63806 0.43973 0.0
H3072 H 0.47439 0.64622 0.41064 0.0
H3073 H 0.46222 0.65003 0.41286 0.0
H3074 H 0.48166 0.66761 0.41407 0.0
H3075 H 0.46951 0.6714 0.41628 0.0
H3076 H 0.43458 0.68184 0.40083 0.0
H3077 H 0.41915 0.68645 0.41704 0.0
H3078 H 0.42416 0.67712 0.42444 0.0
H3079 H 0.43954 0.67243 0.40829 0.0
C3080 C 0.11423 0.6913 0.18618 0.0
C3081 C 0.10945 0.68589 0.18789 0.0
C3082 C 0.11856 0.67976 0.1946 0.0
C3083 C 0.11158 0.68021 0.19209 0.0
C3084 C 0.1233 0.68529 0.19306 0.0
C3085 C 0.12115 0.69101 0.18885 0.0
U3086 U 0.10201 0.69659 0.17164 0.0
O3087 O 0.09627 0.70637 0.1691 0.0
O3088 O 0.10374 0.70188 0.16141 0.0
C3089 C 0.09959 0.70722 0.16305 0.0
C3090 C 0.11212 0.69682 0.18111 0.0
C3091 C 0.10246 0.71432 0.16166 0.0
C3092 C 0.10753 0.72545 0.16566 0.0
C3093 C 0.10517 0.71858 0.16711 0.0
C3094 C 0.10468 0.7238 0.15328 0.0
C3095 C 0.10727 0.72815 0.15873 0.0
C3096 C 0.10229 0.71696 0.15474 0.0
C3097 C 0.08854 0.68181 0.167 0.0
C3098 C 0.08164 0.68031 0.15625 0.0
C3099 C 0.0798 0.67246 0.16621 0.0
C3100 C 0.08492 0.67613 0.17006 0.0
C3101 C 0.07821 0.67441 0.15922 0.0
C3102 C 0.0868 0.68398 0.16012 0.0
C3103 C 0.0944 0.68499 0.17099 0.0
O3104 O 0.11322 0.69515 0.17446 0.0
O3105 O 0.10584 0.69962 0.1822 0.0
O3106 O 0.09281 0.69034 0.17512 0.0
O3107 O 0.10036 0.68586 0.16752 0.0
H3108 H 0.1041 0.68598 0.18584 0.0
H3109 H 0.10776 0.67611 0.19327 0.0
H3110 H 0.12872 0.68507 0.19487 0.0
H3111 H 0.12493 0.69511 0.18752 0.0
H3112 H 0.10957 0.72865 0.16995 0.0
H3113 H 0.1054 0.71663 0.17249 0.0
H3114 H 0.10433 0.72574 0.14791 0.0
H3115 H 0.1002 0.71376 0.15047 0.0
H3116 H 0.08054 0.68191 0.15087 0.0
H3117 H 0.07716 0.66802 0.16869 0.0
H3118 H 0.08618 0.6744 0.17537 0.0
H3119 H 0.08956 0.68837 0.15768 0.0
C3120 C 0.07394 0.36731 0.93357 0.0
C3121 C 0.08094 0.36757 0.93112 0.0
C3122 C 0.08506 0.37136 0.94271 0.0
C3123 C 0.08642 0.36962 0.93561 0.0
C3124 C 0.07802 0.37125 0.94513 0.0
C3125 C 0.07251 0.36923 0.94059 0.0
U3126 U 0.06857 0.3543 0.91966 0.0
O3127 O 0.05907 0.34779 0.9181 0.0
O3128 O 0.06236 0.35529 0.90987 0.0
C3129 C 0.05755 0.35075 0.91199 0.0
C3130 C 0.06828 0.36453 0.92898 0.0
C3131 C 0.05017 0.35295 0.91099 0.0
C3132 C 0.03988 0.3599 0.91433 0.0
C3133 C 0.04695 0.35795 0.91542 0.0
C3134 C 0.03925 0.35189 0.90434 0.0
C3135 C 0.03594 0.35686 0.90879 0.0
C3136 C 0.04629 0.34996 0.90545 0.0
C3137 C 0.08341 0.34166 0.9138 0.0
C3138 C 0.0832 0.33414 0.90338 0.0
C3139 C 0.09253 0.3328 0.91206 0.0
C3140 C 0.08956 0.33822 0.91609 0.0
C3141 C 0.08942 0.33072 0.90563 0.0
C3142 C 0.0802 0.33956 0.90744 0.0
C3143 C 0.08057 0.34749 0.91808 0.0
O3144 O 0.06913 0.36564 0.92217 0.0
O3145 O 0.06624 0.35805 0.93045 0.0
O3146 O 0.07579 0.34571 0.92278 0.0
O3147 O 0.07901 0.35333 0.91465 0.0
H3148 H 0.08222 0.36605 0.92574 0.0
H3149 H 0.09175 0.36978 0.93351 0.0
H3150 H 0.0768 0.3725 0.95057 0.0
H3151 H 0.06716 0.36901 0.94261 0.0
H3152 H 0.03748 0.3637 0.91788 0.0
H3153 H 0.04989 0.36032 0.91973 0.0
H3154 H 0.03643 0.34954 0.89995 0.0
H3155 H 0.04871 0.34612 0.90195 0.0
H3156 H 0.08065 0.33261 0.89848 0.0
H3157 H 0.09738 0.33036 0.9139 0.0
H3158 H 0.09211 0.33979 0.92097 0.0
H3159 H 0.07543 0.34214 0.90561 0.0
C3160 C 0.39746 0.32401 0.68471 0.0
C3161 C 0.39829 0.33109 0.68265 0.0
C3162 C 0.39366 0.33513 0.69396 0.0
C3163 C 0.39636 0.33658 0.68719 0.0
C3164 C 0.39275 0.32801 0.69599 0.0
C3165 C 0.39464 0.3225 0.6914 0.0
U3166 U 0.41009 0.31828 0.67064 0.0
O3167 O 0.41607 0.30848 0.66877 0.0
O3168 O 0.40868 0.31241 0.6607 0.0
C3169 C 0.41291 0.30726 0.66269 0.0
C3170 C 0.39992 0.31829 0.68003 0.0
C3171 C 0.41022 0.30004 0.66155 0.0
C3172 C 0.40496 0.28911 0.6658 0.0
C3173 C 0.40729 0.29603 0.66706 0.0
C3174 C 0.40834 0.29021 0.6535 0.0
C3175 C 0.40546 0.28612 0.65901 0.0
C3176 C 0.4107 0.2971 0.65477 0.0
C3177 C 0.42328 0.33273 0.66497 0.0
C3178 C 0.43035 0.33278 0.65425 0.0
C3179 C 0.43237 0.34162 0.66331 0.0
C3180 C 0.42703 0.33862 0.66742 0.0
C3181 C 0.43405 0.33879 0.65664 0.0
C3182 C 0.42501 0.32976 0.6584 0.0
C3183 C 0.41743 0.32999 0.66927 0.0
O3184 O 0.39881 0.31935 0.67325 0.0
O3185 O 0.40631 0.31592 0.68141 0.0
O3186 O 0.41907 0.32498 0.6738 0.0
O3187 O 0.41147 0.3288 0.6659 0.0
H3188 H 0.40051 0.3324 0.67753 0.0
H3189 H 0.39701 0.34197 0.68538 0.0
H3190 H 0.39075 0.3267 0.70119 0.0
H3191 H 0.39402 0.31707 0.69311 0.0
H3192 H 0.40271 0.28611 0.67013 0.0
H3193 H 0.40683 0.29823 0.67233 0.0
H3194 H 0.40889 0.28804 0.64823 0.0
H3195 H 0.41296 0.30011 0.65046 0.0
H3196 H 0.43157 0.33044 0.64917 0.0
H3197 H 0.43503 0.34631 0.66527 0.0
H3198 H 0.42575 0.34099 0.67248 0.0
H3199 H 0.42218 0.32518 0.65644 0.0
C3200 C 0.07816 0.4406 0.36499 0.0
C3201 C 0.07655 0.4346 0.36094 0.0
C3202 C 0.06888 0.4302 0.3703 0.0
C3203 C 0.07194 0.42946 0.36356 0.0
C3204 C 0.07046 0.43627 0.37431 0.0
C3205 C 0.07506 0.44144 0.37166 0.0
U3206 U 0.09278 0.44521 0.35226 0.0
O3207 O 0.09532 0.45495 0.34646 0.0
O3208 O 0.10302 0.4505 0.35393 0.0
C3209 C 0.10138 0.4558 0.34974 0.0
C3210 C 0.08337 0.44577 0.36243 0.0
C3211 C 0.10275 0.46292 0.35259 0.0
C3212 C 0.09888 0.47364 0.35855 0.0
C3213 C 0.09749 0.46677 0.35614 0.0
C3214 C 0.11083 0.47279 0.35404 0.0
C3215 C 0.10556 0.47674 0.3575 0.0
C3216 C 0.10943 0.46595 0.3516 0.0
C3217 C 0.09792 0.43093 0.33876 0.0
C3218 C 0.1088 0.43078 0.33193 0.0
C3219 C 0.0995 0.42234 0.32936 0.0
C3220 C 0.09536 0.42528 0.33472 0.0
C3221 C 0.1063 0.425 0.32795 0.0
C3222 C 0.10463 0.43374 0.33728 0.0
C3223 C 0.0936 0.43363 0.34463 0.0
O3224 O 0.09 0.44396 0.36348 0.0
O3225 O 0.08221 0.44827 0.35604 0.0
O3226 O 0.08932 0.4389 0.34309 0.0
O3227 O 0.09691 0.43446 0.35068 0.0
H3228 H 0.07897 0.43383 0.35581 0.0
H3229 H 0.07094 0.42479 0.36039 0.0
H3230 H 0.06815 0.43702 0.37949 0.0
H3231 H 0.07627 0.44603 0.37487 0.0
H3232 H 0.09473 0.47651 0.36126 0.0
H3233 H 0.09231 0.46449 0.35699 0.0
H3234 H 0.116 0.47505 0.35306 0.0
H3235 H 0.11355 0.46306 0.34887 0.0
H3236 H 0.11398 0.43299 0.33093 0.0
H3237 H 0.09746 0.41784 0.32647 0.0
H3238 H 0.0902 0.42304 0.3358 0.0
H3239 H 0.10667 0.43814 0.34033 0.0
C3240 C 0.32316 0.32818 0.1156 0.0
C3241 C 0.32897 0.32632 0.11137 0.0
C3242 C 0.33398 0.31943 0.12103 0.0
C3243 C 0.33431 0.32197 0.11405 0.0
C3244 C 0.32814 0.32129 0.12525 0.0
C3245 C 0.32276 0.32562 0.12254 0.0
U3246 U 0.31822 0.34206 0.10232 0.0
O3247 O 0.3086 0.34383 0.09599 0.0
O3248 O 0.31244 0.35211 0.1032 0.0
C3249 C 0.30736 0.35001 0.09893 0.0
C3250 C 0.31776 0.33307 0.11285 0.0
C3251 C 0.30003 0.35127 0.10127 0.0
C3252 C 0.29133 0.35384 0.11041 0.0
C3253 C 0.29828 0.35218 0.10844 0.0
C3254 C 0.28776 0.35348 0.09813 0.0
C3255 C 0.286 0.35459 0.10527 0.0
C3256 C 0.29469 0.35186 0.09616 0.0
C3257 C 0.3332 0.34677 0.08922 0.0
C3258 C 0.33433 0.35734 0.08197 0.0
C3259 C 0.34255 0.34761 0.08049 0.0
C3260 C 0.33902 0.34381 0.08573 0.0
C3261 C 0.34034 0.35448 0.07865 0.0
C3262 C 0.33078 0.35351 0.08724 0.0
C3263 C 0.33009 0.34286 0.09517 0.0
O3264 O 0.31923 0.33981 0.11369 0.0
O3265 O 0.31539 0.33158 0.10649 0.0
O3266 O 0.32502 0.33838 0.0936 0.0
O3267 O 0.32884 0.34654 0.10092 0.0
H3268 H 0.32943 0.32832 0.10603 0.0
H3269 H 0.33879 0.32075 0.11071 0.0
H3270 H 0.32772 0.3194 0.13063 0.0
H3271 H 0.31834 0.32704 0.12589 0.0
H3272 H 0.29019 0.3547 0.11595 0.0
H3273 H 0.3023 0.35173 0.1125 0.0
H3274 H 0.28378 0.35387 0.09403 0.0
H3275 H 0.29591 0.35115 0.09061 0.0
H3276 H 0.33252 0.36262 0.08068 0.0
H3277 H 0.34708 0.3452 0.07795 0.0
H3278 H 0.34093 0.3386 0.08717 0.0
H3279 H 0.32628 0.35587 0.08988 0.0
C3280 C 0.43611 0.57349 0.8649 0.0
C3281 C 0.43752 0.57961 0.86096 0.0
C3282 C 0.44527 0.58399 0.87028 0.0
C3283 C 0.44207 0.5848 0.8636 0.0
C3284 C 0.44389 0.57779 0.87417 0.0
C3285 C 0.43935 0.57259 0.8715 0.0
U3286 U 0.42155 0.56869 0.85213 0.0
O3287 O 0.41912 0.55888 0.84639 0.0
O3288 O 0.41136 0.56332 0.85381 0.0
C3289 C 0.41305 0.55799 0.84967 0.0
C3290 C 0.43096 0.56827 0.86232 0.0
C3291 C 0.41171 0.55088 0.85256 0.0
C3292 C 0.41572 0.54 0.85814 0.0
C3293 C 0.41712 0.54685 0.85569 0.0
C3294 C 0.40349 0.54122 0.85453 0.0
C3295 C 0.40889 0.5371 0.85756 0.0
C3296 C 0.4049 0.54804 0.85205 0.0
C3297 C 0.41629 0.58289 0.83857 0.0
C3298 C 0.40534 0.5831 0.83183 0.0
C3299 C 0.41472 0.59138 0.82908 0.0
C3300 C 0.41887 0.58846 0.83444 0.0
C3301 C 0.40787 0.5888 0.82776 0.0
C3302 C 0.40953 0.58015 0.83718 0.0
C3303 C 0.42062 0.58022 0.84445 0.0
O3304 O 0.42431 0.57001 0.86335 0.0
O3305 O 0.43216 0.56578 0.85594 0.0
O3306 O 0.42494 0.57499 0.84293 0.0
O3307 O 0.41732 0.57939 0.8505 0.0
H3308 H 0.435 0.58044 0.85588 0.0
H3309 H 0.44291 0.58955 0.86052 0.0
H3310 H 0.44631 0.57698 0.8793 0.0
H3311 H 0.43829 0.56791 0.87463 0.0
H3312 H 0.41998 0.53699 0.86052 0.0
H3313 H 0.42241 0.54897 0.85618 0.0
H3314 H 0.3982 0.53912 0.85392 0.0
H3315 H 0.40066 0.55107 0.84965 0.0
H3316 H 0.40012 0.58094 0.83089 0.0
H3317 H 0.41679 0.59583 0.82613 0.0
H3318 H 0.42407 0.59064 0.83545 0.0
H3319 H 0.40746 0.57581 0.84029 0.0
C3320 C 0.18955 0.68569 0.61487 0.0
C3321 C 0.18333 0.68637 0.61089 0.0
C3322 C 0.17823 0.69399 0.61994 0.0
C3323 C 0.17773 0.69049 0.61339 0.0
C3324 C 0.18457 0.69346 0.62381 0.0
C3325 C 0.19018 0.68932 0.6213 0.0
U3326 U 0.19511 0.67142 0.60228 0.0
O3327 O 0.20502 0.66922 0.59663 0.0
O3328 O 0.20066 0.66132 0.60395 0.0
C3329 C 0.20597 0.66312 0.59985 0.0
C3330 C 0.19512 0.68081 0.61249 0.0
C3331 C 0.21307 0.66182 0.60275 0.0
C3332 C 0.22369 0.66576 0.60883 0.0
C3333 C 0.21684 0.66711 0.60635 0.0
C3334 C 0.22299 0.6538 0.60426 0.0
C3335 C 0.22685 0.65909 0.60779 0.0
C3336 C 0.21617 0.65516 0.60176 0.0
C3337 C 0.18108 0.66592 0.58866 0.0
C3338 C 0.1815 0.65522 0.58154 0.0
C3339 C 0.17226 0.66389 0.57956 0.0
C3340 C 0.17508 0.66812 0.58491 0.0
C3341 C 0.17539 0.65735 0.57785 0.0
C3342 C 0.18434 0.65948 0.58689 0.0
C3343 C 0.18364 0.67028 0.59454 0.0
O3344 O 0.19367 0.67409 0.6135 0.0
O3345 O 0.19769 0.6821 0.60616 0.0
O3346 O 0.1888 0.67469 0.59305 0.0
O3347 O 0.18452 0.66697 0.60058 0.0
H3348 H 0.18274 0.6836 0.60592 0.0
H3349 H 0.17297 0.69087 0.61022 0.0
H3350 H 0.18509 0.69605 0.62889 0.0
H3351 H 0.19493 0.68881 0.62445 0.0
H3352 H 0.2265 0.66992 0.61159 0.0
H3353 H 0.21451 0.67228 0.6072 0.0
H3354 H 0.2253 0.64865 0.60328 0.0
H3355 H 0.21334 0.65103 0.59899 0.0
H3356 H 0.18407 0.65025 0.5803 0.0
H3357 H 0.16749 0.66564 0.57692 0.0
H3358 H 0.17249 0.67306 0.58623 0.0
H3359 H 0.189 0.65771 0.58972 0.0
C3360 C 0.07738 0.57255 0.14733 0.0
C3361 C 0.07516 0.57814 0.15168 0.0
C3362 C 0.06833 0.58316 0.14198 0.0
C3363 C 0.07065 0.58337 0.14904 0.0
C3364 C 0.07052 0.57751 0.13765 0.0
C3365 C 0.075 0.57224 0.14031 0.0
U3366 U 0.09182 0.56793 0.16022 0.0
O3367 O 0.09417 0.5583 0.16628 0.0
O3368 O 0.10201 0.56247 0.15881 0.0
C3369 C 0.1003 0.55733 0.16316 0.0
C3370 C 0.08251 0.56732 0.14996 0.0
C3371 C 0.10174 0.55011 0.16065 0.0
C3372 C 0.09834 0.53944 0.15432 0.0
C3373 C 0.09693 0.54643 0.15636 0.0
C3374 C 0.10943 0.53983 0.16072 0.0
C3375 C 0.10458 0.53603 0.15655 0.0
C3376 C 0.10802 0.54679 0.16275 0.0
C3377 C 0.09696 0.58235 0.17352 0.0
C3378 C 0.10777 0.58239 0.18047 0.0
C3379 C 0.09859 0.59102 0.18283 0.0
C3380 C 0.09446 0.5881 0.17745 0.0
C3381 C 0.10533 0.58826 0.18435 0.0
C3382 C 0.10361 0.57944 0.17511 0.0
C3383 C 0.09266 0.57964 0.16764 0.0
O3384 O 0.08917 0.56902 0.14894 0.0
O3385 O 0.08128 0.56487 0.15635 0.0
O3386 O 0.0883 0.57446 0.16921 0.0
O3387 O 0.09603 0.57866 0.16164 0.0
H3388 H 0.07702 0.57853 0.15708 0.0
H3389 H 0.06917 0.58771 0.15248 0.0
H3390 H 0.0688 0.57719 0.1322 0.0
H3391 H 0.0767 0.56799 0.13687 0.0
H3392 H 0.09447 0.53666 0.15115 0.0
H3393 H 0.09205 0.54893 0.15468 0.0
H3394 H 0.11435 0.53742 0.16241 0.0
H3395 H 0.11181 0.54956 0.16603 0.0
H3396 H 0.11291 0.58011 0.18156 0.0
H3397 H 0.09659 0.5956 0.18564 0.0
H3398 H 0.08934 0.59041 0.17629 0.0
H3399 H 0.10561 0.57497 0.17214 0.0
C3400 C 0.18996 0.3293 0.89806 0.0
C3401 C 0.18341 0.32908 0.90153 0.0
C3402 C 0.17879 0.32104 0.8926 0.0
C3403 C 0.17789 0.32499 0.89884 0.0
C3404 C 0.18543 0.32112 0.88923 0.0
C3405 C 0.19097 0.32525 0.89194 0.0
U3406 U 0.19536 0.34321 0.91108 0.0
O3407 O 0.2051 0.34505 0.91714 0.0
O3408 O 0.20119 0.3532 0.90984 0.0
C3409 C 0.20628 0.35122 0.91415 0.0
C3410 C 0.19554 0.33402 0.9007 0.0
C3411 C 0.21352 0.35246 0.91165 0.0
C3412 C 0.22372 0.34927 0.9045 0.0
C3413 C 0.21674 0.34802 0.90664 0.0
C3414 C 0.22426 0.35944 0.91228 0.0
C3415 C 0.22758 0.35497 0.90735 0.0
C3416 C 0.21731 0.35819 0.91441 0.0
C3417 C 0.18103 0.34871 0.9244 0.0
C3418 C 0.18087 0.35957 0.9313 0.0
C3419 C 0.17253 0.35019 0.93389 0.0
C3420 C 0.17545 0.3461 0.92848 0.0
C3421 C 0.17515 0.35701 0.93531 0.0
C3422 C 0.18381 0.35544 0.9259 0.0
C3423 C 0.18368 0.34444 0.91847 0.0
O3424 O 0.19425 0.34079 0.89976 0.0
O3425 O 0.19787 0.33256 0.90708 0.0
O3426 O 0.18868 0.33986 0.92 0.0
O3427 O 0.18482 0.34787 0.91253 0.0
H3428 H 0.18254 0.33217 0.90628 0.0
H3429 H 0.17289 0.32496 0.90163 0.0
H3430 H 0.18627 0.31817 0.8844 0.0
H3431 H 0.19598 0.32538 0.88918 0.0
H3432 H 0.22614 0.3457 0.90073 0.0
H3433 H 0.21387 0.34357 0.90445 0.0
H3434 H 0.22702 0.36395 0.91449 0.0
H3435 H 0.21489 0.36169 0.91825 0.0
H3436 H 0.18305 0.36477 0.9323 0.0
H3437 H 0.16807 0.3481 0.93681 0.0
H3438 H 0.17323 0.34092 0.92739 0.0
H3439 H 0.18816 0.35753 0.92282 0.0
C3440 C 0.43471 0.44057 0.64822 0.0
C3441 C 0.43664 0.43476 0.65241 0.0
C3442 C 0.44378 0.43002 0.64279 0.0
C3443 C 0.44115 0.42955 0.64973 0.0
C3444 C 0.44189 0.43591 0.63864 0.0
C3445 C 0.4374 0.44114 0.64134 0.0
U3446 U 0.4207 0.44544 0.6615 0.0
O3447 O 0.41842 0.45529 0.66723 0.0
O3448 O 0.41038 0.4507 0.66022 0.0
C3449 C 0.41221 0.4561 0.6642 0.0
C3450 C 0.4296 0.44579 0.65088 0.0
C3451 C 0.41076 0.46315 0.66124 0.0
C3452 C 0.41443 0.47365 0.65481 0.0
C3453 C 0.41586 0.46683 0.65732 0.0
C3454 C 0.40271 0.47308 0.65995 0.0
C3455 C 0.40784 0.47687 0.65613 0.0
C3456 C 0.40417 0.46629 0.66249 0.0
C3457 C 0.41646 0.43136 0.67556 0.0
C3458 C 0.4059 0.43085 0.68288 0.0
C3459 C 0.41583 0.42315 0.6854 0.0
C3460 C 0.41954 0.42608 0.67973 0.0
C3461 C 0.40894 0.42544 0.687 0.0
C3462 C 0.40964 0.43381 0.67721 0.0
C3463 C 0.42036 0.43403 0.6694 0.0
O3464 O 0.42294 0.44394 0.65019 0.0
O3465 O 0.43105 0.44846 0.65714 0.0
O3466 O 0.42468 0.43934 0.6706 0.0
O3467 O 0.4167 0.43473 0.66354 0.0
H3468 H 0.43455 0.43418 0.65771 0.0
H3469 H 0.4424 0.42503 0.65303 0.0
H3470 H 0.44386 0.43645 0.6333 0.0
H3471 H 0.43593 0.44558 0.63802 0.0
H3472 H 0.41846 0.4764 0.65182 0.0
H3473 H 0.42097 0.46447 0.65627 0.0
H3474 H 0.39762 0.47543 0.66114 0.0
H3475 H 0.40016 0.46352 0.66551 0.0
H3476 H 0.40063 0.43278 0.68402 0.0
H3477 H 0.41829 0.41892 0.68838 0.0
H3478 H 0.42479 0.42412 0.67852 0.0
H3479 H 0.40719 0.43792 0.67407 0.0
C3480 C 0.32313 0.6858 0.39911 0.0
C3481 C 0.3286 0.68748 0.40383 0.0
C3482 C 0.3347 0.69411 0.39466 0.0
C3483 C 0.33429 0.69162 0.40165 0.0
C3484 C 0.32911 0.6926 0.38997 0.0
C3485 C 0.32338 0.68844 0.39218 0.0
U3486 U 0.31781 0.67155 0.41159 0.0
O3487 O 0.30806 0.66921 0.41745 0.0
O3488 O 0.31243 0.66132 0.41012 0.0
C3489 C 0.30718 0.66305 0.41434 0.0
C3490 C 0.31758 0.68081 0.4013 0.0
C3491 C 0.30004 0.66162 0.41165 0.0
C3492 C 0.28974 0.66484 0.40465 0.0
C3493 C 0.29669 0.6662 0.40686 0.0
C3494 C 0.28953 0.65428 0.4119 0.0
C3495 C 0.28605 0.6589 0.40722 0.0
C3496 C 0.29644 0.65563 0.41409 0.0
C3497 C 0.33241 0.66701 0.42519 0.0
C3498 C 0.33365 0.65629 0.43221 0.0
C3499 C 0.34143 0.66627 0.43427 0.0
C3500 C 0.33796 0.67009 0.429 0.0
C3501 C 0.33942 0.65928 0.43584 0.0
C3502 C 0.33017 0.66013 0.4269 0.0
C3503 C 0.32939 0.67096 0.41923 0.0
O3504 O 0.31921 0.67412 0.40033 0.0
O3505 O 0.3148 0.68205 0.40755 0.0
O3506 O 0.32409 0.67522 0.4207 0.0
O3507 O 0.32851 0.66739 0.41333 0.0
H3508 H 0.32854 0.68546 0.40919 0.0
H3509 H 0.33844 0.69279 0.40542 0.0
H3510 H 0.32929 0.6944 0.38455 0.0
H3511 H 0.31924 0.68714 0.38844 0.0
H3512 H 0.28721 0.66854 0.40108 0.0
H3513 H 0.2994 0.67085 0.40492 0.0
H3514 H 0.28689 0.64959 0.41388 0.0
H3515 H 0.29897 0.65203 0.41776 0.0
H3516 H 0.33201 0.65091 0.43328 0.0
H3517 H 0.34576 0.66877 0.43706 0.0
H3518 H 0.33973 0.6754 0.42778 0.0
H3519 H 0.32587 0.65768 0.42402 0.0
C3520 C 0.36655 0.07954 0.44049 0.0
C3521 C 0.36261 0.07885 0.43425 0.0
C3522 C 0.37188 0.0716 0.42906 0.0
C3523 C 0.36524 0.0749 0.4286 0.0
C3524 C 0.37573 0.07211 0.43541 0.0
C3525 C 0.37309 0.07609 0.44108 0.0
U3526 U 0.35376 0.09362 0.44568 0.0
O3527 O 0.34744 0.09558 0.45523 0.0
O3528 O 0.35497 0.10361 0.45152 0.0
C3529 C 0.35049 0.1017 0.45648 0.0
C3530 C 0.36399 0.08427 0.4461 0.0
C3531 C 0.35284 0.10289 0.46379 0.0
C3532 C 0.35974 0.0996 0.47412 0.0
C3533 C 0.35773 0.09839 0.46709 0.0
C3534 C 0.35204 0.10985 0.47453 0.0
C3535 C 0.35687 0.10532 0.47794 0.0
C3536 C 0.35004 0.10863 0.46753 0.0
C3537 C 0.34095 0.09913 0.43086 0.0
C3538 C 0.33386 0.10986 0.43058 0.0
C3539 C 0.33199 0.10071 0.42181 0.0
C3540 C 0.33729 0.09662 0.42493 0.0
C3541 C 0.33025 0.1074 0.42455 0.0
C3542 C 0.33916 0.10575 0.43372 0.0
C3543 C 0.34674 0.09485 0.43377 0.0
O3544 O 0.36507 0.09102 0.44486 0.0
O3545 O 0.35755 0.08294 0.44837 0.0
O3546 O 0.34499 0.09034 0.43875 0.0
O3547 O 0.35266 0.09825 0.4351 0.0
H3548 H 0.35756 0.08149 0.43369 0.0
H3549 H 0.36209 0.07452 0.42383 0.0
H3550 H 0.38088 0.06966 0.4359 0.0
H3551 H 0.37621 0.0766 0.44585 0.0
H3552 H 0.36343 0.09599 0.4766 0.0
H3553 H 0.35994 0.09393 0.46426 0.0
H3554 H 0.34982 0.11437 0.47726 0.0
H3555 H 0.34629 0.11218 0.46504 0.0
H3556 H 0.3326 0.11497 0.43285 0.0
H3557 H 0.32939 0.09869 0.41712 0.0
H3558 H 0.33862 0.09153 0.42264 0.0
H3559 H 0.34192 0.10776 0.43833 0.0
C3560 C 0.86501 0.43703 0.57273 0.0
C3561 C 0.86096 0.43785 0.57888 0.0
C3562 C 0.87014 0.44518 0.58412 0.0
C3563 C 0.86348 0.44189 0.58451 0.0
C3564 C 0.87409 0.44457 0.57784 0.0
C3565 C 0.87155 0.44049 0.57219 0.0
U3566 U 0.8529 0.42225 0.56785 0.0
O3567 O 0.84681 0.41964 0.5583 0.0
O3568 O 0.8547 0.41214 0.56237 0.0
C3569 C 0.85026 0.41368 0.55725 0.0
C3570 C 0.86265 0.43207 0.56722 0.0
C3571 C 0.85288 0.41245 0.55004 0.0
C3572 C 0.85853 0.4165 0.53924 0.0
C3573 C 0.85624 0.41781 0.54615 0.0
C3574 C 0.85425 0.40445 0.54009 0.0
C3575 C 0.85755 0.4098 0.53612 0.0
C3576 C 0.85193 0.40577 0.54698 0.0
C3577 C 0.84052 0.41655 0.58304 0.0
C3578 C 0.83281 0.40627 0.58294 0.0
C3579 C 0.8335 0.4137 0.59336 0.0
C3580 C 0.83834 0.41808 0.58993 0.0
C3581 C 0.83076 0.40768 0.58995 0.0
C3582 C 0.83769 0.41067 0.57951 0.0
C3583 C 0.84598 0.42102 0.57982 0.0
O3584 O 0.86406 0.42541 0.56862 0.0
O3585 O 0.85616 0.43305 0.56493 0.0
O3586 O 0.84391 0.42518 0.57465 0.0
O3587 O 0.85206 0.4179 0.57858 0.0
H3588 H 0.85591 0.43519 0.57941 0.0
H3589 H 0.86027 0.44234 0.58922 0.0
H3590 H 0.87925 0.447 0.57741 0.0
H3591 H 0.87477 0.43987 0.5675 0.0
H3592 H 0.86111 0.42071 0.53634 0.0
H3593 H 0.85706 0.42299 0.54845 0.0
H3594 H 0.85332 0.39927 0.53783 0.0
H3595 H 0.84934 0.40158 0.5499 0.0
H3596 H 0.83081 0.40166 0.58019 0.0
H3597 H 0.83193 0.415 0.59871 0.0
H3598 H 0.84046 0.42262 0.59272 0.0
H3599 H 0.83935 0.40942 0.57417 0.0
C3600 C 0.32707 0.11688 0.32297 0.0
C3601 C 0.32539 0.11266 0.32883 0.0
C3602 C 0.31799 0.12206 0.33362 0.0
C3603 C 0.32087 0.11521 0.33409 0.0
C3604 C 0.31963 0.12624 0.32769 0.0
C3605 C 0.32413 0.12367 0.3224 0.0
U3606 U 0.34173 0.10427 0.31828 0.0
O3607 O 0.34429 0.09843 0.30857 0.0
O3608 O 0.35195 0.10598 0.31296 0.0
C3609 C 0.35034 0.10175 0.30769 0.0
C3610 C 0.33225 0.11439 0.31774 0.0
C3611 C 0.35168 0.10457 0.30057 0.0
C3612 C 0.34781 0.11066 0.28993 0.0
C3613 C 0.34646 0.10827 0.2968 0.0
C3614 C 0.35966 0.10582 0.2906 0.0
C3615 C 0.35443 0.10943 0.28674 0.0
C3616 C 0.35829 0.10341 0.29745 0.0
C3617 C 0.34698 0.09091 0.33263 0.0
C3618 C 0.35762 0.08371 0.33235 0.0
C3619 C 0.34904 0.08209 0.34171 0.0
C3620 C 0.34481 0.08738 0.33876 0.0
C3621 C 0.35553 0.08023 0.33859 0.0
C3622 C 0.35337 0.089 0.32938 0.0
C3623 C 0.34261 0.09672 0.32989 0.0
O3624 O 0.33888 0.1155 0.31948 0.0
O3625 O 0.33113 0.10799 0.31523 0.0
O3626 O 0.33836 0.09512 0.32464 0.0
O3627 O 0.3459 0.10279 0.32901 0.0
H3628 H 0.32768 0.10744 0.32941 0.0
H3629 H 0.31982 0.11189 0.33864 0.0
H3630 H 0.31746 0.13152 0.32715 0.0
H3631 H 0.32541 0.12701 0.31794 0.0
H3632 H 0.34369 0.11348 0.28712 0.0
H3633 H 0.34133 0.10925 0.29915 0.0
H3634 H 0.36477 0.10471 0.28828 0.0
H3635 H 0.36238 0.10056 0.30027 0.0
H3636 H 0.36256 0.08235 0.32978 0.0
H3637 H 0.34731 0.0796 0.34657 0.0
H3638 H 0.3399 0.0888 0.34134 0.0
H3639 H 0.3551 0.09167 0.32462 0.0
C3640 C 0.64812 0.57853 0.07307 0.0
C3641 C 0.65253 0.57632 0.07861 0.0
C3642 C 0.64297 0.56928 0.08358 0.0
C3643 C 0.64999 0.57172 0.0838 0.0
C3644 C 0.63859 0.57144 0.07796 0.0
C3645 C 0.64116 0.57602 0.07274 0.0
U3646 U 0.6607 0.5933 0.06854 0.0
O3647 O 0.66655 0.59595 0.05887 0.0
O3648 O 0.65896 0.60356 0.06329 0.0
C3649 C 0.66321 0.602 0.05802 0.0
C3650 C 0.65063 0.5838 0.06791 0.0
C3651 C 0.66043 0.6034 0.05089 0.0
C3652 C 0.65464 0.59956 0.04008 0.0
C3653 C 0.65696 0.59814 0.04697 0.0
C3654 C 0.65907 0.61155 0.04106 0.0
C3655 C 0.6557 0.60627 0.03704 0.0
C3656 C 0.66142 0.61011 0.04791 0.0
C3657 C 0.67405 0.59846 0.08294 0.0
C3658 C 0.68113 0.60919 0.08286 0.0
C3659 C 0.68305 0.60031 0.0919 0.0
C3660 C 0.67774 0.59613 0.08892 0.0
C3661 C 0.68477 0.60693 0.08894 0.0
C3662 C 0.67582 0.60498 0.07987 0.0
C3663 C 0.66824 0.59411 0.08017 0.0
O3664 O 0.6495 0.59041 0.06973 0.0
O3665 O 0.65702 0.58272 0.06539 0.0
O3666 O 0.66986 0.58989 0.07489 0.0
O3667 O 0.66218 0.5974 0.0793 0.0
H3668 H 0.6579 0.57828 0.07902 0.0
H3669 H 0.65347 0.57026 0.08811 0.0
H3670 H 0.63317 0.56962 0.07762 0.0
H3671 H 0.63767 0.57771 0.06852 0.0
H3672 H 0.65199 0.59541 0.03715 0.0
H3673 H 0.65611 0.59293 0.0492 0.0
H3674 H 0.66006 0.61674 0.03885 0.0
H3675 H 0.6641 0.61423 0.05087 0.0
H3676 H 0.68237 0.61423 0.08042 0.0
H3677 H 0.68566 0.59845 0.09664 0.0
H3678 H 0.67643 0.59112 0.09137 0.0
H3679 H 0.67304 0.60685 0.07522 0.0
C3680 C 0.68645 0.39992 0.32195 0.0
C3681 C 0.68885 0.40487 0.32693 0.0
C3682 C 0.69538 0.39566 0.33314 0.0
C3683 C 0.6933 0.40277 0.33243 0.0
C3684 C 0.69311 0.39074 0.32803 0.0
C3685 C 0.68867 0.39286 0.32248 0.0
U3686 U 0.67139 0.41183 0.31711 0.0
O3687 O 0.66864 0.41771 0.30748 0.0
O3688 O 0.66121 0.40988 0.31178 0.0
C3689 C 0.66264 0.41431 0.30662 0.0
C3690 C 0.68118 0.40203 0.31661 0.0
C3691 C 0.66119 0.41177 0.29942 0.0
C3692 C 0.66454 0.40528 0.28884 0.0
C3693 C 0.66592 0.40731 0.29584 0.0
C3694 C 0.65365 0.41204 0.28905 0.0
C3695 C 0.65842 0.4077 0.28534 0.0
C3696 C 0.65504 0.41406 0.29602 0.0
C3697 C 0.66594 0.42507 0.33151 0.0
C3698 C 0.65488 0.43162 0.33179 0.0
C3699 C 0.66415 0.43432 0.34021 0.0
C3700 C 0.66842 0.42911 0.3372 0.0
C3701 C 0.6573 0.43559 0.3376 0.0
C3702 C 0.65918 0.42641 0.32875 0.0
C3703 C 0.6704 0.41934 0.32874 0.0
O3704 O 0.67459 0.40069 0.31836 0.0
O3705 O 0.68203 0.40839 0.31391 0.0
O3706 O 0.6746 0.42104 0.32348 0.0
O3707 O 0.66724 0.41321 0.32786 0.0
H3708 H 0.68716 0.41034 0.32667 0.0
H3709 H 0.69504 0.40673 0.33619 0.0
H3710 H 0.69456 0.38521 0.32845 0.0
H3711 H 0.68681 0.38895 0.31873 0.0
H3712 H 0.66834 0.40197 0.28612 0.0
H3713 H 0.67071 0.4055 0.2984 0.0
H3714 H 0.64883 0.4139 0.28657 0.0
H3715 H 0.65132 0.41748 0.29872 0.0
H3716 H 0.64965 0.43252 0.32962 0.0
H3717 H 0.66614 0.43721 0.34474 0.0
H3718 H 0.67362 0.42813 0.3394 0.0
H3719 H 0.65719 0.42336 0.32433 0.0
C3720 C 0.14821 0.93648 0.941 0.0
C3721 C 0.15223 0.93806 0.93498 0.0
C3722 C 0.14288 0.94576 0.93059 0.0
C3723 C 0.1496 0.94267 0.92984 0.0
C3724 C 0.1389 0.94424 0.9367 0.0
C3725 C 0.14156 0.93964 0.94186 0.0
U3726 U 0.16036 0.92124 0.94493 0.0
O3727 O 0.16663 0.91834 0.95427 0.0
O3728 O 0.1585 0.91106 0.95027 0.0
C3729 C 0.16308 0.91244 0.95531 0.0
C3730 C 0.15075 0.93118 0.9461 0.0
C3731 C 0.16056 0.91122 0.96256 0.0
C3732 C 0.15501 0.9153 0.97341 0.0
C3733 C 0.15722 0.91658 0.96646 0.0
C3734 C 0.15935 0.90327 0.97256 0.0
C3735 C 0.15607 0.90863 0.97655 0.0
C3736 C 0.16158 0.90456 0.96564 0.0
C3737 C 0.17246 0.91563 0.92955 0.0
C3738 C 0.18062 0.90569 0.92988 0.0
C3739 C 0.17913 0.91244 0.91909 0.0
C3740 C 0.17425 0.91681 0.92247 0.0
C3741 C 0.18233 0.90678 0.92272 0.0
C3742 C 0.17569 0.91008 0.93327 0.0
C3743 C 0.16706 0.92015 0.93283 0.0
O3744 O 0.14923 0.92461 0.94442 0.0
O3745 O 0.15732 0.93199 0.94823 0.0
O3746 O 0.16923 0.92423 0.93802 0.0
O3747 O 0.16096 0.91709 0.9341 0.0
H3748 H 0.15734 0.93559 0.93417 0.0
H3749 H 0.15275 0.94362 0.92515 0.0
H3750 H 0.13372 0.94656 0.93745 0.0
H3751 H 0.13836 0.93844 0.94646 0.0
H3752 H 0.15244 0.91952 0.97631 0.0
H3753 H 0.15634 0.92175 0.96414 0.0
H3754 H 0.16033 0.8981 0.97485 0.0
H3755 H 0.16415 0.90036 0.96271 0.0
H3756 H 0.18296 0.90136 0.9328 0.0
H3757 H 0.18042 0.9135 0.91361 0.0
H3758 H 0.17181 0.92109 0.91954 0.0
H3759 H 0.17434 0.90909 0.93875 0.0
C3760 C 0.32686 0.90008 0.19096 0.0
C3761 C 0.32418 0.90518 0.18628 0.0
C3762 C 0.31772 0.89609 0.17984 0.0
C3763 C 0.31962 0.90322 0.18082 0.0
C3764 C 0.32022 0.89102 0.18469 0.0
C3765 C 0.32476 0.893 0.1902 0.0
U3766 U 0.34272 0.91116 0.19516 0.0
O3767 O 0.34611 0.91703 0.2046 0.0
O3768 O 0.35289 0.90864 0.20027 0.0
C3769 C 0.35183 0.91316 0.20544 0.0
C3770 C 0.33236 0.90203 0.19614 0.0
C3771 C 0.35305 0.91042 0.21262 0.0
C3772 C 0.34882 0.90502 0.22348 0.0
C3773 C 0.34757 0.90735 0.21657 0.0
C3774 C 0.36106 0.90866 0.22249 0.0
C3775 C 0.35558 0.90568 0.22653 0.0
C3776 C 0.3598 0.91102 0.2156 0.0
C3777 C 0.3484 0.92346 0.17988 0.0
C3778 C 0.35876 0.93107 0.17983 0.0
C3779 C 0.35136 0.93021 0.1694 0.0
C3780 C 0.34692 0.9255 0.17292 0.0
C3781 C 0.35738 0.93299 0.17277 0.0
C3782 C 0.3543 0.92631 0.18336 0.0
C3783 C 0.34381 0.91818 0.18324 0.0
O3784 O 0.33881 0.90022 0.1943 0.0
O3785 O 0.33196 0.90849 0.19868 0.0
O3786 O 0.33999 0.92039 0.18861 0.0
O3787 O 0.34666 0.91193 0.18427 0.0
H3788 H 0.32576 0.91068 0.1867 0.0
H3789 H 0.31769 0.90728 0.17727 0.0
H3790 H 0.31891 0.88548 0.18405 0.0
H3791 H 0.32683 0.88898 0.19371 0.0
H3792 H 0.34451 0.90268 0.22643 0.0
H3793 H 0.34232 0.9068 0.21433 0.0
H3794 H 0.3663 0.90934 0.2247 0.0
H3795 H 0.36408 0.91339 0.21263 0.0
H3796 H 0.36337 0.9331 0.18255 0.0
H3797 H 0.35007 0.93168 0.16402 0.0
H3798 H 0.34236 0.92336 0.17018 0.0
H3799 H 0.35552 0.92477 0.18874 0.0
C3800 C 0.18628 0.11538 0.68935 0.0
C3801 C 0.18622 0.11208 0.68271 0.0
C3802 C 0.19416 0.12107 0.67804 0.0
C3803 C 0.19012 0.11489 0.67712 0.0
C3804 C 0.19435 0.12427 0.68476 0.0
C3805 C 0.19042 0.12145 0.69037 0.0
U3806 U 0.17276 0.10209 0.69514 0.0
O3807 O 0.17149 0.09595 0.70497 0.0
O3808 O 0.16303 0.10308 0.70139 0.0
C3809 C 0.16539 0.09894 0.70646 0.0
C3810 C 0.18181 0.1126 0.69506 0.0
C3811 C 0.16454 0.10154 0.71376 0.0
C3812 C 0.16267 0.11106 0.72222 0.0
C3813 C 0.16395 0.1088 0.71529 0.0
C3814 C 0.16278 0.09888 0.7262 0.0
C3815 C 0.16202 0.10612 0.72774 0.0
C3816 C 0.16401 0.09662 0.71928 0.0
C3817 C 0.16688 0.08889 0.68077 0.0
C3818 C 0.1562 0.08175 0.68086 0.0
C3819 C 0.16509 0.07985 0.67184 0.0
C3820 C 0.16924 0.08519 0.67482 0.0
C3821 C 0.15848 0.07812 0.67478 0.0
C3822 C 0.16038 0.08708 0.68385 0.0
C3823 C 0.17115 0.09482 0.68343 0.0
O3824 O 0.17499 0.11346 0.69405 0.0
O3825 O 0.18345 0.1062 0.69723 0.0
O3826 O 0.17592 0.09325 0.68824 0.0
O3827 O 0.16768 0.10069 0.68481 0.0
H3828 H 0.18307 0.10738 0.68183 0.0
H3829 H 0.18994 0.11224 0.67205 0.0
H3830 H 0.19737 0.12906 0.68563 0.0
H3831 H 0.19051 0.12407 0.69547 0.0
H3832 H 0.16218 0.11668 0.72325 0.0
H3833 H 0.16439 0.11271 0.71113 0.0
H3834 H 0.16222 0.09494 0.73032 0.0
H3835 H 0.16442 0.091 0.71821 0.0
H3836 H 0.15116 0.08049 0.68329 0.0
H3837 H 0.16696 0.07725 0.6671 0.0
H3838 H 0.17423 0.08654 0.67236 0.0
H3839 H 0.15848 0.08988 0.68848 0.0
H3840 H 0.13679 0.22771 0.37188 0.0
H3841 H 0.11454 0.22376 0.37476 0.0
H3842 H 0.12973 0.2079 0.38055 0.0
H3843 H 0.11381 0.23132 0.3653 0.0
C3844 C 0.11772 0.23532 0.36661 0.0
C3845 C 0.13254 0.22422 0.37351 0.0
C3846 C 0.13411 0.21746 0.37618 0.0
C3847 C 0.12551 0.22647 0.37276 0.0
C3848 C 0.11998 0.222 0.37503 0.0
C3849 C 0.12148 0.21526 0.37777 0.0
C3850 C 0.12854 0.21302 0.37825 0.0
N3851 N 0.12417 0.2333 0.36991 0.0
H3852 H 0.03638 0.88799 0.62309 0.0
H3853 H 0.03934 0.86559 0.62601 0.0
H3854 H 0.05541 0.88013 0.63277 0.0
H3855 H 0.03205 0.86514 0.61639 0.0
C3856 C 0.02819 0.86922 0.61757 0.0
C3857 C 0.03961 0.88361 0.62489 0.0
C3858 C 0.04628 0.8849 0.62791 0.0
C3859 C 0.03714 0.87667 0.624 0.0
C3860 C 0.04128 0.87096 0.62644 0.0
C3861 C 0.04792 0.87217 0.62955 0.0
C3862 C 0.05038 0.87915 0.6302 0.0
N3863 N 0.03038 0.87562 0.62087 0.0
H3864 H 0.37677 0.78668 0.87152 0.0
H3865 H 0.39906 0.79054 0.87423 0.0
H3866 H 0.38399 0.80641 0.88028 0.0
H3867 H 0.39958 0.78319 0.86454 0.0
C3868 C 0.39576 0.77913 0.86595 0.0
C3869 C 0.38104 0.79014 0.87315 0.0
C3870 C 0.37953 0.79689 0.87588 0.0
C3871 C 0.38807 0.78788 0.87233 0.0
C3872 C 0.39363 0.79231 0.87457 0.0
C3873 C 0.39218 0.79904 0.87737 0.0
C3874 C 0.38513 0.80129 0.87794 0.0
N3875 N 0.38937 0.78106 0.8694 0.0
H3876 H 0.4785 0.12645 0.12391 0.0
H3877 H 0.47672 0.14892 0.12742 0.0
H3878 H 0.46263 0.1346 0.13797 0.0
H3879 H 0.48246 0.14944 0.11682 0.0
C3880 C 0.48628 0.14518 0.11734 0.0
C3881 C 0.47589 0.1309 0.1264 0.0
C3882 C 0.47029 0.12973 0.13113 0.0
C3883 C 0.47823 0.1378 0.12497 0.0
C3884 C 0.47486 0.14358 0.12828 0.0
C3885 C 0.46925 0.14246 0.13302 0.0
C3886 C 0.46703 0.13552 0.13441 0.0
N3887 N 0.48426 0.1387 0.12057 0.0
H3888 H 0.13738 0.78687 0.14118 0.0
H3889 H 0.11547 0.78912 0.13528 0.0
H3890 H 0.13062 0.80468 0.12876 0.0
H3891 H 0.11379 0.78229 0.14507 0.0
C3892 C 0.11815 0.77856 0.14482 0.0
C3893 C 0.13321 0.78983 0.13857 0.0
C3894 C 0.13482 0.79616 0.13504 0.0
C3895 C 0.12623 0.78733 0.13887 0.0
C3896 C 0.12082 0.79112 0.13539 0.0
C3897 C 0.12242 0.79735 0.13166 0.0
C3898 C 0.12939 0.79986 0.13161 0.0
N3899 N 0.1249 0.78082 0.14241 0.0
H3900 H 0.47768 0.88689 0.38974 0.0
H3901 H 0.47568 0.86432 0.38721 0.0
H3902 H 0.46144 0.87824 0.37636 0.0
H3903 H 0.48079 0.86452 0.39838 0.0
C3904 C 0.4849 0.86843 0.39745 0.0
C3905 C 0.47496 0.88237 0.38749 0.0
C3906 C 0.46928 0.88342 0.38282 0.0
C3907 C 0.47724 0.87552 0.38921 0.0
C3908 C 0.47382 0.86963 0.38616 0.0
C3909 C 0.46819 0.87061 0.38142 0.0
C3910 C 0.46592 0.8775 0.37985 0.0
N3911 N 0.48327 0.87471 0.39364 0.0
H3912 H 0.37549 0.22719 0.64115 0.0
H3913 H 0.39766 0.22536 0.63626 0.0
H3914 H 0.38307 0.20967 0.62876 0.0
H3915 H 0.39871 0.2318 0.64646 0.0
C3916 C 0.39442 0.23558 0.64593 0.0
C3917 C 0.37981 0.22434 0.63868 0.0
C3918 C 0.37845 0.21805 0.63496 0.0
C3919 C 0.38673 0.22692 0.63936 0.0
C3920 C 0.39234 0.22326 0.63607 0.0
C3921 C 0.39103 0.21707 0.63218 0.0
C3922 C 0.38409 0.21447 0.63173 0.0
N3923 N 0.38782 0.23337 0.64307 0.0
H3924 H 0.03771 0.12738 0.89113 0.0
H3925 H 0.03974 0.14974 0.88724 0.0
H3926 H 0.05655 0.13563 0.88147 0.0
H3927 H 0.03247 0.15026 0.89691 0.0
C3928 C 0.02874 0.14603 0.89583 0.0
C3929 C 0.04077 0.13182 0.8892 0.0
C3930 C 0.04754 0.13069 0.88637 0.0
C3931 C 0.03799 0.13868 0.88974 0.0
C3932 C 0.04192 0.14445 0.88711 0.0
C3933 C 0.04866 0.14339 0.88418 0.0
C3934 C 0.05144 0.1365 0.8839 0.0
N3935 N 0.03116 0.1396 0.89275 0.0
H3936 H 0.37201 0.13781 0.22664 0.0
H3937 H 0.37485 0.11526 0.2248 0.0
H3938 H 0.38103 0.12891 0.20777 0.0
H3939 H 0.3651 0.11535 0.23202 0.0
C3940 C 0.36649 0.11948 0.23576 0.0
C3941 C 0.3737 0.13325 0.22361 0.0
C3942 C 0.37648 0.13417 0.21678 0.0
C3943 C 0.37289 0.12644 0.22646 0.0
C3944 C 0.37521 0.12052 0.22256 0.0
C3945 C 0.37808 0.12137 0.21577 0.0
C3946 C 0.37864 0.1282 0.21292 0.0
N3947 N 0.36991 0.12572 0.23333 0.0
H3948 H 0.12603 0.12316 0.47806 0.0
H3949 H 0.1482 0.12761 0.47531 0.0
H3950 H 0.13313 0.13523 0.46014 0.0
H3951 H 0.14909 0.11696 0.48133 0.0
C3952 C 0.14517 0.11779 0.48545 0.0
C3953 C 0.13027 0.12555 0.47504 0.0
C3954 C 0.12874 0.1292 0.46875 0.0
C3955 C 0.13729 0.12476 0.47734 0.0
C3956 C 0.1428 0.12791 0.47344 0.0
C3957 C 0.14131 0.13177 0.46728 0.0
C3958 C 0.13429 0.13231 0.46494 0.0
N3959 N 0.13861 0.12104 0.48375 0.0
H3960 H 0.14231 0.87804 0.72776 0.0
H3961 H 0.13916 0.9004 0.72451 0.0
H3962 H 0.13391 0.88568 0.70807 0.0
H3963 H 0.1489 0.90084 0.73185 0.0
C3964 C 0.14751 0.89694 0.73583 0.0
C3965 C 0.14067 0.88239 0.72441 0.0
C3966 C 0.13815 0.88104 0.71755 0.0
C3967 C 0.14129 0.88937 0.72688 0.0
C3968 C 0.13899 0.89502 0.72257 0.0
C3969 C 0.13639 0.89371 0.71575 0.0
C3970 C 0.13607 0.88673 0.71327 0.0
N3971 N 0.14411 0.89055 0.73376 0.0
H3972 H 0.38758 0.89178 0.97668 0.0
H3973 H 0.36553 0.88621 0.97519 0.0
H3974 H 0.38004 0.87941 0.95914 0.0
H3975 H 0.36449 0.89694 0.98109 0.0
C3976 C 0.36861 0.89628 0.98504 0.0
C3977 C 0.38328 0.8892 0.97389 0.0
C3978 C 0.38461 0.88564 0.96751 0.0
C3979 C 0.37638 0.88964 0.97659 0.0
C3980 C 0.37081 0.88621 0.973 0.0
C3981 C 0.37213 0.88242 0.96676 0.0
C3982 C 0.37901 0.88226 0.96401 0.0
N3983 N 0.37523 0.89331 0.98305 0.0
H3984 H 0.3725 0.87685 0.28664 0.0
H3985 H 0.37737 0.89911 0.28761 0.0
H3986 H 0.38416 0.88527 0.30426 0.0
H3987 H 0.36709 0.89976 0.28111 0.0
C3988 C 0.36786 0.89542 0.27742 0.0
C3989 C 0.37488 0.8813 0.28936 0.0
C3990 C 0.3783 0.88026 0.29587 0.0
C3991 C 0.37432 0.8881 0.28644 0.0
C3992 C 0.37748 0.89388 0.28995 0.0
C3993 C 0.38111 0.89286 0.29634 0.0
C3994 C 0.38141 0.88606 0.29929 0.0
N3995 N 0.37081 0.88894 0.27983 0.0
H3996 H 0.38763 0.12196 0.53686 0.0
H3997 H 0.36527 0.12506 0.54002 0.0
H3998 H 0.37992 0.13058 0.55643 0.0
H3999 H 0.3649 0.11523 0.53277 0.0
C4000 C 0.36878 0.11665 0.52879 0.0
C4001 C 0.38327 0.12363 0.54018 0.0
C4002 C 0.38461 0.12623 0.54701 0.0
C4003 C 0.37631 0.12296 0.5377 0.0
C4004 C 0.37065 0.12527 0.54197 0.0
C4005 C 0.37193 0.12795 0.54877 0.0
C4006 C 0.3789 0.12834 0.55125 0.0
N4007 N 0.37515 0.12009 0.53084 0.0
H4008 H 0.14196 0.13697 0.78553 0.0
H4009 H 0.13613 0.11501 0.78742 0.0
H4010 H 0.12921 0.12996 0.803 0.0
H4011 H 0.14599 0.11334 0.78103 0.0
C4012 C 0.14601 0.11772 0.77732 0.0
C4013 C 0.13929 0.13276 0.78837 0.0
C4014 C 0.13559 0.13429 0.79463 0.0
C4015 C 0.13972 0.1258 0.78583 0.0
C4016 C 0.13616 0.12035 0.78948 0.0
C4017 C 0.13232 0.12183 0.79565 0.0
C4018 C 0.13214 0.12879 0.79822 0.0
N4019 N 0.14353 0.12449 0.77947 0.0
H4020 H 0.12745 0.89222 0.03665 0.0
H4021 H 0.14979 0.88829 0.03865 0.0
H4022 H 0.13574 0.88265 0.05554 0.0
H4023 H 0.15029 0.89795 0.03133 0.0
C4024 C 0.14606 0.89681 0.02761 0.0
C4025 C 0.13189 0.8903 0.03972 0.0
C4026 C 0.13079 0.88751 0.04651 0.0
C4027 C 0.13874 0.8908 0.03692 0.0
C4028 C 0.14451 0.88818 0.04085 0.0
C4029 C 0.14347 0.88529 0.04761 0.0
C4030 C 0.13661 0.88505 0.0504 0.0
N4031 N 0.13964 0.89375 0.03006 0.0
H4032 H 0.22762 0.37242 0.13647 0.0
H4033 H 0.22572 0.37936 0.11482 0.0
H4034 H 0.20978 0.38492 0.12994 0.0
H4035 H 0.23226 0.36956 0.11277 0.0
C4036 C 0.23602 0.36952 0.11711 0.0
C4037 C 0.22473 0.3752 0.13237 0.0
C4038 C 0.21832 0.37858 0.13399 0.0
C4039 C 0.22735 0.37523 0.12542 0.0
C4040 C 0.22363 0.37897 0.12012 0.0
C4041 C 0.21733 0.38255 0.12176 0.0
C4042 C 0.21468 0.38223 0.12867 0.0
N4043 N 0.23384 0.37169 0.12397 0.0
H4044 H 0.72722 0.14067 0.87559 0.0
H4045 H 0.72441 0.13766 0.89796 0.0
H4046 H 0.70822 0.13101 0.88351 0.0
H4047 H 0.73172 0.14725 0.89842 0.0
C4048 C 0.73555 0.14608 0.89432 0.0
C4049 C 0.72401 0.13886 0.87998 0.0
C4050 C 0.71733 0.13587 0.87872 0.0
C4051 C 0.72654 0.13971 0.8869 0.0
C4052 C 0.72243 0.13726 0.89261 0.0
C4053 C 0.71577 0.13418 0.89143 0.0
C4054 C 0.71326 0.13356 0.88447 0.0
N4055 N 0.73331 0.14281 0.88792 0.0
H4056 H 0.12227 0.47755 0.12559 0.0
H4057 H 0.12743 0.47543 0.14766 0.0
H4058 H 0.13476 0.45993 0.13279 0.0
H4059 H 0.11697 0.48157 0.14881 0.0
C4060 C 0.11756 0.48552 0.14468 0.0
C4061 C 0.1248 0.47464 0.12983 0.0
C4062 C 0.1285 0.46836 0.12836 0.0
C4063 C 0.1242 0.47713 0.1368 0.0
C4064 C 0.12756 0.4734 0.14231 0.0
C4065 C 0.13145 0.46723 0.14088 0.0
C4066 C 0.1318 0.46471 0.13391 0.0
N4067 N 0.12048 0.48355 0.13804 0.0
H4068 H 0.78692 0.87258 0.37569 0.0
H4069 H 0.79012 0.8751 0.3981 0.0
H4070 H 0.80653 0.88095 0.3836 0.0
H4071 H 0.78291 0.86527 0.39823 0.0
C4072 C 0.77889 0.8668 0.39441 0.0
C4073 C 0.79026 0.87413 0.38008 0.0
C4074 C 0.79709 0.87675 0.37881 0.0
C4075 C 0.78778 0.87328 0.38703 0.0
C4076 C 0.79206 0.87545 0.39274 0.0
C4077 C 0.79887 0.87815 0.39153 0.0
C4078 C 0.80135 0.8787 0.38457 0.0
N4079 N 0.78092 0.87039 0.38813 0.0
H4080 H 0.88879 0.03555 0.126 0.0
H4081 H 0.88786 0.03896 0.1485 0.0
H4082 H 0.87896 0.05431 0.13434 0.0
H4083 H 0.8975 0.03175 0.14839 0.0
C4084 C 0.89612 0.02784 0.14441 0.0
C4085 C 0.88733 0.03885 0.13046 0.0
C4086 C 0.88369 0.04523 0.12933 0.0
C4087 C 0.88897 0.03658 0.13733 0.0
C4088 C 0.88685 0.04073 0.14315 0.0
C4089 C 0.88329 0.04717 0.1421 0.0
C4090 C 0.88177 0.04938 0.13518 0.0
N4091 N 0.89242 0.02994 0.13821 0.0
H4092 H 0.28602 0.64163 0.63756 0.0
H4093 H 0.28918 0.63883 0.61517 0.0
H4094 H 0.30575 0.63347 0.6297 0.0
H4095 H 0.28146 0.64813 0.61472 0.0
C4096 C 0.27763 0.64679 0.61878 0.0
C4097 C 0.28937 0.64008 0.63318 0.0
C4098 C 0.29625 0.63758 0.63447 0.0
C4099 C 0.28685 0.64078 0.62623 0.0
C4100 C 0.29115 0.63861 0.62054 0.0
C4101 C 0.29801 0.63605 0.62177 0.0
C4102 C 0.30052 0.63563 0.62873 0.0
N4103 N 0.27992 0.64352 0.62515 0.0
H4104 H 0.12324 0.53634 0.38658 0.0
H4105 H 0.12668 0.53856 0.3642 0.0
H4106 H 0.13297 0.55517 0.37833 0.0
H4107 H 0.11695 0.53135 0.36383 0.0
C4108 C 0.11812 0.52757 0.36799 0.0
C4109 C 0.12514 0.53943 0.38214 0.0
C4110 C 0.12806 0.54616 0.38328 0.0
C4111 C 0.12444 0.53671 0.37527 0.0
C4112 C 0.12698 0.54068 0.3695 0.0
C4113 C 0.12999 0.54739 0.37056 0.0
C4114 C 0.13047 0.55009 0.37746 0.0
N4115 N 0.12136 0.5299 0.37436 0.0
H4116 H 0.39072 0.47817 0.88776 0.0
H4117 H 0.38574 0.47651 0.8656 0.0
H4118 H 0.37845 0.46063 0.88005 0.0
H4119 H 0.39604 0.48288 0.86462 0.0
C4120 C 0.39544 0.48668 0.86889 0.0
C4121 C 0.38825 0.47534 0.88343 0.0
C4122 C 0.3846 0.469 0.88473 0.0
C4123 C 0.38888 0.478 0.87653 0.0
C4124 C 0.3856 0.47437 0.8709 0.0
C4125 C 0.38176 0.46814 0.87217 0.0
C4126 C 0.38138 0.46546 0.87907 0.0
N4127 N 0.39254 0.48449 0.87547 0.0
H4128 H 0.87575 0.78654 0.63985 0.0
H4129 H 0.89824 0.78833 0.6368 0.0
H4130 H 0.88453 0.80525 0.63037 0.0
H4131 H 0.8982 0.78131 0.64675 0.0
C4132 C 0.89411 0.77752 0.64538 0.0
C4133 C 0.88028 0.78954 0.63805 0.0
C4134 C 0.87933 0.79632 0.63515 0.0
C4135 C 0.88709 0.7867 0.63885 0.0
C4136 C 0.89298 0.79056 0.63643 0.0
C4137 C 0.8921 0.7973 0.63342 0.0
C4138 C 0.88527 0.80014 0.63286 0.0
N4139 N 0.88785 0.77987 0.64194 0.0
H4140 H 0.97798 0.12776 0.39071 0.0
H4141 H 0.97581 0.1502 0.38735 0.0
H4142 H 0.95931 0.13609 0.38073 0.0
H4143 H 0.98256 0.15036 0.39752 0.0
C4144 C 0.98648 0.14636 0.39625 0.0
C4145 C 0.97493 0.13222 0.38879 0.0
C4146 C 0.96824 0.13111 0.38576 0.0
C4147 C 0.97762 0.13909 0.38958 0.0
C4148 C 0.97369 0.14489 0.387 0.0
C4149 C 0.96704 0.14385 0.38386 0.0
C4150 C 0.96436 0.13695 0.38332 0.0
N4151 N 0.98436 0.14002 0.3928 0.0
H4152 H 0.63675 0.22835 0.13975 0.0
H4153 H 0.61457 0.22519 0.13573 0.0
H4154 H 0.6296 0.20949 0.12921 0.0
H4155 H 0.61337 0.23241 0.14506 0.0
C4156 C 0.61758 0.23626 0.14444 0.0
C4157 C 0.6325 0.22512 0.13766 0.0
C4158 C 0.63402 0.21856 0.13451 0.0
C4159 C 0.6255 0.22749 0.13831 0.0
C4160 C 0.61998 0.22334 0.1355 0.0
C4161 C 0.62141 0.2168 0.13228 0.0
C4162 C 0.62844 0.21444 0.13186 0.0
N4163 N 0.62421 0.23414 0.1416 0.0
H4164 H 0.53609 0.88762 0.89085 0.0
H4165 H 0.53952 0.86529 0.88771 0.0
H4166 H 0.55575 0.88014 0.8822 0.0
H4167 H 0.53219 0.86476 0.8974 0.0
C4168 C 0.52819 0.86866 0.89606 0.0
C4169 C 0.53947 0.8833 0.88917 0.0
C4170 C 0.54628 0.88472 0.88657 0.0
C4171 C 0.53706 0.8763 0.88983 0.0
C4172 C 0.5414 0.87069 0.8875 0.0
C4173 C 0.54819 0.87205 0.88482 0.0
C4174 C 0.55059 0.87906 0.88444 0.0
N4175 N 0.53022 0.87507 0.89269 0.0
H4176 H 0.87587 0.22883 0.87496 0.0
H4177 H 0.89849 0.22614 0.8755 0.0
H4178 H 0.88502 0.2106 0.88505 0.0
H4179 H 0.8978 0.23287 0.86545 0.0
C4180 C 0.8939 0.2368 0.86699 0.0
C4181 C 0.88047 0.22573 0.87642 0.0
C4182 C 0.87962 0.2194 0.88022 0.0
C4183 C 0.88724 0.22815 0.87458 0.0
C4184 C 0.89323 0.22423 0.87667 0.0
C4185 C 0.89245 0.21785 0.8804 0.0
C4186 C 0.88564 0.21548 0.88211 0.0
N4187 N 0.88787 0.23473 0.87097 0.0
H4188 H 0.53513 0.12608 0.62528 0.0
H4189 H 0.53914 0.14855 0.62526 0.0
H4190 H 0.55445 0.1343 0.63402 0.0
H4191 H 0.53172 0.14819 0.61574 0.0
C4192 C 0.52773 0.14441 0.6174 0.0
C4193 C 0.53858 0.13051 0.62645 0.0
C4194 C 0.54505 0.12936 0.6299 0.0
C4195 C 0.53644 0.13739 0.62461 0.0
C4196 C 0.54081 0.14318 0.62637 0.0
C4197 C 0.54735 0.14207 0.62969 0.0
C4198 C 0.54943 0.13516 0.63138 0.0
N4199 N 0.52973 0.13833 0.62133 0.0
H4200 H 0.63808 0.78636 0.37425 0.0
H4201 H 0.61551 0.78943 0.37485 0.0
H4202 H 0.62925 0.80444 0.38489 0.0
H4203 H 0.6163 0.78325 0.36433 0.0
C4204 C 0.61998 0.77911 0.36586 0.0
C4205 C 0.63354 0.7895 0.37581 0.0
C4206 C 0.63449 0.79569 0.3798 0.0
C4207 C 0.62673 0.78725 0.37389 0.0
C4208 C 0.62081 0.79121 0.3761 0.0
C4209 C 0.62169 0.79745 0.38003 0.0
C4210 C 0.62855 0.79965 0.38181 0.0
N4211 N 0.62598 0.78081 0.37006 0.0
H4212 H 0.97868 0.88738 0.12463 0.0
H4213 H 0.97503 0.86512 0.12787 0.0
H4214 H 0.95921 0.88019 0.13391 0.0
H4215 H 0.98661 0.8644 0.12779 0.0
C4216 C 0.98854 0.86845 0.12421 0.0
C4217 C 0.97532 0.88311 0.12645 0.0
C4218 C 0.96856 0.88462 0.12917 0.0
C4219 C 0.97779 0.87612 0.12608 0.0
C4220 C 0.97337 0.87056 0.12836 0.0
C4221 C 0.96665 0.87199 0.13118 0.0
C4222 C 0.9643 0.87902 0.13154 0.0
N4223 N 0.98468 0.87485 0.1233 0.0
H4224 H 0.63932 0.87609 0.78512 0.0
H4225 H 0.63601 0.8983 0.78909 0.0
H4226 H 0.63043 0.88301 0.80486 0.0
H4227 H 0.6445 0.89965 0.78112 0.0
C4228 C 0.64388 0.89538 0.77733 0.0
C4229 C 0.63759 0.88031 0.78859 0.0
C4230 C 0.63489 0.87869 0.79532 0.0
C4231 C 0.63822 0.88736 0.78635 0.0
C4232 C 0.63583 0.89284 0.79081 0.0
C4233 C 0.63312 0.8913 0.79754 0.0
C4234 C 0.63272 0.88423 0.79975 0.0
N4235 N 0.64114 0.88873 0.77955 0.0
H4236 H 0.88779 0.89085 0.53642 0.0
H4237 H 0.86529 0.88784 0.53825 0.0
H4238 H 0.87902 0.88127 0.55508 0.0
H4239 H 0.86526 0.89769 0.53115 0.0
C4240 C 0.86941 0.89638 0.5274 0.0
C4241 C 0.88326 0.88905 0.53943 0.0
C4242 C 0.88422 0.8861 0.54618 0.0
C4243 C 0.87644 0.88989 0.53661 0.0
C4244 C 0.87055 0.88746 0.54047 0.0
C4245 C 0.87144 0.88441 0.54718 0.0
C4246 C 0.87828 0.88381 0.54999 0.0
N4247 N 0.87569 0.893 0.5298 0.0
H4248 H 0.87484 0.1374 0.28514 0.0
H4249 H 0.87829 0.11502 0.28787 0.0
H4250 H 0.88366 0.12942 0.30453 0.0
H4251 H 0.87908 0.11509 0.27622 0.0
C4252 C 0.87523 0.11896 0.27443 0.0
C4253 C 0.87661 0.133 0.28836 0.0
C4254 C 0.87911 0.13421 0.29526 0.0
C4255 C 0.87642 0.12612 0.28557 0.0
C4256 C 0.87866 0.12039 0.28981 0.0
C4257 C 0.88126 0.12154 0.29666 0.0
C4258 C 0.88144 0.12846 0.29933 0.0
N4259 N 0.87387 0.12511 0.27855 0.0
H4260 H 0.62673 0.12484 0.03452 0.0
H4261 H 0.64888 0.12839 0.03856 0.0
H4262 H 0.6335 0.13379 0.0543 0.0
H4263 H 0.65044 0.12026 0.0303 0.0
C4264 C 0.64606 0.12068 0.02662 0.0
C4265 C 0.63092 0.12662 0.03801 0.0
C4266 C 0.62926 0.12929 0.04473 0.0
C4267 C 0.63798 0.12607 0.03578 0.0
C4268 C 0.64342 0.12851 0.04026 0.0
C4269 C 0.64184 0.13119 0.047 0.0
C4270 C 0.63476 0.13151 0.04919 0.0
N4271 N 0.63936 0.12319 0.02896 0.0
H4272 H 0.63967 0.13828 0.72809 0.0
H4273 H 0.63725 0.11592 0.7244 0.0
H4274 H 0.63141 0.13078 0.70827 0.0
H4275 H 0.64628 0.11532 0.73233 0.0
C4276 C 0.64494 0.11937 0.73617 0.0
C4277 C 0.63816 0.13396 0.72464 0.0
C4278 C 0.63555 0.13538 0.71783 0.0
C4279 C 0.639 0.12697 0.72699 0.0
C4280 C 0.63691 0.12134 0.72257 0.0
C4281 C 0.63425 0.12268 0.71577 0.0
C4282 C 0.63366 0.12971 0.71344 0.0
N4283 N 0.64173 0.12579 0.7339 0.0
H4284 H 0.62611 0.89092 0.47681 0.0
H4285 H 0.64852 0.88746 0.4747 0.0
H4286 H 0.63444 0.88091 0.45817 0.0
H4287 H 0.6489 0.89733 0.48156 0.0
C4288 C 0.64478 0.89626 0.48541 0.0
C4289 C 0.63057 0.88899 0.47377 0.0
C4290 C 0.62946 0.88595 0.46708 0.0
C4291 C 0.63744 0.88976 0.47648 0.0
C4292 C 0.64322 0.88714 0.47257 0.0
C4293 C 0.64219 0.88401 0.46592 0.0
C4294 C 0.6353 0.88349 0.46321 0.0
N4295 N 0.63837 0.893 0.48321 0.0
H4296 H 0.87307 0.87652 0.2273 0.0
H4297 H 0.87617 0.89887 0.22428 0.0
H4298 H 0.88343 0.88417 0.20857 0.0
H4299 H 0.86573 0.89912 0.23073 0.0
C4300 C 0.86701 0.89532 0.23486 0.0
C4301 C 0.87501 0.88086 0.22411 0.0
C4302 C 0.87824 0.8795 0.21756 0.0
C4303 C 0.87407 0.88783 0.22649 0.0
C4304 C 0.87666 0.89349 0.2224 0.0
C4305 C 0.88 0.89221 0.21589 0.0
C4306 C 0.88071 0.88521 0.2135 0.0
N4307 N 0.87066 0.88898 0.23309 0.0
H4308 H 0.88794 0.12415 0.97685 0.0
H4309 H 0.86564 0.12881 0.97624 0.0
H4310 H 0.87923 0.13646 0.9598 0.0
H4311 H 0.86518 0.11831 0.98242 0.0
C4312 C 0.86953 0.11904 0.9861 0.0
C4313 C 0.88345 0.12658 0.97425 0.0
C4314 C 0.88439 0.13029 0.96788 0.0
C4315 C 0.87668 0.12584 0.97721 0.0
C4316 C 0.87084 0.12906 0.97387 0.0
C4317 C 0.87176 0.13297 0.96763 0.0
C4318 C 0.87852 0.13348 0.96465 0.0
N4319 N 0.87596 0.12211 0.9837 0.0
H4320 H 0.78563 0.6409 0.87596 0.0
H4321 H 0.78866 0.63811 0.89836 0.0
H4322 H 0.80516 0.63235 0.88391 0.0
H4323 H 0.78137 0.64786 0.8986 0.0
C4324 C 0.77742 0.64643 0.89468 0.0
C4325 C 0.78893 0.63929 0.88035 0.0
C4326 C 0.79577 0.63665 0.8791 0.0
C4327 C 0.7864 0.64005 0.88729 0.0
C4328 C 0.79064 0.63782 0.893 0.0
C4329 C 0.79745 0.63511 0.89181 0.0
C4330 C 0.79997 0.63461 0.88487 0.0
N4331 N 0.77953 0.64295 0.88836 0.0
H4332 H 0.28499 0.87589 0.13723 0.0
H4333 H 0.28779 0.87962 0.11491 0.0
H4334 H 0.301 0.89027 0.12992 0.0
H4335 H 0.28174 0.86958 0.11372 0.0
C4336 C 0.278 0.86955 0.11806 0.0
C4337 C 0.28779 0.87845 0.13293 0.0
C4338 C 0.29321 0.88329 0.13442 0.0
C4339 C 0.2858 0.87701 0.12592 0.0
C4340 C 0.28936 0.88045 0.12034 0.0
C4341 C 0.29481 0.88529 0.12177 0.0
C4342 C 0.2967 0.88664 0.12881 0.0
N4343 N 0.27992 0.87246 0.12473 0.0
H4344 H 0.89032 0.53663 0.88755 0.0
H4345 H 0.88747 0.53894 0.86508 0.0
H4346 H 0.8802 0.55521 0.87914 0.0
H4347 H 0.89799 0.53257 0.86524 0.0
C4348 C 0.8966 0.52851 0.86906 0.0
C4349 C 0.88845 0.53969 0.88308 0.0
C4350 C 0.88527 0.54633 0.88417 0.0
C4351 C 0.88945 0.53708 0.8762 0.0
C4352 C 0.88694 0.54101 0.87039 0.0
C4353 C 0.88365 0.54759 0.87141 0.0
C4354 C 0.8829 0.55021 0.87831 0.0
N4355 N 0.89283 0.53041 0.87528 0.0
H4356 H 0.22793 0.14104 0.63623 0.0
H4357 H 0.22444 0.13822 0.61389 0.0
H4358 H 0.20805 0.13301 0.62866 0.0
H4359 H 0.23205 0.14766 0.61341 0.0
C4360 C 0.23599 0.14623 0.61734 0.0
C4361 C 0.22451 0.13951 0.6319 0.0
C4362 C 0.21763 0.13706 0.63328 0.0
C4363 C 0.22694 0.14018 0.62492 0.0
C4364 C 0.22255 0.13802 0.61929 0.0
C4365 C 0.21569 0.13551 0.62061 0.0
C4366 C 0.21327 0.13512 0.6276 0.0
N4367 N 0.23385 0.14289 0.62373 0.0
H4368 H 0.12399 0.97875 0.88777 0.0
H4369 H 0.12669 0.97479 0.86552 0.0
H4370 H 0.13243 0.95886 0.88063 0.0
H4371 H 0.11762 0.98265 0.86471 0.0
C4372 C 0.11885 0.98655 0.86874 0.0
C4373 C 0.12557 0.97525 0.88352 0.0
C4374 C 0.12819 0.96846 0.88506 0.0
C4375 C 0.1248 0.97751 0.8765 0.0
C4376 C 0.12698 0.97303 0.87095 0.0
C4377 C 0.12966 0.96625 0.87242 0.0
C4378 C 0.13018 0.96401 0.87947 0.0
N4379 N 0.12202 0.98439 0.87521 0.0
H4380 H 0.72886 0.37492 0.37485 0.0
H4381 H 0.72645 0.37793 0.39732 0.0
H4382 H 0.71293 0.38904 0.3829 0.0
H4383 H 0.73165 0.36688 0.39757 0.0
C4384 C 0.73575 0.36761 0.39362 0.0
C4385 C 0.72612 0.37734 0.37926 0.0
C4386 C 0.72063 0.38219 0.37802 0.0
C4387 C 0.72822 0.37569 0.38619 0.0
C4388 C 0.72475 0.37894 0.39194 0.0
C4389 C 0.7193 0.38383 0.39075 0.0
C4390 C 0.71726 0.38538 0.3838 0.0
N4391 N 0.73415 0.37116 0.38719 0.0
H4392 H 0.89048 0.47802 0.62627 0.0
H4393 H 0.88734 0.47554 0.64867 0.0
H4394 H 0.88047 0.45928 0.63439 0.0
H4395 H 0.89765 0.48216 0.64878 0.0
C4396 C 0.8963 0.48618 0.6449 0.0
C4397 C 0.88859 0.47491 0.63069 0.0
C4398 C 0.88551 0.46825 0.6295 0.0
C4399 C 0.88946 0.47749 0.63759 0.0
C4400 C 0.88691 0.4735 0.64334 0.0
C4401 C 0.88372 0.46688 0.64223 0.0
C4402 C 0.8831 0.4643 0.6353 0.0
N4403 N 0.89272 0.4842 0.63859 0.0
H4404 H 0.62424 0.53608 0.12634 0.0
H4405 H 0.62975 0.5381 0.14835 0.0
H4406 H 0.63664 0.55377 0.13348 0.0
H4407 H 0.61977 0.53168 0.14981 0.0
C4408 C 0.62001 0.52788 0.14551 0.0
C4409 C 0.62681 0.53897 0.13057 0.0
C4410 C 0.63043 0.54529 0.12909 0.0
C4411 C 0.62634 0.53643 0.13753 0.0
C4412 C 0.62976 0.54015 0.14301 0.0
C4413 C 0.63354 0.54638 0.14157 0.0
C4414 C 0.63377 0.54894 0.13462 0.0
N4415 N 0.62264 0.53 0.13879 0.0
H4416 H 0.63766 0.72958 0.87462 0.0
H4417 H 0.61538 0.72481 0.87501 0.0
H4418 H 0.63029 0.71007 0.88369 0.0
H4419 H 0.61536 0.73207 0.86536 0.0
C4420 C 0.61899 0.73624 0.86693 0.0
C4421 C 0.63338 0.726 0.8759 0.0
C4422 C 0.63482 0.71959 0.87938 0.0
C4423 C 0.62641 0.72789 0.87418 0.0
C4424 C 0.62081 0.72334 0.87607 0.0
C4425 C 0.6222 0.71686 0.87943 0.0
C4426 C 0.62921 0.71503 0.88103 0.0
N4427 N 0.62518 0.73453 0.87085 0.0
H4428 H 0.53505 0.38729 0.12445 0.0
H4429 H 0.53987 0.36502 0.12568 0.0
H4430 H 0.55443 0.38024 0.13405 0.0
H4431 H 0.5323 0.36424 0.11664 0.0
C4432 C 0.5283 0.36823 0.11764 0.0
C4433 C 0.53862 0.38305 0.12592 0.0
C4434 C 0.54496 0.38462 0.12946 0.0
C4435 C 0.53676 0.37602 0.1244 0.0
C4436 C 0.5413 0.37049 0.12656 0.0
C4437 C 0.54772 0.372 0.12995 0.0
C4438 C 0.54951 0.37906 0.13135 0.0
N4439 N 0.53017 0.3747 0.12101 0.0
H4440 H 0.87608 0.28698 0.37232 0.0
H4441 H 0.89821 0.28882 0.37739 0.0
H4442 H 0.88355 0.30454 0.3847 0.0
H4443 H 0.89936 0.28233 0.36726 0.0
C4444 C 0.89504 0.27856 0.36772 0.0
C4445 C 0.88037 0.28983 0.37482 0.0
C4446 C 0.87899 0.29614 0.3785 0.0
C4447 C 0.8873 0.28725 0.3742 0.0
C4448 C 0.89288 0.29091 0.37753 0.0
C4449 C 0.89154 0.29712 0.38139 0.0
C4450 C 0.8846 0.29973 0.38176 0.0
N4451 N 0.88842 0.28078 0.37051 0.0
H4452 H 0.97628 0.62683 0.62182 0.0
H4453 H 0.97546 0.6489 0.62753 0.0
H4454 H 0.95901 0.63482 0.63426 0.0
H4455 H 0.98171 0.64994 0.61714 0.0
C4456 C 0.9854 0.64556 0.61761 0.0
C4457 C 0.97363 0.6312 0.62442 0.0
C4458 C 0.96722 0.63004 0.62799 0.0
C4459 C 0.97654 0.63802 0.62403 0.0
C4460 C 0.97313 0.64368 0.6275 0.0
C4461 C 0.96684 0.64252 0.63128 0.0
C4462 C 0.96389 0.63572 0.6314 0.0
N4463 N 0.98305 0.63897 0.62038 0.0
H4464 H 0.63608 0.28572 0.63965 0.0
H4465 H 0.6136 0.28963 0.63954 0.0
H4466 H 0.6278 0.30499 0.63082 0.0
H4467 H 0.61413 0.2825 0.64936 0.0
C4468 C 0.61778 0.27841 0.64763 0.0
C4469 C 0.63164 0.28914 0.63844 0.0
C4470 C 0.63277 0.29561 0.63498 0.0
C4471 C 0.62476 0.28698 0.64025 0.0
C4472 C 0.61896 0.29132 0.63845 0.0
C4473 C 0.62006 0.29786 0.63512 0.0
C4474 C 0.62696 0.29996 0.63346 0.0
N4475 N 0.62382 0.28028 0.64357 0.0
H4476 H 0.97703 0.38762 0.892 0.0
H4477 H 0.97386 0.36524 0.88898 0.0
H4478 H 0.95747 0.3799 0.88334 0.0
H4479 H 0.98107 0.36493 0.89887 0.0
C4480 C 0.98507 0.36879 0.89742 0.0
C4481 C 0.9737 0.38326 0.89034 0.0
C4482 C 0.96688 0.38459 0.88771 0.0
C4483 C 0.97619 0.37629 0.89104 0.0
C4484 C 0.97192 0.37062 0.88873 0.0
C4485 C 0.96513 0.3719 0.88602 0.0
C4486 C 0.96265 0.37888 0.8856 0.0
N4487 N 0.98304 0.37514 0.89393 0.0
H4488 H 0.87609 0.72792 0.14034 0.0
H4489 H 0.8984 0.72438 0.13739 0.0
H4490 H 0.88354 0.70812 0.13196 0.0
H4491 H 0.89918 0.73235 0.14636 0.0
C4492 C 0.89504 0.73615 0.14517 0.0
C4493 C 0.8804 0.7245 0.13874 0.0
C4494 C 0.87897 0.71766 0.13618 0.0
C4495 C 0.88739 0.72691 0.1394 0.0
C4496 C 0.893 0.72251 0.13718 0.0
C4497 C 0.89163 0.71568 0.13458 0.0
C4498 C 0.88462 0.7133 0.13417 0.0
N4499 N 0.88857 0.73383 0.14211 0.0
H4500 H 0.53658 0.62772 0.3897 0.0
H4501 H 0.53995 0.6502 0.38795 0.0
H4502 H 0.55494 0.63576 0.37896 0.0
H4503 H 0.53282 0.6507 0.39731 0.0
C4504 C 0.52903 0.64645 0.39658 0.0
C4505 C 0.5398 0.63214 0.38798 0.0
C4506 C 0.54604 0.63089 0.38413 0.0
C4507 C 0.5376 0.63906 0.38951 0.0
C4508 C 0.54166 0.64482 0.38705 0.0
C4509 C 0.54797 0.64365 0.38331 0.0
C4510 C 0.55011 0.63668 0.38191 0.0
N4511 N 0.53113 0.64004 0.39323 0.0
H4512 H 0.87217 0.63795 0.72762 0.0
H4513 H 0.87717 0.61579 0.72571 0.0
H4514 H 0.8846 0.63048 0.7101 0.0
H4515 H 0.86639 0.6149 0.7315 0.0
C4516 C 0.8671 0.61894 0.73553 0.0
C4517 C 0.87468 0.63365 0.72477 0.0
C4518 C 0.87838 0.63504 0.71848 0.0
C4519 C 0.87403 0.6267 0.72731 0.0
C4520 C 0.87736 0.62112 0.72364 0.0
C4521 C 0.88126 0.62248 0.71748 0.0
C4522 C 0.88165 0.62942 0.7149 0.0
N4523 N 0.87025 0.62552 0.7337 0.0
H4524 H 0.62683 0.62326 0.97742 0.0
H4525 H 0.64919 0.62642 0.97437 0.0
H4526 H 0.63467 0.63105 0.95757 0.0
H4527 H 0.6498 0.61738 0.98233 0.0
C4528 C 0.64565 0.61866 0.98609 0.0
C4529 C 0.63121 0.6248 0.97407 0.0
C4530 C 0.62993 0.6271 0.96713 0.0
C4531 C 0.63815 0.6243 0.97667 0.0
C4532 C 0.64384 0.62648 0.97236 0.0
C4533 C 0.64261 0.62884 0.96543 0.0
C4534 C 0.63566 0.62905 0.96285 0.0
N4535 N 0.63923 0.62174 0.98366 0.0
H4536 H 0.64134 0.37718 0.22692 0.0
H4537 H 0.6384 0.39942 0.2229 0.0
H4538 H 0.63253 0.38417 0.20716 0.0
H4539 H 0.64765 0.40031 0.23056 0.0
C4540 C 0.64647 0.39632 0.23452 0.0
C4541 C 0.63968 0.38141 0.22343 0.0
C4542 C 0.63696 0.37982 0.21671 0.0
C4543 C 0.64042 0.38846 0.22564 0.0
C4544 C 0.63813 0.39397 0.22117 0.0
C4545 C 0.63535 0.39245 0.21445 0.0
C4546 C 0.63485 0.38538 0.21226 0.0
N4547 N 0.6433 0.38981 0.23246 0.0
H4548 H 0.88636 0.39258 0.47627 0.0
H4549 H 0.86399 0.38874 0.47435 0.0
H4550 H 0.87799 0.38286 0.4575 0.0
H4551 H 0.86356 0.39853 0.48151 0.0
C4552 C 0.86777 0.39742 0.48525 0.0
C4553 C 0.8819 0.39065 0.47323 0.0
C4554 C 0.88298 0.38779 0.46647 0.0
C4555 C 0.87505 0.39122 0.47604 0.0
C4556 C 0.86927 0.38858 0.47215 0.0
C4557 C 0.87028 0.38561 0.46542 0.0
C4558 C 0.87714 0.38531 0.46261 0.0
N4559 N 0.87417 0.39427 0.48286 0.0
H4560 H 0.87268 0.37737 0.7862 0.0
H4561 H 0.87672 0.39968 0.78858 0.0
H4562 H 0.88266 0.38527 0.80505 0.0
H4563 H 0.86738 0.40059 0.78133 0.0
C4564 C 0.86806 0.39628 0.7776 0.0
C4565 C 0.87468 0.38175 0.78931 0.0
C4566 C 0.87763 0.3805 0.79601 0.0
C4567 C 0.87412 0.38867 0.78665 0.0
C4568 C 0.87686 0.39435 0.79065 0.0
C4569 C 0.87986 0.39317 0.79733 0.0
C4570 C 0.88017 0.38624 0.79997 0.0
N4571 N 0.87094 0.38972 0.77991 0.0
H4572 H 0.88805 0.62323 0.03565 0.0
H4573 H 0.86594 0.62828 0.0378 0.0
H4574 H 0.88077 0.63536 0.05346 0.0
H4575 H 0.86475 0.61813 0.03129 0.0
C4576 C 0.86899 0.61867 0.02746 0.0
C4577 C 0.88379 0.62569 0.03859 0.0
C4578 C 0.88524 0.62928 0.04493 0.0
C4579 C 0.87683 0.62511 0.03608 0.0
C4580 C 0.87129 0.62839 0.03984 0.0
C4581 C 0.8727 0.63216 0.04608 0.0
C4582 C 0.87966 0.63249 0.04862 0.0
N4583 N 0.87563 0.62149 0.02959 0.0
H4584 H 0.64128 0.63726 0.28602 0.0
H4585 H 0.63584 0.61518 0.28782 0.0
H4586 H 0.62949 0.62978 0.30396 0.0
H4587 H 0.64589 0.6139 0.28139 0.0
C4588 C 0.64547 0.61817 0.27757 0.0
C4589 C 0.6388 0.63297 0.2889 0.0
C4590 C 0.63541 0.63433 0.29536 0.0
C4591 C 0.6392 0.62604 0.28623 0.0
C4592 C 0.63589 0.62049 0.28995 0.0
C4593 C 0.63231 0.62183 0.29631 0.0
C4594 C 0.63218 0.62874 0.29901 0.0
N4595 N 0.64275 0.62486 0.2797 0.0
H4596 H 0.62695 0.39238 0.53718 0.0
H4597 H 0.64909 0.38712 0.53839 0.0
H4598 H 0.63484 0.37984 0.55444 0.0
H4599 H 0.64986 0.39802 0.53266 0.0
C4600 C 0.64576 0.39725 0.52871 0.0
C4601 C 0.6313 0.38983 0.53989 0.0
C4602 C 0.63009 0.38615 0.54622 0.0
C4603 C 0.63817 0.3904 0.53713 0.0
C4604 C 0.64382 0.387 0.54062 0.0
C4605 C 0.64262 0.3831 0.54681 0.0
C4606 C 0.63577 0.38279 0.54962 0.0
N4607 N 0.63921 0.39416 0.5307 0.0
H4608 H 0.72723 0.87269 0.63675 0.0
H4609 H 0.72347 0.8752 0.61443 0.0
H4610 H 0.70746 0.88117 0.62934 0.0
H4611 H 0.73088 0.86556 0.61402 0.0
C4612 C 0.73491 0.86701 0.61785 0.0
C4613 C 0.72378 0.87425 0.63245 0.0
C4614 C 0.717 0.87692 0.63389 0.0
C4615 C 0.72609 0.87339 0.62545 0.0
C4616 C 0.72167 0.87556 0.61985 0.0
C4617 C 0.7149 0.8783 0.62123 0.0
C4618 C 0.7126 0.87889 0.62825 0.0
N4619 N 0.73293 0.87051 0.62421 0.0
H4620 H 0.22673 0.64238 0.3765 0.0
H4621 H 0.22447 0.639 0.3989 0.0
H4622 H 0.20784 0.63279 0.38476 0.0
H4623 H 0.23123 0.64922 0.39904 0.0
C4624 C 0.23519 0.64786 0.39511 0.0
C4625 C 0.22363 0.64053 0.38094 0.0
C4626 C 0.21688 0.63763 0.37982 0.0
C4627 C 0.22632 0.64125 0.38782 0.0
C4628 C 0.22235 0.63871 0.39359 0.0
C4629 C 0.21564 0.63571 0.39253 0.0
C4630 C 0.21294 0.63526 0.38564 0.0
N4631 N 0.2331 0.64437 0.38878 0.0
H4632 H 0.62399 0.97858 0.62671 0.0
H4633 H 0.62683 0.97618 0.64919 0.0
H4634 H 0.63753 0.96221 0.63488 0.0
H4635 H 0.61583 0.98151 0.64934 0.0
C4636 C 0.61665 0.98561 0.6454 0.0
C4637 C 0.6263 0.97578 0.63115 0.0
C4638 C 0.63098 0.97013 0.62995 0.0
C4639 C 0.62467 0.97794 0.63806 0.0
C4640 C 0.62781 0.97441 0.64384 0.0
C4641 C 0.63254 0.9688 0.6427 0.0
C4642 C 0.63403 0.96667 0.63576 0.0
N4643 N 0.62026 0.98397 0.63901 0.0
H4644 H 0.28649 0.37253 0.87641 0.0
H4645 H 0.28875 0.3758 0.89883 0.0
H4646 H 0.30522 0.38242 0.8847 0.0
H4647 H 0.28224 0.36535 0.89885 0.0
C4648 C 0.27821 0.36673 0.89498 0.0
C4649 C 0.28956 0.37442 0.88086 0.0
C4650 C 0.29626 0.37744 0.87974 0.0
C4651 C 0.28691 0.37361 0.88774 0.0
C4652 C 0.29085 0.37617 0.89352 0.0
C4653 C 0.2975 0.3793 0.89247 0.0
C4654 C 0.30017 0.37985 0.88557 0.0
N4655 N 0.28019 0.37036 0.8887 0.0
H4656 H 0.39076 0.53608 0.62603 0.0
H4657 H 0.38787 0.53926 0.6484 0.0
H4658 H 0.38278 0.55591 0.63385 0.0
H4659 H 0.39723 0.53153 0.64882 0.0
C4660 C 0.39579 0.52767 0.64482 0.0
C4661 C 0.38922 0.53945 0.6304 0.0
C4662 C 0.38681 0.54636 0.62911 0.0
C4663 C 0.38985 0.53691 0.63735 0.0
C4664 C 0.3877 0.54123 0.64304 0.0
C4665 C 0.38522 0.54813 0.6418 0.0
C4666 C 0.38487 0.55065 0.63484 0.0
N4667 N 0.39251 0.52995 0.63845 0.0
H4668 H 0.78516 0.13993 0.13672 0.0
H4669 H 0.78848 0.13897 0.11422 0.0
H4670 H 0.80387 0.13007 0.12833 0.0
H4671 H 0.78125 0.14861 0.11434 0.0
C4672 C 0.77736 0.14721 0.11832 0.0
C4673 C 0.78843 0.13846 0.13225 0.0
C4674 C 0.79482 0.13482 0.13336 0.0
C4675 C 0.78614 0.14009 0.12538 0.0
C4676 C 0.79027 0.13796 0.11955 0.0
C4677 C 0.79671 0.1344 0.12059 0.0
C4678 C 0.79894 0.13289 0.1275 0.0
N4679 N 0.7795 0.14352 0.12452 0.0
H4680 H 0.62388 0.03495 0.88671 0.0
H4681 H 0.62438 0.03965 0.86442 0.0
H4682 H 0.63315 0.05436 0.87929 0.0
H4683 H 0.61461 0.03251 0.86444 0.0
C4684 C 0.61616 0.02833 0.86806 0.0
C4685 C 0.62521 0.03851 0.88242 0.0
C4686 C 0.62874 0.04489 0.88385 0.0
C4687 C 0.62348 0.03662 0.87545 0.0
C4688 C 0.62543 0.04113 0.86984 0.0
C4689 C 0.62885 0.04758 0.87123 0.0
C4690 C 0.63044 0.04941 0.87822 0.0
N4691 N 0.62009 0.03 0.87424 0.0
H4692 H 0.88866 0.97921 0.38772 0.0
H4693 H 0.88853 0.97561 0.36522 0.0
H4694 H 0.8788 0.96059 0.37915 0.0
H4695 H 0.89819 0.98272 0.36561 0.0
C4696 C 0.89675 0.98667 0.36952 0.0
C4697 C 0.88729 0.97592 0.38322 0.0
C4698 C 0.88349 0.96963 0.38425 0.0
C4699 C 0.88922 0.9781 0.3764 0.0
C4700 C 0.88726 0.97392 0.37053 0.0
C4701 C 0.88357 0.96755 0.37151 0.0
C4702 C 0.88172 0.96546 0.37837 0.0
N4703 N 0.89281 0.98466 0.3756 0.0
H4704 H 0.37706 0.28667 0.13969 0.0
H4705 H 0.39925 0.28956 0.13549 0.0
H4706 H 0.38437 0.30554 0.12929 0.0
H4707 H 0.4005 0.28216 0.1446 0.0
C4708 C 0.39617 0.27842 0.14412 0.0
C4709 C 0.38133 0.28986 0.1376 0.0
C4710 C 0.37988 0.29648 0.13452 0.0
C4711 C 0.38831 0.28739 0.13816 0.0
C4712 C 0.39386 0.29148 0.13534 0.0
C4713 C 0.39249 0.29809 0.13221 0.0
C4714 C 0.38549 0.30054 0.13188 0.0
N4715 N 0.38953 0.28069 0.1414 0.0
H4716 H 0.47843 0.62668 0.88965 0.0
H4717 H 0.47419 0.64893 0.88695 0.0
H4718 H 0.45842 0.63364 0.88135 0.0
H4719 H 0.48209 0.65003 0.89566 0.0
C4720 C 0.48601 0.64594 0.89468 0.0
C4721 C 0.47489 0.63091 0.8881 0.0
C4722 C 0.46811 0.6293 0.8855 0.0
C4723 C 0.47707 0.63797 0.88886 0.0
C4724 C 0.47251 0.64347 0.88668 0.0
C4725 C 0.46573 0.64193 0.88407 0.0
C4726 C 0.46357 0.63485 0.88356 0.0
N4727 N 0.48391 0.63936 0.89169 0.0
H4728 H 0.13675 0.72798 0.64016 0.0
H4729 H 0.11434 0.7259 0.63663 0.0
H4730 H 0.12843 0.70941 0.62997 0.0
H4731 H 0.11395 0.73263 0.64658 0.0
C4732 C 0.11807 0.73651 0.64559 0.0
C4733 C 0.1323 0.72496 0.63819 0.0
C4734 C 0.13341 0.71829 0.63509 0.0
C4735 C 0.12542 0.72766 0.63896 0.0
C4736 C 0.11964 0.72378 0.6363 0.0
C4737 C 0.12068 0.71715 0.63312 0.0
C4738 C 0.12757 0.71445 0.63259 0.0
N4739 N 0.12449 0.73436 0.6423 0.0
H4740 H 0.03489 0.38795 0.38898 0.0
H4741 H 0.03869 0.36563 0.38634 0.0
H4742 H 0.05463 0.3806 0.38039 0.0
H4743 H 0.02706 0.36505 0.38573 0.0
C4744 C 0.02507 0.36903 0.38935 0.0
C4745 C 0.03832 0.38365 0.38736 0.0
C4746 C 0.04514 0.38511 0.38479 0.0
C4747 C 0.03586 0.37666 0.38781 0.0
C4748 C 0.04036 0.37107 0.38577 0.0
C4749 C 0.04715 0.37245 0.38311 0.0
C4750 C 0.04949 0.37948 0.38266 0.0
N4751 N 0.0289 0.37543 0.39042 0.0
H4752 H 0.37696 0.72734 0.37537 0.0
H4753 H 0.3995 0.72437 0.37704 0.0
H4754 H 0.38539 0.70929 0.38636 0.0
H4755 H 0.39971 0.7312 0.36738 0.0
C4756 C 0.39551 0.73503 0.36823 0.0
C4757 C 0.38145 0.72423 0.37712 0.0
C4758 C 0.38035 0.71803 0.38107 0.0
C4759 C 0.38832 0.72652 0.37553 0.0
C4760 C 0.39416 0.72258 0.37801 0.0
C4761 C 0.39313 0.71631 0.38185 0.0
C4762 C 0.38621 0.71409 0.38333 0.0
N4763 N 0.38918 0.73296 0.37173 0.0
H4764 H 0.03551 0.62629 0.12321 0.0
H4765 H 0.03776 0.64829 0.1288 0.0
H4766 H 0.05336 0.63322 0.13547 0.0
H4767 H 0.03088 0.64983 0.119 0.0
C4768 C 0.02715 0.64548 0.11936 0.0
C4769 C 0.03847 0.63049 0.12575 0.0
C4770 C 0.04482 0.62893 0.12928 0.0
C4771 C 0.03596 0.63747 0.12537 0.0
C4772 C 0.03976 0.64293 0.12876 0.0
C4773 C 0.04601 0.64139 0.13247 0.0
C4774 C 0.04853 0.63441 0.13262 0.0
N4775 N 0.02943 0.63875 0.12185 0.0
H4776 H 0.13761 0.28574 0.87401 0.0
H4777 H 0.11522 0.28856 0.87719 0.0
H4778 H 0.12955 0.3054 0.88216 0.0
H4779 H 0.11541 0.27687 0.87846 0.0
C4780 C 0.11921 0.27502 0.87459 0.0
C4781 C 0.1332 0.28902 0.87564 0.0
C4782 C 0.13439 0.29599 0.87795 0.0
C4783 C 0.12632 0.28622 0.87547 0.0
C4784 C 0.12058 0.29052 0.87754 0.0
C4785 C 0.1217 0.29746 0.87993 0.0
C4786 C 0.12862 0.30013 0.8801 0.0
N4787 N 0.12533 0.27913 0.87309 0.0
H4788 H 0.47706 0.38777 0.62319 0.0
H4789 H 0.47433 0.36542 0.62662 0.0
H4790 H 0.4583 0.37997 0.6334 0.0
H4791 H 0.4816 0.36455 0.61737 0.0
C4792 C 0.48535 0.36884 0.61806 0.0
C4793 C 0.47391 0.3834 0.62514 0.0
C4794 C 0.46731 0.38471 0.62829 0.0
C4795 C 0.47642 0.37646 0.62433 0.0
C4796 C 0.47237 0.37078 0.62697 0.0
C4797 C 0.46578 0.37201 0.63017 0.0
C4798 C 0.46329 0.37898 0.63076 0.0
N4799 N 0.4831 0.37538 0.62103 0.0
H4800 H 0.13931 0.37611 0.28457 0.0
H4801 H 0.13718 0.3986 0.28781 0.0
H4802 H 0.12798 0.38401 0.30258 0.0
H4803 H 0.14701 0.39894 0.28091 0.0
C4804 C 0.14596 0.39488 0.27699 0.0
C4805 C 0.13744 0.38053 0.2877 0.0
C4806 C 0.13351 0.37928 0.29386 0.0
C4807 C 0.13885 0.38747 0.28549 0.0
C4808 C 0.13628 0.39321 0.28952 0.0
C4809 C 0.13244 0.392 0.29576 0.0
C4810 C 0.13106 0.38501 0.29785 0.0
N4811 N 0.14254 0.38849 0.27901 0.0
H4812 H 0.38704 0.39132 0.03519 0.0
H4813 H 0.36517 0.38539 0.0377 0.0
H4814 H 0.38056 0.37878 0.053 0.0
H4815 H 0.36346 0.39549 0.03122 0.0
C4816 C 0.36767 0.39516 0.02732 0.0
C4817 C 0.38292 0.38868 0.03818 0.0
C4818 C 0.38463 0.38512 0.04446 0.0
C4819 C 0.3759 0.389 0.03579 0.0
C4820 C 0.37056 0.38548 0.03963 0.0
C4821 C 0.37224 0.38171 0.0458 0.0
C4822 C 0.37926 0.38165 0.04822 0.0
N4823 N 0.37445 0.3926 0.02934 0.0
H4824 H 0.37526 0.63805 0.78451 0.0
H4825 H 0.377 0.61554 0.78779 0.0
H4826 H 0.38657 0.62996 0.80248 0.0
H4827 H 0.36707 0.61538 0.781 0.0
C4828 C 0.36818 0.6194 0.77705 0.0
C4829 C 0.37708 0.63361 0.78765 0.0
C4830 C 0.38108 0.63481 0.79377 0.0
C4831 C 0.37551 0.62669 0.78546 0.0
C4832 C 0.37801 0.62091 0.78948 0.0
C4833 C 0.38192 0.62206 0.79569 0.0
C4834 C 0.38345 0.62902 0.79776 0.0
N4835 N 0.37174 0.62572 0.77902 0.0
H4836 H 0.12622 0.62351 0.5359 0.0
H4837 H 0.14871 0.62646 0.53785 0.0
H4838 H 0.1349 0.63326 0.55452 0.0
H4839 H 0.14871 0.61648 0.53088 0.0
C4840 C 0.14461 0.6178 0.52707 0.0
C4841 C 0.13074 0.62533 0.53892 0.0
C4842 C 0.12974 0.62835 0.54563 0.0
C4843 C 0.13756 0.62444 0.53615 0.0
C4844 C 0.14344 0.62689 0.54003 0.0
C4845 C 0.14252 0.63002 0.5467 0.0
C4846 C 0.13567 0.63067 0.54946 0.0
N4847 N 0.13835 0.62126 0.52938 0.0
H4848 H 0.13779 0.63727 0.2278 0.0
H4849 H 0.13614 0.61476 0.2245 0.0
H4850 H 0.12686 0.62912 0.2096 0.0
H4851 H 0.14568 0.61439 0.23143 0.0
C4852 C 0.14488 0.61857 0.23528 0.0
C4853 C 0.13605 0.63283 0.22462 0.0
C4854 C 0.13211 0.63403 0.21844 0.0
C4855 C 0.13764 0.62591 0.22682 0.0
C4856 C 0.13517 0.62013 0.22279 0.0
C4857 C 0.13136 0.62127 0.21652 0.0
C4858 C 0.12988 0.62822 0.2144 0.0
N4859 N 0.14143 0.62495 0.23326 0.0
H4860 H 0.12603 0.38934 0.97887 0.0
H4861 H 0.1485 0.38761 0.97547 0.0
H4862 H 0.13401 0.37802 0.96086 0.0
H4863 H 0.14847 0.39792 0.98187 0.0
C4864 C 0.14469 0.39665 0.98599 0.0
C4865 C 0.13045 0.38751 0.97572 0.0
C4866 C 0.12922 0.38351 0.96959 0.0
C4867 C 0.13738 0.38908 0.97786 0.0
C4868 C 0.14312 0.38658 0.97381 0.0
C4869 C 0.14194 0.38266 0.96761 0.0
C4870 C 0.13498 0.38113 0.96558 0.0
N4871 N 0.13841 0.39288 0.98427 0.0
H4872 H 0.37451 0.37631 0.72901 0.0
H4873 H 0.37817 0.39873 0.72694 0.0
H4874 H 0.38877 0.38412 0.71316 0.0
H4875 H 0.36755 0.39943 0.7326 0.0
C4876 C 0.368 0.39521 0.73647 0.0
C4877 C 0.37705 0.38071 0.72635 0.0
C4878 C 0.38183 0.37941 0.72083 0.0
C4879 C 0.37564 0.38765 0.72858 0.0
C4880 C 0.37903 0.39336 0.72516 0.0
C4881 C 0.38381 0.39211 0.71962 0.0
C4882 C 0.38518 0.38513 0.71752 0.0
N4883 N 0.37118 0.38867 0.73455 0.0
H4884 H 0.38668 0.62178 0.47793 0.0
H4885 H 0.36471 0.62771 0.47632 0.0
H4886 H 0.37952 0.63468 0.46063 0.0
H4887 H 0.36345 0.61695 0.48214 0.0
C4888 C 0.36758 0.61747 0.4861 0.0
C4889 C 0.38245 0.62448 0.47516 0.0
C4890 C 0.3839 0.62816 0.46888 0.0
C4891 C 0.37551 0.62409 0.47778 0.0
C4892 C 0.37003 0.62769 0.47421 0.0
C4893 C 0.37149 0.6316 0.46808 0.0
C4894 C 0.3784 0.63172 0.46541 0.0
N4895 N 0.37426 0.62033 0.48416 0.0
H4896 H 0.28516 0.14023 0.37684 0.0
H4897 H 0.28905 0.13704 0.39905 0.0
H4898 H 0.30467 0.13085 0.38385 0.0
H4899 H 0.2775 0.1371 0.39987 0.0
C4900 C 0.27551 0.14067 0.39584 0.0
C4901 C 0.28857 0.1384 0.38108 0.0
C4902 C 0.29529 0.13564 0.37951 0.0
C4903 C 0.28618 0.1388 0.38808 0.0
C4904 C 0.29066 0.13652 0.39359 0.0
C4905 C 0.29734 0.13365 0.39211 0.0
C4906 C 0.29961 0.13326 0.38506 0.0
N4907 N 0.2793 0.14159 0.38941 0.0
H4908 H 0.78575 0.37394 0.63667 0.0
H4909 H 0.78936 0.37736 0.61445 0.0
H4910 H 0.80531 0.38304 0.62951 0.0
H4911 H 0.78143 0.36876 0.6132 0.0
C4912 C 0.7777 0.36936 0.61752 0.0
C4913 C 0.78914 0.37572 0.63241 0.0
C4914 C 0.79587 0.37847 0.63394 0.0
C4915 C 0.7868 0.37509 0.6254 0.0
C4916 C 0.79116 0.37753 0.61987 0.0
C4917 C 0.79789 0.38031 0.62132 0.0
C4918 C 0.8002 0.3807 0.62835 0.0
N4919 N 0.78 0.37211 0.62413 0.0
H4920 H 0.3913 0.03827 0.38685 0.0
H4921 H 0.38686 0.04032 0.36461 0.0
H4922 H 0.38084 0.05686 0.37892 0.0
H4923 H 0.39622 0.0331 0.36362 0.0
C4924 C 0.3957 0.02945 0.36802 0.0
C4925 C 0.38917 0.04129 0.38247 0.0
C4926 C 0.38612 0.04796 0.3837 0.0
C4927 C 0.38965 0.03856 0.37559 0.0
C4928 C 0.38676 0.04245 0.36991 0.0
C4929 C 0.38366 0.0491 0.37107 0.0
C4930 C 0.38341 0.05181 0.37797 0.0
N4931 N 0.39292 0.03185 0.37458 0.0
H4932 H 0.72828 0.64095 0.13703 0.0
H4933 H 0.72538 0.63755 0.11472 0.0
H4934 H 0.70929 0.63106 0.12933 0.0
H4935 H 0.73238 0.64748 0.11422 0.0
C4936 C 0.73635 0.64625 0.11819 0.0
C4937 C 0.72506 0.63905 0.13268 0.0
C4938 C 0.7184 0.63604 0.13401 0.0
C4939 C 0.72755 0.63979 0.12574 0.0
C4940 C 0.72343 0.63723 0.12008 0.0
C4941 C 0.71679 0.63413 0.12133 0.0
C4942 C 0.71432 0.63362 0.12831 0.0
N4943 N 0.73429 0.64293 0.12461 0.0
H4944 H 0.62495 0.47746 0.38792 0.0
H4945 H 0.62603 0.47455 0.36536 0.0
H4946 H 0.63578 0.45944 0.37919 0.0
H4947 H 0.61582 0.48093 0.36573 0.0
C4948 C 0.61711 0.48496 0.36962 0.0
C4949 C 0.6266 0.47436 0.38339 0.0
C4950 C 0.63059 0.46816 0.38438 0.0
C4951 C 0.62482 0.47666 0.37657 0.0
C4952 C 0.62716 0.47274 0.37067 0.0
C4953 C 0.63105 0.46648 0.37159 0.0
C4954 C 0.63271 0.46423 0.37846 0.0
N4955 N 0.621 0.4831 0.37578 0.0
H4956 H 0.22904 0.8748 0.87649 0.0
H4957 H 0.22526 0.87814 0.89873 0.0
H4958 H 0.20883 0.88233 0.8837 0.0
H4959 H 0.23688 0.87885 0.89933 0.0
C4960 C 0.23897 0.87526 0.89538 0.0
C4961 C 0.22556 0.87637 0.88076 0.0
C4962 C 0.21858 0.87844 0.87927 0.0
C4963 C 0.22808 0.87631 0.88774 0.0
C4964 C 0.22352 0.87833 0.89329 0.0
C4965 C 0.21655 0.88047 0.89186 0.0
C4966 C 0.21414 0.88048 0.88485 0.0
N4967 N 0.23516 0.87403 0.889 0.0
H4968 H 0.39017 0.97783 0.12525 0.0
H4969 H 0.38727 0.97434 0.14755 0.0
H4970 H 0.38146 0.95819 0.13271 0.0
H4971 H 0.39623 0.98227 0.14834 0.0
C4972 C 0.3951 0.98605 0.14417 0.0
C4973 C 0.38852 0.97443 0.12956 0.0
C4974 C 0.38584 0.96765 0.12813 0.0
C4975 C 0.38925 0.97683 0.13654 0.0
C4976 C 0.387 0.97248 0.14215 0.0
C4977 C 0.38427 0.9657 0.1408 0.0
C4978 C 0.38376 0.96333 0.13379 0.0
N4979 N 0.39205 0.98372 0.13771 0.0
H4980 H 0.12421 0.03616 0.62546 0.0
H4981 H 0.12792 0.03827 0.6478 0.0
H4982 H 0.1345 0.05474 0.63364 0.0
H4983 H 0.11801 0.0313 0.64823 0.0
C4984 C 0.1191 0.02748 0.64408 0.0
C4985 C 0.12624 0.0392 0.62988 0.0
C4986 C 0.12932 0.04586 0.62872 0.0
C4987 C 0.12555 0.03649 0.63674 0.0
C4988 C 0.12823 0.04039 0.6425 0.0
C4989 C 0.13139 0.04703 0.64143 0.0
C4990 C 0.13188 0.04971 0.63453 0.0
N4991 N 0.12233 0.02975 0.63768 0.0
H4992 H 0.02686 0.16623 0.40374 0.0
H4993 H 0.03091 0.14444 0.40935 0.0
H4994 H 0.01463 0.1633 0.40108 0.0
H4995 H 0.01854 0.14155 0.40695 0.0
H4996 H 0.99813 0.13794 0.39382 0.0
H4997 H 0.0104 0.14046 0.397 0.0
H4998 H 1.00379 0.16001 0.40685 0.0
H4999 H 0.99157 0.15754 0.40352 0.0
C5000 C 0.02514 0.16081 0.40441 0.0
C5001 C 0.02989 0.15556 0.40672 0.0
C5002 C 0.0181 0.15914 0.40297 0.0
C5003 C 0.01559 0.15219 0.40382 0.0
C5004 C 0.02032 0.14695 0.40618 0.0
C5005 C 0.02738 0.14862 0.40763 0.0
C5006 C 0.9993 0.14275 0.39669 0.0
C5007 C 0.99391 0.14757 0.3984 0.0
C5008 C 1.00633 0.14418 0.39855 0.0
C5009 C 0.00809 0.15046 0.40215 0.0
C5010 C 1.00264 0.15519 0.40397 0.0
C5011 C 0.99564 0.15376 0.40211 0.0
H5012 H 0.09898 0.77738 0.65269 0.0
H5013 H 0.11963 0.77975 0.66219 0.0
H5014 H 0.10185 0.76527 0.64945 0.0
H5015 H 0.12253 0.76759 0.65884 0.0
H5016 H 0.1271 0.74793 0.64466 0.0
H5017 H 0.12465 0.76015 0.64819 0.0
H5018 H 0.10388 0.75389 0.65531 0.0
H5019 H 0.10631 0.74173 0.65171 0.0
C5020 C 0.10411 0.7753 0.65416 0.0
C5021 C 0.10904 0.77954 0.65777 0.0
C5022 C 0.10576 0.76835 0.65228 0.0
C5023 C 0.11241 0.76545 0.65392 0.0
C5024 C 0.11739 0.7697 0.65745 0.0
C5025 C 0.11572 0.77666 0.65936 0.0
C5026 C 0.12203 0.74917 0.64699 0.0
C5027 C 0.11687 0.7439 0.64789 0.0
C5028 C 0.12064 0.75616 0.64905 0.0
C5029 C 0.11405 0.758 0.65199 0.0
C5030 C 0.10896 0.75268 0.65296 0.0
C5031 C 0.11036 0.74571 0.65094 0.0
H5032 H 0.48371 0.86992 0.90896 0.0
H5033 H 0.48816 0.8481 0.9038 0.0
H5034 H 0.49603 0.87298 0.90654 0.0
H5035 H 0.50034 0.8512 0.90111 0.0
H5036 H 0.5233 0.85743 0.90339 0.0
H5037 H 0.51113 0.85478 0.90673 0.0
H5038 H 0.50415 0.87406 0.89663 0.0
H5039 H 0.51637 0.87679 0.89345 0.0
C5040 C 0.48732 0.86578 0.90734 0.0
C5041 C 0.48493 0.85877 0.90655 0.0
C5042 C 0.49436 0.86754 0.90587 0.0
C5043 C 0.49918 0.86234 0.90362 0.0
C5044 C 0.4968 0.85533 0.90291 0.0
C5045 C 0.48978 0.85357 0.90437 0.0
C5046 C 0.51916 0.86111 0.90192 0.0
C5047 C 0.52078 0.8673 0.89815 0.0
C5048 C 0.51218 0.85958 0.90379 0.0
C5049 C 0.50665 0.86418 0.90192 0.0
C5050 C 0.50829 0.87044 0.89823 0.0
C5051 C 0.51529 0.87198 0.89637 0.0
H5052 H 0.39805 0.23266 0.14898 0.0
H5053 H 0.41085 0.24071 0.16609 0.0
H5054 H 0.39505 0.24473 0.14553 0.0
H5055 H 0.40779 0.25278 0.16271 0.0
H5056 H 0.40826 0.2729 0.14932 0.0
H5057 H 0.41048 0.26085 0.15332 0.0
H5058 H 0.38876 0.25537 0.14881 0.0
H5059 H 0.38661 0.26742 0.14463 0.0
C5060 C 0.40013 0.23701 0.15208 0.0
C5061 C 0.40473 0.23573 0.15778 0.0
C5062 C 0.3984 0.24393 0.1501 0.0
C5063 C 0.40122 0.24974 0.1538 0.0
C5064 C 0.40564 0.24844 0.15964 0.0
C5065 C 0.40739 0.24153 0.16159 0.0
C5066 C 0.40396 0.26912 0.1492 0.0
C5067 C 0.39728 0.2711 0.14666 0.0
C5068 C 0.40521 0.26222 0.15154 0.0
C5069 C 0.39979 0.25713 0.15143 0.0
C5070 C 0.39307 0.25913 0.14891 0.0
C5071 C 0.39183 0.26605 0.14654 0.0
H5072 H 0.02426 0.84951 0.10255 0.0
H5073 H 0.03209 0.86982 0.1095 0.0
H5074 H 0.01252 0.85255 0.1069 0.0
H5075 H 0.02029 0.87289 0.1138 0.0
H5076 H 0.99632 0.87761 0.11592 0.0
H5077 H 0.00772 0.87522 0.11024 0.0
H5078 H 0.00755 0.85405 0.11885 0.0
H5079 H 0.9962 0.85643 0.12447 0.0
C5080 C 0.02348 0.85463 0.10499 0.0
C5081 C 0.02915 0.85938 0.10576 0.0
C5082 C 0.01675 0.85638 0.10747 0.0
C5083 C 0.0155 0.86293 0.11077 0.0
C5084 C 0.02108 0.86782 0.11125 0.0
C5085 C 0.02783 0.86606 0.10878 0.0
C5086 C 0.99872 0.87245 0.11657 0.0
C5087 C 0.99538 0.86719 0.12063 0.0
C5088 C 1.00526 0.87109 0.11334 0.0
C5089 C 0.00852 0.86443 0.11406 0.0
C5090 C 1.00513 0.8592 0.1181 0.0
C5091 C 0.99865 0.86057 0.12136 0.0
H5092 H 0.39787 0.78074 0.36426 0.0
H5093 H 0.40925 0.77302 0.34605 0.0
H5094 H 0.3949 0.76863 0.36754 0.0
H5095 H 0.4062 0.76091 0.34924 0.0
H5096 H 0.40722 0.74036 0.36204 0.0
H5097 H 0.40935 0.75244 0.35809 0.0
H5098 H 0.38818 0.75827 0.36445 0.0
H5099 H 0.38614 0.7462 0.36858 0.0
C5100 C 0.39963 0.77646 0.36089 0.0
C5101 C 0.40383 0.77784 0.35492 0.0
C5102 C 0.39792 0.76951 0.36276 0.0
C5103 C 0.40034 0.76377 0.35868 0.0
C5104 C 0.40436 0.76518 0.35259 0.0
C5105 C 0.4061 0.77212 0.35074 0.0
C5106 C 0.40302 0.74422 0.36257 0.0
C5107 C 0.39653 0.74234 0.36563 0.0
C5108 C 0.40422 0.75114 0.36026 0.0
C5109 C 0.39893 0.75635 0.36093 0.0
C5110 C 0.3924 0.75442 0.36393 0.0
C5111 C 0.39121 0.7475 0.36626 0.0
H5112 H 0.48851 0.15647 0.59621 0.0
H5113 H 0.4824 0.15086 0.61748 0.0
H5114 H 0.50068 0.15301 0.59881 0.0
H5115 H 0.49459 0.1476 0.62014 0.0
H5116 H 0.51599 0.13647 0.62068 0.0
H5117 H 0.50374 0.13885 0.61735 0.0
H5118 H 0.51044 0.15754 0.60605 0.0
H5119 H 0.5227 0.1551 0.60932 0.0
C5120 C 0.48975 0.15444 0.60142 0.0
C5121 C 0.48449 0.15397 0.60665 0.0
C5122 C 0.49674 0.15253 0.60293 0.0
C5123 C 0.49862 0.15006 0.60969 0.0
C5124 C 0.49332 0.14942 0.61486 0.0
C5125 C 0.48634 0.15137 0.61336 0.0
C5126 C 0.51485 0.14106 0.61745 0.0
C5127 C 0.52029 0.14561 0.61525 0.0
C5128 C 0.50783 0.14244 0.61557 0.0
C5129 C 0.50611 0.14839 0.61144 0.0
C5130 C 0.51158 0.15287 0.60916 0.0
C5131 C 0.5186 0.1515 0.61106 0.0
H5132 H 0.12058 0.23155 0.85925 0.0
H5133 H 0.09953 0.23895 0.85434 0.0
H5134 H 0.12371 0.24337 0.8635 0.0
H5135 H 0.10263 0.25069 0.85863 0.0
H5136 H 0.1076 0.2669 0.87597 0.0
H5137 H 0.1051 0.2555 0.8705 0.0
H5138 H 0.12534 0.25609 0.85995 0.0
H5139 H 0.12786 0.26755 0.86548 0.0
C5140 C 0.11666 0.23572 0.85897 0.0
C5141 C 0.10978 0.23428 0.85654 0.0
C5142 C 0.11845 0.24249 0.86141 0.0
C5143 C 0.11339 0.24794 0.86149 0.0
C5144 C 0.10661 0.24657 0.85878 0.0
C5145 C 0.10483 0.23983 0.85633 0.0
C5146 C 0.11151 0.2646 0.87247 0.0
C5147 C 0.11791 0.26811 0.87115 0.0
C5148 C 0.11006 0.25809 0.8693 0.0
C5149 C 0.115 0.25491 0.86475 0.0
C5150 C 0.12144 0.2584 0.86346 0.0
C5151 C 0.12287 0.26496 0.8666 0.0
H5152 H 0.41573 0.02544 0.15648 0.0
H5153 H 0.39566 0.0318 0.14763 0.0
H5154 H 0.41317 0.01314 0.15348 0.0
H5155 H 0.393 0.01949 0.14482 0.0
H5156 H 0.39317 0.99734 0.13517 0.0
H5157 H 0.39654 0.00965 0.13719 0.0
H5158 H 0.40504 1.00395 0.15761 0.0
H5159 H 0.40175 0.99163 0.15554 0.0
C5160 C 0.4108 0.02423 0.15384 0.0
C5161 C 0.40589 0.0296 0.15232 0.0
C5162 C 0.4093 0.01717 0.15219 0.0
C5163 C 0.40286 0.01533 0.14895 0.0
C5164 C 0.39803 0.02073 0.14727 0.0
C5165 C 0.39952 0.02778 0.14894 0.0
C5166 C 0.39579 0.99871 0.14008 0.0
C5167 C 0.3972 0.99353 0.14521 0.0
C5168 C 0.39769 1.00577 0.14125 0.0
C5169 C 0.40106 0.00779 0.14756 0.0
C5170 C 0.40254 1.00257 0.15265 0.0
C5171 C 0.40062 0.99552 0.15149 0.0
H5172 H 0.23941 0.16166 0.41488 0.0
H5173 H 0.23178 0.15467 0.39452 0.0
H5174 H 0.25126 0.15762 0.41184 0.0
H5175 H 0.24368 0.15066 0.39146 0.0
H5176 H 0.2676 0.14891 0.38674 0.0
H5177 H 0.25613 0.15445 0.38916 0.0
H5178 H 0.25651 0.1458 0.41029 0.0
H5179 H 0.26793 0.14033 0.40788 0.0
C5180 C 0.24026 0.15928 0.40974 0.0
C5181 C 0.23462 0.15841 0.40498 0.0
C5182 C 0.24706 0.15697 0.408 0.0
C5183 C 0.24839 0.15374 0.40144 0.0
C5184 C 0.24283 0.15317 0.39654 0.0
C5185 C 0.23602 0.15547 0.39829 0.0
C5186 C 0.26524 0.14822 0.3919 0.0
C5187 C 0.26864 0.14419 0.39714 0.0
C5188 C 0.25866 0.15137 0.39328 0.0
C5189 C 0.25543 0.15059 0.39993 0.0
C5190 C 0.2589 0.1466 0.40516 0.0
C5191 C 0.26542 0.14342 0.40376 0.0
H5192 H 0.09795 0.98836 0.65634 0.0
H5193 H 0.11833 0.98185 0.64835 0.0
H5194 H 0.1006 1.00059 0.65316 0.0
H5195 H 0.12106 0.9941 0.64536 0.0
H5196 H 0.12118 0.01607 0.63526 0.0
H5197 H 0.11771 1.0038 0.63737 0.0
H5198 H 0.10863 0.00985 0.65743 0.0
H5199 H 0.11204 0.02212 0.65527 0.0
C5200 C 0.10297 0.98953 0.65385 0.0
C5201 C 0.10794 0.98413 0.65263 0.0
C5202 C 0.10452 0.99655 0.65209 0.0
C5203 C 0.11106 0.99833 0.64904 0.0
C5204 C 0.11595 0.99291 0.64765 0.0
C5205 C 0.11442 0.9859 0.64943 0.0
C5206 C 0.11841 0.01478 0.6401 0.0
C5207 C 0.11687 0.02005 0.64512 0.0
C5208 C 0.11645 0.00775 0.64132 0.0
C5209 C 0.11289 1.00584 0.64757 0.0
C5210 C 0.11128 0.01115 0.65253 0.0
C5211 C 0.11327 0.01817 0.65132 0.0
H5212 H 0.27504 0.85482 0.915 0.0
H5213 H 0.28273 0.86082 0.89436 0.0
H5214 H 0.2633 0.8591 0.91187 0.0
H5215 H 0.27093 0.86507 0.89121 0.0
H5216 H 0.24692 0.8668 0.88652 0.0
H5217 H 0.25842 0.86141 0.88909 0.0
H5218 H 0.25817 0.87089 0.90986 0.0
H5219 H 0.2467 0.87621 0.90731 0.0
C5220 C 0.27422 0.85705 0.90979 0.0
C5221 C 0.27985 0.85755 0.90496 0.0
C5222 C 0.26749 0.8595 0.908 0.0
C5223 C 0.2662 0.8625 0.90132 0.0
C5224 C 0.27175 0.86274 0.89638 0.0
C5225 C 0.27851 0.8603 0.89818 0.0
C5226 C 0.24933 0.86772 0.89163 0.0
C5227 C 0.24592 0.87192 0.89673 0.0
C5228 C 0.25592 0.86465 0.89309 0.0
C5229 C 0.25919 0.86568 0.89969 0.0
C5230 C 0.25575 0.86989 0.90477 0.0
C5231 C 0.24921 0.87298 0.90329 0.0
H5232 H 0.40003 0.98368 0.36694 0.0
H5233 H 0.41747 0.99125 0.35431 0.0
H5234 H 0.39677 0.99585 0.36974 0.0
H5235 H 0.41428 1.00342 0.35718 0.0
H5236 H 0.40104 0.02368 0.35611 0.0
H5237 H 0.40499 0.01156 0.35418 0.0
H5238 H 0.40017 1.00652 0.37593 0.0
H5239 H 0.39605 0.01864 0.37779 0.0
C5240 C 0.40324 0.98794 0.36487 0.0
C5241 C 0.40898 0.9865 0.36036 0.0
C5242 C 0.40138 0.99492 0.36648 0.0
C5243 C 0.40522 1.00063 0.36364 0.0
C5244 C 0.41111 0.99916 0.35933 0.0
C5245 C 0.41295 0.99219 0.3577 0.0
C5246 C 0.40084 0.01998 0.36048 0.0
C5247 C 0.39823 0.0221 0.36708 0.0
C5248 C 0.40316 0.01304 0.35939 0.0
C5249 C 0.40293 0.00806 0.36491 0.0
C5250 C 0.40035 0.0102 0.37155 0.0
C5251 C 0.39802 0.01716 0.37263 0.0
H5252 H 0.27639 0.15342 0.59729 0.0
H5253 H 0.28052 0.15883 0.61909 0.0
H5254 H 0.26417 0.15077 0.60023 0.0
H5255 H 0.26816 0.15644 0.62199 0.0
H5256 H 0.24767 0.14352 0.62562 0.0
H5257 H 0.25996 0.14654 0.62303 0.0
H5258 H 0.25336 0.15657 0.60359 0.0
H5259 H 0.24112 0.1534 0.60612 0.0
C5260 C 0.27469 0.15405 0.60272 0.0
C5261 C 0.27946 0.1563 0.60796 0.0
C5262 C 0.26765 0.15261 0.60439 0.0
C5263 C 0.26516 0.1534 0.61135 0.0
C5264 C 0.26991 0.15571 0.61659 0.0
C5265 C 0.27697 0.15716 0.61491 0.0
C5266 C 0.24885 0.14639 0.62081 0.0
C5267 C 0.24345 0.14821 0.61604 0.0
C5268 C 0.25589 0.14815 0.61934 0.0
C5269 C 0.25766 0.15178 0.61309 0.0
C5270 C 0.25221 0.15368 0.6084 0.0
C5271 C 0.24519 0.1519 0.60986 0.0
H5272 H 0.11793 0.0322 0.86393 0.0
H5273 H 0.09748 0.02549 0.85629 0.0
H5274 H 0.12082 0.01998 0.86693 0.0
H5275 H 0.1003 0.01329 0.85948 0.0
H5276 H 0.11177 0.99178 0.85747 0.0
H5277 H 0.10835 1.00404 0.85517 0.0
H5278 H 0.11763 0.01035 0.87507 0.0
H5279 H 0.12111 0.9981 0.87732 0.0
C5280 C 0.11404 0.02811 0.86293 0.0
C5281 C 0.10749 0.02981 0.85984 0.0
C5282 C 0.11567 0.02112 0.86471 0.0
C5283 C 0.1108 0.01565 0.86342 0.0
C5284 C 0.10419 0.01737 0.86047 0.0
C5285 C 0.10255 0.02437 0.85871 0.0
C5286 C 0.11305 0.9958 0.86136 0.0
C5287 C 0.1167 0.99399 0.86756 0.0
C5288 C 0.11106 1.0028 0.86007 0.0
C5289 C 0.11271 0.00817 0.86494 0.0
C5290 C 0.11634 1.00635 0.87118 0.0
C5291 C 0.1183 0.99933 0.87248 0.0
H5292 H 0.24057 0.84781 0.102 0.0
H5293 H 0.23259 0.86358 0.11646 0.0
H5294 H 0.25265 0.85102 0.10515 0.0
H5295 H 0.24466 0.8669 0.11952 0.0
H5296 H 0.26721 0.86774 0.12766 0.0
H5297 H 0.25532 0.8633 0.12532 0.0
H5298 H 0.26071 0.86055 0.10329 0.0
H5299 H 0.27265 0.86478 0.1057 0.0
C5300 C 0.2414 0.85198 0.10585 0.0
C5301 C 0.23562 0.85546 0.10896 0.0
C5302 C 0.24833 0.85384 0.10764 0.0
C5303 C 0.24965 0.85926 0.11256 0.0
C5304 C 0.24386 0.86263 0.11579 0.0
C5305 C 0.23693 0.86074 0.11403 0.0
C5306 C 0.26586 0.86614 0.12233 0.0
C5307 C 0.27085 0.86661 0.11684 0.0
C5308 C 0.25903 0.86363 0.12098 0.0
C5309 C 0.25703 0.86158 0.11411 0.0
C5310 C 0.26208 0.86198 0.10866 0.0
C5311 C 0.26891 0.86444 0.11002 0.0
H5312 H 0.16609 0.40533 0.02535 0.0
H5313 H 0.14432 0.41017 0.0303 0.0
H5314 H 0.16273 0.4025 0.01327 0.0
H5315 H 0.14099 0.40762 0.01809 0.0
H5316 H 0.1369 0.39417 0.99803 0.0
H5317 H 0.13987 0.3976 0.01011 0.0
H5318 H 0.15875 0.40798 1.00251 0.0
H5319 H 0.15584 0.4044 0.99046 0.0
C5320 C 0.16058 0.4058 0.02386 0.0
C5321 C 0.15547 0.40794 0.02882 0.0
C5322 C 0.15866 0.40426 0.0169 0.0
C5323 C 0.15159 0.40485 0.01469 0.0
C5324 C 0.14648 0.40705 0.01962 0.0
C5325 C 0.1484 0.40859 0.0266 0.0
C5326 C 0.14166 0.39722 0.99894 0.0
C5327 C 0.14616 0.399 0.99331 0.0
C5328 C 0.14335 0.39921 1.00586 0.0
C5329 C 0.14957 0.40304 0.00729 0.0
C5330 C 0.15398 0.40494 1.00162 0.0
C5331 C 0.1523 0.40293 0.99471 0.0
H5332 H 0.64711 0.11542 0.98089 0.0
H5333 H 0.66057 0.09878 0.98887 0.0
H5334 H 0.64435 0.119 0.99297 0.0
H5335 H 0.65775 0.10228 1.00094 0.0
H5336 H 0.65823 0.11587 0.02091 0.0
H5337 H 0.66034 0.11184 0.00885 0.0
H5338 H 0.63839 0.11567 1.00375 0.0
H5339 H 0.63635 0.11987 0.01579 0.0
C5340 C 0.64939 0.11245 0.98523 0.0
C5341 C 0.65409 0.10684 0.98392 0.0
C5342 C 0.6478 0.1145 0.99216 0.0
C5343 C 0.65087 0.11096 0.99794 0.0
C5344 C 0.65541 0.10522 0.99662 0.0
C5345 C 0.65702 0.1032 0.9897 0.0
C5346 C 0.65386 0.11584 0.0172 0.0
C5347 C 0.64714 0.11818 0.01928 0.0
C5348 C 0.65505 0.11348 0.0103 0.0
C5349 C 0.64953 0.11339 1.00532 0.0
C5350 C 0.64278 0.11574 0.00742 0.0
C5351 C 0.6416 0.11811 0.01433 0.0
H5352 H 0.14697 0.39989 0.23155 0.0
H5353 H 0.16737 0.40776 0.23817 0.0
H5354 H 0.14421 0.39677 0.24374 0.0
H5355 H 0.16468 0.40445 0.25036 0.0
H5356 H 0.15315 0.40616 0.27192 0.0
H5357 H 0.15665 0.40854 0.25972 0.0
H5358 H 0.14756 0.3886 0.25324 0.0
H5359 H 0.144 0.38627 0.26542 0.0
C5360 C 0.15088 0.40093 0.23561 0.0
C5361 C 0.15737 0.40411 0.23389 0.0
C5362 C 0.14933 0.39907 0.24259 0.0
C5363 C 0.15422 0.40038 0.24803 0.0
C5364 C 0.16077 0.40344 0.2463 0.0
C5365 C 0.16234 0.40527 0.23931 0.0
C5366 C 0.15195 0.40227 0.26788 0.0
C5367 C 0.1483 0.39605 0.26962 0.0
C5368 C 0.15398 0.40362 0.26091 0.0
C5369 C 0.15238 0.39876 0.2555 0.0
C5370 C 0.1488 0.39248 0.25727 0.0
C5371 C 0.1468 0.39113 0.26426 0.0
H5372 H 0.86552 0.89614 0.48179 0.0
H5373 H 0.8577 0.91677 0.48774 0.0
H5374 H 0.86842 0.89367 0.4941 0.0
H5375 H 0.8608 0.91438 0.50003 0.0
H5376 H 0.85838 0.90352 0.52178 0.0
H5377 H 0.85638 0.90667 0.50943 0.0
H5378 H 0.87634 0.89709 0.50378 0.0
H5379 H 0.87829 0.89387 0.51615 0.0
C5380 C 0.86446 0.90016 0.48572 0.0
C5381 C 0.86134 0.90663 0.48379 0.0
C5382 C 0.86619 0.89878 0.49277 0.0
C5383 C 0.86482 0.90382 0.49806 0.0
C5384 C 0.86185 0.91036 0.4961 0.0
C5385 C 0.86014 0.91175 0.48904 0.0
C5386 C 0.86236 0.90213 0.51789 0.0
C5387 C 0.86848 0.89845 0.51992 0.0
C5388 C 0.86123 0.90397 0.51083 0.0
C5389 C 0.86621 0.90214 0.50562 0.0
C5390 C 0.87238 0.89851 0.50766 0.0
C5391 C 0.87351 0.8967 0.51475 0.0
H5392 H 0.85438 0.0997 0.23849 0.0
H5393 H 0.86018 0.12048 0.23097 0.0
H5394 H 0.85862 0.10277 0.25025 0.0
H5395 H 0.86436 0.12358 0.2428 0.0
H5396 H 0.86635 0.12785 0.26695 0.0
H5397 H 0.86072 0.12543 0.25551 0.0
H5398 H 0.87062 0.10483 0.25505 0.0
H5399 H 0.87619 0.10723 0.26641 0.0
C5400 C 0.85654 0.10493 0.23935 0.0
C5401 C 0.85704 0.1098 0.23375 0.0
C5402 C 0.85896 0.1067 0.24609 0.0
C5403 C 0.86191 0.11339 0.24743 0.0
C5404 C 0.86208 0.1184 0.24194 0.0
C5405 C 0.85968 0.11662 0.23516 0.0
C5406 C 0.8673 0.1228 0.26439 0.0
C5407 C 0.8717 0.11771 0.26756 0.0
C5408 C 0.8641 0.12144 0.25785 0.0
C5409 C 0.86519 0.11493 0.2544 0.0
C5410 C 0.86958 0.10985 0.25761 0.0
C5411 C 0.87281 0.11124 0.26409 0.0
H5412 H 0.34687 0.60986 0.52598 0.0
H5413 H 0.36817 0.60261 0.52999 0.0
H5414 H 0.35006 0.61258 0.51384 0.0
H5415 H 0.37128 0.60503 0.5177 0.0
H5416 H 0.3761 0.61852 0.49785 0.0
H5417 H 0.37324 0.615 0.50992 0.0
H5418 H 0.35298 0.60718 0.50279 0.0
H5419 H 0.35579 0.61089 0.49077 0.0
C5420 C 0.35224 0.60883 0.52426 0.0
C5421 C 0.35728 0.60607 0.52899 0.0
C5422 C 0.35404 0.6103 0.51726 0.0
C5423 C 0.36093 0.60902 0.51477 0.0
C5424 C 0.36595 0.60615 0.51946 0.0
C5425 C 0.36414 0.60469 0.52648 0.0
C5426 C 0.37106 0.61602 0.49886 0.0
C5427 C 0.36615 0.615 0.49338 0.0
C5428 C 0.36943 0.61396 0.50578 0.0
C5429 C 0.36286 0.61083 0.50735 0.0
C5430 C 0.35803 0.60968 0.50181 0.0
C5431 C 0.35966 0.61176 0.49491 0.0
H5432 H 0.16713 0.6043 0.27304 0.0
H5433 H 0.1493 0.61619 0.28092 0.0
H5434 H 0.16385 0.60739 0.26096 0.0
H5435 H 0.14592 0.61918 0.26885 0.0
H5436 H 0.1448 0.62793 0.24645 0.0
H5437 H 0.149 0.62579 0.25847 0.0
H5438 H 0.15488 0.60448 0.25258 0.0
H5439 H 0.15087 0.60672 0.24054 0.0
C5440 C 0.1625 0.60757 0.27218 0.0
C5441 C 0.15846 0.60998 0.27793 0.0
C5442 C 0.1606 0.60932 0.26526 0.0
C5443 C 0.15458 0.6135 0.26391 0.0
C5444 C 0.15064 0.61604 0.26968 0.0
C5445 C 0.15257 0.61432 0.27661 0.0
C5446 C 0.14702 0.62281 0.24772 0.0
C5447 C 0.14751 0.61748 0.24256 0.0
C5448 C 0.1494 0.62156 0.25462 0.0
C5449 C 0.15229 0.61496 0.25651 0.0
C5450 C 0.1528 0.60967 0.2513 0.0
C5451 C 0.15046 0.61093 0.24441 0.0
H5452 H 0.36554 0.39962 0.78179 0.0
H5453 H 0.34607 0.40922 0.77468 0.0
H5454 H 0.36839 0.39638 0.76964 0.0
H5455 H 0.34883 0.40582 0.76253 0.0
H5456 H 0.36137 0.4069 0.74141 0.0
H5457 H 0.3575 0.40935 0.75349 0.0
H5458 H 0.36466 0.38862 0.75994 0.0
H5459 H 0.36859 0.38622 0.74788 0.0
C5460 C 0.36185 0.401 0.77763 0.0
C5461 C 0.35559 0.40471 0.77919 0.0
C5462 C 0.36344 0.39908 0.77068 0.0
C5463 C 0.35884 0.40085 0.76511 0.0
C5464 C 0.35252 0.40444 0.76669 0.0
C5465 C 0.3509 0.40633 0.77365 0.0
C5466 C 0.36206 0.40286 0.74541 0.0
C5467 C 0.36529 0.3964 0.74371 0.0
C5468 C 0.35981 0.40424 0.75231 0.0
C5469 C 0.36079 0.39919 0.75768 0.0
C5470 C 0.36391 0.39266 0.75594 0.0
C5471 C 0.36613 0.39127 0.74902 0.0
H5472 H 0.98263 0.86454 0.61691 0.0
H5473 H 0.98911 0.8567 0.59648 0.0
H5474 H 0.99485 0.86763 0.61962 0.0
H5475 H 1.00132 0.85997 0.5991 0.0
H5476 H 0.02291 0.858 0.61044 0.0
H5477 H 0.01066 0.85575 0.60705 0.0
H5478 H 1.00445 0.87571 0.61631 0.0
H5479 H 0.0167 0.87791 0.61976 0.0
C5480 C 0.98666 0.86351 0.61298 0.0
C5481 C 0.9849 0.86033 0.6065 0.0
C5482 C 0.99366 0.86535 0.6145 0.0
C5483 C 0.99907 0.86403 0.60959 0.0
C5484 C 0.99729 0.86099 0.60303 0.0
C5485 C 0.99028 0.85918 0.6015 0.0
C5486 C 0.01892 0.86192 0.61171 0.0
C5487 C 0.02076 0.86811 0.61536 0.0
C5488 C 0.01191 0.86066 0.60974 0.0
C5489 C 1.00657 0.86556 0.6114 0.0
C5490 C 0.00843 0.8718 0.61501 0.0
C5491 C 0.01545 0.87307 0.61696 0.0
H5492 H 0.89832 0.23297 0.36529 0.0
H5493 H 0.90861 0.24001 0.34617 0.0
H5494 H 0.89532 0.24518 0.36818 0.0
H5495 H 0.90543 0.25222 0.34896 0.0
H5496 H 0.90679 0.27324 0.36153 0.0
H5497 H 0.90901 0.26107 0.35777 0.0
H5498 H 0.88797 0.25519 0.36442 0.0
H5499 H 0.8858 0.26734 0.36826 0.0
C5500 C 0.8999 0.23712 0.36168 0.0
C5501 C 0.90374 0.23552 0.35552 0.0
C5502 C 0.89812 0.24412 0.3633 0.0
C5503 C 0.90015 0.24968 0.35881 0.0
C5504 C 0.90385 0.24806 0.35257 0.0
C5505 C 0.90561 0.24106 0.35093 0.0
C5506 C 0.90263 0.26934 0.36214 0.0
C5507 C 0.89614 0.27123 0.36519 0.0
C5508 C 0.90388 0.26239 0.35995 0.0
C5509 C 0.89866 0.25716 0.36079 0.0
C5510 C 0.89212 0.25908 0.36377 0.0
C5511 C 0.89087 0.26605 0.36594 0.0
H5512 H 0.52471 0.15858 0.09541 0.0
H5513 H 0.53171 0.14907 0.11495 0.0
H5514 H 0.51252 0.15534 0.09821 0.0
H5515 H 0.51953 0.14601 0.11783 0.0
H5516 H 0.49763 0.1361 0.11811 0.0
H5517 H 0.50973 0.13834 0.11421 0.0
H5518 H 0.50349 0.15904 0.1068 0.0
H5519 H 0.49137 0.15676 0.11062 0.0
C5520 C 0.52365 0.15575 0.10027 0.0
C5521 C 0.52918 0.15411 0.10497 0.0
C5522 C 0.51666 0.15395 0.10191 0.0
C5523 C 0.51504 0.15044 0.10826 0.0
C5524 C 0.52059 0.14865 0.11287 0.0
C5525 C 0.52757 0.15048 0.11126 0.0
C5526 C 0.49883 0.14111 0.1156 0.0
C5527 C 0.49356 0.14627 0.11467 0.0
C5528 C 0.50577 0.1424 0.1134 0.0
C5529 C 0.50759 0.14888 0.11021 0.0
C5530 C 0.50226 0.15397 0.10916 0.0
C5531 C 0.49533 0.15268 0.11138 0.0
H5532 H 0.59743 0.77555 0.8579 0.0
H5533 H 0.61934 0.7808 0.85418 0.0
H5534 H 0.60079 0.76344 0.86068 0.0
H5535 H 0.62269 0.76857 0.85669 0.0
H5536 H 0.62644 0.74837 0.87 0.0
H5537 H 0.62344 0.76048 0.86664 0.0
H5538 H 0.60515 0.75277 0.85531 0.0
H5539 H 0.60808 0.74069 0.85883 0.0
C5540 C 0.60297 0.77412 0.85766 0.0
C5541 C 0.60812 0.77917 0.85586 0.0
C5542 C 0.60489 0.76714 0.85917 0.0
C5543 C 0.61202 0.76502 0.85891 0.0
C5544 C 0.61716 0.77004 0.85702 0.0
C5545 C 0.61524 0.77704 0.8555 0.0
C5546 C 0.6218 0.74926 0.86677 0.0
C5547 C 0.61747 0.74359 0.86469 0.0
C5548 C 0.6201 0.7562 0.8648 0.0
C5549 C 0.61404 0.75761 0.86072 0.0
C5550 C 0.60979 0.7519 0.85855 0.0
C5551 C 0.61149 0.74497 0.86053 0.0
H5552 H 0.98305 0.14949 0.89636 0.0
H5553 H 0.98936 0.15802 0.91658 0.0
H5554 H 0.99535 0.14661 0.89373 0.0
H5555 H 1.00164 0.15495 0.91404 0.0
H5556 H 0.02313 0.15727 0.90264 0.0
H5557 H 0.01081 0.15925 0.90596 0.0
H5558 H 1.0052 0.13888 0.89724 0.0
H5559 H 0.01753 0.13695 0.89385 0.0
C5560 C 0.98706 0.15071 0.90026 0.0
C5561 C 0.98523 0.15403 0.90666 0.0
C5562 C 0.9941 0.14899 0.89879 0.0
C5563 C 0.99948 0.15058 0.90366 0.0
C5564 C 0.99763 0.15374 0.91014 0.0
C5565 C 0.99058 0.15542 0.91162 0.0
C5566 C 0.01926 0.15321 0.90147 0.0
C5567 C 0.02128 0.14697 0.89799 0.0
C5568 C 0.01221 0.15432 0.90341 0.0
C5569 C 0.00702 0.14922 0.90188 0.0
C5570 C 0.00907 0.14294 0.89843 0.0
C5571 C 0.01613 0.14182 0.89652 0.0
H5572 H 0.59687 0.23871 0.65609 0.0
H5573 H 0.61889 0.23357 0.65935 0.0
H5574 H 0.60007 0.25091 0.65355 0.0
H5575 H 0.62208 0.24588 0.65708 0.0
H5576 H 0.62533 0.26645 0.64414 0.0
H5577 H 0.62255 0.25423 0.64729 0.0
H5578 H 0.60443 0.26147 0.65917 0.0
H5579 H 0.60714 0.27366 0.65588 0.0
C5580 C 0.6024 0.24019 0.65628 0.0
C5581 C 0.60763 0.23514 0.65788 0.0
C5582 C 0.60423 0.24721 0.65491 0.0
C5583 C 0.61133 0.24939 0.65512 0.0
C5584 C 0.61656 0.24437 0.6568 0.0
C5585 C 0.61473 0.23733 0.65818 0.0
C5586 C 0.62078 0.26543 0.64745 0.0
C5587 C 0.61643 0.271 0.64975 0.0
C5588 C 0.6192 0.25843 0.64929 0.0
C5589 C 0.61325 0.25686 0.65346 0.0
C5590 C 0.60899 0.26247 0.65586 0.0
C5591 C 0.61056 0.26945 0.65401 0.0
H5592 H 0.52912 0.86877 0.4115 0.0
H5593 H 0.52401 0.84704 0.40664 0.0
H5594 H 0.51687 0.87217 0.40916 0.0
H5595 H 0.5119 0.85045 0.40401 0.0
H5596 H 0.48916 0.85733 0.4054 0.0
H5597 H 0.50112 0.85446 0.40931 0.0
H5598 H 0.50894 0.87339 0.39917 0.0
H5599 H 0.49694 0.87634 0.39544 0.0
C5600 C 0.52538 0.86471 0.40998 0.0
C5601 C 0.52756 0.85764 0.40922 0.0
C5602 C 0.51838 0.86667 0.40855 0.0
C5603 C 0.51339 0.86159 0.40637 0.0
C5604 C 0.51556 0.8545 0.40575 0.0
C5605 C 0.52254 0.85255 0.40718 0.0
C5606 C 0.49344 0.8609 0.40407 0.0
C5607 C 0.49213 0.86704 0.40011 0.0
C5608 C 0.5003 0.85924 0.40627 0.0
C5609 C 0.50602 0.86366 0.40451 0.0
C5610 C 0.50466 0.8699 0.40069 0.0
C5611 C 0.49778 0.87158 0.39851 0.0
H5612 H 0.89882 0.78192 0.14593 0.0
H5613 H 0.90703 0.77539 0.16621 0.0
H5614 H 0.89605 0.76964 0.1431 0.0
H5615 H 0.90407 0.76312 0.16346 0.0
H5616 H 0.90631 0.74165 0.15203 0.0
H5617 H 0.90841 0.75396 0.15537 0.0
H5618 H 0.88822 0.75982 0.14641 0.0
H5619 H 0.88618 0.74752 0.143 0.0
C5620 C 0.9 0.77787 0.1498 0.0
C5621 C 0.90318 0.77963 0.15628 0.0
C5622 C 0.89835 0.77083 0.1482 0.0
C5623 C 0.89986 0.76539 0.15304 0.0
C5624 C 0.90291 0.76718 0.15958 0.0
C5625 C 0.90454 0.77422 0.16119 0.0
C5626 C 0.90232 0.74557 0.1508 0.0
C5627 C 0.8961 0.74363 0.14726 0.0
C5628 C 0.90349 0.75261 0.15275 0.0
C5629 C 0.89847 0.75787 0.15117 0.0
C5630 C 0.89222 0.75591 0.14765 0.0
C5631 C 0.89104 0.74885 0.14572 0.0
H5632 H 0.60327 0.98381 0.86853 0.0
H5633 H 0.60666 0.9891 0.84658 0.0
H5634 H 0.60581 0.99604 0.87185 0.0
H5635 H 0.60949 1.0012 0.84992 0.0
H5636 H 0.6079 0.02394 0.85724 0.0
H5637 H 0.60427 0.0119 0.85435 0.0
H5638 H 0.61576 1.00409 0.87249 0.0
H5639 H 0.61923 0.01617 0.87547 0.0
C5640 C 0.60452 0.98759 0.86441 0.0
C5641 C 0.60478 0.98546 0.85729 0.0
C5642 C 0.60606 0.99458 0.86632 0.0
C5643 C 0.60788 0.99961 0.86116 0.0
C5644 C 0.60803 0.9975 0.85403 0.0
C5645 C 0.60649 0.99053 0.85213 0.0
C5646 C 0.60961 0.01965 0.86062 0.0
C5647 C 0.61385 0.02099 0.86656 0.0
C5648 C 0.60757 0.01274 0.85895 0.0
C5649 C 0.60975 1.007 0.86316 0.0
C5650 C 0.61392 0.00838 0.86918 0.0
C5651 C 0.61594 0.0153 0.87086 0.0
H5652 H 0.77476 0.85915 0.59702 0.0
H5653 H 0.77949 0.85429 0.61882 0.0
H5654 H 0.7626 0.86183 0.60021 0.0
H5655 H 0.76719 0.85671 0.62199 0.0
H5656 H 0.74679 0.8698 0.62581 0.0
H5657 H 0.759 0.86663 0.62302 0.0
H5658 H 0.75189 0.85616 0.60399 0.0
H5659 H 0.73973 0.85949 0.60671 0.0
C5660 C 0.7732 0.85864 0.6025 0.0
C5661 C 0.77812 0.85655 0.60767 0.0
C5662 C 0.7662 0.8601 0.60432 0.0
C5663 C 0.7639 0.85947 0.61136 0.0
C5664 C 0.7688 0.85731 0.61653 0.0
C5665 C 0.77583 0.85585 0.6147 0.0
C5666 C 0.74784 0.8668 0.62105 0.0
C5667 C 0.74232 0.86491 0.61645 0.0
C5668 C 0.75484 0.86495 0.61947 0.0
C5669 C 0.75645 0.86116 0.61326 0.0
C5670 C 0.75087 0.85918 0.60875 0.0
C5671 C 0.7439 0.86104 0.61033 0.0
H5672 H 0.89764 0.03213 0.36437 0.0
H5673 H 0.91846 0.02566 0.35756 0.0
H5674 H 0.89486 0.01993 0.36746 0.0
H5675 H 0.91576 0.01347 0.36087 0.0
H5676 H 0.90461 0.99175 0.35871 0.0
H5677 H 0.90814 1.00398 0.35648 0.0
H5678 H 0.89776 0.01048 0.37576 0.0
H5679 H 0.89415 0.99827 0.37792 0.0
C5680 C 0.90164 0.0281 0.36357 0.0
C5681 C 0.90826 0.02986 0.36067 0.0
C5682 C 0.90008 0.02112 0.36541 0.0
C5683 C 0.90508 0.01571 0.36439 0.0
C5684 C 0.91176 0.01749 0.36165 0.0
C5685 C 0.91333 0.02449 0.35982 0.0
C5686 C 0.90313 0.9958 0.36248 0.0
C5687 C 0.8991 0.99406 0.36846 0.0
C5688 C 0.90518 1.00279 0.36124 0.0
C5689 C 0.90323 0.00822 0.36594 0.0
C5690 C 0.89928 1.00645 0.37199 0.0
C5691 C 0.89724 0.99944 0.37324 0.0
H5692 H 0.73184 0.14739 0.11337 0.0
H5693 H 0.73799 0.16829 0.10649 0.0
H5694 H 0.74411 0.14473 0.11633 0.0
H5695 H 0.75024 0.1657 0.10965 0.0
H5696 H 0.77208 0.15484 0.10743 0.0
H5697 H 0.75979 0.15813 0.1052 0.0
H5698 H 0.75356 0.14784 0.12461 0.0
H5699 H 0.76584 0.14447 0.12677 0.0
C5700 C 0.73581 0.15143 0.11251 0.0
C5701 C 0.73394 0.15803 0.10965 0.0
C5702 C 0.74283 0.14993 0.11428 0.0
C5703 C 0.74816 0.155 0.11321 0.0
C5704 C 0.74627 0.16165 0.11047 0.0
C5705 C 0.73924 0.16316 0.10873 0.0
C5706 C 0.76808 0.15332 0.11123 0.0
C5707 C 0.76992 0.1494 0.11726 0.0
C5708 C 0.76105 0.15524 0.10998 0.0
C5709 C 0.75569 0.15325 0.11473 0.0
C5710 C 0.75755 0.14939 0.12081 0.0
C5711 C 0.76459 0.14749 0.12207 0.0
H5712 H 0.60809 0.02496 0.66672 0.0
H5713 H 0.60233 0.02975 0.64515 0.0
H5714 H 0.61069 0.01282 0.66336 0.0
H5715 H 0.60465 0.01748 0.64183 0.0
H5716 H 0.61832 0.99761 0.63734 0.0
H5717 H 0.61467 0.00962 0.64032 0.0
H5718 H 0.6053 1.00193 0.65968 0.0
H5719 H 0.60913 0.98995 0.65676 0.0
C5720 C 0.60735 0.02341 0.66126 0.0
C5721 C 0.60505 0.02835 0.65619 0.0
C5722 C 0.60876 0.01641 0.65934 0.0
C5723 C 0.60789 0.01415 0.65231 0.0
C5724 C 0.60546 0.01906 0.64727 0.0
C5725 C 0.60405 0.02607 0.64919 0.0
C5726 C 0.61544 0.99848 0.6422 0.0
C5727 C 0.61403 0.99285 0.64684 0.0
C5728 C 0.61331 1.00537 0.6439 0.0
C5729 C 0.60972 1.00676 0.65026 0.0
C5730 C 0.60816 1.00107 0.6548 0.0
C5731 C 0.61031 0.9942 0.65311 0.0
H5732 H 0.73421 0.85444 0.39362 0.0
H5733 H 0.739 0.85966 0.41533 0.0
H5734 H 0.74651 0.85677 0.39038 0.0
H5735 H 0.75116 0.86222 0.41206 0.0
H5736 H 0.77399 0.8594 0.40557 0.0
H5737 H 0.76179 0.85625 0.40833 0.0
H5738 H 0.75479 0.86668 0.38924 0.0
H5739 H 0.76704 0.86969 0.38642 0.0
C5740 C 0.73789 0.85606 0.3977 0.0
C5741 C 0.73561 0.85688 0.40473 0.0
C5742 C 0.74491 0.85747 0.39583 0.0
C5743 C 0.74983 0.85968 0.40096 0.0
C5744 C 0.74755 0.86045 0.40799 0.0
C5745 C 0.74055 0.85906 0.40985 0.0
C5746 C 0.76984 0.86098 0.40195 0.0
C5747 C 0.77146 0.8648 0.3958 0.0
C5748 C 0.76285 0.85922 0.40354 0.0
C5749 C 0.7573 0.86125 0.39903 0.0
C5750 C 0.75894 0.86497 0.3928 0.0
C5751 C 0.76596 0.86673 0.3912 0.0
H5752 H 0.91738 0.9886 0.15641 0.0
H5753 H 0.89658 0.9823 0.1494 0.0
H5754 H 0.91475 1.00083 0.15318 0.0
H5755 H 0.89388 0.99455 0.14637 0.0
H5756 H 0.8935 0.01629 0.13595 0.0
H5757 H 0.89694 1.00402 0.13812 0.0
H5758 H 0.90712 0.01034 0.15757 0.0
H5759 H 0.90374 0.02262 0.15533 0.0
C5760 C 0.91227 0.98981 0.15412 0.0
C5761 C 0.90718 0.98448 0.15319 0.0
C5762 C 0.91074 0.99684 0.15234 0.0
C5763 C 0.90409 0.99868 0.14955 0.0
C5764 C 0.89907 0.99331 0.14846 0.0
C5765 C 0.90059 0.9863 0.15026 0.0
C5766 C 0.89651 0.01506 0.14066 0.0
C5767 C 0.89836 0.0204 0.14549 0.0
C5768 C 0.89845 0.00803 0.14192 0.0
C5769 C 0.9023 1.00619 0.14802 0.0
C5770 C 0.90423 0.01158 0.15278 0.0
C5771 C 0.90227 0.0186 0.15152 0.0
H5772 H 0.77458 0.16731 0.90663 0.0
H5773 H 0.78118 0.1469 0.89875 0.0
H5774 H 0.76238 0.16461 0.9034 0.0
H5775 H 0.76895 0.14412 0.89571 0.0
H5776 H 0.74699 0.1439 0.88557 0.0
H5777 H 0.75925 0.14738 0.8877 0.0
H5778 H 0.75315 0.1566 0.90769 0.0
H5779 H 0.74089 0.15319 0.90551 0.0
C5780 C 0.77344 0.16228 0.90414 0.0
C5781 C 0.77885 0.15731 0.90297 0.0
C5782 C 0.76644 0.1607 0.90236 0.0
C5783 C 0.76468 0.15413 0.89934 0.0
C5784 C 0.77012 0.14925 0.89798 0.0
C5785 C 0.77712 0.15081 0.89979 0.0
C5786 C 0.74826 0.1467 0.8904 0.0
C5787 C 0.74299 0.14828 0.89539 0.0
C5788 C 0.75529 0.14866 0.89164 0.0
C5789 C 0.75718 0.15227 0.89786 0.0
C5790 C 0.75187 0.15391 0.9028 0.0
C5791 C 0.74486 0.15192 0.90157 0.0
H5792 H 0.86484 0.61668 0.98195 0.0
H5793 H 0.85496 0.59732 0.98898 0.0
H5794 H 0.86801 0.6195 0.99412 0.0
H5795 H 0.8583 0.60005 1.00115 0.0
H5796 H 0.85721 0.61239 0.0223 0.0
H5797 H 0.85479 0.60873 0.01016 0.0
H5798 H 0.87562 0.61573 1.00393 0.0
H5799 H 0.878 0.61946 0.01606 0.0
C5800 C 0.86338 0.61301 0.9861 0.0
C5801 C 0.85961 0.6068 0.9845 0.0
C5802 C 0.86526 0.61459 0.99306 0.0
C5803 C 0.86339 0.61001 0.99861 0.0
C5804 C 0.85975 0.60373 0.997 0.0
C5805 C 0.8579 0.60212 0.99002 0.0
C5806 C 0.86128 0.61311 0.01834 0.0
C5807 C 0.86778 0.61622 0.02012 0.0
C5808 C 0.85991 0.61097 0.01139 0.0
C5809 C 0.86501 0.61194 1.00607 0.0
C5810 C 0.87155 0.61498 0.00789 0.0
C5811 C 0.87293 0.61708 0.01485 0.0
H5812 H 0.36921 0.91099 0.02901 0.0
H5813 H 0.34795 0.90366 0.025 0.0
H5814 H 0.37238 0.90843 0.01676 0.0
H5815 H 0.35118 0.90083 0.0129 0.0
H5816 H 0.35687 0.90285 0.98983 0.0
H5817 H 0.35408 0.90642 1.0019 0.0
H5818 H 0.37432 0.89842 0.00891 0.0
H5819 H 0.37716 0.89502 0.99677 0.0
C5820 C 0.36521 0.90885 0.02552 0.0
C5821 C 0.35833 0.90751 0.02801 0.0
C5822 C 0.36704 0.90731 0.01851 0.0
C5823 C 0.36204 0.90442 0.01383 0.0
C5824 C 0.35515 0.90314 0.01632 0.0
C5825 C 0.35332 0.90467 0.0233 0.0
C5826 C 0.36073 0.9019 0.99395 0.0
C5827 C 0.36721 0.89865 0.99237 0.0
C5828 C 0.35912 0.9039 1.00088 0.0
C5829 C 0.36395 0.90266 1.0064 0.0
C5830 C 0.37051 0.89952 1.00478 0.0
C5831 C 0.37212 0.89754 0.99783 0.0
H5832 H 0.85892 0.5978 0.77506 0.0
H5833 H 0.85219 0.61921 0.77944 0.0
H5834 H 0.86175 0.60115 0.76299 0.0
H5835 H 0.85475 0.6225 0.76721 0.0
H5836 H 0.86844 0.62725 0.74742 0.0
H5837 H 0.86483 0.6243 0.75946 0.0
H5838 H 0.85635 0.60442 0.75201 0.0
H5839 H 0.86014 0.6073 0.74003 0.0
C5840 C 0.85803 0.60323 0.77344 0.0
C5841 C 0.85537 0.60825 0.77825 0.0
C5842 C 0.85957 0.60513 0.76648 0.0
C5843 C 0.85847 0.61209 0.76411 0.0
C5844 C 0.85573 0.6171 0.76888 0.0
C5845 C 0.85418 0.6152 0.77587 0.0
C5846 C 0.86577 0.62227 0.74836 0.0
C5847 C 0.86459 0.61748 0.7428 0.0
C5848 C 0.86366 0.62059 0.75525 0.0
C5849 C 0.86033 0.6141 0.75672 0.0
C5850 C 0.85901 0.60941 0.7511 0.0
C5851 C 0.86114 0.61107 0.74423 0.0
H5852 H 0.16678 0.10854 0.5246 0.0
H5853 H 0.14509 0.10327 0.52943 0.0
H5854 H 0.16339 0.11147 0.51256 0.0
H5855 H 0.14175 0.10587 0.51724 0.0
H5856 H 0.13726 0.11958 0.49752 0.0
H5857 H 0.14033 0.11588 0.5095 0.0
H5858 H 0.15961 0.10644 0.50164 0.0
H5859 H 0.15661 0.11034 0.48971 0.0
C5860 C 0.16128 0.10798 0.52308 0.0
C5861 C 0.1562 0.10572 0.52801 0.0
C5862 C 0.15935 0.10957 0.51614 0.0
C5863 C 0.15229 0.10891 0.5139 0.0
C5864 C 0.14722 0.10652 0.51879 0.0
C5865 C 0.14915 0.10494 0.52576 0.0
C5866 C 0.14213 0.11668 0.49836 0.0
C5867 C 0.14672 0.11526 0.49269 0.0
C5868 C 0.14388 0.11452 0.50522 0.0
C5869 C 0.15023 0.11088 0.50655 0.0
C5870 C 0.15473 0.10934 0.50083 0.0
C5871 C 0.153 0.11153 0.49399 0.0
H5872 H 0.15557 0.91732 0.7759 0.0
H5873 H 0.16034 0.89541 0.78032 0.0
H5874 H 0.15283 0.91429 0.76372 0.0
H5875 H 0.15788 0.8924 0.768 0.0
H5876 H 0.14477 0.88883 0.74762 0.0
H5877 H 0.14798 0.89148 0.75985 0.0
H5878 H 0.15837 0.91063 0.75293 0.0
H5879 H 0.15499 0.90805 0.74076 0.0
C5880 C 0.15605 0.91185 0.77427 0.0
C5881 C 0.15813 0.90661 0.77911 0.0
C5882 C 0.15456 0.91012 0.76725 0.0
C5883 C 0.15514 0.9031 0.76486 0.0
C5884 C 0.15731 0.89785 0.76968 0.0
C5885 C 0.1588 0.89959 0.77672 0.0
C5886 C 0.14776 0.89359 0.74872 0.0
C5887 C 0.14962 0.89826 0.74325 0.0
C5888 C 0.14964 0.89509 0.75572 0.0
C5889 C 0.15341 0.90129 0.75739 0.0
C5890 C 0.15536 0.90588 0.75187 0.0
C5891 C 0.15347 0.90438 0.74489 0.0
H5892 H 0.64527 0.41101 0.48442 0.0
H5893 H 0.66651 0.40377 0.48873 0.0
H5894 H 0.64204 0.40878 0.49673 0.0
H5895 H 0.66322 0.40128 0.50089 0.0
H5896 H 0.65743 0.40387 0.52385 0.0
H5897 H 0.66024 0.40721 0.51172 0.0
H5898 H 0.64011 0.3989 0.5048 0.0
H5899 H 0.63725 0.39572 0.51698 0.0
C5900 C 0.64925 0.40896 0.48799 0.0
C5901 C 0.65614 0.40755 0.48557 0.0
C5902 C 0.64738 0.40761 0.49503 0.0
C5903 C 0.65237 0.40485 0.4998 0.0
C5904 C 0.65927 0.40349 0.49739 0.0
C5905 C 0.66113 0.40483 0.49038 0.0
C5906 C 0.65359 0.40281 0.51974 0.0
C5907 C 0.64715 0.39953 0.52135 0.0
C5908 C 0.65521 0.40468 0.51278 0.0
C5909 C 0.65042 0.40327 0.50727 0.0
C5910 C 0.64389 0.40012 0.50892 0.0
C5911 C 0.64226 0.39826 0.5159 0.0
H5912 H 0.84681 0.41083 0.73948 0.0
H5913 H 0.86418 0.39816 0.7318 0.0
H5914 H 0.84993 0.40776 0.7516 0.0
H5915 H 0.86739 0.39517 0.74393 0.0
H5916 H 0.86793 0.38672 0.76659 0.0
H5917 H 0.86398 0.38884 0.75446 0.0
H5918 H 0.85906 0.41051 0.75989 0.0
H5919 H 0.86281 0.40831 0.772 0.0
C5920 C 0.85131 0.4074 0.74039 0.0
C5921 C 0.85527 0.40477 0.73468 0.0
C5922 C 0.85311 0.40565 0.74734 0.0
C5923 C 0.85896 0.40127 0.74876 0.0
C5924 C 0.86281 0.39849 0.74304 0.0
C5925 C 0.86098 0.40021 0.73608 0.0
C5926 C 0.86597 0.39192 0.76518 0.0
C5927 C 0.86566 0.39737 0.77023 0.0
C5928 C 0.86374 0.39315 0.75822 0.0
C5929 C 0.86118 0.39984 0.75618 0.0
C5930 C 0.86087 0.40526 0.76128 0.0
C5931 C 0.86307 0.40402 0.76822 0.0
H5932 H 0.6635 0.61841 0.23492 0.0
H5933 H 0.65147 0.59905 0.23658 0.0
H5934 H 0.6601 0.62153 0.247 0.0
H5935 H 0.64818 0.60212 0.24862 0.0
H5936 H 0.65034 0.60584 0.27228 0.0
H5937 H 0.65397 0.60321 0.26019 0.0
H5938 H 0.64951 0.6248 0.25416 0.0
H5939 H 0.64593 0.62745 0.26632 0.0
C5940 C 0.6601 0.61484 0.23783 0.0
C5941 C 0.65781 0.60844 0.23479 0.0
C5942 C 0.65816 0.61663 0.24475 0.0
C5943 C 0.65392 0.61204 0.24878 0.0
C5944 C 0.65157 0.6057 0.2457 0.0
C5945 C 0.65347 0.60393 0.2388 0.0
C5946 C 0.65016 0.61003 0.26837 0.0
C5947 C 0.64784 0.61683 0.27023 0.0
C5948 C 0.6522 0.60852 0.26144 0.0
C5949 C 0.65198 0.61378 0.2562 0.0
C5950 C 0.64978 0.62064 0.25809 0.0
C5951 C 0.6477 0.62215 0.26504 0.0
H5952 H 0.52696 0.66534 0.90082 0.0
H5953 H 0.52913 0.64519 0.91139 0.0
H5954 H 0.51485 0.66239 0.89765 0.0
H5955 H 0.51699 0.6422 0.90811 0.0
H5956 H 0.49747 0.63693 0.89408 0.0
H5957 H 0.50968 0.63958 0.89746 0.0
H5958 H 0.50339 0.66069 0.90354 0.0
H5959 H 0.49123 0.65807 0.9001 0.0
C5960 C 0.52484 0.66031 0.90253 0.0
C5961 C 0.52903 0.65553 0.90641 0.0
C5962 C 0.51789 0.65861 0.9007 0.0
C5963 C 0.51495 0.65207 0.90265 0.0
C5964 C 0.51914 0.64725 0.90646 0.0
C5965 C 0.52609 0.64897 0.90834 0.0
C5966 C 0.4987 0.64213 0.89614 0.0
C5967 C 0.49341 0.64732 0.89681 0.0
C5968 C 0.50569 0.64363 0.89812 0.0
C5969 C 0.50751 0.65035 0.90074 0.0
C5970 C 0.50218 0.6555 0.90144 0.0
C5971 C 0.49522 0.65399 0.89951 0.0
H5972 H 0.59876 0.27745 0.15069 0.0
H5973 H 0.61845 0.27901 0.16219 0.0
H5974 H 0.60161 0.26533 0.14745 0.0
H5975 H 0.62134 0.26686 0.15883 0.0
H5976 H 0.62683 0.24753 0.14458 0.0
H5977 H 0.62428 0.25971 0.14817 0.0
H5978 H 0.60283 0.25372 0.1532 0.0
H5979 H 0.60536 0.24158 0.14955 0.0
C5980 C 0.60366 0.27519 0.15259 0.0
C5981 C 0.60834 0.27921 0.15675 0.0
C5982 C 0.6053 0.26824 0.15072 0.0
C5983 C 0.61168 0.26512 0.15291 0.0
C5984 C 0.61641 0.26914 0.157 0.0
C5985 C 0.61475 0.27611 0.15892 0.0
C5986 C 0.62158 0.24882 0.14647 0.0
C5987 C 0.61627 0.24362 0.14677 0.0
C5988 C 0.62013 0.25578 0.14856 0.0
C5989 C 0.61334 0.25768 0.15094 0.0
C5990 C 0.60808 0.25245 0.1513 0.0
C5991 C 0.60953 0.2455 0.14925 0.0
H5992 H 0.9814 0.36985 0.40378 0.0
H5993 H 0.9894 0.34952 0.41049 0.0
H5994 H 0.99319 0.37309 0.39961 0.0
H5995 H 1.00113 0.35273 0.40626 0.0
H5996 H 0.01748 0.35699 0.38882 0.0
H5997 H 1.00612 0.35445 0.39433 0.0
H5998 H 1.00573 0.37547 0.40329 0.0
H5999 H 0.01716 0.37803 0.39772 0.0
C6000 C 0.98569 0.36612 0.40448 0.0
C6001 C 0.98443 0.35939 0.40739 0.0
C6002 C 0.99244 0.36798 0.40208 0.0
C6003 C 0.99807 0.36313 0.40252 0.0
C6004 C 0.99687 0.35653 0.40571 0.0
C6005 C 0.99015 0.35468 0.40813 0.0
C6006 C 0.01498 0.36106 0.39199 0.0
C6007 C 0.0182 0.36769 0.39285 0.0
C6008 C 0.0085 0.3596 0.39518 0.0
C6009 C 1.00505 0.36475 0.39929 0.0
C6010 C 0.00825 0.37141 0.40013 0.0
C6011 C 0.0148 0.37286 0.39697 0.0
H6012 H 0.89875 0.73187 0.64556 0.0
H6013 H 0.90551 0.73812 0.66645 0.0
H6014 H 0.89576 0.74414 0.64285 0.0
H6015 H 0.90234 0.75036 0.66381 0.0
H6016 H 0.90497 0.77206 0.65289 0.0
H6017 H 0.90703 0.75973 0.65616 0.0
H6018 H 0.8875 0.75376 0.64591 0.0
H6019 H 0.88549 0.76611 0.64259 0.0
C6020 C 0.89956 0.73586 0.64959 0.0
C6021 C 0.90241 0.73402 0.65621 0.0
C6022 C 0.89778 0.74288 0.64806 0.0
C6023 C 0.89884 0.74823 0.65311 0.0
C6024 C 0.90153 0.74637 0.65978 0.0
C6025 C 0.90328 0.73935 0.66132 0.0
C6026 C 0.9011 0.76811 0.65137 0.0
C6027 C 0.89508 0.77004 0.64749 0.0
C6028 C 0.90226 0.76106 0.65328 0.0
C6029 C 0.89742 0.75577 0.65131 0.0
C6030 C 0.89135 0.75771 0.64746 0.0
C6031 C 0.89018 0.76478 0.64558 0.0
H6032 H 0.53114 0.3671 0.61428 0.0
H6033 H 0.5236 0.35418 0.59704 0.0
H6034 H 0.51898 0.37004 0.61742 0.0
H6035 H 0.51144 0.3572 0.60008 0.0
H6036 H 0.49095 0.35678 0.61287 0.0
H6037 H 0.50309 0.35457 0.60915 0.0
H6038 H 0.50847 0.37628 0.61393 0.0
H6039 H 0.49635 0.3784 0.61785 0.0
C6040 C 0.52688 0.36498 0.61109 0.0
C6041 C 0.52833 0.36037 0.60544 0.0
C6042 C 0.51991 0.36667 0.61288 0.0
C6043 C 0.51421 0.36382 0.60904 0.0
C6044 C 0.51568 0.35938 0.60326 0.0
C6045 C 0.52265 0.35765 0.6015 0.0
C6046 C 0.49474 0.36108 0.61311 0.0
C6047 C 0.49271 0.36775 0.61565 0.0
C6048 C 0.50168 0.35983 0.61093 0.0
C6049 C 0.50677 0.36525 0.61121 0.0
C6050 C 0.50472 0.37196 0.61371 0.0
C6051 C 0.49776 0.37319 0.61593 0.0
H6052 H 0.8996 0.28219 0.86712 0.0
H6053 H 0.9058 0.27619 0.84598 0.0
H6054 H 0.8964 0.26996 0.86965 0.0
H6055 H 0.9024 0.26398 0.84845 0.0
H6056 H 0.90457 0.24196 0.85901 0.0
H6057 H 0.90686 0.25424 0.85574 0.0
H6058 H 0.88788 0.2607 0.86668 0.0
H6059 H 0.88565 0.24842 0.87002 0.0
C6060 C 0.90025 0.27826 0.863 0.0
C6061 C 0.903 0.28016 0.85636 0.0
C6062 C 0.89834 0.27126 0.86442 0.0
C6063 C 0.89916 0.26598 0.85926 0.0
C6064 C 0.90178 0.2679 0.85257 0.0
C6065 C 0.90366 0.27492 0.85113 0.0
C6066 C 0.90087 0.24601 0.86067 0.0
C6067 C 0.89495 0.24424 0.86477 0.0
C6068 C 0.90215 0.25304 0.85876 0.0
C6069 C 0.89755 0.25846 0.86095 0.0
C6070 C 0.89156 0.25666 0.86497 0.0
C6071 C 0.89027 0.24962 0.86686 0.0
H6072 H 0.9884 0.65911 0.09824 0.0
H6073 H 0.9815 0.64845 0.11721 0.0
H6074 H 1.00066 0.65612 0.10104 0.0
H6075 H 0.99375 0.64562 0.1201 0.0
H6076 H 0.01598 0.63617 0.1198 0.0
H6077 H 1.00379 0.63838 0.11612 0.0
H6078 H 0.00949 0.65963 0.10994 0.0
H6079 H 0.0217 0.65738 0.11355 0.0
C6080 C 0.98949 0.65608 0.10298 0.0
C6081 C 0.98398 0.65404 0.10752 0.0
C6082 C 0.99652 0.65443 0.10462 0.0
C6083 C 0.99818 0.65065 0.11081 0.0
C6084 C 0.99265 0.64848 0.11526 0.0
C6085 C 0.98563 0.65016 0.11364 0.0
C6086 C 0.01464 0.6413 0.11762 0.0
C6087 C 0.01978 0.64662 0.11696 0.0
C6088 C 0.00765 0.64258 0.11554 0.0
C6089 C 1.00567 0.64918 0.11274 0.0
C6090 C 0.01086 0.65445 0.112 0.0
C6091 C 0.01783 0.65319 0.1141 0.0
H6092 H 0.62073 0.73447 0.3532 0.0
H6093 H 0.59876 0.73992 0.35632 0.0
H6094 H 0.62408 0.74672 0.3556 0.0
H6095 H 0.60212 0.75205 0.35898 0.0
H6096 H 0.60943 0.77469 0.35729 0.0
H6097 H 0.60667 0.76263 0.35362 0.0
H6098 H 0.6246 0.7549 0.36551 0.0
H6099 H 0.62745 0.767 0.36902 0.0
C6100 C 0.61661 0.73828 0.35436 0.0
C6101 C 0.60948 0.7362 0.3546 0.0
C6102 C 0.61854 0.74529 0.35581 0.0
C6103 C 0.61337 0.75038 0.3575 0.0
C6104 C 0.60624 0.7483 0.35762 0.0
C6105 C 0.60432 0.74132 0.35618 0.0
C6106 C 0.61281 0.77041 0.35907 0.0
C6107 C 0.61863 0.77178 0.36345 0.0
C6108 C 0.6112 0.76349 0.35701 0.0
C6109 C 0.61538 0.75778 0.35931 0.0
C6110 C 0.62131 0.75918 0.36358 0.0
C6111 C 0.62293 0.76612 0.36563 0.0
H6112 H 0.90407 0.52601 0.66572 0.0
H6113 H 0.90902 0.53079 0.64395 0.0
H6114 H 0.90144 0.51385 0.66248 0.0
H6115 H 0.90666 0.51848 0.64074 0.0
H6116 H 0.89359 0.49805 0.63687 0.0
H6117 H 0.89677 0.51027 0.63966 0.0
H6118 H 0.9072 0.50316 0.65871 0.0
H6119 H 0.90387 0.49099 0.656 0.0
C6120 C 0.9046 0.52446 0.66024 0.0
C6121 C 0.90671 0.5294 0.65509 0.0
C6122 C 0.90318 0.51746 0.65839 0.0
C6123 C 0.90385 0.51517 0.65135 0.0
C6124 C 0.90602 0.52008 0.6462 0.0
C6125 C 0.90745 0.52711 0.64805 0.0
C6126 C 0.89659 0.4991 0.64164 0.0
C6127 C 0.89846 0.49358 0.64625 0.0
C6128 C 0.89845 0.5061 0.64322 0.0
C6129 C 0.90221 0.50771 0.64943 0.0
C6130 C 0.9042 0.50214 0.65395 0.0
C6131 C 0.90233 0.49516 0.65237 0.0
H6132 H 0.73717 0.6539 0.91486 0.0
H6133 H 0.73291 0.65937 0.8931 0.0
H6134 H 0.74937 0.65121 0.91183 0.0
H6135 H 0.74525 0.65692 0.89011 0.0
H6136 H 0.7657 0.6438 0.88642 0.0
H6137 H 0.75343 0.64693 0.88903 0.0
H6138 H 0.76016 0.65702 0.9084 0.0
H6139 H 0.77237 0.65374 0.90585 0.0
C6140 C 0.73884 0.65453 0.90942 0.0
C6141 C 0.73404 0.65681 0.90422 0.0
C6142 C 0.74586 0.65307 0.9077 0.0
C6143 C 0.7483 0.65386 0.90073 0.0
C6144 C 0.74353 0.65619 0.89552 0.0
C6145 C 0.73648 0.65767 0.89725 0.0
C6146 C 0.76455 0.6467 0.89122 0.0
C6147 C 0.76998 0.64851 0.89596 0.0
C6148 C 0.75752 0.64854 0.8927 0.0
C6149 C 0.75579 0.6522 0.89894 0.0
C6150 C 0.76127 0.6541 0.9036 0.0
C6151 C 0.76828 0.65226 0.90213 0.0
H6152 H 0.61331 0.48674 0.16415 0.0
H6153 H 0.60126 0.48551 0.14478 0.0
H6154 H 0.61666 0.49883 0.16131 0.0
H6155 H 0.60471 0.49763 0.1419 0.0
H6156 H 0.61917 0.51673 0.13615 0.0
H6157 H 0.61534 0.50464 0.13869 0.0
H6158 H 0.6112 0.51055 0.16035 0.0
H6159 H 0.6151 0.5226 0.15782 0.0
C6160 C 0.61131 0.48907 0.15932 0.0
C6161 C 0.60696 0.48515 0.15473 0.0
C6162 C 0.61325 0.49601 0.15768 0.0
C6163 C 0.61092 0.49921 0.15139 0.0
C6164 C 0.60664 0.49529 0.14675 0.0
C6165 C 0.60467 0.48834 0.14841 0.0
C6166 C 0.61741 0.51545 0.14144 0.0
C6167 C 0.61745 0.52059 0.14681 0.0
C6168 C 0.61519 0.50853 0.14289 0.0
C6169 C 0.61299 0.50662 0.14973 0.0
C6170 C 0.61295 0.51182 0.15505 0.0
C6171 C 0.61514 0.51872 0.1536 0.0
H6172 H 0.77978 0.35298 0.39371 0.0
H6173 H 0.77497 0.35913 0.41517 0.0
H6174 H 0.76754 0.35537 0.39031 0.0
H6175 H 0.76288 0.3618 0.41173 0.0
H6176 H 0.74003 0.36024 0.40511 0.0
H6177 H 0.75198 0.3564 0.40812 0.0
H6178 H 0.75975 0.36541 0.38862 0.0
H6179 H 0.74776 0.36908 0.38555 0.0
C6180 C 0.77611 0.35481 0.39771 0.0
C6181 C 0.77837 0.3559 0.40471 0.0
C6182 C 0.76912 0.35625 0.39575 0.0
C6183 C 0.76422 0.3588 0.40074 0.0
C6184 C 0.76647 0.35977 0.40776 0.0
C6185 C 0.77344 0.35833 0.40972 0.0
C6186 C 0.74429 0.36134 0.40145 0.0
C6187 C 0.74297 0.36497 0.39512 0.0
C6188 C 0.75115 0.35918 0.40319 0.0
C6189 C 0.75685 0.36064 0.39864 0.0
C6190 C 0.75548 0.36413 0.39221 0.0
C6191 C 0.74861 0.36627 0.39047 0.0
H6192 H 0.90538 0.48897 0.84809 0.0
H6193 H 0.90967 0.48397 0.86995 0.0
H6194 H 0.90259 0.50108 0.85138 0.0
H6195 H 0.90715 0.49623 0.87322 0.0
H6196 H 0.89379 0.51654 0.87689 0.0
H6197 H 0.89718 0.50437 0.87409 0.0
H6198 H 0.90811 0.51177 0.85544 0.0
H6199 H 0.90456 0.52387 0.85817 0.0
C6200 C 0.90574 0.49046 0.85361 0.0
C6201 C 0.9077 0.48547 0.85876 0.0
C6202 C 0.90422 0.49744 0.85548 0.0
C6203 C 0.90466 0.49965 0.86257 0.0
C6204 C 0.9067 0.49469 0.86773 0.0
C6205 C 0.90822 0.48768 0.86584 0.0
C6206 C 0.89694 0.51556 0.87222 0.0
C6207 C 0.89889 0.52114 0.86772 0.0
C6208 C 0.89892 0.50859 0.87063 0.0
C6209 C 0.90289 0.50708 0.86452 0.0
C6210 C 0.90495 0.51272 0.86013 0.0
C6211 C 0.90296 0.51966 0.8617 0.0
H6212 H 0.78081 0.6593 0.11937 0.0
H6213 H 0.77651 0.65341 0.09773 0.0
H6214 H 0.76849 0.6569 0.12244 0.0
H6215 H 0.76433 0.65075 0.10085 0.0
H6216 H 0.74133 0.65331 0.10683 0.0
H6217 H 0.75352 0.65656 0.10418 0.0
H6218 H 0.76034 0.64699 0.12377 0.0
H6219 H 0.7481 0.64389 0.12649 0.0
C6220 C 0.77724 0.65751 0.11527 0.0
C6221 C 0.77966 0.65653 0.10831 0.0
C6222 C 0.7702 0.65606 0.11705 0.0
C6223 C 0.76541 0.65363 0.1119 0.0
C6224 C 0.76784 0.6527 0.10493 0.0
C6225 C 0.77486 0.65414 0.10316 0.0
C6226 C 0.74544 0.65194 0.11058 0.0
C6227 C 0.74377 0.64834 0.11685 0.0
C6228 C 0.75243 0.65376 0.10905 0.0
C6229 C 0.75793 0.652 0.11374 0.0
C6230 C 0.75623 0.64849 0.12008 0.0
C6231 C 0.74922 0.64668 0.12162 0.0
H6232 H 0.6094 0.52514 0.34945 0.0
H6233 H 0.60203 0.5288 0.37076 0.0
H6234 H 0.6123 0.51299 0.35252 0.0
H6235 H 0.60503 0.5166 0.37385 0.0
H6236 H 0.61899 0.49672 0.37802 0.0
H6237 H 0.61552 0.50889 0.37534 0.0
H6238 H 0.60639 0.50191 0.3556 0.0
H6239 H 0.60995 0.48978 0.35825 0.0
C6240 C 0.60831 0.52333 0.35477 0.0
C6241 C 0.60543 0.52795 0.35984 0.0
C6242 C 0.61 0.51636 0.35653 0.0
C6243 C 0.60887 0.51381 0.36342 0.0
C6244 C 0.60603 0.51842 0.36851 0.0
C6245 C 0.60432 0.52541 0.36674 0.0
C6246 C 0.61621 0.49779 0.37313 0.0
C6247 C 0.61476 0.49231 0.36832 0.0
C6248 C 0.61419 0.50475 0.37161 0.0
C6249 C 0.61071 0.50638 0.36524 0.0
C6250 C 0.60915 0.50086 0.3605 0.0
C6251 C 0.61115 0.49391 0.36203 0.0
H6252 H 0.73196 0.36447 0.61591 0.0
H6253 H 0.74001 0.34704 0.60353 0.0
H6254 H 0.74403 0.36803 0.61876 0.0
H6255 H 0.75207 0.35053 0.60643 0.0
H6256 H 0.77213 0.36398 0.60553 0.0
H6257 H 0.76007 0.35993 0.60345 0.0
H6258 H 0.75469 0.36486 0.6251 0.0
H6259 H 0.76674 0.36908 0.62711 0.0
C6260 C 0.73631 0.36133 0.6139 0.0
C6261 C 0.73503 0.3555 0.60946 0.0
C6262 C 0.74323 0.36336 0.61553 0.0
C6263 C 0.74903 0.3596 0.61278 0.0
C6264 C 0.74773 0.35364 0.60852 0.0
C6265 C 0.74082 0.35163 0.60687 0.0
C6266 C 0.76836 0.36419 0.60984 0.0
C6267 C 0.77037 0.36684 0.61647 0.0
C6268 C 0.76146 0.36182 0.60867 0.0
C6269 C 0.75641 0.36203 0.61412 0.0
C6270 C 0.75843 0.36468 0.62077 0.0
C6271 C 0.76534 0.36707 0.62193 0.0
H6272 H 0.66401 0.90202 0.52638 0.0
H6273 H 0.64349 0.91174 0.52902 0.0
H6274 H 0.66108 0.89911 0.51421 0.0
H6275 H 0.64052 0.90873 0.5168 0.0
H6276 H 0.63577 0.89509 0.49681 0.0
H6277 H 0.63828 0.89825 0.5091 0.0
H6278 H 0.6591 0.90535 0.50301 0.0
H6279 H 0.65662 0.90213 0.49077 0.0
C6280 C 0.65889 0.9036 0.52435 0.0
C6281 C 0.65401 0.90717 0.52868 0.0
C6282 C 0.65721 0.90192 0.51737 0.0
C6283 C 0.65058 0.90372 0.51452 0.0
C6284 C 0.64565 0.9072 0.51886 0.0
C6285 C 0.64735 0.90892 0.52586 0.0
C6286 C 0.64087 0.89734 0.4981 0.0
C6287 C 0.64602 0.89834 0.49285 0.0
C6288 C 0.64229 0.89919 0.50513 0.0
C6289 C 0.6489 0.90202 0.50704 0.0
C6290 C 0.654 0.90309 0.50174 0.0
C6291 C 0.65257 0.90128 0.49473 0.0
H6292 H 0.14917 0.61776 0.48155 0.0
H6293 H 0.15618 0.59687 0.48762 0.0
H6294 H 0.14619 0.62034 0.49382 0.0
H6295 H 0.15302 0.59939 0.49988 0.0
H6296 H 0.15552 0.61032 0.52164 0.0
H6297 H 0.15759 0.60704 0.50933 0.0
H6298 H 0.13797 0.61712 0.50337 0.0
H6299 H 0.13594 0.62046 0.51568 0.0
C6300 C 0.15004 0.61371 0.4855 0.0
C6301 C 0.15296 0.60713 0.48362 0.0
C6302 C 0.14826 0.61516 0.49253 0.0
C6303 C 0.14938 0.61008 0.49783 0.0
C6304 C 0.15216 0.60344 0.49592 0.0
C6305 C 0.1539 0.60198 0.48889 0.0
C6306 C 0.15163 0.6118 0.5177 0.0
C6307 C 0.14559 0.61564 0.51961 0.0
C6308 C 0.15279 0.60988 0.51066 0.0
C6309 C 0.14794 0.61182 0.50537 0.0
C6310 C 0.14184 0.61561 0.50731 0.0
C6311 C 0.14066 0.6175 0.51437 0.0
H6312 H 0.66577 0.91021 0.73974 0.0
H6313 H 0.64858 0.89759 0.73158 0.0
H6314 H 0.66234 0.90712 0.75176 0.0
H6315 H 0.64508 0.89456 0.74361 0.0
H6316 H 0.6442 0.88594 0.76622 0.0
H6317 H 0.64832 0.88817 0.75419 0.0
H6318 H 0.65298 0.90983 0.75985 0.0
H6319 H 0.64905 0.90752 0.77189 0.0
C6320 C 0.66124 0.90678 0.74052 0.0
C6321 C 0.65742 0.90418 0.7347 0.0
C6322 C 0.65927 0.90503 0.74741 0.0
C6323 C 0.65339 0.90064 0.74867 0.0
C6324 C 0.64968 0.89789 0.74285 0.0
C6325 C 0.65168 0.89962 0.73594 0.0
C6326 C 0.64613 0.89116 0.76489 0.0
C6327 C 0.64632 0.89656 0.76999 0.0
C6328 C 0.64845 0.89245 0.75798 0.0
C6329 C 0.65101 0.89917 0.75604 0.0
C6330 C 0.65118 0.90456 0.76117 0.0
C6331 C 0.64887 0.90326 0.76806 0.0
H6332 H 0.34769 0.4024 0.98693 0.0
H6333 H 0.36855 0.41117 0.98385 0.0
H6334 H 0.35069 0.39949 0.99908 0.0
H6335 H 0.37146 0.40852 0.99615 0.0
H6336 H 0.37655 0.39481 0.0158 0.0
H6337 H 0.37381 0.39841 1.00371 0.0
H6338 H 0.35291 0.40484 0.01036 0.0
H6339 H 0.35561 0.40106 0.0224 0.0
C6340 C 0.35292 0.40371 0.98885 0.0
C6341 C 0.35789 0.40697 0.98439 0.0
C6342 C 0.35461 0.40213 0.99586 0.0
C6343 C 0.36132 0.40378 0.99861 0.0
C6344 C 0.36627 0.40711 0.99418 0.0
C6345 C 0.36458 0.4087 0.98715 0.0
C6346 C 0.37138 0.39702 0.01468 0.0
C6347 C 0.36627 0.39764 0.02003 0.0
C6348 C 0.36982 0.39913 0.00776 0.0
C6349 C 0.36313 0.40189 1.00605 0.0
C6350 C 0.35808 0.40262 0.01146 0.0
C6351 C 0.35963 0.4005 0.01836 0.0
H6352 H 0.34668 0.60643 0.73824 0.0
H6353 H 0.36713 0.61416 0.73168 0.0
H6354 H 0.34933 0.60981 0.75042 0.0
H6355 H 0.36986 0.61734 0.74386 0.0
H6356 H 0.37017 0.62793 0.76544 0.0
H6357 H 0.36656 0.62557 0.75328 0.0
H6358 H 0.35728 0.60576 0.75986 0.0
H6359 H 0.36082 0.60818 0.77205 0.0
C6360 C 0.35171 0.6089 0.73939 0.0
C6361 C 0.35671 0.61 0.734 0.0
C6362 C 0.35326 0.61077 0.74638 0.0
C6363 C 0.35982 0.61382 0.74812 0.0
C6364 C 0.36474 0.61506 0.7427 0.0
C6365 C 0.36321 0.61317 0.73572 0.0
C6366 C 0.36732 0.6231 0.7643 0.0
C6367 C 0.36578 0.61822 0.76969 0.0
C6368 C 0.36528 0.62173 0.75733 0.0
C6369 C 0.36165 0.61547 0.75559 0.0
C6370 C 0.36 0.61067 0.76103 0.0
C6371 C 0.36206 0.61203 0.76799 0.0
H6372 H 0.85729 0.09798 0.02527 0.0
H6373 H 0.86668 0.11779 0.03171 0.0
H6374 H 0.86034 0.10053 0.013 0.0
H6375 H 0.86954 0.12043 0.01942 0.0
H6376 H 0.87888 0.12033 0.99718 0.0
H6377 H 0.87701 0.11675 0.00945 0.0
H6378 H 0.85626 0.1089 1.00397 0.0
H6379 H 0.85818 0.11241 0.9917 0.0
C6380 C 0.86008 0.10284 0.02408 0.0
C6381 C 0.86172 0.1077 0.02946 0.0
C6382 C 0.86175 0.10434 0.01703 0.0
C6383 C 0.86514 0.11071 0.01522 0.0
C6384 C 0.86698 0.11546 0.02064 0.0
C6385 C 0.86527 0.11398 0.02767 0.0
C6386 C 0.87394 0.1178 0.99859 0.0
C6387 C 0.86866 0.11665 0.99349 0.0
C6388 C 0.87286 0.11577 1.00563 0.0
C6389 C 0.86648 0.11254 0.00769 0.0
C6390 C 0.86127 0.11129 1.00254 0.0
C6391 C 0.86234 0.11334 0.99553 0.0
H6392 H 0.66548 0.1072 0.77561 0.0
H6393 H 0.64489 0.11491 0.78181 0.0
H6394 H 0.66292 0.11028 0.76334 0.0
H6395 H 0.64225 0.1178 0.76952 0.0
H6396 H 0.6424 0.12803 0.7476 0.0
H6397 H 0.64562 0.12586 0.75992 0.0
H6398 H 0.65511 0.10594 0.75394 0.0
H6399 H 0.65196 0.10816 0.74162 0.0
C6400 C 0.66043 0.10961 0.77436 0.0
C6401 C 0.65538 0.11079 0.77968 0.0
C6402 C 0.65893 0.11131 0.76732 0.0
C6403 C 0.65236 0.11426 0.76544 0.0
C6404 C 0.64738 0.11559 0.77079 0.0
C6405 C 0.64886 0.11386 0.77782 0.0
C6406 C 0.6452 0.1232 0.74891 0.0
C6407 C 0.64694 0.11825 0.74365 0.0
C6408 C 0.64701 0.12194 0.75598 0.0
C6409 C 0.65063 0.11573 0.75791 0.0
C6410 C 0.65241 0.11082 0.75262 0.0
C6411 C 0.65058 0.11207 0.74557 0.0
H6412 H 0.85764 0.91673 0.274 0.0
H6413 H 0.85368 0.89484 0.27923 0.0
H6414 H 0.86041 0.91336 0.26193 0.0
H6415 H 0.85615 0.89148 0.26701 0.0
H6416 H 0.86966 0.88765 0.24694 0.0
H6417 H 0.86609 0.89058 0.25899 0.0
H6418 H 0.8552 0.90913 0.25123 0.0
H6419 H 0.85895 0.90628 0.23923 0.0
C6420 C 0.85733 0.91119 0.27257 0.0
C6421 C 0.85549 0.90605 0.27761 0.0
C6422 C 0.85884 0.90926 0.26561 0.0
C6423 C 0.85851 0.90214 0.26348 0.0
C6424 C 0.85653 0.89701 0.26849 0.0
C6425 C 0.85503 0.89894 0.27547 0.0
C6426 C 0.86648 0.89233 0.24782 0.0
C6427 C 0.8646 0.89676 0.24216 0.0
C6428 C 0.86439 0.89399 0.25472 0.0
C6429 C 0.86038 0.90012 0.2561 0.0
C6430 C 0.85838 0.90445 0.25039 0.0
C6431 C 0.86049 0.9028 0.24351 0.0
H6432 H 0.48526 0.36917 0.10066 0.0
H6433 H 0.48775 0.34852 0.11015 0.0
H6434 H 0.49737 0.37215 0.10404 0.0
H6435 H 0.49984 0.35147 0.11342 0.0
H6436 H 0.52338 0.35631 0.11149 0.0
H6437 H 0.5113 0.35366 0.10776 0.0
H6438 H 0.50459 0.37435 0.11478 0.0
H6439 H 0.5167 0.37702 0.11844 0.0
C6440 C 0.48836 0.36528 0.1035 0.0
C6441 C 0.48552 0.35858 0.10509 0.0
C6442 C 0.4953 0.36699 0.10543 0.0
C6443 C 0.49958 0.36203 0.10897 0.0
C6444 C 0.49673 0.35536 0.11058 0.0
C6445 C 0.4898 0.35366 0.10869 0.0
C6446 C 0.51932 0.36029 0.11221 0.0
C6447 C 0.52097 0.36685 0.11527 0.0
C6448 C 0.5124 0.35877 0.11011 0.0
C6449 C 0.50697 0.36378 0.111 0.0
C6450 C 0.50866 0.3704 0.11396 0.0
C6451 C 0.51558 0.37191 0.1161 0.0
H6452 H 0.39474 0.73452 0.85342 0.0
H6453 H 0.41669 0.73933 0.85754 0.0
H6454 H 0.39161 0.74683 0.8558 0.0
H6455 H 0.41354 0.7515 0.86023 0.0
H6456 H 0.40683 0.77439 0.85826 0.0
H6457 H 0.40958 0.76224 0.85485 0.0
H6458 H 0.39077 0.755 0.86561 0.0
H6459 H 0.38795 0.76718 0.86884 0.0
C6460 C 0.3989 0.7382 0.8548 0.0
C6461 C 0.40597 0.73592 0.85531 0.0
C6462 C 0.3971 0.74524 0.85625 0.0
C6463 C 0.40232 0.75017 0.85823 0.0
C6464 C 0.40938 0.74789 0.85864 0.0
C6465 C 0.41119 0.74087 0.85719 0.0
C6466 C 0.40328 0.77019 0.85986 0.0
C6467 C 0.39719 0.77173 0.86382 0.0
C6468 C 0.40486 0.76323 0.85795 0.0
C6469 C 0.40042 0.75762 0.85998 0.0
C6470 C 0.39427 0.75918 0.86387 0.0
C6471 C 0.39267 0.76617 0.86577 0.0
H6472 H 0.02407 0.65857 0.59609 0.0
H6473 H 0.03101 0.64847 0.61536 0.0
H6474 H 0.01185 0.65546 0.59886 0.0
H6475 H 0.01878 0.64553 0.61822 0.0
H6476 H 0.99653 0.63618 0.6183 0.0
H6477 H 0.00871 0.63819 0.6145 0.0
H6478 H 1.00305 0.65924 0.60762 0.0
H6479 H 0.99086 0.65718 0.61135 0.0
C6480 C 0.023 0.65562 0.60088 0.0
C6481 C 0.02851 0.65379 0.60552 0.0
C6482 C 0.01599 0.65391 0.6025 0.0
C6483 C 0.01434 0.65028 0.60878 0.0
C6484 C 0.01988 0.64827 0.61332 0.0
C6485 C 0.02688 0.65002 0.61171 0.0
C6486 C 0.99788 0.64121 0.61594 0.0
C6487 C 0.99275 0.64654 0.61512 0.0
C6488 C 1.00486 0.64238 0.61379 0.0
C6489 C 1.00685 0.64888 0.61076 0.0
C6490 C 1.00168 0.65415 0.60985 0.0
C6491 C 0.99471 0.65299 0.61202 0.0
H6492 H 0.09735 0.27549 0.35869 0.0
H6493 H 0.11923 0.27982 0.35376 0.0
H6494 H 0.10034 0.26327 0.36133 0.0
H6495 H 0.12219 0.26746 0.35612 0.0
H6496 H 0.12585 0.24712 0.36921 0.0
H6497 H 0.12318 0.25934 0.36599 0.0
H6498 H 0.1039 0.25242 0.35584 0.0
H6499 H 0.10651 0.24024 0.35924 0.0
C6500 C 0.1028 0.27383 0.35815 0.0
C6501 C 0.10805 0.27866 0.35606 0.0
C6502 C 0.10451 0.26678 0.35958 0.0
C6503 C 0.11151 0.26436 0.35894 0.0
C6504 C 0.11675 0.26916 0.35675 0.0
C6505 C 0.11504 0.27623 0.35532 0.0
C6506 C 0.12106 0.24821 0.36627 0.0
C6507 C 0.11636 0.24274 0.36449 0.0
C6508 C 0.11954 0.25521 0.36438 0.0
C6509 C 0.11331 0.25688 0.36067 0.0
C6510 C 0.10869 0.25136 0.3588 0.0
C6511 C 0.11019 0.24437 0.36071 0.0
H6512 H 0.49121 0.66016 0.41906 0.0
H6513 H 0.48338 0.64821 0.40125 0.0
H6514 H 0.50331 0.65726 0.4157 0.0
H6515 H 0.49547 0.64539 0.39781 0.0
H6516 H 0.518 0.63693 0.3966 0.0
H6517 H 0.50598 0.63891 0.40087 0.0
H6518 H 0.51157 0.66032 0.40663 0.0
H6519 H 0.52362 0.65825 0.40255 0.0
C6520 C 0.49208 0.65692 0.41442 0.0
C6521 C 0.48633 0.65444 0.41041 0.0
C6522 C 0.49902 0.65527 0.41247 0.0
C6523 C 0.50039 0.65113 0.40645 0.0
C6524 C 0.49463 0.64851 0.40253 0.0
C6525 C 0.48768 0.65013 0.4045 0.0
C6526 C 0.51667 0.64204 0.39881 0.0
C6527 C 0.52174 0.64745 0.39925 0.0
C6528 C 0.50976 0.64319 0.40123 0.0
C6529 C 0.50779 0.64978 0.4041 0.0
C6530 C 0.51292 0.65515 0.40457 0.0
C6531 C 0.51981 0.65399 0.40218 0.0
H6532 H 0.11518 0.7329 0.14758 0.0
H6533 H 0.10433 0.74013 0.16632 0.0
H6534 H 0.11809 0.74511 0.14457 0.0
H6535 H 0.10739 0.75233 0.1634 0.0
H6536 H 0.1062 0.77317 0.15056 0.0
H6537 H 0.10395 0.76101 0.15432 0.0
H6538 H 0.12526 0.75524 0.14847 0.0
H6539 H 0.12748 0.76738 0.14464 0.0
C6540 C 0.11345 0.73709 0.15108 0.0
C6541 C 0.10949 0.73554 0.15717 0.0
C6542 C 0.11517 0.74408 0.14939 0.0
C6543 C 0.11295 0.7497 0.15373 0.0
C6544 C 0.10911 0.74813 0.1599 0.0
C6545 C 0.10742 0.74114 0.16162 0.0
C6546 C 0.11041 0.7693 0.15011 0.0
C6547 C 0.117 0.77122 0.1473 0.0
C6548 C 0.10914 0.76235 0.15231 0.0
C6549 C 0.11443 0.75715 0.1517 0.0
C6550 C 0.12106 0.7591 0.14894 0.0
C6551 C 0.12234 0.76606 0.14678 0.0
H6552 H 0.02978 0.37001 0.90959 0.0
H6553 H 0.025 0.34807 0.90532 0.0
H6554 H 0.01745 0.37313 0.90731 0.0
H6555 H 0.0128 0.35122 0.90276 0.0
H6556 H 0.98996 0.35777 0.90508 0.0
H6557 H 1.00215 0.35511 0.90837 0.0
H6558 H 0.00915 0.37398 0.89755 0.0
H6559 H 0.99691 0.37673 0.89443 0.0
C6560 C 0.0261 0.36585 0.90819 0.0
C6561 C 0.02839 0.35879 0.90761 0.0
C6562 C 0.01905 0.36765 0.90681 0.0
C6563 C 0.01413 0.36243 0.90484 0.0
C6564 C 0.01642 0.35537 0.90434 0.0
C6565 C 0.02344 0.35357 0.90573 0.0
C6566 C 0.99411 0.36136 0.90344 0.0
C6567 C 0.9925 0.36744 0.8995 0.0
C6568 C 1.0011 0.35982 0.90529 0.0
C6569 C 1.00665 0.36431 0.90319 0.0
C6570 C 1.00501 0.37046 0.89932 0.0
C6571 C 0.998 0.37201 0.8975 0.0
H6572 H 0.40787 0.27438 0.66714 0.0
H6573 H 0.3979 0.28114 0.64774 0.0
H6574 H 0.40469 0.26213 0.66449 0.0
H6575 H 0.3949 0.2689 0.645 0.0
H6576 H 0.38523 0.24684 0.64514 0.0
H6577 H 0.38742 0.25902 0.64885 0.0
H6578 H 0.40835 0.2531 0.65586 0.0
H6579 H 0.40611 0.2409 0.65222 0.0
C6580 C 0.40494 0.27326 0.66234 0.0
C6581 C 0.40316 0.27873 0.65763 0.0
C6582 C 0.40318 0.26623 0.66079 0.0
C6583 C 0.39957 0.26453 0.65452 0.0
C6584 C 0.39763 0.27003 0.6499 0.0
C6585 C 0.39942 0.27704 0.65144 0.0
C6586 C 0.39028 0.24813 0.64752 0.0
C6587 C 0.39551 0.24293 0.64839 0.0
C6588 C 0.39154 0.25512 0.64961 0.0
C6589 C 0.39806 0.25704 0.65264 0.0
C6590 C 0.40324 0.25179 0.65362 0.0
C6591 C 0.40198 0.24481 0.65151 0.0
H6592 H 0.09698 0.48833 0.35614 0.0
H6593 H 0.11744 0.48188 0.36398 0.0
H6594 H 0.09965 0.50058 0.35924 0.0
H6595 H 0.12019 0.49415 0.36689 0.0
H6596 H 0.12036 0.51622 0.37685 0.0
H6597 H 0.11691 0.50391 0.37484 0.0
H6598 H 0.10762 0.5098 0.35482 0.0
H6599 H 0.111 0.5221 0.35688 0.0
C6600 C 0.10202 0.48951 0.35859 0.0
C6601 C 0.10701 0.48413 0.35979 0.0
C6602 C 0.10358 0.49654 0.36029 0.0
C6603 C 0.11015 0.49835 0.36327 0.0
C6604 C 0.11506 0.49294 0.36465 0.0
C6605 C 0.11351 0.48591 0.36292 0.0
C6606 C 0.11755 0.51489 0.37204 0.0
C6607 C 0.11594 0.52011 0.36701 0.0
C6608 C 0.1156 0.50783 0.37088 0.0
C6609 C 0.11199 0.50587 0.36468 0.0
C6610 C 0.11031 0.51114 0.3597 0.0
C6611 C 0.11228 0.51817 0.36085 0.0
H6612 H 0.2782 0.35032 0.11678 0.0
H6613 H 0.27723 0.36378 0.09834 0.0
H6614 H 0.26614 0.35379 0.11988 0.0
H6615 H 0.26521 0.36715 0.1014 0.0
H6616 H 0.24141 0.36548 0.10454 0.0
H6617 H 0.25345 0.36169 0.10185 0.0
H6618 H 0.25918 0.36427 0.1238 0.0
H6619 H 0.24708 0.36799 0.1265 0.0
C6620 C 0.27544 0.35405 0.11341 0.0
C6621 C 0.27868 0.35672 0.10727 0.0
C6622 C 0.26853 0.35603 0.11519 0.0
C6623 C 0.26469 0.36071 0.11086 0.0
C6624 C 0.26796 0.36343 0.10477 0.0
C6625 C 0.27486 0.36148 0.10301 0.0
C6626 C 0.24524 0.36521 0.10879 0.0
C6627 C 0.24332 0.36705 0.11571 0.0
C6628 C 0.25215 0.36308 0.10725 0.0
C6629 C 0.25729 0.36273 0.1126 0.0
C6630 C 0.25533 0.36445 0.11957 0.0
C6631 C 0.24841 0.36661 0.12111 0.0
H6632 H 0.41698 0.52526 0.85549 0.0
H6633 H 0.39741 0.53228 0.86493 0.0
H6634 H 0.41419 0.51307 0.85875 0.0
H6635 H 0.39453 0.52009 0.86802 0.0
H6636 H 0.39443 0.49805 0.87793 0.0
H6637 H 0.39815 0.51023 0.87568 0.0
H6638 H 0.40558 0.50409 0.85498 0.0
H6639 H 0.40192 0.49191 0.85728 0.0
C6640 C 0.41211 0.52421 0.85832 0.0
C6641 C 0.4074 0.52974 0.85992 0.0
C6642 C 0.41048 0.51722 0.86012 0.0
C6643 C 0.40412 0.5156 0.86361 0.0
C6644 C 0.3995 0.52116 0.86538 0.0
C6645 C 0.40111 0.52814 0.86355 0.0
C6646 C 0.3969 0.4993 0.87292 0.0
C6647 C 0.39789 0.49404 0.86777 0.0
C6648 C 0.399 0.50628 0.87162 0.0
C6649 C 0.40217 0.50813 0.86515 0.0
C6650 C 0.40325 0.50283 0.86005 0.0
C6651 C 0.40112 0.49586 0.86135 0.0
H6652 H 0.23199 0.64719 0.61426 0.0
H6653 H 0.23839 0.66775 0.60663 0.0
H6654 H 0.24424 0.64448 0.61728 0.0
H6655 H 0.25062 0.66512 0.60984 0.0
H6656 H 0.27222 0.65394 0.60765 0.0
H6657 H 0.25993 0.65724 0.60548 0.0
H6658 H 0.25389 0.64771 0.62533 0.0
H6659 H 0.2662 0.64433 0.62745 0.0
C6660 C 0.23601 0.65115 0.61327 0.0
C6661 C 0.23422 0.65767 0.61016 0.0
C6662 C 0.24302 0.64962 0.61506 0.0
C6663 C 0.24841 0.65457 0.61378 0.0
C6664 C 0.2466 0.66116 0.61083 0.0
C6665 C 0.23958 0.6627 0.60906 0.0
C6666 C 0.26826 0.65258 0.61156 0.0
C6667 C 0.27016 0.64888 0.61771 0.0
C6668 C 0.26123 0.65451 0.61034 0.0
C6669 C 0.25593 0.65275 0.61524 0.0
C6670 C 0.25784 0.64908 0.62142 0.0
C6671 C 0.26489 0.64718 0.62265 0.0
H6672 H 0.1101 0.52569 0.165 0.0
H6673 H 0.10229 0.52934 0.14385 0.0
H6674 H 0.11294 0.51354 0.16189 0.0
H6675 H 0.10487 0.51704 0.14081 0.0
H6676 H 0.1185 0.49719 0.13601 0.0
H6677 H 0.11497 0.50931 0.13878 0.0
H6678 H 0.10744 0.50241 0.15921 0.0
H6679 H 0.11113 0.49034 0.15649 0.0
C6680 C 0.10898 0.5239 0.15968 0.0
C6681 C 0.10602 0.52852 0.15466 0.0
C6682 C 0.11053 0.51689 0.15792 0.0
C6683 C 0.10913 0.51429 0.1511 0.0
C6684 C 0.10609 0.51889 0.14609 0.0
C6685 C 0.10454 0.52592 0.14785 0.0
C6686 C 0.11606 0.49826 0.14108 0.0
C6687 C 0.11511 0.49283 0.14606 0.0
C6688 C 0.114 0.5052 0.14265 0.0
C6689 C 0.11095 0.50685 0.14923 0.0
C6690 C 0.10988 0.50136 0.15414 0.0
C6691 C 0.11195 0.49444 0.15257 0.0
H6692 H 0.23358 0.35409 0.89415 0.0
H6693 H 0.23856 0.35873 0.91594 0.0
H6694 H 0.24586 0.35645 0.89087 0.0
H6695 H 0.2507 0.36136 0.91265 0.0
H6696 H 0.27346 0.359 0.90599 0.0
H6697 H 0.26133 0.35564 0.90872 0.0
H6698 H 0.25411 0.36632 0.88986 0.0
H6699 H 0.26631 0.36954 0.88705 0.0
C6700 C 0.2373 0.35559 0.89824 0.0
C6701 C 0.23508 0.35625 0.90531 0.0
C6702 C 0.24432 0.35701 0.89635 0.0
C6703 C 0.24928 0.3591 0.90149 0.0
C6704 C 0.24705 0.35968 0.90856 0.0
C6705 C 0.24006 0.35826 0.91044 0.0
C6706 C 0.26928 0.36059 0.90241 0.0
C6707 C 0.27082 0.36454 0.89633 0.0
C6708 C 0.26232 0.3587 0.90399 0.0
C6709 C 0.25672 0.36075 0.89954 0.0
C6710 C 0.25829 0.3646 0.89337 0.0
C6711 C 0.26528 0.36647 0.89177 0.0
H6712 H 0.41663 0.48835 0.65681 0.0
H6713 H 0.39572 0.48205 0.65012 0.0
H6714 H 0.41399 0.50056 0.65354 0.0
H6715 H 0.39302 0.49429 0.64702 0.0
H6716 H 0.3929 0.51613 0.63641 0.0
H6717 H 0.39613 0.5038 0.63863 0.0
H6718 H 0.40632 0.51001 0.65811 0.0
H6719 H 0.40314 0.52232 0.65584 0.0
C6720 C 0.41149 0.48956 0.65458 0.0
C6721 C 0.40638 0.48423 0.65375 0.0
C6722 C 0.40995 0.49657 0.65277 0.0
C6723 C 0.40328 0.49841 0.65006 0.0
C6724 C 0.39823 0.49304 0.64905 0.0
C6725 C 0.39975 0.48604 0.65089 0.0
C6726 C 0.39585 0.51486 0.64114 0.0
C6727 C 0.39778 0.52018 0.64596 0.0
C6728 C 0.39768 0.50779 0.64243 0.0
C6729 C 0.40149 0.50592 0.64854 0.0
C6730 C 0.40346 0.51128 0.65331 0.0
C6731 C 0.40161 0.51832 0.65203 0.0
H6732 H 0.27986 0.66031 0.39415 0.0
H6733 H 0.27527 0.65456 0.41576 0.0
H6734 H 0.26753 0.65806 0.39095 0.0
H6735 H 0.26308 0.65206 0.41253 0.0
H6736 H 0.24021 0.65506 0.40635 0.0
H6737 H 0.25243 0.65816 0.40904 0.0
H6738 H 0.25922 0.64818 0.38965 0.0
H6739 H 0.24694 0.64522 0.38689 0.0
C6740 C 0.27622 0.65858 0.39822 0.0
C6741 C 0.27856 0.6576 0.40521 0.0
C6742 C 0.26918 0.65722 0.39637 0.0
C6743 C 0.26431 0.65488 0.40148 0.0
C6744 C 0.26666 0.65394 0.40847 0.0
C6745 C 0.27368 0.65529 0.41031 0.0
C6746 C 0.24432 0.65356 0.40265 0.0
C6747 C 0.24263 0.64988 0.39644 0.0
C6748 C 0.25132 0.6553 0.40421 0.0
C6749 C 0.25682 0.65337 0.39959 0.0
C6750 C 0.25511 0.6498 0.39329 0.0
C6751 C 0.24808 0.64807 0.39173 0.0
H6752 H 0.34814 0.10919 0.48877 0.0
H6753 H 0.36996 0.10428 0.48416 0.0
H6754 H 0.35128 0.11177 0.50096 0.0
H6755 H 0.37307 0.10658 0.49648 0.0
H6756 H 0.37684 0.11949 0.51699 0.0
H6757 H 0.37409 0.11642 0.50474 0.0
H6758 H 0.35497 0.106 0.51165 0.0
H6759 H 0.35764 0.10923 0.52384 0.0
C6760 C 0.35361 0.10865 0.49036 0.0
C6761 C 0.3588 0.10657 0.48547 0.0
C6762 C 0.3554 0.11005 0.49739 0.0
C6763 C 0.36243 0.10937 0.49972 0.0
C6764 C 0.36762 0.10722 0.49485 0.0
C6765 C 0.36582 0.10582 0.4878 0.0
C6766 C 0.37206 0.11652 0.51588 0.0
C6767 C 0.36742 0.11461 0.52136 0.0
C6768 C 0.37051 0.11473 0.50887 0.0
C6769 C 0.36429 0.11099 0.5072 0.0
C6770 C 0.35974 0.10899 0.51272 0.0
C6771 C 0.36128 0.11079 0.51971 0.0
H6772 H 0.8559 0.41837 0.52457 0.0
H6773 H 0.8642 0.39804 0.53091 0.0
H6774 H 0.85893 0.41577 0.5123 0.0
H6775 H 0.86704 0.39536 0.51862 0.0
H6776 H 0.87678 0.39535 0.49651 0.0
H6777 H 0.87484 0.39878 0.50882 0.0
H6778 H 0.85459 0.40772 0.50311 0.0
H6779 H 0.85659 0.40437 0.49081 0.0
C6780 C 0.85843 0.41338 0.52336 0.0
C6781 C 0.85978 0.4084 0.52872 0.0
C6782 C 0.8601 0.41185 0.51632 0.0
C6783 C 0.86319 0.40534 0.51448 0.0
C6784 C 0.86472 0.40045 0.51986 0.0
C6785 C 0.86302 0.40196 0.52689 0.0
C6786 C 0.87194 0.39808 0.49788 0.0
C6787 C 0.86683 0.3996 0.49271 0.0
C6788 C 0.87081 0.40001 0.50494 0.0
C6789 C 0.86456 0.40353 0.50695 0.0
C6790 C 0.8595 0.40511 0.50173 0.0
C6791 C 0.86062 0.40315 0.4947 0.0
H6792 H 0.34563 0.10835 0.2753 0.0
H6793 H 0.36641 0.11558 0.28143 0.0
H6794 H 0.34821 0.11138 0.26302 0.0
H6795 H 0.36906 0.11841 0.26913 0.0
H6796 H 0.36921 0.1283 0.24704 0.0
H6797 H 0.36591 0.12643 0.25939 0.0
H6798 H 0.35589 0.1067 0.25372 0.0
H6799 H 0.35911 0.10862 0.24138 0.0
C6800 C 0.35072 0.11065 0.27404 0.0
C6801 C 0.35583 0.1117 0.27934 0.0
C6802 C 0.35223 0.11232 0.26699 0.0
C6803 C 0.35885 0.1151 0.26509 0.0
C6804 C 0.36388 0.11633 0.27042 0.0
C6805 C 0.36239 0.11463 0.27746 0.0
C6806 C 0.36627 0.12359 0.24843 0.0
C6807 C 0.36441 0.11859 0.24325 0.0
C6808 C 0.36441 0.1225 0.25551 0.0
C6809 C 0.36062 0.11642 0.25754 0.0
C6810 C 0.35871 0.11149 0.25232 0.0
C6811 C 0.36059 0.11256 0.24527 0.0
H6812 H 0.64926 0.61817 0.03184 0.0
H6813 H 0.65726 0.59774 0.02545 0.0
H6814 H 0.64651 0.62096 0.01955 0.0
H6815 H 0.65432 0.60045 0.01318 0.0
H6816 H 0.65681 0.61172 0.99171 0.0
H6817 H 0.6588 0.60845 1.00403 0.0
H6818 H 0.63868 0.61768 0.00969 0.0
H6819 H 0.63674 0.62102 0.99736 0.0
C6820 C 0.65039 0.61426 0.02781 0.0
C6821 C 0.65352 0.60775 0.02962 0.0
C6822 C 0.64875 0.61583 0.02078 0.0
C6823 C 0.65022 0.61094 0.01538 0.0
C6824 C 0.6532 0.60436 0.0172 0.0
C6825 C 0.65481 0.60278 0.02425 0.0
C6826 C 0.65281 0.61303 0.99559 0.0
C6827 C 0.64663 0.61662 0.99358 0.0
C6828 C 0.65392 0.61111 1.00264 0.0
C6829 C 0.64889 0.61278 0.00785 0.0
C6830 C 0.64269 0.61637 1.00582 0.0
C6831 C 0.64156 0.61825 0.99875 0.0
H6832 H 0.66027 0.3949 0.27871 0.0
H6833 H 0.65348 0.41639 0.27492 0.0
H6834 H 0.65779 0.39196 0.26637 0.0
H6835 H 0.65078 0.41341 0.26272 0.0
H6836 H 0.65321 0.40786 0.23957 0.0
H6837 H 0.65656 0.41045 0.25175 0.0
H6838 H 0.64771 0.39045 0.2584 0.0
H6839 H 0.6445 0.38782 0.24618 0.0
C6840 C 0.65827 0.399 0.27525 0.0
C6841 C 0.65705 0.40587 0.27782 0.0
C6842 C 0.65678 0.3973 0.2682 0.0
C6843 C 0.65408 0.40245 0.26355 0.0
C6844 C 0.65293 0.40933 0.26612 0.0
C6845 C 0.6544 0.41102 0.27315 0.0
C6846 C 0.65202 0.40401 0.24364 0.0
C6847 C 0.64859 0.39766 0.24193 0.0
C6848 C 0.6539 0.40551 0.25062 0.0
C6849 C 0.65237 0.40068 0.25607 0.0
C6850 C 0.64903 0.39426 0.25433 0.0
C6851 C 0.64715 0.39276 0.24733 0.0
H6852 H 0.1578 0.91729 0.98802 0.0
H6853 H 0.14953 0.89689 0.98191 0.0
H6854 H 0.15486 0.91479 1.00033 0.0
H6855 H 0.14677 0.89431 0.99424 0.0
H6856 H 0.13704 0.89461 0.01639 0.0
H6857 H 0.13898 0.89786 1.00404 0.0
H6858 H 0.15924 0.90682 0.0096 0.0
H6859 H 0.15726 0.90364 0.02194 0.0
C6860 C 0.1553 0.9123 0.9893 0.0
C6861 C 0.15393 0.90727 0.98399 0.0
C6862 C 0.15368 0.91084 0.99636 0.0
C6863 C 0.15061 0.90433 0.99828 0.0
C6864 C 0.14908 0.89939 0.99294 0.0
C6865 C 0.15073 0.90083 0.98589 0.0
C6866 C 0.14189 0.8973 0.01497 0.0
C6867 C 0.14701 0.89888 0.02012 0.0
C6868 C 0.14301 0.89914 0.00789 0.0
C6869 C 0.14926 0.90261 1.00583 0.0
C6870 C 0.15433 0.90424 0.01102 0.0
C6871 C 0.15322 0.90238 0.01808 0.0
H6872 H 0.34718 0.9079 0.23811 0.0
H6873 H 0.36701 0.89849 0.23177 0.0
H6874 H 0.34969 0.90487 0.2504 0.0
H6875 H 0.36961 0.89564 0.24408 0.0
H6876 H 0.36928 0.88616 0.26628 0.0
H6877 H 0.36584 0.88813 0.25398 0.0
H6878 H 0.358 0.90888 0.25951 0.0
H6879 H 0.36137 0.90686 0.2718 0.0
C6880 C 0.35205 0.90513 0.23933 0.0
C6881 C 0.35691 0.90346 0.23396 0.0
C6882 C 0.35352 0.90346 0.24638 0.0
C6883 C 0.35987 0.90005 0.24822 0.0
C6884 C 0.36464 0.89822 0.24283 0.0
C6885 C 0.36319 0.89992 0.23579 0.0
C6886 C 0.36678 0.89112 0.26487 0.0
C6887 C 0.36559 0.89637 0.26999 0.0
C6888 C 0.36484 0.89226 0.25782 0.0
C6889 C 0.36165 0.89867 0.25576 0.0
C6890 C 0.36037 0.90386 0.26093 0.0
C6891 C 0.36233 0.90273 0.26796 0.0
H6892 H 0.16785 0.1015 0.74014 0.0
H6893 H 0.15223 0.11596 0.73185 0.0
H6894 H 0.16445 0.10472 0.75215 0.0
H6895 H 0.14875 0.11911 0.74385 0.0
H6896 H 0.1478 0.12732 0.7665 0.0
H6897 H 0.15223 0.12494 0.75461 0.0
H6898 H 0.15472 0.10285 0.75998 0.0
H6899 H 0.15048 0.10529 0.77189 0.0
C6900 C 0.16368 0.10536 0.74089 0.0
C6901 C 0.16029 0.10845 0.73505 0.0
C6902 C 0.16172 0.1072 0.74778 0.0
C6903 C 0.15628 0.11213 0.74899 0.0
C6904 C 0.15301 0.11536 0.74313 0.0
C6905 C 0.155 0.11355 0.73624 0.0
C6906 C 0.14933 0.12197 0.76514 0.0
C6907 C 0.1488 0.11648 0.77012 0.0
C6908 C 0.15183 0.12059 0.75831 0.0
C6909 C 0.15384 0.1137 0.75632 0.0
C6910 C 0.15334 0.10824 0.76134 0.0
C6911 C 0.15087 0.10962 0.76816 0.0
H6912 H 0.08948 0.12984 0.44438 0.0
H6913 H 0.09002 0.14916 0.45655 0.0
H6914 H 0.0998 0.12549 0.45081 0.0
H6915 H 0.10045 0.14488 0.46286 0.0
H6916 H 0.11695 0.13341 0.47603 0.0
H6917 H 0.10516 0.13582 0.47119 0.0
H6918 H 0.11233 0.1291 0.45058 0.0
H6919 H 0.12401 0.12663 0.45543 0.0
C6920 C 0.09173 0.1331 0.44851 0.0
C6921 C 0.08896 0.13987 0.44992 0.0
C6922 C 0.09768 0.13064 0.45215 0.0
C6923 C 0.10097 0.13486 0.45731 0.0
C6924 C 0.098 0.14148 0.45895 0.0
C6925 C 0.09208 0.14396 0.45529 0.0
C6926 C 0.11594 0.13233 0.4705 0.0
C6927 C 0.12139 0.12988 0.46609 0.0
C6928 C 0.10923 0.13376 0.46772 0.0
C6929 C 0.10782 0.13267 0.46049 0.0
C6930 C 0.1132 0.12993 0.45617 0.0
C6931 C 0.11991 0.12857 0.45893 0.0
H6932 H 0.12432 0.85005 0.68846 0.0
H6933 H 0.12792 0.83681 0.70671 0.0
H6934 H 0.12898 0.86018 0.69483 0.0
H6935 H 0.13283 0.84699 0.71308 0.0
H6936 H 0.13173 0.86965 0.7238 0.0
H6937 H 0.12873 0.85836 0.71819 0.0
H6938 H 0.14001 0.86475 0.6994 0.0
H6939 H 0.14288 0.87603 0.70495 0.0
C6940 C 0.12612 0.8493 0.69384 0.0
C6941 C 0.1257 0.84263 0.69709 0.0
C6942 C 0.12888 0.8551 0.69747 0.0
C6943 C 0.13133 0.85439 0.70446 0.0
C6944 C 0.13096 0.84771 0.70772 0.0
C6945 C 0.12821 0.84188 0.70405 0.0
C6946 C 0.13369 0.86855 0.71853 0.0
C6947 C 0.13745 0.87374 0.71477 0.0
C6948 C 0.13198 0.86209 0.71532 0.0
C6949 C 0.13402 0.86071 0.7083 0.0
C6950 C 0.13821 0.86572 0.70475 0.0
C6951 C 0.13988 0.87216 0.70793 0.0
H6952 H 0.41567 0.87098 0.93892 0.0
H6953 H 0.4292 0.87858 0.95568 0.0
H6954 H 0.40538 0.8754 0.94516 0.0
H6955 H 0.41882 0.88326 0.96188 0.0
H6956 H 0.3969 0.88146 0.97395 0.0
H6957 H 0.40822 0.87885 0.96819 0.0
H6958 H 0.39976 0.8864 0.94836 0.0
H6959 H 0.38848 0.88883 0.95408 0.0
C6960 C 0.41645 0.8736 0.94395 0.0
C6961 C 0.42326 0.87437 0.94683 0.0
C6962 C 0.41055 0.87624 0.94749 0.0
C6963 C 0.41127 0.87974 0.95401 0.0
C6964 C 0.41808 0.88056 0.95689 0.0
C6965 C 0.42403 0.87793 0.95331 0.0
C6966 C 0.39754 0.88269 0.9684 0.0
C6967 C 0.39181 0.88525 0.96443 0.0
C6968 C 0.40402 0.8812 0.9651 0.0
C6969 C 0.40485 0.88229 0.95778 0.0
C6970 C 0.39924 0.88532 0.95395 0.0
C6971 C 0.39279 0.88675 0.95723 0.0
H6972 H 0.38596 0.17821 0.20471 0.0
H6973 H 0.39102 0.16461 0.18707 0.0
H6974 H 0.3812 0.16802 0.21114 0.0
H6975 H 0.38652 0.15447 0.19354 0.0
H6976 H 0.37263 0.13841 0.20359 0.0
H6977 H 0.37554 0.14949 0.19771 0.0
H6978 H 0.38543 0.15708 0.21685 0.0
H6979 H 0.38239 0.14597 0.22278 0.0
C6980 C 0.38603 0.17306 0.2022 0.0
C6981 C 0.3889 0.17222 0.19539 0.0
C6982 C 0.38336 0.16722 0.20591 0.0
C6983 C 0.38345 0.16043 0.20285 0.0
C6984 C 0.38626 0.15963 0.19602 0.0
C6985 C 0.38893 0.16544 0.19234 0.0
C6986 C 0.37536 0.14248 0.20656 0.0
C6987 C 0.37736 0.1413 0.21362 0.0
C6988 C 0.37706 0.14882 0.20319 0.0
C6989 C 0.38083 0.15413 0.20677 0.0
C6990 C 0.38249 0.15311 0.21395 0.0
C6991 C 0.38076 0.14675 0.21735 0.0
H6992 H 0.08624 0.87973 0.05783 0.0
H6993 H 0.0994 0.87386 0.07555 0.0
H6994 H 0.09667 0.8843 0.05165 0.0
H6995 H 0.10976 0.87817 0.06934 0.0
H6996 H 0.12656 0.89139 0.0597 0.0
H6997 H 0.11527 0.88896 0.0654 0.0
H6998 H 0.10748 0.8797 0.04602 0.0
H6999 H 0.1188 0.88226 0.04029 0.0
C7000 C 0.09134 0.87946 0.06042 0.0
C7001 C 0.092 0.87639 0.06716 0.0
C7002 C 0.09732 0.88201 0.05686 0.0
C7003 C 0.10405 0.88162 0.06 0.0
C7004 C 0.10465 0.87866 0.06679 0.0
C7005 C 0.09871 0.8761 0.07032 0.0
C7006 C 0.12241 0.88891 0.05664 0.0
C7007 C 0.12359 0.88693 0.04958 0.0
C7008 C 0.11595 0.88749 0.05991 0.0
C7009 C 0.11051 0.88402 0.0562 0.0
C7010 C 0.11154 0.8824 0.04901 0.0
C7011 C 0.11802 0.88386 0.04573 0.0
H7012 H 0.39227 0.84958 0.32557 0.0
H7013 H 0.38528 0.83595 0.30862 0.0
H7014 H 0.38811 0.85984 0.31909 0.0
H7015 H 0.38084 0.84629 0.3022 0.0
H7016 H 0.38279 0.86786 0.28985 0.0
H7017 H 0.38535 0.8567 0.29592 0.0
H7018 H 0.37741 0.86558 0.31542 0.0
H7019 H 0.37502 0.87671 0.30939 0.0
C7020 C 0.38983 0.84877 0.32045 0.0
C7021 C 0.38916 0.84194 0.3176 0.0
C7022 C 0.38735 0.85466 0.31677 0.0
C7023 C 0.38409 0.8539 0.31013 0.0
C7024 C 0.38336 0.84706 0.30728 0.0
C7025 C 0.38584 0.84114 0.31099 0.0
C7026 C 0.38148 0.86735 0.2954 0.0
C7027 C 0.3788 0.87317 0.29918 0.0
C7028 C 0.38293 0.86097 0.29888 0.0
C7029 C 0.3817 0.86028 0.30619 0.0
C7030 C 0.3786 0.86598 0.30983 0.0
C7031 C 0.37719 0.87235 0.30638 0.0
H7032 H 0.41551 0.14103 0.57564 0.0
H7033 H 0.42889 0.13637 0.55774 0.0
H7034 H 0.40539 0.13621 0.56938 0.0
H7035 H 0.4187 0.13134 0.55148 0.0
H7036 H 0.39603 0.13241 0.54059 0.0
H7037 H 0.40734 0.1355 0.54612 0.0
H7038 H 0.40084 0.12488 0.56526 0.0
H7039 H 0.38958 0.12188 0.55977 0.0
C7040 C 0.41629 0.13897 0.57036 0.0
C7041 C 0.42299 0.13913 0.56717 0.0
C7042 C 0.4105 0.13611 0.5668 0.0
C7043 C 0.41124 0.13334 0.55994 0.0
C7044 C 0.41795 0.13346 0.55674 0.0
C7045 C 0.42379 0.13629 0.56034 0.0
C7046 C 0.39711 0.1306 0.54592 0.0
C7047 C 0.3919 0.12699 0.5498 0.0
C7048 C 0.40358 0.13237 0.54909 0.0
C7049 C 0.40493 0.13055 0.55617 0.0
C7050 C 0.3999 0.12651 0.55985 0.0
C7051 C 0.39346 0.12477 0.55671 0.0
H7052 H 0.11652 0.17333 0.80703 0.0
H7053 H 0.13536 0.17305 0.81992 0.0
H7054 H 0.1207 0.1629 0.80068 0.0
H7055 H 0.13963 0.1627 0.81347 0.0
H7056 H 0.13797 0.13862 0.80814 0.0
H7057 H 0.13572 0.15026 0.81321 0.0
H7058 H 0.1299 0.15815 0.79258 0.0
H7059 H 0.13208 0.14641 0.78752 0.0
C7060 C 0.12159 0.17109 0.80845 0.0
C7061 C 0.12558 0.17398 0.81402 0.0
C7062 C 0.12403 0.16516 0.80476 0.0
C7063 C 0.13048 0.16195 0.80659 0.0
C7064 C 0.1346 0.16501 0.81198 0.0
C7065 C 0.13218 0.17097 0.81564 0.0
C7066 C 0.13629 0.14287 0.80468 0.0
C7067 C 0.13514 0.14161 0.79745 0.0
C7068 C 0.13505 0.14955 0.80757 0.0
C7069 C 0.1326 0.15513 0.8033 0.0
C7070 C 0.13172 0.15394 0.79601 0.0
C7071 C 0.13302 0.14725 0.7931 0.0
H7072 H 0.45182 0.08704 0.13191 0.0
H7073 H 0.44466 0.09824 0.15048 0.0
H7074 H 0.45968 0.09689 0.12906 0.0
H7075 H 0.45209 0.10818 0.14742 0.0
H7076 H 0.4694 0.12346 0.14398 0.0
H7077 H 0.46376 0.11225 0.14691 0.0
H7078 H 0.45932 0.10874 0.12475 0.0
H7079 H 0.46531 0.11985 0.12186 0.0
C7080 C 0.45194 0.09158 0.1354 0.0
C7081 C 0.44755 0.09185 0.1414 0.0
C7082 C 0.45638 0.09726 0.13372 0.0
C7083 C 0.45654 0.10336 0.138 0.0
C7084 C 0.45223 0.10356 0.14405 0.0
C7085 C 0.44785 0.09788 0.14575 0.0
C7086 C 0.46732 0.12021 0.13975 0.0
C7087 C 0.46774 0.1225 0.13271 0.0
C7088 C 0.46403 0.11382 0.14141 0.0
C7089 C 0.46094 0.10963 0.13609 0.0
C7090 C 0.46167 0.11179 0.129 0.0
C7091 C 0.46508 0.11815 0.12732 0.0
H7092 H 0.17128 0.2046 0.39825 0.0
H7093 H 0.17422 0.1944 0.37803 0.0
H7094 H 0.16103 0.2109 0.3936 0.0
H7095 H 0.16406 0.20086 0.37332 0.0
H7096 H 0.1397 0.20474 0.37238 0.0
H7097 H 0.1513 0.20001 0.3754 0.0
H7098 H 0.15688 0.21992 0.38513 0.0
H7099 H 0.14516 0.22462 0.3822 0.0
C7100 C 0.16978 0.20376 0.39279 0.0
C7101 C 0.17352 0.19895 0.38853 0.0
C7102 C 0.16395 0.20743 0.3901 0.0
C7103 C 0.16171 0.20636 0.38309 0.0
C7104 C 0.16562 0.20175 0.37875 0.0
C7105 C 0.17147 0.1981 0.38144 0.0
C7106 C 0.14344 0.20813 0.3751 0.0
C7107 C 0.14151 0.21502 0.37711 0.0
C7108 C 0.1501 0.20544 0.37678 0.0
C7109 C 0.155 0.20957 0.38054 0.0
C7110 C 0.15319 0.21658 0.38229 0.0
C7111 C 0.14652 0.21929 0.38056 0.0
H7112 H 0.07022 0.92447 0.62917 0.0
H7113 H 0.05896 0.92303 0.64897 0.0
H7114 H 0.06385 0.91412 0.6248 0.0
H7115 H 0.05274 0.91257 0.64467 0.0
H7116 H 0.03921 0.89637 0.63325 0.0
H7117 H 0.04408 0.90806 0.63597 0.0
H7118 H 0.06434 0.90149 0.62772 0.0
H7119 H 0.05944 0.88991 0.62488 0.0
C7120 C 0.06631 0.92201 0.63255 0.0
C7121 C 0.06512 0.92455 0.63943 0.0
C7122 C 0.06271 0.91604 0.63007 0.0
C7123 C 0.05782 0.91249 0.6344 0.0
C7124 C 0.05642 0.91521 0.64117 0.0
C7125 C 0.06004 0.92116 0.64367 0.0
C7126 C 0.04466 0.89749 0.6319 0.0
C7127 C 0.04896 0.89222 0.6289 0.0
C7128 C 0.04747 0.90415 0.63352 0.0
C7129 C 0.0546 0.90569 0.63209 0.0
C7130 C 0.05881 0.9005 0.62882 0.0
C7131 C 0.05602 0.89384 0.62726 0.0
H7132 H 0.34211 0.80958 0.89778 0.0
H7133 H 0.3396 0.82025 0.87775 0.0
H7134 H 0.35239 0.80331 0.89317 0.0
H7135 H 0.34976 0.81381 0.87307 0.0
H7136 H 0.37403 0.80971 0.87226 0.0
H7137 H 0.36245 0.81448 0.87527 0.0
H7138 H 0.35668 0.79446 0.88466 0.0
H7139 H 0.36839 0.78974 0.88176 0.0
C7140 C 0.34371 0.81053 0.89236 0.0
C7141 C 0.34007 0.81547 0.88816 0.0
C7142 C 0.34955 0.80687 0.8897 0.0
C7143 C 0.35192 0.80808 0.88276 0.0
C7144 C 0.34811 0.81281 0.87846 0.0
C7145 C 0.34225 0.81646 0.88112 0.0
C7146 C 0.37026 0.80631 0.87491 0.0
C7147 C 0.37214 0.79938 0.87683 0.0
C7148 C 0.3636 0.80902 0.87658 0.0
C7149 C 0.35865 0.80486 0.88024 0.0
C7150 C 0.36041 0.79782 0.88191 0.0
C7151 C 0.36708 0.79509 0.88019 0.0
H7152 H 0.45551 0.92782 0.37821 0.0
H7153 H 0.44135 0.91453 0.36616 0.0
H7154 H 0.46238 0.91735 0.38159 0.0
H7155 H 0.44825 0.90419 0.36942 0.0
H7156 H 0.46593 0.8884 0.36973 0.0
H7157 H 0.46024 0.89956 0.36674 0.0
H7158 H 0.46114 0.90595 0.38864 0.0
H7159 H 0.46685 0.8947 0.39166 0.0
C7160 C 0.45384 0.92268 0.37632 0.0
C7161 C 0.44793 0.92204 0.37184 0.0
C7162 C 0.45778 0.9167 0.37824 0.0
C7163 C 0.45591 0.90997 0.37569 0.0
C7164 C 0.44993 0.90932 0.37134 0.0
C7165 C 0.44598 0.91526 0.36946 0.0
C7166 C 0.46495 0.89219 0.37391 0.0
C7167 C 0.46673 0.89062 0.38095 0.0
C7168 C 0.46168 0.89858 0.3722 0.0
C7169 C 0.46013 0.90358 0.37747 0.0
C7170 C 0.46228 0.9022 0.38446 0.0
C7171 C 0.46555 0.89577 0.38618 0.0
H7172 H 0.33952 0.20598 0.61526 0.0
H7173 H 0.33963 0.19294 0.63399 0.0
H7174 H 0.34998 0.21221 0.61953 0.0
H7175 H 0.35 0.19928 0.63834 0.0
H7176 H 0.37407 0.20448 0.637 0.0
H7177 H 0.36246 0.19947 0.63451 0.0
H7178 H 0.35472 0.22021 0.62881 0.0
H7179 H 0.36643 0.22521 0.63121 0.0
C7180 C 0.34173 0.2045 0.62033 0.0
C7181 C 0.33878 0.19893 0.62426 0.0
C7182 C 0.34768 0.20812 0.62281 0.0
C7183 C 0.35084 0.20622 0.62926 0.0
C7184 C 0.34772 0.20082 0.63332 0.0
C7185 C 0.34175 0.19723 0.63086 0.0
C7186 C 0.36987 0.20797 0.63527 0.0
C7187 C 0.37116 0.21522 0.63424 0.0
C7188 C 0.3632 0.20512 0.6339 0.0
C7189 C 0.35767 0.20944 0.63144 0.0
C7190 C 0.3589 0.21674 0.63064 0.0
C7191 C 0.36557 0.21961 0.63207 0.0
H7192 H 0.07632 0.0995 0.87184 0.0
H7193 H 0.05895 0.08615 0.87828 0.0
H7194 H 0.0701 0.10982 0.87632 0.0
H7195 H 0.05276 0.09654 0.88298 0.0
H7196 H 0.04122 0.11873 0.88117 0.0
H7197 H 0.04692 0.10742 0.87843 0.0
H7198 H 0.06645 0.11514 0.88741 0.0
H7199 H 0.06079 0.12641 0.89005 0.0
C7200 C 0.07116 0.09877 0.87423 0.0
C7201 C 0.0681 0.09201 0.87465 0.0
C7202 C 0.06763 0.10468 0.87688 0.0
C7203 C 0.06095 0.104 0.88005 0.0
C7204 C 0.05789 0.09724 0.88054 0.0
C7205 C 0.06145 0.09129 0.8779 0.0
C7206 C 0.04669 0.11793 0.88268 0.0
C7207 C 0.05059 0.12348 0.88573 0.0
C7208 C 0.04995 0.11146 0.88112 0.0
C7209 C 0.05717 0.11042 0.88259 0.0
C7210 C 0.06093 0.11583 0.88605 0.0
C7211 C 0.05768 0.12228 0.88758 0.0
H7212 H 0.17374 0.82119 0.13456 0.0
H7213 H 0.17343 0.80857 0.11553 0.0
H7214 H 0.16348 0.81472 0.139 0.0
H7215 H 0.16309 0.80221 0.1199 0.0
H7216 H 0.14683 0.78898 0.13133 0.0
H7217 H 0.15856 0.79399 0.12908 0.0
H7218 H 0.15094 0.81459 0.13542 0.0
H7219 H 0.13931 0.80957 0.13774 0.0
C7220 C 0.17155 0.81696 0.13138 0.0
C7221 C 0.17436 0.81542 0.12467 0.0
C7222 C 0.16564 0.81329 0.1339 0.0
C7223 C 0.16245 0.80798 0.12979 0.0
C7224 C 0.16546 0.80623 0.12322 0.0
C7225 C 0.17133 0.80993 0.12069 0.0
C7226 C 0.14773 0.79454 0.13238 0.0
C7227 C 0.14216 0.7989 0.13466 0.0
C7228 C 0.15442 0.79742 0.13104 0.0
C7229 C 0.15567 0.80469 0.13203 0.0
C7230 C 0.15018 0.80896 0.13466 0.0
C7231 C 0.1435 0.8061 0.13594 0.0
H7232 H 0.12931 0.44345 0.08939 0.0
H7233 H 0.14781 0.45683 0.08912 0.0
H7234 H 0.12495 0.4497 0.09981 0.0
H7235 H 0.14355 0.46296 0.09964 0.0
H7236 H 0.13202 0.47565 0.11635 0.0
H7237 H 0.13429 0.47077 0.10457 0.0
H7238 H 0.12884 0.44993 0.11219 0.0
H7239 H 0.12646 0.45482 0.12386 0.0
C7240 C 0.13239 0.4478 0.09148 0.0
C7241 C 0.13893 0.44961 0.08846 0.0
C7242 C 0.12993 0.45134 0.09749 0.0
C7243 C 0.13393 0.45679 0.10059 0.0
C7244 C 0.14031 0.45882 0.09736 0.0
C7245 C 0.14279 0.45526 0.09138 0.0
C7246 C 0.13118 0.47006 0.11545 0.0
C7247 C 0.12911 0.46561 0.12103 0.0
C7248 C 0.13253 0.46725 0.10874 0.0
C7249 C 0.13178 0.45996 0.10746 0.0
C7250 C 0.12941 0.45558 0.11297 0.0
C7251 C 0.12811 0.45837 0.11968 0.0
H7252 H 0.63007 0.06795 0.92294 0.0
H7253 H 0.65063 0.05802 0.92227 0.0
H7254 H 0.62642 0.06109 0.91264 0.0
H7255 H 0.64698 0.05114 0.912 0.0
H7256 H 0.64158 0.04961 0.88824 0.0
H7257 H 0.64477 0.05426 0.89979 0.0
H7258 H 0.62387 0.04933 0.90757 0.0
H7259 H 0.62062 0.04478 0.89587 0.0
C7260 C 0.63376 0.06419 0.92069 0.0
C7261 C 0.64067 0.0636 0.92337 0.0
C7262 C 0.63166 0.06025 0.91478 0.0
C7263 C 0.63643 0.05562 0.91145 0.0
C7264 C 0.64322 0.05476 0.91436 0.0
C7265 C 0.64531 0.05871 0.92024 0.0
C7266 C 0.63768 0.04947 0.89243 0.0
C7267 C 0.63083 0.0469 0.89114 0.0
C7268 C 0.63953 0.05208 0.89908 0.0
C7269 C 0.63457 0.05218 0.90461 0.0
C7270 C 0.62778 0.04938 0.9034 0.0
C7271 C 0.62594 0.04672 0.89673 0.0
H7272 H 0.20615 0.38566 0.17841 0.0
H7273 H 0.18903 0.39185 0.16462 0.0
H7274 H 0.21261 0.3809 0.16823 0.0
H7275 H 0.19551 0.38735 0.15451 0.0
H7276 H 0.20524 0.3743 0.13794 0.0
H7277 H 0.19938 0.37642 0.14922 0.0
H7278 H 0.2187 0.38536 0.15754 0.0
H7279 H 0.2246 0.38303 0.14624 0.0
C7280 C 0.20375 0.38597 0.17322 0.0
C7281 C 0.1971 0.38917 0.17232 0.0
C7282 C 0.20747 0.3833 0.16739 0.0
C7283 C 0.20457 0.38371 0.16056 0.0
C7284 C 0.19787 0.38683 0.1597 0.0
C7285 C 0.19418 0.38951 0.16549 0.0
C7286 C 0.20826 0.37657 0.14224 0.0
C7287 C 0.21534 0.37856 0.14122 0.0
C7288 C 0.20491 0.37784 0.14868 0.0
C7289 C 0.20853 0.38121 0.15423 0.0
C7290 C 0.21576 0.38274 0.15338 0.0
C7291 C 0.21915 0.38142 0.14692 0.0
H7292 H 0.87691 0.95718 0.42874 0.0
H7293 H 0.86635 0.94203 0.41529 0.0
H7294 H 0.88045 0.96395 0.41827 0.0
H7295 H 0.86983 0.94874 0.40494 0.0
H7296 H 0.8704 0.96535 0.38829 0.0
H7297 H 0.86694 0.96002 0.39947 0.0
H7298 H 0.88808 0.96316 0.40754 0.0
H7299 H 0.89152 0.96862 0.39629 0.0
C7300 C 0.87537 0.95528 0.42356 0.0
C7301 C 0.87126 0.94912 0.42286 0.0
C7302 C 0.8774 0.95916 0.41757 0.0
C7303 C 0.87533 0.95695 0.41078 0.0
C7304 C 0.87135 0.95071 0.4101 0.0
C7305 C 0.86935 0.94685 0.41605 0.0
C7306 C 0.87429 0.96495 0.39247 0.0
C7307 C 0.88125 0.9673 0.39139 0.0
C7308 C 0.87233 0.96188 0.39887 0.0
C7309 C 0.87727 0.96104 0.40435 0.0
C7310 C 0.88414 0.96374 0.40343 0.0
C7311 C 0.88611 0.96686 0.397 0.0
H7312 H 0.80848 0.1133 0.1718 0.0
H7313 H 0.81848 0.13383 0.17235 0.0
H7314 H 0.80171 0.11687 0.16143 0.0
H7315 H 0.81173 0.1374 0.16194 0.0
H7316 H 0.79518 0.1431 0.14528 0.0
H7317 H 0.79999 0.13996 0.1569 0.0
H7318 H 0.80479 0.11898 0.14919 0.0
H7319 H 0.79985 0.12205 0.13773 0.0
C7320 C 0.80921 0.11859 0.16972 0.0
C7321 C 0.81408 0.12325 0.17285 0.0
C7322 C 0.80533 0.12063 0.16378 0.0
C7323 C 0.80623 0.12739 0.1608 0.0
C7324 C 0.81086 0.13218 0.16413 0.0
C7325 C 0.81474 0.13013 0.1701 0.0
C7326 C 0.79717 0.13779 0.14613 0.0
C7327 C 0.79719 0.13284 0.14058 0.0
C7328 C 0.79997 0.13601 0.15275 0.0
C7329 C 0.80279 0.12923 0.15397 0.0
C7330 C 0.8026 0.12423 0.14847 0.0
C7331 C 0.79984 0.12601 0.14187 0.0
H7332 H 0.3765 0.55708 0.5849 0.0
H7333 H 0.37269 0.57533 0.5981 0.0
H7334 H 0.38151 0.55078 0.59508 0.0
H7335 H 0.37746 0.56904 0.60822 0.0
H7336 H 0.39142 0.55904 0.62411 0.0
H7337 H 0.38854 0.56456 0.61283 0.0
H7338 H 0.37739 0.54566 0.60643 0.0
H7339 H 0.3804 0.54009 0.61773 0.0
C7340 C 0.37677 0.55975 0.58995 0.0
C7341 C 0.37416 0.56668 0.59071 0.0
C7342 C 0.37958 0.55613 0.59579 0.0
C7343 C 0.37991 0.55941 0.60246 0.0
C7344 C 0.37739 0.56638 0.60315 0.0
C7345 C 0.37456 0.56996 0.59736 0.0
C7346 C 0.38844 0.55603 0.62025 0.0
C7347 C 0.38605 0.54917 0.62182 0.0
C7348 C 0.38676 0.5592 0.6138 0.0
C7349 C 0.38262 0.5556 0.60879 0.0
C7350 C 0.38061 0.54857 0.61017 0.0
C7351 C 0.38233 0.54537 0.61664 0.0
H7352 H 0.20564 0.62845 0.33553 0.0
H7353 H 0.1879 0.62305 0.34883 0.0
H7354 H 0.21187 0.63325 0.34582 0.0
H7355 H 0.19416 0.62759 0.35907 0.0
H7356 H 0.20375 0.64146 0.37537 0.0
H7357 H 0.1981 0.63862 0.36416 0.0
H7358 H 0.21748 0.629 0.35682 0.0
H7359 H 0.22318 0.63197 0.36807 0.0
C7360 C 0.20306 0.62831 0.34063 0.0
C7361 C 0.19629 0.62533 0.34137 0.0
C7362 C 0.20665 0.63101 0.34653 0.0
C7363 C 0.20351 0.63083 0.35327 0.0
C7364 C 0.19671 0.62791 0.35396 0.0
C7365 C 0.19314 0.62522 0.34809 0.0
C7366 C 0.20683 0.63881 0.37133 0.0
C7367 C 0.21388 0.63685 0.37261 0.0
C7368 C 0.20358 0.63716 0.36491 0.0
C7369 C 0.2073 0.63346 0.35964 0.0
C7370 C 0.21448 0.63187 0.36076 0.0
C7371 C 0.21775 0.63357 0.3672 0.0
H7372 H 0.30743 0.38674 0.83544 0.0
H7373 H 0.32485 0.39285 0.84888 0.0
H7374 H 0.30125 0.38184 0.84572 0.0
H7375 H 0.31865 0.38818 0.85909 0.0
H7376 H 0.30947 0.37393 0.8753 0.0
H7377 H 0.31506 0.37693 0.8641 0.0
H7378 H 0.29545 0.38605 0.85674 0.0
H7379 H 0.28982 0.38295 0.86798 0.0
C7380 C 0.30995 0.38701 0.84057 0.0
C7381 C 0.31662 0.39022 0.84135 0.0
C7382 C 0.30639 0.38426 0.84646 0.0
C7383 C 0.30947 0.38458 0.85322 0.0
C7384 C 0.31616 0.38773 0.85396 0.0
C7385 C 0.31969 0.3905 0.84811 0.0
C7386 C 0.30633 0.37651 0.87126 0.0
C7387 C 0.29924 0.37829 0.87254 0.0
C7388 C 0.30954 0.37824 0.86485 0.0
C7389 C 0.30574 0.38185 0.85957 0.0
C7390 C 0.29851 0.38326 0.86068 0.0
C7391 C 0.29529 0.38148 0.86711 0.0
H7392 H 0.91517 0.87074 0.57496 0.0
H7393 H 0.92857 0.87735 0.55771 0.0
H7394 H 0.90487 0.87522 0.56873 0.0
H7395 H 0.9182 0.88206 0.55151 0.0
H7396 H 0.89611 0.88069 0.53987 0.0
H7397 H 0.90733 0.87765 0.54558 0.0
H7398 H 0.89963 0.88641 0.56522 0.0
H7399 H 0.88845 0.88937 0.55953 0.0
C7400 C 0.91592 0.87315 0.56983 0.0
C7401 C 0.92269 0.87363 0.56681 0.0
C7402 C 0.91002 0.87581 0.56629 0.0
C7403 C 0.91072 0.87904 0.55964 0.0
C7404 C 0.91749 0.87957 0.55661 0.0
C7405 C 0.92343 0.87692 0.56018 0.0
C7406 C 0.89688 0.88208 0.54536 0.0
C7407 C 0.89137 0.88517 0.54928 0.0
C7408 C 0.9033 0.88035 0.54864 0.0
C7409 C 0.90432 0.88168 0.55589 0.0
C7410 C 0.89895 0.88515 0.55967 0.0
C7411 C 0.89256 0.88686 0.55642 0.0
H7412 H 0.88737 0.17874 0.30654 0.0
H7413 H 0.89274 0.16546 0.32433 0.0
H7414 H 0.88277 0.16838 0.30025 0.0
H7415 H 0.88837 0.15516 0.31802 0.0
H7416 H 0.87483 0.1387 0.30824 0.0
H7417 H 0.87737 0.14999 0.3139 0.0
H7418 H 0.88734 0.15737 0.29473 0.0
H7419 H 0.88469 0.14605 0.28903 0.0
C7420 C 0.88754 0.17363 0.30911 0.0
C7421 C 0.89046 0.17291 0.31592 0.0
C7422 C 0.88495 0.16769 0.30549 0.0
C7423 C 0.88517 0.16095 0.30864 0.0
C7424 C 0.88802 0.16029 0.31547 0.0
C7425 C 0.89061 0.16618 0.31906 0.0
C7426 C 0.87748 0.14277 0.30521 0.0
C7427 C 0.87964 0.14147 0.29822 0.0
C7428 C 0.87897 0.14923 0.30846 0.0
C7429 C 0.88268 0.15454 0.30481 0.0
C7430 C 0.88445 0.1534 0.29768 0.0
C7431 C 0.88294 0.14692 0.29441 0.0
H7432 H 0.59105 0.15011 0.05688 0.0
H7433 H 0.58904 0.13001 0.06756 0.0
H7434 H 0.60153 0.14578 0.05074 0.0
H7435 H 0.59939 0.12561 0.06125 0.0
H7436 H 0.62374 0.12554 0.0575 0.0
H7437 H 0.61201 0.12822 0.06209 0.0
H7438 H 0.60618 0.13736 0.04199 0.0
H7439 H 0.61803 0.13481 0.03744 0.0
C7440 C 0.5928 0.14474 0.05785 0.0
C7441 C 0.58925 0.14043 0.06276 0.0
C7442 C 0.59876 0.14223 0.05427 0.0
C7443 C 0.60132 0.13536 0.05553 0.0
C7444 C 0.5976 0.13095 0.06022 0.0
C7445 C 0.59162 0.13346 0.06379 0.0
C7446 C 0.61993 0.12806 0.05404 0.0
C7447 C 0.62182 0.13003 0.04713 0.0
C7448 C 0.61318 0.12954 0.05665 0.0
C7449 C 0.60816 0.13304 0.05242 0.0
C7450 C 0.60995 0.13473 0.0454 0.0
C7451 C 0.61671 0.13321 0.04277 0.0
H7452 H 0.61365 0.84084 0.80777 0.0
H7453 H 0.63379 0.83852 0.8183 0.0
H7454 H 0.61809 0.85122 0.80154 0.0
H7455 H 0.63829 0.84879 0.81191 0.0
H7456 H 0.63864 0.87316 0.80808 0.0
H7457 H 0.63585 0.86147 0.81273 0.0
H7458 H 0.62652 0.8557 0.7927 0.0
H7459 H 0.6292 0.8675 0.78808 0.0
C7460 C 0.61905 0.8425 0.80869 0.0
C7461 C 0.62334 0.83889 0.81358 0.0
C7462 C 0.62162 0.8484 0.80506 0.0
C7463 C 0.62854 0.85086 0.80625 0.0
C7464 C 0.63292 0.84708 0.81092 0.0
C7465 C 0.63036 0.84115 0.81454 0.0
C7466 C 0.63606 0.86936 0.80464 0.0
C7467 C 0.63408 0.87126 0.79774 0.0
C7468 C 0.63451 0.86264 0.80729 0.0
C7469 C 0.63093 0.85766 0.8031 0.0
C7470 C 0.62922 0.85945 0.79608 0.0
C7471 C 0.63081 0.86618 0.79342 0.0
H7472 H 0.92875 0.13699 0.95518 0.0
H7473 H 0.9152 0.1458 0.93904 0.0
H7474 H 0.91833 0.13255 0.96145 0.0
H7475 H 0.90486 0.14161 0.94537 0.0
H7476 H 0.88782 0.128 0.95412 0.0
H7477 H 0.89894 0.13066 0.94821 0.0
H7478 H 0.90804 0.13703 0.96817 0.0
H7479 H 0.89688 0.13424 0.97411 0.0
C7480 C 0.92356 0.13797 0.95296 0.0
C7481 C 0.9228 0.14178 0.94662 0.0
C7482 C 0.91759 0.13547 0.95659 0.0
C7483 C 0.91076 0.13669 0.9539 0.0
C7484 C 0.91004 0.14048 0.94754 0.0
C7485 C 0.91597 0.14297 0.94395 0.0
C7486 C 0.89222 0.12991 0.95725 0.0
C7487 C 0.89146 0.131 0.96456 0.0
C7488 C 0.89858 0.13146 0.95387 0.0
C7489 C 0.90434 0.13419 0.9577 0.0
C7490 C 0.90372 0.13492 0.96507 0.0
C7491 C 0.89733 0.13332 0.96848 0.0
H7492 H 0.61372 0.17293 0.70504 0.0
H7493 H 0.63388 0.17542 0.69462 0.0
H7494 H 0.61822 0.16257 0.71126 0.0
H7495 H 0.63845 0.16517 0.701 0.0
H7496 H 0.63918 0.14086 0.705 0.0
H7497 H 0.63618 0.15245 0.70023 0.0
H7498 H 0.62665 0.15822 0.72016 0.0
H7499 H 0.62953 0.14651 0.72489 0.0
C7500 C 0.61914 0.17131 0.70413 0.0
C7501 C 0.62342 0.17496 0.69928 0.0
C7502 C 0.62174 0.16541 0.70776 0.0
C7503 C 0.62868 0.16302 0.7066 0.0
C7504 C 0.63305 0.16683 0.70196 0.0
C7505 C 0.63045 0.17275 0.69835 0.0
C7506 C 0.63649 0.14463 0.70838 0.0
C7507 C 0.63453 0.14276 0.7153 0.0
C7508 C 0.63483 0.1513 0.70567 0.0
C7509 C 0.63114 0.15626 0.70981 0.0
C7510 C 0.62943 0.15449 0.71682 0.0
C7511 C 0.63113 0.14781 0.71955 0.0
H7512 H 0.58505 0.87694 0.45606 0.0
H7513 H 0.59829 0.87089 0.43847 0.0
H7514 H 0.59541 0.88176 0.46217 0.0
H7515 H 0.60859 0.87545 0.44462 0.0
H7516 H 0.62506 0.8894 0.45384 0.0
H7517 H 0.61382 0.88651 0.44826 0.0
H7518 H 0.60638 0.87753 0.46789 0.0
H7519 H 0.61765 0.88055 0.47351 0.0
C7520 C 0.59016 0.87666 0.45349 0.0
C7521 C 0.59085 0.87349 0.4468 0.0
C7522 C 0.5961 0.87937 0.45701 0.0
C7523 C 0.60283 0.87902 0.45387 0.0
C7524 C 0.60348 0.87591 0.44715 0.0
C7525 C 0.59758 0.8732 0.44366 0.0
C7526 C 0.62099 0.88688 0.45698 0.0
C7527 C 0.62226 0.88512 0.46408 0.0
C7528 C 0.61456 0.8852 0.45378 0.0
C7529 C 0.60924 0.88167 0.45759 0.0
C7530 C 0.61035 0.88027 0.46481 0.0
C7531 C 0.6168 0.88199 0.46803 0.0
H7532 H 0.8988 0.8409 0.20534 0.0
H7533 H 0.87915 0.83989 0.19373 0.0
H7534 H 0.89461 0.85144 0.21149 0.0
H7535 H 0.87489 0.85032 0.20002 0.0
H7536 H 0.87543 0.87452 0.20435 0.0
H7537 H 0.87813 0.86287 0.19954 0.0
H7538 H 0.88585 0.85619 0.21998 0.0
H7539 H 0.88325 0.86796 0.22476 0.0
C7540 C 0.89355 0.84288 0.20416 0.0
C7541 C 0.88933 0.83959 0.199 0.0
C7542 C 0.89112 0.84888 0.20774 0.0
C7543 C 0.88443 0.85174 0.20622 0.0
C7544 C 0.8801 0.84829 0.20126 0.0
C7545 C 0.88252 0.84227 0.1977 0.0
C7546 C 0.87766 0.87055 0.20783 0.0
C7547 C 0.87918 0.87216 0.21492 0.0
C7548 C 0.87915 0.86385 0.20509 0.0
C7549 C 0.88222 0.85861 0.20937 0.0
C7550 C 0.88354 0.86014 0.21653 0.0
C7551 C 0.882 0.86685 0.21929 0.0
H7552 H 0.55619 0.92928 0.8767 0.0
H7553 H 0.5744 0.91628 0.87208 0.0
H7554 H 0.55014 0.91894 0.88169 0.0
H7555 H 0.56835 0.90601 0.87684 0.0
H7556 H 0.559 0.88983 0.89089 0.0
H7557 H 0.56428 0.90123 0.88802 0.0
H7558 H 0.54501 0.90754 0.87749 0.0
H7559 H 0.53968 0.89611 0.88048 0.0
C7560 C 0.5589 0.92423 0.87679 0.0
C7561 C 0.56575 0.92358 0.87396 0.0
C7562 C 0.55542 0.91831 0.87959 0.0
C7563 C 0.55877 0.91166 0.87969 0.0
C7564 C 0.56565 0.91107 0.87694 0.0
C7565 C 0.56909 0.91694 0.87413 0.0
C7566 C 0.55586 0.89369 0.88804 0.0
C7567 C 0.54897 0.89206 0.88582 0.0
C7568 C 0.55889 0.90021 0.88638 0.0
C7569 C 0.55511 0.90524 0.88241 0.0
C7570 C 0.54805 0.90379 0.88057 0.0
C7571 C 0.545 0.89725 0.88228 0.0
H7572 H 0.83499 0.80811 0.62668 0.0
H7573 H 0.84839 0.82554 0.6205 0.0
H7574 H 0.84535 0.80182 0.63129 0.0
H7575 H 0.85868 0.81922 0.62487 0.0
H7576 H 0.87517 0.80966 0.63865 0.0
H7577 H 0.864 0.81544 0.63586 0.0
H7578 H 0.85618 0.79596 0.62682 0.0
H7579 H 0.86739 0.79014 0.62971 0.0
C7580 C 0.84013 0.81061 0.62633 0.0
C7581 C 0.84087 0.81731 0.62319 0.0
C7582 C 0.84606 0.80698 0.62892 0.0
C7583 C 0.85284 0.81002 0.62847 0.0
C7584 C 0.85353 0.81675 0.62539 0.0
C7585 C 0.84764 0.82035 0.6228 0.0
C7586 C 0.87104 0.8066 0.63612 0.0
C7587 C 0.87218 0.79948 0.63431 0.0
C7588 C 0.86465 0.80991 0.63451 0.0
C7589 C 0.85924 0.8062 0.63101 0.0
C7590 C 0.86023 0.79896 0.62954 0.0
C7591 C 0.86664 0.79563 0.63119 0.0
H7592 H 0.95724 0.08646 0.37766 0.0
H7593 H 0.93993 0.09965 0.37068 0.0
H7594 H 0.96332 0.09696 0.38225 0.0
H7595 H 0.94604 0.11006 0.37504 0.0
H7596 H 0.95492 0.12677 0.38902 0.0
H7597 H 0.94939 0.11547 0.38621 0.0
H7598 H 0.96919 0.10786 0.37772 0.0
H7599 H 0.97475 0.1192 0.38061 0.0
C7600 C 0.95473 0.09159 0.37713 0.0
C7601 C 0.94812 0.09223 0.37377 0.0
C7602 C 0.95823 0.0976 0.3797 0.0
C7603 C 0.95515 0.10434 0.37904 0.0
C7604 C 0.94852 0.10494 0.37574 0.0
C7605 C 0.94506 0.09897 0.37314 0.0
C7606 C 0.95811 0.12266 0.3866 0.0
C7607 C 0.96524 0.12389 0.38494 0.0
C7608 C 0.95494 0.11619 0.38498 0.0
C7609 C 0.95882 0.11081 0.38162 0.0
C7610 C 0.96606 0.11189 0.38032 0.0
C7611 C 0.96925 0.11838 0.38198 0.0
H7612 H 0.67288 0.20692 0.11439 0.0
H7613 H 0.67385 0.195 0.13384 0.0
H7614 H 0.66229 0.21296 0.1186 0.0
H7615 H 0.66336 0.20118 0.13813 0.0
H7616 H 0.63911 0.20537 0.13737 0.0
H7617 H 0.65084 0.2007 0.13482 0.0
H7618 H 0.65742 0.22128 0.12741 0.0
H7619 H 0.64558 0.22593 0.12984 0.0
C7620 C 0.67088 0.20565 0.1196 0.0
C7621 C 0.67418 0.20043 0.12375 0.0
C7622 C 0.66485 0.20917 0.12205 0.0
C7623 C 0.66196 0.20753 0.12869 0.0
C7624 C 0.66542 0.20251 0.13296 0.0
C7625 C 0.67147 0.19902 0.13053 0.0
C7626 C 0.64308 0.20891 0.13525 0.0
C7627 C 0.64141 0.216 0.13375 0.0
C7628 C 0.64982 0.20625 0.13385 0.0
C7629 C 0.65506 0.21061 0.13089 0.0
C7630 C 0.65347 0.21778 0.12963 0.0
C7631 C 0.64672 0.22045 0.13108 0.0
H7632 H 0.55636 0.08465 0.6376 0.0
H7633 H 0.5725 0.09799 0.64672 0.0
H7634 H 0.54984 0.09522 0.6338 0.0
H7635 H 0.56604 0.10843 0.64298 0.0
H7636 H 0.54983 0.12552 0.64286 0.0
H7637 H 0.55501 0.11427 0.64637 0.0
H7638 H 0.55065 0.10573 0.62564 0.0
H7639 H 0.54535 0.11707 0.62214 0.0
C7640 C 0.55853 0.08982 0.63875 0.0
C7641 C 0.56489 0.09048 0.64257 0.0
C7642 C 0.5548 0.09586 0.63658 0.0
C7643 C 0.55736 0.10266 0.6382 0.0
C7644 C 0.56382 0.10328 0.64182 0.0
C7645 C 0.56753 0.09728 0.64397 0.0
C7646 C 0.54993 0.12122 0.63907 0.0
C7647 C 0.5473 0.1222 0.6322 0.0
C7648 C 0.55292 0.11479 0.64106 0.0
C7649 C 0.55338 0.10915 0.63624 0.0
C7650 C 0.55038 0.10998 0.62948 0.0
C7651 C 0.54735 0.11645 0.62747 0.0
H7652 H 0.66584 0.82302 0.39717 0.0
H7653 H 0.67907 0.8079 0.38628 0.0
H7654 H 0.65539 0.81649 0.3936 0.0
H7655 H 0.6685 0.80132 0.38266 0.0
H7656 H 0.64645 0.79693 0.37168 0.0
H7657 H 0.65773 0.80234 0.3751 0.0
H7658 H 0.64984 0.80521 0.39634 0.0
H7659 H 0.63863 0.79989 0.3929 0.0
C7660 C 0.66653 0.81825 0.39407 0.0
C7661 C 0.6733 0.81593 0.3921 0.0
C7662 C 0.66052 0.8145 0.39202 0.0
C7663 C 0.66111 0.80832 0.38793 0.0
C7664 C 0.66787 0.80607 0.3858 0.0
C7665 C 0.67392 0.80984 0.38787 0.0
C7666 C 0.6472 0.79862 0.3771 0.0
C7667 C 0.64164 0.7981 0.382 0.0
C7668 C 0.65364 0.80172 0.37906 0.0
C7669 C 0.65463 0.80432 0.38596 0.0
C7670 C 0.64919 0.80342 0.39093 0.0
C7671 C 0.64277 0.80036 0.38897 0.0
H7672 H 0.94471 0.92431 0.12955 0.0
H7673 H 0.95561 0.92285 0.14956 0.0
H7674 H 0.9512 0.91401 0.12526 0.0
H7675 H 0.96195 0.91242 0.14535 0.0
H7676 H 0.97561 0.89612 0.13446 0.0
H7677 H 0.97075 0.90788 0.1369 0.0
H7678 H 0.9507 0.90139 0.12809 0.0
H7679 H 0.9556 0.88975 0.12552 0.0
C7680 C 0.94857 0.92186 0.13299 0.0
C7681 C 0.9496 0.92437 0.13991 0.0
C7682 C 0.95224 0.91591 0.13056 0.0
C7683 C 0.95706 0.91236 0.13498 0.0
C7684 C 0.95832 0.91506 0.14179 0.0
C7685 C 0.95462 0.92099 0.14423 0.0
C7686 C 0.97022 0.89727 0.13291 0.0
C7687 C 0.96596 0.892 0.12984 0.0
C7688 C 0.96742 0.90398 0.13437 0.0
C7689 C 0.96033 0.90556 0.13273 0.0
C7690 C 0.9562 0.90038 0.12936 0.0
C7691 C 0.95898 0.89368 0.12795 0.0
H7692 H 0.83527 0.2064 0.88652 0.0
H7693 H 0.84871 0.19121 0.89704 0.0
H7694 H 0.84573 0.21319 0.88302 0.0
H7695 H 0.85908 0.19794 0.89358 0.0
H7696 H 0.87561 0.21478 0.89322 0.0
H7697 H 0.8645 0.20921 0.89655 0.0
H7698 H 0.85647 0.2125 0.87542 0.0
H7699 H 0.86765 0.21818 0.87211 0.0
C7700 C 0.84044 0.20449 0.88805 0.0
C7701 C 0.84115 0.19831 0.89214 0.0
C7702 C 0.84643 0.20838 0.88604 0.0
C7703 C 0.85323 0.20616 0.88811 0.0
C7704 C 0.85391 0.1999 0.89206 0.0
C7705 C 0.84796 0.19603 0.89404 0.0
C7706 C 0.87146 0.21435 0.88929 0.0
C7707 C 0.87253 0.21682 0.88237 0.0
C7708 C 0.8651 0.21114 0.89119 0.0
C7709 C 0.85965 0.21029 0.88621 0.0
C7710 C 0.86057 0.21309 0.87938 0.0
C7711 C 0.86696 0.21634 0.87748 0.0
H7712 H 0.87629 0.55702 0.92869 0.0
H7713 H 0.86918 0.57425 0.91548 0.0
H7714 H 0.88108 0.55101 0.91824 0.0
H7715 H 0.87375 0.56822 0.90512 0.0
H7716 H 0.88821 0.55968 0.88866 0.0
H7717 H 0.88509 0.5651 0.89991 0.0
H7718 H 0.8768 0.54511 0.90723 0.0
H7719 H 0.88 0.53965 0.89592 0.0
C7720 C 0.87577 0.55952 0.92357 0.0
C7721 C 0.87232 0.56609 0.92291 0.0
C7722 C 0.87846 0.55606 0.91759 0.0
C7723 C 0.87783 0.55915 0.91086 0.0
C7724 C 0.87442 0.56573 0.91023 0.0
C7725 C 0.87171 0.56915 0.91617 0.0
C7726 C 0.88578 0.55643 0.89269 0.0
C7727 C 0.88426 0.54927 0.89138 0.0
C7728 C 0.88397 0.55953 0.89913 0.0
C7729 C 0.88058 0.55556 0.90442 0.0
C7730 C 0.87942 0.5483 0.90327 0.0
C7731 C 0.88125 0.54518 0.8968 0.0
H7732 H 0.3649 0.9553 0.08993 0.0
H7733 H 0.38473 0.94406 0.08832 0.0
H7734 H 0.36922 0.96145 0.10039 0.0
H7735 H 0.38914 0.95039 0.09866 0.0
H7736 H 0.38926 0.95466 0.12286 0.0
H7737 H 0.38648 0.94987 0.11124 0.0
H7738 H 0.37771 0.97005 0.10503 0.0
H7739 H 0.38033 0.97479 0.11678 0.0
C7740 C 0.37021 0.9542 0.09176 0.0
C7741 C 0.37444 0.94913 0.08833 0.0
C7742 C 0.37272 0.95779 0.09772 0.0
C7743 C 0.37952 0.95638 0.10039 0.0
C7744 C 0.38385 0.95153 0.09679 0.0
C7745 C 0.38135 0.94795 0.09082 0.0
C7746 C 0.38677 0.95808 0.119 0.0
C7747 C 0.38495 0.96508 0.12076 0.0
C7748 C 0.38525 0.95536 0.11231 0.0
C7749 C 0.38184 0.95957 0.10721 0.0
C7750 C 0.38026 0.96665 0.10887 0.0
C7751 C 0.38182 0.96939 0.11557 0.0
H7752 H 0.82448 0.62195 0.84805 0.0
H7753 H 0.80649 0.62667 0.8348 0.0
H7754 H 0.81823 0.62662 0.85825 0.0
H7755 H 0.80025 0.63157 0.84506 0.0
H7756 H 0.78937 0.63048 0.86764 0.0
H7757 H 0.79492 0.62738 0.85635 0.0
H7758 H 0.81411 0.63784 0.86297 0.0
H7759 H 0.80862 0.64084 0.87422 0.0
C7760 C 0.81918 0.62399 0.84732 0.0
C7761 C 0.81596 0.62389 0.84062 0.0
C7762 C 0.81563 0.62676 0.85315 0.0
C7763 C 0.80876 0.62952 0.85247 0.0
C7764 C 0.80553 0.62946 0.84577 0.0
C7765 C 0.80912 0.62671 0.83989 0.0
C7766 C 0.79472 0.63224 0.8666 0.0
C7767 C 0.7986 0.63581 0.87184 0.0
C7768 C 0.7979 0.63047 0.86014 0.0
C7769 C 0.805 0.63225 0.85882 0.0
C7770 C 0.8087 0.63623 0.86389 0.0
C7771 C 0.80554 0.63798 0.87032 0.0
H7772 H 0.12839 0.07177 0.59049 0.0
H7773 H 0.1475 0.05933 0.58918 0.0
H7774 H 0.12478 0.06512 0.60092 0.0
H7775 H 0.14392 0.05271 0.59965 0.0
H7776 H 0.13359 0.03915 0.61658 0.0
H7777 H 0.13555 0.04443 0.60493 0.0
H7778 H 0.12873 0.0647 0.61302 0.0
H7779 H 0.12657 0.05938 0.62452 0.0
C7780 C 0.1318 0.06759 0.59242 0.0
C7781 C 0.13826 0.06612 0.58905 0.0
C7782 C 0.12974 0.06379 0.5984 0.0
C7783 C 0.13409 0.05843 0.60118 0.0
C7784 C 0.1404 0.05675 0.59762 0.0
C7785 C 0.14246 0.06055 0.59161 0.0
C7786 C 0.13239 0.0447 0.61581 0.0
C7787 C 0.12998 0.04886 0.62148 0.0
C7788 C 0.13358 0.04774 0.60917 0.0
C7789 C 0.13232 0.05499 0.60804 0.0
C7790 C 0.12969 0.05908 0.61366 0.0
C7791 C 0.12852 0.05605 0.62028 0.0
H7792 H 0.20784 0.88783 0.83487 0.0
H7793 H 0.18942 0.89101 0.84798 0.0
H7794 H 0.21425 0.88303 0.84507 0.0
H7795 H 0.19582 0.88644 0.85812 0.0
H7796 H 0.20622 0.87311 0.8742 0.0
H7797 H 0.2007 0.87557 0.86282 0.0
H7798 H 0.21916 0.88741 0.85643 0.0
H7799 H 0.22473 0.88482 0.86783 0.0
C7800 C 0.20515 0.88746 0.83991 0.0
C7801 C 0.19814 0.88985 0.84063 0.0
C7802 C 0.20883 0.88476 0.84575 0.0
C7803 C 0.20554 0.88432 0.85241 0.0
C7804 C 0.19849 0.8866 0.85306 0.0
C7805 C 0.19485 0.88931 0.84726 0.0
C7806 C 0.20914 0.87614 0.87032 0.0
C7807 C 0.21586 0.87885 0.87192 0.0
C7808 C 0.20597 0.87758 0.86381 0.0
C7809 C 0.20943 0.8818 0.85877 0.0
C7810 C 0.21636 0.88412 0.86019 0.0
C7811 C 0.21955 0.88264 0.86671 0.0
H7812 H 0.63667 0.45554 0.42891 0.0
H7813 H 0.64766 0.44056 0.4156 0.0
H7814 H 0.63305 0.4622 0.41838 0.0
H7815 H 0.6441 0.44717 0.40519 0.0
H7816 H 0.64365 0.46402 0.38869 0.0
H7817 H 0.64694 0.45859 0.39988 0.0
H7818 H 0.62557 0.46124 0.40747 0.0
H7819 H 0.62228 0.46677 0.3962 0.0
C7820 C 0.63827 0.45364 0.42375 0.0
C7821 C 0.64255 0.44758 0.4231 0.0
C7822 C 0.63621 0.45746 0.41773 0.0
C7823 C 0.63839 0.45528 0.41096 0.0
C7824 C 0.64249 0.44911 0.41033 0.0
C7825 C 0.64453 0.44531 0.41631 0.0
C7826 C 0.63966 0.46348 0.39276 0.0
C7827 C 0.63269 0.46572 0.39154 0.0
C7828 C 0.64154 0.46035 0.39917 0.0
C7829 C 0.63648 0.45936 0.40452 0.0
C7830 C 0.62958 0.46194 0.40345 0.0
C7831 C 0.6277 0.4651 0.39702 0.0
H7832 H 0.81933 0.37957 0.6738 0.0
H7833 H 0.8087 0.39969 0.67166 0.0
H7834 H 0.81288 0.37508 0.66357 0.0
H7835 H 0.80241 0.39527 0.66132 0.0
H7836 H 0.78875 0.38408 0.64523 0.0
H7837 H 0.79352 0.38677 0.65696 0.0
H7838 H 0.81354 0.37759 0.65088 0.0
H7839 H 0.80874 0.37479 0.63927 0.0
C7840 C 0.81554 0.383 0.67121 0.0
C7841 C 0.81457 0.39 0.67352 0.0
C7842 C 0.81189 0.38044 0.66531 0.0
C7843 C 0.80716 0.38483 0.6616 0.0
C7844 C 0.80597 0.39173 0.66409 0.0
C7845 C 0.80964 0.3943 0.66997 0.0
C7846 C 0.79412 0.38251 0.64647 0.0
C7847 C 0.79839 0.37928 0.64132 0.0
C7848 C 0.79687 0.3841 0.65316 0.0
C7849 C 0.80393 0.38243 0.65484 0.0
C7850 C 0.80808 0.37889 0.64979 0.0
C7851 C 0.80534 0.37734 0.64311 0.0
H7852 H 0.69407 0.63515 0.17336 0.0
H7853 H 0.70564 0.61547 0.17225 0.0
H7854 H 0.70049 0.6395 0.16304 0.0
H7855 H 0.71191 0.61974 0.16183 0.0
H7856 H 0.72543 0.63098 0.14563 0.0
H7857 H 0.72049 0.62844 0.15731 0.0
H7858 H 0.70023 0.63648 0.15046 0.0
H7859 H 0.7052 0.63915 0.13888 0.0
C7860 C 0.69806 0.63179 0.17097 0.0
C7861 C 0.69931 0.62494 0.17359 0.0
C7862 C 0.70169 0.63426 0.16503 0.0
C7863 C 0.70668 0.62995 0.16158 0.0
C7864 C 0.70814 0.62322 0.16438 0.0
C7865 C 0.70449 0.62074 0.17031 0.0
C7866 C 0.71996 0.63233 0.14668 0.0
C7867 C 0.71568 0.63522 0.14133 0.0
C7868 C 0.71711 0.63082 0.15334 0.0
C7869 C 0.70995 0.63222 0.1548 0.0
C7870 C 0.70577 0.63539 0.14954 0.0
C7871 C 0.7086 0.63686 0.14288 0.0
H7872 H 0.59895 0.64034 0.93769 0.0
H7873 H 0.58571 0.63693 0.95596 0.0
H7874 H 0.60908 0.63579 0.94414 0.0
H7875 H 0.59589 0.63213 0.9624 0.0
H7876 H 0.61846 0.63356 0.97319 0.0
H7877 H 0.60718 0.63638 0.96749 0.0
H7878 H 0.61377 0.62488 0.94889 0.0
H7879 H 0.62503 0.62218 0.95454 0.0
C7880 C 0.5982 0.6386 0.94309 0.0
C7881 C 0.59153 0.63906 0.94633 0.0
C7882 C 0.604 0.6359 0.94677 0.0
C7883 C 0.60329 0.63355 0.95378 0.0
C7884 C 0.59661 0.63393 0.95702 0.0
C7885 C 0.59077 0.63662 0.95331 0.0
C7886 C 0.61741 0.63151 0.96795 0.0
C7887 C 0.62265 0.62774 0.96426 0.0
C7888 C 0.61096 0.63313 0.96468 0.0
C7889 C 0.60962 0.63096 0.95768 0.0
C7890 C 0.61469 0.62677 0.95421 0.0
C7891 C 0.62113 0.6252 0.95745 0.0
H7892 H 0.63547 0.33946 0.19407 0.0
H7893 H 0.61544 0.34191 0.20474 0.0
H7894 H 0.64005 0.3498 0.2003 0.0
H7895 H 0.61994 0.35236 0.21081 0.0
H7896 H 0.63124 0.36872 0.22404 0.0
H7897 H 0.62846 0.3569 0.21954 0.0
H7898 H 0.63762 0.36248 0.19938 0.0
H7899 H 0.64051 0.37419 0.20393 0.0
C7900 C 0.63208 0.34214 0.19782 0.0
C7901 C 0.62507 0.33989 0.19887 0.0
C7902 C 0.63468 0.3481 0.20134 0.0
C7903 C 0.63035 0.35194 0.20601 0.0
C7904 C 0.62344 0.3495 0.20729 0.0
C7905 C 0.62083 0.34356 0.20375 0.0
C7906 C 0.63278 0.36735 0.2187 0.0
C7907 C 0.63604 0.37239 0.21432 0.0
C7908 C 0.63114 0.36061 0.2161 0.0
C7909 C 0.63278 0.35876 0.20909 0.0
C7910 C 0.63633 0.3637 0.20483 0.0
C7911 C 0.63793 0.37044 0.20741 0.0
H7912 H 0.91402 0.37366 0.43731 0.0
H7913 H 0.92736 0.37938 0.45494 0.0
H7914 H 0.90375 0.3781 0.44358 0.0
H7915 H 0.91703 0.38409 0.46118 0.0
H7916 H 0.89493 0.38241 0.47266 0.0
H7917 H 0.90618 0.37967 0.46688 0.0
H7918 H 0.89842 0.38899 0.44752 0.0
H7919 H 0.88719 0.3916 0.45326 0.0
C7920 C 0.91476 0.37589 0.44253 0.0
C7921 C 0.92151 0.37611 0.44564 0.0
C7922 C 0.90888 0.37853 0.4461 0.0
C7923 C 0.90956 0.38149 0.45288 0.0
C7924 C 0.91632 0.3818 0.45598 0.0
C7925 C 0.92224 0.37916 0.45238 0.0
C7926 C 0.8957 0.38399 0.46722 0.0
C7927 C 0.89016 0.38713 0.46338 0.0
C7928 C 0.90214 0.38243 0.4639 0.0
C7929 C 0.90316 0.38401 0.4567 0.0
C7930 C 0.89775 0.38755 0.45302 0.0
C7931 C 0.89133 0.38907 0.45631 0.0
H7932 H 0.87888 0.67355 0.69289 0.0
H7933 H 0.89794 0.6737 0.70547 0.0
H7934 H 0.87461 0.66332 0.69949 0.0
H7935 H 0.89374 0.66336 0.71196 0.0
H7936 H 0.88228 0.64713 0.72544 0.0
H7937 H 0.88462 0.65878 0.72025 0.0
H7938 H 0.87835 0.65084 0.69977 0.0
H7939 H 0.87594 0.6393 0.70497 0.0
C7940 C 0.88211 0.67147 0.69714 0.0
C7941 C 0.88877 0.67441 0.69862 0.0
C7942 C 0.87969 0.66557 0.70088 0.0
C7943 C 0.88385 0.6625 0.70622 0.0
C7944 C 0.89038 0.66563 0.70791 0.0
C7945 C 0.89282 0.67151 0.70415 0.0
C7946 C 0.88128 0.64794 0.71986 0.0
C7947 C 0.87898 0.64231 0.71559 0.0
C7948 C 0.88267 0.65458 0.71688 0.0
C7949 C 0.8817 0.65573 0.70959 0.0
C7950 C 0.87909 0.65017 0.70541 0.0
C7951 C 0.87777 0.64354 0.70837 0.0
H7952 H 0.58556 0.37903 0.55803 0.0
H7953 H 0.59897 0.37125 0.57481 0.0
H7954 H 0.59598 0.38365 0.55189 0.0
H7955 H 0.60931 0.37559 0.56861 0.0
H7956 H 0.62631 0.389 0.55976 0.0
H7957 H 0.61506 0.38648 0.5655 0.0
H7958 H 0.6065 0.37931 0.54557 0.0
H7959 H 0.61778 0.38201 0.5398 0.0
C7960 C 0.59072 0.37832 0.56042 0.0
C7961 C 0.59143 0.37473 0.56689 0.0
C7962 C 0.59669 0.38092 0.55687 0.0
C7963 C 0.60348 0.38002 0.55977 0.0
C7964 C 0.60416 0.37648 0.56627 0.0
C7965 C 0.59823 0.37389 0.56978 0.0
C7966 C 0.62199 0.38697 0.5566 0.0
C7967 C 0.62293 0.38562 0.54936 0.0
C7968 C 0.61556 0.38549 0.55988 0.0
C7969 C 0.60992 0.38256 0.55602 0.0
C7970 C 0.61073 0.38159 0.54869 0.0
C7971 C 0.61718 0.38312 0.54538 0.0
H7972 H 0.89239 0.34924 0.82448 0.0
H7973 H 0.88618 0.33592 0.807 0.0
H7974 H 0.88784 0.35954 0.81831 0.0
H7975 H 0.8814 0.3463 0.80084 0.0
H7976 H 0.88291 0.36865 0.78953 0.0
H7977 H 0.88578 0.3573 0.7951 0.0
H7978 H 0.87667 0.36472 0.81469 0.0
H7979 H 0.87392 0.37603 0.80915 0.0
C7980 C 0.89005 0.34851 0.8193 0.0
C7981 C 0.88971 0.34176 0.8162 0.0
C7982 C 0.88735 0.35441 0.8158 0.0
C7983 C 0.88421 0.35374 0.8091 0.0
C7984 C 0.88382 0.34699 0.80599 0.0
C7985 C 0.8865 0.34105 0.80953 0.0
C7986 C 0.8814 0.36778 0.79498 0.0
C7987 C 0.87829 0.37325 0.79894 0.0
C7988 C 0.88303 0.36129 0.79817 0.0
C7989 C 0.88157 0.36016 0.80538 0.0
C7990 C 0.87803 0.36548 0.80918 0.0
C7991 C 0.87643 0.37195 0.80601 0.0
H7992 H 0.92418 0.62981 0.06989 0.0
H7993 H 0.92399 0.64895 0.05742 0.0
H7994 H 0.91386 0.62551 0.06343 0.0
H7995 H 0.91357 0.64472 0.05108 0.0
H7996 H 0.89719 0.63326 0.03781 0.0
H7997 H 0.90892 0.6356 0.04282 0.0
H7998 H 0.90136 0.6292 0.06339 0.0
H7999 H 0.88973 0.62679 0.05837 0.0
C8000 C 0.92201 0.63305 0.06569 0.0
C8001 C 0.92487 0.63975 0.06419 0.0
C8002 C 0.91606 0.63061 0.06203 0.0
C8003 C 0.91287 0.63479 0.05677 0.0
C8004 C 0.91593 0.64135 0.05506 0.0
C8005 C 0.92185 0.6438 0.05874 0.0
C8006 C 0.8981 0.63222 0.04337 0.0
C8007 C 0.89255 0.62988 0.04771 0.0
C8008 C 0.90478 0.63362 0.04624 0.0
C8009 C 0.90606 0.63262 0.0535 0.0
C8010 C 0.90058 0.62997 0.05777 0.0
C8011 C 0.8939 0.62864 0.05491 0.0
H8012 H 0.62849 0.679 0.30703 0.0
H8013 H 0.62164 0.66563 0.32422 0.0
H8014 H 0.63302 0.66857 0.30078 0.0
H8015 H 0.6259 0.65528 0.31794 0.0
H8016 H 0.63902 0.63832 0.30866 0.0
H8017 H 0.63673 0.64964 0.31438 0.0
H8018 H 0.62847 0.65791 0.29475 0.0
H8019 H 0.63094 0.64656 0.28899 0.0
C8020 C 0.62798 0.67385 0.30948 0.0
C8021 C 0.62467 0.67314 0.3161 0.0
C8022 C 0.63052 0.66788 0.30588 0.0
C8023 C 0.62985 0.66109 0.30887 0.0
C8024 C 0.62661 0.66043 0.31552 0.0
C8025 C 0.62407 0.66636 0.31909 0.0
C8026 C 0.63681 0.6426 0.30555 0.0
C8027 C 0.63507 0.64155 0.29841 0.0
C8028 C 0.63547 0.64907 0.30883 0.0
C8029 C 0.63228 0.65464 0.30506 0.0
C8030 C 0.63095 0.65374 0.2978 0.0
C8031 C 0.63235 0.64724 0.29449 0.0
H8032 H 0.93796 0.59941 0.64243 0.0
H8033 H 0.95444 0.58565 0.63461 0.0
H8034 H 0.94437 0.60964 0.6381 0.0
H8035 H 0.9608 0.59597 0.63001 0.0
H8036 H 0.97337 0.61753 0.63199 0.0
H8037 H 0.96735 0.60633 0.63449 0.0
H8038 H 0.94765 0.61539 0.62724 0.0
H8039 H 0.95364 0.62656 0.62491 0.0
C8040 C 0.94296 0.59857 0.63977 0.0
C8041 C 0.94572 0.59171 0.63893 0.0
C8042 C 0.94659 0.60444 0.63719 0.0
C8043 C 0.95308 0.60363 0.63365 0.0
C8044 C 0.95583 0.59677 0.63273 0.0
C8045 C 0.95216 0.59086 0.63532 0.0
C8046 C 0.96778 0.61705 0.6308 0.0
C8047 C 0.96394 0.62292 0.62835 0.0
C8048 C 0.96433 0.61065 0.63223 0.0
C8049 C 0.95699 0.61 0.63119 0.0
C8050 C 0.95327 0.61575 0.62828 0.0
C8051 C 0.9567 0.62214 0.62691 0.0
H8052 H 0.67422 0.69693 0.88059 0.0
H8053 H 0.67338 0.70666 0.90122 0.0
H8054 H 0.66383 0.7037 0.87698 0.0
H8055 H 0.66301 0.71344 0.89761 0.0
H8056 H 0.63923 0.71471 0.89216 0.0
H8057 H 0.65083 0.71014 0.89533 0.0
H8058 H 0.65863 0.71544 0.87453 0.0
H8059 H 0.64687 0.71989 0.8713 0.0
C8060 C 0.67192 0.70063 0.8843 0.0
C8061 C 0.67457 0.70119 0.89122 0.0
C8062 C 0.66596 0.70452 0.88223 0.0
C8063 C 0.66254 0.70906 0.88703 0.0
C8064 C 0.66544 0.70989 0.89383 0.0
C8065 C 0.67137 0.706 0.8959 0.0
C8066 C 0.64343 0.71493 0.88827 0.0
C8067 C 0.64213 0.71759 0.88146 0.0
C8068 C 0.6501 0.71238 0.89011 0.0
C8069 C 0.65566 0.71241 0.88518 0.0
C8070 C 0.65443 0.71528 0.87843 0.0
C8071 C 0.64774 0.71789 0.8766 0.0
H8072 H 0.55713 0.4237 0.15072 0.0
H8073 H 0.5673 0.42421 0.13029 0.0
H8074 H 0.55048 0.41325 0.14715 0.0
H8075 H 0.56067 0.41371 0.12673 0.0
H8076 H 0.54476 0.39648 0.12108 0.0
H8077 H 0.54905 0.40834 0.12414 0.0
H8078 H 0.55395 0.40105 0.14522 0.0
H8079 H 0.54954 0.38935 0.14222 0.0
C8080 C 0.55791 0.4216 0.14545 0.0
C8081 C 0.56281 0.42473 0.14082 0.0
C8082 C 0.5541 0.41561 0.1434 0.0
C8083 C 0.55511 0.41259 0.13669 0.0
C8084 C 0.55973 0.41594 0.13192 0.0
C8085 C 0.56353 0.42195 0.13397 0.0
C8086 C 0.54664 0.39747 0.1264 0.0
C8087 C 0.54687 0.39198 0.1314 0.0
C8088 C 0.54915 0.40424 0.12813 0.0
C8089 C 0.55186 0.40564 0.13492 0.0
C8090 C 0.55183 0.40019 0.13997 0.0
C8091 C 0.54937 0.39346 0.13824 0.0
H8092 H 0.84011 0.30835 0.39816 0.0
H8093 H 0.84014 0.32131 0.37936 0.0
H8094 H 0.85059 0.30212 0.39391 0.0
H8095 H 0.85053 0.31496 0.37503 0.0
H8096 H 0.87461 0.3097 0.37634 0.0
H8097 H 0.86301 0.31475 0.37881 0.0
H8098 H 0.85526 0.29406 0.38464 0.0
H8099 H 0.86696 0.28902 0.38226 0.0
C8100 C 0.84232 0.30981 0.39308 0.0
C8101 C 0.83933 0.31536 0.38913 0.0
C8102 C 0.84827 0.30619 0.39061 0.0
C8103 C 0.8514 0.30806 0.38414 0.0
C8104 C 0.84827 0.31344 0.38006 0.0
C8105 C 0.84229 0.31703 0.38252 0.0
C8106 C 0.87041 0.30622 0.37809 0.0
C8107 C 0.8717 0.29898 0.37916 0.0
C8108 C 0.86374 0.3091 0.37945 0.0
C8109 C 0.85822 0.30481 0.38195 0.0
C8110 C 0.85944 0.29751 0.38278 0.0
C8111 C 0.8661 0.29461 0.38136 0.0
H8112 H 0.95639 0.42902 0.87781 0.0
H8113 H 0.93838 0.41582 0.87305 0.0
H8114 H 0.96258 0.41874 0.88276 0.0
H8115 H 0.94457 0.4056 0.87778 0.0
H8116 H 0.95408 0.38956 0.89196 0.0
H8117 H 0.94865 0.40088 0.88901 0.0
H8118 H 0.96787 0.4074 0.87856 0.0
H8119 H 0.97335 0.39604 0.88161 0.0
C8120 C 0.95375 0.42394 0.87785 0.0
C8121 C 0.94691 0.42322 0.87501 0.0
C8122 C 0.95731 0.41805 0.88064 0.0
C8123 C 0.95405 0.41136 0.8807 0.0
C8124 C 0.94719 0.41069 0.87792 0.0
C8125 C 0.94367 0.41654 0.87512 0.0
C8126 C 0.95718 0.39345 0.88911 0.0
C8127 C 0.9641 0.3919 0.88693 0.0
C8128 C 0.95406 0.39992 0.8874 0.0
C8129 C 0.95778 0.40499 0.88344 0.0
C8130 C 0.96487 0.40362 0.88164 0.0
C8131 C 0.96801 0.39712 0.88338 0.0
H8132 H 0.83936 0.69373 0.135 0.0
H8133 H 0.8414 0.70436 0.1149 0.0
H8134 H 0.84949 0.70033 0.13951 0.0
H8135 H 0.85166 0.71078 0.11933 0.0
H8136 H 0.86764 0.7246 0.13038 0.0
H8137 H 0.85596 0.71971 0.12769 0.0
H8138 H 0.86215 0.69985 0.13717 0.0
H8139 H 0.8737 0.70479 0.13999 0.0
C8140 C 0.8419 0.69755 0.13158 0.0
C8141 C 0.8396 0.69848 0.12457 0.0
C8142 C 0.84775 0.70128 0.13414 0.0
C8143 C 0.85142 0.70605 0.12977 0.0
C8144 C 0.84893 0.7072 0.12286 0.0
C8145 C 0.8431 0.70345 0.12029 0.0
C8146 C 0.86644 0.71925 0.13202 0.0
C8147 C 0.8716 0.71506 0.13535 0.0
C8148 C 0.85978 0.71642 0.13042 0.0
C8149 C 0.85814 0.70937 0.13217 0.0
C8150 C 0.86321 0.70531 0.1358 0.0
C8151 C 0.86985 0.70812 0.13736 0.0
H8152 H 0.56943 0.5917 0.38352 0.0
H8153 H 0.5591 0.59191 0.36316 0.0
H8154 H 0.5628 0.60223 0.38698 0.0
H8155 H 0.55242 0.60238 0.36664 0.0
H8156 H 0.55066 0.62618 0.37135 0.0
H8157 H 0.55548 0.61463 0.36843 0.0
H8158 H 0.55122 0.60742 0.38968 0.0
H8159 H 0.54657 0.61915 0.39267 0.0
C8160 C 0.56564 0.59391 0.37984 0.0
C8161 C 0.56485 0.59102 0.37303 0.0
C8162 C 0.56183 0.59994 0.38183 0.0
C8163 C 0.55714 0.6032 0.37706 0.0
C8164 C 0.55611 0.6001 0.37038 0.0
C8165 C 0.55993 0.59409 0.36839 0.0
C8166 C 0.55075 0.62214 0.37541 0.0
C8167 C 0.54831 0.6236 0.38226 0.0
C8168 C 0.55344 0.61548 0.37371 0.0
C8169 C 0.55375 0.61009 0.37882 0.0
C8170 C 0.55112 0.61148 0.38564 0.0
C8171 C 0.5484 0.61817 0.38734 0.0
H8172 H 0.67734 0.3076 0.62782 0.0
H8173 H 0.66384 0.3237 0.61883 0.0
H8174 H 0.66685 0.30088 0.63144 0.0
H8175 H 0.65347 0.31702 0.62236 0.0
H8176 H 0.63669 0.30047 0.62208 0.0
H8177 H 0.64788 0.30587 0.61875 0.0
H8178 H 0.65625 0.3015 0.63954 0.0
H8179 H 0.64497 0.296 0.64287 0.0
C8180 C 0.67215 0.30973 0.62666 0.0
C8181 C 0.67143 0.31614 0.62294 0.0
C8182 C 0.66615 0.30588 0.62873 0.0
C8183 C 0.65934 0.30836 0.62708 0.0
C8184 C 0.65864 0.31486 0.62354 0.0
C8185 C 0.6646 0.31869 0.62151 0.0
C8186 C 0.64094 0.30061 0.62593 0.0
C8187 C 0.63993 0.29792 0.63277 0.0
C8188 C 0.64734 0.30372 0.62403 0.0
C8189 C 0.6529 0.30424 0.62893 0.0
C8190 C 0.65206 0.30118 0.63565 0.0
C8191 C 0.64561 0.29803 0.63756 0.0
H8192 H 0.63507 0.95661 0.58545 0.0
H8193 H 0.64802 0.94302 0.59849 0.0
H8194 H 0.6317 0.96342 0.59596 0.0
H8195 H 0.64475 0.94982 0.60886 0.0
H8196 H 0.64407 0.96726 0.62473 0.0
H8197 H 0.64704 0.96179 0.61347 0.0
H8198 H 0.62501 0.96208 0.60746 0.0
H8199 H 0.62202 0.9676 0.61881 0.0
C8200 C 0.63717 0.95505 0.59054 0.0
C8201 C 0.6419 0.94933 0.59111 0.0
C8202 C 0.63525 0.95896 0.59655 0.0
C8203 C 0.63805 0.95723 0.60321 0.0
C8204 C 0.64264 0.95141 0.60378 0.0
C8205 C 0.64453 0.94751 0.59782 0.0
C8206 C 0.63986 0.9662 0.62099 0.0
C8207 C 0.6328 0.96775 0.62269 0.0
C8208 C 0.64156 0.96306 0.61455 0.0
C8209 C 0.63625 0.96138 0.60964 0.0
C8210 C 0.62922 0.96331 0.61114 0.0
C8211 C 0.62751 0.96647 0.61763 0.0
H8212 H 0.14706 0.5605 0.42202 0.0
H8213 H 0.12725 0.57187 0.42167 0.0
H8214 H 0.14336 0.55372 0.41169 0.0
H8215 H 0.12354 0.56509 0.41135 0.0
H8216 H 0.12483 0.55953 0.38758 0.0
H8217 H 0.12711 0.56493 0.39903 0.0
H8218 H 0.13506 0.54497 0.40686 0.0
H8219 H 0.13292 0.5396 0.39527 0.0
C8220 C 0.14186 0.56145 0.41983 0.0
C8221 C 0.13748 0.56678 0.42263 0.0
C8222 C 0.13973 0.55756 0.4139 0.0
C8223 C 0.13318 0.5589 0.41065 0.0
C8224 C 0.12868 0.56401 0.41364 0.0
C8225 C 0.1308 0.5679 0.41956 0.0
C8226 C 0.12703 0.55629 0.39176 0.0
C8227 C 0.12875 0.54916 0.39051 0.0
C8228 C 0.12828 0.55936 0.39835 0.0
C8229 C 0.13128 0.55539 0.40387 0.0
C8230 C 0.1328 0.54819 0.40269 0.0
C8231 C 0.13152 0.5451 0.39609 0.0
H8232 H 0.70371 0.89882 0.67115 0.0
H8233 H 0.69355 0.87852 0.67372 0.0
H8234 H 0.71005 0.89432 0.66087 0.0
H8235 H 0.70006 0.87396 0.66356 0.0
H8236 H 0.70422 0.87311 0.63932 0.0
H8237 H 0.69934 0.87613 0.65085 0.0
H8238 H 0.71913 0.88595 0.65667 0.0
H8239 H 0.72397 0.88304 0.64502 0.0
C8240 C 0.70288 0.89337 0.66956 0.0
C8241 C 0.69807 0.88905 0.67322 0.0
C8242 C 0.70659 0.89077 0.66372 0.0
C8243 C 0.70555 0.88379 0.66138 0.0
C8244 C 0.70093 0.87939 0.66519 0.0
C8245 C 0.69724 0.88198 0.67105 0.0
C8246 C 0.70755 0.87586 0.64309 0.0
C8247 C 0.71445 0.87789 0.64126 0.0
C8248 C 0.70478 0.87753 0.64972 0.0
C8249 C 0.70883 0.88131 0.65467 0.0
C8250 C 0.71585 0.8831 0.65294 0.0
C8251 C 0.71864 0.88138 0.64631 0.0
H8252 H 0.36493 0.45612 0.92337 0.0
H8253 H 0.38384 0.4433 0.92319 0.0
H8254 H 0.36916 0.46253 0.913 0.0
H8255 H 0.38814 0.44982 0.91292 0.0
H8256 H 0.38687 0.45541 0.88893 0.0
H8257 H 0.38441 0.45019 0.90044 0.0
H8258 H 0.37836 0.47072 0.90845 0.0
H8259 H 0.38074 0.47594 0.89684 0.0
C8260 C 0.37002 0.45472 0.92116 0.0
C8261 C 0.37402 0.44916 0.92407 0.0
C8262 C 0.37248 0.45844 0.91527 0.0
C8263 C 0.37897 0.45666 0.91212 0.0
C8264 C 0.38309 0.45127 0.91518 0.0
C8265 C 0.38065 0.44758 0.9211 0.0
C8266 C 0.38508 0.45882 0.89317 0.0
C8267 C 0.38395 0.46607 0.89198 0.0
C8268 C 0.38372 0.45584 0.89979 0.0
C8269 C 0.38116 0.46003 0.90536 0.0
C8270 C 0.38027 0.46734 0.90424 0.0
C8271 C 0.38169 0.47034 0.89762 0.0
H8272 H 0.32485 0.62268 0.66546 0.0
H8273 H 0.3068 0.62715 0.67871 0.0
H8274 H 0.31863 0.62753 0.65532 0.0
H8275 H 0.30058 0.63221 0.66851 0.0
H8276 H 0.28984 0.63126 0.64582 0.0
H8277 H 0.29533 0.6281 0.65711 0.0
H8278 H 0.31447 0.63883 0.65077 0.0
H8279 H 0.30902 0.64189 0.63951 0.0
C8280 C 0.31954 0.62471 0.6662 0.0
C8281 C 0.3163 0.62448 0.67288 0.0
C8282 C 0.316 0.62757 0.66041 0.0
C8283 C 0.30913 0.6303 0.66111 0.0
C8284 C 0.30587 0.63012 0.66779 0.0
C8285 C 0.30944 0.62727 0.67364 0.0
C8286 C 0.29516 0.63307 0.64692 0.0
C8287 C 0.29904 0.63673 0.64175 0.0
C8288 C 0.29831 0.63126 0.65338 0.0
C8289 C 0.30538 0.6331 0.65478 0.0
C8290 C 0.30907 0.63718 0.64979 0.0
C8291 C 0.30594 0.63896 0.64335 0.0
H8292 H 0.86231 0.05915 0.09087 0.0
H8293 H 0.88289 0.06903 0.0905 0.0
H8294 H 0.86579 0.05228 0.10121 0.0
H8295 H 0.88637 0.06218 0.10087 0.0
H8296 H 0.89197 0.04556 0.11743 0.0
H8297 H 0.88886 0.0504 0.10581 0.0
H8298 H 0.86789 0.05524 0.11349 0.0
H8299 H 0.87093 0.05026 0.12494 0.0
C8300 C 0.86759 0.05984 0.09299 0.0
C8301 C 0.8723 0.06469 0.08991 0.0
C8302 C 0.86959 0.0559 0.09891 0.0
C8303 C 0.87634 0.05673 0.10192 0.0
C8304 C 0.88116 0.06135 0.09865 0.0
C8305 C 0.87916 0.06529 0.09271 0.0
C8306 C 0.88667 0.04756 0.11657 0.0
C8307 C 0.88171 0.04759 0.12211 0.0
C8308 C 0.8849 0.05038 0.10995 0.0
C8309 C 0.87813 0.05322 0.10873 0.0
C8310 C 0.87313 0.05302 0.11421 0.0
C8311 C 0.87489 0.05025 0.12081 0.0
H8312 H 0.70436 0.11495 0.84064 0.0
H8313 H 0.69307 0.13478 0.83935 0.0
H8314 H 0.71067 0.11922 0.85105 0.0
H8315 H 0.69952 0.13913 0.84965 0.0
H8316 H 0.70413 0.13895 0.87381 0.0
H8317 H 0.69915 0.13617 0.86226 0.0
H8318 H 0.71935 0.12789 0.85553 0.0
H8319 H 0.72431 0.13056 0.86719 0.0
C8320 C 0.70329 0.12026 0.84253 0.0
C8321 C 0.69817 0.1245 0.8392 0.0
C8322 C 0.70695 0.12273 0.84846 0.0
C8323 C 0.70557 0.12951 0.8512 0.0
C8324 C 0.70065 0.13386 0.84771 0.0
C8325 C 0.69701 0.13139 0.84176 0.0
C8326 C 0.70752 0.13658 0.86984 0.0
C8327 C 0.71459 0.13492 0.87142 0.0
C8328 C 0.70469 0.13505 0.8632 0.0
C8329 C 0.70885 0.13179 0.85798 0.0
C8330 C 0.71599 0.13035 0.85947 0.0
C8331 C 0.71885 0.13193 0.86611 0.0
H8332 H 0.82588 0.89153 0.34789 0.0
H8333 H 0.80759 0.88776 0.33474 0.0
H8334 H 0.81963 0.88672 0.35801 0.0
H8335 H 0.80135 0.8827 0.3449 0.0
H8336 H 0.79071 0.88329 0.36756 0.0
H8337 H 0.79623 0.88658 0.35632 0.0
H8338 H 0.81528 0.87557 0.36251 0.0
H8339 H 0.80981 0.87241 0.37373 0.0
C8340 C 0.82051 0.88967 0.34716 0.0
C8341 C 0.81722 0.89008 0.34051 0.0
C8342 C 0.81695 0.88681 0.35295 0.0
C8343 C 0.81 0.88427 0.35226 0.0
C8344 C 0.80669 0.88464 0.34561 0.0
C8345 C 0.81028 0.88748 0.33978 0.0
C8346 C 0.79602 0.88146 0.36643 0.0
C8347 C 0.79987 0.87768 0.37154 0.0
C8348 C 0.79918 0.88334 0.36 0.0
C8349 C 0.80624 0.88145 0.35857 0.0
C8350 C 0.8099 0.87726 0.36351 0.0
C8351 C 0.80676 0.87542 0.36992 0.0
H8352 H 0.4238 0.38504 0.06907 0.0
H8353 H 0.42367 0.36601 0.05643 0.0
H8354 H 0.41344 0.38936 0.06269 0.0
H8355 H 0.41321 0.37026 0.05017 0.0
H8356 H 0.39659 0.38151 0.03716 0.0
H8357 H 0.40841 0.37938 0.04202 0.0
H8358 H 0.40097 0.38559 0.06269 0.0
H8359 H 0.38924 0.38779 0.05782 0.0
C8360 C 0.42163 0.38184 0.06485 0.0
C8361 C 0.42452 0.37516 0.06329 0.0
C8362 C 0.41566 0.38428 0.06124 0.0
C8363 C 0.41247 0.38014 0.05595 0.0
C8364 C 0.41557 0.37361 0.05417 0.0
C8365 C 0.42151 0.37114 0.05781 0.0
C8366 C 0.39754 0.38256 0.0427 0.0
C8367 C 0.392 0.38476 0.04712 0.0
C8368 C 0.40428 0.38129 0.0455 0.0
C8369 C 0.40562 0.38228 0.05275 0.0
C8370 C 0.40015 0.38483 0.05708 0.0
C8371 C 0.39341 0.38604 0.0543 0.0
H8372 H 0.38339 0.67868 0.80928 0.0
H8373 H 0.39934 0.66636 0.82005 0.0
H8374 H 0.38068 0.66851 0.80176 0.0
H8375 H 0.39639 0.65617 0.81289 0.0
H8376 H 0.39419 0.64008 0.79614 0.0
H8377 H 0.3973 0.65142 0.80144 0.0
H8378 H 0.37515 0.65704 0.80233 0.0
H8379 H 0.37212 0.64576 0.79672 0.0
C8380 C 0.38633 0.67382 0.81003 0.0
C8381 C 0.39155 0.67333 0.81532 0.0
C8382 C 0.38473 0.66797 0.80577 0.0
C8383 C 0.38831 0.6615 0.80669 0.0
C8384 C 0.39358 0.66107 0.81192 0.0
C8385 C 0.39521 0.66691 0.81613 0.0
C8386 C 0.39001 0.64381 0.79737 0.0
C8387 C 0.38292 0.64206 0.79609 0.0
C8388 C 0.39177 0.65028 0.80046 0.0
C8389 C 0.38647 0.65511 0.80246 0.0
C8390 C 0.37938 0.65349 0.80083 0.0
C8391 C 0.37763 0.64703 0.79764 0.0
H8392 H 0.08528 0.63697 0.55681 0.0
H8393 H 0.09854 0.64388 0.57407 0.0
H8394 H 0.09573 0.6323 0.5507 0.0
H8395 H 0.10891 0.63944 0.56794 0.0
H8396 H 0.12546 0.62525 0.559 0.0
H8397 H 0.11424 0.62823 0.56458 0.0
H8398 H 0.10661 0.63673 0.5448 0.0
H8399 H 0.11787 0.63367 0.53919 0.0
C8400 C 0.09041 0.63747 0.5593 0.0
C8401 C 0.09109 0.64082 0.56591 0.0
C8402 C 0.09639 0.63485 0.55579 0.0
C8403 C 0.10314 0.63547 0.55885 0.0
C8404 C 0.10378 0.63878 0.56547 0.0
C8405 C 0.09784 0.64141 0.56895 0.0
C8406 C 0.12136 0.6277 0.55583 0.0
C8407 C 0.12257 0.62931 0.54868 0.0
C8408 C 0.11495 0.62943 0.55903 0.0
C8409 C 0.10958 0.63283 0.55517 0.0
C8410 C 0.11063 0.63409 0.54792 0.0
C8411 C 0.11708 0.63234 0.5447 0.0
H8412 H 0.11413 0.34775 0.31927 0.0
H8413 H 0.13193 0.33605 0.311 0.0
H8414 H 0.11726 0.35778 0.31197 0.0
H8415 H 0.13484 0.34602 0.30329 0.0
H8416 H 0.14264 0.36894 0.29811 0.0
H8417 H 0.1396 0.35774 0.30385 0.0
H8418 H 0.11742 0.36212 0.30038 0.0
H8419 H 0.12051 0.37343 0.295 0.0
C8420 C 0.11871 0.34731 0.31586 0.0
C8421 C 0.12283 0.34111 0.31581 0.0
C8422 C 0.12044 0.35304 0.31156 0.0
C8423 C 0.12629 0.35273 0.30698 0.0
C8424 C 0.13034 0.34648 0.3068 0.0
C8425 C 0.12862 0.34073 0.31116 0.0
C8426 C 0.13714 0.36741 0.29849 0.0
C8427 C 0.1318 0.37202 0.29619 0.0
C8428 C 0.13538 0.36099 0.30175 0.0
C8429 C 0.12825 0.35905 0.30269 0.0
C8430 C 0.12295 0.36351 0.29994 0.0
C8431 C 0.12471 0.36995 0.2968 0.0
H8432 H 0.41511 0.64254 0.44033 0.0
H8433 H 0.4285 0.63527 0.45735 0.0
H8434 H 0.40479 0.63816 0.44653 0.0
H8435 H 0.4181 0.6306 0.46349 0.0
H8436 H 0.39615 0.63233 0.47538 0.0
H8437 H 0.40748 0.63493 0.46966 0.0
H8438 H 0.39914 0.62727 0.44982 0.0
H8439 H 0.38783 0.62488 0.4555 0.0
C8440 C 0.41585 0.63999 0.44541 0.0
C8441 C 0.42263 0.63931 0.44837 0.0
C8442 C 0.40993 0.63738 0.44892 0.0
C8443 C 0.41061 0.63397 0.45549 0.0
C8444 C 0.41739 0.63323 0.45845 0.0
C8445 C 0.42335 0.63585 0.45491 0.0
C8446 C 0.39682 0.63108 0.46983 0.0
C8447 C 0.39111 0.62849 0.46585 0.0
C8448 C 0.4033 0.63256 0.46655 0.0
C8449 C 0.40417 0.63144 0.45925 0.0
C8450 C 0.39859 0.62838 0.45541 0.0
C8451 C 0.39213 0.62696 0.45866 0.0
H8452 H 0.12707 0.6789 0.2064 0.0
H8453 H 0.11547 0.66604 0.19152 0.0
H8454 H 0.13047 0.6682 0.21292 0.0
H8455 H 0.11882 0.65546 0.19797 0.0
H8456 H 0.11912 0.6387 0.21451 0.0
H8457 H 0.11603 0.65006 0.20929 0.0
H8458 H 0.13761 0.65712 0.21182 0.0
H8459 H 0.14068 0.64568 0.21715 0.0
C8460 C 0.12529 0.6738 0.2045 0.0
C8461 C 0.12091 0.67333 0.1985 0.0
C8462 C 0.12723 0.66768 0.20823 0.0
C8463 C 0.12482 0.66099 0.20603 0.0
C8464 C 0.12061 0.66054 0.19993 0.0
C8465 C 0.11868 0.66662 0.19622 0.0
C8466 C 0.1232 0.6427 0.21399 0.0
C8467 C 0.13016 0.64128 0.21614 0.0
C8468 C 0.12144 0.6492 0.21099 0.0
C8469 C 0.12661 0.65444 0.21001 0.0
C8470 C 0.13351 0.65318 0.2125 0.0
C8471 C 0.13527 0.64665 0.21555 0.0
H8472 H 0.09799 0.36496 0.94324 0.0
H8473 H 0.0857 0.38144 0.95323 0.0
H8474 H 0.10804 0.36796 0.95057 0.0
H8475 H 0.09571 0.38419 0.96093 0.0
H8476 H 0.11844 0.39254 0.96627 0.0
H8477 H 0.10724 0.38952 0.96052 0.0
H8478 H 0.11253 0.36731 0.96213 0.0
H8479 H 0.1238 0.3704 0.96756 0.0
C8480 C 0.09742 0.36923 0.94702 0.0
C8481 C 0.09105 0.37302 0.94756 0.0
C8482 C 0.10317 0.37087 0.95133 0.0
C8483 C 0.1027 0.3763 0.9564 0.0
C8484 C 0.09629 0.38002 0.95705 0.0
C8485 C 0.09052 0.37839 0.95268 0.0
C8486 C 0.11712 0.38702 0.96549 0.0
C8487 C 0.12197 0.3817 0.96728 0.0
C8488 C 0.1107 0.38527 0.96221 0.0
C8489 C 0.10902 0.37816 0.96074 0.0
C8490 C 0.11372 0.37284 0.96299 0.0
C8491 C 0.12015 0.3746 0.96615 0.0
H8492 H 0.40112 0.34734 0.69589 0.0
H8493 H 0.38249 0.33635 0.70322 0.0
H8494 H 0.39809 0.35743 0.70316 0.0
H8495 H 0.37966 0.34636 0.71091 0.0
H8496 H 0.37254 0.36949 0.71599 0.0
H8497 H 0.37541 0.35824 0.71027 0.0
H8498 H 0.39756 0.36171 0.71475 0.0
H8499 H 0.39467 0.37306 0.72013 0.0
C8500 C 0.39638 0.34706 0.69908 0.0
C8501 C 0.392 0.34105 0.69888 0.0
C8502 C 0.3947 0.35282 0.70337 0.0
C8503 C 0.38864 0.35273 0.70767 0.0
C8504 C 0.38433 0.34665 0.70761 0.0
C8505 C 0.386 0.34088 0.70326 0.0
C8506 C 0.37799 0.36775 0.71583 0.0
C8507 C 0.38339 0.37213 0.71842 0.0
C8508 C 0.37965 0.36131 0.71257 0.0
C8509 C 0.38674 0.35909 0.71193 0.0
C8510 C 0.39207 0.36332 0.71495 0.0
C8511 C 0.39042 0.36979 0.7181 0.0
H8512 H 0.06901 0.42475 0.38371 0.0
H8513 H 0.05857 0.42262 0.36351 0.0
H8514 H 0.06239 0.41462 0.38819 0.0
H8515 H 0.05212 0.41236 0.36792 0.0
H8516 H 0.03821 0.39644 0.37898 0.0
H8517 H 0.04312 0.40811 0.37628 0.0
H8518 H 0.06293 0.40193 0.38583 0.0
H8519 H 0.05798 0.39038 0.38865 0.0
C8520 C 0.06523 0.42219 0.38025 0.0
C8521 C 0.06436 0.42447 0.37323 0.0
C8522 C 0.06148 0.41634 0.3828 0.0
C8523 C 0.05676 0.41265 0.3784 0.0
C8524 C 0.05567 0.41512 0.37147 0.0
C8525 C 0.05943 0.42095 0.36892 0.0
C8526 C 0.04356 0.39765 0.38064 0.0
C8527 C 0.04773 0.39249 0.38398 0.0
C8528 C 0.04639 0.4043 0.37903 0.0
C8529 C 0.05343 0.40594 0.3808 0.0
C8530 C 0.05748 0.40088 0.38445 0.0
C8531 C 0.05466 0.39423 0.38601 0.0
H8532 H 0.34034 0.32062 0.13399 0.0
H8533 H 0.34107 0.30857 0.11461 0.0
H8534 H 0.35079 0.31435 0.13827 0.0
H8535 H 0.35161 0.30244 0.1188 0.0
H8536 H 0.36817 0.28928 0.12993 0.0
H8537 H 0.35639 0.2941 0.12757 0.0
H8538 H 0.36331 0.31458 0.13498 0.0
H8539 H 0.37499 0.30973 0.13747 0.0
C8540 C 0.34267 0.31656 0.13068 0.0
C8541 C 0.3399 0.31513 0.12393 0.0
C8542 C 0.34869 0.31301 0.13311 0.0
C8543 C 0.35207 0.30792 0.12886 0.0
C8544 C 0.34912 0.30628 0.12223 0.0
C8545 C 0.34312 0.30985 0.1198 0.0
C8546 C 0.36712 0.29477 0.13119 0.0
C8547 C 0.37251 0.29914 0.13384 0.0
C8548 C 0.3604 0.29755 0.12978 0.0
C8549 C 0.35892 0.30473 0.13105 0.0
C8550 C 0.36424 0.30901 0.134 0.0
C8551 C 0.37095 0.30625 0.13536 0.0
H8552 H 0.44528 0.58909 0.88382 0.0
H8553 H 0.45525 0.59199 0.86349 0.0
H8554 H 0.45174 0.59926 0.88844 0.0
H8555 H 0.46154 0.60229 0.86805 0.0
H8556 H 0.47525 0.61832 0.8793 0.0
H8557 H 0.4706 0.60659 0.87636 0.0
H8558 H 0.45082 0.61198 0.88642 0.0
H8559 H 0.45551 0.62358 0.88946 0.0
C8560 C 0.44893 0.59183 0.88036 0.0
C8561 C 0.44971 0.58976 0.87327 0.0
C8562 C 0.45258 0.5977 0.88299 0.0
C8563 C 0.45712 0.60162 0.8786 0.0
C8564 C 0.45813 0.59936 0.87159 0.0
C8565 C 0.45446 0.59351 0.86895 0.0
C8566 C 0.46997 0.61692 0.88101 0.0
C8567 C 0.46572 0.62188 0.88456 0.0
C8568 C 0.46728 0.61024 0.87927 0.0
C8569 C 0.46032 0.60836 0.88111 0.0
C8570 C 0.45622 0.61321 0.88497 0.0
C8571 C 0.45888 0.61989 0.88666 0.0
H8572 H 0.17788 0.70692 0.62663 0.0
H8573 H 0.16449 0.68971 0.61983 0.0
H8574 H 0.16749 0.71312 0.6313 0.0
H8575 H 0.15418 0.69594 0.62427 0.0
H8576 H 0.13771 0.70496 0.63838 0.0
H8577 H 0.14894 0.69935 0.63549 0.0
H8578 H 0.15658 0.71909 0.6269 0.0
H8579 H 0.14531 0.72474 0.6299 0.0
C8580 C 0.17273 0.70446 0.62615 0.0
C8581 C 0.17201 0.69783 0.62283 0.0
C8582 C 0.16679 0.70803 0.62877 0.0
C8583 C 0.16001 0.70501 0.62819 0.0
C8584 C 0.15932 0.69837 0.62491 0.0
C8585 C 0.16523 0.69484 0.62227 0.0
C8586 C 0.14182 0.70812 0.63594 0.0
C8587 C 0.14061 0.71526 0.63427 0.0
C8588 C 0.14824 0.7049 0.63426 0.0
C8589 C 0.15361 0.70874 0.63084 0.0
C8590 C 0.15256 0.716 0.62955 0.0
C8591 C 0.14611 0.71923 0.63126 0.0
H8592 H 0.05702 0.58972 0.1482 0.0
H8593 H 0.06979 0.58994 0.12929 0.0
H8594 H 0.05074 0.60023 0.14409 0.0
H8595 H 0.06339 0.60035 0.1251 0.0
H8596 H 0.05827 0.62445 0.12675 0.0
H8597 H 0.06326 0.61277 0.12896 0.0
H8598 H 0.04262 0.6051 0.13503 0.0
H8599 H 0.03764 0.61688 0.13291 0.0
C8600 C 0.05843 0.59197 0.14313 0.0
C8601 C 0.06395 0.58903 0.1391 0.0
C8602 C 0.05478 0.59794 0.14074 0.0
C8603 C 0.05659 0.60114 0.13428 0.0
C8604 C 0.06192 0.59804 0.13012 0.0
C8605 C 0.06555 0.59204 0.1325 0.0
C8606 C 0.05479 0.62025 0.12849 0.0
C8607 C 0.04758 0.62158 0.12971 0.0
C8608 C 0.05763 0.61353 0.1297 0.0
C8609 C 0.05334 0.60801 0.1322 0.0
C8610 C 0.04607 0.60927 0.13316 0.0
C8611 C 0.04321 0.61599 0.1319 0.0
H8612 H 0.1652 0.32558 0.89128 0.0
H8613 H 0.17865 0.30762 0.88697 0.0
H8614 H 0.15506 0.31911 0.88678 0.0
H8615 H 0.16845 0.30115 0.88224 0.0
H8616 H 0.14611 0.28996 0.88397 0.0
H8617 H 0.15736 0.29577 0.88666 0.0
H8618 H 0.15017 0.31458 0.87585 0.0
H8619 H 0.13895 0.30881 0.87327 0.0
C8620 C 0.16599 0.32024 0.88935 0.0
C8621 C 0.17272 0.3171 0.88954 0.0
C8622 C 0.16019 0.31656 0.88668 0.0
C8623 C 0.16094 0.30962 0.88411 0.0
C8624 C 0.16769 0.30648 0.88422 0.0
C8625 C 0.17353 0.3102 0.88687 0.0
C8626 C 0.14702 0.29527 0.88204 0.0
C8627 C 0.14163 0.29897 0.87849 0.0
C8628 C 0.15345 0.29861 0.88358 0.0
C8629 C 0.15461 0.30569 0.88158 0.0
C8630 C 0.14939 0.30919 0.87762 0.0
C8631 C 0.14297 0.30588 0.87611 0.0
H8632 H 0.44285 0.42398 0.62968 0.0
H8633 H 0.4546 0.42284 0.64923 0.0
H8634 H 0.44929 0.41371 0.62523 0.0
H8635 H 0.46089 0.41246 0.64486 0.0
H8636 H 0.47436 0.39632 0.63334 0.0
H8637 H 0.4694 0.40798 0.63604 0.0
H8638 H 0.44907 0.40111 0.62821 0.0
H8639 H 0.45405 0.38956 0.62539 0.0
C8640 C 0.44688 0.42161 0.63299 0.0
C8641 C 0.44818 0.4242 0.63983 0.0
C8642 C 0.45052 0.41568 0.63046 0.0
C8643 C 0.45557 0.41224 0.63471 0.0
C8644 C 0.45707 0.41501 0.64143 0.0
C8645 C 0.45341 0.42092 0.64397 0.0
C8646 C 0.46887 0.39737 0.63207 0.0
C8647 C 0.46458 0.39202 0.6292 0.0
C8648 C 0.46602 0.40402 0.63367 0.0
C8649 C 0.45883 0.40547 0.63237 0.0
C8650 C 0.45464 0.4002 0.62922 0.0
C8651 C 0.45747 0.39356 0.62767 0.0
H8652 H 0.33555 0.70593 0.38617 0.0
H8653 H 0.34841 0.69091 0.39762 0.0
H8654 H 0.34624 0.71242 0.38274 0.0
H8655 H 0.35899 0.69733 0.39424 0.0
H8656 H 0.37573 0.71394 0.39403 0.0
H8657 H 0.36441 0.70865 0.39709 0.0
H8658 H 0.35729 0.71132 0.37556 0.0
H8659 H 0.36869 0.71671 0.37251 0.0
C8660 C 0.34065 0.70399 0.38791 0.0
C8661 C 0.34112 0.69797 0.39226 0.0
C8662 C 0.34676 0.7077 0.38595 0.0
C8663 C 0.35346 0.70546 0.38831 0.0
C8664 C 0.35391 0.69932 0.39249 0.0
C8665 C 0.34783 0.69564 0.39443 0.0
C8666 C 0.37174 0.71343 0.38996 0.0
C8667 C 0.37313 0.71563 0.38301 0.0
C8668 C 0.36526 0.71038 0.3917 0.0
C8669 C 0.36 0.70944 0.38654 0.0
C8670 C 0.36124 0.71198 0.37966 0.0
C8671 C 0.36775 0.71506 0.37791 0.0
H8672 H 0.37174 0.07618 0.41543 0.0
H8673 H 0.37881 0.0588 0.42846 0.0
H8674 H 0.37609 0.07015 0.40498 0.0
H8675 H 0.3834 0.05279 0.41792 0.0
H8676 H 0.38136 0.04142 0.39571 0.0
H8677 H 0.37877 0.04696 0.40712 0.0
H8678 H 0.38707 0.06678 0.39935 0.0
H8679 H 0.38955 0.06127 0.38797 0.0
C8680 C 0.37424 0.07106 0.41606 0.0
C8681 C 0.37487 0.06794 0.42277 0.0
C8682 C 0.37682 0.06764 0.41007 0.0
C8683 C 0.38014 0.06101 0.41061 0.0
C8684 C 0.38084 0.05789 0.41733 0.0
C8685 C 0.37827 0.06134 0.42336 0.0
C8686 C 0.38275 0.04692 0.39651 0.0
C8687 C 0.38556 0.05094 0.39093 0.0
C8688 C 0.38128 0.05009 0.40304 0.0
C8689 C 0.3826 0.05734 0.4041 0.0
C8690 C 0.38582 0.06123 0.39865 0.0
C8691 C 0.38726 0.05807 0.39214 0.0
H8692 H 0.87715 0.45793 0.58476 0.0
H8693 H 0.86982 0.44063 0.59775 0.0
H8694 H 0.88185 0.46383 0.59532 0.0
H8695 H 0.87432 0.44656 0.60822 0.0
H8696 H 0.88856 0.45494 0.62494 0.0
H8697 H 0.88562 0.44962 0.61359 0.0
H8698 H 0.87737 0.46965 0.60632 0.0
H8699 H 0.88038 0.47501 0.61773 0.0
C8700 C 0.87656 0.45539 0.58986 0.0
C8701 C 0.87308 0.44884 0.59043 0.0
C8702 C 0.8792 0.45878 0.5959 0.0
C8703 C 0.87849 0.45564 0.6026 0.0
C8704 C 0.87505 0.44908 0.60313 0.0
C8705 C 0.87239 0.44572 0.59714 0.0
C8706 C 0.88617 0.45822 0.6209 0.0
C8707 C 0.88461 0.46536 0.62225 0.0
C8708 C 0.88448 0.45518 0.6144 0.0
C8709 C 0.88115 0.45918 0.6091 0.0
C8710 C 0.87995 0.46643 0.6103 0.0
C8711 C 0.88167 0.4695 0.61682 0.0
H8712 H 0.30756 0.1153 0.34104 0.0
H8713 H 0.3186 0.13524 0.33957 0.0
H8714 H 0.3014 0.11949 0.35156 0.0
H8715 H 0.31228 0.13951 0.34997 0.0
H8716 H 0.30823 0.13916 0.37425 0.0
H8717 H 0.31294 0.13659 0.36254 0.0
H8718 H 0.29273 0.12798 0.35628 0.0
H8719 H 0.28806 0.13042 0.3681 0.0
C8720 C 0.30861 0.12061 0.34292 0.0
C8721 C 0.31362 0.12491 0.3395 0.0
C8722 C 0.30502 0.12304 0.3489 0.0
C8723 C 0.30637 0.12983 0.35163 0.0
C8724 C 0.31117 0.13423 0.34805 0.0
C8725 C 0.31474 0.13181 0.34205 0.0
C8726 C 0.30478 0.13677 0.37035 0.0
C8727 C 0.2978 0.13494 0.3721 0.0
C8728 C 0.30746 0.13536 0.36362 0.0
C8729 C 0.30322 0.13205 0.35848 0.0
C8730 C 0.29615 0.13047 0.36015 0.0
C8731 C 0.29345 0.13193 0.36688 0.0
H8732 H 0.64937 0.55802 0.09007 0.0
H8733 H 0.63026 0.57053 0.09035 0.0
H8734 H 0.64535 0.55161 0.10052 0.0
H8735 H 0.62616 0.564 0.1007 0.0
H8736 H 0.62788 0.55877 0.12473 0.0
H8737 H 0.63009 0.56387 0.11312 0.0
H8738 H 0.63631 0.54332 0.10529 0.0
H8739 H 0.63417 0.53823 0.11701 0.0
C8740 C 0.64428 0.55934 0.09232 0.0
C8741 C 0.64016 0.56482 0.08941 0.0
C8742 C 0.64193 0.55562 0.09826 0.0
C8743 C 0.63544 0.55732 0.10146 0.0
C8744 C 0.63121 0.56261 0.09839 0.0
C8745 C 0.63353 0.56631 0.09242 0.0
C8746 C 0.62965 0.55533 0.12051 0.0
C8747 C 0.6309 0.54812 0.12178 0.0
C8748 C 0.63086 0.55824 0.11384 0.0
C8749 C 0.6334 0.554 0.10828 0.0
C8750 C 0.63442 0.54672 0.10949 0.0
C8751 C 0.63314 0.5438 0.11617 0.0
H8752 H 0.6938 0.39999 0.34679 0.0
H8753 H 0.70638 0.38609 0.33372 0.0
H8754 H 0.70073 0.39664 0.35705 0.0
H8755 H 0.71333 0.38265 0.34412 0.0
H8756 H 0.71762 0.3732 0.36703 0.0
H8757 H 0.71203 0.37628 0.35573 0.0
H8758 H 0.71282 0.3984 0.36142 0.0
H8759 H 0.71832 0.39533 0.37265 0.0
C8760 C 0.69811 0.39627 0.34608 0.0
C8761 C 0.69959 0.39339 0.3394 0.0
C8762 C 0.70208 0.39435 0.35198 0.0
C8763 C 0.70765 0.38946 0.35138 0.0
C8764 C 0.70906 0.38643 0.34474 0.0
C8765 C 0.70508 0.38839 0.3388 0.0
C8766 C 0.71671 0.37872 0.36578 0.0
C8767 C 0.71829 0.38402 0.37076 0.0
C8768 C 0.71352 0.38048 0.35933 0.0
C8769 C 0.71186 0.38757 0.35775 0.0
C8770 C 0.71386 0.39287 0.36256 0.0
C8771 C 0.71703 0.39112 0.36898 0.0
H8772 H 0.14962 0.95598 0.92287 0.0
H8773 H 0.12945 0.94553 0.9252 0.0
H8774 H 0.14519 0.96219 0.91247 0.0
H8775 H 0.12495 0.95191 0.91492 0.0
H8776 H 0.12449 0.95569 0.89061 0.0
H8777 H 0.12736 0.95103 0.90227 0.0
H8778 H 0.1368 0.97105 0.90795 0.0
H8779 H 0.13406 0.97566 0.89617 0.0
C8780 C 0.14421 0.95508 0.92121 0.0
C8781 C 0.13991 0.95021 0.92482 0.0
C8782 C 0.14165 0.9587 0.91529 0.0
C8783 C 0.13473 0.95752 0.91284 0.0
C8784 C 0.13033 0.95287 0.91663 0.0
C8785 C 0.13289 0.94927 0.92256 0.0
C8786 C 0.12713 0.95911 0.89437 0.0
C8787 C 0.12911 0.96602 0.89246 0.0
C8788 C 0.12871 0.95647 0.90108 0.0
C8789 C 0.13234 0.96066 0.90604 0.0
C8790 C 0.13407 0.96767 0.90422 0.0
C8791 C 0.13245 0.97033 0.89751 0.0
H8792 H 0.31907 0.90101 0.16638 0.0
H8793 H 0.30699 0.88625 0.17894 0.0
H8794 H 0.31225 0.8978 0.15601 0.0
H8795 H 0.30014 0.88296 0.16843 0.0
H8796 H 0.29633 0.87408 0.1452 0.0
H8797 H 0.30166 0.87701 0.15666 0.0
H8798 H 0.3002 0.89925 0.15159 0.0
H8799 H 0.29498 0.89632 0.14019 0.0
C8800 C 0.31488 0.89714 0.16696 0.0
C8801 C 0.31351 0.89397 0.17353 0.0
C8802 C 0.31097 0.89529 0.16099 0.0
C8803 C 0.30558 0.8902 0.16141 0.0
C8804 C 0.30427 0.8869 0.16794 0.0
C8805 C 0.30819 0.88877 0.17395 0.0
C8806 C 0.29703 0.87959 0.14662 0.0
C8807 C 0.29535 0.88498 0.14178 0.0
C8808 C 0.30007 0.88127 0.15317 0.0
C8809 C 0.30147 0.88836 0.15497 0.0
C8810 C 0.29936 0.89373 0.15029 0.0
C8811 C 0.29635 0.89206 0.14377 0.0
H8812 H 0.2076 0.1266 0.67758 0.0
H8813 H 0.18916 0.12279 0.66466 0.0
H8814 H 0.21373 0.13159 0.66732 0.0
H8815 H 0.1953 0.12755 0.65444 0.0
H8816 H 0.20503 0.14163 0.63848 0.0
H8817 H 0.19968 0.13866 0.64981 0.0
H8818 H 0.21868 0.12751 0.65588 0.0
H8819 H 0.22408 0.13059 0.64452 0.0
C8820 C 0.20485 0.12686 0.67257 0.0
C8821 C 0.19791 0.12427 0.67192 0.0
C8822 C 0.20838 0.12967 0.66668 0.0
C8823 C 0.20499 0.13 0.66007 0.0
C8824 C 0.19803 0.12748 0.65948 0.0
C8825 C 0.19453 0.12466 0.66532 0.0
C8826 C 0.2081 0.13863 0.64228 0.0
C8827 C 0.21494 0.13626 0.6406 0.0
C8828 C 0.20503 0.1369 0.64876 0.0
C8829 C 0.2087 0.13273 0.65369 0.0
C8830 C 0.21572 0.13074 0.6522 0.0
C8831 C 0.21881 0.13251 0.6457 0.0
H8832 H 0.10461 0.18042 0.40034 0.0
H8833 H 0.08637 0.19416 0.39987 0.0
H8834 H 0.111 0.1886 0.3928 0.0
H8835 H 0.09272 0.2023 0.39206 0.0
H8836 H 0.11072 0.21871 0.38679 0.0
H8837 H 0.10267 0.21059 0.3928 0.0
H8838 H 0.11142 0.19314 0.38091 0.0
H8839 H 0.11953 0.20125 0.37502 0.0
C8840 C 0.10195 0.18518 0.3986 0.0
C8841 C 0.09501 0.18667 0.40077 0.0
C8842 C 0.10559 0.18984 0.39418 0.0
C8843 C 0.10236 0.1961 0.39179 0.0
C8844 C 0.09536 0.19754 0.39385 0.0
C8845 C 0.09171 0.19286 0.39827 0.0
C8846 C 0.1108 0.21316 0.38536 0.0
C8847 C 0.1158 0.21059 0.38051 0.0
C8848 C 0.10619 0.2085 0.3888 0.0
C8849 C 0.10648 0.20119 0.38742 0.0
C8850 C 0.11118 0.19871 0.38222 0.0
C8851 C 0.1158 0.20335 0.37883 0.0
H8852 H 0.08083 0.84215 0.64228 0.0
H8853 H 0.06729 0.84536 0.66038 0.0
H8854 H 0.07256 0.8488 0.63493 0.0
H8855 H 0.05916 0.85222 0.65311 0.0
H8856 H 0.04344 0.86098 0.63758 0.0
H8857 H 0.05073 0.85201 0.64338 0.0
H8858 H 0.06943 0.86124 0.63405 0.0
H8859 H 0.06213 0.87002 0.6281 0.0
C8860 C 0.07604 0.84418 0.64467 0.0
C8861 C 0.07475 0.84327 0.65193 0.0
C8862 C 0.07134 0.84806 0.64048 0.0
C8863 C 0.06523 0.85109 0.64344 0.0
C8864 C 0.06378 0.84991 0.65063 0.0
C8865 C 0.06849 0.84605 0.65483 0.0
C8866 C 0.04909 0.86099 0.63665 0.0
C8867 C 0.05221 0.86624 0.63243 0.0
C8868 C 0.05327 0.8559 0.64003 0.0
C8869 C 0.06067 0.85594 0.63923 0.0
C8870 C 0.06375 0.861 0.63474 0.0
C8871 C 0.05957 0.86609 0.63139 0.0
H8872 H 0.4279 0.81993 0.89878 0.0
H8873 H 0.4097 0.8337 0.89978 0.0
H8874 H 0.42133 0.81184 0.89107 0.0
H8875 H 0.4031 0.82558 0.89235 0.0
H8876 H 0.3941 0.81307 0.8747 0.0
H8877 H 0.40238 0.82111 0.88044 0.0
H8878 H 0.41135 0.80357 0.89204 0.0
H8879 H 0.40311 0.79551 0.88618 0.0
C8880 C 0.42252 0.82125 0.89732 0.0
C8881 C 0.4193 0.82743 0.89993 0.0
C8882 C 0.41874 0.81659 0.89296 0.0
C8883 C 0.41169 0.81806 0.89108 0.0
C8884 C 0.40855 0.82432 0.89359 0.0
C8885 C 0.4123 0.82894 0.89795 0.0
C8886 C 0.39791 0.81093 0.87841 0.0
C8887 C 0.39792 0.80368 0.88005 0.0
C8888 C 0.40263 0.81553 0.88172 0.0
C8889 C 0.40745 0.81301 0.88679 0.0
C8890 C 0.40774 0.80569 0.88813 0.0
C8891 C 0.40302 0.80106 0.88478 0.0
H8892 H 0.4365 0.17183 0.14398 0.0
H8893 H 0.44986 0.17227 0.1625 0.0
H8894 H 0.44531 0.16472 0.1378 0.0
H8895 H 0.45867 0.16515 0.15632 0.0
H8896 H 0.46592 0.14364 0.14697 0.0
H8897 H 0.45883 0.15277 0.15265 0.0
H8898 H 0.45738 0.16405 0.13284 0.0
H8899 H 0.4644 0.15478 0.12711 0.0
C8900 C 0.44139 0.17055 0.14668 0.0
C8901 C 0.44244 0.17255 0.15376 0.0
C8902 C 0.44644 0.16647 0.14313 0.0
C8903 C 0.45266 0.1643 0.14659 0.0
C8904 C 0.45387 0.16662 0.15355 0.0
C8905 C 0.44883 0.17069 0.15709 0.0
C8906 C 0.46413 0.14809 0.14384 0.0
C8907 C 0.46565 0.14847 0.13658 0.0
C8908 C 0.46012 0.15337 0.14711 0.0
C8909 C 0.45753 0.15914 0.1432 0.0
C8910 C 0.45926 0.15964 0.13598 0.0
C8911 C 0.46332 0.15437 0.13271 0.0
H8912 H 0.10498 0.82971 0.10569 0.0
H8913 H 0.08586 0.8196 0.11297 0.0
H8914 H 0.11202 0.82119 0.11219 0.0
H8915 H 0.09298 0.81094 0.11952 0.0
H8916 H 0.10942 0.80202 0.13611 0.0
H8917 H 0.10123 0.80973 0.12962 0.0
H8918 H 0.11498 0.80882 0.11141 0.0
H8919 H 0.12315 0.80131 0.11792 0.0
C8920 C 0.10228 0.82561 0.10862 0.0
C8921 C 0.09486 0.82527 0.10872 0.0
C8922 C 0.10632 0.8207 0.11235 0.0
C8923 C 0.10307 0.8153 0.11629 0.0
C8924 C 0.09564 0.81505 0.11655 0.0
C8925 C 0.09157 0.81999 0.11281 0.0
C8926 C 0.11061 0.80341 0.13069 0.0
C8927 C 0.11696 0.80118 0.12755 0.0
C8928 C 0.10593 0.80781 0.12697 0.0
C8929 C 0.10752 0.81 0.12004 0.0
C8930 C 0.11369 0.8074 0.1168 0.0
C8931 C 0.11835 0.80307 0.12051 0.0
H8932 H 0.43548 0.84147 0.37003 0.0
H8933 H 0.4495 0.84036 0.35204 0.0
H8934 H 0.44423 0.84848 0.37641 0.0
H8935 H 0.45825 0.84737 0.35843 0.0
H8936 H 0.46529 0.86908 0.36745 0.0
H8937 H 0.45835 0.85986 0.36177 0.0
H8938 H 0.4562 0.84909 0.3818 0.0
H8939 H 0.4631 0.85847 0.38752 0.0
C8940 C 0.4405 0.84258 0.3675 0.0
C8941 C 0.44176 0.84044 0.36049 0.0
C8942 C 0.44552 0.84659 0.37116 0.0
C8943 C 0.4519 0.84855 0.3679 0.0
C8944 C 0.45332 0.84606 0.36104 0.0
C8945 C 0.44831 0.84205 0.35738 0.0
C8946 C 0.46338 0.86471 0.37063 0.0
C8947 C 0.46467 0.86452 0.37793 0.0
C8948 C 0.45946 0.85939 0.36736 0.0
C8949 C 0.45671 0.85374 0.37133 0.0
C8950 C 0.4582 0.85341 0.37861 0.0
C8951 C 0.46219 0.85874 0.38188 0.0
H8952 H 0.41937 0.19848 0.60098 0.0
H8953 H 0.42174 0.18574 0.61979 0.0
H8954 H 0.41202 0.20682 0.60754 0.0
H8955 H 0.41443 0.19412 0.62636 0.0
H8956 H 0.40411 0.21327 0.63715 0.0
H8957 H 0.41327 0.20651 0.63091 0.0
H8958 H 0.39997 0.20579 0.61236 0.0
H8959 H 0.39094 0.21258 0.61853 0.0
C8960 C 0.41836 0.19748 0.60653 0.0
C8961 C 0.42106 0.19139 0.60983 0.0
C8962 C 0.41416 0.20226 0.61028 0.0
C8963 C 0.41258 0.20108 0.61744 0.0
C8964 C 0.4156 0.19521 0.62086 0.0
C8965 C 0.41979 0.1904 0.61709 0.0
C8966 C 0.40321 0.21173 0.63171 0.0
C8967 C 0.3968 0.2134 0.62834 0.0
C8968 C 0.40842 0.20783 0.62816 0.0
C8969 C 0.40734 0.20562 0.62114 0.0
C8970 C 0.401 0.20748 0.61773 0.0
C8971 C 0.3958 0.2113 0.62129 0.0
H8972 H 0.06797 0.16857 0.85213 0.0
H8973 H 0.08071 0.17378 0.87036 0.0
H8974 H 0.05985 0.162 0.85967 0.0
H8975 H 0.07244 0.16741 0.87794 0.0
H8976 H 0.06268 0.14628 0.88599 0.0
H8977 H 0.0698 0.15493 0.87966 0.0
H8978 H 0.05106 0.16267 0.86912 0.0
H8979 H 0.04395 0.15384 0.87533 0.0
C8980 C 0.06899 0.16838 0.85776 0.0
C8981 C 0.07503 0.17163 0.86063 0.0
C8982 C 0.06429 0.16469 0.8621 0.0
C8983 C 0.06551 0.16415 0.86941 0.0
C8984 C 0.07139 0.16766 0.87232 0.0
C8985 C 0.07609 0.17136 0.86798 0.0
C8986 C 0.06007 0.14987 0.88237 0.0
C8987 C 0.05277 0.14934 0.88111 0.0
C8988 C 0.06414 0.15488 0.87879 0.0
C8989 C 0.06101 0.15948 0.87385 0.0
C8990 C 0.05365 0.15916 0.87283 0.0
C8991 C 0.04956 0.15415 0.87644 0.0
H8992 H 0.39042 0.09046 0.18362 0.0
H8993 H 0.40879 0.09458 0.19655 0.0
H8994 H 0.38308 0.09702 0.19196 0.0
H8995 H 0.40152 0.10136 0.20473 0.0
H8996 H 0.38638 0.11047 0.22051 0.0
H8997 H 0.39208 0.10127 0.21343 0.0
H8998 H 0.38191 0.10948 0.19469 0.0
H8999 H 0.37605 0.11848 0.20179 0.0
C9000 C 0.39288 0.09267 0.1883 0.0
C9001 C 0.40021 0.09206 0.18938 0.0
C9002 C 0.38868 0.09649 0.19304 0.0
C9003 C 0.39172 0.09978 0.19898 0.0
C9004 C 0.39899 0.09886 0.20025 0.0
C9005 C 0.40318 0.09505 0.19551 0.0
C9006 C 0.38524 0.11019 0.21491 0.0
C9007 C 0.38082 0.11523 0.21169 0.0
C9008 C 0.38855 0.10497 0.21084 0.0
C9009 C 0.3875 0.10467 0.20348 0.0
C9010 C 0.3828 0.1095 0.20035 0.0
C9011 C 0.3795 0.11472 0.2044 0.0
H9012 H 0.17004 0.14258 0.4338 0.0
H9013 H 0.1696 0.16164 0.44639 0.0
H9014 H 0.16294 0.13652 0.44272 0.0
H9015 H 0.16261 0.15554 0.45536 0.0
H9016 H 0.14144 0.14543 0.46278 0.0
H9017 H 0.15021 0.15122 0.45533 0.0
H9018 H 0.1628 0.13215 0.45529 0.0
H9019 H 0.15394 0.12631 0.46275 0.0
C9020 C 0.16849 0.14545 0.43851 0.0
C9021 C 0.17033 0.1526 0.43937 0.0
C9022 C 0.16448 0.14195 0.44364 0.0
C9023 C 0.16219 0.14556 0.44972 0.0
C9024 C 0.16425 0.15264 0.4507 0.0
C9025 C 0.1683 0.15611 0.44559 0.0
C9026 C 0.1461 0.14249 0.46121 0.0
C9027 C 0.14699 0.13541 0.46329 0.0
C9028 C 0.15116 0.14582 0.457 0.0
C9029 C 0.15719 0.14214 0.45472 0.0
C9030 C 0.15818 0.1351 0.45693 0.0
C9031 C 0.15314 0.13178 0.46123 0.0
H9032 H 0.1139 0.92882 0.69487 0.0
H9033 H 0.11413 0.91071 0.68095 0.0
H9034 H 0.12173 0.92255 0.70309 0.0
H9035 H 0.12172 0.90442 0.68918 0.0
H9036 H 0.13951 0.89619 0.70193 0.0
H9037 H 0.1336 0.90437 0.69389 0.0
H9038 H 0.12104 0.91235 0.71122 0.0
H9039 H 0.12706 0.90421 0.71928 0.0
C9040 C 0.11566 0.92353 0.69354 0.0
C9041 C 0.11336 0.92024 0.68728 0.0
C9042 C 0.1201 0.91992 0.69827 0.0
C9043 C 0.12237 0.91299 0.69678 0.0
C9044 C 0.12016 0.90978 0.69045 0.0
C9045 C 0.11573 0.91336 0.68577 0.0
C9046 C 0.13556 0.89977 0.70403 0.0
C9047 C 0.13368 0.89951 0.7112 0.0
C9048 C 0.13216 0.90443 0.69943 0.0
C9049 C 0.12676 0.90892 0.70189 0.0
C9050 C 0.1252 0.90898 0.70916 0.0
C9051 C 0.12864 0.90433 0.71378 0.0
H9052 H 0.34201 0.86961 0.93517 0.0
H9053 H 0.34501 0.85056 0.94742 0.0
H9054 H 0.34898 0.87624 0.94379 0.0
H9055 H 0.35199 0.85718 0.956 0.0
H9056 H 0.37262 0.86881 0.96218 0.0
H9057 H 0.36382 0.86244 0.95528 0.0
H9058 H 0.34993 0.88057 0.95623 0.0
H9059 H 0.35886 0.88701 0.96311 0.0
C9060 C 0.34403 0.86687 0.93978 0.0
C9061 C 0.34304 0.85953 0.94056 0.0
C9062 C 0.34802 0.87067 0.94472 0.0
C9063 C 0.3511 0.86722 0.95053 0.0
C9064 C 0.34979 0.85996 0.95151 0.0
C9065 C 0.34581 0.85617 0.94658 0.0
C9066 C 0.36767 0.87142 0.96095 0.0
C9067 C 0.36644 0.87842 0.96313 0.0
C9068 C 0.3626 0.86776 0.95705 0.0
C9069 C 0.35617 0.871 0.95521 0.0
C9070 C 0.35485 0.87795 0.95753 0.0
C9071 C 0.35993 0.88161 0.9615 0.0
H9072 H 0.39143 0.92343 0.32816 0.0
H9073 H 0.41097 0.92165 0.31648 0.0
H9074 H 0.38549 0.91611 0.31933 0.0
H9075 H 0.40499 0.91449 0.30758 0.0
H9076 H 0.39463 0.8931 0.30115 0.0
H9077 H 0.40038 0.90226 0.30814 0.0
H9078 H 0.3816 0.9152 0.30668 0.0
H9079 H 0.3758 0.90592 0.29969 0.0
C9080 C 0.39443 0.92156 0.32366 0.0
C9081 C 0.40168 0.92307 0.32306 0.0
C9082 C 0.39101 0.91743 0.31857 0.0
C9083 C 0.39479 0.91468 0.31279 0.0
C9084 C 0.40196 0.91647 0.31202 0.0
C9085 C 0.40537 0.92063 0.31708 0.0
C9086 C 0.39176 0.89793 0.30228 0.0
C9087 C 0.38476 0.89879 0.29994 0.0
C9088 C 0.39507 0.9032 0.30623 0.0
C9089 C 0.39144 0.90946 0.30797 0.0
C9090 C 0.3845 0.91042 0.30546 0.0
C9091 C 0.38121 0.90514 0.30143 0.0
H9092 H 0.33635 0.15012 0.56911 0.0
H9093 H 0.35427 0.15032 0.58327 0.0
H9094 H 0.34286 0.14235 0.56104 0.0
H9095 H 0.36081 0.1428 0.57517 0.0
H9096 H 0.36947 0.12502 0.56264 0.0
H9097 H 0.36116 0.1309 0.57055 0.0
H9098 H 0.35309 0.14313 0.55302 0.0
H9099 H 0.36136 0.13713 0.54508 0.0
C9100 C 0.34165 0.14847 0.57052 0.0
C9101 C 0.34481 0.15087 0.57681 0.0
C9102 C 0.34539 0.14407 0.56587 0.0
C9103 C 0.35234 0.14194 0.56746 0.0
C9104 C 0.35543 0.14425 0.57382 0.0
C9105 C 0.35171 0.14865 0.57842 0.0
C9106 C 0.36585 0.1289 0.56047 0.0
C9107 C 0.36611 0.13068 0.55327 0.0
C9108 C 0.36111 0.13228 0.56499 0.0
C9109 C 0.35655 0.13758 0.56244 0.0
C9110 C 0.35651 0.13906 0.55515 0.0
C9111 C 0.36124 0.13563 0.5506 0.0
H9112 H 0.10065 0.09461 0.81515 0.0
H9113 H 0.11976 0.09166 0.82732 0.0
H9114 H 0.10719 0.10172 0.80661 0.0
H9115 H 0.1263 0.09874 0.81875 0.0
H9116 H 0.13694 0.1086 0.79939 0.0
H9117 H 0.13055 0.09969 0.80631 0.0
H9118 H 0.11244 0.11359 0.80734 0.0
H9119 H 0.11875 0.12238 0.80037 0.0
C9120 C 0.10626 0.09544 0.81598 0.0
C9121 C 0.10966 0.09264 0.82196 0.0
C9122 C 0.11 0.0995 0.81108 0.0
C9123 C 0.11725 0.10085 0.81204 0.0
C9124 C 0.12074 0.09775 0.81783 0.0
C9125 C 0.11699 0.09369 0.82274 0.0
C9126 C 0.13155 0.10969 0.80103 0.0
C9127 C 0.12835 0.1162 0.79939 0.0
C9128 C 0.12792 0.10462 0.80502 0.0
C9129 C 0.12099 0.10594 0.80738 0.0
C9130 C 0.11774 0.11237 0.80555 0.0
C9131 C 0.12138 0.11744 0.80162 0.0
H9132 H 0.17413 0.87164 0.07952 0.0
H9133 H 0.16935 0.85343 0.06658 0.0
H9134 H 0.16757 0.87918 0.07136 0.0
H9135 H 0.16258 0.86091 0.05857 0.0
H9136 H 0.15401 0.87655 0.04285 0.0
H9137 H 0.16295 0.87042 0.04989 0.0
H9138 H 0.15511 0.88072 0.06871 0.0
H9139 H 0.14636 0.887 0.06165 0.0
C9140 C 0.17177 0.86926 0.07488 0.0
C9141 C 0.17222 0.86192 0.07374 0.0
C9142 C 0.16795 0.87357 0.07024 0.0
C9143 C 0.1645 0.87064 0.06434 0.0
C9144 C 0.16521 0.86335 0.06303 0.0
C9145 C 0.16902 0.85905 0.06767 0.0
C9146 C 0.15431 0.87762 0.04847 0.0
C9147 C 0.14944 0.88221 0.0517 0.0
C9148 C 0.15938 0.87405 0.05251 0.0
C9149 C 0.15971 0.87503 0.05988 0.0
C9150 C 0.15505 0.87988 0.06305 0.0
C9151 C 0.14998 0.88342 0.05901 0.0
H9152 H 0.18454 0.40821 0.10453 0.0
H9153 H 0.19565 0.40232 0.08548 0.0
H9154 H 0.19305 0.40165 0.11155 0.0
H9155 H 0.20428 0.39572 0.09257 0.0
H9156 H 0.21323 0.37861 0.10842 0.0
H9157 H 0.20554 0.38523 0.10032 0.0
H9158 H 0.20528 0.40275 0.115 0.0
H9159 H 0.2128 0.3961 0.12307 0.0
C9160 C 0.18886 0.40557 0.10184 0.0
C9161 C 0.18947 0.40588 0.09445 0.0
C9162 C 0.19375 0.40181 0.10587 0.0
C9163 C 0.19942 0.39825 0.10264 0.0
C9164 C 0.19996 0.3984 0.09522 0.0
C9165 C 0.19503 0.40217 0.09116 0.0
C9166 C 0.2116 0.38391 0.10983 0.0
C9167 C 0.21351 0.38681 0.1164 0.0
C9168 C 0.20721 0.38771 0.10521 0.0
C9169 C 0.20469 0.39447 0.10708 0.0
C9170 C 0.20696 0.39748 0.11348 0.0
C9171 C 0.21129 0.39369 0.11809 0.0
H9172 H 0.68305 0.12139 0.92158 0.0
H9173 H 0.69665 0.1033 0.91835 0.0
H9174 H 0.69125 0.12875 0.91486 0.0
H9175 H 0.70469 0.11058 0.91143 0.0
H9176 H 0.72032 0.12612 0.90258 0.0
H9177 H 0.71309 0.12031 0.91157 0.0
H9178 H 0.69433 0.12965 0.90244 0.0
H9179 H 0.70157 0.13562 0.89364 0.0
C9180 C 0.68784 0.119 0.91952 0.0
C9181 C 0.68916 0.11174 0.92045 0.0
C9182 C 0.6925 0.1232 0.91561 0.0
C9183 C 0.6986 0.12025 0.91255 0.0
C9184 C 0.70008 0.11305 0.91375 0.0
C9185 C 0.69542 0.10885 0.91765 0.0
C9186 C 0.71467 0.12705 0.9026 0.0
C9187 C 0.71151 0.13128 0.89737 0.0
C9188 C 0.71052 0.12367 0.9077 0.0
C9189 C 0.70312 0.12447 0.90769 0.0
C9190 C 0.70001 0.12896 0.90265 0.0
C9191 C 0.70415 0.13232 0.89755 0.0
H9192 H 0.1441 0.43562 0.17125 0.0
H9193 H 0.16295 0.44825 0.16866 0.0
H9194 H 0.13748 0.44405 0.16404 0.0
H9195 H 0.15634 0.45663 0.16142 0.0
H9196 H 0.14507 0.46264 0.14057 0.0
H9197 H 0.15133 0.45573 0.14945 0.0
H9198 H 0.13296 0.45645 0.16299 0.0
H9199 H 0.12663 0.46332 0.15398 0.0
C9200 C 0.14679 0.44027 0.16927 0.0
C9201 C 0.15408 0.44121 0.17045 0.0
C9202 C 0.143 0.4451 0.16513 0.0
C9203 C 0.14641 0.45096 0.16209 0.0
C9204 C 0.1536 0.45209 0.16358 0.0
C9205 C 0.15738 0.44728 0.16772 0.0
C9206 C 0.14237 0.46134 0.14545 0.0
C9207 C 0.13534 0.46347 0.14656 0.0
C9208 C 0.14598 0.45744 0.15057 0.0
C9209 C 0.14265 0.45555 0.15693 0.0
C9210 C 0.13565 0.45779 0.15812 0.0
C9211 C 0.13205 0.46176 0.153 0.0
H9212 H 0.83326 0.90017 0.40973 0.0
H9213 H 0.81916 0.89943 0.42766 0.0
H9214 H 0.82523 0.8927 0.40306 0.0
H9215 H 0.81115 0.89171 0.42101 0.0
H9216 H 0.79517 0.887 0.40236 0.0
H9217 H 0.8031 0.89275 0.4108 0.0
H9218 H 0.82066 0.88079 0.40239 0.0
H9219 H 0.81276 0.87516 0.3939 0.0
C9220 C 0.82845 0.89837 0.41226 0.0
C9221 C 0.82681 0.90045 0.4192 0.0
C9222 C 0.82388 0.894 0.40847 0.0
C9223 C 0.81755 0.89157 0.41151 0.0
C9224 C 0.81596 0.89353 0.4185 0.0
C9225 C 0.82057 0.8979 0.42233 0.0
C9226 C 0.8007 0.8855 0.40243 0.0
C9227 C 0.80337 0.88071 0.39742 0.0
C9228 C 0.80524 0.88878 0.40727 0.0
C9229 C 0.81254 0.88731 0.40719 0.0
C9230 C 0.8151 0.88217 0.40248 0.0
C9231 C 0.81058 0.87892 0.39763 0.0
H9232 H 0.87137 0.08068 0.17173 0.0
H9233 H 0.8535 0.06662 0.16965 0.0
H9234 H 0.8787 0.07232 0.16516 0.0
H9235 H 0.86075 0.05838 0.1629 0.0
H9236 H 0.87625 0.04276 0.15394 0.0
H9237 H 0.87078 0.05018 0.16303 0.0
H9238 H 0.87904 0.06884 0.15275 0.0
H9239 H 0.88462 0.06143 0.14382 0.0
C9240 C 0.86903 0.07576 0.16997 0.0
C9241 C 0.86183 0.07434 0.17115 0.0
C9242 C 0.87322 0.071 0.16615 0.0
C9243 C 0.8703 0.06471 0.16345 0.0
C9244 C 0.86319 0.06314 0.16494 0.0
C9245 C 0.859 0.06791 0.16874 0.0
C9246 C 0.87703 0.04844 0.15374 0.0
C9247 C 0.88081 0.05153 0.14814 0.0
C9248 C 0.87384 0.05269 0.1589 0.0
C9249 C 0.87442 0.0601 0.15859 0.0
C9250 C 0.87853 0.06315 0.15319 0.0
C9251 C 0.88167 0.05891 0.14803 0.0
H9252 H 0.31862 0.61417 0.5862 0.0
H9253 H 0.33295 0.61455 0.60397 0.0
H9254 H 0.31044 0.62188 0.59266 0.0
H9255 H 0.32475 0.62199 0.61047 0.0
H9256 H 0.31178 0.63935 0.61923 0.0
H9257 H 0.31979 0.6337 0.61086 0.0
H9258 H 0.30252 0.62103 0.60289 0.0
H9259 H 0.29448 0.62682 0.6112 0.0
C9260 C 0.32004 0.61594 0.59146 0.0
C9261 C 0.3264 0.61371 0.5946 0.0
C9262 C 0.31534 0.6203 0.59517 0.0
C9263 C 0.31694 0.62256 0.60208 0.0
C9264 C 0.32338 0.62044 0.60513 0.0
C9265 C 0.32805 0.61609 0.60144 0.0
C9266 C 0.30968 0.63544 0.61561 0.0
C9267 C 0.30253 0.63346 0.61591 0.0
C9268 C 0.31427 0.63217 0.61084 0.0
C9269 C 0.31183 0.62682 0.60629 0.0
C9270 C 0.30457 0.62516 0.60629 0.0
C9271 C 0.29996 0.62846 0.61105 0.0
H9272 H 0.16081 0.56647 0.34355 0.0
H9273 H 0.14252 0.57967 0.33986 0.0
H9274 H 0.1536 0.55839 0.35051 0.0
H9275 H 0.13524 0.57143 0.34661 0.0
H9276 H 0.12835 0.56151 0.36799 0.0
H9277 H 0.13428 0.56864 0.35907 0.0
H9278 H 0.14403 0.54981 0.35052 0.0
H9279 H 0.13826 0.54269 0.35963 0.0
C9280 C 0.15523 0.5676 0.34415 0.0
C9281 C 0.15226 0.57376 0.34122 0.0
C9282 C 0.15107 0.56292 0.34807 0.0
C9283 C 0.14384 0.56429 0.34916 0.0
C9284 C 0.14081 0.57028 0.34595 0.0
C9285 C 0.14497 0.57496 0.34202 0.0
C9286 C 0.13173 0.55888 0.36418 0.0
C9287 C 0.1329 0.55155 0.36456 0.0
C9288 C 0.13508 0.56296 0.35901 0.0
C9289 C 0.13966 0.5598 0.35409 0.0
C9290 C 0.14059 0.55242 0.35428 0.0
C9291 C 0.13723 0.54833 0.35945 0.0
H9292 H 0.36925 0.43673 0.84165 0.0
H9293 H 0.35049 0.44959 0.84389 0.0
H9294 H 0.37587 0.44515 0.84887 0.0
H9295 H 0.35709 0.45796 0.85114 0.0
H9296 H 0.3681 0.46369 0.87225 0.0
H9297 H 0.36191 0.45692 0.86323 0.0
H9298 H 0.38046 0.45759 0.84994 0.0
H9299 H 0.38672 0.46435 0.85908 0.0
C9300 C 0.36658 0.44143 0.84355 0.0
C9301 C 0.35932 0.44243 0.84228 0.0
C9302 C 0.37037 0.44625 0.84769 0.0
C9303 C 0.36698 0.45218 0.85064 0.0
C9304 C 0.35982 0.45338 0.84905 0.0
C9305 C 0.35604 0.44857 0.8449 0.0
C9306 C 0.37085 0.46242 0.86739 0.0
C9307 C 0.37791 0.4645 0.86638 0.0
C9308 C 0.36728 0.4586 0.86219 0.0
C9309 C 0.37069 0.45672 0.85586 0.0
C9310 C 0.37771 0.45892 0.85478 0.0
C9311 C 0.38128 0.46282 0.85998 0.0
H9312 H 0.92344 0.82899 0.62099 0.0
H9313 H 0.91971 0.81573 0.60278 0.0
H9314 H 0.91654 0.8209 0.62828 0.0
H9315 H 0.91258 0.8078 0.60999 0.0
H9316 H 0.90304 0.79236 0.6253 0.0
H9317 H 0.91234 0.79928 0.61959 0.0
H9318 H 0.90405 0.8183 0.62918 0.0
H9319 H 0.89495 0.81136 0.63506 0.0
C9320 C 0.92124 0.82429 0.61856 0.0
C9321 C 0.92207 0.82304 0.61128 0.0
C9322 C 0.91722 0.81969 0.62273 0.0
C9323 C 0.91394 0.81373 0.61971 0.0
C9324 C 0.91506 0.8123 0.6125 0.0
C9325 C 0.91908 0.8169 0.60834 0.0
C9326 C 0.90331 0.798 0.62631 0.0
C9327 C 0.89823 0.80133 0.63058 0.0
C9328 C 0.90859 0.80197 0.62298 0.0
C9329 C 0.90891 0.80935 0.62388 0.0
C9330 C 0.90401 0.81262 0.62842 0.0
C9331 C 0.89874 0.80866 0.63173 0.0
H9332 H 0.93498 0.1745 0.37058 0.0
H9333 H 0.94845 0.17065 0.35256 0.0
H9334 H 0.94311 0.16783 0.37806 0.0
H9335 H 0.95643 0.16376 0.35997 0.0
H9336 H 0.97188 0.15476 0.37565 0.0
H9337 H 0.96486 0.16385 0.36969 0.0
H9338 H 0.9459 0.15536 0.37917 0.0
H9339 H 0.95292 0.14647 0.38527 0.0
C9340 C 0.93973 0.17233 0.36824 0.0
C9341 C 0.94104 0.17306 0.36096 0.0
C9342 C 0.94435 0.16844 0.37251 0.0
C9343 C 0.95039 0.1652 0.36961 0.0
C9344 C 0.95186 0.16622 0.36239 0.0
C9345 C 0.94724 0.1701 0.35812 0.0
C9346 C 0.96623 0.15495 0.37657 0.0
C9347 C 0.96294 0.14987 0.38088 0.0
C9348 C 0.9622 0.16011 0.37311 0.0
C9349 C 0.95481 0.16031 0.37391 0.0
C9350 C 0.95158 0.15542 0.37848 0.0
C9351 C 0.9556 0.15026 0.38192 0.0
H9352 H 0.59152 0.18403 0.11898 0.0
H9353 H 0.59464 0.19771 0.10096 0.0
H9354 H 0.59837 0.19214 0.12631 0.0
H9355 H 0.60169 0.20568 0.10822 0.0
H9356 H 0.61038 0.2213 0.12403 0.0
H9357 H 0.60154 0.21404 0.11803 0.0
H9358 H 0.61082 0.19524 0.12715 0.0
H9359 H 0.61948 0.20251 0.13332 0.0
C9360 C 0.59359 0.18881 0.1166 0.0
C9361 C 0.59258 0.19019 0.10937 0.0
C9362 C 0.59758 0.19342 0.12079 0.0
C9363 C 0.60063 0.19953 0.11785 0.0
C9364 C 0.59938 0.20106 0.11068 0.0
C9365 C 0.5954 0.19644 0.1065 0.0
C9366 C 0.61043 0.21563 0.12486 0.0
C9367 C 0.61565 0.21247 0.12912 0.0
C9368 C 0.60542 0.21146 0.12137 0.0
C9369 C 0.60549 0.20405 0.12207 0.0
C9370 C 0.61056 0.20093 0.12654 0.0
C9371 C 0.61557 0.20509 0.13001 0.0
H9372 H 0.56871 0.83632 0.86303 0.0
H9373 H 0.5828 0.85428 0.86254 0.0
H9374 H 0.56064 0.84291 0.87072 0.0
H9375 H 0.5747 0.86091 0.86997 0.0
H9376 H 0.56213 0.86978 0.88764 0.0
H9377 H 0.57009 0.86147 0.88183 0.0
H9378 H 0.55256 0.85308 0.86982 0.0
H9379 H 0.54457 0.86136 0.87575 0.0
C9380 C 0.57011 0.84165 0.8646 0.0
C9381 C 0.57637 0.8448 0.86213 0.0
C9382 C 0.56546 0.84544 0.86895 0.0
C9383 C 0.56702 0.85243 0.87097 0.0
C9384 C 0.57336 0.8555 0.86861 0.0
C9385 C 0.57797 0.85174 0.86426 0.0
C9386 C 0.55997 0.8661 0.88382 0.0
C9387 C 0.55275 0.86627 0.88209 0.0
C9388 C 0.56453 0.86136 0.88048 0.0
C9389 C 0.56199 0.85669 0.87527 0.0
C9390 C 0.55469 0.85657 0.87383 0.0
C9391 C 0.55011 0.86131 0.87722 0.0
H9392 H 0.92326 0.18532 0.89194 0.0
H9393 H 0.9215 0.19967 0.90962 0.0
H9394 H 0.91632 0.19343 0.88469 0.0
H9395 H 0.91435 0.20765 0.90246 0.0
H9396 H 0.90438 0.22272 0.88702 0.0
H9397 H 0.91385 0.21567 0.89232 0.0
H9398 H 0.90385 0.19658 0.88471 0.0
H9399 H 0.89453 0.20363 0.87929 0.0
C9400 C 0.9215 0.19026 0.89425 0.0
C9401 C 0.92288 0.19182 0.90138 0.0
C9402 C 0.91746 0.19488 0.89011 0.0
C9403 C 0.91472 0.20116 0.89301 0.0
C9404 C 0.91642 0.20289 0.90004 0.0
C9405 C 0.92045 0.19827 0.90417 0.0
C9406 C 0.90431 0.21703 0.88635 0.0
C9407 C 0.89869 0.21372 0.88279 0.0
C9408 C 0.90969 0.21299 0.88944 0.0
C9409 C 0.90958 0.20556 0.88898 0.0
C9410 C 0.90414 0.20229 0.88511 0.0
C9411 C 0.89876 0.20632 0.88206 0.0
H9412 H 0.58217 0.15986 0.65092 0.0
H9413 H 0.56877 0.17833 0.64955 0.0
H9414 H 0.57395 0.1533 0.64358 0.0
H9415 H 0.56059 0.17179 0.64192 0.0
H9416 H 0.54391 0.15363 0.63764 0.0
H9417 H 0.55211 0.16206 0.64304 0.0
H9418 H 0.56944 0.1523 0.63179 0.0
H9419 H 0.56126 0.14379 0.62659 0.0
C9420 C 0.57747 0.16254 0.64901 0.0
C9421 C 0.57609 0.1696 0.65088 0.0
C9422 C 0.57279 0.1588 0.64471 0.0
C9423 C 0.56661 0.16202 0.64212 0.0
C9424 C 0.56528 0.16914 0.64386 0.0
C9425 C 0.56999 0.1729 0.64818 0.0
C9426 C 0.54945 0.15343 0.6362 0.0
C9427 C 0.55198 0.14803 0.63177 0.0
C9428 C 0.55415 0.15825 0.63929 0.0
C9429 C 0.56146 0.15777 0.63795 0.0
C9430 C 0.56388 0.1527 0.63308 0.0
C9431 C 0.5592 0.14786 0.63006 0.0
H9432 H 0.5911 0.82996 0.39223 0.0
H9433 H 0.59283 0.81531 0.40967 0.0
H9434 H 0.59807 0.82197 0.38487 0.0
H9435 H 0.59998 0.80744 0.40238 0.0
H9436 H 0.60973 0.79257 0.38654 0.0
H9437 H 0.60035 0.79961 0.39203 0.0
H9438 H 0.61058 0.81876 0.38491 0.0
H9439 H 0.61981 0.81173 0.37931 0.0
C9440 C 0.59287 0.82498 0.39446 0.0
C9441 C 0.59146 0.8233 0.40156 0.0
C9442 C 0.59692 0.82044 0.39026 0.0
C9443 C 0.59964 0.8141 0.39305 0.0
C9444 C 0.59793 0.81225 0.40005 0.0
C9445 C 0.5939 0.8168 0.40425 0.0
C9446 C 0.60987 0.79828 0.38602 0.0
C9447 C 0.61553 0.80161 0.38255 0.0
C9448 C 0.60454 0.80231 0.38921 0.0
C9449 C 0.60474 0.80975 0.38895 0.0
C9450 C 0.61022 0.81304 0.38516 0.0
C9451 C 0.61555 0.80902 0.38202 0.0
H9452 H 0.93316 0.8423 0.14323 0.0
H9453 H 0.94649 0.84509 0.16157 0.0
H9454 H 0.94151 0.84913 0.13614 0.0
H9455 H 0.95468 0.85212 0.15456 0.0
H9456 H 0.97076 0.86077 0.13936 0.0
H9457 H 0.96323 0.85193 0.14501 0.0
H9458 H 0.94483 0.86152 0.13542 0.0
H9459 H 0.95238 0.87017 0.12958 0.0
C9460 C 0.93792 0.84429 0.14573 0.0
C9461 C 0.93914 0.84319 0.15298 0.0
C9462 C 0.94266 0.84827 0.14169 0.0
C9463 C 0.94874 0.85122 0.14479 0.0
C9464 C 0.95009 0.84989 0.15198 0.0
C9465 C 0.94535 0.84592 0.15602 0.0
C9466 C 0.96512 0.86089 0.13834 0.0
C9467 C 0.96216 0.8662 0.13406 0.0
C9468 C 0.9608 0.85588 0.14164 0.0
C9469 C 0.95342 0.85605 0.14072 0.0
C9470 C 0.9505 0.86119 0.13621 0.0
C9471 C 0.95481 0.86621 0.13292 0.0
H9472 H 0.61136 0.90941 0.8325 0.0
H9473 H 0.61262 0.92747 0.81859 0.0
H9474 H 0.61848 0.90254 0.82432 0.0
H9475 H 0.62001 0.92063 0.81044 0.0
H9476 H 0.62429 0.90228 0.79416 0.0
H9477 H 0.61864 0.91061 0.80228 0.0
H9478 H 0.63029 0.90146 0.81967 0.0
H9479 H 0.63583 0.8931 0.81158 0.0
C9480 C 0.61319 0.91192 0.8277 0.0
C9481 C 0.61136 0.91896 0.82616 0.0
C9482 C 0.61736 0.90801 0.82304 0.0
C9483 C 0.61984 0.91103 0.81673 0.0
C9484 C 0.61813 0.91813 0.81524 0.0
C9485 C 0.61396 0.92206 0.81993 0.0
C9486 C 0.62573 0.90215 0.7997 0.0
C9487 C 0.63043 0.89699 0.80225 0.0
C9488 C 0.6225 0.90693 0.80435 0.0
C9489 C 0.62394 0.90664 0.81164 0.0
C9490 C 0.62894 0.90172 0.81411 0.0
C9491 C 0.63213 0.89694 0.80948 0.0
H9492 H 0.84019 0.87176 0.57883 0.0
H9493 H 0.84423 0.85351 0.56569 0.0
H9494 H 0.84701 0.87912 0.57073 0.0
H9495 H 0.85126 0.8608 0.55774 0.0
H9496 H 0.86055 0.87622 0.54225 0.0
H9497 H 0.85131 0.87043 0.54918 0.0
H9498 H 0.85953 0.88012 0.56816 0.0
H9499 H 0.86859 0.88607 0.56122 0.0
C9500 C 0.84244 0.86934 0.57416 0.0
C9501 C 0.84171 0.86204 0.57294 0.0
C9502 C 0.84641 0.87354 0.56955 0.0
C9503 C 0.84973 0.87054 0.56362 0.0
C9504 C 0.84873 0.8633 0.56222 0.0
C9505 C 0.84477 0.8591 0.56683 0.0
C9506 C 0.86027 0.87724 0.54788 0.0
C9507 C 0.86533 0.88155 0.5512 0.0
C9508 C 0.85503 0.87386 0.55186 0.0
C9509 C 0.85471 0.87477 0.55923 0.0
C9510 C 0.85957 0.87935 0.56249 0.0
C9511 C 0.86482 0.8827 0.55852 0.0
H9512 H 0.91211 0.09497 0.31634 0.0
H9513 H 0.89379 0.09125 0.32944 0.0
H9514 H 0.90491 0.10186 0.3082 0.0
H9515 H 0.8865 0.09792 0.32113 0.0
H9516 H 0.87937 0.11907 0.31079 0.0
H9517 H 0.88532 0.11031 0.31811 0.0
H9518 H 0.89548 0.10166 0.29956 0.0
H9519 H 0.88973 0.11063 0.29227 0.0
C9520 C 0.90652 0.09555 0.31744 0.0
C9521 C 0.90355 0.09262 0.32358 0.0
C9522 C 0.90237 0.09944 0.31272 0.0
C9523 C 0.89512 0.10048 0.31402 0.0
C9524 C 0.89208 0.0973 0.32001 0.0
C9525 C 0.89624 0.09341 0.32474 0.0
C9526 C 0.88285 0.11528 0.30827 0.0
C9527 C 0.88414 0.1156 0.30096 0.0
C9528 C 0.8862 0.1102 0.31246 0.0
C9529 C 0.89092 0.1053 0.30943 0.0
C9530 C 0.89195 0.10542 0.30207 0.0
C9531 C 0.8886 0.11051 0.29788 0.0
H9532 H 0.65922 0.15327 0.08207 0.0
H9533 H 0.6775 0.15215 0.06844 0.0
H9534 H 0.65256 0.14606 0.0738 0.0
H9535 H 0.67085 0.1447 0.06019 0.0
H9536 H 0.65271 0.14016 0.04369 0.0
H9537 H 0.66088 0.14595 0.05188 0.0
H9538 H 0.65179 0.13416 0.06919 0.0
H9539 H 0.6436 0.12847 0.06103 0.0
C9540 C 0.66183 0.15146 0.07731 0.0
C9541 C 0.66887 0.15334 0.07589 0.0
C9542 C 0.65803 0.14724 0.0726 0.0
C9543 C 0.66118 0.14477 0.06634 0.0
C9544 C 0.66826 0.14655 0.06495 0.0
C9545 C 0.67209 0.15077 0.06969 0.0
C9546 C 0.65257 0.13871 0.04922 0.0
C9547 C 0.64746 0.13394 0.05174 0.0
C9548 C 0.65725 0.14202 0.05392 0.0
C9549 C 0.65692 0.14059 0.06121 0.0
C9550 C 0.65207 0.1355 0.06364 0.0
C9551 C 0.6474 0.13223 0.05896 0.0
H9552 H 0.61381 0.08626 0.69516 0.0
H9553 H 0.61273 0.10417 0.68102 0.0
H9554 H 0.62133 0.0931 0.70319 0.0
H9555 H 0.61998 0.11103 0.68909 0.0
H9556 H 0.63716 0.12065 0.70181 0.0
H9557 H 0.63174 0.11213 0.69379 0.0
H9558 H 0.62003 0.10318 0.71123 0.0
H9559 H 0.62557 0.11165 0.71927 0.0
C9560 C 0.61522 0.09163 0.69374 0.0
C9561 C 0.61263 0.09469 0.68749 0.0
C9562 C 0.61947 0.09556 0.69837 0.0
C9563 C 0.62126 0.10262 0.69679 0.0
C9564 C 0.6188 0.10559 0.69044 0.0
C9565 C 0.61455 0.10168 0.68585 0.0
C9566 C 0.63349 0.1168 0.70394 0.0
C9567 C 0.63173 0.11686 0.71115 0.0
C9568 C 0.63036 0.11194 0.69935 0.0
C9569 C 0.62536 0.10704 0.70185 0.0
C9570 C 0.62389 0.10684 0.70914 0.0
C9571 C 0.62706 0.1117 0.71374 0.0
H9572 H 0.66979 0.85309 0.44765 0.0
H9573 H 0.67332 0.8712 0.43418 0.0
H9574 H 0.66259 0.86033 0.45549 0.0
H9575 H 0.66633 0.87852 0.44218 0.0
H9576 H 0.6448 0.88535 0.45179 0.0
H9577 H 0.65382 0.87935 0.44484 0.0
H9578 H 0.66236 0.87005 0.46389 0.0
H9579 H 0.65314 0.87588 0.47082 0.0
C9580 C 0.6691 0.85864 0.44641 0.0
C9581 C 0.67207 0.86154 0.44024 0.0
C9582 C 0.66503 0.86282 0.45095 0.0
C9583 C 0.66384 0.87 0.44944 0.0
C9584 C 0.66707 0.87298 0.44345 0.0
C9585 C 0.67114 0.8688 0.4389 0.0
C9586 C 0.64862 0.88205 0.4545 0.0
C9587 C 0.64821 0.88103 0.46185 0.0
C9588 C 0.65385 0.87867 0.45053 0.0
C9589 C 0.65881 0.8742 0.4538 0.0
C9590 C 0.65857 0.8734 0.46119 0.0
C9591 C 0.65334 0.87679 0.46517 0.0
H9592 H 0.89312 0.92234 0.18331 0.0
H9593 H 0.91104 0.91939 0.19717 0.0
H9594 H 0.88575 0.9155 0.19138 0.0
H9595 H 0.90374 0.91235 0.20511 0.0
H9596 H 0.8879 0.90344 0.22052 0.0
H9597 H 0.89382 0.91241 0.21335 0.0
H9598 H 0.88504 0.90303 0.19446 0.0
H9599 H 0.87898 0.89422 0.20163 0.0
C9600 C 0.89547 0.92032 0.18813 0.0
C9601 C 0.90269 0.92137 0.18957 0.0
C9602 C 0.89126 0.91634 0.19272 0.0
C9603 C 0.89417 0.91332 0.19886 0.0
C9604 C 0.90131 0.91463 0.20045 0.0
C9605 C 0.90552 0.9186 0.19586 0.0
C9606 C 0.88712 0.90339 0.21485 0.0
C9607 C 0.88301 0.8981 0.21164 0.0
C9608 C 0.89057 0.90849 0.21074 0.0
C9609 C 0.88994 0.90842 0.20333 0.0
C9610 C 0.88559 0.90329 0.20015 0.0
C9611 C 0.88218 0.89819 0.20426 0.0
H9612 H 0.84228 0.16356 0.94975 0.0
H9613 H 0.84083 0.14487 0.93666 0.0
H9614 H 0.84966 0.1571 0.95812 0.0
H9615 H 0.84815 0.1384 0.9451 0.0
H9616 H 0.85875 0.12766 0.96409 0.0
H9617 H 0.84931 0.13372 0.95753 0.0
H9618 H 0.86197 0.15272 0.95697 0.0
H9619 H 0.8713 0.14671 0.96352 0.0
C9620 C 0.84348 0.15806 0.94869 0.0
C9621 C 0.84105 0.15477 0.94248 0.0
C9622 C 0.8477 0.15436 0.9535 0.0
C9623 C 0.84955 0.14727 0.95223 0.0
C9624 C 0.84677 0.14384 0.94625 0.0
C9625 C 0.84257 0.14756 0.94141 0.0
C9626 C 0.85944 0.13316 0.96264 0.0
C9627 C 0.86576 0.13672 0.96426 0.0
C9628 C 0.85407 0.13661 0.95886 0.0
C9629 C 0.8549 0.1437 0.95674 0.0
C9630 C 0.86113 0.14729 0.9586 0.0
C9631 C 0.8665 0.14384 0.96229 0.0
H9632 H 0.83171 0.61292 0.91016 0.0
H9633 H 0.8176 0.61383 0.92808 0.0
H9634 H 0.82369 0.62036 0.90343 0.0
H9635 H 0.80959 0.62151 0.92135 0.0
H9636 H 0.79368 0.62623 0.90261 0.0
H9637 H 0.80156 0.62044 0.91108 0.0
H9638 H 0.81919 0.63232 0.90276 0.0
H9639 H 0.81134 0.63801 0.89425 0.0
C9640 C 0.82689 0.61474 0.91267 0.0
C9641 C 0.82525 0.61273 0.91963 0.0
C9642 C 0.82233 0.61909 0.90884 0.0
C9643 C 0.81601 0.62156 0.91186 0.0
C9644 C 0.8144 0.61966 0.91887 0.0
C9645 C 0.81901 0.61531 0.92273 0.0
C9646 C 0.79921 0.62771 0.90271 0.0
C9647 C 0.80192 0.63249 0.89771 0.0
C9648 C 0.80372 0.6244 0.90756 0.0
C9649 C 0.81102 0.62583 0.90752 0.0
C9650 C 0.81362 0.63097 0.90282 0.0
C9651 C 0.80913 0.63425 0.89796 0.0
H9652 H 0.31847 0.90081 0.0847 0.0
H9653 H 0.32606 0.91172 0.10327 0.0
H9654 H 0.30966 0.89467 0.09195 0.0
H9655 H 0.31736 0.90563 0.11045 0.0
H9656 H 0.29722 0.89941 0.12074 0.0
H9657 H 0.30474 0.90552 0.11227 0.0
H9658 H 0.30863 0.88576 0.10145 0.0
H9659 H 0.30093 0.87966 0.10991 0.0
C9660 C 0.31827 0.90188 0.09032 0.0
C9661 C 0.3229 0.90683 0.0934 0.0
C9662 C 0.31323 0.89836 0.09447 0.0
C9663 C 0.31273 0.89973 0.10176 0.0
C9664 C 0.31746 0.90459 0.10482 0.0
C9665 C 0.32246 0.90809 0.1007 0.0
C9666 C 0.29963 0.89639 0.1165 0.0
C9667 C 0.29858 0.88905 0.11602 0.0
C9668 C 0.30396 0.89988 0.11167 0.0
C9669 C 0.30741 0.89611 0.10627 0.0
C9670 C 0.30604 0.88882 0.10555 0.0
C9671 C 0.30165 0.88533 0.11038 0.0
H9672 H 0.8707 0.57963 0.84061 0.0
H9673 H 0.85271 0.56599 0.84404 0.0
H9674 H 0.87811 0.57157 0.84744 0.0
H9675 H 0.86005 0.55807 0.85108 0.0
H9676 H 0.87575 0.54272 0.86029 0.0
H9677 H 0.86989 0.54972 0.85113 0.0
H9678 H 0.87893 0.56877 0.85995 0.0
H9679 H 0.88492 0.56176 0.86894 0.0
C9680 C 0.86835 0.57486 0.84273 0.0
C9681 C 0.8611 0.57348 0.84183 0.0
C9682 C 0.87258 0.57027 0.84671 0.0
C9683 C 0.86966 0.5642 0.84986 0.0
C9684 C 0.86249 0.56267 0.84868 0.0
C9685 C 0.85826 0.56725 0.84472 0.0
C9686 C 0.8766 0.54838 0.86017 0.0
C9687 C 0.88075 0.5517 0.86537 0.0
C9688 C 0.87319 0.5524 0.85497 0.0
C9689 C 0.8739 0.55981 0.85483 0.0
C9690 C 0.87832 0.56307 0.85985 0.0
C9691 C 0.88169 0.55907 0.86505 0.0
H9692 H 0.1803 0.11436 0.60326 0.0
H9693 H 0.1944 0.11381 0.58532 0.0
H9694 H 0.18868 0.12166 0.60967 0.0
H9695 H 0.20276 0.12138 0.5917 0.0
H9696 H 0.219 0.12621 0.61004 0.0
H9697 H 0.2108 0.12046 0.60185 0.0
H9698 H 0.19374 0.13332 0.60998 0.0
H9699 H 0.20191 0.13893 0.61823 0.0
C9700 C 0.18519 0.11582 0.60067 0.0
C9701 C 0.18671 0.11344 0.59381 0.0
C9702 C 0.18996 0.1201 0.60432 0.0
C9703 C 0.19639 0.12214 0.60119 0.0
C9704 C 0.19788 0.11987 0.59427 0.0
C9705 C 0.19307 0.11558 0.5906 0.0
C9706 C 0.21353 0.1279 0.60995 0.0
C9707 C 0.21106 0.13294 0.61482 0.0
C9708 C 0.20883 0.12462 0.60526 0.0
C9709 C 0.20159 0.12635 0.60534 0.0
C9710 C 0.19925 0.13174 0.6099 0.0
C9711 C 0.20393 0.13498 0.6146 0.0
H9712 H 0.15131 0.93114 0.85469 0.0
H9713 H 0.15047 0.94502 0.83658 0.0
H9714 H 0.14407 0.93938 0.86136 0.0
H9715 H 0.14296 0.95322 0.84322 0.0
H9716 H 0.13849 0.9696 0.86146 0.0
H9717 H 0.14415 0.96142 0.8532 0.0
H9718 H 0.13228 0.94411 0.86222 0.0
H9719 H 0.12674 0.95226 0.87053 0.0
C9720 C 0.14954 0.93595 0.85212 0.0
C9721 C 0.15153 0.93745 0.84513 0.0
C9722 C 0.1453 0.94063 0.85592 0.0
C9723 C 0.1429 0.94696 0.85283 0.0
C9724 C 0.14476 0.94842 0.84578 0.0
C9725 C 0.14901 0.9437 0.84195 0.0
C9726 C 0.13699 0.96407 0.86157 0.0
C9727 C 0.13225 0.96154 0.86669 0.0
C9728 C 0.14023 0.95938 0.85683 0.0
C9729 C 0.13875 0.95209 0.85712 0.0
C9730 C 0.13367 0.94966 0.86197 0.0
C9731 C 0.13047 0.95433 0.86671 0.0
H9732 H 0.69624 0.39882 0.42845 0.0
H9733 H 0.68929 0.41089 0.41035 0.0
H9734 H 0.70483 0.3926 0.42098 0.0
H9735 H 0.69774 0.40472 0.40295 0.0
H9736 H 0.71747 0.39797 0.39232 0.0
H9737 H 0.71026 0.40408 0.40107 0.0
H9738 H 0.70562 0.3841 0.41116 0.0
H9739 H 0.71304 0.37801 0.40244 0.0
C9740 C 0.69653 0.40012 0.42288 0.0
C9741 C 0.69216 0.40542 0.42001 0.0
C9742 C 0.70144 0.39657 0.41861 0.0
C9743 C 0.70205 0.39823 0.41138 0.0
C9744 C 0.69757 0.40344 0.40853 0.0
C9745 C 0.69271 0.40698 0.41278 0.0
C9746 C 0.71497 0.3949 0.39647 0.0
C9747 C 0.71573 0.38752 0.39667 0.0
C9748 C 0.71081 0.39839 0.40145 0.0
C9749 C 0.70723 0.39457 0.40673 0.0
C9750 C 0.70831 0.38721 0.40717 0.0
C9751 C 0.71254 0.38371 0.40219 0.0
H9752 H 0.87073 0.43456 0.67269 0.0
H9753 H 0.85264 0.44806 0.66912 0.0
H9754 H 0.87813 0.44271 0.66596 0.0
H9755 H 0.85997 0.45607 0.66219 0.0
H9756 H 0.87562 0.47162 0.65326 0.0
H9757 H 0.86973 0.46451 0.6623 0.0
H9758 H 0.87906 0.44559 0.65349 0.0
H9759 H 0.8851 0.45271 0.64463 0.0
C9760 C 0.86835 0.43932 0.67056 0.0
C9761 C 0.86108 0.44063 0.67139 0.0
C9762 C 0.87258 0.44395 0.66664 0.0
C9763 C 0.86963 0.45002 0.66349 0.0
C9764 C 0.86243 0.45149 0.66459 0.0
C9765 C 0.8582 0.44685 0.6685 0.0
C9766 C 0.87653 0.46596 0.65336 0.0
C9767 C 0.88078 0.46271 0.6482 0.0
C9768 C 0.8731 0.46188 0.65849 0.0
C9769 C 0.87388 0.45447 0.65859 0.0
C9770 C 0.87839 0.45128 0.65362 0.0
C9771 C 0.88179 0.45535 0.64849 0.0
H9772 H 0.66488 0.56596 0.16911 0.0
H9773 H 0.64576 0.57815 0.17188 0.0
H9774 H 0.65841 0.55744 0.16191 0.0
H9775 H 0.63928 0.56959 0.16472 0.0
H9776 H 0.62877 0.55014 0.15473 0.0
H9777 H 0.63504 0.55711 0.16369 0.0
H9778 H 0.65328 0.55822 0.14999 0.0
H9779 H 0.64708 0.5512 0.14115 0.0
C9780 C 0.65929 0.5668 0.16822 0.0
C9781 C 0.65586 0.57279 0.17099 0.0
C9782 C 0.65558 0.56191 0.1641 0.0
C9783 C 0.64835 0.56288 0.16268 0.0
C9784 C 0.64483 0.56866 0.16576 0.0
C9785 C 0.64855 0.57357 0.16987 0.0
C9786 C 0.63415 0.5518 0.1537 0.0
C9787 C 0.63743 0.55018 0.14723 0.0
C9788 C 0.63772 0.55583 0.1588 0.0
C9789 C 0.64465 0.55822 0.15755 0.0
C9790 C 0.64797 0.5564 0.15116 0.0
C9791 C 0.6444 0.55244 0.14606 0.0
H9792 H 0.58589 0.69462 0.89834 0.0
H9793 H 0.60471 0.68196 0.90111 0.0
H9794 H 0.59257 0.70287 0.8909 0.0
H9795 H 0.61138 0.69024 0.89394 0.0
H9796 H 0.62115 0.70275 0.87686 0.0
H9797 H 0.61278 0.69442 0.88203 0.0
H9798 H 0.60198 0.71174 0.89234 0.0
H9799 H 0.61031 0.72008 0.88701 0.0
C9800 C 0.59143 0.69358 0.89732 0.0
C9801 C 0.59479 0.68767 0.90036 0.0
C9802 C 0.59526 0.69833 0.89311 0.0
C9803 C 0.60251 0.69722 0.89181 0.0
C9804 C 0.60579 0.69122 0.89474 0.0
C9805 C 0.60199 0.68651 0.89894 0.0
C9806 C 0.61691 0.70477 0.88014 0.0
C9807 C 0.61642 0.71204 0.88161 0.0
C9808 C 0.61214 0.70001 0.88313 0.0
C9809 C 0.60679 0.7024 0.88771 0.0
C9810 C 0.60602 0.70972 0.88882 0.0
C9811 C 0.61078 0.7145 0.88577 0.0
H9812 H 0.58251 0.35484 0.15228 0.0
H9813 H 0.56984 0.33601 0.14969 0.0
H9814 H 0.57425 0.36145 0.14502 0.0
H9815 H 0.56162 0.34262 0.14214 0.0
H9816 H 0.54447 0.36028 0.13778 0.0
H9817 H 0.55277 0.35207 0.14338 0.0
H9818 H 0.57016 0.3627 0.13306 0.0
H9819 H 0.56187 0.37095 0.12762 0.0
C9820 C 0.57796 0.3521 0.15014 0.0
C9821 C 0.57679 0.34492 0.15163 0.0
C9822 C 0.57327 0.35588 0.14588 0.0
C9823 C 0.56728 0.35257 0.14296 0.0
C9824 C 0.56616 0.34534 0.14435 0.0
C9825 C 0.57089 0.34154 0.14861 0.0
C9826 C 0.55005 0.36074 0.13661 0.0
C9827 C 0.55255 0.3663 0.13235 0.0
C9828 C 0.55481 0.35604 0.1398 0.0
C9829 C 0.56214 0.3568 0.13876 0.0
C9830 C 0.56456 0.36207 0.13411 0.0
C9831 C 0.55982 0.36678 0.13097 0.0
H9832 H 0.91932 0.31633 0.41273 0.0
H9833 H 0.92175 0.32883 0.39377 0.0
H9834 H 0.91222 0.30778 0.40619 0.0
H9835 H 0.91467 0.32025 0.38722 0.0
H9836 H 0.90465 0.30095 0.37651 0.0
H9837 H 0.91368 0.30783 0.38279 0.0
H9838 H 0.90023 0.30854 0.40123 0.0
H9839 H 0.89133 0.30163 0.39502 0.0
C9840 C 0.91838 0.31723 0.40715 0.0
C9841 C 0.92102 0.32331 0.4038 0.0
C9842 C 0.91432 0.31233 0.40341 0.0
C9843 C 0.91281 0.31338 0.39621 0.0
C9844 C 0.91578 0.31926 0.39275 0.0
C9845 C 0.91984 0.32417 0.39651 0.0
C9846 C 0.90369 0.30251 0.38194 0.0
C9847 C 0.89727 0.30081 0.38527 0.0
C9848 C 0.90883 0.30648 0.38551 0.0
C9849 C 0.90767 0.30873 0.3925 0.0
C9850 C 0.90133 0.30683 0.39588 0.0
C9851 C 0.8962 0.30293 0.3923 0.0
H9852 H 0.94796 0.66999 0.66312 0.0
H9853 H 0.93558 0.67282 0.64414 0.0
H9854 H 0.95653 0.66299 0.65649 0.0
H9855 H 0.94418 0.66585 0.63751 0.0
H9856 H 0.96338 0.65585 0.62669 0.0
H9857 H 0.95665 0.66489 0.63314 0.0
H9858 H 0.95569 0.65108 0.65131 0.0
H9859 H 0.96244 0.64216 0.64492 0.0
C9860 C 0.94709 0.66916 0.65752 0.0
C9861 C 0.94103 0.67188 0.65418 0.0
C9862 C 0.95201 0.66517 0.65373 0.0
C9863 C 0.951 0.66381 0.64649 0.0
C9864 C 0.94515 0.66685 0.64306 0.0
C9865 C 0.94021 0.67085 0.64687 0.0
C9866 C 0.96181 0.65482 0.6321 0.0
C9867 C 0.96338 0.6483 0.6353 0.0
C9868 C 0.95793 0.65996 0.63577 0.0
C9869 C 0.95563 0.6587 0.64273 0.0
C9870 C 0.95744 0.65226 0.64598 0.0
C9871 C 0.96125 0.64712 0.64231 0.0
H9872 H 0.60276 0.33258 0.61355 0.0
H9873 H 0.58414 0.31942 0.61472 0.0
H9874 H 0.60911 0.32434 0.62106 0.0
H9875 H 0.59048 0.3112 0.6225 0.0
H9876 H 0.60859 0.29439 0.62703 0.0
H9877 H 0.60023 0.30261 0.62152 0.0
H9878 H 0.60979 0.31994 0.63296 0.0
H9879 H 0.61822 0.31175 0.63828 0.0
C9880 C 0.60001 0.32793 0.61545 0.0
C9881 C 0.59298 0.32662 0.61348 0.0
C9882 C 0.60362 0.32325 0.61985 0.0
C9883 C 0.6003 0.31712 0.62243 0.0
C9884 C 0.5932 0.31585 0.62058 0.0
C9885 C 0.58956 0.32058 0.61617 0.0
C9886 C 0.60877 0.29993 0.62849 0.0
C9887 C 0.61409 0.30247 0.633 0.0
C9888 C 0.60398 0.30464 0.62534 0.0
C9889 C 0.60443 0.31196 0.6267 0.0
C9890 C 0.60941 0.31437 0.63166 0.0
C9891 C 0.61421 0.30969 0.63474 0.0
H9892 H 0.9448 0.33621 0.86394 0.0
H9893 H 0.93082 0.35428 0.8634 0.0
H9894 H 0.95284 0.34271 0.87178 0.0
H9895 H 0.93887 0.36079 0.87099 0.0
H9896 H 0.95122 0.36949 0.88885 0.0
H9897 H 0.94333 0.36116 0.88297 0.0
H9898 H 0.96095 0.35293 0.87097 0.0
H9899 H 0.96887 0.36123 0.87697 0.0
C9900 C 0.94342 0.34154 0.86554 0.0
C9901 C 0.9372 0.34475 0.86302 0.0
C9902 C 0.94804 0.34528 0.86997 0.0
C9903 C 0.94649 0.35226 0.87203 0.0
C9904 C 0.94019 0.35539 0.86961 0.0
C9905 C 0.93561 0.35168 0.86517 0.0
C9906 C 0.95342 0.36583 0.88503 0.0
C9907 C 0.96063 0.36606 0.8833 0.0
C9908 C 0.9489 0.36108 0.88164 0.0
C9909 C 0.95149 0.35647 0.87641 0.0
C9910 C 0.95879 0.35639 0.875 0.0
C9911 C 0.96333 0.36114 0.87842 0.0
H9912 H 0.90941 0.68077 0.11277 0.0
H9913 H 0.92743 0.69478 0.11331 0.0
H9914 H 0.90278 0.68897 0.1201 0.0
H9915 H 0.92083 0.70296 0.12089 0.0
H9916 H 0.90241 0.71916 0.12558 0.0
H9917 H 0.9107 0.71107 0.11982 0.0
H9918 H 0.90214 0.69369 0.13192 0.0
H9919 H 0.89382 0.70175 0.13757 0.0
C9920 C 0.91197 0.6856 0.11448 0.0
C9921 C 0.91893 0.68715 0.1124 0.0
C9922 C 0.9082 0.69026 0.11877 0.0
C9923 C 0.91128 0.69661 0.12111 0.0
C9924 C 0.91829 0.69813 0.11914 0.0
C9925 C 0.92209 0.69343 0.11485 0.0
C9926 C 0.90242 0.71364 0.12711 0.0
C9927 C 0.89742 0.71106 0.13195 0.0
C9928 C 0.90717 0.709 0.12381 0.0
C9929 C 0.90701 0.70171 0.12533 0.0
C9930 C 0.90229 0.69924 0.13051 0.0
C9931 C 0.89754 0.70386 0.13377 0.0
H9932 H 0.56684 0.67127 0.35304 0.0
H9933 H 0.58102 0.67348 0.3708 0.0
H9934 H 0.55876 0.66438 0.36033 0.0
H9935 H 0.57283 0.66676 0.37816 0.0
H9936 H 0.56225 0.64534 0.38424 0.0
H9937 H 0.56951 0.65428 0.37846 0.0
H9938 H 0.55067 0.66446 0.37048 0.0
H9939 H 0.5434 0.65538 0.37615 0.0
C9940 C 0.56819 0.67036 0.35853 0.0
C9941 C 0.57461 0.67286 0.36132 0.0
C9942 C 0.56352 0.66648 0.36273 0.0
C9943 C 0.56517 0.66499 0.36982 0.0
C9944 C 0.57144 0.66775 0.3727 0.0
C9945 C 0.57611 0.67166 0.3685 0.0
C9946 C 0.55966 0.64953 0.3813 0.0
C9947 C 0.55226 0.64963 0.38059 0.0
C9948 C 0.56381 0.65469 0.37804 0.0
C9949 C 0.56067 0.66007 0.37398 0.0
C9950 C 0.55325 0.66034 0.37352 0.0
C9951 C 0.54908 0.65519 0.37681 0.0
H9952 H 0.89344 0.59228 0.68567 0.0
H9953 H 0.91247 0.59462 0.6981 0.0
H9954 H 0.88695 0.59939 0.69428 0.0
H9955 H 0.90599 0.60175 0.70667 0.0
H9956 H 0.89489 0.62265 0.71296 0.0
H9957 H 0.90106 0.61375 0.706 0.0
H9958 H 0.88257 0.60035 0.70669 0.0
H9959 H 0.87633 0.60939 0.71361 0.0
C9960 C 0.8962 0.59418 0.69032 0.0
C9961 C 0.9035 0.59296 0.69115 0.0
C9962 C 0.89248 0.59825 0.69525 0.0
C9963 C 0.89598 0.6012 0.70111 0.0
C9964 C 0.90318 0.59966 0.70214 0.0
C9965 C 0.90689 0.59559 0.69722 0.0
C9966 C 0.89215 0.6178 0.71164 0.0
C9967 C 0.88512 0.61674 0.71377 0.0
C9968 C 0.8957 0.61266 0.70772 0.0
C9969 C 0.8923 0.60634 0.70579 0.0
C9970 C 0.88531 0.60519 0.70805 0.0
C9971 C 0.88176 0.61033 0.71205 0.0
H9972 H 0.67781 0.65099 0.94452 0.0
H9973 H 0.66009 0.64998 0.93015 0.0
H9974 H 0.67149 0.64332 0.95282 0.0
H9975 H 0.65373 0.64257 0.93847 0.0
H9976 H 0.64531 0.62527 0.95175 0.0
H9977 H 0.65358 0.63093 0.94366 0.0
H9978 H 0.66119 0.64415 0.96068 0.0
H9979 H 0.65297 0.63836 0.96881 0.0
C9980 C 0.6726 0.64909 0.94311 0.0
C9981 C 0.66943 0.65113 0.9367 0.0
C9982 C 0.66896 0.64475 0.94789 0.0
C9983 C 0.6621 0.64232 0.94631 0.0
C9984 C 0.65903 0.64425 0.93983 0.0
C9985 C 0.66265 0.64858 0.93509 0.0
C9986 C 0.64883 0.62931 0.95378 0.0
C9987 C 0.64845 0.63143 0.96088 0.0
C9988 C 0.65355 0.63258 0.94914 0.0
C9989 C 0.65796 0.63809 0.95149 0.0
C9990 C 0.65789 0.6399 0.95871 0.0
C9991 C 0.65318 0.63659 0.96336 0.0
H9992 H 0.6129 0.40988 0.17971 0.0
H9993 H 0.61394 0.42811 0.19344 0.0
H9994 H 0.62034 0.40328 0.18783 0.0
H9995 H 0.62164 0.42154 0.20152 0.0
H9996 H 0.62652 0.4034 0.2179 0.0
H9997 H 0.62066 0.4116 0.2098 0.0
H9998 H 0.63222 0.4025 0.19233 0.0
H9999 H 0.63797 0.39426 0.20041 0.0
C10000 C 0.61475 0.4125 0.18446 0.0
C10001 C 0.61277 0.4195 0.18596 0.0
C10002 C 0.6191 0.40874 0.18908 0.0
C10003 C 0.62162 0.41188 0.19532 0.0
C10004 C 0.61975 0.41895 0.19678 0.0
C10005 C 0.61539 0.42273 0.19212 0.0
C10006 C 0.62791 0.40327 0.21235 0.0
C10007 C 0.63264 0.39814 0.20977 0.0
C10008 C 0.62456 0.40796 0.2077 0.0
C10009 C 0.62589 0.40764 0.20039 0.0
C10010 C 0.63095 0.40279 0.1979 0.0
C10011 C 0.63426 0.39808 0.20253 0.0
H10012 H 0.84464 0.35356 0.44659 0.0
H10013 H 0.8396 0.37172 0.43367 0.0
H10014 H 0.85135 0.36112 0.45459 0.0
H10015 H 0.84611 0.37933 0.44181 0.0
H10016 H 0.86733 0.38728 0.4514 0.0
H10017 H 0.85859 0.38095 0.44438 0.0
H10018 H 0.85087 0.37067 0.46326 0.0
H10019 H 0.8598 0.37688 0.47026 0.0
C10020 C 0.8449 0.35918 0.4455 0.0
C10021 C 0.84165 0.36202 0.43945 0.0
C10022 C 0.84867 0.36353 0.45013 0.0
C10023 C 0.8493 0.37083 0.44882 0.0
C10024 C 0.8458 0.37371 0.44293 0.0
C10025 C 0.84201 0.36936 0.4383 0.0
C10026 C 0.86373 0.38371 0.45405 0.0
C10027 C 0.8643 0.38252 0.46136 0.0
C10028 C 0.85867 0.38013 0.45005 0.0
C10029 C 0.85405 0.37527 0.45325 0.0
C10030 C 0.85441 0.37432 0.46062 0.0
C10031 C 0.85947 0.37792 0.46464 0.0
H10032 H 0.89283 0.42366 0.82964 0.0
H10033 H 0.91121 0.41937 0.81679 0.0
H10034 H 0.8855 0.417 0.82137 0.0
H10035 H 0.90394 0.41251 0.80867 0.0
H10036 H 0.88847 0.40388 0.79274 0.0
H10037 H 0.89444 0.41282 0.79993 0.0
H10038 H 0.88431 0.40449 0.81862 0.0
H10039 H 0.8782 0.39573 0.81142 0.0
C10040 C 0.89529 0.42138 0.825 0.0
C10041 C 0.90262 0.422 0.82391 0.0
C10042 C 0.8911 0.41751 0.8203 0.0
C10043 C 0.89414 0.41417 0.81439 0.0
C10044 C 0.90141 0.41505 0.81313 0.0
C10045 C 0.9056 0.41892 0.81784 0.0
C10046 C 0.88741 0.40406 0.79837 0.0
C10047 C 0.88291 0.39907 0.80153 0.0
C10048 C 0.89088 0.40914 0.80249 0.0
C10049 C 0.88989 0.40934 0.80986 0.0
C10050 C 0.88515 0.40453 0.81296 0.0
C10051 C 0.8817 0.39946 0.80885 0.0
H10052 H 0.84257 0.6442 0.07805 0.0
H10053 H 0.84506 0.66333 0.0658 0.0
H10054 H 0.84968 0.63774 0.06943 0.0
H10055 H 0.85218 0.65688 0.05721 0.0
H10056 H 0.87298 0.64573 0.05082 0.0
H10057 H 0.86414 0.65186 0.05788 0.0
H10058 H 0.85064 0.63346 0.05697 0.0
H10059 H 0.85961 0.62725 0.04994 0.0
C10060 C 0.8445 0.647 0.07345 0.0
C10061 C 0.84332 0.6543 0.07267 0.0
C10062 C 0.84858 0.64329 0.0685 0.0
C10063 C 0.85156 0.64682 0.06268 0.0
C10064 C 0.85007 0.65404 0.06172 0.0
C10065 C 0.846 0.65774 0.06664 0.0
C10066 C 0.86812 0.643 0.05211 0.0
C10067 C 0.86701 0.636 0.04988 0.0
C10068 C 0.86302 0.64654 0.05609 0.0
C10069 C 0.85668 0.64315 0.05798 0.0
C10070 C 0.85549 0.63619 0.05563 0.0
C10071 C 0.86059 0.63266 0.05157 0.0
H10072 H 0.62198 0.59153 0.3286 0.0
H10073 H 0.60222 0.59395 0.31739 0.0
H10074 H 0.62788 0.59886 0.31976 0.0
H10075 H 0.60815 0.60112 0.30847 0.0
H10076 H 0.61893 0.62207 0.30157 0.0
H10077 H 0.61314 0.61317 0.30885 0.0
H10078 H 0.6315 0.59968 0.30707 0.0
H10079 H 0.63736 0.60869 0.29982 0.0
C10080 C 0.61892 0.59356 0.3242 0.0
C10081 C 0.61162 0.5922 0.32373 0.0
C10082 C 0.62231 0.5977 0.3191 0.0
C10083 C 0.61847 0.6006 0.31344 0.0
C10084 C 0.61124 0.59901 0.31282 0.0
C10085 C 0.60786 0.59485 0.31789 0.0
C10086 C 0.62172 0.61719 0.3027 0.0
C10087 C 0.62861 0.61609 0.30018 0.0
C10088 C 0.61837 0.61206 0.30682 0.0
C10089 C 0.62186 0.60572 0.30854 0.0
C10090 C 0.6287 0.60454 0.30587 0.0
C10091 C 0.63203 0.60966 0.30168 0.0
H10092 H 0.67056 0.35131 0.56505 0.0
H10093 H 0.67283 0.36994 0.57809 0.0
H10094 H 0.66351 0.35807 0.55664 0.0
H10095 H 0.66581 0.37672 0.56962 0.0
H10096 H 0.65579 0.38788 0.55056 0.0
H10097 H 0.66489 0.38144 0.55723 0.0
H10098 H 0.65144 0.36298 0.55764 0.0
H10099 H 0.64246 0.36936 0.55098 0.0
C10100 C 0.6696 0.35686 0.5661 0.0
C10101 C 0.67217 0.36006 0.5723 0.0
C10102 C 0.66558 0.36074 0.56127 0.0
C10103 C 0.66404 0.3679 0.56251 0.0
C10104 C 0.66695 0.37122 0.56849 0.0
C10105 C 0.67098 0.36733 0.57334 0.0
C10106 C 0.65485 0.38242 0.55201 0.0
C10107 C 0.64841 0.37912 0.55031 0.0
C10108 C 0.66002 0.37875 0.55585 0.0
C10109 C 0.65888 0.37171 0.55796 0.0
C10110 C 0.65253 0.36837 0.55603 0.0
C10111 C 0.64735 0.37204 0.55227 0.0
H10112 H 0.69393 0.8995 0.58544 0.0
H10113 H 0.6801 0.90028 0.60358 0.0
H10114 H 0.70205 0.8918 0.59198 0.0
H10115 H 0.68825 0.89284 0.61015 0.0
H10116 H 0.70095 0.87538 0.6192 0.0
H10117 H 0.69287 0.88099 0.61086 0.0
H10118 H 0.71027 0.89284 0.602 0.0
H10119 H 0.71837 0.88711 0.61029 0.0
C10120 C 0.6926 0.89798 0.59079 0.0
C10121 C 0.6864 0.90054 0.59401 0.0
C10122 C 0.69727 0.89363 0.59456 0.0
C10123 C 0.6958 0.89169 0.60159 0.0
C10124 C 0.68951 0.89413 0.60472 0.0
C10125 C 0.68488 0.89848 0.60098 0.0
C10126 C 0.70305 0.87912 0.6154 0.0
C10127 C 0.71026 0.88087 0.61544 0.0
C10128 C 0.69843 0.88235 0.61064 0.0
C10129 C 0.7009 0.88746 0.60584 0.0
C10130 C 0.70819 0.8889 0.6056 0.0
C10131 C 0.71284 0.88563 0.61035 0.0
H10132 H 0.1834 0.62256 0.42295 0.0
H10133 H 0.1962 0.60421 0.41829 0.0
H10134 H 0.19173 0.63001 0.41651 0.0
H10135 H 0.20439 0.61161 0.41166 0.0
H10136 H 0.22031 0.62714 0.40323 0.0
H10137 H 0.21315 0.62112 0.41216 0.0
H10138 H 0.19443 0.63139 0.404 0.0
H10139 H 0.2016 0.63752 0.39525 0.0
C10140 C 0.18804 0.62013 0.42065 0.0
C10141 C 0.1891 0.61278 0.42108 0.0
C10142 C 0.19278 0.62439 0.4169 0.0
C10143 C 0.19869 0.6214 0.41352 0.0
C10144 C 0.19992 0.6141 0.41424 0.0
C10145 C 0.19518 0.60984 0.41797 0.0
C10146 C 0.21469 0.62822 0.40346 0.0
C10147 C 0.2115 0.63275 0.3985 0.0
C10148 C 0.21058 0.62473 0.40852 0.0
C10149 C 0.20321 0.62573 0.40876 0.0
C10150 C 0.20009 0.63053 0.40402 0.0
C10151 C 0.20419 0.63399 0.39895 0.0
H10152 H 0.6441 0.9357 0.67143 0.0
H10153 H 0.66226 0.94952 0.67226 0.0
H10154 H 0.6377 0.94454 0.66453 0.0
H10155 H 0.65586 0.95836 0.66537 0.0
H10156 H 0.64653 0.96576 0.64397 0.0
H10157 H 0.6523 0.95865 0.653 0.0
H10158 H 0.63242 0.95652 0.66405 0.0
H10159 H 0.62659 0.96359 0.65485 0.0
C10160 C 0.64667 0.94069 0.67028 0.0
C10161 C 0.65372 0.94187 0.67232 0.0
C10162 C 0.643 0.94576 0.66633 0.0
C10163 C 0.6463 0.95212 0.66433 0.0
C10164 C 0.65322 0.95345 0.66671 0.0
C10165 C 0.65688 0.94839 0.67065 0.0
C10166 C 0.6434 0.96382 0.64836 0.0
C10167 C 0.6361 0.96517 0.64868 0.0
C10168 C 0.64671 0.9598 0.65357 0.0
C10169 C 0.64282 0.95701 0.65925 0.0
C10170 C 0.63555 0.95855 0.65971 0.0
C10171 C 0.63223 0.96264 0.65449 0.0
H10172 H 0.32958 0.39278 0.92297 0.0
H10173 H 0.31643 0.41094 0.91853 0.0
H10174 H 0.32141 0.38525 0.91642 0.0
H10175 H 0.30839 0.40346 0.91178 0.0
H10176 H 0.29273 0.38771 0.90324 0.0
H10177 H 0.29981 0.3938 0.9122 0.0
H10178 H 0.31868 0.38394 0.90391 0.0
H10179 H 0.31159 0.37774 0.89513 0.0
C10180 C 0.32489 0.39515 0.92069 0.0
C10181 C 0.32369 0.40248 0.92123 0.0
C10182 C 0.32025 0.39085 0.91687 0.0
C10183 C 0.31428 0.39376 0.91352 0.0
C10184 C 0.31291 0.40103 0.91433 0.0
C10185 C 0.31756 0.40534 0.91813 0.0
C10186 C 0.29836 0.38673 0.90345 0.0
C10187 C 0.30161 0.3823 0.89845 0.0
C10188 C 0.30243 0.39027 0.90853 0.0
C10189 C 0.30982 0.3894 0.90874 0.0
C10190 C 0.313 0.38469 0.90395 0.0
C10191 C 0.30895 0.38119 0.89886 0.0
H10192 H 0.36369 0.58303 0.65973 0.0
H10193 H 0.36362 0.56875 0.67755 0.0
H10194 H 0.37109 0.57485 0.65317 0.0
H10195 H 0.37128 0.56058 0.67101 0.0
H10196 H 0.37604 0.5446 0.6524 0.0
H10197 H 0.3703 0.55264 0.66075 0.0
H10198 H 0.38285 0.56995 0.65271 0.0
H10199 H 0.38848 0.56193 0.64431 0.0
C10200 C 0.36529 0.57815 0.66226 0.0
C10201 C 0.36301 0.57651 0.66913 0.0
C10202 C 0.36962 0.57349 0.65853 0.0
C10203 C 0.37181 0.56706 0.66157 0.0
C10204 C 0.36965 0.56547 0.66851 0.0
C10205 C 0.36531 0.57017 0.67227 0.0
C10206 C 0.37767 0.55009 0.65254 0.0
C10207 C 0.38263 0.55267 0.64766 0.0
C10208 C 0.37439 0.5547 0.65733 0.0
C10209 C 0.37603 0.56196 0.65732 0.0
C10210 C 0.38134 0.56442 0.65274 0.0
C10211 C 0.38459 0.55983 0.64795 0.0
H10212 H 0.83008 0.12239 0.09088 0.0
H10213 H 0.81578 0.10467 0.09264 0.0
H10214 H 0.8218 0.12974 0.09752 0.0
H10215 H 0.80763 0.11193 0.09948 0.0
H10216 H 0.79223 0.12746 0.1087 0.0
H10217 H 0.79956 0.12201 0.09955 0.0
H10218 H 0.81831 0.13002 0.10987 0.0
H10219 H 0.81097 0.13561 0.11886 0.0
C10220 C 0.82512 0.12009 0.09259 0.0
C10221 C 0.82362 0.11292 0.09129 0.0
C10222 C 0.82041 0.12428 0.09645 0.0
C10223 C 0.81408 0.12141 0.09909 0.0
C10224 C 0.81243 0.11434 0.09749 0.0
C10225 C 0.81714 0.11014 0.09364 0.0
C10226 C 0.7979 0.12819 0.1089 0.0
C10227 C 0.80103 0.13191 0.11452 0.0
C10228 C 0.80211 0.12501 0.10371 0.0
C10229 C 0.80953 0.12553 0.10401 0.0
C10230 C 0.81261 0.12956 0.10944 0.0
C10231 C 0.80842 0.13271 0.11463 0.0
H10232 H 0.64851 0.06969 0.83526 0.0
H10233 H 0.65097 0.08233 0.85412 0.0
H10234 H 0.64092 0.06146 0.84179 0.0
H10235 H 0.64366 0.07406 0.86065 0.0
H10236 H 0.6263 0.06168 0.87007 0.0
H10237 H 0.63167 0.06997 0.86178 0.0
H10238 H 0.64213 0.05259 0.85123 0.0
H10239 H 0.63659 0.04428 0.85947 0.0
C10240 C 0.6474 0.07073 0.84078 0.0
C10241 C 0.65038 0.07663 0.84419 0.0
C10242 C 0.6431 0.066 0.84453 0.0
C10243 C 0.64166 0.06711 0.85174 0.0
C10244 C 0.64455 0.07309 0.85508 0.0
C10245 C 0.64884 0.07778 0.85136 0.0
C10246 C 0.62965 0.05963 0.86589 0.0
C10247 C 0.6311 0.05236 0.86544 0.0
C10248 C 0.63276 0.06437 0.86117 0.0
C10249 C 0.63744 0.06196 0.85593 0.0
C10250 C 0.63852 0.05463 0.85519 0.0
C10251 C 0.63536 0.04986 0.8599 0.0
H10252 H 0.85569 0.94736 0.34226 0.0
H10253 H 0.87368 0.93328 0.34211 0.0
H10254 H 0.8624 0.95588 0.34922 0.0
H10255 H 0.88043 0.94183 0.34902 0.0
H10256 H 0.88494 0.95327 0.3702 0.0
H10257 H 0.8799 0.94567 0.36114 0.0
H10258 H 0.87231 0.96408 0.34991 0.0
H10259 H 0.87721 0.97171 0.35916 0.0
C10260 C 0.86114 0.94616 0.34357 0.0
C10261 C 0.86413 0.93961 0.3417 0.0
C10262 C 0.86499 0.95105 0.34756 0.0
C10263 C 0.87194 0.94952 0.34974 0.0
C10264 C 0.87505 0.94312 0.34754 0.0
C10265 C 0.87119 0.93822 0.34359 0.0
C10266 C 0.88224 0.9557 0.36576 0.0
C10267 C 0.8814 0.96308 0.36543 0.0
C10268 C 0.87941 0.95134 0.36052 0.0
C10269 C 0.87567 0.95426 0.3548 0.0
C10270 C 0.8751 0.96167 0.35429 0.0
C10271 C 0.87796 0.96604 0.35955 0.0
H10272 H 0.42262 0.33069 0.11912 0.0
H10273 H 0.41903 0.31741 0.10089 0.0
H10274 H 0.4158 0.32252 0.1264 0.0
H10275 H 0.41201 0.30937 0.10811 0.0
H10276 H 0.40336 0.29357 0.12376 0.0
H10277 H 0.41221 0.30083 0.11777 0.0
H10278 H 0.40332 0.31958 0.12735 0.0
H10279 H 0.39464 0.31232 0.1335 0.0
C10280 C 0.42046 0.32598 0.11669 0.0
C10281 C 0.42133 0.32473 0.10941 0.0
C10282 C 0.41649 0.32133 0.12085 0.0
C10283 C 0.41331 0.31532 0.11783 0.0
C10284 C 0.41442 0.31392 0.11062 0.0
C10285 C 0.41838 0.31857 0.10646 0.0
C10286 C 0.40339 0.29923 0.12469 0.0
C10287 C 0.39827 0.30238 0.12907 0.0
C10288 C 0.40842 0.30339 0.12121 0.0
C10289 C 0.40845 0.31079 0.12205 0.0
C10290 C 0.40349 0.31389 0.12663 0.0
C10291 C 0.39847 0.30974 0.13009 0.0
H10292 H 0.44385 0.67782 0.864 0.0
H10293 H 0.42998 0.65968 0.86346 0.0
H10294 H 0.45225 0.67113 0.87125 0.0
H10295 H 0.43841 0.65297 0.87042 0.0
H10296 H 0.45181 0.64367 0.88728 0.0
H10297 H 0.44348 0.65199 0.88201 0.0
H10298 H 0.46043 0.66121 0.8698 0.0
H10299 H 0.46879 0.65295 0.8752 0.0
C10300 C 0.44257 0.67243 0.86547 0.0
C10301 C 0.43627 0.66926 0.86311 0.0
C10302 C 0.44741 0.66858 0.86956 0.0
C10303 C 0.44601 0.66151 0.87142 0.0
C10304 C 0.43963 0.65842 0.86918 0.0
C10305 C 0.43482 0.66225 0.8651 0.0
C10306 C 0.45376 0.64753 0.88352 0.0
C10307 C 0.46092 0.64762 0.88159 0.0
C10308 C 0.44899 0.65228 0.88049 0.0
C10309 C 0.45126 0.65719 0.87539 0.0
C10310 C 0.45851 0.65753 0.87374 0.0
C10311 C 0.4633 0.65279 0.87682 0.0
H10312 H 0.08981 0.68522 0.62018 0.0
H10313 H 0.0934 0.69868 0.60209 0.0
H10314 H 0.09663 0.69331 0.62755 0.0
H10315 H 0.10045 0.70662 0.60938 0.0
H10316 H 0.10974 0.72203 0.62496 0.0
H10317 H 0.10057 0.71505 0.6191 0.0
H10318 H 0.10911 0.69603 0.62846 0.0
H10319 H 0.11808 0.70301 0.63448 0.0
C10320 C 0.09196 0.68996 0.6178 0.0
C10321 C 0.09111 0.69127 0.61053 0.0
C10322 C 0.09594 0.69456 0.622 0.0
C10323 C 0.09915 0.70058 0.61905 0.0
C10324 C 0.09801 0.70206 0.61185 0.0
C10325 C 0.09404 0.69746 0.60765 0.0
C10326 C 0.10955 0.71638 0.62588 0.0
C10327 C 0.11467 0.71306 0.63014 0.0
C10328 C 0.10435 0.71237 0.62247 0.0
C10329 C 0.10413 0.70497 0.62327 0.0
C10330 C 0.10907 0.70171 0.62777 0.0
C10331 C 0.11427 0.70571 0.63116 0.0
H10332 H 0.06809 0.34549 0.35343 0.0
H10333 H 0.08104 0.34277 0.37204 0.0
H10334 H 0.05969 0.35246 0.36026 0.0
H10335 H 0.07249 0.34955 0.37896 0.0
H10336 H 0.06138 0.37067 0.3851 0.0
H10337 H 0.06908 0.36196 0.37954 0.0
H10338 H 0.05094 0.35221 0.36965 0.0
H10339 H 0.04326 0.36109 0.37502 0.0
C10340 C 0.0691 0.34632 0.359 0.0
C10341 C 0.07527 0.34364 0.36217 0.0
C10342 C 0.06424 0.35025 0.36294 0.0
C10343 C 0.06543 0.35159 0.37015 0.0
C10344 C 0.07146 0.34868 0.37339 0.0
C10345 C 0.07632 0.34473 0.36945 0.0
C10346 C 0.05903 0.36665 0.38176 0.0
C10347 C 0.05171 0.36661 0.38045 0.0
C10348 C 0.06344 0.3616 0.37864 0.0
C10349 C 0.06063 0.35641 0.37411 0.0
C10350 C 0.05328 0.3562 0.37303 0.0
C10351 C 0.04887 0.36124 0.37617 0.0
H10352 H 0.4235 0.68368 0.39424 0.0
H10353 H 0.42152 0.69805 0.41188 0.0
H10354 H 0.4166 0.69176 0.38691 0.0
H10355 H 0.41444 0.70601 0.40463 0.0
H10356 H 0.4049 0.72111 0.3888 0.0
H10357 H 0.41416 0.714 0.39441 0.0
H10358 H 0.40411 0.69495 0.38679 0.0
H10359 H 0.395 0.70204 0.38108 0.0
C10360 C 0.4217 0.68862 0.39652 0.0
C10361 C 0.42301 0.69019 0.40366 0.0
C10362 C 0.41768 0.69321 0.39234 0.0
C10363 C 0.41491 0.6995 0.3952 0.0
C10364 C 0.41653 0.70124 0.40224 0.0
C10365 C 0.42052 0.69664 0.40642 0.0
C10366 C 0.40477 0.71541 0.38821 0.0
C10367 C 0.3992 0.71212 0.38455 0.0
C10368 C 0.41003 0.71134 0.39147 0.0
C10369 C 0.40985 0.70391 0.39108 0.0
C10370 C 0.40445 0.70065 0.38715 0.0
C10371 C 0.39919 0.70471 0.38393 0.0
H10372 H 0.06744 0.67876 0.15043 0.0
H10373 H 0.07794 0.66007 0.15835 0.0
H10374 H 0.05907 0.67126 0.14394 0.0
H10375 H 0.06973 0.65265 0.15186 0.0
H10376 H 0.05019 0.64088 0.14616 0.0
H10377 H 0.05755 0.6493 0.15252 0.0
H10378 H 0.05804 0.66282 0.13411 0.0
H10379 H 0.05047 0.65438 0.12778 0.0
C10380 C 0.06799 0.67306 0.15074 0.0
C10381 C 0.07327 0.67 0.15499 0.0
C10382 C 0.06321 0.66877 0.14703 0.0
C10383 C 0.06365 0.66135 0.14747 0.0
C10384 C 0.06909 0.65833 0.15156 0.0
C10385 C 0.07381 0.66259 0.15527 0.0
C10386 C 0.05184 0.64567 0.14349 0.0
C10387 C 0.04985 0.64694 0.13646 0.0
C10388 C 0.05608 0.65049 0.14712 0.0
C10389 C 0.05851 0.65667 0.14378 0.0
C10390 C 0.05625 0.65811 0.13684 0.0
C10391 C 0.05193 0.65329 0.13321 0.0
H10392 H 0.09136 0.33065 0.89128 0.0
H10393 H 0.09527 0.31825 0.91006 0.0
H10394 H 0.09802 0.32208 0.88427 0.0
H10395 H 0.10212 0.30984 0.90312 0.0
H10396 H 0.11079 0.29335 0.8885 0.0
H10397 H 0.10183 0.30085 0.89399 0.0
H10398 H 0.11044 0.31905 0.88319 0.0
H10399 H 0.11921 0.31151 0.87752 0.0
C10400 C 0.09356 0.32605 0.8939 0.0
C10401 C 0.09284 0.32516 0.90124 0.0
C10402 C 0.09743 0.32118 0.88989 0.0
C10403 C 0.10065 0.3153 0.89314 0.0
C10404 C 0.09967 0.31427 0.90043 0.0
C10405 C 0.09581 0.31913 0.90443 0.0
C10406 C 0.11066 0.29892 0.88718 0.0
C10407 C 0.11575 0.30184 0.88262 0.0
C10408 C 0.10557 0.30323 0.89038 0.0
C10409 C 0.10545 0.31056 0.88908 0.0
C10410 C 0.11034 0.31342 0.88427 0.0
C10411 C 0.11542 0.30911 0.88108 0.0
H10412 H 0.43331 0.34143 0.64243 0.0
H10413 H 0.44684 0.34429 0.66061 0.0
H10414 H 0.44146 0.3484 0.63528 0.0
H10415 H 0.45484 0.35147 0.65354 0.0
H10416 H 0.47041 0.36082 0.63815 0.0
H10417 H 0.46325 0.35168 0.64382 0.0
H10418 H 0.4444 0.36089 0.63475 0.0
H10419 H 0.45157 0.36984 0.6289 0.0
C10420 C 0.43807 0.34346 0.64488 0.0
C10421 C 0.43939 0.34235 0.65211 0.0
C10422 C 0.44271 0.34752 0.6408 0.0
C10423 C 0.44877 0.35056 0.64385 0.0
C10424 C 0.45025 0.34918 0.651 0.0
C10425 C 0.44562 0.34512 0.65508 0.0
C10426 C 0.46475 0.3608 0.63725 0.0
C10427 C 0.46155 0.36608 0.63312 0.0
C10428 C 0.46065 0.35561 0.64056 0.0
C10429 C 0.45325 0.35558 0.63977 0.0
C10430 C 0.45008 0.36071 0.63542 0.0
C10431 C 0.45418 0.36589 0.63213 0.0
H10432 H 0.10253 0.42016 0.31483 0.0
H10433 H 0.12038 0.42181 0.32899 0.0
H10434 H 0.10963 0.4131 0.30671 0.0
H10435 H 0.12755 0.41493 0.32076 0.0
H10436 H 0.13323 0.39353 0.31005 0.0
H10437 H 0.12754 0.40248 0.31736 0.0
H10438 H 0.11979 0.41294 0.29859 0.0
H10439 H 0.12538 0.40384 0.29126 0.0
C10440 C 0.108 0.41909 0.31617 0.0
C10441 C 0.11087 0.42149 0.32259 0.0
C10442 C 0.11209 0.41511 0.31147 0.0
C10443 C 0.11915 0.41342 0.3131 0.0
C10444 C 0.12211 0.41608 0.31938 0.0
C10445 C 0.11802 0.42008 0.32407 0.0
C10446 C 0.13035 0.39777 0.30749 0.0
C10447 C 0.12969 0.39795 0.30009 0.0
C10448 C 0.12715 0.40294 0.31167 0.0
C10449 C 0.12319 0.40842 0.30857 0.0
C10450 C 0.12275 0.40875 0.30115 0.0
C10451 C 0.126 0.40358 0.29695 0.0
H10452 H 0.33563 0.36292 0.06776 0.0
H10453 H 0.35465 0.35569 0.07814 0.0
H10454 H 0.34283 0.3695 0.05922 0.0
H10455 H 0.36178 0.36224 0.06973 0.0
H10456 H 0.3731 0.36801 0.04995 0.0
H10457 H 0.36493 0.36148 0.05744 0.0
H10458 H 0.35102 0.37962 0.05808 0.0
H10459 H 0.3592 0.38612 0.0504 0.0
C10460 C 0.34134 0.36277 0.06824 0.0
C10461 C 0.34458 0.3587 0.07356 0.0
C10462 C 0.34546 0.36654 0.06336 0.0
C10463 C 0.35289 0.3663 0.06372 0.0
C10464 C 0.35608 0.36238 0.06916 0.0
C10465 C 0.35199 0.35863 0.074 0.0
C10466 C 0.36827 0.37058 0.05166 0.0
C10467 C 0.36682 0.3776 0.04969 0.0
C10468 C 0.3636 0.36686 0.05597 0.0
C10469 C 0.35739 0.37008 0.05848 0.0
C10470 C 0.35575 0.37699 0.05623 0.0
C10471 C 0.36043 0.38071 0.05185 0.0
H10472 H 0.41155 0.59349 0.81457 0.0
H10473 H 0.39384 0.59218 0.82891 0.0
H10474 H 0.40447 0.60061 0.80648 0.0
H10475 H 0.38668 0.59911 0.82071 0.0
H10476 H 0.38123 0.62056 0.80999 0.0
H10477 H 0.38683 0.61154 0.81727 0.0
H10478 H 0.39424 0.60091 0.79846 0.0
H10479 H 0.38874 0.61009 0.79116 0.0
C10480 C 0.40612 0.59465 0.81595 0.0
C10481 C 0.40329 0.59233 0.82242 0.0
C10482 C 0.40203 0.59866 0.81128 0.0
C10483 C 0.39502 0.60046 0.81297 0.0
C10484 C 0.39209 0.59788 0.81929 0.0
C10485 C 0.39618 0.59385 0.82396 0.0
C10486 C 0.38401 0.61627 0.80741 0.0
C10487 C 0.3846 0.61607 0.80001 0.0
C10488 C 0.38717 0.61106 0.81158 0.0
C10489 C 0.39101 0.60551 0.80845 0.0
C10490 C 0.39138 0.60516 0.80103 0.0
C10491 C 0.38818 0.61037 0.79685 0.0
H10492 H 0.16962 0.66108 0.56511 0.0
H10493 H 0.17345 0.64301 0.57855 0.0
H10494 H 0.16269 0.65369 0.55716 0.0
H10495 H 0.16675 0.63555 0.57044 0.0
H10496 H 0.14527 0.6285 0.56077 0.0
H10497 H 0.15427 0.63451 0.56774 0.0
H10498 H 0.16267 0.64397 0.54873 0.0
H10499 H 0.15348 0.63811 0.54178 0.0
C10500 C 0.16906 0.65551 0.56632 0.0
C10501 C 0.17202 0.65266 0.57252 0.0
C10502 C 0.16516 0.65125 0.56171 0.0
C10503 C 0.16412 0.64403 0.56318 0.0
C10504 C 0.16737 0.64111 0.5692 0.0
C10505 C 0.17128 0.64537 0.57381 0.0
C10506 C 0.14907 0.63182 0.55808 0.0
C10507 C 0.14862 0.63289 0.55074 0.0
C10508 C 0.15429 0.63521 0.56206 0.0
C10509 C 0.15918 0.63976 0.5588 0.0
C10510 C 0.15893 0.64057 0.55141 0.0
C10511 C 0.15371 0.63716 0.54742 0.0
H10512 H 0.11946 0.59124 0.18343 0.0
H10513 H 0.1015 0.59326 0.19739 0.0
H10514 H 0.12664 0.59808 0.19168 0.0
H10515 H 0.10862 0.60028 0.20553 0.0
H10516 H 0.12429 0.60947 0.22105 0.0
H10517 H 0.11874 0.60033 0.21374 0.0
H10518 H 0.1267 0.6106 0.19496 0.0
H10519 H 0.13234 0.61959 0.20226 0.0
C10520 C 0.11707 0.59305 0.18831 0.0
C10521 C 0.10989 0.59175 0.18972 0.0
C10522 C 0.12117 0.59702 0.193 0.0
C10523 C 0.11819 0.59977 0.19923 0.0
C10524 C 0.1111 0.5982 0.20081 0.0
C10525 C 0.107 0.59424 0.1961 0.0
C10526 C 0.12497 0.60967 0.21537 0.0
C10527 C 0.1287 0.61527 0.21221 0.0
C10528 C 0.12174 0.60448 0.21118 0.0
C10529 C 0.12225 0.60476 0.20377 0.0
C10530 C 0.12626 0.61019 0.20065 0.0
C10531 C 0.12944 0.61538 0.20483 0.0
H10532 H 0.17179 0.37106 0.9343 0.0
H10533 H 0.17048 0.35319 0.94846 0.0
H10534 H 0.16486 0.37814 0.94256 0.0
H10535 H 0.16336 0.36019 0.95662 0.0
H10536 H 0.15393 0.37584 0.97208 0.0
H10537 H 0.16309 0.37039 0.96473 0.0
H10538 H 0.15239 0.37787 0.94598 0.0
H10539 H 0.14337 0.38341 0.95331 0.0
C10540 C 0.17012 0.36867 0.93923 0.0
C10541 C 0.17164 0.36154 0.9407 0.0
C10542 C 0.16609 0.37271 0.94393 0.0
C10543 C 0.1635 0.36971 0.95022 0.0
C10544 C 0.16531 0.36268 0.95185 0.0
C10545 C 0.16932 0.35864 0.94713 0.0
C10546 C 0.15363 0.37642 0.96639 0.0
C10547 C 0.14791 0.38 0.96326 0.0
C10548 C 0.15883 0.37326 0.96218 0.0
C10549 C 0.15846 0.37367 0.95477 0.0
C10550 C 0.15289 0.37751 0.95167 0.0
C10551 C 0.14768 0.38063 0.95587 0.0
H10552 H 0.41362 0.4215 0.70011 0.0
H10553 H 0.39506 0.42133 0.6868 0.0
H10554 H 0.40739 0.41441 0.70889 0.0
H10555 H 0.38883 0.41423 0.69558 0.0
H10556 H 0.37803 0.40446 0.71466 0.0
H10557 H 0.38388 0.41362 0.70761 0.0
H10558 H 0.40357 0.40211 0.70913 0.0
H10559 H 0.39779 0.39311 0.71627 0.0
C10560 C 0.4082 0.41998 0.69908 0.0
C10561 C 0.40487 0.42191 0.69272 0.0
C10562 C 0.40463 0.41592 0.70411 0.0
C10563 C 0.39764 0.41369 0.70291 0.0
C10564 C 0.39419 0.41592 0.69671 0.0
C10565 C 0.39776 0.41999 0.69167 0.0
C10566 C 0.38364 0.40397 0.71359 0.0
C10567 C 0.38744 0.39804 0.71596 0.0
C10568 C 0.38697 0.40918 0.7095 0.0
C10569 C 0.39418 0.40858 0.70778 0.0
C10570 C 0.39803 0.40278 0.71041 0.0
C10571 C 0.3947 0.39758 0.71444 0.0
H10572 H 0.33469 0.65036 0.44632 0.0
H10573 H 0.35374 0.65854 0.43677 0.0
H10574 H 0.34186 0.64372 0.45486 0.0
H10575 H 0.36084 0.65192 0.44515 0.0
H10576 H 0.372 0.64551 0.46472 0.0
H10577 H 0.36373 0.65222 0.45749 0.0
H10578 H 0.35027 0.63381 0.45583 0.0
H10579 H 0.35855 0.62715 0.46329 0.0
C10580 C 0.3404 0.65071 0.44603 0.0
C10581 C 0.34365 0.65505 0.44094 0.0
C10582 C 0.3445 0.64691 0.4509 0.0
C10583 C 0.35193 0.64738 0.45076 0.0
C10584 C 0.35514 0.6516 0.44556 0.0
C10585 C 0.35106 0.65539 0.44073 0.0
C10586 C 0.36724 0.64293 0.46287 0.0
C10587 C 0.36595 0.6358 0.46447 0.0
C10588 C 0.36251 0.64675 0.45869 0.0
C10589 C 0.35641 0.64351 0.45595 0.0
C10590 C 0.35492 0.63647 0.45787 0.0
C10591 C 0.35965 0.63265 0.46212 0.0
H10592 H 0.33089 0.1216 0.42174 0.0
H10593 H 0.31751 0.10328 0.4191 0.0
H10594 H 0.32257 0.12868 0.41485 0.0
H10595 H 0.30933 0.11027 0.41201 0.0
H10596 H 0.29327 0.12553 0.40337 0.0
H10597 H 0.30082 0.11989 0.41219 0.0
H10598 H 0.31921 0.12929 0.40245 0.0
H10599 H 0.31165 0.13513 0.3938 0.0
C10600 C 0.32613 0.11911 0.41977 0.0
C10601 C 0.32488 0.11186 0.42093 0.0
C10602 C 0.3214 0.12314 0.41576 0.0
C10603 C 0.31531 0.12003 0.41284 0.0
C10604 C 0.31394 0.11285 0.41423 0.0
C10605 C 0.31867 0.10882 0.41822 0.0
C10606 C 0.29891 0.12651 0.4032 0.0
C10607 C 0.30186 0.13074 0.39786 0.0
C10608 C 0.30324 0.12322 0.40821 0.0
C10609 C 0.31062 0.12409 0.408 0.0
C10610 C 0.31354 0.12854 0.40281 0.0
C10611 C 0.30922 0.13183 0.3978 0.0
H10612 H 0.83226 0.40292 0.60343 0.0
H10613 H 0.81848 0.40145 0.58528 0.0
H10614 H 0.82421 0.39555 0.61019 0.0
H10615 H 0.81045 0.39384 0.59203 0.0
H10616 H 0.79425 0.38916 0.61045 0.0
H10617 H 0.80222 0.39502 0.60212 0.0
H10618 H 0.81987 0.38353 0.611 0.0
H10619 H 0.81193 0.37776 0.61934 0.0
C10620 C 0.82751 0.401 0.60088 0.0
C10621 C 0.82598 0.40282 0.59384 0.0
C10622 C 0.82293 0.39669 0.60472 0.0
C10623 C 0.81669 0.39408 0.60164 0.0
C10624 C 0.81519 0.3958 0.59457 0.0
C10625 C 0.81981 0.40011 0.59069 0.0
C10626 C 0.79981 0.38779 0.61051 0.0
C10627 C 0.80249 0.38308 0.6156 0.0
C10628 C 0.80438 0.39114 0.60574 0.0
C10629 C 0.8117 0.38982 0.60597 0.0
C10630 C 0.81429 0.38478 0.61079 0.0
C10631 C 0.80974 0.38147 0.61555 0.0
H10632 H 0.35176 0.06767 0.34475 0.0
H10633 H 0.36988 0.08086 0.34036 0.0
H10634 H 0.35919 0.05977 0.3517 0.0
H10635 H 0.37737 0.0728 0.3471 0.0
H10636 H 0.38498 0.06322 0.36837 0.0
H10637 H 0.37866 0.07021 0.35959 0.0
H10638 H 0.36884 0.05121 0.35153 0.0
H10639 H 0.37501 0.04423 0.3605 0.0
C10640 C 0.35735 0.06884 0.3452 0.0
C10641 C 0.36021 0.07494 0.34206 0.0
C10642 C 0.36163 0.06426 0.34912 0.0
C10643 C 0.36887 0.06567 0.35 0.0
C10644 C 0.37179 0.07161 0.3466 0.0
C10645 C 0.36751 0.07619 0.34267 0.0
C10646 C 0.38149 0.06053 0.3647 0.0
C10647 C 0.38044 0.05318 0.36517 0.0
C10648 C 0.37793 0.06452 0.35962 0.0
C10649 C 0.37322 0.06127 0.35487 0.0
C10650 C 0.37237 0.05388 0.35516 0.0
C10651 C 0.37596 0.04988 0.36025 0.0
H10652 H 0.68408 0.62122 0.09123 0.0
H10653 H 0.69751 0.60304 0.09463 0.0
H10654 H 0.69229 0.62855 0.09796 0.0
H10655 H 0.70558 0.6103 0.10157 0.0
H10656 H 0.72131 0.6259 0.1103 0.0
H10657 H 0.71405 0.62 0.10138 0.0
H10658 H 0.69532 0.62948 0.1104 0.0
H10659 H 0.70259 0.63553 0.11914 0.0
C10660 C 0.68883 0.61881 0.09333 0.0
C10661 C 0.69011 0.61153 0.09243 0.0
C10662 C 0.6935 0.62299 0.09725 0.0
C10663 C 0.69956 0.62 0.10036 0.0
C10664 C 0.70099 0.61279 0.09921 0.0
C10665 C 0.69632 0.60861 0.0953 0.0
C10666 C 0.71566 0.62683 0.11028 0.0
C10667 C 0.71251 0.63114 0.11546 0.0
C10668 C 0.71149 0.6234 0.10521 0.0
C10669 C 0.7041 0.62422 0.10521 0.0
C10670 C 0.701 0.62877 0.11021 0.0
C10671 C 0.70516 0.63218 0.11527 0.0
H10672 H 0.66074 0.44875 0.34258 0.0
H10673 H 0.64328 0.43414 0.34085 0.0
H10674 H 0.65351 0.45656 0.34984 0.0
H10675 H 0.63596 0.44207 0.34793 0.0
H10676 H 0.63039 0.4522 0.36967 0.0
H10677 H 0.63602 0.44522 0.36043 0.0
H10678 H 0.64319 0.46441 0.35031 0.0
H10679 H 0.63768 0.4714 0.3597 0.0
C10680 C 0.65533 0.44725 0.34368 0.0
C10681 C 0.65261 0.44078 0.3412 0.0
C10682 C 0.65115 0.45177 0.34777 0.0
C10683 C 0.64416 0.44992 0.3495 0.0
C10684 C 0.64135 0.44361 0.34676 0.0
C10685 C 0.64552 0.43909 0.34265 0.0
C10686 C 0.63312 0.45493 0.36544 0.0
C10687 C 0.63366 0.46234 0.36544 0.0
C10688 C 0.63629 0.45093 0.3601 0.0
C10689 C 0.64008 0.45425 0.35464 0.0
C10690 C 0.64036 0.46169 0.35448 0.0
C10691 C 0.63716 0.4657 0.35982 0.0
H10692 H 0.19503 0.90149 0.9274 0.0
H10693 H 0.18086 0.90128 0.9095 0.0
H10694 H 0.2034 0.89409 0.92084 0.0
H10695 H 0.18926 0.89414 0.9029 0.0
H10696 H 0.20272 0.87701 0.89407 0.0
H10697 H 0.19447 0.88249 0.90232 0.0
H10698 H 0.21138 0.89538 0.91069 0.0
H10699 H 0.21966 0.88981 0.90248 0.0
C10700 C 0.19368 0.89982 0.92209 0.0
C10701 C 0.18731 0.90201 0.91895 0.0
C10702 C 0.1985 0.89564 0.91832 0.0
C10703 C 0.19701 0.89352 0.91134 0.0
C10704 C 0.19055 0.89558 0.90829 0.0
C10705 C 0.18577 0.89976 0.91204 0.0
C10706 C 0.20468 0.88096 0.89773 0.0
C10707 C 0.21181 0.88304 0.89757 0.0
C10708 C 0.19996 0.88412 0.90244 0.0
C10709 C 0.20224 0.88945 0.90709 0.0
C10710 C 0.20945 0.89125 0.90721 0.0
C10711 C 0.2142 0.88806 0.90251 0.0
H10712 H 0.36363 0.94533 0.17725 0.0
H10713 H 0.36212 0.9313 0.1593 0.0
H10714 H 0.37116 0.95331 0.17036 0.0
H10715 H 0.36941 0.93931 0.1524 0.0
H10716 H 0.38693 0.95167 0.14286 0.0
H10717 H 0.38133 0.94375 0.15135 0.0
H10718 H 0.36988 0.96142 0.16024 0.0
H10719 H 0.37557 0.96936 0.15178 0.0
C10720 C 0.36495 0.94393 0.17186 0.0
C10721 C 0.36224 0.93772 0.1688 0.0
C10722 C 0.36921 0.94852 0.1679 0.0
C10723 C 0.3709 0.94695 0.16083 0.0
C10724 C 0.3683 0.94065 0.15785 0.0
C10725 C 0.36404 0.9361 0.16178 0.0
C10726 C 0.38327 0.95387 0.14668 0.0
C10727 C 0.38162 0.96112 0.14661 0.0
C10728 C 0.38005 0.94934 0.15153 0.0
C10729 C 0.37507 0.95193 0.1564 0.0
C10730 C 0.37372 0.95926 0.15659 0.0
C10731 C 0.37697 0.96381 0.15174 0.0
H10732 H 0.14421 0.07888 0.67245 0.0
H10733 H 0.16233 0.06542 0.66897 0.0
H10734 H 0.13691 0.07084 0.66549 0.0
H10735 H 0.15511 0.05753 0.66179 0.0
H10736 H 0.13955 0.04214 0.65237 0.0
H10737 H 0.14539 0.04911 0.66156 0.0
H10738 H 0.1361 0.06816 0.65299 0.0
H10739 H 0.1301 0.06118 0.64399 0.0
C10740 C 0.14661 0.07415 0.67029 0.0
C10741 C 0.15387 0.07282 0.67122 0.0
C10742 C 0.14244 0.06959 0.66623 0.0
C10743 C 0.14543 0.06358 0.66302 0.0
C10744 C 0.15262 0.06208 0.66422 0.0
C10745 C 0.15678 0.06665 0.66827 0.0
C10746 C 0.13865 0.0478 0.65255 0.0
C10747 C 0.13441 0.05112 0.64742 0.0
C10748 C 0.14205 0.0518 0.65777 0.0
C10749 C 0.14125 0.0592 0.65799 0.0
C10750 C 0.13678 0.06247 0.65303 0.0
C10751 C 0.1334 0.05848 0.64781 0.0
loop_
_geom_bond_atom_site_label_1
_geom_bond_atom_site_label_2
_geom_bond_distance
_geom_bond_site_symmetry_2
_ccdc_geom_bond_type
C0 C1 1.264 . S
C0 C5 1.479 . S
C0 C10 1.465 . S
C1 C0 1.264 . S
C1 C3 1.339 . S
C1 H28 0.931 . S
C2 C3 1.395 . S
C2 C4 1.320 . S
C3 C1 1.339 . S
C3 C2 1.395 . S
C3 H29 0.929 . S
C4 C2 1.320 . S
C4 C5 1.405 . S
C4 H30 0.930 . S
C5 C0 1.479 . S
C5 C4 1.405 . S
C5 H31 0.931 . S
U6 O7 2.454 . S
U6 O8 2.458 . S
U6 C9 2.984 . S
U6 C10 2.847 . S
U6 C23 2.882 . S
U6 O24 2.441 . S
U6 O25 2.420 . S
U6 O26 2.455 . S
U6 O27 2.449 . S
O7 U6 2.454 . S
O7 C9 1.353 . S
O8 U6 2.458 . S
O8 C9 1.286 . S
C9 U6 2.984 . S
C9 O7 1.353 . S
C9 O8 1.286 . S
C9 C11 1.363 . S
C10 C0 1.465 . S
C10 U6 2.847 . S
C10 O24 1.249 . S
C10 O25 1.202 . S
C11 C9 1.363 . S
C11 C13 1.408 . S
C11 C16 1.342 . S
C12 C13 1.310 . S
C12 C15 1.461 . S
C12 H32 0.932 . S
C13 C11 1.408 . S
C13 C12 1.310 . S
C13 H33 0.930 . S
C14 C15 1.474 . S
C14 C16 1.285 . S
C14 H34 0.929 . S
C15 C12 1.461 . S
C15 C14 1.474 . S
C16 C11 1.342 . S
C16 C14 1.285 . S
C16 H35 0.930 . S
C17 C20 1.424 . S
C17 C22 1.245 . S
C17 C23 1.428 . S
C18 C21 1.260 . S
C18 C22 1.477 . S
C18 H36 0.932 . S
C19 C20 1.384 . S
C19 C21 1.479 . S
C19 H37 0.929 . S
C20 C17 1.424 . S
C20 C19 1.384 . S
C20 H38 0.928 . S
C21 C18 1.260 . S
C21 C19 1.479 . S
C22 C17 1.245 . S
C22 C18 1.477 . S
C22 H39 0.932 . S
C23 U6 2.882 . S
C23 C17 1.428 . S
C23 O26 1.301 . S
C23 O27 1.282 . S
O24 U6 2.441 . S
O24 C10 1.249 . S
O25 U6 2.420 . S
O25 C10 1.202 . S
O26 U6 2.455 . S
O26 C23 1.301 . S
O27 U6 2.449 . S
O27 C23 1.282 . S
H28 C1 0.931 . S
H29 C3 0.929 . S
H30 C4 0.930 . S
H31 C5 0.931 . S
H32 C12 0.932 . S
H33 C13 0.930 . S
H34 C14 0.929 . S
H35 C16 0.930 . S
H36 C18 0.932 . S
H37 C19 0.929 . S
H38 C20 0.928 . S
H39 C22 0.932 . S
C40 C41 1.264 . S
C40 C45 1.479 . S
C40 C50 1.465 . S
C41 C40 1.264 . S
C41 C43 1.339 . S
C41 H68 0.931 . S
C42 C43 1.395 . S
C42 C44 1.320 . S
C43 C41 1.339 . S
C43 C42 1.395 . S
C43 H69 0.929 . S
C44 C42 1.320 . S
C44 C45 1.405 . S
C44 H70 0.930 . S
C45 C40 1.479 . S
C45 C44 1.405 . S
C45 H71 0.931 . S
U46 O47 2.454 . S
U46 O48 2.458 . S
U46 C49 2.984 . S
U46 C50 2.847 . S
U46 C63 2.882 . S
U46 O64 2.441 . S
U46 O65 2.420 . S
U46 O66 2.455 . S
U46 O67 2.449 . S
O47 U46 2.454 . S
O47 C49 1.353 . S
O48 U46 2.458 . S
O48 C49 1.286 . S
C49 U46 2.984 . S
C49 O47 1.353 . S
C49 O48 1.286 . S
C49 C51 1.363 . S
C50 C40 1.465 . S
C50 U46 2.847 . S
C50 O64 1.249 . S
C50 O65 1.202 . S
C51 C49 1.363 . S
C51 C53 1.408 . S
C51 C56 1.342 . S
C52 C53 1.310 . S
C52 C55 1.461 . S
C52 H72 0.932 . S
C53 C51 1.408 . S
C53 C52 1.310 . S
C53 H73 0.930 . S
C54 C55 1.474 . S
C54 C56 1.285 . S
C54 H74 0.929 . S
C55 C52 1.461 . S
C55 C54 1.474 . S
C56 C51 1.342 . S
C56 C54 1.285 . S
C56 H75 0.930 . S
C57 C60 1.424 . S
C57 C62 1.245 . S
C57 C63 1.428 . S
C58 C61 1.260 . S
C58 C62 1.477 . S
C58 H76 0.932 . S
C59 C60 1.384 . S
C59 C61 1.479 . S
C59 H77 0.929 . S
C60 C57 1.424 . S
C60 C59 1.384 . S
C60 H78 0.928 . S
C61 C58 1.260 . S
C61 C59 1.479 . S
C62 C57 1.245 . S
C62 C58 1.477 . S
C62 H79 0.932 . S
C63 U46 2.882 . S
C63 C57 1.428 . S
C63 O66 1.301 . S
C63 O67 1.282 . S
O64 U46 2.441 . S
O64 C50 1.249 . S
O65 U46 2.420 . S
O65 C50 1.202 . S
O66 U46 2.455 . S
O66 C63 1.301 . S
O67 U46 2.449 . S
O67 C63 1.282 . S
H68 C41 0.931 . S
H69 C43 0.929 . S
H70 C44 0.930 . S
H71 C45 0.931 . S
H72 C52 0.932 . S
H73 C53 0.930 . S
H74 C54 0.929 . S
H75 C56 0.930 . S
H76 C58 0.932 . S
H77 C59 0.929 . S
H78 C60 0.928 . S
H79 C62 0.932 . S
C80 C81 1.264 . S
C80 C85 1.479 . S
C80 C90 1.465 . S
C81 C80 1.264 . S
C81 C83 1.339 . S
C81 H108 0.931 . S
C82 C83 1.395 . S
C82 C84 1.320 . S
C83 C81 1.339 . S
C83 C82 1.395 . S
C83 H109 0.929 . S
C84 C82 1.320 . S
C84 C85 1.405 . S
C84 H110 0.930 . S
C85 C80 1.479 . S
C85 C84 1.405 . S
C85 H111 0.931 . S
U86 O87 2.454 . S
U86 O88 2.458 . S
U86 C89 2.984 . S
U86 C90 2.847 . S
U86 C103 2.882 . S
U86 O104 2.441 . S
U86 O105 2.420 . S
U86 O106 2.455 . S
U86 O107 2.449 . S
O87 U86 2.454 . S
O87 C89 1.353 . S
O88 U86 2.458 . S
O88 C89 1.286 . S
C89 U86 2.984 . S
C89 O87 1.353 . S
C89 O88 1.286 . S
C89 C91 1.363 . S
C90 C80 1.465 . S
C90 U86 2.847 . S
C90 O104 1.249 . S
C90 O105 1.202 . S
C91 C89 1.363 . S
C91 C93 1.408 . S
C91 C96 1.342 . S
C92 C93 1.310 . S
C92 C95 1.461 . S
C92 H112 0.932 . S
C93 C91 1.408 . S
C93 C92 1.310 . S
C93 H113 0.930 . S
C94 C95 1.474 . S
C94 C96 1.285 . S
C94 H114 0.929 . S
C95 C92 1.461 . S
C95 C94 1.474 . S
C96 C91 1.342 . S
C96 C94 1.285 . S
C96 H115 0.930 . S
C97 C100 1.424 . S
C97 C102 1.245 . S
C97 C103 1.428 . S
C98 C101 1.260 . S
C98 C102 1.477 . S
C98 H116 0.932 . S
C99 C100 1.384 . S
C99 C101 1.479 . S
C99 H117 0.929 . S
C100 C97 1.424 . S
C100 C99 1.384 . S
C100 H118 0.928 . S
C101 C98 1.260 . S
C101 C99 1.479 . S
C102 C97 1.245 . S
C102 C98 1.477 . S
C102 H119 0.932 . S
C103 U86 2.882 . S
C103 C97 1.428 . S
C103 O106 1.301 . S
C103 O107 1.282 . S
O104 U86 2.441 . S
O104 C90 1.249 . S
O105 U86 2.420 . S
O105 C90 1.202 . S
O106 U86 2.455 . S
O106 C103 1.301 . S
O107 U86 2.449 . S
O107 C103 1.282 . S
H108 C81 0.931 . S
H109 C83 0.929 . S
H110 C84 0.930 . S
H111 C85 0.931 . S
H112 C92 0.932 . S
H113 C93 0.930 . S
H114 C94 0.929 . S
H115 C96 0.930 . S
H116 C98 0.932 . S
H117 C99 0.929 . S
H118 C100 0.928 . S
H119 C102 0.932 . S
C120 C121 1.264 . S
C120 C125 1.479 . S
C120 C130 1.465 . S
C121 C120 1.264 . S
C121 C123 1.339 . S
C121 H148 0.931 . S
C122 C123 1.395 . S
C122 C124 1.320 . S
C123 C121 1.339 . S
C123 C122 1.395 . S
C123 H149 0.929 . S
C124 C122 1.320 . S
C124 C125 1.405 . S
C124 H150 0.930 . S
C125 C120 1.479 . S
C125 C124 1.405 . S
C125 H151 0.931 . S
U126 O127 2.454 . S
U126 O128 2.458 . S
U126 C129 2.984 . S
U126 C130 2.847 . S
U126 C143 2.882 . S
U126 O144 2.441 . S
U126 O145 2.420 . S
U126 O146 2.455 . S
U126 O147 2.449 . S
O127 U126 2.454 . S
O127 C129 1.353 . S
O128 U126 2.458 . S
O128 C129 1.286 . S
C129 U126 2.984 . S
C129 O127 1.353 . S
C129 O128 1.286 . S
C129 C131 1.363 . S
C130 C120 1.465 . S
C130 U126 2.847 . S
C130 O144 1.249 . S
C130 O145 1.202 . S
C131 C129 1.363 . S
C131 C133 1.408 . S
C131 C136 1.342 . S
C132 C133 1.310 . S
C132 C135 1.461 . S
C132 H152 0.932 . S
C133 C131 1.408 . S
C133 C132 1.310 . S
C133 H153 0.930 . S
C134 C135 1.474 . S
C134 C136 1.285 . S
C134 H154 0.929 . S
C135 C132 1.461 . S
C135 C134 1.474 . S
C136 C131 1.342 . S
C136 C134 1.285 . S
C136 H155 0.930 . S
C137 C140 1.424 . S
C137 C142 1.245 . S
C137 C143 1.428 . S
C138 C141 1.260 . S
C138 C142 1.477 . S
C138 H156 0.932 . S
C139 C140 1.384 . S
C139 C141 1.479 . S
C139 H157 0.929 . S
C140 C137 1.424 . S
C140 C139 1.384 . S
C140 H158 0.928 . S
C141 C138 1.260 . S
C141 C139 1.479 . S
C142 C137 1.245 . S
C142 C138 1.477 . S
C142 H159 0.932 . S
C143 U126 2.882 . S
C143 C137 1.428 . S
C143 O146 1.301 . S
C143 O147 1.282 . S
O144 U126 2.441 . S
O144 C130 1.249 . S
O145 U126 2.420 . S
O145 C130 1.202 . S
O146 U126 2.455 . S
O146 C143 1.301 . S
O147 U126 2.449 . S
O147 C143 1.282 . S
H148 C121 0.931 . S
H149 C123 0.929 . S
H150 C124 0.930 . S
H151 C125 0.931 . S
H152 C132 0.932 . S
H153 C133 0.930 . S
H154 C134 0.929 . S
H155 C136 0.930 . S
H156 C138 0.932 . S
H157 C139 0.929 . S
H158 C140 0.928 . S
H159 C142 0.932 . S
C160 C161 1.264 . S
C160 C165 1.479 . S
C160 C170 1.465 . S
C161 C160 1.264 . S
C161 C163 1.339 . S
C161 H188 0.931 . S
C162 C163 1.395 . S
C162 C164 1.320 . S
C163 C161 1.339 . S
C163 C162 1.395 . S
C163 H189 0.929 . S
C164 C162 1.320 . S
C164 C165 1.405 . S
C164 H190 0.930 . S
C165 C160 1.479 . S
C165 C164 1.405 . S
C165 H191 0.931 . S
U166 O167 2.454 . S
U166 O168 2.458 . S
U166 C169 2.984 . S
U166 C170 2.847 . S
U166 C183 2.882 . S
U166 O184 2.441 . S
U166 O185 2.420 . S
U166 O186 2.455 . S
U166 O187 2.449 . S
O167 U166 2.454 . S
O167 C169 1.353 . S
O168 U166 2.458 . S
O168 C169 1.286 . S
C169 U166 2.984 . S
C169 O167 1.353 . S
C169 O168 1.286 . S
C169 C171 1.363 . S
C170 C160 1.465 . S
C170 U166 2.847 . S
C170 O184 1.249 . S
C170 O185 1.202 . S
C171 C169 1.363 . S
C171 C173 1.408 . S
C171 C176 1.342 . S
C172 C173 1.310 . S
C172 C175 1.461 . S
C172 H192 0.932 . S
C173 C171 1.408 . S
C173 C172 1.310 . S
C173 H193 0.930 . S
C174 C175 1.474 . S
C174 C176 1.285 . S
C174 H194 0.929 . S
C175 C172 1.461 . S
C175 C174 1.474 . S
C176 C171 1.342 . S
C176 C174 1.285 . S
C176 H195 0.930 . S
C177 C180 1.424 . S
C177 C182 1.245 . S
C177 C183 1.428 . S
C178 C181 1.260 . S
C178 C182 1.477 . S
C178 H196 0.932 . S
C179 C180 1.384 . S
C179 C181 1.479 . S
C179 H197 0.929 . S
C180 C177 1.424 . S
C180 C179 1.384 . S
C180 H198 0.928 . S
C181 C178 1.260 . S
C181 C179 1.479 . S
C182 C177 1.245 . S
C182 C178 1.477 . S
C182 H199 0.932 . S
C183 U166 2.882 . S
C183 C177 1.428 . S
C183 O186 1.301 . S
C183 O187 1.282 . S
O184 U166 2.441 . S
O184 C170 1.249 . S
O185 U166 2.420 . S
O185 C170 1.202 . S
O186 U166 2.455 . S
O186 C183 1.301 . S
O187 U166 2.449 . S
O187 C183 1.282 . S
H188 C161 0.931 . S
H189 C163 0.929 . S
H190 C164 0.930 . S
H191 C165 0.931 . S
H192 C172 0.932 . S
H193 C173 0.930 . S
H194 C174 0.929 . S
H195 C176 0.930 . S
H196 C178 0.932 . S
H197 C179 0.929 . S
H198 C180 0.928 . S
H199 C182 0.932 . S
C200 C201 1.264 . S
C200 C205 1.479 . S
C200 C210 1.465 . S
C201 C200 1.264 . S
C201 C203 1.339 . S
C201 H228 0.931 . S
C202 C203 1.395 . S
C202 C204 1.320 . S
C203 C201 1.339 . S
C203 C202 1.395 . S
C203 H229 0.929 . S
C204 C202 1.320 . S
C204 C205 1.405 . S
C204 H230 0.930 . S
C205 C200 1.479 . S
C205 C204 1.405 . S
C205 H231 0.931 . S
U206 O207 2.454 . S
U206 O208 2.458 . S
U206 C209 2.984 . S
U206 C210 2.847 . S
U206 C223 2.882 . S
U206 O224 2.441 . S
U206 O225 2.420 . S
U206 O226 2.455 . S
U206 O227 2.449 . S
O207 U206 2.454 . S
O207 C209 1.353 . S
O208 U206 2.458 . S
O208 C209 1.286 . S
C209 U206 2.984 . S
C209 O207 1.353 . S
C209 O208 1.286 . S
C209 C211 1.363 . S
C210 C200 1.465 . S
C210 U206 2.847 . S
C210 O224 1.249 . S
C210 O225 1.202 . S
C211 C209 1.363 . S
C211 C213 1.408 . S
C211 C216 1.342 . S
C212 C213 1.310 . S
C212 C215 1.461 . S
C212 H232 0.932 . S
C213 C211 1.408 . S
C213 C212 1.310 . S
C213 H233 0.930 . S
C214 C215 1.474 . S
C214 C216 1.285 . S
C214 H234 0.929 . S
C215 C212 1.461 . S
C215 C214 1.474 . S
C216 C211 1.342 . S
C216 C214 1.285 . S
C216 H235 0.930 . S
C217 C220 1.424 . S
C217 C222 1.245 . S
C217 C223 1.428 . S
C218 C221 1.260 . S
C218 C222 1.477 . S
C218 H236 0.932 . S
C219 C220 1.384 . S
C219 C221 1.479 . S
C219 H237 0.929 . S
C220 C217 1.424 . S
C220 C219 1.384 . S
C220 H238 0.928 . S
C221 C218 1.260 . S
C221 C219 1.479 . S
C222 C217 1.245 . S
C222 C218 1.477 . S
C222 H239 0.932 . S
C223 U206 2.882 . S
C223 C217 1.428 . S
C223 O226 1.301 . S
C223 O227 1.282 . S
O224 U206 2.441 . S
O224 C210 1.249 . S
O225 U206 2.420 . S
O225 C210 1.202 . S
O226 U206 2.455 . S
O226 C223 1.301 . S
O227 U206 2.449 . S
O227 C223 1.282 . S
H228 C201 0.931 . S
H229 C203 0.929 . S
H230 C204 0.930 . S
H231 C205 0.931 . S
H232 C212 0.932 . S
H233 C213 0.930 . S
H234 C214 0.929 . S
H235 C216 0.930 . S
H236 C218 0.932 . S
H237 C219 0.929 . S
H238 C220 0.928 . S
H239 C222 0.932 . S
C240 C241 1.264 . S
C240 C245 1.479 . S
C240 C250 1.465 . S
C241 C240 1.264 . S
C241 C243 1.339 . S
C241 H268 0.931 . S
C242 C243 1.395 . S
C242 C244 1.320 . S
C243 C241 1.339 . S
C243 C242 1.395 . S
C243 H269 0.929 . S
C244 C242 1.320 . S
C244 C245 1.405 . S
C244 H270 0.930 . S
C245 C240 1.479 . S
C245 C244 1.405 . S
C245 H271 0.931 . S
U246 O247 2.454 . S
U246 O248 2.458 . S
U246 C249 2.984 . S
U246 C250 2.847 . S
U246 C263 2.882 . S
U246 O264 2.441 . S
U246 O265 2.420 . S
U246 O266 2.455 . S
U246 O267 2.449 . S
O247 U246 2.454 . S
O247 C249 1.353 . S
O248 U246 2.458 . S
O248 C249 1.286 . S
C249 U246 2.984 . S
C249 O247 1.353 . S
C249 O248 1.286 . S
C249 C251 1.363 . S
C250 C240 1.465 . S
C250 U246 2.847 . S
C250 O264 1.249 . S
C250 O265 1.202 . S
C251 C249 1.363 . S
C251 C253 1.408 . S
C251 C256 1.342 . S
C252 C253 1.310 . S
C252 C255 1.461 . S
C252 H272 0.932 . S
C253 C251 1.408 . S
C253 C252 1.310 . S
C253 H273 0.930 . S
C254 C255 1.474 . S
C254 C256 1.285 . S
C254 H274 0.929 . S
C255 C252 1.461 . S
C255 C254 1.474 . S
C256 C251 1.342 . S
C256 C254 1.285 . S
C256 H275 0.930 . S
C257 C260 1.424 . S
C257 C262 1.245 . S
C257 C263 1.428 . S
C258 C261 1.260 . S
C258 C262 1.477 . S
C258 H276 0.932 . S
C259 C260 1.384 . S
C259 C261 1.479 . S
C259 H277 0.929 . S
C260 C257 1.424 . S
C260 C259 1.384 . S
C260 H278 0.928 . S
C261 C258 1.260 . S
C261 C259 1.479 . S
C262 C257 1.245 . S
C262 C258 1.477 . S
C262 H279 0.932 . S
C263 U246 2.882 . S
C263 C257 1.428 . S
C263 O266 1.301 . S
C263 O267 1.282 . S
O264 U246 2.441 . S
O264 C250 1.249 . S
O265 U246 2.420 . S
O265 C250 1.202 . S
O266 U246 2.455 . S
O266 C263 1.301 . S
O267 U246 2.449 . S
O267 C263 1.282 . S
H268 C241 0.931 . S
H269 C243 0.929 . S
H270 C244 0.930 . S
H271 C245 0.931 . S
H272 C252 0.932 . S
H273 C253 0.930 . S
H274 C254 0.929 . S
H275 C256 0.930 . S
H276 C258 0.932 . S
H277 C259 0.929 . S
H278 C260 0.928 . S
H279 C262 0.932 . S
C280 C281 1.264 . S
C280 C285 1.479 . S
C280 C290 1.465 . S
C281 C280 1.264 . S
C281 C283 1.339 . S
C281 H308 0.931 . S
C282 C283 1.395 . S
C282 C284 1.320 . S
C283 C281 1.339 . S
C283 C282 1.395 . S
C283 H309 0.929 . S
C284 C282 1.320 . S
C284 C285 1.405 . S
C284 H310 0.930 . S
C285 C280 1.479 . S
C285 C284 1.405 . S
C285 H311 0.931 . S
U286 O287 2.454 . S
U286 O288 2.458 . S
U286 C289 2.984 . S
U286 C290 2.847 . S
U286 C303 2.882 . S
U286 O304 2.441 . S
U286 O305 2.420 . S
U286 O306 2.455 . S
U286 O307 2.449 . S
O287 U286 2.454 . S
O287 C289 1.353 . S
O288 U286 2.458 . S
O288 C289 1.286 . S
C289 U286 2.984 . S
C289 O287 1.353 . S
C289 O288 1.286 . S
C289 C291 1.363 . S
C290 C280 1.465 . S
C290 U286 2.847 . S
C290 O304 1.249 . S
C290 O305 1.202 . S
C291 C289 1.363 . S
C291 C293 1.408 . S
C291 C296 1.342 . S
C292 C293 1.310 . S
C292 C295 1.461 . S
C292 H312 0.932 . S
C293 C291 1.408 . S
C293 C292 1.310 . S
C293 H313 0.930 . S
C294 C295 1.474 . S
C294 C296 1.285 . S
C294 H314 0.929 . S
C295 C292 1.461 . S
C295 C294 1.474 . S
C296 C291 1.342 . S
C296 C294 1.285 . S
C296 H315 0.930 . S
C297 C300 1.424 . S
C297 C302 1.245 . S
C297 C303 1.428 . S
C298 C301 1.260 . S
C298 C302 1.477 . S
C298 H316 0.932 . S
C299 C300 1.384 . S
C299 C301 1.479 . S
C299 H317 0.929 . S
C300 C297 1.424 . S
C300 C299 1.384 . S
C300 H318 0.928 . S
C301 C298 1.260 . S
C301 C299 1.479 . S
C302 C297 1.245 . S
C302 C298 1.477 . S
C302 H319 0.932 . S
C303 U286 2.882 . S
C303 C297 1.428 . S
C303 O306 1.301 . S
C303 O307 1.282 . S
O304 U286 2.441 . S
O304 C290 1.249 . S
O305 U286 2.420 . S
O305 C290 1.202 . S
O306 U286 2.455 . S
O306 C303 1.301 . S
O307 U286 2.449 . S
O307 C303 1.282 . S
H308 C281 0.931 . S
H309 C283 0.929 . S
H310 C284 0.930 . S
H311 C285 0.931 . S
H312 C292 0.932 . S
H313 C293 0.930 . S
H314 C294 0.929 . S
H315 C296 0.930 . S
H316 C298 0.932 . S
H317 C299 0.929 . S
H318 C300 0.928 . S
H319 C302 0.932 . S
C320 C321 1.264 . S
C320 C325 1.479 . S
C320 C330 1.465 . S
C321 C320 1.264 . S
C321 C323 1.339 . S
C321 H348 0.931 . S
C322 C323 1.395 . S
C322 C324 1.320 . S
C323 C321 1.339 . S
C323 C322 1.395 . S
C323 H349 0.929 . S
C324 C322 1.320 . S
C324 C325 1.405 . S
C324 H350 0.930 . S
C325 C320 1.479 . S
C325 C324 1.405 . S
C325 H351 0.931 . S
U326 O327 2.454 . S
U326 O328 2.458 . S
U326 C329 2.984 . S
U326 C330 2.847 . S
U326 C343 2.882 . S
U326 O344 2.441 . S
U326 O345 2.420 . S
U326 O346 2.455 . S
U326 O347 2.449 . S
O327 U326 2.454 . S
O327 C329 1.353 . S
O328 U326 2.458 . S
O328 C329 1.286 . S
C329 U326 2.984 . S
C329 O327 1.353 . S
C329 O328 1.286 . S
C329 C331 1.363 . S
C330 C320 1.465 . S
C330 U326 2.847 . S
C330 O344 1.249 . S
C330 O345 1.202 . S
C331 C329 1.363 . S
C331 C333 1.408 . S
C331 C336 1.342 . S
C332 C333 1.310 . S
C332 C335 1.461 . S
C332 H352 0.932 . S
C333 C331 1.408 . S
C333 C332 1.310 . S
C333 H353 0.930 . S
C334 C335 1.474 . S
C334 C336 1.285 . S
C334 H354 0.929 . S
C335 C332 1.461 . S
C335 C334 1.474 . S
C336 C331 1.342 . S
C336 C334 1.285 . S
C336 H355 0.930 . S
C337 C340 1.424 . S
C337 C342 1.245 . S
C337 C343 1.428 . S
C338 C341 1.260 . S
C338 C342 1.477 . S
C338 H356 0.932 . S
C339 C340 1.384 . S
C339 C341 1.479 . S
C339 H357 0.929 . S
C340 C337 1.424 . S
C340 C339 1.384 . S
C340 H358 0.928 . S
C341 C338 1.260 . S
C341 C339 1.479 . S
C342 C337 1.245 . S
C342 C338 1.477 . S
C342 H359 0.932 . S
C343 U326 2.882 . S
C343 C337 1.428 . S
C343 O346 1.301 . S
C343 O347 1.282 . S
O344 U326 2.441 . S
O344 C330 1.249 . S
O345 U326 2.420 . S
O345 C330 1.202 . S
O346 U326 2.455 . S
O346 C343 1.301 . S
O347 U326 2.449 . S
O347 C343 1.282 . S
H348 C321 0.931 . S
H349 C323 0.929 . S
H350 C324 0.930 . S
H351 C325 0.931 . S
H352 C332 0.932 . S
H353 C333 0.930 . S
H354 C334 0.929 . S
H355 C336 0.930 . S
H356 C338 0.932 . S
H357 C339 0.929 . S
H358 C340 0.928 . S
H359 C342 0.932 . S
C360 C361 1.264 . S
C360 C365 1.479 . S
C360 C370 1.465 . S
C361 C360 1.264 . S
C361 C363 1.339 . S
C361 H388 0.931 . S
C362 C363 1.395 . S
C362 C364 1.320 . S
C363 C361 1.339 . S
C363 C362 1.395 . S
C363 H389 0.929 . S
C364 C362 1.320 . S
C364 C365 1.405 . S
C364 H390 0.930 . S
C365 C360 1.479 . S
C365 C364 1.405 . S
C365 H391 0.931 . S
U366 O367 2.454 . S
U366 O368 2.458 . S
U366 C369 2.984 . S
U366 C370 2.847 . S
U366 C383 2.882 . S
U366 O384 2.441 . S
U366 O385 2.420 . S
U366 O386 2.455 . S
U366 O387 2.449 . S
O367 U366 2.454 . S
O367 C369 1.353 . S
O368 U366 2.458 . S
O368 C369 1.286 . S
C369 U366 2.984 . S
C369 O367 1.353 . S
C369 O368 1.286 . S
C369 C371 1.363 . S
C370 C360 1.465 . S
C370 U366 2.847 . S
C370 O384 1.249 . S
C370 O385 1.202 . S
C371 C369 1.363 . S
C371 C373 1.408 . S
C371 C376 1.342 . S
C372 C373 1.310 . S
C372 C375 1.461 . S
C372 H392 0.932 . S
C373 C371 1.408 . S
C373 C372 1.310 . S
C373 H393 0.930 . S
C374 C375 1.474 . S
C374 C376 1.285 . S
C374 H394 0.929 . S
C375 C372 1.461 . S
C375 C374 1.474 . S
C376 C371 1.342 . S
C376 C374 1.285 . S
C376 H395 0.930 . S
C377 C380 1.424 . S
C377 C382 1.245 . S
C377 C383 1.428 . S
C378 C381 1.260 . S
C378 C382 1.477 . S
C378 H396 0.932 . S
C379 C380 1.384 . S
C379 C381 1.479 . S
C379 H397 0.929 . S
C380 C377 1.424 . S
C380 C379 1.384 . S
C380 H398 0.928 . S
C381 C378 1.260 . S
C381 C379 1.479 . S
C382 C377 1.245 . S
C382 C378 1.477 . S
C382 H399 0.932 . S
C383 U366 2.882 . S
C383 C377 1.428 . S
C383 O386 1.301 . S
C383 O387 1.282 . S
O384 U366 2.441 . S
O384 C370 1.249 . S
O385 U366 2.420 . S
O385 C370 1.202 . S
O386 U366 2.455 . S
O386 C383 1.301 . S
O387 U366 2.449 . S
O387 C383 1.282 . S
H388 C361 0.931 . S
H389 C363 0.929 . S
H390 C364 0.930 . S
H391 C365 0.931 . S
H392 C372 0.932 . S
H393 C373 0.930 . S
H394 C374 0.929 . S
H395 C376 0.930 . S
H396 C378 0.932 . S
H397 C379 0.929 . S
H398 C380 0.928 . S
H399 C382 0.932 . S
C400 C401 1.264 . S
C400 C405 1.479 . S
C400 C410 1.465 . S
C401 C400 1.264 . S
C401 C403 1.339 . S
C401 H428 0.931 . S
C402 C403 1.395 . S
C402 C404 1.320 . S
C403 C401 1.339 . S
C403 C402 1.395 . S
C403 H429 0.929 . S
C404 C402 1.320 . S
C404 C405 1.405 . S
C404 H430 0.930 . S
C405 C400 1.479 . S
C405 C404 1.405 . S
C405 H431 0.931 . S
U406 O407 2.454 . S
U406 O408 2.458 . S
U406 C409 2.984 . S
U406 C410 2.847 . S
U406 C423 2.882 . S
U406 O424 2.441 . S
U406 O425 2.420 . S
U406 O426 2.455 . S
U406 O427 2.449 . S
O407 U406 2.454 . S
O407 C409 1.353 . S
O408 U406 2.458 . S
O408 C409 1.286 . S
C409 U406 2.984 . S
C409 O407 1.353 . S
C409 O408 1.286 . S
C409 C411 1.363 . S
C410 C400 1.465 . S
C410 U406 2.847 . S
C410 O424 1.249 . S
C410 O425 1.202 . S
C411 C409 1.363 . S
C411 C413 1.408 . S
C411 C416 1.342 . S
C412 C413 1.310 . S
C412 C415 1.461 . S
C412 H432 0.932 . S
C413 C411 1.408 . S
C413 C412 1.310 . S
C413 H433 0.930 . S
C414 C415 1.474 . S
C414 C416 1.285 . S
C414 H434 0.929 . S
C415 C412 1.461 . S
C415 C414 1.474 . S
C416 C411 1.342 . S
C416 C414 1.285 . S
C416 H435 0.930 . S
C417 C420 1.424 . S
C417 C422 1.245 . S
C417 C423 1.428 . S
C418 C421 1.260 . S
C418 C422 1.477 . S
C418 H436 0.932 . S
C419 C420 1.384 . S
C419 C421 1.479 . S
C419 H437 0.929 . S
C420 C417 1.424 . S
C420 C419 1.384 . S
C420 H438 0.928 . S
C421 C418 1.260 . S
C421 C419 1.479 . S
C422 C417 1.245 . S
C422 C418 1.477 . S
C422 H439 0.932 . S
C423 U406 2.882 . S
C423 C417 1.428 . S
C423 O426 1.301 . S
C423 O427 1.282 . S
O424 U406 2.441 . S
O424 C410 1.249 . S
O425 U406 2.420 . S
O425 C410 1.202 . S
O426 U406 2.455 . S
O426 C423 1.301 . S
O427 U406 2.449 . S
O427 C423 1.282 . S
H428 C401 0.931 . S
H429 C403 0.929 . S
H430 C404 0.930 . S
H431 C405 0.931 . S
H432 C412 0.932 . S
H433 C413 0.930 . S
H434 C414 0.929 . S
H435 C416 0.930 . S
H436 C418 0.932 . S
H437 C419 0.929 . S
H438 C420 0.928 . S
H439 C422 0.932 . S
C440 C441 1.264 . S
C440 C445 1.479 . S
C440 C450 1.465 . S
C441 C440 1.264 . S
C441 C443 1.339 . S
C441 H468 0.931 . S
C442 C443 1.395 . S
C442 C444 1.320 . S
C443 C441 1.339 . S
C443 C442 1.395 . S
C443 H469 0.929 . S
C444 C442 1.320 . S
C444 C445 1.405 . S
C444 H470 0.930 . S
C445 C440 1.479 . S
C445 C444 1.405 . S
C445 H471 0.931 . S
U446 O447 2.454 . S
U446 O448 2.458 . S
U446 C449 2.984 . S
U446 C450 2.847 . S
U446 C463 2.882 . S
U446 O464 2.441 . S
U446 O465 2.420 . S
U446 O466 2.455 . S
U446 O467 2.449 . S
O447 U446 2.454 . S
O447 C449 1.353 . S
O448 U446 2.458 . S
O448 C449 1.286 . S
C449 U446 2.984 . S
C449 O447 1.353 . S
C449 O448 1.286 . S
C449 C451 1.363 . S
C450 C440 1.465 . S
C450 U446 2.847 . S
C450 O464 1.249 . S
C450 O465 1.202 . S
C451 C449 1.363 . S
C451 C453 1.408 . S
C451 C456 1.342 . S
C452 C453 1.310 . S
C452 C455 1.461 . S
C452 H472 0.932 . S
C453 C451 1.408 . S
C453 C452 1.310 . S
C453 H473 0.930 . S
C454 C455 1.474 . S
C454 C456 1.285 . S
C454 H474 0.929 . S
C455 C452 1.461 . S
C455 C454 1.474 . S
C456 C451 1.342 . S
C456 C454 1.285 . S
C456 H475 0.930 . S
C457 C460 1.424 . S
C457 C462 1.245 . S
C457 C463 1.428 . S
C458 C461 1.260 . S
C458 C462 1.477 . S
C458 H476 0.932 . S
C459 C460 1.384 . S
C459 C461 1.479 . S
C459 H477 0.929 . S
C460 C457 1.424 . S
C460 C459 1.384 . S
C460 H478 0.928 . S
C461 C458 1.260 . S
C461 C459 1.479 . S
C462 C457 1.245 . S
C462 C458 1.477 . S
C462 H479 0.932 . S
C463 U446 2.882 . S
C463 C457 1.428 . S
C463 O466 1.301 . S
C463 O467 1.282 . S
O464 U446 2.441 . S
O464 C450 1.249 . S
O465 U446 2.420 . S
O465 C450 1.202 . S
O466 U446 2.455 . S
O466 C463 1.301 . S
O467 U446 2.449 . S
O467 C463 1.282 . S
H468 C441 0.931 . S
H469 C443 0.929 . S
H470 C444 0.930 . S
H471 C445 0.931 . S
H472 C452 0.932 . S
H473 C453 0.930 . S
H474 C454 0.929 . S
H475 C456 0.930 . S
H476 C458 0.932 . S
H477 C459 0.929 . S
H478 C460 0.928 . S
H479 C462 0.932 . S
C480 C481 1.264 . S
C480 C485 1.479 . S
C480 C490 1.465 . S
C481 C480 1.264 . S
C481 C483 1.339 . S
C481 H508 0.931 . S
C482 C483 1.395 . S
C482 C484 1.320 . S
C483 C481 1.339 . S
C483 C482 1.395 . S
C483 H509 0.929 . S
C484 C482 1.320 . S
C484 C485 1.405 . S
C484 H510 0.930 . S
C485 C480 1.479 . S
C485 C484 1.405 . S
C485 H511 0.931 . S
U486 O487 2.454 . S
U486 O488 2.458 . S
U486 C489 2.984 . S
U486 C490 2.847 . S
U486 C503 2.882 . S
U486 O504 2.441 . S
U486 O505 2.420 . S
U486 O506 2.455 . S
U486 O507 2.449 . S
O487 U486 2.454 . S
O487 C489 1.353 . S
O488 U486 2.458 . S
O488 C489 1.286 . S
C489 U486 2.984 . S
C489 O487 1.353 . S
C489 O488 1.286 . S
C489 C491 1.363 . S
C490 C480 1.465 . S
C490 U486 2.847 . S
C490 O504 1.249 . S
C490 O505 1.202 . S
C491 C489 1.363 . S
C491 C493 1.408 . S
C491 C496 1.342 . S
C492 C493 1.310 . S
C492 C495 1.461 . S
C492 H512 0.932 . S
C493 C491 1.408 . S
C493 C492 1.310 . S
C493 H513 0.930 . S
C494 C495 1.474 . S
C494 C496 1.285 . S
C494 H514 0.929 . S
C495 C492 1.461 . S
C495 C494 1.474 . S
C496 C491 1.342 . S
C496 C494 1.285 . S
C496 H515 0.930 . S
C497 C500 1.424 . S
C497 C502 1.245 . S
C497 C503 1.428 . S
C498 C501 1.260 . S
C498 C502 1.477 . S
C498 H516 0.932 . S
C499 C500 1.384 . S
C499 C501 1.479 . S
C499 H517 0.929 . S
C500 C497 1.424 . S
C500 C499 1.384 . S
C500 H518 0.928 . S
C501 C498 1.260 . S
C501 C499 1.479 . S
C502 C497 1.245 . S
C502 C498 1.477 . S
C502 H519 0.932 . S
C503 U486 2.882 . S
C503 C497 1.428 . S
C503 O506 1.301 . S
C503 O507 1.282 . S
O504 U486 2.441 . S
O504 C490 1.249 . S
O505 U486 2.420 . S
O505 C490 1.202 . S
O506 U486 2.455 . S
O506 C503 1.301 . S
O507 U486 2.449 . S
O507 C503 1.282 . S
H508 C481 0.931 . S
H509 C483 0.929 . S
H510 C484 0.930 . S
H511 C485 0.931 . S
H512 C492 0.932 . S
H513 C493 0.930 . S
H514 C494 0.929 . S
H515 C496 0.930 . S
H516 C498 0.932 . S
H517 C499 0.929 . S
H518 C500 0.928 . S
H519 C502 0.932 . S
C520 C521 1.264 . S
C520 C525 1.479 . S
C520 C530 1.465 . S
C521 C520 1.264 . S
C521 C523 1.339 . S
C521 H548 0.931 . S
C522 C523 1.395 . S
C522 C524 1.320 . S
C523 C521 1.339 . S
C523 C522 1.395 . S
C523 H549 0.929 . S
C524 C522 1.320 . S
C524 C525 1.405 . S
C524 H550 0.930 . S
C525 C520 1.479 . S
C525 C524 1.405 . S
C525 H551 0.931 . S
U526 O527 2.454 . S
U526 O528 2.458 . S
U526 C529 2.984 . S
U526 C530 2.847 . S
U526 C543 2.882 . S
U526 O544 2.441 . S
U526 O545 2.420 . S
U526 O546 2.455 . S
U526 O547 2.449 . S
O527 U526 2.454 . S
O527 C529 1.353 . S
O528 U526 2.458 . S
O528 C529 1.286 . S
C529 U526 2.984 . S
C529 O527 1.353 . S
C529 O528 1.286 . S
C529 C531 1.363 . S
C530 C520 1.465 . S
C530 U526 2.847 . S
C530 O544 1.249 . S
C530 O545 1.202 . S
C531 C529 1.363 . S
C531 C533 1.408 . S
C531 C536 1.342 . S
C532 C533 1.310 . S
C532 C535 1.461 . S
C532 H552 0.932 . S
C533 C531 1.408 . S
C533 C532 1.310 . S
C533 H553 0.930 . S
C534 C535 1.474 . S
C534 C536 1.285 . S
C534 H554 0.929 . S
C535 C532 1.461 . S
C535 C534 1.474 . S
C536 C531 1.342 . S
C536 C534 1.285 . S
C536 H555 0.930 . S
C537 C540 1.424 . S
C537 C542 1.245 . S
C537 C543 1.428 . S
C538 C541 1.260 . S
C538 C542 1.477 . S
C538 H556 0.932 . S
C539 C540 1.384 . S
C539 C541 1.479 . S
C539 H557 0.929 . S
C540 C537 1.424 . S
C540 C539 1.384 . S
C540 H558 0.928 . S
C541 C538 1.260 . S
C541 C539 1.479 . S
C542 C537 1.245 . S
C542 C538 1.477 . S
C542 H559 0.932 . S
C543 U526 2.882 . S
C543 C537 1.428 . S
C543 O546 1.301 . S
C543 O547 1.282 . S
O544 U526 2.441 . S
O544 C530 1.249 . S
O545 U526 2.420 . S
O545 C530 1.202 . S
O546 U526 2.455 . S
O546 C543 1.301 . S
O547 U526 2.449 . S
O547 C543 1.282 . S
H548 C521 0.931 . S
H549 C523 0.929 . S
H550 C524 0.930 . S
H551 C525 0.931 . S
H552 C532 0.932 . S
H553 C533 0.930 . S
H554 C534 0.929 . S
H555 C536 0.930 . S
H556 C538 0.932 . S
H557 C539 0.929 . S
H558 C540 0.928 . S
H559 C542 0.932 . S
C560 C561 1.264 . S
C560 C565 1.479 . S
C560 C570 1.465 . S
C561 C560 1.264 . S
C561 C563 1.339 . S
C561 H588 0.931 . S
C562 C563 1.395 . S
C562 C564 1.320 . S
C563 C561 1.339 . S
C563 C562 1.395 . S
C563 H589 0.929 . S
C564 C562 1.320 . S
C564 C565 1.405 . S
C564 H590 0.930 . S
C565 C560 1.479 . S
C565 C564 1.405 . S
C565 H591 0.931 . S
U566 O567 2.454 . S
U566 O568 2.458 . S
U566 C569 2.984 . S
U566 C570 2.847 . S
U566 C583 2.882 . S
U566 O584 2.441 . S
U566 O585 2.420 . S
U566 O586 2.455 . S
U566 O587 2.449 . S
O567 U566 2.454 . S
O567 C569 1.353 . S
O568 U566 2.458 . S
O568 C569 1.286 . S
C569 U566 2.984 . S
C569 O567 1.353 . S
C569 O568 1.286 . S
C569 C571 1.363 . S
C570 C560 1.465 . S
C570 U566 2.847 . S
C570 O584 1.249 . S
C570 O585 1.202 . S
C571 C569 1.363 . S
C571 C573 1.408 . S
C571 C576 1.342 . S
C572 C573 1.310 . S
C572 C575 1.461 . S
C572 H592 0.932 . S
C573 C571 1.408 . S
C573 C572 1.310 . S
C573 H593 0.930 . S
C574 C575 1.474 . S
C574 C576 1.285 . S
C574 H594 0.929 . S
C575 C572 1.461 . S
C575 C574 1.474 . S
C576 C571 1.342 . S
C576 C574 1.285 . S
C576 H595 0.930 . S
C577 C580 1.424 . S
C577 C582 1.245 . S
C577 C583 1.428 . S
C578 C581 1.260 . S
C578 C582 1.477 . S
C578 H596 0.932 . S
C579 C580 1.384 . S
C579 C581 1.479 . S
C579 H597 0.929 . S
C580 C577 1.424 . S
C580 C579 1.384 . S
C580 H598 0.928 . S
C581 C578 1.260 . S
C581 C579 1.479 . S
C582 C577 1.245 . S
C582 C578 1.477 . S
C582 H599 0.932 . S
C583 U566 2.882 . S
C583 C577 1.428 . S
C583 O586 1.301 . S
C583 O587 1.282 . S
O584 U566 2.441 . S
O584 C570 1.249 . S
O585 U566 2.420 . S
O585 C570 1.202 . S
O586 U566 2.455 . S
O586 C583 1.301 . S
O587 U566 2.449 . S
O587 C583 1.282 . S
H588 C561 0.931 . S
H589 C563 0.929 . S
H590 C564 0.930 . S
H591 C565 0.931 . S
H592 C572 0.932 . S
H593 C573 0.930 . S
H594 C574 0.929 . S
H595 C576 0.930 . S
H596 C578 0.932 . S
H597 C579 0.929 . S
H598 C580 0.928 . S
H599 C582 0.932 . S
C600 C601 1.264 . S
C600 C605 1.479 . S
C600 C610 1.465 . S
C601 C600 1.264 . S
C601 C603 1.339 . S
C601 H628 0.931 . S
C602 C603 1.395 . S
C602 C604 1.320 . S
C603 C601 1.339 . S
C603 C602 1.395 . S
C603 H629 0.929 . S
C604 C602 1.320 . S
C604 C605 1.405 . S
C604 H630 0.930 . S
C605 C600 1.479 . S
C605 C604 1.405 . S
C605 H631 0.931 . S
U606 O607 2.454 . S
U606 O608 2.458 . S
U606 C609 2.984 . S
U606 C610 2.847 . S
U606 C623 2.882 . S
U606 O624 2.441 . S
U606 O625 2.420 . S
U606 O626 2.455 . S
U606 O627 2.449 . S
O607 U606 2.454 . S
O607 C609 1.353 . S
O608 U606 2.458 . S
O608 C609 1.286 . S
C609 U606 2.984 . S
C609 O607 1.353 . S
C609 O608 1.286 . S
C609 C611 1.363 . S
C610 C600 1.465 . S
C610 U606 2.847 . S
C610 O624 1.249 . S
C610 O625 1.202 . S
C611 C609 1.363 . S
C611 C613 1.408 . S
C611 C616 1.342 . S
C612 C613 1.310 . S
C612 C615 1.461 . S
C612 H632 0.932 . S
C613 C611 1.408 . S
C613 C612 1.310 . S
C613 H633 0.930 . S
C614 C615 1.474 . S
C614 C616 1.285 . S
C614 H634 0.929 . S
C615 C612 1.461 . S
C615 C614 1.474 . S
C616 C611 1.342 . S
C616 C614 1.285 . S
C616 H635 0.930 . S
C617 C620 1.424 . S
C617 C622 1.245 . S
C617 C623 1.428 . S
C618 C621 1.260 . S
C618 C622 1.477 . S
C618 H636 0.932 . S
C619 C620 1.384 . S
C619 C621 1.479 . S
C619 H637 0.929 . S
C620 C617 1.424 . S
C620 C619 1.384 . S
C620 H638 0.928 . S
C621 C618 1.260 . S
C621 C619 1.479 . S
C622 C617 1.245 . S
C622 C618 1.477 . S
C622 H639 0.932 . S
C623 U606 2.882 . S
C623 C617 1.428 . S
C623 O626 1.301 . S
C623 O627 1.282 . S
O624 U606 2.441 . S
O624 C610 1.249 . S
O625 U606 2.420 . S
O625 C610 1.202 . S
O626 U606 2.455 . S
O626 C623 1.301 . S
O627 U606 2.449 . S
O627 C623 1.282 . S
H628 C601 0.931 . S
H629 C603 0.929 . S
H630 C604 0.930 . S
H631 C605 0.931 . S
H632 C612 0.932 . S
H633 C613 0.930 . S
H634 C614 0.929 . S
H635 C616 0.930 . S
H636 C618 0.932 . S
H637 C619 0.929 . S
H638 C620 0.928 . S
H639 C622 0.932 . S
C640 C641 1.264 . S
C640 C645 1.479 . S
C640 C650 1.465 . S
C641 C640 1.264 . S
C641 C643 1.339 . S
C641 H668 0.931 . S
C642 C643 1.395 . S
C642 C644 1.320 . S
C643 C641 1.339 . S
C643 C642 1.395 . S
C643 H669 0.929 . S
C644 C642 1.320 . S
C644 C645 1.405 . S
C644 H670 0.930 . S
C645 C640 1.479 . S
C645 C644 1.405 . S
C645 H671 0.931 . S
U646 O647 2.454 . S
U646 O648 2.458 . S
U646 C649 2.984 . S
U646 C650 2.847 . S
U646 C663 2.882 . S
U646 O664 2.441 . S
U646 O665 2.420 . S
U646 O666 2.455 . S
U646 O667 2.449 . S
O647 U646 2.454 . S
O647 C649 1.353 . S
O648 U646 2.458 . S
O648 C649 1.286 . S
C649 U646 2.984 . S
C649 O647 1.353 . S
C649 O648 1.286 . S
C649 C651 1.363 . S
C650 C640 1.465 . S
C650 U646 2.847 . S
C650 O664 1.249 . S
C650 O665 1.202 . S
C651 C649 1.363 . S
C651 C653 1.408 . S
C651 C656 1.342 . S
C652 C653 1.310 . S
C652 C655 1.461 . S
C652 H672 0.932 . S
C653 C651 1.408 . S
C653 C652 1.310 . S
C653 H673 0.930 . S
C654 C655 1.474 . S
C654 C656 1.285 . S
C654 H674 0.929 . S
C655 C652 1.461 . S
C655 C654 1.474 . S
C656 C651 1.342 . S
C656 C654 1.285 . S
C656 H675 0.930 . S
C657 C660 1.424 . S
C657 C662 1.245 . S
C657 C663 1.428 . S
C658 C661 1.260 . S
C658 C662 1.477 . S
C658 H676 0.932 . S
C659 C660 1.384 . S
C659 C661 1.479 . S
C659 H677 0.929 . S
C660 C657 1.424 . S
C660 C659 1.384 . S
C660 H678 0.928 . S
C661 C658 1.260 . S
C661 C659 1.479 . S
C662 C657 1.245 . S
C662 C658 1.477 . S
C662 H679 0.932 . S
C663 U646 2.882 . S
C663 C657 1.428 . S
C663 O666 1.301 . S
C663 O667 1.282 . S
O664 U646 2.441 . S
O664 C650 1.249 . S
O665 U646 2.420 . S
O665 C650 1.202 . S
O666 U646 2.455 . S
O666 C663 1.301 . S
O667 U646 2.449 . S
O667 C663 1.282 . S
H668 C641 0.931 . S
H669 C643 0.929 . S
H670 C644 0.930 . S
H671 C645 0.931 . S
H672 C652 0.932 . S
H673 C653 0.930 . S
H674 C654 0.929 . S
H675 C656 0.930 . S
H676 C658 0.932 . S
H677 C659 0.929 . S
H678 C660 0.928 . S
H679 C662 0.932 . S
C680 C681 1.264 . S
C680 C685 1.479 . S
C680 C690 1.465 . S
C681 C680 1.264 . S
C681 C683 1.339 . S
C681 H708 0.931 . S
C682 C683 1.395 . S
C682 C684 1.320 . S
C683 C681 1.339 . S
C683 C682 1.395 . S
C683 H709 0.929 . S
C684 C682 1.320 . S
C684 C685 1.405 . S
C684 H710 0.930 . S
C685 C680 1.479 . S
C685 C684 1.405 . S
C685 H711 0.931 . S
U686 O687 2.454 . S
U686 O688 2.458 . S
U686 C689 2.984 . S
U686 C690 2.847 . S
U686 C703 2.882 . S
U686 O704 2.441 . S
U686 O705 2.420 . S
U686 O706 2.455 . S
U686 O707 2.449 . S
O687 U686 2.454 . S
O687 C689 1.353 . S
O688 U686 2.458 . S
O688 C689 1.286 . S
C689 U686 2.984 . S
C689 O687 1.353 . S
C689 O688 1.286 . S
C689 C691 1.363 . S
C690 C680 1.465 . S
C690 U686 2.847 . S
C690 O704 1.249 . S
C690 O705 1.202 . S
C691 C689 1.363 . S
C691 C693 1.408 . S
C691 C696 1.342 . S
C692 C693 1.310 . S
C692 C695 1.461 . S
C692 H712 0.932 . S
C693 C691 1.408 . S
C693 C692 1.310 . S
C693 H713 0.930 . S
C694 C695 1.474 . S
C694 C696 1.285 . S
C694 H714 0.929 . S
C695 C692 1.461 . S
C695 C694 1.474 . S
C696 C691 1.342 . S
C696 C694 1.285 . S
C696 H715 0.930 . S
C697 C700 1.424 . S
C697 C702 1.245 . S
C697 C703 1.428 . S
C698 C701 1.260 . S
C698 C702 1.477 . S
C698 H716 0.932 . S
C699 C700 1.384 . S
C699 C701 1.479 . S
C699 H717 0.929 . S
C700 C697 1.424 . S
C700 C699 1.384 . S
C700 H718 0.928 . S
C701 C698 1.260 . S
C701 C699 1.479 . S
C702 C697 1.245 . S
C702 C698 1.477 . S
C702 H719 0.932 . S
C703 U686 2.882 . S
C703 C697 1.428 . S
C703 O706 1.301 . S
C703 O707 1.282 . S
O704 U686 2.441 . S
O704 C690 1.249 . S
O705 U686 2.420 . S
O705 C690 1.202 . S
O706 U686 2.455 . S
O706 C703 1.301 . S
O707 U686 2.449 . S
O707 C703 1.282 . S
H708 C681 0.931 . S
H709 C683 0.929 . S
H710 C684 0.930 . S
H711 C685 0.931 . S
H712 C692 0.932 . S
H713 C693 0.930 . S
H714 C694 0.929 . S
H715 C696 0.930 . S
H716 C698 0.932 . S
H717 C699 0.929 . S
H718 C700 0.928 . S
H719 C702 0.932 . S
C720 C721 1.264 . S
C720 C725 1.479 . S
C720 C730 1.465 . S
C721 C720 1.264 . S
C721 C723 1.339 . S
C721 H748 0.931 . S
C722 C723 1.395 . S
C722 C724 1.320 . S
C723 C721 1.339 . S
C723 C722 1.395 . S
C723 H749 0.929 . S
C724 C722 1.320 . S
C724 C725 1.405 . S
C724 H750 0.930 . S
C725 C720 1.479 . S
C725 C724 1.405 . S
C725 H751 0.931 . S
U726 O727 2.454 . S
U726 O728 2.458 . S
U726 C729 2.984 . S
U726 C730 2.847 . S
U726 C743 2.882 . S
U726 O744 2.441 . S
U726 O745 2.420 . S
U726 O746 2.455 . S
U726 O747 2.449 . S
O727 U726 2.454 . S
O727 C729 1.353 . S
O728 U726 2.458 . S
O728 C729 1.286 . S
C729 U726 2.984 . S
C729 O727 1.353 . S
C729 O728 1.286 . S
C729 C731 1.363 . S
C730 C720 1.465 . S
C730 U726 2.847 . S
C730 O744 1.249 . S
C730 O745 1.202 . S
C731 C729 1.363 . S
C731 C733 1.408 . S
C731 C736 1.342 . S
C732 C733 1.310 . S
C732 C735 1.461 . S
C732 H752 0.932 . S
C733 C731 1.408 . S
C733 C732 1.310 . S
C733 H753 0.930 . S
C734 C735 1.474 . S
C734 C736 1.285 . S
C734 H754 0.929 . S
C735 C732 1.461 . S
C735 C734 1.474 . S
C736 C731 1.342 . S
C736 C734 1.285 . S
C736 H755 0.930 . S
C737 C740 1.424 . S
C737 C742 1.245 . S
C737 C743 1.428 . S
C738 C741 1.260 . S
C738 C742 1.477 . S
C738 H756 0.932 . S
C739 C740 1.384 . S
C739 C741 1.479 . S
C739 H757 0.929 . S
C740 C737 1.424 . S
C740 C739 1.384 . S
C740 H758 0.928 . S
C741 C738 1.260 . S
C741 C739 1.479 . S
C742 C737 1.245 . S
C742 C738 1.477 . S
C742 H759 0.932 . S
C743 U726 2.882 . S
C743 C737 1.428 . S
C743 O746 1.301 . S
C743 O747 1.282 . S
O744 U726 2.441 . S
O744 C730 1.249 . S
O745 U726 2.420 . S
O745 C730 1.202 . S
O746 U726 2.455 . S
O746 C743 1.301 . S
O747 U726 2.449 . S
O747 C743 1.282 . S
H748 C721 0.931 . S
H749 C723 0.929 . S
H750 C724 0.930 . S
H751 C725 0.931 . S
H752 C732 0.932 . S
H753 C733 0.930 . S
H754 C734 0.929 . S
H755 C736 0.930 . S
H756 C738 0.932 . S
H757 C739 0.929 . S
H758 C740 0.928 . S
H759 C742 0.932 . S
C760 C761 1.264 . S
C760 C765 1.479 . S
C760 C770 1.465 . S
C761 C760 1.264 . S
C761 C763 1.339 . S
C761 H788 0.931 . S
C762 C763 1.395 . S
C762 C764 1.320 . S
C763 C761 1.339 . S
C763 C762 1.395 . S
C763 H789 0.929 . S
C764 C762 1.320 . S
C764 C765 1.405 . S
C764 H790 0.930 . S
C765 C760 1.479 . S
C765 C764 1.405 . S
C765 H791 0.931 . S
U766 O767 2.454 . S
U766 O768 2.458 . S
U766 C769 2.984 . S
U766 C770 2.847 . S
U766 C783 2.882 . S
U766 O784 2.441 . S
U766 O785 2.420 . S
U766 O786 2.455 . S
U766 O787 2.449 . S
O767 U766 2.454 . S
O767 C769 1.353 . S
O768 U766 2.458 . S
O768 C769 1.286 . S
C769 U766 2.984 . S
C769 O767 1.353 . S
C769 O768 1.286 . S
C769 C771 1.363 . S
C770 C760 1.465 . S
C770 U766 2.847 . S
C770 O784 1.249 . S
C770 O785 1.202 . S
C771 C769 1.363 . S
C771 C773 1.408 . S
C771 C776 1.342 . S
C772 C773 1.310 . S
C772 C775 1.461 . S
C772 H792 0.932 . S
C773 C771 1.408 . S
C773 C772 1.310 . S
C773 H793 0.930 . S
C774 C775 1.474 . S
C774 C776 1.285 . S
C774 H794 0.929 . S
C775 C772 1.461 . S
C775 C774 1.474 . S
C776 C771 1.342 . S
C776 C774 1.285 . S
C776 H795 0.930 . S
C777 C780 1.424 . S
C777 C782 1.245 . S
C777 C783 1.428 . S
C778 C781 1.260 . S
C778 C782 1.477 . S
C778 H796 0.932 . S
C779 C780 1.384 . S
C779 C781 1.479 . S
C779 H797 0.929 . S
C780 C777 1.424 . S
C780 C779 1.384 . S
C780 H798 0.928 . S
C781 C778 1.260 . S
C781 C779 1.479 . S
C782 C777 1.245 . S
C782 C778 1.477 . S
C782 H799 0.932 . S
C783 U766 2.882 . S
C783 C777 1.428 . S
C783 O786 1.301 . S
C783 O787 1.282 . S
O784 U766 2.441 . S
O784 C770 1.249 . S
O785 U766 2.420 . S
O785 C770 1.202 . S
O786 U766 2.455 . S
O786 C783 1.301 . S
O787 U766 2.449 . S
O787 C783 1.282 . S
H788 C761 0.931 . S
H789 C763 0.929 . S
H790 C764 0.930 . S
H791 C765 0.931 . S
H792 C772 0.932 . S
H793 C773 0.930 . S
H794 C774 0.929 . S
H795 C776 0.930 . S
H796 C778 0.932 . S
H797 C779 0.929 . S
H798 C780 0.928 . S
H799 C782 0.932 . S
C800 C801 1.264 . S
C800 C805 1.479 . S
C800 C810 1.465 . S
C801 C800 1.264 . S
C801 C803 1.339 . S
C801 H828 0.931 . S
C802 C803 1.395 . S
C802 C804 1.320 . S
C803 C801 1.339 . S
C803 C802 1.395 . S
C803 H829 0.929 . S
C804 C802 1.320 . S
C804 C805 1.405 . S
C804 H830 0.930 . S
C805 C800 1.479 . S
C805 C804 1.405 . S
C805 H831 0.931 . S
U806 O807 2.454 . S
U806 O808 2.458 . S
U806 C809 2.984 . S
U806 C810 2.847 . S
U806 C823 2.882 . S
U806 O824 2.441 . S
U806 O825 2.420 . S
U806 O826 2.455 . S
U806 O827 2.449 . S
O807 U806 2.454 . S
O807 C809 1.353 . S
O808 U806 2.458 . S
O808 C809 1.286 . S
C809 U806 2.984 . S
C809 O807 1.353 . S
C809 O808 1.286 . S
C809 C811 1.363 . S
C810 C800 1.465 . S
C810 U806 2.847 . S
C810 O824 1.249 . S
C810 O825 1.202 . S
C811 C809 1.363 . S
C811 C813 1.408 . S
C811 C816 1.342 . S
C812 C813 1.310 . S
C812 C815 1.461 . S
C812 H832 0.932 . S
C813 C811 1.408 . S
C813 C812 1.310 . S
C813 H833 0.930 . S
C814 C815 1.474 . S
C814 C816 1.285 . S
C814 H834 0.929 . S
C815 C812 1.461 . S
C815 C814 1.474 . S
C816 C811 1.342 . S
C816 C814 1.285 . S
C816 H835 0.930 . S
C817 C820 1.424 . S
C817 C822 1.245 . S
C817 C823 1.428 . S
C818 C821 1.260 . S
C818 C822 1.477 . S
C818 H836 0.932 . S
C819 C820 1.384 . S
C819 C821 1.479 . S
C819 H837 0.929 . S
C820 C817 1.424 . S
C820 C819 1.384 . S
C820 H838 0.928 . S
C821 C818 1.260 . S
C821 C819 1.479 . S
C822 C817 1.245 . S
C822 C818 1.477 . S
C822 H839 0.932 . S
C823 U806 2.882 . S
C823 C817 1.428 . S
C823 O826 1.301 . S
C823 O827 1.282 . S
O824 U806 2.441 . S
O824 C810 1.249 . S
O825 U806 2.420 . S
O825 C810 1.202 . S
O826 U806 2.455 . S
O826 C823 1.301 . S
O827 U806 2.449 . S
O827 C823 1.282 . S
H828 C801 0.931 . S
H829 C803 0.929 . S
H830 C804 0.930 . S
H831 C805 0.931 . S
H832 C812 0.932 . S
H833 C813 0.930 . S
H834 C814 0.929 . S
H835 C816 0.930 . S
H836 C818 0.932 . S
H837 C819 0.929 . S
H838 C820 0.928 . S
H839 C822 0.932 . S
C840 C841 1.264 . S
C840 C845 1.479 . S
C840 C850 1.465 . S
C841 C840 1.264 . S
C841 C843 1.339 . S
C841 H868 0.931 . S
C842 C843 1.395 . S
C842 C844 1.320 . S
C843 C841 1.339 . S
C843 C842 1.395 . S
C843 H869 0.929 . S
C844 C842 1.320 . S
C844 C845 1.405 . S
C844 H870 0.930 . S
C845 C840 1.479 . S
C845 C844 1.405 . S
C845 H871 0.931 . S
U846 O847 2.454 . S
U846 O848 2.458 . S
U846 C849 2.984 . S
U846 C850 2.847 . S
U846 C863 2.882 . S
U846 O864 2.441 . S
U846 O865 2.420 . S
U846 O866 2.455 . S
U846 O867 2.449 . S
O847 U846 2.454 . S
O847 C849 1.353 . S
O848 U846 2.458 . S
O848 C849 1.286 . S
C849 U846 2.984 . S
C849 O847 1.353 . S
C849 O848 1.286 . S
C849 C851 1.363 . S
C850 C840 1.465 . S
C850 U846 2.847 . S
C850 O864 1.249 . S
C850 O865 1.202 . S
C851 C849 1.363 . S
C851 C853 1.408 . S
C851 C856 1.342 . S
C852 C853 1.310 . S
C852 C855 1.461 . S
C852 H872 0.932 . S
C853 C851 1.408 . S
C853 C852 1.310 . S
C853 H873 0.930 . S
C854 C855 1.474 . S
C854 C856 1.285 . S
C854 H874 0.929 . S
C855 C852 1.461 . S
C855 C854 1.474 . S
C856 C851 1.342 . S
C856 C854 1.285 . S
C856 H875 0.930 . S
C857 C860 1.424 . S
C857 C862 1.245 . S
C857 C863 1.428 . S
C858 C861 1.260 . S
C858 C862 1.477 . S
C858 H876 0.932 . S
C859 C860 1.384 . S
C859 C861 1.479 . S
C859 H877 0.929 . S
C860 C857 1.424 . S
C860 C859 1.384 . S
C860 H878 0.928 . S
C861 C858 1.260 . S
C861 C859 1.479 . S
C862 C857 1.245 . S
C862 C858 1.477 . S
C862 H879 0.932 . S
C863 U846 2.882 . S
C863 C857 1.428 . S
C863 O866 1.301 . S
C863 O867 1.282 . S
O864 U846 2.441 . S
O864 C850 1.249 . S
O865 U846 2.420 . S
O865 C850 1.202 . S
O866 U846 2.455 . S
O866 C863 1.301 . S
O867 U846 2.449 . S
O867 C863 1.282 . S
H868 C841 0.931 . S
H869 C843 0.929 . S
H870 C844 0.930 . S
H871 C845 0.931 . S
H872 C852 0.932 . S
H873 C853 0.930 . S
H874 C854 0.929 . S
H875 C856 0.930 . S
H876 C858 0.932 . S
H877 C859 0.929 . S
H878 C860 0.928 . S
H879 C862 0.932 . S
C880 C881 1.264 . S
C880 C885 1.479 . S
C880 C890 1.465 . S
C881 C880 1.264 . S
C881 C883 1.339 . S
C881 H908 0.931 . S
C882 C883 1.395 . S
C882 C884 1.320 . S
C883 C881 1.339 . S
C883 C882 1.395 . S
C883 H909 0.929 . S
C884 C882 1.320 . S
C884 C885 1.405 . S
C884 H910 0.930 . S
C885 C880 1.479 . S
C885 C884 1.405 . S
C885 H911 0.931 . S
U886 O887 2.454 . S
U886 O888 2.458 . S
U886 C889 2.984 . S
U886 C890 2.847 . S
U886 C903 2.882 . S
U886 O904 2.441 . S
U886 O905 2.420 . S
U886 O906 2.455 . S
U886 O907 2.449 . S
O887 U886 2.454 . S
O887 C889 1.353 . S
O888 U886 2.458 . S
O888 C889 1.286 . S
C889 U886 2.984 . S
C889 O887 1.353 . S
C889 O888 1.286 . S
C889 C891 1.363 . S
C890 C880 1.465 . S
C890 U886 2.847 . S
C890 O904 1.249 . S
C890 O905 1.202 . S
C891 C889 1.363 . S
C891 C893 1.408 . S
C891 C896 1.342 . S
C892 C893 1.310 . S
C892 C895 1.461 . S
C892 H912 0.932 . S
C893 C891 1.408 . S
C893 C892 1.310 . S
C893 H913 0.930 . S
C894 C895 1.474 . S
C894 C896 1.285 . S
C894 H914 0.929 . S
C895 C892 1.461 . S
C895 C894 1.474 . S
C896 C891 1.342 . S
C896 C894 1.285 . S
C896 H915 0.930 . S
C897 C900 1.424 . S
C897 C902 1.245 . S
C897 C903 1.428 . S
C898 C901 1.260 . S
C898 C902 1.477 . S
C898 H916 0.932 . S
C899 C900 1.384 . S
C899 C901 1.479 . S
C899 H917 0.929 . S
C900 C897 1.424 . S
C900 C899 1.384 . S
C900 H918 0.928 . S
C901 C898 1.260 . S
C901 C899 1.479 . S
C902 C897 1.245 . S
C902 C898 1.477 . S
C902 H919 0.932 . S
C903 U886 2.882 . S
C903 C897 1.428 . S
C903 O906 1.301 . S
C903 O907 1.282 . S
O904 U886 2.441 . S
O904 C890 1.249 . S
O905 U886 2.420 . S
O905 C890 1.202 . S
O906 U886 2.455 . S
O906 C903 1.301 . S
O907 U886 2.449 . S
O907 C903 1.282 . S
H908 C881 0.931 . S
H909 C883 0.929 . S
H910 C884 0.930 . S
H911 C885 0.931 . S
H912 C892 0.932 . S
H913 C893 0.930 . S
H914 C894 0.929 . S
H915 C896 0.930 . S
H916 C898 0.932 . S
H917 C899 0.929 . S
H918 C900 0.928 . S
H919 C902 0.932 . S
C920 C921 1.264 . S
C920 C925 1.479 . S
C920 C930 1.465 . S
C921 C920 1.264 . S
C921 C923 1.339 . S
C921 H948 0.931 . S
C922 C923 1.395 . S
C922 C924 1.320 . S
C923 C921 1.339 . S
C923 C922 1.395 . S
C923 H949 0.929 . S
C924 C922 1.320 . S
C924 C925 1.405 . S
C924 H950 0.930 . S
C925 C920 1.479 . S
C925 C924 1.405 . S
C925 H951 0.931 . S
U926 O927 2.454 . S
U926 O928 2.458 . S
U926 C929 2.984 . S
U926 C930 2.847 . S
U926 C943 2.882 . S
U926 O944 2.441 . S
U926 O945 2.420 . S
U926 O946 2.455 . S
U926 O947 2.449 . S
O927 U926 2.454 . S
O927 C929 1.353 . S
O928 U926 2.458 . S
O928 C929 1.286 . S
C929 U926 2.984 . S
C929 O927 1.353 . S
C929 O928 1.286 . S
C929 C931 1.363 . S
C930 C920 1.465 . S
C930 U926 2.847 . S
C930 O944 1.249 . S
C930 O945 1.202 . S
C931 C929 1.363 . S
C931 C933 1.408 . S
C931 C936 1.342 . S
C932 C933 1.310 . S
C932 C935 1.461 . S
C932 H952 0.932 . S
C933 C931 1.408 . S
C933 C932 1.310 . S
C933 H953 0.930 . S
C934 C935 1.474 . S
C934 C936 1.285 . S
C934 H954 0.929 . S
C935 C932 1.461 . S
C935 C934 1.474 . S
C936 C931 1.342 . S
C936 C934 1.285 . S
C936 H955 0.930 . S
C937 C940 1.424 . S
C937 C942 1.245 . S
C937 C943 1.428 . S
C938 C941 1.260 . S
C938 C942 1.477 . S
C938 H956 0.932 . S
C939 C940 1.384 . S
C939 C941 1.479 . S
C939 H957 0.929 . S
C940 C937 1.424 . S
C940 C939 1.384 . S
C940 H958 0.928 . S
C941 C938 1.260 . S
C941 C939 1.479 . S
C942 C937 1.245 . S
C942 C938 1.477 . S
C942 H959 0.932 . S
C943 U926 2.882 . S
C943 C937 1.428 . S
C943 O946 1.301 . S
C943 O947 1.282 . S
O944 U926 2.441 . S
O944 C930 1.249 . S
O945 U926 2.420 . S
O945 C930 1.202 . S
O946 U926 2.455 . S
O946 C943 1.301 . S
O947 U926 2.449 . S
O947 C943 1.282 . S
H948 C921 0.931 . S
H949 C923 0.929 . S
H950 C924 0.930 . S
H951 C925 0.931 . S
H952 C932 0.932 . S
H953 C933 0.930 . S
H954 C934 0.929 . S
H955 C936 0.930 . S
H956 C938 0.932 . S
H957 C939 0.929 . S
H958 C940 0.928 . S
H959 C942 0.932 . S
C960 C961 1.264 . S
C960 C965 1.479 . S
C960 C970 1.465 . S
C961 C960 1.264 . S
C961 C963 1.339 . S
C961 H988 0.931 . S
C962 C963 1.395 . S
C962 C964 1.320 . S
C963 C961 1.339 . S
C963 C962 1.395 . S
C963 H989 0.929 . S
C964 C962 1.320 . S
C964 C965 1.405 . S
C964 H990 0.930 . S
C965 C960 1.479 . S
C965 C964 1.405 . S
C965 H991 0.931 . S
U966 O967 2.454 . S
U966 O968 2.458 . S
U966 C969 2.984 . S
U966 C970 2.847 . S
U966 C983 2.882 . S
U966 O984 2.441 . S
U966 O985 2.420 . S
U966 O986 2.455 . S
U966 O987 2.449 . S
O967 U966 2.454 . S
O967 C969 1.353 . S
O968 U966 2.458 . S
O968 C969 1.286 . S
C969 U966 2.984 . S
C969 O967 1.353 . S
C969 O968 1.286 . S
C969 C971 1.363 . S
C970 C960 1.465 . S
C970 U966 2.847 . S
C970 O984 1.249 . S
C970 O985 1.202 . S
C971 C969 1.363 . S
C971 C973 1.408 . S
C971 C976 1.342 . S
C972 C973 1.310 . S
C972 C975 1.461 . S
C972 H992 0.932 . S
C973 C971 1.408 . S
C973 C972 1.310 . S
C973 H993 0.930 . S
C974 C975 1.474 . S
C974 C976 1.285 . S
C974 H994 0.929 . S
C975 C972 1.461 . S
C975 C974 1.474 . S
C976 C971 1.342 . S
C976 C974 1.285 . S
C976 H995 0.930 . S
C977 C980 1.424 . S
C977 C982 1.245 . S
C977 C983 1.428 . S
C978 C981 1.260 . S
C978 C982 1.477 . S
C978 H996 0.932 . S
C979 C980 1.384 . S
C979 C981 1.479 . S
C979 H997 0.929 . S
C980 C977 1.424 . S
C980 C979 1.384 . S
C980 H998 0.928 . S
C981 C978 1.260 . S
C981 C979 1.479 . S
C982 C977 1.245 . S
C982 C978 1.477 . S
C982 H999 0.932 . S
C983 U966 2.882 . S
C983 C977 1.428 . S
C983 O986 1.301 . S
C983 O987 1.282 . S
O984 U966 2.441 . S
O984 C970 1.249 . S
O985 U966 2.420 . S
O985 C970 1.202 . S
O986 U966 2.455 . S
O986 C983 1.301 . S
O987 U966 2.449 . S
O987 C983 1.282 . S
H988 C961 0.931 . S
H989 C963 0.929 . S
H990 C964 0.930 . S
H991 C965 0.931 . S
H992 C972 0.932 . S
H993 C973 0.930 . S
H994 C974 0.929 . S
H995 C976 0.930 . S
H996 C978 0.932 . S
H997 C979 0.929 . S
H998 C980 0.928 . S
H999 C982 0.932 . S
C1000 C1001 1.264 . S
C1000 C1005 1.479 . S
C1000 C1010 1.465 . S
C1001 C1000 1.264 . S
C1001 C1003 1.339 . S
C1001 H1028 0.931 . S
C1002 C1003 1.395 . S
C1002 C1004 1.320 . S
C1003 C1001 1.339 . S
C1003 C1002 1.395 . S
C1003 H1029 0.929 . S
C1004 C1002 1.320 . S
C1004 C1005 1.405 . S
C1004 H1030 0.930 . S
C1005 C1000 1.479 . S
C1005 C1004 1.405 . S
C1005 H1031 0.931 . S
U1006 O1007 2.454 . S
U1006 O1008 2.458 . S
U1006 C1009 2.984 . S
U1006 C1010 2.847 . S
U1006 C1023 2.882 . S
U1006 O1024 2.441 . S
U1006 O1025 2.420 . S
U1006 O1026 2.455 . S
U1006 O1027 2.449 . S
O1007 U1006 2.454 . S
O1007 C1009 1.353 . S
O1008 U1006 2.458 . S
O1008 C1009 1.286 . S
C1009 U1006 2.984 . S
C1009 O1007 1.353 . S
C1009 O1008 1.286 . S
C1009 C1011 1.363 . S
C1010 C1000 1.465 . S
C1010 U1006 2.847 . S
C1010 O1024 1.249 . S
C1010 O1025 1.202 . S
C1011 C1009 1.363 . S
C1011 C1013 1.408 . S
C1011 C1016 1.342 . S
C1012 C1013 1.310 . S
C1012 C1015 1.461 . S
C1012 H1032 0.932 . S
C1013 C1011 1.408 . S
C1013 C1012 1.310 . S
C1013 H1033 0.930 . S
C1014 C1015 1.474 . S
C1014 C1016 1.285 . S
C1014 H1034 0.929 . S
C1015 C1012 1.461 . S
C1015 C1014 1.474 . S
C1016 C1011 1.342 . S
C1016 C1014 1.285 . S
C1016 H1035 0.930 . S
C1017 C1020 1.424 . S
C1017 C1022 1.245 . S
C1017 C1023 1.428 . S
C1018 C1021 1.260 . S
C1018 C1022 1.477 . S
C1018 H1036 0.932 . S
C1019 C1020 1.384 . S
C1019 C1021 1.479 . S
C1019 H1037 0.929 . S
C1020 C1017 1.424 . S
C1020 C1019 1.384 . S
C1020 H1038 0.928 . S
C1021 C1018 1.260 . S
C1021 C1019 1.479 . S
C1022 C1017 1.245 . S
C1022 C1018 1.477 . S
C1022 H1039 0.932 . S
C1023 U1006 2.882 . S
C1023 C1017 1.428 . S
C1023 O1026 1.301 . S
C1023 O1027 1.282 . S
O1024 U1006 2.441 . S
O1024 C1010 1.249 . S
O1025 U1006 2.420 . S
O1025 C1010 1.202 . S
O1026 U1006 2.455 . S
O1026 C1023 1.301 . S
O1027 U1006 2.449 . S
O1027 C1023 1.282 . S
H1028 C1001 0.931 . S
H1029 C1003 0.929 . S
H1030 C1004 0.930 . S
H1031 C1005 0.931 . S
H1032 C1012 0.932 . S
H1033 C1013 0.930 . S
H1034 C1014 0.929 . S
H1035 C1016 0.930 . S
H1036 C1018 0.932 . S
H1037 C1019 0.929 . S
H1038 C1020 0.928 . S
H1039 C1022 0.932 . S
C1040 C1041 1.264 . S
C1040 C1045 1.479 . S
C1040 C1050 1.465 . S
C1041 C1040 1.264 . S
C1041 C1043 1.339 . S
C1041 H1068 0.931 . S
C1042 C1043 1.395 . S
C1042 C1044 1.320 . S
C1043 C1041 1.339 . S
C1043 C1042 1.395 . S
C1043 H1069 0.929 . S
C1044 C1042 1.320 . S
C1044 C1045 1.405 . S
C1044 H1070 0.930 . S
C1045 C1040 1.479 . S
C1045 C1044 1.405 . S
C1045 H1071 0.931 . S
U1046 O1047 2.454 . S
U1046 O1048 2.458 . S
U1046 C1049 2.984 . S
U1046 C1050 2.847 . S
U1046 C1063 2.882 . S
U1046 O1064 2.441 . S
U1046 O1065 2.420 . S
U1046 O1066 2.455 . S
U1046 O1067 2.449 . S
O1047 U1046 2.454 . S
O1047 C1049 1.353 . S
O1048 U1046 2.458 . S
O1048 C1049 1.286 . S
C1049 U1046 2.984 . S
C1049 O1047 1.353 . S
C1049 O1048 1.286 . S
C1049 C1051 1.363 . S
C1050 C1040 1.465 . S
C1050 U1046 2.847 . S
C1050 O1064 1.249 . S
C1050 O1065 1.202 . S
C1051 C1049 1.363 . S
C1051 C1053 1.408 . S
C1051 C1056 1.342 . S
C1052 C1053 1.310 . S
C1052 C1055 1.461 . S
C1052 H1072 0.932 . S
C1053 C1051 1.408 . S
C1053 C1052 1.310 . S
C1053 H1073 0.930 . S
C1054 C1055 1.474 . S
C1054 C1056 1.285 . S
C1054 H1074 0.929 . S
C1055 C1052 1.461 . S
C1055 C1054 1.474 . S
C1056 C1051 1.342 . S
C1056 C1054 1.285 . S
C1056 H1075 0.930 . S
C1057 C1060 1.424 . S
C1057 C1062 1.245 . S
C1057 C1063 1.428 . S
C1058 C1061 1.260 . S
C1058 C1062 1.477 . S
C1058 H1076 0.932 . S
C1059 C1060 1.384 . S
C1059 C1061 1.479 . S
C1059 H1077 0.929 . S
C1060 C1057 1.424 . S
C1060 C1059 1.384 . S
C1060 H1078 0.928 . S
C1061 C1058 1.260 . S
C1061 C1059 1.479 . S
C1062 C1057 1.245 . S
C1062 C1058 1.477 . S
C1062 H1079 0.932 . S
C1063 U1046 2.882 . S
C1063 C1057 1.428 . S
C1063 O1066 1.301 . S
C1063 O1067 1.282 . S
O1064 U1046 2.441 . S
O1064 C1050 1.249 . S
O1065 U1046 2.420 . S
O1065 C1050 1.202 . S
O1066 U1046 2.455 . S
O1066 C1063 1.301 . S
O1067 U1046 2.449 . S
O1067 C1063 1.282 . S
H1068 C1041 0.931 . S
H1069 C1043 0.929 . S
H1070 C1044 0.930 . S
H1071 C1045 0.931 . S
H1072 C1052 0.932 . S
H1073 C1053 0.930 . S
H1074 C1054 0.929 . S
H1075 C1056 0.930 . S
H1076 C1058 0.932 . S
H1077 C1059 0.929 . S
H1078 C1060 0.928 . S
H1079 C1062 0.932 . S
C1080 C1081 1.264 . S
C1080 C1085 1.479 . S
C1080 C1090 1.465 . S
C1081 C1080 1.264 . S
C1081 C1083 1.339 . S
C1081 H1108 0.931 . S
C1082 C1083 1.395 . S
C1082 C1084 1.320 . S
C1083 C1081 1.339 . S
C1083 C1082 1.395 . S
C1083 H1109 0.929 . S
C1084 C1082 1.320 . S
C1084 C1085 1.405 . S
C1084 H1110 0.930 . S
C1085 C1080 1.479 . S
C1085 C1084 1.405 . S
C1085 H1111 0.931 . S
U1086 O1087 2.454 . S
U1086 O1088 2.458 . S
U1086 C1089 2.984 . S
U1086 C1090 2.847 . S
U1086 C1103 2.882 . S
U1086 O1104 2.441 . S
U1086 O1105 2.420 . S
U1086 O1106 2.455 . S
U1086 O1107 2.449 . S
O1087 U1086 2.454 . S
O1087 C1089 1.353 . S
O1088 U1086 2.458 . S
O1088 C1089 1.286 . S
C1089 U1086 2.984 . S
C1089 O1087 1.353 . S
C1089 O1088 1.286 . S
C1089 C1091 1.363 . S
C1090 C1080 1.465 . S
C1090 U1086 2.847 . S
C1090 O1104 1.249 . S
C1090 O1105 1.202 . S
C1091 C1089 1.363 . S
C1091 C1093 1.408 . S
C1091 C1096 1.342 . S
C1092 C1093 1.310 . S
C1092 C1095 1.461 . S
C1092 H1112 0.932 . S
C1093 C1091 1.408 . S
C1093 C1092 1.310 . S
C1093 H1113 0.930 . S
C1094 C1095 1.474 . S
C1094 C1096 1.285 . S
C1094 H1114 0.929 . S
C1095 C1092 1.461 . S
C1095 C1094 1.474 . S
C1096 C1091 1.342 . S
C1096 C1094 1.285 . S
C1096 H1115 0.930 . S
C1097 C1100 1.424 . S
C1097 C1102 1.245 . S
C1097 C1103 1.428 . S
C1098 C1101 1.260 . S
C1098 C1102 1.477 . S
C1098 H1116 0.932 . S
C1099 C1100 1.384 . S
C1099 C1101 1.479 . S
C1099 H1117 0.929 . S
C1100 C1097 1.424 . S
C1100 C1099 1.384 . S
C1100 H1118 0.928 . S
C1101 C1098 1.260 . S
C1101 C1099 1.479 . S
C1102 C1097 1.245 . S
C1102 C1098 1.477 . S
C1102 H1119 0.932 . S
C1103 U1086 2.882 . S
C1103 C1097 1.428 . S
C1103 O1106 1.301 . S
C1103 O1107 1.282 . S
O1104 U1086 2.441 . S
O1104 C1090 1.249 . S
O1105 U1086 2.420 . S
O1105 C1090 1.202 . S
O1106 U1086 2.455 . S
O1106 C1103 1.301 . S
O1107 U1086 2.449 . S
O1107 C1103 1.282 . S
H1108 C1081 0.931 . S
H1109 C1083 0.929 . S
H1110 C1084 0.930 . S
H1111 C1085 0.931 . S
H1112 C1092 0.932 . S
H1113 C1093 0.930 . S
H1114 C1094 0.929 . S
H1115 C1096 0.930 . S
H1116 C1098 0.932 . S
H1117 C1099 0.929 . S
H1118 C1100 0.928 . S
H1119 C1102 0.932 . S
C1120 C1121 1.264 . S
C1120 C1125 1.479 . S
C1120 C1130 1.465 . S
C1121 C1120 1.264 . S
C1121 C1123 1.339 . S
C1121 H1148 0.931 . S
C1122 C1123 1.395 . S
C1122 C1124 1.320 . S
C1123 C1121 1.339 . S
C1123 C1122 1.395 . S
C1123 H1149 0.929 . S
C1124 C1122 1.320 . S
C1124 C1125 1.405 . S
C1124 H1150 0.930 . S
C1125 C1120 1.479 . S
C1125 C1124 1.405 . S
C1125 H1151 0.931 . S
U1126 O1127 2.454 . S
U1126 O1128 2.458 . S
U1126 C1129 2.984 . S
U1126 C1130 2.847 . S
U1126 C1143 2.882 . S
U1126 O1144 2.441 . S
U1126 O1145 2.420 . S
U1126 O1146 2.455 . S
U1126 O1147 2.449 . S
O1127 U1126 2.454 . S
O1127 C1129 1.353 . S
O1128 U1126 2.458 . S
O1128 C1129 1.286 . S
C1129 U1126 2.984 . S
C1129 O1127 1.353 . S
C1129 O1128 1.286 . S
C1129 C1131 1.363 . S
C1130 C1120 1.465 . S
C1130 U1126 2.847 . S
C1130 O1144 1.249 . S
C1130 O1145 1.202 . S
C1131 C1129 1.363 . S
C1131 C1133 1.408 . S
C1131 C1136 1.342 . S
C1132 C1133 1.310 . S
C1132 C1135 1.461 . S
C1132 H1152 0.932 . S
C1133 C1131 1.408 . S
C1133 C1132 1.310 . S
C1133 H1153 0.930 . S
C1134 C1135 1.474 . S
C1134 C1136 1.285 . S
C1134 H1154 0.929 . S
C1135 C1132 1.461 . S
C1135 C1134 1.474 . S
C1136 C1131 1.342 . S
C1136 C1134 1.285 . S
C1136 H1155 0.930 . S
C1137 C1140 1.424 . S
C1137 C1142 1.245 . S
C1137 C1143 1.428 . S
C1138 C1141 1.260 . S
C1138 C1142 1.477 . S
C1138 H1156 0.932 . S
C1139 C1140 1.384 . S
C1139 C1141 1.479 . S
C1139 H1157 0.929 . S
C1140 C1137 1.424 . S
C1140 C1139 1.384 . S
C1140 H1158 0.928 . S
C1141 C1138 1.260 . S
C1141 C1139 1.479 . S
C1142 C1137 1.245 . S
C1142 C1138 1.477 . S
C1142 H1159 0.932 . S
C1143 U1126 2.882 . S
C1143 C1137 1.428 . S
C1143 O1146 1.301 . S
C1143 O1147 1.282 . S
O1144 U1126 2.441 . S
O1144 C1130 1.249 . S
O1145 U1126 2.420 . S
O1145 C1130 1.202 . S
O1146 U1126 2.455 . S
O1146 C1143 1.301 . S
O1147 U1126 2.449 . S
O1147 C1143 1.282 . S
H1148 C1121 0.931 . S
H1149 C1123 0.929 . S
H1150 C1124 0.930 . S
H1151 C1125 0.931 . S
H1152 C1132 0.932 . S
H1153 C1133 0.930 . S
H1154 C1134 0.929 . S
H1155 C1136 0.930 . S
H1156 C1138 0.932 . S
H1157 C1139 0.929 . S
H1158 C1140 0.928 . S
H1159 C1142 0.932 . S
C1160 C1161 1.264 . S
C1160 C1165 1.479 . S
C1160 C1170 1.465 . S
C1161 C1160 1.264 . S
C1161 C1163 1.339 . S
C1161 H1188 0.931 . S
C1162 C1163 1.395 . S
C1162 C1164 1.320 . S
C1163 C1161 1.339 . S
C1163 C1162 1.395 . S
C1163 H1189 0.929 . S
C1164 C1162 1.320 . S
C1164 C1165 1.405 . S
C1164 H1190 0.930 . S
C1165 C1160 1.479 . S
C1165 C1164 1.405 . S
C1165 H1191 0.931 . S
U1166 O1167 2.454 . S
U1166 O1168 2.458 . S
U1166 C1169 2.984 . S
U1166 C1170 2.847 . S
U1166 C1183 2.882 . S
U1166 O1184 2.441 . S
U1166 O1185 2.420 . S
U1166 O1186 2.455 . S
U1166 O1187 2.449 . S
O1167 U1166 2.454 . S
O1167 C1169 1.353 . S
O1168 U1166 2.458 . S
O1168 C1169 1.286 . S
C1169 U1166 2.984 . S
C1169 O1167 1.353 . S
C1169 O1168 1.286 . S
C1169 C1171 1.363 . S
C1170 C1160 1.465 . S
C1170 U1166 2.847 . S
C1170 O1184 1.249 . S
C1170 O1185 1.202 . S
C1171 C1169 1.363 . S
C1171 C1173 1.408 . S
C1171 C1176 1.342 . S
C1172 C1173 1.310 . S
C1172 C1175 1.461 . S
C1172 H1192 0.932 . S
C1173 C1171 1.408 . S
C1173 C1172 1.310 . S
C1173 H1193 0.930 . S
C1174 C1175 1.474 . S
C1174 C1176 1.285 . S
C1174 H1194 0.929 . S
C1175 C1172 1.461 . S
C1175 C1174 1.474 . S
C1176 C1171 1.342 . S
C1176 C1174 1.285 . S
C1176 H1195 0.930 . S
C1177 C1180 1.424 . S
C1177 C1182 1.245 . S
C1177 C1183 1.428 . S
C1178 C1181 1.260 . S
C1178 C1182 1.477 . S
C1178 H1196 0.932 . S
C1179 C1180 1.384 . S
C1179 C1181 1.479 . S
C1179 H1197 0.929 . S
C1180 C1177 1.424 . S
C1180 C1179 1.384 . S
C1180 H1198 0.928 . S
C1181 C1178 1.260 . S
C1181 C1179 1.479 . S
C1182 C1177 1.245 . S
C1182 C1178 1.477 . S
C1182 H1199 0.932 . S
C1183 U1166 2.882 . S
C1183 C1177 1.428 . S
C1183 O1186 1.301 . S
C1183 O1187 1.282 . S
O1184 U1166 2.441 . S
O1184 C1170 1.249 . S
O1185 U1166 2.420 . S
O1185 C1170 1.202 . S
O1186 U1166 2.455 . S
O1186 C1183 1.301 . S
O1187 U1166 2.449 . S
O1187 C1183 1.282 . S
H1188 C1161 0.931 . S
H1189 C1163 0.929 . S
H1190 C1164 0.930 . S
H1191 C1165 0.931 . S
H1192 C1172 0.932 . S
H1193 C1173 0.930 . S
H1194 C1174 0.929 . S
H1195 C1176 0.930 . S
H1196 C1178 0.932 . S
H1197 C1179 0.929 . S
H1198 C1180 0.928 . S
H1199 C1182 0.932 . S
C1200 C1201 1.264 . S
C1200 C1205 1.479 . S
C1200 C1210 1.465 . S
C1201 C1200 1.264 . S
C1201 C1203 1.339 . S
C1201 H1228 0.931 . S
C1202 C1203 1.395 . S
C1202 C1204 1.320 . S
C1203 C1201 1.339 . S
C1203 C1202 1.395 . S
C1203 H1229 0.929 . S
C1204 C1202 1.320 . S
C1204 C1205 1.405 . S
C1204 H1230 0.930 . S
C1205 C1200 1.479 . S
C1205 C1204 1.405 . S
C1205 H1231 0.931 . S
U1206 O1207 2.454 . S
U1206 O1208 2.458 . S
U1206 C1209 2.984 . S
U1206 C1210 2.847 . S
U1206 C1223 2.882 . S
U1206 O1224 2.441 . S
U1206 O1225 2.420 . S
U1206 O1226 2.455 . S
U1206 O1227 2.449 . S
O1207 U1206 2.454 . S
O1207 C1209 1.353 . S
O1208 U1206 2.458 . S
O1208 C1209 1.286 . S
C1209 U1206 2.984 . S
C1209 O1207 1.353 . S
C1209 O1208 1.286 . S
C1209 C1211 1.363 . S
C1210 C1200 1.465 . S
C1210 U1206 2.847 . S
C1210 O1224 1.249 . S
C1210 O1225 1.202 . S
C1211 C1209 1.363 . S
C1211 C1213 1.408 . S
C1211 C1216 1.342 . S
C1212 C1213 1.310 . S
C1212 C1215 1.461 . S
C1212 H1232 0.932 . S
C1213 C1211 1.408 . S
C1213 C1212 1.310 . S
C1213 H1233 0.930 . S
C1214 C1215 1.474 . S
C1214 C1216 1.285 . S
C1214 H1234 0.929 . S
C1215 C1212 1.461 . S
C1215 C1214 1.474 . S
C1216 C1211 1.342 . S
C1216 C1214 1.285 . S
C1216 H1235 0.930 . S
C1217 C1220 1.424 . S
C1217 C1222 1.245 . S
C1217 C1223 1.428 . S
C1218 C1221 1.260 . S
C1218 C1222 1.477 . S
C1218 H1236 0.932 . S
C1219 C1220 1.384 . S
C1219 C1221 1.479 . S
C1219 H1237 0.929 . S
C1220 C1217 1.424 . S
C1220 C1219 1.384 . S
C1220 H1238 0.928 . S
C1221 C1218 1.260 . S
C1221 C1219 1.479 . S
C1222 C1217 1.245 . S
C1222 C1218 1.477 . S
C1222 H1239 0.932 . S
C1223 U1206 2.882 . S
C1223 C1217 1.428 . S
C1223 O1226 1.301 . S
C1223 O1227 1.282 . S
O1224 U1206 2.441 . S
O1224 C1210 1.249 . S
O1225 U1206 2.420 . S
O1225 C1210 1.202 . S
O1226 U1206 2.455 . S
O1226 C1223 1.301 . S
O1227 U1206 2.449 . S
O1227 C1223 1.282 . S
H1228 C1201 0.931 . S
H1229 C1203 0.929 . S
H1230 C1204 0.930 . S
H1231 C1205 0.931 . S
H1232 C1212 0.932 . S
H1233 C1213 0.930 . S
H1234 C1214 0.929 . S
H1235 C1216 0.930 . S
H1236 C1218 0.932 . S
H1237 C1219 0.929 . S
H1238 C1220 0.928 . S
H1239 C1222 0.932 . S
C1240 C1241 1.264 . S
C1240 C1245 1.479 . S
C1240 C1250 1.465 . S
C1241 C1240 1.264 . S
C1241 C1243 1.339 . S
C1241 H1268 0.931 . S
C1242 C1243 1.395 . S
C1242 C1244 1.320 . S
C1243 C1241 1.339 . S
C1243 C1242 1.395 . S
C1243 H1269 0.929 . S
C1244 C1242 1.320 . S
C1244 C1245 1.405 . S
C1244 H1270 0.930 . S
C1245 C1240 1.479 . S
C1245 C1244 1.405 . S
C1245 H1271 0.931 . S
U1246 O1247 2.454 . S
U1246 O1248 2.458 . S
U1246 C1249 2.984 . S
U1246 C1250 2.847 . S
U1246 C1263 2.882 . S
U1246 O1264 2.441 . S
U1246 O1265 2.420 . S
U1246 O1266 2.455 . S
U1246 O1267 2.449 . S
O1247 U1246 2.454 . S
O1247 C1249 1.353 . S
O1248 U1246 2.458 . S
O1248 C1249 1.286 . S
C1249 U1246 2.984 . S
C1249 O1247 1.353 . S
C1249 O1248 1.286 . S
C1249 C1251 1.363 . S
C1250 C1240 1.465 . S
C1250 U1246 2.847 . S
C1250 O1264 1.249 . S
C1250 O1265 1.202 . S
C1251 C1249 1.363 . S
C1251 C1253 1.408 . S
C1251 C1256 1.342 . S
C1252 C1253 1.310 . S
C1252 C1255 1.461 . S
C1252 H1272 0.932 . S
C1253 C1251 1.408 . S
C1253 C1252 1.310 . S
C1253 H1273 0.930 . S
C1254 C1255 1.474 . S
C1254 C1256 1.285 . S
C1254 H1274 0.929 . S
C1255 C1252 1.461 . S
C1255 C1254 1.474 . S
C1256 C1251 1.342 . S
C1256 C1254 1.285 . S
C1256 H1275 0.930 . S
C1257 C1260 1.424 . S
C1257 C1262 1.245 . S
C1257 C1263 1.428 . S
C1258 C1261 1.260 . S
C1258 C1262 1.477 . S
C1258 H1276 0.932 . S
C1259 C1260 1.384 . S
C1259 C1261 1.479 . S
C1259 H1277 0.929 . S
C1260 C1257 1.424 . S
C1260 C1259 1.384 . S
C1260 H1278 0.928 . S
C1261 C1258 1.260 . S
C1261 C1259 1.479 . S
C1262 C1257 1.245 . S
C1262 C1258 1.477 . S
C1262 H1279 0.932 . S
C1263 U1246 2.882 . S
C1263 C1257 1.428 . S
C1263 O1266 1.301 . S
C1263 O1267 1.282 . S
O1264 U1246 2.441 . S
O1264 C1250 1.249 . S
O1265 U1246 2.420 . S
O1265 C1250 1.202 . S
O1266 U1246 2.455 . S
O1266 C1263 1.301 . S
O1267 U1246 2.449 . S
O1267 C1263 1.282 . S
H1268 C1241 0.931 . S
H1269 C1243 0.929 . S
H1270 C1244 0.930 . S
H1271 C1245 0.931 . S
H1272 C1252 0.932 . S
H1273 C1253 0.930 . S
H1274 C1254 0.929 . S
H1275 C1256 0.930 . S
H1276 C1258 0.932 . S
H1277 C1259 0.929 . S
H1278 C1260 0.928 . S
H1279 C1262 0.932 . S
C1280 C1281 1.264 . S
C1280 C1285 1.479 . S
C1280 C1290 1.465 . S
C1281 C1280 1.264 . S
C1281 C1283 1.339 . S
C1281 H1308 0.931 . S
C1282 C1283 1.395 . S
C1282 C1284 1.320 . S
C1283 C1281 1.339 . S
C1283 C1282 1.395 . S
C1283 H1309 0.929 . S
C1284 C1282 1.320 . S
C1284 C1285 1.405 . S
C1284 H1310 0.930 . S
C1285 C1280 1.479 . S
C1285 C1284 1.405 . S
C1285 H1311 0.931 . S
U1286 O1287 2.454 . S
U1286 O1288 2.458 . S
U1286 C1289 2.984 . S
U1286 C1290 2.847 . S
U1286 C1303 2.882 . S
U1286 O1304 2.441 . S
U1286 O1305 2.420 . S
U1286 O1306 2.455 . S
U1286 O1307 2.449 . S
O1287 U1286 2.454 . S
O1287 C1289 1.353 . S
O1288 U1286 2.458 . S
O1288 C1289 1.286 . S
C1289 U1286 2.984 . S
C1289 O1287 1.353 . S
C1289 O1288 1.286 . S
C1289 C1291 1.363 . S
C1290 C1280 1.465 . S
C1290 U1286 2.847 . S
C1290 O1304 1.249 . S
C1290 O1305 1.202 . S
C1291 C1289 1.363 . S
C1291 C1293 1.408 . S
C1291 C1296 1.342 . S
C1292 C1293 1.310 . S
C1292 C1295 1.461 . S
C1292 H1312 0.932 . S
C1293 C1291 1.408 . S
C1293 C1292 1.310 . S
C1293 H1313 0.930 . S
C1294 C1295 1.474 . S
C1294 C1296 1.285 . S
C1294 H1314 0.929 . S
C1295 C1292 1.461 . S
C1295 C1294 1.474 . S
C1296 C1291 1.342 . S
C1296 C1294 1.285 . S
C1296 H1315 0.930 . S
C1297 C1300 1.424 . S
C1297 C1302 1.245 . S
C1297 C1303 1.428 . S
C1298 C1301 1.260 . S
C1298 C1302 1.477 . S
C1298 H1316 0.932 . S
C1299 C1300 1.384 . S
C1299 C1301 1.479 . S
C1299 H1317 0.929 . S
C1300 C1297 1.424 . S
C1300 C1299 1.384 . S
C1300 H1318 0.928 . S
C1301 C1298 1.260 . S
C1301 C1299 1.479 . S
C1302 C1297 1.245 . S
C1302 C1298 1.477 . S
C1302 H1319 0.932 . S
C1303 U1286 2.882 . S
C1303 C1297 1.428 . S
C1303 O1306 1.301 . S
C1303 O1307 1.282 . S
O1304 U1286 2.441 . S
O1304 C1290 1.249 . S
O1305 U1286 2.420 . S
O1305 C1290 1.202 . S
O1306 U1286 2.455 . S
O1306 C1303 1.301 . S
O1307 U1286 2.449 . S
O1307 C1303 1.282 . S
H1308 C1281 0.931 . S
H1309 C1283 0.929 . S
H1310 C1284 0.930 . S
H1311 C1285 0.931 . S
H1312 C1292 0.932 . S
H1313 C1293 0.930 . S
H1314 C1294 0.929 . S
H1315 C1296 0.930 . S
H1316 C1298 0.932 . S
H1317 C1299 0.929 . S
H1318 C1300 0.928 . S
H1319 C1302 0.932 . S
C1320 C1321 1.264 . S
C1320 C1325 1.479 . S
C1320 C1330 1.465 . S
C1321 C1320 1.264 . S
C1321 C1323 1.339 . S
C1321 H1348 0.931 . S
C1322 C1323 1.395 . S
C1322 C1324 1.320 . S
C1323 C1321 1.339 . S
C1323 C1322 1.395 . S
C1323 H1349 0.929 . S
C1324 C1322 1.320 . S
C1324 C1325 1.405 . S
C1324 H1350 0.930 . S
C1325 C1320 1.479 . S
C1325 C1324 1.405 . S
C1325 H1351 0.931 . S
U1326 O1327 2.454 . S
U1326 O1328 2.458 . S
U1326 C1329 2.984 . S
U1326 C1330 2.847 . S
U1326 C1343 2.882 . S
U1326 O1344 2.441 . S
U1326 O1345 2.420 . S
U1326 O1346 2.455 . S
U1326 O1347 2.449 . S
O1327 U1326 2.454 . S
O1327 C1329 1.353 . S
O1328 U1326 2.458 . S
O1328 C1329 1.286 . S
C1329 U1326 2.984 . S
C1329 O1327 1.353 . S
C1329 O1328 1.286 . S
C1329 C1331 1.363 . S
C1330 C1320 1.465 . S
C1330 U1326 2.847 . S
C1330 O1344 1.249 . S
C1330 O1345 1.202 . S
C1331 C1329 1.363 . S
C1331 C1333 1.408 . S
C1331 C1336 1.342 . S
C1332 C1333 1.310 . S
C1332 C1335 1.461 . S
C1332 H1352 0.932 . S
C1333 C1331 1.408 . S
C1333 C1332 1.310 . S
C1333 H1353 0.930 . S
C1334 C1335 1.474 . S
C1334 C1336 1.285 . S
C1334 H1354 0.929 . S
C1335 C1332 1.461 . S
C1335 C1334 1.474 . S
C1336 C1331 1.342 . S
C1336 C1334 1.285 . S
C1336 H1355 0.930 . S
C1337 C1340 1.424 . S
C1337 C1342 1.245 . S
C1337 C1343 1.428 . S
C1338 C1341 1.260 . S
C1338 C1342 1.477 . S
C1338 H1356 0.932 . S
C1339 C1340 1.384 . S
C1339 C1341 1.479 . S
C1339 H1357 0.929 . S
C1340 C1337 1.424 . S
C1340 C1339 1.384 . S
C1340 H1358 0.928 . S
C1341 C1338 1.260 . S
C1341 C1339 1.479 . S
C1342 C1337 1.245 . S
C1342 C1338 1.477 . S
C1342 H1359 0.932 . S
C1343 U1326 2.882 . S
C1343 C1337 1.428 . S
C1343 O1346 1.301 . S
C1343 O1347 1.282 . S
O1344 U1326 2.441 . S
O1344 C1330 1.249 . S
O1345 U1326 2.420 . S
O1345 C1330 1.202 . S
O1346 U1326 2.455 . S
O1346 C1343 1.301 . S
O1347 U1326 2.449 . S
O1347 C1343 1.282 . S
H1348 C1321 0.931 . S
H1349 C1323 0.929 . S
H1350 C1324 0.930 . S
H1351 C1325 0.931 . S
H1352 C1332 0.932 . S
H1353 C1333 0.930 . S
H1354 C1334 0.929 . S
H1355 C1336 0.930 . S
H1356 C1338 0.932 . S
H1357 C1339 0.929 . S
H1358 C1340 0.928 . S
H1359 C1342 0.932 . S
C1360 C1361 1.264 . S
C1360 C1365 1.479 . S
C1360 C1370 1.465 . S
C1361 C1360 1.264 . S
C1361 C1363 1.339 . S
C1361 H1388 0.931 . S
C1362 C1363 1.395 . S
C1362 C1364 1.320 . S
C1363 C1361 1.339 . S
C1363 C1362 1.395 . S
C1363 H1389 0.929 . S
C1364 C1362 1.320 . S
C1364 C1365 1.405 . S
C1364 H1390 0.930 . S
C1365 C1360 1.479 . S
C1365 C1364 1.405 . S
C1365 H1391 0.931 . S
U1366 O1367 2.454 . S
U1366 O1368 2.458 . S
U1366 C1369 2.984 . S
U1366 C1370 2.847 . S
U1366 C1383 2.882 . S
U1366 O1384 2.441 . S
U1366 O1385 2.420 . S
U1366 O1386 2.455 . S
U1366 O1387 2.449 . S
O1367 U1366 2.454 . S
O1367 C1369 1.353 . S
O1368 U1366 2.458 . S
O1368 C1369 1.286 . S
C1369 U1366 2.984 . S
C1369 O1367 1.353 . S
C1369 O1368 1.286 . S
C1369 C1371 1.363 . S
C1370 C1360 1.465 . S
C1370 U1366 2.847 . S
C1370 O1384 1.249 . S
C1370 O1385 1.202 . S
C1371 C1369 1.363 . S
C1371 C1373 1.408 . S
C1371 C1376 1.342 . S
C1372 C1373 1.310 . S
C1372 C1375 1.461 . S
C1372 H1392 0.932 . S
C1373 C1371 1.408 . S
C1373 C1372 1.310 . S
C1373 H1393 0.930 . S
C1374 C1375 1.474 . S
C1374 C1376 1.285 . S
C1374 H1394 0.929 . S
C1375 C1372 1.461 . S
C1375 C1374 1.474 . S
C1376 C1371 1.342 . S
C1376 C1374 1.285 . S
C1376 H1395 0.930 . S
C1377 C1380 1.424 . S
C1377 C1382 1.245 . S
C1377 C1383 1.428 . S
C1378 C1381 1.260 . S
C1378 C1382 1.477 . S
C1378 H1396 0.932 . S
C1379 C1380 1.384 . S
C1379 C1381 1.479 . S
C1379 H1397 0.929 . S
C1380 C1377 1.424 . S
C1380 C1379 1.384 . S
C1380 H1398 0.928 . S
C1381 C1378 1.260 . S
C1381 C1379 1.479 . S
C1382 C1377 1.245 . S
C1382 C1378 1.477 . S
C1382 H1399 0.932 . S
C1383 U1366 2.882 . S
C1383 C1377 1.428 . S
C1383 O1386 1.301 . S
C1383 O1387 1.282 . S
O1384 U1366 2.441 . S
O1384 C1370 1.249 . S
O1385 U1366 2.420 . S
O1385 C1370 1.202 . S
O1386 U1366 2.455 . S
O1386 C1383 1.301 . S
O1387 U1366 2.449 . S
O1387 C1383 1.282 . S
H1388 C1361 0.931 . S
H1389 C1363 0.929 . S
H1390 C1364 0.930 . S
H1391 C1365 0.931 . S
H1392 C1372 0.932 . S
H1393 C1373 0.930 . S
H1394 C1374 0.929 . S
H1395 C1376 0.930 . S
H1396 C1378 0.932 . S
H1397 C1379 0.929 . S
H1398 C1380 0.928 . S
H1399 C1382 0.932 . S
C1400 C1401 1.264 . S
C1400 C1405 1.479 . S
C1400 C1410 1.465 . S
C1401 C1400 1.264 . S
C1401 C1403 1.339 . S
C1401 H1428 0.931 . S
C1402 C1403 1.395 . S
C1402 C1404 1.320 . S
C1403 C1401 1.339 . S
C1403 C1402 1.395 . S
C1403 H1429 0.929 . S
C1404 C1402 1.320 . S
C1404 C1405 1.405 . S
C1404 H1430 0.930 . S
C1405 C1400 1.479 . S
C1405 C1404 1.405 . S
C1405 H1431 0.931 . S
U1406 O1407 2.454 . S
U1406 O1408 2.458 . S
U1406 C1409 2.984 . S
U1406 C1410 2.847 . S
U1406 C1423 2.882 . S
U1406 O1424 2.441 . S
U1406 O1425 2.420 . S
U1406 O1426 2.455 . S
U1406 O1427 2.449 . S
O1407 U1406 2.454 . S
O1407 C1409 1.353 . S
O1408 U1406 2.458 . S
O1408 C1409 1.286 . S
C1409 U1406 2.984 . S
C1409 O1407 1.353 . S
C1409 O1408 1.286 . S
C1409 C1411 1.363 . S
C1410 C1400 1.465 . S
C1410 U1406 2.847 . S
C1410 O1424 1.249 . S
C1410 O1425 1.202 . S
C1411 C1409 1.363 . S
C1411 C1413 1.408 . S
C1411 C1416 1.342 . S
C1412 C1413 1.310 . S
C1412 C1415 1.461 . S
C1412 H1432 0.932 . S
C1413 C1411 1.408 . S
C1413 C1412 1.310 . S
C1413 H1433 0.930 . S
C1414 C1415 1.474 . S
C1414 C1416 1.285 . S
C1414 H1434 0.929 . S
C1415 C1412 1.461 . S
C1415 C1414 1.474 . S
C1416 C1411 1.342 . S
C1416 C1414 1.285 . S
C1416 H1435 0.930 . S
C1417 C1420 1.424 . S
C1417 C1422 1.245 . S
C1417 C1423 1.428 . S
C1418 C1421 1.260 . S
C1418 C1422 1.477 . S
C1418 H1436 0.932 . S
C1419 C1420 1.384 . S
C1419 C1421 1.479 . S
C1419 H1437 0.929 . S
C1420 C1417 1.424 . S
C1420 C1419 1.384 . S
C1420 H1438 0.928 . S
C1421 C1418 1.260 . S
C1421 C1419 1.479 . S
C1422 C1417 1.245 . S
C1422 C1418 1.477 . S
C1422 H1439 0.932 . S
C1423 U1406 2.882 . S
C1423 C1417 1.428 . S
C1423 O1426 1.301 . S
C1423 O1427 1.282 . S
O1424 U1406 2.441 . S
O1424 C1410 1.249 . S
O1425 U1406 2.420 . S
O1425 C1410 1.202 . S
O1426 U1406 2.455 . S
O1426 C1423 1.301 . S
O1427 U1406 2.449 . S
O1427 C1423 1.282 . S
H1428 C1401 0.931 . S
H1429 C1403 0.929 . S
H1430 C1404 0.930 . S
H1431 C1405 0.931 . S
H1432 C1412 0.932 . S
H1433 C1413 0.930 . S
H1434 C1414 0.929 . S
H1435 C1416 0.930 . S
H1436 C1418 0.932 . S
H1437 C1419 0.929 . S
H1438 C1420 0.928 . S
H1439 C1422 0.932 . S
C1440 C1441 1.264 . S
C1440 C1445 1.479 . S
C1440 C1450 1.465 . S
C1441 C1440 1.264 . S
C1441 C1443 1.339 . S
C1441 H1468 0.931 . S
C1442 C1443 1.395 . S
C1442 C1444 1.320 . S
C1443 C1441 1.339 . S
C1443 C1442 1.395 . S
C1443 H1469 0.929 . S
C1444 C1442 1.320 . S
C1444 C1445 1.405 . S
C1444 H1470 0.930 . S
C1445 C1440 1.479 . S
C1445 C1444 1.405 . S
C1445 H1471 0.931 . S
U1446 O1447 2.454 . S
U1446 O1448 2.458 . S
U1446 C1449 2.984 . S
U1446 C1450 2.847 . S
U1446 C1463 2.882 . S
U1446 O1464 2.441 . S
U1446 O1465 2.420 . S
U1446 O1466 2.455 . S
U1446 O1467 2.449 . S
O1447 U1446 2.454 . S
O1447 C1449 1.353 . S
O1448 U1446 2.458 . S
O1448 C1449 1.286 . S
C1449 U1446 2.984 . S
C1449 O1447 1.353 . S
C1449 O1448 1.286 . S
C1449 C1451 1.363 . S
C1450 C1440 1.465 . S
C1450 U1446 2.847 . S
C1450 O1464 1.249 . S
C1450 O1465 1.202 . S
C1451 C1449 1.363 . S
C1451 C1453 1.408 . S
C1451 C1456 1.342 . S
C1452 C1453 1.310 . S
C1452 C1455 1.461 . S
C1452 H1472 0.932 . S
C1453 C1451 1.408 . S
C1453 C1452 1.310 . S
C1453 H1473 0.930 . S
C1454 C1455 1.474 . S
C1454 C1456 1.285 . S
C1454 H1474 0.929 . S
C1455 C1452 1.461 . S
C1455 C1454 1.474 . S
C1456 C1451 1.342 . S
C1456 C1454 1.285 . S
C1456 H1475 0.930 . S
C1457 C1460 1.424 . S
C1457 C1462 1.245 . S
C1457 C1463 1.428 . S
C1458 C1461 1.260 . S
C1458 C1462 1.477 . S
C1458 H1476 0.932 . S
C1459 C1460 1.384 . S
C1459 C1461 1.479 . S
C1459 H1477 0.929 . S
C1460 C1457 1.424 . S
C1460 C1459 1.384 . S
C1460 H1478 0.928 . S
C1461 C1458 1.260 . S
C1461 C1459 1.479 . S
C1462 C1457 1.245 . S
C1462 C1458 1.477 . S
C1462 H1479 0.932 . S
C1463 U1446 2.882 . S
C1463 C1457 1.428 . S
C1463 O1466 1.301 . S
C1463 O1467 1.282 . S
O1464 U1446 2.441 . S
O1464 C1450 1.249 . S
O1465 U1446 2.420 . S
O1465 C1450 1.202 . S
O1466 U1446 2.455 . S
O1466 C1463 1.301 . S
O1467 U1446 2.449 . S
O1467 C1463 1.282 . S
H1468 C1441 0.931 . S
H1469 C1443 0.929 . S
H1470 C1444 0.930 . S
H1471 C1445 0.931 . S
H1472 C1452 0.932 . S
H1473 C1453 0.930 . S
H1474 C1454 0.929 . S
H1475 C1456 0.930 . S
H1476 C1458 0.932 . S
H1477 C1459 0.929 . S
H1478 C1460 0.928 . S
H1479 C1462 0.932 . S
C1480 C1481 1.264 . S
C1480 C1485 1.479 . S
C1480 C1490 1.465 . S
C1481 C1480 1.264 . S
C1481 C1483 1.339 . S
C1481 H1508 0.931 . S
C1482 C1483 1.395 . S
C1482 C1484 1.320 . S
C1483 C1481 1.339 . S
C1483 C1482 1.395 . S
C1483 H1509 0.929 . S
C1484 C1482 1.320 . S
C1484 C1485 1.405 . S
C1484 H1510 0.930 . S
C1485 C1480 1.479 . S
C1485 C1484 1.405 . S
C1485 H1511 0.931 . S
U1486 O1487 2.454 . S
U1486 O1488 2.458 . S
U1486 C1489 2.984 . S
U1486 C1490 2.847 . S
U1486 C1503 2.882 . S
U1486 O1504 2.441 . S
U1486 O1505 2.420 . S
U1486 O1506 2.455 . S
U1486 O1507 2.449 . S
O1487 U1486 2.454 . S
O1487 C1489 1.353 . S
O1488 U1486 2.458 . S
O1488 C1489 1.286 . S
C1489 U1486 2.984 . S
C1489 O1487 1.353 . S
C1489 O1488 1.286 . S
C1489 C1491 1.363 . S
C1490 C1480 1.465 . S
C1490 U1486 2.847 . S
C1490 O1504 1.249 . S
C1490 O1505 1.202 . S
C1491 C1489 1.363 . S
C1491 C1493 1.408 . S
C1491 C1496 1.342 . S
C1492 C1493 1.310 . S
C1492 C1495 1.461 . S
C1492 H1512 0.932 . S
C1493 C1491 1.408 . S
C1493 C1492 1.310 . S
C1493 H1513 0.930 . S
C1494 C1495 1.474 . S
C1494 C1496 1.285 . S
C1494 H1514 0.929 . S
C1495 C1492 1.461 . S
C1495 C1494 1.474 . S
C1496 C1491 1.342 . S
C1496 C1494 1.285 . S
C1496 H1515 0.930 . S
C1497 C1500 1.424 . S
C1497 C1502 1.245 . S
C1497 C1503 1.428 . S
C1498 C1501 1.260 . S
C1498 C1502 1.477 . S
C1498 H1516 0.932 . S
C1499 C1500 1.384 . S
C1499 C1501 1.479 . S
C1499 H1517 0.929 . S
C1500 C1497 1.424 . S
C1500 C1499 1.384 . S
C1500 H1518 0.928 . S
C1501 C1498 1.260 . S
C1501 C1499 1.479 . S
C1502 C1497 1.245 . S
C1502 C1498 1.477 . S
C1502 H1519 0.932 . S
C1503 U1486 2.882 . S
C1503 C1497 1.428 . S
C1503 O1506 1.301 . S
C1503 O1507 1.282 . S
O1504 U1486 2.441 . S
O1504 C1490 1.249 . S
O1505 U1486 2.420 . S
O1505 C1490 1.202 . S
O1506 U1486 2.455 . S
O1506 C1503 1.301 . S
O1507 U1486 2.449 . S
O1507 C1503 1.282 . S
H1508 C1481 0.931 . S
H1509 C1483 0.929 . S
H1510 C1484 0.930 . S
H1511 C1485 0.931 . S
H1512 C1492 0.932 . S
H1513 C1493 0.930 . S
H1514 C1494 0.929 . S
H1515 C1496 0.930 . S
H1516 C1498 0.932 . S
H1517 C1499 0.929 . S
H1518 C1500 0.928 . S
H1519 C1502 0.932 . S
C1520 C1521 1.264 . S
C1520 C1525 1.479 . S
C1520 C1530 1.465 . S
C1521 C1520 1.264 . S
C1521 C1523 1.339 . S
C1521 H1548 0.931 . S
C1522 C1523 1.395 . S
C1522 C1524 1.320 . S
C1523 C1521 1.339 . S
C1523 C1522 1.395 . S
C1523 H1549 0.929 . S
C1524 C1522 1.320 . S
C1524 C1525 1.405 . S
C1524 H1550 0.930 . S
C1525 C1520 1.479 . S
C1525 C1524 1.405 . S
C1525 H1551 0.931 . S
U1526 O1527 2.454 . S
U1526 O1528 2.458 . S
U1526 C1529 2.984 . S
U1526 C1530 2.847 . S
U1526 C1543 2.882 . S
U1526 O1544 2.441 . S
U1526 O1545 2.420 . S
U1526 O1546 2.455 . S
U1526 O1547 2.449 . S
O1527 U1526 2.454 . S
O1527 C1529 1.353 . S
O1528 U1526 2.458 . S
O1528 C1529 1.286 . S
C1529 U1526 2.984 . S
C1529 O1527 1.353 . S
C1529 O1528 1.286 . S
C1529 C1531 1.363 . S
C1530 C1520 1.465 . S
C1530 U1526 2.847 . S
C1530 O1544 1.249 . S
C1530 O1545 1.202 . S
C1531 C1529 1.363 . S
C1531 C1533 1.408 . S
C1531 C1536 1.342 . S
C1532 C1533 1.310 . S
C1532 C1535 1.461 . S
C1532 H1552 0.932 . S
C1533 C1531 1.408 . S
C1533 C1532 1.310 . S
C1533 H1553 0.930 . S
C1534 C1535 1.474 . S
C1534 C1536 1.285 . S
C1534 H1554 0.929 . S
C1535 C1532 1.461 . S
C1535 C1534 1.474 . S
C1536 C1531 1.342 . S
C1536 C1534 1.285 . S
C1536 H1555 0.930 . S
C1537 C1540 1.424 . S
C1537 C1542 1.245 . S
C1537 C1543 1.428 . S
C1538 C1541 1.260 . S
C1538 C1542 1.477 . S
C1538 H1556 0.932 . S
C1539 C1540 1.384 . S
C1539 C1541 1.479 . S
C1539 H1557 0.929 . S
C1540 C1537 1.424 . S
C1540 C1539 1.384 . S
C1540 H1558 0.928 . S
C1541 C1538 1.260 . S
C1541 C1539 1.479 . S
C1542 C1537 1.245 . S
C1542 C1538 1.477 . S
C1542 H1559 0.932 . S
C1543 U1526 2.882 . S
C1543 C1537 1.428 . S
C1543 O1546 1.301 . S
C1543 O1547 1.282 . S
O1544 U1526 2.441 . S
O1544 C1530 1.249 . S
O1545 U1526 2.420 . S
O1545 C1530 1.202 . S
O1546 U1526 2.455 . S
O1546 C1543 1.301 . S
O1547 U1526 2.449 . S
O1547 C1543 1.282 . S
H1548 C1521 0.931 . S
H1549 C1523 0.929 . S
H1550 C1524 0.930 . S
H1551 C1525 0.931 . S
H1552 C1532 0.932 . S
H1553 C1533 0.930 . S
H1554 C1534 0.929 . S
H1555 C1536 0.930 . S
H1556 C1538 0.932 . S
H1557 C1539 0.929 . S
H1558 C1540 0.928 . S
H1559 C1542 0.932 . S
C1560 C1561 1.264 . S
C1560 C1565 1.479 . S
C1560 C1570 1.465 . S
C1561 C1560 1.264 . S
C1561 C1563 1.339 . S
C1561 H1588 0.931 . S
C1562 C1563 1.395 . S
C1562 C1564 1.320 . S
C1563 C1561 1.339 . S
C1563 C1562 1.395 . S
C1563 H1589 0.929 . S
C1564 C1562 1.320 . S
C1564 C1565 1.405 . S
C1564 H1590 0.930 . S
C1565 C1560 1.479 . S
C1565 C1564 1.405 . S
C1565 H1591 0.931 . S
U1566 O1567 2.454 . S
U1566 O1568 2.458 . S
U1566 C1569 2.984 . S
U1566 C1570 2.847 . S
U1566 C1583 2.882 . S
U1566 O1584 2.441 . S
U1566 O1585 2.420 . S
U1566 O1586 2.455 . S
U1566 O1587 2.449 . S
O1567 U1566 2.454 . S
O1567 C1569 1.353 . S
O1568 U1566 2.458 . S
O1568 C1569 1.286 . S
C1569 U1566 2.984 . S
C1569 O1567 1.353 . S
C1569 O1568 1.286 . S
C1569 C1571 1.363 . S
C1570 C1560 1.465 . S
C1570 U1566 2.847 . S
C1570 O1584 1.249 . S
C1570 O1585 1.202 . S
C1571 C1569 1.363 . S
C1571 C1573 1.408 . S
C1571 C1576 1.342 . S
C1572 C1573 1.310 . S
C1572 C1575 1.461 . S
C1572 H1592 0.932 . S
C1573 C1571 1.408 . S
C1573 C1572 1.310 . S
C1573 H1593 0.930 . S
C1574 C1575 1.474 . S
C1574 C1576 1.285 . S
C1574 H1594 0.929 . S
C1575 C1572 1.461 . S
C1575 C1574 1.474 . S
C1576 C1571 1.342 . S
C1576 C1574 1.285 . S
C1576 H1595 0.930 . S
C1577 C1580 1.424 . S
C1577 C1582 1.245 . S
C1577 C1583 1.428 . S
C1578 C1581 1.260 . S
C1578 C1582 1.477 . S
C1578 H1596 0.932 . S
C1579 C1580 1.384 . S
C1579 C1581 1.479 . S
C1579 H1597 0.929 . S
C1580 C1577 1.424 . S
C1580 C1579 1.384 . S
C1580 H1598 0.928 . S
C1581 C1578 1.260 . S
C1581 C1579 1.479 . S
C1582 C1577 1.245 . S
C1582 C1578 1.477 . S
C1582 H1599 0.932 . S
C1583 U1566 2.882 . S
C1583 C1577 1.428 . S
C1583 O1586 1.301 . S
C1583 O1587 1.282 . S
O1584 U1566 2.441 . S
O1584 C1570 1.249 . S
O1585 U1566 2.420 . S
O1585 C1570 1.202 . S
O1586 U1566 2.455 . S
O1586 C1583 1.301 . S
O1587 U1566 2.449 . S
O1587 C1583 1.282 . S
H1588 C1561 0.931 . S
H1589 C1563 0.929 . S
H1590 C1564 0.930 . S
H1591 C1565 0.931 . S
H1592 C1572 0.932 . S
H1593 C1573 0.930 . S
H1594 C1574 0.929 . S
H1595 C1576 0.930 . S
H1596 C1578 0.932 . S
H1597 C1579 0.929 . S
H1598 C1580 0.928 . S
H1599 C1582 0.932 . S
C1600 C1601 1.264 . S
C1600 C1605 1.479 . S
C1600 C1610 1.465 . S
C1601 C1600 1.264 . S
C1601 C1603 1.339 . S
C1601 H1628 0.931 . S
C1602 C1603 1.395 . S
C1602 C1604 1.320 . S
C1603 C1601 1.339 . S
C1603 C1602 1.395 . S
C1603 H1629 0.929 . S
C1604 C1602 1.320 . S
C1604 C1605 1.405 . S
C1604 H1630 0.930 . S
C1605 C1600 1.479 . S
C1605 C1604 1.405 . S
C1605 H1631 0.931 . S
U1606 O1607 2.454 . S
U1606 O1608 2.458 . S
U1606 C1609 2.984 . S
U1606 C1610 2.847 . S
U1606 C1623 2.882 . S
U1606 O1624 2.441 . S
U1606 O1625 2.420 . S
U1606 O1626 2.455 . S
U1606 O1627 2.449 . S
O1607 U1606 2.454 . S
O1607 C1609 1.353 . S
O1608 U1606 2.458 . S
O1608 C1609 1.286 . S
C1609 U1606 2.984 . S
C1609 O1607 1.353 . S
C1609 O1608 1.286 . S
C1609 C1611 1.363 . S
C1610 C1600 1.465 . S
C1610 U1606 2.847 . S
C1610 O1624 1.249 . S
C1610 O1625 1.202 . S
C1611 C1609 1.363 . S
C1611 C1613 1.408 . S
C1611 C1616 1.342 . S
C1612 C1613 1.310 . S
C1612 C1615 1.461 . S
C1612 H1632 0.932 . S
C1613 C1611 1.408 . S
C1613 C1612 1.310 . S
C1613 H1633 0.930 . S
C1614 C1615 1.474 . S
C1614 C1616 1.285 . S
C1614 H1634 0.929 . S
C1615 C1612 1.461 . S
C1615 C1614 1.474 . S
C1616 C1611 1.342 . S
C1616 C1614 1.285 . S
C1616 H1635 0.930 . S
C1617 C1620 1.424 . S
C1617 C1622 1.245 . S
C1617 C1623 1.428 . S
C1618 C1621 1.260 . S
C1618 C1622 1.477 . S
C1618 H1636 0.932 . S
C1619 C1620 1.384 . S
C1619 C1621 1.479 . S
C1619 H1637 0.929 . S
C1620 C1617 1.424 . S
C1620 C1619 1.384 . S
C1620 H1638 0.928 . S
C1621 C1618 1.260 . S
C1621 C1619 1.479 . S
C1622 C1617 1.245 . S
C1622 C1618 1.477 . S
C1622 H1639 0.932 . S
C1623 U1606 2.882 . S
C1623 C1617 1.428 . S
C1623 O1626 1.301 . S
C1623 O1627 1.282 . S
O1624 U1606 2.441 . S
O1624 C1610 1.249 . S
O1625 U1606 2.420 . S
O1625 C1610 1.202 . S
O1626 U1606 2.455 . S
O1626 C1623 1.301 . S
O1627 U1606 2.449 . S
O1627 C1623 1.282 . S
H1628 C1601 0.931 . S
H1629 C1603 0.929 . S
H1630 C1604 0.930 . S
H1631 C1605 0.931 . S
H1632 C1612 0.932 . S
H1633 C1613 0.930 . S
H1634 C1614 0.929 . S
H1635 C1616 0.930 . S
H1636 C1618 0.932 . S
H1637 C1619 0.929 . S
H1638 C1620 0.928 . S
H1639 C1622 0.932 . S
C1640 C1641 1.264 . S
C1640 C1645 1.479 . S
C1640 C1650 1.465 . S
C1641 C1640 1.264 . S
C1641 C1643 1.339 . S
C1641 H1668 0.931 . S
C1642 C1643 1.395 . S
C1642 C1644 1.320 . S
C1643 C1641 1.339 . S
C1643 C1642 1.395 . S
C1643 H1669 0.929 . S
C1644 C1642 1.320 . S
C1644 C1645 1.405 . S
C1644 H1670 0.930 . S
C1645 C1640 1.479 . S
C1645 C1644 1.405 . S
C1645 H1671 0.931 . S
U1646 O1647 2.454 . S
U1646 O1648 2.458 . S
U1646 C1649 2.984 . S
U1646 C1650 2.847 . S
U1646 C1663 2.882 . S
U1646 O1664 2.441 . S
U1646 O1665 2.420 . S
U1646 O1666 2.455 . S
U1646 O1667 2.449 . S
O1647 U1646 2.454 . S
O1647 C1649 1.353 . S
O1648 U1646 2.458 . S
O1648 C1649 1.286 . S
C1649 U1646 2.984 . S
C1649 O1647 1.353 . S
C1649 O1648 1.286 . S
C1649 C1651 1.363 . S
C1650 C1640 1.465 . S
C1650 U1646 2.847 . S
C1650 O1664 1.249 . S
C1650 O1665 1.202 . S
C1651 C1649 1.363 . S
C1651 C1653 1.408 . S
C1651 C1656 1.342 . S
C1652 C1653 1.310 . S
C1652 C1655 1.461 . S
C1652 H1672 0.932 . S
C1653 C1651 1.408 . S
C1653 C1652 1.310 . S
C1653 H1673 0.930 . S
C1654 C1655 1.474 . S
C1654 C1656 1.285 . S
C1654 H1674 0.929 . S
C1655 C1652 1.461 . S
C1655 C1654 1.474 . S
C1656 C1651 1.342 . S
C1656 C1654 1.285 . S
C1656 H1675 0.930 . S
C1657 C1660 1.424 . S
C1657 C1662 1.245 . S
C1657 C1663 1.428 . S
C1658 C1661 1.260 . S
C1658 C1662 1.477 . S
C1658 H1676 0.932 . S
C1659 C1660 1.384 . S
C1659 C1661 1.479 . S
C1659 H1677 0.929 . S
C1660 C1657 1.424 . S
C1660 C1659 1.384 . S
C1660 H1678 0.928 . S
C1661 C1658 1.260 . S
C1661 C1659 1.479 . S
C1662 C1657 1.245 . S
C1662 C1658 1.477 . S
C1662 H1679 0.932 . S
C1663 U1646 2.882 . S
C1663 C1657 1.428 . S
C1663 O1666 1.301 . S
C1663 O1667 1.282 . S
O1664 U1646 2.441 . S
O1664 C1650 1.249 . S
O1665 U1646 2.420 . S
O1665 C1650 1.202 . S
O1666 U1646 2.455 . S
O1666 C1663 1.301 . S
O1667 U1646 2.449 . S
O1667 C1663 1.282 . S
H1668 C1641 0.931 . S
H1669 C1643 0.929 . S
H1670 C1644 0.930 . S
H1671 C1645 0.931 . S
H1672 C1652 0.932 . S
H1673 C1653 0.930 . S
H1674 C1654 0.929 . S
H1675 C1656 0.930 . S
H1676 C1658 0.932 . S
H1677 C1659 0.929 . S
H1678 C1660 0.928 . S
H1679 C1662 0.932 . S
C1680 C1681 1.264 . S
C1680 C1685 1.479 . S
C1680 C1690 1.465 . S
C1681 C1680 1.264 . S
C1681 C1683 1.339 . S
C1681 H1708 0.931 . S
C1682 C1683 1.395 . S
C1682 C1684 1.320 . S
C1683 C1681 1.339 . S
C1683 C1682 1.395 . S
C1683 H1709 0.929 . S
C1684 C1682 1.320 . S
C1684 C1685 1.405 . S
C1684 H1710 0.930 . S
C1685 C1680 1.479 . S
C1685 C1684 1.405 . S
C1685 H1711 0.931 . S
U1686 O1687 2.454 . S
U1686 O1688 2.458 . S
U1686 C1689 2.984 . S
U1686 C1690 2.847 . S
U1686 C1703 2.882 . S
U1686 O1704 2.441 . S
U1686 O1705 2.420 . S
U1686 O1706 2.455 . S
U1686 O1707 2.449 . S
O1687 U1686 2.454 . S
O1687 C1689 1.353 . S
O1688 U1686 2.458 . S
O1688 C1689 1.286 . S
C1689 U1686 2.984 . S
C1689 O1687 1.353 . S
C1689 O1688 1.286 . S
C1689 C1691 1.363 . S
C1690 C1680 1.465 . S
C1690 U1686 2.847 . S
C1690 O1704 1.249 . S
C1690 O1705 1.202 . S
C1691 C1689 1.363 . S
C1691 C1693 1.408 . S
C1691 C1696 1.342 . S
C1692 C1693 1.310 . S
C1692 C1695 1.461 . S
C1692 H1712 0.932 . S
C1693 C1691 1.408 . S
C1693 C1692 1.310 . S
C1693 H1713 0.930 . S
C1694 C1695 1.474 . S
C1694 C1696 1.285 . S
C1694 H1714 0.929 . S
C1695 C1692 1.461 . S
C1695 C1694 1.474 . S
C1696 C1691 1.342 . S
C1696 C1694 1.285 . S
C1696 H1715 0.930 . S
C1697 C1700 1.424 . S
C1697 C1702 1.245 . S
C1697 C1703 1.428 . S
C1698 C1701 1.260 . S
C1698 C1702 1.477 . S
C1698 H1716 0.932 . S
C1699 C1700 1.384 . S
C1699 C1701 1.479 . S
C1699 H1717 0.929 . S
C1700 C1697 1.424 . S
C1700 C1699 1.384 . S
C1700 H1718 0.928 . S
C1701 C1698 1.260 . S
C1701 C1699 1.479 . S
C1702 C1697 1.245 . S
C1702 C1698 1.477 . S
C1702 H1719 0.932 . S
C1703 U1686 2.882 . S
C1703 C1697 1.428 . S
C1703 O1706 1.301 . S
C1703 O1707 1.282 . S
O1704 U1686 2.441 . S
O1704 C1690 1.249 . S
O1705 U1686 2.420 . S
O1705 C1690 1.202 . S
O1706 U1686 2.455 . S
O1706 C1703 1.301 . S
O1707 U1686 2.449 . S
O1707 C1703 1.282 . S
H1708 C1681 0.931 . S
H1709 C1683 0.929 . S
H1710 C1684 0.930 . S
H1711 C1685 0.931 . S
H1712 C1692 0.932 . S
H1713 C1693 0.930 . S
H1714 C1694 0.929 . S
H1715 C1696 0.930 . S
H1716 C1698 0.932 . S
H1717 C1699 0.929 . S
H1718 C1700 0.928 . S
H1719 C1702 0.932 . S
C1720 C1721 1.264 . S
C1720 C1725 1.479 . S
C1720 C1730 1.465 . S
C1721 C1720 1.264 . S
C1721 C1723 1.339 . S
C1721 H1748 0.931 . S
C1722 C1723 1.395 . S
C1722 C1724 1.320 . S
C1723 C1721 1.339 . S
C1723 C1722 1.395 . S
C1723 H1749 0.929 . S
C1724 C1722 1.320 . S
C1724 C1725 1.405 . S
C1724 H1750 0.930 . S
C1725 C1720 1.479 . S
C1725 C1724 1.405 . S
C1725 H1751 0.931 . S
U1726 O1727 2.454 . S
U1726 O1728 2.458 . S
U1726 C1729 2.984 . S
U1726 C1730 2.847 . S
U1726 C1743 2.882 . S
U1726 O1744 2.441 . S
U1726 O1745 2.420 . S
U1726 O1746 2.455 . S
U1726 O1747 2.449 . S
O1727 U1726 2.454 . S
O1727 C1729 1.353 . S
O1728 U1726 2.458 . S
O1728 C1729 1.286 . S
C1729 U1726 2.984 . S
C1729 O1727 1.353 . S
C1729 O1728 1.286 . S
C1729 C1731 1.363 . S
C1730 C1720 1.465 . S
C1730 U1726 2.847 . S
C1730 O1744 1.249 . S
C1730 O1745 1.202 . S
C1731 C1729 1.363 . S
C1731 C1733 1.408 . S
C1731 C1736 1.342 . S
C1732 C1733 1.310 . S
C1732 C1735 1.461 . S
C1732 H1752 0.932 . S
C1733 C1731 1.408 . S
C1733 C1732 1.310 . S
C1733 H1753 0.930 . S
C1734 C1735 1.474 . S
C1734 C1736 1.285 . S
C1734 H1754 0.929 . S
C1735 C1732 1.461 . S
C1735 C1734 1.474 . S
C1736 C1731 1.342 . S
C1736 C1734 1.285 . S
C1736 H1755 0.930 . S
C1737 C1740 1.424 . S
C1737 C1742 1.245 . S
C1737 C1743 1.428 . S
C1738 C1741 1.260 . S
C1738 C1742 1.477 . S
C1738 H1756 0.932 . S
C1739 C1740 1.384 . S
C1739 C1741 1.479 . S
C1739 H1757 0.929 . S
C1740 C1737 1.424 . S
C1740 C1739 1.384 . S
C1740 H1758 0.928 . S
C1741 C1738 1.260 . S
C1741 C1739 1.479 . S
C1742 C1737 1.245 . S
C1742 C1738 1.477 . S
C1742 H1759 0.932 . S
C1743 U1726 2.882 . S
C1743 C1737 1.428 . S
C1743 O1746 1.301 . S
C1743 O1747 1.282 . S
O1744 U1726 2.441 . S
O1744 C1730 1.249 . S
O1745 U1726 2.420 . S
O1745 C1730 1.202 . S
O1746 U1726 2.455 . S
O1746 C1743 1.301 . S
O1747 U1726 2.449 . S
O1747 C1743 1.282 . S
H1748 C1721 0.931 . S
H1749 C1723 0.929 . S
H1750 C1724 0.930 . S
H1751 C1725 0.931 . S
H1752 C1732 0.932 . S
H1753 C1733 0.930 . S
H1754 C1734 0.929 . S
H1755 C1736 0.930 . S
H1756 C1738 0.932 . S
H1757 C1739 0.929 . S
H1758 C1740 0.928 . S
H1759 C1742 0.932 . S
C1760 C1761 1.264 . S
C1760 C1765 1.479 . S
C1760 C1770 1.465 . S
C1761 C1760 1.264 . S
C1761 C1763 1.339 . S
C1761 H1788 0.931 . S
C1762 C1763 1.395 . S
C1762 C1764 1.320 . S
C1763 C1761 1.339 . S
C1763 C1762 1.395 . S
C1763 H1789 0.929 . S
C1764 C1762 1.320 . S
C1764 C1765 1.405 . S
C1764 H1790 0.930 . S
C1765 C1760 1.479 . S
C1765 C1764 1.405 . S
C1765 H1791 0.931 . S
U1766 O1767 2.454 . S
U1766 O1768 2.458 . S
U1766 C1769 2.984 . S
U1766 C1770 2.847 . S
U1766 C1783 2.882 . S
U1766 O1784 2.441 . S
U1766 O1785 2.420 . S
U1766 O1786 2.455 . S
U1766 O1787 2.449 . S
O1767 U1766 2.454 . S
O1767 C1769 1.353 . S
O1768 U1766 2.458 . S
O1768 C1769 1.286 . S
C1769 U1766 2.984 . S
C1769 O1767 1.353 . S
C1769 O1768 1.286 . S
C1769 C1771 1.363 . S
C1770 C1760 1.465 . S
C1770 U1766 2.847 . S
C1770 O1784 1.249 . S
C1770 O1785 1.202 . S
C1771 C1769 1.363 . S
C1771 C1773 1.408 . S
C1771 C1776 1.342 . S
C1772 C1773 1.310 . S
C1772 C1775 1.461 . S
C1772 H1792 0.932 . S
C1773 C1771 1.408 . S
C1773 C1772 1.310 . S
C1773 H1793 0.930 . S
C1774 C1775 1.474 . S
C1774 C1776 1.285 . S
C1774 H1794 0.929 . S
C1775 C1772 1.461 . S
C1775 C1774 1.474 . S
C1776 C1771 1.342 . S
C1776 C1774 1.285 . S
C1776 H1795 0.930 . S
C1777 C1780 1.424 . S
C1777 C1782 1.245 . S
C1777 C1783 1.428 . S
C1778 C1781 1.260 . S
C1778 C1782 1.477 . S
C1778 H1796 0.932 . S
C1779 C1780 1.384 . S
C1779 C1781 1.479 . S
C1779 H1797 0.929 . S
C1780 C1777 1.424 . S
C1780 C1779 1.384 . S
C1780 H1798 0.928 . S
C1781 C1778 1.260 . S
C1781 C1779 1.479 . S
C1782 C1777 1.245 . S
C1782 C1778 1.477 . S
C1782 H1799 0.932 . S
C1783 U1766 2.882 . S
C1783 C1777 1.428 . S
C1783 O1786 1.301 . S
C1783 O1787 1.282 . S
O1784 U1766 2.441 . S
O1784 C1770 1.249 . S
O1785 U1766 2.420 . S
O1785 C1770 1.202 . S
O1786 U1766 2.455 . S
O1786 C1783 1.301 . S
O1787 U1766 2.449 . S
O1787 C1783 1.282 . S
H1788 C1761 0.931 . S
H1789 C1763 0.929 . S
H1790 C1764 0.930 . S
H1791 C1765 0.931 . S
H1792 C1772 0.932 . S
H1793 C1773 0.930 . S
H1794 C1774 0.929 . S
H1795 C1776 0.930 . S
H1796 C1778 0.932 . S
H1797 C1779 0.929 . S
H1798 C1780 0.928 . S
H1799 C1782 0.932 . S
C1800 C1801 1.264 . S
C1800 C1805 1.479 . S
C1800 C1810 1.465 . S
C1801 C1800 1.264 . S
C1801 C1803 1.339 . S
C1801 H1828 0.931 . S
C1802 C1803 1.395 . S
C1802 C1804 1.320 . S
C1803 C1801 1.339 . S
C1803 C1802 1.395 . S
C1803 H1829 0.929 . S
C1804 C1802 1.320 . S
C1804 C1805 1.405 . S
C1804 H1830 0.930 . S
C1805 C1800 1.479 . S
C1805 C1804 1.405 . S
C1805 H1831 0.931 . S
U1806 O1807 2.454 . S
U1806 O1808 2.458 . S
U1806 C1809 2.984 . S
U1806 C1810 2.847 . S
U1806 C1823 2.882 . S
U1806 O1824 2.441 . S
U1806 O1825 2.420 . S
U1806 O1826 2.455 . S
U1806 O1827 2.449 . S
O1807 U1806 2.454 . S
O1807 C1809 1.353 . S
O1808 U1806 2.458 . S
O1808 C1809 1.286 . S
C1809 U1806 2.984 . S
C1809 O1807 1.353 . S
C1809 O1808 1.286 . S
C1809 C1811 1.363 . S
C1810 C1800 1.465 . S
C1810 U1806 2.847 . S
C1810 O1824 1.249 . S
C1810 O1825 1.202 . S
C1811 C1809 1.363 . S
C1811 C1813 1.408 . S
C1811 C1816 1.342 . S
C1812 C1813 1.310 . S
C1812 C1815 1.461 . S
C1812 H1832 0.932 . S
C1813 C1811 1.408 . S
C1813 C1812 1.310 . S
C1813 H1833 0.930 . S
C1814 C1815 1.474 . S
C1814 C1816 1.285 . S
C1814 H1834 0.929 . S
C1815 C1812 1.461 . S
C1815 C1814 1.474 . S
C1816 C1811 1.342 . S
C1816 C1814 1.285 . S
C1816 H1835 0.930 . S
C1817 C1820 1.424 . S
C1817 C1822 1.245 . S
C1817 C1823 1.428 . S
C1818 C1821 1.260 . S
C1818 C1822 1.477 . S
C1818 H1836 0.932 . S
C1819 C1820 1.384 . S
C1819 C1821 1.479 . S
C1819 H1837 0.929 . S
C1820 C1817 1.424 . S
C1820 C1819 1.384 . S
C1820 H1838 0.928 . S
C1821 C1818 1.260 . S
C1821 C1819 1.479 . S
C1822 C1817 1.245 . S
C1822 C1818 1.477 . S
C1822 H1839 0.932 . S
C1823 U1806 2.882 . S
C1823 C1817 1.428 . S
C1823 O1826 1.301 . S
C1823 O1827 1.282 . S
O1824 U1806 2.441 . S
O1824 C1810 1.249 . S
O1825 U1806 2.420 . S
O1825 C1810 1.202 . S
O1826 U1806 2.455 . S
O1826 C1823 1.301 . S
O1827 U1806 2.449 . S
O1827 C1823 1.282 . S
H1828 C1801 0.931 . S
H1829 C1803 0.929 . S
H1830 C1804 0.930 . S
H1831 C1805 0.931 . S
H1832 C1812 0.932 . S
H1833 C1813 0.930 . S
H1834 C1814 0.929 . S
H1835 C1816 0.930 . S
H1836 C1818 0.932 . S
H1837 C1819 0.929 . S
H1838 C1820 0.928 . S
H1839 C1822 0.932 . S
C1840 C1841 1.264 . S
C1840 C1845 1.479 . S
C1840 C1850 1.465 . S
C1841 C1840 1.264 . S
C1841 C1843 1.339 . S
C1841 H1868 0.931 . S
C1842 C1843 1.395 . S
C1842 C1844 1.320 . S
C1843 C1841 1.339 . S
C1843 C1842 1.395 . S
C1843 H1869 0.929 . S
C1844 C1842 1.320 . S
C1844 C1845 1.405 . S
C1844 H1870 0.930 . S
C1845 C1840 1.479 . S
C1845 C1844 1.405 . S
C1845 H1871 0.931 . S
U1846 O1847 2.454 . S
U1846 O1848 2.458 . S
U1846 C1849 2.984 . S
U1846 C1850 2.847 . S
U1846 C1863 2.882 . S
U1846 O1864 2.441 . S
U1846 O1865 2.420 . S
U1846 O1866 2.455 . S
U1846 O1867 2.449 . S
O1847 U1846 2.454 . S
O1847 C1849 1.353 . S
O1848 U1846 2.458 . S
O1848 C1849 1.286 . S
C1849 U1846 2.984 . S
C1849 O1847 1.353 . S
C1849 O1848 1.286 . S
C1849 C1851 1.363 . S
C1850 C1840 1.465 . S
C1850 U1846 2.847 . S
C1850 O1864 1.249 . S
C1850 O1865 1.202 . S
C1851 C1849 1.363 . S
C1851 C1853 1.408 . S
C1851 C1856 1.342 . S
C1852 C1853 1.310 . S
C1852 C1855 1.461 . S
C1852 H1872 0.932 . S
C1853 C1851 1.408 . S
C1853 C1852 1.310 . S
C1853 H1873 0.930 . S
C1854 C1855 1.474 . S
C1854 C1856 1.285 . S
C1854 H1874 0.929 . S
C1855 C1852 1.461 . S
C1855 C1854 1.474 . S
C1856 C1851 1.342 . S
C1856 C1854 1.285 . S
C1856 H1875 0.930 . S
C1857 C1860 1.424 . S
C1857 C1862 1.245 . S
C1857 C1863 1.428 . S
C1858 C1861 1.260 . S
C1858 C1862 1.477 . S
C1858 H1876 0.932 . S
C1859 C1860 1.384 . S
C1859 C1861 1.479 . S
C1859 H1877 0.929 . S
C1860 C1857 1.424 . S
C1860 C1859 1.384 . S
C1860 H1878 0.928 . S
C1861 C1858 1.260 . S
C1861 C1859 1.479 . S
C1862 C1857 1.245 . S
C1862 C1858 1.477 . S
C1862 H1879 0.932 . S
C1863 U1846 2.882 . S
C1863 C1857 1.428 . S
C1863 O1866 1.301 . S
C1863 O1867 1.282 . S
O1864 U1846 2.441 . S
O1864 C1850 1.249 . S
O1865 U1846 2.420 . S
O1865 C1850 1.202 . S
O1866 U1846 2.455 . S
O1866 C1863 1.301 . S
O1867 U1846 2.449 . S
O1867 C1863 1.282 . S
H1868 C1841 0.931 . S
H1869 C1843 0.929 . S
H1870 C1844 0.930 . S
H1871 C1845 0.931 . S
H1872 C1852 0.932 . S
H1873 C1853 0.930 . S
H1874 C1854 0.929 . S
H1875 C1856 0.930 . S
H1876 C1858 0.932 . S
H1877 C1859 0.929 . S
H1878 C1860 0.928 . S
H1879 C1862 0.932 . S
C1880 C1881 1.264 . S
C1880 C1885 1.479 . S
C1880 C1890 1.465 . S
C1881 C1880 1.264 . S
C1881 C1883 1.339 . S
C1881 H1908 0.931 . S
C1882 C1883 1.395 . S
C1882 C1884 1.320 . S
C1883 C1881 1.339 . S
C1883 C1882 1.395 . S
C1883 H1909 0.929 . S
C1884 C1882 1.320 . S
C1884 C1885 1.405 . S
C1884 H1910 0.930 . S
C1885 C1880 1.479 . S
C1885 C1884 1.405 . S
C1885 H1911 0.931 . S
U1886 O1887 2.454 . S
U1886 O1888 2.458 . S
U1886 C1889 2.984 . S
U1886 C1890 2.847 . S
U1886 C1903 2.882 . S
U1886 O1904 2.441 . S
U1886 O1905 2.420 . S
U1886 O1906 2.455 . S
U1886 O1907 2.449 . S
O1887 U1886 2.454 . S
O1887 C1889 1.353 . S
O1888 U1886 2.458 . S
O1888 C1889 1.286 . S
C1889 U1886 2.984 . S
C1889 O1887 1.353 . S
C1889 O1888 1.286 . S
C1889 C1891 1.363 . S
C1890 C1880 1.465 . S
C1890 U1886 2.847 . S
C1890 O1904 1.249 . S
C1890 O1905 1.202 . S
C1891 C1889 1.363 . S
C1891 C1893 1.408 . S
C1891 C1896 1.342 . S
C1892 C1893 1.310 . S
C1892 C1895 1.461 . S
C1892 H1912 0.932 . S
C1893 C1891 1.408 . S
C1893 C1892 1.310 . S
C1893 H1913 0.930 . S
C1894 C1895 1.474 . S
C1894 C1896 1.285 . S
C1894 H1914 0.929 . S
C1895 C1892 1.461 . S
C1895 C1894 1.474 . S
C1896 C1891 1.342 . S
C1896 C1894 1.285 . S
C1896 H1915 0.930 . S
C1897 C1900 1.424 . S
C1897 C1902 1.245 . S
C1897 C1903 1.428 . S
C1898 C1901 1.260 . S
C1898 C1902 1.477 . S
C1898 H1916 0.932 . S
C1899 C1900 1.384 . S
C1899 C1901 1.479 . S
C1899 H1917 0.929 . S
C1900 C1897 1.424 . S
C1900 C1899 1.384 . S
C1900 H1918 0.928 . S
C1901 C1898 1.260 . S
C1901 C1899 1.479 . S
C1902 C1897 1.245 . S
C1902 C1898 1.477 . S
C1902 H1919 0.932 . S
C1903 U1886 2.882 . S
C1903 C1897 1.428 . S
C1903 O1906 1.301 . S
C1903 O1907 1.282 . S
O1904 U1886 2.441 . S
O1904 C1890 1.249 . S
O1905 U1886 2.420 . S
O1905 C1890 1.202 . S
O1906 U1886 2.455 . S
O1906 C1903 1.301 . S
O1907 U1886 2.449 . S
O1907 C1903 1.282 . S
H1908 C1881 0.931 . S
H1909 C1883 0.929 . S
H1910 C1884 0.930 . S
H1911 C1885 0.931 . S
H1912 C1892 0.932 . S
H1913 C1893 0.930 . S
H1914 C1894 0.929 . S
H1915 C1896 0.930 . S
H1916 C1898 0.932 . S
H1917 C1899 0.929 . S
H1918 C1900 0.928 . S
H1919 C1902 0.932 . S
C1920 C1921 1.264 . S
C1920 C1925 1.479 . S
C1920 C1930 1.465 . S
C1921 C1920 1.264 . S
C1921 C1923 1.339 . S
C1921 H1948 0.931 . S
C1922 C1923 1.395 . S
C1922 C1924 1.320 . S
C1923 C1921 1.339 . S
C1923 C1922 1.395 . S
C1923 H1949 0.929 . S
C1924 C1922 1.320 . S
C1924 C1925 1.405 . S
C1924 H1950 0.930 . S
C1925 C1920 1.479 . S
C1925 C1924 1.405 . S
C1925 H1951 0.931 . S
U1926 O1927 2.454 . S
U1926 O1928 2.458 . S
U1926 C1929 2.984 . S
U1926 C1930 2.847 . S
U1926 C1943 2.882 . S
U1926 O1944 2.441 . S
U1926 O1945 2.420 . S
U1926 O1946 2.455 . S
U1926 O1947 2.449 . S
O1927 U1926 2.454 . S
O1927 C1929 1.353 . S
O1928 U1926 2.458 . S
O1928 C1929 1.286 . S
C1929 U1926 2.984 . S
C1929 O1927 1.353 . S
C1929 O1928 1.286 . S
C1929 C1931 1.363 . S
C1930 C1920 1.465 . S
C1930 U1926 2.847 . S
C1930 O1944 1.249 . S
C1930 O1945 1.202 . S
C1931 C1929 1.363 . S
C1931 C1933 1.408 . S
C1931 C1936 1.342 . S
C1932 C1933 1.310 . S
C1932 C1935 1.461 . S
C1932 H1952 0.932 . S
C1933 C1931 1.408 . S
C1933 C1932 1.310 . S
C1933 H1953 0.930 . S
C1934 C1935 1.474 . S
C1934 C1936 1.285 . S
C1934 H1954 0.929 . S
C1935 C1932 1.461 . S
C1935 C1934 1.474 . S
C1936 C1931 1.342 . S
C1936 C1934 1.285 . S
C1936 H1955 0.930 . S
C1937 C1940 1.424 . S
C1937 C1942 1.245 . S
C1937 C1943 1.428 . S
C1938 C1941 1.260 . S
C1938 C1942 1.477 . S
C1938 H1956 0.932 . S
C1939 C1940 1.384 . S
C1939 C1941 1.479 . S
C1939 H1957 0.929 . S
C1940 C1937 1.424 . S
C1940 C1939 1.384 . S
C1940 H1958 0.928 . S
C1941 C1938 1.260 . S
C1941 C1939 1.479 . S
C1942 C1937 1.245 . S
C1942 C1938 1.477 . S
C1942 H1959 0.932 . S
C1943 U1926 2.882 . S
C1943 C1937 1.428 . S
C1943 O1946 1.301 . S
C1943 O1947 1.282 . S
O1944 U1926 2.441 . S
O1944 C1930 1.249 . S
O1945 U1926 2.420 . S
O1945 C1930 1.202 . S
O1946 U1926 2.455 . S
O1946 C1943 1.301 . S
O1947 U1926 2.449 . S
O1947 C1943 1.282 . S
H1948 C1921 0.931 . S
H1949 C1923 0.929 . S
H1950 C1924 0.930 . S
H1951 C1925 0.931 . S
H1952 C1932 0.932 . S
H1953 C1933 0.930 . S
H1954 C1934 0.929 . S
H1955 C1936 0.930 . S
H1956 C1938 0.932 . S
H1957 C1939 0.929 . S
H1958 C1940 0.928 . S
H1959 C1942 0.932 . S
C1960 C1961 1.264 . S
C1960 C1965 1.479 . S
C1960 C1970 1.465 . S
C1961 C1960 1.264 . S
C1961 C1963 1.339 . S
C1961 H1988 0.931 . S
C1962 C1963 1.395 . S
C1962 C1964 1.320 . S
C1963 C1961 1.339 . S
C1963 C1962 1.395 . S
C1963 H1989 0.929 . S
C1964 C1962 1.320 . S
C1964 C1965 1.405 . S
C1964 H1990 0.930 . S
C1965 C1960 1.479 . S
C1965 C1964 1.405 . S
C1965 H1991 0.931 . S
U1966 O1967 2.454 . S
U1966 O1968 2.458 . S
U1966 C1969 2.984 . S
U1966 C1970 2.847 . S
U1966 C1983 2.882 . S
U1966 O1984 2.441 . S
U1966 O1985 2.420 . S
U1966 O1986 2.455 . S
U1966 O1987 2.449 . S
O1967 U1966 2.454 . S
O1967 C1969 1.353 . S
O1968 U1966 2.458 . S
O1968 C1969 1.286 . S
C1969 U1966 2.984 . S
C1969 O1967 1.353 . S
C1969 O1968 1.286 . S
C1969 C1971 1.363 . S
C1970 C1960 1.465 . S
C1970 U1966 2.847 . S
C1970 O1984 1.249 . S
C1970 O1985 1.202 . S
C1971 C1969 1.363 . S
C1971 C1973 1.408 . S
C1971 C1976 1.342 . S
C1972 C1973 1.310 . S
C1972 C1975 1.461 . S
C1972 H1992 0.932 . S
C1973 C1971 1.408 . S
C1973 C1972 1.310 . S
C1973 H1993 0.930 . S
C1974 C1975 1.474 . S
C1974 C1976 1.285 . S
C1974 H1994 0.929 . S
C1975 C1972 1.461 . S
C1975 C1974 1.474 . S
C1976 C1971 1.342 . S
C1976 C1974 1.285 . S
C1976 H1995 0.930 . S
C1977 C1980 1.424 . S
C1977 C1982 1.245 . S
C1977 C1983 1.428 . S
C1978 C1981 1.260 . S
C1978 C1982 1.477 . S
C1978 H1996 0.932 . S
C1979 C1980 1.384 . S
C1979 C1981 1.479 . S
C1979 H1997 0.929 . S
C1980 C1977 1.424 . S
C1980 C1979 1.384 . S
C1980 H1998 0.928 . S
C1981 C1978 1.260 . S
C1981 C1979 1.479 . S
C1982 C1977 1.245 . S
C1982 C1978 1.477 . S
C1982 H1999 0.932 . S
C1983 U1966 2.882 . S
C1983 C1977 1.428 . S
C1983 O1986 1.301 . S
C1983 O1987 1.282 . S
O1984 U1966 2.441 . S
O1984 C1970 1.249 . S
O1985 U1966 2.420 . S
O1985 C1970 1.202 . S
O1986 U1966 2.455 . S
O1986 C1983 1.301 . S
O1987 U1966 2.449 . S
O1987 C1983 1.282 . S
H1988 C1961 0.931 . S
H1989 C1963 0.929 . S
H1990 C1964 0.930 . S
H1991 C1965 0.931 . S
H1992 C1972 0.932 . S
H1993 C1973 0.930 . S
H1994 C1974 0.929 . S
H1995 C1976 0.930 . S
H1996 C1978 0.932 . S
H1997 C1979 0.929 . S
H1998 C1980 0.928 . S
H1999 C1982 0.932 . S
C2000 C2001 1.264 . S
C2000 C2005 1.479 . S
C2000 C2010 1.465 . S
C2001 C2000 1.264 . S
C2001 C2003 1.339 . S
C2001 H2028 0.931 . S
C2002 C2003 1.395 . S
C2002 C2004 1.320 . S
C2003 C2001 1.339 . S
C2003 C2002 1.395 . S
C2003 H2029 0.929 . S
C2004 C2002 1.320 . S
C2004 C2005 1.405 . S
C2004 H2030 0.930 . S
C2005 C2000 1.479 . S
C2005 C2004 1.405 . S
C2005 H2031 0.931 . S
U2006 O2007 2.454 . S
U2006 O2008 2.458 . S
U2006 C2009 2.984 . S
U2006 C2010 2.847 . S
U2006 C2023 2.882 . S
U2006 O2024 2.441 . S
U2006 O2025 2.420 . S
U2006 O2026 2.455 . S
U2006 O2027 2.449 . S
O2007 U2006 2.454 . S
O2007 C2009 1.353 . S
O2008 U2006 2.458 . S
O2008 C2009 1.286 . S
C2009 U2006 2.984 . S
C2009 O2007 1.353 . S
C2009 O2008 1.286 . S
C2009 C2011 1.363 . S
C2010 C2000 1.465 . S
C2010 U2006 2.847 . S
C2010 O2024 1.249 . S
C2010 O2025 1.202 . S
C2011 C2009 1.363 . S
C2011 C2013 1.408 . S
C2011 C2016 1.342 . S
C2012 C2013 1.310 . S
C2012 C2015 1.461 . S
C2012 H2032 0.932 . S
C2013 C2011 1.408 . S
C2013 C2012 1.310 . S
C2013 H2033 0.930 . S
C2014 C2015 1.474 . S
C2014 C2016 1.285 . S
C2014 H2034 0.929 . S
C2015 C2012 1.461 . S
C2015 C2014 1.474 . S
C2016 C2011 1.342 . S
C2016 C2014 1.285 . S
C2016 H2035 0.930 . S
C2017 C2020 1.424 . S
C2017 C2022 1.245 . S
C2017 C2023 1.428 . S
C2018 C2021 1.260 . S
C2018 C2022 1.477 . S
C2018 H2036 0.932 . S
C2019 C2020 1.384 . S
C2019 C2021 1.479 . S
C2019 H2037 0.929 . S
C2020 C2017 1.424 . S
C2020 C2019 1.384 . S
C2020 H2038 0.928 . S
C2021 C2018 1.260 . S
C2021 C2019 1.479 . S
C2022 C2017 1.245 . S
C2022 C2018 1.477 . S
C2022 H2039 0.932 . S
C2023 U2006 2.882 . S
C2023 C2017 1.428 . S
C2023 O2026 1.301 . S
C2023 O2027 1.282 . S
O2024 U2006 2.441 . S
O2024 C2010 1.249 . S
O2025 U2006 2.420 . S
O2025 C2010 1.202 . S
O2026 U2006 2.455 . S
O2026 C2023 1.301 . S
O2027 U2006 2.449 . S
O2027 C2023 1.282 . S
H2028 C2001 0.931 . S
H2029 C2003 0.929 . S
H2030 C2004 0.930 . S
H2031 C2005 0.931 . S
H2032 C2012 0.932 . S
H2033 C2013 0.930 . S
H2034 C2014 0.929 . S
H2035 C2016 0.930 . S
H2036 C2018 0.932 . S
H2037 C2019 0.929 . S
H2038 C2020 0.928 . S
H2039 C2022 0.932 . S
C2040 C2041 1.264 . S
C2040 C2045 1.479 . S
C2040 C2050 1.465 . S
C2041 C2040 1.264 . S
C2041 C2043 1.339 . S
C2041 H2068 0.931 . S
C2042 C2043 1.395 . S
C2042 C2044 1.320 . S
C2043 C2041 1.339 . S
C2043 C2042 1.395 . S
C2043 H2069 0.929 . S
C2044 C2042 1.320 . S
C2044 C2045 1.405 . S
C2044 H2070 0.930 . S
C2045 C2040 1.479 . S
C2045 C2044 1.405 . S
C2045 H2071 0.931 . S
U2046 O2047 2.454 . S
U2046 O2048 2.458 . S
U2046 C2049 2.984 . S
U2046 C2050 2.847 . S
U2046 C2063 2.882 . S
U2046 O2064 2.441 . S
U2046 O2065 2.420 . S
U2046 O2066 2.455 . S
U2046 O2067 2.449 . S
O2047 U2046 2.454 . S
O2047 C2049 1.353 . S
O2048 U2046 2.458 . S
O2048 C2049 1.286 . S
C2049 U2046 2.984 . S
C2049 O2047 1.353 . S
C2049 O2048 1.286 . S
C2049 C2051 1.363 . S
C2050 C2040 1.465 . S
C2050 U2046 2.847 . S
C2050 O2064 1.249 . S
C2050 O2065 1.202 . S
C2051 C2049 1.363 . S
C2051 C2053 1.408 . S
C2051 C2056 1.342 . S
C2052 C2053 1.310 . S
C2052 C2055 1.461 . S
C2052 H2072 0.932 . S
C2053 C2051 1.408 . S
C2053 C2052 1.310 . S
C2053 H2073 0.930 . S
C2054 C2055 1.474 . S
C2054 C2056 1.285 . S
C2054 H2074 0.929 . S
C2055 C2052 1.461 . S
C2055 C2054 1.474 . S
C2056 C2051 1.342 . S
C2056 C2054 1.285 . S
C2056 H2075 0.930 . S
C2057 C2060 1.424 . S
C2057 C2062 1.245 . S
C2057 C2063 1.428 . S
C2058 C2061 1.260 . S
C2058 C2062 1.477 . S
C2058 H2076 0.932 . S
C2059 C2060 1.384 . S
C2059 C2061 1.479 . S
C2059 H2077 0.929 . S
C2060 C2057 1.424 . S
C2060 C2059 1.384 . S
C2060 H2078 0.928 . S
C2061 C2058 1.260 . S
C2061 C2059 1.479 . S
C2062 C2057 1.245 . S
C2062 C2058 1.477 . S
C2062 H2079 0.932 . S
C2063 U2046 2.882 . S
C2063 C2057 1.428 . S
C2063 O2066 1.301 . S
C2063 O2067 1.282 . S
O2064 U2046 2.441 . S
O2064 C2050 1.249 . S
O2065 U2046 2.420 . S
O2065 C2050 1.202 . S
O2066 U2046 2.455 . S
O2066 C2063 1.301 . S
O2067 U2046 2.449 . S
O2067 C2063 1.282 . S
H2068 C2041 0.931 . S
H2069 C2043 0.929 . S
H2070 C2044 0.930 . S
H2071 C2045 0.931 . S
H2072 C2052 0.932 . S
H2073 C2053 0.930 . S
H2074 C2054 0.929 . S
H2075 C2056 0.930 . S
H2076 C2058 0.932 . S
H2077 C2059 0.929 . S
H2078 C2060 0.928 . S
H2079 C2062 0.932 . S
C2080 C2081 1.264 . S
C2080 C2085 1.479 . S
C2080 C2090 1.465 . S
C2081 C2080 1.264 . S
C2081 C2083 1.339 . S
C2081 H2108 0.931 . S
C2082 C2083 1.395 . S
C2082 C2084 1.320 . S
C2083 C2081 1.339 . S
C2083 C2082 1.395 . S
C2083 H2109 0.929 . S
C2084 C2082 1.320 . S
C2084 C2085 1.405 . S
C2084 H2110 0.930 . S
C2085 C2080 1.479 . S
C2085 C2084 1.405 . S
C2085 H2111 0.931 . S
U2086 O2087 2.454 . S
U2086 O2088 2.458 . S
U2086 C2089 2.984 . S
U2086 C2090 2.847 . S
U2086 C2103 2.882 . S
U2086 O2104 2.441 . S
U2086 O2105 2.420 . S
U2086 O2106 2.455 . S
U2086 O2107 2.449 . S
O2087 U2086 2.454 . S
O2087 C2089 1.353 . S
O2088 U2086 2.458 . S
O2088 C2089 1.286 . S
C2089 U2086 2.984 . S
C2089 O2087 1.353 . S
C2089 O2088 1.286 . S
C2089 C2091 1.363 . S
C2090 C2080 1.465 . S
C2090 U2086 2.847 . S
C2090 O2104 1.249 . S
C2090 O2105 1.202 . S
C2091 C2089 1.363 . S
C2091 C2093 1.408 . S
C2091 C2096 1.342 . S
C2092 C2093 1.310 . S
C2092 C2095 1.461 . S
C2092 H2112 0.932 . S
C2093 C2091 1.408 . S
C2093 C2092 1.310 . S
C2093 H2113 0.930 . S
C2094 C2095 1.474 . S
C2094 C2096 1.285 . S
C2094 H2114 0.929 . S
C2095 C2092 1.461 . S
C2095 C2094 1.474 . S
C2096 C2091 1.342 . S
C2096 C2094 1.285 . S
C2096 H2115 0.930 . S
C2097 C2100 1.424 . S
C2097 C2102 1.245 . S
C2097 C2103 1.428 . S
C2098 C2101 1.260 . S
C2098 C2102 1.477 . S
C2098 H2116 0.932 . S
C2099 C2100 1.384 . S
C2099 C2101 1.479 . S
C2099 H2117 0.929 . S
C2100 C2097 1.424 . S
C2100 C2099 1.384 . S
C2100 H2118 0.928 . S
C2101 C2098 1.260 . S
C2101 C2099 1.479 . S
C2102 C2097 1.245 . S
C2102 C2098 1.477 . S
C2102 H2119 0.932 . S
C2103 U2086 2.882 . S
C2103 C2097 1.428 . S
C2103 O2106 1.301 . S
C2103 O2107 1.282 . S
O2104 U2086 2.441 . S
O2104 C2090 1.249 . S
O2105 U2086 2.420 . S
O2105 C2090 1.202 . S
O2106 U2086 2.455 . S
O2106 C2103 1.301 . S
O2107 U2086 2.449 . S
O2107 C2103 1.282 . S
H2108 C2081 0.931 . S
H2109 C2083 0.929 . S
H2110 C2084 0.930 . S
H2111 C2085 0.931 . S
H2112 C2092 0.932 . S
H2113 C2093 0.930 . S
H2114 C2094 0.929 . S
H2115 C2096 0.930 . S
H2116 C2098 0.932 . S
H2117 C2099 0.929 . S
H2118 C2100 0.928 . S
H2119 C2102 0.932 . S
C2120 C2121 1.264 . S
C2120 C2125 1.479 . S
C2120 C2130 1.465 . S
C2121 C2120 1.264 . S
C2121 C2123 1.339 . S
C2121 H2148 0.931 . S
C2122 C2123 1.395 . S
C2122 C2124 1.320 . S
C2123 C2121 1.339 . S
C2123 C2122 1.395 . S
C2123 H2149 0.929 . S
C2124 C2122 1.320 . S
C2124 C2125 1.405 . S
C2124 H2150 0.930 . S
C2125 C2120 1.479 . S
C2125 C2124 1.405 . S
C2125 H2151 0.931 . S
U2126 O2127 2.454 . S
U2126 O2128 2.458 . S
U2126 C2129 2.984 . S
U2126 C2130 2.847 . S
U2126 C2143 2.882 . S
U2126 O2144 2.441 . S
U2126 O2145 2.420 . S
U2126 O2146 2.455 . S
U2126 O2147 2.449 . S
O2127 U2126 2.454 . S
O2127 C2129 1.353 . S
O2128 U2126 2.458 . S
O2128 C2129 1.286 . S
C2129 U2126 2.984 . S
C2129 O2127 1.353 . S
C2129 O2128 1.286 . S
C2129 C2131 1.363 . S
C2130 C2120 1.465 . S
C2130 U2126 2.847 . S
C2130 O2144 1.249 . S
C2130 O2145 1.202 . S
C2131 C2129 1.363 . S
C2131 C2133 1.408 . S
C2131 C2136 1.342 . S
C2132 C2133 1.310 . S
C2132 C2135 1.461 . S
C2132 H2152 0.932 . S
C2133 C2131 1.408 . S
C2133 C2132 1.310 . S
C2133 H2153 0.930 . S
C2134 C2135 1.474 . S
C2134 C2136 1.285 . S
C2134 H2154 0.929 . S
C2135 C2132 1.461 . S
C2135 C2134 1.474 . S
C2136 C2131 1.342 . S
C2136 C2134 1.285 . S
C2136 H2155 0.930 . S
C2137 C2140 1.424 . S
C2137 C2142 1.245 . S
C2137 C2143 1.428 . S
C2138 C2141 1.260 . S
C2138 C2142 1.477 . S
C2138 H2156 0.932 . S
C2139 C2140 1.384 . S
C2139 C2141 1.479 . S
C2139 H2157 0.929 . S
C2140 C2137 1.424 . S
C2140 C2139 1.384 . S
C2140 H2158 0.928 . S
C2141 C2138 1.260 . S
C2141 C2139 1.479 . S
C2142 C2137 1.245 . S
C2142 C2138 1.477 . S
C2142 H2159 0.932 . S
C2143 U2126 2.882 . S
C2143 C2137 1.428 . S
C2143 O2146 1.301 . S
C2143 O2147 1.282 . S
O2144 U2126 2.441 . S
O2144 C2130 1.249 . S
O2145 U2126 2.420 . S
O2145 C2130 1.202 . S
O2146 U2126 2.455 . S
O2146 C2143 1.301 . S
O2147 U2126 2.449 . S
O2147 C2143 1.282 . S
H2148 C2121 0.931 . S
H2149 C2123 0.929 . S
H2150 C2124 0.930 . S
H2151 C2125 0.931 . S
H2152 C2132 0.932 . S
H2153 C2133 0.930 . S
H2154 C2134 0.929 . S
H2155 C2136 0.930 . S
H2156 C2138 0.932 . S
H2157 C2139 0.929 . S
H2158 C2140 0.928 . S
H2159 C2142 0.932 . S
C2160 C2161 1.264 . S
C2160 C2165 1.479 . S
C2160 C2170 1.465 . S
C2161 C2160 1.264 . S
C2161 C2163 1.339 . S
C2161 H2188 0.931 . S
C2162 C2163 1.395 . S
C2162 C2164 1.320 . S
C2163 C2161 1.339 . S
C2163 C2162 1.395 . S
C2163 H2189 0.929 . S
C2164 C2162 1.320 . S
C2164 C2165 1.405 . S
C2164 H2190 0.930 . S
C2165 C2160 1.479 . S
C2165 C2164 1.405 . S
C2165 H2191 0.931 . S
U2166 O2167 2.454 . S
U2166 O2168 2.458 . S
U2166 C2169 2.984 . S
U2166 C2170 2.847 . S
U2166 C2183 2.882 . S
U2166 O2184 2.441 . S
U2166 O2185 2.420 . S
U2166 O2186 2.455 . S
U2166 O2187 2.449 . S
O2167 U2166 2.454 . S
O2167 C2169 1.353 . S
O2168 U2166 2.458 . S
O2168 C2169 1.286 . S
C2169 U2166 2.984 . S
C2169 O2167 1.353 . S
C2169 O2168 1.286 . S
C2169 C2171 1.363 . S
C2170 C2160 1.465 . S
C2170 U2166 2.847 . S
C2170 O2184 1.249 . S
C2170 O2185 1.202 . S
C2171 C2169 1.363 . S
C2171 C2173 1.408 . S
C2171 C2176 1.342 . S
C2172 C2173 1.310 . S
C2172 C2175 1.461 . S
C2172 H2192 0.932 . S
C2173 C2171 1.408 . S
C2173 C2172 1.310 . S
C2173 H2193 0.930 . S
C2174 C2175 1.474 . S
C2174 C2176 1.285 . S
C2174 H2194 0.929 . S
C2175 C2172 1.461 . S
C2175 C2174 1.474 . S
C2176 C2171 1.342 . S
C2176 C2174 1.285 . S
C2176 H2195 0.930 . S
C2177 C2180 1.424 . S
C2177 C2182 1.245 . S
C2177 C2183 1.428 . S
C2178 C2181 1.260 . S
C2178 C2182 1.477 . S
C2178 H2196 0.932 . S
C2179 C2180 1.384 . S
C2179 C2181 1.479 . S
C2179 H2197 0.929 . S
C2180 C2177 1.424 . S
C2180 C2179 1.384 . S
C2180 H2198 0.928 . S
C2181 C2178 1.260 . S
C2181 C2179 1.479 . S
C2182 C2177 1.245 . S
C2182 C2178 1.477 . S
C2182 H2199 0.932 . S
C2183 U2166 2.882 . S
C2183 C2177 1.428 . S
C2183 O2186 1.301 . S
C2183 O2187 1.282 . S
O2184 U2166 2.441 . S
O2184 C2170 1.249 . S
O2185 U2166 2.420 . S
O2185 C2170 1.202 . S
O2186 U2166 2.455 . S
O2186 C2183 1.301 . S
O2187 U2166 2.449 . S
O2187 C2183 1.282 . S
H2188 C2161 0.931 . S
H2189 C2163 0.929 . S
H2190 C2164 0.930 . S
H2191 C2165 0.931 . S
H2192 C2172 0.932 . S
H2193 C2173 0.930 . S
H2194 C2174 0.929 . S
H2195 C2176 0.930 . S
H2196 C2178 0.932 . S
H2197 C2179 0.929 . S
H2198 C2180 0.928 . S
H2199 C2182 0.932 . S
C2200 C2201 1.264 . S
C2200 C2205 1.479 . S
C2200 C2210 1.465 . S
C2201 C2200 1.264 . S
C2201 C2203 1.339 . S
C2201 H2228 0.931 . S
C2202 C2203 1.395 . S
C2202 C2204 1.320 . S
C2203 C2201 1.339 . S
C2203 C2202 1.395 . S
C2203 H2229 0.929 . S
C2204 C2202 1.320 . S
C2204 C2205 1.405 . S
C2204 H2230 0.930 . S
C2205 C2200 1.479 . S
C2205 C2204 1.405 . S
C2205 H2231 0.931 . S
U2206 O2207 2.454 . S
U2206 O2208 2.458 . S
U2206 C2209 2.984 . S
U2206 C2210 2.847 . S
U2206 C2223 2.882 . S
U2206 O2224 2.441 . S
U2206 O2225 2.420 . S
U2206 O2226 2.455 . S
U2206 O2227 2.449 . S
O2207 U2206 2.454 . S
O2207 C2209 1.353 . S
O2208 U2206 2.458 . S
O2208 C2209 1.286 . S
C2209 U2206 2.984 . S
C2209 O2207 1.353 . S
C2209 O2208 1.286 . S
C2209 C2211 1.363 . S
C2210 C2200 1.465 . S
C2210 U2206 2.847 . S
C2210 O2224 1.249 . S
C2210 O2225 1.202 . S
C2211 C2209 1.363 . S
C2211 C2213 1.408 . S
C2211 C2216 1.342 . S
C2212 C2213 1.310 . S
C2212 C2215 1.461 . S
C2212 H2232 0.932 . S
C2213 C2211 1.408 . S
C2213 C2212 1.310 . S
C2213 H2233 0.930 . S
C2214 C2215 1.474 . S
C2214 C2216 1.285 . S
C2214 H2234 0.929 . S
C2215 C2212 1.461 . S
C2215 C2214 1.474 . S
C2216 C2211 1.342 . S
C2216 C2214 1.285 . S
C2216 H2235 0.930 . S
C2217 C2220 1.424 . S
C2217 C2222 1.245 . S
C2217 C2223 1.428 . S
C2218 C2221 1.260 . S
C2218 C2222 1.477 . S
C2218 H2236 0.932 . S
C2219 C2220 1.384 . S
C2219 C2221 1.479 . S
C2219 H2237 0.929 . S
C2220 C2217 1.424 . S
C2220 C2219 1.384 . S
C2220 H2238 0.928 . S
C2221 C2218 1.260 . S
C2221 C2219 1.479 . S
C2222 C2217 1.245 . S
C2222 C2218 1.477 . S
C2222 H2239 0.932 . S
C2223 U2206 2.882 . S
C2223 C2217 1.428 . S
C2223 O2226 1.301 . S
C2223 O2227 1.282 . S
O2224 U2206 2.441 . S
O2224 C2210 1.249 . S
O2225 U2206 2.420 . S
O2225 C2210 1.202 . S
O2226 U2206 2.455 . S
O2226 C2223 1.301 . S
O2227 U2206 2.449 . S
O2227 C2223 1.282 . S
H2228 C2201 0.931 . S
H2229 C2203 0.929 . S
H2230 C2204 0.930 . S
H2231 C2205 0.931 . S
H2232 C2212 0.932 . S
H2233 C2213 0.930 . S
H2234 C2214 0.929 . S
H2235 C2216 0.930 . S
H2236 C2218 0.932 . S
H2237 C2219 0.929 . S
H2238 C2220 0.928 . S
H2239 C2222 0.932 . S
C2240 C2241 1.264 . S
C2240 C2245 1.479 . S
C2240 C2250 1.465 . S
C2241 C2240 1.264 . S
C2241 C2243 1.339 . S
C2241 H2268 0.931 . S
C2242 C2243 1.395 . S
C2242 C2244 1.320 . S
C2243 C2241 1.339 . S
C2243 C2242 1.395 . S
C2243 H2269 0.929 . S
C2244 C2242 1.320 . S
C2244 C2245 1.405 . S
C2244 H2270 0.930 . S
C2245 C2240 1.479 . S
C2245 C2244 1.405 . S
C2245 H2271 0.931 . S
U2246 O2247 2.454 . S
U2246 O2248 2.458 . S
U2246 C2249 2.984 . S
U2246 C2250 2.847 . S
U2246 C2263 2.882 . S
U2246 O2264 2.441 . S
U2246 O2265 2.420 . S
U2246 O2266 2.455 . S
U2246 O2267 2.449 . S
O2247 U2246 2.454 . S
O2247 C2249 1.353 . S
O2248 U2246 2.458 . S
O2248 C2249 1.286 . S
C2249 U2246 2.984 . S
C2249 O2247 1.353 . S
C2249 O2248 1.286 . S
C2249 C2251 1.363 . S
C2250 C2240 1.465 . S
C2250 U2246 2.847 . S
C2250 O2264 1.249 . S
C2250 O2265 1.202 . S
C2251 C2249 1.363 . S
C2251 C2253 1.408 . S
C2251 C2256 1.342 . S
C2252 C2253 1.310 . S
C2252 C2255 1.461 . S
C2252 H2272 0.932 . S
C2253 C2251 1.408 . S
C2253 C2252 1.310 . S
C2253 H2273 0.930 . S
C2254 C2255 1.474 . S
C2254 C2256 1.285 . S
C2254 H2274 0.929 . S
C2255 C2252 1.461 . S
C2255 C2254 1.474 . S
C2256 C2251 1.342 . S
C2256 C2254 1.285 . S
C2256 H2275 0.930 . S
C2257 C2260 1.424 . S
C2257 C2262 1.245 . S
C2257 C2263 1.428 . S
C2258 C2261 1.260 . S
C2258 C2262 1.477 . S
C2258 H2276 0.932 . S
C2259 C2260 1.384 . S
C2259 C2261 1.479 . S
C2259 H2277 0.929 . S
C2260 C2257 1.424 . S
C2260 C2259 1.384 . S
C2260 H2278 0.928 . S
C2261 C2258 1.260 . S
C2261 C2259 1.479 . S
C2262 C2257 1.245 . S
C2262 C2258 1.477 . S
C2262 H2279 0.932 . S
C2263 U2246 2.882 . S
C2263 C2257 1.428 . S
C2263 O2266 1.301 . S
C2263 O2267 1.282 . S
O2264 U2246 2.441 . S
O2264 C2250 1.249 . S
O2265 U2246 2.420 . S
O2265 C2250 1.202 . S
O2266 U2246 2.455 . S
O2266 C2263 1.301 . S
O2267 U2246 2.449 . S
O2267 C2263 1.282 . S
H2268 C2241 0.931 . S
H2269 C2243 0.929 . S
H2270 C2244 0.930 . S
H2271 C2245 0.931 . S
H2272 C2252 0.932 . S
H2273 C2253 0.930 . S
H2274 C2254 0.929 . S
H2275 C2256 0.930 . S
H2276 C2258 0.932 . S
H2277 C2259 0.929 . S
H2278 C2260 0.928 . S
H2279 C2262 0.932 . S
C2280 C2281 1.264 . S
C2280 C2285 1.479 . S
C2280 C2290 1.465 . S
C2281 C2280 1.264 . S
C2281 C2283 1.339 . S
C2281 H2308 0.931 . S
C2282 C2283 1.395 . S
C2282 C2284 1.320 . S
C2283 C2281 1.339 . S
C2283 C2282 1.395 . S
C2283 H2309 0.929 . S
C2284 C2282 1.320 . S
C2284 C2285 1.405 . S
C2284 H2310 0.930 . S
C2285 C2280 1.479 . S
C2285 C2284 1.405 . S
C2285 H2311 0.931 . S
U2286 O2287 2.454 . S
U2286 O2288 2.458 . S
U2286 C2289 2.984 . S
U2286 C2290 2.847 . S
U2286 C2303 2.882 . S
U2286 O2304 2.441 . S
U2286 O2305 2.420 . S
U2286 O2306 2.455 . S
U2286 O2307 2.449 . S
O2287 U2286 2.454 . S
O2287 C2289 1.353 . S
O2288 U2286 2.458 . S
O2288 C2289 1.286 . S
C2289 U2286 2.984 . S
C2289 O2287 1.353 . S
C2289 O2288 1.286 . S
C2289 C2291 1.363 . S
C2290 C2280 1.465 . S
C2290 U2286 2.847 . S
C2290 O2304 1.249 . S
C2290 O2305 1.202 . S
C2291 C2289 1.363 . S
C2291 C2293 1.408 . S
C2291 C2296 1.342 . S
C2292 C2293 1.310 . S
C2292 C2295 1.461 . S
C2292 H2312 0.932 . S
C2293 C2291 1.408 . S
C2293 C2292 1.310 . S
C2293 H2313 0.930 . S
C2294 C2295 1.474 . S
C2294 C2296 1.285 . S
C2294 H2314 0.929 . S
C2295 C2292 1.461 . S
C2295 C2294 1.474 . S
C2296 C2291 1.342 . S
C2296 C2294 1.285 . S
C2296 H2315 0.930 . S
C2297 C2300 1.424 . S
C2297 C2302 1.245 . S
C2297 C2303 1.428 . S
C2298 C2301 1.260 . S
C2298 C2302 1.477 . S
C2298 H2316 0.932 . S
C2299 C2300 1.384 . S
C2299 C2301 1.479 . S
C2299 H2317 0.929 . S
C2300 C2297 1.424 . S
C2300 C2299 1.384 . S
C2300 H2318 0.928 . S
C2301 C2298 1.260 . S
C2301 C2299 1.479 . S
C2302 C2297 1.245 . S
C2302 C2298 1.477 . S
C2302 H2319 0.932 . S
C2303 U2286 2.882 . S
C2303 C2297 1.428 . S
C2303 O2306 1.301 . S
C2303 O2307 1.282 . S
O2304 U2286 2.441 . S
O2304 C2290 1.249 . S
O2305 U2286 2.420 . S
O2305 C2290 1.202 . S
O2306 U2286 2.455 . S
O2306 C2303 1.301 . S
O2307 U2286 2.449 . S
O2307 C2303 1.282 . S
H2308 C2281 0.931 . S
H2309 C2283 0.929 . S
H2310 C2284 0.930 . S
H2311 C2285 0.931 . S
H2312 C2292 0.932 . S
H2313 C2293 0.930 . S
H2314 C2294 0.929 . S
H2315 C2296 0.930 . S
H2316 C2298 0.932 . S
H2317 C2299 0.929 . S
H2318 C2300 0.928 . S
H2319 C2302 0.932 . S
C2320 C2321 1.264 . S
C2320 C2325 1.479 . S
C2320 C2330 1.465 . S
C2321 C2320 1.264 . S
C2321 C2323 1.339 . S
C2321 H2348 0.931 . S
C2322 C2323 1.395 . S
C2322 C2324 1.320 . S
C2323 C2321 1.339 . S
C2323 C2322 1.395 . S
C2323 H2349 0.929 . S
C2324 C2322 1.320 . S
C2324 C2325 1.405 . S
C2324 H2350 0.930 . S
C2325 C2320 1.479 . S
C2325 C2324 1.405 . S
C2325 H2351 0.931 . S
U2326 O2327 2.454 . S
U2326 O2328 2.458 . S
U2326 C2329 2.984 . S
U2326 C2330 2.847 . S
U2326 C2343 2.882 . S
U2326 O2344 2.441 . S
U2326 O2345 2.420 . S
U2326 O2346 2.455 . S
U2326 O2347 2.449 . S
O2327 U2326 2.454 . S
O2327 C2329 1.353 . S
O2328 U2326 2.458 . S
O2328 C2329 1.286 . S
C2329 U2326 2.984 . S
C2329 O2327 1.353 . S
C2329 O2328 1.286 . S
C2329 C2331 1.363 . S
C2330 C2320 1.465 . S
C2330 U2326 2.847 . S
C2330 O2344 1.249 . S
C2330 O2345 1.202 . S
C2331 C2329 1.363 . S
C2331 C2333 1.408 . S
C2331 C2336 1.342 . S
C2332 C2333 1.310 . S
C2332 C2335 1.461 . S
C2332 H2352 0.932 . S
C2333 C2331 1.408 . S
C2333 C2332 1.310 . S
C2333 H2353 0.930 . S
C2334 C2335 1.474 . S
C2334 C2336 1.285 . S
C2334 H2354 0.929 . S
C2335 C2332 1.461 . S
C2335 C2334 1.474 . S
C2336 C2331 1.342 . S
C2336 C2334 1.285 . S
C2336 H2355 0.930 . S
C2337 C2340 1.424 . S
C2337 C2342 1.245 . S
C2337 C2343 1.428 . S
C2338 C2341 1.260 . S
C2338 C2342 1.477 . S
C2338 H2356 0.932 . S
C2339 C2340 1.384 . S
C2339 C2341 1.479 . S
C2339 H2357 0.929 . S
C2340 C2337 1.424 . S
C2340 C2339 1.384 . S
C2340 H2358 0.928 . S
C2341 C2338 1.260 . S
C2341 C2339 1.479 . S
C2342 C2337 1.245 . S
C2342 C2338 1.477 . S
C2342 H2359 0.932 . S
C2343 U2326 2.882 . S
C2343 C2337 1.428 . S
C2343 O2346 1.301 . S
C2343 O2347 1.282 . S
O2344 U2326 2.441 . S
O2344 C2330 1.249 . S
O2345 U2326 2.420 . S
O2345 C2330 1.202 . S
O2346 U2326 2.455 . S
O2346 C2343 1.301 . S
O2347 U2326 2.449 . S
O2347 C2343 1.282 . S
H2348 C2321 0.931 . S
H2349 C2323 0.929 . S
H2350 C2324 0.930 . S
H2351 C2325 0.931 . S
H2352 C2332 0.932 . S
H2353 C2333 0.930 . S
H2354 C2334 0.929 . S
H2355 C2336 0.930 . S
H2356 C2338 0.932 . S
H2357 C2339 0.929 . S
H2358 C2340 0.928 . S
H2359 C2342 0.932 . S
C2360 C2361 1.264 . S
C2360 C2365 1.479 . S
C2360 C2370 1.465 . S
C2361 C2360 1.264 . S
C2361 C2363 1.339 . S
C2361 H2388 0.931 . S
C2362 C2363 1.395 . S
C2362 C2364 1.320 . S
C2363 C2361 1.339 . S
C2363 C2362 1.395 . S
C2363 H2389 0.929 . S
C2364 C2362 1.320 . S
C2364 C2365 1.405 . S
C2364 H2390 0.930 . S
C2365 C2360 1.479 . S
C2365 C2364 1.405 . S
C2365 H2391 0.931 . S
U2366 O2367 2.454 . S
U2366 O2368 2.458 . S
U2366 C2369 2.984 . S
U2366 C2370 2.847 . S
U2366 C2383 2.882 . S
U2366 O2384 2.441 . S
U2366 O2385 2.420 . S
U2366 O2386 2.455 . S
U2366 O2387 2.449 . S
O2367 U2366 2.454 . S
O2367 C2369 1.353 . S
O2368 U2366 2.458 . S
O2368 C2369 1.286 . S
C2369 U2366 2.984 . S
C2369 O2367 1.353 . S
C2369 O2368 1.286 . S
C2369 C2371 1.363 . S
C2370 C2360 1.465 . S
C2370 U2366 2.847 . S
C2370 O2384 1.249 . S
C2370 O2385 1.202 . S
C2371 C2369 1.363 . S
C2371 C2373 1.408 . S
C2371 C2376 1.342 . S
C2372 C2373 1.310 . S
C2372 C2375 1.461 . S
C2372 H2392 0.932 . S
C2373 C2371 1.408 . S
C2373 C2372 1.310 . S
C2373 H2393 0.930 . S
C2374 C2375 1.474 . S
C2374 C2376 1.285 . S
C2374 H2394 0.929 . S
C2375 C2372 1.461 . S
C2375 C2374 1.474 . S
C2376 C2371 1.342 . S
C2376 C2374 1.285 . S
C2376 H2395 0.930 . S
C2377 C2380 1.424 . S
C2377 C2382 1.245 . S
C2377 C2383 1.428 . S
C2378 C2381 1.260 . S
C2378 C2382 1.477 . S
C2378 H2396 0.932 . S
C2379 C2380 1.384 . S
C2379 C2381 1.479 . S
C2379 H2397 0.929 . S
C2380 C2377 1.424 . S
C2380 C2379 1.384 . S
C2380 H2398 0.928 . S
C2381 C2378 1.260 . S
C2381 C2379 1.479 . S
C2382 C2377 1.245 . S
C2382 C2378 1.477 . S
C2382 H2399 0.932 . S
C2383 U2366 2.882 . S
C2383 C2377 1.428 . S
C2383 O2386 1.301 . S
C2383 O2387 1.282 . S
O2384 U2366 2.441 . S
O2384 C2370 1.249 . S
O2385 U2366 2.420 . S
O2385 C2370 1.202 . S
O2386 U2366 2.455 . S
O2386 C2383 1.301 . S
O2387 U2366 2.449 . S
O2387 C2383 1.282 . S
H2388 C2361 0.931 . S
H2389 C2363 0.929 . S
H2390 C2364 0.930 . S
H2391 C2365 0.931 . S
H2392 C2372 0.932 . S
H2393 C2373 0.930 . S
H2394 C2374 0.929 . S
H2395 C2376 0.930 . S
H2396 C2378 0.932 . S
H2397 C2379 0.929 . S
H2398 C2380 0.928 . S
H2399 C2382 0.932 . S
C2400 C2401 1.264 . S
C2400 C2405 1.479 . S
C2400 C2410 1.465 . S
C2401 C2400 1.264 . S
C2401 C2403 1.339 . S
C2401 H2428 0.931 . S
C2402 C2403 1.395 . S
C2402 C2404 1.320 . S
C2403 C2401 1.339 . S
C2403 C2402 1.395 . S
C2403 H2429 0.929 . S
C2404 C2402 1.320 . S
C2404 C2405 1.405 . S
C2404 H2430 0.930 . S
C2405 C2400 1.479 . S
C2405 C2404 1.405 . S
C2405 H2431 0.931 . S
U2406 O2407 2.454 . S
U2406 O2408 2.458 . S
U2406 C2409 2.984 . S
U2406 C2410 2.847 . S
U2406 C2423 2.882 . S
U2406 O2424 2.441 . S
U2406 O2425 2.420 . S
U2406 O2426 2.455 . S
U2406 O2427 2.449 . S
O2407 U2406 2.454 . S
O2407 C2409 1.353 . S
O2408 U2406 2.458 . S
O2408 C2409 1.286 . S
C2409 U2406 2.984 . S
C2409 O2407 1.353 . S
C2409 O2408 1.286 . S
C2409 C2411 1.363 . S
C2410 C2400 1.465 . S
C2410 U2406 2.847 . S
C2410 O2424 1.249 . S
C2410 O2425 1.202 . S
C2411 C2409 1.363 . S
C2411 C2413 1.408 . S
C2411 C2416 1.342 . S
C2412 C2413 1.310 . S
C2412 C2415 1.461 . S
C2412 H2432 0.932 . S
C2413 C2411 1.408 . S
C2413 C2412 1.310 . S
C2413 H2433 0.930 . S
C2414 C2415 1.474 . S
C2414 C2416 1.285 . S
C2414 H2434 0.929 . S
C2415 C2412 1.461 . S
C2415 C2414 1.474 . S
C2416 C2411 1.342 . S
C2416 C2414 1.285 . S
C2416 H2435 0.930 . S
C2417 C2420 1.424 . S
C2417 C2422 1.245 . S
C2417 C2423 1.428 . S
C2418 C2421 1.260 . S
C2418 C2422 1.477 . S
C2418 H2436 0.932 . S
C2419 C2420 1.384 . S
C2419 C2421 1.479 . S
C2419 H2437 0.929 . S
C2420 C2417 1.424 . S
C2420 C2419 1.384 . S
C2420 H2438 0.928 . S
C2421 C2418 1.260 . S
C2421 C2419 1.479 . S
C2422 C2417 1.245 . S
C2422 C2418 1.477 . S
C2422 H2439 0.932 . S
C2423 U2406 2.882 . S
C2423 C2417 1.428 . S
C2423 O2426 1.301 . S
C2423 O2427 1.282 . S
O2424 U2406 2.441 . S
O2424 C2410 1.249 . S
O2425 U2406 2.420 . S
O2425 C2410 1.202 . S
O2426 U2406 2.455 . S
O2426 C2423 1.301 . S
O2427 U2406 2.449 . S
O2427 C2423 1.282 . S
H2428 C2401 0.931 . S
H2429 C2403 0.929 . S
H2430 C2404 0.930 . S
H2431 C2405 0.931 . S
H2432 C2412 0.932 . S
H2433 C2413 0.930 . S
H2434 C2414 0.929 . S
H2435 C2416 0.930 . S
H2436 C2418 0.932 . S
H2437 C2419 0.929 . S
H2438 C2420 0.928 . S
H2439 C2422 0.932 . S
C2440 C2441 1.264 . S
C2440 C2445 1.479 . S
C2440 C2450 1.465 . S
C2441 C2440 1.264 . S
C2441 C2443 1.339 . S
C2441 H2468 0.931 . S
C2442 C2443 1.395 . S
C2442 C2444 1.320 . S
C2443 C2441 1.339 . S
C2443 C2442 1.395 . S
C2443 H2469 0.929 . S
C2444 C2442 1.320 . S
C2444 C2445 1.405 . S
C2444 H2470 0.930 . S
C2445 C2440 1.479 . S
C2445 C2444 1.405 . S
C2445 H2471 0.931 . S
U2446 O2447 2.454 . S
U2446 O2448 2.458 . S
U2446 C2449 2.984 . S
U2446 C2450 2.847 . S
U2446 C2463 2.882 . S
U2446 O2464 2.441 . S
U2446 O2465 2.420 . S
U2446 O2466 2.455 . S
U2446 O2467 2.449 . S
O2447 U2446 2.454 . S
O2447 C2449 1.353 . S
O2448 U2446 2.458 . S
O2448 C2449 1.286 . S
C2449 U2446 2.984 . S
C2449 O2447 1.353 . S
C2449 O2448 1.286 . S
C2449 C2451 1.363 . S
C2450 C2440 1.465 . S
C2450 U2446 2.847 . S
C2450 O2464 1.249 . S
C2450 O2465 1.202 . S
C2451 C2449 1.363 . S
C2451 C2453 1.408 . S
C2451 C2456 1.342 . S
C2452 C2453 1.310 . S
C2452 C2455 1.461 . S
C2452 H2472 0.932 . S
C2453 C2451 1.408 . S
C2453 C2452 1.310 . S
C2453 H2473 0.930 . S
C2454 C2455 1.474 . S
C2454 C2456 1.285 . S
C2454 H2474 0.929 . S
C2455 C2452 1.461 . S
C2455 C2454 1.474 . S
C2456 C2451 1.342 . S
C2456 C2454 1.285 . S
C2456 H2475 0.930 . S
C2457 C2460 1.424 . S
C2457 C2462 1.245 . S
C2457 C2463 1.428 . S
C2458 C2461 1.260 . S
C2458 C2462 1.477 . S
C2458 H2476 0.932 . S
C2459 C2460 1.384 . S
C2459 C2461 1.479 . S
C2459 H2477 0.929 . S
C2460 C2457 1.424 . S
C2460 C2459 1.384 . S
C2460 H2478 0.928 . S
C2461 C2458 1.260 . S
C2461 C2459 1.479 . S
C2462 C2457 1.245 . S
C2462 C2458 1.477 . S
C2462 H2479 0.932 . S
C2463 U2446 2.882 . S
C2463 C2457 1.428 . S
C2463 O2466 1.301 . S
C2463 O2467 1.282 . S
O2464 U2446 2.441 . S
O2464 C2450 1.249 . S
O2465 U2446 2.420 . S
O2465 C2450 1.202 . S
O2466 U2446 2.455 . S
O2466 C2463 1.301 . S
O2467 U2446 2.449 . S
O2467 C2463 1.282 . S
H2468 C2441 0.931 . S
H2469 C2443 0.929 . S
H2470 C2444 0.930 . S
H2471 C2445 0.931 . S
H2472 C2452 0.932 . S
H2473 C2453 0.930 . S
H2474 C2454 0.929 . S
H2475 C2456 0.930 . S
H2476 C2458 0.932 . S
H2477 C2459 0.929 . S
H2478 C2460 0.928 . S
H2479 C2462 0.932 . S
C2480 C2481 1.264 . S
C2480 C2485 1.479 . S
C2480 C2490 1.465 . S
C2481 C2480 1.264 . S
C2481 C2483 1.339 . S
C2481 H2508 0.931 . S
C2482 C2483 1.395 . S
C2482 C2484 1.320 . S
C2483 C2481 1.339 . S
C2483 C2482 1.395 . S
C2483 H2509 0.929 . S
C2484 C2482 1.320 . S
C2484 C2485 1.405 . S
C2484 H2510 0.930 . S
C2485 C2480 1.479 . S
C2485 C2484 1.405 . S
C2485 H2511 0.931 . S
U2486 O2487 2.454 . S
U2486 O2488 2.458 . S
U2486 C2489 2.984 . S
U2486 C2490 2.847 . S
U2486 C2503 2.882 . S
U2486 O2504 2.441 . S
U2486 O2505 2.420 . S
U2486 O2506 2.455 . S
U2486 O2507 2.449 . S
O2487 U2486 2.454 . S
O2487 C2489 1.353 . S
O2488 U2486 2.458 . S
O2488 C2489 1.286 . S
C2489 U2486 2.984 . S
C2489 O2487 1.353 . S
C2489 O2488 1.286 . S
C2489 C2491 1.363 . S
C2490 C2480 1.465 . S
C2490 U2486 2.847 . S
C2490 O2504 1.249 . S
C2490 O2505 1.202 . S
C2491 C2489 1.363 . S
C2491 C2493 1.408 . S
C2491 C2496 1.342 . S
C2492 C2493 1.310 . S
C2492 C2495 1.461 . S
C2492 H2512 0.932 . S
C2493 C2491 1.408 . S
C2493 C2492 1.310 . S
C2493 H2513 0.930 . S
C2494 C2495 1.474 . S
C2494 C2496 1.285 . S
C2494 H2514 0.929 . S
C2495 C2492 1.461 . S
C2495 C2494 1.474 . S
C2496 C2491 1.342 . S
C2496 C2494 1.285 . S
C2496 H2515 0.930 . S
C2497 C2500 1.424 . S
C2497 C2502 1.245 . S
C2497 C2503 1.428 . S
C2498 C2501 1.260 . S
C2498 C2502 1.477 . S
C2498 H2516 0.932 . S
C2499 C2500 1.384 . S
C2499 C2501 1.479 . S
C2499 H2517 0.929 . S
C2500 C2497 1.424 . S
C2500 C2499 1.384 . S
C2500 H2518 0.928 . S
C2501 C2498 1.260 . S
C2501 C2499 1.479 . S
C2502 C2497 1.245 . S
C2502 C2498 1.477 . S
C2502 H2519 0.932 . S
C2503 U2486 2.882 . S
C2503 C2497 1.428 . S
C2503 O2506 1.301 . S
C2503 O2507 1.282 . S
O2504 U2486 2.441 . S
O2504 C2490 1.249 . S
O2505 U2486 2.420 . S
O2505 C2490 1.202 . S
O2506 U2486 2.455 . S
O2506 C2503 1.301 . S
O2507 U2486 2.449 . S
O2507 C2503 1.282 . S
H2508 C2481 0.931 . S
H2509 C2483 0.929 . S
H2510 C2484 0.930 . S
H2511 C2485 0.931 . S
H2512 C2492 0.932 . S
H2513 C2493 0.930 . S
H2514 C2494 0.929 . S
H2515 C2496 0.930 . S
H2516 C2498 0.932 . S
H2517 C2499 0.929 . S
H2518 C2500 0.928 . S
H2519 C2502 0.932 . S
C2520 C2521 1.264 . S
C2520 C2525 1.479 . S
C2520 C2530 1.465 . S
C2521 C2520 1.264 . S
C2521 C2523 1.339 . S
C2521 H2548 0.931 . S
C2522 C2523 1.395 . S
C2522 C2524 1.320 . S
C2523 C2521 1.339 . S
C2523 C2522 1.395 . S
C2523 H2549 0.929 . S
C2524 C2522 1.320 . S
C2524 C2525 1.405 . S
C2524 H2550 0.930 . S
C2525 C2520 1.479 . S
C2525 C2524 1.405 . S
C2525 H2551 0.931 . S
U2526 O2527 2.454 . S
U2526 O2528 2.458 . S
U2526 C2529 2.984 . S
U2526 C2530 2.847 . S
U2526 C2543 2.882 . S
U2526 O2544 2.441 . S
U2526 O2545 2.420 . S
U2526 O2546 2.455 . S
U2526 O2547 2.449 . S
O2527 U2526 2.454 . S
O2527 C2529 1.353 . S
O2528 U2526 2.458 . S
O2528 C2529 1.286 . S
C2529 U2526 2.984 . S
C2529 O2527 1.353 . S
C2529 O2528 1.286 . S
C2529 C2531 1.363 . S
C2530 C2520 1.465 . S
C2530 U2526 2.847 . S
C2530 O2544 1.249 . S
C2530 O2545 1.202 . S
C2531 C2529 1.363 . S
C2531 C2533 1.408 . S
C2531 C2536 1.342 . S
C2532 C2533 1.310 . S
C2532 C2535 1.461 . S
C2532 H2552 0.932 . S
C2533 C2531 1.408 . S
C2533 C2532 1.310 . S
C2533 H2553 0.930 . S
C2534 C2535 1.474 . S
C2534 C2536 1.285 . S
C2534 H2554 0.929 . S
C2535 C2532 1.461 . S
C2535 C2534 1.474 . S
C2536 C2531 1.342 . S
C2536 C2534 1.285 . S
C2536 H2555 0.930 . S
C2537 C2540 1.424 . S
C2537 C2542 1.245 . S
C2537 C2543 1.428 . S
C2538 C2541 1.260 . S
C2538 C2542 1.477 . S
C2538 H2556 0.932 . S
C2539 C2540 1.384 . S
C2539 C2541 1.479 . S
C2539 H2557 0.929 . S
C2540 C2537 1.424 . S
C2540 C2539 1.384 . S
C2540 H2558 0.928 . S
C2541 C2538 1.260 . S
C2541 C2539 1.479 . S
C2542 C2537 1.245 . S
C2542 C2538 1.477 . S
C2542 H2559 0.932 . S
C2543 U2526 2.882 . S
C2543 C2537 1.428 . S
C2543 O2546 1.301 . S
C2543 O2547 1.282 . S
O2544 U2526 2.441 . S
O2544 C2530 1.249 . S
O2545 U2526 2.420 . S
O2545 C2530 1.202 . S
O2546 U2526 2.455 . S
O2546 C2543 1.301 . S
O2547 U2526 2.449 . S
O2547 C2543 1.282 . S
H2548 C2521 0.931 . S
H2549 C2523 0.929 . S
H2550 C2524 0.930 . S
H2551 C2525 0.931 . S
H2552 C2532 0.932 . S
H2553 C2533 0.930 . S
H2554 C2534 0.929 . S
H2555 C2536 0.930 . S
H2556 C2538 0.932 . S
H2557 C2539 0.929 . S
H2558 C2540 0.928 . S
H2559 C2542 0.932 . S
C2560 C2561 1.264 . S
C2560 C2565 1.479 . S
C2560 C2570 1.465 . S
C2561 C2560 1.264 . S
C2561 C2563 1.339 . S
C2561 H2588 0.931 . S
C2562 C2563 1.395 . S
C2562 C2564 1.320 . S
C2563 C2561 1.339 . S
C2563 C2562 1.395 . S
C2563 H2589 0.929 . S
C2564 C2562 1.320 . S
C2564 C2565 1.405 . S
C2564 H2590 0.930 . S
C2565 C2560 1.479 . S
C2565 C2564 1.405 . S
C2565 H2591 0.931 . S
U2566 O2567 2.454 . S
U2566 O2568 2.458 . S
U2566 C2569 2.984 . S
U2566 C2570 2.847 . S
U2566 C2583 2.882 . S
U2566 O2584 2.441 . S
U2566 O2585 2.420 . S
U2566 O2586 2.455 . S
U2566 O2587 2.449 . S
O2567 U2566 2.454 . S
O2567 C2569 1.353 . S
O2568 U2566 2.458 . S
O2568 C2569 1.286 . S
C2569 U2566 2.984 . S
C2569 O2567 1.353 . S
C2569 O2568 1.286 . S
C2569 C2571 1.363 . S
C2570 C2560 1.465 . S
C2570 U2566 2.847 . S
C2570 O2584 1.249 . S
C2570 O2585 1.202 . S
C2571 C2569 1.363 . S
C2571 C2573 1.408 . S
C2571 C2576 1.342 . S
C2572 C2573 1.310 . S
C2572 C2575 1.461 . S
C2572 H2592 0.932 . S
C2573 C2571 1.408 . S
C2573 C2572 1.310 . S
C2573 H2593 0.930 . S
C2574 C2575 1.474 . S
C2574 C2576 1.285 . S
C2574 H2594 0.929 . S
C2575 C2572 1.461 . S
C2575 C2574 1.474 . S
C2576 C2571 1.342 . S
C2576 C2574 1.285 . S
C2576 H2595 0.930 . S
C2577 C2580 1.424 . S
C2577 C2582 1.245 . S
C2577 C2583 1.428 . S
C2578 C2581 1.260 . S
C2578 C2582 1.477 . S
C2578 H2596 0.932 . S
C2579 C2580 1.384 . S
C2579 C2581 1.479 . S
C2579 H2597 0.929 . S
C2580 C2577 1.424 . S
C2580 C2579 1.384 . S
C2580 H2598 0.928 . S
C2581 C2578 1.260 . S
C2581 C2579 1.479 . S
C2582 C2577 1.245 . S
C2582 C2578 1.477 . S
C2582 H2599 0.932 . S
C2583 U2566 2.882 . S
C2583 C2577 1.428 . S
C2583 O2586 1.301 . S
C2583 O2587 1.282 . S
O2584 U2566 2.441 . S
O2584 C2570 1.249 . S
O2585 U2566 2.420 . S
O2585 C2570 1.202 . S
O2586 U2566 2.455 . S
O2586 C2583 1.301 . S
O2587 U2566 2.449 . S
O2587 C2583 1.282 . S
H2588 C2561 0.931 . S
H2589 C2563 0.929 . S
H2590 C2564 0.930 . S
H2591 C2565 0.931 . S
H2592 C2572 0.932 . S
H2593 C2573 0.930 . S
H2594 C2574 0.929 . S
H2595 C2576 0.930 . S
H2596 C2578 0.932 . S
H2597 C2579 0.929 . S
H2598 C2580 0.928 . S
H2599 C2582 0.932 . S
C2600 C2601 1.264 . S
C2600 C2605 1.479 . S
C2600 C2610 1.465 . S
C2601 C2600 1.264 . S
C2601 C2603 1.339 . S
C2601 H2628 0.931 . S
C2602 C2603 1.395 . S
C2602 C2604 1.320 . S
C2603 C2601 1.339 . S
C2603 C2602 1.395 . S
C2603 H2629 0.929 . S
C2604 C2602 1.320 . S
C2604 C2605 1.405 . S
C2604 H2630 0.930 . S
C2605 C2600 1.479 . S
C2605 C2604 1.405 . S
C2605 H2631 0.931 . S
U2606 O2607 2.454 . S
U2606 O2608 2.458 . S
U2606 C2609 2.984 . S
U2606 C2610 2.847 . S
U2606 C2623 2.882 . S
U2606 O2624 2.441 . S
U2606 O2625 2.420 . S
U2606 O2626 2.455 . S
U2606 O2627 2.449 . S
O2607 U2606 2.454 . S
O2607 C2609 1.353 . S
O2608 U2606 2.458 . S
O2608 C2609 1.286 . S
C2609 U2606 2.984 . S
C2609 O2607 1.353 . S
C2609 O2608 1.286 . S
C2609 C2611 1.363 . S
C2610 C2600 1.465 . S
C2610 U2606 2.847 . S
C2610 O2624 1.249 . S
C2610 O2625 1.202 . S
C2611 C2609 1.363 . S
C2611 C2613 1.408 . S
C2611 C2616 1.342 . S
C2612 C2613 1.310 . S
C2612 C2615 1.461 . S
C2612 H2632 0.932 . S
C2613 C2611 1.408 . S
C2613 C2612 1.310 . S
C2613 H2633 0.930 . S
C2614 C2615 1.474 . S
C2614 C2616 1.285 . S
C2614 H2634 0.929 . S
C2615 C2612 1.461 . S
C2615 C2614 1.474 . S
C2616 C2611 1.342 . S
C2616 C2614 1.285 . S
C2616 H2635 0.930 . S
C2617 C2620 1.424 . S
C2617 C2622 1.245 . S
C2617 C2623 1.428 . S
C2618 C2621 1.260 . S
C2618 C2622 1.477 . S
C2618 H2636 0.932 . S
C2619 C2620 1.384 . S
C2619 C2621 1.479 . S
C2619 H2637 0.929 . S
C2620 C2617 1.424 . S
C2620 C2619 1.384 . S
C2620 H2638 0.928 . S
C2621 C2618 1.260 . S
C2621 C2619 1.479 . S
C2622 C2617 1.245 . S
C2622 C2618 1.477 . S
C2622 H2639 0.932 . S
C2623 U2606 2.882 . S
C2623 C2617 1.428 . S
C2623 O2626 1.301 . S
C2623 O2627 1.282 . S
O2624 U2606 2.441 . S
O2624 C2610 1.249 . S
O2625 U2606 2.420 . S
O2625 C2610 1.202 . S
O2626 U2606 2.455 . S
O2626 C2623 1.301 . S
O2627 U2606 2.449 . S
O2627 C2623 1.282 . S
H2628 C2601 0.931 . S
H2629 C2603 0.929 . S
H2630 C2604 0.930 . S
H2631 C2605 0.931 . S
H2632 C2612 0.932 . S
H2633 C2613 0.930 . S
H2634 C2614 0.929 . S
H2635 C2616 0.930 . S
H2636 C2618 0.932 . S
H2637 C2619 0.929 . S
H2638 C2620 0.928 . S
H2639 C2622 0.932 . S
C2640 C2641 1.264 . S
C2640 C2645 1.479 . S
C2640 C2650 1.465 . S
C2641 C2640 1.264 . S
C2641 C2643 1.339 . S
C2641 H2668 0.931 . S
C2642 C2643 1.395 . S
C2642 C2644 1.320 . S
C2643 C2641 1.339 . S
C2643 C2642 1.395 . S
C2643 H2669 0.929 . S
C2644 C2642 1.320 . S
C2644 C2645 1.405 . S
C2644 H2670 0.930 . S
C2645 C2640 1.479 . S
C2645 C2644 1.405 . S
C2645 H2671 0.931 . S
U2646 O2647 2.454 . S
U2646 O2648 2.458 . S
U2646 C2649 2.984 . S
U2646 C2650 2.847 . S
U2646 C2663 2.882 . S
U2646 O2664 2.441 . S
U2646 O2665 2.420 . S
U2646 O2666 2.455 . S
U2646 O2667 2.449 . S
O2647 U2646 2.454 . S
O2647 C2649 1.353 . S
O2648 U2646 2.458 . S
O2648 C2649 1.286 . S
C2649 U2646 2.984 . S
C2649 O2647 1.353 . S
C2649 O2648 1.286 . S
C2649 C2651 1.363 . S
C2650 C2640 1.465 . S
C2650 U2646 2.847 . S
C2650 O2664 1.249 . S
C2650 O2665 1.202 . S
C2651 C2649 1.363 . S
C2651 C2653 1.408 . S
C2651 C2656 1.342 . S
C2652 C2653 1.310 . S
C2652 C2655 1.461 . S
C2652 H2672 0.932 . S
C2653 C2651 1.408 . S
C2653 C2652 1.310 . S
C2653 H2673 0.930 . S
C2654 C2655 1.474 . S
C2654 C2656 1.285 . S
C2654 H2674 0.929 . S
C2655 C2652 1.461 . S
C2655 C2654 1.474 . S
C2656 C2651 1.342 . S
C2656 C2654 1.285 . S
C2656 H2675 0.930 . S
C2657 C2660 1.424 . S
C2657 C2662 1.245 . S
C2657 C2663 1.428 . S
C2658 C2661 1.260 . S
C2658 C2662 1.477 . S
C2658 H2676 0.932 . S
C2659 C2660 1.384 . S
C2659 C2661 1.479 . S
C2659 H2677 0.929 . S
C2660 C2657 1.424 . S
C2660 C2659 1.384 . S
C2660 H2678 0.928 . S
C2661 C2658 1.260 . S
C2661 C2659 1.479 . S
C2662 C2657 1.245 . S
C2662 C2658 1.477 . S
C2662 H2679 0.932 . S
C2663 U2646 2.882 . S
C2663 C2657 1.428 . S
C2663 O2666 1.301 . S
C2663 O2667 1.282 . S
O2664 U2646 2.441 . S
O2664 C2650 1.249 . S
O2665 U2646 2.420 . S
O2665 C2650 1.202 . S
O2666 U2646 2.455 . S
O2666 C2663 1.301 . S
O2667 U2646 2.449 . S
O2667 C2663 1.282 . S
H2668 C2641 0.931 . S
H2669 C2643 0.929 . S
H2670 C2644 0.930 . S
H2671 C2645 0.931 . S
H2672 C2652 0.932 . S
H2673 C2653 0.930 . S
H2674 C2654 0.929 . S
H2675 C2656 0.930 . S
H2676 C2658 0.932 . S
H2677 C2659 0.929 . S
H2678 C2660 0.928 . S
H2679 C2662 0.932 . S
C2680 C2681 1.264 . S
C2680 C2685 1.479 . S
C2680 C2690 1.465 . S
C2681 C2680 1.264 . S
C2681 C2683 1.339 . S
C2681 H2708 0.931 . S
C2682 C2683 1.395 . S
C2682 C2684 1.320 . S
C2683 C2681 1.339 . S
C2683 C2682 1.395 . S
C2683 H2709 0.929 . S
C2684 C2682 1.320 . S
C2684 C2685 1.405 . S
C2684 H2710 0.930 . S
C2685 C2680 1.479 . S
C2685 C2684 1.405 . S
C2685 H2711 0.931 . S
U2686 O2687 2.454 . S
U2686 O2688 2.458 . S
U2686 C2689 2.984 . S
U2686 C2690 2.847 . S
U2686 C2703 2.882 . S
U2686 O2704 2.441 . S
U2686 O2705 2.420 . S
U2686 O2706 2.455 . S
U2686 O2707 2.449 . S
O2687 U2686 2.454 . S
O2687 C2689 1.353 . S
O2688 U2686 2.458 . S
O2688 C2689 1.286 . S
C2689 U2686 2.984 . S
C2689 O2687 1.353 . S
C2689 O2688 1.286 . S
C2689 C2691 1.363 . S
C2690 C2680 1.465 . S
C2690 U2686 2.847 . S
C2690 O2704 1.249 . S
C2690 O2705 1.202 . S
C2691 C2689 1.363 . S
C2691 C2693 1.408 . S
C2691 C2696 1.342 . S
C2692 C2693 1.310 . S
C2692 C2695 1.461 . S
C2692 H2712 0.932 . S
C2693 C2691 1.408 . S
C2693 C2692 1.310 . S
C2693 H2713 0.930 . S
C2694 C2695 1.474 . S
C2694 C2696 1.285 . S
C2694 H2714 0.929 . S
C2695 C2692 1.461 . S
C2695 C2694 1.474 . S
C2696 C2691 1.342 . S
C2696 C2694 1.285 . S
C2696 H2715 0.930 . S
C2697 C2700 1.424 . S
C2697 C2702 1.245 . S
C2697 C2703 1.428 . S
C2698 C2701 1.260 . S
C2698 C2702 1.477 . S
C2698 H2716 0.932 . S
C2699 C2700 1.384 . S
C2699 C2701 1.479 . S
C2699 H2717 0.929 . S
C2700 C2697 1.424 . S
C2700 C2699 1.384 . S
C2700 H2718 0.928 . S
C2701 C2698 1.260 . S
C2701 C2699 1.479 . S
C2702 C2697 1.245 . S
C2702 C2698 1.477 . S
C2702 H2719 0.932 . S
C2703 U2686 2.882 . S
C2703 C2697 1.428 . S
C2703 O2706 1.301 . S
C2703 O2707 1.282 . S
O2704 U2686 2.441 . S
O2704 C2690 1.249 . S
O2705 U2686 2.420 . S
O2705 C2690 1.202 . S
O2706 U2686 2.455 . S
O2706 C2703 1.301 . S
O2707 U2686 2.449 . S
O2707 C2703 1.282 . S
H2708 C2681 0.931 . S
H2709 C2683 0.929 . S
H2710 C2684 0.930 . S
H2711 C2685 0.931 . S
H2712 C2692 0.932 . S
H2713 C2693 0.930 . S
H2714 C2694 0.929 . S
H2715 C2696 0.930 . S
H2716 C2698 0.932 . S
H2717 C2699 0.929 . S
H2718 C2700 0.928 . S
H2719 C2702 0.932 . S
C2720 C2721 1.264 . S
C2720 C2725 1.479 . S
C2720 C2730 1.465 . S
C2721 C2720 1.264 . S
C2721 C2723 1.339 . S
C2721 H2748 0.931 . S
C2722 C2723 1.395 . S
C2722 C2724 1.320 . S
C2723 C2721 1.339 . S
C2723 C2722 1.395 . S
C2723 H2749 0.929 . S
C2724 C2722 1.320 . S
C2724 C2725 1.405 . S
C2724 H2750 0.930 . S
C2725 C2720 1.479 . S
C2725 C2724 1.405 . S
C2725 H2751 0.931 . S
U2726 O2727 2.454 . S
U2726 O2728 2.458 . S
U2726 C2729 2.984 . S
U2726 C2730 2.847 . S
U2726 C2743 2.882 . S
U2726 O2744 2.441 . S
U2726 O2745 2.420 . S
U2726 O2746 2.455 . S
U2726 O2747 2.449 . S
O2727 U2726 2.454 . S
O2727 C2729 1.353 . S
O2728 U2726 2.458 . S
O2728 C2729 1.286 . S
C2729 U2726 2.984 . S
C2729 O2727 1.353 . S
C2729 O2728 1.286 . S
C2729 C2731 1.363 . S
C2730 C2720 1.465 . S
C2730 U2726 2.847 . S
C2730 O2744 1.249 . S
C2730 O2745 1.202 . S
C2731 C2729 1.363 . S
C2731 C2733 1.408 . S
C2731 C2736 1.342 . S
C2732 C2733 1.310 . S
C2732 C2735 1.461 . S
C2732 H2752 0.932 . S
C2733 C2731 1.408 . S
C2733 C2732 1.310 . S
C2733 H2753 0.930 . S
C2734 C2735 1.474 . S
C2734 C2736 1.285 . S
C2734 H2754 0.929 . S
C2735 C2732 1.461 . S
C2735 C2734 1.474 . S
C2736 C2731 1.342 . S
C2736 C2734 1.285 . S
C2736 H2755 0.930 . S
C2737 C2740 1.424 . S
C2737 C2742 1.245 . S
C2737 C2743 1.428 . S
C2738 C2741 1.260 . S
C2738 C2742 1.477 . S
C2738 H2756 0.932 . S
C2739 C2740 1.384 . S
C2739 C2741 1.479 . S
C2739 H2757 0.929 . S
C2740 C2737 1.424 . S
C2740 C2739 1.384 . S
C2740 H2758 0.928 . S
C2741 C2738 1.260 . S
C2741 C2739 1.479 . S
C2742 C2737 1.245 . S
C2742 C2738 1.477 . S
C2742 H2759 0.932 . S
C2743 U2726 2.882 . S
C2743 C2737 1.428 . S
C2743 O2746 1.301 . S
C2743 O2747 1.282 . S
O2744 U2726 2.441 . S
O2744 C2730 1.249 . S
O2745 U2726 2.420 . S
O2745 C2730 1.202 . S
O2746 U2726 2.455 . S
O2746 C2743 1.301 . S
O2747 U2726 2.449 . S
O2747 C2743 1.282 . S
H2748 C2721 0.931 . S
H2749 C2723 0.929 . S
H2750 C2724 0.930 . S
H2751 C2725 0.931 . S
H2752 C2732 0.932 . S
H2753 C2733 0.930 . S
H2754 C2734 0.929 . S
H2755 C2736 0.930 . S
H2756 C2738 0.932 . S
H2757 C2739 0.929 . S
H2758 C2740 0.928 . S
H2759 C2742 0.932 . S
C2760 C2761 1.264 . S
C2760 C2765 1.479 . S
C2760 C2770 1.465 . S
C2761 C2760 1.264 . S
C2761 C2763 1.339 . S
C2761 H2788 0.931 . S
C2762 C2763 1.395 . S
C2762 C2764 1.320 . S
C2763 C2761 1.339 . S
C2763 C2762 1.395 . S
C2763 H2789 0.929 . S
C2764 C2762 1.320 . S
C2764 C2765 1.405 . S
C2764 H2790 0.930 . S
C2765 C2760 1.479 . S
C2765 C2764 1.405 . S
C2765 H2791 0.931 . S
U2766 O2767 2.454 . S
U2766 O2768 2.458 . S
U2766 C2769 2.984 . S
U2766 C2770 2.847 . S
U2766 C2783 2.882 . S
U2766 O2784 2.441 . S
U2766 O2785 2.420 . S
U2766 O2786 2.455 . S
U2766 O2787 2.449 . S
O2767 U2766 2.454 . S
O2767 C2769 1.353 . S
O2768 U2766 2.458 . S
O2768 C2769 1.286 . S
C2769 U2766 2.984 . S
C2769 O2767 1.353 . S
C2769 O2768 1.286 . S
C2769 C2771 1.363 . S
C2770 C2760 1.465 . S
C2770 U2766 2.847 . S
C2770 O2784 1.249 . S
C2770 O2785 1.202 . S
C2771 C2769 1.363 . S
C2771 C2773 1.408 . S
C2771 C2776 1.342 . S
C2772 C2773 1.310 . S
C2772 C2775 1.461 . S
C2772 H2792 0.932 . S
C2773 C2771 1.408 . S
C2773 C2772 1.310 . S
C2773 H2793 0.930 . S
C2774 C2775 1.474 . S
C2774 C2776 1.285 . S
C2774 H2794 0.929 . S
C2775 C2772 1.461 . S
C2775 C2774 1.474 . S
C2776 C2771 1.342 . S
C2776 C2774 1.285 . S
C2776 H2795 0.930 . S
C2777 C2780 1.424 . S
C2777 C2782 1.245 . S
C2777 C2783 1.428 . S
C2778 C2781 1.260 . S
C2778 C2782 1.477 . S
C2778 H2796 0.932 . S
C2779 C2780 1.384 . S
C2779 C2781 1.479 . S
C2779 H2797 0.929 . S
C2780 C2777 1.424 . S
C2780 C2779 1.384 . S
C2780 H2798 0.928 . S
C2781 C2778 1.260 . S
C2781 C2779 1.479 . S
C2782 C2777 1.245 . S
C2782 C2778 1.477 . S
C2782 H2799 0.932 . S
C2783 U2766 2.882 . S
C2783 C2777 1.428 . S
C2783 O2786 1.301 . S
C2783 O2787 1.282 . S
O2784 U2766 2.441 . S
O2784 C2770 1.249 . S
O2785 U2766 2.420 . S
O2785 C2770 1.202 . S
O2786 U2766 2.455 . S
O2786 C2783 1.301 . S
O2787 U2766 2.449 . S
O2787 C2783 1.282 . S
H2788 C2761 0.931 . S
H2789 C2763 0.929 . S
H2790 C2764 0.930 . S
H2791 C2765 0.931 . S
H2792 C2772 0.932 . S
H2793 C2773 0.930 . S
H2794 C2774 0.929 . S
H2795 C2776 0.930 . S
H2796 C2778 0.932 . S
H2797 C2779 0.929 . S
H2798 C2780 0.928 . S
H2799 C2782 0.932 . S
C2800 C2801 1.264 . S
C2800 C2805 1.479 . S
C2800 C2810 1.465 . S
C2801 C2800 1.264 . S
C2801 C2803 1.339 . S
C2801 H2828 0.931 . S
C2802 C2803 1.395 . S
C2802 C2804 1.320 . S
C2803 C2801 1.339 . S
C2803 C2802 1.395 . S
C2803 H2829 0.929 . S
C2804 C2802 1.320 . S
C2804 C2805 1.405 . S
C2804 H2830 0.930 . S
C2805 C2800 1.479 . S
C2805 C2804 1.405 . S
C2805 H2831 0.931 . S
U2806 O2807 2.454 . S
U2806 O2808 2.458 . S
U2806 C2809 2.984 . S
U2806 C2810 2.847 . S
U2806 C2823 2.882 . S
U2806 O2824 2.441 . S
U2806 O2825 2.420 . S
U2806 O2826 2.455 . S
U2806 O2827 2.449 . S
O2807 U2806 2.454 . S
O2807 C2809 1.353 . S
O2808 U2806 2.458 . S
O2808 C2809 1.286 . S
C2809 U2806 2.984 . S
C2809 O2807 1.353 . S
C2809 O2808 1.286 . S
C2809 C2811 1.363 . S
C2810 C2800 1.465 . S
C2810 U2806 2.847 . S
C2810 O2824 1.249 . S
C2810 O2825 1.202 . S
C2811 C2809 1.363 . S
C2811 C2813 1.408 . S
C2811 C2816 1.342 . S
C2812 C2813 1.310 . S
C2812 C2815 1.461 . S
C2812 H2832 0.932 . S
C2813 C2811 1.408 . S
C2813 C2812 1.310 . S
C2813 H2833 0.930 . S
C2814 C2815 1.474 . S
C2814 C2816 1.285 . S
C2814 H2834 0.929 . S
C2815 C2812 1.461 . S
C2815 C2814 1.474 . S
C2816 C2811 1.342 . S
C2816 C2814 1.285 . S
C2816 H2835 0.930 . S
C2817 C2820 1.424 . S
C2817 C2822 1.245 . S
C2817 C2823 1.428 . S
C2818 C2821 1.260 . S
C2818 C2822 1.477 . S
C2818 H2836 0.932 . S
C2819 C2820 1.384 . S
C2819 C2821 1.479 . S
C2819 H2837 0.929 . S
C2820 C2817 1.424 . S
C2820 C2819 1.384 . S
C2820 H2838 0.928 . S
C2821 C2818 1.260 . S
C2821 C2819 1.479 . S
C2822 C2817 1.245 . S
C2822 C2818 1.477 . S
C2822 H2839 0.932 . S
C2823 U2806 2.882 . S
C2823 C2817 1.428 . S
C2823 O2826 1.301 . S
C2823 O2827 1.282 . S
O2824 U2806 2.441 . S
O2824 C2810 1.249 . S
O2825 U2806 2.420 . S
O2825 C2810 1.202 . S
O2826 U2806 2.455 . S
O2826 C2823 1.301 . S
O2827 U2806 2.449 . S
O2827 C2823 1.282 . S
H2828 C2801 0.931 . S
H2829 C2803 0.929 . S
H2830 C2804 0.930 . S
H2831 C2805 0.931 . S
H2832 C2812 0.932 . S
H2833 C2813 0.930 . S
H2834 C2814 0.929 . S
H2835 C2816 0.930 . S
H2836 C2818 0.932 . S
H2837 C2819 0.929 . S
H2838 C2820 0.928 . S
H2839 C2822 0.932 . S
C2840 C2841 1.264 . S
C2840 C2845 1.479 . S
C2840 C2850 1.465 . S
C2841 C2840 1.264 . S
C2841 C2843 1.339 . S
C2841 H2868 0.931 . S
C2842 C2843 1.395 . S
C2842 C2844 1.320 . S
C2843 C2841 1.339 . S
C2843 C2842 1.395 . S
C2843 H2869 0.929 . S
C2844 C2842 1.320 . S
C2844 C2845 1.405 . S
C2844 H2870 0.930 . S
C2845 C2840 1.479 . S
C2845 C2844 1.405 . S
C2845 H2871 0.931 . S
U2846 O2847 2.454 . S
U2846 O2848 2.458 . S
U2846 C2849 2.984 . S
U2846 C2850 2.847 . S
U2846 C2863 2.882 . S
U2846 O2864 2.441 . S
U2846 O2865 2.420 . S
U2846 O2866 2.455 . S
U2846 O2867 2.449 . S
O2847 U2846 2.454 . S
O2847 C2849 1.353 . S
O2848 U2846 2.458 . S
O2848 C2849 1.286 . S
C2849 U2846 2.984 . S
C2849 O2847 1.353 . S
C2849 O2848 1.286 . S
C2849 C2851 1.363 . S
C2850 C2840 1.465 . S
C2850 U2846 2.847 . S
C2850 O2864 1.249 . S
C2850 O2865 1.202 . S
C2851 C2849 1.363 . S
C2851 C2853 1.408 . S
C2851 C2856 1.342 . S
C2852 C2853 1.310 . S
C2852 C2855 1.461 . S
C2852 H2872 0.932 . S
C2853 C2851 1.408 . S
C2853 C2852 1.310 . S
C2853 H2873 0.930 . S
C2854 C2855 1.474 . S
C2854 C2856 1.285 . S
C2854 H2874 0.929 . S
C2855 C2852 1.461 . S
C2855 C2854 1.474 . S
C2856 C2851 1.342 . S
C2856 C2854 1.285 . S
C2856 H2875 0.930 . S
C2857 C2860 1.424 . S
C2857 C2862 1.245 . S
C2857 C2863 1.428 . S
C2858 C2861 1.260 . S
C2858 C2862 1.477 . S
C2858 H2876 0.932 . S
C2859 C2860 1.384 . S
C2859 C2861 1.479 . S
C2859 H2877 0.929 . S
C2860 C2857 1.424 . S
C2860 C2859 1.384 . S
C2860 H2878 0.928 . S
C2861 C2858 1.260 . S
C2861 C2859 1.479 . S
C2862 C2857 1.245 . S
C2862 C2858 1.477 . S
C2862 H2879 0.932 . S
C2863 U2846 2.882 . S
C2863 C2857 1.428 . S
C2863 O2866 1.301 . S
C2863 O2867 1.282 . S
O2864 U2846 2.441 . S
O2864 C2850 1.249 . S
O2865 U2846 2.420 . S
O2865 C2850 1.202 . S
O2866 U2846 2.455 . S
O2866 C2863 1.301 . S
O2867 U2846 2.449 . S
O2867 C2863 1.282 . S
H2868 C2841 0.931 . S
H2869 C2843 0.929 . S
H2870 C2844 0.930 . S
H2871 C2845 0.931 . S
H2872 C2852 0.932 . S
H2873 C2853 0.930 . S
H2874 C2854 0.929 . S
H2875 C2856 0.930 . S
H2876 C2858 0.932 . S
H2877 C2859 0.929 . S
H2878 C2860 0.928 . S
H2879 C2862 0.932 . S
C2880 C2881 1.264 . S
C2880 C2885 1.479 . S
C2880 C2890 1.465 . S
C2881 C2880 1.264 . S
C2881 C2883 1.339 . S
C2881 H2908 0.931 . S
C2882 C2883 1.395 . S
C2882 C2884 1.320 . S
C2883 C2881 1.339 . S
C2883 C2882 1.395 . S
C2883 H2909 0.929 . S
C2884 C2882 1.320 . S
C2884 C2885 1.405 . S
C2884 H2910 0.930 . S
C2885 C2880 1.479 . S
C2885 C2884 1.405 . S
C2885 H2911 0.931 . S
U2886 O2887 2.454 . S
U2886 O2888 2.458 . S
U2886 C2889 2.984 . S
U2886 C2890 2.847 . S
U2886 C2903 2.882 . S
U2886 O2904 2.441 . S
U2886 O2905 2.420 . S
U2886 O2906 2.455 . S
U2886 O2907 2.449 . S
O2887 U2886 2.454 . S
O2887 C2889 1.353 . S
O2888 U2886 2.458 . S
O2888 C2889 1.286 . S
C2889 U2886 2.984 . S
C2889 O2887 1.353 . S
C2889 O2888 1.286 . S
C2889 C2891 1.363 . S
C2890 C2880 1.465 . S
C2890 U2886 2.847 . S
C2890 O2904 1.249 . S
C2890 O2905 1.202 . S
C2891 C2889 1.363 . S
C2891 C2893 1.408 . S
C2891 C2896 1.342 . S
C2892 C2893 1.310 . S
C2892 C2895 1.461 . S
C2892 H2912 0.932 . S
C2893 C2891 1.408 . S
C2893 C2892 1.310 . S
C2893 H2913 0.930 . S
C2894 C2895 1.474 . S
C2894 C2896 1.285 . S
C2894 H2914 0.929 . S
C2895 C2892 1.461 . S
C2895 C2894 1.474 . S
C2896 C2891 1.342 . S
C2896 C2894 1.285 . S
C2896 H2915 0.930 . S
C2897 C2900 1.424 . S
C2897 C2902 1.245 . S
C2897 C2903 1.428 . S
C2898 C2901 1.260 . S
C2898 C2902 1.477 . S
C2898 H2916 0.932 . S
C2899 C2900 1.384 . S
C2899 C2901 1.479 . S
C2899 H2917 0.929 . S
C2900 C2897 1.424 . S
C2900 C2899 1.384 . S
C2900 H2918 0.928 . S
C2901 C2898 1.260 . S
C2901 C2899 1.479 . S
C2902 C2897 1.245 . S
C2902 C2898 1.477 . S
C2902 H2919 0.932 . S
C2903 U2886 2.882 . S
C2903 C2897 1.428 . S
C2903 O2906 1.301 . S
C2903 O2907 1.282 . S
O2904 U2886 2.441 . S
O2904 C2890 1.249 . S
O2905 U2886 2.420 . S
O2905 C2890 1.202 . S
O2906 U2886 2.455 . S
O2906 C2903 1.301 . S
O2907 U2886 2.449 . S
O2907 C2903 1.282 . S
H2908 C2881 0.931 . S
H2909 C2883 0.929 . S
H2910 C2884 0.930 . S
H2911 C2885 0.931 . S
H2912 C2892 0.932 . S
H2913 C2893 0.930 . S
H2914 C2894 0.929 . S
H2915 C2896 0.930 . S
H2916 C2898 0.932 . S
H2917 C2899 0.929 . S
H2918 C2900 0.928 . S
H2919 C2902 0.932 . S
C2920 C2921 1.264 . S
C2920 C2925 1.479 . S
C2920 C2930 1.465 . S
C2921 C2920 1.264 . S
C2921 C2923 1.339 . S
C2921 H2948 0.931 . S
C2922 C2923 1.395 . S
C2922 C2924 1.320 . S
C2923 C2921 1.339 . S
C2923 C2922 1.395 . S
C2923 H2949 0.929 . S
C2924 C2922 1.320 . S
C2924 C2925 1.405 . S
C2924 H2950 0.930 . S
C2925 C2920 1.479 . S
C2925 C2924 1.405 . S
C2925 H2951 0.931 . S
U2926 O2927 2.454 . S
U2926 O2928 2.458 . S
U2926 C2929 2.984 . S
U2926 C2930 2.847 . S
U2926 C2943 2.882 . S
U2926 O2944 2.441 . S
U2926 O2945 2.420 . S
U2926 O2946 2.455 . S
U2926 O2947 2.449 . S
O2927 U2926 2.454 . S
O2927 C2929 1.353 . S
O2928 U2926 2.458 . S
O2928 C2929 1.286 . S
C2929 U2926 2.984 . S
C2929 O2927 1.353 . S
C2929 O2928 1.286 . S
C2929 C2931 1.363 . S
C2930 C2920 1.465 . S
C2930 U2926 2.847 . S
C2930 O2944 1.249 . S
C2930 O2945 1.202 . S
C2931 C2929 1.363 . S
C2931 C2933 1.408 . S
C2931 C2936 1.342 . S
C2932 C2933 1.310 . S
C2932 C2935 1.461 . S
C2932 H2952 0.932 . S
C2933 C2931 1.408 . S
C2933 C2932 1.310 . S
C2933 H2953 0.930 . S
C2934 C2935 1.474 . S
C2934 C2936 1.285 . S
C2934 H2954 0.929 . S
C2935 C2932 1.461 . S
C2935 C2934 1.474 . S
C2936 C2931 1.342 . S
C2936 C2934 1.285 . S
C2936 H2955 0.930 . S
C2937 C2940 1.424 . S
C2937 C2942 1.245 . S
C2937 C2943 1.428 . S
C2938 C2941 1.260 . S
C2938 C2942 1.477 . S
C2938 H2956 0.932 . S
C2939 C2940 1.384 . S
C2939 C2941 1.479 . S
C2939 H2957 0.929 . S
C2940 C2937 1.424 . S
C2940 C2939 1.384 . S
C2940 H2958 0.928 . S
C2941 C2938 1.260 . S
C2941 C2939 1.479 . S
C2942 C2937 1.245 . S
C2942 C2938 1.477 . S
C2942 H2959 0.932 . S
C2943 U2926 2.882 . S
C2943 C2937 1.428 . S
C2943 O2946 1.301 . S
C2943 O2947 1.282 . S
O2944 U2926 2.441 . S
O2944 C2930 1.249 . S
O2945 U2926 2.420 . S
O2945 C2930 1.202 . S
O2946 U2926 2.455 . S
O2946 C2943 1.301 . S
O2947 U2926 2.449 . S
O2947 C2943 1.282 . S
H2948 C2921 0.931 . S
H2949 C2923 0.929 . S
H2950 C2924 0.930 . S
H2951 C2925 0.931 . S
H2952 C2932 0.932 . S
H2953 C2933 0.930 . S
H2954 C2934 0.929 . S
H2955 C2936 0.930 . S
H2956 C2938 0.932 . S
H2957 C2939 0.929 . S
H2958 C2940 0.928 . S
H2959 C2942 0.932 . S
C2960 C2961 1.264 . S
C2960 C2965 1.479 . S
C2960 C2970 1.465 . S
C2961 C2960 1.264 . S
C2961 C2963 1.339 . S
C2961 H2988 0.931 . S
C2962 C2963 1.395 . S
C2962 C2964 1.320 . S
C2963 C2961 1.339 . S
C2963 C2962 1.395 . S
C2963 H2989 0.929 . S
C2964 C2962 1.320 . S
C2964 C2965 1.405 . S
C2964 H2990 0.930 . S
C2965 C2960 1.479 . S
C2965 C2964 1.405 . S
C2965 H2991 0.931 . S
U2966 O2967 2.454 . S
U2966 O2968 2.458 . S
U2966 C2969 2.984 . S
U2966 C2970 2.847 . S
U2966 C2983 2.882 . S
U2966 O2984 2.441 . S
U2966 O2985 2.420 . S
U2966 O2986 2.455 . S
U2966 O2987 2.449 . S
O2967 U2966 2.454 . S
O2967 C2969 1.353 . S
O2968 U2966 2.458 . S
O2968 C2969 1.286 . S
C2969 U2966 2.984 . S
C2969 O2967 1.353 . S
C2969 O2968 1.286 . S
C2969 C2971 1.363 . S
C2970 C2960 1.465 . S
C2970 U2966 2.847 . S
C2970 O2984 1.249 . S
C2970 O2985 1.202 . S
C2971 C2969 1.363 . S
C2971 C2973 1.408 . S
C2971 C2976 1.342 . S
C2972 C2973 1.310 . S
C2972 C2975 1.461 . S
C2972 H2992 0.932 . S
C2973 C2971 1.408 . S
C2973 C2972 1.310 . S
C2973 H2993 0.930 . S
C2974 C2975 1.474 . S
C2974 C2976 1.285 . S
C2974 H2994 0.929 . S
C2975 C2972 1.461 . S
C2975 C2974 1.474 . S
C2976 C2971 1.342 . S
C2976 C2974 1.285 . S
C2976 H2995 0.930 . S
C2977 C2980 1.424 . S
C2977 C2982 1.245 . S
C2977 C2983 1.428 . S
C2978 C2981 1.260 . S
C2978 C2982 1.477 . S
C2978 H2996 0.932 . S
C2979 C2980 1.384 . S
C2979 C2981 1.479 . S
C2979 H2997 0.929 . S
C2980 C2977 1.424 . S
C2980 C2979 1.384 . S
C2980 H2998 0.928 . S
C2981 C2978 1.260 . S
C2981 C2979 1.479 . S
C2982 C2977 1.245 . S
C2982 C2978 1.477 . S
C2982 H2999 0.932 . S
C2983 U2966 2.882 . S
C2983 C2977 1.428 . S
C2983 O2986 1.301 . S
C2983 O2987 1.282 . S
O2984 U2966 2.441 . S
O2984 C2970 1.249 . S
O2985 U2966 2.420 . S
O2985 C2970 1.202 . S
O2986 U2966 2.455 . S
O2986 C2983 1.301 . S
O2987 U2966 2.449 . S
O2987 C2983 1.282 . S
H2988 C2961 0.931 . S
H2989 C2963 0.929 . S
H2990 C2964 0.930 . S
H2991 C2965 0.931 . S
H2992 C2972 0.932 . S
H2993 C2973 0.930 . S
H2994 C2974 0.929 . S
H2995 C2976 0.930 . S
H2996 C2978 0.932 . S
H2997 C2979 0.929 . S
H2998 C2980 0.928 . S
H2999 C2982 0.932 . S
C3000 C3001 1.264 . S
C3000 C3005 1.479 . S
C3000 C3010 1.465 . S
C3001 C3000 1.264 . S
C3001 C3003 1.339 . S
C3001 H3028 0.931 . S
C3002 C3003 1.395 . S
C3002 C3004 1.320 . S
C3003 C3001 1.339 . S
C3003 C3002 1.395 . S
C3003 H3029 0.929 . S
C3004 C3002 1.320 . S
C3004 C3005 1.405 . S
C3004 H3030 0.930 . S
C3005 C3000 1.479 . S
C3005 C3004 1.405 . S
C3005 H3031 0.931 . S
U3006 O3007 2.454 . S
U3006 O3008 2.458 . S
U3006 C3009 2.984 . S
U3006 C3010 2.847 . S
U3006 C3023 2.882 . S
U3006 O3024 2.441 . S
U3006 O3025 2.420 . S
U3006 O3026 2.455 . S
U3006 O3027 2.449 . S
O3007 U3006 2.454 . S
O3007 C3009 1.353 . S
O3008 U3006 2.458 . S
O3008 C3009 1.286 . S
C3009 U3006 2.984 . S
C3009 O3007 1.353 . S
C3009 O3008 1.286 . S
C3009 C3011 1.363 . S
C3010 C3000 1.465 . S
C3010 U3006 2.847 . S
C3010 O3024 1.249 . S
C3010 O3025 1.202 . S
C3011 C3009 1.363 . S
C3011 C3013 1.408 . S
C3011 C3016 1.342 . S
C3012 C3013 1.310 . S
C3012 C3015 1.461 . S
C3012 H3032 0.932 . S
C3013 C3011 1.408 . S
C3013 C3012 1.310 . S
C3013 H3033 0.930 . S
C3014 C3015 1.474 . S
C3014 C3016 1.285 . S
C3014 H3034 0.929 . S
C3015 C3012 1.461 . S
C3015 C3014 1.474 . S
C3016 C3011 1.342 . S
C3016 C3014 1.285 . S
C3016 H3035 0.930 . S
C3017 C3020 1.424 . S
C3017 C3022 1.245 . S
C3017 C3023 1.428 . S
C3018 C3021 1.260 . S
C3018 C3022 1.477 . S
C3018 H3036 0.932 . S
C3019 C3020 1.384 . S
C3019 C3021 1.479 . S
C3019 H3037 0.929 . S
C3020 C3017 1.424 . S
C3020 C3019 1.384 . S
C3020 H3038 0.928 . S
C3021 C3018 1.260 . S
C3021 C3019 1.479 . S
C3022 C3017 1.245 . S
C3022 C3018 1.477 . S
C3022 H3039 0.932 . S
C3023 U3006 2.882 . S
C3023 C3017 1.428 . S
C3023 O3026 1.301 . S
C3023 O3027 1.282 . S
O3024 U3006 2.441 . S
O3024 C3010 1.249 . S
O3025 U3006 2.420 . S
O3025 C3010 1.202 . S
O3026 U3006 2.455 . S
O3026 C3023 1.301 . S
O3027 U3006 2.449 . S
O3027 C3023 1.282 . S
H3028 C3001 0.931 . S
H3029 C3003 0.929 . S
H3030 C3004 0.930 . S
H3031 C3005 0.931 . S
H3032 C3012 0.932 . S
H3033 C3013 0.930 . S
H3034 C3014 0.929 . S
H3035 C3016 0.930 . S
H3036 C3018 0.932 . S
H3037 C3019 0.929 . S
H3038 C3020 0.928 . S
H3039 C3022 0.932 . S
C3040 C3041 1.264 . S
C3040 C3045 1.479 . S
C3040 C3050 1.465 . S
C3041 C3040 1.264 . S
C3041 C3043 1.339 . S
C3041 H3068 0.931 . S
C3042 C3043 1.395 . S
C3042 C3044 1.320 . S
C3043 C3041 1.339 . S
C3043 C3042 1.395 . S
C3043 H3069 0.929 . S
C3044 C3042 1.320 . S
C3044 C3045 1.405 . S
C3044 H3070 0.930 . S
C3045 C3040 1.479 . S
C3045 C3044 1.405 . S
C3045 H3071 0.931 . S
U3046 O3047 2.454 . S
U3046 O3048 2.458 . S
U3046 C3049 2.984 . S
U3046 C3050 2.847 . S
U3046 C3063 2.882 . S
U3046 O3064 2.441 . S
U3046 O3065 2.420 . S
U3046 O3066 2.455 . S
U3046 O3067 2.449 . S
O3047 U3046 2.454 . S
O3047 C3049 1.353 . S
O3048 U3046 2.458 . S
O3048 C3049 1.286 . S
C3049 U3046 2.984 . S
C3049 O3047 1.353 . S
C3049 O3048 1.286 . S
C3049 C3051 1.363 . S
C3050 C3040 1.465 . S
C3050 U3046 2.847 . S
C3050 O3064 1.249 . S
C3050 O3065 1.202 . S
C3051 C3049 1.363 . S
C3051 C3053 1.408 . S
C3051 C3056 1.342 . S
C3052 C3053 1.310 . S
C3052 C3055 1.461 . S
C3052 H3072 0.932 . S
C3053 C3051 1.408 . S
C3053 C3052 1.310 . S
C3053 H3073 0.930 . S
C3054 C3055 1.474 . S
C3054 C3056 1.285 . S
C3054 H3074 0.929 . S
C3055 C3052 1.461 . S
C3055 C3054 1.474 . S
C3056 C3051 1.342 . S
C3056 C3054 1.285 . S
C3056 H3075 0.930 . S
C3057 C3060 1.424 . S
C3057 C3062 1.245 . S
C3057 C3063 1.428 . S
C3058 C3061 1.260 . S
C3058 C3062 1.477 . S
C3058 H3076 0.932 . S
C3059 C3060 1.384 . S
C3059 C3061 1.479 . S
C3059 H3077 0.929 . S
C3060 C3057 1.424 . S
C3060 C3059 1.384 . S
C3060 H3078 0.928 . S
C3061 C3058 1.260 . S
C3061 C3059 1.479 . S
C3062 C3057 1.245 . S
C3062 C3058 1.477 . S
C3062 H3079 0.932 . S
C3063 U3046 2.882 . S
C3063 C3057 1.428 . S
C3063 O3066 1.301 . S
C3063 O3067 1.282 . S
O3064 U3046 2.441 . S
O3064 C3050 1.249 . S
O3065 U3046 2.420 . S
O3065 C3050 1.202 . S
O3066 U3046 2.455 . S
O3066 C3063 1.301 . S
O3067 U3046 2.449 . S
O3067 C3063 1.282 . S
H3068 C3041 0.931 . S
H3069 C3043 0.929 . S
H3070 C3044 0.930 . S
H3071 C3045 0.931 . S
H3072 C3052 0.932 . S
H3073 C3053 0.930 . S
H3074 C3054 0.929 . S
H3075 C3056 0.930 . S
H3076 C3058 0.932 . S
H3077 C3059 0.929 . S
H3078 C3060 0.928 . S
H3079 C3062 0.932 . S
C3080 C3081 1.264 . S
C3080 C3085 1.479 . S
C3080 C3090 1.465 . S
C3081 C3080 1.264 . S
C3081 C3083 1.339 . S
C3081 H3108 0.931 . S
C3082 C3083 1.395 . S
C3082 C3084 1.320 . S
C3083 C3081 1.339 . S
C3083 C3082 1.395 . S
C3083 H3109 0.929 . S
C3084 C3082 1.320 . S
C3084 C3085 1.405 . S
C3084 H3110 0.930 . S
C3085 C3080 1.479 . S
C3085 C3084 1.405 . S
C3085 H3111 0.931 . S
U3086 O3087 2.454 . S
U3086 O3088 2.458 . S
U3086 C3089 2.984 . S
U3086 C3090 2.847 . S
U3086 C3103 2.882 . S
U3086 O3104 2.441 . S
U3086 O3105 2.420 . S
U3086 O3106 2.455 . S
U3086 O3107 2.449 . S
O3087 U3086 2.454 . S
O3087 C3089 1.353 . S
O3088 U3086 2.458 . S
O3088 C3089 1.286 . S
C3089 U3086 2.984 . S
C3089 O3087 1.353 . S
C3089 O3088 1.286 . S
C3089 C3091 1.363 . S
C3090 C3080 1.465 . S
C3090 U3086 2.847 . S
C3090 O3104 1.249 . S
C3090 O3105 1.202 . S
C3091 C3089 1.363 . S
C3091 C3093 1.408 . S
C3091 C3096 1.342 . S
C3092 C3093 1.310 . S
C3092 C3095 1.461 . S
C3092 H3112 0.932 . S
C3093 C3091 1.408 . S
C3093 C3092 1.310 . S
C3093 H3113 0.930 . S
C3094 C3095 1.474 . S
C3094 C3096 1.285 . S
C3094 H3114 0.929 . S
C3095 C3092 1.461 . S
C3095 C3094 1.474 . S
C3096 C3091 1.342 . S
C3096 C3094 1.285 . S
C3096 H3115 0.930 . S
C3097 C3100 1.424 . S
C3097 C3102 1.245 . S
C3097 C3103 1.428 . S
C3098 C3101 1.260 . S
C3098 C3102 1.477 . S
C3098 H3116 0.932 . S
C3099 C3100 1.384 . S
C3099 C3101 1.479 . S
C3099 H3117 0.929 . S
C3100 C3097 1.424 . S
C3100 C3099 1.384 . S
C3100 H3118 0.928 . S
C3101 C3098 1.260 . S
C3101 C3099 1.479 . S
C3102 C3097 1.245 . S
C3102 C3098 1.477 . S
C3102 H3119 0.932 . S
C3103 U3086 2.882 . S
C3103 C3097 1.428 . S
C3103 O3106 1.301 . S
C3103 O3107 1.282 . S
O3104 U3086 2.441 . S
O3104 C3090 1.249 . S
O3105 U3086 2.420 . S
O3105 C3090 1.202 . S
O3106 U3086 2.455 . S
O3106 C3103 1.301 . S
O3107 U3086 2.449 . S
O3107 C3103 1.282 . S
H3108 C3081 0.931 . S
H3109 C3083 0.929 . S
H3110 C3084 0.930 . S
H3111 C3085 0.931 . S
H3112 C3092 0.932 . S
H3113 C3093 0.930 . S
H3114 C3094 0.929 . S
H3115 C3096 0.930 . S
H3116 C3098 0.932 . S
H3117 C3099 0.929 . S
H3118 C3100 0.928 . S
H3119 C3102 0.932 . S
C3120 C3121 1.264 . S
C3120 C3125 1.479 . S
C3120 C3130 1.465 . S
C3121 C3120 1.264 . S
C3121 C3123 1.339 . S
C3121 H3148 0.931 . S
C3122 C3123 1.395 . S
C3122 C3124 1.320 . S
C3123 C3121 1.339 . S
C3123 C3122 1.395 . S
C3123 H3149 0.929 . S
C3124 C3122 1.320 . S
C3124 C3125 1.405 . S
C3124 H3150 0.930 . S
C3125 C3120 1.479 . S
C3125 C3124 1.405 . S
C3125 H3151 0.931 . S
U3126 O3127 2.454 . S
U3126 O3128 2.458 . S
U3126 C3129 2.984 . S
U3126 C3130 2.847 . S
U3126 C3143 2.882 . S
U3126 O3144 2.441 . S
U3126 O3145 2.420 . S
U3126 O3146 2.455 . S
U3126 O3147 2.449 . S
O3127 U3126 2.454 . S
O3127 C3129 1.353 . S
O3128 U3126 2.458 . S
O3128 C3129 1.286 . S
C3129 U3126 2.984 . S
C3129 O3127 1.353 . S
C3129 O3128 1.286 . S
C3129 C3131 1.363 . S
C3130 C3120 1.465 . S
C3130 U3126 2.847 . S
C3130 O3144 1.249 . S
C3130 O3145 1.202 . S
C3131 C3129 1.363 . S
C3131 C3133 1.408 . S
C3131 C3136 1.342 . S
C3132 C3133 1.310 . S
C3132 C3135 1.461 . S
C3132 H3152 0.932 . S
C3133 C3131 1.408 . S
C3133 C3132 1.310 . S
C3133 H3153 0.930 . S
C3134 C3135 1.474 . S
C3134 C3136 1.285 . S
C3134 H3154 0.929 . S
C3135 C3132 1.461 . S
C3135 C3134 1.474 . S
C3136 C3131 1.342 . S
C3136 C3134 1.285 . S
C3136 H3155 0.930 . S
C3137 C3140 1.424 . S
C3137 C3142 1.245 . S
C3137 C3143 1.428 . S
C3138 C3141 1.260 . S
C3138 C3142 1.477 . S
C3138 H3156 0.932 . S
C3139 C3140 1.384 . S
C3139 C3141 1.479 . S
C3139 H3157 0.929 . S
C3140 C3137 1.424 . S
C3140 C3139 1.384 . S
C3140 H3158 0.928 . S
C3141 C3138 1.260 . S
C3141 C3139 1.479 . S
C3142 C3137 1.245 . S
C3142 C3138 1.477 . S
C3142 H3159 0.932 . S
C3143 U3126 2.882 . S
C3143 C3137 1.428 . S
C3143 O3146 1.301 . S
C3143 O3147 1.282 . S
O3144 U3126 2.441 . S
O3144 C3130 1.249 . S
O3145 U3126 2.420 . S
O3145 C3130 1.202 . S
O3146 U3126 2.455 . S
O3146 C3143 1.301 . S
O3147 U3126 2.449 . S
O3147 C3143 1.282 . S
H3148 C3121 0.931 . S
H3149 C3123 0.929 . S
H3150 C3124 0.930 . S
H3151 C3125 0.931 . S
H3152 C3132 0.932 . S
H3153 C3133 0.930 . S
H3154 C3134 0.929 . S
H3155 C3136 0.930 . S
H3156 C3138 0.932 . S
H3157 C3139 0.929 . S
H3158 C3140 0.928 . S
H3159 C3142 0.932 . S
C3160 C3161 1.264 . S
C3160 C3165 1.479 . S
C3160 C3170 1.465 . S
C3161 C3160 1.264 . S
C3161 C3163 1.339 . S
C3161 H3188 0.931 . S
C3162 C3163 1.395 . S
C3162 C3164 1.320 . S
C3163 C3161 1.339 . S
C3163 C3162 1.395 . S
C3163 H3189 0.929 . S
C3164 C3162 1.320 . S
C3164 C3165 1.405 . S
C3164 H3190 0.930 . S
C3165 C3160 1.479 . S
C3165 C3164 1.405 . S
C3165 H3191 0.931 . S
U3166 O3167 2.454 . S
U3166 O3168 2.458 . S
U3166 C3169 2.984 . S
U3166 C3170 2.847 . S
U3166 C3183 2.882 . S
U3166 O3184 2.441 . S
U3166 O3185 2.420 . S
U3166 O3186 2.455 . S
U3166 O3187 2.449 . S
O3167 U3166 2.454 . S
O3167 C3169 1.353 . S
O3168 U3166 2.458 . S
O3168 C3169 1.286 . S
C3169 U3166 2.984 . S
C3169 O3167 1.353 . S
C3169 O3168 1.286 . S
C3169 C3171 1.363 . S
C3170 C3160 1.465 . S
C3170 U3166 2.847 . S
C3170 O3184 1.249 . S
C3170 O3185 1.202 . S
C3171 C3169 1.363 . S
C3171 C3173 1.408 . S
C3171 C3176 1.342 . S
C3172 C3173 1.310 . S
C3172 C3175 1.461 . S
C3172 H3192 0.932 . S
C3173 C3171 1.408 . S
C3173 C3172 1.310 . S
C3173 H3193 0.930 . S
C3174 C3175 1.474 . S
C3174 C3176 1.285 . S
C3174 H3194 0.929 . S
C3175 C3172 1.461 . S
C3175 C3174 1.474 . S
C3176 C3171 1.342 . S
C3176 C3174 1.285 . S
C3176 H3195 0.930 . S
C3177 C3180 1.424 . S
C3177 C3182 1.245 . S
C3177 C3183 1.428 . S
C3178 C3181 1.260 . S
C3178 C3182 1.477 . S
C3178 H3196 0.932 . S
C3179 C3180 1.384 . S
C3179 C3181 1.479 . S
C3179 H3197 0.929 . S
C3180 C3177 1.424 . S
C3180 C3179 1.384 . S
C3180 H3198 0.928 . S
C3181 C3178 1.260 . S
C3181 C3179 1.479 . S
C3182 C3177 1.245 . S
C3182 C3178 1.477 . S
C3182 H3199 0.932 . S
C3183 U3166 2.882 . S
C3183 C3177 1.428 . S
C3183 O3186 1.301 . S
C3183 O3187 1.282 . S
O3184 U3166 2.441 . S
O3184 C3170 1.249 . S
O3185 U3166 2.420 . S
O3185 C3170 1.202 . S
O3186 U3166 2.455 . S
O3186 C3183 1.301 . S
O3187 U3166 2.449 . S
O3187 C3183 1.282 . S
H3188 C3161 0.931 . S
H3189 C3163 0.929 . S
H3190 C3164 0.930 . S
H3191 C3165 0.931 . S
H3192 C3172 0.932 . S
H3193 C3173 0.930 . S
H3194 C3174 0.929 . S
H3195 C3176 0.930 . S
H3196 C3178 0.932 . S
H3197 C3179 0.929 . S
H3198 C3180 0.928 . S
H3199 C3182 0.932 . S
C3200 C3201 1.264 . S
C3200 C3205 1.479 . S
C3200 C3210 1.465 . S
C3201 C3200 1.264 . S
C3201 C3203 1.339 . S
C3201 H3228 0.931 . S
C3202 C3203 1.395 . S
C3202 C3204 1.320 . S
C3203 C3201 1.339 . S
C3203 C3202 1.395 . S
C3203 H3229 0.929 . S
C3204 C3202 1.320 . S
C3204 C3205 1.405 . S
C3204 H3230 0.930 . S
C3205 C3200 1.479 . S
C3205 C3204 1.405 . S
C3205 H3231 0.931 . S
U3206 O3207 2.454 . S
U3206 O3208 2.458 . S
U3206 C3209 2.984 . S
U3206 C3210 2.847 . S
U3206 C3223 2.882 . S
U3206 O3224 2.441 . S
U3206 O3225 2.420 . S
U3206 O3226 2.455 . S
U3206 O3227 2.449 . S
O3207 U3206 2.454 . S
O3207 C3209 1.353 . S
O3208 U3206 2.458 . S
O3208 C3209 1.286 . S
C3209 U3206 2.984 . S
C3209 O3207 1.353 . S
C3209 O3208 1.286 . S
C3209 C3211 1.363 . S
C3210 C3200 1.465 . S
C3210 U3206 2.847 . S
C3210 O3224 1.249 . S
C3210 O3225 1.202 . S
C3211 C3209 1.363 . S
C3211 C3213 1.408 . S
C3211 C3216 1.342 . S
C3212 C3213 1.310 . S
C3212 C3215 1.461 . S
C3212 H3232 0.932 . S
C3213 C3211 1.408 . S
C3213 C3212 1.310 . S
C3213 H3233 0.930 . S
C3214 C3215 1.474 . S
C3214 C3216 1.285 . S
C3214 H3234 0.929 . S
C3215 C3212 1.461 . S
C3215 C3214 1.474 . S
C3216 C3211 1.342 . S
C3216 C3214 1.285 . S
C3216 H3235 0.930 . S
C3217 C3220 1.424 . S
C3217 C3222 1.245 . S
C3217 C3223 1.428 . S
C3218 C3221 1.260 . S
C3218 C3222 1.477 . S
C3218 H3236 0.932 . S
C3219 C3220 1.384 . S
C3219 C3221 1.479 . S
C3219 H3237 0.929 . S
C3220 C3217 1.424 . S
C3220 C3219 1.384 . S
C3220 H3238 0.928 . S
C3221 C3218 1.260 . S
C3221 C3219 1.479 . S
C3222 C3217 1.245 . S
C3222 C3218 1.477 . S
C3222 H3239 0.932 . S
C3223 U3206 2.882 . S
C3223 C3217 1.428 . S
C3223 O3226 1.301 . S
C3223 O3227 1.282 . S
O3224 U3206 2.441 . S
O3224 C3210 1.249 . S
O3225 U3206 2.420 . S
O3225 C3210 1.202 . S
O3226 U3206 2.455 . S
O3226 C3223 1.301 . S
O3227 U3206 2.449 . S
O3227 C3223 1.282 . S
H3228 C3201 0.931 . S
H3229 C3203 0.929 . S
H3230 C3204 0.930 . S
H3231 C3205 0.931 . S
H3232 C3212 0.932 . S
H3233 C3213 0.930 . S
H3234 C3214 0.929 . S
H3235 C3216 0.930 . S
H3236 C3218 0.932 . S
H3237 C3219 0.929 . S
H3238 C3220 0.928 . S
H3239 C3222 0.932 . S
C3240 C3241 1.264 . S
C3240 C3245 1.479 . S
C3240 C3250 1.465 . S
C3241 C3240 1.264 . S
C3241 C3243 1.339 . S
C3241 H3268 0.931 . S
C3242 C3243 1.395 . S
C3242 C3244 1.320 . S
C3243 C3241 1.339 . S
C3243 C3242 1.395 . S
C3243 H3269 0.929 . S
C3244 C3242 1.320 . S
C3244 C3245 1.405 . S
C3244 H3270 0.930 . S
C3245 C3240 1.479 . S
C3245 C3244 1.405 . S
C3245 H3271 0.931 . S
U3246 O3247 2.454 . S
U3246 O3248 2.458 . S
U3246 C3249 2.984 . S
U3246 C3250 2.847 . S
U3246 C3263 2.882 . S
U3246 O3264 2.441 . S
U3246 O3265 2.420 . S
U3246 O3266 2.455 . S
U3246 O3267 2.449 . S
O3247 U3246 2.454 . S
O3247 C3249 1.353 . S
O3248 U3246 2.458 . S
O3248 C3249 1.286 . S
C3249 U3246 2.984 . S
C3249 O3247 1.353 . S
C3249 O3248 1.286 . S
C3249 C3251 1.363 . S
C3250 C3240 1.465 . S
C3250 U3246 2.847 . S
C3250 O3264 1.249 . S
C3250 O3265 1.202 . S
C3251 C3249 1.363 . S
C3251 C3253 1.408 . S
C3251 C3256 1.342 . S
C3252 C3253 1.310 . S
C3252 C3255 1.461 . S
C3252 H3272 0.932 . S
C3253 C3251 1.408 . S
C3253 C3252 1.310 . S
C3253 H3273 0.930 . S
C3254 C3255 1.474 . S
C3254 C3256 1.285 . S
C3254 H3274 0.929 . S
C3255 C3252 1.461 . S
C3255 C3254 1.474 . S
C3256 C3251 1.342 . S
C3256 C3254 1.285 . S
C3256 H3275 0.930 . S
C3257 C3260 1.424 . S
C3257 C3262 1.245 . S
C3257 C3263 1.428 . S
C3258 C3261 1.260 . S
C3258 C3262 1.477 . S
C3258 H3276 0.932 . S
C3259 C3260 1.384 . S
C3259 C3261 1.479 . S
C3259 H3277 0.929 . S
C3260 C3257 1.424 . S
C3260 C3259 1.384 . S
C3260 H3278 0.928 . S
C3261 C3258 1.260 . S
C3261 C3259 1.479 . S
C3262 C3257 1.245 . S
C3262 C3258 1.477 . S
C3262 H3279 0.932 . S
C3263 U3246 2.882 . S
C3263 C3257 1.428 . S
C3263 O3266 1.301 . S
C3263 O3267 1.282 . S
O3264 U3246 2.441 . S
O3264 C3250 1.249 . S
O3265 U3246 2.420 . S
O3265 C3250 1.202 . S
O3266 U3246 2.455 . S
O3266 C3263 1.301 . S
O3267 U3246 2.449 . S
O3267 C3263 1.282 . S
H3268 C3241 0.931 . S
H3269 C3243 0.929 . S
H3270 C3244 0.930 . S
H3271 C3245 0.931 . S
H3272 C3252 0.932 . S
H3273 C3253 0.930 . S
H3274 C3254 0.929 . S
H3275 C3256 0.930 . S
H3276 C3258 0.932 . S
H3277 C3259 0.929 . S
H3278 C3260 0.928 . S
H3279 C3262 0.932 . S
C3280 C3281 1.264 . S
C3280 C3285 1.479 . S
C3280 C3290 1.465 . S
C3281 C3280 1.264 . S
C3281 C3283 1.339 . S
C3281 H3308 0.931 . S
C3282 C3283 1.395 . S
C3282 C3284 1.320 . S
C3283 C3281 1.339 . S
C3283 C3282 1.395 . S
C3283 H3309 0.929 . S
C3284 C3282 1.320 . S
C3284 C3285 1.405 . S
C3284 H3310 0.930 . S
C3285 C3280 1.479 . S
C3285 C3284 1.405 . S
C3285 H3311 0.931 . S
U3286 O3287 2.454 . S
U3286 O3288 2.458 . S
U3286 C3289 2.984 . S
U3286 C3290 2.847 . S
U3286 C3303 2.882 . S
U3286 O3304 2.441 . S
U3286 O3305 2.420 . S
U3286 O3306 2.455 . S
U3286 O3307 2.449 . S
O3287 U3286 2.454 . S
O3287 C3289 1.353 . S
O3288 U3286 2.458 . S
O3288 C3289 1.286 . S
C3289 U3286 2.984 . S
C3289 O3287 1.353 . S
C3289 O3288 1.286 . S
C3289 C3291 1.363 . S
C3290 C3280 1.465 . S
C3290 U3286 2.847 . S
C3290 O3304 1.249 . S
C3290 O3305 1.202 . S
C3291 C3289 1.363 . S
C3291 C3293 1.408 . S
C3291 C3296 1.342 . S
C3292 C3293 1.310 . S
C3292 C3295 1.461 . S
C3292 H3312 0.932 . S
C3293 C3291 1.408 . S
C3293 C3292 1.310 . S
C3293 H3313 0.930 . S
C3294 C3295 1.474 . S
C3294 C3296 1.285 . S
C3294 H3314 0.929 . S
C3295 C3292 1.461 . S
C3295 C3294 1.474 . S
C3296 C3291 1.342 . S
C3296 C3294 1.285 . S
C3296 H3315 0.930 . S
C3297 C3300 1.424 . S
C3297 C3302 1.245 . S
C3297 C3303 1.428 . S
C3298 C3301 1.260 . S
C3298 C3302 1.477 . S
C3298 H3316 0.932 . S
C3299 C3300 1.384 . S
C3299 C3301 1.479 . S
C3299 H3317 0.929 . S
C3300 C3297 1.424 . S
C3300 C3299 1.384 . S
C3300 H3318 0.928 . S
C3301 C3298 1.260 . S
C3301 C3299 1.479 . S
C3302 C3297 1.245 . S
C3302 C3298 1.477 . S
C3302 H3319 0.932 . S
C3303 U3286 2.882 . S
C3303 C3297 1.428 . S
C3303 O3306 1.301 . S
C3303 O3307 1.282 . S
O3304 U3286 2.441 . S
O3304 C3290 1.249 . S
O3305 U3286 2.420 . S
O3305 C3290 1.202 . S
O3306 U3286 2.455 . S
O3306 C3303 1.301 . S
O3307 U3286 2.449 . S
O3307 C3303 1.282 . S
H3308 C3281 0.931 . S
H3309 C3283 0.929 . S
H3310 C3284 0.930 . S
H3311 C3285 0.931 . S
H3312 C3292 0.932 . S
H3313 C3293 0.930 . S
H3314 C3294 0.929 . S
H3315 C3296 0.930 . S
H3316 C3298 0.932 . S
H3317 C3299 0.929 . S
H3318 C3300 0.928 . S
H3319 C3302 0.932 . S
C3320 C3321 1.264 . S
C3320 C3325 1.479 . S
C3320 C3330 1.465 . S
C3321 C3320 1.264 . S
C3321 C3323 1.339 . S
C3321 H3348 0.931 . S
C3322 C3323 1.395 . S
C3322 C3324 1.320 . S
C3323 C3321 1.339 . S
C3323 C3322 1.395 . S
C3323 H3349 0.929 . S
C3324 C3322 1.320 . S
C3324 C3325 1.405 . S
C3324 H3350 0.930 . S
C3325 C3320 1.479 . S
C3325 C3324 1.405 . S
C3325 H3351 0.931 . S
U3326 O3327 2.454 . S
U3326 O3328 2.458 . S
U3326 C3329 2.984 . S
U3326 C3330 2.847 . S
U3326 C3343 2.882 . S
U3326 O3344 2.441 . S
U3326 O3345 2.420 . S
U3326 O3346 2.455 . S
U3326 O3347 2.449 . S
O3327 U3326 2.454 . S
O3327 C3329 1.353 . S
O3328 U3326 2.458 . S
O3328 C3329 1.286 . S
C3329 U3326 2.984 . S
C3329 O3327 1.353 . S
C3329 O3328 1.286 . S
C3329 C3331 1.363 . S
C3330 C3320 1.465 . S
C3330 U3326 2.847 . S
C3330 O3344 1.249 . S
C3330 O3345 1.202 . S
C3331 C3329 1.363 . S
C3331 C3333 1.408 . S
C3331 C3336 1.342 . S
C3332 C3333 1.310 . S
C3332 C3335 1.461 . S
C3332 H3352 0.932 . S
C3333 C3331 1.408 . S
C3333 C3332 1.310 . S
C3333 H3353 0.930 . S
C3334 C3335 1.474 . S
C3334 C3336 1.285 . S
C3334 H3354 0.929 . S
C3335 C3332 1.461 . S
C3335 C3334 1.474 . S
C3336 C3331 1.342 . S
C3336 C3334 1.285 . S
C3336 H3355 0.930 . S
C3337 C3340 1.424 . S
C3337 C3342 1.245 . S
C3337 C3343 1.428 . S
C3338 C3341 1.260 . S
C3338 C3342 1.477 . S
C3338 H3356 0.932 . S
C3339 C3340 1.384 . S
C3339 C3341 1.479 . S
C3339 H3357 0.929 . S
C3340 C3337 1.424 . S
C3340 C3339 1.384 . S
C3340 H3358 0.928 . S
C3341 C3338 1.260 . S
C3341 C3339 1.479 . S
C3342 C3337 1.245 . S
C3342 C3338 1.477 . S
C3342 H3359 0.932 . S
C3343 U3326 2.882 . S
C3343 C3337 1.428 . S
C3343 O3346 1.301 . S
C3343 O3347 1.282 . S
O3344 U3326 2.441 . S
O3344 C3330 1.249 . S
O3345 U3326 2.420 . S
O3345 C3330 1.202 . S
O3346 U3326 2.455 . S
O3346 C3343 1.301 . S
O3347 U3326 2.449 . S
O3347 C3343 1.282 . S
H3348 C3321 0.931 . S
H3349 C3323 0.929 . S
H3350 C3324 0.930 . S
H3351 C3325 0.931 . S
H3352 C3332 0.932 . S
H3353 C3333 0.930 . S
H3354 C3334 0.929 . S
H3355 C3336 0.930 . S
H3356 C3338 0.932 . S
H3357 C3339 0.929 . S
H3358 C3340 0.928 . S
H3359 C3342 0.932 . S
C3360 C3361 1.264 . S
C3360 C3365 1.479 . S
C3360 C3370 1.465 . S
C3361 C3360 1.264 . S
C3361 C3363 1.339 . S
C3361 H3388 0.931 . S
C3362 C3363 1.395 . S
C3362 C3364 1.320 . S
C3363 C3361 1.339 . S
C3363 C3362 1.395 . S
C3363 H3389 0.929 . S
C3364 C3362 1.320 . S
C3364 C3365 1.405 . S
C3364 H3390 0.930 . S
C3365 C3360 1.479 . S
C3365 C3364 1.405 . S
C3365 H3391 0.931 . S
U3366 O3367 2.454 . S
U3366 O3368 2.458 . S
U3366 C3369 2.984 . S
U3366 C3370 2.847 . S
U3366 C3383 2.882 . S
U3366 O3384 2.441 . S
U3366 O3385 2.420 . S
U3366 O3386 2.455 . S
U3366 O3387 2.449 . S
O3367 U3366 2.454 . S
O3367 C3369 1.353 . S
O3368 U3366 2.458 . S
O3368 C3369 1.286 . S
C3369 U3366 2.984 . S
C3369 O3367 1.353 . S
C3369 O3368 1.286 . S
C3369 C3371 1.363 . S
C3370 C3360 1.465 . S
C3370 U3366 2.847 . S
C3370 O3384 1.249 . S
C3370 O3385 1.202 . S
C3371 C3369 1.363 . S
C3371 C3373 1.408 . S
C3371 C3376 1.342 . S
C3372 C3373 1.310 . S
C3372 C3375 1.461 . S
C3372 H3392 0.932 . S
C3373 C3371 1.408 . S
C3373 C3372 1.310 . S
C3373 H3393 0.930 . S
C3374 C3375 1.474 . S
C3374 C3376 1.285 . S
C3374 H3394 0.929 . S
C3375 C3372 1.461 . S
C3375 C3374 1.474 . S
C3376 C3371 1.342 . S
C3376 C3374 1.285 . S
C3376 H3395 0.930 . S
C3377 C3380 1.424 . S
C3377 C3382 1.245 . S
C3377 C3383 1.428 . S
C3378 C3381 1.260 . S
C3378 C3382 1.477 . S
C3378 H3396 0.932 . S
C3379 C3380 1.384 . S
C3379 C3381 1.479 . S
C3379 H3397 0.929 . S
C3380 C3377 1.424 . S
C3380 C3379 1.384 . S
C3380 H3398 0.928 . S
C3381 C3378 1.260 . S
C3381 C3379 1.479 . S
C3382 C3377 1.245 . S
C3382 C3378 1.477 . S
C3382 H3399 0.932 . S
C3383 U3366 2.882 . S
C3383 C3377 1.428 . S
C3383 O3386 1.301 . S
C3383 O3387 1.282 . S
O3384 U3366 2.441 . S
O3384 C3370 1.249 . S
O3385 U3366 2.420 . S
O3385 C3370 1.202 . S
O3386 U3366 2.455 . S
O3386 C3383 1.301 . S
O3387 U3366 2.449 . S
O3387 C3383 1.282 . S
H3388 C3361 0.931 . S
H3389 C3363 0.929 . S
H3390 C3364 0.930 . S
H3391 C3365 0.931 . S
H3392 C3372 0.932 . S
H3393 C3373 0.930 . S
H3394 C3374 0.929 . S
H3395 C3376 0.930 . S
H3396 C3378 0.932 . S
H3397 C3379 0.929 . S
H3398 C3380 0.928 . S
H3399 C3382 0.932 . S
C3400 C3401 1.264 . S
C3400 C3405 1.479 . S
C3400 C3410 1.465 . S
C3401 C3400 1.264 . S
C3401 C3403 1.339 . S
C3401 H3428 0.931 . S
C3402 C3403 1.395 . S
C3402 C3404 1.320 . S
C3403 C3401 1.339 . S
C3403 C3402 1.395 . S
C3403 H3429 0.929 . S
C3404 C3402 1.320 . S
C3404 C3405 1.405 . S
C3404 H3430 0.930 . S
C3405 C3400 1.479 . S
C3405 C3404 1.405 . S
C3405 H3431 0.931 . S
U3406 O3407 2.454 . S
U3406 O3408 2.458 . S
U3406 C3409 2.984 . S
U3406 C3410 2.847 . S
U3406 C3423 2.882 . S
U3406 O3424 2.441 . S
U3406 O3425 2.420 . S
U3406 O3426 2.455 . S
U3406 O3427 2.449 . S
O3407 U3406 2.454 . S
O3407 C3409 1.353 . S
O3408 U3406 2.458 . S
O3408 C3409 1.286 . S
C3409 U3406 2.984 . S
C3409 O3407 1.353 . S
C3409 O3408 1.286 . S
C3409 C3411 1.363 . S
C3410 C3400 1.465 . S
C3410 U3406 2.847 . S
C3410 O3424 1.249 . S
C3410 O3425 1.202 . S
C3411 C3409 1.363 . S
C3411 C3413 1.408 . S
C3411 C3416 1.342 . S
C3412 C3413 1.310 . S
C3412 C3415 1.461 . S
C3412 H3432 0.932 . S
C3413 C3411 1.408 . S
C3413 C3412 1.310 . S
C3413 H3433 0.930 . S
C3414 C3415 1.474 . S
C3414 C3416 1.285 . S
C3414 H3434 0.929 . S
C3415 C3412 1.461 . S
C3415 C3414 1.474 . S
C3416 C3411 1.342 . S
C3416 C3414 1.285 . S
C3416 H3435 0.930 . S
C3417 C3420 1.424 . S
C3417 C3422 1.245 . S
C3417 C3423 1.428 . S
C3418 C3421 1.260 . S
C3418 C3422 1.477 . S
C3418 H3436 0.932 . S
C3419 C3420 1.384 . S
C3419 C3421 1.479 . S
C3419 H3437 0.929 . S
C3420 C3417 1.424 . S
C3420 C3419 1.384 . S
C3420 H3438 0.928 . S
C3421 C3418 1.260 . S
C3421 C3419 1.479 . S
C3422 C3417 1.245 . S
C3422 C3418 1.477 . S
C3422 H3439 0.932 . S
C3423 U3406 2.882 . S
C3423 C3417 1.428 . S
C3423 O3426 1.301 . S
C3423 O3427 1.282 . S
O3424 U3406 2.441 . S
O3424 C3410 1.249 . S
O3425 U3406 2.420 . S
O3425 C3410 1.202 . S
O3426 U3406 2.455 . S
O3426 C3423 1.301 . S
O3427 U3406 2.449 . S
O3427 C3423 1.282 . S
H3428 C3401 0.931 . S
H3429 C3403 0.929 . S
H3430 C3404 0.930 . S
H3431 C3405 0.931 . S
H3432 C3412 0.932 . S
H3433 C3413 0.930 . S
H3434 C3414 0.929 . S
H3435 C3416 0.930 . S
H3436 C3418 0.932 . S
H3437 C3419 0.929 . S
H3438 C3420 0.928 . S
H3439 C3422 0.932 . S
C3440 C3441 1.264 . S
C3440 C3445 1.479 . S
C3440 C3450 1.465 . S
C3441 C3440 1.264 . S
C3441 C3443 1.339 . S
C3441 H3468 0.931 . S
C3442 C3443 1.395 . S
C3442 C3444 1.320 . S
C3443 C3441 1.339 . S
C3443 C3442 1.395 . S
C3443 H3469 0.929 . S
C3444 C3442 1.320 . S
C3444 C3445 1.405 . S
C3444 H3470 0.930 . S
C3445 C3440 1.479 . S
C3445 C3444 1.405 . S
C3445 H3471 0.931 . S
U3446 O3447 2.454 . S
U3446 O3448 2.458 . S
U3446 C3449 2.984 . S
U3446 C3450 2.847 . S
U3446 C3463 2.882 . S
U3446 O3464 2.441 . S
U3446 O3465 2.420 . S
U3446 O3466 2.455 . S
U3446 O3467 2.449 . S
O3447 U3446 2.454 . S
O3447 C3449 1.353 . S
O3448 U3446 2.458 . S
O3448 C3449 1.286 . S
C3449 U3446 2.984 . S
C3449 O3447 1.353 . S
C3449 O3448 1.286 . S
C3449 C3451 1.363 . S
C3450 C3440 1.465 . S
C3450 U3446 2.847 . S
C3450 O3464 1.249 . S
C3450 O3465 1.202 . S
C3451 C3449 1.363 . S
C3451 C3453 1.408 . S
C3451 C3456 1.342 . S
C3452 C3453 1.310 . S
C3452 C3455 1.461 . S
C3452 H3472 0.932 . S
C3453 C3451 1.408 . S
C3453 C3452 1.310 . S
C3453 H3473 0.930 . S
C3454 C3455 1.474 . S
C3454 C3456 1.285 . S
C3454 H3474 0.929 . S
C3455 C3452 1.461 . S
C3455 C3454 1.474 . S
C3456 C3451 1.342 . S
C3456 C3454 1.285 . S
C3456 H3475 0.930 . S
C3457 C3460 1.424 . S
C3457 C3462 1.245 . S
C3457 C3463 1.428 . S
C3458 C3461 1.260 . S
C3458 C3462 1.477 . S
C3458 H3476 0.932 . S
C3459 C3460 1.384 . S
C3459 C3461 1.479 . S
C3459 H3477 0.929 . S
C3460 C3457 1.424 . S
C3460 C3459 1.384 . S
C3460 H3478 0.928 . S
C3461 C3458 1.260 . S
C3461 C3459 1.479 . S
C3462 C3457 1.245 . S
C3462 C3458 1.477 . S
C3462 H3479 0.932 . S
C3463 U3446 2.882 . S
C3463 C3457 1.428 . S
C3463 O3466 1.301 . S
C3463 O3467 1.282 . S
O3464 U3446 2.441 . S
O3464 C3450 1.249 . S
O3465 U3446 2.420 . S
O3465 C3450 1.202 . S
O3466 U3446 2.455 . S
O3466 C3463 1.301 . S
O3467 U3446 2.449 . S
O3467 C3463 1.282 . S
H3468 C3441 0.931 . S
H3469 C3443 0.929 . S
H3470 C3444 0.930 . S
H3471 C3445 0.931 . S
H3472 C3452 0.932 . S
H3473 C3453 0.930 . S
H3474 C3454 0.929 . S
H3475 C3456 0.930 . S
H3476 C3458 0.932 . S
H3477 C3459 0.929 . S
H3478 C3460 0.928 . S
H3479 C3462 0.932 . S
C3480 C3481 1.264 . S
C3480 C3485 1.479 . S
C3480 C3490 1.465 . S
C3481 C3480 1.264 . S
C3481 C3483 1.339 . S
C3481 H3508 0.931 . S
C3482 C3483 1.395 . S
C3482 C3484 1.320 . S
C3483 C3481 1.339 . S
C3483 C3482 1.395 . S
C3483 H3509 0.929 . S
C3484 C3482 1.320 . S
C3484 C3485 1.405 . S
C3484 H3510 0.930 . S
C3485 C3480 1.479 . S
C3485 C3484 1.405 . S
C3485 H3511 0.931 . S
U3486 O3487 2.454 . S
U3486 O3488 2.458 . S
U3486 C3489 2.984 . S
U3486 C3490 2.847 . S
U3486 C3503 2.882 . S
U3486 O3504 2.441 . S
U3486 O3505 2.420 . S
U3486 O3506 2.455 . S
U3486 O3507 2.449 . S
O3487 U3486 2.454 . S
O3487 C3489 1.353 . S
O3488 U3486 2.458 . S
O3488 C3489 1.286 . S
C3489 U3486 2.984 . S
C3489 O3487 1.353 . S
C3489 O3488 1.286 . S
C3489 C3491 1.363 . S
C3490 C3480 1.465 . S
C3490 U3486 2.847 . S
C3490 O3504 1.249 . S
C3490 O3505 1.202 . S
C3491 C3489 1.363 . S
C3491 C3493 1.408 . S
C3491 C3496 1.342 . S
C3492 C3493 1.310 . S
C3492 C3495 1.461 . S
C3492 H3512 0.932 . S
C3493 C3491 1.408 . S
C3493 C3492 1.310 . S
C3493 H3513 0.930 . S
C3494 C3495 1.474 . S
C3494 C3496 1.285 . S
C3494 H3514 0.929 . S
C3495 C3492 1.461 . S
C3495 C3494 1.474 . S
C3496 C3491 1.342 . S
C3496 C3494 1.285 . S
C3496 H3515 0.930 . S
C3497 C3500 1.424 . S
C3497 C3502 1.245 . S
C3497 C3503 1.428 . S
C3498 C3501 1.260 . S
C3498 C3502 1.477 . S
C3498 H3516 0.932 . S
C3499 C3500 1.384 . S
C3499 C3501 1.479 . S
C3499 H3517 0.929 . S
C3500 C3497 1.424 . S
C3500 C3499 1.384 . S
C3500 H3518 0.928 . S
C3501 C3498 1.260 . S
C3501 C3499 1.479 . S
C3502 C3497 1.245 . S
C3502 C3498 1.477 . S
C3502 H3519 0.932 . S
C3503 U3486 2.882 . S
C3503 C3497 1.428 . S
C3503 O3506 1.301 . S
C3503 O3507 1.282 . S
O3504 U3486 2.441 . S
O3504 C3490 1.249 . S
O3505 U3486 2.420 . S
O3505 C3490 1.202 . S
O3506 U3486 2.455 . S
O3506 C3503 1.301 . S
O3507 U3486 2.449 . S
O3507 C3503 1.282 . S
H3508 C3481 0.931 . S
H3509 C3483 0.929 . S
H3510 C3484 0.930 . S
H3511 C3485 0.931 . S
H3512 C3492 0.932 . S
H3513 C3493 0.930 . S
H3514 C3494 0.929 . S
H3515 C3496 0.930 . S
H3516 C3498 0.932 . S
H3517 C3499 0.929 . S
H3518 C3500 0.928 . S
H3519 C3502 0.932 . S
C3520 C3521 1.264 . S
C3520 C3525 1.479 . S
C3520 C3530 1.465 . S
C3521 C3520 1.264 . S
C3521 C3523 1.339 . S
C3521 H3548 0.931 . S
C3522 C3523 1.395 . S
C3522 C3524 1.320 . S
C3523 C3521 1.339 . S
C3523 C3522 1.395 . S
C3523 H3549 0.929 . S
C3524 C3522 1.320 . S
C3524 C3525 1.405 . S
C3524 H3550 0.930 . S
C3525 C3520 1.479 . S
C3525 C3524 1.405 . S
C3525 H3551 0.931 . S
U3526 O3527 2.454 . S
U3526 O3528 2.458 . S
U3526 C3529 2.984 . S
U3526 C3530 2.847 . S
U3526 C3543 2.882 . S
U3526 O3544 2.441 . S
U3526 O3545 2.420 . S
U3526 O3546 2.455 . S
U3526 O3547 2.449 . S
O3527 U3526 2.454 . S
O3527 C3529 1.353 . S
O3528 U3526 2.458 . S
O3528 C3529 1.286 . S
C3529 U3526 2.984 . S
C3529 O3527 1.353 . S
C3529 O3528 1.286 . S
C3529 C3531 1.363 . S
C3530 C3520 1.465 . S
C3530 U3526 2.847 . S
C3530 O3544 1.249 . S
C3530 O3545 1.202 . S
C3531 C3529 1.363 . S
C3531 C3533 1.408 . S
C3531 C3536 1.342 . S
C3532 C3533 1.310 . S
C3532 C3535 1.461 . S
C3532 H3552 0.932 . S
C3533 C3531 1.408 . S
C3533 C3532 1.310 . S
C3533 H3553 0.930 . S
C3534 C3535 1.474 . S
C3534 C3536 1.285 . S
C3534 H3554 0.929 . S
C3535 C3532 1.461 . S
C3535 C3534 1.474 . S
C3536 C3531 1.342 . S
C3536 C3534 1.285 . S
C3536 H3555 0.930 . S
C3537 C3540 1.424 . S
C3537 C3542 1.245 . S
C3537 C3543 1.428 . S
C3538 C3541 1.260 . S
C3538 C3542 1.477 . S
C3538 H3556 0.932 . S
C3539 C3540 1.384 . S
C3539 C3541 1.479 . S
C3539 H3557 0.929 . S
C3540 C3537 1.424 . S
C3540 C3539 1.384 . S
C3540 H3558 0.928 . S
C3541 C3538 1.260 . S
C3541 C3539 1.479 . S
C3542 C3537 1.245 . S
C3542 C3538 1.477 . S
C3542 H3559 0.932 . S
C3543 U3526 2.882 . S
C3543 C3537 1.428 . S
C3543 O3546 1.301 . S
C3543 O3547 1.282 . S
O3544 U3526 2.441 . S
O3544 C3530 1.249 . S
O3545 U3526 2.420 . S
O3545 C3530 1.202 . S
O3546 U3526 2.455 . S
O3546 C3543 1.301 . S
O3547 U3526 2.449 . S
O3547 C3543 1.282 . S
H3548 C3521 0.931 . S
H3549 C3523 0.929 . S
H3550 C3524 0.930 . S
H3551 C3525 0.931 . S
H3552 C3532 0.932 . S
H3553 C3533 0.930 . S
H3554 C3534 0.929 . S
H3555 C3536 0.930 . S
H3556 C3538 0.932 . S
H3557 C3539 0.929 . S
H3558 C3540 0.928 . S
H3559 C3542 0.932 . S
C3560 C3561 1.264 . S
C3560 C3565 1.479 . S
C3560 C3570 1.465 . S
C3561 C3560 1.264 . S
C3561 C3563 1.339 . S
C3561 H3588 0.931 . S
C3562 C3563 1.395 . S
C3562 C3564 1.320 . S
C3563 C3561 1.339 . S
C3563 C3562 1.395 . S
C3563 H3589 0.929 . S
C3564 C3562 1.320 . S
C3564 C3565 1.405 . S
C3564 H3590 0.930 . S
C3565 C3560 1.479 . S
C3565 C3564 1.405 . S
C3565 H3591 0.931 . S
U3566 O3567 2.454 . S
U3566 O3568 2.458 . S
U3566 C3569 2.984 . S
U3566 C3570 2.847 . S
U3566 C3583 2.882 . S
U3566 O3584 2.441 . S
U3566 O3585 2.420 . S
U3566 O3586 2.455 . S
U3566 O3587 2.449 . S
O3567 U3566 2.454 . S
O3567 C3569 1.353 . S
O3568 U3566 2.458 . S
O3568 C3569 1.286 . S
C3569 U3566 2.984 . S
C3569 O3567 1.353 . S
C3569 O3568 1.286 . S
C3569 C3571 1.363 . S
C3570 C3560 1.465 . S
C3570 U3566 2.847 . S
C3570 O3584 1.249 . S
C3570 O3585 1.202 . S
C3571 C3569 1.363 . S
C3571 C3573 1.408 . S
C3571 C3576 1.342 . S
C3572 C3573 1.310 . S
C3572 C3575 1.461 . S
C3572 H3592 0.932 . S
C3573 C3571 1.408 . S
C3573 C3572 1.310 . S
C3573 H3593 0.930 . S
C3574 C3575 1.474 . S
C3574 C3576 1.285 . S
C3574 H3594 0.929 . S
C3575 C3572 1.461 . S
C3575 C3574 1.474 . S
C3576 C3571 1.342 . S
C3576 C3574 1.285 . S
C3576 H3595 0.930 . S
C3577 C3580 1.424 . S
C3577 C3582 1.245 . S
C3577 C3583 1.428 . S
C3578 C3581 1.260 . S
C3578 C3582 1.477 . S
C3578 H3596 0.932 . S
C3579 C3580 1.384 . S
C3579 C3581 1.479 . S
C3579 H3597 0.929 . S
C3580 C3577 1.424 . S
C3580 C3579 1.384 . S
C3580 H3598 0.928 . S
C3581 C3578 1.260 . S
C3581 C3579 1.479 . S
C3582 C3577 1.245 . S
C3582 C3578 1.477 . S
C3582 H3599 0.932 . S
C3583 U3566 2.882 . S
C3583 C3577 1.428 . S
C3583 O3586 1.301 . S
C3583 O3587 1.282 . S
O3584 U3566 2.441 . S
O3584 C3570 1.249 . S
O3585 U3566 2.420 . S
O3585 C3570 1.202 . S
O3586 U3566 2.455 . S
O3586 C3583 1.301 . S
O3587 U3566 2.449 . S
O3587 C3583 1.282 . S
H3588 C3561 0.931 . S
H3589 C3563 0.929 . S
H3590 C3564 0.930 . S
H3591 C3565 0.931 . S
H3592 C3572 0.932 . S
H3593 C3573 0.930 . S
H3594 C3574 0.929 . S
H3595 C3576 0.930 . S
H3596 C3578 0.932 . S
H3597 C3579 0.929 . S
H3598 C3580 0.928 . S
H3599 C3582 0.932 . S
C3600 C3601 1.264 . S
C3600 C3605 1.479 . S
C3600 C3610 1.465 . S
C3601 C3600 1.264 . S
C3601 C3603 1.339 . S
C3601 H3628 0.931 . S
C3602 C3603 1.395 . S
C3602 C3604 1.320 . S
C3603 C3601 1.339 . S
C3603 C3602 1.395 . S
C3603 H3629 0.929 . S
C3604 C3602 1.320 . S
C3604 C3605 1.405 . S
C3604 H3630 0.930 . S
C3605 C3600 1.479 . S
C3605 C3604 1.405 . S
C3605 H3631 0.931 . S
U3606 O3607 2.454 . S
U3606 O3608 2.458 . S
U3606 C3609 2.984 . S
U3606 C3610 2.847 . S
U3606 C3623 2.882 . S
U3606 O3624 2.441 . S
U3606 O3625 2.420 . S
U3606 O3626 2.455 . S
U3606 O3627 2.449 . S
O3607 U3606 2.454 . S
O3607 C3609 1.353 . S
O3608 U3606 2.458 . S
O3608 C3609 1.286 . S
C3609 U3606 2.984 . S
C3609 O3607 1.353 . S
C3609 O3608 1.286 . S
C3609 C3611 1.363 . S
C3610 C3600 1.465 . S
C3610 U3606 2.847 . S
C3610 O3624 1.249 . S
C3610 O3625 1.202 . S
C3611 C3609 1.363 . S
C3611 C3613 1.408 . S
C3611 C3616 1.342 . S
C3612 C3613 1.310 . S
C3612 C3615 1.461 . S
C3612 H3632 0.932 . S
C3613 C3611 1.408 . S
C3613 C3612 1.310 . S
C3613 H3633 0.930 . S
C3614 C3615 1.474 . S
C3614 C3616 1.285 . S
C3614 H3634 0.929 . S
C3615 C3612 1.461 . S
C3615 C3614 1.474 . S
C3616 C3611 1.342 . S
C3616 C3614 1.285 . S
C3616 H3635 0.930 . S
C3617 C3620 1.424 . S
C3617 C3622 1.245 . S
C3617 C3623 1.428 . S
C3618 C3621 1.260 . S
C3618 C3622 1.477 . S
C3618 H3636 0.932 . S
C3619 C3620 1.384 . S
C3619 C3621 1.479 . S
C3619 H3637 0.929 . S
C3620 C3617 1.424 . S
C3620 C3619 1.384 . S
C3620 H3638 0.928 . S
C3621 C3618 1.260 . S
C3621 C3619 1.479 . S
C3622 C3617 1.245 . S
C3622 C3618 1.477 . S
C3622 H3639 0.932 . S
C3623 U3606 2.882 . S
C3623 C3617 1.428 . S
C3623 O3626 1.301 . S
C3623 O3627 1.282 . S
O3624 U3606 2.441 . S
O3624 C3610 1.249 . S
O3625 U3606 2.420 . S
O3625 C3610 1.202 . S
O3626 U3606 2.455 . S
O3626 C3623 1.301 . S
O3627 U3606 2.449 . S
O3627 C3623 1.282 . S
H3628 C3601 0.931 . S
H3629 C3603 0.929 . S
H3630 C3604 0.930 . S
H3631 C3605 0.931 . S
H3632 C3612 0.932 . S
H3633 C3613 0.930 . S
H3634 C3614 0.929 . S
H3635 C3616 0.930 . S
H3636 C3618 0.932 . S
H3637 C3619 0.929 . S
H3638 C3620 0.928 . S
H3639 C3622 0.932 . S
C3640 C3641 1.264 . S
C3640 C3645 1.479 . S
C3640 C3650 1.465 . S
C3641 C3640 1.264 . S
C3641 C3643 1.339 . S
C3641 H3668 0.931 . S
C3642 C3643 1.395 . S
C3642 C3644 1.320 . S
C3643 C3641 1.339 . S
C3643 C3642 1.395 . S
C3643 H3669 0.929 . S
C3644 C3642 1.320 . S
C3644 C3645 1.405 . S
C3644 H3670 0.930 . S
C3645 C3640 1.479 . S
C3645 C3644 1.405 . S
C3645 H3671 0.931 . S
U3646 O3647 2.454 . S
U3646 O3648 2.458 . S
U3646 C3649 2.984 . S
U3646 C3650 2.847 . S
U3646 C3663 2.882 . S
U3646 O3664 2.441 . S
U3646 O3665 2.420 . S
U3646 O3666 2.455 . S
U3646 O3667 2.449 . S
O3647 U3646 2.454 . S
O3647 C3649 1.353 . S
O3648 U3646 2.458 . S
O3648 C3649 1.286 . S
C3649 U3646 2.984 . S
C3649 O3647 1.353 . S
C3649 O3648 1.286 . S
C3649 C3651 1.363 . S
C3650 C3640 1.465 . S
C3650 U3646 2.847 . S
C3650 O3664 1.249 . S
C3650 O3665 1.202 . S
C3651 C3649 1.363 . S
C3651 C3653 1.408 . S
C3651 C3656 1.342 . S
C3652 C3653 1.310 . S
C3652 C3655 1.461 . S
C3652 H3672 0.932 . S
C3653 C3651 1.408 . S
C3653 C3652 1.310 . S
C3653 H3673 0.930 . S
C3654 C3655 1.474 . S
C3654 C3656 1.285 . S
C3654 H3674 0.929 . S
C3655 C3652 1.461 . S
C3655 C3654 1.474 . S
C3656 C3651 1.342 . S
C3656 C3654 1.285 . S
C3656 H3675 0.930 . S
C3657 C3660 1.424 . S
C3657 C3662 1.245 . S
C3657 C3663 1.428 . S
C3658 C3661 1.260 . S
C3658 C3662 1.477 . S
C3658 H3676 0.932 . S
C3659 C3660 1.384 . S
C3659 C3661 1.479 . S
C3659 H3677 0.929 . S
C3660 C3657 1.424 . S
C3660 C3659 1.384 . S
C3660 H3678 0.928 . S
C3661 C3658 1.260 . S
C3661 C3659 1.479 . S
C3662 C3657 1.245 . S
C3662 C3658 1.477 . S
C3662 H3679 0.932 . S
C3663 U3646 2.882 . S
C3663 C3657 1.428 . S
C3663 O3666 1.301 . S
C3663 O3667 1.282 . S
O3664 U3646 2.441 . S
O3664 C3650 1.249 . S
O3665 U3646 2.420 . S
O3665 C3650 1.202 . S
O3666 U3646 2.455 . S
O3666 C3663 1.301 . S
O3667 U3646 2.449 . S
O3667 C3663 1.282 . S
H3668 C3641 0.931 . S
H3669 C3643 0.929 . S
H3670 C3644 0.930 . S
H3671 C3645 0.931 . S
H3672 C3652 0.932 . S
H3673 C3653 0.930 . S
H3674 C3654 0.929 . S
H3675 C3656 0.930 . S
H3676 C3658 0.932 . S
H3677 C3659 0.929 . S
H3678 C3660 0.928 . S
H3679 C3662 0.932 . S
C3680 C3681 1.264 . S
C3680 C3685 1.479 . S
C3680 C3690 1.465 . S
C3681 C3680 1.264 . S
C3681 C3683 1.339 . S
C3681 H3708 0.931 . S
C3682 C3683 1.395 . S
C3682 C3684 1.320 . S
C3683 C3681 1.339 . S
C3683 C3682 1.395 . S
C3683 H3709 0.929 . S
C3684 C3682 1.320 . S
C3684 C3685 1.405 . S
C3684 H3710 0.930 . S
C3685 C3680 1.479 . S
C3685 C3684 1.405 . S
C3685 H3711 0.931 . S
U3686 O3687 2.454 . S
U3686 O3688 2.458 . S
U3686 C3689 2.984 . S
U3686 C3690 2.847 . S
U3686 C3703 2.882 . S
U3686 O3704 2.441 . S
U3686 O3705 2.420 . S
U3686 O3706 2.455 . S
U3686 O3707 2.449 . S
O3687 U3686 2.454 . S
O3687 C3689 1.353 . S
O3688 U3686 2.458 . S
O3688 C3689 1.286 . S
C3689 U3686 2.984 . S
C3689 O3687 1.353 . S
C3689 O3688 1.286 . S
C3689 C3691 1.363 . S
C3690 C3680 1.465 . S
C3690 U3686 2.847 . S
C3690 O3704 1.249 . S
C3690 O3705 1.202 . S
C3691 C3689 1.363 . S
C3691 C3693 1.408 . S
C3691 C3696 1.342 . S
C3692 C3693 1.310 . S
C3692 C3695 1.461 . S
C3692 H3712 0.932 . S
C3693 C3691 1.408 . S
C3693 C3692 1.310 . S
C3693 H3713 0.930 . S
C3694 C3695 1.474 . S
C3694 C3696 1.285 . S
C3694 H3714 0.929 . S
C3695 C3692 1.461 . S
C3695 C3694 1.474 . S
C3696 C3691 1.342 . S
C3696 C3694 1.285 . S
C3696 H3715 0.930 . S
C3697 C3700 1.424 . S
C3697 C3702 1.245 . S
C3697 C3703 1.428 . S
C3698 C3701 1.260 . S
C3698 C3702 1.477 . S
C3698 H3716 0.932 . S
C3699 C3700 1.384 . S
C3699 C3701 1.479 . S
C3699 H3717 0.929 . S
C3700 C3697 1.424 . S
C3700 C3699 1.384 . S
C3700 H3718 0.928 . S
C3701 C3698 1.260 . S
C3701 C3699 1.479 . S
C3702 C3697 1.245 . S
C3702 C3698 1.477 . S
C3702 H3719 0.932 . S
C3703 U3686 2.882 . S
C3703 C3697 1.428 . S
C3703 O3706 1.301 . S
C3703 O3707 1.282 . S
O3704 U3686 2.441 . S
O3704 C3690 1.249 . S
O3705 U3686 2.420 . S
O3705 C3690 1.202 . S
O3706 U3686 2.455 . S
O3706 C3703 1.301 . S
O3707 U3686 2.449 . S
O3707 C3703 1.282 . S
H3708 C3681 0.931 . S
H3709 C3683 0.929 . S
H3710 C3684 0.930 . S
H3711 C3685 0.931 . S
H3712 C3692 0.932 . S
H3713 C3693 0.930 . S
H3714 C3694 0.929 . S
H3715 C3696 0.930 . S
H3716 C3698 0.932 . S
H3717 C3699 0.929 . S
H3718 C3700 0.928 . S
H3719 C3702 0.932 . S
C3720 C3721 1.264 . S
C3720 C3725 1.479 . S
C3720 C3730 1.465 . S
C3721 C3720 1.264 . S
C3721 C3723 1.339 . S
C3721 H3748 0.931 . S
C3722 C3723 1.395 . S
C3722 C3724 1.320 . S
C3723 C3721 1.339 . S
C3723 C3722 1.395 . S
C3723 H3749 0.929 . S
C3724 C3722 1.320 . S
C3724 C3725 1.405 . S
C3724 H3750 0.930 . S
C3725 C3720 1.479 . S
C3725 C3724 1.405 . S
C3725 H3751 0.931 . S
U3726 O3727 2.454 . S
U3726 O3728 2.458 . S
U3726 C3729 2.984 . S
U3726 C3730 2.847 . S
U3726 C3743 2.882 . S
U3726 O3744 2.441 . S
U3726 O3745 2.420 . S
U3726 O3746 2.455 . S
U3726 O3747 2.449 . S
O3727 U3726 2.454 . S
O3727 C3729 1.353 . S
O3728 U3726 2.458 . S
O3728 C3729 1.286 . S
C3729 U3726 2.984 . S
C3729 O3727 1.353 . S
C3729 O3728 1.286 . S
C3729 C3731 1.363 . S
C3730 C3720 1.465 . S
C3730 U3726 2.847 . S
C3730 O3744 1.249 . S
C3730 O3745 1.202 . S
C3731 C3729 1.363 . S
C3731 C3733 1.408 . S
C3731 C3736 1.342 . S
C3732 C3733 1.310 . S
C3732 C3735 1.461 . S
C3732 H3752 0.932 . S
C3733 C3731 1.408 . S
C3733 C3732 1.310 . S
C3733 H3753 0.930 . S
C3734 C3735 1.474 . S
C3734 C3736 1.285 . S
C3734 H3754 0.929 . S
C3735 C3732 1.461 . S
C3735 C3734 1.474 . S
C3736 C3731 1.342 . S
C3736 C3734 1.285 . S
C3736 H3755 0.930 . S
C3737 C3740 1.424 . S
C3737 C3742 1.245 . S
C3737 C3743 1.428 . S
C3738 C3741 1.260 . S
C3738 C3742 1.477 . S
C3738 H3756 0.932 . S
C3739 C3740 1.384 . S
C3739 C3741 1.479 . S
C3739 H3757 0.929 . S
C3740 C3737 1.424 . S
C3740 C3739 1.384 . S
C3740 H3758 0.928 . S
C3741 C3738 1.260 . S
C3741 C3739 1.479 . S
C3742 C3737 1.245 . S
C3742 C3738 1.477 . S
C3742 H3759 0.932 . S
C3743 U3726 2.882 . S
C3743 C3737 1.428 . S
C3743 O3746 1.301 . S
C3743 O3747 1.282 . S
O3744 U3726 2.441 . S
O3744 C3730 1.249 . S
O3745 U3726 2.420 . S
O3745 C3730 1.202 . S
O3746 U3726 2.455 . S
O3746 C3743 1.301 . S
O3747 U3726 2.449 . S
O3747 C3743 1.282 . S
H3748 C3721 0.931 . S
H3749 C3723 0.929 . S
H3750 C3724 0.930 . S
H3751 C3725 0.931 . S
H3752 C3732 0.932 . S
H3753 C3733 0.930 . S
H3754 C3734 0.929 . S
H3755 C3736 0.930 . S
H3756 C3738 0.932 . S
H3757 C3739 0.929 . S
H3758 C3740 0.928 . S
H3759 C3742 0.932 . S
C3760 C3761 1.264 . S
C3760 C3765 1.479 . S
C3760 C3770 1.465 . S
C3761 C3760 1.264 . S
C3761 C3763 1.339 . S
C3761 H3788 0.931 . S
C3762 C3763 1.395 . S
C3762 C3764 1.320 . S
C3763 C3761 1.339 . S
C3763 C3762 1.395 . S
C3763 H3789 0.929 . S
C3764 C3762 1.320 . S
C3764 C3765 1.405 . S
C3764 H3790 0.930 . S
C3765 C3760 1.479 . S
C3765 C3764 1.405 . S
C3765 H3791 0.931 . S
U3766 O3767 2.454 . S
U3766 O3768 2.458 . S
U3766 C3769 2.984 . S
U3766 C3770 2.847 . S
U3766 C3783 2.882 . S
U3766 O3784 2.441 . S
U3766 O3785 2.420 . S
U3766 O3786 2.455 . S
U3766 O3787 2.449 . S
O3767 U3766 2.454 . S
O3767 C3769 1.353 . S
O3768 U3766 2.458 . S
O3768 C3769 1.286 . S
C3769 U3766 2.984 . S
C3769 O3767 1.353 . S
C3769 O3768 1.286 . S
C3769 C3771 1.363 . S
C3770 C3760 1.465 . S
C3770 U3766 2.847 . S
C3770 O3784 1.249 . S
C3770 O3785 1.202 . S
C3771 C3769 1.363 . S
C3771 C3773 1.408 . S
C3771 C3776 1.342 . S
C3772 C3773 1.310 . S
C3772 C3775 1.461 . S
C3772 H3792 0.932 . S
C3773 C3771 1.408 . S
C3773 C3772 1.310 . S
C3773 H3793 0.930 . S
C3774 C3775 1.474 . S
C3774 C3776 1.285 . S
C3774 H3794 0.929 . S
C3775 C3772 1.461 . S
C3775 C3774 1.474 . S
C3776 C3771 1.342 . S
C3776 C3774 1.285 . S
C3776 H3795 0.930 . S
C3777 C3780 1.424 . S
C3777 C3782 1.245 . S
C3777 C3783 1.428 . S
C3778 C3781 1.260 . S
C3778 C3782 1.477 . S
C3778 H3796 0.932 . S
C3779 C3780 1.384 . S
C3779 C3781 1.479 . S
C3779 H3797 0.929 . S
C3780 C3777 1.424 . S
C3780 C3779 1.384 . S
C3780 H3798 0.928 . S
C3781 C3778 1.260 . S
C3781 C3779 1.479 . S
C3782 C3777 1.245 . S
C3782 C3778 1.477 . S
C3782 H3799 0.932 . S
C3783 U3766 2.882 . S
C3783 C3777 1.428 . S
C3783 O3786 1.301 . S
C3783 O3787 1.282 . S
O3784 U3766 2.441 . S
O3784 C3770 1.249 . S
O3785 U3766 2.420 . S
O3785 C3770 1.202 . S
O3786 U3766 2.455 . S
O3786 C3783 1.301 . S
O3787 U3766 2.449 . S
O3787 C3783 1.282 . S
H3788 C3761 0.931 . S
H3789 C3763 0.929 . S
H3790 C3764 0.930 . S
H3791 C3765 0.931 . S
H3792 C3772 0.932 . S
H3793 C3773 0.930 . S
H3794 C3774 0.929 . S
H3795 C3776 0.930 . S
H3796 C3778 0.932 . S
H3797 C3779 0.929 . S
H3798 C3780 0.928 . S
H3799 C3782 0.932 . S
C3800 C3801 1.264 . S
C3800 C3805 1.479 . S
C3800 C3810 1.465 . S
C3801 C3800 1.264 . S
C3801 C3803 1.339 . S
C3801 H3828 0.931 . S
C3802 C3803 1.395 . S
C3802 C3804 1.320 . S
C3803 C3801 1.339 . S
C3803 C3802 1.395 . S
C3803 H3829 0.929 . S
C3804 C3802 1.320 . S
C3804 C3805 1.405 . S
C3804 H3830 0.930 . S
C3805 C3800 1.479 . S
C3805 C3804 1.405 . S
C3805 H3831 0.931 . S
U3806 O3807 2.454 . S
U3806 O3808 2.458 . S
U3806 C3809 2.984 . S
U3806 C3810 2.847 . S
U3806 C3823 2.882 . S
U3806 O3824 2.441 . S
U3806 O3825 2.420 . S
U3806 O3826 2.455 . S
U3806 O3827 2.449 . S
O3807 U3806 2.454 . S
O3807 C3809 1.353 . S
O3808 U3806 2.458 . S
O3808 C3809 1.286 . S
C3809 U3806 2.984 . S
C3809 O3807 1.353 . S
C3809 O3808 1.286 . S
C3809 C3811 1.363 . S
C3810 C3800 1.465 . S
C3810 U3806 2.847 . S
C3810 O3824 1.249 . S
C3810 O3825 1.202 . S
C3811 C3809 1.363 . S
C3811 C3813 1.408 . S
C3811 C3816 1.342 . S
C3812 C3813 1.310 . S
C3812 C3815 1.461 . S
C3812 H3832 0.932 . S
C3813 C3811 1.408 . S
C3813 C3812 1.310 . S
C3813 H3833 0.930 . S
C3814 C3815 1.474 . S
C3814 C3816 1.285 . S
C3814 H3834 0.929 . S
C3815 C3812 1.461 . S
C3815 C3814 1.474 . S
C3816 C3811 1.342 . S
C3816 C3814 1.285 . S
C3816 H3835 0.930 . S
C3817 C3820 1.424 . S
C3817 C3822 1.245 . S
C3817 C3823 1.428 . S
C3818 C3821 1.260 . S
C3818 C3822 1.477 . S
C3818 H3836 0.932 . S
C3819 C3820 1.384 . S
C3819 C3821 1.479 . S
C3819 H3837 0.929 . S
C3820 C3817 1.424 . S
C3820 C3819 1.384 . S
C3820 H3838 0.928 . S
C3821 C3818 1.260 . S
C3821 C3819 1.479 . S
C3822 C3817 1.245 . S
C3822 C3818 1.477 . S
C3822 H3839 0.932 . S
C3823 U3806 2.882 . S
C3823 C3817 1.428 . S
C3823 O3826 1.301 . S
C3823 O3827 1.282 . S
O3824 U3806 2.441 . S
O3824 C3810 1.249 . S
O3825 U3806 2.420 . S
O3825 C3810 1.202 . S
O3826 U3806 2.455 . S
O3826 C3823 1.301 . S
O3827 U3806 2.449 . S
O3827 C3823 1.282 . S
H3828 C3801 0.931 . S
H3829 C3803 0.929 . S
H3830 C3804 0.930 . S
H3831 C3805 0.931 . S
H3832 C3812 0.932 . S
H3833 C3813 0.930 . S
H3834 C3814 0.929 . S
H3835 C3816 0.930 . S
H3836 C3818 0.932 . S
H3837 C3819 0.929 . S
H3838 C3820 0.928 . S
H3839 C3822 0.932 . S
H3840 C3845 0.930 . S
H3841 C3848 0.930 . S
H3842 C3850 0.930 . S
H3843 C3844 1.016 . S
C3844 H3843 1.016 . S
C3844 N3851 1.286 . S
C3845 H3840 0.930 . S
C3845 C3846 1.397 . S
C3845 C3847 1.361 . S
C3846 C3845 1.397 . S
C3846 C3850 1.390 . S
C3847 C3845 1.361 . S
C3847 C3848 1.393 . S
C3847 N3851 1.413 . S
C3848 H3841 0.930 . S
C3848 C3847 1.393 . S
C3848 C3849 1.399 . S
C3849 C3848 1.399 . S
C3849 C3850 1.381 . S
C3850 H3842 0.930 . S
C3850 C3846 1.390 . S
C3850 C3849 1.381 . S
N3851 C3844 1.286 . S
N3851 C3847 1.413 . S
H3852 C3857 0.930 . S
H3853 C3860 0.930 . S
H3854 C3862 0.930 . S
H3855 C3856 1.016 . S
C3856 H3855 1.016 . S
C3856 N3863 1.286 . S
C3857 H3852 0.930 . S
C3857 C3858 1.397 . S
C3857 C3859 1.361 . S
C3858 C3857 1.397 . S
C3858 C3862 1.390 . S
C3859 C3857 1.361 . S
C3859 C3860 1.393 . S
C3859 N3863 1.413 . S
C3860 H3853 0.930 . S
C3860 C3859 1.393 . S
C3860 C3861 1.399 . S
C3861 C3860 1.399 . S
C3861 C3862 1.381 . S
C3862 H3854 0.930 . S
C3862 C3858 1.390 . S
C3862 C3861 1.381 . S
N3863 C3856 1.286 . S
N3863 C3859 1.413 . S
H3864 C3869 0.930 . S
H3865 C3872 0.930 . S
H3866 C3874 0.930 . S
H3867 C3868 1.016 . S
C3868 H3867 1.016 . S
C3868 N3875 1.286 . S
C3869 H3864 0.930 . S
C3869 C3870 1.397 . S
C3869 C3871 1.361 . S
C3870 C3869 1.397 . S
C3870 C3874 1.390 . S
C3871 C3869 1.361 . S
C3871 C3872 1.393 . S
C3871 N3875 1.413 . S
C3872 H3865 0.930 . S
C3872 C3871 1.393 . S
C3872 C3873 1.399 . S
C3873 C3872 1.399 . S
C3873 C3874 1.381 . S
C3874 H3866 0.930 . S
C3874 C3870 1.390 . S
C3874 C3873 1.381 . S
N3875 C3868 1.286 . S
N3875 C3871 1.413 . S
H3876 C3881 0.930 . S
H3877 C3884 0.930 . S
H3878 C3886 0.930 . S
H3879 C3880 1.016 . S
C3880 H3879 1.016 . S
C3880 N3887 1.286 . S
C3881 H3876 0.930 . S
C3881 C3882 1.397 . S
C3881 C3883 1.361 . S
C3882 C3881 1.397 . S
C3882 C3886 1.390 . S
C3883 C3881 1.361 . S
C3883 C3884 1.393 . S
C3883 N3887 1.413 . S
C3884 H3877 0.930 . S
C3884 C3883 1.393 . S
C3884 C3885 1.399 . S
C3885 C3884 1.399 . S
C3885 C3886 1.381 . S
C3886 H3878 0.930 . S
C3886 C3882 1.390 . S
C3886 C3885 1.381 . S
N3887 C3880 1.286 . S
N3887 C3883 1.413 . S
H3888 C3893 0.930 . S
H3889 C3896 0.930 . S
H3890 C3898 0.930 . S
H3891 C3892 1.016 . S
C3892 H3891 1.016 . S
C3892 N3899 1.286 . S
C3893 H3888 0.930 . S
C3893 C3894 1.397 . S
C3893 C3895 1.361 . S
C3894 C3893 1.397 . S
C3894 C3898 1.390 . S
C3895 C3893 1.361 . S
C3895 C3896 1.393 . S
C3895 N3899 1.413 . S
C3896 H3889 0.930 . S
C3896 C3895 1.393 . S
C3896 C3897 1.399 . S
C3897 C3896 1.399 . S
C3897 C3898 1.381 . S
C3898 H3890 0.930 . S
C3898 C3894 1.390 . S
C3898 C3897 1.381 . S
N3899 C3892 1.286 . S
N3899 C3895 1.413 . S
H3900 C3905 0.930 . S
H3901 C3908 0.930 . S
H3902 C3910 0.930 . S
H3903 C3904 1.016 . S
C3904 H3903 1.016 . S
C3904 N3911 1.286 . S
C3905 H3900 0.930 . S
C3905 C3906 1.397 . S
C3905 C3907 1.361 . S
C3906 C3905 1.397 . S
C3906 C3910 1.390 . S
C3907 C3905 1.361 . S
C3907 C3908 1.393 . S
C3907 N3911 1.413 . S
C3908 H3901 0.930 . S
C3908 C3907 1.393 . S
C3908 C3909 1.399 . S
C3909 C3908 1.399 . S
C3909 C3910 1.381 . S
C3910 H3902 0.930 . S
C3910 C3906 1.390 . S
C3910 C3909 1.381 . S
N3911 C3904 1.286 . S
N3911 C3907 1.413 . S
H3912 C3917 0.930 . S
H3913 C3920 0.930 . S
H3914 C3922 0.930 . S
H3915 C3916 1.016 . S
C3916 H3915 1.016 . S
C3916 N3923 1.286 . S
C3917 H3912 0.930 . S
C3917 C3918 1.397 . S
C3917 C3919 1.361 . S
C3918 C3917 1.397 . S
C3918 C3922 1.390 . S
C3919 C3917 1.361 . S
C3919 C3920 1.393 . S
C3919 N3923 1.413 . S
C3920 H3913 0.930 . S
C3920 C3919 1.393 . S
C3920 C3921 1.399 . S
C3921 C3920 1.399 . S
C3921 C3922 1.381 . S
C3922 H3914 0.930 . S
C3922 C3918 1.390 . S
C3922 C3921 1.381 . S
N3923 C3916 1.286 . S
N3923 C3919 1.413 . S
H3924 C3929 0.930 . S
H3925 C3932 0.930 . S
H3926 C3934 0.930 . S
H3927 C3928 1.016 . S
C3928 H3927 1.016 . S
C3928 N3935 1.286 . S
C3929 H3924 0.930 . S
C3929 C3930 1.397 . S
C3929 C3931 1.361 . S
C3930 C3929 1.397 . S
C3930 C3934 1.390 . S
C3931 C3929 1.361 . S
C3931 C3932 1.393 . S
C3931 N3935 1.413 . S
C3932 H3925 0.930 . S
C3932 C3931 1.393 . S
C3932 C3933 1.399 . S
C3933 C3932 1.399 . S
C3933 C3934 1.381 . S
C3934 H3926 0.930 . S
C3934 C3930 1.390 . S
C3934 C3933 1.381 . S
N3935 C3928 1.286 . S
N3935 C3931 1.413 . S
H3936 C3941 0.930 . S
H3937 C3944 0.930 . S
H3938 C3946 0.930 . S
H3939 C3940 1.016 . S
C3940 H3939 1.016 . S
C3940 N3947 1.286 . S
C3941 H3936 0.930 . S
C3941 C3942 1.397 . S
C3941 C3943 1.361 . S
C3942 C3941 1.397 . S
C3942 C3946 1.390 . S
C3943 C3941 1.361 . S
C3943 C3944 1.393 . S
C3943 N3947 1.413 . S
C3944 H3937 0.930 . S
C3944 C3943 1.393 . S
C3944 C3945 1.399 . S
C3945 C3944 1.399 . S
C3945 C3946 1.381 . S
C3946 H3938 0.930 . S
C3946 C3942 1.390 . S
C3946 C3945 1.381 . S
N3947 C3940 1.286 . S
N3947 C3943 1.413 . S
H3948 C3953 0.930 . S
H3949 C3956 0.930 . S
H3950 C3958 0.930 . S
H3951 C3952 1.016 . S
C3952 H3951 1.016 . S
C3952 N3959 1.286 . S
C3953 H3948 0.930 . S
C3953 C3954 1.397 . S
C3953 C3955 1.361 . S
C3954 C3953 1.397 . S
C3954 C3958 1.390 . S
C3955 C3953 1.361 . S
C3955 C3956 1.393 . S
C3955 N3959 1.413 . S
C3956 H3949 0.930 . S
C3956 C3955 1.393 . S
C3956 C3957 1.399 . S
C3957 C3956 1.399 . S
C3957 C3958 1.381 . S
C3958 H3950 0.930 . S
C3958 C3954 1.390 . S
C3958 C3957 1.381 . S
N3959 C3952 1.286 . S
N3959 C3955 1.413 . S
H3960 C3965 0.930 . S
H3961 C3968 0.930 . S
H3962 C3970 0.930 . S
H3963 C3964 1.016 . S
C3964 H3963 1.016 . S
C3964 N3971 1.286 . S
C3965 H3960 0.930 . S
C3965 C3966 1.397 . S
C3965 C3967 1.361 . S
C3966 C3965 1.397 . S
C3966 C3970 1.390 . S
C3967 C3965 1.361 . S
C3967 C3968 1.393 . S
C3967 N3971 1.413 . S
C3968 H3961 0.930 . S
C3968 C3967 1.393 . S
C3968 C3969 1.399 . S
C3969 C3968 1.399 . S
C3969 C3970 1.381 . S
C3970 H3962 0.930 . S
C3970 C3966 1.390 . S
C3970 C3969 1.381 . S
N3971 C3964 1.286 . S
N3971 C3967 1.413 . S
H3972 C3977 0.930 . S
H3973 C3980 0.930 . S
H3974 C3982 0.930 . S
H3975 C3976 1.016 . S
C3976 H3975 1.016 . S
C3976 N3983 1.286 . S
C3977 H3972 0.930 . S
C3977 C3978 1.397 . S
C3977 C3979 1.361 . S
C3978 C3977 1.397 . S
C3978 C3982 1.390 . S
C3979 C3977 1.361 . S
C3979 C3980 1.393 . S
C3979 N3983 1.413 . S
C3980 H3973 0.930 . S
C3980 C3979 1.393 . S
C3980 C3981 1.399 . S
C3981 C3980 1.399 . S
C3981 C3982 1.381 . S
C3982 H3974 0.930 . S
C3982 C3978 1.390 . S
C3982 C3981 1.381 . S
N3983 C3976 1.286 . S
N3983 C3979 1.413 . S
H3984 C3989 0.930 . S
H3985 C3992 0.930 . S
H3986 C3994 0.930 . S
H3987 C3988 1.016 . S
C3988 H3987 1.016 . S
C3988 N3995 1.286 . S
C3989 H3984 0.930 . S
C3989 C3990 1.397 . S
C3989 C3991 1.361 . S
C3990 C3989 1.397 . S
C3990 C3994 1.390 . S
C3991 C3989 1.361 . S
C3991 C3992 1.393 . S
C3991 N3995 1.413 . S
C3992 H3985 0.930 . S
C3992 C3991 1.393 . S
C3992 C3993 1.399 . S
C3993 C3992 1.399 . S
C3993 C3994 1.381 . S
C3994 H3986 0.930 . S
C3994 C3990 1.390 . S
C3994 C3993 1.381 . S
N3995 C3988 1.286 . S
N3995 C3991 1.413 . S
H3996 C4001 0.930 . S
H3997 C4004 0.930 . S
H3998 C4006 0.930 . S
H3999 C4000 1.016 . S
C4000 H3999 1.016 . S
C4000 N4007 1.286 . S
C4001 H3996 0.930 . S
C4001 C4002 1.397 . S
C4001 C4003 1.361 . S
C4002 C4001 1.397 . S
C4002 C4006 1.390 . S
C4003 C4001 1.361 . S
C4003 C4004 1.393 . S
C4003 N4007 1.413 . S
C4004 H3997 0.930 . S
C4004 C4003 1.393 . S
C4004 C4005 1.399 . S
C4005 C4004 1.399 . S
C4005 C4006 1.381 . S
C4006 H3998 0.930 . S
C4006 C4002 1.390 . S
C4006 C4005 1.381 . S
N4007 C4000 1.286 . S
N4007 C4003 1.413 . S
H4008 C4013 0.930 . S
H4009 C4016 0.930 . S
H4010 C4018 0.930 . S
H4011 C4012 1.016 . S
C4012 H4011 1.016 . S
C4012 N4019 1.286 . S
C4013 H4008 0.930 . S
C4013 C4014 1.397 . S
C4013 C4015 1.361 . S
C4014 C4013 1.397 . S
C4014 C4018 1.390 . S
C4015 C4013 1.361 . S
C4015 C4016 1.393 . S
C4015 N4019 1.413 . S
C4016 H4009 0.930 . S
C4016 C4015 1.393 . S
C4016 C4017 1.399 . S
C4017 C4016 1.399 . S
C4017 C4018 1.381 . S
C4018 H4010 0.930 . S
C4018 C4014 1.390 . S
C4018 C4017 1.381 . S
N4019 C4012 1.286 . S
N4019 C4015 1.413 . S
H4020 C4025 0.930 . S
H4021 C4028 0.930 . S
H4022 C4030 0.930 . S
H4023 C4024 1.016 . S
C4024 H4023 1.016 . S
C4024 N4031 1.286 . S
C4025 H4020 0.930 . S
C4025 C4026 1.397 . S
C4025 C4027 1.361 . S
C4026 C4025 1.397 . S
C4026 C4030 1.390 . S
C4027 C4025 1.361 . S
C4027 C4028 1.393 . S
C4027 N4031 1.413 . S
C4028 H4021 0.930 . S
C4028 C4027 1.393 . S
C4028 C4029 1.399 . S
C4029 C4028 1.399 . S
C4029 C4030 1.381 . S
C4030 H4022 0.930 . S
C4030 C4026 1.390 . S
C4030 C4029 1.381 . S
N4031 C4024 1.286 . S
N4031 C4027 1.413 . S
H4032 C4037 0.930 . S
H4033 C4040 0.930 . S
H4034 C4042 0.930 . S
H4035 C4036 1.016 . S
C4036 H4035 1.016 . S
C4036 N4043 1.286 . S
C4037 H4032 0.930 . S
C4037 C4038 1.397 . S
C4037 C4039 1.361 . S
C4038 C4037 1.397 . S
C4038 C4042 1.390 . S
C4039 C4037 1.361 . S
C4039 C4040 1.393 . S
C4039 N4043 1.413 . S
C4040 H4033 0.930 . S
C4040 C4039 1.393 . S
C4040 C4041 1.399 . S
C4041 C4040 1.399 . S
C4041 C4042 1.381 . S
C4042 H4034 0.930 . S
C4042 C4038 1.390 . S
C4042 C4041 1.381 . S
N4043 C4036 1.286 . S
N4043 C4039 1.413 . S
H4044 C4049 0.930 . S
H4045 C4052 0.930 . S
H4046 C4054 0.930 . S
H4047 C4048 1.016 . S
C4048 H4047 1.016 . S
C4048 N4055 1.286 . S
C4049 H4044 0.930 . S
C4049 C4050 1.397 . S
C4049 C4051 1.361 . S
C4050 C4049 1.397 . S
C4050 C4054 1.390 . S
C4051 C4049 1.361 . S
C4051 C4052 1.393 . S
C4051 N4055 1.413 . S
C4052 H4045 0.930 . S
C4052 C4051 1.393 . S
C4052 C4053 1.399 . S
C4053 C4052 1.399 . S
C4053 C4054 1.381 . S
C4054 H4046 0.930 . S
C4054 C4050 1.390 . S
C4054 C4053 1.381 . S
N4055 C4048 1.286 . S
N4055 C4051 1.413 . S
H4056 C4061 0.930 . S
H4057 C4064 0.930 . S
H4058 C4066 0.930 . S
H4059 C4060 1.016 . S
C4060 H4059 1.016 . S
C4060 N4067 1.286 . S
C4061 H4056 0.930 . S
C4061 C4062 1.397 . S
C4061 C4063 1.361 . S
C4062 C4061 1.397 . S
C4062 C4066 1.390 . S
C4063 C4061 1.361 . S
C4063 C4064 1.393 . S
C4063 N4067 1.413 . S
C4064 H4057 0.930 . S
C4064 C4063 1.393 . S
C4064 C4065 1.399 . S
C4065 C4064 1.399 . S
C4065 C4066 1.381 . S
C4066 H4058 0.930 . S
C4066 C4062 1.390 . S
C4066 C4065 1.381 . S
N4067 C4060 1.286 . S
N4067 C4063 1.413 . S
H4068 C4073 0.930 . S
H4069 C4076 0.930 . S
H4070 C4078 0.930 . S
H4071 C4072 1.016 . S
C4072 H4071 1.016 . S
C4072 N4079 1.286 . S
C4073 H4068 0.930 . S
C4073 C4074 1.397 . S
C4073 C4075 1.361 . S
C4074 C4073 1.397 . S
C4074 C4078 1.390 . S
C4075 C4073 1.361 . S
C4075 C4076 1.393 . S
C4075 N4079 1.413 . S
C4076 H4069 0.930 . S
C4076 C4075 1.393 . S
C4076 C4077 1.399 . S
C4077 C4076 1.399 . S
C4077 C4078 1.381 . S
C4078 H4070 0.930 . S
C4078 C4074 1.390 . S
C4078 C4077 1.381 . S
N4079 C4072 1.286 . S
N4079 C4075 1.413 . S
H4080 C4085 0.930 . S
H4081 C4088 0.930 . S
H4082 C4090 0.930 . S
H4083 C4084 1.016 . S
C4084 H4083 1.016 . S
C4084 N4091 1.286 . S
C4085 H4080 0.930 . S
C4085 C4086 1.397 . S
C4085 C4087 1.361 . S
C4086 C4085 1.397 . S
C4086 C4090 1.390 . S
C4087 C4085 1.361 . S
C4087 C4088 1.393 . S
C4087 N4091 1.413 . S
C4088 H4081 0.930 . S
C4088 C4087 1.393 . S
C4088 C4089 1.399 . S
C4089 C4088 1.399 . S
C4089 C4090 1.381 . S
C4090 H4082 0.930 . S
C4090 C4086 1.390 . S
C4090 C4089 1.381 . S
N4091 C4084 1.286 . S
N4091 C4087 1.413 . S
H4092 C4097 0.930 . S
H4093 C4100 0.930 . S
H4094 C4102 0.930 . S
H4095 C4096 1.016 . S
C4096 H4095 1.016 . S
C4096 N4103 1.286 . S
C4097 H4092 0.930 . S
C4097 C4098 1.397 . S
C4097 C4099 1.361 . S
C4098 C4097 1.397 . S
C4098 C4102 1.390 . S
C4099 C4097 1.361 . S
C4099 C4100 1.393 . S
C4099 N4103 1.413 . S
C4100 H4093 0.930 . S
C4100 C4099 1.393 . S
C4100 C4101 1.399 . S
C4101 C4100 1.399 . S
C4101 C4102 1.381 . S
C4102 H4094 0.930 . S
C4102 C4098 1.390 . S
C4102 C4101 1.381 . S
N4103 C4096 1.286 . S
N4103 C4099 1.413 . S
H4104 C4109 0.930 . S
H4105 C4112 0.930 . S
H4106 C4114 0.930 . S
H4107 C4108 1.016 . S
C4108 H4107 1.016 . S
C4108 N4115 1.286 . S
C4109 H4104 0.930 . S
C4109 C4110 1.397 . S
C4109 C4111 1.361 . S
C4110 C4109 1.397 . S
C4110 C4114 1.390 . S
C4111 C4109 1.361 . S
C4111 C4112 1.393 . S
C4111 N4115 1.413 . S
C4112 H4105 0.930 . S
C4112 C4111 1.393 . S
C4112 C4113 1.399 . S
C4113 C4112 1.399 . S
C4113 C4114 1.381 . S
C4114 H4106 0.930 . S
C4114 C4110 1.390 . S
C4114 C4113 1.381 . S
N4115 C4108 1.286 . S
N4115 C4111 1.413 . S
H4116 C4121 0.930 . S
H4117 C4124 0.930 . S
H4118 C4126 0.930 . S
H4119 C4120 1.016 . S
C4120 H4119 1.016 . S
C4120 N4127 1.286 . S
C4121 H4116 0.930 . S
C4121 C4122 1.397 . S
C4121 C4123 1.361 . S
C4122 C4121 1.397 . S
C4122 C4126 1.390 . S
C4123 C4121 1.361 . S
C4123 C4124 1.393 . S
C4123 N4127 1.413 . S
C4124 H4117 0.930 . S
C4124 C4123 1.393 . S
C4124 C4125 1.399 . S
C4125 C4124 1.399 . S
C4125 C4126 1.381 . S
C4126 H4118 0.930 . S
C4126 C4122 1.390 . S
C4126 C4125 1.381 . S
N4127 C4120 1.286 . S
N4127 C4123 1.413 . S
H4128 C4133 0.930 . S
H4129 C4136 0.930 . S
H4130 C4138 0.930 . S
H4131 C4132 1.016 . S
C4132 H4131 1.016 . S
C4132 N4139 1.286 . S
C4133 H4128 0.930 . S
C4133 C4134 1.397 . S
C4133 C4135 1.361 . S
C4134 C4133 1.397 . S
C4134 C4138 1.390 . S
C4135 C4133 1.361 . S
C4135 C4136 1.393 . S
C4135 N4139 1.413 . S
C4136 H4129 0.930 . S
C4136 C4135 1.393 . S
C4136 C4137 1.399 . S
C4137 C4136 1.399 . S
C4137 C4138 1.381 . S
C4138 H4130 0.930 . S
C4138 C4134 1.390 . S
C4138 C4137 1.381 . S
N4139 C4132 1.286 . S
N4139 C4135 1.413 . S
H4140 C4145 0.930 . S
H4141 C4148 0.930 . S
H4142 C4150 0.930 . S
H4143 C4144 1.016 . S
C4144 H4143 1.016 . S
C4144 N4151 1.286 . S
C4145 H4140 0.930 . S
C4145 C4146 1.397 . S
C4145 C4147 1.361 . S
C4146 C4145 1.397 . S
C4146 C4150 1.390 . S
C4147 C4145 1.361 . S
C4147 C4148 1.393 . S
C4147 N4151 1.413 . S
C4148 H4141 0.930 . S
C4148 C4147 1.393 . S
C4148 C4149 1.399 . S
C4149 C4148 1.399 . S
C4149 C4150 1.381 . S
C4150 H4142 0.930 . S
C4150 C4146 1.390 . S
C4150 C4149 1.381 . S
N4151 C4144 1.286 . S
N4151 C4147 1.413 . S
H4152 C4157 0.930 . S
H4153 C4160 0.930 . S
H4154 C4162 0.930 . S
H4155 C4156 1.016 . S
C4156 H4155 1.016 . S
C4156 N4163 1.286 . S
C4157 H4152 0.930 . S
C4157 C4158 1.397 . S
C4157 C4159 1.361 . S
C4158 C4157 1.397 . S
C4158 C4162 1.390 . S
C4159 C4157 1.361 . S
C4159 C4160 1.393 . S
C4159 N4163 1.413 . S
C4160 H4153 0.930 . S
C4160 C4159 1.393 . S
C4160 C4161 1.399 . S
C4161 C4160 1.399 . S
C4161 C4162 1.381 . S
C4162 H4154 0.930 . S
C4162 C4158 1.390 . S
C4162 C4161 1.381 . S
N4163 C4156 1.286 . S
N4163 C4159 1.413 . S
H4164 C4169 0.930 . S
H4165 C4172 0.930 . S
H4166 C4174 0.930 . S
H4167 C4168 1.016 . S
C4168 H4167 1.016 . S
C4168 N4175 1.286 . S
C4169 H4164 0.930 . S
C4169 C4170 1.397 . S
C4169 C4171 1.361 . S
C4170 C4169 1.397 . S
C4170 C4174 1.390 . S
C4171 C4169 1.361 . S
C4171 C4172 1.393 . S
C4171 N4175 1.413 . S
C4172 H4165 0.930 . S
C4172 C4171 1.393 . S
C4172 C4173 1.399 . S
C4173 C4172 1.399 . S
C4173 C4174 1.381 . S
C4174 H4166 0.930 . S
C4174 C4170 1.390 . S
C4174 C4173 1.381 . S
N4175 C4168 1.286 . S
N4175 C4171 1.413 . S
H4176 C4181 0.930 . S
H4177 C4184 0.930 . S
H4178 C4186 0.930 . S
H4179 C4180 1.016 . S
C4180 H4179 1.016 . S
C4180 N4187 1.286 . S
C4181 H4176 0.930 . S
C4181 C4182 1.397 . S
C4181 C4183 1.361 . S
C4182 C4181 1.397 . S
C4182 C4186 1.390 . S
C4183 C4181 1.361 . S
C4183 C4184 1.393 . S
C4183 N4187 1.413 . S
C4184 H4177 0.930 . S
C4184 C4183 1.393 . S
C4184 C4185 1.399 . S
C4185 C4184 1.399 . S
C4185 C4186 1.381 . S
C4186 H4178 0.930 . S
C4186 C4182 1.390 . S
C4186 C4185 1.381 . S
N4187 C4180 1.286 . S
N4187 C4183 1.413 . S
H4188 C4193 0.930 . S
H4189 C4196 0.930 . S
H4190 C4198 0.930 . S
H4191 C4192 1.016 . S
C4192 H4191 1.016 . S
C4192 N4199 1.286 . S
C4193 H4188 0.930 . S
C4193 C4194 1.397 . S
C4193 C4195 1.361 . S
C4194 C4193 1.397 . S
C4194 C4198 1.390 . S
C4195 C4193 1.361 . S
C4195 C4196 1.393 . S
C4195 N4199 1.413 . S
C4196 H4189 0.930 . S
C4196 C4195 1.393 . S
C4196 C4197 1.399 . S
C4197 C4196 1.399 . S
C4197 C4198 1.381 . S
C4198 H4190 0.930 . S
C4198 C4194 1.390 . S
C4198 C4197 1.381 . S
N4199 C4192 1.286 . S
N4199 C4195 1.413 . S
H4200 C4205 0.930 . S
H4201 C4208 0.930 . S
H4202 C4210 0.930 . S
H4203 C4204 1.016 . S
C4204 H4203 1.016 . S
C4204 N4211 1.286 . S
C4205 H4200 0.930 . S
C4205 C4206 1.397 . S
C4205 C4207 1.361 . S
C4206 C4205 1.397 . S
C4206 C4210 1.390 . S
C4207 C4205 1.361 . S
C4207 C4208 1.393 . S
C4207 N4211 1.413 . S
C4208 H4201 0.930 . S
C4208 C4207 1.393 . S
C4208 C4209 1.399 . S
C4209 C4208 1.399 . S
C4209 C4210 1.381 . S
C4210 H4202 0.930 . S
C4210 C4206 1.390 . S
C4210 C4209 1.381 . S
N4211 C4204 1.286 . S
N4211 C4207 1.413 . S
H4212 C4217 0.930 . S
H4213 C4220 0.930 . S
H4214 C4222 0.930 . S
H4215 C4216 1.016 . S
C4216 H4215 1.016 . S
C4216 N4223 1.286 . S
C4217 H4212 0.930 . S
C4217 C4218 1.397 . S
C4217 C4219 1.361 . S
C4218 C4217 1.397 . S
C4218 C4222 1.390 . S
C4219 C4217 1.361 . S
C4219 C4220 1.393 . S
C4219 N4223 1.413 . S
C4220 H4213 0.930 . S
C4220 C4219 1.393 . S
C4220 C4221 1.399 . S
C4221 C4220 1.399 . S
C4221 C4222 1.381 . S
C4222 H4214 0.930 . S
C4222 C4218 1.390 . S
C4222 C4221 1.381 . S
N4223 C4216 1.286 . S
N4223 C4219 1.413 . S
H4224 C4229 0.930 . S
H4225 C4232 0.930 . S
H4226 C4234 0.930 . S
H4227 C4228 1.016 . S
C4228 H4227 1.016 . S
C4228 N4235 1.286 . S
C4229 H4224 0.930 . S
C4229 C4230 1.397 . S
C4229 C4231 1.361 . S
C4230 C4229 1.397 . S
C4230 C4234 1.390 . S
C4231 C4229 1.361 . S
C4231 C4232 1.393 . S
C4231 N4235 1.413 . S
C4232 H4225 0.930 . S
C4232 C4231 1.393 . S
C4232 C4233 1.399 . S
C4233 C4232 1.399 . S
C4233 C4234 1.381 . S
C4234 H4226 0.930 . S
C4234 C4230 1.390 . S
C4234 C4233 1.381 . S
N4235 C4228 1.286 . S
N4235 C4231 1.413 . S
H4236 C4241 0.930 . S
H4237 C4244 0.930 . S
H4238 C4246 0.930 . S
H4239 C4240 1.016 . S
C4240 H4239 1.016 . S
C4240 N4247 1.286 . S
C4241 H4236 0.930 . S
C4241 C4242 1.397 . S
C4241 C4243 1.361 . S
C4242 C4241 1.397 . S
C4242 C4246 1.390 . S
C4243 C4241 1.361 . S
C4243 C4244 1.393 . S
C4243 N4247 1.413 . S
C4244 H4237 0.930 . S
C4244 C4243 1.393 . S
C4244 C4245 1.399 . S
C4245 C4244 1.399 . S
C4245 C4246 1.381 . S
C4246 H4238 0.930 . S
C4246 C4242 1.390 . S
C4246 C4245 1.381 . S
N4247 C4240 1.286 . S
N4247 C4243 1.413 . S
H4248 C4253 0.930 . S
H4249 C4256 0.930 . S
H4250 C4258 0.930 . S
H4251 C4252 1.016 . S
C4252 H4251 1.016 . S
C4252 N4259 1.286 . S
C4253 H4248 0.930 . S
C4253 C4254 1.397 . S
C4253 C4255 1.361 . S
C4254 C4253 1.397 . S
C4254 C4258 1.390 . S
C4255 C4253 1.361 . S
C4255 C4256 1.393 . S
C4255 N4259 1.413 . S
C4256 H4249 0.930 . S
C4256 C4255 1.393 . S
C4256 C4257 1.399 . S
C4257 C4256 1.399 . S
C4257 C4258 1.381 . S
C4258 H4250 0.930 . S
C4258 C4254 1.390 . S
C4258 C4257 1.381 . S
N4259 C4252 1.286 . S
N4259 C4255 1.413 . S
H4260 C4265 0.930 . S
H4261 C4268 0.930 . S
H4262 C4270 0.930 . S
H4263 C4264 1.016 . S
C4264 H4263 1.016 . S
C4264 N4271 1.286 . S
C4265 H4260 0.930 . S
C4265 C4266 1.397 . S
C4265 C4267 1.361 . S
C4266 C4265 1.397 . S
C4266 C4270 1.390 . S
C4267 C4265 1.361 . S
C4267 C4268 1.393 . S
C4267 N4271 1.413 . S
C4268 H4261 0.930 . S
C4268 C4267 1.393 . S
C4268 C4269 1.399 . S
C4269 C4268 1.399 . S
C4269 C4270 1.381 . S
C4270 H4262 0.930 . S
C4270 C4266 1.390 . S
C4270 C4269 1.381 . S
N4271 C4264 1.286 . S
N4271 C4267 1.413 . S
H4272 C4277 0.930 . S
H4273 C4280 0.930 . S
H4274 C4282 0.930 . S
H4275 C4276 1.016 . S
C4276 H4275 1.016 . S
C4276 N4283 1.286 . S
C4277 H4272 0.930 . S
C4277 C4278 1.397 . S
C4277 C4279 1.361 . S
C4278 C4277 1.397 . S
C4278 C4282 1.390 . S
C4279 C4277 1.361 . S
C4279 C4280 1.393 . S
C4279 N4283 1.413 . S
C4280 H4273 0.930 . S
C4280 C4279 1.393 . S
C4280 C4281 1.399 . S
C4281 C4280 1.399 . S
C4281 C4282 1.381 . S
C4282 H4274 0.930 . S
C4282 C4278 1.390 . S
C4282 C4281 1.381 . S
N4283 C4276 1.286 . S
N4283 C4279 1.413 . S
H4284 C4289 0.930 . S
H4285 C4292 0.930 . S
H4286 C4294 0.930 . S
H4287 C4288 1.016 . S
C4288 H4287 1.016 . S
C4288 N4295 1.286 . S
C4289 H4284 0.930 . S
C4289 C4290 1.397 . S
C4289 C4291 1.361 . S
C4290 C4289 1.397 . S
C4290 C4294 1.390 . S
C4291 C4289 1.361 . S
C4291 C4292 1.393 . S
C4291 N4295 1.413 . S
C4292 H4285 0.930 . S
C4292 C4291 1.393 . S
C4292 C4293 1.399 . S
C4293 C4292 1.399 . S
C4293 C4294 1.381 . S
C4294 H4286 0.930 . S
C4294 C4290 1.390 . S
C4294 C4293 1.381 . S
N4295 C4288 1.286 . S
N4295 C4291 1.413 . S
H4296 C4301 0.930 . S
H4297 C4304 0.930 . S
H4298 C4306 0.930 . S
H4299 C4300 1.016 . S
C4300 H4299 1.016 . S
C4300 N4307 1.286 . S
C4301 H4296 0.930 . S
C4301 C4302 1.397 . S
C4301 C4303 1.361 . S
C4302 C4301 1.397 . S
C4302 C4306 1.390 . S
C4303 C4301 1.361 . S
C4303 C4304 1.393 . S
C4303 N4307 1.413 . S
C4304 H4297 0.930 . S
C4304 C4303 1.393 . S
C4304 C4305 1.399 . S
C4305 C4304 1.399 . S
C4305 C4306 1.381 . S
C4306 H4298 0.930 . S
C4306 C4302 1.390 . S
C4306 C4305 1.381 . S
N4307 C4300 1.286 . S
N4307 C4303 1.413 . S
H4308 C4313 0.930 . S
H4309 C4316 0.930 . S
H4310 C4318 0.930 . S
H4311 C4312 1.016 . S
C4312 H4311 1.016 . S
C4312 N4319 1.286 . S
C4313 H4308 0.930 . S
C4313 C4314 1.397 . S
C4313 C4315 1.361 . S
C4314 C4313 1.397 . S
C4314 C4318 1.390 . S
C4315 C4313 1.361 . S
C4315 C4316 1.393 . S
C4315 N4319 1.413 . S
C4316 H4309 0.930 . S
C4316 C4315 1.393 . S
C4316 C4317 1.399 . S
C4317 C4316 1.399 . S
C4317 C4318 1.381 . S
C4318 H4310 0.930 . S
C4318 C4314 1.390 . S
C4318 C4317 1.381 . S
N4319 C4312 1.286 . S
N4319 C4315 1.413 . S
H4320 C4325 0.930 . S
H4321 C4328 0.930 . S
H4322 C4330 0.930 . S
H4323 C4324 1.016 . S
C4324 H4323 1.016 . S
C4324 N4331 1.286 . S
C4325 H4320 0.930 . S
C4325 C4326 1.397 . S
C4325 C4327 1.361 . S
C4326 C4325 1.397 . S
C4326 C4330 1.390 . S
C4327 C4325 1.361 . S
C4327 C4328 1.393 . S
C4327 N4331 1.413 . S
C4328 H4321 0.930 . S
C4328 C4327 1.393 . S
C4328 C4329 1.399 . S
C4329 C4328 1.399 . S
C4329 C4330 1.381 . S
C4330 H4322 0.930 . S
C4330 C4326 1.390 . S
C4330 C4329 1.381 . S
N4331 C4324 1.286 . S
N4331 C4327 1.413 . S
H4332 C4337 0.930 . S
H4333 C4340 0.930 . S
H4334 C4342 0.930 . S
H4335 C4336 1.016 . S
C4336 H4335 1.016 . S
C4336 N4343 1.286 . S
C4337 H4332 0.930 . S
C4337 C4338 1.397 . S
C4337 C4339 1.361 . S
C4338 C4337 1.397 . S
C4338 C4342 1.390 . S
C4339 C4337 1.361 . S
C4339 C4340 1.393 . S
C4339 N4343 1.413 . S
C4340 H4333 0.930 . S
C4340 C4339 1.393 . S
C4340 C4341 1.399 . S
C4341 C4340 1.399 . S
C4341 C4342 1.381 . S
C4342 H4334 0.930 . S
C4342 C4338 1.390 . S
C4342 C4341 1.381 . S
N4343 C4336 1.286 . S
N4343 C4339 1.413 . S
H4344 C4349 0.930 . S
H4345 C4352 0.930 . S
H4346 C4354 0.930 . S
H4347 C4348 1.016 . S
C4348 H4347 1.016 . S
C4348 N4355 1.286 . S
C4349 H4344 0.930 . S
C4349 C4350 1.397 . S
C4349 C4351 1.361 . S
C4350 C4349 1.397 . S
C4350 C4354 1.390 . S
C4351 C4349 1.361 . S
C4351 C4352 1.393 . S
C4351 N4355 1.413 . S
C4352 H4345 0.930 . S
C4352 C4351 1.393 . S
C4352 C4353 1.399 . S
C4353 C4352 1.399 . S
C4353 C4354 1.381 . S
C4354 H4346 0.930 . S
C4354 C4350 1.390 . S
C4354 C4353 1.381 . S
N4355 C4348 1.286 . S
N4355 C4351 1.413 . S
H4356 C4361 0.930 . S
H4357 C4364 0.930 . S
H4358 C4366 0.930 . S
H4359 C4360 1.016 . S
C4360 H4359 1.016 . S
C4360 N4367 1.286 . S
C4361 H4356 0.930 . S
C4361 C4362 1.397 . S
C4361 C4363 1.361 . S
C4362 C4361 1.397 . S
C4362 C4366 1.390 . S
C4363 C4361 1.361 . S
C4363 C4364 1.393 . S
C4363 N4367 1.413 . S
C4364 H4357 0.930 . S
C4364 C4363 1.393 . S
C4364 C4365 1.399 . S
C4365 C4364 1.399 . S
C4365 C4366 1.381 . S
C4366 H4358 0.930 . S
C4366 C4362 1.390 . S
C4366 C4365 1.381 . S
N4367 C4360 1.286 . S
N4367 C4363 1.413 . S
H4368 C4373 0.930 . S
H4369 C4376 0.930 . S
H4370 C4378 0.930 . S
H4371 C4372 1.016 . S
C4372 H4371 1.016 . S
C4372 N4379 1.286 . S
C4373 H4368 0.930 . S
C4373 C4374 1.397 . S
C4373 C4375 1.361 . S
C4374 C4373 1.397 . S
C4374 C4378 1.390 . S
C4375 C4373 1.361 . S
C4375 C4376 1.393 . S
C4375 N4379 1.413 . S
C4376 H4369 0.930 . S
C4376 C4375 1.393 . S
C4376 C4377 1.399 . S
C4377 C4376 1.399 . S
C4377 C4378 1.381 . S
C4378 H4370 0.930 . S
C4378 C4374 1.390 . S
C4378 C4377 1.381 . S
N4379 C4372 1.286 . S
N4379 C4375 1.413 . S
H4380 C4385 0.930 . S
H4381 C4388 0.930 . S
H4382 C4390 0.930 . S
H4383 C4384 1.016 . S
C4384 H4383 1.016 . S
C4384 N4391 1.286 . S
C4385 H4380 0.930 . S
C4385 C4386 1.397 . S
C4385 C4387 1.361 . S
C4386 C4385 1.397 . S
C4386 C4390 1.390 . S
C4387 C4385 1.361 . S
C4387 C4388 1.393 . S
C4387 N4391 1.413 . S
C4388 H4381 0.930 . S
C4388 C4387 1.393 . S
C4388 C4389 1.399 . S
C4389 C4388 1.399 . S
C4389 C4390 1.381 . S
C4390 H4382 0.930 . S
C4390 C4386 1.390 . S
C4390 C4389 1.381 . S
N4391 C4384 1.286 . S
N4391 C4387 1.413 . S
H4392 C4397 0.930 . S
H4393 C4400 0.930 . S
H4394 C4402 0.930 . S
H4395 C4396 1.016 . S
C4396 H4395 1.016 . S
C4396 N4403 1.286 . S
C4397 H4392 0.930 . S
C4397 C4398 1.397 . S
C4397 C4399 1.361 . S
C4398 C4397 1.397 . S
C4398 C4402 1.390 . S
C4399 C4397 1.361 . S
C4399 C4400 1.393 . S
C4399 N4403 1.413 . S
C4400 H4393 0.930 . S
C4400 C4399 1.393 . S
C4400 C4401 1.399 . S
C4401 C4400 1.399 . S
C4401 C4402 1.381 . S
C4402 H4394 0.930 . S
C4402 C4398 1.390 . S
C4402 C4401 1.381 . S
N4403 C4396 1.286 . S
N4403 C4399 1.413 . S
H4404 C4409 0.930 . S
H4405 C4412 0.930 . S
H4406 C4414 0.930 . S
H4407 C4408 1.016 . S
C4408 H4407 1.016 . S
C4408 N4415 1.286 . S
C4409 H4404 0.930 . S
C4409 C4410 1.397 . S
C4409 C4411 1.361 . S
C4410 C4409 1.397 . S
C4410 C4414 1.390 . S
C4411 C4409 1.361 . S
C4411 C4412 1.393 . S
C4411 N4415 1.413 . S
C4412 H4405 0.930 . S
C4412 C4411 1.393 . S
C4412 C4413 1.399 . S
C4413 C4412 1.399 . S
C4413 C4414 1.381 . S
C4414 H4406 0.930 . S
C4414 C4410 1.390 . S
C4414 C4413 1.381 . S
N4415 C4408 1.286 . S
N4415 C4411 1.413 . S
H4416 C4421 0.930 . S
H4417 C4424 0.930 . S
H4418 C4426 0.930 . S
H4419 C4420 1.016 . S
C4420 H4419 1.016 . S
C4420 N4427 1.286 . S
C4421 H4416 0.930 . S
C4421 C4422 1.397 . S
C4421 C4423 1.361 . S
C4422 C4421 1.397 . S
C4422 C4426 1.390 . S
C4423 C4421 1.361 . S
C4423 C4424 1.393 . S
C4423 N4427 1.413 . S
C4424 H4417 0.930 . S
C4424 C4423 1.393 . S
C4424 C4425 1.399 . S
C4425 C4424 1.399 . S
C4425 C4426 1.381 . S
C4426 H4418 0.930 . S
C4426 C4422 1.390 . S
C4426 C4425 1.381 . S
N4427 C4420 1.286 . S
N4427 C4423 1.413 . S
H4428 C4433 0.930 . S
H4429 C4436 0.930 . S
H4430 C4438 0.930 . S
H4431 C4432 1.016 . S
C4432 H4431 1.016 . S
C4432 N4439 1.286 . S
C4433 H4428 0.930 . S
C4433 C4434 1.397 . S
C4433 C4435 1.361 . S
C4434 C4433 1.397 . S
C4434 C4438 1.390 . S
C4435 C4433 1.361 . S
C4435 C4436 1.393 . S
C4435 N4439 1.413 . S
C4436 H4429 0.930 . S
C4436 C4435 1.393 . S
C4436 C4437 1.399 . S
C4437 C4436 1.399 . S
C4437 C4438 1.381 . S
C4438 H4430 0.930 . S
C4438 C4434 1.390 . S
C4438 C4437 1.381 . S
N4439 C4432 1.286 . S
N4439 C4435 1.413 . S
H4440 C4445 0.930 . S
H4441 C4448 0.930 . S
H4442 C4450 0.930 . S
H4443 C4444 1.016 . S
C4444 H4443 1.016 . S
C4444 N4451 1.286 . S
C4445 H4440 0.930 . S
C4445 C4446 1.397 . S
C4445 C4447 1.361 . S
C4446 C4445 1.397 . S
C4446 C4450 1.390 . S
C4447 C4445 1.361 . S
C4447 C4448 1.393 . S
C4447 N4451 1.413 . S
C4448 H4441 0.930 . S
C4448 C4447 1.393 . S
C4448 C4449 1.399 . S
C4449 C4448 1.399 . S
C4449 C4450 1.381 . S
C4450 H4442 0.930 . S
C4450 C4446 1.390 . S
C4450 C4449 1.381 . S
N4451 C4444 1.286 . S
N4451 C4447 1.413 . S
H4452 C4457 0.930 . S
H4453 C4460 0.930 . S
H4454 C4462 0.930 . S
H4455 C4456 1.016 . S
C4456 H4455 1.016 . S
C4456 N4463 1.286 . S
C4457 H4452 0.930 . S
C4457 C4458 1.397 . S
C4457 C4459 1.361 . S
C4458 C4457 1.397 . S
C4458 C4462 1.390 . S
C4459 C4457 1.361 . S
C4459 C4460 1.393 . S
C4459 N4463 1.413 . S
C4460 H4453 0.930 . S
C4460 C4459 1.393 . S
C4460 C4461 1.399 . S
C4461 C4460 1.399 . S
C4461 C4462 1.381 . S
C4462 H4454 0.930 . S
C4462 C4458 1.390 . S
C4462 C4461 1.381 . S
N4463 C4456 1.286 . S
N4463 C4459 1.413 . S
H4464 C4469 0.930 . S
H4465 C4472 0.930 . S
H4466 C4474 0.930 . S
H4467 C4468 1.016 . S
C4468 H4467 1.016 . S
C4468 N4475 1.286 . S
C4469 H4464 0.930 . S
C4469 C4470 1.397 . S
C4469 C4471 1.361 . S
C4470 C4469 1.397 . S
C4470 C4474 1.390 . S
C4471 C4469 1.361 . S
C4471 C4472 1.393 . S
C4471 N4475 1.413 . S
C4472 H4465 0.930 . S
C4472 C4471 1.393 . S
C4472 C4473 1.399 . S
C4473 C4472 1.399 . S
C4473 C4474 1.381 . S
C4474 H4466 0.930 . S
C4474 C4470 1.390 . S
C4474 C4473 1.381 . S
N4475 C4468 1.286 . S
N4475 C4471 1.413 . S
H4476 C4481 0.930 . S
H4477 C4484 0.930 . S
H4478 C4486 0.930 . S
H4479 C4480 1.016 . S
C4480 H4479 1.016 . S
C4480 N4487 1.286 . S
C4481 H4476 0.930 . S
C4481 C4482 1.397 . S
C4481 C4483 1.361 . S
C4482 C4481 1.397 . S
C4482 C4486 1.390 . S
C4483 C4481 1.361 . S
C4483 C4484 1.393 . S
C4483 N4487 1.413 . S
C4484 H4477 0.930 . S
C4484 C4483 1.393 . S
C4484 C4485 1.399 . S
C4485 C4484 1.399 . S
C4485 C4486 1.381 . S
C4486 H4478 0.930 . S
C4486 C4482 1.390 . S
C4486 C4485 1.381 . S
N4487 C4480 1.286 . S
N4487 C4483 1.413 . S
H4488 C4493 0.930 . S
H4489 C4496 0.930 . S
H4490 C4498 0.930 . S
H4491 C4492 1.016 . S
C4492 H4491 1.016 . S
C4492 N4499 1.286 . S
C4493 H4488 0.930 . S
C4493 C4494 1.397 . S
C4493 C4495 1.361 . S
C4494 C4493 1.397 . S
C4494 C4498 1.390 . S
C4495 C4493 1.361 . S
C4495 C4496 1.393 . S
C4495 N4499 1.413 . S
C4496 H4489 0.930 . S
C4496 C4495 1.393 . S
C4496 C4497 1.399 . S
C4497 C4496 1.399 . S
C4497 C4498 1.381 . S
C4498 H4490 0.930 . S
C4498 C4494 1.390 . S
C4498 C4497 1.381 . S
N4499 C4492 1.286 . S
N4499 C4495 1.413 . S
H4500 C4505 0.930 . S
H4501 C4508 0.930 . S
H4502 C4510 0.930 . S
H4503 C4504 1.016 . S
C4504 H4503 1.016 . S
C4504 N4511 1.286 . S
C4505 H4500 0.930 . S
C4505 C4506 1.397 . S
C4505 C4507 1.361 . S
C4506 C4505 1.397 . S
C4506 C4510 1.390 . S
C4507 C4505 1.361 . S
C4507 C4508 1.393 . S
C4507 N4511 1.413 . S
C4508 H4501 0.930 . S
C4508 C4507 1.393 . S
C4508 C4509 1.399 . S
C4509 C4508 1.399 . S
C4509 C4510 1.381 . S
C4510 H4502 0.930 . S
C4510 C4506 1.390 . S
C4510 C4509 1.381 . S
N4511 C4504 1.286 . S
N4511 C4507 1.413 . S
H4512 C4517 0.930 . S
H4513 C4520 0.930 . S
H4514 C4522 0.930 . S
H4515 C4516 1.016 . S
C4516 H4515 1.016 . S
C4516 N4523 1.286 . S
C4517 H4512 0.930 . S
C4517 C4518 1.397 . S
C4517 C4519 1.361 . S
C4518 C4517 1.397 . S
C4518 C4522 1.390 . S
C4519 C4517 1.361 . S
C4519 C4520 1.393 . S
C4519 N4523 1.413 . S
C4520 H4513 0.930 . S
C4520 C4519 1.393 . S
C4520 C4521 1.399 . S
C4521 C4520 1.399 . S
C4521 C4522 1.381 . S
C4522 H4514 0.930 . S
C4522 C4518 1.390 . S
C4522 C4521 1.381 . S
N4523 C4516 1.286 . S
N4523 C4519 1.413 . S
H4524 C4529 0.930 . S
H4525 C4532 0.930 . S
H4526 C4534 0.930 . S
H4527 C4528 1.016 . S
C4528 H4527 1.016 . S
C4528 N4535 1.286 . S
C4529 H4524 0.930 . S
C4529 C4530 1.397 . S
C4529 C4531 1.361 . S
C4530 C4529 1.397 . S
C4530 C4534 1.390 . S
C4531 C4529 1.361 . S
C4531 C4532 1.393 . S
C4531 N4535 1.413 . S
C4532 H4525 0.930 . S
C4532 C4531 1.393 . S
C4532 C4533 1.399 . S
C4533 C4532 1.399 . S
C4533 C4534 1.381 . S
C4534 H4526 0.930 . S
C4534 C4530 1.390 . S
C4534 C4533 1.381 . S
N4535 C4528 1.286 . S
N4535 C4531 1.413 . S
H4536 C4541 0.930 . S
H4537 C4544 0.930 . S
H4538 C4546 0.930 . S
H4539 C4540 1.016 . S
C4540 H4539 1.016 . S
C4540 N4547 1.286 . S
C4541 H4536 0.930 . S
C4541 C4542 1.397 . S
C4541 C4543 1.361 . S
C4542 C4541 1.397 . S
C4542 C4546 1.390 . S
C4543 C4541 1.361 . S
C4543 C4544 1.393 . S
C4543 N4547 1.413 . S
C4544 H4537 0.930 . S
C4544 C4543 1.393 . S
C4544 C4545 1.399 . S
C4545 C4544 1.399 . S
C4545 C4546 1.381 . S
C4546 H4538 0.930 . S
C4546 C4542 1.390 . S
C4546 C4545 1.381 . S
N4547 C4540 1.286 . S
N4547 C4543 1.413 . S
H4548 C4553 0.930 . S
H4549 C4556 0.930 . S
H4550 C4558 0.930 . S
H4551 C4552 1.016 . S
C4552 H4551 1.016 . S
C4552 N4559 1.286 . S
C4553 H4548 0.930 . S
C4553 C4554 1.397 . S
C4553 C4555 1.361 . S
C4554 C4553 1.397 . S
C4554 C4558 1.390 . S
C4555 C4553 1.361 . S
C4555 C4556 1.393 . S
C4555 N4559 1.413 . S
C4556 H4549 0.930 . S
C4556 C4555 1.393 . S
C4556 C4557 1.399 . S
C4557 C4556 1.399 . S
C4557 C4558 1.381 . S
C4558 H4550 0.930 . S
C4558 C4554 1.390 . S
C4558 C4557 1.381 . S
N4559 C4552 1.286 . S
N4559 C4555 1.413 . S
H4560 C4565 0.930 . S
H4561 C4568 0.930 . S
H4562 C4570 0.930 . S
H4563 C4564 1.016 . S
C4564 H4563 1.016 . S
C4564 N4571 1.286 . S
C4565 H4560 0.930 . S
C4565 C4566 1.397 . S
C4565 C4567 1.361 . S
C4566 C4565 1.397 . S
C4566 C4570 1.390 . S
C4567 C4565 1.361 . S
C4567 C4568 1.393 . S
C4567 N4571 1.413 . S
C4568 H4561 0.930 . S
C4568 C4567 1.393 . S
C4568 C4569 1.399 . S
C4569 C4568 1.399 . S
C4569 C4570 1.381 . S
C4570 H4562 0.930 . S
C4570 C4566 1.390 . S
C4570 C4569 1.381 . S
N4571 C4564 1.286 . S
N4571 C4567 1.413 . S
H4572 C4577 0.930 . S
H4573 C4580 0.930 . S
H4574 C4582 0.930 . S
H4575 C4576 1.016 . S
C4576 H4575 1.016 . S
C4576 N4583 1.286 . S
C4577 H4572 0.930 . S
C4577 C4578 1.397 . S
C4577 C4579 1.361 . S
C4578 C4577 1.397 . S
C4578 C4582 1.390 . S
C4579 C4577 1.361 . S
C4579 C4580 1.393 . S
C4579 N4583 1.413 . S
C4580 H4573 0.930 . S
C4580 C4579 1.393 . S
C4580 C4581 1.399 . S
C4581 C4580 1.399 . S
C4581 C4582 1.381 . S
C4582 H4574 0.930 . S
C4582 C4578 1.390 . S
C4582 C4581 1.381 . S
N4583 C4576 1.286 . S
N4583 C4579 1.413 . S
H4584 C4589 0.930 . S
H4585 C4592 0.930 . S
H4586 C4594 0.930 . S
H4587 C4588 1.016 . S
C4588 H4587 1.016 . S
C4588 N4595 1.286 . S
C4589 H4584 0.930 . S
C4589 C4590 1.397 . S
C4589 C4591 1.361 . S
C4590 C4589 1.397 . S
C4590 C4594 1.390 . S
C4591 C4589 1.361 . S
C4591 C4592 1.393 . S
C4591 N4595 1.413 . S
C4592 H4585 0.930 . S
C4592 C4591 1.393 . S
C4592 C4593 1.399 . S
C4593 C4592 1.399 . S
C4593 C4594 1.381 . S
C4594 H4586 0.930 . S
C4594 C4590 1.390 . S
C4594 C4593 1.381 . S
N4595 C4588 1.286 . S
N4595 C4591 1.413 . S
H4596 C4601 0.930 . S
H4597 C4604 0.930 . S
H4598 C4606 0.930 . S
H4599 C4600 1.016 . S
C4600 H4599 1.016 . S
C4600 N4607 1.286 . S
C4601 H4596 0.930 . S
C4601 C4602 1.397 . S
C4601 C4603 1.361 . S
C4602 C4601 1.397 . S
C4602 C4606 1.390 . S
C4603 C4601 1.361 . S
C4603 C4604 1.393 . S
C4603 N4607 1.413 . S
C4604 H4597 0.930 . S
C4604 C4603 1.393 . S
C4604 C4605 1.399 . S
C4605 C4604 1.399 . S
C4605 C4606 1.381 . S
C4606 H4598 0.930 . S
C4606 C4602 1.390 . S
C4606 C4605 1.381 . S
N4607 C4600 1.286 . S
N4607 C4603 1.413 . S
H4608 C4613 0.930 . S
H4609 C4616 0.930 . S
H4610 C4618 0.930 . S
H4611 C4612 1.016 . S
C4612 H4611 1.016 . S
C4612 N4619 1.286 . S
C4613 H4608 0.930 . S
C4613 C4614 1.397 . S
C4613 C4615 1.361 . S
C4614 C4613 1.397 . S
C4614 C4618 1.390 . S
C4615 C4613 1.361 . S
C4615 C4616 1.393 . S
C4615 N4619 1.413 . S
C4616 H4609 0.930 . S
C4616 C4615 1.393 . S
C4616 C4617 1.399 . S
C4617 C4616 1.399 . S
C4617 C4618 1.381 . S
C4618 H4610 0.930 . S
C4618 C4614 1.390 . S
C4618 C4617 1.381 . S
N4619 C4612 1.286 . S
N4619 C4615 1.413 . S
H4620 C4625 0.930 . S
H4621 C4628 0.930 . S
H4622 C4630 0.930 . S
H4623 C4624 1.016 . S
C4624 H4623 1.016 . S
C4624 N4631 1.286 . S
C4625 H4620 0.930 . S
C4625 C4626 1.397 . S
C4625 C4627 1.361 . S
C4626 C4625 1.397 . S
C4626 C4630 1.390 . S
C4627 C4625 1.361 . S
C4627 C4628 1.393 . S
C4627 N4631 1.413 . S
C4628 H4621 0.930 . S
C4628 C4627 1.393 . S
C4628 C4629 1.399 . S
C4629 C4628 1.399 . S
C4629 C4630 1.381 . S
C4630 H4622 0.930 . S
C4630 C4626 1.390 . S
C4630 C4629 1.381 . S
N4631 C4624 1.286 . S
N4631 C4627 1.413 . S
H4632 C4637 0.930 . S
H4633 C4640 0.930 . S
H4634 C4642 0.930 . S
H4635 C4636 1.016 . S
C4636 H4635 1.016 . S
C4636 N4643 1.286 . S
C4637 H4632 0.930 . S
C4637 C4638 1.397 . S
C4637 C4639 1.361 . S
C4638 C4637 1.397 . S
C4638 C4642 1.390 . S
C4639 C4637 1.361 . S
C4639 C4640 1.393 . S
C4639 N4643 1.413 . S
C4640 H4633 0.930 . S
C4640 C4639 1.393 . S
C4640 C4641 1.399 . S
C4641 C4640 1.399 . S
C4641 C4642 1.381 . S
C4642 H4634 0.930 . S
C4642 C4638 1.390 . S
C4642 C4641 1.381 . S
N4643 C4636 1.286 . S
N4643 C4639 1.413 . S
H4644 C4649 0.930 . S
H4645 C4652 0.930 . S
H4646 C4654 0.930 . S
H4647 C4648 1.016 . S
C4648 H4647 1.016 . S
C4648 N4655 1.286 . S
C4649 H4644 0.930 . S
C4649 C4650 1.397 . S
C4649 C4651 1.361 . S
C4650 C4649 1.397 . S
C4650 C4654 1.390 . S
C4651 C4649 1.361 . S
C4651 C4652 1.393 . S
C4651 N4655 1.413 . S
C4652 H4645 0.930 . S
C4652 C4651 1.393 . S
C4652 C4653 1.399 . S
C4653 C4652 1.399 . S
C4653 C4654 1.381 . S
C4654 H4646 0.930 . S
C4654 C4650 1.390 . S
C4654 C4653 1.381 . S
N4655 C4648 1.286 . S
N4655 C4651 1.413 . S
H4656 C4661 0.930 . S
H4657 C4664 0.930 . S
H4658 C4666 0.930 . S
H4659 C4660 1.016 . S
C4660 H4659 1.016 . S
C4660 N4667 1.286 . S
C4661 H4656 0.930 . S
C4661 C4662 1.397 . S
C4661 C4663 1.361 . S
C4662 C4661 1.397 . S
C4662 C4666 1.390 . S
C4663 C4661 1.361 . S
C4663 C4664 1.393 . S
C4663 N4667 1.413 . S
C4664 H4657 0.930 . S
C4664 C4663 1.393 . S
C4664 C4665 1.399 . S
C4665 C4664 1.399 . S
C4665 C4666 1.381 . S
C4666 H4658 0.930 . S
C4666 C4662 1.390 . S
C4666 C4665 1.381 . S
N4667 C4660 1.286 . S
N4667 C4663 1.413 . S
H4668 C4673 0.930 . S
H4669 C4676 0.930 . S
H4670 C4678 0.930 . S
H4671 C4672 1.016 . S
C4672 H4671 1.016 . S
C4672 N4679 1.286 . S
C4673 H4668 0.930 . S
C4673 C4674 1.397 . S
C4673 C4675 1.361 . S
C4674 C4673 1.397 . S
C4674 C4678 1.390 . S
C4675 C4673 1.361 . S
C4675 C4676 1.393 . S
C4675 N4679 1.413 . S
C4676 H4669 0.930 . S
C4676 C4675 1.393 . S
C4676 C4677 1.399 . S
C4677 C4676 1.399 . S
C4677 C4678 1.381 . S
C4678 H4670 0.930 . S
C4678 C4674 1.390 . S
C4678 C4677 1.381 . S
N4679 C4672 1.286 . S
N4679 C4675 1.413 . S
H4680 C4685 0.930 . S
H4681 C4688 0.930 . S
H4682 C4690 0.930 . S
H4683 C4684 1.016 . S
C4684 H4683 1.016 . S
C4684 N4691 1.286 . S
C4685 H4680 0.930 . S
C4685 C4686 1.397 . S
C4685 C4687 1.361 . S
C4686 C4685 1.397 . S
C4686 C4690 1.390 . S
C4687 C4685 1.361 . S
C4687 C4688 1.393 . S
C4687 N4691 1.413 . S
C4688 H4681 0.930 . S
C4688 C4687 1.393 . S
C4688 C4689 1.399 . S
C4689 C4688 1.399 . S
C4689 C4690 1.381 . S
C4690 H4682 0.930 . S
C4690 C4686 1.390 . S
C4690 C4689 1.381 . S
N4691 C4684 1.286 . S
N4691 C4687 1.413 . S
H4692 C4697 0.930 . S
H4693 C4700 0.930 . S
H4694 C4702 0.930 . S
H4695 C4696 1.016 . S
C4696 H4695 1.016 . S
C4696 N4703 1.286 . S
C4697 H4692 0.930 . S
C4697 C4698 1.397 . S
C4697 C4699 1.361 . S
C4698 C4697 1.397 . S
C4698 C4702 1.390 . S
C4699 C4697 1.361 . S
C4699 C4700 1.393 . S
C4699 N4703 1.413 . S
C4700 H4693 0.930 . S
C4700 C4699 1.393 . S
C4700 C4701 1.399 . S
C4701 C4700 1.399 . S
C4701 C4702 1.381 . S
C4702 H4694 0.930 . S
C4702 C4698 1.390 . S
C4702 C4701 1.381 . S
N4703 C4696 1.286 . S
N4703 C4699 1.413 . S
H4704 C4709 0.930 . S
H4705 C4712 0.930 . S
H4706 C4714 0.930 . S
H4707 C4708 1.016 . S
C4708 H4707 1.016 . S
C4708 N4715 1.286 . S
C4709 H4704 0.930 . S
C4709 C4710 1.397 . S
C4709 C4711 1.361 . S
C4710 C4709 1.397 . S
C4710 C4714 1.390 . S
C4711 C4709 1.361 . S
C4711 C4712 1.393 . S
C4711 N4715 1.413 . S
C4712 H4705 0.930 . S
C4712 C4711 1.393 . S
C4712 C4713 1.399 . S
C4713 C4712 1.399 . S
C4713 C4714 1.381 . S
C4714 H4706 0.930 . S
C4714 C4710 1.390 . S
C4714 C4713 1.381 . S
N4715 C4708 1.286 . S
N4715 C4711 1.413 . S
H4716 C4721 0.930 . S
H4717 C4724 0.930 . S
H4718 C4726 0.930 . S
H4719 C4720 1.016 . S
C4720 H4719 1.016 . S
C4720 N4727 1.286 . S
C4721 H4716 0.930 . S
C4721 C4722 1.397 . S
C4721 C4723 1.361 . S
C4722 C4721 1.397 . S
C4722 C4726 1.390 . S
C4723 C4721 1.361 . S
C4723 C4724 1.393 . S
C4723 N4727 1.413 . S
C4724 H4717 0.930 . S
C4724 C4723 1.393 . S
C4724 C4725 1.399 . S
C4725 C4724 1.399 . S
C4725 C4726 1.381 . S
C4726 H4718 0.930 . S
C4726 C4722 1.390 . S
C4726 C4725 1.381 . S
N4727 C4720 1.286 . S
N4727 C4723 1.413 . S
H4728 C4733 0.930 . S
H4729 C4736 0.930 . S
H4730 C4738 0.930 . S
H4731 C4732 1.016 . S
C4732 H4731 1.016 . S
C4732 N4739 1.286 . S
C4733 H4728 0.930 . S
C4733 C4734 1.397 . S
C4733 C4735 1.361 . S
C4734 C4733 1.397 . S
C4734 C4738 1.390 . S
C4735 C4733 1.361 . S
C4735 C4736 1.393 . S
C4735 N4739 1.413 . S
C4736 H4729 0.930 . S
C4736 C4735 1.393 . S
C4736 C4737 1.399 . S
C4737 C4736 1.399 . S
C4737 C4738 1.381 . S
C4738 H4730 0.930 . S
C4738 C4734 1.390 . S
C4738 C4737 1.381 . S
N4739 C4732 1.286 . S
N4739 C4735 1.413 . S
H4740 C4745 0.930 . S
H4741 C4748 0.930 . S
H4742 C4750 0.930 . S
H4743 C4744 1.016 . S
C4744 H4743 1.016 . S
C4744 N4751 1.286 . S
C4745 H4740 0.930 . S
C4745 C4746 1.397 . S
C4745 C4747 1.361 . S
C4746 C4745 1.397 . S
C4746 C4750 1.390 . S
C4747 C4745 1.361 . S
C4747 C4748 1.393 . S
C4747 N4751 1.413 . S
C4748 H4741 0.930 . S
C4748 C4747 1.393 . S
C4748 C4749 1.399 . S
C4749 C4748 1.399 . S
C4749 C4750 1.381 . S
C4750 H4742 0.930 . S
C4750 C4746 1.390 . S
C4750 C4749 1.381 . S
N4751 C4744 1.286 . S
N4751 C4747 1.413 . S
H4752 C4757 0.930 . S
H4753 C4760 0.930 . S
H4754 C4762 0.930 . S
H4755 C4756 1.016 . S
C4756 H4755 1.016 . S
C4756 N4763 1.286 . S
C4757 H4752 0.930 . S
C4757 C4758 1.397 . S
C4757 C4759 1.361 . S
C4758 C4757 1.397 . S
C4758 C4762 1.390 . S
C4759 C4757 1.361 . S
C4759 C4760 1.393 . S
C4759 N4763 1.413 . S
C4760 H4753 0.930 . S
C4760 C4759 1.393 . S
C4760 C4761 1.399 . S
C4761 C4760 1.399 . S
C4761 C4762 1.381 . S
C4762 H4754 0.930 . S
C4762 C4758 1.390 . S
C4762 C4761 1.381 . S
N4763 C4756 1.286 . S
N4763 C4759 1.413 . S
H4764 C4769 0.930 . S
H4765 C4772 0.930 . S
H4766 C4774 0.930 . S
H4767 C4768 1.016 . S
C4768 H4767 1.016 . S
C4768 N4775 1.286 . S
C4769 H4764 0.930 . S
C4769 C4770 1.397 . S
C4769 C4771 1.361 . S
C4770 C4769 1.397 . S
C4770 C4774 1.390 . S
C4771 C4769 1.361 . S
C4771 C4772 1.393 . S
C4771 N4775 1.413 . S
C4772 H4765 0.930 . S
C4772 C4771 1.393 . S
C4772 C4773 1.399 . S
C4773 C4772 1.399 . S
C4773 C4774 1.381 . S
C4774 H4766 0.930 . S
C4774 C4770 1.390 . S
C4774 C4773 1.381 . S
N4775 C4768 1.286 . S
N4775 C4771 1.413 . S
H4776 C4781 0.930 . S
H4777 C4784 0.930 . S
H4778 C4786 0.930 . S
H4779 C4780 1.016 . S
C4780 H4779 1.016 . S
C4780 N4787 1.286 . S
C4781 H4776 0.930 . S
C4781 C4782 1.397 . S
C4781 C4783 1.361 . S
C4782 C4781 1.397 . S
C4782 C4786 1.390 . S
C4783 C4781 1.361 . S
C4783 C4784 1.393 . S
C4783 N4787 1.413 . S
C4784 H4777 0.930 . S
C4784 C4783 1.393 . S
C4784 C4785 1.399 . S
C4785 C4784 1.399 . S
C4785 C4786 1.381 . S
C4786 H4778 0.930 . S
C4786 C4782 1.390 . S
C4786 C4785 1.381 . S
N4787 C4780 1.286 . S
N4787 C4783 1.413 . S
H4788 C4793 0.930 . S
H4789 C4796 0.930 . S
H4790 C4798 0.930 . S
H4791 C4792 1.016 . S
C4792 H4791 1.016 . S
C4792 N4799 1.286 . S
C4793 H4788 0.930 . S
C4793 C4794 1.397 . S
C4793 C4795 1.361 . S
C4794 C4793 1.397 . S
C4794 C4798 1.390 . S
C4795 C4793 1.361 . S
C4795 C4796 1.393 . S
C4795 N4799 1.413 . S
C4796 H4789 0.930 . S
C4796 C4795 1.393 . S
C4796 C4797 1.399 . S
C4797 C4796 1.399 . S
C4797 C4798 1.381 . S
C4798 H4790 0.930 . S
C4798 C4794 1.390 . S
C4798 C4797 1.381 . S
N4799 C4792 1.286 . S
N4799 C4795 1.413 . S
H4800 C4805 0.930 . S
H4801 C4808 0.930 . S
H4802 C4810 0.930 . S
H4803 C4804 1.016 . S
C4804 H4803 1.016 . S
C4804 N4811 1.286 . S
C4805 H4800 0.930 . S
C4805 C4806 1.397 . S
C4805 C4807 1.361 . S
C4806 C4805 1.397 . S
C4806 C4810 1.390 . S
C4807 C4805 1.361 . S
C4807 C4808 1.393 . S
C4807 N4811 1.413 . S
C4808 H4801 0.930 . S
C4808 C4807 1.393 . S
C4808 C4809 1.399 . S
C4809 C4808 1.399 . S
C4809 C4810 1.381 . S
C4810 H4802 0.930 . S
C4810 C4806 1.390 . S
C4810 C4809 1.381 . S
N4811 C4804 1.286 . S
N4811 C4807 1.413 . S
H4812 C4817 0.930 . S
H4813 C4820 0.930 . S
H4814 C4822 0.930 . S
H4815 C4816 1.016 . S
C4816 H4815 1.016 . S
C4816 N4823 1.286 . S
C4817 H4812 0.930 . S
C4817 C4818 1.397 . S
C4817 C4819 1.361 . S
C4818 C4817 1.397 . S
C4818 C4822 1.390 . S
C4819 C4817 1.361 . S
C4819 C4820 1.393 . S
C4819 N4823 1.413 . S
C4820 H4813 0.930 . S
C4820 C4819 1.393 . S
C4820 C4821 1.399 . S
C4821 C4820 1.399 . S
C4821 C4822 1.381 . S
C4822 H4814 0.930 . S
C4822 C4818 1.390 . S
C4822 C4821 1.381 . S
N4823 C4816 1.286 . S
N4823 C4819 1.413 . S
H4824 C4829 0.930 . S
H4825 C4832 0.930 . S
H4826 C4834 0.930 . S
H4827 C4828 1.016 . S
C4828 H4827 1.016 . S
C4828 N4835 1.286 . S
C4829 H4824 0.930 . S
C4829 C4830 1.397 . S
C4829 C4831 1.361 . S
C4830 C4829 1.397 . S
C4830 C4834 1.390 . S
C4831 C4829 1.361 . S
C4831 C4832 1.393 . S
C4831 N4835 1.413 . S
C4832 H4825 0.930 . S
C4832 C4831 1.393 . S
C4832 C4833 1.399 . S
C4833 C4832 1.399 . S
C4833 C4834 1.381 . S
C4834 H4826 0.930 . S
C4834 C4830 1.390 . S
C4834 C4833 1.381 . S
N4835 C4828 1.286 . S
N4835 C4831 1.413 . S
H4836 C4841 0.930 . S
H4837 C4844 0.930 . S
H4838 C4846 0.930 . S
H4839 C4840 1.016 . S
C4840 H4839 1.016 . S
C4840 N4847 1.286 . S
C4841 H4836 0.930 . S
C4841 C4842 1.397 . S
C4841 C4843 1.361 . S
C4842 C4841 1.397 . S
C4842 C4846 1.390 . S
C4843 C4841 1.361 . S
C4843 C4844 1.393 . S
C4843 N4847 1.413 . S
C4844 H4837 0.930 . S
C4844 C4843 1.393 . S
C4844 C4845 1.399 . S
C4845 C4844 1.399 . S
C4845 C4846 1.381 . S
C4846 H4838 0.930 . S
C4846 C4842 1.390 . S
C4846 C4845 1.381 . S
N4847 C4840 1.286 . S
N4847 C4843 1.413 . S
H4848 C4853 0.930 . S
H4849 C4856 0.930 . S
H4850 C4858 0.930 . S
H4851 C4852 1.016 . S
C4852 H4851 1.016 . S
C4852 N4859 1.286 . S
C4853 H4848 0.930 . S
C4853 C4854 1.397 . S
C4853 C4855 1.361 . S
C4854 C4853 1.397 . S
C4854 C4858 1.390 . S
C4855 C4853 1.361 . S
C4855 C4856 1.393 . S
C4855 N4859 1.413 . S
C4856 H4849 0.930 . S
C4856 C4855 1.393 . S
C4856 C4857 1.399 . S
C4857 C4856 1.399 . S
C4857 C4858 1.381 . S
C4858 H4850 0.930 . S
C4858 C4854 1.390 . S
C4858 C4857 1.381 . S
N4859 C4852 1.286 . S
N4859 C4855 1.413 . S
H4860 C4865 0.930 . S
H4861 C4868 0.930 . S
H4862 C4870 0.930 . S
H4863 C4864 1.016 . S
C4864 H4863 1.016 . S
C4864 N4871 1.286 . S
C4865 H4860 0.930 . S
C4865 C4866 1.397 . S
C4865 C4867 1.361 . S
C4866 C4865 1.397 . S
C4866 C4870 1.390 . S
C4867 C4865 1.361 . S
C4867 C4868 1.393 . S
C4867 N4871 1.413 . S
C4868 H4861 0.930 . S
C4868 C4867 1.393 . S
C4868 C4869 1.399 . S
C4869 C4868 1.399 . S
C4869 C4870 1.381 . S
C4870 H4862 0.930 . S
C4870 C4866 1.390 . S
C4870 C4869 1.381 . S
N4871 C4864 1.286 . S
N4871 C4867 1.413 . S
H4872 C4877 0.930 . S
H4873 C4880 0.930 . S
H4874 C4882 0.930 . S
H4875 C4876 1.016 . S
C4876 H4875 1.016 . S
C4876 N4883 1.286 . S
C4877 H4872 0.930 . S
C4877 C4878 1.397 . S
C4877 C4879 1.361 . S
C4878 C4877 1.397 . S
C4878 C4882 1.390 . S
C4879 C4877 1.361 . S
C4879 C4880 1.393 . S
C4879 N4883 1.413 . S
C4880 H4873 0.930 . S
C4880 C4879 1.393 . S
C4880 C4881 1.399 . S
C4881 C4880 1.399 . S
C4881 C4882 1.381 . S
C4882 H4874 0.930 . S
C4882 C4878 1.390 . S
C4882 C4881 1.381 . S
N4883 C4876 1.286 . S
N4883 C4879 1.413 . S
H4884 C4889 0.930 . S
H4885 C4892 0.930 . S
H4886 C4894 0.930 . S
H4887 C4888 1.016 . S
C4888 H4887 1.016 . S
C4888 N4895 1.286 . S
C4889 H4884 0.930 . S
C4889 C4890 1.397 . S
C4889 C4891 1.361 . S
C4890 C4889 1.397 . S
C4890 C4894 1.390 . S
C4891 C4889 1.361 . S
C4891 C4892 1.393 . S
C4891 N4895 1.413 . S
C4892 H4885 0.930 . S
C4892 C4891 1.393 . S
C4892 C4893 1.399 . S
C4893 C4892 1.399 . S
C4893 C4894 1.381 . S
C4894 H4886 0.930 . S
C4894 C4890 1.390 . S
C4894 C4893 1.381 . S
N4895 C4888 1.286 . S
N4895 C4891 1.413 . S
H4896 C4901 0.930 . S
H4897 C4904 0.930 . S
H4898 C4906 0.930 . S
H4899 C4900 1.016 . S
C4900 H4899 1.016 . S
C4900 N4907 1.286 . S
C4901 H4896 0.930 . S
C4901 C4902 1.397 . S
C4901 C4903 1.361 . S
C4902 C4901 1.397 . S
C4902 C4906 1.390 . S
C4903 C4901 1.361 . S
C4903 C4904 1.393 . S
C4903 N4907 1.413 . S
C4904 H4897 0.930 . S
C4904 C4903 1.393 . S
C4904 C4905 1.399 . S
C4905 C4904 1.399 . S
C4905 C4906 1.381 . S
C4906 H4898 0.930 . S
C4906 C4902 1.390 . S
C4906 C4905 1.381 . S
N4907 C4900 1.286 . S
N4907 C4903 1.413 . S
H4908 C4913 0.930 . S
H4909 C4916 0.930 . S
H4910 C4918 0.930 . S
H4911 C4912 1.016 . S
C4912 H4911 1.016 . S
C4912 N4919 1.286 . S
C4913 H4908 0.930 . S
C4913 C4914 1.397 . S
C4913 C4915 1.361 . S
C4914 C4913 1.397 . S
C4914 C4918 1.390 . S
C4915 C4913 1.361 . S
C4915 C4916 1.393 . S
C4915 N4919 1.413 . S
C4916 H4909 0.930 . S
C4916 C4915 1.393 . S
C4916 C4917 1.399 . S
C4917 C4916 1.399 . S
C4917 C4918 1.381 . S
C4918 H4910 0.930 . S
C4918 C4914 1.390 . S
C4918 C4917 1.381 . S
N4919 C4912 1.286 . S
N4919 C4915 1.413 . S
H4920 C4925 0.930 . S
H4921 C4928 0.930 . S
H4922 C4930 0.930 . S
H4923 C4924 1.016 . S
C4924 H4923 1.016 . S
C4924 N4931 1.286 . S
C4925 H4920 0.930 . S
C4925 C4926 1.397 . S
C4925 C4927 1.361 . S
C4926 C4925 1.397 . S
C4926 C4930 1.390 . S
C4927 C4925 1.361 . S
C4927 C4928 1.393 . S
C4927 N4931 1.413 . S
C4928 H4921 0.930 . S
C4928 C4927 1.393 . S
C4928 C4929 1.399 . S
C4929 C4928 1.399 . S
C4929 C4930 1.381 . S
C4930 H4922 0.930 . S
C4930 C4926 1.390 . S
C4930 C4929 1.381 . S
N4931 C4924 1.286 . S
N4931 C4927 1.413 . S
H4932 C4937 0.930 . S
H4933 C4940 0.930 . S
H4934 C4942 0.930 . S
H4935 C4936 1.016 . S
C4936 H4935 1.016 . S
C4936 N4943 1.286 . S
C4937 H4932 0.930 . S
C4937 C4938 1.397 . S
C4937 C4939 1.361 . S
C4938 C4937 1.397 . S
C4938 C4942 1.390 . S
C4939 C4937 1.361 . S
C4939 C4940 1.393 . S
C4939 N4943 1.413 . S
C4940 H4933 0.930 . S
C4940 C4939 1.393 . S
C4940 C4941 1.399 . S
C4941 C4940 1.399 . S
C4941 C4942 1.381 . S
C4942 H4934 0.930 . S
C4942 C4938 1.390 . S
C4942 C4941 1.381 . S
N4943 C4936 1.286 . S
N4943 C4939 1.413 . S
H4944 C4949 0.930 . S
H4945 C4952 0.930 . S
H4946 C4954 0.930 . S
H4947 C4948 1.016 . S
C4948 H4947 1.016 . S
C4948 N4955 1.286 . S
C4949 H4944 0.930 . S
C4949 C4950 1.397 . S
C4949 C4951 1.361 . S
C4950 C4949 1.397 . S
C4950 C4954 1.390 . S
C4951 C4949 1.361 . S
C4951 C4952 1.393 . S
C4951 N4955 1.413 . S
C4952 H4945 0.930 . S
C4952 C4951 1.393 . S
C4952 C4953 1.399 . S
C4953 C4952 1.399 . S
C4953 C4954 1.381 . S
C4954 H4946 0.930 . S
C4954 C4950 1.390 . S
C4954 C4953 1.381 . S
N4955 C4948 1.286 . S
N4955 C4951 1.413 . S
H4956 C4961 0.930 . S
H4957 C4964 0.930 . S
H4958 C4966 0.930 . S
H4959 C4960 1.016 . S
C4960 H4959 1.016 . S
C4960 N4967 1.286 . S
C4961 H4956 0.930 . S
C4961 C4962 1.397 . S
C4961 C4963 1.361 . S
C4962 C4961 1.397 . S
C4962 C4966 1.390 . S
C4963 C4961 1.361 . S
C4963 C4964 1.393 . S
C4963 N4967 1.413 . S
C4964 H4957 0.930 . S
C4964 C4963 1.393 . S
C4964 C4965 1.399 . S
C4965 C4964 1.399 . S
C4965 C4966 1.381 . S
C4966 H4958 0.930 . S
C4966 C4962 1.390 . S
C4966 C4965 1.381 . S
N4967 C4960 1.286 . S
N4967 C4963 1.413 . S
H4968 C4973 0.930 . S
H4969 C4976 0.930 . S
H4970 C4978 0.930 . S
H4971 C4972 1.016 . S
C4972 H4971 1.016 . S
C4972 N4979 1.286 . S
C4973 H4968 0.930 . S
C4973 C4974 1.397 . S
C4973 C4975 1.361 . S
C4974 C4973 1.397 . S
C4974 C4978 1.390 . S
C4975 C4973 1.361 . S
C4975 C4976 1.393 . S
C4975 N4979 1.413 . S
C4976 H4969 0.930 . S
C4976 C4975 1.393 . S
C4976 C4977 1.399 . S
C4977 C4976 1.399 . S
C4977 C4978 1.381 . S
C4978 H4970 0.930 . S
C4978 C4974 1.390 . S
C4978 C4977 1.381 . S
N4979 C4972 1.286 . S
N4979 C4975 1.413 . S
H4980 C4985 0.930 . S
H4981 C4988 0.930 . S
H4982 C4990 0.930 . S
H4983 C4984 1.016 . S
C4984 H4983 1.016 . S
C4984 N4991 1.286 . S
C4985 H4980 0.930 . S
C4985 C4986 1.397 . S
C4985 C4987 1.361 . S
C4986 C4985 1.397 . S
C4986 C4990 1.390 . S
C4987 C4985 1.361 . S
C4987 C4988 1.393 . S
C4987 N4991 1.413 . S
C4988 H4981 0.930 . S
C4988 C4987 1.393 . S
C4988 C4989 1.399 . S
C4989 C4988 1.399 . S
C4989 C4990 1.381 . S
C4990 H4982 0.930 . S
C4990 C4986 1.390 . S
C4990 C4989 1.381 . S
N4991 C4984 1.286 . S
N4991 C4987 1.413 . S
H4992 C5000 0.950 . S
H4993 C5005 0.950 . S
H4994 C5002 0.950 . S
H4995 C5004 0.950 . S
H4996 C5006 0.950 . S
H4997 C5008 0.854 1_455 S
H4998 C5010 0.950 . S
H4999 C5011 0.950 . S
C5000 H4992 0.950 . S
C5000 C5001 1.386 . S
C5000 C5002 1.391 . S
C5001 C5000 1.386 . S
C5001 C5005 1.393 . S
C5002 H4994 0.950 . S
C5002 C5000 1.391 . S
C5002 C5003 1.400 . S
C5003 C5002 1.400 . S
C5003 C5004 1.398 . S
C5003 C5009 1.620 . S
C5004 H4995 0.950 . S
C5004 C5003 1.398 . S
C5004 C5005 1.391 . S
C5005 H4993 0.950 . S
C5005 C5001 1.393 . S
C5005 C5004 1.391 . S
C5006 H4996 0.950 . S
C5006 C5007 1.386 . S
C5006 C5008 1.526 . S
C5007 C5006 1.386 . S
C5007 C5011 1.393 . S
C5008 H4997 0.854 1_655 S
C5008 C5006 1.526 . S
C5008 C5009 1.363 1_655 S
C5009 C5003 1.620 . S
C5009 C5008 1.363 1_455 S
C5009 C5010 1.300 1_455 S
C5010 H4998 0.950 . S
C5010 C5009 1.300 1_655 S
C5010 C5011 1.391 . S
C5011 H4999 0.950 . S
C5011 C5007 1.393 . S
C5011 C5010 1.391 . S
H5012 C5020 0.950 . S
H5013 C5025 0.950 . S
H5014 C5022 0.950 . S
H5015 C5024 0.950 . S
H5016 C5026 0.950 . S
H5017 C5028 0.950 . S
H5018 C5030 0.950 . S
H5019 C5031 0.950 . S
C5020 H5012 0.950 . S
C5020 C5021 1.386 . S
C5020 C5022 1.391 . S
C5021 C5020 1.386 . S
C5021 C5025 1.393 . S
C5022 H5014 0.950 . S
C5022 C5020 1.391 . S
C5022 C5023 1.400 . S
C5023 C5022 1.400 . S
C5023 C5024 1.398 . S
C5023 C5029 1.491 . S
C5024 H5015 0.950 . S
C5024 C5023 1.398 . S
C5024 C5025 1.391 . S
C5025 H5013 0.950 . S
C5025 C5021 1.393 . S
C5025 C5024 1.391 . S
C5026 H5016 0.950 . S
C5026 C5027 1.386 . S
C5026 C5028 1.391 . S
C5027 C5026 1.386 . S
C5027 C5031 1.393 . S
C5028 H5017 0.950 . S
C5028 C5026 1.391 . S
C5028 C5029 1.400 . S
C5029 C5023 1.491 . S
C5029 C5028 1.400 . S
C5029 C5030 1.398 . S
C5030 H5018 0.950 . S
C5030 C5029 1.398 . S
C5030 C5031 1.391 . S
C5031 H5019 0.950 . S
C5031 C5027 1.393 . S
C5031 C5030 1.391 . S
H5032 C5040 0.950 . S
H5033 C5045 0.950 . S
H5034 C5042 0.950 . S
H5035 C5044 0.950 . S
H5036 C5046 0.950 . S
H5037 C5048 0.950 . S
H5038 C5050 0.950 . S
H5039 C5051 0.950 . S
C5040 H5032 0.950 . S
C5040 C5041 1.386 . S
C5040 C5042 1.391 . S
C5041 C5040 1.386 . S
C5041 C5045 1.393 . S
C5042 H5034 0.950 . S
C5042 C5040 1.391 . S
C5042 C5043 1.400 . S
C5043 C5042 1.400 . S
C5043 C5044 1.398 . S
C5043 C5049 1.491 . S
C5044 H5035 0.950 . S
C5044 C5043 1.398 . S
C5044 C5045 1.391 . S
C5045 H5033 0.950 . S
C5045 C5041 1.393 . S
C5045 C5044 1.391 . S
C5046 H5036 0.950 . S
C5046 C5047 1.386 . S
C5046 C5048 1.391 . S
C5047 C5046 1.386 . S
C5047 C5051 1.393 . S
C5048 H5037 0.950 . S
C5048 C5046 1.391 . S
C5048 C5049 1.400 . S
C5049 C5043 1.491 . S
C5049 C5048 1.400 . S
C5049 C5050 1.398 . S
C5050 H5038 0.950 . S
C5050 C5049 1.398 . S
C5050 C5051 1.391 . S
C5051 H5039 0.950 . S
C5051 C5047 1.393 . S
C5051 C5050 1.391 . S
H5052 C5060 0.950 . S
H5053 C5065 0.950 . S
H5054 C5062 0.950 . S
H5055 C5064 0.950 . S
H5056 C5066 0.950 . S
H5057 C5068 0.950 . S
H5058 C5070 0.950 . S
H5059 C5071 0.950 . S
C5060 H5052 0.950 . S
C5060 C5061 1.386 . S
C5060 C5062 1.391 . S
C5061 C5060 1.386 . S
C5061 C5065 1.393 . S
C5062 H5054 0.950 . S
C5062 C5060 1.391 . S
C5062 C5063 1.400 . S
C5063 C5062 1.400 . S
C5063 C5064 1.398 . S
C5063 C5069 1.491 . S
C5064 H5055 0.950 . S
C5064 C5063 1.398 . S
C5064 C5065 1.391 . S
C5065 H5053 0.950 . S
C5065 C5061 1.393 . S
C5065 C5064 1.391 . S
C5066 H5056 0.950 . S
C5066 C5067 1.386 . S
C5066 C5068 1.391 . S
C5067 C5066 1.386 . S
C5067 C5071 1.393 . S
C5068 H5057 0.950 . S
C5068 C5066 1.391 . S
C5068 C5069 1.400 . S
C5069 C5063 1.491 . S
C5069 C5068 1.400 . S
C5069 C5070 1.398 . S
C5070 H5058 0.950 . S
C5070 C5069 1.398 . S
C5070 C5071 1.391 . S
C5071 H5059 0.950 . S
C5071 C5067 1.393 . S
C5071 C5070 1.391 . S
H5072 C5080 0.950 . S
H5073 C5085 0.950 . S
H5074 C5082 0.950 . S
H5075 C5084 0.950 . S
H5076 C5086 0.950 . S
H5077 C5088 0.950 1_455 S
H5078 C5090 0.950 . S
H5079 C5091 0.950 . S
C5080 H5072 0.950 . S
C5080 C5081 1.386 . S
C5080 C5082 1.391 . S
C5081 C5080 1.386 . S
C5081 C5085 1.393 . S
C5082 H5074 0.950 . S
C5082 C5080 1.391 . S
C5082 C5083 1.400 . S
C5083 C5082 1.400 . S
C5083 C5084 1.398 . S
C5083 C5089 1.619 . S
C5084 H5075 0.950 . S
C5084 C5083 1.398 . S
C5084 C5085 1.391 . S
C5085 H5073 0.950 . S
C5085 C5081 1.393 . S
C5085 C5084 1.391 . S
C5086 H5076 0.950 . S
C5086 C5087 1.386 . S
C5086 C5088 1.391 . S
C5087 C5086 1.386 . S
C5087 C5091 1.393 . S
C5088 H5077 0.950 1_655 S
C5088 C5086 1.391 . S
C5088 C5089 1.363 1_655 S
C5089 C5083 1.619 . S
C5089 C5088 1.363 1_455 S
C5089 C5090 1.313 1_455 S
C5090 H5078 0.950 . S
C5090 C5089 1.313 1_655 S
C5090 C5091 1.391 . S
C5091 H5079 0.950 . S
C5091 C5087 1.393 . S
C5091 C5090 1.391 . S
H5092 C5100 0.950 . S
H5093 C5105 0.950 . S
H5094 C5102 0.950 . S
H5095 C5104 0.950 . S
H5096 C5106 0.950 . S
H5097 C5108 0.950 . S
H5098 C5110 0.950 . S
H5099 C5111 0.950 . S
C5100 H5092 0.950 . S
C5100 C5101 1.386 . S
C5100 C5102 1.391 . S
C5101 C5100 1.386 . S
C5101 C5105 1.393 . S
C5102 H5094 0.950 . S
C5102 C5100 1.391 . S
C5102 C5103 1.400 . S
C5103 C5102 1.400 . S
C5103 C5104 1.398 . S
C5103 C5109 1.491 . S
C5104 H5095 0.950 . S
C5104 C5103 1.398 . S
C5104 C5105 1.391 . S
C5105 H5093 0.950 . S
C5105 C5101 1.393 . S
C5105 C5104 1.391 . S
C5106 H5096 0.950 . S
C5106 C5107 1.386 . S
C5106 C5108 1.391 . S
C5107 C5106 1.386 . S
C5107 C5111 1.393 . S
C5108 H5097 0.950 . S
C5108 C5106 1.391 . S
C5108 C5109 1.400 . S
C5109 C5103 1.491 . S
C5109 C5108 1.400 . S
C5109 C5110 1.398 . S
C5110 H5098 0.950 . S
C5110 C5109 1.398 . S
C5110 C5111 1.391 . S
C5111 H5099 0.950 . S
C5111 C5107 1.393 . S
C5111 C5110 1.391 . S
H5112 C5120 0.950 . S
H5113 C5125 0.950 . S
H5114 C5122 0.950 . S
H5115 C5124 0.950 . S
H5116 C5126 0.950 . S
H5117 C5128 0.950 . S
H5118 C5130 0.950 . S
H5119 C5131 0.950 . S
C5120 H5112 0.950 . S
C5120 C5121 1.386 . S
C5120 C5122 1.391 . S
C5121 C5120 1.386 . S
C5121 C5125 1.393 . S
C5122 H5114 0.950 . S
C5122 C5120 1.391 . S
C5122 C5123 1.400 . S
C5123 C5122 1.400 . S
C5123 C5124 1.398 . S
C5123 C5129 1.491 . S
C5124 H5115 0.950 . S
C5124 C5123 1.398 . S
C5124 C5125 1.391 . S
C5125 H5113 0.950 . S
C5125 C5121 1.393 . S
C5125 C5124 1.391 . S
C5126 H5116 0.950 . S
C5126 C5127 1.386 . S
C5126 C5128 1.391 . S
C5127 C5126 1.386 . S
C5127 C5131 1.393 . S
C5128 H5117 0.950 . S
C5128 C5126 1.391 . S
C5128 C5129 1.400 . S
C5129 C5123 1.491 . S
C5129 C5128 1.400 . S
C5129 C5130 1.398 . S
C5130 H5118 0.950 . S
C5130 C5129 1.398 . S
C5130 C5131 1.391 . S
C5131 H5119 0.950 . S
C5131 C5127 1.393 . S
C5131 C5130 1.391 . S
H5132 C5140 0.950 . S
H5133 C5145 0.950 . S
H5134 C5142 0.950 . S
H5135 C5144 0.950 . S
H5136 C5146 0.950 . S
H5137 C5148 0.950 . S
H5138 C5150 0.950 . S
H5139 C5151 0.950 . S
C5140 H5132 0.950 . S
C5140 C5141 1.386 . S
C5140 C5142 1.391 . S
C5141 C5140 1.386 . S
C5141 C5145 1.393 . S
C5142 H5134 0.950 . S
C5142 C5140 1.391 . S
C5142 C5143 1.400 . S
C5143 C5142 1.400 . S
C5143 C5144 1.398 . S
C5143 C5149 1.491 . S
C5144 H5135 0.950 . S
C5144 C5143 1.398 . S
C5144 C5145 1.391 . S
C5145 H5133 0.950 . S
C5145 C5141 1.393 . S
C5145 C5144 1.391 . S
C5146 H5136 0.950 . S
C5146 C5147 1.386 . S
C5146 C5148 1.391 . S
C5147 C5146 1.386 . S
C5147 C5151 1.393 . S
C5148 H5137 0.950 . S
C5148 C5146 1.391 . S
C5148 C5149 1.400 . S
C5149 C5143 1.491 . S
C5149 C5148 1.400 . S
C5149 C5150 1.398 . S
C5150 H5138 0.950 . S
C5150 C5149 1.398 . S
C5150 C5151 1.391 . S
C5151 H5139 0.950 . S
C5151 C5147 1.393 . S
C5151 C5150 1.391 . S
H5152 C5160 0.950 . S
H5153 C5165 0.950 . S
H5154 C5162 0.950 . S
H5155 C5164 0.950 . S
H5156 C5166 0.950 . S
H5157 C5168 0.921 1_545 S
H5158 C5170 0.950 . S
H5159 C5171 0.950 . S
C5160 H5152 0.950 . S
C5160 C5161 1.386 . S
C5160 C5162 1.391 . S
C5161 C5160 1.386 . S
C5161 C5165 1.393 . S
C5162 H5154 0.950 . S
C5162 C5160 1.391 . S
C5162 C5163 1.400 . S
C5163 C5162 1.400 . S
C5163 C5164 1.398 . S
C5163 C5169 1.629 . S
C5164 H5155 0.950 . S
C5164 C5163 1.398 . S
C5164 C5165 1.391 . S
C5165 H5153 0.950 . S
C5165 C5161 1.393 . S
C5165 C5164 1.391 . S
C5166 H5156 0.950 . S
C5166 C5167 1.386 . S
C5166 C5168 1.425 . S
C5167 C5166 1.386 . S
C5167 C5171 1.393 . S
C5168 H5157 0.921 1_565 S
C5168 C5166 1.425 . S
C5168 C5169 1.382 1_565 S
C5169 C5163 1.629 . S
C5169 C5168 1.382 1_545 S
C5169 C5170 1.284 1_545 S
C5170 H5158 0.950 . S
C5170 C5169 1.284 1_565 S
C5170 C5171 1.391 . S
C5171 H5159 0.950 . S
C5171 C5167 1.393 . S
C5171 C5170 1.391 . S
H5172 C5180 0.950 . S
H5173 C5185 0.950 . S
H5174 C5182 0.950 . S
H5175 C5184 0.950 . S
H5176 C5186 0.950 . S
H5177 C5188 0.950 . S
H5178 C5190 0.950 . S
H5179 C5191 0.950 . S
C5180 H5172 0.950 . S
C5180 C5181 1.386 . S
C5180 C5182 1.391 . S
C5181 C5180 1.386 . S
C5181 C5185 1.393 . S
C5182 H5174 0.950 . S
C5182 C5180 1.391 . S
C5182 C5183 1.400 . S
C5183 C5182 1.400 . S
C5183 C5184 1.398 . S
C5183 C5189 1.491 . S
C5184 H5175 0.950 . S
C5184 C5183 1.398 . S
C5184 C5185 1.391 . S
C5185 H5173 0.950 . S
C5185 C5181 1.393 . S
C5185 C5184 1.391 . S
C5186 H5176 0.950 . S
C5186 C5187 1.386 . S
C5186 C5188 1.391 . S
C5187 C5186 1.386 . S
C5187 C5191 1.393 . S
C5188 H5177 0.950 . S
C5188 C5186 1.391 . S
C5188 C5189 1.400 . S
C5189 C5183 1.491 . S
C5189 C5188 1.400 . S
C5189 C5190 1.398 . S
C5190 H5178 0.950 . S
C5190 C5189 1.398 . S
C5190 C5191 1.391 . S
C5191 H5179 0.950 . S
C5191 C5187 1.393 . S
C5191 C5190 1.391 . S
H5192 C5200 0.950 . S
H5193 C5205 0.950 . S
H5194 C5202 0.950 . S
H5195 C5204 0.950 . S
H5196 C5206 0.950 . S
H5197 C5208 0.891 1_565 S
H5198 C5210 0.950 . S
H5199 C5211 0.950 . S
C5200 H5192 0.950 . S
C5200 C5201 1.386 . S
C5200 C5202 1.391 . S
C5201 C5200 1.386 . S
C5201 C5205 1.393 . S
C5202 H5194 0.950 . S
C5202 C5200 1.391 . S
C5202 C5203 1.400 . S
C5203 C5202 1.400 . S
C5203 C5204 1.398 . S
C5203 C5209 1.633 . S
C5204 H5195 0.950 . S
C5204 C5203 1.398 . S
C5204 C5205 1.391 . S
C5205 H5193 0.950 . S
C5205 C5201 1.393 . S
C5205 C5204 1.391 . S
C5206 H5196 0.950 . S
C5206 C5207 1.386 . S
C5206 C5208 1.391 . S
C5207 C5206 1.386 . S
C5207 C5211 1.393 . S
C5208 H5197 0.891 1_545 S
C5208 C5206 1.391 . S
C5208 C5209 1.347 1_545 S
C5209 C5203 1.633 . S
C5209 C5208 1.347 1_565 S
C5209 C5210 1.319 1_565 S
C5210 H5198 0.950 . S
C5210 C5209 1.319 1_545 S
C5210 C5211 1.391 . S
C5211 H5199 0.950 . S
C5211 C5207 1.393 . S
C5211 C5210 1.391 . S
H5212 C5220 0.950 . S
H5213 C5225 0.950 . S
H5214 C5222 0.950 . S
H5215 C5224 0.950 . S
H5216 C5226 0.950 . S
H5217 C5228 0.950 . S
H5218 C5230 0.950 . S
H5219 C5231 0.950 . S
C5220 H5212 0.950 . S
C5220 C5221 1.386 . S
C5220 C5222 1.391 . S
C5221 C5220 1.386 . S
C5221 C5225 1.393 . S
C5222 H5214 0.950 . S
C5222 C5220 1.391 . S
C5222 C5223 1.400 . S
C5223 C5222 1.400 . S
C5223 C5224 1.398 . S
C5223 C5229 1.491 . S
C5224 H5215 0.950 . S
C5224 C5223 1.398 . S
C5224 C5225 1.391 . S
C5225 H5213 0.950 . S
C5225 C5221 1.393 . S
C5225 C5224 1.391 . S
C5226 H5216 0.950 . S
C5226 C5227 1.386 . S
C5226 C5228 1.391 . S
C5227 C5226 1.386 . S
C5227 C5231 1.393 . S
C5228 H5217 0.950 . S
C5228 C5226 1.391 . S
C5228 C5229 1.400 . S
C5229 C5223 1.491 . S
C5229 C5228 1.400 . S
C5229 C5230 1.398 . S
C5230 H5218 0.950 . S
C5230 C5229 1.398 . S
C5230 C5231 1.391 . S
C5231 H5219 0.950 . S
C5231 C5227 1.393 . S
C5231 C5230 1.391 . S
H5232 C5240 0.950 . S
H5233 C5245 0.950 . S
H5234 C5242 0.950 . S
H5235 C5244 0.950 . S
H5236 C5246 0.950 . S
H5237 C5248 0.950 . S
H5238 C5250 0.878 1_565 S
H5239 C5251 0.950 . S
C5240 H5232 0.950 . S
C5240 C5241 1.386 . S
C5240 C5242 1.391 . S
C5241 C5240 1.386 . S
C5241 C5245 1.393 . S
C5242 H5234 0.950 . S
C5242 C5240 1.391 . S
C5242 C5243 1.400 . S
C5243 C5242 1.400 . S
C5243 C5244 1.398 . S
C5243 C5249 1.632 . S
C5244 H5235 0.950 . S
C5244 C5243 1.398 . S
C5244 C5245 1.391 . S
C5245 H5233 0.950 . S
C5245 C5241 1.393 . S
C5245 C5244 1.391 . S
C5246 H5236 0.950 . S
C5246 C5247 1.386 . S
C5246 C5248 1.391 . S
C5247 C5246 1.386 . S
C5247 C5251 1.393 . S
C5248 H5237 0.950 . S
C5248 C5246 1.391 . S
C5248 C5249 1.292 1_545 S
C5249 C5243 1.632 . S
C5249 C5248 1.292 1_565 S
C5249 C5250 1.367 1_565 S
C5250 H5238 0.878 1_545 S
C5250 C5249 1.367 1_545 S
C5250 C5251 1.487 . S
C5251 H5239 0.950 . S
C5251 C5247 1.393 . S
C5251 C5250 1.487 . S
H5252 C5260 0.950 . S
H5253 C5265 0.950 . S
H5254 C5262 0.950 . S
H5255 C5264 0.950 . S
H5256 C5266 0.950 . S
H5257 C5268 0.950 . S
H5258 C5270 0.950 . S
H5259 C5271 0.950 . S
C5260 H5252 0.950 . S
C5260 C5261 1.386 . S
C5260 C5262 1.391 . S
C5261 C5260 1.386 . S
C5261 C5265 1.393 . S
C5262 H5254 0.950 . S
C5262 C5260 1.391 . S
C5262 C5263 1.400 . S
C5263 C5262 1.400 . S
C5263 C5264 1.398 . S
C5263 C5269 1.491 . S
C5264 H5255 0.950 . S
C5264 C5263 1.398 . S
C5264 C5265 1.391 . S
C5265 H5253 0.950 . S
C5265 C5261 1.393 . S
C5265 C5264 1.391 . S
C5266 H5256 0.950 . S
C5266 C5267 1.386 . S
C5266 C5268 1.391 . S
C5267 C5266 1.386 . S
C5267 C5271 1.393 . S
C5268 H5257 0.950 . S
C5268 C5266 1.391 . S
C5268 C5269 1.400 . S
C5269 C5263 1.491 . S
C5269 C5268 1.400 . S
C5269 C5270 1.398 . S
C5270 H5258 0.950 . S
C5270 C5269 1.398 . S
C5270 C5271 1.391 . S
C5271 H5259 0.950 . S
C5271 C5267 1.393 . S
C5271 C5270 1.391 . S
H5272 C5280 0.950 . S
H5273 C5285 0.950 . S
H5274 C5282 0.950 . S
H5275 C5284 0.950 . S
H5276 C5286 0.950 . S
H5277 C5288 0.950 . S
H5278 C5290 0.929 1_545 S
H5279 C5291 0.950 . S
C5280 H5272 0.950 . S
C5280 C5281 1.386 . S
C5280 C5282 1.391 . S
C5281 C5280 1.386 . S
C5281 C5285 1.393 . S
C5282 H5274 0.950 . S
C5282 C5280 1.391 . S
C5282 C5283 1.400 . S
C5283 C5282 1.400 . S
C5283 C5284 1.398 . S
C5283 C5289 1.624 . S
C5284 H5275 0.950 . S
C5284 C5283 1.398 . S
C5284 C5285 1.391 . S
C5285 H5273 0.950 . S
C5285 C5281 1.393 . S
C5285 C5284 1.391 . S
C5286 H5276 0.950 . S
C5286 C5287 1.386 . S
C5286 C5288 1.391 . S
C5287 C5286 1.386 . S
C5287 C5291 1.393 . S
C5288 H5277 0.950 . S
C5288 C5286 1.391 . S
C5288 C5289 1.287 1_565 S
C5289 C5283 1.624 . S
C5289 C5288 1.287 1_545 S
C5289 C5290 1.383 1_545 S
C5290 H5278 0.929 1_565 S
C5290 C5289 1.383 1_565 S
C5290 C5291 1.416 . S
C5291 H5279 0.950 . S
C5291 C5287 1.393 . S
C5291 C5290 1.416 . S
H5292 C5300 0.950 . S
H5293 C5305 0.950 . S
H5294 C5302 0.950 . S
H5295 C5304 0.950 . S
H5296 C5306 0.950 . S
H5297 C5308 0.950 . S
H5298 C5310 0.950 . S
H5299 C5311 0.950 . S
C5300 H5292 0.950 . S
C5300 C5301 1.386 . S
C5300 C5302 1.391 . S
C5301 C5300 1.386 . S
C5301 C5305 1.393 . S
C5302 H5294 0.950 . S
C5302 C5300 1.391 . S
C5302 C5303 1.400 . S
C5303 C5302 1.400 . S
C5303 C5304 1.398 . S
C5303 C5309 1.491 . S
C5304 H5295 0.950 . S
C5304 C5303 1.398 . S
C5304 C5305 1.391 . S
C5305 H5293 0.950 . S
C5305 C5301 1.393 . S
C5305 C5304 1.391 . S
C5306 H5296 0.950 . S
C5306 C5307 1.386 . S
C5306 C5308 1.391 . S
C5307 C5306 1.386 . S
C5307 C5311 1.393 . S
C5308 H5297 0.950 . S
C5308 C5306 1.391 . S
C5308 C5309 1.400 . S
C5309 C5303 1.491 . S
C5309 C5308 1.400 . S
C5309 C5310 1.398 . S
C5310 H5298 0.950 . S
C5310 C5309 1.398 . S
C5310 C5311 1.391 . S
C5311 H5299 0.950 . S
C5311 C5307 1.393 . S
C5311 C5310 1.391 . S
H5312 C5320 0.950 . S
H5313 C5325 0.950 . S
H5314 C5322 0.950 . S
H5315 C5324 0.950 . S
H5316 C5326 0.950 . S
H5317 C5328 0.949 1_554 S
H5318 C5330 0.950 . S
H5319 C5331 0.950 . S
C5320 H5312 0.950 . S
C5320 C5321 1.386 . S
C5320 C5322 1.391 . S
C5321 C5320 1.386 . S
C5321 C5325 1.393 . S
C5322 H5314 0.950 . S
C5322 C5320 1.391 . S
C5322 C5323 1.400 . S
C5323 C5322 1.400 . S
C5323 C5324 1.398 . S
C5323 C5329 1.625 . S
C5324 H5315 0.950 . S
C5324 C5323 1.398 . S
C5324 C5325 1.391 . S
C5325 H5313 0.950 . S
C5325 C5321 1.393 . S
C5325 C5324 1.391 . S
C5326 H5316 0.950 . S
C5326 C5327 1.386 . S
C5326 C5328 1.392 . S
C5327 C5326 1.386 . S
C5327 C5331 1.393 . S
C5328 H5317 0.949 1_556 S
C5328 C5326 1.392 . S
C5328 C5329 1.388 1_556 S
C5329 C5323 1.625 . S
C5329 C5328 1.388 1_554 S
C5329 C5330 1.281 1_554 S
C5330 H5318 0.950 . S
C5330 C5329 1.281 1_556 S
C5330 C5331 1.391 . S
C5331 H5319 0.950 . S
C5331 C5327 1.393 . S
C5331 C5330 1.391 . S
H5332 C5340 0.950 . S
H5333 C5345 0.950 . S
H5334 C5342 0.950 . S
H5335 C5344 0.950 . S
H5336 C5346 0.950 . S
H5337 C5348 0.950 . S
H5338 C5350 0.950 1_556 S
H5339 C5351 0.950 . S
C5340 H5332 0.950 . S
C5340 C5341 1.386 . S
C5340 C5342 1.391 . S
C5341 C5340 1.386 . S
C5341 C5345 1.393 . S
C5342 H5334 0.950 . S
C5342 C5340 1.391 . S
C5342 C5343 1.400 . S
C5343 C5342 1.400 . S
C5343 C5344 1.398 . S
C5343 C5349 1.633 . S
C5344 H5335 0.950 . S
C5344 C5343 1.398 . S
C5344 C5345 1.391 . S
C5345 H5333 0.950 . S
C5345 C5341 1.393 . S
C5345 C5344 1.391 . S
C5346 H5336 0.950 . S
C5346 C5347 1.386 . S
C5346 C5348 1.391 . S
C5347 C5346 1.386 . S
C5347 C5351 1.393 . S
C5348 H5337 0.950 . S
C5348 C5346 1.391 . S
C5348 C5349 1.310 1_554 S
C5349 C5343 1.633 . S
C5349 C5348 1.310 1_556 S
C5349 C5350 1.356 1_556 S
C5350 H5338 0.950 1_554 S
C5350 C5349 1.356 1_554 S
C5350 C5351 1.391 . S
C5351 H5339 0.950 . S
C5351 C5347 1.393 . S
C5351 C5350 1.391 . S
H5352 C5360 0.950 . S
H5353 C5365 0.950 . S
H5354 C5362 0.950 . S
H5355 C5364 0.950 . S
H5356 C5366 0.950 . S
H5357 C5368 0.950 . S
H5358 C5370 0.950 . S
H5359 C5371 0.950 . S
C5360 H5352 0.950 . S
C5360 C5361 1.386 . S
C5360 C5362 1.391 . S
C5361 C5360 1.386 . S
C5361 C5365 1.393 . S
C5362 H5354 0.950 . S
C5362 C5360 1.391 . S
C5362 C5363 1.400 . S
C5363 C5362 1.400 . S
C5363 C5364 1.398 . S
C5363 C5369 1.491 . S
C5364 H5355 0.950 . S
C5364 C5363 1.398 . S
C5364 C5365 1.391 . S
C5365 H5353 0.950 . S
C5365 C5361 1.393 . S
C5365 C5364 1.391 . S
C5366 H5356 0.950 . S
C5366 C5367 1.386 . S
C5366 C5368 1.391 . S
C5367 C5366 1.386 . S
C5367 C5371 1.393 . S
C5368 H5357 0.950 . S
C5368 C5366 1.391 . S
C5368 C5369 1.400 . S
C5369 C5363 1.491 . S
C5369 C5368 1.400 . S
C5369 C5370 1.398 . S
C5370 H5358 0.950 . S
C5370 C5369 1.398 . S
C5370 C5371 1.391 . S
C5371 H5359 0.950 . S
C5371 C5367 1.393 . S
C5371 C5370 1.391 . S
H5372 C5380 0.950 . S
H5373 C5385 0.950 . S
H5374 C5382 0.950 . S
H5375 C5384 0.950 . S
H5376 C5386 0.950 . S
H5377 C5388 0.950 . S
H5378 C5390 0.950 . S
H5379 C5391 0.950 . S
C5380 H5372 0.950 . S
C5380 C5381 1.386 . S
C5380 C5382 1.391 . S
C5381 C5380 1.386 . S
C5381 C5385 1.393 . S
C5382 H5374 0.950 . S
C5382 C5380 1.391 . S
C5382 C5383 1.400 . S
C5383 C5382 1.400 . S
C5383 C5384 1.398 . S
C5383 C5389 1.491 . S
C5384 H5375 0.950 . S
C5384 C5383 1.398 . S
C5384 C5385 1.391 . S
C5385 H5373 0.950 . S
C5385 C5381 1.393 . S
C5385 C5384 1.391 . S
C5386 H5376 0.950 . S
C5386 C5387 1.386 . S
C5386 C5388 1.391 . S
C5387 C5386 1.386 . S
C5387 C5391 1.393 . S
C5388 H5377 0.950 . S
C5388 C5386 1.391 . S
C5388 C5389 1.400 . S
C5389 C5383 1.491 . S
C5389 C5388 1.400 . S
C5389 C5390 1.398 . S
C5390 H5378 0.950 . S
C5390 C5389 1.398 . S
C5390 C5391 1.391 . S
C5391 H5379 0.950 . S
C5391 C5387 1.393 . S
C5391 C5390 1.391 . S
H5392 C5400 0.950 . S
H5393 C5405 0.950 . S
H5394 C5402 0.950 . S
H5395 C5404 0.950 . S
H5396 C5406 0.950 . S
H5397 C5408 0.950 . S
H5398 C5410 0.950 . S
H5399 C5411 0.950 . S
C5400 H5392 0.950 . S
C5400 C5401 1.386 . S
C5400 C5402 1.391 . S
C5401 C5400 1.386 . S
C5401 C5405 1.393 . S
C5402 H5394 0.950 . S
C5402 C5400 1.391 . S
C5402 C5403 1.400 . S
C5403 C5402 1.400 . S
C5403 C5404 1.398 . S
C5403 C5409 1.491 . S
C5404 H5395 0.950 . S
C5404 C5403 1.398 . S
C5404 C5405 1.391 . S
C5405 H5393 0.950 . S
C5405 C5401 1.393 . S
C5405 C5404 1.391 . S
C5406 H5396 0.950 . S
C5406 C5407 1.386 . S
C5406 C5408 1.391 . S
C5407 C5406 1.386 . S
C5407 C5411 1.393 . S
C5408 H5397 0.950 . S
C5408 C5406 1.391 . S
C5408 C5409 1.400 . S
C5409 C5403 1.491 . S
C5409 C5408 1.400 . S
C5409 C5410 1.398 . S
C5410 H5398 0.950 . S
C5410 C5409 1.398 . S
C5410 C5411 1.391 . S
C5411 H5399 0.950 . S
C5411 C5407 1.393 . S
C5411 C5410 1.391 . S
H5412 C5420 0.950 . S
H5413 C5425 0.950 . S
H5414 C5422 0.950 . S
H5415 C5424 0.950 . S
H5416 C5426 0.950 . S
H5417 C5428 0.950 . S
H5418 C5430 0.950 . S
H5419 C5431 0.950 . S
C5420 H5412 0.950 . S
C5420 C5421 1.386 . S
C5420 C5422 1.391 . S
C5421 C5420 1.386 . S
C5421 C5425 1.393 . S
C5422 H5414 0.950 . S
C5422 C5420 1.391 . S
C5422 C5423 1.400 . S
C5423 C5422 1.400 . S
C5423 C5424 1.398 . S
C5423 C5429 1.491 . S
C5424 H5415 0.950 . S
C5424 C5423 1.398 . S
C5424 C5425 1.391 . S
C5425 H5413 0.950 . S
C5425 C5421 1.393 . S
C5425 C5424 1.391 . S
C5426 H5416 0.950 . S
C5426 C5427 1.386 . S
C5426 C5428 1.391 . S
C5427 C5426 1.386 . S
C5427 C5431 1.393 . S
C5428 H5417 0.950 . S
C5428 C5426 1.391 . S
C5428 C5429 1.400 . S
C5429 C5423 1.491 . S
C5429 C5428 1.400 . S
C5429 C5430 1.398 . S
C5430 H5418 0.950 . S
C5430 C5429 1.398 . S
C5430 C5431 1.391 . S
C5431 H5419 0.950 . S
C5431 C5427 1.393 . S
C5431 C5430 1.391 . S
H5432 C5440 0.950 . S
H5433 C5445 0.950 . S
H5434 C5442 0.950 . S
H5435 C5444 0.950 . S
H5436 C5446 0.950 . S
H5437 C5448 0.950 . S
H5438 C5450 0.950 . S
H5439 C5451 0.950 . S
C5440 H5432 0.950 . S
C5440 C5441 1.386 . S
C5440 C5442 1.391 . S
C5441 C5440 1.386 . S
C5441 C5445 1.393 . S
C5442 H5434 0.950 . S
C5442 C5440 1.391 . S
C5442 C5443 1.400 . S
C5443 C5442 1.400 . S
C5443 C5444 1.398 . S
C5443 C5449 1.491 . S
C5444 H5435 0.950 . S
C5444 C5443 1.398 . S
C5444 C5445 1.391 . S
C5445 H5433 0.950 . S
C5445 C5441 1.393 . S
C5445 C5444 1.391 . S
C5446 H5436 0.950 . S
C5446 C5447 1.386 . S
C5446 C5448 1.391 . S
C5447 C5446 1.386 . S
C5447 C5451 1.393 . S
C5448 H5437 0.950 . S
C5448 C5446 1.391 . S
C5448 C5449 1.400 . S
C5449 C5443 1.491 . S
C5449 C5448 1.400 . S
C5449 C5450 1.398 . S
C5450 H5438 0.950 . S
C5450 C5449 1.398 . S
C5450 C5451 1.391 . S
C5451 H5439 0.950 . S
C5451 C5447 1.393 . S
C5451 C5450 1.391 . S
H5452 C5460 0.950 . S
H5453 C5465 0.950 . S
H5454 C5462 0.950 . S
H5455 C5464 0.950 . S
H5456 C5466 0.950 . S
H5457 C5468 0.950 . S
H5458 C5470 0.950 . S
H5459 C5471 0.950 . S
C5460 H5452 0.950 . S
C5460 C5461 1.386 . S
C5460 C5462 1.391 . S
C5461 C5460 1.386 . S
C5461 C5465 1.393 . S
C5462 H5454 0.950 . S
C5462 C5460 1.391 . S
C5462 C5463 1.400 . S
C5463 C5462 1.400 . S
C5463 C5464 1.398 . S
C5463 C5469 1.491 . S
C5464 H5455 0.950 . S
C5464 C5463 1.398 . S
C5464 C5465 1.391 . S
C5465 H5453 0.950 . S
C5465 C5461 1.393 . S
C5465 C5464 1.391 . S
C5466 H5456 0.950 . S
C5466 C5467 1.386 . S
C5466 C5468 1.391 . S
C5467 C5466 1.386 . S
C5467 C5471 1.393 . S
C5468 H5457 0.950 . S
C5468 C5466 1.391 . S
C5468 C5469 1.400 . S
C5469 C5463 1.491 . S
C5469 C5468 1.400 . S
C5469 C5470 1.398 . S
C5470 H5458 0.950 . S
C5470 C5469 1.398 . S
C5470 C5471 1.391 . S
C5471 H5459 0.950 . S
C5471 C5467 1.393 . S
C5471 C5470 1.391 . S
H5472 C5480 0.950 . S
H5473 C5485 0.950 . S
H5474 C5482 0.950 . S
H5475 C5484 0.950 . S
H5476 C5486 0.950 . S
H5477 C5488 0.950 . S
H5478 C5490 0.949 1_655 S
H5479 C5491 0.950 . S
C5480 H5472 0.950 . S
C5480 C5481 1.386 . S
C5480 C5482 1.391 . S
C5481 C5480 1.386 . S
C5481 C5485 1.393 . S
C5482 H5474 0.950 . S
C5482 C5480 1.391 . S
C5482 C5483 1.400 . S
C5483 C5482 1.400 . S
C5483 C5484 1.398 . S
C5483 C5489 1.629 . S
C5484 H5475 0.950 . S
C5484 C5483 1.398 . S
C5484 C5485 1.391 . S
C5485 H5473 0.950 . S
C5485 C5481 1.393 . S
C5485 C5484 1.391 . S
C5486 H5476 0.950 . S
C5486 C5487 1.386 . S
C5486 C5488 1.391 . S
C5487 C5486 1.386 . S
C5487 C5491 1.393 . S
C5488 H5477 0.950 . S
C5488 C5486 1.391 . S
C5488 C5489 1.281 1_455 S
C5489 C5483 1.629 . S
C5489 C5488 1.281 1_655 S
C5489 C5490 1.386 1_655 S
C5490 H5478 0.949 1_455 S
C5490 C5489 1.386 1_455 S
C5490 C5491 1.392 . S
C5491 H5479 0.950 . S
C5491 C5487 1.393 . S
C5491 C5490 1.392 . S
H5492 C5500 0.950 . S
H5493 C5505 0.950 . S
H5494 C5502 0.950 . S
H5495 C5504 0.950 . S
H5496 C5506 0.950 . S
H5497 C5508 0.950 . S
H5498 C5510 0.950 . S
H5499 C5511 0.950 . S
C5500 H5492 0.950 . S
C5500 C5501 1.386 . S
C5500 C5502 1.391 . S
C5501 C5500 1.386 . S
C5501 C5505 1.393 . S
C5502 H5494 0.950 . S
C5502 C5500 1.391 . S
C5502 C5503 1.400 . S
C5503 C5502 1.400 . S
C5503 C5504 1.398 . S
C5503 C5509 1.491 . S
C5504 H5495 0.950 . S
C5504 C5503 1.398 . S
C5504 C5505 1.391 . S
C5505 H5493 0.950 . S
C5505 C5501 1.393 . S
C5505 C5504 1.391 . S
C5506 H5496 0.950 . S
C5506 C5507 1.386 . S
C5506 C5508 1.391 . S
C5507 C5506 1.386 . S
C5507 C5511 1.393 . S
C5508 H5497 0.950 . S
C5508 C5506 1.391 . S
C5508 C5509 1.400 . S
C5509 C5503 1.491 . S
C5509 C5508 1.400 . S
C5509 C5510 1.398 . S
C5510 H5498 0.950 . S
C5510 C5509 1.398 . S
C5510 C5511 1.391 . S
C5511 H5499 0.950 . S
C5511 C5507 1.393 . S
C5511 C5510 1.391 . S
H5512 C5520 0.950 . S
H5513 C5525 0.950 . S
H5514 C5522 0.950 . S
H5515 C5524 0.950 . S
H5516 C5526 0.950 . S
H5517 C5528 0.950 . S
H5518 C5530 0.950 . S
H5519 C5531 0.950 . S
C5520 H5512 0.950 . S
C5520 C5521 1.386 . S
C5520 C5522 1.391 . S
C5521 C5520 1.386 . S
C5521 C5525 1.393 . S
C5522 H5514 0.950 . S
C5522 C5520 1.391 . S
C5522 C5523 1.400 . S
C5523 C5522 1.400 . S
C5523 C5524 1.398 . S
C5523 C5529 1.491 . S
C5524 H5515 0.950 . S
C5524 C5523 1.398 . S
C5524 C5525 1.391 . S
C5525 H5513 0.950 . S
C5525 C5521 1.393 . S
C5525 C5524 1.391 . S
C5526 H5516 0.950 . S
C5526 C5527 1.386 . S
C5526 C5528 1.391 . S
C5527 C5526 1.386 . S
C5527 C5531 1.393 . S
C5528 H5517 0.950 . S
C5528 C5526 1.391 . S
C5528 C5529 1.400 . S
C5529 C5523 1.491 . S
C5529 C5528 1.400 . S
C5529 C5530 1.398 . S
C5530 H5518 0.950 . S
C5530 C5529 1.398 . S
C5530 C5531 1.391 . S
C5531 H5519 0.950 . S
C5531 C5527 1.393 . S
C5531 C5530 1.391 . S
H5532 C5540 0.950 . S
H5533 C5545 0.950 . S
H5534 C5542 0.950 . S
H5535 C5544 0.950 . S
H5536 C5546 0.950 . S
H5537 C5548 0.950 . S
H5538 C5550 0.950 . S
H5539 C5551 0.950 . S
C5540 H5532 0.950 . S
C5540 C5541 1.386 . S
C5540 C5542 1.391 . S
C5541 C5540 1.386 . S
C5541 C5545 1.393 . S
C5542 H5534 0.950 . S
C5542 C5540 1.391 . S
C5542 C5543 1.400 . S
C5543 C5542 1.400 . S
C5543 C5544 1.398 . S
C5543 C5549 1.491 . S
C5544 H5535 0.950 . S
C5544 C5543 1.398 . S
C5544 C5545 1.391 . S
C5545 H5533 0.950 . S
C5545 C5541 1.393 . S
C5545 C5544 1.391 . S
C5546 H5536 0.950 . S
C5546 C5547 1.386 . S
C5546 C5548 1.391 . S
C5547 C5546 1.386 . S
C5547 C5551 1.393 . S
C5548 H5537 0.950 . S
C5548 C5546 1.391 . S
C5548 C5549 1.400 . S
C5549 C5543 1.491 . S
C5549 C5548 1.400 . S
C5549 C5550 1.398 . S
C5550 H5538 0.950 . S
C5550 C5549 1.398 . S
C5550 C5551 1.391 . S
C5551 H5539 0.950 . S
C5551 C5547 1.393 . S
C5551 C5550 1.391 . S
H5552 C5560 0.950 . S
H5553 C5565 0.950 . S
H5554 C5562 0.950 . S
H5555 C5564 0.950 . S
H5556 C5566 0.950 . S
H5557 C5568 0.950 . S
H5558 C5570 0.940 1_655 S
H5559 C5571 0.950 . S
C5560 H5552 0.950 . S
C5560 C5561 1.386 . S
C5560 C5562 1.391 . S
C5561 C5560 1.386 . S
C5561 C5565 1.393 . S
C5562 H5554 0.950 . S
C5562 C5560 1.391 . S
C5562 C5563 1.400 . S
C5563 C5562 1.400 . S
C5563 C5564 1.398 . S
C5563 C5569 1.630 . S
C5564 H5555 0.950 . S
C5564 C5563 1.398 . S
C5564 C5565 1.391 . S
C5565 H5553 0.950 . S
C5565 C5561 1.393 . S
C5565 C5564 1.391 . S
C5566 H5556 0.950 . S
C5566 C5567 1.386 . S
C5566 C5568 1.391 . S
C5567 C5566 1.386 . S
C5567 C5571 1.393 . S
C5568 H5557 0.950 . S
C5568 C5566 1.391 . S
C5568 C5569 1.282 1_455 S
C5569 C5563 1.630 . S
C5569 C5568 1.282 1_655 S
C5569 C5570 1.384 1_655 S
C5570 H5558 0.940 1_455 S
C5570 C5569 1.384 1_455 S
C5570 C5571 1.402 . S
C5571 H5559 0.950 . S
C5571 C5567 1.393 . S
C5571 C5570 1.402 . S
H5572 C5580 0.950 . S
H5573 C5585 0.950 . S
H5574 C5582 0.950 . S
H5575 C5584 0.950 . S
H5576 C5586 0.950 . S
H5577 C5588 0.950 . S
H5578 C5590 0.950 . S
H5579 C5591 0.950 . S
C5580 H5572 0.950 . S
C5580 C5581 1.386 . S
C5580 C5582 1.391 . S
C5581 C5580 1.386 . S
C5581 C5585 1.393 . S
C5582 H5574 0.950 . S
C5582 C5580 1.391 . S
C5582 C5583 1.400 . S
C5583 C5582 1.400 . S
C5583 C5584 1.398 . S
C5583 C5589 1.491 . S
C5584 H5575 0.950 . S
C5584 C5583 1.398 . S
C5584 C5585 1.391 . S
C5585 H5573 0.950 . S
C5585 C5581 1.393 . S
C5585 C5584 1.391 . S
C5586 H5576 0.950 . S
C5586 C5587 1.386 . S
C5586 C5588 1.391 . S
C5587 C5586 1.386 . S
C5587 C5591 1.393 . S
C5588 H5577 0.950 . S
C5588 C5586 1.391 . S
C5588 C5589 1.400 . S
C5589 C5583 1.491 . S
C5589 C5588 1.400 . S
C5589 C5590 1.398 . S
C5590 H5578 0.950 . S
C5590 C5589 1.398 . S
C5590 C5591 1.391 . S
C5591 H5579 0.950 . S
C5591 C5587 1.393 . S
C5591 C5590 1.391 . S
H5592 C5600 0.950 . S
H5593 C5605 0.950 . S
H5594 C5602 0.950 . S
H5595 C5604 0.950 . S
H5596 C5606 0.950 . S
H5597 C5608 0.950 . S
H5598 C5610 0.950 . S
H5599 C5611 0.950 . S
C5600 H5592 0.950 . S
C5600 C5601 1.386 . S
C5600 C5602 1.391 . S
C5601 C5600 1.386 . S
C5601 C5605 1.393 . S
C5602 H5594 0.950 . S
C5602 C5600 1.391 . S
C5602 C5603 1.400 . S
C5603 C5602 1.400 . S
C5603 C5604 1.398 . S
C5603 C5609 1.491 . S
C5604 H5595 0.950 . S
C5604 C5603 1.398 . S
C5604 C5605 1.391 . S
C5605 H5593 0.950 . S
C5605 C5601 1.393 . S
C5605 C5604 1.391 . S
C5606 H5596 0.950 . S
C5606 C5607 1.386 . S
C5606 C5608 1.391 . S
C5607 C5606 1.386 . S
C5607 C5611 1.393 . S
C5608 H5597 0.950 . S
C5608 C5606 1.391 . S
C5608 C5609 1.400 . S
C5609 C5603 1.491 . S
C5609 C5608 1.400 . S
C5609 C5610 1.398 . S
C5610 H5598 0.950 . S
C5610 C5609 1.398 . S
C5610 C5611 1.391 . S
C5611 H5599 0.950 . S
C5611 C5607 1.393 . S
C5611 C5610 1.391 . S
H5612 C5620 0.950 . S
H5613 C5625 0.950 . S
H5614 C5622 0.950 . S
H5615 C5624 0.950 . S
H5616 C5626 0.950 . S
H5617 C5628 0.950 . S
H5618 C5630 0.950 . S
H5619 C5631 0.950 . S
C5620 H5612 0.950 . S
C5620 C5621 1.386 . S
C5620 C5622 1.391 . S
C5621 C5620 1.386 . S
C5621 C5625 1.393 . S
C5622 H5614 0.950 . S
C5622 C5620 1.391 . S
C5622 C5623 1.400 . S
C5623 C5622 1.400 . S
C5623 C5624 1.398 . S
C5623 C5629 1.491 . S
C5624 H5615 0.950 . S
C5624 C5623 1.398 . S
C5624 C5625 1.391 . S
C5625 H5613 0.950 . S
C5625 C5621 1.393 . S
C5625 C5624 1.391 . S
C5626 H5616 0.950 . S
C5626 C5627 1.386 . S
C5626 C5628 1.391 . S
C5627 C5626 1.386 . S
C5627 C5631 1.393 . S
C5628 H5617 0.950 . S
C5628 C5626 1.391 . S
C5628 C5629 1.400 . S
C5629 C5623 1.491 . S
C5629 C5628 1.400 . S
C5629 C5630 1.398 . S
C5630 H5618 0.950 . S
C5630 C5629 1.398 . S
C5630 C5631 1.391 . S
C5631 H5619 0.950 . S
C5631 C5627 1.393 . S
C5631 C5630 1.391 . S
H5632 C5640 0.950 . S
H5633 C5645 0.950 . S
H5634 C5642 0.950 . S
H5635 C5644 0.950 . S
H5636 C5646 0.950 . S
H5637 C5648 0.950 . S
H5638 C5650 0.950 1_565 S
H5639 C5651 0.950 . S
C5640 H5632 0.950 . S
C5640 C5641 1.386 . S
C5640 C5642 1.391 . S
C5641 C5640 1.386 . S
C5641 C5645 1.393 . S
C5642 H5634 0.950 . S
C5642 C5640 1.391 . S
C5642 C5643 1.400 . S
C5643 C5642 1.400 . S
C5643 C5644 1.398 . S
C5643 C5649 1.620 . S
C5644 H5635 0.950 . S
C5644 C5643 1.398 . S
C5644 C5645 1.391 . S
C5645 H5633 0.950 . S
C5645 C5641 1.393 . S
C5645 C5644 1.391 . S
C5646 H5636 0.950 . S
C5646 C5647 1.386 . S
C5646 C5648 1.391 . S
C5647 C5646 1.386 . S
C5647 C5651 1.393 . S
C5648 H5637 0.950 . S
C5648 C5646 1.391 . S
C5648 C5649 1.312 1_545 S
C5649 C5643 1.620 . S
C5649 C5648 1.312 1_565 S
C5649 C5650 1.363 1_565 S
C5650 H5638 0.950 1_545 S
C5650 C5649 1.363 1_545 S
C5650 C5651 1.391 . S
C5651 H5639 0.950 . S
C5651 C5647 1.393 . S
C5651 C5650 1.391 . S
H5652 C5660 0.950 . S
H5653 C5665 0.950 . S
H5654 C5662 0.950 . S
H5655 C5664 0.950 . S
H5656 C5666 0.950 . S
H5657 C5668 0.950 . S
H5658 C5670 0.950 . S
H5659 C5671 0.950 . S
C5660 H5652 0.950 . S
C5660 C5661 1.386 . S
C5660 C5662 1.391 . S
C5661 C5660 1.386 . S
C5661 C5665 1.393 . S
C5662 H5654 0.950 . S
C5662 C5660 1.391 . S
C5662 C5663 1.400 . S
C5663 C5662 1.400 . S
C5663 C5664 1.398 . S
C5663 C5669 1.491 . S
C5664 H5655 0.950 . S
C5664 C5663 1.398 . S
C5664 C5665 1.391 . S
C5665 H5653 0.950 . S
C5665 C5661 1.393 . S
C5665 C5664 1.391 . S
C5666 H5656 0.950 . S
C5666 C5667 1.386 . S
C5666 C5668 1.391 . S
C5667 C5666 1.386 . S
C5667 C5671 1.393 . S
C5668 H5657 0.950 . S
C5668 C5666 1.391 . S
C5668 C5669 1.400 . S
C5669 C5663 1.491 . S
C5669 C5668 1.400 . S
C5669 C5670 1.398 . S
C5670 H5658 0.950 . S
C5670 C5669 1.398 . S
C5670 C5671 1.391 . S
C5671 H5659 0.950 . S
C5671 C5667 1.393 . S
C5671 C5670 1.391 . S
H5672 C5680 0.950 . S
H5673 C5685 0.950 . S
H5674 C5682 0.950 . S
H5675 C5684 0.950 . S
H5676 C5686 0.950 . S
H5677 C5688 0.950 . S
H5678 C5690 0.858 1_545 S
H5679 C5691 0.950 . S
C5680 H5672 0.950 . S
C5680 C5681 1.386 . S
C5680 C5682 1.391 . S
C5681 C5680 1.386 . S
C5681 C5685 1.393 . S
C5682 H5674 0.950 . S
C5682 C5680 1.391 . S
C5682 C5683 1.400 . S
C5683 C5682 1.400 . S
C5683 C5684 1.398 . S
C5683 C5689 1.632 . S
C5684 H5675 0.950 . S
C5684 C5683 1.398 . S
C5684 C5685 1.391 . S
C5685 H5673 0.950 . S
C5685 C5681 1.393 . S
C5685 C5684 1.391 . S
C5686 H5676 0.950 . S
C5686 C5687 1.386 . S
C5686 C5688 1.391 . S
C5687 C5686 1.386 . S
C5687 C5691 1.393 . S
C5688 H5677 0.950 . S
C5688 C5686 1.391 . S
C5688 C5689 1.296 1_565 S
C5689 C5683 1.632 . S
C5689 C5688 1.296 1_545 S
C5689 C5690 1.358 1_545 S
C5690 H5678 0.858 1_565 S
C5690 C5689 1.358 1_565 S
C5690 C5691 1.521 . S
C5691 H5679 0.950 . S
C5691 C5687 1.393 . S
C5691 C5690 1.521 . S
H5692 C5700 0.950 . S
H5693 C5705 0.950 . S
H5694 C5702 0.950 . S
H5695 C5704 0.950 . S
H5696 C5706 0.950 . S
H5697 C5708 0.950 . S
H5698 C5710 0.950 . S
H5699 C5711 0.950 . S
C5700 H5692 0.950 . S
C5700 C5701 1.386 . S
C5700 C5702 1.391 . S
C5701 C5700 1.386 . S
C5701 C5705 1.393 . S
C5702 H5694 0.950 . S
C5702 C5700 1.391 . S
C5702 C5703 1.400 . S
C5703 C5702 1.400 . S
C5703 C5704 1.398 . S
C5703 C5709 1.491 . S
C5704 H5695 0.950 . S
C5704 C5703 1.398 . S
C5704 C5705 1.391 . S
C5705 H5693 0.950 . S
C5705 C5701 1.393 . S
C5705 C5704 1.391 . S
C5706 H5696 0.950 . S
C5706 C5707 1.386 . S
C5706 C5708 1.391 . S
C5707 C5706 1.386 . S
C5707 C5711 1.393 . S
C5708 H5697 0.950 . S
C5708 C5706 1.391 . S
C5708 C5709 1.400 . S
C5709 C5703 1.491 . S
C5709 C5708 1.400 . S
C5709 C5710 1.398 . S
C5710 H5698 0.950 . S
C5710 C5709 1.398 . S
C5710 C5711 1.391 . S
C5711 H5699 0.950 . S
C5711 C5707 1.393 . S
C5711 C5710 1.391 . S
H5712 C5720 0.950 . S
H5713 C5725 0.950 . S
H5714 C5722 0.950 . S
H5715 C5724 0.950 . S
H5716 C5726 0.950 . S
H5717 C5728 0.934 1_545 S
H5718 C5730 0.950 . S
H5719 C5731 0.950 . S
C5720 H5712 0.950 . S
C5720 C5721 1.386 . S
C5720 C5722 1.391 . S
C5721 C5720 1.386 . S
C5721 C5725 1.393 . S
C5722 H5714 0.950 . S
C5722 C5720 1.391 . S
C5722 C5723 1.400 . S
C5723 C5722 1.400 . S
C5723 C5724 1.398 . S
C5723 C5729 1.628 . S
C5724 H5715 0.950 . S
C5724 C5723 1.398 . S
C5724 C5725 1.391 . S
C5725 H5713 0.950 . S
C5725 C5721 1.393 . S
C5725 C5724 1.391 . S
C5726 H5716 0.950 . S
C5726 C5727 1.386 . S
C5726 C5728 1.410 . S
C5727 C5726 1.386 . S
C5727 C5731 1.393 . S
C5728 H5717 0.934 1_565 S
C5728 C5726 1.410 . S
C5728 C5729 1.385 1_565 S
C5729 C5723 1.628 . S
C5729 C5728 1.385 1_545 S
C5729 C5730 1.282 1_545 S
C5730 H5718 0.950 . S
C5730 C5729 1.282 1_565 S
C5730 C5731 1.391 . S
C5731 H5719 0.950 . S
C5731 C5727 1.393 . S
C5731 C5730 1.391 . S
H5732 C5740 0.950 . S
H5733 C5745 0.950 . S
H5734 C5742 0.950 . S
H5735 C5744 0.950 . S
H5736 C5746 0.950 . S
H5737 C5748 0.950 . S
H5738 C5750 0.950 . S
H5739 C5751 0.950 . S
C5740 H5732 0.950 . S
C5740 C5741 1.386 . S
C5740 C5742 1.391 . S
C5741 C5740 1.386 . S
C5741 C5745 1.393 . S
C5742 H5734 0.950 . S
C5742 C5740 1.391 . S
C5742 C5743 1.400 . S
C5743 C5742 1.400 . S
C5743 C5744 1.398 . S
C5743 C5749 1.491 . S
C5744 H5735 0.950 . S
C5744 C5743 1.398 . S
C5744 C5745 1.391 . S
C5745 H5733 0.950 . S
C5745 C5741 1.393 . S
C5745 C5744 1.391 . S
C5746 H5736 0.950 . S
C5746 C5747 1.386 . S
C5746 C5748 1.391 . S
C5747 C5746 1.386 . S
C5747 C5751 1.393 . S
C5748 H5737 0.950 . S
C5748 C5746 1.391 . S
C5748 C5749 1.400 . S
C5749 C5743 1.491 . S
C5749 C5748 1.400 . S
C5749 C5750 1.398 . S
C5750 H5738 0.950 . S
C5750 C5749 1.398 . S
C5750 C5751 1.391 . S
C5751 H5739 0.950 . S
C5751 C5747 1.393 . S
C5751 C5750 1.391 . S
H5752 C5760 0.950 . S
H5753 C5765 0.950 . S
H5754 C5762 0.950 . S
H5755 C5764 0.950 . S
H5756 C5766 0.950 . S
H5757 C5768 0.905 1_565 S
H5758 C5770 0.950 . S
H5759 C5771 0.950 . S
C5760 H5752 0.950 . S
C5760 C5761 1.386 . S
C5760 C5762 1.391 . S
C5761 C5760 1.386 . S
C5761 C5765 1.393 . S
C5762 H5754 0.950 . S
C5762 C5760 1.391 . S
C5762 C5763 1.400 . S
C5763 C5762 1.400 . S
C5763 C5764 1.398 . S
C5763 C5769 1.619 . S
C5764 H5755 0.950 . S
C5764 C5763 1.398 . S
C5764 C5765 1.391 . S
C5765 H5753 0.950 . S
C5765 C5761 1.393 . S
C5765 C5764 1.391 . S
C5766 H5756 0.950 . S
C5766 C5767 1.386 . S
C5766 C5768 1.391 . S
C5767 C5766 1.386 . S
C5767 C5771 1.393 . S
C5768 H5757 0.905 1_545 S
C5768 C5766 1.391 . S
C5768 C5769 1.352 1_545 S
C5769 C5763 1.619 . S
C5769 C5768 1.352 1_565 S
C5769 C5770 1.325 1_565 S
C5770 H5758 0.950 . S
C5770 C5769 1.325 1_545 S
C5770 C5771 1.391 . S
C5771 H5759 0.950 . S
C5771 C5767 1.393 . S
C5771 C5770 1.391 . S
H5772 C5780 0.950 . S
H5773 C5785 0.950 . S
H5774 C5782 0.950 . S
H5775 C5784 0.950 . S
H5776 C5786 0.950 . S
H5777 C5788 0.950 . S
H5778 C5790 0.950 . S
H5779 C5791 0.950 . S
C5780 H5772 0.950 . S
C5780 C5781 1.386 . S
C5780 C5782 1.391 . S
C5781 C5780 1.386 . S
C5781 C5785 1.393 . S
C5782 H5774 0.950 . S
C5782 C5780 1.391 . S
C5782 C5783 1.400 . S
C5783 C5782 1.400 . S
C5783 C5784 1.398 . S
C5783 C5789 1.491 . S
C5784 H5775 0.950 . S
C5784 C5783 1.398 . S
C5784 C5785 1.391 . S
C5785 H5773 0.950 . S
C5785 C5781 1.393 . S
C5785 C5784 1.391 . S
C5786 H5776 0.950 . S
C5786 C5787 1.386 . S
C5786 C5788 1.391 . S
C5787 C5786 1.386 . S
C5787 C5791 1.393 . S
C5788 H5777 0.950 . S
C5788 C5786 1.391 . S
C5788 C5789 1.400 . S
C5789 C5783 1.491 . S
C5789 C5788 1.400 . S
C5789 C5790 1.398 . S
C5790 H5778 0.950 . S
C5790 C5789 1.398 . S
C5790 C5791 1.391 . S
C5791 H5779 0.950 . S
C5791 C5787 1.393 . S
C5791 C5790 1.391 . S
H5792 C5800 0.950 . S
H5793 C5805 0.950 . S
H5794 C5802 0.950 . S
H5795 C5804 0.950 . S
H5796 C5806 0.950 . S
H5797 C5808 0.950 . S
H5798 C5810 0.922 1_556 S
H5799 C5811 0.950 . S
C5800 H5792 0.950 . S
C5800 C5801 1.386 . S
C5800 C5802 1.391 . S
C5801 C5800 1.386 . S
C5801 C5805 1.393 . S
C5802 H5794 0.950 . S
C5802 C5800 1.391 . S
C5802 C5803 1.400 . S
C5803 C5802 1.400 . S
C5803 C5804 1.398 . S
C5803 C5809 1.630 . S
C5804 H5795 0.950 . S
C5804 C5803 1.398 . S
C5804 C5805 1.391 . S
C5805 H5793 0.950 . S
C5805 C5801 1.393 . S
C5805 C5804 1.391 . S
C5806 H5796 0.950 . S
C5806 C5807 1.386 . S
C5806 C5808 1.391 . S
C5807 C5806 1.386 . S
C5807 C5811 1.393 . S
C5808 H5797 0.950 . S
C5808 C5806 1.391 . S
C5808 C5809 1.285 1_554 S
C5809 C5803 1.630 . S
C5809 C5808 1.285 1_556 S
C5809 C5810 1.380 1_556 S
C5810 H5798 0.922 1_554 S
C5810 C5809 1.380 1_554 S
C5810 C5811 1.424 . S
C5811 H5799 0.950 . S
C5811 C5807 1.393 . S
C5811 C5810 1.424 . S
H5812 C5820 0.950 . S
H5813 C5825 0.950 . S
H5814 C5822 0.950 . S
H5815 C5824 0.950 . S
H5816 C5826 0.950 . S
H5817 C5828 0.950 . S
H5818 C5830 0.907 1_554 S
H5819 C5831 0.950 . S
C5820 H5812 0.950 . S
C5820 C5821 1.386 . S
C5820 C5822 1.391 . S
C5821 C5820 1.386 . S
C5821 C5825 1.393 . S
C5822 H5814 0.950 . S
C5822 C5820 1.391 . S
C5822 C5823 1.400 . S
C5823 C5822 1.400 . S
C5823 C5824 1.398 . S
C5823 C5829 1.623 . S
C5824 H5815 0.950 . S
C5824 C5823 1.398 . S
C5824 C5825 1.391 . S
C5825 H5813 0.950 . S
C5825 C5821 1.393 . S
C5825 C5824 1.391 . S
C5826 H5816 0.950 . S
C5826 C5827 1.386 . S
C5826 C5828 1.391 . S
C5827 C5826 1.386 . S
C5827 C5831 1.393 . S
C5828 H5817 0.950 . S
C5828 C5826 1.391 . S
C5828 C5829 1.291 1_556 S
C5829 C5823 1.623 . S
C5829 C5828 1.291 1_554 S
C5829 C5830 1.378 1_554 S
C5830 H5818 0.907 1_556 S
C5830 C5829 1.378 1_556 S
C5830 C5831 1.444 . S
C5831 H5819 0.950 . S
C5831 C5827 1.393 . S
C5831 C5830 1.444 . S
H5832 C5840 0.950 . S
H5833 C5845 0.950 . S
H5834 C5842 0.950 . S
H5835 C5844 0.950 . S
H5836 C5846 0.950 . S
H5837 C5848 0.950 . S
H5838 C5850 0.950 . S
H5839 C5851 0.950 . S
C5840 H5832 0.950 . S
C5840 C5841 1.386 . S
C5840 C5842 1.391 . S
C5841 C5840 1.386 . S
C5841 C5845 1.393 . S
C5842 H5834 0.950 . S
C5842 C5840 1.391 . S
C5842 C5843 1.400 . S
C5843 C5842 1.400 . S
C5843 C5844 1.398 . S
C5843 C5849 1.491 . S
C5844 H5835 0.950 . S
C5844 C5843 1.398 . S
C5844 C5845 1.391 . S
C5845 H5833 0.950 . S
C5845 C5841 1.393 . S
C5845 C5844 1.391 . S
C5846 H5836 0.950 . S
C5846 C5847 1.386 . S
C5846 C5848 1.391 . S
C5847 C5846 1.386 . S
C5847 C5851 1.393 . S
C5848 H5837 0.950 . S
C5848 C5846 1.391 . S
C5848 C5849 1.400 . S
C5849 C5843 1.491 . S
C5849 C5848 1.400 . S
C5849 C5850 1.398 . S
C5850 H5838 0.950 . S
C5850 C5849 1.398 . S
C5850 C5851 1.391 . S
C5851 H5839 0.950 . S
C5851 C5847 1.393 . S
C5851 C5850 1.391 . S
H5852 C5860 0.950 . S
H5853 C5865 0.950 . S
H5854 C5862 0.950 . S
H5855 C5864 0.950 . S
H5856 C5866 0.950 . S
H5857 C5868 0.950 . S
H5858 C5870 0.950 . S
H5859 C5871 0.950 . S
C5860 H5852 0.950 . S
C5860 C5861 1.386 . S
C5860 C5862 1.391 . S
C5861 C5860 1.386 . S
C5861 C5865 1.393 . S
C5862 H5854 0.950 . S
C5862 C5860 1.391 . S
C5862 C5863 1.400 . S
C5863 C5862 1.400 . S
C5863 C5864 1.398 . S
C5863 C5869 1.491 . S
C5864 H5855 0.950 . S
C5864 C5863 1.398 . S
C5864 C5865 1.391 . S
C5865 H5853 0.950 . S
C5865 C5861 1.393 . S
C5865 C5864 1.391 . S
C5866 H5856 0.950 . S
C5866 C5867 1.386 . S
C5866 C5868 1.391 . S
C5867 C5866 1.386 . S
C5867 C5871 1.393 . S
C5868 H5857 0.950 . S
C5868 C5866 1.391 . S
C5868 C5869 1.400 . S
C5869 C5863 1.491 . S
C5869 C5868 1.400 . S
C5869 C5870 1.398 . S
C5870 H5858 0.950 . S
C5870 C5869 1.398 . S
C5870 C5871 1.391 . S
C5871 H5859 0.950 . S
C5871 C5867 1.393 . S
C5871 C5870 1.391 . S
H5872 C5880 0.950 . S
H5873 C5885 0.950 . S
H5874 C5882 0.950 . S
H5875 C5884 0.950 . S
H5876 C5886 0.950 . S
H5877 C5888 0.950 . S
H5878 C5890 0.950 . S
H5879 C5891 0.950 . S
C5880 H5872 0.950 . S
C5880 C5881 1.386 . S
C5880 C5882 1.391 . S
C5881 C5880 1.386 . S
C5881 C5885 1.393 . S
C5882 H5874 0.950 . S
C5882 C5880 1.391 . S
C5882 C5883 1.400 . S
C5883 C5882 1.400 . S
C5883 C5884 1.398 . S
C5883 C5889 1.491 . S
C5884 H5875 0.950 . S
C5884 C5883 1.398 . S
C5884 C5885 1.391 . S
C5885 H5873 0.950 . S
C5885 C5881 1.393 . S
C5885 C5884 1.391 . S
C5886 H5876 0.950 . S
C5886 C5887 1.386 . S
C5886 C5888 1.391 . S
C5887 C5886 1.386 . S
C5887 C5891 1.393 . S
C5888 H5877 0.950 . S
C5888 C5886 1.391 . S
C5888 C5889 1.400 . S
C5889 C5883 1.491 . S
C5889 C5888 1.400 . S
C5889 C5890 1.398 . S
C5890 H5878 0.950 . S
C5890 C5889 1.398 . S
C5890 C5891 1.391 . S
C5891 H5879 0.950 . S
C5891 C5887 1.393 . S
C5891 C5890 1.391 . S
H5892 C5900 0.950 . S
H5893 C5905 0.950 . S
H5894 C5902 0.950 . S
H5895 C5904 0.950 . S
H5896 C5906 0.950 . S
H5897 C5908 0.950 . S
H5898 C5910 0.950 . S
H5899 C5911 0.950 . S
C5900 H5892 0.950 . S
C5900 C5901 1.386 . S
C5900 C5902 1.391 . S
C5901 C5900 1.386 . S
C5901 C5905 1.393 . S
C5902 H5894 0.950 . S
C5902 C5900 1.391 . S
C5902 C5903 1.400 . S
C5903 C5902 1.400 . S
C5903 C5904 1.398 . S
C5903 C5909 1.491 . S
C5904 H5895 0.950 . S
C5904 C5903 1.398 . S
C5904 C5905 1.391 . S
C5905 H5893 0.950 . S
C5905 C5901 1.393 . S
C5905 C5904 1.391 . S
C5906 H5896 0.950 . S
C5906 C5907 1.386 . S
C5906 C5908 1.391 . S
C5907 C5906 1.386 . S
C5907 C5911 1.393 . S
C5908 H5897 0.950 . S
C5908 C5906 1.391 . S
C5908 C5909 1.400 . S
C5909 C5903 1.491 . S
C5909 C5908 1.400 . S
C5909 C5910 1.398 . S
C5910 H5898 0.950 . S
C5910 C5909 1.398 . S
C5910 C5911 1.391 . S
C5911 H5899 0.950 . S
C5911 C5907 1.393 . S
C5911 C5910 1.391 . S
H5912 C5920 0.950 . S
H5913 C5925 0.950 . S
H5914 C5922 0.950 . S
H5915 C5924 0.950 . S
H5916 C5926 0.950 . S
H5917 C5928 0.950 . S
H5918 C5930 0.950 . S
H5919 C5931 0.950 . S
C5920 H5912 0.950 . S
C5920 C5921 1.386 . S
C5920 C5922 1.391 . S
C5921 C5920 1.386 . S
C5921 C5925 1.393 . S
C5922 H5914 0.950 . S
C5922 C5920 1.391 . S
C5922 C5923 1.400 . S
C5923 C5922 1.400 . S
C5923 C5924 1.398 . S
C5923 C5929 1.491 . S
C5924 H5915 0.950 . S
C5924 C5923 1.398 . S
C5924 C5925 1.391 . S
C5925 H5913 0.950 . S
C5925 C5921 1.393 . S
C5925 C5924 1.391 . S
C5926 H5916 0.950 . S
C5926 C5927 1.386 . S
C5926 C5928 1.391 . S
C5927 C5926 1.386 . S
C5927 C5931 1.393 . S
C5928 H5917 0.950 . S
C5928 C5926 1.391 . S
C5928 C5929 1.400 . S
C5929 C5923 1.491 . S
C5929 C5928 1.400 . S
C5929 C5930 1.398 . S
C5930 H5918 0.950 . S
C5930 C5929 1.398 . S
C5930 C5931 1.391 . S
C5931 H5919 0.950 . S
C5931 C5927 1.393 . S
C5931 C5930 1.391 . S
H5932 C5940 0.950 . S
H5933 C5945 0.950 . S
H5934 C5942 0.950 . S
H5935 C5944 0.950 . S
H5936 C5946 0.950 . S
H5937 C5948 0.950 . S
H5938 C5950 0.950 . S
H5939 C5951 0.950 . S
C5940 H5932 0.950 . S
C5940 C5941 1.386 . S
C5940 C5942 1.391 . S
C5941 C5940 1.386 . S
C5941 C5945 1.393 . S
C5942 H5934 0.950 . S
C5942 C5940 1.391 . S
C5942 C5943 1.400 . S
C5943 C5942 1.400 . S
C5943 C5944 1.398 . S
C5943 C5949 1.491 . S
C5944 H5935 0.950 . S
C5944 C5943 1.398 . S
C5944 C5945 1.391 . S
C5945 H5933 0.950 . S
C5945 C5941 1.393 . S
C5945 C5944 1.391 . S
C5946 H5936 0.950 . S
C5946 C5947 1.386 . S
C5946 C5948 1.391 . S
C5947 C5946 1.386 . S
C5947 C5951 1.393 . S
C5948 H5937 0.950 . S
C5948 C5946 1.391 . S
C5948 C5949 1.400 . S
C5949 C5943 1.491 . S
C5949 C5948 1.400 . S
C5949 C5950 1.398 . S
C5950 H5938 0.950 . S
C5950 C5949 1.398 . S
C5950 C5951 1.391 . S
C5951 H5939 0.950 . S
C5951 C5947 1.393 . S
C5951 C5950 1.391 . S
H5952 C5960 0.950 . S
H5953 C5965 0.950 . S
H5954 C5962 0.950 . S
H5955 C5964 0.950 . S
H5956 C5966 0.950 . S
H5957 C5968 0.950 . S
H5958 C5970 0.950 . S
H5959 C5971 0.950 . S
C5960 H5952 0.950 . S
C5960 C5961 1.386 . S
C5960 C5962 1.391 . S
C5961 C5960 1.386 . S
C5961 C5965 1.393 . S
C5962 H5954 0.950 . S
C5962 C5960 1.391 . S
C5962 C5963 1.400 . S
C5963 C5962 1.400 . S
C5963 C5964 1.398 . S
C5963 C5969 1.491 . S
C5964 H5955 0.950 . S
C5964 C5963 1.398 . S
C5964 C5965 1.391 . S
C5965 H5953 0.950 . S
C5965 C5961 1.393 . S
C5965 C5964 1.391 . S
C5966 H5956 0.950 . S
C5966 C5967 1.386 . S
C5966 C5968 1.391 . S
C5967 C5966 1.386 . S
C5967 C5971 1.393 . S
C5968 H5957 0.950 . S
C5968 C5966 1.391 . S
C5968 C5969 1.400 . S
C5969 C5963 1.491 . S
C5969 C5968 1.400 . S
C5969 C5970 1.398 . S
C5970 H5958 0.950 . S
C5970 C5969 1.398 . S
C5970 C5971 1.391 . S
C5971 H5959 0.950 . S
C5971 C5967 1.393 . S
C5971 C5970 1.391 . S
H5972 C5980 0.950 . S
H5973 C5985 0.950 . S
H5974 C5982 0.950 . S
H5975 C5984 0.950 . S
H5976 C5986 0.950 . S
H5977 C5988 0.950 . S
H5978 C5990 0.950 . S
H5979 C5991 0.950 . S
C5980 H5972 0.950 . S
C5980 C5981 1.386 . S
C5980 C5982 1.391 . S
C5981 C5980 1.386 . S
C5981 C5985 1.393 . S
C5982 H5974 0.950 . S
C5982 C5980 1.391 . S
C5982 C5983 1.400 . S
C5983 C5982 1.400 . S
C5983 C5984 1.398 . S
C5983 C5989 1.491 . S
C5984 H5975 0.950 . S
C5984 C5983 1.398 . S
C5984 C5985 1.391 . S
C5985 H5973 0.950 . S
C5985 C5981 1.393 . S
C5985 C5984 1.391 . S
C5986 H5976 0.950 . S
C5986 C5987 1.386 . S
C5986 C5988 1.391 . S
C5987 C5986 1.386 . S
C5987 C5991 1.393 . S
C5988 H5977 0.950 . S
C5988 C5986 1.391 . S
C5988 C5989 1.400 . S
C5989 C5983 1.491 . S
C5989 C5988 1.400 . S
C5989 C5990 1.398 . S
C5990 H5978 0.950 . S
C5990 C5989 1.398 . S
C5990 C5991 1.391 . S
C5991 H5979 0.950 . S
C5991 C5987 1.393 . S
C5991 C5990 1.391 . S
H5992 C6000 0.950 . S
H5993 C6005 0.950 . S
H5994 C6002 0.950 . S
H5995 C6004 0.950 . S
H5996 C6006 0.950 . S
H5997 C6008 0.950 . S
H5998 C6010 0.950 1_655 S
H5999 C6011 0.950 . S
C6000 H5992 0.950 . S
C6000 C6001 1.386 . S
C6000 C6002 1.391 . S
C6001 C6000 1.386 . S
C6001 C6005 1.393 . S
C6002 H5994 0.950 . S
C6002 C6000 1.391 . S
C6002 C6003 1.400 . S
C6003 C6002 1.400 . S
C6003 C6004 1.398 . S
C6003 C6009 1.634 . S
C6004 H5995 0.950 . S
C6004 C6003 1.398 . S
C6004 C6005 1.391 . S
C6005 H5993 0.950 . S
C6005 C6001 1.393 . S
C6005 C6004 1.391 . S
C6006 H5996 0.950 . S
C6006 C6007 1.386 . S
C6006 C6008 1.391 . S
C6007 C6006 1.386 . S
C6007 C6011 1.393 . S
C6008 H5997 0.950 . S
C6008 C6006 1.391 . S
C6008 C6009 1.314 1_455 S
C6009 C6003 1.634 . S
C6009 C6008 1.314 1_655 S
C6009 C6010 1.352 1_655 S
C6010 H5998 0.950 1_455 S
C6010 C6009 1.352 1_455 S
C6010 C6011 1.391 . S
C6011 H5999 0.950 . S
C6011 C6007 1.393 . S
C6011 C6010 1.391 . S
H6012 C6020 0.950 . S
H6013 C6025 0.950 . S
H6014 C6022 0.950 . S
H6015 C6024 0.950 . S
H6016 C6026 0.950 . S
H6017 C6028 0.950 . S
H6018 C6030 0.950 . S
H6019 C6031 0.950 . S
C6020 H6012 0.950 . S
C6020 C6021 1.386 . S
C6020 C6022 1.391 . S
C6021 C6020 1.386 . S
C6021 C6025 1.393 . S
C6022 H6014 0.950 . S
C6022 C6020 1.391 . S
C6022 C6023 1.400 . S
C6023 C6022 1.400 . S
C6023 C6024 1.398 . S
C6023 C6029 1.491 . S
C6024 H6015 0.950 . S
C6024 C6023 1.398 . S
C6024 C6025 1.391 . S
C6025 H6013 0.950 . S
C6025 C6021 1.393 . S
C6025 C6024 1.391 . S
C6026 H6016 0.950 . S
C6026 C6027 1.386 . S
C6026 C6028 1.391 . S
C6027 C6026 1.386 . S
C6027 C6031 1.393 . S
C6028 H6017 0.950 . S
C6028 C6026 1.391 . S
C6028 C6029 1.400 . S
C6029 C6023 1.491 . S
C6029 C6028 1.400 . S
C6029 C6030 1.398 . S
C6030 H6018 0.950 . S
C6030 C6029 1.398 . S
C6030 C6031 1.391 . S
C6031 H6019 0.950 . S
C6031 C6027 1.393 . S
C6031 C6030 1.391 . S
H6032 C6040 0.950 . S
H6033 C6045 0.950 . S
H6034 C6042 0.950 . S
H6035 C6044 0.950 . S
H6036 C6046 0.950 . S
H6037 C6048 0.950 . S
H6038 C6050 0.950 . S
H6039 C6051 0.950 . S
C6040 H6032 0.950 . S
C6040 C6041 1.386 . S
C6040 C6042 1.391 . S
C6041 C6040 1.386 . S
C6041 C6045 1.393 . S
C6042 H6034 0.950 . S
C6042 C6040 1.391 . S
C6042 C6043 1.400 . S
C6043 C6042 1.400 . S
C6043 C6044 1.398 . S
C6043 C6049 1.491 . S
C6044 H6035 0.950 . S
C6044 C6043 1.398 . S
C6044 C6045 1.391 . S
C6045 H6033 0.950 . S
C6045 C6041 1.393 . S
C6045 C6044 1.391 . S
C6046 H6036 0.950 . S
C6046 C6047 1.386 . S
C6046 C6048 1.391 . S
C6047 C6046 1.386 . S
C6047 C6051 1.393 . S
C6048 H6037 0.950 . S
C6048 C6046 1.391 . S
C6048 C6049 1.400 . S
C6049 C6043 1.491 . S
C6049 C6048 1.400 . S
C6049 C6050 1.398 . S
C6050 H6038 0.950 . S
C6050 C6049 1.398 . S
C6050 C6051 1.391 . S
C6051 H6039 0.950 . S
C6051 C6047 1.393 . S
C6051 C6050 1.391 . S
H6052 C6060 0.950 . S
H6053 C6065 0.950 . S
H6054 C6062 0.950 . S
H6055 C6064 0.950 . S
H6056 C6066 0.950 . S
H6057 C6068 0.950 . S
H6058 C6070 0.950 . S
H6059 C6071 0.950 . S
C6060 H6052 0.950 . S
C6060 C6061 1.386 . S
C6060 C6062 1.391 . S
C6061 C6060 1.386 . S
C6061 C6065 1.393 . S
C6062 H6054 0.950 . S
C6062 C6060 1.391 . S
C6062 C6063 1.400 . S
C6063 C6062 1.400 . S
C6063 C6064 1.398 . S
C6063 C6069 1.491 . S
C6064 H6055 0.950 . S
C6064 C6063 1.398 . S
C6064 C6065 1.391 . S
C6065 H6053 0.950 . S
C6065 C6061 1.393 . S
C6065 C6064 1.391 . S
C6066 H6056 0.950 . S
C6066 C6067 1.386 . S
C6066 C6068 1.391 . S
C6067 C6066 1.386 . S
C6067 C6071 1.393 . S
C6068 H6057 0.950 . S
C6068 C6066 1.391 . S
C6068 C6069 1.400 . S
C6069 C6063 1.491 . S
C6069 C6068 1.400 . S
C6069 C6070 1.398 . S
C6070 H6058 0.950 . S
C6070 C6069 1.398 . S
C6070 C6071 1.391 . S
C6071 H6059 0.950 . S
C6071 C6067 1.393 . S
C6071 C6070 1.391 . S
H6072 C6080 0.950 . S
H6073 C6085 0.950 . S
H6074 C6082 0.950 . S
H6075 C6084 0.950 . S
H6076 C6086 0.950 . S
H6077 C6088 0.923 1_655 S
H6078 C6090 0.950 . S
H6079 C6091 0.950 . S
C6080 H6072 0.950 . S
C6080 C6081 1.386 . S
C6080 C6082 1.391 . S
C6081 C6080 1.386 . S
C6081 C6085 1.393 . S
C6082 H6074 0.950 . S
C6082 C6080 1.391 . S
C6082 C6083 1.400 . S
C6083 C6082 1.400 . S
C6083 C6084 1.398 . S
C6083 C6089 1.629 . S
C6084 H6075 0.950 . S
C6084 C6083 1.398 . S
C6084 C6085 1.391 . S
C6085 H6073 0.950 . S
C6085 C6081 1.393 . S
C6085 C6084 1.391 . S
C6086 H6076 0.950 . S
C6086 C6087 1.386 . S
C6086 C6088 1.424 . S
C6087 C6086 1.386 . S
C6087 C6091 1.393 . S
C6088 H6077 0.923 1_455 S
C6088 C6086 1.424 . S
C6088 C6089 1.383 1_455 S
C6089 C6083 1.629 . S
C6089 C6088 1.383 1_655 S
C6089 C6090 1.284 1_655 S
C6090 H6078 0.950 . S
C6090 C6089 1.284 1_455 S
C6090 C6091 1.391 . S
C6091 H6079 0.950 . S
C6091 C6087 1.393 . S
C6091 C6090 1.391 . S
H6092 C6100 0.950 . S
H6093 C6105 0.950 . S
H6094 C6102 0.950 . S
H6095 C6104 0.950 . S
H6096 C6106 0.950 . S
H6097 C6108 0.950 . S
H6098 C6110 0.950 . S
H6099 C6111 0.950 . S
C6100 H6092 0.950 . S
C6100 C6101 1.386 . S
C6100 C6102 1.391 . S
C6101 C6100 1.386 . S
C6101 C6105 1.393 . S
C6102 H6094 0.950 . S
C6102 C6100 1.391 . S
C6102 C6103 1.400 . S
C6103 C6102 1.400 . S
C6103 C6104 1.398 . S
C6103 C6109 1.491 . S
C6104 H6095 0.950 . S
C6104 C6103 1.398 . S
C6104 C6105 1.391 . S
C6105 H6093 0.950 . S
C6105 C6101 1.393 . S
C6105 C6104 1.391 . S
C6106 H6096 0.950 . S
C6106 C6107 1.386 . S
C6106 C6108 1.391 . S
C6107 C6106 1.386 . S
C6107 C6111 1.393 . S
C6108 H6097 0.950 . S
C6108 C6106 1.391 . S
C6108 C6109 1.400 . S
C6109 C6103 1.491 . S
C6109 C6108 1.400 . S
C6109 C6110 1.398 . S
C6110 H6098 0.950 . S
C6110 C6109 1.398 . S
C6110 C6111 1.391 . S
C6111 H6099 0.950 . S
C6111 C6107 1.393 . S
C6111 C6110 1.391 . S
H6112 C6120 0.950 . S
H6113 C6125 0.950 . S
H6114 C6122 0.950 . S
H6115 C6124 0.950 . S
H6116 C6126 0.950 . S
H6117 C6128 0.950 . S
H6118 C6130 0.950 . S
H6119 C6131 0.950 . S
C6120 H6112 0.950 . S
C6120 C6121 1.386 . S
C6120 C6122 1.391 . S
C6121 C6120 1.386 . S
C6121 C6125 1.393 . S
C6122 H6114 0.950 . S
C6122 C6120 1.391 . S
C6122 C6123 1.400 . S
C6123 C6122 1.400 . S
C6123 C6124 1.398 . S
C6123 C6129 1.491 . S
C6124 H6115 0.950 . S
C6124 C6123 1.398 . S
C6124 C6125 1.391 . S
C6125 H6113 0.950 . S
C6125 C6121 1.393 . S
C6125 C6124 1.391 . S
C6126 H6116 0.950 . S
C6126 C6127 1.386 . S
C6126 C6128 1.391 . S
C6127 C6126 1.386 . S
C6127 C6131 1.393 . S
C6128 H6117 0.950 . S
C6128 C6126 1.391 . S
C6128 C6129 1.400 . S
C6129 C6123 1.491 . S
C6129 C6128 1.400 . S
C6129 C6130 1.398 . S
C6130 H6118 0.950 . S
C6130 C6129 1.398 . S
C6130 C6131 1.391 . S
C6131 H6119 0.950 . S
C6131 C6127 1.393 . S
C6131 C6130 1.391 . S
H6132 C6140 0.950 . S
H6133 C6145 0.950 . S
H6134 C6142 0.950 . S
H6135 C6144 0.950 . S
H6136 C6146 0.950 . S
H6137 C6148 0.950 . S
H6138 C6150 0.950 . S
H6139 C6151 0.950 . S
C6140 H6132 0.950 . S
C6140 C6141 1.386 . S
C6140 C6142 1.391 . S
C6141 C6140 1.386 . S
C6141 C6145 1.393 . S
C6142 H6134 0.950 . S
C6142 C6140 1.391 . S
C6142 C6143 1.400 . S
C6143 C6142 1.400 . S
C6143 C6144 1.398 . S
C6143 C6149 1.491 . S
C6144 H6135 0.950 . S
C6144 C6143 1.398 . S
C6144 C6145 1.391 . S
C6145 H6133 0.950 . S
C6145 C6141 1.393 . S
C6145 C6144 1.391 . S
C6146 H6136 0.950 . S
C6146 C6147 1.386 . S
C6146 C6148 1.391 . S
C6147 C6146 1.386 . S
C6147 C6151 1.393 . S
C6148 H6137 0.950 . S
C6148 C6146 1.391 . S
C6148 C6149 1.400 . S
C6149 C6143 1.491 . S
C6149 C6148 1.400 . S
C6149 C6150 1.398 . S
C6150 H6138 0.950 . S
C6150 C6149 1.398 . S
C6150 C6151 1.391 . S
C6151 H6139 0.950 . S
C6151 C6147 1.393 . S
C6151 C6150 1.391 . S
H6152 C6160 0.950 . S
H6153 C6165 0.950 . S
H6154 C6162 0.950 . S
H6155 C6164 0.950 . S
H6156 C6166 0.950 . S
H6157 C6168 0.950 . S
H6158 C6170 0.950 . S
H6159 C6171 0.950 . S
C6160 H6152 0.950 . S
C6160 C6161 1.386 . S
C6160 C6162 1.391 . S
C6161 C6160 1.386 . S
C6161 C6165 1.393 . S
C6162 H6154 0.950 . S
C6162 C6160 1.391 . S
C6162 C6163 1.400 . S
C6163 C6162 1.400 . S
C6163 C6164 1.398 . S
C6163 C6169 1.491 . S
C6164 H6155 0.950 . S
C6164 C6163 1.398 . S
C6164 C6165 1.391 . S
C6165 H6153 0.950 . S
C6165 C6161 1.393 . S
C6165 C6164 1.391 . S
C6166 H6156 0.950 . S
C6166 C6167 1.386 . S
C6166 C6168 1.391 . S
C6167 C6166 1.386 . S
C6167 C6171 1.393 . S
C6168 H6157 0.950 . S
C6168 C6166 1.391 . S
C6168 C6169 1.400 . S
C6169 C6163 1.491 . S
C6169 C6168 1.400 . S
C6169 C6170 1.398 . S
C6170 H6158 0.950 . S
C6170 C6169 1.398 . S
C6170 C6171 1.391 . S
C6171 H6159 0.950 . S
C6171 C6167 1.393 . S
C6171 C6170 1.391 . S
H6172 C6180 0.950 . S
H6173 C6185 0.950 . S
H6174 C6182 0.950 . S
H6175 C6184 0.950 . S
H6176 C6186 0.950 . S
H6177 C6188 0.950 . S
H6178 C6190 0.950 . S
H6179 C6191 0.950 . S
C6180 H6172 0.950 . S
C6180 C6181 1.386 . S
C6180 C6182 1.391 . S
C6181 C6180 1.386 . S
C6181 C6185 1.393 . S
C6182 H6174 0.950 . S
C6182 C6180 1.391 . S
C6182 C6183 1.400 . S
C6183 C6182 1.400 . S
C6183 C6184 1.398 . S
C6183 C6189 1.491 . S
C6184 H6175 0.950 . S
C6184 C6183 1.398 . S
C6184 C6185 1.391 . S
C6185 H6173 0.950 . S
C6185 C6181 1.393 . S
C6185 C6184 1.391 . S
C6186 H6176 0.950 . S
C6186 C6187 1.386 . S
C6186 C6188 1.391 . S
C6187 C6186 1.386 . S
C6187 C6191 1.393 . S
C6188 H6177 0.950 . S
C6188 C6186 1.391 . S
C6188 C6189 1.400 . S
C6189 C6183 1.491 . S
C6189 C6188 1.400 . S
C6189 C6190 1.398 . S
C6190 H6178 0.950 . S
C6190 C6189 1.398 . S
C6190 C6191 1.391 . S
C6191 H6179 0.950 . S
C6191 C6187 1.393 . S
C6191 C6190 1.391 . S
H6192 C6200 0.950 . S
H6193 C6205 0.950 . S
H6194 C6202 0.950 . S
H6195 C6204 0.950 . S
H6196 C6206 0.950 . S
H6197 C6208 0.950 . S
H6198 C6210 0.950 . S
H6199 C6211 0.950 . S
C6200 H6192 0.950 . S
C6200 C6201 1.386 . S
C6200 C6202 1.391 . S
C6201 C6200 1.386 . S
C6201 C6205 1.393 . S
C6202 H6194 0.950 . S
C6202 C6200 1.391 . S
C6202 C6203 1.400 . S
C6203 C6202 1.400 . S
C6203 C6204 1.398 . S
C6203 C6209 1.491 . S
C6204 H6195 0.950 . S
C6204 C6203 1.398 . S
C6204 C6205 1.391 . S
C6205 H6193 0.950 . S
C6205 C6201 1.393 . S
C6205 C6204 1.391 . S
C6206 H6196 0.950 . S
C6206 C6207 1.386 . S
C6206 C6208 1.391 . S
C6207 C6206 1.386 . S
C6207 C6211 1.393 . S
C6208 H6197 0.950 . S
C6208 C6206 1.391 . S
C6208 C6209 1.400 . S
C6209 C6203 1.491 . S
C6209 C6208 1.400 . S
C6209 C6210 1.398 . S
C6210 H6198 0.950 . S
C6210 C6209 1.398 . S
C6210 C6211 1.391 . S
C6211 H6199 0.950 . S
C6211 C6207 1.393 . S
C6211 C6210 1.391 . S
H6212 C6220 0.950 . S
H6213 C6225 0.950 . S
H6214 C6222 0.950 . S
H6215 C6224 0.950 . S
H6216 C6226 0.950 . S
H6217 C6228 0.950 . S
H6218 C6230 0.950 . S
H6219 C6231 0.950 . S
C6220 H6212 0.950 . S
C6220 C6221 1.386 . S
C6220 C6222 1.391 . S
C6221 C6220 1.386 . S
C6221 C6225 1.393 . S
C6222 H6214 0.950 . S
C6222 C6220 1.391 . S
C6222 C6223 1.400 . S
C6223 C6222 1.400 . S
C6223 C6224 1.398 . S
C6223 C6229 1.491 . S
C6224 H6215 0.950 . S
C6224 C6223 1.398 . S
C6224 C6225 1.391 . S
C6225 H6213 0.950 . S
C6225 C6221 1.393 . S
C6225 C6224 1.391 . S
C6226 H6216 0.950 . S
C6226 C6227 1.386 . S
C6226 C6228 1.391 . S
C6227 C6226 1.386 . S
C6227 C6231 1.393 . S
C6228 H6217 0.950 . S
C6228 C6226 1.391 . S
C6228 C6229 1.400 . S
C6229 C6223 1.491 . S
C6229 C6228 1.400 . S
C6229 C6230 1.398 . S
C6230 H6218 0.950 . S
C6230 C6229 1.398 . S
C6230 C6231 1.391 . S
C6231 H6219 0.950 . S
C6231 C6227 1.393 . S
C6231 C6230 1.391 . S
H6232 C6240 0.950 . S
H6233 C6245 0.950 . S
H6234 C6242 0.950 . S
H6235 C6244 0.950 . S
H6236 C6246 0.950 . S
H6237 C6248 0.950 . S
H6238 C6250 0.950 . S
H6239 C6251 0.950 . S
C6240 H6232 0.950 . S
C6240 C6241 1.386 . S
C6240 C6242 1.391 . S
C6241 C6240 1.386 . S
C6241 C6245 1.393 . S
C6242 H6234 0.950 . S
C6242 C6240 1.391 . S
C6242 C6243 1.400 . S
C6243 C6242 1.400 . S
C6243 C6244 1.398 . S
C6243 C6249 1.491 . S
C6244 H6235 0.950 . S
C6244 C6243 1.398 . S
C6244 C6245 1.391 . S
C6245 H6233 0.950 . S
C6245 C6241 1.393 . S
C6245 C6244 1.391 . S
C6246 H6236 0.950 . S
C6246 C6247 1.386 . S
C6246 C6248 1.391 . S
C6247 C6246 1.386 . S
C6247 C6251 1.393 . S
C6248 H6237 0.950 . S
C6248 C6246 1.391 . S
C6248 C6249 1.400 . S
C6249 C6243 1.491 . S
C6249 C6248 1.400 . S
C6249 C6250 1.398 . S
C6250 H6238 0.950 . S
C6250 C6249 1.398 . S
C6250 C6251 1.391 . S
C6251 H6239 0.950 . S
C6251 C6247 1.393 . S
C6251 C6250 1.391 . S
H6252 C6260 0.950 . S
H6253 C6265 0.950 . S
H6254 C6262 0.950 . S
H6255 C6264 0.950 . S
H6256 C6266 0.950 . S
H6257 C6268 0.950 . S
H6258 C6270 0.950 . S
H6259 C6271 0.950 . S
C6260 H6252 0.950 . S
C6260 C6261 1.386 . S
C6260 C6262 1.391 . S
C6261 C6260 1.386 . S
C6261 C6265 1.393 . S
C6262 H6254 0.950 . S
C6262 C6260 1.391 . S
C6262 C6263 1.400 . S
C6263 C6262 1.400 . S
C6263 C6264 1.398 . S
C6263 C6269 1.491 . S
C6264 H6255 0.950 . S
C6264 C6263 1.398 . S
C6264 C6265 1.391 . S
C6265 H6253 0.950 . S
C6265 C6261 1.393 . S
C6265 C6264 1.391 . S
C6266 H6256 0.950 . S
C6266 C6267 1.386 . S
C6266 C6268 1.391 . S
C6267 C6266 1.386 . S
C6267 C6271 1.393 . S
C6268 H6257 0.950 . S
C6268 C6266 1.391 . S
C6268 C6269 1.400 . S
C6269 C6263 1.491 . S
C6269 C6268 1.400 . S
C6269 C6270 1.398 . S
C6270 H6258 0.950 . S
C6270 C6269 1.398 . S
C6270 C6271 1.391 . S
C6271 H6259 0.950 . S
C6271 C6267 1.393 . S
C6271 C6270 1.391 . S
H6272 C6280 0.950 . S
H6273 C6285 0.950 . S
H6274 C6282 0.950 . S
H6275 C6284 0.950 . S
H6276 C6286 0.950 . S
H6277 C6288 0.950 . S
H6278 C6290 0.950 . S
H6279 C6291 0.950 . S
C6280 H6272 0.950 . S
C6280 C6281 1.386 . S
C6280 C6282 1.391 . S
C6281 C6280 1.386 . S
C6281 C6285 1.393 . S
C6282 H6274 0.950 . S
C6282 C6280 1.391 . S
C6282 C6283 1.400 . S
C6283 C6282 1.400 . S
C6283 C6284 1.398 . S
C6283 C6289 1.491 . S
C6284 H6275 0.950 . S
C6284 C6283 1.398 . S
C6284 C6285 1.391 . S
C6285 H6273 0.950 . S
C6285 C6281 1.393 . S
C6285 C6284 1.391 . S
C6286 H6276 0.950 . S
C6286 C6287 1.386 . S
C6286 C6288 1.391 . S
C6287 C6286 1.386 . S
C6287 C6291 1.393 . S
C6288 H6277 0.950 . S
C6288 C6286 1.391 . S
C6288 C6289 1.400 . S
C6289 C6283 1.491 . S
C6289 C6288 1.400 . S
C6289 C6290 1.398 . S
C6290 H6278 0.950 . S
C6290 C6289 1.398 . S
C6290 C6291 1.391 . S
C6291 H6279 0.950 . S
C6291 C6287 1.393 . S
C6291 C6290 1.391 . S
H6292 C6300 0.950 . S
H6293 C6305 0.950 . S
H6294 C6302 0.950 . S
H6295 C6304 0.950 . S
H6296 C6306 0.950 . S
H6297 C6308 0.950 . S
H6298 C6310 0.950 . S
H6299 C6311 0.950 . S
C6300 H6292 0.950 . S
C6300 C6301 1.386 . S
C6300 C6302 1.391 . S
C6301 C6300 1.386 . S
C6301 C6305 1.393 . S
C6302 H6294 0.950 . S
C6302 C6300 1.391 . S
C6302 C6303 1.400 . S
C6303 C6302 1.400 . S
C6303 C6304 1.398 . S
C6303 C6309 1.491 . S
C6304 H6295 0.950 . S
C6304 C6303 1.398 . S
C6304 C6305 1.391 . S
C6305 H6293 0.950 . S
C6305 C6301 1.393 . S
C6305 C6304 1.391 . S
C6306 H6296 0.950 . S
C6306 C6307 1.386 . S
C6306 C6308 1.391 . S
C6307 C6306 1.386 . S
C6307 C6311 1.393 . S
C6308 H6297 0.950 . S
C6308 C6306 1.391 . S
C6308 C6309 1.400 . S
C6309 C6303 1.491 . S
C6309 C6308 1.400 . S
C6309 C6310 1.398 . S
C6310 H6298 0.950 . S
C6310 C6309 1.398 . S
C6310 C6311 1.391 . S
C6311 H6299 0.950 . S
C6311 C6307 1.393 . S
C6311 C6310 1.391 . S
H6312 C6320 0.950 . S
H6313 C6325 0.950 . S
H6314 C6322 0.950 . S
H6315 C6324 0.950 . S
H6316 C6326 0.950 . S
H6317 C6328 0.950 . S
H6318 C6330 0.950 . S
H6319 C6331 0.950 . S
C6320 H6312 0.950 . S
C6320 C6321 1.386 . S
C6320 C6322 1.391 . S
C6321 C6320 1.386 . S
C6321 C6325 1.393 . S
C6322 H6314 0.950 . S
C6322 C6320 1.391 . S
C6322 C6323 1.400 . S
C6323 C6322 1.400 . S
C6323 C6324 1.398 . S
C6323 C6329 1.491 . S
C6324 H6315 0.950 . S
C6324 C6323 1.398 . S
C6324 C6325 1.391 . S
C6325 H6313 0.950 . S
C6325 C6321 1.393 . S
C6325 C6324 1.391 . S
C6326 H6316 0.950 . S
C6326 C6327 1.386 . S
C6326 C6328 1.391 . S
C6327 C6326 1.386 . S
C6327 C6331 1.393 . S
C6328 H6317 0.950 . S
C6328 C6326 1.391 . S
C6328 C6329 1.400 . S
C6329 C6323 1.491 . S
C6329 C6328 1.400 . S
C6329 C6330 1.398 . S
C6330 H6318 0.950 . S
C6330 C6329 1.398 . S
C6330 C6331 1.391 . S
C6331 H6319 0.950 . S
C6331 C6327 1.393 . S
C6331 C6330 1.391 . S
H6332 C6340 0.950 . S
H6333 C6345 0.950 . S
H6334 C6342 0.950 . S
H6335 C6344 0.950 . S
H6336 C6346 0.950 . S
H6337 C6348 0.911 1_556 S
H6338 C6350 0.950 . S
H6339 C6351 0.950 . S
C6340 H6332 0.950 . S
C6340 C6341 1.386 . S
C6340 C6342 1.391 . S
C6341 C6340 1.386 . S
C6341 C6345 1.393 . S
C6342 H6334 0.950 . S
C6342 C6340 1.391 . S
C6342 C6343 1.400 . S
C6343 C6342 1.400 . S
C6343 C6344 1.398 . S
C6343 C6349 1.622 . S
C6344 H6335 0.950 . S
C6344 C6343 1.398 . S
C6344 C6345 1.391 . S
C6345 H6333 0.950 . S
C6345 C6341 1.393 . S
C6345 C6344 1.391 . S
C6346 H6336 0.950 . S
C6346 C6347 1.386 . S
C6346 C6348 1.438 . S
C6347 C6346 1.386 . S
C6347 C6351 1.393 . S
C6348 H6337 0.911 1_554 S
C6348 C6346 1.438 . S
C6348 C6349 1.382 1_554 S
C6349 C6343 1.622 . S
C6349 C6348 1.382 1_556 S
C6349 C6350 1.289 1_556 S
C6350 H6338 0.950 . S
C6350 C6349 1.289 1_554 S
C6350 C6351 1.391 . S
C6351 H6339 0.950 . S
C6351 C6347 1.393 . S
C6351 C6350 1.391 . S
H6352 C6360 0.950 . S
H6353 C6365 0.950 . S
H6354 C6362 0.950 . S
H6355 C6364 0.950 . S
H6356 C6366 0.950 . S
H6357 C6368 0.950 . S
H6358 C6370 0.950 . S
H6359 C6371 0.950 . S
C6360 H6352 0.950 . S
C6360 C6361 1.386 . S
C6360 C6362 1.391 . S
C6361 C6360 1.386 . S
C6361 C6365 1.393 . S
C6362 H6354 0.950 . S
C6362 C6360 1.391 . S
C6362 C6363 1.400 . S
C6363 C6362 1.400 . S
C6363 C6364 1.398 . S
C6363 C6369 1.491 . S
C6364 H6355 0.950 . S
C6364 C6363 1.398 . S
C6364 C6365 1.391 . S
C6365 H6353 0.950 . S
C6365 C6361 1.393 . S
C6365 C6364 1.391 . S
C6366 H6356 0.950 . S
C6366 C6367 1.386 . S
C6366 C6368 1.391 . S
C6367 C6366 1.386 . S
C6367 C6371 1.393 . S
C6368 H6357 0.950 . S
C6368 C6366 1.391 . S
C6368 C6369 1.400 . S
C6369 C6363 1.491 . S
C6369 C6368 1.400 . S
C6369 C6370 1.398 . S
C6370 H6358 0.950 . S
C6370 C6369 1.398 . S
C6370 C6371 1.391 . S
C6371 H6359 0.950 . S
C6371 C6367 1.393 . S
C6371 C6370 1.391 . S
H6372 C6380 0.950 . S
H6373 C6385 0.950 . S
H6374 C6382 0.950 . S
H6375 C6384 0.950 . S
H6376 C6386 0.950 . S
H6377 C6388 0.859 1_554 S
H6378 C6390 0.950 . S
H6379 C6391 0.950 . S
C6380 H6372 0.950 . S
C6380 C6381 1.386 . S
C6380 C6382 1.391 . S
C6381 C6380 1.386 . S
C6381 C6385 1.393 . S
C6382 H6374 0.950 . S
C6382 C6380 1.391 . S
C6382 C6383 1.400 . S
C6383 C6382 1.400 . S
C6383 C6384 1.398 . S
C6383 C6389 1.631 . S
C6384 H6375 0.950 . S
C6384 C6383 1.398 . S
C6384 C6385 1.391 . S
C6385 H6373 0.950 . S
C6385 C6381 1.393 . S
C6385 C6384 1.391 . S
C6386 H6376 0.950 . S
C6386 C6387 1.386 . S
C6386 C6388 1.521 . S
C6387 C6386 1.386 . S
C6387 C6391 1.393 . S
C6388 H6377 0.859 1_556 S
C6388 C6386 1.521 . S
C6388 C6389 1.361 1_556 S
C6389 C6383 1.631 . S
C6389 C6388 1.361 1_554 S
C6389 C6390 1.295 1_554 S
C6390 H6378 0.950 . S
C6390 C6389 1.295 1_556 S
C6390 C6391 1.391 . S
C6391 H6379 0.950 . S
C6391 C6387 1.393 . S
C6391 C6390 1.391 . S
H6392 C6400 0.950 . S
H6393 C6405 0.950 . S
H6394 C6402 0.950 . S
H6395 C6404 0.950 . S
H6396 C6406 0.950 . S
H6397 C6408 0.950 . S
H6398 C6410 0.950 . S
H6399 C6411 0.950 . S
C6400 H6392 0.950 . S
C6400 C6401 1.386 . S
C6400 C6402 1.391 . S
C6401 C6400 1.386 . S
C6401 C6405 1.393 . S
C6402 H6394 0.950 . S
C6402 C6400 1.391 . S
C6402 C6403 1.400 . S
C6403 C6402 1.400 . S
C6403 C6404 1.398 . S
C6403 C6409 1.491 . S
C6404 H6395 0.950 . S
C6404 C6403 1.398 . S
C6404 C6405 1.391 . S
C6405 H6393 0.950 . S
C6405 C6401 1.393 . S
C6405 C6404 1.391 . S
C6406 H6396 0.950 . S
C6406 C6407 1.386 . S
C6406 C6408 1.391 . S
C6407 C6406 1.386 . S
C6407 C6411 1.393 . S
C6408 H6397 0.950 . S
C6408 C6406 1.391 . S
C6408 C6409 1.400 . S
C6409 C6403 1.491 . S
C6409 C6408 1.400 . S
C6409 C6410 1.398 . S
C6410 H6398 0.950 . S
C6410 C6409 1.398 . S
C6410 C6411 1.391 . S
C6411 H6399 0.950 . S
C6411 C6407 1.393 . S
C6411 C6410 1.391 . S
H6412 C6420 0.950 . S
H6413 C6425 0.950 . S
H6414 C6422 0.950 . S
H6415 C6424 0.950 . S
H6416 C6426 0.950 . S
H6417 C6428 0.950 . S
H6418 C6430 0.950 . S
H6419 C6431 0.950 . S
C6420 H6412 0.950 . S
C6420 C6421 1.386 . S
C6420 C6422 1.391 . S
C6421 C6420 1.386 . S
C6421 C6425 1.393 . S
C6422 H6414 0.950 . S
C6422 C6420 1.391 . S
C6422 C6423 1.400 . S
C6423 C6422 1.400 . S
C6423 C6424 1.398 . S
C6423 C6429 1.491 . S
C6424 H6415 0.950 . S
C6424 C6423 1.398 . S
C6424 C6425 1.391 . S
C6425 H6413 0.950 . S
C6425 C6421 1.393 . S
C6425 C6424 1.391 . S
C6426 H6416 0.950 . S
C6426 C6427 1.386 . S
C6426 C6428 1.391 . S
C6427 C6426 1.386 . S
C6427 C6431 1.393 . S
C6428 H6417 0.950 . S
C6428 C6426 1.391 . S
C6428 C6429 1.400 . S
C6429 C6423 1.491 . S
C6429 C6428 1.400 . S
C6429 C6430 1.398 . S
C6430 H6418 0.950 . S
C6430 C6429 1.398 . S
C6430 C6431 1.391 . S
C6431 H6419 0.950 . S
C6431 C6427 1.393 . S
C6431 C6430 1.391 . S
H6432 C6440 0.950 . S
H6433 C6445 0.950 . S
H6434 C6442 0.950 . S
H6435 C6444 0.950 . S
H6436 C6446 0.950 . S
H6437 C6448 0.950 . S
H6438 C6450 0.950 . S
H6439 C6451 0.950 . S
C6440 H6432 0.950 . S
C6440 C6441 1.386 . S
C6440 C6442 1.391 . S
C6441 C6440 1.386 . S
C6441 C6445 1.393 . S
C6442 H6434 0.950 . S
C6442 C6440 1.391 . S
C6442 C6443 1.400 . S
C6443 C6442 1.400 . S
C6443 C6444 1.398 . S
C6443 C6449 1.491 . S
C6444 H6435 0.950 . S
C6444 C6443 1.398 . S
C6444 C6445 1.391 . S
C6445 H6433 0.950 . S
C6445 C6441 1.393 . S
C6445 C6444 1.391 . S
C6446 H6436 0.950 . S
C6446 C6447 1.386 . S
C6446 C6448 1.391 . S
C6447 C6446 1.386 . S
C6447 C6451 1.393 . S
C6448 H6437 0.950 . S
C6448 C6446 1.391 . S
C6448 C6449 1.400 . S
C6449 C6443 1.491 . S
C6449 C6448 1.400 . S
C6449 C6450 1.398 . S
C6450 H6438 0.950 . S
C6450 C6449 1.398 . S
C6450 C6451 1.391 . S
C6451 H6439 0.950 . S
C6451 C6447 1.393 . S
C6451 C6450 1.391 . S
H6452 C6460 0.950 . S
H6453 C6465 0.950 . S
H6454 C6462 0.950 . S
H6455 C6464 0.950 . S
H6456 C6466 0.950 . S
H6457 C6468 0.950 . S
H6458 C6470 0.950 . S
H6459 C6471 0.950 . S
C6460 H6452 0.950 . S
C6460 C6461 1.386 . S
C6460 C6462 1.391 . S
C6461 C6460 1.386 . S
C6461 C6465 1.393 . S
C6462 H6454 0.950 . S
C6462 C6460 1.391 . S
C6462 C6463 1.400 . S
C6463 C6462 1.400 . S
C6463 C6464 1.398 . S
C6463 C6469 1.491 . S
C6464 H6455 0.950 . S
C6464 C6463 1.398 . S
C6464 C6465 1.391 . S
C6465 H6453 0.950 . S
C6465 C6461 1.393 . S
C6465 C6464 1.391 . S
C6466 H6456 0.950 . S
C6466 C6467 1.386 . S
C6466 C6468 1.391 . S
C6467 C6466 1.386 . S
C6467 C6471 1.393 . S
C6468 H6457 0.950 . S
C6468 C6466 1.391 . S
C6468 C6469 1.400 . S
C6469 C6463 1.491 . S
C6469 C6468 1.400 . S
C6469 C6470 1.398 . S
C6470 H6458 0.950 . S
C6470 C6469 1.398 . S
C6470 C6471 1.391 . S
C6471 H6459 0.950 . S
C6471 C6467 1.393 . S
C6471 C6470 1.391 . S
H6472 C6480 0.950 . S
H6473 C6485 0.950 . S
H6474 C6482 0.950 . S
H6475 C6484 0.950 . S
H6476 C6486 0.950 . S
H6477 C6488 0.869 1_455 S
H6478 C6490 0.950 . S
H6479 C6491 0.950 . S
C6480 H6472 0.950 . S
C6480 C6481 1.386 . S
C6480 C6482 1.391 . S
C6481 C6480 1.386 . S
C6481 C6485 1.393 . S
C6482 H6474 0.950 . S
C6482 C6480 1.391 . S
C6482 C6483 1.400 . S
C6483 C6482 1.400 . S
C6483 C6484 1.398 . S
C6483 C6489 1.621 . S
C6484 H6475 0.950 . S
C6484 C6483 1.398 . S
C6484 C6485 1.391 . S
C6485 H6473 0.950 . S
C6485 C6481 1.393 . S
C6485 C6484 1.391 . S
C6486 H6476 0.950 . S
C6486 C6487 1.386 . S
C6486 C6488 1.500 . S
C6487 C6486 1.386 . S
C6487 C6491 1.393 . S
C6488 H6477 0.869 1_655 S
C6488 C6486 1.500 . S
C6488 C6489 1.369 1_655 S
C6489 C6483 1.621 . S
C6489 C6488 1.369 1_455 S
C6489 C6490 1.297 1_455 S
C6490 H6478 0.950 . S
C6490 C6489 1.297 1_655 S
C6490 C6491 1.391 . S
C6491 H6479 0.950 . S
C6491 C6487 1.393 . S
C6491 C6490 1.391 . S
H6492 C6500 0.950 . S
H6493 C6505 0.950 . S
H6494 C6502 0.950 . S
H6495 C6504 0.950 . S
H6496 C6506 0.950 . S
H6497 C6508 0.950 . S
H6498 C6510 0.950 . S
H6499 C6511 0.950 . S
C6500 H6492 0.950 . S
C6500 C6501 1.386 . S
C6500 C6502 1.391 . S
C6501 C6500 1.386 . S
C6501 C6505 1.393 . S
C6502 H6494 0.950 . S
C6502 C6500 1.391 . S
C6502 C6503 1.400 . S
C6503 C6502 1.400 . S
C6503 C6504 1.398 . S
C6503 C6509 1.491 . S
C6504 H6495 0.950 . S
C6504 C6503 1.398 . S
C6504 C6505 1.391 . S
C6505 H6493 0.950 . S
C6505 C6501 1.393 . S
C6505 C6504 1.391 . S
C6506 H6496 0.950 . S
C6506 C6507 1.386 . S
C6506 C6508 1.391 . S
C6507 C6506 1.386 . S
C6507 C6511 1.393 . S
C6508 H6497 0.950 . S
C6508 C6506 1.391 . S
C6508 C6509 1.400 . S
C6509 C6503 1.491 . S
C6509 C6508 1.400 . S
C6509 C6510 1.398 . S
C6510 H6498 0.950 . S
C6510 C6509 1.398 . S
C6510 C6511 1.391 . S
C6511 H6499 0.950 . S
C6511 C6507 1.393 . S
C6511 C6510 1.391 . S
H6512 C6520 0.950 . S
H6513 C6525 0.950 . S
H6514 C6522 0.950 . S
H6515 C6524 0.950 . S
H6516 C6526 0.950 . S
H6517 C6528 0.950 . S
H6518 C6530 0.950 . S
H6519 C6531 0.950 . S
C6520 H6512 0.950 . S
C6520 C6521 1.386 . S
C6520 C6522 1.391 . S
C6521 C6520 1.386 . S
C6521 C6525 1.393 . S
C6522 H6514 0.950 . S
C6522 C6520 1.391 . S
C6522 C6523 1.400 . S
C6523 C6522 1.400 . S
C6523 C6524 1.398 . S
C6523 C6529 1.491 . S
C6524 H6515 0.950 . S
C6524 C6523 1.398 . S
C6524 C6525 1.391 . S
C6525 H6513 0.950 . S
C6525 C6521 1.393 . S
C6525 C6524 1.391 . S
C6526 H6516 0.950 . S
C6526 C6527 1.386 . S
C6526 C6528 1.391 . S
C6527 C6526 1.386 . S
C6527 C6531 1.393 . S
C6528 H6517 0.950 . S
C6528 C6526 1.391 . S
C6528 C6529 1.400 . S
C6529 C6523 1.491 . S
C6529 C6528 1.400 . S
C6529 C6530 1.398 . S
C6530 H6518 0.950 . S
C6530 C6529 1.398 . S
C6530 C6531 1.391 . S
C6531 H6519 0.950 . S
C6531 C6527 1.393 . S
C6531 C6530 1.391 . S
H6532 C6540 0.950 . S
H6533 C6545 0.950 . S
H6534 C6542 0.950 . S
H6535 C6544 0.950 . S
H6536 C6546 0.950 . S
H6537 C6548 0.950 . S
H6538 C6550 0.950 . S
H6539 C6551 0.950 . S
C6540 H6532 0.950 . S
C6540 C6541 1.386 . S
C6540 C6542 1.391 . S
C6541 C6540 1.386 . S
C6541 C6545 1.393 . S
C6542 H6534 0.950 . S
C6542 C6540 1.391 . S
C6542 C6543 1.400 . S
C6543 C6542 1.400 . S
C6543 C6544 1.398 . S
C6543 C6549 1.491 . S
C6544 H6535 0.950 . S
C6544 C6543 1.398 . S
C6544 C6545 1.391 . S
C6545 H6533 0.950 . S
C6545 C6541 1.393 . S
C6545 C6544 1.391 . S
C6546 H6536 0.950 . S
C6546 C6547 1.386 . S
C6546 C6548 1.391 . S
C6547 C6546 1.386 . S
C6547 C6551 1.393 . S
C6548 H6537 0.950 . S
C6548 C6546 1.391 . S
C6548 C6549 1.400 . S
C6549 C6543 1.491 . S
C6549 C6548 1.400 . S
C6549 C6550 1.398 . S
C6550 H6538 0.950 . S
C6550 C6549 1.398 . S
C6550 C6551 1.391 . S
C6551 H6539 0.950 . S
C6551 C6547 1.393 . S
C6551 C6550 1.391 . S
H6552 C6560 0.950 . S
H6553 C6565 0.950 . S
H6554 C6562 0.950 . S
H6555 C6564 0.950 . S
H6556 C6566 0.950 . S
H6557 C6568 0.950 . S
H6558 C6570 0.935 1_455 S
H6559 C6571 0.950 . S
C6560 H6552 0.950 . S
C6560 C6561 1.386 . S
C6560 C6562 1.391 . S
C6561 C6560 1.386 . S
C6561 C6565 1.393 . S
C6562 H6554 0.950 . S
C6562 C6560 1.391 . S
C6562 C6563 1.400 . S
C6563 C6562 1.400 . S
C6563 C6564 1.398 . S
C6563 C6569 1.625 . S
C6564 H6555 0.950 . S
C6564 C6563 1.398 . S
C6564 C6565 1.391 . S
C6565 H6553 0.950 . S
C6565 C6561 1.393 . S
C6565 C6564 1.391 . S
C6566 H6556 0.950 . S
C6566 C6567 1.386 . S
C6566 C6568 1.391 . S
C6567 C6566 1.386 . S
C6567 C6571 1.393 . S
C6568 H6557 0.950 . S
C6568 C6566 1.391 . S
C6568 C6569 1.285 1_655 S
C6569 C6563 1.625 . S
C6569 C6568 1.285 1_455 S
C6569 C6570 1.384 1_455 S
C6570 H6558 0.935 1_655 S
C6570 C6569 1.384 1_655 S
C6570 C6571 1.408 . S
C6571 H6559 0.950 . S
C6571 C6567 1.393 . S
C6571 C6570 1.408 . S
H6572 C6580 0.950 . S
H6573 C6585 0.950 . S
H6574 C6582 0.950 . S
H6575 C6584 0.950 . S
H6576 C6586 0.950 . S
H6577 C6588 0.950 . S
H6578 C6590 0.950 . S
H6579 C6591 0.950 . S
C6580 H6572 0.950 . S
C6580 C6581 1.386 . S
C6580 C6582 1.391 . S
C6581 C6580 1.386 . S
C6581 C6585 1.393 . S
C6582 H6574 0.950 . S
C6582 C6580 1.391 . S
C6582 C6583 1.400 . S
C6583 C6582 1.400 . S
C6583 C6584 1.398 . S
C6583 C6589 1.491 . S
C6584 H6575 0.950 . S
C6584 C6583 1.398 . S
C6584 C6585 1.391 . S
C6585 H6573 0.950 . S
C6585 C6581 1.393 . S
C6585 C6584 1.391 . S
C6586 H6576 0.950 . S
C6586 C6587 1.386 . S
C6586 C6588 1.391 . S
C6587 C6586 1.386 . S
C6587 C6591 1.393 . S
C6588 H6577 0.950 . S
C6588 C6586 1.391 . S
C6588 C6589 1.400 . S
C6589 C6583 1.491 . S
C6589 C6588 1.400 . S
C6589 C6590 1.398 . S
C6590 H6578 0.950 . S
C6590 C6589 1.398 . S
C6590 C6591 1.391 . S
C6591 H6579 0.950 . S
C6591 C6587 1.393 . S
C6591 C6590 1.391 . S
H6592 C6600 0.950 . S
H6593 C6605 0.950 . S
H6594 C6602 0.950 . S
H6595 C6604 0.950 . S
H6596 C6606 0.950 . S
H6597 C6608 0.950 . S
H6598 C6610 0.950 . S
H6599 C6611 0.950 . S
C6600 H6592 0.950 . S
C6600 C6601 1.386 . S
C6600 C6602 1.391 . S
C6601 C6600 1.386 . S
C6601 C6605 1.393 . S
C6602 H6594 0.950 . S
C6602 C6600 1.391 . S
C6602 C6603 1.400 . S
C6603 C6602 1.400 . S
C6603 C6604 1.398 . S
C6603 C6609 1.491 . S
C6604 H6595 0.950 . S
C6604 C6603 1.398 . S
C6604 C6605 1.391 . S
C6605 H6593 0.950 . S
C6605 C6601 1.393 . S
C6605 C6604 1.391 . S
C6606 H6596 0.950 . S
C6606 C6607 1.386 . S
C6606 C6608 1.391 . S
C6607 C6606 1.386 . S
C6607 C6611 1.393 . S
C6608 H6597 0.950 . S
C6608 C6606 1.391 . S
C6608 C6609 1.400 . S
C6609 C6603 1.491 . S
C6609 C6608 1.400 . S
C6609 C6610 1.398 . S
C6610 H6598 0.950 . S
C6610 C6609 1.398 . S
C6610 C6611 1.391 . S
C6611 H6599 0.950 . S
C6611 C6607 1.393 . S
C6611 C6610 1.391 . S
H6612 C6620 0.950 . S
H6613 C6625 0.950 . S
H6614 C6622 0.950 . S
H6615 C6624 0.950 . S
H6616 C6626 0.950 . S
H6617 C6628 0.950 . S
H6618 C6630 0.950 . S
H6619 C6631 0.950 . S
C6620 H6612 0.950 . S
C6620 C6621 1.386 . S
C6620 C6622 1.391 . S
C6621 C6620 1.386 . S
C6621 C6625 1.393 . S
C6622 H6614 0.950 . S
C6622 C6620 1.391 . S
C6622 C6623 1.400 . S
C6623 C6622 1.400 . S
C6623 C6624 1.398 . S
C6623 C6629 1.491 . S
C6624 H6615 0.950 . S
C6624 C6623 1.398 . S
C6624 C6625 1.391 . S
C6625 H6613 0.950 . S
C6625 C6621 1.393 . S
C6625 C6624 1.391 . S
C6626 H6616 0.950 . S
C6626 C6627 1.386 . S
C6626 C6628 1.391 . S
C6627 C6626 1.386 . S
C6627 C6631 1.393 . S
C6628 H6617 0.950 . S
C6628 C6626 1.391 . S
C6628 C6629 1.400 . S
C6629 C6623 1.491 . S
C6629 C6628 1.400 . S
C6629 C6630 1.398 . S
C6630 H6618 0.950 . S
C6630 C6629 1.398 . S
C6630 C6631 1.391 . S
C6631 H6619 0.950 . S
C6631 C6627 1.393 . S
C6631 C6630 1.391 . S
H6632 C6640 0.950 . S
H6633 C6645 0.950 . S
H6634 C6642 0.950 . S
H6635 C6644 0.950 . S
H6636 C6646 0.950 . S
H6637 C6648 0.950 . S
H6638 C6650 0.950 . S
H6639 C6651 0.950 . S
C6640 H6632 0.950 . S
C6640 C6641 1.386 . S
C6640 C6642 1.391 . S
C6641 C6640 1.386 . S
C6641 C6645 1.393 . S
C6642 H6634 0.950 . S
C6642 C6640 1.391 . S
C6642 C6643 1.400 . S
C6643 C6642 1.400 . S
C6643 C6644 1.398 . S
C6643 C6649 1.491 . S
C6644 H6635 0.950 . S
C6644 C6643 1.398 . S
C6644 C6645 1.391 . S
C6645 H6633 0.950 . S
C6645 C6641 1.393 . S
C6645 C6644 1.391 . S
C6646 H6636 0.950 . S
C6646 C6647 1.386 . S
C6646 C6648 1.391 . S
C6647 C6646 1.386 . S
C6647 C6651 1.393 . S
C6648 H6637 0.950 . S
C6648 C6646 1.391 . S
C6648 C6649 1.400 . S
C6649 C6643 1.491 . S
C6649 C6648 1.400 . S
C6649 C6650 1.398 . S
C6650 H6638 0.950 . S
C6650 C6649 1.398 . S
C6650 C6651 1.391 . S
C6651 H6639 0.950 . S
C6651 C6647 1.393 . S
C6651 C6650 1.391 . S
H6652 C6660 0.950 . S
H6653 C6665 0.950 . S
H6654 C6662 0.950 . S
H6655 C6664 0.950 . S
H6656 C6666 0.950 . S
H6657 C6668 0.950 . S
H6658 C6670 0.950 . S
H6659 C6671 0.950 . S
C6660 H6652 0.950 . S
C6660 C6661 1.386 . S
C6660 C6662 1.391 . S
C6661 C6660 1.386 . S
C6661 C6665 1.393 . S
C6662 H6654 0.950 . S
C6662 C6660 1.391 . S
C6662 C6663 1.400 . S
C6663 C6662 1.400 . S
C6663 C6664 1.398 . S
C6663 C6669 1.491 . S
C6664 H6655 0.950 . S
C6664 C6663 1.398 . S
C6664 C6665 1.391 . S
C6665 H6653 0.950 . S
C6665 C6661 1.393 . S
C6665 C6664 1.391 . S
C6666 H6656 0.950 . S
C6666 C6667 1.386 . S
C6666 C6668 1.391 . S
C6667 C6666 1.386 . S
C6667 C6671 1.393 . S
C6668 H6657 0.950 . S
C6668 C6666 1.391 . S
C6668 C6669 1.400 . S
C6669 C6663 1.491 . S
C6669 C6668 1.400 . S
C6669 C6670 1.398 . S
C6670 H6658 0.950 . S
C6670 C6669 1.398 . S
C6670 C6671 1.391 . S
C6671 H6659 0.950 . S
C6671 C6667 1.393 . S
C6671 C6670 1.391 . S
H6672 C6680 0.950 . S
H6673 C6685 0.950 . S
H6674 C6682 0.950 . S
H6675 C6684 0.950 . S
H6676 C6686 0.950 . S
H6677 C6688 0.950 . S
H6678 C6690 0.950 . S
H6679 C6691 0.950 . S
C6680 H6672 0.950 . S
C6680 C6681 1.386 . S
C6680 C6682 1.391 . S
C6681 C6680 1.386 . S
C6681 C6685 1.393 . S
C6682 H6674 0.950 . S
C6682 C6680 1.391 . S
C6682 C6683 1.400 . S
C6683 C6682 1.400 . S
C6683 C6684 1.398 . S
C6683 C6689 1.491 . S
C6684 H6675 0.950 . S
C6684 C6683 1.398 . S
C6684 C6685 1.391 . S
C6685 H6673 0.950 . S
C6685 C6681 1.393 . S
C6685 C6684 1.391 . S
C6686 H6676 0.950 . S
C6686 C6687 1.386 . S
C6686 C6688 1.391 . S
C6687 C6686 1.386 . S
C6687 C6691 1.393 . S
C6688 H6677 0.950 . S
C6688 C6686 1.391 . S
C6688 C6689 1.400 . S
C6689 C6683 1.491 . S
C6689 C6688 1.400 . S
C6689 C6690 1.398 . S
C6690 H6678 0.950 . S
C6690 C6689 1.398 . S
C6690 C6691 1.391 . S
C6691 H6679 0.950 . S
C6691 C6687 1.393 . S
C6691 C6690 1.391 . S
H6692 C6700 0.950 . S
H6693 C6705 0.950 . S
H6694 C6702 0.950 . S
H6695 C6704 0.950 . S
H6696 C6706 0.950 . S
H6697 C6708 0.950 . S
H6698 C6710 0.950 . S
H6699 C6711 0.950 . S
C6700 H6692 0.950 . S
C6700 C6701 1.386 . S
C6700 C6702 1.391 . S
C6701 C6700 1.386 . S
C6701 C6705 1.393 . S
C6702 H6694 0.950 . S
C6702 C6700 1.391 . S
C6702 C6703 1.400 . S
C6703 C6702 1.400 . S
C6703 C6704 1.398 . S
C6703 C6709 1.491 . S
C6704 H6695 0.950 . S
C6704 C6703 1.398 . S
C6704 C6705 1.391 . S
C6705 H6693 0.950 . S
C6705 C6701 1.393 . S
C6705 C6704 1.391 . S
C6706 H6696 0.950 . S
C6706 C6707 1.386 . S
C6706 C6708 1.391 . S
C6707 C6706 1.386 . S
C6707 C6711 1.393 . S
C6708 H6697 0.950 . S
C6708 C6706 1.391 . S
C6708 C6709 1.400 . S
C6709 C6703 1.491 . S
C6709 C6708 1.400 . S
C6709 C6710 1.398 . S
C6710 H6698 0.950 . S
C6710 C6709 1.398 . S
C6710 C6711 1.391 . S
C6711 H6699 0.950 . S
C6711 C6707 1.393 . S
C6711 C6710 1.391 . S
H6712 C6720 0.950 . S
H6713 C6725 0.950 . S
H6714 C6722 0.950 . S
H6715 C6724 0.950 . S
H6716 C6726 0.950 . S
H6717 C6728 0.950 . S
H6718 C6730 0.950 . S
H6719 C6731 0.950 . S
C6720 H6712 0.950 . S
C6720 C6721 1.386 . S
C6720 C6722 1.391 . S
C6721 C6720 1.386 . S
C6721 C6725 1.393 . S
C6722 H6714 0.950 . S
C6722 C6720 1.391 . S
C6722 C6723 1.400 . S
C6723 C6722 1.400 . S
C6723 C6724 1.398 . S
C6723 C6729 1.491 . S
C6724 H6715 0.950 . S
C6724 C6723 1.398 . S
C6724 C6725 1.391 . S
C6725 H6713 0.950 . S
C6725 C6721 1.393 . S
C6725 C6724 1.391 . S
C6726 H6716 0.950 . S
C6726 C6727 1.386 . S
C6726 C6728 1.391 . S
C6727 C6726 1.386 . S
C6727 C6731 1.393 . S
C6728 H6717 0.950 . S
C6728 C6726 1.391 . S
C6728 C6729 1.400 . S
C6729 C6723 1.491 . S
C6729 C6728 1.400 . S
C6729 C6730 1.398 . S
C6730 H6718 0.950 . S
C6730 C6729 1.398 . S
C6730 C6731 1.391 . S
C6731 H6719 0.950 . S
C6731 C6727 1.393 . S
C6731 C6730 1.391 . S
H6732 C6740 0.950 . S
H6733 C6745 0.950 . S
H6734 C6742 0.950 . S
H6735 C6744 0.950 . S
H6736 C6746 0.950 . S
H6737 C6748 0.950 . S
H6738 C6750 0.950 . S
H6739 C6751 0.950 . S
C6740 H6732 0.950 . S
C6740 C6741 1.386 . S
C6740 C6742 1.391 . S
C6741 C6740 1.386 . S
C6741 C6745 1.393 . S
C6742 H6734 0.950 . S
C6742 C6740 1.391 . S
C6742 C6743 1.400 . S
C6743 C6742 1.400 . S
C6743 C6744 1.398 . S
C6743 C6749 1.491 . S
C6744 H6735 0.950 . S
C6744 C6743 1.398 . S
C6744 C6745 1.391 . S
C6745 H6733 0.950 . S
C6745 C6741 1.393 . S
C6745 C6744 1.391 . S
C6746 H6736 0.950 . S
C6746 C6747 1.386 . S
C6746 C6748 1.391 . S
C6747 C6746 1.386 . S
C6747 C6751 1.393 . S
C6748 H6737 0.950 . S
C6748 C6746 1.391 . S
C6748 C6749 1.400 . S
C6749 C6743 1.491 . S
C6749 C6748 1.400 . S
C6749 C6750 1.398 . S
C6750 H6738 0.950 . S
C6750 C6749 1.398 . S
C6750 C6751 1.391 . S
C6751 H6739 0.950 . S
C6751 C6747 1.393 . S
C6751 C6750 1.391 . S
H6752 C6760 0.950 . S
H6753 C6765 0.950 . S
H6754 C6762 0.950 . S
H6755 C6764 0.950 . S
H6756 C6766 0.950 . S
H6757 C6768 0.950 . S
H6758 C6770 0.950 . S
H6759 C6771 0.950 . S
C6760 H6752 0.950 . S
C6760 C6761 1.386 . S
C6760 C6762 1.391 . S
C6761 C6760 1.386 . S
C6761 C6765 1.393 . S
C6762 H6754 0.950 . S
C6762 C6760 1.391 . S
C6762 C6763 1.400 . S
C6763 C6762 1.400 . S
C6763 C6764 1.398 . S
C6763 C6769 1.491 . S
C6764 H6755 0.950 . S
C6764 C6763 1.398 . S
C6764 C6765 1.391 . S
C6765 H6753 0.950 . S
C6765 C6761 1.393 . S
C6765 C6764 1.391 . S
C6766 H6756 0.950 . S
C6766 C6767 1.386 . S
C6766 C6768 1.391 . S
C6767 C6766 1.386 . S
C6767 C6771 1.393 . S
C6768 H6757 0.950 . S
C6768 C6766 1.391 . S
C6768 C6769 1.400 . S
C6769 C6763 1.491 . S
C6769 C6768 1.400 . S
C6769 C6770 1.398 . S
C6770 H6758 0.950 . S
C6770 C6769 1.398 . S
C6770 C6771 1.391 . S
C6771 H6759 0.950 . S
C6771 C6767 1.393 . S
C6771 C6770 1.391 . S
H6772 C6780 0.950 . S
H6773 C6785 0.950 . S
H6774 C6782 0.950 . S
H6775 C6784 0.950 . S
H6776 C6786 0.950 . S
H6777 C6788 0.950 . S
H6778 C6790 0.950 . S
H6779 C6791 0.950 . S
C6780 H6772 0.950 . S
C6780 C6781 1.386 . S
C6780 C6782 1.391 . S
C6781 C6780 1.386 . S
C6781 C6785 1.393 . S
C6782 H6774 0.950 . S
C6782 C6780 1.391 . S
C6782 C6783 1.400 . S
C6783 C6782 1.400 . S
C6783 C6784 1.398 . S
C6783 C6789 1.491 . S
C6784 H6775 0.950 . S
C6784 C6783 1.398 . S
C6784 C6785 1.391 . S
C6785 H6773 0.950 . S
C6785 C6781 1.393 . S
C6785 C6784 1.391 . S
C6786 H6776 0.950 . S
C6786 C6787 1.386 . S
C6786 C6788 1.391 . S
C6787 C6786 1.386 . S
C6787 C6791 1.393 . S
C6788 H6777 0.950 . S
C6788 C6786 1.391 . S
C6788 C6789 1.400 . S
C6789 C6783 1.491 . S
C6789 C6788 1.400 . S
C6789 C6790 1.398 . S
C6790 H6778 0.950 . S
C6790 C6789 1.398 . S
C6790 C6791 1.391 . S
C6791 H6779 0.950 . S
C6791 C6787 1.393 . S
C6791 C6790 1.391 . S
H6792 C6800 0.950 . S
H6793 C6805 0.950 . S
H6794 C6802 0.950 . S
H6795 C6804 0.950 . S
H6796 C6806 0.950 . S
H6797 C6808 0.950 . S
H6798 C6810 0.950 . S
H6799 C6811 0.950 . S
C6800 H6792 0.950 . S
C6800 C6801 1.386 . S
C6800 C6802 1.391 . S
C6801 C6800 1.386 . S
C6801 C6805 1.393 . S
C6802 H6794 0.950 . S
C6802 C6800 1.391 . S
C6802 C6803 1.400 . S
C6803 C6802 1.400 . S
C6803 C6804 1.398 . S
C6803 C6809 1.491 . S
C6804 H6795 0.950 . S
C6804 C6803 1.398 . S
C6804 C6805 1.391 . S
C6805 H6793 0.950 . S
C6805 C6801 1.393 . S
C6805 C6804 1.391 . S
C6806 H6796 0.950 . S
C6806 C6807 1.386 . S
C6806 C6808 1.391 . S
C6807 C6806 1.386 . S
C6807 C6811 1.393 . S
C6808 H6797 0.950 . S
C6808 C6806 1.391 . S
C6808 C6809 1.400 . S
C6809 C6803 1.491 . S
C6809 C6808 1.400 . S
C6809 C6810 1.398 . S
C6810 H6798 0.950 . S
C6810 C6809 1.398 . S
C6810 C6811 1.391 . S
C6811 H6799 0.950 . S
C6811 C6807 1.393 . S
C6811 C6810 1.391 . S
H6812 C6820 0.950 . S
H6813 C6825 0.950 . S
H6814 C6822 0.950 . S
H6815 C6824 0.950 . S
H6816 C6826 0.950 . S
H6817 C6828 0.950 . S
H6818 C6830 0.853 1_554 S
H6819 C6831 0.950 . S
C6820 H6812 0.950 . S
C6820 C6821 1.386 . S
C6820 C6822 1.391 . S
C6821 C6820 1.386 . S
C6821 C6825 1.393 . S
C6822 H6814 0.950 . S
C6822 C6820 1.391 . S
C6822 C6823 1.400 . S
C6823 C6822 1.400 . S
C6823 C6824 1.398 . S
C6823 C6829 1.633 . S
C6824 H6815 0.950 . S
C6824 C6823 1.398 . S
C6824 C6825 1.391 . S
C6825 H6813 0.950 . S
C6825 C6821 1.393 . S
C6825 C6824 1.391 . S
C6826 H6816 0.950 . S
C6826 C6827 1.386 . S
C6826 C6828 1.391 . S
C6827 C6826 1.386 . S
C6827 C6831 1.393 . S
C6828 H6817 0.950 . S
C6828 C6826 1.391 . S
C6828 C6829 1.298 1_556 S
C6829 C6823 1.633 . S
C6829 C6828 1.298 1_554 S
C6829 C6830 1.355 1_554 S
C6830 H6818 0.853 1_556 S
C6830 C6829 1.355 1_556 S
C6830 C6831 1.532 . S
C6831 H6819 0.950 . S
C6831 C6827 1.393 . S
C6831 C6830 1.532 . S
H6832 C6840 0.950 . S
H6833 C6845 0.950 . S
H6834 C6842 0.950 . S
H6835 C6844 0.950 . S
H6836 C6846 0.950 . S
H6837 C6848 0.950 . S
H6838 C6850 0.950 . S
H6839 C6851 0.950 . S
C6840 H6832 0.950 . S
C6840 C6841 1.386 . S
C6840 C6842 1.391 . S
C6841 C6840 1.386 . S
C6841 C6845 1.393 . S
C6842 H6834 0.950 . S
C6842 C6840 1.391 . S
C6842 C6843 1.400 . S
C6843 C6842 1.400 . S
C6843 C6844 1.398 . S
C6843 C6849 1.491 . S
C6844 H6835 0.950 . S
C6844 C6843 1.398 . S
C6844 C6845 1.391 . S
C6845 H6833 0.950 . S
C6845 C6841 1.393 . S
C6845 C6844 1.391 . S
C6846 H6836 0.950 . S
C6846 C6847 1.386 . S
C6846 C6848 1.391 . S
C6847 C6846 1.386 . S
C6847 C6851 1.393 . S
C6848 H6837 0.950 . S
C6848 C6846 1.391 . S
C6848 C6849 1.400 . S
C6849 C6843 1.491 . S
C6849 C6848 1.400 . S
C6849 C6850 1.398 . S
C6850 H6838 0.950 . S
C6850 C6849 1.398 . S
C6850 C6851 1.391 . S
C6851 H6839 0.950 . S
C6851 C6847 1.393 . S
C6851 C6850 1.391 . S
H6852 C6860 0.950 . S
H6853 C6865 0.950 . S
H6854 C6862 0.950 . S
H6855 C6864 0.950 . S
H6856 C6866 0.950 . S
H6857 C6868 0.892 1_556 S
H6858 C6870 0.950 . S
H6859 C6871 0.950 . S
C6860 H6852 0.950 . S
C6860 C6861 1.386 . S
C6860 C6862 1.391 . S
C6861 C6860 1.386 . S
C6861 C6865 1.393 . S
C6862 H6854 0.950 . S
C6862 C6860 1.391 . S
C6862 C6863 1.400 . S
C6863 C6862 1.400 . S
C6863 C6864 1.398 . S
C6863 C6869 1.622 . S
C6864 H6855 0.950 . S
C6864 C6863 1.398 . S
C6864 C6865 1.391 . S
C6865 H6853 0.950 . S
C6865 C6861 1.393 . S
C6865 C6864 1.391 . S
C6866 H6856 0.950 . S
C6866 C6867 1.386 . S
C6866 C6868 1.465 . S
C6867 C6866 1.386 . S
C6867 C6871 1.393 . S
C6868 H6857 0.892 1_554 S
C6868 C6866 1.465 . S
C6868 C6869 1.377 1_554 S
C6869 C6863 1.622 . S
C6869 C6868 1.377 1_556 S
C6869 C6870 1.292 1_556 S
C6870 H6858 0.950 . S
C6870 C6869 1.292 1_554 S
C6870 C6871 1.391 . S
C6871 H6859 0.950 . S
C6871 C6867 1.393 . S
C6871 C6870 1.391 . S
H6872 C6880 0.950 . S
H6873 C6885 0.950 . S
H6874 C6882 0.950 . S
H6875 C6884 0.950 . S
H6876 C6886 0.950 . S
H6877 C6888 0.950 . S
H6878 C6890 0.950 . S
H6879 C6891 0.950 . S
C6880 H6872 0.950 . S
C6880 C6881 1.386 . S
C6880 C6882 1.391 . S
C6881 C6880 1.386 . S
C6881 C6885 1.393 . S
C6882 H6874 0.950 . S
C6882 C6880 1.391 . S
C6882 C6883 1.400 . S
C6883 C6882 1.400 . S
C6883 C6884 1.398 . S
C6883 C6889 1.491 . S
C6884 H6875 0.950 . S
C6884 C6883 1.398 . S
C6884 C6885 1.391 . S
C6885 H6873 0.950 . S
C6885 C6881 1.393 . S
C6885 C6884 1.391 . S
C6886 H6876 0.950 . S
C6886 C6887 1.386 . S
C6886 C6888 1.391 . S
C6887 C6886 1.386 . S
C6887 C6891 1.393 . S
C6888 H6877 0.950 . S
C6888 C6886 1.391 . S
C6888 C6889 1.400 . S
C6889 C6883 1.491 . S
C6889 C6888 1.400 . S
C6889 C6890 1.398 . S
C6890 H6878 0.950 . S
C6890 C6889 1.398 . S
C6890 C6891 1.391 . S
C6891 H6879 0.950 . S
C6891 C6887 1.393 . S
C6891 C6890 1.391 . S
H6892 C6900 0.950 . S
H6893 C6905 0.950 . S
H6894 C6902 0.950 . S
H6895 C6904 0.950 . S
H6896 C6906 0.950 . S
H6897 C6908 0.950 . S
H6898 C6910 0.950 . S
H6899 C6911 0.950 . S
C6900 H6892 0.950 . S
C6900 C6901 1.386 . S
C6900 C6902 1.391 . S
C6901 C6900 1.386 . S
C6901 C6905 1.393 . S
C6902 H6894 0.950 . S
C6902 C6900 1.391 . S
C6902 C6903 1.400 . S
C6903 C6902 1.400 . S
C6903 C6904 1.398 . S
C6903 C6909 1.491 . S
C6904 H6895 0.950 . S
C6904 C6903 1.398 . S
C6904 C6905 1.391 . S
C6905 H6893 0.950 . S
C6905 C6901 1.393 . S
C6905 C6904 1.391 . S
C6906 H6896 0.950 . S
C6906 C6907 1.386 . S
C6906 C6908 1.391 . S
C6907 C6906 1.386 . S
C6907 C6911 1.393 . S
C6908 H6897 0.950 . S
C6908 C6906 1.391 . S
C6908 C6909 1.400 . S
C6909 C6903 1.491 . S
C6909 C6908 1.400 . S
C6909 C6910 1.398 . S
C6910 H6898 0.950 . S
C6910 C6909 1.398 . S
C6910 C6911 1.391 . S
C6911 H6899 0.950 . S
C6911 C6907 1.393 . S
C6911 C6910 1.391 . S
H6912 C6920 0.950 . S
H6913 C6925 0.950 . S
H6914 C6922 0.950 . S
H6915 C6924 0.950 . S
H6916 C6926 0.950 . S
H6917 C6928 0.950 . S
H6918 C6930 0.950 . S
H6919 C6931 0.950 . S
C6920 H6912 0.950 . S
C6920 C6921 1.386 . S
C6920 C6922 1.391 . S
C6921 C6920 1.386 . S
C6921 C6925 1.393 . S
C6922 H6914 0.950 . S
C6922 C6920 1.391 . S
C6922 C6923 1.400 . S
C6923 C6922 1.400 . S
C6923 C6924 1.398 . S
C6923 C6929 1.491 . S
C6924 H6915 0.950 . S
C6924 C6923 1.398 . S
C6924 C6925 1.391 . S
C6925 H6913 0.950 . S
C6925 C6921 1.393 . S
C6925 C6924 1.391 . S
C6926 H6916 0.950 . S
C6926 C6927 1.386 . S
C6926 C6928 1.391 . S
C6927 C6926 1.386 . S
C6927 C6931 1.393 . S
C6928 H6917 0.950 . S
C6928 C6926 1.391 . S
C6928 C6929 1.400 . S
C6929 C6923 1.491 . S
C6929 C6928 1.400 . S
C6929 C6930 1.398 . S
C6930 H6918 0.950 . S
C6930 C6929 1.398 . S
C6930 C6931 1.391 . S
C6931 H6919 0.950 . S
C6931 C6927 1.393 . S
C6931 C6930 1.391 . S
H6932 C6940 0.950 . S
H6933 C6945 0.950 . S
H6934 C6942 0.950 . S
H6935 C6944 0.950 . S
H6936 C6946 0.950 . S
H6937 C6948 0.950 . S
H6938 C6950 0.950 . S
H6939 C6951 0.950 . S
C6940 H6932 0.950 . S
C6940 C6941 1.386 . S
C6940 C6942 1.391 . S
C6941 C6940 1.386 . S
C6941 C6945 1.393 . S
C6942 H6934 0.950 . S
C6942 C6940 1.391 . S
C6942 C6943 1.400 . S
C6943 C6942 1.400 . S
C6943 C6944 1.398 . S
C6943 C6949 1.491 . S
C6944 H6935 0.950 . S
C6944 C6943 1.398 . S
C6944 C6945 1.391 . S
C6945 H6933 0.950 . S
C6945 C6941 1.393 . S
C6945 C6944 1.391 . S
C6946 H6936 0.950 . S
C6946 C6947 1.386 . S
C6946 C6948 1.391 . S
C6947 C6946 1.386 . S
C6947 C6951 1.393 . S
C6948 H6937 0.950 . S
C6948 C6946 1.391 . S
C6948 C6949 1.400 . S
C6949 C6943 1.491 . S
C6949 C6948 1.400 . S
C6949 C6950 1.398 . S
C6950 H6938 0.950 . S
C6950 C6949 1.398 . S
C6950 C6951 1.391 . S
C6951 H6939 0.950 . S
C6951 C6947 1.393 . S
C6951 C6950 1.391 . S
H6952 C6960 0.950 . S
H6953 C6965 0.950 . S
H6954 C6962 0.950 . S
H6955 C6964 0.950 . S
H6956 C6966 0.950 . S
H6957 C6968 0.950 . S
H6958 C6970 0.950 . S
H6959 C6971 0.950 . S
C6960 H6952 0.950 . S
C6960 C6961 1.386 . S
C6960 C6962 1.391 . S
C6961 C6960 1.386 . S
C6961 C6965 1.393 . S
C6962 H6954 0.950 . S
C6962 C6960 1.391 . S
C6962 C6963 1.400 . S
C6963 C6962 1.400 . S
C6963 C6964 1.398 . S
C6963 C6969 1.491 . S
C6964 H6955 0.950 . S
C6964 C6963 1.398 . S
C6964 C6965 1.391 . S
C6965 H6953 0.950 . S
C6965 C6961 1.393 . S
C6965 C6964 1.391 . S
C6966 H6956 0.950 . S
C6966 C6967 1.386 . S
C6966 C6968 1.391 . S
C6967 C6966 1.386 . S
C6967 C6971 1.393 . S
C6968 H6957 0.950 . S
C6968 C6966 1.391 . S
C6968 C6969 1.400 . S
C6969 C6963 1.491 . S
C6969 C6968 1.400 . S
C6969 C6970 1.398 . S
C6970 H6958 0.950 . S
C6970 C6969 1.398 . S
C6970 C6971 1.391 . S
C6971 H6959 0.950 . S
C6971 C6967 1.393 . S
C6971 C6970 1.391 . S
H6972 C6980 0.950 . S
H6973 C6985 0.950 . S
H6974 C6982 0.950 . S
H6975 C6984 0.950 . S
H6976 C6986 0.950 . S
H6977 C6988 0.950 . S
H6978 C6990 0.950 . S
H6979 C6991 0.950 . S
C6980 H6972 0.950 . S
C6980 C6981 1.386 . S
C6980 C6982 1.391 . S
C6981 C6980 1.386 . S
C6981 C6985 1.393 . S
C6982 H6974 0.950 . S
C6982 C6980 1.391 . S
C6982 C6983 1.400 . S
C6983 C6982 1.400 . S
C6983 C6984 1.398 . S
C6983 C6989 1.491 . S
C6984 H6975 0.950 . S
C6984 C6983 1.398 . S
C6984 C6985 1.391 . S
C6985 H6973 0.950 . S
C6985 C6981 1.393 . S
C6985 C6984 1.391 . S
C6986 H6976 0.950 . S
C6986 C6987 1.386 . S
C6986 C6988 1.391 . S
C6987 C6986 1.386 . S
C6987 C6991 1.393 . S
C6988 H6977 0.950 . S
C6988 C6986 1.391 . S
C6988 C6989 1.400 . S
C6989 C6983 1.491 . S
C6989 C6988 1.400 . S
C6989 C6990 1.398 . S
C6990 H6978 0.950 . S
C6990 C6989 1.398 . S
C6990 C6991 1.391 . S
C6991 H6979 0.950 . S
C6991 C6987 1.393 . S
C6991 C6990 1.391 . S
H6992 C7000 0.950 . S
H6993 C7005 0.950 . S
H6994 C7002 0.950 . S
H6995 C7004 0.950 . S
H6996 C7006 0.950 . S
H6997 C7008 0.950 . S
H6998 C7010 0.950 . S
H6999 C7011 0.950 . S
C7000 H6992 0.950 . S
C7000 C7001 1.386 . S
C7000 C7002 1.391 . S
C7001 C7000 1.386 . S
C7001 C7005 1.393 . S
C7002 H6994 0.950 . S
C7002 C7000 1.391 . S
C7002 C7003 1.400 . S
C7003 C7002 1.400 . S
C7003 C7004 1.398 . S
C7003 C7009 1.491 . S
C7004 H6995 0.950 . S
C7004 C7003 1.398 . S
C7004 C7005 1.391 . S
C7005 H6993 0.950 . S
C7005 C7001 1.393 . S
C7005 C7004 1.391 . S
C7006 H6996 0.950 . S
C7006 C7007 1.386 . S
C7006 C7008 1.391 . S
C7007 C7006 1.386 . S
C7007 C7011 1.393 . S
C7008 H6997 0.950 . S
C7008 C7006 1.391 . S
C7008 C7009 1.400 . S
C7009 C7003 1.491 . S
C7009 C7008 1.400 . S
C7009 C7010 1.398 . S
C7010 H6998 0.950 . S
C7010 C7009 1.398 . S
C7010 C7011 1.391 . S
C7011 H6999 0.950 . S
C7011 C7007 1.393 . S
C7011 C7010 1.391 . S
H7012 C7020 0.950 . S
H7013 C7025 0.950 . S
H7014 C7022 0.950 . S
H7015 C7024 0.950 . S
H7016 C7026 0.950 . S
H7017 C7028 0.950 . S
H7018 C7030 0.950 . S
H7019 C7031 0.950 . S
C7020 H7012 0.950 . S
C7020 C7021 1.386 . S
C7020 C7022 1.391 . S
C7021 C7020 1.386 . S
C7021 C7025 1.393 . S
C7022 H7014 0.950 . S
C7022 C7020 1.391 . S
C7022 C7023 1.400 . S
C7023 C7022 1.400 . S
C7023 C7024 1.398 . S
C7023 C7029 1.491 . S
C7024 H7015 0.950 . S
C7024 C7023 1.398 . S
C7024 C7025 1.391 . S
C7025 H7013 0.950 . S
C7025 C7021 1.393 . S
C7025 C7024 1.391 . S
C7026 H7016 0.950 . S
C7026 C7027 1.386 . S
C7026 C7028 1.391 . S
C7027 C7026 1.386 . S
C7027 C7031 1.393 . S
C7028 H7017 0.950 . S
C7028 C7026 1.391 . S
C7028 C7029 1.400 . S
C7029 C7023 1.491 . S
C7029 C7028 1.400 . S
C7029 C7030 1.398 . S
C7030 H7018 0.950 . S
C7030 C7029 1.398 . S
C7030 C7031 1.391 . S
C7031 H7019 0.950 . S
C7031 C7027 1.393 . S
C7031 C7030 1.391 . S
H7032 C7040 0.950 . S
H7033 C7045 0.950 . S
H7034 C7042 0.950 . S
H7035 C7044 0.950 . S
H7036 C7046 0.950 . S
H7037 C7048 0.950 . S
H7038 C7050 0.950 . S
H7039 C7051 0.950 . S
C7040 H7032 0.950 . S
C7040 C7041 1.386 . S
C7040 C7042 1.391 . S
C7041 C7040 1.386 . S
C7041 C7045 1.393 . S
C7042 H7034 0.950 . S
C7042 C7040 1.391 . S
C7042 C7043 1.400 . S
C7043 C7042 1.400 . S
C7043 C7044 1.398 . S
C7043 C7049 1.491 . S
C7044 H7035 0.950 . S
C7044 C7043 1.398 . S
C7044 C7045 1.391 . S
C7045 H7033 0.950 . S
C7045 C7041 1.393 . S
C7045 C7044 1.391 . S
C7046 H7036 0.950 . S
C7046 C7047 1.386 . S
C7046 C7048 1.391 . S
C7047 C7046 1.386 . S
C7047 C7051 1.393 . S
C7048 H7037 0.950 . S
C7048 C7046 1.391 . S
C7048 C7049 1.400 . S
C7049 C7043 1.491 . S
C7049 C7048 1.400 . S
C7049 C7050 1.398 . S
C7050 H7038 0.950 . S
C7050 C7049 1.398 . S
C7050 C7051 1.391 . S
C7051 H7039 0.950 . S
C7051 C7047 1.393 . S
C7051 C7050 1.391 . S
H7052 C7060 0.950 . S
H7053 C7065 0.950 . S
H7054 C7062 0.950 . S
H7055 C7064 0.950 . S
H7056 C7066 0.950 . S
H7057 C7068 0.950 . S
H7058 C7070 0.950 . S
H7059 C7071 0.950 . S
C7060 H7052 0.950 . S
C7060 C7061 1.386 . S
C7060 C7062 1.391 . S
C7061 C7060 1.386 . S
C7061 C7065 1.393 . S
C7062 H7054 0.950 . S
C7062 C7060 1.391 . S
C7062 C7063 1.400 . S
C7063 C7062 1.400 . S
C7063 C7064 1.398 . S
C7063 C7069 1.491 . S
C7064 H7055 0.950 . S
C7064 C7063 1.398 . S
C7064 C7065 1.391 . S
C7065 H7053 0.950 . S
C7065 C7061 1.393 . S
C7065 C7064 1.391 . S
C7066 H7056 0.950 . S
C7066 C7067 1.386 . S
C7066 C7068 1.391 . S
C7067 C7066 1.386 . S
C7067 C7071 1.393 . S
C7068 H7057 0.950 . S
C7068 C7066 1.391 . S
C7068 C7069 1.400 . S
C7069 C7063 1.491 . S
C7069 C7068 1.400 . S
C7069 C7070 1.398 . S
C7070 H7058 0.950 . S
C7070 C7069 1.398 . S
C7070 C7071 1.391 . S
C7071 H7059 0.950 . S
C7071 C7067 1.393 . S
C7071 C7070 1.391 . S
H7072 C7080 0.950 . S
H7073 C7085 0.950 . S
H7074 C7082 0.950 . S
H7075 C7084 0.950 . S
H7076 C7086 0.950 . S
H7077 C7088 0.950 . S
H7078 C7090 0.950 . S
H7079 C7091 0.950 . S
C7080 H7072 0.950 . S
C7080 C7081 1.386 . S
C7080 C7082 1.391 . S
C7081 C7080 1.386 . S
C7081 C7085 1.393 . S
C7082 H7074 0.950 . S
C7082 C7080 1.391 . S
C7082 C7083 1.400 . S
C7083 C7082 1.400 . S
C7083 C7084 1.398 . S
C7083 C7089 1.491 . S
C7084 H7075 0.950 . S
C7084 C7083 1.398 . S
C7084 C7085 1.391 . S
C7085 H7073 0.950 . S
C7085 C7081 1.393 . S
C7085 C7084 1.391 . S
C7086 H7076 0.950 . S
C7086 C7087 1.386 . S
C7086 C7088 1.391 . S
C7087 C7086 1.386 . S
C7087 C7091 1.393 . S
C7088 H7077 0.950 . S
C7088 C7086 1.391 . S
C7088 C7089 1.400 . S
C7089 C7083 1.491 . S
C7089 C7088 1.400 . S
C7089 C7090 1.398 . S
C7090 H7078 0.950 . S
C7090 C7089 1.398 . S
C7090 C7091 1.391 . S
C7091 H7079 0.950 . S
C7091 C7087 1.393 . S
C7091 C7090 1.391 . S
H7092 C7100 0.950 . S
H7093 C7105 0.950 . S
H7094 C7102 0.950 . S
H7095 C7104 0.950 . S
H7096 C7106 0.950 . S
H7097 C7108 0.950 . S
H7098 C7110 0.950 . S
H7099 C7111 0.950 . S
C7100 H7092 0.950 . S
C7100 C7101 1.386 . S
C7100 C7102 1.391 . S
C7101 C7100 1.386 . S
C7101 C7105 1.393 . S
C7102 H7094 0.950 . S
C7102 C7100 1.391 . S
C7102 C7103 1.400 . S
C7103 C7102 1.400 . S
C7103 C7104 1.398 . S
C7103 C7109 1.491 . S
C7104 H7095 0.950 . S
C7104 C7103 1.398 . S
C7104 C7105 1.391 . S
C7105 H7093 0.950 . S
C7105 C7101 1.393 . S
C7105 C7104 1.391 . S
C7106 H7096 0.950 . S
C7106 C7107 1.386 . S
C7106 C7108 1.391 . S
C7107 C7106 1.386 . S
C7107 C7111 1.393 . S
C7108 H7097 0.950 . S
C7108 C7106 1.391 . S
C7108 C7109 1.400 . S
C7109 C7103 1.491 . S
C7109 C7108 1.400 . S
C7109 C7110 1.398 . S
C7110 H7098 0.950 . S
C7110 C7109 1.398 . S
C7110 C7111 1.391 . S
C7111 H7099 0.950 . S
C7111 C7107 1.393 . S
C7111 C7110 1.391 . S
H7112 C7120 0.950 . S
H7113 C7125 0.950 . S
H7114 C7122 0.950 . S
H7115 C7124 0.950 . S
H7116 C7126 0.950 . S
H7117 C7128 0.950 . S
H7118 C7130 0.950 . S
H7119 C7131 0.950 . S
C7120 H7112 0.950 . S
C7120 C7121 1.386 . S
C7120 C7122 1.391 . S
C7121 C7120 1.386 . S
C7121 C7125 1.393 . S
C7122 H7114 0.950 . S
C7122 C7120 1.391 . S
C7122 C7123 1.400 . S
C7123 C7122 1.400 . S
C7123 C7124 1.398 . S
C7123 C7129 1.491 . S
C7124 H7115 0.950 . S
C7124 C7123 1.398 . S
C7124 C7125 1.391 . S
C7125 H7113 0.950 . S
C7125 C7121 1.393 . S
C7125 C7124 1.391 . S
C7126 H7116 0.950 . S
C7126 C7127 1.386 . S
C7126 C7128 1.391 . S
C7127 C7126 1.386 . S
C7127 C7131 1.393 . S
C7128 H7117 0.950 . S
C7128 C7126 1.391 . S
C7128 C7129 1.400 . S
C7129 C7123 1.491 . S
C7129 C7128 1.400 . S
C7129 C7130 1.398 . S
C7130 H7118 0.950 . S
C7130 C7129 1.398 . S
C7130 C7131 1.391 . S
C7131 H7119 0.950 . S
C7131 C7127 1.393 . S
C7131 C7130 1.391 . S
H7132 C7140 0.950 . S
H7133 C7145 0.950 . S
H7134 C7142 0.950 . S
H7135 C7144 0.950 . S
H7136 C7146 0.950 . S
H7137 C7148 0.950 . S
H7138 C7150 0.950 . S
H7139 C7151 0.950 . S
C7140 H7132 0.950 . S
C7140 C7141 1.386 . S
C7140 C7142 1.391 . S
C7141 C7140 1.386 . S
C7141 C7145 1.393 . S
C7142 H7134 0.950 . S
C7142 C7140 1.391 . S
C7142 C7143 1.400 . S
C7143 C7142 1.400 . S
C7143 C7144 1.398 . S
C7143 C7149 1.491 . S
C7144 H7135 0.950 . S
C7144 C7143 1.398 . S
C7144 C7145 1.391 . S
C7145 H7133 0.950 . S
C7145 C7141 1.393 . S
C7145 C7144 1.391 . S
C7146 H7136 0.950 . S
C7146 C7147 1.386 . S
C7146 C7148 1.391 . S
C7147 C7146 1.386 . S
C7147 C7151 1.393 . S
C7148 H7137 0.950 . S
C7148 C7146 1.391 . S
C7148 C7149 1.400 . S
C7149 C7143 1.491 . S
C7149 C7148 1.400 . S
C7149 C7150 1.398 . S
C7150 H7138 0.950 . S
C7150 C7149 1.398 . S
C7150 C7151 1.391 . S
C7151 H7139 0.950 . S
C7151 C7147 1.393 . S
C7151 C7150 1.391 . S
H7152 C7160 0.950 . S
H7153 C7165 0.950 . S
H7154 C7162 0.950 . S
H7155 C7164 0.950 . S
H7156 C7166 0.950 . S
H7157 C7168 0.950 . S
H7158 C7170 0.950 . S
H7159 C7171 0.950 . S
C7160 H7152 0.950 . S
C7160 C7161 1.386 . S
C7160 C7162 1.391 . S
C7161 C7160 1.386 . S
C7161 C7165 1.393 . S
C7162 H7154 0.950 . S
C7162 C7160 1.391 . S
C7162 C7163 1.400 . S
C7163 C7162 1.400 . S
C7163 C7164 1.398 . S
C7163 C7169 1.491 . S
C7164 H7155 0.950 . S
C7164 C7163 1.398 . S
C7164 C7165 1.391 . S
C7165 H7153 0.950 . S
C7165 C7161 1.393 . S
C7165 C7164 1.391 . S
C7166 H7156 0.950 . S
C7166 C7167 1.386 . S
C7166 C7168 1.391 . S
C7167 C7166 1.386 . S
C7167 C7171 1.393 . S
C7168 H7157 0.950 . S
C7168 C7166 1.391 . S
C7168 C7169 1.400 . S
C7169 C7163 1.491 . S
C7169 C7168 1.400 . S
C7169 C7170 1.398 . S
C7170 H7158 0.950 . S
C7170 C7169 1.398 . S
C7170 C7171 1.391 . S
C7171 H7159 0.950 . S
C7171 C7167 1.393 . S
C7171 C7170 1.391 . S
H7172 C7180 0.950 . S
H7173 C7185 0.950 . S
H7174 C7182 0.950 . S
H7175 C7184 0.950 . S
H7176 C7186 0.950 . S
H7177 C7188 0.950 . S
H7178 C7190 0.950 . S
H7179 C7191 0.950 . S
C7180 H7172 0.950 . S
C7180 C7181 1.386 . S
C7180 C7182 1.391 . S
C7181 C7180 1.386 . S
C7181 C7185 1.393 . S
C7182 H7174 0.950 . S
C7182 C7180 1.391 . S
C7182 C7183 1.400 . S
C7183 C7182 1.400 . S
C7183 C7184 1.398 . S
C7183 C7189 1.491 . S
C7184 H7175 0.950 . S
C7184 C7183 1.398 . S
C7184 C7185 1.391 . S
C7185 H7173 0.950 . S
C7185 C7181 1.393 . S
C7185 C7184 1.391 . S
C7186 H7176 0.950 . S
C7186 C7187 1.386 . S
C7186 C7188 1.391 . S
C7187 C7186 1.386 . S
C7187 C7191 1.393 . S
C7188 H7177 0.950 . S
C7188 C7186 1.391 . S
C7188 C7189 1.400 . S
C7189 C7183 1.491 . S
C7189 C7188 1.400 . S
C7189 C7190 1.398 . S
C7190 H7178 0.950 . S
C7190 C7189 1.398 . S
C7190 C7191 1.391 . S
C7191 H7179 0.950 . S
C7191 C7187 1.393 . S
C7191 C7190 1.391 . S
H7192 C7200 0.950 . S
H7193 C7205 0.950 . S
H7194 C7202 0.950 . S
H7195 C7204 0.950 . S
H7196 C7206 0.950 . S
H7197 C7208 0.950 . S
H7198 C7210 0.950 . S
H7199 C7211 0.950 . S
C7200 H7192 0.950 . S
C7200 C7201 1.386 . S
C7200 C7202 1.391 . S
C7201 C7200 1.386 . S
C7201 C7205 1.393 . S
C7202 H7194 0.950 . S
C7202 C7200 1.391 . S
C7202 C7203 1.400 . S
C7203 C7202 1.400 . S
C7203 C7204 1.398 . S
C7203 C7209 1.491 . S
C7204 H7195 0.950 . S
C7204 C7203 1.398 . S
C7204 C7205 1.391 . S
C7205 H7193 0.950 . S
C7205 C7201 1.393 . S
C7205 C7204 1.391 . S
C7206 H7196 0.950 . S
C7206 C7207 1.386 . S
C7206 C7208 1.391 . S
C7207 C7206 1.386 . S
C7207 C7211 1.393 . S
C7208 H7197 0.950 . S
C7208 C7206 1.391 . S
C7208 C7209 1.400 . S
C7209 C7203 1.491 . S
C7209 C7208 1.400 . S
C7209 C7210 1.398 . S
C7210 H7198 0.950 . S
C7210 C7209 1.398 . S
C7210 C7211 1.391 . S
C7211 H7199 0.950 . S
C7211 C7207 1.393 . S
C7211 C7210 1.391 . S
H7212 C7220 0.950 . S
H7213 C7225 0.950 . S
H7214 C7222 0.950 . S
H7215 C7224 0.950 . S
H7216 C7226 0.950 . S
H7217 C7228 0.950 . S
H7218 C7230 0.950 . S
H7219 C7231 0.950 . S
C7220 H7212 0.950 . S
C7220 C7221 1.386 . S
C7220 C7222 1.391 . S
C7221 C7220 1.386 . S
C7221 C7225 1.393 . S
C7222 H7214 0.950 . S
C7222 C7220 1.391 . S
C7222 C7223 1.400 . S
C7223 C7222 1.400 . S
C7223 C7224 1.398 . S
C7223 C7229 1.491 . S
C7224 H7215 0.950 . S
C7224 C7223 1.398 . S
C7224 C7225 1.391 . S
C7225 H7213 0.950 . S
C7225 C7221 1.393 . S
C7225 C7224 1.391 . S
C7226 H7216 0.950 . S
C7226 C7227 1.386 . S
C7226 C7228 1.391 . S
C7227 C7226 1.386 . S
C7227 C7231 1.393 . S
C7228 H7217 0.950 . S
C7228 C7226 1.391 . S
C7228 C7229 1.400 . S
C7229 C7223 1.491 . S
C7229 C7228 1.400 . S
C7229 C7230 1.398 . S
C7230 H7218 0.950 . S
C7230 C7229 1.398 . S
C7230 C7231 1.391 . S
C7231 H7219 0.950 . S
C7231 C7227 1.393 . S
C7231 C7230 1.391 . S
H7232 C7240 0.950 . S
H7233 C7245 0.950 . S
H7234 C7242 0.950 . S
H7235 C7244 0.950 . S
H7236 C7246 0.950 . S
H7237 C7248 0.950 . S
H7238 C7250 0.950 . S
H7239 C7251 0.950 . S
C7240 H7232 0.950 . S
C7240 C7241 1.386 . S
C7240 C7242 1.391 . S
C7241 C7240 1.386 . S
C7241 C7245 1.393 . S
C7242 H7234 0.950 . S
C7242 C7240 1.391 . S
C7242 C7243 1.400 . S
C7243 C7242 1.400 . S
C7243 C7244 1.398 . S
C7243 C7249 1.491 . S
C7244 H7235 0.950 . S
C7244 C7243 1.398 . S
C7244 C7245 1.391 . S
C7245 H7233 0.950 . S
C7245 C7241 1.393 . S
C7245 C7244 1.391 . S
C7246 H7236 0.950 . S
C7246 C7247 1.386 . S
C7246 C7248 1.391 . S
C7247 C7246 1.386 . S
C7247 C7251 1.393 . S
C7248 H7237 0.950 . S
C7248 C7246 1.391 . S
C7248 C7249 1.400 . S
C7249 C7243 1.491 . S
C7249 C7248 1.400 . S
C7249 C7250 1.398 . S
C7250 H7238 0.950 . S
C7250 C7249 1.398 . S
C7250 C7251 1.391 . S
C7251 H7239 0.950 . S
C7251 C7247 1.393 . S
C7251 C7250 1.391 . S
H7252 C7260 0.950 . S
H7253 C7265 0.950 . S
H7254 C7262 0.950 . S
H7255 C7264 0.950 . S
H7256 C7266 0.950 . S
H7257 C7268 0.950 . S
H7258 C7270 0.950 . S
H7259 C7271 0.950 . S
C7260 H7252 0.950 . S
C7260 C7261 1.386 . S
C7260 C7262 1.391 . S
C7261 C7260 1.386 . S
C7261 C7265 1.393 . S
C7262 H7254 0.950 . S
C7262 C7260 1.391 . S
C7262 C7263 1.400 . S
C7263 C7262 1.400 . S
C7263 C7264 1.398 . S
C7263 C7269 1.491 . S
C7264 H7255 0.950 . S
C7264 C7263 1.398 . S
C7264 C7265 1.391 . S
C7265 H7253 0.950 . S
C7265 C7261 1.393 . S
C7265 C7264 1.391 . S
C7266 H7256 0.950 . S
C7266 C7267 1.386 . S
C7266 C7268 1.391 . S
C7267 C7266 1.386 . S
C7267 C7271 1.393 . S
C7268 H7257 0.950 . S
C7268 C7266 1.391 . S
C7268 C7269 1.400 . S
C7269 C7263 1.491 . S
C7269 C7268 1.400 . S
C7269 C7270 1.398 . S
C7270 H7258 0.950 . S
C7270 C7269 1.398 . S
C7270 C7271 1.391 . S
C7271 H7259 0.950 . S
C7271 C7267 1.393 . S
C7271 C7270 1.391 . S
H7272 C7280 0.950 . S
H7273 C7285 0.950 . S
H7274 C7282 0.950 . S
H7275 C7284 0.950 . S
H7276 C7286 0.950 . S
H7277 C7288 0.950 . S
H7278 C7290 0.950 . S
H7279 C7291 0.950 . S
C7280 H7272 0.950 . S
C7280 C7281 1.386 . S
C7280 C7282 1.391 . S
C7281 C7280 1.386 . S
C7281 C7285 1.393 . S
C7282 H7274 0.950 . S
C7282 C7280 1.391 . S
C7282 C7283 1.400 . S
C7283 C7282 1.400 . S
C7283 C7284 1.398 . S
C7283 C7289 1.491 . S
C7284 H7275 0.950 . S
C7284 C7283 1.398 . S
C7284 C7285 1.391 . S
C7285 H7273 0.950 . S
C7285 C7281 1.393 . S
C7285 C7284 1.391 . S
C7286 H7276 0.950 . S
C7286 C7287 1.386 . S
C7286 C7288 1.391 . S
C7287 C7286 1.386 . S
C7287 C7291 1.393 . S
C7288 H7277 0.950 . S
C7288 C7286 1.391 . S
C7288 C7289 1.400 . S
C7289 C7283 1.491 . S
C7289 C7288 1.400 . S
C7289 C7290 1.398 . S
C7290 H7278 0.950 . S
C7290 C7289 1.398 . S
C7290 C7291 1.391 . S
C7291 H7279 0.950 . S
C7291 C7287 1.393 . S
C7291 C7290 1.391 . S
H7292 C7300 0.950 . S
H7293 C7305 0.950 . S
H7294 C7302 0.950 . S
H7295 C7304 0.950 . S
H7296 C7306 0.950 . S
H7297 C7308 0.950 . S
H7298 C7310 0.950 . S
H7299 C7311 0.950 . S
C7300 H7292 0.950 . S
C7300 C7301 1.386 . S
C7300 C7302 1.391 . S
C7301 C7300 1.386 . S
C7301 C7305 1.393 . S
C7302 H7294 0.950 . S
C7302 C7300 1.391 . S
C7302 C7303 1.400 . S
C7303 C7302 1.400 . S
C7303 C7304 1.398 . S
C7303 C7309 1.491 . S
C7304 H7295 0.950 . S
C7304 C7303 1.398 . S
C7304 C7305 1.391 . S
C7305 H7293 0.950 . S
C7305 C7301 1.393 . S
C7305 C7304 1.391 . S
C7306 H7296 0.950 . S
C7306 C7307 1.386 . S
C7306 C7308 1.391 . S
C7307 C7306 1.386 . S
C7307 C7311 1.393 . S
C7308 H7297 0.950 . S
C7308 C7306 1.391 . S
C7308 C7309 1.400 . S
C7309 C7303 1.491 . S
C7309 C7308 1.400 . S
C7309 C7310 1.398 . S
C7310 H7298 0.950 . S
C7310 C7309 1.398 . S
C7310 C7311 1.391 . S
C7311 H7299 0.950 . S
C7311 C7307 1.393 . S
C7311 C7310 1.391 . S
H7312 C7320 0.950 . S
H7313 C7325 0.950 . S
H7314 C7322 0.950 . S
H7315 C7324 0.950 . S
H7316 C7326 0.950 . S
H7317 C7328 0.950 . S
H7318 C7330 0.950 . S
H7319 C7331 0.950 . S
C7320 H7312 0.950 . S
C7320 C7321 1.386 . S
C7320 C7322 1.391 . S
C7321 C7320 1.386 . S
C7321 C7325 1.393 . S
C7322 H7314 0.950 . S
C7322 C7320 1.391 . S
C7322 C7323 1.400 . S
C7323 C7322 1.400 . S
C7323 C7324 1.398 . S
C7323 C7329 1.491 . S
C7324 H7315 0.950 . S
C7324 C7323 1.398 . S
C7324 C7325 1.391 . S
C7325 H7313 0.950 . S
C7325 C7321 1.393 . S
C7325 C7324 1.391 . S
C7326 H7316 0.950 . S
C7326 C7327 1.386 . S
C7326 C7328 1.391 . S
C7327 C7326 1.386 . S
C7327 C7331 1.393 . S
C7328 H7317 0.950 . S
C7328 C7326 1.391 . S
C7328 C7329 1.400 . S
C7329 C7323 1.491 . S
C7329 C7328 1.400 . S
C7329 C7330 1.398 . S
C7330 H7318 0.950 . S
C7330 C7329 1.398 . S
C7330 C7331 1.391 . S
C7331 H7319 0.950 . S
C7331 C7327 1.393 . S
C7331 C7330 1.391 . S
H7332 C7340 0.950 . S
H7333 C7345 0.950 . S
H7334 C7342 0.950 . S
H7335 C7344 0.950 . S
H7336 C7346 0.950 . S
H7337 C7348 0.950 . S
H7338 C7350 0.950 . S
H7339 C7351 0.950 . S
C7340 H7332 0.950 . S
C7340 C7341 1.386 . S
C7340 C7342 1.391 . S
C7341 C7340 1.386 . S
C7341 C7345 1.393 . S
C7342 H7334 0.950 . S
C7342 C7340 1.391 . S
C7342 C7343 1.400 . S
C7343 C7342 1.400 . S
C7343 C7344 1.398 . S
C7343 C7349 1.491 . S
C7344 H7335 0.950 . S
C7344 C7343 1.398 . S
C7344 C7345 1.391 . S
C7345 H7333 0.950 . S
C7345 C7341 1.393 . S
C7345 C7344 1.391 . S
C7346 H7336 0.950 . S
C7346 C7347 1.386 . S
C7346 C7348 1.391 . S
C7347 C7346 1.386 . S
C7347 C7351 1.393 . S
C7348 H7337 0.950 . S
C7348 C7346 1.391 . S
C7348 C7349 1.400 . S
C7349 C7343 1.491 . S
C7349 C7348 1.400 . S
C7349 C7350 1.398 . S
C7350 H7338 0.950 . S
C7350 C7349 1.398 . S
C7350 C7351 1.391 . S
C7351 H7339 0.950 . S
C7351 C7347 1.393 . S
C7351 C7350 1.391 . S
H7352 C7360 0.950 . S
H7353 C7365 0.950 . S
H7354 C7362 0.950 . S
H7355 C7364 0.950 . S
H7356 C7366 0.950 . S
H7357 C7368 0.950 . S
H7358 C7370 0.950 . S
H7359 C7371 0.950 . S
C7360 H7352 0.950 . S
C7360 C7361 1.386 . S
C7360 C7362 1.391 . S
C7361 C7360 1.386 . S
C7361 C7365 1.393 . S
C7362 H7354 0.950 . S
C7362 C7360 1.391 . S
C7362 C7363 1.400 . S
C7363 C7362 1.400 . S
C7363 C7364 1.398 . S
C7363 C7369 1.491 . S
C7364 H7355 0.950 . S
C7364 C7363 1.398 . S
C7364 C7365 1.391 . S
C7365 H7353 0.950 . S
C7365 C7361 1.393 . S
C7365 C7364 1.391 . S
C7366 H7356 0.950 . S
C7366 C7367 1.386 . S
C7366 C7368 1.391 . S
C7367 C7366 1.386 . S
C7367 C7371 1.393 . S
C7368 H7357 0.950 . S
C7368 C7366 1.391 . S
C7368 C7369 1.400 . S
C7369 C7363 1.491 . S
C7369 C7368 1.400 . S
C7369 C7370 1.398 . S
C7370 H7358 0.950 . S
C7370 C7369 1.398 . S
C7370 C7371 1.391 . S
C7371 H7359 0.950 . S
C7371 C7367 1.393 . S
C7371 C7370 1.391 . S
H7372 C7380 0.950 . S
H7373 C7385 0.950 . S
H7374 C7382 0.950 . S
H7375 C7384 0.950 . S
H7376 C7386 0.950 . S
H7377 C7388 0.950 . S
H7378 C7390 0.950 . S
H7379 C7391 0.950 . S
C7380 H7372 0.950 . S
C7380 C7381 1.386 . S
C7380 C7382 1.391 . S
C7381 C7380 1.386 . S
C7381 C7385 1.393 . S
C7382 H7374 0.950 . S
C7382 C7380 1.391 . S
C7382 C7383 1.400 . S
C7383 C7382 1.400 . S
C7383 C7384 1.398 . S
C7383 C7389 1.491 . S
C7384 H7375 0.950 . S
C7384 C7383 1.398 . S
C7384 C7385 1.391 . S
C7385 H7373 0.950 . S
C7385 C7381 1.393 . S
C7385 C7384 1.391 . S
C7386 H7376 0.950 . S
C7386 C7387 1.386 . S
C7386 C7388 1.391 . S
C7387 C7386 1.386 . S
C7387 C7391 1.393 . S
C7388 H7377 0.950 . S
C7388 C7386 1.391 . S
C7388 C7389 1.400 . S
C7389 C7383 1.491 . S
C7389 C7388 1.400 . S
C7389 C7390 1.398 . S
C7390 H7378 0.950 . S
C7390 C7389 1.398 . S
C7390 C7391 1.391 . S
C7391 H7379 0.950 . S
C7391 C7387 1.393 . S
C7391 C7390 1.391 . S
H7392 C7400 0.950 . S
H7393 C7405 0.950 . S
H7394 C7402 0.950 . S
H7395 C7404 0.950 . S
H7396 C7406 0.950 . S
H7397 C7408 0.950 . S
H7398 C7410 0.950 . S
H7399 C7411 0.950 . S
C7400 H7392 0.950 . S
C7400 C7401 1.386 . S
C7400 C7402 1.391 . S
C7401 C7400 1.386 . S
C7401 C7405 1.393 . S
C7402 H7394 0.950 . S
C7402 C7400 1.391 . S
C7402 C7403 1.400 . S
C7403 C7402 1.400 . S
C7403 C7404 1.398 . S
C7403 C7409 1.491 . S
C7404 H7395 0.950 . S
C7404 C7403 1.398 . S
C7404 C7405 1.391 . S
C7405 H7393 0.950 . S
C7405 C7401 1.393 . S
C7405 C7404 1.391 . S
C7406 H7396 0.950 . S
C7406 C7407 1.386 . S
C7406 C7408 1.391 . S
C7407 C7406 1.386 . S
C7407 C7411 1.393 . S
C7408 H7397 0.950 . S
C7408 C7406 1.391 . S
C7408 C7409 1.400 . S
C7409 C7403 1.491 . S
C7409 C7408 1.400 . S
C7409 C7410 1.398 . S
C7410 H7398 0.950 . S
C7410 C7409 1.398 . S
C7410 C7411 1.391 . S
C7411 H7399 0.950 . S
C7411 C7407 1.393 . S
C7411 C7410 1.391 . S
H7412 C7420 0.950 . S
H7413 C7425 0.950 . S
H7414 C7422 0.950 . S
H7415 C7424 0.950 . S
H7416 C7426 0.950 . S
H7417 C7428 0.950 . S
H7418 C7430 0.950 . S
H7419 C7431 0.950 . S
C7420 H7412 0.950 . S
C7420 C7421 1.386 . S
C7420 C7422 1.391 . S
C7421 C7420 1.386 . S
C7421 C7425 1.393 . S
C7422 H7414 0.950 . S
C7422 C7420 1.391 . S
C7422 C7423 1.400 . S
C7423 C7422 1.400 . S
C7423 C7424 1.398 . S
C7423 C7429 1.491 . S
C7424 H7415 0.950 . S
C7424 C7423 1.398 . S
C7424 C7425 1.391 . S
C7425 H7413 0.950 . S
C7425 C7421 1.393 . S
C7425 C7424 1.391 . S
C7426 H7416 0.950 . S
C7426 C7427 1.386 . S
C7426 C7428 1.391 . S
C7427 C7426 1.386 . S
C7427 C7431 1.393 . S
C7428 H7417 0.950 . S
C7428 C7426 1.391 . S
C7428 C7429 1.400 . S
C7429 C7423 1.491 . S
C7429 C7428 1.400 . S
C7429 C7430 1.398 . S
C7430 H7418 0.950 . S
C7430 C7429 1.398 . S
C7430 C7431 1.391 . S
C7431 H7419 0.950 . S
C7431 C7427 1.393 . S
C7431 C7430 1.391 . S
H7432 C7440 0.950 . S
H7433 C7445 0.950 . S
H7434 C7442 0.950 . S
H7435 C7444 0.950 . S
H7436 C7446 0.950 . S
H7437 C7448 0.950 . S
H7438 C7450 0.950 . S
H7439 C7451 0.950 . S
C7440 H7432 0.950 . S
C7440 C7441 1.386 . S
C7440 C7442 1.391 . S
C7441 C7440 1.386 . S
C7441 C7445 1.393 . S
C7442 H7434 0.950 . S
C7442 C7440 1.391 . S
C7442 C7443 1.400 . S
C7443 C7442 1.400 . S
C7443 C7444 1.398 . S
C7443 C7449 1.491 . S
C7444 H7435 0.950 . S
C7444 C7443 1.398 . S
C7444 C7445 1.391 . S
C7445 H7433 0.950 . S
C7445 C7441 1.393 . S
C7445 C7444 1.391 . S
C7446 H7436 0.950 . S
C7446 C7447 1.386 . S
C7446 C7448 1.391 . S
C7447 C7446 1.386 . S
C7447 C7451 1.393 . S
C7448 H7437 0.950 . S
C7448 C7446 1.391 . S
C7448 C7449 1.400 . S
C7449 C7443 1.491 . S
C7449 C7448 1.400 . S
C7449 C7450 1.398 . S
C7450 H7438 0.950 . S
C7450 C7449 1.398 . S
C7450 C7451 1.391 . S
C7451 H7439 0.950 . S
C7451 C7447 1.393 . S
C7451 C7450 1.391 . S
H7452 C7460 0.950 . S
H7453 C7465 0.950 . S
H7454 C7462 0.950 . S
H7455 C7464 0.950 . S
H7456 C7466 0.950 . S
H7457 C7468 0.950 . S
H7458 C7470 0.950 . S
H7459 C7471 0.950 . S
C7460 H7452 0.950 . S
C7460 C7461 1.386 . S
C7460 C7462 1.391 . S
C7461 C7460 1.386 . S
C7461 C7465 1.393 . S
C7462 H7454 0.950 . S
C7462 C7460 1.391 . S
C7462 C7463 1.400 . S
C7463 C7462 1.400 . S
C7463 C7464 1.398 . S
C7463 C7469 1.491 . S
C7464 H7455 0.950 . S
C7464 C7463 1.398 . S
C7464 C7465 1.391 . S
C7465 H7453 0.950 . S
C7465 C7461 1.393 . S
C7465 C7464 1.391 . S
C7466 H7456 0.950 . S
C7466 C7467 1.386 . S
C7466 C7468 1.391 . S
C7467 C7466 1.386 . S
C7467 C7471 1.393 . S
C7468 H7457 0.950 . S
C7468 C7466 1.391 . S
C7468 C7469 1.400 . S
C7469 C7463 1.491 . S
C7469 C7468 1.400 . S
C7469 C7470 1.398 . S
C7470 H7458 0.950 . S
C7470 C7469 1.398 . S
C7470 C7471 1.391 . S
C7471 H7459 0.950 . S
C7471 C7467 1.393 . S
C7471 C7470 1.391 . S
H7472 C7480 0.950 . S
H7473 C7485 0.950 . S
H7474 C7482 0.950 . S
H7475 C7484 0.950 . S
H7476 C7486 0.950 . S
H7477 C7488 0.950 . S
H7478 C7490 0.950 . S
H7479 C7491 0.950 . S
C7480 H7472 0.950 . S
C7480 C7481 1.386 . S
C7480 C7482 1.391 . S
C7481 C7480 1.386 . S
C7481 C7485 1.393 . S
C7482 H7474 0.950 . S
C7482 C7480 1.391 . S
C7482 C7483 1.400 . S
C7483 C7482 1.400 . S
C7483 C7484 1.398 . S
C7483 C7489 1.491 . S
C7484 H7475 0.950 . S
C7484 C7483 1.398 . S
C7484 C7485 1.391 . S
C7485 H7473 0.950 . S
C7485 C7481 1.393 . S
C7485 C7484 1.391 . S
C7486 H7476 0.950 . S
C7486 C7487 1.386 . S
C7486 C7488 1.391 . S
C7487 C7486 1.386 . S
C7487 C7491 1.393 . S
C7488 H7477 0.950 . S
C7488 C7486 1.391 . S
C7488 C7489 1.400 . S
C7489 C7483 1.491 . S
C7489 C7488 1.400 . S
C7489 C7490 1.398 . S
C7490 H7478 0.950 . S
C7490 C7489 1.398 . S
C7490 C7491 1.391 . S
C7491 H7479 0.950 . S
C7491 C7487 1.393 . S
C7491 C7490 1.391 . S
H7492 C7500 0.950 . S
H7493 C7505 0.950 . S
H7494 C7502 0.950 . S
H7495 C7504 0.950 . S
H7496 C7506 0.950 . S
H7497 C7508 0.950 . S
H7498 C7510 0.950 . S
H7499 C7511 0.950 . S
C7500 H7492 0.950 . S
C7500 C7501 1.386 . S
C7500 C7502 1.391 . S
C7501 C7500 1.386 . S
C7501 C7505 1.393 . S
C7502 H7494 0.950 . S
C7502 C7500 1.391 . S
C7502 C7503 1.400 . S
C7503 C7502 1.400 . S
C7503 C7504 1.398 . S
C7503 C7509 1.491 . S
C7504 H7495 0.950 . S
C7504 C7503 1.398 . S
C7504 C7505 1.391 . S
C7505 H7493 0.950 . S
C7505 C7501 1.393 . S
C7505 C7504 1.391 . S
C7506 H7496 0.950 . S
C7506 C7507 1.386 . S
C7506 C7508 1.391 . S
C7507 C7506 1.386 . S
C7507 C7511 1.393 . S
C7508 H7497 0.950 . S
C7508 C7506 1.391 . S
C7508 C7509 1.400 . S
C7509 C7503 1.491 . S
C7509 C7508 1.400 . S
C7509 C7510 1.398 . S
C7510 H7498 0.950 . S
C7510 C7509 1.398 . S
C7510 C7511 1.391 . S
C7511 H7499 0.950 . S
C7511 C7507 1.393 . S
C7511 C7510 1.391 . S
H7512 C7520 0.950 . S
H7513 C7525 0.950 . S
H7514 C7522 0.950 . S
H7515 C7524 0.950 . S
H7516 C7526 0.950 . S
H7517 C7528 0.950 . S
H7518 C7530 0.950 . S
H7519 C7531 0.950 . S
C7520 H7512 0.950 . S
C7520 C7521 1.386 . S
C7520 C7522 1.391 . S
C7521 C7520 1.386 . S
C7521 C7525 1.393 . S
C7522 H7514 0.950 . S
C7522 C7520 1.391 . S
C7522 C7523 1.400 . S
C7523 C7522 1.400 . S
C7523 C7524 1.398 . S
C7523 C7529 1.491 . S
C7524 H7515 0.950 . S
C7524 C7523 1.398 . S
C7524 C7525 1.391 . S
C7525 H7513 0.950 . S
C7525 C7521 1.393 . S
C7525 C7524 1.391 . S
C7526 H7516 0.950 . S
C7526 C7527 1.386 . S
C7526 C7528 1.391 . S
C7527 C7526 1.386 . S
C7527 C7531 1.393 . S
C7528 H7517 0.950 . S
C7528 C7526 1.391 . S
C7528 C7529 1.400 . S
C7529 C7523 1.491 . S
C7529 C7528 1.400 . S
C7529 C7530 1.398 . S
C7530 H7518 0.950 . S
C7530 C7529 1.398 . S
C7530 C7531 1.391 . S
C7531 H7519 0.950 . S
C7531 C7527 1.393 . S
C7531 C7530 1.391 . S
H7532 C7540 0.950 . S
H7533 C7545 0.950 . S
H7534 C7542 0.950 . S
H7535 C7544 0.950 . S
H7536 C7546 0.950 . S
H7537 C7548 0.950 . S
H7538 C7550 0.950 . S
H7539 C7551 0.950 . S
C7540 H7532 0.950 . S
C7540 C7541 1.386 . S
C7540 C7542 1.391 . S
C7541 C7540 1.386 . S
C7541 C7545 1.393 . S
C7542 H7534 0.950 . S
C7542 C7540 1.391 . S
C7542 C7543 1.400 . S
C7543 C7542 1.400 . S
C7543 C7544 1.398 . S
C7543 C7549 1.491 . S
C7544 H7535 0.950 . S
C7544 C7543 1.398 . S
C7544 C7545 1.391 . S
C7545 H7533 0.950 . S
C7545 C7541 1.393 . S
C7545 C7544 1.391 . S
C7546 H7536 0.950 . S
C7546 C7547 1.386 . S
C7546 C7548 1.391 . S
C7547 C7546 1.386 . S
C7547 C7551 1.393 . S
C7548 H7537 0.950 . S
C7548 C7546 1.391 . S
C7548 C7549 1.400 . S
C7549 C7543 1.491 . S
C7549 C7548 1.400 . S
C7549 C7550 1.398 . S
C7550 H7538 0.950 . S
C7550 C7549 1.398 . S
C7550 C7551 1.391 . S
C7551 H7539 0.950 . S
C7551 C7547 1.393 . S
C7551 C7550 1.391 . S
H7552 C7560 0.950 . S
H7553 C7565 0.950 . S
H7554 C7562 0.950 . S
H7555 C7564 0.950 . S
H7556 C7566 0.950 . S
H7557 C7568 0.950 . S
H7558 C7570 0.950 . S
H7559 C7571 0.950 . S
C7560 H7552 0.950 . S
C7560 C7561 1.386 . S
C7560 C7562 1.391 . S
C7561 C7560 1.386 . S
C7561 C7565 1.393 . S
C7562 H7554 0.950 . S
C7562 C7560 1.391 . S
C7562 C7563 1.400 . S
C7563 C7562 1.400 . S
C7563 C7564 1.398 . S
C7563 C7569 1.491 . S
C7564 H7555 0.950 . S
C7564 C7563 1.398 . S
C7564 C7565 1.391 . S
C7565 H7553 0.950 . S
C7565 C7561 1.393 . S
C7565 C7564 1.391 . S
C7566 H7556 0.950 . S
C7566 C7567 1.386 . S
C7566 C7568 1.391 . S
C7567 C7566 1.386 . S
C7567 C7571 1.393 . S
C7568 H7557 0.950 . S
C7568 C7566 1.391 . S
C7568 C7569 1.400 . S
C7569 C7563 1.491 . S
C7569 C7568 1.400 . S
C7569 C7570 1.398 . S
C7570 H7558 0.950 . S
C7570 C7569 1.398 . S
C7570 C7571 1.391 . S
C7571 H7559 0.950 . S
C7571 C7567 1.393 . S
C7571 C7570 1.391 . S
H7572 C7580 0.950 . S
H7573 C7585 0.950 . S
H7574 C7582 0.950 . S
H7575 C7584 0.950 . S
H7576 C7586 0.950 . S
H7577 C7588 0.950 . S
H7578 C7590 0.950 . S
H7579 C7591 0.950 . S
C7580 H7572 0.950 . S
C7580 C7581 1.386 . S
C7580 C7582 1.391 . S
C7581 C7580 1.386 . S
C7581 C7585 1.393 . S
C7582 H7574 0.950 . S
C7582 C7580 1.391 . S
C7582 C7583 1.400 . S
C7583 C7582 1.400 . S
C7583 C7584 1.398 . S
C7583 C7589 1.491 . S
C7584 H7575 0.950 . S
C7584 C7583 1.398 . S
C7584 C7585 1.391 . S
C7585 H7573 0.950 . S
C7585 C7581 1.393 . S
C7585 C7584 1.391 . S
C7586 H7576 0.950 . S
C7586 C7587 1.386 . S
C7586 C7588 1.391 . S
C7587 C7586 1.386 . S
C7587 C7591 1.393 . S
C7588 H7577 0.950 . S
C7588 C7586 1.391 . S
C7588 C7589 1.400 . S
C7589 C7583 1.491 . S
C7589 C7588 1.400 . S
C7589 C7590 1.398 . S
C7590 H7578 0.950 . S
C7590 C7589 1.398 . S
C7590 C7591 1.391 . S
C7591 H7579 0.950 . S
C7591 C7587 1.393 . S
C7591 C7590 1.391 . S
H7592 C7600 0.950 . S
H7593 C7605 0.950 . S
H7594 C7602 0.950 . S
H7595 C7604 0.950 . S
H7596 C7606 0.950 . S
H7597 C7608 0.950 . S
H7598 C7610 0.950 . S
H7599 C7611 0.950 . S
C7600 H7592 0.950 . S
C7600 C7601 1.386 . S
C7600 C7602 1.391 . S
C7601 C7600 1.386 . S
C7601 C7605 1.393 . S
C7602 H7594 0.950 . S
C7602 C7600 1.391 . S
C7602 C7603 1.400 . S
C7603 C7602 1.400 . S
C7603 C7604 1.398 . S
C7603 C7609 1.491 . S
C7604 H7595 0.950 . S
C7604 C7603 1.398 . S
C7604 C7605 1.391 . S
C7605 H7593 0.950 . S
C7605 C7601 1.393 . S
C7605 C7604 1.391 . S
C7606 H7596 0.950 . S
C7606 C7607 1.386 . S
C7606 C7608 1.391 . S
C7607 C7606 1.386 . S
C7607 C7611 1.393 . S
C7608 H7597 0.950 . S
C7608 C7606 1.391 . S
C7608 C7609 1.400 . S
C7609 C7603 1.491 . S
C7609 C7608 1.400 . S
C7609 C7610 1.398 . S
C7610 H7598 0.950 . S
C7610 C7609 1.398 . S
C7610 C7611 1.391 . S
C7611 H7599 0.950 . S
C7611 C7607 1.393 . S
C7611 C7610 1.391 . S
H7612 C7620 0.950 . S
H7613 C7625 0.950 . S
H7614 C7622 0.950 . S
H7615 C7624 0.950 . S
H7616 C7626 0.950 . S
H7617 C7628 0.950 . S
H7618 C7630 0.950 . S
H7619 C7631 0.950 . S
C7620 H7612 0.950 . S
C7620 C7621 1.386 . S
C7620 C7622 1.391 . S
C7621 C7620 1.386 . S
C7621 C7625 1.393 . S
C7622 H7614 0.950 . S
C7622 C7620 1.391 . S
C7622 C7623 1.400 . S
C7623 C7622 1.400 . S
C7623 C7624 1.398 . S
C7623 C7629 1.491 . S
C7624 H7615 0.950 . S
C7624 C7623 1.398 . S
C7624 C7625 1.391 . S
C7625 H7613 0.950 . S
C7625 C7621 1.393 . S
C7625 C7624 1.391 . S
C7626 H7616 0.950 . S
C7626 C7627 1.386 . S
C7626 C7628 1.391 . S
C7627 C7626 1.386 . S
C7627 C7631 1.393 . S
C7628 H7617 0.950 . S
C7628 C7626 1.391 . S
C7628 C7629 1.400 . S
C7629 C7623 1.491 . S
C7629 C7628 1.400 . S
C7629 C7630 1.398 . S
C7630 H7618 0.950 . S
C7630 C7629 1.398 . S
C7630 C7631 1.391 . S
C7631 H7619 0.950 . S
C7631 C7627 1.393 . S
C7631 C7630 1.391 . S
H7632 C7640 0.950 . S
H7633 C7645 0.950 . S
H7634 C7642 0.950 . S
H7635 C7644 0.950 . S
H7636 C7646 0.950 . S
H7637 C7648 0.950 . S
H7638 C7650 0.950 . S
H7639 C7651 0.950 . S
C7640 H7632 0.950 . S
C7640 C7641 1.386 . S
C7640 C7642 1.391 . S
C7641 C7640 1.386 . S
C7641 C7645 1.393 . S
C7642 H7634 0.950 . S
C7642 C7640 1.391 . S
C7642 C7643 1.400 . S
C7643 C7642 1.400 . S
C7643 C7644 1.398 . S
C7643 C7649 1.491 . S
C7644 H7635 0.950 . S
C7644 C7643 1.398 . S
C7644 C7645 1.391 . S
C7645 H7633 0.950 . S
C7645 C7641 1.393 . S
C7645 C7644 1.391 . S
C7646 H7636 0.950 . S
C7646 C7647 1.386 . S
C7646 C7648 1.391 . S
C7647 C7646 1.386 . S
C7647 C7651 1.393 . S
C7648 H7637 0.950 . S
C7648 C7646 1.391 . S
C7648 C7649 1.400 . S
C7649 C7643 1.491 . S
C7649 C7648 1.400 . S
C7649 C7650 1.398 . S
C7650 H7638 0.950 . S
C7650 C7649 1.398 . S
C7650 C7651 1.391 . S
C7651 H7639 0.950 . S
C7651 C7647 1.393 . S
C7651 C7650 1.391 . S
H7652 C7660 0.950 . S
H7653 C7665 0.950 . S
H7654 C7662 0.950 . S
H7655 C7664 0.950 . S
H7656 C7666 0.950 . S
H7657 C7668 0.950 . S
H7658 C7670 0.950 . S
H7659 C7671 0.950 . S
C7660 H7652 0.950 . S
C7660 C7661 1.386 . S
C7660 C7662 1.391 . S
C7661 C7660 1.386 . S
C7661 C7665 1.393 . S
C7662 H7654 0.950 . S
C7662 C7660 1.391 . S
C7662 C7663 1.400 . S
C7663 C7662 1.400 . S
C7663 C7664 1.398 . S
C7663 C7669 1.491 . S
C7664 H7655 0.950 . S
C7664 C7663 1.398 . S
C7664 C7665 1.391 . S
C7665 H7653 0.950 . S
C7665 C7661 1.393 . S
C7665 C7664 1.391 . S
C7666 H7656 0.950 . S
C7666 C7667 1.386 . S
C7666 C7668 1.391 . S
C7667 C7666 1.386 . S
C7667 C7671 1.393 . S
C7668 H7657 0.950 . S
C7668 C7666 1.391 . S
C7668 C7669 1.400 . S
C7669 C7663 1.491 . S
C7669 C7668 1.400 . S
C7669 C7670 1.398 . S
C7670 H7658 0.950 . S
C7670 C7669 1.398 . S
C7670 C7671 1.391 . S
C7671 H7659 0.950 . S
C7671 C7667 1.393 . S
C7671 C7670 1.391 . S
H7672 C7680 0.950 . S
H7673 C7685 0.950 . S
H7674 C7682 0.950 . S
H7675 C7684 0.950 . S
H7676 C7686 0.950 . S
H7677 C7688 0.950 . S
H7678 C7690 0.950 . S
H7679 C7691 0.950 . S
C7680 H7672 0.950 . S
C7680 C7681 1.386 . S
C7680 C7682 1.391 . S
C7681 C7680 1.386 . S
C7681 C7685 1.393 . S
C7682 H7674 0.950 . S
C7682 C7680 1.391 . S
C7682 C7683 1.400 . S
C7683 C7682 1.400 . S
C7683 C7684 1.398 . S
C7683 C7689 1.491 . S
C7684 H7675 0.950 . S
C7684 C7683 1.398 . S
C7684 C7685 1.391 . S
C7685 H7673 0.950 . S
C7685 C7681 1.393 . S
C7685 C7684 1.391 . S
C7686 H7676 0.950 . S
C7686 C7687 1.386 . S
C7686 C7688 1.391 . S
C7687 C7686 1.386 . S
C7687 C7691 1.393 . S
C7688 H7677 0.950 . S
C7688 C7686 1.391 . S
C7688 C7689 1.400 . S
C7689 C7683 1.491 . S
C7689 C7688 1.400 . S
C7689 C7690 1.398 . S
C7690 H7678 0.950 . S
C7690 C7689 1.398 . S
C7690 C7691 1.391 . S
C7691 H7679 0.950 . S
C7691 C7687 1.393 . S
C7691 C7690 1.391 . S
H7692 C7700 0.950 . S
H7693 C7705 0.950 . S
H7694 C7702 0.950 . S
H7695 C7704 0.950 . S
H7696 C7706 0.950 . S
H7697 C7708 0.950 . S
H7698 C7710 0.950 . S
H7699 C7711 0.950 . S
C7700 H7692 0.950 . S
C7700 C7701 1.386 . S
C7700 C7702 1.391 . S
C7701 C7700 1.386 . S
C7701 C7705 1.393 . S
C7702 H7694 0.950 . S
C7702 C7700 1.391 . S
C7702 C7703 1.400 . S
C7703 C7702 1.400 . S
C7703 C7704 1.398 . S
C7703 C7709 1.491 . S
C7704 H7695 0.950 . S
C7704 C7703 1.398 . S
C7704 C7705 1.391 . S
C7705 H7693 0.950 . S
C7705 C7701 1.393 . S
C7705 C7704 1.391 . S
C7706 H7696 0.950 . S
C7706 C7707 1.386 . S
C7706 C7708 1.391 . S
C7707 C7706 1.386 . S
C7707 C7711 1.393 . S
C7708 H7697 0.950 . S
C7708 C7706 1.391 . S
C7708 C7709 1.400 . S
C7709 C7703 1.491 . S
C7709 C7708 1.400 . S
C7709 C7710 1.398 . S
C7710 H7698 0.950 . S
C7710 C7709 1.398 . S
C7710 C7711 1.391 . S
C7711 H7699 0.950 . S
C7711 C7707 1.393 . S
C7711 C7710 1.391 . S
H7712 C7720 0.950 . S
H7713 C7725 0.950 . S
H7714 C7722 0.950 . S
H7715 C7724 0.950 . S
H7716 C7726 0.950 . S
H7717 C7728 0.950 . S
H7718 C7730 0.950 . S
H7719 C7731 0.950 . S
C7720 H7712 0.950 . S
C7720 C7721 1.386 . S
C7720 C7722 1.391 . S
C7721 C7720 1.386 . S
C7721 C7725 1.393 . S
C7722 H7714 0.950 . S
C7722 C7720 1.391 . S
C7722 C7723 1.400 . S
C7723 C7722 1.400 . S
C7723 C7724 1.398 . S
C7723 C7729 1.491 . S
C7724 H7715 0.950 . S
C7724 C7723 1.398 . S
C7724 C7725 1.391 . S
C7725 H7713 0.950 . S
C7725 C7721 1.393 . S
C7725 C7724 1.391 . S
C7726 H7716 0.950 . S
C7726 C7727 1.386 . S
C7726 C7728 1.391 . S
C7727 C7726 1.386 . S
C7727 C7731 1.393 . S
C7728 H7717 0.950 . S
C7728 C7726 1.391 . S
C7728 C7729 1.400 . S
C7729 C7723 1.491 . S
C7729 C7728 1.400 . S
C7729 C7730 1.398 . S
C7730 H7718 0.950 . S
C7730 C7729 1.398 . S
C7730 C7731 1.391 . S
C7731 H7719 0.950 . S
C7731 C7727 1.393 . S
C7731 C7730 1.391 . S
H7732 C7740 0.950 . S
H7733 C7745 0.950 . S
H7734 C7742 0.950 . S
H7735 C7744 0.950 . S
H7736 C7746 0.950 . S
H7737 C7748 0.950 . S
H7738 C7750 0.950 . S
H7739 C7751 0.950 . S
C7740 H7732 0.950 . S
C7740 C7741 1.386 . S
C7740 C7742 1.391 . S
C7741 C7740 1.386 . S
C7741 C7745 1.393 . S
C7742 H7734 0.950 . S
C7742 C7740 1.391 . S
C7742 C7743 1.400 . S
C7743 C7742 1.400 . S
C7743 C7744 1.398 . S
C7743 C7749 1.491 . S
C7744 H7735 0.950 . S
C7744 C7743 1.398 . S
C7744 C7745 1.391 . S
C7745 H7733 0.950 . S
C7745 C7741 1.393 . S
C7745 C7744 1.391 . S
C7746 H7736 0.950 . S
C7746 C7747 1.386 . S
C7746 C7748 1.391 . S
C7747 C7746 1.386 . S
C7747 C7751 1.393 . S
C7748 H7737 0.950 . S
C7748 C7746 1.391 . S
C7748 C7749 1.400 . S
C7749 C7743 1.491 . S
C7749 C7748 1.400 . S
C7749 C7750 1.398 . S
C7750 H7738 0.950 . S
C7750 C7749 1.398 . S
C7750 C7751 1.391 . S
C7751 H7739 0.950 . S
C7751 C7747 1.393 . S
C7751 C7750 1.391 . S
H7752 C7760 0.950 . S
H7753 C7765 0.950 . S
H7754 C7762 0.950 . S
H7755 C7764 0.950 . S
H7756 C7766 0.950 . S
H7757 C7768 0.950 . S
H7758 C7770 0.950 . S
H7759 C7771 0.950 . S
C7760 H7752 0.950 . S
C7760 C7761 1.386 . S
C7760 C7762 1.391 . S
C7761 C7760 1.386 . S
C7761 C7765 1.393 . S
C7762 H7754 0.950 . S
C7762 C7760 1.391 . S
C7762 C7763 1.400 . S
C7763 C7762 1.400 . S
C7763 C7764 1.398 . S
C7763 C7769 1.491 . S
C7764 H7755 0.950 . S
C7764 C7763 1.398 . S
C7764 C7765 1.391 . S
C7765 H7753 0.950 . S
C7765 C7761 1.393 . S
C7765 C7764 1.391 . S
C7766 H7756 0.950 . S
C7766 C7767 1.386 . S
C7766 C7768 1.391 . S
C7767 C7766 1.386 . S
C7767 C7771 1.393 . S
C7768 H7757 0.950 . S
C7768 C7766 1.391 . S
C7768 C7769 1.400 . S
C7769 C7763 1.491 . S
C7769 C7768 1.400 . S
C7769 C7770 1.398 . S
C7770 H7758 0.950 . S
C7770 C7769 1.398 . S
C7770 C7771 1.391 . S
C7771 H7759 0.950 . S
C7771 C7767 1.393 . S
C7771 C7770 1.391 . S
H7772 C7780 0.950 . S
H7773 C7785 0.950 . S
H7774 C7782 0.950 . S
H7775 C7784 0.950 . S
H7776 C7786 0.950 . S
H7777 C7788 0.950 . S
H7778 C7790 0.950 . S
H7779 C7791 0.950 . S
C7780 H7772 0.950 . S
C7780 C7781 1.386 . S
C7780 C7782 1.391 . S
C7781 C7780 1.386 . S
C7781 C7785 1.393 . S
C7782 H7774 0.950 . S
C7782 C7780 1.391 . S
C7782 C7783 1.400 . S
C7783 C7782 1.400 . S
C7783 C7784 1.398 . S
C7783 C7789 1.491 . S
C7784 H7775 0.950 . S
C7784 C7783 1.398 . S
C7784 C7785 1.391 . S
C7785 H7773 0.950 . S
C7785 C7781 1.393 . S
C7785 C7784 1.391 . S
C7786 H7776 0.950 . S
C7786 C7787 1.386 . S
C7786 C7788 1.391 . S
C7787 C7786 1.386 . S
C7787 C7791 1.393 . S
C7788 H7777 0.950 . S
C7788 C7786 1.391 . S
C7788 C7789 1.400 . S
C7789 C7783 1.491 . S
C7789 C7788 1.400 . S
C7789 C7790 1.398 . S
C7790 H7778 0.950 . S
C7790 C7789 1.398 . S
C7790 C7791 1.391 . S
C7791 H7779 0.950 . S
C7791 C7787 1.393 . S
C7791 C7790 1.391 . S
H7792 C7800 0.950 . S
H7793 C7805 0.950 . S
H7794 C7802 0.950 . S
H7795 C7804 0.950 . S
H7796 C7806 0.950 . S
H7797 C7808 0.950 . S
H7798 C7810 0.950 . S
H7799 C7811 0.950 . S
C7800 H7792 0.950 . S
C7800 C7801 1.386 . S
C7800 C7802 1.391 . S
C7801 C7800 1.386 . S
C7801 C7805 1.393 . S
C7802 H7794 0.950 . S
C7802 C7800 1.391 . S
C7802 C7803 1.400 . S
C7803 C7802 1.400 . S
C7803 C7804 1.398 . S
C7803 C7809 1.491 . S
C7804 H7795 0.950 . S
C7804 C7803 1.398 . S
C7804 C7805 1.391 . S
C7805 H7793 0.950 . S
C7805 C7801 1.393 . S
C7805 C7804 1.391 . S
C7806 H7796 0.950 . S
C7806 C7807 1.386 . S
C7806 C7808 1.391 . S
C7807 C7806 1.386 . S
C7807 C7811 1.393 . S
C7808 H7797 0.950 . S
C7808 C7806 1.391 . S
C7808 C7809 1.400 . S
C7809 C7803 1.491 . S
C7809 C7808 1.400 . S
C7809 C7810 1.398 . S
C7810 H7798 0.950 . S
C7810 C7809 1.398 . S
C7810 C7811 1.391 . S
C7811 H7799 0.950 . S
C7811 C7807 1.393 . S
C7811 C7810 1.391 . S
H7812 C7820 0.950 . S
H7813 C7825 0.950 . S
H7814 C7822 0.950 . S
H7815 C7824 0.950 . S
H7816 C7826 0.950 . S
H7817 C7828 0.950 . S
H7818 C7830 0.950 . S
H7819 C7831 0.950 . S
C7820 H7812 0.950 . S
C7820 C7821 1.386 . S
C7820 C7822 1.391 . S
C7821 C7820 1.386 . S
C7821 C7825 1.393 . S
C7822 H7814 0.950 . S
C7822 C7820 1.391 . S
C7822 C7823 1.400 . S
C7823 C7822 1.400 . S
C7823 C7824 1.398 . S
C7823 C7829 1.491 . S
C7824 H7815 0.950 . S
C7824 C7823 1.398 . S
C7824 C7825 1.391 . S
C7825 H7813 0.950 . S
C7825 C7821 1.393 . S
C7825 C7824 1.391 . S
C7826 H7816 0.950 . S
C7826 C7827 1.386 . S
C7826 C7828 1.391 . S
C7827 C7826 1.386 . S
C7827 C7831 1.393 . S
C7828 H7817 0.950 . S
C7828 C7826 1.391 . S
C7828 C7829 1.400 . S
C7829 C7823 1.491 . S
C7829 C7828 1.400 . S
C7829 C7830 1.398 . S
C7830 H7818 0.950 . S
C7830 C7829 1.398 . S
C7830 C7831 1.391 . S
C7831 H7819 0.950 . S
C7831 C7827 1.393 . S
C7831 C7830 1.391 . S
H7832 C7840 0.950 . S
H7833 C7845 0.950 . S
H7834 C7842 0.950 . S
H7835 C7844 0.950 . S
H7836 C7846 0.950 . S
H7837 C7848 0.950 . S
H7838 C7850 0.950 . S
H7839 C7851 0.950 . S
C7840 H7832 0.950 . S
C7840 C7841 1.386 . S
C7840 C7842 1.391 . S
C7841 C7840 1.386 . S
C7841 C7845 1.393 . S
C7842 H7834 0.950 . S
C7842 C7840 1.391 . S
C7842 C7843 1.400 . S
C7843 C7842 1.400 . S
C7843 C7844 1.398 . S
C7843 C7849 1.491 . S
C7844 H7835 0.950 . S
C7844 C7843 1.398 . S
C7844 C7845 1.391 . S
C7845 H7833 0.950 . S
C7845 C7841 1.393 . S
C7845 C7844 1.391 . S
C7846 H7836 0.950 . S
C7846 C7847 1.386 . S
C7846 C7848 1.391 . S
C7847 C7846 1.386 . S
C7847 C7851 1.393 . S
C7848 H7837 0.950 . S
C7848 C7846 1.391 . S
C7848 C7849 1.400 . S
C7849 C7843 1.491 . S
C7849 C7848 1.400 . S
C7849 C7850 1.398 . S
C7850 H7838 0.950 . S
C7850 C7849 1.398 . S
C7850 C7851 1.391 . S
C7851 H7839 0.950 . S
C7851 C7847 1.393 . S
C7851 C7850 1.391 . S
H7852 C7860 0.950 . S
H7853 C7865 0.950 . S
H7854 C7862 0.950 . S
H7855 C7864 0.950 . S
H7856 C7866 0.950 . S
H7857 C7868 0.950 . S
H7858 C7870 0.950 . S
H7859 C7871 0.950 . S
C7860 H7852 0.950 . S
C7860 C7861 1.386 . S
C7860 C7862 1.391 . S
C7861 C7860 1.386 . S
C7861 C7865 1.393 . S
C7862 H7854 0.950 . S
C7862 C7860 1.391 . S
C7862 C7863 1.400 . S
C7863 C7862 1.400 . S
C7863 C7864 1.398 . S
C7863 C7869 1.491 . S
C7864 H7855 0.950 . S
C7864 C7863 1.398 . S
C7864 C7865 1.391 . S
C7865 H7853 0.950 . S
C7865 C7861 1.393 . S
C7865 C7864 1.391 . S
C7866 H7856 0.950 . S
C7866 C7867 1.386 . S
C7866 C7868 1.391 . S
C7867 C7866 1.386 . S
C7867 C7871 1.393 . S
C7868 H7857 0.950 . S
C7868 C7866 1.391 . S
C7868 C7869 1.400 . S
C7869 C7863 1.491 . S
C7869 C7868 1.400 . S
C7869 C7870 1.398 . S
C7870 H7858 0.950 . S
C7870 C7869 1.398 . S
C7870 C7871 1.391 . S
C7871 H7859 0.950 . S
C7871 C7867 1.393 . S
C7871 C7870 1.391 . S
H7872 C7880 0.950 . S
H7873 C7885 0.950 . S
H7874 C7882 0.950 . S
H7875 C7884 0.950 . S
H7876 C7886 0.950 . S
H7877 C7888 0.950 . S
H7878 C7890 0.950 . S
H7879 C7891 0.950 . S
C7880 H7872 0.950 . S
C7880 C7881 1.386 . S
C7880 C7882 1.391 . S
C7881 C7880 1.386 . S
C7881 C7885 1.393 . S
C7882 H7874 0.950 . S
C7882 C7880 1.391 . S
C7882 C7883 1.400 . S
C7883 C7882 1.400 . S
C7883 C7884 1.398 . S
C7883 C7889 1.491 . S
C7884 H7875 0.950 . S
C7884 C7883 1.398 . S
C7884 C7885 1.391 . S
C7885 H7873 0.950 . S
C7885 C7881 1.393 . S
C7885 C7884 1.391 . S
C7886 H7876 0.950 . S
C7886 C7887 1.386 . S
C7886 C7888 1.391 . S
C7887 C7886 1.386 . S
C7887 C7891 1.393 . S
C7888 H7877 0.950 . S
C7888 C7886 1.391 . S
C7888 C7889 1.400 . S
C7889 C7883 1.491 . S
C7889 C7888 1.400 . S
C7889 C7890 1.398 . S
C7890 H7878 0.950 . S
C7890 C7889 1.398 . S
C7890 C7891 1.391 . S
C7891 H7879 0.950 . S
C7891 C7887 1.393 . S
C7891 C7890 1.391 . S
H7892 C7900 0.950 . S
H7893 C7905 0.950 . S
H7894 C7902 0.950 . S
H7895 C7904 0.950 . S
H7896 C7906 0.950 . S
H7897 C7908 0.950 . S
H7898 C7910 0.950 . S
H7899 C7911 0.950 . S
C7900 H7892 0.950 . S
C7900 C7901 1.386 . S
C7900 C7902 1.391 . S
C7901 C7900 1.386 . S
C7901 C7905 1.393 . S
C7902 H7894 0.950 . S
C7902 C7900 1.391 . S
C7902 C7903 1.400 . S
C7903 C7902 1.400 . S
C7903 C7904 1.398 . S
C7903 C7909 1.491 . S
C7904 H7895 0.950 . S
C7904 C7903 1.398 . S
C7904 C7905 1.391 . S
C7905 H7893 0.950 . S
C7905 C7901 1.393 . S
C7905 C7904 1.391 . S
C7906 H7896 0.950 . S
C7906 C7907 1.386 . S
C7906 C7908 1.391 . S
C7907 C7906 1.386 . S
C7907 C7911 1.393 . S
C7908 H7897 0.950 . S
C7908 C7906 1.391 . S
C7908 C7909 1.400 . S
C7909 C7903 1.491 . S
C7909 C7908 1.400 . S
C7909 C7910 1.398 . S
C7910 H7898 0.950 . S
C7910 C7909 1.398 . S
C7910 C7911 1.391 . S
C7911 H7899 0.950 . S
C7911 C7907 1.393 . S
C7911 C7910 1.391 . S
H7912 C7920 0.950 . S
H7913 C7925 0.950 . S
H7914 C7922 0.950 . S
H7915 C7924 0.950 . S
H7916 C7926 0.950 . S
H7917 C7928 0.950 . S
H7918 C7930 0.950 . S
H7919 C7931 0.950 . S
C7920 H7912 0.950 . S
C7920 C7921 1.386 . S
C7920 C7922 1.391 . S
C7921 C7920 1.386 . S
C7921 C7925 1.393 . S
C7922 H7914 0.950 . S
C7922 C7920 1.391 . S
C7922 C7923 1.400 . S
C7923 C7922 1.400 . S
C7923 C7924 1.398 . S
C7923 C7929 1.491 . S
C7924 H7915 0.950 . S
C7924 C7923 1.398 . S
C7924 C7925 1.391 . S
C7925 H7913 0.950 . S
C7925 C7921 1.393 . S
C7925 C7924 1.391 . S
C7926 H7916 0.950 . S
C7926 C7927 1.386 . S
C7926 C7928 1.391 . S
C7927 C7926 1.386 . S
C7927 C7931 1.393 . S
C7928 H7917 0.950 . S
C7928 C7926 1.391 . S
C7928 C7929 1.400 . S
C7929 C7923 1.491 . S
C7929 C7928 1.400 . S
C7929 C7930 1.398 . S
C7930 H7918 0.950 . S
C7930 C7929 1.398 . S
C7930 C7931 1.391 . S
C7931 H7919 0.950 . S
C7931 C7927 1.393 . S
C7931 C7930 1.391 . S
H7932 C7940 0.950 . S
H7933 C7945 0.950 . S
H7934 C7942 0.950 . S
H7935 C7944 0.950 . S
H7936 C7946 0.950 . S
H7937 C7948 0.950 . S
H7938 C7950 0.950 . S
H7939 C7951 0.950 . S
C7940 H7932 0.950 . S
C7940 C7941 1.386 . S
C7940 C7942 1.391 . S
C7941 C7940 1.386 . S
C7941 C7945 1.393 . S
C7942 H7934 0.950 . S
C7942 C7940 1.391 . S
C7942 C7943 1.400 . S
C7943 C7942 1.400 . S
C7943 C7944 1.398 . S
C7943 C7949 1.491 . S
C7944 H7935 0.950 . S
C7944 C7943 1.398 . S
C7944 C7945 1.391 . S
C7945 H7933 0.950 . S
C7945 C7941 1.393 . S
C7945 C7944 1.391 . S
C7946 H7936 0.950 . S
C7946 C7947 1.386 . S
C7946 C7948 1.391 . S
C7947 C7946 1.386 . S
C7947 C7951 1.393 . S
C7948 H7937 0.950 . S
C7948 C7946 1.391 . S
C7948 C7949 1.400 . S
C7949 C7943 1.491 . S
C7949 C7948 1.400 . S
C7949 C7950 1.398 . S
C7950 H7938 0.950 . S
C7950 C7949 1.398 . S
C7950 C7951 1.391 . S
C7951 H7939 0.950 . S
C7951 C7947 1.393 . S
C7951 C7950 1.391 . S
H7952 C7960 0.950 . S
H7953 C7965 0.950 . S
H7954 C7962 0.950 . S
H7955 C7964 0.950 . S
H7956 C7966 0.950 . S
H7957 C7968 0.950 . S
H7958 C7970 0.950 . S
H7959 C7971 0.950 . S
C7960 H7952 0.950 . S
C7960 C7961 1.386 . S
C7960 C7962 1.391 . S
C7961 C7960 1.386 . S
C7961 C7965 1.393 . S
C7962 H7954 0.950 . S
C7962 C7960 1.391 . S
C7962 C7963 1.400 . S
C7963 C7962 1.400 . S
C7963 C7964 1.398 . S
C7963 C7969 1.491 . S
C7964 H7955 0.950 . S
C7964 C7963 1.398 . S
C7964 C7965 1.391 . S
C7965 H7953 0.950 . S
C7965 C7961 1.393 . S
C7965 C7964 1.391 . S
C7966 H7956 0.950 . S
C7966 C7967 1.386 . S
C7966 C7968 1.391 . S
C7967 C7966 1.386 . S
C7967 C7971 1.393 . S
C7968 H7957 0.950 . S
C7968 C7966 1.391 . S
C7968 C7969 1.400 . S
C7969 C7963 1.491 . S
C7969 C7968 1.400 . S
C7969 C7970 1.398 . S
C7970 H7958 0.950 . S
C7970 C7969 1.398 . S
C7970 C7971 1.391 . S
C7971 H7959 0.950 . S
C7971 C7967 1.393 . S
C7971 C7970 1.391 . S
H7972 C7980 0.950 . S
H7973 C7985 0.950 . S
H7974 C7982 0.950 . S
H7975 C7984 0.950 . S
H7976 C7986 0.950 . S
H7977 C7988 0.950 . S
H7978 C7990 0.950 . S
H7979 C7991 0.950 . S
C7980 H7972 0.950 . S
C7980 C7981 1.386 . S
C7980 C7982 1.391 . S
C7981 C7980 1.386 . S
C7981 C7985 1.393 . S
C7982 H7974 0.950 . S
C7982 C7980 1.391 . S
C7982 C7983 1.400 . S
C7983 C7982 1.400 . S
C7983 C7984 1.398 . S
C7983 C7989 1.491 . S
C7984 H7975 0.950 . S
C7984 C7983 1.398 . S
C7984 C7985 1.391 . S
C7985 H7973 0.950 . S
C7985 C7981 1.393 . S
C7985 C7984 1.391 . S
C7986 H7976 0.950 . S
C7986 C7987 1.386 . S
C7986 C7988 1.391 . S
C7987 C7986 1.386 . S
C7987 C7991 1.393 . S
C7988 H7977 0.950 . S
C7988 C7986 1.391 . S
C7988 C7989 1.400 . S
C7989 C7983 1.491 . S
C7989 C7988 1.400 . S
C7989 C7990 1.398 . S
C7990 H7978 0.950 . S
C7990 C7989 1.398 . S
C7990 C7991 1.391 . S
C7991 H7979 0.950 . S
C7991 C7987 1.393 . S
C7991 C7990 1.391 . S
H7992 C8000 0.950 . S
H7993 C8005 0.950 . S
H7994 C8002 0.950 . S
H7995 C8004 0.950 . S
H7996 C8006 0.950 . S
H7997 C8008 0.950 . S
H7998 C8010 0.950 . S
H7999 C8011 0.950 . S
C8000 H7992 0.950 . S
C8000 C8001 1.386 . S
C8000 C8002 1.391 . S
C8001 C8000 1.386 . S
C8001 C8005 1.393 . S
C8002 H7994 0.950 . S
C8002 C8000 1.391 . S
C8002 C8003 1.400 . S
C8003 C8002 1.400 . S
C8003 C8004 1.398 . S
C8003 C8009 1.491 . S
C8004 H7995 0.950 . S
C8004 C8003 1.398 . S
C8004 C8005 1.391 . S
C8005 H7993 0.950 . S
C8005 C8001 1.393 . S
C8005 C8004 1.391 . S
C8006 H7996 0.950 . S
C8006 C8007 1.386 . S
C8006 C8008 1.391 . S
C8007 C8006 1.386 . S
C8007 C8011 1.393 . S
C8008 H7997 0.950 . S
C8008 C8006 1.391 . S
C8008 C8009 1.400 . S
C8009 C8003 1.491 . S
C8009 C8008 1.400 . S
C8009 C8010 1.398 . S
C8010 H7998 0.950 . S
C8010 C8009 1.398 . S
C8010 C8011 1.391 . S
C8011 H7999 0.950 . S
C8011 C8007 1.393 . S
C8011 C8010 1.391 . S
H8012 C8020 0.950 . S
H8013 C8025 0.950 . S
H8014 C8022 0.950 . S
H8015 C8024 0.950 . S
H8016 C8026 0.950 . S
H8017 C8028 0.950 . S
H8018 C8030 0.950 . S
H8019 C8031 0.950 . S
C8020 H8012 0.950 . S
C8020 C8021 1.386 . S
C8020 C8022 1.391 . S
C8021 C8020 1.386 . S
C8021 C8025 1.393 . S
C8022 H8014 0.950 . S
C8022 C8020 1.391 . S
C8022 C8023 1.400 . S
C8023 C8022 1.400 . S
C8023 C8024 1.398 . S
C8023 C8029 1.491 . S
C8024 H8015 0.950 . S
C8024 C8023 1.398 . S
C8024 C8025 1.391 . S
C8025 H8013 0.950 . S
C8025 C8021 1.393 . S
C8025 C8024 1.391 . S
C8026 H8016 0.950 . S
C8026 C8027 1.386 . S
C8026 C8028 1.391 . S
C8027 C8026 1.386 . S
C8027 C8031 1.393 . S
C8028 H8017 0.950 . S
C8028 C8026 1.391 . S
C8028 C8029 1.400 . S
C8029 C8023 1.491 . S
C8029 C8028 1.400 . S
C8029 C8030 1.398 . S
C8030 H8018 0.950 . S
C8030 C8029 1.398 . S
C8030 C8031 1.391 . S
C8031 H8019 0.950 . S
C8031 C8027 1.393 . S
C8031 C8030 1.391 . S
H8032 C8040 0.950 . S
H8033 C8045 0.950 . S
H8034 C8042 0.950 . S
H8035 C8044 0.950 . S
H8036 C8046 0.950 . S
H8037 C8048 0.950 . S
H8038 C8050 0.950 . S
H8039 C8051 0.950 . S
C8040 H8032 0.950 . S
C8040 C8041 1.386 . S
C8040 C8042 1.391 . S
C8041 C8040 1.386 . S
C8041 C8045 1.393 . S
C8042 H8034 0.950 . S
C8042 C8040 1.391 . S
C8042 C8043 1.400 . S
C8043 C8042 1.400 . S
C8043 C8044 1.398 . S
C8043 C8049 1.491 . S
C8044 H8035 0.950 . S
C8044 C8043 1.398 . S
C8044 C8045 1.391 . S
C8045 H8033 0.950 . S
C8045 C8041 1.393 . S
C8045 C8044 1.391 . S
C8046 H8036 0.950 . S
C8046 C8047 1.386 . S
C8046 C8048 1.391 . S
C8047 C8046 1.386 . S
C8047 C8051 1.393 . S
C8048 H8037 0.950 . S
C8048 C8046 1.391 . S
C8048 C8049 1.400 . S
C8049 C8043 1.491 . S
C8049 C8048 1.400 . S
C8049 C8050 1.398 . S
C8050 H8038 0.950 . S
C8050 C8049 1.398 . S
C8050 C8051 1.391 . S
C8051 H8039 0.950 . S
C8051 C8047 1.393 . S
C8051 C8050 1.391 . S
H8052 C8060 0.950 . S
H8053 C8065 0.950 . S
H8054 C8062 0.950 . S
H8055 C8064 0.950 . S
H8056 C8066 0.950 . S
H8057 C8068 0.950 . S
H8058 C8070 0.950 . S
H8059 C8071 0.950 . S
C8060 H8052 0.950 . S
C8060 C8061 1.386 . S
C8060 C8062 1.391 . S
C8061 C8060 1.386 . S
C8061 C8065 1.393 . S
C8062 H8054 0.950 . S
C8062 C8060 1.391 . S
C8062 C8063 1.400 . S
C8063 C8062 1.400 . S
C8063 C8064 1.398 . S
C8063 C8069 1.491 . S
C8064 H8055 0.950 . S
C8064 C8063 1.398 . S
C8064 C8065 1.391 . S
C8065 H8053 0.950 . S
C8065 C8061 1.393 . S
C8065 C8064 1.391 . S
C8066 H8056 0.950 . S
C8066 C8067 1.386 . S
C8066 C8068 1.391 . S
C8067 C8066 1.386 . S
C8067 C8071 1.393 . S
C8068 H8057 0.950 . S
C8068 C8066 1.391 . S
C8068 C8069 1.400 . S
C8069 C8063 1.491 . S
C8069 C8068 1.400 . S
C8069 C8070 1.398 . S
C8070 H8058 0.950 . S
C8070 C8069 1.398 . S
C8070 C8071 1.391 . S
C8071 H8059 0.950 . S
C8071 C8067 1.393 . S
C8071 C8070 1.391 . S
H8072 C8080 0.950 . S
H8073 C8085 0.950 . S
H8074 C8082 0.950 . S
H8075 C8084 0.950 . S
H8076 C8086 0.950 . S
H8077 C8088 0.950 . S
H8078 C8090 0.950 . S
H8079 C8091 0.950 . S
C8080 H8072 0.950 . S
C8080 C8081 1.386 . S
C8080 C8082 1.391 . S
C8081 C8080 1.386 . S
C8081 C8085 1.393 . S
C8082 H8074 0.950 . S
C8082 C8080 1.391 . S
C8082 C8083 1.400 . S
C8083 C8082 1.400 . S
C8083 C8084 1.398 . S
C8083 C8089 1.491 . S
C8084 H8075 0.950 . S
C8084 C8083 1.398 . S
C8084 C8085 1.391 . S
C8085 H8073 0.950 . S
C8085 C8081 1.393 . S
C8085 C8084 1.391 . S
C8086 H8076 0.950 . S
C8086 C8087 1.386 . S
C8086 C8088 1.391 . S
C8087 C8086 1.386 . S
C8087 C8091 1.393 . S
C8088 H8077 0.950 . S
C8088 C8086 1.391 . S
C8088 C8089 1.400 . S
C8089 C8083 1.491 . S
C8089 C8088 1.400 . S
C8089 C8090 1.398 . S
C8090 H8078 0.950 . S
C8090 C8089 1.398 . S
C8090 C8091 1.391 . S
C8091 H8079 0.950 . S
C8091 C8087 1.393 . S
C8091 C8090 1.391 . S
H8092 C8100 0.950 . S
H8093 C8105 0.950 . S
H8094 C8102 0.950 . S
H8095 C8104 0.950 . S
H8096 C8106 0.950 . S
H8097 C8108 0.950 . S
H8098 C8110 0.950 . S
H8099 C8111 0.950 . S
C8100 H8092 0.950 . S
C8100 C8101 1.386 . S
C8100 C8102 1.391 . S
C8101 C8100 1.386 . S
C8101 C8105 1.393 . S
C8102 H8094 0.950 . S
C8102 C8100 1.391 . S
C8102 C8103 1.400 . S
C8103 C8102 1.400 . S
C8103 C8104 1.398 . S
C8103 C8109 1.491 . S
C8104 H8095 0.950 . S
C8104 C8103 1.398 . S
C8104 C8105 1.391 . S
C8105 H8093 0.950 . S
C8105 C8101 1.393 . S
C8105 C8104 1.391 . S
C8106 H8096 0.950 . S
C8106 C8107 1.386 . S
C8106 C8108 1.391 . S
C8107 C8106 1.386 . S
C8107 C8111 1.393 . S
C8108 H8097 0.950 . S
C8108 C8106 1.391 . S
C8108 C8109 1.400 . S
C8109 C8103 1.491 . S
C8109 C8108 1.400 . S
C8109 C8110 1.398 . S
C8110 H8098 0.950 . S
C8110 C8109 1.398 . S
C8110 C8111 1.391 . S
C8111 H8099 0.950 . S
C8111 C8107 1.393 . S
C8111 C8110 1.391 . S
H8112 C8120 0.950 . S
H8113 C8125 0.950 . S
H8114 C8122 0.950 . S
H8115 C8124 0.950 . S
H8116 C8126 0.950 . S
H8117 C8128 0.950 . S
H8118 C8130 0.950 . S
H8119 C8131 0.950 . S
C8120 H8112 0.950 . S
C8120 C8121 1.386 . S
C8120 C8122 1.391 . S
C8121 C8120 1.386 . S
C8121 C8125 1.393 . S
C8122 H8114 0.950 . S
C8122 C8120 1.391 . S
C8122 C8123 1.400 . S
C8123 C8122 1.400 . S
C8123 C8124 1.398 . S
C8123 C8129 1.491 . S
C8124 H8115 0.950 . S
C8124 C8123 1.398 . S
C8124 C8125 1.391 . S
C8125 H8113 0.950 . S
C8125 C8121 1.393 . S
C8125 C8124 1.391 . S
C8126 H8116 0.950 . S
C8126 C8127 1.386 . S
C8126 C8128 1.391 . S
C8127 C8126 1.386 . S
C8127 C8131 1.393 . S
C8128 H8117 0.950 . S
C8128 C8126 1.391 . S
C8128 C8129 1.400 . S
C8129 C8123 1.491 . S
C8129 C8128 1.400 . S
C8129 C8130 1.398 . S
C8130 H8118 0.950 . S
C8130 C8129 1.398 . S
C8130 C8131 1.391 . S
C8131 H8119 0.950 . S
C8131 C8127 1.393 . S
C8131 C8130 1.391 . S
H8132 C8140 0.950 . S
H8133 C8145 0.950 . S
H8134 C8142 0.950 . S
H8135 C8144 0.950 . S
H8136 C8146 0.950 . S
H8137 C8148 0.950 . S
H8138 C8150 0.950 . S
H8139 C8151 0.950 . S
C8140 H8132 0.950 . S
C8140 C8141 1.386 . S
C8140 C8142 1.391 . S
C8141 C8140 1.386 . S
C8141 C8145 1.393 . S
C8142 H8134 0.950 . S
C8142 C8140 1.391 . S
C8142 C8143 1.400 . S
C8143 C8142 1.400 . S
C8143 C8144 1.398 . S
C8143 C8149 1.491 . S
C8144 H8135 0.950 . S
C8144 C8143 1.398 . S
C8144 C8145 1.391 . S
C8145 H8133 0.950 . S
C8145 C8141 1.393 . S
C8145 C8144 1.391 . S
C8146 H8136 0.950 . S
C8146 C8147 1.386 . S
C8146 C8148 1.391 . S
C8147 C8146 1.386 . S
C8147 C8151 1.393 . S
C8148 H8137 0.950 . S
C8148 C8146 1.391 . S
C8148 C8149 1.400 . S
C8149 C8143 1.491 . S
C8149 C8148 1.400 . S
C8149 C8150 1.398 . S
C8150 H8138 0.950 . S
C8150 C8149 1.398 . S
C8150 C8151 1.391 . S
C8151 H8139 0.950 . S
C8151 C8147 1.393 . S
C8151 C8150 1.391 . S
H8152 C8160 0.950 . S
H8153 C8165 0.950 . S
H8154 C8162 0.950 . S
H8155 C8164 0.950 . S
H8156 C8166 0.950 . S
H8157 C8168 0.950 . S
H8158 C8170 0.950 . S
H8159 C8171 0.950 . S
C8160 H8152 0.950 . S
C8160 C8161 1.386 . S
C8160 C8162 1.391 . S
C8161 C8160 1.386 . S
C8161 C8165 1.393 . S
C8162 H8154 0.950 . S
C8162 C8160 1.391 . S
C8162 C8163 1.400 . S
C8163 C8162 1.400 . S
C8163 C8164 1.398 . S
C8163 C8169 1.491 . S
C8164 H8155 0.950 . S
C8164 C8163 1.398 . S
C8164 C8165 1.391 . S
C8165 H8153 0.950 . S
C8165 C8161 1.393 . S
C8165 C8164 1.391 . S
C8166 H8156 0.950 . S
C8166 C8167 1.386 . S
C8166 C8168 1.391 . S
C8167 C8166 1.386 . S
C8167 C8171 1.393 . S
C8168 H8157 0.950 . S
C8168 C8166 1.391 . S
C8168 C8169 1.400 . S
C8169 C8163 1.491 . S
C8169 C8168 1.400 . S
C8169 C8170 1.398 . S
C8170 H8158 0.950 . S
C8170 C8169 1.398 . S
C8170 C8171 1.391 . S
C8171 H8159 0.950 . S
C8171 C8167 1.393 . S
C8171 C8170 1.391 . S
H8172 C8180 0.950 . S
H8173 C8185 0.950 . S
H8174 C8182 0.950 . S
H8175 C8184 0.950 . S
H8176 C8186 0.950 . S
H8177 C8188 0.950 . S
H8178 C8190 0.950 . S
H8179 C8191 0.950 . S
C8180 H8172 0.950 . S
C8180 C8181 1.386 . S
C8180 C8182 1.391 . S
C8181 C8180 1.386 . S
C8181 C8185 1.393 . S
C8182 H8174 0.950 . S
C8182 C8180 1.391 . S
C8182 C8183 1.400 . S
C8183 C8182 1.400 . S
C8183 C8184 1.398 . S
C8183 C8189 1.491 . S
C8184 H8175 0.950 . S
C8184 C8183 1.398 . S
C8184 C8185 1.391 . S
C8185 H8173 0.950 . S
C8185 C8181 1.393 . S
C8185 C8184 1.391 . S
C8186 H8176 0.950 . S
C8186 C8187 1.386 . S
C8186 C8188 1.391 . S
C8187 C8186 1.386 . S
C8187 C8191 1.393 . S
C8188 H8177 0.950 . S
C8188 C8186 1.391 . S
C8188 C8189 1.400 . S
C8189 C8183 1.491 . S
C8189 C8188 1.400 . S
C8189 C8190 1.398 . S
C8190 H8178 0.950 . S
C8190 C8189 1.398 . S
C8190 C8191 1.391 . S
C8191 H8179 0.950 . S
C8191 C8187 1.393 . S
C8191 C8190 1.391 . S
H8192 C8200 0.950 . S
H8193 C8205 0.950 . S
H8194 C8202 0.950 . S
H8195 C8204 0.950 . S
H8196 C8206 0.950 . S
H8197 C8208 0.950 . S
H8198 C8210 0.950 . S
H8199 C8211 0.950 . S
C8200 H8192 0.950 . S
C8200 C8201 1.386 . S
C8200 C8202 1.391 . S
C8201 C8200 1.386 . S
C8201 C8205 1.393 . S
C8202 H8194 0.950 . S
C8202 C8200 1.391 . S
C8202 C8203 1.400 . S
C8203 C8202 1.400 . S
C8203 C8204 1.398 . S
C8203 C8209 1.491 . S
C8204 H8195 0.950 . S
C8204 C8203 1.398 . S
C8204 C8205 1.391 . S
C8205 H8193 0.950 . S
C8205 C8201 1.393 . S
C8205 C8204 1.391 . S
C8206 H8196 0.950 . S
C8206 C8207 1.386 . S
C8206 C8208 1.391 . S
C8207 C8206 1.386 . S
C8207 C8211 1.393 . S
C8208 H8197 0.950 . S
C8208 C8206 1.391 . S
C8208 C8209 1.400 . S
C8209 C8203 1.491 . S
C8209 C8208 1.400 . S
C8209 C8210 1.398 . S
C8210 H8198 0.950 . S
C8210 C8209 1.398 . S
C8210 C8211 1.391 . S
C8211 H8199 0.950 . S
C8211 C8207 1.393 . S
C8211 C8210 1.391 . S
H8212 C8220 0.950 . S
H8213 C8225 0.950 . S
H8214 C8222 0.950 . S
H8215 C8224 0.950 . S
H8216 C8226 0.950 . S
H8217 C8228 0.950 . S
H8218 C8230 0.950 . S
H8219 C8231 0.950 . S
C8220 H8212 0.950 . S
C8220 C8221 1.386 . S
C8220 C8222 1.391 . S
C8221 C8220 1.386 . S
C8221 C8225 1.393 . S
C8222 H8214 0.950 . S
C8222 C8220 1.391 . S
C8222 C8223 1.400 . S
C8223 C8222 1.400 . S
C8223 C8224 1.398 . S
C8223 C8229 1.491 . S
C8224 H8215 0.950 . S
C8224 C8223 1.398 . S
C8224 C8225 1.391 . S
C8225 H8213 0.950 . S
C8225 C8221 1.393 . S
C8225 C8224 1.391 . S
C8226 H8216 0.950 . S
C8226 C8227 1.386 . S
C8226 C8228 1.391 . S
C8227 C8226 1.386 . S
C8227 C8231 1.393 . S
C8228 H8217 0.950 . S
C8228 C8226 1.391 . S
C8228 C8229 1.400 . S
C8229 C8223 1.491 . S
C8229 C8228 1.400 . S
C8229 C8230 1.398 . S
C8230 H8218 0.950 . S
C8230 C8229 1.398 . S
C8230 C8231 1.391 . S
C8231 H8219 0.950 . S
C8231 C8227 1.393 . S
C8231 C8230 1.391 . S
H8232 C8240 0.950 . S
H8233 C8245 0.950 . S
H8234 C8242 0.950 . S
H8235 C8244 0.950 . S
H8236 C8246 0.950 . S
H8237 C8248 0.950 . S
H8238 C8250 0.950 . S
H8239 C8251 0.950 . S
C8240 H8232 0.950 . S
C8240 C8241 1.386 . S
C8240 C8242 1.391 . S
C8241 C8240 1.386 . S
C8241 C8245 1.393 . S
C8242 H8234 0.950 . S
C8242 C8240 1.391 . S
C8242 C8243 1.400 . S
C8243 C8242 1.400 . S
C8243 C8244 1.398 . S
C8243 C8249 1.491 . S
C8244 H8235 0.950 . S
C8244 C8243 1.398 . S
C8244 C8245 1.391 . S
C8245 H8233 0.950 . S
C8245 C8241 1.393 . S
C8245 C8244 1.391 . S
C8246 H8236 0.950 . S
C8246 C8247 1.386 . S
C8246 C8248 1.391 . S
C8247 C8246 1.386 . S
C8247 C8251 1.393 . S
C8248 H8237 0.950 . S
C8248 C8246 1.391 . S
C8248 C8249 1.400 . S
C8249 C8243 1.491 . S
C8249 C8248 1.400 . S
C8249 C8250 1.398 . S
C8250 H8238 0.950 . S
C8250 C8249 1.398 . S
C8250 C8251 1.391 . S
C8251 H8239 0.950 . S
C8251 C8247 1.393 . S
C8251 C8250 1.391 . S
H8252 C8260 0.950 . S
H8253 C8265 0.950 . S
H8254 C8262 0.950 . S
H8255 C8264 0.950 . S
H8256 C8266 0.950 . S
H8257 C8268 0.950 . S
H8258 C8270 0.950 . S
H8259 C8271 0.950 . S
C8260 H8252 0.950 . S
C8260 C8261 1.386 . S
C8260 C8262 1.391 . S
C8261 C8260 1.386 . S
C8261 C8265 1.393 . S
C8262 H8254 0.950 . S
C8262 C8260 1.391 . S
C8262 C8263 1.400 . S
C8263 C8262 1.400 . S
C8263 C8264 1.398 . S
C8263 C8269 1.491 . S
C8264 H8255 0.950 . S
C8264 C8263 1.398 . S
C8264 C8265 1.391 . S
C8265 H8253 0.950 . S
C8265 C8261 1.393 . S
C8265 C8264 1.391 . S
C8266 H8256 0.950 . S
C8266 C8267 1.386 . S
C8266 C8268 1.391 . S
C8267 C8266 1.386 . S
C8267 C8271 1.393 . S
C8268 H8257 0.950 . S
C8268 C8266 1.391 . S
C8268 C8269 1.400 . S
C8269 C8263 1.491 . S
C8269 C8268 1.400 . S
C8269 C8270 1.398 . S
C8270 H8258 0.950 . S
C8270 C8269 1.398 . S
C8270 C8271 1.391 . S
C8271 H8259 0.950 . S
C8271 C8267 1.393 . S
C8271 C8270 1.391 . S
H8272 C8280 0.950 . S
H8273 C8285 0.950 . S
H8274 C8282 0.950 . S
H8275 C8284 0.950 . S
H8276 C8286 0.950 . S
H8277 C8288 0.950 . S
H8278 C8290 0.950 . S
H8279 C8291 0.950 . S
C8280 H8272 0.950 . S
C8280 C8281 1.386 . S
C8280 C8282 1.391 . S
C8281 C8280 1.386 . S
C8281 C8285 1.393 . S
C8282 H8274 0.950 . S
C8282 C8280 1.391 . S
C8282 C8283 1.400 . S
C8283 C8282 1.400 . S
C8283 C8284 1.398 . S
C8283 C8289 1.491 . S
C8284 H8275 0.950 . S
C8284 C8283 1.398 . S
C8284 C8285 1.391 . S
C8285 H8273 0.950 . S
C8285 C8281 1.393 . S
C8285 C8284 1.391 . S
C8286 H8276 0.950 . S
C8286 C8287 1.386 . S
C8286 C8288 1.391 . S
C8287 C8286 1.386 . S
C8287 C8291 1.393 . S
C8288 H8277 0.950 . S
C8288 C8286 1.391 . S
C8288 C8289 1.400 . S
C8289 C8283 1.491 . S
C8289 C8288 1.400 . S
C8289 C8290 1.398 . S
C8290 H8278 0.950 . S
C8290 C8289 1.398 . S
C8290 C8291 1.391 . S
C8291 H8279 0.950 . S
C8291 C8287 1.393 . S
C8291 C8290 1.391 . S
H8292 C8300 0.950 . S
H8293 C8305 0.950 . S
H8294 C8302 0.950 . S
H8295 C8304 0.950 . S
H8296 C8306 0.950 . S
H8297 C8308 0.950 . S
H8298 C8310 0.950 . S
H8299 C8311 0.950 . S
C8300 H8292 0.950 . S
C8300 C8301 1.386 . S
C8300 C8302 1.391 . S
C8301 C8300 1.386 . S
C8301 C8305 1.393 . S
C8302 H8294 0.950 . S
C8302 C8300 1.391 . S
C8302 C8303 1.400 . S
C8303 C8302 1.400 . S
C8303 C8304 1.398 . S
C8303 C8309 1.491 . S
C8304 H8295 0.950 . S
C8304 C8303 1.398 . S
C8304 C8305 1.391 . S
C8305 H8293 0.950 . S
C8305 C8301 1.393 . S
C8305 C8304 1.391 . S
C8306 H8296 0.950 . S
C8306 C8307 1.386 . S
C8306 C8308 1.391 . S
C8307 C8306 1.386 . S
C8307 C8311 1.393 . S
C8308 H8297 0.950 . S
C8308 C8306 1.391 . S
C8308 C8309 1.400 . S
C8309 C8303 1.491 . S
C8309 C8308 1.400 . S
C8309 C8310 1.398 . S
C8310 H8298 0.950 . S
C8310 C8309 1.398 . S
C8310 C8311 1.391 . S
C8311 H8299 0.950 . S
C8311 C8307 1.393 . S
C8311 C8310 1.391 . S
H8312 C8320 0.950 . S
H8313 C8325 0.950 . S
H8314 C8322 0.950 . S
H8315 C8324 0.950 . S
H8316 C8326 0.950 . S
H8317 C8328 0.950 . S
H8318 C8330 0.950 . S
H8319 C8331 0.950 . S
C8320 H8312 0.950 . S
C8320 C8321 1.386 . S
C8320 C8322 1.391 . S
C8321 C8320 1.386 . S
C8321 C8325 1.393 . S
C8322 H8314 0.950 . S
C8322 C8320 1.391 . S
C8322 C8323 1.400 . S
C8323 C8322 1.400 . S
C8323 C8324 1.398 . S
C8323 C8329 1.491 . S
C8324 H8315 0.950 . S
C8324 C8323 1.398 . S
C8324 C8325 1.391 . S
C8325 H8313 0.950 . S
C8325 C8321 1.393 . S
C8325 C8324 1.391 . S
C8326 H8316 0.950 . S
C8326 C8327 1.386 . S
C8326 C8328 1.391 . S
C8327 C8326 1.386 . S
C8327 C8331 1.393 . S
C8328 H8317 0.950 . S
C8328 C8326 1.391 . S
C8328 C8329 1.400 . S
C8329 C8323 1.491 . S
C8329 C8328 1.400 . S
C8329 C8330 1.398 . S
C8330 H8318 0.950 . S
C8330 C8329 1.398 . S
C8330 C8331 1.391 . S
C8331 H8319 0.950 . S
C8331 C8327 1.393 . S
C8331 C8330 1.391 . S
H8332 C8340 0.950 . S
H8333 C8345 0.950 . S
H8334 C8342 0.950 . S
H8335 C8344 0.950 . S
H8336 C8346 0.950 . S
H8337 C8348 0.950 . S
H8338 C8350 0.950 . S
H8339 C8351 0.950 . S
C8340 H8332 0.950 . S
C8340 C8341 1.386 . S
C8340 C8342 1.391 . S
C8341 C8340 1.386 . S
C8341 C8345 1.393 . S
C8342 H8334 0.950 . S
C8342 C8340 1.391 . S
C8342 C8343 1.400 . S
C8343 C8342 1.400 . S
C8343 C8344 1.398 . S
C8343 C8349 1.491 . S
C8344 H8335 0.950 . S
C8344 C8343 1.398 . S
C8344 C8345 1.391 . S
C8345 H8333 0.950 . S
C8345 C8341 1.393 . S
C8345 C8344 1.391 . S
C8346 H8336 0.950 . S
C8346 C8347 1.386 . S
C8346 C8348 1.391 . S
C8347 C8346 1.386 . S
C8347 C8351 1.393 . S
C8348 H8337 0.950 . S
C8348 C8346 1.391 . S
C8348 C8349 1.400 . S
C8349 C8343 1.491 . S
C8349 C8348 1.400 . S
C8349 C8350 1.398 . S
C8350 H8338 0.950 . S
C8350 C8349 1.398 . S
C8350 C8351 1.391 . S
C8351 H8339 0.950 . S
C8351 C8347 1.393 . S
C8351 C8350 1.391 . S
H8352 C8360 0.950 . S
H8353 C8365 0.950 . S
H8354 C8362 0.950 . S
H8355 C8364 0.950 . S
H8356 C8366 0.950 . S
H8357 C8368 0.950 . S
H8358 C8370 0.950 . S
H8359 C8371 0.950 . S
C8360 H8352 0.950 . S
C8360 C8361 1.386 . S
C8360 C8362 1.391 . S
C8361 C8360 1.386 . S
C8361 C8365 1.393 . S
C8362 H8354 0.950 . S
C8362 C8360 1.391 . S
C8362 C8363 1.400 . S
C8363 C8362 1.400 . S
C8363 C8364 1.398 . S
C8363 C8369 1.491 . S
C8364 H8355 0.950 . S
C8364 C8363 1.398 . S
C8364 C8365 1.391 . S
C8365 H8353 0.950 . S
C8365 C8361 1.393 . S
C8365 C8364 1.391 . S
C8366 H8356 0.950 . S
C8366 C8367 1.386 . S
C8366 C8368 1.391 . S
C8367 C8366 1.386 . S
C8367 C8371 1.393 . S
C8368 H8357 0.950 . S
C8368 C8366 1.391 . S
C8368 C8369 1.400 . S
C8369 C8363 1.491 . S
C8369 C8368 1.400 . S
C8369 C8370 1.398 . S
C8370 H8358 0.950 . S
C8370 C8369 1.398 . S
C8370 C8371 1.391 . S
C8371 H8359 0.950 . S
C8371 C8367 1.393 . S
C8371 C8370 1.391 . S
H8372 C8380 0.950 . S
H8373 C8385 0.950 . S
H8374 C8382 0.950 . S
H8375 C8384 0.950 . S
H8376 C8386 0.950 . S
H8377 C8388 0.950 . S
H8378 C8390 0.950 . S
H8379 C8391 0.950 . S
C8380 H8372 0.950 . S
C8380 C8381 1.386 . S
C8380 C8382 1.391 . S
C8381 C8380 1.386 . S
C8381 C8385 1.393 . S
C8382 H8374 0.950 . S
C8382 C8380 1.391 . S
C8382 C8383 1.400 . S
C8383 C8382 1.400 . S
C8383 C8384 1.398 . S
C8383 C8389 1.491 . S
C8384 H8375 0.950 . S
C8384 C8383 1.398 . S
C8384 C8385 1.391 . S
C8385 H8373 0.950 . S
C8385 C8381 1.393 . S
C8385 C8384 1.391 . S
C8386 H8376 0.950 . S
C8386 C8387 1.386 . S
C8386 C8388 1.391 . S
C8387 C8386 1.386 . S
C8387 C8391 1.393 . S
C8388 H8377 0.950 . S
C8388 C8386 1.391 . S
C8388 C8389 1.400 . S
C8389 C8383 1.491 . S
C8389 C8388 1.400 . S
C8389 C8390 1.398 . S
C8390 H8378 0.950 . S
C8390 C8389 1.398 . S
C8390 C8391 1.391 . S
C8391 H8379 0.950 . S
C8391 C8387 1.393 . S
C8391 C8390 1.391 . S
H8392 C8400 0.950 . S
H8393 C8405 0.950 . S
H8394 C8402 0.950 . S
H8395 C8404 0.950 . S
H8396 C8406 0.950 . S
H8397 C8408 0.950 . S
H8398 C8410 0.950 . S
H8399 C8411 0.950 . S
C8400 H8392 0.950 . S
C8400 C8401 1.386 . S
C8400 C8402 1.391 . S
C8401 C8400 1.386 . S
C8401 C8405 1.393 . S
C8402 H8394 0.950 . S
C8402 C8400 1.391 . S
C8402 C8403 1.400 . S
C8403 C8402 1.400 . S
C8403 C8404 1.398 . S
C8403 C8409 1.491 . S
C8404 H8395 0.950 . S
C8404 C8403 1.398 . S
C8404 C8405 1.391 . S
C8405 H8393 0.950 . S
C8405 C8401 1.393 . S
C8405 C8404 1.391 . S
C8406 H8396 0.950 . S
C8406 C8407 1.386 . S
C8406 C8408 1.391 . S
C8407 C8406 1.386 . S
C8407 C8411 1.393 . S
C8408 H8397 0.950 . S
C8408 C8406 1.391 . S
C8408 C8409 1.400 . S
C8409 C8403 1.491 . S
C8409 C8408 1.400 . S
C8409 C8410 1.398 . S
C8410 H8398 0.950 . S
C8410 C8409 1.398 . S
C8410 C8411 1.391 . S
C8411 H8399 0.950 . S
C8411 C8407 1.393 . S
C8411 C8410 1.391 . S
H8412 C8420 0.950 . S
H8413 C8425 0.950 . S
H8414 C8422 0.950 . S
H8415 C8424 0.950 . S
H8416 C8426 0.950 . S
H8417 C8428 0.950 . S
H8418 C8430 0.950 . S
H8419 C8431 0.950 . S
C8420 H8412 0.950 . S
C8420 C8421 1.386 . S
C8420 C8422 1.391 . S
C8421 C8420 1.386 . S
C8421 C8425 1.393 . S
C8422 H8414 0.950 . S
C8422 C8420 1.391 . S
C8422 C8423 1.400 . S
C8423 C8422 1.400 . S
C8423 C8424 1.398 . S
C8423 C8429 1.491 . S
C8424 H8415 0.950 . S
C8424 C8423 1.398 . S
C8424 C8425 1.391 . S
C8425 H8413 0.950 . S
C8425 C8421 1.393 . S
C8425 C8424 1.391 . S
C8426 H8416 0.950 . S
C8426 C8427 1.386 . S
C8426 C8428 1.391 . S
C8427 C8426 1.386 . S
C8427 C8431 1.393 . S
C8428 H8417 0.950 . S
C8428 C8426 1.391 . S
C8428 C8429 1.400 . S
C8429 C8423 1.491 . S
C8429 C8428 1.400 . S
C8429 C8430 1.398 . S
C8430 H8418 0.950 . S
C8430 C8429 1.398 . S
C8430 C8431 1.391 . S
C8431 H8419 0.950 . S
C8431 C8427 1.393 . S
C8431 C8430 1.391 . S
H8432 C8440 0.950 . S
H8433 C8445 0.950 . S
H8434 C8442 0.950 . S
H8435 C8444 0.950 . S
H8436 C8446 0.950 . S
H8437 C8448 0.950 . S
H8438 C8450 0.950 . S
H8439 C8451 0.950 . S
C8440 H8432 0.950 . S
C8440 C8441 1.386 . S
C8440 C8442 1.391 . S
C8441 C8440 1.386 . S
C8441 C8445 1.393 . S
C8442 H8434 0.950 . S
C8442 C8440 1.391 . S
C8442 C8443 1.400 . S
C8443 C8442 1.400 . S
C8443 C8444 1.398 . S
C8443 C8449 1.491 . S
C8444 H8435 0.950 . S
C8444 C8443 1.398 . S
C8444 C8445 1.391 . S
C8445 H8433 0.950 . S
C8445 C8441 1.393 . S
C8445 C8444 1.391 . S
C8446 H8436 0.950 . S
C8446 C8447 1.386 . S
C8446 C8448 1.391 . S
C8447 C8446 1.386 . S
C8447 C8451 1.393 . S
C8448 H8437 0.950 . S
C8448 C8446 1.391 . S
C8448 C8449 1.400 . S
C8449 C8443 1.491 . S
C8449 C8448 1.400 . S
C8449 C8450 1.398 . S
C8450 H8438 0.950 . S
C8450 C8449 1.398 . S
C8450 C8451 1.391 . S
C8451 H8439 0.950 . S
C8451 C8447 1.393 . S
C8451 C8450 1.391 . S
H8452 C8460 0.950 . S
H8453 C8465 0.950 . S
H8454 C8462 0.950 . S
H8455 C8464 0.950 . S
H8456 C8466 0.950 . S
H8457 C8468 0.950 . S
H8458 C8470 0.950 . S
H8459 C8471 0.950 . S
C8460 H8452 0.950 . S
C8460 C8461 1.386 . S
C8460 C8462 1.391 . S
C8461 C8460 1.386 . S
C8461 C8465 1.393 . S
C8462 H8454 0.950 . S
C8462 C8460 1.391 . S
C8462 C8463 1.400 . S
C8463 C8462 1.400 . S
C8463 C8464 1.398 . S
C8463 C8469 1.491 . S
C8464 H8455 0.950 . S
C8464 C8463 1.398 . S
C8464 C8465 1.391 . S
C8465 H8453 0.950 . S
C8465 C8461 1.393 . S
C8465 C8464 1.391 . S
C8466 H8456 0.950 . S
C8466 C8467 1.386 . S
C8466 C8468 1.391 . S
C8467 C8466 1.386 . S
C8467 C8471 1.393 . S
C8468 H8457 0.950 . S
C8468 C8466 1.391 . S
C8468 C8469 1.400 . S
C8469 C8463 1.491 . S
C8469 C8468 1.400 . S
C8469 C8470 1.398 . S
C8470 H8458 0.950 . S
C8470 C8469 1.398 . S
C8470 C8471 1.391 . S
C8471 H8459 0.950 . S
C8471 C8467 1.393 . S
C8471 C8470 1.391 . S
H8472 C8480 0.950 . S
H8473 C8485 0.950 . S
H8474 C8482 0.950 . S
H8475 C8484 0.950 . S
H8476 C8486 0.950 . S
H8477 C8488 0.950 . S
H8478 C8490 0.950 . S
H8479 C8491 0.950 . S
C8480 H8472 0.950 . S
C8480 C8481 1.386 . S
C8480 C8482 1.391 . S
C8481 C8480 1.386 . S
C8481 C8485 1.393 . S
C8482 H8474 0.950 . S
C8482 C8480 1.391 . S
C8482 C8483 1.400 . S
C8483 C8482 1.400 . S
C8483 C8484 1.398 . S
C8483 C8489 1.491 . S
C8484 H8475 0.950 . S
C8484 C8483 1.398 . S
C8484 C8485 1.391 . S
C8485 H8473 0.950 . S
C8485 C8481 1.393 . S
C8485 C8484 1.391 . S
C8486 H8476 0.950 . S
C8486 C8487 1.386 . S
C8486 C8488 1.391 . S
C8487 C8486 1.386 . S
C8487 C8491 1.393 . S
C8488 H8477 0.950 . S
C8488 C8486 1.391 . S
C8488 C8489 1.400 . S
C8489 C8483 1.491 . S
C8489 C8488 1.400 . S
C8489 C8490 1.398 . S
C8490 H8478 0.950 . S
C8490 C8489 1.398 . S
C8490 C8491 1.391 . S
C8491 H8479 0.950 . S
C8491 C8487 1.393 . S
C8491 C8490 1.391 . S
H8492 C8500 0.950 . S
H8493 C8505 0.950 . S
H8494 C8502 0.950 . S
H8495 C8504 0.950 . S
H8496 C8506 0.950 . S
H8497 C8508 0.950 . S
H8498 C8510 0.950 . S
H8499 C8511 0.950 . S
C8500 H8492 0.950 . S
C8500 C8501 1.386 . S
C8500 C8502 1.391 . S
C8501 C8500 1.386 . S
C8501 C8505 1.393 . S
C8502 H8494 0.950 . S
C8502 C8500 1.391 . S
C8502 C8503 1.400 . S
C8503 C8502 1.400 . S
C8503 C8504 1.398 . S
C8503 C8509 1.491 . S
C8504 H8495 0.950 . S
C8504 C8503 1.398 . S
C8504 C8505 1.391 . S
C8505 H8493 0.950 . S
C8505 C8501 1.393 . S
C8505 C8504 1.391 . S
C8506 H8496 0.950 . S
C8506 C8507 1.386 . S
C8506 C8508 1.391 . S
C8507 C8506 1.386 . S
C8507 C8511 1.393 . S
C8508 H8497 0.950 . S
C8508 C8506 1.391 . S
C8508 C8509 1.400 . S
C8509 C8503 1.491 . S
C8509 C8508 1.400 . S
C8509 C8510 1.398 . S
C8510 H8498 0.950 . S
C8510 C8509 1.398 . S
C8510 C8511 1.391 . S
C8511 H8499 0.950 . S
C8511 C8507 1.393 . S
C8511 C8510 1.391 . S
H8512 C8520 0.950 . S
H8513 C8525 0.950 . S
H8514 C8522 0.950 . S
H8515 C8524 0.950 . S
H8516 C8526 0.950 . S
H8517 C8528 0.950 . S
H8518 C8530 0.950 . S
H8519 C8531 0.950 . S
C8520 H8512 0.950 . S
C8520 C8521 1.386 . S
C8520 C8522 1.391 . S
C8521 C8520 1.386 . S
C8521 C8525 1.393 . S
C8522 H8514 0.950 . S
C8522 C8520 1.391 . S
C8522 C8523 1.400 . S
C8523 C8522 1.400 . S
C8523 C8524 1.398 . S
C8523 C8529 1.491 . S
C8524 H8515 0.950 . S
C8524 C8523 1.398 . S
C8524 C8525 1.391 . S
C8525 H8513 0.950 . S
C8525 C8521 1.393 . S
C8525 C8524 1.391 . S
C8526 H8516 0.950 . S
C8526 C8527 1.386 . S
C8526 C8528 1.391 . S
C8527 C8526 1.386 . S
C8527 C8531 1.393 . S
C8528 H8517 0.950 . S
C8528 C8526 1.391 . S
C8528 C8529 1.400 . S
C8529 C8523 1.491 . S
C8529 C8528 1.400 . S
C8529 C8530 1.398 . S
C8530 H8518 0.950 . S
C8530 C8529 1.398 . S
C8530 C8531 1.391 . S
C8531 H8519 0.950 . S
C8531 C8527 1.393 . S
C8531 C8530 1.391 . S
H8532 C8540 0.950 . S
H8533 C8545 0.950 . S
H8534 C8542 0.950 . S
H8535 C8544 0.950 . S
H8536 C8546 0.950 . S
H8537 C8548 0.950 . S
H8538 C8550 0.950 . S
H8539 C8551 0.950 . S
C8540 H8532 0.950 . S
C8540 C8541 1.386 . S
C8540 C8542 1.391 . S
C8541 C8540 1.386 . S
C8541 C8545 1.393 . S
C8542 H8534 0.950 . S
C8542 C8540 1.391 . S
C8542 C8543 1.400 . S
C8543 C8542 1.400 . S
C8543 C8544 1.398 . S
C8543 C8549 1.491 . S
C8544 H8535 0.950 . S
C8544 C8543 1.398 . S
C8544 C8545 1.391 . S
C8545 H8533 0.950 . S
C8545 C8541 1.393 . S
C8545 C8544 1.391 . S
C8546 H8536 0.950 . S
C8546 C8547 1.386 . S
C8546 C8548 1.391 . S
C8547 C8546 1.386 . S
C8547 C8551 1.393 . S
C8548 H8537 0.950 . S
C8548 C8546 1.391 . S
C8548 C8549 1.400 . S
C8549 C8543 1.491 . S
C8549 C8548 1.400 . S
C8549 C8550 1.398 . S
C8550 H8538 0.950 . S
C8550 C8549 1.398 . S
C8550 C8551 1.391 . S
C8551 H8539 0.950 . S
C8551 C8547 1.393 . S
C8551 C8550 1.391 . S
H8552 C8560 0.950 . S
H8553 C8565 0.950 . S
H8554 C8562 0.950 . S
H8555 C8564 0.950 . S
H8556 C8566 0.950 . S
H8557 C8568 0.950 . S
H8558 C8570 0.950 . S
H8559 C8571 0.950 . S
C8560 H8552 0.950 . S
C8560 C8561 1.386 . S
C8560 C8562 1.391 . S
C8561 C8560 1.386 . S
C8561 C8565 1.393 . S
C8562 H8554 0.950 . S
C8562 C8560 1.391 . S
C8562 C8563 1.400 . S
C8563 C8562 1.400 . S
C8563 C8564 1.398 . S
C8563 C8569 1.491 . S
C8564 H8555 0.950 . S
C8564 C8563 1.398 . S
C8564 C8565 1.391 . S
C8565 H8553 0.950 . S
C8565 C8561 1.393 . S
C8565 C8564 1.391 . S
C8566 H8556 0.950 . S
C8566 C8567 1.386 . S
C8566 C8568 1.391 . S
C8567 C8566 1.386 . S
C8567 C8571 1.393 . S
C8568 H8557 0.950 . S
C8568 C8566 1.391 . S
C8568 C8569 1.400 . S
C8569 C8563 1.491 . S
C8569 C8568 1.400 . S
C8569 C8570 1.398 . S
C8570 H8558 0.950 . S
C8570 C8569 1.398 . S
C8570 C8571 1.391 . S
C8571 H8559 0.950 . S
C8571 C8567 1.393 . S
C8571 C8570 1.391 . S
H8572 C8580 0.950 . S
H8573 C8585 0.950 . S
H8574 C8582 0.950 . S
H8575 C8584 0.950 . S
H8576 C8586 0.950 . S
H8577 C8588 0.950 . S
H8578 C8590 0.950 . S
H8579 C8591 0.950 . S
C8580 H8572 0.950 . S
C8580 C8581 1.386 . S
C8580 C8582 1.391 . S
C8581 C8580 1.386 . S
C8581 C8585 1.393 . S
C8582 H8574 0.950 . S
C8582 C8580 1.391 . S
C8582 C8583 1.400 . S
C8583 C8582 1.400 . S
C8583 C8584 1.398 . S
C8583 C8589 1.491 . S
C8584 H8575 0.950 . S
C8584 C8583 1.398 . S
C8584 C8585 1.391 . S
C8585 H8573 0.950 . S
C8585 C8581 1.393 . S
C8585 C8584 1.391 . S
C8586 H8576 0.950 . S
C8586 C8587 1.386 . S
C8586 C8588 1.391 . S
C8587 C8586 1.386 . S
C8587 C8591 1.393 . S
C8588 H8577 0.950 . S
C8588 C8586 1.391 . S
C8588 C8589 1.400 . S
C8589 C8583 1.491 . S
C8589 C8588 1.400 . S
C8589 C8590 1.398 . S
C8590 H8578 0.950 . S
C8590 C8589 1.398 . S
C8590 C8591 1.391 . S
C8591 H8579 0.950 . S
C8591 C8587 1.393 . S
C8591 C8590 1.391 . S
H8592 C8600 0.950 . S
H8593 C8605 0.950 . S
H8594 C8602 0.950 . S
H8595 C8604 0.950 . S
H8596 C8606 0.950 . S
H8597 C8608 0.950 . S
H8598 C8610 0.950 . S
H8599 C8611 0.950 . S
C8600 H8592 0.950 . S
C8600 C8601 1.386 . S
C8600 C8602 1.391 . S
C8601 C8600 1.386 . S
C8601 C8605 1.393 . S
C8602 H8594 0.950 . S
C8602 C8600 1.391 . S
C8602 C8603 1.400 . S
C8603 C8602 1.400 . S
C8603 C8604 1.398 . S
C8603 C8609 1.491 . S
C8604 H8595 0.950 . S
C8604 C8603 1.398 . S
C8604 C8605 1.391 . S
C8605 H8593 0.950 . S
C8605 C8601 1.393 . S
C8605 C8604 1.391 . S
C8606 H8596 0.950 . S
C8606 C8607 1.386 . S
C8606 C8608 1.391 . S
C8607 C8606 1.386 . S
C8607 C8611 1.393 . S
C8608 H8597 0.950 . S
C8608 C8606 1.391 . S
C8608 C8609 1.400 . S
C8609 C8603 1.491 . S
C8609 C8608 1.400 . S
C8609 C8610 1.398 . S
C8610 H8598 0.950 . S
C8610 C8609 1.398 . S
C8610 C8611 1.391 . S
C8611 H8599 0.950 . S
C8611 C8607 1.393 . S
C8611 C8610 1.391 . S
H8612 C8620 0.950 . S
H8613 C8625 0.950 . S
H8614 C8622 0.950 . S
H8615 C8624 0.950 . S
H8616 C8626 0.950 . S
H8617 C8628 0.950 . S
H8618 C8630 0.950 . S
H8619 C8631 0.950 . S
C8620 H8612 0.950 . S
C8620 C8621 1.386 . S
C8620 C8622 1.391 . S
C8621 C8620 1.386 . S
C8621 C8625 1.393 . S
C8622 H8614 0.950 . S
C8622 C8620 1.391 . S
C8622 C8623 1.400 . S
C8623 C8622 1.400 . S
C8623 C8624 1.398 . S
C8623 C8629 1.491 . S
C8624 H8615 0.950 . S
C8624 C8623 1.398 . S
C8624 C8625 1.391 . S
C8625 H8613 0.950 . S
C8625 C8621 1.393 . S
C8625 C8624 1.391 . S
C8626 H8616 0.950 . S
C8626 C8627 1.386 . S
C8626 C8628 1.391 . S
C8627 C8626 1.386 . S
C8627 C8631 1.393 . S
C8628 H8617 0.950 . S
C8628 C8626 1.391 . S
C8628 C8629 1.400 . S
C8629 C8623 1.491 . S
C8629 C8628 1.400 . S
C8629 C8630 1.398 . S
C8630 H8618 0.950 . S
C8630 C8629 1.398 . S
C8630 C8631 1.391 . S
C8631 H8619 0.950 . S
C8631 C8627 1.393 . S
C8631 C8630 1.391 . S
H8632 C8640 0.950 . S
H8633 C8645 0.950 . S
H8634 C8642 0.950 . S
H8635 C8644 0.950 . S
H8636 C8646 0.950 . S
H8637 C8648 0.950 . S
H8638 C8650 0.950 . S
H8639 C8651 0.950 . S
C8640 H8632 0.950 . S
C8640 C8641 1.386 . S
C8640 C8642 1.391 . S
C8641 C8640 1.386 . S
C8641 C8645 1.393 . S
C8642 H8634 0.950 . S
C8642 C8640 1.391 . S
C8642 C8643 1.400 . S
C8643 C8642 1.400 . S
C8643 C8644 1.398 . S
C8643 C8649 1.491 . S
C8644 H8635 0.950 . S
C8644 C8643 1.398 . S
C8644 C8645 1.391 . S
C8645 H8633 0.950 . S
C8645 C8641 1.393 . S
C8645 C8644 1.391 . S
C8646 H8636 0.950 . S
C8646 C8647 1.386 . S
C8646 C8648 1.391 . S
C8647 C8646 1.386 . S
C8647 C8651 1.393 . S
C8648 H8637 0.950 . S
C8648 C8646 1.391 . S
C8648 C8649 1.400 . S
C8649 C8643 1.491 . S
C8649 C8648 1.400 . S
C8649 C8650 1.398 . S
C8650 H8638 0.950 . S
C8650 C8649 1.398 . S
C8650 C8651 1.391 . S
C8651 H8639 0.950 . S
C8651 C8647 1.393 . S
C8651 C8650 1.391 . S
H8652 C8660 0.950 . S
H8653 C8665 0.950 . S
H8654 C8662 0.950 . S
H8655 C8664 0.950 . S
H8656 C8666 0.950 . S
H8657 C8668 0.950 . S
H8658 C8670 0.950 . S
H8659 C8671 0.950 . S
C8660 H8652 0.950 . S
C8660 C8661 1.386 . S
C8660 C8662 1.391 . S
C8661 C8660 1.386 . S
C8661 C8665 1.393 . S
C8662 H8654 0.950 . S
C8662 C8660 1.391 . S
C8662 C8663 1.400 . S
C8663 C8662 1.400 . S
C8663 C8664 1.398 . S
C8663 C8669 1.491 . S
C8664 H8655 0.950 . S
C8664 C8663 1.398 . S
C8664 C8665 1.391 . S
C8665 H8653 0.950 . S
C8665 C8661 1.393 . S
C8665 C8664 1.391 . S
C8666 H8656 0.950 . S
C8666 C8667 1.386 . S
C8666 C8668 1.391 . S
C8667 C8666 1.386 . S
C8667 C8671 1.393 . S
C8668 H8657 0.950 . S
C8668 C8666 1.391 . S
C8668 C8669 1.400 . S
C8669 C8663 1.491 . S
C8669 C8668 1.400 . S
C8669 C8670 1.398 . S
C8670 H8658 0.950 . S
C8670 C8669 1.398 . S
C8670 C8671 1.391 . S
C8671 H8659 0.950 . S
C8671 C8667 1.393 . S
C8671 C8670 1.391 . S
H8672 C8680 0.950 . S
H8673 C8685 0.950 . S
H8674 C8682 0.950 . S
H8675 C8684 0.950 . S
H8676 C8686 0.950 . S
H8677 C8688 0.950 . S
H8678 C8690 0.950 . S
H8679 C8691 0.950 . S
C8680 H8672 0.950 . S
C8680 C8681 1.386 . S
C8680 C8682 1.391 . S
C8681 C8680 1.386 . S
C8681 C8685 1.393 . S
C8682 H8674 0.950 . S
C8682 C8680 1.391 . S
C8682 C8683 1.400 . S
C8683 C8682 1.400 . S
C8683 C8684 1.398 . S
C8683 C8689 1.491 . S
C8684 H8675 0.950 . S
C8684 C8683 1.398 . S
C8684 C8685 1.391 . S
C8685 H8673 0.950 . S
C8685 C8681 1.393 . S
C8685 C8684 1.391 . S
C8686 H8676 0.950 . S
C8686 C8687 1.386 . S
C8686 C8688 1.391 . S
C8687 C8686 1.386 . S
C8687 C8691 1.393 . S
C8688 H8677 0.950 . S
C8688 C8686 1.391 . S
C8688 C8689 1.400 . S
C8689 C8683 1.491 . S
C8689 C8688 1.400 . S
C8689 C8690 1.398 . S
C8690 H8678 0.950 . S
C8690 C8689 1.398 . S
C8690 C8691 1.391 . S
C8691 H8679 0.950 . S
C8691 C8687 1.393 . S
C8691 C8690 1.391 . S
H8692 C8700 0.950 . S
H8693 C8705 0.950 . S
H8694 C8702 0.950 . S
H8695 C8704 0.950 . S
H8696 C8706 0.950 . S
H8697 C8708 0.950 . S
H8698 C8710 0.950 . S
H8699 C8711 0.950 . S
C8700 H8692 0.950 . S
C8700 C8701 1.386 . S
C8700 C8702 1.391 . S
C8701 C8700 1.386 . S
C8701 C8705 1.393 . S
C8702 H8694 0.950 . S
C8702 C8700 1.391 . S
C8702 C8703 1.400 . S
C8703 C8702 1.400 . S
C8703 C8704 1.398 . S
C8703 C8709 1.491 . S
C8704 H8695 0.950 . S
C8704 C8703 1.398 . S
C8704 C8705 1.391 . S
C8705 H8693 0.950 . S
C8705 C8701 1.393 . S
C8705 C8704 1.391 . S
C8706 H8696 0.950 . S
C8706 C8707 1.386 . S
C8706 C8708 1.391 . S
C8707 C8706 1.386 . S
C8707 C8711 1.393 . S
C8708 H8697 0.950 . S
C8708 C8706 1.391 . S
C8708 C8709 1.400 . S
C8709 C8703 1.491 . S
C8709 C8708 1.400 . S
C8709 C8710 1.398 . S
C8710 H8698 0.950 . S
C8710 C8709 1.398 . S
C8710 C8711 1.391 . S
C8711 H8699 0.950 . S
C8711 C8707 1.393 . S
C8711 C8710 1.391 . S
H8712 C8720 0.950 . S
H8713 C8725 0.950 . S
H8714 C8722 0.950 . S
H8715 C8724 0.950 . S
H8716 C8726 0.950 . S
H8717 C8728 0.950 . S
H8718 C8730 0.950 . S
H8719 C8731 0.950 . S
C8720 H8712 0.950 . S
C8720 C8721 1.386 . S
C8720 C8722 1.391 . S
C8721 C8720 1.386 . S
C8721 C8725 1.393 . S
C8722 H8714 0.950 . S
C8722 C8720 1.391 . S
C8722 C8723 1.400 . S
C8723 C8722 1.400 . S
C8723 C8724 1.398 . S
C8723 C8729 1.491 . S
C8724 H8715 0.950 . S
C8724 C8723 1.398 . S
C8724 C8725 1.391 . S
C8725 H8713 0.950 . S
C8725 C8721 1.393 . S
C8725 C8724 1.391 . S
C8726 H8716 0.950 . S
C8726 C8727 1.386 . S
C8726 C8728 1.391 . S
C8727 C8726 1.386 . S
C8727 C8731 1.393 . S
C8728 H8717 0.950 . S
C8728 C8726 1.391 . S
C8728 C8729 1.400 . S
C8729 C8723 1.491 . S
C8729 C8728 1.400 . S
C8729 C8730 1.398 . S
C8730 H8718 0.950 . S
C8730 C8729 1.398 . S
C8730 C8731 1.391 . S
C8731 H8719 0.950 . S
C8731 C8727 1.393 . S
C8731 C8730 1.391 . S
H8732 C8740 0.950 . S
H8733 C8745 0.950 . S
H8734 C8742 0.950 . S
H8735 C8744 0.950 . S
H8736 C8746 0.950 . S
H8737 C8748 0.950 . S
H8738 C8750 0.950 . S
H8739 C8751 0.950 . S
C8740 H8732 0.950 . S
C8740 C8741 1.386 . S
C8740 C8742 1.391 . S
C8741 C8740 1.386 . S
C8741 C8745 1.393 . S
C8742 H8734 0.950 . S
C8742 C8740 1.391 . S
C8742 C8743 1.400 . S
C8743 C8742 1.400 . S
C8743 C8744 1.398 . S
C8743 C8749 1.491 . S
C8744 H8735 0.950 . S
C8744 C8743 1.398 . S
C8744 C8745 1.391 . S
C8745 H8733 0.950 . S
C8745 C8741 1.393 . S
C8745 C8744 1.391 . S
C8746 H8736 0.950 . S
C8746 C8747 1.386 . S
C8746 C8748 1.391 . S
C8747 C8746 1.386 . S
C8747 C8751 1.393 . S
C8748 H8737 0.950 . S
C8748 C8746 1.391 . S
C8748 C8749 1.400 . S
C8749 C8743 1.491 . S
C8749 C8748 1.400 . S
C8749 C8750 1.398 . S
C8750 H8738 0.950 . S
C8750 C8749 1.398 . S
C8750 C8751 1.391 . S
C8751 H8739 0.950 . S
C8751 C8747 1.393 . S
C8751 C8750 1.391 . S
H8752 C8760 0.950 . S
H8753 C8765 0.950 . S
H8754 C8762 0.950 . S
H8755 C8764 0.950 . S
H8756 C8766 0.950 . S
H8757 C8768 0.950 . S
H8758 C8770 0.950 . S
H8759 C8771 0.950 . S
C8760 H8752 0.950 . S
C8760 C8761 1.386 . S
C8760 C8762 1.391 . S
C8761 C8760 1.386 . S
C8761 C8765 1.393 . S
C8762 H8754 0.950 . S
C8762 C8760 1.391 . S
C8762 C8763 1.400 . S
C8763 C8762 1.400 . S
C8763 C8764 1.398 . S
C8763 C8769 1.491 . S
C8764 H8755 0.950 . S
C8764 C8763 1.398 . S
C8764 C8765 1.391 . S
C8765 H8753 0.950 . S
C8765 C8761 1.393 . S
C8765 C8764 1.391 . S
C8766 H8756 0.950 . S
C8766 C8767 1.386 . S
C8766 C8768 1.391 . S
C8767 C8766 1.386 . S
C8767 C8771 1.393 . S
C8768 H8757 0.950 . S
C8768 C8766 1.391 . S
C8768 C8769 1.400 . S
C8769 C8763 1.491 . S
C8769 C8768 1.400 . S
C8769 C8770 1.398 . S
C8770 H8758 0.950 . S
C8770 C8769 1.398 . S
C8770 C8771 1.391 . S
C8771 H8759 0.950 . S
C8771 C8767 1.393 . S
C8771 C8770 1.391 . S
H8772 C8780 0.950 . S
H8773 C8785 0.950 . S
H8774 C8782 0.950 . S
H8775 C8784 0.950 . S
H8776 C8786 0.950 . S
H8777 C8788 0.950 . S
H8778 C8790 0.950 . S
H8779 C8791 0.950 . S
C8780 H8772 0.950 . S
C8780 C8781 1.386 . S
C8780 C8782 1.391 . S
C8781 C8780 1.386 . S
C8781 C8785 1.393 . S
C8782 H8774 0.950 . S
C8782 C8780 1.391 . S
C8782 C8783 1.400 . S
C8783 C8782 1.400 . S
C8783 C8784 1.398 . S
C8783 C8789 1.491 . S
C8784 H8775 0.950 . S
C8784 C8783 1.398 . S
C8784 C8785 1.391 . S
C8785 H8773 0.950 . S
C8785 C8781 1.393 . S
C8785 C8784 1.391 . S
C8786 H8776 0.950 . S
C8786 C8787 1.386 . S
C8786 C8788 1.391 . S
C8787 C8786 1.386 . S
C8787 C8791 1.393 . S
C8788 H8777 0.950 . S
C8788 C8786 1.391 . S
C8788 C8789 1.400 . S
C8789 C8783 1.491 . S
C8789 C8788 1.400 . S
C8789 C8790 1.398 . S
C8790 H8778 0.950 . S
C8790 C8789 1.398 . S
C8790 C8791 1.391 . S
C8791 H8779 0.950 . S
C8791 C8787 1.393 . S
C8791 C8790 1.391 . S
H8792 C8800 0.950 . S
H8793 C8805 0.950 . S
H8794 C8802 0.950 . S
H8795 C8804 0.950 . S
H8796 C8806 0.950 . S
H8797 C8808 0.950 . S
H8798 C8810 0.950 . S
H8799 C8811 0.950 . S
C8800 H8792 0.950 . S
C8800 C8801 1.386 . S
C8800 C8802 1.391 . S
C8801 C8800 1.386 . S
C8801 C8805 1.393 . S
C8802 H8794 0.950 . S
C8802 C8800 1.391 . S
C8802 C8803 1.400 . S
C8803 C8802 1.400 . S
C8803 C8804 1.398 . S
C8803 C8809 1.491 . S
C8804 H8795 0.950 . S
C8804 C8803 1.398 . S
C8804 C8805 1.391 . S
C8805 H8793 0.950 . S
C8805 C8801 1.393 . S
C8805 C8804 1.391 . S
C8806 H8796 0.950 . S
C8806 C8807 1.386 . S
C8806 C8808 1.391 . S
C8807 C8806 1.386 . S
C8807 C8811 1.393 . S
C8808 H8797 0.950 . S
C8808 C8806 1.391 . S
C8808 C8809 1.400 . S
C8809 C8803 1.491 . S
C8809 C8808 1.400 . S
C8809 C8810 1.398 . S
C8810 H8798 0.950 . S
C8810 C8809 1.398 . S
C8810 C8811 1.391 . S
C8811 H8799 0.950 . S
C8811 C8807 1.393 . S
C8811 C8810 1.391 . S
H8812 C8820 0.950 . S
H8813 C8825 0.950 . S
H8814 C8822 0.950 . S
H8815 C8824 0.950 . S
H8816 C8826 0.950 . S
H8817 C8828 0.950 . S
H8818 C8830 0.950 . S
H8819 C8831 0.950 . S
C8820 H8812 0.950 . S
C8820 C8821 1.386 . S
C8820 C8822 1.391 . S
C8821 C8820 1.386 . S
C8821 C8825 1.393 . S
C8822 H8814 0.950 . S
C8822 C8820 1.391 . S
C8822 C8823 1.400 . S
C8823 C8822 1.400 . S
C8823 C8824 1.398 . S
C8823 C8829 1.491 . S
C8824 H8815 0.950 . S
C8824 C8823 1.398 . S
C8824 C8825 1.391 . S
C8825 H8813 0.950 . S
C8825 C8821 1.393 . S
C8825 C8824 1.391 . S
C8826 H8816 0.950 . S
C8826 C8827 1.386 . S
C8826 C8828 1.391 . S
C8827 C8826 1.386 . S
C8827 C8831 1.393 . S
C8828 H8817 0.950 . S
C8828 C8826 1.391 . S
C8828 C8829 1.400 . S
C8829 C8823 1.491 . S
C8829 C8828 1.400 . S
C8829 C8830 1.398 . S
C8830 H8818 0.950 . S
C8830 C8829 1.398 . S
C8830 C8831 1.391 . S
C8831 H8819 0.950 . S
C8831 C8827 1.393 . S
C8831 C8830 1.391 . S
H8832 C8840 0.950 . S
H8833 C8845 0.950 . S
H8834 C8842 0.950 . S
H8835 C8844 0.950 . S
H8836 C8846 0.950 . S
H8837 C8848 0.950 . S
H8838 C8850 0.950 . S
H8839 C8851 0.950 . S
C8840 H8832 0.950 . S
C8840 C8841 1.386 . S
C8840 C8842 1.391 . S
C8841 C8840 1.386 . S
C8841 C8845 1.393 . S
C8842 H8834 0.950 . S
C8842 C8840 1.391 . S
C8842 C8843 1.400 . S
C8843 C8842 1.400 . S
C8843 C8844 1.398 . S
C8843 C8849 1.491 . S
C8844 H8835 0.950 . S
C8844 C8843 1.398 . S
C8844 C8845 1.391 . S
C8845 H8833 0.950 . S
C8845 C8841 1.393 . S
C8845 C8844 1.391 . S
C8846 H8836 0.950 . S
C8846 C8847 1.386 . S
C8846 C8848 1.391 . S
C8847 C8846 1.386 . S
C8847 C8851 1.393 . S
C8848 H8837 0.950 . S
C8848 C8846 1.391 . S
C8848 C8849 1.400 . S
C8849 C8843 1.491 . S
C8849 C8848 1.400 . S
C8849 C8850 1.398 . S
C8850 H8838 0.950 . S
C8850 C8849 1.398 . S
C8850 C8851 1.391 . S
C8851 H8839 0.950 . S
C8851 C8847 1.393 . S
C8851 C8850 1.391 . S
H8852 C8860 0.950 . S
H8853 C8865 0.950 . S
H8854 C8862 0.950 . S
H8855 C8864 0.950 . S
H8856 C8866 0.950 . S
H8857 C8868 0.950 . S
H8858 C8870 0.950 . S
H8859 C8871 0.950 . S
C8860 H8852 0.950 . S
C8860 C8861 1.386 . S
C8860 C8862 1.391 . S
C8861 C8860 1.386 . S
C8861 C8865 1.393 . S
C8862 H8854 0.950 . S
C8862 C8860 1.391 . S
C8862 C8863 1.400 . S
C8863 C8862 1.400 . S
C8863 C8864 1.398 . S
C8863 C8869 1.491 . S
C8864 H8855 0.950 . S
C8864 C8863 1.398 . S
C8864 C8865 1.391 . S
C8865 H8853 0.950 . S
C8865 C8861 1.393 . S
C8865 C8864 1.391 . S
C8866 H8856 0.950 . S
C8866 C8867 1.386 . S
C8866 C8868 1.391 . S
C8867 C8866 1.386 . S
C8867 C8871 1.393 . S
C8868 H8857 0.950 . S
C8868 C8866 1.391 . S
C8868 C8869 1.400 . S
C8869 C8863 1.491 . S
C8869 C8868 1.400 . S
C8869 C8870 1.398 . S
C8870 H8858 0.950 . S
C8870 C8869 1.398 . S
C8870 C8871 1.391 . S
C8871 H8859 0.950 . S
C8871 C8867 1.393 . S
C8871 C8870 1.391 . S
H8872 C8880 0.950 . S
H8873 C8885 0.950 . S
H8874 C8882 0.950 . S
H8875 C8884 0.950 . S
H8876 C8886 0.950 . S
H8877 C8888 0.950 . S
H8878 C8890 0.950 . S
H8879 C8891 0.950 . S
C8880 H8872 0.950 . S
C8880 C8881 1.386 . S
C8880 C8882 1.391 . S
C8881 C8880 1.386 . S
C8881 C8885 1.393 . S
C8882 H8874 0.950 . S
C8882 C8880 1.391 . S
C8882 C8883 1.400 . S
C8883 C8882 1.400 . S
C8883 C8884 1.398 . S
C8883 C8889 1.491 . S
C8884 H8875 0.950 . S
C8884 C8883 1.398 . S
C8884 C8885 1.391 . S
C8885 H8873 0.950 . S
C8885 C8881 1.393 . S
C8885 C8884 1.391 . S
C8886 H8876 0.950 . S
C8886 C8887 1.386 . S
C8886 C8888 1.391 . S
C8887 C8886 1.386 . S
C8887 C8891 1.393 . S
C8888 H8877 0.950 . S
C8888 C8886 1.391 . S
C8888 C8889 1.400 . S
C8889 C8883 1.491 . S
C8889 C8888 1.400 . S
C8889 C8890 1.398 . S
C8890 H8878 0.950 . S
C8890 C8889 1.398 . S
C8890 C8891 1.391 . S
C8891 H8879 0.950 . S
C8891 C8887 1.393 . S
C8891 C8890 1.391 . S
H8892 C8900 0.950 . S
H8893 C8905 0.950 . S
H8894 C8902 0.950 . S
H8895 C8904 0.950 . S
H8896 C8906 0.950 . S
H8897 C8908 0.950 . S
H8898 C8910 0.950 . S
H8899 C8911 0.950 . S
C8900 H8892 0.950 . S
C8900 C8901 1.386 . S
C8900 C8902 1.391 . S
C8901 C8900 1.386 . S
C8901 C8905 1.393 . S
C8902 H8894 0.950 . S
C8902 C8900 1.391 . S
C8902 C8903 1.400 . S
C8903 C8902 1.400 . S
C8903 C8904 1.398 . S
C8903 C8909 1.491 . S
C8904 H8895 0.950 . S
C8904 C8903 1.398 . S
C8904 C8905 1.391 . S
C8905 H8893 0.950 . S
C8905 C8901 1.393 . S
C8905 C8904 1.391 . S
C8906 H8896 0.950 . S
C8906 C8907 1.386 . S
C8906 C8908 1.391 . S
C8907 C8906 1.386 . S
C8907 C8911 1.393 . S
C8908 H8897 0.950 . S
C8908 C8906 1.391 . S
C8908 C8909 1.400 . S
C8909 C8903 1.491 . S
C8909 C8908 1.400 . S
C8909 C8910 1.398 . S
C8910 H8898 0.950 . S
C8910 C8909 1.398 . S
C8910 C8911 1.391 . S
C8911 H8899 0.950 . S
C8911 C8907 1.393 . S
C8911 C8910 1.391 . S
H8912 C8920 0.950 . S
H8913 C8925 0.950 . S
H8914 C8922 0.950 . S
H8915 C8924 0.950 . S
H8916 C8926 0.950 . S
H8917 C8928 0.950 . S
H8918 C8930 0.950 . S
H8919 C8931 0.950 . S
C8920 H8912 0.950 . S
C8920 C8921 1.386 . S
C8920 C8922 1.391 . S
C8921 C8920 1.386 . S
C8921 C8925 1.393 . S
C8922 H8914 0.950 . S
C8922 C8920 1.391 . S
C8922 C8923 1.400 . S
C8923 C8922 1.400 . S
C8923 C8924 1.398 . S
C8923 C8929 1.491 . S
C8924 H8915 0.950 . S
C8924 C8923 1.398 . S
C8924 C8925 1.391 . S
C8925 H8913 0.950 . S
C8925 C8921 1.393 . S
C8925 C8924 1.391 . S
C8926 H8916 0.950 . S
C8926 C8927 1.386 . S
C8926 C8928 1.391 . S
C8927 C8926 1.386 . S
C8927 C8931 1.393 . S
C8928 H8917 0.950 . S
C8928 C8926 1.391 . S
C8928 C8929 1.400 . S
C8929 C8923 1.491 . S
C8929 C8928 1.400 . S
C8929 C8930 1.398 . S
C8930 H8918 0.950 . S
C8930 C8929 1.398 . S
C8930 C8931 1.391 . S
C8931 H8919 0.950 . S
C8931 C8927 1.393 . S
C8931 C8930 1.391 . S
H8932 C8940 0.950 . S
H8933 C8945 0.950 . S
H8934 C8942 0.950 . S
H8935 C8944 0.950 . S
H8936 C8946 0.950 . S
H8937 C8948 0.950 . S
H8938 C8950 0.950 . S
H8939 C8951 0.950 . S
C8940 H8932 0.950 . S
C8940 C8941 1.386 . S
C8940 C8942 1.391 . S
C8941 C8940 1.386 . S
C8941 C8945 1.393 . S
C8942 H8934 0.950 . S
C8942 C8940 1.391 . S
C8942 C8943 1.400 . S
C8943 C8942 1.400 . S
C8943 C8944 1.398 . S
C8943 C8949 1.491 . S
C8944 H8935 0.950 . S
C8944 C8943 1.398 . S
C8944 C8945 1.391 . S
C8945 H8933 0.950 . S
C8945 C8941 1.393 . S
C8945 C8944 1.391 . S
C8946 H8936 0.950 . S
C8946 C8947 1.386 . S
C8946 C8948 1.391 . S
C8947 C8946 1.386 . S
C8947 C8951 1.393 . S
C8948 H8937 0.950 . S
C8948 C8946 1.391 . S
C8948 C8949 1.400 . S
C8949 C8943 1.491 . S
C8949 C8948 1.400 . S
C8949 C8950 1.398 . S
C8950 H8938 0.950 . S
C8950 C8949 1.398 . S
C8950 C8951 1.391 . S
C8951 H8939 0.950 . S
C8951 C8947 1.393 . S
C8951 C8950 1.391 . S
H8952 C8960 0.950 . S
H8953 C8965 0.950 . S
H8954 C8962 0.950 . S
H8955 C8964 0.950 . S
H8956 C8966 0.950 . S
H8957 C8968 0.950 . S
H8958 C8970 0.950 . S
H8959 C8971 0.950 . S
C8960 H8952 0.950 . S
C8960 C8961 1.386 . S
C8960 C8962 1.391 . S
C8961 C8960 1.386 . S
C8961 C8965 1.393 . S
C8962 H8954 0.950 . S
C8962 C8960 1.391 . S
C8962 C8963 1.400 . S
C8963 C8962 1.400 . S
C8963 C8964 1.398 . S
C8963 C8969 1.491 . S
C8964 H8955 0.950 . S
C8964 C8963 1.398 . S
C8964 C8965 1.391 . S
C8965 H8953 0.950 . S
C8965 C8961 1.393 . S
C8965 C8964 1.391 . S
C8966 H8956 0.950 . S
C8966 C8967 1.386 . S
C8966 C8968 1.391 . S
C8967 C8966 1.386 . S
C8967 C8971 1.393 . S
C8968 H8957 0.950 . S
C8968 C8966 1.391 . S
C8968 C8969 1.400 . S
C8969 C8963 1.491 . S
C8969 C8968 1.400 . S
C8969 C8970 1.398 . S
C8970 H8958 0.950 . S
C8970 C8969 1.398 . S
C8970 C8971 1.391 . S
C8971 H8959 0.950 . S
C8971 C8967 1.393 . S
C8971 C8970 1.391 . S
H8972 C8980 0.950 . S
H8973 C8985 0.950 . S
H8974 C8982 0.950 . S
H8975 C8984 0.950 . S
H8976 C8986 0.950 . S
H8977 C8988 0.950 . S
H8978 C8990 0.950 . S
H8979 C8991 0.950 . S
C8980 H8972 0.950 . S
C8980 C8981 1.386 . S
C8980 C8982 1.391 . S
C8981 C8980 1.386 . S
C8981 C8985 1.393 . S
C8982 H8974 0.950 . S
C8982 C8980 1.391 . S
C8982 C8983 1.400 . S
C8983 C8982 1.400 . S
C8983 C8984 1.398 . S
C8983 C8989 1.491 . S
C8984 H8975 0.950 . S
C8984 C8983 1.398 . S
C8984 C8985 1.391 . S
C8985 H8973 0.950 . S
C8985 C8981 1.393 . S
C8985 C8984 1.391 . S
C8986 H8976 0.950 . S
C8986 C8987 1.386 . S
C8986 C8988 1.391 . S
C8987 C8986 1.386 . S
C8987 C8991 1.393 . S
C8988 H8977 0.950 . S
C8988 C8986 1.391 . S
C8988 C8989 1.400 . S
C8989 C8983 1.491 . S
C8989 C8988 1.400 . S
C8989 C8990 1.398 . S
C8990 H8978 0.950 . S
C8990 C8989 1.398 . S
C8990 C8991 1.391 . S
C8991 H8979 0.950 . S
C8991 C8987 1.393 . S
C8991 C8990 1.391 . S
H8992 C9000 0.950 . S
H8993 C9005 0.950 . S
H8994 C9002 0.950 . S
H8995 C9004 0.950 . S
H8996 C9006 0.950 . S
H8997 C9008 0.950 . S
H8998 C9010 0.950 . S
H8999 C9011 0.950 . S
C9000 H8992 0.950 . S
C9000 C9001 1.386 . S
C9000 C9002 1.391 . S
C9001 C9000 1.386 . S
C9001 C9005 1.393 . S
C9002 H8994 0.950 . S
C9002 C9000 1.391 . S
C9002 C9003 1.400 . S
C9003 C9002 1.400 . S
C9003 C9004 1.398 . S
C9003 C9009 1.491 . S
C9004 H8995 0.950 . S
C9004 C9003 1.398 . S
C9004 C9005 1.391 . S
C9005 H8993 0.950 . S
C9005 C9001 1.393 . S
C9005 C9004 1.391 . S
C9006 H8996 0.950 . S
C9006 C9007 1.386 . S
C9006 C9008 1.391 . S
C9007 C9006 1.386 . S
C9007 C9011 1.393 . S
C9008 H8997 0.950 . S
C9008 C9006 1.391 . S
C9008 C9009 1.400 . S
C9009 C9003 1.491 . S
C9009 C9008 1.400 . S
C9009 C9010 1.398 . S
C9010 H8998 0.950 . S
C9010 C9009 1.398 . S
C9010 C9011 1.391 . S
C9011 H8999 0.950 . S
C9011 C9007 1.393 . S
C9011 C9010 1.391 . S
H9012 C9020 0.950 . S
H9013 C9025 0.950 . S
H9014 C9022 0.950 . S
H9015 C9024 0.950 . S
H9016 C9026 0.950 . S
H9017 C9028 0.950 . S
H9018 C9030 0.950 . S
H9019 C9031 0.950 . S
C9020 H9012 0.950 . S
C9020 C9021 1.386 . S
C9020 C9022 1.391 . S
C9021 C9020 1.386 . S
C9021 C9025 1.393 . S
C9022 H9014 0.950 . S
C9022 C9020 1.391 . S
C9022 C9023 1.400 . S
C9023 C9022 1.400 . S
C9023 C9024 1.398 . S
C9023 C9029 1.491 . S
C9024 H9015 0.950 . S
C9024 C9023 1.398 . S
C9024 C9025 1.391 . S
C9025 H9013 0.950 . S
C9025 C9021 1.393 . S
C9025 C9024 1.391 . S
C9026 H9016 0.950 . S
C9026 C9027 1.386 . S
C9026 C9028 1.391 . S
C9027 C9026 1.386 . S
C9027 C9031 1.393 . S
C9028 H9017 0.950 . S
C9028 C9026 1.391 . S
C9028 C9029 1.400 . S
C9029 C9023 1.491 . S
C9029 C9028 1.400 . S
C9029 C9030 1.398 . S
C9030 H9018 0.950 . S
C9030 C9029 1.398 . S
C9030 C9031 1.391 . S
C9031 H9019 0.950 . S
C9031 C9027 1.393 . S
C9031 C9030 1.391 . S
H9032 C9040 0.950 . S
H9033 C9045 0.950 . S
H9034 C9042 0.950 . S
H9035 C9044 0.950 . S
H9036 C9046 0.950 . S
H9037 C9048 0.950 . S
H9038 C9050 0.950 . S
H9039 C9051 0.950 . S
C9040 H9032 0.950 . S
C9040 C9041 1.386 . S
C9040 C9042 1.391 . S
C9041 C9040 1.386 . S
C9041 C9045 1.393 . S
C9042 H9034 0.950 . S
C9042 C9040 1.391 . S
C9042 C9043 1.400 . S
C9043 C9042 1.400 . S
C9043 C9044 1.398 . S
C9043 C9049 1.491 . S
C9044 H9035 0.950 . S
C9044 C9043 1.398 . S
C9044 C9045 1.391 . S
C9045 H9033 0.950 . S
C9045 C9041 1.393 . S
C9045 C9044 1.391 . S
C9046 H9036 0.950 . S
C9046 C9047 1.386 . S
C9046 C9048 1.391 . S
C9047 C9046 1.386 . S
C9047 C9051 1.393 . S
C9048 H9037 0.950 . S
C9048 C9046 1.391 . S
C9048 C9049 1.400 . S
C9049 C9043 1.491 . S
C9049 C9048 1.400 . S
C9049 C9050 1.398 . S
C9050 H9038 0.950 . S
C9050 C9049 1.398 . S
C9050 C9051 1.391 . S
C9051 H9039 0.950 . S
C9051 C9047 1.393 . S
C9051 C9050 1.391 . S
H9052 C9060 0.950 . S
H9053 C9065 0.950 . S
H9054 C9062 0.950 . S
H9055 C9064 0.950 . S
H9056 C9066 0.950 . S
H9057 C9068 0.950 . S
H9058 C9070 0.950 . S
H9059 C9071 0.950 . S
C9060 H9052 0.950 . S
C9060 C9061 1.386 . S
C9060 C9062 1.391 . S
C9061 C9060 1.386 . S
C9061 C9065 1.393 . S
C9062 H9054 0.950 . S
C9062 C9060 1.391 . S
C9062 C9063 1.400 . S
C9063 C9062 1.400 . S
C9063 C9064 1.398 . S
C9063 C9069 1.491 . S
C9064 H9055 0.950 . S
C9064 C9063 1.398 . S
C9064 C9065 1.391 . S
C9065 H9053 0.950 . S
C9065 C9061 1.393 . S
C9065 C9064 1.391 . S
C9066 H9056 0.950 . S
C9066 C9067 1.386 . S
C9066 C9068 1.391 . S
C9067 C9066 1.386 . S
C9067 C9071 1.393 . S
C9068 H9057 0.950 . S
C9068 C9066 1.391 . S
C9068 C9069 1.400 . S
C9069 C9063 1.491 . S
C9069 C9068 1.400 . S
C9069 C9070 1.398 . S
C9070 H9058 0.950 . S
C9070 C9069 1.398 . S
C9070 C9071 1.391 . S
C9071 H9059 0.950 . S
C9071 C9067 1.393 . S
C9071 C9070 1.391 . S
H9072 C9080 0.950 . S
H9073 C9085 0.950 . S
H9074 C9082 0.950 . S
H9075 C9084 0.950 . S
H9076 C9086 0.950 . S
H9077 C9088 0.950 . S
H9078 C9090 0.950 . S
H9079 C9091 0.950 . S
C9080 H9072 0.950 . S
C9080 C9081 1.386 . S
C9080 C9082 1.391 . S
C9081 C9080 1.386 . S
C9081 C9085 1.393 . S
C9082 H9074 0.950 . S
C9082 C9080 1.391 . S
C9082 C9083 1.400 . S
C9083 C9082 1.400 . S
C9083 C9084 1.398 . S
C9083 C9089 1.491 . S
C9084 H9075 0.950 . S
C9084 C9083 1.398 . S
C9084 C9085 1.391 . S
C9085 H9073 0.950 . S
C9085 C9081 1.393 . S
C9085 C9084 1.391 . S
C9086 H9076 0.950 . S
C9086 C9087 1.386 . S
C9086 C9088 1.391 . S
C9087 C9086 1.386 . S
C9087 C9091 1.393 . S
C9088 H9077 0.950 . S
C9088 C9086 1.391 . S
C9088 C9089 1.400 . S
C9089 C9083 1.491 . S
C9089 C9088 1.400 . S
C9089 C9090 1.398 . S
C9090 H9078 0.950 . S
C9090 C9089 1.398 . S
C9090 C9091 1.391 . S
C9091 H9079 0.950 . S
C9091 C9087 1.393 . S
C9091 C9090 1.391 . S
H9092 C9100 0.950 . S
H9093 C9105 0.950 . S
H9094 C9102 0.950 . S
H9095 C9104 0.950 . S
H9096 C9106 0.950 . S
H9097 C9108 0.950 . S
H9098 C9110 0.950 . S
H9099 C9111 0.950 . S
C9100 H9092 0.950 . S
C9100 C9101 1.386 . S
C9100 C9102 1.391 . S
C9101 C9100 1.386 . S
C9101 C9105 1.393 . S
C9102 H9094 0.950 . S
C9102 C9100 1.391 . S
C9102 C9103 1.400 . S
C9103 C9102 1.400 . S
C9103 C9104 1.398 . S
C9103 C9109 1.491 . S
C9104 H9095 0.950 . S
C9104 C9103 1.398 . S
C9104 C9105 1.391 . S
C9105 H9093 0.950 . S
C9105 C9101 1.393 . S
C9105 C9104 1.391 . S
C9106 H9096 0.950 . S
C9106 C9107 1.386 . S
C9106 C9108 1.391 . S
C9107 C9106 1.386 . S
C9107 C9111 1.393 . S
C9108 H9097 0.950 . S
C9108 C9106 1.391 . S
C9108 C9109 1.400 . S
C9109 C9103 1.491 . S
C9109 C9108 1.400 . S
C9109 C9110 1.398 . S
C9110 H9098 0.950 . S
C9110 C9109 1.398 . S
C9110 C9111 1.391 . S
C9111 H9099 0.950 . S
C9111 C9107 1.393 . S
C9111 C9110 1.391 . S
H9112 C9120 0.950 . S
H9113 C9125 0.950 . S
H9114 C9122 0.950 . S
H9115 C9124 0.950 . S
H9116 C9126 0.950 . S
H9117 C9128 0.950 . S
H9118 C9130 0.950 . S
H9119 C9131 0.950 . S
C9120 H9112 0.950 . S
C9120 C9121 1.386 . S
C9120 C9122 1.391 . S
C9121 C9120 1.386 . S
C9121 C9125 1.393 . S
C9122 H9114 0.950 . S
C9122 C9120 1.391 . S
C9122 C9123 1.400 . S
C9123 C9122 1.400 . S
C9123 C9124 1.398 . S
C9123 C9129 1.491 . S
C9124 H9115 0.950 . S
C9124 C9123 1.398 . S
C9124 C9125 1.391 . S
C9125 H9113 0.950 . S
C9125 C9121 1.393 . S
C9125 C9124 1.391 . S
C9126 H9116 0.950 . S
C9126 C9127 1.386 . S
C9126 C9128 1.391 . S
C9127 C9126 1.386 . S
C9127 C9131 1.393 . S
C9128 H9117 0.950 . S
C9128 C9126 1.391 . S
C9128 C9129 1.400 . S
C9129 C9123 1.491 . S
C9129 C9128 1.400 . S
C9129 C9130 1.398 . S
C9130 H9118 0.950 . S
C9130 C9129 1.398 . S
C9130 C9131 1.391 . S
C9131 H9119 0.950 . S
C9131 C9127 1.393 . S
C9131 C9130 1.391 . S
H9132 C9140 0.950 . S
H9133 C9145 0.950 . S
H9134 C9142 0.950 . S
H9135 C9144 0.950 . S
H9136 C9146 0.950 . S
H9137 C9148 0.950 . S
H9138 C9150 0.950 . S
H9139 C9151 0.950 . S
C9140 H9132 0.950 . S
C9140 C9141 1.386 . S
C9140 C9142 1.391 . S
C9141 C9140 1.386 . S
C9141 C9145 1.393 . S
C9142 H9134 0.950 . S
C9142 C9140 1.391 . S
C9142 C9143 1.400 . S
C9143 C9142 1.400 . S
C9143 C9144 1.398 . S
C9143 C9149 1.491 . S
C9144 H9135 0.950 . S
C9144 C9143 1.398 . S
C9144 C9145 1.391 . S
C9145 H9133 0.950 . S
C9145 C9141 1.393 . S
C9145 C9144 1.391 . S
C9146 H9136 0.950 . S
C9146 C9147 1.386 . S
C9146 C9148 1.391 . S
C9147 C9146 1.386 . S
C9147 C9151 1.393 . S
C9148 H9137 0.950 . S
C9148 C9146 1.391 . S
C9148 C9149 1.400 . S
C9149 C9143 1.491 . S
C9149 C9148 1.400 . S
C9149 C9150 1.398 . S
C9150 H9138 0.950 . S
C9150 C9149 1.398 . S
C9150 C9151 1.391 . S
C9151 H9139 0.950 . S
C9151 C9147 1.393 . S
C9151 C9150 1.391 . S
H9152 C9160 0.950 . S
H9153 C9165 0.950 . S
H9154 C9162 0.950 . S
H9155 C9164 0.950 . S
H9156 C9166 0.950 . S
H9157 C9168 0.950 . S
H9158 C9170 0.950 . S
H9159 C9171 0.950 . S
C9160 H9152 0.950 . S
C9160 C9161 1.386 . S
C9160 C9162 1.391 . S
C9161 C9160 1.386 . S
C9161 C9165 1.393 . S
C9162 H9154 0.950 . S
C9162 C9160 1.391 . S
C9162 C9163 1.400 . S
C9163 C9162 1.400 . S
C9163 C9164 1.398 . S
C9163 C9169 1.491 . S
C9164 H9155 0.950 . S
C9164 C9163 1.398 . S
C9164 C9165 1.391 . S
C9165 H9153 0.950 . S
C9165 C9161 1.393 . S
C9165 C9164 1.391 . S
C9166 H9156 0.950 . S
C9166 C9167 1.386 . S
C9166 C9168 1.391 . S
C9167 C9166 1.386 . S
C9167 C9171 1.393 . S
C9168 H9157 0.950 . S
C9168 C9166 1.391 . S
C9168 C9169 1.400 . S
C9169 C9163 1.491 . S
C9169 C9168 1.400 . S
C9169 C9170 1.398 . S
C9170 H9158 0.950 . S
C9170 C9169 1.398 . S
C9170 C9171 1.391 . S
C9171 H9159 0.950 . S
C9171 C9167 1.393 . S
C9171 C9170 1.391 . S
H9172 C9180 0.950 . S
H9173 C9185 0.950 . S
H9174 C9182 0.950 . S
H9175 C9184 0.950 . S
H9176 C9186 0.950 . S
H9177 C9188 0.950 . S
H9178 C9190 0.950 . S
H9179 C9191 0.950 . S
C9180 H9172 0.950 . S
C9180 C9181 1.386 . S
C9180 C9182 1.391 . S
C9181 C9180 1.386 . S
C9181 C9185 1.393 . S
C9182 H9174 0.950 . S
C9182 C9180 1.391 . S
C9182 C9183 1.400 . S
C9183 C9182 1.400 . S
C9183 C9184 1.398 . S
C9183 C9189 1.491 . S
C9184 H9175 0.950 . S
C9184 C9183 1.398 . S
C9184 C9185 1.391 . S
C9185 H9173 0.950 . S
C9185 C9181 1.393 . S
C9185 C9184 1.391 . S
C9186 H9176 0.950 . S
C9186 C9187 1.386 . S
C9186 C9188 1.391 . S
C9187 C9186 1.386 . S
C9187 C9191 1.393 . S
C9188 H9177 0.950 . S
C9188 C9186 1.391 . S
C9188 C9189 1.400 . S
C9189 C9183 1.491 . S
C9189 C9188 1.400 . S
C9189 C9190 1.398 . S
C9190 H9178 0.950 . S
C9190 C9189 1.398 . S
C9190 C9191 1.391 . S
C9191 H9179 0.950 . S
C9191 C9187 1.393 . S
C9191 C9190 1.391 . S
H9192 C9200 0.950 . S
H9193 C9205 0.950 . S
H9194 C9202 0.950 . S
H9195 C9204 0.950 . S
H9196 C9206 0.950 . S
H9197 C9208 0.950 . S
H9198 C9210 0.950 . S
H9199 C9211 0.950 . S
C9200 H9192 0.950 . S
C9200 C9201 1.386 . S
C9200 C9202 1.391 . S
C9201 C9200 1.386 . S
C9201 C9205 1.393 . S
C9202 H9194 0.950 . S
C9202 C9200 1.391 . S
C9202 C9203 1.400 . S
C9203 C9202 1.400 . S
C9203 C9204 1.398 . S
C9203 C9209 1.491 . S
C9204 H9195 0.950 . S
C9204 C9203 1.398 . S
C9204 C9205 1.391 . S
C9205 H9193 0.950 . S
C9205 C9201 1.393 . S
C9205 C9204 1.391 . S
C9206 H9196 0.950 . S
C9206 C9207 1.386 . S
C9206 C9208 1.391 . S
C9207 C9206 1.386 . S
C9207 C9211 1.393 . S
C9208 H9197 0.950 . S
C9208 C9206 1.391 . S
C9208 C9209 1.400 . S
C9209 C9203 1.491 . S
C9209 C9208 1.400 . S
C9209 C9210 1.398 . S
C9210 H9198 0.950 . S
C9210 C9209 1.398 . S
C9210 C9211 1.391 . S
C9211 H9199 0.950 . S
C9211 C9207 1.393 . S
C9211 C9210 1.391 . S
H9212 C9220 0.950 . S
H9213 C9225 0.950 . S
H9214 C9222 0.950 . S
H9215 C9224 0.950 . S
H9216 C9226 0.950 . S
H9217 C9228 0.950 . S
H9218 C9230 0.950 . S
H9219 C9231 0.950 . S
C9220 H9212 0.950 . S
C9220 C9221 1.386 . S
C9220 C9222 1.391 . S
C9221 C9220 1.386 . S
C9221 C9225 1.393 . S
C9222 H9214 0.950 . S
C9222 C9220 1.391 . S
C9222 C9223 1.400 . S
C9223 C9222 1.400 . S
C9223 C9224 1.398 . S
C9223 C9229 1.491 . S
C9224 H9215 0.950 . S
C9224 C9223 1.398 . S
C9224 C9225 1.391 . S
C9225 H9213 0.950 . S
C9225 C9221 1.393 . S
C9225 C9224 1.391 . S
C9226 H9216 0.950 . S
C9226 C9227 1.386 . S
C9226 C9228 1.391 . S
C9227 C9226 1.386 . S
C9227 C9231 1.393 . S
C9228 H9217 0.950 . S
C9228 C9226 1.391 . S
C9228 C9229 1.400 . S
C9229 C9223 1.491 . S
C9229 C9228 1.400 . S
C9229 C9230 1.398 . S
C9230 H9218 0.950 . S
C9230 C9229 1.398 . S
C9230 C9231 1.391 . S
C9231 H9219 0.950 . S
C9231 C9227 1.393 . S
C9231 C9230 1.391 . S
H9232 C9240 0.950 . S
H9233 C9245 0.950 . S
H9234 C9242 0.950 . S
H9235 C9244 0.950 . S
H9236 C9246 0.950 . S
H9237 C9248 0.950 . S
H9238 C9250 0.950 . S
H9239 C9251 0.950 . S
C9240 H9232 0.950 . S
C9240 C9241 1.386 . S
C9240 C9242 1.391 . S
C9241 C9240 1.386 . S
C9241 C9245 1.393 . S
C9242 H9234 0.950 . S
C9242 C9240 1.391 . S
C9242 C9243 1.400 . S
C9243 C9242 1.400 . S
C9243 C9244 1.398 . S
C9243 C9249 1.491 . S
C9244 H9235 0.950 . S
C9244 C9243 1.398 . S
C9244 C9245 1.391 . S
C9245 H9233 0.950 . S
C9245 C9241 1.393 . S
C9245 C9244 1.391 . S
C9246 H9236 0.950 . S
C9246 C9247 1.386 . S
C9246 C9248 1.391 . S
C9247 C9246 1.386 . S
C9247 C9251 1.393 . S
C9248 H9237 0.950 . S
C9248 C9246 1.391 . S
C9248 C9249 1.400 . S
C9249 C9243 1.491 . S
C9249 C9248 1.400 . S
C9249 C9250 1.398 . S
C9250 H9238 0.950 . S
C9250 C9249 1.398 . S
C9250 C9251 1.391 . S
C9251 H9239 0.950 . S
C9251 C9247 1.393 . S
C9251 C9250 1.391 . S
H9252 C9260 0.950 . S
H9253 C9265 0.950 . S
H9254 C9262 0.950 . S
H9255 C9264 0.950 . S
H9256 C9266 0.950 . S
H9257 C9268 0.950 . S
H9258 C9270 0.950 . S
H9259 C9271 0.950 . S
C9260 H9252 0.950 . S
C9260 C9261 1.386 . S
C9260 C9262 1.391 . S
C9261 C9260 1.386 . S
C9261 C9265 1.393 . S
C9262 H9254 0.950 . S
C9262 C9260 1.391 . S
C9262 C9263 1.400 . S
C9263 C9262 1.400 . S
C9263 C9264 1.398 . S
C9263 C9269 1.491 . S
C9264 H9255 0.950 . S
C9264 C9263 1.398 . S
C9264 C9265 1.391 . S
C9265 H9253 0.950 . S
C9265 C9261 1.393 . S
C9265 C9264 1.391 . S
C9266 H9256 0.950 . S
C9266 C9267 1.386 . S
C9266 C9268 1.391 . S
C9267 C9266 1.386 . S
C9267 C9271 1.393 . S
C9268 H9257 0.950 . S
C9268 C9266 1.391 . S
C9268 C9269 1.400 . S
C9269 C9263 1.491 . S
C9269 C9268 1.400 . S
C9269 C9270 1.398 . S
C9270 H9258 0.950 . S
C9270 C9269 1.398 . S
C9270 C9271 1.391 . S
C9271 H9259 0.950 . S
C9271 C9267 1.393 . S
C9271 C9270 1.391 . S
H9272 C9280 0.950 . S
H9273 C9285 0.950 . S
H9274 C9282 0.950 . S
H9275 C9284 0.950 . S
H9276 C9286 0.950 . S
H9277 C9288 0.950 . S
H9278 C9290 0.950 . S
H9279 C9291 0.950 . S
C9280 H9272 0.950 . S
C9280 C9281 1.386 . S
C9280 C9282 1.391 . S
C9281 C9280 1.386 . S
C9281 C9285 1.393 . S
C9282 H9274 0.950 . S
C9282 C9280 1.391 . S
C9282 C9283 1.400 . S
C9283 C9282 1.400 . S
C9283 C9284 1.398 . S
C9283 C9289 1.491 . S
C9284 H9275 0.950 . S
C9284 C9283 1.398 . S
C9284 C9285 1.391 . S
C9285 H9273 0.950 . S
C9285 C9281 1.393 . S
C9285 C9284 1.391 . S
C9286 H9276 0.950 . S
C9286 C9287 1.386 . S
C9286 C9288 1.391 . S
C9287 C9286 1.386 . S
C9287 C9291 1.393 . S
C9288 H9277 0.950 . S
C9288 C9286 1.391 . S
C9288 C9289 1.400 . S
C9289 C9283 1.491 . S
C9289 C9288 1.400 . S
C9289 C9290 1.398 . S
C9290 H9278 0.950 . S
C9290 C9289 1.398 . S
C9290 C9291 1.391 . S
C9291 H9279 0.950 . S
C9291 C9287 1.393 . S
C9291 C9290 1.391 . S
H9292 C9300 0.950 . S
H9293 C9305 0.950 . S
H9294 C9302 0.950 . S
H9295 C9304 0.950 . S
H9296 C9306 0.950 . S
H9297 C9308 0.950 . S
H9298 C9310 0.950 . S
H9299 C9311 0.950 . S
C9300 H9292 0.950 . S
C9300 C9301 1.386 . S
C9300 C9302 1.391 . S
C9301 C9300 1.386 . S
C9301 C9305 1.393 . S
C9302 H9294 0.950 . S
C9302 C9300 1.391 . S
C9302 C9303 1.400 . S
C9303 C9302 1.400 . S
C9303 C9304 1.398 . S
C9303 C9309 1.491 . S
C9304 H9295 0.950 . S
C9304 C9303 1.398 . S
C9304 C9305 1.391 . S
C9305 H9293 0.950 . S
C9305 C9301 1.393 . S
C9305 C9304 1.391 . S
C9306 H9296 0.950 . S
C9306 C9307 1.386 . S
C9306 C9308 1.391 . S
C9307 C9306 1.386 . S
C9307 C9311 1.393 . S
C9308 H9297 0.950 . S
C9308 C9306 1.391 . S
C9308 C9309 1.400 . S
C9309 C9303 1.491 . S
C9309 C9308 1.400 . S
C9309 C9310 1.398 . S
C9310 H9298 0.950 . S
C9310 C9309 1.398 . S
C9310 C9311 1.391 . S
C9311 H9299 0.950 . S
C9311 C9307 1.393 . S
C9311 C9310 1.391 . S
H9312 C9320 0.950 . S
H9313 C9325 0.950 . S
H9314 C9322 0.950 . S
H9315 C9324 0.950 . S
H9316 C9326 0.950 . S
H9317 C9328 0.950 . S
H9318 C9330 0.950 . S
H9319 C9331 0.950 . S
C9320 H9312 0.950 . S
C9320 C9321 1.386 . S
C9320 C9322 1.391 . S
C9321 C9320 1.386 . S
C9321 C9325 1.393 . S
C9322 H9314 0.950 . S
C9322 C9320 1.391 . S
C9322 C9323 1.400 . S
C9323 C9322 1.400 . S
C9323 C9324 1.398 . S
C9323 C9329 1.491 . S
C9324 H9315 0.950 . S
C9324 C9323 1.398 . S
C9324 C9325 1.391 . S
C9325 H9313 0.950 . S
C9325 C9321 1.393 . S
C9325 C9324 1.391 . S
C9326 H9316 0.950 . S
C9326 C9327 1.386 . S
C9326 C9328 1.391 . S
C9327 C9326 1.386 . S
C9327 C9331 1.393 . S
C9328 H9317 0.950 . S
C9328 C9326 1.391 . S
C9328 C9329 1.400 . S
C9329 C9323 1.491 . S
C9329 C9328 1.400 . S
C9329 C9330 1.398 . S
C9330 H9318 0.950 . S
C9330 C9329 1.398 . S
C9330 C9331 1.391 . S
C9331 H9319 0.950 . S
C9331 C9327 1.393 . S
C9331 C9330 1.391 . S
H9332 C9340 0.950 . S
H9333 C9345 0.950 . S
H9334 C9342 0.950 . S
H9335 C9344 0.950 . S
H9336 C9346 0.950 . S
H9337 C9348 0.950 . S
H9338 C9350 0.950 . S
H9339 C9351 0.950 . S
C9340 H9332 0.950 . S
C9340 C9341 1.386 . S
C9340 C9342 1.391 . S
C9341 C9340 1.386 . S
C9341 C9345 1.393 . S
C9342 H9334 0.950 . S
C9342 C9340 1.391 . S
C9342 C9343 1.400 . S
C9343 C9342 1.400 . S
C9343 C9344 1.398 . S
C9343 C9349 1.491 . S
C9344 H9335 0.950 . S
C9344 C9343 1.398 . S
C9344 C9345 1.391 . S
C9345 H9333 0.950 . S
C9345 C9341 1.393 . S
C9345 C9344 1.391 . S
C9346 H9336 0.950 . S
C9346 C9347 1.386 . S
C9346 C9348 1.391 . S
C9347 C9346 1.386 . S
C9347 C9351 1.393 . S
C9348 H9337 0.950 . S
C9348 C9346 1.391 . S
C9348 C9349 1.400 . S
C9349 C9343 1.491 . S
C9349 C9348 1.400 . S
C9349 C9350 1.398 . S
C9350 H9338 0.950 . S
C9350 C9349 1.398 . S
C9350 C9351 1.391 . S
C9351 H9339 0.950 . S
C9351 C9347 1.393 . S
C9351 C9350 1.391 . S
H9352 C9360 0.950 . S
H9353 C9365 0.950 . S
H9354 C9362 0.950 . S
H9355 C9364 0.950 . S
H9356 C9366 0.950 . S
H9357 C9368 0.950 . S
H9358 C9370 0.950 . S
H9359 C9371 0.950 . S
C9360 H9352 0.950 . S
C9360 C9361 1.386 . S
C9360 C9362 1.391 . S
C9361 C9360 1.386 . S
C9361 C9365 1.393 . S
C9362 H9354 0.950 . S
C9362 C9360 1.391 . S
C9362 C9363 1.400 . S
C9363 C9362 1.400 . S
C9363 C9364 1.398 . S
C9363 C9369 1.491 . S
C9364 H9355 0.950 . S
C9364 C9363 1.398 . S
C9364 C9365 1.391 . S
C9365 H9353 0.950 . S
C9365 C9361 1.393 . S
C9365 C9364 1.391 . S
C9366 H9356 0.950 . S
C9366 C9367 1.386 . S
C9366 C9368 1.391 . S
C9367 C9366 1.386 . S
C9367 C9371 1.393 . S
C9368 H9357 0.950 . S
C9368 C9366 1.391 . S
C9368 C9369 1.400 . S
C9369 C9363 1.491 . S
C9369 C9368 1.400 . S
C9369 C9370 1.398 . S
C9370 H9358 0.950 . S
C9370 C9369 1.398 . S
C9370 C9371 1.391 . S
C9371 H9359 0.950 . S
C9371 C9367 1.393 . S
C9371 C9370 1.391 . S
H9372 C9380 0.950 . S
H9373 C9385 0.950 . S
H9374 C9382 0.950 . S
H9375 C9384 0.950 . S
H9376 C9386 0.950 . S
H9377 C9388 0.950 . S
H9378 C9390 0.950 . S
H9379 C9391 0.950 . S
C9380 H9372 0.950 . S
C9380 C9381 1.386 . S
C9380 C9382 1.391 . S
C9381 C9380 1.386 . S
C9381 C9385 1.393 . S
C9382 H9374 0.950 . S
C9382 C9380 1.391 . S
C9382 C9383 1.400 . S
C9383 C9382 1.400 . S
C9383 C9384 1.398 . S
C9383 C9389 1.491 . S
C9384 H9375 0.950 . S
C9384 C9383 1.398 . S
C9384 C9385 1.391 . S
C9385 H9373 0.950 . S
C9385 C9381 1.393 . S
C9385 C9384 1.391 . S
C9386 H9376 0.950 . S
C9386 C9387 1.386 . S
C9386 C9388 1.391 . S
C9387 C9386 1.386 . S
C9387 C9391 1.393 . S
C9388 H9377 0.950 . S
C9388 C9386 1.391 . S
C9388 C9389 1.400 . S
C9389 C9383 1.491 . S
C9389 C9388 1.400 . S
C9389 C9390 1.398 . S
C9390 H9378 0.950 . S
C9390 C9389 1.398 . S
C9390 C9391 1.391 . S
C9391 H9379 0.950 . S
C9391 C9387 1.393 . S
C9391 C9390 1.391 . S
H9392 C9400 0.950 . S
H9393 C9405 0.950 . S
H9394 C9402 0.950 . S
H9395 C9404 0.950 . S
H9396 C9406 0.950 . S
H9397 C9408 0.950 . S
H9398 C9410 0.950 . S
H9399 C9411 0.950 . S
C9400 H9392 0.950 . S
C9400 C9401 1.386 . S
C9400 C9402 1.391 . S
C9401 C9400 1.386 . S
C9401 C9405 1.393 . S
C9402 H9394 0.950 . S
C9402 C9400 1.391 . S
C9402 C9403 1.400 . S
C9403 C9402 1.400 . S
C9403 C9404 1.398 . S
C9403 C9409 1.491 . S
C9404 H9395 0.950 . S
C9404 C9403 1.398 . S
C9404 C9405 1.391 . S
C9405 H9393 0.950 . S
C9405 C9401 1.393 . S
C9405 C9404 1.391 . S
C9406 H9396 0.950 . S
C9406 C9407 1.386 . S
C9406 C9408 1.391 . S
C9407 C9406 1.386 . S
C9407 C9411 1.393 . S
C9408 H9397 0.950 . S
C9408 C9406 1.391 . S
C9408 C9409 1.400 . S
C9409 C9403 1.491 . S
C9409 C9408 1.400 . S
C9409 C9410 1.398 . S
C9410 H9398 0.950 . S
C9410 C9409 1.398 . S
C9410 C9411 1.391 . S
C9411 H9399 0.950 . S
C9411 C9407 1.393 . S
C9411 C9410 1.391 . S
H9412 C9420 0.950 . S
H9413 C9425 0.950 . S
H9414 C9422 0.950 . S
H9415 C9424 0.950 . S
H9416 C9426 0.950 . S
H9417 C9428 0.950 . S
H9418 C9430 0.950 . S
H9419 C9431 0.950 . S
C9420 H9412 0.950 . S
C9420 C9421 1.386 . S
C9420 C9422 1.391 . S
C9421 C9420 1.386 . S
C9421 C9425 1.393 . S
C9422 H9414 0.950 . S
C9422 C9420 1.391 . S
C9422 C9423 1.400 . S
C9423 C9422 1.400 . S
C9423 C9424 1.398 . S
C9423 C9429 1.491 . S
C9424 H9415 0.950 . S
C9424 C9423 1.398 . S
C9424 C9425 1.391 . S
C9425 H9413 0.950 . S
C9425 C9421 1.393 . S
C9425 C9424 1.391 . S
C9426 H9416 0.950 . S
C9426 C9427 1.386 . S
C9426 C9428 1.391 . S
C9427 C9426 1.386 . S
C9427 C9431 1.393 . S
C9428 H9417 0.950 . S
C9428 C9426 1.391 . S
C9428 C9429 1.400 . S
C9429 C9423 1.491 . S
C9429 C9428 1.400 . S
C9429 C9430 1.398 . S
C9430 H9418 0.950 . S
C9430 C9429 1.398 . S
C9430 C9431 1.391 . S
C9431 H9419 0.950 . S
C9431 C9427 1.393 . S
C9431 C9430 1.391 . S
H9432 C9440 0.950 . S
H9433 C9445 0.950 . S
H9434 C9442 0.950 . S
H9435 C9444 0.950 . S
H9436 C9446 0.950 . S
H9437 C9448 0.950 . S
H9438 C9450 0.950 . S
H9439 C9451 0.950 . S
C9440 H9432 0.950 . S
C9440 C9441 1.386 . S
C9440 C9442 1.391 . S
C9441 C9440 1.386 . S
C9441 C9445 1.393 . S
C9442 H9434 0.950 . S
C9442 C9440 1.391 . S
C9442 C9443 1.400 . S
C9443 C9442 1.400 . S
C9443 C9444 1.398 . S
C9443 C9449 1.491 . S
C9444 H9435 0.950 . S
C9444 C9443 1.398 . S
C9444 C9445 1.391 . S
C9445 H9433 0.950 . S
C9445 C9441 1.393 . S
C9445 C9444 1.391 . S
C9446 H9436 0.950 . S
C9446 C9447 1.386 . S
C9446 C9448 1.391 . S
C9447 C9446 1.386 . S
C9447 C9451 1.393 . S
C9448 H9437 0.950 . S
C9448 C9446 1.391 . S
C9448 C9449 1.400 . S
C9449 C9443 1.491 . S
C9449 C9448 1.400 . S
C9449 C9450 1.398 . S
C9450 H9438 0.950 . S
C9450 C9449 1.398 . S
C9450 C9451 1.391 . S
C9451 H9439 0.950 . S
C9451 C9447 1.393 . S
C9451 C9450 1.391 . S
H9452 C9460 0.950 . S
H9453 C9465 0.950 . S
H9454 C9462 0.950 . S
H9455 C9464 0.950 . S
H9456 C9466 0.950 . S
H9457 C9468 0.950 . S
H9458 C9470 0.950 . S
H9459 C9471 0.950 . S
C9460 H9452 0.950 . S
C9460 C9461 1.386 . S
C9460 C9462 1.391 . S
C9461 C9460 1.386 . S
C9461 C9465 1.393 . S
C9462 H9454 0.950 . S
C9462 C9460 1.391 . S
C9462 C9463 1.400 . S
C9463 C9462 1.400 . S
C9463 C9464 1.398 . S
C9463 C9469 1.491 . S
C9464 H9455 0.950 . S
C9464 C9463 1.398 . S
C9464 C9465 1.391 . S
C9465 H9453 0.950 . S
C9465 C9461 1.393 . S
C9465 C9464 1.391 . S
C9466 H9456 0.950 . S
C9466 C9467 1.386 . S
C9466 C9468 1.391 . S
C9467 C9466 1.386 . S
C9467 C9471 1.393 . S
C9468 H9457 0.950 . S
C9468 C9466 1.391 . S
C9468 C9469 1.400 . S
C9469 C9463 1.491 . S
C9469 C9468 1.400 . S
C9469 C9470 1.398 . S
C9470 H9458 0.950 . S
C9470 C9469 1.398 . S
C9470 C9471 1.391 . S
C9471 H9459 0.950 . S
C9471 C9467 1.393 . S
C9471 C9470 1.391 . S
H9472 C9480 0.950 . S
H9473 C9485 0.950 . S
H9474 C9482 0.950 . S
H9475 C9484 0.950 . S
H9476 C9486 0.950 . S
H9477 C9488 0.950 . S
H9478 C9490 0.950 . S
H9479 C9491 0.950 . S
C9480 H9472 0.950 . S
C9480 C9481 1.386 . S
C9480 C9482 1.391 . S
C9481 C9480 1.386 . S
C9481 C9485 1.393 . S
C9482 H9474 0.950 . S
C9482 C9480 1.391 . S
C9482 C9483 1.400 . S
C9483 C9482 1.400 . S
C9483 C9484 1.398 . S
C9483 C9489 1.491 . S
C9484 H9475 0.950 . S
C9484 C9483 1.398 . S
C9484 C9485 1.391 . S
C9485 H9473 0.950 . S
C9485 C9481 1.393 . S
C9485 C9484 1.391 . S
C9486 H9476 0.950 . S
C9486 C9487 1.386 . S
C9486 C9488 1.391 . S
C9487 C9486 1.386 . S
C9487 C9491 1.393 . S
C9488 H9477 0.950 . S
C9488 C9486 1.391 . S
C9488 C9489 1.400 . S
C9489 C9483 1.491 . S
C9489 C9488 1.400 . S
C9489 C9490 1.398 . S
C9490 H9478 0.950 . S
C9490 C9489 1.398 . S
C9490 C9491 1.391 . S
C9491 H9479 0.950 . S
C9491 C9487 1.393 . S
C9491 C9490 1.391 . S
H9492 C9500 0.950 . S
H9493 C9505 0.950 . S
H9494 C9502 0.950 . S
H9495 C9504 0.950 . S
H9496 C9506 0.950 . S
H9497 C9508 0.950 . S
H9498 C9510 0.950 . S
H9499 C9511 0.950 . S
C9500 H9492 0.950 . S
C9500 C9501 1.386 . S
C9500 C9502 1.391 . S
C9501 C9500 1.386 . S
C9501 C9505 1.393 . S
C9502 H9494 0.950 . S
C9502 C9500 1.391 . S
C9502 C9503 1.400 . S
C9503 C9502 1.400 . S
C9503 C9504 1.398 . S
C9503 C9509 1.491 . S
C9504 H9495 0.950 . S
C9504 C9503 1.398 . S
C9504 C9505 1.391 . S
C9505 H9493 0.950 . S
C9505 C9501 1.393 . S
C9505 C9504 1.391 . S
C9506 H9496 0.950 . S
C9506 C9507 1.386 . S
C9506 C9508 1.391 . S
C9507 C9506 1.386 . S
C9507 C9511 1.393 . S
C9508 H9497 0.950 . S
C9508 C9506 1.391 . S
C9508 C9509 1.400 . S
C9509 C9503 1.491 . S
C9509 C9508 1.400 . S
C9509 C9510 1.398 . S
C9510 H9498 0.950 . S
C9510 C9509 1.398 . S
C9510 C9511 1.391 . S
C9511 H9499 0.950 . S
C9511 C9507 1.393 . S
C9511 C9510 1.391 . S
H9512 C9520 0.950 . S
H9513 C9525 0.950 . S
H9514 C9522 0.950 . S
H9515 C9524 0.950 . S
H9516 C9526 0.950 . S
H9517 C9528 0.950 . S
H9518 C9530 0.950 . S
H9519 C9531 0.950 . S
C9520 H9512 0.950 . S
C9520 C9521 1.386 . S
C9520 C9522 1.391 . S
C9521 C9520 1.386 . S
C9521 C9525 1.393 . S
C9522 H9514 0.950 . S
C9522 C9520 1.391 . S
C9522 C9523 1.400 . S
C9523 C9522 1.400 . S
C9523 C9524 1.398 . S
C9523 C9529 1.491 . S
C9524 H9515 0.950 . S
C9524 C9523 1.398 . S
C9524 C9525 1.391 . S
C9525 H9513 0.950 . S
C9525 C9521 1.393 . S
C9525 C9524 1.391 . S
C9526 H9516 0.950 . S
C9526 C9527 1.386 . S
C9526 C9528 1.391 . S
C9527 C9526 1.386 . S
C9527 C9531 1.393 . S
C9528 H9517 0.950 . S
C9528 C9526 1.391 . S
C9528 C9529 1.400 . S
C9529 C9523 1.491 . S
C9529 C9528 1.400 . S
C9529 C9530 1.398 . S
C9530 H9518 0.950 . S
C9530 C9529 1.398 . S
C9530 C9531 1.391 . S
C9531 H9519 0.950 . S
C9531 C9527 1.393 . S
C9531 C9530 1.391 . S
H9532 C9540 0.950 . S
H9533 C9545 0.950 . S
H9534 C9542 0.950 . S
H9535 C9544 0.950 . S
H9536 C9546 0.950 . S
H9537 C9548 0.950 . S
H9538 C9550 0.950 . S
H9539 C9551 0.950 . S
C9540 H9532 0.950 . S
C9540 C9541 1.386 . S
C9540 C9542 1.391 . S
C9541 C9540 1.386 . S
C9541 C9545 1.393 . S
C9542 H9534 0.950 . S
C9542 C9540 1.391 . S
C9542 C9543 1.400 . S
C9543 C9542 1.400 . S
C9543 C9544 1.398 . S
C9543 C9549 1.491 . S
C9544 H9535 0.950 . S
C9544 C9543 1.398 . S
C9544 C9545 1.391 . S
C9545 H9533 0.950 . S
C9545 C9541 1.393 . S
C9545 C9544 1.391 . S
C9546 H9536 0.950 . S
C9546 C9547 1.386 . S
C9546 C9548 1.391 . S
C9547 C9546 1.386 . S
C9547 C9551 1.393 . S
C9548 H9537 0.950 . S
C9548 C9546 1.391 . S
C9548 C9549 1.400 . S
C9549 C9543 1.491 . S
C9549 C9548 1.400 . S
C9549 C9550 1.398 . S
C9550 H9538 0.950 . S
C9550 C9549 1.398 . S
C9550 C9551 1.391 . S
C9551 H9539 0.950 . S
C9551 C9547 1.393 . S
C9551 C9550 1.391 . S
H9552 C9560 0.950 . S
H9553 C9565 0.950 . S
H9554 C9562 0.950 . S
H9555 C9564 0.950 . S
H9556 C9566 0.950 . S
H9557 C9568 0.950 . S
H9558 C9570 0.950 . S
H9559 C9571 0.950 . S
C9560 H9552 0.950 . S
C9560 C9561 1.386 . S
C9560 C9562 1.391 . S
C9561 C9560 1.386 . S
C9561 C9565 1.393 . S
C9562 H9554 0.950 . S
C9562 C9560 1.391 . S
C9562 C9563 1.400 . S
C9563 C9562 1.400 . S
C9563 C9564 1.398 . S
C9563 C9569 1.491 . S
C9564 H9555 0.950 . S
C9564 C9563 1.398 . S
C9564 C9565 1.391 . S
C9565 H9553 0.950 . S
C9565 C9561 1.393 . S
C9565 C9564 1.391 . S
C9566 H9556 0.950 . S
C9566 C9567 1.386 . S
C9566 C9568 1.391 . S
C9567 C9566 1.386 . S
C9567 C9571 1.393 . S
C9568 H9557 0.950 . S
C9568 C9566 1.391 . S
C9568 C9569 1.400 . S
C9569 C9563 1.491 . S
C9569 C9568 1.400 . S
C9569 C9570 1.398 . S
C9570 H9558 0.950 . S
C9570 C9569 1.398 . S
C9570 C9571 1.391 . S
C9571 H9559 0.950 . S
C9571 C9567 1.393 . S
C9571 C9570 1.391 . S
H9572 C9580 0.950 . S
H9573 C9585 0.950 . S
H9574 C9582 0.950 . S
H9575 C9584 0.950 . S
H9576 C9586 0.950 . S
H9577 C9588 0.950 . S
H9578 C9590 0.950 . S
H9579 C9591 0.950 . S
C9580 H9572 0.950 . S
C9580 C9581 1.386 . S
C9580 C9582 1.391 . S
C9581 C9580 1.386 . S
C9581 C9585 1.393 . S
C9582 H9574 0.950 . S
C9582 C9580 1.391 . S
C9582 C9583 1.400 . S
C9583 C9582 1.400 . S
C9583 C9584 1.398 . S
C9583 C9589 1.491 . S
C9584 H9575 0.950 . S
C9584 C9583 1.398 . S
C9584 C9585 1.391 . S
C9585 H9573 0.950 . S
C9585 C9581 1.393 . S
C9585 C9584 1.391 . S
C9586 H9576 0.950 . S
C9586 C9587 1.386 . S
C9586 C9588 1.391 . S
C9587 C9586 1.386 . S
C9587 C9591 1.393 . S
C9588 H9577 0.950 . S
C9588 C9586 1.391 . S
C9588 C9589 1.400 . S
C9589 C9583 1.491 . S
C9589 C9588 1.400 . S
C9589 C9590 1.398 . S
C9590 H9578 0.950 . S
C9590 C9589 1.398 . S
C9590 C9591 1.391 . S
C9591 H9579 0.950 . S
C9591 C9587 1.393 . S
C9591 C9590 1.391 . S
H9592 C9600 0.950 . S
H9593 C9605 0.950 . S
H9594 C9602 0.950 . S
H9595 C9604 0.950 . S
H9596 C9606 0.950 . S
H9597 C9608 0.950 . S
H9598 C9610 0.950 . S
H9599 C9611 0.950 . S
C9600 H9592 0.950 . S
C9600 C9601 1.386 . S
C9600 C9602 1.391 . S
C9601 C9600 1.386 . S
C9601 C9605 1.393 . S
C9602 H9594 0.950 . S
C9602 C9600 1.391 . S
C9602 C9603 1.400 . S
C9603 C9602 1.400 . S
C9603 C9604 1.398 . S
C9603 C9609 1.491 . S
C9604 H9595 0.950 . S
C9604 C9603 1.398 . S
C9604 C9605 1.391 . S
C9605 H9593 0.950 . S
C9605 C9601 1.393 . S
C9605 C9604 1.391 . S
C9606 H9596 0.950 . S
C9606 C9607 1.386 . S
C9606 C9608 1.391 . S
C9607 C9606 1.386 . S
C9607 C9611 1.393 . S
C9608 H9597 0.950 . S
C9608 C9606 1.391 . S
C9608 C9609 1.400 . S
C9609 C9603 1.491 . S
C9609 C9608 1.400 . S
C9609 C9610 1.398 . S
C9610 H9598 0.950 . S
C9610 C9609 1.398 . S
C9610 C9611 1.391 . S
C9611 H9599 0.950 . S
C9611 C9607 1.393 . S
C9611 C9610 1.391 . S
H9612 C9620 0.950 . S
H9613 C9625 0.950 . S
H9614 C9622 0.950 . S
H9615 C9624 0.950 . S
H9616 C9626 0.950 . S
H9617 C9628 0.950 . S
H9618 C9630 0.950 . S
H9619 C9631 0.950 . S
C9620 H9612 0.950 . S
C9620 C9621 1.386 . S
C9620 C9622 1.391 . S
C9621 C9620 1.386 . S
C9621 C9625 1.393 . S
C9622 H9614 0.950 . S
C9622 C9620 1.391 . S
C9622 C9623 1.400 . S
C9623 C9622 1.400 . S
C9623 C9624 1.398 . S
C9623 C9629 1.491 . S
C9624 H9615 0.950 . S
C9624 C9623 1.398 . S
C9624 C9625 1.391 . S
C9625 H9613 0.950 . S
C9625 C9621 1.393 . S
C9625 C9624 1.391 . S
C9626 H9616 0.950 . S
C9626 C9627 1.386 . S
C9626 C9628 1.391 . S
C9627 C9626 1.386 . S
C9627 C9631 1.393 . S
C9628 H9617 0.950 . S
C9628 C9626 1.391 . S
C9628 C9629 1.400 . S
C9629 C9623 1.491 . S
C9629 C9628 1.400 . S
C9629 C9630 1.398 . S
C9630 H9618 0.950 . S
C9630 C9629 1.398 . S
C9630 C9631 1.391 . S
C9631 H9619 0.950 . S
C9631 C9627 1.393 . S
C9631 C9630 1.391 . S
H9632 C9640 0.950 . S
H9633 C9645 0.950 . S
H9634 C9642 0.950 . S
H9635 C9644 0.950 . S
H9636 C9646 0.950 . S
H9637 C9648 0.950 . S
H9638 C9650 0.950 . S
H9639 C9651 0.950 . S
C9640 H9632 0.950 . S
C9640 C9641 1.386 . S
C9640 C9642 1.391 . S
C9641 C9640 1.386 . S
C9641 C9645 1.393 . S
C9642 H9634 0.950 . S
C9642 C9640 1.391 . S
C9642 C9643 1.400 . S
C9643 C9642 1.400 . S
C9643 C9644 1.398 . S
C9643 C9649 1.491 . S
C9644 H9635 0.950 . S
C9644 C9643 1.398 . S
C9644 C9645 1.391 . S
C9645 H9633 0.950 . S
C9645 C9641 1.393 . S
C9645 C9644 1.391 . S
C9646 H9636 0.950 . S
C9646 C9647 1.386 . S
C9646 C9648 1.391 . S
C9647 C9646 1.386 . S
C9647 C9651 1.393 . S
C9648 H9637 0.950 . S
C9648 C9646 1.391 . S
C9648 C9649 1.400 . S
C9649 C9643 1.491 . S
C9649 C9648 1.400 . S
C9649 C9650 1.398 . S
C9650 H9638 0.950 . S
C9650 C9649 1.398 . S
C9650 C9651 1.391 . S
C9651 H9639 0.950 . S
C9651 C9647 1.393 . S
C9651 C9650 1.391 . S
H9652 C9660 0.950 . S
H9653 C9665 0.950 . S
H9654 C9662 0.950 . S
H9655 C9664 0.950 . S
H9656 C9666 0.950 . S
H9657 C9668 0.950 . S
H9658 C9670 0.950 . S
H9659 C9671 0.950 . S
C9660 H9652 0.950 . S
C9660 C9661 1.386 . S
C9660 C9662 1.391 . S
C9661 C9660 1.386 . S
C9661 C9665 1.393 . S
C9662 H9654 0.950 . S
C9662 C9660 1.391 . S
C9662 C9663 1.400 . S
C9663 C9662 1.400 . S
C9663 C9664 1.398 . S
C9663 C9669 1.491 . S
C9664 H9655 0.950 . S
C9664 C9663 1.398 . S
C9664 C9665 1.391 . S
C9665 H9653 0.950 . S
C9665 C9661 1.393 . S
C9665 C9664 1.391 . S
C9666 H9656 0.950 . S
C9666 C9667 1.386 . S
C9666 C9668 1.391 . S
C9667 C9666 1.386 . S
C9667 C9671 1.393 . S
C9668 H9657 0.950 . S
C9668 C9666 1.391 . S
C9668 C9669 1.400 . S
C9669 C9663 1.491 . S
C9669 C9668 1.400 . S
C9669 C9670 1.398 . S
C9670 H9658 0.950 . S
C9670 C9669 1.398 . S
C9670 C9671 1.391 . S
C9671 H9659 0.950 . S
C9671 C9667 1.393 . S
C9671 C9670 1.391 . S
H9672 C9680 0.950 . S
H9673 C9685 0.950 . S
H9674 C9682 0.950 . S
H9675 C9684 0.950 . S
H9676 C9686 0.950 . S
H9677 C9688 0.950 . S
H9678 C9690 0.950 . S
H9679 C9691 0.950 . S
C9680 H9672 0.950 . S
C9680 C9681 1.386 . S
C9680 C9682 1.391 . S
C9681 C9680 1.386 . S
C9681 C9685 1.393 . S
C9682 H9674 0.950 . S
C9682 C9680 1.391 . S
C9682 C9683 1.400 . S
C9683 C9682 1.400 . S
C9683 C9684 1.398 . S
C9683 C9689 1.491 . S
C9684 H9675 0.950 . S
C9684 C9683 1.398 . S
C9684 C9685 1.391 . S
C9685 H9673 0.950 . S
C9685 C9681 1.393 . S
C9685 C9684 1.391 . S
C9686 H9676 0.950 . S
C9686 C9687 1.386 . S
C9686 C9688 1.391 . S
C9687 C9686 1.386 . S
C9687 C9691 1.393 . S
C9688 H9677 0.950 . S
C9688 C9686 1.391 . S
C9688 C9689 1.400 . S
C9689 C9683 1.491 . S
C9689 C9688 1.400 . S
C9689 C9690 1.398 . S
C9690 H9678 0.950 . S
C9690 C9689 1.398 . S
C9690 C9691 1.391 . S
C9691 H9679 0.950 . S
C9691 C9687 1.393 . S
C9691 C9690 1.391 . S
H9692 C9700 0.950 . S
H9693 C9705 0.950 . S
H9694 C9702 0.950 . S
H9695 C9704 0.950 . S
H9696 C9706 0.950 . S
H9697 C9708 0.950 . S
H9698 C9710 0.950 . S
H9699 C9711 0.950 . S
C9700 H9692 0.950 . S
C9700 C9701 1.386 . S
C9700 C9702 1.391 . S
C9701 C9700 1.386 . S
C9701 C9705 1.393 . S
C9702 H9694 0.950 . S
C9702 C9700 1.391 . S
C9702 C9703 1.400 . S
C9703 C9702 1.400 . S
C9703 C9704 1.398 . S
C9703 C9709 1.491 . S
C9704 H9695 0.950 . S
C9704 C9703 1.398 . S
C9704 C9705 1.391 . S
C9705 H9693 0.950 . S
C9705 C9701 1.393 . S
C9705 C9704 1.391 . S
C9706 H9696 0.950 . S
C9706 C9707 1.386 . S
C9706 C9708 1.391 . S
C9707 C9706 1.386 . S
C9707 C9711 1.393 . S
C9708 H9697 0.950 . S
C9708 C9706 1.391 . S
C9708 C9709 1.400 . S
C9709 C9703 1.491 . S
C9709 C9708 1.400 . S
C9709 C9710 1.398 . S
C9710 H9698 0.950 . S
C9710 C9709 1.398 . S
C9710 C9711 1.391 . S
C9711 H9699 0.950 . S
C9711 C9707 1.393 . S
C9711 C9710 1.391 . S
H9712 C9720 0.950 . S
H9713 C9725 0.950 . S
H9714 C9722 0.950 . S
H9715 C9724 0.950 . S
H9716 C9726 0.950 . S
H9717 C9728 0.950 . S
H9718 C9730 0.950 . S
H9719 C9731 0.950 . S
C9720 H9712 0.950 . S
C9720 C9721 1.386 . S
C9720 C9722 1.391 . S
C9721 C9720 1.386 . S
C9721 C9725 1.393 . S
C9722 H9714 0.950 . S
C9722 C9720 1.391 . S
C9722 C9723 1.400 . S
C9723 C9722 1.400 . S
C9723 C9724 1.398 . S
C9723 C9729 1.491 . S
C9724 H9715 0.950 . S
C9724 C9723 1.398 . S
C9724 C9725 1.391 . S
C9725 H9713 0.950 . S
C9725 C9721 1.393 . S
C9725 C9724 1.391 . S
C9726 H9716 0.950 . S
C9726 C9727 1.386 . S
C9726 C9728 1.391 . S
C9727 C9726 1.386 . S
C9727 C9731 1.393 . S
C9728 H9717 0.950 . S
C9728 C9726 1.391 . S
C9728 C9729 1.400 . S
C9729 C9723 1.491 . S
C9729 C9728 1.400 . S
C9729 C9730 1.398 . S
C9730 H9718 0.950 . S
C9730 C9729 1.398 . S
C9730 C9731 1.391 . S
C9731 H9719 0.950 . S
C9731 C9727 1.393 . S
C9731 C9730 1.391 . S
H9732 C9740 0.950 . S
H9733 C9745 0.950 . S
H9734 C9742 0.950 . S
H9735 C9744 0.950 . S
H9736 C9746 0.950 . S
H9737 C9748 0.950 . S
H9738 C9750 0.950 . S
H9739 C9751 0.950 . S
C9740 H9732 0.950 . S
C9740 C9741 1.386 . S
C9740 C9742 1.391 . S
C9741 C9740 1.386 . S
C9741 C9745 1.393 . S
C9742 H9734 0.950 . S
C9742 C9740 1.391 . S
C9742 C9743 1.400 . S
C9743 C9742 1.400 . S
C9743 C9744 1.398 . S
C9743 C9749 1.491 . S
C9744 H9735 0.950 . S
C9744 C9743 1.398 . S
C9744 C9745 1.391 . S
C9745 H9733 0.950 . S
C9745 C9741 1.393 . S
C9745 C9744 1.391 . S
C9746 H9736 0.950 . S
C9746 C9747 1.386 . S
C9746 C9748 1.391 . S
C9747 C9746 1.386 . S
C9747 C9751 1.393 . S
C9748 H9737 0.950 . S
C9748 C9746 1.391 . S
C9748 C9749 1.400 . S
C9749 C9743 1.491 . S
C9749 C9748 1.400 . S
C9749 C9750 1.398 . S
C9750 H9738 0.950 . S
C9750 C9749 1.398 . S
C9750 C9751 1.391 . S
C9751 H9739 0.950 . S
C9751 C9747 1.393 . S
C9751 C9750 1.391 . S
H9752 C9760 0.950 . S
H9753 C9765 0.950 . S
H9754 C9762 0.950 . S
H9755 C9764 0.950 . S
H9756 C9766 0.950 . S
H9757 C9768 0.950 . S
H9758 C9770 0.950 . S
H9759 C9771 0.950 . S
C9760 H9752 0.950 . S
C9760 C9761 1.386 . S
C9760 C9762 1.391 . S
C9761 C9760 1.386 . S
C9761 C9765 1.393 . S
C9762 H9754 0.950 . S
C9762 C9760 1.391 . S
C9762 C9763 1.400 . S
C9763 C9762 1.400 . S
C9763 C9764 1.398 . S
C9763 C9769 1.491 . S
C9764 H9755 0.950 . S
C9764 C9763 1.398 . S
C9764 C9765 1.391 . S
C9765 H9753 0.950 . S
C9765 C9761 1.393 . S
C9765 C9764 1.391 . S
C9766 H9756 0.950 . S
C9766 C9767 1.386 . S
C9766 C9768 1.391 . S
C9767 C9766 1.386 . S
C9767 C9771 1.393 . S
C9768 H9757 0.950 . S
C9768 C9766 1.391 . S
C9768 C9769 1.400 . S
C9769 C9763 1.491 . S
C9769 C9768 1.400 . S
C9769 C9770 1.398 . S
C9770 H9758 0.950 . S
C9770 C9769 1.398 . S
C9770 C9771 1.391 . S
C9771 H9759 0.950 . S
C9771 C9767 1.393 . S
C9771 C9770 1.391 . S
H9772 C9780 0.950 . S
H9773 C9785 0.950 . S
H9774 C9782 0.950 . S
H9775 C9784 0.950 . S
H9776 C9786 0.950 . S
H9777 C9788 0.950 . S
H9778 C9790 0.950 . S
H9779 C9791 0.950 . S
C9780 H9772 0.950 . S
C9780 C9781 1.386 . S
C9780 C9782 1.391 . S
C9781 C9780 1.386 . S
C9781 C9785 1.393 . S
C9782 H9774 0.950 . S
C9782 C9780 1.391 . S
C9782 C9783 1.400 . S
C9783 C9782 1.400 . S
C9783 C9784 1.398 . S
C9783 C9789 1.491 . S
C9784 H9775 0.950 . S
C9784 C9783 1.398 . S
C9784 C9785 1.391 . S
C9785 H9773 0.950 . S
C9785 C9781 1.393 . S
C9785 C9784 1.391 . S
C9786 H9776 0.950 . S
C9786 C9787 1.386 . S
C9786 C9788 1.391 . S
C9787 C9786 1.386 . S
C9787 C9791 1.393 . S
C9788 H9777 0.950 . S
C9788 C9786 1.391 . S
C9788 C9789 1.400 . S
C9789 C9783 1.491 . S
C9789 C9788 1.400 . S
C9789 C9790 1.398 . S
C9790 H9778 0.950 . S
C9790 C9789 1.398 . S
C9790 C9791 1.391 . S
C9791 H9779 0.950 . S
C9791 C9787 1.393 . S
C9791 C9790 1.391 . S
H9792 C9800 0.950 . S
H9793 C9805 0.950 . S
H9794 C9802 0.950 . S
H9795 C9804 0.950 . S
H9796 C9806 0.950 . S
H9797 C9808 0.950 . S
H9798 C9810 0.950 . S
H9799 C9811 0.950 . S
C9800 H9792 0.950 . S
C9800 C9801 1.386 . S
C9800 C9802 1.391 . S
C9801 C9800 1.386 . S
C9801 C9805 1.393 . S
C9802 H9794 0.950 . S
C9802 C9800 1.391 . S
C9802 C9803 1.400 . S
C9803 C9802 1.400 . S
C9803 C9804 1.398 . S
C9803 C9809 1.491 . S
C9804 H9795 0.950 . S
C9804 C9803 1.398 . S
C9804 C9805 1.391 . S
C9805 H9793 0.950 . S
C9805 C9801 1.393 . S
C9805 C9804 1.391 . S
C9806 H9796 0.950 . S
C9806 C9807 1.386 . S
C9806 C9808 1.391 . S
C9807 C9806 1.386 . S
C9807 C9811 1.393 . S
C9808 H9797 0.950 . S
C9808 C9806 1.391 . S
C9808 C9809 1.400 . S
C9809 C9803 1.491 . S
C9809 C9808 1.400 . S
C9809 C9810 1.398 . S
C9810 H9798 0.950 . S
C9810 C9809 1.398 . S
C9810 C9811 1.391 . S
C9811 H9799 0.950 . S
C9811 C9807 1.393 . S
C9811 C9810 1.391 . S
H9812 C9820 0.950 . S
H9813 C9825 0.950 . S
H9814 C9822 0.950 . S
H9815 C9824 0.950 . S
H9816 C9826 0.950 . S
H9817 C9828 0.950 . S
H9818 C9830 0.950 . S
H9819 C9831 0.950 . S
C9820 H9812 0.950 . S
C9820 C9821 1.386 . S
C9820 C9822 1.391 . S
C9821 C9820 1.386 . S
C9821 C9825 1.393 . S
C9822 H9814 0.950 . S
C9822 C9820 1.391 . S
C9822 C9823 1.400 . S
C9823 C9822 1.400 . S
C9823 C9824 1.398 . S
C9823 C9829 1.491 . S
C9824 H9815 0.950 . S
C9824 C9823 1.398 . S
C9824 C9825 1.391 . S
C9825 H9813 0.950 . S
C9825 C9821 1.393 . S
C9825 C9824 1.391 . S
C9826 H9816 0.950 . S
C9826 C9827 1.386 . S
C9826 C9828 1.391 . S
C9827 C9826 1.386 . S
C9827 C9831 1.393 . S
C9828 H9817 0.950 . S
C9828 C9826 1.391 . S
C9828 C9829 1.400 . S
C9829 C9823 1.491 . S
C9829 C9828 1.400 . S
C9829 C9830 1.398 . S
C9830 H9818 0.950 . S
C9830 C9829 1.398 . S
C9830 C9831 1.391 . S
C9831 H9819 0.950 . S
C9831 C9827 1.393 . S
C9831 C9830 1.391 . S
H9832 C9840 0.950 . S
H9833 C9845 0.950 . S
H9834 C9842 0.950 . S
H9835 C9844 0.950 . S
H9836 C9846 0.950 . S
H9837 C9848 0.950 . S
H9838 C9850 0.950 . S
H9839 C9851 0.950 . S
C9840 H9832 0.950 . S
C9840 C9841 1.386 . S
C9840 C9842 1.391 . S
C9841 C9840 1.386 . S
C9841 C9845 1.393 . S
C9842 H9834 0.950 . S
C9842 C9840 1.391 . S
C9842 C9843 1.400 . S
C9843 C9842 1.400 . S
C9843 C9844 1.398 . S
C9843 C9849 1.491 . S
C9844 H9835 0.950 . S
C9844 C9843 1.398 . S
C9844 C9845 1.391 . S
C9845 H9833 0.950 . S
C9845 C9841 1.393 . S
C9845 C9844 1.391 . S
C9846 H9836 0.950 . S
C9846 C9847 1.386 . S
C9846 C9848 1.391 . S
C9847 C9846 1.386 . S
C9847 C9851 1.393 . S
C9848 H9837 0.950 . S
C9848 C9846 1.391 . S
C9848 C9849 1.400 . S
C9849 C9843 1.491 . S
C9849 C9848 1.400 . S
C9849 C9850 1.398 . S
C9850 H9838 0.950 . S
C9850 C9849 1.398 . S
C9850 C9851 1.391 . S
C9851 H9839 0.950 . S
C9851 C9847 1.393 . S
C9851 C9850 1.391 . S
H9852 C9860 0.950 . S
H9853 C9865 0.950 . S
H9854 C9862 0.950 . S
H9855 C9864 0.950 . S
H9856 C9866 0.950 . S
H9857 C9868 0.950 . S
H9858 C9870 0.950 . S
H9859 C9871 0.950 . S
C9860 H9852 0.950 . S
C9860 C9861 1.386 . S
C9860 C9862 1.391 . S
C9861 C9860 1.386 . S
C9861 C9865 1.393 . S
C9862 H9854 0.950 . S
C9862 C9860 1.391 . S
C9862 C9863 1.400 . S
C9863 C9862 1.400 . S
C9863 C9864 1.398 . S
C9863 C9869 1.491 . S
C9864 H9855 0.950 . S
C9864 C9863 1.398 . S
C9864 C9865 1.391 . S
C9865 H9853 0.950 . S
C9865 C9861 1.393 . S
C9865 C9864 1.391 . S
C9866 H9856 0.950 . S
C9866 C9867 1.386 . S
C9866 C9868 1.391 . S
C9867 C9866 1.386 . S
C9867 C9871 1.393 . S
C9868 H9857 0.950 . S
C9868 C9866 1.391 . S
C9868 C9869 1.400 . S
C9869 C9863 1.491 . S
C9869 C9868 1.400 . S
C9869 C9870 1.398 . S
C9870 H9858 0.950 . S
C9870 C9869 1.398 . S
C9870 C9871 1.391 . S
C9871 H9859 0.950 . S
C9871 C9867 1.393 . S
C9871 C9870 1.391 . S
H9872 C9880 0.950 . S
H9873 C9885 0.950 . S
H9874 C9882 0.950 . S
H9875 C9884 0.950 . S
H9876 C9886 0.950 . S
H9877 C9888 0.950 . S
H9878 C9890 0.950 . S
H9879 C9891 0.950 . S
C9880 H9872 0.950 . S
C9880 C9881 1.386 . S
C9880 C9882 1.391 . S
C9881 C9880 1.386 . S
C9881 C9885 1.393 . S
C9882 H9874 0.950 . S
C9882 C9880 1.391 . S
C9882 C9883 1.400 . S
C9883 C9882 1.400 . S
C9883 C9884 1.398 . S
C9883 C9889 1.491 . S
C9884 H9875 0.950 . S
C9884 C9883 1.398 . S
C9884 C9885 1.391 . S
C9885 H9873 0.950 . S
C9885 C9881 1.393 . S
C9885 C9884 1.391 . S
C9886 H9876 0.950 . S
C9886 C9887 1.386 . S
C9886 C9888 1.391 . S
C9887 C9886 1.386 . S
C9887 C9891 1.393 . S
C9888 H9877 0.950 . S
C9888 C9886 1.391 . S
C9888 C9889 1.400 . S
C9889 C9883 1.491 . S
C9889 C9888 1.400 . S
C9889 C9890 1.398 . S
C9890 H9878 0.950 . S
C9890 C9889 1.398 . S
C9890 C9891 1.391 . S
C9891 H9879 0.950 . S
C9891 C9887 1.393 . S
C9891 C9890 1.391 . S
H9892 C9900 0.950 . S
H9893 C9905 0.950 . S
H9894 C9902 0.950 . S
H9895 C9904 0.950 . S
H9896 C9906 0.950 . S
H9897 C9908 0.950 . S
H9898 C9910 0.950 . S
H9899 C9911 0.950 . S
C9900 H9892 0.950 . S
C9900 C9901 1.386 . S
C9900 C9902 1.391 . S
C9901 C9900 1.386 . S
C9901 C9905 1.393 . S
C9902 H9894 0.950 . S
C9902 C9900 1.391 . S
C9902 C9903 1.400 . S
C9903 C9902 1.400 . S
C9903 C9904 1.398 . S
C9903 C9909 1.491 . S
C9904 H9895 0.950 . S
C9904 C9903 1.398 . S
C9904 C9905 1.391 . S
C9905 H9893 0.950 . S
C9905 C9901 1.393 . S
C9905 C9904 1.391 . S
C9906 H9896 0.950 . S
C9906 C9907 1.386 . S
C9906 C9908 1.391 . S
C9907 C9906 1.386 . S
C9907 C9911 1.393 . S
C9908 H9897 0.950 . S
C9908 C9906 1.391 . S
C9908 C9909 1.400 . S
C9909 C9903 1.491 . S
C9909 C9908 1.400 . S
C9909 C9910 1.398 . S
C9910 H9898 0.950 . S
C9910 C9909 1.398 . S
C9910 C9911 1.391 . S
C9911 H9899 0.950 . S
C9911 C9907 1.393 . S
C9911 C9910 1.391 . S
H9912 C9920 0.950 . S
H9913 C9925 0.950 . S
H9914 C9922 0.950 . S
H9915 C9924 0.950 . S
H9916 C9926 0.950 . S
H9917 C9928 0.950 . S
H9918 C9930 0.950 . S
H9919 C9931 0.950 . S
C9920 H9912 0.950 . S
C9920 C9921 1.386 . S
C9920 C9922 1.391 . S
C9921 C9920 1.386 . S
C9921 C9925 1.393 . S
C9922 H9914 0.950 . S
C9922 C9920 1.391 . S
C9922 C9923 1.400 . S
C9923 C9922 1.400 . S
C9923 C9924 1.398 . S
C9923 C9929 1.491 . S
C9924 H9915 0.950 . S
C9924 C9923 1.398 . S
C9924 C9925 1.391 . S
C9925 H9913 0.950 . S
C9925 C9921 1.393 . S
C9925 C9924 1.391 . S
C9926 H9916 0.950 . S
C9926 C9927 1.386 . S
C9926 C9928 1.391 . S
C9927 C9926 1.386 . S
C9927 C9931 1.393 . S
C9928 H9917 0.950 . S
C9928 C9926 1.391 . S
C9928 C9929 1.400 . S
C9929 C9923 1.491 . S
C9929 C9928 1.400 . S
C9929 C9930 1.398 . S
C9930 H9918 0.950 . S
C9930 C9929 1.398 . S
C9930 C9931 1.391 . S
C9931 H9919 0.950 . S
C9931 C9927 1.393 . S
C9931 C9930 1.391 . S
H9932 C9940 0.950 . S
H9933 C9945 0.950 . S
H9934 C9942 0.950 . S
H9935 C9944 0.950 . S
H9936 C9946 0.950 . S
H9937 C9948 0.950 . S
H9938 C9950 0.950 . S
H9939 C9951 0.950 . S
C9940 H9932 0.950 . S
C9940 C9941 1.386 . S
C9940 C9942 1.391 . S
C9941 C9940 1.386 . S
C9941 C9945 1.393 . S
C9942 H9934 0.950 . S
C9942 C9940 1.391 . S
C9942 C9943 1.400 . S
C9943 C9942 1.400 . S
C9943 C9944 1.398 . S
C9943 C9949 1.491 . S
C9944 H9935 0.950 . S
C9944 C9943 1.398 . S
C9944 C9945 1.391 . S
C9945 H9933 0.950 . S
C9945 C9941 1.393 . S
C9945 C9944 1.391 . S
C9946 H9936 0.950 . S
C9946 C9947 1.386 . S
C9946 C9948 1.391 . S
C9947 C9946 1.386 . S
C9947 C9951 1.393 . S
C9948 H9937 0.950 . S
C9948 C9946 1.391 . S
C9948 C9949 1.400 . S
C9949 C9943 1.491 . S
C9949 C9948 1.400 . S
C9949 C9950 1.398 . S
C9950 H9938 0.950 . S
C9950 C9949 1.398 . S
C9950 C9951 1.391 . S
C9951 H9939 0.950 . S
C9951 C9947 1.393 . S
C9951 C9950 1.391 . S
H9952 C9960 0.950 . S
H9953 C9965 0.950 . S
H9954 C9962 0.950 . S
H9955 C9964 0.950 . S
H9956 C9966 0.950 . S
H9957 C9968 0.950 . S
H9958 C9970 0.950 . S
H9959 C9971 0.950 . S
C9960 H9952 0.950 . S
C9960 C9961 1.386 . S
C9960 C9962 1.391 . S
C9961 C9960 1.386 . S
C9961 C9965 1.393 . S
C9962 H9954 0.950 . S
C9962 C9960 1.391 . S
C9962 C9963 1.400 . S
C9963 C9962 1.400 . S
C9963 C9964 1.398 . S
C9963 C9969 1.491 . S
C9964 H9955 0.950 . S
C9964 C9963 1.398 . S
C9964 C9965 1.391 . S
C9965 H9953 0.950 . S
C9965 C9961 1.393 . S
C9965 C9964 1.391 . S
C9966 H9956 0.950 . S
C9966 C9967 1.386 . S
C9966 C9968 1.391 . S
C9967 C9966 1.386 . S
C9967 C9971 1.393 . S
C9968 H9957 0.950 . S
C9968 C9966 1.391 . S
C9968 C9969 1.400 . S
C9969 C9963 1.491 . S
C9969 C9968 1.400 . S
C9969 C9970 1.398 . S
C9970 H9958 0.950 . S
C9970 C9969 1.398 . S
C9970 C9971 1.391 . S
C9971 H9959 0.950 . S
C9971 C9967 1.393 . S
C9971 C9970 1.391 . S
H9972 C9980 0.950 . S
H9973 C9985 0.950 . S
H9974 C9982 0.950 . S
H9975 C9984 0.950 . S
H9976 C9986 0.950 . S
H9977 C9988 0.950 . S
H9978 C9990 0.950 . S
H9979 C9991 0.950 . S
C9980 H9972 0.950 . S
C9980 C9981 1.386 . S
C9980 C9982 1.391 . S
C9981 C9980 1.386 . S
C9981 C9985 1.393 . S
C9982 H9974 0.950 . S
C9982 C9980 1.391 . S
C9982 C9983 1.400 . S
C9983 C9982 1.400 . S
C9983 C9984 1.398 . S
C9983 C9989 1.491 . S
C9984 H9975 0.950 . S
C9984 C9983 1.398 . S
C9984 C9985 1.391 . S
C9985 H9973 0.950 . S
C9985 C9981 1.393 . S
C9985 C9984 1.391 . S
C9986 H9976 0.950 . S
C9986 C9987 1.386 . S
C9986 C9988 1.391 . S
C9987 C9986 1.386 . S
C9987 C9991 1.393 . S
C9988 H9977 0.950 . S
C9988 C9986 1.391 . S
C9988 C9989 1.400 . S
C9989 C9983 1.491 . S
C9989 C9988 1.400 . S
C9989 C9990 1.398 . S
C9990 H9978 0.950 . S
C9990 C9989 1.398 . S
C9990 C9991 1.391 . S
C9991 H9979 0.950 . S
C9991 C9987 1.393 . S
C9991 C9990 1.391 . S
H9992 C10000 0.950 . S
H9993 C10005 0.950 . S
H9994 C10002 0.950 . S
H9995 C10004 0.950 . S
H9996 C10006 0.950 . S
H9997 C10008 0.950 . S
H9998 C10010 0.950 . S
H9999 C10011 0.950 . S
C10000 H9992 0.950 . S
C10000 C10001 1.386 . S
C10000 C10002 1.391 . S
C10001 C10000 1.386 . S
C10001 C10005 1.393 . S
C10002 H9994 0.950 . S
C10002 C10000 1.391 . S
C10002 C10003 1.400 . S
C10003 C10002 1.400 . S
C10003 C10004 1.398 . S
C10003 C10009 1.491 . S
C10004 H9995 0.950 . S
C10004 C10003 1.398 . S
C10004 C10005 1.391 . S
C10005 H9993 0.950 . S
C10005 C10001 1.393 . S
C10005 C10004 1.391 . S
C10006 H9996 0.950 . S
C10006 C10007 1.386 . S
C10006 C10008 1.391 . S
C10007 C10006 1.386 . S
C10007 C10011 1.393 . S
C10008 H9997 0.950 . S
C10008 C10006 1.391 . S
C10008 C10009 1.400 . S
C10009 C10003 1.491 . S
C10009 C10008 1.400 . S
C10009 C10010 1.398 . S
C10010 H9998 0.950 . S
C10010 C10009 1.398 . S
C10010 C10011 1.391 . S
C10011 H9999 0.950 . S
C10011 C10007 1.393 . S
C10011 C10010 1.391 . S
H10012 C10020 0.950 . S
H10013 C10025 0.950 . S
H10014 C10022 0.950 . S
H10015 C10024 0.950 . S
H10016 C10026 0.950 . S
H10017 C10028 0.950 . S
H10018 C10030 0.950 . S
H10019 C10031 0.950 . S
C10020 H10012 0.950 . S
C10020 C10021 1.386 . S
C10020 C10022 1.391 . S
C10021 C10020 1.386 . S
C10021 C10025 1.393 . S
C10022 H10014 0.950 . S
C10022 C10020 1.391 . S
C10022 C10023 1.400 . S
C10023 C10022 1.400 . S
C10023 C10024 1.398 . S
C10023 C10029 1.491 . S
C10024 H10015 0.950 . S
C10024 C10023 1.398 . S
C10024 C10025 1.391 . S
C10025 H10013 0.950 . S
C10025 C10021 1.393 . S
C10025 C10024 1.391 . S
C10026 H10016 0.950 . S
C10026 C10027 1.386 . S
C10026 C10028 1.391 . S
C10027 C10026 1.386 . S
C10027 C10031 1.393 . S
C10028 H10017 0.950 . S
C10028 C10026 1.391 . S
C10028 C10029 1.400 . S
C10029 C10023 1.491 . S
C10029 C10028 1.400 . S
C10029 C10030 1.398 . S
C10030 H10018 0.950 . S
C10030 C10029 1.398 . S
C10030 C10031 1.391 . S
C10031 H10019 0.950 . S
C10031 C10027 1.393 . S
C10031 C10030 1.391 . S
H10032 C10040 0.950 . S
H10033 C10045 0.950 . S
H10034 C10042 0.950 . S
H10035 C10044 0.950 . S
H10036 C10046 0.950 . S
H10037 C10048 0.950 . S
H10038 C10050 0.950 . S
H10039 C10051 0.950 . S
C10040 H10032 0.950 . S
C10040 C10041 1.386 . S
C10040 C10042 1.391 . S
C10041 C10040 1.386 . S
C10041 C10045 1.393 . S
C10042 H10034 0.950 . S
C10042 C10040 1.391 . S
C10042 C10043 1.400 . S
C10043 C10042 1.400 . S
C10043 C10044 1.398 . S
C10043 C10049 1.491 . S
C10044 H10035 0.950 . S
C10044 C10043 1.398 . S
C10044 C10045 1.391 . S
C10045 H10033 0.950 . S
C10045 C10041 1.393 . S
C10045 C10044 1.391 . S
C10046 H10036 0.950 . S
C10046 C10047 1.386 . S
C10046 C10048 1.391 . S
C10047 C10046 1.386 . S
C10047 C10051 1.393 . S
C10048 H10037 0.950 . S
C10048 C10046 1.391 . S
C10048 C10049 1.400 . S
C10049 C10043 1.491 . S
C10049 C10048 1.400 . S
C10049 C10050 1.398 . S
C10050 H10038 0.950 . S
C10050 C10049 1.398 . S
C10050 C10051 1.391 . S
C10051 H10039 0.950 . S
C10051 C10047 1.393 . S
C10051 C10050 1.391 . S
H10052 C10060 0.950 . S
H10053 C10065 0.950 . S
H10054 C10062 0.950 . S
H10055 C10064 0.950 . S
H10056 C10066 0.950 . S
H10057 C10068 0.950 . S
H10058 C10070 0.950 . S
H10059 C10071 0.950 . S
C10060 H10052 0.950 . S
C10060 C10061 1.386 . S
C10060 C10062 1.391 . S
C10061 C10060 1.386 . S
C10061 C10065 1.393 . S
C10062 H10054 0.950 . S
C10062 C10060 1.391 . S
C10062 C10063 1.400 . S
C10063 C10062 1.400 . S
C10063 C10064 1.398 . S
C10063 C10069 1.491 . S
C10064 H10055 0.950 . S
C10064 C10063 1.398 . S
C10064 C10065 1.391 . S
C10065 H10053 0.950 . S
C10065 C10061 1.393 . S
C10065 C10064 1.391 . S
C10066 H10056 0.950 . S
C10066 C10067 1.386 . S
C10066 C10068 1.391 . S
C10067 C10066 1.386 . S
C10067 C10071 1.393 . S
C10068 H10057 0.950 . S
C10068 C10066 1.391 . S
C10068 C10069 1.400 . S
C10069 C10063 1.491 . S
C10069 C10068 1.400 . S
C10069 C10070 1.398 . S
C10070 H10058 0.950 . S
C10070 C10069 1.398 . S
C10070 C10071 1.391 . S
C10071 H10059 0.950 . S
C10071 C10067 1.393 . S
C10071 C10070 1.391 . S
H10072 C10080 0.950 . S
H10073 C10085 0.950 . S
H10074 C10082 0.950 . S
H10075 C10084 0.950 . S
H10076 C10086 0.950 . S
H10077 C10088 0.950 . S
H10078 C10090 0.950 . S
H10079 C10091 0.950 . S
C10080 H10072 0.950 . S
C10080 C10081 1.386 . S
C10080 C10082 1.391 . S
C10081 C10080 1.386 . S
C10081 C10085 1.393 . S
C10082 H10074 0.950 . S
C10082 C10080 1.391 . S
C10082 C10083 1.400 . S
C10083 C10082 1.400 . S
C10083 C10084 1.398 . S
C10083 C10089 1.491 . S
C10084 H10075 0.950 . S
C10084 C10083 1.398 . S
C10084 C10085 1.391 . S
C10085 H10073 0.950 . S
C10085 C10081 1.393 . S
C10085 C10084 1.391 . S
C10086 H10076 0.950 . S
C10086 C10087 1.386 . S
C10086 C10088 1.391 . S
C10087 C10086 1.386 . S
C10087 C10091 1.393 . S
C10088 H10077 0.950 . S
C10088 C10086 1.391 . S
C10088 C10089 1.400 . S
C10089 C10083 1.491 . S
C10089 C10088 1.400 . S
C10089 C10090 1.398 . S
C10090 H10078 0.950 . S
C10090 C10089 1.398 . S
C10090 C10091 1.391 . S
C10091 H10079 0.950 . S
C10091 C10087 1.393 . S
C10091 C10090 1.391 . S
H10092 C10100 0.950 . S
H10093 C10105 0.950 . S
H10094 C10102 0.950 . S
H10095 C10104 0.950 . S
H10096 C10106 0.950 . S
H10097 C10108 0.950 . S
H10098 C10110 0.950 . S
H10099 C10111 0.950 . S
C10100 H10092 0.950 . S
C10100 C10101 1.386 . S
C10100 C10102 1.391 . S
C10101 C10100 1.386 . S
C10101 C10105 1.393 . S
C10102 H10094 0.950 . S
C10102 C10100 1.391 . S
C10102 C10103 1.400 . S
C10103 C10102 1.400 . S
C10103 C10104 1.398 . S
C10103 C10109 1.491 . S
C10104 H10095 0.950 . S
C10104 C10103 1.398 . S
C10104 C10105 1.391 . S
C10105 H10093 0.950 . S
C10105 C10101 1.393 . S
C10105 C10104 1.391 . S
C10106 H10096 0.950 . S
C10106 C10107 1.386 . S
C10106 C10108 1.391 . S
C10107 C10106 1.386 . S
C10107 C10111 1.393 . S
C10108 H10097 0.950 . S
C10108 C10106 1.391 . S
C10108 C10109 1.400 . S
C10109 C10103 1.491 . S
C10109 C10108 1.400 . S
C10109 C10110 1.398 . S
C10110 H10098 0.950 . S
C10110 C10109 1.398 . S
C10110 C10111 1.391 . S
C10111 H10099 0.950 . S
C10111 C10107 1.393 . S
C10111 C10110 1.391 . S
H10112 C10120 0.950 . S
H10113 C10125 0.950 . S
H10114 C10122 0.950 . S
H10115 C10124 0.950 . S
H10116 C10126 0.950 . S
H10117 C10128 0.950 . S
H10118 C10130 0.950 . S
H10119 C10131 0.950 . S
C10120 H10112 0.950 . S
C10120 C10121 1.386 . S
C10120 C10122 1.391 . S
C10121 C10120 1.386 . S
C10121 C10125 1.393 . S
C10122 H10114 0.950 . S
C10122 C10120 1.391 . S
C10122 C10123 1.400 . S
C10123 C10122 1.400 . S
C10123 C10124 1.398 . S
C10123 C10129 1.491 . S
C10124 H10115 0.950 . S
C10124 C10123 1.398 . S
C10124 C10125 1.391 . S
C10125 H10113 0.950 . S
C10125 C10121 1.393 . S
C10125 C10124 1.391 . S
C10126 H10116 0.950 . S
C10126 C10127 1.386 . S
C10126 C10128 1.391 . S
C10127 C10126 1.386 . S
C10127 C10131 1.393 . S
C10128 H10117 0.950 . S
C10128 C10126 1.391 . S
C10128 C10129 1.400 . S
C10129 C10123 1.491 . S
C10129 C10128 1.400 . S
C10129 C10130 1.398 . S
C10130 H10118 0.950 . S
C10130 C10129 1.398 . S
C10130 C10131 1.391 . S
C10131 H10119 0.950 . S
C10131 C10127 1.393 . S
C10131 C10130 1.391 . S
H10132 C10140 0.950 . S
H10133 C10145 0.950 . S
H10134 C10142 0.950 . S
H10135 C10144 0.950 . S
H10136 C10146 0.950 . S
H10137 C10148 0.950 . S
H10138 C10150 0.950 . S
H10139 C10151 0.950 . S
C10140 H10132 0.950 . S
C10140 C10141 1.386 . S
C10140 C10142 1.391 . S
C10141 C10140 1.386 . S
C10141 C10145 1.393 . S
C10142 H10134 0.950 . S
C10142 C10140 1.391 . S
C10142 C10143 1.400 . S
C10143 C10142 1.400 . S
C10143 C10144 1.398 . S
C10143 C10149 1.491 . S
C10144 H10135 0.950 . S
C10144 C10143 1.398 . S
C10144 C10145 1.391 . S
C10145 H10133 0.950 . S
C10145 C10141 1.393 . S
C10145 C10144 1.391 . S
C10146 H10136 0.950 . S
C10146 C10147 1.386 . S
C10146 C10148 1.391 . S
C10147 C10146 1.386 . S
C10147 C10151 1.393 . S
C10148 H10137 0.950 . S
C10148 C10146 1.391 . S
C10148 C10149 1.400 . S
C10149 C10143 1.491 . S
C10149 C10148 1.400 . S
C10149 C10150 1.398 . S
C10150 H10138 0.950 . S
C10150 C10149 1.398 . S
C10150 C10151 1.391 . S
C10151 H10139 0.950 . S
C10151 C10147 1.393 . S
C10151 C10150 1.391 . S
H10152 C10160 0.950 . S
H10153 C10165 0.950 . S
H10154 C10162 0.950 . S
H10155 C10164 0.950 . S
H10156 C10166 0.950 . S
H10157 C10168 0.950 . S
H10158 C10170 0.950 . S
H10159 C10171 0.950 . S
C10160 H10152 0.950 . S
C10160 C10161 1.386 . S
C10160 C10162 1.391 . S
C10161 C10160 1.386 . S
C10161 C10165 1.393 . S
C10162 H10154 0.950 . S
C10162 C10160 1.391 . S
C10162 C10163 1.400 . S
C10163 C10162 1.400 . S
C10163 C10164 1.398 . S
C10163 C10169 1.491 . S
C10164 H10155 0.950 . S
C10164 C10163 1.398 . S
C10164 C10165 1.391 . S
C10165 H10153 0.950 . S
C10165 C10161 1.393 . S
C10165 C10164 1.391 . S
C10166 H10156 0.950 . S
C10166 C10167 1.386 . S
C10166 C10168 1.391 . S
C10167 C10166 1.386 . S
C10167 C10171 1.393 . S
C10168 H10157 0.950 . S
C10168 C10166 1.391 . S
C10168 C10169 1.400 . S
C10169 C10163 1.491 . S
C10169 C10168 1.400 . S
C10169 C10170 1.398 . S
C10170 H10158 0.950 . S
C10170 C10169 1.398 . S
C10170 C10171 1.391 . S
C10171 H10159 0.950 . S
C10171 C10167 1.393 . S
C10171 C10170 1.391 . S
H10172 C10180 0.950 . S
H10173 C10185 0.950 . S
H10174 C10182 0.950 . S
H10175 C10184 0.950 . S
H10176 C10186 0.950 . S
H10177 C10188 0.950 . S
H10178 C10190 0.950 . S
H10179 C10191 0.950 . S
C10180 H10172 0.950 . S
C10180 C10181 1.386 . S
C10180 C10182 1.391 . S
C10181 C10180 1.386 . S
C10181 C10185 1.393 . S
C10182 H10174 0.950 . S
C10182 C10180 1.391 . S
C10182 C10183 1.400 . S
C10183 C10182 1.400 . S
C10183 C10184 1.398 . S
C10183 C10189 1.491 . S
C10184 H10175 0.950 . S
C10184 C10183 1.398 . S
C10184 C10185 1.391 . S
C10185 H10173 0.950 . S
C10185 C10181 1.393 . S
C10185 C10184 1.391 . S
C10186 H10176 0.950 . S
C10186 C10187 1.386 . S
C10186 C10188 1.391 . S
C10187 C10186 1.386 . S
C10187 C10191 1.393 . S
C10188 H10177 0.950 . S
C10188 C10186 1.391 . S
C10188 C10189 1.400 . S
C10189 C10183 1.491 . S
C10189 C10188 1.400 . S
C10189 C10190 1.398 . S
C10190 H10178 0.950 . S
C10190 C10189 1.398 . S
C10190 C10191 1.391 . S
C10191 H10179 0.950 . S
C10191 C10187 1.393 . S
C10191 C10190 1.391 . S
H10192 C10200 0.950 . S
H10193 C10205 0.950 . S
H10194 C10202 0.950 . S
H10195 C10204 0.950 . S
H10196 C10206 0.950 . S
H10197 C10208 0.950 . S
H10198 C10210 0.950 . S
H10199 C10211 0.950 . S
C10200 H10192 0.950 . S
C10200 C10201 1.386 . S
C10200 C10202 1.391 . S
C10201 C10200 1.386 . S
C10201 C10205 1.393 . S
C10202 H10194 0.950 . S
C10202 C10200 1.391 . S
C10202 C10203 1.400 . S
C10203 C10202 1.400 . S
C10203 C10204 1.398 . S
C10203 C10209 1.491 . S
C10204 H10195 0.950 . S
C10204 C10203 1.398 . S
C10204 C10205 1.391 . S
C10205 H10193 0.950 . S
C10205 C10201 1.393 . S
C10205 C10204 1.391 . S
C10206 H10196 0.950 . S
C10206 C10207 1.386 . S
C10206 C10208 1.391 . S
C10207 C10206 1.386 . S
C10207 C10211 1.393 . S
C10208 H10197 0.950 . S
C10208 C10206 1.391 . S
C10208 C10209 1.400 . S
C10209 C10203 1.491 . S
C10209 C10208 1.400 . S
C10209 C10210 1.398 . S
C10210 H10198 0.950 . S
C10210 C10209 1.398 . S
C10210 C10211 1.391 . S
C10211 H10199 0.950 . S
C10211 C10207 1.393 . S
C10211 C10210 1.391 . S
H10212 C10220 0.950 . S
H10213 C10225 0.950 . S
H10214 C10222 0.950 . S
H10215 C10224 0.950 . S
H10216 C10226 0.950 . S
H10217 C10228 0.950 . S
H10218 C10230 0.950 . S
H10219 C10231 0.950 . S
C10220 H10212 0.950 . S
C10220 C10221 1.386 . S
C10220 C10222 1.391 . S
C10221 C10220 1.386 . S
C10221 C10225 1.393 . S
C10222 H10214 0.950 . S
C10222 C10220 1.391 . S
C10222 C10223 1.400 . S
C10223 C10222 1.400 . S
C10223 C10224 1.398 . S
C10223 C10229 1.491 . S
C10224 H10215 0.950 . S
C10224 C10223 1.398 . S
C10224 C10225 1.391 . S
C10225 H10213 0.950 . S
C10225 C10221 1.393 . S
C10225 C10224 1.391 . S
C10226 H10216 0.950 . S
C10226 C10227 1.386 . S
C10226 C10228 1.391 . S
C10227 C10226 1.386 . S
C10227 C10231 1.393 . S
C10228 H10217 0.950 . S
C10228 C10226 1.391 . S
C10228 C10229 1.400 . S
C10229 C10223 1.491 . S
C10229 C10228 1.400 . S
C10229 C10230 1.398 . S
C10230 H10218 0.950 . S
C10230 C10229 1.398 . S
C10230 C10231 1.391 . S
C10231 H10219 0.950 . S
C10231 C10227 1.393 . S
C10231 C10230 1.391 . S
H10232 C10240 0.950 . S
H10233 C10245 0.950 . S
H10234 C10242 0.950 . S
H10235 C10244 0.950 . S
H10236 C10246 0.950 . S
H10237 C10248 0.950 . S
H10238 C10250 0.950 . S
H10239 C10251 0.950 . S
C10240 H10232 0.950 . S
C10240 C10241 1.386 . S
C10240 C10242 1.391 . S
C10241 C10240 1.386 . S
C10241 C10245 1.393 . S
C10242 H10234 0.950 . S
C10242 C10240 1.391 . S
C10242 C10243 1.400 . S
C10243 C10242 1.400 . S
C10243 C10244 1.398 . S
C10243 C10249 1.491 . S
C10244 H10235 0.950 . S
C10244 C10243 1.398 . S
C10244 C10245 1.391 . S
C10245 H10233 0.950 . S
C10245 C10241 1.393 . S
C10245 C10244 1.391 . S
C10246 H10236 0.950 . S
C10246 C10247 1.386 . S
C10246 C10248 1.391 . S
C10247 C10246 1.386 . S
C10247 C10251 1.393 . S
C10248 H10237 0.950 . S
C10248 C10246 1.391 . S
C10248 C10249 1.400 . S
C10249 C10243 1.491 . S
C10249 C10248 1.400 . S
C10249 C10250 1.398 . S
C10250 H10238 0.950 . S
C10250 C10249 1.398 . S
C10250 C10251 1.391 . S
C10251 H10239 0.950 . S
C10251 C10247 1.393 . S
C10251 C10250 1.391 . S
H10252 C10260 0.950 . S
H10253 C10265 0.950 . S
H10254 C10262 0.950 . S
H10255 C10264 0.950 . S
H10256 C10266 0.950 . S
H10257 C10268 0.950 . S
H10258 C10270 0.950 . S
H10259 C10271 0.950 . S
C10260 H10252 0.950 . S
C10260 C10261 1.386 . S
C10260 C10262 1.391 . S
C10261 C10260 1.386 . S
C10261 C10265 1.393 . S
C10262 H10254 0.950 . S
C10262 C10260 1.391 . S
C10262 C10263 1.400 . S
C10263 C10262 1.400 . S
C10263 C10264 1.398 . S
C10263 C10269 1.491 . S
C10264 H10255 0.950 . S
C10264 C10263 1.398 . S
C10264 C10265 1.391 . S
C10265 H10253 0.950 . S
C10265 C10261 1.393 . S
C10265 C10264 1.391 . S
C10266 H10256 0.950 . S
C10266 C10267 1.386 . S
C10266 C10268 1.391 . S
C10267 C10266 1.386 . S
C10267 C10271 1.393 . S
C10268 H10257 0.950 . S
C10268 C10266 1.391 . S
C10268 C10269 1.400 . S
C10269 C10263 1.491 . S
C10269 C10268 1.400 . S
C10269 C10270 1.398 . S
C10270 H10258 0.950 . S
C10270 C10269 1.398 . S
C10270 C10271 1.391 . S
C10271 H10259 0.950 . S
C10271 C10267 1.393 . S
C10271 C10270 1.391 . S
H10272 C10280 0.950 . S
H10273 C10285 0.950 . S
H10274 C10282 0.950 . S
H10275 C10284 0.950 . S
H10276 C10286 0.950 . S
H10277 C10288 0.950 . S
H10278 C10290 0.950 . S
H10279 C10291 0.950 . S
C10280 H10272 0.950 . S
C10280 C10281 1.386 . S
C10280 C10282 1.391 . S
C10281 C10280 1.386 . S
C10281 C10285 1.393 . S
C10282 H10274 0.950 . S
C10282 C10280 1.391 . S
C10282 C10283 1.400 . S
C10283 C10282 1.400 . S
C10283 C10284 1.398 . S
C10283 C10289 1.491 . S
C10284 H10275 0.950 . S
C10284 C10283 1.398 . S
C10284 C10285 1.391 . S
C10285 H10273 0.950 . S
C10285 C10281 1.393 . S
C10285 C10284 1.391 . S
C10286 H10276 0.950 . S
C10286 C10287 1.386 . S
C10286 C10288 1.391 . S
C10287 C10286 1.386 . S
C10287 C10291 1.393 . S
C10288 H10277 0.950 . S
C10288 C10286 1.391 . S
C10288 C10289 1.400 . S
C10289 C10283 1.491 . S
C10289 C10288 1.400 . S
C10289 C10290 1.398 . S
C10290 H10278 0.950 . S
C10290 C10289 1.398 . S
C10290 C10291 1.391 . S
C10291 H10279 0.950 . S
C10291 C10287 1.393 . S
C10291 C10290 1.391 . S
H10292 C10300 0.950 . S
H10293 C10305 0.950 . S
H10294 C10302 0.950 . S
H10295 C10304 0.950 . S
H10296 C10306 0.950 . S
H10297 C10308 0.950 . S
H10298 C10310 0.950 . S
H10299 C10311 0.950 . S
C10300 H10292 0.950 . S
C10300 C10301 1.386 . S
C10300 C10302 1.391 . S
C10301 C10300 1.386 . S
C10301 C10305 1.393 . S
C10302 H10294 0.950 . S
C10302 C10300 1.391 . S
C10302 C10303 1.400 . S
C10303 C10302 1.400 . S
C10303 C10304 1.398 . S
C10303 C10309 1.491 . S
C10304 H10295 0.950 . S
C10304 C10303 1.398 . S
C10304 C10305 1.391 . S
C10305 H10293 0.950 . S
C10305 C10301 1.393 . S
C10305 C10304 1.391 . S
C10306 H10296 0.950 . S
C10306 C10307 1.386 . S
C10306 C10308 1.391 . S
C10307 C10306 1.386 . S
C10307 C10311 1.393 . S
C10308 H10297 0.950 . S
C10308 C10306 1.391 . S
C10308 C10309 1.400 . S
C10309 C10303 1.491 . S
C10309 C10308 1.400 . S
C10309 C10310 1.398 . S
C10310 H10298 0.950 . S
C10310 C10309 1.398 . S
C10310 C10311 1.391 . S
C10311 H10299 0.950 . S
C10311 C10307 1.393 . S
C10311 C10310 1.391 . S
H10312 C10320 0.950 . S
H10313 C10325 0.950 . S
H10314 C10322 0.950 . S
H10315 C10324 0.950 . S
H10316 C10326 0.950 . S
H10317 C10328 0.950 . S
H10318 C10330 0.950 . S
H10319 C10331 0.950 . S
C10320 H10312 0.950 . S
C10320 C10321 1.386 . S
C10320 C10322 1.391 . S
C10321 C10320 1.386 . S
C10321 C10325 1.393 . S
C10322 H10314 0.950 . S
C10322 C10320 1.391 . S
C10322 C10323 1.400 . S
C10323 C10322 1.400 . S
C10323 C10324 1.398 . S
C10323 C10329 1.491 . S
C10324 H10315 0.950 . S
C10324 C10323 1.398 . S
C10324 C10325 1.391 . S
C10325 H10313 0.950 . S
C10325 C10321 1.393 . S
C10325 C10324 1.391 . S
C10326 H10316 0.950 . S
C10326 C10327 1.386 . S
C10326 C10328 1.391 . S
C10327 C10326 1.386 . S
C10327 C10331 1.393 . S
C10328 H10317 0.950 . S
C10328 C10326 1.391 . S
C10328 C10329 1.400 . S
C10329 C10323 1.491 . S
C10329 C10328 1.400 . S
C10329 C10330 1.398 . S
C10330 H10318 0.950 . S
C10330 C10329 1.398 . S
C10330 C10331 1.391 . S
C10331 H10319 0.950 . S
C10331 C10327 1.393 . S
C10331 C10330 1.391 . S
H10332 C10340 0.950 . S
H10333 C10345 0.950 . S
H10334 C10342 0.950 . S
H10335 C10344 0.950 . S
H10336 C10346 0.950 . S
H10337 C10348 0.950 . S
H10338 C10350 0.950 . S
H10339 C10351 0.950 . S
C10340 H10332 0.950 . S
C10340 C10341 1.386 . S
C10340 C10342 1.391 . S
C10341 C10340 1.386 . S
C10341 C10345 1.393 . S
C10342 H10334 0.950 . S
C10342 C10340 1.391 . S
C10342 C10343 1.400 . S
C10343 C10342 1.400 . S
C10343 C10344 1.398 . S
C10343 C10349 1.491 . S
C10344 H10335 0.950 . S
C10344 C10343 1.398 . S
C10344 C10345 1.391 . S
C10345 H10333 0.950 . S
C10345 C10341 1.393 . S
C10345 C10344 1.391 . S
C10346 H10336 0.950 . S
C10346 C10347 1.386 . S
C10346 C10348 1.391 . S
C10347 C10346 1.386 . S
C10347 C10351 1.393 . S
C10348 H10337 0.950 . S
C10348 C10346 1.391 . S
C10348 C10349 1.400 . S
C10349 C10343 1.491 . S
C10349 C10348 1.400 . S
C10349 C10350 1.398 . S
C10350 H10338 0.950 . S
C10350 C10349 1.398 . S
C10350 C10351 1.391 . S
C10351 H10339 0.950 . S
C10351 C10347 1.393 . S
C10351 C10350 1.391 . S
H10352 C10360 0.950 . S
H10353 C10365 0.950 . S
H10354 C10362 0.950 . S
H10355 C10364 0.950 . S
H10356 C10366 0.950 . S
H10357 C10368 0.950 . S
H10358 C10370 0.950 . S
H10359 C10371 0.950 . S
C10360 H10352 0.950 . S
C10360 C10361 1.386 . S
C10360 C10362 1.391 . S
C10361 C10360 1.386 . S
C10361 C10365 1.393 . S
C10362 H10354 0.950 . S
C10362 C10360 1.391 . S
C10362 C10363 1.400 . S
C10363 C10362 1.400 . S
C10363 C10364 1.398 . S
C10363 C10369 1.491 . S
C10364 H10355 0.950 . S
C10364 C10363 1.398 . S
C10364 C10365 1.391 . S
C10365 H10353 0.950 . S
C10365 C10361 1.393 . S
C10365 C10364 1.391 . S
C10366 H10356 0.950 . S
C10366 C10367 1.386 . S
C10366 C10368 1.391 . S
C10367 C10366 1.386 . S
C10367 C10371 1.393 . S
C10368 H10357 0.950 . S
C10368 C10366 1.391 . S
C10368 C10369 1.400 . S
C10369 C10363 1.491 . S
C10369 C10368 1.400 . S
C10369 C10370 1.398 . S
C10370 H10358 0.950 . S
C10370 C10369 1.398 . S
C10370 C10371 1.391 . S
C10371 H10359 0.950 . S
C10371 C10367 1.393 . S
C10371 C10370 1.391 . S
H10372 C10380 0.950 . S
H10373 C10385 0.950 . S
H10374 C10382 0.950 . S
H10375 C10384 0.950 . S
H10376 C10386 0.950 . S
H10377 C10388 0.950 . S
H10378 C10390 0.950 . S
H10379 C10391 0.950 . S
C10380 H10372 0.950 . S
C10380 C10381 1.386 . S
C10380 C10382 1.391 . S
C10381 C10380 1.386 . S
C10381 C10385 1.393 . S
C10382 H10374 0.950 . S
C10382 C10380 1.391 . S
C10382 C10383 1.400 . S
C10383 C10382 1.400 . S
C10383 C10384 1.398 . S
C10383 C10389 1.491 . S
C10384 H10375 0.950 . S
C10384 C10383 1.398 . S
C10384 C10385 1.391 . S
C10385 H10373 0.950 . S
C10385 C10381 1.393 . S
C10385 C10384 1.391 . S
C10386 H10376 0.950 . S
C10386 C10387 1.386 . S
C10386 C10388 1.391 . S
C10387 C10386 1.386 . S
C10387 C10391 1.393 . S
C10388 H10377 0.950 . S
C10388 C10386 1.391 . S
C10388 C10389 1.400 . S
C10389 C10383 1.491 . S
C10389 C10388 1.400 . S
C10389 C10390 1.398 . S
C10390 H10378 0.950 . S
C10390 C10389 1.398 . S
C10390 C10391 1.391 . S
C10391 H10379 0.950 . S
C10391 C10387 1.393 . S
C10391 C10390 1.391 . S
H10392 C10400 0.950 . S
H10393 C10405 0.950 . S
H10394 C10402 0.950 . S
H10395 C10404 0.950 . S
H10396 C10406 0.950 . S
H10397 C10408 0.950 . S
H10398 C10410 0.950 . S
H10399 C10411 0.950 . S
C10400 H10392 0.950 . S
C10400 C10401 1.386 . S
C10400 C10402 1.391 . S
C10401 C10400 1.386 . S
C10401 C10405 1.393 . S
C10402 H10394 0.950 . S
C10402 C10400 1.391 . S
C10402 C10403 1.400 . S
C10403 C10402 1.400 . S
C10403 C10404 1.398 . S
C10403 C10409 1.491 . S
C10404 H10395 0.950 . S
C10404 C10403 1.398 . S
C10404 C10405 1.391 . S
C10405 H10393 0.950 . S
C10405 C10401 1.393 . S
C10405 C10404 1.391 . S
C10406 H10396 0.950 . S
C10406 C10407 1.386 . S
C10406 C10408 1.391 . S
C10407 C10406 1.386 . S
C10407 C10411 1.393 . S
C10408 H10397 0.950 . S
C10408 C10406 1.391 . S
C10408 C10409 1.400 . S
C10409 C10403 1.491 . S
C10409 C10408 1.400 . S
C10409 C10410 1.398 . S
C10410 H10398 0.950 . S
C10410 C10409 1.398 . S
C10410 C10411 1.391 . S
C10411 H10399 0.950 . S
C10411 C10407 1.393 . S
C10411 C10410 1.391 . S
H10412 C10420 0.950 . S
H10413 C10425 0.950 . S
H10414 C10422 0.950 . S
H10415 C10424 0.950 . S
H10416 C10426 0.950 . S
H10417 C10428 0.950 . S
H10418 C10430 0.950 . S
H10419 C10431 0.950 . S
C10420 H10412 0.950 . S
C10420 C10421 1.386 . S
C10420 C10422 1.391 . S
C10421 C10420 1.386 . S
C10421 C10425 1.393 . S
C10422 H10414 0.950 . S
C10422 C10420 1.391 . S
C10422 C10423 1.400 . S
C10423 C10422 1.400 . S
C10423 C10424 1.398 . S
C10423 C10429 1.491 . S
C10424 H10415 0.950 . S
C10424 C10423 1.398 . S
C10424 C10425 1.391 . S
C10425 H10413 0.950 . S
C10425 C10421 1.393 . S
C10425 C10424 1.391 . S
C10426 H10416 0.950 . S
C10426 C10427 1.386 . S
C10426 C10428 1.391 . S
C10427 C10426 1.386 . S
C10427 C10431 1.393 . S
C10428 H10417 0.950 . S
C10428 C10426 1.391 . S
C10428 C10429 1.400 . S
C10429 C10423 1.491 . S
C10429 C10428 1.400 . S
C10429 C10430 1.398 . S
C10430 H10418 0.950 . S
C10430 C10429 1.398 . S
C10430 C10431 1.391 . S
C10431 H10419 0.950 . S
C10431 C10427 1.393 . S
C10431 C10430 1.391 . S
H10432 C10440 0.950 . S
H10433 C10445 0.950 . S
H10434 C10442 0.950 . S
H10435 C10444 0.950 . S
H10436 C10446 0.950 . S
H10437 C10448 0.950 . S
H10438 C10450 0.950 . S
H10439 C10451 0.950 . S
C10440 H10432 0.950 . S
C10440 C10441 1.386 . S
C10440 C10442 1.391 . S
C10441 C10440 1.386 . S
C10441 C10445 1.393 . S
C10442 H10434 0.950 . S
C10442 C10440 1.391 . S
C10442 C10443 1.400 . S
C10443 C10442 1.400 . S
C10443 C10444 1.398 . S
C10443 C10449 1.491 . S
C10444 H10435 0.950 . S
C10444 C10443 1.398 . S
C10444 C10445 1.391 . S
C10445 H10433 0.950 . S
C10445 C10441 1.393 . S
C10445 C10444 1.391 . S
C10446 H10436 0.950 . S
C10446 C10447 1.386 . S
C10446 C10448 1.391 . S
C10447 C10446 1.386 . S
C10447 C10451 1.393 . S
C10448 H10437 0.950 . S
C10448 C10446 1.391 . S
C10448 C10449 1.400 . S
C10449 C10443 1.491 . S
C10449 C10448 1.400 . S
C10449 C10450 1.398 . S
C10450 H10438 0.950 . S
C10450 C10449 1.398 . S
C10450 C10451 1.391 . S
C10451 H10439 0.950 . S
C10451 C10447 1.393 . S
C10451 C10450 1.391 . S
H10452 C10460 0.950 . S
H10453 C10465 0.950 . S
H10454 C10462 0.950 . S
H10455 C10464 0.950 . S
H10456 C10466 0.950 . S
H10457 C10468 0.950 . S
H10458 C10470 0.950 . S
H10459 C10471 0.950 . S
C10460 H10452 0.950 . S
C10460 C10461 1.386 . S
C10460 C10462 1.391 . S
C10461 C10460 1.386 . S
C10461 C10465 1.393 . S
C10462 H10454 0.950 . S
C10462 C10460 1.391 . S
C10462 C10463 1.400 . S
C10463 C10462 1.400 . S
C10463 C10464 1.398 . S
C10463 C10469 1.491 . S
C10464 H10455 0.950 . S
C10464 C10463 1.398 . S
C10464 C10465 1.391 . S
C10465 H10453 0.950 . S
C10465 C10461 1.393 . S
C10465 C10464 1.391 . S
C10466 H10456 0.950 . S
C10466 C10467 1.386 . S
C10466 C10468 1.391 . S
C10467 C10466 1.386 . S
C10467 C10471 1.393 . S
C10468 H10457 0.950 . S
C10468 C10466 1.391 . S
C10468 C10469 1.400 . S
C10469 C10463 1.491 . S
C10469 C10468 1.400 . S
C10469 C10470 1.398 . S
C10470 H10458 0.950 . S
C10470 C10469 1.398 . S
C10470 C10471 1.391 . S
C10471 H10459 0.950 . S
C10471 C10467 1.393 . S
C10471 C10470 1.391 . S
H10472 C10480 0.950 . S
H10473 C10485 0.950 . S
H10474 C10482 0.950 . S
H10475 C10484 0.950 . S
H10476 C10486 0.950 . S
H10477 C10488 0.950 . S
H10478 C10490 0.950 . S
H10479 C10491 0.950 . S
C10480 H10472 0.950 . S
C10480 C10481 1.386 . S
C10480 C10482 1.391 . S
C10481 C10480 1.386 . S
C10481 C10485 1.393 . S
C10482 H10474 0.950 . S
C10482 C10480 1.391 . S
C10482 C10483 1.400 . S
C10483 C10482 1.400 . S
C10483 C10484 1.398 . S
C10483 C10489 1.491 . S
C10484 H10475 0.950 . S
C10484 C10483 1.398 . S
C10484 C10485 1.391 . S
C10485 H10473 0.950 . S
C10485 C10481 1.393 . S
C10485 C10484 1.391 . S
C10486 H10476 0.950 . S
C10486 C10487 1.386 . S
C10486 C10488 1.391 . S
C10487 C10486 1.386 . S
C10487 C10491 1.393 . S
C10488 H10477 0.950 . S
C10488 C10486 1.391 . S
C10488 C10489 1.400 . S
C10489 C10483 1.491 . S
C10489 C10488 1.400 . S
C10489 C10490 1.398 . S
C10490 H10478 0.950 . S
C10490 C10489 1.398 . S
C10490 C10491 1.391 . S
C10491 H10479 0.950 . S
C10491 C10487 1.393 . S
C10491 C10490 1.391 . S
H10492 C10500 0.950 . S
H10493 C10505 0.950 . S
H10494 C10502 0.950 . S
H10495 C10504 0.950 . S
H10496 C10506 0.950 . S
H10497 C10508 0.950 . S
H10498 C10510 0.950 . S
H10499 C10511 0.950 . S
C10500 H10492 0.950 . S
C10500 C10501 1.386 . S
C10500 C10502 1.391 . S
C10501 C10500 1.386 . S
C10501 C10505 1.393 . S
C10502 H10494 0.950 . S
C10502 C10500 1.391 . S
C10502 C10503 1.400 . S
C10503 C10502 1.400 . S
C10503 C10504 1.398 . S
C10503 C10509 1.491 . S
C10504 H10495 0.950 . S
C10504 C10503 1.398 . S
C10504 C10505 1.391 . S
C10505 H10493 0.950 . S
C10505 C10501 1.393 . S
C10505 C10504 1.391 . S
C10506 H10496 0.950 . S
C10506 C10507 1.386 . S
C10506 C10508 1.391 . S
C10507 C10506 1.386 . S
C10507 C10511 1.393 . S
C10508 H10497 0.950 . S
C10508 C10506 1.391 . S
C10508 C10509 1.400 . S
C10509 C10503 1.491 . S
C10509 C10508 1.400 . S
C10509 C10510 1.398 . S
C10510 H10498 0.950 . S
C10510 C10509 1.398 . S
C10510 C10511 1.391 . S
C10511 H10499 0.950 . S
C10511 C10507 1.393 . S
C10511 C10510 1.391 . S
H10512 C10520 0.950 . S
H10513 C10525 0.950 . S
H10514 C10522 0.950 . S
H10515 C10524 0.950 . S
H10516 C10526 0.950 . S
H10517 C10528 0.950 . S
H10518 C10530 0.950 . S
H10519 C10531 0.950 . S
C10520 H10512 0.950 . S
C10520 C10521 1.386 . S
C10520 C10522 1.391 . S
C10521 C10520 1.386 . S
C10521 C10525 1.393 . S
C10522 H10514 0.950 . S
C10522 C10520 1.391 . S
C10522 C10523 1.400 . S
C10523 C10522 1.400 . S
C10523 C10524 1.398 . S
C10523 C10529 1.491 . S
C10524 H10515 0.950 . S
C10524 C10523 1.398 . S
C10524 C10525 1.391 . S
C10525 H10513 0.950 . S
C10525 C10521 1.393 . S
C10525 C10524 1.391 . S
C10526 H10516 0.950 . S
C10526 C10527 1.386 . S
C10526 C10528 1.391 . S
C10527 C10526 1.386 . S
C10527 C10531 1.393 . S
C10528 H10517 0.950 . S
C10528 C10526 1.391 . S
C10528 C10529 1.400 . S
C10529 C10523 1.491 . S
C10529 C10528 1.400 . S
C10529 C10530 1.398 . S
C10530 H10518 0.950 . S
C10530 C10529 1.398 . S
C10530 C10531 1.391 . S
C10531 H10519 0.950 . S
C10531 C10527 1.393 . S
C10531 C10530 1.391 . S
H10532 C10540 0.950 . S
H10533 C10545 0.950 . S
H10534 C10542 0.950 . S
H10535 C10544 0.950 . S
H10536 C10546 0.950 . S
H10537 C10548 0.950 . S
H10538 C10550 0.950 . S
H10539 C10551 0.950 . S
C10540 H10532 0.950 . S
C10540 C10541 1.386 . S
C10540 C10542 1.391 . S
C10541 C10540 1.386 . S
C10541 C10545 1.393 . S
C10542 H10534 0.950 . S
C10542 C10540 1.391 . S
C10542 C10543 1.400 . S
C10543 C10542 1.400 . S
C10543 C10544 1.398 . S
C10543 C10549 1.491 . S
C10544 H10535 0.950 . S
C10544 C10543 1.398 . S
C10544 C10545 1.391 . S
C10545 H10533 0.950 . S
C10545 C10541 1.393 . S
C10545 C10544 1.391 . S
C10546 H10536 0.950 . S
C10546 C10547 1.386 . S
C10546 C10548 1.391 . S
C10547 C10546 1.386 . S
C10547 C10551 1.393 . S
C10548 H10537 0.950 . S
C10548 C10546 1.391 . S
C10548 C10549 1.400 . S
C10549 C10543 1.491 . S
C10549 C10548 1.400 . S
C10549 C10550 1.398 . S
C10550 H10538 0.950 . S
C10550 C10549 1.398 . S
C10550 C10551 1.391 . S
C10551 H10539 0.950 . S
C10551 C10547 1.393 . S
C10551 C10550 1.391 . S
H10552 C10560 0.950 . S
H10553 C10565 0.950 . S
H10554 C10562 0.950 . S
H10555 C10564 0.950 . S
H10556 C10566 0.950 . S
H10557 C10568 0.950 . S
H10558 C10570 0.950 . S
H10559 C10571 0.950 . S
C10560 H10552 0.950 . S
C10560 C10561 1.386 . S
C10560 C10562 1.391 . S
C10561 C10560 1.386 . S
C10561 C10565 1.393 . S
C10562 H10554 0.950 . S
C10562 C10560 1.391 . S
C10562 C10563 1.400 . S
C10563 C10562 1.400 . S
C10563 C10564 1.398 . S
C10563 C10569 1.491 . S
C10564 H10555 0.950 . S
C10564 C10563 1.398 . S
C10564 C10565 1.391 . S
C10565 H10553 0.950 . S
C10565 C10561 1.393 . S
C10565 C10564 1.391 . S
C10566 H10556 0.950 . S
C10566 C10567 1.386 . S
C10566 C10568 1.391 . S
C10567 C10566 1.386 . S
C10567 C10571 1.393 . S
C10568 H10557 0.950 . S
C10568 C10566 1.391 . S
C10568 C10569 1.400 . S
C10569 C10563 1.491 . S
C10569 C10568 1.400 . S
C10569 C10570 1.398 . S
C10570 H10558 0.950 . S
C10570 C10569 1.398 . S
C10570 C10571 1.391 . S
C10571 H10559 0.950 . S
C10571 C10567 1.393 . S
C10571 C10570 1.391 . S
H10572 C10580 0.950 . S
H10573 C10585 0.950 . S
H10574 C10582 0.950 . S
H10575 C10584 0.950 . S
H10576 C10586 0.950 . S
H10577 C10588 0.950 . S
H10578 C10590 0.950 . S
H10579 C10591 0.950 . S
C10580 H10572 0.950 . S
C10580 C10581 1.386 . S
C10580 C10582 1.391 . S
C10581 C10580 1.386 . S
C10581 C10585 1.393 . S
C10582 H10574 0.950 . S
C10582 C10580 1.391 . S
C10582 C10583 1.400 . S
C10583 C10582 1.400 . S
C10583 C10584 1.398 . S
C10583 C10589 1.491 . S
C10584 H10575 0.950 . S
C10584 C10583 1.398 . S
C10584 C10585 1.391 . S
C10585 H10573 0.950 . S
C10585 C10581 1.393 . S
C10585 C10584 1.391 . S
C10586 H10576 0.950 . S
C10586 C10587 1.386 . S
C10586 C10588 1.391 . S
C10587 C10586 1.386 . S
C10587 C10591 1.393 . S
C10588 H10577 0.950 . S
C10588 C10586 1.391 . S
C10588 C10589 1.400 . S
C10589 C10583 1.491 . S
C10589 C10588 1.400 . S
C10589 C10590 1.398 . S
C10590 H10578 0.950 . S
C10590 C10589 1.398 . S
C10590 C10591 1.391 . S
C10591 H10579 0.950 . S
C10591 C10587 1.393 . S
C10591 C10590 1.391 . S
H10592 C10600 0.950 . S
H10593 C10605 0.950 . S
H10594 C10602 0.950 . S
H10595 C10604 0.950 . S
H10596 C10606 0.950 . S
H10597 C10608 0.950 . S
H10598 C10610 0.950 . S
H10599 C10611 0.950 . S
C10600 H10592 0.950 . S
C10600 C10601 1.386 . S
C10600 C10602 1.391 . S
C10601 C10600 1.386 . S
C10601 C10605 1.393 . S
C10602 H10594 0.950 . S
C10602 C10600 1.391 . S
C10602 C10603 1.400 . S
C10603 C10602 1.400 . S
C10603 C10604 1.398 . S
C10603 C10609 1.491 . S
C10604 H10595 0.950 . S
C10604 C10603 1.398 . S
C10604 C10605 1.391 . S
C10605 H10593 0.950 . S
C10605 C10601 1.393 . S
C10605 C10604 1.391 . S
C10606 H10596 0.950 . S
C10606 C10607 1.386 . S
C10606 C10608 1.391 . S
C10607 C10606 1.386 . S
C10607 C10611 1.393 . S
C10608 H10597 0.950 . S
C10608 C10606 1.391 . S
C10608 C10609 1.400 . S
C10609 C10603 1.491 . S
C10609 C10608 1.400 . S
C10609 C10610 1.398 . S
C10610 H10598 0.950 . S
C10610 C10609 1.398 . S
C10610 C10611 1.391 . S
C10611 H10599 0.950 . S
C10611 C10607 1.393 . S
C10611 C10610 1.391 . S
H10612 C10620 0.950 . S
H10613 C10625 0.950 . S
H10614 C10622 0.950 . S
H10615 C10624 0.950 . S
H10616 C10626 0.950 . S
H10617 C10628 0.950 . S
H10618 C10630 0.950 . S
H10619 C10631 0.950 . S
C10620 H10612 0.950 . S
C10620 C10621 1.386 . S
C10620 C10622 1.391 . S
C10621 C10620 1.386 . S
C10621 C10625 1.393 . S
C10622 H10614 0.950 . S
C10622 C10620 1.391 . S
C10622 C10623 1.400 . S
C10623 C10622 1.400 . S
C10623 C10624 1.398 . S
C10623 C10629 1.491 . S
C10624 H10615 0.950 . S
C10624 C10623 1.398 . S
C10624 C10625 1.391 . S
C10625 H10613 0.950 . S
C10625 C10621 1.393 . S
C10625 C10624 1.391 . S
C10626 H10616 0.950 . S
C10626 C10627 1.386 . S
C10626 C10628 1.391 . S
C10627 C10626 1.386 . S
C10627 C10631 1.393 . S
C10628 H10617 0.950 . S
C10628 C10626 1.391 . S
C10628 C10629 1.400 . S
C10629 C10623 1.491 . S
C10629 C10628 1.400 . S
C10629 C10630 1.398 . S
C10630 H10618 0.950 . S
C10630 C10629 1.398 . S
C10630 C10631 1.391 . S
C10631 H10619 0.950 . S
C10631 C10627 1.393 . S
C10631 C10630 1.391 . S
H10632 C10640 0.950 . S
H10633 C10645 0.950 . S
H10634 C10642 0.950 . S
H10635 C10644 0.950 . S
H10636 C10646 0.950 . S
H10637 C10648 0.950 . S
H10638 C10650 0.950 . S
H10639 C10651 0.950 . S
C10640 H10632 0.950 . S
C10640 C10641 1.386 . S
C10640 C10642 1.391 . S
C10641 C10640 1.386 . S
C10641 C10645 1.393 . S
C10642 H10634 0.950 . S
C10642 C10640 1.391 . S
C10642 C10643 1.400 . S
C10643 C10642 1.400 . S
C10643 C10644 1.398 . S
C10643 C10649 1.491 . S
C10644 H10635 0.950 . S
C10644 C10643 1.398 . S
C10644 C10645 1.391 . S
C10645 H10633 0.950 . S
C10645 C10641 1.393 . S
C10645 C10644 1.391 . S
C10646 H10636 0.950 . S
C10646 C10647 1.386 . S
C10646 C10648 1.391 . S
C10647 C10646 1.386 . S
C10647 C10651 1.393 . S
C10648 H10637 0.950 . S
C10648 C10646 1.391 . S
C10648 C10649 1.400 . S
C10649 C10643 1.491 . S
C10649 C10648 1.400 . S
C10649 C10650 1.398 . S
C10650 H10638 0.950 . S
C10650 C10649 1.398 . S
C10650 C10651 1.391 . S
C10651 H10639 0.950 . S
C10651 C10647 1.393 . S
C10651 C10650 1.391 . S
H10652 C10660 0.950 . S
H10653 C10665 0.950 . S
H10654 C10662 0.950 . S
H10655 C10664 0.950 . S
H10656 C10666 0.950 . S
H10657 C10668 0.950 . S
H10658 C10670 0.950 . S
H10659 C10671 0.950 . S
C10660 H10652 0.950 . S
C10660 C10661 1.386 . S
C10660 C10662 1.391 . S
C10661 C10660 1.386 . S
C10661 C10665 1.393 . S
C10662 H10654 0.950 . S
C10662 C10660 1.391 . S
C10662 C10663 1.400 . S
C10663 C10662 1.400 . S
C10663 C10664 1.398 . S
C10663 C10669 1.491 . S
C10664 H10655 0.950 . S
C10664 C10663 1.398 . S
C10664 C10665 1.391 . S
C10665 H10653 0.950 . S
C10665 C10661 1.393 . S
C10665 C10664 1.391 . S
C10666 H10656 0.950 . S
C10666 C10667 1.386 . S
C10666 C10668 1.391 . S
C10667 C10666 1.386 . S
C10667 C10671 1.393 . S
C10668 H10657 0.950 . S
C10668 C10666 1.391 . S
C10668 C10669 1.400 . S
C10669 C10663 1.491 . S
C10669 C10668 1.400 . S
C10669 C10670 1.398 . S
C10670 H10658 0.950 . S
C10670 C10669 1.398 . S
C10670 C10671 1.391 . S
C10671 H10659 0.950 . S
C10671 C10667 1.393 . S
C10671 C10670 1.391 . S
H10672 C10680 0.950 . S
H10673 C10685 0.950 . S
H10674 C10682 0.950 . S
H10675 C10684 0.950 . S
H10676 C10686 0.950 . S
H10677 C10688 0.950 . S
H10678 C10690 0.950 . S
H10679 C10691 0.950 . S
C10680 H10672 0.950 . S
C10680 C10681 1.386 . S
C10680 C10682 1.391 . S
C10681 C10680 1.386 . S
C10681 C10685 1.393 . S
C10682 H10674 0.950 . S
C10682 C10680 1.391 . S
C10682 C10683 1.400 . S
C10683 C10682 1.400 . S
C10683 C10684 1.398 . S
C10683 C10689 1.491 . S
C10684 H10675 0.950 . S
C10684 C10683 1.398 . S
C10684 C10685 1.391 . S
C10685 H10673 0.950 . S
C10685 C10681 1.393 . S
C10685 C10684 1.391 . S
C10686 H10676 0.950 . S
C10686 C10687 1.386 . S
C10686 C10688 1.391 . S
C10687 C10686 1.386 . S
C10687 C10691 1.393 . S
C10688 H10677 0.950 . S
C10688 C10686 1.391 . S
C10688 C10689 1.400 . S
C10689 C10683 1.491 . S
C10689 C10688 1.400 . S
C10689 C10690 1.398 . S
C10690 H10678 0.950 . S
C10690 C10689 1.398 . S
C10690 C10691 1.391 . S
C10691 H10679 0.950 . S
C10691 C10687 1.393 . S
C10691 C10690 1.391 . S
H10692 C10700 0.950 . S
H10693 C10705 0.950 . S
H10694 C10702 0.950 . S
H10695 C10704 0.950 . S
H10696 C10706 0.950 . S
H10697 C10708 0.950 . S
H10698 C10710 0.950 . S
H10699 C10711 0.950 . S
C10700 H10692 0.950 . S
C10700 C10701 1.386 . S
C10700 C10702 1.391 . S
C10701 C10700 1.386 . S
C10701 C10705 1.393 . S
C10702 H10694 0.950 . S
C10702 C10700 1.391 . S
C10702 C10703 1.400 . S
C10703 C10702 1.400 . S
C10703 C10704 1.398 . S
C10703 C10709 1.491 . S
C10704 H10695 0.950 . S
C10704 C10703 1.398 . S
C10704 C10705 1.391 . S
C10705 H10693 0.950 . S
C10705 C10701 1.393 . S
C10705 C10704 1.391 . S
C10706 H10696 0.950 . S
C10706 C10707 1.386 . S
C10706 C10708 1.391 . S
C10707 C10706 1.386 . S
C10707 C10711 1.393 . S
C10708 H10697 0.950 . S
C10708 C10706 1.391 . S
C10708 C10709 1.400 . S
C10709 C10703 1.491 . S
C10709 C10708 1.400 . S
C10709 C10710 1.398 . S
C10710 H10698 0.950 . S
C10710 C10709 1.398 . S
C10710 C10711 1.391 . S
C10711 H10699 0.950 . S
C10711 C10707 1.393 . S
C10711 C10710 1.391 . S
H10712 C10720 0.950 . S
H10713 C10725 0.950 . S
H10714 C10722 0.950 . S
H10715 C10724 0.950 . S
H10716 C10726 0.950 . S
H10717 C10728 0.950 . S
H10718 C10730 0.950 . S
H10719 C10731 0.950 . S
C10720 H10712 0.950 . S
C10720 C10721 1.386 . S
C10720 C10722 1.391 . S
C10721 C10720 1.386 . S
C10721 C10725 1.393 . S
C10722 H10714 0.950 . S
C10722 C10720 1.391 . S
C10722 C10723 1.400 . S
C10723 C10722 1.400 . S
C10723 C10724 1.398 . S
C10723 C10729 1.491 . S
C10724 H10715 0.950 . S
C10724 C10723 1.398 . S
C10724 C10725 1.391 . S
C10725 H10713 0.950 . S
C10725 C10721 1.393 . S
C10725 C10724 1.391 . S
C10726 H10716 0.950 . S
C10726 C10727 1.386 . S
C10726 C10728 1.391 . S
C10727 C10726 1.386 . S
C10727 C10731 1.393 . S
C10728 H10717 0.950 . S
C10728 C10726 1.391 . S
C10728 C10729 1.400 . S
C10729 C10723 1.491 . S
C10729 C10728 1.400 . S
C10729 C10730 1.398 . S
C10730 H10718 0.950 . S
C10730 C10729 1.398 . S
C10730 C10731 1.391 . S
C10731 H10719 0.950 . S
C10731 C10727 1.393 . S
C10731 C10730 1.391 . S
H10732 C10740 0.950 . S
H10733 C10745 0.950 . S
H10734 C10742 0.950 . S
H10735 C10744 0.950 . S
H10736 C10746 0.950 . S
H10737 C10748 0.950 . S
H10738 C10750 0.950 . S
H10739 C10751 0.950 . S
C10740 H10732 0.950 . S
C10740 C10741 1.386 . S
C10740 C10742 1.391 . S
C10741 C10740 1.386 . S
C10741 C10745 1.393 . S
C10742 H10734 0.950 . S
C10742 C10740 1.391 . S
C10742 C10743 1.400 . S
C10743 C10742 1.400 . S
C10743 C10744 1.398 . S
C10743 C10749 1.491 . S
C10744 H10735 0.950 . S
C10744 C10743 1.398 . S
C10744 C10745 1.391 . S
C10745 H10733 0.950 . S
C10745 C10741 1.393 . S
C10745 C10744 1.391 . S
C10746 H10736 0.950 . S
C10746 C10747 1.386 . S
C10746 C10748 1.391 . S
C10747 C10746 1.386 . S
C10747 C10751 1.393 . S
C10748 H10737 0.950 . S
C10748 C10746 1.391 . S
C10748 C10749 1.400 . S
C10749 C10743 1.491 . S
C10749 C10748 1.400 . S
C10749 C10750 1.398 . S
C10750 H10738 0.950 . S
C10750 C10749 1.398 . S
C10750 C10751 1.391 . S
C10751 H10739 0.950 . S
C10751 C10747 1.393 . S
C10751 C10750 1.391 . S
C5007 C4144 1.530 . S
C5001 C15 1.547 . S
C5027 C4732 1.521 . S
C5021 C55 1.547 . S
C5047 C4168 1.515 . S
C5041 C95 1.553 . S
C5067 C4708 1.521 . S
C5061 C135 1.556 . S
C5087 C4216 1.527 . S
C5081 C175 1.547 . S
C5101 C215 1.556 . S
C5107 C4756 1.522 . S
C5127 C4192 1.534 . S
C5121 C255 1.554 . S
C5147 C4780 1.523 . S
C5141 C295 1.556 . S
C5167 C4972 1.535 . S
C5161 C335 1.552 . S
C5181 C375 1.547 . S
C5187 C4900 1.528 . S
C5207 C4984 1.530 . S
C5201 C415 1.556 . S
C5221 C455 1.547 . S
C5227 C4960 1.528 . S
C5247 C4924 1.520 . S
C5241 C495 1.556 . S
C5267 C4360 1.532 . S
C5261 C535 1.548 . S
C5287 C4372 1.515 . S
C5281 C575 1.551 . S
C5301 C615 1.547 . S
C5307 C4336 1.524 . S
C5321 C655 1.550 . S
C5327 C4864 1.535 . S
C5347 C4264 1.524 . S
C5341 C695 1.557 . S
C5367 C4804 1.517 . S
C5361 C735 1.548 . S
C5387 C4240 1.515 . S
C5381 C775 1.551 . S
C5401 C815 1.547 . S
C5407 C4252 1.524 . S
C5427 C4888 1.533 . S
C5421 C855 1.549 . S
C5447 C4852 1.529 . S
C5441 C895 1.547 . S
C5461 C935 1.551 . S
C5467 C4876 1.515 . S
C5481 C975 1.556 . S
C5487 C3856 1.542 . S
C5501 C1015 1.557 . S
C5507 C4444 1.542 . S
C5527 C3880 1.526 . S
C5521 C1055 1.552 . S
C5541 C1095 1.555 . S
C5547 C4420 1.526 . S
C5567 C3928 1.542 . S
C5561 C1135 1.556 . S
C5581 C1175 1.557 . S
C5587 C4468 1.529 . S
C5607 C3904 1.539 . S
C5601 C1215 1.553 . S
C5627 C4492 1.540 . S
C5621 C1255 1.558 . S
C5641 C1295 1.551 . S
C5647 C4684 1.536 . S
C5667 C4612 1.527 . S
C5661 C1335 1.556 . S
C5681 C1375 1.558 . S
C5687 C4696 1.541 . S
C5707 C4672 1.538 . S
C5701 C1415 1.559 . S
C5727 C4636 1.526 . S
C5721 C1455 1.556 . S
C5741 C1495 1.553 . S
C5747 C4072 1.540 . S
C5761 C1535 1.551 . S
C5767 C4084 1.529 . S
C5787 C4048 1.525 . S
C5781 C1575 1.553 . S
C5801 C1615 1.557 . S
C5807 C4576 1.542 . S
C5827 C3976 1.540 . S
C5821 C1655 1.553 . S
C5841 C1695 1.557 . S
C5847 C4516 1.527 . S
C5867 C3952 1.528 . S
C5861 C1735 1.557 . S
C5881 C1775 1.555 . S
C5887 C3964 1.525 . S
C5907 C4600 1.539 . S
C5901 C1815 1.552 . S
C5927 C4564 1.531 . S
C5921 C1855 1.558 . S
C5947 C4588 1.531 . S
C5941 C1895 1.551 . S
C5961 C1935 1.547 . S
C5967 C4720 1.520 . S
C5987 C4156 1.523 . S
C5981 C1975 1.547 . S
C6007 C4744 1.524 . S
C6001 C2015 1.557 . S
C6027 C4132 1.516 . S
C6021 C2055 1.549 . S
C6041 C2095 1.552 . S
C6047 C4792 1.515 . S
C6067 C4180 1.518 . S
C6061 C2135 1.548 . S
C6087 C4768 1.535 . S
C6081 C2175 1.552 . S
C6107 C4204 1.515 . S
C6101 C2215 1.553 . S
C6121 C2255 1.548 . S
C6127 C4396 1.532 . S
C6147 C4324 1.533 . S
C6141 C2295 1.548 . S
C6167 C4408 1.524 . S
C6161 C2335 1.547 . S
C6181 C2375 1.553 . S
C6187 C4384 1.515 . S
C6201 C2415 1.547 . S
C6207 C4348 1.530 . S
C6221 C2455 1.555 . S
C6227 C4936 1.518 . S
C6241 C2495 1.547 . S
C6247 C4948 1.523 . S
C6267 C4912 1.520 . S
C6261 C2535 1.556 . S
C6281 C2575 1.547 . S
C6287 C4288 1.523 . S
C6307 C4840 1.519 . S
C6301 C2615 1.547 . S
C6327 C4228 1.524 . S
C6321 C2655 1.547 . S
C6347 C4816 1.533 . S
C6341 C2695 1.548 . S
C6361 C2735 1.555 . S
C6367 C4828 1.532 . S
C6381 C2775 1.554 . S
C6387 C4312 1.534 . S
C6407 C4276 1.535 . S
C6401 C2815 1.553 . S
C6421 C2855 1.547 . S
C6427 C4300 1.529 . S
C6441 C2895 1.551 . S
C6447 C4432 1.532 . S
C6467 C3868 1.542 . S
C6461 C2935 1.555 . S
C6487 C4456 1.526 . S
C6481 C2975 1.552 . S
C6501 C3015 1.557 . S
C6507 C3844 1.529 . S
C6527 C4504 1.533 . S
C6521 C3055 1.559 . S
C6547 C3892 1.542 . S
C6541 C3095 1.557 . S
C6561 C3135 1.554 . S
C6567 C4480 1.541 . S
C6581 C3175 1.551 . S
C6587 C3916 1.529 . S
C6607 C4108 1.528 . S
C6601 C3215 1.551 . S
C6621 C3255 1.551 . S
C6627 C4036 1.532 . S
C6647 C4120 1.529 . S
C6641 C3295 1.551 . S
C6667 C4096 1.540 . S
C6661 C3335 1.558 . S
C6681 C3375 1.556 . S
C6687 C4060 1.526 . S
C6701 C3415 1.555 . S
C6707 C4648 1.542 . S
C6727 C4660 1.529 . S
C6721 C3455 1.551 . S
C6741 C3495 1.552 . S
C6747 C4624 1.537 . S
C6767 C4000 1.525 . S
C6761 C3535 1.555 . S
C6787 C4552 1.526 . S
C6781 C3575 1.552 . S
C6801 C3615 1.552 . S
C6807 C3940 1.526 . S
C6821 C3655 1.558 . S
C6827 C4528 1.540 . S
C6841 C3695 1.555 . S
C6847 C4540 1.542 . S
C6861 C3735 1.553 . S
C6867 C4024 1.525 . S
C6881 C3775 1.551 . S
C6887 C3988 1.528 . S
C6907 C4012 1.531 . S
C6901 C3815 1.558 . S
C6927 C3954 1.523 . S
C6921 C2 1.509 . S
C6947 C3966 1.532 . S
C6941 C42 1.528 . S
C6961 C82 1.526 . S
C6967 C3978 1.533 . S
C6981 C122 1.514 . S
C6987 C3942 1.509 . S
C7001 C162 1.509 . S
C7007 C4026 1.508 . S
C7027 C3990 1.533 . S
C7021 C202 1.524 . S
C7047 C4002 1.533 . S
C7041 C242 1.526 . S
C7061 C282 1.523 . S
C7067 C4014 1.516 . S
C7081 C322 1.505 . S
C7087 C3882 1.516 . S
C7101 C362 1.523 . S
C7107 C3846 1.515 . S
C7121 C402 1.510 . S
C7127 C3858 1.524 . S
C7147 C3870 1.512 . S
C7141 C442 1.519 . S
C7161 C482 1.506 . S
C7167 C3906 1.510 . S
C7181 C522 1.522 . S
C7187 C3918 1.514 . S
C7201 C562 1.524 . S
C7207 C3930 1.533 . S
C7221 C602 1.509 . S
C7227 C3894 1.523 . S
C7247 C4062 1.526 . S
C7241 C642 1.512 . S
C7261 C682 1.505 . S
C7267 C4686 1.515 . S
C7287 C4038 1.509 . S
C7281 C722 1.513 . S
C7307 C4698 1.511 . S
C7301 C762 1.505 . S
C7321 C802 1.530 . S
C7327 C4674 1.529 . S
C7341 C842 1.509 . S
C7347 C4662 1.508 . S
C7367 C4626 1.509 . S
C7361 C882 1.508 . S
C7387 C4650 1.509 . S
C7381 C922 1.511 . S
C7407 C4242 1.537 . S
C7401 C962 1.573 . S
C7427 C4254 1.555 . S
C7421 C1002 1.573 . S
C7447 C4266 1.544 . S
C7441 C1042 1.571 . S
C7461 C1082 1.571 . S
C7467 C4230 1.542 . S
C7481 C1122 1.573 . S
C7487 C4314 1.555 . S
C7507 C4278 1.547 . S
C7501 C1162 1.571 . S
C7521 C1202 1.573 . S
C7527 C4290 1.555 . S
C7547 C4302 1.546 . S
C7541 C1242 1.571 . S
C7561 C1282 1.574 . S
C7567 C4170 1.553 . S
C7587 C4134 1.554 . S
C7581 C1322 1.574 . S
C7601 C1362 1.574 . S
C7607 C4146 1.554 . S
C7627 C4158 1.553 . S
C7621 C1402 1.572 . S
C7647 C4194 1.551 . S
C7641 C1442 1.574 . S
C7661 C1482 1.571 . S
C7667 C4206 1.539 . S
C7687 C4218 1.544 . S
C7681 C1522 1.574 . S
C7707 C4182 1.551 . S
C7701 C1562 1.575 . S
C7727 C4350 1.554 . S
C7721 C1602 1.574 . S
C7747 C4974 1.546 . S
C7741 C1642 1.571 . S
C7767 C4326 1.539 . S
C7761 C1682 1.571 . S
C7781 C1722 1.573 . S
C7787 C4986 1.538 . S
C7801 C1762 1.574 . S
C7807 C4962 1.553 . S
C7827 C4950 1.553 . S
C7821 C1802 1.574 . S
C7847 C4914 1.541 . S
C7841 C1842 1.574 . S
C7867 C4938 1.540 . S
C7861 C1882 1.574 . S
C7881 C1922 1.529 . S
C7887 C4530 1.530 . S
C7907 C4542 1.527 . S
C7901 C1962 1.513 . S
C7921 C2002 1.527 . S
C7927 C4554 1.532 . S
C7947 C4518 1.528 . S
C7941 C2042 1.514 . S
C7961 C2082 1.515 . S
C7967 C4602 1.510 . S
C7981 C2122 1.523 . S
C7987 C4566 1.533 . S
C8001 C2162 1.511 . S
C8007 C4578 1.525 . S
C8021 C2202 1.516 . S
C8027 C4590 1.510 . S
C8041 C2242 1.529 . S
C8047 C4458 1.531 . S
C8067 C4422 1.514 . S
C8061 C2282 1.505 . S
C8087 C4434 1.527 . S
C8081 C2322 1.530 . S
C8101 C2362 1.518 . S
C8107 C4446 1.511 . S
C8121 C2402 1.511 . S
C8127 C4482 1.509 . S
C8141 C2442 1.507 . S
C8147 C4494 1.521 . S
C8161 C2482 1.505 . S
C8167 C4506 1.515 . S
C8181 C2522 1.506 . S
C8187 C4470 1.510 . S
C8207 C4638 1.510 . S
C8201 C2562 1.506 . S
C8227 C4110 1.510 . S
C8221 C2602 1.516 . S
C8247 C4614 1.517 . S
C8241 C2642 1.525 . S
C8267 C4122 1.511 . S
C8261 C2682 1.517 . S
C8287 C4098 1.532 . S
C8281 C2722 1.523 . S
C8307 C4086 1.525 . S
C8301 C2762 1.529 . S
C8321 C2802 1.521 . S
C8327 C4050 1.514 . S
C8347 C4074 1.532 . S
C8341 C2842 1.527 . S
C8361 C2882 1.575 . S
C8367 C4818 1.544 . S
C8381 C2922 1.575 . S
C8387 C4830 1.550 . S
C8407 C4842 1.555 . S
C8401 C2962 1.573 . S
C8421 C3002 1.571 . S
C8427 C4806 1.543 . S
C8447 C4890 1.537 . S
C8441 C3042 1.572 . S
C8461 C3082 1.574 . S
C8467 C4854 1.553 . S
C8481 C3122 1.571 . S
C8487 C4866 1.543 . S
C8507 C4878 1.543 . S
C8501 C3162 1.571 . S
C8527 C4746 1.541 . S
C8521 C3202 1.574 . S
C8547 C4710 1.538 . S
C8541 C3242 1.573 . S
C8567 C4722 1.542 . S
C8561 C3282 1.574 . S
C8587 C4734 1.554 . S
C8581 C3322 1.572 . S
C8601 C3362 1.571 . S
C8607 C4770 1.550 . S
C8627 C4782 1.538 . S
C8621 C3402 1.571 . S
C8641 C3442 1.574 . S
C8647 C4794 1.540 . S
C8661 C3482 1.574 . S
C8667 C4758 1.552 . S
C8681 C3522 1.572 . S
C8687 C4926 1.537 . S
C8701 C3562 1.573 . S
C8707 C4398 1.555 . S
C8721 C3602 1.571 . S
C8727 C4902 1.551 . S
C8747 C4410 1.543 . S
C8741 C3642 1.571 . S
C8761 C3682 1.571 . S
C8767 C4386 1.542 . S
C8781 C3722 1.571 . S
C8787 C4374 1.546 . S
C8801 C3762 1.571 . S
C8807 C4338 1.539 . S
C8827 C4362 1.555 . S
C8821 C3802 1.573 . S
C8841 C21 1.616 . S
C8847 C3849 1.623 . S
C8861 C61 1.629 . S
C8867 C3861 1.627 . S
C8881 C101 1.631 . S
C8887 C3873 1.644 . S
C8907 C3885 1.640 . S
C8901 C141 1.634 . S
C8927 C3897 1.625 . S
C8921 C181 1.613 . S
C8941 C221 1.634 . S
C8947 C3909 1.642 . S
C8961 C261 1.610 . S
C8967 C3921 1.631 . S
C8981 C301 1.612 . S
C8987 C3933 1.638 . S
C9007 C3945 1.625 . S
C9001 C341 1.626 . S
C9027 C3957 1.643 . S
C9021 C381 1.632 . S
C9041 C421 1.620 . S
C9047 C3969 1.644 . S
C9067 C3981 1.635 . S
C9061 C461 1.634 . S
C9081 C501 1.633 . S
C9087 C3993 1.643 . S
C9101 C541 1.626 . S
C9107 C4005 1.646 . S
C9121 C581 1.610 . S
C9127 C4017 1.632 . S
C9141 C621 1.625 . S
C9147 C4029 1.625 . S
C9161 C661 1.612 . S
C9167 C4041 1.626 . S
C9181 C701 1.633 . S
C9187 C4053 1.632 . S
C9207 C4065 1.640 . S
C9201 C741 1.634 . S
C9227 C4077 1.623 . S
C9221 C781 1.616 . S
C9247 C4089 1.630 . S
C9241 C821 1.632 . S
C9267 C4101 1.645 . S
C9261 C861 1.629 . S
C9281 C901 1.613 . S
C9287 C4113 1.638 . S
C9307 C4125 1.641 . S
C9301 C941 1.634 . S
C9321 C981 1.683 . S
C9327 C4137 1.650 . S
C9341 C1021 1.683 . S
C9347 C4149 1.652 . S
C9361 C1061 1.683 . S
C9367 C4161 1.652 . S
C9387 C4173 1.639 . S
C9381 C1101 1.688 . S
C9401 C1141 1.683 . S
C9407 C4185 1.657 . S
C9427 C4197 1.658 . S
C9421 C1181 1.684 . S
C9441 C1221 1.683 . S
C9447 C4209 1.655 . S
C9461 C1261 1.683 . S
C9467 C4221 1.651 . S
C9487 C4233 1.657 . S
C9481 C1301 1.685 . S
C9501 C1341 1.683 . S
C9507 C4245 1.652 . S
C9527 C4257 1.642 . S
C9521 C1381 1.689 . S
C9541 C1421 1.686 . S
C9547 C4269 1.656 . S
C9567 C4281 1.639 . S
C9561 C1461 1.687 . S
C9587 C4293 1.643 . S
C9581 C1501 1.689 . S
C9607 C4305 1.657 . S
C9601 C1541 1.683 . S
C9621 C1581 1.688 . S
C9627 C4317 1.650 . S
C9641 C1621 1.686 . S
C9647 C4329 1.656 . S
C9661 C1661 1.685 . S
C9667 C4341 1.642 . S
C9681 C1701 1.683 . S
C9687 C4353 1.653 . S
C9701 C1741 1.684 . S
C9707 C4365 1.658 . S
C9721 C1781 1.684 . S
C9727 C4377 1.658 . S
C9747 C4389 1.643 . S
C9741 C1821 1.685 . S
C9761 C1861 1.683 . S
C9767 C4401 1.658 . S
C9787 C4413 1.650 . S
C9781 C1901 1.688 . S
C9801 C1941 1.627 . S
C9807 C4425 1.645 . S
C9827 C4437 1.625 . S
C9821 C1981 1.613 . S
C9847 C4449 1.629 . S
C9841 C2021 1.610 . S
C9867 C4461 1.629 . S
C9861 C2061 1.610 . S
C9881 C2101 1.619 . S
C9887 C4473 1.623 . S
C9901 C2141 1.631 . S
C9907 C4485 1.644 . S
C9927 C4497 1.623 . S
C9921 C2181 1.618 . S
C9947 C4509 1.639 . S
C9941 C2221 1.613 . S
C9961 C2261 1.633 . S
C9967 C4521 1.642 . S
C9981 C2301 1.632 . S
C9987 C4533 1.644 . S
C10001 C2341 1.619 . S
C10007 C4545 1.623 . S
C10021 C2381 1.612 . S
C10027 C4557 1.638 . S
C10041 C2421 1.634 . S
C10047 C4569 1.633 . S
C10067 C4581 1.638 . S
C10061 C2461 1.635 . S
C10087 C4593 1.643 . S
C10081 C2501 1.633 . S
C10107 C4605 1.628 . S
C10101 C2541 1.611 . S
C10127 C4617 1.646 . S
C10121 C2581 1.627 . S
C10141 C2621 1.630 . S
C10147 C4629 1.629 . S
C10161 C2661 1.634 . S
C10167 C4641 1.641 . S
C10187 C4653 1.626 . S
C10181 C2701 1.627 . S
C10201 C2741 1.618 . S
C10207 C4665 1.623 . S
C10227 C4677 1.625 . S
C10221 C2781 1.626 . S
C10247 C4689 1.645 . S
C10241 C2821 1.625 . S
C10267 C4701 1.627 . S
C10261 C2861 1.611 . S
C10281 C2901 1.683 . S
C10287 C4713 1.657 . S
C10301 C2941 1.687 . S
C10307 C4725 1.639 . S
C10321 C2981 1.683 . S
C10327 C4737 1.658 . S
C10341 C3021 1.689 . S
C10347 C4749 1.643 . S
C10367 C4761 1.646 . S
C10361 C3061 1.684 . S
C10387 C4773 1.643 . S
C10381 C3101 1.685 . S
C10407 C4785 1.647 . S
C10401 C3141 1.684 . S
C10421 C3181 1.683 . S
C10427 C4797 1.657 . S
C10441 C3221 1.689 . S
C10447 C4809 1.639 . S
C10467 C4821 1.643 . S
C10461 C3261 1.685 . S
C10487 C4833 1.639 . S
C10481 C3301 1.689 . S
C10507 C4845 1.639 . S
C10501 C3341 1.689 . S
C10527 C4857 1.647 . S
C10521 C3381 1.684 . S
C10547 C4869 1.652 . S
C10541 C3421 1.683 . S
C10567 C4881 1.650 . S
C10561 C3461 1.688 . S
C10587 C4893 1.645 . S
C10581 C3501 1.684 . S
C10607 C4905 1.658 . S
C10601 C3541 1.683 . S
C10627 C4917 1.654 . S
C10621 C3581 1.687 . S
C10647 C4929 1.639 . S
C10641 C3621 1.689 . S
C10661 C3661 1.683 . S
C10667 C4941 1.653 . S
C10687 C4953 1.643 . S
C10681 C3701 1.689 . S
C10701 C3741 1.687 . S
C10707 C4965 1.639 . S
C10727 C4977 1.639 . S
C10721 C3781 1.688 . S
C10747 C4989 1.653 . S
C10741 C3821 1.683 . S
