# Generated by pormake.
# Topology zzz, (3,6)-cn, num edge types: 1
# Building blocks:
#     Node 0, Type 0, BuildingBlock: QEWDON_clean_linker_0, # of connection points: 3
#     Node 1, Type 0, BuildingBlock: QEWDON_clean_linker_0, # of connection points: 3
#     Node 2, Type 0, BuildingBlock: QEWDON_clean_linker_0, # of connection points: 3
#     Node 3, Type 0, BuildingBlock: QEWDON_clean_linker_0, # of connection points: 3
#     Node 4, Type 0, BuildingBlock: QEWDON_clean_linker_0, # of connection points: 3
#     Node 5, Type 0, BuildingBlock: QEWDON_clean_linker_0, # of connection points: 3
#     Node 6, Type 0, BuildingBlock: QEWDON_clean_linker_0, # of connection points: 3
#     Node 7, Type 0, BuildingBlock: QEWDON_clean_linker_0, # of connection points: 3
#     Node 8, Type 1, BuildingBlock: BETFEN_clean_sbu_0, # of connection points: 6
#     Node 9, Type 1, BuildingBlock: BETFEN_clean_sbu_0, # of connection points: 6
#     Node 10, Type 1, BuildingBlock: BETFEN_clean_sbu_0, # of connection points: 6
#     Node 11, Type 1, BuildingBlock: BETFEN_clean_sbu_0, # of connection points: 6
#     Edge 12, Type (0, 1), None
#     Edge 13, Type (0, 1), None
#     Edge 14, Type (0, 1), None
#     Edge 15, Type (0, 1), None
#     Edge 16, Type (0, 1), None
#     Edge 17, Type (0, 1), None
#     Edge 18, Type (0, 1), None
#     Edge 19, Type (0, 1), None
#     Edge 20, Type (0, 1), None
#     Edge 21, Type (0, 1), None
#     Edge 22, Type (0, 1), None
#     Edge 23, Type (0, 1), None
#     Edge 24, Type (0, 1), None
#     Edge 25, Type (0, 1), None
#     Edge 26, Type (0, 1), None
#     Edge 27, Type (0, 1), None
#     Edge 28, Type (0, 1), None
#     Edge 29, Type (0, 1), None
#     Edge 30, Type (0, 1), None
#     Edge 31, Type (0, 1), None
#     Edge 32, Type (0, 1), None
#     Edge 33, Type (0, 1), None
#     Edge 34, Type (0, 1), None
#     Edge 35, Type (0, 1), None
# Relax obj value: 0.451
# Max RMSD: 0.225
# Mean RMSD: 0.112
data_MOF--net-zzz--node1-BETFEN_clean_sbu_0--node2-QEWDON_clean_linker_0--edge1-none
_symmetry_space_group_name_H-M    P1
_symmetry_Int_Tables_number       1
_symmetry_cell_setting            triclinic
loop_
_symmetry_equiv_pos_as_xyz
'x, y, z'
_cell_length_a     27.493947
_cell_length_b     27.410637
_cell_length_c     7.7564755
_cell_angle_alpha  88.982818
_cell_angle_beta   89.955599
_cell_angle_gamma 89.79384
loop_
_atom_site_label
_atom_site_type_symbol
_atom_site_fract_x
_atom_site_fract_y
_atom_site_fract_z
_atom_type_partial_charge
H0 H 0.71816 0.47199 0.65244 0.0
C1 C 0.75117 0.49256 0.66881 0.0
C2 C 0.78726 0.48909 0.54053 0.0
C3 C 0.75986 0.52089 0.81794 0.0
H4 H 0.85635 0.51519 0.4524 0.0
C5 C 0.82926 0.5172 0.55397 0.0
C6 C 0.84394 0.53126 0.71608 0.0
C7 C 0.80878 0.53525 0.84664 0.0
C8 C 0.72008 0.53413 0.94489 0.0
H9 H 0.82075 0.54704 -0.0283 0.0
C10 C 0.67215 0.51555 0.93248 0.0
C11 C 0.63428 0.5331 0.0384 0.0
C12 C 0.72865 0.56945 0.07264 0.0
H13 H 0.76346 0.58688 0.08764 0.0
C14 C 0.69162 0.58519 0.18161 0.0
H15 H 0.66299 0.48919 0.83624 0.0
C16 C 0.64452 0.56792 0.16261 0.0
H17 H 0.61579 0.5825 0.24263 0.0
H18 H 0.69918 0.61243 0.27727 0.0
H19 H 0.03407 0.71512 0.57432 0.0
C20 C 0.02159 0.7518 0.59841 0.0
C21 C 0.03149 0.78804 0.47364 0.0
C22 C 0.99668 0.76391 0.75237 0.0
H23 H 0.02133 0.86292 0.39804 0.0
C24 C 1.01356 0.83527 0.49582 0.0
C25 C 0.99872 0.85 0.6573 0.0
C26 C 0.98807 0.81413 0.78393 0.0
C27 C 0.98174 0.72525 0.88241 0.0
H28 H 0.97541 0.82571 0.90895 0.0
C29 C 1.00554 0.67951 0.89319 0.0
C30 C 0.98797 0.64158 0.00191 0.0
C31 C 0.94178 0.73308 -0.007 0.0
H32 H 0.92159 0.76702 -0.01124 0.0
C33 C 0.92609 0.69654 0.10796 0.0
H34 H 0.0368 0.67239 0.81285 0.0
C35 C 0.94843 0.65075 0.11046 0.0
H36 H 0.93402 0.62208 0.19362 0.0
H37 H 0.89521 0.7032 0.19107 0.0
H38 H 0.81697 0.04091 0.55219 0.0
C39 C 0.78094 0.03754 0.6074 0.0
C40 C 0.74159 0.06055 0.52316 0.0
C41 C 0.77277 1.00935 0.76046 0.0
H42 H 0.66484 0.0731 0.52428 0.0
C43 C 0.69487 0.05513 0.59003 0.0
C44 C 0.68522 0.02279 0.72453 0.0
C45 C 0.72407 1.00065 0.81235 0.0
C46 C 0.8142 0.98891 0.86566 0.0
H47 H 0.71583 0.97795 0.92384 0.0
C48 C 0.85986 1.01229 0.86726 0.0
C49 C 0.89909 0.99261 -0.03672 0.0
C50 C 0.80849 0.94604 -0.03271 0.0
H51 H 0.77497 0.92557 -0.03281 0.0
C52 C 0.84663 0.92784 0.06858 0.0
H53 H 0.86554 0.04506 0.79009 0.0
C54 C 0.89179 0.9507 0.06583 0.0
H55 H 0.9216 0.93462 0.13872 0.0
H56 H 0.84156 0.89491 0.14548 0.0
H57 H 0.4983 0.82454 0.57431 0.0
C58 C 0.50376 0.78778 0.62407 0.0
C59 C 0.48415 0.74848 0.53352 0.0
C60 C 0.53117 0.77867 0.77687 0.0
H61 H 0.47563 0.6711 0.52503 0.0
C62 C 0.49157 0.70097 0.59476 0.0
C63 C 0.52207 0.69074 0.73247 0.0
C64 C 0.5419 0.72948 0.82366 0.0
C65 C 0.5482 0.81944 0.88895 0.0
H66 H 0.56379 0.72062 0.93554 0.0
C67 C 0.52272 0.86432 0.89572 0.0
C68 C 0.53942 0.90244 0.00028 0.0
C69 C 0.59003 0.81359 -0.00693 0.0
H70 H 0.61222 0.78102 -0.01123 0.0
C71 C 0.60493 0.85031 0.10317 0.0
H72 H 0.49091 0.87045 0.81603 0.0
C73 C 0.58004 0.89456 0.10625 0.0
H74 H 0.59378 0.92351 0.18601 0.0
H75 H 0.63699 0.84501 0.18234 0.0
H76 H 0.25527 0.60182 0.0489 0.0
C77 C 0.22834 0.57346 0.03277 0.0
C78 C 0.19121 0.56763 0.15423 0.0
C79 C 0.22892 0.54435 0.88537 0.0
H80 H 0.12756 0.52755 0.22801 0.0
C81 C 0.15632 0.53115 0.13304 0.0
C82 C 0.15037 0.50936 -0.02563 0.0
C83 C 0.18835 0.51411 0.85147 0.0
C84 C 0.26867 0.55157 0.7581 0.0
H85 H 0.18515 0.49685 0.72746 0.0
C86 C 0.31039 0.5217 0.76271 0.0
C87 C 0.35137 0.53335 0.65945 0.0
C88 C 0.26853 0.59316 0.65028 0.0
H89 H 0.23909 0.61938 0.65686 0.0
C90 C 0.30619 0.6013 0.53291 0.0
H91 H 0.31258 0.49247 0.85844 0.0
C92 C 0.34744 0.5715 0.53661 0.0
H93 H 0.37793 0.58123 0.4547 0.0
H94 H 0.30455 0.63248 0.44569 0.0
H95 H 0.95284 0.26504 -0.03152 0.0
C96 C 0.97936 0.23577 -0.03639 0.0
C97 C 0.97753 0.19823 0.08888 0.0
C98 C 1.01403 0.23414 0.82819 0.0
H99 H 1.01014 0.13108 0.17787 0.0
C100 C 1.01155 0.16006 0.08209 0.0
C101 C 0.03814 0.15223 0.93331 0.0
C102 C 0.04139 0.19052 0.80926 0.0
C103 C 0.01928 0.27684 0.70448 0.0
H104 H 0.06418 0.18551 0.69715 0.0
C105 C 1.01293 0.3247 0.76374 0.0
C106 C 0.01795 0.36581 0.65274 0.0
C107 C 0.03193 0.27109 0.52977 0.0
H108 H 0.03891 0.23537 0.47807 0.0
C109 C 0.03466 0.31162 0.41711 0.0
H110 H 1.00576 0.33027 0.89943 0.0
C111 C 0.02759 0.3589 0.47794 0.0
H112 H 0.03202 0.38989 0.39085 0.0
H113 H 0.04337 0.30635 0.28254 0.0
H114 H 0.28042 0.93337 0.0481 0.0
C115 C 0.3048 0.9639 0.02735 0.0
C116 C 0.34212 0.97263 0.14569 0.0
C117 C 0.30062 0.99364 0.87799 0.0
H118 H 0.40288 1.01753 0.20955 0.0
C119 C 0.37371 1.01191 0.11802 0.0
C120 C 0.37631 0.035 -0.04225 0.0
C121 C 0.338 0.02762 0.83926 0.0
C122 C 0.26104 0.98426 0.75254 0.0
H123 H 0.33884 0.04573 0.71399 0.0
C124 C 0.21764 1.01159 0.75435 0.0
C125 C 0.1783 0.99965 0.64445 0.0
C126 C 0.2648 0.94508 0.63987 0.0
H127 H 0.2959 0.92082 0.64611 0.0
C128 C 0.22896 0.93743 0.51604 0.0
H129 H 0.21334 0.03944 0.85073 0.0
C130 C 0.18583 0.9646 0.51827 0.0
H131 H 0.15704 0.95615 0.42956 0.0
H132 H 0.23385 0.90887 0.42301 0.0
H133 H 0.59459 0.28222 0.07475 0.0
C134 C 0.56497 0.30797 0.05571 0.0
C135 C 0.55737 0.34494 0.17494 0.0
C136 C 0.53555 0.30585 0.90759 0.0
H137 H 0.51576 0.40843 0.23874 0.0
C138 C 0.51986 0.37895 0.14834 0.0
C139 C 0.49618 0.38253 -0.00946 0.0
C140 C 0.50215 0.34419 0.87252 0.0
C141 C 0.54522 0.26764 0.77874 0.0
H142 H 0.48396 0.34611 0.7487 0.0
C143 C 0.51411 0.22734 0.76329 0.0
C144 C 0.52645 0.18842 0.6537 0.0
C145 C 0.58834 0.26907 0.68206 0.0
H146 H 0.61423 0.29827 0.69924 0.0
C147 C 0.59776 0.23373 0.55902 0.0
H148 H 0.48296 0.22428 0.84857 0.0
C149 C 0.56697 0.19367 0.54404 0.0
H150 H 0.57738 0.16478 0.45776 0.0
H151 H 0.63031 0.23621 0.48087 0.0
Pr152 Pr 0.06211 0.98242 0.93295 0.0
Pr153 Pr 1.01036 1.01724 0.64376 0.0
C154 C 0.11369 0.92118 0.14054 0.0
C155 C 0.1088 0.8692 0.19312 0.0
C156 C 0.13085 0.85076 0.34375 0.0
C157 C 0.11499 0.80649 0.41681 0.0
C158 C 0.07254 0.78494 0.35178 0.0
C159 C 0.06078 0.7952 0.17918 0.0
C160 C 0.07836 0.83802 0.10062 0.0
C161 C 0.12803 1.01528 0.68887 0.0
C162 C 1.00564 0.90209 0.69792 0.0
C163 C 0.95656 0.04933 0.3752 0.0
C164 C 0.93159 0.09659 0.34869 0.0
C165 C 0.94514 0.13657 0.44883 0.0
C166 C 0.94352 0.18354 0.37484 0.0
C167 C 0.93405 0.18857 0.19748 0.0
C168 C 0.90369 0.15295 0.12608 0.0
C169 C 0.90461 0.10569 0.19824 0.0
C170 C 0.94912 1.00983 0.93107 0.0
C171 C 0.04889 0.10069 0.88972 0.0
O172 O 0.08132 0.95215 0.20049 0.0
O173 O 0.12305 0.9285 -0.02265 0.0
O174 O 0.09111 0.98913 0.65226 0.0
O175 O 0.12301 0.03409 0.83934 0.0
O176 O 1.01055 0.93506 0.57436 0.0
O177 O 1.01425 0.91474 0.85718 0.0
O178 O 1.00418 0.05141 0.37763 0.0
O179 O 0.93907 0.0208 0.49582 0.0
O180 O 0.98009 0.97857 0.88813 0.0
O181 O 0.95624 0.05003 0.84516 0.0
O182 O 0.04763 0.06493 0.00905 0.0
O183 O 0.04691 0.08954 0.72599 0.0
H184 H 0.15692 0.87194 0.41317 0.0
H185 H 0.1274 0.79702 0.54579 0.0
H186 H 0.03045 0.77693 0.12107 0.0
H187 H 0.06467 0.8489 -0.02409 0.0
H188 H 0.96298 0.13107 0.57215 0.0
H189 H 0.95984 0.21306 0.44315 0.0
H190 H 0.89083 0.15738 -0.00533 0.0
H191 H 0.88978 0.07608 0.12624 0.0
Pr192 Pr 0.54153 0.06675 0.90913 0.0
Pr193 Pr 0.51544 1.01884 0.69692 0.0
C194 C 0.60548 0.11152 0.1206 0.0
C195 C 0.65672 0.10412 0.17133 0.0
C196 C 0.68279 0.14157 0.25032 0.0
C197 C 0.72684 0.13074 0.33475 0.0
C198 C 0.74296 0.0819 0.34724 0.0
C199 C 0.72482 0.04923 0.2256 0.0
C200 C 0.67935 0.05868 0.151 0.0
C201 C 0.50738 0.13878 0.6919 0.0
C202 C 0.63437 1.013 0.773 0.0
C203 C 0.49876 0.95888 0.4326 0.0
C204 C 0.45186 0.93315 0.41612 0.0
C205 C 0.41266 0.95056 0.51306 0.0
C206 C 0.36671 0.95327 0.43853 0.0
C207 C 0.35965 0.93583 0.27173 0.0
C208 C 0.39463 0.90323 0.20678 0.0
C209 C 0.44173 0.90333 0.27627 0.0
C210 C 0.52158 0.95285 -0.02604 0.0
C211 C 0.42533 0.05223 0.90372 0.0
O212 O 0.574 0.07903 0.17466 0.0
O213 O 0.59849 0.12431 -0.03922 0.0
O214 O 0.53115 0.10184 0.6402 0.0
O215 O 0.48972 0.13117 0.84519 0.0
O216 O 0.59922 0.03883 0.69784 0.0
O217 O 0.59834 0.03787 0.70474 0.0
O218 O 0.49541 1.00628 0.4172 0.0
O219 O 0.52553 0.94595 0.56328 0.0
O220 O 0.55295 0.98442 0.93758 0.0
O221 O 0.4813 0.96218 0.89313 0.0
O222 O 0.46173 0.05358 0.0149 0.0
O223 O 0.43746 0.0495 0.74232 0.0
H224 H 0.66693 0.17759 0.2617 0.0
H225 H 0.7418 0.15772 0.42001 0.0
H226 H 0.73802 1.0119 0.22597 0.0
H227 H 0.65988 0.02907 0.09322 0.0
H228 H 0.41902 0.97037 0.62933 0.0
H229 H 0.34187 0.97997 0.48957 0.0
H230 H 0.38939 0.88699 0.08181 0.0
H231 H 0.47045 0.88438 0.21134 0.0
Pr232 Pr 0.47209 0.54945 0.92883 0.0
Pr233 Pr 0.51987 0.51998 0.72193 0.0
C234 C 0.42833 0.61627 0.13317 0.0
C235 C 0.43691 0.66709 0.18454 0.0
C236 C 0.40066 0.69358 0.26993 0.0
C237 C 0.41287 0.73666 0.35519 0.0
C238 C 0.46183 0.7516 0.36074 0.0
C239 C 0.49325 0.73349 0.23376 0.0
C240 C 0.48251 0.68863 0.15942 0.0
C241 C 0.4004 0.51634 0.71371 0.0
C242 C 0.53073 0.6394 0.78442 0.0
C243 C 0.5808 0.49843 0.46248 0.0
C244 C 0.60345 0.44963 0.44956 0.0
C245 C 0.63371 0.43759 0.31156 0.0
C246 C 0.62996 0.39123 0.23935 0.0
C247 C 0.59413 0.35893 0.30232 0.0
C248 C 0.5762 0.36628 0.46888 0.0
C249 C 0.5821 0.41146 0.54488 0.0
C250 C 0.58318 0.521 0.00209 0.0
C251 C 0.48044 0.43226 0.93456 0.0
O252 O 0.45866 0.58301 0.19118 0.0
O253 O 0.41765 0.61037 -0.02793 0.0
O254 O 0.43819 0.53872 0.66038 0.0
O255 O 0.40551 0.50092 0.87175 0.0
O256 O 0.50421 0.60499 0.71265 0.0
O257 O 0.50506 0.60407 0.71974 0.0
O258 O 0.5336 0.49866 0.4445 0.0
O259 O 0.59429 0.52437 0.59202 0.0
O260 O 0.55479 0.55528 -0.03862 0.0
O261 O 0.57178 0.48151 0.92263 0.0
O262 O 0.48034 0.46897 0.04296 0.0
O263 O 0.48441 0.44414 0.77235 0.0
H264 H 0.3645 0.67866 0.28509 0.0
H265 H 0.38681 0.75167 0.44489 0.0
H266 H 0.53073 0.74559 0.23007 0.0
H267 H 0.5113 0.66843 0.09865 0.0
H268 H 0.65616 0.46473 0.24997 0.0
H269 H 0.64666 0.38538 0.11478 0.0
H270 H 0.54768 0.34302 0.51886 0.0
H271 H 0.56201 0.4189 0.66057 0.0
Pr272 Pr 0.98322 0.47605 -0.01989 0.0
Pr273 Pr 1.01117 0.53137 0.69155 0.0
C274 C 0.93212 0.42047 0.20673 0.0
C275 C 0.88153 0.42049 0.27154 0.0
C276 C 0.87044 0.40037 0.43407 0.0
C277 C 0.82538 0.41055 0.51071 0.0
C278 C 0.79419 0.44561 0.43321 0.0
C279 C 0.79998 0.45505 0.25601 0.0
C280 C 0.84412 0.44342 0.17612 0.0
C281 C 0.01933 0.41465 0.72999 0.0
C282 C 0.89641 0.52815 0.75479 0.0
C283 C 0.03692 0.58937 0.42502 0.0
C284 C 0.08437 0.61348 0.40796 0.0
C285 C 0.12221 0.5956 0.51245 0.0
C286 C 0.16843 0.59078 0.44191 0.0
C287 C 0.17684 0.60659 0.27185 0.0
C288 C 0.14381 0.64043 0.19828 0.0
C289 C 0.09607 0.64155 0.26145 0.0
C290 C 1.00538 0.59096 -0.02114 0.0
C291 C 0.09971 0.4954 0.92839 0.0
O292 O 0.96074 0.45602 0.25578 0.0
O293 O 0.93648 0.41096 0.04329 0.0
O294 O 0.98929 0.44904 0.69605 0.0
O295 O 0.03592 0.41727 0.88513 0.0
O296 O 0.92861 0.52821 0.62994 0.0
O297 O 0.9103 0.51666 0.91171 0.0
O298 O 0.03888 0.54162 0.4187 0.0
O299 O 1.00957 0.60461 0.55005 0.0
O300 O 0.97451 0.55909 0.94033 0.0
O301 O 0.04494 0.58404 0.89253 0.0
O302 O 0.06502 0.49394 0.04877 0.0
O303 O 0.08694 0.49799 0.76536 0.0
H304 H 0.89784 0.38044 0.50721 0.0
H305 H 0.82071 0.40063 0.64562 0.0
H306 H 0.77523 0.4797 0.19004 0.0
H307 H 0.85046 0.45612 0.04551 0.0
H308 H 0.11424 0.57622 0.63139 0.0
H309 H 0.19155 0.56301 0.49873 0.0
H310 H 0.15042 0.65541 0.07018 0.0
H311 H 0.068 0.65911 0.18559 0.0
loop_
_geom_bond_atom_site_label_1
_geom_bond_atom_site_label_2
_geom_bond_distance
_geom_bond_site_symmetry_2
_ccdc_geom_bond_type
H0 C1 0.949 . S
C1 H0 0.949 . S
C1 C2 1.395 . S
C1 C3 1.391 . S
C2 C1 1.395 . S
C2 C5 1.390 . S
C3 C1 1.391 . S
C3 C7 1.387 . S
C3 C8 1.491 . S
H4 C5 0.950 . S
C5 C2 1.390 . S
C5 H4 0.950 . S
C5 C6 1.378 . S
C6 C5 1.378 . S
C6 C7 1.409 . S
C7 C3 1.387 . S
C7 C6 1.409 . S
C7 H9 0.951 1_556 S
C8 C3 1.491 . S
C8 C10 1.382 . S
C8 C12 1.404 . S
H9 C7 0.951 1_554 S
C10 C8 1.382 . S
C10 C11 1.390 . S
C10 H15 0.949 . S
C11 C10 1.390 . S
C11 C16 1.399 . S
C12 C8 1.404 . S
C12 H13 0.950 . S
C12 C14 1.375 . S
H13 C12 0.950 . S
C14 C12 1.375 . S
C14 C16 1.382 . S
C14 H18 0.950 . S
H15 C10 0.949 . S
C16 C11 1.399 . S
C16 C14 1.382 . S
C16 H17 0.952 . S
H17 C16 0.952 . S
H18 C14 0.950 . S
H19 C20 0.949 . S
C20 H19 0.949 . S
C20 C21 1.395 . S
C20 C22 1.391 . S
C21 C20 1.395 . S
C21 C24 1.390 1_655 S
C22 C20 1.391 . S
C22 C26 1.387 . S
C22 C27 1.491 . S
H23 C24 0.950 . S
C24 C21 1.390 1_455 S
C24 H23 0.950 . S
C24 C25 1.377 1_455 S
C25 C24 1.377 1_655 S
C25 C26 1.413 . S
C26 C22 1.387 . S
C26 C25 1.413 . S
C26 H28 0.951 1_556 S
C27 C22 1.491 . S
C27 C29 1.382 . S
C27 C31 1.404 . S
H28 C26 0.951 1_554 S
C29 C27 1.382 . S
C29 C30 1.390 . S
C29 H34 0.949 1_655 S
C30 C29 1.390 . S
C30 C35 1.399 . S
C31 C27 1.404 . S
C31 H32 0.950 . S
C31 C33 1.375 . S
H32 C31 0.950 . S
C33 C31 1.375 . S
C33 C35 1.382 . S
C33 H37 0.950 . S
H34 C29 0.949 1_455 S
C35 C30 1.399 . S
C35 C33 1.382 . S
C35 H36 0.952 . S
H36 C35 0.952 . S
H37 C33 0.950 . S
H38 C39 0.949 . S
C39 H38 0.949 . S
C39 C40 1.395 . S
C39 C41 1.391 . S
C40 C39 1.395 . S
C40 C43 1.390 1_565 S
C41 C39 1.391 . S
C41 C45 1.387 . S
C41 C46 1.491 . S
H42 C43 0.950 . S
C43 C40 1.390 1_545 S
C43 H42 0.950 . S
C43 C44 1.377 1_545 S
C44 C43 1.377 1_565 S
C44 C45 1.413 . S
C45 C41 1.387 . S
C45 C44 1.413 . S
C45 H47 0.951 1_556 S
C46 C41 1.491 . S
C46 C48 1.382 . S
C46 C50 1.404 . S
H47 C45 0.951 1_554 S
C48 C46 1.382 . S
C48 C49 1.390 . S
C48 H53 0.949 1_565 S
C49 C48 1.390 . S
C49 C54 1.399 . S
C50 C46 1.404 . S
C50 H51 0.950 . S
C50 C52 1.375 . S
H51 C50 0.950 . S
C52 C50 1.375 . S
C52 C54 1.382 . S
C52 H56 0.950 . S
H53 C48 0.949 1_545 S
C54 C49 1.399 . S
C54 C52 1.382 . S
C54 H55 0.952 . S
H55 C54 0.952 . S
H56 C52 0.950 . S
H57 C58 0.949 . S
C58 H57 0.949 . S
C58 C59 1.395 . S
C58 C60 1.391 . S
C59 C58 1.395 . S
C59 C62 1.390 . S
C60 C58 1.391 . S
C60 C64 1.387 . S
C60 C65 1.491 . S
H61 C62 0.950 . S
C62 C59 1.390 . S
C62 H61 0.950 . S
C62 C63 1.378 . S
C63 C62 1.378 . S
C63 C64 1.409 . S
C64 C60 1.387 . S
C64 C63 1.409 . S
C64 H66 0.951 1_556 S
C65 C60 1.491 . S
C65 C67 1.382 . S
C65 C69 1.404 . S
H66 C64 0.951 1_554 S
C67 C65 1.382 . S
C67 C68 1.390 . S
C67 H72 0.949 . S
C68 C67 1.390 . S
C68 C73 1.399 . S
C69 C65 1.404 . S
C69 H70 0.950 . S
C69 C71 1.375 . S
H70 C69 0.950 . S
C71 C69 1.375 . S
C71 C73 1.382 . S
C71 H75 0.950 . S
H72 C67 0.949 . S
C73 C68 1.399 . S
C73 C71 1.382 . S
C73 H74 0.952 . S
H74 C73 0.952 . S
H75 C71 0.950 . S
H76 C77 0.949 . S
C77 H76 0.949 . S
C77 C78 1.395 . S
C77 C79 1.391 1_554 S
C78 C77 1.395 . S
C78 C81 1.390 1_554 S
C79 C77 1.391 1_556 S
C79 C83 1.387 . S
C79 C84 1.491 . S
H80 C81 0.950 . S
C81 C78 1.390 1_556 S
C81 H80 0.950 . S
C81 C82 1.378 . S
C82 C81 1.378 . S
C82 C83 1.409 . S
C83 C79 1.387 . S
C83 C82 1.409 . S
C83 H85 0.951 . S
C84 C79 1.491 . S
C84 C86 1.382 1_556 S
C84 C88 1.404 . S
H85 C83 0.951 . S
C86 C84 1.382 1_554 S
C86 C87 1.390 . S
C86 H91 0.949 . S
C87 C86 1.390 . S
C87 C92 1.399 1_554 S
C88 C84 1.404 . S
C88 H89 0.950 . S
C88 C90 1.375 . S
H89 C88 0.950 . S
C90 C88 1.375 . S
C90 C92 1.382 . S
C90 H94 0.950 . S
H91 C86 0.949 . S
C92 C87 1.399 1_556 S
C92 C90 1.382 . S
C92 H93 0.952 1_556 S
H93 C92 0.952 1_554 S
H94 C90 0.950 . S
H95 C96 0.949 . S
C96 H95 0.949 . S
C96 C97 1.395 . S
C96 C98 1.391 1_554 S
C97 C96 1.395 . S
C97 C100 1.390 1_654 S
C98 C96 1.391 1_556 S
C98 C102 1.387 . S
C98 C103 1.491 . S
H99 C100 0.950 . S
C100 C97 1.390 1_456 S
C100 H99 0.950 . S
C100 C101 1.377 1_455 S
C101 C100 1.377 1_655 S
C101 C102 1.412 . S
C102 C98 1.387 . S
C102 C101 1.412 . S
C102 H104 0.951 . S
C103 C98 1.491 . S
C103 C105 1.382 1_556 S
C103 C107 1.404 . S
H104 C102 0.951 . S
C105 C103 1.382 1_554 S
C105 C106 1.390 . S
C105 H110 0.949 1_655 S
C106 C105 1.390 . S
C106 C111 1.399 . S
C107 C103 1.404 . S
C107 H108 0.950 . S
C107 C109 1.375 . S
H108 C107 0.950 . S
C109 C107 1.375 . S
C109 C111 1.382 1_556 S
C109 H113 0.950 . S
H110 C105 0.949 1_455 S
C111 C106 1.399 . S
C111 C109 1.382 1_554 S
C111 H112 0.952 . S
H112 C111 0.952 . S
H113 C109 0.950 . S
H114 C115 0.949 . S
C115 H114 0.949 . S
C115 C116 1.395 . S
C115 C117 1.391 1_554 S
C116 C115 1.395 . S
C116 C119 1.390 1_564 S
C117 C115 1.391 1_556 S
C117 C121 1.387 . S
C117 C122 1.491 . S
H118 C119 0.950 . S
C119 C116 1.390 1_546 S
C119 H118 0.950 . S
C119 C120 1.377 1_545 S
C120 C119 1.377 1_565 S
C120 C121 1.412 . S
C121 C117 1.387 . S
C121 C120 1.412 . S
C121 H123 0.951 . S
C122 C117 1.491 . S
C122 C124 1.382 1_556 S
C122 C126 1.404 . S
H123 C121 0.951 . S
C124 C122 1.382 1_554 S
C124 C125 1.390 . S
C124 H129 0.949 1_565 S
C125 C124 1.390 . S
C125 C130 1.399 . S
C126 C122 1.404 . S
C126 H127 0.950 . S
C126 C128 1.375 . S
H127 C126 0.950 . S
C128 C126 1.375 . S
C128 C130 1.382 1_556 S
C128 H132 0.950 . S
H129 C124 0.949 1_545 S
C130 C125 1.399 . S
C130 C128 1.382 1_554 S
C130 H131 0.952 . S
H131 C130 0.952 . S
H132 C128 0.950 . S
H133 C134 0.949 . S
C134 H133 0.949 . S
C134 C135 1.395 . S
C134 C136 1.391 1_554 S
C135 C134 1.395 . S
C135 C138 1.390 1_554 S
C136 C134 1.391 1_556 S
C136 C140 1.387 . S
C136 C141 1.491 . S
H137 C138 0.950 . S
C138 C135 1.390 1_556 S
C138 H137 0.950 . S
C138 C139 1.378 . S
C139 C138 1.378 . S
C139 C140 1.409 . S
C140 C136 1.387 . S
C140 C139 1.409 . S
C140 H142 0.951 . S
C141 C136 1.491 . S
C141 C143 1.382 1_556 S
C141 C145 1.404 . S
H142 C140 0.951 . S
C143 C141 1.382 1_554 S
C143 C144 1.390 . S
C143 H148 0.949 . S
C144 C143 1.390 . S
C144 C149 1.399 1_554 S
C145 C141 1.404 . S
C145 H146 0.950 . S
C145 C147 1.375 . S
H146 C145 0.950 . S
C147 C145 1.375 . S
C147 C149 1.382 . S
C147 H151 0.950 . S
H148 C143 0.949 . S
C149 C144 1.399 1_556 S
C149 C147 1.382 . S
C149 H150 0.952 1_556 S
H150 C149 0.952 1_554 S
H151 C147 0.950 . S
Pr152 C154 2.880 . S
Pr152 O172 2.562 . S
Pr152 O173 2.490 . S
Pr152 O174 2.695 1_564 S
Pr152 O175 2.512 1_554 S
Pr152 O177 2.437 1_554 S
Pr152 O180 2.436 1_455 S
Pr152 O182 2.438 1_565 S
Pr153 C163 2.880 . S
Pr153 O174 2.436 1_655 S
Pr153 O176 2.438 1_545 S
Pr153 O178 2.562 . S
Pr153 O179 2.490 . S
Pr153 O180 2.695 1_546 S
Pr153 O181 2.512 . S
Pr153 O183 2.437 . S
C154 Pr152 2.880 . S
C154 C155 1.491 . S
C154 O172 1.254 . S
C154 O173 1.225 . S
C155 C154 1.491 . S
C155 C156 1.392 . S
C155 C160 1.356 . S
C156 C155 1.392 . S
C156 C157 1.368 . S
C156 H184 0.929 . S
C157 C156 1.368 . S
C157 C158 1.386 . S
C157 H185 0.929 . S
C158 C157 1.386 . S
C158 C159 1.373 . S
C159 C158 1.373 . S
C159 C160 1.409 . S
C159 H186 0.931 . S
C160 C155 1.356 . S
C160 C159 1.409 . S
C160 H187 0.930 1_455 S
C161 O174 1.270 1_565 S
C161 O175 1.248 . S
C162 O176 1.267 . S
C162 O177 1.278 1_655 S
C163 Pr153 2.880 . S
C163 C164 1.491 . S
C163 O178 1.254 . S
C163 O179 1.225 . S
C164 C163 1.491 . S
C164 C165 1.392 . S
C164 C169 1.356 . S
C165 C164 1.392 . S
C165 C166 1.368 . S
C165 H188 0.929 . S
C166 C165 1.368 . S
C166 C167 1.386 . S
C166 H189 0.929 . S
C167 C166 1.386 . S
C167 C168 1.373 . S
C168 C167 1.373 . S
C168 C169 1.409 . S
C168 H190 0.931 . S
C169 C164 1.356 . S
C169 C168 1.409 . S
C169 H191 0.930 1_655 S
C170 O180 1.270 1_545 S
C170 O181 1.248 1_554 S
C171 O182 1.267 1_556 S
C171 O183 1.278 1_455 S
O172 Pr152 2.562 . S
O172 C154 1.254 . S
O173 Pr152 2.490 . S
O173 C154 1.225 . S
O174 Pr152 2.695 1_546 S
O174 Pr153 2.436 1_455 S
O174 C161 1.270 1_545 S
O175 Pr152 2.512 1_556 S
O175 C161 1.248 . S
O176 Pr153 2.438 1_565 S
O176 C162 1.267 . S
O177 Pr152 2.437 1_556 S
O177 C162 1.278 1_455 S
O178 Pr153 2.562 . S
O178 C163 1.254 . S
O179 Pr153 2.490 . S
O179 C163 1.225 . S
O180 Pr152 2.436 1_655 S
O180 Pr153 2.695 1_564 S
O180 C170 1.270 1_565 S
O181 Pr153 2.512 . S
O181 C170 1.248 1_556 S
O182 Pr152 2.438 1_545 S
O182 C171 1.267 1_554 S
O183 Pr153 2.437 . S
O183 C171 1.278 1_655 S
H184 C156 0.929 . S
H185 C157 0.929 . S
H186 C159 0.931 . S
H187 C160 0.930 1_655 S
H188 C165 0.929 . S
H189 C166 0.929 . S
H190 C168 0.931 . S
H191 C169 0.930 1_455 S
Pr192 C194 2.880 . S
Pr192 O212 2.562 . S
Pr192 O213 2.490 . S
Pr192 O214 2.695 1_554 S
Pr192 O215 2.512 1_554 S
Pr192 O217 2.437 1_554 S
Pr192 O220 2.436 1_545 S
Pr192 O222 2.438 . S
Pr193 C203 2.880 . S
Pr193 O214 2.436 1_565 S
Pr193 O216 2.438 . S
Pr193 O218 2.562 . S
Pr193 O219 2.490 . S
Pr193 O220 2.695 1_556 S
Pr193 O221 2.512 . S
Pr193 O223 2.437 . S
C194 Pr192 2.880 . S
C194 C195 1.491 . S
C194 O212 1.254 . S
C194 O213 1.225 . S
C195 C194 1.491 . S
C195 C196 1.392 . S
C195 C200 1.356 . S
C196 C195 1.392 . S
C196 C197 1.368 . S
C196 H224 0.929 . S
C197 C196 1.368 . S
C197 C198 1.386 . S
C197 H225 0.929 . S
C198 C197 1.386 . S
C198 C199 1.373 . S
C199 C198 1.373 . S
C199 C200 1.409 . S
C199 H226 0.931 . S
C200 C195 1.356 . S
C200 C199 1.409 . S
C200 H227 0.930 1_545 S
C201 O214 1.270 . S
C201 O215 1.248 . S
C202 O216 1.267 . S
C202 O217 1.278 1_565 S
C203 Pr193 2.880 . S
C203 C204 1.491 . S
C203 O218 1.254 . S
C203 O219 1.225 . S
C204 C203 1.491 . S
C204 C205 1.392 . S
C204 C209 1.356 . S
C205 C204 1.392 . S
C205 C206 1.368 . S
C205 H228 0.929 . S
C206 C205 1.368 . S
C206 C207 1.386 . S
C206 H229 0.929 . S
C207 C206 1.386 . S
C207 C208 1.373 . S
C208 C207 1.373 . S
C208 C209 1.409 . S
C208 H230 0.931 . S
C209 C204 1.356 . S
C209 C208 1.409 . S
C209 H231 0.930 1_565 S
C210 O220 1.270 . S
C210 O221 1.248 1_554 S
C211 O222 1.267 1_556 S
C211 O223 1.278 1_545 S
O212 Pr192 2.562 . S
O212 C194 1.254 . S
O213 Pr192 2.490 . S
O213 C194 1.225 . S
O214 Pr192 2.695 1_556 S
O214 Pr193 2.436 1_545 S
O214 C201 1.270 . S
O215 Pr192 2.512 1_556 S
O215 C201 1.248 . S
O216 Pr193 2.438 . S
O216 C202 1.267 . S
O217 Pr192 2.437 1_556 S
O217 C202 1.278 1_545 S
O218 Pr193 2.562 . S
O218 C203 1.254 . S
O219 Pr193 2.490 . S
O219 C203 1.225 . S
O220 Pr192 2.436 1_565 S
O220 Pr193 2.695 1_554 S
O220 C210 1.270 . S
O221 Pr193 2.512 . S
O221 C210 1.248 1_556 S
O222 Pr192 2.438 . S
O222 C211 1.267 1_554 S
O223 Pr193 2.437 . S
O223 C211 1.278 1_565 S
H224 C196 0.929 . S
H225 C197 0.929 . S
H226 C199 0.931 . S
H227 C200 0.930 1_565 S
H228 C205 0.929 . S
H229 C206 0.929 . S
H230 C208 0.931 . S
H231 C209 0.930 1_545 S
Pr232 C234 2.880 . S
Pr232 O252 2.562 . S
Pr232 O253 2.490 . S
Pr232 O254 2.695 1_554 S
Pr232 O255 2.512 1_554 S
Pr232 O257 2.437 1_554 S
Pr232 O260 2.436 . S
Pr232 O262 2.438 . S
Pr233 C243 2.880 . S
Pr233 O254 2.436 . S
Pr233 O256 2.438 . S
Pr233 O258 2.562 . S
Pr233 O259 2.490 . S
Pr233 O260 2.695 1_556 S
Pr233 O261 2.512 . S
Pr233 O263 2.437 . S
C234 Pr232 2.880 . S
C234 C235 1.491 . S
C234 O252 1.254 . S
C234 O253 1.225 . S
C235 C234 1.491 . S
C235 C236 1.392 . S
C235 C240 1.356 . S
C236 C235 1.392 . S
C236 C237 1.368 . S
C236 H264 0.929 . S
C237 C236 1.368 . S
C237 C238 1.386 . S
C237 H265 0.929 . S
C238 C237 1.386 . S
C238 C239 1.373 . S
C239 C238 1.373 . S
C239 C240 1.409 . S
C239 H266 0.931 . S
C240 C235 1.356 . S
C240 C239 1.409 . S
C240 H267 0.930 . S
C241 O254 1.270 . S
C241 O255 1.248 . S
C242 O256 1.267 . S
C242 O257 1.278 . S
C243 Pr233 2.880 . S
C243 C244 1.491 . S
C243 O258 1.254 . S
C243 O259 1.225 . S
C244 C243 1.491 . S
C244 C245 1.392 . S
C244 C249 1.356 . S
C245 C244 1.392 . S
C245 C246 1.368 . S
C245 H268 0.929 . S
C246 C245 1.368 . S
C246 C247 1.386 . S
C246 H269 0.929 . S
C247 C246 1.386 . S
C247 C248 1.373 . S
C248 C247 1.373 . S
C248 C249 1.409 . S
C248 H270 0.931 . S
C249 C244 1.356 . S
C249 C248 1.409 . S
C249 H271 0.930 . S
C250 O260 1.270 . S
C250 O261 1.248 1_554 S
C251 O262 1.267 1_556 S
C251 O263 1.278 . S
O252 Pr232 2.562 . S
O252 C234 1.254 . S
O253 Pr232 2.490 . S
O253 C234 1.225 . S
O254 Pr232 2.695 1_556 S
O254 Pr233 2.436 . S
O254 C241 1.270 . S
O255 Pr232 2.512 1_556 S
O255 C241 1.248 . S
O256 Pr233 2.438 . S
O256 C242 1.267 . S
O257 Pr232 2.437 1_556 S
O257 C242 1.278 . S
O258 Pr233 2.562 . S
O258 C243 1.254 . S
O259 Pr233 2.490 . S
O259 C243 1.225 . S
O260 Pr232 2.436 . S
O260 Pr233 2.695 1_554 S
O260 C250 1.270 . S
O261 Pr233 2.512 . S
O261 C250 1.248 1_556 S
O262 Pr232 2.438 . S
O262 C251 1.267 1_554 S
O263 Pr233 2.437 . S
O263 C251 1.278 . S
H264 C236 0.929 . S
H265 C237 0.929 . S
H266 C239 0.931 . S
H267 C240 0.930 . S
H268 C245 0.929 . S
H269 C246 0.929 . S
H270 C248 0.931 . S
H271 C249 0.930 . S
Pr272 C274 2.880 . S
Pr272 O292 2.562 . S
Pr272 O293 2.490 . S
Pr272 O294 2.695 1_654 S
Pr272 O295 2.512 1_554 S
Pr272 O297 2.437 1_554 S
Pr272 O300 2.436 . S
Pr272 O302 2.438 1_655 S
Pr273 C283 2.880 . S
Pr273 O294 2.436 . S
Pr273 O296 2.438 1_455 S
Pr273 O298 2.562 . S
Pr273 O299 2.490 . S
Pr273 O300 2.695 1_456 S
Pr273 O301 2.512 . S
Pr273 O303 2.437 . S
C274 Pr272 2.880 . S
C274 C275 1.491 . S
C274 O292 1.254 . S
C274 O293 1.225 . S
C275 C274 1.491 . S
C275 C276 1.392 . S
C275 C280 1.356 . S
C276 C275 1.392 . S
C276 C277 1.368 . S
C276 H304 0.929 . S
C277 C276 1.368 . S
C277 C278 1.386 . S
C277 H305 0.929 . S
C278 C277 1.386 . S
C278 C279 1.373 . S
C279 C278 1.373 . S
C279 C280 1.409 . S
C279 H306 0.931 . S
C280 C275 1.356 . S
C280 C279 1.409 . S
C280 H307 0.930 . S
C281 O294 1.266 1_655 S
C281 O295 1.254 . S
C282 O296 1.267 . S
C282 O297 1.278 . S
C283 Pr273 2.880 . S
C283 C284 1.491 . S
C283 O298 1.254 . S
C283 O299 1.225 . S
C284 C283 1.491 . S
C284 C285 1.392 . S
C284 C289 1.356 . S
C285 C284 1.392 . S
C285 C286 1.368 . S
C285 H308 0.929 . S
C286 C285 1.368 . S
C286 C287 1.386 . S
C286 H309 0.929 . S
C287 C286 1.386 . S
C287 C288 1.373 . S
C288 C287 1.373 . S
C288 C289 1.409 . S
C288 H310 0.931 . S
C289 C284 1.356 . S
C289 C288 1.409 . S
C289 H311 0.930 . S
C290 O300 1.265 1_455 S
C290 O301 1.257 1_554 S
C291 O302 1.267 1_556 S
C291 O303 1.278 . S
O292 Pr272 2.562 . S
O292 C274 1.254 . S
O293 Pr272 2.490 . S
O293 C274 1.225 . S
O294 Pr272 2.695 1_456 S
O294 Pr273 2.436 . S
O294 C281 1.266 1_455 S
O295 Pr272 2.512 1_556 S
O295 C281 1.254 . S
O296 Pr273 2.438 1_655 S
O296 C282 1.267 . S
O297 Pr272 2.437 1_556 S
O297 C282 1.278 . S
O298 Pr273 2.562 . S
O298 C283 1.254 . S
O299 Pr273 2.490 . S
O299 C283 1.225 . S
O300 Pr272 2.436 . S
O300 Pr273 2.695 1_654 S
O300 C290 1.265 1_655 S
O301 Pr273 2.512 . S
O301 C290 1.257 1_556 S
O302 Pr272 2.438 1_455 S
O302 C291 1.267 1_554 S
O303 Pr273 2.437 . S
O303 C291 1.278 . S
H304 C276 0.929 . S
H305 C277 0.929 . S
H306 C279 0.931 . S
H307 C280 0.930 . S
H308 C285 0.929 . S
H309 C286 0.929 . S
H310 C288 0.931 . S
H311 C289 0.930 . S
C125 C161 3.032 1_554 S
C201 C144 3.086 1_556 S
C241 C87 3.106 1_556 S
C281 C106 3.034 1_556 S
C170 C49 3.059 1_544 S
C68 C210 3.003 1_556 S
C11 C250 3.001 1_556 S
C30 C290 3.035 1_656 S
C167 C97 2.261 . S
C207 C116 2.131 . S
C247 C135 1.988 . S
C78 C287 2.100 . S
C21 C158 2.271 1_655 S
C198 C40 2.143 1_545 S
C238 C59 2.001 . S
C2 C278 2.111 . S
C101 C171 3.966 1_655 S
C120 C211 3.896 1_565 S
C251 C139 3.909 . S
C291 C82 3.976 . S
C25 C162 3.970 . S
C202 C44 3.895 . S
C242 C63 3.899 . S
C6 C282 3.971 . S
