# Generated by pormake.
# Topology zzz, (3,6)-cn, num edge types: 1
# Building blocks:
#     Node 0, Type 0, BuildingBlock: BETDAH_clean_linker_0, # of connection points: 3
#     Node 1, Type 0, BuildingBlock: BETDAH_clean_linker_0, # of connection points: 3
#     Node 2, Type 0, BuildingBlock: BETDAH_clean_linker_0, # of connection points: 3
#     Node 3, Type 0, BuildingBlock: BETDAH_clean_linker_0, # of connection points: 3
#     Node 4, Type 0, BuildingBlock: BETDAH_clean_linker_0, # of connection points: 3
#     Node 5, Type 0, BuildingBlock: BETDAH_clean_linker_0, # of connection points: 3
#     Node 6, Type 0, BuildingBlock: BETDAH_clean_linker_0, # of connection points: 3
#     Node 7, Type 0, BuildingBlock: BETDAH_clean_linker_0, # of connection points: 3
#     Node 8, Type 1, BuildingBlock: BETDEL_clean_sbu_0, # of connection points: 6
#     Node 9, Type 1, BuildingBlock: BETDEL_clean_sbu_0, # of connection points: 6
#     Node 10, Type 1, BuildingBlock: BETDEL_clean_sbu_0, # of connection points: 6
#     Node 11, Type 1, BuildingBlock: BETDEL_clean_sbu_0, # of connection points: 6
#     Edge 12, Type (0, 1), BuildingBlock: CIFDUS_clean_linker_0, # of connection points: 2
#     Edge 13, Type (0, 1), BuildingBlock: CIFDUS_clean_linker_0, # of connection points: 2
#     Edge 14, Type (0, 1), BuildingBlock: CIFDUS_clean_linker_0, # of connection points: 2
#     Edge 15, Type (0, 1), BuildingBlock: CIFDUS_clean_linker_0, # of connection points: 2
#     Edge 16, Type (0, 1), BuildingBlock: CIFDUS_clean_linker_0, # of connection points: 2
#     Edge 17, Type (0, 1), BuildingBlock: CIFDUS_clean_linker_0, # of connection points: 2
#     Edge 18, Type (0, 1), BuildingBlock: CIFDUS_clean_linker_0, # of connection points: 2
#     Edge 19, Type (0, 1), BuildingBlock: CIFDUS_clean_linker_0, # of connection points: 2
#     Edge 20, Type (0, 1), BuildingBlock: CIFDUS_clean_linker_0, # of connection points: 2
#     Edge 21, Type (0, 1), BuildingBlock: CIFDUS_clean_linker_0, # of connection points: 2
#     Edge 22, Type (0, 1), BuildingBlock: CIFDUS_clean_linker_0, # of connection points: 2
#     Edge 23, Type (0, 1), BuildingBlock: CIFDUS_clean_linker_0, # of connection points: 2
#     Edge 24, Type (0, 1), BuildingBlock: CIFDUS_clean_linker_0, # of connection points: 2
#     Edge 25, Type (0, 1), BuildingBlock: CIFDUS_clean_linker_0, # of connection points: 2
#     Edge 26, Type (0, 1), BuildingBlock: CIFDUS_clean_linker_0, # of connection points: 2
#     Edge 27, Type (0, 1), BuildingBlock: CIFDUS_clean_linker_0, # of connection points: 2
#     Edge 28, Type (0, 1), BuildingBlock: CIFDUS_clean_linker_0, # of connection points: 2
#     Edge 29, Type (0, 1), BuildingBlock: CIFDUS_clean_linker_0, # of connection points: 2
#     Edge 30, Type (0, 1), BuildingBlock: CIFDUS_clean_linker_0, # of connection points: 2
#     Edge 31, Type (0, 1), BuildingBlock: CIFDUS_clean_linker_0, # of connection points: 2
#     Edge 32, Type (0, 1), BuildingBlock: CIFDUS_clean_linker_0, # of connection points: 2
#     Edge 33, Type (0, 1), BuildingBlock: CIFDUS_clean_linker_0, # of connection points: 2
#     Edge 34, Type (0, 1), BuildingBlock: CIFDUS_clean_linker_0, # of connection points: 2
#     Edge 35, Type (0, 1), BuildingBlock: CIFDUS_clean_linker_0, # of connection points: 2
# Relax obj value: 0.162
# Max RMSD: 0.178
# Mean RMSD: 0.118
data_MOF--net-zzz--node1-BETDEL_clean_sbu_0--node2-BETDAH_clean_linker_0--edge1-CIFDUS_clean_linker_0
_symmetry_space_group_name_H-M    P1
_symmetry_Int_Tables_number       1
_symmetry_cell_setting            triclinic
loop_
_symmetry_equiv_pos_as_xyz
'x, y, z'
_cell_length_a     43.044002
_cell_length_b     44.193733
_cell_length_c     13.311107
_cell_angle_alpha  90.784907
_cell_angle_beta   88.12453
_cell_angle_gamma 95.105471
loop_
_atom_site_label
_atom_site_type_symbol
_atom_site_fract_x
_atom_site_fract_y
_atom_site_fract_z
_atom_type_partial_charge
H0 H 0.85095 0.50042 0.0664 0.0
H1 H 0.76814 0.49959 0.89335 0.0
H2 H 0.78021 0.55822 0.15467 0.0
C3 C 0.82783 0.50757 0.05566 0.0
C4 C 0.81734 0.52957 0.12094 0.0
C5 C 0.81049 0.49641 0.97368 0.0
C6 C 0.78146 0.50766 0.95752 0.0
C7 C 0.77015 0.52984 0.02341 0.0
C8 C 0.78842 0.54085 0.10482 0.0
N9 N 0.74109 0.54212 0.00911 0.0
C10 C 0.72039 0.53404 0.93243 0.0
H11 H 0.03114 0.82808 0.08629 0.0
H12 H 1.01153 0.7407 0.94929 0.0
H13 H 0.97909 0.75726 0.25413 0.0
C14 C 0.0219 0.80447 0.09298 0.0
C15 C 1.00396 0.79549 0.17824 0.0
C16 C 0.02339 0.78542 0.00901 0.0
C17 C 1.01095 0.75512 0.0156 0.0
C18 C 0.99661 0.74419 0.10685 0.0
C19 C 0.99244 0.76481 0.18728 0.0
N20 N 0.9844 0.71333 0.1175 0.0
C21 C 0.98567 0.69162 0.04084 0.0
H22 H 0.68238 0.03777 0.08176 0.0
H23 H 0.77129 0.02488 0.93969 0.0
H24 H 0.74327 0.97972 0.21872 0.0
C25 C 0.70474 0.0282 0.08281 0.0
C26 C 0.71012 1.00848 0.16012 0.0
C27 C 0.7265 0.03414 0.00339 0.0
C28 C 0.75485 0.0207 0.00235 0.0
C29 C 0.76146 1.00134 0.08068 0.0
C30 C 0.73867 0.99496 0.15902 0.0
N31 N 0.79028 0.98755 0.08161 0.0
C32 C 0.81511 0.99237 0.01091 0.0
H33 H 0.55217 0.69796 0.07161 0.0
H34 H 0.53563 0.78779 -0.01491 0.0
H35 H 0.53239 0.76371 0.29952 0.0
C36 C 0.54737 0.72089 0.09296 0.0
C37 C 0.54105 0.72743 0.19396 0.0
C38 C 0.54416 0.74193 0.01747 0.0
C39 C 0.53854 0.77171 0.04397 0.0
C40 C 0.5361 0.78024 0.14647 0.0
C41 C 0.53647 0.75773 0.22131 0.0
N42 N 0.53201 0.81082 0.17573 0.0
C43 C 0.53293 0.83482 0.10812 0.0
H44 H 0.19278 0.52895 0.01531 0.0
H45 H 0.27523 0.52903 0.18996 0.0
H46 H 0.26245 0.46958 0.93102 0.0
C47 C 0.21576 0.52154 0.02668 0.0
C48 C 0.22593 0.49912 0.96245 0.0
C49 C 0.23307 0.53261 0.1089 0.0
C50 C 0.26192 0.52105 0.12568 0.0
C51 C 0.27292 0.49845 0.06089 0.0
C52 C 0.25453 0.48736 0.9798 0.0
N53 N 0.3016 0.48559 0.07657 0.0
C54 C 0.32353 0.49508 0.14839 0.0
H55 H 0.03474 0.18785 0.05579 0.0
H56 H 0.032 0.27833 0.17049 0.0
H57 H 0.02329 0.26 0.85156 0.0
C58 C 0.033 0.21179 0.04189 0.0
C59 C 0.02751 0.22101 0.94496 0.0
C60 C 0.03413 0.232 0.12308 0.0
C61 C 0.03194 0.26293 0.1067 0.0
C62 C 0.02939 0.27349 0.00756 0.0
C63 C 0.02665 0.25225 0.92696 0.0
N64 N 0.0288 0.30499 -0.01293 0.0
C65 C 0.03352 0.32796 0.05937 0.0
H66 H 0.33741 0.97365 0.01291 0.0
H67 H 0.24892 0.98217 0.16408 0.0
H68 H 0.28024 0.04215 0.92016 0.0
C69 C 0.31552 0.98408 0.01881 0.0
C70 C 0.31178 1.00885 0.95779 0.0
C71 C 0.29335 0.97449 0.09378 0.0
C72 C 0.26562 0.98895 0.10417 0.0
C73 C 0.26024 0.01296 0.03995 0.0
C74 C 0.28359 0.02289 0.96683 0.0
N75 N 0.23258 0.02858 0.05036 0.0
C76 C 0.20761 0.02163 0.11902 0.0
H77 H 0.46755 0.33076 0.09666 0.0
H78 H 0.49645 0.24546 0.18825 0.0
H79 H 0.50189 0.26988 0.87445 0.0
C80 C 0.47598 0.30898 0.07708 0.0
C81 C 0.48555 0.30377 0.97767 0.0
C82 C 0.48147 0.28901 0.1538 0.0
C83 C 0.49183 0.2607 0.12855 0.0
C84 C 0.49733 0.25281 0.02673 0.0
C85 C 0.49513 0.27488 0.95157 0.0
N86 N 0.50679 0.22365 -0.001 0.0
C87 C 0.50922 0.20038 0.06757 0.0
Dy88 Dy 0.0173 0.9883 0.64674 0.0
C89 C 0.0219 0.07627 0.34479 0.0
C90 C 1.0146 0.93822 0.76446 0.0
Dy91 Dy 1.00313 0.02858 0.46475 0.0
O92 O 0.04014 0.95251 0.7287 0.0
O93 O 0.99089 0.95284 0.74274 0.0
O94 O 0.06762 1.00659 0.62868 0.0
O95 O 0.04016 1.00016 0.50136 0.0
C96 C 0.06694 1.00952 0.53153 0.0
C97 C 0.95141 0.01919 0.58617 0.0
O98 O 0.99619 0.9838 0.38414 0.0
O99 O 0.99969 0.95491 0.52851 0.0
O100 O 0.99347 0.06328 0.35032 0.0
O101 O 0.0401 0.06162 0.39826 0.0
O102 O 0.95202 0.03386 0.50174 0.0
O103 O 0.9781 0.01006 0.5959 0.0
O104 O 1.01164 0.03162 0.73093 0.0
O105 O 0.01937 0.06102 0.58738 0.0
C106 C 0.99445 0.95726 0.4313 0.0
C107 C 0.01627 0.05838 0.68613 0.0
Dy108 Dy 0.48241 0.98542 0.49233 0.0
C109 C 0.59944 0.03783 0.63676 0.0
C110 C 0.42333 0.96465 0.44327 0.0
Dy111 Dy 0.53802 0.02453 0.60228 0.0
O112 O 0.44791 0.96289 0.38431 0.0
O113 O 0.43121 0.97787 0.52728 0.0
O114 O 0.51834 0.95703 0.41722 0.0
O115 O 0.53052 1.00223 0.45792 0.0
C116 C 0.54122 0.9784 0.42373 0.0
C117 C 0.48272 0.02941 0.70102 0.0
O118 O 0.5276 0.05705 0.48129 0.0
O119 O 0.48202 0.03118 0.41934 0.0
O120 O 0.58658 0.01147 0.60933 0.0
O121 O 0.57843 0.05728 0.64874 0.0
O122 O 0.50909 0.04278 0.73175 0.0
O123 O 0.48865 0.0148 0.62169 0.0
O124 O 0.4899 0.95465 0.61867 0.0
O125 O 0.53602 0.97895 0.67969 0.0
C126 C 0.50299 0.05531 0.42227 0.0
C127 C 0.51389 0.95588 0.67901 0.0
Dy128 Dy 0.50333 0.53742 0.673 0.0
C129 C 0.50187 0.4437 0.3869 0.0
C130 C 0.51822 0.58804 0.78534 0.0
Dy131 Dy 0.51638 0.4942 0.49986 0.0
O132 O 0.48995 0.57858 0.76052 0.0
O133 O 0.53736 0.5684 0.75658 0.0
O134 O 0.45159 0.52572 0.66165 0.0
O135 O 0.48098 0.52548 0.53206 0.0
C136 C 0.45332 0.51946 0.56558 0.0
C137 C 0.56597 0.5114 0.61166 0.0
O138 O 0.52111 0.5368 0.40917 0.0
O139 O 0.52451 0.56814 0.55021 0.0
O140 O 0.53014 0.45374 0.40988 0.0
O141 O 0.48234 0.46271 0.41801 0.0
O142 O 0.56859 0.505 0.51587 0.0
O143 O 0.53795 0.5058 0.64097 0.0
O144 O 0.49869 0.49471 0.76368 0.0
O145 O 0.49539 0.4633 0.62269 0.0
C146 C 0.52627 0.56413 0.45152 0.0
C147 C 0.49363 0.4673 0.72148 0.0
Dy148 Dy 1.00647 0.49128 0.60963 0.0
C149 C 0.08064 0.56971 0.35578 0.0
C150 C 0.96258 0.45829 0.72686 0.0
Dy151 Dy 0.0367 0.53667 0.47269 0.0
O152 O 0.96762 0.45453 0.63143 0.0
O153 O 0.9824 0.47984 0.75944 0.0
O154 O 0.03246 0.45489 0.5377 0.0
O155 O 0.01818 0.48946 0.44778 0.0
C156 C 0.03267 0.46573 0.44747 0.0
C157 C 1.00953 0.56207 0.63308 0.0
O158 O 0.99016 0.5348 0.4014 0.0
O159 O 0.966 0.51179 0.54139 0.0
O160 O 0.07558 0.57341 0.45123 0.0
O161 O 0.06083 0.54817 0.32298 0.0
O162 O 1.0105 0.57315 0.54308 0.0
O163 O 0.02445 0.53863 0.63415 0.0
O164 O 0.05299 0.49311 0.6809 0.0
O165 O 0.07713 0.51609 0.54093 0.0
C166 C 0.96453 0.5248 0.45279 0.0
C167 C 0.07862 0.50313 0.62959 0.0
H168 H 0.2012 0.0341 0.31863 0.0
H169 H 0.15057 0.99921 0.06207 0.0
H170 H 0.10208 0.99348 0.1648 0.0
H171 H 0.07382 0.99836 0.32877 0.0
H172 H 0.12483 0.0323 0.58626 0.0
H173 H 0.17296 0.03869 0.48293 0.0
C174 C 0.17954 0.02506 0.2857 0.0
C175 C 0.17943 0.01685 0.18314 0.0
C176 C 0.15165 0.0219 0.34553 0.0
C177 C 0.15123 1.00544 0.14104 0.0
C178 C 0.12347 1.00229 0.19975 0.0
C179 C 0.09544 1.00733 0.36205 0.0
C180 C 0.09559 0.01491 0.46541 0.0
C181 C 0.12331 0.01051 0.30216 0.0
C182 C 0.12394 0.02629 0.50715 0.0
C183 C 0.15156 0.02989 0.44803 0.0
H184 H 0.47056 0.14957 0.09376 0.0
H185 H 0.55425 0.19801 0.20231 0.0
H186 H 0.55972 0.15764 0.32366 0.0
H187 H 0.54093 0.10822 0.39756 0.0
H188 H 0.45687 0.05994 0.28791 0.0
H189 H 0.45133 0.10037 0.16916 0.0
C190 C 0.48993 0.15117 0.14421 0.0
C191 C 0.51205 0.17649 0.1395 0.0
C192 C 0.49284 0.12787 0.21372 0.0
C193 C 0.53703 0.17856 0.20492 0.0
C194 C 0.54013 0.15552 0.27421 0.0
C195 C 0.52128 0.10651 0.34799 0.0
C196 C 0.49937 0.08082 0.35233 0.0
C197 C 0.51821 0.13 0.27922 0.0
C198 C 0.47414 0.07923 0.28699 0.0
C199 C 0.47095 0.10245 0.21863 0.0
H200 H 0.3234 0.49371 0.35242 0.0
H201 H 0.38274 0.51107 0.08903 0.0
H202 H 0.4285 0.51949 0.19398 0.0
H203 H 0.45189 0.52138 0.36088 0.0
H204 H 0.39268 0.50483 0.62544 0.0
H205 H 0.34688 0.49651 0.52079 0.0
C206 C 0.34636 0.4996 0.31854 0.0
C207 C 0.34981 0.50203 0.21342 0.0
C208 C 0.37265 0.50433 0.37968 0.0
C209 C 0.3796 0.50936 0.16994 0.0
C210 C 0.40577 0.51404 0.2299 0.0
C211 C 0.42896 0.51585 0.39564 0.0
C212 C 0.42576 0.51364 0.50104 0.0
C213 C 0.40265 0.51144 0.33485 0.0
C214 C 0.39583 0.50666 0.54468 0.0
C215 C 0.3696 0.50194 0.48473 0.0
H216 H 0.01764 0.38554 0.05216 0.0
H217 H 0.06072 0.32277 0.23664 0.0
H218 H 0.06659 0.36101 0.37089 0.0
H219 H 0.05681 0.41125 0.43938 0.0
H220 H 1.01388 0.47457 0.25616 0.0
H221 H 1.0112 0.4376 0.11718 0.0
C222 C 0.02847 0.38046 0.12171 0.0
C223 C 0.0384 0.35141 0.13566 0.0
C224 C 0.0319 0.4027 0.19842 0.0
C225 C 0.05257 0.34491 0.22518 0.0
C226 C 0.05603 0.3668 0.30171 0.0
C227 C 0.04722 0.41711 0.36859 0.0
C228 C 0.03536 0.44553 0.35836 0.0
C229 C 0.04541 0.39562 0.2897 0.0
C230 C 0.02316 0.45285 0.26598 0.0
C231 C 0.02145 0.43163 0.1867 0.0
H232 H 0.81997 0.01369 0.82023 0.0
H233 H 0.87263 0.97733 0.05252 0.0
H234 H 0.91971 0.98137 0.94263 0.0
H235 H 0.94636 0.9959 0.779 0.0
H236 H 0.89297 0.03266 0.54854 0.0
H237 H 0.84629 0.02783 0.65772 0.0
C238 C 0.8418 1.0067 0.84657 0.0
C239 C 0.84289 0.9953 0.94433 0.0
C240 C 0.86883 1.00912 0.78273 0.0
C241 C 0.87127 0.98625 0.97753 0.0
C242 C 0.89821 0.98853 0.91459 0.0
C243 C 0.92445 1.00259 0.7526 0.0
C244 C 0.9233 0.01447 0.65506 0.0
C245 C 0.89736 0.99996 0.81674 0.0
C246 C 0.89468 0.02337 0.62284 0.0
C247 C 0.86784 0.02067 0.68545 0.0
H248 H 0.49989 0.8364 0.94117 0.0
H249 H 0.5678 0.8887 0.11806 0.0
H250 H 0.56896 0.9309 -0.00063 0.0
H251 H 0.54985 0.95314 0.84544 0.0
H252 H 0.48097 0.90033 0.67165 0.0
H253 H 0.4811 0.85837 0.78792 0.0
C254 C 0.51493 0.85708 0.95328 0.0
C255 C 0.53373 0.85963 0.03758 0.0
C256 C 0.51532 0.88119 0.88502 0.0
C257 C 0.55315 0.88638 0.05321 0.0
C258 C 0.5538 0.91046 -0.01461 0.0
C259 C 0.53501 0.9324 0.83267 0.0
C260 C 0.51541 0.93012 0.74947 0.0
C261 C 0.53492 0.90817 0.9009 0.0
C262 C 0.49621 0.903 0.73493 0.0
C263 C 0.49625 0.87885 0.80151 0.0
H264 H 0.65881 0.52886 0.97183 0.0
H265 H 0.72752 0.52757 0.72995 0.0
H266 H 0.6859 0.52097 0.60709 0.0
H267 H 0.62934 0.51601 0.56893 0.0
H268 H 0.56144 0.51663 0.81459 0.0
H269 H 0.603 0.52327 0.93461 0.0
C270 C 0.66458 0.52693 0.89215 0.0
C271 C 0.69602 0.52849 0.85958 0.0
C272 C 0.64055 0.52328 0.82243 0.0
C273 C 0.70337 0.52622 0.75644 0.0
C274 C 0.67957 0.52255 0.68633 0.0
C275 C 0.62372 0.5177 0.64868 0.0
C276 C 0.59219 0.51615 0.68225 0.0
C277 C 0.64799 0.52117 0.71834 0.0
C278 C 0.58538 0.51813 0.78612 0.0
C279 C 0.60919 0.52178 0.85522 0.0
H280 H 1.00181 0.63402 0.04677 0.0
H281 H 0.97182 0.7016 0.85014 0.0
H282 H 0.97462 0.66649 0.70677 0.0
H283 H 0.98736 0.61741 0.63662 0.0
H284 H 0.0184 0.5496 0.83083 0.0
H285 H 1.01303 0.58364 0.97627 0.0
C286 C 0.99581 0.64084 0.97238 0.0
C287 C 0.98671 0.67019 0.95803 0.0
C288 C 0.99758 0.62049 0.89032 0.0
C289 C 0.97893 0.67904 0.86211 0.0
C290 C 0.98051 0.65899 0.7804 0.0
C291 C 0.99274 0.60996 0.71088 0.0
C292 C 1.00341 0.58108 0.7229 0.0
C293 C 0.99002 0.62977 0.79348 0.0
C294 C 1.01017 0.57174 0.81965 0.0
C295 C 1.00722 0.59124 0.9027 0.0
H296 H 0.07993 0.2048 0.20849 0.0
H297 H 0.98455 0.22496 0.25363 0.0
H298 H 0.97132 0.17528 0.32956 0.0
H299 H 0.98442 0.12224 0.34398 0.0
H300 H 0.07927 0.10106 0.28687 0.0
H301 H 0.09503 0.15438 0.24916 0.0
C302 C 0.05672 0.19891 0.2407 0.0
C303 C 0.03302 0.21794 0.22294 0.0
C304 C 0.04875 0.16924 0.27451 0.0
C305 C 1.0031 0.21049 0.26567 0.0
C306 C 0.9953 0.18163 0.30576 0.0
C307 C 1.00844 0.12934 0.32221 0.0
C308 C 0.03048 0.10775 0.31383 0.0
C309 C 0.0174 0.16009 0.30288 0.0
C310 C 0.0618 0.11728 0.29029 0.0
C311 C 0.07088 0.14777 0.27042 0.0
H312 H 0.29318 0.98531 0.29387 0.0
H313 H 0.3187 0.92006 0.06956 0.0
H314 H 0.36186 0.90719 0.17058 0.0
H315 H 0.4003 0.92613 0.29646 0.0
H316 H 0.37355 0.99015 0.52286 0.0
H317 H 0.32282 0.99185 0.44799 0.0
C318 C 0.307 0.96699 0.2698 0.0
C319 C 0.30382 0.95467 0.17257 0.0
C320 C 0.33237 0.96048 0.32679 0.0
C321 C 0.32137 0.93043 0.14337 0.0
C322 C 0.34644 0.92349 0.2002 0.0
C323 C 0.38295 0.93971 0.33076 0.0
C324 C 0.39081 0.95887 0.4126 0.0
C325 C 0.35363 0.94028 0.28772 0.0
C326 C 0.36804 0.97575 0.4585 0.0
C327 C 0.33903 0.97671 0.4157 0.0
H328 H 0.43776 0.31661 0.26309 0.0
H329 H 0.53275 0.29381 0.2687 0.0
H330 H 0.54825 0.34225 0.35079 0.0
H331 H 0.53731 0.3958 0.37649 0.0
H332 H 0.4434 0.42053 0.34506 0.0
H333 H 0.42525 0.36763 0.31123 0.0
C334 C 0.4615 0.32171 0.28739 0.0
C335 C 0.48434 0.30254 0.25563 0.0
C336 C 0.47086 0.35104 0.32229 0.0
C337 C 0.51482 0.30861 0.29001 0.0
C338 C 0.52392 0.3368 0.33383 0.0
C339 C 0.51294 0.38954 0.36171 0.0
C340 C 0.49189 0.41204 0.35994 0.0
C341 C 0.50267 0.35908 0.3418 0.0
C342 C 0.46018 0.40363 0.34395 0.0
C343 C 0.44969 0.37335 0.32617 0.0
H344 H 0.19844 0.57951 0.07072 0.0
H345 H 0.23124 0.52874 0.31443 0.0
H346 H 0.18812 0.54335 0.42258 0.0
H347 H 0.13447 0.55774 0.43118 0.0
H348 H 0.09544 0.59598 0.1732 0.0
H349 H 0.14664 0.59824 0.085 0.0
C350 C 0.19649 0.57222 0.14836 0.0
C351 C 0.21734 0.55209 0.1832 0.0
C352 C 0.16962 0.57748 0.20575 0.0
C353 C 0.21542 0.5439 0.28497 0.0
C354 C 0.19032 0.55173 0.34627 0.0
C355 C 0.13753 0.56743 0.35691 0.0
C356 C 0.11161 0.57688 0.30848 0.0
C357 C 0.16621 0.56649 0.30493 0.0
C358 C 0.11528 0.58869 0.21138 0.0
C359 C 0.14447 0.58992 0.16136 0.0
H360 H 0.9795 0.80363 0.89642 0.0
H361 H 0.07912 0.80599 0.91861 0.0
H362 H 0.08544 0.85558 0.83676 0.0
H363 H 0.06164 0.90247 0.79404 0.0
H364 H 0.96131 0.90217 0.80036 0.0
H365 H 0.95597 0.84828 0.84083 0.0
C366 C 1.00264 0.81433 0.87801 0.0
C367 C 0.0288 0.80134 0.91296 0.0
C368 C 1.00572 0.84415 0.84258 0.0
C369 C 0.05872 0.81546 0.89085 0.0
C370 C 0.06221 0.84424 0.84716 0.0
C371 C 0.03866 0.89055 0.80469 0.0
C372 C 1.01191 0.90634 0.79651 0.0
C373 C 0.03576 0.8596 0.82929 0.0
C374 C 0.98224 0.89063 0.80861 0.0
C375 C 0.97916 0.85973 0.83031 0.0
H376 H 0.72428 0.01281 0.81362 0.0
H377 H 0.70353 0.08972 -0.00204 0.0
H378 H 0.66451 0.10257 0.88014 0.0
H379 H 0.62686 0.08276 0.75423 0.0
H380 H 0.64554 1.00315 0.57956 0.0
H381 H 0.69498 1.00081 0.66185 0.0
C382 C 0.71238 0.03329 0.82504 0.0
C383 C 0.71607 0.04989 0.915 0.0
C384 C 0.68882 0.03945 0.76004 0.0
C385 C 0.70064 0.07643 0.92935 0.0
C386 C 0.67802 0.08351 0.86277 0.0
C387 C 0.64235 0.06562 0.73196 0.0
C388 C 0.63235 0.04262 0.66371 0.0
C389 C 0.67029 0.06377 0.78232 0.0
C390 C 0.65257 0.02065 0.63409 0.0
C391 C 0.68083 0.01927 0.68114 0.0
H392 H 0.58611 0.71397 0.90341 0.0
H393 H 0.49186 0.73903 0.90782 0.0
H394 H 0.47437 0.69084 0.82693 0.0
H395 H 0.48383 0.63687 0.79909 0.0
H396 H 0.57731 0.61009 0.82241 0.0
H397 H 0.59692 0.66264 0.85417 0.0
C398 C 0.56208 0.70946 0.88116 0.0
C399 C 0.54007 0.7292 0.9152 0.0
C400 C 0.55169 0.68028 0.84723 0.0
C401 C 0.50916 0.7238 0.88424 0.0
C402 C 0.49896 0.69575 0.84126 0.0
C403 C 0.50843 0.64262 0.81164 0.0
C404 C 0.52895 0.61961 0.81151 0.0
C405 C 0.51957 0.67294 0.83084 0.0
C406 C 0.56093 0.62736 0.82489 0.0
C407 C 0.57226 0.65745 0.8415 0.0
H408 H 0.84497 0.44951 0.01229 0.0
H409 H 0.81237 0.50023 0.76816 0.0
H410 H 0.85535 0.48525 0.65997 0.0
H411 H 0.90885 0.47047 0.65132 0.0
H412 H 0.94769 0.43217 0.90957 0.0
H413 H 0.89655 0.43035 -0.00203 0.0
C414 C 0.84691 0.45669 0.93454 0.0
C415 C 0.82618 0.47689 0.8995 0.0
C416 C 0.87369 0.45117 0.87708 0.0
C417 C 0.82812 0.485 0.79768 0.0
C418 C 0.85313 0.47695 0.73637 0.0
C419 C 0.90575 0.46085 0.72568 0.0
C420 C 0.9316 0.45126 0.77414 0.0
C421 C 0.87713 0.46204 0.77776 0.0
C422 C 0.92789 0.43955 0.87137 0.0
C423 C 0.89874 0.43858 0.92151 0.0
H424 H 0.98957 0.16955 0.96502 0.0
H425 H 0.05427 0.21681 0.75446 0.0
H426 H 0.05585 0.17 0.65299 0.0
H427 H 0.0435 0.11432 0.63666 0.0
H428 H 0.98505 0.06668 0.86394 0.0
H429 H 0.97792 0.11479 0.95069 0.0
C430 C 1.00389 0.16971 0.89634 0.0
C431 C 0.02217 0.19651 0.86799 0.0
C432 C 1.0068 0.14237 0.84425 0.0
C433 C 0.03994 0.19658 0.77773 0.0
C434 C 0.04129 0.16967 0.72101 0.0
C435 C 0.02938 0.11448 0.70566 0.0
C436 C 0.01508 0.08692 0.74469 0.0
C437 C 0.02577 0.1422 0.75587 0.0
C438 C 0.99679 0.08745 0.83369 0.0
C439 C 0.99236 0.11498 0.88239 0.0
H440 H 0.37022 0.02474 0.0182 0.0
H441 H 0.31569 0.01761 0.75211 0.0
H442 H 0.36378 0.02505 0.64695 0.0
H443 H 0.42236 0.02676 0.63117 0.0
H444 H 0.47519 0.03318 0.90156 0.0
H445 H 0.4271 0.03169 0.00378 0.0
C446 C 0.36881 0.02509 0.93696 0.0
C447 C 0.33936 0.02032 0.89312 0.0
C448 C 0.3965 0.02793 0.87745 0.0
C449 C 0.33797 0.02124 0.78792 0.0
C450 C 0.36558 0.02484 0.72776 0.0
C451 C 0.42321 0.02744 0.71238 0.0
C452 C 0.45243 0.02916 0.75872 0.0
C453 C 0.39511 0.02693 0.77154 0.0
C454 C 0.45314 0.03145 0.86398 0.0
C455 C 0.42559 0.03065 0.92264 0.0
H456 H 0.50759 0.36147 0.02273 0.0
H457 H 0.46976 0.30659 0.77743 0.0
H458 H 0.46814 0.35273 0.67681 0.0
H459 H 0.47522 0.40897 0.66336 0.0
H460 H 0.50809 0.46277 0.91843 0.0
H461 H 0.51185 0.41649 0.01342 0.0
C462 C 0.49843 0.3594 0.94772 0.0
C463 C 0.48808 0.33046 0.90871 0.0
C464 C 0.49588 0.38592 0.8934 0.0
C465 C 0.47778 0.32841 0.80962 0.0
C466 C 0.47649 0.35486 0.75273 0.0
C467 C 0.48285 0.41062 0.74017 0.0
C468 C 0.49125 0.43949 0.7838 0.0
C469 C 0.48492 0.38379 0.79475 0.0
C470 C 0.50112 0.44106 0.88329 0.0
C471 C 0.50364 0.41456 0.93729 0.0
H472 H 0.21446 0.52796 0.79308 0.0
H473 H 0.18621 0.4476 0.96314 0.0
H474 H 0.13735 0.44049 0.87222 0.0
H475 H 0.09943 0.4617 0.7603 0.0
H476 H 0.12844 0.5435 0.59697 0.0
H477 H 0.1798 0.54553 0.6683 0.0
C478 C 0.19821 0.50812 0.8067 0.0
C479 C 0.20421 0.48796 0.88301 0.0
C480 C 0.16973 0.50497 0.75707 0.0
C481 C 0.1825 0.46291 0.90266 0.0
C482 C 0.15426 0.45924 0.85209 0.0
C483 C 0.11714 0.47975 0.73987 0.0
C484 C 0.11003 0.50234 0.6726 0.0
C485 C 0.14702 0.48087 0.78199 0.0
C486 C 0.13335 0.52551 0.64669 0.0
C487 C 0.16279 0.52681 0.68807 0.0
H488 H 0.9796 0.8469 0.12723 0.0
H489 H 1.00848 0.79934 0.3841 0.0
H490 H 1.0045 0.84527 0.48833 0.0
H491 H 0.99989 0.90018 0.49907 0.0
H492 H 0.97657 0.94873 0.236 0.0
H493 H 0.97195 0.90101 0.14016 0.0
C494 C 0.98471 0.84649 0.20648 0.0
C495 C 0.99484 0.81996 0.24788 0.0
C496 C 0.98403 0.87326 0.26367 0.0
C497 C 1.00069 0.81946 0.35076 0.0
C498 C 0.99877 0.84581 0.40972 0.0
C499 C 0.99343 0.90047 0.42091 0.0
C500 C 0.98882 0.92824 0.37447 0.0
C501 C 0.99162 0.87309 0.36589 0.0
C502 C 0.98048 0.92789 0.27336 0.0
C503 C 0.97778 0.90057 0.21874 0.0
H504 H 0.66892 0.95785 0.18744 0.0
H505 H 0.69239 0.04844 0.3011 0.0
H506 H 0.6422 0.04721 0.3929 0.0
H507 H 0.58907 0.0232 0.42233 0.0
H508 H 0.56581 0.9312 0.32127 0.0
H509 H 0.61774 0.93048 0.23996 0.0
C510 C 0.66348 0.97678 0.23554 0.0
C511 C 0.68468 1.00306 0.23865 0.0
C512 C 0.63412 0.97607 0.28747 0.0
C513 C 0.67682 0.02779 0.29896 0.0
C514 C 0.64788 0.02727 0.35023 0.0
C515 C 0.59564 1.00255 0.38576 0.0
C516 C 0.57354 0.97712 0.37969 0.0
C517 C 0.62595 1.00195 0.34244 0.0
C518 C 0.58228 0.95106 0.32796 0.0
C519 C 0.61209 0.95063 0.28157 0.0
H520 H 0.51194 0.67164 0.15796 0.0
H521 H 0.56146 0.72356 0.38892 0.0
H522 H 0.56165 0.67719 0.48923 0.0
H523 H 0.55038 0.62121 0.50496 0.0
H524 H 0.50686 0.56989 0.26071 0.0
H525 H 0.50374 0.61673 0.16811 0.0
C526 C 0.52334 0.67297 0.22959 0.0
C527 C 0.53739 0.70113 0.26453 0.0
C528 C 0.52527 0.64614 0.28274 0.0
C529 C 0.55054 0.70235 0.35985 0.0
C530 C 0.55104 0.67573 0.41641 0.0
C531 C 0.54058 0.62025 0.43083 0.0
C532 C 0.52903 0.59194 0.38947 0.0
C533 C 0.53909 0.64738 0.37739 0.0
C534 C 0.51634 0.59115 0.29363 0.0
C535 C 0.51418 0.618 0.24124 0.0
H536 H 0.82859 0.50057 0.29005 0.0
H537 H 0.85702 0.58108 0.12093 0.0
H538 H 0.90591 0.58795 0.21171 0.0
H539 H 0.9438 0.56647 0.32297 0.0
H540 H 0.91467 0.48446 0.48506 0.0
H541 H 0.86326 0.48271 0.41421 0.0
C542 C 0.84488 0.5204 0.27668 0.0
C543 C 0.83893 0.54067 0.20067 0.0
C544 C 0.87339 0.52339 0.32611 0.0
C545 C 0.86069 0.5657 0.18124 0.0
C546 C 0.88895 0.56922 0.2317 0.0
C547 C 0.92606 0.54843 0.34322 0.0
C548 C 0.93313 0.5257 0.40997 0.0
C549 C 0.89616 0.54747 0.30138 0.0
C550 C 0.90978 0.50255 0.4357 0.0
C551 C 0.88031 0.5014 0.39462 0.0
loop_
_geom_bond_atom_site_label_1
_geom_bond_atom_site_label_2
_geom_bond_distance
_geom_bond_site_symmetry_2
_ccdc_geom_bond_type
H0 C3 0.929 . S
H1 C6 0.929 1_556 S
H2 C8 0.930 . S
C3 H0 0.929 . S
C3 C4 1.398 . S
C3 C5 1.396 . S
C4 C3 1.398 . S
C4 C8 1.407 . S
C5 C3 1.396 . S
C5 C6 1.394 . S
C6 H1 0.929 1_554 S
C6 C5 1.394 . S
C6 C7 1.382 . S
C7 C6 1.382 . S
C7 C8 1.392 . S
C7 N9 1.420 . S
C8 H2 0.930 . S
C8 C4 1.407 . S
C8 C7 1.392 . S
N9 C7 1.420 . S
N9 C10 1.244 . S
C10 N9 1.244 . S
H11 C14 0.929 . S
H12 C17 0.929 . S
H13 C19 0.930 . S
C14 H11 0.929 . S
C14 C15 1.392 1_655 S
C14 C16 1.401 1_655 S
C15 C14 1.392 1_455 S
C15 C19 1.417 . S
C16 C14 1.401 1_455 S
C16 C17 1.398 1_554 S
C17 H12 0.929 . S
C17 C16 1.398 1_556 S
C17 C18 1.382 1_556 S
C18 C17 1.382 1_554 S
C18 C19 1.392 . S
C18 N20 1.420 . S
C19 H13 0.930 . S
C19 C15 1.417 . S
C19 C18 1.392 . S
N20 C18 1.420 . S
N20 C21 1.232 1_454 S
C21 N20 1.232 1_656 S
H22 C25 0.929 . S
H23 C28 0.929 . S
H24 C30 0.930 . S
C25 H22 0.929 . S
C25 C26 1.398 . S
C25 C27 1.396 1_554 S
C26 C25 1.398 . S
C26 C30 1.407 . S
C27 C25 1.396 1_556 S
C27 C28 1.394 . S
C28 H23 0.929 . S
C28 C27 1.394 . S
C28 C29 1.382 1_556 S
C29 C28 1.382 1_554 S
C29 C30 1.392 . S
C29 N31 1.420 . S
C30 H24 0.930 . S
C30 C26 1.407 . S
C30 C29 1.392 . S
N31 C29 1.420 . S
N31 C32 1.244 1_554 S
C32 N31 1.244 1_556 S
H33 C36 0.929 . S
H34 C39 0.929 1_556 S
H35 C41 0.930 . S
C36 H33 0.929 . S
C36 C37 1.398 . S
C36 C38 1.396 . S
C37 C36 1.398 . S
C37 C41 1.407 . S
C38 C36 1.396 . S
C38 C39 1.394 . S
C39 H34 0.929 1_554 S
C39 C38 1.394 . S
C39 C40 1.382 . S
C40 C39 1.382 . S
C40 C41 1.392 . S
C40 N42 1.420 . S
C41 H35 0.930 . S
C41 C37 1.407 . S
C41 C40 1.392 . S
N42 C40 1.420 . S
N42 C43 1.244 . S
C43 N42 1.244 . S
H44 C47 0.929 . S
H45 C50 0.929 . S
H46 C52 0.930 . S
C47 H44 0.929 . S
C47 C48 1.398 1_554 S
C47 C49 1.396 . S
C48 C47 1.398 1_556 S
C48 C52 1.407 . S
C49 C47 1.396 . S
C49 C50 1.394 . S
C50 H45 0.929 . S
C50 C49 1.394 . S
C50 C51 1.382 . S
C51 C50 1.382 . S
C51 C52 1.392 1_554 S
C51 N53 1.420 . S
C52 H46 0.930 . S
C52 C48 1.407 . S
C52 C51 1.392 1_556 S
N53 C51 1.420 . S
N53 C54 1.244 . S
C54 N53 1.244 . S
H55 C58 0.929 . S
H56 C61 0.929 . S
H57 C63 0.930 . S
C58 H55 0.929 . S
C58 C59 1.398 1_654 S
C58 C60 1.394 1_655 S
C59 C58 1.398 1_456 S
C59 C63 1.407 . S
C60 C58 1.394 1_455 S
C60 C61 1.396 . S
C61 H56 0.929 . S
C61 C60 1.396 . S
C61 C62 1.382 . S
C62 C61 1.382 . S
C62 C63 1.392 1_554 S
C62 N64 1.420 . S
C63 H57 0.930 . S
C63 C59 1.407 . S
C63 C62 1.392 1_556 S
N64 C62 1.420 . S
N64 C65 1.235 1_455 S
C65 N64 1.235 1_655 S
H66 C69 0.929 . S
H67 C72 0.929 . S
H68 C74 0.931 1_556 S
C69 H66 0.929 . S
C69 C70 1.398 1_554 S
C69 C71 1.396 . S
C70 C69 1.398 1_556 S
C70 C74 1.407 1_556 S
C71 C69 1.396 . S
C71 C72 1.394 . S
C72 H67 0.929 . S
C72 C71 1.394 . S
C72 C73 1.382 . S
C73 C72 1.382 . S
C73 C74 1.391 . S
C73 N75 1.420 . S
C74 H68 0.931 1_554 S
C74 C70 1.407 1_554 S
C74 C73 1.391 . S
N75 C73 1.420 . S
N75 C76 1.244 . S
C76 N75 1.244 . S
H77 C80 0.929 . S
H78 C83 0.929 . S
H79 C85 0.930 . S
C80 H77 0.929 . S
C80 C81 1.398 . S
C80 C82 1.396 1_556 S
C81 C80 1.398 . S
C81 C85 1.407 . S
C82 C80 1.396 1_554 S
C82 C83 1.394 . S
C83 H78 0.929 . S
C83 C82 1.394 . S
C83 C84 1.382 . S
C84 C83 1.382 . S
C84 C85 1.392 1_554 S
C84 N86 1.420 . S
C85 H79 0.930 . S
C85 C81 1.407 . S
C85 C84 1.392 1_556 S
N86 C84 1.420 . S
N86 C87 1.244 . S
C87 N86 1.244 . S
Dy88 O92 2.398 . S
Dy88 O93 2.491 1_455 S
Dy88 O94 2.403 . S
Dy88 O95 2.664 1_565 S
Dy88 O99 2.326 . S
Dy88 O103 2.310 1_455 S
Dy88 O104 2.351 1_565 S
C89 O100 1.185 . S
C89 O101 1.355 1_655 S
C90 O92 1.185 . S
C90 O93 1.355 1_455 S
Dy91 O95 2.310 1_655 S
Dy91 O98 2.351 1_545 S
Dy91 O100 2.398 . S
Dy91 O101 2.491 1_655 S
Dy91 O102 2.403 . S
Dy91 O103 2.664 1_545 S
Dy91 O105 2.326 . S
O92 Dy88 2.398 . S
O92 C90 1.185 . S
O93 Dy88 2.491 1_655 S
O93 C90 1.355 1_655 S
O94 Dy88 2.403 . S
O94 C96 1.254 1_565 S
O95 Dy88 2.664 1_545 S
O95 Dy91 2.310 1_455 S
O95 C96 1.268 . S
C96 O94 1.254 1_545 S
C96 O95 1.268 . S
C97 O102 1.254 1_565 S
C97 O103 1.268 . S
O98 Dy91 2.351 1_565 S
O98 C106 1.249 . S
O99 Dy88 2.326 . S
O99 C106 1.267 1_455 S
O100 C89 1.185 . S
O100 Dy91 2.398 . S
O101 C89 1.355 1_455 S
O101 Dy91 2.491 1_455 S
O102 Dy91 2.403 . S
O102 C97 1.254 1_545 S
O103 Dy88 2.310 1_655 S
O103 Dy91 2.664 1_565 S
O103 C97 1.268 . S
O104 Dy88 2.351 1_545 S
O104 C107 1.249 . S
O105 Dy91 2.326 . S
O105 C107 1.267 1_655 S
C106 O98 1.249 . S
C106 O99 1.267 1_655 S
C107 O104 1.249 . S
C107 O105 1.267 1_455 S
Dy108 O112 2.398 . S
Dy108 O113 2.491 1_565 S
Dy108 O114 2.403 . S
Dy108 O115 2.664 . S
Dy108 O119 2.326 1_565 S
Dy108 O123 2.310 1_565 S
Dy108 O124 2.351 . S
C109 O120 1.185 . S
C109 O121 1.355 1_545 S
C110 O112 1.185 1_545 S
C110 O113 1.355 . S
Dy111 O115 2.310 1_545 S
Dy111 O118 2.351 . S
Dy111 O120 2.398 . S
Dy111 O121 2.491 1_545 S
Dy111 O122 2.403 . S
Dy111 O123 2.664 . S
Dy111 O125 2.326 1_545 S
O112 Dy108 2.398 . S
O112 C110 1.185 1_565 S
O113 Dy108 2.491 1_545 S
O113 C110 1.355 . S
O114 Dy108 2.403 . S
O114 C116 1.254 . S
O115 Dy108 2.664 . S
O115 Dy111 2.310 1_565 S
O115 C116 1.268 . S
C116 O114 1.254 . S
C116 O115 1.268 . S
C117 O122 1.254 . S
C117 O123 1.268 . S
O118 Dy111 2.351 . S
O118 C126 1.249 . S
O119 Dy108 2.326 1_545 S
O119 C126 1.267 . S
O120 C109 1.185 . S
O120 Dy111 2.398 . S
O121 C109 1.355 1_565 S
O121 Dy111 2.491 1_565 S
O122 Dy111 2.403 . S
O122 C117 1.254 . S
O123 Dy108 2.310 1_545 S
O123 Dy111 2.664 . S
O123 C117 1.268 . S
O124 Dy108 2.351 . S
O124 C127 1.249 . S
O125 Dy111 2.326 1_565 S
O125 C127 1.267 . S
C126 O118 1.249 . S
C126 O119 1.267 . S
C127 O124 1.249 . S
C127 O125 1.267 . S
Dy128 O132 2.398 . S
Dy128 O133 2.491 . S
Dy128 O134 2.403 . S
Dy128 O135 2.664 . S
Dy128 O139 2.326 . S
Dy128 O143 2.310 . S
Dy128 O144 2.351 . S
C129 O140 1.185 . S
C129 O141 1.355 . S
C130 O132 1.185 . S
C130 O133 1.355 . S
Dy131 O135 2.310 . S
Dy131 O138 2.351 . S
Dy131 O140 2.398 . S
Dy131 O141 2.491 . S
Dy131 O142 2.403 . S
Dy131 O143 2.664 . S
Dy131 O145 2.326 . S
O132 Dy128 2.398 . S
O132 C130 1.185 . S
O133 Dy128 2.491 . S
O133 C130 1.355 . S
O134 Dy128 2.403 . S
O134 C136 1.254 . S
O135 Dy128 2.664 . S
O135 Dy131 2.310 . S
O135 C136 1.268 . S
C136 O134 1.254 . S
C136 O135 1.268 . S
C137 O142 1.254 . S
C137 O143 1.268 . S
O138 Dy131 2.351 . S
O138 C146 1.249 . S
O139 Dy128 2.326 . S
O139 C146 1.267 . S
O140 C129 1.185 . S
O140 Dy131 2.398 . S
O141 C129 1.355 . S
O141 Dy131 2.491 . S
O142 Dy131 2.403 . S
O142 C137 1.254 . S
O143 Dy128 2.310 . S
O143 Dy131 2.664 . S
O143 C137 1.268 . S
O144 Dy128 2.351 . S
O144 C147 1.249 . S
O145 Dy131 2.326 . S
O145 C147 1.267 . S
C146 O138 1.249 . S
C146 O139 1.267 . S
C147 O144 1.249 . S
C147 O145 1.267 . S
Dy148 O152 2.398 . S
Dy148 O153 2.491 . S
Dy148 O154 2.403 . S
Dy148 O155 2.664 1_655 S
Dy148 O159 2.326 . S
Dy148 O163 2.310 . S
Dy148 O164 2.351 1_655 S
C149 O160 1.185 . S
C149 O161 1.355 . S
C150 O152 1.185 . S
C150 O153 1.355 . S
Dy151 O155 2.310 . S
Dy151 O158 2.351 1_455 S
Dy151 O160 2.398 . S
Dy151 O161 2.491 . S
Dy151 O162 2.403 . S
Dy151 O163 2.664 1_455 S
Dy151 O165 2.326 . S
O152 Dy148 2.398 . S
O152 C150 1.185 . S
O153 Dy148 2.491 . S
O153 C150 1.355 . S
O154 Dy148 2.403 . S
O154 C156 1.254 . S
O155 Dy148 2.664 1_455 S
O155 Dy151 2.310 . S
O155 C156 1.268 1_455 S
C156 O154 1.254 . S
C156 O155 1.268 1_655 S
C157 O162 1.254 . S
C157 O163 1.268 1_455 S
O158 Dy151 2.351 1_655 S
O158 C166 1.249 . S
O159 Dy148 2.326 . S
O159 C166 1.267 . S
O160 C149 1.185 . S
O160 Dy151 2.398 . S
O161 C149 1.355 . S
O161 Dy151 2.491 . S
O162 Dy151 2.403 . S
O162 C157 1.254 . S
O163 Dy148 2.310 . S
O163 Dy151 2.664 1_655 S
O163 C157 1.268 1_655 S
O164 Dy148 2.351 1_455 S
O164 C167 1.249 . S
O165 Dy151 2.326 . S
O165 C167 1.267 . S
C166 O158 1.249 . S
C166 O159 1.267 . S
C167 O164 1.249 . S
C167 O165 1.267 . S
H168 C174 0.930 . S
H169 C177 0.930 . S
H170 C178 0.930 . S
H171 C179 0.930 . S
H172 C182 0.930 . S
H173 C183 0.944 . S
C174 H168 0.930 . S
C174 C175 1.355 . S
C174 C176 1.415 . S
C175 C174 1.355 . S
C175 C177 1.419 . S
C176 C174 1.415 . S
C176 C181 1.425 . S
C176 C183 1.396 1_545 S
C177 H169 0.930 . S
C177 C175 1.419 . S
C177 C178 1.362 . S
C178 H170 0.930 . S
C178 C177 1.362 . S
C178 C181 1.409 . S
C179 H171 0.930 . S
C179 C180 1.355 . S
C179 C181 1.415 . S
C180 C179 1.355 . S
C180 C182 1.419 1_545 S
C181 C176 1.425 . S
C181 C178 1.409 . S
C181 C179 1.415 . S
C182 H172 0.930 . S
C182 C180 1.419 1_565 S
C182 C183 1.363 . S
C183 H173 0.944 . S
C183 C176 1.396 1_565 S
C183 C182 1.363 . S
H184 C190 0.930 . S
H185 C193 0.930 . S
H186 C194 0.930 . S
H187 C195 0.930 . S
H188 C198 0.930 . S
H189 C199 0.930 . S
C190 H184 0.930 . S
C190 C191 1.355 . S
C190 C192 1.415 . S
C191 C190 1.355 . S
C191 C193 1.419 . S
C192 C190 1.415 . S
C192 C197 1.425 . S
C192 C199 1.409 . S
C193 H185 0.930 . S
C193 C191 1.419 . S
C193 C194 1.362 . S
C194 H186 0.930 . S
C194 C193 1.362 . S
C194 C197 1.409 . S
C195 H187 0.930 . S
C195 C196 1.355 . S
C195 C197 1.415 . S
C196 C195 1.355 . S
C196 C198 1.419 . S
C197 C192 1.425 . S
C197 C194 1.409 . S
C197 C195 1.415 . S
C198 H188 0.930 . S
C198 C196 1.419 . S
C198 C199 1.362 . S
C199 H189 0.930 . S
C199 C192 1.409 . S
C199 C198 1.362 . S
H200 C206 0.930 . S
H201 C209 0.930 . S
H202 C210 0.930 . S
H203 C211 0.930 . S
H204 C214 0.930 . S
H205 C215 0.930 . S
C206 H200 0.930 . S
C206 C207 1.355 . S
C206 C208 1.415 . S
C207 C206 1.355 . S
C207 C209 1.419 . S
C208 C206 1.415 . S
C208 C213 1.425 . S
C208 C215 1.409 . S
C209 H201 0.930 . S
C209 C207 1.419 . S
C209 C210 1.362 . S
C210 H202 0.930 . S
C210 C209 1.362 . S
C210 C213 1.409 . S
C211 H203 0.930 . S
C211 C212 1.355 . S
C211 C213 1.415 . S
C212 C211 1.355 . S
C212 C214 1.419 . S
C213 C208 1.425 . S
C213 C210 1.409 . S
C213 C211 1.415 . S
C214 H204 0.930 . S
C214 C212 1.419 . S
C214 C215 1.362 . S
C215 H205 0.930 . S
C215 C208 1.409 . S
C215 C214 1.362 . S
H216 C222 0.930 . S
H217 C225 0.930 . S
H218 C226 0.930 . S
H219 C227 0.926 1_455 S
H220 C230 0.930 . S
H221 C231 0.930 . S
C222 H216 0.930 . S
C222 C223 1.355 1_655 S
C222 C224 1.415 . S
C223 C222 1.355 1_455 S
C223 C225 1.419 . S
C224 C222 1.415 . S
C224 C229 1.422 1_655 S
C224 C231 1.409 . S
C225 H217 0.930 . S
C225 C223 1.419 . S
C225 C226 1.362 . S
C226 H218 0.930 . S
C226 C225 1.362 . S
C226 C229 1.415 . S
C227 H219 0.926 1_655 S
C227 C228 1.355 . S
C227 C229 1.413 1_655 S
C228 C227 1.355 . S
C228 C230 1.419 . S
C229 C224 1.422 1_455 S
C229 C226 1.415 . S
C229 C227 1.413 1_455 S
C230 H220 0.930 . S
C230 C228 1.419 . S
C230 C231 1.362 . S
C231 H221 0.930 . S
C231 C224 1.409 . S
C231 C230 1.362 . S
H232 C238 0.930 1_545 S
H233 C241 0.930 . S
H234 C242 0.930 . S
H235 C243 0.930 . S
H236 C246 0.930 . S
H237 C247 0.930 . S
C238 H232 0.930 1_565 S
C238 C239 1.355 . S
C238 C240 1.415 . S
C239 C238 1.355 . S
C239 C241 1.419 . S
C240 C238 1.415 . S
C240 C245 1.425 . S
C240 C247 1.409 1_565 S
C241 H233 0.930 . S
C241 C239 1.419 . S
C241 C242 1.362 . S
C242 H234 0.930 . S
C242 C241 1.362 . S
C242 C245 1.409 . S
C243 H235 0.930 . S
C243 C244 1.355 . S
C243 C245 1.415 . S
C244 C243 1.355 . S
C244 C246 1.419 1_565 S
C245 C240 1.425 . S
C245 C242 1.409 . S
C245 C243 1.415 . S
C246 H236 0.930 . S
C246 C244 1.419 1_545 S
C246 C247 1.362 . S
C247 H237 0.930 . S
C247 C240 1.409 1_545 S
C247 C246 1.362 . S
H248 C254 0.930 . S
H249 C257 0.930 . S
H250 C258 0.930 . S
H251 C259 0.930 . S
H252 C262 0.930 . S
H253 C263 0.930 . S
C254 H248 0.930 . S
C254 C255 1.355 1_556 S
C254 C256 1.415 . S
C255 C254 1.355 1_554 S
C255 C257 1.419 . S
C256 C254 1.415 . S
C256 C261 1.425 . S
C256 C263 1.409 . S
C257 H249 0.930 . S
C257 C255 1.419 . S
C257 C258 1.362 . S
C258 H250 0.930 . S
C258 C257 1.362 . S
C258 C261 1.409 1_554 S
C259 H251 0.930 . S
C259 C260 1.355 . S
C259 C261 1.415 . S
C260 C259 1.355 . S
C260 C262 1.419 . S
C261 C256 1.425 . S
C261 C258 1.409 1_556 S
C261 C259 1.415 . S
C262 H252 0.930 . S
C262 C260 1.419 . S
C262 C263 1.362 . S
C263 H253 0.930 . S
C263 C256 1.409 . S
C263 C262 1.362 . S
H264 C270 0.930 1_554 S
H265 C273 0.930 . S
H266 C274 0.930 . S
H267 C275 0.930 . S
H268 C278 0.930 . S
H269 C279 0.930 . S
C270 H264 0.930 1_556 S
C270 C271 1.355 . S
C270 C272 1.415 . S
C271 C270 1.355 . S
C271 C273 1.419 . S
C272 C270 1.415 . S
C272 C277 1.425 . S
C272 C279 1.409 . S
C273 H265 0.930 . S
C273 C271 1.419 . S
C273 C274 1.362 . S
C274 H266 0.930 . S
C274 C273 1.362 . S
C274 C277 1.409 . S
C275 H267 0.930 . S
C275 C276 1.355 . S
C275 C277 1.415 . S
C276 C275 1.355 . S
C276 C278 1.419 . S
C277 C272 1.425 . S
C277 C274 1.409 . S
C277 C275 1.415 . S
C278 H268 0.930 . S
C278 C276 1.419 . S
C278 C279 1.362 . S
C279 H269 0.930 . S
C279 C272 1.409 . S
C279 C278 1.362 . S
H280 C286 0.930 . S
H281 C289 0.930 . S
H282 C290 0.930 . S
H283 C291 0.930 . S
H284 C294 0.930 . S
H285 C295 0.930 . S
C286 H280 0.930 . S
C286 C287 1.355 1_455 S
C286 C288 1.415 . S
C287 C286 1.355 1_655 S
C287 C289 1.419 . S
C288 C286 1.415 . S
C288 C293 1.425 1_455 S
C288 C295 1.409 . S
C289 H281 0.930 . S
C289 C287 1.419 . S
C289 C290 1.362 . S
C290 H282 0.930 . S
C290 C289 1.362 . S
C290 C293 1.409 . S
C291 H283 0.930 . S
C291 C292 1.355 1_655 S
C291 C293 1.415 . S
C292 C291 1.355 1_455 S
C292 C294 1.419 . S
C293 C288 1.425 1_655 S
C293 C290 1.409 . S
C293 C291 1.415 . S
C294 H284 0.930 . S
C294 C292 1.419 . S
C294 C295 1.362 . S
C295 H285 0.930 . S
C295 C288 1.409 . S
C295 C294 1.362 . S
H296 C302 0.930 . S
H297 C305 0.930 . S
H298 C306 0.930 . S
H299 C307 0.930 . S
H300 C310 0.930 . S
H301 C311 0.930 . S
C302 H296 0.930 . S
C302 C303 1.355 1_455 S
C302 C304 1.415 . S
C303 C302 1.355 1_655 S
C303 C305 1.419 . S
C304 C302 1.415 . S
C304 C309 1.425 1_455 S
C304 C311 1.409 . S
C305 H297 0.930 . S
C305 C303 1.419 . S
C305 C306 1.362 . S
C306 H298 0.930 . S
C306 C305 1.362 . S
C306 C309 1.409 . S
C307 H299 0.930 . S
C307 C308 1.355 . S
C307 C309 1.415 . S
C308 C307 1.355 . S
C308 C310 1.419 1_655 S
C309 C304 1.425 1_655 S
C309 C306 1.409 . S
C309 C307 1.415 . S
C310 H300 0.930 . S
C310 C308 1.419 1_455 S
C310 C311 1.362 . S
C311 H301 0.930 . S
C311 C304 1.409 . S
C311 C310 1.362 . S
H312 C318 0.930 . S
H313 C321 0.930 . S
H314 C322 0.930 . S
H315 C323 0.930 . S
H316 C326 0.930 . S
H317 C327 0.930 . S
C318 H312 0.930 . S
C318 C319 1.355 . S
C318 C320 1.415 . S
C319 C318 1.355 . S
C319 C321 1.419 . S
C320 C318 1.415 . S
C320 C325 1.425 . S
C320 C327 1.409 . S
C321 H313 0.930 . S
C321 C319 1.419 . S
C321 C322 1.362 1_545 S
C322 H314 0.930 . S
C322 C321 1.362 1_565 S
C322 C325 1.409 1_565 S
C323 H315 0.930 . S
C323 C324 1.355 1_565 S
C323 C325 1.415 1_565 S
C324 C323 1.355 1_545 S
C324 C326 1.419 . S
C325 C320 1.425 . S
C325 C322 1.409 1_545 S
C325 C323 1.415 1_545 S
C326 H316 0.930 . S
C326 C324 1.419 . S
C326 C327 1.362 . S
C327 H317 0.930 . S
C327 C320 1.409 . S
C327 C326 1.362 . S
H328 C334 0.930 . S
H329 C337 0.930 . S
H330 C338 0.930 . S
H331 C339 0.930 . S
H332 C342 0.930 . S
H333 C343 0.930 . S
C334 H328 0.930 . S
C334 C335 1.355 . S
C334 C336 1.415 . S
C335 C334 1.355 . S
C335 C337 1.419 . S
C336 C334 1.415 . S
C336 C341 1.425 . S
C336 C343 1.409 . S
C337 H329 0.930 . S
C337 C335 1.419 . S
C337 C338 1.362 . S
C338 H330 0.930 . S
C338 C337 1.362 . S
C338 C341 1.409 . S
C339 H331 0.930 . S
C339 C340 1.355 . S
C339 C341 1.415 . S
C340 C339 1.355 . S
C340 C342 1.419 . S
C341 C336 1.425 . S
C341 C338 1.409 . S
C341 C339 1.415 . S
C342 H332 0.930 . S
C342 C340 1.419 . S
C342 C343 1.362 . S
C343 H333 0.930 . S
C343 C336 1.409 . S
C343 C342 1.362 . S
H344 C350 0.930 . S
H345 C353 0.930 . S
H346 C354 0.930 . S
H347 C355 0.930 . S
H348 C358 0.930 . S
H349 C359 0.930 . S
C350 H344 0.930 . S
C350 C351 1.355 . S
C350 C352 1.415 . S
C351 C350 1.355 . S
C351 C353 1.419 . S
C352 C350 1.415 . S
C352 C357 1.425 . S
C352 C359 1.409 . S
C353 H345 0.930 . S
C353 C351 1.419 . S
C353 C354 1.362 . S
C354 H346 0.930 . S
C354 C353 1.362 . S
C354 C357 1.409 . S
C355 H347 0.930 . S
C355 C356 1.355 . S
C355 C357 1.415 . S
C356 C355 1.355 . S
C356 C358 1.419 . S
C357 C352 1.425 . S
C357 C354 1.409 . S
C357 C355 1.415 . S
C358 H348 0.930 . S
C358 C356 1.419 . S
C358 C359 1.362 . S
C359 H349 0.930 . S
C359 C352 1.409 . S
C359 C358 1.362 . S
H360 C366 0.930 1_554 S
H361 C369 0.930 . S
H362 C370 0.930 . S
H363 C371 0.930 . S
H364 C374 0.930 . S
H365 C375 0.938 1_554 S
C366 H360 0.930 1_556 S
C366 C367 1.353 1_655 S
C366 C368 1.415 1_655 S
C367 C366 1.353 1_455 S
C367 C369 1.422 . S
C368 C366 1.415 1_455 S
C368 C373 1.425 . S
C368 C375 1.405 1_455 S
C369 H361 0.930 . S
C369 C367 1.422 . S
C369 C370 1.362 . S
C370 H362 0.930 . S
C370 C369 1.362 . S
C370 C373 1.409 . S
C371 H363 0.930 . S
C371 C372 1.355 . S
C371 C373 1.415 . S
C372 C371 1.355 . S
C372 C374 1.419 . S
C373 C368 1.425 . S
C373 C370 1.409 . S
C373 C371 1.415 . S
C374 H364 0.930 . S
C374 C372 1.419 . S
C374 C375 1.360 1_455 S
C375 H365 0.938 1_556 S
C375 C368 1.405 1_655 S
C375 C374 1.360 1_655 S
H376 C382 0.930 . S
H377 C385 0.930 . S
H378 C386 0.900 1_545 S
H379 C387 0.930 . S
H380 C390 0.930 . S
H381 C391 0.930 . S
C382 H376 0.930 . S
C382 C383 1.355 . S
C382 C384 1.415 . S
C383 C382 1.355 . S
C383 C385 1.419 . S
C384 C382 1.415 . S
C384 C389 1.425 . S
C384 C391 1.409 . S
C385 H377 0.930 . S
C385 C383 1.419 . S
C385 C386 1.384 . S
C386 H378 0.900 1_565 S
C386 C385 1.384 . S
C386 C389 1.418 . S
C387 H379 0.930 . S
C387 C388 1.355 1_545 S
C387 C389 1.415 1_545 S
C388 C387 1.355 1_565 S
C388 C390 1.419 . S
C389 C384 1.425 . S
C389 C386 1.418 . S
C389 C387 1.415 1_565 S
C390 H380 0.930 . S
C390 C388 1.419 . S
C390 C391 1.362 . S
C391 H381 0.930 . S
C391 C384 1.409 . S
C391 C390 1.362 . S
H392 C398 0.930 . S
H393 C401 0.930 . S
H394 C402 0.930 . S
H395 C403 0.930 . S
H396 C406 0.930 . S
H397 C407 0.930 . S
C398 H392 0.930 . S
C398 C399 1.355 . S
C398 C400 1.415 . S
C399 C398 1.355 . S
C399 C401 1.419 . S
C400 C398 1.415 . S
C400 C405 1.425 . S
C400 C407 1.409 . S
C401 H393 0.930 . S
C401 C399 1.419 . S
C401 C402 1.362 . S
C402 H394 0.930 . S
C402 C401 1.362 . S
C402 C405 1.409 . S
C403 H395 0.930 . S
C403 C404 1.355 . S
C403 C405 1.415 . S
C404 C403 1.355 . S
C404 C406 1.419 . S
C405 C400 1.425 . S
C405 C402 1.409 . S
C405 C403 1.415 . S
C406 H396 0.930 . S
C406 C404 1.419 . S
C406 C407 1.362 . S
C407 H397 0.930 . S
C407 C400 1.409 . S
C407 C406 1.362 . S
H408 C414 0.930 1_554 S
H409 C417 0.930 . S
H410 C418 0.930 . S
H411 C419 0.930 . S
H412 C422 0.930 . S
H413 C423 0.930 1_554 S
C414 H408 0.930 1_556 S
C414 C415 1.355 . S
C414 C416 1.415 . S
C415 C414 1.355 . S
C415 C417 1.419 . S
C416 C414 1.415 . S
C416 C421 1.425 . S
C416 C423 1.409 . S
C417 H409 0.930 . S
C417 C415 1.419 . S
C417 C418 1.362 . S
C418 H410 0.930 . S
C418 C417 1.362 . S
C418 C421 1.409 . S
C419 H411 0.930 . S
C419 C420 1.355 . S
C419 C421 1.415 . S
C420 C419 1.355 . S
C420 C422 1.419 . S
C421 C416 1.425 . S
C421 C418 1.409 . S
C421 C419 1.415 . S
C422 H412 0.930 . S
C422 C420 1.419 . S
C422 C423 1.362 . S
C423 H413 0.930 1_556 S
C423 C416 1.409 . S
C423 C422 1.362 . S
H424 C430 0.930 . S
H425 C433 0.930 . S
H426 C434 0.930 . S
H427 C435 0.930 . S
H428 C438 0.930 . S
H429 C439 0.930 . S
C430 H424 0.930 . S
C430 C431 1.355 1_655 S
C430 C432 1.415 . S
C431 C430 1.355 1_455 S
C431 C433 1.419 . S
C432 C430 1.415 . S
C432 C437 1.425 1_655 S
C432 C439 1.409 . S
C433 H425 0.930 . S
C433 C431 1.419 . S
C433 C434 1.362 . S
C434 H426 0.930 . S
C434 C433 1.362 . S
C434 C437 1.409 . S
C435 H427 0.930 . S
C435 C436 1.355 . S
C435 C437 1.415 . S
C436 C435 1.355 . S
C436 C438 1.419 1_455 S
C437 C432 1.425 1_455 S
C437 C434 1.409 . S
C437 C435 1.415 . S
C438 H428 0.930 . S
C438 C436 1.419 1_655 S
C438 C439 1.362 . S
C439 H429 0.930 . S
C439 C432 1.409 . S
C439 C438 1.362 . S
H440 C446 0.930 1_554 S
H441 C449 0.930 . S
H442 C450 0.930 . S
H443 C451 0.930 . S
H444 C454 0.930 . S
H445 C455 0.930 1_554 S
C446 H440 0.930 1_556 S
C446 C447 1.355 . S
C446 C448 1.415 . S
C447 C446 1.355 . S
C447 C449 1.419 . S
C448 C446 1.415 . S
C448 C453 1.425 . S
C448 C455 1.409 . S
C449 H441 0.930 . S
C449 C447 1.419 . S
C449 C450 1.362 . S
C450 H442 0.930 . S
C450 C449 1.362 . S
C450 C453 1.409 . S
C451 H443 0.930 . S
C451 C452 1.355 . S
C451 C453 1.415 . S
C452 C451 1.355 . S
C452 C454 1.419 . S
C453 C448 1.425 . S
C453 C450 1.409 . S
C453 C451 1.415 . S
C454 H444 0.930 . S
C454 C452 1.419 . S
C454 C455 1.362 . S
C455 H445 0.930 1_556 S
C455 C448 1.409 . S
C455 C454 1.362 . S
H456 C462 0.930 . S
H457 C465 0.930 . S
H458 C466 0.930 . S
H459 C467 0.930 . S
H460 C470 0.930 . S
H461 C471 0.930 . S
C462 H456 0.930 . S
C462 C463 1.355 . S
C462 C464 1.415 . S
C463 C462 1.355 . S
C463 C465 1.419 . S
C464 C462 1.415 . S
C464 C469 1.425 . S
C464 C471 1.409 . S
C465 H457 0.930 . S
C465 C463 1.419 . S
C465 C466 1.362 . S
C466 H458 0.930 . S
C466 C465 1.362 . S
C466 C469 1.409 . S
C467 H459 0.930 . S
C467 C468 1.355 . S
C467 C469 1.415 . S
C468 C467 1.355 . S
C468 C470 1.419 . S
C469 C464 1.425 . S
C469 C466 1.409 . S
C469 C467 1.415 . S
C470 H460 0.930 . S
C470 C468 1.419 . S
C470 C471 1.362 . S
C471 H461 0.930 . S
C471 C464 1.409 . S
C471 C470 1.362 . S
H472 C478 0.930 . S
H473 C481 0.930 1_554 S
H474 C482 0.930 . S
H475 C483 0.930 . S
H476 C486 0.930 . S
H477 C487 0.930 . S
C478 H472 0.930 . S
C478 C479 1.355 . S
C478 C480 1.415 . S
C479 C478 1.355 . S
C479 C481 1.419 . S
C480 C478 1.415 . S
C480 C485 1.425 . S
C480 C487 1.409 . S
C481 H473 0.930 1_556 S
C481 C479 1.419 . S
C481 C482 1.362 . S
C482 H474 0.930 . S
C482 C481 1.362 . S
C482 C485 1.409 . S
C483 H475 0.930 . S
C483 C484 1.355 . S
C483 C485 1.415 . S
C484 C483 1.355 . S
C484 C486 1.419 . S
C485 C480 1.425 . S
C485 C482 1.409 . S
C485 C483 1.415 . S
C486 H476 0.930 . S
C486 C484 1.419 . S
C486 C487 1.362 . S
C487 H477 0.930 . S
C487 C480 1.409 . S
C487 C486 1.362 . S
H488 C494 0.930 . S
H489 C497 0.930 . S
H490 C498 0.930 . S
H491 C499 0.930 . S
H492 C502 0.930 . S
H493 C503 0.930 . S
C494 H488 0.930 . S
C494 C495 1.355 1_655 S
C494 C496 1.415 . S
C495 C494 1.355 1_455 S
C495 C497 1.419 . S
C496 C494 1.415 . S
C496 C501 1.425 1_655 S
C496 C503 1.409 . S
C497 H489 0.930 . S
C497 C495 1.419 . S
C497 C498 1.362 . S
C498 H490 0.930 . S
C498 C497 1.362 . S
C498 C501 1.409 . S
C499 H491 0.930 . S
C499 C500 1.355 1_455 S
C499 C501 1.415 . S
C500 C499 1.355 1_655 S
C500 C502 1.419 . S
C501 C496 1.425 1_455 S
C501 C498 1.409 . S
C501 C499 1.415 . S
C502 H492 0.930 . S
C502 C500 1.419 . S
C502 C503 1.362 . S
C503 H493 0.930 . S
C503 C496 1.409 . S
C503 C502 1.362 . S
H504 C510 0.930 . S
H505 C513 0.930 1_545 S
H506 C514 0.930 . S
H507 C515 0.930 1_545 S
H508 C518 0.930 . S
H509 C519 0.930 . S
C510 H504 0.930 . S
C510 C511 1.355 . S
C510 C512 1.415 . S
C511 C510 1.355 . S
C511 C513 1.419 . S
C512 C510 1.415 . S
C512 C517 1.425 . S
C512 C519 1.409 . S
C513 H505 0.930 1_565 S
C513 C511 1.419 . S
C513 C514 1.362 1_565 S
C514 H506 0.930 . S
C514 C513 1.362 1_545 S
C514 C517 1.409 1_545 S
C515 H507 0.930 1_565 S
C515 C516 1.355 . S
C515 C517 1.415 . S
C516 C515 1.355 . S
C516 C518 1.419 . S
C517 C512 1.425 . S
C517 C514 1.409 1_565 S
C517 C515 1.415 . S
C518 H508 0.930 . S
C518 C516 1.419 . S
C518 C519 1.362 . S
C519 H509 0.930 . S
C519 C512 1.409 . S
C519 C518 1.362 . S
H520 C526 0.930 . S
H521 C529 0.930 . S
H522 C530 0.930 . S
H523 C531 0.930 . S
H524 C534 0.930 . S
H525 C535 0.930 . S
C526 H520 0.930 . S
C526 C527 1.355 . S
C526 C528 1.415 . S
C527 C526 1.355 . S
C527 C529 1.419 . S
C528 C526 1.415 . S
C528 C533 1.425 . S
C528 C535 1.409 . S
C529 H521 0.930 . S
C529 C527 1.419 . S
C529 C530 1.362 . S
C530 H522 0.930 . S
C530 C529 1.362 . S
C530 C533 1.409 . S
C531 H523 0.930 . S
C531 C532 1.355 . S
C531 C533 1.415 . S
C532 C531 1.355 . S
C532 C534 1.419 . S
C533 C528 1.425 . S
C533 C530 1.409 . S
C533 C531 1.415 . S
C534 H524 0.930 . S
C534 C532 1.419 . S
C534 C535 1.362 . S
C535 H525 0.930 . S
C535 C528 1.409 . S
C535 C534 1.362 . S
H536 C542 0.930 . S
H537 C545 0.930 . S
H538 C546 0.930 . S
H539 C547 0.930 . S
H540 C550 0.930 . S
H541 C551 0.930 . S
C542 H536 0.930 . S
C542 C543 1.355 . S
C542 C544 1.415 . S
C543 C542 1.355 . S
C543 C545 1.419 . S
C544 C542 1.415 . S
C544 C549 1.425 . S
C544 C551 1.409 . S
C545 H537 0.930 . S
C545 C543 1.419 . S
C545 C546 1.362 . S
C546 H538 0.930 . S
C546 C545 1.362 . S
C546 C549 1.409 . S
C547 H539 0.930 . S
C547 C548 1.355 . S
C547 C549 1.415 . S
C548 C547 1.355 . S
C548 C550 1.419 . S
C549 C544 1.425 . S
C549 C546 1.409 . S
C549 C547 1.415 . S
C550 H540 0.930 . S
C550 C548 1.419 . S
C550 C551 1.362 . S
C551 H541 0.930 . S
C551 C544 1.409 . S
C551 C550 1.362 . S
C175 C76 1.676 . S
C180 C96 1.694 . S
C196 C126 1.799 . S
C191 C87 1.715 . S
C212 C136 1.577 . S
C207 C54 1.528 . S
C228 C156 1.444 . S
C223 C65 1.352 1_455 S
C244 C97 1.703 . S
C239 C32 1.654 . S
C255 C43 1.769 . S
C260 C127 1.808 . S
C271 C10 1.452 1_556 S
C276 C137 1.577 . S
C287 C21 1.371 . S
C292 C157 1.435 . S
C308 C89 0.910 . S
C303 C60 0.924 1_655 S
C324 C110 0.722 . S
C319 C71 0.694 . S
C340 C129 1.043 . S
C335 C82 1.071 . S
C351 C49 0.789 . S
C356 C149 0.870 . S
C367 C16 0.961 1_556 S
C372 C90 0.902 . S
C388 C109 0.762 1_565 S
C383 C27 0.772 . S
C404 C130 1.043 . S
C399 C38 1.059 1_556 S
C415 C5 0.888 1_556 S
C420 C150 0.827 . S
C431 C59 1.477 . S
C436 C107 1.605 . S
C447 C70 1.477 . S
C452 C117 1.548 . S
C468 C147 1.787 . S
C463 C81 1.663 . S
C484 C167 1.802 . S
C479 C48 1.637 . S
C495 C15 1.543 . S
C500 C106 1.640 . S
C516 C116 1.536 . S
C511 C26 1.369 . S
C532 C146 1.795 . S
C527 C37 1.716 . S
C543 C4 1.726 . S
C548 C166 1.794 . S
