# Generated by pormake.
# Topology eea, (3,6)-cn, num edge types: 1
# Building blocks:
#     Node 0, Type 0, BuildingBlock: ESEHIV_clean_linker_0, # of connection points: 3
#     Node 1, Type 0, BuildingBlock: ESEHIV_clean_linker_0, # of connection points: 3
#     Node 2, Type 0, BuildingBlock: ESEHIV_clean_linker_0, # of connection points: 3
#     Node 3, Type 0, BuildingBlock: ESEHIV_clean_linker_0, # of connection points: 3
#     Node 4, Type 0, BuildingBlock: ESEHIV_clean_linker_0, # of connection points: 3
#     Node 5, Type 0, BuildingBlock: ESEHIV_clean_linker_0, # of connection points: 3
#     Node 6, Type 0, BuildingBlock: ESEHIV_clean_linker_0, # of connection points: 3
#     Node 7, Type 0, BuildingBlock: ESEHIV_clean_linker_0, # of connection points: 3
#     Node 8, Type 0, BuildingBlock: ESEHIV_clean_linker_0, # of connection points: 3
#     Node 9, Type 0, BuildingBlock: ESEHIV_clean_linker_0, # of connection points: 3
#     Node 10, Type 0, BuildingBlock: ESEHIV_clean_linker_0, # of connection points: 3
#     Node 11, Type 0, BuildingBlock: ESEHIV_clean_linker_0, # of connection points: 3
#     Node 12, Type 0, BuildingBlock: ESEHIV_clean_linker_0, # of connection points: 3
#     Node 13, Type 0, BuildingBlock: ESEHIV_clean_linker_0, # of connection points: 3
#     Node 14, Type 0, BuildingBlock: ESEHIV_clean_linker_0, # of connection points: 3
#     Node 15, Type 0, BuildingBlock: ESEHIV_clean_linker_0, # of connection points: 3
#     Node 16, Type 0, BuildingBlock: ESEHIV_clean_linker_0, # of connection points: 3
#     Node 17, Type 0, BuildingBlock: ESEHIV_clean_linker_0, # of connection points: 3
#     Node 18, Type 1, BuildingBlock: CUKXOW_clean_sbu_0, # of connection points: 6
#     Node 19, Type 1, BuildingBlock: CUKXOW_clean_sbu_0, # of connection points: 6
#     Node 20, Type 1, BuildingBlock: CUKXOW_clean_sbu_0, # of connection points: 6
#     Node 21, Type 1, BuildingBlock: CUKXOW_clean_sbu_0, # of connection points: 6
#     Node 22, Type 1, BuildingBlock: CUKXOW_clean_sbu_0, # of connection points: 6
#     Node 23, Type 1, BuildingBlock: CUKXOW_clean_sbu_0, # of connection points: 6
#     Node 24, Type 1, BuildingBlock: CUKXOW_clean_sbu_0, # of connection points: 6
#     Node 25, Type 1, BuildingBlock: CUKXOW_clean_sbu_0, # of connection points: 6
#     Node 26, Type 1, BuildingBlock: CUKXOW_clean_sbu_0, # of connection points: 6
#     Edge 27, Type (0, 1), BuildingBlock: KIFKEQ_clean_linker_1, # of connection points: 2
#     Edge 28, Type (0, 1), BuildingBlock: KIFKEQ_clean_linker_1, # of connection points: 2
#     Edge 29, Type (0, 1), BuildingBlock: KIFKEQ_clean_linker_1, # of connection points: 2
#     Edge 30, Type (0, 1), BuildingBlock: KIFKEQ_clean_linker_1, # of connection points: 2
#     Edge 31, Type (0, 1), BuildingBlock: KIFKEQ_clean_linker_1, # of connection points: 2
#     Edge 32, Type (0, 1), BuildingBlock: KIFKEQ_clean_linker_1, # of connection points: 2
#     Edge 33, Type (0, 1), BuildingBlock: KIFKEQ_clean_linker_1, # of connection points: 2
#     Edge 34, Type (0, 1), BuildingBlock: KIFKEQ_clean_linker_1, # of connection points: 2
#     Edge 35, Type (0, 1), BuildingBlock: KIFKEQ_clean_linker_1, # of connection points: 2
#     Edge 36, Type (0, 1), BuildingBlock: KIFKEQ_clean_linker_1, # of connection points: 2
#     Edge 37, Type (0, 1), BuildingBlock: KIFKEQ_clean_linker_1, # of connection points: 2
#     Edge 38, Type (0, 1), BuildingBlock: KIFKEQ_clean_linker_1, # of connection points: 2
#     Edge 39, Type (0, 1), BuildingBlock: KIFKEQ_clean_linker_1, # of connection points: 2
#     Edge 40, Type (0, 1), BuildingBlock: KIFKEQ_clean_linker_1, # of connection points: 2
#     Edge 41, Type (0, 1), BuildingBlock: KIFKEQ_clean_linker_1, # of connection points: 2
#     Edge 42, Type (0, 1), BuildingBlock: KIFKEQ_clean_linker_1, # of connection points: 2
#     Edge 43, Type (0, 1), BuildingBlock: KIFKEQ_clean_linker_1, # of connection points: 2
#     Edge 44, Type (0, 1), BuildingBlock: KIFKEQ_clean_linker_1, # of connection points: 2
#     Edge 45, Type (0, 1), BuildingBlock: KIFKEQ_clean_linker_1, # of connection points: 2
#     Edge 46, Type (0, 1), BuildingBlock: KIFKEQ_clean_linker_1, # of connection points: 2
#     Edge 47, Type (0, 1), BuildingBlock: KIFKEQ_clean_linker_1, # of connection points: 2
#     Edge 48, Type (0, 1), BuildingBlock: KIFKEQ_clean_linker_1, # of connection points: 2
#     Edge 49, Type (0, 1), BuildingBlock: KIFKEQ_clean_linker_1, # of connection points: 2
#     Edge 50, Type (0, 1), BuildingBlock: KIFKEQ_clean_linker_1, # of connection points: 2
#     Edge 51, Type (0, 1), BuildingBlock: KIFKEQ_clean_linker_1, # of connection points: 2
#     Edge 52, Type (0, 1), BuildingBlock: KIFKEQ_clean_linker_1, # of connection points: 2
#     Edge 53, Type (0, 1), BuildingBlock: KIFKEQ_clean_linker_1, # of connection points: 2
#     Edge 54, Type (0, 1), BuildingBlock: KIFKEQ_clean_linker_1, # of connection points: 2
#     Edge 55, Type (0, 1), BuildingBlock: KIFKEQ_clean_linker_1, # of connection points: 2
#     Edge 56, Type (0, 1), BuildingBlock: KIFKEQ_clean_linker_1, # of connection points: 2
#     Edge 57, Type (0, 1), BuildingBlock: KIFKEQ_clean_linker_1, # of connection points: 2
#     Edge 58, Type (0, 1), BuildingBlock: KIFKEQ_clean_linker_1, # of connection points: 2
#     Edge 59, Type (0, 1), BuildingBlock: KIFKEQ_clean_linker_1, # of connection points: 2
#     Edge 60, Type (0, 1), BuildingBlock: KIFKEQ_clean_linker_1, # of connection points: 2
#     Edge 61, Type (0, 1), BuildingBlock: KIFKEQ_clean_linker_1, # of connection points: 2
#     Edge 62, Type (0, 1), BuildingBlock: KIFKEQ_clean_linker_1, # of connection points: 2
#     Edge 63, Type (0, 1), BuildingBlock: KIFKEQ_clean_linker_1, # of connection points: 2
#     Edge 64, Type (0, 1), BuildingBlock: KIFKEQ_clean_linker_1, # of connection points: 2
#     Edge 65, Type (0, 1), BuildingBlock: KIFKEQ_clean_linker_1, # of connection points: 2
#     Edge 66, Type (0, 1), BuildingBlock: KIFKEQ_clean_linker_1, # of connection points: 2
#     Edge 67, Type (0, 1), BuildingBlock: KIFKEQ_clean_linker_1, # of connection points: 2
#     Edge 68, Type (0, 1), BuildingBlock: KIFKEQ_clean_linker_1, # of connection points: 2
#     Edge 69, Type (0, 1), BuildingBlock: KIFKEQ_clean_linker_1, # of connection points: 2
#     Edge 70, Type (0, 1), BuildingBlock: KIFKEQ_clean_linker_1, # of connection points: 2
#     Edge 71, Type (0, 1), BuildingBlock: KIFKEQ_clean_linker_1, # of connection points: 2
#     Edge 72, Type (0, 1), BuildingBlock: KIFKEQ_clean_linker_1, # of connection points: 2
#     Edge 73, Type (0, 1), BuildingBlock: KIFKEQ_clean_linker_1, # of connection points: 2
#     Edge 74, Type (0, 1), BuildingBlock: KIFKEQ_clean_linker_1, # of connection points: 2
#     Edge 75, Type (0, 1), BuildingBlock: KIFKEQ_clean_linker_1, # of connection points: 2
#     Edge 76, Type (0, 1), BuildingBlock: KIFKEQ_clean_linker_1, # of connection points: 2
#     Edge 77, Type (0, 1), BuildingBlock: KIFKEQ_clean_linker_1, # of connection points: 2
#     Edge 78, Type (0, 1), BuildingBlock: KIFKEQ_clean_linker_1, # of connection points: 2
#     Edge 79, Type (0, 1), BuildingBlock: KIFKEQ_clean_linker_1, # of connection points: 2
#     Edge 80, Type (0, 1), BuildingBlock: KIFKEQ_clean_linker_1, # of connection points: 2
# Relax obj value: 0.018
# Max RMSD: 0.125
# Mean RMSD: 0.059
data_MOF--net-eea--node1-CUKXOW_clean_sbu_0--node2-ESEHIV_clean_linker_0--edge1-KIFKEQ_clean_linker_1
_symmetry_space_group_name_H-M    P1
_symmetry_Int_Tables_number       1
_symmetry_cell_setting            triclinic
loop_
_symmetry_equiv_pos_as_xyz
'x, y, z'
_cell_length_a     53.404458
_cell_length_b     50.190149
_cell_length_c     57.110109
_cell_angle_alpha  93.200374
_cell_angle_beta   93.180337
_cell_angle_gamma 119.94361
loop_
_atom_site_label
_atom_site_type_symbol
_atom_site_fract_x
_atom_site_fract_y
_atom_site_fract_z
_atom_type_partial_charge
H0 H 0.2678 0.18511 0.46194 0.0
H1 H 0.25837 0.09464 0.45998 0.0
H2 H 0.22371 0.11965 0.40111 0.0
C3 C 0.25987 0.16237 0.45296 0.0
C4 C 0.24511 0.15501 0.43025 0.0
C5 C 0.26489 0.1408 0.46392 0.0
C6 C 0.25501 0.11165 0.4517 0.0
C7 C 0.24061 0.10404 0.4289 0.0
C8 C 0.23576 0.12585 0.41834 0.0
H9 H 0.83027 0.09811 0.4648 0.0
H10 H 0.91099 0.18466 0.4688 0.0
H11 H 0.88689 0.11642 0.41001 0.0
C12 C 0.85011 0.1137 0.45739 0.0
C13 C 0.85603 0.10422 0.43585 0.0
C14 C 0.8696 0.14278 0.46948 0.0
C15 C 0.89561 0.16226 0.45972 0.0
C16 C 0.90221 0.15271 0.43845 0.0
C17 C 0.88208 0.12384 0.42651 0.0
H18 H 0.83831 0.73461 0.47462 0.0
H19 H 0.92053 0.73776 0.47948 0.0
H20 H 0.89577 0.77199 0.42048 0.0
C21 C 0.85884 0.741 0.46766 0.0
C22 C 0.86465 0.75426 0.44617 0.0
C23 C 0.87888 0.73512 0.47997 0.0
C24 C 0.9048 0.74196 0.47014 0.0
C25 C 0.91098 0.75531 0.44867 0.0
C26 C 0.8909 0.76151 0.43695 0.0
H27 H 0.09226 0.28278 0.53629 0.0
H28 H 0.17035 0.2775 0.53754 0.0
H29 H 0.11261 0.23961 0.59136 0.0
C30 C 0.10639 0.27544 0.54434 0.0
C31 C 0.09965 0.26097 0.56535 0.0
C32 C 0.13196 0.28156 0.5342 0.0
C33 C 0.15058 0.27274 0.5452 0.0
C34 C 0.14398 0.25792 0.56599 0.0
C35 C 0.11834 0.25192 0.57574 0.0
H36 H 0.74709 0.90898 0.54732 0.0
H37 H 0.73954 0.81933 0.54597 0.0
H38 H 0.78246 0.8854 0.60662 0.0
C39 C 0.75084 0.89231 0.55572 0.0
C40 C 0.7655 0.90045 0.57844 0.0
C41 C 0.74112 0.86301 0.5438 0.0
C42 C 0.74673 0.84192 0.55493 0.0
C43 C 0.76194 0.84994 0.57748 0.0
C44 C 0.77093 0.87913 0.58917 0.0
H45 H 0.09263 0.81257 0.54153 0.0
H46 H 0.17089 0.90113 0.5446 0.0
H47 H 0.11474 0.88114 0.59983 0.0
C48 C 0.10707 0.83544 0.55031 0.0
C49 C 0.10041 0.84427 0.57189 0.0
C50 C 0.13254 0.85573 0.54026 0.0
C51 C 0.15141 0.88505 0.55221 0.0
C52 C 0.14541 0.89408 0.57388 0.0
C53 C 0.11987 0.87365 0.58353 0.0
H54 H 0.93119 0.52061 0.79874 0.0
H55 H 0.92954 0.4339 0.79629 0.0
H56 H 0.88772 0.4532 0.73875 0.0
C57 C 0.92478 0.49831 0.78962 0.0
C58 C 0.9085 0.48933 0.76746 0.0
C59 C 0.9326 0.47847 0.80012 0.0
C60 C 0.92386 0.44946 0.78823 0.0
C61 C 0.90769 0.44015 0.76613 0.0
C62 C 0.90022 0.46028 0.75582 0.0
H63 H 0.49611 0.42624 0.79836 0.0
H64 H 0.57735 0.51227 0.80393 0.0
H65 H 0.55106 0.44836 0.74189 0.0
C66 C 0.51567 0.44228 0.79081 0.0
C67 C 0.52101 0.43401 0.76856 0.0
C68 C 0.53563 0.47054 0.80373 0.0
C69 C 0.56174 0.49035 0.79429 0.0
C70 C 0.56727 0.48244 0.77193 0.0
C71 C 0.54681 0.45436 0.75916 0.0
H72 H 0.49898 0.05299 0.80008 0.0
H73 H 0.57801 0.04974 0.79916 0.0
H74 H 0.55225 0.08776 0.74323 0.0
C75 C 0.51808 0.05707 0.79159 0.0
C76 C 0.52311 0.07046 0.77021 0.0
C77 C 0.53774 0.04938 0.80217 0.0
C78 C 0.56286 0.05581 0.79121 0.0
C79 C 0.56837 0.06966 0.76991 0.0
C80 C 0.5481 0.07652 0.75939 0.0
H81 H 0.76096 0.62019 0.8729 0.0
H82 H 0.83601 0.60951 0.86989 0.0
H83 H 0.78141 0.57472 0.92591 0.0
C84 C 0.77475 0.61183 0.87988 0.0
C85 C 0.76789 0.59625 0.90037 0.0
C86 C 0.79953 0.61717 0.86872 0.0
C87 C 0.8175 0.6068 0.87863 0.0
C88 C 0.81138 0.59193 0.8994 0.0
C89 C 0.78644 0.58658 0.91005 0.0
H90 H 0.41213 0.23863 0.88056 0.0
H91 H 0.40226 0.14793 0.8815 0.0
H92 H 0.44887 0.21653 0.93991 0.0
C93 C 0.41569 0.22203 0.88925 0.0
C94 C 0.43103 0.23089 0.91174 0.0
C95 C 0.40497 0.19212 0.87797 0.0
C96 C 0.41035 0.17114 0.88961 0.0
C97 C 0.42633 0.18009 0.91182 0.0
C98 C 0.43645 0.20978 0.9228 0.0
H99 H 0.75819 0.15391 0.87433 0.0
H100 H 0.84044 0.23873 0.87955 0.0
H101 H 0.78408 0.22083 0.93452 0.0
C102 C 0.77395 0.17585 0.88385 0.0
C103 C 0.76788 0.18509 0.90556 0.0
C104 C 0.80025 0.19502 0.87436 0.0
C105 C 0.82032 0.22358 0.88683 0.0
C106 C 0.81469 0.23303 0.90851 0.0
C107 C 0.78852 0.21359 0.91778 0.0
H108 H 0.6032 0.85538 0.12643 0.0
H109 H 0.591 0.76377 0.12664 0.0
H110 H 0.56076 0.7896 0.06561 0.0
C111 C 0.5952 0.83242 0.11783 0.0
C112 C 0.58147 0.82499 0.09473 0.0
C113 C 0.5992 0.81063 0.12953 0.0
C114 C 0.58869 0.78105 0.11778 0.0
C115 C 0.57521 0.77337 0.09466 0.0
C116 C 0.57186 0.79558 0.08322 0.0
H117 H 0.17105 0.76085 0.13382 0.0
H118 H 0.2536 0.84536 0.1393 0.0
H119 H 0.22349 0.78322 0.07578 0.0
C120 C 0.19085 0.77635 0.12628 0.0
C121 C 0.19486 0.76877 0.10333 0.0
C122 C 0.21184 0.8039 0.13946 0.0
C123 C 0.23705 0.82431 0.12918 0.0
C124 C 0.24153 0.81679 0.10624 0.0
C125 C 0.22018 0.78914 0.09344 0.0
H126 H 0.17499 0.40495 0.14438 0.0
H127 H 0.25663 0.4071 0.14828 0.0
H128 H 0.23198 0.44263 0.08998 0.0
C129 C 0.19538 0.41129 0.1372 0.0
C130 C 0.20114 0.42496 0.11589 0.0
C131 C 0.21531 0.40502 0.14916 0.0
C132 C 0.24103 0.41165 0.13912 0.0
C133 C 0.24719 0.42527 0.11772 0.0
C134 C 0.22719 0.43194 0.10636 0.0
H135 H 0.4292 0.95697 0.20909 0.0
H136 H 0.5054 0.94812 0.21058 0.0
H137 H 0.45115 0.91869 0.26722 0.0
C138 C 0.44358 0.9505 0.21794 0.0
C139 C 0.43714 0.93765 0.23965 0.0
C140 C 0.46807 0.95418 0.20722 0.0
C141 C 0.48638 0.9453 0.21859 0.0
C142 C 0.48053 0.93301 0.24034 0.0
C143 C 0.45607 0.92935 0.25083 0.0
H144 H 0.07986 0.57309 0.21244 0.0
H145 H 0.07522 0.4849 0.20965 0.0
H146 H 0.11617 0.54977 0.27137 0.0
C147 C 0.08442 0.5568 0.22064 0.0
C148 C 0.09885 0.56476 0.24342 0.0
C149 C 0.07582 0.52808 0.2083 0.0
C150 C 0.08209 0.50722 0.21897 0.0
C151 C 0.09626 0.51466 0.24192 0.0
C152 C 0.10451 0.54348 0.25398 0.0
H153 H 0.42169 0.49054 0.20101 0.0
H154 H 0.50158 0.57749 0.20662 0.0
H155 H 0.44792 0.55357 0.26391 0.0
C156 C 0.43697 0.51227 0.21105 0.0
C157 C 0.43153 0.5193 0.23378 0.0
C158 C 0.46204 0.53338 0.20108 0.0
C159 C 0.48213 0.56127 0.21422 0.0
C160 C 0.47736 0.56854 0.23698 0.0
C161 C 0.45186 0.54765 0.24651 0.0
Tb162 Tb 0.53511 0.028 0.00356 0.0
C163 C 0.51973 0.95955 0.01434 0.0
Tb164 Tb 0.47039 0.97669 0.00522 0.0
O165 O 0.53753 0.04733 0.03996 0.0
O166 O 0.50826 0.00163 0.0284 0.0
O167 O 0.5394 0.98693 0.00792 0.0
C168 C 0.4194 0.94623 0.023 0.0
O169 O 0.49232 0.95206 0.01656 0.0
C170 C 0.49054 0.98229 0.96384 0.0
C171 C 0.4856 0.045 0.99459 0.0
O172 O 0.4269 0.93602 0.0048 0.0
O173 O 0.44035 0.97365 0.03076 0.0
O174 O 0.46822 0.95692 0.96914 0.0
O175 O 0.49722 0.00295 0.98029 0.0
O176 O 0.4659 0.01737 1.0005 0.0
O177 O 0.5132 0.05298 0.99271 0.0
C178 C 0.58627 0.0586 0.98592 0.0
O179 O 0.57858 0.0688 0.00401 0.0
O180 O 0.56539 0.03113 0.97817 0.0
C181 C 0.51503 0.02199 0.04508 0.0
Tb182 Tb 0.98347 0.51523 0.99777 0.0
C183 C 0.0475 0.56235 0.01806 0.0
Tb184 Tb 0.02363 0.48947 0.00987 0.0
O185 O 0.98401 0.52794 0.03505 0.0
O186 O 0.98861 0.49016 0.02463 0.0
O187 O 0.02357 0.55902 0.00666 0.0
C188 C 0.05882 0.474 0.03281 0.0
O189 O 0.05139 0.53864 0.02171 0.0
C190 C 0.01947 0.49921 0.96553 0.0
C191 C 0.96031 0.44343 0.98945 0.0
O192 O 0.05171 0.49366 0.041 0.0
O193 O 0.04612 0.46301 0.01168 0.0
O194 O 0.02654 0.47951 0.97258 0.0
O195 O 0.01877 0.51469 0.9833 0.0
O196 O 0.98163 0.44705 0.00482 0.0
O197 O 0.95909 0.46739 0.982 0.0
C198 C 0.94724 0.53071 0.97683 0.0
O199 O 0.94247 0.51542 0.99523 0.0
O200 O 0.97245 0.53742 0.97032 0.0
C201 C 0.98958 0.50715 0.04219 0.0
Tb202 Tb 0.47054 0.48829 0.00976 0.0
C203 C 0.48872 0.44249 0.98839 0.0
Tb204 Tb 0.5343 0.5149 0.99816 0.0
O205 O 0.45479 0.47502 0.9724 0.0
O206 O 0.49615 0.51248 0.98292 0.0
O207 O 0.4701 0.44528 1.00138 0.0
C208 C 0.58322 0.53266 0.97758 0.0
O209 O 0.51326 0.46666 0.9832 0.0
C210 C 0.52525 0.50754 0.04263 0.0
C211 C 0.51606 0.56082 0.01906 0.0
O212 O 0.57594 0.51669 0.99567 0.0
O213 O 0.56302 0.53865 0.97118 0.0
O214 O 0.54963 0.52828 0.03565 0.0
O215 O 0.50866 0.49071 0.02488 0.0
O216 O 0.53463 0.5579 0.00612 0.0
O217 O 0.4916 0.53671 0.0244 0.0
C218 C 0.42247 0.47165 0.03142 0.0
O219 O 0.42933 0.48723 0.01312 0.0
O220 O 0.44247 0.46516 0.0373 0.0
C221 C 0.47924 0.49551 0.96531 0.0
Tb222 Tb 0.201 0.35586 0.33332 0.0
C223 C 0.18459 0.29409 0.35438 0.0
Tb224 Tb 0.1376 0.3139 0.34451 0.0
O225 O 0.21671 0.3703 0.37071 0.0
O226 O 0.17411 0.35597 0.35911 0.0
O227 O 0.20028 0.31288 0.33884 0.0
C228 C 0.08882 0.28054 0.36482 0.0
O229 O 0.16106 0.29359 0.36136 0.0
C230 C 0.14813 0.30963 0.30041 0.0
C231 C 0.15322 0.37556 0.32232 0.0
O232 O 0.09719 0.27049 0.34718 0.0
O233 O 0.10785 0.30933 0.37092 0.0
O234 O 0.12308 0.30394 0.30682 0.0
O235 O 0.16464 0.31408 0.31861 0.0
O236 O 0.13427 0.35322 0.3342 0.0
O237 O 0.17944 0.37979 0.31922 0.0
C238 C 0.24875 0.38759 0.31119 0.0
O239 O 0.22298 0.382 0.30407 0.0
O240 O 0.24772 0.3756 0.33089 0.0
C241 C 0.19129 0.36264 0.37727 0.0
Tb242 Tb 0.6472 0.84692 0.33289 0.0
C243 C 0.71082 0.89413 0.35432 0.0
Tb244 Tb 0.69103 0.82346 0.3409 0.0
O245 O 0.64448 0.85387 0.37078 0.0
O246 O 0.65667 0.82294 0.35786 0.0
O247 O 0.68728 0.89065 0.34215 0.0
C248 C 0.72601 0.80534 0.36027 0.0
O249 O 0.7151 0.8707 0.35784 0.0
C250 C 0.68266 0.83362 0.2974 0.0
C251 C 0.62793 0.77665 0.3183 0.0
O252 O 0.73317 0.82584 0.3452 0.0
O253 O 0.69914 0.79488 0.36423 0.0
O254 O 0.69269 0.81569 0.30295 0.0
O255 O 0.68168 0.84767 0.31599 0.0
O256 O 0.65121 0.77981 0.33071 0.0
O257 O 0.62406 0.80033 0.31464 0.0
C258 C 0.61149 0.86477 0.31467 0.0
O259 O 0.60345 0.83932 0.32443 0.0
O260 O 0.63956 0.88009 0.31512 0.0
C261 C 0.6553 0.83673 0.37641 0.0
Tb262 Tb 0.13412 0.82039 0.34079 0.0
C263 C 0.15462 0.77452 0.32248 0.0
Tb264 Tb 0.19958 0.84703 0.33329 0.0
O265 O 0.12186 0.80952 0.30284 0.0
O266 O 0.16293 0.8457 0.31591 0.0
O267 O 0.13386 0.77743 0.33208 0.0
C268 C 0.24942 0.86663 0.31374 0.0
O269 O 0.18093 0.79834 0.32043 0.0
C270 C 0.1866 0.83565 0.37674 0.0
C271 C 0.17893 0.89239 0.3503 0.0
O272 O 0.22436 0.84387 0.30498 0.0
O273 O 0.24649 0.87804 0.33365 0.0
O274 O 0.21292 0.85326 0.37147 0.0
O275 O 0.17082 0.8222 0.35791 0.0
O276 O 0.19695 0.88897 0.33699 0.0
O277 O 0.1548 0.86841 0.35613 0.0
C278 C 0.08458 0.80144 0.36057 0.0
O279 O 0.09348 0.82047 0.34434 0.0
O280 O 0.1033 0.79275 0.3653 0.0
C281 C 0.14751 0.82969 0.2974 0.0
Tb282 Tb 0.86386 0.6872 0.66607 0.0
C283 C 0.84752 0.62624 0.68856 0.0
Tb284 Tb 0.7991 0.6426 0.6744 0.0
O285 O 0.87718 0.70426 0.70368 0.0
O286 O 0.83439 0.68463 0.69018 0.0
O287 O 0.86401 0.64513 0.67341 0.0
C288 C 0.74879 0.60873 0.69279 0.0
O289 O 0.82315 0.62497 0.69411 0.0
C290 C 0.81283 0.63886 0.63127 0.0
C291 C 0.81575 0.70524 0.65268 0.0
O292 O 0.76484 0.59836 0.6846 0.0
O293 O 0.76097 0.63805 0.6905 0.0
O294 O 0.7866 0.63009 0.63648 0.0
O295 O 0.82865 0.64493 0.65021 0.0
O296 O 0.7964 0.68231 0.66389 0.0
O297 O 0.84238 0.71022 0.65047 0.0
C298 C 0.91315 0.71891 0.64581 0.0
O299 O 0.88777 0.71348 0.63753 0.0
O300 O 0.91084 0.70681 0.66562 0.0
C301 C 0.85073 0.69344 0.70907 0.0
Tb302 Tb 0.31022 0.17578 0.66705 0.0
C303 C 0.37316 0.22305 0.68967 0.0
Tb304 Tb 0.35427 0.15268 0.67579 0.0
O305 O 0.30825 0.18387 0.70491 0.0
O306 O 0.31958 0.15191 0.69235 0.0
O307 O 0.34988 0.21954 0.67705 0.0
C308 C 0.38978 0.13503 0.69484 0.0
O309 O 0.37722 0.19956 0.69368 0.0
C310 C 0.34649 0.16259 0.6321 0.0
C311 C 0.29071 0.10515 0.65404 0.0
O312 O 0.39797 0.16049 0.68505 0.0
O313 O 0.36167 0.11956 0.69391 0.0
O314 O 0.35752 0.1457 0.63794 0.0
O315 O 0.34483 0.17626 0.65058 0.0
O316 O 0.31427 0.10882 0.66633 0.0
O317 O 0.28634 0.12847 0.6503 0.0
C318 C 0.27569 0.19405 0.64711 0.0
O319 O 0.26823 0.17366 0.6623 0.0
O320 O 0.30258 0.20428 0.64335 0.0
C321 C 0.31836 0.16611 0.71076 0.0
Tb322 Tb 0.80592 0.15741 0.67727 0.0
C323 C 0.82479 0.11115 0.65796 0.0
Tb324 Tb 0.87094 0.18357 0.66891 0.0
O325 O 0.79224 0.14657 0.63926 0.0
O326 O 0.83401 0.18144 0.65179 0.0
O327 O 0.80504 0.11416 0.66913 0.0
C328 C 0.92017 0.20307 0.64853 0.0
O329 O 0.85046 0.13505 0.6545 0.0
C330 C 0.85893 0.17548 0.71268 0.0
C331 C 0.85168 0.22929 0.6891 0.0
O332 O 0.91213 0.18471 0.66522 0.0
O333 O 0.90071 0.21068 0.64359 0.0
O334 O 0.88436 0.19544 0.70673 0.0
O335 O 0.84299 0.15925 0.69442 0.0
O336 O 0.87121 0.22651 0.67741 0.0
O337 O 0.82634 0.20522 0.69295 0.0
C338 C 0.75602 0.1389 0.69632 0.0
O339 O 0.76433 0.15597 0.67889 0.0
O340 O 0.77573 0.13227 0.70289 0.0
C341 C 0.81797 0.1657 0.63347 0.0
H342 H 0.26896 0.87959 0.10482 0.0
H343 H 0.27539 0.79951 0.08351 0.0
H344 H 0.31154 0.9118 0.08432 0.0
H345 H 0.31799 0.8315 0.06342 0.0
H346 H 0.37317 0.88921 0.00833 0.0
H347 H 0.33024 0.85892 0.0289 0.0
H348 H 0.36334 0.93278 0.08517 0.0
H349 H 0.40578 0.96326 0.06421 0.0
C350 C 0.27971 0.86899 0.09601 0.0
C351 C 0.26869 0.83702 0.09555 0.0
C352 C 0.30408 0.88738 0.08426 0.0
C353 C 0.31799 0.87418 0.07194 0.0
C354 C 0.3074 0.84233 0.07217 0.0
C355 C 0.28305 0.824 0.08379 0.0
C356 C 0.37107 0.89899 0.02499 0.0
C357 C 0.39269 0.92853 0.03466 0.0
C358 C 0.34662 0.8816 0.03689 0.0
C359 C 0.34339 0.89332 0.05881 0.0
C360 C 0.36491 0.92316 0.06824 0.0
C361 C 0.38928 0.94059 0.05627 0.0
H362 H 0.18644 0.42009 0.06832 0.0
H363 H 0.16773 0.44582 0.13582 0.0
H364 H 0.15268 0.43259 0.04856 0.0
H365 H 0.13224 0.45587 0.11616 0.0
H366 H 0.09286 0.50231 0.07383 0.0
H367 H 0.1275 0.49089 0.09369 0.0
H368 H 0.10328 0.41545 0.04019 0.0
H369 H 0.06979 0.42813 0.0198 0.0
C370 C 0.17513 0.42838 0.07899 0.0
C371 C 0.17997 0.43198 0.10372 0.0
C372 C 0.15533 0.43507 0.06764 0.0
C373 C 0.13952 0.44516 0.0807 0.0
C374 C 0.14424 0.44858 0.10544 0.0
C375 C 0.16433 0.44231 0.11677 0.0
C376 C 0.09504 0.48333 0.06636 0.0
C377 C 0.07883 0.46618 0.04526 0.0
C378 C 0.11474 0.47659 0.07782 0.0
C379 C 0.11834 0.45222 0.06859 0.0
C380 C 0.10162 0.43478 0.0476 0.0
C381 C 0.08223 0.44184 0.03599 0.0
H382 H 0.54631 0.71763 0.11295 0.0
H383 H 0.58017 0.75829 0.04899 0.0
H384 H 0.53149 0.66666 0.0939 0.0
H385 H 0.56417 0.70706 0.02956 0.0
H386 H 0.56424 0.61618 0.01324 0.0
H387 H 0.57719 0.6673 0.03076 0.0
H388 H 0.49713 0.62772 0.06397 0.0
H389 H 0.48444 0.57651 0.04695 0.0
C390 C 0.55053 0.71568 0.09479 0.0
C391 C 0.56464 0.74208 0.08255 0.0
C392 C 0.54169 0.68639 0.08376 0.0
C393 C 0.54667 0.68274 0.06019 0.0
C394 C 0.56033 0.70909 0.04782 0.0
C395 C 0.5692 0.73841 0.05887 0.0
C396 C 0.5493 0.61835 0.02418 0.0
C397 C 0.52331 0.59216 0.02868 0.0
C398 C 0.55667 0.64773 0.03413 0.0
C399 C 0.53822 0.65164 0.0488 0.0
C400 C 0.51203 0.6255 0.05301 0.0
C401 C 0.50467 0.59612 0.0431 0.0
H402 H 0.83317 0.24666 0.95564 0.0
H403 H 0.84407 0.28837 0.89004 0.0
H404 H 0.86748 0.29718 0.97644 0.0
H405 H 0.87891 0.33852 0.91063 0.0
H406 H 0.91418 0.42776 0.95741 0.0
H407 H 0.87871 0.37673 0.9389 0.0
H408 H 0.91979 0.33664 0.97971 0.0
H409 H 0.95528 0.3879 0.99863 0.0
C410 C 0.84289 0.26661 0.94568 0.0
C411 C 0.83591 0.26354 0.9212 0.0
C412 C 0.86273 0.29546 0.95755 0.0
C413 C 0.87584 0.32185 0.94519 0.0
C414 C 0.86891 0.31871 0.92071 0.0
C415 C 0.8492 0.28991 0.90886 0.0
C416 C 0.91563 0.40812 0.96262 0.0
C417 C 0.93769 0.41199 0.97948 0.0
C418 C 0.89536 0.37885 0.95186 0.0
C419 C 0.89659 0.35268 0.95767 0.0
C420 C 0.91816 0.35636 0.97497 0.0
C421 C 0.93855 0.38574 0.98575 0.0
H422 H 0.7617 0.60196 0.94733 0.0
H423 H 0.71339 0.57488 0.87868 0.0
H424 H 0.71713 0.58732 0.96582 0.0
H425 H 0.66873 0.56019 0.89718 0.0
H426 H 0.59905 0.56406 0.93867 0.0
H427 H 0.644 0.58118 0.91992 0.0
H428 H 0.67266 0.54008 0.97173 0.0
H429 H 0.62794 0.5235 0.99064 0.0
C430 C 0.74154 0.59281 0.93619 0.0
C431 C 0.74106 0.58942 0.91154 0.0
C432 C 0.71598 0.58437 0.94678 0.0
C433 C 0.68932 0.57235 0.93299 0.0
C434 C 0.68894 0.56966 0.90831 0.0
C435 C 0.71454 0.57811 0.8977 0.0
C436 C 0.61504 0.55878 0.94603 0.0
C437 C 0.61016 0.54259 0.96613 0.0
C438 C 0.64068 0.56842 0.93523 0.0
C439 C 0.66198 0.56211 0.94437 0.0
C440 C 0.65692 0.54575 0.96446 0.0
C441 C 0.63125 0.53607 0.97521 0.0
H442 H 0.39167 0.13286 0.93697 0.0
H443 H 0.47735 0.18085 0.9136 0.0
H444 H 0.40524 0.10109 0.95946 0.0
H445 H 0.49083 0.14839 0.93496 0.0
H446 H 0.51768 0.10717 0.9916 0.0
H447 H 0.50238 0.13972 0.97271 0.0
H448 H 0.41577 0.06103 0.95699 0.0
H449 H 0.43081 0.02904 0.97696 0.0
C450 C 0.41327 0.13613 0.93641 0.0
C451 C 0.43348 0.15898 0.92357 0.0
C452 C 0.4211 0.11797 0.94921 0.0
C453 C 0.44927 0.12219 0.94924 0.0
C454 C 0.4692 0.14485 0.93589 0.0
C455 C 0.46144 0.16319 0.92337 0.0
C456 C 0.49527 0.09699 0.98441 0.0
C457 C 0.47549 0.06555 0.98578 0.0
C458 C 0.48652 0.11555 0.97332 0.0
C459 C 0.45788 0.10301 0.96289 0.0
C460 C 0.43789 0.07171 0.96498 0.0
C461 C 0.44653 0.05329 0.97644 0.0
H462 H 0.73268 0.20318 0.92527 0.0
H463 H 0.74028 0.12262 0.90896 0.0
H464 H 0.6891 0.17213 0.94464 0.0
H465 H 0.69661 0.0914 0.92855 0.0
H466 H 0.60124 0.0406 0.94583 0.0
H467 H 0.64447 0.07046 0.92552 0.0
H468 H 0.67548 0.14608 0.98006 0.0
H469 H 0.63185 0.11632 1.00005 0.0
C470 C 0.72507 0.17881 0.92591 0.0
C471 C 0.74008 0.16541 0.91574 0.0
C472 C 0.70013 0.16101 0.93709 0.0
C473 C 0.68951 0.12932 0.93843 0.0
C474 C 0.70407 0.1157 0.92771 0.0
C475 C 0.72907 0.13355 0.91645 0.0
C476 C 0.61743 0.06354 0.95354 0.0
C477 C 0.61327 0.07618 0.97452 0.0
C478 C 0.64224 0.08061 0.94194 0.0
C479 C 0.66345 0.11073 0.95109 0.0
C480 C 0.65938 0.12314 0.97231 0.0
C481 C 0.63452 0.10606 0.98388 0.0
H482 H 0.87064 0.62458 0.90526 0.0
H483 H 0.79686 0.5372 0.91759 0.0
H484 H 0.90325 0.60922 0.92349 0.0
H485 H 0.82948 0.52173 0.93575 0.0
H486 H 0.89524 0.52022 0.99027 0.0
H487 H 0.86225 0.53459 0.97109 0.0
H488 H 0.92081 0.57343 0.91724 0.0
H489 H 0.95402 0.55962 0.9368 0.0
C490 C 0.86141 0.60194 0.91164 0.0
C491 C 0.83117 0.58213 0.91002 0.0
C492 C 0.8801 0.59312 0.92207 0.0
C493 C 0.86899 0.56425 0.9311 0.0
C494 C 0.83873 0.54433 0.92931 0.0
C495 C 0.82004 0.55317 0.9189 0.0
C496 C 0.90099 0.53183 0.97434 0.0
C497 C 0.92717 0.53897 0.96505 0.0
C498 C 0.88204 0.53988 0.96326 0.0
C499 C 0.88889 0.55517 0.94263 0.0
C500 C 0.91507 0.56207 0.93328 0.0
C501 C 0.93403 0.55406 0.9444 0.0
H502 H 0.45675 0.28635 0.89272 0.0
H503 H 0.42797 0.24597 0.95783 0.0
H504 H 0.47106 0.33717 0.91194 0.0
H505 H 0.44326 0.297 0.9773 0.0
H506 H 0.44131 0.38676 0.99487 0.0
H507 H 0.42842 0.33581 0.97686 0.0
H508 H 0.50691 0.3765 0.94155 0.0
H509 H 0.51959 0.42746 0.95913 0.0
C510 C 0.45354 0.28834 0.91116 0.0
C511 C 0.4411 0.2621 0.92372 0.0
C512 C 0.46204 0.31752 0.92224 0.0
C513 C 0.45829 0.32115 0.94616 0.0
C514 C 0.44615 0.29495 0.9588 0.0
C515 C 0.4377 0.26577 0.94771 0.0
C516 C 0.4559 0.38487 0.98335 0.0
C517 C 0.48147 0.41128 0.97845 0.0
C518 C 0.44857 0.35561 0.97312 0.0
C519 C 0.46661 0.35209 0.95773 0.0
C520 C 0.49235 0.37845 0.95308 0.0
C521 C 0.4997 0.40768 0.96331 0.0
H522 H 0.16783 0.71173 0.11936 0.0
H523 H 0.17282 0.7587 0.05717 0.0
H524 H 0.13268 0.6626 0.09745 0.0
H525 H 0.138 0.70929 0.03504 0.0
H526 H 0.04976 0.61777 0.01395 0.0
H527 H 0.08562 0.66825 0.03384 0.0
H528 H 0.13289 0.62793 0.06505 0.0
H529 H 0.09717 0.57762 0.04549 0.0
C530 C 0.16129 0.71155 0.10103 0.0
C531 C 0.17305 0.73905 0.08999 0.0
C532 C 0.14141 0.68339 0.08841 0.0
C533 C 0.13273 0.68208 0.06448 0.0
C534 C 0.14419 0.70962 0.05348 0.0
C535 C 0.16426 0.73782 0.06609 0.0
C536 C 0.06794 0.61971 0.02487 0.0
C537 C 0.07047 0.59356 0.02817 0.0
C538 C 0.08851 0.64865 0.0362 0.0
C539 C 0.11189 0.65196 0.05117 0.0
C540 C 0.11484 0.626 0.05393 0.0
C541 C 0.09443 0.59718 0.04254 0.0
H542 H 0.27205 0.38918 0.11266 0.0
H543 H 0.28389 0.47819 0.09857 0.0
H544 H 0.31472 0.39999 0.09223 0.0
H545 H 0.32649 0.4891 0.07834 0.0
H546 H 0.37877 0.48303 0.02005 0.0
H547 H 0.33708 0.47172 0.04186 0.0
H548 H 0.36737 0.43263 0.09418 0.0
H549 H 0.40878 0.44343 0.07198 0.0
C550 C 0.284 0.41121 0.10548 0.0
C551 C 0.27443 0.43269 0.10702 0.0
C552 C 0.30843 0.41742 0.09377 0.0
C553 C 0.32385 0.44528 0.0834 0.0
C554 C 0.31475 0.46711 0.08562 0.0
C555 C 0.29036 0.46089 0.09727 0.0
C556 C 0.37641 0.47192 0.03616 0.0
C557 C 0.3969 0.46404 0.04432 0.0
C558 C 0.35267 0.46564 0.04877 0.0
C559 C 0.34894 0.45142 0.06987 0.0
C560 C 0.3694 0.4433 0.07789 0.0
C561 C 0.39316 0.44957 0.06524 0.0
H562 H 0.55701 0.8573 0.11227 0.0
H563 H 0.59269 0.84243 0.05018 0.0
H564 H 0.54327 0.89009 0.09147 0.0
H565 H 0.57907 0.87547 0.02938 0.0
H566 H 0.48851 0.90789 0.03681 0.0
H567 H 0.50572 0.8772 0.05595 0.0
H568 H 0.59037 0.93301 0.03208 0.0
H569 H 0.57331 0.96434 0.0129 0.0
C570 C 0.56231 0.86145 0.0943 0.0
C571 C 0.57584 0.84729 0.08281 0.0
C572 C 0.55425 0.87998 0.08235 0.0
C573 C 0.55993 0.88509 0.05877 0.0
C574 C 0.5745 0.87194 0.04755 0.0
C575 C 0.58215 0.85297 0.0594 0.0
C576 C 0.51075 0.9136 0.03535 0.0
C577 C 0.52956 0.93877 0.02335 0.0
C578 C 0.52063 0.89609 0.04652 0.0
C579 C 0.54946 0.90299 0.04576 0.0
C580 C 0.56803 0.92725 0.03295 0.0
C581 C 0.55824 0.94514 0.02197 0.0
H582 H 0.93852 0.13455 0.42131 0.0
H583 H 0.92976 0.21497 0.43416 0.0
H584 H 0.984 0.16573 0.40433 0.0
H585 H 0.97525 0.24629 0.41684 0.0
H586 H 0.07177 0.29811 0.404 0.0
H587 H 0.0273 0.26767 0.42285 0.0
H588 H 1.00073 0.19155 0.36953 0.0
H589 H 0.04549 0.22176 0.35116 0.0
C590 C 0.94624 0.1589 0.42033 0.0
C591 C 0.93043 0.17226 0.42888 0.0
C592 C 0.9723 0.17678 0.41056 0.0
C593 C 0.98319 0.20849 0.40901 0.0
C594 C 0.96764 0.222 0.41797 0.0
C595 C 0.94157 0.20408 0.42785 0.0
C596 C 0.05636 0.27485 0.39637 0.0
C597 C 0.06197 0.26222 0.37615 0.0
C598 C 0.03084 0.25747 0.40707 0.0
C599 C 0.01041 0.22714 0.39773 0.0
C600 C 0.01616 0.21464 0.37743 0.0
C601 C 0.04171 0.23198 0.3668 0.0
H602 H 0.83137 0.77617 0.46478 0.0
H603 H 0.84984 0.74691 0.39851 0.0
H604 H 0.79718 0.78734 0.44369 0.0
H605 H 0.81628 0.75899 0.3775 0.0
H606 H 0.7804 0.82017 0.34994 0.0
H607 H 0.81355 0.80697 0.37064 0.0
H608 H 0.74913 0.7583 0.41845 0.0
H609 H 0.71601 0.77141 0.3977 0.0
C610 C 0.82799 0.77186 0.44576 0.0
C611 C 0.84345 0.76068 0.43337 0.0
C612 C 0.80847 0.77837 0.43369 0.0
C613 C 0.80416 0.77412 0.40897 0.0
C614 C 0.81948 0.76288 0.39656 0.0
C615 C 0.83877 0.75606 0.40862 0.0
C616 C 0.77335 0.80654 0.3648 0.0
C617 C 0.7457 0.79671 0.37222 0.0
C618 C 0.79223 0.79889 0.37657 0.0
C619 C 0.7839 0.78163 0.39615 0.0
C620 C 0.7562 0.77184 0.40354 0.0
C621 C 0.73721 0.77916 0.39159 0.0
H622 H 0.24452 0.09025 0.38266 0.0
H623 H 0.21323 0.04785 0.44662 0.0
H624 H 0.22797 0.0394 0.36211 0.0
H625 H 0.19765 0.99726 0.42637 0.0
H626 H 0.14787 0.90852 0.37842 0.0
H627 H 0.16151 0.95975 0.39608 0.0
H628 H 0.24067 0.99882 0.36166 0.0
H629 H 0.22682 0.94759 0.34357 0.0
C630 C 0.23402 0.07006 0.3923 0.0
C631 C 0.23026 0.07309 0.41629 0.0
C632 C 0.2248 0.04098 0.3806 0.0
C633 C 0.2115 0.01427 0.39259 0.0
C634 C 0.20751 0.01731 0.41652 0.0
C635 C 0.21677 0.04636 0.42822 0.0
C636 C 0.16807 0.92803 0.3744 0.0
C637 C 0.18628 0.92387 0.3596 0.0
C638 C 0.17598 0.9574 0.38468 0.0
C639 C 0.20228 0.98335 0.38043 0.0
C640 C 0.22014 0.97935 0.36513 0.0
C641 C 0.21224 0.94993 0.35484 0.0
H642 H 0.53629 0.5944 0.24189 0.0
H643 H 0.46749 0.60946 0.26278 0.0
H644 H 0.57226 0.64421 0.26244 0.0
H645 H 0.50348 0.65895 0.28398 0.0
H646 H 0.57711 0.76065 0.29216 0.0
H647 H 0.54057 0.70981 0.27388 0.0
H648 H 0.59075 0.67102 0.30213 0.0
H649 H 0.62766 0.72202 0.32022 0.0
C650 C 0.52887 0.60834 0.25095 0.0
C651 C 0.49907 0.5981 0.2506 0.0
C652 C 0.54946 0.63671 0.26294 0.0
C653 C 0.54073 0.65555 0.27481 0.0
C654 C 0.5109 0.6451 0.27478 0.0
C655 C 0.49028 0.61664 0.26285 0.0
C656 C 0.58039 0.74132 0.29458 0.0
C657 C 0.60541 0.7455 0.30766 0.0
C658 C 0.5593 0.71211 0.2842 0.0
C659 C 0.56273 0.68637 0.28658 0.0
C660 C 0.58763 0.69046 0.29978 0.0
C661 C 0.60872 0.71969 0.31023 0.0
H662 H 0.42936 0.94408 0.28622 0.0
H663 H 0.38295 0.91553 0.21673 0.0
H664 H 0.38397 0.92745 0.30361 0.0
H665 H 0.33772 0.90079 0.23405 0.0
H666 H 0.25881 0.84206 0.27376 0.0
H667 H 0.30422 0.86121 0.25552 0.0
H668 H 0.34641 0.93807 0.30958 0.0
H669 H 0.30128 0.91802 0.32825 0.0
C670 C 0.4095 0.93454 0.27462 0.0
C671 C 0.40986 0.93094 0.25006 0.0
C672 C 0.38344 0.92534 0.28459 0.0
C673 C 0.35704 0.9126 0.27027 0.0
C674 C 0.35753 0.91 0.24566 0.0
C675 C 0.38359 0.91895 0.23569 0.0
C676 C 0.27788 0.86298 0.28173 0.0
C677 C 0.27669 0.87843 0.3025 0.0
C678 C 0.30385 0.87416 0.27117 0.0
C679 C 0.3291 0.90124 0.28105 0.0
C680 C 0.32761 0.91688 0.30169 0.0
C681 C 0.30172 0.9055 0.31235 0.0
H682 H 0.08987 0.49978 0.2874 0.0
H683 H 0.11758 0.47985 0.22238 0.0
H684 H 0.10331 0.46611 0.30693 0.0
H685 H 0.13023 0.44539 0.24174 0.0
H686 H 0.18208 0.41767 0.2912 0.0
H687 H 0.16718 0.45005 0.27165 0.0
H688 H 0.08927 0.41166 0.30771 0.0
H689 H 0.10436 0.37948 0.32765 0.0
C690 C 0.09876 0.48812 0.27726 0.0
C691 C 0.10282 0.49264 0.25337 0.0
C692 C 0.10619 0.46858 0.28839 0.0
C693 C 0.11794 0.45315 0.27593 0.0
C694 C 0.12155 0.45725 0.25192 0.0
C695 C 0.11401 0.47672 0.24076 0.0
C696 C 0.16186 0.41625 0.29516 0.0
C697 C 0.14452 0.39608 0.31117 0.0
C698 C 0.15318 0.43462 0.28372 0.0
C699 C 0.12698 0.43338 0.28804 0.0
C700 C 0.10971 0.41338 0.30416 0.0
C701 C 0.11833 0.39486 0.31554 0.0
H702 H 0.37635 0.48304 0.21168 0.0
H703 H 0.42552 0.50596 0.27974 0.0
H704 H 0.33223 0.44877 0.22925 0.0
H705 H 0.38127 0.4737 0.29756 0.0
H706 H 0.3019 0.39409 0.32163 0.0
H707 H 0.34557 0.423 0.30172 0.0
H708 H 0.29848 0.4498 0.25356 0.0
H709 H 0.25452 0.41948 0.27287 0.0
C710 C 0.37782 0.48073 0.23036 0.0
C711 C 0.40459 0.49746 0.24426 0.0
C712 C 0.35238 0.46139 0.24054 0.0
C713 C 0.35299 0.45849 0.26491 0.0
C714 C 0.37985 0.47492 0.2787 0.0
C715 C 0.40528 0.49392 0.26851 0.0
C716 C 0.30095 0.40608 0.30671 0.0
C717 C 0.27498 0.40479 0.29887 0.0
C718 C 0.32601 0.42284 0.29536 0.0
C719 C 0.32578 0.43908 0.27609 0.0
C720 C 0.29952 0.43733 0.2681 0.0
C721 C 0.27434 0.4202 0.27929 0.0
H722 H 0.51054 0.95301 0.28377 0.0
H723 H 0.49273 0.89001 0.22228 0.0
H724 H 0.54249 0.9364 0.30229 0.0
H725 H 0.52396 0.87276 0.24107 0.0
H726 H 0.5537 0.82894 0.30098 0.0
H727 H 0.52143 0.84535 0.28291 0.0
H728 H 0.59289 0.93918 0.28768 0.0
H729 H 0.62538 0.92268 0.30504 0.0
C730 C 0.5134 0.93551 0.27435 0.0
C731 C 0.49941 0.92279 0.25166 0.0
C732 C 0.53163 0.92612 0.28486 0.0
C733 C 0.5355 0.90334 0.27303 0.0
C734 C 0.52113 0.89028 0.2505 0.0
C735 C 0.50347 0.90019 0.23977 0.0
C736 C 0.56244 0.85304 0.29815 0.0
C737 C 0.59192 0.8746 0.30434 0.0
C738 C 0.54407 0.86235 0.2878 0.0
C739 C 0.5548 0.89347 0.28404 0.0
C740 C 0.58418 0.91509 0.29056 0.0
C741 C 0.6027 0.90566 0.30038 0.0
H742 H 0.12554 0.62103 0.22592 0.0
H743 H 0.09333 0.5778 0.2894 0.0
H744 H 0.13973 0.67131 0.24618 0.0
H745 H 0.10817 0.62831 0.30988 0.0
H746 H 0.10613 0.71882 0.32705 0.0
H747 H 0.09366 0.66808 0.3088 0.0
H748 H 0.17519 0.7088 0.27778 0.0
H749 H 0.1876 0.75957 0.29573 0.0
C750 C 0.1215 0.62229 0.24422 0.0
C751 C 0.1082 0.59544 0.25604 0.0
C752 C 0.12991 0.65113 0.2559 0.0
C753 C 0.12512 0.6538 0.27965 0.0
C754 C 0.11195 0.62697 0.29153 0.0
C755 C 0.10369 0.59811 0.27987 0.0
C756 C 0.12151 0.71697 0.31647 0.0
C757 C 0.14786 0.74334 0.31286 0.0
C758 C 0.11441 0.68784 0.30611 0.0
C759 C 0.13339 0.68444 0.29178 0.0
C760 C 0.15995 0.71071 0.2885 0.0
C761 C 0.16714 0.7398 0.29896 0.0
H762 H 0.82833 0.0488 0.45448 0.0
H763 H 0.83676 0.09034 0.38901 0.0
H764 H 0.79352 0.99836 0.4341 0.0
H765 H 0.80234 0.03967 0.36846 0.0
H766 H 0.71416 0.94949 0.34776 0.0
H767 H 0.7497 1.00043 0.36704 0.0
H768 H 0.79317 0.96024 0.40453 0.0
H769 H 0.75763 0.90936 0.38557 0.0
C770 C 0.82268 0.04713 0.43573 0.0
C771 C 0.83519 0.0735 0.42334 0.0
C772 C 0.80298 0.01822 0.42402 0.0
C773 C 0.79524 0.01506 0.39967 0.0
C774 C 0.80772 0.04144 0.38727 0.0
C775 C 0.82759 0.07036 0.39897 0.0
C776 C 0.73135 0.95151 0.36005 0.0
C777 C 0.733 0.92531 0.36512 0.0
C778 C 0.75179 0.98073 0.37099 0.0
C779 C 0.77416 0.9843 0.38735 0.0
C780 C 0.77597 0.95816 0.39222 0.0
C781 C 0.75569 0.92902 0.3812 0.0
H782 H 0.93474 0.71847 0.44237 0.0
H783 H 0.94845 0.80889 0.43089 0.0
H784 H 0.97679 0.72895 0.42118 0.0
H785 H 0.9907 0.8197 0.41016 0.0
H786 H 0.0422 0.81542 0.35088 0.0
H787 H 1.00088 0.8041 0.3732 0.0
H788 H 0.02885 0.75945 0.4223 0.0
H789 H 0.06963 0.77002 0.39947 0.0
C790 C 0.94707 0.74077 0.43566 0.0
C791 C 0.93821 0.76276 0.43809 0.0
C792 C 0.97114 0.7468 0.42351 0.0
C793 C 0.98694 0.77504 0.41368 0.0
C794 C 0.97862 0.79742 0.41695 0.0
C795 C 0.95452 0.79131 0.42894 0.0
C796 C 0.03933 0.803 0.36635 0.0
C797 C 0.05894 0.79346 0.37342 0.0
C798 C 0.01583 0.79674 0.37928 0.0
C799 C 0.01161 0.78102 0.39967 0.0
C800 C 0.03121 0.77125 0.40656 0.0
C801 C 0.05461 0.77737 0.39353 0.0
H802 H 0.2264 0.19147 0.4512 0.0
H803 H 0.24848 0.16862 0.38429 0.0
H804 H 0.21312 0.22588 0.43277 0.0
H805 H 0.23407 0.2021 0.36565 0.0
H806 H 0.23154 0.28811 0.34519 0.0
H807 H 0.2477 0.25596 0.36378 0.0
H808 H 0.17455 0.2213 0.40546 0.0
H809 H 0.15872 0.25377 0.38733 0.0
C810 C 0.22864 0.19396 0.43259 0.0
C811 C 0.23845 0.17722 0.41922 0.0
C812 C 0.22066 0.21339 0.42195 0.0
C813 C 0.22229 0.21657 0.39768 0.0
C814 C 0.23271 0.20036 0.3844 0.0
C815 C 0.24069 0.18091 0.39505 0.0
C816 C 0.21884 0.27355 0.35826 0.0
C817 C 0.19379 0.27352 0.36471 0.0
C818 C 0.22807 0.25504 0.36886 0.0
C819 C 0.2125 0.23614 0.3862 0.0
C820 C 0.18733 0.23595 0.39247 0.0
C821 C 0.17811 0.2544 0.38188 0.0
H822 H 0.57212 0.50748 0.73028 0.0
H823 H 0.62303 0.50383 0.79005 0.0
H824 H 0.61662 0.53929 0.71165 0.0
H825 H 0.66762 0.5351 0.77114 0.0
H826 H 0.73 0.55314 0.71032 0.0
H827 H 0.6865 0.52417 0.73093 0.0
H828 H 0.66418 0.59486 0.72207 0.0
H829 H 0.70803 0.62421 0.702 0.0
C830 C 0.5929 0.51368 0.73943 0.0
C831 C 0.5943 0.50336 0.76156 0.0
C832 C 0.61827 0.53186 0.72884 0.0
C833 C 0.64544 0.53948 0.73996 0.0
C834 C 0.64687 0.52936 0.76219 0.0
C835 C 0.6215 0.51171 0.77303 0.0
C836 C 0.71575 0.56242 0.71278 0.0
C837 C 0.7222 0.59078 0.70452 0.0
C838 C 0.69105 0.546 0.72468 0.0
C839 C 0.6721 0.55738 0.72808 0.0
C840 C 0.67843 0.5856 0.7196 0.0
C841 C 0.70345 0.60233 0.70815 0.0
H842 H 0.5088 0.11144 0.78903 0.0
H843 H 0.49226 0.04941 0.72722 0.0
H844 H 0.47645 0.12753 0.77053 0.0
H845 H 0.45921 0.06479 0.70901 0.0
H846 H 0.37593 0.07727 0.70492 0.0
H847 H 0.40826 0.06116 0.72322 0.0
H848 H 0.47932 0.15525 0.72861 0.0
H849 H 0.44724 0.17127 0.70961 0.0
C850 C 0.49799 0.10112 0.77159 0.0
C851 C 0.50281 0.07922 0.75947 0.0
C852 C 0.4797 0.11038 0.76102 0.0
C853 C 0.46549 0.09733 0.73843 0.0
C854 C 0.46993 0.07504 0.72648 0.0
C855 C 0.48876 0.06633 0.73682 0.0
C856 C 0.39848 0.09444 0.70995 0.0
C857 C 0.40922 0.12545 0.70583 0.0
C858 C 0.4169 0.08523 0.72033 0.0
C859 C 0.44612 0.10703 0.72727 0.0
C860 C 0.45679 0.13811 0.72343 0.0
C861 C 0.43854 0.1472 0.71252 0.0
H862 H 0.91018 0.42548 0.71973 0.0
H863 H 0.88415 0.38495 0.7852 0.0
H864 H 0.89549 0.37458 0.7001 0.0
H865 H 0.87018 0.33432 0.76578 0.0
H866 H 0.89886 0.28513 0.68253 0.0
H867 H 0.91152 0.33607 0.70047 0.0
H868 H 0.83327 0.29503 0.73605 0.0
H869 H 0.82072 0.24409 0.71843 0.0
C870 C 0.90121 0.40568 0.72989 0.0
C871 C 0.89837 0.40922 0.75402 0.0
C872 C 0.89306 0.37661 0.71871 0.0
C873 C 0.8817 0.35043 0.73139 0.0
C874 C 0.87859 0.35397 0.75546 0.0
C875 C 0.88687 0.38302 0.76664 0.0
C876 C 0.88427 0.28694 0.6941 0.0
C877 C 0.85879 0.26045 0.69904 0.0
C878 C 0.89147 0.31618 0.70427 0.0
C879 C 0.87344 0.31957 0.71973 0.0
C880 C 0.84779 0.29314 0.72444 0.0
C881 C 0.84052 0.26394 0.71419 0.0
H882 H 0.16528 0.90844 0.62061 0.0
H883 H 0.17159 0.94955 0.55516 0.0
H884 H 0.19966 0.95933 0.64086 0.0
H885 H 0.20638 1.0002 0.57522 0.0
H886 H 0.28784 0.04993 0.66045 0.0
H887 H 0.25204 0.99881 0.64161 0.0
H888 H 0.20751 0.03845 0.60488 0.0
H889 H 0.24329 0.08947 0.62338 0.0
C890 C 0.17393 0.92838 0.61059 0.0
C891 C 0.16579 0.92503 0.5863 0.0
C892 C 0.1938 0.95743 0.62212 0.0
C893 C 0.20574 0.98375 0.60963 0.0
C894 C 0.19736 0.9804 0.58538 0.0
C895 C 0.17766 0.95137 0.57384 0.0
C896 C 0.27037 0.04775 0.64842 0.0
C897 C 0.2685 0.07386 0.64343 0.0
C898 C 0.24977 0.01842 0.63773 0.0
C899 C 0.22701 0.01463 0.62172 0.0
C900 C 0.22499 0.04068 0.61692 0.0
C901 C 0.24544 0.06992 0.62768 0.0
H902 H 0.09559 0.26985 0.6122 0.0
H903 H 0.04437 0.23948 0.54473 0.0
H904 H 0.05216 0.25651 0.63192 0.0
H905 H 1.00072 0.22637 0.56459 0.0
H906 H 0.93458 0.23454 0.60958 0.0
H907 H 0.97799 0.25011 0.58883 0.0
H908 H 0.00792 0.208 0.63869 0.0
H909 H 0.96463 0.19265 0.65946 0.0
C910 C 0.07501 0.26025 0.60157 0.0
C911 C 0.07337 0.25533 0.5769 0.0
C912 C 0.05013 0.25261 0.61289 0.0
C913 C 0.02297 0.24003 0.59984 0.0
C914 C 0.02139 0.23615 0.57511 0.0
C915 C 0.04637 0.24371 0.56374 0.0
C916 C 0.95054 0.22875 0.61612 0.0
C917 C 0.94645 0.21261 0.6362 0.0
C918 C 0.97525 0.23746 0.60416 0.0
C919 C 0.99642 0.2304 0.61218 0.0
C920 C 0.99218 0.21415 0.63227 0.0
C921 C 0.96738 0.20525 0.64411 0.0
H922 H 0.72704 0.78746 0.57923 0.0
H923 H 0.81348 0.86349 0.60093 0.0
H924 H 0.73967 0.75213 0.59727 0.0
H925 H 0.82573 0.82851 0.61959 0.0
H926 H 0.84799 0.7526 0.62636 0.0
H927 H 0.83433 0.78666 0.60809 0.0
H928 H 0.75105 0.73998 0.6362 0.0
H929 H 0.7645 0.70538 0.65428 0.0
C930 C 0.74871 0.79661 0.58784 0.0
C931 C 0.76924 0.82829 0.58866 0.0
C932 C 0.75585 0.77644 0.59839 0.0
C933 C 0.78371 0.78749 0.60986 0.0
C934 C 0.80418 0.81917 0.61068 0.0
C935 C 0.79704 0.8393 0.60021 0.0
C936 C 0.82678 0.74958 0.62879 0.0
C937 C 0.80743 0.72631 0.64198 0.0
C938 C 0.819 0.76924 0.61834 0.0
C939 C 0.79165 0.76616 0.62077 0.0
C940 C 0.77218 0.74278 0.63381 0.0
C941 C 0.77998 0.72308 0.64431 0.0
H942 H 0.04617 0.8062 0.54876 0.0
H943 H 0.09229 0.83497 0.61836 0.0
H944 H 1.001 0.77386 0.56586 0.0
H945 H 0.04702 0.80438 0.63552 0.0
H946 H 0.96595 0.72629 0.65959 0.0
H947 H 0.01082 0.75387 0.64086 0.0
H948 H 0.9663 0.77766 0.58778 0.0
H949 H 0.92116 0.74882 0.60608 0.0
C950 C 0.04675 0.80554 0.5677 0.0
C951 C 0.07295 0.82334 0.58215 0.0
C952 C 0.02072 0.78732 0.57755 0.0
C953 C 0.0202 0.78657 0.60213 0.0
C954 C 0.04651 0.80401 0.61652 0.0
C955 C 0.07251 0.82197 0.60667 0.0
C956 C 0.96581 0.73737 0.64388 0.0
C957 C 0.94021 0.73564 0.63435 0.0
C958 C 0.99156 0.75335 0.63319 0.0
C959 C 0.99237 0.76826 0.61284 0.0
C960 C 0.96651 0.76618 0.60322 0.0
C961 C 0.94068 0.7499 0.61381 0.0
H962 H 0.15864 0.26179 0.61328 0.0
H963 H 0.17438 0.23356 0.54536 0.0
H964 H 0.19006 0.24573 0.63267 0.0
H965 H 0.2065 0.21832 0.5649 0.0
H966 H 0.28656 0.22852 0.60995 0.0
H967 H 0.25473 0.24393 0.58998 0.0
H968 H 0.18972 0.19577 0.63749 0.0
H969 H 0.22157 0.1803 0.65741 0.0
C970 C 0.16862 0.25198 0.60246 0.0
C971 C 0.16382 0.24884 0.57773 0.0
C972 C 0.18668 0.24286 0.6136 0.0
C973 C 0.20063 0.23071 0.60029 0.0
C974 C 0.19621 0.2279 0.57558 0.0
C975 C 0.17789 0.23673 0.56441 0.0
C976 C 0.26547 0.22129 0.61611 0.0
C977 C 0.25649 0.20336 0.63525 0.0
C978 C 0.24722 0.22993 0.60461 0.0
C979 C 0.21979 0.22107 0.61221 0.0
C980 C 0.21087 0.20316 0.6314 0.0
C981 C 0.229 0.19422 0.64273 0.0
H982 H 0.79238 0.95658 0.56058 0.0
H983 H 0.76077 0.91414 0.62446 0.0
H984 H 0.80729 0.00714 0.58072 0.0
H985 H 0.77649 0.96486 0.64483 0.0
H986 H 0.77631 0.05572 0.66311 0.0
H987 H 0.76289 0.00489 0.64451 0.0
H988 H 0.84314 0.04485 0.61162 0.0
H989 H 0.85644 0.09578 0.62986 0.0
C990 C 0.78862 0.95806 0.57893 0.0
C991 C 0.77529 0.93135 0.5909 0.0
C992 C 0.79747 0.98707 0.59055 0.0
C993 C 0.79312 0.99003 0.61439 0.0
C994 C 0.77992 0.96332 0.6264 0.0
C995 C 0.77117 0.93432 0.6148 0.0
C996 C 0.79121 0.0537 0.65203 0.0
C997 C 0.81745 0.07991 0.64798 0.0
C998 C 0.78355 0.0245 0.64146 0.0
C999 C 0.8019 0.02084 0.62652 0.0
C1000 C 0.82835 0.04695 0.62279 0.0
C1001 C 0.83606 0.07613 0.63341 0.0
H1002 H 0.46195 0.40728 0.76284 0.0
H1003 H 0.53188 0.39262 0.74464 0.0
H1004 H 0.42671 0.35661 0.74314 0.0
H1005 H 0.49662 0.34226 0.72426 0.0
H1006 H 0.42368 0.24012 0.71684 0.0
H1007 H 0.45961 0.29154 0.73473 0.0
H1008 H 0.40924 0.32866 0.70387 0.0
H1009 H 0.37302 0.2772 0.68622 0.0
C1010 C 0.46979 0.39325 0.75455 0.0
C1011 C 0.49969 0.40389 0.75539 0.0
C1012 C 0.44961 0.36436 0.74305 0.0
C1013 C 0.45886 0.34539 0.73216 0.0
C1014 C 0.48879 0.3562 0.7327 0.0
C1015 C 0.509 0.38517 0.74415 0.0
C1016 C 0.42025 0.25922 0.71378 0.0
C1017 C 0.39538 0.25445 0.7001 0.0
C1018 C 0.44097 0.28875 0.72394 0.0
C1019 C 0.43729 0.31419 0.72071 0.0
C1020 C 0.41254 0.30947 0.70691 0.0
C1021 C 0.39184 0.27996 0.6967 0.0
H1022 H 0.57567 0.06391 0.72315 0.0
H1023 H 0.62314 0.09505 0.79222 0.0
H1024 H 0.62105 0.08052 0.70535 0.0
H1025 H 0.66841 0.11133 0.77441 0.0
H1026 H 0.73934 0.1073 0.73495 0.0
H1027 H 0.6937 0.08941 0.7527 0.0
H1028 H 0.66546 0.12957 0.69979 0.0
H1029 H 0.71107 0.14717 0.68192 0.0
C1030 C 0.59578 0.07436 0.73453 0.0
C1031 C 0.59576 0.07817 0.75911 0.0
C1032 C 0.62176 0.08388 0.72433 0.0
C1033 C 0.6483 0.09732 0.73847 0.0
C1034 C 0.64827 0.10071 0.76306 0.0
C1035 C 0.6223 0.09129 0.77327 0.0
C1036 C 0.72333 0.11224 0.72713 0.0
C1037 C 0.72859 0.12851 0.70706 0.0
C1038 C 0.69729 0.10216 0.73735 0.0
C1039 C 0.67597 0.10803 0.72761 0.0
C1040 C 0.68132 0.12436 0.70751 0.0
C1041 C 0.70746 0.13459 0.69737 0.0
H1042 H 0.94182 0.55147 0.76378 0.0
H1043 H 0.85527 0.47366 0.74624 0.0
H1044 H 0.92729 0.58489 0.74486 0.0
H1045 H 0.84096 0.50679 0.72695 0.0
H1046 H 0.81769 0.58213 0.71807 0.0
H1047 H 0.83282 0.54988 0.73758 0.0
H1048 H 0.91297 0.5924 0.7046 0.0
H1049 H 0.898 0.62503 0.68515 0.0
C1050 C 0.91969 0.54155 0.75597 0.0
C1051 C 0.8997 0.50993 0.75646 0.0
C1052 C 0.91145 0.5606 0.74493 0.0
C1053 C 0.88299 0.54847 0.73436 0.0
C1054 C 0.86297 0.51691 0.73509 0.0
C1055 C 0.87124 0.49787 0.74596 0.0
C1056 C 0.83852 0.58462 0.71488 0.0
C1057 C 0.85657 0.60612 0.69993 0.0
C1058 C 0.84714 0.56601 0.72602 0.0
C1059 C 0.87407 0.56854 0.72262 0.0
C1060 C 0.89221 0.59012 0.70776 0.0
C1061 C 0.88352 0.60864 0.69647 0.0
H1062 H 0.46675 0.0041 0.19106 0.0
H1063 H 0.48255 0.93019 0.17005 0.0
H1064 H 0.47672 0.02259 0.15182 0.0
H1065 H 0.49299 0.94886 0.13141 0.0
H1066 H 0.47718 0.96565 0.05794 0.0
H1067 H 0.46414 0.95106 0.09705 0.0
H1068 H 0.51921 0.046 0.12579 0.0
H1069 H 0.53187 0.06098 0.08593 0.0
C1070 C 0.4723 0.99182 0.17807 0.0
C1071 C 0.47392 0.96573 0.18361 0.0
C1072 C 0.47824 0.00255 0.15575 0.0
C1073 C 0.48549 0.98709 0.13854 0.0
C1074 C 0.48712 0.96106 0.14419 0.0
C1075 C 0.48141 0.95052 0.16642 0.0
C1076 C 0.48614 0.98364 0.07243 0.0
C1077 C 0.50554 0.01452 0.06884 0.0
C1078 C 0.47885 0.97517 0.09493 0.0
C1079 C 0.49096 0.9973 0.11453 0.0
C1080 C 0.50951 0.02848 0.11096 0.0
C1081 C 0.51683 0.03703 0.08823 0.0
H1082 H 0.03054 0.53569 0.19377 0.0
H1083 H 0.08599 0.50282 0.16864 0.0
H1084 H 0.00776 0.52757 0.1539 0.0
H1085 H 0.06338 0.49499 0.12845 0.0
H1086 H 0.99926 0.46367 0.06112 0.0
H1087 H 0.01842 0.46548 0.10161 0.0
H1088 H 0.02292 0.55289 0.11842 0.0
H1089 H 0.00374 0.55087 0.07835 0.0
C1090 C 0.03786 0.52672 0.17968 0.0
C1091 C 0.0603 0.52027 0.18429 0.0
C1092 C 0.02485 0.52211 0.15681 0.0
C1093 C 0.03402 0.51105 0.1379 0.0
C1094 C 0.05567 0.50336 0.14263 0.0
C1095 C 0.06865 0.50788 0.16563 0.0
C1096 C 0.00434 0.48317 0.07358 0.0
C1097 C 1.00008 0.50714 0.06665 0.0
C1098 C 0.01538 0.48428 0.0967 0.0
C1099 C 0.02205 0.50925 0.11332 0.0
C1100 C 0.01752 0.53304 0.10625 0.0
C1101 C 0.00663 0.53195 0.08323 0.0
H1102 H 0.45995 0.48097 0.18184 0.0
H1103 H 0.477 0.57125 0.16589 0.0
H1104 H 0.47472 0.47309 0.14343 0.0
H1105 H 0.49108 0.56328 0.12747 0.0
H1106 H 0.54857 0.55735 0.07502 0.0
H1107 H 0.53154 0.56169 0.11295 0.0
H1108 H 0.46328 0.46601 0.10103 0.0
H1109 H 0.48155 0.46144 0.06349 0.0
C1110 C 0.46638 0.49886 0.16993 0.0
C1111 C 0.46769 0.52685 0.1769 0.0
C1112 C 0.47482 0.49439 0.14795 0.0
C1113 C 0.48456 0.51777 0.13251 0.0
C1114 C 0.4845 0.54514 0.13916 0.0
C1115 C 0.47628 0.54966 0.16111 0.0
C1116 C 0.53014 0.53718 0.08065 0.0
C1117 C 0.51598 0.5092 0.06622 0.0
C1118 C 0.52012 0.53973 0.10224 0.0
C1119 C 0.49569 0.51435 0.10988 0.0
C1120 C 0.48212 0.48602 0.09571 0.0
C1121 C 0.49231 0.48347 0.07411 0.0
H1122 H 0.92433 0.50548 0.83981 0.0
H1123 H 0.97838 0.47115 0.81387 0.0
H1124 H 0.94796 0.51388 0.87966 0.0
H1125 H 0.00182 0.4794 0.85354 0.0
H1126 H 0.0034 0.45467 0.92964 0.0
H1127 H 0.98497 0.45345 0.88939 0.0
H1128 H 0.99492 0.54355 0.90557 0.0
H1129 H 0.01402 0.54489 0.94599 0.0
C1130 C 0.94161 0.50028 0.84253 0.0
C1131 C 0.94921 0.48725 0.82375 0.0
C1132 C 0.95512 0.50507 0.86535 0.0
C1133 C 0.97646 0.49688 0.86979 0.0
C1134 C 0.98502 0.48531 0.85078 0.0
C1135 C 0.97159 0.48059 0.82805 0.0
C1136 C 0.00189 0.47433 0.92455 0.0
C1137 C 0.00965 0.49966 0.94098 0.0
C1138 C 0.99141 0.47369 0.90147 0.0
C1139 C 0.98848 0.49841 0.89426 0.0
C1140 C 0.99659 0.52399 0.91067 0.0
C1141 C 0.00733 0.5247 0.9338 0.0
H1142 H 0.57208 0.49808 0.84456 0.0
H1143 H 0.48342 0.46194 0.81551 0.0
H1144 H 0.55891 0.507 0.88345 0.0
H1145 H 0.47031 0.47019 0.85427 0.0
H1146 H 0.45251 0.4479 0.93102 0.0
H1147 H 0.46717 0.44494 0.8917 0.0
H1148 H 0.53966 0.53806 0.90589 0.0
H1149 H 0.52423 0.5413 0.94513 0.0
C1150 C 0.54992 0.49243 0.84637 0.0
C1151 C 0.52871 0.47883 0.82698 0.0
C1152 C 0.54239 0.49749 0.86864 0.0
C1153 C 0.5135 0.48888 0.87191 0.0
C1154 C 0.49262 0.47647 0.85236 0.0
C1155 C 0.50015 0.47167 0.83017 0.0
C1156 C 0.4714 0.46784 0.92566 0.0
C1157 C 0.48758 0.49466 0.94121 0.0
C1158 C 0.47981 0.46615 0.90317 0.0
C1159 C 0.50463 0.49124 0.89576 0.0
C1160 C 0.52068 0.51823 0.91126 0.0
C1161 C 0.512 0.52003 0.93371 0.0
H1162 H 0.57701 0.06419 0.84043 0.0
H1163 H 0.48657 0.00372 0.8157 0.0
H1164 H 0.56772 0.04441 0.87895 0.0
H1165 H 0.4771 0.98466 0.8545 0.0
H1166 H 0.47332 0.94215 0.92386 0.0
H1167 H 0.48657 0.95526 0.88387 0.0
H1168 H 0.54172 0.05107 0.91057 0.0
H1169 H 0.52846 0.03811 0.94999 0.0
C1170 C 0.55522 0.04639 0.84312 0.0
C1171 C 0.53248 0.03569 0.82506 0.0
C1172 C 0.54985 0.03524 0.86525 0.0
C1173 C 0.52164 0.01311 0.86982 0.0
C1174 C 0.49911 0.00152 0.85149 0.0
C1175 C 0.50447 0.01273 0.82936 0.0
C1176 C 0.48854 0.96589 0.92111 0.0
C1177 C 0.50004 0.98904 0.94004 0.0
C1178 C 0.49603 0.97342 0.89827 0.0
C1179 C 0.51529 0.00419 0.89408 0.0
C1180 C 0.52726 0.02708 0.91321 0.0
C1181 C 0.51962 0.01962 0.93586 0.0
H1182 H 0.09646 0.2703 0.49381 0.0
H1183 H 0.18477 0.3283 0.52484 0.0
H1184 H 0.11053 0.2927 0.45642 0.0
H1185 H 0.19878 0.35066 0.48767 0.0
H1186 H 0.21958 0.3489 0.41096 0.0
H1187 H 0.20443 0.33167 0.44937 0.0
H1188 H 0.12856 0.34046 0.43595 0.0
H1189 H 0.1442 0.35822 0.39737 0.0
C1190 C 0.11875 0.28818 0.49276 0.0
C1191 C 0.13959 0.29722 0.51218 0.0
C1192 C 0.12681 0.30102 0.47135 0.0
C1193 C 0.15587 0.32318 0.46898 0.0
C1194 C 0.17636 0.33314 0.48875 0.0
C1195 C 0.16834 0.32034 0.51005 0.0
C1196 C 0.19985 0.3475 0.41633 0.0
C1197 C 0.18278 0.3544 0.40111 0.0
C1198 C 0.19116 0.33767 0.43836 0.0
C1199 C 0.16525 0.33465 0.44575 0.0
C1200 C 0.14841 0.34213 0.43064 0.0
C1201 C 0.15724 0.35213 0.40857 0.0
H1202 H 0.74505 0.82863 0.50638 0.0
H1203 H 0.70207 0.87898 0.52611 0.0
H1204 H 0.7213 0.81731 0.46662 0.0
H1205 H 0.68052 0.87014 0.48599 0.0
H1206 H 0.62865 0.83441 0.41579 0.0
H1207 H 0.64635 0.83602 0.45646 0.0
H1208 H 0.72369 0.8407 0.43224 0.0
H1209 H 0.70512 0.83773 0.39191 0.0
C1210 C 0.73046 0.83722 0.50233 0.0
C1211 C 0.72571 0.85493 0.51958 0.0
C1212 C 0.71716 0.83113 0.47933 0.0
C1213 C 0.69906 0.84297 0.47282 0.0
C1214 C 0.69392 0.86019 0.49022 0.0
C1215 C 0.70681 0.86581 0.51327 0.0
C1216 C 0.64919 0.83524 0.41928 0.0
C1217 C 0.66523 0.83523 0.40067 0.0
C1218 C 0.65954 0.83647 0.44259 0.0
C1219 C 0.68663 0.83864 0.44787 0.0
C1220 C 0.70245 0.83829 0.42904 0.0
C1221 C 0.69177 0.83644 0.40574 0.0
H1222 H 0.09473 0.82208 0.50126 0.0
H1223 H 0.18582 0.86956 0.52645 0.0
H1224 H 0.10642 0.81186 0.46246 0.0
H1225 H 0.19773 0.8618 0.48729 0.0
H1226 H 0.21279 0.83046 0.41695 0.0
H1227 H 0.19828 0.82954 0.4569 0.0
H1228 H 0.1258 0.83869 0.43014 0.0
H1229 H 0.13998 0.83854 0.39072 0.0
C1230 C 0.11724 0.83018 0.49863 0.0
C1231 C 0.13932 0.84704 0.51702 0.0
C1232 C 0.12403 0.82475 0.47619 0.0
C1233 C 0.15312 0.83641 0.47145 0.0
C1234 C 0.17507 0.85219 0.49013 0.0
C1235 C 0.16824 0.85717 0.51261 0.0
C1236 C 0.19353 0.83181 0.41974 0.0
C1237 C 0.17703 0.83373 0.40064 0.0
C1238 C 0.18527 0.83149 0.44262 0.0
C1239 C 0.1607 0.83391 0.44695 0.0
C1240 C 0.14431 0.83584 0.42764 0.0
C1241 C 0.15236 0.83565 0.40483 0.0
H1242 H 0.63503 0.79108 0.14822 0.0
H1243 H 0.59785 0.84786 0.16639 0.0
H1244 H 0.65546 0.79888 0.18838 0.0
H1245 H 0.62114 0.85854 0.20631 0.0
H1246 H 0.63714 0.84087 0.2823 0.0
H1247 H 0.61869 0.83826 0.24181 0.0
H1248 H 0.69021 0.83033 0.21732 0.0
H1249 H 0.70695 0.83059 0.25784 0.0
C1250 C 0.63129 0.80544 0.16074 0.0
C1251 C 0.61419 0.8183 0.15392 0.0
C1252 C 0.64369 0.81055 0.18388 0.0
C1253 C 0.64021 0.8295 0.20093 0.0
C1254 C 0.62398 0.84335 0.19394 0.0
C1255 C 0.61097 0.83763 0.17081 0.0
C1256 C 0.64901 0.839 0.26822 0.0
C1257 C 0.6734 0.83592 0.27315 0.0
C1258 C 0.63852 0.83756 0.24489 0.0
C1259 C 0.65265 0.83373 0.22594 0.0
C1260 C 0.67803 0.83227 0.23118 0.0
C1261 C 0.68792 0.83277 0.25446 0.0
H1262 H 0.22022 0.85854 0.16099 0.0
H1263 H 0.19285 0.7642 0.1735 0.0
H1264 H 0.20667 0.86692 0.19992 0.0
H1265 H 0.17935 0.7725 0.21208 0.0
H1266 H 0.12119 0.78411 0.26166 0.0
H1267 H 0.13967 0.78007 0.22442 0.0
H1268 H 0.21724 0.86844 0.24389 0.0
H1269 H 0.19826 0.87269 0.28128 0.0
C1270 C 0.21177 0.83978 0.17218 0.0
C1271 C 0.20711 0.81055 0.16401 0.0
C1272 C 0.204 0.84457 0.19444 0.0
C1273 C 0.19144 0.82019 0.20887 0.0
C1274 C 0.18828 0.79152 0.20114 0.0
C1275 C 0.19603 0.78677 0.17903 0.0
C1276 C 0.14208 0.8028 0.25793 0.0
C1277 C 0.1584 0.82862 0.27438 0.0
C1278 C 0.15281 0.80036 0.23669 0.0
C1279 C 0.18009 0.82377 0.23131 0.0
C1280 C 0.19613 0.85007 0.24751 0.0
C1281 C 0.18536 0.85244 0.26891 0.0
H1282 H 0.19418 0.4225 0.18557 0.0
H1283 H 0.22217 0.35808 0.16504 0.0
H1284 H 0.17901 0.3982 0.22185 0.0
H1285 H 0.20701 0.33371 0.20169 0.0
H1286 H 0.1982 0.31951 0.28247 0.0
H1287 H 0.21697 0.3432 0.24618 0.0
H1288 H 0.13906 0.34749 0.23049 0.0
H1289 H 0.12072 0.32445 0.26666 0.0
C1290 C 0.19707 0.40309 0.18881 0.0
C1291 C 0.20892 0.39187 0.17224 0.0
C1292 C 0.18837 0.38917 0.2096 0.0
C1293 C 0.19134 0.36369 0.21441 0.0
C1294 C 0.20446 0.35331 0.19843 0.0
C1295 C 0.21316 0.36727 0.17749 0.0
C1296 C 0.18507 0.32528 0.27106 0.0
C1297 C 0.15815 0.3204 0.27739 0.0
C1298 C 0.19575 0.33874 0.25032 0.0
C1299 C 0.17964 0.34754 0.23564 0.0
C1300 C 0.15223 0.3415 0.24165 0.0
C1301 C 0.14157 0.328 0.26224 0.0
H1302 H 0.8533 0.65545 0.85406 0.0
H1303 H 0.76163 0.61494 0.83277 0.0
H1304 H 0.86453 0.67573 0.81631 0.0
H1305 H 0.77302 0.63847 0.79608 0.0
H1306 H 0.79955 0.64764 0.72142 0.0
H1307 H 0.78673 0.63217 0.76029 0.0
H1308 H 0.8688 0.71011 0.79036 0.0
H1309 H 0.88207 0.72373 0.75077 0.0
C1310 C 0.83545 0.65102 0.84145 0.0
C1311 C 0.80646 0.63284 0.84652 0.0
C1312 C 0.84198 0.66336 0.8198 0.0
C1313 C 0.81976 0.65873 0.80275 0.0
C1314 C 0.79082 0.64198 0.80835 0.0
C1315 C 0.78425 0.62889 0.82976 0.0
C1316 C 0.81454 0.66164 0.73631 0.0
C1317 C 0.84166 0.68677 0.73302 0.0
C1318 C 0.80723 0.65291 0.75883 0.0
C1319 C 0.82668 0.66972 0.77885 0.0
C1320 C 0.85343 0.69596 0.77552 0.0
C1321 C 0.86099 0.70406 0.75283 0.0
H1322 H 0.36765 0.21031 0.86002 0.0
H1323 H 0.40511 0.15398 0.84126 0.0
H1324 H 0.34618 0.20175 0.8201 0.0
H1325 H 0.38076 0.14246 0.80173 0.0
H1326 H 0.36402 0.15928 0.72594 0.0
H1327 H 0.38277 0.16234 0.76634 0.0
H1328 H 0.31157 0.17077 0.79101 0.0
H1329 H 0.29453 0.17007 0.75045 0.0
C1330 C 0.37119 0.19585 0.84744 0.0
C1331 C 0.38877 0.18344 0.85399 0.0
C1332 C 0.3582 0.19031 0.82445 0.0
C1333 C 0.36158 0.17136 0.8073 0.0
C1334 C 0.37806 0.15773 0.81412 0.0
C1335 C 0.39167 0.16391 0.83706 0.0
C1336 C 0.35228 0.16135 0.74002 0.0
C1337 C 0.32788 0.16439 0.7351 0.0
C1338 C 0.36293 0.16303 0.76334 0.0
C1339 C 0.34896 0.16706 0.78233 0.0
C1340 C 0.32362 0.16863 0.77712 0.0
C1341 C 0.31356 0.16788 0.75383 0.0
H1342 H 0.85187 0.2016 0.86284 0.0
H1343 H 0.76396 0.16857 0.83339 0.0
H1344 H 0.86517 0.19421 0.82391 0.0
H1345 H 0.77728 0.1606 0.79431 0.0
H1346 H 0.81219 0.12901 0.73098 0.0
H1347 H 0.79593 0.13023 0.77022 0.0
H1348 H 0.86973 0.22191 0.78773 0.0
H1349 H 0.88519 0.22102 0.74846 0.0
C1350 C 0.83532 0.19259 0.84807 0.0
C1351 C 0.80696 0.18618 0.85119 0.0
C1352 C 0.84295 0.18833 0.82577 0.0
C1353 C 0.82238 0.17726 0.80601 0.0
C1354 C 0.79358 0.16911 0.80924 0.0
C1355 C 0.78595 0.1736 0.83162 0.0
C1356 C 0.82447 0.1496 0.7431 0.0
C1357 C 0.84954 0.17516 0.73655 0.0
C1358 C 0.81535 0.15021 0.76558 0.0
C1359 C 0.83158 0.17614 0.78206 0.0
C1360 C 0.85694 0.20144 0.77553 0.0
C1361 C 0.86579 0.20096 0.75304 0.0
H1362 H 0.30321 0.12389 0.48174 0.0
H1363 H 0.26058 0.1746 0.5015 0.0
H1364 H 0.32376 0.13152 0.52209 0.0
H1365 H 0.28323 0.18457 0.54155 0.0
H1366 H 0.29677 0.1613 0.61593 0.0
H1367 H 0.27932 0.15948 0.57543 0.0
H1368 H 0.35747 0.16504 0.55235 0.0
H1369 H 0.37414 0.16569 0.59316 0.0
C1370 C 0.29834 0.13688 0.49464 0.0
C1371 C 0.27982 0.14821 0.48827 0.0
C1372 C 0.31063 0.14177 0.51783 0.0
C1373 C 0.30522 0.15865 0.53531 0.0
C1374 C 0.28754 0.17098 0.52876 0.0
C1375 C 0.27487 0.16566 0.50561 0.0
C1376 C 0.31055 0.16306 0.60232 0.0
C1377 C 0.33705 0.16433 0.60775 0.0
C1378 C 0.30051 0.16186 0.57893 0.0
C1379 C 0.31692 0.16215 0.56038 0.0
C1380 C 0.34389 0.16418 0.566 0.0
C1381 C 0.35363 0.16484 0.5894 0.0
H1382 H 0.81661 0.13007 0.48348 0.0
H1383 H 0.90775 0.1762 0.50844 0.0
H1384 H 0.80512 0.1382 0.52268 0.0
H1385 H 0.89655 0.18718 0.54712 0.0
H1386 H 0.86452 0.1629 0.6192 0.0
H1387 H 0.8778 0.16165 0.57964 0.0
H1388 H 0.80465 0.16987 0.55321 0.0
H1389 H 0.79081 0.16964 0.59333 0.0
C1390 C 0.83431 0.14225 0.49725 0.0
C1391 C 0.8631 0.15184 0.49273 0.0
C1392 C 0.82772 0.14748 0.51978 0.0
C1393 C 0.84981 0.1631 0.53837 0.0
C1394 C 0.87879 0.17434 0.5335 0.0
C1395 C 0.88532 0.16852 0.51107 0.0
C1396 C 0.8517 0.1652 0.60511 0.0
C1397 C 0.82702 0.16702 0.60944 0.0
C1398 C 0.85929 0.16446 0.58221 0.0
C1399 C 0.84252 0.1659 0.56295 0.0
C1400 C 0.81795 0.16824 0.56742 0.0
C1401 C 0.81007 0.16835 0.59041 0.0
H1402 H 0.85535 0.75078 0.51567 0.0
H1403 H 0.88818 0.69012 0.49684 0.0
H1404 H 0.84084 0.72673 0.55213 0.0
H1405 H 0.87393 0.66627 0.53375 0.0
H1406 H 0.86507 0.65349 0.61495 0.0
H1407 H 0.88367 0.67773 0.57873 0.0
H1408 H 0.80244 0.67424 0.56051 0.0
H1409 H 0.78421 0.65061 0.5965 0.0
C1410 C 0.85943 0.73226 0.51928 0.0
C1411 C 0.87247 0.72202 0.50311 0.0
C1412 C 0.85117 0.71853 0.54021 0.0
C1413 C 0.85587 0.69432 0.54562 0.0
C1414 C 0.87009 0.68494 0.53004 0.0
C1415 C 0.87826 0.69862 0.50894 0.0
C1416 C 0.85124 0.65778 0.60303 0.0
C1417 C 0.82335 0.65046 0.60855 0.0
C1418 C 0.86181 0.67151 0.58233 0.0
C1419 C 0.84461 0.6782 0.56694 0.0
C1420 C 0.81638 0.66988 0.57222 0.0
C1421 C 0.80584 0.65606 0.59272 0.0
loop_
_geom_bond_atom_site_label_1
_geom_bond_atom_site_label_2
_geom_bond_distance
_geom_bond_site_symmetry_2
_ccdc_geom_bond_type
H0 C3 0.931 . S
H1 C6 0.928 . S
H2 C8 0.930 . S
C3 H0 0.931 . S
C3 C4 1.413 . S
C3 C5 1.360 . S
C4 C3 1.413 . S
C4 C8 1.429 . S
C5 C3 1.360 . S
C5 C6 1.372 . S
C6 H1 0.928 . S
C6 C5 1.372 . S
C6 C7 1.404 . S
C7 C6 1.404 . S
C7 C8 1.391 . S
C8 H2 0.930 . S
C8 C4 1.429 . S
C8 C7 1.391 . S
H9 C12 0.931 . S
H10 C15 0.928 . S
H11 C17 0.930 . S
C12 H9 0.931 . S
C12 C13 1.413 . S
C12 C14 1.360 . S
C13 C12 1.413 . S
C13 C17 1.429 . S
C14 C12 1.360 . S
C14 C15 1.372 . S
C15 H10 0.928 . S
C15 C14 1.372 . S
C15 C16 1.404 . S
C16 C15 1.404 . S
C16 C17 1.391 . S
C17 H11 0.930 . S
C17 C13 1.429 . S
C17 C16 1.391 . S
H18 C21 0.931 . S
H19 C24 0.928 . S
H20 C26 0.930 . S
C21 H18 0.931 . S
C21 C22 1.413 . S
C21 C23 1.360 . S
C22 C21 1.413 . S
C22 C26 1.429 . S
C23 C21 1.360 . S
C23 C24 1.372 . S
C24 H19 0.928 . S
C24 C23 1.372 . S
C24 C25 1.404 . S
C25 C24 1.404 . S
C25 C26 1.391 . S
C26 H20 0.930 . S
C26 C22 1.429 . S
C26 C25 1.391 . S
H27 C30 0.931 . S
H28 C33 0.928 . S
H29 C35 0.930 . S
C30 H27 0.931 . S
C30 C31 1.413 . S
C30 C32 1.360 . S
C31 C30 1.413 . S
C31 C35 1.429 . S
C32 C30 1.360 . S
C32 C33 1.372 . S
C33 H28 0.928 . S
C33 C32 1.372 . S
C33 C34 1.404 . S
C34 C33 1.404 . S
C34 C35 1.391 . S
C35 H29 0.930 . S
C35 C31 1.429 . S
C35 C34 1.391 . S
H36 C39 0.931 . S
H37 C42 0.928 . S
H38 C44 0.930 . S
C39 H36 0.931 . S
C39 C40 1.413 . S
C39 C41 1.360 . S
C40 C39 1.413 . S
C40 C44 1.429 . S
C41 C39 1.360 . S
C41 C42 1.372 . S
C42 H37 0.928 . S
C42 C41 1.372 . S
C42 C43 1.404 . S
C43 C42 1.404 . S
C43 C44 1.391 . S
C44 H38 0.930 . S
C44 C40 1.429 . S
C44 C43 1.391 . S
H45 C48 0.931 . S
H46 C51 0.928 . S
H47 C53 0.930 . S
C48 H45 0.931 . S
C48 C49 1.413 . S
C48 C50 1.360 . S
C49 C48 1.413 . S
C49 C53 1.429 . S
C50 C48 1.360 . S
C50 C51 1.372 . S
C51 H46 0.928 . S
C51 C50 1.372 . S
C51 C52 1.404 . S
C52 C51 1.404 . S
C52 C53 1.391 . S
C53 H47 0.930 . S
C53 C49 1.429 . S
C53 C52 1.391 . S
H54 C57 0.931 . S
H55 C60 0.928 . S
H56 C62 0.930 . S
C57 H54 0.931 . S
C57 C58 1.413 . S
C57 C59 1.360 . S
C58 C57 1.413 . S
C58 C62 1.429 . S
C59 C57 1.360 . S
C59 C60 1.372 . S
C60 H55 0.928 . S
C60 C59 1.372 . S
C60 C61 1.404 . S
C61 C60 1.404 . S
C61 C62 1.391 . S
C62 H56 0.930 . S
C62 C58 1.429 . S
C62 C61 1.391 . S
H63 C66 0.931 . S
H64 C69 0.928 . S
H65 C71 0.930 . S
C66 H63 0.931 . S
C66 C67 1.413 . S
C66 C68 1.360 . S
C67 C66 1.413 . S
C67 C71 1.429 . S
C68 C66 1.360 . S
C68 C69 1.372 . S
C69 H64 0.928 . S
C69 C68 1.372 . S
C69 C70 1.404 . S
C70 C69 1.404 . S
C70 C71 1.391 . S
C71 H65 0.930 . S
C71 C67 1.429 . S
C71 C70 1.391 . S
H72 C75 0.931 . S
H73 C78 0.928 . S
H74 C80 0.930 . S
C75 H72 0.931 . S
C75 C76 1.413 . S
C75 C77 1.360 . S
C76 C75 1.413 . S
C76 C80 1.429 . S
C77 C75 1.360 . S
C77 C78 1.372 . S
C78 H73 0.928 . S
C78 C77 1.372 . S
C78 C79 1.404 . S
C79 C78 1.404 . S
C79 C80 1.391 . S
C80 H74 0.930 . S
C80 C76 1.429 . S
C80 C79 1.391 . S
H81 C84 0.931 . S
H82 C87 0.928 . S
H83 C89 0.930 . S
C84 H81 0.931 . S
C84 C85 1.413 . S
C84 C86 1.360 . S
C85 C84 1.413 . S
C85 C89 1.429 . S
C86 C84 1.360 . S
C86 C87 1.372 . S
C87 H82 0.928 . S
C87 C86 1.372 . S
C87 C88 1.404 . S
C88 C87 1.404 . S
C88 C89 1.391 . S
C89 H83 0.930 . S
C89 C85 1.429 . S
C89 C88 1.391 . S
H90 C93 0.931 . S
H91 C96 0.928 . S
H92 C98 0.930 . S
C93 H90 0.931 . S
C93 C94 1.413 . S
C93 C95 1.360 . S
C94 C93 1.413 . S
C94 C98 1.429 . S
C95 C93 1.360 . S
C95 C96 1.372 . S
C96 H91 0.928 . S
C96 C95 1.372 . S
C96 C97 1.404 . S
C97 C96 1.404 . S
C97 C98 1.391 . S
C98 H92 0.930 . S
C98 C94 1.429 . S
C98 C97 1.391 . S
H99 C102 0.931 . S
H100 C105 0.928 . S
H101 C107 0.930 . S
C102 H99 0.931 . S
C102 C103 1.413 . S
C102 C104 1.360 . S
C103 C102 1.413 . S
C103 C107 1.429 . S
C104 C102 1.360 . S
C104 C105 1.372 . S
C105 H100 0.928 . S
C105 C104 1.372 . S
C105 C106 1.404 . S
C106 C105 1.404 . S
C106 C107 1.391 . S
C107 H101 0.930 . S
C107 C103 1.429 . S
C107 C106 1.391 . S
H108 C111 0.931 . S
H109 C114 0.928 . S
H110 C116 0.930 . S
C111 H108 0.931 . S
C111 C112 1.413 . S
C111 C113 1.360 . S
C112 C111 1.413 . S
C112 C116 1.429 . S
C113 C111 1.360 . S
C113 C114 1.372 . S
C114 H109 0.928 . S
C114 C113 1.372 . S
C114 C115 1.404 . S
C115 C114 1.404 . S
C115 C116 1.391 . S
C116 H110 0.930 . S
C116 C112 1.429 . S
C116 C115 1.391 . S
H117 C120 0.931 . S
H118 C123 0.928 . S
H119 C125 0.930 . S
C120 H117 0.931 . S
C120 C121 1.413 . S
C120 C122 1.360 . S
C121 C120 1.413 . S
C121 C125 1.429 . S
C122 C120 1.360 . S
C122 C123 1.372 . S
C123 H118 0.928 . S
C123 C122 1.372 . S
C123 C124 1.404 . S
C124 C123 1.404 . S
C124 C125 1.391 . S
C125 H119 0.930 . S
C125 C121 1.429 . S
C125 C124 1.391 . S
H126 C129 0.931 . S
H127 C132 0.928 . S
H128 C134 0.930 . S
C129 H126 0.931 . S
C129 C130 1.413 . S
C129 C131 1.360 . S
C130 C129 1.413 . S
C130 C134 1.429 . S
C131 C129 1.360 . S
C131 C132 1.372 . S
C132 H127 0.928 . S
C132 C131 1.372 . S
C132 C133 1.404 . S
C133 C132 1.404 . S
C133 C134 1.391 . S
C134 H128 0.930 . S
C134 C130 1.429 . S
C134 C133 1.391 . S
H135 C138 0.931 . S
H136 C141 0.928 . S
H137 C143 0.930 . S
C138 H135 0.931 . S
C138 C139 1.413 . S
C138 C140 1.360 . S
C139 C138 1.413 . S
C139 C143 1.429 . S
C140 C138 1.360 . S
C140 C141 1.372 . S
C141 H136 0.928 . S
C141 C140 1.372 . S
C141 C142 1.404 . S
C142 C141 1.404 . S
C142 C143 1.391 . S
C143 H137 0.930 . S
C143 C139 1.429 . S
C143 C142 1.391 . S
H144 C147 0.931 . S
H145 C150 0.928 . S
H146 C152 0.930 . S
C147 H144 0.931 . S
C147 C148 1.413 . S
C147 C149 1.360 . S
C148 C147 1.413 . S
C148 C152 1.429 . S
C149 C147 1.360 . S
C149 C150 1.372 . S
C150 H145 0.928 . S
C150 C149 1.372 . S
C150 C151 1.404 . S
C151 C150 1.404 . S
C151 C152 1.391 . S
C152 H146 0.930 . S
C152 C148 1.429 . S
C152 C151 1.391 . S
H153 C156 0.931 . S
H154 C159 0.928 . S
H155 C161 0.930 . S
C156 H153 0.931 . S
C156 C157 1.413 . S
C156 C158 1.360 . S
C157 C156 1.413 . S
C157 C161 1.429 . S
C158 C156 1.360 . S
C158 C159 1.372 . S
C159 H154 0.928 . S
C159 C158 1.372 . S
C159 C160 1.404 . S
C160 C159 1.404 . S
C160 C161 1.391 . S
C161 H155 0.930 . S
C161 C157 1.429 . S
C161 C160 1.391 . S
Tb162 O165 2.453 . S
Tb162 O166 2.596 1_545 S
Tb162 O167 2.374 1_545 S
Tb162 O175 2.343 1_554 S
Tb162 O177 2.353 . S
Tb162 O179 2.427 1_554 S
Tb162 O180 2.513 1_554 S
C163 O167 1.251 . S
C163 O169 1.263 1_554 S
Tb164 O166 2.343 1_556 S
Tb164 O169 2.353 . S
Tb164 O172 2.427 1_556 S
Tb164 O173 2.513 1_556 S
Tb164 O174 2.453 . S
Tb164 O175 2.596 1_565 S
Tb164 O176 2.374 1_565 S
O165 Tb162 2.453 . S
O165 C181 1.245 . S
O166 Tb162 2.596 1_565 S
O166 Tb164 2.343 1_554 S
O166 C181 1.259 1_565 S
O167 Tb162 2.374 1_565 S
O167 C163 1.251 . S
C168 O172 1.275 . S
C168 O173 1.246 . S
O169 C163 1.263 1_556 S
O169 Tb164 2.353 . S
C170 O174 1.245 . S
C170 O175 1.259 1_565 S
C171 O176 1.250 . S
C171 O177 1.263 1_556 S
O172 Tb164 2.427 1_554 S
O172 C168 1.275 . S
O173 Tb164 2.513 1_554 S
O173 C168 1.246 . S
O174 Tb164 2.453 . S
O174 C170 1.245 . S
O175 Tb162 2.343 1_556 S
O175 Tb164 2.596 1_545 S
O175 C170 1.259 1_545 S
O176 Tb164 2.374 1_545 S
O176 C171 1.250 . S
O177 Tb162 2.353 . S
O177 C171 1.263 1_554 S
C178 O179 1.275 . S
C178 O180 1.246 . S
O179 Tb162 2.427 1_556 S
O179 C178 1.275 . S
O180 Tb162 2.513 1_556 S
O180 C178 1.246 . S
C181 O165 1.245 . S
C181 O166 1.259 1_545 S
Tb182 O185 2.453 . S
Tb182 O186 2.596 1_655 S
Tb182 O187 2.374 1_655 S
Tb182 O195 2.343 1_554 S
Tb182 O197 2.357 . S
Tb182 O199 2.427 1_554 S
Tb182 O200 2.513 1_554 S
C183 O187 1.251 . S
C183 O189 1.263 . S
Tb184 O186 2.343 1_556 S
Tb184 O189 2.353 1_556 S
Tb184 O192 2.427 1_556 S
Tb184 O193 2.513 1_556 S
Tb184 O194 2.453 . S
Tb184 O195 2.596 1_455 S
Tb184 O196 2.374 1_455 S
O185 Tb182 2.453 . S
O185 C201 1.245 1_655 S
O186 Tb182 2.596 1_455 S
O186 Tb184 2.343 1_554 S
O186 C201 1.259 . S
O187 Tb182 2.374 1_455 S
O187 C183 1.251 . S
C188 O192 1.275 . S
C188 O193 1.246 . S
O189 C183 1.263 . S
O189 Tb184 2.353 1_554 S
C190 O194 1.245 1_655 S
C190 O195 1.259 . S
C191 O196 1.250 . S
C191 O197 1.253 1_556 S
O192 Tb184 2.427 1_554 S
O192 C188 1.275 . S
O193 Tb184 2.513 1_554 S
O193 C188 1.246 . S
O194 Tb184 2.453 . S
O194 C190 1.245 1_455 S
O195 Tb182 2.343 1_556 S
O195 Tb184 2.596 1_655 S
O195 C190 1.259 . S
O196 Tb184 2.374 1_655 S
O196 C191 1.250 . S
O197 Tb182 2.357 . S
O197 C191 1.253 1_554 S
C198 O199 1.275 . S
C198 O200 1.246 . S
O199 Tb182 2.427 1_556 S
O199 C198 1.275 . S
O200 Tb182 2.513 1_556 S
O200 C198 1.246 . S
C201 O185 1.245 1_455 S
C201 O186 1.259 . S
Tb202 O205 2.453 . S
Tb202 O206 2.596 . S
Tb202 O207 2.374 . S
Tb202 O215 2.343 1_556 S
Tb202 O217 2.353 1_556 S
Tb202 O219 2.427 1_556 S
Tb202 O220 2.513 1_556 S
C203 O207 1.251 . S
C203 O209 1.263 1_556 S
Tb204 O206 2.343 1_554 S
Tb204 O209 2.353 . S
Tb204 O212 2.427 1_554 S
Tb204 O213 2.513 1_554 S
Tb204 O214 2.453 . S
Tb204 O215 2.596 . S
Tb204 O216 2.374 . S
O205 Tb202 2.453 . S
O205 C221 1.245 . S
O206 Tb202 2.596 . S
O206 Tb204 2.343 1_556 S
O206 C221 1.259 . S
O207 Tb202 2.374 . S
O207 C203 1.251 . S
C208 O212 1.275 . S
C208 O213 1.246 . S
O209 C203 1.263 1_554 S
O209 Tb204 2.353 . S
C210 O214 1.245 . S
C210 O215 1.259 . S
C211 O216 1.250 . S
C211 O217 1.263 . S
O212 Tb204 2.427 1_556 S
O212 C208 1.275 . S
O213 Tb204 2.513 1_556 S
O213 C208 1.246 . S
O214 Tb204 2.453 . S
O214 C210 1.245 . S
O215 Tb202 2.343 1_554 S
O215 Tb204 2.596 . S
O215 C210 1.259 . S
O216 Tb204 2.374 . S
O216 C211 1.250 . S
O217 Tb202 2.353 1_554 S
O217 C211 1.263 . S
C218 O219 1.275 . S
C218 O220 1.246 . S
O219 Tb202 2.427 1_554 S
O219 C218 1.275 . S
O220 Tb202 2.513 1_554 S
O220 C218 1.246 . S
C221 O205 1.245 . S
C221 O206 1.259 . S
Tb222 O225 2.453 . S
Tb222 O226 2.596 . S
Tb222 O227 2.374 . S
Tb222 O235 2.343 . S
Tb222 O237 2.353 . S
Tb222 O239 2.427 . S
Tb222 O240 2.513 . S
C223 O227 1.251 . S
C223 O229 1.263 . S
Tb224 O226 2.343 . S
Tb224 O229 2.353 . S
Tb224 O232 2.427 . S
Tb224 O233 2.513 . S
Tb224 O234 2.453 . S
Tb224 O235 2.596 . S
Tb224 O236 2.374 . S
O225 Tb222 2.453 . S
O225 C241 1.245 . S
O226 Tb222 2.596 . S
O226 Tb224 2.343 . S
O226 C241 1.259 . S
O227 Tb222 2.374 . S
O227 C223 1.251 . S
C228 O232 1.275 . S
C228 O233 1.246 . S
O229 C223 1.263 . S
O229 Tb224 2.353 . S
C230 O234 1.245 . S
C230 O235 1.259 . S
C231 O236 1.250 . S
C231 O237 1.263 . S
O232 Tb224 2.427 . S
O232 C228 1.275 . S
O233 Tb224 2.513 . S
O233 C228 1.246 . S
O234 Tb224 2.453 . S
O234 C230 1.245 . S
O235 Tb222 2.343 . S
O235 Tb224 2.596 . S
O235 C230 1.259 . S
O236 Tb224 2.374 . S
O236 C231 1.250 . S
O237 Tb222 2.353 . S
O237 C231 1.263 . S
C238 O239 1.275 . S
C238 O240 1.246 . S
O239 Tb222 2.427 . S
O239 C238 1.275 . S
O240 Tb222 2.513 . S
O240 C238 1.246 . S
C241 O225 1.245 . S
C241 O226 1.259 . S
Tb242 O245 2.453 . S
Tb242 O246 2.596 . S
Tb242 O247 2.374 . S
Tb242 O255 2.343 . S
Tb242 O257 2.353 . S
Tb242 O259 2.427 . S
Tb242 O260 2.513 . S
C243 O247 1.251 . S
C243 O249 1.263 . S
Tb244 O246 2.343 . S
Tb244 O249 2.353 . S
Tb244 O252 2.427 . S
Tb244 O253 2.513 . S
Tb244 O254 2.453 . S
Tb244 O255 2.596 . S
Tb244 O256 2.374 . S
O245 Tb242 2.453 . S
O245 C261 1.245 . S
O246 Tb242 2.596 . S
O246 Tb244 2.343 . S
O246 C261 1.259 . S
O247 Tb242 2.374 . S
O247 C243 1.251 . S
C248 O252 1.275 . S
C248 O253 1.246 . S
O249 C243 1.263 . S
O249 Tb244 2.353 . S
C250 O254 1.245 . S
C250 O255 1.259 . S
C251 O256 1.250 . S
C251 O257 1.263 . S
O252 Tb244 2.427 . S
O252 C248 1.275 . S
O253 Tb244 2.513 . S
O253 C248 1.246 . S
O254 Tb244 2.453 . S
O254 C250 1.245 . S
O255 Tb242 2.343 . S
O255 Tb244 2.596 . S
O255 C250 1.259 . S
O256 Tb244 2.374 . S
O256 C251 1.250 . S
O257 Tb242 2.353 . S
O257 C251 1.263 . S
C258 O259 1.275 . S
C258 O260 1.246 . S
O259 Tb242 2.427 . S
O259 C258 1.275 . S
O260 Tb242 2.513 . S
O260 C258 1.246 . S
C261 O245 1.245 . S
C261 O246 1.259 . S
Tb262 O265 2.453 . S
Tb262 O266 2.596 . S
Tb262 O267 2.374 . S
Tb262 O275 2.343 . S
Tb262 O277 2.353 . S
Tb262 O279 2.427 . S
Tb262 O280 2.513 . S
C263 O267 1.251 . S
C263 O269 1.263 . S
Tb264 O266 2.343 . S
Tb264 O269 2.353 . S
Tb264 O272 2.427 . S
Tb264 O273 2.513 . S
Tb264 O274 2.453 . S
Tb264 O275 2.596 . S
Tb264 O276 2.374 . S
O265 Tb262 2.453 . S
O265 C281 1.245 . S
O266 Tb262 2.596 . S
O266 Tb264 2.343 . S
O266 C281 1.259 . S
O267 Tb262 2.374 . S
O267 C263 1.251 . S
C268 O272 1.275 . S
C268 O273 1.246 . S
O269 C263 1.263 . S
O269 Tb264 2.353 . S
C270 O274 1.245 . S
C270 O275 1.259 . S
C271 O276 1.250 . S
C271 O277 1.263 . S
O272 Tb264 2.427 . S
O272 C268 1.275 . S
O273 Tb264 2.513 . S
O273 C268 1.246 . S
O274 Tb264 2.453 . S
O274 C270 1.245 . S
O275 Tb262 2.343 . S
O275 Tb264 2.596 . S
O275 C270 1.259 . S
O276 Tb264 2.374 . S
O276 C271 1.250 . S
O277 Tb262 2.353 . S
O277 C271 1.263 . S
C278 O279 1.275 . S
C278 O280 1.246 . S
O279 Tb262 2.427 . S
O279 C278 1.275 . S
O280 Tb262 2.513 . S
O280 C278 1.246 . S
C281 O265 1.245 . S
C281 O266 1.259 . S
Tb282 O285 2.453 . S
Tb282 O286 2.596 . S
Tb282 O287 2.374 . S
Tb282 O295 2.343 . S
Tb282 O297 2.353 . S
Tb282 O299 2.427 . S
Tb282 O300 2.513 . S
C283 O287 1.251 . S
C283 O289 1.263 . S
Tb284 O286 2.343 . S
Tb284 O289 2.353 . S
Tb284 O292 2.427 . S
Tb284 O293 2.513 . S
Tb284 O294 2.453 . S
Tb284 O295 2.596 . S
Tb284 O296 2.374 . S
O285 Tb282 2.453 . S
O285 C301 1.245 . S
O286 Tb282 2.596 . S
O286 Tb284 2.343 . S
O286 C301 1.259 . S
O287 Tb282 2.374 . S
O287 C283 1.251 . S
C288 O292 1.275 . S
C288 O293 1.246 . S
O289 C283 1.263 . S
O289 Tb284 2.353 . S
C290 O294 1.245 . S
C290 O295 1.259 . S
C291 O296 1.250 . S
C291 O297 1.263 . S
O292 Tb284 2.427 . S
O292 C288 1.275 . S
O293 Tb284 2.513 . S
O293 C288 1.246 . S
O294 Tb284 2.453 . S
O294 C290 1.245 . S
O295 Tb282 2.343 . S
O295 Tb284 2.596 . S
O295 C290 1.259 . S
O296 Tb284 2.374 . S
O296 C291 1.250 . S
O297 Tb282 2.353 . S
O297 C291 1.263 . S
C298 O299 1.275 . S
C298 O300 1.246 . S
O299 Tb282 2.427 . S
O299 C298 1.275 . S
O300 Tb282 2.513 . S
O300 C298 1.246 . S
C301 O285 1.245 . S
C301 O286 1.259 . S
Tb302 O305 2.453 . S
Tb302 O306 2.596 . S
Tb302 O307 2.374 . S
Tb302 O315 2.343 . S
Tb302 O317 2.353 . S
Tb302 O319 2.427 . S
Tb302 O320 2.513 . S
C303 O307 1.251 . S
C303 O309 1.263 . S
Tb304 O306 2.343 . S
Tb304 O309 2.353 . S
Tb304 O312 2.427 . S
Tb304 O313 2.513 . S
Tb304 O314 2.453 . S
Tb304 O315 2.596 . S
Tb304 O316 2.374 . S
O305 Tb302 2.453 . S
O305 C321 1.245 . S
O306 Tb302 2.596 . S
O306 Tb304 2.343 . S
O306 C321 1.259 . S
O307 Tb302 2.374 . S
O307 C303 1.251 . S
C308 O312 1.275 . S
C308 O313 1.246 . S
O309 C303 1.263 . S
O309 Tb304 2.353 . S
C310 O314 1.245 . S
C310 O315 1.259 . S
C311 O316 1.250 . S
C311 O317 1.263 . S
O312 Tb304 2.427 . S
O312 C308 1.275 . S
O313 Tb304 2.513 . S
O313 C308 1.246 . S
O314 Tb304 2.453 . S
O314 C310 1.245 . S
O315 Tb302 2.343 . S
O315 Tb304 2.596 . S
O315 C310 1.259 . S
O316 Tb304 2.374 . S
O316 C311 1.250 . S
O317 Tb302 2.353 . S
O317 C311 1.263 . S
C318 O319 1.275 . S
C318 O320 1.246 . S
O319 Tb302 2.427 . S
O319 C318 1.275 . S
O320 Tb302 2.513 . S
O320 C318 1.246 . S
C321 O305 1.245 . S
C321 O306 1.259 . S
Tb322 O325 2.453 . S
Tb322 O326 2.596 . S
Tb322 O327 2.374 . S
Tb322 O335 2.343 . S
Tb322 O337 2.353 . S
Tb322 O339 2.427 . S
Tb322 O340 2.513 . S
C323 O327 1.251 . S
C323 O329 1.263 . S
Tb324 O326 2.343 . S
Tb324 O329 2.353 . S
Tb324 O332 2.427 . S
Tb324 O333 2.513 . S
Tb324 O334 2.453 . S
Tb324 O335 2.596 . S
Tb324 O336 2.374 . S
O325 Tb322 2.453 . S
O325 C341 1.245 . S
O326 Tb322 2.596 . S
O326 Tb324 2.343 . S
O326 C341 1.259 . S
O327 Tb322 2.374 . S
O327 C323 1.251 . S
C328 O332 1.275 . S
C328 O333 1.246 . S
O329 C323 1.263 . S
O329 Tb324 2.353 . S
C330 O334 1.245 . S
C330 O335 1.259 . S
C331 O336 1.250 . S
C331 O337 1.263 . S
O332 Tb324 2.427 . S
O332 C328 1.275 . S
O333 Tb324 2.513 . S
O333 C328 1.246 . S
O334 Tb324 2.453 . S
O334 C330 1.245 . S
O335 Tb322 2.343 . S
O335 Tb324 2.596 . S
O335 C330 1.259 . S
O336 Tb324 2.374 . S
O336 C331 1.250 . S
O337 Tb322 2.353 . S
O337 C331 1.263 . S
C338 O339 1.275 . S
C338 O340 1.246 . S
O339 Tb322 2.427 . S
O339 C338 1.275 . S
O340 Tb322 2.513 . S
O340 C338 1.246 . S
C341 O325 1.245 . S
C341 O326 1.259 . S
H342 C350 0.950 . S
H343 C355 0.950 . S
H344 C352 0.950 . S
H345 C354 0.950 . S
H346 C356 0.950 . S
H347 C358 0.950 . S
H348 C360 0.950 . S
H349 C361 0.950 . S
C350 H342 0.950 . S
C350 C351 1.386 . S
C350 C352 1.391 . S
C351 C350 1.386 . S
C351 C355 1.393 . S
C352 H344 0.950 . S
C352 C350 1.391 . S
C352 C353 1.400 . S
C353 C352 1.400 . S
C353 C354 1.398 . S
C353 C359 1.491 . S
C354 H345 0.950 . S
C354 C353 1.398 . S
C354 C355 1.391 . S
C355 H343 0.950 . S
C355 C351 1.393 . S
C355 C354 1.391 . S
C356 H346 0.950 . S
C356 C357 1.386 . S
C356 C358 1.391 . S
C357 C356 1.386 . S
C357 C361 1.393 . S
C358 H347 0.950 . S
C358 C356 1.391 . S
C358 C359 1.400 . S
C359 C353 1.491 . S
C359 C358 1.400 . S
C359 C360 1.398 . S
C360 H348 0.950 . S
C360 C359 1.398 . S
C360 C361 1.391 . S
C361 H349 0.950 . S
C361 C357 1.393 . S
C361 C360 1.391 . S
H362 C370 0.950 . S
H363 C375 0.950 . S
H364 C372 0.950 . S
H365 C374 0.950 . S
H366 C376 0.950 . S
H367 C378 0.950 . S
H368 C380 0.950 . S
H369 C381 0.950 . S
C370 H362 0.950 . S
C370 C371 1.386 . S
C370 C372 1.391 . S
C371 C370 1.386 . S
C371 C375 1.393 . S
C372 H364 0.950 . S
C372 C370 1.391 . S
C372 C373 1.400 . S
C373 C372 1.400 . S
C373 C374 1.398 . S
C373 C379 1.491 . S
C374 H365 0.950 . S
C374 C373 1.398 . S
C374 C375 1.391 . S
C375 H363 0.950 . S
C375 C371 1.393 . S
C375 C374 1.391 . S
C376 H366 0.950 . S
C376 C377 1.386 . S
C376 C378 1.391 . S
C377 C376 1.386 . S
C377 C381 1.393 . S
C378 H367 0.950 . S
C378 C376 1.391 . S
C378 C379 1.400 . S
C379 C373 1.491 . S
C379 C378 1.400 . S
C379 C380 1.398 . S
C380 H368 0.950 . S
C380 C379 1.398 . S
C380 C381 1.391 . S
C381 H369 0.950 . S
C381 C377 1.393 . S
C381 C380 1.391 . S
H382 C390 0.950 . S
H383 C395 0.950 . S
H384 C392 0.950 . S
H385 C394 0.950 . S
H386 C396 0.950 . S
H387 C398 0.950 . S
H388 C400 0.950 . S
H389 C401 0.950 . S
C390 H382 0.950 . S
C390 C391 1.386 . S
C390 C392 1.391 . S
C391 C390 1.386 . S
C391 C395 1.393 . S
C392 H384 0.950 . S
C392 C390 1.391 . S
C392 C393 1.400 . S
C393 C392 1.400 . S
C393 C394 1.398 . S
C393 C399 1.491 . S
C394 H385 0.950 . S
C394 C393 1.398 . S
C394 C395 1.391 . S
C395 H383 0.950 . S
C395 C391 1.393 . S
C395 C394 1.391 . S
C396 H386 0.950 . S
C396 C397 1.386 . S
C396 C398 1.391 . S
C397 C396 1.386 . S
C397 C401 1.393 . S
C398 H387 0.950 . S
C398 C396 1.391 . S
C398 C399 1.400 . S
C399 C393 1.491 . S
C399 C398 1.400 . S
C399 C400 1.398 . S
C400 H388 0.950 . S
C400 C399 1.398 . S
C400 C401 1.391 . S
C401 H389 0.950 . S
C401 C397 1.393 . S
C401 C400 1.391 . S
H402 C410 0.950 . S
H403 C415 0.950 . S
H404 C412 0.950 . S
H405 C414 0.950 . S
H406 C416 0.950 . S
H407 C418 0.950 . S
H408 C420 0.950 . S
H409 C421 0.927 1_554 S
C410 H402 0.950 . S
C410 C411 1.386 . S
C410 C412 1.391 . S
C411 C410 1.386 . S
C411 C415 1.393 . S
C412 H404 0.950 . S
C412 C410 1.391 . S
C412 C413 1.400 . S
C413 C412 1.400 . S
C413 C414 1.398 . S
C413 C419 1.491 . S
C414 H405 0.950 . S
C414 C413 1.398 . S
C414 C415 1.391 . S
C415 H403 0.950 . S
C415 C411 1.393 . S
C415 C414 1.391 . S
C416 H406 0.950 . S
C416 C417 1.386 . S
C416 C418 1.391 . S
C417 C416 1.386 . S
C417 C421 1.393 . S
C418 H407 0.950 . S
C418 C416 1.391 . S
C418 C419 1.400 . S
C419 C413 1.491 . S
C419 C418 1.400 . S
C419 C420 1.398 . S
C420 H408 0.950 . S
C420 C419 1.398 . S
C420 C421 1.391 . S
C421 H409 0.927 1_556 S
C421 C417 1.393 . S
C421 C420 1.391 . S
H422 C430 0.950 . S
H423 C435 0.950 . S
H424 C432 0.950 . S
H425 C434 0.950 . S
H426 C436 0.950 . S
H427 C438 0.950 . S
H428 C440 0.950 . S
H429 C441 0.950 . S
C430 H422 0.950 . S
C430 C431 1.386 . S
C430 C432 1.391 . S
C431 C430 1.386 . S
C431 C435 1.393 . S
C432 H424 0.950 . S
C432 C430 1.391 . S
C432 C433 1.400 . S
C433 C432 1.400 . S
C433 C434 1.398 . S
C433 C439 1.491 . S
C434 H425 0.950 . S
C434 C433 1.398 . S
C434 C435 1.391 . S
C435 H423 0.950 . S
C435 C431 1.393 . S
C435 C434 1.391 . S
C436 H426 0.950 . S
C436 C437 1.386 . S
C436 C438 1.391 . S
C437 C436 1.386 . S
C437 C441 1.393 . S
C438 H427 0.950 . S
C438 C436 1.391 . S
C438 C439 1.400 . S
C439 C433 1.491 . S
C439 C438 1.400 . S
C439 C440 1.398 . S
C440 H428 0.950 . S
C440 C439 1.398 . S
C440 C441 1.391 . S
C441 H429 0.950 . S
C441 C437 1.393 . S
C441 C440 1.391 . S
H442 C450 0.950 . S
H443 C455 0.950 . S
H444 C452 0.950 . S
H445 C454 0.950 . S
H446 C456 0.950 1_554 S
H447 C458 0.950 . S
H448 C460 0.950 . S
H449 C461 0.950 . S
C450 H442 0.950 . S
C450 C451 1.386 . S
C450 C452 1.391 . S
C451 C450 1.386 . S
C451 C455 1.393 . S
C452 H444 0.950 . S
C452 C450 1.391 . S
C452 C453 1.400 . S
C453 C452 1.400 . S
C453 C454 1.398 . S
C453 C459 1.491 . S
C454 H445 0.950 . S
C454 C453 1.398 . S
C454 C455 1.391 . S
C455 H443 0.950 . S
C455 C451 1.393 . S
C455 C454 1.391 . S
C456 H446 0.950 1_556 S
C456 C457 1.386 . S
C456 C458 1.391 . S
C457 C456 1.386 . S
C457 C461 1.393 . S
C458 H447 0.950 . S
C458 C456 1.391 . S
C458 C459 1.400 . S
C459 C453 1.491 . S
C459 C458 1.400 . S
C459 C460 1.398 . S
C460 H448 0.950 . S
C460 C459 1.398 . S
C460 C461 1.391 . S
C461 H449 0.950 . S
C461 C457 1.393 . S
C461 C460 1.391 . S
H462 C470 0.950 . S
H463 C475 0.950 . S
H464 C472 0.950 . S
H465 C474 0.950 . S
H466 C476 0.950 . S
H467 C478 0.950 . S
H468 C480 0.950 . S
H469 C481 0.950 . S
C470 H462 0.950 . S
C470 C471 1.386 . S
C470 C472 1.391 . S
C471 C470 1.386 . S
C471 C475 1.393 . S
C472 H464 0.950 . S
C472 C470 1.391 . S
C472 C473 1.400 . S
C473 C472 1.400 . S
C473 C474 1.398 . S
C473 C479 1.491 . S
C474 H465 0.950 . S
C474 C473 1.398 . S
C474 C475 1.391 . S
C475 H463 0.950 . S
C475 C471 1.393 . S
C475 C474 1.391 . S
C476 H466 0.950 . S
C476 C477 1.386 . S
C476 C478 1.391 . S
C477 C476 1.386 . S
C477 C481 1.393 . S
C478 H467 0.950 . S
C478 C476 1.391 . S
C478 C479 1.400 . S
C479 C473 1.491 . S
C479 C478 1.400 . S
C479 C480 1.398 . S
C480 H468 0.950 . S
C480 C479 1.398 . S
C480 C481 1.391 . S
C481 H469 0.950 . S
C481 C477 1.393 . S
C481 C480 1.391 . S
H482 C490 0.950 . S
H483 C495 0.950 . S
H484 C492 0.950 . S
H485 C494 0.950 . S
H486 C496 0.950 . S
H487 C498 0.950 . S
H488 C500 0.950 . S
H489 C501 0.950 . S
C490 H482 0.950 . S
C490 C491 1.386 . S
C490 C492 1.391 . S
C491 C490 1.386 . S
C491 C495 1.393 . S
C492 H484 0.950 . S
C492 C490 1.391 . S
C492 C493 1.400 . S
C493 C492 1.400 . S
C493 C494 1.398 . S
C493 C499 1.491 . S
C494 H485 0.950 . S
C494 C493 1.398 . S
C494 C495 1.391 . S
C495 H483 0.950 . S
C495 C491 1.393 . S
C495 C494 1.391 . S
C496 H486 0.950 . S
C496 C497 1.386 . S
C496 C498 1.391 . S
C497 C496 1.386 . S
C497 C501 1.393 . S
C498 H487 0.950 . S
C498 C496 1.391 . S
C498 C499 1.400 . S
C499 C493 1.491 . S
C499 C498 1.400 . S
C499 C500 1.398 . S
C500 H488 0.950 . S
C500 C499 1.398 . S
C500 C501 1.391 . S
C501 H489 0.950 . S
C501 C497 1.393 . S
C501 C500 1.391 . S
H502 C510 0.950 . S
H503 C515 0.950 . S
H504 C512 0.950 . S
H505 C514 0.950 . S
H506 C516 0.950 1_554 S
H507 C518 0.950 . S
H508 C520 0.950 . S
H509 C521 0.950 . S
C510 H502 0.950 . S
C510 C511 1.386 . S
C510 C512 1.391 . S
C511 C510 1.386 . S
C511 C515 1.393 . S
C512 H504 0.950 . S
C512 C510 1.391 . S
C512 C513 1.400 . S
C513 C512 1.400 . S
C513 C514 1.398 . S
C513 C519 1.491 . S
C514 H505 0.950 . S
C514 C513 1.398 . S
C514 C515 1.391 . S
C515 H503 0.950 . S
C515 C511 1.393 . S
C515 C514 1.391 . S
C516 H506 0.950 1_556 S
C516 C517 1.386 . S
C516 C518 1.391 . S
C517 C516 1.386 . S
C517 C521 1.393 . S
C518 H507 0.950 . S
C518 C516 1.391 . S
C518 C519 1.400 . S
C519 C513 1.491 . S
C519 C518 1.400 . S
C519 C520 1.398 . S
C520 H508 0.950 . S
C520 C519 1.398 . S
C520 C521 1.391 . S
C521 H509 0.950 . S
C521 C517 1.393 . S
C521 C520 1.391 . S
H522 C530 0.950 . S
H523 C535 0.950 . S
H524 C532 0.950 . S
H525 C534 0.950 . S
H526 C536 0.950 . S
H527 C538 0.950 . S
H528 C540 0.950 . S
H529 C541 0.950 . S
C530 H522 0.950 . S
C530 C531 1.386 . S
C530 C532 1.391 . S
C531 C530 1.386 . S
C531 C535 1.393 . S
C532 H524 0.950 . S
C532 C530 1.391 . S
C532 C533 1.400 . S
C533 C532 1.400 . S
C533 C534 1.398 . S
C533 C539 1.491 . S
C534 H525 0.950 . S
C534 C533 1.398 . S
C534 C535 1.391 . S
C535 H523 0.950 . S
C535 C531 1.393 . S
C535 C534 1.391 . S
C536 H526 0.950 . S
C536 C537 1.386 . S
C536 C538 1.391 . S
C537 C536 1.386 . S
C537 C541 1.393 . S
C538 H527 0.950 . S
C538 C536 1.391 . S
C538 C539 1.400 . S
C539 C533 1.491 . S
C539 C538 1.400 . S
C539 C540 1.398 . S
C540 H528 0.950 . S
C540 C539 1.398 . S
C540 C541 1.391 . S
C541 H529 0.950 . S
C541 C537 1.393 . S
C541 C540 1.391 . S
H542 C550 0.950 . S
H543 C555 0.950 . S
H544 C552 0.950 . S
H545 C554 0.950 . S
H546 C556 0.950 . S
H547 C558 0.950 . S
H548 C560 0.950 . S
H549 C561 0.950 . S
C550 H542 0.950 . S
C550 C551 1.386 . S
C550 C552 1.391 . S
C551 C550 1.386 . S
C551 C555 1.393 . S
C552 H544 0.950 . S
C552 C550 1.391 . S
C552 C553 1.400 . S
C553 C552 1.400 . S
C553 C554 1.398 . S
C553 C559 1.491 . S
C554 H545 0.950 . S
C554 C553 1.398 . S
C554 C555 1.391 . S
C555 H543 0.950 . S
C555 C551 1.393 . S
C555 C554 1.391 . S
C556 H546 0.950 . S
C556 C557 1.386 . S
C556 C558 1.391 . S
C557 C556 1.386 . S
C557 C561 1.393 . S
C558 H547 0.950 . S
C558 C556 1.391 . S
C558 C559 1.400 . S
C559 C553 1.491 . S
C559 C558 1.400 . S
C559 C560 1.398 . S
C560 H548 0.950 . S
C560 C559 1.398 . S
C560 C561 1.391 . S
C561 H549 0.950 . S
C561 C557 1.393 . S
C561 C560 1.391 . S
H562 C570 0.950 . S
H563 C575 0.950 . S
H564 C572 0.950 . S
H565 C574 0.950 . S
H566 C576 0.950 1_556 S
H567 C578 0.950 . S
H568 C580 0.950 . S
H569 C581 0.950 . S
C570 H562 0.950 . S
C570 C571 1.386 . S
C570 C572 1.391 . S
C571 C570 1.386 . S
C571 C575 1.393 . S
C572 H564 0.950 . S
C572 C570 1.391 . S
C572 C573 1.400 . S
C573 C572 1.400 . S
C573 C574 1.398 . S
C573 C579 1.491 . S
C574 H565 0.950 . S
C574 C573 1.398 . S
C574 C575 1.391 . S
C575 H563 0.950 . S
C575 C571 1.393 . S
C575 C574 1.391 . S
C576 H566 0.950 1_554 S
C576 C577 1.386 . S
C576 C578 1.391 . S
C577 C576 1.386 . S
C577 C581 1.393 . S
C578 H567 0.950 . S
C578 C576 1.391 . S
C578 C579 1.400 . S
C579 C573 1.491 . S
C579 C578 1.400 . S
C579 C580 1.398 . S
C580 H568 0.950 . S
C580 C579 1.398 . S
C580 C581 1.391 . S
C581 H569 0.950 . S
C581 C577 1.393 . S
C581 C580 1.391 . S
H582 C590 0.950 . S
H583 C595 0.950 . S
H584 C592 0.950 . S
H585 C594 0.950 . S
H586 C596 0.950 . S
H587 C598 0.976 . S
H588 C600 0.950 . S
H589 C601 0.950 . S
C590 H582 0.950 . S
C590 C591 1.386 . S
C590 C592 1.391 . S
C591 C590 1.386 . S
C591 C595 1.393 . S
C592 H584 0.950 . S
C592 C590 1.391 . S
C592 C593 1.400 . S
C593 C592 1.400 . S
C593 C594 1.398 . S
C593 C599 1.491 1_655 S
C594 H585 0.950 . S
C594 C593 1.398 . S
C594 C595 1.391 . S
C595 H583 0.950 . S
C595 C591 1.393 . S
C595 C594 1.391 . S
C596 H586 0.950 . S
C596 C597 1.386 . S
C596 C598 1.391 . S
C597 C596 1.386 . S
C597 C601 1.393 . S
C598 H587 0.976 . S
C598 C596 1.391 . S
C598 C599 1.400 . S
C599 C593 1.491 1_455 S
C599 C598 1.400 . S
C599 C600 1.398 . S
C600 H588 0.950 . S
C600 C599 1.398 . S
C600 C601 1.391 . S
C601 H589 0.950 . S
C601 C597 1.393 . S
C601 C600 1.391 . S
H602 C610 0.950 . S
H603 C615 0.950 . S
H604 C612 0.950 . S
H605 C614 0.950 . S
H606 C616 0.950 . S
H607 C618 0.950 . S
H608 C620 0.950 . S
H609 C621 0.950 . S
C610 H602 0.950 . S
C610 C611 1.386 . S
C610 C612 1.391 . S
C611 C610 1.386 . S
C611 C615 1.393 . S
C612 H604 0.950 . S
C612 C610 1.391 . S
C612 C613 1.400 . S
C613 C612 1.400 . S
C613 C614 1.398 . S
C613 C619 1.491 . S
C614 H605 0.950 . S
C614 C613 1.398 . S
C614 C615 1.391 . S
C615 H603 0.950 . S
C615 C611 1.393 . S
C615 C614 1.391 . S
C616 H606 0.950 . S
C616 C617 1.386 . S
C616 C618 1.391 . S
C617 C616 1.386 . S
C617 C621 1.393 . S
C618 H607 0.950 . S
C618 C616 1.391 . S
C618 C619 1.400 . S
C619 C613 1.491 . S
C619 C618 1.400 . S
C619 C620 1.398 . S
C620 H608 0.950 . S
C620 C619 1.398 . S
C620 C621 1.391 . S
C621 H609 0.950 . S
C621 C617 1.393 . S
C621 C620 1.391 . S
H622 C630 0.950 . S
H623 C635 0.950 . S
H624 C632 0.950 . S
H625 C634 0.950 . S
H626 C636 0.950 . S
H627 C638 0.950 . S
H628 C640 0.950 . S
H629 C641 0.950 . S
C630 H622 0.950 . S
C630 C631 1.386 . S
C630 C632 1.391 . S
C631 C630 1.386 . S
C631 C635 1.393 . S
C632 H624 0.950 . S
C632 C630 1.391 . S
C632 C633 1.400 . S
C633 C632 1.400 . S
C633 C634 1.398 . S
C633 C639 1.491 1_545 S
C634 H625 0.950 . S
C634 C633 1.398 . S
C634 C635 1.391 . S
C635 H623 0.950 . S
C635 C631 1.393 . S
C635 C634 1.391 . S
C636 H626 0.950 . S
C636 C637 1.386 . S
C636 C638 1.391 . S
C637 C636 1.386 . S
C637 C641 1.393 . S
C638 H627 0.950 . S
C638 C636 1.391 . S
C638 C639 1.400 . S
C639 C633 1.491 1_565 S
C639 C638 1.400 . S
C639 C640 1.398 . S
C640 H628 0.950 . S
C640 C639 1.398 . S
C640 C641 1.391 . S
C641 H629 0.950 . S
C641 C637 1.393 . S
C641 C640 1.391 . S
H642 C650 0.950 . S
H643 C655 0.950 . S
H644 C652 0.950 . S
H645 C654 0.950 . S
H646 C656 0.950 . S
H647 C658 0.950 . S
H648 C660 0.950 . S
H649 C661 0.950 . S
C650 H642 0.950 . S
C650 C651 1.386 . S
C650 C652 1.391 . S
C651 C650 1.386 . S
C651 C655 1.393 . S
C652 H644 0.950 . S
C652 C650 1.391 . S
C652 C653 1.400 . S
C653 C652 1.400 . S
C653 C654 1.398 . S
C653 C659 1.491 . S
C654 H645 0.950 . S
C654 C653 1.398 . S
C654 C655 1.391 . S
C655 H643 0.950 . S
C655 C651 1.393 . S
C655 C654 1.391 . S
C656 H646 0.950 . S
C656 C657 1.386 . S
C656 C658 1.391 . S
C657 C656 1.386 . S
C657 C661 1.393 . S
C658 H647 0.950 . S
C658 C656 1.391 . S
C658 C659 1.400 . S
C659 C653 1.491 . S
C659 C658 1.400 . S
C659 C660 1.398 . S
C660 H648 0.950 . S
C660 C659 1.398 . S
C660 C661 1.391 . S
C661 H649 0.950 . S
C661 C657 1.393 . S
C661 C660 1.391 . S
H662 C670 0.950 . S
H663 C675 0.950 . S
H664 C672 0.950 . S
H665 C674 0.950 . S
H666 C676 0.950 . S
H667 C678 0.950 . S
H668 C680 0.950 . S
H669 C681 0.950 . S
C670 H662 0.950 . S
C670 C671 1.386 . S
C670 C672 1.391 . S
C671 C670 1.386 . S
C671 C675 1.393 . S
C672 H664 0.950 . S
C672 C670 1.391 . S
C672 C673 1.400 . S
C673 C672 1.400 . S
C673 C674 1.398 . S
C673 C679 1.491 . S
C674 H665 0.950 . S
C674 C673 1.398 . S
C674 C675 1.391 . S
C675 H663 0.950 . S
C675 C671 1.393 . S
C675 C674 1.391 . S
C676 H666 0.950 . S
C676 C677 1.386 . S
C676 C678 1.391 . S
C677 C676 1.386 . S
C677 C681 1.393 . S
C678 H667 0.950 . S
C678 C676 1.391 . S
C678 C679 1.400 . S
C679 C673 1.491 . S
C679 C678 1.400 . S
C679 C680 1.398 . S
C680 H668 0.950 . S
C680 C679 1.398 . S
C680 C681 1.391 . S
C681 H669 0.950 . S
C681 C677 1.393 . S
C681 C680 1.391 . S
H682 C690 0.950 . S
H683 C695 0.950 . S
H684 C692 0.950 . S
H685 C694 0.950 . S
H686 C696 0.950 . S
H687 C698 0.950 . S
H688 C700 0.950 . S
H689 C701 0.950 . S
C690 H682 0.950 . S
C690 C691 1.386 . S
C690 C692 1.391 . S
C691 C690 1.386 . S
C691 C695 1.393 . S
C692 H684 0.950 . S
C692 C690 1.391 . S
C692 C693 1.400 . S
C693 C692 1.400 . S
C693 C694 1.398 . S
C693 C699 1.491 . S
C694 H685 0.950 . S
C694 C693 1.398 . S
C694 C695 1.391 . S
C695 H683 0.950 . S
C695 C691 1.393 . S
C695 C694 1.391 . S
C696 H686 0.950 . S
C696 C697 1.386 . S
C696 C698 1.391 . S
C697 C696 1.386 . S
C697 C701 1.393 . S
C698 H687 0.950 . S
C698 C696 1.391 . S
C698 C699 1.400 . S
C699 C693 1.491 . S
C699 C698 1.400 . S
C699 C700 1.398 . S
C700 H688 0.950 . S
C700 C699 1.398 . S
C700 C701 1.391 . S
C701 H689 0.950 . S
C701 C697 1.393 . S
C701 C700 1.391 . S
H702 C710 0.950 . S
H703 C715 0.950 . S
H704 C712 0.950 . S
H705 C714 0.950 . S
H706 C716 0.950 . S
H707 C718 0.950 . S
H708 C720 0.950 . S
H709 C721 0.950 . S
C710 H702 0.950 . S
C710 C711 1.386 . S
C710 C712 1.391 . S
C711 C710 1.386 . S
C711 C715 1.393 . S
C712 H704 0.950 . S
C712 C710 1.391 . S
C712 C713 1.400 . S
C713 C712 1.400 . S
C713 C714 1.398 . S
C713 C719 1.491 . S
C714 H705 0.950 . S
C714 C713 1.398 . S
C714 C715 1.391 . S
C715 H703 0.950 . S
C715 C711 1.393 . S
C715 C714 1.391 . S
C716 H706 0.950 . S
C716 C717 1.386 . S
C716 C718 1.391 . S
C717 C716 1.386 . S
C717 C721 1.393 . S
C718 H707 0.950 . S
C718 C716 1.391 . S
C718 C719 1.400 . S
C719 C713 1.491 . S
C719 C718 1.400 . S
C719 C720 1.398 . S
C720 H708 0.950 . S
C720 C719 1.398 . S
C720 C721 1.391 . S
C721 H709 0.950 . S
C721 C717 1.393 . S
C721 C720 1.391 . S
H722 C730 0.950 . S
H723 C735 0.950 . S
H724 C732 0.950 . S
H725 C734 0.950 . S
H726 C736 0.950 . S
H727 C738 0.950 . S
H728 C740 0.950 . S
H729 C741 0.950 . S
C730 H722 0.950 . S
C730 C731 1.386 . S
C730 C732 1.391 . S
C731 C730 1.386 . S
C731 C735 1.393 . S
C732 H724 0.950 . S
C732 C730 1.391 . S
C732 C733 1.400 . S
C733 C732 1.400 . S
C733 C734 1.398 . S
C733 C739 1.491 . S
C734 H725 0.950 . S
C734 C733 1.398 . S
C734 C735 1.391 . S
C735 H723 0.950 . S
C735 C731 1.393 . S
C735 C734 1.391 . S
C736 H726 0.950 . S
C736 C737 1.386 . S
C736 C738 1.391 . S
C737 C736 1.386 . S
C737 C741 1.393 . S
C738 H727 0.950 . S
C738 C736 1.391 . S
C738 C739 1.400 . S
C739 C733 1.491 . S
C739 C738 1.400 . S
C739 C740 1.398 . S
C740 H728 0.950 . S
C740 C739 1.398 . S
C740 C741 1.391 . S
C741 H729 0.950 . S
C741 C737 1.393 . S
C741 C740 1.391 . S
H742 C750 0.950 . S
H743 C755 0.950 . S
H744 C752 0.950 . S
H745 C754 0.950 . S
H746 C756 0.950 . S
H747 C758 0.950 . S
H748 C760 0.950 . S
H749 C761 0.950 . S
C750 H742 0.950 . S
C750 C751 1.386 . S
C750 C752 1.391 . S
C751 C750 1.386 . S
C751 C755 1.393 . S
C752 H744 0.950 . S
C752 C750 1.391 . S
C752 C753 1.400 . S
C753 C752 1.400 . S
C753 C754 1.398 . S
C753 C759 1.491 . S
C754 H745 0.950 . S
C754 C753 1.398 . S
C754 C755 1.391 . S
C755 H743 0.950 . S
C755 C751 1.393 . S
C755 C754 1.391 . S
C756 H746 0.950 . S
C756 C757 1.386 . S
C756 C758 1.391 . S
C757 C756 1.386 . S
C757 C761 1.393 . S
C758 H747 0.950 . S
C758 C756 1.391 . S
C758 C759 1.400 . S
C759 C753 1.491 . S
C759 C758 1.400 . S
C759 C760 1.398 . S
C760 H748 0.950 . S
C760 C759 1.398 . S
C760 C761 1.391 . S
C761 H749 0.950 . S
C761 C757 1.393 . S
C761 C760 1.391 . S
H762 C770 0.950 . S
H763 C775 0.950 . S
H764 C772 0.950 . S
H765 C774 0.950 . S
H766 C776 0.950 . S
H767 C778 0.950 . S
H768 C780 0.950 . S
H769 C781 0.950 . S
C770 H762 0.950 . S
C770 C771 1.386 . S
C770 C772 1.391 . S
C771 C770 1.386 . S
C771 C775 1.393 . S
C772 H764 0.950 . S
C772 C770 1.391 . S
C772 C773 1.400 . S
C773 C772 1.400 . S
C773 C774 1.398 . S
C773 C779 1.491 1_545 S
C774 H765 0.950 . S
C774 C773 1.398 . S
C774 C775 1.391 . S
C775 H763 0.950 . S
C775 C771 1.393 . S
C775 C774 1.391 . S
C776 H766 0.950 . S
C776 C777 1.386 . S
C776 C778 1.391 . S
C777 C776 1.386 . S
C777 C781 1.393 . S
C778 H767 0.950 . S
C778 C776 1.391 . S
C778 C779 1.400 . S
C779 C773 1.491 1_565 S
C779 C778 1.400 . S
C779 C780 1.398 . S
C780 H768 0.950 . S
C780 C779 1.398 . S
C780 C781 1.391 . S
C781 H769 0.950 . S
C781 C777 1.393 . S
C781 C780 1.391 . S
H782 C790 0.950 . S
H783 C795 0.950 . S
H784 C792 0.950 . S
H785 C794 0.950 . S
H786 C796 0.950 . S
H787 C798 0.950 . S
H788 C800 0.950 . S
H789 C801 0.950 . S
C790 H782 0.950 . S
C790 C791 1.386 . S
C790 C792 1.391 . S
C791 C790 1.386 . S
C791 C795 1.393 . S
C792 H784 0.950 . S
C792 C790 1.391 . S
C792 C793 1.400 . S
C793 C792 1.400 . S
C793 C794 1.398 . S
C793 C799 1.491 1_655 S
C794 H785 0.950 . S
C794 C793 1.398 . S
C794 C795 1.391 . S
C795 H783 0.950 . S
C795 C791 1.393 . S
C795 C794 1.391 . S
C796 H786 0.950 . S
C796 C797 1.386 . S
C796 C798 1.391 . S
C797 C796 1.386 . S
C797 C801 1.393 . S
C798 H787 0.950 . S
C798 C796 1.391 . S
C798 C799 1.400 . S
C799 C793 1.491 1_455 S
C799 C798 1.400 . S
C799 C800 1.398 . S
C800 H788 0.950 . S
C800 C799 1.398 . S
C800 C801 1.391 . S
C801 H789 0.950 . S
C801 C797 1.393 . S
C801 C800 1.391 . S
H802 C810 0.950 . S
H803 C815 0.950 . S
H804 C812 0.950 . S
H805 C814 0.950 . S
H806 C816 0.950 . S
H807 C818 0.950 . S
H808 C820 0.950 . S
H809 C821 0.950 . S
C810 H802 0.950 . S
C810 C811 1.386 . S
C810 C812 1.391 . S
C811 C810 1.386 . S
C811 C815 1.393 . S
C812 H804 0.950 . S
C812 C810 1.391 . S
C812 C813 1.400 . S
C813 C812 1.400 . S
C813 C814 1.398 . S
C813 C819 1.491 . S
C814 H805 0.950 . S
C814 C813 1.398 . S
C814 C815 1.391 . S
C815 H803 0.950 . S
C815 C811 1.393 . S
C815 C814 1.391 . S
C816 H806 0.950 . S
C816 C817 1.386 . S
C816 C818 1.391 . S
C817 C816 1.386 . S
C817 C821 1.393 . S
C818 H807 0.950 . S
C818 C816 1.391 . S
C818 C819 1.400 . S
C819 C813 1.491 . S
C819 C818 1.400 . S
C819 C820 1.398 . S
C820 H808 0.950 . S
C820 C819 1.398 . S
C820 C821 1.391 . S
C821 H809 0.950 . S
C821 C817 1.393 . S
C821 C820 1.391 . S
H822 C830 0.950 . S
H823 C835 0.950 . S
H824 C832 0.950 . S
H825 C834 0.950 . S
H826 C836 0.950 . S
H827 C838 0.950 . S
H828 C840 0.950 . S
H829 C841 0.950 . S
C830 H822 0.950 . S
C830 C831 1.386 . S
C830 C832 1.391 . S
C831 C830 1.386 . S
C831 C835 1.393 . S
C832 H824 0.950 . S
C832 C830 1.391 . S
C832 C833 1.400 . S
C833 C832 1.400 . S
C833 C834 1.398 . S
C833 C839 1.491 . S
C834 H825 0.950 . S
C834 C833 1.398 . S
C834 C835 1.391 . S
C835 H823 0.950 . S
C835 C831 1.393 . S
C835 C834 1.391 . S
C836 H826 0.950 . S
C836 C837 1.386 . S
C836 C838 1.391 . S
C837 C836 1.386 . S
C837 C841 1.393 . S
C838 H827 0.950 . S
C838 C836 1.391 . S
C838 C839 1.400 . S
C839 C833 1.491 . S
C839 C838 1.400 . S
C839 C840 1.398 . S
C840 H828 0.950 . S
C840 C839 1.398 . S
C840 C841 1.391 . S
C841 H829 0.950 . S
C841 C837 1.393 . S
C841 C840 1.391 . S
H842 C850 0.950 . S
H843 C855 0.950 . S
H844 C852 0.950 . S
H845 C854 0.950 . S
H846 C856 0.950 . S
H847 C858 0.950 . S
H848 C860 0.950 . S
H849 C861 0.950 . S
C850 H842 0.950 . S
C850 C851 1.386 . S
C850 C852 1.391 . S
C851 C850 1.386 . S
C851 C855 1.393 . S
C852 H844 0.950 . S
C852 C850 1.391 . S
C852 C853 1.400 . S
C853 C852 1.400 . S
C853 C854 1.398 . S
C853 C859 1.491 . S
C854 H845 0.950 . S
C854 C853 1.398 . S
C854 C855 1.391 . S
C855 H843 0.950 . S
C855 C851 1.393 . S
C855 C854 1.391 . S
C856 H846 0.950 . S
C856 C857 1.386 . S
C856 C858 1.391 . S
C857 C856 1.386 . S
C857 C861 1.393 . S
C858 H847 0.950 . S
C858 C856 1.391 . S
C858 C859 1.400 . S
C859 C853 1.491 . S
C859 C858 1.400 . S
C859 C860 1.398 . S
C860 H848 0.950 . S
C860 C859 1.398 . S
C860 C861 1.391 . S
C861 H849 0.950 . S
C861 C857 1.393 . S
C861 C860 1.391 . S
H862 C870 0.950 . S
H863 C875 0.950 . S
H864 C872 0.950 . S
H865 C874 0.950 . S
H866 C876 0.950 . S
H867 C878 0.950 . S
H868 C880 0.950 . S
H869 C881 0.950 . S
C870 H862 0.950 . S
C870 C871 1.386 . S
C870 C872 1.391 . S
C871 C870 1.386 . S
C871 C875 1.393 . S
C872 H864 0.950 . S
C872 C870 1.391 . S
C872 C873 1.400 . S
C873 C872 1.400 . S
C873 C874 1.398 . S
C873 C879 1.491 . S
C874 H865 0.950 . S
C874 C873 1.398 . S
C874 C875 1.391 . S
C875 H863 0.950 . S
C875 C871 1.393 . S
C875 C874 1.391 . S
C876 H866 0.950 . S
C876 C877 1.386 . S
C876 C878 1.391 . S
C877 C876 1.386 . S
C877 C881 1.393 . S
C878 H867 0.950 . S
C878 C876 1.391 . S
C878 C879 1.400 . S
C879 C873 1.491 . S
C879 C878 1.400 . S
C879 C880 1.398 . S
C880 H868 0.950 . S
C880 C879 1.398 . S
C880 C881 1.391 . S
C881 H869 0.950 . S
C881 C877 1.393 . S
C881 C880 1.391 . S
H882 C890 0.950 . S
H883 C895 0.950 . S
H884 C892 0.950 . S
H885 C894 0.950 . S
H886 C896 0.950 . S
H887 C898 0.950 . S
H888 C900 0.950 . S
H889 C901 0.950 . S
C890 H882 0.950 . S
C890 C891 1.386 . S
C890 C892 1.391 . S
C891 C890 1.386 . S
C891 C895 1.393 . S
C892 H884 0.950 . S
C892 C890 1.391 . S
C892 C893 1.400 . S
C893 C892 1.400 . S
C893 C894 1.398 . S
C893 C899 1.491 1_565 S
C894 H885 0.950 . S
C894 C893 1.398 . S
C894 C895 1.391 . S
C895 H883 0.950 . S
C895 C891 1.393 . S
C895 C894 1.391 . S
C896 H886 0.950 . S
C896 C897 1.386 . S
C896 C898 1.391 . S
C897 C896 1.386 . S
C897 C901 1.393 . S
C898 H887 0.950 . S
C898 C896 1.391 . S
C898 C899 1.400 . S
C899 C893 1.491 1_545 S
C899 C898 1.400 . S
C899 C900 1.398 . S
C900 H888 0.950 . S
C900 C899 1.398 . S
C900 C901 1.391 . S
C901 H889 0.950 . S
C901 C897 1.393 . S
C901 C900 1.391 . S
H902 C910 0.950 . S
H903 C915 0.950 . S
H904 C912 0.950 . S
H905 C914 0.950 . S
H906 C916 0.950 . S
H907 C918 0.950 . S
H908 C920 0.950 1_455 S
H909 C921 0.950 . S
C910 H902 0.950 . S
C910 C911 1.386 . S
C910 C912 1.391 . S
C911 C910 1.386 . S
C911 C915 1.393 . S
C912 H904 0.950 . S
C912 C910 1.391 . S
C912 C913 1.400 . S
C913 C912 1.400 . S
C913 C914 1.398 . S
C913 C919 1.491 1_455 S
C914 H905 0.950 . S
C914 C913 1.398 . S
C914 C915 1.391 . S
C915 H903 0.950 . S
C915 C911 1.393 . S
C915 C914 1.391 . S
C916 H906 0.950 . S
C916 C917 1.386 . S
C916 C918 1.391 . S
C917 C916 1.386 . S
C917 C921 1.393 . S
C918 H907 0.950 . S
C918 C916 1.391 . S
C918 C919 1.400 . S
C919 C913 1.491 1_655 S
C919 C918 1.400 . S
C919 C920 1.398 . S
C920 H908 0.950 1_655 S
C920 C919 1.398 . S
C920 C921 1.391 . S
C921 H909 0.950 . S
C921 C917 1.393 . S
C921 C920 1.391 . S
H922 C930 0.950 . S
H923 C935 0.950 . S
H924 C932 0.950 . S
H925 C934 0.950 . S
H926 C936 0.950 . S
H927 C938 0.950 . S
H928 C940 0.950 . S
H929 C941 0.950 . S
C930 H922 0.950 . S
C930 C931 1.386 . S
C930 C932 1.391 . S
C931 C930 1.386 . S
C931 C935 1.393 . S
C932 H924 0.950 . S
C932 C930 1.391 . S
C932 C933 1.400 . S
C933 C932 1.400 . S
C933 C934 1.398 . S
C933 C939 1.491 . S
C934 H925 0.950 . S
C934 C933 1.398 . S
C934 C935 1.391 . S
C935 H923 0.950 . S
C935 C931 1.393 . S
C935 C934 1.391 . S
C936 H926 0.950 . S
C936 C937 1.386 . S
C936 C938 1.391 . S
C937 C936 1.386 . S
C937 C941 1.393 . S
C938 H927 0.950 . S
C938 C936 1.391 . S
C938 C939 1.400 . S
C939 C933 1.491 . S
C939 C938 1.400 . S
C939 C940 1.398 . S
C940 H928 0.950 . S
C940 C939 1.398 . S
C940 C941 1.391 . S
C941 H929 0.950 . S
C941 C937 1.393 . S
C941 C940 1.391 . S
H942 C950 0.950 . S
H943 C955 0.950 . S
H944 C952 0.950 . S
H945 C954 0.950 . S
H946 C956 0.950 . S
H947 C958 0.950 1_455 S
H948 C960 0.950 . S
H949 C961 0.950 . S
C950 H942 0.950 . S
C950 C951 1.386 . S
C950 C952 1.391 . S
C951 C950 1.386 . S
C951 C955 1.393 . S
C952 H944 0.950 . S
C952 C950 1.391 . S
C952 C953 1.400 . S
C953 C952 1.400 . S
C953 C954 1.398 . S
C953 C959 1.491 1_455 S
C954 H945 0.950 . S
C954 C953 1.398 . S
C954 C955 1.391 . S
C955 H943 0.950 . S
C955 C951 1.393 . S
C955 C954 1.391 . S
C956 H946 0.950 . S
C956 C957 1.386 . S
C956 C958 1.391 . S
C957 C956 1.386 . S
C957 C961 1.393 . S
C958 H947 0.950 1_655 S
C958 C956 1.391 . S
C958 C959 1.400 . S
C959 C953 1.491 1_655 S
C959 C958 1.400 . S
C959 C960 1.398 . S
C960 H948 0.950 . S
C960 C959 1.398 . S
C960 C961 1.391 . S
C961 H949 0.950 . S
C961 C957 1.393 . S
C961 C960 1.391 . S
H962 C970 0.950 . S
H963 C975 0.950 . S
H964 C972 0.950 . S
H965 C974 0.950 . S
H966 C976 0.950 . S
H967 C978 0.950 . S
H968 C980 0.950 . S
H969 C981 0.950 . S
C970 H962 0.950 . S
C970 C971 1.386 . S
C970 C972 1.391 . S
C971 C970 1.386 . S
C971 C975 1.393 . S
C972 H964 0.950 . S
C972 C970 1.391 . S
C972 C973 1.400 . S
C973 C972 1.400 . S
C973 C974 1.398 . S
C973 C979 1.491 . S
C974 H965 0.950 . S
C974 C973 1.398 . S
C974 C975 1.391 . S
C975 H963 0.950 . S
C975 C971 1.393 . S
C975 C974 1.391 . S
C976 H966 0.950 . S
C976 C977 1.386 . S
C976 C978 1.391 . S
C977 C976 1.386 . S
C977 C981 1.393 . S
C978 H967 0.950 . S
C978 C976 1.391 . S
C978 C979 1.400 . S
C979 C973 1.491 . S
C979 C978 1.400 . S
C979 C980 1.398 . S
C980 H968 0.950 . S
C980 C979 1.398 . S
C980 C981 1.391 . S
C981 H969 0.950 . S
C981 C977 1.393 . S
C981 C980 1.391 . S
H982 C990 0.950 . S
H983 C995 0.950 . S
H984 C992 0.950 . S
H985 C994 0.950 . S
H986 C996 0.950 . S
H987 C998 0.950 . S
H988 C1000 0.950 . S
H989 C1001 0.950 . S
C990 H982 0.950 . S
C990 C991 1.386 . S
C990 C992 1.391 . S
C991 C990 1.386 . S
C991 C995 1.393 . S
C992 H984 0.950 . S
C992 C990 1.391 . S
C992 C993 1.400 . S
C993 C992 1.400 . S
C993 C994 1.398 . S
C993 C999 1.491 1_565 S
C994 H985 0.950 . S
C994 C993 1.398 . S
C994 C995 1.391 . S
C995 H983 0.950 . S
C995 C991 1.393 . S
C995 C994 1.391 . S
C996 H986 0.950 . S
C996 C997 1.386 . S
C996 C998 1.391 . S
C997 C996 1.386 . S
C997 C1001 1.393 . S
C998 H987 0.950 . S
C998 C996 1.391 . S
C998 C999 1.400 . S
C999 C993 1.491 1_545 S
C999 C998 1.400 . S
C999 C1000 1.398 . S
C1000 H988 0.950 . S
C1000 C999 1.398 . S
C1000 C1001 1.391 . S
C1001 H989 0.950 . S
C1001 C997 1.393 . S
C1001 C1000 1.391 . S
H1002 C1010 0.950 . S
H1003 C1015 0.950 . S
H1004 C1012 0.950 . S
H1005 C1014 0.950 . S
H1006 C1016 0.950 . S
H1007 C1018 0.950 . S
H1008 C1020 0.950 . S
H1009 C1021 0.950 . S
C1010 H1002 0.950 . S
C1010 C1011 1.386 . S
C1010 C1012 1.391 . S
C1011 C1010 1.386 . S
C1011 C1015 1.393 . S
C1012 H1004 0.950 . S
C1012 C1010 1.391 . S
C1012 C1013 1.400 . S
C1013 C1012 1.400 . S
C1013 C1014 1.398 . S
C1013 C1019 1.491 . S
C1014 H1005 0.950 . S
C1014 C1013 1.398 . S
C1014 C1015 1.391 . S
C1015 H1003 0.950 . S
C1015 C1011 1.393 . S
C1015 C1014 1.391 . S
C1016 H1006 0.950 . S
C1016 C1017 1.386 . S
C1016 C1018 1.391 . S
C1017 C1016 1.386 . S
C1017 C1021 1.393 . S
C1018 H1007 0.950 . S
C1018 C1016 1.391 . S
C1018 C1019 1.400 . S
C1019 C1013 1.491 . S
C1019 C1018 1.400 . S
C1019 C1020 1.398 . S
C1020 H1008 0.950 . S
C1020 C1019 1.398 . S
C1020 C1021 1.391 . S
C1021 H1009 0.950 . S
C1021 C1017 1.393 . S
C1021 C1020 1.391 . S
H1022 C1030 0.950 . S
H1023 C1035 0.950 . S
H1024 C1032 0.950 . S
H1025 C1034 0.950 . S
H1026 C1036 0.950 . S
H1027 C1038 0.950 . S
H1028 C1040 0.950 . S
H1029 C1041 0.950 . S
C1030 H1022 0.950 . S
C1030 C1031 1.386 . S
C1030 C1032 1.391 . S
C1031 C1030 1.386 . S
C1031 C1035 1.393 . S
C1032 H1024 0.950 . S
C1032 C1030 1.391 . S
C1032 C1033 1.400 . S
C1033 C1032 1.400 . S
C1033 C1034 1.398 . S
C1033 C1039 1.491 . S
C1034 H1025 0.950 . S
C1034 C1033 1.398 . S
C1034 C1035 1.391 . S
C1035 H1023 0.950 . S
C1035 C1031 1.393 . S
C1035 C1034 1.391 . S
C1036 H1026 0.950 . S
C1036 C1037 1.386 . S
C1036 C1038 1.391 . S
C1037 C1036 1.386 . S
C1037 C1041 1.393 . S
C1038 H1027 0.950 . S
C1038 C1036 1.391 . S
C1038 C1039 1.400 . S
C1039 C1033 1.491 . S
C1039 C1038 1.400 . S
C1039 C1040 1.398 . S
C1040 H1028 0.950 . S
C1040 C1039 1.398 . S
C1040 C1041 1.391 . S
C1041 H1029 0.950 . S
C1041 C1037 1.393 . S
C1041 C1040 1.391 . S
H1042 C1050 0.950 . S
H1043 C1055 0.950 . S
H1044 C1052 0.950 . S
H1045 C1054 0.950 . S
H1046 C1056 0.950 . S
H1047 C1058 0.950 . S
H1048 C1060 0.950 . S
H1049 C1061 0.950 . S
C1050 H1042 0.950 . S
C1050 C1051 1.386 . S
C1050 C1052 1.391 . S
C1051 C1050 1.386 . S
C1051 C1055 1.393 . S
C1052 H1044 0.950 . S
C1052 C1050 1.391 . S
C1052 C1053 1.400 . S
C1053 C1052 1.400 . S
C1053 C1054 1.398 . S
C1053 C1059 1.491 . S
C1054 H1045 0.950 . S
C1054 C1053 1.398 . S
C1054 C1055 1.391 . S
C1055 H1043 0.950 . S
C1055 C1051 1.393 . S
C1055 C1054 1.391 . S
C1056 H1046 0.950 . S
C1056 C1057 1.386 . S
C1056 C1058 1.391 . S
C1057 C1056 1.386 . S
C1057 C1061 1.393 . S
C1058 H1047 0.950 . S
C1058 C1056 1.391 . S
C1058 C1059 1.400 . S
C1059 C1053 1.491 . S
C1059 C1058 1.400 . S
C1059 C1060 1.398 . S
C1060 H1048 0.950 . S
C1060 C1059 1.398 . S
C1060 C1061 1.391 . S
C1061 H1049 0.950 . S
C1061 C1057 1.393 . S
C1061 C1060 1.391 . S
H1062 C1070 0.950 . S
H1063 C1075 0.950 . S
H1064 C1072 0.958 . S
H1065 C1074 0.950 . S
H1066 C1076 0.950 . S
H1067 C1078 0.950 . S
H1068 C1080 0.950 1_545 S
H1069 C1081 0.950 . S
C1070 H1062 0.950 . S
C1070 C1071 1.386 . S
C1070 C1072 1.391 . S
C1071 C1070 1.386 . S
C1071 C1075 1.393 . S
C1072 H1064 0.958 . S
C1072 C1070 1.391 . S
C1072 C1073 1.400 . S
C1073 C1072 1.400 . S
C1073 C1074 1.398 . S
C1073 C1079 1.491 . S
C1074 H1065 0.950 . S
C1074 C1073 1.398 . S
C1074 C1075 1.391 . S
C1075 H1063 0.950 . S
C1075 C1071 1.393 . S
C1075 C1074 1.391 . S
C1076 H1066 0.950 . S
C1076 C1077 1.386 . S
C1076 C1078 1.391 . S
C1077 C1076 1.386 . S
C1077 C1081 1.393 1_565 S
C1078 H1067 0.950 . S
C1078 C1076 1.391 . S
C1078 C1079 1.400 . S
C1079 C1073 1.491 . S
C1079 C1078 1.400 . S
C1079 C1080 1.398 . S
C1080 H1068 0.950 1_565 S
C1080 C1079 1.398 . S
C1080 C1081 1.391 1_565 S
C1081 H1069 0.950 . S
C1081 C1077 1.393 1_545 S
C1081 C1080 1.391 1_545 S
H1082 C1090 0.950 . S
H1083 C1095 0.950 . S
H1084 C1092 0.950 . S
H1085 C1094 0.950 . S
H1086 C1096 0.950 . S
H1087 C1098 0.950 . S
H1088 C1100 0.950 . S
H1089 C1101 0.950 . S
C1090 H1082 0.950 . S
C1090 C1091 1.386 . S
C1090 C1092 1.391 . S
C1091 C1090 1.386 . S
C1091 C1095 1.393 . S
C1092 H1084 0.950 . S
C1092 C1090 1.391 . S
C1092 C1093 1.400 . S
C1093 C1092 1.400 . S
C1093 C1094 1.398 . S
C1093 C1099 1.491 . S
C1094 H1085 0.950 . S
C1094 C1093 1.398 . S
C1094 C1095 1.391 . S
C1095 H1083 0.950 . S
C1095 C1091 1.393 . S
C1095 C1094 1.391 . S
C1096 H1086 0.950 . S
C1096 C1097 1.386 . S
C1096 C1098 1.391 . S
C1097 C1096 1.386 . S
C1097 C1101 1.393 . S
C1098 H1087 0.950 . S
C1098 C1096 1.391 . S
C1098 C1099 1.400 . S
C1099 C1093 1.491 . S
C1099 C1098 1.400 . S
C1099 C1100 1.398 . S
C1100 H1088 0.950 . S
C1100 C1099 1.398 . S
C1100 C1101 1.391 . S
C1101 H1089 0.950 . S
C1101 C1097 1.393 . S
C1101 C1100 1.391 . S
H1102 C1110 0.950 . S
H1103 C1115 0.950 . S
H1104 C1112 0.950 . S
H1105 C1114 0.950 . S
H1106 C1116 0.950 . S
H1107 C1118 0.950 . S
H1108 C1120 0.950 . S
H1109 C1121 0.950 . S
C1110 H1102 0.950 . S
C1110 C1111 1.386 . S
C1110 C1112 1.391 . S
C1111 C1110 1.386 . S
C1111 C1115 1.393 . S
C1112 H1104 0.950 . S
C1112 C1110 1.391 . S
C1112 C1113 1.400 . S
C1113 C1112 1.400 . S
C1113 C1114 1.398 . S
C1113 C1119 1.491 . S
C1114 H1105 0.950 . S
C1114 C1113 1.398 . S
C1114 C1115 1.391 . S
C1115 H1103 0.950 . S
C1115 C1111 1.393 . S
C1115 C1114 1.391 . S
C1116 H1106 0.950 . S
C1116 C1117 1.386 . S
C1116 C1118 1.391 . S
C1117 C1116 1.386 . S
C1117 C1121 1.393 . S
C1118 H1107 0.950 . S
C1118 C1116 1.391 . S
C1118 C1119 1.400 . S
C1119 C1113 1.491 . S
C1119 C1118 1.400 . S
C1119 C1120 1.398 . S
C1120 H1108 0.950 . S
C1120 C1119 1.398 . S
C1120 C1121 1.391 . S
C1121 H1109 0.950 . S
C1121 C1117 1.393 . S
C1121 C1120 1.391 . S
H1122 C1130 0.950 . S
H1123 C1135 0.950 . S
H1124 C1132 0.950 . S
H1125 C1134 0.950 . S
H1126 C1136 0.950 1_455 S
H1127 C1138 0.950 . S
H1128 C1140 0.950 . S
H1129 C1141 0.950 . S
C1130 H1122 0.950 . S
C1130 C1131 1.386 . S
C1130 C1132 1.391 . S
C1131 C1130 1.386 . S
C1131 C1135 1.393 . S
C1132 H1124 0.950 . S
C1132 C1130 1.391 . S
C1132 C1133 1.400 . S
C1133 C1132 1.400 . S
C1133 C1134 1.398 . S
C1133 C1139 1.491 . S
C1134 H1125 0.950 . S
C1134 C1133 1.398 . S
C1134 C1135 1.391 . S
C1135 H1123 0.950 . S
C1135 C1131 1.393 . S
C1135 C1134 1.391 . S
C1136 H1126 0.950 1_655 S
C1136 C1137 1.386 . S
C1136 C1138 1.391 . S
C1137 C1136 1.386 . S
C1137 C1141 1.393 . S
C1138 H1127 0.950 . S
C1138 C1136 1.391 . S
C1138 C1139 1.400 . S
C1139 C1133 1.491 . S
C1139 C1138 1.400 . S
C1139 C1140 1.398 . S
C1140 H1128 0.950 . S
C1140 C1139 1.398 . S
C1140 C1141 1.391 . S
C1141 H1129 0.950 . S
C1141 C1137 1.393 . S
C1141 C1140 1.391 . S
H1142 C1150 0.950 . S
H1143 C1155 0.950 . S
H1144 C1152 0.950 . S
H1145 C1154 0.950 . S
H1146 C1156 0.950 . S
H1147 C1158 0.950 . S
H1148 C1160 0.950 . S
H1149 C1161 0.950 . S
C1150 H1142 0.950 . S
C1150 C1151 1.386 . S
C1150 C1152 1.391 . S
C1151 C1150 1.386 . S
C1151 C1155 1.393 . S
C1152 H1144 0.950 . S
C1152 C1150 1.391 . S
C1152 C1153 1.400 . S
C1153 C1152 1.400 . S
C1153 C1154 1.398 . S
C1153 C1159 1.491 . S
C1154 H1145 0.950 . S
C1154 C1153 1.398 . S
C1154 C1155 1.391 . S
C1155 H1143 0.950 . S
C1155 C1151 1.393 . S
C1155 C1154 1.391 . S
C1156 H1146 0.950 . S
C1156 C1157 1.386 . S
C1156 C1158 1.391 . S
C1157 C1156 1.386 . S
C1157 C1161 1.393 . S
C1158 H1147 0.950 . S
C1158 C1156 1.391 . S
C1158 C1159 1.400 . S
C1159 C1153 1.491 . S
C1159 C1158 1.400 . S
C1159 C1160 1.398 . S
C1160 H1148 0.950 . S
C1160 C1159 1.398 . S
C1160 C1161 1.391 . S
C1161 H1149 0.950 . S
C1161 C1157 1.393 . S
C1161 C1160 1.391 . S
H1162 C1170 0.950 . S
H1163 C1175 0.950 . S
H1164 C1172 0.950 . S
H1165 C1174 0.950 1_565 S
H1166 C1176 0.950 . S
H1167 C1178 0.950 . S
H1168 C1180 0.950 . S
H1169 C1181 0.950 . S
C1170 H1162 0.950 . S
C1170 C1171 1.386 . S
C1170 C1172 1.391 . S
C1171 C1170 1.386 . S
C1171 C1175 1.393 . S
C1172 H1164 0.950 . S
C1172 C1170 1.391 . S
C1172 C1173 1.400 . S
C1173 C1172 1.400 . S
C1173 C1174 1.398 . S
C1173 C1179 1.491 . S
C1174 H1165 0.950 1_545 S
C1174 C1173 1.398 . S
C1174 C1175 1.391 . S
C1175 H1163 0.950 . S
C1175 C1171 1.393 . S
C1175 C1174 1.391 . S
C1176 H1166 0.950 . S
C1176 C1177 1.386 1_565 S
C1176 C1178 1.391 . S
C1177 C1176 1.386 1_545 S
C1177 C1181 1.393 . S
C1178 H1167 0.950 . S
C1178 C1176 1.391 . S
C1178 C1179 1.400 1_565 S
C1179 C1173 1.491 . S
C1179 C1178 1.400 1_545 S
C1179 C1180 1.398 . S
C1180 H1168 0.950 . S
C1180 C1179 1.398 . S
C1180 C1181 1.391 . S
C1181 H1169 0.950 . S
C1181 C1177 1.393 . S
C1181 C1180 1.391 . S
H1182 C1190 0.950 . S
H1183 C1195 0.950 . S
H1184 C1192 0.950 . S
H1185 C1194 0.950 . S
H1186 C1196 0.950 . S
H1187 C1198 0.950 . S
H1188 C1200 0.950 . S
H1189 C1201 0.950 . S
C1190 H1182 0.950 . S
C1190 C1191 1.386 . S
C1190 C1192 1.391 . S
C1191 C1190 1.386 . S
C1191 C1195 1.393 . S
C1192 H1184 0.950 . S
C1192 C1190 1.391 . S
C1192 C1193 1.400 . S
C1193 C1192 1.400 . S
C1193 C1194 1.398 . S
C1193 C1199 1.491 . S
C1194 H1185 0.950 . S
C1194 C1193 1.398 . S
C1194 C1195 1.391 . S
C1195 H1183 0.950 . S
C1195 C1191 1.393 . S
C1195 C1194 1.391 . S
C1196 H1186 0.950 . S
C1196 C1197 1.386 . S
C1196 C1198 1.391 . S
C1197 C1196 1.386 . S
C1197 C1201 1.393 . S
C1198 H1187 0.950 . S
C1198 C1196 1.391 . S
C1198 C1199 1.400 . S
C1199 C1193 1.491 . S
C1199 C1198 1.400 . S
C1199 C1200 1.398 . S
C1200 H1188 0.950 . S
C1200 C1199 1.398 . S
C1200 C1201 1.391 . S
C1201 H1189 0.950 . S
C1201 C1197 1.393 . S
C1201 C1200 1.391 . S
H1202 C1210 0.950 . S
H1203 C1215 0.950 . S
H1204 C1212 0.950 . S
H1205 C1214 0.950 . S
H1206 C1216 0.950 . S
H1207 C1218 0.950 . S
H1208 C1220 0.950 . S
H1209 C1221 0.950 . S
C1210 H1202 0.950 . S
C1210 C1211 1.386 . S
C1210 C1212 1.391 . S
C1211 C1210 1.386 . S
C1211 C1215 1.393 . S
C1212 H1204 0.950 . S
C1212 C1210 1.391 . S
C1212 C1213 1.400 . S
C1213 C1212 1.400 . S
C1213 C1214 1.398 . S
C1213 C1219 1.491 . S
C1214 H1205 0.950 . S
C1214 C1213 1.398 . S
C1214 C1215 1.391 . S
C1215 H1203 0.950 . S
C1215 C1211 1.393 . S
C1215 C1214 1.391 . S
C1216 H1206 0.950 . S
C1216 C1217 1.386 . S
C1216 C1218 1.391 . S
C1217 C1216 1.386 . S
C1217 C1221 1.393 . S
C1218 H1207 0.950 . S
C1218 C1216 1.391 . S
C1218 C1219 1.400 . S
C1219 C1213 1.491 . S
C1219 C1218 1.400 . S
C1219 C1220 1.398 . S
C1220 H1208 0.950 . S
C1220 C1219 1.398 . S
C1220 C1221 1.391 . S
C1221 H1209 0.950 . S
C1221 C1217 1.393 . S
C1221 C1220 1.391 . S
H1222 C1230 0.950 . S
H1223 C1235 0.950 . S
H1224 C1232 0.950 . S
H1225 C1234 0.950 . S
H1226 C1236 0.950 . S
H1227 C1238 0.950 . S
H1228 C1240 0.950 . S
H1229 C1241 0.950 . S
C1230 H1222 0.950 . S
C1230 C1231 1.386 . S
C1230 C1232 1.391 . S
C1231 C1230 1.386 . S
C1231 C1235 1.393 . S
C1232 H1224 0.950 . S
C1232 C1230 1.391 . S
C1232 C1233 1.400 . S
C1233 C1232 1.400 . S
C1233 C1234 1.398 . S
C1233 C1239 1.491 . S
C1234 H1225 0.950 . S
C1234 C1233 1.398 . S
C1234 C1235 1.391 . S
C1235 H1223 0.950 . S
C1235 C1231 1.393 . S
C1235 C1234 1.391 . S
C1236 H1226 0.950 . S
C1236 C1237 1.386 . S
C1236 C1238 1.391 . S
C1237 C1236 1.386 . S
C1237 C1241 1.393 . S
C1238 H1227 0.950 . S
C1238 C1236 1.391 . S
C1238 C1239 1.400 . S
C1239 C1233 1.491 . S
C1239 C1238 1.400 . S
C1239 C1240 1.398 . S
C1240 H1228 0.950 . S
C1240 C1239 1.398 . S
C1240 C1241 1.391 . S
C1241 H1229 0.950 . S
C1241 C1237 1.393 . S
C1241 C1240 1.391 . S
H1242 C1250 0.950 . S
H1243 C1255 0.950 . S
H1244 C1252 0.950 . S
H1245 C1254 0.950 . S
H1246 C1256 0.950 . S
H1247 C1258 0.950 . S
H1248 C1260 0.950 . S
H1249 C1261 0.950 . S
C1250 H1242 0.950 . S
C1250 C1251 1.386 . S
C1250 C1252 1.391 . S
C1251 C1250 1.386 . S
C1251 C1255 1.393 . S
C1252 H1244 0.950 . S
C1252 C1250 1.391 . S
C1252 C1253 1.400 . S
C1253 C1252 1.400 . S
C1253 C1254 1.398 . S
C1253 C1259 1.491 . S
C1254 H1245 0.950 . S
C1254 C1253 1.398 . S
C1254 C1255 1.391 . S
C1255 H1243 0.950 . S
C1255 C1251 1.393 . S
C1255 C1254 1.391 . S
C1256 H1246 0.950 . S
C1256 C1257 1.386 . S
C1256 C1258 1.391 . S
C1257 C1256 1.386 . S
C1257 C1261 1.393 . S
C1258 H1247 0.950 . S
C1258 C1256 1.391 . S
C1258 C1259 1.400 . S
C1259 C1253 1.491 . S
C1259 C1258 1.400 . S
C1259 C1260 1.398 . S
C1260 H1248 0.950 . S
C1260 C1259 1.398 . S
C1260 C1261 1.391 . S
C1261 H1249 0.950 . S
C1261 C1257 1.393 . S
C1261 C1260 1.391 . S
H1262 C1270 0.950 . S
H1263 C1275 0.950 . S
H1264 C1272 0.950 . S
H1265 C1274 0.950 . S
H1266 C1276 0.950 . S
H1267 C1278 0.950 . S
H1268 C1280 0.950 . S
H1269 C1281 0.950 . S
C1270 H1262 0.950 . S
C1270 C1271 1.386 . S
C1270 C1272 1.391 . S
C1271 C1270 1.386 . S
C1271 C1275 1.393 . S
C1272 H1264 0.950 . S
C1272 C1270 1.391 . S
C1272 C1273 1.400 . S
C1273 C1272 1.400 . S
C1273 C1274 1.398 . S
C1273 C1279 1.491 . S
C1274 H1265 0.950 . S
C1274 C1273 1.398 . S
C1274 C1275 1.391 . S
C1275 H1263 0.950 . S
C1275 C1271 1.393 . S
C1275 C1274 1.391 . S
C1276 H1266 0.950 . S
C1276 C1277 1.386 . S
C1276 C1278 1.391 . S
C1277 C1276 1.386 . S
C1277 C1281 1.393 . S
C1278 H1267 0.950 . S
C1278 C1276 1.391 . S
C1278 C1279 1.400 . S
C1279 C1273 1.491 . S
C1279 C1278 1.400 . S
C1279 C1280 1.398 . S
C1280 H1268 0.950 . S
C1280 C1279 1.398 . S
C1280 C1281 1.391 . S
C1281 H1269 0.950 . S
C1281 C1277 1.393 . S
C1281 C1280 1.391 . S
H1282 C1290 0.950 . S
H1283 C1295 0.950 . S
H1284 C1292 0.950 . S
H1285 C1294 0.950 . S
H1286 C1296 0.950 . S
H1287 C1298 0.950 . S
H1288 C1300 0.950 . S
H1289 C1301 0.950 . S
C1290 H1282 0.950 . S
C1290 C1291 1.386 . S
C1290 C1292 1.391 . S
C1291 C1290 1.386 . S
C1291 C1295 1.393 . S
C1292 H1284 0.950 . S
C1292 C1290 1.391 . S
C1292 C1293 1.400 . S
C1293 C1292 1.400 . S
C1293 C1294 1.398 . S
C1293 C1299 1.491 . S
C1294 H1285 0.950 . S
C1294 C1293 1.398 . S
C1294 C1295 1.391 . S
C1295 H1283 0.950 . S
C1295 C1291 1.393 . S
C1295 C1294 1.391 . S
C1296 H1286 0.950 . S
C1296 C1297 1.386 . S
C1296 C1298 1.391 . S
C1297 C1296 1.386 . S
C1297 C1301 1.393 . S
C1298 H1287 0.950 . S
C1298 C1296 1.391 . S
C1298 C1299 1.400 . S
C1299 C1293 1.491 . S
C1299 C1298 1.400 . S
C1299 C1300 1.398 . S
C1300 H1288 0.950 . S
C1300 C1299 1.398 . S
C1300 C1301 1.391 . S
C1301 H1289 0.950 . S
C1301 C1297 1.393 . S
C1301 C1300 1.391 . S
H1302 C1310 0.950 . S
H1303 C1315 0.950 . S
H1304 C1312 0.950 . S
H1305 C1314 0.950 . S
H1306 C1316 0.950 . S
H1307 C1318 0.950 . S
H1308 C1320 0.950 . S
H1309 C1321 0.950 . S
C1310 H1302 0.950 . S
C1310 C1311 1.386 . S
C1310 C1312 1.391 . S
C1311 C1310 1.386 . S
C1311 C1315 1.393 . S
C1312 H1304 0.950 . S
C1312 C1310 1.391 . S
C1312 C1313 1.400 . S
C1313 C1312 1.400 . S
C1313 C1314 1.398 . S
C1313 C1319 1.491 . S
C1314 H1305 0.950 . S
C1314 C1313 1.398 . S
C1314 C1315 1.391 . S
C1315 H1303 0.950 . S
C1315 C1311 1.393 . S
C1315 C1314 1.391 . S
C1316 H1306 0.950 . S
C1316 C1317 1.386 . S
C1316 C1318 1.391 . S
C1317 C1316 1.386 . S
C1317 C1321 1.393 . S
C1318 H1307 0.950 . S
C1318 C1316 1.391 . S
C1318 C1319 1.400 . S
C1319 C1313 1.491 . S
C1319 C1318 1.400 . S
C1319 C1320 1.398 . S
C1320 H1308 0.950 . S
C1320 C1319 1.398 . S
C1320 C1321 1.391 . S
C1321 H1309 0.950 . S
C1321 C1317 1.393 . S
C1321 C1320 1.391 . S
H1322 C1330 0.950 . S
H1323 C1335 0.950 . S
H1324 C1332 0.950 . S
H1325 C1334 0.950 . S
H1326 C1336 0.950 . S
H1327 C1338 0.950 . S
H1328 C1340 0.950 . S
H1329 C1341 0.950 . S
C1330 H1322 0.950 . S
C1330 C1331 1.386 . S
C1330 C1332 1.391 . S
C1331 C1330 1.386 . S
C1331 C1335 1.393 . S
C1332 H1324 0.950 . S
C1332 C1330 1.391 . S
C1332 C1333 1.400 . S
C1333 C1332 1.400 . S
C1333 C1334 1.398 . S
C1333 C1339 1.491 . S
C1334 H1325 0.950 . S
C1334 C1333 1.398 . S
C1334 C1335 1.391 . S
C1335 H1323 0.950 . S
C1335 C1331 1.393 . S
C1335 C1334 1.391 . S
C1336 H1326 0.950 . S
C1336 C1337 1.386 . S
C1336 C1338 1.391 . S
C1337 C1336 1.386 . S
C1337 C1341 1.393 . S
C1338 H1327 0.950 . S
C1338 C1336 1.391 . S
C1338 C1339 1.400 . S
C1339 C1333 1.491 . S
C1339 C1338 1.400 . S
C1339 C1340 1.398 . S
C1340 H1328 0.950 . S
C1340 C1339 1.398 . S
C1340 C1341 1.391 . S
C1341 H1329 0.950 . S
C1341 C1337 1.393 . S
C1341 C1340 1.391 . S
H1342 C1350 0.950 . S
H1343 C1355 0.950 . S
H1344 C1352 0.950 . S
H1345 C1354 0.950 . S
H1346 C1356 0.950 . S
H1347 C1358 0.950 . S
H1348 C1360 0.950 . S
H1349 C1361 0.950 . S
C1350 H1342 0.950 . S
C1350 C1351 1.386 . S
C1350 C1352 1.391 . S
C1351 C1350 1.386 . S
C1351 C1355 1.393 . S
C1352 H1344 0.950 . S
C1352 C1350 1.391 . S
C1352 C1353 1.400 . S
C1353 C1352 1.400 . S
C1353 C1354 1.398 . S
C1353 C1359 1.491 . S
C1354 H1345 0.950 . S
C1354 C1353 1.398 . S
C1354 C1355 1.391 . S
C1355 H1343 0.950 . S
C1355 C1351 1.393 . S
C1355 C1354 1.391 . S
C1356 H1346 0.950 . S
C1356 C1357 1.386 . S
C1356 C1358 1.391 . S
C1357 C1356 1.386 . S
C1357 C1361 1.393 . S
C1358 H1347 0.950 . S
C1358 C1356 1.391 . S
C1358 C1359 1.400 . S
C1359 C1353 1.491 . S
C1359 C1358 1.400 . S
C1359 C1360 1.398 . S
C1360 H1348 0.950 . S
C1360 C1359 1.398 . S
C1360 C1361 1.391 . S
C1361 H1349 0.950 . S
C1361 C1357 1.393 . S
C1361 C1360 1.391 . S
H1362 C1370 0.950 . S
H1363 C1375 0.950 . S
H1364 C1372 0.950 . S
H1365 C1374 0.950 . S
H1366 C1376 0.950 . S
H1367 C1378 0.950 . S
H1368 C1380 0.950 . S
H1369 C1381 0.950 . S
C1370 H1362 0.950 . S
C1370 C1371 1.386 . S
C1370 C1372 1.391 . S
C1371 C1370 1.386 . S
C1371 C1375 1.393 . S
C1372 H1364 0.950 . S
C1372 C1370 1.391 . S
C1372 C1373 1.400 . S
C1373 C1372 1.400 . S
C1373 C1374 1.398 . S
C1373 C1379 1.491 . S
C1374 H1365 0.950 . S
C1374 C1373 1.398 . S
C1374 C1375 1.391 . S
C1375 H1363 0.950 . S
C1375 C1371 1.393 . S
C1375 C1374 1.391 . S
C1376 H1366 0.950 . S
C1376 C1377 1.386 . S
C1376 C1378 1.391 . S
C1377 C1376 1.386 . S
C1377 C1381 1.393 . S
C1378 H1367 0.950 . S
C1378 C1376 1.391 . S
C1378 C1379 1.400 . S
C1379 C1373 1.491 . S
C1379 C1378 1.400 . S
C1379 C1380 1.398 . S
C1380 H1368 0.950 . S
C1380 C1379 1.398 . S
C1380 C1381 1.391 . S
C1381 H1369 0.950 . S
C1381 C1377 1.393 . S
C1381 C1380 1.391 . S
H1382 C1390 0.950 . S
H1383 C1395 0.950 . S
H1384 C1392 0.950 . S
H1385 C1394 0.950 . S
H1386 C1396 0.950 . S
H1387 C1398 0.950 . S
H1388 C1400 0.950 . S
H1389 C1401 0.950 . S
C1390 H1382 0.950 . S
C1390 C1391 1.386 . S
C1390 C1392 1.391 . S
C1391 C1390 1.386 . S
C1391 C1395 1.393 . S
C1392 H1384 0.950 . S
C1392 C1390 1.391 . S
C1392 C1393 1.400 . S
C1393 C1392 1.400 . S
C1393 C1394 1.398 . S
C1393 C1399 1.491 . S
C1394 H1385 0.950 . S
C1394 C1393 1.398 . S
C1394 C1395 1.391 . S
C1395 H1383 0.950 . S
C1395 C1391 1.393 . S
C1395 C1394 1.391 . S
C1396 H1386 0.950 . S
C1396 C1397 1.386 . S
C1396 C1398 1.391 . S
C1397 C1396 1.386 . S
C1397 C1401 1.393 . S
C1398 H1387 0.950 . S
C1398 C1396 1.391 . S
C1398 C1399 1.400 . S
C1399 C1393 1.491 . S
C1399 C1398 1.400 . S
C1399 C1400 1.398 . S
C1400 H1388 0.950 . S
C1400 C1399 1.398 . S
C1400 C1401 1.391 . S
C1401 H1389 0.950 . S
C1401 C1397 1.393 . S
C1401 C1400 1.391 . S
H1402 C1410 0.950 . S
H1403 C1415 0.950 . S
H1404 C1412 0.950 . S
H1405 C1414 0.950 . S
H1406 C1416 0.950 . S
H1407 C1418 0.950 . S
H1408 C1420 0.950 . S
H1409 C1421 0.950 . S
C1410 H1402 0.950 . S
C1410 C1411 1.386 . S
C1410 C1412 1.391 . S
C1411 C1410 1.386 . S
C1411 C1415 1.393 . S
C1412 H1404 0.950 . S
C1412 C1410 1.391 . S
C1412 C1413 1.400 . S
C1413 C1412 1.400 . S
C1413 C1414 1.398 . S
C1413 C1419 1.491 . S
C1414 H1405 0.950 . S
C1414 C1413 1.398 . S
C1414 C1415 1.391 . S
C1415 H1403 0.950 . S
C1415 C1411 1.393 . S
C1415 C1414 1.391 . S
C1416 H1406 0.950 . S
C1416 C1417 1.386 . S
C1416 C1418 1.391 . S
C1417 C1416 1.386 . S
C1417 C1421 1.393 . S
C1418 H1407 0.950 . S
C1418 C1416 1.391 . S
C1418 C1419 1.400 . S
C1419 C1413 1.491 . S
C1419 C1418 1.400 . S
C1419 C1420 1.398 . S
C1420 H1408 0.950 . S
C1420 C1419 1.398 . S
C1420 C1421 1.391 . S
C1421 H1409 0.950 . S
C1421 C1417 1.393 . S
C1421 C1420 1.391 . S
C351 C124 1.513 . S
C357 C168 1.489 . S
C371 C130 1.493 . S
C377 C188 1.461 . S
C391 C115 1.504 . S
C397 C211 1.501 . S
C411 C106 1.441 . S
C417 C191 1.437 . S
C437 C208 1.436 . S
C431 C85 1.451 . S
C451 C97 1.447 . S
C457 C171 1.441 . S
C477 C178 1.513 . S
C471 C103 1.537 . S
C497 C198 1.462 . S
C491 C88 1.480 . S
C511 C94 1.502 . S
C517 C203 1.498 . S
C531 C121 1.443 . S
C537 C183 1.438 . S
C551 C133 1.429 . S
C557 C218 1.422 . S
C577 C163 1.472 . S
C571 C112 1.475 . S
C597 C228 1.505 . S
C591 C16 1.517 . S
C611 C22 1.490 . S
C617 C248 1.468 . S
C631 C7 1.495 . S
C637 C271 1.491 . S
C651 C160 1.439 . S
C657 C251 1.435 . S
C671 C139 1.450 . S
C677 C268 1.428 . S
C691 C151 1.452 . S
C697 C231 1.448 . S
C711 C157 1.538 . S
C717 C238 1.519 . S
C731 C142 1.474 . S
C737 C258 1.454 . S
C757 C263 1.495 . S
C751 C148 1.500 . S
C771 C13 1.441 . S
C777 C243 1.435 . S
C797 C278 1.422 . S
C791 C25 1.430 . S
C811 C4 1.473 . S
C817 C223 1.470 . S
C837 C288 1.496 . S
C831 C70 1.519 . S
C851 C76 1.492 . S
C857 C308 1.472 . S
C877 C331 1.503 . S
C871 C61 1.504 . S
C897 C311 1.443 . S
C891 C52 1.445 . S
C917 C328 1.436 . S
C911 C31 1.451 . S
C931 C43 1.447 . S
C937 C291 1.442 . S
C951 C49 1.538 . S
C957 C298 1.516 . S
C971 C34 1.472 . S
C977 C318 1.448 . S
C997 C323 1.496 . S
C991 C40 1.500 . S
C1011 C67 1.442 . S
C1017 C303 1.440 . S
C1031 C79 1.425 . S
C1037 C338 1.410 . S
C1051 C58 1.473 . S
C1057 C283 1.471 . S
C1071 C140 1.312 . S
C1077 C181 1.295 1_565 S
C1097 C201 1.533 . S
C1091 C149 1.592 . S
C1111 C158 1.483 . S
C1117 C210 1.434 . S
C1131 C59 1.612 . S
C1137 C190 1.557 . S
C1151 C68 1.465 . S
C1157 C221 1.435 . S
C1177 C170 1.290 1_545 S
C1171 C77 1.309 . S
C1191 C32 1.315 . S
C1197 C241 1.294 . S
C1211 C41 1.599 . S
C1217 C261 1.547 . S
C1231 C50 1.481 . S
C1237 C270 1.449 . S
C1251 C113 1.618 . S
C1257 C250 1.557 . S
C1277 C281 1.436 . S
C1271 C122 1.465 . S
C1291 C131 1.313 . S
C1297 C230 1.293 . S
C1311 C86 1.309 . S
C1317 C301 1.288 . S
C1331 C95 1.593 . S
C1337 C321 1.542 . S
C1357 C330 1.451 . S
C1351 C104 1.488 . S
C1371 C5 1.618 . S
C1377 C310 1.559 . S
C1391 C14 1.460 . S
C1397 C341 1.425 . S
C1411 C23 1.311 . S
C1417 C290 1.293 . S
