# Generated by pormake.
# Topology ctn, (3,4)-cn, num edge types: 1
# Building blocks:
#     Node 0, Type 0, BuildingBlock: PAMTOO_clean_linker_0, # of connection points: 3
#     Node 1, Type 0, BuildingBlock: PAMTOO_clean_linker_0, # of connection points: 3
#     Node 2, Type 0, BuildingBlock: PAMTOO_clean_linker_0, # of connection points: 3
#     Node 3, Type 0, BuildingBlock: PAMTOO_clean_linker_0, # of connection points: 3
#     Node 4, Type 0, BuildingBlock: PAMTOO_clean_linker_0, # of connection points: 3
#     Node 5, Type 0, BuildingBlock: PAMTOO_clean_linker_0, # of connection points: 3
#     Node 6, Type 0, BuildingBlock: PAMTOO_clean_linker_0, # of connection points: 3
#     Node 7, Type 0, BuildingBlock: PAMTOO_clean_linker_0, # of connection points: 3
#     Node 8, Type 0, BuildingBlock: PAMTOO_clean_linker_0, # of connection points: 3
#     Node 9, Type 0, BuildingBlock: PAMTOO_clean_linker_0, # of connection points: 3
#     Node 10, Type 0, BuildingBlock: PAMTOO_clean_linker_0, # of connection points: 3
#     Node 11, Type 0, BuildingBlock: PAMTOO_clean_linker_0, # of connection points: 3
#     Node 12, Type 0, BuildingBlock: PAMTOO_clean_linker_0, # of connection points: 3
#     Node 13, Type 0, BuildingBlock: PAMTOO_clean_linker_0, # of connection points: 3
#     Node 14, Type 0, BuildingBlock: PAMTOO_clean_linker_0, # of connection points: 3
#     Node 15, Type 0, BuildingBlock: PAMTOO_clean_linker_0, # of connection points: 3
#     Node 16, Type 1, BuildingBlock: TATPOV_clean_sbu_0, # of connection points: 4
#     Node 17, Type 1, BuildingBlock: TATPOV_clean_sbu_0, # of connection points: 4
#     Node 18, Type 1, BuildingBlock: TATPOV_clean_sbu_0, # of connection points: 4
#     Node 19, Type 1, BuildingBlock: TATPOV_clean_sbu_0, # of connection points: 4
#     Node 20, Type 1, BuildingBlock: TATPOV_clean_sbu_0, # of connection points: 4
#     Node 21, Type 1, BuildingBlock: TATPOV_clean_sbu_0, # of connection points: 4
#     Node 22, Type 1, BuildingBlock: TATPOV_clean_sbu_0, # of connection points: 4
#     Node 23, Type 1, BuildingBlock: TATPOV_clean_sbu_0, # of connection points: 4
#     Node 24, Type 1, BuildingBlock: TATPOV_clean_sbu_0, # of connection points: 4
#     Node 25, Type 1, BuildingBlock: TATPOV_clean_sbu_0, # of connection points: 4
#     Node 26, Type 1, BuildingBlock: TATPOV_clean_sbu_0, # of connection points: 4
#     Node 27, Type 1, BuildingBlock: TATPOV_clean_sbu_0, # of connection points: 4
#     Edge 28, Type (0, 1), BuildingBlock: OJICUG_clean_linker_0, # of connection points: 2
#     Edge 29, Type (0, 1), BuildingBlock: OJICUG_clean_linker_0, # of connection points: 2
#     Edge 30, Type (0, 1), BuildingBlock: OJICUG_clean_linker_0, # of connection points: 2
#     Edge 31, Type (0, 1), BuildingBlock: OJICUG_clean_linker_0, # of connection points: 2
#     Edge 32, Type (0, 1), BuildingBlock: OJICUG_clean_linker_0, # of connection points: 2
#     Edge 33, Type (0, 1), BuildingBlock: OJICUG_clean_linker_0, # of connection points: 2
#     Edge 34, Type (0, 1), BuildingBlock: OJICUG_clean_linker_0, # of connection points: 2
#     Edge 35, Type (0, 1), BuildingBlock: OJICUG_clean_linker_0, # of connection points: 2
#     Edge 36, Type (0, 1), BuildingBlock: OJICUG_clean_linker_0, # of connection points: 2
#     Edge 37, Type (0, 1), BuildingBlock: OJICUG_clean_linker_0, # of connection points: 2
#     Edge 38, Type (0, 1), BuildingBlock: OJICUG_clean_linker_0, # of connection points: 2
#     Edge 39, Type (0, 1), BuildingBlock: OJICUG_clean_linker_0, # of connection points: 2
#     Edge 40, Type (0, 1), BuildingBlock: OJICUG_clean_linker_0, # of connection points: 2
#     Edge 41, Type (0, 1), BuildingBlock: OJICUG_clean_linker_0, # of connection points: 2
#     Edge 42, Type (0, 1), BuildingBlock: OJICUG_clean_linker_0, # of connection points: 2
#     Edge 43, Type (0, 1), BuildingBlock: OJICUG_clean_linker_0, # of connection points: 2
#     Edge 44, Type (0, 1), BuildingBlock: OJICUG_clean_linker_0, # of connection points: 2
#     Edge 45, Type (0, 1), BuildingBlock: OJICUG_clean_linker_0, # of connection points: 2
#     Edge 46, Type (0, 1), BuildingBlock: OJICUG_clean_linker_0, # of connection points: 2
#     Edge 47, Type (0, 1), BuildingBlock: OJICUG_clean_linker_0, # of connection points: 2
#     Edge 48, Type (0, 1), BuildingBlock: OJICUG_clean_linker_0, # of connection points: 2
#     Edge 49, Type (0, 1), BuildingBlock: OJICUG_clean_linker_0, # of connection points: 2
#     Edge 50, Type (0, 1), BuildingBlock: OJICUG_clean_linker_0, # of connection points: 2
#     Edge 51, Type (0, 1), BuildingBlock: OJICUG_clean_linker_0, # of connection points: 2
#     Edge 52, Type (0, 1), BuildingBlock: OJICUG_clean_linker_0, # of connection points: 2
#     Edge 53, Type (0, 1), BuildingBlock: OJICUG_clean_linker_0, # of connection points: 2
#     Edge 54, Type (0, 1), BuildingBlock: OJICUG_clean_linker_0, # of connection points: 2
#     Edge 55, Type (0, 1), BuildingBlock: OJICUG_clean_linker_0, # of connection points: 2
#     Edge 56, Type (0, 1), BuildingBlock: OJICUG_clean_linker_0, # of connection points: 2
#     Edge 57, Type (0, 1), BuildingBlock: OJICUG_clean_linker_0, # of connection points: 2
#     Edge 58, Type (0, 1), BuildingBlock: OJICUG_clean_linker_0, # of connection points: 2
#     Edge 59, Type (0, 1), BuildingBlock: OJICUG_clean_linker_0, # of connection points: 2
#     Edge 60, Type (0, 1), BuildingBlock: OJICUG_clean_linker_0, # of connection points: 2
#     Edge 61, Type (0, 1), BuildingBlock: OJICUG_clean_linker_0, # of connection points: 2
#     Edge 62, Type (0, 1), BuildingBlock: OJICUG_clean_linker_0, # of connection points: 2
#     Edge 63, Type (0, 1), BuildingBlock: OJICUG_clean_linker_0, # of connection points: 2
#     Edge 64, Type (0, 1), BuildingBlock: OJICUG_clean_linker_0, # of connection points: 2
#     Edge 65, Type (0, 1), BuildingBlock: OJICUG_clean_linker_0, # of connection points: 2
#     Edge 66, Type (0, 1), BuildingBlock: OJICUG_clean_linker_0, # of connection points: 2
#     Edge 67, Type (0, 1), BuildingBlock: OJICUG_clean_linker_0, # of connection points: 2
#     Edge 68, Type (0, 1), BuildingBlock: OJICUG_clean_linker_0, # of connection points: 2
#     Edge 69, Type (0, 1), BuildingBlock: OJICUG_clean_linker_0, # of connection points: 2
#     Edge 70, Type (0, 1), BuildingBlock: OJICUG_clean_linker_0, # of connection points: 2
#     Edge 71, Type (0, 1), BuildingBlock: OJICUG_clean_linker_0, # of connection points: 2
#     Edge 72, Type (0, 1), BuildingBlock: OJICUG_clean_linker_0, # of connection points: 2
#     Edge 73, Type (0, 1), BuildingBlock: OJICUG_clean_linker_0, # of connection points: 2
#     Edge 74, Type (0, 1), BuildingBlock: OJICUG_clean_linker_0, # of connection points: 2
#     Edge 75, Type (0, 1), BuildingBlock: OJICUG_clean_linker_0, # of connection points: 2
# Relax obj value: 0.073
# Max RMSD: 0.180
# Mean RMSD: 0.115
data_MOF--net-ctn--node1-TATPOV_clean_sbu_0--node2-PAMTOO_clean_linker_0--edge1-OJICUG_clean_linker_0
_symmetry_space_group_name_H-M    P1
_symmetry_Int_Tables_number       1
_symmetry_cell_setting            triclinic
loop_
_symmetry_equiv_pos_as_xyz
'x, y, z'
_cell_length_a     38.338564
_cell_length_b     38.594457
_cell_length_c     39.282824
_cell_angle_alpha  86.086912
_cell_angle_beta   93.871815
_cell_angle_gamma 98.630269
loop_
_atom_site_label
_atom_site_type_symbol
_atom_site_fract_x
_atom_site_fract_y
_atom_site_fract_z
_atom_type_partial_charge
H0 H 0.99549 0.10073 0.05193 0.0
H1 H 0.04579 0.01322 0.09349 0.0
H2 H 0.0733 0.06233 0.99595 0.0
H3 H 0.06361 0.98421 1.00204 0.0
C4 C 0.07745 0.98091 0.02764 0.0
O5 O 0.08557 0.01304 0.04194 0.0
H6 H 0.05951 0.96281 0.04417 0.0
C7 C 0.01418 0.08261 0.04987 0.0
C8 C 0.03373 0.08484 0.02051 0.0
C9 C 0.01809 0.05681 0.07639 0.0
C10 C 0.04178 0.03287 0.07313 0.0
C11 C 0.06138 0.03484 0.04403 0.0
C12 C 0.05731 0.06067 0.01788 0.0
H13 H 0.30251 0.67169 0.30167 0.0
H14 H 0.23399 0.67764 0.21047 0.0
H15 H 0.33024 0.74911 0.21973 0.0
H16 H 0.26594 0.77859 0.19627 0.0
C17 C 0.25595 0.75931 0.17678 0.0
O18 O 0.2736 0.73051 0.1811 0.0
H19 H 0.22731 0.75043 0.17991 0.0
C20 C 0.29691 0.68351 0.27645 0.0
C21 C 0.32043 0.71207 0.26332 0.0
C22 C 0.26554 0.67085 0.25768 0.0
C23 C 0.25777 0.68717 0.22556 0.0
C24 C 0.281 0.71541 0.21225 0.0
C25 C 0.3123 0.72758 0.23085 0.0
H26 H 0.99914 0.50787 0.153 0.0
H27 H 0.98069 0.46919 0.05191 0.0
H28 H 0.03574 0.4122 0.12999 0.0
H29 H 0.06409 0.40651 0.06494 0.0
C30 C 0.04319 0.41723 0.0482 0.0
O31 O 0.01283 0.4146 0.06579 0.0
H32 H 0.05327 0.44525 0.04121 0.0
C33 C 1.00151 0.48833 0.13508 0.0
C34 C 0.01898 0.4595 0.14578 0.0
C35 C 0.98751 0.49223 0.10123 0.0
C36 C 0.99134 0.46692 0.0781 0.0
C37 C 0.00861 0.43821 0.08854 0.0
C38 C 0.02195 0.43429 0.12237 0.0
H39 H 0.7206 0.84498 0.28997 0.0
H40 H 0.68987 0.74475 0.24667 0.0
H41 H 0.79218 0.80338 0.22918 0.0
H42 H 0.75169 0.77415 0.1693 0.0
C43 C 0.73992 0.74825 0.18089 0.0
O44 O 0.74868 0.74632 0.21556 0.0
H45 H 0.71071 0.74617 0.17653 0.0
C46 C 0.72675 0.82424 0.27512 0.0
C47 C 0.75971 0.82777 0.2607 0.0
C48 C 0.70135 0.79452 0.27034 0.0
C49 C 0.70929 0.76772 0.25097 0.0
C50 C 0.74188 0.77122 0.2358 0.0
C51 C 0.76704 0.8011 0.2408 0.0
H52 H 0.10324 0.97781 0.51697 0.0
H53 H 0.05716 0.90762 0.44043 0.0
H54 H 0.135 0.99417 0.41288 0.0
H55 H 0.0477 0.9087 0.3796 0.0
C56 C 0.06498 0.93197 0.36871 0.0
O57 O 0.09435 0.94027 0.39069 0.0
H58 H 0.07423 0.92326 0.34492 0.0
C59 C 0.10108 0.97048 0.4907 0.0
C60 C 0.12292 0.98978 0.46646 0.0
C61 C 0.07668 0.9413 0.4813 0.0
C62 C 0.0744 0.93124 0.44748 0.0
C63 C 0.09419 0.95146 0.42261 0.0
C64 C 0.11808 0.98069 0.43207 0.0
H65 H 0.17801 0.80344 0.78749 0.0
H66 H 0.18469 0.71965 0.72216 0.0
H67 H 0.25371 0.73202 0.81204 0.0
H68 H 0.28475 0.72031 0.74721 0.0
C69 C 0.26545 0.69682 0.7407 0.0
O70 O 0.23563 0.69481 0.75913 0.0
H71 H 0.25753 0.69921 0.71298 0.0
C72 C 0.19011 0.78112 0.78158 0.0
C73 C 0.21777 0.7706 0.8034 0.0
C74 C 0.1776 0.7628 0.75234 0.0
C75 C 0.19365 0.734 0.74465 0.0
C76 C 0.2213 0.72338 0.76598 0.0
C77 C 0.23301 0.74136 0.79535 0.0
H78 H 0.89716 0.57765 0.52986 0.0
H79 H 0.96382 0.51068 0.49062 0.0
H80 H 0.01021 0.60732 0.53213 0.0
H81 H 0.05654 0.59227 0.48041 0.0
C82 C 0.03761 0.56898 0.47279 0.0
O83 O 0.02237 0.55291 0.50181 0.0
H84 H 0.0174 0.57839 0.4541 0.0
C85 C 0.92306 0.57207 0.52458 0.0
C86 C 0.95321 0.59603 0.53349 0.0
C87 C 0.9263 0.54098 0.509 0.0
C88 C 0.96025 0.53455 0.50202 0.0
C89 C 0.99017 0.55852 0.51026 0.0
C90 C 0.98671 0.58882 0.52636 0.0
H91 H 0.78293 0.8219 0.91646 0.0
H92 H 0.86441 0.78743 0.86168 0.0
H93 H 0.80057 0.85934 0.81227 0.0
H94 H 0.8113 0.79978 0.77435 0.0
C95 C 0.8394 0.79813 0.78258 0.0
O96 O 0.85149 0.82329 0.80556 0.0
H97 H 0.84063 0.7715 0.79498 0.0
C98 C 0.7976 0.82242 0.89378 0.0
C99 C 0.78847 0.84333 0.86462 0.0
C100 C 0.82548 0.80228 0.89355 0.0
C101 C 0.84404 0.80371 0.86361 0.0
C102 C 0.83511 0.82437 0.83474 0.0
C103 C 0.80774 0.84431 0.83533 0.0
H104 H 0.28761 0.30571 0.40436 0.0
H105 H 0.38327 0.29254 0.35826 0.0
H106 H 0.32414 0.37215 0.31709 0.0
H107 H 0.33468 0.32203 0.2703 0.0
C108 C 0.36164 0.31651 0.27912 0.0
O109 O 0.37402 0.33644 0.30652 0.0
H110 H 0.35938 0.28808 0.28723 0.0
C111 C 0.30746 0.31462 0.38613 0.0
C112 C 0.30221 0.34207 0.36153 0.0
C113 C 0.33683 0.29663 0.38557 0.0
C114 C 0.36102 0.30649 0.36003 0.0
C115 C 0.35543 0.33272 0.33492 0.0
C116 C 0.32724 0.35146 0.3366 0.0
H117 H 0.47259 0.99416 0.64676 0.0
H118 H 0.45519 0.94651 0.5495 0.0
H119 H 0.51347 0.89861 0.63155 0.0
H120 H 0.54221 0.88582 0.57045 0.0
C121 C 0.5231 0.89766 0.55235 0.0
O122 O 0.49125 0.89548 0.56746 0.0
H123 H 0.53459 0.92561 0.54678 0.0
C124 C 0.47551 0.97331 0.63052 0.0
C125 C 0.4944 0.94614 0.64346 0.0
C126 C 0.46086 0.97382 0.59661 0.0
C127 C 0.46605 0.94696 0.57567 0.0
C128 C 0.485 0.9201 0.5883 0.0
C129 C 0.49843 0.91933 0.62226 0.0
H130 H 0.21573 0.33758 0.78736 0.0
H131 H 0.18416 0.23796 0.74327 0.0
H132 H 0.28648 0.29672 0.72512 0.0
H133 H 0.24325 0.26772 0.66538 0.0
C134 C 0.23331 0.24124 0.677 0.0
O135 O 0.24279 0.2396 0.71155 0.0
H136 H 0.20399 0.23727 0.67316 0.0
C137 C 0.2217 0.31696 0.77222 0.0
C138 C 0.2545 0.32056 0.75755 0.0
C139 C 0.19615 0.28747 0.76728 0.0
C140 C 0.20374 0.26081 0.74756 0.0
C141 C 0.23619 0.26441 0.73201 0.0
C142 C 0.26149 0.29424 0.73705 0.0
H143 H 0.80545 0.17357 0.81217 0.0
H144 H 0.73281 0.1767 0.72368 0.0
H145 H 0.82522 0.25359 0.73087 0.0
H146 H 0.75851 0.27859 0.70762 0.0
C147 C 0.7494 0.2586 0.68859 0.0
O148 O 0.76889 0.23114 0.69322 0.0
H149 H 0.72111 0.24825 0.6921 0.0
C150 C 0.79774 0.18573 0.78771 0.0
C151 C 0.81904 0.2158 0.77433 0.0
C152 C 0.76669 0.17105 0.76959 0.0
C153 C 0.75679 0.18718 0.73797 0.0
C154 C 0.77779 0.21694 0.72438 0.0
C155 C 0.80887 0.23102 0.74231 0.0
H156 H 0.48547 0.59731 0.55913 0.0
H157 H 0.53943 0.51139 0.59769 0.0
H158 H 0.56028 0.56045 0.49829 0.0
H159 H 0.55568 0.48336 0.50422 0.0
C160 C 0.56938 0.48013 0.5299 0.0
O161 O 0.57711 0.5124 0.54408 0.0
H162 H 0.55146 0.46196 0.54638 0.0
C163 C 0.50387 0.57927 0.55564 0.0
C164 C 0.5216 0.58187 0.52517 0.0
C165 C 0.50992 0.55397 0.58195 0.0
C166 C 0.53405 0.53078 0.57751 0.0
C167 C 0.5523 0.53332 0.54741 0.0
C168 C 0.54607 0.55881 0.5214 0.0
H169 H 0.64184 0.4685 0.01651 0.0
H170 H 0.54952 0.47096 0.94707 0.0
H171 H 0.64688 0.53453 0.9238 0.0
H172 H 0.58856 0.56613 0.88408 0.0
C173 C 0.5695 0.54709 0.89857 0.0
O174 O 0.58181 0.51514 0.90241 0.0
H175 H 0.56759 0.55813 0.92377 0.0
C176 C 0.62875 0.47844 0.99341 0.0
C177 C 0.6483 0.50353 0.97178 0.0
C178 C 0.59302 0.46563 0.98474 0.0
C179 C 0.57717 0.47908 0.95415 0.0
C180 C 0.59688 0.50328 0.93216 0.0
C181 C 0.63229 0.51517 0.94082 0.0
H182 H 0.67553 0.28211 0.29327 0.0
H183 H 0.69757 0.20148 0.23055 0.0
H184 H 0.76169 0.22379 0.32197 0.0
H185 H 0.79852 0.21755 0.25995 0.0
C186 C 0.78259 0.19257 0.25197 0.0
O187 O 0.75187 0.18548 0.26933 0.0
H188 H 0.77552 0.19549 0.2241 0.0
C189 C 0.69132 0.26212 0.28841 0.0
C190 C 0.71993 0.25599 0.31128 0.0
C191 C 0.68271 0.24238 0.25937 0.0
C192 C 0.70355 0.21674 0.25292 0.0
C193 C 0.73228 0.21063 0.27526 0.0
C194 C 0.74003 0.22977 0.30449 0.0
H195 H 0.40835 0.08622 0.03402 0.0
H196 H 0.47394 0.01858 0.99433 0.0
H197 H 0.52191 0.11316 0.03853 0.0
H198 H 0.57207 0.09507 0.98795 0.0
C199 C 0.54921 0.07605 0.97885 0.0
O200 O 0.53315 0.05922 0.00718 0.0
H201 H 0.53093 0.09124 0.96285 0.0
C202 C 0.43417 0.08016 0.02912 0.0
C203 C 0.46475 0.1033 0.03901 0.0
C204 C 0.437 0.04938 0.0127 0.0
C205 C 0.47083 0.04226 0.00629 0.0
C206 C 0.50107 0.06525 0.01557 0.0
C207 C 0.49808 0.0953 0.03226 0.0
Zn208 Zn 0.31702 0.85751 0.98416 0.0
Zn209 Zn 0.25734 0.88541 0.98764 0.0
O210 O 0.25758 0.85229 0.03091 0.0
O211 O 0.3079 0.83146 0.03005 0.0
O212 O 0.2125 0.90696 0.98997 0.0
O213 O 0.34494 0.90598 0.98204 0.0
O214 O 0.29676 0.92854 0.98995 0.0
C215 C 0.2798 0.8333 0.04463 0.0
C216 C 0.26841 0.84091 0.92726 0.0
O217 O 0.24993 0.85962 0.94217 0.0
O218 O 0.29835 0.8356 0.94039 0.0
C219 C 0.20545 0.9188 0.01778 0.0
O220 O 0.22758 0.91674 0.04463 0.0
C221 C 0.32996 0.93227 0.98642 0.0
Zn222 Zn 0.10356 0.41938 0.34996 0.0
Zn223 Zn 0.14814 0.4788 0.33039 0.0
O224 O 0.12488 0.49373 0.37093 0.0
O225 O 0.08638 0.44784 0.38585 0.0
O226 O 0.18161 0.52182 0.3167 0.0
O227 O 0.14707 0.39452 0.36095 0.0
O228 O 0.18054 0.44164 0.34004 0.0
C229 C 0.10041 0.47933 0.3898 0.0
C230 C 0.08943 0.44746 0.28021 0.0
O231 O 0.11454 0.47137 0.28852 0.0
O232 O 0.08042 0.42158 0.30109 0.0
C233 C 0.1698 0.54983 0.30587 0.0
O234 O 0.13551 0.55024 0.30398 0.0
C235 C 0.17706 0.41023 0.35282 0.0
Zn236 Zn 0.8568 0.61453 0.98837 0.0
Zn237 Zn 0.8343 0.63155 0.04717 0.0
O238 O 0.87851 0.60714 0.06242 0.0
O239 O 0.89706 0.59473 0.0134 0.0
O240 O 0.81968 0.65179 0.08976 0.0
O241 O 0.86324 0.66419 0.96854 0.0
O242 O 0.83881 0.67647 0.01451 0.0
C243 C 0.90025 0.59386 0.0457 0.0
C244 C 0.78668 0.57915 0.00402 0.0
O245 O 0.79256 0.59558 0.03135 0.0
O246 O 0.8095 0.58333 0.98161 0.0
C247 C 0.78789 0.64767 0.09858 0.0
O248 O 0.76371 0.62667 0.08162 0.0
C249 C 0.85101 0.68591 0.98539 0.0
Zn250 Zn 0.88314 0.01748 0.32255 0.0
Zn251 Zn 0.90526 0.02073 0.25907 0.0
O252 O 0.8799 0.06479 0.26009 0.0
O253 O 0.86355 0.0631 0.3129 0.0
O254 O 0.92602 0.02431 0.21258 0.0
O255 O 0.93215 0.01538 0.3439 0.0
O256 O 0.94927 0.01565 0.29159 0.0
C257 C 0.86475 0.07788 0.28313 0.0
C258 C 0.85217 0.95839 0.28253 0.0
O259 O 0.87066 0.97459 0.25899 0.0
O260 O 0.85285 0.97137 0.31141 0.0
C261 C 0.94367 0.05265 0.20084 0.0
O262 O 0.9472 0.08067 0.21869 0.0
C263 C 0.9562 0.01352 0.32384 0.0
Zn264 Zn 0.32733 0.09433 0.47832 0.0
Zn265 Zn 0.3146 0.12178 0.53546 0.0
O266 O 0.35393 0.09107 0.55199 0.0
O267 O 0.36352 0.06855 0.50401 0.0
O268 O 0.3054 0.14823 0.57628 0.0
O269 O 0.34187 0.14064 0.45422 0.0
O270 O 0.32727 0.1638 0.49984 0.0
C271 C 0.3703 0.07146 0.53576 0.0
C272 C 0.25536 0.07568 0.49655 0.0
O273 O 0.26642 0.09217 0.52312 0.0
O274 O 0.27601 0.0734 0.47326 0.0
C275 C 0.28074 0.13842 0.5965 0.0
O276 O 0.26111 0.10775 0.5931 0.0
C277 C 0.33759 0.16739 0.4694 0.0
Zn278 Zn 0.35681 0.51706 0.81833 0.0
Zn279 Zn 0.38623 0.52247 0.75783 0.0
O280 O 0.35634 0.56367 0.75337 0.0
O281 O 0.33281 0.55908 0.80342 0.0
O282 O 0.41122 0.5248 0.71358 0.0
O283 O 0.40428 0.52388 0.84363 0.0
O284 O 0.4283 0.52841 0.7939 0.0
C285 C 0.33683 0.57466 0.7742 0.0
C286 C 0.33811 0.45484 0.781 0.0
O287 O 0.35699 0.47275 0.75863 0.0
O288 O 0.33386 0.46801 0.80881 0.0
C289 C 0.43294 0.55155 0.7045 0.0
O290 O 0.43796 0.57882 0.72346 0.0
C291 C 0.43151 0.52827 0.82645 0.0
Zn292 Zn 0.80501 0.34869 0.49246 0.0
Zn293 Zn 0.74564 0.37628 0.49356 0.0
O294 O 0.74617 0.34524 0.5387 0.0
O295 O 0.79701 0.32516 0.53915 0.0
O296 O 0.70087 0.39873 0.4949 0.0
O297 O 0.83359 0.39615 0.48761 0.0
O298 O 0.7854 0.41945 0.4936 0.0
C299 C 0.76892 0.32742 0.5535 0.0
C300 C 0.75816 0.3294 0.43551 0.0
O301 O 0.73882 0.34853 0.44882 0.0
O302 O 0.78763 0.32458 0.45006 0.0
C303 C 0.69589 0.41463 0.52114 0.0
O304 O 0.71978 0.41586 0.54681 0.0
C305 C 0.8186 0.42281 0.49007 0.0
Zn306 Zn 0.59045 0.9218 0.84546 0.0
Zn307 Zn 0.63354 0.98012 0.82044 0.0
O308 O 0.61246 0.99742 0.86086 0.0
O309 O 0.57692 0.95212 0.882 0.0
O310 O 0.66493 0.02296 0.80249 0.0
O311 O 0.63468 0.89771 0.85441 0.0
O312 O 0.66763 0.94487 0.83321 0.0
C313 C 0.59067 0.9841 0.88284 0.0
C314 C 0.57155 0.94504 0.7753 0.0
O315 O 0.59772 0.96894 0.78053 0.0
O316 O 0.56333 0.92117 0.79843 0.0
C317 C 0.68268 0.04412 0.82281 0.0
O318 O 0.68092 0.03736 0.85593 0.0
C319 C 0.66476 0.91371 0.84673 0.0
Zn320 Zn 0.01064 0.32917 0.85347 0.0
Zn321 Zn 0.01648 0.26899 0.8907 0.0
O322 O 0.05826 0.27173 0.85961 0.0
O323 O 0.05343 0.32097 0.82907 0.0
O324 O 0.02005 0.22644 0.92292 0.0
O325 O 0.01628 0.35728 0.89562 0.0
O326 O 0.02081 0.30766 0.92537 0.0
C327 C 0.06903 0.29439 0.83602 0.0
C328 C 0.94994 0.27625 0.84391 0.0
O329 O 0.96796 0.25789 0.86453 0.0
O330 O 0.96199 0.3079 0.83576 0.0
C331 C 0.02162 0.1955 0.91451 0.0
O332 O 0.02087 0.18927 0.88199 0.0
C333 C 0.02027 0.34068 0.92421 0.0
Zn334 Zn 0.50872 0.82271 0.35246 0.0
Zn335 Zn 0.51509 0.76073 0.38601 0.0
O336 O 0.55852 0.76939 0.35651 0.0
O337 O 0.55381 0.82039 0.32931 0.0
O338 O 0.52164 0.71551 0.41336 0.0
O339 O 0.50983 0.84631 0.39685 0.0
O340 O 0.51486 0.79542 0.4241 0.0
C341 C 0.57015 0.79422 0.33527 0.0
C342 C 0.45016 0.76868 0.33732 0.0
O343 O 0.46763 0.7496 0.35774 0.0
O344 O 0.46201 0.80078 0.33117 0.0
C345 C 0.49625 0.69669 0.4281 0.0
O346 O 0.4647 0.70634 0.42459 0.0
C347 C 0.51252 0.82802 0.42465 0.0
Zn348 Zn 0.92911 0.79903 0.59152 0.0
Zn349 Zn 0.98844 0.78926 0.63157 0.0
O350 O 0.0061 0.83088 0.59855 0.0
O351 O 0.9587 0.83887 0.56578 0.0
O352 O 0.03193 0.77939 0.66047 0.0
O353 O 0.90586 0.80719 0.63443 0.0
O354 O 0.95354 0.79812 0.66629 0.0
C355 C 0.99132 0.8473 0.57369 0.0
C356 C 0.94922 0.7309 0.58726 0.0
O357 O 0.97405 0.74319 0.60823 0.0
O358 O 0.92595 0.74952 0.57595 0.0
C359 C 0.0567 0.80285 0.67047 0.0
O360 O 0.05436 0.83605 0.66232 0.0
C361 C 0.92186 0.80476 0.6636 0.0
Zn362 Zn 0.45069 0.31096 0.09009 0.0
Zn363 Zn 0.51 0.30135 0.12984 0.0
O364 O 0.52736 0.34284 0.09618 0.0
O365 O 0.48064 0.34783 0.06124 0.0
O366 O 0.55421 0.29347 0.15904 0.0
O367 O 0.42935 0.32344 0.13278 0.0
O368 O 0.47623 0.3121 0.1647 0.0
C369 C 0.51288 0.35742 0.06992 0.0
C370 C 0.46771 0.24147 0.08842 0.0
O371 O 0.49396 0.25423 0.10769 0.0
O372 O 0.44448 0.26029 0.07752 0.0
C373 C 0.55805 0.26341 0.17296 0.0
O374 O 0.53273 0.2369 0.16841 0.0
C375 C 0.44539 0.32089 0.16194 0.0
C376 C 0.2667 0.79457 0.84506 0.0
C377 C 0.23059 0.78985 0.83461 0.0
H378 H 0.30677 0.81431 0.88216 0.0
C379 C 0.207 0.80339 0.85442 0.0
H380 H 0.28581 0.78529 0.83017 0.0
C381 C 0.21921 0.82076 0.88409 0.0
C382 C 0.25521 0.82461 0.89483 0.0
H383 H 0.17893 0.79989 0.8475 0.0
H384 H 0.20035 0.83038 0.89903 0.0
C385 C 0.27879 0.8115 0.87483 0.0
C386 C 0.0882 0.55623 0.44038 0.0
C387 C 0.05604 0.54399 0.45525 0.0
H388 H 0.12775 0.54525 0.40849 0.0
C389 C 0.03952 0.50959 0.45003 0.0
H390 H 0.10115 0.58285 0.44353 0.0
C391 C 0.05476 0.48792 0.43005 0.0
C392 C 0.08649 0.5005 0.41437 0.0
H393 H 0.01435 0.49976 0.46061 0.0
H394 H 0.04096 0.46182 0.42585 0.0
C395 C 0.10334 0.5347 0.42024 0.0
C396 C 0.86797 0.76864 0.92904 0.0
C397 C 0.83356 0.77732 0.92286 0.0
H398 H 0.90035 0.73235 0.95345 0.0
C399 C 0.80641 0.75896 0.9424 0.0
H400 H 0.88993 0.7829 0.9156 0.0
C401 C 0.81299 0.73102 0.96541 0.0
C402 C 0.84655 0.7204 0.9687 0.0
H403 H 0.77954 0.76446 0.9384 0.0
H404 H 0.79117 0.71596 0.97851 0.0
C405 C 0.8742 0.74 0.9511 0.0
C406 C 0.043 0.97791 0.32706 0.0
C407 C 0.04363 0.96167 0.36019 0.0
H408 H 0.01481 0.00758 0.28941 0.0
C409 C 0.01932 0.96872 0.38303 0.0
H410 H 0.06152 0.97299 0.30895 0.0
C411 C 0.99288 0.9889 0.37205 0.0
C412 C 0.98978 1.00187 0.33777 0.0
H413 H 0.01888 0.95633 0.40858 0.0
H414 H 0.97313 0.99171 0.38973 0.0
C415 C 0.0162 0.9977 0.31587 0.0
C416 C 0.2298 0.17907 0.65913 0.0
C417 C 0.24793 0.21348 0.65937 0.0
H418 H 0.22599 0.12826 0.63921 0.0
C419 C 0.27899 0.22201 0.64167 0.0
H420 H 0.20603 0.1718 0.67295 0.0
C421 C 0.29049 0.1972 0.62232 0.0
C422 C 0.27128 0.16324 0.62047 0.0
H423 H 0.2937 0.24826 0.64186 0.0
H424 H 0.31383 0.20501 0.60798 0.0
C425 C 0.2413 0.15421 0.63983 0.0
C426 C 0.49047 0.5838 0.63061 0.0
C427 C 0.49137 0.55274 0.61416 0.0
H428 H 0.47157 0.60775 0.67193 0.0
C429 C 0.47329 0.52105 0.62791 0.0
H430 H 0.5044 0.60858 0.62073 0.0
C431 C 0.45405 0.52061 0.6571 0.0
C432 C 0.45298 0.55178 0.67341 0.0
H433 H 0.47337 0.49677 0.61564 0.0
H434 H 0.44011 0.49584 0.66693 0.0
C435 C 0.4717 0.5833 0.65998 0.0
C436 C 0.72557 0.28866 0.6345 0.0
C437 C 0.75401 0.27602 0.65333 0.0
H438 H 0.70781 0.31482 0.58799 0.0
C439 C 0.78739 0.28144 0.63958 0.0
H440 H 0.69974 0.28546 0.64489 0.0
C441 C 0.79194 0.2978 0.60709 0.0
C442 C 0.76343 0.30995 0.58788 0.0
H443 H 0.81 0.27285 0.65393 0.0
H444 H 0.81802 0.30126 0.5972 0.0
C445 C 0.73022 0.30552 0.60204 0.0
C446 C 0.53406 0.97676 0.68886 0.0
C447 C 0.51195 0.94656 0.6783 0.0
H448 H 0.57056 0.99979 0.72752 0.0
C449 C 0.50874 0.91608 0.70027 0.0
H450 H 0.53732 1.00048 0.67227 0.0
C451 C 0.52759 0.91568 0.73204 0.0
C452 C 0.55051 0.9456 0.74222 0.0
H453 H 0.49179 0.89246 0.69275 0.0
H454 H 0.52476 0.89173 0.7483 0.0
C455 C 0.55333 0.97621 0.72036 0.0
C456 C 0.87413 0.20942 0.81172 0.0
C457 C 0.85196 0.23112 0.79352 0.0
H458 H 0.92229 0.20659 0.84216 0.0
C459 C 0.86169 0.26771 0.79345 0.0
H460 H 0.86774 0.18111 0.812 0.0
C461 C 0.89314 0.28224 0.81035 0.0
C462 C 0.91555 0.26058 0.82805 0.0
H463 H 0.84496 0.28525 0.78034 0.0
H464 H 0.89995 0.31055 0.80937 0.0
C465 C 0.90549 0.224 0.82894 0.0
C466 C 0.52194 0.84316 0.51969 0.0
C467 C 0.51822 0.87883 0.51965 0.0
H468 H 0.52324 0.79903 0.48969 0.0
C469 C 0.51062 0.89703 0.48857 0.0
H470 H 0.52738 0.8285 0.54347 0.0
C471 C 0.50838 0.88036 0.45785 0.0
C472 C 0.51334 0.84496 0.45758 0.0
H473 H 0.50717 0.92442 0.488 0.0
H474 H 0.50313 0.89542 0.43427 0.0
C475 C 0.51959 0.82637 0.48893 0.0
C476 C 0.14287 0.31499 0.77529 0.0
C477 C 0.16134 0.28628 0.78191 0.0
H478 H 0.09956 0.33999 0.78695 0.0
C479 C 0.14816 0.25884 0.80505 0.0
H480 H 0.15243 0.33641 0.75742 0.0
C481 C 0.11779 0.26098 0.82244 0.0
C482 C 0.10005 0.29047 0.81669 0.0
H483 H 0.16213 0.23654 0.81071 0.0
H484 H 0.10865 0.23993 0.84083 0.0
C485 C 0.11261 0.31704 0.79235 0.0
C486 C 0.48048 0.61701 0.4901 0.0
C487 C 0.51496 0.60938 0.49802 0.0
H488 H 0.44755 0.65026 0.46185 0.0
C489 C 0.54306 0.62946 0.48112 0.0
H490 H 0.45815 0.60168 0.50218 0.0
C491 C 0.53693 0.65727 0.45775 0.0
C492 C 0.50258 0.66562 0.45078 0.0
H493 H 0.56995 0.62448 0.48681 0.0
H494 H 0.55927 0.67275 0.4458 0.0
C495 C 0.47438 0.6448 0.46683 0.0
C496 C 0.84813 0.81415 0.72012 0.0
C497 C 0.86195 0.80309 0.75232 0.0
H498 H 0.85633 0.82358 0.66683 0.0
C499 C 0.89672 0.79548 0.75578 0.0
H500 H 0.82148 0.8205 0.71692 0.0
C501 C 0.91687 0.79738 0.72715 0.0
C502 C 0.90247 0.80687 0.69455 0.0
H503 H 0.90791 0.78715 0.78052 0.0
H504 H 0.94323 0.79031 0.73041 0.0
C505 C 0.86814 0.81593 0.69149 0.0
C506 C 0.01817 0.91034 0.49887 0.0
C507 C 0.05438 0.92021 0.5068 0.0
H508 H 0.96981 0.88013 0.51395 0.0
C509 C 0.06932 0.90812 0.53822 0.0
H510 H 0.00596 0.91963 0.47497 0.0
C511 C 0.04865 0.88523 0.56061 0.0
C512 C 0.01262 0.87435 0.55209 0.0
H513 H 0.09725 0.91526 0.54485 0.0
H514 H 0.0611 0.8754 0.58414 0.0
C515 C 0.99748 0.88783 0.52132 0.0
C516 C 0.12001 0.74747 0.71849 0.0
C517 C 0.14714 0.77316 0.73052 0.0
H518 H 0.07023 0.73662 0.69036 0.0
C519 C 0.14445 0.80875 0.7223 0.0
H520 H 0.12101 0.71986 0.72473 0.0
C521 C 0.11519 0.81841 0.70272 0.0
C522 C 0.08792 0.79271 0.69096 0.0
H523 H 0.16508 0.82917 0.73083 0.0
H524 H 0.11396 0.84605 0.69689 0.0
C525 C 0.09074 0.75712 0.69899 0.0
C526 C 0.97423 0.64145 0.57575 0.0
C527 C 0.95006 0.6292 0.54921 0.0
H528 H 0.99287 0.68299 0.60863 0.0
C529 C 0.92422 0.6498 0.5366 0.0
H530 H 0.99409 0.6259 0.58637 0.0
C531 C 0.92337 0.68251 0.5495 0.0
C532 C 0.94837 0.69528 0.57523 0.0
H533 H 0.90544 0.64121 0.51595 0.0
H534 H 0.90367 0.69814 0.53869 0.0
C535 C 0.97344 0.67412 0.58858 0.0
C536 C 0.80407 0.87809 0.23923 0.0
C537 C 0.78573 0.85978 0.26634 0.0
H538 H 0.83935 0.92385 0.2229 0.0
C539 C 0.79069 0.87343 0.29885 0.0
H540 H 0.80059 0.86833 0.21383 0.0
C541 C 0.81243 0.90519 0.30396 0.0
C542 C 0.83001 0.92414 0.27673 0.0
H543 H 0.77743 0.85965 0.32041 0.0
H544 H 0.81522 0.91498 0.32935 0.0
C545 C 0.82603 0.91 0.24437 0.0
C546 C 0.81886 0.148 0.23341 0.0
C547 C 0.80471 0.16341 0.25978 0.0
H548 H 0.84922 0.10907 0.22 0.0
C549 C 0.81253 0.1522 0.2938 0.0
H550 H 0.81376 0.15661 0.20697 0.0
C551 C 0.83276 0.12507 0.3013 0.0
C552 C 0.84611 0.1088 0.27495 0.0
H553 H 0.80257 0.16417 0.3146 0.0
H554 H 0.8376 0.11658 0.32782 0.0
C555 C 0.83937 0.12096 0.24091 0.0
C556 C 0.40497 0.00542 0.97294 0.0
C557 C 0.40532 0.0239 1.00269 0.0
H558 H 0.3808 0.96168 0.94475 0.0
C559 C 0.37691 0.0152 0.02415 0.0
H560 H 0.42564 0.0121 0.95513 0.0
C561 C 0.35036 0.98692 0.01734 0.0
C562 C 0.35219 0.96665 0.98934 0.0
H563 H 0.37629 0.02876 0.04729 0.0
H564 H 0.32993 0.97936 0.03529 0.0
C565 C 0.37908 0.97677 0.96669 0.0
C566 C 0.25217 0.36324 0.38952 0.0
C567 C 0.26935 0.35886 0.35979 0.0
H568 H 0.20881 0.38244 0.41053 0.0
C569 C 0.25457 0.37043 0.32794 0.0
H570 H 0.26274 0.35505 0.41452 0.0
C571 C 0.22462 0.38712 0.32598 0.0
C572 C 0.20784 0.3915 0.35558 0.0
H573 H 0.26583 0.36644 0.30424 0.0
H574 H 0.21427 0.39629 0.30117 0.0
C575 C 0.2214 0.37904 0.38735 0.0
C576 C 0.16635 0.0444 0.45452 0.0
C577 C 0.15335 0.01642 0.47731 0.0
H578 H 0.20934 0.08477 0.44276 0.0
C579 C 0.1723 0.01177 0.50897 0.0
H580 H 0.15213 0.04969 0.43043 0.0
C581 C 0.20444 0.033 0.51654 0.0
C582 C 0.21857 0.05863 0.49229 0.0
H583 H 0.16362 0.99037 0.52714 0.0
H584 H 0.21939 0.02771 0.54024 0.0
C585 C 0.19893 0.0648 0.46167 0.0
C586 C 0.73014 0.11223 0.7614 0.0
C587 C 0.74505 0.13854 0.78332 0.0
H588 H 0.69885 0.06184 0.75662 0.0
C589 C 0.73939 0.13335 0.81842 0.0
H590 H 0.73447 0.11507 0.73433 0.0
C591 C 0.71938 0.10257 0.83128 0.0
C592 C 0.70437 0.07641 0.80929 0.0
H593 H 0.75006 0.15328 0.83596 0.0
H594 H 0.71539 0.09948 0.85842 0.0
C595 C 0.70992 0.08158 0.77422 0.0
C596 C 0.4163 0.01505 0.60253 0.0
C597 C 0.44032 0.00215 0.58271 0.0
H598 H 0.37539 0.04749 0.60341 0.0
C599 C 0.44336 0.01532 0.54862 0.0
H600 H 0.41316 0.00544 0.62885 0.0
C601 C 0.42157 0.03891 0.53409 0.0
C602 C 0.39637 0.05048 0.55331 0.0
H603 H 0.46223 0.0069 0.53281 0.0
H604 H 0.42399 0.04755 0.50742 0.0
C605 C 0.39462 0.03913 0.58799 0.0
C606 C 0.60912 0.44929 0.49688 0.0
C607 C 0.60282 0.46434 0.52709 0.0
H608 H 0.64335 0.42189 0.47118 0.0
C609 C 0.62707 0.4625 0.55536 0.0
H610 H 0.59058 0.44982 0.47486 0.0
C611 C 0.6573 0.44658 0.55329 0.0
C612 C 0.66378 0.43165 0.52302 0.0
H613 H 0.62253 0.47331 0.57914 0.0
H614 H 0.67546 0.44574 0.57558 0.0
C615 C 0.63928 0.43318 0.49484 0.0
C616 C 0.76467 0.28621 0.35319 0.0
C617 C 0.72909 0.27678 0.34217 0.0
H618 H 0.80144 0.31005 0.39093 0.0
C619 C 0.70275 0.28678 0.36129 0.0
H620 H 0.78575 0.27996 0.33874 0.0
C621 C 0.71189 0.30492 0.39116 0.0
C622 C 0.74748 0.31294 0.40268 0.0
H623 H 0.67503 0.27977 0.35376 0.0
H624 H 0.69113 0.31161 0.40577 0.0
C625 C 0.77369 0.30374 0.38309 0.0
C626 C 0.54539 0.01546 0.95549 0.0
C627 C 0.56158 0.05062 0.95651 0.0
H628 H 0.54212 0.96668 0.93168 0.0
C629 C 0.58765 0.06338 0.93358 0.0
H630 H 0.52493 0.00486 0.97251 0.0
C631 C 0.59746 0.04157 0.91014 0.0
C632 C 0.58115 0.00648 0.90887 0.0
H633 H 0.60006 0.09052 0.93343 0.0
H634 H 0.6175 0.05247 0.89266 0.0
C635 C 0.55524 0.99355 0.93203 0.0
C636 C 0.33083 0.26292 0.44294 0.0
C637 C 0.33994 0.26483 0.40866 0.0
H638 H 0.32333 0.23072 0.48942 0.0
C639 C 0.35058 0.23522 0.39574 0.0
H640 H 0.32281 0.28534 0.45379 0.0
C641 C 0.35142 0.20439 0.41615 0.0
C642 C 0.34118 0.20195 0.45001 0.0
H643 H 0.35704 0.23525 0.36933 0.0
H644 H 0.35896 0.18201 0.40481 0.0
C645 C 0.33144 0.23175 0.46344 0.0
C646 C 0.53101 0.54515 0.84382 0.0
C647 C 0.5339 0.54267 0.8797 0.0
H648 H 0.49627 0.54278 0.79868 0.0
C649 C 0.50323 0.53455 0.89787 0.0
H650 H 0.55448 0.55081 0.82935 0.0
C651 C 0.47005 0.53 0.8805 0.0
C652 C 0.4669 0.53302 0.84454 0.0
H653 H 0.50496 0.53186 0.92554 0.0
H654 H 0.44686 0.52397 0.89534 0.0
C655 C 0.49776 0.54047 0.82636 0.0
C656 C 0.78917 0.72289 0.15631 0.0
C657 C 0.75344 0.71959 0.16364 0.0
H658 H 0.82831 0.70257 0.13016 0.0
C659 C 0.73011 0.69028 0.15282 0.0
H660 H 0.80769 0.74513 0.16471 0.0
C661 C 0.74177 0.66595 0.13306 0.0
C662 C 0.77708 0.67031 0.12388 0.0
H663 H 0.70251 0.68692 0.15853 0.0
H664 H 0.72277 0.6444 0.124 0.0
C665 C 0.80092 0.69849 0.1366 0.0
C666 C 0.98188 0.02355 0.1225 0.0
C667 C 0.99822 0.05565 0.10784 0.0
H668 H 0.95145 0.99741 0.16304 0.0
C669 C 0.99578 0.08675 0.12364 0.0
H670 H 0.98303 0.99918 0.11077 0.0
C671 C 0.97782 0.08576 0.1536 0.0
C672 C 0.96158 0.05367 0.16836 0.0
H673 H 0.00839 0.11186 0.11319 0.0
H674 H 0.97683 0.11019 0.16527 0.0
C675 C 0.9636 0.02259 0.15232 0.0
C676 C 0.23452 0.79281 0.12391 0.0
C677 C 0.26169 0.77731 0.14192 0.0
H678 H 0.21879 0.82255 0.07892 0.0
C679 C 0.29495 0.78093 0.12805 0.0
H680 H 0.20888 0.79104 0.13444 0.0
C681 C 0.30059 0.79865 0.09626 0.0
C682 C 0.27334 0.81389 0.07798 0.0
H683 H 0.31665 0.77008 0.14183 0.0
H684 H 0.32652 0.80083 0.08625 0.0
C685 C 0.24026 0.81092 0.09223 0.0
C686 C 0.05743 0.48556 0.19433 0.0
C687 C 0.03571 0.45655 0.18082 0.0
H688 H 0.09165 0.50532 0.23605 0.0
C689 C 0.03127 0.4245 0.20043 0.0
H690 H 0.06164 0.51046 0.17963 0.0
C691 C 0.04832 0.42153 0.23292 0.0
C692 C 0.07057 0.45042 0.24619 0.0
H693 H 0.01453 0.40176 0.19065 0.0
H694 H 0.04447 0.39649 0.24742 0.0
C695 C 0.07483 0.48249 0.22655 0.0
C696 C 0.36409 0.76259 0.28344 0.0
C697 C 0.3531 0.72619 0.28353 0.0
H698 H 0.40295 0.80437 0.30029 0.0
C699 C 0.37371 0.70368 0.30271 0.0
H700 H 0.3485 0.78076 0.26962 0.0
C701 C 0.40496 0.71733 0.3208 0.0
C702 C 0.41627 0.75373 0.31992 0.0
H703 H 0.36614 0.67548 0.30314 0.0
H704 H 0.42056 0.69934 0.33489 0.0
C705 C 0.39528 0.77616 0.30127 0.0
C706 C 0.02777 0.41431 0.98485 0.0
C707 C 0.03593 0.39708 0.01635 0.0
H708 H 0.01671 0.41015 0.93106 0.0
C709 C 0.03728 0.36085 0.01775 0.0
H710 H 0.02607 0.44215 0.98325 0.0
C711 C 0.03183 0.34239 0.98792 0.0
C712 C 0.02476 0.35981 0.95612 0.0
H713 H 0.04308 0.34697 0.04189 0.0
H714 H 0.03359 0.31457 0.98976 0.0
C715 C 0.02243 0.39594 0.95502 0.0
C716 C 0.6519 0.76314 0.30496 0.0
C717 C 0.66639 0.79271 0.28496 0.0
H718 H 0.61022 0.74046 0.33703 0.0
C719 C 0.6483 0.8219 0.28057 0.0
H720 H 0.66544 0.74036 0.30886 0.0
C721 C 0.61694 0.82203 0.29655 0.0
C722 C 0.60286 0.793 0.3175 0.0
H723 H 0.65865 0.8449 0.26497 0.0
H724 H 0.60403 0.84523 0.29282 0.0
C725 C 0.62048 0.76334 0.32125 0.0
C726 C 0.02805 0.14737 1.00167 0.0
C727 C 0.03026 0.113 0.99316 0.0
H728 H 0.02369 0.20017 0.98373 0.0
C729 C 0.02952 0.10594 0.95842 0.0
H730 H 0.02909 0.15387 0.02814 0.0
C731 C 0.02661 0.13262 0.93283 0.0
C732 C 0.02446 0.16698 0.94142 0.0
H733 H 0.03083 0.07968 0.95098 0.0
H734 H 0.02606 0.12629 0.90635 0.0
C735 C 0.02518 0.174 0.97615 0.0
C736 C 0.3737 0.33656 0.21813 0.0
C737 C 0.38604 0.32365 0.25027 0.0
H738 H 0.38293 0.3461 0.16505 0.0
C739 C 0.41981 0.3135 0.25396 0.0
H740 H 0.34774 0.34458 0.21464 0.0
C741 C 0.44011 0.31437 0.22552 0.0
C742 C 0.42679 0.32518 0.19289 0.0
H743 H 0.42973 0.30336 0.27854 0.0
H744 H 0.46542 0.30496 0.22886 0.0
C745 C 0.39384 0.33729 0.18973 0.0
C746 C 0.57979 0.43529 0.04274 0.0
C747 C 0.57253 0.4379 0.00703 0.0
H748 H 0.56708 0.40741 0.09056 0.0
C749 C 0.54561 0.41334 0.99261 0.0
H750 H 0.59972 0.45395 0.05511 0.0
C751 C 0.52614 0.38759 0.01319 0.0
C752 C 0.53372 0.38493 0.04862 0.0
H753 H 0.53971 0.41351 0.96528 0.0
H754 H 0.50555 0.36923 1.00122 0.0
C755 C 0.56094 0.40877 0.06322 0.0
C756 C 0.64493 0.282 0.22554 0.0
C757 C 0.6514 0.24794 0.23633 0.0
H758 H 0.6106 0.31367 0.1968 0.0
C759 C 0.62726 0.2191 0.22564 0.0
H760 H 0.66322 0.30472 0.23317 0.0
C761 C 0.59705 0.22418 0.20503 0.0
C762 C 0.59046 0.25824 0.19434 0.0
H763 H 0.63134 0.19255 0.2338 0.0
H764 H 0.57884 0.20136 0.19753 0.0
C765 C 0.61488 0.2871 0.2046 0.0
C766 C 0.43774 0.15848 0.04142 0.0
C767 C 0.46252 0.13691 0.05455 0.0
H768 H 0.41996 0.20843 0.04172 0.0
C769 C 0.48738 0.14914 0.08063 0.0
H770 H 0.41848 0.15001 0.0211 0.0
C771 C 0.4886 0.18278 0.09211 0.0
C772 C 0.46479 0.20492 0.07799 0.0
H773 H 0.50647 0.13293 0.09171 0.0
H774 H 0.50864 0.1916 0.11165 0.0
C775 C 0.43882 0.1921 0.05306 0.0
C776 C 0.28602 0.36471 0.79668 0.0
C777 C 0.28042 0.35248 0.76362 0.0
H778 H 0.30849 0.40634 0.82796 0.0
C779 C 0.2968 0.37279 0.73644 0.0
H780 H 0.27426 0.34934 0.81822 0.0
C781 C 0.31672 0.40572 0.74204 0.0
C782 C 0.32042 0.41877 0.77488 0.0
H783 H 0.29281 0.36402 0.71067 0.0
H784 H 0.328 0.42146 0.72049 0.0
C785 C 0.30563 0.39744 0.80222 0.0
C786 C 0.28621 0.65058 0.78274 0.0
C787 C 0.28325 0.66462 0.74894 0.0
H788 H 0.30489 0.61115 0.817 0.0
C789 C 0.29914 0.64962 0.7234 0.0
H790 H 0.27512 0.66218 0.80311 0.0
C791 C 0.31678 0.6205 0.73138 0.0
C792 C 0.31886 0.60586 0.7651 0.0
H793 H 0.29794 0.66046 0.69725 0.0
H794 H 0.32854 0.60936 0.71115 0.0
C795 C 0.30343 0.62137 0.79065 0.0
C796 C 0.89381 0.49438 0.47222 0.0
C797 C 0.89477 0.51457 0.50087 0.0
H798 H 0.86869 0.44928 0.44652 0.0
C799 C 0.86675 0.5073 0.52296 0.0
H800 H 0.91415 0.49985 0.45397 0.0
C801 C 0.83983 0.479 0.51777 0.0
C802 C 0.84092 0.45723 0.49083 0.0
H803 H 0.86661 0.52207 0.54539 0.0
H804 H 0.81972 0.47263 0.53622 0.0
C805 C 0.86751 0.46569 0.46761 0.0
C806 C 0.75974 0.89674 0.84821 0.0
C807 C 0.75752 0.86249 0.86338 0.0
H808 H 0.73244 0.93967 0.8311 0.0
C809 C 0.72481 0.84572 0.87453 0.0
H810 H 0.78466 0.91045 0.83963 0.0
C811 C 0.6947 0.86241 0.8695 0.0
C812 C 0.69674 0.8963 0.85337 0.0
H813 H 0.72221 0.81919 0.88598 0.0
H814 H 0.66973 0.84852 0.87776 0.0
C815 C 0.72976 0.91346 0.84332 0.0
C816 C 0.71112 0.52317 0.9578 0.0
C817 C 0.68501 0.51888 0.98174 0.0
H818 H 0.76373 0.54522 0.94615 0.0
C819 C 0.6934 0.53218 0.01417 0.0
H820 H 0.70544 0.51284 0.93274 0.0
C821 C 0.72681 0.55095 0.02188 0.0
C822 C 0.75248 0.55654 0.99737 0.0
H823 H 0.67365 0.52942 0.03301 0.0
H824 H 0.73216 0.56186 0.0467 0.0
C825 C 0.74452 0.54168 0.96555 0.0
C826 C 0.20434 0.64053 0.26839 0.0
C827 C 0.24106 0.64039 0.2713 0.0
H828 H 0.15305 0.61218 0.27718 0.0
C829 C 0.25419 0.61057 0.2865 0.0
H830 H 0.19346 0.66331 0.25716 0.0
C831 C 0.23107 0.58128 0.29799 0.0
C832 C 0.19431 0.58125 0.29467 0.0
H833 H 0.28234 0.60957 0.28879 0.0
H834 H 0.24203 0.55855 0.3092 0.0
C835 C 0.18121 0.6113 0.28001 0.0
C836 C 0.94327 0.53275 0.10956 0.0
C837 C 0.96876 0.52242 0.08972 0.0
H838 H 0.90159 0.56399 0.11136 0.0
C839 C 0.97469 0.53969 0.05756 0.0
H840 H 0.93811 0.51992 0.13448 0.0
C841 C 0.95396 0.5648 0.04444 0.0
C842 C 0.92674 0.57338 0.06314 0.0
H843 H 0.99472 0.533 0.04201 0.0
H844 H 0.95831 0.57643 0.01891 0.0
C845 C 0.92242 0.55805 0.09638 0.0
C846 C 0.11982 0.95513 0.99318 0.0
C847 C 0.11081 0.96523 0.02476 0.0
H848 H 0.15673 0.93251 0.96614 0.0
C849 C 0.13292 0.95974 0.05398 0.0
H850 H 0.1031 0.95887 0.97028 0.0
C851 C 0.16367 0.9448 0.05165 0.0
C852 C 0.17282 0.93471 0.02007 0.0
H853 H 0.12634 0.96706 0.07865 0.0
H854 H 0.18016 0.94101 0.0747 0.0
C855 C 0.1505 0.93999 0.99085 0.0
loop_
_geom_bond_atom_site_label_1
_geom_bond_atom_site_label_2
_geom_bond_distance
_geom_bond_site_symmetry_2
_ccdc_geom_bond_type
H0 C7 0.929 . S
H1 C10 0.937 . S
H2 C12 0.929 1_556 S
H3 C4 0.969 . S
C4 H3 0.969 . S
C4 O5 1.550 1_565 S
C4 H6 0.973 . S
O5 C4 1.550 1_545 S
O5 C11 1.412 . S
H6 C4 0.973 . S
C7 H0 0.929 . S
C7 C8 1.400 1_655 S
C7 C9 1.364 1_655 S
C8 C7 1.400 1_455 S
C8 C12 1.377 . S
C9 C7 1.364 1_455 S
C9 C10 1.374 . S
C10 H1 0.937 . S
C10 C9 1.374 . S
C10 C11 1.383 . S
C11 O5 1.412 . S
C11 C10 1.383 . S
C11 C12 1.394 . S
C12 H2 0.929 1_554 S
C12 C8 1.377 . S
C12 C11 1.394 . S
H13 C20 0.929 . S
H14 C23 0.930 . S
H15 C25 0.929 . S
H16 C17 0.969 . S
C17 H16 0.969 . S
C17 O18 1.550 . S
C17 H19 0.973 . S
O18 C17 1.550 . S
O18 C24 1.412 . S
H19 C17 0.973 . S
C20 H13 0.929 . S
C20 C21 1.400 . S
C20 C22 1.364 . S
C21 C20 1.400 . S
C21 C25 1.377 . S
C22 C20 1.364 . S
C22 C23 1.374 . S
C23 H14 0.930 . S
C23 C22 1.374 . S
C23 C24 1.383 . S
C24 O18 1.412 . S
C24 C23 1.383 . S
C24 C25 1.394 . S
C25 H15 0.929 . S
C25 C21 1.377 . S
C25 C24 1.394 . S
H26 C33 0.929 . S
H27 C36 0.930 . S
H28 C38 0.929 1_455 S
H29 C30 0.969 . S
C30 H29 0.969 . S
C30 O31 1.550 . S
C30 H32 0.973 . S
O31 C30 1.550 . S
O31 C37 1.412 . S
H32 C30 0.973 . S
C33 H26 0.929 . S
C33 C34 1.400 . S
C33 C35 1.364 . S
C34 C33 1.400 . S
C34 C38 1.377 . S
C35 C33 1.364 . S
C35 C36 1.374 . S
C36 H27 0.930 . S
C36 C35 1.374 . S
C36 C37 1.383 . S
C37 O31 1.412 . S
C37 C36 1.383 . S
C37 C38 1.394 . S
C38 H28 0.929 1_655 S
C38 C34 1.377 . S
C38 C37 1.394 . S
H39 C46 0.929 . S
H40 C49 0.930 . S
H41 C51 0.929 . S
H42 C43 0.969 . S
C43 H42 0.969 . S
C43 O44 1.550 . S
C43 H45 0.973 . S
O44 C43 1.550 . S
O44 C50 1.412 . S
H45 C43 0.973 . S
C46 H39 0.929 . S
C46 C47 1.400 . S
C46 C48 1.364 . S
C47 C46 1.400 . S
C47 C51 1.377 . S
C48 C46 1.364 . S
C48 C49 1.374 . S
C49 H40 0.930 . S
C49 C48 1.374 . S
C49 C50 1.383 . S
C50 O44 1.412 . S
C50 C49 1.383 . S
C50 C51 1.394 . S
C51 H41 0.929 . S
C51 C47 1.377 . S
C51 C50 1.394 . S
H52 C59 0.929 . S
H53 C62 0.930 . S
H54 C64 0.929 1_545 S
H55 C56 0.983 . S
C56 H55 0.983 . S
C56 O57 1.550 . S
C56 H58 0.973 . S
O57 C56 1.550 . S
O57 C63 1.412 . S
H58 C56 0.973 . S
C59 H52 0.929 . S
C59 C60 1.400 . S
C59 C61 1.364 . S
C60 C59 1.400 . S
C60 C64 1.377 . S
C61 C59 1.364 . S
C61 C62 1.374 . S
C62 H53 0.930 . S
C62 C61 1.374 . S
C62 C63 1.383 . S
C63 O57 1.412 . S
C63 C62 1.383 . S
C63 C64 1.394 . S
C64 H54 0.929 1_565 S
C64 C60 1.377 . S
C64 C63 1.394 . S
H65 C72 0.929 . S
H66 C75 0.930 . S
H67 C77 0.929 . S
H68 C69 0.969 . S
C69 H68 0.969 . S
C69 O70 1.550 . S
C69 H71 0.973 . S
O70 C69 1.550 . S
O70 C76 1.412 . S
H71 C69 0.973 . S
C72 H65 0.929 . S
C72 C73 1.400 . S
C72 C74 1.364 . S
C73 C72 1.400 . S
C73 C77 1.377 . S
C74 C72 1.364 . S
C74 C75 1.374 . S
C75 H66 0.930 . S
C75 C74 1.374 . S
C75 C76 1.383 . S
C76 O70 1.412 . S
C76 C75 1.383 . S
C76 C77 1.394 . S
C77 H67 0.929 . S
C77 C73 1.377 . S
C77 C76 1.394 . S
H78 C85 0.929 . S
H79 C88 0.930 . S
H80 C90 0.917 1_455 S
H81 C82 0.969 . S
C82 H81 0.969 . S
C82 O83 1.550 . S
C82 H84 0.973 . S
O83 C82 1.550 . S
O83 C89 1.412 1_455 S
H84 C82 0.973 . S
C85 H78 0.929 . S
C85 C86 1.400 . S
C85 C87 1.364 . S
C86 C85 1.400 . S
C86 C90 1.390 . S
C87 C85 1.364 . S
C87 C88 1.374 . S
C88 H79 0.930 . S
C88 C87 1.374 . S
C88 C89 1.383 . S
C89 O83 1.412 1_655 S
C89 C88 1.383 . S
C89 C90 1.394 . S
C90 H80 0.917 1_655 S
C90 C86 1.390 . S
C90 C89 1.394 . S
H91 C98 0.929 . S
H92 C101 0.930 . S
H93 C103 0.929 . S
H94 C95 0.969 . S
C95 H94 0.969 . S
C95 O96 1.550 . S
C95 H97 0.973 . S
O96 C95 1.550 . S
O96 C102 1.412 . S
H97 C95 0.973 . S
C98 H91 0.929 . S
C98 C99 1.400 . S
C98 C100 1.364 . S
C99 C98 1.400 . S
C99 C103 1.377 . S
C100 C98 1.364 . S
C100 C101 1.374 . S
C101 H92 0.930 . S
C101 C100 1.374 . S
C101 C102 1.383 . S
C102 O96 1.412 . S
C102 C101 1.383 . S
C102 C103 1.394 . S
C103 H93 0.929 . S
C103 C99 1.377 . S
C103 C102 1.394 . S
H104 C111 0.929 . S
H105 C114 0.930 . S
H106 C116 0.929 . S
H107 C108 0.969 . S
C108 H107 0.969 . S
C108 O109 1.550 . S
C108 H110 0.973 . S
O109 C108 1.550 . S
O109 C115 1.412 . S
H110 C108 0.973 . S
C111 H104 0.929 . S
C111 C112 1.400 . S
C111 C113 1.364 . S
C112 C111 1.400 . S
C112 C116 1.377 . S
C113 C111 1.364 . S
C113 C114 1.374 . S
C114 H105 0.930 . S
C114 C113 1.374 . S
C114 C115 1.383 . S
C115 O109 1.412 . S
C115 C114 1.383 . S
C115 C116 1.394 . S
C116 H106 0.929 . S
C116 C112 1.377 . S
C116 C115 1.394 . S
H117 C124 0.929 1_545 S
H118 C127 0.930 . S
H119 C129 0.929 . S
H120 C121 0.969 . S
C121 H120 0.969 . S
C121 O122 1.550 . S
C121 H123 0.973 . S
O122 C121 1.550 . S
O122 C128 1.412 . S
H123 C121 0.973 . S
C124 H117 0.929 1_565 S
C124 C125 1.400 . S
C124 C126 1.364 . S
C125 C124 1.400 . S
C125 C129 1.377 . S
C126 C124 1.364 . S
C126 C127 1.374 . S
C127 H118 0.930 . S
C127 C126 1.374 . S
C127 C128 1.383 . S
C128 O122 1.412 . S
C128 C127 1.383 . S
C128 C129 1.394 . S
C129 H119 0.929 . S
C129 C125 1.377 . S
C129 C128 1.394 . S
H130 C137 0.929 . S
H131 C140 0.930 . S
H132 C142 0.929 . S
H133 C134 0.969 . S
C134 H133 0.969 . S
C134 O135 1.550 . S
C134 H136 0.973 . S
O135 C134 1.550 . S
O135 C141 1.412 . S
H136 C134 0.973 . S
C137 H130 0.929 . S
C137 C138 1.400 . S
C137 C139 1.364 . S
C138 C137 1.400 . S
C138 C142 1.377 . S
C139 C137 1.364 . S
C139 C140 1.374 . S
C140 H131 0.930 . S
C140 C139 1.374 . S
C140 C141 1.383 . S
C141 O135 1.412 . S
C141 C140 1.383 . S
C141 C142 1.394 . S
C142 H132 0.929 . S
C142 C138 1.377 . S
C142 C141 1.394 . S
H143 C150 0.929 . S
H144 C153 0.930 . S
H145 C155 0.929 . S
H146 C147 0.969 . S
C147 H146 0.969 . S
C147 O148 1.550 . S
C147 H149 0.973 . S
O148 C147 1.550 . S
O148 C154 1.412 . S
H149 C147 0.973 . S
C150 H143 0.929 . S
C150 C151 1.400 . S
C150 C152 1.364 . S
C151 C150 1.400 . S
C151 C155 1.377 . S
C152 C150 1.364 . S
C152 C153 1.374 . S
C153 H144 0.930 . S
C153 C152 1.374 . S
C153 C154 1.383 . S
C154 O148 1.412 . S
C154 C153 1.383 . S
C154 C155 1.394 . S
C155 H145 0.929 . S
C155 C151 1.377 . S
C155 C154 1.394 . S
H156 C163 0.929 . S
H157 C166 0.930 . S
H158 C168 0.929 . S
H159 C160 0.969 . S
C160 H159 0.969 . S
C160 O161 1.550 . S
C160 H162 0.973 . S
O161 C160 1.550 . S
O161 C167 1.412 . S
H162 C160 0.973 . S
C163 H156 0.929 . S
C163 C164 1.400 . S
C163 C165 1.364 . S
C164 C163 1.400 . S
C164 C168 1.377 . S
C165 C163 1.364 . S
C165 C166 1.374 . S
C166 H157 0.930 . S
C166 C165 1.374 . S
C166 C167 1.383 . S
C167 O161 1.412 . S
C167 C166 1.383 . S
C167 C168 1.394 . S
C168 H158 0.929 . S
C168 C164 1.377 . S
C168 C167 1.394 . S
H169 C176 0.929 . S
H170 C179 0.930 . S
H171 C181 0.929 . S
H172 C173 0.969 . S
C173 H172 0.969 . S
C173 O174 1.550 . S
C173 H175 0.973 . S
O174 C173 1.550 . S
O174 C180 1.412 . S
H175 C173 0.973 . S
C176 H169 0.929 . S
C176 C177 1.400 1_554 S
C176 C178 1.364 1_554 S
C177 C176 1.400 1_556 S
C177 C181 1.377 . S
C178 C176 1.364 1_556 S
C178 C179 1.374 . S
C179 H170 0.930 . S
C179 C178 1.374 . S
C179 C180 1.383 . S
C180 O174 1.412 . S
C180 C179 1.383 . S
C180 C181 1.394 . S
C181 H171 0.929 . S
C181 C177 1.377 . S
C181 C180 1.394 . S
H182 C189 0.929 . S
H183 C192 0.930 . S
H184 C194 0.929 . S
H185 C186 0.969 . S
C186 H185 0.969 . S
C186 O187 1.550 . S
C186 H188 0.973 . S
O187 C186 1.550 . S
O187 C193 1.412 . S
H188 C186 0.973 . S
C189 H182 0.929 . S
C189 C190 1.400 . S
C189 C191 1.364 . S
C190 C189 1.400 . S
C190 C194 1.377 . S
C191 C189 1.364 . S
C191 C192 1.374 . S
C192 H183 0.930 . S
C192 C191 1.374 . S
C192 C193 1.383 . S
C193 O187 1.412 . S
C193 C192 1.383 . S
C193 C194 1.394 . S
C194 H184 0.929 . S
C194 C190 1.377 . S
C194 C193 1.394 . S
H195 C202 0.929 . S
H196 C205 0.930 . S
H197 C207 0.929 . S
H198 C199 0.969 . S
C199 H198 0.969 . S
C199 O200 1.550 . S
C199 H201 0.973 . S
O200 C199 1.550 . S
O200 C206 1.412 . S
H201 C199 0.973 . S
C202 H195 0.929 . S
C202 C203 1.400 . S
C202 C204 1.364 1_554 S
C203 C202 1.400 . S
C203 C207 1.377 1_554 S
C204 C202 1.364 1_556 S
C204 C205 1.374 . S
C205 H196 0.930 . S
C205 C204 1.374 . S
C205 C206 1.383 . S
C206 O200 1.412 . S
C206 C205 1.383 . S
C206 C207 1.394 . S
C207 H197 0.929 . S
C207 C203 1.377 1_556 S
C207 C206 1.394 . S
Zn208 O211 2.033 1_556 S
Zn208 O213 2.048 . S
Zn208 O218 2.064 . S
Zn209 O210 1.962 . S
Zn209 O212 1.986 . S
Zn209 O214 1.996 . S
Zn209 O217 1.943 1_554 S
O210 Zn209 1.962 . S
O210 C215 1.254 . S
O211 Zn208 2.033 1_554 S
O211 C215 1.269 . S
O212 Zn209 1.986 . S
O212 C219 1.262 . S
O213 Zn208 2.048 . S
O213 C221 1.260 . S
O214 Zn209 1.996 . S
O214 C221 1.257 1_554 S
C215 O210 1.254 . S
C215 O211 1.269 . S
C216 O217 1.249 . S
C216 O218 1.270 . S
O217 Zn209 1.943 1_556 S
O217 C216 1.249 . S
O218 Zn208 2.064 . S
O218 C216 1.270 . S
C219 O212 1.262 . S
C219 O220 1.232 . S
O220 C219 1.232 . S
C221 O213 1.260 . S
C221 O214 1.257 1_556 S
Zn222 O225 2.031 . S
Zn222 O227 2.049 . S
Zn222 O232 2.067 . S
Zn223 O224 1.962 . S
Zn223 O226 1.986 . S
Zn223 O228 1.996 . S
Zn223 O231 1.943 . S
O224 Zn223 1.962 . S
O224 C229 1.254 . S
O225 Zn222 2.031 . S
O225 C229 1.269 . S
O226 Zn223 1.986 . S
O226 C233 1.262 . S
O227 Zn222 2.049 . S
O227 C235 1.260 . S
O228 Zn223 1.996 . S
O228 C235 1.257 . S
C229 O224 1.254 . S
C229 O225 1.269 . S
C230 O231 1.249 . S
C230 O232 1.270 . S
O231 Zn223 1.943 . S
O231 C230 1.249 . S
O232 Zn222 2.067 . S
O232 C230 1.270 . S
C233 O226 1.262 . S
C233 O234 1.232 . S
O234 C233 1.232 . S
C235 O227 1.260 . S
C235 O228 1.257 . S
Zn236 O239 2.031 1_556 S
Zn236 O241 2.049 . S
Zn236 O246 2.067 . S
Zn237 O238 1.962 . S
Zn237 O240 1.986 . S
Zn237 O242 1.996 . S
Zn237 O245 1.943 . S
O238 Zn237 1.962 . S
O238 C243 1.254 . S
O239 Zn236 2.031 1_554 S
O239 C243 1.269 . S
O240 Zn237 1.986 . S
O240 C247 1.262 . S
O241 Zn236 2.049 . S
O241 C249 1.260 . S
O242 Zn237 1.996 . S
O242 C249 1.257 1_554 S
C243 O238 1.254 . S
C243 O239 1.269 . S
C244 O245 1.249 . S
C244 O246 1.270 1_554 S
O245 Zn237 1.943 . S
O245 C244 1.249 . S
O246 Zn236 2.067 . S
O246 C244 1.270 1_556 S
C247 O240 1.262 . S
C247 O248 1.232 . S
O248 C247 1.232 . S
C249 O241 1.260 . S
C249 O242 1.257 1_556 S
Zn250 O253 2.031 . S
Zn250 O255 2.049 1_545 S
Zn250 O260 2.067 1_545 S
Zn251 O252 1.962 . S
Zn251 O254 1.986 . S
Zn251 O256 1.996 . S
Zn251 O259 1.943 1_545 S
O252 Zn251 1.962 . S
O252 C257 1.254 . S
O253 Zn250 2.031 . S
O253 C257 1.269 . S
O254 Zn251 1.986 . S
O254 C261 1.262 . S
O255 Zn250 2.049 1_565 S
O255 C263 1.260 1_565 S
O256 Zn251 1.996 . S
O256 C263 1.257 . S
C257 O252 1.254 . S
C257 O253 1.269 . S
C258 O259 1.249 . S
C258 O260 1.270 . S
O259 Zn251 1.943 1_565 S
O259 C258 1.249 . S
O260 Zn250 2.067 1_565 S
O260 C258 1.270 . S
C261 O254 1.262 . S
C261 O262 1.232 . S
O262 C261 1.232 . S
C263 O255 1.260 1_545 S
C263 O256 1.257 . S
Zn264 O267 2.031 . S
Zn264 O269 2.049 . S
Zn264 O274 2.067 . S
Zn265 O266 1.962 . S
Zn265 O268 1.986 . S
Zn265 O270 1.996 . S
Zn265 O273 1.943 . S
O266 Zn265 1.962 . S
O266 C271 1.254 . S
O267 Zn264 2.031 . S
O267 C271 1.269 . S
O268 Zn265 1.986 . S
O268 C275 1.262 . S
O269 Zn264 2.049 . S
O269 C277 1.260 . S
O270 Zn265 1.996 . S
O270 C277 1.257 . S
C271 O266 1.254 . S
C271 O267 1.269 . S
C272 O273 1.249 . S
C272 O274 1.270 . S
O273 Zn265 1.943 . S
O273 C272 1.249 . S
O274 Zn264 2.067 . S
O274 C272 1.270 . S
C275 O268 1.262 . S
C275 O276 1.232 . S
O276 C275 1.232 . S
C277 O269 1.260 . S
C277 O270 1.257 . S
Zn278 O281 2.031 . S
Zn278 O283 2.049 . S
Zn278 O288 2.067 . S
Zn279 O280 1.962 . S
Zn279 O282 1.986 . S
Zn279 O284 1.996 . S
Zn279 O287 1.943 . S
O280 Zn279 1.962 . S
O280 C285 1.254 . S
O281 Zn278 2.031 . S
O281 C285 1.269 . S
O282 Zn279 1.986 . S
O282 C289 1.262 . S
O283 Zn278 2.049 . S
O283 C291 1.260 . S
O284 Zn279 1.996 . S
O284 C291 1.257 . S
C285 O280 1.254 . S
C285 O281 1.269 . S
C286 O287 1.249 . S
C286 O288 1.270 . S
O287 Zn279 1.943 . S
O287 C286 1.249 . S
O288 Zn278 2.067 . S
O288 C286 1.270 . S
C289 O282 1.262 . S
C289 O290 1.232 . S
O290 C289 1.232 . S
C291 O283 1.260 . S
C291 O284 1.257 . S
Zn292 O295 2.031 . S
Zn292 O297 2.049 . S
Zn292 O302 2.067 . S
Zn293 O294 1.962 . S
Zn293 O296 1.986 . S
Zn293 O298 1.996 . S
Zn293 O301 1.943 . S
O294 Zn293 1.962 . S
O294 C299 1.254 . S
O295 Zn292 2.031 . S
O295 C299 1.269 . S
O296 Zn293 1.986 . S
O296 C303 1.262 . S
O297 Zn292 2.049 . S
O297 C305 1.260 . S
O298 Zn293 1.996 . S
O298 C305 1.257 . S
C299 O294 1.254 . S
C299 O295 1.269 . S
C300 O301 1.249 . S
C300 O302 1.270 . S
O301 Zn293 1.943 . S
O301 C300 1.249 . S
O302 Zn292 2.067 . S
O302 C300 1.270 . S
C303 O296 1.262 . S
C303 O304 1.232 . S
O304 C303 1.232 . S
C305 O297 1.260 . S
C305 O298 1.257 . S
Zn306 O309 2.031 . S
Zn306 O311 2.049 . S
Zn306 O316 2.067 . S
Zn307 O308 1.962 . S
Zn307 O310 1.986 . S
Zn307 O312 1.996 1_545 S
Zn307 O315 1.943 . S
O308 Zn307 1.962 . S
O308 C313 1.254 . S
O309 Zn306 2.031 . S
O309 C313 1.269 1_565 S
O310 Zn307 1.986 . S
O310 C317 1.262 . S
O311 Zn306 2.049 . S
O311 C319 1.260 . S
O312 Zn307 1.996 1_565 S
O312 C319 1.257 . S
C313 O308 1.254 . S
C313 O309 1.269 1_545 S
C314 O315 1.249 1_565 S
C314 O316 1.270 . S
O315 Zn307 1.943 . S
O315 C314 1.249 1_545 S
O316 Zn306 2.067 . S
O316 C314 1.270 . S
C317 O310 1.262 . S
C317 O318 1.232 . S
O318 C317 1.232 . S
C319 O311 1.260 . S
C319 O312 1.257 . S
Zn320 O323 2.031 . S
Zn320 O325 2.049 1_455 S
Zn320 O330 2.067 1_455 S
Zn321 O322 1.962 . S
Zn321 O324 1.986 . S
Zn321 O326 1.996 . S
Zn321 O329 1.943 1_455 S
O322 Zn321 1.962 . S
O322 C327 1.254 . S
O323 Zn320 2.031 . S
O323 C327 1.269 . S
O324 Zn321 1.986 . S
O324 C331 1.262 . S
O325 Zn320 2.049 1_655 S
O325 C333 1.260 . S
O326 Zn321 1.996 . S
O326 C333 1.257 1_455 S
C327 O322 1.254 . S
C327 O323 1.269 . S
C328 O329 1.249 . S
C328 O330 1.270 . S
O329 Zn321 1.943 1_655 S
O329 C328 1.249 . S
O330 Zn320 2.067 1_655 S
O330 C328 1.270 . S
C331 O324 1.262 . S
C331 O332 1.232 . S
O332 C331 1.232 . S
C333 O325 1.260 . S
C333 O326 1.257 1_655 S
Zn334 O337 2.031 . S
Zn334 O339 2.049 . S
Zn334 O344 2.067 . S
Zn335 O336 1.962 . S
Zn335 O338 1.986 . S
Zn335 O340 1.996 . S
Zn335 O343 1.943 . S
O336 Zn335 1.962 . S
O336 C341 1.254 . S
O337 Zn334 2.031 . S
O337 C341 1.269 . S
O338 Zn335 1.986 . S
O338 C345 1.262 . S
O339 Zn334 2.049 . S
O339 C347 1.260 . S
O340 Zn335 1.996 . S
O340 C347 1.257 . S
C341 O336 1.254 . S
C341 O337 1.269 . S
C342 O343 1.249 . S
C342 O344 1.270 . S
O343 Zn335 1.943 . S
O343 C342 1.249 . S
O344 Zn334 2.067 . S
O344 C342 1.270 . S
C345 O338 1.262 . S
C345 O346 1.232 . S
O346 C345 1.232 . S
C347 O339 1.260 . S
C347 O340 1.257 . S
Zn348 O351 2.031 1_655 S
Zn348 O353 2.049 . S
Zn348 O358 2.067 . S
Zn349 O350 1.962 . S
Zn349 O352 1.986 . S
Zn349 O354 1.996 1_455 S
Zn349 O357 1.943 . S
O350 Zn349 1.962 . S
O350 C355 1.254 . S
O351 Zn348 2.031 1_455 S
O351 C355 1.269 . S
O352 Zn349 1.986 . S
O352 C359 1.262 . S
O353 Zn348 2.049 . S
O353 C361 1.260 . S
O354 Zn349 1.996 1_655 S
O354 C361 1.257 . S
C355 O350 1.254 . S
C355 O351 1.269 . S
C356 O357 1.249 . S
C356 O358 1.270 1_455 S
O357 Zn349 1.943 . S
O357 C356 1.249 . S
O358 Zn348 2.067 . S
O358 C356 1.270 1_655 S
C359 O352 1.262 . S
C359 O360 1.232 . S
O360 C359 1.232 . S
C361 O353 1.260 . S
C361 O354 1.257 . S
Zn362 O365 2.031 . S
Zn362 O367 2.049 . S
Zn362 O372 2.067 . S
Zn363 O364 1.962 . S
Zn363 O366 1.986 . S
Zn363 O368 1.996 . S
Zn363 O371 1.943 . S
O364 Zn363 1.962 . S
O364 C369 1.254 . S
O365 Zn362 2.031 . S
O365 C369 1.269 . S
O366 Zn363 1.986 . S
O366 C373 1.262 . S
O367 Zn362 2.049 . S
O367 C375 1.260 . S
O368 Zn363 1.996 . S
O368 C375 1.257 . S
C369 O364 1.254 . S
C369 O365 1.269 . S
C370 O371 1.249 . S
C370 O372 1.270 . S
O371 Zn363 1.943 . S
O371 C370 1.249 . S
O372 Zn362 2.067 . S
O372 C370 1.270 . S
C373 O366 1.262 . S
C373 O374 1.232 . S
O374 C373 1.232 . S
C375 O367 1.260 . S
C375 O368 1.257 . S
C376 C377 1.387 . S
C376 H380 0.950 . S
C376 C385 1.390 . S
C377 C376 1.387 . S
C377 C379 1.387 . S
H378 C385 0.950 . S
C379 C377 1.387 . S
C379 C381 1.390 . S
C379 H383 0.950 . S
H380 C376 0.950 . S
C381 C379 1.390 . S
C381 C382 1.387 . S
C381 H384 0.950 . S
C382 C381 1.387 . S
C382 C385 1.387 . S
H383 C379 0.950 . S
H384 C381 0.950 . S
C385 C376 1.390 . S
C385 H378 0.950 . S
C385 C382 1.387 . S
C386 C387 1.387 . S
C386 H390 0.950 . S
C386 C395 1.390 . S
C387 C386 1.387 . S
C387 C389 1.387 . S
H388 C395 0.950 . S
C389 C387 1.387 . S
C389 C391 1.390 . S
C389 H393 0.950 . S
H390 C386 0.950 . S
C391 C389 1.390 . S
C391 C392 1.387 . S
C391 H394 0.950 . S
C392 C391 1.387 . S
C392 C395 1.387 . S
H393 C389 0.950 . S
H394 C391 0.950 . S
C395 C386 1.390 . S
C395 H388 0.950 . S
C395 C392 1.387 . S
C396 C397 1.387 . S
C396 H400 0.950 . S
C396 C405 1.390 . S
C397 C396 1.387 . S
C397 C399 1.387 . S
H398 C405 0.950 . S
C399 C397 1.387 . S
C399 C401 1.390 . S
C399 H403 0.950 . S
H400 C396 0.950 . S
C401 C399 1.390 . S
C401 C402 1.387 . S
C401 H404 0.950 . S
C402 C401 1.387 . S
C402 C405 1.387 . S
H403 C399 0.950 . S
H404 C401 0.950 . S
C405 C396 1.390 . S
C405 H398 0.950 . S
C405 C402 1.387 . S
C406 C407 1.388 1_655 S
C406 H410 0.950 . S
C406 C415 1.390 . S
C407 C406 1.388 1_455 S
C407 C409 1.389 1_465 S
H408 C415 0.950 . S
C409 C407 1.389 1_645 S
C409 C411 1.390 . S
C409 H413 0.950 1_655 S
H410 C406 0.950 . S
C411 C409 1.390 . S
C411 C412 1.387 1_545 S
C411 H414 0.950 . S
C412 C411 1.387 1_565 S
C412 C415 1.387 . S
H413 C409 0.950 1_455 S
H414 C411 0.950 . S
C415 C406 1.390 . S
C415 H408 0.950 . S
C415 C412 1.387 . S
C416 C417 1.387 . S
C416 H420 0.950 . S
C416 C425 1.390 . S
C417 C416 1.387 . S
C417 C419 1.387 . S
H418 C425 0.950 . S
C419 C417 1.387 . S
C419 C421 1.390 . S
C419 H423 0.950 . S
H420 C416 0.950 . S
C421 C419 1.390 . S
C421 C422 1.387 . S
C421 H424 0.950 . S
C422 C421 1.387 . S
C422 C425 1.387 . S
H423 C419 0.950 . S
H424 C421 0.950 . S
C425 C416 1.390 . S
C425 H418 0.950 . S
C425 C422 1.387 . S
C426 C427 1.387 . S
C426 H430 0.950 . S
C426 C435 1.390 . S
C427 C426 1.387 . S
C427 C429 1.387 . S
H428 C435 0.950 . S
C429 C427 1.387 . S
C429 C431 1.390 . S
C429 H433 0.950 . S
H430 C426 0.950 . S
C431 C429 1.390 . S
C431 C432 1.387 . S
C431 H434 0.950 . S
C432 C431 1.387 . S
C432 C435 1.387 . S
H433 C429 0.950 . S
H434 C431 0.950 . S
C435 C426 1.390 . S
C435 H428 0.950 . S
C435 C432 1.387 . S
C436 C437 1.387 . S
C436 H440 0.950 . S
C436 C445 1.390 . S
C437 C436 1.387 . S
C437 C439 1.387 . S
H438 C445 0.950 . S
C439 C437 1.387 . S
C439 C441 1.390 . S
C439 H443 0.950 . S
H440 C436 0.950 . S
C441 C439 1.390 . S
C441 C442 1.387 . S
C441 H444 0.950 . S
C442 C441 1.387 . S
C442 C445 1.387 . S
H443 C439 0.950 . S
H444 C441 0.950 . S
C445 C436 1.390 . S
C445 H438 0.950 . S
C445 C442 1.387 . S
C446 C447 1.387 . S
C446 H450 0.950 . S
C446 C455 1.390 . S
C447 C446 1.387 . S
C447 C449 1.387 . S
H448 C455 0.950 . S
C449 C447 1.387 . S
C449 C451 1.390 . S
C449 H453 0.950 . S
H450 C446 0.950 . S
C451 C449 1.390 . S
C451 C452 1.387 . S
C451 H454 0.950 . S
C452 C451 1.387 . S
C452 C455 1.387 . S
H453 C449 0.950 . S
H454 C451 0.950 . S
C455 C446 1.390 . S
C455 H448 0.950 . S
C455 C452 1.387 . S
C456 C457 1.387 . S
C456 H460 0.950 . S
C456 C465 1.390 . S
C457 C456 1.387 . S
C457 C459 1.387 . S
H458 C465 0.950 . S
C459 C457 1.387 . S
C459 C461 1.390 . S
C459 H463 0.950 . S
H460 C456 0.950 . S
C461 C459 1.390 . S
C461 C462 1.387 . S
C461 H464 0.950 . S
C462 C461 1.387 . S
C462 C465 1.387 . S
H463 C459 0.950 . S
H464 C461 0.950 . S
C465 C456 1.390 . S
C465 H458 0.950 . S
C465 C462 1.387 . S
C466 C467 1.387 . S
C466 H470 0.950 . S
C466 C475 1.390 . S
C467 C466 1.387 . S
C467 C469 1.387 . S
H468 C475 0.950 . S
C469 C467 1.387 . S
C469 C471 1.390 . S
C469 H473 0.950 . S
H470 C466 0.950 . S
C471 C469 1.390 . S
C471 C472 1.387 . S
C471 H474 0.950 . S
C472 C471 1.387 . S
C472 C475 1.387 . S
H473 C469 0.950 . S
H474 C471 0.950 . S
C475 C466 1.390 . S
C475 H468 0.950 . S
C475 C472 1.387 . S
C476 C477 1.387 . S
C476 H480 0.950 . S
C476 C485 1.390 . S
C477 C476 1.387 . S
C477 C479 1.387 . S
H478 C485 0.950 . S
C479 C477 1.387 . S
C479 C481 1.390 . S
C479 H483 0.950 . S
H480 C476 0.950 . S
C481 C479 1.390 . S
C481 C482 1.387 . S
C481 H484 0.950 . S
C482 C481 1.387 . S
C482 C485 1.387 . S
H483 C479 0.950 . S
H484 C481 0.950 . S
C485 C476 1.390 . S
C485 H478 0.950 . S
C485 C482 1.387 . S
C486 C487 1.387 . S
C486 H490 0.950 . S
C486 C495 1.390 . S
C487 C486 1.387 . S
C487 C489 1.387 . S
H488 C495 0.950 . S
C489 C487 1.387 . S
C489 C491 1.390 . S
C489 H493 0.950 . S
H490 C486 0.950 . S
C491 C489 1.390 . S
C491 C492 1.387 . S
C491 H494 0.950 . S
C492 C491 1.387 . S
C492 C495 1.387 . S
H493 C489 0.950 . S
H494 C491 0.950 . S
C495 C486 1.390 . S
C495 H488 0.950 . S
C495 C492 1.387 . S
C496 C497 1.387 . S
C496 H500 0.950 . S
C496 C505 1.390 . S
C497 C496 1.387 . S
C497 C499 1.387 . S
H498 C505 0.950 . S
C499 C497 1.387 . S
C499 C501 1.390 . S
C499 H503 0.950 . S
H500 C496 0.950 . S
C501 C499 1.390 . S
C501 C502 1.387 . S
C501 H504 0.950 . S
C502 C501 1.387 . S
C502 C505 1.387 . S
H503 C499 0.950 . S
H504 C501 0.950 . S
C505 C496 1.390 . S
C505 H498 0.950 . S
C505 C502 1.387 . S
C506 C507 1.387 . S
C506 H510 0.950 . S
C506 C515 1.390 . S
C507 C506 1.387 . S
C507 C509 1.387 . S
H508 C515 0.950 . S
C509 C507 1.387 . S
C509 C511 1.390 . S
C509 H513 0.950 . S
H510 C506 0.950 . S
C511 C509 1.390 . S
C511 C512 1.387 . S
C511 H514 0.950 . S
C512 C511 1.387 . S
C512 C515 1.387 . S
H513 C509 0.950 . S
H514 C511 0.950 . S
C515 C506 1.390 . S
C515 H508 0.950 . S
C515 C512 1.387 . S
C516 C517 1.387 . S
C516 H520 0.950 . S
C516 C525 1.390 . S
C517 C516 1.387 . S
C517 C519 1.387 . S
H518 C525 0.950 . S
C519 C517 1.387 . S
C519 C521 1.390 . S
C519 H523 0.950 . S
H520 C516 0.950 . S
C521 C519 1.390 . S
C521 C522 1.387 . S
C521 H524 0.950 . S
C522 C521 1.387 . S
C522 C525 1.387 . S
H523 C519 0.950 . S
H524 C521 0.950 . S
C525 C516 1.390 . S
C525 H518 0.950 . S
C525 C522 1.387 . S
C526 C527 1.387 1_455 S
C526 H530 0.950 . S
C526 C535 1.390 . S
C527 C526 1.387 1_655 S
C527 C529 1.387 . S
H528 C535 0.950 . S
C529 C527 1.387 . S
C529 C531 1.390 . S
C529 H533 0.950 . S
H530 C526 0.950 . S
C531 C529 1.390 . S
C531 C532 1.387 . S
C531 H534 0.950 . S
C532 C531 1.387 . S
C532 C535 1.387 1_655 S
H533 C529 0.950 . S
H534 C531 0.950 . S
C535 C526 1.390 . S
C535 H528 0.950 . S
C535 C532 1.387 1_455 S
C536 C537 1.387 . S
C536 H540 0.950 . S
C536 C545 1.390 . S
C537 C536 1.387 . S
C537 C539 1.387 . S
H538 C545 0.950 . S
C539 C537 1.387 . S
C539 C541 1.390 . S
C539 H543 0.950 . S
H540 C536 0.950 . S
C541 C539 1.390 . S
C541 C542 1.387 . S
C541 H544 0.950 . S
C542 C541 1.387 . S
C542 C545 1.387 . S
H543 C539 0.950 . S
H544 C541 0.950 . S
C545 C536 1.390 . S
C545 H538 0.950 . S
C545 C542 1.387 . S
C546 C547 1.387 . S
C546 H550 0.950 . S
C546 C555 1.390 . S
C547 C546 1.387 . S
C547 C549 1.387 . S
H548 C555 0.950 . S
C549 C547 1.387 . S
C549 C551 1.390 . S
C549 H553 0.950 . S
H550 C546 0.950 . S
C551 C549 1.390 . S
C551 C552 1.387 . S
C551 H554 0.950 . S
C552 C551 1.387 . S
C552 C555 1.387 . S
H553 C549 0.950 . S
H554 C551 0.950 . S
C555 C546 1.390 . S
C555 H548 0.950 . S
C555 C552 1.387 . S
C556 C557 1.387 . S
C556 H560 0.950 . S
C556 C565 1.390 1_545 S
C557 C556 1.387 . S
C557 C559 1.387 1_556 S
H558 C565 0.950 . S
C559 C557 1.387 1_554 S
C559 C561 1.390 1_545 S
C559 H563 0.950 . S
H560 C556 0.950 . S
C561 C559 1.390 1_565 S
C561 C562 1.387 1_554 S
C561 H564 0.950 . S
C562 C561 1.387 1_556 S
C562 C565 1.387 . S
H563 C559 0.950 . S
H564 C561 0.950 . S
C565 C556 1.390 1_565 S
C565 H558 0.950 . S
C565 C562 1.387 . S
C566 C567 1.387 . S
C566 H570 0.950 . S
C566 C575 1.390 . S
C567 C566 1.387 . S
C567 C569 1.387 . S
H568 C575 0.950 . S
C569 C567 1.387 . S
C569 C571 1.390 . S
C569 H573 0.950 . S
H570 C566 0.950 . S
C571 C569 1.390 . S
C571 C572 1.387 . S
C571 H574 0.950 . S
C572 C571 1.387 . S
C572 C575 1.387 . S
H573 C569 0.950 . S
H574 C571 0.950 . S
C575 C566 1.390 . S
C575 H568 0.950 . S
C575 C572 1.387 . S
C576 C577 1.387 . S
C576 H580 0.950 . S
C576 C585 1.390 . S
C577 C576 1.387 . S
C577 C579 1.387 1_545 S
H578 C585 0.950 . S
C579 C577 1.387 1_565 S
C579 C581 1.390 1_565 S
C579 H583 0.950 . S
H580 C576 0.950 . S
C581 C579 1.390 1_545 S
C581 C582 1.387 . S
C581 H584 0.950 . S
C582 C581 1.387 . S
C582 C585 1.387 . S
H583 C579 0.950 . S
H584 C581 0.950 . S
C585 C576 1.390 . S
C585 H578 0.950 . S
C585 C582 1.387 . S
C586 C587 1.387 . S
C586 H590 0.950 . S
C586 C595 1.390 . S
C587 C586 1.387 . S
C587 C589 1.387 . S
H588 C595 0.950 . S
C589 C587 1.387 . S
C589 C591 1.390 . S
C589 H593 0.950 . S
H590 C586 0.950 . S
C591 C589 1.390 . S
C591 C592 1.387 . S
C591 H594 0.950 . S
C592 C591 1.387 . S
C592 C595 1.387 . S
H593 C589 0.950 . S
H594 C591 0.950 . S
C595 C586 1.390 . S
C595 H588 0.950 . S
C595 C592 1.387 . S
C596 C597 1.387 . S
C596 H600 0.950 . S
C596 C605 1.390 . S
C597 C596 1.387 . S
C597 C599 1.387 . S
H598 C605 0.950 . S
C599 C597 1.387 . S
C599 C601 1.390 . S
C599 H603 0.950 . S
H600 C596 0.950 . S
C601 C599 1.390 . S
C601 C602 1.387 . S
C601 H604 0.950 . S
C602 C601 1.387 . S
C602 C605 1.387 . S
H603 C599 0.950 . S
H604 C601 0.950 . S
C605 C596 1.390 . S
C605 H598 0.950 . S
C605 C602 1.387 . S
C606 C607 1.387 . S
C606 H610 0.950 . S
C606 C615 1.390 . S
C607 C606 1.387 . S
C607 C609 1.387 . S
H608 C615 0.950 . S
C609 C607 1.387 . S
C609 C611 1.390 . S
C609 H613 0.950 . S
H610 C606 0.950 . S
C611 C609 1.390 . S
C611 C612 1.387 . S
C611 H614 0.950 . S
C612 C611 1.387 . S
C612 C615 1.387 . S
H613 C609 0.950 . S
H614 C611 0.950 . S
C615 C606 1.390 . S
C615 H608 0.950 . S
C615 C612 1.387 . S
C616 C617 1.387 . S
C616 H620 0.950 . S
C616 C625 1.390 . S
C617 C616 1.387 . S
C617 C619 1.387 . S
H618 C625 0.950 . S
C619 C617 1.387 . S
C619 C621 1.390 . S
C619 H623 0.950 . S
H620 C616 0.950 . S
C621 C619 1.390 . S
C621 C622 1.387 . S
C621 H624 0.950 . S
C622 C621 1.387 . S
C622 C625 1.387 . S
H623 C619 0.950 . S
H624 C621 0.950 . S
C625 C616 1.390 . S
C625 H618 0.950 . S
C625 C622 1.387 . S
C626 C627 1.387 . S
C626 H630 0.950 . S
C626 C635 1.390 . S
C627 C626 1.387 . S
C627 C629 1.387 . S
H628 C635 0.950 1_565 S
C629 C627 1.387 . S
C629 C631 1.390 . S
C629 H633 0.950 . S
H630 C626 0.950 . S
C631 C629 1.390 . S
C631 C632 1.387 . S
C631 H634 0.950 . S
C632 C631 1.387 . S
C632 C635 1.387 . S
H633 C629 0.950 . S
H634 C631 0.950 . S
C635 C626 1.390 . S
C635 H628 0.950 1_545 S
C635 C632 1.387 . S
C636 C637 1.387 . S
C636 H640 0.950 . S
C636 C645 1.390 . S
C637 C636 1.387 . S
C637 C639 1.387 . S
H638 C645 0.950 . S
C639 C637 1.387 . S
C639 C641 1.390 . S
C639 H643 0.950 . S
H640 C636 0.950 . S
C641 C639 1.390 . S
C641 C642 1.387 . S
C641 H644 0.950 . S
C642 C641 1.387 . S
C642 C645 1.387 . S
H643 C639 0.950 . S
H644 C641 0.950 . S
C645 C636 1.390 . S
C645 H638 0.950 . S
C645 C642 1.387 . S
C646 C647 1.387 . S
C646 H650 0.950 . S
C646 C655 1.390 . S
C647 C646 1.387 . S
C647 C649 1.387 . S
H648 C655 0.950 . S
C649 C647 1.387 . S
C649 C651 1.390 . S
C649 H653 0.950 . S
H650 C646 0.950 . S
C651 C649 1.390 . S
C651 C652 1.387 . S
C651 H654 0.950 . S
C652 C651 1.387 . S
C652 C655 1.387 . S
H653 C649 0.950 . S
H654 C651 0.950 . S
C655 C646 1.390 . S
C655 H648 0.950 . S
C655 C652 1.387 . S
C656 C657 1.387 . S
C656 H660 0.950 . S
C656 C665 1.390 . S
C657 C656 1.387 . S
C657 C659 1.387 . S
H658 C665 0.950 . S
C659 C657 1.387 . S
C659 C661 1.390 . S
C659 H663 0.950 . S
H660 C656 0.950 . S
C661 C659 1.390 . S
C661 C662 1.387 . S
C661 H664 0.950 . S
C662 C661 1.387 . S
C662 C665 1.387 . S
H663 C659 0.950 . S
H664 C661 0.950 . S
C665 C656 1.390 . S
C665 H658 0.950 . S
C665 C662 1.387 . S
C666 C667 1.387 . S
C666 H670 0.950 1_545 S
C666 C675 1.390 . S
C667 C666 1.387 . S
C667 C669 1.387 . S
H668 C675 0.950 1_565 S
C669 C667 1.387 . S
C669 C671 1.390 . S
C669 H673 0.950 . S
H670 C666 0.950 1_565 S
C671 C669 1.390 . S
C671 C672 1.387 . S
C671 H674 0.950 . S
C672 C671 1.387 . S
C672 C675 1.387 . S
H673 C669 0.950 . S
H674 C671 0.950 . S
C675 C666 1.390 . S
C675 H668 0.950 1_545 S
C675 C672 1.387 . S
C676 C677 1.387 . S
C676 H680 0.950 . S
C676 C685 1.390 . S
C677 C676 1.387 . S
C677 C679 1.387 . S
H678 C685 0.950 . S
C679 C677 1.387 . S
C679 C681 1.390 . S
C679 H683 0.950 . S
H680 C676 0.950 . S
C681 C679 1.390 . S
C681 C682 1.387 . S
C681 H684 0.950 . S
C682 C681 1.387 . S
C682 C685 1.387 . S
H683 C679 0.950 . S
H684 C681 0.950 . S
C685 C676 1.390 . S
C685 H678 0.950 . S
C685 C682 1.387 . S
C686 C687 1.387 . S
C686 H690 0.950 . S
C686 C695 1.390 . S
C687 C686 1.387 . S
C687 C689 1.387 . S
H688 C695 0.950 . S
C689 C687 1.387 . S
C689 C691 1.390 . S
C689 H693 0.950 . S
H690 C686 0.950 . S
C691 C689 1.390 . S
C691 C692 1.387 . S
C691 H694 0.950 . S
C692 C691 1.387 . S
C692 C695 1.387 . S
H693 C689 0.950 . S
H694 C691 0.950 . S
C695 C686 1.390 . S
C695 H688 0.950 . S
C695 C692 1.387 . S
C696 C697 1.387 . S
C696 H700 0.950 . S
C696 C705 1.390 . S
C697 C696 1.387 . S
C697 C699 1.387 . S
H698 C705 0.950 . S
C699 C697 1.387 . S
C699 C701 1.390 . S
C699 H703 0.950 . S
H700 C696 0.950 . S
C701 C699 1.390 . S
C701 C702 1.387 . S
C701 H704 0.950 . S
C702 C701 1.387 . S
C702 C705 1.387 . S
H703 C699 0.950 . S
H704 C701 0.950 . S
C705 C696 1.390 . S
C705 H698 0.950 . S
C705 C702 1.387 . S
C706 C707 1.387 1_556 S
C706 H710 0.950 . S
C706 C715 1.390 . S
C707 C706 1.387 1_554 S
C707 C709 1.387 . S
H708 C715 0.950 . S
C709 C707 1.387 . S
C709 C711 1.392 1_554 S
C709 H713 0.951 . S
H710 C706 0.950 . S
C711 C709 1.392 1_556 S
C711 C712 1.389 . S
C711 H714 0.946 1_656 S
C712 C711 1.389 . S
C712 C715 1.387 . S
H713 C709 0.951 . S
H714 C711 0.946 1_454 S
C715 C706 1.390 . S
C715 H708 0.950 . S
C715 C712 1.387 . S
C716 C717 1.387 . S
C716 H720 0.950 . S
C716 C725 1.390 . S
C717 C716 1.387 . S
C717 C719 1.387 . S
H718 C725 0.950 . S
C719 C717 1.387 . S
C719 C721 1.390 . S
C719 H723 0.950 . S
H720 C716 0.950 . S
C721 C719 1.390 . S
C721 C722 1.387 . S
C721 H724 0.950 . S
C722 C721 1.387 . S
C722 C725 1.387 . S
H723 C719 0.950 . S
H724 C721 0.950 . S
C725 C716 1.390 . S
C725 H718 0.950 . S
C725 C722 1.387 . S
C726 C727 1.379 1_654 S
C726 H730 0.950 . S
C726 C735 1.390 1_554 S
C727 C726 1.379 1_456 S
C727 C729 1.409 . S
H728 C735 0.950 . S
C729 C727 1.409 . S
C729 C731 1.390 . S
C729 H733 0.950 . S
H730 C726 0.950 . S
C731 C729 1.390 . S
C731 C732 1.387 . S
C731 H734 0.950 . S
C732 C731 1.387 . S
C732 C735 1.387 1_455 S
H733 C729 0.950 . S
H734 C731 0.950 . S
C735 C726 1.390 1_556 S
C735 H728 0.950 . S
C735 C732 1.387 1_655 S
C736 C737 1.387 . S
C736 H740 0.950 . S
C736 C745 1.390 . S
C737 C736 1.387 . S
C737 C739 1.387 . S
H738 C745 0.950 . S
C739 C737 1.387 . S
C739 C741 1.390 . S
C739 H743 0.950 . S
H740 C736 0.950 . S
C741 C739 1.390 . S
C741 C742 1.387 . S
C741 H744 0.950 . S
C742 C741 1.387 . S
C742 C745 1.387 . S
H743 C739 0.950 . S
H744 C741 0.950 . S
C745 C736 1.390 . S
C745 H738 0.950 . S
C745 C742 1.387 . S
C746 C747 1.387 . S
C746 H750 0.950 . S
C746 C755 1.390 . S
C747 C746 1.387 . S
C747 C749 1.387 . S
H748 C755 0.950 . S
C749 C747 1.387 . S
C749 C751 1.390 . S
C749 H753 0.950 1_554 S
H750 C746 0.950 . S
C751 C749 1.390 . S
C751 C752 1.387 . S
C751 H754 0.950 . S
C752 C751 1.387 . S
C752 C755 1.387 . S
H753 C749 0.950 1_556 S
H754 C751 0.950 . S
C755 C746 1.390 . S
C755 H748 0.950 . S
C755 C752 1.387 . S
C756 C757 1.387 . S
C756 H760 0.950 . S
C756 C765 1.390 . S
C757 C756 1.387 . S
C757 C759 1.387 . S
H758 C765 0.950 . S
C759 C757 1.387 . S
C759 C761 1.390 . S
C759 H763 0.950 . S
H760 C756 0.950 . S
C761 C759 1.390 . S
C761 C762 1.387 . S
C761 H764 0.950 . S
C762 C761 1.387 . S
C762 C765 1.387 . S
H763 C759 0.950 . S
H764 C761 0.950 . S
C765 C756 1.390 . S
C765 H758 0.950 . S
C765 C762 1.387 . S
C766 C767 1.387 . S
C766 H770 0.950 . S
C766 C775 1.390 . S
C767 C766 1.387 . S
C767 C769 1.387 . S
H768 C775 0.950 . S
C769 C767 1.387 . S
C769 C771 1.390 . S
C769 H773 0.950 . S
H770 C766 0.950 . S
C771 C769 1.390 . S
C771 C772 1.387 . S
C771 H774 0.950 . S
C772 C771 1.387 . S
C772 C775 1.387 . S
H773 C769 0.950 . S
H774 C771 0.950 . S
C775 C766 1.390 . S
C775 H768 0.950 . S
C775 C772 1.387 . S
C776 C777 1.387 . S
C776 H780 0.950 . S
C776 C785 1.390 . S
C777 C776 1.387 . S
C777 C779 1.387 . S
H778 C785 0.950 . S
C779 C777 1.387 . S
C779 C781 1.390 . S
C779 H783 0.950 . S
H780 C776 0.950 . S
C781 C779 1.390 . S
C781 C782 1.387 . S
C781 H784 0.950 . S
C782 C781 1.387 . S
C782 C785 1.387 . S
H783 C779 0.950 . S
H784 C781 0.950 . S
C785 C776 1.390 . S
C785 H778 0.950 . S
C785 C782 1.387 . S
C786 C787 1.387 . S
C786 H790 0.950 . S
C786 C795 1.390 . S
C787 C786 1.387 . S
C787 C789 1.387 . S
H788 C795 0.950 . S
C789 C787 1.387 . S
C789 C791 1.390 . S
C789 H793 0.950 . S
H790 C786 0.950 . S
C791 C789 1.390 . S
C791 C792 1.387 . S
C791 H794 0.950 . S
C792 C791 1.387 . S
C792 C795 1.387 . S
H793 C789 0.950 . S
H794 C791 0.950 . S
C795 C786 1.390 . S
C795 H788 0.950 . S
C795 C792 1.387 . S
C796 C797 1.387 . S
C796 H800 0.950 . S
C796 C805 1.390 . S
C797 C796 1.387 . S
C797 C799 1.387 . S
H798 C805 0.950 . S
C799 C797 1.387 . S
C799 C801 1.390 . S
C799 H803 0.950 . S
H800 C796 0.950 . S
C801 C799 1.390 . S
C801 C802 1.387 . S
C801 H804 0.950 . S
C802 C801 1.387 . S
C802 C805 1.387 . S
H803 C799 0.950 . S
H804 C801 0.950 . S
C805 C796 1.390 . S
C805 H798 0.950 . S
C805 C802 1.387 . S
C806 C807 1.387 . S
C806 H810 0.950 . S
C806 C815 1.390 . S
C807 C806 1.387 . S
C807 C809 1.387 . S
H808 C815 0.950 . S
C809 C807 1.387 . S
C809 C811 1.390 . S
C809 H813 0.950 . S
H810 C806 0.950 . S
C811 C809 1.390 . S
C811 C812 1.387 . S
C811 H814 0.950 . S
C812 C811 1.387 . S
C812 C815 1.387 . S
H813 C809 0.950 . S
H814 C811 0.950 . S
C815 C806 1.390 . S
C815 H808 0.950 . S
C815 C812 1.387 . S
C816 C817 1.387 . S
C816 H820 0.950 . S
C816 C825 1.390 . S
C817 C816 1.387 . S
C817 C819 1.387 1_556 S
H818 C825 0.950 . S
C819 C817 1.387 1_554 S
C819 C821 1.390 . S
C819 H823 0.950 . S
H820 C816 0.950 . S
C821 C819 1.390 . S
C821 C822 1.387 . S
C821 H824 0.950 . S
C822 C821 1.387 . S
C822 C825 1.387 1_554 S
H823 C819 0.950 . S
H824 C821 0.950 . S
C825 C816 1.390 . S
C825 H818 0.950 . S
C825 C822 1.387 1_556 S
C826 C827 1.387 . S
C826 H830 0.950 . S
C826 C835 1.390 . S
C827 C826 1.387 . S
C827 C829 1.387 . S
H828 C835 0.950 . S
C829 C827 1.387 . S
C829 C831 1.390 . S
C829 H833 0.950 . S
H830 C826 0.950 . S
C831 C829 1.390 . S
C831 C832 1.387 . S
C831 H834 0.950 . S
C832 C831 1.387 . S
C832 C835 1.387 . S
H833 C829 0.950 . S
H834 C831 0.950 . S
C835 C826 1.390 . S
C835 H828 0.950 . S
C835 C832 1.387 . S
C836 C837 1.387 . S
C836 H840 0.950 . S
C836 C845 1.390 . S
C837 C836 1.387 . S
C837 C839 1.387 . S
H838 C845 0.950 . S
C839 C837 1.387 . S
C839 C841 1.390 . S
C839 H843 0.950 . S
H840 C836 0.950 . S
C841 C839 1.390 . S
C841 C842 1.387 . S
C841 H844 0.950 . S
C842 C841 1.387 . S
C842 C845 1.387 . S
H843 C839 0.950 . S
H844 C841 0.950 . S
C845 C836 1.390 . S
C845 H838 0.950 . S
C845 C842 1.387 . S
C846 C847 1.387 . S
C846 H850 0.950 1_564 S
C846 C855 1.390 1_554 S
C847 C846 1.387 . S
C847 C849 1.387 . S
H848 C855 0.950 . S
C849 C847 1.387 . S
C849 C851 1.390 . S
C849 H853 0.950 . S
H850 C846 0.950 1_546 S
C851 C849 1.390 . S
C851 C852 1.387 . S
C851 H854 0.950 . S
C852 C851 1.387 . S
C852 C855 1.387 1_554 S
H853 C849 0.950 . S
H854 C851 0.950 . S
C855 C846 1.390 1_556 S
C855 H848 0.950 . S
C855 C852 1.387 1_556 S
C382 C216 1.643 . S
C377 C73 1.690 . S
C392 C229 1.359 . S
C387 C82 1.305 . S
C397 C100 1.860 . S
C402 C249 1.755 . S
C412 C263 1.313 1_565 S
C407 C56 1.322 . S
C422 C275 1.468 . S
C417 C134 1.462 . S
C432 C289 1.646 . S
C427 C165 1.628 . S
C437 C147 1.226 . S
C442 C299 1.267 . S
C452 C314 1.811 . S
C447 C125 1.811 . S
C457 C151 1.420 . S
C462 C328 1.415 . S
C472 C347 1.411 . S
C467 C121 1.407 . S
C477 C139 1.708 . S
C482 C327 1.714 . S
C492 C345 1.346 . S
C487 C164 1.343 . S
C497 C95 1.439 . S
C502 C361 1.391 . S
C507 C61 1.483 . S
C512 C355 1.489 . S
C517 C74 1.484 . S
C522 C359 1.481 . S
C527 C86 1.735 . S
C532 C356 1.707 1_655 S
C537 C47 1.470 . S
C542 C258 1.430 . S
C547 C186 1.309 . S
C552 C257 1.359 . S
C562 C221 1.361 . S
C557 C204 1.476 . S
C572 C235 1.736 . S
C567 C112 1.846 . S
C577 C60 1.437 1_545 S
C582 C272 1.399 . S
C592 C317 1.468 . S
C587 C152 1.464 . S
C602 C271 1.794 . S
C597 C126 1.809 1_545 S
C612 C303 1.319 . S
C607 C160 1.324 . S
C622 C300 1.643 . S
C617 C190 1.690 . S
C627 C199 1.308 . S
C632 C313 1.359 . S
C637 C113 1.860 . S
C642 C277 1.753 . S
C652 C291 1.313 . S
C647 C173 1.324 . S
C657 C43 1.460 . S
C662 C247 1.469 . S
C672 C261 1.646 . S
C667 C9 1.628 1_655 S
C682 C215 1.268 . S
C677 C17 1.228 . S
C692 C230 1.811 . S
C687 C34 1.810 1_455 S
C697 C21 1.420 . S
C702 C342 1.415 . S
C707 C30 1.407 . S
C712 C333 1.411 . S
C717 C48 1.708 . S
C722 C341 1.714 . S
C727 C8 1.330 1_556 S
C732 C331 1.346 . S
C742 C375 1.396 . S
C737 C108 1.441 . S
C752 C369 1.489 . S
C747 C178 1.484 1_554 S
C762 C373 1.480 . S
C757 C191 1.484 . S
C767 C203 1.736 . S
C772 C370 1.706 . S
C777 C138 1.470 . S
C782 C286 1.428 . S
C792 C285 1.359 . S
C787 C69 1.310 . S
C802 C305 1.361 . S
C797 C87 1.475 . S
C812 C319 1.736 . S
C807 C99 1.847 . S
C817 C177 1.437 . S
C822 C244 1.398 . S
C832 C233 1.467 . S
C827 C22 1.463 . S
C837 C35 1.809 . S
C842 C243 1.794 . S
C852 C219 1.319 . S
C847 C4 1.325 . S
