# Generated by pormake.
# Topology csq, (4,8)-cn, num edge types: 1
# Building blocks:
#     Node 0, Type 0, BuildingBlock: NAHDIM_clean_linker_0, # of connection points: 4
#     Node 1, Type 0, BuildingBlock: NAHDIM_clean_linker_0, # of connection points: 4
#     Node 2, Type 0, BuildingBlock: NAHDIM_clean_linker_0, # of connection points: 4
#     Node 3, Type 0, BuildingBlock: NAHDIM_clean_linker_0, # of connection points: 4
#     Node 4, Type 0, BuildingBlock: NAHDIM_clean_linker_0, # of connection points: 4
#     Node 5, Type 0, BuildingBlock: NAHDIM_clean_linker_0, # of connection points: 4
#     Node 6, Type 1, BuildingBlock: TAGTUT_clean_sbu_1, # of connection points: 8
#     Node 7, Type 1, BuildingBlock: TAGTUT_clean_sbu_1, # of connection points: 8
#     Node 8, Type 1, BuildingBlock: TAGTUT_clean_sbu_1, # of connection points: 8
#     Edge 9, Type (0, 1), BuildingBlock: KIFKEQ_clean_linker_1, # of connection points: 2
#     Edge 10, Type (0, 1), BuildingBlock: KIFKEQ_clean_linker_1, # of connection points: 2
#     Edge 11, Type (0, 1), BuildingBlock: KIFKEQ_clean_linker_1, # of connection points: 2
#     Edge 12, Type (0, 1), BuildingBlock: KIFKEQ_clean_linker_1, # of connection points: 2
#     Edge 13, Type (0, 1), BuildingBlock: KIFKEQ_clean_linker_1, # of connection points: 2
#     Edge 14, Type (0, 1), BuildingBlock: KIFKEQ_clean_linker_1, # of connection points: 2
#     Edge 15, Type (0, 1), BuildingBlock: KIFKEQ_clean_linker_1, # of connection points: 2
#     Edge 16, Type (0, 1), BuildingBlock: KIFKEQ_clean_linker_1, # of connection points: 2
#     Edge 17, Type (0, 1), BuildingBlock: KIFKEQ_clean_linker_1, # of connection points: 2
#     Edge 18, Type (0, 1), BuildingBlock: KIFKEQ_clean_linker_1, # of connection points: 2
#     Edge 19, Type (0, 1), BuildingBlock: KIFKEQ_clean_linker_1, # of connection points: 2
#     Edge 20, Type (0, 1), BuildingBlock: KIFKEQ_clean_linker_1, # of connection points: 2
#     Edge 21, Type (0, 1), BuildingBlock: KIFKEQ_clean_linker_1, # of connection points: 2
#     Edge 22, Type (0, 1), BuildingBlock: KIFKEQ_clean_linker_1, # of connection points: 2
#     Edge 23, Type (0, 1), BuildingBlock: KIFKEQ_clean_linker_1, # of connection points: 2
#     Edge 24, Type (0, 1), BuildingBlock: KIFKEQ_clean_linker_1, # of connection points: 2
#     Edge 25, Type (0, 1), BuildingBlock: KIFKEQ_clean_linker_1, # of connection points: 2
#     Edge 26, Type (0, 1), BuildingBlock: KIFKEQ_clean_linker_1, # of connection points: 2
#     Edge 27, Type (0, 1), BuildingBlock: KIFKEQ_clean_linker_1, # of connection points: 2
#     Edge 28, Type (0, 1), BuildingBlock: KIFKEQ_clean_linker_1, # of connection points: 2
#     Edge 29, Type (0, 1), BuildingBlock: KIFKEQ_clean_linker_1, # of connection points: 2
#     Edge 30, Type (0, 1), BuildingBlock: KIFKEQ_clean_linker_1, # of connection points: 2
#     Edge 31, Type (0, 1), BuildingBlock: KIFKEQ_clean_linker_1, # of connection points: 2
#     Edge 32, Type (0, 1), BuildingBlock: KIFKEQ_clean_linker_1, # of connection points: 2
# Relax obj value: 0.050
# Max RMSD: 0.134
# Mean RMSD: 0.089
data_MOF--net-csq--node1-TAGTUT_clean_sbu_1--node2-NAHDIM_clean_linker_0--edge1-KIFKEQ_clean_linker_1
_symmetry_space_group_name_H-M    P1
_symmetry_Int_Tables_number       1
_symmetry_cell_setting            triclinic
loop_
_symmetry_equiv_pos_as_xyz
'x, y, z'
_cell_length_a     68.828064
_cell_length_b     67.573716
_cell_length_c     27.238369
_cell_angle_alpha  92.218513
_cell_angle_beta   92.213749
_cell_angle_gamma 119.93843
loop_
_atom_site_label
_atom_site_type_symbol
_atom_site_fract_x
_atom_site_fract_y
_atom_site_fract_z
_atom_type_partial_charge
C0 C 0.30979 0.48791 0.49938 0.0
C1 C 0.32095 0.48183 0.45841 0.0
C2 C 0.30719 0.48717 0.37838 0.0
C3 C 0.29568 0.46441 0.35832 0.0
C4 C 0.2792 0.45754 0.31934 0.0
C5 C 0.27441 0.4738 0.29951 0.0
C6 C 0.28693 0.49698 0.31767 0.0
C7 C 0.3033 0.50338 0.35669 0.0
C8 C 0.26643 0.43275 0.30018 0.0
C9 C 0.28246 0.51481 0.29693 0.0
C10 C 0.11007 0.39923 0.37797 0.0
C11 C 0.12802 0.42446 0.38872 0.0
C12 C 0.15468 0.43814 0.32364 0.0
C13 C 0.16494 0.4565 0.2938 0.0
C14 C 0.18461 0.46134 0.27098 0.0
C15 C 0.19349 0.44652 0.27585 0.0
C16 C 0.1828 0.42748 0.3051 0.0
C17 C 0.16375 0.42375 0.32945 0.0
C18 C 0.19593 0.4825 0.24232 0.0
C19 C 0.19148 0.41106 0.31082 0.0
C20 C 0.16141 0.42167 0.94375 0.0
C21 C 0.17104 0.44352 0.96794 0.0
C22 C 0.19008 0.45172 0.00081 0.0
C23 C 0.19929 0.4375 0.01044 0.0
C24 C 0.18973 0.41557 0.98545 0.0
C25 C 0.17112 0.40812 0.95173 0.0
C26 C 0.20037 0.47558 0.025 0.0
C27 C 0.19907 0.39992 0.99451 0.0
C28 C 0.35975 0.46886 0.97625 0.0
C29 C 0.34457 0.46949 0.93433 0.0
C30 C 0.31818 0.47762 0.97713 0.0
C31 C 0.31213 0.49417 0.98745 0.0
C32 C 0.29359 0.48931 0.01496 0.0
C33 C 0.28075 0.46728 0.0325 0.0
C34 C 0.28702 0.45056 0.02318 0.0
C35 C 0.30568 0.45589 0.99579 0.0
C36 C 0.28741 0.50756 0.02446 0.0
C37 C 0.27363 0.42685 0.04122 0.0
C38 C 0.25478 0.46609 0.26369 0.0
C39 C 0.23414 0.45995 0.28293 0.0
C40 C 0.21451 0.45156 0.25237 0.0
C41 C 0.21541 0.44907 0.20082 0.0
C42 C 0.19586 0.43961 0.16903 0.0
C43 C 0.19704 0.43826 0.11823 0.0
C44 C 0.21781 0.44628 0.09725 0.0
C45 C 0.21927 0.44576 0.04559 0.0
C46 C 0.2401 0.45315 0.02612 0.0
C47 C 0.25965 0.46101 0.05668 0.0
C48 C 0.25864 0.46214 0.10844 0.0
C49 C 0.27802 0.4703 0.14036 0.0
C50 C 0.27681 0.47146 0.19128 0.0
C51 C 0.2562 0.46464 0.21212 0.0
C52 C 0.23641 0.45617 0.1806 0.0
C53 C 0.23763 0.45487 0.12873 0.0
C54 C 0.1031 0.39259 0.91346 0.0
C55 C 0.1245 0.41603 0.91953 0.0
O56 O 0.32234 0.49421 0.41791 0.0
O57 O 0.33598 0.48333 0.949 0.0
O58 O 0.14283 0.41325 0.91237 0.0
O59 O 0.13587 0.43471 0.34514 0.0
H60 H 0.31008 0.46314 0.44959 0.0
H61 H 0.29197 0.4818 0.48744 0.0
H62 H 0.31827 0.5067 0.5078 0.0
H63 H 0.31014 0.47947 0.53337 0.0
H64 H 0.29947 0.45194 0.37266 0.0
H65 H 0.31263 0.52101 0.37161 0.0
H66 H 0.24842 0.42525 0.30749 0.0
H67 H 0.27297 0.42243 0.31754 0.0
H68 H 0.26742 0.43147 0.25968 0.0
H69 H 0.29477 0.53238 0.3124 0.0
H70 H 0.26531 0.51103 0.30525 0.0
H71 H 0.28308 0.51422 0.25624 0.0
H72 H 0.14209 0.42546 0.41242 0.0
H73 H 0.10344 0.39118 0.4129 0.0
H74 H 0.11728 0.3897 0.35942 0.0
H75 H 0.09592 0.39751 0.35358 0.0
H76 H 0.15777 0.46748 0.28954 0.0
H77 H 0.15585 0.40938 0.35222 0.0
H78 H 0.19187 0.47753 0.20236 0.0
H79 H 0.21448 0.49137 0.2492 0.0
H80 H 0.19015 0.49476 0.25193 0.0
H81 H 0.17893 0.3949 0.32615 0.0
H82 H 0.20683 0.41921 0.33623 0.0
H83 H 0.19607 0.40686 0.27483 0.0
H84 H 0.12541 0.42288 0.958 0.0
H85 H 0.16387 0.45428 0.96061 0.0
H86 H 0.16365 0.39138 0.93238 0.0
H87 H 0.19717 0.47457 0.06469 0.0
H88 H 0.19328 0.48555 0.00825 0.0
H89 H 0.21886 0.48497 0.02218 0.0
H90 H 0.18787 0.38234 0.97758 0.0
H91 H 0.20162 0.39895 0.03466 0.0
H92 H 0.21567 0.40695 0.97861 0.0
H93 H 0.33053 0.45182 0.92424 0.0
H94 H 0.36662 0.45776 0.9646 0.0
H95 H 0.35013 0.46183 0.00913 0.0
H96 H 0.37392 0.48636 0.98694 0.0
H97 H 0.32187 0.51091 0.97329 0.0
H98 H 0.31013 0.44284 0.98891 0.0
H99 H 0.28563 0.50958 0.06442 0.0
H100 H 0.27092 0.50226 0.00492 0.0
H101 H 0.30011 0.52437 0.01187 0.0
H102 H 0.2809 0.41586 0.03177 0.0
H103 H 0.2561 0.41846 0.02476 0.0
H104 H 0.27289 0.42801 0.08181 0.0
H105 H 0.23335 0.46177 0.32246 0.0
H106 H 0.17943 0.43327 0.1831 0.0
H107 H 0.18146 0.43098 0.09557 0.0
H108 H 0.24107 0.45254 0.98646 0.0
H109 H 0.29435 0.47595 0.12626 0.0
H110 H 0.29225 0.47795 0.21417 0.0
H111 H 0.08812 0.39429 0.91958 0.0
H112 H 0.10391 0.38124 0.9409 0.0
H113 H 0.10116 0.38444 0.87598 0.0
C114 C 0.83705 0.34768 0.40854 0.0
C115 C 0.85311 0.3434 0.37865 0.0
C116 C 0.83697 0.32057 0.30173 0.0
C117 C 0.84696 0.30687 0.30104 0.0
C118 C 0.8367 0.28574 0.27342 0.0
C119 C 0.81592 0.27815 0.24644 0.0
C120 C 0.80589 0.29206 0.24704 0.0
C121 C 0.81683 0.31335 0.27399 0.0
C122 C 0.84805 0.27157 0.27295 0.0
C123 C 0.78357 0.2844 0.2195 0.0
C124 C 0.73391 0.11567 0.3626 0.0
C125 C 0.72919 0.13513 0.37487 0.0
C126 C 0.73816 0.15925 0.30413 0.0
C127 C 0.72878 0.16782 0.27077 0.0
C128 C 0.7423 0.18572 0.24169 0.0
C129 C 0.76583 0.19459 0.24462 0.0
C130 C 0.77542 0.18551 0.27733 0.0
C131 C 0.76152 0.16812 0.30725 0.0
C132 C 0.73138 0.1954 0.20874 0.0
C133 C 0.80039 0.19436 0.28118 0.0
C134 C 0.74283 0.14531 0.91777 0.0
C135 C 0.73212 0.15571 0.94131 0.0
C136 C 0.74462 0.17625 0.97066 0.0
C137 C 0.76828 0.1862 0.9777 0.0
C138 C 0.77906 0.17572 0.95367 0.0
C139 C 0.76619 0.15561 0.92327 0.0
C140 C 0.73253 0.1874 0.99357 0.0
C141 C 0.80417 0.18571 0.96016 0.0
C142 C 0.86333 0.37247 0.99796 0.0
C143 C 0.86916 0.35533 0.97454 0.0
C144 C 0.83986 0.31579 0.95465 0.0
C145 C 0.81643 0.30361 0.95263 0.0
C146 C 0.80481 0.28106 0.96687 0.0
C147 C 0.81707 0.27042 0.98215 0.0
C148 C 0.84066 0.28188 0.97896 0.0
C149 C 0.85188 0.30461 0.96564 0.0
C150 C 0.77961 0.26921 0.96893 0.0
C151 C 0.85411 0.27066 0.99295 0.0
C152 C 0.80478 0.25578 0.2172 0.0
C153 C 0.79203 0.23597 0.2417 0.0
C154 C 0.78048 0.21443 0.2162 0.0
C155 C 0.78178 0.21245 0.16463 0.0
C156 C 0.77088 0.19106 0.13781 0.0
C157 C 0.7712 0.1895 0.08667 0.0
C158 C 0.7824 0.20927 0.06042 0.0
C159 C 0.78182 0.20808 0.00823 0.0
C160 C 0.79361 0.22817 0.98366 0.0
C161 C 0.80588 0.24948 0.00971 0.0
C162 C 0.8064 0.25102 0.0617 0.0
C163 C 0.81834 0.2723 0.08889 0.0
C164 C 0.8183 0.27382 0.13982 0.0
C165 C 0.80593 0.25419 0.16563 0.0
C166 C 0.79419 0.23249 0.13919 0.0
C167 C 0.79447 0.23089 0.08709 0.0
C168 C 0.71319 0.08537 0.89636 0.0
C169 C 0.71102 0.10681 0.90056 0.0
O170 O 0.84643 0.34078 0.32905 0.0
O171 O 0.85038 0.3384 0.947 0.0
O172 O 0.73109 0.1255 0.88915 0.0
O173 O 0.72398 0.14237 0.33198 0.0
H174 H 0.85193 0.32736 0.39129 0.0
H175 H 0.81974 0.33279 0.40246 0.0
H176 H 0.83685 0.3632 0.3972 0.0
H177 H 0.84216 0.3499 0.44848 0.0
H178 H 0.86286 0.31282 0.32178 0.0
H179 H 0.80937 0.32418 0.27467 0.0
H180 H 0.83755 0.25541 0.29084 0.0
H181 H 0.86499 0.28069 0.29258 0.0
H182 H 0.84969 0.2669 0.2344 0.0
H183 H 0.77672 0.29578 0.22885 0.0
H184 H 0.77115 0.26666 0.22787 0.0
H185 H 0.78561 0.28439 0.17929 0.0
H186 H 0.74424 0.14961 0.39525 0.0
H187 H 0.73806 0.1098 0.39695 0.0
H188 H 0.74836 0.12154 0.33913 0.0
H189 H 0.71904 0.10096 0.34247 0.0
H190 H 0.71073 0.16079 0.26857 0.0
H191 H 0.76901 0.16151 0.33263 0.0
H192 H 0.73154 0.19012 0.16975 0.0
H193 H 0.74083 0.2144 0.21272 0.0
H194 H 0.71366 0.18927 0.21701 0.0
H195 H 0.80466 0.1829 0.3013 0.0
H196 H 0.80909 0.2115 0.30122 0.0
H197 H 0.80692 0.19626 0.24397 0.0
H198 H 0.7077 0.10887 0.93965 0.0
H199 H 0.71405 0.14799 0.93596 0.0
H200 H 0.77428 0.14751 0.90452 0.0
H201 H 0.7323 0.18546 0.03384 0.0
H202 H 0.71489 0.17961 0.97812 0.0
H203 H 0.74142 0.206 0.98785 0.0
H204 H 0.80953 0.17384 0.94484 0.0
H205 H 0.8099 0.18991 0.9998 0.0
H206 H 0.81268 0.20184 0.94107 0.0
H207 H 0.87412 0.34796 0.00524 0.0
H208 H 0.87798 0.38605 0.02098 0.0
H209 H 0.85827 0.38053 0.96915 0.0
H210 H 0.84916 0.36354 0.02195 0.0
H211 H 0.80735 0.31232 0.94285 0.0
H212 H 0.87003 0.31382 0.96503 0.0
H213 H 0.77514 0.26611 0.00773 0.0
H214 H 0.77168 0.2523 0.94795 0.0
H215 H 0.77248 0.27941 0.95365 0.0
H216 H 0.87131 0.27984 0.97963 0.0
H217 H 0.84547 0.25258 0.97772 0.0
H218 H 0.85561 0.27061 0.03367 0.0
H219 H 0.7907 0.23741 0.2811 0.0
H220 H 0.76178 0.17531 0.15606 0.0
H221 H 0.76232 0.17261 0.06788 0.0
H222 H 0.79293 0.22726 0.94373 0.0
H223 H 0.82778 0.28816 0.07125 0.0
H224 H 0.82782 0.29067 0.15859 0.0
H225 H 0.69736 0.07015 0.90582 0.0
H226 H 0.72703 0.08748 0.92235 0.0
H227 H 0.71698 0.08237 0.85841 0.0
C228 C 0.51928 0.82269 0.39157 0.0
C229 C 0.53156 0.83449 0.34643 0.0
C230 C 0.5252 0.81346 0.26703 0.0
C231 C 0.54759 0.82406 0.25401 0.0
C232 C 0.55409 0.81394 0.21706 0.0
C233 C 0.53779 0.79301 0.1922 0.0
C234 C 0.51509 0.78274 0.20402 0.0
C235 C 0.50907 0.79323 0.24116 0.0
C236 C 0.57834 0.8256 0.20443 0.0
C237 C 0.49724 0.76065 0.1775 0.0
C238 C 0.61229 0.68993 0.18385 0.0
C239 C 0.59551 0.69039 0.21861 0.0
C240 C 0.57268 0.70435 0.17744 0.0
C241 C 0.55066 0.69809 0.16211 0.0
C242 C 0.54516 0.71445 0.14737 0.0
C243 C 0.56225 0.73766 0.14765 0.0
C244 C 0.58466 0.74414 0.16246 0.0
C245 C 0.58971 0.72741 0.17695 0.0
C246 C 0.52111 0.70695 0.13129 0.0
C247 C 0.60329 0.76872 0.16249 0.0
C248 C 0.57554 0.73793 0.83221 0.0
C249 C 0.55323 0.73275 0.83237 0.0
C250 C 0.54705 0.74554 0.86304 0.0
C251 C 0.56385 0.76451 0.8928 0.0
C252 C 0.58675 0.77101 0.88943 0.0
C253 C 0.59234 0.7574 0.85968 0.0
C254 C 0.5225 0.73823 0.86492 0.0
C255 C 0.60525 0.79175 0.91875 0.0
C256 C 0.48968 0.87327 0.98671 0.0
C257 C 0.50771 0.87403 0.95441 0.0
C258 C 0.51122 0.84078 0.92933 0.0
C259 C 0.49861 0.81694 0.92369 0.0
C260 C 0.50897 0.80365 0.9273 0.0
C261 C 0.53258 0.81462 0.93622 0.0
C262 C 0.54563 0.83876 0.93724 0.0
C263 C 0.53481 0.85165 0.93365 0.0
C264 C 0.49455 0.77792 0.9248 0.0
C265 C 0.57088 0.8509 0.94521 0.0
C266 C 0.54442 0.7821 0.15312 0.0
C267 C 0.55055 0.76612 0.16649 0.0
C268 C 0.55671 0.75504 0.13127 0.0
C269 C 0.55707 0.76019 0.0814 0.0
C270 C 0.5632 0.74937 0.04511 0.0
C271 C 0.56327 0.75438 0.99608 0.0
C272 C 0.55732 0.77052 0.98136 0.0
C273 C 0.55732 0.77573 0.93149 0.0
C274 C 0.55003 0.79085 0.91776 0.0
C275 C 0.54288 0.80107 0.95282 0.0
C276 C 0.54379 0.79688 0.00311 0.0
C277 C 0.53739 0.80749 0.03947 0.0
C278 C 0.53782 0.80289 0.08863 0.0
C279 C 0.54438 0.78726 0.10336 0.0
C280 C 0.55086 0.77636 0.06742 0.0
C281 C 0.55084 0.7814 0.01731 0.0
C282 C 0.61583 0.72892 0.78539 0.0
C283 C 0.59603 0.71757 0.81802 0.0
O284 O 0.51856 0.82223 0.30418 0.0
O285 O 0.49996 0.8525 0.93146 0.0
O286 O 0.58023 0.7238 0.80503 0.0
O287 O 0.57669 0.68759 0.19185 0.0
H288 H 0.5476 0.83421 0.34911 0.0
H289 H 0.51739 0.80538 0.39187 0.0
H290 H 0.50225 0.82069 0.39102 0.0
H291 H 0.52906 0.8327 0.42595 0.0
H292 H 0.56 0.84029 0.27236 0.0
H293 H 0.49178 0.7854 0.25096 0.0
H294 H 0.58507 0.81383 0.20908 0.0
H295 H 0.58906 0.84163 0.22775 0.0
H296 H 0.5795 0.82975 0.16522 0.0
H297 H 0.4803 0.75494 0.19079 0.0
H298 H 0.5015 0.74701 0.18275 0.0
H299 H 0.49669 0.76284 0.13737 0.0
H300 H 0.6041 0.70718 0.24031 0.0
H301 H 0.62696 0.69121 0.20538 0.0
H302 H 0.61848 0.70468 0.16031 0.0
H303 H 0.60433 0.67397 0.1594 0.0
H304 H 0.53769 0.68026 0.16213 0.0
H305 H 0.60698 0.7325 0.18723 0.0
H306 H 0.52014 0.71125 0.09269 0.0
H307 H 0.51505 0.71633 0.15462 0.0
H308 H 0.50974 0.68827 0.1337 0.0
H309 H 0.61983 0.7711 0.17582 0.0
H310 H 0.59932 0.77978 0.18631 0.0
H311 H 0.6046 0.7746 0.12462 0.0
H312 H 0.60242 0.72319 0.8572 0.0
H313 H 0.54051 0.71794 0.81005 0.0
H314 H 0.60976 0.76193 0.85814 0.0
H315 H 0.51762 0.73623 0.90359 0.0
H316 H 0.51143 0.72186 0.84296 0.0
H317 H 0.51957 0.75167 0.85019 0.0
H318 H 0.6219 0.7974 0.90387 0.0
H319 H 0.60609 0.78751 0.95745 0.0
H320 H 0.60184 0.80617 0.91895 0.0
H321 H 0.52272 0.87907 0.97987 0.0
H322 H 0.4954 0.89047 0.00493 0.0
H323 H 0.48647 0.86109 0.01574 0.0
H324 H 0.47365 0.86753 0.96457 0.0
H325 H 0.48047 0.80873 0.91903 0.0
H326 H 0.54479 0.87014 0.93535 0.0
H327 H 0.49519 0.77164 0.96156 0.0
H328 H 0.50115 0.77011 0.89854 0.0
H329 H 0.47674 0.772 0.91318 0.0
H330 H 0.5788 0.8694 0.9388 0.0
H331 H 0.57778 0.84288 0.9203 0.0
H332 H 0.57553 0.84918 0.98364 0.0
H333 H 0.55034 0.76209 0.20472 0.0
H334 H 0.56797 0.73684 0.05414 0.0
H335 H 0.56793 0.74528 0.9699 0.0
H336 H 0.54936 0.79421 0.8793 0.0
H337 H 0.532 0.81954 0.03047 0.0
H338 H 0.53274 0.8116 0.11488 0.0
H339 H 0.6101 0.72344 0.74598 0.0
H340 H 0.62875 0.72427 0.79577 0.0
H341 H 0.62372 0.74782 0.79007 0.0
C342 C 0.84918 0.57412 0.45033 0.0
C343 C 0.85678 0.56212 0.41343 0.0
C344 C 0.85546 0.57311 0.32979 0.0
C345 C 0.84291 0.55151 0.30451 0.0
C346 C 0.83023 0.5487 0.26054 0.0
C347 C 0.83022 0.56789 0.24158 0.0
C348 C 0.84424 0.58994 0.26506 0.0
C349 C 0.85693 0.59228 0.30873 0.0
C350 C 0.81595 0.52505 0.23566 0.0
C351 C 0.84474 0.61079 0.24567 0.0
C352 C 0.69695 0.49726 0.34348 0.0
C353 C 0.69888 0.52078 0.34069 0.0
C354 C 0.71394 0.53277 0.26208 0.0
C355 C 0.72996 0.55604 0.26368 0.0
C356 C 0.74893 0.56391 0.2359 0.0
C357 C 0.75202 0.54799 0.20671 0.0
C358 C 0.73528 0.52449 0.2037 0.0
C359 C 0.7162 0.51725 0.23085 0.0
C360 C 0.76612 0.5891 0.23947 0.0
C361 C 0.73808 0.50685 0.17404 0.0
C362 C 0.73532 0.55392 0.87847 0.0
C363 C 0.7534 0.57596 0.89213 0.0
C364 C 0.77078 0.5791 0.9259 0.0
C365 C 0.77047 0.55979 0.94507 0.0
C366 C 0.75302 0.53753 0.929 0.0
C367 C 0.73558 0.53492 0.89612 0.0
C368 C 0.78932 0.6031 0.9415 0.0
C369 C 0.75257 0.5165 0.94721 0.0
C370 C 0.94278 0.60316 0.9426 0.0
C371 C 0.92103 0.58195 0.92215 0.0
C372 C 0.88696 0.5839 0.93099 0.0
C373 C 0.88214 0.60146 0.93943 0.0
C374 C 0.86301 0.59762 0.96351 0.0
C375 C 0.84795 0.57542 0.97802 0.0
C376 C 0.85257 0.55745 0.96873 0.0
C377 C 0.87213 0.56193 0.94555 0.0
C378 C 0.85873 0.61724 0.97271 0.0
C379 C 0.83657 0.53342 0.98219 0.0
C380 C 0.8128 0.56439 0.20299 0.0
C381 C 0.79171 0.55871 0.2189 0.0
C382 C 0.77411 0.55527 0.18594 0.0
C383 C 0.77768 0.55783 0.13523 0.0
C384 C 0.76069 0.55543 0.10113 0.0
C385 C 0.76419 0.55736 0.05112 0.0
C386 C 0.78476 0.56159 0.03329 0.0
C387 C 0.78823 0.5629 0.98238 0.0
C388 C 0.80889 0.56727 0.96596 0.0
C389 C 0.8265 0.57064 0.99898 0.0
C390 C 0.82341 0.56946 0.05013 0.0
C391 C 0.84076 0.57296 0.08462 0.0
C392 C 0.83738 0.57139 0.13479 0.0
C393 C 0.81655 0.56632 0.15231 0.0
C394 C 0.79888 0.563 0.11828 0.0
C395 C 0.80236 0.5647 0.0672 0.0
C396 C 0.70528 0.57563 0.88288 0.0
C397 C 0.71089 0.566 0.83685 0.0
O398 O 0.86608 0.57594 0.37469 0.0
O399 O 0.90565 0.58848 0.90746 0.0
O400 O 0.71719 0.55017 0.84919 0.0
O401 O 0.69669 0.52508 0.29197 0.0
H402 H 0.84153 0.54567 0.40043 0.0
H403 H 0.83597 0.57674 0.43224 0.0
H404 H 0.86344 0.5911 0.4641 0.0
H405 H 0.84204 0.56346 0.48207 0.0
H406 H 0.8427 0.5368 0.31952 0.0
H407 H 0.86711 0.60895 0.32804 0.0
H408 H 0.79799 0.51895 0.24132 0.0
H409 H 0.82032 0.51257 0.25052 0.0
H410 H 0.81793 0.52549 0.19538 0.0
H411 H 0.8577 0.62689 0.26607 0.0
H412 H 0.82806 0.60936 0.24882 0.0
H413 H 0.84814 0.61177 0.20606 0.0
H414 H 0.71573 0.53404 0.35732 0.0
H415 H 0.69797 0.49341 0.38248 0.0
H416 H 0.71097 0.49704 0.32512 0.0
H417 H 0.68076 0.48368 0.32511 0.0
H418 H 0.72785 0.56792 0.28764 0.0
H419 H 0.70349 0.49929 0.22965 0.0
H420 H 0.77222 0.59492 0.20268 0.0
H421 H 0.78077 0.59216 0.26392 0.0
H422 H 0.75922 0.5996 0.2549 0.0
H423 H 0.7243 0.48913 0.17847 0.0
H424 H 0.75434 0.50807 0.18538 0.0
H425 H 0.73835 0.51016 0.13444 0.0
H426 H 0.72476 0.58019 0.81859 0.0
H427 H 0.7539 0.5908 0.87723 0.0
H428 H 0.72178 0.51797 0.8847 0.0
H429 H 0.79179 0.6055 0.98229 0.0
H430 H 0.78581 0.61631 0.92758 0.0
H431 H 0.80528 0.60583 0.92708 0.0
H432 H 0.73947 0.50055 0.92659 0.0
H433 H 0.74911 0.51526 0.98677 0.0
H434 H 0.76919 0.51778 0.94384 0.0
H435 H 0.91471 0.5702 0.9526 0.0
H436 H 0.95535 0.59835 0.95501 0.0
H437 H 0.93933 0.61133 0.97469 0.0
H438 H 0.94997 0.61584 0.91417 0.0
H439 H 0.89361 0.61831 0.92757 0.0
H440 H 0.87554 0.54816 0.9376 0.0
H441 H 0.85392 0.6177 0.01101 0.0
H442 H 0.84455 0.61473 0.9474 0.0
H443 H 0.87365 0.63401 0.96649 0.0
H444 H 0.84209 0.52116 0.97057 0.0
H445 H 0.81955 0.52748 0.96468 0.0
H446 H 0.83518 0.53323 0.02265 0.0
H447 H 0.78888 0.55677 0.25781 0.0
H448 H 0.74449 0.55199 0.11281 0.0
H449 H 0.75047 0.55531 0.02657 0.0
H450 H 0.81134 0.56814 0.9268 0.0
H451 H 0.85712 0.57686 0.07312 0.0
H452 H 0.85125 0.57408 0.15974 0.0
H453 H 0.69211 0.56152 0.90265 0.0
H454 H 0.69913 0.58737 0.87229 0.0
H455 H 0.72027 0.58556 0.90874 0.0
C456 C 0.31457 0.82964 0.81052 0.0
C457 C 0.3219 0.85344 0.8344 0.0
C458 C 0.31128 0.84463 0.91792 0.0
C459 C 0.29524 0.85133 0.92399 0.0
C460 C 0.278 0.84021 0.95595 0.0
C461 C 0.27665 0.82177 0.98165 0.0
C462 C 0.29349 0.81571 0.97715 0.0
C463 C 0.31089 0.82757 0.94593 0.0
C464 C 0.2607 0.84754 0.96064 0.0
C465 C 0.29244 0.79589 0.00306 0.0
C466 C 0.13153 0.71129 0.77749 0.0
C467 C 0.14404 0.70708 0.81971 0.0
C468 C 0.16085 0.7316 0.89497 0.0
C469 C 0.17773 0.72625 0.90587 0.0
C470 C 0.19605 0.74047 0.93912 0.0
C471 C 0.19757 0.76052 0.96134 0.0
C472 C 0.18047 0.76584 0.95052 0.0
C473 C 0.16207 0.751 0.91812 0.0
C474 C 0.21375 0.73406 0.95057 0.0
C475 C 0.1817 0.78728 0.9728 0.0
C476 C 0.14583 0.72779 0.2459 0.0
C477 C 0.16202 0.7211 0.24115 0.0
C478 C 0.18408 0.73706 0.23072 0.0
C479 C 0.18993 0.76006 0.22476 0.0
C480 C 0.17408 0.76712 0.23327 0.0
C481 C 0.15224 0.75086 0.24428 0.0
C482 C 0.20079 0.72913 0.22343 0.0
C483 C 0.17985 0.79158 0.22803 0.0
C484 C 0.33828 0.90549 0.31831 0.0
C485 C 0.33152 0.88972 0.36125 0.0
C486 C 0.30595 0.85295 0.31456 0.0
C487 C 0.30449 0.8329 0.29434 0.0
C488 C 0.28629 0.81759 0.26191 0.0
C489 C 0.26921 0.82265 0.24899 0.0
C490 C 0.27029 0.84268 0.27011 0.0
C491 C 0.28849 0.85748 0.30317 0.0
C492 C 0.28539 0.79608 0.24126 0.0
C493 C 0.25225 0.84849 0.25759 0.0
C494 C 0.25595 0.80671 0.00657 0.0
C495 C 0.23711 0.79121 0.97627 0.0
C496 C 0.217 0.77593 0.99599 0.0
C497 C 0.21555 0.77571 0.04752 0.0
C498 C 0.19568 0.76013 0.06842 0.0
C499 C 0.19421 0.76023 0.11906 0.0
C500 C 0.21267 0.77569 0.15096 0.0
C501 C 0.21123 0.77578 0.2026 0.0
C502 C 0.2299 0.79119 0.2334 0.0
C503 C 0.25006 0.80684 0.21392 0.0
C504 C 0.25171 0.80721 0.16219 0.0
C505 C 0.27153 0.82299 0.14108 0.0
C506 C 0.27298 0.82297 0.09012 0.0
C507 C 0.25468 0.80719 0.05836 0.0
C508 C 0.23442 0.79145 0.07884 0.0
C509 C 0.23296 0.79143 0.13072 0.0
C510 C 0.09186 0.68797 0.19817 0.0
C511 C 0.11189 0.69039 0.22973 0.0
O512 O 0.32699 0.85404 0.88446 0.0
O513 O 0.3245 0.86736 0.34431 0.0
O514 O 0.12391 0.71248 0.25154 0.0
O515 O 0.14319 0.71842 0.86232 0.0
H516 H 0.30785 0.85698 0.82852 0.0
H517 H 0.29929 0.81652 0.82713 0.0
H518 H 0.32813 0.82539 0.81614 0.0
H519 H 0.31049 0.82891 0.77038 0.0
H520 H 0.29604 0.86506 0.90327 0.0
H521 H 0.32358 0.82276 0.94121 0.0
H522 H 0.24494 0.83495 0.93923 0.0
H523 H 0.26644 0.86467 0.94644 0.0
H524 H 0.25677 0.84798 0.9997 0.0
H525 H 0.3064 0.79284 0.99421 0.0
H526 H 0.27623 0.78004 0.99245 0.0
H527 H 0.29324 0.79926 0.04349 0.0
H528 H 0.16176 0.71428 0.80965 0.0
H529 H 0.13235 0.7029 0.74234 0.0
H530 H 0.13939 0.72996 0.77305 0.0
H531 H 0.11362 0.70451 0.78512 0.0
H532 H 0.17647 0.71087 0.88883 0.0
H533 H 0.14883 0.75483 0.9096 0.0
H534 H 0.21656 0.73423 0.99105 0.0
H535 H 0.22989 0.7469 0.9364 0.0
H536 H 0.20907 0.71689 0.93378 0.0
H537 H 0.16853 0.79032 0.956 0.0
H538 H 0.19844 0.80239 0.96812 0.0
H539 H 0.17952 0.7858 0.0129 0.0
H540 H 0.12229 0.68691 0.20431 0.0
H541 H 0.15738 0.7034 0.24481 0.0
H542 H 0.13972 0.75591 0.24921 0.0
H543 H 0.2037 0.72876 0.18368 0.0
H544 H 0.19479 0.71173 0.23635 0.0
H545 H 0.21716 0.74127 0.24339 0.0
H546 H 0.16595 0.79453 0.23791 0.0
H547 H 0.18369 0.79603 0.18942 0.0
H548 H 0.1951 0.80329 0.25198 0.0
H549 H 0.31772 0.89024 0.38014 0.0
H550 H 0.34457 0.92348 0.33225 0.0
H551 H 0.32377 0.90055 0.29166 0.0
H552 H 0.35168 0.90468 0.29838 0.0
H553 H 0.31787 0.82939 0.30376 0.0
H554 H 0.289 0.87257 0.31962 0.0
H555 H 0.28721 0.79692 0.20097 0.0
H556 H 0.26885 0.78092 0.24709 0.0
H557 H 0.29889 0.79362 0.25838 0.0
H558 H 0.25667 0.86579 0.27308 0.0
H559 H 0.23629 0.83571 0.27247 0.0
H560 H 0.24926 0.84768 0.21701 0.0
H561 H 0.2381 0.79105 0.93659 0.0
H562 H 0.18097 0.74769 0.04585 0.0
H563 H 0.17836 0.74792 0.13275 0.0
H564 H 0.22868 0.79107 0.27299 0.0
H565 H 0.28615 0.83551 0.16376 0.0
H566 H 0.28862 0.83545 0.07585 0.0
H567 H 0.08077 0.69155 0.22093 0.0
H568 H 0.08194 0.6704 0.18025 0.0
H569 H 0.09795 0.70031 0.16891 0.0
C570 C 0.44763 0.30563 0.51099 0.0
C571 C 0.45792 0.31424 0.46191 0.0
C572 C 0.44853 0.28827 0.38864 0.0
C573 C 0.47044 0.29691 0.37347 0.0
C574 C 0.4755 0.28401 0.34035 0.0
C575 C 0.45813 0.26233 0.32073 0.0
C576 C 0.43581 0.25415 0.33371 0.0
C577 C 0.4313 0.2673 0.36754 0.0
C578 C 0.49951 0.29339 0.32705 0.0
C579 C 0.41685 0.23138 0.31247 0.0
C580 C 0.48048 0.11323 0.38932 0.0
C581 C 0.47169 0.12656 0.36395 0.0
C582 C 0.48239 0.16607 0.34863 0.0
C583 C 0.46271 0.16031 0.31955 0.0
C584 C 0.45958 0.17734 0.299 0.0
C585 C 0.47664 0.20056 0.30675 0.0
C586 C 0.49642 0.20644 0.33607 0.0
C587 C 0.49897 0.18908 0.35683 0.0
C588 C 0.43813 0.17048 0.26844 0.0
C589 C 0.51501 0.23101 0.34482 0.0
C590 C 0.52039 0.19662 0.02991 0.0
C591 C 0.49741 0.18888 0.02111 0.0
C592 C 0.48868 0.2031 0.03351 0.0
C593 C 0.50331 0.22539 0.05512 0.0
C594 C 0.52679 0.23403 0.05862 0.0
C595 C 0.53507 0.21948 0.04555 0.0
C596 C 0.46365 0.19366 0.02761 0.0
C597 C 0.54288 0.25793 0.08032 0.0
C598 C 0.44479 0.34199 0.04188 0.0
C599 C 0.46631 0.34859 0.01581 0.0
C600 C 0.46944 0.31417 0.01628 0.0
C601 C 0.45441 0.29075 0.00748 0.0
C602 C 0.45802 0.27457 0.03071 0.0
C603 C 0.47754 0.28209 0.0624 0.0
C604 C 0.49334 0.30578 0.06975 0.0
C605 C 0.48904 0.32161 0.04684 0.0
C606 C 0.44087 0.24947 0.02178 0.0
C607 C 0.51475 0.31437 0.10176 0.0
C608 C 0.46363 0.24798 0.28819 0.0
C609 C 0.46673 0.23117 0.30954 0.0
C610 C 0.47414 0.21855 0.28233 0.0
C611 C 0.47905 0.2231 0.23272 0.0
C612 C 0.48765 0.2116 0.20511 0.0
C613 C 0.49256 0.21625 0.15651 0.0
C614 C 0.48891 0.23251 0.13335 0.0
C615 C 0.49391 0.23733 0.08385 0.0
C616 C 0.49011 0.25353 0.06181 0.0
C617 C 0.48133 0.26518 0.08808 0.0
C618 C 0.47629 0.26063 0.13777 0.0
C619 C 0.46746 0.27197 0.1654 0.0
C620 C 0.4632 0.26782 0.21463 0.0
C621 C 0.4673 0.2519 0.2379 0.0
C622 C 0.47541 0.23969 0.21032 0.0
C623 C 0.48017 0.24426 0.16041 0.0
C624 C 0.5332 0.15961 0.08555 0.0
C625 C 0.51842 0.16036 0.04299 0.0
O626 O 0.44343 0.29951 0.42364 0.0
O627 O 0.46492 0.32907 0.99349 0.0
O628 O 0.52865 0.18217 0.02603 0.0
O629 O 0.48604 0.15007 0.36923 0.0
H630 H 0.47399 0.31402 0.46425 0.0
H631 H 0.44672 0.28903 0.51697 0.0
H632 H 0.43031 0.30284 0.51124 0.0
H633 H 0.4582 0.31805 0.542 0.0
H634 H 0.4837 0.31367 0.38753 0.0
H635 H 0.41436 0.26098 0.37871 0.0
H636 H 0.50492 0.28067 0.33335 0.0
H637 H 0.51131 0.30962 0.34872 0.0
H638 H 0.50072 0.29667 0.28737 0.0
H639 H 0.40016 0.2285 0.3224 0.0
H640 H 0.41916 0.21741 0.3264 0.0
H641 H 0.41707 0.23032 0.27171 0.0
H642 H 0.45398 0.12136 0.37123 0.0
H643 H 0.48471 0.09477 0.33159 0.0
H644 H 0.46859 0.10466 0.41889 0.0
H645 H 0.49478 0.12571 0.41583 0.0
H646 H 0.44972 0.14259 0.3125 0.0
H647 H 0.51408 0.1934 0.37926 0.0
H648 H 0.44193 0.17386 0.22941 0.0
H649 H 0.43066 0.18088 0.28111 0.0
H650 H 0.42551 0.15206 0.27027 0.0
H651 H 0.52975 0.23267 0.36681 0.0
H652 H 0.50863 0.24107 0.36457 0.0
H653 H 0.52058 0.23862 0.30901 0.0
H654 H 0.50214 0.15592 0.05873 0.0
H655 H 0.48618 0.17144 0.00657 0.0
H656 H 0.55288 0.22543 0.05091 0.0
H657 H 0.45657 0.18971 0.06424 0.0
H658 H 0.45509 0.17774 0.00299 0.0
H659 H 0.45996 0.20656 0.01255 0.0
H660 H 0.56064 0.26312 0.07448 0.0
H661 H 0.54098 0.25875 0.12053 0.0
H662 H 0.53891 0.27037 0.0638 0.0
H663 H 0.48078 0.35695 0.04373 0.0
H664 H 0.44562 0.35739 0.06023 0.0
H665 H 0.44271 0.32992 0.07048 0.0
H666 H 0.42988 0.33358 0.01511 0.0
H667 H 0.43953 0.2852 0.98313 0.0
H668 H 0.50122 0.33969 0.05204 0.0
H669 H 0.43553 0.24162 0.05745 0.0
H670 H 0.44855 0.24056 0.00248 0.0
H671 H 0.42577 0.24654 0.99916 0.0
H672 H 0.52643 0.33299 0.09933 0.0
H673 H 0.52346 0.30493 0.09095 0.0
H674 H 0.51067 0.31118 0.14071 0.0
H675 H 0.46364 0.22809 0.34803 0.0
H676 H 0.49088 0.19896 0.22083 0.0
H677 H 0.49928 0.20687 0.13748 0.0
H678 H 0.49402 0.25711 0.02383 0.0
H679 H 0.46393 0.28436 0.14943 0.0
H680 H 0.45661 0.2772 0.23423 0.0
H681 H 0.5257 0.142 0.09825 0.0
H682 H 0.53444 0.17127 0.11694 0.0
H683 H 0.55045 0.1652 0.07447 0.0
C684 C 0.99275 0.45131 0.75761 0.0
C685 C 0.05874 0.48188 0.70288 0.0
C686 C 0.05041 0.55789 0.69402 0.0
Mg687 Mg 0.011 0.46075 0.65373 0.0
O688 O 0.01051 0.48775 0.66852 0.0
Mg689 Mg 0.02733 0.50618 0.7308 0.0
Mg690 Mg 0.02154 0.51206 0.62101 0.0
O691 O 0.03252 0.53645 0.57338 0.0
Mg692 Mg 0.03008 0.5622 0.58994 0.0
Mg693 Mg 0.01421 0.51756 0.51246 0.0
C694 C 0.9913 0.46562 0.54916 0.0
C695 C 0.05167 0.50328 0.54271 0.0
O696 O 0.005 0.47281 0.77052 0.0
O697 O 0.992 0.44307 0.71392 0.0
O698 O 0.05481 0.49607 0.72671 0.0
O699 O 0.04461 0.46742 0.66977 0.0
O700 O 0.99565 0.45365 0.57854 0.0
O701 O 0.99677 0.48649 0.56072 0.0
C702 C 0.99073 0.5209 0.69732 0.0
O703 O 0.99587 0.52128 0.65241 0.0
O704 O 7e-05 0.51559 0.73183 0.0
O705 O 0.03434 0.5513 0.47134 0.0
O706 O 0.04649 0.58084 0.5282 0.0
O707 O 0.98576 0.52591 0.52119 0.0
C708 C 0.04535 0.57292 0.48398 0.0
O709 O 0.99551 0.55319 0.58109 0.0
O710 O 0.04566 0.5694 0.66423 0.0
C711 C 0.9812 0.53871 0.54839 0.0
O712 O 0.04615 0.53738 0.68268 0.0
O713 O 0.04694 0.50288 0.58809 0.0
O714 O 0.042 0.50878 0.50904 0.0
C715 C 0.49764 0.04625 0.76682 0.0
C716 C 0.4594 0.97873 0.69219 0.0
C717 C 0.53856 0.98229 0.68513 0.0
Mg718 Mg 0.48681 0.02757 0.65767 0.0
O719 O 0.51355 0.02695 0.67009 0.0
Mg720 Mg 0.51482 0.00975 0.72745 0.0
Mg721 Mg 0.52477 0.01366 0.61936 0.0
O722 O 0.53608 0.00034 0.56966 0.0
Mg723 Mg 0.5632 0.00123 0.58683 0.0
Mg724 Mg 0.5354 0.0174 0.51165 0.0
C725 C 0.5096 0.04369 0.55439 0.0
C726 C 0.48401 0.98175 0.53644 0.0
O727 O 0.50595 0.03319 0.77403 0.0
O728 O 0.48986 0.0476 0.72427 0.0
O729 O 0.4774 0.98248 0.716 0.0
O730 O 0.45904 0.99345 0.66475 0.0
O731 O 0.49455 0.04102 0.58434 0.0
O732 O 0.52455 0.03795 0.56375 0.0
C733 C 0.566 0.04517 0.70183 0.0
O734 O 0.56047 0.03936 0.65568 0.0
O735 O 0.55172 0.03663 0.73459 0.0
O736 O 0.54515 0.99343 0.46681 0.0
O737 O 0.56267 0.98239 0.52165 0.0
O738 O 0.57296 0.04484 0.52401 0.0
C739 C 0.55491 0.98197 0.47785 0.0
O740 O 0.5903 0.03559 0.58183 0.0
O741 O 0.55447 0.98539 0.65751 0.0
C742 C 0.59053 0.04942 0.55097 0.0
O743 O 0.52484 0.98937 0.67429 0.0
O744 O 0.48921 0.98758 0.58272 0.0
O745 O 0.4986 0.99055 0.5043 0.0
C746 C 0.55344 0.56997 0.46686 0.0
C747 C 0.57792 0.52836 0.52482 0.0
C748 C 0.49166 0.46715 0.55021 0.0
Mg749 Mg 0.56318 0.56009 0.57254 0.0
O750 O 0.53279 0.53793 0.56272 0.0
Mg751 Mg 0.52388 0.51582 0.50347 0.0
Mg752 Mg 0.51926 0.51607 0.61489 0.0
O753 O 0.50542 0.49401 0.66657 0.0
Mg754 Mg 0.47495 0.4716 0.65622 0.0
Mg755 Mg 0.51399 0.51609 0.72549 0.0
C756 C 0.54741 0.56467 0.67956 0.0
C757 C 0.5592 0.51816 0.6874 0.0
O758 O 0.53893 0.54856 0.45739 0.0
O759 O 0.56398 0.578 0.50919 0.0
O760 O 0.55818 0.5172 0.5035 0.0
O761 O 0.58334 0.54494 0.55659 0.0
O762 O 0.56217 0.5724 0.6472 0.0
O763 O 0.52874 0.54563 0.67213 0.0
C764 C 0.47853 0.51296 0.54332 0.0
O765 O 0.48588 0.51375 0.58784 0.0
O766 O 0.48998 0.51391 0.50655 0.0
O767 O 0.49919 0.48361 0.77106 0.0
O768 O 0.47395 0.45367 0.72075 0.0
O769 O 0.47952 0.51434 0.72432 0.0
C770 C 0.48493 0.46211 0.76258 0.0
O771 O 0.45491 0.48732 0.66917 0.0
O772 O 0.47668 0.459 0.58204 0.0
C773 C 0.45998 0.50348 0.70188 0.0
O774 O 0.50982 0.48661 0.55776 0.0
O775 O 0.55274 0.51827 0.64251 0.0
O776 O 0.54735 0.51729 0.72324 0.0
H777 H 0.13569 0.44113 0.48602 0.0
H778 H 0.0978 0.43598 0.35136 0.0
H779 H 0.12026 0.46261 0.52751 0.0
H780 H 0.08206 0.45682 0.39264 0.0
H781 H 0.07386 0.51274 0.45873 0.0
H782 H 0.09433 0.49525 0.42518 0.0
H783 H 0.0848 0.45812 0.55607 0.0
H784 H 0.0647 0.47619 0.59024 0.0
C785 C 0.12404 0.44457 0.4654 0.0
C786 C 0.11814 0.43714 0.41532 0.0
C787 C 0.11515 0.45676 0.48915 0.0
C788 C 0.10019 0.46172 0.46321 0.0
C789 C 0.09398 0.45382 0.41342 0.0
C790 C 0.10284 0.44171 0.38982 0.0
C791 C 0.07638 0.50109 0.48075 0.0
C792 C 0.06732 0.49558 0.52694 0.0
C793 C 0.088 0.49094 0.46134 0.0
C794 C 0.09072 0.47485 0.48739 0.0
C795 C 0.08297 0.47043 0.535 0.0
C796 C 0.07143 0.48077 0.55464 0.0
H797 H 0.72981 0.13936 0.47602 0.0
H798 H 0.68419 0.11097 0.34624 0.0
H799 H 0.69769 0.12424 0.52792 0.0
H800 H 0.65239 0.09605 0.39752 0.0
H801 H 0.59767 0.08328 0.49002 0.0
H802 H 0.6327 0.10869 0.45376 0.0
H803 H 0.66783 0.08524 0.54828 0.0
H804 H 0.63286 0.06003 0.58531 0.0
C805 C 0.71294 0.13019 0.45866 0.0
C806 C 0.70949 0.12679 0.40707 0.0
C807 C 0.69461 0.12151 0.48828 0.0
C808 C 0.67253 0.10932 0.46676 0.0
C809 C 0.66917 0.10593 0.4152 0.0
C810 C 0.68739 0.11439 0.38578 0.0
C811 C 0.61294 0.08395 0.5041 0.0
C812 C 0.61233 0.06915 0.53964 0.0
C813 C 0.633 0.09845 0.4831 0.0
C814 C 0.65285 0.09846 0.49722 0.0
C815 C 0.65277 0.08553 0.53647 0.0
C816 C 0.63267 0.07102 0.55761 0.0
H817 H 0.59993 0.69502 0.31941 0.0
H818 H 0.57371 0.64355 0.19819 0.0
H819 H 0.58827 0.6653 0.37736 0.0
H820 H 0.56298 0.61366 0.25627 0.0
H821 H 0.52888 0.56513 0.3803 0.0
H822 H 0.53786 0.5937 0.3193 0.0
H823 H 0.59983 0.63977 0.40444 0.0
H824 H 0.5906 0.61189 0.46542 0.0
C825 C 0.59189 0.67733 0.30515 0.0
C826 C 0.5882 0.67167 0.25422 0.0
C827 C 0.5853 0.66026 0.33835 0.0
C828 C 0.57502 0.63706 0.32151 0.0
C829 C 0.57079 0.63132 0.27054 0.0
C830 C 0.57719 0.64845 0.23724 0.0
C831 C 0.54441 0.58137 0.38576 0.0
C832 C 0.55887 0.58632 0.42798 0.0
C833 C 0.5496 0.59771 0.35079 0.0
C834 C 0.56944 0.61919 0.35729 0.0
C835 C 0.58412 0.62372 0.39884 0.0
C836 C 0.57885 0.60761 0.43378 0.0
H837 H 0.90028 0.59283 0.44666 0.0
H838 H 0.85168 0.52055 0.43583 0.0
H839 H 0.92805 0.58506 0.48598 0.0
H840 H 0.87944 0.51273 0.47541 0.0
H841 H 0.94673 0.51072 0.48103 0.0
H842 H 0.91517 0.51516 0.45313 0.0
H843 H 0.93578 0.57096 0.56303 0.0
H844 H 0.96753 0.56674 0.59086 0.0
C845 C 0.89556 0.5753 0.45293 0.0
C846 C 0.87391 0.55728 0.43789 0.0
C847 C 0.91136 0.57085 0.47578 0.0
C848 C 0.90588 0.54828 0.48396 0.0
C849 C 0.88417 0.53027 0.46929 0.0
C850 C 0.86831 0.53474 0.44669 0.0
C851 C 0.94436 0.52369 0.49987 0.0
C852 C 0.95989 0.53861 0.53767 0.0
C853 C 0.92619 0.52617 0.48395 0.0
C854 C 0.92321 0.54363 0.50541 0.0
C855 C 0.93793 0.55763 0.5452 0.0
C856 C 0.95603 0.55509 0.56131 0.0
H857 H 0.34385 0.92069 0.44077 0.0
H858 H 0.36549 0.87927 0.36171 0.0
H859 H 0.37966 0.93985 0.49025 0.0
H860 H 0.40078 0.89773 0.412 0.0
H861 H 0.44501 0.9637 0.58614 0.0
H862 H 0.40652 0.93778 0.55149 0.0
H863 H 0.43221 0.93599 0.41015 0.0
H864 H 0.47006 0.96122 0.44431 0.0
C865 C 0.35597 0.91519 0.4351 0.0
C866 C 0.35174 0.89832 0.39769 0.0
C867 C 0.37643 0.92609 0.46353 0.0
C868 C 0.39313 0.92043 0.45482 0.0
C869 C 0.38838 0.9027 0.41921 0.0
C870 C 0.36805 0.89194 0.39065 0.0
C871 C 0.44238 0.95755 0.5479 0.0
C872 C 0.46066 0.96473 0.51807 0.0
C873 C 0.42035 0.94278 0.52799 0.0
C874 C 0.41629 0.93471 0.47808 0.0
C875 C 0.43467 0.94148 0.4489 0.0
C876 C 0.45647 0.95622 0.46854 0.0
H877 H 0.4969 0.35097 0.43499 0.0
H878 H 0.42933 0.33166 0.46986 0.0
H879 H 0.50597 0.39057 0.43123 0.0
H880 H 0.43875 0.3712 0.47134 0.0
H881 H 0.45529 0.4408 0.48686 0.0
H882 H 0.44758 0.4053 0.44277 0.0
H883 H 0.51512 0.42042 0.48573 0.0
H884 H 0.5231 0.45663 0.52506 0.0
C885 C 0.48401 0.35524 0.44211 0.0
C886 C 0.46271 0.33837 0.45496 0.0
C887 C 0.48923 0.37802 0.44032 0.0
C888 C 0.47342 0.38456 0.45242 0.0
C889 C 0.45155 0.36722 0.46152 0.0
C890 C 0.44618 0.3444 0.46183 0.0
C891 C 0.46872 0.4369 0.48449 0.0
C892 C 0.48967 0.45117 0.50965 0.0
C893 C 0.46423 0.41634 0.46011 0.0
C894 C 0.4803 0.4092 0.46254 0.0
C895 C 0.50213 0.42496 0.48284 0.0
C896 C 0.50683 0.4459 0.5056 0.0
H897 H 0.481 0.87161 0.87444 0.0
H898 H 0.54647 0.91524 0.94841 0.0
H899 H 0.48929 0.89971 0.81311 0.0
H900 H 0.55483 0.94348 0.88696 0.0
H901 H 0.5679 0.97119 0.7294 0.0
H902 H 0.56101 0.94622 0.79681 0.0
H903 H 0.49549 0.93918 0.80868 0.0
H904 H 0.5022 0.96386 0.74101 0.0
C905 C 0.49714 0.88726 0.87754 0.0
C906 C 0.51311 0.89128 0.91605 0.0
C907 C 0.50184 0.9034 0.8427 0.0
C908 C 0.52266 0.92384 0.84549 0.0
C909 C 0.5387 0.92781 0.88382 0.0
C910 C 0.53392 0.91171 0.91895 0.0
C911 C 0.55212 0.96452 0.74672 0.0
C912 C 0.53555 0.96945 0.72965 0.0
C913 C 0.54824 0.95032 0.78549 0.0
C914 C 0.52765 0.94062 0.80768 0.0
C915 C 0.51141 0.94619 0.79181 0.0
C916 C 0.51534 0.96051 0.75331 0.0
H917 H 0.6751 0.52198 0.83539 0.0
H918 H 0.69939 0.58463 0.76137 0.0
H919 H 0.63887 0.50604 0.7892 0.0
H920 H 0.66284 0.56892 0.71602 0.0
H921 H 0.57298 0.50877 0.77364 0.0
H922 H 0.61028 0.51664 0.7998 0.0
H923 H 0.633 0.53942 0.65612 0.0
H924 H 0.59528 0.53156 0.62984 0.0
C925 C 0.67289 0.5321 0.8082 0.0
C926 C 0.69017 0.55449 0.80158 0.0
C927 C 0.65209 0.52305 0.78203 0.0
C928 C 0.64794 0.53629 0.74929 0.0
C929 C 0.66559 0.55817 0.74053 0.0
C930 C 0.68648 0.56722 0.76659 0.0
C931 C 0.58578 0.51519 0.74722 0.0
C932 C 0.5812 0.51995 0.69975 0.0
C933 C 0.60718 0.5195 0.76215 0.0
C934 C 0.62464 0.52872 0.7301 0.0
C935 C 0.6199 0.5325 0.68179 0.0
C936 C 0.59829 0.52796 0.66665 0.0
H937 H 0.15409 0.67748 0.77241 0.0
H938 H 0.10965 0.67929 0.87764 0.0
H939 H 0.13221 0.63602 0.76514 0.0
H940 H 0.08825 0.63757 0.8726 0.0
H941 H 0.09021 0.56464 0.73503 0.0
H942 H 0.1159 0.59811 0.78953 0.0
H943 H 0.06244 0.61315 0.80966 0.0
H944 H 0.03709 0.57961 0.75709 0.0
C945 C 0.14012 0.6689 0.79549 0.0
C946 C 0.13355 0.68163 0.82534 0.0
C947 C 0.12762 0.64503 0.79177 0.0
C948 C 0.1082 0.63326 0.81793 0.0
C949 C 0.10284 0.64601 0.85124 0.0
C950 C 0.11519 0.66995 0.8544 0.0
C951 C 0.08376 0.57441 0.7536 0.0
C952 C 0.06189 0.56991 0.74149 0.0
C953 C 0.09853 0.59381 0.78418 0.0
C954 C 0.09154 0.60889 0.8026 0.0
C955 C 0.06863 0.60217 0.79624 0.0
C956 C 0.05397 0.58286 0.76594 0.0
H957 H 0.5497 0.15754 0.98789 0.0
H958 H 0.47817 0.12497 0.00286 0.0
H959 H 0.5433 0.12891 0.9221 0.0
H960 H 0.47176 0.0966 0.93607 0.0
H961 H 0.47462 0.06954 0.77462 0.0
H962 H 0.4787 0.09684 0.84166 0.0
H963 H 0.52728 0.08486 0.91961 0.0
H964 H 0.52317 0.05753 0.85332 0.0
C965 C 0.53264 0.1442 0.97726 0.0
C966 C 0.51446 0.14315 0.00119 0.0
C967 C 0.52898 0.12787 0.93965 0.0
C968 C 0.50706 0.1105 0.92451 0.0
C969 C 0.48881 0.10985 0.94721 0.0
C970 C 0.49249 0.12599 0.98542 0.0
C971 C 0.48603 0.07261 0.80625 0.0
C972 C 0.49862 0.06143 0.80858 0.0
C973 C 0.48829 0.08814 0.84458 0.0
C974 C 0.50343 0.09301 0.88541 0.0
C975 C 0.51567 0.08154 0.8882 0.0
C976 C 0.51318 0.06579 0.85037 0.0
H977 H 0.34649 0.44448 0.85546 0.0
H978 H 0.3737 0.51426 0.91347 0.0
H979 H 0.37204 0.45758 0.78969 0.0
H980 H 0.39905 0.52763 0.84653 0.0
H981 H 0.46284 0.53103 0.78134 0.0
H982 H 0.43206 0.5262 0.82939 0.0
H983 H 0.38449 0.47765 0.7164 0.0
H984 H 0.41547 0.48196 0.66872 0.0
C985 C 0.3575 0.46272 0.85319 0.0
C986 C 0.35793 0.47833 0.88936 0.0
C987 C 0.37209 0.47029 0.81522 0.0
C988 C 0.38764 0.49372 0.81254 0.0
C989 C 0.38742 0.50946 0.84761 0.0
C990 C 0.37281 0.50184 0.88577 0.0
C991 C 0.44583 0.51981 0.76589 0.0
C992 C 0.44169 0.50634 0.72183 0.0
C993 C 0.42808 0.51709 0.79352 0.0
C994 C 0.40575 0.50102 0.77749 0.0
C995 C 0.40153 0.48966 0.73054 0.0
C996 C 0.41931 0.49227 0.70299 0.0
H997 H 0.86813 0.36293 0.87589 0.0
H998 H 0.91405 0.3762 0.00182 0.0
H999 H 0.89982 0.38471 0.82612 0.0
H1000 H 0.94591 0.39839 0.95188 0.0
H1001 H 0.98933 0.46092 0.85481 0.0
H1002 H 0.9606 0.43612 0.90868 0.0
H1003 H 0.93254 0.3817 0.79361 0.0
H1004 H 0.96107 0.4062 0.73982 0.0
C1005 C 0.88501 0.37016 0.89269 0.0
C1006 C 0.88866 0.36739 0.94244 0.0
C1007 C 0.90314 0.38265 0.86423 0.0
C1008 C 0.92528 0.39304 0.88513 0.0
C1009 C 0.92899 0.39051 0.93494 0.0
C1010 C 0.91083 0.37773 0.96331 0.0
C1011 C 0.97725 0.44357 0.84123 0.0
C1012 C 0.97739 0.43567 0.79278 0.0
C1013 C 0.96087 0.42937 0.87215 0.0
C1014 C 0.94426 0.40712 0.85501 0.0
C1015 C 0.945 0.3989 0.80745 0.0
C1016 C 0.96143 0.41295 0.77677 0.0
H1017 H 0.92696 0.54499 0.92391 0.0
H1018 H 0.92711 0.59346 0.82518 0.0
H1019 H 0.93928 0.52881 0.85948 0.0
H1020 H 0.93891 0.57677 0.75944 0.0
H1021 H 0.9934 0.56232 0.69193 0.0
H1022 H 0.97216 0.57569 0.73937 0.0
H1023 H 0.92977 0.507 0.78364 0.0
H1024 H 0.95179 0.49418 0.73833 0.0
C1025 C 0.92906 0.55177 0.88788 0.0
C1026 C 0.92573 0.57024 0.87943 0.0
C1027 C 0.93603 0.54242 0.85067 0.0
C1028 C 0.93991 0.5513 0.80384 0.0
C1029 C 0.93616 0.56954 0.79502 0.0
C1030 C 0.92921 0.57897 0.83249 0.0
C1031 C 0.97902 0.55003 0.71046 0.0
C1032 C 0.97412 0.52728 0.71166 0.0
C1033 C 0.96685 0.55765 0.73778 0.0
C1034 C 0.94953 0.54252 0.76637 0.0
C1035 C 0.94338 0.51926 0.76329 0.0
C1036 C 0.95576 0.51181 0.73681 0.0
H1037 H 0.32209 0.8742 0.75022 0.0
H1038 H 0.36718 0.87195 0.86153 0.0
H1039 H 0.35419 0.90181 0.7076 0.0
H1040 H 0.39919 0.9004 0.82092 0.0
H1041 H 0.45438 0.93881 0.72409 0.0
H1042 H 0.42062 0.90697 0.7527 0.0
H1043 H 0.38304 0.94029 0.71309 0.0
H1044 H 0.41664 0.97155 0.68221 0.0
C1045 C 0.3389 0.87993 0.76594 0.0
C1046 C 0.34208 0.87137 0.80989 0.0
C1047 C 0.35731 0.89578 0.74163 0.0
C1048 C 0.37939 0.90351 0.76076 0.0
C1049 C 0.38251 0.89466 0.80449 0.0
C1050 C 0.36411 0.87859 0.82837 0.0
C1051 C 0.43878 0.9391 0.72065 0.0
C1052 C 0.43821 0.9578 0.70136 0.0
C1053 C 0.41945 0.92095 0.73756 0.0
C1054 C 0.39913 0.92122 0.73642 0.0
C1055 C 0.39829 0.93934 0.71444 0.0
C1056 C 0.41759 0.95734 0.69675 0.0
H1057 H 0.45312 0.34051 0.91608 0.0
H1058 H 0.48555 0.39495 0.03065 0.0
H1059 H 0.45787 0.36823 0.85654 0.0
H1060 H 0.48923 0.42271 0.97171 0.0
H1061 H 0.51307 0.46912 0.84337 0.0
H1062 H 0.50883 0.44191 0.90402 0.0
H1063 H 0.44456 0.3923 0.83165 0.0
H1064 H 0.44936 0.41914 0.76991 0.0
C1065 C 0.46137 0.35845 0.92852 0.0
C1066 C 0.46954 0.36564 0.97787 0.0
C1067 C 0.46382 0.37437 0.89447 0.0
C1068 C 0.47398 0.39782 0.9091 0.0
C1069 C 0.48177 0.40491 0.95872 0.0
C1070 C 0.47959 0.38902 0.99261 0.0
C1071 C 0.49798 0.45244 0.84063 0.0
C1072 C 0.48161 0.44627 0.80168 0.0
C1073 C 0.49549 0.43682 0.87555 0.0
C1074 C 0.4764 0.41475 0.87276 0.0
C1075 C 0.45975 0.40888 0.83446 0.0
C1076 C 0.4624 0.42437 0.79919 0.0
H1077 H 0.11286 0.44866 0.93688 0.0
H1078 H 0.13196 0.41805 0.82038 0.0
H1079 H 0.10432 0.46957 0.8774 0.0
H1080 H 0.124 0.43954 0.76036 0.0
H1081 H 0.0673 0.44754 0.67698 0.0
H1082 H 0.09 0.43622 0.72547 0.0
H1083 H 0.11624 0.49836 0.81933 0.0
H1084 H 0.09285 0.50934 0.77174 0.0
C1085 C 0.11588 0.44697 0.89862 0.0
C1086 C 0.1232 0.43185 0.88334 0.0
C1087 C 0.11113 0.45909 0.86441 0.0
C1088 C 0.11349 0.45631 0.81389 0.0
C1089 C 0.12183 0.44196 0.79887 0.0
C1090 C 0.12654 0.42977 0.83322 0.0
C1091 C 0.07838 0.45916 0.70706 0.0
C1092 C 0.07771 0.47902 0.72134 0.0
C1093 C 0.09153 0.45267 0.7349 0.0
C1094 C 0.10449 0.46605 0.77727 0.0
C1095 C 0.10591 0.4873 0.78783 0.0
C1096 C 0.09261 0.49369 0.76025 0.0
H1097 H 0.66904 0.09628 0.92525 0.0
H1098 H 0.70892 0.10913 0.79945 0.0
H1099 H 0.63608 0.08618 0.87114 0.0
H1100 H 0.67584 0.09943 0.74465 0.0
H1101 H 0.60369 0.04524 0.67336 0.0
H1102 H 0.64081 0.065 0.71703 0.0
H1103 H 0.61822 0.09975 0.81605 0.0
H1104 H 0.58108 0.07954 0.77287 0.0
C1105 C 0.67084 0.09749 0.88597 0.0
C1106 C 0.69159 0.10375 0.86665 0.0
C1107 C 0.65196 0.0918 0.85483 0.0
C1108 C 0.65327 0.09212 0.80339 0.0
C1109 C 0.6742 0.0989 0.78402 0.0
C1110 C 0.69316 0.10463 0.81534 0.0
C1111 C 0.60697 0.05778 0.70314 0.0
C1112 C 0.58959 0.06095 0.71959 0.0
C1113 C 0.62823 0.06904 0.72849 0.0
C1114 C 0.63243 0.0837 0.77068 0.0
C1115 C 0.61544 0.08818 0.78449 0.0
C1116 C 0.59422 0.07677 0.75951 0.0
H1117 H 0.60723 0.68997 0.86862 0.0
H1118 H 0.56146 0.68719 0.75193 0.0
H1119 H 0.59245 0.64873 0.85363 0.0
H1120 H 0.54663 0.6463 0.73756 0.0
H1121 H 0.5168 0.57248 0.72384 0.0
H1122 H 0.52586 0.60746 0.77313 0.0
H1123 H 0.59615 0.62744 0.77995 0.0
H1124 H 0.58711 0.59272 0.73074 0.0
C1125 C 0.59369 0.68046 0.8406 0.0
C1126 C 0.58531 0.69177 0.81198 0.0
C1127 C 0.58523 0.65692 0.83211 0.0
C1128 C 0.56815 0.64424 0.79496 0.0
C1129 C 0.55936 0.65546 0.76734 0.0
C1130 C 0.56798 0.67896 0.77536 0.0
C1131 C 0.53403 0.58386 0.73783 0.0
C1132 C 0.55133 0.58019 0.72295 0.0
C1133 C 0.53924 0.60396 0.76563 0.0
C1134 C 0.56176 0.62037 0.77945 0.0
C1135 C 0.57866 0.61516 0.76986 0.0
C1136 C 0.57349 0.59529 0.74157 0.0
H1137 H 0.43566 0.08 0.32402 0.0
H1138 H 0.51792 0.14385 0.31732 0.0
H1139 H 0.45065 0.05612 0.3859 0.0
H1140 H 0.53126 0.11832 0.3794 0.0
H1141 H 0.47803 0.02196 0.47955 0.0
H1142 H 0.47074 0.03934 0.40972 0.0
H1143 H 0.5297 0.10412 0.45684 0.0
H1144 H 0.53753 0.0861 0.52496 0.0
C1145 C 0.45341 0.08642 0.3319 0.0
C1146 C 0.47489 0.11637 0.32139 0.0
C1147 C 0.46298 0.07211 0.37222 0.0
C1148 C 0.49253 0.08488 0.39174 0.0
C1149 C 0.51367 0.11152 0.3688 0.0
C1150 C 0.50569 0.12714 0.32829 0.0
C1151 C 0.48977 0.03973 0.47375 0.0
C1152 C 0.50842 0.05272 0.50698 0.0
C1153 C 0.48541 0.04986 0.43431 0.0
C1154 C 0.49931 0.07334 0.42816 0.0
C1155 C 0.51872 0.08598 0.45998 0.0
C1156 C 0.52327 0.07571 0.49904 0.0
H1157 H 0.35675 0.52171 0.50326 0.0
H1158 H 0.33822 0.45329 0.44843 0.0
H1159 H 0.39453 0.5292 0.52759 0.0
H1160 H 0.37615 0.46107 0.4716 0.0
H1161 H 0.45287 0.49691 0.45711 0.0
H1162 H 0.41479 0.48946 0.43983 0.0
H1163 H 0.41395 0.5132 0.5887 0.0
H1164 H 0.45237 0.52068 0.60644 0.0
C1165 C 0.3606 0.50815 0.49712 0.0
C1166 C 0.34428 0.48666 0.47504 0.0
C1167 C 0.38222 0.51248 0.511 0.0
C1168 C 0.38815 0.49566 0.50174 0.0
C1169 C 0.37197 0.47431 0.4792 0.0
C1170 C 0.35028 0.46985 0.46608 0.0
C1171 C 0.4447 0.50069 0.48623 0.0
C1172 C 0.45567 0.50939 0.53322 0.0
C1173 C 0.42281 0.49625 0.47635 0.0
C1174 C 0.41144 0.50065 0.51297 0.0
C1175 C 0.42243 0.50972 0.5598 0.0
C1176 C 0.44432 0.51388 0.56998 0.0
H1177 H 0.8722 0.38741 0.34807 0.0
H1178 H 0.88745 0.34368 0.43295 0.0
H1179 H 0.90938 0.42013 0.37363 0.0
H1180 H 0.92413 0.37603 0.45894 0.0
H1181 H 0.95815 0.47135 0.50592 0.0
H1182 H 0.92694 0.44298 0.45079 0.0
H1183 H 0.9607 0.40385 0.43592 0.0
H1184 H 0.99139 0.43176 0.49244 0.0
C1185 C 0.88368 0.38476 0.37144 0.0
C1186 C 0.87699 0.363 0.38844 0.0
C1187 C 0.90488 0.40346 0.38625 0.0
C1188 C 0.91981 0.40074 0.4182 0.0
C1189 C 0.91333 0.37875 0.43351 0.0
C1190 C 0.8922 0.36017 0.41891 0.0
C1191 C 0.95924 0.45712 0.4894 0.0
C1192 C 0.97692 0.45346 0.50413 0.0
C1193 C 0.94134 0.44081 0.45779 0.0
C1194 C 0.94102 0.42078 0.44007 0.0
C1195 C 0.9601 0.41872 0.45014 0.0
C1196 C 0.97777 0.43479 0.48217 0.0
H1197 H 0.50149 0.85023 0.34611 0.0
H1198 H 0.57246 0.87387 0.3467 0.0
H1199 H 0.5097 0.88942 0.36266 0.0
H1200 H 0.58079 0.91328 0.36005 0.0
H1201 H 0.58386 0.96581 0.47869 0.0
H1202 H 0.57975 0.93278 0.43171 0.0
H1203 H 0.52354 0.9282 0.3448 0.0
H1204 H 0.52726 0.96121 0.39385 0.0
C1205 C 0.51885 0.86391 0.34884 0.0
C1206 C 0.53637 0.85895 0.34715 0.0
C1207 C 0.52359 0.88645 0.35759 0.0
C1208 C 0.54597 0.90457 0.36383 0.0
C1209 C 0.56338 0.89972 0.357 0.0
C1210 C 0.55864 0.87714 0.34916 0.0
C1211 C 0.57089 0.95808 0.44891 0.0
C1212 C 0.5556 0.96583 0.44066 0.0
C1213 C 0.56864 0.93917 0.42144 0.0
C1214 C 0.55109 0.92751 0.38471 0.0
C1215 C 0.53698 0.9365 0.37347 0.0
C1216 C 0.53924 0.95555 0.4012 0.0
H1217 H 0.70195 0.53365 0.43831 0.0
H1218 H 0.65519 0.50829 0.31032 0.0
H1219 H 0.6729 0.53283 0.48822 0.0
H1220 H 0.62638 0.5084 0.35939 0.0
H1221 H 0.57271 0.49282 0.46314 0.0
H1222 H 0.60192 0.48969 0.42197 0.0
H1223 H 0.65254 0.55196 0.50217 0.0
H1224 H 0.62342 0.55459 0.54465 0.0
C1225 C 0.68554 0.52829 0.42073 0.0
C1226 C 0.68104 0.52163 0.37017 0.0
C1227 C 0.66887 0.52782 0.44928 0.0
C1228 C 0.64724 0.52062 0.42795 0.0
C1229 C 0.64271 0.51375 0.37735 0.0
C1230 C 0.65933 0.51403 0.34894 0.0
C1231 C 0.5901 0.50561 0.47269 0.0
C1232 C 0.59567 0.5241 0.50684 0.0
C1233 C 0.60687 0.50396 0.44864 0.0
C1234 C 0.62962 0.52083 0.45783 0.0
C1235 C 0.63525 0.53857 0.49417 0.0
C1236 C 0.61849 0.54011 0.51856 0.0
H1237 H 0.11105 0.64935 0.2296 0.0
H1238 H 0.09353 0.69227 0.3163 0.0
H1239 H 0.09622 0.62058 0.29069 0.0
H1240 H 0.07839 0.6635 0.37686 0.0
H1241 H 0.07382 0.61893 0.49955 0.0
H1242 H 0.09113 0.64691 0.43874 0.0
H1243 H 0.0601 0.59314 0.32231 0.0
H1244 H 0.04296 0.56483 0.38352 0.0
C1245 C 0.10419 0.65267 0.26196 0.0
C1246 C 0.10383 0.6732 0.26876 0.0
C1247 C 0.09552 0.63615 0.29667 0.0
C1248 C 0.08624 0.63981 0.33876 0.0
C1249 C 0.08582 0.66034 0.34534 0.0
C1250 C 0.09444 0.6768 0.31068 0.0
C1251 C 0.07069 0.61295 0.46103 0.0
C1252 C 0.05681 0.58959 0.44646 0.0
C1253 C 0.08057 0.62907 0.42613 0.0
C1254 C 0.0768 0.6223 0.37567 0.0
C1255 C 0.06345 0.59888 0.36097 0.0
C1256 C 0.05355 0.58267 0.39603 0.0
loop_
_geom_bond_atom_site_label_1
_geom_bond_atom_site_label_2
_geom_bond_distance
_geom_bond_site_symmetry_2
_ccdc_geom_bond_type
C0 C1 1.560 . S
C0 H61 0.959 . S
C0 H62 0.959 . S
C0 H63 0.960 . S
C1 C0 1.560 . S
C1 O56 1.426 . S
C1 H60 0.980 . S
C2 C3 1.407 . S
C2 C7 1.418 . S
C2 O56 1.334 . S
C3 C2 1.407 . S
C3 C4 1.360 . S
C3 H64 0.929 . S
C4 C3 1.360 . S
C4 C5 1.401 . S
C4 C8 1.527 . S
C5 C4 1.401 . S
C5 C6 1.405 . S
C5 C38 1.587 . S
C6 C5 1.405 . S
C6 C7 1.332 . S
C6 C9 1.496 . S
C7 C2 1.418 . S
C7 C6 1.332 . S
C7 H65 0.929 . S
C8 C4 1.527 . S
C8 H66 0.959 . S
C8 H67 0.961 . S
C8 H68 0.961 . S
C9 C6 1.496 . S
C9 H69 0.960 . S
C9 H70 0.960 . S
C9 H71 0.961 . S
C10 C11 1.517 . S
C10 H73 0.961 . S
C10 H74 0.960 . S
C10 H75 0.959 . S
C11 C10 1.517 . S
C11 O59 1.468 . S
C11 H72 0.980 . S
C12 C13 1.349 . S
C12 C17 1.367 . S
C12 O59 1.408 . S
C13 C12 1.349 . S
C13 C14 1.407 . S
C13 H76 0.930 . S
C14 C13 1.407 . S
C14 C15 1.449 . S
C14 C18 1.535 . S
C15 C14 1.449 . S
C15 C16 1.384 . S
C15 C40 1.553 . S
C16 C15 1.384 . S
C16 C17 1.364 . S
C16 C19 1.450 . S
C17 C12 1.367 . S
C17 C16 1.364 . S
C17 H77 0.931 . S
C18 C14 1.535 . S
C18 H78 0.959 . S
C18 H79 0.961 . S
C18 H80 0.959 . S
C19 C16 1.450 . S
C19 H81 0.960 . S
C19 H82 0.960 . S
C19 H83 0.960 . S
C20 C21 1.309 1_556 S
C20 C25 1.304 . S
C20 O58 1.435 . S
C21 C20 1.309 1_554 S
C21 C22 1.476 . S
C21 H85 0.930 . S
C22 C21 1.476 . S
C22 C23 1.400 . S
C22 C26 1.567 . S
C23 C22 1.400 . S
C23 C24 1.373 . S
C23 C45 1.432 . S
C24 C23 1.373 . S
C24 C25 1.339 1_554 S
C24 C27 1.530 . S
C25 C20 1.304 . S
C25 C24 1.339 1_556 S
C25 H86 0.930 . S
C26 C22 1.567 . S
C26 H87 0.961 . S
C26 H88 0.960 . S
C26 H89 0.958 . S
C27 C24 1.530 . S
C27 H90 0.961 . S
C27 H91 0.960 . S
C27 H92 0.960 . S
C28 C29 1.530 . S
C28 H94 0.961 . S
C28 H95 0.961 . S
C28 H96 0.959 . S
C29 C28 1.530 . S
C29 O57 1.412 . S
C29 H93 0.980 . S
C30 C31 1.288 1_556 S
C30 C35 1.376 1_556 S
C30 O57 1.393 . S
C31 C30 1.288 1_554 S
C31 C32 1.369 . S
C31 H97 0.929 1_554 S
C32 C31 1.369 . S
C32 C33 1.398 . S
C32 C36 1.527 . S
C33 C32 1.398 . S
C33 C34 1.380 . S
C33 C47 1.497 . S
C34 C33 1.380 . S
C34 C35 1.385 . S
C34 C37 1.603 . S
C35 C30 1.376 1_554 S
C35 C34 1.385 . S
C35 H98 0.927 1_554 S
C36 C32 1.527 . S
C36 H99 0.961 . S
C36 H100 0.959 . S
C36 H101 0.959 . S
C37 C34 1.603 . S
C37 H102 0.960 . S
C37 H103 0.962 . S
C37 H104 0.961 . S
C38 C5 1.587 . S
C38 C39 1.360 . S
C38 C51 1.412 . S
C39 C38 1.360 . S
C39 C40 1.365 . S
C39 H105 0.929 . S
C40 C15 1.553 . S
C40 C39 1.365 . S
C40 C41 1.404 . S
C41 C40 1.404 . S
C41 C42 1.395 . S
C41 C52 1.451 . S
C42 C41 1.395 . S
C42 C43 1.322 . S
C42 H106 0.930 . S
C43 C42 1.322 . S
C43 C44 1.459 . S
C43 H107 0.929 . S
C44 C43 1.459 . S
C44 C45 1.445 . S
C44 C53 1.395 . S
C45 C23 1.432 . S
C45 C44 1.445 . S
C45 C46 1.370 . S
C46 C45 1.370 . S
C46 C47 1.438 . S
C46 H108 0.930 . S
C47 C33 1.497 . S
C47 C46 1.438 . S
C47 C48 1.360 . S
C48 C47 1.360 . S
C48 C49 1.401 . S
C48 C53 1.446 . S
C49 C48 1.401 . S
C49 C50 1.347 . S
C49 H109 0.929 . S
C50 C49 1.347 . S
C50 C51 1.455 . S
C50 H110 0.930 . S
C51 C38 1.412 . S
C51 C50 1.455 . S
C51 C52 1.331 . S
C52 C41 1.451 . S
C52 C51 1.331 . S
C52 C53 1.497 . S
C53 C44 1.395 . S
C53 C48 1.446 . S
C53 C52 1.497 . S
C54 C55 1.582 . S
C54 H111 0.962 . S
C54 H112 0.959 . S
C54 H113 0.958 . S
C55 C54 1.582 . S
C55 O58 1.458 . S
C55 H84 0.980 . S
O56 C1 1.426 . S
O56 C2 1.334 . S
O57 C29 1.412 . S
O57 C30 1.393 . S
O58 C20 1.435 . S
O58 C55 1.458 . S
O59 C11 1.468 . S
O59 C12 1.408 . S
H60 C1 0.980 . S
H61 C0 0.959 . S
H62 C0 0.959 . S
H63 C0 0.960 . S
H64 C3 0.929 . S
H65 C7 0.929 . S
H66 C8 0.959 . S
H67 C8 0.961 . S
H68 C8 0.961 . S
H69 C9 0.960 . S
H70 C9 0.960 . S
H71 C9 0.961 . S
H72 C11 0.980 . S
H73 C10 0.961 . S
H74 C10 0.960 . S
H75 C10 0.959 . S
H76 C13 0.930 . S
H77 C17 0.931 . S
H78 C18 0.959 . S
H79 C18 0.961 . S
H80 C18 0.959 . S
H81 C19 0.960 . S
H82 C19 0.960 . S
H83 C19 0.960 . S
H84 C55 0.980 . S
H85 C21 0.930 . S
H86 C25 0.930 . S
H87 C26 0.961 . S
H88 C26 0.960 . S
H89 C26 0.958 . S
H90 C27 0.961 . S
H91 C27 0.960 . S
H92 C27 0.960 . S
H93 C29 0.980 . S
H94 C28 0.961 . S
H95 C28 0.961 . S
H96 C28 0.959 . S
H97 C31 0.929 1_556 S
H98 C35 0.927 1_556 S
H99 C36 0.961 . S
H100 C36 0.959 . S
H101 C36 0.959 . S
H102 C37 0.960 . S
H103 C37 0.962 . S
H104 C37 0.961 . S
H105 C39 0.929 . S
H106 C42 0.930 . S
H107 C43 0.929 . S
H108 C46 0.930 . S
H109 C49 0.929 . S
H110 C50 0.930 . S
H111 C54 0.962 . S
H112 C54 0.959 . S
H113 C54 0.958 . S
C114 C115 1.560 . S
C114 H175 0.959 . S
C114 H176 0.959 . S
C114 H177 0.960 . S
C115 C114 1.560 . S
C115 O170 1.426 . S
C115 H174 0.980 . S
C116 C117 1.407 . S
C116 C121 1.418 . S
C116 O170 1.334 . S
C117 C116 1.407 . S
C117 C118 1.360 . S
C117 H178 0.929 . S
C118 C117 1.360 . S
C118 C119 1.401 . S
C118 C122 1.527 . S
C119 C118 1.401 . S
C119 C120 1.405 . S
C119 C152 1.587 . S
C120 C119 1.405 . S
C120 C121 1.332 . S
C120 C123 1.496 . S
C121 C116 1.418 . S
C121 C120 1.332 . S
C121 H179 0.929 . S
C122 C118 1.527 . S
C122 H180 0.959 . S
C122 H181 0.961 . S
C122 H182 0.961 . S
C123 C120 1.496 . S
C123 H183 0.960 . S
C123 H184 0.960 . S
C123 H185 0.961 . S
C124 C125 1.517 . S
C124 H187 0.961 . S
C124 H188 0.960 . S
C124 H189 0.959 . S
C125 C124 1.517 . S
C125 O173 1.468 . S
C125 H186 0.980 . S
C126 C127 1.349 . S
C126 C131 1.367 . S
C126 O173 1.408 . S
C127 C126 1.349 . S
C127 C128 1.407 . S
C127 H190 0.930 . S
C128 C127 1.407 . S
C128 C129 1.449 . S
C128 C132 1.535 . S
C129 C128 1.449 . S
C129 C130 1.384 . S
C129 C154 1.553 . S
C130 C129 1.384 . S
C130 C131 1.364 . S
C130 C133 1.450 . S
C131 C126 1.367 . S
C131 C130 1.364 . S
C131 H191 0.931 . S
C132 C128 1.535 . S
C132 H192 0.959 . S
C132 H193 0.961 . S
C132 H194 0.959 . S
C133 C130 1.450 . S
C133 H195 0.960 . S
C133 H196 0.960 . S
C133 H197 0.960 . S
C134 C135 1.309 . S
C134 C139 1.304 . S
C134 O172 1.435 . S
C135 C134 1.309 . S
C135 C136 1.476 1_556 S
C135 H199 0.930 . S
C136 C135 1.476 1_554 S
C136 C137 1.400 . S
C136 C140 1.567 . S
C137 C136 1.400 . S
C137 C138 1.373 1_554 S
C137 C159 1.432 . S
C138 C137 1.373 1_556 S
C138 C139 1.339 . S
C138 C141 1.530 1_556 S
C139 C134 1.304 . S
C139 C138 1.339 . S
C139 H200 0.930 . S
C140 C136 1.567 . S
C140 H201 0.961 . S
C140 H202 0.960 . S
C140 H203 0.958 . S
C141 C138 1.530 1_554 S
C141 H204 0.961 1_554 S
C141 H205 0.960 . S
C141 H206 0.960 1_554 S
C142 C143 1.530 . S
C142 H208 0.961 . S
C142 H209 0.961 . S
C142 H210 0.959 . S
C143 C142 1.530 . S
C143 O171 1.412 . S
C143 H207 0.980 . S
C144 C145 1.288 . S
C144 C149 1.377 . S
C144 O171 1.393 . S
C145 C144 1.288 . S
C145 C146 1.369 1_556 S
C145 H211 0.932 . S
C146 C145 1.369 1_554 S
C146 C147 1.398 . S
C146 C150 1.527 . S
C147 C146 1.398 . S
C147 C148 1.380 . S
C147 C161 1.497 . S
C148 C147 1.380 . S
C148 C149 1.383 1_554 S
C148 C151 1.603 . S
C149 C144 1.377 . S
C149 C148 1.383 1_556 S
C149 H212 0.929 . S
C150 C146 1.527 . S
C150 H213 0.961 . S
C150 H214 0.967 . S
C150 H215 0.959 . S
C151 C148 1.603 . S
C151 H216 0.960 1_554 S
C151 H217 0.962 . S
C151 H218 0.961 . S
C152 C119 1.587 . S
C152 C153 1.360 . S
C152 C165 1.412 . S
C153 C152 1.360 . S
C153 C154 1.365 . S
C153 H219 0.929 . S
C154 C129 1.553 . S
C154 C153 1.365 . S
C154 C155 1.404 . S
C155 C154 1.404 . S
C155 C156 1.395 . S
C155 C166 1.451 . S
C156 C155 1.395 . S
C156 C157 1.322 . S
C156 H220 0.930 . S
C157 C156 1.322 . S
C157 C158 1.459 . S
C157 H221 0.929 . S
C158 C157 1.459 . S
C158 C159 1.445 . S
C158 C167 1.395 . S
C159 C137 1.432 . S
C159 C158 1.445 . S
C159 C160 1.370 . S
C160 C159 1.370 . S
C160 C161 1.438 . S
C160 H222 0.930 1_554 S
C161 C147 1.497 . S
C161 C160 1.438 . S
C161 C162 1.360 . S
C162 C161 1.360 . S
C162 C163 1.401 . S
C162 C167 1.446 . S
C163 C162 1.401 . S
C163 C164 1.347 . S
C163 H223 0.929 . S
C164 C163 1.347 . S
C164 C165 1.455 . S
C164 H224 0.930 . S
C165 C152 1.412 . S
C165 C164 1.455 . S
C165 C166 1.331 . S
C166 C155 1.451 . S
C166 C165 1.331 . S
C166 C167 1.497 . S
C167 C158 1.395 . S
C167 C162 1.446 . S
C167 C166 1.497 . S
C168 C169 1.582 . S
C168 H225 0.962 . S
C168 H226 0.959 . S
C168 H227 0.958 . S
C169 C168 1.582 . S
C169 O172 1.458 . S
C169 H198 0.980 . S
O170 C115 1.426 . S
O170 C116 1.334 . S
O171 C143 1.412 . S
O171 C144 1.393 . S
O172 C134 1.435 . S
O172 C169 1.458 . S
O173 C125 1.468 . S
O173 C126 1.408 . S
H174 C115 0.980 . S
H175 C114 0.959 . S
H176 C114 0.959 . S
H177 C114 0.960 . S
H178 C117 0.929 . S
H179 C121 0.929 . S
H180 C122 0.959 . S
H181 C122 0.961 . S
H182 C122 0.961 . S
H183 C123 0.960 . S
H184 C123 0.960 . S
H185 C123 0.961 . S
H186 C125 0.980 . S
H187 C124 0.961 . S
H188 C124 0.960 . S
H189 C124 0.959 . S
H190 C127 0.930 . S
H191 C131 0.931 . S
H192 C132 0.959 . S
H193 C132 0.961 . S
H194 C132 0.959 . S
H195 C133 0.960 . S
H196 C133 0.960 . S
H197 C133 0.960 . S
H198 C169 0.980 . S
H199 C135 0.930 . S
H200 C139 0.930 . S
H201 C140 0.961 . S
H202 C140 0.960 . S
H203 C140 0.958 . S
H204 C141 0.961 1_556 S
H205 C141 0.960 . S
H206 C141 0.960 1_556 S
H207 C143 0.980 . S
H208 C142 0.961 . S
H209 C142 0.961 . S
H210 C142 0.959 . S
H211 C145 0.932 . S
H212 C149 0.929 . S
H213 C150 0.961 . S
H214 C150 0.967 . S
H215 C150 0.959 . S
H216 C151 0.960 1_556 S
H217 C151 0.962 . S
H218 C151 0.961 . S
H219 C153 0.929 . S
H220 C156 0.930 . S
H221 C157 0.929 . S
H222 C160 0.930 1_556 S
H223 C163 0.929 . S
H224 C164 0.930 . S
H225 C168 0.962 . S
H226 C168 0.959 . S
H227 C168 0.958 . S
C228 C229 1.560 . S
C228 H289 0.959 . S
C228 H290 0.959 . S
C228 H291 0.960 . S
C229 C228 1.560 . S
C229 O284 1.426 . S
C229 H288 0.980 . S
C230 C231 1.407 . S
C230 C235 1.418 . S
C230 O284 1.334 . S
C231 C230 1.407 . S
C231 C232 1.360 . S
C231 H292 0.929 . S
C232 C231 1.360 . S
C232 C233 1.401 . S
C232 C236 1.527 . S
C233 C232 1.401 . S
C233 C234 1.405 . S
C233 C266 1.587 . S
C234 C233 1.405 . S
C234 C235 1.332 . S
C234 C237 1.496 . S
C235 C230 1.418 . S
C235 C234 1.332 . S
C235 H293 0.929 . S
C236 C232 1.527 . S
C236 H294 0.959 . S
C236 H295 0.961 . S
C236 H296 0.961 . S
C237 C234 1.496 . S
C237 H297 0.960 . S
C237 H298 0.960 . S
C237 H299 0.961 . S
C238 C239 1.517 . S
C238 H301 0.961 . S
C238 H302 0.960 . S
C238 H303 0.959 . S
C239 C238 1.517 . S
C239 O287 1.468 . S
C239 H300 0.980 . S
C240 C241 1.349 . S
C240 C245 1.367 . S
C240 O287 1.408 . S
C241 C240 1.349 . S
C241 C242 1.407 . S
C241 H304 0.930 . S
C242 C241 1.407 . S
C242 C243 1.449 . S
C242 C246 1.535 . S
C243 C242 1.449 . S
C243 C244 1.384 . S
C243 C268 1.553 . S
C244 C243 1.384 . S
C244 C245 1.364 . S
C244 C247 1.450 . S
C245 C240 1.367 . S
C245 C244 1.364 . S
C245 H305 0.931 . S
C246 C242 1.535 . S
C246 H306 0.959 . S
C246 H307 0.961 . S
C246 H308 0.959 . S
C247 C244 1.450 . S
C247 H309 0.960 . S
C247 H310 0.960 . S
C247 H311 0.960 . S
C248 C249 1.309 . S
C248 C253 1.304 . S
C248 O286 1.435 . S
C249 C248 1.309 . S
C249 C250 1.476 . S
C249 H313 0.930 . S
C250 C249 1.476 . S
C250 C251 1.400 . S
C250 C254 1.567 . S
C251 C250 1.400 . S
C251 C252 1.373 . S
C251 C273 1.432 . S
C252 C251 1.373 . S
C252 C253 1.339 . S
C252 C255 1.530 . S
C253 C248 1.304 . S
C253 C252 1.339 . S
C253 H314 0.930 . S
C254 C250 1.567 . S
C254 H315 0.961 . S
C254 H316 0.960 . S
C254 H317 0.958 . S
C255 C252 1.530 . S
C255 H318 0.961 . S
C255 H319 0.960 . S
C255 H320 0.960 . S
C256 C257 1.530 . S
C256 H322 0.961 . S
C256 H323 0.961 . S
C256 H324 0.959 . S
C257 C256 1.530 . S
C257 O285 1.412 . S
C257 H321 0.980 . S
C258 C259 1.288 . S
C258 C263 1.377 . S
C258 O285 1.393 . S
C259 C258 1.288 . S
C259 C260 1.369 . S
C259 H325 0.932 . S
C260 C259 1.369 . S
C260 C261 1.398 . S
C260 C264 1.527 . S
C261 C260 1.398 . S
C261 C262 1.380 . S
C261 C275 1.497 . S
C262 C261 1.380 . S
C262 C263 1.383 . S
C262 C265 1.603 . S
C263 C258 1.377 . S
C263 C262 1.383 . S
C263 H326 0.929 . S
C264 C260 1.527 . S
C264 H327 0.961 . S
C264 H328 0.959 . S
C264 H329 0.959 . S
C265 C262 1.603 . S
C265 H330 0.960 . S
C265 H331 0.962 . S
C265 H332 0.961 . S
C266 C233 1.587 . S
C266 C267 1.360 . S
C266 C279 1.412 . S
C267 C266 1.360 . S
C267 C268 1.365 . S
C267 H333 0.929 . S
C268 C243 1.553 . S
C268 C267 1.365 . S
C268 C269 1.404 . S
C269 C268 1.404 . S
C269 C270 1.395 . S
C269 C280 1.451 . S
C270 C269 1.395 . S
C270 C271 1.322 . S
C270 H334 0.930 . S
C271 C270 1.322 . S
C271 C272 1.459 1_554 S
C271 H335 0.929 . S
C272 C271 1.459 1_556 S
C272 C273 1.445 . S
C272 C281 1.395 1_556 S
C273 C251 1.432 . S
C273 C272 1.445 . S
C273 C274 1.370 . S
C274 C273 1.370 . S
C274 C275 1.438 . S
C274 H336 0.930 . S
C275 C261 1.497 . S
C275 C274 1.438 . S
C275 C276 1.360 . S
C276 C275 1.360 . S
C276 C277 1.401 1_556 S
C276 C281 1.446 1_556 S
C277 C276 1.401 1_554 S
C277 C278 1.347 . S
C277 H337 0.929 1_554 S
C278 C277 1.347 . S
C278 C279 1.455 . S
C278 H338 0.930 . S
C279 C266 1.412 . S
C279 C278 1.455 . S
C279 C280 1.331 . S
C280 C269 1.451 . S
C280 C279 1.331 . S
C280 C281 1.497 . S
C281 C272 1.395 1_554 S
C281 C276 1.446 1_554 S
C281 C280 1.497 . S
C282 C283 1.582 . S
C282 H339 0.962 . S
C282 H340 0.959 . S
C282 H341 0.958 . S
C283 C282 1.582 . S
C283 O286 1.458 . S
C283 H312 0.980 . S
O284 C229 1.426 . S
O284 C230 1.334 . S
O285 C257 1.412 . S
O285 C258 1.393 . S
O286 C248 1.435 . S
O286 C283 1.458 . S
O287 C239 1.468 . S
O287 C240 1.408 . S
H288 C229 0.980 . S
H289 C228 0.959 . S
H290 C228 0.959 . S
H291 C228 0.960 . S
H292 C231 0.929 . S
H293 C235 0.929 . S
H294 C236 0.959 . S
H295 C236 0.961 . S
H296 C236 0.961 . S
H297 C237 0.960 . S
H298 C237 0.960 . S
H299 C237 0.961 . S
H300 C239 0.980 . S
H301 C238 0.961 . S
H302 C238 0.960 . S
H303 C238 0.959 . S
H304 C241 0.930 . S
H305 C245 0.931 . S
H306 C246 0.959 . S
H307 C246 0.961 . S
H308 C246 0.959 . S
H309 C247 0.960 . S
H310 C247 0.960 . S
H311 C247 0.960 . S
H312 C283 0.980 . S
H313 C249 0.930 . S
H314 C253 0.930 . S
H315 C254 0.961 . S
H316 C254 0.960 . S
H317 C254 0.958 . S
H318 C255 0.961 . S
H319 C255 0.960 . S
H320 C255 0.960 . S
H321 C257 0.980 . S
H322 C256 0.961 . S
H323 C256 0.961 . S
H324 C256 0.959 . S
H325 C259 0.932 . S
H326 C263 0.929 . S
H327 C264 0.961 . S
H328 C264 0.959 . S
H329 C264 0.959 . S
H330 C265 0.960 . S
H331 C265 0.962 . S
H332 C265 0.961 . S
H333 C267 0.929 . S
H334 C270 0.930 . S
H335 C271 0.929 . S
H336 C274 0.930 . S
H337 C277 0.929 1_556 S
H338 C278 0.930 . S
H339 C282 0.962 . S
H340 C282 0.959 . S
H341 C282 0.958 . S
C342 C343 1.560 . S
C342 H403 0.959 . S
C342 H404 0.959 . S
C342 H405 0.960 . S
C343 C342 1.560 . S
C343 O398 1.426 . S
C343 H402 0.980 . S
C344 C345 1.407 . S
C344 C349 1.418 . S
C344 O398 1.334 . S
C345 C344 1.407 . S
C345 C346 1.360 . S
C345 H406 0.929 . S
C346 C345 1.360 . S
C346 C347 1.401 . S
C346 C350 1.527 . S
C347 C346 1.401 . S
C347 C348 1.405 . S
C347 C380 1.587 . S
C348 C347 1.405 . S
C348 C349 1.332 . S
C348 C351 1.496 . S
C349 C344 1.418 . S
C349 C348 1.332 . S
C349 H407 0.929 . S
C350 C346 1.527 . S
C350 H408 0.959 . S
C350 H409 0.961 . S
C350 H410 0.961 . S
C351 C348 1.496 . S
C351 H411 0.960 . S
C351 H412 0.960 . S
C351 H413 0.961 . S
C352 C353 1.517 . S
C352 H415 0.961 . S
C352 H416 0.960 . S
C352 H417 0.959 . S
C353 C352 1.517 . S
C353 O401 1.468 . S
C353 H414 0.980 . S
C354 C355 1.349 . S
C354 C359 1.367 . S
C354 O401 1.408 . S
C355 C354 1.349 . S
C355 C356 1.407 . S
C355 H418 0.930 . S
C356 C355 1.407 . S
C356 C357 1.449 . S
C356 C360 1.535 . S
C357 C356 1.449 . S
C357 C358 1.384 . S
C357 C382 1.553 . S
C358 C357 1.384 . S
C358 C359 1.364 . S
C358 C361 1.450 . S
C359 C354 1.367 . S
C359 C358 1.364 . S
C359 H419 0.931 . S
C360 C356 1.535 . S
C360 H420 0.959 . S
C360 H421 0.961 . S
C360 H422 0.959 . S
C361 C358 1.450 . S
C361 H423 0.960 . S
C361 H424 0.960 . S
C361 H425 0.960 . S
C362 C363 1.309 . S
C362 C367 1.304 . S
C362 O400 1.435 . S
C363 C362 1.309 . S
C363 C364 1.476 . S
C363 H427 0.930 . S
C364 C363 1.476 . S
C364 C365 1.400 . S
C364 C368 1.567 . S
C365 C364 1.400 . S
C365 C366 1.373 . S
C365 C387 1.432 . S
C366 C365 1.373 . S
C366 C367 1.339 . S
C366 C369 1.530 . S
C367 C362 1.304 . S
C367 C366 1.339 . S
C367 H428 0.930 . S
C368 C364 1.567 . S
C368 H429 0.954 1_556 S
C368 H430 0.960 . S
C368 H431 0.958 . S
C369 C366 1.530 . S
C369 H432 0.961 . S
C369 H433 0.960 . S
C369 H434 0.960 . S
C370 C371 1.530 . S
C370 H436 0.961 . S
C370 H437 0.961 . S
C370 H438 0.959 . S
C371 C370 1.530 . S
C371 O399 1.412 . S
C371 H435 0.980 . S
C372 C373 1.288 . S
C372 C377 1.377 . S
C372 O399 1.393 . S
C373 C372 1.288 . S
C373 C374 1.369 . S
C373 H439 0.932 . S
C374 C373 1.369 . S
C374 C375 1.398 . S
C374 C378 1.527 . S
C375 C374 1.398 . S
C375 C376 1.380 . S
C375 C389 1.497 . S
C376 C375 1.380 . S
C376 C377 1.383 . S
C376 C379 1.603 . S
C377 C372 1.377 . S
C377 C376 1.383 . S
C377 H440 0.929 . S
C378 C374 1.527 . S
C378 H441 0.961 . S
C378 H442 0.959 . S
C378 H443 0.959 . S
C379 C376 1.603 . S
C379 H444 0.960 . S
C379 H445 0.962 . S
C379 H446 0.961 . S
C380 C347 1.587 . S
C380 C381 1.360 . S
C380 C393 1.412 . S
C381 C380 1.360 . S
C381 C382 1.365 . S
C381 H447 0.929 . S
C382 C357 1.553 . S
C382 C381 1.365 . S
C382 C383 1.404 . S
C383 C382 1.404 . S
C383 C384 1.395 . S
C383 C394 1.451 . S
C384 C383 1.395 . S
C384 C385 1.322 . S
C384 H448 0.930 . S
C385 C384 1.322 . S
C385 C386 1.459 . S
C385 H449 0.929 . S
C386 C385 1.459 . S
C386 C387 1.445 1_554 S
C386 C395 1.395 . S
C387 C365 1.432 . S
C387 C386 1.445 1_556 S
C387 C388 1.370 . S
C388 C387 1.370 . S
C388 C389 1.438 . S
C388 H450 0.930 . S
C389 C375 1.497 . S
C389 C388 1.438 . S
C389 C390 1.360 1_556 S
C390 C389 1.360 1_554 S
C390 C391 1.401 . S
C390 C395 1.446 . S
C391 C390 1.401 . S
C391 C392 1.347 . S
C391 H451 0.929 . S
C392 C391 1.347 . S
C392 C393 1.455 . S
C392 H452 0.930 . S
C393 C380 1.412 . S
C393 C392 1.455 . S
C393 C394 1.331 . S
C394 C383 1.451 . S
C394 C393 1.331 . S
C394 C395 1.497 . S
C395 C386 1.395 . S
C395 C390 1.446 . S
C395 C394 1.497 . S
C396 C397 1.582 . S
C396 H453 0.962 . S
C396 H454 0.959 . S
C396 H455 0.958 . S
C397 C396 1.582 . S
C397 O400 1.458 . S
C397 H426 0.980 . S
O398 C343 1.426 . S
O398 C344 1.334 . S
O399 C371 1.412 . S
O399 C372 1.393 . S
O400 C362 1.435 . S
O400 C397 1.458 . S
O401 C353 1.468 . S
O401 C354 1.408 . S
H402 C343 0.980 . S
H403 C342 0.959 . S
H404 C342 0.959 . S
H405 C342 0.960 . S
H406 C345 0.929 . S
H407 C349 0.929 . S
H408 C350 0.959 . S
H409 C350 0.961 . S
H410 C350 0.961 . S
H411 C351 0.960 . S
H412 C351 0.960 . S
H413 C351 0.961 . S
H414 C353 0.980 . S
H415 C352 0.961 . S
H416 C352 0.960 . S
H417 C352 0.959 . S
H418 C355 0.930 . S
H419 C359 0.931 . S
H420 C360 0.959 . S
H421 C360 0.961 . S
H422 C360 0.959 . S
H423 C361 0.960 . S
H424 C361 0.960 . S
H425 C361 0.960 . S
H426 C397 0.980 . S
H427 C363 0.930 . S
H428 C367 0.930 . S
H429 C368 0.954 1_554 S
H430 C368 0.960 . S
H431 C368 0.958 . S
H432 C369 0.961 . S
H433 C369 0.960 . S
H434 C369 0.960 . S
H435 C371 0.980 . S
H436 C370 0.961 . S
H437 C370 0.961 . S
H438 C370 0.959 . S
H439 C373 0.932 . S
H440 C377 0.929 . S
H441 C378 0.961 . S
H442 C378 0.959 . S
H443 C378 0.959 . S
H444 C379 0.960 . S
H445 C379 0.962 . S
H446 C379 0.961 . S
H447 C381 0.929 . S
H448 C384 0.930 . S
H449 C385 0.929 . S
H450 C388 0.930 . S
H451 C391 0.929 . S
H452 C392 0.930 . S
H453 C396 0.962 . S
H454 C396 0.959 . S
H455 C396 0.958 . S
C456 C457 1.560 . S
C456 H517 0.959 . S
C456 H518 0.959 . S
C456 H519 0.960 . S
C457 C456 1.560 . S
C457 O512 1.426 . S
C457 H516 0.980 . S
C458 C459 1.407 . S
C458 C463 1.418 . S
C458 O512 1.334 . S
C459 C458 1.407 . S
C459 C460 1.360 . S
C459 H520 0.929 . S
C460 C459 1.360 . S
C460 C461 1.401 . S
C460 C464 1.527 . S
C461 C460 1.401 . S
C461 C462 1.405 . S
C461 C494 1.587 . S
C462 C461 1.405 . S
C462 C463 1.332 . S
C462 C465 1.496 . S
C463 C458 1.418 . S
C463 C462 1.332 . S
C463 H521 0.929 . S
C464 C460 1.527 . S
C464 H522 0.959 . S
C464 H523 0.961 . S
C464 H524 0.961 . S
C465 C462 1.496 . S
C465 H525 0.960 . S
C465 H526 0.960 . S
C465 H527 0.961 1_556 S
C466 C467 1.517 . S
C466 H529 0.961 . S
C466 H530 0.960 . S
C466 H531 0.959 . S
C467 C466 1.517 . S
C467 O515 1.468 . S
C467 H528 0.980 . S
C468 C469 1.349 . S
C468 C473 1.367 . S
C468 O515 1.408 . S
C469 C468 1.349 . S
C469 C470 1.407 . S
C469 H532 0.930 . S
C470 C469 1.407 . S
C470 C471 1.449 . S
C470 C474 1.535 . S
C471 C470 1.449 . S
C471 C472 1.384 . S
C471 C496 1.553 . S
C472 C471 1.384 . S
C472 C473 1.364 . S
C472 C475 1.450 . S
C473 C468 1.367 . S
C473 C472 1.364 . S
C473 H533 0.931 . S
C474 C470 1.535 . S
C474 H534 0.959 . S
C474 H535 0.961 . S
C474 H536 0.959 . S
C475 C472 1.450 . S
C475 H537 0.960 . S
C475 H538 0.960 . S
C475 H539 0.960 1_556 S
C476 C477 1.309 . S
C476 C481 1.304 . S
C476 O514 1.435 . S
C477 C476 1.309 . S
C477 C478 1.476 . S
C477 H541 0.930 . S
C478 C477 1.476 . S
C478 C479 1.400 . S
C478 C482 1.567 . S
C479 C478 1.400 . S
C479 C480 1.373 . S
C479 C501 1.432 . S
C480 C479 1.373 . S
C480 C481 1.339 . S
C480 C483 1.530 . S
C481 C476 1.304 . S
C481 C480 1.339 . S
C481 H542 0.930 . S
C482 C478 1.567 . S
C482 H543 0.961 . S
C482 H544 0.960 . S
C482 H545 0.958 . S
C483 C480 1.530 . S
C483 H546 0.961 . S
C483 H547 0.960 . S
C483 H548 0.960 . S
C484 C485 1.530 . S
C484 H550 0.961 . S
C484 H551 0.961 . S
C484 H552 0.959 . S
C485 C484 1.530 . S
C485 O513 1.412 . S
C485 H549 0.980 . S
C486 C487 1.288 . S
C486 C491 1.377 . S
C486 O513 1.393 . S
C487 C486 1.288 . S
C487 C488 1.369 . S
C487 H553 0.932 . S
C488 C487 1.369 . S
C488 C489 1.398 . S
C488 C492 1.527 . S
C489 C488 1.398 . S
C489 C490 1.380 . S
C489 C503 1.497 . S
C490 C489 1.380 . S
C490 C491 1.383 . S
C490 C493 1.603 . S
C491 C486 1.377 . S
C491 C490 1.383 . S
C491 H554 0.929 . S
C492 C488 1.527 . S
C492 H555 0.961 . S
C492 H556 0.959 . S
C492 H557 0.959 . S
C493 C490 1.603 . S
C493 H558 0.960 . S
C493 H559 0.962 . S
C493 H560 0.961 . S
C494 C461 1.587 . S
C494 C495 1.360 . S
C494 C507 1.412 1_556 S
C495 C494 1.360 . S
C495 C496 1.365 . S
C495 H561 0.929 . S
C496 C471 1.553 . S
C496 C495 1.365 . S
C496 C497 1.404 1_556 S
C497 C496 1.404 1_554 S
C497 C498 1.395 . S
C497 C508 1.451 . S
C498 C497 1.395 . S
C498 C499 1.322 . S
C498 H562 0.930 . S
C499 C498 1.322 . S
C499 C500 1.459 . S
C499 H563 0.929 . S
C500 C499 1.459 . S
C500 C501 1.445 . S
C500 C509 1.395 . S
C501 C479 1.432 . S
C501 C500 1.445 . S
C501 C502 1.370 . S
C502 C501 1.370 . S
C502 C503 1.438 . S
C502 H564 0.930 . S
C503 C489 1.497 . S
C503 C502 1.438 . S
C503 C504 1.360 . S
C504 C503 1.360 . S
C504 C505 1.401 . S
C504 C509 1.446 . S
C505 C504 1.401 . S
C505 C506 1.347 . S
C505 H565 0.929 . S
C506 C505 1.347 . S
C506 C507 1.455 . S
C506 H566 0.930 . S
C507 C494 1.412 1_554 S
C507 C506 1.455 . S
C507 C508 1.331 . S
C508 C497 1.451 . S
C508 C507 1.331 . S
C508 C509 1.497 . S
C509 C500 1.395 . S
C509 C504 1.446 . S
C509 C508 1.497 . S
C510 C511 1.582 . S
C510 H567 0.962 . S
C510 H568 0.959 . S
C510 H569 0.958 . S
C511 C510 1.582 . S
C511 O514 1.458 . S
C511 H540 0.980 . S
O512 C457 1.426 . S
O512 C458 1.334 . S
O513 C485 1.412 . S
O513 C486 1.393 . S
O514 C476 1.435 . S
O514 C511 1.458 . S
O515 C467 1.468 . S
O515 C468 1.408 . S
H516 C457 0.980 . S
H517 C456 0.959 . S
H518 C456 0.959 . S
H519 C456 0.960 . S
H520 C459 0.929 . S
H521 C463 0.929 . S
H522 C464 0.959 . S
H523 C464 0.961 . S
H524 C464 0.961 . S
H525 C465 0.960 . S
H526 C465 0.960 . S
H527 C465 0.961 1_554 S
H528 C467 0.980 . S
H529 C466 0.961 . S
H530 C466 0.960 . S
H531 C466 0.959 . S
H532 C469 0.930 . S
H533 C473 0.931 . S
H534 C474 0.959 . S
H535 C474 0.961 . S
H536 C474 0.959 . S
H537 C475 0.960 . S
H538 C475 0.960 . S
H539 C475 0.960 1_554 S
H540 C511 0.980 . S
H541 C477 0.930 . S
H542 C481 0.930 . S
H543 C482 0.961 . S
H544 C482 0.960 . S
H545 C482 0.958 . S
H546 C483 0.961 . S
H547 C483 0.960 . S
H548 C483 0.960 . S
H549 C485 0.980 . S
H550 C484 0.961 . S
H551 C484 0.961 . S
H552 C484 0.959 . S
H553 C487 0.932 . S
H554 C491 0.929 . S
H555 C492 0.961 . S
H556 C492 0.959 . S
H557 C492 0.959 . S
H558 C493 0.960 . S
H559 C493 0.962 . S
H560 C493 0.961 . S
H561 C495 0.929 . S
H562 C498 0.930 . S
H563 C499 0.929 . S
H564 C502 0.930 . S
H565 C505 0.929 . S
H566 C506 0.930 . S
H567 C510 0.962 . S
H568 C510 0.959 . S
H569 C510 0.958 . S
C570 C571 1.560 . S
C570 H631 0.959 . S
C570 H632 0.959 . S
C570 H633 0.960 . S
C571 C570 1.560 . S
C571 O626 1.426 . S
C571 H630 0.980 . S
C572 C573 1.407 . S
C572 C577 1.418 . S
C572 O626 1.334 . S
C573 C572 1.407 . S
C573 C574 1.360 . S
C573 H634 0.929 . S
C574 C573 1.360 . S
C574 C575 1.401 . S
C574 C578 1.527 . S
C575 C574 1.401 . S
C575 C576 1.405 . S
C575 C608 1.587 . S
C576 C575 1.405 . S
C576 C577 1.332 . S
C576 C579 1.496 . S
C577 C572 1.418 . S
C577 C576 1.332 . S
C577 H635 0.929 . S
C578 C574 1.527 . S
C578 H636 0.959 . S
C578 H637 0.961 . S
C578 H638 0.961 . S
C579 C576 1.496 . S
C579 H639 0.960 . S
C579 H640 0.960 . S
C579 H641 0.961 . S
C580 C581 1.517 . S
C580 H643 0.961 . S
C580 H644 0.960 . S
C580 H645 0.959 . S
C581 C580 1.517 . S
C581 O629 1.468 . S
C581 H642 0.980 . S
C582 C583 1.349 . S
C582 C587 1.367 . S
C582 O629 1.408 . S
C583 C582 1.349 . S
C583 C584 1.407 . S
C583 H646 0.930 . S
C584 C583 1.407 . S
C584 C585 1.449 . S
C584 C588 1.535 . S
C585 C584 1.449 . S
C585 C586 1.384 . S
C585 C610 1.553 . S
C586 C585 1.384 . S
C586 C587 1.364 . S
C586 C589 1.450 . S
C587 C582 1.367 . S
C587 C586 1.364 . S
C587 H647 0.931 . S
C588 C584 1.535 . S
C588 H648 0.959 . S
C588 H649 0.961 . S
C588 H650 0.959 . S
C589 C586 1.450 . S
C589 H651 0.960 . S
C589 H652 0.960 . S
C589 H653 0.960 . S
C590 C591 1.309 . S
C590 C595 1.304 . S
C590 O628 1.435 . S
C591 C590 1.309 . S
C591 C592 1.476 . S
C591 H655 0.930 . S
C592 C591 1.476 . S
C592 C593 1.400 . S
C592 C596 1.567 . S
C593 C592 1.400 . S
C593 C594 1.373 . S
C593 C615 1.432 . S
C594 C593 1.373 . S
C594 C595 1.339 . S
C594 C597 1.530 . S
C595 C590 1.304 . S
C595 C594 1.339 . S
C595 H656 0.930 . S
C596 C592 1.567 . S
C596 H657 0.961 . S
C596 H658 0.960 . S
C596 H659 0.958 . S
C597 C594 1.530 . S
C597 H660 0.961 . S
C597 H661 0.960 . S
C597 H662 0.960 . S
C598 C599 1.530 . S
C598 H664 0.961 . S
C598 H665 0.946 1_556 S
C598 H666 0.959 . S
C599 C598 1.530 . S
C599 O627 1.412 . S
C599 H663 0.980 1_556 S
C600 C601 1.288 . S
C600 C605 1.377 . S
C600 O627 1.393 1_554 S
C601 C600 1.288 . S
C601 C602 1.369 . S
C601 H667 0.932 . S
C602 C601 1.369 . S
C602 C603 1.398 . S
C602 C606 1.527 . S
C603 C602 1.398 . S
C603 C604 1.380 . S
C603 C617 1.497 . S
C604 C603 1.380 . S
C604 C605 1.383 . S
C604 C607 1.603 . S
C605 C600 1.377 . S
C605 C604 1.383 . S
C605 H668 0.929 . S
C606 C602 1.527 . S
C606 H669 0.961 . S
C606 H670 0.959 . S
C606 H671 0.959 . S
C607 C604 1.603 . S
C607 H672 0.960 . S
C607 H673 0.962 . S
C607 H674 0.961 . S
C608 C575 1.587 . S
C608 C609 1.360 . S
C608 C621 1.412 . S
C609 C608 1.360 . S
C609 C610 1.365 . S
C609 H675 0.929 . S
C610 C585 1.553 . S
C610 C609 1.365 . S
C610 C611 1.404 . S
C611 C610 1.404 . S
C611 C612 1.395 . S
C611 C622 1.451 . S
C612 C611 1.395 . S
C612 C613 1.322 . S
C612 H676 0.930 . S
C613 C612 1.322 . S
C613 C614 1.459 . S
C613 H677 0.929 . S
C614 C613 1.459 . S
C614 C615 1.445 . S
C614 C623 1.395 . S
C615 C593 1.432 . S
C615 C614 1.445 . S
C615 C616 1.370 . S
C616 C615 1.370 . S
C616 C617 1.438 . S
C616 H678 0.930 . S
C617 C603 1.497 . S
C617 C616 1.438 . S
C617 C618 1.360 . S
C618 C617 1.360 . S
C618 C619 1.401 . S
C618 C623 1.446 . S
C619 C618 1.401 . S
C619 C620 1.347 . S
C619 H679 0.929 . S
C620 C619 1.347 . S
C620 C621 1.455 . S
C620 H680 0.930 . S
C621 C608 1.412 . S
C621 C620 1.455 . S
C621 C622 1.331 . S
C622 C611 1.451 . S
C622 C621 1.331 . S
C622 C623 1.497 . S
C623 C614 1.395 . S
C623 C618 1.446 . S
C623 C622 1.497 . S
C624 C625 1.582 . S
C624 H681 0.962 . S
C624 H682 0.959 . S
C624 H683 0.958 . S
C625 C624 1.582 . S
C625 O628 1.458 1_556 S
C625 H654 0.980 1_556 S
O626 C571 1.426 . S
O626 C572 1.334 . S
O627 C599 1.412 . S
O627 C600 1.393 1_556 S
O628 C590 1.435 . S
O628 C625 1.458 1_554 S
O629 C581 1.468 . S
O629 C582 1.408 . S
H630 C571 0.980 . S
H631 C570 0.959 . S
H632 C570 0.959 . S
H633 C570 0.960 . S
H634 C573 0.929 . S
H635 C577 0.929 . S
H636 C578 0.959 . S
H637 C578 0.961 . S
H638 C578 0.961 . S
H639 C579 0.960 . S
H640 C579 0.960 . S
H641 C579 0.961 . S
H642 C581 0.980 . S
H643 C580 0.961 . S
H644 C580 0.960 . S
H645 C580 0.959 . S
H646 C583 0.930 . S
H647 C587 0.931 . S
H648 C588 0.959 . S
H649 C588 0.961 . S
H650 C588 0.959 . S
H651 C589 0.960 . S
H652 C589 0.960 . S
H653 C589 0.960 . S
H654 C625 0.980 1_554 S
H655 C591 0.930 . S
H656 C595 0.930 . S
H657 C596 0.961 . S
H658 C596 0.960 . S
H659 C596 0.958 . S
H660 C597 0.961 . S
H661 C597 0.960 . S
H662 C597 0.960 . S
H663 C599 0.980 1_554 S
H664 C598 0.961 . S
H665 C598 0.946 1_554 S
H666 C598 0.959 . S
H667 C601 0.932 . S
H668 C605 0.929 . S
H669 C606 0.961 . S
H670 C606 0.959 . S
H671 C606 0.959 . S
H672 C607 0.960 . S
H673 C607 0.962 . S
H674 C607 0.961 . S
H675 C609 0.929 . S
H676 C612 0.930 . S
H677 C613 0.929 . S
H678 C616 0.930 . S
H679 C619 0.929 . S
H680 C620 0.930 . S
H681 C624 0.962 . S
H682 C624 0.959 . S
H683 C624 0.958 . S
C684 O696 1.241 . S
C684 O697 1.280 . S
C685 O698 1.277 . S
C685 O699 1.245 . S
C686 O710 1.247 . S
C686 O712 1.289 . S
Mg687 O688 1.926 . S
Mg687 O697 1.984 1_455 S
Mg687 O699 1.988 . S
Mg687 O700 2.061 1_455 S
O688 Mg687 1.926 . S
O688 Mg689 1.986 . S
O688 Mg690 1.917 . S
Mg689 O688 1.986 . S
Mg689 O696 2.042 1_455 S
Mg689 O698 2.041 . S
Mg689 O704 2.038 1_455 S
Mg689 O712 2.238 . S
Mg690 O688 1.917 . S
Mg690 O691 1.917 . S
Mg690 O701 2.106 1_455 S
Mg690 O703 2.079 1_455 S
Mg690 O712 2.106 . S
Mg690 O713 2.079 . S
O691 Mg690 1.917 . S
O691 Mg692 1.926 . S
O691 Mg693 1.986 . S
Mg692 O691 1.926 . S
Mg692 O706 1.984 . S
Mg692 O709 1.988 1_455 S
Mg692 O710 2.061 . S
Mg693 O691 1.986 . S
Mg693 O701 2.238 1_455 S
Mg693 O705 2.042 . S
Mg693 O707 2.041 1_455 S
Mg693 O714 2.038 . S
C694 O700 1.247 . S
C694 O701 1.289 . S
C695 O713 1.245 . S
C695 O714 1.274 . S
O696 C684 1.241 . S
O696 Mg689 2.042 1_655 S
O697 C684 1.280 . S
O697 Mg687 1.984 1_655 S
O698 C685 1.277 . S
O698 Mg689 2.041 . S
O699 C685 1.245 . S
O699 Mg687 1.988 . S
O700 Mg687 2.061 1_655 S
O700 C694 1.247 . S
O701 Mg690 2.106 1_655 S
O701 Mg693 2.238 1_655 S
O701 C694 1.289 . S
C702 O703 1.245 . S
C702 O704 1.274 . S
O703 Mg690 2.079 1_655 S
O703 C702 1.245 . S
O704 Mg689 2.038 1_655 S
O704 C702 1.274 . S
O705 Mg693 2.042 . S
O705 C708 1.241 . S
O706 Mg692 1.984 . S
O706 C708 1.280 . S
O707 Mg693 2.041 1_655 S
O707 C711 1.277 . S
C708 O705 1.241 . S
C708 O706 1.280 . S
O709 Mg692 1.988 1_655 S
O709 C711 1.245 . S
O710 C686 1.247 . S
O710 Mg692 2.061 . S
C711 O707 1.277 . S
C711 O709 1.245 . S
O712 C686 1.289 . S
O712 Mg689 2.238 . S
O712 Mg690 2.106 . S
O713 Mg690 2.079 . S
O713 C695 1.245 . S
O714 Mg693 2.038 . S
O714 C695 1.274 . S
C715 O727 1.241 . S
C715 O728 1.280 . S
C716 O729 1.277 . S
C716 O730 1.245 . S
C717 O741 1.247 . S
C717 O743 1.289 . S
Mg718 O719 1.926 . S
Mg718 O728 1.984 . S
Mg718 O730 1.988 1_545 S
Mg718 O731 2.061 . S
O719 Mg718 1.926 . S
O719 Mg720 1.986 . S
O719 Mg721 1.917 . S
Mg720 O719 1.986 . S
Mg720 O727 2.042 . S
Mg720 O729 2.041 1_545 S
Mg720 O735 2.038 . S
Mg720 O743 2.238 1_545 S
Mg721 O719 1.917 . S
Mg721 O722 1.917 . S
Mg721 O732 2.106 . S
Mg721 O734 2.079 . S
Mg721 O743 2.106 1_545 S
Mg721 O744 2.079 1_545 S
O722 Mg721 1.917 . S
O722 Mg723 1.915 1_545 S
O722 Mg724 1.986 . S
Mg723 O722 1.915 1_565 S
Mg723 O737 1.994 . S
Mg723 O740 1.974 1_565 S
Mg723 O741 2.068 . S
Mg724 O722 1.986 . S
Mg724 O732 2.238 . S
Mg724 O736 2.042 1_545 S
Mg724 O738 2.041 . S
Mg724 O745 2.038 1_545 S
C725 O731 1.247 . S
C725 O732 1.289 . S
C726 O744 1.245 . S
C726 O745 1.274 . S
O727 C715 1.241 . S
O727 Mg720 2.042 . S
O728 C715 1.280 . S
O728 Mg718 1.984 . S
O729 C716 1.277 . S
O729 Mg720 2.041 1_565 S
O730 C716 1.245 . S
O730 Mg718 1.988 1_565 S
O731 Mg718 2.061 . S
O731 C725 1.247 . S
O732 Mg721 2.106 . S
O732 Mg724 2.238 . S
O732 C725 1.289 . S
C733 O734 1.245 . S
C733 O735 1.274 . S
O734 Mg721 2.079 . S
O734 C733 1.245 . S
O735 Mg720 2.038 . S
O735 C733 1.274 . S
O736 Mg724 2.042 1_565 S
O736 C739 1.241 . S
O737 Mg723 1.994 . S
O737 C739 1.280 . S
O738 Mg724 2.041 . S
O738 C742 1.277 . S
C739 O736 1.241 . S
C739 O737 1.280 . S
O740 Mg723 1.974 1_545 S
O740 C742 1.245 . S
O741 C717 1.247 . S
O741 Mg723 2.068 . S
C742 O738 1.277 . S
C742 O740 1.245 . S
O743 C717 1.289 . S
O743 Mg720 2.238 1_565 S
O743 Mg721 2.106 1_565 S
O744 Mg721 2.079 1_565 S
O744 C726 1.245 . S
O745 Mg724 2.038 1_565 S
O745 C726 1.274 . S
C746 O758 1.241 . S
C746 O759 1.280 . S
C747 O760 1.277 . S
C747 O761 1.245 . S
C748 O772 1.247 . S
C748 O774 1.289 . S
Mg749 O750 1.926 . S
Mg749 O759 1.984 . S
Mg749 O761 1.988 . S
Mg749 O762 2.061 . S
O750 Mg749 1.926 . S
O750 Mg751 1.986 . S
O750 Mg752 1.917 . S
Mg751 O750 1.986 . S
Mg751 O758 2.042 . S
Mg751 O760 2.041 . S
Mg751 O766 2.038 . S
Mg751 O774 2.238 . S
Mg752 O750 1.917 . S
Mg752 O753 1.917 . S
Mg752 O763 2.106 . S
Mg752 O765 2.079 . S
Mg752 O774 2.106 . S
Mg752 O775 2.079 . S
O753 Mg752 1.917 . S
O753 Mg754 1.926 . S
O753 Mg755 1.986 . S
Mg754 O753 1.926 . S
Mg754 O768 1.984 . S
Mg754 O771 1.988 . S
Mg754 O772 2.061 . S
Mg755 O753 1.986 . S
Mg755 O763 2.238 . S
Mg755 O767 2.042 . S
Mg755 O769 2.041 . S
Mg755 O776 2.038 . S
C756 O762 1.247 . S
C756 O763 1.289 . S
C757 O775 1.245 . S
C757 O776 1.274 . S
O758 C746 1.241 . S
O758 Mg751 2.042 . S
O759 C746 1.280 . S
O759 Mg749 1.984 . S
O760 C747 1.277 . S
O760 Mg751 2.041 . S
O761 C747 1.245 . S
O761 Mg749 1.988 . S
O762 Mg749 2.061 . S
O762 C756 1.247 . S
O763 Mg752 2.106 . S
O763 Mg755 2.238 . S
O763 C756 1.289 . S
C764 O765 1.245 . S
C764 O766 1.274 . S
O765 Mg752 2.079 . S
O765 C764 1.245 . S
O766 Mg751 2.038 . S
O766 C764 1.274 . S
O767 Mg755 2.042 . S
O767 C770 1.241 . S
O768 Mg754 1.984 . S
O768 C770 1.280 . S
O769 Mg755 2.041 . S
O769 C773 1.277 . S
C770 O767 1.241 . S
C770 O768 1.280 . S
O771 Mg754 1.988 . S
O771 C773 1.245 . S
O772 C748 1.247 . S
O772 Mg754 2.061 . S
C773 O769 1.277 . S
C773 O771 1.245 . S
O774 C748 1.289 . S
O774 Mg751 2.238 . S
O774 Mg752 2.106 . S
O775 Mg752 2.079 . S
O775 C757 1.245 . S
O776 Mg755 2.038 . S
O776 C757 1.274 . S
H777 C785 0.950 . S
H778 C790 0.950 . S
H779 C787 0.950 . S
H780 C789 0.950 . S
H781 C791 0.950 . S
H782 C793 0.950 . S
H783 C795 0.950 . S
H784 C796 0.950 . S
C785 H777 0.950 . S
C785 C786 1.386 . S
C785 C787 1.391 . S
C786 C785 1.386 . S
C786 C790 1.393 . S
C787 H779 0.950 . S
C787 C785 1.391 . S
C787 C788 1.400 . S
C788 C787 1.400 . S
C788 C789 1.398 . S
C788 C794 1.491 . S
C789 H780 0.950 . S
C789 C788 1.398 . S
C789 C790 1.391 . S
C790 H778 0.950 . S
C790 C786 1.393 . S
C790 C789 1.391 . S
C791 H781 0.950 . S
C791 C792 1.386 . S
C791 C793 1.391 . S
C792 C791 1.386 . S
C792 C796 1.393 . S
C793 H782 0.950 . S
C793 C791 1.391 . S
C793 C794 1.400 . S
C794 C788 1.491 . S
C794 C793 1.400 . S
C794 C795 1.398 . S
C795 H783 0.950 . S
C795 C794 1.398 . S
C795 C796 1.391 . S
C796 H784 0.950 . S
C796 C792 1.393 . S
C796 C795 1.391 . S
H797 C805 0.950 . S
H798 C810 0.950 . S
H799 C807 0.950 . S
H800 C809 0.950 . S
H801 C811 0.950 . S
H802 C813 0.950 . S
H803 C815 0.950 . S
H804 C816 0.950 . S
C805 H797 0.950 . S
C805 C806 1.386 . S
C805 C807 1.391 . S
C806 C805 1.386 . S
C806 C810 1.393 . S
C807 H799 0.950 . S
C807 C805 1.391 . S
C807 C808 1.400 . S
C808 C807 1.400 . S
C808 C809 1.398 . S
C808 C814 1.491 . S
C809 H800 0.950 . S
C809 C808 1.398 . S
C809 C810 1.391 . S
C810 H798 0.950 . S
C810 C806 1.393 . S
C810 C809 1.391 . S
C811 H801 0.950 . S
C811 C812 1.386 . S
C811 C813 1.391 . S
C812 C811 1.386 . S
C812 C816 1.393 . S
C813 H802 0.950 . S
C813 C811 1.391 . S
C813 C814 1.400 . S
C814 C808 1.491 . S
C814 C813 1.400 . S
C814 C815 1.398 . S
C815 H803 0.950 . S
C815 C814 1.398 . S
C815 C816 1.391 . S
C816 H804 0.950 . S
C816 C812 1.393 . S
C816 C815 1.391 . S
H817 C825 0.950 . S
H818 C830 0.950 . S
H819 C827 0.950 . S
H820 C829 0.950 . S
H821 C831 0.950 . S
H822 C833 0.950 . S
H823 C835 0.950 . S
H824 C836 0.950 . S
C825 H817 0.950 . S
C825 C826 1.386 . S
C825 C827 1.391 . S
C826 C825 1.386 . S
C826 C830 1.393 . S
C827 H819 0.950 . S
C827 C825 1.391 . S
C827 C828 1.400 . S
C828 C827 1.400 . S
C828 C829 1.398 . S
C828 C834 1.491 . S
C829 H820 0.950 . S
C829 C828 1.398 . S
C829 C830 1.391 . S
C830 H818 0.950 . S
C830 C826 1.393 . S
C830 C829 1.391 . S
C831 H821 0.950 . S
C831 C832 1.386 . S
C831 C833 1.391 . S
C832 C831 1.386 . S
C832 C836 1.393 . S
C833 H822 0.950 . S
C833 C831 1.391 . S
C833 C834 1.400 . S
C834 C828 1.491 . S
C834 C833 1.400 . S
C834 C835 1.398 . S
C835 H823 0.950 . S
C835 C834 1.398 . S
C835 C836 1.391 . S
C836 H824 0.950 . S
C836 C832 1.393 . S
C836 C835 1.391 . S
H837 C845 0.950 . S
H838 C850 0.950 . S
H839 C847 0.950 . S
H840 C849 0.950 . S
H841 C851 0.950 . S
H842 C853 0.950 . S
H843 C855 0.950 . S
H844 C856 0.950 . S
C845 H837 0.950 . S
C845 C846 1.386 . S
C845 C847 1.391 . S
C846 C845 1.386 . S
C846 C850 1.393 . S
C847 H839 0.950 . S
C847 C845 1.391 . S
C847 C848 1.400 . S
C848 C847 1.400 . S
C848 C849 1.398 . S
C848 C854 1.491 . S
C849 H840 0.950 . S
C849 C848 1.398 . S
C849 C850 1.391 . S
C850 H838 0.950 . S
C850 C846 1.393 . S
C850 C849 1.391 . S
C851 H841 0.950 . S
C851 C852 1.386 . S
C851 C853 1.391 . S
C852 C851 1.386 . S
C852 C856 1.393 . S
C853 H842 0.950 . S
C853 C851 1.391 . S
C853 C854 1.400 . S
C854 C848 1.491 . S
C854 C853 1.400 . S
C854 C855 1.398 . S
C855 H843 0.950 . S
C855 C854 1.398 . S
C855 C856 1.391 . S
C856 H844 0.950 . S
C856 C852 1.393 . S
C856 C855 1.391 . S
H857 C865 0.950 . S
H858 C870 0.950 . S
H859 C867 0.950 . S
H860 C869 0.950 . S
H861 C871 0.950 . S
H862 C873 0.950 . S
H863 C875 0.950 . S
H864 C876 0.950 . S
C865 H857 0.950 . S
C865 C866 1.386 . S
C865 C867 1.391 . S
C866 C865 1.386 . S
C866 C870 1.393 . S
C867 H859 0.950 . S
C867 C865 1.391 . S
C867 C868 1.400 . S
C868 C867 1.400 . S
C868 C869 1.398 . S
C868 C874 1.491 . S
C869 H860 0.950 . S
C869 C868 1.398 . S
C869 C870 1.391 . S
C870 H858 0.950 . S
C870 C866 1.393 . S
C870 C869 1.391 . S
C871 H861 0.950 . S
C871 C872 1.386 . S
C871 C873 1.391 . S
C872 C871 1.386 . S
C872 C876 1.393 . S
C873 H862 0.950 . S
C873 C871 1.391 . S
C873 C874 1.400 . S
C874 C868 1.491 . S
C874 C873 1.400 . S
C874 C875 1.398 . S
C875 H863 0.950 . S
C875 C874 1.398 . S
C875 C876 1.391 . S
C876 H864 0.950 . S
C876 C872 1.393 . S
C876 C875 1.391 . S
H877 C885 0.950 . S
H878 C890 0.950 . S
H879 C887 0.950 . S
H880 C889 0.950 . S
H881 C891 0.950 . S
H882 C893 0.950 . S
H883 C895 0.950 . S
H884 C896 0.950 . S
C885 H877 0.950 . S
C885 C886 1.386 . S
C885 C887 1.391 . S
C886 C885 1.386 . S
C886 C890 1.393 . S
C887 H879 0.950 . S
C887 C885 1.391 . S
C887 C888 1.400 . S
C888 C887 1.400 . S
C888 C889 1.398 . S
C888 C894 1.491 . S
C889 H880 0.950 . S
C889 C888 1.398 . S
C889 C890 1.391 . S
C890 H878 0.950 . S
C890 C886 1.393 . S
C890 C889 1.391 . S
C891 H881 0.950 . S
C891 C892 1.386 . S
C891 C893 1.391 . S
C892 C891 1.386 . S
C892 C896 1.393 . S
C893 H882 0.950 . S
C893 C891 1.391 . S
C893 C894 1.400 . S
C894 C888 1.491 . S
C894 C893 1.400 . S
C894 C895 1.398 . S
C895 H883 0.950 . S
C895 C894 1.398 . S
C895 C896 1.391 . S
C896 H884 0.950 . S
C896 C892 1.393 . S
C896 C895 1.391 . S
H897 C905 0.950 . S
H898 C910 0.950 . S
H899 C907 0.950 . S
H900 C909 0.950 . S
H901 C911 0.950 . S
H902 C913 0.950 . S
H903 C915 0.950 . S
H904 C916 0.950 . S
C905 H897 0.950 . S
C905 C906 1.386 . S
C905 C907 1.391 . S
C906 C905 1.386 . S
C906 C910 1.393 . S
C907 H899 0.950 . S
C907 C905 1.391 . S
C907 C908 1.400 . S
C908 C907 1.400 . S
C908 C909 1.398 . S
C908 C914 1.491 . S
C909 H900 0.950 . S
C909 C908 1.398 . S
C909 C910 1.391 . S
C910 H898 0.950 . S
C910 C906 1.393 . S
C910 C909 1.391 . S
C911 H901 0.950 . S
C911 C912 1.386 . S
C911 C913 1.391 . S
C912 C911 1.386 . S
C912 C916 1.393 . S
C913 H902 0.950 . S
C913 C911 1.391 . S
C913 C914 1.400 . S
C914 C908 1.491 . S
C914 C913 1.400 . S
C914 C915 1.398 . S
C915 H903 0.950 . S
C915 C914 1.398 . S
C915 C916 1.391 . S
C916 H904 0.950 . S
C916 C912 1.393 . S
C916 C915 1.391 . S
H917 C925 0.950 . S
H918 C930 0.950 . S
H919 C927 0.950 . S
H920 C929 0.950 . S
H921 C931 0.950 . S
H922 C933 0.950 . S
H923 C935 0.950 . S
H924 C936 0.950 . S
C925 H917 0.950 . S
C925 C926 1.386 . S
C925 C927 1.391 . S
C926 C925 1.386 . S
C926 C930 1.393 . S
C927 H919 0.950 . S
C927 C925 1.391 . S
C927 C928 1.400 . S
C928 C927 1.400 . S
C928 C929 1.398 . S
C928 C934 1.491 . S
C929 H920 0.950 . S
C929 C928 1.398 . S
C929 C930 1.391 . S
C930 H918 0.950 . S
C930 C926 1.393 . S
C930 C929 1.391 . S
C931 H921 0.950 . S
C931 C932 1.386 . S
C931 C933 1.391 . S
C932 C931 1.386 . S
C932 C936 1.393 . S
C933 H922 0.950 . S
C933 C931 1.391 . S
C933 C934 1.400 . S
C934 C928 1.491 . S
C934 C933 1.400 . S
C934 C935 1.398 . S
C935 H923 0.950 . S
C935 C934 1.398 . S
C935 C936 1.391 . S
C936 H924 0.950 . S
C936 C932 1.393 . S
C936 C935 1.391 . S
H937 C945 0.950 . S
H938 C950 0.950 . S
H939 C947 0.950 . S
H940 C949 0.950 . S
H941 C951 0.950 . S
H942 C953 0.950 . S
H943 C955 0.950 . S
H944 C956 0.950 . S
C945 H937 0.950 . S
C945 C946 1.386 . S
C945 C947 1.391 . S
C946 C945 1.386 . S
C946 C950 1.393 . S
C947 H939 0.950 . S
C947 C945 1.391 . S
C947 C948 1.400 . S
C948 C947 1.400 . S
C948 C949 1.398 . S
C948 C954 1.491 . S
C949 H940 0.950 . S
C949 C948 1.398 . S
C949 C950 1.391 . S
C950 H938 0.950 . S
C950 C946 1.393 . S
C950 C949 1.391 . S
C951 H941 0.950 . S
C951 C952 1.386 . S
C951 C953 1.391 . S
C952 C951 1.386 . S
C952 C956 1.393 . S
C953 H942 0.950 . S
C953 C951 1.391 . S
C953 C954 1.400 . S
C954 C948 1.491 . S
C954 C953 1.400 . S
C954 C955 1.398 . S
C955 H943 0.950 . S
C955 C954 1.398 . S
C955 C956 1.391 . S
C956 H944 0.950 . S
C956 C952 1.393 . S
C956 C955 1.391 . S
H957 C965 0.950 . S
H958 C970 0.950 . S
H959 C967 0.950 . S
H960 C969 0.950 . S
H961 C971 0.950 . S
H962 C973 0.950 . S
H963 C975 0.950 . S
H964 C976 0.950 . S
C965 H957 0.950 . S
C965 C966 1.386 . S
C965 C967 1.391 . S
C966 C965 1.386 . S
C966 C970 1.393 . S
C967 H959 0.950 . S
C967 C965 1.391 . S
C967 C968 1.400 . S
C968 C967 1.400 . S
C968 C969 1.398 . S
C968 C974 1.491 . S
C969 H960 0.950 . S
C969 C968 1.398 . S
C969 C970 1.391 . S
C970 H958 0.950 . S
C970 C966 1.393 . S
C970 C969 1.391 . S
C971 H961 0.950 . S
C971 C972 1.386 . S
C971 C973 1.391 . S
C972 C971 1.386 . S
C972 C976 1.393 . S
C973 H962 0.950 . S
C973 C971 1.391 . S
C973 C974 1.400 . S
C974 C968 1.491 . S
C974 C973 1.400 . S
C974 C975 1.398 . S
C975 H963 0.950 . S
C975 C974 1.398 . S
C975 C976 1.391 . S
C976 H964 0.950 . S
C976 C972 1.393 . S
C976 C975 1.391 . S
H977 C985 0.950 . S
H978 C990 0.950 . S
H979 C987 0.950 . S
H980 C989 0.950 . S
H981 C991 0.950 . S
H982 C993 0.950 . S
H983 C995 0.950 . S
H984 C996 0.950 . S
C985 H977 0.950 . S
C985 C986 1.386 . S
C985 C987 1.391 . S
C986 C985 1.386 . S
C986 C990 1.393 . S
C987 H979 0.950 . S
C987 C985 1.391 . S
C987 C988 1.400 . S
C988 C987 1.400 . S
C988 C989 1.398 . S
C988 C994 1.491 . S
C989 H980 0.950 . S
C989 C988 1.398 . S
C989 C990 1.391 . S
C990 H978 0.950 . S
C990 C986 1.393 . S
C990 C989 1.391 . S
C991 H981 0.950 . S
C991 C992 1.386 . S
C991 C993 1.391 . S
C992 C991 1.386 . S
C992 C996 1.393 . S
C993 H982 0.950 . S
C993 C991 1.391 . S
C993 C994 1.400 . S
C994 C988 1.491 . S
C994 C993 1.400 . S
C994 C995 1.398 . S
C995 H983 0.950 . S
C995 C994 1.398 . S
C995 C996 1.391 . S
C996 H984 0.950 . S
C996 C992 1.393 . S
C996 C995 1.391 . S
H997 C1005 0.950 . S
H998 C1010 0.950 . S
H999 C1007 0.950 . S
H1000 C1009 0.950 . S
H1001 C1011 0.950 . S
H1002 C1013 0.950 . S
H1003 C1015 0.950 . S
H1004 C1016 0.950 . S
C1005 H997 0.950 . S
C1005 C1006 1.386 . S
C1005 C1007 1.391 . S
C1006 C1005 1.386 . S
C1006 C1010 1.393 . S
C1007 H999 0.950 . S
C1007 C1005 1.391 . S
C1007 C1008 1.400 . S
C1008 C1007 1.400 . S
C1008 C1009 1.398 . S
C1008 C1014 1.491 . S
C1009 H1000 0.950 . S
C1009 C1008 1.398 . S
C1009 C1010 1.391 . S
C1010 H998 0.950 . S
C1010 C1006 1.393 . S
C1010 C1009 1.391 . S
C1011 H1001 0.950 . S
C1011 C1012 1.386 . S
C1011 C1013 1.391 . S
C1012 C1011 1.386 . S
C1012 C1016 1.393 . S
C1013 H1002 0.950 . S
C1013 C1011 1.391 . S
C1013 C1014 1.400 . S
C1014 C1008 1.491 . S
C1014 C1013 1.400 . S
C1014 C1015 1.398 . S
C1015 H1003 0.950 . S
C1015 C1014 1.398 . S
C1015 C1016 1.391 . S
C1016 H1004 0.950 . S
C1016 C1012 1.393 . S
C1016 C1015 1.391 . S
H1017 C1025 0.950 . S
H1018 C1030 0.950 . S
H1019 C1027 0.950 . S
H1020 C1029 0.950 . S
H1021 C1031 0.950 . S
H1022 C1033 0.950 . S
H1023 C1035 0.950 . S
H1024 C1036 0.950 . S
C1025 H1017 0.950 . S
C1025 C1026 1.386 . S
C1025 C1027 1.391 . S
C1026 C1025 1.386 . S
C1026 C1030 1.393 . S
C1027 H1019 0.950 . S
C1027 C1025 1.391 . S
C1027 C1028 1.400 . S
C1028 C1027 1.400 . S
C1028 C1029 1.398 . S
C1028 C1034 1.491 . S
C1029 H1020 0.950 . S
C1029 C1028 1.398 . S
C1029 C1030 1.391 . S
C1030 H1018 0.950 . S
C1030 C1026 1.393 . S
C1030 C1029 1.391 . S
C1031 H1021 0.950 . S
C1031 C1032 1.386 . S
C1031 C1033 1.391 . S
C1032 C1031 1.386 . S
C1032 C1036 1.393 . S
C1033 H1022 0.950 . S
C1033 C1031 1.391 . S
C1033 C1034 1.400 . S
C1034 C1028 1.491 . S
C1034 C1033 1.400 . S
C1034 C1035 1.398 . S
C1035 H1023 0.950 . S
C1035 C1034 1.398 . S
C1035 C1036 1.391 . S
C1036 H1024 0.950 . S
C1036 C1032 1.393 . S
C1036 C1035 1.391 . S
H1037 C1045 0.950 . S
H1038 C1050 0.950 . S
H1039 C1047 0.950 . S
H1040 C1049 0.950 . S
H1041 C1051 0.950 . S
H1042 C1053 0.950 . S
H1043 C1055 0.950 . S
H1044 C1056 0.950 . S
C1045 H1037 0.950 . S
C1045 C1046 1.386 . S
C1045 C1047 1.391 . S
C1046 C1045 1.386 . S
C1046 C1050 1.393 . S
C1047 H1039 0.950 . S
C1047 C1045 1.391 . S
C1047 C1048 1.400 . S
C1048 C1047 1.400 . S
C1048 C1049 1.398 . S
C1048 C1054 1.491 . S
C1049 H1040 0.950 . S
C1049 C1048 1.398 . S
C1049 C1050 1.391 . S
C1050 H1038 0.950 . S
C1050 C1046 1.393 . S
C1050 C1049 1.391 . S
C1051 H1041 0.950 . S
C1051 C1052 1.386 . S
C1051 C1053 1.391 . S
C1052 C1051 1.386 . S
C1052 C1056 1.393 . S
C1053 H1042 0.950 . S
C1053 C1051 1.391 . S
C1053 C1054 1.400 . S
C1054 C1048 1.491 . S
C1054 C1053 1.400 . S
C1054 C1055 1.398 . S
C1055 H1043 0.950 . S
C1055 C1054 1.398 . S
C1055 C1056 1.391 . S
C1056 H1044 0.950 . S
C1056 C1052 1.393 . S
C1056 C1055 1.391 . S
H1057 C1065 0.950 . S
H1058 C1070 0.950 . S
H1059 C1067 0.950 . S
H1060 C1069 0.950 . S
H1061 C1071 0.950 . S
H1062 C1073 0.950 . S
H1063 C1075 0.950 . S
H1064 C1076 0.950 . S
C1065 H1057 0.950 . S
C1065 C1066 1.386 . S
C1065 C1067 1.391 . S
C1066 C1065 1.386 . S
C1066 C1070 1.393 . S
C1067 H1059 0.950 . S
C1067 C1065 1.391 . S
C1067 C1068 1.400 . S
C1068 C1067 1.400 . S
C1068 C1069 1.398 . S
C1068 C1074 1.491 . S
C1069 H1060 0.950 . S
C1069 C1068 1.398 . S
C1069 C1070 1.391 . S
C1070 H1058 0.950 . S
C1070 C1066 1.393 . S
C1070 C1069 1.391 . S
C1071 H1061 0.950 . S
C1071 C1072 1.386 . S
C1071 C1073 1.391 . S
C1072 C1071 1.386 . S
C1072 C1076 1.393 . S
C1073 H1062 0.950 . S
C1073 C1071 1.391 . S
C1073 C1074 1.400 . S
C1074 C1068 1.491 . S
C1074 C1073 1.400 . S
C1074 C1075 1.398 . S
C1075 H1063 0.950 . S
C1075 C1074 1.398 . S
C1075 C1076 1.391 . S
C1076 H1064 0.950 . S
C1076 C1072 1.393 . S
C1076 C1075 1.391 . S
H1077 C1085 0.950 . S
H1078 C1090 0.950 . S
H1079 C1087 0.950 . S
H1080 C1089 0.950 . S
H1081 C1091 0.950 . S
H1082 C1093 0.950 . S
H1083 C1095 0.950 . S
H1084 C1096 0.950 . S
C1085 H1077 0.950 . S
C1085 C1086 1.386 . S
C1085 C1087 1.391 . S
C1086 C1085 1.386 . S
C1086 C1090 1.393 . S
C1087 H1079 0.950 . S
C1087 C1085 1.391 . S
C1087 C1088 1.400 . S
C1088 C1087 1.400 . S
C1088 C1089 1.398 . S
C1088 C1094 1.491 . S
C1089 H1080 0.950 . S
C1089 C1088 1.398 . S
C1089 C1090 1.391 . S
C1090 H1078 0.950 . S
C1090 C1086 1.393 . S
C1090 C1089 1.391 . S
C1091 H1081 0.950 . S
C1091 C1092 1.386 . S
C1091 C1093 1.391 . S
C1092 C1091 1.386 . S
C1092 C1096 1.393 . S
C1093 H1082 0.950 . S
C1093 C1091 1.391 . S
C1093 C1094 1.400 . S
C1094 C1088 1.491 . S
C1094 C1093 1.400 . S
C1094 C1095 1.398 . S
C1095 H1083 0.950 . S
C1095 C1094 1.398 . S
C1095 C1096 1.391 . S
C1096 H1084 0.950 . S
C1096 C1092 1.393 . S
C1096 C1095 1.391 . S
H1097 C1105 0.950 . S
H1098 C1110 0.950 . S
H1099 C1107 0.950 . S
H1100 C1109 0.950 . S
H1101 C1111 0.950 . S
H1102 C1113 0.950 . S
H1103 C1115 0.950 . S
H1104 C1116 0.950 . S
C1105 H1097 0.950 . S
C1105 C1106 1.386 . S
C1105 C1107 1.391 . S
C1106 C1105 1.386 . S
C1106 C1110 1.393 . S
C1107 H1099 0.950 . S
C1107 C1105 1.391 . S
C1107 C1108 1.400 . S
C1108 C1107 1.400 . S
C1108 C1109 1.398 . S
C1108 C1114 1.491 . S
C1109 H1100 0.950 . S
C1109 C1108 1.398 . S
C1109 C1110 1.391 . S
C1110 H1098 0.950 . S
C1110 C1106 1.393 . S
C1110 C1109 1.391 . S
C1111 H1101 0.950 . S
C1111 C1112 1.386 . S
C1111 C1113 1.391 . S
C1112 C1111 1.386 . S
C1112 C1116 1.393 . S
C1113 H1102 0.950 . S
C1113 C1111 1.391 . S
C1113 C1114 1.400 . S
C1114 C1108 1.491 . S
C1114 C1113 1.400 . S
C1114 C1115 1.398 . S
C1115 H1103 0.950 . S
C1115 C1114 1.398 . S
C1115 C1116 1.391 . S
C1116 H1104 0.950 . S
C1116 C1112 1.393 . S
C1116 C1115 1.391 . S
H1117 C1125 0.950 . S
H1118 C1130 0.950 . S
H1119 C1127 0.950 . S
H1120 C1129 0.950 . S
H1121 C1131 0.950 . S
H1122 C1133 0.950 . S
H1123 C1135 0.950 . S
H1124 C1136 0.950 . S
C1125 H1117 0.950 . S
C1125 C1126 1.386 . S
C1125 C1127 1.391 . S
C1126 C1125 1.386 . S
C1126 C1130 1.393 . S
C1127 H1119 0.950 . S
C1127 C1125 1.391 . S
C1127 C1128 1.400 . S
C1128 C1127 1.400 . S
C1128 C1129 1.398 . S
C1128 C1134 1.491 . S
C1129 H1120 0.950 . S
C1129 C1128 1.398 . S
C1129 C1130 1.391 . S
C1130 H1118 0.950 . S
C1130 C1126 1.393 . S
C1130 C1129 1.391 . S
C1131 H1121 0.950 . S
C1131 C1132 1.386 . S
C1131 C1133 1.391 . S
C1132 C1131 1.386 . S
C1132 C1136 1.393 . S
C1133 H1122 0.950 . S
C1133 C1131 1.391 . S
C1133 C1134 1.400 . S
C1134 C1128 1.491 . S
C1134 C1133 1.400 . S
C1134 C1135 1.398 . S
C1135 H1123 0.950 . S
C1135 C1134 1.398 . S
C1135 C1136 1.391 . S
C1136 H1124 0.950 . S
C1136 C1132 1.393 . S
C1136 C1135 1.391 . S
H1137 C1145 0.950 . S
H1138 C1150 0.950 . S
H1139 C1147 0.950 . S
H1140 C1149 0.950 . S
H1141 C1151 0.950 . S
H1142 C1153 0.950 . S
H1143 C1155 0.950 . S
H1144 C1156 0.950 . S
C1145 H1137 0.950 . S
C1145 C1146 1.386 . S
C1145 C1147 1.391 . S
C1146 C1145 1.386 . S
C1146 C1150 1.393 . S
C1147 H1139 0.950 . S
C1147 C1145 1.391 . S
C1147 C1148 1.400 . S
C1148 C1147 1.400 . S
C1148 C1149 1.398 . S
C1148 C1154 1.491 . S
C1149 H1140 0.950 . S
C1149 C1148 1.398 . S
C1149 C1150 1.391 . S
C1150 H1138 0.950 . S
C1150 C1146 1.393 . S
C1150 C1149 1.391 . S
C1151 H1141 0.950 . S
C1151 C1152 1.386 . S
C1151 C1153 1.391 . S
C1152 C1151 1.386 . S
C1152 C1156 1.393 . S
C1153 H1142 0.950 . S
C1153 C1151 1.391 . S
C1153 C1154 1.400 . S
C1154 C1148 1.491 . S
C1154 C1153 1.400 . S
C1154 C1155 1.398 . S
C1155 H1143 0.950 . S
C1155 C1154 1.398 . S
C1155 C1156 1.391 . S
C1156 H1144 0.950 . S
C1156 C1152 1.393 . S
C1156 C1155 1.391 . S
H1157 C1165 0.950 . S
H1158 C1170 0.950 . S
H1159 C1167 0.950 . S
H1160 C1169 0.950 . S
H1161 C1171 0.950 . S
H1162 C1173 0.950 . S
H1163 C1175 0.950 . S
H1164 C1176 0.950 . S
C1165 H1157 0.950 . S
C1165 C1166 1.386 . S
C1165 C1167 1.391 . S
C1166 C1165 1.386 . S
C1166 C1170 1.393 . S
C1167 H1159 0.950 . S
C1167 C1165 1.391 . S
C1167 C1168 1.400 . S
C1168 C1167 1.400 . S
C1168 C1169 1.398 . S
C1168 C1174 1.491 . S
C1169 H1160 0.950 . S
C1169 C1168 1.398 . S
C1169 C1170 1.391 . S
C1170 H1158 0.950 . S
C1170 C1166 1.393 . S
C1170 C1169 1.391 . S
C1171 H1161 0.950 . S
C1171 C1172 1.386 . S
C1171 C1173 1.391 . S
C1172 C1171 1.386 . S
C1172 C1176 1.393 . S
C1173 H1162 0.950 . S
C1173 C1171 1.391 . S
C1173 C1174 1.400 . S
C1174 C1168 1.491 . S
C1174 C1173 1.400 . S
C1174 C1175 1.398 . S
C1175 H1163 0.950 . S
C1175 C1174 1.398 . S
C1175 C1176 1.391 . S
C1176 H1164 0.950 . S
C1176 C1172 1.393 . S
C1176 C1175 1.391 . S
H1177 C1185 0.950 . S
H1178 C1190 0.950 . S
H1179 C1187 0.950 . S
H1180 C1189 0.950 . S
H1181 C1191 0.950 . S
H1182 C1193 0.950 . S
H1183 C1195 0.950 . S
H1184 C1196 0.950 . S
C1185 H1177 0.950 . S
C1185 C1186 1.386 . S
C1185 C1187 1.391 . S
C1186 C1185 1.386 . S
C1186 C1190 1.393 . S
C1187 H1179 0.950 . S
C1187 C1185 1.391 . S
C1187 C1188 1.400 . S
C1188 C1187 1.400 . S
C1188 C1189 1.398 . S
C1188 C1194 1.491 . S
C1189 H1180 0.950 . S
C1189 C1188 1.398 . S
C1189 C1190 1.391 . S
C1190 H1178 0.950 . S
C1190 C1186 1.393 . S
C1190 C1189 1.391 . S
C1191 H1181 0.950 . S
C1191 C1192 1.386 . S
C1191 C1193 1.391 . S
C1192 C1191 1.386 . S
C1192 C1196 1.393 . S
C1193 H1182 0.950 . S
C1193 C1191 1.391 . S
C1193 C1194 1.400 . S
C1194 C1188 1.491 . S
C1194 C1193 1.400 . S
C1194 C1195 1.398 . S
C1195 H1183 0.950 . S
C1195 C1194 1.398 . S
C1195 C1196 1.391 . S
C1196 H1184 0.950 . S
C1196 C1192 1.393 . S
C1196 C1195 1.391 . S
H1197 C1205 0.950 . S
H1198 C1210 0.950 . S
H1199 C1207 0.950 . S
H1200 C1209 0.950 . S
H1201 C1211 0.950 . S
H1202 C1213 0.950 . S
H1203 C1215 0.950 . S
H1204 C1216 0.950 . S
C1205 H1197 0.950 . S
C1205 C1206 1.386 . S
C1205 C1207 1.391 . S
C1206 C1205 1.386 . S
C1206 C1210 1.393 . S
C1207 H1199 0.950 . S
C1207 C1205 1.391 . S
C1207 C1208 1.400 . S
C1208 C1207 1.400 . S
C1208 C1209 1.398 . S
C1208 C1214 1.491 . S
C1209 H1200 0.950 . S
C1209 C1208 1.398 . S
C1209 C1210 1.391 . S
C1210 H1198 0.950 . S
C1210 C1206 1.393 . S
C1210 C1209 1.391 . S
C1211 H1201 0.950 . S
C1211 C1212 1.386 . S
C1211 C1213 1.391 . S
C1212 C1211 1.386 . S
C1212 C1216 1.393 . S
C1213 H1202 0.950 . S
C1213 C1211 1.391 . S
C1213 C1214 1.400 . S
C1214 C1208 1.491 . S
C1214 C1213 1.400 . S
C1214 C1215 1.398 . S
C1215 H1203 0.950 . S
C1215 C1214 1.398 . S
C1215 C1216 1.391 . S
C1216 H1204 0.950 . S
C1216 C1212 1.393 . S
C1216 C1215 1.391 . S
H1217 C1225 0.950 . S
H1218 C1230 0.950 . S
H1219 C1227 0.950 . S
H1220 C1229 0.950 . S
H1221 C1231 0.950 . S
H1222 C1233 0.950 . S
H1223 C1235 0.950 . S
H1224 C1236 0.950 . S
C1225 H1217 0.950 . S
C1225 C1226 1.386 . S
C1225 C1227 1.391 . S
C1226 C1225 1.386 . S
C1226 C1230 1.393 . S
C1227 H1219 0.950 . S
C1227 C1225 1.391 . S
C1227 C1228 1.400 . S
C1228 C1227 1.400 . S
C1228 C1229 1.398 . S
C1228 C1234 1.491 . S
C1229 H1220 0.950 . S
C1229 C1228 1.398 . S
C1229 C1230 1.391 . S
C1230 H1218 0.950 . S
C1230 C1226 1.393 . S
C1230 C1229 1.391 . S
C1231 H1221 0.950 . S
C1231 C1232 1.386 . S
C1231 C1233 1.391 . S
C1232 C1231 1.386 . S
C1232 C1236 1.393 . S
C1233 H1222 0.950 . S
C1233 C1231 1.391 . S
C1233 C1234 1.400 . S
C1234 C1228 1.491 . S
C1234 C1233 1.400 . S
C1234 C1235 1.398 . S
C1235 H1223 0.950 . S
C1235 C1234 1.398 . S
C1235 C1236 1.391 . S
C1236 H1224 0.950 . S
C1236 C1232 1.393 . S
C1236 C1235 1.391 . S
H1237 C1245 0.950 . S
H1238 C1250 0.950 . S
H1239 C1247 0.950 . S
H1240 C1249 0.950 . S
H1241 C1251 0.950 . S
H1242 C1253 0.950 . S
H1243 C1255 0.950 . S
H1244 C1256 0.950 . S
C1245 H1237 0.950 . S
C1245 C1246 1.386 . S
C1245 C1247 1.391 . S
C1246 C1245 1.386 . S
C1246 C1250 1.393 . S
C1247 H1239 0.950 . S
C1247 C1245 1.391 . S
C1247 C1248 1.400 . S
C1248 C1247 1.400 . S
C1248 C1249 1.398 . S
C1248 C1254 1.491 . S
C1249 H1240 0.950 . S
C1249 C1248 1.398 . S
C1249 C1250 1.391 . S
C1250 H1238 0.950 . S
C1250 C1246 1.393 . S
C1250 C1249 1.391 . S
C1251 H1241 0.950 . S
C1251 C1252 1.386 . S
C1251 C1253 1.391 . S
C1252 C1251 1.386 . S
C1252 C1256 1.393 . S
C1253 H1242 0.950 . S
C1253 C1251 1.391 . S
C1253 C1254 1.400 . S
C1254 C1248 1.491 . S
C1254 C1253 1.400 . S
C1254 C1255 1.398 . S
C1255 H1243 0.950 . S
C1255 C1254 1.398 . S
C1255 C1256 1.391 . S
C1256 H1244 0.950 . S
C1256 C1252 1.393 . S
C1256 C1255 1.391 . S
C786 C11 1.549 . S
C792 C695 1.920 . S
C806 C125 1.229 . S
C812 C742 1.661 . S
C832 C746 1.941 . S
C826 C239 1.414 . S
C852 C711 1.435 . S
C846 C343 1.203 . S
C866 C485 1.426 . S
C872 C726 1.831 . S
C892 C748 0.823 . S
C886 C571 0.870 . S
C912 C717 1.425 . S
C906 C257 0.989 . S
C926 C397 0.903 . S
C932 C757 1.492 . S
C952 C686 1.391 . S
C946 C467 1.094 . S
C966 C625 1.073 . S
C972 C715 1.539 . S
C986 C29 1.600 . S
C992 C773 2.000 . S
C1012 C684 1.547 . S
C1006 C143 1.147 . S
C1032 C702 1.836 . S
C1026 C371 1.622 . S
C1052 C716 1.447 . S
C1046 C457 1.164 . S
C1072 C770 1.811 . S
C1066 C599 1.600 . S
C1092 C685 1.558 . S
C1086 C55 1.324 . S
C1112 C733 1.789 . S
C1106 C169 1.607 . S
C1126 C283 0.789 . S
C1132 C756 0.908 . S
C1152 C725 1.351 . S
C1146 C581 0.892 . S
C1172 C764 1.224 . S
C1166 C1 1.003 . S
C1192 C694 1.117 . S
C1186 C115 0.887 . S
C1212 C739 1.235 . S
C1206 C229 0.931 . S
C1226 C353 1.246 . S
C1232 C747 1.997 . S
C1246 C511 1.274 . S
C1252 C708 1.517 . S
