# Generated by pormake.
# Topology apo, (3,6)-cn, num edge types: 1
# Building blocks:
#     Node 0, Type 0, BuildingBlock: KAKCAD_clean_linker_0, # of connection points: 3
#     Node 1, Type 0, BuildingBlock: KAKCAD_clean_linker_0, # of connection points: 3
#     Node 2, Type 0, BuildingBlock: KAKCAD_clean_linker_0, # of connection points: 3
#     Node 3, Type 0, BuildingBlock: KAKCAD_clean_linker_0, # of connection points: 3
#     Node 4, Type 0, BuildingBlock: KAKCAD_clean_linker_0, # of connection points: 3
#     Node 5, Type 0, BuildingBlock: KAKCAD_clean_linker_0, # of connection points: 3
#     Node 6, Type 0, BuildingBlock: KAKCAD_clean_linker_0, # of connection points: 3
#     Node 7, Type 0, BuildingBlock: KAKCAD_clean_linker_0, # of connection points: 3
#     Node 8, Type 1, BuildingBlock: KUMBOL_clean_sbu_1, # of connection points: 6
#     Node 9, Type 1, BuildingBlock: KUMBOL_clean_sbu_1, # of connection points: 6
#     Node 10, Type 1, BuildingBlock: KUMBOL_clean_sbu_1, # of connection points: 6
#     Node 11, Type 1, BuildingBlock: KUMBOL_clean_sbu_1, # of connection points: 6
#     Edge 12, Type (0, 1), BuildingBlock: MIFKUJ_clean_linker_0, # of connection points: 2
#     Edge 13, Type (0, 1), BuildingBlock: MIFKUJ_clean_linker_0, # of connection points: 2
#     Edge 14, Type (0, 1), BuildingBlock: MIFKUJ_clean_linker_0, # of connection points: 2
#     Edge 15, Type (0, 1), BuildingBlock: MIFKUJ_clean_linker_0, # of connection points: 2
#     Edge 16, Type (0, 1), BuildingBlock: MIFKUJ_clean_linker_0, # of connection points: 2
#     Edge 17, Type (0, 1), BuildingBlock: MIFKUJ_clean_linker_0, # of connection points: 2
#     Edge 18, Type (0, 1), BuildingBlock: MIFKUJ_clean_linker_0, # of connection points: 2
#     Edge 19, Type (0, 1), BuildingBlock: MIFKUJ_clean_linker_0, # of connection points: 2
#     Edge 20, Type (0, 1), BuildingBlock: MIFKUJ_clean_linker_0, # of connection points: 2
#     Edge 21, Type (0, 1), BuildingBlock: MIFKUJ_clean_linker_0, # of connection points: 2
#     Edge 22, Type (0, 1), BuildingBlock: MIFKUJ_clean_linker_0, # of connection points: 2
#     Edge 23, Type (0, 1), BuildingBlock: MIFKUJ_clean_linker_0, # of connection points: 2
#     Edge 24, Type (0, 1), BuildingBlock: MIFKUJ_clean_linker_0, # of connection points: 2
#     Edge 25, Type (0, 1), BuildingBlock: MIFKUJ_clean_linker_0, # of connection points: 2
#     Edge 26, Type (0, 1), BuildingBlock: MIFKUJ_clean_linker_0, # of connection points: 2
#     Edge 27, Type (0, 1), BuildingBlock: MIFKUJ_clean_linker_0, # of connection points: 2
#     Edge 28, Type (0, 1), BuildingBlock: MIFKUJ_clean_linker_0, # of connection points: 2
#     Edge 29, Type (0, 1), BuildingBlock: MIFKUJ_clean_linker_0, # of connection points: 2
#     Edge 30, Type (0, 1), BuildingBlock: MIFKUJ_clean_linker_0, # of connection points: 2
#     Edge 31, Type (0, 1), BuildingBlock: MIFKUJ_clean_linker_0, # of connection points: 2
#     Edge 32, Type (0, 1), BuildingBlock: MIFKUJ_clean_linker_0, # of connection points: 2
#     Edge 33, Type (0, 1), BuildingBlock: MIFKUJ_clean_linker_0, # of connection points: 2
#     Edge 34, Type (0, 1), BuildingBlock: MIFKUJ_clean_linker_0, # of connection points: 2
#     Edge 35, Type (0, 1), BuildingBlock: MIFKUJ_clean_linker_0, # of connection points: 2
# Relax obj value: 0.010
# Max RMSD: 0.088
# Mean RMSD: 0.069
data_MOF--net-apo--node1-KUMBOL_clean_sbu_1--node2-KAKCAD_clean_linker_0--edge1-MIFKUJ_clean_linker_0
_symmetry_space_group_name_H-M    P1
_symmetry_Int_Tables_number       1
_symmetry_cell_setting            triclinic
loop_
_symmetry_equiv_pos_as_xyz
'x, y, z'
_cell_length_a     36.442904
_cell_length_b     65.380302
_cell_length_c     77.940165
_cell_angle_alpha  89.975204
_cell_angle_beta   89.990978
_cell_angle_gamma 90.316502
loop_
_atom_site_label
_atom_site_type_symbol
_atom_site_fract_x
_atom_site_fract_y
_atom_site_fract_z
_atom_type_partial_charge
C0 C 0.30166 0.44035 0.37286 0.0
C1 C 0.33688 0.4486 0.37573 0.0
C2 C 0.28856 0.42404 0.3828 0.0
C3 C 0.31039 0.41552 0.39583 0.0
C4 C 0.3456 0.42378 0.39868 0.0
C5 C 0.35861 0.44013 0.38881 0.0
C6 C 0.29676 0.39801 0.40636 0.0
C7 C 0.27647 0.38203 0.39882 0.0
C8 C 0.26454 0.36516 0.4086 0.0
C9 C 0.27365 0.36427 0.42614 0.0
C10 C 0.29397 0.3801 0.43395 0.0
C11 C 0.30481 0.39701 0.42396 0.0
C12 C 0.30461 0.37894 0.45241 0.0
C13 C 0.28048 0.37083 0.46479 0.0
C14 C 0.33918 0.38614 0.4578 0.0
C15 C 0.34912 0.38558 0.47509 0.0
C16 C 0.32504 0.37753 0.48751 0.0
C17 C 0.24333 0.34829 0.40032 0.0
C18 C 0.21585 0.35265 0.38822 0.0
C19 C 0.2509 0.32771 0.40414 0.0
C20 C 0.23196 0.31191 0.3958 0.0
C21 C 0.20498 0.31628 0.38345 0.0
C22 C 0.19694 0.33687 0.37988 0.0
C23 C 0.29062 0.37007 0.48211 0.0
H24 H 0.28431 0.4463 0.36277 0.0
H25 H 0.26119 0.41821 0.38035 0.0
H26 H 0.36341 0.41745 0.40843 0.0
H27 H 0.38567 0.44623 0.39154 0.0
H28 H 0.27094 0.38238 0.38517 0.0
H29 H 0.31927 0.40963 0.42998 0.0
H30 H 0.26509 0.35118 0.43368 0.0
H31 H 0.25351 0.36531 0.46117 0.0
H32 H 0.35879 0.39217 0.44864 0.0
H33 H 0.37562 0.39178 0.47871 0.0
H34 H 0.20901 0.36833 0.38512 0.0
H35 H 0.27208 0.32377 0.41329 0.0
H36 H 0.27149 0.36352 0.49124 0.0
H37 H 0.17664 0.34083 0.37031 0.0
H38 H 0.2386 0.29623 0.399 0.0
C39 C 0.20814 0.06173 0.87316 0.0
C40 C 0.17404 0.05254 0.87689 0.0
C41 C 0.22101 0.0783 0.8828 0.0
C42 C 0.19997 0.08632 0.89633 0.0
C43 C 0.1659 0.07711 0.90007 0.0
C44 C 0.15323 0.06039 0.89056 0.0
C45 C 0.21316 0.10436 0.90634 0.0
C46 C 0.23221 0.12041 0.89821 0.0
C47 C 0.24402 0.13769 0.90747 0.0
C48 C 0.23585 0.13903 0.92506 0.0
C49 C 0.21671 0.12319 0.93347 0.0
C50 C 0.20609 0.10581 0.92403 0.0
C51 C 0.20719 0.1248 0.95203 0.0
C52 C 0.23182 0.13354 0.96388 0.0
C53 C 0.17316 0.11751 0.95804 0.0
C54 C 0.16417 0.11866 0.97542 0.0
C55 C 0.18873 0.12738 0.9873 0.0
C56 C 0.26446 0.15438 0.8986 0.0
C57 C 0.29212 0.14973 0.88667 0.0
C58 C 0.25609 0.17502 0.90172 0.0
C59 C 0.27454 0.19062 0.89288 0.0
C60 C 0.30187 0.18594 0.88077 0.0
C61 C 0.31061 0.16531 0.87788 0.0
C62 C 0.22266 0.13486 0.98129 0.0
H63 H 0.22478 0.05633 0.86259 0.0
H64 H 0.24759 0.08478 0.87966 0.0
H65 H 0.14862 0.08299 0.91022 0.0
H66 H 0.12711 0.05357 0.89402 0.0
H67 H 0.237 0.11978 0.8845 0.0
H68 H 0.19264 0.09319 0.93054 0.0
H69 H 0.24428 0.15248 0.93218 0.0
H70 H 0.25842 0.13914 0.95976 0.0
H71 H 0.15322 0.11098 0.94929 0.0
H72 H 0.13803 0.11243 0.97956 0.0
H73 H 0.2995 0.134 0.88411 0.0
H74 H 0.23473 0.17912 0.91073 0.0
H75 H 0.24213 0.14189 0.99 0.0
H76 H 0.33122 0.16114 0.86851 0.0
H77 H 0.26737 0.20636 0.89552 0.0
C78 C 0.8155 0.06663 0.63449 0.0
C79 C 0.85094 0.05856 0.6327 0.0
C80 C 0.8043 0.0832 0.62451 0.0
C81 C 0.82833 0.09223 0.61254 0.0
C82 C 0.86355 0.08388 0.61047 0.0
C83 C 0.8747 0.0672 0.62042 0.0
C84 C 0.81697 0.11073 0.60276 0.0
C85 C 0.79701 0.12617 0.61101 0.0
C86 C 0.78547 0.14369 0.60212 0.0
C87 C 0.79493 0.14588 0.58472 0.0
C88 C 0.81538 0.13072 0.5762 0.0
C89 C 0.8261 0.11315 0.58535 0.0
C90 C 0.82568 0.13326 0.55779 0.0
C91 C 0.80073 0.14149 0.54591 0.0
C92 C 0.8607 0.12755 0.55197 0.0
C93 C 0.87055 0.13006 0.53475 0.0
C94 C 0.84569 0.13839 0.52288 0.0
C95 C 0.76392 0.15963 0.61127 0.0
C96 C 0.73709 0.1539 0.62337 0.0
C97 C 0.77076 0.18059 0.60854 0.0
C98 C 0.7519 0.1954 0.61801 0.0
C99 C 0.72605 0.18955 0.63049 0.0
C100 C 0.71855 0.16866 0.63291 0.0
C101 C 0.81062 0.14403 0.52868 0.0
H102 H 0.7963 0.06006 0.64359 0.0
H103 H 0.77672 0.08896 0.62618 0.0
H104 H 0.88287 0.09058 0.6015 0.0
H105 H 0.90229 0.06142 0.61883 0.0
H106 H 0.79117 0.12476 0.62459 0.0
H107 H 0.84087 0.10111 0.57881 0.0
H108 H 0.78646 0.15943 0.57781 0.0
H109 H 0.77339 0.14583 0.54988 0.0
H110 H 0.88076 0.12135 0.56078 0.0
H111 H 0.89763 0.1253 0.53072 0.0
H112 H 0.73045 0.13794 0.62553 0.0
H113 H 0.79146 0.18556 0.59946 0.0
H114 H 0.79087 0.15069 0.51996 0.0
H115 H 0.69826 0.16371 0.64221 0.0
H116 H 0.75836 0.2114 0.61594 0.0
C117 C 0.70441 0.44104 0.12979 0.0
C118 C 0.66875 0.44878 0.12776 0.0
C119 C 0.71584 0.42394 0.1205 0.0
C120 C 0.69189 0.41411 0.10896 0.0
C121 C 0.65642 0.42204 0.10671 0.0
C122 C 0.64498 0.43916 0.116 0.0
C123 C 0.70361 0.39536 0.09968 0.0
C124 C 0.72384 0.38025 0.10825 0.0
C125 C 0.73509 0.36239 0.09977 0.0
C126 C 0.72555 0.35965 0.08243 0.0
C127 C 0.70508 0.37453 0.07361 0.0
C128 C 0.69433 0.39234 0.08236 0.0
C129 C 0.69473 0.37148 0.05531 0.0
C130 C 0.72016 0.36372 0.04343 0.0
C131 C 0.65928 0.37639 0.04956 0.0
C132 C 0.64946 0.37357 0.03237 0.0
C133 C 0.67488 0.36584 0.02049 0.0
C134 C 0.75621 0.34655 0.10925 0.0
C135 C 0.78388 0.35235 0.12089 0.0
C136 C 0.74815 0.32563 0.10723 0.0
C137 C 0.76676 0.31091 0.11689 0.0
C138 C 0.79379 0.31679 0.12882 0.0
C139 C 0.80237 0.33767 0.13056 0.0
C140 C 0.71037 0.36098 0.02622 0.0
H141 H 0.72331 0.44793 0.13885 0.0
H142 H 0.74349 0.4184 0.12239 0.0
H143 H 0.63718 0.41475 0.09803 0.0
H144 H 0.61748 0.44486 0.11398 0.0
H145 H 0.72996 0.38215 0.12177 0.0
H146 H 0.67938 0.4041 0.07555 0.0
H147 H 0.73395 0.34589 0.0758 0.0
H148 H 0.7478 0.35997 0.0474 0.0
H149 H 0.63892 0.38221 0.0584 0.0
H150 H 0.622 0.37766 0.02836 0.0
H151 H 0.79128 0.3683 0.12253 0.0
H152 H 0.72672 0.32065 0.09853 0.0
H153 H 0.73051 0.35481 0.01744 0.0
H154 H 0.82354 0.34268 0.13939 0.0
H155 H 0.75927 0.29496 0.11536 0.0
C156 C 0.66512 0.57583 0.63683 0.0
C157 C 0.66879 0.5557 0.63074 0.0
C158 C 0.67751 0.59242 0.62707 0.0
C159 C 0.69392 0.58931 0.61097 0.0
C160 C 0.69728 0.5692 0.60477 0.0
C161 C 0.6849 0.55259 0.61456 0.0
C162 C 0.70816 0.60696 0.60084 0.0
C163 C 0.72722 0.62292 0.60902 0.0
C164 C 0.74122 0.63954 0.59963 0.0
C165 C 0.73632 0.64005 0.58174 0.0
C166 C 0.71682 0.62435 0.57326 0.0
C167 C 0.70283 0.6079 0.583 0.0
C168 C 0.71026 0.6252 0.55435 0.0
C169 C 0.70279 0.64386 0.54609 0.0
C170 C 0.7103 0.60719 0.54447 0.0
C171 C 0.70219 0.60774 0.52695 0.0
C172 C 0.69429 0.62635 0.5187 0.0
C173 C 0.76074 0.65634 0.60872 0.0
C174 C 0.74547 0.66491 0.62362 0.0
C175 C 0.79509 0.66345 0.603 0.0
C176 C 0.81417 0.67848 0.61225 0.0
C177 C 0.79899 0.68691 0.62724 0.0
C178 C 0.76429 0.68009 0.63272 0.0
C179 C 0.69507 0.64444 0.5285 0.0
H180 H 0.65322 0.57879 0.64932 0.0
H181 H 0.67414 0.60771 0.63215 0.0
H182 H 0.71007 0.56626 0.59248 0.0
H183 H 0.68781 0.5373 0.6094 0.0
H184 H 0.73197 0.6222 0.62273 0.0
H185 H 0.68683 0.59602 0.57679 0.0
H186 H 0.74749 0.65278 0.57448 0.0
H187 H 0.7021 0.65803 0.55326 0.0
H188 H 0.71651 0.59256 0.55027 0.0
H189 H 0.70142 0.59343 0.51998 0.0
H190 H 0.71893 0.65982 0.62826 0.0
H191 H 0.80757 0.65702 0.59161 0.0
H192 H 0.6897 0.65912 0.5226 0.0
H193 H 0.75201 0.68617 0.64429 0.0
H194 H 0.84077 0.68355 0.60766 0.0
C195 C 0.79231 0.86978 0.02432 0.0
C196 C 0.8271 0.87593 0.0183 0.0
C197 C 0.78399 0.87038 0.04186 0.0
C198 C 0.81018 0.87725 0.05383 0.0
C199 C 0.84506 0.88317 0.04785 0.0
C200 C 0.85344 0.88246 0.03035 0.0
C201 C 0.80121 0.87837 0.07246 0.0
C202 C 0.78198 0.86234 0.0806 0.0
C203 C 0.77462 0.86309 0.09829 0.0
C204 C 0.78587 0.88026 0.10778 0.0
C205 C 0.80433 0.89665 0.09987 0.0
C206 C 0.81219 0.89548 0.08222 0.0
C207 C 0.81528 0.91491 0.11013 0.0
C208 C 0.79116 0.92316 0.12237 0.0
C209 C 0.85009 0.92396 0.10808 0.0
C210 C 0.86075 0.94061 0.11825 0.0
C211 C 0.83679 0.94867 0.13065 0.0
C212 C 0.75552 0.84593 0.10708 0.0
C213 C 0.72188 0.83835 0.1009 0.0
C214 C 0.77027 0.83755 0.12217 0.0
C215 C 0.75161 0.82208 0.13101 0.0
C216 C 0.71752 0.81484 0.12509 0.0
C217 C 0.70287 0.82308 0.10991 0.0
C218 C 0.80176 0.93983 0.13249 0.0
H219 H 0.77113 0.86494 0.01543 0.0
H220 H 0.75674 0.86591 0.04601 0.0
H221 H 0.86608 0.88818 0.05676 0.0
H222 H 0.88075 0.88692 0.02628 0.0
H223 H 0.7738 0.84896 0.07331 0.0
H224 H 0.82607 0.90816 0.07597 0.0
H225 H 0.78019 0.88082 0.12143 0.0
H226 H 0.76397 0.91672 0.12414 0.0
H227 H 0.86942 0.91791 0.09885 0.0
H228 H 0.88779 0.9472 0.11636 0.0
H229 H 0.70985 0.84463 0.08934 0.0
H230 H 0.79625 0.84305 0.12717 0.0
H231 H 0.78272 0.94551 0.14201 0.0
H232 H 0.67673 0.81769 0.10503 0.0
H233 H 0.76341 0.81612 0.14274 0.0
C234 C 0.16066 0.9251 0.36718 0.0
C235 C 0.15844 0.94444 0.375 0.0
C236 C 0.17149 0.90797 0.37656 0.0
C237 C 0.18119 0.90968 0.39397 0.0
C238 C 0.17916 0.92903 0.40181 0.0
C239 C 0.16773 0.94615 0.39248 0.0
C240 C 0.19336 0.8913 0.40377 0.0
C241 C 0.21407 0.87605 0.39562 0.0
C242 C 0.22397 0.85804 0.40425 0.0
C243 C 0.21412 0.8557 0.42158 0.0
C244 C 0.19419 0.87097 0.43016 0.0
C245 C 0.18371 0.88863 0.42111 0.0
C246 C 0.18376 0.86836 0.44851 0.0
C247 C 0.17048 0.84948 0.45459 0.0
C248 C 0.18698 0.88478 0.46007 0.0
C249 C 0.17724 0.88235 0.47732 0.0
C250 C 0.16386 0.86347 0.48339 0.0
C251 C 0.24393 0.84161 0.39492 0.0
C252 C 0.23447 0.83677 0.3779 0.0
C253 C 0.2726 0.83078 0.4028 0.0
C254 C 0.29159 0.81564 0.39378 0.0
C255 C 0.28235 0.81097 0.37668 0.0
C256 C 0.25349 0.82172 0.36889 0.0
C257 C 0.16059 0.84707 0.47181 0.0
H258 H 0.1544 0.92312 0.35371 0.0
H259 H 0.17198 0.89332 0.37009 0.0
H260 H 0.18675 0.93104 0.41514 0.0
H261 H 0.16591 0.9607 0.39905 0.0
H262 H 0.22292 0.87826 0.38248 0.0
H263 H 0.167 0.89999 0.42748 0.0
H264 H 0.2218 0.84192 0.42839 0.0
H265 H 0.16732 0.83658 0.44598 0.0
H266 H 0.19741 0.89948 0.45583 0.0
H267 H 0.17979 0.89534 0.48586 0.0
H268 H 0.21218 0.84457 0.37151 0.0
H269 H 0.28078 0.83422 0.41584 0.0
H270 H 0.15074 0.83227 0.4761 0.0
H271 H 0.24587 0.81875 0.35569 0.0
H272 H 0.31339 0.80751 0.40026 0.0
C273 C 0.30146 0.64281 0.98025 0.0
C274 C 0.33582 0.63648 0.98648 0.0
C275 C 0.29199 0.63985 0.96303 0.0
C276 C 0.31663 0.63049 0.95162 0.0
C277 C 0.35095 0.62417 0.95787 0.0
C278 C 0.36039 0.62709 0.97507 0.0
C279 C 0.30681 0.62737 0.93325 0.0
C280 C 0.28837 0.64268 0.92399 0.0
C281 C 0.2804 0.64009 0.90648 0.0
C282 C 0.29072 0.62188 0.89828 0.0
C283 C 0.30881 0.60632 0.90732 0.0
C284 C 0.31665 0.60919 0.9248 0.0
C285 C 0.32014 0.58728 0.89835 0.0
C286 C 0.29676 0.57786 0.88634 0.0
C287 C 0.35482 0.57869 0.9014 0.0
C288 C 0.36608 0.5613 0.89245 0.0
C289 C 0.34294 0.55208 0.88022 0.0
C290 C 0.2619 0.65648 0.89657 0.0
C291 C 0.23075 0.66634 0.90313 0.0
C292 C 0.27492 0.66204 0.88024 0.0
C293 C 0.25692 0.67691 0.87058 0.0
C294 C 0.22527 0.68652 0.87694 0.0
C295 C 0.21255 0.68116 0.8934 0.0
C296 C 0.30803 0.56048 0.87737 0.0
H297 H 0.28201 0.65029 0.98864 0.0
H298 H 0.26521 0.64475 0.95869 0.0
H299 H 0.3708 0.61714 0.94941 0.0
H300 H 0.3869 0.62181 0.97945 0.0
H301 H 0.28135 0.65694 0.93024 0.0
H302 H 0.32995 0.59708 0.93193 0.0
H303 H 0.28484 0.61989 0.88475 0.0
H304 H 0.2697 0.58393 0.88383 0.0
H305 H 0.37364 0.58566 0.91046 0.0
H306 H 0.39298 0.55508 0.8951 0.0
H307 H 0.21992 0.66224 0.91562 0.0
H308 H 0.29925 0.65497 0.87497 0.0
H309 H 0.28964 0.5539 0.86793 0.0
H310 H 0.18804 0.68806 0.89863 0.0
H311 H 0.26802 0.68097 0.85814 0.0
C312 C 0.88027 0.13044 0.25881 0.0
C313 C 0.8737 0.09369 0.26236 0.0
C314 C 0.89498 0.11169 0.26363 0.0
C315 C 0.83758 0.09475 0.25615 0.0
C316 C 0.84397 0.13156 0.25264 0.0
C317 C 0.82276 0.11363 0.25131 0.0
N318 N 0.90163 0.14751 0.25994 0.0
C319 C 0.88806 0.16624 0.25566 0.0
C320 C 0.8301 0.15068 0.24793 0.0
C321 C 0.85222 0.1681 0.2495 0.0
Gd322 Gd 0.04726 0.13886 0.2378 0.0
Gd323 Gd 0.96142 0.14261 0.27011 0.0
N324 N 0.93052 0.11101 0.26901 0.0
C325 C 0.88943 0.07512 0.26729 0.0
C326 C 0.94542 0.09311 0.27454 0.0
C327 C 0.92535 0.07486 0.27353 0.0
H328 H 0.97254 0.09284 0.27991 0.0
H329 H 0.9375 0.06063 0.27771 0.0
H330 H 0.03578 0.18852 0.22819 0.0
H331 H 0.90462 0.17981 0.25735 0.0
H332 H 0.07244 0.22029 0.22837 0.0
H333 H 0.8739 0.06099 0.26653 0.0
H334 H 0.82088 0.08106 0.25503 0.0
H335 H 0.10282 0.10167 0.25206 0.0
H336 H 0.80232 0.15218 0.24315 0.0
H337 H 0.84161 0.18298 0.24604 0.0
H338 H 0.19008 0.19946 0.24966 0.0
H339 H 0.79486 0.11419 0.24655 0.0
H340 H 0.2063 0.12904 0.26462 0.0
H341 H 0.16595 0.09856 0.26315 0.0
N342 N 0.10668 0.13385 0.2483 0.0
C343 C 0.12846 0.15079 0.24885 0.0
C344 C 0.11978 0.1152 0.25313 0.0
C345 C 0.17841 0.13058 0.26 0.0
C346 C 0.1557 0.11333 0.25921 0.0
C347 C 0.165 0.14958 0.25469 0.0
H348 H 0.21514 0.16665 0.2594 0.0
N349 N 0.07821 0.17033 0.23877 0.0
C350 C 0.11401 0.16949 0.24373 0.0
C351 C 0.12077 0.20569 0.23838 0.0
C352 C 0.13606 0.18726 0.24394 0.0
C353 C 0.06338 0.18816 0.23304 0.0
C354 C 0.08429 0.20614 0.23292 0.0
O355 O 0.95291 0.12593 0.24466 0.0
O356 O 0.0089 0.11181 0.23823 0.0
O357 O 0.04764 0.14643 0.21071 0.0
O358 O 0.08196 0.12201 0.2201 0.0
O359 O 0.01306 0.12624 0.27894 0.0
O360 O 0.03767 0.11146 0.25465 0.0
O361 O 0.05582 0.15514 0.26328 0.0
O362 O 0.0001 0.16968 0.26958 0.0
O363 O 0.96336 0.13604 0.29744 0.0
O364 O 0.92536 0.1585 0.28776 0.0
O365 O 0.99542 0.15486 0.22899 0.0
O366 O 0.97033 0.16996 0.253 0.0
C367 C 0.97298 0.11196 0.23706 0.0
C368 C 0.03322 0.11225 0.27136 0.0
C369 C 0.05876 0.11917 0.19191 0.0
C370 C 0.06238 0.11149 0.16133 0.0
C371 C 0.01873 0.09337 0.1795 0.0
C372 C 0.03083 0.10453 0.19368 0.0
C373 C 0.03428 0.09685 0.16338 0.0
C374 C 0.07466 0.12255 0.17574 0.0
C375 C 0.07002 0.13174 0.20665 0.0
C376 C 0.17261 0.18603 0.24954 0.0
C377 C 0.18695 0.1673 0.25502 0.0
H378 H 0.13705 0.21956 0.23795 0.0
C379 C 0.036 0.16912 0.27101 0.0
C380 C 0.97505 0.16898 0.23628 0.0
C381 C 0.94919 0.16369 0.31559 0.0
C382 C 0.95036 0.17114 0.34631 0.0
C383 C 0.97804 0.19486 0.32593 0.0
C384 C 0.96775 0.18211 0.31239 0.0
C385 C 0.9695 0.18943 0.3428 0.0
C386 C 0.94039 0.15827 0.33255 0.0
C387 C 0.93928 0.14994 0.30134 0.0
H388 H 0.99709 0.08209 0.18099 0.0
H389 H 0.01827 0.10192 0.20599 0.0
H390 H 0.02451 0.088 0.15254 0.0
H391 H 0.09586 0.13413 0.17432 0.0
H392 H 0.9924 0.20906 0.32335 0.0
H393 H 0.974 0.18663 0.29939 0.0
H394 H 0.9772 0.19976 0.35306 0.0
H395 H 0.9261 0.14398 0.33502 0.0
C396 C 0.62229 0.38588 0.75915 0.0
C397 C 0.61714 0.42146 0.76766 0.0
C398 C 0.60225 0.40153 0.76675 0.0
C399 C 0.65171 0.42553 0.76039 0.0
C400 C 0.65703 0.3899 0.75191 0.0
C401 C 0.67152 0.40983 0.7525 0.0
N402 N 0.60718 0.36683 0.75835 0.0
C403 C 0.62579 0.35098 0.75113 0.0
C404 C 0.67604 0.37379 0.74418 0.0
C405 C 0.66044 0.35422 0.7439 0.0
Gd406 Gd 0.46443 0.36529 0.73747 0.0
Gd407 Gd 0.5491 0.36296 0.77073 0.0
N408 N 0.56842 0.39723 0.77336 0.0
C409 C 0.59711 0.43662 0.77611 0.0
C410 C 0.55027 0.4116 0.78273 0.0
C411 C 0.56374 0.4316 0.78383 0.0
H412 H 0.52631 0.40761 0.79003 0.0
H413 H 0.54881 0.44303 0.791 0.0
H414 H 0.47694 0.31582 0.72767 0.0
H415 H 0.61412 0.33579 0.75115 0.0
H416 H 0.44044 0.28403 0.72666 0.0
H417 H 0.6077 0.45203 0.77731 0.0
H418 H 0.66356 0.44073 0.76094 0.0
H419 H 0.40692 0.40227 0.75004 0.0
H420 H 0.70283 0.37626 0.73848 0.0
H421 H 0.67516 0.34159 0.7382 0.0
H422 H 0.32086 0.30423 0.74593 0.0
H423 H 0.69813 0.41324 0.74696 0.0
H424 H 0.30244 0.37468 0.76038 0.0
H425 H 0.34257 0.40532 0.75959 0.0
N426 N 0.40376 0.37009 0.74645 0.0
C427 C 0.38208 0.3531 0.74653 0.0
C428 C 0.38996 0.38872 0.75085 0.0
C429 C 0.33081 0.3732 0.75643 0.0
C430 C 0.3534 0.39053 0.75604 0.0
C431 C 0.34495 0.35421 0.75152 0.0
H432 H 0.29455 0.33698 0.75515 0.0
N433 N 0.43335 0.33381 0.73745 0.0
C434 C 0.39711 0.3345 0.74163 0.0
C435 C 0.3911 0.29838 0.73579 0.0
C436 C 0.37519 0.31669 0.74125 0.0
C437 C 0.44884 0.31609 0.73187 0.0
C438 C 0.42807 0.29807 0.7311 0.0
O439 O 0.55648 0.37742 0.74437 0.0
O440 O 0.5014 0.39285 0.73966 0.0
O441 O 0.46961 0.35922 0.71024 0.0
O442 O 0.43056 0.38164 0.71909 0.0
O443 O 0.49469 0.3761 0.77968 0.0
O444 O 0.47157 0.39175 0.75556 0.0
O445 O 0.45499 0.34709 0.76188 0.0
O446 O 0.51156 0.33534 0.77098 0.0
O447 O 0.55396 0.36669 0.79835 0.0
O448 O 0.58982 0.34585 0.78506 0.0
O449 O 0.51626 0.3487 0.72951 0.0
O450 O 0.54411 0.33525 0.75374 0.0
C451 C 0.53716 0.39248 0.73803 0.0
C452 C 0.47333 0.38972 0.77231 0.0
C453 C 0.45694 0.38661 0.69172 0.0
C454 C 0.4539 0.39582 0.66141 0.0
C455 C 0.49561 0.41387 0.68058 0.0
C456 C 0.48363 0.40179 0.69428 0.0
C457 C 0.48099 0.41086 0.6642 0.0
C458 C 0.44192 0.38375 0.67531 0.0
C459 C 0.44577 0.37304 0.70583 0.0
C460 C 0.33816 0.31775 0.74615 0.0
C461 C 0.32315 0.33643 0.75138 0.0
H462 H 0.37495 0.28451 0.73482 0.0
C463 C 0.47549 0.33438 0.77071 0.0
C464 C 0.53765 0.33524 0.73711 0.0
C465 C 0.57323 0.33763 0.81361 0.0
C466 C 0.57467 0.32884 0.8441 0.0
C467 C 0.55238 0.30418 0.82309 0.0
C468 C 0.55915 0.31813 0.8099 0.0
C469 C 0.56001 0.30946 0.84009 0.0
C470 C 0.58104 0.3429 0.8307 0.0
C471 C 0.57913 0.35277 0.79988 0.0
H472 H 0.51636 0.42552 0.68265 0.0
H473 H 0.49528 0.40416 0.70683 0.0
H474 H 0.49057 0.42043 0.65375 0.0
H475 H 0.42155 0.37184 0.67329 0.0
H476 H 0.54139 0.28917 0.82013 0.0
H477 H 0.55357 0.31373 0.79679 0.0
H478 H 0.5551 0.29822 0.85006 0.0
H479 H 0.5917 0.35804 0.83356 0.0
C480 C 0.89814 0.83358 0.75936 0.0
C481 C 0.90623 0.80044 0.77271 0.0
C482 C 0.9186 0.8206 0.76964 0.0
C483 C 0.87377 0.79344 0.76488 0.0
C484 C 0.86506 0.82683 0.75185 0.0
C485 C 0.85327 0.80659 0.75446 0.0
N486 N 0.91065 0.85293 0.75674 0.0
C487 C 0.89033 0.8668 0.74782 0.0
C488 C 0.84468 0.84071 0.74207 0.0
C489 C 0.8572 0.86084 0.7402 0.0
Gd490 Gd 0.05038 0.86143 0.73562 0.0
Gd491 Gd 0.96604 0.86181 0.76998 0.0
N492 N 0.94964 0.82794 0.77721 0.0
C493 C 0.92627 0.78812 0.78396 0.0
C494 C 0.96762 0.81647 0.78915 0.0
C495 C 0.95678 0.79628 0.79241 0.0
H496 H 0.98979 0.82289 0.79656 0.0
H497 H 0.97159 0.78715 0.80167 0.0
H498 H 0.0445 0.90913 0.72087 0.0
H499 H 0.89996 0.88237 0.74645 0.0
H500 H 0.08254 0.94064 0.72014 0.0
H501 H 0.91772 0.77255 0.78665 0.0
H502 H 0.86382 0.77803 0.7671 0.0
H503 H 0.10813 0.82364 0.74618 0.0
H504 H 0.81909 0.83612 0.7361 0.0
H505 H 0.84138 0.87176 0.73288 0.0
H506 H 0.19422 0.92137 0.74842 0.0
H507 H 0.82806 0.80105 0.74869 0.0
H508 H 0.20942 0.85056 0.76252 0.0
H509 H 0.17041 0.81989 0.75781 0.0
N510 N 0.10994 0.85612 0.7461 0.0
C511 C 0.13164 0.87301 0.7474 0.0
C512 C 0.12401 0.83716 0.7491 0.0
C513 C 0.18157 0.85232 0.75791 0.0
C514 C 0.15967 0.83498 0.75536 0.0
C515 C 0.16797 0.87161 0.75351 0.0
H516 H 0.21785 0.88855 0.75913 0.0
N517 N 0.08377 0.89215 0.73501 0.0
C518 C 0.1184 0.89151 0.7414 0.0
C519 C 0.1276 0.92699 0.7338 0.0
C520 C 0.14103 0.90906 0.74129 0.0
C521 C 0.07125 0.90924 0.72683 0.0
C522 C 0.09271 0.92702 0.72638 0.0
O523 O 0.96002 0.84892 0.74307 0.0
O524 O 0.01497 0.83335 0.73868 0.0
O525 O 0.03625 0.86325 0.70858 0.0
O526 O 0.08811 0.85038 0.71617 0.0
O527 O 0.01985 0.84794 0.77887 0.0
O528 O 0.04686 0.83473 0.75436 0.0
O529 O 0.04596 0.88804 0.75426 0.0
O530 O 0.02092 0.87376 0.77859 0.0
O531 O 0.94 0.86138 0.79541 0.0
O532 O 0.93932 0.88902 0.77953 0.0
O533 O 0.99795 0.87722 0.72797 0.0
O534 O 0.97074 0.88956 0.75274 0.0
C535 C 0.97927 0.83378 0.73676 0.0
C536 C 0.04261 0.83523 0.77118 0.0
C537 C 0.06196 0.8385 0.69036 0.0
C538 C 0.06604 0.8282 0.6603 0.0
C539 C 0.04523 0.80398 0.68203 0.0
C540 C 0.04982 0.81882 0.69474 0.0
C541 C 0.05323 0.8086 0.66491 0.0
C542 C 0.07009 0.84313 0.67319 0.0
C543 C 0.0662 0.85442 0.70348 0.0
C544 C 0.17658 0.90798 0.74818 0.0
C545 C 0.19 0.88929 0.75431 0.0
H546 H 0.14445 0.94063 0.73314 0.0
C547 C 0.04008 0.88807 0.77088 0.0
C548 C 0.97797 0.89077 0.73619 0.0
C549 C 0.90913 0.89153 0.80722 0.0
C550 C 0.89064 0.89666 0.83707 0.0
C551 C 0.87354 0.92138 0.81525 0.0
C552 C 0.89145 0.90985 0.8028 0.0
C553 C 0.87336 0.91495 0.8323 0.0
C554 C 0.90812 0.88477 0.82443 0.0
C555 C 0.93003 0.88039 0.79396 0.0
H556 H 0.03572 0.78881 0.68547 0.0
H557 H 0.04414 0.815 0.70797 0.0
H558 H 0.0501 0.79671 0.65534 0.0
H559 H 0.07929 0.85843 0.66988 0.0
H560 H 0.86009 0.93548 0.81171 0.0
H561 H 0.89168 0.91537 0.78969 0.0
H562 H 0.85964 0.92426 0.84182 0.0
H563 H 0.92194 0.8708 0.82808 0.0
C564 C 0.62717 0.66033 0.25548 0.0
C565 C 0.62355 0.69691 0.26055 0.0
C566 C 0.60801 0.67715 0.2617 0.0
C567 C 0.65823 0.69955 0.25297 0.0
C568 C 0.66197 0.66295 0.24785 0.0
C569 C 0.67738 0.68263 0.24666 0.0
N570 N 0.61106 0.64153 0.25624 0.0
C571 C 0.62855 0.62466 0.2501 0.0
C572 C 0.67998 0.64572 0.24139 0.0
C573 C 0.66324 0.6265 0.24257 0.0
Gd574 Gd 0.46575 0.64073 0.23665 0.0
Gd575 Gd 0.55258 0.64016 0.26862 0.0
N576 N 0.57384 0.67424 0.26845 0.0
C577 C 0.60373 0.71346 0.26703 0.0
C578 C 0.55559 0.69015 0.27578 0.0
C579 C 0.56983 0.71001 0.27485 0.0
H580 H 0.53058 0.68766 0.28274 0.0
H581 H 0.55481 0.72263 0.28034 0.0
H582 H 0.48307 0.59284 0.22289 0.0
H583 H 0.61597 0.60972 0.25118 0.0
H584 H 0.45169 0.55956 0.22176 0.0
H585 H 0.61466 0.72889 0.26635 0.0
H586 H 0.67048 0.71464 0.25192 0.0
H587 H 0.40433 0.67392 0.25217 0.0
H588 H 0.70675 0.64711 0.23544 0.0
H589 H 0.67703 0.61309 0.23768 0.0
H590 H 0.33327 0.5725 0.24624 0.0
H591 H 0.70403 0.68494 0.24078 0.0
H592 H 0.30648 0.64067 0.26465 0.0
H593 H 0.3414 0.67322 0.26388 0.0
N594 N 0.40597 0.64194 0.2476 0.0
C595 C 0.38704 0.62396 0.24753 0.0
C596 C 0.38987 0.65954 0.25308 0.0
C597 C 0.33435 0.64084 0.25982 0.0
C598 C 0.35401 0.65923 0.25945 0.0
C599 C 0.35066 0.62294 0.25366 0.0
H600 H 0.30366 0.60313 0.25794 0.0
N601 N 0.43961 0.60784 0.23589 0.0
C602 C 0.40415 0.60649 0.24132 0.0
C603 C 0.40237 0.57072 0.23365 0.0
C604 C 0.38485 0.58776 0.24066 0.0
C605 C 0.45634 0.59141 0.22856 0.0
C606 C 0.43824 0.57256 0.22756 0.0
O607 O 0.55792 0.65456 0.24219 0.0
O608 O 0.50178 0.66886 0.23731 0.0
O609 O 0.46757 0.63601 0.20909 0.0
O610 O 0.42693 0.65614 0.22002 0.0
O611 O 0.49883 0.6535 0.27803 0.0
O612 O 0.47195 0.66791 0.25416 0.0
O613 O 0.45931 0.62338 0.26178 0.0
O614 O 0.51702 0.61175 0.26894 0.0
O615 O 0.5548 0.64485 0.29625 0.0
O616 O 0.5943 0.62524 0.28394 0.0
O617 O 0.51841 0.62535 0.22788 0.0
O618 O 0.54696 0.61219 0.25203 0.0
C619 C 0.5374 0.66859 0.23504 0.0
C620 C 0.47603 0.66654 0.27089 0.0
C621 C 0.44798 0.66356 0.19206 0.0
C622 C 0.44459 0.67212 0.16163 0.0
C623 C 0.47223 0.69597 0.18187 0.0
C624 C 0.46503 0.68242 0.19531 0.0
C625 C 0.46227 0.69085 0.16509 0.0
C626 C 0.43764 0.6585 0.17524 0.0
C627 C 0.44124 0.64889 0.206 0.0
C628 C 0.34859 0.58672 0.24672 0.0
C629 C 0.33165 0.60421 0.25332 0.0
H630 H 0.38815 0.55623 0.23243 0.0
C631 C 0.48101 0.61019 0.26939 0.0
C632 C 0.54068 0.61226 0.2354 0.0
C633 C 0.57659 0.61673 0.31216 0.0
C634 C 0.5837 0.60655 0.34213 0.0
C635 C 0.55758 0.58282 0.32137 0.0
C636 C 0.56176 0.59741 0.30843 0.0
C637 C 0.56865 0.58729 0.33811 0.0
C638 C 0.58724 0.62133 0.32906 0.0
C639 C 0.58158 0.63201 0.29845 0.0
H640 H 0.48542 0.71051 0.18446 0.0
H641 H 0.47251 0.68663 0.20824 0.0
H642 H 0.46781 0.70167 0.15487 0.0
H643 H 0.42449 0.64388 0.17273 0.0
H644 H 0.546 0.56796 0.31838 0.0
H645 H 0.55383 0.59358 0.29547 0.0
H646 H 0.56528 0.57571 0.34794 0.0
H647 H 0.59906 0.6362 0.33195 0.0
H648 H 0.18252 0.98435 0.3778 0.0
H649 H 0.16322 0.01389 0.36085 0.0
H650 H 0.08983 0.97539 0.33176 0.0
H651 H 0.10719 0.94599 0.34917 0.0
H652 H 0.14029 0.00247 0.31196 0.0
H653 H 0.05188 0.00293 0.35877 0.0
H654 H 0.03448 0.0037 0.38934 0.0
H655 H 0.0923 0.06059 0.39573 0.0
H656 H 0.11051 0.05999 0.36523 0.0
H657 H 0.03481 0.07174 0.2641 0.0
H658 H 0.05823 0.04421 0.28214 0.0
H659 H 0.09286 0.0886 0.31997 0.0
H660 H 0.06655 0.11599 0.30244 0.0
H661 H 0.06697 0.05931 0.3361 0.0
H662 H 0.15464 0.06121 0.29054 0.0
H663 H 0.17697 0.06128 0.26065 0.0
H664 H 0.12839 0.00215 0.2524 0.0
H665 H 0.10563 0.00172 0.2822 0.0
C666 C 0.16179 0.98215 0.36802 0.0
C667 C 0.14656 0.96264 0.36489 0.0
C668 C 0.15106 0.99905 0.35825 0.0
C669 C 0.12526 0.99674 0.34504 0.0
C670 C 0.11004 0.9774 0.34182 0.0
C671 C 0.12024 0.96058 0.35175 0.0
C672 C 0.11403 0.01445 0.33449 0.0
C673 C 0.12402 0.01487 0.31713 0.0
C674 C 0.09402 0.0309 0.34148 0.0
C675 C 0.08291 0.03129 0.35978 0.0
C676 C 0.06119 0.0155 0.36673 0.0
C677 C 0.05111 0.01593 0.38404 0.0
C678 C 0.06237 0.03215 0.39448 0.0
C679 C 0.08365 0.04801 0.38763 0.0
C680 C 0.09384 0.04764 0.37034 0.0
C681 C 0.04763 0.07555 0.27624 0.0
C682 C 0.0491 0.09588 0.28192 0.0
C683 C 0.06132 0.05984 0.28651 0.0
C684 C 0.0783 0.06425 0.3023 0.0
C685 C 0.08 0.08471 0.30786 0.0
C686 C 0.0651 0.10036 0.29785 0.0
C687 C 0.09292 0.04748 0.31328 0.0
C688 C 0.0836 0.04714 0.3308 0.0
C689 C 0.11439 0.03133 0.3065 0.0
C690 C 0.12821 0.0315 0.28858 0.0
C691 C 0.14856 0.04827 0.28233 0.0
C692 C 0.1613 0.04837 0.2654 0.0
C693 C 0.15396 0.03178 0.25462 0.0
C694 C 0.13402 0.015 0.26076 0.0
C695 C 0.12128 0.01479 0.27768 0.0
H696 H 0.16382 0.03191 0.24152 0.0
H697 H 0.05453 0.03246 0.40787 0.0
H698 H 0.41089 0.54566 0.8663 0.0
H699 H 0.43083 0.51687 0.8487 0.0
H700 H 0.32354 0.48925 0.85338 0.0
H701 H 0.30345 0.5179 0.87117 0.0
H702 H 0.43579 0.47621 0.85438 0.0
H703 H 0.30263 0.46628 0.81498 0.0
H704 H 0.25017 0.4869 0.80512 0.0
H705 H 0.31686 0.54121 0.80687 0.0
H706 H 0.36981 0.52088 0.8165 0.0
H707 H 0.45204 0.38537 0.80567 0.0
H708 H 0.42653 0.41167 0.8245 0.0
H709 H 0.42942 0.45497 0.7827 0.0
H710 H 0.45385 0.42861 0.76374 0.0
H711 H 0.36923 0.4601 0.80047 0.0
H712 H 0.4981 0.45323 0.81429 0.0
H713 H 0.55324 0.43399 0.82291 0.0
H714 H 0.50059 0.41642 0.86997 0.0
H715 H 0.44518 0.43548 0.86163 0.0
C716 C 0.39165 0.53333 0.86381 0.0
C717 C 0.35551 0.53413 0.87011 0.0
C718 C 0.40308 0.51691 0.8537 0.0
C719 C 0.37859 0.50102 0.8496 0.0
C720 C 0.34274 0.50151 0.85618 0.0
C721 C 0.33128 0.51793 0.8663 0.0
C722 C 0.39037 0.48423 0.83808 0.0
C723 C 0.42118 0.47264 0.84262 0.0
C724 C 0.37157 0.47972 0.82263 0.0
C725 C 0.34003 0.49207 0.81665 0.0
C726 C 0.3061 0.48261 0.81321 0.0
C727 C 0.27629 0.49425 0.80767 0.0
C728 C 0.28014 0.51536 0.80544 0.0
C729 C 0.31387 0.52487 0.80868 0.0
C730 C 0.34377 0.5133 0.8142 0.0
C731 C 0.44684 0.40046 0.80048 0.0
C732 C 0.45493 0.40497 0.78327 0.0
C733 C 0.43245 0.41549 0.81126 0.0
C734 C 0.42667 0.43541 0.8051 0.0
C735 C 0.43364 0.43972 0.78775 0.0
C736 C 0.44756 0.42464 0.77692 0.0
C737 C 0.41459 0.45199 0.81679 0.0
C738 C 0.38371 0.46355 0.81229 0.0
C739 C 0.43375 0.45672 0.83212 0.0
C740 C 0.46742 0.44566 0.83728 0.0
C741 C 0.49828 0.44522 0.82645 0.0
C742 C 0.52959 0.43435 0.83129 0.0
C743 C 0.5304 0.42396 0.84695 0.0
C744 C 0.49999 0.42449 0.85785 0.0
C745 C 0.46865 0.43536 0.8531 0.0
H746 H 0.55462 0.41552 0.85063 0.0
H747 H 0.25702 0.52434 0.80116 0.0
H748 H 0.70326 0.51897 0.63566 0.0
H749 H 0.6838 0.49064 0.65411 0.0
H750 H 0.58707 0.52427 0.66851 0.0
H751 H 0.60616 0.55257 0.65 0.0
H752 H 0.62074 0.50887 0.69613 0.0
H753 H 0.58206 0.48357 0.64114 0.0
H754 H 0.58942 0.47367 0.61081 0.0
H755 H 0.66988 0.42907 0.62511 0.0
H756 H 0.66337 0.4389 0.65552 0.0
H757 H 0.5125 0.43136 0.73422 0.0
H758 H 0.53961 0.45874 0.71707 0.0
H759 H 0.63115 0.41987 0.70461 0.0
H760 H 0.6033 0.39205 0.72136 0.0
H761 H 0.60427 0.43728 0.67643 0.0
H762 H 0.64767 0.46485 0.73073 0.0
H763 H 0.6435 0.47644 0.76081 0.0
H764 H 0.5538 0.51573 0.7477 0.0
H765 H 0.55852 0.50506 0.71739 0.0
C766 C 0.67756 0.52022 0.64255 0.0
C767 C 0.6563 0.53807 0.64137 0.0
C768 C 0.66651 0.50401 0.65312 0.0
C769 C 0.63387 0.50528 0.66263 0.0
C770 C 0.61243 0.52299 0.66134 0.0
C771 C 0.62346 0.53918 0.6508 0.0
C772 C 0.62263 0.48852 0.67442 0.0
C773 C 0.61679 0.49326 0.69176 0.0
C774 C 0.61849 0.46802 0.66886 0.0
C775 C 0.62254 0.46214 0.65058 0.0
C776 C 0.60158 0.47179 0.6378 0.0
C777 C 0.60555 0.46616 0.6206 0.0
C778 C 0.63019 0.4508 0.61603 0.0
C779 C 0.65086 0.44099 0.62867 0.0
C780 C 0.64702 0.44658 0.64588 0.0
C781 C 0.53857 0.42869 0.72794 0.0
C782 C 0.5557 0.40954 0.72903 0.0
C783 C 0.55425 0.44444 0.71828 0.0
C784 C 0.58766 0.44148 0.70968 0.0
C785 C 0.6054 0.42253 0.71116 0.0
C786 C 0.58959 0.4067 0.7208 0.0
C787 C 0.60232 0.45767 0.69812 0.0
C788 C 0.60864 0.45285 0.68081 0.0
C789 C 0.60698 0.47811 0.70366 0.0
C790 C 0.60321 0.48402 0.72189 0.0
C791 C 0.62693 0.47586 0.73431 0.0
C792 C 0.62458 0.48234 0.75136 0.0
C793 C 0.59807 0.49657 0.75621 0.0
C794 C 0.57422 0.50464 0.74395 0.0
C795 C 0.57695 0.49855 0.72681 0.0
H796 H 0.59619 0.50145 0.76945 0.0
H797 H 0.63321 0.44646 0.60271 0.0
H798 H 0.79655 0.98193 0.14076 0.0
H799 H 0.81536 0.0096 0.16003 0.0
H800 H 0.92234 0.98237 0.1651 0.0
H801 H 0.90341 0.95436 0.14624 0.0
H802 H 0.89602 0.99405 0.19583 0.0
H803 H 0.90883 0.02425 0.13977 0.0
H804 H 0.8881 0.0348 0.11099 0.0
H805 H 0.80511 0.07258 0.13361 0.0
H806 H 0.82504 0.06203 0.16253 0.0
H807 H 0.00194 0.07482 0.22919 0.0
H808 H 0.97421 0.0475 0.21238 0.0
H809 H 0.87412 0.08215 0.2083 0.0
H810 H 0.90273 0.11026 0.22436 0.0
H811 H 0.89132 0.06692 0.17825 0.0
H812 H 0.88175 0.03816 0.23477 0.0
H813 H 0.90393 0.02754 0.26333 0.0
H814 H 0.98208 0.98747 0.23986 0.0
H815 H 0.96044 0.99776 0.21116 0.0
C816 C 0.82403 0.98177 0.14605 0.0
C817 C 0.8485 0.96593 0.14191 0.0
C818 C 0.83483 0.99769 0.15696 0.0
C819 C 0.87037 0.99816 0.16392 0.0
C820 C 0.8948 0.98235 0.15987 0.0
C821 C 0.88405 0.96645 0.14894 0.0
C822 C 0.88212 0.015 0.17555 0.0
C823 C 0.89527 0.00998 0.19194 0.0
C824 C 0.88018 0.03583 0.17068 0.0
C825 C 0.86814 0.04216 0.1533 0.0
C826 C 0.88594 0.03466 0.1386 0.0
C827 C 0.87439 0.04067 0.12226 0.0
C828 C 0.84523 0.0543 0.12047 0.0
C829 C 0.82764 0.06199 0.13501 0.0
C830 C 0.83907 0.05601 0.15138 0.0
C831 C 0.974 0.07669 0.22473 0.0
C832 C 0.95466 0.09482 0.22798 0.0
C833 C 0.95799 0.0609 0.21526 0.0
C834 C 0.92182 0.06256 0.20925 0.0
C835 C 0.90205 0.08048 0.21282 0.0
C836 C 0.91833 0.09648 0.22209 0.0
C837 C 0.9056 0.04599 0.19851 0.0
C838 C 0.89163 0.05104 0.18227 0.0
C839 C 0.9068 0.02517 0.20352 0.0
C840 C 0.91958 0.01882 0.2208 0.0
C841 C 0.90377 0.02715 0.23569 0.0
C842 C 0.91623 0.02119 0.2519 0.0
C843 C 0.94449 0.00695 0.2534 0.0
C844 C 0.96021 0.99852 0.23868 0.0
C845 C 0.94777 0.00434 0.22245 0.0
H846 H 0.95413 0.00241 0.26596 0.0
H847 H 0.83633 0.05894 0.10781 0.0
H848 H 0.88945 0.02447 0.62333 0.0
H849 H 0.90886 0.99612 0.6417 0.0
H850 H 0.85908 0.02537 0.68542 0.0
H851 H 0.84015 0.05392 0.6672 0.0
H852 H 0.92752 0.01037 0.69287 0.0
H853 H 0.81633 0.986 0.66672 0.0
H854 H 0.77456 0.97806 0.64272 0.0
H855 H 0.85363 0.93645 0.62186 0.0
H856 H 0.89612 0.94437 0.64562 0.0
H857 H 0.93823 0.92353 0.74789 0.0
H858 H 0.91391 0.95196 0.73098 0.0
H859 H 0.9576 0.925 0.68485 0.0
H860 H 0.98147 0.8965 0.70149 0.0
H861 H 0.88951 0.93913 0.67955 0.0
H862 H 0.00164 0.96417 0.70426 0.0
H863 H 0.04444 0.97147 0.72794 0.0
H864 H 0.96546 0.01146 0.751 0.0
H865 H 0.92186 0.00414 0.72752 0.0
C866 C 0.88287 0.02493 0.63688 0.0
C867 C 0.8631 0.04139 0.6438 0.0
C868 C 0.89374 0.00866 0.64733 0.0
C869 C 0.88508 0.00854 0.6649 0.0
C870 C 0.86593 0.02512 0.6719 0.0
C871 C 0.85489 0.04133 0.66144 0.0
C872 C 0.89591 0.99109 0.67594 0.0
C873 C 0.91877 0.99483 0.69011 0.0
C874 C 0.88508 0.97077 0.67214 0.0
C875 C 0.85954 0.96593 0.65787 0.0
C876 C 0.82493 0.97529 0.65694 0.0
C877 C 0.8011 0.97077 0.64339 0.0
C878 C 0.81147 0.9568 0.63075 0.0
C879 C 0.84566 0.94729 0.63165 0.0
C880 C 0.86961 0.95177 0.64516 0.0
C881 C 0.94252 0.92359 0.73414 0.0
C882 C 0.96201 0.90776 0.72608 0.0
C883 C 0.9287 0.9399 0.7245 0.0
C884 C 0.93426 0.9407 0.70667 0.0
C885 C 0.95297 0.9247 0.69858 0.0
C886 C 0.96675 0.90843 0.70817 0.0
C887 C 0.92133 0.95838 0.69639 0.0
C888 C 0.89809 0.95468 0.68236 0.0
C889 C 0.932 0.97871 0.70025 0.0
C890 C 0.95834 0.98344 0.71423 0.0
C891 C 0.99329 0.97441 0.71443 0.0
C892 C 0.01771 0.97856 0.72782 0.0
C893 C 0.00767 0.99186 0.74101 0.0
C894 C 0.97319 1.00112 0.74079 0.0
C895 C 0.94861 0.99699 0.72744 0.0
H896 H 0.02662 0.99503 0.75138 0.0
H897 H 0.79297 0.95331 0.62027 0.0
H898 H 0.70712 0.48361 0.13608 0.0
H899 H 0.68716 0.51188 0.15431 0.0
H900 H 0.58203 0.48239 0.16122 0.0
H901 H 0.60188 0.45397 0.14316 0.0
H902 H 0.57416 0.52279 0.15541 0.0
H903 H 0.64632 0.48008 0.19235 0.0
H904 H 0.70134 0.46091 0.20107 0.0
H905 H 0.7648 0.51644 0.20091 0.0
H906 H 0.71023 0.53591 0.19194 0.0
H907 H 0.56291 0.5742 0.24509 0.0
H908 H 0.58679 0.54708 0.22662 0.0
H909 H 0.58356 0.58809 0.18323 0.0
H910 H 0.55816 0.6149 0.20149 0.0
H911 H 0.64497 0.54135 0.20758 0.0
H912 H 0.56318 0.56353 0.14776 0.0
H913 H 0.50719 0.58255 0.1404 0.0
H914 H 0.45851 0.56526 0.18847 0.0
H915 H 0.51438 0.54614 0.19616 0.0
C916 C 0.67982 0.48307 0.14155 0.0
C917 C 0.65616 0.46646 0.13821 0.0
C918 C 0.66843 0.49927 0.15194 0.0
C919 C 0.63323 0.49915 0.15926 0.0
C920 C 0.60928 0.48282 0.15566 0.0
C921 C 0.62064 0.46662 0.14528 0.0
C922 C 0.62148 0.51587 0.17088 0.0
C923 C 0.58966 0.52684 0.16681 0.0
C924 C 0.64148 0.52106 0.18585 0.0
C925 C 0.67428 0.50941 0.19131 0.0
C926 C 0.67207 0.48817 0.19405 0.0
C927 C 0.70317 0.47726 0.19906 0.0
C928 C 0.73657 0.48744 0.2015 0.0
C929 C 0.73892 0.50857 0.19898 0.0
C930 C 0.70792 0.51955 0.19395 0.0
C931 C 0.56754 0.57743 0.23163 0.0
C932 C 0.5583 0.59653 0.22466 0.0
C933 C 0.58124 0.56195 0.22109 0.0
C934 C 0.58629 0.56538 0.20345 0.0
C935 C 0.57895 0.58487 0.19669 0.0
C936 C 0.56456 0.6002 0.20714 0.0
C937 C 0.59777 0.54836 0.19205 0.0
C938 C 0.62953 0.53733 0.19616 0.0
C939 C 0.57738 0.54287 0.17726 0.0
C940 C 0.54297 0.55347 0.17252 0.0
C941 C 0.5404 0.56364 0.15669 0.0
C942 C 0.50871 0.57449 0.15249 0.0
C943 C 0.47923 0.5751 0.16394 0.0
C944 C 0.48137 0.5648 0.17963 0.0
C945 C 0.51307 0.55397 0.18392 0.0
H946 H 0.45476 0.58355 0.16067 0.0
H947 H 0.76061 0.47897 0.20538 0.0
H948 H 0.40673 0.45427 0.3634 0.0
H949 H 0.42989 0.48239 0.34576 0.0
H950 H 0.32255 0.5098 0.34571 0.0
H951 H 0.29925 0.48196 0.36371 0.0
H952 H 0.35247 0.50797 0.31358 0.0
H953 H 0.39009 0.5302 0.36945 0.0
H954 H 0.42005 0.52746 0.3977 0.0
H955 H 0.52444 0.51906 0.37322 0.0
H956 H 0.49501 0.5214 0.34479 0.0
H957 H 0.4102 0.60609 0.28089 0.0
H958 H 0.38412 0.57792 0.29772 0.0
H959 H 0.48813 0.54686 0.29629 0.0
H960 H 0.51377 0.57434 0.27864 0.0
H961 H 0.45909 0.5514 0.32966 0.0
H962 H 0.42328 0.52364 0.27526 0.0
H963 H 0.39509 0.52158 0.24656 0.0
H964 H 0.29098 0.53886 0.26774 0.0
H965 H 0.31851 0.54063 0.29666 0.0
C966 C 0.38811 0.46642 0.35989 0.0
C967 C 0.35108 0.46583 0.36504 0.0
C968 C 0.40142 0.48248 0.34976 0.0
C969 C 0.37803 0.49829 0.34456 0.0
C970 C 0.34107 0.49774 0.34959 0.0
C971 C 0.32776 0.48174 0.3598 0.0
C972 C 0.39188 0.51499 0.33333 0.0
C973 C 0.37533 0.51774 0.31725 0.0
C974 C 0.42249 0.52727 0.33789 0.0
C975 C 0.44024 0.52575 0.35497 0.0
C976 C 0.41937 0.52755 0.37008 0.0
C977 C 0.43628 0.52612 0.38613 0.0
C978 C 0.47411 0.52303 0.38725 0.0
C979 C 0.49512 0.52141 0.37233 0.0
C980 C 0.47834 0.5228 0.35624 0.0
C981 C 0.42737 0.59312 0.2839 0.0
C982 C 0.46437 0.5927 0.27875 0.0
C983 C 0.41243 0.57705 0.29355 0.0
C984 C 0.4343 0.56039 0.29836 0.0
C985 C 0.4709 0.55968 0.29286 0.0
C986 C 0.48563 0.57553 0.28294 0.0
C987 C 0.41965 0.5443 0.30995 0.0
C988 C 0.43603 0.54173 0.32609 0.0
C989 C 0.38912 0.53204 0.30544 0.0
C990 C 0.37301 0.53251 0.28803 0.0
C991 C 0.39447 0.52723 0.27375 0.0
C992 C 0.37854 0.52592 0.25748 0.0
C993 C 0.34127 0.5301 0.25532 0.0
C994 C 0.31983 0.53559 0.26944 0.0
C995 C 0.33554 0.53667 0.28578 0.0
H996 H 0.32902 0.52915 0.24269 0.0
H997 H 0.48715 0.52194 0.39969 0.0
H998 H 0.10293 0.04438 0.86718 0.0
H999 H 0.08027 0.01586 0.84988 0.0
H1000 H 0.19043 0.99298 0.84486 0.0
H1001 H 0.21333 0.02094 0.86276 0.0
H1002 H 0.15121 0.99615 0.81346 0.0
H1003 H 0.13531 0.96882 0.87035 0.0
H1004 H 0.11294 0.96884 0.90021 0.0
H1005 H 0.00168 0.97179 0.88229 0.0
H1006 H 0.02342 0.97212 0.85232 0.0
H1007 H 0.11096 0.89992 0.77577 0.0
H1008 H 0.13347 0.92828 0.79335 0.0
H1009 H 0.02201 0.94286 0.80744 0.0
H1010 H 0.99974 0.9142 0.78996 0.0
H1011 H 0.06186 0.94439 0.83444 0.0
H1012 H 0.0748 0.97306 0.77828 0.0
H1013 H 0.09477 0.97655 0.74819 0.0
H1014 H 0.20747 0.97347 0.76386 0.0
H1015 H 0.18826 0.9698 0.79406 0.0
C1016 C 0.12237 0.03312 0.8627 0.0
C1017 C 0.16005 0.03504 0.86644 0.0
C1018 C 0.10932 0.01688 0.85272 0.0
C1019 C 0.13367 0.0023 0.84616 0.0
C1020 C 0.17123 0.00414 0.84978 0.0
C1021 C 0.18427 0.02023 0.85993 0.0
C1022 C 0.12005 0.98544 0.83514 0.0
C1023 C 0.13208 0.98462 0.81807 0.0
C1024 C 0.09414 0.97089 0.84106 0.0
C1025 C 0.08103 0.97073 0.85909 0.0
C1026 C 0.10609 0.96968 0.87278 0.0
C1027 C 0.09352 0.96959 0.88972 0.0
C1028 C 0.05592 0.97038 0.89315 0.0
C1029 C 0.0308 0.97122 0.87963 0.0
C1030 C 0.04324 0.97135 0.86265 0.0
C1031 C 0.09135 0.90951 0.78228 0.0
C1032 C 0.05368 0.90529 0.78122 0.0
C1033 C 0.10417 0.92568 0.7924 0.0
C1034 C 0.07943 0.93804 0.80151 0.0
C1035 C 0.04167 0.93364 0.80052 0.0
C1036 C 0.02894 0.91732 0.79053 0.0
C1037 C 0.09298 0.95499 0.8126 0.0
C1038 C 0.08097 0.95587 0.82972 0.0
C1039 C 0.11851 0.9698 0.80665 0.0
C1040 C 0.13007 0.97102 0.78843 0.0
C1041 C 0.10383 0.9729 0.7753 0.0
C1042 C 0.11501 0.97501 0.75823 0.0
C1043 C 0.15233 0.97534 0.75414 0.0
C1044 C 0.17858 0.97331 0.76707 0.0
C1045 C 0.16757 0.97123 0.78416 0.0
H1046 H 0.16092 0.97713 0.74093 0.0
H1047 H 0.04624 0.97029 0.90628 0.0
H1048 H 0.23388 0.12203 0.01522 0.0
H1049 H 0.21701 0.12241 0.04553 0.0
H1050 H 0.10439 0.13415 0.03179 0.0
H1051 H 0.12141 0.13513 1.00158 0.0
H1052 H 0.12096 0.15568 0.05861 0.0
H1053 H 0.13714 0.08512 0.04267 0.0
H1054 H 0.17059 0.05543 0.03118 0.0
H1055 H 0.25361 0.06306 0.06978 0.0
H1056 H 0.22086 0.09297 0.08136 0.0
H1057 H 0.02575 0.11701 0.13118 0.0
H1058 H 0.05187 0.12241 0.1026 0.0
H1059 H 0.16098 0.12009 0.12391 0.0
H1060 H 0.13494 0.11462 0.15261 0.0
H1061 H 0.15142 0.09552 0.09462 0.0
H1062 H 0.12964 0.16462 0.11207 0.0
H1063 H 0.09315 0.19319 0.1235 0.0
H1064 H 0.01703 0.18697 0.08176 0.0
H1065 H 0.05277 0.15815 0.07021 0.0
C1066 C 0.20563 0.12507 0.01862 0.0
C1067 C 0.17897 0.12836 0.00586 0.0
C1068 C 0.19593 0.12502 0.03599 0.0
C1069 C 0.15926 0.1279 0.04097 0.0
C1070 C 0.13282 0.13176 0.0283 0.0
C1071 C 0.14256 0.13207 0.01097 0.0
C1072 C 0.14808 0.12647 0.0593 0.0
C1073 C 0.12739 0.14243 0.06641 0.0
C1074 C 0.1571 0.10941 0.06967 0.0
C1075 C 0.17678 0.09142 0.06275 0.0
C1076 C 0.16267 0.08056 0.04862 0.0
C1077 C 0.18148 0.06367 0.04211 0.0
C1078 C 0.21426 0.0574 0.04971 0.0
C1079 C 0.22825 0.06796 0.06388 0.0
C1080 C 0.20958 0.08487 0.07043 0.0
C1081 C 0.05531 0.11764 0.12977 0.0
C1082 C 0.07834 0.11536 0.14411 0.0
C1083 C 0.07017 0.12086 0.11347 0.0
C1084 C 0.10834 0.12178 0.11117 0.0
C1085 C 0.13145 0.11949 0.12544 0.0
C1086 C 0.11657 0.11648 0.14181 0.0
C1087 C 0.12391 0.12455 0.09375 0.0
C1088 C 0.14537 0.10884 0.08683 0.0
C1089 C 0.11521 0.1417 0.08349 0.0
C1090 C 0.09375 0.15911 0.09035 0.0
C1091 C 0.10496 0.16924 0.1054 0.0
C1092 C 0.08444 0.1855 0.11189 0.0
C1093 C 0.05275 0.19187 0.10338 0.0
C1094 C 0.04157 0.18202 0.08834 0.0
C1095 C 0.06197 0.16573 0.08181 0.0
H1096 H 0.03689 0.20446 0.10842 0.0
H1097 H 0.22878 0.04432 0.04466 0.0
H1098 H 0.28139 0.38393 0.51581 0.0
H1099 H 0.29981 0.38462 0.5459 0.0
H1100 H 0.41174 0.37249 0.5312 0.0
H1101 H 0.39315 0.37032 0.50125 0.0
H1102 H 0.39727 0.35203 0.55858 0.0
H1103 H 0.37902 0.42194 0.54163 0.0
H1104 H 0.34485 0.45126 0.52992 0.0
H1105 H 0.26338 0.4443 0.56934 0.0
H1106 H 0.29686 0.41476 0.58115 0.0
H1107 H 0.49142 0.3922 0.63127 0.0
H1108 H 0.46609 0.38711 0.60246 0.0
H1109 H 0.35652 0.38713 0.62336 0.0
H1110 H 0.38175 0.39216 0.65227 0.0
H1111 H 0.36619 0.41256 0.59399 0.0
H1112 H 0.38956 0.34357 0.61192 0.0
H1113 H 0.42707 0.31551 0.62351 0.0
H1114 H 0.50311 0.32236 0.58178 0.0
H1115 H 0.46632 0.35069 0.57007 0.0
C1116 C 0.30982 0.38102 0.51896 0.0
C1117 C 0.3358 0.37725 0.50598 0.0
C1118 C 0.32042 0.38171 0.53621 0.0
C1119 C 0.35735 0.37905 0.54085 0.0
C1120 C 0.38313 0.37474 0.52798 0.0
C1121 C 0.37248 0.37376 0.51079 0.0
C1122 C 0.36941 0.38103 0.55903 0.0
C1123 C 0.39073 0.36538 0.56623 0.0
C1124 C 0.36036 0.39824 0.56922 0.0
C1125 C 0.34022 0.41601 0.56215 0.0
C1126 C 0.35368 0.42657 0.54772 0.0
C1127 C 0.33446 0.44324 0.54108 0.0
C1128 C 0.3019 0.4496 0.54885 0.0
C1129 C 0.28856 0.43934 0.56331 0.0
C1130 C 0.30765 0.42264 0.56999 0.0
C1131 C 0.46194 0.39116 0.6297 0.0
C1132 C 0.43853 0.39257 0.64399 0.0
C1133 C 0.44753 0.38814 0.61328 0.0
C1134 C 0.40946 0.38663 0.61082 0.0
C1135 C 0.38598 0.38821 0.62502 0.0
C1136 C 0.40041 0.39096 0.6415 0.0
C1137 C 0.39427 0.38371 0.59334 0.0
C1138 C 0.37243 0.39918 0.58631 0.0
C1139 C 0.40327 0.36649 0.58324 0.0
C1140 C 0.42534 0.34938 0.5902 0.0
C1141 C 0.41444 0.33921 0.60529 0.0
C1142 C 0.43554 0.32324 0.61187 0.0
C1143 C 0.4675 0.31719 0.60341 0.0
C1144 C 0.47837 0.32708 0.58833 0.0
C1145 C 0.45737 0.34308 0.58171 0.0
H1146 H 0.48381 0.30482 0.60852 0.0
H1147 H 0.28707 0.46251 0.54369 0.0
H1148 H 0.61048 0.35012 0.0079 0.0
H1149 H 0.59315 0.34502 0.97791 0.0
H1150 H 0.69803 0.36902 0.96169 0.0
H1151 H 0.71525 0.37467 0.9917 0.0
H1152 H 0.64193 0.38426 0.94239 0.0
H1153 H 0.68233 0.31821 0.96135 0.0
H1154 H 0.68353 0.28806 0.98036 0.0
H1155 H 0.56979 0.27627 0.96966 0.0
H1156 H 0.56777 0.30653 0.95077 0.0
H1157 H 0.63596 0.34855 0.85613 0.0
H1158 H 0.65205 0.35598 0.88594 0.0
H1159 H 0.55026 0.32858 0.90277 0.0
H1160 H 0.53412 0.32099 0.87298 0.0
H1161 H 0.60503 0.31535 0.92182 0.0
H1162 H 0.56384 0.38122 0.90314 0.0
H1163 H 0.56171 0.41152 0.88435 0.0
H1164 H 0.6755 0.42377 0.89447 0.0
H1165 H 0.67842 0.39343 0.91326 0.0
C1166 C 0.62976 0.3545 0.99796 0.0
C1167 C 0.66431 0.36276 1.00222 0.0
C1168 C 0.61992 0.35141 0.98082 0.0
C1169 C 0.64444 0.35644 0.96755 0.0
C1170 C 0.67873 0.36497 0.97172 0.0
C1171 C 0.68864 0.36802 0.98888 0.0
C1172 C 0.63438 0.35264 0.94935 0.0
C1173 C 0.63432 0.36915 0.93782 0.0
C1174 C 0.62362 0.33301 0.94348 0.0
C1175 C 0.62481 0.31475 0.95478 0.0
C1176 C 0.6575 0.30928 0.96316 0.0
C1177 C 0.65834 0.29216 0.9739 0.0
C1178 C 0.62673 0.28029 0.97625 0.0
C1179 C 0.59424 0.28549 0.96784 0.0
C1180 C 0.59324 0.30262 0.95711 0.0
C1181 C 0.61677 0.34435 0.86616 0.0
C1182 C 0.58374 0.33418 0.86217 0.0
C1183 C 0.62601 0.34861 0.88321 0.0
C1184 C 0.60222 0.34302 0.89663 0.0
C1185 C 0.56911 0.333 0.89266 0.0
C1186 C 0.55995 0.32864 0.87563 0.0
C1187 C 0.61237 0.34699 0.91482 0.0
C1188 C 0.61255 0.33049 0.92636 0.0
C1189 C 0.6231 0.36664 0.9207 0.0
C1190 C 0.62143 0.38494 0.90947 0.0
C1191 C 0.58849 0.39029 0.90126 0.0
C1192 C 0.58712 0.40748 0.89063 0.0
C1193 C 0.61848 0.41951 0.88815 0.0
C1194 C 0.65125 0.41442 0.89637 0.0
C1195 C 0.65276 0.39725 0.90705 0.0
H1196 H 0.61734 0.43281 0.87989 0.0
H1197 H 0.62744 0.26704 0.98457 0.0
H1198 H 0.8037 0.13198 0.49409 0.0
H1199 H 0.82132 0.13699 0.46413 0.0
H1200 H 0.92979 0.15562 0.48008 0.0
H1201 H 0.91193 0.15147 0.5101 0.0
H1202 H 0.90537 0.18025 0.45559 0.0
H1203 H 0.91236 0.10746 0.46345 0.0
H1204 H 0.88943 0.07322 0.47151 0.0
H1205 H 0.80385 0.07783 0.43386 0.0
H1206 H 0.82597 0.11223 0.42574 0.0
H1207 H 0.99319 0.17417 0.37504 0.0
H1208 H 0.97547 0.16753 0.40478 0.0
H1209 H 0.86708 0.14971 0.38805 0.0
H1210 H 0.88479 0.15616 0.35822 0.0
H1211 H 0.89091 0.12463 0.41278 0.0
H1212 H 0.88358 0.19738 0.40502 0.0
H1213 H 0.90712 0.23132 0.39647 0.0
H1214 H 0.99352 0.22666 0.43369 0.0
H1215 H 0.97073 0.19255 0.44234 0.0
C1216 C 0.8312 0.13733 0.49126 0.0
C1217 C 0.85641 0.14125 0.50456 0.0
C1218 C 0.84138 0.13998 0.47408 0.0
C1219 C 0.87707 0.14642 0.4698 0.0
C1220 C 0.90215 0.15055 0.48304 0.0
C1221 C 0.89198 0.14797 0.50021 0.0
C1222 C 0.88822 0.14903 0.45156 0.0
C1223 C 0.90264 0.16799 0.4463 0.0
C1224 C 0.88389 0.13322 0.43928 0.0
C1225 C 0.87061 0.11251 0.44411 0.0
C1226 C 0.88848 0.10124 0.45699 0.0
C1227 C 0.87566 0.08179 0.46155 0.0
C1228 C 0.84515 0.07338 0.45323 0.0
C1229 C 0.82745 0.08438 0.44031 0.0
C1230 C 0.84013 0.10384 0.43571 0.0
C1231 C 0.96557 0.16885 0.37769 0.0
C1232 C 0.9403 0.16585 0.36428 0.0
C1233 C 0.95546 0.16506 0.3947 0.0
C1234 C 0.91972 0.15847 0.3987 0.0
C1235 C 0.89478 0.15484 0.38529 0.0
C1236 C 0.90496 0.15849 0.36824 0.0
C1237 C 0.90815 0.1558 0.41687 0.0
C1238 C 0.89362 0.13688 0.4221 0.0
C1239 C 0.91233 0.17165 0.42912 0.0
C1240 C 0.9256 0.19235 0.42423 0.0
C1241 C 0.90769 0.20356 0.41133 0.0
C1242 C 0.92089 0.22282 0.40647 0.0
C1243 C 0.95183 0.23112 0.41451 0.0
C1244 C 0.96956 0.2202 0.42747 0.0
C1245 C 0.95648 0.20092 0.43238 0.0
H1246 H 0.96201 0.24603 0.41072 0.0
H1247 H 0.83527 0.05832 0.45678 0.0
H1248 H 0.80627 0.84788 0.99374 0.0
H1249 H 0.81891 0.84887 0.96293 0.0
H1250 H 0.88096 0.90466 0.96962 0.0
H1251 H 0.8671 0.90429 1.00023 0.0
H1252 H 0.8365 0.9081 0.94326 0.0
H1253 H 0.9223 0.85706 0.96258 0.0
H1254 H 0.94059 0.82505 0.9769 0.0
H1255 H 0.87197 0.79052 0.9426 0.0
H1256 H 0.8529 0.82236 0.92822 0.0
H1257 H 0.92034 0.9179 0.8635 0.0
H1258 H 0.91293 0.91129 0.8942 0.0
H1259 H 0.85194 0.8562 0.88277 0.0
H1260 H 0.86065 0.86248 0.85188 0.0
H1261 H 0.89309 0.85089 0.91108 0.0
H1262 H 0.80774 0.9013 0.89159 0.0
H1263 H 0.78895 0.93304 0.877 0.0
H1264 H 0.8551 0.96843 0.91173 0.0
H1265 H 0.87472 0.93687 0.92637 0.0
C1266 C 0.82241 0.86044 0.98866 0.0
C1267 C 0.83569 0.87599 0.99956 0.0
C1268 C 0.83 0.86085 0.97103 0.0
C1269 C 0.85129 0.87671 0.96392 0.0
C1270 C 0.8646 0.89221 0.97478 0.0
C1271 C 0.85691 0.89187 0.99235 0.0
C1272 C 0.85871 0.87772 0.94513 0.0
C1273 C 0.84933 0.89566 0.93631 0.0
C1274 C 0.8743 0.86126 0.93586 0.0
C1275 C 0.8859 0.84211 0.94444 0.0
C1276 C 0.9109 0.84265 0.95818 0.0
C1277 C 0.92145 0.82454 0.96629 0.0
C1278 C 0.90738 0.80577 0.96069 0.0
C1279 C 0.88281 0.80507 0.94694 0.0
C1280 C 0.87215 0.82315 0.93879 0.0
C1281 C 0.90598 0.90418 0.86758 0.0
C1282 C 0.89086 0.89074 0.85541 0.0
C1283 C 0.90155 0.90046 0.8851 0.0
C1284 C 0.88101 0.88353 0.89083 0.0
C1285 C 0.86768 0.86943 0.87868 0.0
C1286 C 0.87266 0.87299 0.86107 0.0
C1287 C 0.87159 0.88143 0.90936 0.0
C1288 C 0.8803 0.86329 0.91808 0.0
C1289 C 0.85517 0.89766 0.91859 0.0
C1290 C 0.84291 0.9167 0.90999 0.0
C1291 C 0.81842 0.91584 0.89606 0.0
C1292 C 0.80762 0.9338 0.88778 0.0
C1293 C 0.82087 0.95274 0.89341 0.0
C1294 C 0.84487 0.95375 0.90737 0.0
C1295 C 0.85582 0.93584 0.91568 0.0
H1296 H 0.8125 0.96662 0.88698 0.0
H1297 H 0.91557 0.79176 0.96699 0.0
H1298 H 0.64427 0.65099 0.5023 0.0
H1299 H 0.62727 0.65086 0.47205 0.0
H1300 H 0.70311 0.60166 0.46273 0.0
H1301 H 0.7222 0.60268 0.49268 0.0
H1302 H 0.7066 0.62665 0.43731 0.0
H1303 H 0.60698 0.59436 0.46749 0.0
H1304 H 0.55787 0.59154 0.48916 0.0
H1305 H 0.50433 0.64393 0.46758 0.0
H1306 H 0.5534 0.64722 0.44592 0.0
H1307 H 0.62746 0.58292 0.36227 0.0
H1308 H 0.64722 0.58951 0.39179 0.0
H1309 H 0.58786 0.64639 0.39171 0.0
H1310 H 0.56823 0.63994 0.36201 0.0
H1311 H 0.57526 0.62045 0.42125 0.0
H1312 H 0.67489 0.65001 0.38928 0.0
H1313 H 0.72355 0.65042 0.36731 0.0
H1314 H 0.77664 0.6 0.39219 0.0
H1315 H 0.72797 0.59909 0.41419 0.0
C1316 C 0.65791 0.64038 0.4938 0.0
C1317 C 0.68452 0.62674 0.50008 0.0
C1318 C 0.64771 0.64012 0.47649 0.0
C1319 C 0.6633 0.62595 0.4651 0.0
C1320 C 0.69045 0.61266 0.47123 0.0
C1321 C 0.70104 0.6131 0.48847 0.0
C1322 C 0.65116 0.62475 0.44686 0.0
C1323 C 0.67788 0.6251 0.43386 0.0
C1324 C 0.61362 0.62314 0.44222 0.0
C1325 C 0.58407 0.62118 0.45521 0.0
C1326 C 0.58488 0.60537 0.46745 0.0
C1327 C 0.55703 0.60367 0.47972 0.0
C1328 C 0.52806 0.61758 0.47978 0.0
C1329 C 0.52682 0.63319 0.46754 0.0
C1330 C 0.55463 0.63498 0.45526 0.0
C1331 C 0.61865 0.59684 0.36855 0.0
C1332 C 0.5963 0.61092 0.35987 0.0
C1333 C 0.63007 0.60062 0.38536 0.0
C1334 C 0.61911 0.61847 0.39389 0.0
C1335 C 0.59665 0.63254 0.38531 0.0
C1336 C 0.58564 0.62891 0.36836 0.0
C1337 C 0.63072 0.62212 0.41188 0.0
C1338 C 0.60391 0.62219 0.42478 0.0
C1339 C 0.66816 0.62379 0.41646 0.0
C1340 C 0.69759 0.62437 0.4033 0.0
C1341 C 0.69677 0.6389 0.38999 0.0
C1342 C 0.72439 0.63924 0.37755 0.0
C1343 C 0.75313 0.62521 0.37833 0.0
C1344 C 0.75435 0.61084 0.39159 0.0
C1345 C 0.72677 0.61042 0.40406 0.0
H1346 H 0.77449 0.6255 0.36868 0.0
H1347 H 0.50652 0.61624 0.48928 0.0
H1348 H 0.29261 0.63168 0.01506 0.0
H1349 H 0.30988 0.63695 0.04507 0.0
H1350 H 0.4196 0.65348 0.02939 0.0
H1351 H 0.40247 0.64853 0.99936 0.0
H1352 H 0.41989 0.62687 0.05634 0.0
H1353 H 0.35927 0.68983 0.0415 0.0
H1354 H 0.30826 0.71078 0.0306 0.0
H1355 H 0.2373 0.68661 0.06974 0.0
H1356 H 0.28779 0.6653 0.08074 0.0
H1357 H 0.48478 0.6754 0.13215 0.0
H1358 H 0.46481 0.66786 0.10279 0.0
H1359 H 0.35819 0.64987 0.12172 0.0
H1360 H 0.37802 0.65741 0.15112 0.0
H1361 H 0.35433 0.67609 0.09369 0.0
H1362 H 0.41155 0.61322 0.10842 0.0
H1363 H 0.46 0.5908 0.11961 0.0
H1364 H 0.53488 0.6135 0.08143 0.0
H1365 H 0.48665 0.63611 0.06999 0.0
C1366 C 0.32031 0.63665 0.01797 0.0
C1367 C 0.34613 0.63971 0.00477 0.0
C1368 C 0.33017 0.63959 0.03514 0.0
C1369 C 0.36597 0.64575 0.03946 0.0
C1370 C 0.39186 0.64866 0.02635 0.0
C1371 C 0.38203 0.64576 0.00919 0.0
C1372 C 0.37656 0.64911 0.05765 0.0
C1373 C 0.40586 0.63784 0.06443 0.0
C1374 C 0.35752 0.66293 0.06838 0.0
C1375 C 0.3272 0.67582 0.06183 0.0
C1376 C 0.33271 0.68887 0.0477 0.0
C1377 C 0.30391 0.70082 0.04152 0.0
C1378 C 0.26954 0.69999 0.04944 0.0
C1379 C 0.26393 0.68723 0.0636 0.0
C1380 C 0.29263 0.67522 0.06982 0.0
C1381 C 0.45709 0.66984 0.13003 0.0
C1382 C 0.43294 0.66699 0.1439 0.0
C1383 C 0.44579 0.66543 0.11329 0.0
C1384 C 0.41006 0.65823 0.1101 0.0
C1385 C 0.38587 0.6554 0.12391 0.0
C1386 C 0.3973 0.65958 0.14069 0.0
C1387 C 0.39786 0.65402 0.09228 0.0
C1388 C 0.3683 0.66512 0.08558 0.0
C1389 C 0.41643 0.63993 0.08166 0.0
C1390 C 0.44564 0.62651 0.08848 0.0
C1391 C 0.43844 0.61356 0.10251 0.0
C1392 C 0.46586 0.60078 0.10887 0.0
C1393 C 0.50063 0.6008 0.10131 0.0
C1394 C 0.50796 0.61353 0.0873 0.0
C1395 C 0.48056 0.62629 0.08084 0.0
H1396 H 0.52185 0.5909 0.10628 0.0
H1397 H 0.24727 0.70926 0.04463 0.0
H1398 H 0.20026 0.87757 0.51184 0.0
H1399 H 0.18328 0.87293 0.54196 0.0
H1400 H 0.08742 0.83855 0.52662 0.0
H1401 H 0.10374 0.84355 0.49645 0.0
H1402 H 0.07166 0.86571 0.55202 0.0
H1403 H 0.16286 0.81427 0.54125 0.0
H1404 H 0.22311 0.80146 0.53184 0.0
H1405 H 0.2767 0.83882 0.56969 0.0
H1406 H 0.21676 0.85207 0.57918 0.0
H1407 H 0.02849 0.81741 0.63117 0.0
H1408 H 0.04516 0.82472 0.60138 0.0
H1409 H 0.14148 0.8574 0.61858 0.0
H1410 H 0.1255 0.84969 0.64838 0.0
H1411 H 0.15768 0.83226 0.59247 0.0
H1412 H 0.06743 0.88315 0.60389 0.0
H1413 H 0.0077 0.89655 0.61343 0.0
H1414 H 0.9529 0.8612 0.57462 0.0
H1415 H 0.01229 0.84735 0.565 0.0
C1416 C 0.17537 0.86919 0.51486 0.0
C1417 C 0.15343 0.86086 0.50173 0.0
C1418 C 0.16586 0.86641 0.5321 0.0
C1419 C 0.13428 0.8552 0.53656 0.0
C1420 C 0.11198 0.84718 0.52348 0.0
C1421 C 0.12152 0.84991 0.50625 0.0
C1422 C 0.12462 0.85166 0.55485 0.0
C1423 C 0.09027 0.85817 0.56082 0.0
C1424 C 0.14931 0.84233 0.56645 0.0
C1425 C 0.18536 0.83432 0.5608 0.0
C1426 C 0.18751 0.81988 0.54748 0.0
C1427 C 0.2216 0.81251 0.54214 0.0
C1428 C 0.25372 0.81936 0.55013 0.0
C1429 C 0.2518 0.83355 0.5635 0.0
C1430 C 0.21778 0.84098 0.56887 0.0
C1431 C 0.05332 0.82606 0.62861 0.0
C1432 C 0.07563 0.83299 0.64217 0.0
C1433 C 0.06264 0.83039 0.61158 0.0
C1434 C 0.09438 0.84179 0.60774 0.0
C1435 C 0.1168 0.84864 0.62123 0.0
C1436 C 0.10746 0.84436 0.63827 0.0
C1437 C 0.1046 0.8462 0.58964 0.0
C1438 C 0.13907 0.83985 0.5837 0.0
C1439 C 0.08008 0.85576 0.5781 0.0
C1440 C 0.04429 0.86405 0.58384 0.0
C1441 C 0.04262 0.87809 0.59749 0.0
C1442 C 0.00882 0.8858 0.60289 0.0
C1443 C 0.97651 0.87968 0.59466 0.0
C1444 C 0.97795 0.86589 0.58099 0.0
C1445 C 0.01167 0.85813 0.57555 0.0
H1446 H 0.95038 0.88567 0.59886 0.0
H1447 H 0.28008 0.81364 0.54598 0.0
H1448 H 0.1325 0.31343 0.37396 0.0
H1449 H 0.10372 0.28738 0.35583 0.0
H1450 H 0.20633 0.25497 0.3531 0.0
H1451 H 0.23558 0.28129 0.37069 0.0
H1452 H 0.17864 0.25991 0.32221 0.0
H1453 H 0.13236 0.23694 0.37619 0.0
H1454 H 0.10056 0.23858 0.40405 0.0
H1455 H 0.9997 0.25343 0.37859 0.0
H1456 H 0.03104 0.2523 0.35056 0.0
H1457 H 0.10549 0.16803 0.2843 0.0
H1458 H 0.13482 0.1933 0.30306 0.0
H1459 H 0.03875 0.23129 0.29995 0.0
H1460 H 0.00993 0.2066 0.28051 0.0
H1461 H 0.06268 0.22253 0.33423 0.0
H1462 H 0.11033 0.25137 0.28177 0.0
H1463 H 0.14221 0.25266 0.25388 0.0
H1464 H 0.23834 0.22652 0.27678 0.0
H1465 H 0.20719 0.2255 0.30492 0.0
C1466 C 0.14894 0.30074 0.36953 0.0
C1467 C 0.18643 0.29953 0.37374 0.0
C1468 C 0.13231 0.28571 0.35932 0.0
C1469 C 0.15277 0.2691 0.35319 0.0
C1470 C 0.18995 0.26761 0.35772 0.0
C1471 C 0.20658 0.28261 0.3679 0.0
C1472 C 0.13631 0.25419 0.34096 0.0
C1473 C 0.15364 0.25147 0.32504 0.0
C1474 C 0.103 0.24362 0.34436 0.0
C1475 C 0.08424 0.24481 0.36125 0.0
C1476 C 0.10353 0.24084 0.37652 0.0
C1477 C 0.08554 0.24162 0.39235 0.0
C1478 C 0.04817 0.24618 0.3931 0.0
C1479 C 0.02868 0.24996 0.378 0.0
C1480 C 0.04656 0.24926 0.36214 0.0
C1481 C 0.09078 0.18189 0.2874 0.0
C1482 C 0.05493 0.18505 0.28129 0.0
C1483 C 0.10758 0.1963 0.29815 0.0
C1484 C 0.08876 0.21404 0.30305 0.0
C1485 C 0.05354 0.21757 0.29648 0.0
C1486 C 0.037 0.20336 0.2855 0.0
C1487 C 0.10513 0.2284 0.31566 0.0
C1488 C 0.08779 0.23095 0.33159 0.0
C1489 C 0.13834 0.23886 0.31234 0.0
C1490 C 0.15635 0.23817 0.29535 0.0
C1491 C 0.13814 0.24571 0.2808 0.0
C1492 C 0.15618 0.24656 0.265 0.0
C1493 C 0.19227 0.23966 0.26355 0.0
C1494 C 0.21041 0.23189 0.27793 0.0
C1495 C 0.19265 0.23127 0.29382 0.0
H1496 H 0.20614 0.24028 0.25128 0.0
H1497 H 0.03431 0.24673 0.40537 0.0
H1498 H 0.37474 0.18915 0.87234 0.0
H1499 H 0.40414 0.21497 0.85418 0.0
H1500 H 0.30063 0.24595 0.84861 0.0
H1501 H 0.27083 0.21986 0.86633 0.0
H1502 H 0.33309 0.24092 0.81825 0.0
H1503 H 0.36967 0.26557 0.87349 0.0
H1504 H 0.39701 0.26397 0.90239 0.0
H1505 H 0.5017 0.24933 0.88044 0.0
H1506 H 0.47485 0.2505 0.85141 0.0
H1507 H 0.40369 0.33297 0.78098 0.0
H1508 H 0.37412 0.30732 0.79922 0.0
H1509 H 0.47546 0.27373 0.80195 0.0
H1510 H 0.50473 0.2988 0.78302 0.0
H1511 H 0.44442 0.28063 0.83405 0.0
H1512 H 0.40775 0.25182 0.78 0.0
H1513 H 0.38098 0.25063 0.75096 0.0
H1514 H 0.27857 0.27276 0.77068 0.0
H1515 H 0.30465 0.27378 0.79991 0.0
C1516 C 0.35823 0.20146 0.86725 0.0
C1517 C 0.3204 0.20241 0.87077 0.0
C1518 C 0.37516 0.21633 0.85701 0.0
C1519 C 0.35466 0.23251 0.85014 0.0
C1520 C 0.31701 0.23365 0.85382 0.0
C1521 C 0.30007 0.2188 0.86407 0.0
C1522 C 0.37199 0.24758 0.83834 0.0
C1523 C 0.35705 0.24986 0.82185 0.0
C1524 C 0.40396 0.25879 0.84281 0.0
C1525 C 0.42011 0.25789 0.86027 0.0
C1526 C 0.39843 0.26179 0.87483 0.0
C1527 C 0.41386 0.261 0.89123 0.0
C1528 C 0.45104 0.25649 0.89325 0.0
C1529 C 0.47288 0.25278 0.87886 0.0
C1530 C 0.45757 0.25351 0.86243 0.0
C1531 C 0.41961 0.31999 0.78525 0.0
C1532 C 0.45691 0.31819 0.78087 0.0
C1533 C 0.40264 0.30535 0.79571 0.0
C1534 C 0.42267 0.28869 0.80204 0.0
C1535 C 0.45963 0.28659 0.79736 0.0
C1536 C 0.47644 0.30107 0.7867 0.0
C1537 C 0.40541 0.27391 0.81407 0.0
C1538 C 0.42035 0.27172 0.83056 0.0
C1539 C 0.37353 0.26272 0.80964 0.0
C1540 C 0.35822 0.26305 0.79206 0.0
C1541 C 0.37961 0.25659 0.7781 0.0
C1542 C 0.36449 0.2558 0.76165 0.0
C1543 C 0.32809 0.26162 0.75898 0.0
C1544 C 0.30673 0.26822 0.77277 0.0
C1545 C 0.32161 0.26882 0.7893 0.0
H1546 H 0.31647 0.26107 0.7462 0.0
H1547 H 0.46294 0.25591 0.90596 0.0
H1548 H 0.71669 0.18886 0.66518 0.0
H1549 H 0.68511 0.21386 0.68308 0.0
H1550 H 0.66146 0.25017 0.6382 0.0
H1551 H 0.69388 0.22532 0.62026 0.0
H1552 H 0.68101 0.27426 0.66352 0.0
H1553 H 0.59543 0.21904 0.65759 0.0
H1554 H 0.57388 0.18324 0.65859 0.0
H1555 H 0.59488 0.18114 0.71277 0.0
H1556 H 0.61705 0.21685 0.71205 0.0
H1557 H 0.54247 0.33474 0.70211 0.0
H1558 H 0.57467 0.31017 0.68409 0.0
H1559 H 0.60816 0.27679 0.72914 0.0
H1560 H 0.57548 0.30118 0.74733 0.0
H1561 H 0.58309 0.25153 0.70358 0.0
H1562 H 0.66831 0.30802 0.70867 0.0
H1563 H 0.68721 0.34425 0.70668 0.0
H1564 H 0.66292 0.34435 0.65281 0.0
H1565 H 0.6436 0.30818 0.65446 0.0
C1566 C 0.70461 0.20213 0.65912 0.0
C1567 C 0.70745 0.20505 0.6413 0.0
C1568 C 0.68651 0.2164 0.66936 0.0
C1569 C 0.67025 0.23373 0.66197 0.0
C1570 C 0.67368 0.2369 0.6442 0.0
C1571 C 0.6922 0.22271 0.63396 0.0
C1572 C 0.64968 0.24848 0.6728 0.0
C1573 C 0.65927 0.2693 0.6721 0.0
C1574 C 0.62166 0.24203 0.68424 0.0
C1575 C 0.60824 0.22056 0.68473 0.0
C1576 C 0.59571 0.21089 0.66969 0.0
C1577 C 0.58335 0.19063 0.67021 0.0
C1578 C 0.5831 0.1799 0.68573 0.0
C1579 C 0.59513 0.18945 0.70076 0.0
C1580 C 0.60757 0.20971 0.7003 0.0
C1581 C 0.55657 0.32216 0.70823 0.0
C1582 C 0.55661 0.32003 0.7262 0.0
C1583 C 0.57515 0.30818 0.69789 0.0
C1584 C 0.59425 0.29182 0.70529 0.0
C1585 C 0.59374 0.28938 0.72318 0.0
C1586 C 0.57517 0.30338 0.73355 0.0
C1587 C 0.61457 0.2772 0.69432 0.0
C1588 C 0.60488 0.25643 0.695 0.0
C1589 C 0.64217 0.28373 0.68273 0.0
C1590 C 0.65422 0.30543 0.68171 0.0
C1591 C 0.66678 0.3158 0.69642 0.0
C1592 C 0.67759 0.33631 0.69535 0.0
C1593 C 0.67611 0.3466 0.67966 0.0
C1594 C 0.664 0.33637 0.66496 0.0
C1595 C 0.65319 0.31585 0.66594 0.0
H1596 H 0.68445 0.36249 0.67888 0.0
H1597 H 0.57351 0.16421 0.6861 0.0
H1598 H 0.80932 0.31918 0.16307 0.0
H1599 H 0.84051 0.29401 0.18095 0.0
H1600 H 0.85161 0.25412 0.1372 0.0
H1601 H 0.82019 0.27927 0.11922 0.0
H1602 H 0.83081 0.2329 0.16481 0.0
H1603 H 0.92469 0.28222 0.1523 0.0
H1604 H 0.95249 0.31662 0.15049 0.0
H1605 H 0.94241 0.32358 0.20506 0.0
H1606 H 0.91406 0.28931 0.20718 0.0
H1607 H 0.9626 0.16657 0.2018 0.0
H1608 H 0.9322 0.19164 0.18347 0.0
H1609 H 0.91627 0.23106 0.22718 0.0
H1610 H 0.94744 0.20625 0.24555 0.0
H1611 H 0.94001 0.25227 0.19932 0.0
H1612 H 0.8454 0.2027 0.21152 0.0
H1613 H 0.81841 0.16807 0.21297 0.0
H1614 H 0.83153 0.16126 0.15855 0.0
H1615 H 0.85883 0.19582 0.15676 0.0
C1616 C 0.81868 0.30514 0.15721 0.0
C1617 C 0.81252 0.30131 0.13968 0.0
C1618 C 0.83649 0.29074 0.16745 0.0
C1619 C 0.84891 0.27228 0.16038 0.0
C1620 C 0.84231 0.26826 0.14294 0.0
C1621 C 0.8243 0.28263 0.13269 0.0
C1622 C 0.86862 0.25717 0.17121 0.0
C1623 C 0.85499 0.23707 0.17217 0.0
C1624 C 0.89976 0.26269 0.18109 0.0
C1625 C 0.91693 0.28328 0.17987 0.0
C1626 C 0.92814 0.29115 0.1639 0.0
C1627 C 0.94404 0.31062 0.16282 0.0
C1628 C 0.94913 0.3223 0.17765 0.0
C1629 C 0.93841 0.31452 0.19359 0.0
C1630 C 0.92245 0.29507 0.19474 0.0
C1631 C 0.95272 0.1806 0.20752 0.0
C1632 C 0.95701 0.18431 0.22518 0.0
C1633 C 0.93516 0.19486 0.19704 0.0
C1634 C 0.92146 0.21309 0.204 0.0
C1635 C 0.92642 0.21704 0.22155 0.0
C1636 C 0.94399 0.20278 0.23205 0.0
C1637 C 0.90212 0.22807 0.19295 0.0
C1638 C 0.91583 0.24813 0.19195 0.0
C1639 C 0.87116 0.22249 0.18299 0.0
C1640 C 0.85445 0.20178 0.18403 0.0
C1641 C 0.84275 0.19377 0.19988 0.0
C1642 C 0.82738 0.17416 0.20076 0.0
C1643 C 0.82342 0.16244 0.18589 0.0
C1644 C 0.83467 0.17035 0.17007 0.0
C1645 C 0.85002 0.18996 0.1691 0.0
H1646 H 0.81155 0.14726 0.18662 0.0
H1647 H 0.96145 0.33737 0.17678 0.0
H1648 H 0.77298 0.72263 0.64064 0.0
H1649 H 0.80586 0.74736 0.65863 0.0
H1650 H 0.90388 0.71095 0.65502 0.0
H1651 H 0.87105 0.68609 0.63704 0.0
H1652 H 0.88746 0.72303 0.68859 0.0
H1653 H 0.90028 0.75359 0.63298 0.0
H1654 H 0.87888 0.76682 0.60512 0.0
H1655 H 0.81234 0.81122 0.63093 0.0
H1656 H 0.83294 0.79806 0.65897 0.0
H1657 H 0.00518 0.79612 0.72788 0.0
H1658 H 0.97712 0.77129 0.70845 0.0
H1659 H 0.88341 0.81076 0.70241 0.0
H1660 H 0.9131 0.83642 0.72048 0.0
H1661 H 0.89981 0.79632 0.67305 0.0
H1662 H 0.88546 0.76529 0.7289 0.0
H1663 H 0.90681 0.75188 0.75676 0.0
H1664 H 0.97507 0.70843 0.73091 0.0
H1665 H 0.95454 0.72165 0.70288 0.0
C1666 C 0.80155 0.71992 0.64366 0.0
C1667 C 0.81946 0.70243 0.63742 0.0
C1668 C 0.82035 0.7341 0.65386 0.0
C1669 C 0.85735 0.73103 0.6581 0.0
C1670 C 0.87534 0.71361 0.65188 0.0
C1671 C 0.85665 0.69952 0.64151 0.0
C1672 C 0.87695 0.74583 0.66931 0.0
C1673 C 0.89062 0.73902 0.68513 0.0
C1674 C 0.88032 0.76675 0.66493 0.0
C1675 C 0.86788 0.7747 0.64808 0.0
C1676 C 0.88083 0.76605 0.63272 0.0
C1677 C 0.8689 0.77356 0.61689 0.0
C1678 C 0.84419 0.78981 0.61625 0.0
C1679 C 0.83143 0.79862 0.63144 0.0
C1680 C 0.84326 0.79115 0.64731 0.0
C1681 C 0.97876 0.79958 0.72227 0.0
C1682 C 0.96131 0.81823 0.72576 0.0
C1683 C 0.96246 0.78523 0.71133 0.0
C1684 C 0.92771 0.78889 0.70416 0.0
C1685 C 0.91014 0.80748 0.70779 0.0
C1686 C 0.92691 0.82205 0.71834 0.0
C1687 C 0.90996 0.77366 0.69257 0.0
C1688 C 0.89666 0.78037 0.67661 0.0
C1689 C 0.90671 0.75266 0.6969 0.0
C1690 C 0.91868 0.74457 0.71378 0.0
C1691 C 0.90517 0.75294 0.72915 0.0
C1692 C 0.91711 0.74539 0.74497 0.0
C1693 C 0.94232 0.72939 0.7456 0.0
C1694 C 0.95557 0.72084 0.7304 0.0
C1695 C 0.94376 0.72834 0.71455 0.0
H1696 H 0.95153 0.72359 0.75786 0.0
H1697 H 0.835 0.79561 0.60399 0.0
H1698 H 0.64555 0.81563 0.13488 0.0
H1699 H 0.61285 0.79081 0.15299 0.0
H1700 H 0.71043 0.75398 0.15597 0.0
H1701 H 0.74334 0.77883 0.138 0.0
H1702 H 0.64294 0.73144 0.14954 0.0
H1703 H 0.69319 0.78261 0.18814 0.0
H1704 H 0.70259 0.81786 0.19855 0.0
H1705 H 0.58638 0.8246 0.20546 0.0
H1706 H 0.57625 0.78947 0.19483 0.0
H1707 H 0.6032 0.66592 0.21861 0.0
H1708 H 0.6319 0.69118 0.19977 0.0
H1709 H 0.54001 0.73157 0.20724 0.0
H1710 H 0.51208 0.70671 0.22689 0.0
H1711 H 0.60137 0.75285 0.20743 0.0
H1712 H 0.54856 0.70348 0.17005 0.0
H1713 H 0.53485 0.66886 0.15909 0.0
H1714 H 0.64919 0.65962 0.14851 0.0
H1715 H 0.66361 0.69406 0.15967 0.0
C1716 C 0.65986 0.80212 0.13925 0.0
C1717 C 0.697 0.79916 0.13508 0.0
C1718 C 0.64124 0.78802 0.14964 0.0
C1719 C 0.65931 0.77063 0.15588 0.0
C1720 C 0.69602 0.76731 0.15129 0.0
C1721 C 0.71481 0.78154 0.14111 0.0
C1722 C 0.64035 0.75622 0.16767 0.0
C1723 C 0.63418 0.73602 0.16227 0.0
C1724 C 0.62783 0.76243 0.18403 0.0
C1725 C 0.63394 0.7835 0.19051 0.0
C1726 C 0.66962 0.79167 0.19173 0.0
C1727 C 0.67509 0.81162 0.1977 0.0
C1728 C 0.6451 0.82348 0.20262 0.0
C1729 C 0.60958 0.8154 0.20162 0.0
C1730 C 0.60396 0.79548 0.19563 0.0
C1731 C 0.58924 0.68025 0.21637 0.0
C1732 C 0.55504 0.68419 0.22398 0.0
C1733 C 0.60551 0.69462 0.20545 0.0
C1734 C 0.58772 0.7131 0.20173 0.0
C1735 C 0.55411 0.71734 0.20977 0.0
C1736 C 0.53799 0.70304 0.22085 0.0
C1737 C 0.60424 0.72791 0.18942 0.0
C1738 C 0.60993 0.74822 0.19469 0.0
C1739 C 0.61566 0.7219 0.1728 0.0
C1740 C 0.60717 0.70127 0.16585 0.0
C1741 C 0.57078 0.69399 0.1655 0.0
C1742 C 0.56288 0.67442 0.15924 0.0
C1743 C 0.59114 0.66204 0.15314 0.0
C1744 C 0.62733 0.66923 0.15325 0.0
C1745 C 0.63538 0.68878 0.15953 0.0
H1746 H 0.58499 0.64689 0.1483 0.0
H1747 H 0.64939 0.83892 0.20724 0.0
H1748 H 0.25501 0.78278 0.35389 0.0
H1749 H 0.28908 0.75808 0.3368 0.0
H1750 H 0.39007 0.77799 0.36053 0.0
H1751 H 0.35637 0.80348 0.37708 0.0
H1752 H 0.40033 0.77383 0.32755 0.0
H1753 H 0.34781 0.73227 0.37164 0.0
H1754 H 0.29859 0.71819 0.38995 0.0
H1755 H 0.24437 0.69364 0.34553 0.0
H1756 H 0.29303 0.70782 0.32692 0.0
H1757 H 0.46387 0.66301 0.30532 0.0
H1758 H 0.43278 0.68719 0.32421 0.0
H1759 H 0.41216 0.7268 0.28102 0.0
H1760 H 0.44418 0.70296 0.26213 0.0
H1761 H 0.36462 0.70053 0.32538 0.0
H1762 H 0.41457 0.77521 0.29306 0.0
H1763 H 0.46903 0.78847 0.27773 0.0
H1764 H 0.53721 0.74535 0.30417 0.0
H1765 H 0.48315 0.73171 0.31947 0.0
C1766 C 0.28451 0.78205 0.3554 0.0
C1767 C 0.30292 0.79519 0.36688 0.0
C1768 C 0.30393 0.76773 0.34574 0.0
C1769 C 0.34213 0.76599 0.3475 0.0
C1770 C 0.36059 0.77901 0.35897 0.0
C1771 C 0.34122 0.79344 0.36857 0.0
C1772 C 0.36287 0.75088 0.33711 0.0
C1773 C 0.39247 0.75781 0.3271 0.0
C1774 C 0.35318 0.72987 0.33672 0.0
C1775 C 0.3239 0.72127 0.34787 0.0
C1776 C 0.32525 0.724 0.36576 0.0
C1777 C 0.29747 0.71598 0.3762 0.0
C1778 C 0.26833 0.70507 0.3689 0.0
C1779 C 0.26694 0.70212 0.35116 0.0
C1780 C 0.29463 0.71013 0.34066 0.0
C1781 C 0.4528 0.6769 0.29984 0.0
C1782 C 0.4563 0.68101 0.2822 0.0
C1783 C 0.4349 0.69066 0.31065 0.0
C1784 C 0.42034 0.70889 0.30408 0.0
C1785 C 0.42357 0.71297 0.28644 0.0
C1786 C 0.44157 0.69922 0.27562 0.0
C1787 C 0.40166 0.72356 0.31567 0.0
C1788 C 0.3724 0.71656 0.32585 0.0
C1789 C 0.41227 0.74438 0.31659 0.0
C1790 C 0.4448 0.75235 0.30728 0.0
C1791 C 0.4412 0.76855 0.29556 0.0
C1792 C 0.47197 0.77608 0.28683 0.0
C1793 C 0.50653 0.76765 0.28987 0.0
C1794 C 0.51039 0.75171 0.30167 0.0
C1795 C 0.47968 0.74402 0.31032 0.0
H1796 H 0.53034 0.77353 0.28315 0.0
H1797 H 0.24685 0.69887 0.377 0.0
H1798 H 0.19298 0.72227 0.88748 0.0
H1799 H 0.16137 0.74759 0.86979 0.0
H1800 H 0.1819 0.71122 0.8247 0.0
H1801 H 0.21277 0.68562 0.84228 0.0
H1802 H 0.19956 0.75174 0.81997 0.0
H1803 H 0.09773 0.71233 0.84181 0.0
H1804 H 0.05951 0.69646 0.86434 0.0
H1805 H 0.03918 0.75555 0.88629 0.0
H1806 H 0.07772 0.77175 0.86402 0.0
H1807 H 0.07379 0.79883 0.76168 0.0
H1808 H 0.1072 0.7748 0.77994 0.0
H1809 H 0.08919 0.8138 0.82368 0.0
H1810 H 0.05717 0.83833 0.80541 0.0
H1811 H 0.07053 0.77268 0.82956 0.0
H1812 H 0.17324 0.81211 0.81054 0.0
H1813 H 0.21619 0.82929 0.79072 0.0
H1814 H 0.2363 0.77224 0.76521 0.0
H1815 H 0.19365 0.75467 0.78502 0.0
C1816 C 0.19035 0.7195 0.87384 0.0
C1817 C 0.20554 0.7019 0.86632 0.0
C1818 C 0.17236 0.73403 0.86374 0.0
C1819 C 0.16915 0.73123 0.84594 0.0
C1820 C 0.18421 0.71371 0.8384 0.0
C1821 C 0.20202 0.69915 0.84848 0.0
C1822 C 0.15083 0.74677 0.83508 0.0
C1823 C 0.17115 0.75608 0.82189 0.0
C1824 C 0.11418 0.75294 0.83798 0.0
C1825 C 0.09092 0.74323 0.85135 0.0
C1826 C 0.08537 0.72192 0.85153 0.0
C1827 C 0.0636 0.71287 0.86423 0.0
C1828 C 0.04701 0.72498 0.87676 0.0
C1829 C 0.05208 0.74618 0.87659 0.0
C1830 C 0.07387 0.75531 0.86392 0.0
C1831 C 0.07767 0.80254 0.77509 0.0
C1832 C 0.06322 0.82063 0.78203 0.0
C1833 C 0.09658 0.78873 0.78553 0.0
C1834 C 0.10083 0.7926 0.80314 0.0
C1835 C 0.08625 0.81056 0.81012 0.0
C1836 C 0.06789 0.82452 0.79965 0.0
C1837 C 0.1192 0.77748 0.81437 0.0
C1838 C 0.09888 0.76827 0.82762 0.0
C1839 C 0.15596 0.77154 0.81167 0.0
C1840 C 0.17997 0.78214 0.79912 0.0
C1841 C 0.18652 0.80328 0.80058 0.0
C1842 C 0.21104 0.81305 0.78945 0.0
C1843 C 0.22897 0.80187 0.77671 0.0
C1844 C 0.22241 0.78088 0.77509 0.0
C1845 C 0.19817 0.77099 0.78631 0.0
H1846 H 0.24785 0.80948 0.76806 0.0
H1847 H 0.03016 0.71795 0.88659 0.0
loop_
_geom_bond_atom_site_label_1
_geom_bond_atom_site_label_2
_geom_bond_distance
_geom_bond_site_symmetry_2
_ccdc_geom_bond_type
C0 C1 1.386 . S
C0 C2 1.397 . S
C0 H24 0.931 . S
C1 C0 1.386 . S
C1 C5 1.397 . S
C2 C0 1.397 . S
C2 C3 1.384 . S
C2 H25 0.930 . S
C3 C2 1.384 . S
C3 C4 1.377 . S
C3 C6 1.481 . S
C4 C3 1.377 . S
C4 C5 1.389 . S
C4 H26 0.929 . S
C5 C1 1.397 . S
C5 C4 1.389 . S
C5 H27 0.931 . S
C6 C3 1.481 . S
C6 C7 1.387 . S
C6 C11 1.390 . S
C7 C6 1.387 . S
C7 C8 1.401 . S
C7 H28 0.930 . S
C8 C7 1.401 . S
C8 C9 1.376 . S
C8 C17 1.511 . S
C9 C8 1.376 . S
C9 C10 1.392 . S
C9 H30 0.931 . S
C10 C9 1.392 . S
C10 C11 1.361 . S
C10 C12 1.500 . S
C11 C6 1.390 . S
C11 C10 1.361 . S
C11 H29 0.931 . S
C12 C10 1.500 . S
C12 C13 1.371 . S
C12 C14 1.365 . S
C13 C12 1.371 . S
C13 C23 1.386 . S
C13 H31 0.931 . S
C14 C12 1.365 . S
C14 C15 1.409 . S
C14 H32 0.929 . S
C15 C14 1.409 . S
C15 C16 1.380 . S
C15 H33 0.930 . S
C16 C15 1.380 . S
C16 C23 1.357 . S
C17 C8 1.511 . S
C17 C18 1.341 . S
C17 C19 1.371 . S
C18 C17 1.341 . S
C18 C22 1.394 . S
C18 H34 0.930 . S
C19 C17 1.371 . S
C19 C20 1.392 . S
C19 H35 0.931 . S
C20 C19 1.392 . S
C20 C21 1.331 . S
C20 H38 0.932 . S
C21 C20 1.331 . S
C21 C22 1.336 . S
C22 C18 1.394 . S
C22 C21 1.336 . S
C22 H37 0.929 . S
C23 C13 1.386 . S
C23 C16 1.357 . S
C23 H36 0.928 . S
H24 C0 0.931 . S
H25 C2 0.930 . S
H26 C4 0.929 . S
H27 C5 0.931 . S
H28 C7 0.930 . S
H29 C11 0.931 . S
H30 C9 0.931 . S
H31 C13 0.931 . S
H32 C14 0.929 . S
H33 C15 0.930 . S
H34 C18 0.930 . S
H35 C19 0.931 . S
H36 C23 0.928 . S
H37 C22 0.929 . S
H38 C20 0.932 . S
C39 C40 1.386 . S
C39 C41 1.397 . S
C39 H63 0.931 . S
C40 C39 1.386 . S
C40 C44 1.397 . S
C41 C39 1.397 . S
C41 C42 1.384 . S
C41 H64 0.930 . S
C42 C41 1.384 . S
C42 C43 1.377 . S
C42 C45 1.481 . S
C43 C42 1.377 . S
C43 C44 1.389 . S
C43 H65 0.929 . S
C44 C40 1.397 . S
C44 C43 1.389 . S
C44 H66 0.931 . S
C45 C42 1.481 . S
C45 C46 1.387 . S
C45 C50 1.390 . S
C46 C45 1.387 . S
C46 C47 1.401 . S
C46 H67 0.930 . S
C47 C46 1.401 . S
C47 C48 1.376 . S
C47 C56 1.511 . S
C48 C47 1.376 . S
C48 C49 1.392 . S
C48 H69 0.931 . S
C49 C48 1.392 . S
C49 C50 1.361 . S
C49 C51 1.500 . S
C50 C45 1.390 . S
C50 C49 1.361 . S
C50 H68 0.931 . S
C51 C49 1.500 . S
C51 C52 1.371 . S
C51 C53 1.365 . S
C52 C51 1.371 . S
C52 C62 1.386 . S
C52 H70 0.931 . S
C53 C51 1.365 . S
C53 C54 1.409 . S
C53 H71 0.929 . S
C54 C53 1.409 . S
C54 C55 1.380 . S
C54 H72 0.930 . S
C55 C54 1.380 . S
C55 C62 1.357 . S
C56 C47 1.511 . S
C56 C57 1.341 . S
C56 C58 1.371 . S
C57 C56 1.341 . S
C57 C61 1.394 . S
C57 H73 0.930 . S
C58 C56 1.371 . S
C58 C59 1.392 . S
C58 H74 0.931 . S
C59 C58 1.392 . S
C59 C60 1.331 . S
C59 H77 0.932 . S
C60 C59 1.331 . S
C60 C61 1.336 . S
C61 C57 1.394 . S
C61 C60 1.336 . S
C61 H76 0.929 . S
C62 C52 1.386 . S
C62 C55 1.357 . S
C62 H75 0.928 . S
H63 C39 0.931 . S
H64 C41 0.930 . S
H65 C43 0.929 . S
H66 C44 0.931 . S
H67 C46 0.930 . S
H68 C50 0.931 . S
H69 C48 0.931 . S
H70 C52 0.931 . S
H71 C53 0.929 . S
H72 C54 0.930 . S
H73 C57 0.930 . S
H74 C58 0.931 . S
H75 C62 0.928 . S
H76 C61 0.929 . S
H77 C59 0.932 . S
C78 C79 1.386 . S
C78 C80 1.397 . S
C78 H102 0.931 . S
C79 C78 1.386 . S
C79 C83 1.397 . S
C80 C78 1.397 . S
C80 C81 1.384 . S
C80 H103 0.930 . S
C81 C80 1.384 . S
C81 C82 1.377 . S
C81 C84 1.481 . S
C82 C81 1.377 . S
C82 C83 1.389 . S
C82 H104 0.929 . S
C83 C79 1.397 . S
C83 C82 1.389 . S
C83 H105 0.931 . S
C84 C81 1.481 . S
C84 C85 1.387 . S
C84 C89 1.390 . S
C85 C84 1.387 . S
C85 C86 1.401 . S
C85 H106 0.930 . S
C86 C85 1.401 . S
C86 C87 1.376 . S
C86 C95 1.511 . S
C87 C86 1.376 . S
C87 C88 1.392 . S
C87 H108 0.931 . S
C88 C87 1.392 . S
C88 C89 1.361 . S
C88 C90 1.500 . S
C89 C84 1.390 . S
C89 C88 1.361 . S
C89 H107 0.931 . S
C90 C88 1.500 . S
C90 C91 1.371 . S
C90 C92 1.365 . S
C91 C90 1.371 . S
C91 C101 1.386 . S
C91 H109 0.931 . S
C92 C90 1.365 . S
C92 C93 1.409 . S
C92 H110 0.929 . S
C93 C92 1.409 . S
C93 C94 1.380 . S
C93 H111 0.930 . S
C94 C93 1.380 . S
C94 C101 1.357 . S
C95 C86 1.511 . S
C95 C96 1.341 . S
C95 C97 1.371 . S
C96 C95 1.341 . S
C96 C100 1.394 . S
C96 H112 0.930 . S
C97 C95 1.371 . S
C97 C98 1.392 . S
C97 H113 0.931 . S
C98 C97 1.392 . S
C98 C99 1.331 . S
C98 H116 0.932 . S
C99 C98 1.331 . S
C99 C100 1.336 . S
C100 C96 1.394 . S
C100 C99 1.336 . S
C100 H115 0.929 . S
C101 C91 1.386 . S
C101 C94 1.357 . S
C101 H114 0.928 . S
H102 C78 0.931 . S
H103 C80 0.930 . S
H104 C82 0.929 . S
H105 C83 0.931 . S
H106 C85 0.930 . S
H107 C89 0.931 . S
H108 C87 0.931 . S
H109 C91 0.931 . S
H110 C92 0.929 . S
H111 C93 0.930 . S
H112 C96 0.930 . S
H113 C97 0.931 . S
H114 C101 0.928 . S
H115 C100 0.929 . S
H116 C98 0.932 . S
C117 C118 1.386 . S
C117 C119 1.397 . S
C117 H141 0.931 . S
C118 C117 1.386 . S
C118 C122 1.397 . S
C119 C117 1.397 . S
C119 C120 1.384 . S
C119 H142 0.930 . S
C120 C119 1.384 . S
C120 C121 1.377 . S
C120 C123 1.481 . S
C121 C120 1.377 . S
C121 C122 1.389 . S
C121 H143 0.929 . S
C122 C118 1.397 . S
C122 C121 1.389 . S
C122 H144 0.931 . S
C123 C120 1.481 . S
C123 C124 1.387 . S
C123 C128 1.390 . S
C124 C123 1.387 . S
C124 C125 1.401 . S
C124 H145 0.930 . S
C125 C124 1.401 . S
C125 C126 1.376 . S
C125 C134 1.511 . S
C126 C125 1.376 . S
C126 C127 1.392 . S
C126 H147 0.931 . S
C127 C126 1.392 . S
C127 C128 1.361 . S
C127 C129 1.500 . S
C128 C123 1.390 . S
C128 C127 1.361 . S
C128 H146 0.931 . S
C129 C127 1.500 . S
C129 C130 1.371 . S
C129 C131 1.365 . S
C130 C129 1.371 . S
C130 C140 1.386 . S
C130 H148 0.931 . S
C131 C129 1.365 . S
C131 C132 1.409 . S
C131 H149 0.929 . S
C132 C131 1.409 . S
C132 C133 1.380 . S
C132 H150 0.930 . S
C133 C132 1.380 . S
C133 C140 1.357 . S
C134 C125 1.511 . S
C134 C135 1.341 . S
C134 C136 1.371 . S
C135 C134 1.341 . S
C135 C139 1.394 . S
C135 H151 0.930 . S
C136 C134 1.371 . S
C136 C137 1.392 . S
C136 H152 0.931 . S
C137 C136 1.392 . S
C137 C138 1.331 . S
C137 H155 0.932 . S
C138 C137 1.331 . S
C138 C139 1.336 . S
C139 C135 1.394 . S
C139 C138 1.336 . S
C139 H154 0.929 . S
C140 C130 1.386 . S
C140 C133 1.357 . S
C140 H153 0.928 . S
H141 C117 0.931 . S
H142 C119 0.930 . S
H143 C121 0.929 . S
H144 C122 0.931 . S
H145 C124 0.930 . S
H146 C128 0.931 . S
H147 C126 0.931 . S
H148 C130 0.931 . S
H149 C131 0.929 . S
H150 C132 0.930 . S
H151 C135 0.930 . S
H152 C136 0.931 . S
H153 C140 0.928 . S
H154 C139 0.929 . S
H155 C137 0.932 . S
C156 C157 1.386 . S
C156 C158 1.397 . S
C156 H180 0.931 . S
C157 C156 1.386 . S
C157 C161 1.397 . S
C158 C156 1.397 . S
C158 C159 1.384 . S
C158 H181 0.930 . S
C159 C158 1.384 . S
C159 C160 1.377 . S
C159 C162 1.481 . S
C160 C159 1.377 . S
C160 C161 1.389 . S
C160 H182 0.929 . S
C161 C157 1.397 . S
C161 C160 1.389 . S
C161 H183 0.931 . S
C162 C159 1.481 . S
C162 C163 1.387 . S
C162 C167 1.390 . S
C163 C162 1.387 . S
C163 C164 1.401 . S
C163 H184 0.930 . S
C164 C163 1.401 . S
C164 C165 1.376 . S
C164 C173 1.511 . S
C165 C164 1.376 . S
C165 C166 1.392 . S
C165 H186 0.931 . S
C166 C165 1.392 . S
C166 C167 1.361 . S
C166 C168 1.500 . S
C167 C162 1.390 . S
C167 C166 1.361 . S
C167 H185 0.931 . S
C168 C166 1.500 . S
C168 C169 1.371 . S
C168 C170 1.365 . S
C169 C168 1.371 . S
C169 C179 1.386 . S
C169 H187 0.931 . S
C170 C168 1.365 . S
C170 C171 1.409 . S
C170 H188 0.929 . S
C171 C170 1.409 . S
C171 C172 1.380 . S
C171 H189 0.930 . S
C172 C171 1.380 . S
C172 C179 1.357 . S
C173 C164 1.511 . S
C173 C174 1.341 . S
C173 C175 1.371 . S
C174 C173 1.341 . S
C174 C178 1.394 . S
C174 H190 0.930 . S
C175 C173 1.371 . S
C175 C176 1.392 . S
C175 H191 0.931 . S
C176 C175 1.392 . S
C176 C177 1.331 . S
C176 H194 0.932 . S
C177 C176 1.331 . S
C177 C178 1.336 . S
C178 C174 1.394 . S
C178 C177 1.336 . S
C178 H193 0.929 . S
C179 C169 1.386 . S
C179 C172 1.357 . S
C179 H192 0.928 . S
H180 C156 0.931 . S
H181 C158 0.930 . S
H182 C160 0.929 . S
H183 C161 0.931 . S
H184 C163 0.930 . S
H185 C167 0.931 . S
H186 C165 0.931 . S
H187 C169 0.931 . S
H188 C170 0.929 . S
H189 C171 0.930 . S
H190 C174 0.930 . S
H191 C175 0.931 . S
H192 C179 0.928 . S
H193 C178 0.929 . S
H194 C176 0.932 . S
C195 C196 1.386 . S
C195 C197 1.397 . S
C195 H219 0.931 . S
C196 C195 1.386 . S
C196 C200 1.397 . S
C197 C195 1.397 . S
C197 C198 1.384 . S
C197 H220 0.930 . S
C198 C197 1.384 . S
C198 C199 1.377 . S
C198 C201 1.481 . S
C199 C198 1.377 . S
C199 C200 1.389 . S
C199 H221 0.929 . S
C200 C196 1.397 . S
C200 C199 1.389 . S
C200 H222 0.931 . S
C201 C198 1.481 . S
C201 C202 1.387 . S
C201 C206 1.390 . S
C202 C201 1.387 . S
C202 C203 1.401 . S
C202 H223 0.930 . S
C203 C202 1.401 . S
C203 C204 1.376 . S
C203 C212 1.511 . S
C204 C203 1.376 . S
C204 C205 1.392 . S
C204 H225 0.931 . S
C205 C204 1.392 . S
C205 C206 1.361 . S
C205 C207 1.500 . S
C206 C201 1.390 . S
C206 C205 1.361 . S
C206 H224 0.931 . S
C207 C205 1.500 . S
C207 C208 1.371 . S
C207 C209 1.365 . S
C208 C207 1.371 . S
C208 C218 1.386 . S
C208 H226 0.931 . S
C209 C207 1.365 . S
C209 C210 1.409 . S
C209 H227 0.929 . S
C210 C209 1.409 . S
C210 C211 1.380 . S
C210 H228 0.930 . S
C211 C210 1.380 . S
C211 C218 1.357 . S
C212 C203 1.511 . S
C212 C213 1.341 . S
C212 C214 1.371 . S
C213 C212 1.341 . S
C213 C217 1.394 . S
C213 H229 0.930 . S
C214 C212 1.371 . S
C214 C215 1.392 . S
C214 H230 0.931 . S
C215 C214 1.392 . S
C215 C216 1.331 . S
C215 H233 0.932 . S
C216 C215 1.331 . S
C216 C217 1.336 . S
C217 C213 1.394 . S
C217 C216 1.336 . S
C217 H232 0.929 . S
C218 C208 1.386 . S
C218 C211 1.357 . S
C218 H231 0.928 . S
H219 C195 0.931 . S
H220 C197 0.930 . S
H221 C199 0.929 . S
H222 C200 0.931 . S
H223 C202 0.930 . S
H224 C206 0.931 . S
H225 C204 0.931 . S
H226 C208 0.931 . S
H227 C209 0.929 . S
H228 C210 0.930 . S
H229 C213 0.930 . S
H230 C214 0.931 . S
H231 C218 0.928 . S
H232 C217 0.929 . S
H233 C215 0.932 . S
C234 C235 1.386 . S
C234 C236 1.397 . S
C234 H258 0.931 . S
C235 C234 1.386 . S
C235 C239 1.397 . S
C236 C234 1.397 . S
C236 C237 1.384 . S
C236 H259 0.930 . S
C237 C236 1.384 . S
C237 C238 1.377 . S
C237 C240 1.481 . S
C238 C237 1.377 . S
C238 C239 1.389 . S
C238 H260 0.929 . S
C239 C235 1.397 . S
C239 C238 1.389 . S
C239 H261 0.931 . S
C240 C237 1.481 . S
C240 C241 1.387 . S
C240 C245 1.390 . S
C241 C240 1.387 . S
C241 C242 1.401 . S
C241 H262 0.930 . S
C242 C241 1.401 . S
C242 C243 1.376 . S
C242 C251 1.511 . S
C243 C242 1.376 . S
C243 C244 1.392 . S
C243 H264 0.931 . S
C244 C243 1.392 . S
C244 C245 1.361 . S
C244 C246 1.500 . S
C245 C240 1.390 . S
C245 C244 1.361 . S
C245 H263 0.931 . S
C246 C244 1.500 . S
C246 C247 1.371 . S
C246 C248 1.365 . S
C247 C246 1.371 . S
C247 C257 1.386 . S
C247 H265 0.931 . S
C248 C246 1.365 . S
C248 C249 1.409 . S
C248 H266 0.929 . S
C249 C248 1.409 . S
C249 C250 1.380 . S
C249 H267 0.930 . S
C250 C249 1.380 . S
C250 C257 1.357 . S
C251 C242 1.511 . S
C251 C252 1.341 . S
C251 C253 1.371 . S
C252 C251 1.341 . S
C252 C256 1.394 . S
C252 H268 0.930 . S
C253 C251 1.371 . S
C253 C254 1.392 . S
C253 H269 0.931 . S
C254 C253 1.392 . S
C254 C255 1.331 . S
C254 H272 0.932 . S
C255 C254 1.331 . S
C255 C256 1.336 . S
C256 C252 1.394 . S
C256 C255 1.336 . S
C256 H271 0.929 . S
C257 C247 1.386 . S
C257 C250 1.357 . S
C257 H270 0.928 . S
H258 C234 0.931 . S
H259 C236 0.930 . S
H260 C238 0.929 . S
H261 C239 0.931 . S
H262 C241 0.930 . S
H263 C245 0.931 . S
H264 C243 0.931 . S
H265 C247 0.931 . S
H266 C248 0.929 . S
H267 C249 0.930 . S
H268 C252 0.930 . S
H269 C253 0.931 . S
H270 C257 0.928 . S
H271 C256 0.929 . S
H272 C254 0.932 . S
C273 C274 1.386 . S
C273 C275 1.397 . S
C273 H297 0.931 . S
C274 C273 1.386 . S
C274 C278 1.397 . S
C275 C273 1.397 . S
C275 C276 1.384 . S
C275 H298 0.930 . S
C276 C275 1.384 . S
C276 C277 1.377 . S
C276 C279 1.481 . S
C277 C276 1.377 . S
C277 C278 1.389 . S
C277 H299 0.929 . S
C278 C274 1.397 . S
C278 C277 1.389 . S
C278 H300 0.931 . S
C279 C276 1.481 . S
C279 C280 1.387 . S
C279 C284 1.390 . S
C280 C279 1.387 . S
C280 C281 1.401 . S
C280 H301 0.930 . S
C281 C280 1.401 . S
C281 C282 1.376 . S
C281 C290 1.511 . S
C282 C281 1.376 . S
C282 C283 1.392 . S
C282 H303 0.931 . S
C283 C282 1.392 . S
C283 C284 1.361 . S
C283 C285 1.500 . S
C284 C279 1.390 . S
C284 C283 1.361 . S
C284 H302 0.931 . S
C285 C283 1.500 . S
C285 C286 1.371 . S
C285 C287 1.365 . S
C286 C285 1.371 . S
C286 C296 1.386 . S
C286 H304 0.931 . S
C287 C285 1.365 . S
C287 C288 1.409 . S
C287 H305 0.929 . S
C288 C287 1.409 . S
C288 C289 1.380 . S
C288 H306 0.930 . S
C289 C288 1.380 . S
C289 C296 1.357 . S
C290 C281 1.511 . S
C290 C291 1.341 . S
C290 C292 1.371 . S
C291 C290 1.341 . S
C291 C295 1.394 . S
C291 H307 0.930 . S
C292 C290 1.371 . S
C292 C293 1.392 . S
C292 H308 0.931 . S
C293 C292 1.392 . S
C293 C294 1.331 . S
C293 H311 0.932 . S
C294 C293 1.331 . S
C294 C295 1.336 . S
C295 C291 1.394 . S
C295 C294 1.336 . S
C295 H310 0.929 . S
C296 C286 1.386 . S
C296 C289 1.357 . S
C296 H309 0.928 . S
H297 C273 0.931 . S
H298 C275 0.930 . S
H299 C277 0.929 . S
H300 C278 0.931 . S
H301 C280 0.930 . S
H302 C284 0.931 . S
H303 C282 0.931 . S
H304 C286 0.931 . S
H305 C287 0.929 . S
H306 C288 0.930 . S
H307 C291 0.930 . S
H308 C292 0.931 . S
H309 C296 0.928 . S
H310 C295 0.929 . S
H311 C293 0.932 . S
C312 C314 1.422 . S
C312 C316 1.415 . S
C312 N318 1.369 . S
C313 C314 1.421 . S
C313 C315 1.417 . S
C313 C325 1.422 . S
C314 C312 1.422 . S
C314 C313 1.421 . S
C314 N324 1.359 . S
C315 C313 1.417 . S
C315 C317 1.329 . S
C315 H334 0.930 . S
C316 C312 1.415 . S
C316 C317 1.437 . S
C316 C320 1.413 . S
C317 C315 1.329 . S
C317 C316 1.437 . S
C317 H339 0.929 . S
N318 C312 1.369 . S
N318 C319 1.338 . S
N318 Gd323 2.622 . S
C319 N318 1.338 . S
C319 C321 1.378 . S
C319 H331 0.929 . S
C320 C316 1.413 . S
C320 C321 1.348 . S
C320 H336 0.931 . S
C321 C319 1.378 . S
C321 C320 1.348 . S
C321 H337 0.930 . S
Gd322 N342 2.622 . S
Gd322 N349 2.570 . S
Gd322 O356 2.353 . S
Gd322 O357 2.468 . S
Gd322 O358 2.427 . S
Gd322 O360 2.388 . S
Gd322 O361 2.386 . S
Gd322 O365 2.307 . S
Gd322 C375 2.805 . S
Gd323 N318 2.622 . S
Gd323 N324 2.570 . S
Gd323 O355 2.386 . S
Gd323 O359 2.307 1_655 S
Gd323 O362 2.353 1_655 S
Gd323 O363 2.468 . S
Gd323 O364 2.427 . S
Gd323 O366 2.388 . S
Gd323 C387 2.805 . S
N324 C314 1.359 . S
N324 Gd323 2.570 . S
N324 C326 1.343 . S
C325 C313 1.422 . S
C325 C327 1.321 . S
C325 H333 0.931 . S
C326 N324 1.343 . S
C326 C327 1.390 . S
C326 H328 0.931 . S
C327 C325 1.321 . S
C327 C326 1.390 . S
C327 H329 0.930 . S
H328 C326 0.931 . S
H329 C327 0.930 . S
H330 C353 0.931 . S
H331 C319 0.929 . S
H332 C354 0.930 . S
H333 C325 0.931 . S
H334 C315 0.930 . S
H335 C344 0.929 . S
H336 C320 0.931 . S
H337 C321 0.930 . S
H338 C376 0.930 . S
H339 C317 0.929 . S
H340 C345 0.931 . S
H341 C346 0.930 . S
N342 Gd322 2.622 . S
N342 C343 1.369 . S
N342 C344 1.338 . S
C343 N342 1.369 . S
C343 C347 1.415 . S
C343 C350 1.422 . S
C344 H335 0.929 . S
C344 N342 1.338 . S
C344 C346 1.378 . S
C345 H340 0.931 . S
C345 C346 1.348 . S
C345 C347 1.413 . S
C346 H341 0.930 . S
C346 C344 1.378 . S
C346 C345 1.348 . S
C347 C343 1.415 . S
C347 C345 1.413 . S
C347 C377 1.437 . S
H348 C377 0.929 . S
N349 Gd322 2.570 . S
N349 C350 1.359 . S
N349 C353 1.343 . S
C350 C343 1.422 . S
C350 N349 1.359 . S
C350 C352 1.421 . S
C351 C352 1.422 . S
C351 C354 1.321 . S
C351 H378 0.931 . S
C352 C350 1.421 . S
C352 C351 1.422 . S
C352 C376 1.417 . S
C353 H330 0.931 . S
C353 N349 1.343 . S
C353 C354 1.390 . S
C354 H332 0.930 . S
C354 C351 1.321 . S
C354 C353 1.390 . S
O355 Gd323 2.386 . S
O355 C367 1.265 . S
O356 Gd322 2.353 . S
O356 C367 1.242 1_455 S
O357 Gd322 2.468 . S
O357 C375 1.263 . S
O358 Gd322 2.427 . S
O358 C375 1.252 . S
O359 Gd323 2.307 1_455 S
O359 C368 1.261 . S
O360 Gd322 2.388 . S
O360 C368 1.252 . S
O361 Gd322 2.386 . S
O361 C379 1.265 . S
O362 Gd323 2.353 1_455 S
O362 C379 1.242 . S
O363 Gd323 2.468 . S
O363 C387 1.263 . S
O364 Gd323 2.427 . S
O364 C387 1.252 . S
O365 Gd322 2.307 . S
O365 C380 1.261 1_455 S
O366 Gd323 2.388 . S
O366 C380 1.252 . S
C367 O355 1.265 . S
C367 O356 1.242 1_655 S
C368 O359 1.261 . S
C368 O360 1.252 . S
C369 C372 1.394 . S
C369 C374 1.370 . S
C369 C375 1.500 . S
C370 C373 1.383 . S
C370 C374 1.395 . S
C371 C372 1.396 . S
C371 C373 1.365 . S
C371 H388 0.929 . S
C372 C369 1.394 . S
C372 C371 1.396 . S
C372 H389 0.930 . S
C373 C370 1.383 . S
C373 C371 1.365 . S
C373 H390 0.931 . S
C374 C369 1.370 . S
C374 C370 1.395 . S
C374 H391 0.930 . S
C375 Gd322 2.805 . S
C375 O357 1.263 . S
C375 O358 1.252 . S
C375 C369 1.500 . S
C376 H338 0.930 . S
C376 C352 1.417 . S
C376 C377 1.329 . S
C377 C347 1.437 . S
C377 H348 0.929 . S
C377 C376 1.329 . S
H378 C351 0.931 . S
C379 O361 1.265 . S
C379 O362 1.242 . S
C380 O365 1.261 1_655 S
C380 O366 1.252 . S
C381 C384 1.394 . S
C381 C386 1.370 . S
C381 C387 1.500 . S
C382 C385 1.383 . S
C382 C386 1.395 . S
C383 C384 1.396 . S
C383 C385 1.365 . S
C383 H392 0.929 . S
C384 C381 1.394 . S
C384 C383 1.396 . S
C384 H393 0.930 . S
C385 C382 1.383 . S
C385 C383 1.365 . S
C385 H394 0.931 . S
C386 C381 1.370 . S
C386 C382 1.395 . S
C386 H395 0.930 . S
C387 Gd323 2.805 . S
C387 O363 1.263 . S
C387 O364 1.252 . S
C387 C381 1.500 . S
H388 C371 0.929 . S
H389 C372 0.930 . S
H390 C373 0.931 . S
H391 C374 0.930 . S
H392 C383 0.929 . S
H393 C384 0.930 . S
H394 C385 0.931 . S
H395 C386 0.930 . S
C396 C398 1.422 . S
C396 C400 1.415 . S
C396 N402 1.369 . S
C397 C398 1.421 . S
C397 C399 1.417 . S
C397 C409 1.422 . S
C398 C396 1.422 . S
C398 C397 1.421 . S
C398 N408 1.359 . S
C399 C397 1.417 . S
C399 C401 1.329 . S
C399 H418 0.930 . S
C400 C396 1.415 . S
C400 C401 1.437 . S
C400 C404 1.413 . S
C401 C399 1.329 . S
C401 C400 1.437 . S
C401 H423 0.929 . S
N402 C396 1.369 . S
N402 C403 1.338 . S
N402 Gd407 2.622 . S
C403 N402 1.338 . S
C403 C405 1.378 . S
C403 H415 0.929 . S
C404 C400 1.413 . S
C404 C405 1.348 . S
C404 H420 0.931 . S
C405 C403 1.378 . S
C405 C404 1.348 . S
C405 H421 0.930 . S
Gd406 N426 2.622 . S
Gd406 N433 2.570 . S
Gd406 O440 2.353 . S
Gd406 O441 2.468 . S
Gd406 O442 2.427 . S
Gd406 O444 2.388 . S
Gd406 O445 2.386 . S
Gd406 O449 2.307 . S
Gd406 C459 2.805 . S
Gd407 N402 2.622 . S
Gd407 N408 2.570 . S
Gd407 O439 2.386 . S
Gd407 O443 2.307 . S
Gd407 O446 2.353 . S
Gd407 O447 2.468 . S
Gd407 O448 2.427 . S
Gd407 O450 2.388 . S
Gd407 C471 2.805 . S
N408 C398 1.359 . S
N408 Gd407 2.570 . S
N408 C410 1.343 . S
C409 C397 1.422 . S
C409 C411 1.321 . S
C409 H417 0.931 . S
C410 N408 1.343 . S
C410 C411 1.390 . S
C410 H412 0.931 . S
C411 C409 1.321 . S
C411 C410 1.390 . S
C411 H413 0.930 . S
H412 C410 0.931 . S
H413 C411 0.930 . S
H414 C437 0.931 . S
H415 C403 0.929 . S
H416 C438 0.930 . S
H417 C409 0.931 . S
H418 C399 0.930 . S
H419 C428 0.929 . S
H420 C404 0.931 . S
H421 C405 0.930 . S
H422 C460 0.930 . S
H423 C401 0.929 . S
H424 C429 0.931 . S
H425 C430 0.930 . S
N426 Gd406 2.622 . S
N426 C427 1.369 . S
N426 C428 1.338 . S
C427 N426 1.369 . S
C427 C431 1.415 . S
C427 C434 1.422 . S
C428 H419 0.929 . S
C428 N426 1.338 . S
C428 C430 1.378 . S
C429 H424 0.931 . S
C429 C430 1.348 . S
C429 C431 1.413 . S
C430 H425 0.930 . S
C430 C428 1.378 . S
C430 C429 1.348 . S
C431 C427 1.415 . S
C431 C429 1.413 . S
C431 C461 1.437 . S
H432 C461 0.929 . S
N433 Gd406 2.570 . S
N433 C434 1.359 . S
N433 C437 1.343 . S
C434 C427 1.422 . S
C434 N433 1.359 . S
C434 C436 1.421 . S
C435 C436 1.422 . S
C435 C438 1.321 . S
C435 H462 0.931 . S
C436 C434 1.421 . S
C436 C435 1.422 . S
C436 C460 1.417 . S
C437 H414 0.931 . S
C437 N433 1.343 . S
C437 C438 1.390 . S
C438 H416 0.930 . S
C438 C435 1.321 . S
C438 C437 1.390 . S
O439 Gd407 2.386 . S
O439 C451 1.265 . S
O440 Gd406 2.353 . S
O440 C451 1.242 . S
O441 Gd406 2.468 . S
O441 C459 1.263 . S
O442 Gd406 2.427 . S
O442 C459 1.252 . S
O443 Gd407 2.307 . S
O443 C452 1.261 . S
O444 Gd406 2.388 . S
O444 C452 1.252 . S
O445 Gd406 2.386 . S
O445 C463 1.265 . S
O446 Gd407 2.353 . S
O446 C463 1.242 . S
O447 Gd407 2.468 . S
O447 C471 1.263 . S
O448 Gd407 2.427 . S
O448 C471 1.252 . S
O449 Gd406 2.307 . S
O449 C464 1.261 . S
O450 Gd407 2.388 . S
O450 C464 1.252 . S
C451 O439 1.265 . S
C451 O440 1.242 . S
C452 O443 1.261 . S
C452 O444 1.252 . S
C453 C456 1.394 . S
C453 C458 1.370 . S
C453 C459 1.500 . S
C454 C457 1.383 . S
C454 C458 1.395 . S
C455 C456 1.396 . S
C455 C457 1.365 . S
C455 H472 0.929 . S
C456 C453 1.394 . S
C456 C455 1.396 . S
C456 H473 0.930 . S
C457 C454 1.383 . S
C457 C455 1.365 . S
C457 H474 0.931 . S
C458 C453 1.370 . S
C458 C454 1.395 . S
C458 H475 0.930 . S
C459 Gd406 2.805 . S
C459 O441 1.263 . S
C459 O442 1.252 . S
C459 C453 1.500 . S
C460 H422 0.930 . S
C460 C436 1.417 . S
C460 C461 1.329 . S
C461 C431 1.437 . S
C461 H432 0.929 . S
C461 C460 1.329 . S
H462 C435 0.931 . S
C463 O445 1.265 . S
C463 O446 1.242 . S
C464 O449 1.261 . S
C464 O450 1.252 . S
C465 C468 1.394 . S
C465 C470 1.370 . S
C465 C471 1.500 . S
C466 C469 1.383 . S
C466 C470 1.395 . S
C467 C468 1.396 . S
C467 C469 1.365 . S
C467 H476 0.929 . S
C468 C465 1.394 . S
C468 C467 1.396 . S
C468 H477 0.930 . S
C469 C466 1.383 . S
C469 C467 1.365 . S
C469 H478 0.931 . S
C470 C465 1.370 . S
C470 C466 1.395 . S
C470 H479 0.930 . S
C471 Gd407 2.805 . S
C471 O447 1.263 . S
C471 O448 1.252 . S
C471 C465 1.500 . S
H472 C455 0.929 . S
H473 C456 0.930 . S
H474 C457 0.931 . S
H475 C458 0.930 . S
H476 C467 0.929 . S
H477 C468 0.930 . S
H478 C469 0.931 . S
H479 C470 0.930 . S
C480 C482 1.422 . S
C480 C484 1.415 . S
C480 N486 1.369 . S
C481 C482 1.421 . S
C481 C483 1.417 . S
C481 C493 1.422 . S
C482 C480 1.422 . S
C482 C481 1.421 . S
C482 N492 1.359 . S
C483 C481 1.417 . S
C483 C485 1.329 . S
C483 H502 0.930 . S
C484 C480 1.415 . S
C484 C485 1.437 . S
C484 C488 1.413 . S
C485 C483 1.329 . S
C485 C484 1.437 . S
C485 H507 0.929 . S
N486 C480 1.369 . S
N486 C487 1.338 . S
N486 Gd491 2.622 . S
C487 N486 1.338 . S
C487 C489 1.378 . S
C487 H499 0.929 . S
C488 C484 1.413 . S
C488 C489 1.348 . S
C488 H504 0.931 . S
C489 C487 1.378 . S
C489 C488 1.348 . S
C489 H505 0.930 . S
Gd490 N510 2.622 . S
Gd490 N517 2.570 . S
Gd490 O524 2.353 . S
Gd490 O525 2.468 . S
Gd490 O526 2.427 . S
Gd490 O528 2.388 . S
Gd490 O529 2.386 . S
Gd490 O533 2.307 . S
Gd490 C543 2.805 . S
Gd491 N486 2.622 . S
Gd491 N492 2.570 . S
Gd491 O523 2.386 . S
Gd491 O527 2.307 1_655 S
Gd491 O530 2.353 1_655 S
Gd491 O531 2.468 . S
Gd491 O532 2.427 . S
Gd491 O534 2.388 . S
Gd491 C555 2.805 . S
N492 C482 1.359 . S
N492 Gd491 2.570 . S
N492 C494 1.343 . S
C493 C481 1.422 . S
C493 C495 1.321 . S
C493 H501 0.931 . S
C494 N492 1.343 . S
C494 C495 1.390 . S
C494 H496 0.931 . S
C495 C493 1.321 . S
C495 C494 1.390 . S
C495 H497 0.930 . S
H496 C494 0.931 . S
H497 C495 0.930 . S
H498 C521 0.931 . S
H499 C487 0.929 . S
H500 C522 0.930 . S
H501 C493 0.931 . S
H502 C483 0.930 . S
H503 C512 0.929 . S
H504 C488 0.931 . S
H505 C489 0.930 . S
H506 C544 0.930 . S
H507 C485 0.929 . S
H508 C513 0.931 . S
H509 C514 0.930 . S
N510 Gd490 2.622 . S
N510 C511 1.369 . S
N510 C512 1.338 . S
C511 N510 1.369 . S
C511 C515 1.415 . S
C511 C518 1.422 . S
C512 H503 0.929 . S
C512 N510 1.338 . S
C512 C514 1.378 . S
C513 H508 0.931 . S
C513 C514 1.348 . S
C513 C515 1.413 . S
C514 H509 0.930 . S
C514 C512 1.378 . S
C514 C513 1.348 . S
C515 C511 1.415 . S
C515 C513 1.413 . S
C515 C545 1.437 . S
H516 C545 0.929 . S
N517 Gd490 2.570 . S
N517 C518 1.359 . S
N517 C521 1.343 . S
C518 C511 1.422 . S
C518 N517 1.359 . S
C518 C520 1.421 . S
C519 C520 1.422 . S
C519 C522 1.321 . S
C519 H546 0.931 . S
C520 C518 1.421 . S
C520 C519 1.422 . S
C520 C544 1.417 . S
C521 H498 0.931 . S
C521 N517 1.343 . S
C521 C522 1.390 . S
C522 H500 0.930 . S
C522 C519 1.321 . S
C522 C521 1.390 . S
O523 Gd491 2.386 . S
O523 C535 1.265 . S
O524 Gd490 2.353 . S
O524 C535 1.242 1_455 S
O525 Gd490 2.468 . S
O525 C543 1.263 . S
O526 Gd490 2.427 . S
O526 C543 1.252 . S
O527 Gd491 2.307 1_455 S
O527 C536 1.261 . S
O528 Gd490 2.388 . S
O528 C536 1.252 . S
O529 Gd490 2.386 . S
O529 C547 1.265 . S
O530 Gd491 2.353 1_455 S
O530 C547 1.242 . S
O531 Gd491 2.468 . S
O531 C555 1.263 . S
O532 Gd491 2.427 . S
O532 C555 1.252 . S
O533 Gd490 2.307 . S
O533 C548 1.261 1_455 S
O534 Gd491 2.388 . S
O534 C548 1.252 . S
C535 O523 1.265 . S
C535 O524 1.242 1_655 S
C536 O527 1.261 . S
C536 O528 1.252 . S
C537 C540 1.394 . S
C537 C542 1.370 . S
C537 C543 1.500 . S
C538 C541 1.383 . S
C538 C542 1.395 . S
C539 C540 1.396 . S
C539 C541 1.365 . S
C539 H556 0.929 . S
C540 C537 1.394 . S
C540 C539 1.396 . S
C540 H557 0.930 . S
C541 C538 1.383 . S
C541 C539 1.365 . S
C541 H558 0.931 . S
C542 C537 1.370 . S
C542 C538 1.395 . S
C542 H559 0.930 . S
C543 Gd490 2.805 . S
C543 O525 1.263 . S
C543 O526 1.252 . S
C543 C537 1.500 . S
C544 H506 0.930 . S
C544 C520 1.417 . S
C544 C545 1.329 . S
C545 C515 1.437 . S
C545 H516 0.929 . S
C545 C544 1.329 . S
H546 C519 0.931 . S
C547 O529 1.265 . S
C547 O530 1.242 . S
C548 O533 1.261 1_655 S
C548 O534 1.252 . S
C549 C552 1.394 . S
C549 C554 1.370 . S
C549 C555 1.500 . S
C550 C553 1.383 . S
C550 C554 1.395 . S
C551 C552 1.396 . S
C551 C553 1.365 . S
C551 H560 0.929 . S
C552 C549 1.394 . S
C552 C551 1.396 . S
C552 H561 0.930 . S
C553 C550 1.383 . S
C553 C551 1.365 . S
C553 H562 0.931 . S
C554 C549 1.370 . S
C554 C550 1.395 . S
C554 H563 0.930 . S
C555 Gd491 2.805 . S
C555 O531 1.263 . S
C555 O532 1.252 . S
C555 C549 1.500 . S
H556 C539 0.929 . S
H557 C540 0.930 . S
H558 C541 0.931 . S
H559 C542 0.930 . S
H560 C551 0.929 . S
H561 C552 0.930 . S
H562 C553 0.931 . S
H563 C554 0.930 . S
C564 C566 1.422 . S
C564 C568 1.415 . S
C564 N570 1.369 . S
C565 C566 1.421 . S
C565 C567 1.417 . S
C565 C577 1.422 . S
C566 C564 1.422 . S
C566 C565 1.421 . S
C566 N576 1.359 . S
C567 C565 1.417 . S
C567 C569 1.329 . S
C567 H586 0.930 . S
C568 C564 1.415 . S
C568 C569 1.437 . S
C568 C572 1.413 . S
C569 C567 1.329 . S
C569 C568 1.437 . S
C569 H591 0.929 . S
N570 C564 1.369 . S
N570 C571 1.338 . S
N570 Gd575 2.622 . S
C571 N570 1.338 . S
C571 C573 1.378 . S
C571 H583 0.929 . S
C572 C568 1.413 . S
C572 C573 1.348 . S
C572 H588 0.931 . S
C573 C571 1.378 . S
C573 C572 1.348 . S
C573 H589 0.930 . S
Gd574 N594 2.622 . S
Gd574 N601 2.570 . S
Gd574 O608 2.353 . S
Gd574 O609 2.468 . S
Gd574 O610 2.427 . S
Gd574 O612 2.388 . S
Gd574 O613 2.386 . S
Gd574 O617 2.307 . S
Gd574 C627 2.805 . S
Gd575 N570 2.622 . S
Gd575 N576 2.570 . S
Gd575 O607 2.386 . S
Gd575 O611 2.307 . S
Gd575 O614 2.353 . S
Gd575 O615 2.468 . S
Gd575 O616 2.427 . S
Gd575 O618 2.388 . S
Gd575 C639 2.805 . S
N576 C566 1.359 . S
N576 Gd575 2.570 . S
N576 C578 1.343 . S
C577 C565 1.422 . S
C577 C579 1.321 . S
C577 H585 0.931 . S
C578 N576 1.343 . S
C578 C579 1.390 . S
C578 H580 0.931 . S
C579 C577 1.321 . S
C579 C578 1.390 . S
C579 H581 0.930 . S
H580 C578 0.931 . S
H581 C579 0.930 . S
H582 C605 0.931 . S
H583 C571 0.929 . S
H584 C606 0.930 . S
H585 C577 0.931 . S
H586 C567 0.930 . S
H587 C596 0.929 . S
H588 C572 0.931 . S
H589 C573 0.930 . S
H590 C628 0.930 . S
H591 C569 0.929 . S
H592 C597 0.931 . S
H593 C598 0.930 . S
N594 Gd574 2.622 . S
N594 C595 1.369 . S
N594 C596 1.338 . S
C595 N594 1.369 . S
C595 C599 1.415 . S
C595 C602 1.422 . S
C596 H587 0.929 . S
C596 N594 1.338 . S
C596 C598 1.378 . S
C597 H592 0.931 . S
C597 C598 1.348 . S
C597 C599 1.413 . S
C598 H593 0.930 . S
C598 C596 1.378 . S
C598 C597 1.348 . S
C599 C595 1.415 . S
C599 C597 1.413 . S
C599 C629 1.437 . S
H600 C629 0.929 . S
N601 Gd574 2.570 . S
N601 C602 1.359 . S
N601 C605 1.343 . S
C602 C595 1.422 . S
C602 N601 1.359 . S
C602 C604 1.421 . S
C603 C604 1.422 . S
C603 C606 1.321 . S
C603 H630 0.931 . S
C604 C602 1.421 . S
C604 C603 1.422 . S
C604 C628 1.417 . S
C605 H582 0.931 . S
C605 N601 1.343 . S
C605 C606 1.390 . S
C606 H584 0.930 . S
C606 C603 1.321 . S
C606 C605 1.390 . S
O607 Gd575 2.386 . S
O607 C619 1.265 . S
O608 Gd574 2.353 . S
O608 C619 1.242 . S
O609 Gd574 2.468 . S
O609 C627 1.263 . S
O610 Gd574 2.427 . S
O610 C627 1.252 . S
O611 Gd575 2.307 . S
O611 C620 1.261 . S
O612 Gd574 2.388 . S
O612 C620 1.252 . S
O613 Gd574 2.386 . S
O613 C631 1.265 . S
O614 Gd575 2.353 . S
O614 C631 1.242 . S
O615 Gd575 2.468 . S
O615 C639 1.263 . S
O616 Gd575 2.427 . S
O616 C639 1.252 . S
O617 Gd574 2.307 . S
O617 C632 1.261 . S
O618 Gd575 2.388 . S
O618 C632 1.252 . S
C619 O607 1.265 . S
C619 O608 1.242 . S
C620 O611 1.261 . S
C620 O612 1.252 . S
C621 C624 1.394 . S
C621 C626 1.370 . S
C621 C627 1.500 . S
C622 C625 1.383 . S
C622 C626 1.395 . S
C623 C624 1.396 . S
C623 C625 1.365 . S
C623 H640 0.929 . S
C624 C621 1.394 . S
C624 C623 1.396 . S
C624 H641 0.930 . S
C625 C622 1.383 . S
C625 C623 1.365 . S
C625 H642 0.931 . S
C626 C621 1.370 . S
C626 C622 1.395 . S
C626 H643 0.930 . S
C627 Gd574 2.805 . S
C627 O609 1.263 . S
C627 O610 1.252 . S
C627 C621 1.500 . S
C628 H590 0.930 . S
C628 C604 1.417 . S
C628 C629 1.329 . S
C629 C599 1.437 . S
C629 H600 0.929 . S
C629 C628 1.329 . S
H630 C603 0.931 . S
C631 O613 1.265 . S
C631 O614 1.242 . S
C632 O617 1.261 . S
C632 O618 1.252 . S
C633 C636 1.394 . S
C633 C638 1.370 . S
C633 C639 1.500 . S
C634 C637 1.383 . S
C634 C638 1.395 . S
C635 C636 1.396 . S
C635 C637 1.365 . S
C635 H644 0.929 . S
C636 C633 1.394 . S
C636 C635 1.396 . S
C636 H645 0.930 . S
C637 C634 1.383 . S
C637 C635 1.365 . S
C637 H646 0.931 . S
C638 C633 1.370 . S
C638 C634 1.395 . S
C638 H647 0.930 . S
C639 Gd575 2.805 . S
C639 O615 1.263 . S
C639 O616 1.252 . S
C639 C633 1.500 . S
H640 C623 0.929 . S
H641 C624 0.930 . S
H642 C625 0.931 . S
H643 C626 0.930 . S
H644 C635 0.929 . S
H645 C636 0.930 . S
H646 C637 0.931 . S
H647 C638 0.930 . S
H648 C666 0.951 . S
H649 C668 0.951 1_545 S
H650 C670 0.950 . S
H651 C671 0.950 . S
H652 C673 0.950 1_565 S
H653 C676 0.950 . S
H654 C677 0.950 . S
H655 C679 0.950 . S
H656 C680 0.950 . S
H657 C681 0.951 . S
H658 C683 0.951 . S
H659 C685 0.950 . S
H660 C686 0.950 . S
H661 C688 0.950 . S
H662 C691 0.950 . S
H663 C692 0.950 . S
H664 C694 0.950 1_655 S
H665 C695 0.958 . S
C666 H648 0.951 . S
C666 C667 1.366 . S
C666 C668 1.388 . S
C667 C666 1.366 . S
C667 C671 1.385 . S
C668 H649 0.951 1_565 S
C668 C666 1.388 . S
C668 C669 1.365 . S
C669 C668 1.365 . S
C669 C670 1.411 . S
C669 C672 1.501 1_565 S
C670 H650 0.950 . S
C670 C669 1.411 . S
C670 C671 1.374 . S
C671 H651 0.950 . S
C671 C667 1.385 . S
C671 C670 1.374 . S
C672 C669 1.501 1_545 S
C672 C673 1.373 . S
C672 C674 1.389 . S
C673 H652 0.950 1_545 S
C673 C672 1.373 . S
C673 C689 1.377 . S
C674 C672 1.389 . S
C674 C675 1.524 . S
C674 C688 1.377 . S
C675 C674 1.524 . S
C675 C676 1.397 . S
C675 C680 1.363 . S
C676 H653 0.950 . S
C676 C675 1.397 . S
C676 C677 1.334 . S
C677 H654 0.950 . S
C677 C676 1.334 . S
C677 C678 1.287 . S
C678 C677 1.287 . S
C678 C679 1.524 . S
C678 H697 0.913 . S
C679 H655 0.950 . S
C679 C678 1.524 . S
C679 C680 1.415 . S
C680 H656 0.950 . S
C680 C675 1.363 . S
C680 C679 1.415 . S
C681 H657 0.951 . S
C681 C682 1.366 . S
C681 C683 1.388 . S
C682 C681 1.366 . S
C682 C686 1.385 . S
C683 H658 0.951 . S
C683 C681 1.388 . S
C683 C684 1.366 . S
C684 C683 1.366 . S
C684 C685 1.414 . S
C684 C687 1.499 . S
C685 H659 0.950 . S
C685 C684 1.414 . S
C685 C686 1.374 . S
C686 H660 0.950 . S
C686 C682 1.385 . S
C686 C685 1.374 . S
C687 C684 1.499 . S
C687 C688 1.373 . S
C687 C689 1.389 . S
C688 H661 0.950 . S
C688 C674 1.377 . S
C688 C687 1.373 . S
C689 C673 1.377 . S
C689 C687 1.389 . S
C689 C690 1.524 . S
C690 C689 1.524 . S
C690 C691 1.397 . S
C690 C695 1.363 . S
C691 H662 0.950 . S
C691 C690 1.397 . S
C691 C692 1.334 . S
C692 H663 0.950 . S
C692 C691 1.334 . S
C692 C693 1.287 . S
C693 C692 1.287 . S
C693 C694 1.524 1_545 S
C693 H696 0.999 1_545 S
C694 H664 0.950 1_455 S
C694 C693 1.524 1_565 S
C694 C695 1.415 1_565 S
C695 H665 0.958 . S
C695 C690 1.363 . S
C695 C694 1.415 1_545 S
H696 C693 0.999 1_565 S
H697 C678 0.913 . S
H698 C716 0.951 . S
H699 C718 0.951 . S
H700 C720 0.950 . S
H701 C721 0.950 . S
H702 C723 0.950 . S
H703 C726 0.950 . S
H704 C727 0.950 . S
H705 C729 0.950 . S
H706 C730 0.950 . S
H707 C731 0.951 . S
H708 C733 0.951 . S
H709 C735 0.950 . S
H710 C736 0.950 . S
H711 C738 0.950 . S
H712 C741 0.950 . S
H713 C742 0.950 . S
H714 C744 0.950 . S
H715 C745 0.950 . S
C716 H698 0.951 . S
C716 C717 1.366 . S
C716 C718 1.388 . S
C717 C716 1.366 . S
C717 C721 1.385 . S
C718 H699 0.951 . S
C718 C716 1.388 . S
C718 C719 1.366 . S
C719 C718 1.366 . S
C719 C720 1.414 . S
C719 C722 1.499 . S
C720 H700 0.950 . S
C720 C719 1.414 . S
C720 C721 1.374 . S
C721 H701 0.950 . S
C721 C717 1.385 . S
C721 C720 1.374 . S
C722 C719 1.499 . S
C722 C723 1.373 . S
C722 C724 1.389 . S
C723 H702 0.950 . S
C723 C722 1.373 . S
C723 C739 1.377 . S
C724 C722 1.389 . S
C724 C725 1.524 . S
C724 C738 1.377 . S
C725 C724 1.524 . S
C725 C726 1.397 . S
C725 C730 1.363 . S
C726 H703 0.950 . S
C726 C725 1.397 . S
C726 C727 1.334 . S
C727 H704 0.950 . S
C727 C726 1.334 . S
C727 C728 1.287 . S
C728 C727 1.287 . S
C728 C729 1.524 . S
C728 H747 0.913 . S
C729 H705 0.950 . S
C729 C728 1.524 . S
C729 C730 1.415 . S
C730 H706 0.950 . S
C730 C725 1.363 . S
C730 C729 1.415 . S
C731 H707 0.951 . S
C731 C732 1.366 . S
C731 C733 1.388 . S
C732 C731 1.366 . S
C732 C736 1.385 . S
C733 H708 0.951 . S
C733 C731 1.388 . S
C733 C734 1.366 . S
C734 C733 1.366 . S
C734 C735 1.414 . S
C734 C737 1.499 . S
C735 H709 0.950 . S
C735 C734 1.414 . S
C735 C736 1.374 . S
C736 H710 0.950 . S
C736 C732 1.385 . S
C736 C735 1.374 . S
C737 C734 1.499 . S
C737 C738 1.373 . S
C737 C739 1.389 . S
C738 H711 0.950 . S
C738 C724 1.377 . S
C738 C737 1.373 . S
C739 C723 1.377 . S
C739 C737 1.389 . S
C739 C740 1.524 . S
C740 C739 1.524 . S
C740 C741 1.397 . S
C740 C745 1.363 . S
C741 H712 0.950 . S
C741 C740 1.397 . S
C741 C742 1.334 . S
C742 H713 0.950 . S
C742 C741 1.334 . S
C742 C743 1.287 . S
C743 C742 1.287 . S
C743 C744 1.524 . S
C743 H746 0.999 . S
C744 H714 0.950 . S
C744 C743 1.524 . S
C744 C745 1.415 . S
C745 H715 0.950 . S
C745 C740 1.363 . S
C745 C744 1.415 . S
H746 C743 0.999 . S
H747 C728 0.913 . S
H748 C766 0.951 . S
H749 C768 0.951 . S
H750 C770 0.950 . S
H751 C771 0.950 . S
H752 C773 0.950 . S
H753 C776 0.950 . S
H754 C777 0.950 . S
H755 C779 0.950 . S
H756 C780 0.950 . S
H757 C781 0.951 . S
H758 C783 0.951 . S
H759 C785 0.950 . S
H760 C786 0.950 . S
H761 C788 0.950 . S
H762 C791 0.950 . S
H763 C792 0.950 . S
H764 C794 0.950 . S
H765 C795 0.950 . S
C766 H748 0.951 . S
C766 C767 1.366 . S
C766 C768 1.388 . S
C767 C766 1.366 . S
C767 C771 1.385 . S
C768 H749 0.951 . S
C768 C766 1.388 . S
C768 C769 1.366 . S
C769 C768 1.366 . S
C769 C770 1.414 . S
C769 C772 1.499 . S
C770 H750 0.950 . S
C770 C769 1.414 . S
C770 C771 1.374 . S
C771 H751 0.950 . S
C771 C767 1.385 . S
C771 C770 1.374 . S
C772 C769 1.499 . S
C772 C773 1.373 . S
C772 C774 1.389 . S
C773 H752 0.950 . S
C773 C772 1.373 . S
C773 C789 1.377 . S
C774 C772 1.389 . S
C774 C775 1.524 . S
C774 C788 1.377 . S
C775 C774 1.524 . S
C775 C776 1.397 . S
C775 C780 1.363 . S
C776 H753 0.950 . S
C776 C775 1.397 . S
C776 C777 1.334 . S
C777 H754 0.950 . S
C777 C776 1.334 . S
C777 C778 1.287 . S
C778 C777 1.287 . S
C778 C779 1.524 . S
C778 H797 0.913 . S
C779 H755 0.950 . S
C779 C778 1.524 . S
C779 C780 1.415 . S
C780 H756 0.950 . S
C780 C775 1.363 . S
C780 C779 1.415 . S
C781 H757 0.951 . S
C781 C782 1.366 . S
C781 C783 1.388 . S
C782 C781 1.366 . S
C782 C786 1.385 . S
C783 H758 0.951 . S
C783 C781 1.388 . S
C783 C784 1.366 . S
C784 C783 1.366 . S
C784 C785 1.414 . S
C784 C787 1.499 . S
C785 H759 0.950 . S
C785 C784 1.414 . S
C785 C786 1.374 . S
C786 H760 0.950 . S
C786 C782 1.385 . S
C786 C785 1.374 . S
C787 C784 1.499 . S
C787 C788 1.373 . S
C787 C789 1.389 . S
C788 H761 0.950 . S
C788 C774 1.377 . S
C788 C787 1.373 . S
C789 C773 1.377 . S
C789 C787 1.389 . S
C789 C790 1.524 . S
C790 C789 1.524 . S
C790 C791 1.397 . S
C790 C795 1.363 . S
C791 H762 0.950 . S
C791 C790 1.397 . S
C791 C792 1.334 . S
C792 H763 0.950 . S
C792 C791 1.334 . S
C792 C793 1.287 . S
C793 C792 1.287 . S
C793 C794 1.524 . S
C793 H796 0.999 . S
C794 H764 0.950 . S
C794 C793 1.524 . S
C794 C795 1.415 . S
C795 H765 0.950 . S
C795 C790 1.363 . S
C795 C794 1.415 . S
H796 C793 0.999 . S
H797 C778 0.913 . S
H798 C816 0.951 . S
H799 C818 0.951 1_545 S
H800 C820 0.950 . S
H801 C821 0.950 . S
H802 C823 0.950 . S
H803 C826 0.950 . S
H804 C827 0.950 . S
H805 C829 0.950 . S
H806 C830 0.950 . S
H807 C831 0.951 1_455 S
H808 C833 0.951 . S
H809 C835 0.950 . S
H810 C836 0.950 . S
H811 C838 0.950 . S
H812 C841 0.950 . S
H813 C842 0.950 . S
H814 C844 0.950 . S
H815 C845 0.950 . S
C816 H798 0.951 . S
C816 C817 1.366 . S
C816 C818 1.388 . S
C817 C816 1.366 . S
C817 C821 1.385 . S
C818 H799 0.951 1_565 S
C818 C816 1.388 . S
C818 C819 1.366 1_565 S
C819 C818 1.366 1_545 S
C819 C820 1.414 1_545 S
C819 C822 1.499 . S
C820 H800 0.950 . S
C820 C819 1.414 1_565 S
C820 C821 1.374 . S
C821 H801 0.950 . S
C821 C817 1.385 . S
C821 C820 1.374 . S
C822 C819 1.499 . S
C822 C823 1.373 . S
C822 C824 1.389 . S
C823 H802 0.950 . S
C823 C822 1.373 . S
C823 C839 1.377 . S
C824 C822 1.389 . S
C824 C825 1.524 . S
C824 C838 1.377 . S
C825 C824 1.524 . S
C825 C826 1.397 . S
C825 C830 1.363 . S
C826 H803 0.950 . S
C826 C825 1.397 . S
C826 C827 1.334 . S
C827 H804 0.950 . S
C827 C826 1.334 . S
C827 C828 1.287 . S
C828 C827 1.287 . S
C828 C829 1.524 . S
C828 H847 0.913 . S
C829 H805 0.950 . S
C829 C828 1.524 . S
C829 C830 1.415 . S
C830 H806 0.950 . S
C830 C825 1.363 . S
C830 C829 1.415 . S
C831 H807 0.951 1_655 S
C831 C832 1.366 . S
C831 C833 1.388 . S
C832 C831 1.366 . S
C832 C836 1.385 . S
C833 H808 0.951 . S
C833 C831 1.388 . S
C833 C834 1.366 . S
C834 C833 1.366 . S
C834 C835 1.414 . S
C834 C837 1.499 . S
C835 H809 0.950 . S
C835 C834 1.414 . S
C835 C836 1.374 . S
C836 H810 0.950 . S
C836 C832 1.385 . S
C836 C835 1.374 . S
C837 C834 1.499 . S
C837 C838 1.373 . S
C837 C839 1.389 . S
C838 H811 0.950 . S
C838 C824 1.377 . S
C838 C837 1.373 . S
C839 C823 1.377 . S
C839 C837 1.389 . S
C839 C840 1.524 . S
C840 C839 1.524 . S
C840 C841 1.397 . S
C840 C845 1.363 . S
C841 H812 0.950 . S
C841 C840 1.397 . S
C841 C842 1.334 . S
C842 H813 0.950 . S
C842 C841 1.334 . S
C842 C843 1.287 1_655 S
C843 C842 1.287 1_455 S
C843 C844 1.524 . S
C843 H846 0.999 . S
C844 H814 0.950 . S
C844 C843 1.524 . S
C844 C845 1.415 1_455 S
C845 H815 0.950 . S
C845 C840 1.363 . S
C845 C844 1.415 1_655 S
H846 C843 0.999 . S
H847 C828 0.913 . S
H848 C866 0.951 . S
H849 C868 0.951 1_565 S
H850 C870 0.950 . S
H851 C871 0.950 . S
H852 C873 0.950 1_545 S
H853 C876 0.950 . S
H854 C877 0.950 . S
H855 C879 0.950 . S
H856 C880 0.950 . S
H857 C881 0.951 . S
H858 C883 0.951 . S
H859 C885 0.950 . S
H860 C886 0.950 . S
H861 C888 0.950 . S
H862 C891 0.950 . S
H863 C892 0.950 1_455 S
H864 C894 0.950 . S
H865 C895 0.963 . S
C866 H848 0.951 . S
C866 C867 1.366 . S
C866 C868 1.388 . S
C867 C866 1.366 . S
C867 C871 1.385 . S
C868 H849 0.951 1_545 S
C868 C866 1.388 . S
C868 C869 1.366 . S
C869 C868 1.366 . S
C869 C870 1.413 . S
C869 C872 1.499 1_545 S
C870 H850 0.950 . S
C870 C869 1.413 . S
C870 C871 1.374 . S
C871 H851 0.950 . S
C871 C867 1.385 . S
C871 C870 1.374 . S
C872 C869 1.499 1_565 S
C872 C873 1.373 . S
C872 C874 1.389 . S
C873 H852 0.950 1_565 S
C873 C872 1.373 . S
C873 C889 1.377 . S
C874 C872 1.389 . S
C874 C875 1.524 . S
C874 C888 1.377 . S
C875 C874 1.524 . S
C875 C876 1.397 . S
C875 C880 1.363 . S
C876 H853 0.950 . S
C876 C875 1.397 . S
C876 C877 1.334 . S
C877 H854 0.950 . S
C877 C876 1.334 . S
C877 C878 1.287 . S
C878 C877 1.287 . S
C878 C879 1.524 . S
C878 H897 0.913 . S
C879 H855 0.950 . S
C879 C878 1.524 . S
C879 C880 1.415 . S
C880 H856 0.950 . S
C880 C875 1.363 . S
C880 C879 1.415 . S
C881 H857 0.951 . S
C881 C882 1.366 . S
C881 C883 1.388 . S
C882 C881 1.366 . S
C882 C886 1.385 . S
C883 H858 0.951 . S
C883 C881 1.388 . S
C883 C884 1.366 . S
C884 C883 1.366 . S
C884 C885 1.414 . S
C884 C887 1.499 . S
C885 H859 0.950 . S
C885 C884 1.414 . S
C885 C886 1.374 . S
C886 H860 0.950 . S
C886 C882 1.385 . S
C886 C885 1.374 . S
C887 C884 1.499 . S
C887 C888 1.373 . S
C887 C889 1.389 . S
C888 H861 0.950 . S
C888 C874 1.377 . S
C888 C887 1.373 . S
C889 C873 1.377 . S
C889 C887 1.389 . S
C889 C890 1.524 . S
C890 C889 1.524 . S
C890 C891 1.397 . S
C890 C895 1.363 . S
C891 H862 0.950 . S
C891 C890 1.397 . S
C891 C892 1.334 . S
C892 H863 0.950 1_655 S
C892 C891 1.334 . S
C892 C893 1.287 . S
C893 C892 1.287 . S
C893 C894 1.524 1_565 S
C893 H896 0.999 1_565 S
C894 H864 0.950 . S
C894 C893 1.524 1_545 S
C894 C895 1.415 1_545 S
C895 H865 0.963 . S
C895 C890 1.363 . S
C895 C894 1.415 1_565 S
H896 C893 0.999 1_545 S
H897 C878 0.913 . S
H898 C916 0.951 . S
H899 C918 0.951 . S
H900 C920 0.950 . S
H901 C921 0.950 . S
H902 C923 0.950 . S
H903 C926 0.950 . S
H904 C927 0.950 . S
H905 C929 0.950 . S
H906 C930 0.950 . S
H907 C931 0.951 . S
H908 C933 0.951 . S
H909 C935 0.950 . S
H910 C936 0.950 . S
H911 C938 0.950 . S
H912 C941 0.950 . S
H913 C942 0.950 . S
H914 C944 0.950 . S
H915 C945 0.950 . S
C916 H898 0.951 . S
C916 C917 1.366 . S
C916 C918 1.388 . S
C917 C916 1.366 . S
C917 C921 1.385 . S
C918 H899 0.951 . S
C918 C916 1.388 . S
C918 C919 1.366 . S
C919 C918 1.366 . S
C919 C920 1.414 . S
C919 C922 1.499 . S
C920 H900 0.950 . S
C920 C919 1.414 . S
C920 C921 1.374 . S
C921 H901 0.950 . S
C921 C917 1.385 . S
C921 C920 1.374 . S
C922 C919 1.499 . S
C922 C923 1.373 . S
C922 C924 1.389 . S
C923 H902 0.950 . S
C923 C922 1.373 . S
C923 C939 1.377 . S
C924 C922 1.389 . S
C924 C925 1.524 . S
C924 C938 1.377 . S
C925 C924 1.524 . S
C925 C926 1.397 . S
C925 C930 1.363 . S
C926 H903 0.950 . S
C926 C925 1.397 . S
C926 C927 1.334 . S
C927 H904 0.950 . S
C927 C926 1.334 . S
C927 C928 1.287 . S
C928 C927 1.287 . S
C928 C929 1.524 . S
C928 H947 0.913 . S
C929 H905 0.950 . S
C929 C928 1.524 . S
C929 C930 1.415 . S
C930 H906 0.950 . S
C930 C925 1.363 . S
C930 C929 1.415 . S
C931 H907 0.951 . S
C931 C932 1.366 . S
C931 C933 1.388 . S
C932 C931 1.366 . S
C932 C936 1.385 . S
C933 H908 0.951 . S
C933 C931 1.388 . S
C933 C934 1.366 . S
C934 C933 1.366 . S
C934 C935 1.414 . S
C934 C937 1.499 . S
C935 H909 0.950 . S
C935 C934 1.414 . S
C935 C936 1.374 . S
C936 H910 0.950 . S
C936 C932 1.385 . S
C936 C935 1.374 . S
C937 C934 1.499 . S
C937 C938 1.373 . S
C937 C939 1.389 . S
C938 H911 0.950 . S
C938 C924 1.377 . S
C938 C937 1.373 . S
C939 C923 1.377 . S
C939 C937 1.389 . S
C939 C940 1.524 . S
C940 C939 1.524 . S
C940 C941 1.397 . S
C940 C945 1.363 . S
C941 H912 0.950 . S
C941 C940 1.397 . S
C941 C942 1.334 . S
C942 H913 0.950 . S
C942 C941 1.334 . S
C942 C943 1.287 . S
C943 C942 1.287 . S
C943 C944 1.524 . S
C943 H946 0.999 . S
C944 H914 0.950 . S
C944 C943 1.524 . S
C944 C945 1.415 . S
C945 H915 0.950 . S
C945 C940 1.363 . S
C945 C944 1.415 . S
H946 C943 0.999 . S
H947 C928 0.913 . S
H948 C966 0.951 . S
H949 C968 0.951 . S
H950 C970 0.950 . S
H951 C971 0.950 . S
H952 C973 0.950 . S
H953 C976 0.950 . S
H954 C977 0.950 . S
H955 C979 0.950 . S
H956 C980 0.950 . S
H957 C981 0.951 . S
H958 C983 0.951 . S
H959 C985 0.950 . S
H960 C986 0.950 . S
H961 C988 0.950 . S
H962 C991 0.950 . S
H963 C992 0.950 . S
H964 C994 0.950 . S
H965 C995 0.950 . S
C966 H948 0.951 . S
C966 C967 1.366 . S
C966 C968 1.388 . S
C967 C966 1.366 . S
C967 C971 1.385 . S
C968 H949 0.951 . S
C968 C966 1.388 . S
C968 C969 1.366 . S
C969 C968 1.366 . S
C969 C970 1.414 . S
C969 C972 1.499 . S
C970 H950 0.950 . S
C970 C969 1.414 . S
C970 C971 1.374 . S
C971 H951 0.950 . S
C971 C967 1.385 . S
C971 C970 1.374 . S
C972 C969 1.499 . S
C972 C973 1.373 . S
C972 C974 1.389 . S
C973 H952 0.950 . S
C973 C972 1.373 . S
C973 C989 1.377 . S
C974 C972 1.389 . S
C974 C975 1.524 . S
C974 C988 1.377 . S
C975 C974 1.524 . S
C975 C976 1.397 . S
C975 C980 1.363 . S
C976 H953 0.950 . S
C976 C975 1.397 . S
C976 C977 1.334 . S
C977 H954 0.950 . S
C977 C976 1.334 . S
C977 C978 1.287 . S
C978 C977 1.287 . S
C978 C979 1.524 . S
C978 H997 0.913 . S
C979 H955 0.950 . S
C979 C978 1.524 . S
C979 C980 1.415 . S
C980 H956 0.950 . S
C980 C975 1.363 . S
C980 C979 1.415 . S
C981 H957 0.951 . S
C981 C982 1.366 . S
C981 C983 1.388 . S
C982 C981 1.366 . S
C982 C986 1.385 . S
C983 H958 0.951 . S
C983 C981 1.388 . S
C983 C984 1.366 . S
C984 C983 1.366 . S
C984 C985 1.414 . S
C984 C987 1.499 . S
C985 H959 0.950 . S
C985 C984 1.414 . S
C985 C986 1.374 . S
C986 H960 0.950 . S
C986 C982 1.385 . S
C986 C985 1.374 . S
C987 C984 1.499 . S
C987 C988 1.373 . S
C987 C989 1.389 . S
C988 H961 0.950 . S
C988 C974 1.377 . S
C988 C987 1.373 . S
C989 C973 1.377 . S
C989 C987 1.389 . S
C989 C990 1.524 . S
C990 C989 1.524 . S
C990 C991 1.397 . S
C990 C995 1.363 . S
C991 H962 0.950 . S
C991 C990 1.397 . S
C991 C992 1.334 . S
C992 H963 0.950 . S
C992 C991 1.334 . S
C992 C993 1.287 . S
C993 C992 1.287 . S
C993 C994 1.524 . S
C993 H996 0.999 . S
C994 H964 0.950 . S
C994 C993 1.524 . S
C994 C995 1.415 . S
C995 H965 0.950 . S
C995 C990 1.363 . S
C995 C994 1.415 . S
H996 C993 0.999 . S
H997 C978 0.913 . S
H998 C1016 0.951 . S
H999 C1018 0.951 . S
H1000 C1020 0.947 1_565 S
H1001 C1021 0.950 . S
H1002 C1023 0.950 . S
H1003 C1026 0.950 . S
H1004 C1027 0.950 . S
H1005 C1029 0.950 . S
H1006 C1030 0.950 . S
H1007 C1031 0.951 . S
H1008 C1033 0.951 . S
H1009 C1035 0.950 . S
H1010 C1036 0.950 . S
H1011 C1038 0.950 . S
H1012 C1041 0.950 . S
H1013 C1042 0.950 . S
H1014 C1044 0.950 . S
H1015 C1045 0.950 . S
C1016 H998 0.951 . S
C1016 C1017 1.366 . S
C1016 C1018 1.388 . S
C1017 C1016 1.366 . S
C1017 C1021 1.385 . S
C1018 H999 0.951 . S
C1018 C1016 1.388 . S
C1018 C1019 1.366 1_545 S
C1019 C1018 1.366 1_565 S
C1019 C1020 1.413 1_565 S
C1019 C1022 1.499 . S
C1020 H1000 0.947 1_545 S
C1020 C1019 1.413 1_545 S
C1020 C1021 1.378 . S
C1021 H1001 0.950 . S
C1021 C1017 1.385 . S
C1021 C1020 1.378 . S
C1022 C1019 1.499 . S
C1022 C1023 1.373 . S
C1022 C1024 1.389 . S
C1023 H1002 0.950 . S
C1023 C1022 1.373 . S
C1023 C1039 1.377 . S
C1024 C1022 1.389 . S
C1024 C1025 1.524 . S
C1024 C1038 1.377 . S
C1025 C1024 1.524 . S
C1025 C1026 1.397 . S
C1025 C1030 1.363 . S
C1026 H1003 0.950 . S
C1026 C1025 1.397 . S
C1026 C1027 1.334 . S
C1027 H1004 0.950 . S
C1027 C1026 1.334 . S
C1027 C1028 1.287 . S
C1028 C1027 1.287 . S
C1028 C1029 1.524 . S
C1028 H1047 0.913 . S
C1029 H1005 0.950 . S
C1029 C1028 1.524 . S
C1029 C1030 1.415 . S
C1030 H1006 0.950 . S
C1030 C1025 1.363 . S
C1030 C1029 1.415 . S
C1031 H1007 0.951 . S
C1031 C1032 1.366 . S
C1031 C1033 1.388 . S
C1032 C1031 1.366 . S
C1032 C1036 1.385 . S
C1033 H1008 0.951 . S
C1033 C1031 1.388 . S
C1033 C1034 1.366 . S
C1034 C1033 1.366 . S
C1034 C1035 1.414 . S
C1034 C1037 1.499 . S
C1035 H1009 0.950 . S
C1035 C1034 1.414 . S
C1035 C1036 1.374 . S
C1036 H1010 0.950 . S
C1036 C1032 1.385 . S
C1036 C1035 1.374 . S
C1037 C1034 1.499 . S
C1037 C1038 1.373 . S
C1037 C1039 1.389 . S
C1038 H1011 0.950 . S
C1038 C1024 1.377 . S
C1038 C1037 1.373 . S
C1039 C1023 1.377 . S
C1039 C1037 1.389 . S
C1039 C1040 1.524 . S
C1040 C1039 1.524 . S
C1040 C1041 1.397 . S
C1040 C1045 1.363 . S
C1041 H1012 0.950 . S
C1041 C1040 1.397 . S
C1041 C1042 1.334 . S
C1042 H1013 0.950 . S
C1042 C1041 1.334 . S
C1042 C1043 1.287 . S
C1043 C1042 1.287 . S
C1043 C1044 1.524 . S
C1043 H1046 0.999 . S
C1044 H1014 0.950 . S
C1044 C1043 1.524 . S
C1044 C1045 1.415 . S
C1045 H1015 0.950 . S
C1045 C1040 1.363 . S
C1045 C1044 1.415 . S
H1046 C1043 0.999 . S
H1047 C1028 0.913 . S
H1048 C1066 0.951 . S
H1049 C1068 0.951 . S
H1050 C1070 0.950 . S
H1051 C1071 0.950 1_556 S
H1052 C1073 0.950 . S
H1053 C1076 0.950 . S
H1054 C1077 0.950 . S
H1055 C1079 0.950 . S
H1056 C1080 0.950 . S
H1057 C1081 0.951 . S
H1058 C1083 0.951 . S
H1059 C1085 0.950 . S
H1060 C1086 0.950 . S
H1061 C1088 0.950 . S
H1062 C1091 0.950 . S
H1063 C1092 0.950 . S
H1064 C1094 0.950 . S
H1065 C1095 0.950 . S
C1066 H1048 0.951 . S
C1066 C1067 1.366 . S
C1066 C1068 1.388 . S
C1067 C1066 1.366 . S
C1067 C1071 1.385 . S
C1068 H1049 0.951 . S
C1068 C1066 1.388 . S
C1068 C1069 1.366 . S
C1069 C1068 1.366 . S
C1069 C1070 1.414 . S
C1069 C1072 1.499 . S
C1070 H1050 0.950 . S
C1070 C1069 1.414 . S
C1070 C1071 1.374 . S
C1071 H1051 0.950 1_554 S
C1071 C1067 1.385 . S
C1071 C1070 1.374 . S
C1072 C1069 1.499 . S
C1072 C1073 1.373 . S
C1072 C1074 1.389 . S
C1073 H1052 0.950 . S
C1073 C1072 1.373 . S
C1073 C1089 1.377 . S
C1074 C1072 1.389 . S
C1074 C1075 1.524 . S
C1074 C1088 1.377 . S
C1075 C1074 1.524 . S
C1075 C1076 1.397 . S
C1075 C1080 1.363 . S
C1076 H1053 0.950 . S
C1076 C1075 1.397 . S
C1076 C1077 1.334 . S
C1077 H1054 0.950 . S
C1077 C1076 1.334 . S
C1077 C1078 1.287 . S
C1078 C1077 1.287 . S
C1078 C1079 1.524 . S
C1078 H1097 0.913 . S
C1079 H1055 0.950 . S
C1079 C1078 1.524 . S
C1079 C1080 1.415 . S
C1080 H1056 0.950 . S
C1080 C1075 1.363 . S
C1080 C1079 1.415 . S
C1081 H1057 0.951 . S
C1081 C1082 1.366 . S
C1081 C1083 1.388 . S
C1082 C1081 1.366 . S
C1082 C1086 1.385 . S
C1083 H1058 0.951 . S
C1083 C1081 1.388 . S
C1083 C1084 1.366 . S
C1084 C1083 1.366 . S
C1084 C1085 1.414 . S
C1084 C1087 1.499 . S
C1085 H1059 0.950 . S
C1085 C1084 1.414 . S
C1085 C1086 1.374 . S
C1086 H1060 0.950 . S
C1086 C1082 1.385 . S
C1086 C1085 1.374 . S
C1087 C1084 1.499 . S
C1087 C1088 1.373 . S
C1087 C1089 1.389 . S
C1088 H1061 0.950 . S
C1088 C1074 1.377 . S
C1088 C1087 1.373 . S
C1089 C1073 1.377 . S
C1089 C1087 1.389 . S
C1089 C1090 1.524 . S
C1090 C1089 1.524 . S
C1090 C1091 1.397 . S
C1090 C1095 1.363 . S
C1091 H1062 0.950 . S
C1091 C1090 1.397 . S
C1091 C1092 1.334 . S
C1092 H1063 0.950 . S
C1092 C1091 1.334 . S
C1092 C1093 1.287 . S
C1093 C1092 1.287 . S
C1093 C1094 1.524 . S
C1093 H1096 0.999 . S
C1094 H1064 0.950 . S
C1094 C1093 1.524 . S
C1094 C1095 1.415 . S
C1095 H1065 0.950 . S
C1095 C1090 1.363 . S
C1095 C1094 1.415 . S
H1096 C1093 0.999 . S
H1097 C1078 0.913 . S
H1098 C1116 0.951 . S
H1099 C1118 0.951 . S
H1100 C1120 0.950 . S
H1101 C1121 0.950 . S
H1102 C1123 0.950 . S
H1103 C1126 0.950 . S
H1104 C1127 0.950 . S
H1105 C1129 0.950 . S
H1106 C1130 0.950 . S
H1107 C1131 0.951 . S
H1108 C1133 0.951 . S
H1109 C1135 0.950 . S
H1110 C1136 0.950 . S
H1111 C1138 0.950 . S
H1112 C1141 0.950 . S
H1113 C1142 0.950 . S
H1114 C1144 0.950 . S
H1115 C1145 0.950 . S
C1116 H1098 0.951 . S
C1116 C1117 1.366 . S
C1116 C1118 1.388 . S
C1117 C1116 1.366 . S
C1117 C1121 1.385 . S
C1118 H1099 0.951 . S
C1118 C1116 1.388 . S
C1118 C1119 1.366 . S
C1119 C1118 1.366 . S
C1119 C1120 1.414 . S
C1119 C1122 1.499 . S
C1120 H1100 0.950 . S
C1120 C1119 1.414 . S
C1120 C1121 1.374 . S
C1121 H1101 0.950 . S
C1121 C1117 1.385 . S
C1121 C1120 1.374 . S
C1122 C1119 1.499 . S
C1122 C1123 1.373 . S
C1122 C1124 1.389 . S
C1123 H1102 0.950 . S
C1123 C1122 1.373 . S
C1123 C1139 1.377 . S
C1124 C1122 1.389 . S
C1124 C1125 1.524 . S
C1124 C1138 1.377 . S
C1125 C1124 1.524 . S
C1125 C1126 1.397 . S
C1125 C1130 1.363 . S
C1126 H1103 0.950 . S
C1126 C1125 1.397 . S
C1126 C1127 1.334 . S
C1127 H1104 0.950 . S
C1127 C1126 1.334 . S
C1127 C1128 1.287 . S
C1128 C1127 1.287 . S
C1128 C1129 1.524 . S
C1128 H1147 0.913 . S
C1129 H1105 0.950 . S
C1129 C1128 1.524 . S
C1129 C1130 1.415 . S
C1130 H1106 0.950 . S
C1130 C1125 1.363 . S
C1130 C1129 1.415 . S
C1131 H1107 0.951 . S
C1131 C1132 1.366 . S
C1131 C1133 1.388 . S
C1132 C1131 1.366 . S
C1132 C1136 1.385 . S
C1133 H1108 0.951 . S
C1133 C1131 1.388 . S
C1133 C1134 1.366 . S
C1134 C1133 1.366 . S
C1134 C1135 1.414 . S
C1134 C1137 1.499 . S
C1135 H1109 0.950 . S
C1135 C1134 1.414 . S
C1135 C1136 1.374 . S
C1136 H1110 0.950 . S
C1136 C1132 1.385 . S
C1136 C1135 1.374 . S
C1137 C1134 1.499 . S
C1137 C1138 1.373 . S
C1137 C1139 1.389 . S
C1138 H1111 0.950 . S
C1138 C1124 1.377 . S
C1138 C1137 1.373 . S
C1139 C1123 1.377 . S
C1139 C1137 1.389 . S
C1139 C1140 1.524 . S
C1140 C1139 1.524 . S
C1140 C1141 1.397 . S
C1140 C1145 1.363 . S
C1141 H1112 0.950 . S
C1141 C1140 1.397 . S
C1141 C1142 1.334 . S
C1142 H1113 0.950 . S
C1142 C1141 1.334 . S
C1142 C1143 1.287 . S
C1143 C1142 1.287 . S
C1143 C1144 1.524 . S
C1143 H1146 0.999 . S
C1144 H1114 0.950 . S
C1144 C1143 1.524 . S
C1144 C1145 1.415 . S
C1145 H1115 0.950 . S
C1145 C1140 1.363 . S
C1145 C1144 1.415 . S
H1146 C1143 0.999 . S
H1147 C1128 0.913 . S
H1148 C1166 0.951 1_554 S
H1149 C1168 0.951 . S
H1150 C1170 0.950 . S
H1151 C1171 0.950 . S
H1152 C1173 0.950 . S
H1153 C1176 0.950 . S
H1154 C1177 0.950 . S
H1155 C1179 0.950 . S
H1156 C1180 0.950 . S
H1157 C1181 0.951 . S
H1158 C1183 0.951 . S
H1159 C1185 0.950 . S
H1160 C1186 0.950 . S
H1161 C1188 0.950 . S
H1162 C1191 0.950 . S
H1163 C1192 0.950 . S
H1164 C1194 0.950 . S
H1165 C1195 0.950 . S
C1166 H1148 0.951 1_556 S
C1166 C1167 1.364 1_556 S
C1166 C1168 1.388 . S
C1167 C1166 1.364 1_554 S
C1167 C1171 1.380 1_554 S
C1168 H1149 0.951 . S
C1168 C1166 1.388 . S
C1168 C1169 1.366 . S
C1169 C1168 1.366 . S
C1169 C1170 1.414 . S
C1169 C1172 1.499 . S
C1170 H1150 0.950 . S
C1170 C1169 1.414 . S
C1170 C1171 1.374 . S
C1171 H1151 0.950 . S
C1171 C1167 1.380 1_556 S
C1171 C1170 1.374 . S
C1172 C1169 1.499 . S
C1172 C1173 1.373 . S
C1172 C1174 1.389 . S
C1173 H1152 0.950 . S
C1173 C1172 1.373 . S
C1173 C1189 1.377 . S
C1174 C1172 1.389 . S
C1174 C1175 1.524 . S
C1174 C1188 1.377 . S
C1175 C1174 1.524 . S
C1175 C1176 1.397 . S
C1175 C1180 1.363 . S
C1176 H1153 0.950 . S
C1176 C1175 1.397 . S
C1176 C1177 1.334 . S
C1177 H1154 0.950 . S
C1177 C1176 1.334 . S
C1177 C1178 1.287 . S
C1178 C1177 1.287 . S
C1178 C1179 1.524 . S
C1178 H1197 0.913 . S
C1179 H1155 0.950 . S
C1179 C1178 1.524 . S
C1179 C1180 1.415 . S
C1180 H1156 0.950 . S
C1180 C1175 1.363 . S
C1180 C1179 1.415 . S
C1181 H1157 0.951 . S
C1181 C1182 1.366 . S
C1181 C1183 1.388 . S
C1182 C1181 1.366 . S
C1182 C1186 1.385 . S
C1183 H1158 0.951 . S
C1183 C1181 1.388 . S
C1183 C1184 1.366 . S
C1184 C1183 1.366 . S
C1184 C1185 1.414 . S
C1184 C1187 1.499 . S
C1185 H1159 0.950 . S
C1185 C1184 1.414 . S
C1185 C1186 1.374 . S
C1186 H1160 0.950 . S
C1186 C1182 1.385 . S
C1186 C1185 1.374 . S
C1187 C1184 1.499 . S
C1187 C1188 1.373 . S
C1187 C1189 1.389 . S
C1188 H1161 0.950 . S
C1188 C1174 1.377 . S
C1188 C1187 1.373 . S
C1189 C1173 1.377 . S
C1189 C1187 1.389 . S
C1189 C1190 1.524 . S
C1190 C1189 1.524 . S
C1190 C1191 1.397 . S
C1190 C1195 1.363 . S
C1191 H1162 0.950 . S
C1191 C1190 1.397 . S
C1191 C1192 1.334 . S
C1192 H1163 0.950 . S
C1192 C1191 1.334 . S
C1192 C1193 1.287 . S
C1193 C1192 1.287 . S
C1193 C1194 1.524 . S
C1193 H1196 0.999 . S
C1194 H1164 0.950 . S
C1194 C1193 1.524 . S
C1194 C1195 1.415 . S
C1195 H1165 0.950 . S
C1195 C1190 1.363 . S
C1195 C1194 1.415 . S
H1196 C1193 0.999 . S
H1197 C1178 0.913 . S
H1198 C1216 0.951 . S
H1199 C1218 0.951 . S
H1200 C1220 0.950 . S
H1201 C1221 0.950 . S
H1202 C1223 0.950 . S
H1203 C1226 0.950 . S
H1204 C1227 0.950 . S
H1205 C1229 0.950 . S
H1206 C1230 0.950 . S
H1207 C1231 0.951 . S
H1208 C1233 0.951 . S
H1209 C1235 0.950 . S
H1210 C1236 0.950 . S
H1211 C1238 0.950 . S
H1212 C1241 0.950 . S
H1213 C1242 0.950 . S
H1214 C1244 0.950 . S
H1215 C1245 0.950 . S
C1216 H1198 0.951 . S
C1216 C1217 1.366 . S
C1216 C1218 1.388 . S
C1217 C1216 1.366 . S
C1217 C1221 1.385 . S
C1218 H1199 0.951 . S
C1218 C1216 1.388 . S
C1218 C1219 1.366 . S
C1219 C1218 1.366 . S
C1219 C1220 1.414 . S
C1219 C1222 1.499 . S
C1220 H1200 0.950 . S
C1220 C1219 1.414 . S
C1220 C1221 1.374 . S
C1221 H1201 0.950 . S
C1221 C1217 1.385 . S
C1221 C1220 1.374 . S
C1222 C1219 1.499 . S
C1222 C1223 1.373 . S
C1222 C1224 1.389 . S
C1223 H1202 0.950 . S
C1223 C1222 1.373 . S
C1223 C1239 1.377 . S
C1224 C1222 1.389 . S
C1224 C1225 1.524 . S
C1224 C1238 1.377 . S
C1225 C1224 1.524 . S
C1225 C1226 1.397 . S
C1225 C1230 1.363 . S
C1226 H1203 0.950 . S
C1226 C1225 1.397 . S
C1226 C1227 1.334 . S
C1227 H1204 0.950 . S
C1227 C1226 1.334 . S
C1227 C1228 1.287 . S
C1228 C1227 1.287 . S
C1228 C1229 1.524 . S
C1228 H1247 0.913 . S
C1229 H1205 0.950 . S
C1229 C1228 1.524 . S
C1229 C1230 1.415 . S
C1230 H1206 0.950 . S
C1230 C1225 1.363 . S
C1230 C1229 1.415 . S
C1231 H1207 0.951 . S
C1231 C1232 1.366 . S
C1231 C1233 1.388 . S
C1232 C1231 1.366 . S
C1232 C1236 1.385 . S
C1233 H1208 0.951 . S
C1233 C1231 1.388 . S
C1233 C1234 1.366 . S
C1234 C1233 1.366 . S
C1234 C1235 1.414 . S
C1234 C1237 1.499 . S
C1235 H1209 0.950 . S
C1235 C1234 1.414 . S
C1235 C1236 1.374 . S
C1236 H1210 0.950 . S
C1236 C1232 1.385 . S
C1236 C1235 1.374 . S
C1237 C1234 1.499 . S
C1237 C1238 1.373 . S
C1237 C1239 1.389 . S
C1238 H1211 0.950 . S
C1238 C1224 1.377 . S
C1238 C1237 1.373 . S
C1239 C1223 1.377 . S
C1239 C1237 1.389 . S
C1239 C1240 1.524 . S
C1240 C1239 1.524 . S
C1240 C1241 1.397 . S
C1240 C1245 1.363 . S
C1241 H1212 0.950 . S
C1241 C1240 1.397 . S
C1241 C1242 1.334 . S
C1242 H1213 0.950 . S
C1242 C1241 1.334 . S
C1242 C1243 1.287 . S
C1243 C1242 1.287 . S
C1243 C1244 1.524 1_655 S
C1243 H1246 0.999 1_655 S
C1244 H1214 0.950 . S
C1244 C1243 1.524 1_455 S
C1244 C1245 1.415 1_455 S
C1245 H1215 0.950 . S
C1245 C1240 1.363 . S
C1245 C1244 1.415 1_655 S
H1246 C1243 0.999 1_455 S
H1247 C1228 0.913 . S
H1248 C1266 0.951 . S
H1249 C1268 0.951 . S
H1250 C1270 0.950 . S
H1251 C1271 0.985 . S
H1252 C1273 0.950 . S
H1253 C1276 0.950 . S
H1254 C1277 0.950 . S
H1255 C1279 0.950 . S
H1256 C1280 0.950 . S
H1257 C1281 0.951 . S
H1258 C1283 0.951 . S
H1259 C1285 0.950 . S
H1260 C1286 0.950 . S
H1261 C1288 0.950 . S
H1262 C1291 0.950 . S
H1263 C1292 0.950 . S
H1264 C1294 0.950 . S
H1265 C1295 0.950 . S
C1266 H1248 0.951 . S
C1266 C1267 1.366 . S
C1266 C1268 1.388 . S
C1267 C1266 1.366 . S
C1267 C1271 1.385 . S
C1268 H1249 0.951 . S
C1268 C1266 1.388 . S
C1268 C1269 1.366 . S
C1269 C1268 1.366 . S
C1269 C1270 1.414 . S
C1269 C1272 1.499 . S
C1270 H1250 0.950 . S
C1270 C1269 1.414 . S
C1270 C1271 1.374 . S
C1271 H1251 0.985 . S
C1271 C1267 1.385 . S
C1271 C1270 1.374 . S
C1272 C1269 1.499 . S
C1272 C1273 1.373 . S
C1272 C1274 1.389 . S
C1273 H1252 0.950 . S
C1273 C1272 1.373 . S
C1273 C1289 1.377 . S
C1274 C1272 1.389 . S
C1274 C1275 1.524 . S
C1274 C1288 1.377 . S
C1275 C1274 1.524 . S
C1275 C1276 1.397 . S
C1275 C1280 1.363 . S
C1276 H1253 0.950 . S
C1276 C1275 1.397 . S
C1276 C1277 1.334 . S
C1277 H1254 0.950 . S
C1277 C1276 1.334 . S
C1277 C1278 1.287 . S
C1278 C1277 1.287 . S
C1278 C1279 1.524 . S
C1278 H1297 0.913 . S
C1279 H1255 0.950 . S
C1279 C1278 1.524 . S
C1279 C1280 1.415 . S
C1280 H1256 0.950 . S
C1280 C1275 1.363 . S
C1280 C1279 1.415 . S
C1281 H1257 0.951 . S
C1281 C1282 1.366 . S
C1281 C1283 1.388 . S
C1282 C1281 1.366 . S
C1282 C1286 1.385 . S
C1283 H1258 0.951 . S
C1283 C1281 1.388 . S
C1283 C1284 1.366 . S
C1284 C1283 1.366 . S
C1284 C1285 1.414 . S
C1284 C1287 1.499 . S
C1285 H1259 0.950 . S
C1285 C1284 1.414 . S
C1285 C1286 1.374 . S
C1286 H1260 0.950 . S
C1286 C1282 1.385 . S
C1286 C1285 1.374 . S
C1287 C1284 1.499 . S
C1287 C1288 1.373 . S
C1287 C1289 1.389 . S
C1288 H1261 0.950 . S
C1288 C1274 1.377 . S
C1288 C1287 1.373 . S
C1289 C1273 1.377 . S
C1289 C1287 1.389 . S
C1289 C1290 1.524 . S
C1290 C1289 1.524 . S
C1290 C1291 1.397 . S
C1290 C1295 1.363 . S
C1291 H1262 0.950 . S
C1291 C1290 1.397 . S
C1291 C1292 1.334 . S
C1292 H1263 0.950 . S
C1292 C1291 1.334 . S
C1292 C1293 1.287 . S
C1293 C1292 1.287 . S
C1293 C1294 1.524 . S
C1293 H1296 0.999 . S
C1294 H1264 0.950 . S
C1294 C1293 1.524 . S
C1294 C1295 1.415 . S
C1295 H1265 0.950 . S
C1295 C1290 1.363 . S
C1295 C1294 1.415 . S
H1296 C1293 0.999 . S
H1297 C1278 0.913 . S
H1298 C1316 0.951 . S
H1299 C1318 0.951 . S
H1300 C1320 0.950 . S
H1301 C1321 0.950 . S
H1302 C1323 0.950 . S
H1303 C1326 0.950 . S
H1304 C1327 0.950 . S
H1305 C1329 0.950 . S
H1306 C1330 0.950 . S
H1307 C1331 0.951 . S
H1308 C1333 0.951 . S
H1309 C1335 0.950 . S
H1310 C1336 0.950 . S
H1311 C1338 0.950 . S
H1312 C1341 0.950 . S
H1313 C1342 0.950 . S
H1314 C1344 0.950 . S
H1315 C1345 0.950 . S
C1316 H1298 0.951 . S
C1316 C1317 1.366 . S
C1316 C1318 1.388 . S
C1317 C1316 1.366 . S
C1317 C1321 1.385 . S
C1318 H1299 0.951 . S
C1318 C1316 1.388 . S
C1318 C1319 1.366 . S
C1319 C1318 1.366 . S
C1319 C1320 1.414 . S
C1319 C1322 1.499 . S
C1320 H1300 0.950 . S
C1320 C1319 1.414 . S
C1320 C1321 1.374 . S
C1321 H1301 0.950 . S
C1321 C1317 1.385 . S
C1321 C1320 1.374 . S
C1322 C1319 1.499 . S
C1322 C1323 1.373 . S
C1322 C1324 1.389 . S
C1323 H1302 0.950 . S
C1323 C1322 1.373 . S
C1323 C1339 1.377 . S
C1324 C1322 1.389 . S
C1324 C1325 1.524 . S
C1324 C1338 1.377 . S
C1325 C1324 1.524 . S
C1325 C1326 1.397 . S
C1325 C1330 1.363 . S
C1326 H1303 0.950 . S
C1326 C1325 1.397 . S
C1326 C1327 1.334 . S
C1327 H1304 0.950 . S
C1327 C1326 1.334 . S
C1327 C1328 1.287 . S
C1328 C1327 1.287 . S
C1328 C1329 1.524 . S
C1328 H1347 0.913 . S
C1329 H1305 0.950 . S
C1329 C1328 1.524 . S
C1329 C1330 1.415 . S
C1330 H1306 0.950 . S
C1330 C1325 1.363 . S
C1330 C1329 1.415 . S
C1331 H1307 0.951 . S
C1331 C1332 1.366 . S
C1331 C1333 1.388 . S
C1332 C1331 1.366 . S
C1332 C1336 1.385 . S
C1333 H1308 0.951 . S
C1333 C1331 1.388 . S
C1333 C1334 1.366 . S
C1334 C1333 1.366 . S
C1334 C1335 1.414 . S
C1334 C1337 1.499 . S
C1335 H1309 0.950 . S
C1335 C1334 1.414 . S
C1335 C1336 1.374 . S
C1336 H1310 0.950 . S
C1336 C1332 1.385 . S
C1336 C1335 1.374 . S
C1337 C1334 1.499 . S
C1337 C1338 1.373 . S
C1337 C1339 1.389 . S
C1338 H1311 0.950 . S
C1338 C1324 1.377 . S
C1338 C1337 1.373 . S
C1339 C1323 1.377 . S
C1339 C1337 1.389 . S
C1339 C1340 1.524 . S
C1340 C1339 1.524 . S
C1340 C1341 1.397 . S
C1340 C1345 1.363 . S
C1341 H1312 0.950 . S
C1341 C1340 1.397 . S
C1341 C1342 1.334 . S
C1342 H1313 0.950 . S
C1342 C1341 1.334 . S
C1342 C1343 1.287 . S
C1343 C1342 1.287 . S
C1343 C1344 1.524 . S
C1343 H1346 0.999 . S
C1344 H1314 0.950 . S
C1344 C1343 1.524 . S
C1344 C1345 1.415 . S
C1345 H1315 0.950 . S
C1345 C1340 1.363 . S
C1345 C1344 1.415 . S
H1346 C1343 0.999 . S
H1347 C1328 0.913 . S
H1348 C1366 0.951 . S
H1349 C1368 0.951 . S
H1350 C1370 0.950 . S
H1351 C1371 0.950 1_556 S
H1352 C1373 0.950 . S
H1353 C1376 0.950 . S
H1354 C1377 0.950 . S
H1355 C1379 0.950 . S
H1356 C1380 0.950 . S
H1357 C1381 0.951 . S
H1358 C1383 0.951 . S
H1359 C1385 0.950 . S
H1360 C1386 0.950 . S
H1361 C1388 0.950 . S
H1362 C1391 0.950 . S
H1363 C1392 0.950 . S
H1364 C1394 0.950 . S
H1365 C1395 0.950 . S
C1366 H1348 0.951 . S
C1366 C1367 1.344 1_554 S
C1366 C1368 1.388 . S
C1367 C1366 1.344 1_556 S
C1367 C1371 1.380 1_556 S
C1368 H1349 0.951 . S
C1368 C1366 1.388 . S
C1368 C1369 1.366 . S
C1369 C1368 1.366 . S
C1369 C1370 1.414 . S
C1369 C1372 1.499 . S
C1370 H1350 0.950 . S
C1370 C1369 1.414 . S
C1370 C1371 1.374 . S
C1371 H1351 0.950 1_554 S
C1371 C1367 1.380 1_554 S
C1371 C1370 1.374 . S
C1372 C1369 1.499 . S
C1372 C1373 1.373 . S
C1372 C1374 1.389 . S
C1373 H1352 0.950 . S
C1373 C1372 1.373 . S
C1373 C1389 1.377 . S
C1374 C1372 1.389 . S
C1374 C1375 1.524 . S
C1374 C1388 1.377 . S
C1375 C1374 1.524 . S
C1375 C1376 1.397 . S
C1375 C1380 1.363 . S
C1376 H1353 0.950 . S
C1376 C1375 1.397 . S
C1376 C1377 1.334 . S
C1377 H1354 0.950 . S
C1377 C1376 1.334 . S
C1377 C1378 1.287 . S
C1378 C1377 1.287 . S
C1378 C1379 1.524 . S
C1378 H1397 0.913 . S
C1379 H1355 0.950 . S
C1379 C1378 1.524 . S
C1379 C1380 1.415 . S
C1380 H1356 0.950 . S
C1380 C1375 1.363 . S
C1380 C1379 1.415 . S
C1381 H1357 0.951 . S
C1381 C1382 1.366 . S
C1381 C1383 1.388 . S
C1382 C1381 1.366 . S
C1382 C1386 1.385 . S
C1383 H1358 0.951 . S
C1383 C1381 1.388 . S
C1383 C1384 1.366 . S
C1384 C1383 1.366 . S
C1384 C1385 1.414 . S
C1384 C1387 1.499 . S
C1385 H1359 0.950 . S
C1385 C1384 1.414 . S
C1385 C1386 1.374 . S
C1386 H1360 0.950 . S
C1386 C1382 1.385 . S
C1386 C1385 1.374 . S
C1387 C1384 1.499 . S
C1387 C1388 1.373 . S
C1387 C1389 1.389 . S
C1388 H1361 0.950 . S
C1388 C1374 1.377 . S
C1388 C1387 1.373 . S
C1389 C1373 1.377 . S
C1389 C1387 1.389 . S
C1389 C1390 1.524 . S
C1390 C1389 1.524 . S
C1390 C1391 1.397 . S
C1390 C1395 1.363 . S
C1391 H1362 0.950 . S
C1391 C1390 1.397 . S
C1391 C1392 1.334 . S
C1392 H1363 0.950 . S
C1392 C1391 1.334 . S
C1392 C1393 1.287 . S
C1393 C1392 1.287 . S
C1393 C1394 1.524 . S
C1393 H1396 0.999 . S
C1394 H1364 0.950 . S
C1394 C1393 1.524 . S
C1394 C1395 1.415 . S
C1395 H1365 0.950 . S
C1395 C1390 1.363 . S
C1395 C1394 1.415 . S
H1396 C1393 0.999 . S
H1397 C1378 0.913 . S
H1398 C1416 0.951 . S
H1399 C1418 0.951 . S
H1400 C1420 0.950 . S
H1401 C1421 0.950 . S
H1402 C1423 0.950 . S
H1403 C1426 0.950 . S
H1404 C1427 0.950 . S
H1405 C1429 0.950 . S
H1406 C1430 0.950 . S
H1407 C1431 0.951 . S
H1408 C1433 0.951 . S
H1409 C1435 0.950 . S
H1410 C1436 0.950 . S
H1411 C1438 0.950 . S
H1412 C1441 0.950 . S
H1413 C1442 0.950 . S
H1414 C1444 0.950 . S
H1415 C1445 0.950 . S
C1416 H1398 0.951 . S
C1416 C1417 1.366 . S
C1416 C1418 1.388 . S
C1417 C1416 1.366 . S
C1417 C1421 1.385 . S
C1418 H1399 0.951 . S
C1418 C1416 1.388 . S
C1418 C1419 1.366 . S
C1419 C1418 1.366 . S
C1419 C1420 1.414 . S
C1419 C1422 1.499 . S
C1420 H1400 0.950 . S
C1420 C1419 1.414 . S
C1420 C1421 1.374 . S
C1421 H1401 0.950 . S
C1421 C1417 1.385 . S
C1421 C1420 1.374 . S
C1422 C1419 1.499 . S
C1422 C1423 1.373 . S
C1422 C1424 1.389 . S
C1423 H1402 0.950 . S
C1423 C1422 1.373 . S
C1423 C1439 1.377 . S
C1424 C1422 1.389 . S
C1424 C1425 1.524 . S
C1424 C1438 1.377 . S
C1425 C1424 1.524 . S
C1425 C1426 1.397 . S
C1425 C1430 1.363 . S
C1426 H1403 0.950 . S
C1426 C1425 1.397 . S
C1426 C1427 1.334 . S
C1427 H1404 0.950 . S
C1427 C1426 1.334 . S
C1427 C1428 1.287 . S
C1428 C1427 1.287 . S
C1428 C1429 1.524 . S
C1428 H1447 0.913 . S
C1429 H1405 0.950 . S
C1429 C1428 1.524 . S
C1429 C1430 1.415 . S
C1430 H1406 0.950 . S
C1430 C1425 1.363 . S
C1430 C1429 1.415 . S
C1431 H1407 0.951 . S
C1431 C1432 1.366 . S
C1431 C1433 1.388 . S
C1432 C1431 1.366 . S
C1432 C1436 1.385 . S
C1433 H1408 0.951 . S
C1433 C1431 1.388 . S
C1433 C1434 1.366 . S
C1434 C1433 1.366 . S
C1434 C1435 1.414 . S
C1434 C1437 1.499 . S
C1435 H1409 0.950 . S
C1435 C1434 1.414 . S
C1435 C1436 1.374 . S
C1436 H1410 0.950 . S
C1436 C1432 1.385 . S
C1436 C1435 1.374 . S
C1437 C1434 1.499 . S
C1437 C1438 1.373 . S
C1437 C1439 1.389 . S
C1438 H1411 0.950 . S
C1438 C1424 1.377 . S
C1438 C1437 1.373 . S
C1439 C1423 1.377 . S
C1439 C1437 1.389 . S
C1439 C1440 1.524 . S
C1440 C1439 1.524 . S
C1440 C1441 1.397 . S
C1440 C1445 1.363 . S
C1441 H1412 0.950 . S
C1441 C1440 1.397 . S
C1441 C1442 1.334 . S
C1442 H1413 0.950 . S
C1442 C1441 1.334 . S
C1442 C1443 1.287 . S
C1443 C1442 1.287 . S
C1443 C1444 1.524 . S
C1443 H1446 0.999 . S
C1444 H1414 0.950 . S
C1444 C1443 1.524 . S
C1444 C1445 1.415 . S
C1445 H1415 0.950 . S
C1445 C1440 1.363 . S
C1445 C1444 1.415 . S
H1446 C1443 0.999 . S
H1447 C1428 0.913 . S
H1448 C1466 0.951 . S
H1449 C1468 0.951 . S
H1450 C1470 0.950 . S
H1451 C1471 0.950 . S
H1452 C1473 0.950 . S
H1453 C1476 0.950 . S
H1454 C1477 0.950 . S
H1455 C1479 0.950 1_655 S
H1456 C1480 0.950 . S
H1457 C1481 0.951 . S
H1458 C1483 0.951 . S
H1459 C1485 0.950 . S
H1460 C1486 0.950 . S
H1461 C1488 0.950 . S
H1462 C1491 0.950 . S
H1463 C1492 0.950 . S
H1464 C1494 0.950 . S
H1465 C1495 0.950 . S
C1466 H1448 0.951 . S
C1466 C1467 1.366 . S
C1466 C1468 1.388 . S
C1467 C1466 1.366 . S
C1467 C1471 1.385 . S
C1468 H1449 0.951 . S
C1468 C1466 1.388 . S
C1468 C1469 1.366 . S
C1469 C1468 1.366 . S
C1469 C1470 1.414 . S
C1469 C1472 1.499 . S
C1470 H1450 0.950 . S
C1470 C1469 1.414 . S
C1470 C1471 1.374 . S
C1471 H1451 0.950 . S
C1471 C1467 1.385 . S
C1471 C1470 1.374 . S
C1472 C1469 1.499 . S
C1472 C1473 1.373 . S
C1472 C1474 1.389 . S
C1473 H1452 0.950 . S
C1473 C1472 1.373 . S
C1473 C1489 1.377 . S
C1474 C1472 1.389 . S
C1474 C1475 1.524 . S
C1474 C1488 1.377 . S
C1475 C1474 1.524 . S
C1475 C1476 1.397 . S
C1475 C1480 1.363 . S
C1476 H1453 0.950 . S
C1476 C1475 1.397 . S
C1476 C1477 1.334 . S
C1477 H1454 0.950 . S
C1477 C1476 1.334 . S
C1477 C1478 1.287 . S
C1478 C1477 1.287 . S
C1478 C1479 1.524 . S
C1478 H1497 0.913 1_455 S
C1479 H1455 0.950 1_455 S
C1479 C1478 1.524 . S
C1479 C1480 1.415 . S
C1480 H1456 0.950 . S
C1480 C1475 1.363 . S
C1480 C1479 1.415 . S
C1481 H1457 0.951 . S
C1481 C1482 1.366 . S
C1481 C1483 1.388 . S
C1482 C1481 1.366 . S
C1482 C1486 1.385 . S
C1483 H1458 0.951 . S
C1483 C1481 1.388 . S
C1483 C1484 1.366 . S
C1484 C1483 1.366 . S
C1484 C1485 1.414 . S
C1484 C1487 1.499 . S
C1485 H1459 0.950 . S
C1485 C1484 1.414 . S
C1485 C1486 1.374 . S
C1486 H1460 0.950 . S
C1486 C1482 1.385 . S
C1486 C1485 1.374 . S
C1487 C1484 1.499 . S
C1487 C1488 1.373 . S
C1487 C1489 1.389 . S
C1488 H1461 0.950 . S
C1488 C1474 1.377 . S
C1488 C1487 1.373 . S
C1489 C1473 1.377 . S
C1489 C1487 1.389 . S
C1489 C1490 1.524 . S
C1490 C1489 1.524 . S
C1490 C1491 1.397 . S
C1490 C1495 1.363 . S
C1491 H1462 0.950 . S
C1491 C1490 1.397 . S
C1491 C1492 1.334 . S
C1492 H1463 0.950 . S
C1492 C1491 1.334 . S
C1492 C1493 1.287 . S
C1493 C1492 1.287 . S
C1493 C1494 1.524 . S
C1493 H1496 0.999 . S
C1494 H1464 0.950 . S
C1494 C1493 1.524 . S
C1494 C1495 1.415 . S
C1495 H1465 0.950 . S
C1495 C1490 1.363 . S
C1495 C1494 1.415 . S
H1496 C1493 0.999 . S
H1497 C1478 0.913 1_655 S
H1498 C1516 0.951 . S
H1499 C1518 0.951 . S
H1500 C1520 0.950 . S
H1501 C1521 0.950 . S
H1502 C1523 0.950 . S
H1503 C1526 0.950 . S
H1504 C1527 0.950 . S
H1505 C1529 0.950 . S
H1506 C1530 0.950 . S
H1507 C1531 0.951 . S
H1508 C1533 0.951 . S
H1509 C1535 0.950 . S
H1510 C1536 0.950 . S
H1511 C1538 0.950 . S
H1512 C1541 0.950 . S
H1513 C1542 0.950 . S
H1514 C1544 0.950 . S
H1515 C1545 0.950 . S
C1516 H1498 0.951 . S
C1516 C1517 1.366 . S
C1516 C1518 1.388 . S
C1517 C1516 1.366 . S
C1517 C1521 1.385 . S
C1518 H1499 0.951 . S
C1518 C1516 1.388 . S
C1518 C1519 1.366 . S
C1519 C1518 1.366 . S
C1519 C1520 1.414 . S
C1519 C1522 1.499 . S
C1520 H1500 0.950 . S
C1520 C1519 1.414 . S
C1520 C1521 1.374 . S
C1521 H1501 0.950 . S
C1521 C1517 1.385 . S
C1521 C1520 1.374 . S
C1522 C1519 1.499 . S
C1522 C1523 1.373 . S
C1522 C1524 1.389 . S
C1523 H1502 0.950 . S
C1523 C1522 1.373 . S
C1523 C1539 1.377 . S
C1524 C1522 1.389 . S
C1524 C1525 1.524 . S
C1524 C1538 1.377 . S
C1525 C1524 1.524 . S
C1525 C1526 1.397 . S
C1525 C1530 1.363 . S
C1526 H1503 0.950 . S
C1526 C1525 1.397 . S
C1526 C1527 1.334 . S
C1527 H1504 0.950 . S
C1527 C1526 1.334 . S
C1527 C1528 1.287 . S
C1528 C1527 1.287 . S
C1528 C1529 1.524 . S
C1528 H1547 0.913 . S
C1529 H1505 0.950 . S
C1529 C1528 1.524 . S
C1529 C1530 1.415 . S
C1530 H1506 0.950 . S
C1530 C1525 1.363 . S
C1530 C1529 1.415 . S
C1531 H1507 0.951 . S
C1531 C1532 1.366 . S
C1531 C1533 1.388 . S
C1532 C1531 1.366 . S
C1532 C1536 1.385 . S
C1533 H1508 0.951 . S
C1533 C1531 1.388 . S
C1533 C1534 1.366 . S
C1534 C1533 1.366 . S
C1534 C1535 1.414 . S
C1534 C1537 1.499 . S
C1535 H1509 0.950 . S
C1535 C1534 1.414 . S
C1535 C1536 1.374 . S
C1536 H1510 0.950 . S
C1536 C1532 1.385 . S
C1536 C1535 1.374 . S
C1537 C1534 1.499 . S
C1537 C1538 1.373 . S
C1537 C1539 1.389 . S
C1538 H1511 0.950 . S
C1538 C1524 1.377 . S
C1538 C1537 1.373 . S
C1539 C1523 1.377 . S
C1539 C1537 1.389 . S
C1539 C1540 1.524 . S
C1540 C1539 1.524 . S
C1540 C1541 1.397 . S
C1540 C1545 1.363 . S
C1541 H1512 0.950 . S
C1541 C1540 1.397 . S
C1541 C1542 1.334 . S
C1542 H1513 0.950 . S
C1542 C1541 1.334 . S
C1542 C1543 1.287 . S
C1543 C1542 1.287 . S
C1543 C1544 1.524 . S
C1543 H1546 0.999 . S
C1544 H1514 0.950 . S
C1544 C1543 1.524 . S
C1544 C1545 1.415 . S
C1545 H1515 0.950 . S
C1545 C1540 1.363 . S
C1545 C1544 1.415 . S
H1546 C1543 0.999 . S
H1547 C1528 0.913 . S
H1548 C1566 0.951 . S
H1549 C1568 0.951 . S
H1550 C1570 0.950 . S
H1551 C1571 0.950 . S
H1552 C1573 0.950 . S
H1553 C1576 0.950 . S
H1554 C1577 0.950 . S
H1555 C1579 0.950 . S
H1556 C1580 0.950 . S
H1557 C1581 0.951 . S
H1558 C1583 0.951 . S
H1559 C1585 0.950 . S
H1560 C1586 0.950 . S
H1561 C1588 0.950 . S
H1562 C1591 0.950 . S
H1563 C1592 0.950 . S
H1564 C1594 0.950 . S
H1565 C1595 0.950 . S
C1566 H1548 0.951 . S
C1566 C1567 1.366 . S
C1566 C1568 1.388 . S
C1567 C1566 1.366 . S
C1567 C1571 1.385 . S
C1568 H1549 0.951 . S
C1568 C1566 1.388 . S
C1568 C1569 1.366 . S
C1569 C1568 1.366 . S
C1569 C1570 1.414 . S
C1569 C1572 1.499 . S
C1570 H1550 0.950 . S
C1570 C1569 1.414 . S
C1570 C1571 1.374 . S
C1571 H1551 0.950 . S
C1571 C1567 1.385 . S
C1571 C1570 1.374 . S
C1572 C1569 1.499 . S
C1572 C1573 1.373 . S
C1572 C1574 1.389 . S
C1573 H1552 0.950 . S
C1573 C1572 1.373 . S
C1573 C1589 1.377 . S
C1574 C1572 1.389 . S
C1574 C1575 1.524 . S
C1574 C1588 1.377 . S
C1575 C1574 1.524 . S
C1575 C1576 1.397 . S
C1575 C1580 1.363 . S
C1576 H1553 0.950 . S
C1576 C1575 1.397 . S
C1576 C1577 1.334 . S
C1577 H1554 0.950 . S
C1577 C1576 1.334 . S
C1577 C1578 1.287 . S
C1578 C1577 1.287 . S
C1578 C1579 1.524 . S
C1578 H1597 0.913 . S
C1579 H1555 0.950 . S
C1579 C1578 1.524 . S
C1579 C1580 1.415 . S
C1580 H1556 0.950 . S
C1580 C1575 1.363 . S
C1580 C1579 1.415 . S
C1581 H1557 0.951 . S
C1581 C1582 1.366 . S
C1581 C1583 1.388 . S
C1582 C1581 1.366 . S
C1582 C1586 1.385 . S
C1583 H1558 0.951 . S
C1583 C1581 1.388 . S
C1583 C1584 1.366 . S
C1584 C1583 1.366 . S
C1584 C1585 1.414 . S
C1584 C1587 1.499 . S
C1585 H1559 0.950 . S
C1585 C1584 1.414 . S
C1585 C1586 1.374 . S
C1586 H1560 0.950 . S
C1586 C1582 1.385 . S
C1586 C1585 1.374 . S
C1587 C1584 1.499 . S
C1587 C1588 1.373 . S
C1587 C1589 1.389 . S
C1588 H1561 0.950 . S
C1588 C1574 1.377 . S
C1588 C1587 1.373 . S
C1589 C1573 1.377 . S
C1589 C1587 1.389 . S
C1589 C1590 1.524 . S
C1590 C1589 1.524 . S
C1590 C1591 1.397 . S
C1590 C1595 1.363 . S
C1591 H1562 0.950 . S
C1591 C1590 1.397 . S
C1591 C1592 1.334 . S
C1592 H1563 0.950 . S
C1592 C1591 1.334 . S
C1592 C1593 1.287 . S
C1593 C1592 1.287 . S
C1593 C1594 1.524 . S
C1593 H1596 0.999 . S
C1594 H1564 0.950 . S
C1594 C1593 1.524 . S
C1594 C1595 1.415 . S
C1595 H1565 0.950 . S
C1595 C1590 1.363 . S
C1595 C1594 1.415 . S
H1596 C1593 0.999 . S
H1597 C1578 0.913 . S
H1598 C1616 0.951 . S
H1599 C1618 0.951 . S
H1600 C1620 0.950 . S
H1601 C1621 0.950 . S
H1602 C1623 0.950 . S
H1603 C1626 0.950 . S
H1604 C1627 0.950 . S
H1605 C1629 0.950 . S
H1606 C1630 0.950 . S
H1607 C1631 0.951 . S
H1608 C1633 0.951 . S
H1609 C1635 0.950 . S
H1610 C1636 0.950 . S
H1611 C1638 0.950 . S
H1612 C1641 0.950 . S
H1613 C1642 0.950 . S
H1614 C1644 0.950 . S
H1615 C1645 0.950 . S
C1616 H1598 0.951 . S
C1616 C1617 1.366 . S
C1616 C1618 1.388 . S
C1617 C1616 1.366 . S
C1617 C1621 1.385 . S
C1618 H1599 0.951 . S
C1618 C1616 1.388 . S
C1618 C1619 1.366 . S
C1619 C1618 1.366 . S
C1619 C1620 1.414 . S
C1619 C1622 1.499 . S
C1620 H1600 0.950 . S
C1620 C1619 1.414 . S
C1620 C1621 1.374 . S
C1621 H1601 0.950 . S
C1621 C1617 1.385 . S
C1621 C1620 1.374 . S
C1622 C1619 1.499 . S
C1622 C1623 1.373 . S
C1622 C1624 1.389 . S
C1623 H1602 0.950 . S
C1623 C1622 1.373 . S
C1623 C1639 1.377 . S
C1624 C1622 1.389 . S
C1624 C1625 1.524 . S
C1624 C1638 1.377 . S
C1625 C1624 1.524 . S
C1625 C1626 1.397 . S
C1625 C1630 1.363 . S
C1626 H1603 0.950 . S
C1626 C1625 1.397 . S
C1626 C1627 1.334 . S
C1627 H1604 0.950 . S
C1627 C1626 1.334 . S
C1627 C1628 1.287 . S
C1628 C1627 1.287 . S
C1628 C1629 1.524 . S
C1628 H1647 0.913 . S
C1629 H1605 0.950 . S
C1629 C1628 1.524 . S
C1629 C1630 1.415 . S
C1630 H1606 0.950 . S
C1630 C1625 1.363 . S
C1630 C1629 1.415 . S
C1631 H1607 0.951 . S
C1631 C1632 1.366 . S
C1631 C1633 1.388 . S
C1632 C1631 1.366 . S
C1632 C1636 1.385 . S
C1633 H1608 0.951 . S
C1633 C1631 1.388 . S
C1633 C1634 1.366 . S
C1634 C1633 1.366 . S
C1634 C1635 1.414 . S
C1634 C1637 1.499 . S
C1635 H1609 0.950 . S
C1635 C1634 1.414 . S
C1635 C1636 1.374 . S
C1636 H1610 0.950 . S
C1636 C1632 1.385 . S
C1636 C1635 1.374 . S
C1637 C1634 1.499 . S
C1637 C1638 1.373 . S
C1637 C1639 1.389 . S
C1638 H1611 0.950 . S
C1638 C1624 1.377 . S
C1638 C1637 1.373 . S
C1639 C1623 1.377 . S
C1639 C1637 1.389 . S
C1639 C1640 1.524 . S
C1640 C1639 1.524 . S
C1640 C1641 1.397 . S
C1640 C1645 1.363 . S
C1641 H1612 0.950 . S
C1641 C1640 1.397 . S
C1641 C1642 1.334 . S
C1642 H1613 0.950 . S
C1642 C1641 1.334 . S
C1642 C1643 1.287 . S
C1643 C1642 1.287 . S
C1643 C1644 1.524 . S
C1643 H1646 0.999 . S
C1644 H1614 0.950 . S
C1644 C1643 1.524 . S
C1644 C1645 1.415 . S
C1645 H1615 0.950 . S
C1645 C1640 1.363 . S
C1645 C1644 1.415 . S
H1646 C1643 0.999 . S
H1647 C1628 0.913 . S
H1648 C1666 0.951 . S
H1649 C1668 0.951 . S
H1650 C1670 0.950 . S
H1651 C1671 0.950 . S
H1652 C1673 0.950 . S
H1653 C1676 0.950 . S
H1654 C1677 0.950 . S
H1655 C1679 0.950 . S
H1656 C1680 0.950 . S
H1657 C1681 0.951 1_455 S
H1658 C1683 0.951 . S
H1659 C1685 0.950 . S
H1660 C1686 0.950 . S
H1661 C1688 0.950 . S
H1662 C1691 0.950 . S
H1663 C1692 0.950 . S
H1664 C1694 0.950 1_455 S
H1665 C1695 0.950 . S
C1666 H1648 0.951 . S
C1666 C1667 1.366 . S
C1666 C1668 1.388 . S
C1667 C1666 1.366 . S
C1667 C1671 1.385 . S
C1668 H1649 0.951 . S
C1668 C1666 1.388 . S
C1668 C1669 1.366 . S
C1669 C1668 1.366 . S
C1669 C1670 1.414 . S
C1669 C1672 1.499 . S
C1670 H1650 0.950 . S
C1670 C1669 1.414 . S
C1670 C1671 1.374 . S
C1671 H1651 0.950 . S
C1671 C1667 1.385 . S
C1671 C1670 1.374 . S
C1672 C1669 1.499 . S
C1672 C1673 1.373 . S
C1672 C1674 1.389 . S
C1673 H1652 0.950 . S
C1673 C1672 1.373 . S
C1673 C1689 1.377 . S
C1674 C1672 1.389 . S
C1674 C1675 1.524 . S
C1674 C1688 1.377 . S
C1675 C1674 1.524 . S
C1675 C1676 1.397 . S
C1675 C1680 1.363 . S
C1676 H1653 0.950 . S
C1676 C1675 1.397 . S
C1676 C1677 1.334 . S
C1677 H1654 0.950 . S
C1677 C1676 1.334 . S
C1677 C1678 1.287 . S
C1678 C1677 1.287 . S
C1678 C1679 1.524 . S
C1678 H1697 0.913 . S
C1679 H1655 0.950 . S
C1679 C1678 1.524 . S
C1679 C1680 1.415 . S
C1680 H1656 0.950 . S
C1680 C1675 1.363 . S
C1680 C1679 1.415 . S
C1681 H1657 0.951 1_655 S
C1681 C1682 1.366 . S
C1681 C1683 1.388 . S
C1682 C1681 1.366 . S
C1682 C1686 1.385 . S
C1683 H1658 0.951 . S
C1683 C1681 1.388 . S
C1683 C1684 1.366 . S
C1684 C1683 1.366 . S
C1684 C1685 1.414 . S
C1684 C1687 1.499 . S
C1685 H1659 0.950 . S
C1685 C1684 1.414 . S
C1685 C1686 1.374 . S
C1686 H1660 0.950 . S
C1686 C1682 1.385 . S
C1686 C1685 1.374 . S
C1687 C1684 1.499 . S
C1687 C1688 1.373 . S
C1687 C1689 1.389 . S
C1688 H1661 0.950 . S
C1688 C1674 1.377 . S
C1688 C1687 1.373 . S
C1689 C1673 1.377 . S
C1689 C1687 1.389 . S
C1689 C1690 1.524 . S
C1690 C1689 1.524 . S
C1690 C1691 1.397 . S
C1690 C1695 1.363 . S
C1691 H1662 0.950 . S
C1691 C1690 1.397 . S
C1691 C1692 1.334 . S
C1692 H1663 0.950 . S
C1692 C1691 1.334 . S
C1692 C1693 1.287 . S
C1693 C1692 1.287 . S
C1693 C1694 1.524 . S
C1693 H1696 0.999 . S
C1694 H1664 0.950 1_655 S
C1694 C1693 1.524 . S
C1694 C1695 1.415 . S
C1695 H1665 0.950 . S
C1695 C1690 1.363 . S
C1695 C1694 1.415 . S
H1696 C1693 0.999 . S
H1697 C1678 0.913 . S
H1698 C1716 0.951 . S
H1699 C1718 0.951 . S
H1700 C1720 0.950 . S
H1701 C1721 0.950 . S
H1702 C1723 0.950 . S
H1703 C1726 0.950 . S
H1704 C1727 0.950 . S
H1705 C1729 0.950 . S
H1706 C1730 0.950 . S
H1707 C1731 0.951 . S
H1708 C1733 0.951 . S
H1709 C1735 0.950 . S
H1710 C1736 0.950 . S
H1711 C1738 0.950 . S
H1712 C1741 0.950 . S
H1713 C1742 0.950 . S
H1714 C1744 0.950 . S
H1715 C1745 0.950 . S
C1716 H1698 0.951 . S
C1716 C1717 1.366 . S
C1716 C1718 1.388 . S
C1717 C1716 1.366 . S
C1717 C1721 1.385 . S
C1718 H1699 0.951 . S
C1718 C1716 1.388 . S
C1718 C1719 1.366 . S
C1719 C1718 1.366 . S
C1719 C1720 1.414 . S
C1719 C1722 1.499 . S
C1720 H1700 0.950 . S
C1720 C1719 1.414 . S
C1720 C1721 1.374 . S
C1721 H1701 0.950 . S
C1721 C1717 1.385 . S
C1721 C1720 1.374 . S
C1722 C1719 1.499 . S
C1722 C1723 1.373 . S
C1722 C1724 1.389 . S
C1723 H1702 0.950 . S
C1723 C1722 1.373 . S
C1723 C1739 1.377 . S
C1724 C1722 1.389 . S
C1724 C1725 1.524 . S
C1724 C1738 1.377 . S
C1725 C1724 1.524 . S
C1725 C1726 1.397 . S
C1725 C1730 1.363 . S
C1726 H1703 0.950 . S
C1726 C1725 1.397 . S
C1726 C1727 1.334 . S
C1727 H1704 0.950 . S
C1727 C1726 1.334 . S
C1727 C1728 1.287 . S
C1728 C1727 1.287 . S
C1728 C1729 1.524 . S
C1728 H1747 0.913 . S
C1729 H1705 0.950 . S
C1729 C1728 1.524 . S
C1729 C1730 1.415 . S
C1730 H1706 0.950 . S
C1730 C1725 1.363 . S
C1730 C1729 1.415 . S
C1731 H1707 0.951 . S
C1731 C1732 1.366 . S
C1731 C1733 1.388 . S
C1732 C1731 1.366 . S
C1732 C1736 1.385 . S
C1733 H1708 0.951 . S
C1733 C1731 1.388 . S
C1733 C1734 1.366 . S
C1734 C1733 1.366 . S
C1734 C1735 1.414 . S
C1734 C1737 1.499 . S
C1735 H1709 0.950 . S
C1735 C1734 1.414 . S
C1735 C1736 1.374 . S
C1736 H1710 0.950 . S
C1736 C1732 1.385 . S
C1736 C1735 1.374 . S
C1737 C1734 1.499 . S
C1737 C1738 1.373 . S
C1737 C1739 1.389 . S
C1738 H1711 0.950 . S
C1738 C1724 1.377 . S
C1738 C1737 1.373 . S
C1739 C1723 1.377 . S
C1739 C1737 1.389 . S
C1739 C1740 1.524 . S
C1740 C1739 1.524 . S
C1740 C1741 1.397 . S
C1740 C1745 1.363 . S
C1741 H1712 0.950 . S
C1741 C1740 1.397 . S
C1741 C1742 1.334 . S
C1742 H1713 0.950 . S
C1742 C1741 1.334 . S
C1742 C1743 1.287 . S
C1743 C1742 1.287 . S
C1743 C1744 1.524 . S
C1743 H1746 0.999 . S
C1744 H1714 0.950 . S
C1744 C1743 1.524 . S
C1744 C1745 1.415 . S
C1745 H1715 0.950 . S
C1745 C1740 1.363 . S
C1745 C1744 1.415 . S
H1746 C1743 0.999 . S
H1747 C1728 0.913 . S
H1748 C1766 0.951 . S
H1749 C1768 0.951 . S
H1750 C1770 0.950 . S
H1751 C1771 0.950 . S
H1752 C1773 0.950 . S
H1753 C1776 0.950 . S
H1754 C1777 0.950 . S
H1755 C1779 0.950 . S
H1756 C1780 0.950 . S
H1757 C1781 0.951 . S
H1758 C1783 0.951 . S
H1759 C1785 0.950 . S
H1760 C1786 0.950 . S
H1761 C1788 0.950 . S
H1762 C1791 0.950 . S
H1763 C1792 0.950 . S
H1764 C1794 0.950 . S
H1765 C1795 0.950 . S
C1766 H1748 0.951 . S
C1766 C1767 1.366 . S
C1766 C1768 1.388 . S
C1767 C1766 1.366 . S
C1767 C1771 1.385 . S
C1768 H1749 0.951 . S
C1768 C1766 1.388 . S
C1768 C1769 1.366 . S
C1769 C1768 1.366 . S
C1769 C1770 1.414 . S
C1769 C1772 1.499 . S
C1770 H1750 0.950 . S
C1770 C1769 1.414 . S
C1770 C1771 1.374 . S
C1771 H1751 0.950 . S
C1771 C1767 1.385 . S
C1771 C1770 1.374 . S
C1772 C1769 1.499 . S
C1772 C1773 1.373 . S
C1772 C1774 1.389 . S
C1773 H1752 0.950 . S
C1773 C1772 1.373 . S
C1773 C1789 1.377 . S
C1774 C1772 1.389 . S
C1774 C1775 1.524 . S
C1774 C1788 1.377 . S
C1775 C1774 1.524 . S
C1775 C1776 1.397 . S
C1775 C1780 1.363 . S
C1776 H1753 0.950 . S
C1776 C1775 1.397 . S
C1776 C1777 1.334 . S
C1777 H1754 0.950 . S
C1777 C1776 1.334 . S
C1777 C1778 1.287 . S
C1778 C1777 1.287 . S
C1778 C1779 1.524 . S
C1778 H1797 0.913 . S
C1779 H1755 0.950 . S
C1779 C1778 1.524 . S
C1779 C1780 1.415 . S
C1780 H1756 0.950 . S
C1780 C1775 1.363 . S
C1780 C1779 1.415 . S
C1781 H1757 0.951 . S
C1781 C1782 1.366 . S
C1781 C1783 1.388 . S
C1782 C1781 1.366 . S
C1782 C1786 1.385 . S
C1783 H1758 0.951 . S
C1783 C1781 1.388 . S
C1783 C1784 1.366 . S
C1784 C1783 1.366 . S
C1784 C1785 1.414 . S
C1784 C1787 1.499 . S
C1785 H1759 0.950 . S
C1785 C1784 1.414 . S
C1785 C1786 1.374 . S
C1786 H1760 0.950 . S
C1786 C1782 1.385 . S
C1786 C1785 1.374 . S
C1787 C1784 1.499 . S
C1787 C1788 1.373 . S
C1787 C1789 1.389 . S
C1788 H1761 0.950 . S
C1788 C1774 1.377 . S
C1788 C1787 1.373 . S
C1789 C1773 1.377 . S
C1789 C1787 1.389 . S
C1789 C1790 1.524 . S
C1790 C1789 1.524 . S
C1790 C1791 1.397 . S
C1790 C1795 1.363 . S
C1791 H1762 0.950 . S
C1791 C1790 1.397 . S
C1791 C1792 1.334 . S
C1792 H1763 0.950 . S
C1792 C1791 1.334 . S
C1792 C1793 1.287 . S
C1793 C1792 1.287 . S
C1793 C1794 1.524 . S
C1793 H1796 0.999 . S
C1794 H1764 0.950 . S
C1794 C1793 1.524 . S
C1794 C1795 1.415 . S
C1795 H1765 0.950 . S
C1795 C1790 1.363 . S
C1795 C1794 1.415 . S
H1796 C1793 0.999 . S
H1797 C1778 0.913 . S
H1798 C1816 0.951 . S
H1799 C1818 0.951 . S
H1800 C1820 0.950 . S
H1801 C1821 0.950 . S
H1802 C1823 0.950 . S
H1803 C1826 0.950 . S
H1804 C1827 0.950 . S
H1805 C1829 0.950 . S
H1806 C1830 0.950 . S
H1807 C1831 0.951 . S
H1808 C1833 0.951 . S
H1809 C1835 0.950 . S
H1810 C1836 0.950 . S
H1811 C1838 0.950 . S
H1812 C1841 0.950 . S
H1813 C1842 0.950 . S
H1814 C1844 0.950 . S
H1815 C1845 0.950 . S
C1816 H1798 0.951 . S
C1816 C1817 1.366 . S
C1816 C1818 1.388 . S
C1817 C1816 1.366 . S
C1817 C1821 1.385 . S
C1818 H1799 0.951 . S
C1818 C1816 1.388 . S
C1818 C1819 1.366 . S
C1819 C1818 1.366 . S
C1819 C1820 1.414 . S
C1819 C1822 1.499 . S
C1820 H1800 0.950 . S
C1820 C1819 1.414 . S
C1820 C1821 1.374 . S
C1821 H1801 0.950 . S
C1821 C1817 1.385 . S
C1821 C1820 1.374 . S
C1822 C1819 1.499 . S
C1822 C1823 1.373 . S
C1822 C1824 1.389 . S
C1823 H1802 0.950 . S
C1823 C1822 1.373 . S
C1823 C1839 1.377 . S
C1824 C1822 1.389 . S
C1824 C1825 1.524 . S
C1824 C1838 1.377 . S
C1825 C1824 1.524 . S
C1825 C1826 1.397 . S
C1825 C1830 1.363 . S
C1826 H1803 0.950 . S
C1826 C1825 1.397 . S
C1826 C1827 1.334 . S
C1827 H1804 0.950 . S
C1827 C1826 1.334 . S
C1827 C1828 1.287 . S
C1828 C1827 1.287 . S
C1828 C1829 1.524 . S
C1828 H1847 0.913 . S
C1829 H1805 0.950 . S
C1829 C1828 1.524 . S
C1829 C1830 1.415 . S
C1830 H1806 0.950 . S
C1830 C1825 1.363 . S
C1830 C1829 1.415 . S
C1831 H1807 0.951 . S
C1831 C1832 1.366 . S
C1831 C1833 1.388 . S
C1832 C1831 1.366 . S
C1832 C1836 1.385 . S
C1833 H1808 0.951 . S
C1833 C1831 1.388 . S
C1833 C1834 1.366 . S
C1834 C1833 1.366 . S
C1834 C1835 1.414 . S
C1834 C1837 1.499 . S
C1835 H1809 0.950 . S
C1835 C1834 1.414 . S
C1835 C1836 1.374 . S
C1836 H1810 0.950 . S
C1836 C1832 1.385 . S
C1836 C1835 1.374 . S
C1837 C1834 1.499 . S
C1837 C1838 1.373 . S
C1837 C1839 1.389 . S
C1838 H1811 0.950 . S
C1838 C1824 1.377 . S
C1838 C1837 1.373 . S
C1839 C1823 1.377 . S
C1839 C1837 1.389 . S
C1839 C1840 1.524 . S
C1840 C1839 1.524 . S
C1840 C1841 1.397 . S
C1840 C1845 1.363 . S
C1841 H1812 0.950 . S
C1841 C1840 1.397 . S
C1841 C1842 1.334 . S
C1842 H1813 0.950 . S
C1842 C1841 1.334 . S
C1842 C1843 1.287 . S
C1843 C1842 1.287 . S
C1843 C1844 1.524 . S
C1843 H1846 0.999 . S
C1844 H1814 0.950 . S
C1844 C1843 1.524 . S
C1844 C1845 1.415 . S
C1845 H1815 0.950 . S
C1845 C1840 1.363 . S
C1845 C1844 1.415 . S
H1846 C1843 0.999 . S
H1847 C1828 0.913 . S
C667 C235 1.474 . S
C682 C368 1.458 . S
C732 C452 1.454 . S
C717 C289 1.471 . S
C782 C451 1.463 . S
C767 C157 1.461 . S
C817 C211 1.458 . S
C832 C367 1.460 . S
C882 C548 1.457 . S
C867 C79 1.474 . S
C932 C632 1.460 . S
C917 C118 1.478 . S
C967 C1 1.462 . S
C982 C631 1.462 . S
C1017 C40 1.466 . S
C1032 C547 1.465 . S
C1082 C370 1.339 . S
C1067 C55 1.514 1_554 S
C1132 C454 1.339 . S
C1117 C16 1.515 . S
C1182 C466 1.405 . S
C1167 C133 1.548 . S
C1232 C382 1.405 . S
C1217 C94 1.542 . S
C1282 C550 1.345 . S
C1267 C196 1.521 1_556 S
C1317 C172 1.520 . S
C1332 C634 1.345 . S
C1382 C622 1.408 . S
C1367 C274 1.576 . S
C1417 C250 1.548 . S
C1432 C538 1.408 . S
C1482 C379 1.592 . S
C1467 C21 1.591 . S
C1532 C463 1.597 . S
C1517 C60 1.595 . S
C1567 C99 1.577 . S
C1582 C464 1.563 . S
C1632 C380 1.567 . S
C1617 C138 1.581 . S
C1682 C535 1.600 . S
C1667 C177 1.594 . S
C1717 C216 1.593 . S
C1732 C619 1.598 . S
C1767 C255 1.582 . S
C1782 C620 1.572 . S
C1817 C294 1.579 . S
C1832 C536 1.569 . S
