# Generated by pormake.
# Topology zzz, (3,6)-cn, num edge types: 1
# Building blocks:
#     Node 0, Type 0, BuildingBlock: BETDAH_clean_linker_0, # of connection points: 3
#     Node 1, Type 0, BuildingBlock: BETDAH_clean_linker_0, # of connection points: 3
#     Node 2, Type 0, BuildingBlock: BETDAH_clean_linker_0, # of connection points: 3
#     Node 3, Type 0, BuildingBlock: BETDAH_clean_linker_0, # of connection points: 3
#     Node 4, Type 0, BuildingBlock: BETDAH_clean_linker_0, # of connection points: 3
#     Node 5, Type 0, BuildingBlock: BETDAH_clean_linker_0, # of connection points: 3
#     Node 6, Type 0, BuildingBlock: BETDAH_clean_linker_0, # of connection points: 3
#     Node 7, Type 0, BuildingBlock: BETDAH_clean_linker_0, # of connection points: 3
#     Node 8, Type 1, BuildingBlock: JUFBIX_clean_sbu_0, # of connection points: 6
#     Node 9, Type 1, BuildingBlock: JUFBIX_clean_sbu_0, # of connection points: 6
#     Node 10, Type 1, BuildingBlock: JUFBIX_clean_sbu_0, # of connection points: 6
#     Node 11, Type 1, BuildingBlock: JUFBIX_clean_sbu_0, # of connection points: 6
#     Edge 12, Type (0, 1), BuildingBlock: CIFDUS_clean_linker_0, # of connection points: 2
#     Edge 13, Type (0, 1), BuildingBlock: CIFDUS_clean_linker_0, # of connection points: 2
#     Edge 14, Type (0, 1), BuildingBlock: CIFDUS_clean_linker_0, # of connection points: 2
#     Edge 15, Type (0, 1), BuildingBlock: CIFDUS_clean_linker_0, # of connection points: 2
#     Edge 16, Type (0, 1), BuildingBlock: CIFDUS_clean_linker_0, # of connection points: 2
#     Edge 17, Type (0, 1), BuildingBlock: CIFDUS_clean_linker_0, # of connection points: 2
#     Edge 18, Type (0, 1), BuildingBlock: CIFDUS_clean_linker_0, # of connection points: 2
#     Edge 19, Type (0, 1), BuildingBlock: CIFDUS_clean_linker_0, # of connection points: 2
#     Edge 20, Type (0, 1), BuildingBlock: CIFDUS_clean_linker_0, # of connection points: 2
#     Edge 21, Type (0, 1), BuildingBlock: CIFDUS_clean_linker_0, # of connection points: 2
#     Edge 22, Type (0, 1), BuildingBlock: CIFDUS_clean_linker_0, # of connection points: 2
#     Edge 23, Type (0, 1), BuildingBlock: CIFDUS_clean_linker_0, # of connection points: 2
#     Edge 24, Type (0, 1), BuildingBlock: CIFDUS_clean_linker_0, # of connection points: 2
#     Edge 25, Type (0, 1), BuildingBlock: CIFDUS_clean_linker_0, # of connection points: 2
#     Edge 26, Type (0, 1), BuildingBlock: CIFDUS_clean_linker_0, # of connection points: 2
#     Edge 27, Type (0, 1), BuildingBlock: CIFDUS_clean_linker_0, # of connection points: 2
#     Edge 28, Type (0, 1), BuildingBlock: CIFDUS_clean_linker_0, # of connection points: 2
#     Edge 29, Type (0, 1), BuildingBlock: CIFDUS_clean_linker_0, # of connection points: 2
#     Edge 30, Type (0, 1), BuildingBlock: CIFDUS_clean_linker_0, # of connection points: 2
#     Edge 31, Type (0, 1), BuildingBlock: CIFDUS_clean_linker_0, # of connection points: 2
#     Edge 32, Type (0, 1), BuildingBlock: CIFDUS_clean_linker_0, # of connection points: 2
#     Edge 33, Type (0, 1), BuildingBlock: CIFDUS_clean_linker_0, # of connection points: 2
#     Edge 34, Type (0, 1), BuildingBlock: CIFDUS_clean_linker_0, # of connection points: 2
#     Edge 35, Type (0, 1), BuildingBlock: CIFDUS_clean_linker_0, # of connection points: 2
# Relax obj value: 0.116
# Max RMSD: 0.175
# Mean RMSD: 0.084
data_MOF--net-zzz--node1-JUFBIX_clean_sbu_0--node2-BETDAH_clean_linker_0--edge1-CIFDUS_clean_linker_0
_symmetry_space_group_name_H-M    P1
_symmetry_Int_Tables_number       1
_symmetry_cell_setting            triclinic
loop_
_symmetry_equiv_pos_as_xyz
'x, y, z'
_cell_length_a     45.464752
_cell_length_b     45.289922
_cell_length_c     15.819134
_cell_angle_alpha  80.012712
_cell_angle_beta   90.037551
_cell_angle_gamma 91.48475
loop_
_atom_site_label
_atom_site_type_symbol
_atom_site_fract_x
_atom_site_fract_y
_atom_site_fract_z
_atom_type_partial_charge
H0 H 0.89132 0.51338 0.27378 0.0
H1 H 0.80717 0.52469 0.15211 0.0
H2 H 0.81813 0.53985 0.41249 0.0
C3 C 0.86809 0.51796 0.27763 0.0
C4 C 0.85688 0.52602 0.35251 0.0
C5 C 0.85035 0.51705 0.2059 0.0
C6 C 0.82071 0.52482 0.20834 0.0
C7 C 0.80891 0.53287 0.28352 0.0
C8 C 0.8272 0.53365 0.3549 0.0
N9 N 0.77895 0.54047 0.28982 0.0
C10 C 0.75792 0.5388 0.22679 0.0
H11 H 1.00117 0.85301 0.24762 0.0
H12 H 1.0022 0.77321 0.13633 0.0
H13 H 0.97787 0.76817 0.40279 0.0
C14 C 0.99816 0.82886 0.25415 0.0
C15 C 0.98883 0.81235 0.33295 0.0
C16 C 1.0033 0.8149 0.18348 0.0
C17 C 0.99853 0.78384 0.19152 0.0
C18 C 0.98949 0.76674 0.27108 0.0
C19 C 0.98496 0.78115 0.34178 0.0
N20 N 0.98459 0.7352 0.28173 0.0
C21 C 0.98754 0.71895 0.21541 0.0
H22 H 0.69322 0.01965 0.16744 0.0
H23 H 0.77586 0.02418 0.03331 0.0
H24 H 0.77342 0.01221 0.31068 0.0
C25 C 0.71709 0.01924 0.16884 0.0
C26 C 0.73131 0.01479 0.24788 0.0
C27 C 0.73263 0.02175 0.09159 0.0
C28 C 0.76365 0.02229 0.09284 0.0
C29 C 0.7785 0.01932 0.17263 0.0
C30 C 0.76211 0.01546 0.24957 0.0
N31 N 0.80967 0.0189 0.17986 0.0
C32 C 0.83018 0.02276 0.11323 0.0
H33 H 0.52695 0.64702 0.18289 0.0
H34 H 0.53803 0.73587 0.03528 0.0
H35 H 0.5357 0.7224 0.3123 0.0
C36 C 0.5293 0.67109 0.1801 0.0
C37 C 0.53074 0.68245 0.25645 0.0
C38 C 0.53169 0.69001 0.10033 0.0
C39 C 0.53543 0.7212 0.09675 0.0
C40 C 0.53652 0.733 0.17383 0.0
C41 C 0.5342 0.71344 0.25315 0.0
N42 N 0.54177 0.76396 0.17542 0.0
C43 C 0.53544 0.78777 0.11027 0.0
H44 H 0.15958 0.51543 0.32404 0.0
H45 H 0.24359 0.51288 0.44803 0.0
H46 H 0.23807 0.51222 0.17546 0.0
C47 C 0.1834 0.51485 0.3202 0.0
C48 C 0.19675 0.51357 0.24161 0.0
C49 C 0.20015 0.51492 0.39418 0.0
C50 C 0.23085 0.51335 0.39 0.0
C51 C 0.24479 0.51269 0.31057 0.0
C52 C 0.22755 0.51301 0.23644 0.0
N53 N 0.27589 0.51143 0.30312 0.0
C54 C 0.29522 0.51082 0.37165 0.0
H55 H 1.00723 0.17649 0.27275 0.0
H56 H 1.01169 0.24725 0.41971 0.0
H57 H 0.05519 0.25792 0.17336 0.0
C58 C 0.01334 0.19949 0.27729 0.0
C59 C 0.03093 0.2162 0.21277 0.0
C60 C 1.00648 0.21034 0.35205 0.0
C61 C 0.01649 0.23919 0.36098 0.0
C62 C 0.03368 0.25679 0.29577 0.0
C63 C 0.04111 0.24497 0.22216 0.0
N64 N 0.04488 0.28576 0.30399 0.0
C65 C 0.04107 0.29878 0.37664 0.0
H66 H 0.36878 0.01738 0.42019 0.0
H67 H 0.28964 0.02728 0.5602 0.0
H68 H 0.29019 0.04433 0.28249 0.0
C69 C 0.34545 0.02183 0.42092 0.0
C70 C 0.33107 0.02979 0.34275 0.0
C71 C 0.3309 0.02039 0.49956 0.0
C72 C 0.30101 0.02787 0.49977 0.0
C73 C 0.28616 0.03646 0.42096 0.0
C74 C 0.30149 0.03772 0.34287 0.0
N75 N 0.2561 0.04453 0.4168 0.0
C76 C 0.23564 0.03835 0.4835 0.0
H77 H 0.52991 0.36952 0.3864 0.0
H78 H 0.51763 0.28197 0.53955 0.0
H79 H 0.5056 0.29476 0.26513 0.0
C80 C 0.52567 0.34563 0.39032 0.0
C81 C 0.51875 0.33442 0.3156 0.0
C82 C 0.52537 0.32708 0.47089 0.0
C83 C 0.51847 0.29631 0.47717 0.0
C84 C 0.51166 0.28452 0.40234 0.0
C85 C 0.51129 0.30381 0.32228 0.0
N86 N 0.50361 0.25383 0.40513 0.0
C87 C 0.51281 0.23 0.46654 0.0
Co88 Co 0.03641 0.02258 0.82183 0.0
C89 C 0.975 1.01058 0.84012 0.0
Co90 Co 0.01534 1.00266 0.71815 0.0
C91 C 0.03742 0.06498 0.93144 0.0
C92 C 0.07753 0.04114 0.9471 0.0
N93 N 0.05123 0.0418 0.90747 0.0
N94 N 0.05387 0.07932 0.9832 0.0
C95 C 0.07924 0.0643 -0.00616 0.0
H96 H 0.01629 0.07249 0.90599 0.0
H97 H 0.09482 0.02587 0.93914 0.0
C98 C 0.07641 0.01453 0.69782 0.0
N99 N 0.99969 0.98513 0.62887 0.0
C100 C 0.99132 0.95622 0.62856 0.0
C101 C 0.99478 0.9993 0.54788 0.0
N102 N 0.98118 0.95209 0.5511 0.0
C103 C 0.9833 0.97917 0.50038 0.0
C104 C 0.01558 0.06462 0.6884 0.0
O105 O 0.07449 0.02354 0.76949 0.0
O106 O 0.05321 1.00498 0.66496 0.0
O107 O 1.00662 0.0421 0.65676 0.0
O108 O 0.02944 0.0603 0.75824 0.0
O109 O 0.97785 1.0003 0.77092 0.0
H110 H 0.99978 0.02268 0.52356 0.0
H111 H 0.99268 0.93846 0.68367 0.0
O112 O 0.99761 0.02135 0.87285 0.0
O113 O 0.04379 0.98469 0.88599 0.0
O114 O 0.02408 0.96399 0.78271 0.0
C115 C 0.03651 0.96132 0.85575 0.0
H116 H 0.09792 0.07 0.03086 0.0
H117 H 0.97803 0.98384 0.4327 0.0
Co118 Co 0.52099 0.01384 0.85918 0.0
C119 C 0.53441 0.95432 0.85022 0.0
Co120 Co 0.54123 1.00768 0.73643 0.0
C121 C 0.47644 0.02304 0.98337 0.0
C122 C 0.51701 1.00781 0.04226 0.0
N123 N 0.50461 0.01724 0.96508 0.0
N124 N 0.47079 0.0169 0.06835 0.0
C125 C 0.49628 1.00745 0.10559 0.0
H126 H 0.45966 0.02906 0.93538 0.0
H127 H 0.53899 0.99932 0.05181 0.0
C128 C 0.52758 0.06715 0.7446 0.0
N129 N 0.55739 1.00338 0.63119 0.0
C130 C 0.58551 0.99727 0.61383 0.0
C131 C 0.54346 1.00583 0.55493 0.0
N132 N 0.58946 0.99564 0.53044 0.0
C133 C 0.56308 1.00085 0.4931 0.0
C134 C 0.47973 1.00253 0.74083 0.0
O135 O 0.51966 0.05626 0.82123 0.0
O136 O 0.53728 0.04966 0.69666 0.0
O137 O 0.50249 0.99997 0.6963 0.0
O138 O 0.48275 1.00953 0.81445 0.0
O139 O 0.54514 0.9658 0.77729 0.0
H140 H 0.52057 1.01118 0.54431 0.0
H141 H 0.60282 0.99375 0.66121 0.0
O142 O 0.52224 0.97129 0.89538 0.0
O143 O 0.56 0.01773 0.90317 0.0
O144 O 0.57937 0.01494 0.7782 0.0
C145 C 0.58262 0.01777 0.85587 0.0
H146 H 0.49913 0.99892 0.17331 0.0
H147 H 0.55853 1.00168 0.42554 0.0
Co148 Co 0.55999 0.51114 0.79007 0.0
C149 C 0.53353 0.47207 0.92586 0.0
Co150 Co 0.51178 0.50564 0.77767 0.0
C151 C 0.61623 0.5173 0.87298 0.0
C152 C 0.62068 0.51421 0.74014 0.0
N153 N 0.60045 0.51485 0.802 0.0
N154 N 0.64555 0.518 0.85792 0.0
C155 C 0.64835 0.51613 0.7742 0.0
H156 H 0.60636 0.5177 0.935 0.0
H157 H 0.61563 0.51206 0.67461 0.0
C158 C 0.53887 0.54455 0.64205 0.0
N159 N 0.47142 0.50191 0.76382 0.0
C160 C 0.45713 0.49958 0.69033 0.0
C161 C 0.44996 0.50244 0.82227 0.0
N162 N 0.42759 0.49882 0.70012 0.0
C163 C 0.423 0.50061 0.78328 0.0
C164 C 0.52839 0.55352 0.85671 0.0
O165 O 0.56223 0.53668 0.68263 0.0
O166 O 0.51419 0.53363 0.67183 0.0
O167 O 0.50653 0.53825 0.83598 0.0
O168 O 0.55436 0.54542 0.84335 0.0
O169 O 0.50995 0.47785 0.88347 0.0
H170 H 0.4537 0.50447 0.88859 0.0
H171 H 0.46829 0.49934 0.63005 0.0
O172 O 0.55747 0.48532 0.89774 0.0
O173 O 0.5651 0.47703 0.73631 0.0
O174 O 0.51733 0.47287 0.72 0.0
C175 C 0.54294 0.46323 0.71124 0.0
H176 H 0.66892 0.51619 0.73978 0.0
H177 H 0.40171 0.50058 0.81388 0.0
Co178 Co 0.02295 0.52928 0.81108 0.0
C179 C 0.06156 0.49828 0.93414 0.0
Co180 Co 0.02689 0.48072 0.81221 0.0
C181 C 0.01819 0.57873 0.89917 0.0
C182 C 0.01806 0.59383 0.76335 0.0
N183 N 0.01963 0.56892 0.82357 0.0
N184 N 0.01587 0.60876 0.88912 0.0
C185 C 0.01566 0.61841 0.80353 0.0
H186 H 0.01841 0.56391 0.96068 0.0
H187 H 0.0187 0.5941 0.69486 0.0
C188 C 0.98875 0.51096 0.68812 0.0
N189 N 0.03042 0.44115 0.79862 0.0
C190 C 0.03638 0.43234 0.7234 0.0
C191 C 0.02701 0.41547 0.85567 0.0
N192 N 0.03686 0.40227 0.73061 0.0
C193 C 0.03084 0.39146 0.81385 0.0
C194 C 0.98117 0.49224 0.91155 0.0
O195 O 0.99498 0.53423 0.7201 0.0
O196 O 1.00117 0.48656 0.71756 0.0
O197 O 0.99376 0.47052 0.88649 0.0
O198 O 0.99151 0.51874 0.88915 0.0
O199 O 0.05249 0.47497 0.90662 0.0
H200 H 0.02183 0.41429 0.92293 0.0
H201 H 0.03954 0.44783 0.66361 0.0
O202 O 0.05136 0.52368 0.90207 0.0
O203 O 0.05405 0.53977 0.73208 0.0
O204 O 0.06006 0.49153 0.73858 0.0
C205 C 0.06834 0.51848 0.71084 0.0
H206 H 0.01432 0.64155 0.77217 0.0
H207 H 0.02947 0.36796 0.84251 0.0
H208 H 0.18472 0.01311 0.44774 0.0
H209 H 0.22918 0.05319 0.64162 0.0
H210 H 0.18373 0.04864 0.72786 0.0
H211 H 0.13051 0.03509 0.74417 0.0
H212 H 0.08672 0.99574 0.54648 0.0
H213 H 0.13254 0.99812 0.46604 0.0
C214 C 0.18445 0.02048 0.50947 0.0
C215 C 0.21005 0.03324 0.53905 0.0
C216 C 0.15826 0.01812 0.55763 0.0
C217 C 0.20962 0.04307 0.61832 0.0
C218 C 0.18363 0.04058 0.66723 0.0
C219 C 0.13104 0.02693 0.6837 0.0
C220 C 0.10501 0.01537 0.65153 0.0
C221 C 0.15766 0.02845 0.63703 0.0
C222 C 0.10623 1.00485 0.57297 0.0
C223 C 0.1325 1.00617 0.52669 0.0
H224 H 0.49293 0.20269 0.62313 0.0
H225 H 0.55187 0.19343 0.41682 0.0
H226 H 0.56283 0.14235 0.48654 0.0
H227 H 0.55313 0.09921 0.60096 0.0
H228 H 0.49468 0.10801 0.80933 0.0
H229 H 0.4862 0.16023 0.74483 0.0
C230 C 0.50853 0.18955 0.5946 0.0
C231 C 0.52175 0.20161 0.51543 0.0
C232 C 0.5146 0.16004 0.63505 0.0
C233 C 0.54168 0.1845 0.47818 0.0
C234 C 0.54781 0.15528 0.51777 0.0
C235 C 0.53868 0.11259 0.63267 0.0
C236 C 0.52438 0.09957 0.70958 0.0
C237 C 0.534 0.14262 0.59539 0.0
C238 C 0.50597 0.1174 0.75011 0.0
C239 C 0.50104 0.14728 0.71309 0.0
H240 H 0.34841 0.4865 0.38103 0.0
H241 H 0.28846 0.53413 0.51587 0.0
H242 H 0.32417 0.53399 0.63227 0.0
H243 H 0.37298 0.52128 0.69346 0.0
H244 H 0.43298 0.47366 0.55787 0.0
H245 H 0.39697 0.47301 0.44371 0.0
C246 C 0.34328 0.49673 0.43624 0.0
C247 C 0.31606 0.51023 0.44077 0.0
C248 C 0.36397 0.49667 0.50235 0.0
C249 C 0.30938 0.52354 0.5118 0.0
C250 C 0.32978 0.52348 0.57808 0.0
C251 C 0.37806 0.51046 0.6395 0.0
C252 C 0.40575 0.49762 0.63435 0.0
C253 C 0.3572 0.51019 0.57392 0.0
C254 C 0.41206 0.48409 0.56305 0.0
C255 C 0.3914 0.48357 0.49786 0.0
H256 H 0.06652 0.35081 0.39745 0.0
H257 H 1.00872 0.27927 0.52009 0.0
H258 H 1.0032 0.30454 0.64377 0.0
H259 H 0.01379 0.34795 0.71512 0.0
H260 H 0.07144 0.41959 0.59123 0.0
H261 H 0.07801 0.39354 0.47019 0.0
C262 C 0.0528 0.34083 0.45156 0.0
C263 C 0.03803 0.31338 0.45024 0.0
C264 C 0.04966 0.35558 0.52207 0.0
C265 C 0.02029 0.30046 0.52005 0.0
C266 C 0.01713 0.3149 0.59072 0.0
C267 C 0.02805 0.35763 0.66211 0.0
C268 C 0.04195 0.38575 0.66207 0.0
C269 C 0.03162 0.34256 0.59231 0.0
C270 C 0.06012 0.3982 0.5923 0.0
C271 C 0.064 0.38326 0.52317 0.0
H272 H 0.84492 0.99187 0.98813 0.0
H273 H 0.87503 0.06105 0.12542 0.0
H274 H 0.92294 0.06356 0.05346 0.0
H275 H 0.95705 0.04447 0.9561 0.0
H276 H 0.92673 0.97602 0.81564 0.0
H277 H 0.87838 0.97473 0.88385 0.0
C278 C 0.86189 1.00778 0.00086 0.0
C279 C 0.8566 0.02647 0.06103 0.0
C280 C 0.88947 1.00896 0.95944 0.0
C281 C 0.87869 0.04674 0.07837 0.0
C282 C 0.90611 0.04802 0.03773 0.0
C283 C 0.93986 0.02925 0.9405 0.0
C284 C 0.94562 1.01019 0.88139 0.0
C285 C 0.91192 0.02894 0.97905 0.0
C286 C 0.92294 0.9909 0.86102 0.0
C287 C 0.89524 0.99015 0.9 0.0
H288 H 0.56456 0.81756 0.97033 0.0
H289 H 0.49223 0.82311 0.14207 0.0
H290 H 0.4848 0.87529 0.07526 0.0
H291 H 0.50101 0.92032 0.97467 0.0
H292 H 0.57267 0.91502 0.79987 0.0
H293 H 0.57823 0.86196 0.86056 0.0
C294 C 0.54685 0.83013 -0.00842 0.0
C295 C 0.52876 0.81669 0.06027 0.0
C296 C 0.54284 0.86026 0.95302 0.0
C297 C 0.50614 0.83309 0.08852 0.0
C298 C 0.50204 0.86295 0.05078 0.0
C299 C 0.51776 0.90752 0.94956 0.0
C300 C 0.53656 0.92171 0.88336 0.0
C301 C 0.52061 0.87695 0.98412 0.0
C302 C 0.55791 0.90468 0.85085 0.0
C303 C 0.56114 0.87432 0.88564 0.0
H304 H 0.75951 0.51356 0.08507 0.0
H305 H 0.70405 0.56109 0.23343 0.0
H306 H 0.6636 0.55874 0.13194 0.0
H307 H 0.64429 0.54332 0.00034 0.0
H308 H 0.69997 0.4955 0.85256 0.0
H309 H 0.7401 0.49805 0.95351 0.0
C310 C 0.73856 0.52343 0.09468 0.0
C311 C 0.73452 0.53754 0.1658 0.0
C312 C 0.71552 0.522 0.03607 0.0
C313 C 0.70742 0.55019 0.17852 0.0
C314 C 0.68437 0.54882 0.12068 0.0
C315 C 0.66511 0.53325 -0.00937 0.0
C316 C 0.66905 0.51932 0.91868 0.0
C317 C 0.68815 0.53474 0.04921 0.0
C318 C 0.69639 0.50675 0.90654 0.0
C319 C 0.71935 0.50803 0.96458 0.0
H320 H 0.01571 0.66756 0.22097 0.0
H321 H 0.96641 0.7339 0.05528 0.0
H322 H 0.97134 0.70577 0.93682 0.0
H323 H 0.98899 0.66162 0.88202 0.0
H324 H 0.03879 0.59563 0.04862 0.0
H325 H 0.03426 0.62405 0.16519 0.0
C326 C 1.00613 0.67572 0.15872 0.0
C327 C 0.99069 0.70247 0.14598 0.0
C328 C 1.00907 0.65945 0.09142 0.0
C329 C 0.97832 0.71317 0.06574 0.0
C330 C 0.98116 0.69714 -0.00171 0.0
C331 C 0.99909 0.65364 0.9435 0.0
C332 C 0.01403 0.6264 0.95652 0.0
C333 C 0.99644 0.67018 0.01046 0.0
C334 C 0.02672 0.61622 0.03712 0.0
C335 C 0.02429 0.63255 0.10381 0.0
H336 H 0.02868 0.19879 0.51173 0.0
H337 H 0.95911 0.17163 0.35434 0.0
H338 H 0.95403 0.12324 0.45025 0.0
H339 H 0.97628 0.08556 0.56245 0.0
H340 H 0.046 0.11382 0.71847 0.0
H341 H 0.04409 0.16471 0.63956 0.0
C342 C 1.01149 0.18285 0.50058 0.0
C343 C 0.99472 0.18843 0.4254 0.0
C344 C 1.00943 0.1548 0.55411 0.0
C345 C 0.97251 0.16756 0.41164 0.0
C346 C 0.9699 0.13975 0.46569 0.0
C347 C 0.99079 0.10297 0.57948 0.0
C348 C 1.01174 0.09575 0.64449 0.0
C349 C 0.98948 0.13249 0.53416 0.0
C350 C 0.02995 0.11865 0.66762 0.0
C351 C 0.02885 0.14787 0.62278 0.0
H352 H 0.3672 0.97402 0.53812 0.0
H353 H 0.33633 0.05101 0.63449 0.0
H354 H 0.37902 0.04932 0.73011 0.0
H355 H 0.42983 0.03216 0.76332 0.0
H356 H 0.46358 0.96138 0.6433 0.0
H357 H 0.4157 0.95486 0.57784 0.0
C358 C 0.36948 0.98997 0.58178 0.0
C359 C 0.34896 0.0129 0.57834 0.0
C360 C 0.39527 0.99059 0.6298 0.0
C361 C 0.35179 0.03314 0.63598 0.0
C362 C 0.37652 0.03251 0.68934 0.0
C363 C 0.42644 0.01507 0.72373 0.0
C364 C 0.45013 0.99741 0.70725 0.0
C365 C 0.39919 0.01241 0.68305 0.0
C366 C 0.44571 0.97544 0.65571 0.0
C367 C 0.41833 0.97161 0.61878 0.0
H368 H 0.57235 0.36003 0.50809 0.0
H369 H 0.48552 0.32935 0.59718 0.0
H370 H 0.48389 0.36871 0.68537 0.0
H371 H 0.50399 0.41662 0.71734 0.0
H372 H 0.59071 0.44767 0.62641 0.0
H373 H 0.59555 0.4036 0.55768 0.0
C374 C 0.5536 0.36133 0.54957 0.0
C375 C 0.52908 0.34196 0.54645 0.0
C376 C 0.55242 0.38468 0.59715 0.0
C377 C 0.50475 0.34382 0.59958 0.0
C378 C 0.50362 0.36667 0.64863 0.0
C379 C 0.524 0.4136 0.68282 0.0
C380 C 0.5467 0.43565 0.67497 0.0
C381 C 0.52673 0.38807 0.64445 0.0
C382 C 0.57282 0.43116 0.63223 0.0
C383 C 0.57562 0.40595 0.59321 0.0
H384 H 0.16554 0.55836 0.42971 0.0
H385 H 0.19805 0.4713 0.53561 0.0
H386 H 0.16037 0.46531 0.64858 0.0
H387 H 0.11417 0.4821 0.70343 0.0
H388 H 0.08159 0.56925 0.59636 0.0
H389 H 0.12331 0.57806 0.49691 0.0
C390 C 0.16485 0.53854 0.47938 0.0
C391 C 0.1843 0.51527 0.47507 0.0
C392 C 0.14274 0.53502 0.54213 0.0
C393 C 0.18338 0.48955 0.53879 0.0
C394 C 0.16161 0.48599 0.60237 0.0
C395 C 0.11635 0.50308 0.65861 0.0
C396 C 0.09461 0.52476 0.65568 0.0
C397 C 0.14047 0.50806 0.60236 0.0
C398 C 0.09795 0.55214 0.59897 0.0
C399 C 0.12178 0.55719 0.54229 0.0
H400 H 0.04884 0.85454 0.15954 0.0
H401 H 0.97782 0.81823 0.02552 0.0
H402 H 0.98525 0.85886 0.90237 0.0
H403 H 1.00617 0.90935 0.84557 0.0
H404 H 0.07458 0.94684 0.98751 0.0
H405 H 0.07414 0.90112 0.09455 0.0
C406 C 0.03547 0.85521 0.1024 0.0
C407 C 0.01259 0.83385 0.10163 0.0
C408 C 0.03911 0.87914 0.034 0.0
C409 C 0.99558 0.83453 0.02726 0.0
C410 C 0.99963 0.85792 0.95739 0.0
C411 C 0.02145 0.90716 0.89884 0.0
C412 C 0.04005 0.93157 0.90947 0.0
C413 C 0.02044 0.88109 0.9618 0.0
C414 C 0.05975 0.9285 0.97871 0.0
C415 C 0.05951 0.90239 0.03996 0.0
H416 H 0.69606 0.97764 0.06431 0.0
H417 H 0.72662 0.06635 0.95081 0.0
H418 H 0.68274 0.07238 0.85884 0.0
H419 H 0.63151 0.05515 0.82977 0.0
H420 H 0.59903 0.96996 0.96702 0.0
H421 H 0.64715 0.95997 0.03278 0.0
C422 C 0.69356 0.99788 0.01707 0.0
C423 C 0.7145 0.02145 0.0138 0.0
C424 C 0.66717 1.00222 0.97162 0.0
C425 C 0.71099 0.04775 0.95346 0.0
C426 C 0.68557 0.0514 0.90245 0.0
C427 C 0.6352 0.0345 0.87413 0.0
C428 C 0.61185 0.01346 0.89511 0.0
C429 C 0.6628 0.02937 0.91428 0.0
C430 C 0.61665 0.98663 0.95174 0.0
C431 C 0.64418 0.98079 0.98854 0.0
H432 H 0.48809 0.65735 0.04449 0.0
H433 H 0.5779 0.68737 -0.00716 0.0
H434 H 0.58486 0.64763 0.90783 0.0
H435 H 0.56729 0.59975 0.86772 0.0
H436 H 0.4776 0.56925 0.92554 0.0
H437 H 0.46878 0.61341 0.98968 0.0
C438 C 0.50879 0.65586 0.01154 0.0
C439 C 0.53239 0.67526 0.02408 0.0
C440 C 0.51294 0.63217 0.96667 0.0
C441 C 0.5593 0.67297 0.98262 0.0
C442 C 0.56342 0.64987 0.93559 0.0
C443 C 0.54582 0.60284 0.89419 0.0
C444 C 0.52331 0.58091 0.89337 0.0
C445 C 0.54078 0.6285 0.93067 0.0
C446 C 0.49542 0.58556 0.92624 0.0
C447 C 0.49028 0.6109 0.9626 0.0
H448 H 0.88163 0.46828 0.19046 0.0
H449 H 0.85253 0.55231 0.04844 0.0
H450 H 0.88953 0.55015 0.93754 0.0
H451 H 0.93541 0.52898 0.89604 0.0
H452 H 0.96547 0.44542 0.03867 0.0
H453 H 0.92281 0.44263 0.13509 0.0
C454 C 0.88283 0.48555 0.13361 0.0
C455 C 0.86469 0.51056 0.12755 0.0
C456 C 0.90477 0.4846 0.07195 0.0
C457 C 0.86619 0.53282 0.05395 0.0
C458 C 0.88762 0.53179 -0.00864 0.0
C459 C 0.93237 0.50998 0.94772 0.0
C460 C 0.95375 0.48778 0.96208 0.0
C461 C 0.90791 0.50858 0.00216 0.0
C462 C 0.94937 0.46287 0.02739 0.0
C463 C 0.92505 0.46133 0.08234 0.0
H464 H 0.99686 0.18737 0.11328 0.0
H465 H 0.08746 0.2086 0.16203 0.0
H466 H 0.10331 0.16822 0.08852 0.0
H467 H 0.09054 0.12197 0.03059 0.0
H468 H 0.99879 0.09788 0.00431 0.0
H469 H 0.98432 0.14363 0.05021 0.0
C470 C 0.02013 0.18365 0.10551 0.0
C471 C 0.04094 0.20069 0.14328 0.0
C472 C 0.02882 0.15912 0.06966 0.0
C473 C 0.07103 0.19589 0.13278 0.0
C474 C 0.08003 0.17239 0.09238 0.0
C475 C 0.06742 0.12668 0.03523 0.0
C476 C 0.04589 0.10635 0.01337 0.0
C477 C 0.05901 0.15292 0.06443 0.0
C478 C 0.01597 0.11314 0.01896 0.0
C479 C 1.00757 0.13937 0.04552 0.0
H480 H 0.36081 0.9838 0.30296 0.0
H481 H 0.34159 0.07622 0.20863 0.0
H482 H 0.38231 0.07959 0.10489 0.0
H483 H 0.4285 0.05809 0.05872 0.0
H484 H 0.44943 0.96727 0.1679 0.0
H485 H 0.40331 0.96128 0.2488 0.0
C486 C 0.36509 1.00444 0.25793 0.0
C487 C 0.34845 0.02975 0.26344 0.0
C488 C 0.38942 1.00662 0.20286 0.0
C489 C 0.35402 0.05638 0.20499 0.0
C490 C 0.37758 0.0584 0.14674 0.0
C491 C 0.42255 0.03699 0.09945 0.0
C492 C 0.44233 0.01325 0.10881 0.0
C493 C 0.39626 0.03404 0.14786 0.0
C494 C 0.43466 0.9859 0.16136 0.0
C495 C 0.40829 0.98246 0.20712 0.0
H496 H 0.55955 0.37762 0.25708 0.0
H497 H 0.47693 0.33938 0.18865 0.0
H498 H 0.47357 0.3792 0.0626 0.0
H499 H 0.49333 0.4264 0.97564 0.0
H500 H 0.57573 0.46424 0.04844 0.0
H501 H 0.57946 0.42359 0.17055 0.0
C502 C 0.54078 0.37796 0.21454 0.0
C503 C 0.51842 0.35569 0.23257 0.0
C504 C 0.53869 0.40121 0.14393 0.0
C505 C 0.49456 0.35611 0.17587 0.0
C506 C 0.49247 0.37908 0.10441 0.0
C507 C 0.51191 0.42587 0.01884 0.0
C508 C 0.53408 0.44851 0.00337 0.0
C509 C 0.51418 0.40207 0.08865 0.0
C510 C 0.5583 0.44722 0.05902 0.0
C511 C 0.56054 0.4239 0.12869 0.0
H512 H 0.15696 0.47024 0.22387 0.0
H513 H 0.19243 0.55544 0.09631 0.0
H514 H 0.15278 0.55871 0.98984 0.0
H515 H 0.10601 0.53873 0.94013 0.0
H516 H 0.07183 0.45249 0.06535 0.0
H517 H 0.11278 0.44826 0.16696 0.0
C518 C 0.15628 0.48915 0.17143 0.0
C519 C 0.17748 0.5125 0.16706 0.0
C520 C 0.13333 0.49095 0.11171 0.0
C521 C 0.17649 0.53706 0.09973 0.0
C522 C 0.15365 0.53908 0.03979 0.0
C523 C 0.10751 0.51913 0.99012 0.0
C524 C 0.08572 0.49621 -0.00323 0.0
C525 C 0.13155 0.5165 0.04652 0.0
C526 C 0.08822 0.47053 0.05996 0.0
C527 C 0.11166 0.46806 0.11763 0.0
H528 H 0.94837 0.85412 0.33568 0.0
H529 H 0.01827 0.8088 0.48477 0.0
H530 H 0.01902 0.84701 0.57764 0.0
H531 H 1.00584 0.89815 0.59777 0.0
H532 H 0.93804 0.94428 0.44061 0.0
H533 H 0.93012 0.90099 0.36972 0.0
C534 C 0.96305 0.85216 0.39041 0.0
C535 C 0.98326 0.82892 0.40371 0.0
C536 C 0.96409 0.87473 0.44075 0.0
C537 C 1.00237 0.82646 0.47412 0.0
C538 C 1.00303 0.8485 0.52635 0.0
C539 C 0.9888 0.89827 0.54977 0.0
C540 C 0.97283 0.92446 0.52329 0.0
C541 C 0.98492 0.87349 0.50768 0.0
C542 C 0.9509 0.92451 0.46073 0.0
C543 C 0.94636 0.89978 0.42033 0.0
H544 H 0.68822 0.97283 0.27993 0.0
H545 H 0.73224 0.04259 0.38941 0.0
H546 H 0.69298 0.0397 0.49759 0.0
H547 H 0.64211 0.02283 0.54465 0.0
H548 H 0.59657 0.95766 0.42052 0.0
H549 H 0.64015 0.95329 0.33347 0.0
C550 C 0.68946 0.98702 0.3286 0.0
C551 C 0.71277 1.00816 0.32632 0.0
C552 C 0.66617 0.98639 0.3866 0.0
C553 C 0.71448 0.02614 0.39014 0.0
C554 C 0.69186 0.02472 0.45113 0.0
C555 C 0.64215 1.0073 0.49966 0.0
C556 C 0.61633 0.99063 0.48818 0.0
C557 C 0.66698 1.00582 0.44758 0.0
C558 C 0.61623 0.97078 0.42936 0.0
C559 C 0.64109 0.96829 0.37994 0.0
H560 H 0.56779 0.63754 0.30665 0.0
H561 H 0.49096 0.67907 0.38735 0.0
H562 H 0.4855 0.63877 0.51254 0.0
H563 H 0.50197 0.59063 0.59587 0.0
H564 H 0.58058 0.55117 0.51781 0.0
H565 H 0.58579 0.59144 0.39352 0.0
C566 C 0.55007 0.63786 0.35239 0.0
C567 C 0.52979 0.66105 0.33843 0.0
C568 C 0.54715 0.61473 0.42344 0.0
C569 C 0.50694 0.66149 0.39772 0.0
C570 C 0.50369 0.63833 0.46855 0.0
C571 C 0.52001 0.59079 0.55091 0.0
C572 C 0.54059 0.56781 0.56459 0.0
C573 C 0.52342 0.61459 0.48132 0.0
C574 C 0.56436 0.56854 0.50768 0.0
C575 C 0.56742 0.59159 0.43704 0.0
H576 H 0.89636 0.48447 0.41419 0.0
H577 H 0.86293 0.56912 0.45507 0.0
H578 H 0.90133 0.57259 0.56241 0.0
H579 H 0.94615 0.55228 0.63934 0.0
H580 H 0.97973 0.46858 0.58914 0.0
H581 H 0.94016 0.46466 0.48833 0.0
C582 C 0.89748 0.50377 0.44638 0.0
C583 C 0.87705 0.52664 0.42609 0.0
C584 C 0.92003 0.50608 0.5051 0.0
C585 C 0.87832 0.55111 0.46996 0.0
C586 C 0.90048 0.55326 0.53048 0.0
C587 C 0.94492 0.5334 0.60555 0.0
C588 C 0.96596 0.51084 0.62159 0.0
C589 C 0.92183 0.53111 0.54741 0.0
C590 C 0.96388 0.48629 0.57813 0.0
C591 C 0.94116 0.48391 0.52064 0.0
loop_
_geom_bond_atom_site_label_1
_geom_bond_atom_site_label_2
_geom_bond_distance
_geom_bond_site_symmetry_2
_ccdc_geom_bond_type
H0 C3 0.929 . S
H1 C6 0.929 . S
H2 C8 0.930 . S
C3 H0 0.929 . S
C3 C4 1.398 . S
C3 C5 1.396 . S
C4 C3 1.398 . S
C4 C8 1.407 . S
C5 C3 1.396 . S
C5 C6 1.394 . S
C6 H1 0.929 . S
C6 C5 1.394 . S
C6 C7 1.382 . S
C7 C6 1.382 . S
C7 C8 1.392 . S
C7 N9 1.420 . S
C8 H2 0.930 . S
C8 C4 1.407 . S
C8 C7 1.392 . S
N9 C7 1.420 . S
N9 C10 1.244 . S
C10 N9 1.244 . S
H11 C14 0.929 . S
H12 C17 0.929 1_556 S
H13 C19 0.930 . S
C14 H11 0.929 . S
C14 C15 1.398 . S
C14 C16 1.396 . S
C15 C14 1.398 . S
C15 C19 1.407 . S
C16 C14 1.396 . S
C16 C17 1.394 . S
C17 H12 0.929 1_554 S
C17 C16 1.394 . S
C17 C18 1.382 . S
C18 C17 1.382 . S
C18 C19 1.392 . S
C18 N20 1.420 . S
C19 H13 0.930 . S
C19 C15 1.407 . S
C19 C18 1.392 . S
N20 C18 1.420 . S
N20 C21 1.244 . S
C21 N20 1.244 . S
H22 C25 0.929 . S
H23 C28 0.929 . S
H24 C30 0.930 . S
C25 H22 0.929 . S
C25 C26 1.391 1_565 S
C25 C27 1.397 1_565 S
C26 C25 1.391 1_545 S
C26 C30 1.412 . S
C27 C25 1.397 1_545 S
C27 C28 1.396 1_554 S
C28 H23 0.929 . S
C28 C27 1.396 1_556 S
C28 C29 1.382 1_556 S
C29 C28 1.382 1_554 S
C29 C30 1.392 . S
C29 N31 1.420 . S
C30 H24 0.930 . S
C30 C26 1.412 . S
C30 C29 1.392 . S
N31 C29 1.420 . S
N31 C32 1.232 1_545 S
C32 N31 1.232 1_565 S
H33 C36 0.929 . S
H34 C39 0.929 . S
H35 C41 0.930 . S
C36 H33 0.929 . S
C36 C37 1.398 . S
C36 C38 1.396 . S
C37 C36 1.398 . S
C37 C41 1.407 . S
C38 C36 1.396 . S
C38 C39 1.394 . S
C39 H34 0.929 . S
C39 C38 1.394 . S
C39 C40 1.382 . S
C40 C39 1.382 . S
C40 C41 1.392 . S
C40 N42 1.420 . S
C41 H35 0.930 . S
C41 C37 1.407 . S
C41 C40 1.392 . S
N42 C40 1.420 . S
N42 C43 1.244 . S
C43 N42 1.244 . S
H44 C47 0.929 . S
H45 C50 0.929 . S
H46 C52 0.930 . S
C47 H44 0.929 . S
C47 C48 1.398 . S
C47 C49 1.396 . S
C48 C47 1.398 . S
C48 C52 1.407 . S
C49 C47 1.396 . S
C49 C50 1.394 . S
C50 H45 0.929 . S
C50 C49 1.394 . S
C50 C51 1.382 . S
C51 C50 1.382 . S
C51 C52 1.392 . S
C51 N53 1.420 . S
C52 H46 0.930 . S
C52 C48 1.407 . S
C52 C51 1.392 . S
N53 C51 1.420 . S
N53 C54 1.244 . S
C54 N53 1.244 . S
H55 C58 0.929 . S
H56 C61 0.929 . S
H57 C63 0.930 . S
C58 H55 0.929 . S
C58 C59 1.398 . S
C58 C60 1.396 . S
C59 C58 1.398 . S
C59 C63 1.407 . S
C60 C58 1.396 . S
C60 C61 1.394 . S
C61 H56 0.929 . S
C61 C60 1.394 . S
C61 C62 1.382 . S
C62 C61 1.382 . S
C62 C63 1.392 . S
C62 N64 1.420 . S
C63 H57 0.930 . S
C63 C59 1.407 . S
C63 C62 1.392 . S
N64 C62 1.420 . S
N64 C65 1.244 . S
C65 N64 1.244 . S
H66 C69 0.929 . S
H67 C72 0.929 . S
H68 C74 0.930 . S
C69 H66 0.929 . S
C69 C70 1.398 1_565 S
C69 C71 1.390 1_565 S
C70 C69 1.398 1_545 S
C70 C74 1.407 . S
C71 C69 1.390 1_545 S
C71 C72 1.400 . S
C72 H67 0.929 . S
C72 C71 1.400 . S
C72 C73 1.382 . S
C73 C72 1.382 . S
C73 C74 1.392 . S
C73 N75 1.420 . S
C74 H68 0.930 . S
C74 C70 1.407 . S
C74 C73 1.392 . S
N75 C73 1.420 . S
N75 C76 1.238 1_545 S
C76 N75 1.238 1_565 S
H77 C80 0.929 . S
H78 C83 0.929 . S
H79 C85 0.930 . S
C80 H77 0.929 . S
C80 C81 1.398 . S
C80 C82 1.396 . S
C81 C80 1.398 . S
C81 C85 1.407 . S
C82 C80 1.396 . S
C82 C83 1.394 . S
C83 H78 0.929 . S
C83 C82 1.394 . S
C83 C84 1.382 . S
C84 C83 1.382 . S
C84 C85 1.392 . S
C84 N86 1.420 . S
C85 H79 0.930 . S
C85 C81 1.407 . S
C85 C84 1.392 . S
N86 C84 1.420 . S
N86 C87 1.244 . S
C87 N86 1.244 . S
Co88 N93 2.057 . S
Co88 O105 2.021 . S
Co88 O108 2.062 . S
Co88 O112 2.117 1_455 S
Co88 O113 2.020 1_545 S
C89 O109 1.259 1_545 S
C89 O112 1.258 . S
Co90 N99 2.057 . S
Co90 O106 2.117 . S
Co90 O107 2.020 1_565 S
Co90 O109 2.021 1_455 S
Co90 O114 2.062 . S
C91 N93 1.316 1_554 S
C91 N94 1.347 . S
C91 H96 0.927 1_554 S
C92 N93 1.384 1_554 S
C92 C95 1.354 . S
C92 H97 0.919 1_455 S
N93 Co88 2.057 . S
N93 C91 1.316 1_556 S
N93 C92 1.384 1_556 S
N94 C91 1.347 . S
N94 C95 1.373 . S
C95 C92 1.354 . S
C95 N94 1.373 . S
C95 H116 0.931 1_455 S
H96 C91 0.927 1_556 S
H97 C92 0.919 1_655 S
C98 O105 1.259 1_565 S
C98 O106 1.258 . S
N99 Co90 2.057 . S
N99 C100 1.316 1_455 S
N99 C101 1.375 . S
C100 N99 1.316 1_655 S
C100 N102 1.347 . S
C100 H111 0.931 . S
C101 N99 1.375 . S
C101 C103 1.350 . S
C101 H110 0.930 . S
N102 C100 1.347 . S
N102 C103 1.373 1_655 S
C103 C101 1.350 . S
C103 N102 1.373 1_455 S
C103 H117 0.931 . S
C104 O107 1.256 . S
C104 O108 1.255 . S
O105 Co88 2.021 . S
O105 C98 1.259 1_545 S
O106 Co90 2.117 . S
O106 C98 1.258 . S
O107 Co90 2.020 1_545 S
O107 C104 1.256 . S
O108 Co88 2.062 . S
O108 C104 1.255 . S
O109 C89 1.259 1_565 S
O109 Co90 2.021 1_655 S
H110 C101 0.930 . S
H111 C100 0.931 . S
O112 Co88 2.117 1_655 S
O112 C89 1.258 . S
O113 Co88 2.020 1_565 S
O113 C115 1.256 . S
O114 Co90 2.062 . S
O114 C115 1.255 . S
C115 O113 1.256 . S
C115 O114 1.255 . S
H116 C95 0.931 1_655 S
H117 C103 0.931 . S
Co118 N123 2.057 1_545 S
Co118 O135 2.021 . S
Co118 O138 2.068 . S
Co118 O142 2.117 1_545 S
Co118 O143 2.020 . S
C119 O139 1.259 . S
C119 O142 1.258 . S
Co120 N129 2.057 1_565 S
Co120 O136 2.117 1_565 S
Co120 O137 2.020 . S
Co120 O139 2.021 . S
Co120 O144 2.067 . S
C121 N123 1.316 1_544 S
C121 N124 1.347 . S
C121 H126 0.929 1_554 S
C122 N123 1.375 1_554 S
C122 C125 1.350 . S
C122 H127 0.930 . S
N123 Co118 2.057 1_565 S
N123 C121 1.316 1_566 S
N123 C122 1.375 1_556 S
N124 C121 1.347 . S
N124 C125 1.373 1_545 S
C125 C122 1.350 . S
C125 N124 1.373 1_565 S
C125 H146 0.931 . S
H126 C121 0.929 1_556 S
H127 C122 0.930 . S
C128 O135 1.259 . S
C128 O136 1.258 . S
N129 Co120 2.057 1_545 S
N129 C130 1.316 1_545 S
N129 C131 1.375 . S
C130 N129 1.316 1_565 S
C130 N132 1.347 . S
C130 H141 0.931 . S
C131 N129 1.375 . S
C131 C133 1.350 . S
C131 H140 0.930 . S
N132 C130 1.347 . S
N132 C133 1.373 1_565 S
C133 C131 1.350 . S
C133 N132 1.373 1_545 S
C133 H147 0.931 . S
C134 O137 1.256 . S
C134 O138 1.242 1_565 S
O135 Co118 2.021 . S
O135 C128 1.259 . S
O136 Co120 2.117 1_545 S
O136 C128 1.258 . S
O137 Co120 2.020 . S
O137 C134 1.256 . S
O138 Co118 2.068 . S
O138 C134 1.242 1_545 S
O139 C119 1.259 . S
O139 Co120 2.021 . S
H140 C131 0.930 . S
H141 C130 0.931 . S
O142 Co118 2.117 1_565 S
O142 C119 1.258 . S
O143 Co118 2.020 . S
O143 C145 1.256 . S
O144 Co120 2.067 . S
O144 C145 1.245 1_565 S
C145 O143 1.256 . S
C145 O144 1.245 1_545 S
H146 C125 0.931 . S
H147 C133 0.931 . S
Co148 N153 2.057 . S
Co148 O165 2.021 . S
Co148 O168 2.062 . S
Co148 O172 2.117 . S
Co148 O173 2.020 . S
C149 O169 1.259 . S
C149 O172 1.258 . S
Co150 N159 2.057 . S
Co150 O166 2.117 . S
Co150 O167 2.020 . S
Co150 O169 2.021 . S
Co150 O174 2.062 . S
C151 N153 1.316 . S
C151 N154 1.347 . S
C151 H156 0.931 . S
C152 N153 1.375 . S
C152 C155 1.350 . S
C152 H157 0.930 . S
N153 Co148 2.057 . S
N153 C151 1.316 . S
N153 C152 1.375 . S
N154 C151 1.347 . S
N154 C155 1.373 . S
C155 C152 1.350 . S
C155 N154 1.373 . S
C155 H176 0.931 1_556 S
H156 C151 0.931 . S
H157 C152 0.930 . S
C158 O165 1.259 . S
C158 O166 1.258 . S
N159 Co150 2.057 . S
N159 C160 1.316 . S
N159 C161 1.375 . S
C160 N159 1.316 . S
C160 N162 1.347 . S
C160 H171 0.931 . S
C161 N159 1.375 . S
C161 C163 1.350 . S
C161 H170 0.930 . S
N162 C160 1.347 . S
N162 C163 1.373 . S
C163 C161 1.350 . S
C163 N162 1.373 . S
C163 H177 0.931 . S
C164 O167 1.256 . S
C164 O168 1.255 . S
O165 Co148 2.021 . S
O165 C158 1.259 . S
O166 Co150 2.117 . S
O166 C158 1.258 . S
O167 Co150 2.020 . S
O167 C164 1.256 . S
O168 Co148 2.062 . S
O168 C164 1.255 . S
O169 C149 1.259 . S
O169 Co150 2.021 . S
H170 C161 0.930 . S
H171 C160 0.931 . S
O172 Co148 2.117 . S
O172 C149 1.258 . S
O173 Co148 2.020 . S
O173 C175 1.256 . S
O174 Co150 2.062 . S
O174 C175 1.255 . S
C175 O173 1.256 . S
C175 O174 1.255 . S
H176 C155 0.931 1_554 S
H177 C163 0.931 . S
Co178 N183 2.057 . S
Co178 O195 2.021 1_455 S
Co178 O198 2.062 1_455 S
Co178 O202 2.117 . S
Co178 O203 2.020 . S
C179 O199 1.259 . S
C179 O202 1.258 . S
Co180 N189 2.057 . S
Co180 O196 2.117 1_455 S
Co180 O197 2.020 1_455 S
Co180 O199 2.021 . S
Co180 O204 2.062 . S
C181 N183 1.316 . S
C181 N184 1.347 . S
C181 H186 0.931 1_455 S
C182 N183 1.375 . S
C182 C185 1.350 . S
C182 H187 0.930 . S
N183 Co178 2.057 . S
N183 C181 1.316 . S
N183 C182 1.375 . S
N184 C181 1.347 . S
N184 C185 1.373 . S
C185 C182 1.350 . S
C185 N184 1.373 . S
C185 H206 0.931 . S
H186 C181 0.931 1_655 S
H187 C182 0.930 . S
C188 O195 1.259 . S
C188 O196 1.258 . S
N189 Co180 2.057 . S
N189 C190 1.316 . S
N189 C191 1.375 1_455 S
C190 N189 1.316 . S
C190 N192 1.347 . S
C190 H201 0.931 . S
C191 N189 1.375 1_655 S
C191 C193 1.358 . S
C191 H200 0.930 . S
N192 C190 1.347 . S
N192 C193 1.351 1_455 S
C193 C191 1.358 . S
C193 N192 1.351 1_655 S
C193 H207 0.944 . S
C194 O197 1.256 . S
C194 O198 1.255 . S
O195 Co178 2.021 1_655 S
O195 C188 1.259 . S
O196 Co180 2.117 1_655 S
O196 C188 1.258 . S
O197 Co180 2.020 1_655 S
O197 C194 1.256 . S
O198 Co178 2.062 1_655 S
O198 C194 1.255 . S
O199 C179 1.259 . S
O199 Co180 2.021 . S
H200 C191 0.930 . S
H201 C190 0.931 . S
O202 Co178 2.117 . S
O202 C179 1.258 . S
O203 Co178 2.020 . S
O203 C205 1.256 . S
O204 Co180 2.062 . S
O204 C205 1.255 . S
C205 O203 1.256 . S
C205 O204 1.255 . S
H206 C185 0.931 . S
H207 C193 0.944 . S
H208 C214 0.930 . S
H209 C217 0.930 . S
H210 C218 0.930 . S
H211 C219 0.930 . S
H212 C222 0.930 . S
H213 C223 0.930 . S
C214 H208 0.930 . S
C214 C215 1.355 1_545 S
C214 C216 1.415 . S
C215 C214 1.355 1_565 S
C215 C217 1.419 . S
C216 C214 1.415 . S
C216 C221 1.425 1_545 S
C216 C223 1.409 . S
C217 H209 0.930 . S
C217 C215 1.419 . S
C217 C218 1.362 . S
C218 H210 0.930 . S
C218 C217 1.362 . S
C218 C221 1.409 . S
C219 H211 0.930 . S
C219 C220 1.355 . S
C219 C221 1.415 . S
C220 C219 1.355 . S
C220 C222 1.419 1_565 S
C221 C216 1.425 1_565 S
C221 C218 1.409 . S
C221 C219 1.415 . S
C222 H212 0.930 . S
C222 C220 1.419 1_545 S
C222 C223 1.362 . S
C223 H213 0.930 . S
C223 C216 1.409 . S
C223 C222 1.362 . S
H224 C230 0.930 . S
H225 C233 0.930 . S
H226 C234 0.930 . S
H227 C235 0.930 . S
H228 C238 0.930 . S
H229 C239 0.930 . S
C230 H224 0.930 . S
C230 C231 1.355 . S
C230 C232 1.415 . S
C231 C230 1.355 . S
C231 C233 1.419 . S
C232 C230 1.415 . S
C232 C237 1.425 . S
C232 C239 1.409 . S
C233 H225 0.930 . S
C233 C231 1.419 . S
C233 C234 1.362 . S
C234 H226 0.930 . S
C234 C233 1.362 . S
C234 C237 1.409 . S
C235 H227 0.930 . S
C235 C236 1.355 . S
C235 C237 1.415 . S
C236 C235 1.355 . S
C236 C238 1.419 . S
C237 C232 1.425 . S
C237 C234 1.409 . S
C237 C235 1.415 . S
C238 H228 0.930 . S
C238 C236 1.419 . S
C238 C239 1.362 . S
C239 H229 0.930 . S
C239 C232 1.409 . S
C239 C238 1.362 . S
H240 C246 0.930 . S
H241 C249 0.930 . S
H242 C250 0.930 . S
H243 C251 0.930 . S
H244 C254 0.930 . S
H245 C255 0.930 . S
C246 H240 0.930 . S
C246 C247 1.355 . S
C246 C248 1.415 . S
C247 C246 1.355 . S
C247 C249 1.419 . S
C248 C246 1.415 . S
C248 C253 1.425 . S
C248 C255 1.409 . S
C249 H241 0.930 . S
C249 C247 1.419 . S
C249 C250 1.362 . S
C250 H242 0.930 . S
C250 C249 1.362 . S
C250 C253 1.409 . S
C251 H243 0.930 . S
C251 C252 1.355 . S
C251 C253 1.415 . S
C252 C251 1.355 . S
C252 C254 1.419 . S
C253 C248 1.425 . S
C253 C250 1.409 . S
C253 C251 1.415 . S
C254 H244 0.930 . S
C254 C252 1.419 . S
C254 C255 1.362 . S
C255 H245 0.930 . S
C255 C248 1.409 . S
C255 C254 1.362 . S
H256 C262 0.930 . S
H257 C265 0.930 . S
H258 C266 0.930 . S
H259 C267 0.930 . S
H260 C270 0.930 . S
H261 C271 0.930 . S
C262 H256 0.930 . S
C262 C263 1.355 . S
C262 C264 1.415 . S
C263 C262 1.355 . S
C263 C265 1.419 . S
C264 C262 1.415 . S
C264 C269 1.425 . S
C264 C271 1.409 . S
C265 H257 0.930 . S
C265 C263 1.419 . S
C265 C266 1.362 . S
C266 H258 0.930 . S
C266 C265 1.362 . S
C266 C269 1.409 . S
C267 H259 0.930 . S
C267 C268 1.355 . S
C267 C269 1.415 . S
C268 C267 1.355 . S
C268 C270 1.419 . S
C269 C264 1.425 . S
C269 C266 1.409 . S
C269 C267 1.415 . S
C270 H260 0.930 . S
C270 C268 1.419 . S
C270 C271 1.362 . S
C271 H261 0.930 . S
C271 C264 1.409 . S
C271 C270 1.362 . S
H272 C278 0.930 . S
H273 C281 0.930 . S
H274 C282 0.930 . S
H275 C283 0.930 . S
H276 C286 0.930 . S
H277 C287 0.930 . S
C278 H272 0.930 . S
C278 C279 1.355 1_565 S
C278 C280 1.415 . S
C279 C278 1.355 1_545 S
C279 C281 1.419 . S
C280 C278 1.415 . S
C280 C285 1.425 1_565 S
C280 C287 1.409 . S
C281 H273 0.930 . S
C281 C279 1.419 . S
C281 C282 1.362 . S
C282 H274 0.930 . S
C282 C281 1.362 . S
C282 C285 1.409 . S
C283 H275 0.930 . S
C283 C284 1.355 . S
C283 C285 1.415 . S
C284 C283 1.355 . S
C284 C286 1.419 1_545 S
C285 C280 1.425 1_545 S
C285 C282 1.409 . S
C285 C283 1.415 . S
C286 H276 0.930 . S
C286 C284 1.419 1_565 S
C286 C287 1.362 . S
C287 H277 0.930 . S
C287 C280 1.409 . S
C287 C286 1.362 . S
H288 C294 0.930 . S
H289 C297 0.930 . S
H290 C298 0.930 . S
H291 C299 0.930 . S
H292 C302 0.930 . S
H293 C303 0.930 . S
C294 H288 0.930 . S
C294 C295 1.355 1_556 S
C294 C296 1.415 . S
C295 C294 1.355 1_554 S
C295 C297 1.419 . S
C296 C294 1.415 . S
C296 C301 1.425 . S
C296 C303 1.409 . S
C297 H289 0.930 . S
C297 C295 1.419 . S
C297 C298 1.362 . S
C298 H290 0.930 . S
C298 C297 1.362 . S
C298 C301 1.409 1_554 S
C299 H291 0.930 . S
C299 C300 1.355 . S
C299 C301 1.415 . S
C300 C299 1.355 . S
C300 C302 1.419 . S
C301 C296 1.425 . S
C301 C298 1.409 1_556 S
C301 C299 1.415 . S
C302 H292 0.930 . S
C302 C300 1.419 . S
C302 C303 1.362 . S
C303 H293 0.930 . S
C303 C296 1.409 . S
C303 C302 1.362 . S
H304 C310 0.930 1_556 S
H305 C313 0.930 . S
H306 C314 0.930 . S
H307 C315 0.930 1_554 S
H308 C318 0.930 . S
H309 C319 0.930 . S
C310 H304 0.930 1_554 S
C310 C311 1.355 . S
C310 C312 1.415 1_554 S
C311 C310 1.355 . S
C311 C313 1.419 . S
C312 C310 1.415 1_556 S
C312 C317 1.425 1_556 S
C312 C319 1.409 . S
C313 H305 0.930 . S
C313 C311 1.419 . S
C313 C314 1.362 . S
C314 H306 0.930 . S
C314 C313 1.362 . S
C314 C317 1.409 . S
C315 H307 0.930 1_556 S
C315 C316 1.355 . S
C315 C317 1.415 1_556 S
C316 C315 1.355 . S
C316 C318 1.419 . S
C317 C312 1.425 1_554 S
C317 C314 1.409 . S
C317 C315 1.415 1_554 S
C318 H308 0.930 . S
C318 C316 1.419 . S
C318 C319 1.362 . S
C319 H309 0.930 . S
C319 C312 1.409 . S
C319 C318 1.362 . S
H320 C326 0.930 . S
H321 C329 0.930 . S
H322 C330 0.930 . S
H323 C331 0.930 . S
H324 C334 0.930 . S
H325 C335 0.930 . S
C326 H320 0.930 . S
C326 C327 1.355 . S
C326 C328 1.415 1_554 S
C327 C326 1.355 . S
C327 C329 1.419 1_554 S
C328 C326 1.415 1_556 S
C328 C333 1.425 . S
C328 C335 1.409 1_656 S
C329 H321 0.930 . S
C329 C327 1.419 1_556 S
C329 C330 1.362 . S
C330 H322 0.930 . S
C330 C329 1.362 . S
C330 C333 1.409 . S
C331 H323 0.930 . S
C331 C332 1.355 . S
C331 C333 1.415 . S
C332 C331 1.355 . S
C332 C334 1.419 1_655 S
C333 C328 1.425 . S
C333 C330 1.409 . S
C333 C331 1.415 . S
C334 H324 0.930 . S
C334 C332 1.419 1_455 S
C334 C335 1.362 1_556 S
C335 H325 0.930 . S
C335 C328 1.409 1_454 S
C335 C334 1.362 1_554 S
H336 C342 0.930 . S
H337 C345 0.930 . S
H338 C346 0.930 . S
H339 C347 0.930 1_655 S
H340 C350 0.930 . S
H341 C351 0.930 . S
C342 H336 0.930 . S
C342 C343 1.355 . S
C342 C344 1.415 . S
C343 C342 1.355 . S
C343 C345 1.419 . S
C344 C342 1.415 . S
C344 C349 1.425 . S
C344 C351 1.409 . S
C345 H337 0.930 . S
C345 C343 1.419 . S
C345 C346 1.362 . S
C346 H338 0.930 . S
C346 C345 1.362 . S
C346 C349 1.409 . S
C347 H339 0.930 1_455 S
C347 C348 1.355 . S
C347 C349 1.415 . S
C348 C347 1.355 . S
C348 C350 1.419 . S
C349 C344 1.425 . S
C349 C346 1.409 . S
C349 C347 1.415 . S
C350 H340 0.930 . S
C350 C348 1.419 . S
C350 C351 1.362 . S
C351 H341 0.930 . S
C351 C344 1.409 . S
C351 C350 1.362 . S
H352 C358 0.930 . S
H353 C361 0.930 . S
H354 C362 0.936 . S
H355 C363 0.931 1_545 S
H356 C366 0.930 . S
H357 C367 0.930 . S
C358 H352 0.930 . S
C358 C359 1.363 . S
C358 C360 1.415 . S
C359 C358 1.363 . S
C359 C361 1.412 1_565 S
C360 C358 1.415 . S
C360 C365 1.425 . S
C360 C367 1.409 . S
C361 H353 0.930 . S
C361 C359 1.412 1_545 S
C361 C362 1.362 . S
C362 H354 0.936 . S
C362 C361 1.362 . S
C362 C365 1.404 1_545 S
C363 H355 0.931 1_565 S
C363 C364 1.355 . S
C363 C365 1.415 . S
C364 C363 1.355 . S
C364 C366 1.419 . S
C365 C360 1.425 . S
C365 C362 1.404 1_565 S
C365 C363 1.415 . S
C366 H356 0.930 . S
C366 C364 1.419 . S
C366 C367 1.362 . S
C367 H357 0.930 . S
C367 C360 1.409 . S
C367 C366 1.362 . S
H368 C374 0.930 . S
H369 C377 0.930 . S
H370 C378 0.930 . S
H371 C379 0.930 . S
H372 C382 0.930 . S
H373 C383 0.930 . S
C374 H368 0.930 . S
C374 C375 1.355 . S
C374 C376 1.415 . S
C375 C374 1.355 . S
C375 C377 1.419 . S
C376 C374 1.415 . S
C376 C381 1.425 . S
C376 C383 1.409 . S
C377 H369 0.930 . S
C377 C375 1.419 . S
C377 C378 1.362 . S
C378 H370 0.930 . S
C378 C377 1.362 . S
C378 C381 1.409 . S
C379 H371 0.930 . S
C379 C380 1.355 . S
C379 C381 1.415 . S
C380 C379 1.355 . S
C380 C382 1.419 . S
C381 C376 1.425 . S
C381 C378 1.409 . S
C381 C379 1.415 . S
C382 H372 0.930 . S
C382 C380 1.419 . S
C382 C383 1.362 . S
C383 H373 0.930 . S
C383 C376 1.409 . S
C383 C382 1.362 . S
H384 C390 0.930 . S
H385 C393 0.930 . S
H386 C394 0.930 . S
H387 C395 0.930 . S
H388 C398 0.930 . S
H389 C399 0.930 . S
C390 H384 0.930 . S
C390 C391 1.355 . S
C390 C392 1.415 . S
C391 C390 1.355 . S
C391 C393 1.419 . S
C392 C390 1.415 . S
C392 C397 1.425 . S
C392 C399 1.409 . S
C393 H385 0.930 . S
C393 C391 1.419 . S
C393 C394 1.362 . S
C394 H386 0.930 . S
C394 C393 1.362 . S
C394 C397 1.409 . S
C395 H387 0.930 . S
C395 C396 1.355 . S
C395 C397 1.415 . S
C396 C395 1.355 . S
C396 C398 1.419 . S
C397 C392 1.425 . S
C397 C394 1.409 . S
C397 C395 1.415 . S
C398 H388 0.930 . S
C398 C396 1.419 . S
C398 C399 1.362 . S
C399 H389 0.930 . S
C399 C392 1.409 . S
C399 C398 1.362 . S
H400 C406 0.930 . S
H401 C409 0.930 . S
H402 C410 0.930 . S
H403 C411 0.930 . S
H404 C414 0.930 . S
H405 C415 0.930 . S
C406 H400 0.930 . S
C406 C407 1.355 . S
C406 C408 1.415 1_554 S
C407 C406 1.355 . S
C407 C409 1.419 . S
C408 C406 1.415 1_556 S
C408 C413 1.425 . S
C408 C415 1.409 1_655 S
C409 H401 0.930 . S
C409 C407 1.419 . S
C409 C410 1.362 1_554 S
C410 H402 0.930 . S
C410 C409 1.362 1_556 S
C410 C413 1.409 . S
C411 H403 0.930 . S
C411 C412 1.355 1_655 S
C411 C413 1.415 . S
C412 C411 1.355 1_455 S
C412 C414 1.419 . S
C413 C408 1.425 . S
C413 C410 1.409 . S
C413 C411 1.415 . S
C414 H404 0.930 . S
C414 C412 1.419 . S
C414 C415 1.362 . S
C415 H405 0.930 . S
C415 C408 1.409 1_455 S
C415 C414 1.362 . S
H416 C422 0.930 . S
H417 C425 0.930 . S
H418 C426 0.930 . S
H419 C427 0.930 . S
H420 C430 0.930 1_564 S
H421 C431 0.930 . S
C422 H416 0.930 . S
C422 C423 1.355 1_554 S
C422 C424 1.414 1_554 S
C423 C422 1.355 1_556 S
C423 C425 1.419 1_565 S
C424 C422 1.414 1_556 S
C424 C429 1.426 1_565 S
C424 C431 1.409 1_556 S
C425 H417 0.930 . S
C425 C423 1.419 1_545 S
C425 C426 1.362 . S
C426 H418 0.930 . S
C426 C425 1.362 . S
C426 C429 1.409 . S
C427 H419 0.930 . S
C427 C428 1.355 . S
C427 C429 1.415 . S
C428 C427 1.355 . S
C428 C430 1.419 . S
C429 C424 1.426 1_545 S
C429 C426 1.409 . S
C429 C427 1.415 . S
C430 H420 0.930 1_546 S
C430 C428 1.419 . S
C430 C431 1.362 1_546 S
C431 H421 0.930 . S
C431 C424 1.409 1_554 S
C431 C430 1.362 1_564 S
H432 C438 0.930 . S
H433 C441 0.930 . S
H434 C442 0.930 . S
H435 C443 0.930 . S
H436 C446 0.930 . S
H437 C447 0.930 . S
C438 H432 0.930 . S
C438 C439 1.355 . S
C438 C440 1.415 1_554 S
C439 C438 1.355 . S
C439 C441 1.419 . S
C440 C438 1.415 1_556 S
C440 C445 1.425 . S
C440 C447 1.409 . S
C441 H433 0.930 . S
C441 C439 1.419 . S
C441 C442 1.362 1_554 S
C442 H434 0.930 . S
C442 C441 1.362 1_556 S
C442 C445 1.409 . S
C443 H435 0.930 . S
C443 C444 1.355 . S
C443 C445 1.415 . S
C444 C443 1.355 . S
C444 C446 1.419 . S
C445 C440 1.425 . S
C445 C442 1.409 . S
C445 C443 1.415 . S
C446 H436 0.930 . S
C446 C444 1.419 . S
C446 C447 1.362 . S
C447 H437 0.930 . S
C447 C440 1.409 . S
C447 C446 1.362 . S
H448 C454 0.930 . S
H449 C457 0.930 . S
H450 C458 0.930 . S
H451 C459 0.930 . S
H452 C462 0.930 . S
H453 C463 0.930 . S
C454 H448 0.930 . S
C454 C455 1.355 . S
C454 C456 1.415 . S
C455 C454 1.355 . S
C455 C457 1.419 . S
C456 C454 1.415 . S
C456 C461 1.425 1_554 S
C456 C463 1.409 . S
C457 H449 0.930 . S
C457 C455 1.419 . S
C457 C458 1.362 1_554 S
C458 H450 0.930 . S
C458 C457 1.362 1_556 S
C458 C461 1.409 . S
C459 H451 0.930 . S
C459 C460 1.355 . S
C459 C461 1.415 . S
C460 C459 1.355 . S
C460 C462 1.419 1_556 S
C461 C456 1.425 1_556 S
C461 C458 1.409 . S
C461 C459 1.415 . S
C462 H452 0.930 . S
C462 C460 1.419 1_554 S
C462 C463 1.362 . S
C463 H453 0.930 . S
C463 C456 1.409 . S
C463 C462 1.362 . S
H464 C470 0.930 . S
H465 C473 0.930 . S
H466 C474 0.930 . S
H467 C475 0.930 . S
H468 C478 0.930 . S
H469 C479 0.930 . S
C470 H464 0.930 . S
C470 C471 1.355 . S
C470 C472 1.415 . S
C471 C470 1.355 . S
C471 C473 1.419 . S
C472 C470 1.415 . S
C472 C477 1.425 . S
C472 C479 1.409 . S
C473 H465 0.930 . S
C473 C471 1.419 . S
C473 C474 1.362 . S
C474 H466 0.930 . S
C474 C473 1.362 . S
C474 C477 1.409 . S
C475 H467 0.930 . S
C475 C476 1.355 . S
C475 C477 1.415 . S
C476 C475 1.355 . S
C476 C478 1.419 . S
C477 C472 1.425 . S
C477 C474 1.409 . S
C477 C475 1.415 . S
C478 H468 0.930 . S
C478 C476 1.419 . S
C478 C479 1.362 . S
C479 H469 0.930 . S
C479 C472 1.409 . S
C479 C478 1.362 . S
H480 C486 0.930 . S
H481 C489 0.930 . S
H482 C490 0.930 . S
H483 C491 0.930 . S
H484 C494 0.930 . S
H485 C495 0.930 . S
C486 H480 0.930 . S
C486 C487 1.355 1_565 S
C486 C488 1.415 . S
C487 C486 1.355 1_545 S
C487 C489 1.419 . S
C488 C486 1.415 . S
C488 C493 1.425 1_565 S
C488 C495 1.409 . S
C489 H481 0.930 . S
C489 C487 1.419 . S
C489 C490 1.362 . S
C490 H482 0.930 . S
C490 C489 1.362 . S
C490 C493 1.409 . S
C491 H483 0.930 . S
C491 C492 1.355 . S
C491 C493 1.415 . S
C492 C491 1.355 . S
C492 C494 1.419 1_545 S
C493 C488 1.425 1_545 S
C493 C490 1.409 . S
C493 C491 1.415 . S
C494 H484 0.930 . S
C494 C492 1.419 1_565 S
C494 C495 1.362 . S
C495 H485 0.930 . S
C495 C488 1.409 . S
C495 C494 1.362 . S
H496 C502 0.930 . S
H497 C505 0.930 . S
H498 C506 0.930 . S
H499 C507 0.930 . S
H500 C510 0.930 . S
H501 C511 0.930 . S
C502 H496 0.930 . S
C502 C503 1.355 . S
C502 C504 1.415 . S
C503 C502 1.355 . S
C503 C505 1.419 . S
C504 C502 1.415 . S
C504 C509 1.425 . S
C504 C511 1.409 . S
C505 H497 0.930 . S
C505 C503 1.419 . S
C505 C506 1.362 . S
C506 H498 0.930 . S
C506 C505 1.362 . S
C506 C509 1.409 . S
C507 H499 0.930 . S
C507 C508 1.355 . S
C507 C509 1.415 . S
C508 C507 1.355 . S
C508 C510 1.419 1_554 S
C509 C504 1.425 . S
C509 C506 1.409 . S
C509 C507 1.415 . S
C510 H500 0.930 . S
C510 C508 1.419 1_556 S
C510 C511 1.362 1_556 S
C511 H501 0.930 . S
C511 C504 1.409 . S
C511 C510 1.362 1_554 S
H512 C518 0.930 . S
H513 C521 0.930 . S
H514 C522 0.930 . S
H515 C523 0.941 . S
H516 C526 0.930 . S
H517 C527 0.930 . S
C518 H512 0.930 . S
C518 C519 1.355 . S
C518 C520 1.415 . S
C519 C518 1.355 . S
C519 C521 1.419 . S
C520 C518 1.415 . S
C520 C525 1.425 . S
C520 C527 1.409 . S
C521 H513 0.930 . S
C521 C519 1.419 . S
C521 C522 1.362 . S
C522 H514 0.930 . S
C522 C521 1.362 . S
C522 C525 1.409 . S
C523 H515 0.941 . S
C523 C524 1.354 1_556 S
C523 C525 1.404 1_556 S
C524 C523 1.354 1_554 S
C524 C526 1.419 . S
C525 C520 1.425 . S
C525 C522 1.409 . S
C525 C523 1.404 1_554 S
C526 H516 0.930 . S
C526 C524 1.419 . S
C526 C527 1.362 . S
C527 H517 0.930 . S
C527 C520 1.409 . S
C527 C526 1.362 . S
H528 C534 0.930 . S
H529 C537 0.930 1_455 S
H530 C538 0.930 . S
H531 C539 0.930 1_455 S
H532 C542 0.930 . S
H533 C543 0.930 . S
C534 H528 0.930 . S
C534 C535 1.355 . S
C534 C536 1.415 . S
C535 C534 1.355 . S
C535 C537 1.419 . S
C536 C534 1.415 . S
C536 C541 1.425 . S
C536 C543 1.409 . S
C537 H529 0.930 1_655 S
C537 C535 1.419 . S
C537 C538 1.362 1_655 S
C538 H530 0.930 . S
C538 C537 1.362 1_455 S
C538 C541 1.409 1_455 S
C539 H531 0.930 1_655 S
C539 C540 1.355 . S
C539 C541 1.415 . S
C540 C539 1.355 . S
C540 C542 1.419 . S
C541 C536 1.425 . S
C541 C538 1.409 1_655 S
C541 C539 1.415 . S
C542 H532 0.930 . S
C542 C540 1.419 . S
C542 C543 1.362 . S
C543 H533 0.930 . S
C543 C536 1.409 . S
C543 C542 1.362 . S
H544 C550 0.930 . S
H545 C553 0.930 . S
H546 C554 0.930 . S
H547 C555 0.930 . S
H548 C558 0.930 . S
H549 C559 0.930 . S
C550 H544 0.930 . S
C550 C551 1.355 1_565 S
C550 C552 1.415 . S
C551 C550 1.355 1_545 S
C551 C553 1.419 . S
C552 C550 1.415 . S
C552 C557 1.425 1_565 S
C552 C559 1.409 . S
C553 H545 0.930 . S
C553 C551 1.419 . S
C553 C554 1.362 . S
C554 H546 0.930 . S
C554 C553 1.362 . S
C554 C557 1.409 . S
C555 H547 0.930 . S
C555 C556 1.355 1_545 S
C555 C557 1.415 . S
C556 C555 1.355 1_565 S
C556 C558 1.419 . S
C557 C552 1.425 1_545 S
C557 C554 1.409 . S
C557 C555 1.415 . S
C558 H548 0.930 . S
C558 C556 1.419 . S
C558 C559 1.362 . S
C559 H549 0.930 . S
C559 C552 1.409 . S
C559 C558 1.362 . S
H560 C566 0.930 . S
H561 C569 0.930 . S
H562 C570 0.930 . S
H563 C571 0.930 . S
H564 C574 0.930 . S
H565 C575 0.930 . S
C566 H560 0.930 . S
C566 C567 1.355 . S
C566 C568 1.415 . S
C567 C566 1.355 . S
C567 C569 1.419 . S
C568 C566 1.415 . S
C568 C573 1.425 . S
C568 C575 1.409 . S
C569 H561 0.930 . S
C569 C567 1.419 . S
C569 C570 1.362 . S
C570 H562 0.930 . S
C570 C569 1.362 . S
C570 C573 1.409 . S
C571 H563 0.930 . S
C571 C572 1.355 . S
C571 C573 1.415 . S
C572 C571 1.355 . S
C572 C574 1.419 . S
C573 C568 1.425 . S
C573 C570 1.409 . S
C573 C571 1.415 . S
C574 H564 0.930 . S
C574 C572 1.419 . S
C574 C575 1.362 . S
C575 H565 0.930 . S
C575 C568 1.409 . S
C575 C574 1.362 . S
H576 C582 0.930 . S
H577 C585 0.930 . S
H578 C586 0.930 . S
H579 C587 0.930 . S
H580 C590 0.930 . S
H581 C591 0.930 . S
C582 H576 0.930 . S
C582 C583 1.355 . S
C582 C584 1.415 . S
C583 C582 1.355 . S
C583 C585 1.419 . S
C584 C582 1.415 . S
C584 C589 1.425 . S
C584 C591 1.409 . S
C585 H577 0.930 . S
C585 C583 1.419 . S
C585 C586 1.362 . S
C586 H578 0.930 . S
C586 C585 1.362 . S
C586 C589 1.409 . S
C587 H579 0.930 . S
C587 C588 1.355 . S
C587 C589 1.415 . S
C588 C587 1.355 . S
C588 C590 1.419 . S
C589 C584 1.425 . S
C589 C586 1.409 . S
C589 C587 1.415 . S
C590 H580 0.930 . S
C590 C588 1.419 . S
C590 C591 1.362 . S
C591 H581 0.930 . S
C591 C584 1.409 . S
C591 C590 1.362 . S
C215 C76 1.662 . S
C220 C98 1.678 . S
C236 C128 1.798 . S
C231 C87 1.787 . S
C252 N162 1.323 . S
C247 C54 1.354 . S
C268 N192 1.455 . S
C263 C65 1.414 . S
C284 C89 1.680 . S
C279 C32 1.682 1_546 S
C295 C43 1.790 . S
C300 C119 1.797 . S
C311 C10 1.419 . S
C316 N154 1.380 . S
C327 C21 1.413 . S
C332 N184 1.387 1_655 S
C348 C104 0.475 . S
C343 C60 0.479 . S
C364 C134 0.934 . S
C359 C71 0.960 1_565 S
C380 C175 1.208 . S
C375 C82 1.176 . S
C391 C49 0.744 . S
C396 C205 0.704 . S
C407 C16 0.638 . S
C412 C115 0.610 . S
C428 C145 0.941 . S
C423 C27 0.955 1_566 S
C444 C164 1.201 . S
C439 C38 1.158 . S
C455 C5 0.751 . S
C460 C194 0.749 . S
C471 C59 1.487 . S
C476 N94 1.447 . S
C487 C70 1.394 . S
C492 N124 1.399 . S
C508 C149 1.649 1_554 S
C503 C81 1.599 . S
C524 C179 1.593 1_554 S
C519 C48 1.580 . S
C535 C15 1.431 . S
C540 N102 1.504 . S
C556 N132 1.451 . S
C551 C26 1.451 . S
C572 C158 1.652 . S
C567 C37 1.601 . S
C583 C4 1.576 . S
C588 C188 1.593 . S
