# Generated by pormake.
# Topology pth, (4,4)-cn, num edge types: 1
# Building blocks:
#     Node 0, Type 0, BuildingBlock: TATPOV_clean_sbu_0, # of connection points: 4
#     Node 1, Type 0, BuildingBlock: TATPOV_clean_sbu_0, # of connection points: 4
#     Node 2, Type 0, BuildingBlock: TATPOV_clean_sbu_0, # of connection points: 4
#     Node 3, Type 1, BuildingBlock: NAHDIM_clean_linker_0, # of connection points: 4
#     Node 4, Type 1, BuildingBlock: NAHDIM_clean_linker_0, # of connection points: 4
#     Node 5, Type 1, BuildingBlock: NAHDIM_clean_linker_0, # of connection points: 4
#     Edge 6, Type (0, 1), BuildingBlock: XIVTED_clean_linker_0, # of connection points: 2
#     Edge 7, Type (0, 1), BuildingBlock: XIVTED_clean_linker_0, # of connection points: 2
#     Edge 8, Type (0, 1), BuildingBlock: XIVTED_clean_linker_0, # of connection points: 2
#     Edge 9, Type (0, 1), BuildingBlock: XIVTED_clean_linker_0, # of connection points: 2
#     Edge 10, Type (0, 1), BuildingBlock: XIVTED_clean_linker_0, # of connection points: 2
#     Edge 11, Type (0, 1), BuildingBlock: XIVTED_clean_linker_0, # of connection points: 2
#     Edge 12, Type (0, 1), BuildingBlock: XIVTED_clean_linker_0, # of connection points: 2
#     Edge 13, Type (0, 1), BuildingBlock: XIVTED_clean_linker_0, # of connection points: 2
#     Edge 14, Type (0, 1), BuildingBlock: XIVTED_clean_linker_0, # of connection points: 2
#     Edge 15, Type (0, 1), BuildingBlock: XIVTED_clean_linker_0, # of connection points: 2
#     Edge 16, Type (0, 1), BuildingBlock: XIVTED_clean_linker_0, # of connection points: 2
#     Edge 17, Type (0, 1), BuildingBlock: XIVTED_clean_linker_0, # of connection points: 2
# Relax obj value: 0.054
# Max RMSD: 0.173
# Mean RMSD: 0.111
data_MOF--net-pth--node1-TATPOV_clean_sbu_0--node2-NAHDIM_clean_linker_0--edge1-XIVTED_clean_linker_0
_symmetry_space_group_name_H-M    P1
_symmetry_Int_Tables_number       1
_symmetry_cell_setting            triclinic
loop_
_symmetry_equiv_pos_as_xyz
'x, y, z'
_cell_length_a     32.02989
_cell_length_b     31.636939
_cell_length_c     79.037599
_cell_angle_alpha  92.086572
_cell_angle_beta   92.549397
_cell_angle_gamma 121.03808
loop_
_atom_site_label
_atom_site_type_symbol
_atom_site_fract_x
_atom_site_fract_y
_atom_site_fract_z
_atom_type_partial_charge
Zn0 Zn 0.15883 0.04191 0.0451 0.0
Zn1 Zn 0.11466 0.0828 0.06112 0.0
O2 O 0.127 0.04423 0.07899 0.0
O3 O 0.16175 0.00867 0.06619 0.0
O4 O 0.09267 0.12139 0.07534 0.0
O5 O 0.21413 0.10718 0.03852 0.0
O6 O 0.17224 0.13767 0.04926 0.0
C7 C 0.14425 0.01586 0.07929 0.0
C8 C 0.05836 0.00842 0.03186 0.0
O9 O 0.0574 0.03483 0.04424 0.0
O10 O 0.09675 0.00743 0.02947 0.0
C11 C 0.09699 0.16165 0.0709 0.0
O12 O 0.11196 0.17665 0.05586 0.0
C13 C 0.20815 0.14334 0.04117 0.0
Zn14 Zn 0.11484 0.09828 0.35524 0.0
Zn15 Zn 0.04347 0.08451 0.37612 0.0
O16 O 0.09828 0.09231 0.39257 0.0
O17 O 0.15534 0.09994 0.37618 0.0
O18 O 0.99238 0.0769 0.39197 0.0
O19 O 0.11933 0.16105 0.34782 0.0
O20 O 0.05994 0.1471 0.36401 0.0
C21 C 0.13982 0.09714 0.39083 0.0
C22 C 0.02465 0.00408 0.34866 0.0
O23 O 0.01137 0.01906 0.36138 0.0
O24 O 0.06607 0.03183 0.34306 0.0
C25 C 0.96361 0.09273 0.38906 0.0
O26 O 0.96507 0.11322 0.37477 0.0
C27 C 0.0905 0.17341 0.3535 0.0
Zn28 Zn 0.07836 0.98891 0.74915 0.0
Zn29 Zn 0.01649 0.99571 0.72741 0.0
O30 O 0.06008 0.98446 0.71173 0.0
O31 O 0.11112 0.97835 0.72962 0.0
O32 O 0.96764 0.99731 0.7108 0.0
O33 O 0.02459 0.93144 0.75946 0.0
O34 O 0.97253 0.93676 0.74186 0.0
C35 C 0.09604 0.9783 0.71453 0.0
C36 C 0.08483 0.08277 0.75254 0.0
O37 O 0.05314 0.06527 0.73992 0.0
O38 O 0.10039 0.05698 0.75897 0.0
C39 C 0.97829 0.03437 0.70221 0.0
O40 O 0.02246 0.0737 0.70435 0.0
C41 C 0.98109 0.91595 0.75396 0.0
C42 C 0.81411 0.61564 0.31437 0.0
C43 C 0.86722 0.64578 0.3098 0.0
C44 C 0.90109 0.62877 0.28536 0.0
C45 C 0.9514 0.6589 0.28962 0.0
C46 C 0.98472 0.64971 0.28175 0.0
C47 C 0.96701 0.60841 0.26984 0.0
C48 C 0.91595 0.57753 0.26581 0.0
C49 C 0.88386 0.58917 0.27326 0.0
C50 C 0.03873 0.68423 0.28616 0.0
C51 C 0.8948 0.53167 0.25389 0.0
C52 C 0.1717 0.53726 0.34728 0.0
C53 C 0.13489 0.50463 0.3326 0.0
C54 C 0.1296 0.52892 0.30405 0.0
C55 C 0.07978 0.4951 0.29979 0.0
C56 C 0.05463 0.50328 0.28654 0.0
C57 C 0.07968 0.54664 0.27764 0.0
C58 C 0.13039 0.57985 0.28157 0.0
C59 C 0.15484 0.56984 0.2945 0.0
C60 C 0.00106 0.46615 0.28235 0.0
C61 C 0.15848 0.62703 0.27266 0.0
C62 C 0.11526 0.46774 0.16866 0.0
C63 C 0.06766 0.44528 0.17396 0.0
C64 C 0.05133 0.47346 0.1823 0.0
C65 C 0.08344 0.52515 0.18548 0.0
C66 C 0.13113 0.54799 0.17981 0.0
C67 C 0.1462 0.51896 0.17126 0.0
C68 C 0.99956 0.44803 0.18755 0.0
C69 C 0.16621 0.60296 0.18287 0.0
C70 C 0.92378 0.75748 0.1571 0.0
C71 C 0.97177 0.75818 0.1595 0.0
C72 C 0.98145 0.68703 0.16276 0.0
C73 C 0.9538 0.63543 0.16178 0.0
C74 C 0.96945 0.60812 0.17083 0.0
C75 C 0.0146 0.6333 0.18071 0.0
C76 C 0.0442 0.68547 0.18088 0.0
C77 C 0.02712 0.71188 0.172 0.0
C78 C 0.93705 0.55258 0.17029 0.0
C79 C 0.0934 0.71341 0.19076 0.0
C80 C 0.00129 0.59611 0.26206 0.0
C81 C 0.02382 0.57742 0.27234 0.0
C82 C 0.05225 0.56007 0.26553 0.0
C83 C 0.05599 0.55846 0.24778 0.0
C84 C 0.0796 0.53628 0.24022 0.0
C85 C 0.08282 0.53483 0.2227 0.0
C86 C 0.06362 0.55659 0.21215 0.0
C87 C 0.0664 0.55518 0.19433 0.0
C88 C 0.05032 0.58056 0.18443 0.0
C89 C 0.02946 0.60559 0.19175 0.0
C90 C 0.02283 0.60401 0.20933 0.0
C91 C 0.99859 0.62554 0.2169 0.0
C92 C 0.99167 0.62322 0.23416 0.0
C93 C 0.00929 0.59987 0.24458 0.0
C94 C 0.0354 0.57955 0.23734 0.0
C95 C 0.04076 0.58018 0.2196 0.0
C96 C 0.17331 0.40713 0.17483 0.0
C97 C 0.12586 0.39689 0.16545 0.0
O98 O 0.86835 0.63748 0.29254 0.0
O99 O 0.96287 0.71151 0.15465 0.0
O100 O 0.13179 0.44124 0.16054 0.0
O101 O 0.15422 0.52366 0.31742 0.0
H102 H 0.88808 0.63218 0.31711 0.0
H103 H 0.79869 0.57592 0.31051 0.0
H104 H 0.7917 0.62838 0.3077 0.0
H105 H 0.8117 0.6191 0.32828 0.0
H106 H 0.96462 0.69008 0.29884 0.0
H107 H 0.84484 0.56628 0.27008 0.0
H108 H 0.05238 0.6662 0.2947 0.0
H109 H 0.04674 0.71954 0.29274 0.0
H110 H 0.05919 0.6926 0.27455 0.0
H111 H 0.85527 0.50605 0.25533 0.0
H112 H 0.91422 0.51148 0.25609 0.0
H113 H 0.89893 0.5424 0.24058 0.0
H114 H 0.10124 0.50611 0.33421 0.0
H115 H 0.15683 0.52315 0.35964 0.0
H116 H 0.17921 0.57562 0.34688 0.0
H117 H 0.20668 0.53816 0.34637 0.0
H118 H 0.06049 0.46247 0.30684 0.0
H119 H 0.19345 0.59531 0.2978 0.0
H120 H 0.99255 0.45972 0.26839 0.0
H121 H 0.97914 0.48088 0.28761 0.0
H122 H 0.98964 0.43023 0.28783 0.0
H123 H 0.19601 0.65163 0.27867 0.0
H124 H 0.13898 0.64761 0.27269 0.0
H125 H 0.16138 0.61797 0.25923 0.0
H126 H 0.09656 0.3796 0.1744 0.0
H127 H 0.0429 0.4059 0.17129 0.0
H128 H 0.18263 0.53603 0.16685 0.0
H129 H 3e-05 0.44988 0.20161 0.0
H130 H 0.97784 0.40856 0.18273 0.0
H131 H 0.981 0.46724 0.18279 0.0
H132 H 0.20336 0.61438 0.17904 0.0
H133 H 0.16884 0.6144 0.19652 0.0
H134 H 0.15225 0.62297 0.17553 0.0
H135 H 0.98391 0.76738 0.17327 0.0
H136 H 0.92905 0.79386 0.16141 0.0
H137 H 0.89597 0.72883 0.16474 0.0
H138 H 0.90975 0.7488 0.14354 0.0
H139 H 0.91895 0.61664 0.15437 0.0
H140 H 0.04944 0.75181 0.17231 0.0
H141 H 0.92904 0.54049 0.18338 0.0
H142 H 0.95633 0.53519 0.16475 0.0
H143 H 0.90196 0.53882 0.16264 0.0
H144 H 0.1149 0.75265 0.18759 0.0
H145 H 0.11479 0.69554 0.18819 0.0
H146 H 0.08814 0.71257 0.20455 0.0
H147 H 0.01915 0.57633 0.28586 0.0
H148 H 0.09517 0.51919 0.24777 0.0
H149 H 0.10102 0.51692 0.21754 0.0
H150 H 0.05358 0.58036 0.17082 0.0
H151 H 0.98406 0.64387 0.20952 0.0
H152 H 0.97258 0.64021 0.23929 0.0
H153 H 0.20412 0.42444 0.16649 0.0
H154 H 0.16939 0.37222 0.17907 0.0
H155 H 0.18211 0.43271 0.18623 0.0
C156 C 0.25913 0.9301 0.60557 0.0
C157 C 0.2906 0.95403 0.62228 0.0
C158 C 0.37176 0.01504 0.6133 0.0
C159 C 0.4051 0.06548 0.61225 0.0
C160 C 0.44965 0.08213 0.60491 0.0
C161 C 0.46097 0.04728 0.5984 0.0
C162 C 0.42798 0.9962 0.59975 0.0
C163 C 0.38377 0.98058 0.60718 0.0
C164 C 0.48411 0.13684 0.6037 0.0
C165 C 0.43905 0.95802 0.59302 0.0
C166 C 0.7653 0.02165 0.64412 0.0
C167 C 0.72584 0.01735 0.63237 0.0
C168 C 0.69612 0.06628 0.61923 0.0
C169 C 0.662 0.02752 0.60768 0.0
C170 C 0.62777 0.03238 0.59761 0.0
C171 C 0.6279 0.0772 0.5989 0.0
C172 C 0.66321 0.11693 0.61006 0.0
C173 C 0.69698 0.11095 0.62007 0.0
C174 C 0.59079 0.98908 0.58582 0.0
C175 C 0.66468 0.16533 0.61158 0.0
C176 C 0.7059 0.11687 0.48968 0.0
C177 C 0.67436 0.07049 0.49572 0.0
C178 C 0.63465 0.06258 0.50488 0.0
C179 C 0.62664 0.10207 0.50816 0.0
C180 C 0.6577 0.14851 0.50169 0.0
C181 C 0.69664 0.15509 0.49233 0.0
C182 C 0.60115 0.01195 0.51098 0.0
C183 C 0.64994 0.19124 0.50478 0.0
C184 C 0.233 0.9737 0.49705 0.0
C185 C 0.28021 0.01672 0.49119 0.0
C186 C 0.35826 0.01954 0.49325 0.0
C187 C 0.37616 0.98787 0.49489 0.0
C188 C 0.42341 0.00522 0.50215 0.0
C189 C 0.45376 0.05589 0.50754 0.0
C190 C 0.43709 0.08888 0.50478 0.0
C191 C 0.38932 0.07033 0.49767 0.0
C192 C 0.44016 0.96904 0.50466 0.0
C193 C 0.46912 0.14332 0.50992 0.0
C194 C 0.50551 0.06373 0.58907 0.0
C195 C 0.54732 0.06983 0.59784 0.0
C196 C 0.58885 0.08071 0.58939 0.0
C197 C 0.58957 0.08772 0.5718 0.0
C198 C 0.63122 0.10035 0.56299 0.0
C199 C 0.63043 0.10398 0.54548 0.0
C200 C 0.5877 0.09434 0.53607 0.0
C201 C 0.58532 0.09444 0.51813 0.0
C202 C 0.54191 0.08387 0.5092 0.0
C203 C 0.50047 0.07285 0.5177 0.0
C204 C 0.50234 0.07313 0.53561 0.0
C205 C 0.4612 0.06205 0.54452 0.0
C206 C 0.46255 0.06016 0.56205 0.0
C207 C 0.50486 0.06857 0.57137 0.0
C208 C 0.54704 0.08062 0.56271 0.0
C209 C 0.54591 0.08335 0.5448 0.0
C210 C 0.81868 0.15307 0.49779 0.0
C211 C 0.7785 0.11233 0.48555 0.0
O212 O 0.32856 0.00155 0.62006 0.0
O213 O 0.31095 0.99957 0.48735 0.0
O214 O 0.74464 0.12546 0.48085 0.0
O215 O 0.72791 0.06154 0.62986 0.0
H216 H 0.30551 0.93092 0.62649 0.0
H217 H 0.28086 0.92577 0.59586 0.0
H218 H 0.24518 0.95318 0.60052 0.0
H219 H 0.22765 0.89281 0.60758 0.0
H220 H 0.39575 0.09187 0.61704 0.0
H221 H 0.35874 0.94138 0.60786 0.0
H222 H 0.52116 0.14782 0.60915 0.0
H223 H 0.47165 0.15938 0.61042 0.0
H224 H 0.48714 0.14536 0.59015 0.0
H225 H 0.40917 0.91962 0.59472 0.0
H226 H 0.47317 0.96421 0.59971 0.0
H227 H 0.44511 0.96191 0.5793 0.0
H228 H 0.68846 0.98591 0.6343 0.0
H229 H 0.7461 0.99943 0.65512 0.0
H230 H 0.78221 0.0586 0.6516 0.0
H231 H 0.80846 0.00252 0.62728 0.0
H232 H 0.66146 0.99304 0.60657 0.0
H233 H 0.72363 0.14087 0.62887 0.0
H234 H 0.59694 0.99905 0.57246 0.0
H235 H 0.55323 0.97997 0.58818 0.0
H236 H 0.59308 0.95554 0.58731 0.0
H237 H 0.6972 0.19421 0.61955 0.0
H238 H 0.63129 0.15959 0.61734 0.0
H239 H 0.66491 0.17883 0.59879 0.0
H240 H 0.76098 0.07751 0.4922 0.0
H241 H 0.68002 0.04009 0.49302 0.0
H242 H 0.72075 0.19052 0.48734 0.0
H243 H 0.60538 0.01365 0.52504 0.0
H244 H 0.60907 0.98393 0.50577 0.0
H245 H 0.56246 0.99956 0.50729 0.0
H246 H 0.67933 0.22593 0.49994 0.0
H247 H 0.64837 0.19765 0.51858 0.0
H248 H 0.6144 0.18208 0.49839 0.0
H249 H 0.29667 0.04559 0.50193 0.0
H250 H 0.20785 0.98632 0.50068 0.0
H251 H 0.24149 0.95868 0.50831 0.0
H252 H 0.2143 0.94357 0.48679 0.0
H253 H 0.35216 0.94893 0.49107 0.0
H254 H 0.37635 0.09545 0.49569 0.0
H255 H 0.44923 0.96885 0.51838 0.0
H256 H 0.47385 0.98074 0.498 0.0
H257 H 0.41201 0.93079 0.49982 0.0
H258 H 0.45328 0.16496 0.50505 0.0
H259 H 0.50591 0.158 0.50517 0.0
H260 H 0.47387 0.1488 0.52399 0.0
H261 H 0.54666 0.06367 0.61127 0.0
H262 H 0.66476 0.10719 0.56956 0.0
H263 H 0.66347 0.11351 0.53935 0.0
H264 H 0.53985 0.08259 0.49544 0.0
H265 H 0.42724 0.05432 0.53806 0.0
H266 H 0.4296 0.05113 0.56814 0.0
H267 H 0.83725 0.18885 0.49173 0.0
H268 H 0.84616 0.14319 0.50171 0.0
H269 H 0.80256 0.15769 0.50936 0.0
C270 C 0.73523 0.55669 0.78469 0.0
C271 C 0.72726 0.59298 0.7953 0.0
C272 C 0.70543 0.58752 0.82451 0.0
C273 C 0.68871 0.62065 0.82488 0.0
C274 C 0.65588 0.61721 0.83672 0.0
C275 C 0.63841 0.57891 0.84805 0.0
C276 C 0.65695 0.54671 0.8481 0.0
C277 C 0.69134 0.55247 0.83659 0.0
C278 C 0.63828 0.65318 0.83658 0.0
C279 C 0.63849 0.50435 0.85954 0.0
C280 C 0.2783 0.35485 0.79185 0.0
C281 C 0.32672 0.39859 0.79771 0.0
C282 C 0.37376 0.4411 0.82418 0.0
C283 C 0.40316 0.42143 0.82821 0.0
C284 C 0.44582 0.44818 0.83896 0.0
C285 C 0.46028 0.4964 0.84547 0.0
C286 C 0.43118 0.51682 0.84125 0.0
C287 C 0.38755 0.48832 0.83094 0.0
C288 C 0.47531 0.42462 0.84337 0.0
C289 C 0.44626 0.56868 0.84756 0.0
C290 C 0.37853 0.46395 0.95268 0.0
C291 C 0.40179 0.43854 0.94772 0.0
C292 C 0.44636 0.46303 0.94013 0.0
C293 C 0.46801 0.51388 0.93741 0.0
C294 C 0.44568 0.53998 0.94302 0.0
C295 C 0.40134 0.51466 0.95074 0.0
C296 C 0.46988 0.43436 0.93472 0.0
C297 C 0.46802 0.59427 0.94042 0.0
C298 C 0.86357 0.69511 0.9608 0.0
C299 C 0.8272 0.71274 0.96045 0.0
C300 C 0.73968 0.6563 0.95889 0.0
C301 C 0.70962 0.60493 0.95787 0.0
C302 C 0.6644 0.58134 0.94836 0.0
C303 C 0.64838 0.61026 0.94027 0.0
C304 C 0.67751 0.66254 0.94222 0.0
C305 C 0.72332 0.68503 0.95131 0.0
C306 C 0.63435 0.52555 0.94669 0.0
C307 C 0.66062 0.69466 0.93452 0.0
C308 C 0.5953 0.56733 0.85765 0.0
C309 C 0.5501 0.54455 0.84832 0.0
C310 C 0.50656 0.52543 0.8563 0.0
C311 C 0.50779 0.52951 0.8742 0.0
C312 C 0.46457 0.50852 0.8827 0.0
C313 C 0.46616 0.51199 0.90033 0.0
C314 C 0.51104 0.53638 0.91016 0.0
C315 C 0.51294 0.53909 0.9281 0.0
C316 C 0.55808 0.56423 0.93749 0.0
C317 C 0.6018 0.58576 0.92946 0.0
C318 C 0.6007 0.58233 0.91151 0.0
C319 C 0.64393 0.60199 0.90299 0.0
C320 C 0.64234 0.59794 0.88534 0.0
C321 C 0.59749 0.57359 0.87554 0.0
C322 C 0.55348 0.55417 0.88385 0.0
C323 C 0.55509 0.55797 0.90185 0.0
C324 C 0.24855 0.38727 0.953 0.0
C325 C 0.29814 0.39145 0.9559 0.0
O326 O 0.73396 0.5875 0.81235 0.0
O327 O 0.78464 0.67731 0.96707 0.0
O328 O 0.33411 0.44078 0.95921 0.0
O329 O 0.33067 0.41398 0.81469 0.0
H330 H 0.68883 0.58309 0.79217 0.0
H331 H 0.70894 0.51825 0.78783 0.0
H332 H 0.77294 0.56426 0.78734 0.0
H333 H 0.72921 0.55963 0.77093 0.0
H334 H 0.70078 0.64876 0.81579 0.0
H335 H 0.70509 0.52753 0.83627 0.0
H336 H 0.60164 0.63518 0.82965 0.0
H337 H 0.66328 0.68696 0.83015 0.0
H338 H 0.63487 0.66414 0.84972 0.0
H339 H 0.65135 0.47871 0.85622 0.0
H340 H 0.59793 0.48292 0.85881 0.0
H341 H 0.65167 0.51908 0.87289 0.0
H342 H 0.34257 0.42952 0.78914 0.0
H343 H 0.26262 0.36799 0.78167 0.0
H344 H 0.25198 0.35182 0.80147 0.0
H345 H 0.29513 0.29535 0.78615 0.0
H346 H 0.39271 0.38476 0.82335 0.0
H347 H 0.3644 0.50306 0.82789 0.0
H348 H 0.48547 0.42982 0.85723 0.0
H349 H 0.50961 0.44269 0.83676 0.0
H350 H 0.45516 0.38441 0.83954 0.0
H351 H 0.42276 0.5811 0.84153 0.0
H352 H 0.48483 0.59487 0.84497 0.0
H353 H 0.44386 0.57029 0.8615 0.0
H354 H 0.30387 0.37654 0.9438 0.0
H355 H 0.38525 0.39963 0.94974 0.0
H356 H 0.38343 0.53406 0.95481 0.0
H357 H 0.47002 0.43243 0.92067 0.0
H358 H 0.45046 0.39608 0.93891 0.0
H359 H 0.50849 0.45365 0.93999 0.0
H360 H 0.44603 0.60924 0.94545 0.0
H361 H 0.4714 0.6002 0.92666 0.0
H362 H 0.5054 0.61544 0.94683 0.0
H363 H 0.81988 0.71708 0.94688 0.0
H364 H 0.89782 0.72238 0.95524 0.0
H365 H 0.84756 0.65924 0.9532 0.0
H366 H 0.87245 0.68992 0.97403 0.0
H367 H 0.7226 0.5833 0.96398 0.0
H368 H 0.7464 0.72497 0.95255 0.0
H369 H 0.62291 0.5121 0.93314 0.0
H370 H 0.60075 0.51257 0.95353 0.0
H371 H 0.65462 0.50865 0.95202 0.0
H372 H 0.68321 0.73379 0.93966 0.0
H373 H 0.62185 0.68062 0.93692 0.0
H374 H 0.6631 0.69355 0.92057 0.0
H375 H 0.54859 0.53934 0.8346 0.0
H376 H 0.42897 0.48893 0.87582 0.0
H377 H 0.43167 0.49513 0.90616 0.0
H378 H 0.55919 0.56627 0.95126 0.0
H379 H 0.67953 0.62051 0.90986 0.0
H380 H 0.67667 0.6138 0.87943 0.0
H381 H 0.24047 0.40348 0.96417 0.0
H382 H 0.21905 0.34788 0.95054 0.0
H383 H 0.24874 0.40749 0.94177 0.0
H384 H 0.12095 0.25748 0.0679 0.0
H385 H 0.06859 0.29586 0.16369 0.0
H386 H 0.06274 0.14128 0.10261 0.0
H387 H 0.15648 0.41619 0.13285 0.0
H388 H 0.0544 0.2371 0.1399 0.0
H389 H 0.12181 0.31417 0.08996 0.0
C390 C 0.10776 0.24366 0.08008 0.0
C391 C 0.09209 0.19457 0.08343 0.0
C392 C 0.07629 0.27636 0.13826 0.0
C393 C 0.09318 0.25946 0.10878 0.0
C394 C 0.08418 0.30986 0.1518 0.0
C395 C 0.11302 0.36096 0.15016 0.0
C396 C 0.09761 0.29401 0.12295 0.0
C397 C 0.13329 0.37714 0.13458 0.0
C398 C 0.1085 0.27617 0.0927 0.0
C399 C 0.07544 0.17886 0.09948 0.0
N400 N 0.1252 0.34379 0.12159 0.0
N401 N 0.07664 0.21125 0.11157 0.0
H402 H 0.90851 0.13621 0.38925 0.0
H403 H 0.80997 0.04747 0.48046 0.0
H404 H 0.94563 0.04665 0.41889 0.0
H405 H 0.79994 0.16183 0.45595 0.0
H406 H 0.85123 0.03899 0.45638 0.0
H407 H 0.85974 0.13795 0.41191 0.0
C408 C 0.90615 0.11661 0.40046 0.0
C409 C 0.93142 0.09142 0.40219 0.0
C410 C 0.83961 0.06562 0.45619 0.0
C411 C 0.87562 0.09333 0.42818 0.0
C412 C 0.81587 0.07028 0.46987 0.0
C413 C 0.80063 0.10466 0.47005 0.0
C414 C 0.84846 0.09576 0.44256 0.0
C415 C 0.8102 0.13416 0.45619 0.0
C416 C 0.87842 0.11779 0.41342 0.0
C417 C 0.92699 0.06673 0.41703 0.0
N418 N 0.8334 0.12894 0.44299 0.0
N419 N 0.89972 0.06836 0.42945 0.0
H420 H 0.98743 0.87416 0.78269 0.0
H421 H 0.7117 0.64637 0.77197 0.0
H422 H 0.8837 0.85925 0.74258 0.0
H423 H 0.82273 0.65693 0.8078 0.0
H424 H 0.77074 0.72839 0.76292 0.0
H425 H 0.92394 0.79941 0.79406 0.0
C426 C 0.95117 0.85523 0.77627 0.0
C427 C 0.94106 0.87275 0.76151 0.0
C428 C 0.782 0.713 0.7729 0.0
C429 C 0.86787 0.78651 0.77452 0.0
C430 C 0.74834 0.66638 0.77809 0.0
C431 C 0.76221 0.64529 0.79082 0.0
C432 C 0.82996 0.73851 0.78042 0.0
C433 C 0.81032 0.67217 0.79814 0.0
C434 C 0.91486 0.81243 0.7828 0.0
C435 C 0.89316 0.84692 0.75393 0.0
N436 N 0.84242 0.71734 0.79282 0.0
N437 N 0.85834 0.80477 0.76046 0.0
H438 H 0.12157 0.02964 0.11126 0.0
H439 H 0.99964 0.7483 0.12744 0.0
H440 H 0.14529 0.93004 0.08012 0.0
H441 H 0.0284 0.85752 0.16779 0.0
H442 H 0.05415 0.81449 0.11009 0.0
H443 H 0.08995 0.9686 0.13264 0.0
C444 C 0.12109 0.99538 0.10908 0.0
C445 C 0.13567 0.98476 0.0938 0.0
C446 C 0.04929 0.82395 0.12286 0.0
C447 C 0.09846 0.91435 0.11802 0.0
C448 C 0.01816 0.78614 0.13279 0.0
C449 C 0.00989 0.79744 0.14918 0.0
C450 C 0.07122 0.87347 0.12916 0.0
C451 C 0.03417 0.84731 0.15527 0.0
C452 C 0.10298 0.96053 0.12128 0.0
C453 C 0.13433 0.93978 0.09168 0.0
N454 N 0.06323 0.88355 0.14519 0.0
N455 N 0.11507 0.90581 0.10349 0.0
H456 H 0.12873 0.11037 0.4244 0.0
H457 H 0.28378 0.99641 0.45694 0.0
H458 H 0.21481 0.07924 0.39137 0.0
H459 H 0.24783 0.08152 0.49065 0.0
H460 H 0.25678 0.02427 0.43271 0.0
H461 H 0.16995 0.09835 0.44891 0.0
C462 C 0.15662 0.10148 0.42231 0.0
C463 C 0.16813 0.09548 0.40581 0.0
C464 C 0.25554 0.0375 0.4454 0.0
C465 C 0.21487 0.08107 0.43376 0.0
C466 C 0.27105 0.0217 0.45926 0.0
C467 C 0.26878 0.03737 0.47587 0.0
C468 C 0.23633 0.06806 0.44815 0.0
C469 C 0.25071 0.06913 0.47804 0.0
C470 C 0.18021 0.09477 0.43631 0.0
C471 C 0.20474 0.08418 0.40386 0.0
N472 N 0.2347 0.08307 0.46435 0.0
N473 N 0.22633 0.07666 0.41766 0.0
H474 H 0.12566 0.1648 0.73434 0.0
H475 H 0.31118 0.32053 0.82366 0.0
H476 H 0.09999 0.1179 0.78529 0.0
H477 H 0.3462 0.3753 0.76246 0.0
H478 H 0.21566 0.24645 0.80941 0.0
H479 H 0.18887 0.24813 0.74595 0.0
C480 C 0.13188 0.17271 0.74797 0.0
C481 C 0.10833 0.13469 0.75894 0.0
C482 C 0.24217 0.27264 0.8014 0.0
C483 C 0.1803 0.22864 0.77216 0.0
C484 C 0.30213 0.31548 0.8101 0.0
C485 C 0.33828 0.36236 0.79485 0.0
C486 C 0.22669 0.27153 0.77932 0.0
C487 C 0.32401 0.34959 0.77151 0.0
C488 C 0.16817 0.22002 0.75458 0.0
C489 C 0.1179 0.14633 0.77647 0.0
N490 N 0.26715 0.3074 0.76651 0.0
N491 N 0.15379 0.19216 0.78255 0.0
H492 H 0.9873 0.10764 0.68231 0.0
H493 H 0.70715 0.91422 0.62715 0.0
H494 H 0.88639 0.9562 0.69282 0.0
H495 H 0.82199 0.09911 0.6179 0.0
H496 H 0.78006 0.92784 0.6531 0.0
H497 H 0.92767 0.1016 0.66031 0.0
C498 C 0.95261 0.07321 0.68005 0.0
C499 C 0.94196 0.03227 0.68939 0.0
C500 C 0.78554 0.95838 0.64583 0.0
C501 C 0.87396 0.02524 0.66426 0.0
C502 C 0.74195 0.94857 0.62911 0.0
C503 C 0.75277 0.00771 0.6212 0.0
C504 C 0.83803 0.01888 0.65057 0.0
C505 C 0.81427 0.06524 0.62341 0.0
C506 C 0.91864 0.06987 0.66751 0.0
C507 C 0.89631 0.98867 0.68593 0.0
N508 N 0.84883 0.06542 0.63924 0.0
N509 N 0.86412 0.98624 0.67358 0.0
H510 H 0.96522 0.94738 0.04089 0.0
H511 H 0.87993 0.80479 0.94877 0.0
H512 H 0.05244 0.99296 0.99772 0.0
H513 H 0.8266 0.7324 0.99492 0.0
H514 H 0.92699 0.88414 0.96543 0.0
H515 H 0.89805 0.8789 0.02277 0.0
C516 C 0.96956 0.94386 0.02749 0.0
C517 C 0.01426 0.97539 0.02072 0.0
C518 C 0.90418 0.851 0.97187 0.0
C519 C 0.93836 0.8979 0.00013 0.0
C520 C 0.87726 0.80584 0.96237 0.0
C521 C 0.84918 0.76209 0.97046 0.0
C522 C 0.90322 0.85245 0.9896 0.0
C523 C 0.84749 0.76534 0.98817 0.0
C524 C 0.93154 0.90468 0.01723 0.0
C525 C 0.01852 0.96909 0.00338 0.0
N526 N 0.87447 0.80977 0.99719 0.0
N527 N 0.98117 0.93087 0.99369 0.0
H528 H 0.02442 0.96675 0.31688 0.0
H529 H 0.89302 0.6904 0.34178 0.0
H530 H 0.95732 0.92368 0.36435 0.0
H531 H 0.88911 0.72453 0.28957 0.0
H532 H 0.92532 0.77737 0.35069 0.0
H533 H 0.98239 0.87933 0.30668 0.0
C534 C 0.00037 0.93893 0.32506 0.0
C535 C 0.99435 0.95241 0.34149 0.0
C536 C 0.91723 0.7657 0.3373 0.0
C537 C 0.94735 0.8527 0.33007 0.0
C538 C 0.8991 0.71626 0.33221 0.0
C539 C 0.88866 0.70016 0.31493 0.0
C540 C 0.92587 0.79963 0.32501 0.0
C541 C 0.89703 0.7352 0.30302 0.0
C542 C 0.97645 0.88917 0.31923 0.0
C543 C 0.96279 0.91491 0.35157 0.0
N544 N 0.91567 0.78345 0.30828 0.0
N545 N 0.94106 0.86666 0.34581 0.0
H546 H 0.0917 0.99938 0.68131 0.0
H547 H 0.26845 0.9066 0.65196 0.0
H548 H 0.15821 0.9435 0.7154 0.0
H549 H 0.24342 0.00648 0.62362 0.0
H550 H 0.21892 0.91035 0.67394 0.0
H551 H 0.13763 0.99241 0.65844 0.0
C552 C 0.11567 0.98536 0.68396 0.0
C553 C 0.1213 0.97217 0.7003 0.0
C554 C 0.22422 0.93141 0.66291 0.0
C555 C 0.17357 0.96397 0.67426 0.0
C556 C 0.25244 0.92926 0.65036 0.0
C557 C 0.25999 0.95622 0.63594 0.0
C558 C 0.20294 0.96036 0.66097 0.0
C559 C 0.23829 0.98497 0.63452 0.0
C560 C 0.142 0.98164 0.67094 0.0
C561 C 0.15297 0.95438 0.70303 0.0
N562 N 0.21058 0.98616 0.64685 0.0
N563 N 0.17779 0.95071 0.69014 0.0
H564 H 0.21072 0.23114 0.04548 0.0
H565 H 0.30595 0.30891 0.95479 0.0
H566 H 0.27054 0.1594 0.01629 0.0
H567 H 0.28948 0.4059 0.98994 0.0
H568 H 0.29713 0.25594 0.9778 0.0
H569 H 0.24401 0.29845 0.02643 0.0
C570 C 0.23167 0.22998 0.03528 0.0
C571 C 0.2372 0.18915 0.03234 0.0
C572 C 0.29605 0.28913 0.98056 0.0
C573 C 0.27464 0.26566 0.01032 0.0
C574 C 0.30095 0.31927 0.96742 0.0
C575 C 0.29785 0.36148 0.97044 0.0
C576 C 0.28713 0.30079 0.99681 0.0
C577 C 0.29153 0.37334 0.98706 0.0
C578 C 0.25063 0.26844 0.02439 0.0
C579 C 0.26502 0.1899 0.01898 0.0
N580 N 0.28564 0.34275 0.99958 0.0
N581 N 0.28189 0.22703 0.00829 0.0
H582 H 0.15467 0.24124 0.33281 0.0
H583 H 0.05722 0.42694 0.34618 0.0
H584 H 0.03369 0.21091 0.36268 0.0
H585 H 0.18805 0.46405 0.32143 0.0
H586 H 0.04282 0.34402 0.34973 0.0
H587 H 0.16223 0.31938 0.32592 0.0
C588 C 0.12949 0.25083 0.33785 0.0
C589 C 0.09365 0.21951 0.34844 0.0
C590 C 0.07443 0.37009 0.34337 0.0
C591 C 0.10221 0.30909 0.34059 0.0
C592 C 0.0825 0.41728 0.34129 0.0
C593 C 0.12348 0.45206 0.33331 0.0
C594 C 0.10783 0.3577 0.33755 0.0
C595 C 0.15565 0.43806 0.32745 0.0
C596 C 0.13389 0.29553 0.33392 0.0
C597 C 0.06201 0.23392 0.35454 0.0
N598 N 0.14717 0.39197 0.32971 0.0
N599 N 0.06715 0.27773 0.35058 0.0
loop_
_geom_bond_atom_site_label_1
_geom_bond_atom_site_label_2
_geom_bond_distance
_geom_bond_site_symmetry_2
_ccdc_geom_bond_type
Zn0 O3 2.031 1_545 S
Zn0 O5 2.049 . S
Zn0 O10 2.067 . S
Zn1 O2 1.962 . S
Zn1 O4 1.986 . S
Zn1 O6 1.996 . S
Zn1 O9 1.943 . S
O2 Zn1 1.962 . S
O2 C7 1.254 . S
O3 Zn0 2.031 1_565 S
O3 C7 1.269 1_565 S
O4 Zn1 1.986 . S
O4 C11 1.262 . S
O5 Zn0 2.049 . S
O5 C13 1.260 . S
O6 Zn1 1.996 . S
O6 C13 1.257 . S
C7 O2 1.254 . S
C7 O3 1.269 1_545 S
C8 O9 1.249 . S
C8 O10 1.270 . S
O9 Zn1 1.943 . S
O9 C8 1.249 . S
O10 Zn0 2.067 . S
O10 C8 1.270 . S
C11 O4 1.262 . S
C11 O12 1.232 . S
O12 C11 1.232 . S
C13 O5 1.260 . S
C13 O6 1.257 . S
Zn14 O17 2.031 . S
Zn14 O19 2.049 . S
Zn14 O24 2.067 . S
Zn15 O16 1.962 . S
Zn15 O18 1.986 1_455 S
Zn15 O20 1.996 . S
Zn15 O23 1.941 . S
O16 Zn15 1.962 . S
O16 C21 1.254 . S
O17 Zn14 2.031 . S
O17 C21 1.269 . S
O18 Zn15 1.986 1_655 S
O18 C25 1.262 . S
O19 Zn14 2.049 . S
O19 C27 1.260 . S
O20 Zn15 1.996 . S
O20 C27 1.257 . S
C21 O16 1.254 . S
C21 O17 1.269 . S
C22 O23 1.257 . S
C22 O24 1.270 . S
O23 Zn15 1.941 . S
O23 C22 1.257 . S
O24 Zn14 2.067 . S
O24 C22 1.270 . S
C25 O18 1.262 . S
C25 O26 1.232 . S
O26 C25 1.232 . S
C27 O19 1.260 . S
C27 O20 1.257 . S
Zn28 O31 2.031 1_565 S
Zn28 O33 2.049 . S
Zn28 O38 2.067 1_565 S
Zn29 O30 1.960 1_545 S
Zn29 O32 1.986 1_455 S
Zn29 O34 1.996 1_445 S
Zn29 O37 1.943 . S
O30 Zn29 1.960 1_565 S
O30 C35 1.255 1_565 S
O31 Zn28 2.031 1_545 S
O31 C35 1.269 . S
O32 Zn29 1.986 1_655 S
O32 C39 1.262 . S
O33 Zn28 2.049 . S
O33 C41 1.260 1_455 S
O34 Zn29 1.996 1_665 S
O34 C41 1.257 . S
C35 O30 1.255 1_545 S
C35 O31 1.269 . S
C36 O37 1.249 . S
C36 O38 1.270 . S
O37 Zn29 1.943 . S
O37 C36 1.249 . S
O38 Zn28 2.067 1_545 S
O38 C36 1.270 . S
C39 O32 1.262 . S
C39 O40 1.225 1_655 S
O40 C39 1.225 1_455 S
C41 O33 1.260 1_655 S
C41 O34 1.257 . S
C42 C43 1.560 1_655 S
C42 H103 0.959 . S
C42 H104 0.959 . S
C42 H105 0.960 . S
C43 C42 1.560 1_455 S
C43 O98 1.426 1_455 S
C43 H102 0.980 . S
C44 C45 1.407 . S
C44 C49 1.418 1_455 S
C44 O98 1.334 1_455 S
C45 C44 1.407 . S
C45 C46 1.360 . S
C45 H106 0.929 . S
C46 C45 1.360 . S
C46 C47 1.401 . S
C46 C50 1.527 . S
C47 C46 1.401 . S
C47 C48 1.405 1_455 S
C47 C80 1.587 . S
C48 C47 1.405 1_655 S
C48 C49 1.332 . S
C48 C51 1.496 . S
C49 C44 1.418 1_655 S
C49 C48 1.332 . S
C49 H107 0.929 . S
C50 C46 1.527 . S
C50 H108 0.959 . S
C50 H109 0.961 . S
C50 H110 0.961 . S
C51 C48 1.496 . S
C51 H111 0.960 . S
C51 H112 0.960 . S
C51 H113 0.961 . S
C52 C53 1.517 . S
C52 H115 0.961 . S
C52 H116 0.960 . S
C52 H117 0.959 . S
C53 C52 1.517 . S
C53 O101 1.468 . S
C53 H114 0.980 . S
C54 C55 1.349 . S
C54 C59 1.367 . S
C54 O101 1.408 . S
C55 C54 1.349 . S
C55 C56 1.407 . S
C55 H118 0.930 . S
C56 C55 1.407 . S
C56 C57 1.449 . S
C56 C60 1.535 1_455 S
C57 C56 1.449 . S
C57 C58 1.384 . S
C57 C82 1.553 . S
C58 C57 1.384 . S
C58 C59 1.364 . S
C58 C61 1.450 . S
C59 C54 1.367 . S
C59 C58 1.364 . S
C59 H119 0.931 . S
C60 C56 1.535 1_655 S
C60 H120 0.959 . S
C60 H121 0.961 . S
C60 H122 0.959 . S
C61 C58 1.450 . S
C61 H123 0.960 . S
C61 H124 0.960 . S
C61 H125 0.960 . S
C62 C63 1.309 . S
C62 C67 1.304 . S
C62 O100 1.435 . S
C63 C62 1.309 . S
C63 C64 1.476 . S
C63 H127 0.930 . S
C64 C63 1.476 . S
C64 C65 1.400 . S
C64 C68 1.567 1_455 S
C65 C64 1.400 . S
C65 C66 1.373 . S
C65 C87 1.432 . S
C66 C65 1.373 . S
C66 C67 1.339 . S
C66 C69 1.530 . S
C67 C62 1.304 . S
C67 C66 1.339 . S
C67 H128 0.930 . S
C68 C64 1.567 1_655 S
C68 H129 0.961 . S
C68 H130 0.960 . S
C68 H131 0.958 . S
C69 C66 1.530 . S
C69 H132 0.961 . S
C69 H133 0.960 . S
C69 H134 0.960 . S
C70 C71 1.530 . S
C70 H136 0.961 . S
C70 H137 0.961 1_455 S
C70 H138 0.959 1_455 S
C71 C70 1.530 . S
C71 O99 1.412 . S
C71 H135 0.980 . S
C72 C73 1.288 1_455 S
C72 C77 1.377 . S
C72 O99 1.393 . S
C73 C72 1.288 1_655 S
C73 C74 1.369 . S
C73 H139 0.932 . S
C74 C73 1.369 . S
C74 C75 1.398 1_655 S
C74 C78 1.527 . S
C75 C74 1.398 1_455 S
C75 C76 1.380 . S
C75 C89 1.497 . S
C76 C75 1.380 . S
C76 C77 1.383 . S
C76 C79 1.603 . S
C77 C72 1.377 . S
C77 C76 1.383 . S
C77 H140 0.929 . S
C78 C74 1.527 . S
C78 H141 0.961 . S
C78 H142 0.959 . S
C78 H143 0.959 . S
C79 C76 1.603 . S
C79 H144 0.960 . S
C79 H145 0.962 . S
C79 H146 0.961 . S
C80 C47 1.587 . S
C80 C81 1.360 . S
C80 C93 1.412 . S
C81 C80 1.360 . S
C81 C82 1.365 . S
C81 H147 0.929 . S
C82 C57 1.553 . S
C82 C81 1.365 . S
C82 C83 1.404 . S
C83 C82 1.404 . S
C83 C84 1.395 . S
C83 C94 1.451 . S
C84 C83 1.395 . S
C84 C85 1.322 . S
C84 H148 0.930 . S
C85 C84 1.322 . S
C85 C86 1.459 . S
C85 H149 0.929 . S
C86 C85 1.459 . S
C86 C87 1.445 . S
C86 C95 1.395 . S
C87 C65 1.432 . S
C87 C86 1.445 . S
C87 C88 1.370 . S
C88 C87 1.370 . S
C88 C89 1.438 . S
C88 H150 0.930 . S
C89 C75 1.497 . S
C89 C88 1.438 . S
C89 C90 1.360 . S
C90 C89 1.360 . S
C90 C91 1.401 . S
C90 C95 1.446 . S
C91 C90 1.401 . S
C91 C92 1.347 . S
C91 H151 0.929 . S
C92 C91 1.347 . S
C92 C93 1.455 . S
C92 H152 0.930 . S
C93 C80 1.412 . S
C93 C92 1.455 . S
C93 C94 1.331 . S
C94 C83 1.451 . S
C94 C93 1.331 . S
C94 C95 1.497 . S
C95 C86 1.395 . S
C95 C90 1.446 . S
C95 C94 1.497 . S
C96 C97 1.582 . S
C96 H153 0.962 . S
C96 H154 0.959 . S
C96 H155 0.958 . S
C97 C96 1.582 . S
C97 O100 1.458 . S
C97 H126 0.980 . S
O98 C43 1.426 1_655 S
O98 C44 1.334 1_655 S
O99 C71 1.412 . S
O99 C72 1.393 . S
O100 C62 1.435 . S
O100 C97 1.458 . S
O101 C53 1.468 . S
O101 C54 1.408 . S
H102 C43 0.980 . S
H103 C42 0.959 . S
H104 C42 0.959 . S
H105 C42 0.960 . S
H106 C45 0.929 . S
H107 C49 0.929 . S
H108 C50 0.959 . S
H109 C50 0.961 . S
H110 C50 0.961 . S
H111 C51 0.960 . S
H112 C51 0.960 . S
H113 C51 0.961 . S
H114 C53 0.980 . S
H115 C52 0.961 . S
H116 C52 0.960 . S
H117 C52 0.959 . S
H118 C55 0.930 . S
H119 C59 0.931 . S
H120 C60 0.959 . S
H121 C60 0.961 . S
H122 C60 0.959 . S
H123 C61 0.960 . S
H124 C61 0.960 . S
H125 C61 0.960 . S
H126 C97 0.980 . S
H127 C63 0.930 . S
H128 C67 0.930 . S
H129 C68 0.961 . S
H130 C68 0.960 . S
H131 C68 0.958 . S
H132 C69 0.961 . S
H133 C69 0.960 . S
H134 C69 0.960 . S
H135 C71 0.980 . S
H136 C70 0.961 . S
H137 C70 0.961 1_655 S
H138 C70 0.959 1_655 S
H139 C73 0.932 . S
H140 C77 0.929 . S
H141 C78 0.961 . S
H142 C78 0.959 . S
H143 C78 0.959 . S
H144 C79 0.960 . S
H145 C79 0.962 . S
H146 C79 0.961 . S
H147 C81 0.929 . S
H148 C84 0.930 . S
H149 C85 0.929 . S
H150 C88 0.930 . S
H151 C91 0.929 . S
H152 C92 0.930 . S
H153 C96 0.962 . S
H154 C96 0.959 . S
H155 C96 0.958 . S
C156 C157 1.560 1_565 S
C156 H217 0.959 . S
C156 H218 0.959 . S
C156 H219 0.960 . S
C157 C156 1.560 1_545 S
C157 O212 1.426 1_545 S
C157 H216 0.980 . S
C158 C159 1.407 . S
C158 C163 1.418 1_545 S
C158 O212 1.334 1_545 S
C159 C158 1.407 . S
C159 C160 1.360 . S
C159 H220 0.929 . S
C160 C159 1.360 . S
C160 C161 1.401 . S
C160 C164 1.527 . S
C161 C160 1.401 . S
C161 C162 1.406 . S
C161 C194 1.587 . S
C162 C161 1.406 . S
C162 C163 1.332 1_545 S
C162 C165 1.495 1_545 S
C163 C158 1.418 1_565 S
C163 C162 1.332 1_565 S
C163 H221 0.929 . S
C164 C160 1.527 . S
C164 H222 0.959 . S
C164 H223 0.961 . S
C164 H224 0.961 . S
C165 C162 1.495 1_565 S
C165 H225 0.960 . S
C165 H226 0.960 . S
C165 H227 0.961 . S
C166 C167 1.517 . S
C166 H229 0.961 . S
C166 H230 0.960 . S
C166 H231 0.959 . S
C167 C166 1.517 . S
C167 O215 1.468 . S
C167 H228 0.980 . S
C168 C169 1.349 . S
C168 C173 1.367 . S
C168 O215 1.408 . S
C169 C168 1.349 . S
C169 C170 1.407 . S
C169 H232 0.930 . S
C170 C169 1.407 . S
C170 C171 1.449 . S
C170 C174 1.535 1_545 S
C171 C170 1.449 . S
C171 C172 1.384 . S
C171 C196 1.553 . S
C172 C171 1.384 . S
C172 C173 1.364 . S
C172 C175 1.450 . S
C173 C168 1.367 . S
C173 C172 1.364 . S
C173 H233 0.931 . S
C174 C170 1.535 1_565 S
C174 H234 0.959 1_565 S
C174 H235 0.961 . S
C174 H236 0.959 . S
C175 C172 1.450 . S
C175 H237 0.960 . S
C175 H238 0.960 . S
C175 H239 0.960 . S
C176 C177 1.309 . S
C176 C181 1.304 . S
C176 O214 1.435 . S
C177 C176 1.309 . S
C177 C178 1.476 . S
C177 H241 0.930 . S
C178 C177 1.476 . S
C178 C179 1.400 . S
C178 C182 1.567 . S
C179 C178 1.400 . S
C179 C180 1.373 . S
C179 C201 1.432 . S
C180 C179 1.373 . S
C180 C181 1.339 . S
C180 C183 1.530 . S
C181 C176 1.304 . S
C181 C180 1.339 . S
C181 H242 0.930 . S
C182 C178 1.567 . S
C182 H243 0.961 . S
C182 H244 0.960 1_545 S
C182 H245 0.958 1_545 S
C183 C180 1.530 . S
C183 H246 0.961 . S
C183 H247 0.960 . S
C183 H248 0.960 . S
C184 C185 1.530 . S
C184 H250 0.961 . S
C184 H251 0.961 . S
C184 H252 0.959 . S
C185 C184 1.530 . S
C185 O213 1.412 . S
C185 H249 0.980 . S
C186 C187 1.288 . S
C186 C191 1.377 . S
C186 O213 1.393 . S
C187 C186 1.288 . S
C187 C188 1.369 . S
C187 H253 0.932 1_545 S
C188 C187 1.369 . S
C188 C189 1.398 . S
C188 C192 1.527 1_545 S
C189 C188 1.398 . S
C189 C190 1.380 . S
C189 C203 1.497 . S
C190 C189 1.380 . S
C190 C191 1.383 . S
C190 C193 1.603 . S
C191 C186 1.377 . S
C191 C190 1.383 . S
C191 H254 0.929 . S
C192 C188 1.527 1_565 S
C192 H255 0.961 . S
C192 H256 0.959 . S
C192 H257 0.959 . S
C193 C190 1.603 . S
C193 H258 0.960 . S
C193 H259 0.962 . S
C193 H260 0.961 . S
C194 C161 1.587 . S
C194 C195 1.360 . S
C194 C207 1.412 . S
C195 C194 1.360 . S
C195 C196 1.365 . S
C195 H261 0.929 . S
C196 C171 1.553 . S
C196 C195 1.365 . S
C196 C197 1.404 . S
C197 C196 1.404 . S
C197 C198 1.395 . S
C197 C208 1.451 . S
C198 C197 1.395 . S
C198 C199 1.322 . S
C198 H262 0.930 . S
C199 C198 1.322 . S
C199 C200 1.459 . S
C199 H263 0.929 . S
C200 C199 1.459 . S
C200 C201 1.445 . S
C200 C209 1.395 . S
C201 C179 1.432 . S
C201 C200 1.445 . S
C201 C202 1.370 . S
C202 C201 1.370 . S
C202 C203 1.438 . S
C202 H264 0.930 . S
C203 C189 1.497 . S
C203 C202 1.438 . S
C203 C204 1.360 . S
C204 C203 1.360 . S
C204 C205 1.401 . S
C204 C209 1.446 . S
C205 C204 1.401 . S
C205 C206 1.347 . S
C205 H265 0.929 . S
C206 C205 1.347 . S
C206 C207 1.455 . S
C206 H266 0.930 . S
C207 C194 1.412 . S
C207 C206 1.455 . S
C207 C208 1.331 . S
C208 C197 1.451 . S
C208 C207 1.331 . S
C208 C209 1.497 . S
C209 C200 1.395 . S
C209 C204 1.446 . S
C209 C208 1.497 . S
C210 C211 1.582 . S
C210 H267 0.962 . S
C210 H268 0.959 . S
C210 H269 0.958 . S
C211 C210 1.582 . S
C211 O214 1.458 . S
C211 H240 0.980 . S
O212 C157 1.426 1_565 S
O212 C158 1.334 1_565 S
O213 C185 1.412 . S
O213 C186 1.393 . S
O214 C176 1.435 . S
O214 C211 1.458 . S
O215 C167 1.468 . S
O215 C168 1.408 . S
H216 C157 0.980 . S
H217 C156 0.959 . S
H218 C156 0.959 . S
H219 C156 0.960 . S
H220 C159 0.929 . S
H221 C163 0.929 . S
H222 C164 0.959 . S
H223 C164 0.961 . S
H224 C164 0.961 . S
H225 C165 0.960 . S
H226 C165 0.960 . S
H227 C165 0.961 . S
H228 C167 0.980 . S
H229 C166 0.961 . S
H230 C166 0.960 . S
H231 C166 0.959 . S
H232 C169 0.930 . S
H233 C173 0.931 . S
H234 C174 0.959 1_545 S
H235 C174 0.961 . S
H236 C174 0.959 . S
H237 C175 0.960 . S
H238 C175 0.960 . S
H239 C175 0.960 . S
H240 C211 0.980 . S
H241 C177 0.930 . S
H242 C181 0.930 . S
H243 C182 0.961 . S
H244 C182 0.960 1_565 S
H245 C182 0.958 1_565 S
H246 C183 0.961 . S
H247 C183 0.960 . S
H248 C183 0.960 . S
H249 C185 0.980 . S
H250 C184 0.961 . S
H251 C184 0.961 . S
H252 C184 0.959 . S
H253 C187 0.932 1_565 S
H254 C191 0.929 . S
H255 C192 0.961 . S
H256 C192 0.959 . S
H257 C192 0.959 . S
H258 C193 0.960 . S
H259 C193 0.962 . S
H260 C193 0.961 . S
H261 C195 0.929 . S
H262 C198 0.930 . S
H263 C199 0.929 . S
H264 C202 0.930 . S
H265 C205 0.929 . S
H266 C206 0.930 . S
H267 C210 0.962 . S
H268 C210 0.959 . S
H269 C210 0.958 . S
C270 C271 1.560 . S
C270 H331 0.959 . S
C270 H332 0.959 . S
C270 H333 0.960 . S
C271 C270 1.560 . S
C271 O326 1.426 . S
C271 H330 0.980 . S
C272 C273 1.407 . S
C272 C277 1.418 . S
C272 O326 1.334 . S
C273 C272 1.407 . S
C273 C274 1.360 . S
C273 H334 0.929 . S
C274 C273 1.360 . S
C274 C275 1.401 . S
C274 C278 1.527 . S
C275 C274 1.401 . S
C275 C276 1.405 . S
C275 C308 1.587 . S
C276 C275 1.405 . S
C276 C277 1.332 . S
C276 C279 1.496 . S
C277 C272 1.418 . S
C277 C276 1.332 . S
C277 H335 0.929 . S
C278 C274 1.527 . S
C278 H336 0.959 . S
C278 H337 0.961 . S
C278 H338 0.961 . S
C279 C276 1.496 . S
C279 H339 0.960 . S
C279 H340 0.960 . S
C279 H341 0.961 . S
C280 C281 1.517 . S
C280 H343 0.961 . S
C280 H344 0.960 . S
C280 H345 0.959 . S
C281 C280 1.517 . S
C281 O329 1.468 . S
C281 H342 0.980 . S
C282 C283 1.349 . S
C282 C287 1.367 . S
C282 O329 1.408 . S
C283 C282 1.349 . S
C283 C284 1.407 . S
C283 H346 0.930 . S
C284 C283 1.407 . S
C284 C285 1.449 . S
C284 C288 1.535 . S
C285 C284 1.449 . S
C285 C286 1.384 . S
C285 C310 1.553 . S
C286 C285 1.384 . S
C286 C287 1.364 . S
C286 C289 1.450 . S
C287 C282 1.367 . S
C287 C286 1.364 . S
C287 H347 0.931 . S
C288 C284 1.535 . S
C288 H348 0.959 . S
C288 H349 0.961 . S
C288 H350 0.959 . S
C289 C286 1.450 . S
C289 H351 0.960 . S
C289 H352 0.960 . S
C289 H353 0.960 . S
C290 C291 1.309 . S
C290 C295 1.304 . S
C290 O328 1.435 . S
C291 C290 1.309 . S
C291 C292 1.476 . S
C291 H355 0.930 . S
C292 C291 1.476 . S
C292 C293 1.400 . S
C292 C296 1.567 . S
C293 C292 1.400 . S
C293 C294 1.373 . S
C293 C315 1.432 . S
C294 C293 1.373 . S
C294 C295 1.339 . S
C294 C297 1.530 . S
C295 C290 1.304 . S
C295 C294 1.339 . S
C295 H356 0.930 . S
C296 C292 1.567 . S
C296 H357 0.961 . S
C296 H358 0.960 . S
C296 H359 0.958 . S
C297 C294 1.530 . S
C297 H360 0.961 . S
C297 H361 0.960 . S
C297 H362 0.960 . S
C298 C299 1.530 . S
C298 H364 0.961 . S
C298 H365 0.961 . S
C298 H366 0.959 . S
C299 C298 1.530 . S
C299 O327 1.412 . S
C299 H363 0.980 . S
C300 C301 1.288 . S
C300 C305 1.377 . S
C300 O327 1.393 . S
C301 C300 1.288 . S
C301 C302 1.369 . S
C301 H367 0.932 . S
C302 C301 1.369 . S
C302 C303 1.398 . S
C302 C306 1.527 . S
C303 C302 1.398 . S
C303 C304 1.380 . S
C303 C317 1.497 . S
C304 C303 1.380 . S
C304 C305 1.383 . S
C304 C307 1.603 . S
C305 C300 1.377 . S
C305 C304 1.383 . S
C305 H368 0.929 . S
C306 C302 1.527 . S
C306 H369 0.961 . S
C306 H370 0.959 . S
C306 H371 0.959 . S
C307 C304 1.603 . S
C307 H372 0.960 . S
C307 H373 0.962 . S
C307 H374 0.961 . S
C308 C275 1.587 . S
C308 C309 1.360 . S
C308 C321 1.412 . S
C309 C308 1.360 . S
C309 C310 1.365 . S
C309 H375 0.929 . S
C310 C285 1.553 . S
C310 C309 1.365 . S
C310 C311 1.404 . S
C311 C310 1.404 . S
C311 C312 1.395 . S
C311 C322 1.451 . S
C312 C311 1.395 . S
C312 C313 1.322 . S
C312 H376 0.930 . S
C313 C312 1.322 . S
C313 C314 1.459 . S
C313 H377 0.929 . S
C314 C313 1.459 . S
C314 C315 1.445 . S
C314 C323 1.395 . S
C315 C293 1.432 . S
C315 C314 1.445 . S
C315 C316 1.370 . S
C316 C315 1.370 . S
C316 C317 1.438 . S
C316 H378 0.930 . S
C317 C303 1.497 . S
C317 C316 1.438 . S
C317 C318 1.360 . S
C318 C317 1.360 . S
C318 C319 1.401 . S
C318 C323 1.446 . S
C319 C318 1.401 . S
C319 C320 1.347 . S
C319 H379 0.929 . S
C320 C319 1.347 . S
C320 C321 1.455 . S
C320 H380 0.930 . S
C321 C308 1.412 . S
C321 C320 1.455 . S
C321 C322 1.331 . S
C322 C311 1.451 . S
C322 C321 1.331 . S
C322 C323 1.497 . S
C323 C314 1.395 . S
C323 C318 1.446 . S
C323 C322 1.497 . S
C324 C325 1.582 . S
C324 H381 0.962 . S
C324 H382 0.959 . S
C324 H383 0.958 . S
C325 C324 1.582 . S
C325 O328 1.458 . S
C325 H354 0.980 . S
O326 C271 1.426 . S
O326 C272 1.334 . S
O327 C299 1.412 . S
O327 C300 1.393 . S
O328 C290 1.435 . S
O328 C325 1.458 . S
O329 C281 1.468 . S
O329 C282 1.408 . S
H330 C271 0.980 . S
H331 C270 0.959 . S
H332 C270 0.959 . S
H333 C270 0.960 . S
H334 C273 0.929 . S
H335 C277 0.929 . S
H336 C278 0.959 . S
H337 C278 0.961 . S
H338 C278 0.961 . S
H339 C279 0.960 . S
H340 C279 0.960 . S
H341 C279 0.961 . S
H342 C281 0.980 . S
H343 C280 0.961 . S
H344 C280 0.960 . S
H345 C280 0.959 . S
H346 C283 0.930 . S
H347 C287 0.931 . S
H348 C288 0.959 . S
H349 C288 0.961 . S
H350 C288 0.959 . S
H351 C289 0.960 . S
H352 C289 0.960 . S
H353 C289 0.960 . S
H354 C325 0.980 . S
H355 C291 0.930 . S
H356 C295 0.930 . S
H357 C296 0.961 . S
H358 C296 0.960 . S
H359 C296 0.958 . S
H360 C297 0.961 . S
H361 C297 0.960 . S
H362 C297 0.960 . S
H363 C299 0.980 . S
H364 C298 0.961 . S
H365 C298 0.961 . S
H366 C298 0.959 . S
H367 C301 0.932 . S
H368 C305 0.929 . S
H369 C306 0.961 . S
H370 C306 0.959 . S
H371 C306 0.959 . S
H372 C307 0.960 . S
H373 C307 0.962 . S
H374 C307 0.961 . S
H375 C309 0.929 . S
H376 C312 0.930 . S
H377 C313 0.929 . S
H378 C316 0.930 . S
H379 C319 0.929 . S
H380 C320 0.930 . S
H381 C324 0.962 . S
H382 C324 0.959 . S
H383 C324 0.958 . S
H384 C390 0.930 1_655 S
H385 C394 0.930 . S
H386 C399 0.929 . S
H387 C397 0.929 1_655 S
H388 C392 0.929 . S
H389 C398 0.929 1_655 S
C390 H384 0.930 1_455 S
C390 C391 1.367 . S
C390 C398 1.378 . S
C391 C390 1.367 . S
C391 C399 1.433 . S
C392 H388 0.929 . S
C392 C394 1.378 . S
C392 C396 1.350 . S
C393 C396 1.463 . S
C393 C398 1.350 . S
C393 N401 1.427 . S
C394 H385 0.930 . S
C394 C392 1.378 . S
C394 C395 1.367 . S
C395 C394 1.367 . S
C395 C397 1.433 . S
C396 C392 1.350 . S
C396 C393 1.463 . S
C396 N400 1.427 . S
C397 H387 0.929 1_455 S
C397 C395 1.433 . S
C397 N400 1.384 . S
C398 H389 0.929 1_455 S
C398 C390 1.378 . S
C398 C393 1.350 . S
C399 H386 0.929 . S
C399 C391 1.433 . S
C399 N401 1.384 . S
N400 C396 1.427 . S
N400 C397 1.384 . S
N401 C393 1.427 . S
N401 C399 1.384 . S
H402 C408 0.930 1_565 S
H403 C412 0.930 . S
H404 C417 0.929 . S
H405 C415 0.929 1_565 S
H406 C410 0.929 . S
H407 C416 0.929 1_565 S
C408 H402 0.930 1_545 S
C408 C409 1.367 . S
C408 C416 1.378 . S
C409 C408 1.367 . S
C409 C417 1.433 . S
C410 H406 0.929 . S
C410 C412 1.378 . S
C410 C414 1.350 . S
C411 C414 1.463 . S
C411 C416 1.350 . S
C411 N419 1.427 . S
C412 H403 0.930 . S
C412 C410 1.378 . S
C412 C413 1.367 . S
C413 C412 1.367 . S
C413 C415 1.433 . S
C414 C410 1.350 . S
C414 C411 1.463 . S
C414 N418 1.427 . S
C415 H405 0.929 1_545 S
C415 C413 1.433 . S
C415 N418 1.384 . S
C416 H407 0.929 1_545 S
C416 C408 1.378 . S
C416 C411 1.350 . S
C417 H404 0.929 . S
C417 C409 1.433 . S
C417 N419 1.384 . S
N418 C414 1.427 . S
N418 C415 1.384 . S
N419 C411 1.427 . S
N419 C417 1.384 . S
H420 C426 0.930 . S
H421 C430 0.930 . S
H422 C435 0.929 . S
H423 C433 0.929 . S
H424 C428 0.929 . S
H425 C434 0.929 . S
C426 H420 0.930 . S
C426 C427 1.367 . S
C426 C434 1.378 . S
C427 C426 1.367 . S
C427 C435 1.433 . S
C428 H424 0.929 . S
C428 C430 1.378 . S
C428 C432 1.350 . S
C429 C432 1.463 . S
C429 C434 1.350 . S
C429 N437 1.427 . S
C430 H421 0.930 . S
C430 C428 1.378 . S
C430 C431 1.367 . S
C431 C430 1.367 . S
C431 C433 1.433 . S
C432 C428 1.350 . S
C432 C429 1.463 . S
C432 N436 1.427 . S
C433 H423 0.929 . S
C433 C431 1.433 . S
C433 N436 1.384 . S
C434 H425 0.929 . S
C434 C426 1.378 . S
C434 C429 1.350 . S
C435 H422 0.929 . S
C435 C427 1.433 . S
C435 N437 1.384 . S
N436 C432 1.427 . S
N436 C433 1.384 . S
N437 C429 1.427 . S
N437 C435 1.384 . S
H438 C444 0.930 1_545 S
H439 C448 0.930 . S
H440 C453 0.929 . S
H441 C451 0.929 . S
H442 C446 0.929 . S
H443 C452 0.929 . S
C444 H438 0.930 1_565 S
C444 C445 1.367 . S
C444 C452 1.378 . S
C445 C444 1.367 . S
C445 C453 1.433 . S
C446 H442 0.929 . S
C446 C448 1.378 . S
C446 C450 1.350 . S
C447 C450 1.463 . S
C447 C452 1.350 . S
C447 N455 1.427 . S
C448 H439 0.930 . S
C448 C446 1.378 . S
C448 C449 1.367 . S
C449 C448 1.367 . S
C449 C451 1.433 . S
C450 C446 1.350 . S
C450 C447 1.463 . S
C450 N454 1.427 . S
C451 H441 0.929 . S
C451 C449 1.433 . S
C451 N454 1.384 . S
C452 H443 0.929 . S
C452 C444 1.378 . S
C452 C447 1.350 . S
C453 H440 0.929 . S
C453 C445 1.433 . S
C453 N455 1.384 . S
N454 C450 1.427 . S
N454 C451 1.384 . S
N455 C447 1.427 . S
N455 C453 1.384 . S
H456 C462 0.930 . S
H457 C466 0.930 . S
H458 C471 0.929 . S
H459 C469 0.929 . S
H460 C464 0.929 . S
H461 C470 0.929 . S
C462 H456 0.930 . S
C462 C463 1.367 . S
C462 C470 1.378 . S
C463 C462 1.367 . S
C463 C471 1.433 . S
C464 H460 0.929 . S
C464 C466 1.378 . S
C464 C468 1.350 . S
C465 C468 1.463 . S
C465 C470 1.350 . S
C465 N473 1.427 . S
C466 H457 0.930 . S
C466 C464 1.378 . S
C466 C467 1.367 . S
C467 C466 1.367 . S
C467 C469 1.433 . S
C468 C464 1.350 . S
C468 C465 1.463 . S
C468 N472 1.427 . S
C469 H459 0.929 . S
C469 C467 1.433 . S
C469 N472 1.384 . S
C470 H461 0.929 . S
C470 C462 1.378 . S
C470 C465 1.350 . S
C471 H458 0.929 . S
C471 C463 1.433 . S
C471 N473 1.384 . S
N472 C468 1.427 . S
N472 C469 1.384 . S
N473 C465 1.427 . S
N473 C471 1.384 . S
H474 C480 0.930 . S
H475 C484 0.930 . S
H476 C489 0.929 . S
H477 C487 0.929 . S
H478 C482 0.929 . S
H479 C488 0.929 . S
C480 H474 0.930 . S
C480 C481 1.367 . S
C480 C488 1.378 . S
C481 C480 1.367 . S
C481 C489 1.433 . S
C482 H478 0.929 . S
C482 C484 1.378 . S
C482 C486 1.350 . S
C483 C486 1.463 . S
C483 C488 1.350 . S
C483 N491 1.427 . S
C484 H475 0.930 . S
C484 C482 1.378 . S
C484 C485 1.367 . S
C485 C484 1.367 . S
C485 C487 1.433 . S
C486 C482 1.350 . S
C486 C483 1.463 . S
C486 N490 1.427 . S
C487 H477 0.929 . S
C487 C485 1.433 . S
C487 N490 1.384 . S
C488 H479 0.929 . S
C488 C480 1.378 . S
C488 C483 1.350 . S
C489 H476 0.929 . S
C489 C481 1.433 . S
C489 N491 1.384 . S
N490 C486 1.427 . S
N490 C487 1.384 . S
N491 C483 1.427 . S
N491 C489 1.384 . S
H492 C498 0.930 . S
H493 C502 0.930 1_565 S
H494 C507 0.929 1_565 S
H495 C505 0.929 . S
H496 C500 0.929 1_565 S
H497 C506 0.929 . S
C498 H492 0.930 . S
C498 C499 1.367 . S
C498 C506 1.378 . S
C499 C498 1.367 . S
C499 C507 1.433 . S
C500 H496 0.929 1_545 S
C500 C502 1.378 . S
C500 C504 1.350 . S
C501 C504 1.463 . S
C501 C506 1.350 . S
C501 N509 1.427 . S
C502 H493 0.930 1_545 S
C502 C500 1.378 . S
C502 C503 1.367 . S
C503 C502 1.367 . S
C503 C505 1.433 . S
C504 C500 1.350 . S
C504 C501 1.463 . S
C504 N508 1.427 . S
C505 H495 0.929 . S
C505 C503 1.433 . S
C505 N508 1.384 . S
C506 H497 0.929 . S
C506 C498 1.378 . S
C506 C501 1.350 . S
C507 H494 0.929 1_545 S
C507 C499 1.433 . S
C507 N509 1.384 . S
N508 C504 1.427 . S
N508 C505 1.384 . S
N509 C501 1.427 . S
N509 C507 1.384 . S
H510 C516 0.930 . S
H511 C520 0.930 . S
H512 C525 0.929 1_545 S
H513 C523 0.929 . S
H514 C518 0.929 . S
H515 C524 0.929 . S
C516 H510 0.930 . S
C516 C517 1.367 . S
C516 C524 1.378 . S
C517 C516 1.367 . S
C517 C525 1.433 . S
C518 H514 0.929 . S
C518 C520 1.378 . S
C518 C522 1.350 . S
C519 C522 1.463 1_554 S
C519 C524 1.350 . S
C519 N527 1.429 . S
C520 H511 0.930 . S
C520 C518 1.378 . S
C520 C521 1.367 . S
C521 C520 1.367 . S
C521 C523 1.433 . S
C522 C518 1.350 . S
C522 C519 1.463 1_556 S
C522 N526 1.427 1_556 S
C523 H513 0.929 . S
C523 C521 1.433 . S
C523 N526 1.384 1_556 S
C524 H515 0.929 . S
C524 C516 1.378 . S
C524 C519 1.350 . S
C525 H512 0.929 1_565 S
C525 C517 1.433 . S
C525 N527 1.386 . S
N526 C522 1.427 1_554 S
N526 C523 1.384 1_554 S
N527 C519 1.429 . S
N527 C525 1.386 . S
H528 C534 0.930 1_545 S
H529 C538 0.930 . S
H530 C543 0.929 1_655 S
H531 C541 0.929 . S
H532 C536 0.924 1_655 S
H533 C542 0.929 . S
C534 H528 0.930 1_565 S
C534 C535 1.367 . S
C534 C542 1.378 . S
C535 C534 1.367 . S
C535 C543 1.433 . S
C536 H532 0.924 1_455 S
C536 C538 1.378 . S
C536 C540 1.350 . S
C537 C540 1.463 . S
C537 C542 1.350 . S
C537 N545 1.427 . S
C538 H529 0.930 . S
C538 C536 1.378 . S
C538 C539 1.367 . S
C539 C538 1.367 . S
C539 C541 1.433 . S
C540 C536 1.350 . S
C540 C537 1.463 . S
C540 N544 1.427 . S
C541 H531 0.929 . S
C541 C539 1.433 . S
C541 N544 1.384 . S
C542 H533 0.929 . S
C542 C534 1.378 . S
C542 C537 1.350 . S
C543 H530 0.929 1_455 S
C543 C535 1.433 . S
C543 N545 1.384 . S
N544 C540 1.427 . S
N544 C541 1.384 . S
N545 C537 1.427 . S
N545 C543 1.384 . S
H546 C552 0.930 . S
H547 C556 0.930 . S
H548 C561 0.929 . S
H549 C559 0.929 . S
H550 C554 0.929 . S
H551 C560 0.929 . S
C552 H546 0.930 . S
C552 C553 1.367 . S
C552 C560 1.378 . S
C553 C552 1.367 . S
C553 C561 1.433 1_545 S
C554 H550 0.929 . S
C554 C556 1.378 . S
C554 C558 1.350 1_565 S
C555 C558 1.463 . S
C555 C560 1.350 . S
C555 N563 1.427 1_545 S
C556 H547 0.930 . S
C556 C554 1.378 . S
C556 C557 1.367 1_565 S
C557 C556 1.367 1_545 S
C557 C559 1.433 . S
C558 C554 1.350 1_545 S
C558 C555 1.463 . S
C558 N562 1.427 . S
C559 H549 0.929 . S
C559 C557 1.433 . S
C559 N562 1.384 . S
C560 H551 0.929 . S
C560 C552 1.378 . S
C560 C555 1.350 . S
C561 H548 0.929 . S
C561 C553 1.433 1_565 S
C561 N563 1.384 . S
N562 C558 1.427 . S
N562 C559 1.384 . S
N563 C555 1.427 1_565 S
N563 C561 1.384 . S
H564 C570 0.930 . S
H565 C574 0.930 . S
H566 C579 0.929 . S
H567 C577 0.929 . S
H568 C572 0.929 . S
H569 C578 0.929 . S
C570 H564 0.930 . S
C570 C571 1.367 . S
C570 C578 1.378 . S
C571 C570 1.367 . S
C571 C579 1.433 . S
C572 H568 0.929 . S
C572 C574 1.378 . S
C572 C576 1.350 . S
C573 C576 1.463 1_554 S
C573 C578 1.350 . S
C573 N581 1.427 1_554 S
C574 H565 0.930 . S
C574 C572 1.378 . S
C574 C575 1.367 . S
C575 C574 1.367 . S
C575 C577 1.433 . S
C576 C572 1.350 . S
C576 C573 1.463 1_556 S
C576 N580 1.427 . S
C577 H567 0.929 . S
C577 C575 1.433 . S
C577 N580 1.384 . S
C578 H569 0.929 . S
C578 C570 1.378 . S
C578 C573 1.350 . S
C579 H566 0.929 . S
C579 C571 1.433 . S
C579 N581 1.384 1_554 S
N580 C576 1.427 . S
N580 C577 1.384 . S
N581 C573 1.427 1_556 S
N581 C579 1.384 1_556 S
H582 C588 0.930 . S
H583 C592 0.930 . S
H584 C597 0.929 . S
H585 C595 0.929 . S
H586 C590 0.929 . S
H587 C596 0.929 . S
C588 H582 0.930 . S
C588 C589 1.367 . S
C588 C596 1.378 . S
C589 C588 1.367 . S
C589 C597 1.433 . S
C590 H586 0.929 . S
C590 C592 1.378 . S
C590 C594 1.350 . S
C591 C594 1.463 . S
C591 C596 1.350 . S
C591 N599 1.427 . S
C592 H583 0.930 . S
C592 C590 1.378 . S
C592 C593 1.367 . S
C593 C592 1.367 . S
C593 C595 1.433 . S
C594 C590 1.350 . S
C594 C591 1.463 . S
C594 N598 1.427 . S
C595 H585 0.929 . S
C595 C593 1.433 . S
C595 N598 1.384 . S
C596 H587 0.929 . S
C596 C588 1.378 . S
C596 C591 1.350 . S
C597 H584 0.929 . S
C597 C589 1.433 . S
C597 N599 1.384 . S
N598 C594 1.427 . S
N598 C595 1.384 . S
N599 C591 1.427 . S
N599 C597 1.384 . S
C395 C97 1.008 . S
C391 C11 1.374 . S
C409 C25 1.448 . S
C413 C211 1.068 . S
C427 C41 1.216 . S
C431 C271 1.018 . S
C445 C7 1.282 1_565 S
C449 C71 1.062 . S
C467 C185 1.087 . S
C463 C21 1.353 . S
C481 C36 1.365 . S
C485 C281 0.812 . S
C503 C167 0.841 . S
C499 C39 1.348 . S
C517 C8 1.330 1_665 S
C521 C299 1.136 . S
C539 C43 1.050 . S
C535 C22 1.292 1_565 S
C557 C157 0.981 . S
C553 C35 1.261 . S
C575 C325 1.046 . S
C571 C13 1.418 . S
C589 C27 1.374 . S
C593 C53 0.862 . S
