# Generated by pormake.
# Topology hwx, (6,3)-cn, num edge types: 1
# Building blocks:
#     Node 0, Type 0, BuildingBlock: OJICUG_clean_sbu_0, # of connection points: 6
#     Node 1, Type 0, BuildingBlock: OJICUG_clean_sbu_0, # of connection points: 6
#     Node 2, Type 0, BuildingBlock: OJICUG_clean_sbu_0, # of connection points: 6
#     Node 3, Type 0, BuildingBlock: OJICUG_clean_sbu_0, # of connection points: 6
#     Node 4, Type 1, BuildingBlock: INOVEN_clean_linker_0, # of connection points: 3
#     Node 5, Type 1, BuildingBlock: INOVEN_clean_linker_0, # of connection points: 3
#     Node 6, Type 1, BuildingBlock: INOVEN_clean_linker_0, # of connection points: 3
#     Node 7, Type 1, BuildingBlock: INOVEN_clean_linker_0, # of connection points: 3
#     Node 8, Type 1, BuildingBlock: INOVEN_clean_linker_0, # of connection points: 3
#     Node 9, Type 1, BuildingBlock: INOVEN_clean_linker_0, # of connection points: 3
#     Node 10, Type 1, BuildingBlock: INOVEN_clean_linker_0, # of connection points: 3
#     Node 11, Type 1, BuildingBlock: INOVEN_clean_linker_0, # of connection points: 3
#     Edge 12, Type (0, 1), BuildingBlock: CIFDUS_clean_linker_0, # of connection points: 2
#     Edge 13, Type (0, 1), BuildingBlock: CIFDUS_clean_linker_0, # of connection points: 2
#     Edge 14, Type (0, 1), BuildingBlock: CIFDUS_clean_linker_0, # of connection points: 2
#     Edge 15, Type (0, 1), BuildingBlock: CIFDUS_clean_linker_0, # of connection points: 2
#     Edge 16, Type (0, 1), BuildingBlock: CIFDUS_clean_linker_0, # of connection points: 2
#     Edge 17, Type (0, 1), BuildingBlock: CIFDUS_clean_linker_0, # of connection points: 2
#     Edge 18, Type (0, 1), BuildingBlock: CIFDUS_clean_linker_0, # of connection points: 2
#     Edge 19, Type (0, 1), BuildingBlock: CIFDUS_clean_linker_0, # of connection points: 2
#     Edge 20, Type (0, 1), BuildingBlock: CIFDUS_clean_linker_0, # of connection points: 2
#     Edge 21, Type (0, 1), BuildingBlock: CIFDUS_clean_linker_0, # of connection points: 2
#     Edge 22, Type (0, 1), BuildingBlock: CIFDUS_clean_linker_0, # of connection points: 2
#     Edge 23, Type (0, 1), BuildingBlock: CIFDUS_clean_linker_0, # of connection points: 2
#     Edge 24, Type (0, 1), BuildingBlock: CIFDUS_clean_linker_0, # of connection points: 2
#     Edge 25, Type (0, 1), BuildingBlock: CIFDUS_clean_linker_0, # of connection points: 2
#     Edge 26, Type (0, 1), BuildingBlock: CIFDUS_clean_linker_0, # of connection points: 2
#     Edge 27, Type (0, 1), BuildingBlock: CIFDUS_clean_linker_0, # of connection points: 2
#     Edge 28, Type (0, 1), BuildingBlock: CIFDUS_clean_linker_0, # of connection points: 2
#     Edge 29, Type (0, 1), BuildingBlock: CIFDUS_clean_linker_0, # of connection points: 2
#     Edge 30, Type (0, 1), BuildingBlock: CIFDUS_clean_linker_0, # of connection points: 2
#     Edge 31, Type (0, 1), BuildingBlock: CIFDUS_clean_linker_0, # of connection points: 2
#     Edge 32, Type (0, 1), BuildingBlock: CIFDUS_clean_linker_0, # of connection points: 2
#     Edge 33, Type (0, 1), BuildingBlock: CIFDUS_clean_linker_0, # of connection points: 2
#     Edge 34, Type (0, 1), BuildingBlock: CIFDUS_clean_linker_0, # of connection points: 2
#     Edge 35, Type (0, 1), BuildingBlock: CIFDUS_clean_linker_0, # of connection points: 2
# Relax obj value: 0.009
# Max RMSD: 0.042
# Mean RMSD: 0.041
data_MOF--net-hwx--node1-OJICUG_clean_sbu_0--node2-INOVEN_clean_linker_0--edge1-CIFDUS_clean_linker_0
_symmetry_space_group_name_H-M    P1
_symmetry_Int_Tables_number       1
_symmetry_cell_setting            triclinic
loop_
_symmetry_equiv_pos_as_xyz
'x, y, z'
_cell_length_a     46.275593
_cell_length_b     46.32494
_cell_length_c     17.992124
_cell_angle_alpha  92.396063
_cell_angle_beta   91.838186
_cell_angle_gamma 90.004059
loop_
_atom_site_label
_atom_site_type_symbol
_atom_site_fract_x
_atom_site_fract_y
_atom_site_fract_z
_atom_type_partial_charge
Sc0 Sc 0.23106 0.22998 0.067 0.0
Sc1 Sc 0.18213 0.18713 0.95599 0.0
Sc2 Sc 0.23433 0.22987 0.87243 0.0
O3 O 0.21582 0.21566 0.96509 0.0
C4 C 0.2333 0.28743 0.97793 0.0
C5 C 0.16291 0.22814 0.09182 0.0
C6 C 0.16697 0.23128 0.82945 0.0
C7 C 0.22129 0.16288 0.0879 0.0
C8 C 0.28964 0.222 0.97839 0.0
C9 C 0.22236 0.16325 0.82661 0.0
O10 O 0.23161 0.27393 0.03746 0.0
O11 O 0.15783 0.20953 0.03939 0.0
O12 O 0.19313 0.23846 0.82183 0.0
O13 O 0.23257 0.18727 0.1053 0.0
O14 O 0.27744 0.22322 0.91445 0.0
O15 O 0.20204 0.16095 0.87159 0.0
O16 O 0.27578 0.22438 0.03828 0.0
O17 O 0.20205 0.15899 0.03626 0.0
O18 O 0.23629 0.1867 0.82043 0.0
O19 O 0.18819 0.23766 0.10835 0.0
O20 O 0.2346 0.27469 0.91394 0.0
O21 O 0.15919 0.21263 0.87489 0.0
Sc22 Sc 0.27219 0.73339 0.3768 0.0
Sc23 Sc 0.314 0.67805 0.45584 0.0
Sc24 Sc 0.27222 0.72481 0.56955 0.0
O25 O 0.28615 0.71208 0.46739 0.0
C26 C 0.2806 0.78565 0.49655 0.0
C27 C 0.33854 0.72179 0.34064 0.0
C28 C 0.3395 0.7126 0.60025 0.0
C29 C 0.27002 0.66723 0.31758 0.0
C30 C 0.21441 0.73021 0.47025 0.0
C31 C 0.27255 0.65612 0.57912 0.0
O32 O 0.27956 0.77534 0.42991 0.0
O33 O 0.3409 0.70015 0.38145 0.0
O34 O 0.31567 0.72481 0.61555 0.0
O35 O 0.26274 0.69365 0.3147 0.0
O36 O 0.22752 0.72652 0.53234 0.0
O37 O 0.2907 0.65159 0.5286 0.0
O38 O 0.22772 0.73333 0.41023 0.0
O39 O 0.28853 0.6582 0.36495 0.0
O40 O 0.26432 0.68125 0.59973 0.0
O41 O 0.31516 0.73603 0.33358 0.0
O42 O 0.27795 0.77005 0.55229 0.0
O43 O 0.34224 0.69451 0.54574 0.0
Sc44 Sc 0.76991 0.76372 0.94983 0.0
Sc45 Sc 0.81456 0.81381 0.05295 0.0
Sc46 Sc 0.76475 0.77114 0.1441 0.0
O47 O 0.78308 0.78289 0.04888 0.0
C48 C 0.70983 0.77123 0.03378 0.0
C49 C 0.77467 0.83071 0.91365 0.0
C50 C 0.77282 0.83902 0.17709 0.0
C51 C 0.83791 0.77051 0.92611 0.0
C52 C 0.77027 0.71009 0.05473 0.0
C53 C 0.83208 0.77494 0.18915 0.0
O54 O 0.72439 0.76661 0.97555 0.0
O55 O 0.79291 0.83743 0.96609 0.0
O56 O 0.76036 0.81512 0.18724 0.0
O57 O 0.81369 0.75821 0.91089 0.0
O58 O 0.76661 0.72561 0.11366 0.0
O59 O 0.8388 0.7926 0.14008 0.0
O60 O 0.77276 0.72076 0.99122 0.0
O61 O 0.84082 0.79088 0.97495 0.0
O62 O 0.80635 0.76633 0.19759 0.0
O63 O 0.76531 0.80508 0.90069 0.0
O64 O 0.72159 0.77428 0.09839 0.0
O65 O 0.79293 0.84138 0.13158 0.0
Sc66 Sc 0.73614 0.2736 0.64077 0.0
Sc67 Sc 0.68242 0.30965 0.53709 0.0
Sc68 Sc 0.7358 0.26807 0.44602 0.0
O69 O 0.71802 0.28371 0.54122 0.0
C70 C 0.79271 0.2795 0.54503 0.0
C71 C 0.72289 0.34031 0.66524 0.0
C72 C 0.72028 0.33324 0.40702 0.0
C73 C 0.66882 0.27412 0.67772 0.0
C74 C 0.73717 0.21329 0.55033 0.0
C75 C 0.66821 0.26291 0.40598 0.0
O76 O 0.77993 0.27727 0.60582 0.0
O77 O 0.70095 0.34011 0.62047 0.0
O78 O 0.73487 0.31013 0.39736 0.0
O79 O 0.69529 0.26925 0.69293 0.0
O80 O 0.73858 0.22467 0.4871 0.0
O81 O 0.66027 0.28208 0.45373 0.0
O82 O 0.73521 0.22819 0.61106 0.0
O83 O 0.66012 0.28684 0.62011 0.0
O84 O 0.69451 0.25622 0.39728 0.0
O85 O 0.73841 0.31814 0.676 0.0
O86 O 0.77943 0.27776 0.48234 0.0
O87 O 0.70042 0.3358 0.45402 0.0
H88 H 0.21109 0.51123 0.81016 0.0
H89 H 0.22178 0.58813 0.94933 0.0
H90 H 0.22577 0.505 0.04659 0.0
N91 N 0.21786 0.47418 0.91518 0.0
N92 N 0.22326 0.45762 0.96659 0.0
C93 C 0.21392 0.52159 0.86507 0.0
C94 C 0.21497 0.55174 0.87317 0.0
C95 C 0.21762 0.50461 0.92711 0.0
C96 C 0.22242 0.518 -0.00159 0.0
C97 C 0.22334 0.54829 0.00712 0.0
C98 C 0.21938 0.56484 0.94407 0.0
H99 H 0.99163 0.72503 0.68019 0.0
H100 H 0.91443 0.73627 0.54555 0.0
H101 H 0.99724 0.74207 0.44689 0.0
N102 N 0.02884 0.73141 0.57246 0.0
N103 N 0.04459 0.73392 0.51804 0.0
C104 C 0.98123 0.7288 0.62666 0.0
C105 C 0.95089 0.72938 0.61955 0.0
C106 C 0.9982 0.73293 0.56441 0.0
C107 C 0.98452 0.73851 0.49518 0.0
C108 C 0.95429 0.73929 0.48802 0.0
C109 C 0.9378 0.73459 0.55027 0.0
H110 H 0.7691 0.49024 0.18325 0.0
H111 H 0.77376 0.41026 0.05356 0.0
H112 H 0.77042 0.49027 0.94316 0.0
N113 N 0.77026 0.52497 0.06801 0.0
N114 N 0.77156 0.5388 0.01011 0.0
C115 C 0.77028 0.47872 0.12978 0.0
C116 C 0.77185 0.44834 0.12607 0.0
C117 C 0.77049 0.49421 0.06402 0.0
C118 C 0.77105 0.47889 -0.0054 0.0
C119 C 0.77252 0.44875 0.99104 0.0
C120 C 0.77336 0.43371 0.05669 0.0
H121 H 0.01507 0.29011 0.33373 0.0
H122 H 0.09087 0.27715 0.47272 0.0
H123 H 0.00733 0.27752 0.56853 0.0
N124 N 0.97709 0.28714 0.4409 0.0
N125 N 0.96137 0.28758 0.49594 0.0
C126 C 0.02501 0.28706 0.3882 0.0
C127 C 0.05521 0.28483 0.39651 0.0
C128 C 0.00758 0.28508 0.45025 0.0
C129 C 0.02051 0.27992 0.52047 0.0
C130 C 0.05052 0.27735 0.52881 0.0
C131 C 0.06768 0.28026 0.46693 0.0
H132 H 0.74609 0.99798 0.68154 0.0
H133 H 0.7373 0.91466 0.56835 0.0
H134 H 0.73093 0.9912 0.44347 0.0
N135 N 0.73889 0.02899 0.56194 0.0
N136 N 0.73665 0.04198 0.50262 0.0
C137 C 0.74227 0.98487 0.63088 0.0
C138 C 0.74147 0.9546 0.63354 0.0
C139 C 0.73817 0.99833 0.56271 0.0
C140 C 0.73365 0.9812 0.49661 0.0
C141 C 0.73272 0.95101 0.49899 0.0
C142 C 0.7366 0.93805 0.56734 0.0
H143 H 0.50877 0.22685 0.90365 0.0
H144 H 0.58722 0.22986 0.03927 0.0
H145 H 0.5057 0.22038 0.1413 0.0
N146 N 0.47332 0.2197 0.01345 0.0
N147 N 0.45805 0.21732 0.06878 0.0
C148 C 0.51998 0.22563 0.9572 0.0
C149 C 0.55019 0.22908 0.96319 0.0
C150 C 0.50385 0.22197 0.02096 0.0
C151 C 0.51799 0.22217 0.09145 0.0
C152 C 0.54803 0.22519 0.09805 0.0
C153 C 0.56394 0.22766 0.03372 0.0
H154 H 0.24951 0.00127 0.32871 0.0
H155 H 0.25196 0.08407 0.44438 0.0
H156 H 0.27141 0.00746 0.56374 0.0
N157 N 0.26573 0.97067 0.44026 0.0
N158 N 0.27303 0.9559 0.49401 0.0
C159 C 0.25287 0.01421 0.37989 0.0
C160 C 0.24974 0.04411 0.37939 0.0
C161 C 0.2612 0.00086 0.44547 0.0
C162 C 0.26547 0.01763 0.51233 0.0
C163 C 0.26238 0.04785 0.51168 0.0
C164 C 0.25476 0.06081 0.44496 0.0
H165 H 0.49028 0.77295 0.10575 0.0
H166 H 0.41093 0.77418 0.97525 0.0
H167 H 0.49182 0.76784 0.86573 0.0
N168 N 0.52553 0.77071 -0.00714 0.0
N169 N 0.54094 0.76872 0.9372 0.0
C170 C 0.479 0.77284 0.05201 0.0
C171 C 0.44869 0.7743 0.04809 0.0
C172 C 0.49485 0.77115 0.98659 0.0
C173 C 0.48002 0.76991 0.91671 0.0
C174 C 0.44974 0.77144 0.9128 0.0
C175 C 0.4344 0.77403 0.97844 0.0
H176 H 0.16159 0.27405 0.19182 0.0
H177 H 0.1083 0.20577 0.09008 0.0
H178 H 0.06834 0.22052 0.16768 0.0
H179 H 0.05021 0.24938 0.2738 0.0
H180 H 0.10364 0.31667 0.37803 0.0
H181 H 0.14155 0.30622 0.28915 0.0
C182 C 0.1412 0.26249 0.18632 0.0
C183 C 0.13821 0.23855 0.13597 0.0
C184 C 0.1182 0.27103 0.23131 0.0
C185 C 0.1114 0.22413 0.12877 0.0
C186 C 0.08844 0.23256 0.17309 0.0
C187 C 0.06978 0.26232 0.27535 0.0
C188 C 0.07424 0.28371 0.33204 0.0
C189 C 0.09178 0.25558 0.22561 0.0
C190 C 0.09985 0.30009 0.33455 0.0
C191 C 0.12158 0.29395 0.28425 0.0
H192 H 0.22569 0.65511 0.66557 0.0
H193 H 0.2937 0.60096 0.57822 0.0
H194 H 0.2782 0.56149 0.65337 0.0
H195 H 0.24969 0.54495 0.75621 0.0
H196 H 0.18312 0.59982 0.84681 0.0
H197 H 0.19335 0.63635 0.75693 0.0
C198 C 0.237 0.63461 0.66247 0.0
C199 C 0.26119 0.6312 0.61763 0.0
C200 C 0.2282 0.61215 0.7063 0.0
C201 C 0.27519 0.60427 0.61294 0.0
C202 C 0.26637 0.58169 0.65591 0.0
C203 C 0.23683 0.5645 0.7545 0.0
C204 C 0.21582 0.5699 0.8079 0.0
C205 C 0.24346 0.5857 0.7044 0.0
C206 C 0.19949 0.59542 0.80613 0.0
C207 C 0.20546 0.61632 0.75522 0.0
H208 H 0.88595 0.79702 0.22577 0.0
H209 H 0.82965 0.7247 0.26025 0.0
H210 H 0.86496 0.70505 0.34701 0.0
H211 H 0.90933 0.71049 0.42212 0.0
H212 H 0.96489 0.78383 0.39682 0.0
H213 H 0.93302 0.80044 0.29567 0.0
C214 C 0.8816 0.77685 0.25183 0.0
C215 C 0.85495 0.76268 0.2376 0.0
C216 C 0.90193 0.76575 0.30302 0.0
C217 C 0.84969 0.73643 0.27139 0.0
C218 C 0.86994 0.72502 0.32075 0.0
C219 C 0.91463 0.72994 0.39376 0.0
C220 C 0.9391 0.74613 0.41726 0.0
C221 C 0.89574 0.73985 0.33831 0.0
C222 C 0.94612 0.77098 0.37941 0.0
C223 C 0.92774 0.78064 0.32226 0.0
H224 H 0.77334 0.35227 0.73981 0.0
H225 H 0.68896 0.38806 0.69193 0.0
H226 H 0.69909 0.42818 0.78183 0.0
H227 H 0.72938 0.44902 0.88634 0.0
H228 H 0.81209 0.41078 0.93827 0.0
H229 H 0.80537 0.37575 0.83368 0.0
C230 C 0.7572 0.36896 0.74841 0.0
C231 C 0.7302 0.36685 0.7104 0.0
C232 C 0.7629 0.39146 0.80105 0.0
C233 C 0.70983 0.38903 0.72099 0.0
C234 C 0.71556 0.41191 0.77256 0.0
C235 C 0.74618 0.43348 0.87312 0.0
C236 C 0.77115 0.43225 0.91932 0.0
C237 C 0.74166 0.41281 0.81462 0.0
C238 C 0.79273 0.41192 0.90298 0.0
C239 C 0.78881 0.39187 0.84365 0.0
H240 H 0.61111 0.27676 0.38619 0.0
H241 H 0.67611 0.21596 0.31252 0.0
H242 H 0.64252 0.19564 0.21777 0.0
H243 H 0.5971 0.19908 0.14574 0.0
H244 H 0.53278 0.26116 0.21409 0.0
H245 H 0.56323 0.27628 0.32234 0.0
C246 C 0.6178 0.2588 0.35015 0.0
C247 C 0.64632 0.24839 0.35556 0.0
C248 C 0.59846 0.24736 0.29477 0.0
C249 C 0.65449 0.22486 0.3088 0.0
C250 C 0.63528 0.21311 0.25458 0.0
C251 C 0.58959 0.21557 0.18515 0.0
C252 C 0.56299 0.22924 0.17167 0.0
C253 C 0.60758 0.22481 0.24553 0.0
C254 C 0.55319 0.25024 0.22355 0.0
C255 C 0.57073 0.25913 0.28494 0.0
H256 H 0.26705 0.15585 0.73121 0.0
H257 H 0.19377 0.11163 0.81699 0.0
H258 H 0.20305 0.06968 0.73587 0.0
H259 H 0.22856 0.04734 0.63069 0.0
H260 H 0.30037 0.09182 0.54075 0.0
H261 H 0.29564 0.13132 0.63428 0.0
C262 C 0.25321 0.13699 0.7325 0.0
C263 C 0.22948 0.13727 0.7795 0.0
C264 C 0.25856 0.11274 0.68524 0.0
C265 C 0.21204 0.11235 0.78098 0.0
C266 C 0.21734 0.08818 0.73465 0.0
C267 C 0.24375 0.06523 0.63351 0.0
C268 C 0.2649 0.0667 0.57979 0.0
C269 C 0.24015 0.08833 0.68548 0.0
C270 C 0.28412 0.09024 0.58243 0.0
C271 C 0.28118 0.11294 0.63522 0.0
H272 H 0.34602 0.77091 0.26486 0.0
H273 H 0.38875 0.69159 0.32211 0.0
H274 H 0.42921 0.70335 0.24545 0.0
H275 H 0.45001 0.73348 0.15117 0.0
H276 H 0.40666 0.81182 0.09091 0.0
H277 H 0.36931 0.8035 0.18082 0.0
C278 C 0.36424 0.75626 0.26099 0.0
C279 C 0.36401 0.73018 0.29834 0.0
C280 C 0.38748 0.76307 0.21648 0.0
C281 C 0.38811 0.71171 0.29353 0.0
C282 C 0.41135 0.71841 0.24969 0.0
C283 C 0.43286 0.74914 0.15963 0.0
C284 C 0.431 0.77321 0.1149 0.0
C285 C 0.41099 0.7437 0.20963 0.0
C286 C 0.40845 0.79316 0.12515 0.0
C287 C 0.387 0.78827 0.17596 0.0
H288 H 0.79708 0.88456 0.89344 0.0
H289 H 0.72513 0.82856 0.82858 0.0
H290 H 0.70602 0.86456 0.74585 0.0
H291 H 0.71171 0.90968 0.68347 0.0
H292 H 0.78519 0.96457 0.73828 0.0
H293 H 0.80102 0.93199 0.83557 0.0
C294 C 0.77713 0.88036 0.86158 0.0
C295 C 0.76287 0.85365 0.8664 0.0
C296 C 0.76636 0.90109 0.81279 0.0
C297 C 0.73691 0.84864 0.82501 0.0
C298 C 0.72581 0.8693 0.77793 0.0
C299 C 0.73104 0.91468 0.71735 0.0
C300 C 0.74746 0.93924 0.70314 0.0
C301 C 0.74066 0.89526 0.7702 0.0
C302 C 0.77211 0.94583 0.74834 0.0
C303 C 0.78136 0.92699 0.80325 0.0
H304 H 0.84337 0.72637 0.82099 0.0
H305 H 0.89131 0.7957 0.93603 0.0
H306 H 0.93258 0.78581 0.85898 0.0
H307 H 0.95311 0.76156 0.74876 0.0
H308 H 0.90526 0.69305 0.63165 0.0
H309 H 0.86643 0.69807 0.72032 0.0
C310 C 0.86292 0.73912 0.82975 0.0
C311 C 0.86383 0.76207 0.88354 0.0
C312 C 0.88679 0.73344 0.78482 0.0
C313 C 0.88964 0.77809 0.89459 0.0
C314 C 0.91342 0.77246 0.85053 0.0
C315 C 0.93461 0.74712 0.7443 0.0
C316 C 0.93195 0.72706 0.68389 0.0
C317 C 0.912 0.7507 0.7942 0.0
C318 C 0.90769 0.7087 0.6779 0.0
C319 C 0.88539 0.71173 0.72816 0.0
H320 H 0.77043 0.34517 0.33908 0.0
H321 H 0.68495 0.37878 0.37709 0.0
H322 H 0.69504 0.4202 0.30246 0.0
H323 H 0.72673 0.44478 0.21724 0.0
H324 H 0.81175 0.41077 0.178 0.0
H325 H 0.80364 0.37213 0.26363 0.0
C326 C 0.75402 0.36156 0.33104 0.0
C327 C 0.72683 0.3586 0.36271 0.0
C328 C 0.76004 0.3855 0.28855 0.0
C329 C 0.70601 0.38037 0.35295 0.0
C330 C 0.71176 0.40414 0.31039 0.0
C331 C 0.74375 0.42944 0.2296 0.0
C332 C 0.76987 0.43067 0.19227 0.0
C333 C 0.73856 0.40676 0.27709 0.0
C334 C 0.79161 0.41033 0.20705 0.0
C335 C 0.78684 0.38807 0.25521 0.0
H336 H 0.1119 0.21347 0.79042 0.0
H337 H 0.17286 0.28283 0.76601 0.0
H338 H 0.13978 0.30559 0.67902 0.0
H339 H 0.0964 0.30308 0.59897 0.0
H340 H 0.03597 0.23312 0.61635 0.0
H341 H 0.06542 0.21382 0.71846 0.0
C342 C 0.11771 0.23373 0.76672 0.0
C343 C 0.14505 0.24604 0.78333 0.0
C344 C 0.09868 0.24665 0.71553 0.0
C345 C 0.15223 0.27248 0.75277 0.0
C346 C 0.13329 0.28565 0.70324 0.0
C347 C 0.0895 0.28386 0.62606 0.0
C348 C 0.0644 0.26931 0.60001 0.0
C349 C 0.10691 0.27248 0.68254 0.0
C350 C 0.05529 0.24469 0.63588 0.0
C351 C 0.07225 0.2335 0.69362 0.0
H352 H 0.28607 0.61148 0.28335 0.0
H353 H 0.22144 0.67558 0.23181 0.0
H354 H 0.19871 0.64235 0.13945 0.0
H355 H 0.19922 0.59688 0.06639 0.0
H356 H 0.26565 0.53389 0.10935 0.0
H357 H 0.2848 0.56431 0.21406 0.0
C358 C 0.26691 0.6181 0.25227 0.0
C359 C 0.25579 0.64619 0.2639 0.0
C360 C 0.25405 0.59896 0.19815 0.0
C361 C 0.23082 0.65432 0.22331 0.0
C362 C 0.21765 0.63526 0.17066 0.0
C363 C 0.21777 0.58969 0.09905 0.0
C364 C 0.23119 0.56335 0.0795 0.0
C365 C 0.22941 0.60781 0.15663 0.0
C366 C 0.25479 0.554 0.12339 0.0
C367 C 0.26599 0.57158 0.18266 0.0
H368 H 0.34967 0.76375 0.67326 0.0
H369 H 0.38732 0.67973 0.63085 0.0
H370 H 0.42804 0.69243 0.71649 0.0
H371 H 0.44982 0.72569 0.81404 0.0
H372 H 0.41117 0.80917 0.85618 0.0
H373 H 0.37426 0.79876 0.75858 0.0
C374 C 0.36685 0.74823 0.68258 0.0
C375 C 0.36524 0.72064 0.64721 0.0
C376 C 0.39009 0.75572 0.7313 0.0
C377 C 0.38798 0.70103 0.65814 0.0
C378 C 0.41124 0.70828 0.70701 0.0
C379 C 0.43384 0.74186 0.79989 0.0
C380 C 0.43306 0.76814 0.84171 0.0
C381 C 0.41219 0.73536 0.74516 0.0
C382 C 0.41208 0.78887 0.82417 0.0
C383 C 0.39087 0.78281 0.76902 0.0
H384 H 0.72839 0.845 0.27272 0.0
H385 H 0.7992 0.8919 0.18337 0.0
H386 H 0.78981 0.93298 0.26782 0.0
H387 H 0.76561 0.95316 0.37777 0.0
H388 H 0.69586 0.90594 0.46951 0.0
H389 H 0.70035 0.86774 0.37263 0.0
C390 C 0.7416 0.8643 0.27114 0.0
C391 C 0.7648 0.86503 0.22264 0.0
C392 C 0.73628 0.88787 0.32036 0.0
C393 C 0.78138 0.89048 0.22064 0.0
C394 C 0.77605 0.91407 0.26897 0.0
C395 C 0.75084 0.93493 0.37498 0.0
C396 C 0.73058 0.93218 0.43062 0.0
C397 C 0.7541 0.91271 0.32046 0.0
C398 C 0.71173 0.90833 0.42719 0.0
C399 C 0.71441 0.88644 0.37221 0.0
H400 H 0.61868 0.24263 0.66575 0.0
H401 H 0.67273 0.29435 0.81893 0.0
H402 H 0.63921 0.28722 0.91836 0.0
H403 H 0.59551 0.26605 0.96206 0.0
H404 H 0.54378 0.20873 0.81673 0.0
H405 H 0.57473 0.21911 0.71299 0.0
C406 C 0.62292 0.25222 0.72104 0.0
C407 C 0.64803 0.26888 0.73563 0.0
C408 C 0.60394 0.24723 0.77887 0.0
C409 C 0.6536 0.28123 0.80711 0.0
C410 C 0.63443 0.27727 0.86374 0.0
C411 C 0.5912 0.25519 0.90829 0.0
C412 C 0.56762 0.23611 0.898 0.0
C413 C 0.60974 0.26012 0.85039 0.0
C414 C 0.56174 0.22353 0.82655 0.0
C415 C 0.57958 0.22927 0.7673 0.0
H416 H 0.19231 0.11401 0.12307 0.0
H417 H 0.27517 0.15693 0.14597 0.0
H418 H 0.29255 0.12118 0.23153 0.0
H419 H 0.28235 0.08183 0.31208 0.0
H420 H 0.19981 0.03886 0.29497 0.0
H421 H 0.18416 0.0701 0.19414 0.0
C422 C 0.21429 0.11511 0.14586 0.0
C423 C 0.23221 0.13835 0.12974 0.0
C424 C 0.2241 0.09464 0.19638 0.0
C425 C 0.26074 0.13956 0.15907 0.0
C426 C 0.27077 0.11912 0.20783 0.0
C427 C 0.26116 0.07906 0.28505 0.0
C428 C 0.24207 0.05858 0.31049 0.0
C429 C 0.25233 0.09725 0.22882 0.0
C430 C 0.21473 0.0547 0.27555 0.0
C431 C 0.20578 0.07262 0.2185 0.0
H432 H 0.22317 0.3262 0.86924 0.0
H433 H 0.24403 0.32051 0.10403 0.0
H434 H 0.24261 0.37277 0.12018 0.0
H435 H 0.23477 0.42039 0.06884 0.0
H436 H 0.21362 0.42688 0.83536 0.0
H437 H 0.21577 0.37428 0.81745 0.0
C438 C 0.2276 0.33642 0.92374 0.0
C439 C 0.23361 0.31937 0.98519 0.0
C440 C 0.22655 0.3667 0.93309 0.0
C441 C 0.23913 0.33301 0.05566 0.0
C442 C 0.23836 0.36296 0.06516 0.0
C443 C 0.23064 0.4101 0.01426 0.0
C444 C 0.22403 0.42722 0.95401 0.0
C445 C 0.23192 0.37998 0.00448 0.0
C446 C 0.21872 0.41403 0.88292 0.0
C447 C 0.21998 0.38397 0.87261 0.0
H448 H 0.17785 0.72519 0.58559 0.0
H449 H 0.17841 0.73734 0.34877 0.0
H450 H 0.1258 0.7395 0.34395 0.0
H451 H 0.07935 0.73823 0.40676 0.0
H452 H 0.07848 0.72608 0.64263 0.0
H453 H 0.13138 0.72364 0.64817 0.0
C454 C 0.16653 0.72829 0.53283 0.0
C455 C 0.18227 0.73114 0.46768 0.0
C456 C 0.13615 0.72955 0.5303 0.0
C457 C 0.16704 0.73511 0.39991 0.0
C458 C 0.13688 0.73636 0.39699 0.0
C459 C 0.09092 0.73506 0.45917 0.0
C460 C 0.07524 0.73238 0.52382 0.0
C461 C 0.12123 0.73367 0.46177 0.0
C462 C 0.09013 0.72822 0.59193 0.0
C463 C 0.12037 0.72683 0.59508 0.0
H464 H 0.77348 0.66945 0.9415 0.0
H465 H 0.76874 0.67874 0.18066 0.0
H466 H 0.76875 0.6263 0.18924 0.0
H467 H 0.76957 0.57743 0.12841 0.0
H468 H 0.77408 0.56864 0.88983 0.0
H469 H 0.77466 0.62125 0.88135 0.0
C470 C 0.77253 0.6601 -0.00436 0.0
C471 C 0.77106 0.67817 0.06021 0.0
C472 C 0.77242 0.62993 0.00027 0.0
C473 C 0.76981 0.66547 0.12982 0.0
C474 C 0.76981 0.63542 0.13489 0.0
C475 C 0.77067 0.58711 0.07476 0.0
C476 C 0.77173 0.56941 0.00938 0.0
C477 C 0.77098 0.6174 0.07046 0.0
C478 C 0.7732 0.58212 0.94039 0.0
C479 C 0.77356 0.61208 0.93564 0.0
H480 H 0.82829 0.28299 0.42769 0.0
H481 H 0.82873 0.28501 0.66817 0.0
H482 H 0.88122 0.28899 0.67276 0.0
H483 H 0.92727 0.28972 0.60873 0.0
H484 H 0.92726 0.28714 0.36927 0.0
H485 H 0.87431 0.28566 0.36381 0.0
C486 C 0.8398 0.28444 0.48118 0.0
C487 C 0.82449 0.28348 0.54744 0.0
C488 C 0.87007 0.28656 0.48356 0.0
C489 C 0.83987 0.28552 0.6162 0.0
C490 C 0.86992 0.2878 0.61899 0.0
C491 C 0.91546 0.28906 0.55561 0.0
C492 C 0.93082 0.28849 0.48992 0.0
C493 C 0.88522 0.288 0.5531 0.0
C494 C 0.91575 0.2876 0.42075 0.0
C495 C 0.88553 0.2867 0.41766 0.0
H496 H 0.73557 0.17311 0.4345 0.0
H497 H 0.73996 0.18131 0.67471 0.0
H498 H 0.7405 0.12895 0.68179 0.0
H499 H 0.73943 0.08062 0.62028 0.0
H500 H 0.73445 0.07199 0.38095 0.0
H501 H 0.73449 0.12473 0.37295 0.0
C502 C 0.73673 0.1635 0.48845 0.0
C503 C 0.73774 0.18131 0.55387 0.0
C504 C 0.73692 0.13325 0.49233 0.0
C505 C 0.7391 0.16829 0.62326 0.0
C506 C 0.73944 0.13827 0.62751 0.0
C507 C 0.73842 0.0903 0.56644 0.0
C508 C 0.73701 0.07261 0.5009 0.0
C509 C 0.73831 0.12053 0.56249 0.0
C510 C 0.73559 0.0854 0.43173 0.0
C511 C 0.7356 0.11545 0.42727 0.0
H512 H 0.32445 0.21772 0.10285 0.0
H513 H 0.32661 0.21887 0.86299 0.0
H514 H 0.37912 0.21645 0.86918 0.0
H515 H 0.42461 0.21616 0.94245 0.0
H516 H 0.4231 0.21511 0.18154 0.0
H517 H 0.37004 0.21522 0.17597 0.0
C518 C 0.33636 0.21732 0.05188 0.0
C519 C 0.32148 0.21873 0.98269 0.0
C520 C 0.36667 0.21602 0.05566 0.0
C521 C 0.33738 0.21796 0.91719 0.0
C522 C 0.36748 0.2166 0.92053 0.0
C523 C 0.41265 0.21582 -0.00676 0.0
C524 C 0.42748 0.2158 0.06264 0.0
C525 C 0.38235 0.21598 0.98943 0.0
C526 C 0.41183 0.21519 0.12785 0.0
C527 C 0.38164 0.2153 0.12459 0.0
H528 H 0.28325 0.82619 0.39242 0.0
H529 H 0.28357 0.81656 0.63019 0.0
H530 H 0.28299 0.86901 0.65043 0.0
H531 H 0.27905 0.91788 0.59974 0.0
H532 H 0.27749 0.92619 0.36178 0.0
H533 H 0.28198 0.87417 0.34272 0.0
C534 C 0.28343 0.83545 0.44881 0.0
C535 C 0.28317 0.81736 0.50952 0.0
C536 C 0.28267 0.86553 0.4601 0.0
C537 C 0.28357 0.82992 0.5822 0.0
C538 C 0.28319 0.85995 0.59394 0.0
C539 C 0.27992 0.90813 0.54401 0.0
C540 C 0.27755 0.92573 0.48265 0.0
C541 C 0.28219 0.87797 0.53322 0.0
C542 C 0.27884 0.91309 0.41021 0.0
C543 C 0.28148 0.88331 0.39912 0.0
H544 H 0.67524 0.76494 0.90751 0.0
H545 H 0.67194 0.78026 0.14571 0.0
H546 H 0.61942 0.7808 0.1373 0.0
H547 H 0.57418 0.77636 0.06331 0.0
H548 H 0.57659 0.76147 0.8257 0.0
H549 H 0.62968 0.76129 0.83286 0.0
C550 C 0.66307 0.76847 0.9576 0.0
C551 C 0.67774 0.77245 0.02711 0.0
C552 C 0.63265 0.76874 0.95258 0.0
C553 C 0.66144 0.77706 0.09132 0.0
C554 C 0.63129 0.77736 0.08672 0.0
C555 C 0.58631 0.77303 0.01312 0.0
C556 C 0.57164 0.76876 0.94379 0.0
C557 C 0.61667 0.77309 0.0178 0.0
C558 C 0.58764 0.76469 0.8794 0.0
C559 C 0.61788 0.76461 0.88358 0.0
loop_
_geom_bond_atom_site_label_1
_geom_bond_atom_site_label_2
_geom_bond_distance
_geom_bond_site_symmetry_2
_ccdc_geom_bond_type
Sc0 O3 2.025 . S
Sc0 O10 2.105 . S
Sc0 O13 2.105 . S
Sc0 O16 2.105 . S
Sc0 O19 2.105 . S
Sc1 O3 2.025 . S
Sc1 O11 2.105 . S
Sc1 O15 2.105 1_554 S
Sc1 O17 2.105 . S
Sc1 O21 2.105 1_554 S
Sc2 O3 2.025 1_556 S
Sc2 O12 2.105 . S
Sc2 O14 2.105 . S
Sc2 O18 2.105 . S
Sc2 O20 2.105 . S
O3 Sc0 2.025 . S
O3 Sc1 2.025 . S
O3 Sc2 2.025 1_554 S
C4 O10 1.268 . S
C4 O20 1.268 1_554 S
C5 O11 1.268 . S
C5 O19 1.268 . S
C6 O12 1.268 . S
C6 O21 1.268 . S
C7 O13 1.268 . S
C7 O17 1.268 . S
C8 O14 1.268 1_554 S
C8 O16 1.268 . S
C9 O15 1.268 . S
C9 O18 1.268 . S
O10 Sc0 2.105 . S
O10 C4 1.268 . S
O11 Sc1 2.105 . S
O11 C5 1.268 . S
O12 Sc2 2.105 . S
O12 C6 1.268 . S
O13 Sc0 2.105 . S
O13 C7 1.268 . S
O14 Sc2 2.105 . S
O14 C8 1.268 1_556 S
O15 Sc1 2.105 1_556 S
O15 C9 1.268 . S
O16 Sc0 2.105 . S
O16 C8 1.268 . S
O17 Sc1 2.105 . S
O17 C7 1.268 . S
O18 Sc2 2.105 . S
O18 C9 1.268 . S
O19 Sc0 2.105 . S
O19 C5 1.268 . S
O20 Sc2 2.105 . S
O20 C4 1.268 1_556 S
O21 Sc1 2.105 1_556 S
O21 C6 1.268 . S
Sc22 O25 2.025 . S
Sc22 O32 2.105 . S
Sc22 O35 2.105 . S
Sc22 O38 2.105 . S
Sc22 O41 2.105 . S
Sc23 O25 2.025 . S
Sc23 O33 2.105 . S
Sc23 O37 2.105 . S
Sc23 O39 2.105 . S
Sc23 O43 2.105 . S
Sc24 O25 2.025 . S
Sc24 O34 2.105 . S
Sc24 O36 2.105 . S
Sc24 O40 2.105 . S
Sc24 O42 2.105 . S
O25 Sc22 2.025 . S
O25 Sc23 2.025 . S
O25 Sc24 2.025 . S
C26 O32 1.268 . S
C26 O42 1.268 . S
C27 O33 1.268 . S
C27 O41 1.268 . S
C28 O34 1.268 . S
C28 O43 1.268 . S
C29 O35 1.268 . S
C29 O39 1.268 . S
C30 O36 1.268 . S
C30 O38 1.268 . S
C31 O37 1.268 . S
C31 O40 1.268 . S
O32 Sc22 2.105 . S
O32 C26 1.268 . S
O33 Sc23 2.105 . S
O33 C27 1.268 . S
O34 Sc24 2.105 . S
O34 C28 1.268 . S
O35 Sc22 2.105 . S
O35 C29 1.268 . S
O36 Sc24 2.105 . S
O36 C30 1.268 . S
O37 Sc23 2.105 . S
O37 C31 1.268 . S
O38 Sc22 2.105 . S
O38 C30 1.268 . S
O39 Sc23 2.105 . S
O39 C29 1.268 . S
O40 Sc24 2.105 . S
O40 C31 1.268 . S
O41 Sc22 2.105 . S
O41 C27 1.268 . S
O42 Sc24 2.105 . S
O42 C26 1.268 . S
O43 Sc23 2.105 . S
O43 C28 1.268 . S
Sc44 O47 2.025 1_556 S
Sc44 O54 2.105 . S
Sc44 O57 2.105 . S
Sc44 O60 2.105 . S
Sc44 O63 2.105 . S
Sc45 O47 2.025 . S
Sc45 O55 2.105 1_554 S
Sc45 O59 2.105 . S
Sc45 O61 2.105 1_554 S
Sc45 O65 2.105 . S
Sc46 O47 2.025 . S
Sc46 O56 2.105 . S
Sc46 O58 2.105 . S
Sc46 O62 2.105 . S
Sc46 O64 2.105 . S
O47 Sc44 2.025 1_554 S
O47 Sc45 2.025 . S
O47 Sc46 2.025 . S
C48 O54 1.268 1_554 S
C48 O64 1.268 . S
C49 O55 1.268 . S
C49 O63 1.268 . S
C50 O56 1.268 . S
C50 O65 1.268 . S
C51 O57 1.268 . S
C51 O61 1.268 . S
C52 O58 1.268 . S
C52 O60 1.268 1_554 S
C53 O59 1.268 . S
C53 O62 1.268 . S
O54 Sc44 2.105 . S
O54 C48 1.268 1_556 S
O55 Sc45 2.105 1_556 S
O55 C49 1.268 . S
O56 Sc46 2.105 . S
O56 C50 1.268 . S
O57 Sc44 2.105 . S
O57 C51 1.268 . S
O58 Sc46 2.105 . S
O58 C52 1.268 . S
O59 Sc45 2.105 . S
O59 C53 1.268 . S
O60 Sc44 2.105 . S
O60 C52 1.268 1_556 S
O61 Sc45 2.105 1_556 S
O61 C51 1.268 . S
O62 Sc46 2.105 . S
O62 C53 1.268 . S
O63 Sc44 2.105 . S
O63 C49 1.268 . S
O64 Sc46 2.105 . S
O64 C48 1.268 . S
O65 Sc45 2.105 . S
O65 C50 1.268 . S
Sc66 O69 2.025 . S
Sc66 O76 2.105 . S
Sc66 O79 2.105 . S
Sc66 O82 2.105 . S
Sc66 O85 2.105 . S
Sc67 O69 2.025 . S
Sc67 O77 2.105 . S
Sc67 O81 2.105 . S
Sc67 O83 2.105 . S
Sc67 O87 2.105 . S
Sc68 O69 2.025 . S
Sc68 O78 2.105 . S
Sc68 O80 2.105 . S
Sc68 O84 2.105 . S
Sc68 O86 2.105 . S
O69 Sc66 2.025 . S
O69 Sc67 2.025 . S
O69 Sc68 2.025 . S
C70 O76 1.268 . S
C70 O86 1.268 . S
C71 O77 1.268 . S
C71 O85 1.268 . S
C72 O78 1.268 . S
C72 O87 1.268 . S
C73 O79 1.268 . S
C73 O83 1.268 . S
C74 O80 1.268 . S
C74 O82 1.268 . S
C75 O81 1.268 . S
C75 O84 1.268 . S
O76 Sc66 2.105 . S
O76 C70 1.268 . S
O77 Sc67 2.105 . S
O77 C71 1.268 . S
O78 Sc68 2.105 . S
O78 C72 1.268 . S
O79 Sc66 2.105 . S
O79 C73 1.268 . S
O80 Sc68 2.105 . S
O80 C74 1.268 . S
O81 Sc67 2.105 . S
O81 C75 1.268 . S
O82 Sc66 2.105 . S
O82 C74 1.268 . S
O83 Sc67 2.105 . S
O83 C73 1.268 . S
O84 Sc68 2.105 . S
O84 C75 1.268 . S
O85 Sc66 2.105 . S
O85 C71 1.268 . S
O86 Sc68 2.105 . S
O86 C70 1.268 . S
O87 Sc67 2.105 . S
O87 C72 1.268 . S
H88 C93 0.929 . S
H89 C98 0.931 . S
H90 C96 0.930 . S
N91 N92 1.234 1_556 S
N91 C95 1.453 . S
N92 N91 1.234 1_554 S
C93 H88 0.929 . S
C93 C94 1.373 . S
C93 C95 1.368 . S
C94 C93 1.373 . S
C94 C98 1.397 1_556 S
C95 N91 1.453 . S
C95 C93 1.368 . S
C95 C96 1.373 1_556 S
C96 H90 0.930 . S
C96 C95 1.373 1_554 S
C96 C97 1.371 . S
C97 C96 1.371 . S
C97 C98 1.383 . S
C98 H89 0.931 . S
C98 C94 1.397 1_554 S
C98 C97 1.383 . S
H99 C104 0.929 . S
H100 C109 0.931 . S
H101 C107 0.930 . S
N102 N103 1.234 . S
N102 C106 1.448 1_455 S
N103 N102 1.234 . S
C104 H99 0.929 . S
C104 C105 1.373 . S
C104 C106 1.371 . S
C105 C104 1.373 . S
C105 C109 1.397 . S
C106 N102 1.448 1_655 S
C106 C104 1.371 . S
C106 C107 1.375 . S
C107 H101 0.930 . S
C107 C106 1.375 . S
C107 C108 1.371 . S
C108 C107 1.371 . S
C108 C109 1.383 . S
C109 H100 0.931 . S
C109 C105 1.397 . S
C109 C108 1.383 . S
H110 C115 0.929 . S
H111 C120 0.931 . S
H112 C118 0.930 . S
N113 N114 1.234 . S
N113 C117 1.453 . S
N114 N113 1.234 . S
C115 H110 0.929 . S
C115 C116 1.373 . S
C115 C117 1.368 . S
C116 C115 1.373 . S
C116 C120 1.397 . S
C117 N113 1.453 . S
C117 C115 1.368 . S
C117 C118 1.373 1_554 S
C118 H112 0.930 . S
C118 C117 1.373 1_556 S
C118 C119 1.371 . S
C119 C118 1.371 . S
C119 C120 1.383 1_556 S
C120 H111 0.931 . S
C120 C116 1.397 . S
C120 C119 1.383 1_554 S
H121 C126 0.929 . S
H122 C131 0.931 . S
H123 C129 0.930 . S
N124 N125 1.234 . S
N124 C128 1.453 1_655 S
N125 N124 1.234 . S
C126 H121 0.929 . S
C126 C127 1.373 . S
C126 C128 1.368 . S
C127 C126 1.373 . S
C127 C131 1.397 . S
C128 N124 1.453 1_455 S
C128 C126 1.368 . S
C128 C129 1.373 . S
C129 H123 0.930 . S
C129 C128 1.373 . S
C129 C130 1.371 . S
C130 C129 1.371 . S
C130 C131 1.383 . S
C131 H122 0.931 . S
C131 C127 1.397 . S
C131 C130 1.383 . S
H132 C137 0.929 . S
H133 C142 0.931 . S
H134 C140 0.930 . S
N135 N136 1.234 . S
N135 C139 1.453 1_545 S
N136 N135 1.234 . S
C137 H132 0.929 . S
C137 C138 1.373 . S
C137 C139 1.368 . S
C138 C137 1.373 . S
C138 C142 1.397 . S
C139 N135 1.453 1_565 S
C139 C137 1.368 . S
C139 C140 1.373 . S
C140 H134 0.930 . S
C140 C139 1.373 . S
C140 C141 1.371 . S
C141 C140 1.371 . S
C141 C142 1.383 . S
C142 H133 0.931 . S
C142 C138 1.397 . S
C142 C141 1.383 . S
H143 C148 0.929 . S
H144 C153 0.931 . S
H145 C151 0.930 . S
N146 N147 1.234 1_556 S
N146 C150 1.453 . S
N147 N146 1.234 1_554 S
C148 H143 0.929 . S
C148 C149 1.373 . S
C148 C150 1.368 . S
C149 C148 1.373 . S
C149 C153 1.397 1_556 S
C150 N146 1.453 . S
C150 C148 1.368 . S
C150 C151 1.373 1_556 S
C151 H145 0.930 . S
C151 C150 1.373 1_554 S
C151 C152 1.371 . S
C152 C151 1.371 . S
C152 C153 1.383 . S
C153 H144 0.931 . S
C153 C149 1.397 1_554 S
C153 C152 1.383 . S
H154 C159 0.929 . S
H155 C164 0.931 . S
H156 C162 0.930 . S
N157 N158 1.234 . S
N157 C161 1.450 1_565 S
N158 N157 1.234 . S
C159 H154 0.929 . S
C159 C160 1.373 . S
C159 C161 1.370 . S
C160 C159 1.373 . S
C160 C164 1.397 . S
C161 N157 1.450 1_545 S
C161 C159 1.370 . S
C161 C162 1.374 . S
C162 H156 0.930 . S
C162 C161 1.374 . S
C162 C163 1.371 . S
C163 C162 1.371 . S
C163 C164 1.383 . S
C164 H155 0.931 . S
C164 C160 1.397 . S
C164 C163 1.383 . S
H165 C170 0.929 . S
H166 C175 0.931 . S
H167 C173 0.930 . S
N168 N169 1.234 . S
N168 C172 1.453 . S
N169 N168 1.234 . S
C170 H165 0.929 . S
C170 C171 1.373 . S
C170 C172 1.368 . S
C171 C170 1.373 . S
C171 C175 1.397 . S
C172 N168 1.453 . S
C172 C170 1.368 . S
C172 C173 1.373 1_554 S
C173 H167 0.930 . S
C173 C172 1.373 1_556 S
C173 C174 1.371 . S
C174 C173 1.371 . S
C174 C175 1.383 1_556 S
C175 H166 0.931 . S
C175 C171 1.397 . S
C175 C174 1.383 1_554 S
H176 C182 0.930 . S
H177 C185 0.930 . S
H178 C186 0.930 . S
H179 C187 0.930 . S
H180 C190 0.930 . S
H181 C191 0.930 . S
C182 H176 0.930 . S
C182 C183 1.355 . S
C182 C184 1.415 . S
C183 C182 1.355 . S
C183 C185 1.419 . S
C184 C182 1.415 . S
C184 C189 1.425 . S
C184 C191 1.409 . S
C185 H177 0.930 . S
C185 C183 1.419 . S
C185 C186 1.362 . S
C186 H178 0.930 . S
C186 C185 1.362 . S
C186 C189 1.409 . S
C187 H179 0.930 . S
C187 C188 1.355 . S
C187 C189 1.415 . S
C188 C187 1.355 . S
C188 C190 1.419 . S
C189 C184 1.425 . S
C189 C186 1.409 . S
C189 C187 1.415 . S
C190 H180 0.930 . S
C190 C188 1.419 . S
C190 C191 1.362 . S
C191 H181 0.930 . S
C191 C184 1.409 . S
C191 C190 1.362 . S
H192 C198 0.930 . S
H193 C201 0.930 . S
H194 C202 0.930 . S
H195 C203 0.930 . S
H196 C206 0.930 . S
H197 C207 0.930 . S
C198 H192 0.930 . S
C198 C199 1.355 . S
C198 C200 1.415 . S
C199 C198 1.355 . S
C199 C201 1.419 . S
C200 C198 1.415 . S
C200 C205 1.425 . S
C200 C207 1.409 . S
C201 H193 0.930 . S
C201 C199 1.419 . S
C201 C202 1.362 . S
C202 H194 0.930 . S
C202 C201 1.362 . S
C202 C205 1.409 . S
C203 H195 0.930 . S
C203 C204 1.355 . S
C203 C205 1.415 . S
C204 C203 1.355 . S
C204 C206 1.419 . S
C205 C200 1.425 . S
C205 C202 1.409 . S
C205 C203 1.415 . S
C206 H196 0.930 . S
C206 C204 1.419 . S
C206 C207 1.362 . S
C207 H197 0.930 . S
C207 C200 1.409 . S
C207 C206 1.362 . S
H208 C214 0.930 . S
H209 C217 0.930 . S
H210 C218 0.930 . S
H211 C219 0.930 . S
H212 C222 0.930 . S
H213 C223 0.930 . S
C214 H208 0.930 . S
C214 C215 1.355 . S
C214 C216 1.415 . S
C215 C214 1.355 . S
C215 C217 1.419 . S
C216 C214 1.415 . S
C216 C221 1.425 . S
C216 C223 1.409 . S
C217 H209 0.930 . S
C217 C215 1.419 . S
C217 C218 1.362 . S
C218 H210 0.930 . S
C218 C217 1.362 . S
C218 C221 1.409 . S
C219 H211 0.930 . S
C219 C220 1.355 . S
C219 C221 1.415 . S
C220 C219 1.355 . S
C220 C222 1.419 . S
C221 C216 1.425 . S
C221 C218 1.409 . S
C221 C219 1.415 . S
C222 H212 0.930 . S
C222 C220 1.419 . S
C222 C223 1.362 . S
C223 H213 0.930 . S
C223 C216 1.409 . S
C223 C222 1.362 . S
H224 C230 0.930 . S
H225 C233 0.930 . S
H226 C234 0.930 . S
H227 C235 0.930 . S
H228 C238 0.930 . S
H229 C239 0.930 . S
C230 H224 0.930 . S
C230 C231 1.355 . S
C230 C232 1.415 . S
C231 C230 1.355 . S
C231 C233 1.419 . S
C232 C230 1.415 . S
C232 C237 1.425 . S
C232 C239 1.409 . S
C233 H225 0.930 . S
C233 C231 1.419 . S
C233 C234 1.362 . S
C234 H226 0.930 . S
C234 C233 1.362 . S
C234 C237 1.409 . S
C235 H227 0.930 . S
C235 C236 1.355 . S
C235 C237 1.415 . S
C236 C235 1.355 . S
C236 C238 1.419 . S
C237 C232 1.425 . S
C237 C234 1.409 . S
C237 C235 1.415 . S
C238 H228 0.930 . S
C238 C236 1.419 . S
C238 C239 1.362 . S
C239 H229 0.930 . S
C239 C232 1.409 . S
C239 C238 1.362 . S
H240 C246 0.930 . S
H241 C249 0.930 . S
H242 C250 0.930 . S
H243 C251 0.930 . S
H244 C254 0.930 . S
H245 C255 0.930 . S
C246 H240 0.930 . S
C246 C247 1.355 . S
C246 C248 1.415 . S
C247 C246 1.355 . S
C247 C249 1.419 . S
C248 C246 1.415 . S
C248 C253 1.425 . S
C248 C255 1.409 . S
C249 H241 0.930 . S
C249 C247 1.419 . S
C249 C250 1.362 . S
C250 H242 0.930 . S
C250 C249 1.362 . S
C250 C253 1.409 . S
C251 H243 0.930 . S
C251 C252 1.355 . S
C251 C253 1.415 . S
C252 C251 1.355 . S
C252 C254 1.419 . S
C253 C248 1.425 . S
C253 C250 1.409 . S
C253 C251 1.415 . S
C254 H244 0.930 . S
C254 C252 1.419 . S
C254 C255 1.362 . S
C255 H245 0.930 . S
C255 C248 1.409 . S
C255 C254 1.362 . S
H256 C262 0.930 . S
H257 C265 0.930 . S
H258 C266 0.930 . S
H259 C267 0.930 . S
H260 C270 0.930 . S
H261 C271 0.930 . S
C262 H256 0.930 . S
C262 C263 1.355 . S
C262 C264 1.415 . S
C263 C262 1.355 . S
C263 C265 1.419 . S
C264 C262 1.415 . S
C264 C269 1.425 . S
C264 C271 1.409 . S
C265 H257 0.930 . S
C265 C263 1.419 . S
C265 C266 1.362 . S
C266 H258 0.930 . S
C266 C265 1.362 . S
C266 C269 1.409 . S
C267 H259 0.930 . S
C267 C268 1.355 . S
C267 C269 1.415 . S
C268 C267 1.355 . S
C268 C270 1.419 . S
C269 C264 1.425 . S
C269 C266 1.409 . S
C269 C267 1.415 . S
C270 H260 0.930 . S
C270 C268 1.419 . S
C270 C271 1.362 . S
C271 H261 0.930 . S
C271 C264 1.409 . S
C271 C270 1.362 . S
H272 C278 0.930 . S
H273 C281 0.930 . S
H274 C282 0.930 . S
H275 C283 0.930 . S
H276 C286 0.930 . S
H277 C287 0.930 . S
C278 H272 0.930 . S
C278 C279 1.355 . S
C278 C280 1.415 . S
C279 C278 1.355 . S
C279 C281 1.419 . S
C280 C278 1.415 . S
C280 C285 1.425 . S
C280 C287 1.409 . S
C281 H273 0.930 . S
C281 C279 1.419 . S
C281 C282 1.362 . S
C282 H274 0.930 . S
C282 C281 1.362 . S
C282 C285 1.409 . S
C283 H275 0.930 . S
C283 C284 1.355 . S
C283 C285 1.415 . S
C284 C283 1.355 . S
C284 C286 1.419 . S
C285 C280 1.425 . S
C285 C282 1.409 . S
C285 C283 1.415 . S
C286 H276 0.930 . S
C286 C284 1.419 . S
C286 C287 1.362 . S
C287 H277 0.930 . S
C287 C280 1.409 . S
C287 C286 1.362 . S
H288 C294 0.930 . S
H289 C297 0.930 . S
H290 C298 0.930 . S
H291 C299 0.930 . S
H292 C302 0.930 . S
H293 C303 0.930 . S
C294 H288 0.930 . S
C294 C295 1.355 . S
C294 C296 1.415 . S
C295 C294 1.355 . S
C295 C297 1.419 . S
C296 C294 1.415 . S
C296 C301 1.425 . S
C296 C303 1.409 . S
C297 H289 0.930 . S
C297 C295 1.419 . S
C297 C298 1.362 . S
C298 H290 0.930 . S
C298 C297 1.362 . S
C298 C301 1.409 . S
C299 H291 0.930 . S
C299 C300 1.355 . S
C299 C301 1.415 . S
C300 C299 1.355 . S
C300 C302 1.419 . S
C301 C296 1.425 . S
C301 C298 1.409 . S
C301 C299 1.415 . S
C302 H292 0.930 . S
C302 C300 1.419 . S
C302 C303 1.362 . S
C303 H293 0.930 . S
C303 C296 1.409 . S
C303 C302 1.362 . S
H304 C310 0.930 . S
H305 C313 0.930 . S
H306 C314 0.930 . S
H307 C315 0.930 . S
H308 C318 0.930 . S
H309 C319 0.930 . S
C310 H304 0.930 . S
C310 C311 1.355 . S
C310 C312 1.415 . S
C311 C310 1.355 . S
C311 C313 1.419 . S
C312 C310 1.415 . S
C312 C317 1.425 . S
C312 C319 1.409 . S
C313 H305 0.930 . S
C313 C311 1.419 . S
C313 C314 1.362 . S
C314 H306 0.930 . S
C314 C313 1.362 . S
C314 C317 1.409 . S
C315 H307 0.930 . S
C315 C316 1.355 . S
C315 C317 1.415 . S
C316 C315 1.355 . S
C316 C318 1.419 . S
C317 C312 1.425 . S
C317 C314 1.409 . S
C317 C315 1.415 . S
C318 H308 0.930 . S
C318 C316 1.419 . S
C318 C319 1.362 . S
C319 H309 0.930 . S
C319 C312 1.409 . S
C319 C318 1.362 . S
H320 C326 0.930 . S
H321 C329 0.930 . S
H322 C330 0.930 . S
H323 C331 0.930 . S
H324 C334 0.930 . S
H325 C335 0.930 . S
C326 H320 0.930 . S
C326 C327 1.355 . S
C326 C328 1.415 . S
C327 C326 1.355 . S
C327 C329 1.419 . S
C328 C326 1.415 . S
C328 C333 1.425 . S
C328 C335 1.409 . S
C329 H321 0.930 . S
C329 C327 1.419 . S
C329 C330 1.362 . S
C330 H322 0.930 . S
C330 C329 1.362 . S
C330 C333 1.409 . S
C331 H323 0.930 . S
C331 C332 1.355 . S
C331 C333 1.415 . S
C332 C331 1.355 . S
C332 C334 1.419 . S
C333 C328 1.425 . S
C333 C330 1.409 . S
C333 C331 1.415 . S
C334 H324 0.930 . S
C334 C332 1.419 . S
C334 C335 1.362 . S
C335 H325 0.930 . S
C335 C328 1.409 . S
C335 C334 1.362 . S
H336 C342 0.930 . S
H337 C345 0.930 . S
H338 C346 0.930 . S
H339 C347 0.930 . S
H340 C350 0.930 . S
H341 C351 0.930 . S
C342 H336 0.930 . S
C342 C343 1.355 . S
C342 C344 1.415 . S
C343 C342 1.355 . S
C343 C345 1.419 . S
C344 C342 1.415 . S
C344 C349 1.425 . S
C344 C351 1.409 . S
C345 H337 0.930 . S
C345 C343 1.419 . S
C345 C346 1.362 . S
C346 H338 0.930 . S
C346 C345 1.362 . S
C346 C349 1.409 . S
C347 H339 0.930 . S
C347 C348 1.355 . S
C347 C349 1.415 . S
C348 C347 1.355 . S
C348 C350 1.419 . S
C349 C344 1.425 . S
C349 C346 1.409 . S
C349 C347 1.415 . S
C350 H340 0.930 . S
C350 C348 1.419 . S
C350 C351 1.362 . S
C351 H341 0.930 . S
C351 C344 1.409 . S
C351 C350 1.362 . S
H352 C358 0.930 . S
H353 C361 0.930 . S
H354 C362 0.930 . S
H355 C363 0.930 . S
H356 C366 0.930 . S
H357 C367 0.930 . S
C358 H352 0.930 . S
C358 C359 1.355 . S
C358 C360 1.415 . S
C359 C358 1.355 . S
C359 C361 1.419 . S
C360 C358 1.415 . S
C360 C365 1.425 . S
C360 C367 1.409 . S
C361 H353 0.930 . S
C361 C359 1.419 . S
C361 C362 1.362 . S
C362 H354 0.930 . S
C362 C361 1.362 . S
C362 C365 1.409 . S
C363 H355 0.930 . S
C363 C364 1.355 . S
C363 C365 1.415 . S
C364 C363 1.355 . S
C364 C366 1.419 . S
C365 C360 1.425 . S
C365 C362 1.409 . S
C365 C363 1.415 . S
C366 H356 0.930 . S
C366 C364 1.419 . S
C366 C367 1.362 . S
C367 H357 0.930 . S
C367 C360 1.409 . S
C367 C366 1.362 . S
H368 C374 0.930 . S
H369 C377 0.930 . S
H370 C378 0.930 . S
H371 C379 0.930 . S
H372 C382 0.930 . S
H373 C383 0.930 . S
C374 H368 0.930 . S
C374 C375 1.355 . S
C374 C376 1.415 . S
C375 C374 1.355 . S
C375 C377 1.419 . S
C376 C374 1.415 . S
C376 C381 1.425 . S
C376 C383 1.409 . S
C377 H369 0.930 . S
C377 C375 1.419 . S
C377 C378 1.362 . S
C378 H370 0.930 . S
C378 C377 1.362 . S
C378 C381 1.409 . S
C379 H371 0.930 . S
C379 C380 1.355 . S
C379 C381 1.415 . S
C380 C379 1.355 . S
C380 C382 1.419 . S
C381 C376 1.425 . S
C381 C378 1.409 . S
C381 C379 1.415 . S
C382 H372 0.930 . S
C382 C380 1.419 . S
C382 C383 1.362 . S
C383 H373 0.930 . S
C383 C376 1.409 . S
C383 C382 1.362 . S
H384 C390 0.930 . S
H385 C393 0.930 . S
H386 C394 0.930 . S
H387 C395 0.930 . S
H388 C398 0.930 . S
H389 C399 0.930 . S
C390 H384 0.930 . S
C390 C391 1.355 . S
C390 C392 1.415 . S
C391 C390 1.355 . S
C391 C393 1.419 . S
C392 C390 1.415 . S
C392 C397 1.425 . S
C392 C399 1.409 . S
C393 H385 0.930 . S
C393 C391 1.419 . S
C393 C394 1.362 . S
C394 H386 0.930 . S
C394 C393 1.362 . S
C394 C397 1.409 . S
C395 H387 0.930 . S
C395 C396 1.355 . S
C395 C397 1.415 . S
C396 C395 1.355 . S
C396 C398 1.419 . S
C397 C392 1.425 . S
C397 C394 1.409 . S
C397 C395 1.415 . S
C398 H388 0.930 . S
C398 C396 1.419 . S
C398 C399 1.362 . S
C399 H389 0.930 . S
C399 C392 1.409 . S
C399 C398 1.362 . S
H400 C406 0.930 . S
H401 C409 0.930 . S
H402 C410 0.930 . S
H403 C411 0.930 . S
H404 C414 0.930 . S
H405 C415 0.930 . S
C406 H400 0.930 . S
C406 C407 1.355 . S
C406 C408 1.415 . S
C407 C406 1.355 . S
C407 C409 1.419 . S
C408 C406 1.415 . S
C408 C413 1.425 . S
C408 C415 1.409 . S
C409 H401 0.930 . S
C409 C407 1.419 . S
C409 C410 1.362 . S
C410 H402 0.930 . S
C410 C409 1.362 . S
C410 C413 1.409 . S
C411 H403 0.930 . S
C411 C412 1.355 . S
C411 C413 1.415 . S
C412 C411 1.355 . S
C412 C414 1.419 . S
C413 C408 1.425 . S
C413 C410 1.409 . S
C413 C411 1.415 . S
C414 H404 0.930 . S
C414 C412 1.419 . S
C414 C415 1.362 . S
C415 H405 0.930 . S
C415 C408 1.409 . S
C415 C414 1.362 . S
H416 C422 0.930 . S
H417 C425 0.930 . S
H418 C426 0.930 . S
H419 C427 0.930 . S
H420 C430 0.930 . S
H421 C431 0.930 . S
C422 H416 0.930 . S
C422 C423 1.355 . S
C422 C424 1.415 . S
C423 C422 1.355 . S
C423 C425 1.419 . S
C424 C422 1.415 . S
C424 C429 1.425 . S
C424 C431 1.409 . S
C425 H417 0.930 . S
C425 C423 1.419 . S
C425 C426 1.362 . S
C426 H418 0.930 . S
C426 C425 1.362 . S
C426 C429 1.409 . S
C427 H419 0.930 . S
C427 C428 1.355 . S
C427 C429 1.415 . S
C428 C427 1.355 . S
C428 C430 1.419 . S
C429 C424 1.425 . S
C429 C426 1.409 . S
C429 C427 1.415 . S
C430 H420 0.930 . S
C430 C428 1.419 . S
C430 C431 1.362 . S
C431 H421 0.930 . S
C431 C424 1.409 . S
C431 C430 1.362 . S
H432 C438 0.930 . S
H433 C441 0.930 . S
H434 C442 0.930 . S
H435 C443 0.930 . S
H436 C446 0.930 . S
H437 C447 0.930 . S
C438 H432 0.930 . S
C438 C439 1.355 1_556 S
C438 C440 1.415 . S
C439 C438 1.355 1_554 S
C439 C441 1.419 . S
C440 C438 1.415 . S
C440 C445 1.425 1_556 S
C440 C447 1.409 . S
C441 H433 0.930 . S
C441 C439 1.419 . S
C441 C442 1.362 . S
C442 H434 0.930 . S
C442 C441 1.362 . S
C442 C445 1.409 . S
C443 H435 0.930 . S
C443 C444 1.355 . S
C443 C445 1.415 . S
C444 C443 1.355 . S
C444 C446 1.419 1_554 S
C445 C440 1.425 1_554 S
C445 C442 1.409 . S
C445 C443 1.415 . S
C446 H436 0.930 . S
C446 C444 1.419 1_556 S
C446 C447 1.362 . S
C447 H437 0.930 . S
C447 C440 1.409 . S
C447 C446 1.362 . S
H448 C454 0.930 . S
H449 C457 0.930 . S
H450 C458 0.930 . S
H451 C459 0.930 . S
H452 C462 0.930 . S
H453 C463 0.930 . S
C454 H448 0.930 . S
C454 C455 1.355 . S
C454 C456 1.415 . S
C455 C454 1.355 . S
C455 C457 1.419 . S
C456 C454 1.415 . S
C456 C461 1.425 . S
C456 C463 1.409 . S
C457 H449 0.930 . S
C457 C455 1.419 . S
C457 C458 1.362 . S
C458 H450 0.930 . S
C458 C457 1.362 . S
C458 C461 1.409 . S
C459 H451 0.930 . S
C459 C460 1.355 . S
C459 C461 1.415 . S
C460 C459 1.355 . S
C460 C462 1.419 . S
C461 C456 1.425 . S
C461 C458 1.409 . S
C461 C459 1.415 . S
C462 H452 0.930 . S
C462 C460 1.419 . S
C462 C463 1.362 . S
C463 H453 0.930 . S
C463 C456 1.409 . S
C463 C462 1.362 . S
H464 C470 0.930 . S
H465 C473 0.930 . S
H466 C474 0.930 . S
H467 C475 0.930 . S
H468 C478 0.930 . S
H469 C479 0.930 . S
C470 H464 0.930 . S
C470 C471 1.355 1_556 S
C470 C472 1.415 . S
C471 C470 1.355 1_554 S
C471 C473 1.419 . S
C472 C470 1.415 . S
C472 C477 1.425 1_556 S
C472 C479 1.409 . S
C473 H465 0.930 . S
C473 C471 1.419 . S
C473 C474 1.362 . S
C474 H466 0.930 . S
C474 C473 1.362 . S
C474 C477 1.409 . S
C475 H467 0.930 . S
C475 C476 1.355 . S
C475 C477 1.415 . S
C476 C475 1.355 . S
C476 C478 1.419 1_554 S
C477 C472 1.425 1_554 S
C477 C474 1.409 . S
C477 C475 1.415 . S
C478 H468 0.930 . S
C478 C476 1.419 1_556 S
C478 C479 1.362 . S
C479 H469 0.930 . S
C479 C472 1.409 . S
C479 C478 1.362 . S
H480 C486 0.930 . S
H481 C489 0.930 . S
H482 C490 0.930 . S
H483 C491 0.930 . S
H484 C494 0.930 . S
H485 C495 0.930 . S
C486 H480 0.930 . S
C486 C487 1.355 . S
C486 C488 1.415 . S
C487 C486 1.355 . S
C487 C489 1.419 . S
C488 C486 1.415 . S
C488 C493 1.425 . S
C488 C495 1.409 . S
C489 H481 0.930 . S
C489 C487 1.419 . S
C489 C490 1.362 . S
C490 H482 0.930 . S
C490 C489 1.362 . S
C490 C493 1.409 . S
C491 H483 0.930 . S
C491 C492 1.355 . S
C491 C493 1.415 . S
C492 C491 1.355 . S
C492 C494 1.419 . S
C493 C488 1.425 . S
C493 C490 1.409 . S
C493 C491 1.415 . S
C494 H484 0.930 . S
C494 C492 1.419 . S
C494 C495 1.362 . S
C495 H485 0.930 . S
C495 C488 1.409 . S
C495 C494 1.362 . S
H496 C502 0.930 . S
H497 C505 0.930 . S
H498 C506 0.930 . S
H499 C507 0.930 . S
H500 C510 0.930 . S
H501 C511 0.930 . S
C502 H496 0.930 . S
C502 C503 1.355 . S
C502 C504 1.415 . S
C503 C502 1.355 . S
C503 C505 1.419 . S
C504 C502 1.415 . S
C504 C509 1.425 . S
C504 C511 1.409 . S
C505 H497 0.930 . S
C505 C503 1.419 . S
C505 C506 1.362 . S
C506 H498 0.930 . S
C506 C505 1.362 . S
C506 C509 1.409 . S
C507 H499 0.930 . S
C507 C508 1.355 . S
C507 C509 1.415 . S
C508 C507 1.355 . S
C508 C510 1.419 . S
C509 C504 1.425 . S
C509 C506 1.409 . S
C509 C507 1.415 . S
C510 H500 0.930 . S
C510 C508 1.419 . S
C510 C511 1.362 . S
C511 H501 0.930 . S
C511 C504 1.409 . S
C511 C510 1.362 . S
H512 C518 0.930 . S
H513 C521 0.930 . S
H514 C522 0.930 . S
H515 C523 0.930 . S
H516 C526 0.930 . S
H517 C527 0.930 . S
C518 H512 0.930 . S
C518 C519 1.355 . S
C518 C520 1.415 . S
C519 C518 1.355 . S
C519 C521 1.419 1_554 S
C520 C518 1.415 . S
C520 C525 1.425 1_554 S
C520 C527 1.409 . S
C521 H513 0.930 . S
C521 C519 1.419 1_556 S
C521 C522 1.362 . S
C522 H514 0.930 . S
C522 C521 1.362 . S
C522 C525 1.409 . S
C523 H515 0.930 . S
C523 C524 1.355 1_556 S
C523 C525 1.415 . S
C524 C523 1.355 1_554 S
C524 C526 1.419 . S
C525 C520 1.425 1_556 S
C525 C522 1.409 . S
C525 C523 1.415 . S
C526 H516 0.930 . S
C526 C524 1.419 . S
C526 C527 1.362 . S
C527 H517 0.930 . S
C527 C520 1.409 . S
C527 C526 1.362 . S
H528 C534 0.930 . S
H529 C537 0.930 . S
H530 C538 0.930 . S
H531 C539 0.930 . S
H532 C542 0.930 . S
H533 C543 0.930 . S
C534 H528 0.930 . S
C534 C535 1.355 . S
C534 C536 1.415 . S
C535 C534 1.355 . S
C535 C537 1.419 . S
C536 C534 1.415 . S
C536 C541 1.425 . S
C536 C543 1.409 . S
C537 H529 0.930 . S
C537 C535 1.419 . S
C537 C538 1.362 . S
C538 H530 0.930 . S
C538 C537 1.362 . S
C538 C541 1.409 . S
C539 H531 0.930 . S
C539 C540 1.355 . S
C539 C541 1.415 . S
C540 C539 1.355 . S
C540 C542 1.419 . S
C541 C536 1.425 . S
C541 C538 1.409 . S
C541 C539 1.415 . S
C542 H532 0.930 . S
C542 C540 1.419 . S
C542 C543 1.362 . S
C543 H533 0.930 . S
C543 C536 1.409 . S
C543 C542 1.362 . S
H544 C550 0.930 . S
H545 C553 0.930 . S
H546 C554 0.930 . S
H547 C555 0.930 . S
H548 C558 0.930 . S
H549 C559 0.930 . S
C550 H544 0.930 . S
C550 C551 1.355 1_556 S
C550 C552 1.415 . S
C551 C550 1.355 1_554 S
C551 C553 1.419 . S
C552 C550 1.415 . S
C552 C557 1.425 1_556 S
C552 C559 1.409 . S
C553 H545 0.930 . S
C553 C551 1.419 . S
C553 C554 1.362 . S
C554 H546 0.930 . S
C554 C553 1.362 . S
C554 C557 1.409 . S
C555 H547 0.930 . S
C555 C556 1.355 . S
C555 C557 1.415 . S
C556 C555 1.355 . S
C556 C558 1.419 1_554 S
C557 C552 1.425 1_554 S
C557 C554 1.409 . S
C557 C555 1.415 . S
C558 H548 0.930 . S
C558 C556 1.419 1_556 S
C558 C559 1.362 . S
C559 H549 0.930 . S
C559 C552 1.409 . S
C559 C558 1.362 . S
C183 C5 1.440 . S
C188 C127 1.450 . S
C199 C31 1.463 . S
C204 C94 1.464 . S
C220 C108 1.441 . S
C215 C53 1.501 . S
C231 C71 1.472 . S
C236 C119 1.439 . S
C252 C152 1.437 . S
C247 C75 1.482 . S
C268 C163 1.475 . S
C263 C9 1.476 . S
C284 C171 1.460 . S
C279 C27 1.469 . S
C300 C138 1.442 . S
C295 C49 1.459 . S
C311 C51 1.463 . S
C316 C105 1.429 . S
C327 C72 1.452 . S
C332 C116 1.472 . S
C343 C6 1.468 . S
C348 C130 1.497 . S
C364 C97 1.471 . S
C359 C29 1.463 . S
C375 C28 1.482 . S
C380 C174 1.431 . S
C396 C141 1.449 . S
C391 C50 1.496 . S
C412 C149 1.480 . S
C407 C73 1.436 . S
C423 C7 1.451 . S
C428 C160 1.435 . S
C444 N92 1.509 . S
C439 C4 1.501 . S
C460 N103 1.504 . S
C455 C30 1.513 . S
C471 C52 1.484 . S
C476 N114 1.500 . S
C487 C70 1.498 . S
C492 N125 1.510 . S
C508 N136 1.482 . S
C503 C74 1.513 . S
C519 C8 1.482 . S
C524 N147 1.503 . S
C535 C26 1.514 . S
C540 N158 1.493 . S
C551 C48 1.489 . S
C556 N169 1.494 . S
