# Generated by pormake.
# Topology nom, (4,4)-cn, num edge types: 1
# Building blocks:
#     Node 0, Type 0, BuildingBlock: NAHDIM_clean_linker_0, # of connection points: 4
#     Node 1, Type 0, BuildingBlock: NAHDIM_clean_linker_0, # of connection points: 4
#     Node 2, Type 0, BuildingBlock: NAHDIM_clean_linker_0, # of connection points: 4
#     Node 3, Type 0, BuildingBlock: NAHDIM_clean_linker_0, # of connection points: 4
#     Node 4, Type 0, BuildingBlock: NAHDIM_clean_linker_0, # of connection points: 4
#     Node 5, Type 0, BuildingBlock: NAHDIM_clean_linker_0, # of connection points: 4
#     Node 6, Type 1, BuildingBlock: AZAVOO_clean_sbu_0, # of connection points: 4
#     Node 7, Type 1, BuildingBlock: AZAVOO_clean_sbu_0, # of connection points: 4
#     Node 8, Type 1, BuildingBlock: AZAVOO_clean_sbu_0, # of connection points: 4
#     Node 9, Type 1, BuildingBlock: AZAVOO_clean_sbu_0, # of connection points: 4
#     Node 10, Type 1, BuildingBlock: AZAVOO_clean_sbu_0, # of connection points: 4
#     Node 11, Type 1, BuildingBlock: AZAVOO_clean_sbu_0, # of connection points: 4
#     Edge 12, Type (0, 1), BuildingBlock: ZUJKAS_clean_linker_0, # of connection points: 2
#     Edge 13, Type (0, 1), BuildingBlock: ZUJKAS_clean_linker_0, # of connection points: 2
#     Edge 14, Type (0, 1), BuildingBlock: ZUJKAS_clean_linker_0, # of connection points: 2
#     Edge 15, Type (0, 1), BuildingBlock: ZUJKAS_clean_linker_0, # of connection points: 2
#     Edge 16, Type (0, 1), BuildingBlock: ZUJKAS_clean_linker_0, # of connection points: 2
#     Edge 17, Type (0, 1), BuildingBlock: ZUJKAS_clean_linker_0, # of connection points: 2
#     Edge 18, Type (0, 1), BuildingBlock: ZUJKAS_clean_linker_0, # of connection points: 2
#     Edge 19, Type (0, 1), BuildingBlock: ZUJKAS_clean_linker_0, # of connection points: 2
#     Edge 20, Type (0, 1), BuildingBlock: ZUJKAS_clean_linker_0, # of connection points: 2
#     Edge 21, Type (0, 1), BuildingBlock: ZUJKAS_clean_linker_0, # of connection points: 2
#     Edge 22, Type (0, 1), BuildingBlock: ZUJKAS_clean_linker_0, # of connection points: 2
#     Edge 23, Type (0, 1), BuildingBlock: ZUJKAS_clean_linker_0, # of connection points: 2
#     Edge 24, Type (0, 1), BuildingBlock: ZUJKAS_clean_linker_0, # of connection points: 2
#     Edge 25, Type (0, 1), BuildingBlock: ZUJKAS_clean_linker_0, # of connection points: 2
#     Edge 26, Type (0, 1), BuildingBlock: ZUJKAS_clean_linker_0, # of connection points: 2
#     Edge 27, Type (0, 1), BuildingBlock: ZUJKAS_clean_linker_0, # of connection points: 2
#     Edge 28, Type (0, 1), BuildingBlock: ZUJKAS_clean_linker_0, # of connection points: 2
#     Edge 29, Type (0, 1), BuildingBlock: ZUJKAS_clean_linker_0, # of connection points: 2
#     Edge 30, Type (0, 1), BuildingBlock: ZUJKAS_clean_linker_0, # of connection points: 2
#     Edge 31, Type (0, 1), BuildingBlock: ZUJKAS_clean_linker_0, # of connection points: 2
#     Edge 32, Type (0, 1), BuildingBlock: ZUJKAS_clean_linker_0, # of connection points: 2
#     Edge 33, Type (0, 1), BuildingBlock: ZUJKAS_clean_linker_0, # of connection points: 2
#     Edge 34, Type (0, 1), BuildingBlock: ZUJKAS_clean_linker_0, # of connection points: 2
#     Edge 35, Type (0, 1), BuildingBlock: ZUJKAS_clean_linker_0, # of connection points: 2
# Relax obj value: 0.095
# Max RMSD: 0.169
# Mean RMSD: 0.146
data_MOF--net-nom--node1-AZAVOO_clean_sbu_0--node2-NAHDIM_clean_linker_0--edge1-ZUJKAS_clean_linker_0
_symmetry_space_group_name_H-M    P1
_symmetry_Int_Tables_number       1
_symmetry_cell_setting            triclinic
loop_
_symmetry_equiv_pos_as_xyz
'x, y, z'
_cell_length_a     69.862757
_cell_length_b     70.56717
_cell_length_c     83.120388
_cell_angle_alpha  90.834854
_cell_angle_beta   90.831258
_cell_angle_gamma 119.9914
loop_
_atom_site_label
_atom_site_type_symbol
_atom_site_fract_x
_atom_site_fract_y
_atom_site_fract_z
_atom_type_partial_charge
C0 C 0.12859 0.57871 0.2593 0.0
C1 C 0.13655 0.58808 0.27643 0.0
C2 C 0.10089 0.57876 0.2883 0.0
C3 C 0.09318 0.5563 0.29011 0.0
C4 C 0.07138 0.54205 0.29462 0.0
C5 C 0.05696 0.55034 0.29729 0.0
C6 C 0.06472 0.57295 0.29569 0.0
C7 C 0.08669 0.58689 0.29138 0.0
C8 C 0.06367 0.51804 0.2964 0.0
C9 C 0.04972 0.58231 0.29832 0.0
C10 C 0.97371 0.49441 0.21294 0.0
C11 C 0.95139 0.48906 0.21986 0.0
C12 C 0.95724 0.48334 0.24787 0.0
C13 C 0.95998 0.50265 0.25514 0.0
C14 C 0.97195 0.51074 0.26972 0.0
C15 C 0.98136 0.49928 0.27715 0.0
C16 C 0.97774 0.47928 0.27023 0.0
C17 C 0.96544 0.47142 0.25573 0.0
C18 C 0.97504 0.53184 0.27699 0.0
C19 C 0.98748 0.46663 0.27789 0.0
C20 C 0.89969 0.44321 0.36237 0.0
C21 C 0.90476 0.46461 0.35894 0.0
C22 C 0.9268 0.48136 0.3576 0.0
C23 C 0.944 0.47644 0.35946 0.0
C24 C 0.93895 0.45513 0.36382 0.0
C25 C 0.91677 0.43883 0.36544 0.0
C26 C 0.93164 0.50411 0.35364 0.0
C27 C 0.9569 0.4494 0.36614 0.0
C28 C 0.10311 0.60773 0.40423 0.0
C29 C 0.09028 0.58385 0.40926 0.0
C30 C 0.0514 0.56252 0.40127 0.0
C31 C 0.03531 0.56716 0.39563 0.0
C32 C 0.01892 0.55309 0.38443 0.0
C33 C 0.01842 0.53369 0.37912 0.0
C34 C 0.03359 0.52806 0.38584 0.0
C35 C 0.05004 0.54263 0.39681 0.0
C36 C 0.00277 0.55942 0.37772 0.0
C37 C 0.03299 0.50711 0.3809 0.0
C38 C 0.03358 0.53519 0.30129 0.0
C39 C 0.01857 0.52413 0.2886 0.0
C40 C 0.99639 0.5092 0.29141 0.0
C41 C 0.98894 0.50479 0.30738 0.0
C42 C 0.96692 0.48936 0.31068 0.0
C43 C 0.95979 0.48519 0.32646 0.0
C44 C 0.97426 0.49671 0.33953 0.0
C45 C 0.96704 0.493 0.35561 0.0
C46 C 0.98176 0.50506 0.36827 0.0
C47 C 0.00371 0.52067 0.36534 0.0
C48 C 0.01136 0.52426 0.34938 0.0
C49 C 0.03346 0.53956 0.34604 0.0
C50 C 0.04086 0.54292 0.33034 0.0
C51 C 0.02633 0.53156 0.31732 0.0
C52 C 0.00394 0.5162 0.32037 0.0
C53 C 0.99652 0.51236 0.33644 0.0
C54 C 0.85186 0.40032 0.34374 0.0
C55 C 0.86227 0.42342 0.3512 0.0
O56 O 0.12167 0.59307 0.28347 0.0
O57 O 0.06818 0.57765 0.4108 0.0
O58 O 0.87851 0.4264 0.36238 0.0
O59 O 0.94708 0.47604 0.2332 0.0
H60 H 0.13824 0.57594 0.2838 0.0
H61 H 0.11244 0.56329 0.2595 0.0
H62 H 0.12663 0.59061 0.25184 0.0
H63 H 0.14063 0.57497 0.25355 0.0
H64 H 0.10395 0.54969 0.28796 0.0
H65 H 0.09279 0.60423 0.29004 0.0
H66 H 0.05062 0.50834 0.28713 0.0
H67 H 0.07731 0.51439 0.29505 0.0
H68 H 0.05628 0.51256 0.30837 0.0
H69 H 0.05804 0.6001 0.29596 0.0
H70 H 0.0348 0.57364 0.29032 0.0
H71 H 0.04407 0.5797 0.31093 0.0
H72 H 0.95219 0.50471 0.22331 0.0
H73 H 0.97716 0.50456 0.2021 0.0
H74 H 0.98719 0.5038 0.222 0.0
H75 H 0.9738 0.47914 0.20961 0.0
H76 H 0.95281 0.51145 0.24948 0.0
H77 H 0.96296 0.45636 0.25012 0.0
H78 H 0.97019 0.52951 0.28978 0.0
H79 H 0.99277 0.54462 0.2767 0.0
H80 H 0.96518 0.53783 0.27046 0.0
H81 H 0.98265 0.45105 0.27125 0.0
H82 H 0.00579 0.47679 0.27829 0.0
H83 H 0.98198 0.46291 0.29049 0.0
H84 H 0.86969 0.43472 0.34098 0.0
H85 H 0.89151 0.46817 0.35713 0.0
H86 H 0.91263 0.4223 0.36834 0.0
H87 H 0.93718 0.50764 0.34104 0.0
H88 H 0.91688 0.50602 0.35492 0.0
H89 H 0.94521 0.51644 0.36159 0.0
H90 H 0.95019 0.432 0.36932 0.0
H91 H 0.96638 0.45254 0.35492 0.0
H92 H 0.96863 0.45999 0.37585 0.0
H93 H 0.0924 0.57407 0.39953 0.0
H94 H 0.12091 0.61309 0.40299 0.0
H95 H 0.09656 0.60946 0.39241 0.0
H96 H 0.10143 0.6186 0.41321 0.0
H97 H 0.03628 0.58237 0.39944 0.0
H98 H 0.06199 0.53863 0.40174 0.0
H99 H 0.00478 0.56151 0.36452 0.0
H100 H 0.98559 0.54616 0.37974 0.0
H101 H 0.00511 0.57486 0.3833 0.0
H102 H 0.04377 0.50364 0.38881 0.0
H103 H 0.0158 0.49312 0.3812 0.0
H104 H 0.03865 0.50836 0.36835 0.0
H105 H 0.02421 0.5273 0.27631 0.0
H106 H 0.95501 0.48021 0.3011 0.0
H107 H 0.9427 0.47296 0.32825 0.0
H108 H 0.97604 0.50234 0.38054 0.0
H109 H 0.04538 0.54905 0.35551 0.0
H110 H 0.05808 0.55475 0.32852 0.0
H111 H 0.83837 0.39741 0.33504 0.0
H112 H 0.86458 0.39845 0.33718 0.0
H113 H 0.84508 0.38772 0.35313 0.0
C114 C 0.44898 0.89439 0.55456 0.0
C115 C 0.43971 0.88506 0.53761 0.0
C116 C 0.44805 0.91949 0.52478 0.0
C117 C 0.47091 0.92791 0.52326 0.0
C118 C 0.48488 0.9498 0.5192 0.0
C119 C 0.47586 0.96357 0.51666 0.0
C120 C 0.45278 0.95498 0.5177 0.0
C121 C 0.43916 0.93295 0.52158 0.0
C122 C 0.50937 0.95836 0.51791 0.0
C123 C 0.44259 0.96919 0.51511 0.0
C124 C 0.54405 0.09567 0.60671 0.0
C125 C 0.53117 0.07982 0.59342 0.0
C126 C 0.53642 0.06314 0.56922 0.0
C127 C 0.5152 0.05612 0.56262 0.0
C128 C 0.50799 0.04353 0.5483 0.0
C129 C 0.52208 0.03746 0.54055 0.0
C130 C 0.54339 0.04436 0.54718 0.0
C131 C 0.55038 0.05735 0.56136 0.0
C132 C 0.4852 0.0366 0.5415 0.0
C133 C 0.55869 0.03789 0.53933 0.0
C134 C 0.57613 0.12847 0.46123 0.0
C135 C 0.55359 0.12072 0.46368 0.0
C136 C 0.53836 0.09817 0.46348 0.0
C137 C 0.54592 0.08315 0.46094 0.0
C138 C 0.56839 0.09097 0.45748 0.0
C139 C 0.58318 0.11361 0.4575 0.0
C140 C 0.51436 0.09039 0.46657 0.0
C141 C 0.57693 0.07541 0.45445 0.0
C142 C 0.42479 0.9258 0.41167 0.0
C143 C 0.44839 0.93913 0.40565 0.0
C144 C 0.46773 0.97747 0.41387 0.0
C145 C 0.46098 0.99155 0.4202 0.0
C146 C 0.47393 0.0075 0.43198 0.0
C147 C 0.49432 0.00961 0.43717 0.0
C148 C 0.50209 0.99667 0.42972 0.0
C149 C 0.48861 0.98059 0.41818 0.0
C150 C 0.46533 0.0213 0.43947 0.0
C151 C 0.52413 0.9991 0.43452 0.0
C152 C 0.49071 0.98721 0.51381 0.0
C153 C 0.50047 0.00109 0.52726 0.0
C154 C 0.5142 0.02361 0.52564 0.0
C155 C 0.5188 0.03265 0.51015 0.0
C156 C 0.53281 0.0552 0.50807 0.0
C157 C 0.53709 0.06395 0.49279 0.0
C158 C 0.52708 0.05058 0.47898 0.0
C159 C 0.53086 0.05943 0.4634 0.0
C160 C 0.52026 0.04574 0.44997 0.0
C161 C 0.50601 0.02328 0.45168 0.0
C162 C 0.50238 0.01407 0.46713 0.0
C163 C 0.48836 0.99148 0.46924 0.0
C164 C 0.48481 0.98259 0.48447 0.0
C165 C 0.49473 0.99598 0.49823 0.0
C166 C 0.50889 0.01879 0.4964 0.0
C167 C 0.51286 0.02781 0.48082 0.0
C168 C 0.61313 0.17744 0.48244 0.0
C169 C 0.59088 0.16496 0.47335 0.0
O170 O 0.43407 0.89875 0.52956 0.0
O171 O 0.45362 0.9607 0.40393 0.0
O172 O 0.5915 0.15006 0.46262 0.0
O173 O 0.54393 0.07541 0.58308 0.0
H174 H 0.45229 0.88334 0.5307 0.0
H175 H 0.4644 0.91045 0.55395 0.0
H176 H 0.43675 0.89664 0.5615 0.0
H177 H 0.45299 0.88316 0.56114 0.0
H178 H 0.47804 0.91762 0.52537 0.0
H179 H 0.42151 0.92628 0.52263 0.0
H180 H 0.5184 0.97066 0.52771 0.0
H181 H 0.51357 0.94515 0.51878 0.0
H182 H 0.5153 0.96668 0.50629 0.0
H183 H 0.42445 0.9602 0.5169 0.0
H184 H 0.45037 0.98356 0.52355 0.0
H185 H 0.44574 0.97548 0.5027 0.0
H186 H 0.51605 0.06468 0.59718 0.0
H187 H 0.53984 0.12251 0.60211 0.0
H188 H 0.5382 0.08602 0.61803 0.0
H189 H 0.56076 0.0969 0.60715 0.0
H190 H 0.50417 0.06045 0.56851 0.0
H191 H 0.5667 0.06282 0.56652 0.0
H192 H 0.48614 0.04084 0.52861 0.0
H193 H 0.47462 0.01857 0.54223 0.0
H194 H 0.47711 0.04442 0.54809 0.0
H195 H 0.5742 0.04345 0.54652 0.0
H196 H 0.55022 0.01982 0.53766 0.0
H197 H 0.56302 0.04509 0.52723 0.0
H198 H 0.57829 0.15629 0.48267 0.0
H199 H 0.54792 0.13225 0.46591 0.0
H200 H 0.60055 0.11981 0.45531 0.0
H201 H 0.51015 0.08301 0.47862 0.0
H202 H 0.51062 0.10394 0.46618 0.0
H203 H 0.50362 0.07753 0.45753 0.0
H204 H 0.5948 0.08411 0.4517 0.0
H205 H 0.5743 0.06532 0.46521 0.0
H206 H 0.56754 0.0641 0.44421 0.0
H207 H 0.45938 0.93788 0.41492 0.0
H208 H 0.42021 0.9084 0.413 0.0
H209 H 0.42362 0.93239 0.4236 0.0
H210 H 0.41281 0.92665 0.40319 0.0
H211 H 0.445 0.98923 0.4165 0.0
H212 H 0.49415 0.97018 0.41273 0.0
H213 H 0.46288 0.018 0.45253 0.0
H214 H 0.47766 0.03892 0.43828 0.0
H215 H 0.44941 0.01801 0.43383 0.0
H216 H 0.52925 0.99028 0.426 0.0
H217 H 0.53708 0.01666 0.43513 0.0
H218 H 0.52304 0.9924 0.44669 0.0
H219 H 0.49694 0.9943 0.5392 0.0
H220 H 0.54073 0.06634 0.51825 0.0
H221 H 0.54818 0.0814 0.49198 0.0
H222 H 0.52301 0.05266 0.43809 0.0
H223 H 0.47997 0.98034 0.45915 0.0
H224 H 0.47398 0.96509 0.48534 0.0
H225 H 0.61306 0.18959 0.49107 0.0
H226 H 0.61619 0.1658 0.48933 0.0
H227 H 0.62686 0.18608 0.47397 0.0
C228 C 0.58743 0.46901 0.70411 0.0
C229 C 0.57675 0.45419 0.68913 0.0
C230 C 0.54727 0.4623 0.68198 0.0
C231 C 0.56122 0.48345 0.67631 0.0
C232 C 0.55265 0.49682 0.67164 0.0
C233 C 0.52967 0.48884 0.67252 0.0
C234 C 0.51552 0.46743 0.67788 0.0
C235 C 0.52454 0.45443 0.68253 0.0
C236 C 0.5682 0.51962 0.66598 0.0
C237 C 0.49093 0.45841 0.67883 0.0
C238 C 0.51018 0.58235 0.76234 0.0
C239 C 0.51938 0.58139 0.74653 0.0
C240 C 0.50606 0.56232 0.72045 0.0
C241 C 0.48728 0.54668 0.71189 0.0
C242 C 0.48908 0.53678 0.69767 0.0
C243 C 0.51028 0.54327 0.69163 0.0
C244 C 0.52936 0.55982 0.69988 0.0
C245 C 0.52707 0.56903 0.71429 0.0
C246 C 0.46834 0.51886 0.68945 0.0
C247 C 0.55221 0.56742 0.69369 0.0
C248 C 0.47966 0.59444 0.60143 0.0
C249 C 0.46358 0.57541 0.6087 0.0
C250 C 0.46765 0.55828 0.6121 0.0
C251 C 0.48856 0.56066 0.60868 0.0
C252 C 0.50463 0.57975 0.60109 0.0
C253 C 0.49975 0.5962 0.59727 0.0
C254 C 0.44962 0.53773 0.61939 0.0
C255 C 0.52711 0.58298 0.59723 0.0
C256 C 0.50192 0.42301 0.56375 0.0
C257 C 0.51566 0.4471 0.55943 0.0
C258 C 0.50148 0.47074 0.568 0.0
C259 C 0.48122 0.46713 0.57361 0.0
C260 C 0.48026 0.48136 0.58512 0.0
C261 C 0.50008 0.49995 0.59074 0.0
C262 C 0.52052 0.50448 0.58421 0.0
C263 C 0.52102 0.48968 0.57299 0.0
C264 C 0.45818 0.47612 0.59171 0.0
C265 C 0.54188 0.52461 0.58942 0.0
C266 C 0.5207 0.50331 0.66837 0.0
C267 C 0.51888 0.51581 0.68077 0.0
C268 C 0.51257 0.53133 0.67761 0.0
C269 C 0.50832 0.53484 0.66156 0.0
C270 C 0.50348 0.55137 0.65778 0.0
C271 C 0.49907 0.55446 0.64194 0.0
C272 C 0.4989 0.54086 0.6293 0.0
C273 C 0.4938 0.54342 0.6132 0.0
C274 C 0.49414 0.52977 0.60095 0.0
C275 C 0.49963 0.51368 0.60428 0.0
C276 C 0.50466 0.51082 0.62029 0.0
C277 C 0.51015 0.49471 0.62406 0.0
C278 C 0.51554 0.4923 0.63978 0.0
C279 C 0.51516 0.50557 0.65238 0.0
C280 C 0.50917 0.52157 0.64894 0.0
C281 C 0.50419 0.52439 0.63283 0.0
C282 C 0.4785 0.64401 0.60806 0.0
C283 C 0.46576 0.619 0.6081 0.0
O284 O 0.55491 0.44906 0.68722 0.0
O285 O 0.50173 0.45571 0.55779 0.0
O286 O 0.47625 0.61131 0.59815 0.0
O287 O 0.5032 0.57015 0.73469 0.0
H288 H 0.58613 0.46265 0.6783 0.0
H289 H 0.58769 0.48476 0.70286 0.0
H290 H 0.57808 0.46096 0.71503 0.0
H291 H 0.60478 0.47271 0.70579 0.0
H292 H 0.57882 0.48981 0.67562 0.0
H293 H 0.51388 0.43808 0.68683 0.0
H294 H 0.56684 0.53182 0.67374 0.0
H295 H 0.58571 0.52352 0.66619 0.0
H296 H 0.56348 0.52136 0.65351 0.0
H297 H 0.48202 0.44105 0.68249 0.0
H298 H 0.48765 0.46833 0.68768 0.0
H299 H 0.48418 0.45965 0.66697 0.0
H300 H 0.53317 0.59731 0.74244 0.0
H301 H 0.51894 0.56406 0.77731 0.0
H302 H 0.51624 0.60025 0.76468 0.0
H303 H 0.49249 0.57797 0.75998 0.0
H304 H 0.47116 0.54168 0.71672 0.0
H305 H 0.54176 0.58134 0.72071 0.0
H306 H 0.46613 0.52433 0.67747 0.0
H307 H 0.46979 0.50402 0.68751 0.0
H308 H 0.45334 0.51437 0.69651 0.0
H309 H 0.56484 0.58299 0.69967 0.0
H310 H 0.55681 0.55473 0.69601 0.0
H311 H 0.55255 0.56975 0.68049 0.0
H312 H 0.46628 0.61412 0.62074 0.0
H313 H 0.44777 0.57383 0.61154 0.0
H314 H 0.51192 0.61089 0.59147 0.0
H315 H 0.45349 0.53762 0.63237 0.0
H316 H 0.43323 0.53664 0.61827 0.0
H317 H 0.44855 0.52297 0.61354 0.0
H318 H 0.53863 0.59984 0.59325 0.0
H319 H 0.53454 0.57959 0.60792 0.0
H320 H 0.52533 0.57129 0.58745 0.0
H321 H 0.52798 0.45559 0.56945 0.0
H322 H 0.51273 0.41576 0.56539 0.0
H323 H 0.49332 0.42156 0.5752 0.0
H324 H 0.48929 0.41359 0.55414 0.0
H325 H 0.46621 0.45262 0.56943 0.0
H326 H 0.53662 0.49282 0.56814 0.0
H327 H 0.45841 0.47451 0.60497 0.0
H328 H 0.45501 0.48975 0.58925 0.0
H329 H 0.44435 0.46075 0.58635 0.0
H330 H 0.55572 0.52749 0.58152 0.0
H331 H 0.53988 0.53927 0.58937 0.0
H332 H 0.54634 0.52267 0.60191 0.0
H333 H 0.52267 0.51357 0.69307 0.0
H334 H 0.50318 0.56216 0.66704 0.0
H335 H 0.49564 0.56756 0.63976 0.0
H336 H 0.49027 0.53183 0.58864 0.0
H337 H 0.5105 0.48383 0.61491 0.0
H338 H 0.51981 0.47975 0.64195 0.0
H339 H 0.47856 0.64996 0.59574 0.0
H340 H 0.47094 0.65077 0.61636 0.0
H341 H 0.49588 0.65023 0.61217 0.0
C342 C 0.13153 0.58662 0.89656 0.0
C343 C 0.13768 0.57977 0.88075 0.0
C344 C 0.10099 0.55273 0.86948 0.0
C345 C 0.09484 0.56784 0.86421 0.0
C346 C 0.0734 0.56072 0.85816 0.0
C347 C 0.05769 0.53809 0.85757 0.0
C348 C 0.0639 0.52282 0.86258 0.0
C349 C 0.08559 0.53037 0.8683 0.0
C350 C 0.06738 0.57745 0.85273 0.0
C351 C 0.04748 0.49859 0.8623 0.0
C352 C 0.98458 0.56708 0.94084 0.0
C353 C 0.97529 0.5451 0.93179 0.0
C354 C 0.97216 0.5401 0.90274 0.0
C355 C 0.97238 0.52038 0.90138 0.0
C356 C 0.97951 0.51493 0.88727 0.0
C357 C 0.987 0.52974 0.87444 0.0
C358 C 0.98576 0.54916 0.87553 0.0
C359 C 0.97785 0.55382 0.8896 0.0
C360 C 0.98003 0.49382 0.88639 0.0
C361 C 0.994 0.56561 0.86229 0.0
C362 C 0.90065 0.48903 0.78339 0.0
C363 C 0.90227 0.47255 0.79151 0.0
C364 C 0.92302 0.47528 0.79589 0.0
C365 C 0.94243 0.49518 0.79254 0.0
C366 C 0.94076 0.51169 0.78423 0.0
C367 C 0.91987 0.50818 0.7795 0.0
C368 C 0.92418 0.45692 0.80406 0.0
C369 C 0.961 0.5331 0.78032 0.0
C370 C 0.09659 0.50987 0.7509 0.0
C371 C 0.08118 0.5181 0.74507 0.0
C372 C 0.04365 0.50129 0.75481 0.0
C373 C 0.02869 0.48201 0.76227 0.0
C374 C 0.01349 0.48181 0.77323 0.0
C375 C 0.01313 0.50135 0.77653 0.0
C376 C 0.02719 0.52054 0.76814 0.0
C377 C 0.04227 0.52029 0.75731 0.0
C378 C 0.99848 0.46101 0.78179 0.0
C379 C 0.02681 0.5415 0.77103 0.0
C380 C 0.03436 0.53067 0.85292 0.0
C381 C 0.02108 0.53214 0.86466 0.0
C382 C 0.99927 0.52664 0.86119 0.0
C383 C 0.99024 0.51926 0.84548 0.0
C384 C 0.96842 0.51376 0.84148 0.0
C385 C 0.96 0.50726 0.82582 0.0
C386 C 0.97286 0.5054 0.81368 0.0
C387 C 0.96452 0.4989 0.7977 0.0
C388 C 0.9778 0.49722 0.78598 0.0
C389 C 0.99944 0.50227 0.78967 0.0
C390 C 0.00814 0.50899 0.80552 0.0
C391 C 0.03 0.51452 0.80956 0.0
C392 C 0.03863 0.52166 0.82506 0.0
C393 C 0.02568 0.52326 0.83718 0.0
C394 C 0.00352 0.51756 0.83344 0.0
C395 C 0.99478 0.51049 0.81756 0.0
C396 C 0.8476 0.48642 0.78473 0.0
C397 C 0.86112 0.47495 0.78665 0.0
O398 O 0.12134 0.55887 0.87594 0.0
O399 O 0.05945 0.50119 0.74555 0.0
O400 O 0.88093 0.48698 0.77891 0.0
O401 O 0.96733 0.54664 0.91677 0.0
H402 H 0.13978 0.59158 0.87129 0.0
H403 H 0.11601 0.58714 0.89491 0.0
H404 H 0.12906 0.57483 0.90613 0.0
H405 H 0.1448 0.60321 0.90055 0.0
H406 H 0.10649 0.58521 0.86489 0.0
H407 H 0.09048 0.51883 0.87232 0.0
H408 H 0.05571 0.57813 0.86132 0.0
H409 H 0.08208 0.59408 0.85205 0.0
H410 H 0.05892 0.57262 0.84072 0.0
H411 H 0.0548 0.48888 0.86696 0.0
H412 H 0.03307 0.49534 0.86969 0.0
H413 H 0.04123 0.49291 0.8498 0.0
H414 H 0.98933 0.54193 0.93047 0.0
H415 H 0.99124 0.56631 0.95288 0.0
H416 H 0.99824 0.58008 0.93397 0.0
H417 H 0.97156 0.57158 0.94237 0.0
H418 H 0.96736 0.50948 0.91146 0.0
H419 H 0.97735 0.56888 0.89078 0.0
H420 H 0.97408 0.48573 0.87436 0.0
H421 H 0.99733 0.49745 0.88819 0.0
H422 H 0.96977 0.48229 0.89576 0.0
H423 H 0.99316 0.58052 0.86548 0.0
H424 H 0.01139 0.57056 0.85962 0.0
H425 H 0.98394 0.5581 0.85113 0.0
H426 H 0.86442 0.47474 0.79979 0.0
H427 H 0.88743 0.45744 0.79422 0.0
H428 H 0.9184 0.52066 0.77306 0.0
H429 H 0.92943 0.46162 0.81685 0.0
H430 H 0.90799 0.44148 0.80368 0.0
H431 H 0.93666 0.45387 0.79828 0.0
H432 H 0.9567 0.5454 0.77608 0.0
H433 H 0.97226 0.54 0.79104 0.0
H434 H 0.97011 0.53017 0.77069 0.0
H435 H 0.08426 0.53164 0.75368 0.0
H436 H 0.11415 0.52286 0.74981 0.0
H437 H 0.09355 0.50551 0.76377 0.0
H438 H 0.09363 0.49506 0.74395 0.0
H439 H 0.02962 0.46733 0.76001 0.0
H440 H 0.05317 0.53499 0.75097 0.0
H441 H 0.00251 0.46345 0.7949 0.0
H442 H 0.98102 0.45695 0.78016 0.0
H443 H 5e-05 0.44693 0.77734 0.0
H444 H 0.03767 0.55455 0.76274 0.0
H445 H 0.00967 0.53843 0.7695 0.0
H446 H 0.03236 0.54749 0.78361 0.0
H447 H 0.028 0.53807 0.87669 0.0
H448 H 0.95773 0.51469 0.85037 0.0
H449 H 0.94324 0.50366 0.82338 0.0
H450 H 0.97139 0.49241 0.77372 0.0
H451 H 0.04076 0.51356 0.80075 0.0
H452 H 0.05561 0.52589 0.82743 0.0
H453 H 0.84374 0.48713 0.7718 0.0
H454 H 0.83189 0.47763 0.7913 0.0
H455 H 0.85714 0.5034 0.78977 0.0
C456 C 0.47167 0.90451 0.92387 0.0
C457 C 0.46043 0.89363 0.9395 0.0
C458 C 0.4783 0.92488 0.95809 0.0
C459 C 0.46126 0.92965 0.9603 0.0
C460 C 0.46606 0.9508 0.96492 0.0
C461 C 0.48834 0.96747 0.96732 0.0
C462 C 0.5055 0.9625 0.96569 0.0
C463 C 0.50019 0.94109 0.96131 0.0
C464 C 0.44736 0.95545 0.96693 0.0
C465 C 0.52945 0.97991 0.9681 0.0
C466 C 0.54303 0.09117 0.87866 0.0
C467 C 0.542 0.0802 0.89401 0.0
C468 C 0.51673 0.06006 0.91533 0.0
C469 C 0.53342 0.06141 0.92578 0.0
C470 C 0.52819 0.05052 0.9404 0.0
C471 C 0.50581 0.03809 0.94477 0.0
C472 C 0.48899 0.03717 0.93455 0.0
C473 C 0.4947 0.04824 0.91994 0.0
C474 C 0.54662 0.05184 0.95097 0.0
C475 C 0.46501 0.02417 0.93895 0.0
C476 C 0.52331 0.1265 0.02991 0.0
C477 C 0.54061 0.12411 0.02374 0.0
C478 C 0.53834 0.1033 0.02171 0.0
C479 C 0.51806 0.0845 0.02538 0.0
C480 C 0.50081 0.08694 0.03195 0.0
C481 C 0.50385 0.10799 0.03439 0.0
C482 C 0.55756 0.10145 0.01549 0.0
C483 C 0.47902 0.06732 0.03615 0.0
C484 C 0.5209 0.94127 0.07232 0.0
C485 C 0.50864 0.9536 0.07628 0.0
C486 C 0.52109 0.99082 0.06832 0.0
C487 C 0.53956 0.00752 0.06103 0.0
C488 C 0.53732 0.02135 0.05016 0.0
C489 C 0.51611 0.01856 0.04689 0.0
C490 C 0.49773 0.0031 0.05549 0.0
C491 C 0.50039 0.98927 0.06609 0.0
C492 C 0.55736 0.03803 0.04145 0.0
C493 C 0.47507 0.00032 0.05274 0.0
C494 C 0.49365 0.99034 0.97056 0.0
C495 C 0.49526 0.00299 0.95734 0.0
C496 C 0.5002 0.02467 0.95935 0.0
C497 C 0.5026 0.03378 0.975 0.0
C498 C 0.50599 0.055 0.97749 0.0
C499 C 0.50922 0.06412 0.99295 0.0
C500 C 0.51006 0.0527 0.00644 0.0
C501 C 0.51469 0.06227 0.02214 0.0
C502 C 0.51625 0.05071 0.03514 0.0
C503 C 0.51274 0.02953 0.03297 0.0
C504 C 0.50714 0.01932 0.01751 0.0
C505 C 0.50266 0.99768 0.01504 0.0
C506 C 0.49759 0.98792 -0.00025 0.0
C507 C 0.49759 0.99967 0.98626 0.0
C508 C 0.50194 0.02145 0.98848 0.0
C509 C 0.50625 0.03112 0.00417 0.0
C510 C 0.52392 0.17663 0.02042 0.0
C511 C 0.53628 0.16392 0.02174 0.0
O512 O 0.47415 0.90492 0.95263 0.0
O513 O 0.52352 0.97589 0.07685 0.0
O514 O 0.52481 0.14636 0.03169 0.0
O515 O 0.52126 0.06966 0.90073 0.0
H516 H 0.44465 0.89382 0.94021 0.0
H517 H 0.47468 0.92152 0.92368 0.0
H518 H 0.48777 0.90504 0.92285 0.0
H519 H 0.46093 0.89537 0.91328 0.0
H520 H 0.44421 0.91691 0.95847 0.0
H521 H 0.51318 0.93713 0.95975 0.0
H522 H 0.44821 0.96685 0.95753 0.0
H523 H 0.4309 0.94035 0.96597 0.0
H524 H 0.449 0.96358 0.97882 0.0
H525 H 0.54084 0.97344 0.96612 0.0
H526 H 0.53358 0.99341 0.95965 0.0
H527 H 0.53229 0.98698 0.9805 0.0
H528 H 0.55004 0.06993 0.89381 0.0
H529 H 0.54728 0.08221 0.86936 0.0
H530 H 0.52544 0.08427 0.87414 0.0
H531 H 0.56385 0.12448 0.88448 0.0
H532 H 0.55059 0.0707 0.92254 0.0
H533 H 0.48193 0.04739 0.91189 0.0
H534 H 0.54698 0.05962 0.96276 0.0
H535 H 0.54362 0.03513 0.95331 0.0
H536 H 0.56309 0.06144 0.94551 0.0
H537 H 0.45411 0.02685 0.93055 0.0
H538 H 0.45966 0.00647 0.93871 0.0
H539 H 0.46286 0.02867 0.95138 0.0
H540 H 0.53654 0.15777 0.00935 0.0
H541 H 0.55596 0.13844 0.02064 0.0
H542 H 0.49072 0.11007 0.03932 0.0
H543 H 0.55412 0.09552 0.00277 0.0
H544 H 0.57322 0.11744 0.01606 0.0
H545 H 0.55987 0.08945 0.02253 0.0
H546 H 0.46661 0.07194 0.03973 0.0
H547 H 0.47224 0.05562 0.02572 0.0
H548 H 0.48165 0.05872 0.04627 0.0
H549 H 0.49628 0.9493 0.06623 0.0
H550 H 0.50936 0.92331 0.07243 0.0
H551 H 0.52787 0.9456 0.06011 0.0
H552 H 0.53476 0.94564 0.08104 0.0
H553 H 0.55553 0.00882 0.06312 0.0
H554 H 0.48622 0.97688 0.07228 0.0
H555 H 0.55534 0.03367 0.0284 0.0
H556 H 0.55894 0.05443 0.04278 0.0
H557 H 0.57287 0.03901 0.04602 0.0
H558 H 0.46324 0.98989 0.06192 0.0
H559 H 0.47605 0.01653 0.05294 0.0
H560 H 0.46853 0.9926 0.04068 0.0
H561 H 0.49333 0.99607 0.94528 0.0
H562 H 0.50605 0.06469 0.96748 0.0
H563 H 0.51155 0.08044 0.99414 0.0
H564 H 0.52039 0.05834 0.04707 0.0
H565 H 0.50296 0.98796 0.02489 0.0
H566 H 0.49419 0.97121 0.99858 0.0
H567 H 0.52251 0.18285 0.03245 0.0
H568 H 0.53268 0.19068 0.01233 0.0
H569 H 0.507 0.16575 0.01533 0.0
C570 C 0.57007 0.46257 0.09363 0.0
C571 C 0.57962 0.46587 0.11086 0.0
C572 C 0.56981 0.49266 0.12135 0.0
C573 C 0.5471 0.47791 0.12301 0.0
C574 C 0.53248 0.48546 0.1267 0.0
C575 C 0.54069 0.50819 0.12877 0.0
C576 C 0.56358 0.52304 0.12749 0.0
C577 C 0.57786 0.51503 0.12391 0.0
C578 C 0.50816 0.46917 0.12813 0.0
C579 C 0.57286 0.54738 0.12961 0.0
C580 C 0.47274 0.5708 0.03952 0.0
C581 C 0.48381 0.56998 0.05467 0.0
C582 C 0.4795 0.54506 0.0762 0.0
C583 C 0.49706 0.56101 0.08585 0.0
C584 C 0.50368 0.55533 0.10012 0.0
C585 C 0.49247 0.53329 0.10493 0.0
C586 C 0.47457 0.51725 0.09542 0.0
C587 C 0.46829 0.52339 0.08117 0.0
C588 C 0.52284 0.57286 0.11 0.0
C589 C 0.46222 0.49365 0.10028 0.0
C590 C 0.4242 0.55559 0.18656 0.0
C591 C 0.44599 0.57194 0.1836 0.0
C592 C 0.46298 0.56688 0.1827 0.0
C593 C 0.45797 0.54496 0.18455 0.0
C594 C 0.43621 0.52867 0.18821 0.0
C595 C 0.41964 0.5343 0.18937 0.0
C596 C 0.48619 0.58484 0.17944 0.0
C597 C 0.43034 0.5052 0.19045 0.0
C598 C 0.59031 0.53732 0.24943 0.0
C599 C 0.5654 0.52151 0.24774 0.0
C600 C 0.54131 0.53269 0.23502 0.0
C601 C 0.54461 0.55225 0.22866 0.0
C602 C 0.53211 0.55216 0.21528 0.0
C603 C 0.51535 0.53193 0.20856 0.0
C604 C 0.51104 0.51208 0.21565 0.0
C605 C 0.52434 0.51267 0.22869 0.0
C606 C 0.53714 0.57368 0.20816 0.0
C607 C 0.49263 0.49028 0.20933 0.0
C608 C 0.5251 0.51635 0.13155 0.0
C609 C 0.51551 0.52024 0.11806 0.0
C610 C 0.50002 0.52711 0.11969 0.0
C611 C 0.49324 0.52944 0.13518 0.0
C612 C 0.47673 0.53505 0.13721 0.0
C613 C 0.47046 0.53769 0.15251 0.0
C614 C 0.48089 0.53543 0.16637 0.0
C615 C 0.47524 0.53891 0.18198 0.0
C616 C 0.48629 0.53703 0.19546 0.0
C617 C 0.50295 0.53169 0.19384 0.0
C618 C 0.50846 0.5276 0.17835 0.0
C619 C 0.52486 0.5218 0.17625 0.0
C620 C 0.53003 0.51766 0.16097 0.0
C621 C 0.51961 0.51998 0.14716 0.0
C622 C 0.50338 0.52626 0.14896 0.0
C623 C 0.49749 0.52965 0.16458 0.0
C624 C 0.3821 0.56541 0.17072 0.0
C625 C 0.40571 0.57523 0.17751 0.0
O626 O 0.58445 0.48617 0.11711 0.0
O627 O 0.55474 0.53359 0.24727 0.0
O628 O 0.4072 0.55973 0.18665 0.0
O629 O 0.47305 0.5499 0.06206 0.0
H630 H 0.56749 0.45275 0.11858 0.0
H631 H 0.55432 0.46282 0.09348 0.0
H632 H 0.5819 0.47576 0.08581 0.0
H633 H 0.5666 0.44649 0.08853 0.0
H634 H 0.54055 0.46051 0.12131 0.0
H635 H 0.5954 0.52629 0.12272 0.0
H636 H 0.49865 0.47201 0.11859 0.0
H637 H 0.50451 0.45197 0.127 0.0
H638 H 0.50228 0.47153 0.13993 0.0
H639 H 0.59108 0.55678 0.12835 0.0
H640 H 0.56513 0.55304 0.12053 0.0
H641 H 0.56876 0.55107 0.14169 0.0
H642 H 0.502 0.57663 0.05384 0.0
H643 H 0.48488 0.5734 0.02986 0.0
H644 H 0.46072 0.55333 0.0357 0.0
H645 H 0.4628 0.59366 0.04492 0.0
H646 H 0.50574 0.57792 0.08231 0.0
H647 H 0.4547 0.51121 0.07372 0.0
H648 H 0.51718 0.57415 0.12217 0.0
H649 H 0.53588 0.56836 0.11156 0.0
H650 H 0.53023 0.58915 0.1044 0.0
H651 H 0.44798 0.48334 0.09201 0.0
H652 H 0.47362 0.48697 0.10038 0.0
H653 H 0.45609 0.49253 0.11268 0.0
H654 H 0.41655 0.57931 0.1669 0.0
H655 H 0.44975 0.58864 0.18197 0.0
H656 H 0.40282 0.52189 0.19189 0.0
H657 H 0.49072 0.5825 0.16713 0.0
H658 H 0.48792 0.60135 0.18039 0.0
H659 H 0.49812 0.58413 0.18804 0.0
H660 H 0.41248 0.49434 0.19271 0.0
H661 H 0.43471 0.499 0.17956 0.0
H662 H 0.44009 0.50429 0.20077 0.0
H663 H 0.56244 0.51198 0.23624 0.0
H664 H 0.59946 0.5282 0.24935 0.0
H665 H 0.59593 0.54863 0.23917 0.0
H666 H 0.59436 0.54717 0.26081 0.0
H667 H 0.55761 0.56759 0.23384 0.0
H668 H 0.52149 0.49758 0.23401 0.0
H669 H 0.53964 0.57338 0.19501 0.0
H670 H 0.52288 0.57627 0.20987 0.0
H671 H 0.55208 0.58777 0.21381 0.0
H672 H 0.48914 0.47686 0.2177 0.0
H673 H 0.47727 0.49101 0.20729 0.0
H674 H 0.4973 0.48627 0.19759 0.0
H675 H 0.52036 0.51814 0.10612 0.0
H676 H 0.46836 0.5373 0.12698 0.0
H677 H 0.45753 0.54183 0.15332 0.0
H678 H 0.48215 0.54014 0.20737 0.0
H679 H 0.53379 0.52022 0.18641 0.0
H680 H 0.54258 0.51301 0.1601 0.0
H681 H 0.37003 0.56021 0.18057 0.0
H682 H 0.38051 0.57757 0.16332 0.0
H683 H 0.37796 0.55086 0.16294 0.0
Mg684 Mg 0.61427 0.39366 0.38716 0.0
O685 O 0.61028 0.41102 0.40928 0.0
O686 O 0.62523 0.44655 0.40403 0.0
Mg687 Mg 0.63923 0.45194 0.3787 0.0
C688 C 0.61509 0.43046 0.41337 0.0
C689 C 0.58793 0.34554 0.39975 0.0
O690 O 0.57323 0.34415 0.38905 0.0
O691 O 0.65086 0.40779 0.39315 0.0
O692 O 0.66535 0.44276 0.38638 0.0
O693 O 0.58238 0.38898 0.37654 0.0
O694 O 0.61527 0.41752 0.37239 0.0
C695 C 0.66749 0.42686 0.39138 0.0
C696 C 0.59419 0.40792 0.37016 0.0
O697 O 0.6058 0.36364 0.40192 0.0
Mg698 Mg 0.23185 0.62638 0.58857 0.0
O699 O 0.21175 0.61118 0.56519 0.0
O700 O 0.19339 0.57486 0.56762 0.0
Mg701 Mg 0.20108 0.56703 0.59272 0.0
C702 C 0.19855 0.59194 0.55953 0.0
C703 C 0.27098 0.67203 0.58387 0.0
O704 O 0.27581 0.66588 0.59746 0.0
O705 O 0.25611 0.61524 0.58198 0.0
O706 O 0.23741 0.57924 0.58603 0.0
O707 O 0.20381 0.62834 0.59917 0.0
O708 O 0.20879 0.59992 0.60139 0.0
C709 C 0.25508 0.59669 0.58234 0.0
C710 C 0.19687 0.60876 0.60431 0.0
O711 O 0.25295 0.65895 0.57649 0.0
Mg712 Mg 0.62734 0.25186 0.75067 0.0
O713 O 0.6231 0.23003 0.72878 0.0
O714 O 0.63752 0.20895 0.73491 0.0
Mg715 Mg 0.65168 0.21811 0.76071 0.0
C716 C 0.62764 0.21513 0.72507 0.0
C717 C 0.60206 0.27471 0.73839 0.0
O718 O 0.58938 0.26326 0.75015 0.0
O719 O 0.66365 0.27322 0.74587 0.0
O720 O 0.67841 0.25283 0.75317 0.0
O721 O 0.59538 0.22621 0.76017 0.0
O722 O 0.62772 0.22906 0.76598 0.0
C723 C 0.68034 0.27069 0.74803 0.0
C724 C 0.60656 0.2186 0.76745 0.0
O725 O 0.61898 0.27318 0.73523 0.0
Mg726 Mg 0.40514 0.63466 0.88509 0.0
O727 O 0.40866 0.61818 0.90756 0.0
O728 O 0.3945 0.58255 0.90184 0.0
Mg729 Mg 0.38184 0.57637 0.87563 0.0
C730 C 0.40388 0.59896 0.91164 0.0
C731 C 0.40208 0.6747 0.8974 0.0
O732 O 0.38597 0.66627 0.8865 0.0
O733 O 0.36853 0.61976 0.88938 0.0
O734 O 0.35466 0.5845 0.88246 0.0
O735 O 0.43756 0.64045 0.87664 0.0
O736 O 0.40562 0.61081 0.87038 0.0
C737 C 0.35218 0.60042 0.88729 0.0
C738 C 0.42687 0.62134 0.86958 0.0
O739 O 0.4132 0.66522 0.89999 0.0
Mg740 Mg 0.77016 0.39683 0.0563 0.0
O741 O 0.79283 0.40057 0.07775 0.0
O742 O 0.81174 0.38397 0.0709 0.0
Mg743 Mg 0.8017 0.37038 0.04503 0.0
C744 C 0.80705 0.39477 0.08101 0.0
C745 C 0.75617 0.42624 0.07576 0.0
O746 O 0.77564 0.44159 0.07113 0.0
O747 O 0.74765 0.36109 0.0615 0.0
O748 O 0.76627 0.34507 0.05264 0.0
O749 O 0.79649 0.42789 0.04643 0.0
O750 O 0.79226 0.39538 0.04042 0.0
C751 C 0.74898 0.344 0.05859 0.0
C752 C 0.80352 0.41633 0.03906 0.0
O753 O 0.74976 0.40639 0.07205 0.0
Mg754 Mg 0.39558 0.79672 0.22726 0.0
O755 O 0.41262 0.81684 0.25017 0.0
O756 O 0.4489 0.83583 0.24579 0.0
Mg757 Mg 0.45467 0.82907 0.21977 0.0
C758 C 0.43244 0.83027 0.2549 0.0
C759 C 0.35077 0.75722 0.23307 0.0
O760 O 0.35633 0.75313 0.21895 0.0
O761 O 0.40883 0.77384 0.23236 0.0
O762 O 0.44412 0.7932 0.22527 0.0
O763 O 0.39094 0.82355 0.21784 0.0
O764 O 0.42038 0.82036 0.2136 0.0
C765 C 0.42759 0.77548 0.22998 0.0
C766 C 0.41036 0.83137 0.21178 0.0
O767 O 0.36414 0.7749 0.24057 0.0
H768 H 0.17671 0.59044 0.27644 0.0
H769 H 0.21309 0.6224 0.27244 0.0
H770 H 0.1836 0.66342 0.27035 0.0
H771 H 0.14706 0.63132 0.27364 0.0
H772 H 0.20997 0.67117 0.24629 0.0
H773 H 0.25512 0.67189 0.30159 0.0
H774 H 0.24295 0.64577 0.29136 0.0
H775 H 0.22543 0.65539 0.29942 0.0
C776 C 0.17809 0.60636 0.27546 0.0
C777 C 0.15911 0.60843 0.27577 0.0
C778 C 0.19889 0.62465 0.27329 0.0
C779 C 0.20119 0.64544 0.27153 0.0
C780 C 0.18227 0.64759 0.27191 0.0
H781 H 0.33342 0.76082 0.26162 0.0
H782 H 0.29673 0.73552 0.27189 0.0
C783 C 0.16141 0.62925 0.27388 0.0
C784 C 0.223 0.66446 0.26777 0.0
H785 H 0.27764 0.69135 0.27912 0.0
C786 C 0.22469 0.67578 0.25362 0.0
C787 C 0.2422 0.67078 0.27745 0.0
C788 C 0.2413 0.66046 0.29339 0.0
C789 C 0.24517 0.69247 0.24848 0.0
C790 C 0.26454 0.69759 0.2575 0.0
C791 C 0.26278 0.68712 0.27208 0.0
C792 C 0.28681 0.71287 0.25152 0.0
C793 C 0.24588 0.70434 0.23335 0.0
C794 C 0.29349 0.70825 0.23685 0.0
C795 C 0.31433 0.7226 0.23097 0.0
C796 C 0.329 0.74181 0.2397 0.0
C797 C 0.32246 0.7462 0.25458 0.0
C798 C 0.30154 0.73178 0.26046 0.0
H799 H 0.22981 0.70351 0.23082 0.0
H800 H 0.25906 0.72181 0.23423 0.0
H801 H 0.24934 0.69652 0.22298 0.0
H802 H 0.28256 0.69348 0.22994 0.0
H803 H 0.31887 0.71863 0.21954 0.0
H804 H 0.5601 0.17692 0.48053 0.0
H805 H 0.5541 0.20459 0.46765 0.0
H806 H 0.60548 0.21698 0.43416 0.0
H807 H 0.61101 0.18886 0.4467 0.0
H808 H 0.58288 0.24726 0.46606 0.0
H809 H 0.55778 0.21288 0.40415 0.0
H810 H 0.55851 0.19691 0.42066 0.0
H811 H 0.58343 0.2149 0.41034 0.0
C812 C 0.56979 0.18527 0.47022 0.0
C813 C 0.5859 0.18065 0.46452 0.0
C814 C 0.5664 0.2011 0.4629 0.0
C815 C 0.5791 0.21264 0.44978 0.0
C816 C 0.59506 0.20789 0.44398 0.0
H817 H 0.61699 0.34204 0.42012 0.0
H818 H 0.61247 0.30918 0.43286 0.0
C819 C 0.59834 0.19195 0.45121 0.0
C820 C 0.57687 0.23078 0.44294 0.0
H821 H 0.57058 0.25134 0.4076 0.0
C822 C 0.5799 0.24801 0.45331 0.0
C823 C 0.57262 0.23161 0.42635 0.0
C824 C 0.56766 0.21296 0.41477 0.0
C825 C 0.57972 0.26646 0.44743 0.0
C826 C 0.57698 0.26796 0.43069 0.0
C827 C 0.57298 0.25031 0.42042 0.0
C828 C 0.57917 0.28805 0.4235 0.0
C829 C 0.58249 0.28415 0.45924 0.0
C830 C 0.56212 0.28704 0.41371 0.0
C831 C 0.56475 0.3058 0.40623 0.0
C832 C 0.58453 0.3259 0.40837 0.0
C833 C 0.60148 0.32687 0.41831 0.0
C834 C 0.59887 0.30811 0.4257 0.0
H835 H 0.57709 0.27755 0.47143 0.0
H836 H 0.60022 0.29689 0.46023 0.0
H837 H 0.57292 0.29201 0.45527 0.0
H838 H 0.54683 0.27169 0.41178 0.0
H839 H 0.55139 0.30449 0.39863 0.0
H840 H 0.43181 0.61413 0.62649 0.0
H841 H 0.39443 0.60465 0.61795 0.0
H842 H 0.40874 0.59565 0.56901 0.0
H843 H 0.4466 0.60623 0.57744 0.0
H844 H 0.38962 0.61889 0.56927 0.0
H845 H 0.34032 0.54813 0.60718 0.0
H846 H 0.35939 0.57093 0.61964 0.0
H847 H 0.36966 0.55932 0.60498 0.0
C848 C 0.42681 0.60971 0.61397 0.0
C849 C 0.44197 0.61046 0.60272 0.0
C850 C 0.40539 0.60412 0.6091 0.0
C851 C 0.39849 0.59881 0.59289 0.0
C852 C 0.41356 0.59939 0.58162 0.0
H853 H 0.25911 0.56045 0.57658 0.0
H854 H 0.2933 0.5589 0.57556 0.0
C855 C 0.43515 0.60531 0.58646 0.0
C856 C 0.37625 0.59466 0.58765 0.0
H857 H 0.3222 0.56811 0.59836 0.0
C858 C 0.37481 0.60746 0.57542 0.0
C859 C 0.35673 0.57935 0.59531 0.0
C860 C 0.35659 0.5635 0.60736 0.0
C861 C 0.3547 0.60641 0.57142 0.0
C862 C 0.33568 0.59279 0.58029 0.0
C863 C 0.33682 0.57891 0.59174 0.0
C864 C 0.31501 0.59387 0.57884 0.0
C865 C 0.3542 0.62009 0.55782 0.0
C866 C 0.31575 0.61402 0.58084 0.0
C867 C 0.29629 0.61499 0.58116 0.0
C868 C 0.27556 0.59574 0.57989 0.0
C869 C 0.2748 0.57558 0.5776 0.0
C870 C 0.29434 0.57467 0.57703 0.0
H871 H 0.36646 0.62225 0.54861 0.0
H872 H 0.33758 0.61261 0.55187 0.0
H873 H 0.3587 0.6366 0.5626 0.0
H874 H 0.33138 0.629 0.58281 0.0
H875 H 0.29752 0.63078 0.58314 0.0
H876 H 0.82941 0.43935 0.8016 0.0
H877 H 0.80512 0.40259 0.79048 0.0
H878 H 0.83887 0.42134 0.74541 0.0
H879 H 0.86245 0.45858 0.75626 0.0
H880 H 0.79736 0.40078 0.73951 0.0
H881 H 0.81203 0.35103 0.78274 0.0
H882 H 0.80478 0.36841 0.79374 0.0
H883 H 0.82971 0.38035 0.78225 0.0
C884 C 0.83188 0.43548 0.78941 0.0
C885 C 0.84808 0.45171 0.77993 0.0
C886 C 0.81814 0.4144 0.7831 0.0
C887 C 0.82054 0.40891 0.76724 0.0
C888 C 0.83689 0.42506 0.75775 0.0
H889 H 0.72016 0.27168 0.74708 0.0
H890 H 0.75713 0.30418 0.74748 0.0
C891 C 0.85042 0.44632 0.76399 0.0
C892 C 0.80444 0.38702 0.76022 0.0
H893 H 0.77505 0.33321 0.7699 0.0
C894 C 0.79286 0.38593 0.74596 0.0
C895 C 0.79892 0.36742 0.76822 0.0
C896 C 0.81226 0.36688 0.78247 0.0
C897 C 0.77472 0.36615 0.74033 0.0
C898 C 0.76741 0.34714 0.74956 0.0
C899 C 0.78022 0.34783 0.76298 0.0
C900 C 0.74535 0.32732 0.74674 0.0
C901 C 0.76338 0.36603 0.72471 0.0
C902 C 0.72641 0.32942 0.74594 0.0
C903 C 0.70538 0.31095 0.74543 0.0
C904 C 0.7027 0.28987 0.74615 0.0
C905 C 0.72165 0.28768 0.74653 0.0
C906 C 0.74279 0.30625 0.74677 0.0
H907 H 0.77554 0.37768 0.71619 0.0
H908 H 0.75459 0.3495 0.71886 0.0
H909 H 0.75129 0.37151 0.72709 0.0
H910 H 0.7278 0.3454 0.74649 0.0
H911 H 0.6912 0.31331 0.74531 0.0
H912 H 0.48728 0.8768 0.9482 0.0
H913 H 0.479 0.83877 0.94558 0.0
H914 H 0.41405 0.81978 0.92626 0.0
H915 H 0.422 0.85757 0.92929 0.0
H916 H 0.41339 0.79045 0.94823 0.0
H917 H 0.47785 0.8099 0.90269 0.0
H918 H 0.48776 0.82459 0.92158 0.0
H919 H 0.46955 0.82928 0.9089 0.0
C920 C 0.47111 0.86442 0.94367 0.0
C921 C 0.45511 0.87005 0.93921 0.0
C922 C 0.46648 0.84276 0.94202 0.0
C923 C 0.44599 0.82651 0.93556 0.0
C924 C 0.42993 0.83205 0.93133 0.0
H925 H 0.37937 0.69683 0.89665 0.0
H926 H 0.39068 0.7329 0.90847 0.0
C927 C 0.43448 0.85362 0.93307 0.0
C928 C 0.44131 0.8038 0.93265 0.0
H929 H 0.45655 0.77308 0.90989 0.0
C930 C 0.42293 0.78665 0.93995 0.0
C931 C 0.45382 0.7989 0.92185 0.0
C932 C 0.47324 0.81658 0.91318 0.0
C933 C 0.41643 0.7647 0.93646 0.0
C934 C 0.42851 0.75983 0.9253 0.0
C935 C 0.44737 0.77694 0.91847 0.0
C936 C 0.42089 0.73719 0.91949 0.0
C937 C 0.39654 0.74688 0.94461 0.0
C938 C 0.43421 0.72772 0.92172 0.0
C939 C 0.42779 0.70706 0.91496 0.0
C940 C 0.40809 0.69571 0.90568 0.0
C941 C 0.39463 0.70513 0.90372 0.0
C942 C 0.40099 0.72569 0.91056 0.0
H943 H 0.39293 0.75302 0.95589 0.0
H944 H 0.38188 0.74074 0.93639 0.0
H945 H 0.39903 0.73292 0.94747 0.0
H946 H 0.44971 0.73646 0.92847 0.0
H947 H 0.43854 0.70027 0.91666 0.0
H948 H 0.62275 0.49843 0.10597 0.0
H949 H 0.65548 0.49452 0.10346 0.0
H950 H 0.61566 0.42525 0.1113 0.0
H951 H 0.58301 0.42921 0.11437 0.0
H952 H 0.65583 0.44358 0.12752 0.0
H953 H 0.66683 0.46832 0.06366 0.0
H954 H 0.66723 0.48836 0.0774 0.0
H955 H 0.64233 0.46237 0.07448 0.0
C956 C 0.62107 0.48245 0.10747 0.0
C957 C 0.60038 0.46417 0.11067 0.0
C958 C 0.63972 0.4802 0.10586 0.0
C959 C 0.63794 0.45954 0.10698 0.0
C960 C 0.61741 0.44135 0.11043 0.0
H961 H 0.71503 0.39854 0.08707 0.0
H962 H 0.68799 0.40811 0.0967 0.0
C963 C 0.5988 0.44362 0.11219 0.0
C964 C 0.65721 0.45665 0.10403 0.0
H965 H 0.69383 0.46168 0.07533 0.0
C966 C 0.66419 0.44759 0.11613 0.0
C967 C 0.66806 0.46185 0.08914 0.0
C968 C 0.66064 0.47057 0.07536 0.0
C969 C 0.68172 0.44357 0.11372 0.0
C970 C 0.69237 0.44858 0.09878 0.0
C971 C 0.68569 0.45801 0.08681 0.0
C972 C 0.70964 0.44306 0.09486 0.0
C973 C 0.68872 0.43403 0.12715 0.0
C974 C 0.7308 0.45955 0.09067 0.0
C975 C 0.74631 0.45414 0.08512 0.0
C976 C 0.7408 0.43211 0.08348 0.0
C977 C 0.71981 0.41567 0.08819 0.0
C978 C 0.70436 0.42111 0.0938 0.0
H979 H 0.68312 0.43658 0.13902 0.0
H980 H 0.68124 0.41614 0.12492 0.0
H981 H 0.70697 0.44137 0.1277 0.0
H982 H 0.73513 0.47659 0.09133 0.0
H983 H 0.76232 0.4672 0.0816 0.0
H984 H 0.39564 0.87354 0.54 0.0
H985 H 0.36406 0.8373 0.54489 0.0
H986 H 0.40716 0.80993 0.54491 0.0
H987 H 0.43863 0.84597 0.53937 0.0
H988 H 0.36807 0.78306 0.52919 0.0
H989 H 0.35318 0.81003 0.58852 0.0
H990 H 0.35162 0.82505 0.57181 0.0
H991 H 0.37752 0.82684 0.57717 0.0
C992 C 0.3983 0.85971 0.54069 0.0
C993 C 0.41958 0.86251 0.53901 0.0
C994 C 0.38028 0.83906 0.54368 0.0
C995 C 0.3833 0.82097 0.54551 0.0
C996 C 0.40442 0.82364 0.54351 0.0
H997 H 0.31028 0.7033 0.59723 0.0
H998 H 0.33596 0.73914 0.58677 0.0
C999 C 0.42238 0.84421 0.54034 0.0
C1000 C 0.36479 0.7994 0.55016 0.0
H1001 H 0.32869 0.7735 0.58025 0.0
C1002 C 0.35935 0.78096 0.5403 0.0
C1003 C 0.35359 0.79669 0.56475 0.0
C1004 C 0.35936 0.81564 0.57627 0.0
C1005 C 0.34328 0.75985 0.54477 0.0
C1006 C 0.33209 0.75719 0.55933 0.0
C1007 C 0.33722 0.77564 0.56903 0.0
C1008 C 0.3162 0.73529 0.56538 0.0
C1009 C 0.33906 0.74051 0.5342 0.0
C1010 C 0.29644 0.72126 0.55687 0.0
C1011 C 0.28166 0.70064 0.56282 0.0
C1012 C 0.28639 0.69379 0.57742 0.0
C1013 C 0.30612 0.70801 0.58594 0.0
C1014 C 0.32083 0.72854 0.58 0.0
H1015 H 0.35224 0.74491 0.52528 0.0
H1016 H 0.3379 0.72699 0.54157 0.0
H1017 H 0.32311 0.73437 0.52751 0.0
H1018 H 0.29237 0.72631 0.5457 0.0
H1019 H 0.26656 0.69011 0.55601 0.0
H1020 H 0.60709 0.44436 0.67689 0.0
H1021 H 0.61032 0.41182 0.68151 0.0
H1022 H 0.55268 0.3854 0.71095 0.0
H1023 H 0.54929 0.41777 0.70631 0.0
H1024 H 0.61626 0.3983 0.71157 0.0
H1025 H 0.5399 0.33343 0.68092 0.0
H1026 H 0.55111 0.36217 0.67715 0.0
H1027 H 0.53523 0.35037 0.69479 0.0
C1028 C 0.59487 0.43139 0.68408 0.0
C1029 C 0.57764 0.43334 0.69093 0.0
C1030 C 0.59676 0.41288 0.68673 0.0
C1031 C 0.58147 0.39602 0.69628 0.0
C1032 C 0.56427 0.39793 0.70317 0.0
H1033 H 0.5686 0.28338 0.74336 0.0
H1034 H 0.56383 0.31224 0.73141 0.0
C1035 C 0.56239 0.41644 0.70055 0.0
C1036 C 0.58449 0.37728 0.70016 0.0
H1037 H 0.55861 0.32146 0.69882 0.0
C1038 C 0.60381 0.38151 0.70861 0.0
C1039 C 0.56816 0.35542 0.6963 0.0
C1040 C 0.54751 0.35002 0.68666 0.0
C1041 C 0.60689 0.3644 0.71384 0.0
C1042 C 0.59037 0.34251 0.71026 0.0
C1043 C 0.57123 0.33828 0.70152 0.0
C1044 C 0.59223 0.32385 0.71623 0.0
C1045 C 0.6274 0.36987 0.72372 0.0
C1046 C 0.60942 0.32046 0.71129 0.0
C1047 C 0.61226 0.30402 0.71813 0.0
C1048 C 0.59786 0.29065 0.72998 0.0
C1049 C 0.58006 0.29348 0.73435 0.0
C1050 C 0.57726 0.30992 0.72751 0.0
H1051 H 0.63606 0.38711 0.72829 0.0
H1052 H 0.62323 0.35891 0.73413 0.0
H1053 H 0.63901 0.3675 0.71614 0.0
H1054 H 0.62091 0.33081 0.70238 0.0
H1055 H 0.62602 0.30215 0.7144 0.0
H1056 H 0.17911 0.61298 0.87397 0.0
H1057 H 0.21458 0.61416 0.87776 0.0
H1058 H 0.18091 0.54939 0.89707 0.0
H1059 H 0.14534 0.54812 0.89346 0.0
H1060 H 0.22896 0.5989 0.91237 0.0
H1061 H 0.22309 0.55696 0.85357 0.0
H1062 H 0.21106 0.57429 0.85584 0.0
H1063 H 0.19889 0.54847 0.86554 0.0
C1064 C 0.17928 0.59896 0.87894 0.0
C1065 C 0.15944 0.58023 0.883 0.0
C1066 C 0.19949 0.5997 0.88117 0.0
C1067 C 0.20019 0.5818 0.88757 0.0
C1068 C 0.18056 0.56328 0.89202 0.0
H1069 H 0.31326 0.56122 0.88706 0.0
H1070 H 0.27584 0.55541 0.88927 0.0
C1071 C 0.16031 0.56254 0.88986 0.0
C1072 C 0.22151 0.58238 0.88923 0.0
H1073 H 0.25589 0.56975 0.86898 0.0
C1074 C 0.23487 0.59242 0.90298 0.0
C1075 C 0.2289 0.5737 0.877 0.0
C1076 C 0.21485 0.56271 0.86209 0.0
C1077 C 0.25579 0.59432 0.9047 0.0
C1078 C 0.26362 0.58639 0.89214 0.0
C1079 C 0.2499 0.57583 0.87859 0.0
C1080 C 0.28634 0.58977 0.89237 0.0
C1081 C 0.2692 0.60467 0.91996 0.0
C1082 C 0.30467 0.61101 0.89344 0.0
C1083 C 0.32607 0.61439 0.8923 0.0
C1084 C 0.32957 0.5966 0.8898 0.0
C1085 C 0.31118 0.5753 0.88895 0.0
C1086 C 0.28977 0.57193 0.89022 0.0
H1087 H 0.25843 0.60314 0.93015 0.0
H1088 H 0.2793 0.59713 0.92335 0.0
H1089 H 0.2805 0.62238 0.91811 0.0
H1090 H 0.30243 0.62508 0.89466 0.0
H1091 H 0.33981 0.63104 0.8929 0.0
H1092 H 0.57429 0.18345 0.00471 0.0
H1093 H 0.61163 0.21031 0.0143 0.0
H1094 H 0.58796 0.20576 0.06252 0.0
H1095 H 0.55054 0.17859 0.05298 0.0
H1096 H 0.62154 0.2501 0.02824 0.0
H1097 H 0.64552 0.20368 0.06938 0.0
H1098 H 0.62327 0.19042 0.05456 0.0
H1099 H 0.61908 0.20123 0.07302 0.0
C1100 C 0.57716 0.18786 0.01741 0.0
C1101 C 0.55962 0.1788 0.02814 0.0
C1102 C 0.59846 0.20318 0.02287 0.0
C1103 C 0.60261 0.2098 0.03915 0.0
C1104 C 0.58521 0.2005 0.04998 0.0
H1105 H 0.71018 0.33503 0.07252 0.0
H1106 H 0.67486 0.3009 0.07018 0.0
C1107 C 0.56386 0.1851 0.04452 0.0
C1108 C 0.62459 0.22808 0.04433 0.0
H1109 H 0.66943 0.24231 0.06917 0.0
C1110 C 0.63201 0.24837 0.03717 0.0
C1111 C 0.63822 0.22572 0.05595 0.0
C1112 C 0.63128 0.20406 0.06361 0.0
C1113 C 0.65266 0.26643 0.04132 0.0
C1114 C 0.66613 0.26424 0.05313 0.0
C1115 C 0.65889 0.24393 0.06025 0.0
C1116 C 0.68805 0.283 0.05771 0.0
C1117 C 0.66006 0.28771 0.03287 0.0
C1118 C 0.7073 0.2838 0.05219 0.0
C1119 C 0.72759 0.30332 0.05349 0.0
C1120 C 0.72886 0.32232 0.0603 0.0
C1121 C 0.70978 0.32083 0.06701 0.0
C1122 C 0.68957 0.30133 0.06573 0.0
H1123 H 0.64963 0.28553 0.022 0.0
H1124 H 0.65898 0.29953 0.04123 0.0
H1125 H 0.67752 0.29498 0.02922 0.0
H1126 H 0.7064 0.26976 0.04598 0.0
H1127 H 0.74196 0.30383 0.04829 0.0
H1128 H 0.39131 0.57843 0.20757 0.0
H1129 H 0.39793 0.61177 0.22217 0.0
H1130 H 0.44025 0.65112 0.18447 0.0
H1131 H 0.43357 0.61791 0.16978 0.0
H1132 H 0.45425 0.66541 0.22105 0.0
H1133 H 0.37102 0.64894 0.20001 0.0
H1134 H 0.37351 0.62696 0.2086 0.0
H1135 H 0.3856 0.63755 0.18959 0.0
C1136 C 0.40232 0.59423 0.20257 0.0
C1137 C 0.41194 0.59564 0.18756 0.0
C1138 C 0.40609 0.61319 0.21089 0.0
C1139 C 0.41956 0.6338 0.20435 0.0
C1140 C 0.42992 0.63532 0.18973 0.0
H1141 H 0.45939 0.76849 0.21712 0.0
H1142 H 0.45853 0.7337 0.21416 0.0
C1143 C 0.42605 0.61638 0.18135 0.0
C1144 C 0.42116 0.65366 0.21185 0.0
H1145 H 0.39325 0.68166 0.21445 0.0
C1146 C 0.44088 0.66895 0.21981 0.0
C1147 C 0.40362 0.65805 0.21024 0.0
C1148 C 0.38221 0.64214 0.20161 0.0
C1149 C 0.44362 0.68882 0.22603 0.0
C1150 C 0.42639 0.69366 0.2238 0.0
C1151 C 0.40645 0.67797 0.21623 0.0
C1152 C 0.42901 0.71538 0.22798 0.0
C1153 C 0.46491 0.70433 0.23494 0.0
C1154 C 0.41274 0.71681 0.23677 0.0
C1155 C 0.41291 0.73666 0.2382 0.0
C1156 C 0.42946 0.75551 0.23093 0.0
C1157 C 0.44649 0.75434 0.22297 0.0
C1158 C 0.44612 0.73442 0.22136 0.0
H1159 H 0.47236 0.69533 0.2407 0.0
H1160 H 0.47696 0.71571 0.22627 0.0
H1161 H 0.46231 0.71409 0.24435 0.0
H1162 H 0.39934 0.70234 0.24196 0.0
H1163 H 0.39961 0.73702 0.24447 0.0
H1164 H 0.83536 0.4017 0.37646 0.0
H1165 H 0.80457 0.40527 0.38674 0.0
H1166 H 0.82082 0.45853 0.35473 0.0
H1167 H 0.85081 0.45426 0.34385 0.0
H1168 H 0.79987 0.43736 0.40124 0.0
H1169 H 0.75783 0.41645 0.34116 0.0
H1170 H 0.78167 0.41373 0.34552 0.0
H1171 H 0.78497 0.44005 0.34097 0.0
C1172 C 0.83228 0.41411 0.37161 0.0
C1173 C 0.84504 0.42728 0.35903 0.0
C1174 C 0.81481 0.41624 0.37755 0.0
C1175 C 0.81001 0.43175 0.37117 0.0
C1176 C 0.82377 0.44598 0.35945 0.0
H1177 H 0.70676 0.46328 0.38456 0.0
H1178 H 0.74278 0.46586 0.38233 0.0
C1179 C 0.84098 0.44361 0.35332 0.0
C1180 C 0.78999 0.43232 0.37614 0.0
H1181 H 0.74217 0.42819 0.36133 0.0
C1182 C 0.78723 0.43531 0.39253 0.0
C1183 C 0.77336 0.42936 0.36477 0.0
C1184 C 0.77445 0.42449 0.34716 0.0
C1185 C 0.76843 0.43581 0.39777 0.0
C1186 C 0.75219 0.43336 0.38633 0.0
C1187 C 0.75488 0.43031 0.37001 0.0
C1188 C 0.73183 0.43332 0.39087 0.0
C1189 C 0.76597 0.43907 0.41541 0.0
C1190 C 0.71394 0.41432 0.3968 0.0
C1191 C 0.6932 0.41266 0.39797 0.0
C1192 C 0.69007 0.43 0.39319 0.0
C1193 C 0.70849 0.44956 0.38829 0.0
C1194 C 0.72914 0.45112 0.38703 0.0
H1195 H 0.78099 0.44272 0.42263 0.0
H1196 H 0.76249 0.45269 0.41717 0.0
H1197 H 0.75169 0.42403 0.42001 0.0
H1198 H 0.71572 0.40034 0.39967 0.0
H1199 H 0.67943 0.39739 0.40186 0.0
H1200 H 0.1161 0.56516 0.41406 0.0
H1201 H 0.13347 0.56293 0.43924 0.0
H1202 H 0.104 0.59523 0.46477 0.0
H1203 H 0.08623 0.59706 0.43969 0.0
H1204 H 0.16339 0.59681 0.45819 0.0
H1205 H 0.08932 0.54373 0.49324 0.0
H1206 H 0.08803 0.54659 0.47176 0.0
H1207 H 0.0888 0.56702 0.48539 0.0
C1208 C 0.11303 0.57143 0.42511 0.0
C1209 C 0.09959 0.58101 0.42499 0.0
C1210 C 0.12301 0.57021 0.43946 0.0
C1211 C 0.11974 0.5786 0.45392 0.0
C1212 C 0.10629 0.58815 0.45383 0.0
H1213 H 0.20281 0.62423 0.53947 0.0
H1214 H 0.1843 0.61989 0.51342 0.0
C1215 C 0.09624 0.58928 0.43951 0.0
C1216 C 0.13149 0.57859 0.46892 0.0
H1217 H 0.12357 0.5634 0.50815 0.0
C1218 C 0.15468 0.58933 0.46908 0.0
C1219 C 0.1201 0.56855 0.48304 0.0
C1220 C 0.09518 0.55562 0.48335 0.0
C1221 C 0.16682 0.59092 0.48313 0.0
C1222 C 0.15547 0.58191 0.49747 0.0
C1223 C 0.13226 0.57053 0.49718 0.0
C1224 C 0.16732 0.58448 0.513 0.0
C1225 C 0.19169 0.60213 0.48245 0.0
C1226 C 0.16362 0.56601 0.52156 0.0
C1227 C 0.17403 0.56841 0.53655 0.0
C1228 C 0.1883 0.58937 0.5433 0.0
C1229 C 0.19206 0.60785 0.53462 0.0
C1230 C 0.18159 0.60541 0.51966 0.0
H1231 H 0.19722 0.60216 0.46997 0.0
H1232 H 0.1989 0.61941 0.48665 0.0
H1233 H 0.19834 0.59407 0.49031 0.0
H1234 H 0.15258 0.54971 0.51666 0.0
H1235 H 0.17072 0.55381 0.54288 0.0
H1236 H 0.5656 0.12043 0.57434 0.0
H1237 H 0.58904 0.14571 0.60301 0.0
H1238 H 0.51927 0.11077 0.63435 0.0
H1239 H 0.49407 0.08484 0.60652 0.0
H1240 H 0.54355 0.15048 0.6416 0.0
H1241 H 0.61096 0.13107 0.64256 0.0
H1242 H 0.61101 0.14432 0.62436 0.0
H1243 H 0.58781 0.11779 0.62861 0.0
C1244 C 0.557 0.1192 0.58533 0.0
C1245 C 0.52801 0.09697 0.58833 0.0
C1246 C 0.57161 0.13391 0.60348 0.0
C1247 C 0.55714 0.12975 0.62215 0.0
C1248 C 0.5275 0.11216 0.62315 0.0
H1249 H 0.6205 0.1746 0.71622 0.0
H1250 H 0.60428 0.15456 0.69083 0.0
C1251 C 0.51145 0.09679 0.60569 0.0
C1252 C 0.56912 0.14273 0.63675 0.0
H1253 H 0.61581 0.16036 0.66016 0.0
C1254 C 0.55926 0.15243 0.6457 0.0
C1255 C 0.58957 0.14523 0.6422 0.0
C1256 C 0.60029 0.13384 0.63399 0.0
C1257 C 0.56922 0.16459 0.6599 0.0
C1258 C 0.59012 0.16791 0.66499 0.0
C1259 C 0.59996 0.15812 0.6561 0.0
C1260 C 0.60156 0.18078 0.67985 0.0
C1261 C 0.55685 0.17317 0.66952 0.0
C1262 C 0.60605 0.20241 0.68195 0.0
C1263 C 0.61495 0.21376 0.69654 0.0
C1264 C 0.62006 0.20387 0.70917 0.0
C1265 C 0.61672 0.18266 0.70672 0.0
C1266 C 0.60746 0.17119 0.69221 0.0
H1267 H 0.53882 0.16385 0.66665 0.0
H1268 H 0.55935 0.17232 0.68265 0.0
H1269 H 0.56296 0.19051 0.66653 0.0
H1270 H 0.6023 0.21041 0.67239 0.0
H1271 H 0.61765 0.2302 0.69798 0.0
H1272 H 0.56185 0.60127 0.76629 0.0
H1273 H 0.54232 0.60739 0.79491 0.0
H1274 H 0.46981 0.54013 0.78116 0.0
H1275 H 0.48753 0.53196 0.75242 0.0
H1276 H 0.5068 0.61339 0.79562 0.0
H1277 H 0.47508 0.53698 0.82905 0.0
H1278 H 0.49222 0.54237 0.81177 0.0
H1279 H 0.4628 0.53134 0.80925 0.0
C1280 C 0.54527 0.58921 0.76957 0.0
C1281 C 0.52551 0.56801 0.75492 0.0
C1282 C 0.53266 0.59339 0.78696 0.0
C1283 C 0.50385 0.57496 0.79089 0.0
C1284 C 0.48696 0.55087 0.77841 0.0
H1285 H 0.40897 0.58534 0.84941 0.0
H1286 H 0.42874 0.5735 0.83156 0.0
C1287 C 0.49801 0.54521 0.76073 0.0
C1288 C 0.49371 0.58065 0.80414 0.0
H1289 H 0.46004 0.56022 0.83629 0.0
C1290 C 0.49681 0.60185 0.80464 0.0
C1291 C 0.4806 0.56551 0.81581 0.0
C1292 C 0.4777 0.54287 0.81652 0.0
C1293 C 0.48645 0.60816 0.81614 0.0
C1294 C 0.47309 0.59297 0.82772 0.0
C1295 C 0.47028 0.57183 0.82739 0.0
C1296 C 0.46131 0.5986 0.83986 0.0
C1297 C 0.48926 0.63078 0.81538 0.0
C1298 C 0.47309 0.61614 0.85085 0.0
C1299 C 0.46185 0.62306 0.86096 0.0
C1300 C 0.43863 0.61235 0.86041 0.0
C1301 C 0.42686 0.59395 0.8501 0.0
C1302 C 0.43813 0.58716 0.83989 0.0
H1303 H 0.49532 0.63826 0.80351 0.0
H1304 H 0.47342 0.63034 0.81766 0.0
H1305 H 0.50155 0.64153 0.82474 0.0
H1306 H 0.49099 0.62486 0.85128 0.0
H1307 H 0.47138 0.63713 0.86891 0.0
H1308 H 0.97818 0.51527 0.95088 0.0
H1309 H 0.95007 0.48852 0.96844 0.0
H1310 H 0.90421 0.50885 0.95249 0.0
H1311 H 0.93216 0.5354 0.93479 0.0
H1312 H 0.9311 0.49825 0.99342 0.0
H1313 H 0.86651 0.44231 0.94937 0.0
H1314 H 0.8945 0.46122 0.9437 0.0
H1315 H 0.87495 0.47051 0.94626 0.0
C1316 C 0.96193 0.51367 0.95089 0.0
C1317 C 0.95719 0.52712 0.94129 0.0
C1318 C 0.94594 0.49846 0.96094 0.0
C1319 C 0.92494 0.49644 0.96157 0.0
C1320 C 0.92011 0.50972 0.95188 0.0
H1321 H 0.83164 0.46001 0.03572 0.0
H1322 H 0.86262 0.47756 0.01762 0.0
C1323 C 0.93608 0.52492 0.94182 0.0
C1324 C 0.9087 0.48182 0.9733 0.0
H1325 H 0.85506 0.44124 0.97663 0.0
C1326 C 0.91456 0.48557 0.98974 0.0
C1327 C 0.88726 0.46505 0.96848 0.0
C1328 C 0.88048 0.45935 0.95098 0.0
C1329 C 0.8992 0.47376 0.00153 0.0
C1330 C 0.87733 0.45805 0.99674 0.0
C1331 C 0.87178 0.45348 0.98028 0.0
C1332 C 0.85959 0.44725 0.00854 0.0
C1333 C 0.90646 0.47838 0.01902 0.0
C1334 C 0.84745 0.42435 0.00934 0.0
C1335 C 0.82962 0.41423 0.01966 0.0
C1336 C 0.82353 0.42688 0.02923 0.0
C1337 C 0.83596 0.44981 0.02857 0.0
C1338 C 0.85377 0.45988 0.01829 0.0
H1339 H 0.92461 0.4854 0.0205 0.0
H1340 H 0.90227 0.49048 0.02403 0.0
H1341 H 0.89797 0.46328 0.02614 0.0
H1342 H 0.8516 0.41432 0.00182 0.0
H1343 H 0.82029 0.39653 0.01982 0.0
H1344 H 0.5265 0.95543 0.10644 0.0
H1345 H 0.50681 0.94029 0.1313 0.0
H1346 H 0.44506 0.92315 0.10698 0.0
H1347 H 0.46451 0.93688 0.08182 0.0
H1348 H 0.48094 0.94739 0.15071 0.0
H1349 H 0.432 0.86456 0.12199 0.0
H1350 H 0.45464 0.88687 0.11211 0.0
H1351 H 0.42801 0.88504 0.11254 0.0
C1352 C 0.5087 0.94825 0.10638 0.0
C1353 C 0.49692 0.94657 0.09208 0.0
C1354 C 0.4975 0.93983 0.12062 0.0
C1355 C 0.47438 0.93001 0.12088 0.0
C1356 C 0.4628 0.92995 0.10692 0.0
H1357 H 0.38858 0.84987 0.1974 0.0
H1358 H 0.40295 0.87799 0.17691 0.0
C1359 C 0.47394 0.9379 0.09258 0.0
C1360 C 0.46247 0.91863 0.13546 0.0
H1361 H 0.42521 0.86822 0.14907 0.0
C1362 C 0.46861 0.93012 0.15033 0.0
C1363 C 0.44642 0.89604 0.13496 0.0
C1364 C 0.44 0.88233 0.11959 0.0
C1365 C 0.45957 0.91947 0.16474 0.0
C1366 C 0.44393 0.89691 0.16418 0.0
C1367 C 0.43708 0.88563 0.14933 0.0
C1368 C 0.43639 0.88388 0.17883 0.0
C1369 C 0.46711 0.93215 0.18051 0.0
C1370 C 0.45061 0.87831 0.18684 0.0
C1371 C 0.44241 0.86203 0.19831 0.0
C1372 C 0.41989 0.85121 0.20202 0.0
C1373 C 0.40603 0.85796 0.19481 0.0
C1374 C 0.41418 0.87402 0.18313 0.0
H1375 H 0.476 0.95011 0.17876 0.0
H1376 H 0.45277 0.9277 0.18832 0.0
H1377 H 0.47845 0.92788 0.18691 0.0
H1378 H 0.46775 0.88558 0.18349 0.0
H1379 H 0.45353 0.85732 0.20372 0.0
H1380 H 0.56762 0.48435 0.25051 0.0
H1381 H 0.56106 0.46202 0.2741 0.0
H1382 H 0.53947 0.5012 0.29996 0.0
H1383 H 0.54726 0.52439 0.2766 0.0
H1384 H 0.56771 0.49813 0.31731 0.0
H1385 H 0.51017 0.41434 0.29557 0.0
H1386 H 0.53289 0.42604 0.28222 0.0
H1387 H 0.51522 0.43782 0.28404 0.0
C1388 C 0.56096 0.48785 0.2611 0.0
C1389 C 0.55766 0.5059 0.26159 0.0
C1390 C 0.55697 0.47492 0.27456 0.0
C1391 C 0.54919 0.4795 0.28875 0.0
C1392 C 0.5452 0.49715 0.28911 0.0
H1393 H 0.55013 0.3949 0.36581 0.0
H1394 H 0.53431 0.41217 0.34882 0.0
C1395 C 0.54958 0.51035 0.27571 0.0
C1396 C 0.54844 0.46788 0.30371 0.0
H1397 H 0.5369 0.41776 0.31688 0.0
C1398 C 0.5604 0.48048 0.31734 0.0
C1399 C 0.53842 0.4448 0.30411 0.0
C1400 C 0.52324 0.43003 0.29073 0.0
C1401 C 0.56443 0.47087 0.33062 0.0
C1402 C 0.55699 0.44818 0.33003 0.0
C1403 C 0.54313 0.43526 0.31717 0.0
C1404 C 0.566 0.43832 0.3413 0.0
C1405 C 0.57739 0.4853 0.3449 0.0
C1406 C 0.58896 0.4471 0.34253 0.0
C1407 C 0.59795 0.43742 0.35218 0.0
C1408 C 0.58419 0.41849 0.3607 0.0
C1409 C 0.56114 0.40956 0.35946 0.0
C1410 C 0.5521 0.4194 0.34978 0.0
H1411 H 0.574 0.49901 0.3465 0.0
H1412 H 0.57339 0.47597 0.35618 0.0
H1413 H 0.59533 0.49258 0.34277 0.0
H1414 H 0.6 0.46121 0.33566 0.0
H1415 H 0.61573 0.44451 0.35259 0.0
H1416 H 0.46916 0.91554 0.39985 0.0
H1417 H 0.47063 0.89826 0.37448 0.0
H1418 H 0.43284 0.92326 0.35064 0.0
H1419 H 0.43179 0.94097 0.3759 0.0
H1420 H 0.43598 0.86678 0.35702 0.0
H1421 H 0.48289 0.93966 0.31981 0.0
H1422 H 0.48164 0.94153 0.34142 0.0
H1423 H 0.45929 0.9389 0.32874 0.0
C1424 C 0.46151 0.91764 0.38912 0.0
C1425 C 0.45059 0.9298 0.38977 0.0
C1426 C 0.4623 0.90773 0.37467 0.0
C1427 C 0.45216 0.90977 0.36062 0.0
C1428 C 0.44127 0.92194 0.36123 0.0
H1429 H 0.40162 0.8248 0.27709 0.0
H1430 H 0.40793 0.84354 0.30318 0.0
C1431 C 0.44057 0.93194 0.37566 0.0
C1432 C 0.45171 0.89803 0.34558 0.0
H1433 H 0.46324 0.9051 0.30564 0.0
C1434 C 0.44215 0.87518 0.34582 0.0
C1435 C 0.46007 0.90903 0.33103 0.0
C1436 C 0.47176 0.93365 0.33023 0.0
C1437 C 0.44 0.86295 0.33177 0.0
C1438 C 0.4472 0.87384 0.31705 0.0
C1439 C 0.4575 0.89676 0.31691 0.0
C1440 C 0.44356 0.86174 0.30156 0.0
C1441 C 0.43007 0.83849 0.33283 0.0
C1442 C 0.46149 0.86602 0.29187 0.0
C1443 C 0.45795 0.85546 0.27685 0.0
C1444 C 0.43636 0.84049 0.27122 0.0
C1445 C 0.41846 0.8361 0.28107 0.0
C1446 C 0.42204 0.84671 0.29604 0.0
H1447 H 0.43173 0.83369 0.34523 0.0
H1448 H 0.41218 0.83035 0.32962 0.0
H1449 H 0.43802 0.83232 0.3244 0.0
H1450 H 0.47823 0.87766 0.29588 0.0
H1451 H 0.47212 0.85927 0.26959 0.0
H1452 H 0.55651 0.45151 0.55616 0.0
H1453 H 0.57488 0.45111 0.53142 0.0
H1454 H 0.52014 0.4462 0.50326 0.0
H1455 H 0.50136 0.44575 0.52799 0.0
H1456 H 0.53083 0.4171 0.49318 0.0
H1457 H 0.60742 0.49768 0.49916 0.0
H1458 H 0.60327 0.48109 0.51634 0.0
H1459 H 0.58392 0.49015 0.51169 0.0
C1460 C 0.54863 0.45077 0.54467 0.0
C1461 C 0.52778 0.44923 0.54401 0.0
C1462 C 0.55917 0.45065 0.53054 0.0
C1463 C 0.54915 0.44915 0.51546 0.0
C1464 C 0.52832 0.44764 0.51476 0.0
H1465 H 0.61253 0.46627 0.42327 0.0
H1466 H 0.59675 0.4709 0.44805 0.0
C1467 C 0.51766 0.44753 0.52889 0.0
C1468 C 0.55962 0.44758 0.50046 0.0
H1469 H 0.60734 0.47262 0.47942 0.0
C1470 C 0.54751 0.42933 0.49012 0.0
C1471 C 0.58128 0.46367 0.49636 0.0
C1472 C 0.59464 0.48436 0.50639 0.0
C1473 C 0.55655 0.42652 0.47594 0.0
C1474 C 0.57859 0.44206 0.47223 0.0
C1475 C 0.59058 0.46054 0.4824 0.0
C1476 C 0.58929 0.43966 0.45765 0.0
C1477 C 0.54219 0.40714 0.46493 0.0
C1478 C 0.59091 0.42082 0.455 0.0
C1479 C 0.5997 0.418 0.44076 0.0
C1480 C 0.60743 0.43417 0.42901 0.0
C1481 C 0.60672 0.45348 0.43205 0.0
C1482 C 0.59769 0.45616 0.44621 0.0
H1483 H 0.52433 0.40073 0.46698 0.0
H1484 H 0.54549 0.41148 0.45209 0.0
H1485 H 0.54575 0.39376 0.46736 0.0
H1486 H 0.58514 0.40815 0.46387 0.0
H1487 H 0.60025 0.40305 0.4389 0.0
H1488 H 0.08343 0.49733 0.71728 0.0
H1489 H 0.0966 0.51337 0.69104 0.0
H1490 H 0.10147 0.57373 0.70803 0.0
H1491 H 0.08971 0.55822 0.73463 0.0
H1492 H 0.08411 0.53092 0.66784 0.0
H1493 H 0.16378 0.59532 0.69532 0.0
H1494 H 0.14372 0.57264 0.70659 0.0
H1495 H 0.14011 0.59575 0.70289 0.0
C1496 C 0.08751 0.51408 0.71547 0.0
C1497 C 0.0865 0.52685 0.72822 0.0
C1498 C 0.09481 0.52317 0.70041 0.0
C1499 C 0.10074 0.54501 0.69772 0.0
C1500 C 0.09781 0.55712 0.71001 0.0
H1501 H 0.17341 0.62639 0.61732 0.0
H1502 H 0.1457 0.61064 0.63818 0.0
C1503 C 0.09097 0.54821 0.72517 0.0
C1504 C 0.11126 0.55536 0.68244 0.0
H1505 H 0.15903 0.59649 0.66741 0.0
C1506 C 0.10043 0.54534 0.66775 0.0
C1507 C 0.13263 0.57416 0.68232 0.0
C1508 C 0.14585 0.58499 0.6976 0.0
C1509 C 0.11057 0.55339 0.65298 0.0
C1510 C 0.13198 0.57192 0.65295 0.0
C1511 C 0.14248 0.58238 0.66755 0.0
C1512 C 0.14491 0.57962 0.63815 0.0
C1513 C 0.09856 0.54191 0.63751 0.0
C1514 C 0.15324 0.56718 0.63104 0.0
C1515 C 0.16927 0.5762 0.61929 0.0
C1516 C 0.17716 0.5978 0.61441 0.0
C1517 C 0.16767 0.6097 0.6208 0.0
C1518 C 0.15182 0.60074 0.6327 0.0
H1519 H 0.08056 0.53105 0.63927 0.0
H1520 H 0.10095 0.55399 0.6282 0.0
H1521 H 0.10542 0.53174 0.63291 0.0
H1522 H 0.14835 0.55097 0.63528 0.0
H1523 H 0.17621 0.5666 0.61462 0.0
H1524 H 0.52373 0.11095 0.90422 0.0
H1525 H 0.52467 0.12642 0.87193 0.0
H1526 H 0.591 0.11982 0.85915 0.0
H1527 H 0.59154 0.10376 0.89082 0.0
H1528 H 0.55481 0.15882 0.85576 0.0
H1529 H 0.55345 0.0927 0.81909 0.0
H1530 H 0.5483 0.09007 0.84035 0.0
H1531 H 0.57622 0.10297 0.83319 0.0
C1532 C 0.53652 0.1132 0.896 0.0
C1533 C 0.55513 0.1018 0.89981 0.0
C1534 C 0.53657 0.12171 0.87566 0.0
C1535 C 0.55664 0.12291 0.86159 0.0
C1536 C 0.57829 0.11733 0.86751 0.0
H1537 H 0.62581 0.19969 0.78477 0.0
H1538 H 0.60899 0.17279 0.80576 0.0
C1539 C 0.57965 0.10869 0.88751 0.0
C1540 C 0.55772 0.13215 0.84562 0.0
H1541 H 0.57008 0.1285 0.80653 0.0
C1542 C 0.55757 0.1519 0.8449 0.0
C1543 C 0.56124 0.12306 0.83147 0.0
C1544 C 0.55956 0.10091 0.83108 0.0
C1545 C 0.56258 0.16372 0.83067 0.0
C1546 C 0.56758 0.15534 0.81679 0.0
C1547 C 0.56644 0.13495 0.81725 0.0
C1548 C 0.57638 0.16871 0.80235 0.0
C1549 C 0.56387 0.18573 0.83085 0.0
C1550 C 0.56335 0.17464 0.79309 0.0
C1551 C 0.57292 0.19003 0.78104 0.0
C1552 C 0.59565 0.1997 0.77811 0.0
C1553 C 0.60829 0.19263 0.78674 0.0
C1554 C 0.5987 0.17723 0.79874 0.0
H1555 H 0.56254 0.19119 0.84318 0.0
H1556 H 0.57968 0.19832 0.82574 0.0
H1557 H 0.55016 0.18472 0.82328 0.0
H1558 H 0.54601 0.168 0.7956 0.0
H1559 H 0.56271 0.19505 0.77453 0.0
H1560 H 0.43637 0.55615 0.06646 0.0
H1561 H 0.41908 0.55583 0.03445 0.0
H1562 H 0.49274 0.61667 0.01793 0.0
H1563 H 0.51211 0.6184 0.04929 0.0
H1564 H 0.41917 0.58885 0.01586 0.0
H1565 H 0.4755 0.57053 0.98113 0.0
H1566 H 0.47108 0.56541 0.00231 0.0
H1567 H 0.48934 0.59266 0.99557 0.0
C1568 C 0.44657 0.56784 0.05764 0.0
C1569 C 0.47721 0.58466 0.06023 0.0
C1570 C 0.43628 0.56707 0.0375 0.0
C1571 C 0.45439 0.58497 0.0224 0.0
C1572 C 0.48281 0.60537 0.02702 0.0
H1573 H 0.41985 0.62867 0.93685 0.0
H1574 H 0.43016 0.62348 0.96396 0.0
C1575 C 0.49469 0.60746 0.04677 0.0
C1576 C 0.44515 0.58441 0.00625 0.0
H1577 H 0.45404 0.58196 0.96621 0.0
C1578 C 0.42666 0.58715 0.00499 0.0
C1579 C 0.45481 0.58191 0.99215 0.0
C1580 C 0.47366 0.57727 0.9928 0.0
C1581 C 0.4181 0.58842 0.98991 0.0
C1582 C 0.42842 0.58697 0.97581 0.0
C1583 C 0.44637 0.58335 0.97708 0.0
C1584 C 0.42121 0.58971 0.95961 0.0
C1585 C 0.39815 0.59134 0.98916 0.0
C1586 C 0.41305 0.5725 0.94814 0.0
C1587 C 0.40715 0.57539 0.93261 0.0
C1588 C 0.40957 0.59565 0.92822 0.0
C1589 C 0.41776 0.61285 0.9398 0.0
C1590 C 0.42353 0.60989 0.95534 0.0
H1591 H 0.38902 0.5868 0.00059 0.0
H1592 H 0.40361 0.60878 0.98697 0.0
H1593 H 0.38668 0.58131 0.97914 0.0
H1594 H 0.41129 0.55685 0.95121 0.0
H1595 H 0.40095 0.56182 0.92401 0.0
H1596 H 0.93428 0.50722 0.19952 0.0
H1597 H 0.90734 0.48952 0.1773 0.0
H1598 H 0.90193 0.42758 0.1885 0.0
H1599 H 0.92892 0.44522 0.21078 0.0
H1600 H 0.91284 0.46696 0.15086 0.0
H1601 H 0.83667 0.41374 0.18431 0.0
H1602 H 0.86058 0.43694 0.19365 0.0
H1603 H 0.86061 0.41184 0.1899 0.0
C1604 C 0.92702 0.48975 0.19743 0.0
C1605 C 0.93329 0.4775 0.20712 0.0
C1606 C 0.91172 0.47969 0.18472 0.0
C1607 C 0.9024 0.4572 0.18144 0.0
C1608 C 0.90857 0.44487 0.19108 0.0
H1609 H 0.84087 0.38856 0.09141 0.0
H1610 H 0.86323 0.40289 0.11618 0.0
C1611 C 0.92397 0.45495 0.20378 0.0
C1612 C 0.88735 0.44703 0.16728 0.0
H1613 H 0.8345 0.40882 0.15589 0.0
C1614 C 0.89571 0.45426 0.15195 0.0
C1615 C 0.86498 0.43062 0.16879 0.0
C1616 C 0.85503 0.42288 0.18504 0.0
C1617 C 0.88234 0.44532 0.13803 0.0
C1618 C 0.86011 0.42856 0.1395 0.0
C1619 C 0.85163 0.42153 0.15484 0.0
C1620 C 0.84544 0.41844 0.12516 0.0
C1621 C 0.89201 0.45408 0.12186 0.0
C1622 C 0.82762 0.42192 0.12228 0.0
C1623 C 0.81477 0.41377 0.10812 0.0
C1624 C 0.81944 0.40186 0.09664 0.0
C1625 C 0.83683 0.39773 0.09992 0.0
C1626 C 0.8497 0.40596 0.11405 0.0
H1627 H 0.90773 0.46995 0.12303 0.0
H1628 H 0.89547 0.44216 0.11559 0.0
H1629 H 0.88015 0.45631 0.11421 0.0
H1630 H 0.82406 0.43147 0.13077 0.0
H1631 H 0.80146 0.41719 0.10604 0.0
loop_
_geom_bond_atom_site_label_1
_geom_bond_atom_site_label_2
_geom_bond_distance
_geom_bond_site_symmetry_2
_ccdc_geom_bond_type
C0 C1 1.560 . S
C0 H61 0.959 . S
C0 H62 0.959 . S
C0 H63 0.960 . S
C1 C0 1.560 . S
C1 O56 1.426 . S
C1 H60 0.980 . S
C2 C3 1.407 . S
C2 C7 1.418 . S
C2 O56 1.334 . S
C3 C2 1.407 . S
C3 C4 1.360 . S
C3 H64 0.929 . S
C4 C3 1.360 . S
C4 C5 1.401 . S
C4 C8 1.527 . S
C5 C4 1.401 . S
C5 C6 1.405 . S
C5 C38 1.587 . S
C6 C5 1.405 . S
C6 C7 1.332 . S
C6 C9 1.496 . S
C7 C2 1.418 . S
C7 C6 1.332 . S
C7 H65 0.929 . S
C8 C4 1.527 . S
C8 H66 0.959 . S
C8 H67 0.961 . S
C8 H68 0.961 . S
C9 C6 1.496 . S
C9 H69 0.960 . S
C9 H70 0.960 . S
C9 H71 0.961 . S
C10 C11 1.517 . S
C10 H73 0.961 . S
C10 H74 0.960 . S
C10 H75 0.959 . S
C11 C10 1.517 . S
C11 O59 1.468 . S
C11 H72 0.980 . S
C12 C13 1.349 . S
C12 C17 1.367 . S
C12 O59 1.408 . S
C13 C12 1.349 . S
C13 C14 1.407 . S
C13 H76 0.930 . S
C14 C13 1.407 . S
C14 C15 1.449 . S
C14 C18 1.535 . S
C15 C14 1.449 . S
C15 C16 1.384 . S
C15 C40 1.553 1_655 S
C16 C15 1.384 . S
C16 C17 1.364 . S
C16 C19 1.450 . S
C17 C12 1.367 . S
C17 C16 1.364 . S
C17 H77 0.931 . S
C18 C14 1.535 . S
C18 H78 0.959 1_655 S
C18 H79 0.961 . S
C18 H80 0.959 . S
C19 C16 1.450 . S
C19 H81 0.960 . S
C19 H82 0.960 1_655 S
C19 H83 0.960 . S
C20 C21 1.309 . S
C20 C25 1.304 . S
C20 O58 1.435 . S
C21 C20 1.309 . S
C21 C22 1.476 . S
C21 H85 0.930 . S
C22 C21 1.476 . S
C22 C23 1.400 . S
C22 C26 1.567 . S
C23 C22 1.400 . S
C23 C24 1.373 . S
C23 C45 1.432 . S
C24 C23 1.373 . S
C24 C25 1.339 . S
C24 C27 1.530 . S
C25 C20 1.304 . S
C25 C24 1.339 . S
C25 H86 0.930 . S
C26 C22 1.567 . S
C26 H87 0.961 . S
C26 H88 0.960 . S
C26 H89 0.958 . S
C27 C24 1.530 . S
C27 H90 0.961 . S
C27 H91 0.960 . S
C27 H92 0.960 . S
C28 C29 1.530 . S
C28 H94 0.961 . S
C28 H95 0.961 . S
C28 H96 0.959 . S
C29 C28 1.530 . S
C29 O57 1.412 . S
C29 H93 0.980 . S
C30 C31 1.288 . S
C30 C35 1.377 . S
C30 O57 1.393 . S
C31 C30 1.288 . S
C31 C32 1.369 . S
C31 H97 0.932 . S
C32 C31 1.369 . S
C32 C33 1.398 . S
C32 C36 1.527 . S
C33 C32 1.398 . S
C33 C34 1.380 . S
C33 C47 1.497 . S
C34 C33 1.380 . S
C34 C35 1.383 . S
C34 C37 1.603 . S
C35 C30 1.377 . S
C35 C34 1.383 . S
C35 H98 0.929 . S
C36 C32 1.527 . S
C36 H99 0.961 . S
C36 H100 0.959 1_455 S
C36 H101 0.959 . S
C37 C34 1.603 . S
C37 H102 0.960 . S
C37 H103 0.962 . S
C37 H104 0.961 . S
C38 C5 1.587 . S
C38 C39 1.360 . S
C38 C51 1.412 . S
C39 C38 1.360 . S
C39 C40 1.365 . S
C39 H105 0.929 . S
C40 C15 1.553 1_455 S
C40 C39 1.365 . S
C40 C41 1.404 1_455 S
C41 C40 1.404 1_655 S
C41 C42 1.395 . S
C41 C52 1.451 1_655 S
C42 C41 1.395 . S
C42 C43 1.322 . S
C42 H106 0.930 . S
C43 C42 1.322 . S
C43 C44 1.459 . S
C43 H107 0.929 . S
C44 C43 1.459 . S
C44 C45 1.445 . S
C44 C53 1.395 1_655 S
C45 C23 1.432 . S
C45 C44 1.445 . S
C45 C46 1.370 . S
C46 C45 1.370 . S
C46 C47 1.438 1_655 S
C46 H108 0.930 . S
C47 C33 1.497 . S
C47 C46 1.438 1_455 S
C47 C48 1.360 . S
C48 C47 1.360 . S
C48 C49 1.401 . S
C48 C53 1.446 . S
C49 C48 1.401 . S
C49 C50 1.347 . S
C49 H109 0.929 . S
C50 C49 1.347 . S
C50 C51 1.455 . S
C50 H110 0.930 . S
C51 C38 1.412 . S
C51 C50 1.455 . S
C51 C52 1.331 . S
C52 C41 1.451 1_455 S
C52 C51 1.331 . S
C52 C53 1.497 . S
C53 C44 1.395 1_455 S
C53 C48 1.446 . S
C53 C52 1.497 . S
C54 C55 1.582 . S
C54 H111 0.962 . S
C54 H112 0.959 . S
C54 H113 0.958 . S
C55 C54 1.582 . S
C55 O58 1.458 . S
C55 H84 0.980 . S
O56 C1 1.426 . S
O56 C2 1.334 . S
O57 C29 1.412 . S
O57 C30 1.393 . S
O58 C20 1.435 . S
O58 C55 1.458 . S
O59 C11 1.468 . S
O59 C12 1.408 . S
H60 C1 0.980 . S
H61 C0 0.959 . S
H62 C0 0.959 . S
H63 C0 0.960 . S
H64 C3 0.929 . S
H65 C7 0.929 . S
H66 C8 0.959 . S
H67 C8 0.961 . S
H68 C8 0.961 . S
H69 C9 0.960 . S
H70 C9 0.960 . S
H71 C9 0.961 . S
H72 C11 0.980 . S
H73 C10 0.961 . S
H74 C10 0.960 . S
H75 C10 0.959 . S
H76 C13 0.930 . S
H77 C17 0.931 . S
H78 C18 0.959 1_455 S
H79 C18 0.961 . S
H80 C18 0.959 . S
H81 C19 0.960 . S
H82 C19 0.960 1_455 S
H83 C19 0.960 . S
H84 C55 0.980 . S
H85 C21 0.930 . S
H86 C25 0.930 . S
H87 C26 0.961 . S
H88 C26 0.960 . S
H89 C26 0.958 . S
H90 C27 0.961 . S
H91 C27 0.960 . S
H92 C27 0.960 . S
H93 C29 0.980 . S
H94 C28 0.961 . S
H95 C28 0.961 . S
H96 C28 0.959 . S
H97 C31 0.932 . S
H98 C35 0.929 . S
H99 C36 0.961 . S
H100 C36 0.959 1_655 S
H101 C36 0.959 . S
H102 C37 0.960 . S
H103 C37 0.962 . S
H104 C37 0.961 . S
H105 C39 0.929 . S
H106 C42 0.930 . S
H107 C43 0.929 . S
H108 C46 0.930 . S
H109 C49 0.929 . S
H110 C50 0.930 . S
H111 C54 0.962 . S
H112 C54 0.959 . S
H113 C54 0.958 . S
C114 C115 1.560 . S
C114 H175 0.959 . S
C114 H176 0.959 . S
C114 H177 0.960 . S
C115 C114 1.560 . S
C115 O170 1.426 . S
C115 H174 0.980 . S
C116 C117 1.407 . S
C116 C121 1.418 . S
C116 O170 1.334 . S
C117 C116 1.407 . S
C117 C118 1.360 . S
C117 H178 0.929 . S
C118 C117 1.360 . S
C118 C119 1.401 . S
C118 C122 1.527 . S
C119 C118 1.401 . S
C119 C120 1.405 . S
C119 C152 1.587 . S
C120 C119 1.405 . S
C120 C121 1.332 . S
C120 C123 1.496 . S
C121 C116 1.418 . S
C121 C120 1.332 . S
C121 H179 0.929 . S
C122 C118 1.527 . S
C122 H180 0.959 . S
C122 H181 0.961 . S
C122 H182 0.961 . S
C123 C120 1.496 . S
C123 H183 0.960 . S
C123 H184 0.960 . S
C123 H185 0.961 . S
C124 C125 1.517 . S
C124 H187 0.961 . S
C124 H188 0.960 . S
C124 H189 0.959 . S
C125 C124 1.517 . S
C125 O173 1.468 . S
C125 H186 0.980 . S
C126 C127 1.349 . S
C126 C131 1.367 . S
C126 O173 1.408 . S
C127 C126 1.349 . S
C127 C128 1.407 . S
C127 H190 0.930 . S
C128 C127 1.407 . S
C128 C129 1.449 . S
C128 C132 1.535 . S
C129 C128 1.449 . S
C129 C130 1.384 . S
C129 C154 1.553 . S
C130 C129 1.384 . S
C130 C131 1.364 . S
C130 C133 1.450 . S
C131 C126 1.367 . S
C131 C130 1.364 . S
C131 H191 0.931 . S
C132 C128 1.535 . S
C132 H192 0.959 . S
C132 H193 0.961 . S
C132 H194 0.959 . S
C133 C130 1.450 . S
C133 H195 0.960 . S
C133 H196 0.960 . S
C133 H197 0.960 . S
C134 C135 1.309 . S
C134 C139 1.304 . S
C134 O172 1.435 . S
C135 C134 1.309 . S
C135 C136 1.476 . S
C135 H199 0.930 . S
C136 C135 1.476 . S
C136 C137 1.400 . S
C136 C140 1.567 . S
C137 C136 1.400 . S
C137 C138 1.373 . S
C137 C159 1.432 . S
C138 C137 1.373 . S
C138 C139 1.339 . S
C138 C141 1.530 . S
C139 C134 1.304 . S
C139 C138 1.339 . S
C139 H200 0.930 . S
C140 C136 1.567 . S
C140 H201 0.961 . S
C140 H202 0.960 . S
C140 H203 0.958 . S
C141 C138 1.530 . S
C141 H204 0.961 . S
C141 H205 0.960 . S
C141 H206 0.960 . S
C142 C143 1.530 . S
C142 H208 0.961 . S
C142 H209 0.961 . S
C142 H210 0.959 . S
C143 C142 1.530 . S
C143 O171 1.412 . S
C143 H207 0.980 . S
C144 C145 1.288 . S
C144 C149 1.377 . S
C144 O171 1.393 . S
C145 C144 1.288 . S
C145 C146 1.387 . S
C145 H211 0.932 . S
C146 C145 1.387 . S
C146 C147 1.419 1_565 S
C146 C150 1.489 1_565 S
C147 C146 1.419 1_545 S
C147 C148 1.380 1_545 S
C147 C161 1.497 . S
C148 C147 1.380 1_565 S
C148 C149 1.383 . S
C148 C151 1.603 . S
C149 C144 1.377 . S
C149 C148 1.383 . S
C149 H212 0.929 . S
C150 C146 1.489 1_545 S
C150 H213 0.961 . S
C150 H214 0.959 . S
C150 H215 0.959 . S
C151 C148 1.603 . S
C151 H216 0.960 . S
C151 H217 0.962 1_565 S
C151 H218 0.961 . S
C152 C119 1.587 . S
C152 C153 1.360 . S
C152 C165 1.412 . S
C153 C152 1.360 . S
C153 C154 1.365 1_565 S
C153 H219 0.929 . S
C154 C129 1.553 . S
C154 C153 1.365 1_545 S
C154 C155 1.404 . S
C155 C154 1.404 . S
C155 C156 1.395 . S
C155 C166 1.451 . S
C156 C155 1.395 . S
C156 C157 1.322 . S
C156 H220 0.930 . S
C157 C156 1.322 . S
C157 C158 1.459 . S
C157 H221 0.929 . S
C158 C157 1.459 . S
C158 C159 1.445 . S
C158 C167 1.395 . S
C159 C137 1.432 . S
C159 C158 1.445 . S
C159 C160 1.370 . S
C160 C159 1.370 . S
C160 C161 1.438 . S
C160 H222 0.930 . S
C161 C147 1.497 . S
C161 C160 1.438 . S
C161 C162 1.360 . S
C162 C161 1.360 . S
C162 C163 1.401 1_545 S
C162 C167 1.446 . S
C163 C162 1.401 1_565 S
C163 C164 1.347 . S
C163 H223 0.929 . S
C164 C163 1.347 . S
C164 C165 1.455 . S
C164 H224 0.930 . S
C165 C152 1.412 . S
C165 C164 1.455 . S
C165 C166 1.331 1_565 S
C166 C155 1.451 . S
C166 C165 1.331 1_545 S
C166 C167 1.497 . S
C167 C158 1.395 . S
C167 C162 1.446 . S
C167 C166 1.497 . S
C168 C169 1.582 . S
C168 H225 0.962 . S
C168 H226 0.959 . S
C168 H227 0.958 . S
C169 C168 1.582 . S
C169 O172 1.458 . S
C169 H198 0.980 . S
O170 C115 1.426 . S
O170 C116 1.334 . S
O171 C143 1.412 . S
O171 C144 1.393 . S
O172 C134 1.435 . S
O172 C169 1.458 . S
O173 C125 1.468 . S
O173 C126 1.408 . S
H174 C115 0.980 . S
H175 C114 0.959 . S
H176 C114 0.959 . S
H177 C114 0.960 . S
H178 C117 0.929 . S
H179 C121 0.929 . S
H180 C122 0.959 . S
H181 C122 0.961 . S
H182 C122 0.961 . S
H183 C123 0.960 . S
H184 C123 0.960 . S
H185 C123 0.961 . S
H186 C125 0.980 . S
H187 C124 0.961 . S
H188 C124 0.960 . S
H189 C124 0.959 . S
H190 C127 0.930 . S
H191 C131 0.931 . S
H192 C132 0.959 . S
H193 C132 0.961 . S
H194 C132 0.959 . S
H195 C133 0.960 . S
H196 C133 0.960 . S
H197 C133 0.960 . S
H198 C169 0.980 . S
H199 C135 0.930 . S
H200 C139 0.930 . S
H201 C140 0.961 . S
H202 C140 0.960 . S
H203 C140 0.958 . S
H204 C141 0.961 . S
H205 C141 0.960 . S
H206 C141 0.960 . S
H207 C143 0.980 . S
H208 C142 0.961 . S
H209 C142 0.961 . S
H210 C142 0.959 . S
H211 C145 0.932 . S
H212 C149 0.929 . S
H213 C150 0.961 . S
H214 C150 0.959 . S
H215 C150 0.959 . S
H216 C151 0.960 . S
H217 C151 0.962 1_545 S
H218 C151 0.961 . S
H219 C153 0.929 . S
H220 C156 0.930 . S
H221 C157 0.929 . S
H222 C160 0.930 . S
H223 C163 0.929 . S
H224 C164 0.930 . S
H225 C168 0.962 . S
H226 C168 0.959 . S
H227 C168 0.958 . S
C228 C229 1.560 . S
C228 H289 0.959 . S
C228 H290 0.959 . S
C228 H291 0.960 . S
C229 C228 1.560 . S
C229 O284 1.426 . S
C229 H288 0.980 . S
C230 C231 1.407 . S
C230 C235 1.418 . S
C230 O284 1.334 . S
C231 C230 1.407 . S
C231 C232 1.360 . S
C231 H292 0.929 . S
C232 C231 1.360 . S
C232 C233 1.401 . S
C232 C236 1.527 . S
C233 C232 1.401 . S
C233 C234 1.405 . S
C233 C266 1.587 . S
C234 C233 1.405 . S
C234 C235 1.332 . S
C234 C237 1.496 . S
C235 C230 1.418 . S
C235 C234 1.332 . S
C235 H293 0.929 . S
C236 C232 1.527 . S
C236 H294 0.959 . S
C236 H295 0.961 . S
C236 H296 0.961 . S
C237 C234 1.496 . S
C237 H297 0.960 . S
C237 H298 0.960 . S
C237 H299 0.961 . S
C238 C239 1.517 . S
C238 H301 0.961 . S
C238 H302 0.960 . S
C238 H303 0.959 . S
C239 C238 1.517 . S
C239 O287 1.468 . S
C239 H300 0.980 . S
C240 C241 1.349 . S
C240 C245 1.367 . S
C240 O287 1.408 . S
C241 C240 1.349 . S
C241 C242 1.407 . S
C241 H304 0.930 . S
C242 C241 1.407 . S
C242 C243 1.449 . S
C242 C246 1.535 . S
C243 C242 1.449 . S
C243 C244 1.384 . S
C243 C268 1.553 . S
C244 C243 1.384 . S
C244 C245 1.364 . S
C244 C247 1.450 . S
C245 C240 1.367 . S
C245 C244 1.364 . S
C245 H305 0.931 . S
C246 C242 1.535 . S
C246 H306 0.959 . S
C246 H307 0.961 . S
C246 H308 0.959 . S
C247 C244 1.450 . S
C247 H309 0.960 . S
C247 H310 0.960 . S
C247 H311 0.960 . S
C248 C249 1.309 . S
C248 C253 1.304 . S
C248 O286 1.435 . S
C249 C248 1.309 . S
C249 C250 1.476 . S
C249 H313 0.930 . S
C250 C249 1.476 . S
C250 C251 1.400 . S
C250 C254 1.567 . S
C251 C250 1.400 . S
C251 C252 1.373 . S
C251 C273 1.432 . S
C252 C251 1.373 . S
C252 C253 1.339 . S
C252 C255 1.530 . S
C253 C248 1.304 . S
C253 C252 1.339 . S
C253 H314 0.930 . S
C254 C250 1.567 . S
C254 H315 0.961 . S
C254 H316 0.960 . S
C254 H317 0.958 . S
C255 C252 1.530 . S
C255 H318 0.961 . S
C255 H319 0.960 . S
C255 H320 0.960 . S
C256 C257 1.530 . S
C256 H322 0.961 . S
C256 H323 0.961 . S
C256 H324 0.959 . S
C257 C256 1.530 . S
C257 O285 1.412 . S
C257 H321 0.980 . S
C258 C259 1.288 . S
C258 C263 1.377 . S
C258 O285 1.393 . S
C259 C258 1.288 . S
C259 C260 1.369 . S
C259 H325 0.932 . S
C260 C259 1.369 . S
C260 C261 1.398 . S
C260 C264 1.527 . S
C261 C260 1.398 . S
C261 C262 1.380 . S
C261 C275 1.497 . S
C262 C261 1.380 . S
C262 C263 1.383 . S
C262 C265 1.603 . S
C263 C258 1.377 . S
C263 C262 1.383 . S
C263 H326 0.929 . S
C264 C260 1.527 . S
C264 H327 0.961 . S
C264 H328 0.959 . S
C264 H329 0.959 . S
C265 C262 1.603 . S
C265 H330 0.960 . S
C265 H331 0.962 . S
C265 H332 0.961 . S
C266 C233 1.587 . S
C266 C267 1.360 . S
C266 C279 1.412 . S
C267 C266 1.360 . S
C267 C268 1.365 . S
C267 H333 0.929 . S
C268 C243 1.553 . S
C268 C267 1.365 . S
C268 C269 1.404 . S
C269 C268 1.404 . S
C269 C270 1.395 . S
C269 C280 1.451 . S
C270 C269 1.395 . S
C270 C271 1.322 . S
C270 H334 0.930 . S
C271 C270 1.322 . S
C271 C272 1.459 . S
C271 H335 0.929 . S
C272 C271 1.459 . S
C272 C273 1.445 . S
C272 C281 1.395 . S
C273 C251 1.432 . S
C273 C272 1.445 . S
C273 C274 1.370 . S
C274 C273 1.370 . S
C274 C275 1.438 . S
C274 H336 0.930 . S
C275 C261 1.497 . S
C275 C274 1.438 . S
C275 C276 1.360 . S
C276 C275 1.360 . S
C276 C277 1.401 . S
C276 C281 1.446 . S
C277 C276 1.401 . S
C277 C278 1.347 . S
C277 H337 0.929 . S
C278 C277 1.347 . S
C278 C279 1.455 . S
C278 H338 0.930 . S
C279 C266 1.412 . S
C279 C278 1.455 . S
C279 C280 1.331 . S
C280 C269 1.451 . S
C280 C279 1.331 . S
C280 C281 1.497 . S
C281 C272 1.395 . S
C281 C276 1.446 . S
C281 C280 1.497 . S
C282 C283 1.582 . S
C282 H339 0.962 . S
C282 H340 0.959 . S
C282 H341 0.958 . S
C283 C282 1.582 . S
C283 O286 1.458 . S
C283 H312 0.980 . S
O284 C229 1.426 . S
O284 C230 1.334 . S
O285 C257 1.412 . S
O285 C258 1.393 . S
O286 C248 1.435 . S
O286 C283 1.458 . S
O287 C239 1.468 . S
O287 C240 1.408 . S
H288 C229 0.980 . S
H289 C228 0.959 . S
H290 C228 0.959 . S
H291 C228 0.960 . S
H292 C231 0.929 . S
H293 C235 0.929 . S
H294 C236 0.959 . S
H295 C236 0.961 . S
H296 C236 0.961 . S
H297 C237 0.960 . S
H298 C237 0.960 . S
H299 C237 0.961 . S
H300 C239 0.980 . S
H301 C238 0.961 . S
H302 C238 0.960 . S
H303 C238 0.959 . S
H304 C241 0.930 . S
H305 C245 0.931 . S
H306 C246 0.959 . S
H307 C246 0.961 . S
H308 C246 0.959 . S
H309 C247 0.960 . S
H310 C247 0.960 . S
H311 C247 0.960 . S
H312 C283 0.980 . S
H313 C249 0.930 . S
H314 C253 0.930 . S
H315 C254 0.961 . S
H316 C254 0.960 . S
H317 C254 0.958 . S
H318 C255 0.961 . S
H319 C255 0.960 . S
H320 C255 0.960 . S
H321 C257 0.980 . S
H322 C256 0.961 . S
H323 C256 0.961 . S
H324 C256 0.959 . S
H325 C259 0.932 . S
H326 C263 0.929 . S
H327 C264 0.961 . S
H328 C264 0.959 . S
H329 C264 0.959 . S
H330 C265 0.960 . S
H331 C265 0.962 . S
H332 C265 0.961 . S
H333 C267 0.929 . S
H334 C270 0.930 . S
H335 C271 0.929 . S
H336 C274 0.930 . S
H337 C277 0.929 . S
H338 C278 0.930 . S
H339 C282 0.962 . S
H340 C282 0.959 . S
H341 C282 0.958 . S
C342 C343 1.560 . S
C342 H403 0.959 . S
C342 H404 0.959 . S
C342 H405 0.960 . S
C343 C342 1.560 . S
C343 O398 1.426 . S
C343 H402 0.980 . S
C344 C345 1.407 . S
C344 C349 1.418 . S
C344 O398 1.334 . S
C345 C344 1.407 . S
C345 C346 1.360 . S
C345 H406 0.929 . S
C346 C345 1.360 . S
C346 C347 1.401 . S
C346 C350 1.527 . S
C347 C346 1.401 . S
C347 C348 1.405 . S
C347 C380 1.587 . S
C348 C347 1.405 . S
C348 C349 1.332 . S
C348 C351 1.496 . S
C349 C344 1.418 . S
C349 C348 1.332 . S
C349 H407 0.929 . S
C350 C346 1.527 . S
C350 H408 0.959 . S
C350 H409 0.961 . S
C350 H410 0.961 . S
C351 C348 1.496 . S
C351 H411 0.960 . S
C351 H412 0.960 . S
C351 H413 0.961 . S
C352 C353 1.517 . S
C352 H415 0.961 . S
C352 H416 0.960 . S
C352 H417 0.959 . S
C353 C352 1.517 . S
C353 O401 1.468 . S
C353 H414 0.980 . S
C354 C355 1.349 . S
C354 C359 1.367 . S
C354 O401 1.408 . S
C355 C354 1.349 . S
C355 C356 1.407 . S
C355 H418 0.930 . S
C356 C355 1.407 . S
C356 C357 1.449 . S
C356 C360 1.535 . S
C357 C356 1.449 . S
C357 C358 1.384 . S
C357 C382 1.553 1_655 S
C358 C357 1.384 . S
C358 C359 1.364 . S
C358 C361 1.450 . S
C359 C354 1.367 . S
C359 C358 1.364 . S
C359 H419 0.931 . S
C360 C356 1.535 . S
C360 H420 0.959 1_655 S
C360 H421 0.961 1_655 S
C360 H422 0.959 . S
C361 C358 1.450 . S
C361 H423 0.960 . S
C361 H424 0.960 1_655 S
C361 H425 0.960 . S
C362 C363 1.309 . S
C362 C367 1.304 . S
C362 O400 1.435 . S
C363 C362 1.309 . S
C363 C364 1.476 . S
C363 H427 0.930 . S
C364 C363 1.476 . S
C364 C365 1.400 . S
C364 C368 1.567 . S
C365 C364 1.400 . S
C365 C366 1.373 . S
C365 C387 1.432 . S
C366 C365 1.373 . S
C366 C367 1.339 . S
C366 C369 1.530 . S
C367 C362 1.304 . S
C367 C366 1.339 . S
C367 H428 0.930 . S
C368 C364 1.567 . S
C368 H429 0.961 . S
C368 H430 0.960 . S
C368 H431 0.958 . S
C369 C366 1.530 . S
C369 H432 0.961 . S
C369 H433 0.960 . S
C369 H434 0.960 . S
C370 C371 1.530 . S
C370 H436 0.961 . S
C370 H437 0.961 . S
C370 H438 0.959 . S
C371 C370 1.530 . S
C371 O399 1.412 . S
C371 H435 0.980 . S
C372 C373 1.288 . S
C372 C377 1.377 . S
C372 O399 1.393 . S
C373 C372 1.288 . S
C373 C374 1.369 . S
C373 H439 0.932 . S
C374 C373 1.369 . S
C374 C375 1.398 . S
C374 C378 1.527 . S
C375 C374 1.398 . S
C375 C376 1.380 . S
C375 C389 1.497 . S
C376 C375 1.380 . S
C376 C377 1.383 . S
C376 C379 1.603 . S
C377 C372 1.377 . S
C377 C376 1.383 . S
C377 H440 0.929 . S
C378 C374 1.527 . S
C378 H441 0.961 . S
C378 H442 0.940 1_455 S
C378 H443 0.959 . S
C379 C376 1.603 . S
C379 H444 0.960 . S
C379 H445 0.962 . S
C379 H446 0.961 . S
C380 C347 1.587 . S
C380 C381 1.360 . S
C380 C393 1.412 . S
C381 C380 1.360 . S
C381 C382 1.365 . S
C381 H447 0.929 . S
C382 C357 1.553 1_455 S
C382 C381 1.365 . S
C382 C383 1.404 . S
C383 C382 1.404 . S
C383 C384 1.395 1_455 S
C383 C394 1.451 . S
C384 C383 1.395 1_655 S
C384 C385 1.322 . S
C384 H448 0.930 . S
C385 C384 1.322 . S
C385 C386 1.459 . S
C385 H449 0.929 . S
C386 C385 1.459 . S
C386 C387 1.445 . S
C386 C395 1.395 1_655 S
C387 C365 1.432 . S
C387 C386 1.445 . S
C387 C388 1.370 . S
C388 C387 1.370 . S
C388 C389 1.438 1_655 S
C388 H450 0.930 . S
C389 C375 1.497 . S
C389 C388 1.438 1_455 S
C389 C390 1.360 . S
C390 C389 1.360 . S
C390 C391 1.401 . S
C390 C395 1.446 . S
C391 C390 1.401 . S
C391 C392 1.347 . S
C391 H451 0.929 . S
C392 C391 1.347 . S
C392 C393 1.455 . S
C392 H452 0.930 . S
C393 C380 1.412 . S
C393 C392 1.455 . S
C393 C394 1.331 . S
C394 C383 1.451 . S
C394 C393 1.331 . S
C394 C395 1.497 . S
C395 C386 1.395 1_455 S
C395 C390 1.446 . S
C395 C394 1.497 . S
C396 C397 1.582 . S
C396 H453 0.962 . S
C396 H454 0.959 . S
C396 H455 0.958 . S
C397 C396 1.582 . S
C397 O400 1.458 . S
C397 H426 0.980 . S
O398 C343 1.426 . S
O398 C344 1.334 . S
O399 C371 1.412 . S
O399 C372 1.393 . S
O400 C362 1.435 . S
O400 C397 1.458 . S
O401 C353 1.468 . S
O401 C354 1.408 . S
H402 C343 0.980 . S
H403 C342 0.959 . S
H404 C342 0.959 . S
H405 C342 0.960 . S
H406 C345 0.929 . S
H407 C349 0.929 . S
H408 C350 0.959 . S
H409 C350 0.961 . S
H410 C350 0.961 . S
H411 C351 0.960 . S
H412 C351 0.960 . S
H413 C351 0.961 . S
H414 C353 0.980 . S
H415 C352 0.961 . S
H416 C352 0.960 . S
H417 C352 0.959 . S
H418 C355 0.930 . S
H419 C359 0.931 . S
H420 C360 0.959 1_455 S
H421 C360 0.961 1_455 S
H422 C360 0.959 . S
H423 C361 0.960 . S
H424 C361 0.960 1_455 S
H425 C361 0.960 . S
H426 C397 0.980 . S
H427 C363 0.930 . S
H428 C367 0.930 . S
H429 C368 0.961 . S
H430 C368 0.960 . S
H431 C368 0.958 . S
H432 C369 0.961 . S
H433 C369 0.960 . S
H434 C369 0.960 . S
H435 C371 0.980 . S
H436 C370 0.961 . S
H437 C370 0.961 . S
H438 C370 0.959 . S
H439 C373 0.932 . S
H440 C377 0.929 . S
H441 C378 0.961 . S
H442 C378 0.940 1_655 S
H443 C378 0.959 . S
H444 C379 0.960 . S
H445 C379 0.962 . S
H446 C379 0.961 . S
H447 C381 0.929 . S
H448 C384 0.930 . S
H449 C385 0.929 . S
H450 C388 0.930 . S
H451 C391 0.929 . S
H452 C392 0.930 . S
H453 C396 0.962 . S
H454 C396 0.959 . S
H455 C396 0.958 . S
C456 C457 1.560 . S
C456 H517 0.959 . S
C456 H518 0.959 . S
C456 H519 0.960 . S
C457 C456 1.560 . S
C457 O512 1.426 . S
C457 H516 0.980 . S
C458 C459 1.407 . S
C458 C463 1.418 . S
C458 O512 1.334 . S
C459 C458 1.407 . S
C459 C460 1.360 . S
C459 H520 0.929 . S
C460 C459 1.360 . S
C460 C461 1.401 . S
C460 C464 1.527 . S
C461 C460 1.401 . S
C461 C462 1.405 . S
C461 C494 1.587 . S
C462 C461 1.405 . S
C462 C463 1.332 . S
C462 C465 1.496 . S
C463 C458 1.418 . S
C463 C462 1.332 . S
C463 H521 0.929 . S
C464 C460 1.527 . S
C464 H522 0.959 . S
C464 H523 0.961 . S
C464 H524 0.961 . S
C465 C462 1.496 . S
C465 H525 0.960 . S
C465 H526 0.960 . S
C465 H527 0.961 . S
C466 C467 1.517 . S
C466 H529 0.961 . S
C466 H530 0.960 . S
C466 H531 0.959 . S
C467 C466 1.517 . S
C467 O515 1.468 . S
C467 H528 0.980 . S
C468 C469 1.349 . S
C468 C473 1.367 . S
C468 O515 1.408 . S
C469 C468 1.349 . S
C469 C470 1.407 . S
C469 H532 0.930 . S
C470 C469 1.407 . S
C470 C471 1.449 . S
C470 C474 1.535 . S
C471 C470 1.449 . S
C471 C472 1.384 . S
C471 C496 1.553 . S
C472 C471 1.384 . S
C472 C473 1.364 . S
C472 C475 1.450 . S
C473 C468 1.367 . S
C473 C472 1.364 . S
C473 H533 0.931 . S
C474 C470 1.535 . S
C474 H534 0.959 . S
C474 H535 0.961 . S
C474 H536 0.959 . S
C475 C472 1.450 . S
C475 H537 0.960 . S
C475 H538 0.960 . S
C475 H539 0.960 . S
C476 C477 1.309 . S
C476 C481 1.304 . S
C476 O514 1.435 . S
C477 C476 1.309 . S
C477 C478 1.476 . S
C477 H541 0.930 . S
C478 C477 1.476 . S
C478 C479 1.400 . S
C478 C482 1.567 . S
C479 C478 1.400 . S
C479 C480 1.373 . S
C479 C501 1.432 . S
C480 C479 1.373 . S
C480 C481 1.339 . S
C480 C483 1.530 . S
C481 C476 1.304 . S
C481 C480 1.339 . S
C481 H542 0.930 . S
C482 C478 1.567 . S
C482 H543 0.961 . S
C482 H544 0.960 . S
C482 H545 0.958 . S
C483 C480 1.530 . S
C483 H546 0.961 . S
C483 H547 0.960 . S
C483 H548 0.960 . S
C484 C485 1.530 . S
C484 H550 0.961 . S
C484 H551 0.961 . S
C484 H552 0.959 . S
C485 C484 1.530 . S
C485 O513 1.412 . S
C485 H549 0.980 . S
C486 C487 1.288 . S
C486 C491 1.377 . S
C486 O513 1.393 . S
C487 C486 1.288 . S
C487 C488 1.369 1_565 S
C487 H553 0.932 . S
C488 C487 1.369 1_545 S
C488 C489 1.398 . S
C488 C492 1.527 . S
C489 C488 1.398 . S
C489 C490 1.380 1_545 S
C489 C503 1.497 . S
C490 C489 1.380 1_565 S
C490 C491 1.383 . S
C490 C493 1.603 . S
C491 C486 1.377 . S
C491 C490 1.383 . S
C491 H554 0.929 . S
C492 C488 1.527 . S
C492 H555 0.961 . S
C492 H556 0.959 . S
C492 H557 0.959 . S
C493 C490 1.603 . S
C493 H558 0.960 . S
C493 H559 0.962 1_565 S
C493 H560 0.961 . S
C494 C461 1.587 . S
C494 C495 1.360 . S
C494 C507 1.412 . S
C495 C494 1.360 . S
C495 C496 1.365 1_565 S
C495 H561 0.929 . S
C496 C471 1.553 . S
C496 C495 1.365 1_545 S
C496 C497 1.404 . S
C497 C496 1.404 . S
C497 C498 1.395 . S
C497 C508 1.451 . S
C498 C497 1.395 . S
C498 C499 1.322 . S
C498 H562 0.930 . S
C499 C498 1.322 . S
C499 C500 1.459 . S
C499 H563 0.929 . S
C500 C499 1.459 . S
C500 C501 1.445 1_556 S
C500 C509 1.395 . S
C501 C479 1.432 . S
C501 C500 1.445 1_554 S
C501 C502 1.370 . S
C502 C501 1.370 . S
C502 C503 1.438 . S
C502 H564 0.930 . S
C503 C489 1.497 . S
C503 C502 1.438 . S
C503 C504 1.360 . S
C504 C503 1.360 . S
C504 C505 1.401 1_545 S
C504 C509 1.446 1_554 S
C505 C504 1.401 1_565 S
C505 C506 1.347 1_554 S
C505 H565 0.929 . S
C506 C505 1.347 1_556 S
C506 C507 1.455 . S
C506 H566 0.930 . S
C507 C494 1.412 . S
C507 C506 1.455 . S
C507 C508 1.331 1_565 S
C508 C497 1.451 . S
C508 C507 1.331 1_545 S
C508 C509 1.497 . S
C509 C500 1.395 . S
C509 C504 1.446 1_556 S
C509 C508 1.497 . S
C510 C511 1.582 . S
C510 H567 0.962 . S
C510 H568 0.959 . S
C510 H569 0.958 . S
C511 C510 1.582 . S
C511 O514 1.458 . S
C511 H540 0.980 . S
O512 C457 1.426 . S
O512 C458 1.334 . S
O513 C485 1.412 . S
O513 C486 1.393 . S
O514 C476 1.435 . S
O514 C511 1.458 . S
O515 C467 1.468 . S
O515 C468 1.408 . S
H516 C457 0.980 . S
H517 C456 0.959 . S
H518 C456 0.959 . S
H519 C456 0.960 . S
H520 C459 0.929 . S
H521 C463 0.929 . S
H522 C464 0.959 . S
H523 C464 0.961 . S
H524 C464 0.961 . S
H525 C465 0.960 . S
H526 C465 0.960 . S
H527 C465 0.961 . S
H528 C467 0.980 . S
H529 C466 0.961 . S
H530 C466 0.960 . S
H531 C466 0.959 . S
H532 C469 0.930 . S
H533 C473 0.931 . S
H534 C474 0.959 . S
H535 C474 0.961 . S
H536 C474 0.959 . S
H537 C475 0.960 . S
H538 C475 0.960 . S
H539 C475 0.960 . S
H540 C511 0.980 . S
H541 C477 0.930 . S
H542 C481 0.930 . S
H543 C482 0.961 . S
H544 C482 0.960 . S
H545 C482 0.958 . S
H546 C483 0.961 . S
H547 C483 0.960 . S
H548 C483 0.960 . S
H549 C485 0.980 . S
H550 C484 0.961 . S
H551 C484 0.961 . S
H552 C484 0.959 . S
H553 C487 0.932 . S
H554 C491 0.929 . S
H555 C492 0.961 . S
H556 C492 0.959 . S
H557 C492 0.959 . S
H558 C493 0.960 . S
H559 C493 0.962 1_545 S
H560 C493 0.961 . S
H561 C495 0.929 . S
H562 C498 0.930 . S
H563 C499 0.929 . S
H564 C502 0.930 . S
H565 C505 0.929 . S
H566 C506 0.930 . S
H567 C510 0.962 . S
H568 C510 0.959 . S
H569 C510 0.958 . S
C570 C571 1.560 . S
C570 H631 0.959 . S
C570 H632 0.959 . S
C570 H633 0.960 . S
C571 C570 1.560 . S
C571 O626 1.426 . S
C571 H630 0.980 . S
C572 C573 1.407 . S
C572 C577 1.418 . S
C572 O626 1.334 . S
C573 C572 1.407 . S
C573 C574 1.360 . S
C573 H634 0.929 . S
C574 C573 1.360 . S
C574 C575 1.401 . S
C574 C578 1.527 . S
C575 C574 1.401 . S
C575 C576 1.405 . S
C575 C608 1.587 . S
C576 C575 1.405 . S
C576 C577 1.332 . S
C576 C579 1.496 . S
C577 C572 1.418 . S
C577 C576 1.332 . S
C577 H635 0.929 . S
C578 C574 1.527 . S
C578 H636 0.959 . S
C578 H637 0.961 . S
C578 H638 0.961 . S
C579 C576 1.496 . S
C579 H639 0.960 . S
C579 H640 0.960 . S
C579 H641 0.961 . S
C580 C581 1.517 . S
C580 H643 0.961 . S
C580 H644 0.960 . S
C580 H645 0.959 . S
C581 C580 1.517 . S
C581 O629 1.468 . S
C581 H642 0.980 . S
C582 C583 1.349 . S
C582 C587 1.367 . S
C582 O629 1.408 . S
C583 C582 1.349 . S
C583 C584 1.407 . S
C583 H646 0.930 . S
C584 C583 1.407 . S
C584 C585 1.449 . S
C584 C588 1.535 . S
C585 C584 1.449 . S
C585 C586 1.384 . S
C585 C610 1.553 . S
C586 C585 1.384 . S
C586 C587 1.364 . S
C586 C589 1.450 . S
C587 C582 1.367 . S
C587 C586 1.364 . S
C587 H647 0.931 . S
C588 C584 1.535 . S
C588 H648 0.959 . S
C588 H649 0.961 . S
C588 H650 0.959 . S
C589 C586 1.450 . S
C589 H651 0.960 . S
C589 H652 0.960 . S
C589 H653 0.960 . S
C590 C591 1.309 . S
C590 C595 1.304 . S
C590 O628 1.435 . S
C591 C590 1.309 . S
C591 C592 1.476 . S
C591 H655 0.930 . S
C592 C591 1.476 . S
C592 C593 1.400 . S
C592 C596 1.567 . S
C593 C592 1.400 . S
C593 C594 1.373 . S
C593 C615 1.432 . S
C594 C593 1.373 . S
C594 C595 1.339 . S
C594 C597 1.530 . S
C595 C590 1.304 . S
C595 C594 1.339 . S
C595 H656 0.930 . S
C596 C592 1.567 . S
C596 H657 0.961 . S
C596 H658 0.960 . S
C596 H659 0.958 . S
C597 C594 1.530 . S
C597 H660 0.961 . S
C597 H661 0.960 . S
C597 H662 0.960 . S
C598 C599 1.530 . S
C598 H664 0.961 . S
C598 H665 0.961 . S
C598 H666 0.959 . S
C599 C598 1.530 . S
C599 O627 1.412 . S
C599 H663 0.980 . S
C600 C601 1.288 . S
C600 C605 1.377 . S
C600 O627 1.393 . S
C601 C600 1.288 . S
C601 C602 1.369 . S
C601 H667 0.932 . S
C602 C601 1.369 . S
C602 C603 1.398 . S
C602 C606 1.527 . S
C603 C602 1.398 . S
C603 C604 1.380 . S
C603 C617 1.497 . S
C604 C603 1.380 . S
C604 C605 1.383 . S
C604 C607 1.603 . S
C605 C600 1.377 . S
C605 C604 1.383 . S
C605 H668 0.929 . S
C606 C602 1.527 . S
C606 H669 0.961 . S
C606 H670 0.959 . S
C606 H671 0.959 . S
C607 C604 1.603 . S
C607 H672 0.960 . S
C607 H673 0.962 . S
C607 H674 0.961 . S
C608 C575 1.587 . S
C608 C609 1.360 . S
C608 C621 1.412 . S
C609 C608 1.360 . S
C609 C610 1.365 . S
C609 H675 0.929 . S
C610 C585 1.553 . S
C610 C609 1.365 . S
C610 C611 1.404 . S
C611 C610 1.404 . S
C611 C612 1.395 . S
C611 C622 1.451 . S
C612 C611 1.395 . S
C612 C613 1.322 . S
C612 H676 0.930 . S
C613 C612 1.322 . S
C613 C614 1.459 . S
C613 H677 0.929 . S
C614 C613 1.459 . S
C614 C615 1.445 . S
C614 C623 1.395 . S
C615 C593 1.432 . S
C615 C614 1.445 . S
C615 C616 1.370 . S
C616 C615 1.370 . S
C616 C617 1.438 . S
C616 H678 0.930 . S
C617 C603 1.497 . S
C617 C616 1.438 . S
C617 C618 1.360 . S
C618 C617 1.360 . S
C618 C619 1.401 . S
C618 C623 1.446 . S
C619 C618 1.401 . S
C619 C620 1.347 . S
C619 H679 0.929 . S
C620 C619 1.347 . S
C620 C621 1.455 . S
C620 H680 0.930 . S
C621 C608 1.412 . S
C621 C620 1.455 . S
C621 C622 1.331 . S
C622 C611 1.451 . S
C622 C621 1.331 . S
C622 C623 1.497 . S
C623 C614 1.395 . S
C623 C618 1.446 . S
C623 C622 1.497 . S
C624 C625 1.582 . S
C624 H681 0.962 . S
C624 H682 0.959 . S
C624 H683 0.958 . S
C625 C624 1.582 . S
C625 O628 1.458 . S
C625 H654 0.980 . S
O626 C571 1.426 . S
O626 C572 1.334 . S
O627 C599 1.412 . S
O627 C600 1.393 . S
O628 C590 1.435 . S
O628 C625 1.458 . S
O629 C581 1.468 . S
O629 C582 1.408 . S
H630 C571 0.980 . S
H631 C570 0.959 . S
H632 C570 0.959 . S
H633 C570 0.960 . S
H634 C573 0.929 . S
H635 C577 0.929 . S
H636 C578 0.959 . S
H637 C578 0.961 . S
H638 C578 0.961 . S
H639 C579 0.960 . S
H640 C579 0.960 . S
H641 C579 0.961 . S
H642 C581 0.980 . S
H643 C580 0.961 . S
H644 C580 0.960 . S
H645 C580 0.959 . S
H646 C583 0.930 . S
H647 C587 0.931 . S
H648 C588 0.959 . S
H649 C588 0.961 . S
H650 C588 0.959 . S
H651 C589 0.960 . S
H652 C589 0.960 . S
H653 C589 0.960 . S
H654 C625 0.980 . S
H655 C591 0.930 . S
H656 C595 0.930 . S
H657 C596 0.961 . S
H658 C596 0.960 . S
H659 C596 0.958 . S
H660 C597 0.961 . S
H661 C597 0.960 . S
H662 C597 0.960 . S
H663 C599 0.980 . S
H664 C598 0.961 . S
H665 C598 0.961 . S
H666 C598 0.959 . S
H667 C601 0.932 . S
H668 C605 0.929 . S
H669 C606 0.961 . S
H670 C606 0.959 . S
H671 C606 0.959 . S
H672 C607 0.960 . S
H673 C607 0.962 . S
H674 C607 0.961 . S
H675 C609 0.929 . S
H676 C612 0.930 . S
H677 C613 0.929 . S
H678 C616 0.930 . S
H679 C619 0.929 . S
H680 C620 0.930 . S
H681 C624 0.962 . S
H682 C624 0.959 . S
H683 C624 0.958 . S
Mg684 O685 2.028 . S
Mg684 O691 1.986 . S
Mg684 O693 2.114 . S
Mg684 O694 2.251 . S
Mg684 O697 2.010 . S
O685 Mg684 2.028 . S
O685 C688 1.250 . S
O686 Mg687 2.028 . S
O686 C688 1.248 . S
Mg687 O686 2.028 . S
Mg687 O692 2.032 . S
Mg687 O694 2.079 . S
C688 O685 1.250 . S
C688 O686 1.248 . S
C689 O690 1.264 . S
C689 O697 1.249 . S
O690 C689 1.264 . S
O691 Mg684 1.986 . S
O691 C695 1.246 . S
O692 Mg687 2.032 . S
O692 C695 1.259 . S
O693 Mg684 2.114 . S
O693 C696 1.252 . S
O694 Mg684 2.251 . S
O694 Mg687 2.079 . S
O694 C696 1.273 . S
C695 O691 1.246 . S
C695 O692 1.259 . S
C696 O693 1.252 . S
C696 O694 1.273 . S
O697 Mg684 2.010 . S
O697 C689 1.249 . S
Mg698 O699 2.028 . S
Mg698 O705 1.986 . S
Mg698 O707 2.114 . S
Mg698 O708 2.251 . S
Mg698 O711 2.010 . S
O699 Mg698 2.028 . S
O699 C702 1.250 . S
O700 Mg701 2.028 . S
O700 C702 1.248 . S
Mg701 O700 2.028 . S
Mg701 O706 2.032 . S
Mg701 O708 2.079 . S
C702 O699 1.250 . S
C702 O700 1.248 . S
C703 O704 1.264 . S
C703 O711 1.249 . S
O704 C703 1.264 . S
O705 Mg698 1.986 . S
O705 C709 1.246 . S
O706 Mg701 2.032 . S
O706 C709 1.259 . S
O707 Mg698 2.114 . S
O707 C710 1.252 . S
O708 Mg698 2.251 . S
O708 Mg701 2.079 . S
O708 C710 1.273 . S
C709 O705 1.246 . S
C709 O706 1.259 . S
C710 O707 1.252 . S
C710 O708 1.273 . S
O711 Mg698 2.010 . S
O711 C703 1.249 . S
Mg712 O713 2.028 . S
Mg712 O719 1.986 . S
Mg712 O721 2.114 . S
Mg712 O722 2.251 . S
Mg712 O725 2.010 . S
O713 Mg712 2.028 . S
O713 C716 1.250 . S
O714 Mg715 2.028 . S
O714 C716 1.248 . S
Mg715 O714 2.028 . S
Mg715 O720 2.032 . S
Mg715 O722 2.079 . S
C716 O713 1.250 . S
C716 O714 1.248 . S
C717 O718 1.264 . S
C717 O725 1.249 . S
O718 C717 1.264 . S
O719 Mg712 1.986 . S
O719 C723 1.246 . S
O720 Mg715 2.032 . S
O720 C723 1.259 . S
O721 Mg712 2.114 . S
O721 C724 1.252 . S
O722 Mg712 2.251 . S
O722 Mg715 2.079 . S
O722 C724 1.273 . S
C723 O719 1.246 . S
C723 O720 1.259 . S
C724 O721 1.252 . S
C724 O722 1.273 . S
O725 Mg712 2.010 . S
O725 C717 1.249 . S
Mg726 O727 2.028 . S
Mg726 O733 1.986 . S
Mg726 O735 2.114 . S
Mg726 O736 2.251 . S
Mg726 O739 2.010 . S
O727 Mg726 2.028 . S
O727 C730 1.250 . S
O728 Mg729 2.028 . S
O728 C730 1.248 . S
Mg729 O728 2.028 . S
Mg729 O734 2.032 . S
Mg729 O736 2.079 . S
C730 O727 1.250 . S
C730 O728 1.248 . S
C731 O732 1.264 . S
C731 O739 1.249 . S
O732 C731 1.264 . S
O733 Mg726 1.986 . S
O733 C737 1.246 . S
O734 Mg729 2.032 . S
O734 C737 1.259 . S
O735 Mg726 2.114 . S
O735 C738 1.252 . S
O736 Mg726 2.251 . S
O736 Mg729 2.079 . S
O736 C738 1.273 . S
C737 O733 1.246 . S
C737 O734 1.259 . S
C738 O735 1.252 . S
C738 O736 1.273 . S
O739 Mg726 2.010 . S
O739 C731 1.249 . S
Mg740 O741 2.028 . S
Mg740 O747 1.986 . S
Mg740 O749 2.114 . S
Mg740 O750 2.251 . S
Mg740 O753 2.010 . S
O741 Mg740 2.028 . S
O741 C744 1.250 . S
O742 Mg743 2.028 . S
O742 C744 1.248 . S
Mg743 O742 2.028 . S
Mg743 O748 2.032 . S
Mg743 O750 2.079 . S
C744 O741 1.250 . S
C744 O742 1.248 . S
C745 O746 1.264 . S
C745 O753 1.249 . S
O746 C745 1.264 . S
O747 Mg740 1.986 . S
O747 C751 1.246 . S
O748 Mg743 2.032 . S
O748 C751 1.259 . S
O749 Mg740 2.114 . S
O749 C752 1.252 . S
O750 Mg740 2.251 . S
O750 Mg743 2.079 . S
O750 C752 1.273 . S
C751 O747 1.246 . S
C751 O748 1.259 . S
C752 O749 1.252 . S
C752 O750 1.273 . S
O753 Mg740 2.010 . S
O753 C745 1.249 . S
Mg754 O755 2.028 . S
Mg754 O761 1.986 . S
Mg754 O763 2.114 . S
Mg754 O764 2.251 . S
Mg754 O767 2.010 . S
O755 Mg754 2.028 . S
O755 C758 1.250 . S
O756 Mg757 2.028 . S
O756 C758 1.248 . S
Mg757 O756 2.028 . S
Mg757 O762 2.032 . S
Mg757 O764 2.079 . S
C758 O755 1.250 . S
C758 O756 1.248 . S
C759 O760 1.264 . S
C759 O767 1.249 . S
O760 C759 1.264 . S
O761 Mg754 1.986 . S
O761 C765 1.246 . S
O762 Mg757 2.032 . S
O762 C765 1.259 . S
O763 Mg754 2.114 . S
O763 C766 1.252 . S
O764 Mg754 2.251 . S
O764 Mg757 2.079 . S
O764 C766 1.273 . S
C765 O761 1.246 . S
C765 O762 1.259 . S
C766 O763 1.252 . S
C766 O764 1.273 . S
O767 Mg754 2.010 . S
O767 C759 1.249 . S
H768 C776 0.929 . S
H769 C778 0.930 . S
H770 C780 0.930 . S
H771 C783 0.929 . S
H772 C786 0.930 . S
H773 C788 0.960 . S
H774 C788 0.960 . S
H775 C788 0.960 . S
C776 H768 0.929 . S
C776 C777 1.377 . S
C776 C778 1.384 . S
C777 C776 1.377 . S
C777 C783 1.390 . S
C778 H769 0.930 . S
C778 C776 1.384 . S
C778 C779 1.372 . S
C779 C778 1.372 . S
C779 C780 1.400 . S
C779 C784 1.490 . S
C780 H770 0.930 . S
C780 C779 1.400 . S
C780 C783 1.386 . S
H781 C797 0.930 . S
H782 C798 0.931 . S
C783 H771 0.929 . S
C783 C777 1.390 . S
C783 C780 1.386 . S
C784 C779 1.490 . S
C784 C786 1.395 . S
C784 C787 1.403 . S
H785 C791 0.930 . S
C786 H772 0.930 . S
C786 C784 1.395 . S
C786 C789 1.403 . S
C787 C784 1.403 . S
C787 C788 1.524 . S
C787 C791 1.400 . S
C788 H773 0.960 . S
C788 H774 0.960 . S
C788 H775 0.960 . S
C788 C787 1.524 . S
C789 C786 1.403 . S
C789 C790 1.392 . S
C789 C793 1.495 . S
C790 C789 1.392 . S
C790 C791 1.385 . S
C790 C792 1.478 . S
C791 H785 0.930 . S
C791 C787 1.400 . S
C791 C790 1.385 . S
C792 C790 1.478 . S
C792 C794 1.381 . S
C792 C798 1.383 . S
C793 C789 1.495 . S
C793 H799 0.959 . S
C793 H800 0.961 . S
C793 H801 0.960 . S
C794 C792 1.381 . S
C794 C795 1.394 . S
C794 H802 0.930 . S
C795 C794 1.394 . S
C795 C796 1.383 . S
C795 H803 0.929 . S
C796 C795 1.383 . S
C796 C797 1.377 . S
C797 H781 0.930 . S
C797 C796 1.377 . S
C797 C798 1.379 . S
C798 H782 0.931 . S
C798 C792 1.383 . S
C798 C797 1.379 . S
H799 C793 0.959 . S
H800 C793 0.961 . S
H801 C793 0.960 . S
H802 C794 0.930 . S
H803 C795 0.929 . S
H804 C812 0.929 . S
H805 C814 0.930 . S
H806 C816 0.930 . S
H807 C819 0.929 . S
H808 C822 0.930 . S
H809 C824 0.960 . S
H810 C824 0.960 . S
H811 C824 0.960 . S
C812 H804 0.929 . S
C812 C813 1.377 . S
C812 C814 1.384 . S
C813 C812 1.377 . S
C813 C819 1.390 . S
C814 H805 0.930 . S
C814 C812 1.384 . S
C814 C815 1.372 . S
C815 C814 1.372 . S
C815 C816 1.400 . S
C815 C820 1.490 . S
C816 H806 0.930 . S
C816 C815 1.400 . S
C816 C819 1.386 . S
H817 C833 0.930 . S
H818 C834 0.931 . S
C819 H807 0.929 . S
C819 C813 1.390 . S
C819 C816 1.386 . S
C820 C815 1.490 . S
C820 C822 1.395 . S
C820 C823 1.403 . S
H821 C827 0.930 . S
C822 H808 0.930 . S
C822 C820 1.395 . S
C822 C825 1.403 . S
C823 C820 1.403 . S
C823 C824 1.524 . S
C823 C827 1.400 . S
C824 H809 0.960 . S
C824 H810 0.960 . S
C824 H811 0.960 . S
C824 C823 1.524 . S
C825 C822 1.403 . S
C825 C826 1.392 . S
C825 C829 1.495 . S
C826 C825 1.392 . S
C826 C827 1.385 . S
C826 C828 1.478 . S
C827 H821 0.930 . S
C827 C823 1.400 . S
C827 C826 1.385 . S
C828 C826 1.478 . S
C828 C830 1.381 . S
C828 C834 1.383 . S
C829 C825 1.495 . S
C829 H835 0.959 . S
C829 H836 0.961 . S
C829 H837 0.960 . S
C830 C828 1.381 . S
C830 C831 1.394 . S
C830 H838 0.930 . S
C831 C830 1.394 . S
C831 C832 1.383 . S
C831 H839 0.929 . S
C832 C831 1.383 . S
C832 C833 1.377 . S
C833 H817 0.930 . S
C833 C832 1.377 . S
C833 C834 1.379 . S
C834 H818 0.931 . S
C834 C828 1.383 . S
C834 C833 1.379 . S
H835 C829 0.959 . S
H836 C829 0.961 . S
H837 C829 0.960 . S
H838 C830 0.930 . S
H839 C831 0.929 . S
H840 C848 0.929 . S
H841 C850 0.930 . S
H842 C852 0.930 . S
H843 C855 0.929 . S
H844 C858 0.930 . S
H845 C860 0.960 . S
H846 C860 0.960 . S
H847 C860 0.960 . S
C848 H840 0.929 . S
C848 C849 1.377 . S
C848 C850 1.384 . S
C849 C848 1.377 . S
C849 C855 1.390 . S
C850 H841 0.930 . S
C850 C848 1.384 . S
C850 C851 1.372 . S
C851 C850 1.372 . S
C851 C852 1.400 . S
C851 C856 1.490 . S
C852 H842 0.930 . S
C852 C851 1.400 . S
C852 C855 1.386 . S
H853 C869 0.930 . S
H854 C870 0.931 . S
C855 H843 0.929 . S
C855 C849 1.390 . S
C855 C852 1.386 . S
C856 C851 1.490 . S
C856 C858 1.395 . S
C856 C859 1.403 . S
H857 C863 0.930 . S
C858 H844 0.930 . S
C858 C856 1.395 . S
C858 C861 1.403 . S
C859 C856 1.403 . S
C859 C860 1.524 . S
C859 C863 1.400 . S
C860 H845 0.960 . S
C860 H846 0.960 . S
C860 H847 0.960 . S
C860 C859 1.524 . S
C861 C858 1.403 . S
C861 C862 1.392 . S
C861 C865 1.495 . S
C862 C861 1.392 . S
C862 C863 1.385 . S
C862 C864 1.478 . S
C863 H857 0.930 . S
C863 C859 1.400 . S
C863 C862 1.385 . S
C864 C862 1.478 . S
C864 C866 1.381 . S
C864 C870 1.383 . S
C865 C861 1.495 . S
C865 H871 0.959 . S
C865 H872 0.961 . S
C865 H873 0.960 . S
C866 C864 1.381 . S
C866 C867 1.394 . S
C866 H874 0.930 . S
C867 C866 1.394 . S
C867 C868 1.383 . S
C867 H875 0.929 . S
C868 C867 1.383 . S
C868 C869 1.377 . S
C869 H853 0.930 . S
C869 C868 1.377 . S
C869 C870 1.379 . S
C870 H854 0.931 . S
C870 C864 1.383 . S
C870 C869 1.379 . S
H871 C865 0.959 . S
H872 C865 0.961 . S
H873 C865 0.960 . S
H874 C866 0.930 . S
H875 C867 0.929 . S
H876 C884 0.929 . S
H877 C886 0.930 . S
H878 C888 0.930 . S
H879 C891 0.929 . S
H880 C894 0.930 . S
H881 C896 0.960 . S
H882 C896 0.960 . S
H883 C896 0.960 . S
C884 H876 0.929 . S
C884 C885 1.377 . S
C884 C886 1.384 . S
C885 C884 1.377 . S
C885 C891 1.390 . S
C886 H877 0.930 . S
C886 C884 1.384 . S
C886 C887 1.372 . S
C887 C886 1.372 . S
C887 C888 1.400 . S
C887 C892 1.490 . S
C888 H878 0.930 . S
C888 C887 1.400 . S
C888 C891 1.386 . S
H889 C905 0.930 . S
H890 C906 0.931 . S
C891 H879 0.929 . S
C891 C885 1.390 . S
C891 C888 1.386 . S
C892 C887 1.490 . S
C892 C894 1.395 . S
C892 C895 1.403 . S
H893 C899 0.930 . S
C894 H880 0.930 . S
C894 C892 1.395 . S
C894 C897 1.403 . S
C895 C892 1.403 . S
C895 C896 1.524 . S
C895 C899 1.400 . S
C896 H881 0.960 . S
C896 H882 0.960 . S
C896 H883 0.960 . S
C896 C895 1.524 . S
C897 C894 1.403 . S
C897 C898 1.392 . S
C897 C901 1.495 . S
C898 C897 1.392 . S
C898 C899 1.385 . S
C898 C900 1.478 . S
C899 H893 0.930 . S
C899 C895 1.400 . S
C899 C898 1.385 . S
C900 C898 1.478 . S
C900 C902 1.381 . S
C900 C906 1.383 . S
C901 C897 1.495 . S
C901 H907 0.959 . S
C901 H908 0.961 . S
C901 H909 0.960 . S
C902 C900 1.381 . S
C902 C903 1.394 . S
C902 H910 0.930 . S
C903 C902 1.394 . S
C903 C904 1.383 . S
C903 H911 0.929 . S
C904 C903 1.383 . S
C904 C905 1.377 . S
C905 H889 0.930 . S
C905 C904 1.377 . S
C905 C906 1.379 . S
C906 H890 0.931 . S
C906 C900 1.383 . S
C906 C905 1.379 . S
H907 C901 0.959 . S
H908 C901 0.961 . S
H909 C901 0.960 . S
H910 C902 0.930 . S
H911 C903 0.929 . S
H912 C920 0.929 . S
H913 C922 0.930 . S
H914 C924 0.930 . S
H915 C927 0.929 . S
H916 C930 0.930 . S
H917 C932 0.960 . S
H918 C932 0.960 . S
H919 C932 0.960 . S
C920 H912 0.929 . S
C920 C921 1.377 . S
C920 C922 1.384 . S
C921 C920 1.377 . S
C921 C927 1.390 . S
C922 H913 0.930 . S
C922 C920 1.384 . S
C922 C923 1.372 . S
C923 C922 1.372 . S
C923 C924 1.400 . S
C923 C928 1.490 . S
C924 H914 0.930 . S
C924 C923 1.400 . S
C924 C927 1.386 . S
H925 C941 0.930 . S
H926 C942 0.931 . S
C927 H915 0.929 . S
C927 C921 1.390 . S
C927 C924 1.386 . S
C928 C923 1.490 . S
C928 C930 1.395 . S
C928 C931 1.403 . S
H929 C935 0.930 . S
C930 H916 0.930 . S
C930 C928 1.395 . S
C930 C933 1.403 . S
C931 C928 1.403 . S
C931 C932 1.524 . S
C931 C935 1.400 . S
C932 H917 0.960 . S
C932 H918 0.960 . S
C932 H919 0.960 . S
C932 C931 1.524 . S
C933 C930 1.403 . S
C933 C934 1.392 . S
C933 C937 1.495 . S
C934 C933 1.392 . S
C934 C935 1.385 . S
C934 C936 1.478 . S
C935 H929 0.930 . S
C935 C931 1.400 . S
C935 C934 1.385 . S
C936 C934 1.478 . S
C936 C938 1.381 . S
C936 C942 1.383 . S
C937 C933 1.495 . S
C937 H943 0.959 . S
C937 H944 0.961 . S
C937 H945 0.960 . S
C938 C936 1.381 . S
C938 C939 1.394 . S
C938 H946 0.930 . S
C939 C938 1.394 . S
C939 C940 1.383 . S
C939 H947 0.929 . S
C940 C939 1.383 . S
C940 C941 1.377 . S
C941 H925 0.930 . S
C941 C940 1.377 . S
C941 C942 1.379 . S
C942 H926 0.931 . S
C942 C936 1.383 . S
C942 C941 1.379 . S
H943 C937 0.959 . S
H944 C937 0.961 . S
H945 C937 0.960 . S
H946 C938 0.930 . S
H947 C939 0.929 . S
H948 C956 0.929 . S
H949 C958 0.930 . S
H950 C960 0.930 . S
H951 C963 0.929 . S
H952 C966 0.930 . S
H953 C968 0.960 . S
H954 C968 0.960 . S
H955 C968 0.960 . S
C956 H948 0.929 . S
C956 C957 1.377 . S
C956 C958 1.384 . S
C957 C956 1.377 . S
C957 C963 1.390 . S
C958 H949 0.930 . S
C958 C956 1.384 . S
C958 C959 1.372 . S
C959 C958 1.372 . S
C959 C960 1.400 . S
C959 C964 1.490 . S
C960 H950 0.930 . S
C960 C959 1.400 . S
C960 C963 1.386 . S
H961 C977 0.930 . S
H962 C978 0.931 . S
C963 H951 0.929 . S
C963 C957 1.390 . S
C963 C960 1.386 . S
C964 C959 1.490 . S
C964 C966 1.395 . S
C964 C967 1.403 . S
H965 C971 0.930 . S
C966 H952 0.930 . S
C966 C964 1.395 . S
C966 C969 1.403 . S
C967 C964 1.403 . S
C967 C968 1.524 . S
C967 C971 1.400 . S
C968 H953 0.960 . S
C968 H954 0.960 . S
C968 H955 0.960 . S
C968 C967 1.524 . S
C969 C966 1.403 . S
C969 C970 1.392 . S
C969 C973 1.495 . S
C970 C969 1.392 . S
C970 C971 1.385 . S
C970 C972 1.478 . S
C971 H965 0.930 . S
C971 C967 1.400 . S
C971 C970 1.385 . S
C972 C970 1.478 . S
C972 C974 1.381 . S
C972 C978 1.383 . S
C973 C969 1.495 . S
C973 H979 0.959 . S
C973 H980 0.961 . S
C973 H981 0.960 . S
C974 C972 1.381 . S
C974 C975 1.394 . S
C974 H982 0.930 . S
C975 C974 1.394 . S
C975 C976 1.383 . S
C975 H983 0.929 . S
C976 C975 1.383 . S
C976 C977 1.377 . S
C977 H961 0.930 . S
C977 C976 1.377 . S
C977 C978 1.379 . S
C978 H962 0.931 . S
C978 C972 1.383 . S
C978 C977 1.379 . S
H979 C973 0.959 . S
H980 C973 0.961 . S
H981 C973 0.960 . S
H982 C974 0.930 . S
H983 C975 0.929 . S
H984 C992 0.929 . S
H985 C994 0.930 . S
H986 C996 0.930 . S
H987 C999 0.929 . S
H988 C1002 0.930 . S
H989 C1004 0.960 . S
H990 C1004 0.960 . S
H991 C1004 0.960 . S
C992 H984 0.929 . S
C992 C993 1.377 . S
C992 C994 1.384 . S
C993 C992 1.377 . S
C993 C999 1.390 . S
C994 H985 0.930 . S
C994 C992 1.384 . S
C994 C995 1.372 . S
C995 C994 1.372 . S
C995 C996 1.400 . S
C995 C1000 1.490 . S
C996 H986 0.930 . S
C996 C995 1.400 . S
C996 C999 1.386 . S
H997 C1013 0.930 . S
H998 C1014 0.931 . S
C999 H987 0.929 . S
C999 C993 1.390 . S
C999 C996 1.386 . S
C1000 C995 1.490 . S
C1000 C1002 1.395 . S
C1000 C1003 1.403 . S
H1001 C1007 0.930 . S
C1002 H988 0.930 . S
C1002 C1000 1.395 . S
C1002 C1005 1.403 . S
C1003 C1000 1.403 . S
C1003 C1004 1.524 . S
C1003 C1007 1.400 . S
C1004 H989 0.960 . S
C1004 H990 0.960 . S
C1004 H991 0.960 . S
C1004 C1003 1.524 . S
C1005 C1002 1.403 . S
C1005 C1006 1.392 . S
C1005 C1009 1.495 . S
C1006 C1005 1.392 . S
C1006 C1007 1.385 . S
C1006 C1008 1.478 . S
C1007 H1001 0.930 . S
C1007 C1003 1.400 . S
C1007 C1006 1.385 . S
C1008 C1006 1.478 . S
C1008 C1010 1.381 . S
C1008 C1014 1.383 . S
C1009 C1005 1.495 . S
C1009 H1015 0.959 . S
C1009 H1016 0.961 . S
C1009 H1017 0.960 . S
C1010 C1008 1.381 . S
C1010 C1011 1.394 . S
C1010 H1018 0.930 . S
C1011 C1010 1.394 . S
C1011 C1012 1.383 . S
C1011 H1019 0.929 . S
C1012 C1011 1.383 . S
C1012 C1013 1.377 . S
C1013 H997 0.930 . S
C1013 C1012 1.377 . S
C1013 C1014 1.379 . S
C1014 H998 0.931 . S
C1014 C1008 1.383 . S
C1014 C1013 1.379 . S
H1015 C1009 0.959 . S
H1016 C1009 0.961 . S
H1017 C1009 0.960 . S
H1018 C1010 0.930 . S
H1019 C1011 0.929 . S
H1020 C1028 0.929 . S
H1021 C1030 0.930 . S
H1022 C1032 0.930 . S
H1023 C1035 0.929 . S
H1024 C1038 0.930 . S
H1025 C1040 0.960 . S
H1026 C1040 0.960 . S
H1027 C1040 0.960 . S
C1028 H1020 0.929 . S
C1028 C1029 1.377 . S
C1028 C1030 1.384 . S
C1029 C1028 1.377 . S
C1029 C1035 1.390 . S
C1030 H1021 0.930 . S
C1030 C1028 1.384 . S
C1030 C1031 1.372 . S
C1031 C1030 1.372 . S
C1031 C1032 1.400 . S
C1031 C1036 1.490 . S
C1032 H1022 0.930 . S
C1032 C1031 1.400 . S
C1032 C1035 1.386 . S
H1033 C1049 0.930 . S
H1034 C1050 0.931 . S
C1035 H1023 0.929 . S
C1035 C1029 1.390 . S
C1035 C1032 1.386 . S
C1036 C1031 1.490 . S
C1036 C1038 1.395 . S
C1036 C1039 1.403 . S
H1037 C1043 0.930 . S
C1038 H1024 0.930 . S
C1038 C1036 1.395 . S
C1038 C1041 1.403 . S
C1039 C1036 1.403 . S
C1039 C1040 1.524 . S
C1039 C1043 1.400 . S
C1040 H1025 0.960 . S
C1040 H1026 0.960 . S
C1040 H1027 0.960 . S
C1040 C1039 1.524 . S
C1041 C1038 1.403 . S
C1041 C1042 1.392 . S
C1041 C1045 1.495 . S
C1042 C1041 1.392 . S
C1042 C1043 1.385 . S
C1042 C1044 1.478 . S
C1043 H1037 0.930 . S
C1043 C1039 1.400 . S
C1043 C1042 1.385 . S
C1044 C1042 1.478 . S
C1044 C1046 1.381 . S
C1044 C1050 1.383 . S
C1045 C1041 1.495 . S
C1045 H1051 0.959 . S
C1045 H1052 0.961 . S
C1045 H1053 0.960 . S
C1046 C1044 1.381 . S
C1046 C1047 1.394 . S
C1046 H1054 0.930 . S
C1047 C1046 1.394 . S
C1047 C1048 1.383 . S
C1047 H1055 0.929 . S
C1048 C1047 1.383 . S
C1048 C1049 1.377 . S
C1049 H1033 0.930 . S
C1049 C1048 1.377 . S
C1049 C1050 1.379 . S
C1050 H1034 0.931 . S
C1050 C1044 1.383 . S
C1050 C1049 1.379 . S
H1051 C1045 0.959 . S
H1052 C1045 0.961 . S
H1053 C1045 0.960 . S
H1054 C1046 0.930 . S
H1055 C1047 0.929 . S
H1056 C1064 0.929 . S
H1057 C1066 0.930 . S
H1058 C1068 0.930 . S
H1059 C1071 0.929 . S
H1060 C1074 0.930 . S
H1061 C1076 0.960 . S
H1062 C1076 0.960 . S
H1063 C1076 0.960 . S
C1064 H1056 0.929 . S
C1064 C1065 1.377 . S
C1064 C1066 1.384 . S
C1065 C1064 1.377 . S
C1065 C1071 1.390 . S
C1066 H1057 0.930 . S
C1066 C1064 1.384 . S
C1066 C1067 1.372 . S
C1067 C1066 1.372 . S
C1067 C1068 1.400 . S
C1067 C1072 1.490 . S
C1068 H1058 0.930 . S
C1068 C1067 1.400 . S
C1068 C1071 1.386 . S
H1069 C1085 0.930 . S
H1070 C1086 0.931 . S
C1071 H1059 0.929 . S
C1071 C1065 1.390 . S
C1071 C1068 1.386 . S
C1072 C1067 1.490 . S
C1072 C1074 1.395 . S
C1072 C1075 1.403 . S
H1073 C1079 0.930 . S
C1074 H1060 0.930 . S
C1074 C1072 1.395 . S
C1074 C1077 1.403 . S
C1075 C1072 1.403 . S
C1075 C1076 1.524 . S
C1075 C1079 1.400 . S
C1076 H1061 0.960 . S
C1076 H1062 0.960 . S
C1076 H1063 0.960 . S
C1076 C1075 1.524 . S
C1077 C1074 1.403 . S
C1077 C1078 1.392 . S
C1077 C1081 1.495 . S
C1078 C1077 1.392 . S
C1078 C1079 1.385 . S
C1078 C1080 1.478 . S
C1079 H1073 0.930 . S
C1079 C1075 1.400 . S
C1079 C1078 1.385 . S
C1080 C1078 1.478 . S
C1080 C1082 1.381 . S
C1080 C1086 1.383 . S
C1081 C1077 1.495 . S
C1081 H1087 0.959 . S
C1081 H1088 0.961 . S
C1081 H1089 0.960 . S
C1082 C1080 1.381 . S
C1082 C1083 1.394 . S
C1082 H1090 0.930 . S
C1083 C1082 1.394 . S
C1083 C1084 1.383 . S
C1083 H1091 0.929 . S
C1084 C1083 1.383 . S
C1084 C1085 1.377 . S
C1085 H1069 0.930 . S
C1085 C1084 1.377 . S
C1085 C1086 1.379 . S
C1086 H1070 0.931 . S
C1086 C1080 1.383 . S
C1086 C1085 1.379 . S
H1087 C1081 0.959 . S
H1088 C1081 0.961 . S
H1089 C1081 0.960 . S
H1090 C1082 0.930 . S
H1091 C1083 0.929 . S
H1092 C1100 0.929 . S
H1093 C1102 0.930 . S
H1094 C1104 0.930 . S
H1095 C1107 0.929 . S
H1096 C1110 0.930 . S
H1097 C1112 0.960 . S
H1098 C1112 0.960 . S
H1099 C1112 0.960 . S
C1100 H1092 0.929 . S
C1100 C1101 1.377 . S
C1100 C1102 1.384 . S
C1101 C1100 1.377 . S
C1101 C1107 1.390 . S
C1102 H1093 0.930 . S
C1102 C1100 1.384 . S
C1102 C1103 1.372 . S
C1103 C1102 1.372 . S
C1103 C1104 1.400 . S
C1103 C1108 1.490 . S
C1104 H1094 0.930 . S
C1104 C1103 1.400 . S
C1104 C1107 1.386 . S
H1105 C1121 0.930 . S
H1106 C1122 0.931 . S
C1107 H1095 0.929 . S
C1107 C1101 1.390 . S
C1107 C1104 1.386 . S
C1108 C1103 1.490 . S
C1108 C1110 1.395 . S
C1108 C1111 1.403 . S
H1109 C1115 0.930 . S
C1110 H1096 0.930 . S
C1110 C1108 1.395 . S
C1110 C1113 1.403 . S
C1111 C1108 1.403 . S
C1111 C1112 1.524 . S
C1111 C1115 1.400 . S
C1112 H1097 0.960 . S
C1112 H1098 0.960 . S
C1112 H1099 0.960 . S
C1112 C1111 1.524 . S
C1113 C1110 1.403 . S
C1113 C1114 1.392 . S
C1113 C1117 1.495 . S
C1114 C1113 1.392 . S
C1114 C1115 1.385 . S
C1114 C1116 1.478 . S
C1115 H1109 0.930 . S
C1115 C1111 1.400 . S
C1115 C1114 1.385 . S
C1116 C1114 1.478 . S
C1116 C1118 1.381 . S
C1116 C1122 1.383 . S
C1117 C1113 1.495 . S
C1117 H1123 0.959 . S
C1117 H1124 0.961 . S
C1117 H1125 0.960 . S
C1118 C1116 1.381 . S
C1118 C1119 1.394 . S
C1118 H1126 0.930 . S
C1119 C1118 1.394 . S
C1119 C1120 1.383 . S
C1119 H1127 0.929 . S
C1120 C1119 1.383 . S
C1120 C1121 1.377 . S
C1121 H1105 0.930 . S
C1121 C1120 1.377 . S
C1121 C1122 1.379 . S
C1122 H1106 0.931 . S
C1122 C1116 1.383 . S
C1122 C1121 1.379 . S
H1123 C1117 0.959 . S
H1124 C1117 0.961 . S
H1125 C1117 0.960 . S
H1126 C1118 0.930 . S
H1127 C1119 0.929 . S
H1128 C1136 0.929 . S
H1129 C1138 0.930 . S
H1130 C1140 0.930 . S
H1131 C1143 0.929 . S
H1132 C1146 0.930 . S
H1133 C1148 0.960 . S
H1134 C1148 0.960 . S
H1135 C1148 0.960 . S
C1136 H1128 0.929 . S
C1136 C1137 1.377 . S
C1136 C1138 1.384 . S
C1137 C1136 1.377 . S
C1137 C1143 1.390 . S
C1138 H1129 0.930 . S
C1138 C1136 1.384 . S
C1138 C1139 1.372 . S
C1139 C1138 1.372 . S
C1139 C1140 1.400 . S
C1139 C1144 1.490 . S
C1140 H1130 0.930 . S
C1140 C1139 1.400 . S
C1140 C1143 1.386 . S
H1141 C1157 0.930 . S
H1142 C1158 0.931 . S
C1143 H1131 0.929 . S
C1143 C1137 1.390 . S
C1143 C1140 1.386 . S
C1144 C1139 1.490 . S
C1144 C1146 1.395 . S
C1144 C1147 1.403 . S
H1145 C1151 0.930 . S
C1146 H1132 0.930 . S
C1146 C1144 1.395 . S
C1146 C1149 1.403 . S
C1147 C1144 1.403 . S
C1147 C1148 1.524 . S
C1147 C1151 1.400 . S
C1148 H1133 0.960 . S
C1148 H1134 0.960 . S
C1148 H1135 0.960 . S
C1148 C1147 1.524 . S
C1149 C1146 1.403 . S
C1149 C1150 1.392 . S
C1149 C1153 1.495 . S
C1150 C1149 1.392 . S
C1150 C1151 1.385 . S
C1150 C1152 1.478 . S
C1151 H1145 0.930 . S
C1151 C1147 1.400 . S
C1151 C1150 1.385 . S
C1152 C1150 1.478 . S
C1152 C1154 1.381 . S
C1152 C1158 1.383 . S
C1153 C1149 1.495 . S
C1153 H1159 0.959 . S
C1153 H1160 0.961 . S
C1153 H1161 0.960 . S
C1154 C1152 1.381 . S
C1154 C1155 1.394 . S
C1154 H1162 0.930 . S
C1155 C1154 1.394 . S
C1155 C1156 1.383 . S
C1155 H1163 0.929 . S
C1156 C1155 1.383 . S
C1156 C1157 1.377 . S
C1157 H1141 0.930 . S
C1157 C1156 1.377 . S
C1157 C1158 1.379 . S
C1158 H1142 0.931 . S
C1158 C1152 1.383 . S
C1158 C1157 1.379 . S
H1159 C1153 0.959 . S
H1160 C1153 0.961 . S
H1161 C1153 0.960 . S
H1162 C1154 0.930 . S
H1163 C1155 0.929 . S
H1164 C1172 0.929 . S
H1165 C1174 0.930 . S
H1166 C1176 0.930 . S
H1167 C1179 0.929 . S
H1168 C1182 0.930 . S
H1169 C1184 0.960 . S
H1170 C1184 0.960 . S
H1171 C1184 0.960 . S
C1172 H1164 0.929 . S
C1172 C1173 1.377 . S
C1172 C1174 1.384 . S
C1173 C1172 1.377 . S
C1173 C1179 1.390 . S
C1174 H1165 0.930 . S
C1174 C1172 1.384 . S
C1174 C1175 1.372 . S
C1175 C1174 1.372 . S
C1175 C1176 1.400 . S
C1175 C1180 1.490 . S
C1176 H1166 0.930 . S
C1176 C1175 1.400 . S
C1176 C1179 1.386 . S
H1177 C1193 0.930 . S
H1178 C1194 0.931 . S
C1179 H1167 0.929 . S
C1179 C1173 1.390 . S
C1179 C1176 1.386 . S
C1180 C1175 1.490 . S
C1180 C1182 1.395 . S
C1180 C1183 1.403 . S
H1181 C1187 0.930 . S
C1182 H1168 0.930 . S
C1182 C1180 1.395 . S
C1182 C1185 1.403 . S
C1183 C1180 1.403 . S
C1183 C1184 1.524 . S
C1183 C1187 1.400 . S
C1184 H1169 0.960 . S
C1184 H1170 0.960 . S
C1184 H1171 0.960 . S
C1184 C1183 1.524 . S
C1185 C1182 1.403 . S
C1185 C1186 1.392 . S
C1185 C1189 1.495 . S
C1186 C1185 1.392 . S
C1186 C1187 1.385 . S
C1186 C1188 1.478 . S
C1187 H1181 0.930 . S
C1187 C1183 1.400 . S
C1187 C1186 1.385 . S
C1188 C1186 1.478 . S
C1188 C1190 1.381 . S
C1188 C1194 1.383 . S
C1189 C1185 1.495 . S
C1189 H1195 0.959 . S
C1189 H1196 0.961 . S
C1189 H1197 0.960 . S
C1190 C1188 1.381 . S
C1190 C1191 1.394 . S
C1190 H1198 0.930 . S
C1191 C1190 1.394 . S
C1191 C1192 1.383 . S
C1191 H1199 0.929 . S
C1192 C1191 1.383 . S
C1192 C1193 1.377 . S
C1193 H1177 0.930 . S
C1193 C1192 1.377 . S
C1193 C1194 1.379 . S
C1194 H1178 0.931 . S
C1194 C1188 1.383 . S
C1194 C1193 1.379 . S
H1195 C1189 0.959 . S
H1196 C1189 0.961 . S
H1197 C1189 0.960 . S
H1198 C1190 0.930 . S
H1199 C1191 0.929 . S
H1200 C1208 0.929 . S
H1201 C1210 0.930 . S
H1202 C1212 0.930 . S
H1203 C1215 0.929 . S
H1204 C1218 0.930 . S
H1205 C1220 0.960 . S
H1206 C1220 0.960 . S
H1207 C1220 0.960 . S
C1208 H1200 0.929 . S
C1208 C1209 1.377 . S
C1208 C1210 1.384 . S
C1209 C1208 1.377 . S
C1209 C1215 1.390 . S
C1210 H1201 0.930 . S
C1210 C1208 1.384 . S
C1210 C1211 1.372 . S
C1211 C1210 1.372 . S
C1211 C1212 1.400 . S
C1211 C1216 1.490 . S
C1212 H1202 0.930 . S
C1212 C1211 1.400 . S
C1212 C1215 1.386 . S
H1213 C1229 0.930 . S
H1214 C1230 0.931 . S
C1215 H1203 0.929 . S
C1215 C1209 1.390 . S
C1215 C1212 1.386 . S
C1216 C1211 1.490 . S
C1216 C1218 1.395 . S
C1216 C1219 1.403 . S
H1217 C1223 0.930 . S
C1218 H1204 0.930 . S
C1218 C1216 1.395 . S
C1218 C1221 1.403 . S
C1219 C1216 1.403 . S
C1219 C1220 1.524 . S
C1219 C1223 1.400 . S
C1220 H1205 0.960 . S
C1220 H1206 0.960 . S
C1220 H1207 0.960 . S
C1220 C1219 1.524 . S
C1221 C1218 1.403 . S
C1221 C1222 1.392 . S
C1221 C1225 1.495 . S
C1222 C1221 1.392 . S
C1222 C1223 1.385 . S
C1222 C1224 1.478 . S
C1223 H1217 0.930 . S
C1223 C1219 1.400 . S
C1223 C1222 1.385 . S
C1224 C1222 1.478 . S
C1224 C1226 1.381 . S
C1224 C1230 1.383 . S
C1225 C1221 1.495 . S
C1225 H1231 0.959 . S
C1225 H1232 0.961 . S
C1225 H1233 0.960 . S
C1226 C1224 1.381 . S
C1226 C1227 1.394 . S
C1226 H1234 0.930 . S
C1227 C1226 1.394 . S
C1227 C1228 1.383 . S
C1227 H1235 0.929 . S
C1228 C1227 1.383 . S
C1228 C1229 1.377 . S
C1229 H1213 0.930 . S
C1229 C1228 1.377 . S
C1229 C1230 1.379 . S
C1230 H1214 0.931 . S
C1230 C1224 1.383 . S
C1230 C1229 1.379 . S
H1231 C1225 0.959 . S
H1232 C1225 0.961 . S
H1233 C1225 0.960 . S
H1234 C1226 0.930 . S
H1235 C1227 0.929 . S
H1236 C1244 0.929 . S
H1237 C1246 0.930 . S
H1238 C1248 0.930 . S
H1239 C1251 0.929 . S
H1240 C1254 0.930 . S
H1241 C1256 0.960 . S
H1242 C1256 0.960 . S
H1243 C1256 0.960 . S
C1244 H1236 0.929 . S
C1244 C1245 1.377 . S
C1244 C1246 1.384 . S
C1245 C1244 1.377 . S
C1245 C1251 1.390 . S
C1246 H1237 0.930 . S
C1246 C1244 1.384 . S
C1246 C1247 1.372 . S
C1247 C1246 1.372 . S
C1247 C1248 1.400 . S
C1247 C1252 1.490 . S
C1248 H1238 0.930 . S
C1248 C1247 1.400 . S
C1248 C1251 1.386 . S
H1249 C1265 0.930 . S
H1250 C1266 0.931 . S
C1251 H1239 0.929 . S
C1251 C1245 1.390 . S
C1251 C1248 1.386 . S
C1252 C1247 1.490 . S
C1252 C1254 1.395 . S
C1252 C1255 1.403 . S
H1253 C1259 0.930 . S
C1254 H1240 0.930 . S
C1254 C1252 1.395 . S
C1254 C1257 1.403 . S
C1255 C1252 1.403 . S
C1255 C1256 1.524 . S
C1255 C1259 1.400 . S
C1256 H1241 0.960 . S
C1256 H1242 0.960 . S
C1256 H1243 0.960 . S
C1256 C1255 1.524 . S
C1257 C1254 1.403 . S
C1257 C1258 1.392 . S
C1257 C1261 1.495 . S
C1258 C1257 1.392 . S
C1258 C1259 1.385 . S
C1258 C1260 1.478 . S
C1259 H1253 0.930 . S
C1259 C1255 1.400 . S
C1259 C1258 1.385 . S
C1260 C1258 1.478 . S
C1260 C1262 1.381 . S
C1260 C1266 1.383 . S
C1261 C1257 1.495 . S
C1261 H1267 0.959 . S
C1261 H1268 0.961 . S
C1261 H1269 0.960 . S
C1262 C1260 1.381 . S
C1262 C1263 1.394 . S
C1262 H1270 0.930 . S
C1263 C1262 1.394 . S
C1263 C1264 1.383 . S
C1263 H1271 0.929 . S
C1264 C1263 1.383 . S
C1264 C1265 1.377 . S
C1265 H1249 0.930 . S
C1265 C1264 1.377 . S
C1265 C1266 1.379 . S
C1266 H1250 0.931 . S
C1266 C1260 1.383 . S
C1266 C1265 1.379 . S
H1267 C1261 0.959 . S
H1268 C1261 0.961 . S
H1269 C1261 0.960 . S
H1270 C1262 0.930 . S
H1271 C1263 0.929 . S
H1272 C1280 0.929 . S
H1273 C1282 0.930 . S
H1274 C1284 0.930 . S
H1275 C1287 0.929 . S
H1276 C1290 0.930 . S
H1277 C1292 0.960 . S
H1278 C1292 0.960 . S
H1279 C1292 0.960 . S
C1280 H1272 0.929 . S
C1280 C1281 1.377 . S
C1280 C1282 1.384 . S
C1281 C1280 1.377 . S
C1281 C1287 1.390 . S
C1282 H1273 0.930 . S
C1282 C1280 1.384 . S
C1282 C1283 1.372 . S
C1283 C1282 1.372 . S
C1283 C1284 1.400 . S
C1283 C1288 1.490 . S
C1284 H1274 0.930 . S
C1284 C1283 1.400 . S
C1284 C1287 1.386 . S
H1285 C1301 0.930 . S
H1286 C1302 0.931 . S
C1287 H1275 0.929 . S
C1287 C1281 1.390 . S
C1287 C1284 1.386 . S
C1288 C1283 1.490 . S
C1288 C1290 1.395 . S
C1288 C1291 1.403 . S
H1289 C1295 0.930 . S
C1290 H1276 0.930 . S
C1290 C1288 1.395 . S
C1290 C1293 1.403 . S
C1291 C1288 1.403 . S
C1291 C1292 1.524 . S
C1291 C1295 1.400 . S
C1292 H1277 0.960 . S
C1292 H1278 0.960 . S
C1292 H1279 0.960 . S
C1292 C1291 1.524 . S
C1293 C1290 1.403 . S
C1293 C1294 1.392 . S
C1293 C1297 1.495 . S
C1294 C1293 1.392 . S
C1294 C1295 1.385 . S
C1294 C1296 1.478 . S
C1295 H1289 0.930 . S
C1295 C1291 1.400 . S
C1295 C1294 1.385 . S
C1296 C1294 1.478 . S
C1296 C1298 1.381 . S
C1296 C1302 1.383 . S
C1297 C1293 1.495 . S
C1297 H1303 0.959 . S
C1297 H1304 0.961 . S
C1297 H1305 0.960 . S
C1298 C1296 1.381 . S
C1298 C1299 1.394 . S
C1298 H1306 0.930 . S
C1299 C1298 1.394 . S
C1299 C1300 1.383 . S
C1299 H1307 0.929 . S
C1300 C1299 1.383 . S
C1300 C1301 1.377 . S
C1301 H1285 0.930 . S
C1301 C1300 1.377 . S
C1301 C1302 1.379 . S
C1302 H1286 0.931 . S
C1302 C1296 1.383 . S
C1302 C1301 1.379 . S
H1303 C1297 0.959 . S
H1304 C1297 0.961 . S
H1305 C1297 0.960 . S
H1306 C1298 0.930 . S
H1307 C1299 0.929 . S
H1308 C1316 0.929 . S
H1309 C1318 0.930 . S
H1310 C1320 0.930 . S
H1311 C1323 0.929 . S
H1312 C1326 0.930 . S
H1313 C1328 0.960 . S
H1314 C1328 0.960 . S
H1315 C1328 0.960 . S
C1316 H1308 0.929 . S
C1316 C1317 1.377 . S
C1316 C1318 1.384 . S
C1317 C1316 1.377 . S
C1317 C1323 1.390 . S
C1318 H1309 0.930 . S
C1318 C1316 1.384 . S
C1318 C1319 1.372 . S
C1319 C1318 1.372 . S
C1319 C1320 1.400 . S
C1319 C1324 1.490 . S
C1320 H1310 0.930 . S
C1320 C1319 1.400 . S
C1320 C1323 1.386 . S
H1321 C1337 0.930 . S
H1322 C1338 0.952 . S
C1323 H1311 0.929 . S
C1323 C1317 1.390 . S
C1323 C1320 1.386 . S
C1324 C1319 1.490 . S
C1324 C1326 1.395 . S
C1324 C1327 1.403 . S
H1325 C1331 0.930 . S
C1326 H1312 0.930 . S
C1326 C1324 1.395 . S
C1326 C1329 1.403 . S
C1327 C1324 1.403 . S
C1327 C1328 1.524 . S
C1327 C1331 1.400 . S
C1328 H1313 0.960 . S
C1328 H1314 0.960 . S
C1328 H1315 0.960 . S
C1328 C1327 1.524 . S
C1329 C1326 1.403 . S
C1329 C1330 1.392 . S
C1329 C1333 1.495 1_556 S
C1330 C1329 1.392 . S
C1330 C1331 1.385 . S
C1330 C1332 1.478 1_556 S
C1331 H1325 0.930 . S
C1331 C1327 1.400 . S
C1331 C1330 1.385 . S
C1332 C1330 1.478 1_554 S
C1332 C1334 1.381 . S
C1332 C1338 1.383 . S
C1333 C1329 1.495 1_554 S
C1333 H1339 0.959 . S
C1333 H1340 0.961 . S
C1333 H1341 0.960 . S
C1334 C1332 1.381 . S
C1334 C1335 1.394 . S
C1334 H1342 0.930 . S
C1335 C1334 1.394 . S
C1335 C1336 1.383 . S
C1335 H1343 0.929 . S
C1336 C1335 1.383 . S
C1336 C1337 1.377 . S
C1337 H1321 0.930 . S
C1337 C1336 1.377 . S
C1337 C1338 1.379 . S
C1338 H1322 0.952 . S
C1338 C1332 1.383 . S
C1338 C1337 1.379 . S
H1339 C1333 0.959 . S
H1340 C1333 0.961 . S
H1341 C1333 0.960 . S
H1342 C1334 0.930 . S
H1343 C1335 0.929 . S
H1344 C1352 0.929 . S
H1345 C1354 0.930 . S
H1346 C1356 0.930 . S
H1347 C1359 0.929 . S
H1348 C1362 0.930 . S
H1349 C1364 0.960 . S
H1350 C1364 0.960 . S
H1351 C1364 0.960 . S
C1352 H1344 0.929 . S
C1352 C1353 1.377 . S
C1352 C1354 1.384 . S
C1353 C1352 1.377 . S
C1353 C1359 1.390 . S
C1354 H1345 0.930 . S
C1354 C1352 1.384 . S
C1354 C1355 1.372 . S
C1355 C1354 1.372 . S
C1355 C1356 1.400 . S
C1355 C1360 1.490 . S
C1356 H1346 0.930 . S
C1356 C1355 1.400 . S
C1356 C1359 1.386 . S
H1357 C1373 0.930 . S
H1358 C1374 0.931 . S
C1359 H1347 0.929 . S
C1359 C1353 1.390 . S
C1359 C1356 1.386 . S
C1360 C1355 1.490 . S
C1360 C1362 1.395 . S
C1360 C1363 1.403 . S
H1361 C1367 0.930 . S
C1362 H1348 0.930 . S
C1362 C1360 1.395 . S
C1362 C1365 1.403 . S
C1363 C1360 1.403 . S
C1363 C1364 1.524 . S
C1363 C1367 1.400 . S
C1364 H1349 0.960 . S
C1364 H1350 0.960 . S
C1364 H1351 0.960 . S
C1364 C1363 1.524 . S
C1365 C1362 1.403 . S
C1365 C1366 1.392 . S
C1365 C1369 1.495 . S
C1366 C1365 1.392 . S
C1366 C1367 1.385 . S
C1366 C1368 1.478 . S
C1367 H1361 0.930 . S
C1367 C1363 1.400 . S
C1367 C1366 1.385 . S
C1368 C1366 1.478 . S
C1368 C1370 1.381 . S
C1368 C1374 1.383 . S
C1369 C1365 1.495 . S
C1369 H1375 0.959 . S
C1369 H1376 0.961 . S
C1369 H1377 0.960 . S
C1370 C1368 1.381 . S
C1370 C1371 1.394 . S
C1370 H1378 0.930 . S
C1371 C1370 1.394 . S
C1371 C1372 1.383 . S
C1371 H1379 0.929 . S
C1372 C1371 1.383 . S
C1372 C1373 1.377 . S
C1373 H1357 0.930 . S
C1373 C1372 1.377 . S
C1373 C1374 1.379 . S
C1374 H1358 0.931 . S
C1374 C1368 1.383 . S
C1374 C1373 1.379 . S
H1375 C1369 0.959 . S
H1376 C1369 0.961 . S
H1377 C1369 0.960 . S
H1378 C1370 0.930 . S
H1379 C1371 0.929 . S
H1380 C1388 0.929 . S
H1381 C1390 0.930 . S
H1382 C1392 0.930 . S
H1383 C1395 0.929 . S
H1384 C1398 0.930 . S
H1385 C1400 0.960 . S
H1386 C1400 0.960 . S
H1387 C1400 0.960 . S
C1388 H1380 0.929 . S
C1388 C1389 1.377 . S
C1388 C1390 1.384 . S
C1389 C1388 1.377 . S
C1389 C1395 1.390 . S
C1390 H1381 0.930 . S
C1390 C1388 1.384 . S
C1390 C1391 1.372 . S
C1391 C1390 1.372 . S
C1391 C1392 1.400 . S
C1391 C1396 1.490 . S
C1392 H1382 0.930 . S
C1392 C1391 1.400 . S
C1392 C1395 1.386 . S
H1393 C1409 0.930 . S
H1394 C1410 0.931 . S
C1395 H1383 0.929 . S
C1395 C1389 1.390 . S
C1395 C1392 1.386 . S
C1396 C1391 1.490 . S
C1396 C1398 1.395 . S
C1396 C1399 1.403 . S
H1397 C1403 0.930 . S
C1398 H1384 0.930 . S
C1398 C1396 1.395 . S
C1398 C1401 1.403 . S
C1399 C1396 1.403 . S
C1399 C1400 1.524 . S
C1399 C1403 1.400 . S
C1400 H1385 0.960 . S
C1400 H1386 0.960 . S
C1400 H1387 0.960 . S
C1400 C1399 1.524 . S
C1401 C1398 1.403 . S
C1401 C1402 1.392 . S
C1401 C1405 1.495 . S
C1402 C1401 1.392 . S
C1402 C1403 1.385 . S
C1402 C1404 1.478 . S
C1403 H1397 0.930 . S
C1403 C1399 1.400 . S
C1403 C1402 1.385 . S
C1404 C1402 1.478 . S
C1404 C1406 1.381 . S
C1404 C1410 1.383 . S
C1405 C1401 1.495 . S
C1405 H1411 0.959 . S
C1405 H1412 0.961 . S
C1405 H1413 0.960 . S
C1406 C1404 1.381 . S
C1406 C1407 1.394 . S
C1406 H1414 0.930 . S
C1407 C1406 1.394 . S
C1407 C1408 1.383 . S
C1407 H1415 0.929 . S
C1408 C1407 1.383 . S
C1408 C1409 1.377 . S
C1409 H1393 0.930 . S
C1409 C1408 1.377 . S
C1409 C1410 1.379 . S
C1410 H1394 0.931 . S
C1410 C1404 1.383 . S
C1410 C1409 1.379 . S
H1411 C1405 0.959 . S
H1412 C1405 0.961 . S
H1413 C1405 0.960 . S
H1414 C1406 0.930 . S
H1415 C1407 0.929 . S
H1416 C1424 0.929 . S
H1417 C1426 0.930 . S
H1418 C1428 0.930 . S
H1419 C1431 0.929 . S
H1420 C1434 0.930 . S
H1421 C1436 0.960 . S
H1422 C1436 0.960 . S
H1423 C1436 0.960 . S
C1424 H1416 0.929 . S
C1424 C1425 1.377 . S
C1424 C1426 1.384 . S
C1425 C1424 1.377 . S
C1425 C1431 1.390 . S
C1426 H1417 0.930 . S
C1426 C1424 1.384 . S
C1426 C1427 1.372 . S
C1427 C1426 1.372 . S
C1427 C1428 1.400 . S
C1427 C1432 1.490 . S
C1428 H1418 0.930 . S
C1428 C1427 1.400 . S
C1428 C1431 1.386 . S
H1429 C1445 0.930 . S
H1430 C1446 0.931 . S
C1431 H1419 0.929 . S
C1431 C1425 1.390 . S
C1431 C1428 1.386 . S
C1432 C1427 1.490 . S
C1432 C1434 1.395 . S
C1432 C1435 1.403 . S
H1433 C1439 0.930 . S
C1434 H1420 0.930 . S
C1434 C1432 1.395 . S
C1434 C1437 1.403 . S
C1435 C1432 1.403 . S
C1435 C1436 1.524 . S
C1435 C1439 1.400 . S
C1436 H1421 0.960 . S
C1436 H1422 0.960 . S
C1436 H1423 0.960 . S
C1436 C1435 1.524 . S
C1437 C1434 1.403 . S
C1437 C1438 1.392 . S
C1437 C1441 1.495 . S
C1438 C1437 1.392 . S
C1438 C1439 1.385 . S
C1438 C1440 1.478 . S
C1439 H1433 0.930 . S
C1439 C1435 1.400 . S
C1439 C1438 1.385 . S
C1440 C1438 1.478 . S
C1440 C1442 1.381 . S
C1440 C1446 1.383 . S
C1441 C1437 1.495 . S
C1441 H1447 0.959 . S
C1441 H1448 0.961 . S
C1441 H1449 0.960 . S
C1442 C1440 1.381 . S
C1442 C1443 1.394 . S
C1442 H1450 0.930 . S
C1443 C1442 1.394 . S
C1443 C1444 1.383 . S
C1443 H1451 0.929 . S
C1444 C1443 1.383 . S
C1444 C1445 1.377 . S
C1445 H1429 0.930 . S
C1445 C1444 1.377 . S
C1445 C1446 1.379 . S
C1446 H1430 0.931 . S
C1446 C1440 1.383 . S
C1446 C1445 1.379 . S
H1447 C1441 0.959 . S
H1448 C1441 0.961 . S
H1449 C1441 0.960 . S
H1450 C1442 0.930 . S
H1451 C1443 0.929 . S
H1452 C1460 0.929 . S
H1453 C1462 0.930 . S
H1454 C1464 0.930 . S
H1455 C1467 0.929 . S
H1456 C1470 0.930 . S
H1457 C1472 0.960 . S
H1458 C1472 0.960 . S
H1459 C1472 0.960 . S
C1460 H1452 0.929 . S
C1460 C1461 1.377 . S
C1460 C1462 1.384 . S
C1461 C1460 1.377 . S
C1461 C1467 1.390 . S
C1462 H1453 0.930 . S
C1462 C1460 1.384 . S
C1462 C1463 1.372 . S
C1463 C1462 1.372 . S
C1463 C1464 1.400 . S
C1463 C1468 1.490 . S
C1464 H1454 0.930 . S
C1464 C1463 1.400 . S
C1464 C1467 1.386 . S
H1465 C1481 0.930 . S
H1466 C1482 0.931 . S
C1467 H1455 0.929 . S
C1467 C1461 1.390 . S
C1467 C1464 1.386 . S
C1468 C1463 1.490 . S
C1468 C1470 1.395 . S
C1468 C1471 1.403 . S
H1469 C1475 0.930 . S
C1470 H1456 0.930 . S
C1470 C1468 1.395 . S
C1470 C1473 1.403 . S
C1471 C1468 1.403 . S
C1471 C1472 1.524 . S
C1471 C1475 1.400 . S
C1472 H1457 0.960 . S
C1472 H1458 0.960 . S
C1472 H1459 0.960 . S
C1472 C1471 1.524 . S
C1473 C1470 1.403 . S
C1473 C1474 1.392 . S
C1473 C1477 1.495 . S
C1474 C1473 1.392 . S
C1474 C1475 1.385 . S
C1474 C1476 1.478 . S
C1475 H1469 0.930 . S
C1475 C1471 1.400 . S
C1475 C1474 1.385 . S
C1476 C1474 1.478 . S
C1476 C1478 1.381 . S
C1476 C1482 1.383 . S
C1477 C1473 1.495 . S
C1477 H1483 0.959 . S
C1477 H1484 0.961 . S
C1477 H1485 0.960 . S
C1478 C1476 1.381 . S
C1478 C1479 1.394 . S
C1478 H1486 0.930 . S
C1479 C1478 1.394 . S
C1479 C1480 1.383 . S
C1479 H1487 0.929 . S
C1480 C1479 1.383 . S
C1480 C1481 1.377 . S
C1481 H1465 0.930 . S
C1481 C1480 1.377 . S
C1481 C1482 1.379 . S
C1482 H1466 0.931 . S
C1482 C1476 1.383 . S
C1482 C1481 1.379 . S
H1483 C1477 0.959 . S
H1484 C1477 0.961 . S
H1485 C1477 0.960 . S
H1486 C1478 0.930 . S
H1487 C1479 0.929 . S
H1488 C1496 0.929 . S
H1489 C1498 0.930 . S
H1490 C1500 0.930 . S
H1491 C1503 0.929 . S
H1492 C1506 0.930 . S
H1493 C1508 0.960 . S
H1494 C1508 0.960 . S
H1495 C1508 0.960 . S
C1496 H1488 0.929 . S
C1496 C1497 1.377 . S
C1496 C1498 1.384 . S
C1497 C1496 1.377 . S
C1497 C1503 1.390 . S
C1498 H1489 0.930 . S
C1498 C1496 1.384 . S
C1498 C1499 1.372 . S
C1499 C1498 1.372 . S
C1499 C1500 1.400 . S
C1499 C1504 1.490 . S
C1500 H1490 0.930 . S
C1500 C1499 1.400 . S
C1500 C1503 1.386 . S
H1501 C1517 0.930 . S
H1502 C1518 0.931 . S
C1503 H1491 0.929 . S
C1503 C1497 1.390 . S
C1503 C1500 1.386 . S
C1504 C1499 1.490 . S
C1504 C1506 1.395 . S
C1504 C1507 1.403 . S
H1505 C1511 0.930 . S
C1506 H1492 0.930 . S
C1506 C1504 1.395 . S
C1506 C1509 1.403 . S
C1507 C1504 1.403 . S
C1507 C1508 1.524 . S
C1507 C1511 1.400 . S
C1508 H1493 0.960 . S
C1508 H1494 0.960 . S
C1508 H1495 0.960 . S
C1508 C1507 1.524 . S
C1509 C1506 1.403 . S
C1509 C1510 1.392 . S
C1509 C1513 1.495 . S
C1510 C1509 1.392 . S
C1510 C1511 1.385 . S
C1510 C1512 1.478 . S
C1511 H1505 0.930 . S
C1511 C1507 1.400 . S
C1511 C1510 1.385 . S
C1512 C1510 1.478 . S
C1512 C1514 1.381 . S
C1512 C1518 1.383 . S
C1513 C1509 1.495 . S
C1513 H1519 0.959 . S
C1513 H1520 0.961 . S
C1513 H1521 0.960 . S
C1514 C1512 1.381 . S
C1514 C1515 1.394 . S
C1514 H1522 0.930 . S
C1515 C1514 1.394 . S
C1515 C1516 1.383 . S
C1515 H1523 0.929 . S
C1516 C1515 1.383 . S
C1516 C1517 1.377 . S
C1517 H1501 0.930 . S
C1517 C1516 1.377 . S
C1517 C1518 1.379 . S
C1518 H1502 0.931 . S
C1518 C1512 1.383 . S
C1518 C1517 1.379 . S
H1519 C1513 0.959 . S
H1520 C1513 0.961 . S
H1521 C1513 0.960 . S
H1522 C1514 0.930 . S
H1523 C1515 0.929 . S
H1524 C1532 0.929 . S
H1525 C1534 0.930 . S
H1526 C1536 0.930 . S
H1527 C1539 0.929 . S
H1528 C1542 0.930 . S
H1529 C1544 0.960 . S
H1530 C1544 0.960 . S
H1531 C1544 0.960 . S
C1532 H1524 0.929 . S
C1532 C1533 1.377 . S
C1532 C1534 1.384 . S
C1533 C1532 1.377 . S
C1533 C1539 1.390 . S
C1534 H1525 0.930 . S
C1534 C1532 1.384 . S
C1534 C1535 1.372 . S
C1535 C1534 1.372 . S
C1535 C1536 1.400 . S
C1535 C1540 1.490 . S
C1536 H1526 0.930 . S
C1536 C1535 1.400 . S
C1536 C1539 1.386 . S
H1537 C1553 0.930 . S
H1538 C1554 0.931 . S
C1539 H1527 0.929 . S
C1539 C1533 1.390 . S
C1539 C1536 1.386 . S
C1540 C1535 1.490 . S
C1540 C1542 1.395 . S
C1540 C1543 1.403 . S
H1541 C1547 0.930 . S
C1542 H1528 0.930 . S
C1542 C1540 1.395 . S
C1542 C1545 1.403 . S
C1543 C1540 1.403 . S
C1543 C1544 1.524 . S
C1543 C1547 1.400 . S
C1544 H1529 0.960 . S
C1544 H1530 0.960 . S
C1544 H1531 0.960 . S
C1544 C1543 1.524 . S
C1545 C1542 1.403 . S
C1545 C1546 1.392 . S
C1545 C1549 1.495 . S
C1546 C1545 1.392 . S
C1546 C1547 1.385 . S
C1546 C1548 1.478 . S
C1547 H1541 0.930 . S
C1547 C1543 1.400 . S
C1547 C1546 1.385 . S
C1548 C1546 1.478 . S
C1548 C1550 1.381 . S
C1548 C1554 1.383 . S
C1549 C1545 1.495 . S
C1549 H1555 0.959 . S
C1549 H1556 0.961 . S
C1549 H1557 0.960 . S
C1550 C1548 1.381 . S
C1550 C1551 1.394 . S
C1550 H1558 0.930 . S
C1551 C1550 1.394 . S
C1551 C1552 1.383 . S
C1551 H1559 0.929 . S
C1552 C1551 1.383 . S
C1552 C1553 1.377 . S
C1553 H1537 0.930 . S
C1553 C1552 1.377 . S
C1553 C1554 1.379 . S
C1554 H1538 0.931 . S
C1554 C1548 1.383 . S
C1554 C1553 1.379 . S
H1555 C1549 0.959 . S
H1556 C1549 0.961 . S
H1557 C1549 0.960 . S
H1558 C1550 0.930 . S
H1559 C1551 0.929 . S
H1560 C1568 0.929 . S
H1561 C1570 0.930 . S
H1562 C1572 0.930 . S
H1563 C1575 0.929 . S
H1564 C1578 0.930 . S
H1565 C1580 0.960 . S
H1566 C1580 0.960 . S
H1567 C1580 0.960 1_554 S
C1568 H1560 0.929 . S
C1568 C1569 1.377 . S
C1568 C1570 1.384 . S
C1569 C1568 1.377 . S
C1569 C1575 1.390 . S
C1570 H1561 0.930 . S
C1570 C1568 1.384 . S
C1570 C1571 1.372 . S
C1571 C1570 1.372 . S
C1571 C1572 1.400 . S
C1571 C1576 1.490 . S
C1572 H1562 0.930 . S
C1572 C1571 1.400 . S
C1572 C1575 1.386 . S
H1573 C1589 0.930 . S
H1574 C1590 0.931 . S
C1575 H1563 0.929 . S
C1575 C1569 1.390 . S
C1575 C1572 1.386 . S
C1576 C1571 1.490 . S
C1576 C1578 1.395 . S
C1576 C1579 1.403 1_554 S
H1577 C1583 0.930 . S
C1578 H1564 0.930 . S
C1578 C1576 1.395 . S
C1578 C1581 1.403 1_554 S
C1579 C1576 1.403 1_556 S
C1579 C1580 1.524 . S
C1579 C1583 1.400 . S
C1580 H1565 0.960 . S
C1580 H1566 0.960 . S
C1580 H1567 0.960 1_556 S
C1580 C1579 1.524 . S
C1581 C1578 1.403 1_556 S
C1581 C1582 1.392 . S
C1581 C1585 1.495 . S
C1582 C1581 1.392 . S
C1582 C1583 1.385 . S
C1582 C1584 1.478 . S
C1583 H1577 0.930 . S
C1583 C1579 1.400 . S
C1583 C1582 1.385 . S
C1584 C1582 1.478 . S
C1584 C1586 1.381 . S
C1584 C1590 1.383 . S
C1585 C1581 1.495 . S
C1585 H1591 0.959 1_556 S
C1585 H1592 0.961 . S
C1585 H1593 0.960 . S
C1586 C1584 1.381 . S
C1586 C1587 1.394 . S
C1586 H1594 0.930 . S
C1587 C1586 1.394 . S
C1587 C1588 1.383 . S
C1587 H1595 0.929 . S
C1588 C1587 1.383 . S
C1588 C1589 1.377 . S
C1589 H1573 0.930 . S
C1589 C1588 1.377 . S
C1589 C1590 1.379 . S
C1590 H1574 0.931 . S
C1590 C1584 1.383 . S
C1590 C1589 1.379 . S
H1591 C1585 0.959 1_554 S
H1592 C1585 0.961 . S
H1593 C1585 0.960 . S
H1594 C1586 0.930 . S
H1595 C1587 0.929 . S
H1596 C1604 0.929 . S
H1597 C1606 0.930 . S
H1598 C1608 0.930 . S
H1599 C1611 0.929 . S
H1600 C1614 0.930 . S
H1601 C1616 0.960 . S
H1602 C1616 0.960 . S
H1603 C1616 0.960 . S
C1604 H1596 0.929 . S
C1604 C1605 1.377 . S
C1604 C1606 1.384 . S
C1605 C1604 1.377 . S
C1605 C1611 1.390 . S
C1606 H1597 0.930 . S
C1606 C1604 1.384 . S
C1606 C1607 1.372 . S
C1607 C1606 1.372 . S
C1607 C1608 1.400 . S
C1607 C1612 1.490 . S
C1608 H1598 0.930 . S
C1608 C1607 1.400 . S
C1608 C1611 1.386 . S
H1609 C1625 0.930 . S
H1610 C1626 0.931 . S
C1611 H1599 0.929 . S
C1611 C1605 1.390 . S
C1611 C1608 1.386 . S
C1612 C1607 1.490 . S
C1612 C1614 1.395 . S
C1612 C1615 1.403 . S
H1613 C1619 0.930 . S
C1614 H1600 0.930 . S
C1614 C1612 1.395 . S
C1614 C1617 1.403 . S
C1615 C1612 1.403 . S
C1615 C1616 1.524 . S
C1615 C1619 1.400 . S
C1616 H1601 0.960 . S
C1616 H1602 0.960 . S
C1616 H1603 0.960 . S
C1616 C1615 1.524 . S
C1617 C1614 1.403 . S
C1617 C1618 1.392 . S
C1617 C1621 1.495 . S
C1618 C1617 1.392 . S
C1618 C1619 1.385 . S
C1618 C1620 1.478 . S
C1619 H1613 0.930 . S
C1619 C1615 1.400 . S
C1619 C1618 1.385 . S
C1620 C1618 1.478 . S
C1620 C1622 1.381 . S
C1620 C1626 1.383 . S
C1621 C1617 1.495 . S
C1621 H1627 0.959 . S
C1621 H1628 0.961 . S
C1621 H1629 0.960 . S
C1622 C1620 1.381 . S
C1622 C1623 1.394 . S
C1622 H1630 0.930 . S
C1623 C1622 1.394 . S
C1623 C1624 1.383 . S
C1623 H1631 0.929 . S
C1624 C1623 1.383 . S
C1624 C1625 1.377 . S
C1625 H1609 0.930 . S
C1625 C1624 1.377 . S
C1625 C1626 1.379 . S
C1626 H1610 0.931 . S
C1626 C1620 1.383 . S
C1626 C1625 1.379 . S
H1627 C1621 0.959 . S
H1628 C1621 0.961 . S
H1629 C1621 0.960 . S
H1630 C1622 0.930 . S
H1631 C1623 0.929 . S
C796 C759 1.240 . S
C777 C1 1.129 . S
C813 C169 1.451 . S
C832 C689 1.473 . S
C849 C283 1.364 . S
C868 C709 1.677 . S
C885 C397 1.153 . S
C904 C723 1.420 . S
C940 C731 1.114 . S
C921 C457 0.986 . S
C957 C571 1.009 . S
C976 C745 1.162 . S
C993 C115 1.154 . S
C1012 C703 1.276 . S
C1029 C229 1.021 . S
C1048 C717 1.075 . S
C1065 C343 0.984 . S
C1084 C737 1.283 . S
C1120 C751 1.497 . S
C1101 C511 1.224 . S
C1156 C765 1.632 . S
C1137 C625 1.338 . S
C1192 C695 1.718 . S
C1173 C55 1.403 . S
C1209 C29 1.080 . S
C1228 C702 1.336 . S
C1245 C125 0.933 . S
C1264 C716 1.463 . S
C1300 C738 1.396 . S
C1281 C239 0.874 . S
C1317 C353 0.889 . S
C1336 C752 1.381 . S
C1372 C766 1.266 . S
C1353 C485 0.996 . S
C1408 C696 1.302 . S
C1389 C599 1.039 . S
C1444 C758 1.338 . S
C1425 C143 1.088 . S
C1461 C257 1.055 . S
C1480 C688 1.323 . S
C1516 C710 1.257 . S
C1497 C371 1.006 . S
C1533 C467 0.861 . S
C1552 C724 1.379 . S
C1569 C581 0.870 . S
C1588 C730 1.413 . S
C1605 C11 0.934 . S
C1624 C744 1.439 . S
