# Generated by pormake.
# Topology pyr, (3,6)-cn, num edge types: 1
# Building blocks:
#     Node 0, Type 0, BuildingBlock: PAMTOO_clean_linker_0, # of connection points: 3
#     Node 1, Type 0, BuildingBlock: PAMTOO_clean_linker_0, # of connection points: 3
#     Node 2, Type 0, BuildingBlock: PAMTOO_clean_linker_0, # of connection points: 3
#     Node 3, Type 0, BuildingBlock: PAMTOO_clean_linker_0, # of connection points: 3
#     Node 4, Type 0, BuildingBlock: PAMTOO_clean_linker_0, # of connection points: 3
#     Node 5, Type 0, BuildingBlock: PAMTOO_clean_linker_0, # of connection points: 3
#     Node 6, Type 0, BuildingBlock: PAMTOO_clean_linker_0, # of connection points: 3
#     Node 7, Type 0, BuildingBlock: PAMTOO_clean_linker_0, # of connection points: 3
#     Node 8, Type 1, BuildingBlock: INOVEN_clean_sbu_0, # of connection points: 6
#     Node 9, Type 1, BuildingBlock: INOVEN_clean_sbu_0, # of connection points: 6
#     Node 10, Type 1, BuildingBlock: INOVEN_clean_sbu_0, # of connection points: 6
#     Node 11, Type 1, BuildingBlock: INOVEN_clean_sbu_0, # of connection points: 6
#     Edge 12, Type (0, 1), BuildingBlock: CIFDUS_clean_linker_0, # of connection points: 2
#     Edge 13, Type (0, 1), BuildingBlock: CIFDUS_clean_linker_0, # of connection points: 2
#     Edge 14, Type (0, 1), BuildingBlock: CIFDUS_clean_linker_0, # of connection points: 2
#     Edge 15, Type (0, 1), BuildingBlock: CIFDUS_clean_linker_0, # of connection points: 2
#     Edge 16, Type (0, 1), BuildingBlock: CIFDUS_clean_linker_0, # of connection points: 2
#     Edge 17, Type (0, 1), BuildingBlock: CIFDUS_clean_linker_0, # of connection points: 2
#     Edge 18, Type (0, 1), BuildingBlock: CIFDUS_clean_linker_0, # of connection points: 2
#     Edge 19, Type (0, 1), BuildingBlock: CIFDUS_clean_linker_0, # of connection points: 2
#     Edge 20, Type (0, 1), BuildingBlock: CIFDUS_clean_linker_0, # of connection points: 2
#     Edge 21, Type (0, 1), BuildingBlock: CIFDUS_clean_linker_0, # of connection points: 2
#     Edge 22, Type (0, 1), BuildingBlock: CIFDUS_clean_linker_0, # of connection points: 2
#     Edge 23, Type (0, 1), BuildingBlock: CIFDUS_clean_linker_0, # of connection points: 2
#     Edge 24, Type (0, 1), BuildingBlock: CIFDUS_clean_linker_0, # of connection points: 2
#     Edge 25, Type (0, 1), BuildingBlock: CIFDUS_clean_linker_0, # of connection points: 2
#     Edge 26, Type (0, 1), BuildingBlock: CIFDUS_clean_linker_0, # of connection points: 2
#     Edge 27, Type (0, 1), BuildingBlock: CIFDUS_clean_linker_0, # of connection points: 2
#     Edge 28, Type (0, 1), BuildingBlock: CIFDUS_clean_linker_0, # of connection points: 2
#     Edge 29, Type (0, 1), BuildingBlock: CIFDUS_clean_linker_0, # of connection points: 2
#     Edge 30, Type (0, 1), BuildingBlock: CIFDUS_clean_linker_0, # of connection points: 2
#     Edge 31, Type (0, 1), BuildingBlock: CIFDUS_clean_linker_0, # of connection points: 2
#     Edge 32, Type (0, 1), BuildingBlock: CIFDUS_clean_linker_0, # of connection points: 2
#     Edge 33, Type (0, 1), BuildingBlock: CIFDUS_clean_linker_0, # of connection points: 2
#     Edge 34, Type (0, 1), BuildingBlock: CIFDUS_clean_linker_0, # of connection points: 2
#     Edge 35, Type (0, 1), BuildingBlock: CIFDUS_clean_linker_0, # of connection points: 2
# Relax obj value: 0.200
# Max RMSD: 0.231
# Mean RMSD: 0.151
data_MOF--net-pyr--node1-INOVEN_clean_sbu_0--node2-PAMTOO_clean_linker_0--edge1-CIFDUS_clean_linker_0
_symmetry_space_group_name_H-M    P1
_symmetry_Int_Tables_number       1
_symmetry_cell_setting            triclinic
loop_
_symmetry_equiv_pos_as_xyz
'x, y, z'
_cell_length_a     32.83078
_cell_length_b     35.15923
_cell_length_c     31.257457
_cell_angle_alpha  92.002148
_cell_angle_beta   89.565776
_cell_angle_gamma 107.68677
loop_
_atom_site_label
_atom_site_type_symbol
_atom_site_fract_x
_atom_site_fract_y
_atom_site_fract_z
_atom_type_partial_charge
H0 H 0.34861 0.36245 0.28818 0.0
H1 H 0.4344 0.29184 0.28144 0.0
H2 H 0.44381 0.38132 0.18888 0.0
H3 H 0.51608 0.33315 0.2626 0.0
C4 C 0.51431 0.32976 0.22705 0.0
O5 O 0.47324 0.32406 0.21248 0.0
H6 H 0.53571 0.35747 0.21331 0.0
C7 C 0.37674 0.35703 0.2742 0.0
C8 C 0.39471 0.37653 0.23693 0.0
C9 C 0.39109 0.32687 0.29079 0.0
C10 C 0.42426 0.31634 0.27015 0.0
C11 C 0.44397 0.33682 0.23424 0.0
C12 C 0.42962 0.36714 0.21791 0.0
H13 H 0.31886 0.95262 0.68593 0.0
H14 H 0.24225 0.87782 0.58648 0.0
H15 H 0.32355 0.83234 0.66325 0.0
H16 H 0.29138 0.83283 0.54058 0.0
C17 C 0.28592 0.80757 0.56265 0.0
O18 O 0.26768 0.81602 0.60029 0.0
H19 H 0.26312 0.78116 0.54633 0.0
C20 C 0.30994 0.92479 0.66716 0.0
C21 C 0.32595 0.89358 0.67817 0.0
C22 C 0.27968 0.91936 0.63444 0.0
C23 C 0.26593 0.88261 0.6117 0.0
C24 C 0.2822 0.85159 0.62169 0.0
C25 C 0.31195 0.85691 0.65505 0.0
H26 H 0.74998 0.34852 0.96692 0.0
H27 H 0.65889 0.34597 0.86789 0.0
H28 H 0.76574 0.45094 0.88863 0.0
H29 H 0.67137 0.45384 0.87477 0.0
C30 C 0.66782 0.43697 0.84348 0.0
O31 O 0.69904 0.4178 0.84014 0.0
H32 H 0.63588 0.41407 0.84341 0.0
C33 C 0.73934 0.36324 0.94141 0.0
C34 C 0.76346 0.40254 0.93106 0.0
C35 C 0.701 0.34264 0.91988 0.0
C36 C 0.68774 0.36141 0.88561 0.0
C37 C 0.71146 0.40027 0.87402 0.0
C38 C 0.74869 0.42072 0.89722 0.0
H39 H 0.88015 0.77435 0.45888 0.0
H40 H 0.88126 0.67752 0.37128 0.0
H41 H 0.98617 0.78632 0.37268 0.0
H42 H 0.96585 0.74504 0.28384 0.0
C43 C 0.95089 0.71406 0.29452 0.0
O44 O 0.95646 0.71351 0.33843 0.0
H45 H 0.91619 0.70503 0.2867 0.0
C46 C 0.89598 0.76211 0.43382 0.0
C47 C 0.93566 0.78555 0.41815 0.0
C48 C 0.87586 0.72329 0.41711 0.0
C49 C 0.89586 0.7077 0.38383 0.0
C50 C 0.93562 0.73037 0.3677 0.0
C51 C 0.95518 0.76933 0.38469 0.0
H52 H 0.69781 0.85628 0.89092 0.0
H53 H 0.67125 0.81765 1.01988 0.0
H54 H 0.7769 0.79681 0.9534 0.0
H55 H 0.70912 0.72837 1.00539 0.0
C56 C 0.7324 0.74802 1.02866 0.0
O57 O 0.73429 0.78751 1.02454 0.0
H58 H 0.72092 0.73875 0.06131 0.0
C59 C 0.70486 0.84079 0.91791 0.0
C60 C 0.74 0.82576 0.91644 0.0
C61 C 0.68093 0.83949 0.95554 0.0
C62 C 0.68863 0.81818 0.99018 0.0
C63 C 0.7227 0.80209 0.98874 0.0
C64 C 0.74871 0.80662 0.95243 0.0
H65 H 0.88105 0.21496 0.46967 0.0
H66 H 0.85136 0.32598 0.47756 0.0
H67 H 0.91567 0.29253 0.58195 0.0
H68 H 0.87315 0.35695 0.61937 0.0
C69 C 0.85385 0.34104 0.59145 0.0
O70 O 0.88069 0.34445 0.55651 0.0
H71 H 0.83982 0.30936 0.6006 0.0
C72 C 0.8828 0.24267 0.48695 0.0
C73 C 0.90019 0.24985 0.52843 0.0
C74 C 0.86622 0.27037 0.46779 0.0
C75 C 0.86504 0.30476 0.49139 0.0
C76 C 0.88267 0.31225 0.53272 0.0
C77 C 0.90153 0.28568 0.55031 0.0
H78 H 0.39696 0.79689 0.17278 0.0
H79 H 0.3776 0.69419 0.25183 0.0
H80 H 0.48802 0.7959 0.27051 0.0
H81 H 0.48602 0.70167 0.26392 0.0
C82 C 0.46466 0.69505 0.29236 0.0
O83 O 0.44616 0.72544 0.29881 0.0
H84 H 0.439 0.66669 0.2849 0.0
C85 C 0.40687 0.78148 0.19811 0.0
C86 C 0.44572 0.80104 0.21953 0.0
C87 C 0.38163 0.74229 0.20831 0.0
C88 C 0.39537 0.72409 0.24291 0.0
C89 C 0.43348 0.74346 0.26549 0.0
C90 C 0.4586 0.78146 0.25322 0.0
H91 H 0.14619 0.36371 0.81787 0.0
H92 H 0.24425 0.47223 0.78435 0.0
H93 H 0.22234 0.36801 0.70368 0.0
H94 H 0.31035 0.4076 0.72203 0.0
C95 C 0.31057 0.43933 0.72351 0.0
O96 O 0.26972 0.4413 0.71659 0.0
H97 H 0.32127 0.45183 0.75618 0.0
C98 C 0.17105 0.38015 0.79664 0.0
C99 C 0.18033 0.36081 0.75866 0.0
C100 C 0.19422 0.42074 0.807 0.0
C101 C 0.22647 0.4411 0.77843 0.0
C102 C 0.23668 0.42191 0.74188 0.0
C103 C 0.21351 0.38231 0.73201 0.0
Gd104 Gd 0.07513 0.08505 0.55314 0.0
Gd105 Gd 0.05293 1.05175 0.64218 0.0
C106 C 0.09319 0.14502 0.63782 0.0
C107 C 0.08862 0.12595 0.48466 0.0
C108 C 0.12724 0.14321 0.45939 0.0
C109 C 0.15785 0.12295 0.45334 0.0
C110 C 0.13519 0.18163 0.44384 0.0
C111 C 0.20431 0.17979 0.41704 0.0
C112 C 0.17345 0.19983 0.42286 0.0
C113 C 0.196 0.14102 0.43205 0.0
C114 C 0.13571 1.05725 0.58684 0.0
C115 C 1.02373 0.99224 0.55637 0.0
C116 C 0.04157 1.01031 0.71009 0.0
C117 C 1.0036 0.97927 0.7242 0.0
C118 C 0.96524 0.97192 0.70127 0.0
C119 C 1.00402 0.96001 0.76256 0.0
C120 C 0.92691 0.93038 0.75781 0.0
C121 C 0.9658 0.9354 0.77921 0.0
C122 C 0.92707 0.94783 0.71812 0.0
C123 C 0.99346 0.07985 0.60648 0.0
O124 O 0.08073 0.13916 0.59724 0.0
O125 O 0.09327 0.11441 0.66126 0.0
O126 O 0.07372 0.08699 0.48405 0.0
O127 O 0.08873 0.1421 0.52292 0.0
O128 O 0.12891 1.05801 0.54635 0.0
O129 O 0.11336 0.075 0.60737 0.0
O130 O 0.03039 0.99603 0.59836 0.0
O131 O 0.03276 1.02392 0.53227 0.0
O132 O 0.03678 1.04586 0.70918 0.0
O133 O 0.06032 1.00129 0.67584 0.0
O134 O 0.99968 0.08035 0.64741 0.0
O135 O 1.01558 1.06103 0.58783 0.0
H136 H 0.15263 0.09343 0.46562 0.0
H137 H 0.11206 0.19778 0.44851 0.0
H138 H 0.17886 0.22955 0.41103 0.0
H139 H 0.21937 0.12506 0.42813 0.0
H140 H 0.9645 0.98658 0.67147 0.0
H141 H 0.03343 0.96551 0.78058 0.0
H142 H 0.96622 0.92248 0.81011 0.0
H143 H 0.8974 0.94433 0.70119 0.0
Gd144 Gd 0.62081 0.0887 0.10015 0.0
Gd145 Gd 0.53545 1.06382 0.06259 0.0
C146 C 0.54896 0.12639 0.13816 0.0
C147 C 0.69416 0.1284 0.13319 0.0
C148 C 0.70908 0.15248 0.17257 0.0
C149 C 0.68367 0.14694 0.20952 0.0
C150 C 0.74936 0.18125 0.17332 0.0
C151 C 0.74031 0.19684 0.2487 0.0
C152 C 0.76482 0.20333 0.21098 0.0
C153 C 0.69921 0.16884 0.24732 0.0
C154 C 0.56799 1.02039 0.13302 0.0
C155 C 0.6078 1.02651 1.02455 0.0
C156 C 0.46349 1.02479 1.0269 0.0
C157 C 0.45199 1.0079 0.98309 0.0
C158 C 0.43422 1.02839 0.95443 0.0
C159 C 0.46061 0.97274 0.96866 0.0
C160 C 0.43624 0.98044 0.89721 0.0
C161 C 0.45259 0.95903 0.92608 0.0
C162 C 0.4267 1.01496 0.91189 0.0
C163 C 0.58802 0.13143 1.02814 0.0
O164 O 0.58985 0.13175 0.13089 0.0
O165 O 0.51964 0.09547 0.12075 0.0
O166 O 0.67638 0.09012 0.13774 0.0
O167 O 0.67371 0.14345 0.1061 0.0
O168 O 0.60823 1.0266 0.12518 0.0
O169 O 0.55769 1.05132 0.1251 0.0
O170 O 0.56675 1.02039 1.03196 0.0
O171 O 0.63673 1.05756 1.04208 0.0
O172 O 0.47719 1.06374 1.03062 0.0
O173 O 0.48556 1.00788 1.05019 0.0
O174 O 0.54777 0.12497 1.03555 0.0
O175 O 0.59851 0.1008 1.03702 0.0
H176 H 0.65221 0.12511 0.20935 0.0
H177 H 0.76912 0.18628 0.14489 0.0
H178 H 0.79624 0.22517 0.21068 0.0
H179 H 0.67962 0.1628 0.2758 0.0
H180 H 0.42683 1.0553 0.96471 0.0
H181 H 0.47421 0.95614 0.98996 0.0
H182 H 0.46001 0.93223 0.91549 0.0
H183 H 0.4132 1.03153 0.89043 0.0
Gd184 Gd 0.58883 0.55448 0.53682 0.0
Gd185 Gd 0.59391 0.61976 0.60026 0.0
C186 C 0.62493 0.54818 0.63385 0.0
C187 C 0.60328 0.50077 0.48548 0.0
C188 C 0.61638 0.46515 0.49165 0.0
C189 C 0.61217 0.44814 0.53196 0.0
C190 C 0.63906 0.45191 0.45926 0.0
C191 C 0.65895 0.40953 0.50952 0.0
C192 C 0.66007 0.42397 0.46807 0.0
C193 C 0.63351 0.42058 0.54092 0.0
C194 C 0.51633 0.54548 0.58337 0.0
C195 C 0.55504 0.62297 0.50485 0.0
C196 C 0.5776 0.67446 0.64844 0.0
C197 C 0.54657 0.6967 0.64415 0.0
C198 C 0.53845 0.70978 0.60405 0.0
C199 C 0.52115 0.70062 0.67925 0.0
C200 C 0.47774 0.72758 0.63353 0.0
C201 C 0.48697 0.71593 0.674 0.0
C202 C 0.5044 0.72516 0.59882 0.0
C203 C 0.66865 0.62722 0.5596 0.0
O204 O 0.62163 0.53535 0.59311 0.0
O205 O 0.61311 0.57973 0.6459 0.0
O206 O 0.56508 0.4994 0.49891 0.0
O207 O 0.63231 0.53435 0.49629 0.0
O208 O 0.51609 0.5359 0.54286 0.0
O209 O 0.55418 0.55771 0.59665 0.0
O210 O 0.55224 0.63114 0.54631 0.0
O211 O 0.57461 0.59708 0.49203 0.0
O212 O 0.60907 0.68198 0.62095 0.0
O213 O 0.56062 0.63631 0.6544 0.0
O214 O 0.66503 0.63488 0.60009 0.0
O215 O 0.63217 0.61673 0.54175 0.0
H216 H 0.59454 0.45796 0.55722 0.0
H217 H 0.64273 0.465 0.42805 0.0
H218 H 0.67983 0.41607 0.44353 0.0
H219 H 0.63216 0.40964 0.57305 0.0
H220 H 0.55732 0.70673 0.57632 0.0
H221 H 0.52675 0.69043 0.71035 0.0
H222 H 0.46717 0.71784 0.70138 0.0
H223 H 0.49776 0.73339 0.56714 0.0
Gd224 Gd 0.07523 0.52662 0.08375 0.0
Gd225 Gd 0.08497 0.60355 1.03046 0.0
C226 C 0.15989 0.60661 0.09732 0.0
C227 C 0.0934 0.46309 0.10309 0.0
C228 C 0.12745 0.45655 0.12911 0.0
C229 C 0.13991 0.42229 0.1212 0.0
C230 C 0.15184 0.48698 0.157 0.0
C231 C 0.20271 0.45005 0.16647 0.0
C232 C 0.18917 0.48375 0.17562 0.0
C233 C 0.17711 0.41895 0.13986 0.0
C234 C 0.04761 0.58055 0.13119 0.0
C235 C 0.99511 0.52721 1.02689 0.0
C236 C 0.067 0.66327 0.99856 0.0
C237 C 0.02572 0.6716 0.99783 0.0
C238 C 1.01981 0.70204 0.97312 0.0
C239 C 0.99146 0.64832 1.02189 0.0
C240 C 0.9454 0.68483 0.99568 0.0
C241 C 0.95157 0.65455 1.02044 0.0
C242 C 0.9799 0.70891 0.97238 0.0
C243 C 0.11727 0.54768 0.99368 0.0
O244 O 0.14079 0.5681 0.10364 0.0
O245 O 0.14397 0.62757 0.07142 0.0
O246 O 0.06396 0.47494 0.12333 0.0
O247 O 0.10735 0.48285 0.06847 0.0
O248 O 0.0464 0.54555 0.14456 0.0
O249 O 0.06282 0.58361 0.09378 0.0
O250 O 1.01623 0.5649 1.01862 0.0
O251 O 1.01151 0.50481 1.05042 0.0
O252 O 0.06878 0.63209 0.97538 0.0
O253 O 0.08384 0.66473 1.03662 0.0
O254 O 0.13458 0.58605 0.98974 0.0
O255 O 0.08347 0.54176 1.01543 0.0
H256 H 0.12167 0.39873 0.09939 0.0
H257 H 0.14289 0.51388 0.16309 0.0
H258 H 0.20822 0.50824 0.19584 0.0
H259 H 0.18618 0.39222 0.13294 0.0
H260 H 0.04593 0.72041 0.95449 0.0
H261 H 0.99553 0.62538 1.04207 0.0
H262 H 0.92565 0.63611 1.03926 0.0
H263 H 0.97579 0.73258 0.95323 0.0
H264 H 0.35688 0.24658 0.29074 0.0
H265 H 0.3686 0.35385 0.36722 0.0
H266 H 0.31398 0.31623 0.41632 0.0
H267 H 0.25665 0.25493 0.43159 0.0
H268 H 0.24261 0.14828 0.35324 0.0
H269 H 0.30496 0.1833 0.31109 0.0
C270 C 0.34837 0.26138 0.31892 0.0
C271 C 0.36638 0.30282 0.32542 0.0
C272 C 0.31614 0.23981 0.34618 0.0
C273 C 0.35483 0.32192 0.36166 0.0
C274 C 0.32352 0.30051 0.38951 0.0
C275 C 0.26749 0.23937 0.40543 0.0
C276 C 0.24482 0.19941 0.39496 0.0
C277 C 0.30282 0.25981 0.38107 0.0
C278 C 0.2596 0.17915 0.36173 0.0
C279 C 0.29509 0.19917 0.33756 0.0
H280 H 0.39244 0.9581 0.70157 0.0
H281 H 0.32001 0.84085 0.74198 0.0
H282 H 0.35326 0.85567 0.81275 0.0
H283 H 0.39345 0.90594 0.86634 0.0
H284 H 0.46093 1.02483 0.82683 0.0
H285 H 0.4387 1.00569 0.75275 0.0
C286 C 0.38437 0.93562 0.72573 0.0
C287 C 0.35328 0.89875 0.71681 0.0
C288 C 0.40209 0.94497 0.7668 0.0
C289 C 0.34389 0.86949 0.74799 0.0
C290 C 0.36251 0.87811 0.78866 0.0
C291 C 0.40399 0.9273 0.84127 0.0
C292 C 0.4282 0.96684 0.8519 0.0
C293 C 0.39022 0.91634 0.79894 0.0
C294 C 0.44163 0.9944 0.81933 0.0
C295 C 0.42904 0.98346 0.77704 0.0
H296 H 0.6626 0.42073 0.75573 0.0
H297 H 0.67267 0.51612 0.84932 0.0
H298 H 0.66199 0.55906 0.79355 0.0
H299 H 0.64446 0.56842 0.71878 0.0
H300 H 0.63631 0.47409 0.62425 0.0
H301 H 0.65168 0.43254 0.67905 0.0
C302 C 0.66342 0.45122 0.76369 0.0
C303 C 0.6689 0.46511 0.80688 0.0
C304 C 0.65699 0.47603 0.73114 0.0
C305 C 0.66905 0.50459 0.81652 0.0
C306 C 0.66262 0.5292 0.78456 0.0
C307 C 0.64638 0.53891 0.70997 0.0
C308 C 0.63861 0.52453 0.66709 0.0
C309 C 0.6557 0.51506 0.74185 0.0
C310 C 0.64175 0.48618 0.65671 0.0
C311 C 0.65057 0.46221 0.68823 0.0
H312 H 0.98766 0.72215 0.215 0.0
H313 H 0.95499 0.64033 0.31831 0.0
H314 H 0.9822 0.59265 0.27731 0.0
H315 H 1.01445 0.57359 0.21155 0.0
H316 H 0.04557 0.65445 0.10748 0.0
H317 H 1.01992 0.70291 0.14891 0.0
C318 C 0.98705 0.69408 0.22874 0.0
C319 C 0.97046 0.68546 0.27034 0.0
C320 C 1.00227 0.66648 0.2046 0.0
C321 C 0.96863 0.64834 0.28701 0.0
C322 C 0.98397 0.62091 0.2634 0.0
C323 C 1.0157 0.60186 0.19792 0.0
C324 C 0.03206 0.61033 0.15623 0.0
C325 C 1.00078 0.62959 0.22212 0.0
C326 C 0.03329 0.6471 0.13924 0.0
C327 C 1.01858 0.67487 0.16307 0.0
H328 H 0.46598 0.25092 0.22146 0.0
H329 H 0.59461 0.32858 0.20514 0.0
H330 H 0.61756 0.27142 0.18072 0.0
H331 H 0.5998 0.2009 0.15886 0.0
H332 H 0.47005 0.12375 0.16993 0.0
H333 H 0.44864 0.17941 0.20166 0.0
C334 C 0.49898 0.25535 0.21231 0.0
C335 C 0.52838 0.29409 0.21371 0.0
C336 C 0.51162 0.22255 0.19737 0.0
C337 C 0.5713 0.29918 0.20325 0.0
C338 C 0.58437 0.26654 0.18939 0.0
C339 C 0.56689 0.19599 0.16868 0.0
C340 C 0.5365 0.15819 0.16196 0.0
C341 C 0.55462 0.22829 0.18555 0.0
C342 C 0.49401 0.15255 0.17467 0.0
C343 C 0.48176 0.18438 0.19268 0.0
H344 H 0.19556 0.91093 0.63237 0.0
H345 H 0.31941 0.99837 0.62108 0.0
H346 H 0.28557 1.05053 0.60951 0.0
H347 H 0.22002 0.07012 0.59903 0.0
H348 H 0.09724 0.98113 0.60846 0.0
H349 H 0.13097 0.93084 0.6252 0.0
C350 C 0.21505 0.94138 0.6271 0.0
C351 C 0.2597 0.95087 0.62685 0.0
C352 C 0.19548 0.97099 0.62095 0.0
C353 C 0.28485 0.99052 0.62106 0.0
C354 C 0.26555 1.02026 0.61456 0.0
C355 C 0.2009 1.03991 0.60593 0.0
C356 C 0.15618 1.02957 0.60436 0.0
C357 C 0.22083 1.01076 0.61419 0.0
C358 C 0.1315 0.99019 0.61162 0.0
C359 C 0.15089 0.96121 0.6204 0.0
H360 H 0.83558 0.46068 0.90362 0.0
H361 H 0.78302 0.3946 1.01577 0.0
H362 H 0.84959 0.42506 1.05402 0.0
H363 H 0.92397 0.47043 0.05629 0.0
H364 H 0.97239 0.54294 0.9478 0.0
H365 H 0.90613 0.51103 0.90851 0.0
C366 C 0.83795 0.45324 0.93665 0.0
C367 C 0.80376 0.42414 0.95578 0.0
C368 C 0.87598 0.47235 0.95959 0.0
C369 C 0.80872 0.41533 0.99886 0.0
C370 C 0.8469 0.43324 1.02129 0.0
C371 C 0.91987 0.47929 1.02411 0.0
C372 C 0.95328 0.50885 1.00497 0.0
C373 C 0.88097 0.46155 1.00193 0.0
C374 C 0.94721 0.52037 0.96342 0.0
C375 C 0.90931 0.502 0.9408 0.0
H376 H 0.85827 0.70919 0.50074 0.0
H377 H 0.80079 0.68338 0.37547 0.0
H378 H 0.7313 0.64931 0.40768 0.0
H379 H 0.6858 0.63056 0.47271 0.0
H380 H 0.74606 0.65606 0.59714 0.0
H381 H 0.81508 0.68621 0.56417 0.0
C382 C 0.83054 0.69593 0.48048 0.0
C383 C 0.83455 0.69916 0.43585 0.0
C384 C 0.79097 0.67641 0.49918 0.0
C385 C 0.79852 0.68126 0.40994 0.0
C386 C 0.75875 0.66195 0.42839 0.0
C387 C 0.71416 0.64238 0.49245 0.0
C388 C 0.71051 0.64145 0.53743 0.0
C389 C 0.75437 0.65984 0.47313 0.0
C390 C 0.74768 0.65667 0.56252 0.0
C391 C 0.78733 0.67401 0.54371 0.0
H392 H 0.35639 0.42909 0.27213 0.0
H393 H 0.37877 0.37592 0.15109 0.0
H394 H 0.32428 0.39881 0.11736 0.0
H395 H 0.26256 0.42395 0.12478 0.0
H396 H 0.23493 0.47054 0.24746 0.0
H397 H 0.29867 0.45981 0.27802 0.0
C398 C 0.34974 0.42296 0.23822 0.0
C399 C 0.37124 0.40017 0.21448 0.0
C400 C 0.31661 0.43418 0.21951 0.0
C401 C 0.36305 0.39351 0.17029 0.0
C402 C 0.3313 0.40605 0.15103 0.0
C403 C 0.2705 0.43178 0.15822 0.0
C404 C 0.24356 0.44727 0.18401 0.0
C405 C 0.30656 0.42466 0.1758 0.0
C406 C 0.25502 0.45845 0.22692 0.0
C407 C 0.29139 0.4522 0.24446 0.0
H408 H 0.72655 0.27925 0.94687 0.0
H409 H 0.61399 0.31598 0.92861 0.0
H410 H 0.56976 0.25426 0.95939 0.0
H411 H 0.56289 0.19108 0.99466 0.0
H412 H 0.67458 0.15329 1.01286 0.0
H413 H 0.71915 0.21419 0.97969 0.0
C414 C 0.69234 0.27384 0.94959 0.0
C415 C 0.6739 0.30273 0.93527 0.0
C416 C 0.66686 0.23808 0.96776 0.0
C417 C 0.62929 0.29446 0.93864 0.0
C418 C 0.60389 0.25917 0.95667 0.0
C419 C 0.59699 0.19603 0.99126 0.0
C420 C 0.61534 0.16758 1.00652 0.0
C421 C 0.62232 0.23098 0.97179 0.0
C422 C 0.65957 0.17458 1.00155 0.0
C423 C 0.68507 0.20948 0.98255 0.0
H424 H 0.94068 0.80942 0.50272 0.0
H425 H 0.97691 0.85453 0.37696 0.0
H426 H 1.00657 0.9222 0.40808 0.0
H427 H 1.02099 0.96911 0.47122 0.0
H428 H 0.98506 0.92292 0.59676 0.0
H429 H 0.95602 0.85562 0.56546 0.0
C430 C 0.95483 0.83404 0.48198 0.0
C431 C 0.95618 0.82665 0.43736 0.0
C432 C 0.97168 0.87294 0.5001 0.0
C433 C 0.9756 0.85904 0.41133 0.0
C434 C 0.99232 0.89789 0.42914 0.0
C435 C 1.00658 0.94437 0.49173 0.0
C436 C 1.00505 0.95141 0.53641 0.0
C437 C 0.99029 0.9053 0.47349 0.0
C438 C 0.98673 0.9187 0.56237 0.0
C439 C 0.97009 0.88004 0.54446 0.0
H440 H 0.29501 0.74843 0.61113 0.0
H441 H 0.36731 0.84633 0.53572 0.0
H442 H 0.43344 0.83116 0.55219 0.0
H443 H 0.47028 0.78942 0.58756 0.0
H444 H 0.39762 0.69179 0.66355 0.0
H445 H 0.33211 0.70797 0.64822 0.0
C446 C 0.32535 0.76626 0.59834 0.0
C447 C 0.32655 0.79811 0.57205 0.0
C448 C 0.36307 0.75769 0.60841 0.0
C449 C 0.36582 0.82144 0.55579 0.0
C450 C 0.40352 0.81287 0.56531 0.0
C451 C 0.44007 0.77173 0.60072 0.0
C452 C 0.43878 0.73949 0.62663 0.0
C453 C 0.40249 0.78098 0.5915 0.0
C454 C 0.39954 0.71709 0.64396 0.0
C455 C 0.36202 0.72609 0.63492 0.0
H456 H 0.76264 0.89318 0.87002 0.0
H457 H 0.78911 0.7809 0.88252 0.0
H458 H 0.84882 0.8026 0.83287 0.0
H459 H 0.89725 0.85623 0.79062 0.0
H460 H 0.86608 0.96557 0.77506 0.0
H461 H 0.80316 0.94141 0.82014 0.0
C462 C 0.78016 0.87255 0.86098 0.0
C463 C 0.77134 0.83551 0.88065 0.0
C464 C 0.81378 0.88478 0.83186 0.0
C465 C 0.79565 0.81001 0.86882 0.0
C466 C 0.82974 0.82229 0.84023 0.0
C467 C 0.87616 0.87431 0.79671 0.0
C468 C 0.88612 0.91258 0.77994 0.0
C469 C 0.83978 0.86007 0.82243 0.0
C470 C 0.85871 0.93589 0.78758 0.0
C471 C 0.82294 0.92221 0.8135 0.0
H472 H 0.78881 0.27028 0.43622 0.0
H473 H 0.90862 0.2521 0.39957 0.0
H474 H 0.881 0.2302 0.32769 0.0
H475 H 0.82128 0.21061 0.27758 0.0
H476 H 0.70059 0.22772 0.31289 0.0
H477 H 0.72988 0.25527 0.38307 0.0
C478 C 0.80895 0.26217 0.41215 0.0
C479 C 0.85052 0.26248 0.4231 0.0
C480 C 0.79256 0.24889 0.37094 0.0
C481 C 0.87635 0.25168 0.39186 0.0
C482 C 0.86059 0.23913 0.35082 0.0
C483 C 0.80155 0.22116 0.30016 0.0
C484 C 0.75876 0.21698 0.28991 0.0
C485 C 0.81849 0.23678 0.34032 0.0
C486 C 0.73349 0.23007 0.32012 0.0
C487 C 0.75027 0.24601 0.3602 0.0
H488 H 0.44551 0.69452 0.3801 0.0
H489 H 0.53917 0.67686 0.29045 0.0
H490 H 0.57528 0.65414 0.34741 0.0
H491 H 0.57837 0.63497 0.42159 0.0
H492 H 0.48792 0.65461 0.51371 0.0
H493 H 0.45304 0.681 0.45758 0.0
C494 C 0.47442 0.68665 0.37333 0.0
C495 C 0.48993 0.68827 0.33082 0.0
C496 C 0.49545 0.6734 0.40675 0.0
C497 C 0.52686 0.67681 0.32272 0.0
C498 C 0.54746 0.66344 0.35533 0.0
C499 C 0.55112 0.64518 0.42956 0.0
C500 C 0.53554 0.64219 0.47188 0.0
C501 C 0.5317 0.66091 0.39727 0.0
C502 C 0.5006 0.65631 0.4815 0.0
C503 C 0.48055 0.67136 0.44927 0.0
H504 H 0.11765 0.41577 0.84907 0.0
H505 H 0.25345 0.47578 0.85708 0.0
H506 H 0.24197 0.51997 0.91409 0.0
H507 H 0.19334 0.54524 0.95954 0.0
H508 H 0.05866 0.48159 0.9581 0.0
H509 H 0.06979 0.43545 0.90189 0.0
C510 C 0.14486 0.438 0.86367 0.0
C511 C 0.1863 0.44294 0.84703 0.0
C512 C 0.13826 0.46316 0.8979 0.0
C513 C 0.22092 0.47196 0.86734 0.0
C514 C 0.21451 0.4973 0.90048 0.0
C515 C 0.16652 0.52102 0.94719 0.0
C516 C 0.1252 0.51724 0.96281 0.0
C517 C 0.17328 0.49388 0.91544 0.0
C518 C 0.09086 0.48531 0.94674 0.0
C519 C 0.09719 0.45891 0.91439 0.0
H520 H 0.70651 0.91754 0.93849 0.0
H521 H 0.60039 0.82548 0.9896 0.0
H522 H 0.56518 0.87572 1.01042 0.0
H523 H 0.56889 0.94663 1.02096 0.0
H524 H 0.67903 1.03825 0.97577 0.0
H525 H 0.70815 0.98724 0.94481 0.0
C526 C 0.67509 0.90826 0.9531 0.0
C527 C 0.6558 0.86784 0.96214 0.0
C528 C 0.65604 0.93732 0.96625 0.0
C529 C 0.61571 0.85643 0.98223 0.0
C530 C 0.59572 0.88514 0.9942 0.0
C531 C 0.5988 0.95532 1.0035 0.0
C532 C 0.62187 0.99603 1.00049 0.0
C533 C 0.61616 0.9258 0.98737 0.0
C534 C 0.66089 1.00705 0.9785 0.0
C535 C 0.67754 0.97793 0.96092 0.0
H536 H 0.94143 0.20042 0.49172 0.0
H537 H 0.89198 0.23002 0.6127 0.0
H538 H 0.91613 0.17979 0.64741 0.0
H539 H 0.95123 0.12731 0.64352 0.0
H540 H 0.9953 0.09413 0.52163 0.0
H541 H 0.97194 0.14508 0.48685 0.0
C542 C 0.9353 0.19557 0.52554 0.0
C543 C 0.91519 0.21932 0.5495 0.0
C544 C 0.94792 0.16572 0.54509 0.0
C545 C 0.90831 0.21295 0.59354 0.0
C546 C 0.92165 0.18387 0.61341 0.0
C547 C 0.95528 0.13105 0.60929 0.0
C548 C 0.97512 0.10739 0.58513 0.0
C549 C 0.94147 0.1601 0.5895 0.0
C550 C 0.98018 0.11224 0.54082 0.0
C551 C 0.96698 0.1414 0.52097 0.0
H552 H 0.30979 0.6802 0.23137 0.0
H553 H 0.36343 0.75275 0.12361 0.0
H554 H 0.30008 0.71975 0.08178 0.0
H555 H 0.22885 0.6693 0.07411 0.0
H556 H 0.17997 0.59065 0.17781 0.0
H557 H 0.24229 0.62588 0.22157 0.0
C558 C 0.3085 0.68871 0.1986 0.0
C559 C 0.34219 0.72029 0.18192 0.0
C560 C 0.27243 0.66799 0.17329 0.0
C561 C 0.33819 0.7302 0.139 0.0
C562 C 0.30184 0.71074 0.11435 0.0
C563 C 0.2319 0.65983 0.10626 0.0
C564 C 0.19946 0.62737 0.12256 0.0
C565 C 0.26863 0.67964 0.13108 0.0
C566 C 0.20438 0.61531 0.16419 0.0
C567 C 0.24004 0.63563 0.18941 0.0
H568 H 0.38783 0.49525 0.73685 0.0
H569 H 0.30386 0.43111 0.63571 0.0
H570 H 0.35869 0.46044 0.58231 0.0
H571 H 0.43316 0.50084 0.56519 0.0
H572 H 0.51688 0.56149 0.66849 0.0
H573 H 0.45969 0.53763 0.71987 0.0
C574 C 0.38124 0.48827 0.70305 0.0
C575 C 0.34166 0.46151 0.69017 0.0
C576 C 0.41313 0.50457 0.67283 0.0
C577 C 0.33389 0.45214 0.6463 0.0
C578 C 0.36534 0.46872 0.61584 0.0
C579 C 0.43859 0.50918 0.59886 0.0
C580 C 0.4793 0.53314 0.61284 0.0
C581 C 0.40547 0.49448 0.62878 0.0
C582 C 0.48589 0.54344 0.65668 0.0
C583 C 0.45319 0.5296 0.68626 0.0
H584 H 0.75235 0.68239 0.9981 0.0
H585 H 0.81082 0.80246 1.04802 0.0
H586 H 0.88164 0.79455 1.03865 0.0
H587 H 0.92723 0.7528 1.01838 0.0
H588 H 0.86899 0.63111 0.97382 0.0
H589 H 0.798 0.64025 0.97859 0.0
C590 C 0.78068 0.70683 1.00659 0.0
C591 C 0.77634 0.74324 1.02259 0.0
C592 C 0.82138 0.70178 1.00203 0.0
C593 C 0.81325 0.77439 1.03467 0.0
C594 C 0.85381 0.76989 1.02943 0.0
C595 C 0.89894 0.72857 1.00922 0.0
C596 C 0.90308 0.69152 0.99543 0.0
C597 C 0.85828 0.73372 1.01323 0.0
C598 C 0.86633 0.65994 0.98439 0.0
C599 C 0.82584 0.66513 0.98722 0.0
H600 H 0.423 0.86724 0.19661 0.0
H601 H 0.53252 0.82489 0.20948 0.0
H602 H 0.57925 0.88825 0.18459 0.0
H603 H 0.58957 0.95557 0.15783 0.0
H604 H 0.48109 0.99921 0.14551 0.0
H605 H 0.4337 0.93578 0.17098 0.0
C606 C 0.45707 0.87179 0.19387 0.0
C607 C 0.47396 0.84093 0.20522 0.0
C608 C 0.48411 0.9087 0.17944 0.0
C609 C 0.51841 0.84793 0.20174 0.0
C610 C 0.54527 0.88422 0.18717 0.0
C611 C 0.55556 0.95131 0.16083 0.0
C612 C 0.53901 0.98229 0.14969 0.0
C613 C 0.52855 0.91481 0.17583 0.0
C614 C 0.4948 0.97605 0.15387 0.0
C615 C 0.46765 0.93968 0.16842 0.0
H616 H 0.14903 0.33141 0.68009 0.0
H617 H 0.16102 0.29368 0.80776 0.0
H618 H 0.13469 0.22341 0.78253 0.0
H619 H 0.11278 0.17239 0.72221 0.0
H620 H 0.10287 0.21308 0.59494 0.0
H621 H 0.12438 0.28182 0.62185 0.0
C622 C 0.14563 0.30785 0.70259 0.0
C623 C 0.15735 0.31807 0.7458 0.0
C624 C 0.1314 0.26771 0.68767 0.0
C625 C 0.15202 0.28692 0.77444 0.0
C626 C 0.13738 0.24665 0.75984 0.0
C627 C 0.11534 0.19629 0.70038 0.0
C628 C 0.10641 0.18701 0.65629 0.0
C629 C 0.12779 0.23658 0.71622 0.0
C630 C 0.10958 0.21872 0.62884 0.0
C631 C 0.12187 0.25835 0.64423 0.0
H632 H 0.78976 0.31275 0.53336 0.0
H633 H 0.83829 0.40654 0.62927 0.0
H634 H 0.77985 0.4338 0.61444 0.0
H635 H 0.71685 0.43232 0.5725 0.0
H636 H 0.67098 0.34207 0.47254 0.0
H637 H 0.72687 0.31192 0.49021 0.0
C638 C 0.78762 0.33935 0.5506 0.0
C639 C 0.81825 0.35793 0.58201 0.0
C640 C 0.75452 0.35524 0.54126 0.0
C641 C 0.81504 0.39197 0.60481 0.0
C642 C 0.7817 0.40748 0.59639 0.0
C643 C 0.71875 0.40564 0.5551 0.0
C644 C 0.68973 0.38889 0.52181 0.0
C645 C 0.75145 0.38945 0.56459 0.0
C646 C 0.69296 0.35507 0.49856 0.0
C647 C 0.72486 0.33801 0.50858 0.0
loop_
_geom_bond_atom_site_label_1
_geom_bond_atom_site_label_2
_geom_bond_distance
_geom_bond_site_symmetry_2
_ccdc_geom_bond_type
H0 C7 0.929 . S
H1 C10 0.930 . S
H2 C12 0.929 . S
H3 C4 0.969 . S
C4 H3 0.969 . S
C4 O5 1.550 . S
C4 H6 0.973 . S
O5 C4 1.550 . S
O5 C11 1.412 . S
H6 C4 0.973 . S
C7 H0 0.929 . S
C7 C8 1.400 . S
C7 C9 1.364 . S
C8 C7 1.400 . S
C8 C12 1.377 . S
C9 C7 1.364 . S
C9 C10 1.374 . S
C10 H1 0.930 . S
C10 C9 1.374 . S
C10 C11 1.383 . S
C11 O5 1.412 . S
C11 C10 1.383 . S
C11 C12 1.394 . S
C12 H2 0.929 . S
C12 C8 1.377 . S
C12 C11 1.394 . S
H13 C20 0.929 . S
H14 C23 0.930 . S
H15 C25 0.929 . S
H16 C17 0.969 . S
C17 H16 0.969 . S
C17 O18 1.550 . S
C17 H19 0.973 . S
O18 C17 1.550 . S
O18 C24 1.412 . S
H19 C17 0.973 . S
C20 H13 0.929 . S
C20 C21 1.400 . S
C20 C22 1.364 . S
C21 C20 1.400 . S
C21 C25 1.377 . S
C22 C20 1.364 . S
C22 C23 1.374 . S
C23 H14 0.930 . S
C23 C22 1.374 . S
C23 C24 1.383 . S
C24 O18 1.412 . S
C24 C23 1.383 . S
C24 C25 1.394 . S
C25 H15 0.929 . S
C25 C21 1.377 . S
C25 C24 1.394 . S
H26 C33 0.929 . S
H27 C36 0.930 . S
H28 C38 0.929 . S
H29 C30 0.969 . S
C30 H29 0.969 . S
C30 O31 1.550 . S
C30 H32 0.973 . S
O31 C30 1.550 . S
O31 C37 1.412 . S
H32 C30 0.973 . S
C33 H26 0.929 . S
C33 C34 1.400 . S
C33 C35 1.364 . S
C34 C33 1.400 . S
C34 C38 1.377 . S
C35 C33 1.364 . S
C35 C36 1.374 . S
C36 H27 0.930 . S
C36 C35 1.374 . S
C36 C37 1.383 . S
C37 O31 1.412 . S
C37 C36 1.383 . S
C37 C38 1.394 . S
C38 H28 0.929 . S
C38 C34 1.377 . S
C38 C37 1.394 . S
H39 C46 0.929 . S
H40 C49 0.930 . S
H41 C51 0.929 . S
H42 C43 0.969 . S
C43 H42 0.969 . S
C43 O44 1.550 . S
C43 H45 0.973 . S
O44 C43 1.550 . S
O44 C50 1.412 . S
H45 C43 0.973 . S
C46 H39 0.929 . S
C46 C47 1.400 . S
C46 C48 1.364 . S
C47 C46 1.400 . S
C47 C51 1.377 . S
C48 C46 1.364 . S
C48 C49 1.374 . S
C49 H40 0.930 . S
C49 C48 1.374 . S
C49 C50 1.383 . S
C50 O44 1.412 . S
C50 C49 1.383 . S
C50 C51 1.394 . S
C51 H41 0.929 . S
C51 C47 1.377 . S
C51 C50 1.394 . S
H52 C59 0.929 . S
H53 C62 0.930 . S
H54 C64 0.929 . S
H55 C56 0.969 . S
C56 H55 0.969 . S
C56 O57 1.550 . S
C56 H58 0.973 . S
O57 C56 1.550 . S
O57 C63 1.412 . S
H58 C56 0.973 . S
C59 H52 0.929 . S
C59 C60 1.400 . S
C59 C61 1.364 . S
C60 C59 1.400 . S
C60 C64 1.377 . S
C61 C59 1.364 . S
C61 C62 1.374 . S
C62 H53 0.930 . S
C62 C61 1.374 . S
C62 C63 1.383 . S
C63 O57 1.412 . S
C63 C62 1.383 . S
C63 C64 1.394 . S
C64 H54 0.929 . S
C64 C60 1.377 . S
C64 C63 1.394 . S
H65 C72 0.929 . S
H66 C75 0.930 . S
H67 C77 0.929 . S
H68 C69 0.969 . S
C69 H68 0.969 . S
C69 O70 1.550 . S
C69 H71 0.973 . S
O70 C69 1.550 . S
O70 C76 1.412 . S
H71 C69 0.973 . S
C72 H65 0.929 . S
C72 C73 1.400 . S
C72 C74 1.364 . S
C73 C72 1.400 . S
C73 C77 1.377 . S
C74 C72 1.364 . S
C74 C75 1.374 . S
C75 H66 0.930 . S
C75 C74 1.374 . S
C75 C76 1.383 . S
C76 O70 1.412 . S
C76 C75 1.383 . S
C76 C77 1.394 . S
C77 H67 0.929 . S
C77 C73 1.377 . S
C77 C76 1.394 . S
H78 C85 0.929 . S
H79 C88 0.930 . S
H80 C90 0.929 . S
H81 C82 0.969 . S
C82 H81 0.969 . S
C82 O83 1.550 . S
C82 H84 0.973 . S
O83 C82 1.550 . S
O83 C89 1.412 . S
H84 C82 0.973 . S
C85 H78 0.929 . S
C85 C86 1.400 . S
C85 C87 1.364 . S
C86 C85 1.400 . S
C86 C90 1.377 . S
C87 C85 1.364 . S
C87 C88 1.374 . S
C88 H79 0.930 . S
C88 C87 1.374 . S
C88 C89 1.383 . S
C89 O83 1.412 . S
C89 C88 1.383 . S
C89 C90 1.394 . S
C90 H80 0.929 . S
C90 C86 1.377 . S
C90 C89 1.394 . S
H91 C98 0.929 . S
H92 C101 0.930 . S
H93 C103 0.929 . S
H94 C95 0.969 . S
C95 H94 0.969 . S
C95 O96 1.550 . S
C95 H97 0.973 . S
O96 C95 1.550 . S
O96 C102 1.412 . S
H97 C95 0.973 . S
C98 H91 0.929 . S
C98 C99 1.400 . S
C98 C100 1.364 . S
C99 C98 1.400 . S
C99 C103 1.377 . S
C100 C98 1.364 . S
C100 C101 1.374 . S
C101 H92 0.930 . S
C101 C100 1.374 . S
C101 C102 1.383 . S
C102 O96 1.412 . S
C102 C101 1.383 . S
C102 C103 1.394 . S
C103 H93 0.929 . S
C103 C99 1.377 . S
C103 C102 1.394 . S
Gd104 C107 2.818 . S
Gd104 O124 2.377 . S
Gd104 O126 2.448 . S
Gd104 O127 2.506 . S
Gd104 O128 2.435 . S
Gd104 O129 2.717 1_545 S
Gd104 O131 2.395 1_545 S
Gd104 O135 2.327 . S
Gd105 C116 2.818 1_545 S
Gd105 O125 2.395 1_655 S
Gd105 O129 2.327 1_645 S
Gd105 O130 2.377 1_545 S
Gd105 O132 2.448 1_545 S
Gd105 O133 2.506 1_545 S
Gd105 O134 2.435 . S
Gd105 O135 2.717 1_655 S
C106 O124 1.240 . S
C106 O125 1.240 . S
C107 Gd104 2.818 . S
C107 C108 1.510 . S
C107 O126 1.249 . S
C107 O127 1.252 . S
C108 C107 1.510 . S
C108 C109 1.404 . S
C108 C110 1.352 . S
C109 C108 1.404 . S
C109 C113 1.389 . S
C109 H136 0.930 . S
C110 C108 1.352 . S
C110 C112 1.374 . S
C110 H137 0.931 . S
C111 C112 1.359 . S
C111 C113 1.364 . S
C112 C110 1.374 . S
C112 C111 1.359 . S
C112 H138 0.931 . S
C113 C109 1.389 . S
C113 C111 1.364 . S
C113 H139 0.931 . S
C114 O128 1.256 1_565 S
C114 O129 1.257 . S
C115 O130 1.240 . S
C115 O131 1.240 1_655 S
C116 Gd105 2.818 1_565 S
C116 C117 1.510 . S
C116 O132 1.249 . S
C116 O133 1.252 . S
C117 C116 1.510 . S
C117 C118 1.404 . S
C117 C119 1.352 . S
C118 C117 1.404 . S
C118 C122 1.389 . S
C118 H140 0.930 . S
C119 C117 1.352 . S
C119 C121 1.374 . S
C119 H141 0.931 . S
C120 C121 1.359 . S
C120 C122 1.364 . S
C121 C119 1.374 . S
C121 C120 1.359 . S
C121 H142 0.931 . S
C122 C118 1.389 . S
C122 C120 1.364 . S
C122 H143 0.931 . S
C123 O134 1.256 . S
C123 O135 1.257 1_655 S
O124 Gd104 2.377 . S
O124 C106 1.240 . S
O125 Gd105 2.395 1_455 S
O125 C106 1.240 . S
O126 Gd104 2.448 . S
O126 C107 1.249 . S
O127 Gd104 2.506 . S
O127 C107 1.252 . S
O128 Gd104 2.435 . S
O128 C114 1.256 1_545 S
O129 Gd104 2.717 1_565 S
O129 Gd105 2.327 1_465 S
O129 C114 1.257 . S
O130 Gd105 2.377 1_565 S
O130 C115 1.240 . S
O131 Gd104 2.395 1_565 S
O131 C115 1.240 1_455 S
O132 Gd105 2.448 1_565 S
O132 C116 1.249 . S
O133 Gd105 2.506 1_565 S
O133 C116 1.252 . S
O134 Gd105 2.435 . S
O134 C123 1.256 . S
O135 Gd104 2.327 . S
O135 Gd105 2.717 1_455 S
O135 C123 1.257 1_455 S
H136 C109 0.930 . S
H137 C110 0.931 . S
H138 C112 0.931 . S
H139 C113 0.931 . S
H140 C118 0.930 . S
H141 C119 0.931 . S
H142 C121 0.931 . S
H143 C122 0.931 . S
Gd144 C147 2.818 . S
Gd144 O164 2.377 . S
Gd144 O166 2.448 . S
Gd144 O167 2.506 . S
Gd144 O168 2.435 1_545 S
Gd144 O169 2.717 1_545 S
Gd144 O171 2.395 1_544 S
Gd144 O175 2.327 1_554 S
Gd145 C156 2.818 1_545 S
Gd145 O165 2.395 1_556 S
Gd145 O169 2.327 1_546 S
Gd145 O170 2.377 1_545 S
Gd145 O172 2.448 1_545 S
Gd145 O173 2.506 1_545 S
Gd145 O174 2.435 . S
Gd145 O175 2.717 . S
C146 O164 1.240 . S
C146 O165 1.240 . S
C147 Gd144 2.818 . S
C147 C148 1.510 . S
C147 O166 1.249 . S
C147 O167 1.252 . S
C148 C147 1.510 . S
C148 C149 1.404 . S
C148 C150 1.352 . S
C149 C148 1.404 . S
C149 C153 1.389 . S
C149 H176 0.930 . S
C150 C148 1.352 . S
C150 C152 1.374 . S
C150 H177 0.931 . S
C151 C152 1.359 . S
C151 C153 1.364 . S
C152 C150 1.374 . S
C152 C151 1.359 . S
C152 H178 0.931 . S
C153 C149 1.389 . S
C153 C151 1.364 . S
C153 H179 0.931 . S
C154 O168 1.256 . S
C154 O169 1.257 . S
C155 O170 1.240 . S
C155 O171 1.240 . S
C156 Gd145 2.818 1_565 S
C156 C157 1.510 . S
C156 O172 1.249 . S
C156 O173 1.252 . S
C157 C156 1.510 . S
C157 C158 1.404 . S
C157 C159 1.352 . S
C158 C157 1.404 . S
C158 C162 1.389 . S
C158 H180 0.930 . S
C159 C157 1.352 . S
C159 C161 1.374 . S
C159 H181 0.931 . S
C160 C161 1.359 . S
C160 C162 1.364 . S
C161 C159 1.374 . S
C161 C160 1.359 . S
C161 H182 0.931 . S
C162 C158 1.389 . S
C162 C160 1.364 . S
C162 H183 0.931 . S
C163 O174 1.256 . S
C163 O175 1.257 . S
O164 Gd144 2.377 . S
O164 C146 1.240 . S
O165 Gd145 2.395 1_554 S
O165 C146 1.240 . S
O166 Gd144 2.448 . S
O166 C147 1.249 . S
O167 Gd144 2.506 . S
O167 C147 1.252 . S
O168 Gd144 2.435 1_565 S
O168 C154 1.256 . S
O169 Gd144 2.717 1_565 S
O169 Gd145 2.327 1_564 S
O169 C154 1.257 . S
O170 Gd145 2.377 1_565 S
O170 C155 1.240 . S
O171 Gd144 2.395 1_566 S
O171 C155 1.240 . S
O172 Gd145 2.448 1_565 S
O172 C156 1.249 . S
O173 Gd145 2.506 1_565 S
O173 C156 1.252 . S
O174 Gd145 2.435 . S
O174 C163 1.256 . S
O175 Gd144 2.327 1_556 S
O175 Gd145 2.717 . S
O175 C163 1.257 . S
H176 C149 0.930 . S
H177 C150 0.931 . S
H178 C152 0.931 . S
H179 C153 0.931 . S
H180 C158 0.930 . S
H181 C159 0.931 . S
H182 C161 0.931 . S
H183 C162 0.931 . S
Gd184 C187 2.818 . S
Gd184 O204 2.377 . S
Gd184 O206 2.448 . S
Gd184 O207 2.506 . S
Gd184 O208 2.435 . S
Gd184 O209 2.717 . S
Gd184 O211 2.395 . S
Gd184 O215 2.327 . S
Gd185 C196 2.818 . S
Gd185 O205 2.395 . S
Gd185 O209 2.327 . S
Gd185 O210 2.377 . S
Gd185 O212 2.448 . S
Gd185 O213 2.506 . S
Gd185 O214 2.435 . S
Gd185 O215 2.717 . S
C186 O204 1.240 . S
C186 O205 1.240 . S
C187 Gd184 2.818 . S
C187 C188 1.510 . S
C187 O206 1.249 . S
C187 O207 1.252 . S
C188 C187 1.510 . S
C188 C189 1.404 . S
C188 C190 1.352 . S
C189 C188 1.404 . S
C189 C193 1.389 . S
C189 H216 0.930 . S
C190 C188 1.352 . S
C190 C192 1.374 . S
C190 H217 0.931 . S
C191 C192 1.359 . S
C191 C193 1.364 . S
C192 C190 1.374 . S
C192 C191 1.359 . S
C192 H218 0.931 . S
C193 C189 1.389 . S
C193 C191 1.364 . S
C193 H219 0.931 . S
C194 O208 1.256 . S
C194 O209 1.257 . S
C195 O210 1.240 . S
C195 O211 1.240 . S
C196 Gd185 2.818 . S
C196 C197 1.510 . S
C196 O212 1.249 . S
C196 O213 1.252 . S
C197 C196 1.510 . S
C197 C198 1.404 . S
C197 C199 1.352 . S
C198 C197 1.404 . S
C198 C202 1.389 . S
C198 H220 0.930 . S
C199 C197 1.352 . S
C199 C201 1.374 . S
C199 H221 0.931 . S
C200 C201 1.359 . S
C200 C202 1.364 . S
C201 C199 1.374 . S
C201 C200 1.359 . S
C201 H222 0.931 . S
C202 C198 1.389 . S
C202 C200 1.364 . S
C202 H223 0.931 . S
C203 O214 1.256 . S
C203 O215 1.257 . S
O204 Gd184 2.377 . S
O204 C186 1.240 . S
O205 Gd185 2.395 . S
O205 C186 1.240 . S
O206 Gd184 2.448 . S
O206 C187 1.249 . S
O207 Gd184 2.506 . S
O207 C187 1.252 . S
O208 Gd184 2.435 . S
O208 C194 1.256 . S
O209 Gd184 2.717 . S
O209 Gd185 2.327 . S
O209 C194 1.257 . S
O210 Gd185 2.377 . S
O210 C195 1.240 . S
O211 Gd184 2.395 . S
O211 C195 1.240 . S
O212 Gd185 2.448 . S
O212 C196 1.249 . S
O213 Gd185 2.506 . S
O213 C196 1.252 . S
O214 Gd185 2.435 . S
O214 C203 1.256 . S
O215 Gd184 2.327 . S
O215 Gd185 2.717 . S
O215 C203 1.257 . S
H216 C189 0.930 . S
H217 C190 0.931 . S
H218 C192 0.931 . S
H219 C193 0.931 . S
H220 C198 0.930 . S
H221 C199 0.931 . S
H222 C201 0.931 . S
H223 C202 0.931 . S
Gd224 C227 2.818 . S
Gd224 O244 2.377 . S
Gd224 O246 2.448 . S
Gd224 O247 2.506 . S
Gd224 O248 2.435 . S
Gd224 O249 2.717 . S
Gd224 O251 2.395 1_455 S
Gd224 O255 2.327 . S
Gd225 C236 2.818 1_454 S
Gd225 O245 2.395 . S
Gd225 O249 2.327 . S
Gd225 O250 2.377 1_454 S
Gd225 O252 2.448 1_554 S
Gd225 O253 2.506 1_455 S
Gd225 O254 2.435 1_554 S
Gd225 O255 2.717 . S
C226 O244 1.240 . S
C226 O245 1.240 . S
C227 Gd224 2.818 . S
C227 C228 1.510 . S
C227 O246 1.249 . S
C227 O247 1.252 . S
C228 C227 1.510 . S
C228 C229 1.404 . S
C228 C230 1.352 . S
C229 C228 1.404 . S
C229 C233 1.389 . S
C229 H256 0.930 . S
C230 C228 1.352 . S
C230 C232 1.374 . S
C230 H257 0.931 . S
C231 C232 1.359 . S
C231 C233 1.364 . S
C232 C230 1.374 . S
C232 C231 1.359 . S
C232 H258 0.931 . S
C233 C229 1.389 . S
C233 C231 1.364 . S
C233 H259 0.931 . S
C234 O248 1.256 . S
C234 O249 1.257 . S
C235 O250 1.240 1_554 S
C235 O251 1.240 . S
C236 Gd225 2.818 1_656 S
C236 C237 1.510 . S
C236 O252 1.249 1_655 S
C236 O253 1.252 1_556 S
C237 C236 1.510 . S
C237 C238 1.404 . S
C237 C239 1.352 . S
C238 C237 1.404 . S
C238 C242 1.389 . S
C238 H260 0.930 . S
C239 C237 1.352 . S
C239 C241 1.374 . S
C239 H261 0.931 1_556 S
C240 C241 1.359 . S
C240 C242 1.364 . S
C241 C239 1.374 . S
C241 C240 1.359 . S
C241 H262 0.931 . S
C242 C238 1.389 . S
C242 C240 1.364 . S
C242 H263 0.931 . S
C243 O254 1.256 . S
C243 O255 1.257 1_556 S
O244 Gd224 2.377 . S
O244 C226 1.240 . S
O245 Gd225 2.395 . S
O245 C226 1.240 . S
O246 Gd224 2.448 . S
O246 C227 1.249 . S
O247 Gd224 2.506 . S
O247 C227 1.252 . S
O248 Gd224 2.435 . S
O248 C234 1.256 . S
O249 Gd224 2.717 . S
O249 Gd225 2.327 . S
O249 C234 1.257 . S
O250 Gd225 2.377 1_656 S
O250 C235 1.240 1_556 S
O251 Gd224 2.395 1_655 S
O251 C235 1.240 . S
O252 Gd225 2.448 1_556 S
O252 C236 1.249 1_455 S
O253 Gd225 2.506 1_655 S
O253 C236 1.252 1_554 S
O254 Gd225 2.435 1_556 S
O254 C243 1.256 . S
O255 Gd224 2.327 . S
O255 Gd225 2.717 . S
O255 C243 1.257 1_554 S
H256 C229 0.930 . S
H257 C230 0.931 . S
H258 C232 0.931 . S
H259 C233 0.931 . S
H260 C238 0.930 . S
H261 C239 0.931 1_554 S
H262 C241 0.931 . S
H263 C242 0.931 . S
H264 C270 0.930 . S
H265 C273 0.930 . S
H266 C274 0.930 . S
H267 C275 0.930 . S
H268 C278 0.930 . S
H269 C279 0.930 . S
C270 H264 0.930 . S
C270 C271 1.355 . S
C270 C272 1.415 . S
C271 C270 1.355 . S
C271 C273 1.419 . S
C272 C270 1.415 . S
C272 C277 1.425 . S
C272 C279 1.409 . S
C273 H265 0.930 . S
C273 C271 1.419 . S
C273 C274 1.362 . S
C274 H266 0.930 . S
C274 C273 1.362 . S
C274 C277 1.409 . S
C275 H267 0.930 . S
C275 C276 1.355 . S
C275 C277 1.415 . S
C276 C275 1.355 . S
C276 C278 1.419 . S
C277 C272 1.425 . S
C277 C274 1.409 . S
C277 C275 1.415 . S
C278 H268 0.930 . S
C278 C276 1.419 . S
C278 C279 1.362 . S
C279 H269 0.930 . S
C279 C272 1.409 . S
C279 C278 1.362 . S
H280 C286 0.930 . S
H281 C289 0.930 . S
H282 C290 0.930 . S
H283 C291 0.930 . S
H284 C294 0.930 . S
H285 C295 0.930 . S
C286 H280 0.930 . S
C286 C287 1.355 . S
C286 C288 1.415 . S
C287 C286 1.355 . S
C287 C289 1.419 . S
C288 C286 1.415 . S
C288 C293 1.425 . S
C288 C295 1.409 . S
C289 H281 0.930 . S
C289 C287 1.419 . S
C289 C290 1.362 . S
C290 H282 0.930 . S
C290 C289 1.362 . S
C290 C293 1.409 . S
C291 H283 0.930 . S
C291 C292 1.355 . S
C291 C293 1.415 . S
C292 C291 1.355 . S
C292 C294 1.419 . S
C293 C288 1.425 . S
C293 C290 1.409 . S
C293 C291 1.415 . S
C294 H284 0.930 . S
C294 C292 1.419 . S
C294 C295 1.362 . S
C295 H285 0.930 . S
C295 C288 1.409 . S
C295 C294 1.362 . S
H296 C302 0.930 . S
H297 C305 0.930 . S
H298 C306 0.930 . S
H299 C307 0.930 . S
H300 C310 0.930 . S
H301 C311 0.930 . S
C302 H296 0.930 . S
C302 C303 1.355 . S
C302 C304 1.415 . S
C303 C302 1.355 . S
C303 C305 1.419 . S
C304 C302 1.415 . S
C304 C309 1.425 . S
C304 C311 1.409 . S
C305 H297 0.930 . S
C305 C303 1.419 . S
C305 C306 1.362 . S
C306 H298 0.930 . S
C306 C305 1.362 . S
C306 C309 1.409 . S
C307 H299 0.930 . S
C307 C308 1.355 . S
C307 C309 1.415 . S
C308 C307 1.355 . S
C308 C310 1.419 . S
C309 C304 1.425 . S
C309 C306 1.409 . S
C309 C307 1.415 . S
C310 H300 0.930 . S
C310 C308 1.419 . S
C310 C311 1.362 . S
C311 H301 0.930 . S
C311 C304 1.409 . S
C311 C310 1.362 . S
H312 C318 0.930 . S
H313 C321 0.930 1_455 S
H314 C322 0.930 . S
H315 C323 0.930 . S
H316 C326 0.930 . S
H317 C327 0.930 . S
C318 H312 0.930 . S
C318 C319 1.355 . S
C318 C320 1.415 . S
C319 C318 1.355 . S
C319 C321 1.419 . S
C320 C318 1.415 . S
C320 C325 1.425 . S
C320 C327 1.409 . S
C321 H313 0.930 1_655 S
C321 C319 1.419 . S
C321 C322 1.362 1_655 S
C322 H314 0.930 . S
C322 C321 1.362 1_455 S
C322 C325 1.409 1_455 S
C323 H315 0.930 . S
C323 C324 1.355 1_455 S
C323 C325 1.415 1_455 S
C324 C323 1.355 1_655 S
C324 C326 1.419 . S
C325 C320 1.425 . S
C325 C322 1.409 1_655 S
C325 C323 1.415 1_655 S
C326 H316 0.930 . S
C326 C324 1.419 . S
C326 C327 1.362 . S
C327 H317 0.930 . S
C327 C320 1.409 . S
C327 C326 1.362 . S
H328 C334 0.930 . S
H329 C337 0.930 . S
H330 C338 0.930 . S
H331 C339 0.930 . S
H332 C342 0.930 . S
H333 C343 0.930 . S
C334 H328 0.930 . S
C334 C335 1.355 . S
C334 C336 1.415 . S
C335 C334 1.355 . S
C335 C337 1.419 . S
C336 C334 1.415 . S
C336 C341 1.425 . S
C336 C343 1.409 . S
C337 H329 0.930 . S
C337 C335 1.419 . S
C337 C338 1.362 . S
C338 H330 0.930 . S
C338 C337 1.362 . S
C338 C341 1.409 . S
C339 H331 0.930 . S
C339 C340 1.355 . S
C339 C341 1.415 . S
C340 C339 1.355 . S
C340 C342 1.419 . S
C341 C336 1.425 . S
C341 C338 1.409 . S
C341 C339 1.415 . S
C342 H332 0.930 . S
C342 C340 1.419 . S
C342 C343 1.362 . S
C343 H333 0.930 . S
C343 C336 1.409 . S
C343 C342 1.362 . S
H344 C350 0.930 . S
H345 C353 0.930 . S
H346 C354 0.930 . S
H347 C355 0.930 . S
H348 C358 0.930 . S
H349 C359 0.930 . S
C350 H344 0.930 . S
C350 C351 1.355 . S
C350 C352 1.415 . S
C351 C350 1.355 . S
C351 C353 1.419 . S
C352 C350 1.415 . S
C352 C357 1.425 . S
C352 C359 1.409 . S
C353 H345 0.930 . S
C353 C351 1.419 . S
C353 C354 1.362 . S
C354 H346 0.930 . S
C354 C353 1.362 . S
C354 C357 1.409 . S
C355 H347 0.930 . S
C355 C356 1.355 . S
C355 C357 1.415 . S
C356 C355 1.355 . S
C356 C358 1.419 . S
C357 C352 1.425 . S
C357 C354 1.409 . S
C357 C355 1.415 . S
C358 H348 0.930 . S
C358 C356 1.419 . S
C358 C359 1.362 . S
C359 H349 0.930 . S
C359 C352 1.409 . S
C359 C358 1.362 . S
H360 C366 0.930 . S
H361 C369 0.930 . S
H362 C370 0.930 . S
H363 C371 0.930 1_554 S
H364 C374 0.930 . S
H365 C375 0.930 . S
C366 H360 0.930 . S
C366 C367 1.355 . S
C366 C368 1.415 . S
C367 C366 1.355 . S
C367 C369 1.419 . S
C368 C366 1.415 . S
C368 C373 1.425 . S
C368 C375 1.409 . S
C369 H361 0.930 . S
C369 C367 1.419 . S
C369 C370 1.362 . S
C370 H362 0.930 . S
C370 C369 1.362 . S
C370 C373 1.409 . S
C371 H363 0.930 1_556 S
C371 C372 1.355 . S
C371 C373 1.415 . S
C372 C371 1.355 . S
C372 C374 1.419 . S
C373 C368 1.425 . S
C373 C370 1.409 . S
C373 C371 1.415 . S
C374 H364 0.930 . S
C374 C372 1.419 . S
C374 C375 1.362 . S
C375 H365 0.930 . S
C375 C368 1.409 . S
C375 C374 1.362 . S
H376 C382 0.930 . S
H377 C385 0.930 . S
H378 C386 0.930 . S
H379 C387 0.930 . S
H380 C390 0.930 . S
H381 C391 0.930 . S
C382 H376 0.930 . S
C382 C383 1.355 . S
C382 C384 1.415 . S
C383 C382 1.355 . S
C383 C385 1.419 . S
C384 C382 1.415 . S
C384 C389 1.425 . S
C384 C391 1.409 . S
C385 H377 0.930 . S
C385 C383 1.419 . S
C385 C386 1.362 . S
C386 H378 0.930 . S
C386 C385 1.362 . S
C386 C389 1.409 . S
C387 H379 0.930 . S
C387 C388 1.355 . S
C387 C389 1.415 . S
C388 C387 1.355 . S
C388 C390 1.419 . S
C389 C384 1.425 . S
C389 C386 1.409 . S
C389 C387 1.415 . S
C390 H380 0.930 . S
C390 C388 1.419 . S
C390 C391 1.362 . S
C391 H381 0.930 . S
C391 C384 1.409 . S
C391 C390 1.362 . S
H392 C398 0.930 . S
H393 C401 0.930 . S
H394 C402 0.930 . S
H395 C403 0.930 . S
H396 C406 0.930 . S
H397 C407 0.930 . S
C398 H392 0.930 . S
C398 C399 1.355 . S
C398 C400 1.415 . S
C399 C398 1.355 . S
C399 C401 1.419 . S
C400 C398 1.415 . S
C400 C405 1.425 . S
C400 C407 1.409 . S
C401 H393 0.930 . S
C401 C399 1.419 . S
C401 C402 1.362 . S
C402 H394 0.930 . S
C402 C401 1.362 . S
C402 C405 1.409 . S
C403 H395 0.930 . S
C403 C404 1.355 . S
C403 C405 1.415 . S
C404 C403 1.355 . S
C404 C406 1.419 . S
C405 C400 1.425 . S
C405 C402 1.409 . S
C405 C403 1.415 . S
C406 H396 0.930 . S
C406 C404 1.419 . S
C406 C407 1.362 . S
C407 H397 0.930 . S
C407 C400 1.409 . S
C407 C406 1.362 . S
H408 C414 0.930 . S
H409 C417 0.930 . S
H410 C418 0.930 . S
H411 C419 0.930 . S
H412 C422 0.930 . S
H413 C423 0.930 . S
C414 H408 0.930 . S
C414 C415 1.355 . S
C414 C416 1.415 . S
C415 C414 1.355 . S
C415 C417 1.419 . S
C416 C414 1.415 . S
C416 C421 1.425 . S
C416 C423 1.409 . S
C417 H409 0.930 . S
C417 C415 1.419 . S
C417 C418 1.362 . S
C418 H410 0.930 . S
C418 C417 1.362 . S
C418 C421 1.409 . S
C419 H411 0.930 . S
C419 C420 1.355 . S
C419 C421 1.415 . S
C420 C419 1.355 . S
C420 C422 1.419 . S
C421 C416 1.425 . S
C421 C418 1.409 . S
C421 C419 1.415 . S
C422 H412 0.930 . S
C422 C420 1.419 . S
C422 C423 1.362 . S
C423 H413 0.930 . S
C423 C416 1.409 . S
C423 C422 1.362 . S
H424 C430 0.930 . S
H425 C433 0.930 . S
H426 C434 0.930 . S
H427 C435 0.930 . S
H428 C438 0.930 1_455 S
H429 C439 0.930 . S
C430 H424 0.930 . S
C430 C431 1.355 . S
C430 C432 1.415 . S
C431 C430 1.355 . S
C431 C433 1.419 . S
C432 C430 1.415 . S
C432 C437 1.425 . S
C432 C439 1.409 . S
C433 H425 0.930 . S
C433 C431 1.419 . S
C433 C434 1.362 . S
C434 H426 0.930 . S
C434 C433 1.362 . S
C434 C437 1.409 . S
C435 H427 0.930 . S
C435 C436 1.355 . S
C435 C437 1.415 . S
C436 C435 1.355 . S
C436 C438 1.419 . S
C437 C432 1.425 . S
C437 C434 1.409 . S
C437 C435 1.415 . S
C438 H428 0.930 1_655 S
C438 C436 1.419 . S
C438 C439 1.362 . S
C439 H429 0.930 . S
C439 C432 1.409 . S
C439 C438 1.362 . S
H440 C446 0.930 . S
H441 C449 0.930 . S
H442 C450 0.930 . S
H443 C451 0.930 . S
H444 C454 0.930 . S
H445 C455 0.930 . S
C446 H440 0.930 . S
C446 C447 1.355 . S
C446 C448 1.415 . S
C447 C446 1.355 . S
C447 C449 1.419 . S
C448 C446 1.415 . S
C448 C453 1.425 . S
C448 C455 1.409 . S
C449 H441 0.930 . S
C449 C447 1.419 . S
C449 C450 1.362 . S
C450 H442 0.930 . S
C450 C449 1.362 . S
C450 C453 1.409 . S
C451 H443 0.930 . S
C451 C452 1.355 . S
C451 C453 1.415 . S
C452 C451 1.355 . S
C452 C454 1.419 . S
C453 C448 1.425 . S
C453 C450 1.409 . S
C453 C451 1.415 . S
C454 H444 0.930 . S
C454 C452 1.419 . S
C454 C455 1.362 . S
C455 H445 0.930 . S
C455 C448 1.409 . S
C455 C454 1.362 . S
H456 C462 0.930 . S
H457 C465 0.930 . S
H458 C466 0.930 . S
H459 C467 0.930 . S
H460 C470 0.930 . S
H461 C471 0.930 . S
C462 H456 0.930 . S
C462 C463 1.355 . S
C462 C464 1.415 . S
C463 C462 1.355 . S
C463 C465 1.419 . S
C464 C462 1.415 . S
C464 C469 1.425 . S
C464 C471 1.409 . S
C465 H457 0.930 . S
C465 C463 1.419 . S
C465 C466 1.362 . S
C466 H458 0.930 . S
C466 C465 1.362 . S
C466 C469 1.409 . S
C467 H459 0.930 . S
C467 C468 1.355 . S
C467 C469 1.415 . S
C468 C467 1.355 . S
C468 C470 1.419 . S
C469 C464 1.425 . S
C469 C466 1.409 . S
C469 C467 1.415 . S
C470 H460 0.930 . S
C470 C468 1.419 . S
C470 C471 1.362 . S
C471 H461 0.930 . S
C471 C464 1.409 . S
C471 C470 1.362 . S
H472 C478 0.930 . S
H473 C481 0.930 . S
H474 C482 0.930 . S
H475 C483 0.930 . S
H476 C486 0.930 . S
H477 C487 0.930 . S
C478 H472 0.930 . S
C478 C479 1.355 . S
C478 C480 1.415 . S
C479 C478 1.355 . S
C479 C481 1.419 . S
C480 C478 1.415 . S
C480 C485 1.425 . S
C480 C487 1.409 . S
C481 H473 0.930 . S
C481 C479 1.419 . S
C481 C482 1.362 . S
C482 H474 0.930 . S
C482 C481 1.362 . S
C482 C485 1.409 . S
C483 H475 0.930 . S
C483 C484 1.355 . S
C483 C485 1.415 . S
C484 C483 1.355 . S
C484 C486 1.419 . S
C485 C480 1.425 . S
C485 C482 1.409 . S
C485 C483 1.415 . S
C486 H476 0.930 . S
C486 C484 1.419 . S
C486 C487 1.362 . S
C487 H477 0.930 . S
C487 C480 1.409 . S
C487 C486 1.362 . S
H488 C494 0.930 . S
H489 C497 0.930 . S
H490 C498 0.930 . S
H491 C499 0.930 . S
H492 C502 0.930 . S
H493 C503 0.930 . S
C494 H488 0.930 . S
C494 C495 1.355 . S
C494 C496 1.415 . S
C495 C494 1.355 . S
C495 C497 1.419 . S
C496 C494 1.415 . S
C496 C501 1.425 . S
C496 C503 1.409 . S
C497 H489 0.930 . S
C497 C495 1.419 . S
C497 C498 1.362 . S
C498 H490 0.930 . S
C498 C497 1.362 . S
C498 C501 1.409 . S
C499 H491 0.930 . S
C499 C500 1.355 . S
C499 C501 1.415 . S
C500 C499 1.355 . S
C500 C502 1.419 . S
C501 C496 1.425 . S
C501 C498 1.409 . S
C501 C499 1.415 . S
C502 H492 0.930 . S
C502 C500 1.419 . S
C502 C503 1.362 . S
C503 H493 0.930 . S
C503 C496 1.409 . S
C503 C502 1.362 . S
H504 C510 0.930 . S
H505 C513 0.930 . S
H506 C514 0.930 . S
H507 C515 0.930 . S
H508 C518 0.930 . S
H509 C519 0.930 . S
C510 H504 0.930 . S
C510 C511 1.355 . S
C510 C512 1.415 . S
C511 C510 1.355 . S
C511 C513 1.419 . S
C512 C510 1.415 . S
C512 C517 1.425 . S
C512 C519 1.409 . S
C513 H505 0.930 . S
C513 C511 1.419 . S
C513 C514 1.362 . S
C514 H506 0.930 . S
C514 C513 1.362 . S
C514 C517 1.409 . S
C515 H507 0.930 . S
C515 C516 1.355 . S
C515 C517 1.415 . S
C516 C515 1.355 . S
C516 C518 1.419 . S
C517 C512 1.425 . S
C517 C514 1.409 . S
C517 C515 1.415 . S
C518 H508 0.930 . S
C518 C516 1.419 . S
C518 C519 1.362 . S
C519 H509 0.930 . S
C519 C512 1.409 . S
C519 C518 1.362 . S
H520 C526 0.930 . S
H521 C529 0.930 . S
H522 C530 0.930 . S
H523 C531 0.930 . S
H524 C534 0.930 . S
H525 C535 0.930 . S
C526 H520 0.930 . S
C526 C527 1.355 . S
C526 C528 1.415 . S
C527 C526 1.355 . S
C527 C529 1.419 . S
C528 C526 1.415 . S
C528 C533 1.425 . S
C528 C535 1.409 . S
C529 H521 0.930 . S
C529 C527 1.419 . S
C529 C530 1.362 . S
C530 H522 0.930 . S
C530 C529 1.362 . S
C530 C533 1.409 . S
C531 H523 0.930 . S
C531 C532 1.355 . S
C531 C533 1.415 . S
C532 C531 1.355 . S
C532 C534 1.419 . S
C533 C528 1.425 . S
C533 C530 1.409 . S
C533 C531 1.415 . S
C534 H524 0.930 . S
C534 C532 1.419 . S
C534 C535 1.362 . S
C535 H525 0.930 . S
C535 C528 1.409 . S
C535 C534 1.362 . S
H536 C542 0.930 . S
H537 C545 0.930 . S
H538 C546 0.930 . S
H539 C547 0.930 . S
H540 C550 0.930 . S
H541 C551 0.930 . S
C542 H536 0.930 . S
C542 C543 1.355 . S
C542 C544 1.415 . S
C543 C542 1.355 . S
C543 C545 1.419 . S
C544 C542 1.415 . S
C544 C549 1.425 . S
C544 C551 1.409 . S
C545 H537 0.930 . S
C545 C543 1.419 . S
C545 C546 1.362 . S
C546 H538 0.930 . S
C546 C545 1.362 . S
C546 C549 1.409 . S
C547 H539 0.930 . S
C547 C548 1.355 . S
C547 C549 1.415 . S
C548 C547 1.355 . S
C548 C550 1.419 . S
C549 C544 1.425 . S
C549 C546 1.409 . S
C549 C547 1.415 . S
C550 H540 0.930 . S
C550 C548 1.419 . S
C550 C551 1.362 . S
C551 H541 0.930 . S
C551 C544 1.409 . S
C551 C550 1.362 . S
H552 C558 0.930 . S
H553 C561 0.930 . S
H554 C562 0.930 . S
H555 C563 0.930 . S
H556 C566 0.930 . S
H557 C567 0.930 . S
C558 H552 0.930 . S
C558 C559 1.355 . S
C558 C560 1.415 . S
C559 C558 1.355 . S
C559 C561 1.419 . S
C560 C558 1.415 . S
C560 C565 1.425 . S
C560 C567 1.409 . S
C561 H553 0.930 . S
C561 C559 1.419 . S
C561 C562 1.362 . S
C562 H554 0.930 . S
C562 C561 1.362 . S
C562 C565 1.409 . S
C563 H555 0.930 . S
C563 C564 1.355 . S
C563 C565 1.415 . S
C564 C563 1.355 . S
C564 C566 1.419 . S
C565 C560 1.425 . S
C565 C562 1.409 . S
C565 C563 1.415 . S
C566 H556 0.930 . S
C566 C564 1.419 . S
C566 C567 1.362 . S
C567 H557 0.930 . S
C567 C560 1.409 . S
C567 C566 1.362 . S
H568 C574 0.930 . S
H569 C577 0.930 . S
H570 C578 0.930 . S
H571 C579 0.930 . S
H572 C582 0.930 . S
H573 C583 0.930 . S
C574 H568 0.930 . S
C574 C575 1.355 . S
C574 C576 1.415 . S
C575 C574 1.355 . S
C575 C577 1.419 . S
C576 C574 1.415 . S
C576 C581 1.425 . S
C576 C583 1.409 . S
C577 H569 0.930 . S
C577 C575 1.419 . S
C577 C578 1.362 . S
C578 H570 0.930 . S
C578 C577 1.362 . S
C578 C581 1.409 . S
C579 H571 0.930 . S
C579 C580 1.355 . S
C579 C581 1.415 . S
C580 C579 1.355 . S
C580 C582 1.419 . S
C581 C576 1.425 . S
C581 C578 1.409 . S
C581 C579 1.415 . S
C582 H572 0.930 . S
C582 C580 1.419 . S
C582 C583 1.362 . S
C583 H573 0.930 . S
C583 C576 1.409 . S
C583 C582 1.362 . S
H584 C590 0.930 . S
H585 C593 0.930 . S
H586 C594 0.930 . S
H587 C595 0.930 . S
H588 C598 0.930 . S
H589 C599 0.930 . S
C590 H584 0.930 . S
C590 C591 1.355 . S
C590 C592 1.415 . S
C591 C590 1.355 . S
C591 C593 1.419 . S
C592 C590 1.415 . S
C592 C597 1.425 . S
C592 C599 1.409 . S
C593 H585 0.930 . S
C593 C591 1.419 . S
C593 C594 1.362 . S
C594 H586 0.930 . S
C594 C593 1.362 . S
C594 C597 1.409 . S
C595 H587 0.930 . S
C595 C596 1.355 . S
C595 C597 1.415 . S
C596 C595 1.355 . S
C596 C598 1.419 . S
C597 C592 1.425 . S
C597 C594 1.409 . S
C597 C595 1.415 . S
C598 H588 0.930 . S
C598 C596 1.419 . S
C598 C599 1.362 . S
C599 H589 0.930 . S
C599 C592 1.409 . S
C599 C598 1.362 . S
H600 C606 0.930 . S
H601 C609 0.930 . S
H602 C610 0.930 . S
H603 C611 0.930 . S
H604 C614 0.930 . S
H605 C615 0.930 . S
C606 H600 0.930 . S
C606 C607 1.355 . S
C606 C608 1.415 . S
C607 C606 1.355 . S
C607 C609 1.419 . S
C608 C606 1.415 . S
C608 C613 1.425 . S
C608 C615 1.409 . S
C609 H601 0.930 . S
C609 C607 1.419 . S
C609 C610 1.362 . S
C610 H602 0.930 . S
C610 C609 1.362 . S
C610 C613 1.409 . S
C611 H603 0.930 . S
C611 C612 1.355 . S
C611 C613 1.415 . S
C612 C611 1.355 . S
C612 C614 1.419 . S
C613 C608 1.425 . S
C613 C610 1.409 . S
C613 C611 1.415 . S
C614 H604 0.930 . S
C614 C612 1.419 . S
C614 C615 1.362 . S
C615 H605 0.930 . S
C615 C608 1.409 . S
C615 C614 1.362 . S
H616 C622 0.930 . S
H617 C625 0.930 . S
H618 C626 0.930 . S
H619 C627 0.930 . S
H620 C630 0.930 . S
H621 C631 0.930 . S
C622 H616 0.930 . S
C622 C623 1.355 . S
C622 C624 1.415 . S
C623 C622 1.355 . S
C623 C625 1.419 . S
C624 C622 1.415 . S
C624 C629 1.425 . S
C624 C631 1.409 . S
C625 H617 0.930 . S
C625 C623 1.419 . S
C625 C626 1.362 . S
C626 H618 0.930 . S
C626 C625 1.362 . S
C626 C629 1.409 . S
C627 H619 0.930 . S
C627 C628 1.355 . S
C627 C629 1.415 . S
C628 C627 1.355 . S
C628 C630 1.419 . S
C629 C624 1.425 . S
C629 C626 1.409 . S
C629 C627 1.415 . S
C630 H620 0.930 . S
C630 C628 1.419 . S
C630 C631 1.362 . S
C631 H621 0.930 . S
C631 C624 1.409 . S
C631 C630 1.362 . S
H632 C638 0.930 . S
H633 C641 0.930 . S
H634 C642 0.930 . S
H635 C643 0.930 . S
H636 C646 0.930 . S
H637 C647 0.930 . S
C638 H632 0.930 . S
C638 C639 1.355 . S
C638 C640 1.415 . S
C639 C638 1.355 . S
C639 C641 1.419 . S
C640 C638 1.415 . S
C640 C645 1.425 . S
C640 C647 1.409 . S
C641 H633 0.930 . S
C641 C639 1.419 . S
C641 C642 1.362 . S
C642 H634 0.930 . S
C642 C641 1.362 . S
C642 C645 1.409 . S
C643 H635 0.930 . S
C643 C644 1.355 . S
C643 C645 1.415 . S
C644 C643 1.355 . S
C644 C646 1.419 . S
C645 C640 1.425 . S
C645 C642 1.409 . S
C645 C643 1.415 . S
C646 H636 0.930 . S
C646 C644 1.419 . S
C646 C647 1.362 . S
C647 H637 0.930 . S
C647 C640 1.409 . S
C647 C646 1.362 . S
C271 C9 1.411 . S
C276 C111 1.430 . S
C287 C21 1.134 . S
C292 C160 1.145 . S
C308 C186 2.204 . S
C303 C30 2.251 . S
C319 C43 2.231 . S
C324 C234 2.303 1_655 S
C340 C146 2.104 . S
C335 C4 1.844 . S
C356 C114 1.526 . S
C351 C22 1.525 . S
C372 C235 1.615 1_556 S
C367 C34 1.667 . S
C388 C203 1.566 . S
C383 C48 1.614 . S
C399 C8 1.516 . S
C404 C231 1.589 . S
C420 C163 2.286 . S
C415 C35 2.345 . S
C431 C47 2.541 . S
C436 C115 2.535 . S
C447 C17 1.010 . S
C452 C200 1.007 . S
C468 C120 1.020 . S
C463 C60 1.025 . S
C479 C74 1.156 . S
C484 C151 1.150 . S
C495 C82 1.969 . S
C500 C195 2.031 . S
C511 C100 2.771 . S
C516 C243 2.708 . S
C527 C61 2.369 . S
C532 C155 2.470 . S
C548 C123 0.801 . S
C543 C73 0.746 . S
C564 C226 2.120 . S
C559 C87 2.180 . S
C580 C194 1.369 . S
C575 C95 1.392 . S
C591 C56 1.501 . S
C596 C240 1.488 . S
C612 C154 2.472 . S
C607 C86 2.519 . S
C628 C106 2.373 . S
C623 C99 2.370 . S
C639 C69 0.908 . S
C644 C191 0.911 . S
