# Generated by pormake.
# Topology anh, (6,3)-cn, num edge types: 1
# Building blocks:
#     Node 0, Type 0, BuildingBlock: GEDQOX_clean_sbu_0, # of connection points: 6
#     Node 1, Type 0, BuildingBlock: GEDQOX_clean_sbu_0, # of connection points: 6
#     Node 2, Type 0, BuildingBlock: GEDQOX_clean_sbu_0, # of connection points: 6
#     Node 3, Type 1, BuildingBlock: BELTOD_clean_linker_0, # of connection points: 3
#     Node 4, Type 1, BuildingBlock: BELTOD_clean_linker_0, # of connection points: 3
#     Node 5, Type 1, BuildingBlock: BELTOD_clean_linker_0, # of connection points: 3
#     Node 6, Type 1, BuildingBlock: BELTOD_clean_linker_0, # of connection points: 3
#     Node 7, Type 1, BuildingBlock: BELTOD_clean_linker_0, # of connection points: 3
#     Node 8, Type 1, BuildingBlock: BELTOD_clean_linker_0, # of connection points: 3
#     Edge 9, Type (0, 1), BuildingBlock: EZIPEK_clean_linker_0, # of connection points: 2
#     Edge 10, Type (0, 1), BuildingBlock: EZIPEK_clean_linker_0, # of connection points: 2
#     Edge 11, Type (0, 1), BuildingBlock: EZIPEK_clean_linker_0, # of connection points: 2
#     Edge 12, Type (0, 1), BuildingBlock: EZIPEK_clean_linker_0, # of connection points: 2
#     Edge 13, Type (0, 1), BuildingBlock: EZIPEK_clean_linker_0, # of connection points: 2
#     Edge 14, Type (0, 1), BuildingBlock: EZIPEK_clean_linker_0, # of connection points: 2
#     Edge 15, Type (0, 1), BuildingBlock: EZIPEK_clean_linker_0, # of connection points: 2
#     Edge 16, Type (0, 1), BuildingBlock: EZIPEK_clean_linker_0, # of connection points: 2
#     Edge 17, Type (0, 1), BuildingBlock: EZIPEK_clean_linker_0, # of connection points: 2
#     Edge 18, Type (0, 1), BuildingBlock: EZIPEK_clean_linker_0, # of connection points: 2
#     Edge 19, Type (0, 1), BuildingBlock: EZIPEK_clean_linker_0, # of connection points: 2
#     Edge 20, Type (0, 1), BuildingBlock: EZIPEK_clean_linker_0, # of connection points: 2
#     Edge 21, Type (0, 1), BuildingBlock: EZIPEK_clean_linker_0, # of connection points: 2
#     Edge 22, Type (0, 1), BuildingBlock: EZIPEK_clean_linker_0, # of connection points: 2
#     Edge 23, Type (0, 1), BuildingBlock: EZIPEK_clean_linker_0, # of connection points: 2
#     Edge 24, Type (0, 1), BuildingBlock: EZIPEK_clean_linker_0, # of connection points: 2
#     Edge 25, Type (0, 1), BuildingBlock: EZIPEK_clean_linker_0, # of connection points: 2
#     Edge 26, Type (0, 1), BuildingBlock: EZIPEK_clean_linker_0, # of connection points: 2
# Relax obj value: 0.214
# Max RMSD: 0.229
# Mean RMSD: 0.160
data_MOF--net-anh--node1-GEDQOX_clean_sbu_0--node2-BELTOD_clean_linker_0--edge1-EZIPEK_clean_linker_0
_symmetry_space_group_name_H-M    P1
_symmetry_Int_Tables_number       1
_symmetry_cell_setting            triclinic
loop_
_symmetry_equiv_pos_as_xyz
'x, y, z'
_cell_length_a     27.172161
_cell_length_b     25.793193
_cell_length_c     47.066588
_cell_angle_alpha  92.564996
_cell_angle_beta   91.24982
_cell_angle_gamma 102.80395
loop_
_atom_site_label
_atom_site_type_symbol
_atom_site_fract_x
_atom_site_fract_y
_atom_site_fract_z
_atom_type_partial_charge
Nd0 Nd 0.09479 0.60533 0.1508 0.0
Nd1 Nd 1.0641 0.48841 0.13369 0.0
C2 C 0.13859 0.70777 0.15887 0.0
C3 C 0.19061 0.74041 0.16076 0.0
C4 C 0.23069 0.72248 0.14818 0.0
C5 C 0.28068 0.75052 0.15363 0.0
C6 C 0.29114 0.79654 0.17185 0.0
C7 C 0.25101 0.81521 0.18371 0.0
C8 C 0.20114 0.78737 0.17818 0.0
C9 C 1.06288 0.54078 0.19491 0.0
C10 C 0.18777 0.54018 0.13942 0.0
C11 C 1.04044 0.38299 0.13501 0.0
C12 C 0.99599 0.34373 0.14405 0.0
C13 C 0.95019 0.35866 0.14936 0.0
C14 C 0.90972 0.32256 0.16049 0.0
C15 C 0.91449 0.27102 0.16657 0.0
C16 C 0.96001 0.25589 0.16086 0.0
C17 C 1.00047 0.29201 0.14974 0.0
C18 C 0.07171 0.55461 0.08863 0.0
C19 C 0.97246 0.55335 0.14067 0.0
O20 O 0.12091 0.68589 0.13399 0.0
O21 O 0.12689 0.67553 0.17946 0.0
O22 O 1.05094 0.58617 0.19172 0.0
O23 O 0.09112 0.53188 0.17532 0.0
O24 O 0.17488 0.58423 0.14955 0.0
O25 O 0.15201 0.49803 0.13033 0.0
O26 O 1.06554 0.41433 0.15547 0.0
O27 O 1.0349 0.40846 0.11217 0.0
O28 O 1.038 0.51028 0.08948 0.0
O29 O 0.10134 0.5601 0.10997 0.0
O30 O 0.98533 0.50714 0.14398 0.0
O31 O 1.00862 0.5972 0.13861 0.0
H32 H 0.22348 0.686 0.13494 0.0
H33 H 0.31125 0.73537 0.14446 0.0
H34 H 0.25843 0.85048 0.19792 0.0
H35 H 0.17082 0.8015 0.18833 0.0
H36 H 0.94607 0.39854 0.14542 0.0
H37 H 0.87495 0.33501 0.16477 0.0
H38 H 0.96445 0.21636 0.16543 0.0
H39 H 1.0356 0.27987 0.1461 0.0
Nd40 Nd 0.50662 0.96456 0.5219 0.0
Nd41 Nd 0.62067 0.99567 0.52117 0.0
C42 C 0.41139 0.92161 0.53185 0.0
C43 C 0.37782 0.87153 0.52112 0.0
C44 C 0.33497 0.84861 0.53604 0.0
C45 C 0.3038 0.80025 0.52595 0.0
C46 C 0.31513 0.77465 0.50074 0.0
C47 C 0.35815 0.79758 0.48594 0.0
C48 C 0.38943 0.84552 0.49614 0.0
C49 C 0.54413 0.97348 0.46802 0.0
C50 C 0.57137 0.86938 0.52458 0.0
C51 C 0.71502 0.03134 0.50637 0.0
C52 C 0.74966 0.08091 0.49943 0.0
C53 C 0.7331 0.12852 0.49742 0.0
C54 C 0.76643 0.17459 0.48922 0.0
C55 C 0.8164 0.17316 0.48292 0.0
C56 C 0.83298 0.12578 0.48547 0.0
C57 C 0.79978 0.07993 0.49366 0.0
C58 C 0.58401 0.98349 0.57479 0.0
C59 C 0.55658 0.0912 0.5239 0.0
O60 O 0.44896 0.91661 0.54858 0.0
O61 O 0.42505 0.95719 0.51292 0.0
O62 O 0.50142 0.98422 0.47486 0.0
O63 O 0.56259 0.95381 0.48868 0.0
O64 O 0.52762 0.88315 0.52738 0.0
O65 O 0.61314 0.90481 0.51964 0.0
O66 O 0.67763 0.01295 0.48806 0.0
O67 O 0.70166 0.02705 0.53283 0.0
O68 O 0.62592 0.97177 0.56699 0.0
O69 O 0.56481 1.00555 0.5552 0.0
O70 O 0.59958 0.07772 0.51786 0.0
O71 O 0.51601 0.05473 0.52966 0.0
H72 H 0.32581 0.86796 0.5555 0.0
H73 H 0.27088 0.78281 0.53769 0.0
H74 H 0.36758 0.77815 0.46657 0.0
H75 H 0.42278 0.8623 0.48455 0.0
H76 H 0.69444 0.12984 0.5018 0.0
H77 H 0.75318 0.21097 0.48736 0.0
H78 H 0.87146 0.12418 0.4807 0.0
H79 H 0.81303 0.04344 0.49509 0.0
Nd80 Nd 0.48735 0.47226 0.83307 0.0
Nd81 Nd 0.5971 0.49394 0.84476 0.0
C82 C 0.3958 0.45227 0.80993 0.0
C83 C 0.36856 0.49105 0.7988 0.0
C84 C 0.38673 0.52159 0.77553 0.0
C85 C 0.37139 0.5689 0.77083 0.0
C86 C 0.33855 0.58644 0.78965 0.0
C87 C 0.31621 0.55307 0.81077 0.0
C88 C 0.33075 0.50552 0.81516 0.0
C89 C 0.51298 0.49002 0.89032 0.0
C90 C 0.5425 0.59512 0.84044 0.0
C91 C 0.69143 0.52557 0.86423 0.0
C92 C 0.74207 0.52521 0.8548 0.0
C93 C 0.7499 0.49676 0.82975 0.0
C94 C 0.79877 0.50178 0.8197 0.0
C95 C 0.83957 0.53573 0.83457 0.0
C96 C 0.83148 0.56292 0.85992 0.0
C97 C 0.78304 0.55767 0.86997 0.0
C98 C 0.57253 0.47964 0.78735 0.0
C99 C 0.54091 0.36935 0.83587 0.0
O100 O 0.43502 0.44513 0.79585 0.0
O101 O 0.40455 0.45654 0.83749 0.0
O102 O 0.47718 0.50743 0.87784 0.0
O103 O 0.53278 0.46253 0.87297 0.0
O104 O 0.50418 0.56199 0.82735 0.0
O105 O 0.57874 0.5772 0.85316 0.0
O106 O 0.66255 0.47982 0.86987 0.0
O107 O 0.66774 0.55561 0.85019 0.0
O108 O 0.61051 0.4654 0.79932 0.0
O109 O 0.55238 0.50513 0.80544 0.0
O110 O 0.5838 0.4029 0.84339 0.0
O111 O 0.49928 0.38622 0.83069 0.0
H112 H 0.41542 0.51114 0.76222 0.0
H113 H 0.38808 0.59372 0.75403 0.0
H114 H 0.28996 0.56559 0.82516 0.0
H115 H 0.3157 0.4825 0.83297 0.0
H116 H 0.71825 0.47182 0.81775 0.0
H117 H 0.80465 0.48042 0.80018 0.0
H118 H 0.86276 0.58916 0.87163 0.0
H119 H 0.7774 0.58007 0.8892 0.0
P120 P 0.6476 0.97361 0.25586 0.0
H121 H 0.61423 0.88764 0.21203 0.0
H122 H 0.53105 0.84794 0.18994 0.0
H123 H 0.46931 0.97042 0.23158 0.0
H124 H 0.55267 0.01017 0.25397 0.0
H125 H 0.75524 0.01721 0.26488 0.0
H126 H 0.81501 0.08992 0.24388 0.0
H127 H 0.69241 0.13088 0.19675 0.0
H128 H 0.63239 0.05771 0.21767 0.0
H129 H 0.5746 0.90694 0.29033 0.0
H130 H 0.68678 0.05397 0.30292 0.0
O131 O 0.6787 0.92462 0.25408 0.0
H132 H 0.5546 0.91106 0.34073 0.0
H133 H 0.66702 0.05761 0.3537 0.0
C134 C 0.58955 0.95162 0.23487 0.0
C135 C 0.58317 0.90667 0.21606 0.0
C136 C 0.53574 0.88396 0.20342 0.0
C137 C 0.49413 0.90614 0.20926 0.0
C138 C 0.50106 0.95284 0.22681 0.0
C139 C 0.54854 0.97549 0.23952 0.0
C140 C 0.68939 0.03169 0.24271 0.0
C141 C 0.74104 0.04206 0.25023 0.0
C142 C 0.77517 0.08349 0.23825 0.0
C143 C 0.75824 0.11553 0.21859 0.0
C144 C 0.70626 0.10644 0.21178 0.0
C145 C 0.67203 0.06475 0.22377 0.0
C146 C 0.63154 0.98062 0.29268 0.0
C147 C 0.59457 0.94044 0.30384 0.0
C148 C 0.58329 0.94257 0.33262 0.0
C149 C 0.6092 0.98467 0.3509 0.0
C150 C 0.64646 0.02492 0.33986 0.0
C151 C 0.65761 0.02288 0.3109 0.0
P152 P 0.62253 0.49399 0.57006 0.0
H153 H 0.61425 0.43966 0.51359 0.0
H154 H 0.59157 0.34756 0.49801 0.0
H155 H 0.54689 0.30692 0.58335 0.0
H156 H 0.57089 0.3984 0.59832 0.0
H157 H 0.68628 0.58975 0.54868 0.0
H158 H 0.66944 0.67461 0.53537 0.0
H159 H 0.50977 0.61181 0.5427 0.0
H160 H 0.5265 0.52531 0.55509 0.0
H161 H 0.68891 0.50233 0.62094 0.0
H162 H 0.53199 0.49887 0.60214 0.0
O163 O 0.68406 0.49713 0.56626 0.0
H164 H 0.67199 0.50061 0.67183 0.0
H165 H 0.51529 0.49727 0.6531 0.0
C166 C 0.59123 0.42738 0.55673 0.0
C167 C 0.59628 0.41097 0.52842 0.0
C168 C 0.58185 0.35686 0.51934 0.0
C169 C 0.5595 0.31706 0.53802 0.0
C170 C 0.5574 0.33464 0.56684 0.0
C171 C 0.57215 0.38835 0.57585 0.0
C172 C 0.60769 0.55068 0.55294 0.0
C173 C 0.6474 0.59318 0.54658 0.0
C174 C 0.63788 0.64197 0.53904 0.0
C175 C 0.58841 0.64984 0.53813 0.0
C176 C 0.54826 0.60666 0.54318 0.0
C177 C 0.55785 0.55733 0.55036 0.0
C178 C 0.61183 0.50135 0.60763 0.0
C179 C 0.65109 0.50235 0.62767 0.0
C180 C 0.64151 0.5013 0.65673 0.0
C181 C 0.59247 0.49898 0.66614 0.0
C182 C 0.55345 0.49953 0.64621 0.0
C183 C 0.5631 0.50078 0.61715 0.0
P184 P 0.15071 0.75605 0.90288 0.0
H185 H 0.19881 0.82834 0.8611 0.0
H186 H 0.25642 0.81229 0.82398 0.0
H187 H 0.28885 0.68238 0.87004 0.0
H188 H 0.23182 0.69822 0.90692 0.0
H189 H 1.04579 0.75707 0.88867 0.0
H190 H 0.98049 0.69353 0.86055 0.0
H191 H 0.09257 0.61174 0.82978 0.0
H192 H 0.15719 0.67283 0.85897 0.0
H193 H 0.21731 0.75434 0.95304 0.0
H194 H 1.06682 0.67498 0.92321 0.0
O195 O 0.13824 0.81553 0.91049 0.0
H196 H 0.20446 0.70499 -0.00302 0.0
H197 H 1.0542 0.62745 0.96673 0.0
C198 C 0.21103 0.76449 0.88679 0.0
C199 C 0.22069 0.79853 0.8641 0.0
C200 C 0.25318 0.78919 0.84278 0.0
C201 C 0.27562 0.74538 0.84408 0.0
C202 C 0.27138 0.71614 0.86868 0.0
C203 C 0.23919 0.72563 0.88998 0.0
C204 C 0.10644 0.71999 0.87601 0.0
C205 C 1.05663 0.72643 0.87533 0.0
C206 C 1.01945 0.69016 0.85936 0.0
C207 C 1.03188 0.64759 0.8436 0.0
C208 C 0.08241 0.64411 0.84206 0.0
C209 C 0.1193 0.67937 0.85871 0.0
C210 C 0.14358 0.71782 0.93441 0.0
C211 C 0.18198 0.72602 0.95566 0.0
C212 C 0.17472 0.69794 0.98063 0.0
C213 C 0.12848 0.66239 0.98485 0.0
C214 C 0.09023 0.65436 0.96369 0.0
C215 C 0.09766 0.68179 0.93875 0.0
P216 P 0.1195 0.42299 0.39813 0.0
H217 H 0.13676 0.45057 0.45896 0.0
H218 H 0.17974 0.53289 0.48565 0.0
H219 H 0.20806 0.61201 0.40693 0.0
H220 H 0.16499 0.5303 0.38027 0.0
H221 H 0.07646 0.30971 0.40037 0.0
H222 H 1.00043 0.25897 0.4218 0.0
H223 H 0.96333 0.40533 0.45229 0.0
H224 H 1.03963 0.45642 0.43074 0.0
H225 H 0.16916 0.41378 0.34429 0.0
H226 H 1.03515 0.46105 0.37313 0.0
O227 O 0.16275 0.38605 0.39773 0.0
H228 H 0.1511 0.43776 0.29595 0.0
H229 H 1.01707 0.48485 0.32461 0.0
C230 C 0.1467 0.48461 0.4177 0.0
C231 C 0.15147 0.48587 0.44748 0.0
C232 C 0.17605 0.5326 0.46268 0.0
C233 C 0.19684 0.57832 0.44818 0.0
C234 C 0.19196 0.5771 0.41842 0.0
C235 C 0.16723 0.53048 0.40326 0.0
C236 C 1.06421 0.38666 0.41461 0.0
C237 C 1.05229 0.33096 0.41186 0.0
C238 C 1.00896 0.30206 0.42396 0.0
C239 C 0.97681 0.32856 0.43877 0.0
C240 C 0.98811 0.38439 0.44112 0.0
C241 C 1.03158 0.41335 0.42895 0.0
C242 C 0.10306 0.4349 0.36217 0.0
C243 C 0.13536 0.42826 0.34014 0.0
C244 C 0.1251 0.44185 0.3126 0.0
C245 C 0.08253 0.46245 0.30681 0.0
C246 C 1.0497 0.4683 0.32871 0.0
C247 C 1.06006 0.45478 0.35631 0.0
P248 P 0.60353 0.9922 0.79401 0.0
H249 H 0.66363 0.09949 0.80585 0.0
H250 H 0.64206 0.18423 0.81866 0.0
H251 H 0.48686 0.10355 0.82767 0.0
H252 H 0.5087 0.01746 0.81509 0.0
H253 H 0.63807 0.9415 0.84255 0.0
H254 H 0.62089 0.84843 0.85577 0.0
H255 H 0.49917 0.80888 0.79281 0.0
H256 H 0.51695 0.90205 0.77913 0.0
H257 H 0.53461 0.03849 0.758 0.0
H258 H 0.63926 0.93597 0.74662 0.0
O259 O 0.66628 1.00147 0.79683 0.0
H260 H 0.52192 0.03826 0.70628 0.0
H261 H 0.62654 0.93607 0.69483 0.0
C262 C 0.58799 0.05165 0.81002 0.0
C263 C 0.62516 0.09932 0.81142 0.0
C264 C 0.61288 0.14798 0.81858 0.0
C265 C 0.56296 0.15029 0.82414 0.0
C266 C 0.52573 0.10256 0.82364 0.0
C267 C 0.53821 0.05348 0.81665 0.0
C268 C 0.57912 0.9289 0.80967 0.0
C269 C 0.60671 0.9133 0.83208 0.0
C270 C 0.59707 0.86007 0.83959 0.0
C271 C 0.5591 0.82154 0.82511 0.0
C272 C 0.52872 0.83792 0.80424 0.0
C273 C 0.53876 0.89119 0.79652 0.0
C274 C 0.5886 0.98784 0.75625 0.0
C275 C 0.55466 0.01567 0.74455 0.0
C276 C 0.54732 0.01562 0.715 0.0
C277 C 0.5738 0.98771 0.69682 0.0
C278 C 0.60611 0.95818 0.70856 0.0
C279 C 0.61332 0.95814 0.73805 0.0
P280 P 0.57028 0.50735 0.11157 0.0
H281 H 0.63533 0.51698 0.16467 0.0
H282 H 0.72453 0.52708 0.17351 0.0
H283 H 0.75052 0.55573 0.08514 0.0
H284 H 0.66182 0.54368 0.07659 0.0
H285 H 0.49065 0.46083 0.15184 0.0
H286 H 0.40358 0.46963 0.15847 0.0
H287 H 0.42852 0.60343 0.10515 0.0
H288 H 0.51613 0.59541 0.09881 0.0
H289 H 0.53397 0.41821 0.06939 0.0
H290 H 0.58441 0.58903 0.06885 0.0
O291 O 0.5629 0.44436 0.12071 0.0
H292 H 0.51984 0.41383 0.0177 0.0
H293 H 0.56911 0.58451 0.01705 0.0
C294 C 0.63945 0.53425 0.12032 0.0
C295 C 0.66042 0.52977 0.14753 0.0
C296 C 0.7136 0.53712 0.15273 0.0
C297 C 0.75 0.55239 0.13134 0.0
C298 C 0.7276 0.55237 0.1037 0.0
C299 C 0.67472 0.54455 0.09848 0.0
C300 C 0.51204 0.5274 0.12475 0.0
C301 C 0.47856 0.49331 0.14208 0.0
C302 C 0.42788 0.49796 0.14572 0.0
C303 C 0.40786 0.53678 0.13208 0.0
C304 C 0.44184 0.57265 0.1159 0.0
C305 C 0.49275 0.5682 0.11241 0.0
C306 C 0.56073 0.50402 0.07315 0.0
C307 C 0.54211 0.45483 0.05829 0.0
C308 C 0.53376 0.45222 0.02875 0.0
C309 C 0.54335 0.49882 0.01356 0.0
C310 C 0.56138 0.5481 0.02839 0.0
C311 C 0.56995 0.55065 0.05793 0.0
C312 C 0.27762 0.5513 0.16207 0.0
C313 C 0.24427 0.53901 0.13758 0.0
C314 C 0.31723 0.52187 0.11004 0.0
C315 C 0.35138 0.53836 0.13392 0.0
N316 N 0.364 0.57716 0.18166 0.0
N317 N 0.23654 0.52293 0.0867 0.0
C318 C 0.33135 0.55537 0.15963 0.0
C319 C 0.26535 0.52694 0.11119 0.0
N320 N 0.25773 0.55682 0.18816 0.0
N321 N 0.33389 0.49957 0.08628 0.0
H322 H 0.19948 0.5278 0.08643 0.0
H323 H 0.25078 0.52011 0.06647 0.0
H324 H 0.371 0.49534 0.08446 0.0
H325 H 0.31001 0.48108 0.06942 0.0
H326 H 0.27859 0.56001 0.20722 0.0
H327 H 0.21918 0.55316 0.19101 0.0
H328 H 0.35321 0.59604 0.19974 0.0
H329 H 0.4029 0.58055 0.18078 0.0
C330 C 0.89042 0.24971 0.49181 0.0
C331 C 0.85184 0.22056 0.47286 0.0
C332 C 0.88851 0.27404 0.43365 0.0
C333 C 0.93113 0.29692 0.45154 0.0
N334 N 0.97462 0.30609 0.49732 0.0
N335 N 0.81433 0.20242 0.42551 0.0
C336 C 0.93238 0.28522 0.48068 0.0
C337 C 0.85046 0.23253 0.44376 0.0
N338 N 0.88658 0.24348 0.52042 0.0
N339 N 0.8845 0.29233 0.40707 0.0
H340 H 0.78522 0.17233 0.43219 0.0
H341 H 0.81487 0.20487 0.4035 0.0
H342 H 0.912 0.32258 0.39907 0.0
H343 H 0.85218 0.28105 0.39396 0.0
H344 H 0.91088 0.2671 0.53566 0.0
H345 H 0.8562 0.2176 0.52912 0.0
H346 H 0.98038 0.29418 0.51774 0.0
H347 H 1.0056 0.33325 0.49008 0.0
C348 C 0.52209 0.68307 0.85578 0.0
C349 C 0.54816 0.65356 0.83763 0.0
C350 C 0.57924 0.73332 0.81065 0.0
C351 C 0.5551 0.76356 0.82961 0.0
N352 N 0.50863 0.76959 0.87215 0.0
N353 N 0.60683 0.6513 0.80017 0.0
C354 C 0.52822 0.73911 0.85285 0.0
C355 C 0.57828 0.67898 0.81576 0.0
N356 N 0.49034 0.65712 0.87528 0.0
N357 N 0.60248 0.75646 0.78741 0.0
H358 H 0.60611 0.61118 0.80264 0.0
H359 H 0.63398 0.66864 0.78613 0.0
H360 H 0.60666 0.79674 0.78372 0.0
H361 H 0.61509 0.73536 0.77078 0.0
H362 H 0.46562 0.67453 0.88696 0.0
H363 H 0.48643 0.61673 0.87862 0.0
H364 H 0.49323 0.75586 0.89118 0.0
H365 H 0.51038 0.81001 0.8699 0.0
C366 C 0.89477 0.57448 0.11472 0.0
C367 C 0.9162 0.55616 0.13921 0.0
C368 C 0.83369 0.55311 0.16232 0.0
C369 C 0.80945 0.56204 0.13617 0.0
N370 N 0.83176 0.61914 0.09708 0.0
N371 N 0.90265 0.52509 0.18658 0.0
C372 C 0.84402 0.58305 0.11472 0.0
C373 C 0.88435 0.54397 0.16287 0.0
N374 N 0.92218 0.58233 0.09072 0.0
N375 N 0.8136 0.56501 0.18741 0.0
H376 H 0.94003 0.52182 0.18898 0.0
H377 H 0.87959 0.50969 0.20301 0.0
H378 H 0.78647 0.58796 0.18806 0.0
H379 H 0.83058 0.56273 0.20724 0.0
H380 H 0.90676 0.59025 0.07134 0.0
H381 H 0.95856 0.57568 0.08948 0.0
H382 H 0.85676 0.63963 0.08278 0.0
H383 H 0.8 0.63495 0.10018 0.0
C384 C 0.2343 0.72201 0.47716 0.0
C385 C 0.28255 0.72329 0.48974 0.0
C386 C 0.27476 0.62941 0.47503 0.0
C387 C 0.22532 0.62731 0.46395 0.0
N388 N 0.15385 0.66784 0.45955 0.0
N389 N 0.34419 0.67612 0.50618 0.0
C390 C 0.20377 0.67252 0.46661 0.0
C391 C 0.30138 0.67625 0.49039 0.0
N392 N 0.2186 0.76834 0.47409 0.0
N393 N 0.29717 0.58755 0.46983 0.0
H394 H 0.36446 0.70966 0.5179 0.0
H395 H 0.35698 0.64173 0.50982 0.0
H396 H 0.279 0.55246 0.45865 0.0
H397 H 0.33513 0.58923 0.47453 0.0
H398 H 0.18638 0.77057 0.46224 0.0
H399 H 0.23988 0.80547 0.48143 0.0
H400 H 0.13463 0.69791 0.46379 0.0
H401 H 0.1304 0.63212 0.45175 0.0
C402 C 0.52517 0.28056 0.80774 0.0
C403 C 0.53952 0.31082 0.83387 0.0
C404 C 0.55804 0.23118 0.85524 0.0
C405 C 0.54996 0.20352 0.82821 0.0
N406 N 0.52975 0.2024 0.77808 0.0
N407 N 0.56737 0.31468 0.88311 0.0
C408 C 0.53401 0.22816 0.80437 0.0
C409 C 0.55523 0.28591 0.85782 0.0
N410 N 0.50295 0.30154 0.78602 0.0
N411 N 0.56739 0.20451 0.87852 0.0
H412 H 0.56063 0.35263 0.88679 0.0
H413 H 0.58532 0.30184 0.90031 0.0
H414 H 0.56983 0.16468 0.87718 0.0
H415 H 0.56915 0.22013 0.89937 0.0
H416 H 0.4859 0.27919 0.76804 0.0
H417 H 0.49807 0.34043 0.78651 0.0
H418 H 0.52524 0.22063 0.7592 0.0
H419 H 0.53422 0.16347 0.77478 0.0
C420 C 0.59846 0.79865 0.5528 0.0
C421 C 0.57361 0.81248 0.52828 0.0
C422 C 0.55718 0.71886 0.50999 0.0
C423 C 0.58004 0.70493 0.53511 0.0
N424 N 0.61064 0.72904 0.5834 0.0
N425 N 0.51957 0.78334 0.48655 0.0
C426 C 0.59731 0.74418 0.55736 0.0
C427 C 0.54978 0.77177 0.50784 0.0
N428 N 0.62334 0.83751 0.57191 0.0
N429 N 0.54435 0.68215 0.48771 0.0
H430 H 0.51377 0.82145 0.48393 0.0
H431 H 0.49685 0.7544 0.47293 0.0
H432 H 0.54894 0.64316 0.48858 0.0
H433 H 0.53287 0.69138 0.46766 0.0
H434 H 0.64762 0.83077 0.58807 0.0
H435 H 0.62229 0.8773 0.57061 0.0
H436 H 0.61817 0.75475 0.60143 0.0
H437 H 0.60922 0.68947 0.58782 0.0
C438 C 0.90829 0.58844 0.80681 0.0
C439 C 0.8916 0.54526 0.82434 0.0
C440 C 0.97549 0.55678 0.84615 0.0
C441 C 0.99056 0.60443 0.83146 0.0
N442 N 0.97925 0.655 0.79117 0.0
N443 N 0.91153 0.47555 0.85112 0.0
C444 C 0.95962 0.61619 0.80918 0.0
C445 C 0.92658 0.52458 0.84032 0.0
N446 N 0.87419 0.60514 0.78977 0.0
N447 N 1.00567 0.54494 0.8674 0.0
H448 H 0.87509 0.45245 0.84712 0.0
H449 H 0.93601 0.45609 0.86141 0.0
H450 H 1.04183 0.56739 0.8725 0.0
H451 H 0.99389 0.51428 0.88106 0.0
H452 H 0.88246 0.64014 0.77891 0.0
H453 H 0.83676 0.58407 0.78714 0.0
H454 H 0.9598 0.66351 0.77331 0.0
H455 H 1.01701 0.6755 0.79293 0.0
C456 C 0.37056 0.86637 0.16503 0.0
C457 C 0.34414 0.82324 0.18039 0.0
C458 C 0.41494 0.83636 0.21526 0.0
C459 C 0.44249 0.87763 0.19909 0.0
N460 N 0.45026 0.92775 0.15685 0.0
N461 N 0.3432 0.76161 0.21752 0.0
C462 C 0.42133 0.89146 0.17344 0.0
C463 C 0.36701 0.80657 0.20474 0.0
N464 N 0.34662 0.88402 0.1428 0.0
N465 N 0.43399 0.82677 0.24117 0.0
H466 H 0.30745 0.73957 0.21099 0.0
H467 H 0.36022 0.74368 0.2332 0.0
H468 H 0.46938 0.84687 0.24939 0.0
H469 H 0.41342 0.80174 0.25556 0.0
H470 H 0.36139 0.91884 0.13265 0.0
H471 H 0.31019 0.86539 0.13548 0.0
H472 H 0.4393 0.93564 0.13646 0.0
H473 H 0.48709 0.94763 0.16272 0.0
C474 C 0.52892 0.16836 0.54892 0.0
C475 C 0.55382 0.14886 0.52578 0.0
C476 C 0.55989 0.2351 0.50387 0.0
C477 C 0.54499 0.2572 0.52954 0.0
N478 N 0.48051 0.23228 0.56365 0.0
N479 N 0.59596 0.16733 0.48107 0.0
C480 C 0.51905 0.22017 0.54849 0.0
C481 C 0.57048 0.18331 0.50329 0.0
N482 N 0.51749 0.13924 0.57239 0.0
N483 N 0.5535 0.25792 0.4789 0.0
H484 H 0.6033 0.12959 0.47851 0.0
H485 H 0.61309 0.19355 0.4661 0.0
H486 H 0.53307 0.28768 0.4779 0.0
H487 H 0.5596 0.24121 0.45907 0.0
H488 H 0.50357 0.15438 0.5907 0.0
H489 H 0.52725 0.10285 0.57496 0.0
H490 H 0.45697 0.20484 0.57578 0.0
H491 H 0.46841 0.2675 0.56088 0.0
C492 C 0.28044 0.64683 0.78408 0.0
C493 C 0.33003 0.64123 0.78998 0.0
C494 C 0.34819 0.72607 0.81781 0.0
C495 C 0.29572 0.72287 0.81852 0.0
N496 N 0.21141 0.68545 0.79954 0.0
N497 N 0.41477 0.67956 0.80768 0.0
C498 C 0.26181 0.68596 0.79997 0.0
C499 C 0.36558 0.6831 0.80461 0.0
N500 N 0.25107 0.6129 0.7642 0.0
N501 N 0.38048 0.76912 0.83089 0.0
H502 H 0.42891 0.64921 0.79783 0.0
H503 H 0.44158 0.7063 0.82019 0.0
H504 H 0.36729 0.80033 0.84069 0.0
H505 H 0.41962 0.7762 0.83009 0.0
H506 H 0.21538 0.61652 0.75731 0.0
H507 H 0.26498 0.58385 0.75277 0.0
H508 H 0.18391 0.65539 0.78937 0.0
H509 H 0.19669 0.71459 0.8102 0.0
C510 C 0.84332 0.18933 0.16261 0.0
C511 C 0.87222 0.23299 0.17946 0.0
C512 C 0.82058 0.20417 0.22057 0.0
C513 C 0.79558 0.15738 0.20459 0.0
N514 N 0.78788 0.10146 0.16151 0.0
N515 N 0.89312 0.27863 0.22546 0.0
C516 C 0.80806 0.14898 0.17584 0.0
C517 C 0.86201 0.23964 0.20872 0.0
N518 N 0.84875 0.18709 0.1338 0.0
N519 N 0.8039 0.21528 0.24686 0.0
H520 H 0.92369 0.30547 0.2176 0.0
H521 H 0.89121 0.2818 0.24752 0.0
H522 H 0.77365 0.19027 0.25614 0.0
H523 H 0.81698 0.25132 0.25838 0.0
H524 H 0.82502 0.15949 0.11995 0.0
H525 H 0.87426 0.21581 0.1234 0.0
H526 H 0.79986 0.09056 0.1417 0.0
H527 H 0.76194 0.0709 0.17035 0.0
C528 C 0.10874 0.55607 0.03999 0.0
C529 C 0.08649 0.58193 0.06192 0.0
C530 C 0.10018 0.66321 0.03507 0.0
C531 C 0.11794 0.63576 0.01211 0.0
N532 N 0.13525 0.5551 0.99105 0.0
N533 N 1.05514 0.65767 0.0789 0.0
C534 C 0.12115 0.58186 0.01411 0.0
C535 C 0.08092 0.63497 0.05913 0.0
N536 N 0.11974 0.50772 0.04428 0.0
N537 N 0.102 0.71652 0.03395 0.0
H538 H 1.04117 0.63859 0.09691 0.0
H539 H 1.04406 0.69338 0.07646 0.0
H540 H 0.11367 0.73826 0.01621 0.0
H541 H 0.09563 0.74028 0.05134 0.0
H542 H 0.14112 0.4896 0.03055 0.0
H543 H 0.11109 0.48735 0.0628 0.0
H544 H 0.13238 0.51413 0.98979 0.0
H545 H 0.14717 0.57348 0.97232 0.0
C546 C 0.55833 0.0218 0.42231 0.0
C547 C 0.56461 0.97833 0.43868 0.0
C548 C 0.61045 0.94714 0.39923 0.0
C549 C 0.59723 0.9855 0.38169 0.0
N550 N 0.55194 0.05482 0.37529 0.0
N551 N 0.58832 0.89302 0.43947 0.0
C552 C 0.56944 0.0217 0.39289 0.0
C553 C 0.58885 0.93938 0.42641 0.0
N554 N 0.54355 0.06438 0.43493 0.0
N555 N 0.64403 0.91823 0.38998 0.0
H556 H 0.5701 0.88317 0.45828 0.0
H557 H 0.60088 0.86133 0.4299 0.0
H558 H 0.66061 0.9229 0.3702 0.0
H559 H 0.65917 0.8937 0.40303 0.0
H560 H 0.54373 0.09938 0.42466 0.0
H561 H 0.53639 0.0675 0.45648 0.0
H562 H 0.52638 0.07748 0.3816 0.0
H563 H 0.55948 0.05632 0.35367 0.0
C564 C 0.55479 0.52442 0.7422 0.0
C565 C 0.5659 0.4797 0.75561 0.0
C566 C 0.58152 0.4422 0.70847 0.0
C567 C 0.5813 0.49176 0.69668 0.0
N568 N 0.57302 0.58266 0.70302 0.0
N569 N 0.58663 0.39323 0.75064 0.0
C570 C 0.56931 0.53361 0.71372 0.0
C571 C 0.57815 0.43767 0.73842 0.0
N572 N 0.52833 0.55678 0.7558 0.0
N573 N 0.5833 0.39897 0.69091 0.0
H574 H 0.57885 0.38498 0.77173 0.0
H575 H 0.60284 0.36515 0.74008 0.0
H576 H 0.58537 0.40069 0.66886 0.0
H577 H 0.57805 0.36038 0.69779 0.0
H578 H 0.51689 0.58787 0.74609 0.0
H579 H 0.51043 0.54749 0.77473 0.0
H580 H 0.57032 0.61617 0.71558 0.0
H581 H 0.58335 0.59094 0.6822 0.0
C582 C 0.54673 0.94252 0.61902 0.0
C583 C 0.57258 0.98819 0.60535 0.0
C584 C 0.59556 0.03576 0.65175 0.0
C585 C 0.56918 0.9902 0.66536 0.0
N586 N 0.5103 0.90522 0.66229 0.0
N587 N 0.61324 0.08145 0.60786 0.0
C588 C 0.54172 0.94515 0.64903 0.0
C589 C 0.59396 0.03599 0.62148 0.0
N590 N 0.5286 0.896 0.60341 0.0
N591 N 0.62451 0.07756 0.6677 0.0
H592 H 0.61449 0.08266 0.58577 0.0
H593 H 0.62426 0.11887 0.61824 0.0
H594 H 0.62642 0.07915 0.68988 0.0
H595 H 0.64943 0.10911 0.65906 0.0
H596 H 0.51524 0.85955 0.61236 0.0
H597 H 0.52963 0.89325 0.58131 0.0
H598 H 0.48538 0.87371 0.65143 0.0
H599 H 0.50586 0.90605 0.68426 0.0
C600 C 0.56999 0.50953 0.93448 0.0
C601 C 0.52082 0.49104 0.9219 0.0
C602 C 0.48587 0.48214 0.96966 0.0
C603 C 0.53547 0.49586 0.98199 0.0
N604 N 0.62537 0.51204 0.97581 0.0
N605 N 0.43348 0.44772 0.92776 0.0
C606 C 0.57774 0.50641 0.96429 0.0
C607 C 0.47908 0.47407 0.93956 0.0
N608 N 0.60904 0.53257 0.91824 0.0
N609 N 0.44515 0.47819 0.98662 0.0
H610 H 0.42744 0.4385 0.906 0.0
H611 H 0.40322 0.42985 0.9398 0.0
H612 H 0.44856 0.48394 0.00872 0.0
H613 H 0.40835 0.474 0.97861 0.0
H614 H 0.6444 0.55207 0.92668 0.0
H615 H 0.60461 0.53672 0.89656 0.0
H616 H 0.65714 0.51397 0.96357 0.0
H617 H 0.63267 0.50981 -0.00248 0.0
C618 C 1.03561 0.47102 0.23048 0.0
C619 C 1.06706 0.52016 0.22349 0.0
C620 C 0.10403 0.53341 0.27191 0.0
C621 C 0.07534 0.48265 0.27837 0.0
N622 N 1.01816 0.39994 0.26355 0.0
N623 N 0.13933 0.59191 0.23525 0.0
C624 C 1.04216 0.45052 0.25759 0.0
C625 C 0.10349 0.54973 0.24358 0.0
N626 N 0.99919 0.44441 0.21132 0.0
N627 N 0.13111 0.56653 0.29302 0.0
H628 H 0.14136 0.60435 0.21448 0.0
H629 H 0.17019 0.6112 0.24815 0.0
H630 H 0.13305 0.55585 0.31406 0.0
H631 H 0.14806 0.60626 0.29023 0.0
H632 H 0.97141 0.4114 0.21602 0.0
H633 H 0.99496 0.45729 0.19093 0.0
H634 H 0.99772 0.37228 0.24848 0.0
H635 H 1.02135 0.38427 0.28339 0.0
loop_
_geom_bond_atom_site_label_1
_geom_bond_atom_site_label_2
_geom_bond_distance
_geom_bond_site_symmetry_2
_ccdc_geom_bond_type
Nd0 C2 2.836 . S
Nd0 O20 2.500 . S
Nd0 O21 2.492 . S
Nd0 O22 2.487 . S
Nd0 O23 2.682 . S
Nd0 O24 2.410 . S
Nd0 O29 2.414 . S
Nd0 O31 2.424 1_455 S
Nd1 C11 2.836 . S
Nd1 O23 2.414 1_655 S
Nd1 O25 2.424 1_655 S
Nd1 O26 2.500 . S
Nd1 O27 2.492 . S
Nd1 O28 2.487 . S
Nd1 O29 2.682 1_655 S
Nd1 O30 2.410 . S
C2 Nd0 2.836 . S
C2 C3 1.498 . S
C2 O20 1.258 . S
C2 O21 1.239 . S
C3 C2 1.498 . S
C3 C4 1.366 . S
C3 C8 1.407 . S
C4 C3 1.366 . S
C4 C5 1.392 . S
C4 H32 0.930 . S
C5 C4 1.392 . S
C5 C6 1.398 . S
C5 H33 0.929 . S
C6 C5 1.398 . S
C6 C7 1.352 . S
C7 C6 1.352 . S
C7 C8 1.384 . S
C7 H34 0.930 . S
C8 C3 1.407 . S
C8 C7 1.384 . S
C8 H35 0.929 . S
C9 O22 1.241 . S
C9 O23 1.273 . S
C10 O24 1.251 . S
C10 O25 1.268 . S
C11 Nd1 2.836 . S
C11 C12 1.498 . S
C11 O26 1.258 . S
C11 O27 1.239 . S
C12 C11 1.498 . S
C12 C13 1.366 . S
C12 C17 1.407 . S
C13 C12 1.366 . S
C13 C14 1.392 . S
C13 H36 0.930 . S
C14 C13 1.392 . S
C14 C15 1.398 . S
C14 H37 0.929 . S
C15 C14 1.398 . S
C15 C16 1.352 . S
C16 C15 1.352 . S
C16 C17 1.384 . S
C16 H38 0.930 . S
C17 C12 1.407 . S
C17 C16 1.384 . S
C17 H39 0.929 . S
C18 O28 1.241 1_455 S
C18 O29 1.273 . S
C19 O30 1.251 . S
C19 O31 1.268 . S
O20 Nd0 2.500 . S
O20 C2 1.258 . S
O21 Nd0 2.492 . S
O21 C2 1.239 . S
O22 Nd0 2.487 . S
O22 C9 1.241 . S
O23 Nd0 2.682 . S
O23 Nd1 2.414 1_455 S
O23 C9 1.273 . S
O24 Nd0 2.410 . S
O24 C10 1.251 . S
O25 Nd1 2.424 1_455 S
O25 C10 1.268 . S
O26 Nd1 2.500 . S
O26 C11 1.258 . S
O27 Nd1 2.492 . S
O27 C11 1.239 . S
O28 Nd1 2.487 . S
O28 C18 1.241 1_655 S
O29 Nd0 2.414 . S
O29 Nd1 2.682 1_455 S
O29 C18 1.273 . S
O30 Nd1 2.410 . S
O30 C19 1.251 . S
O31 Nd0 2.424 1_655 S
O31 C19 1.268 . S
H32 C4 0.930 . S
H33 C5 0.929 . S
H34 C7 0.930 . S
H35 C8 0.929 . S
H36 C13 0.930 . S
H37 C14 0.929 . S
H38 C16 0.930 . S
H39 C17 0.929 . S
Nd40 C42 2.836 1_545 S
Nd40 O60 2.499 1_545 S
Nd40 O61 2.491 1_545 S
Nd40 O62 2.487 1_545 S
Nd40 O63 2.682 . S
Nd40 O64 2.409 1_545 S
Nd40 O69 2.414 . S
Nd40 O71 2.425 . S
Nd41 C51 2.836 . S
Nd41 O63 2.414 . S
Nd41 O65 2.424 1_545 S
Nd41 O66 2.500 . S
Nd41 O67 2.492 . S
Nd41 O68 2.487 . S
Nd41 O69 2.682 . S
Nd41 O70 2.410 . S
C42 Nd40 2.836 1_565 S
C42 C43 1.498 . S
C42 O60 1.258 . S
C42 O61 1.239 . S
C43 C42 1.498 . S
C43 C44 1.366 . S
C43 C48 1.407 . S
C44 C43 1.366 . S
C44 C45 1.392 . S
C44 H72 0.930 . S
C45 C44 1.392 . S
C45 C46 1.398 . S
C45 H73 0.929 . S
C46 C45 1.398 . S
C46 C47 1.352 . S
C47 C46 1.352 . S
C47 C48 1.384 . S
C47 H74 0.930 . S
C48 C43 1.407 . S
C48 C47 1.384 . S
C48 H75 0.929 . S
C49 O62 1.241 1_545 S
C49 O63 1.273 . S
C50 O64 1.251 . S
C50 O65 1.268 . S
C51 Nd41 2.836 . S
C51 C52 1.498 . S
C51 O66 1.258 . S
C51 O67 1.239 . S
C52 C51 1.498 . S
C52 C53 1.366 . S
C52 C57 1.407 . S
C53 C52 1.366 . S
C53 C54 1.392 . S
C53 H76 0.930 . S
C54 C53 1.392 . S
C54 C55 1.398 . S
C54 H77 0.929 . S
C55 C54 1.398 . S
C55 C56 1.352 . S
C56 C55 1.352 . S
C56 C57 1.384 . S
C56 H78 0.930 . S
C57 C52 1.407 . S
C57 C56 1.384 . S
C57 H79 0.929 . S
C58 O68 1.241 . S
C58 O69 1.273 . S
C59 O70 1.251 . S
C59 O71 1.268 . S
O60 Nd40 2.499 1_565 S
O60 C42 1.258 . S
O61 Nd40 2.491 1_565 S
O61 C42 1.239 . S
O62 Nd40 2.487 1_565 S
O62 C49 1.241 1_565 S
O63 Nd40 2.682 . S
O63 Nd41 2.414 . S
O63 C49 1.273 . S
O64 Nd40 2.409 1_565 S
O64 C50 1.251 . S
O65 Nd41 2.424 1_565 S
O65 C50 1.268 . S
O66 Nd41 2.500 . S
O66 C51 1.258 . S
O67 Nd41 2.492 . S
O67 C51 1.239 . S
O68 Nd41 2.487 . S
O68 C58 1.241 . S
O69 Nd40 2.414 . S
O69 Nd41 2.682 . S
O69 C58 1.273 . S
O70 Nd41 2.410 . S
O70 C59 1.251 . S
O71 Nd40 2.425 . S
O71 C59 1.268 . S
H72 C44 0.930 . S
H73 C45 0.929 . S
H74 C47 0.930 . S
H75 C48 0.929 . S
H76 C53 0.930 . S
H77 C54 0.929 . S
H78 C56 0.930 . S
H79 C57 0.929 . S
Nd80 C82 2.836 . S
Nd80 O100 2.500 . S
Nd80 O101 2.492 . S
Nd80 O102 2.487 . S
Nd80 O103 2.682 . S
Nd80 O104 2.410 . S
Nd80 O109 2.414 . S
Nd80 O111 2.424 . S
Nd81 C91 2.836 . S
Nd81 O103 2.414 . S
Nd81 O105 2.424 . S
Nd81 O106 2.500 . S
Nd81 O107 2.492 . S
Nd81 O108 2.487 . S
Nd81 O109 2.682 . S
Nd81 O110 2.410 . S
C82 Nd80 2.836 . S
C82 C83 1.498 . S
C82 O100 1.258 . S
C82 O101 1.239 . S
C83 C82 1.498 . S
C83 C84 1.366 . S
C83 C88 1.407 . S
C84 C83 1.366 . S
C84 C85 1.392 . S
C84 H112 0.930 . S
C85 C84 1.392 . S
C85 C86 1.398 . S
C85 H113 0.929 . S
C86 C85 1.398 . S
C86 C87 1.352 . S
C87 C86 1.352 . S
C87 C88 1.384 . S
C87 H114 0.930 . S
C88 C83 1.407 . S
C88 C87 1.384 . S
C88 H115 0.929 . S
C89 O102 1.241 . S
C89 O103 1.273 . S
C90 O104 1.251 . S
C90 O105 1.268 . S
C91 Nd81 2.836 . S
C91 C92 1.498 . S
C91 O106 1.258 . S
C91 O107 1.239 . S
C92 C91 1.498 . S
C92 C93 1.366 . S
C92 C97 1.407 . S
C93 C92 1.366 . S
C93 C94 1.392 . S
C93 H116 0.930 . S
C94 C93 1.392 . S
C94 C95 1.398 . S
C94 H117 0.929 . S
C95 C94 1.398 . S
C95 C96 1.352 . S
C96 C95 1.352 . S
C96 C97 1.384 . S
C96 H118 0.930 . S
C97 C92 1.407 . S
C97 C96 1.384 . S
C97 H119 0.929 . S
C98 O108 1.241 . S
C98 O109 1.273 . S
C99 O110 1.251 . S
C99 O111 1.268 . S
O100 Nd80 2.500 . S
O100 C82 1.258 . S
O101 Nd80 2.492 . S
O101 C82 1.239 . S
O102 Nd80 2.487 . S
O102 C89 1.241 . S
O103 Nd80 2.682 . S
O103 Nd81 2.414 . S
O103 C89 1.273 . S
O104 Nd80 2.410 . S
O104 C90 1.251 . S
O105 Nd81 2.424 . S
O105 C90 1.268 . S
O106 Nd81 2.500 . S
O106 C91 1.258 . S
O107 Nd81 2.492 . S
O107 C91 1.239 . S
O108 Nd81 2.487 . S
O108 C98 1.241 . S
O109 Nd80 2.414 . S
O109 Nd81 2.682 . S
O109 C98 1.273 . S
O110 Nd81 2.410 . S
O110 C99 1.251 . S
O111 Nd80 2.424 . S
O111 C99 1.268 . S
H112 C84 0.930 . S
H113 C85 0.929 . S
H114 C87 0.930 . S
H115 C88 0.929 . S
H116 C93 0.930 . S
H117 C94 0.929 . S
H118 C96 0.930 . S
H119 C97 0.929 . S
P120 O131 1.490 . S
P120 C134 1.812 . S
P120 C140 1.803 1_565 S
P120 C146 1.819 1_565 S
H121 C135 0.941 . S
H122 C136 0.939 . S
H123 C138 0.940 . S
H124 C139 0.929 1_545 S
H125 C141 0.939 . S
H126 C142 0.942 . S
H127 C144 0.940 . S
H128 C145 0.939 . S
H129 C147 0.941 . S
H130 C151 0.939 . S
O131 P120 1.490 . S
H132 C148 0.939 . S
H133 C150 0.940 . S
C134 P120 1.812 . S
C134 C135 1.389 . S
C134 C139 1.391 . S
C135 H121 0.941 . S
C135 C134 1.389 . S
C135 C136 1.397 . S
C136 H122 0.939 . S
C136 C135 1.397 . S
C136 C137 1.378 . S
C137 C136 1.378 . S
C137 C138 1.378 . S
C138 H123 0.940 . S
C138 C137 1.378 . S
C138 C139 1.396 . S
C139 H124 0.929 1_565 S
C139 C134 1.391 . S
C139 C138 1.396 . S
C140 P120 1.803 1_545 S
C140 C141 1.378 . S
C140 C145 1.400 . S
C141 H125 0.939 . S
C141 C140 1.378 . S
C141 C142 1.361 . S
C142 H126 0.942 . S
C142 C141 1.361 . S
C142 C143 1.369 . S
C143 C142 1.369 . S
C143 C144 1.404 . S
C144 H127 0.940 . S
C144 C143 1.404 . S
C144 C145 1.389 . S
C145 H128 0.939 . S
C145 C140 1.400 . S
C145 C144 1.389 . S
C146 P120 1.819 1_545 S
C146 C147 1.391 1_545 S
C146 C151 1.391 . S
C147 H129 0.941 . S
C147 C146 1.391 1_565 S
C147 C148 1.396 . S
C148 H132 0.939 . S
C148 C147 1.396 . S
C148 C149 1.397 1_565 S
C149 C148 1.397 1_545 S
C149 C150 1.385 . S
C150 H133 0.940 . S
C150 C149 1.385 . S
C150 C151 1.388 . S
C151 H130 0.939 . S
C151 C146 1.391 . S
C151 C150 1.388 . S
P152 O163 1.490 . S
P152 C166 1.812 . S
P152 C172 1.803 . S
P152 C178 1.819 . S
H153 C167 0.941 . S
H154 C168 0.939 . S
H155 C170 0.940 . S
H156 C171 0.940 . S
H157 C173 0.939 . S
H158 C174 0.942 . S
H159 C176 0.940 . S
H160 C177 0.939 . S
H161 C179 0.941 . S
H162 C183 0.939 . S
O163 P152 1.490 . S
H164 C180 0.939 . S
H165 C182 0.940 . S
C166 P152 1.812 . S
C166 C167 1.389 . S
C166 C171 1.391 . S
C167 H153 0.941 . S
C167 C166 1.389 . S
C167 C168 1.397 . S
C168 H154 0.939 . S
C168 C167 1.397 . S
C168 C169 1.378 . S
C169 C168 1.378 . S
C169 C170 1.378 . S
C170 H155 0.940 . S
C170 C169 1.378 . S
C170 C171 1.396 . S
C171 H156 0.940 . S
C171 C166 1.391 . S
C171 C170 1.396 . S
C172 P152 1.803 . S
C172 C173 1.378 . S
C172 C177 1.400 . S
C173 H157 0.939 . S
C173 C172 1.378 . S
C173 C174 1.361 . S
C174 H158 0.942 . S
C174 C173 1.361 . S
C174 C175 1.369 . S
C175 C174 1.369 . S
C175 C176 1.404 . S
C176 H159 0.940 . S
C176 C175 1.404 . S
C176 C177 1.389 . S
C177 H160 0.939 . S
C177 C172 1.400 . S
C177 C176 1.389 . S
C178 P152 1.819 . S
C178 C179 1.391 . S
C178 C183 1.391 . S
C179 H161 0.941 . S
C179 C178 1.391 . S
C179 C180 1.396 . S
C180 H164 0.939 . S
C180 C179 1.396 . S
C180 C181 1.397 . S
C181 C180 1.397 . S
C181 C182 1.385 . S
C182 H165 0.940 . S
C182 C181 1.385 . S
C182 C183 1.388 . S
C183 H162 0.939 . S
C183 C178 1.391 . S
C183 C182 1.388 . S
P184 O195 1.490 . S
P184 C198 1.812 . S
P184 C204 1.803 1_455 S
P184 C210 1.819 . S
H185 C199 0.941 . S
H186 C200 0.939 . S
H187 C202 0.940 . S
H188 C203 0.940 . S
H189 C205 0.939 . S
H190 C206 0.942 . S
H191 C208 0.940 . S
H192 C209 0.948 . S
H193 C211 0.941 . S
H194 C215 0.928 1_655 S
O195 P184 1.490 . S
H196 C212 0.939 1_554 S
H197 C214 0.940 . S
C198 P184 1.812 . S
C198 C199 1.389 . S
C198 C203 1.391 . S
C199 H185 0.941 . S
C199 C198 1.389 . S
C199 C200 1.397 . S
C200 H186 0.939 . S
C200 C199 1.397 . S
C200 C201 1.378 . S
C201 C200 1.378 . S
C201 C202 1.378 . S
C202 H187 0.940 . S
C202 C201 1.378 . S
C202 C203 1.396 . S
C203 H188 0.940 . S
C203 C198 1.391 . S
C203 C202 1.396 . S
C204 P184 1.803 1_655 S
C204 C205 1.378 . S
C204 C209 1.400 . S
C205 H189 0.939 . S
C205 C204 1.378 . S
C205 C206 1.361 . S
C206 H190 0.942 . S
C206 C205 1.361 . S
C206 C207 1.369 . S
C207 C206 1.369 . S
C207 C208 1.404 . S
C208 H191 0.940 . S
C208 C207 1.404 . S
C208 C209 1.389 . S
C209 H192 0.948 . S
C209 C204 1.400 . S
C209 C208 1.389 . S
C210 P184 1.819 . S
C210 C211 1.391 . S
C210 C215 1.401 . S
C211 H193 0.941 . S
C211 C210 1.391 . S
C211 C212 1.396 . S
C212 H196 0.939 1_556 S
C212 C211 1.396 . S
C212 C213 1.397 1_556 S
C213 C212 1.397 1_554 S
C213 C214 1.385 1_454 S
C214 H197 0.940 . S
C214 C213 1.385 1_656 S
C214 C215 1.390 1_655 S
C215 H194 0.928 1_455 S
C215 C210 1.401 . S
C215 C214 1.390 1_455 S
P216 O227 1.490 . S
P216 C230 1.812 . S
P216 C236 1.803 1_455 S
P216 C242 1.819 . S
H217 C231 0.941 . S
H218 C232 0.939 . S
H219 C234 0.940 . S
H220 C235 0.940 . S
H221 C237 0.939 . S
H222 C238 0.942 . S
H223 C240 0.940 . S
H224 C241 0.939 . S
H225 C243 0.941 . S
H226 C247 0.939 . S
O227 P216 1.490 . S
H228 C244 0.939 . S
H229 C246 0.940 . S
C230 P216 1.812 . S
C230 C231 1.389 . S
C230 C235 1.391 . S
C231 H217 0.941 . S
C231 C230 1.389 . S
C231 C232 1.397 . S
C232 H218 0.939 . S
C232 C231 1.397 . S
C232 C233 1.378 . S
C233 C232 1.378 . S
C233 C234 1.378 . S
C234 H219 0.940 . S
C234 C233 1.378 . S
C234 C235 1.396 . S
C235 H220 0.940 . S
C235 C230 1.391 . S
C235 C234 1.396 . S
C236 P216 1.803 1_655 S
C236 C237 1.378 . S
C236 C241 1.400 . S
C237 H221 0.939 . S
C237 C236 1.378 . S
C237 C238 1.361 . S
C238 H222 0.942 . S
C238 C237 1.361 . S
C238 C239 1.369 . S
C239 C238 1.369 . S
C239 C240 1.404 . S
C240 H223 0.940 . S
C240 C239 1.404 . S
C240 C241 1.389 . S
C241 H224 0.939 . S
C241 C236 1.400 . S
C241 C240 1.389 . S
C242 P216 1.819 . S
C242 C243 1.391 . S
C242 C247 1.391 1_455 S
C243 H225 0.941 . S
C243 C242 1.391 . S
C243 C244 1.396 . S
C244 H228 0.939 . S
C244 C243 1.396 . S
C244 C245 1.397 . S
C245 C244 1.397 . S
C245 C246 1.385 1_455 S
C246 H229 0.940 . S
C246 C245 1.385 1_655 S
C246 C247 1.388 . S
C247 H226 0.939 . S
C247 C242 1.391 1_655 S
C247 C246 1.388 . S
P248 O259 1.490 . S
P248 C262 1.812 . S
P248 C268 1.803 1_545 S
P248 C274 1.819 . S
H249 C263 0.941 . S
H250 C264 0.939 . S
H251 C266 0.940 . S
H252 C267 0.940 . S
H253 C269 0.939 . S
H254 C270 0.942 . S
H255 C272 0.940 . S
H256 C273 0.939 . S
H257 C275 0.941 . S
H258 C279 0.939 . S
O259 P248 1.490 . S
H260 C276 0.939 . S
H261 C278 0.940 . S
C262 P248 1.812 . S
C262 C263 1.389 . S
C262 C267 1.391 . S
C263 H249 0.941 . S
C263 C262 1.389 . S
C263 C264 1.397 . S
C264 H250 0.939 . S
C264 C263 1.397 . S
C264 C265 1.378 . S
C265 C264 1.378 . S
C265 C266 1.378 . S
C266 H251 0.940 . S
C266 C265 1.378 . S
C266 C267 1.396 . S
C267 H252 0.940 . S
C267 C262 1.391 . S
C267 C266 1.396 . S
C268 P248 1.803 1_565 S
C268 C269 1.378 . S
C268 C273 1.400 . S
C269 H253 0.939 . S
C269 C268 1.378 . S
C269 C270 1.361 . S
C270 H254 0.942 . S
C270 C269 1.361 . S
C270 C271 1.369 . S
C271 C270 1.369 . S
C271 C272 1.404 . S
C272 H255 0.940 . S
C272 C271 1.404 . S
C272 C273 1.389 . S
C273 H256 0.939 . S
C273 C268 1.400 . S
C273 C272 1.389 . S
C274 P248 1.819 . S
C274 C275 1.391 . S
C274 C279 1.391 1_545 S
C275 H257 0.941 . S
C275 C274 1.391 . S
C275 C276 1.396 . S
C276 H260 0.939 . S
C276 C275 1.396 . S
C276 C277 1.397 . S
C277 C276 1.397 . S
C277 C278 1.385 1_545 S
C278 H261 0.940 . S
C278 C277 1.385 1_565 S
C278 C279 1.388 . S
C279 H258 0.939 . S
C279 C274 1.391 1_565 S
C279 C278 1.388 . S
P280 O291 1.490 . S
P280 C294 1.812 . S
P280 C300 1.803 . S
P280 C306 1.819 . S
H281 C295 0.941 . S
H282 C296 0.939 . S
H283 C298 0.940 . S
H284 C299 0.940 . S
H285 C301 0.939 . S
H286 C302 0.942 . S
H287 C304 0.940 . S
H288 C305 0.939 . S
H289 C307 0.941 . S
H290 C311 0.939 . S
O291 P280 1.490 . S
H292 C308 0.939 . S
H293 C310 0.940 . S
C294 P280 1.812 . S
C294 C295 1.389 . S
C294 C299 1.391 . S
C295 H281 0.941 . S
C295 C294 1.389 . S
C295 C296 1.397 . S
C296 H282 0.939 . S
C296 C295 1.397 . S
C296 C297 1.378 . S
C297 C296 1.378 . S
C297 C298 1.378 . S
C298 H283 0.940 . S
C298 C297 1.378 . S
C298 C299 1.396 . S
C299 H284 0.940 . S
C299 C294 1.391 . S
C299 C298 1.396 . S
C300 P280 1.803 . S
C300 C301 1.378 . S
C300 C305 1.400 . S
C301 H285 0.939 . S
C301 C300 1.378 . S
C301 C302 1.361 . S
C302 H286 0.942 . S
C302 C301 1.361 . S
C302 C303 1.369 . S
C303 C302 1.369 . S
C303 C304 1.404 . S
C304 H287 0.940 . S
C304 C303 1.404 . S
C304 C305 1.389 . S
C305 H288 0.939 . S
C305 C300 1.400 . S
C305 C304 1.389 . S
C306 P280 1.819 . S
C306 C307 1.391 . S
C306 C311 1.391 . S
C307 H289 0.941 . S
C307 C306 1.391 . S
C307 C308 1.396 . S
C308 H292 0.939 . S
C308 C307 1.396 . S
C308 C309 1.397 . S
C309 C308 1.397 . S
C309 C310 1.385 . S
C310 H293 0.940 . S
C310 C309 1.385 . S
C310 C311 1.388 . S
C311 H290 0.939 . S
C311 C306 1.391 . S
C311 C310 1.388 . S
C312 C313 1.363 . S
C312 C318 1.379 . S
C312 N320 1.356 . S
C313 C312 1.363 . S
C313 C319 1.363 . S
C314 C315 1.363 . S
C314 C319 1.379 . S
C314 N321 1.356 . S
C315 C314 1.363 . S
C315 C318 1.363 . S
N316 C318 1.356 . S
N316 H328 0.984 . S
N316 H329 0.985 . S
N317 C319 1.356 . S
N317 H322 0.984 . S
N317 H323 0.985 . S
C318 C312 1.379 . S
C318 C315 1.363 . S
C318 N316 1.356 . S
C319 C313 1.363 . S
C319 C314 1.379 . S
C319 N317 1.356 . S
N320 C312 1.356 . S
N320 H326 0.984 . S
N320 H327 0.984 . S
N321 C314 1.356 . S
N321 H324 0.984 . S
N321 H325 0.985 . S
H322 N317 0.984 . S
H323 N317 0.985 . S
H324 N321 0.984 . S
H325 N321 0.985 . S
H326 N320 0.984 . S
H327 N320 0.984 . S
H328 N316 0.984 . S
H329 N316 0.985 . S
C330 C331 1.363 . S
C330 C336 1.379 . S
C330 N338 1.356 . S
C331 C330 1.363 . S
C331 C337 1.363 . S
C332 C333 1.363 . S
C332 C337 1.379 . S
C332 N339 1.356 . S
C333 C332 1.363 . S
C333 C336 1.363 . S
N334 C336 1.356 . S
N334 H346 0.984 . S
N334 H347 0.985 . S
N335 C337 1.356 . S
N335 H340 0.984 . S
N335 H341 0.985 . S
C336 C330 1.379 . S
C336 C333 1.363 . S
C336 N334 1.356 . S
C337 C331 1.363 . S
C337 C332 1.379 . S
C337 N335 1.356 . S
N338 C330 1.356 . S
N338 H344 0.984 . S
N338 H345 0.984 . S
N339 C332 1.356 . S
N339 H342 0.984 . S
N339 H343 0.985 . S
H340 N335 0.984 . S
H341 N335 0.985 . S
H342 N339 0.984 . S
H343 N339 0.985 . S
H344 N338 0.984 . S
H345 N338 0.984 . S
H346 N334 0.984 . S
H347 N334 0.985 . S
C348 C349 1.363 . S
C348 C354 1.379 . S
C348 N356 1.356 . S
C349 C348 1.363 . S
C349 C355 1.363 . S
C350 C351 1.363 . S
C350 C355 1.379 . S
C350 N357 1.356 . S
C351 C350 1.363 . S
C351 C354 1.363 . S
N352 C354 1.356 . S
N352 H364 0.984 . S
N352 H365 0.985 . S
N353 C355 1.356 . S
N353 H358 0.984 . S
N353 H359 0.985 . S
C354 C348 1.379 . S
C354 C351 1.363 . S
C354 N352 1.356 . S
C355 C349 1.363 . S
C355 C350 1.379 . S
C355 N353 1.356 . S
N356 C348 1.356 . S
N356 H362 0.984 . S
N356 H363 0.984 . S
N357 C350 1.356 . S
N357 H360 0.984 . S
N357 H361 0.985 . S
H358 N353 0.984 . S
H359 N353 0.985 . S
H360 N357 0.984 . S
H361 N357 0.985 . S
H362 N356 0.984 . S
H363 N356 0.984 . S
H364 N352 0.984 . S
H365 N352 0.985 . S
C366 C367 1.363 . S
C366 C372 1.379 . S
C366 N374 1.356 . S
C367 C366 1.363 . S
C367 C373 1.363 . S
C368 C369 1.363 . S
C368 C373 1.379 . S
C368 N375 1.356 . S
C369 C368 1.363 . S
C369 C372 1.363 . S
N370 C372 1.356 . S
N370 H382 0.984 . S
N370 H383 0.985 . S
N371 C373 1.356 . S
N371 H376 0.984 . S
N371 H377 0.985 . S
C372 C366 1.379 . S
C372 C369 1.363 . S
C372 N370 1.356 . S
C373 C367 1.363 . S
C373 C368 1.379 . S
C373 N371 1.356 . S
N374 C366 1.356 . S
N374 H380 0.984 . S
N374 H381 0.984 . S
N375 C368 1.356 . S
N375 H378 0.984 . S
N375 H379 0.985 . S
H376 N371 0.984 . S
H377 N371 0.985 . S
H378 N375 0.984 . S
H379 N375 0.985 . S
H380 N374 0.984 . S
H381 N374 0.984 . S
H382 N370 0.984 . S
H383 N370 0.985 . S
C384 C385 1.363 . S
C384 C390 1.379 . S
C384 N392 1.356 . S
C385 C384 1.363 . S
C385 C391 1.363 . S
C386 C387 1.363 . S
C386 C391 1.379 . S
C386 N393 1.356 . S
C387 C386 1.363 . S
C387 C390 1.363 . S
N388 C390 1.356 . S
N388 H400 0.984 . S
N388 H401 0.985 . S
N389 C391 1.356 . S
N389 H394 0.984 . S
N389 H395 0.985 . S
C390 C384 1.379 . S
C390 C387 1.363 . S
C390 N388 1.356 . S
C391 C385 1.363 . S
C391 C386 1.379 . S
C391 N389 1.356 . S
N392 C384 1.356 . S
N392 H398 0.984 . S
N392 H399 0.984 . S
N393 C386 1.356 . S
N393 H396 0.984 . S
N393 H397 0.985 . S
H394 N389 0.984 . S
H395 N389 0.985 . S
H396 N393 0.984 . S
H397 N393 0.985 . S
H398 N392 0.984 . S
H399 N392 0.984 . S
H400 N388 0.984 . S
H401 N388 0.985 . S
C402 C403 1.363 . S
C402 C408 1.379 . S
C402 N410 1.356 . S
C403 C402 1.363 . S
C403 C409 1.363 . S
C404 C405 1.363 . S
C404 C409 1.379 . S
C404 N411 1.356 . S
C405 C404 1.363 . S
C405 C408 1.363 . S
N406 C408 1.356 . S
N406 H418 0.984 . S
N406 H419 0.985 . S
N407 C409 1.356 . S
N407 H412 0.984 . S
N407 H413 0.985 . S
C408 C402 1.379 . S
C408 C405 1.363 . S
C408 N406 1.356 . S
C409 C403 1.363 . S
C409 C404 1.379 . S
C409 N407 1.356 . S
N410 C402 1.356 . S
N410 H416 0.984 . S
N410 H417 0.984 . S
N411 C404 1.356 . S
N411 H414 0.984 . S
N411 H415 0.985 . S
H412 N407 0.984 . S
H413 N407 0.985 . S
H414 N411 0.984 . S
H415 N411 0.985 . S
H416 N410 0.984 . S
H417 N410 0.984 . S
H418 N406 0.984 . S
H419 N406 0.985 . S
C420 C421 1.363 . S
C420 C426 1.379 . S
C420 N428 1.356 . S
C421 C420 1.363 . S
C421 C427 1.363 . S
C422 C423 1.363 . S
C422 C427 1.379 . S
C422 N429 1.356 . S
C423 C422 1.363 . S
C423 C426 1.363 . S
N424 C426 1.356 . S
N424 H436 0.984 . S
N424 H437 0.985 . S
N425 C427 1.356 . S
N425 H430 0.984 . S
N425 H431 0.985 . S
C426 C420 1.379 . S
C426 C423 1.363 . S
C426 N424 1.356 . S
C427 C421 1.363 . S
C427 C422 1.379 . S
C427 N425 1.356 . S
N428 C420 1.356 . S
N428 H434 0.984 . S
N428 H435 0.984 . S
N429 C422 1.356 . S
N429 H432 0.984 . S
N429 H433 0.985 . S
H430 N425 0.984 . S
H431 N425 0.985 . S
H432 N429 0.984 . S
H433 N429 0.985 . S
H434 N428 0.984 . S
H435 N428 0.984 . S
H436 N424 0.984 . S
H437 N424 0.985 . S
C438 C439 1.363 . S
C438 C444 1.379 . S
C438 N446 1.356 . S
C439 C438 1.363 . S
C439 C445 1.363 . S
C440 C441 1.363 . S
C440 C445 1.379 . S
C440 N447 1.356 . S
C441 C440 1.363 . S
C441 C444 1.363 . S
N442 C444 1.356 . S
N442 H454 0.984 . S
N442 H455 0.985 . S
N443 C445 1.356 . S
N443 H448 0.984 . S
N443 H449 0.985 . S
C444 C438 1.379 . S
C444 C441 1.363 . S
C444 N442 1.356 . S
C445 C439 1.363 . S
C445 C440 1.379 . S
C445 N443 1.356 . S
N446 C438 1.356 . S
N446 H452 0.984 . S
N446 H453 0.984 . S
N447 C440 1.356 . S
N447 H450 0.984 . S
N447 H451 0.985 . S
H448 N443 0.984 . S
H449 N443 0.985 . S
H450 N447 0.984 . S
H451 N447 0.985 . S
H452 N446 0.984 . S
H453 N446 0.984 . S
H454 N442 0.984 . S
H455 N442 0.985 . S
C456 C457 1.363 . S
C456 C462 1.379 . S
C456 N464 1.356 . S
C457 C456 1.363 . S
C457 C463 1.363 . S
C458 C459 1.363 . S
C458 C463 1.379 . S
C458 N465 1.356 . S
C459 C458 1.363 . S
C459 C462 1.363 . S
N460 C462 1.356 . S
N460 H472 0.984 . S
N460 H473 0.985 . S
N461 C463 1.356 . S
N461 H466 0.984 . S
N461 H467 0.985 . S
C462 C456 1.379 . S
C462 C459 1.363 . S
C462 N460 1.356 . S
C463 C457 1.363 . S
C463 C458 1.379 . S
C463 N461 1.356 . S
N464 C456 1.356 . S
N464 H470 0.984 . S
N464 H471 0.984 . S
N465 C458 1.356 . S
N465 H468 0.984 . S
N465 H469 0.985 . S
H466 N461 0.984 . S
H467 N461 0.985 . S
H468 N465 0.984 . S
H469 N465 0.985 . S
H470 N464 0.984 . S
H471 N464 0.984 . S
H472 N460 0.984 . S
H473 N460 0.985 . S
C474 C475 1.363 . S
C474 C480 1.379 . S
C474 N482 1.356 . S
C475 C474 1.363 . S
C475 C481 1.363 . S
C476 C477 1.363 . S
C476 C481 1.379 . S
C476 N483 1.356 . S
C477 C476 1.363 . S
C477 C480 1.363 . S
N478 C480 1.356 . S
N478 H490 0.984 . S
N478 H491 0.985 . S
N479 C481 1.356 . S
N479 H484 0.984 . S
N479 H485 0.985 . S
C480 C474 1.379 . S
C480 C477 1.363 . S
C480 N478 1.356 . S
C481 C475 1.363 . S
C481 C476 1.379 . S
C481 N479 1.356 . S
N482 C474 1.356 . S
N482 H488 0.984 . S
N482 H489 0.984 . S
N483 C476 1.356 . S
N483 H486 0.984 . S
N483 H487 0.985 . S
H484 N479 0.984 . S
H485 N479 0.985 . S
H486 N483 0.984 . S
H487 N483 0.985 . S
H488 N482 0.984 . S
H489 N482 0.984 . S
H490 N478 0.984 . S
H491 N478 0.985 . S
C492 C493 1.363 . S
C492 C498 1.379 . S
C492 N500 1.356 . S
C493 C492 1.363 . S
C493 C499 1.363 . S
C494 C495 1.363 . S
C494 C499 1.379 . S
C494 N501 1.356 . S
C495 C494 1.363 . S
C495 C498 1.363 . S
N496 C498 1.356 . S
N496 H508 0.984 . S
N496 H509 0.985 . S
N497 C499 1.356 . S
N497 H502 0.984 . S
N497 H503 0.985 . S
C498 C492 1.379 . S
C498 C495 1.363 . S
C498 N496 1.356 . S
C499 C493 1.363 . S
C499 C494 1.379 . S
C499 N497 1.356 . S
N500 C492 1.356 . S
N500 H506 0.984 . S
N500 H507 0.984 . S
N501 C494 1.356 . S
N501 H504 0.984 . S
N501 H505 0.985 . S
H502 N497 0.984 . S
H503 N497 0.985 . S
H504 N501 0.984 . S
H505 N501 0.985 . S
H506 N500 0.984 . S
H507 N500 0.984 . S
H508 N496 0.984 . S
H509 N496 0.985 . S
C510 C511 1.363 . S
C510 C516 1.379 . S
C510 N518 1.356 . S
C511 C510 1.363 . S
C511 C517 1.363 . S
C512 C513 1.363 . S
C512 C517 1.379 . S
C512 N519 1.356 . S
C513 C512 1.363 . S
C513 C516 1.363 . S
N514 C516 1.356 . S
N514 H526 0.984 . S
N514 H527 0.985 . S
N515 C517 1.356 . S
N515 H520 0.984 . S
N515 H521 0.985 . S
C516 C510 1.379 . S
C516 C513 1.363 . S
C516 N514 1.356 . S
C517 C511 1.363 . S
C517 C512 1.379 . S
C517 N515 1.356 . S
N518 C510 1.356 . S
N518 H524 0.984 . S
N518 H525 0.984 . S
N519 C512 1.356 . S
N519 H522 0.984 . S
N519 H523 0.985 . S
H520 N515 0.984 . S
H521 N515 0.985 . S
H522 N519 0.984 . S
H523 N519 0.985 . S
H524 N518 0.984 . S
H525 N518 0.984 . S
H526 N514 0.984 . S
H527 N514 0.985 . S
C528 C529 1.363 . S
C528 C534 1.379 . S
C528 N536 1.356 . S
C529 C528 1.363 . S
C529 C535 1.363 . S
C530 C531 1.363 . S
C530 C535 1.379 . S
C530 N537 1.356 . S
C531 C530 1.363 . S
C531 C534 1.363 . S
N532 C534 1.356 . S
N532 H544 0.982 1_554 S
N532 H545 0.985 1_554 S
N533 C535 1.356 . S
N533 H538 0.984 . S
N533 H539 0.985 . S
C534 C528 1.379 . S
C534 C531 1.363 . S
C534 N532 1.356 . S
C535 C529 1.363 . S
C535 C530 1.379 . S
C535 N533 1.356 . S
N536 C528 1.356 . S
N536 H542 0.984 . S
N536 H543 0.984 . S
N537 C530 1.356 . S
N537 H540 0.984 . S
N537 H541 0.985 . S
H538 N533 0.984 . S
H539 N533 0.985 . S
H540 N537 0.984 . S
H541 N537 0.985 . S
H542 N536 0.984 . S
H543 N536 0.984 . S
H544 N532 0.982 1_556 S
H545 N532 0.985 1_556 S
C546 C547 1.363 . S
C546 C552 1.379 . S
C546 N554 1.356 . S
C547 C546 1.363 . S
C547 C553 1.363 1_545 S
C548 C549 1.363 1_565 S
C548 C553 1.379 . S
C548 N555 1.356 . S
C549 C548 1.363 1_545 S
C549 C552 1.363 . S
N550 C552 1.356 . S
N550 H562 0.984 . S
N550 H563 0.985 . S
N551 C553 1.356 . S
N551 H556 0.984 . S
N551 H557 0.985 . S
C552 C546 1.379 . S
C552 C549 1.363 . S
C552 N550 1.356 . S
C553 C547 1.363 1_565 S
C553 C548 1.379 . S
C553 N551 1.356 . S
N554 C546 1.356 . S
N554 H560 0.984 . S
N554 H561 0.984 . S
N555 C548 1.356 . S
N555 H558 0.984 . S
N555 H559 0.985 . S
H556 N551 0.984 . S
H557 N551 0.985 . S
H558 N555 0.984 . S
H559 N555 0.985 . S
H560 N554 0.984 . S
H561 N554 0.984 . S
H562 N550 0.984 . S
H563 N550 0.985 . S
C564 C565 1.363 . S
C564 C570 1.379 . S
C564 N572 1.356 . S
C565 C564 1.363 . S
C565 C571 1.363 . S
C566 C567 1.363 . S
C566 C571 1.379 . S
C566 N573 1.356 . S
C567 C566 1.363 . S
C567 C570 1.363 . S
N568 C570 1.356 . S
N568 H580 0.984 . S
N568 H581 0.985 . S
N569 C571 1.356 . S
N569 H574 0.984 . S
N569 H575 0.985 . S
C570 C564 1.379 . S
C570 C567 1.363 . S
C570 N568 1.356 . S
C571 C565 1.363 . S
C571 C566 1.379 . S
C571 N569 1.356 . S
N572 C564 1.356 . S
N572 H578 0.984 . S
N572 H579 0.984 . S
N573 C566 1.356 . S
N573 H576 0.984 . S
N573 H577 0.985 . S
H574 N569 0.984 . S
H575 N569 0.985 . S
H576 N573 0.984 . S
H577 N573 0.985 . S
H578 N572 0.984 . S
H579 N572 0.984 . S
H580 N568 0.984 . S
H581 N568 0.985 . S
C582 C583 1.363 1_565 S
C582 C588 1.379 . S
C582 N590 1.356 . S
C583 C582 1.363 1_545 S
C583 C589 1.363 . S
C584 C585 1.363 . S
C584 C589 1.379 . S
C584 N591 1.356 . S
C585 C584 1.363 . S
C585 C588 1.363 1_545 S
N586 C588 1.356 . S
N586 H598 0.984 . S
N586 H599 0.985 . S
N587 C589 1.356 . S
N587 H592 0.984 . S
N587 H593 0.985 . S
C588 C582 1.379 . S
C588 C585 1.363 1_565 S
C588 N586 1.356 . S
C589 C583 1.363 . S
C589 C584 1.379 . S
C589 N587 1.356 . S
N590 C582 1.356 . S
N590 H596 0.984 . S
N590 H597 0.984 . S
N591 C584 1.356 . S
N591 H594 0.984 . S
N591 H595 0.985 . S
H592 N587 0.984 . S
H593 N587 0.985 . S
H594 N591 0.984 . S
H595 N591 0.985 . S
H596 N590 0.984 . S
H597 N590 0.984 . S
H598 N586 0.984 . S
H599 N586 0.985 . S
C600 C601 1.363 . S
C600 C606 1.379 . S
C600 N608 1.356 . S
C601 C600 1.363 . S
C601 C607 1.363 . S
C602 C603 1.363 . S
C602 C607 1.379 . S
C602 N609 1.356 . S
C603 C602 1.363 . S
C603 C606 1.363 . S
N604 C606 1.356 . S
N604 H616 0.984 . S
N604 H617 0.985 1_556 S
N605 C607 1.356 . S
N605 H610 0.984 . S
N605 H611 0.985 . S
C606 C600 1.379 . S
C606 C603 1.363 . S
C606 N604 1.356 . S
C607 C601 1.363 . S
C607 C602 1.379 . S
C607 N605 1.356 . S
N608 C600 1.356 . S
N608 H614 0.984 . S
N608 H615 0.984 . S
N609 C602 1.356 . S
N609 H612 0.984 . S
N609 H613 0.985 . S
H610 N605 0.984 . S
H611 N605 0.985 . S
H612 N609 0.984 . S
H613 N609 0.985 . S
H614 N608 0.984 . S
H615 N608 0.984 . S
H616 N604 0.984 . S
H617 N604 0.985 1_554 S
C618 C619 1.363 1_655 S
C618 C624 1.379 . S
C618 N626 1.356 . S
C619 C618 1.363 1_455 S
C619 C625 1.363 . S
C620 C621 1.363 . S
C620 C625 1.379 . S
C620 N627 1.356 . S
C621 C620 1.363 . S
C621 C624 1.363 1_455 S
N622 C624 1.356 . S
N622 H634 0.984 . S
N622 H635 0.985 . S
N623 C625 1.356 . S
N623 H628 0.984 . S
N623 H629 0.985 . S
C624 C618 1.379 . S
C624 C621 1.363 1_655 S
C624 N622 1.356 . S
C625 C619 1.363 . S
C625 C620 1.379 . S
C625 N623 1.356 . S
N626 C618 1.356 . S
N626 H632 0.984 . S
N626 H633 0.984 . S
N627 C620 1.356 . S
N627 H630 0.984 . S
N627 H631 0.985 . S
H628 N623 0.984 . S
H629 N623 0.985 . S
H630 N627 0.984 . S
H631 N627 0.985 . S
H632 N626 0.984 . S
H633 N626 0.984 . S
H634 N622 0.984 . S
H635 N622 0.985 . S
C313 C10 3.121 . S
C315 C303 3.043 . S
C331 C55 1.322 . S
C333 C239 1.366 . S
C349 C90 1.964 . S
C351 C271 1.933 . S
C367 C19 3.071 . S
C369 C297 3.039 . S
C387 C233 1.382 . S
C385 C46 1.350 . S
C405 C265 2.012 . S
C403 C99 2.091 . S
C421 C50 1.964 . S
C423 C175 1.898 . S
C439 C95 0.941 . S
C441 C207 1.085 . S
C457 C6 1.351 . S
C459 C137 1.362 . S
C477 C169 1.970 . S
C475 C59 2.058 . S
C495 C201 0.736 . S
C493 C86 0.741 . S
C511 C15 1.447 . S
C513 C143 1.431 . S
C531 C213 1.090 . S
C529 C18 1.082 . S
C547 C49 1.448 . S
C549 C149 1.442 . S
C565 C98 1.321 . S
C567 C181 1.321 . S
C585 C277 1.342 . S
C583 C58 1.328 . S
C603 C309 1.764 1_556 S
C601 C89 1.729 . S
C619 C9 1.448 . S
C621 C245 1.477 . S
