# Generated by pormake.
# Topology tsx, (6,3)-cn, num edge types: 1
# Building blocks:
#     Node 0, Type 0, BuildingBlock: FUNLAD_clean_sbu_0, # of connection points: 6
#     Node 1, Type 0, BuildingBlock: FUNLAD_clean_sbu_0, # of connection points: 6
#     Node 2, Type 1, BuildingBlock: CUQRIR_clean_linker_1, # of connection points: 3
#     Node 3, Type 1, BuildingBlock: CUQRIR_clean_linker_1, # of connection points: 3
#     Node 4, Type 1, BuildingBlock: CUQRIR_clean_linker_1, # of connection points: 3
#     Node 5, Type 1, BuildingBlock: CUQRIR_clean_linker_1, # of connection points: 3
#     Edge 6, Type (0, 1), BuildingBlock: UVAHIK_clean_linker_0, # of connection points: 2
#     Edge 7, Type (0, 1), BuildingBlock: UVAHIK_clean_linker_0, # of connection points: 2
#     Edge 8, Type (0, 1), BuildingBlock: UVAHIK_clean_linker_0, # of connection points: 2
#     Edge 9, Type (0, 1), BuildingBlock: UVAHIK_clean_linker_0, # of connection points: 2
#     Edge 10, Type (0, 1), BuildingBlock: UVAHIK_clean_linker_0, # of connection points: 2
#     Edge 11, Type (0, 1), BuildingBlock: UVAHIK_clean_linker_0, # of connection points: 2
#     Edge 12, Type (0, 1), BuildingBlock: UVAHIK_clean_linker_0, # of connection points: 2
#     Edge 13, Type (0, 1), BuildingBlock: UVAHIK_clean_linker_0, # of connection points: 2
#     Edge 14, Type (0, 1), BuildingBlock: UVAHIK_clean_linker_0, # of connection points: 2
#     Edge 15, Type (0, 1), BuildingBlock: UVAHIK_clean_linker_0, # of connection points: 2
#     Edge 16, Type (0, 1), BuildingBlock: UVAHIK_clean_linker_0, # of connection points: 2
#     Edge 17, Type (0, 1), BuildingBlock: UVAHIK_clean_linker_0, # of connection points: 2
# Relax obj value: 0.154
# Max RMSD: 0.156
# Mean RMSD: 0.139
data_MOF--net-tsx--node1-FUNLAD_clean_sbu_0--node2-CUQRIR_clean_linker_1--edge1-UVAHIK_clean_linker_0
_symmetry_space_group_name_H-M    P1
_symmetry_Int_Tables_number       1
_symmetry_cell_setting            triclinic
loop_
_symmetry_equiv_pos_as_xyz
'x, y, z'
_cell_length_a     23.533223
_cell_length_b     25.94468
_cell_length_c     47.825566
_cell_angle_alpha  80.221452
_cell_angle_beta   91.74405
_cell_angle_gamma 89.703112
loop_
_atom_site_label
_atom_site_type_symbol
_atom_site_fract_x
_atom_site_fract_y
_atom_site_fract_z
_atom_type_partial_charge
C0 C 0.98646 0.96437 0.9888 0.0
N1 N 0.06149 0.00897 0.06041 0.0
C2 C 0.00911 0.00239 0.07165 0.0
C3 C 0.00359 0.98823 0.10088 0.0
C4 C 0.0524 0.98161 0.11887 0.0
C5 C 0.10594 0.98928 0.10664 0.0
C6 C 0.10952 0.00264 0.07724 0.0
Zn7 Zn 0.06803 0.02664 0.01751 0.0
C8 C 0.1525 0.95688 -0.004 0.0
N9 N 0.08167 0.06148 0.92783 0.0
C10 C 0.03368 0.06565 0.91101 0.0
C11 C 0.13379 0.0708 0.91659 0.0
C12 C 0.13903 0.08548 0.88734 0.0
C13 C 0.09017 0.09023 0.86941 0.0
C14 C 0.03698 0.07975 0.88165 0.0
Zn15 Zn 0.07505 0.0435 0.97074 0.0
O16 O 0.00327 0.97478 0.01258 0.0
C17 C 0.98866 0.11169 0.99093 0.0
O18 O 0.01046 0.98573 0.96631 0.0
H19 H 0.17141 0.06733 0.93037 0.0
H20 H 0.97144 0.00763 0.05791 0.0
H21 H 0.99265 0.05824 0.9204 0.0
O22 O 0.00531 0.08764 0.01527 0.0
O23 O 0.01127 0.10052 0.96894 0.0
H24 H 0.15075 0.00792 0.06783 0.0
O25 O 0.13765 0.10148 0.97618 0.0
O26 O 0.13229 0.08047 0.02235 0.0
O27 O 0.13863 0.98599 0.97267 0.0
O28 O 0.12946 0.96454 0.01871 0.0
C29 C 0.15351 0.10848 0.00092 0.0
H30 H 0.96144 0.98193 0.10918 0.0
H31 H 0.14474 0.98555 0.11961 0.0
H32 H 0.18084 0.0937 0.87894 0.0
H33 H 0.99823 0.08186 0.86869 0.0
C34 C 0.46425 0.45166 0.48988 0.0
N35 N 0.53254 0.49324 0.56379 0.0
C36 C 0.47907 0.49245 0.57389 0.0
C37 C 0.47037 0.47792 0.60289 0.0
C38 C 0.51713 0.46396 0.62165 0.0
C39 C 0.57185 0.46552 0.61065 0.0
C40 C 0.57862 0.48041 0.58152 0.0
Zn41 Zn 0.54402 0.51123 0.52119 0.0
C42 C 0.62878 0.43817 0.50219 0.0
N43 N 0.56861 0.54498 0.43214 0.0
C44 C 0.52228 0.55151 0.41416 0.0
C45 C 0.62213 0.55182 0.42225 0.0
C46 C 0.63056 0.56634 0.3932 0.0
C47 C 0.58346 0.57374 0.37413 0.0
C48 C 0.52876 0.56576 0.38498 0.0
Zn49 Zn 0.55707 0.52703 0.47479 0.0
O50 O 0.47741 0.46242 0.5141 0.0
C51 C 0.47009 0.59837 0.49275 0.0
O52 O 0.49236 0.47127 0.46841 0.0
H53 H 0.65837 0.54655 0.43694 0.0
H54 H 0.443 0.50253 0.5594 0.0
H55 H 0.48011 0.54595 0.42246 0.0
O56 O 0.48454 0.57472 0.5175 0.0
O57 O 0.49401 0.58581 0.47139 0.0
H58 H 0.62075 0.48139 0.57304 0.0
O59 O 0.62026 0.58286 0.48216 0.0
O60 O 0.61014 0.56184 0.52809 0.0
O61 O 0.61944 0.46775 0.47847 0.0
O62 O 0.60251 0.44676 0.52383 0.0
C63 C 0.63427 0.58903 0.50728 0.0
H64 H 0.42741 0.47678 0.61046 0.0
H65 H 0.60912 0.45582 0.62443 0.0
H66 H 0.67346 0.57253 0.38585 0.0
H67 H 0.49124 0.57004 0.37107 0.0
C68 C 0.94637 0.95107 0.45421 0.0
N69 N 0.97299 0.92676 0.43536 0.0
N70 N 0.91071 0.98914 0.44065 0.0
C71 C 0.96178 0.9426 0.48525 0.0
C72 C 0.91701 0.98708 0.41284 0.0
N73 N 0.9549 0.94942 0.40968 0.0
C74 C 0.88765 0.02313 0.38874 0.0
H75 H 0.96574 0.90014 0.49363 0.0
H76 H 0.92961 0.96036 0.49709 0.0
H77 H 0.00374 0.96038 0.48836 0.0
H78 H 0.91562 0.05681 0.38164 0.0
H79 H 0.84702 0.0382 0.39557 0.0
H80 H 0.87934 0.00261 0.37049 0.0
C81 C 0.97836 0.06845 0.54223 0.0
N82 N 0.00622 0.10224 0.55627 0.0
N83 N 0.94231 0.03886 0.55956 0.0
C84 C 0.9854 0.06476 0.51159 0.0
C85 C 0.94911 0.05575 0.58464 0.0
N86 N 0.98754 0.0947 0.58258 0.0
C87 C 0.92274 0.03077 0.61184 0.0
H88 H 0.99487 0.10364 0.49906 0.0
H89 H 0.94633 0.04926 0.50279 0.0
H90 H 0.02124 0.03773 0.50982 0.0
H91 H 0.95612 0.02163 0.6289 0.0
H92 H 0.89972 0.9945 0.60947 0.0
H93 H 0.89237 0.05887 0.61849 0.0
C94 C 0.46546 0.46391 0.95377 0.0
N95 N 0.48492 0.43063 0.93731 0.0
N96 N 0.41809 0.48928 0.94189 0.0
C97 C 0.49498 0.47466 0.98031 0.0
C98 C 0.40964 0.47049 0.91739 0.0
N99 N 0.44992 0.4343 0.91473 0.0
C100 C 0.36677 0.49237 0.89441 0.0
H101 H 0.51275 0.43796 0.99295 0.0
H102 H 0.46508 0.49313 0.99303 0.0
H103 H 0.53037 0.50205 0.97455 0.0
H104 H 0.38937 0.5119 0.87552 0.0
H105 H 0.3374 0.5208 0.90148 0.0
H106 H 0.34161 0.46008 0.88794 0.0
C107 C 0.48878 0.59201 0.04117 0.0
N108 N 0.51943 0.62132 0.05692 0.0
N109 N 0.45165 0.56156 0.05743 0.0
C110 C 0.49355 0.59417 0.00978 0.0
C111 C 0.46052 0.57353 0.08362 0.0
N112 N 0.50117 0.61027 0.08325 0.0
C113 C 0.43419 0.54538 0.11016 0.0
H114 H 0.50442 0.63421 -0.00075 0.0
H115 H 0.45311 0.58223 0.00039 0.0
H116 H 0.52783 0.56702 0.00597 0.0
H117 H 0.46814 0.5302 0.1261 0.0
H118 H 0.40702 0.51258 0.10597 0.0
H119 H 0.40793 0.57346 0.11942 0.0
C120 C 0.20566 0.16047 0.03275 0.0
C121 C 0.1919 0.15186 0.0051 0.0
C122 C 0.23577 0.20472 0.03713 0.0
C123 C 0.32961 0.30916 0.00432 0.0
H124 H 0.26879 0.38409 0.06065 0.0
C125 C 0.36305 0.51808 0.0466 0.0
C126 C 0.42224 0.51693 0.05052 0.0
C127 C 0.33459 0.47404 0.04029 0.0
C128 C 0.28605 0.36382 0.04473 0.0
H129 H 0.20142 0.18197 0.96035 0.0
H130 H 0.25473 0.25945 0.96811 0.0
H131 H 0.22149 0.30558 0.0505 0.0
H132 H 0.49833 0.46956 0.05244 0.0
H133 H 0.44894 0.39233 0.04094 0.0
H134 H 0.39434 0.36766 -0.00134 0.0
C135 C 0.24186 0.23178 0.98634 0.0
C136 C 0.25933 0.31858 0.03911 0.0
C137 C 0.21131 0.18745 0.98191 0.0
C138 C 0.45264 0.47105 0.04891 0.0
C139 C 0.42443 0.42723 0.04228 0.0
C140 C 0.35671 0.35427 0.01014 0.0
C141 C 0.25319 0.24145 0.01402 0.0
C142 C 0.28106 0.29046 0.01905 0.0
C143 C 0.36515 0.42841 0.03765 0.0
C144 C 0.33537 0.3818 0.03057 0.0
H145 H 0.19177 0.13375 0.05114 0.0
H146 H 0.24483 0.21056 0.05872 0.0
H147 H 0.34733 0.28831 0.98877 0.0
H148 H 0.33916 0.55315 0.04827 0.0
H149 H 0.28886 0.47604 0.03688 0.0
C150 C 0.22894 0.91274 0.97359 0.0
C151 C 0.19103 0.91179 -0.00424 0.0
C152 C 0.25912 0.86776 0.97043 0.0
C153 C 0.29639 0.73092 0.00505 0.0
H154 H 0.30758 0.71159 0.92672 0.0
C155 C 0.35266 0.53309 0.96966 0.0
C156 C 0.39412 0.53603 0.9491 0.0
C157 C 0.33041 0.57887 0.97712 0.0
C158 C 0.30518 0.71661 0.94869 0.0
H159 H 0.15673 0.86364 0.03277 0.0
H160 H 0.20802 0.78431 0.02676 0.0
H161 H 0.26591 0.79173 0.93716 0.0
H162 H 0.44545 0.58752 0.92012 0.0
H163 H 0.40611 0.6681 0.93269 0.0
H164 H 0.33431 0.65435 0.01628 0.0
C165 C 0.21547 0.82009 0.01211 0.0
C166 C 0.28162 0.76276 0.95475 0.0
C167 C 0.18595 0.86554 0.01556 0.0
C168 C 0.41314 0.58496 0.93593 0.0
C169 C 0.39068 0.63069 0.94313 0.0
C170 C 0.31943 0.68429 -0.00105 0.0
C171 C 0.25122 0.82027 0.98899 0.0
C172 C 0.27721 0.77085 0.98298 0.0
C173 C 0.34911 0.62812 0.96381 0.0
C174 C 0.32425 0.6769 0.97068 0.0
H175 H 0.23421 0.94804 0.95819 0.0
H176 H 0.2876 0.86999 0.95291 0.0
H177 H 0.29421 0.73586 0.02702 0.0
H178 H 0.33755 0.49536 0.97972 0.0
H179 H 0.2979 0.57586 0.99284 0.0
C180 C 0.88825 0.94573 0.00327 0.0
C181 C 0.93482 0.9329 0.9881 0.0
C182 C 0.84189 0.91259 0.00746 0.0
C183 C 0.7711 0.79742 0.98601 0.0
H184 H 0.71461 0.78277 0.06234 0.0
C185 C 0.61039 0.63857 0.03274 0.0
C186 C 0.56562 0.6557 0.04775 0.0
C187 C 0.6551 0.67201 0.02376 0.0
C188 C 0.72949 0.78677 0.04087 0.0
H189 H 0.96899 0.87672 0.96429 0.0
H190 H 0.8877 0.81717 0.9722 0.0
H191 H 0.79285 0.84144 0.04874 0.0
H192 H 0.53232 0.72052 0.0654 0.0
H193 H 0.61103 0.7791 0.0502 0.0
H194 H 0.70781 0.74157 0.97857 0.0
C195 C 0.88676 0.85349 0.98048 0.0
C196 C 0.77431 0.82053 0.03299 0.0
C197 C 0.93319 0.88743 0.97589 0.0
C198 C 0.5666 0.70655 0.05398 0.0
C199 C 0.61153 0.73988 0.04525 0.0
C200 C 0.72632 0.76316 -0.00598 0.0
C201 C 0.84141 0.86504 -0.00288 0.0
C202 C 0.79517 0.82699 0.00534 0.0
C203 C 0.65626 0.72297 0.03003 0.0
C204 C 0.70465 0.75803 0.02145 0.0
H205 H 0.88844 0.98095 0.01266 0.0
H206 H 0.80701 0.92364 0.01955 0.0
H207 H 0.78597 0.80158 0.96455 0.0
H208 H 0.6112 0.59902 0.02835 0.0
H209 H 0.6894 0.65761 0.01249 0.0
C210 C 0.90736 0.15636 0.0105 0.0
C211 C 0.94109 0.15001 0.98755 0.0
C212 C 0.85933 0.18926 0.00622 0.0
C213 C 0.79207 0.29735 0.95489 0.0
H214 H 0.65201 0.24717 0.9901 0.0
C215 C 0.53537 0.34591 0.94364 0.0
C216 C 0.53674 0.40033 0.94179 0.0
C217 C 0.58535 0.31612 0.9497 0.0
C218 C 0.6907 0.26154 0.97995 0.0
H219 H 0.95169 0.17427 0.94228 0.0
H220 H 0.86842 0.23091 0.9349 0.0
H221 H 0.7391 0.19507 0.00075 0.0
H222 H 0.59083 0.467 0.94306 0.0
H223 H 0.67806 0.41534 0.95431 0.0
H224 H 0.74358 0.36296 0.93343 0.0
C225 C 0.87906 0.21107 0.95624 0.0
C226 C 0.74078 0.23206 0.98637 0.0
C227 C 0.92673 0.17827 0.96047 0.0
C228 C 0.58884 0.42487 0.94511 0.0
C229 C 0.63873 0.39529 0.95117 0.0
C230 C 0.74209 0.32675 0.94846 0.0
C231 C 0.84439 0.21658 0.97896 0.0
C232 C 0.79196 0.24944 0.97373 0.0
C233 C 0.63757 0.34049 0.9538 0.0
C234 C 0.69072 0.30909 0.96078 0.0
H235 H 0.91723 0.13503 0.0316 0.0
H236 H 0.83377 0.19313 0.02422 0.0
H237 H 0.83088 0.31213 0.945 0.0
H238 H 0.49542 0.32655 0.94092 0.0
H239 H 0.58314 0.27409 0.95106 0.0
C240 C 0.69912 0.6635 0.48976 0.0
C241 C 0.67428 0.63052 0.51243 0.0
C242 C 0.73173 0.70621 0.49474 0.0
C243 C 0.8214 0.77922 0.51484 0.0
H244 H 0.7555 0.86422 0.5652 0.0
C245 C 0.94307 0.9457 0.55601 0.0
C246 C 0.91314 0.99296 0.55439 0.0
C247 C 0.91476 0.90073 0.55108 0.0
C248 C 0.77429 0.84099 0.55101 0.0
H249 H 0.66633 0.61527 0.55822 0.0
H250 H 0.72296 0.68952 0.56676 0.0
H251 H 0.70627 0.78613 0.55574 0.0
H252 H 0.83108 0.03107 0.54769 0.0
H253 H 0.78096 0.95254 0.53829 0.0
H254 H 0.88943 0.83433 0.51011 0.0
C255 C 0.71669 0.68276 0.54515 0.0
C256 C 0.74642 0.79606 0.54579 0.0
C257 C 0.68453 0.64001 0.54022 0.0
C258 C 0.85453 0.99479 0.54854 0.0
C259 C 0.82614 0.94996 0.54343 0.0
C260 C 0.84963 0.82396 0.52029 0.0
C261 C 0.73971 0.71689 0.52244 0.0
C262 C 0.76971 0.76463 0.52771 0.0
C263 C 0.85612 0.9026 0.54437 0.0
C264 C 0.82631 0.85525 0.53845 0.0
H265 H 0.69206 0.65723 0.46811 0.0
H266 H 0.74889 0.73199 0.47683 0.0
H267 H 0.84038 0.75565 0.50087 0.0
H268 H 0.98833 0.9439 0.56092 0.0
H269 H 0.93873 0.8646 0.55237 0.0
C270 C 0.65805 0.34682 0.524 0.0
C271 C 0.6665 0.39199 0.50378 0.0
C272 C 0.68869 0.30082 0.52292 0.0
C273 C 0.81683 0.24795 0.49606 0.0
H274 H 0.72437 0.12921 0.48521 0.0
C275 C 0.90498 0.08241 0.44392 0.0
C276 C 0.88558 0.03129 0.45214 0.0
C277 C 0.88084 0.12381 0.45475 0.0
C278 C 0.75113 0.16139 0.48883 0.0
H279 H 0.71557 0.42536 0.46761 0.0
H280 H 0.77026 0.34556 0.46632 0.0
H281 H 0.67951 0.20682 0.49763 0.0
H282 H 0.82624 0.98265 0.47791 0.0
H283 H 0.78389 0.05503 0.49743 0.0
H284 H 0.88854 0.20287 0.48749 0.0
C285 C 0.73957 0.34555 0.48275 0.0
C286 C 0.72529 0.20593 0.49588 0.0
C287 C 0.70813 0.39111 0.48343 0.0
C288 C 0.84168 0.02198 0.47143 0.0
C289 C 0.81748 0.06345 0.48242 0.0
C290 C 0.84284 0.20312 0.48951 0.0
C291 C 0.72921 0.29967 0.50205 0.0
C292 C 0.75771 0.25009 0.49879 0.0
C293 C 0.83684 0.11497 0.47424 0.0
C294 C 0.81012 0.15984 0.4849 0.0
H295 H 0.62599 0.34632 0.53982 0.0
H296 H 0.68008 0.26591 0.53805 0.0
H297 H 0.8428 0.28135 0.49851 0.0
H298 H 0.93905 0.09017 0.42912 0.0
H299 H 0.89612 0.16289 0.44738 0.0
C300 C 0.4144 0.37325 0.47724 0.0
C301 C 0.41282 0.42097 0.48724 0.0
C302 C 0.36743 0.33988 0.48063 0.0
C303 C 0.24637 0.31401 0.5281 0.0
H304 H 0.19394 0.22286 0.47655 0.0
C305 C 0.0453 0.19105 0.54891 0.0
C306 C 0.04954 0.13859 0.54556 0.0
C307 C 0.08804 0.2262 0.53931 0.0
C308 C 0.20844 0.24796 0.49118 0.0
H309 H 0.36078 0.47358 0.50642 0.0
H310 H 0.27835 0.41701 0.51114 0.0
H311 H 0.27109 0.28417 0.46275 0.0
H312 H 0.10156 0.08113 0.53011 0.0
H313 H 0.17632 0.14273 0.5129 0.0
H314 H 0.18415 0.27812 0.55651 0.0
C315 C 0.31594 0.404 0.5017 0.0
C316 C 0.25259 0.28296 0.48331 0.0
C317 C 0.36284 0.43664 0.49875 0.0
C318 C 0.09695 0.12175 0.5323 0.0
C319 C 0.13961 0.15693 0.52253 0.0
C320 C 0.20227 0.27943 0.53585 0.0
C321 C 0.31842 0.35428 0.49383 0.0
C322 C 0.27176 0.31666 0.50164 0.0
C323 C 0.13582 0.20944 0.52616 0.0
C324 C 0.18262 0.24618 0.51747 0.0
H325 H 0.45291 0.3604 0.46853 0.0
H326 H 0.37072 0.3018 0.47438 0.0
H327 H 0.26112 0.33825 0.54313 0.0
H328 H 0.00883 0.20469 0.55896 0.0
H329 H 0.08369 0.26656 0.54216 0.0
C330 C 0.39572 0.65275 0.51131 0.0
C331 C 0.42316 0.63745 0.48829 0.0
C332 C 0.34876 0.68689 0.50665 0.0
C333 C 0.27294 0.78116 0.45003 0.0
H334 H 0.14529 0.75475 0.49962 0.0
C335 C 0.01984 0.84188 0.45278 0.0
C336 C 0.02343 0.895 0.44125 0.0
C337 C 0.06938 0.8116 0.4593 0.0
C338 C 0.18032 0.76238 0.48539 0.0
H339 H 0.42298 0.6464 0.44232 0.0
H340 H 0.34103 0.70445 0.43429 0.0
H341 H 0.23073 0.70055 0.50951 0.0
H342 H 0.07985 0.95906 0.42784 0.0
H343 H 0.16686 0.90702 0.43979 0.0
H344 H 0.22183 0.84127 0.42514 0.0
C345 C 0.35621 0.69129 0.45594 0.0
C346 C 0.22976 0.7318 0.49133 0.0
C347 C 0.4032 0.65763 0.46057 0.0
C348 C 0.07676 0.91781 0.43643 0.0
C349 C 0.12628 0.88787 0.44318 0.0
C350 C 0.22341 0.81136 0.44394 0.0
C351 C 0.32809 0.7062 0.47888 0.0
C352 C 0.27659 0.74055 0.4736 0.0
C353 C 0.12333 0.83428 0.45465 0.0
C354 C 0.17631 0.80229 0.46146 0.0
H355 H 0.41008 0.63791 0.53293 0.0
H356 H 0.32865 0.69809 0.52481 0.0
H357 H 0.30837 0.78964 0.43611 0.0
H358 H 0.9787 0.82402 0.45665 0.0
H359 H 0.06533 0.77037 0.46769 0.0
C360 C 0.00188 0.9869 0.1638 0.0
C361 C 0.04736 0.96734 0.15015 0.0
C362 C 0.99702 0.97379 0.19312 0.0
C363 C 0.07974 0.94012 0.25831 0.0
H364 H 0.93467 0.8981 0.29089 0.0
C365 C 0.96614 0.89247 0.37414 0.0
C366 C 0.97728 0.93976 0.38352 0.0
C367 C 0.98226 0.88547 0.34714 0.0
C368 C 0.9757 0.90895 0.28215 0.0
H369 H 0.12304 0.91786 0.15688 0.0
H370 H 0.11549 0.89682 0.2084 0.0
H371 H 0.94602 0.90531 0.23975 0.0
H372 H 0.0167 0.01535 0.37375 0.0
H373 H 0.04579 0.00326 0.32649 0.0
H374 H 0.10854 0.94624 0.30058 0.0
C375 C 0.08356 0.922 0.19612 0.0
C376 C 0.98201 0.91348 0.25293 0.0
C377 C 0.08799 0.93442 0.16667 0.0
C378 C 0.00755 0.97883 0.36651 0.0
C379 C 0.02444 0.97165 0.33974 0.0
C380 C 0.07318 0.93632 0.28752 0.0
C381 C 0.03792 0.94148 0.20954 0.0
C382 C 0.03367 0.93019 0.24071 0.0
C383 C 0.01065 0.92545 0.32952 0.0
C384 C 0.02073 0.92175 0.29958 0.0
H385 H 0.97048 0.01325 0.15196 0.0
H386 H 0.96196 0.99005 0.20308 0.0
H387 H 0.11992 0.95329 0.24932 0.0
H388 H 0.94295 0.86203 0.38727 0.0
H389 H 0.9714 0.84944 0.33974 0.0
C390 C 0.0524 0.13688 0.8221 0.0
C391 C 0.09447 0.10513 0.83813 0.0
C392 C 0.05385 0.14745 0.79253 0.0
C393 C 0.1098 0.09032 0.73354 0.0
H394 H 0.04528 0.21646 0.68827 0.0
C395 C 0.06987 0.10267 0.61425 0.0
C396 C 0.01304 0.11485 0.60608 0.0
C397 C 0.09178 0.11325 0.64012 0.0
C398 C 0.06376 0.18119 0.70065 0.0
H399 H 0.17253 0.06149 0.83551 0.0
H400 H 0.17619 0.08156 0.78405 0.0
H401 H 0.06298 0.21267 0.73921 0.0
H402 H 0.93552 0.15056 0.61688 0.0
H403 H 0.97344 0.16922 0.66233 0.0
H404 H 0.10932 0.05839 0.69521 0.0
C405 C 0.14128 0.09729 0.79433 0.0
C406 C 0.07364 0.17886 0.72982 0.0
C407 C 0.13952 0.08627 0.82391 0.0
C408 C 0.97947 0.14095 0.62303 0.0
C409 C 0.00135 0.15183 0.64883 0.0
C410 C 0.10042 0.09284 0.70441 0.0
C411 C 0.09774 0.12699 0.77823 0.0
C412 C 0.09521 0.1328 0.74675 0.0
C413 C 0.05709 0.13632 0.6581 0.0
C414 C 0.07585 0.13773 0.6878 0.0
H415 H 0.01772 0.153 0.83237 0.0
H416 H 0.01925 0.17001 0.78089 0.0
H417 H 0.12558 0.05391 0.74588 0.0
H418 H 0.09611 0.08218 0.6014 0.0
H419 H 0.13502 0.10128 0.64665 0.0
C420 C 0.54008 0.40615 0.66833 0.0
C421 C 0.50896 0.44826 0.65255 0.0
C422 C 0.53336 0.39229 0.69757 0.0
C423 C 0.43711 0.41016 0.75526 0.0
H424 H 0.57336 0.38378 0.80337 0.0
C425 C 0.51093 0.43577 0.874 0.0
C426 C 0.46279 0.41673 0.88874 0.0
C427 C 0.51878 0.42652 0.84649 0.0
C428 C 0.5349 0.39088 0.79022 0.0
H429 H 0.44652 0.50889 0.65509 0.0
H430 H 0.4351 0.4851 0.70604 0.0
H431 H 0.58067 0.39495 0.75196 0.0
H432 H 0.38684 0.3708 0.88757 0.0
H433 H 0.40052 0.35369 0.83928 0.0
H434 H 0.39169 0.40907 0.79334 0.0
C435 C 0.46386 0.46203 0.69577 0.0
C436 C 0.539 0.39678 0.76077 0.0
C437 C 0.4705 0.47579 0.66657 0.0
C438 C 0.4241 0.38585 0.87631 0.0
C439 C 0.43189 0.37643 0.84875 0.0
C440 C 0.43303 0.40441 0.78468 0.0
C441 C 0.4954 0.4203 0.71165 0.0
C442 C 0.4903 0.40783 0.74293 0.0
C443 C 0.47845 0.39804 0.83321 0.0
C444 C 0.48205 0.39599 0.80247 0.0
H445 H 0.56943 0.38367 0.65803 0.0
H446 H 0.55777 0.35956 0.70913 0.0
H447 H 0.39868 0.41774 0.74212 0.0
H448 H 0.54067 0.46037 0.88321 0.0
H449 H 0.55465 0.44441 0.83506 0.0
C450 C 0.63559 0.56815 0.32956 0.0
C451 C 0.59103 0.58935 0.3431 0.0
C452 C 0.64042 0.58048 0.30012 0.0
C453 C 0.58578 0.67139 0.23576 0.0
H454 H 0.61285 0.55266 0.19831 0.0
C455 C 0.49573 0.65249 0.12523 0.0
C456 C 0.52759 0.62566 0.10794 0.0
C457 C 0.51701 0.65849 0.15203 0.0
C458 C 0.60648 0.58656 0.20835 0.0
H459 H 0.51839 0.64235 0.33637 0.0
H460 H 0.5254 0.66216 0.28513 0.0
H461 H 0.62473 0.54248 0.24958 0.0
H462 H 0.60722 0.58638 0.10381 0.0
H463 H 0.64509 0.59667 0.15097 0.0
H464 H 0.56443 0.71453 0.19442 0.0
C465 C 0.55722 0.63659 0.2972 0.0
C466 C 0.6133 0.58074 0.23782 0.0
C467 C 0.5526 0.62451 0.3266 0.0
C468 C 0.58242 0.60754 0.11695 0.0
C469 C 0.60368 0.61311 0.14387 0.0
C470 C 0.57855 0.67708 0.20627 0.0
C471 C 0.60067 0.61412 0.28352 0.0
C472 C 0.60151 0.62268 0.25198 0.0
C473 C 0.57038 0.6372 0.16203 0.0
C474 C 0.58741 0.63433 0.19237 0.0
H475 H 0.66581 0.54074 0.34158 0.0
H476 H 0.67482 0.56297 0.29033 0.0
H477 H 0.57752 0.70481 0.24592 0.0
H478 H 0.45321 0.66642 0.11848 0.0
H479 H 0.49009 0.67674 0.1656 0.0
loop_
_geom_bond_atom_site_label_1
_geom_bond_atom_site_label_2
_geom_bond_distance
_geom_bond_site_symmetry_2
_ccdc_geom_bond_type
C0 O16 1.251 . S
C0 O18 1.254 1_554 S
N1 C2 1.333 1_445 S
N1 C6 1.307 . S
N1 Zn7 2.020 . S
C2 N1 1.333 1_665 S
C2 C3 1.379 . S
C2 H20 0.952 . S
C3 C2 1.379 . S
C3 C4 1.384 1_665 S
C3 H30 0.949 . S
C4 C3 1.384 1_445 S
C4 C5 1.361 . S
C5 C4 1.361 . S
C5 C6 1.370 . S
C5 H31 0.950 . S
C6 N1 1.307 . S
C6 C5 1.370 . S
C6 H24 0.948 . S
Zn7 N1 2.020 . S
Zn7 O16 2.039 1_445 S
Zn7 O22 2.034 1_455 S
Zn7 O26 2.025 . S
Zn7 O28 2.024 1_545 S
C8 O27 1.246 1_554 S
C8 O28 1.249 . S
N9 C10 1.307 1_455 S
N9 C11 1.333 . S
N9 Zn15 2.020 . S
C10 N9 1.307 1_655 S
C10 C14 1.370 . S
C10 H21 0.948 . S
C11 N9 1.333 . S
C11 C12 1.379 . S
C11 H19 0.952 . S
C12 C11 1.379 . S
C12 C13 1.390 . S
C12 H32 0.949 . S
C13 C12 1.390 . S
C13 C14 1.357 1_455 S
C14 C10 1.370 . S
C14 C13 1.357 1_655 S
C14 H33 0.950 . S
Zn15 N9 2.020 . S
Zn15 O18 2.025 1_445 S
Zn15 O23 2.024 1_455 S
Zn15 O25 2.039 . S
Zn15 O27 2.034 1_545 S
O16 C0 1.251 . S
O16 Zn7 2.039 1_665 S
C17 O22 1.247 1_556 S
C17 O23 1.248 . S
O18 C0 1.254 1_556 S
O18 Zn15 2.025 1_665 S
H19 C11 0.952 . S
H20 C2 0.952 . S
H21 C10 0.948 . S
O22 Zn7 2.034 1_655 S
O22 C17 1.247 1_554 S
O23 Zn15 2.024 1_655 S
O23 C17 1.248 . S
H24 C6 0.948 . S
O25 Zn15 2.039 . S
O25 C29 1.252 1_556 S
O26 Zn7 2.025 . S
O26 C29 1.252 . S
O27 C8 1.246 1_556 S
O27 Zn15 2.034 1_565 S
O28 Zn7 2.024 1_565 S
O28 C8 1.249 . S
C29 O25 1.252 1_554 S
C29 O26 1.252 . S
H30 C3 0.949 . S
H31 C5 0.950 . S
H32 C12 0.949 . S
H33 C14 0.950 . S
C34 O50 1.251 . S
C34 O52 1.254 . S
N35 C36 1.333 . S
N35 C40 1.307 . S
N35 Zn41 2.020 . S
C36 N35 1.333 . S
C36 C37 1.379 . S
C36 H54 0.952 . S
C37 C36 1.379 . S
C37 C38 1.390 . S
C37 H64 0.949 . S
C38 C37 1.390 . S
C38 C39 1.357 . S
C39 C38 1.357 . S
C39 C40 1.370 . S
C39 H65 0.950 . S
C40 N35 1.307 . S
C40 C39 1.370 . S
C40 H58 0.948 . S
Zn41 N35 2.020 . S
Zn41 O50 2.039 . S
Zn41 O56 2.034 . S
Zn41 O60 2.025 . S
Zn41 O62 2.024 . S
C42 O61 1.246 . S
C42 O62 1.249 . S
N43 C44 1.307 . S
N43 C45 1.333 . S
N43 Zn49 2.020 . S
C44 N43 1.307 . S
C44 C48 1.370 . S
C44 H55 0.948 . S
C45 N43 1.333 . S
C45 C46 1.379 . S
C45 H53 0.952 . S
C46 C45 1.379 . S
C46 C47 1.390 . S
C46 H66 0.949 . S
C47 C46 1.390 . S
C47 C48 1.357 . S
C48 C44 1.370 . S
C48 C47 1.357 . S
C48 H67 0.950 . S
Zn49 N43 2.020 . S
Zn49 O52 2.025 . S
Zn49 O57 2.024 . S
Zn49 O59 2.039 . S
Zn49 O61 2.034 . S
O50 C34 1.251 . S
O50 Zn41 2.039 . S
C51 O56 1.246 . S
C51 O57 1.249 . S
O52 C34 1.254 . S
O52 Zn49 2.025 . S
H53 C45 0.952 . S
H54 C36 0.952 . S
H55 C44 0.948 . S
O56 Zn41 2.034 . S
O56 C51 1.246 . S
O57 Zn49 2.024 . S
O57 C51 1.249 . S
H58 C40 0.948 . S
O59 Zn49 2.039 . S
O59 C63 1.251 . S
O60 Zn41 2.025 . S
O60 C63 1.254 . S
O61 C42 1.246 . S
O61 Zn49 2.034 . S
O62 Zn41 2.024 . S
O62 C42 1.249 . S
C63 O59 1.251 . S
C63 O60 1.254 . S
H64 C37 0.949 . S
H65 C39 0.950 . S
H66 C46 0.949 . S
H67 C48 0.950 . S
C68 N69 1.317 1_545 S
C68 N70 1.348 1_455 S
C68 C71 1.485 1_545 S
N69 C68 1.317 1_565 S
N69 N73 1.370 1_565 S
N70 C68 1.348 1_655 S
N70 C72 1.346 . S
C71 C68 1.485 1_565 S
C71 H75 0.960 1_455 S
C71 H76 0.961 1_565 S
C71 H77 0.960 . S
C72 N70 1.346 . S
C72 N73 1.307 1_655 S
C72 C74 1.486 . S
N73 N69 1.370 1_545 S
N73 C72 1.307 1_455 S
C74 C72 1.486 . S
C74 H78 0.960 . S
C74 H79 0.960 . S
C74 H80 0.959 . S
H75 C71 0.960 1_655 S
H76 C71 0.961 1_545 S
H77 C71 0.960 . S
H78 C74 0.960 . S
H79 C74 0.960 . S
H80 C74 0.959 . S
C81 N82 1.317 . S
C81 N83 1.348 1_455 S
C81 C84 1.485 . S
N82 C81 1.317 . S
N82 N86 1.370 . S
N83 C81 1.348 1_655 S
N83 C85 1.346 . S
C84 C81 1.485 . S
C84 H88 0.960 . S
C84 H89 0.961 . S
C84 H90 0.960 . S
C85 N83 1.346 . S
C85 N86 1.307 1_655 S
C85 C87 1.486 1_545 S
N86 N82 1.370 . S
N86 C85 1.307 1_455 S
C87 C85 1.486 1_565 S
C87 H91 0.960 . S
C87 H92 0.960 . S
C87 H93 0.959 . S
H88 C84 0.960 . S
H89 C84 0.961 . S
H90 C84 0.960 . S
H91 C87 0.960 . S
H92 C87 0.960 . S
H93 C87 0.959 . S
C94 N95 1.317 . S
C94 N96 1.348 . S
C94 C97 1.485 1_556 S
N95 C94 1.317 . S
N95 N99 1.370 . S
N96 C94 1.348 . S
N96 C98 1.346 . S
C97 C94 1.485 1_554 S
C97 H101 0.960 . S
C97 H102 0.961 . S
C97 H103 0.960 . S
C98 N96 1.346 . S
C98 N99 1.307 . S
C98 C100 1.486 . S
N99 N95 1.370 . S
N99 C98 1.307 . S
C100 C98 1.486 . S
C100 H104 0.960 . S
C100 H105 0.960 . S
C100 H106 0.959 . S
H101 C97 0.960 . S
H102 C97 0.961 . S
H103 C97 0.960 . S
H104 C100 0.960 . S
H105 C100 0.960 . S
H106 C100 0.959 . S
C107 N108 1.317 . S
C107 N109 1.348 . S
C107 C110 1.485 1_554 S
N108 C107 1.317 . S
N108 N112 1.370 . S
N109 C107 1.348 . S
N109 C111 1.346 . S
C110 C107 1.485 1_556 S
C110 H114 0.960 . S
C110 H115 0.961 . S
C110 H116 0.960 . S
C111 N109 1.346 . S
C111 N112 1.307 . S
C111 C113 1.486 . S
N112 N108 1.370 . S
N112 C111 1.307 . S
C113 C111 1.486 . S
C113 H117 0.960 . S
C113 H118 0.960 . S
C113 H119 0.959 . S
H114 C110 0.960 . S
H115 C110 0.961 . S
H116 C110 0.960 . S
H117 C113 0.960 . S
H118 C113 0.960 . S
H119 C113 0.959 . S
C120 C121 1.346 . S
C120 C122 1.327 . S
C120 H145 0.950 . S
C121 C120 1.346 . S
C121 C137 1.351 1_554 S
C122 C120 1.327 . S
C122 C141 1.429 . S
C122 H146 0.950 . S
C123 C140 1.574 . S
C123 C142 1.368 1_556 S
C123 H147 0.949 . S
H124 C128 0.949 . S
C125 C126 1.349 . S
C125 C127 1.319 1_554 S
C125 H148 0.950 1_554 S
C126 C125 1.349 . S
C126 C138 1.349 . S
C127 C125 1.319 1_556 S
C127 C143 1.407 1_556 S
C127 H149 0.981 . S
C128 H124 0.949 . S
C128 C136 1.574 . S
C128 C144 1.368 . S
H129 C137 0.950 . S
H130 C135 0.950 . S
H131 C136 0.949 . S
H132 C138 0.950 . S
H133 C139 0.950 . S
H134 C140 0.949 . S
C135 H130 0.950 . S
C135 C137 1.327 . S
C135 C141 1.429 1_556 S
C136 C128 1.574 . S
C136 H131 0.949 . S
C136 C142 1.368 . S
C137 C121 1.351 1_556 S
C137 H129 0.950 . S
C137 C135 1.327 . S
C138 C126 1.349 . S
C138 H132 0.950 . S
C138 C139 1.327 . S
C139 H133 0.950 . S
C139 C138 1.327 . S
C139 C143 1.429 . S
C140 C123 1.574 . S
C140 H134 0.949 . S
C140 C144 1.368 1_556 S
C141 C122 1.429 . S
C141 C135 1.429 1_554 S
C141 C142 1.523 . S
C142 C123 1.368 1_554 S
C142 C136 1.368 . S
C142 C141 1.523 . S
C143 C127 1.407 1_554 S
C143 C139 1.429 . S
C143 C144 1.523 . S
C144 C128 1.368 . S
C144 C140 1.368 1_554 S
C144 C143 1.523 . S
H145 C120 0.950 . S
H146 C122 0.950 . S
H147 C123 0.949 . S
H148 C125 0.950 1_556 S
H149 C127 0.981 . S
C150 C151 1.349 1_556 S
C150 C152 1.327 . S
C150 H175 0.950 . S
C151 C150 1.349 1_554 S
C151 C167 1.349 . S
C152 C150 1.327 . S
C152 C171 1.437 . S
C152 H176 0.950 . S
C153 C170 1.574 . S
C153 C172 1.368 1_554 S
C153 H177 0.949 . S
H154 C158 0.949 . S
C155 C156 1.349 1_554 S
C155 C157 1.327 . S
C155 H178 0.950 . S
C156 C155 1.349 1_556 S
C156 C168 1.349 . S
C157 C155 1.327 . S
C157 C173 1.429 1_554 S
C157 H179 0.950 . S
C158 H154 0.949 . S
C158 C166 1.574 . S
C158 C174 1.368 . S
H159 C167 0.950 . S
H160 C165 0.950 . S
H161 C166 0.949 . S
H162 C168 0.950 . S
H163 C169 0.950 . S
H164 C170 0.949 . S
C165 H160 0.950 . S
C165 C167 1.327 . S
C165 C171 1.417 1_554 S
C166 C158 1.574 . S
C166 H161 0.949 . S
C166 C172 1.368 . S
C167 C151 1.349 . S
C167 H159 0.950 . S
C167 C165 1.327 . S
C168 C156 1.349 . S
C168 H162 0.950 . S
C168 C169 1.327 . S
C169 H163 0.950 . S
C169 C168 1.327 . S
C169 C173 1.429 . S
C170 C153 1.574 . S
C170 H164 0.949 . S
C170 C174 1.368 1_554 S
C171 C152 1.437 . S
C171 C165 1.417 1_556 S
C171 C172 1.526 . S
C172 C153 1.368 1_556 S
C172 C166 1.368 . S
C172 C171 1.526 . S
C173 C157 1.429 1_556 S
C173 C169 1.429 . S
C173 C174 1.523 . S
C174 C158 1.368 . S
C174 C170 1.368 1_556 S
C174 C173 1.523 . S
H175 C150 0.950 . S
H176 C152 0.950 . S
H177 C153 0.949 . S
H178 C155 0.950 . S
H179 C157 0.950 . S
C180 C181 1.349 . S
C180 C182 1.327 . S
C180 H205 0.950 . S
C181 C180 1.349 . S
C181 C197 1.349 1_554 S
C182 C180 1.327 . S
C182 C201 1.429 . S
C182 H206 0.950 . S
C183 C200 1.574 . S
C183 C202 1.368 . S
C183 H207 0.949 1_554 S
H184 C188 0.949 . S
C185 C186 1.349 . S
C185 C187 1.327 . S
C185 H208 0.950 . S
C186 C185 1.349 . S
C186 C198 1.349 . S
C187 C185 1.327 . S
C187 C203 1.429 . S
C187 H209 0.950 . S
C188 H184 0.949 . S
C188 C196 1.574 . S
C188 C204 1.368 . S
H189 C197 0.950 . S
H190 C195 0.950 . S
H191 C196 0.949 . S
H192 C198 0.950 . S
H193 C199 0.950 . S
H194 C200 0.949 1_556 S
C195 H190 0.950 . S
C195 C197 1.327 . S
C195 C201 1.429 1_556 S
C196 C188 1.574 . S
C196 H191 0.949 . S
C196 C202 1.368 . S
C197 C181 1.349 1_556 S
C197 H189 0.950 . S
C197 C195 1.327 . S
C198 C186 1.349 . S
C198 H192 0.950 . S
C198 C199 1.327 . S
C199 H193 0.950 . S
C199 C198 1.327 . S
C199 C203 1.429 . S
C200 C183 1.574 . S
C200 H194 0.949 1_554 S
C200 C204 1.368 . S
C201 C182 1.429 . S
C201 C195 1.429 1_554 S
C201 C202 1.523 . S
C202 C183 1.368 . S
C202 C196 1.368 . S
C202 C201 1.523 . S
C203 C187 1.429 . S
C203 C199 1.429 . S
C203 C204 1.523 . S
C204 C188 1.368 . S
C204 C200 1.368 . S
C204 C203 1.523 . S
H205 C180 0.950 . S
H206 C182 0.950 . S
H207 C183 0.949 1_556 S
H208 C185 0.950 . S
H209 C187 0.950 . S
C210 C211 1.349 1_554 S
C210 C212 1.327 1_554 S
C210 H235 0.950 . S
C211 C210 1.349 1_556 S
C211 C227 1.349 . S
C212 C210 1.327 1_556 S
C212 C231 1.428 . S
C212 H236 0.950 1_556 S
C213 C230 1.574 . S
C213 C232 1.368 . S
C213 H237 0.949 . S
H214 C218 0.949 . S
C215 C216 1.349 . S
C215 C217 1.327 . S
C215 H238 0.950 . S
C216 C215 1.349 . S
C216 C228 1.349 . S
C217 C215 1.327 . S
C217 C233 1.429 . S
C217 H239 0.950 . S
C218 H214 0.949 . S
C218 C226 1.574 . S
C218 C234 1.368 . S
H219 C227 0.950 . S
H220 C225 0.950 . S
H221 C226 0.959 . S
H222 C228 0.950 . S
H223 C229 0.950 . S
H224 C230 0.949 . S
C225 H220 0.950 . S
C225 C227 1.327 . S
C225 C231 1.429 . S
C226 C218 1.574 . S
C226 H221 0.959 . S
C226 C232 1.368 . S
C227 C211 1.349 . S
C227 H219 0.950 . S
C227 C225 1.327 . S
C228 C216 1.349 . S
C228 H222 0.950 . S
C228 C229 1.327 . S
C229 H223 0.950 . S
C229 C228 1.327 . S
C229 C233 1.429 . S
C230 C213 1.574 . S
C230 H224 0.949 . S
C230 C234 1.368 . S
C231 C212 1.428 . S
C231 C225 1.429 . S
C231 C232 1.523 . S
C232 C213 1.368 . S
C232 C226 1.368 . S
C232 C231 1.523 . S
C233 C217 1.429 . S
C233 C229 1.429 . S
C233 C234 1.523 . S
C234 C218 1.368 . S
C234 C230 1.368 . S
C234 C233 1.523 . S
H235 C210 0.950 . S
H236 C212 0.950 1_554 S
H237 C213 0.949 . S
H238 C215 0.950 . S
H239 C217 0.950 . S
C240 C241 1.349 . S
C240 C242 1.327 . S
C240 H265 0.950 . S
C241 C240 1.349 . S
C241 C257 1.349 . S
C242 C240 1.327 . S
C242 C261 1.429 . S
C242 H266 0.950 . S
C243 C260 1.574 . S
C243 C262 1.368 . S
C243 H267 0.949 . S
H244 C248 0.949 . S
C245 C246 1.349 . S
C245 C247 1.327 . S
C245 H268 0.950 . S
C246 C245 1.349 . S
C246 C258 1.349 . S
C247 C245 1.327 . S
C247 C263 1.429 . S
C247 H269 0.950 . S
C248 H244 0.949 . S
C248 C256 1.574 . S
C248 C264 1.368 . S
H249 C257 0.950 . S
H250 C255 0.950 . S
H251 C256 0.949 . S
H252 C258 0.950 1_545 S
H253 C259 0.950 . S
H254 C260 0.949 . S
C255 H250 0.950 . S
C255 C257 1.327 . S
C255 C261 1.429 . S
C256 C248 1.574 . S
C256 H251 0.949 . S
C256 C262 1.368 . S
C257 C241 1.349 . S
C257 H249 0.950 . S
C257 C255 1.327 . S
C258 C246 1.349 . S
C258 H252 0.950 1_565 S
C258 C259 1.327 . S
C259 H253 0.950 . S
C259 C258 1.327 . S
C259 C263 1.429 . S
C260 C243 1.574 . S
C260 H254 0.949 . S
C260 C264 1.368 . S
C261 C242 1.429 . S
C261 C255 1.429 . S
C261 C262 1.523 . S
C262 C243 1.368 . S
C262 C256 1.368 . S
C262 C261 1.523 . S
C263 C247 1.429 . S
C263 C259 1.429 . S
C263 C264 1.523 . S
C264 C248 1.368 . S
C264 C260 1.368 . S
C264 C263 1.523 . S
H265 C240 0.950 . S
H266 C242 0.950 . S
H267 C243 0.949 . S
H268 C245 0.950 . S
H269 C247 0.950 . S
C270 C271 1.349 . S
C270 C272 1.327 . S
C270 H295 0.950 . S
C271 C270 1.349 . S
C271 C287 1.349 . S
C272 C270 1.327 . S
C272 C291 1.429 . S
C272 H296 0.950 . S
C273 C290 1.574 . S
C273 C292 1.368 . S
C273 H297 0.949 . S
H274 C278 0.949 . S
C275 C276 1.349 . S
C275 C277 1.327 . S
C275 H298 0.950 . S
C276 C275 1.349 . S
C276 C288 1.349 . S
C277 C275 1.327 . S
C277 C293 1.429 . S
C277 H299 0.950 . S
C278 H274 0.949 . S
C278 C286 1.574 . S
C278 C294 1.368 . S
H279 C287 0.950 . S
H280 C285 0.950 . S
H281 C286 0.949 . S
H282 C288 0.950 . S
H283 C289 0.950 . S
H284 C290 0.949 . S
C285 H280 0.950 . S
C285 C287 1.327 . S
C285 C291 1.429 . S
C286 C278 1.574 . S
C286 H281 0.949 . S
C286 C292 1.368 . S
C287 C271 1.349 . S
C287 H279 0.950 . S
C287 C285 1.327 . S
C288 C276 1.349 . S
C288 H282 0.950 . S
C288 C289 1.327 . S
C289 H283 0.950 . S
C289 C288 1.327 . S
C289 C293 1.429 . S
C290 C273 1.574 . S
C290 H284 0.949 . S
C290 C294 1.368 . S
C291 C272 1.429 . S
C291 C285 1.429 . S
C291 C292 1.523 . S
C292 C273 1.368 . S
C292 C286 1.368 . S
C292 C291 1.523 . S
C293 C277 1.429 . S
C293 C289 1.429 . S
C293 C294 1.523 . S
C294 C278 1.368 . S
C294 C290 1.368 . S
C294 C293 1.523 . S
H295 C270 0.950 . S
H296 C272 0.950 . S
H297 C273 0.949 . S
H298 C275 0.950 . S
H299 C277 0.950 . S
C300 C301 1.349 . S
C300 C302 1.327 . S
C300 H325 0.950 . S
C301 C300 1.349 . S
C301 C317 1.349 . S
C302 C300 1.327 . S
C302 C321 1.429 . S
C302 H326 0.950 . S
C303 C320 1.574 . S
C303 C322 1.368 . S
C303 H327 0.949 . S
H304 C308 0.949 . S
C305 C306 1.349 . S
C305 C307 1.327 . S
C305 H328 0.950 . S
C306 C305 1.349 . S
C306 C318 1.349 . S
C307 C305 1.327 . S
C307 C323 1.429 . S
C307 H329 0.950 . S
C308 H304 0.949 . S
C308 C316 1.574 . S
C308 C324 1.368 . S
H309 C317 0.950 . S
H310 C315 0.950 . S
H311 C316 0.949 . S
H312 C318 0.950 . S
H313 C319 0.950 . S
H314 C320 0.949 . S
C315 H310 0.950 . S
C315 C317 1.327 . S
C315 C321 1.429 . S
C316 C308 1.574 . S
C316 H311 0.949 . S
C316 C322 1.368 . S
C317 C301 1.349 . S
C317 H309 0.950 . S
C317 C315 1.327 . S
C318 C306 1.349 . S
C318 H312 0.950 . S
C318 C319 1.327 . S
C319 H313 0.950 . S
C319 C318 1.327 . S
C319 C323 1.429 . S
C320 C303 1.574 . S
C320 H314 0.949 . S
C320 C324 1.368 . S
C321 C302 1.429 . S
C321 C315 1.429 . S
C321 C322 1.523 . S
C322 C303 1.368 . S
C322 C316 1.368 . S
C322 C321 1.523 . S
C323 C307 1.429 . S
C323 C319 1.429 . S
C323 C324 1.523 . S
C324 C308 1.368 . S
C324 C320 1.368 . S
C324 C323 1.523 . S
H325 C300 0.950 . S
H326 C302 0.950 . S
H327 C303 0.949 . S
H328 C305 0.950 . S
H329 C307 0.950 . S
C330 C331 1.349 . S
C330 C332 1.327 . S
C330 H355 0.950 . S
C331 C330 1.349 . S
C331 C347 1.349 . S
C332 C330 1.327 . S
C332 C351 1.429 . S
C332 H356 0.950 . S
C333 C350 1.574 . S
C333 C352 1.368 . S
C333 H357 0.949 . S
H334 C338 0.949 . S
C335 C336 1.349 . S
C335 C337 1.327 . S
C335 H358 0.950 . S
C336 C335 1.349 . S
C336 C348 1.349 . S
C337 C335 1.327 . S
C337 C353 1.429 . S
C337 H359 0.950 . S
C338 H334 0.949 . S
C338 C346 1.574 . S
C338 C354 1.368 . S
H339 C347 0.950 . S
H340 C345 0.950 . S
H341 C346 0.949 . S
H342 C348 0.950 . S
H343 C349 0.950 . S
H344 C350 0.949 . S
C345 H340 0.950 . S
C345 C347 1.327 . S
C345 C351 1.429 . S
C346 C338 1.574 . S
C346 H341 0.949 . S
C346 C352 1.368 . S
C347 C331 1.349 . S
C347 H339 0.950 . S
C347 C345 1.327 . S
C348 C336 1.349 . S
C348 H342 0.950 . S
C348 C349 1.327 . S
C349 H343 0.950 . S
C349 C348 1.327 . S
C349 C353 1.429 . S
C350 C333 1.574 . S
C350 H344 0.949 . S
C350 C354 1.368 . S
C351 C332 1.429 . S
C351 C345 1.429 . S
C351 C352 1.523 . S
C352 C333 1.368 . S
C352 C346 1.368 . S
C352 C351 1.523 . S
C353 C337 1.429 . S
C353 C349 1.429 . S
C353 C354 1.523 . S
C354 C338 1.368 . S
C354 C350 1.368 . S
C354 C353 1.523 . S
H355 C330 0.950 . S
H356 C332 0.950 . S
H357 C333 0.949 . S
H358 C335 0.950 . S
H359 C337 0.950 . S
C360 C361 1.349 1_545 S
C360 C362 1.327 . S
C360 H385 0.950 1_455 S
C361 C360 1.349 1_565 S
C361 C377 1.349 . S
C362 C360 1.327 . S
C362 C381 1.429 1_545 S
C362 H386 0.950 1_455 S
C363 C380 1.574 . S
C363 C382 1.368 . S
C363 H387 0.949 . S
H364 C368 0.949 . S
C365 C366 1.349 . S
C365 C367 1.327 . S
C365 H388 0.950 . S
C366 C365 1.349 . S
C366 C378 1.349 1_465 S
C367 C365 1.327 . S
C367 C383 1.429 . S
C367 H389 0.950 . S
C368 H364 0.949 . S
C368 C376 1.574 . S
C368 C384 1.368 1_645 S
H369 C377 0.950 . S
H370 C375 0.950 . S
H371 C376 0.949 . S
H372 C378 0.950 . S
H373 C379 0.950 . S
H374 C380 0.949 . S
C375 H370 0.950 . S
C375 C377 1.327 . S
C375 C381 1.429 . S
C376 C368 1.574 . S
C376 H371 0.949 . S
C376 C382 1.368 1_645 S
C377 C361 1.349 . S
C377 H369 0.950 . S
C377 C375 1.327 . S
C378 C366 1.349 1_645 S
C378 H372 0.950 . S
C378 C379 1.327 . S
C379 H373 0.950 . S
C379 C378 1.327 . S
C379 C383 1.429 1_645 S
C380 C363 1.574 . S
C380 H374 0.949 . S
C380 C384 1.368 . S
C381 C362 1.429 1_565 S
C381 C375 1.429 . S
C381 C382 1.523 . S
C382 C363 1.368 . S
C382 C376 1.368 1_465 S
C382 C381 1.523 . S
C383 C367 1.429 . S
C383 C379 1.429 1_465 S
C383 C384 1.523 . S
C384 C368 1.368 1_465 S
C384 C380 1.368 . S
C384 C383 1.523 . S
H385 C360 0.950 1_655 S
H386 C362 0.950 1_655 S
H387 C363 0.949 . S
H388 C365 0.950 . S
H389 C367 0.950 . S
C390 C391 1.349 . S
C390 C392 1.327 . S
C390 H415 0.950 . S
C391 C390 1.349 . S
C391 C407 1.349 . S
C392 C390 1.327 . S
C392 C411 1.429 . S
C392 H416 0.950 . S
C393 C410 1.574 . S
C393 C412 1.368 . S
C393 H417 0.949 1_445 S
H394 C398 0.949 . S
C395 C396 1.349 . S
C395 C397 1.327 . S
C395 H418 0.949 1_445 S
C396 C395 1.349 . S
C396 C408 1.349 . S
C397 C395 1.327 . S
C397 C413 1.429 . S
C397 H419 0.950 1_445 S
C398 H394 0.949 . S
C398 C406 1.574 . S
C398 C414 1.368 . S
H399 C407 0.950 1_665 S
H400 C405 0.950 1_665 S
H401 C406 0.949 . S
H402 C408 0.950 . S
H403 C409 0.950 . S
H404 C410 0.949 1_665 S
C405 H400 0.950 1_445 S
C405 C407 1.327 . S
C405 C411 1.429 . S
C406 C398 1.574 . S
C406 H401 0.949 . S
C406 C412 1.368 . S
C407 C391 1.349 . S
C407 H399 0.950 1_445 S
C407 C405 1.327 . S
C408 C396 1.349 . S
C408 H402 0.950 . S
C408 C409 1.327 . S
C409 H403 0.950 . S
C409 C408 1.327 . S
C409 C413 1.429 . S
C410 C393 1.574 . S
C410 H404 0.949 1_445 S
C410 C414 1.368 . S
C411 C392 1.429 . S
C411 C405 1.429 . S
C411 C412 1.523 . S
C412 C393 1.368 . S
C412 C406 1.368 . S
C412 C411 1.523 . S
C413 C397 1.429 . S
C413 C409 1.429 . S
C413 C414 1.523 . S
C414 C398 1.368 . S
C414 C410 1.368 . S
C414 C413 1.523 . S
H415 C390 0.950 . S
H416 C392 0.950 . S
H417 C393 0.949 1_665 S
H418 C395 0.949 1_665 S
H419 C397 0.950 1_665 S
C420 C421 1.349 . S
C420 C422 1.327 . S
C420 H445 0.950 . S
C421 C420 1.349 . S
C421 C437 1.349 . S
C422 C420 1.327 . S
C422 C441 1.429 . S
C422 H446 0.950 . S
C423 C440 1.574 . S
C423 C442 1.368 . S
C423 H447 0.949 . S
H424 C428 0.949 . S
C425 C426 1.349 . S
C425 C427 1.327 . S
C425 H448 0.950 . S
C426 C425 1.349 . S
C426 C438 1.349 . S
C427 C425 1.327 . S
C427 C443 1.429 . S
C427 H449 0.950 . S
C428 H424 0.949 . S
C428 C436 1.574 . S
C428 C444 1.368 . S
H429 C437 0.950 . S
H430 C435 0.950 . S
H431 C436 0.949 . S
H432 C438 0.950 . S
H433 C439 0.950 . S
H434 C440 0.949 . S
C435 H430 0.950 . S
C435 C437 1.327 . S
C435 C441 1.429 . S
C436 C428 1.574 . S
C436 H431 0.949 . S
C436 C442 1.368 . S
C437 C421 1.349 . S
C437 H429 0.950 . S
C437 C435 1.327 . S
C438 C426 1.349 . S
C438 H432 0.950 . S
C438 C439 1.327 . S
C439 H433 0.950 . S
C439 C438 1.327 . S
C439 C443 1.429 . S
C440 C423 1.574 . S
C440 H434 0.949 . S
C440 C444 1.368 . S
C441 C422 1.429 . S
C441 C435 1.429 . S
C441 C442 1.523 . S
C442 C423 1.368 . S
C442 C436 1.368 . S
C442 C441 1.523 . S
C443 C427 1.429 . S
C443 C439 1.429 . S
C443 C444 1.523 . S
C444 C428 1.368 . S
C444 C440 1.368 . S
C444 C443 1.523 . S
H445 C420 0.950 . S
H446 C422 0.950 . S
H447 C423 0.949 . S
H448 C425 0.950 . S
H449 C427 0.950 . S
C450 C451 1.349 . S
C450 C452 1.327 . S
C450 H475 0.950 . S
C451 C450 1.349 . S
C451 C467 1.349 . S
C452 C450 1.327 . S
C452 C471 1.429 . S
C452 H476 0.950 . S
C453 C470 1.574 . S
C453 C472 1.368 . S
C453 H477 0.949 . S
H454 C458 0.949 . S
C455 C456 1.349 . S
C455 C457 1.327 . S
C455 H478 0.950 . S
C456 C455 1.349 . S
C456 C468 1.349 . S
C457 C455 1.327 . S
C457 C473 1.429 . S
C457 H479 0.950 . S
C458 H454 0.949 . S
C458 C466 1.574 . S
C458 C474 1.368 . S
H459 C467 0.950 . S
H460 C465 0.950 . S
H461 C466 0.949 . S
H462 C468 0.950 . S
H463 C469 0.950 . S
H464 C470 0.949 . S
C465 H460 0.950 . S
C465 C467 1.327 . S
C465 C471 1.429 . S
C466 C458 1.574 . S
C466 H461 0.949 . S
C466 C472 1.368 . S
C467 C451 1.349 . S
C467 H459 0.950 . S
C467 C465 1.327 . S
C468 C456 1.349 . S
C468 H462 0.950 . S
C468 C469 1.327 . S
C469 H463 0.950 . S
C469 C468 1.327 . S
C469 C473 1.429 . S
C470 C453 1.574 . S
C470 H464 0.949 . S
C470 C474 1.368 . S
C471 C452 1.429 . S
C471 C465 1.429 . S
C471 C472 1.523 . S
C472 C453 1.368 . S
C472 C466 1.368 . S
C472 C471 1.523 . S
C473 C457 1.429 . S
C473 C469 1.429 . S
C473 C474 1.523 . S
C474 C458 1.368 . S
C474 C470 1.368 . S
C474 C473 1.523 . S
H475 C450 0.950 . S
H476 C452 0.950 . S
H477 C453 0.949 . S
H478 C455 0.950 . S
H479 C457 0.950 . S
C126 N109 1.293 . S
C121 C29 1.307 . S
C151 C8 1.329 . S
C156 N96 1.313 . S
C181 C0 1.482 . S
C186 N108 1.479 . S
C211 C17 1.467 . S
C216 N95 1.471 . S
C241 C63 1.307 . S
C246 N83 1.293 1_565 S
C271 C42 1.329 . S
C276 N70 1.313 . S
C306 N82 1.479 . S
C301 C34 1.482 . S
C336 N69 1.471 . S
C331 C51 1.467 . S
C361 C4 1.520 1_565 S
C366 N73 1.508 1_565 S
C391 C13 1.528 . S
C396 N86 1.517 . S
C426 N99 1.508 . S
C421 C38 1.519 . S
C451 C47 1.528 . S
C456 N112 1.517 . S
