# Generated by pormake.
# Topology csq, (4,8)-cn, num edge types: 1
# Building blocks:
#     Node 0, Type 0, BuildingBlock: MIFKUJ_clean_linker_1, # of connection points: 4
#     Node 1, Type 0, BuildingBlock: MIFKUJ_clean_linker_1, # of connection points: 4
#     Node 2, Type 0, BuildingBlock: MIFKUJ_clean_linker_1, # of connection points: 4
#     Node 3, Type 0, BuildingBlock: MIFKUJ_clean_linker_1, # of connection points: 4
#     Node 4, Type 0, BuildingBlock: MIFKUJ_clean_linker_1, # of connection points: 4
#     Node 5, Type 0, BuildingBlock: MIFKUJ_clean_linker_1, # of connection points: 4
#     Node 6, Type 1, BuildingBlock: TAGTUT_clean_sbu_3, # of connection points: 8
#     Node 7, Type 1, BuildingBlock: TAGTUT_clean_sbu_3, # of connection points: 8
#     Node 8, Type 1, BuildingBlock: TAGTUT_clean_sbu_3, # of connection points: 8
#     Edge 9, Type (0, 1), BuildingBlock: UVAHIK_clean_linker_0, # of connection points: 2
#     Edge 10, Type (0, 1), BuildingBlock: UVAHIK_clean_linker_0, # of connection points: 2
#     Edge 11, Type (0, 1), BuildingBlock: UVAHIK_clean_linker_0, # of connection points: 2
#     Edge 12, Type (0, 1), BuildingBlock: UVAHIK_clean_linker_0, # of connection points: 2
#     Edge 13, Type (0, 1), BuildingBlock: UVAHIK_clean_linker_0, # of connection points: 2
#     Edge 14, Type (0, 1), BuildingBlock: UVAHIK_clean_linker_0, # of connection points: 2
#     Edge 15, Type (0, 1), BuildingBlock: UVAHIK_clean_linker_0, # of connection points: 2
#     Edge 16, Type (0, 1), BuildingBlock: UVAHIK_clean_linker_0, # of connection points: 2
#     Edge 17, Type (0, 1), BuildingBlock: UVAHIK_clean_linker_0, # of connection points: 2
#     Edge 18, Type (0, 1), BuildingBlock: UVAHIK_clean_linker_0, # of connection points: 2
#     Edge 19, Type (0, 1), BuildingBlock: UVAHIK_clean_linker_0, # of connection points: 2
#     Edge 20, Type (0, 1), BuildingBlock: UVAHIK_clean_linker_0, # of connection points: 2
#     Edge 21, Type (0, 1), BuildingBlock: UVAHIK_clean_linker_0, # of connection points: 2
#     Edge 22, Type (0, 1), BuildingBlock: UVAHIK_clean_linker_0, # of connection points: 2
#     Edge 23, Type (0, 1), BuildingBlock: UVAHIK_clean_linker_0, # of connection points: 2
#     Edge 24, Type (0, 1), BuildingBlock: UVAHIK_clean_linker_0, # of connection points: 2
#     Edge 25, Type (0, 1), BuildingBlock: UVAHIK_clean_linker_0, # of connection points: 2
#     Edge 26, Type (0, 1), BuildingBlock: UVAHIK_clean_linker_0, # of connection points: 2
#     Edge 27, Type (0, 1), BuildingBlock: UVAHIK_clean_linker_0, # of connection points: 2
#     Edge 28, Type (0, 1), BuildingBlock: UVAHIK_clean_linker_0, # of connection points: 2
#     Edge 29, Type (0, 1), BuildingBlock: UVAHIK_clean_linker_0, # of connection points: 2
#     Edge 30, Type (0, 1), BuildingBlock: UVAHIK_clean_linker_0, # of connection points: 2
#     Edge 31, Type (0, 1), BuildingBlock: UVAHIK_clean_linker_0, # of connection points: 2
#     Edge 32, Type (0, 1), BuildingBlock: UVAHIK_clean_linker_0, # of connection points: 2
# Relax obj value: 0.028
# Max RMSD: 0.112
# Mean RMSD: 0.043
data_MOF--net-csq--node1-TAGTUT_clean_sbu_3--node2-MIFKUJ_clean_linker_1--edge1-UVAHIK_clean_linker_0
_symmetry_space_group_name_H-M    P1
_symmetry_Int_Tables_number       1
_symmetry_cell_setting            triclinic
loop_
_symmetry_equiv_pos_as_xyz
'x, y, z'
_cell_length_a     77.19267
_cell_length_b     76.291229
_cell_length_c     26.377987
_cell_angle_alpha  92.129464
_cell_angle_beta   92.408846
_cell_angle_gamma 119.94727
loop_
_atom_site_label
_atom_site_type_symbol
_atom_site_fract_x
_atom_site_fract_y
_atom_site_fract_z
_atom_type_partial_charge
H0 H 0.25908 0.45615 0.24359 0.0
H1 H 0.28991 0.45974 0.28385 0.0
H2 H 0.32489 0.50834 0.1882 0.0
H3 H 0.29397 0.50498 0.1489 0.0
H4 H 0.24289 0.48138 0.22832 0.0
H5 H 0.26902 0.44599 0.13197 0.0
H6 H 0.29629 0.44489 0.09044 0.0
H7 H 0.29727 0.48689 0.9837 0.0
H8 H 0.27055 0.48858 0.02645 0.0
H9 H 0.21756 0.48324 0.01914 0.0
H10 H 0.18761 0.4749 0.96596 0.0
H11 H 0.15088 0.43408 0.07606 0.0
H12 H 0.18108 0.44129 0.12703 0.0
H13 H 0.23284 0.46145 0.0435 0.0
H14 H 0.21202 0.50172 0.14765 0.0
H15 H 0.18829 0.50697 0.19519 0.0
H16 H 0.17633 0.45543 0.28172 0.0
H17 H 0.20093 0.45119 0.236 0.0
C18 C 0.27429 0.48014 0.19296 0.0
C19 C 0.27341 0.46788 0.23216 0.0
C20 C 0.291 0.46979 0.25464 0.0
C21 C 0.30977 0.48408 0.23847 0.0
C22 C 0.31065 0.49721 0.20141 0.0
C23 C 0.29303 0.49528 0.1789 0.0
C24 C 0.25568 0.47561 0.16326 0.0
C25 C 0.24062 0.47694 0.18796 0.0
C26 C 0.25281 0.46988 0.11061 0.0
C27 C 0.26801 0.46767 0.08289 0.0
C28 C 0.27521 0.45508 0.09987 0.0
C29 C 0.29074 0.45444 0.07618 0.0
C30 C 0.29891 0.46592 0.0342 0.0
C31 C 0.29116 0.47786 0.01595 0.0
C32 C 0.27588 0.47879 0.04022 0.0
C33 C 0.20162 0.46317 0.07756 0.0
C34 C 0.20306 0.47243 0.03175 0.0
C35 C 0.18586 0.46778 0.0016 0.0
C36 C 0.16674 0.45395 0.01688 0.0
C37 C 0.16532 0.44466 0.06282 0.0
C38 C 0.1826 0.44907 0.09256 0.0
C39 C 0.22012 0.4677 0.10817 0.0
C40 C 0.23512 0.4661 0.08373 0.0
C41 C 0.22298 0.47329 0.16091 0.0
C42 C 0.20819 0.4761 0.1885 0.0
C43 C 0.20427 0.49164 0.17702 0.0
C44 C 0.19057 0.4945 0.20403 0.0
C45 C 0.18036 0.48169 0.24262 0.0
C46 C 0.18421 0.46594 0.25328 0.0
C47 C 0.19816 0.46335 0.22693 0.0
H48 H 0.7702 0.27538 0.99612 0.0
H49 H 0.79061 0.30435 0.94649 0.0
H50 H 0.84403 0.30519 0.00512 0.0
H51 H 0.82361 0.2754 0.05225 0.0
H52 H 0.76192 0.23944 0.99162 0.0
H53 H 0.79114 0.29027 0.13445 0.0
H54 H 0.81654 0.317 0.19361 0.0
H55 H 0.84614 0.28186 0.21122 0.0
H56 H 0.81997 0.25478 0.15409 0.0
H57 H 0.76288 0.19279 0.15752 0.0
H58 H 0.73822 0.16384 0.20133 0.0
H59 H 0.69444 0.18234 0.17046 0.0
H60 H 0.71902 0.21094 0.12638 0.0
H61 H 0.77774 0.23549 0.17369 0.0
H62 H 0.7409 0.18148 0.04465 0.0
H63 H 0.70853 0.15383 0.00877 0.0
H64 H 0.69056 0.19725 0.97004 0.0
H65 H 0.72286 0.22487 0.00683 0.0
C66 C 0.79529 0.27324 0.0287 0.0
C67 C 0.78628 0.28164 0.99815 0.0
C68 C 0.79791 0.29821 0.96991 0.0
C69 C 0.81881 0.30696 0.9724 0.0
C70 C 0.82792 0.29878 0.00317 0.0
C71 C 0.81625 0.28188 0.03045 0.0
C72 C 0.78262 0.25506 0.05704 0.0
C73 C 0.7654 0.23878 0.03153 0.0
C74 C 0.78719 0.25363 0.10881 0.0
C75 C 0.80381 0.27068 0.13988 0.0
C76 C 0.80325 0.28849 0.15076 0.0
C77 C 0.81786 0.30378 0.18447 0.0
C78 C 0.83343 0.30162 0.20751 0.0
C79 C 0.83418 0.28391 0.19517 0.0
C80 C 0.81937 0.26849 0.16212 0.0
C81 C 0.74268 0.20383 0.13831 0.0
C82 C 0.748 0.19063 0.16063 0.0
C83 C 0.7339 0.17412 0.18561 0.0
C84 C 0.71428 0.17065 0.1889 0.0
C85 C 0.70925 0.18429 0.16763 0.0
C86 C 0.72332 0.20073 0.14273 0.0
C87 C 0.75702 0.22047 0.10858 0.0
C88 C 0.77454 0.23623 0.13361 0.0
C89 C 0.75255 0.2216 0.05672 0.0
C90 C 0.73417 0.20519 0.02889 0.0
C91 C 0.73002 0.18504 0.02825 0.0
C92 C 0.71151 0.16928 0.00805 0.0
C93 C 0.69699 0.17342 0.9873 0.0
C94 C 0.70152 0.19366 0.98577 0.0
C95 C 0.71997 0.20943 0.00651 0.0
H96 H 0.581 0.76488 0.97448 0.0
H97 H 0.59058 0.74536 0.91793 0.0
H98 H 0.53567 0.69068 0.94329 0.0
H99 H 0.5255 0.71022 0.99713 0.0
H100 H 0.55175 0.77144 0.96115 0.0
H101 H 0.56828 0.73831 0.09833 0.0
H102 H 0.56513 0.70977 0.14527 0.0
H103 H 0.50115 0.68528 0.1443 0.0
H104 H 0.50439 0.71375 0.09756 0.0
H105 H 0.49911 0.76433 0.12046 0.0
H106 H 0.4929 0.78476 0.18268 0.0
H107 H 0.55133 0.83611 0.16287 0.0
H108 H 0.55761 0.81548 0.10131 0.0
H109 H 0.52709 0.75446 0.13295 0.0
H110 H 0.5096 0.78804 0.01445 0.0
H111 H 0.50781 0.81324 0.96425 0.0
H112 H 0.5676 0.83312 0.91797 0.0
H113 H 0.5699 0.80902 0.97178 0.0
C114 C 0.55265 0.739 0.99084 0.0
C115 C 0.57105 0.74867 0.96808 0.0
C116 C 0.57656 0.73757 0.93599 0.0
C117 C 0.56393 0.7166 0.927 0.0
C118 C 0.54578 0.70683 0.95057 0.0
C119 C 0.54005 0.71797 0.98162 0.0
C120 C 0.5461 0.75119 0.02095 0.0
C121 C 0.54683 0.76809 0.99931 0.0
C122 C 0.53835 0.74592 0.0692 0.0
C123 C 0.53656 0.7281 0.09441 0.0
C124 C 0.55358 0.72666 0.10778 0.0
C125 C 0.55176 0.71044 0.13479 0.0
C126 C 0.53288 0.69531 0.14843 0.0
C127 C 0.51584 0.69658 0.13388 0.0
C128 C 0.51769 0.71289 0.10747 0.0
C129 C 0.5288 0.78841 0.10624 0.0
C130 C 0.51048 0.78006 0.1291 0.0
C131 C 0.50691 0.79176 0.16445 0.0
C132 C 0.5217 0.81197 0.17787 0.0
C133 C 0.53978 0.82049 0.1537 0.0
C134 C 0.5433 0.8088 0.11814 0.0
C135 C 0.53355 0.77528 0.07405 0.0
C136 C 0.53231 0.7581 0.09511 0.0
C137 C 0.54047 0.78014 0.02486 0.0
C138 C 0.53998 0.79666 0.99758 0.0
C139 C 0.52259 0.79823 0.99485 0.0
C140 C 0.52144 0.81245 0.96512 0.0
C141 C 0.53746 0.82514 0.93627 0.0
C142 C 0.55502 0.82383 0.93993 0.0
C143 C 0.55629 0.80985 0.97041 0.0
H144 H 0.80893 0.52322 0.06482 0.0
H145 H 0.8396 0.52255 0.08722 0.0
H146 H 0.86879 0.58569 0.14095 0.0
H147 H 0.83798 0.58633 0.11748 0.0
H148 H 0.79699 0.56048 0.14894 0.0
H149 H 0.78586 0.51827 0.95583 0.0
H150 H 0.80852 0.51289 0.90335 0.0
H151 H 0.85598 0.57396 0.94686 0.0
H152 H 0.83328 0.57934 0.99849 0.0
H153 H 0.74883 0.57402 0.05993 0.0
H154 H 0.71469 0.56632 0.03642 0.0
H155 H 0.70136 0.50845 0.96593 0.0
H156 H 0.7352 0.51585 0.99186 0.0
H157 H 0.77124 0.5447 0.96743 0.0
H158 H 0.7783 0.58663 0.15764 0.0
H159 H 0.75574 0.58703 0.21987 0.0
H160 H 0.71645 0.52254 0.18742 0.0
H161 H 0.73868 0.52249 0.12446 0.0
C162 C 0.82128 0.55484 0.08948 0.0
C163 C 0.82194 0.53691 0.0815 0.0
C164 C 0.83943 0.53653 0.09434 0.0
C165 C 0.85657 0.55408 0.11564 0.0
C166 C 0.85585 0.57202 0.12397 0.0
C167 C 0.83826 0.57236 0.11123 0.0
C168 C 0.803 0.55523 0.07259 0.0
C169 C 0.79157 0.55758 0.10918 0.0
C170 C 0.79583 0.55104 0.02085 0.0
C171 C 0.80799 0.54911 0.98147 0.0
C172 C 0.80098 0.53066 0.95286 0.0
C173 C 0.81393 0.52758 0.92314 0.0
C174 C 0.83406 0.5429 0.92191 0.0
C175 C 0.84064 0.56178 0.94798 0.0
C176 C 0.82767 0.5649 0.97718 0.0
C177 C 0.74452 0.54545 0.02799 0.0
C178 C 0.73847 0.55958 0.03993 0.0
C179 C 0.71899 0.55522 0.0261 0.0
C180 C 0.70525 0.53673 0.99942 0.0
C181 C 0.71142 0.52267 0.98724 0.0
C182 C 0.73086 0.52699 0.0014 0.0
C183 C 0.76495 0.54965 0.04394 0.0
C184 C 0.77683 0.54817 0.00706 0.0
C185 C 0.7725 0.55456 0.09549 0.0
C186 C 0.75994 0.55459 0.13615 0.0
C187 C 0.76488 0.57261 0.1644 0.0
C188 C 0.75202 0.57278 0.19999 0.0
C189 C 0.73415 0.55487 0.20812 0.0
C190 C 0.72981 0.5367 0.18119 0.0
C191 C 0.74255 0.53659 0.14546 0.0
H192 H 0.2295 0.83629 0.02675 0.0
H193 H 0.24879 0.86066 0.96469 0.0
H194 H 0.28906 0.8367 0.96169 0.0
H195 H 0.26923 0.81195 0.02144 0.0
H196 H 0.211 0.79213 0.00962 0.0
H197 H 0.25907 0.84462 0.15566 0.0
H198 H 0.29354 0.86792 0.18872 0.0
H199 H 0.31031 0.82395 0.13948 0.0
H200 H 0.2755 0.80034 0.11042 0.0
H201 H 0.22544 0.75376 0.1818 0.0
H202 H 0.20708 0.72825 0.24168 0.0
H203 H 0.1555 0.73528 0.21191 0.0
H204 H 0.17403 0.76105 0.15232 0.0
H205 H 0.23836 0.79087 0.18202 0.0
H206 H 0.19586 0.73624 0.07271 0.0
H207 H 0.16939 0.70823 0.01932 0.0
H208 H 0.14831 0.74781 0.96695 0.0
H209 H 0.17402 0.77548 0.02349 0.0
C210 C 0.24818 0.8226 0.0294 0.0
C211 C 0.24254 0.83641 0.01272 0.0
C212 C 0.25363 0.85037 0.9775 0.0
C213 C 0.27045 0.85062 0.95812 0.0
C214 C 0.27604 0.83677 0.97524 0.0
C215 C 0.26492 0.82281 0.01013 0.0
C216 C 0.23599 0.8072 0.06484 0.0
C217 C 0.21657 0.79203 0.048 0.0
C218 C 0.24397 0.80638 0.11311 0.0
C219 C 0.2649 0.82087 0.13092 0.0
C220 C 0.27026 0.84011 0.15226 0.0
C221 C 0.29005 0.85347 0.17056 0.0
C222 C 0.30488 0.84791 0.16689 0.0
C223 C 0.29934 0.82867 0.14414 0.0
C224 C 0.27948 0.81518 0.1271 0.0
C225 C 0.20115 0.75938 0.16236 0.0
C226 C 0.21021 0.74993 0.18829 0.0
C227 C 0.19972 0.73536 0.22264 0.0
C228 C 0.17988 0.72982 0.23173 0.0
C229 C 0.17072 0.7391 0.20537 0.0
C230 C 0.18128 0.75381 0.17121 0.0
C231 C 0.21278 0.7755 0.12747 0.0
C232 C 0.23218 0.79096 0.14438 0.0
C233 C 0.2051 0.77574 0.07781 0.0
C234 C 0.1869 0.75801 0.0526 0.0
C235 C 0.18508 0.73875 0.05139 0.0
C236 C 0.17015 0.7228 0.0199 0.0
C237 C 0.15698 0.72586 0.98792 0.0
C238 C 0.15813 0.74486 0.99114 0.0
C239 C 0.17291 0.76075 0.02331 0.0
H240 H 0.51063 0.23058 0.077 0.0
H241 H 0.52282 0.20967 0.03711 0.0
H242 H 0.47048 0.15569 0.07936 0.0
H243 H 0.45791 0.1765 0.11741 0.0
H244 H 0.47994 0.23382 0.05389 0.0
H245 H 0.50284 0.2177 0.20962 0.0
H246 H 0.5062 0.19637 0.27144 0.0
H247 H 0.44162 0.16133 0.27377 0.0
H248 H 0.43859 0.18346 0.21383 0.0
H249 H 0.42788 0.23461 0.2099 0.0
H250 H 0.42366 0.25781 0.26756 0.0
H251 H 0.47979 0.30748 0.22549 0.0
H252 H 0.48447 0.2841 0.17042 0.0
H253 H 0.45646 0.22662 0.22792 0.0
H254 H 0.43775 0.25249 0.08239 0.0
H255 H 0.43928 0.27797 0.02586 0.0
H256 H 0.50162 0.29805 0.00653 0.0
H257 H 0.50015 0.27304 0.06372 0.0
C258 C 0.48342 0.20515 0.10065 0.0
C259 C 0.50177 0.21425 0.07773 0.0
C260 C 0.50876 0.20233 0.05512 0.0
C261 C 0.49764 0.18113 0.05558 0.0
C262 C 0.47949 0.17204 0.07932 0.0
C263 C 0.47233 0.18393 0.10117 0.0
C264 C 0.47556 0.21785 0.1221 0.0
C265 C 0.47496 0.2324 0.09215 0.0
C266 C 0.46857 0.21566 0.17143 0.0
C267 C 0.47047 0.20204 0.20697 0.0
C268 C 0.48944 0.20536 0.22342 0.0
C269 C 0.4913 0.19306 0.25864 0.0
C270 C 0.47418 0.17702 0.27779 0.0
C271 C 0.45517 0.17372 0.26078 0.0
C272 C 0.45336 0.18623 0.22612 0.0
C273 C 0.45646 0.25759 0.18563 0.0
C274 C 0.43909 0.25058 0.21245 0.0
C275 C 0.43666 0.26387 0.24527 0.0
C276 C 0.45155 0.28443 0.25176 0.0
C277 C 0.46825 0.29164 0.2222 0.0
C278 C 0.47077 0.27833 0.18987 0.0
C279 C 0.46115 0.24296 0.1601 0.0
C280 C 0.4611 0.22791 0.18931 0.0
C281 C 0.4681 0.2452 0.11061 0.0
C282 C 0.46886 0.26089 0.07751 0.0
C283 C 0.45178 0.26253 0.06634 0.0
C284 C 0.45263 0.27696 0.03366 0.0
C285 C 0.47058 0.29006 0.01172 0.0
C286 C 0.48763 0.2884 0.02324 0.0
C287 C 0.48676 0.27397 0.05565 0.0
C288 C 0.03468 0.49221 0.54478 0.0
C289 C 0.01655 0.46207 0.72368 0.0
C290 C 0.9622 0.46364 0.69335 0.0
Mg291 Mg 0.02017 0.51911 0.48337 0.0
Mg292 Mg 0.00838 0.54983 0.54429 0.0
O293 O 0.00363 0.52337 0.53422 0.0
Mg294 Mg 0.00768 0.5095 0.59253 0.0
O295 O 0.01177 0.49378 0.64631 0.0
Mg296 Mg 0.99617 0.46568 0.61199 0.0
Mg297 Mg 0.00605 0.49622 0.71333 0.0
C298 C 0.98083 0.5288 0.63546 0.0
O299 O 0.02987 0.53902 0.64125 0.0
O300 O 0.00647 0.5316 0.42415 0.0
O301 O 0.02277 0.52903 0.7211 0.0
O302 O 0.04714 0.55157 0.49877 0.0
O303 O 0.99769 0.55131 0.46909 0.0
O304 O 0.04007 0.57087 0.54927 0.0
O305 O 0.98533 0.47942 0.55046 0.0
O306 O 0.99353 0.48674 0.47059 0.0
C307 C 0.98297 0.47422 0.50288 0.0
C308 C -0.00116 0.54322 0.42679 0.0
O309 O 0.98372 0.51357 0.6325 0.0
O310 O 0.0095 0.4555 0.67756 0.0
O311 O 0.98995 0.54426 0.60875 0.0
O312 O 0.96785 0.45648 0.65703 0.0
O313 O 0.01702 0.47772 0.74487 0.0
O314 O 0.97434 0.4804 0.71789 0.0
O315 O 0.03135 0.50706 0.54878 0.0
O316 O 0.02416 0.47585 0.56707 0.0
C317 C 0.05241 0.56841 0.52349 0.0
C318 C 0.03157 0.54288 0.68983 0.0
C319 C 0.49983 0.03095 0.52921 0.0
C320 C 0.55899 0.02037 0.46904 0.0
C321 C 0.51952 0.95886 0.51248 0.0
Mg322 Mg 0.46792 0.00766 0.61228 0.0
Mg323 Mg 0.47544 0.98311 0.70375 0.0
O324 O 0.47612 0.98774 0.63482 0.0
Mg325 Mg 0.501 0.99716 0.5978 0.0
O326 O 0.52454 0.0069 0.55541 0.0
Mg327 Mg 0.50941 0.99618 0.48699 0.0
Mg328 Mg 0.54427 -7e-05 0.57076 0.0
C329 C 0.49816 0.96029 0.66719 0.0
O330 O 0.5235 0.01497 0.66611 0.0
O331 O 0.43804 0.98862 0.6524 0.0
O332 O 0.55016 0.01138 0.65017 0.0
O333 O 0.48259 0.02844 0.68607 0.0
O334 O 0.44383 0.97014 0.70817 0.0
O335 O 0.49054 0.01237 0.74361 0.0
O336 O 0.48032 0.98012 0.52811 0.0
O337 O 0.4556 0.98698 0.53876 0.0
C338 C 0.46371 0.97879 0.5127 0.0
C339 C 0.43212 0.97512 0.68539 0.0
O340 O 0.50309 0.96968 0.62601 0.0
O341 O 0.54065 0.01389 0.45324 0.0
O342 O 0.48879 0.96398 0.70126 0.0
O343 O 0.51167 0.9673 0.48674 0.0
O344 O 0.5638 0.01696 0.51321 0.0
O345 O 0.53203 0.96818 0.55052 0.0
O346 O 0.4978 0.02386 0.57332 0.0
O347 O 0.50537 0.02393 0.49219 0.0
C348 C 0.49045 0.02815 0.72956 0.0
C349 C 0.54088 0.01741 0.6791 0.0
C350 C 0.51915 0.54031 0.67141 0.0
C351 C 0.45583 0.47749 0.74199 0.0
C352 C 0.48517 0.44503 0.69397 0.0
Mg353 Mg 0.54612 0.54031 0.57953 0.0
Mg354 Mg 0.52438 0.50606 0.48467 0.0
O355 O 0.53133 0.51079 0.55481 0.0
Mg356 Mg 0.5087 0.50027 0.60052 0.0
O357 O 0.48732 0.49109 0.64963 0.0
Mg358 Mg 0.5039 0.49573 0.7148 0.0
Mg359 Mg 0.46508 0.46492 0.63712 0.0
C360 C 0.49714 0.46153 0.52132 0.0
O361 O 0.48525 0.49767 0.53943 0.0
O362 O 0.57107 0.54342 0.527 0.0
O363 O 0.45799 0.4686 0.55869 0.0
O364 O 0.53265 0.55042 0.51495 0.0
O365 O 0.55471 0.51895 0.46396 0.0
O366 O 0.51313 0.52509 0.45822 0.0
O367 O 0.53024 0.50218 0.6649 0.0
O368 O 0.55812 0.53008 0.64614 0.0
C369 C 0.54874 0.51549 0.675 0.0
C370 C 0.57091 0.53369 0.4858 0.0
O371 O 0.49911 0.46792 0.56826 0.0
O372 O 0.47471 0.48787 0.75554 0.0
O373 O 0.50428 0.47357 0.48527 0.0
O374 O 0.49601 0.46245 0.71727 0.0
O375 O 0.4491 0.46795 0.69816 0.0
O376 O 0.4727 0.44228 0.65698 0.0
O377 O 0.51917 0.53275 0.62733 0.0
O378 O 0.51263 0.52919 0.70921 0.0
C379 C 0.5206 0.54347 0.47519 0.0
C380 C 0.46716 0.48309 0.5292 0.0
C381 C 0.15369 0.49151 0.24863 0.0
C382 C 0.16585 0.48472 0.27193 0.0
C383 C 0.13977 0.49382 0.27616 0.0
C384 C 0.10741 0.47273 0.37722 0.0
H385 H 0.10872 0.52392 0.39969 0.0
C386 C 0.0589 0.48112 0.52275 0.0
C387 C 0.05049 0.49337 0.51304 0.0
C388 C 0.07315 0.48117 0.49198 0.0
C389 C 0.10789 0.50942 0.39308 0.0
H390 H 0.17327 0.47587 0.34341 0.0
H391 H 0.14829 0.47893 0.39022 0.0
H392 H 0.13308 0.52195 0.34671 0.0
H393 H 0.05073 0.51563 0.46396 0.0
H394 H 0.07509 0.51513 0.40859 0.0
H395 H 0.08201 0.45984 0.42167 0.0
C396 C 0.14969 0.4825 0.35069 0.0
C397 C 0.1219 0.50837 0.36297 0.0
C398 C 0.16386 0.48058 0.32361 0.0
C399 C 0.05694 0.50602 0.47235 0.0
C400 C 0.07099 0.50579 0.44078 0.0
C401 C 0.09321 0.47366 0.40637 0.0
C402 C 0.13749 0.48904 0.32715 0.0
C403 C 0.12196 0.49008 0.35568 0.0
C404 C 0.0791 0.49315 0.44988 0.0
C405 C 0.0935 0.4921 0.4157 0.0
H406 H 0.15454 0.49458 0.20881 0.0
H407 H 0.13037 0.49877 0.25726 0.0
H408 H 0.10704 0.4584 0.37144 0.0
H409 H 0.0545 0.47146 0.55439 0.0
H410 H 0.0795 0.47176 0.50141 0.0
C411 C 0.70424 0.14722 0.26018 0.0
C412 C 0.69907 0.15297 0.21453 0.0
C413 C 0.68966 0.13124 0.28551 0.0
C414 C 0.63797 0.0869 0.26888 0.0
H415 H 0.63941 0.09503 0.4153 0.0
C416 C 0.57094 0.03818 0.38859 0.0
C417 C 0.57527 0.03307 0.43631 0.0
C418 C 0.58643 0.05134 0.35959 0.0
C419 C 0.63893 0.09238 0.37451 0.0
H420 H 0.67465 0.14583 0.1586 0.0
H421 H 0.64915 0.11838 0.20346 0.0
H422 H 0.66584 0.12061 0.36843 0.0
H423 H 0.59939 0.03729 0.48998 0.0
H424 H 0.62626 0.06009 0.43935 0.0
H425 H 0.61077 0.05879 0.27513 0.0
C426 C 0.6645 0.12608 0.21952 0.0
C427 C 0.65412 0.10704 0.34761 0.0
C428 C 0.67908 0.14202 0.19415 0.0
C429 C 0.59545 0.04097 0.4536 0.0
C430 C 0.61089 0.05414 0.4247 0.0
C431 C 0.62272 0.07224 0.29583 0.0
C432 C 0.66956 0.12064 0.26583 0.0
C433 C 0.65379 0.10454 0.29444 0.0
C434 C 0.60657 0.05971 0.37773 0.0
C435 C 0.623 0.07487 0.34893 0.0
H436 H 0.71948 0.1554 0.27705 0.0
H437 H 0.69413 0.12726 0.32072 0.0
H438 H 0.63741 0.08436 0.22803 0.0
H439 H 0.55559 0.03237 0.37403 0.0
H440 H 0.58261 0.05546 0.3237 0.0
C441 C 0.5439 0.68321 0.22347 0.0
C442 C 0.53098 0.67877 0.17985 0.0
C443 C 0.54149 0.66789 0.2548 0.0
C444 C 0.50447 0.61543 0.28586 0.0
H445 H 0.55153 0.61823 0.3529 0.0
C446 C 0.50526 0.5513 0.39937 0.0
C447 C 0.51737 0.55782 0.44525 0.0
C448 C 0.50502 0.56546 0.36738 0.0
C449 C 0.53823 0.61733 0.33474 0.0
H450 H 0.50567 0.65473 0.13416 0.0
H451 H 0.50177 0.6278 0.18803 0.0
H452 H 0.55554 0.64371 0.29447 0.0
H453 H 0.5376 0.5843 0.49499 0.0
H454 H 0.5372 0.60876 0.43924 0.0
H455 H 0.48726 0.58862 0.32571 0.0
C456 C 0.51346 0.64321 0.19887 0.0
C457 C 0.54051 0.63198 0.30132 0.0
C458 C 0.51575 0.65861 0.16781 0.0
C459 C 0.52824 0.57869 0.45977 0.0
C460 C 0.52813 0.59276 0.4277 0.0
C461 C 0.5022 0.60059 0.31895 0.0
C462 C 0.52623 0.64766 0.24299 0.0
C463 C 0.52367 0.63142 0.27687 0.0
C464 C 0.517 0.58636 0.38055 0.0
C465 C 0.51907 0.60157 0.34422 0.0
H466 H 0.55555 0.69866 0.23419 0.0
H467 H 0.55136 0.67203 0.28893 0.0
H468 H 0.49113 0.6146 0.26824 0.0
H469 H 0.4966 0.53534 0.38718 0.0
H470 H 0.49625 0.56012 0.33127 0.0
C471 C 0.89389 0.5689 0.11977 0.0
C472 C 0.87486 0.55336 0.13089 0.0
C473 C 0.91112 0.56847 0.13635 0.0
C474 C 0.94369 0.57141 0.21062 0.0
H475 H 0.94221 0.52066 0.23161 0.0
C476 C 0.98365 0.56109 0.38211 0.0
C477 C 0.99043 0.54709 0.37988 0.0
C478 C 0.97405 0.56364 0.33958 0.0
C479 C 0.94319 0.53505 0.22512 0.0
H480 H 0.85886 0.52513 0.16752 0.0
H481 H 0.88873 0.52457 0.19741 0.0
H482 H 0.9164 0.52083 0.17585 0.0
H483 H 0.99337 0.52554 0.33019 0.0
H484 H 0.97656 0.53009 0.25539 0.0
H485 H 0.97036 0.5856 0.26029 0.0
C486 C 0.89048 0.53681 0.17468 0.0
C487 C 0.9282 0.5351 0.1937 0.0
C488 C 0.87333 0.53718 0.15785 0.0
C489 C 0.9882 0.53635 0.33328 0.0
C490 C 0.97853 0.53891 0.29049 0.0
C491 C 0.95878 0.57139 0.24161 0.0
C492 C 0.90961 0.55256 0.16468 0.0
C493 C 0.92774 0.55313 0.18813 0.0
C494 C 0.971 0.55231 0.29352 0.0
C495 C 0.95813 0.55307 0.25124 0.0
H496 H 0.89545 0.5814 0.09839 0.0
H497 H 0.92561 0.58072 0.12754 0.0
H498 H 0.94386 0.5856 0.20721 0.0
H499 H 0.98522 0.56975 0.41721 0.0
H500 H 0.96816 0.57382 0.34369 0.0
C501 C 0.33432 0.88287 0.18934 0.0
C502 C 0.32575 0.86169 0.18876 0.0
C503 C 0.35311 0.89572 0.21429 0.0
C504 C 0.38712 0.89469 0.31593 0.0
H505 H 0.42117 0.95032 0.28241 0.0
C506 C 0.45574 0.95123 0.44601 0.0
C507 C 0.45348 0.96748 0.46405 0.0
C508 C 0.44403 0.9389 0.4034 0.0
C509 C 0.41189 0.93474 0.29178 0.0
H510 H 0.33094 0.83758 0.2123 0.0
H511 H 0.36406 0.8599 0.25234 0.0
H512 H 0.39333 0.92681 0.22272 0.0
H513 H 0.43844 0.98457 0.44981 0.0
H514 H 0.41825 0.96323 0.37481 0.0
H515 H 0.40572 0.90274 0.38501 0.0
C516 C 0.35596 0.86662 0.23526 0.0
C517 C 0.39583 0.92131 0.25794 0.0
C518 C 0.33699 0.85377 0.21135 0.0
C519 C 0.44031 0.972 0.43695 0.0
C520 C 0.42891 0.95993 0.39383 0.0
C521 C 0.40338 0.908 0.34916 0.0
C522 C 0.36403 0.88775 0.23844 0.0
C523 C 0.38285 0.90127 0.27034 0.0
C524 C 0.43025 0.94294 0.37761 0.0
C525 C 0.41552 0.92826 0.33806 0.0
H526 H 0.32639 0.8896 0.17134 0.0
H527 H 0.35866 0.91187 0.2162 0.0
H528 H 0.37735 0.87956 0.32751 0.0
H529 H 0.4658 0.94744 0.4663 0.0
H530 H 0.44528 0.92585 0.39148 0.0
C531 C 0.46805 0.31186 0.32153 0.0
C532 C 0.45058 0.29802 0.29188 0.0
C533 C 0.46756 0.32504 0.35865 0.0
C534 C 0.43896 0.34998 0.38973 0.0
H535 H 0.47842 0.37192 0.50477 0.0
C536 C 0.47828 0.43286 0.4563 0.0
C537 C 0.48567 0.43954 0.50704 0.0
C538 C 0.46838 0.41233 0.44101 0.0
C539 C 0.46693 0.36573 0.47369 0.0
H540 H 0.41867 0.28664 0.27943 0.0
H541 H 0.41772 0.30949 0.34527 0.0
H542 H 0.47121 0.34043 0.45939 0.0
H543 H 0.48782 0.42981 0.58207 0.0
H544 H 0.47024 0.39361 0.55528 0.0
H545 H 0.43481 0.37536 0.40379 0.0
C546 C 0.43189 0.31033 0.33909 0.0
C547 C 0.46301 0.34781 0.44714 0.0
C548 C 0.4324 0.29716 0.30156 0.0
C549 C 0.48225 0.42511 0.54272 0.0
C550 C 0.47228 0.40441 0.52732 0.0
C551 C 0.44268 0.36774 0.41669 0.0
C552 C 0.44954 0.32461 0.36763 0.0
C553 C 0.44984 0.34037 0.40311 0.0
C554 C 0.46552 0.39784 0.47604 0.0
C555 C 0.45756 0.37644 0.45709 0.0
H556 H 0.48222 0.31261 0.31598 0.0
H557 H 0.48153 0.33603 0.3791 0.0
H558 H 0.42864 0.34469 0.35621 0.0
H559 H 0.48043 0.44354 0.42789 0.0
H560 H 0.46378 0.40795 0.40105 0.0
C561 C 0.55213 0.85794 0.89223 0.0
C562 C 0.53552 0.83903 0.90099 0.0
C563 C 0.55026 0.87068 0.85829 0.0
C564 C 0.51538 0.87088 0.75527 0.0
H565 H 0.54431 0.92885 0.78941 0.0
C566 C 0.48967 0.92664 0.69698 0.0
C567 C 0.50371 0.94483 0.6773 0.0
C568 C 0.49539 0.91306 0.71401 0.0
C569 C 0.53641 0.91272 0.77894 0.0
H570 H 0.5039 0.8187 0.87968 0.0
H571 H 0.50036 0.84125 0.82359 0.0
H572 H 0.5507 0.90668 0.84149 0.0
H573 H 0.53457 0.96303 0.65884 0.0
H574 H 0.54485 0.93941 0.69059 0.0
H575 H 0.50011 0.87703 0.6948 0.0
C576 C 0.51505 0.8461 0.84165 0.0
C577 C 0.54007 0.89996 0.80871 0.0
C578 C 0.51699 0.83327 0.8749 0.0
C579 C 0.52346 0.94896 0.67334 0.0
C580 C 0.52934 0.93557 0.69171 0.0
C581 C 0.51147 0.88362 0.72617 0.0
C582 C 0.53165 0.86497 0.83265 0.0
C583 C 0.52928 0.87879 0.79797 0.0
C584 C 0.51538 0.91766 0.71288 0.0
C585 C 0.5217 0.9046 0.73829 0.0
H586 H 0.56661 0.86306 0.91192 0.0
H587 H 0.56346 0.88496 0.85207 0.0
H588 H 0.50717 0.85476 0.74478 0.0
H589 H 0.47437 0.9232 0.70051 0.0
H590 H 0.48441 0.89944 0.73056 0.0
C591 C 0.66817 0.51282 0.98289 0.0
C592 C 0.68486 0.53246 0.98229 0.0
C593 C 0.6493 0.50855 0.96284 0.0
C594 C 0.62031 0.53282 0.92029 0.0
H595 H 0.59465 0.48737 0.81938 0.0
C596 C 0.57666 0.53291 0.742 0.0
C597 C 0.55944 0.51509 0.72224 0.0
C598 C 0.5877 0.53271 0.78482 0.0
C599 C 0.6013 0.49982 0.8483 0.0
H600 H 0.69465 0.56307 0.96104 0.0
H601 H 0.66187 0.55568 0.92654 0.0
H602 H 0.62244 0.49142 0.87582 0.0
H603 H 0.53991 0.48317 0.73269 0.0
H604 H 0.55963 0.48273 0.80767 0.0
H605 H 0.59986 0.5418 0.89089 0.0
C606 C 0.66326 0.54362 0.94312 0.0
C607 C 0.61724 0.50216 0.88062 0.0
C608 C 0.6821 0.54786 0.96288 0.0
C609 C 0.55314 0.49712 0.74714 0.0
C610 C 0.56441 0.49686 0.78986 0.0
C611 C 0.60442 0.53049 0.888 0.0
C612 C 0.64672 0.52386 0.94212 0.0
C613 C 0.62743 0.51915 0.9155 0.0
C614 C 0.58191 0.51466 0.80877 0.0
C615 C 0.59531 0.51444 0.85029 0.0
H616 H 0.66972 0.50069 0.99839 0.0
H617 H 0.63679 0.49323 0.96299 0.0
H618 H 0.62761 0.54582 0.94755 0.0
H619 H 0.58182 0.54706 0.72399 0.0
H620 H 0.60126 0.5466 0.79797 0.0
C621 C 0.14945 0.69768 0.92314 0.0
C622 C 0.14315 0.70974 0.94898 0.0
C623 C 0.13665 0.68243 0.88675 0.0
C624 C 0.08297 0.64967 0.8487 0.0
H625 H 0.10402 0.63308 0.73736 0.0
C626 C 0.04304 0.5684 0.76361 0.0
C627 C 0.04354 0.56409 0.71157 0.0
C628 C 0.05398 0.58816 0.78513 0.0
C629 C 0.09778 0.63768 0.76759 0.0
H630 H 0.11848 0.7155 0.95561 0.0
H631 H 0.09629 0.68926 0.89073 0.0
H632 H 0.12565 0.66492 0.78688 0.0
H633 H 0.05618 0.57736 0.64152 0.0
H634 H 0.0751 0.61219 0.67908 0.0
H635 H 0.05507 0.62258 0.82912 0.0
C636 C 0.11106 0.69135 0.8995 0.0
C637 C 0.11026 0.65581 0.79652 0.0
C638 C 0.12385 0.70652 0.93641 0.0
C639 C 0.05528 0.58017 0.68152 0.0
C640 C 0.06624 0.6001 0.70315 0.0
C641 C 0.07045 0.6317 0.81943 0.0
C642 C 0.11724 0.67897 0.87459 0.0
C643 C 0.10321 0.66163 0.83864 0.0
C644 C 0.06566 0.60429 0.75528 0.0
C645 C 0.07792 0.62508 0.77986 0.0
H646 H 0.16438 0.70002 0.93087 0.0
H647 H 0.14186 0.67303 0.86909 0.0
H648 H 0.07698 0.65357 0.88081 0.0
H649 H 0.03422 0.55648 0.78817 0.0
H650 H 0.05357 0.59069 0.82563 0.0
C651 C 0.50904 0.17144 0.97774 0.0
C652 C 0.50421 0.16838 0.02855 0.0
C653 C 0.51301 0.15803 0.95013 0.0
C654 C 0.50183 0.10504 0.95007 0.0
H655 H 0.53526 0.12036 0.83561 0.0
C656 C 0.50371 0.0451 0.81677 0.0
C657 C 0.49875 0.04627 0.76556 0.0
C658 C 0.50935 0.06144 0.85207 0.0
C659 C 0.52596 0.11592 0.86766 0.0
H660 H 0.50094 0.14979 0.09149 0.0
H661 H 0.50857 0.12668 0.04393 0.0
H662 H 0.53649 0.14669 0.8939 0.0
H663 H 0.49727 0.06604 0.71059 0.0
H664 H 0.50711 0.09456 0.77239 0.0
H665 H 0.49117 0.07432 0.92349 0.0
C666 C 0.50867 0.13903 0.02475 0.0
C667 C 0.52657 0.13095 0.9009 0.0
C668 C 0.50439 0.15228 0.05211 0.0
C669 C 0.50077 0.06456 0.74985 0.0
C670 C 0.50658 0.08097 0.78513 0.0
C671 C 0.50144 0.09007 0.91729 0.0
C672 C 0.51248 0.1414 0.97298 0.0
C673 C 0.51409 0.12569 0.94176 0.0
C674 C 0.51035 0.07933 0.83678 0.0
C675 C 0.51312 0.09535 0.87509 0.0
H676 H 0.50881 0.18365 0.95861 0.0
H677 H 0.51555 0.16019 0.91022 0.0
H678 H 0.49173 0.10033 0.98042 0.0
H679 H 0.50254 0.03131 0.83007 0.0
H680 H 0.51239 0.05989 0.89162 0.0
C681 C 0.33278 0.46896 0.03863 0.0
C682 C 0.31559 0.46558 0.00954 0.0
C683 C 0.34883 0.46935 0.01492 0.0
C684 C 0.3611 0.45122 0.89936 0.0
H685 H 0.41447 0.49799 0.92388 0.0
C686 C 0.42098 0.46859 0.75943 0.0
C687 C 0.44101 0.47627 0.77762 0.0
C688 C 0.40659 0.46666 0.79232 0.0
C689 C 0.39976 0.48465 0.91729 0.0
H690 H 0.30141 0.45956 0.93337 0.0
H691 H 0.32931 0.45993 0.89195 0.0
H692 H 0.38732 0.49522 0.9739 0.0
H693 H 0.46165 0.48821 0.84481 0.0
H694 H 0.43625 0.48453 0.90283 0.0
H695 H 0.3733 0.44055 0.84296 0.0
C696 C 0.33043 0.46236 0.93297 0.0
C697 C 0.38423 0.4831 0.94583 0.0
C698 C 0.31455 0.46228 0.95654 0.0
C699 C 0.44635 0.48226 0.82961 0.0
C700 C 0.43182 0.48019 0.86279 0.0
C701 C 0.37661 0.45265 0.8713 0.0
C702 C 0.34775 0.46601 0.96188 0.0
C703 C 0.36467 0.46662 0.93613 0.0
C704 C 0.41173 0.47217 0.84448 0.0
C705 C 0.39599 0.46965 0.87886 0.0
H706 H 0.33395 0.47168 0.07958 0.0
H707 H 0.36202 0.47214 0.03798 0.0
H708 H 0.34622 0.43819 0.89181 0.0
H709 H 0.41633 0.46408 0.71952 0.0
H710 H 0.3914 0.46097 0.7766 0.0
C711 C 0.84612 0.34276 0.96665 0.0
C712 C 0.83109 0.32443 0.94236 0.0
C713 C 0.8579 0.35922 0.93823 0.0
C714 C 0.86186 0.37804 0.80709 0.0
H715 H 0.91733 0.41302 0.85666 0.0
C716 C 0.92897 0.43131 0.68989 0.0
C717 C 0.94228 0.45069 0.71315 0.0
C718 C 0.91256 0.4173 0.7151 0.0
C719 C 0.9018 0.40351 0.84265 0.0
H720 H 0.81648 0.3087 0.86975 0.0
H721 H 0.83771 0.33697 0.81961 0.0
H722 H 0.8951 0.38549 0.90658 0.0
H723 H 0.94754 0.47117 0.77894 0.0
H724 H 0.91921 0.44658 0.82301 0.0
H725 H 0.86932 0.39566 0.7414 0.0
C726 C 0.84004 0.33909 0.86063 0.0
C727 C 0.88895 0.38774 0.87141 0.0
C728 C 0.82796 0.32279 0.88923 0.0
C729 C 0.93778 0.45632 0.76007 0.0
C730 C 0.92159 0.44225 0.78548 0.0
C731 C 0.87491 0.39361 0.77775 0.0
C732 C 0.85527 0.35756 0.88468 0.0
C733 C 0.86876 0.37474 0.85418 0.0
C734 C 0.90931 0.4224 0.7641 0.0
C735 C 0.89497 0.40649 0.79542 0.0
H736 H 0.84861 0.34439 0.00771 0.0
H737 H 0.86905 0.37326 0.95847 0.0
H738 H 0.84638 0.36865 0.79278 0.0
H739 H 0.93188 0.42651 0.65362 0.0
H740 H 0.90325 0.40207 0.69784 0.0
C741 C 0.84414 0.52978 0.84673 0.0
C742 C 0.84857 0.53895 0.89628 0.0
C743 C 0.85829 0.52676 0.82243 0.0
C744 C 0.9128 0.5464 0.82721 0.0
H745 H 0.89782 0.49989 0.73361 0.0
C746 C 0.9656 0.54649 0.68116 0.0
C747 C 0.96624 0.52865 0.67038 0.0
C748 C 0.95148 0.54644 0.71242 0.0
C749 C 0.90228 0.51284 0.76014 0.0
H750 H 0.87071 0.55109 0.96041 0.0
H751 H 0.89525 0.54556 0.91847 0.0
H752 H 0.87228 0.50149 0.78188 0.0
H753 H 0.95241 0.49672 0.68402 0.0
H754 H 0.92794 0.49675 0.73977 0.0
H755 H 0.94278 0.55767 0.80606 0.0
C756 C 0.88114 0.54125 0.89767 0.0
C757 C 0.88761 0.51388 0.78729 0.0
C758 C 0.8671 0.54442 0.92171 0.0
C759 C 0.9525 0.51077 0.69207 0.0
C760 C 0.93833 0.51073 0.72354 0.0
C761 C 0.92744 0.54532 0.80028 0.0
C762 C 0.87705 0.53267 0.84746 0.0
C763 C 0.89267 0.53081 0.82066 0.0
C764 C 0.93764 0.52858 0.73389 0.0
C765 C 0.92231 0.52871 0.76579 0.0
H766 H 0.82996 0.52546 0.82632 0.0
H767 H 0.85474 0.52033 0.78354 0.0
H768 H 0.91723 0.55977 0.85214 0.0
H769 H 0.97594 0.56054 0.66513 0.0
H770 H 0.95116 0.56038 0.71888 0.0
C771 C 0.28651 0.88528 0.9237 0.0
C772 C 0.2821 0.86501 0.91974 0.0
C773 C 0.29862 0.89901 0.88925 0.0
C774 C 0.32177 0.90174 0.76574 0.0
H775 H 0.36411 0.95367 0.82544 0.0
C776 C 0.40137 0.94334 0.70209 0.0
C777 C 0.41097 0.96433 0.69739 0.0
C778 C 0.38217 0.93303 0.71928 0.0
C779 C 0.35211 0.93943 0.80792 0.0
H780 H 0.28607 0.84305 0.87474 0.0
H781 H 0.30769 0.86695 0.81637 0.0
H782 H 0.33647 0.9319 0.87591 0.0
H783 H 0.40804 0.99106 0.70567 0.0
H784 H 0.37439 0.97296 0.73808 0.0
H785 H 0.33838 0.90873 0.69912 0.0
C786 C 0.30162 0.87232 0.84541 0.0
C787 C 0.33624 0.92692 0.83678 0.0
C788 C 0.28948 0.85863 0.87954 0.0
C789 C 0.40081 0.97482 0.70871 0.0
C790 C 0.38169 0.96453 0.72731 0.0
C791 C 0.33777 0.91412 0.73722 0.0
C792 C 0.3066 0.89276 0.85013 0.0
C793 C 0.32127 0.90758 0.81667 0.0
C794 C 0.37235 0.94357 0.73325 0.0
C795 C 0.3534 0.93276 0.75866 0.0
H796 H 0.28111 0.89071 0.95432 0.0
H797 H 0.30197 0.91458 0.89374 0.0
H798 H 0.31022 0.88719 0.74853 0.0
H799 H 0.40893 0.93495 0.69352 0.0
H800 H 0.37541 0.91692 0.72409 0.0
C801 C 0.4885 0.32501 0.98015 0.0
C802 C 0.47167 0.30538 0.97672 0.0
C803 C 0.48995 0.3393 0.94643 0.0
C804 C 0.47077 0.34452 0.82052 0.0
H805 H 0.49164 0.40001 0.87335 0.0
C806 C 0.46959 0.40762 0.70458 0.0
C807 C 0.48569 0.42751 0.71486 0.0
C808 C 0.46838 0.39177 0.73234 0.0
C809 C 0.48606 0.38466 0.85774 0.0
H810 H 0.44317 0.28539 0.93498 0.0
H811 H 0.44558 0.31052 0.87641 0.0
H812 H 0.48788 0.37444 0.93107 0.0
H813 H 0.51403 0.44596 0.75896 0.0
H814 H 0.51215 0.41838 0.80614 0.0
H815 H 0.4689 0.35487 0.74703 0.0
C816 C 0.45774 0.31475 0.90499 0.0
C817 C 0.48386 0.36997 0.89093 0.0
C818 C 0.45625 0.30043 0.93891 0.0
C819 C 0.50126 0.43089 0.7506 0.0
C820 C 0.50011 0.41509 0.77799 0.0
C821 C 0.47299 0.35928 0.78715 0.0
C822 C 0.47462 0.33436 0.90837 0.0
C823 C 0.47632 0.34975 0.87277 0.0
C824 C 0.4833 0.3955 0.77064 0.0
C825 C 0.48083 0.37957 0.80536 0.0
H826 H 0.50056 0.32939 0.00912 0.0
H827 H 0.50326 0.35419 0.94983 0.0
H828 H 0.46508 0.3291 0.80524 0.0
H829 H 0.45737 0.4045 0.67725 0.0
H830 H 0.45524 0.37685 0.72566 0.0
C831 C 0.14789 0.46473 0.95818 0.0
C832 C 0.14845 0.44938 0.98489 0.0
C833 C 0.13108 0.46049 0.92691 0.0
C834 C 0.0777 0.42897 0.90972 0.0
H835 H 0.08526 0.448 0.7736 0.0
C836 C 0.03264 0.44057 0.72681 0.0
C837 C 0.02582 0.45223 0.7524 0.0
C838 C 0.04422 0.43404 0.75327 0.0
C839 C 0.08277 0.44221 0.8111 0.0
H840 H 0.1315 0.41748 -0.00027 0.0
H841 H 0.10169 0.41037 0.94643 0.0
H842 H 0.11317 0.44906 0.82333 0.0
H843 H 0.02432 0.46469 0.82629 0.0
H844 H 0.04443 0.45324 0.87233 0.0
H845 H 0.04757 0.4232 0.89845 0.0
C846 C 0.11452 0.42559 0.94955 0.0
C847 C 0.09878 0.44299 0.83963 0.0
C848 C 0.13153 0.42974 0.98028 0.0
C849 C 0.02954 0.45592 0.80543 0.0
C850 C 0.0409 0.44919 0.8319 0.0
C851 C 0.06171 0.42845 0.88136 0.0
C852 C 0.11429 0.44091 0.92223 0.0
C853 C 0.09653 0.43692 0.88964 0.0
C854 C 0.04892 0.4388 0.80582 0.0
C855 C 0.06428 0.43558 0.8323 0.0
H856 H 0.16036 0.48014 0.96176 0.0
H857 H 0.13107 0.47264 0.90696 0.0
H858 H 0.07566 0.42426 0.9483 0.0
H859 H 0.02996 0.43742 0.68597 0.0
H860 H 0.05016 0.42594 0.73237 0.0
C861 C 0.66658 0.13956 0.99569 0.0
C862 C 0.67713 0.15664 0.96755 0.0
C863 C 0.64814 0.12339 0.97622 0.0
C864 C 0.60758 0.10867 0.87417 0.0
H865 H 0.60049 0.05497 0.88494 0.0
C866 C 0.56932 0.02997 0.74541 0.0
C867 C 0.5515 0.0291 0.72738 0.0
C868 C 0.58102 0.04334 0.78644 0.0
C869 C 0.6022 0.06985 0.88169 0.0
H870 H 0.67665 0.17036 0.89748 0.0
H871 H 0.64475 0.14201 0.86283 0.0
H872 H 0.6284 0.0838 0.9329 0.0
H873 H 0.53155 0.04084 0.74006 0.0
H874 H 0.55155 0.06365 0.81292 0.0
H875 H 0.5823 0.095 0.8201 0.0
C876 C 0.65039 0.14123 0.90048 0.0
C877 C 0.61808 0.08637 0.90968 0.0
C878 C 0.66873 0.15744 0.92012 0.0
C879 C 0.54504 0.04099 0.75332 0.0
C880 C 0.55667 0.05426 0.7947 0.0
C881 C 0.59182 0.09219 0.84584 0.0
C882 C 0.63995 0.12393 0.92808 0.0
C883 C 0.62134 0.10607 0.9049 0.0
C884 C 0.57513 0.05608 0.81066 0.0
C885 C 0.58935 0.07268 0.84795 0.0
H886 H 0.6726 0.13873 0.03281 0.0
H887 H 0.64036 0.11042 0.99875 0.0
H888 H 0.60941 0.12359 0.87051 0.0
H889 H 0.5747 0.02095 0.7265 0.0
H890 H 0.59526 0.04446 0.79716 0.0
C891 C 0.57069 0.70957 0.83925 0.0
C892 C 0.56878 0.7049 0.89043 0.0
C893 C 0.57158 0.69634 0.80275 0.0
C894 C 0.55099 0.6548 0.74317 0.0
H895 H 0.57986 0.62566 0.76042 0.0
C896 C 0.51861 0.56944 0.71448 0.0
C897 C 0.52739 0.56227 0.68009 0.0
C898 C 0.52702 0.59017 0.72605 0.0
C899 C 0.57203 0.63397 0.75435 0.0
H900 H 0.56775 0.68385 0.94459 0.0
H901 H 0.56977 0.66091 0.881 0.0
H902 H 0.5913 0.65783 0.81006 0.0
H903 H 0.55167 0.571 0.63037 0.0
H904 H 0.56696 0.60754 0.6526 0.0
H905 H 0.5306 0.62994 0.69124 0.0
C906 C 0.57052 0.67469 0.86898 0.0
C907 C 0.5785 0.65224 0.78278 0.0
C908 C 0.56923 0.68767 0.90525 0.0
C909 C 0.54454 0.57619 0.65668 0.0
C910 C 0.5533 0.597 0.66936 0.0
C911 C 0.54433 0.63636 0.71551 0.0
C912 C 0.57099 0.67854 0.81723 0.0
C913 C 0.56757 0.66239 0.77875 0.0
C914 C 0.54459 0.60404 0.7043 0.0
C915 C 0.55442 0.62553 0.7223 0.0
H916 H 0.57024 0.72275 0.82712 0.0
H917 H 0.57185 0.69954 0.76303 0.0
H918 H 0.54218 0.66222 0.73984 0.0
H919 H 0.50535 0.55899 0.73285 0.0
H920 H 0.52023 0.59536 0.75352 0.0
C921 C 0.46273 0.15579 0.35367 0.0
C922 C 0.47614 0.16376 0.31504 0.0
C923 C 0.4642 0.14281 0.38744 0.0
C924 C 0.4986 0.1272 0.44166 0.0
H925 H 0.45125 0.07438 0.44898 0.0
C926 C 0.49892 0.06272 0.55162 0.0
C927 C 0.49361 0.04584 0.51799 0.0
C928 C 0.49504 0.07799 0.53694 0.0
C929 C 0.46449 0.08919 0.44795 0.0
H930 H 0.50168 0.16418 0.28221 0.0
H931 H 0.50456 0.14211 0.3421 0.0
H932 H 0.4488 0.10057 0.40365 0.0
H933 H 0.47895 0.03085 0.44459 0.0
H934 H 0.47166 0.05707 0.41976 0.0
H935 H 0.5144 0.11556 0.48462 0.0
C936 C 0.49297 0.14602 0.34618 0.0
C937 C 0.46309 0.10416 0.42217 0.0
C938 C 0.49132 0.15873 0.31191 0.0
C939 C 0.48335 0.04383 0.47099 0.0
C940 C 0.47905 0.05875 0.45694 0.0
C941 C 0.49992 0.11233 0.46819 0.0
C942 C 0.47931 0.13779 0.38394 0.0
C943 C 0.48026 0.12309 0.41747 0.0
C944 C 0.48527 0.07619 0.48917 0.0
C945 C 0.483 0.093 0.47022 0.0
H946 H 0.4511 0.15962 0.35805 0.0
H947 H 0.45355 0.13673 0.41641 0.0
H948 H 0.51202 0.14173 0.43884 0.0
H949 H 0.50685 0.06455 0.58806 0.0
H950 H 0.49997 0.09134 0.56238 0.0
C951 C 0.34579 0.50287 0.27277 0.0
C952 C 0.32818 0.48446 0.25838 0.0
C953 C 0.36283 0.50291 0.29325 0.0
C954 C 0.37611 0.47027 0.3629 0.0
H955 H 0.43073 0.50838 0.33327 0.0
C956 C 0.4399 0.46512 0.4609 0.0
C957 C 0.45571 0.4834 0.4835 0.0
C958 C 0.42656 0.46526 0.42394 0.0
C959 C 0.41555 0.4977 0.342 0.0
H960 H 0.31497 0.45178 0.25098 0.0
H961 H 0.34458 0.45184 0.28676 0.0
H962 H 0.40274 0.50889 0.28722 0.0
H963 H 0.47106 0.51615 0.48234 0.0
H964 H 0.44729 0.51644 0.41865 0.0
H965 H 0.38859 0.4594 0.41843 0.0
C966 C 0.34513 0.46622 0.28333 0.0
C967 C 0.39957 0.49801 0.31572 0.0
C968 C 0.32815 0.46617 0.26303 0.0
C969 C 0.45891 0.50183 0.46561 0.0
C970 C 0.44533 0.50198 0.42903 0.0
C971 C 0.39198 0.47001 0.38912 0.0
C972 C 0.36252 0.48454 0.29955 0.0
C973 C 0.37968 0.48425 0.32597 0.0
C974 C 0.42852 0.48368 0.40948 0.0
C975 C 0.4119 0.48366 0.37901 0.0
H976 H 0.3462 0.51719 0.26957 0.0
H977 H 0.37597 0.51726 0.3058 0.0
H978 H 0.36099 0.45981 0.37253 0.0
H979 H 0.43739 0.45069 0.47324 0.0
H980 H 0.41414 0.45089 0.40838 0.0
C981 C 0.85507 0.33813 0.23958 0.0
C982 C 0.84846 0.31751 0.24521 0.0
C983 C 0.86875 0.35298 0.27568 0.0
C984 C 0.90983 0.36463 0.36621 0.0
H985 H 0.89968 0.40612 0.42254 0.0
C986 C 0.97056 0.44513 0.43841 0.0
C987 C 0.96811 0.4533 0.48432 0.0
C988 C 0.95576 0.42606 0.41803 0.0
C989 C 0.90257 0.39446 0.40772 0.0
H990 H 0.8511 0.29646 0.29392 0.0
H991 H 0.87575 0.32261 0.3556 0.0
H992 H 0.87349 0.37762 0.36836 0.0
H993 H 0.94863 0.44772 0.54593 0.0
H994 H 0.92226 0.41444 0.5091 0.0
H995 H 0.93929 0.38206 0.40341 0.0
C996 C 0.87008 0.32709 0.32329 0.0
C997 C 0.8877 0.37831 0.37648 0.0
C998 C 0.85611 0.31218 0.28767 0.0
C999 C 0.95086 0.44175 0.51044 0.0
C1000 C 0.93581 0.4228 0.48943 0.0
C1001 C 0.92484 0.38099 0.39672 0.0
C1002 C 0.87639 0.34758 0.31772 0.0
C1003 C 0.89134 0.36348 0.35478 0.0
C1004 C 0.93807 0.41496 0.44273 0.0
C1005 C 0.92143 0.3962 0.41699 0.0
H1006 H 0.84987 0.34288 0.20696 0.0
H1007 H 0.87368 0.36875 0.27023 0.0
H1008 H 0.91296 0.35338 0.34971 0.0
H1009 H 0.9838 0.45363 0.41771 0.0
H1010 H 0.95775 0.42039 0.38176 0.0
C1011 C 0.50021 0.82338 0.2203 0.0
C1012 C 0.5186 0.82384 0.2185 0.0
C1013 C 0.49739 0.83462 0.2587 0.0
C1014 C 0.51726 0.86092 0.38602 0.0
H1015 H 0.49578 0.89461 0.34213 0.0
C1016 C 0.52939 0.93239 0.50148 0.0
C1017 C 0.51504 0.93842 0.4944 0.0
C1018 C 0.52681 0.91491 0.47513 0.0
C1019 C 0.50136 0.88498 0.35549 0.0
H1020 H 0.54819 0.83587 0.25632 0.0
H1021 H 0.54335 0.85574 0.32297 0.0
H1022 H 0.49701 0.87077 0.28108 0.0
H1023 H 0.4858 0.92984 0.45896 0.0
H1024 H 0.48094 0.89902 0.4147 0.0
H1025 H 0.52192 0.87545 0.46042 0.0
C1026 C 0.5311 0.8466 0.29489 0.0
C1027 C 0.50213 0.87135 0.32031 0.0
C1028 C 0.53396 0.83547 0.25634 0.0
C1029 C 0.49728 0.92574 0.46436 0.0
C1030 C 0.49456 0.90815 0.43875 0.0
C1031 C 0.51637 0.8745 0.42143 0.0
C1032 C 0.51284 0.84642 0.29623 0.0
C1033 C 0.51039 0.85943 0.33496 0.0
C1034 C 0.50971 0.90304 0.44188 0.0
C1035 C 0.5087 0.88693 0.40636 0.0
H1036 H 0.48813 0.81459 0.19154 0.0
H1037 H 0.48312 0.83412 0.25899 0.0
H1038 H 0.52349 0.85171 0.39845 0.0
H1039 H 0.54322 0.94189 0.52448 0.0
H1040 H 0.53883 0.91148 0.47834 0.0
C1041 C 0.69896 0.54328 0.22951 0.0
C1042 C 0.71961 0.55505 0.24298 0.0
C1043 C 0.68507 0.5426 0.26251 0.0
C1044 C 0.67672 0.56946 0.3664 0.0
H1045 H 0.63218 0.51591 0.3857 0.0
C1046 C 0.60871 0.55293 0.48759 0.0
C1047 C 0.58997 0.53891 0.46295 0.0
C1048 C 0.62649 0.55644 0.4667 0.0
C1049 C 0.64452 0.53097 0.38069 0.0
H1050 H 0.74187 0.57589 0.30128 0.0
H1051 H 0.71732 0.57496 0.35889 0.0
H1052 H 0.65992 0.51929 0.33814 0.0
H1053 H 0.57537 0.51831 0.39587 0.0
H1054 H 0.60607 0.52447 0.35998 0.0
H1055 H 0.6608 0.58109 0.40775 0.0
C1056 C 0.71206 0.56617 0.32271 0.0
C1057 C 0.66037 0.53289 0.35354 0.0
C1058 C 0.72605 0.56672 0.2897 0.0
C1059 C 0.58945 0.52902 0.41639 0.0
C1060 C 0.60708 0.53245 0.39582 0.0
C1061 C 0.66071 0.56753 0.39361 0.0
C1062 C 0.69145 0.55382 0.30965 0.0
C1063 C 0.67631 0.55213 0.34474 0.0
C1064 C 0.62577 0.54587 0.42112 0.0
C1065 C 0.64417 0.54826 0.39948 0.0
H1066 H 0.69346 0.5346 0.19322 0.0
H1067 H 0.66925 0.53331 0.25102 0.0
H1068 H 0.68888 0.58447 0.3601 0.0
H1069 H 0.60963 0.56085 0.52343 0.0
H1070 H 0.64075 0.56692 0.48684 0.0
C1071 C 0.17823 0.71453 0.31545 0.0
C1072 C 0.16881 0.71432 0.26839 0.0
C1073 C 0.168 0.69959 0.34932 0.0
C1074 C 0.12624 0.64735 0.352 0.0
H1075 H 0.12794 0.66035 0.49638 0.0
C1076 C 0.08524 0.58384 0.48358 0.0
C1077 C 0.07184 0.58632 0.51342 0.0
C1078 C 0.10055 0.60039 0.46157 0.0
C1079 C 0.1274 0.6565 0.45618 0.0
H1080 H 0.14127 0.69832 0.22015 0.0
H1081 H 0.12339 0.67228 0.27929 0.0
H1082 H 0.14674 0.68751 0.44016 0.0
H1083 H 0.0655 0.60856 0.54824 0.0
H1084 H 0.09216 0.63739 0.50957 0.0
H1085 H 0.10656 0.61652 0.36733 0.0
C1086 C 0.13872 0.68395 0.28987 0.0
C1087 C 0.13823 0.67201 0.42407 0.0
C1088 C 0.14889 0.69897 0.2562 0.0
C1089 C 0.07545 0.60606 0.52516 0.0
C1090 C 0.09077 0.62263 0.50298 0.0
C1091 C 0.11556 0.63188 0.38402 0.0
C1092 C 0.1482 0.68401 0.33665 0.0
C1093 C 0.13752 0.66761 0.37149 0.0
C1094 C 0.10282 0.61979 0.4689 0.0
C1095 C 0.11583 0.63626 0.43642 0.0
H1096 H 0.19351 0.7263 0.32616 0.0
H1097 H 0.17573 0.69999 0.38495 0.0
H1098 H 0.12559 0.64343 0.31179 0.0
H1099 H 0.08312 0.56891 0.47437 0.0
H1100 H 0.10995 0.5978 0.43658 0.0
loop_
_geom_bond_atom_site_label_1
_geom_bond_atom_site_label_2
_geom_bond_distance
_geom_bond_site_symmetry_2
_ccdc_geom_bond_type
H0 C19 0.949 . S
H1 C20 0.950 . S
H2 C22 0.950 . S
H3 C23 0.950 . S
H4 C25 0.950 . S
H5 C28 0.950 . S
H6 C29 0.950 . S
H7 C31 0.951 . S
H8 C32 0.949 . S
H9 C34 0.949 . S
H10 C35 0.950 . S
H11 C37 0.950 . S
H12 C38 0.950 . S
H13 C40 0.950 . S
H14 C43 0.950 . S
H15 C44 0.950 . S
H16 C46 0.951 . S
H17 C47 0.949 . S
C18 C19 1.376 . S
C18 C23 1.386 . S
C18 C24 1.483 . S
C19 H0 0.949 . S
C19 C18 1.376 . S
C19 C20 1.397 . S
C20 H1 0.950 . S
C20 C19 1.397 . S
C20 C21 1.391 . S
C21 C20 1.391 . S
C21 C22 1.405 . S
C22 H2 0.950 . S
C22 C21 1.405 . S
C22 C23 1.367 . S
C23 H3 0.950 . S
C23 C18 1.386 . S
C23 C22 1.367 . S
C24 C18 1.483 . S
C24 C25 1.382 . S
C24 C26 1.403 . S
C25 H4 0.950 . S
C25 C24 1.382 . S
C25 C41 1.411 . S
C26 C24 1.403 . S
C26 C27 1.489 . S
C26 C40 1.411 . S
C27 C26 1.489 . S
C27 C28 1.383 . S
C27 C32 1.382 . S
C28 H5 0.950 . S
C28 C27 1.383 . S
C28 C29 1.395 . S
C29 H6 0.950 . S
C29 C28 1.395 . S
C29 C30 1.288 . S
C30 C29 1.288 . S
C30 C31 1.392 . S
C31 H7 0.951 . S
C31 C30 1.392 . S
C31 C32 1.392 . S
C32 H8 0.949 . S
C32 C27 1.382 . S
C32 C31 1.392 . S
C33 C34 1.376 . S
C33 C38 1.386 . S
C33 C39 1.483 . S
C34 H9 0.949 . S
C34 C33 1.376 . S
C34 C35 1.397 . S
C35 H10 0.950 . S
C35 C34 1.397 . S
C35 C36 1.391 . S
C36 C35 1.391 . S
C36 C37 1.405 . S
C37 H11 0.950 . S
C37 C36 1.405 . S
C37 C38 1.367 . S
C38 H12 0.950 . S
C38 C33 1.386 . S
C38 C37 1.367 . S
C39 C33 1.483 . S
C39 C40 1.382 . S
C39 C41 1.403 . S
C40 H13 0.950 . S
C40 C26 1.411 . S
C40 C39 1.382 . S
C41 C25 1.411 . S
C41 C39 1.403 . S
C41 C42 1.489 . S
C42 C41 1.489 . S
C42 C43 1.383 . S
C42 C47 1.382 . S
C43 H14 0.950 . S
C43 C42 1.383 . S
C43 C44 1.395 . S
C44 H15 0.950 . S
C44 C43 1.395 . S
C44 C45 1.288 . S
C45 C44 1.288 . S
C45 C46 1.392 . S
C46 H16 0.951 . S
C46 C45 1.392 . S
C46 C47 1.392 . S
C47 H17 0.949 . S
C47 C42 1.382 . S
C47 C46 1.392 . S
H48 C67 0.949 . S
H49 C68 0.950 . S
H50 C70 0.950 . S
H51 C71 0.950 . S
H52 C73 0.950 . S
H53 C76 0.950 . S
H54 C77 0.950 . S
H55 C79 0.951 . S
H56 C80 0.949 . S
H57 C82 0.949 . S
H58 C83 0.950 . S
H59 C85 0.950 . S
H60 C86 0.950 . S
H61 C88 0.950 . S
H62 C91 0.950 . S
H63 C92 0.950 1_554 S
H64 C94 0.951 . S
H65 C95 0.949 . S
C66 C67 1.376 . S
C66 C71 1.386 . S
C66 C72 1.483 . S
C67 H48 0.949 . S
C67 C66 1.376 . S
C67 C68 1.397 1_554 S
C68 H49 0.950 . S
C68 C67 1.397 1_556 S
C68 C69 1.391 . S
C69 C68 1.391 . S
C69 C70 1.405 1_556 S
C70 H50 0.950 . S
C70 C69 1.405 1_554 S
C70 C71 1.367 . S
C71 H51 0.950 . S
C71 C66 1.386 . S
C71 C70 1.367 . S
C72 C66 1.483 . S
C72 C73 1.382 . S
C72 C74 1.403 . S
C73 H52 0.950 . S
C73 C72 1.382 . S
C73 C89 1.411 . S
C74 C72 1.403 . S
C74 C75 1.489 . S
C74 C88 1.411 . S
C75 C74 1.489 . S
C75 C76 1.383 . S
C75 C80 1.382 . S
C76 H53 0.950 . S
C76 C75 1.383 . S
C76 C77 1.395 . S
C77 H54 0.950 . S
C77 C76 1.395 . S
C77 C78 1.288 . S
C78 C77 1.288 . S
C78 C79 1.392 . S
C79 H55 0.951 . S
C79 C78 1.392 . S
C79 C80 1.392 . S
C80 H56 0.949 . S
C80 C75 1.382 . S
C80 C79 1.392 . S
C81 C82 1.376 . S
C81 C86 1.386 . S
C81 C87 1.483 . S
C82 H57 0.949 . S
C82 C81 1.376 . S
C82 C83 1.397 . S
C83 H58 0.950 . S
C83 C82 1.397 . S
C83 C84 1.391 . S
C84 C83 1.391 . S
C84 C85 1.405 . S
C85 H59 0.950 . S
C85 C84 1.405 . S
C85 C86 1.367 . S
C86 H60 0.950 . S
C86 C81 1.386 . S
C86 C85 1.367 . S
C87 C81 1.483 . S
C87 C88 1.382 . S
C87 C89 1.403 . S
C88 H61 0.950 . S
C88 C74 1.411 . S
C88 C87 1.382 . S
C89 C73 1.411 . S
C89 C87 1.403 . S
C89 C90 1.489 . S
C90 C89 1.489 . S
C90 C91 1.383 . S
C90 C95 1.382 1_554 S
C91 H62 0.950 . S
C91 C90 1.383 . S
C91 C92 1.395 1_554 S
C92 H63 0.950 1_556 S
C92 C91 1.395 1_556 S
C92 C93 1.288 . S
C93 C92 1.288 . S
C93 C94 1.392 . S
C94 H64 0.951 . S
C94 C93 1.392 . S
C94 C95 1.392 . S
C95 H65 0.949 . S
C95 C90 1.382 1_556 S
C95 C94 1.392 . S
H96 C115 0.949 . S
H97 C116 0.950 . S
H98 C118 0.950 . S
H99 C119 0.950 . S
H100 C121 0.950 . S
H101 C124 0.950 . S
H102 C125 0.950 . S
H103 C127 0.951 . S
H104 C128 0.949 . S
H105 C130 0.949 . S
H106 C131 0.950 . S
H107 C133 0.950 . S
H108 C134 0.950 . S
H109 C136 0.950 . S
H110 C139 0.947 1_554 S
H111 C140 0.950 . S
H112 C142 0.951 . S
H113 C143 0.949 . S
C114 C115 1.376 . S
C114 C119 1.386 . S
C114 C120 1.483 1_556 S
C115 H96 0.949 . S
C115 C114 1.376 . S
C115 C116 1.397 . S
C116 H97 0.950 . S
C116 C115 1.397 . S
C116 C117 1.391 . S
C117 C116 1.391 . S
C117 C118 1.405 . S
C118 H98 0.950 . S
C118 C117 1.405 . S
C118 C119 1.367 . S
C119 H99 0.950 . S
C119 C114 1.386 . S
C119 C118 1.367 . S
C120 C114 1.483 1_554 S
C120 C121 1.382 1_554 S
C120 C122 1.403 . S
C121 H100 0.950 . S
C121 C120 1.382 1_556 S
C121 C137 1.411 1_556 S
C122 C120 1.403 . S
C122 C123 1.489 . S
C122 C136 1.411 . S
C123 C122 1.489 . S
C123 C124 1.383 . S
C123 C128 1.382 . S
C124 H101 0.950 . S
C124 C123 1.383 . S
C124 C125 1.395 . S
C125 H102 0.950 . S
C125 C124 1.395 . S
C125 C126 1.288 . S
C126 C125 1.288 . S
C126 C127 1.392 . S
C127 H103 0.951 . S
C127 C126 1.392 . S
C127 C128 1.392 . S
C128 H104 0.949 . S
C128 C123 1.382 . S
C128 C127 1.392 . S
C129 C130 1.376 . S
C129 C134 1.386 . S
C129 C135 1.483 . S
C130 H105 0.949 . S
C130 C129 1.376 . S
C130 C131 1.397 . S
C131 H106 0.950 . S
C131 C130 1.397 . S
C131 C132 1.391 . S
C132 C131 1.391 . S
C132 C133 1.405 . S
C133 H107 0.950 . S
C133 C132 1.405 . S
C133 C134 1.367 . S
C134 H108 0.950 . S
C134 C129 1.386 . S
C134 C133 1.367 . S
C135 C129 1.483 . S
C135 C136 1.382 . S
C135 C137 1.403 . S
C136 H109 0.950 . S
C136 C122 1.411 . S
C136 C135 1.382 . S
C137 C121 1.411 1_554 S
C137 C135 1.403 . S
C137 C138 1.489 1_554 S
C138 C137 1.489 1_556 S
C138 C139 1.383 . S
C138 C143 1.382 . S
C139 H110 0.947 1_556 S
C139 C138 1.383 . S
C139 C140 1.395 . S
C140 H111 0.950 . S
C140 C139 1.395 . S
C140 C141 1.288 . S
C141 C140 1.288 . S
C141 C142 1.392 . S
C142 H112 0.951 . S
C142 C141 1.392 . S
C142 C143 1.392 . S
C143 H113 0.949 . S
C143 C138 1.382 . S
C143 C142 1.392 . S
H144 C163 0.949 . S
H145 C164 0.950 . S
H146 C166 0.950 . S
H147 C167 0.950 . S
H148 C169 0.950 . S
H149 C172 0.950 . S
H150 C173 0.950 . S
H151 C175 0.951 . S
H152 C176 0.949 . S
H153 C178 0.949 . S
H154 C179 0.950 . S
H155 C181 0.950 . S
H156 C182 0.950 . S
H157 C184 0.950 . S
H158 C187 0.950 . S
H159 C188 0.950 . S
H160 C190 0.951 . S
H161 C191 0.949 . S
C162 C163 1.376 . S
C162 C167 1.386 . S
C162 C168 1.483 . S
C163 H144 0.949 . S
C163 C162 1.376 . S
C163 C164 1.397 . S
C164 H145 0.950 . S
C164 C163 1.397 . S
C164 C165 1.391 . S
C165 C164 1.391 . S
C165 C166 1.405 . S
C166 H146 0.950 . S
C166 C165 1.405 . S
C166 C167 1.367 . S
C167 H147 0.950 . S
C167 C162 1.386 . S
C167 C166 1.367 . S
C168 C162 1.483 . S
C168 C169 1.382 . S
C168 C170 1.403 1_554 S
C169 H148 0.950 . S
C169 C168 1.382 . S
C169 C185 1.411 . S
C170 C168 1.403 1_556 S
C170 C171 1.489 . S
C170 C184 1.411 . S
C171 C170 1.489 . S
C171 C172 1.383 . S
C171 C176 1.382 . S
C172 H149 0.950 . S
C172 C171 1.383 . S
C172 C173 1.395 . S
C173 H150 0.950 . S
C173 C172 1.395 . S
C173 C174 1.288 . S
C174 C173 1.288 . S
C174 C175 1.392 . S
C175 H151 0.951 . S
C175 C174 1.392 . S
C175 C176 1.392 . S
C176 H152 0.949 . S
C176 C171 1.382 . S
C176 C175 1.392 . S
C177 C178 1.376 . S
C177 C182 1.386 . S
C177 C183 1.483 . S
C178 H153 0.949 . S
C178 C177 1.376 . S
C178 C179 1.397 . S
C179 H154 0.950 . S
C179 C178 1.397 . S
C179 C180 1.391 . S
C180 C179 1.391 . S
C180 C181 1.405 . S
C181 H155 0.950 . S
C181 C180 1.405 . S
C181 C182 1.367 . S
C182 H156 0.950 . S
C182 C177 1.386 . S
C182 C181 1.367 . S
C183 C177 1.483 . S
C183 C184 1.382 . S
C183 C185 1.403 1_556 S
C184 H157 0.950 . S
C184 C170 1.411 . S
C184 C183 1.382 . S
C185 C169 1.411 . S
C185 C183 1.403 1_554 S
C185 C186 1.489 . S
C186 C185 1.489 . S
C186 C187 1.383 . S
C186 C191 1.382 . S
C187 H158 0.950 . S
C187 C186 1.383 . S
C187 C188 1.395 . S
C188 H159 0.950 . S
C188 C187 1.395 . S
C188 C189 1.288 . S
C189 C188 1.288 . S
C189 C190 1.392 . S
C190 H160 0.951 . S
C190 C189 1.392 . S
C190 C191 1.392 . S
C191 H161 0.949 . S
C191 C186 1.382 . S
C191 C190 1.392 . S
H192 C211 0.949 . S
H193 C212 0.950 . S
H194 C214 0.950 . S
H195 C215 0.950 . S
H196 C217 0.950 . S
H197 C220 0.950 . S
H198 C221 0.950 . S
H199 C223 0.951 . S
H200 C224 0.949 . S
H201 C226 0.949 . S
H202 C227 0.950 . S
H203 C229 0.950 . S
H204 C230 0.950 . S
H205 C232 0.950 . S
H206 C235 0.950 . S
H207 C236 0.950 . S
H208 C238 0.951 . S
H209 C239 0.946 1_556 S
C210 C211 1.376 . S
C210 C215 1.386 . S
C210 C216 1.483 . S
C211 H192 0.949 . S
C211 C210 1.376 . S
C211 C212 1.397 1_554 S
C212 H193 0.950 . S
C212 C211 1.397 1_556 S
C212 C213 1.391 . S
C213 C212 1.391 . S
C213 C214 1.405 1_556 S
C214 H194 0.950 . S
C214 C213 1.405 1_554 S
C214 C215 1.367 . S
C215 H195 0.950 . S
C215 C210 1.386 . S
C215 C214 1.367 . S
C216 C210 1.483 . S
C216 C217 1.382 . S
C216 C218 1.403 . S
C217 H196 0.950 . S
C217 C216 1.382 . S
C217 C233 1.411 . S
C218 C216 1.403 . S
C218 C219 1.489 . S
C218 C232 1.411 . S
C219 C218 1.489 . S
C219 C220 1.383 . S
C219 C224 1.382 . S
C220 H197 0.950 . S
C220 C219 1.383 . S
C220 C221 1.395 . S
C221 H198 0.950 . S
C221 C220 1.395 . S
C221 C222 1.288 . S
C222 C221 1.288 . S
C222 C223 1.392 . S
C223 H199 0.951 . S
C223 C222 1.392 . S
C223 C224 1.392 . S
C224 H200 0.949 . S
C224 C219 1.382 . S
C224 C223 1.392 . S
C225 C226 1.376 . S
C225 C230 1.386 . S
C225 C231 1.483 . S
C226 H201 0.949 . S
C226 C225 1.376 . S
C226 C227 1.397 . S
C227 H202 0.950 . S
C227 C226 1.397 . S
C227 C228 1.391 . S
C228 C227 1.391 . S
C228 C229 1.405 . S
C229 H203 0.950 . S
C229 C228 1.405 . S
C229 C230 1.367 . S
C230 H204 0.950 . S
C230 C225 1.386 . S
C230 C229 1.367 . S
C231 C225 1.483 . S
C231 C232 1.382 . S
C231 C233 1.403 . S
C232 H205 0.950 . S
C232 C218 1.411 . S
C232 C231 1.382 . S
C233 C217 1.411 . S
C233 C231 1.403 . S
C233 C234 1.489 . S
C234 C233 1.489 . S
C234 C235 1.383 . S
C234 C239 1.382 . S
C235 H206 0.950 . S
C235 C234 1.383 . S
C235 C236 1.395 . S
C236 H207 0.950 . S
C236 C235 1.395 . S
C236 C237 1.288 1_554 S
C237 C236 1.288 1_556 S
C237 C238 1.392 . S
C238 H208 0.951 . S
C238 C237 1.392 . S
C238 C239 1.392 1_556 S
C239 H209 0.946 1_554 S
C239 C234 1.382 . S
C239 C238 1.392 1_554 S
H240 C259 0.949 . S
H241 C260 0.950 . S
H242 C262 0.950 . S
H243 C263 0.950 . S
H244 C265 0.950 . S
H245 C268 0.950 . S
H246 C269 0.950 . S
H247 C271 0.951 . S
H248 C272 0.949 . S
H249 C274 0.949 . S
H250 C275 0.950 . S
H251 C277 0.950 . S
H252 C278 0.950 . S
H253 C280 0.950 . S
H254 C283 0.950 . S
H255 C284 0.950 . S
H256 C286 0.951 . S
H257 C287 0.949 . S
C258 C259 1.376 . S
C258 C263 1.386 . S
C258 C264 1.483 . S
C259 H240 0.949 . S
C259 C258 1.376 . S
C259 C260 1.397 . S
C260 H241 0.950 . S
C260 C259 1.397 . S
C260 C261 1.391 . S
C261 C260 1.391 . S
C261 C262 1.405 . S
C262 H242 0.950 . S
C262 C261 1.405 . S
C262 C263 1.367 . S
C263 H243 0.950 . S
C263 C258 1.386 . S
C263 C262 1.367 . S
C264 C258 1.483 . S
C264 C265 1.382 . S
C264 C266 1.403 . S
C265 H244 0.950 . S
C265 C264 1.382 . S
C265 C281 1.411 . S
C266 C264 1.403 . S
C266 C267 1.489 . S
C266 C280 1.411 . S
C267 C266 1.489 . S
C267 C268 1.383 . S
C267 C272 1.382 . S
C268 H245 0.950 . S
C268 C267 1.383 . S
C268 C269 1.395 . S
C269 H246 0.950 . S
C269 C268 1.395 . S
C269 C270 1.288 . S
C270 C269 1.288 . S
C270 C271 1.392 . S
C271 H247 0.951 . S
C271 C270 1.392 . S
C271 C272 1.392 . S
C272 H248 0.949 . S
C272 C267 1.382 . S
C272 C271 1.392 . S
C273 C274 1.376 . S
C273 C278 1.386 . S
C273 C279 1.483 . S
C274 H249 0.949 . S
C274 C273 1.376 . S
C274 C275 1.397 . S
C275 H250 0.950 . S
C275 C274 1.397 . S
C275 C276 1.391 . S
C276 C275 1.391 . S
C276 C277 1.405 . S
C277 H251 0.950 . S
C277 C276 1.405 . S
C277 C278 1.367 . S
C278 H252 0.950 . S
C278 C273 1.386 . S
C278 C277 1.367 . S
C279 C273 1.483 . S
C279 C280 1.382 . S
C279 C281 1.403 . S
C280 H253 0.950 . S
C280 C266 1.411 . S
C280 C279 1.382 . S
C281 C265 1.411 . S
C281 C279 1.403 . S
C281 C282 1.489 . S
C282 C281 1.489 . S
C282 C283 1.383 . S
C282 C287 1.382 . S
C283 H254 0.950 . S
C283 C282 1.383 . S
C283 C284 1.395 . S
C284 H255 0.950 . S
C284 C283 1.395 . S
C284 C285 1.288 . S
C285 C284 1.288 . S
C285 C286 1.392 . S
C286 H256 0.951 . S
C286 C285 1.392 . S
C286 C287 1.392 . S
C287 H257 0.949 . S
C287 C282 1.382 . S
C287 C286 1.392 . S
C288 O315 1.312 . S
C288 O316 1.208 . S
C289 O310 1.331 . S
C289 O313 1.244 . S
C290 O312 1.264 . S
C290 O314 1.273 . S
Mg291 O293 1.936 1_455 S
Mg291 O300 2.081 1_455 S
Mg291 O302 2.023 . S
Mg291 O306 2.031 1_455 S
Mg291 O315 2.291 . S
Mg292 O293 1.940 . S
Mg292 O303 1.970 . S
Mg292 O304 1.918 1_655 S
Mg292 O311 2.010 . S
O293 Mg291 1.936 1_655 S
O293 Mg292 1.940 . S
O293 Mg294 1.915 1_655 S
Mg294 O293 1.915 1_455 S
Mg294 O295 1.915 . S
Mg294 O299 2.013 . S
Mg294 O305 2.114 1_455 S
Mg294 O309 2.013 1_455 S
Mg294 O315 2.114 . S
O295 Mg294 1.915 . S
O295 Mg296 1.936 . S
O295 Mg297 1.963 . S
Mg296 O295 1.936 . S
Mg296 O305 2.291 1_455 S
Mg296 O310 2.081 . S
Mg296 O312 2.023 1_455 S
Mg296 O316 2.031 . S
Mg297 O295 1.963 . S
Mg297 O301 1.986 . S
Mg297 O313 1.942 . S
Mg297 O314 1.955 1_455 S
C298 O309 1.191 . S
C298 O311 1.307 . S
O299 Mg294 2.013 . S
O299 C318 1.191 . S
O300 Mg291 2.081 1_655 S
O300 C308 1.331 . S
O301 Mg297 1.986 . S
O301 C318 1.307 . S
O302 Mg291 2.023 . S
O302 C317 1.264 . S
O303 Mg292 1.970 . S
O303 C308 1.244 . S
O304 Mg292 1.918 1_455 S
O304 C317 1.273 . S
O305 Mg294 2.114 1_655 S
O305 Mg296 2.291 1_655 S
O305 C307 1.312 . S
O306 Mg291 2.031 1_655 S
O306 C307 1.208 . S
C307 O305 1.312 . S
C307 O306 1.208 . S
C308 O300 1.331 . S
C308 O303 1.244 . S
O309 Mg294 2.013 1_655 S
O309 C298 1.191 . S
O310 C289 1.331 . S
O310 Mg296 2.081 . S
O311 Mg292 2.010 . S
O311 C298 1.307 . S
O312 C290 1.264 . S
O312 Mg296 2.023 1_655 S
O313 C289 1.244 . S
O313 Mg297 1.942 . S
O314 C290 1.273 . S
O314 Mg297 1.955 1_655 S
O315 C288 1.312 . S
O315 Mg291 2.291 . S
O315 Mg294 2.114 . S
O316 C288 1.208 . S
O316 Mg296 2.031 . S
C317 O302 1.264 . S
C317 O304 1.273 . S
C318 O299 1.191 . S
C318 O301 1.307 . S
C319 O346 1.312 . S
C319 O347 1.208 . S
C320 O341 1.331 . S
C320 O344 1.244 . S
C321 O343 1.264 . S
C321 O345 1.273 . S
Mg322 O324 1.936 1_545 S
Mg322 O331 2.081 1_545 S
Mg322 O333 2.023 . S
Mg322 O337 2.031 1_545 S
Mg322 O346 2.291 . S
Mg323 O324 1.963 . S
Mg323 O334 1.942 . S
Mg323 O335 1.955 1_565 S
Mg323 O342 1.986 . S
O324 Mg322 1.936 1_565 S
O324 Mg323 1.963 . S
O324 Mg325 1.915 1_565 S
Mg325 O324 1.915 1_545 S
Mg325 O326 1.915 . S
Mg325 O330 2.013 . S
Mg325 O336 2.114 1_545 S
Mg325 O340 2.013 1_545 S
Mg325 O346 2.114 . S
O326 Mg325 1.915 . S
O326 Mg327 1.936 . S
O326 Mg328 1.963 . S
Mg327 O326 1.936 . S
Mg327 O336 2.291 1_545 S
Mg327 O341 2.081 . S
Mg327 O343 2.023 1_545 S
Mg327 O347 2.031 . S
Mg328 O326 1.963 . S
Mg328 O332 1.986 . S
Mg328 O344 1.942 . S
Mg328 O345 1.955 1_545 S
C329 O340 1.191 . S
C329 O342 1.307 . S
O330 Mg325 2.013 . S
O330 C349 1.191 . S
O331 Mg322 2.081 1_565 S
O331 C339 1.331 . S
O332 Mg328 1.986 . S
O332 C349 1.307 . S
O333 Mg322 2.023 . S
O333 C348 1.264 . S
O334 Mg323 1.942 . S
O334 C339 1.244 . S
O335 Mg323 1.955 1_545 S
O335 C348 1.273 . S
O336 Mg325 2.114 1_565 S
O336 Mg327 2.291 1_565 S
O336 C338 1.312 . S
O337 Mg322 2.031 1_565 S
O337 C338 1.208 . S
C338 O336 1.312 . S
C338 O337 1.208 . S
C339 O331 1.331 . S
C339 O334 1.244 . S
O340 Mg325 2.013 1_565 S
O340 C329 1.191 . S
O341 C320 1.331 . S
O341 Mg327 2.081 . S
O342 Mg323 1.986 . S
O342 C329 1.307 . S
O343 C321 1.264 . S
O343 Mg327 2.023 1_565 S
O344 C320 1.244 . S
O344 Mg328 1.942 . S
O345 C321 1.273 . S
O345 Mg328 1.955 1_565 S
O346 C319 1.312 . S
O346 Mg322 2.291 . S
O346 Mg325 2.114 . S
O347 C319 1.208 . S
O347 Mg327 2.031 . S
C348 O333 1.264 . S
C348 O335 1.273 . S
C349 O330 1.191 . S
C349 O332 1.307 . S
C350 O377 1.312 . S
C350 O378 1.208 . S
C351 O372 1.331 . S
C351 O375 1.244 . S
C352 O374 1.264 . S
C352 O376 1.273 . S
Mg353 O355 1.936 . S
Mg353 O362 2.081 . S
Mg353 O364 2.023 . S
Mg353 O368 2.031 . S
Mg353 O377 2.291 . S
Mg354 O355 1.963 . S
Mg354 O365 1.942 . S
Mg354 O366 1.955 . S
Mg354 O373 1.986 . S
O355 Mg353 1.936 . S
O355 Mg354 1.963 . S
O355 Mg356 1.915 . S
Mg356 O355 1.915 . S
Mg356 O357 1.915 . S
Mg356 O361 2.013 . S
Mg356 O367 2.114 . S
Mg356 O371 2.013 . S
Mg356 O377 2.114 . S
O357 Mg356 1.915 . S
O357 Mg358 1.936 . S
O357 Mg359 1.963 . S
Mg358 O357 1.936 . S
Mg358 O367 2.291 . S
Mg358 O372 2.081 . S
Mg358 O374 2.023 . S
Mg358 O378 2.031 . S
Mg359 O357 1.963 . S
Mg359 O363 1.986 . S
Mg359 O375 1.942 . S
Mg359 O376 1.955 . S
C360 O371 1.191 . S
C360 O373 1.307 . S
O361 Mg356 2.013 . S
O361 C380 1.191 . S
O362 Mg353 2.081 . S
O362 C370 1.331 . S
O363 Mg359 1.986 . S
O363 C380 1.307 . S
O364 Mg353 2.023 . S
O364 C379 1.264 . S
O365 Mg354 1.942 . S
O365 C370 1.244 . S
O366 Mg354 1.955 . S
O366 C379 1.273 . S
O367 Mg356 2.114 . S
O367 Mg358 2.291 . S
O367 C369 1.312 . S
O368 Mg353 2.031 . S
O368 C369 1.208 . S
C369 O367 1.312 . S
C369 O368 1.208 . S
C370 O362 1.331 . S
C370 O365 1.244 . S
O371 Mg356 2.013 . S
O371 C360 1.191 . S
O372 C351 1.331 . S
O372 Mg358 2.081 . S
O373 Mg354 1.986 . S
O373 C360 1.307 . S
O374 C352 1.264 . S
O374 Mg358 2.023 . S
O375 C351 1.244 . S
O375 Mg359 1.942 . S
O376 C352 1.273 . S
O376 Mg359 1.955 . S
O377 C350 1.312 . S
O377 Mg353 2.291 . S
O377 Mg356 2.114 . S
O378 C350 1.208 . S
O378 Mg358 2.031 . S
C379 O364 1.264 . S
C379 O366 1.273 . S
C380 O361 1.191 . S
C380 O363 1.307 . S
C381 C382 1.349 . S
C381 C383 1.327 . S
C381 H406 0.950 . S
C382 C381 1.349 . S
C382 C398 1.349 . S
C383 C381 1.327 . S
C383 C402 1.429 . S
C383 H407 0.950 . S
C384 C401 1.574 . S
C384 C403 1.368 . S
C384 H408 0.949 . S
H385 C389 0.949 . S
C386 C387 1.349 . S
C386 C388 1.327 . S
C386 H409 0.950 . S
C387 C386 1.349 . S
C387 C399 1.349 . S
C388 C386 1.327 . S
C388 C404 1.429 . S
C388 H410 0.950 . S
C389 H385 0.949 . S
C389 C397 1.574 . S
C389 C405 1.368 . S
H390 C398 0.950 . S
H391 C396 0.950 . S
H392 C397 0.949 . S
H393 C399 0.950 . S
H394 C400 0.950 . S
H395 C401 0.949 . S
C396 H391 0.950 . S
C396 C398 1.327 . S
C396 C402 1.429 . S
C397 C389 1.574 . S
C397 H392 0.949 . S
C397 C403 1.368 . S
C398 C382 1.349 . S
C398 H390 0.950 . S
C398 C396 1.327 . S
C399 C387 1.349 . S
C399 H393 0.950 . S
C399 C400 1.327 . S
C400 H394 0.950 . S
C400 C399 1.327 . S
C400 C404 1.429 . S
C401 C384 1.574 . S
C401 H395 0.949 . S
C401 C405 1.368 . S
C402 C383 1.429 . S
C402 C396 1.429 . S
C402 C403 1.523 . S
C403 C384 1.368 . S
C403 C397 1.368 . S
C403 C402 1.523 . S
C404 C388 1.429 . S
C404 C400 1.429 . S
C404 C405 1.523 . S
C405 C389 1.368 . S
C405 C401 1.368 . S
C405 C404 1.523 . S
H406 C381 0.950 . S
H407 C383 0.950 . S
H408 C384 0.949 . S
H409 C386 0.950 . S
H410 C388 0.950 . S
C411 C412 1.349 . S
C411 C413 1.327 . S
C411 H436 0.950 . S
C412 C411 1.349 . S
C412 C428 1.349 . S
C413 C411 1.327 . S
C413 C432 1.429 . S
C413 H437 0.950 . S
C414 C431 1.574 . S
C414 C433 1.368 . S
C414 H438 0.949 . S
H415 C419 0.949 . S
C416 C417 1.349 . S
C416 C418 1.327 . S
C416 H439 0.950 . S
C417 C416 1.349 . S
C417 C429 1.349 . S
C418 C416 1.327 . S
C418 C434 1.429 . S
C418 H440 0.950 . S
C419 H415 0.949 . S
C419 C427 1.574 . S
C419 C435 1.368 . S
H420 C428 0.950 . S
H421 C426 0.950 . S
H422 C427 0.949 . S
H423 C429 0.950 . S
H424 C430 0.950 . S
H425 C431 0.949 . S
C426 H421 0.950 . S
C426 C428 1.327 . S
C426 C432 1.429 . S
C427 C419 1.574 . S
C427 H422 0.949 . S
C427 C433 1.368 . S
C428 C412 1.349 . S
C428 H420 0.950 . S
C428 C426 1.327 . S
C429 C417 1.349 . S
C429 H423 0.950 . S
C429 C430 1.327 . S
C430 H424 0.950 . S
C430 C429 1.327 . S
C430 C434 1.429 . S
C431 C414 1.574 . S
C431 H425 0.949 . S
C431 C435 1.368 . S
C432 C413 1.429 . S
C432 C426 1.429 . S
C432 C433 1.523 . S
C433 C414 1.368 . S
C433 C427 1.368 . S
C433 C432 1.523 . S
C434 C418 1.429 . S
C434 C430 1.429 . S
C434 C435 1.523 . S
C435 C419 1.368 . S
C435 C431 1.368 . S
C435 C434 1.523 . S
H436 C411 0.950 . S
H437 C413 0.950 . S
H438 C414 0.949 . S
H439 C416 0.950 . S
H440 C418 0.950 . S
C441 C442 1.349 . S
C441 C443 1.327 . S
C441 H466 0.950 . S
C442 C441 1.349 . S
C442 C458 1.349 . S
C443 C441 1.327 . S
C443 C462 1.429 . S
C443 H467 0.950 . S
C444 C461 1.574 . S
C444 C463 1.368 . S
C444 H468 0.949 . S
H445 C449 0.949 . S
C446 C447 1.349 . S
C446 C448 1.327 . S
C446 H469 0.950 . S
C447 C446 1.349 . S
C447 C459 1.349 . S
C448 C446 1.327 . S
C448 C464 1.429 . S
C448 H470 0.950 . S
C449 H445 0.949 . S
C449 C457 1.574 . S
C449 C465 1.368 . S
H450 C458 0.950 . S
H451 C456 0.950 . S
H452 C457 0.949 . S
H453 C459 0.950 . S
H454 C460 0.950 . S
H455 C461 0.949 . S
C456 H451 0.950 . S
C456 C458 1.327 . S
C456 C462 1.429 . S
C457 C449 1.574 . S
C457 H452 0.949 . S
C457 C463 1.368 . S
C458 C442 1.349 . S
C458 H450 0.950 . S
C458 C456 1.327 . S
C459 C447 1.349 . S
C459 H453 0.950 . S
C459 C460 1.327 . S
C460 H454 0.950 . S
C460 C459 1.327 . S
C460 C464 1.429 . S
C461 C444 1.574 . S
C461 H455 0.949 . S
C461 C465 1.368 . S
C462 C443 1.429 . S
C462 C456 1.429 . S
C462 C463 1.523 . S
C463 C444 1.368 . S
C463 C457 1.368 . S
C463 C462 1.523 . S
C464 C448 1.429 . S
C464 C460 1.429 . S
C464 C465 1.523 . S
C465 C449 1.368 . S
C465 C461 1.368 . S
C465 C464 1.523 . S
H466 C441 0.950 . S
H467 C443 0.950 . S
H468 C444 0.949 . S
H469 C446 0.950 . S
H470 C448 0.950 . S
C471 C472 1.349 . S
C471 C473 1.327 . S
C471 H496 0.950 . S
C472 C471 1.349 . S
C472 C488 1.349 . S
C473 C471 1.327 . S
C473 C492 1.429 . S
C473 H497 0.950 . S
C474 C491 1.574 . S
C474 C493 1.368 . S
C474 H498 0.949 . S
H475 C479 0.949 . S
C476 C477 1.349 . S
C476 C478 1.327 . S
C476 H499 0.950 . S
C477 C476 1.349 . S
C477 C489 1.349 . S
C478 C476 1.327 . S
C478 C494 1.429 . S
C478 H500 0.950 . S
C479 H475 0.949 . S
C479 C487 1.574 . S
C479 C495 1.368 . S
H480 C488 0.950 . S
H481 C486 0.950 . S
H482 C487 0.949 . S
H483 C489 0.950 . S
H484 C490 0.950 . S
H485 C491 0.949 . S
C486 H481 0.950 . S
C486 C488 1.327 . S
C486 C492 1.429 . S
C487 C479 1.574 . S
C487 H482 0.949 . S
C487 C493 1.368 . S
C488 C472 1.349 . S
C488 H480 0.950 . S
C488 C486 1.327 . S
C489 C477 1.349 . S
C489 H483 0.950 . S
C489 C490 1.327 . S
C490 H484 0.950 . S
C490 C489 1.327 . S
C490 C494 1.429 . S
C491 C474 1.574 . S
C491 H485 0.949 . S
C491 C495 1.368 . S
C492 C473 1.429 . S
C492 C486 1.429 . S
C492 C493 1.523 . S
C493 C474 1.368 . S
C493 C487 1.368 . S
C493 C492 1.523 . S
C494 C478 1.429 . S
C494 C490 1.429 . S
C494 C495 1.523 . S
C495 C479 1.368 . S
C495 C491 1.368 . S
C495 C494 1.523 . S
H496 C471 0.950 . S
H497 C473 0.950 . S
H498 C474 0.949 . S
H499 C476 0.950 . S
H500 C478 0.950 . S
C501 C502 1.349 . S
C501 C503 1.327 . S
C501 H526 0.950 . S
C502 C501 1.349 . S
C502 C518 1.349 . S
C503 C501 1.327 . S
C503 C522 1.429 . S
C503 H527 0.950 . S
C504 C521 1.574 . S
C504 C523 1.368 . S
C504 H528 0.949 . S
H505 C509 0.949 . S
C506 C507 1.349 . S
C506 C508 1.327 . S
C506 H529 0.950 . S
C507 C506 1.349 . S
C507 C519 1.349 . S
C508 C506 1.327 . S
C508 C524 1.429 . S
C508 H530 0.950 . S
C509 H505 0.949 . S
C509 C517 1.574 . S
C509 C525 1.368 . S
H510 C518 0.950 . S
H511 C516 0.950 . S
H512 C517 0.949 . S
H513 C519 0.950 . S
H514 C520 0.950 . S
H515 C521 0.949 . S
C516 H511 0.950 . S
C516 C518 1.327 . S
C516 C522 1.429 . S
C517 C509 1.574 . S
C517 H512 0.949 . S
C517 C523 1.368 . S
C518 C502 1.349 . S
C518 H510 0.950 . S
C518 C516 1.327 . S
C519 C507 1.349 . S
C519 H513 0.950 . S
C519 C520 1.327 . S
C520 H514 0.950 . S
C520 C519 1.327 . S
C520 C524 1.429 . S
C521 C504 1.574 . S
C521 H515 0.949 . S
C521 C525 1.368 . S
C522 C503 1.429 . S
C522 C516 1.429 . S
C522 C523 1.523 . S
C523 C504 1.368 . S
C523 C517 1.368 . S
C523 C522 1.523 . S
C524 C508 1.429 . S
C524 C520 1.429 . S
C524 C525 1.523 . S
C525 C509 1.368 . S
C525 C521 1.368 . S
C525 C524 1.523 . S
H526 C501 0.950 . S
H527 C503 0.950 . S
H528 C504 0.949 . S
H529 C506 0.950 . S
H530 C508 0.950 . S
C531 C532 1.349 . S
C531 C533 1.327 . S
C531 H556 0.950 . S
C532 C531 1.349 . S
C532 C548 1.349 . S
C533 C531 1.327 . S
C533 C552 1.429 . S
C533 H557 0.950 . S
C534 C551 1.574 . S
C534 C553 1.368 . S
C534 H558 0.949 . S
H535 C539 0.949 . S
C536 C537 1.349 . S
C536 C538 1.327 . S
C536 H559 0.950 . S
C537 C536 1.349 . S
C537 C549 1.349 . S
C538 C536 1.327 . S
C538 C554 1.429 . S
C538 H560 0.950 . S
C539 H535 0.949 . S
C539 C547 1.574 . S
C539 C555 1.368 . S
H540 C548 0.950 . S
H541 C546 0.950 . S
H542 C547 0.949 . S
H543 C549 0.950 . S
H544 C550 0.950 . S
H545 C551 0.949 . S
C546 H541 0.950 . S
C546 C548 1.327 . S
C546 C552 1.429 . S
C547 C539 1.574 . S
C547 H542 0.949 . S
C547 C553 1.368 . S
C548 C532 1.349 . S
C548 H540 0.950 . S
C548 C546 1.327 . S
C549 C537 1.349 . S
C549 H543 0.950 . S
C549 C550 1.327 . S
C550 H544 0.950 . S
C550 C549 1.327 . S
C550 C554 1.429 . S
C551 C534 1.574 . S
C551 H545 0.949 . S
C551 C555 1.368 . S
C552 C533 1.429 . S
C552 C546 1.429 . S
C552 C553 1.523 . S
C553 C534 1.368 . S
C553 C547 1.368 . S
C553 C552 1.523 . S
C554 C538 1.429 . S
C554 C550 1.429 . S
C554 C555 1.523 . S
C555 C539 1.368 . S
C555 C551 1.368 . S
C555 C554 1.523 . S
H556 C531 0.950 . S
H557 C533 0.950 . S
H558 C534 0.949 . S
H559 C536 0.950 . S
H560 C538 0.950 . S
C561 C562 1.349 . S
C561 C563 1.327 . S
C561 H586 0.950 . S
C562 C561 1.349 . S
C562 C578 1.349 . S
C563 C561 1.327 . S
C563 C582 1.429 . S
C563 H587 0.950 . S
C564 C581 1.574 . S
C564 C583 1.368 . S
C564 H588 0.949 . S
H565 C569 0.949 . S
C566 C567 1.349 . S
C566 C568 1.327 . S
C566 H589 0.950 . S
C567 C566 1.349 . S
C567 C579 1.349 . S
C568 C566 1.327 . S
C568 C584 1.429 . S
C568 H590 0.950 . S
C569 H565 0.949 . S
C569 C577 1.574 . S
C569 C585 1.368 . S
H570 C578 0.950 . S
H571 C576 0.950 . S
H572 C577 0.949 . S
H573 C579 0.950 . S
H574 C580 0.950 . S
H575 C581 0.949 . S
C576 H571 0.950 . S
C576 C578 1.327 . S
C576 C582 1.429 . S
C577 C569 1.574 . S
C577 H572 0.949 . S
C577 C583 1.368 . S
C578 C562 1.349 . S
C578 H570 0.950 . S
C578 C576 1.327 . S
C579 C567 1.349 . S
C579 H573 0.950 . S
C579 C580 1.327 . S
C580 H574 0.950 . S
C580 C579 1.327 . S
C580 C584 1.429 . S
C581 C564 1.574 . S
C581 H575 0.949 . S
C581 C585 1.368 . S
C582 C563 1.429 . S
C582 C576 1.429 . S
C582 C583 1.523 . S
C583 C564 1.368 . S
C583 C577 1.368 . S
C583 C582 1.523 . S
C584 C568 1.429 . S
C584 C580 1.429 . S
C584 C585 1.523 . S
C585 C569 1.368 . S
C585 C581 1.368 . S
C585 C584 1.523 . S
H586 C561 0.950 . S
H587 C563 0.950 . S
H588 C564 0.949 . S
H589 C566 0.950 . S
H590 C568 0.950 . S
C591 C592 1.349 . S
C591 C593 1.327 . S
C591 H616 0.950 . S
C592 C591 1.349 . S
C592 C608 1.349 . S
C593 C591 1.327 . S
C593 C612 1.429 . S
C593 H617 0.950 . S
C594 C611 1.574 . S
C594 C613 1.368 . S
C594 H618 0.949 . S
H595 C599 0.949 . S
C596 C597 1.349 . S
C596 C598 1.327 . S
C596 H619 0.950 . S
C597 C596 1.349 . S
C597 C609 1.349 . S
C598 C596 1.327 . S
C598 C614 1.429 . S
C598 H620 0.950 . S
C599 H595 0.949 . S
C599 C607 1.574 . S
C599 C615 1.368 . S
H600 C608 0.950 . S
H601 C606 0.950 . S
H602 C607 0.949 . S
H603 C609 0.950 . S
H604 C610 0.950 . S
H605 C611 0.949 . S
C606 H601 0.950 . S
C606 C608 1.327 . S
C606 C612 1.429 . S
C607 C599 1.574 . S
C607 H602 0.949 . S
C607 C613 1.368 . S
C608 C592 1.349 . S
C608 H600 0.950 . S
C608 C606 1.327 . S
C609 C597 1.349 . S
C609 H603 0.950 . S
C609 C610 1.327 . S
C610 H604 0.950 . S
C610 C609 1.327 . S
C610 C614 1.429 . S
C611 C594 1.574 . S
C611 H605 0.949 . S
C611 C615 1.368 . S
C612 C593 1.429 . S
C612 C606 1.429 . S
C612 C613 1.523 . S
C613 C594 1.368 . S
C613 C607 1.368 . S
C613 C612 1.523 . S
C614 C598 1.429 . S
C614 C610 1.429 . S
C614 C615 1.523 . S
C615 C599 1.368 . S
C615 C611 1.368 . S
C615 C614 1.523 . S
H616 C591 0.950 . S
H617 C593 0.950 . S
H618 C594 0.949 . S
H619 C596 0.950 . S
H620 C598 0.950 . S
C621 C622 1.349 . S
C621 C623 1.327 . S
C621 H646 0.950 . S
C622 C621 1.349 . S
C622 C638 1.349 . S
C623 C621 1.327 . S
C623 C642 1.429 . S
C623 H647 0.950 . S
C624 C641 1.574 . S
C624 C643 1.368 . S
C624 H648 0.949 . S
H625 C629 0.949 . S
C626 C627 1.349 . S
C626 C628 1.327 . S
C626 H649 0.950 . S
C627 C626 1.349 . S
C627 C639 1.349 . S
C628 C626 1.327 . S
C628 C644 1.429 . S
C628 H650 0.950 . S
C629 H625 0.949 . S
C629 C637 1.574 . S
C629 C645 1.368 . S
H630 C638 0.950 . S
H631 C636 0.950 . S
H632 C637 0.949 . S
H633 C639 0.950 . S
H634 C640 0.950 . S
H635 C641 0.949 . S
C636 H631 0.950 . S
C636 C638 1.327 . S
C636 C642 1.429 . S
C637 C629 1.574 . S
C637 H632 0.949 . S
C637 C643 1.368 . S
C638 C622 1.349 . S
C638 H630 0.950 . S
C638 C636 1.327 . S
C639 C627 1.349 . S
C639 H633 0.950 . S
C639 C640 1.327 . S
C640 H634 0.950 . S
C640 C639 1.327 . S
C640 C644 1.429 . S
C641 C624 1.574 . S
C641 H635 0.949 . S
C641 C645 1.368 . S
C642 C623 1.429 . S
C642 C636 1.429 . S
C642 C643 1.523 . S
C643 C624 1.368 . S
C643 C637 1.368 . S
C643 C642 1.523 . S
C644 C628 1.429 . S
C644 C640 1.429 . S
C644 C645 1.523 . S
C645 C629 1.368 . S
C645 C641 1.368 . S
C645 C644 1.523 . S
H646 C621 0.950 . S
H647 C623 0.950 . S
H648 C624 0.949 . S
H649 C626 0.950 . S
H650 C628 0.950 . S
C651 C652 1.349 1_556 S
C651 C653 1.327 . S
C651 H676 0.950 . S
C652 C651 1.349 1_554 S
C652 C668 1.349 . S
C653 C651 1.327 . S
C653 C672 1.429 . S
C653 H677 0.950 . S
C654 C671 1.574 . S
C654 C673 1.368 . S
C654 H678 0.949 . S
H655 C659 0.949 . S
C656 C657 1.349 . S
C656 C658 1.327 . S
C656 H679 0.950 . S
C657 C656 1.349 . S
C657 C669 1.349 . S
C658 C656 1.327 . S
C658 C674 1.429 . S
C658 H680 0.950 . S
C659 H655 0.949 . S
C659 C667 1.574 . S
C659 C675 1.368 . S
H660 C668 0.950 . S
H661 C666 0.950 . S
H662 C667 0.949 . S
H663 C669 0.950 . S
H664 C670 0.950 . S
H665 C671 0.949 . S
C666 H661 0.950 . S
C666 C668 1.327 1_556 S
C666 C672 1.429 . S
C667 C659 1.574 . S
C667 H662 0.949 . S
C667 C673 1.368 . S
C668 C652 1.349 . S
C668 H660 0.950 . S
C668 C666 1.327 1_554 S
C669 C657 1.349 . S
C669 H663 0.950 . S
C669 C670 1.327 . S
C670 H664 0.950 . S
C670 C669 1.327 . S
C670 C674 1.429 . S
C671 C654 1.574 . S
C671 H665 0.949 . S
C671 C675 1.368 . S
C672 C653 1.429 . S
C672 C666 1.429 . S
C672 C673 1.523 . S
C673 C654 1.368 . S
C673 C667 1.368 . S
C673 C672 1.523 . S
C674 C658 1.429 . S
C674 C670 1.429 . S
C674 C675 1.523 . S
C675 C659 1.368 . S
C675 C671 1.368 . S
C675 C674 1.523 . S
H676 C651 0.950 . S
H677 C653 0.950 . S
H678 C654 0.949 . S
H679 C656 0.950 . S
H680 C658 0.950 . S
C681 C682 1.349 . S
C681 C683 1.327 . S
C681 H706 0.950 . S
C682 C681 1.349 . S
C682 C698 1.349 1_554 S
C683 C681 1.327 . S
C683 C702 1.429 1_554 S
C683 H707 0.950 . S
C684 C701 1.574 . S
C684 C703 1.368 . S
C684 H708 0.949 . S
H685 C689 0.949 . S
C686 C687 1.349 . S
C686 C688 1.327 . S
C686 H709 0.950 . S
C687 C686 1.349 . S
C687 C699 1.349 . S
C688 C686 1.327 . S
C688 C704 1.429 . S
C688 H710 0.950 . S
C689 H685 0.949 . S
C689 C697 1.574 . S
C689 C705 1.368 . S
H690 C698 0.950 . S
H691 C696 0.950 . S
H692 C697 0.949 . S
H693 C699 0.950 . S
H694 C700 0.950 . S
H695 C701 0.949 . S
C696 H691 0.950 . S
C696 C698 1.327 . S
C696 C702 1.429 . S
C697 C689 1.574 . S
C697 H692 0.949 . S
C697 C703 1.368 . S
C698 C682 1.349 1_556 S
C698 H690 0.950 . S
C698 C696 1.327 . S
C699 C687 1.349 . S
C699 H693 0.950 . S
C699 C700 1.327 . S
C700 H694 0.950 . S
C700 C699 1.327 . S
C700 C704 1.429 . S
C701 C684 1.574 . S
C701 H695 0.949 . S
C701 C705 1.368 . S
C702 C683 1.429 1_556 S
C702 C696 1.429 . S
C702 C703 1.523 . S
C703 C684 1.368 . S
C703 C697 1.368 . S
C703 C702 1.523 . S
C704 C688 1.429 . S
C704 C700 1.429 . S
C704 C705 1.523 . S
C705 C689 1.368 . S
C705 C701 1.368 . S
C705 C704 1.523 . S
H706 C681 0.950 . S
H707 C683 0.950 . S
H708 C684 0.949 . S
H709 C686 0.950 . S
H710 C688 0.950 . S
C711 C712 1.349 . S
C711 C713 1.327 . S
C711 H736 0.950 . S
C712 C711 1.349 . S
C712 C728 1.349 . S
C713 C711 1.327 . S
C713 C732 1.429 . S
C713 H737 0.950 . S
C714 C731 1.574 . S
C714 C733 1.368 . S
C714 H738 0.949 . S
H715 C719 0.949 . S
C716 C717 1.349 . S
C716 C718 1.327 . S
C716 H739 0.950 . S
C717 C716 1.349 . S
C717 C729 1.349 . S
C718 C716 1.327 . S
C718 C734 1.429 . S
C718 H740 0.950 . S
C719 H715 0.949 . S
C719 C727 1.574 . S
C719 C735 1.368 . S
H720 C728 0.950 . S
H721 C726 0.950 . S
H722 C727 0.949 . S
H723 C729 0.950 . S
H724 C730 0.950 . S
H725 C731 0.949 . S
C726 H721 0.950 . S
C726 C728 1.327 . S
C726 C732 1.429 . S
C727 C719 1.574 . S
C727 H722 0.949 . S
C727 C733 1.368 . S
C728 C712 1.349 . S
C728 H720 0.950 . S
C728 C726 1.327 . S
C729 C717 1.349 . S
C729 H723 0.950 . S
C729 C730 1.327 . S
C730 H724 0.950 . S
C730 C729 1.327 . S
C730 C734 1.429 . S
C731 C714 1.574 . S
C731 H725 0.949 . S
C731 C735 1.368 . S
C732 C713 1.429 . S
C732 C726 1.429 . S
C732 C733 1.523 . S
C733 C714 1.368 . S
C733 C727 1.368 . S
C733 C732 1.523 . S
C734 C718 1.429 . S
C734 C730 1.429 . S
C734 C735 1.523 . S
C735 C719 1.368 . S
C735 C731 1.368 . S
C735 C734 1.523 . S
H736 C711 0.950 . S
H737 C713 0.950 . S
H738 C714 0.949 . S
H739 C716 0.950 . S
H740 C718 0.950 . S
C741 C742 1.349 . S
C741 C743 1.327 . S
C741 H766 0.950 . S
C742 C741 1.349 . S
C742 C758 1.349 . S
C743 C741 1.327 . S
C743 C762 1.429 . S
C743 H767 0.950 . S
C744 C761 1.574 . S
C744 C763 1.368 . S
C744 H768 0.949 . S
H745 C749 0.949 . S
C746 C747 1.349 . S
C746 C748 1.327 . S
C746 H769 0.950 . S
C747 C746 1.349 . S
C747 C759 1.349 . S
C748 C746 1.327 . S
C748 C764 1.429 . S
C748 H770 0.950 . S
C749 H745 0.949 . S
C749 C757 1.574 . S
C749 C765 1.368 . S
H750 C758 0.950 . S
H751 C756 0.950 . S
H752 C757 0.949 . S
H753 C759 0.950 . S
H754 C760 0.950 . S
H755 C761 0.949 . S
C756 H751 0.950 . S
C756 C758 1.327 . S
C756 C762 1.429 . S
C757 C749 1.574 . S
C757 H752 0.949 . S
C757 C763 1.368 . S
C758 C742 1.349 . S
C758 H750 0.950 . S
C758 C756 1.327 . S
C759 C747 1.349 . S
C759 H753 0.950 . S
C759 C760 1.327 . S
C760 H754 0.950 . S
C760 C759 1.327 . S
C760 C764 1.429 . S
C761 C744 1.574 . S
C761 H755 0.949 . S
C761 C765 1.368 . S
C762 C743 1.429 . S
C762 C756 1.429 . S
C762 C763 1.523 . S
C763 C744 1.368 . S
C763 C757 1.368 . S
C763 C762 1.523 . S
C764 C748 1.429 . S
C764 C760 1.429 . S
C764 C765 1.523 . S
C765 C749 1.368 . S
C765 C761 1.368 . S
C765 C764 1.523 . S
H766 C741 0.950 . S
H767 C743 0.950 . S
H768 C744 0.949 . S
H769 C746 0.950 . S
H770 C748 0.950 . S
C771 C772 1.349 . S
C771 C773 1.327 . S
C771 H796 0.950 . S
C772 C771 1.349 . S
C772 C788 1.349 . S
C773 C771 1.327 . S
C773 C792 1.429 . S
C773 H797 0.950 . S
C774 C791 1.574 . S
C774 C793 1.368 . S
C774 H798 0.949 . S
H775 C779 0.949 . S
C776 C777 1.349 . S
C776 C778 1.327 . S
C776 H799 0.950 . S
C777 C776 1.349 . S
C777 C789 1.349 . S
C778 C776 1.327 . S
C778 C794 1.429 . S
C778 H800 0.950 . S
C779 H775 0.949 . S
C779 C787 1.574 . S
C779 C795 1.368 . S
H780 C788 0.950 . S
H781 C786 0.950 . S
H782 C787 0.949 . S
H783 C789 0.950 . S
H784 C790 0.950 . S
H785 C791 0.949 . S
C786 H781 0.950 . S
C786 C788 1.327 . S
C786 C792 1.429 . S
C787 C779 1.574 . S
C787 H782 0.949 . S
C787 C793 1.368 . S
C788 C772 1.349 . S
C788 H780 0.950 . S
C788 C786 1.327 . S
C789 C777 1.349 . S
C789 H783 0.950 . S
C789 C790 1.327 . S
C790 H784 0.950 . S
C790 C789 1.327 . S
C790 C794 1.429 . S
C791 C774 1.574 . S
C791 H785 0.949 . S
C791 C795 1.368 . S
C792 C773 1.429 . S
C792 C786 1.429 . S
C792 C793 1.523 . S
C793 C774 1.368 . S
C793 C787 1.368 . S
C793 C792 1.523 . S
C794 C778 1.429 . S
C794 C790 1.429 . S
C794 C795 1.523 . S
C795 C779 1.368 . S
C795 C791 1.368 . S
C795 C794 1.523 . S
H796 C771 0.950 . S
H797 C773 0.950 . S
H798 C774 0.949 . S
H799 C776 0.950 . S
H800 C778 0.950 . S
C801 C802 1.349 1_554 S
C801 C803 1.327 1_554 S
C801 H826 0.950 . S
C802 C801 1.349 1_556 S
C802 C818 1.349 . S
C803 C801 1.327 1_556 S
C803 C822 1.429 . S
C803 H827 0.950 . S
C804 C821 1.574 . S
C804 C823 1.368 . S
C804 H828 0.949 . S
H805 C809 0.949 . S
C806 C807 1.349 . S
C806 C808 1.327 . S
C806 H829 0.950 . S
C807 C806 1.349 . S
C807 C819 1.349 . S
C808 C806 1.327 . S
C808 C824 1.429 . S
C808 H830 0.950 . S
C809 H805 0.949 . S
C809 C817 1.574 . S
C809 C825 1.368 . S
H810 C818 0.950 . S
H811 C816 0.950 . S
H812 C817 0.949 . S
H813 C819 0.950 . S
H814 C820 0.950 . S
H815 C821 0.949 . S
C816 H811 0.950 . S
C816 C818 1.327 . S
C816 C822 1.429 . S
C817 C809 1.574 . S
C817 H812 0.949 . S
C817 C823 1.368 . S
C818 C802 1.349 . S
C818 H810 0.950 . S
C818 C816 1.327 . S
C819 C807 1.349 . S
C819 H813 0.950 . S
C819 C820 1.327 . S
C820 H814 0.950 . S
C820 C819 1.327 . S
C820 C824 1.429 . S
C821 C804 1.574 . S
C821 H815 0.949 . S
C821 C825 1.368 . S
C822 C803 1.429 . S
C822 C816 1.429 . S
C822 C823 1.523 . S
C823 C804 1.368 . S
C823 C817 1.368 . S
C823 C822 1.523 . S
C824 C808 1.429 . S
C824 C820 1.429 . S
C824 C825 1.523 . S
C825 C809 1.368 . S
C825 C821 1.368 . S
C825 C824 1.523 . S
H826 C801 0.950 . S
H827 C803 0.950 . S
H828 C804 0.949 . S
H829 C806 0.950 . S
H830 C808 0.950 . S
C831 C832 1.349 1_556 S
C831 C833 1.327 . S
C831 H856 0.950 1_556 S
C832 C831 1.349 1_554 S
C832 C848 1.349 . S
C833 C831 1.327 . S
C833 C852 1.429 . S
C833 H857 0.950 . S
C834 C851 1.574 . S
C834 C853 1.368 . S
C834 H858 0.949 . S
H835 C839 0.949 . S
C836 C837 1.349 . S
C836 C838 1.327 . S
C836 H859 0.950 . S
C837 C836 1.349 . S
C837 C849 1.349 . S
C838 C836 1.327 . S
C838 C854 1.429 . S
C838 H860 0.950 . S
C839 H835 0.949 . S
C839 C847 1.574 . S
C839 C855 1.368 . S
H840 C848 0.950 . S
H841 C846 0.950 . S
H842 C847 0.949 . S
H843 C849 0.950 . S
H844 C850 0.950 . S
H845 C851 0.949 . S
C846 H841 0.950 . S
C846 C848 1.327 1_556 S
C846 C852 1.429 . S
C847 C839 1.574 . S
C847 H842 0.949 . S
C847 C853 1.368 . S
C848 C832 1.349 . S
C848 H840 0.950 . S
C848 C846 1.327 1_554 S
C849 C837 1.349 . S
C849 H843 0.950 . S
C849 C850 1.327 . S
C850 H844 0.950 . S
C850 C849 1.327 . S
C850 C854 1.429 . S
C851 C834 1.574 . S
C851 H845 0.949 . S
C851 C855 1.368 . S
C852 C833 1.429 . S
C852 C846 1.429 . S
C852 C853 1.523 . S
C853 C834 1.368 . S
C853 C847 1.368 . S
C853 C852 1.523 . S
C854 C838 1.429 . S
C854 C850 1.429 . S
C854 C855 1.523 . S
C855 C839 1.368 . S
C855 C851 1.368 . S
C855 C854 1.523 . S
H856 C831 0.950 1_554 S
H857 C833 0.950 . S
H858 C834 0.949 . S
H859 C836 0.950 . S
H860 C838 0.950 . S
C861 C862 1.349 . S
C861 C863 1.327 . S
C861 H886 0.950 . S
C862 C861 1.349 . S
C862 C878 1.349 . S
C863 C861 1.327 . S
C863 C882 1.429 . S
C863 H887 0.950 . S
C864 C881 1.574 . S
C864 C883 1.368 . S
C864 H888 0.949 . S
H865 C869 0.949 . S
C866 C867 1.349 . S
C866 C868 1.327 . S
C866 H889 0.950 . S
C867 C866 1.349 . S
C867 C879 1.349 . S
C868 C866 1.327 . S
C868 C884 1.429 . S
C868 H890 0.950 . S
C869 H865 0.949 . S
C869 C877 1.574 . S
C869 C885 1.368 . S
H870 C878 0.950 . S
H871 C876 0.950 . S
H872 C877 0.949 . S
H873 C879 0.950 . S
H874 C880 0.950 . S
H875 C881 0.949 . S
C876 H871 0.950 . S
C876 C878 1.327 . S
C876 C882 1.429 . S
C877 C869 1.574 . S
C877 H872 0.949 . S
C877 C883 1.368 . S
C878 C862 1.349 . S
C878 H870 0.950 . S
C878 C876 1.327 . S
C879 C867 1.349 . S
C879 H873 0.950 . S
C879 C880 1.327 . S
C880 H874 0.950 . S
C880 C879 1.327 . S
C880 C884 1.429 . S
C881 C864 1.574 . S
C881 H875 0.949 . S
C881 C885 1.368 . S
C882 C863 1.429 . S
C882 C876 1.429 . S
C882 C883 1.523 . S
C883 C864 1.368 . S
C883 C877 1.368 . S
C883 C882 1.523 . S
C884 C868 1.429 . S
C884 C880 1.429 . S
C884 C885 1.523 . S
C885 C869 1.368 . S
C885 C881 1.368 . S
C885 C884 1.523 . S
H886 C861 0.950 . S
H887 C863 0.950 . S
H888 C864 0.949 . S
H889 C866 0.950 . S
H890 C868 0.950 . S
C891 C892 1.349 . S
C891 C893 1.327 . S
C891 H916 0.950 . S
C892 C891 1.349 . S
C892 C908 1.349 . S
C893 C891 1.327 . S
C893 C912 1.429 . S
C893 H917 0.950 . S
C894 C911 1.574 . S
C894 C913 1.368 . S
C894 H918 0.949 . S
H895 C899 0.949 . S
C896 C897 1.349 . S
C896 C898 1.327 . S
C896 H919 0.950 . S
C897 C896 1.349 . S
C897 C909 1.349 . S
C898 C896 1.327 . S
C898 C914 1.429 . S
C898 H920 0.950 . S
C899 H895 0.949 . S
C899 C907 1.574 . S
C899 C915 1.368 . S
H900 C908 0.950 . S
H901 C906 0.950 . S
H902 C907 0.949 . S
H903 C909 0.950 . S
H904 C910 0.950 . S
H905 C911 0.949 . S
C906 H901 0.950 . S
C906 C908 1.327 . S
C906 C912 1.429 . S
C907 C899 1.574 . S
C907 H902 0.949 . S
C907 C913 1.368 . S
C908 C892 1.349 . S
C908 H900 0.950 . S
C908 C906 1.327 . S
C909 C897 1.349 . S
C909 H903 0.950 . S
C909 C910 1.327 . S
C910 H904 0.950 . S
C910 C909 1.327 . S
C910 C914 1.429 . S
C911 C894 1.574 . S
C911 H905 0.949 . S
C911 C915 1.368 . S
C912 C893 1.429 . S
C912 C906 1.429 . S
C912 C913 1.523 . S
C913 C894 1.368 . S
C913 C907 1.368 . S
C913 C912 1.523 . S
C914 C898 1.429 . S
C914 C910 1.429 . S
C914 C915 1.523 . S
C915 C899 1.368 . S
C915 C911 1.368 . S
C915 C914 1.523 . S
H916 C891 0.950 . S
H917 C893 0.950 . S
H918 C894 0.949 . S
H919 C896 0.950 . S
H920 C898 0.950 . S
C921 C922 1.349 . S
C921 C923 1.327 . S
C921 H946 0.950 . S
C922 C921 1.349 . S
C922 C938 1.349 . S
C923 C921 1.327 . S
C923 C942 1.429 . S
C923 H947 0.950 . S
C924 C941 1.574 . S
C924 C943 1.368 . S
C924 H948 0.949 . S
H925 C929 0.949 . S
C926 C927 1.349 . S
C926 C928 1.327 . S
C926 H949 0.950 . S
C927 C926 1.349 . S
C927 C939 1.349 . S
C928 C926 1.327 . S
C928 C944 1.429 . S
C928 H950 0.950 . S
C929 H925 0.949 . S
C929 C937 1.574 . S
C929 C945 1.368 . S
H930 C938 0.950 . S
H931 C936 0.950 . S
H932 C937 0.949 . S
H933 C939 0.950 . S
H934 C940 0.950 . S
H935 C941 0.949 . S
C936 H931 0.950 . S
C936 C938 1.327 . S
C936 C942 1.429 . S
C937 C929 1.574 . S
C937 H932 0.949 . S
C937 C943 1.368 . S
C938 C922 1.349 . S
C938 H930 0.950 . S
C938 C936 1.327 . S
C939 C927 1.349 . S
C939 H933 0.950 . S
C939 C940 1.327 . S
C940 H934 0.950 . S
C940 C939 1.327 . S
C940 C944 1.429 . S
C941 C924 1.574 . S
C941 H935 0.949 . S
C941 C945 1.368 . S
C942 C923 1.429 . S
C942 C936 1.429 . S
C942 C943 1.523 . S
C943 C924 1.368 . S
C943 C937 1.368 . S
C943 C942 1.523 . S
C944 C928 1.429 . S
C944 C940 1.429 . S
C944 C945 1.523 . S
C945 C929 1.368 . S
C945 C941 1.368 . S
C945 C944 1.523 . S
H946 C921 0.950 . S
H947 C923 0.950 . S
H948 C924 0.949 . S
H949 C926 0.950 . S
H950 C928 0.950 . S
C951 C952 1.349 . S
C951 C953 1.327 . S
C951 H976 0.950 . S
C952 C951 1.349 . S
C952 C968 1.349 . S
C953 C951 1.327 . S
C953 C972 1.429 . S
C953 H977 0.950 . S
C954 C971 1.574 . S
C954 C973 1.368 . S
C954 H978 0.949 . S
H955 C959 0.949 . S
C956 C957 1.349 . S
C956 C958 1.327 . S
C956 H979 0.950 . S
C957 C956 1.349 . S
C957 C969 1.349 . S
C958 C956 1.327 . S
C958 C974 1.429 . S
C958 H980 0.950 . S
C959 H955 0.949 . S
C959 C967 1.574 . S
C959 C975 1.368 . S
H960 C968 0.950 . S
H961 C966 0.950 . S
H962 C967 0.949 . S
H963 C969 0.950 . S
H964 C970 0.950 . S
H965 C971 0.949 . S
C966 H961 0.950 . S
C966 C968 1.327 . S
C966 C972 1.429 . S
C967 C959 1.574 . S
C967 H962 0.949 . S
C967 C973 1.368 . S
C968 C952 1.349 . S
C968 H960 0.950 . S
C968 C966 1.327 . S
C969 C957 1.349 . S
C969 H963 0.950 . S
C969 C970 1.327 . S
C970 H964 0.950 . S
C970 C969 1.327 . S
C970 C974 1.429 . S
C971 C954 1.574 . S
C971 H965 0.949 . S
C971 C975 1.368 . S
C972 C953 1.429 . S
C972 C966 1.429 . S
C972 C973 1.523 . S
C973 C954 1.368 . S
C973 C967 1.368 . S
C973 C972 1.523 . S
C974 C958 1.429 . S
C974 C970 1.429 . S
C974 C975 1.523 . S
C975 C959 1.368 . S
C975 C971 1.368 . S
C975 C974 1.523 . S
H976 C951 0.950 . S
H977 C953 0.950 . S
H978 C954 0.949 . S
H979 C956 0.950 . S
H980 C958 0.950 . S
C981 C982 1.349 . S
C981 C983 1.327 . S
C981 H1006 0.950 . S
C982 C981 1.349 . S
C982 C998 1.349 . S
C983 C981 1.327 . S
C983 C1002 1.429 . S
C983 H1007 0.950 . S
C984 C1001 1.574 . S
C984 C1003 1.368 . S
C984 H1008 0.949 . S
H985 C989 0.949 . S
C986 C987 1.349 . S
C986 C988 1.327 . S
C986 H1009 0.950 . S
C987 C986 1.349 . S
C987 C999 1.349 . S
C988 C986 1.327 . S
C988 C1004 1.429 . S
C988 H1010 0.950 . S
C989 H985 0.949 . S
C989 C997 1.574 . S
C989 C1005 1.368 . S
H990 C998 0.950 . S
H991 C996 0.950 . S
H992 C997 0.949 . S
H993 C999 0.950 . S
H994 C1000 0.950 . S
H995 C1001 0.949 . S
C996 H991 0.950 . S
C996 C998 1.327 . S
C996 C1002 1.429 . S
C997 C989 1.574 . S
C997 H992 0.949 . S
C997 C1003 1.368 . S
C998 C982 1.349 . S
C998 H990 0.950 . S
C998 C996 1.327 . S
C999 C987 1.349 . S
C999 H993 0.950 . S
C999 C1000 1.327 . S
C1000 H994 0.950 . S
C1000 C999 1.327 . S
C1000 C1004 1.429 . S
C1001 C984 1.574 . S
C1001 H995 0.949 . S
C1001 C1005 1.368 . S
C1002 C983 1.429 . S
C1002 C996 1.429 . S
C1002 C1003 1.523 . S
C1003 C984 1.368 . S
C1003 C997 1.368 . S
C1003 C1002 1.523 . S
C1004 C988 1.429 . S
C1004 C1000 1.429 . S
C1004 C1005 1.523 . S
C1005 C989 1.368 . S
C1005 C1001 1.368 . S
C1005 C1004 1.523 . S
H1006 C981 0.950 . S
H1007 C983 0.950 . S
H1008 C984 0.949 . S
H1009 C986 0.950 . S
H1010 C988 0.950 . S
C1011 C1012 1.349 . S
C1011 C1013 1.327 . S
C1011 H1036 0.950 . S
C1012 C1011 1.349 . S
C1012 C1028 1.349 . S
C1013 C1011 1.327 . S
C1013 C1032 1.429 . S
C1013 H1037 0.950 . S
C1014 C1031 1.574 . S
C1014 C1033 1.368 . S
C1014 H1038 0.949 . S
H1015 C1019 0.949 . S
C1016 C1017 1.349 . S
C1016 C1018 1.327 . S
C1016 H1039 0.950 . S
C1017 C1016 1.349 . S
C1017 C1029 1.349 . S
C1018 C1016 1.327 . S
C1018 C1034 1.429 . S
C1018 H1040 0.950 . S
C1019 H1015 0.949 . S
C1019 C1027 1.574 . S
C1019 C1035 1.368 . S
H1020 C1028 0.950 . S
H1021 C1026 0.950 . S
H1022 C1027 0.949 . S
H1023 C1029 0.950 . S
H1024 C1030 0.950 . S
H1025 C1031 0.949 . S
C1026 H1021 0.950 . S
C1026 C1028 1.327 . S
C1026 C1032 1.429 . S
C1027 C1019 1.574 . S
C1027 H1022 0.949 . S
C1027 C1033 1.368 . S
C1028 C1012 1.349 . S
C1028 H1020 0.950 . S
C1028 C1026 1.327 . S
C1029 C1017 1.349 . S
C1029 H1023 0.950 . S
C1029 C1030 1.327 . S
C1030 H1024 0.950 . S
C1030 C1029 1.327 . S
C1030 C1034 1.429 . S
C1031 C1014 1.574 . S
C1031 H1025 0.949 . S
C1031 C1035 1.368 . S
C1032 C1013 1.429 . S
C1032 C1026 1.429 . S
C1032 C1033 1.523 . S
C1033 C1014 1.368 . S
C1033 C1027 1.368 . S
C1033 C1032 1.523 . S
C1034 C1018 1.429 . S
C1034 C1030 1.429 . S
C1034 C1035 1.523 . S
C1035 C1019 1.368 . S
C1035 C1031 1.368 . S
C1035 C1034 1.523 . S
H1036 C1011 0.950 . S
H1037 C1013 0.950 . S
H1038 C1014 0.949 . S
H1039 C1016 0.950 . S
H1040 C1018 0.950 . S
C1041 C1042 1.349 . S
C1041 C1043 1.327 . S
C1041 H1066 0.950 . S
C1042 C1041 1.349 . S
C1042 C1058 1.349 . S
C1043 C1041 1.327 . S
C1043 C1062 1.429 . S
C1043 H1067 0.950 . S
C1044 C1061 1.574 . S
C1044 C1063 1.368 . S
C1044 H1068 0.949 . S
H1045 C1049 0.949 . S
C1046 C1047 1.349 . S
C1046 C1048 1.327 . S
C1046 H1069 0.950 . S
C1047 C1046 1.349 . S
C1047 C1059 1.349 . S
C1048 C1046 1.327 . S
C1048 C1064 1.429 . S
C1048 H1070 0.950 . S
C1049 H1045 0.949 . S
C1049 C1057 1.574 . S
C1049 C1065 1.368 . S
H1050 C1058 0.950 . S
H1051 C1056 0.950 . S
H1052 C1057 0.949 . S
H1053 C1059 0.950 . S
H1054 C1060 0.950 . S
H1055 C1061 0.949 . S
C1056 H1051 0.950 . S
C1056 C1058 1.327 . S
C1056 C1062 1.429 . S
C1057 C1049 1.574 . S
C1057 H1052 0.949 . S
C1057 C1063 1.368 . S
C1058 C1042 1.349 . S
C1058 H1050 0.950 . S
C1058 C1056 1.327 . S
C1059 C1047 1.349 . S
C1059 H1053 0.950 . S
C1059 C1060 1.327 . S
C1060 H1054 0.950 . S
C1060 C1059 1.327 . S
C1060 C1064 1.429 . S
C1061 C1044 1.574 . S
C1061 H1055 0.949 . S
C1061 C1065 1.368 . S
C1062 C1043 1.429 . S
C1062 C1056 1.429 . S
C1062 C1063 1.523 . S
C1063 C1044 1.368 . S
C1063 C1057 1.368 . S
C1063 C1062 1.523 . S
C1064 C1048 1.429 . S
C1064 C1060 1.429 . S
C1064 C1065 1.523 . S
C1065 C1049 1.368 . S
C1065 C1061 1.368 . S
C1065 C1064 1.523 . S
H1066 C1041 0.950 . S
H1067 C1043 0.950 . S
H1068 C1044 0.949 . S
H1069 C1046 0.950 . S
H1070 C1048 0.950 . S
C1071 C1072 1.349 . S
C1071 C1073 1.327 . S
C1071 H1096 0.950 . S
C1072 C1071 1.349 . S
C1072 C1088 1.349 . S
C1073 C1071 1.327 . S
C1073 C1092 1.429 . S
C1073 H1097 0.950 . S
C1074 C1091 1.574 . S
C1074 C1093 1.368 . S
C1074 H1098 0.949 . S
H1075 C1079 0.949 . S
C1076 C1077 1.349 . S
C1076 C1078 1.327 . S
C1076 H1099 0.950 . S
C1077 C1076 1.349 . S
C1077 C1089 1.349 . S
C1078 C1076 1.327 . S
C1078 C1094 1.429 . S
C1078 H1100 0.950 . S
C1079 H1075 0.949 . S
C1079 C1087 1.574 . S
C1079 C1095 1.368 . S
H1080 C1088 0.950 . S
H1081 C1086 0.950 . S
H1082 C1087 0.949 . S
H1083 C1089 0.950 . S
H1084 C1090 0.950 . S
H1085 C1091 0.949 . S
C1086 H1081 0.950 . S
C1086 C1088 1.327 . S
C1086 C1092 1.429 . S
C1087 C1079 1.574 . S
C1087 H1082 0.949 . S
C1087 C1093 1.368 . S
C1088 C1072 1.349 . S
C1088 H1080 0.950 . S
C1088 C1086 1.327 . S
C1089 C1077 1.349 . S
C1089 H1083 0.950 . S
C1089 C1090 1.327 . S
C1090 H1084 0.950 . S
C1090 C1089 1.327 . S
C1090 C1094 1.429 . S
C1091 C1074 1.574 . S
C1091 H1085 0.949 . S
C1091 C1095 1.368 . S
C1092 C1073 1.429 . S
C1092 C1086 1.429 . S
C1092 C1093 1.523 . S
C1093 C1074 1.368 . S
C1093 C1087 1.368 . S
C1093 C1092 1.523 . S
C1094 C1078 1.429 . S
C1094 C1090 1.429 . S
C1094 C1095 1.523 . S
C1095 C1079 1.368 . S
C1095 C1091 1.368 . S
C1095 C1094 1.523 . S
H1096 C1071 0.950 . S
H1097 C1073 0.950 . S
H1098 C1074 0.949 . S
H1099 C1076 0.950 . S
H1100 C1078 0.950 . S
C382 C45 1.771 . S
C387 C288 1.672 . S
C412 C84 1.648 . S
C417 C320 1.616 . S
C447 C379 2.012 . S
C442 C126 2.031 . S
C477 C308 1.502 . S
C472 C165 1.527 . S
C502 C222 1.611 . S
C507 C338 1.555 . S
C537 C360 1.162 . S
C532 C276 1.177 . S
C567 C329 1.656 . S
C562 C141 1.698 . S
C592 C180 1.254 . S
C597 C369 1.198 . S
C627 C318 1.542 . S
C622 C237 1.587 . S
C652 C261 1.598 . S
C657 C348 1.570 . S
C682 C30 1.955 . S
C687 C351 1.938 . S
C717 C290 1.685 . S
C712 C69 1.705 . S
C747 C298 1.600 . S
C742 C174 1.662 . S
C777 C339 1.608 . S
C772 C213 1.639 . S
C807 C352 2.033 . S
C802 C285 2.052 1_556 S
C837 C289 1.540 . S
C832 C36 1.565 . S
C867 C349 1.507 . S
C862 C93 1.527 . S
C892 C117 1.200 . S
C897 C350 1.163 . S
C927 C319 1.599 . S
C922 C270 1.674 . S
C957 C380 1.165 . S
C952 C21 1.196 . S
C987 C307 1.514 . S
C982 C78 1.591 . S
C1017 C321 1.624 . S
C1012 C132 1.652 . S
C1042 C189 1.961 . S
C1047 C370 1.944 . S
C1072 C228 1.725 . S
C1077 C317 1.704 . S
