# Generated by pormake.
# Topology zzz, (3,6)-cn, num edge types: 1
# Building blocks:
#     Node 0, Type 0, BuildingBlock: VETTIZ_charged_linker_0, # of connection points: 3
#     Node 1, Type 0, BuildingBlock: VETTIZ_charged_linker_0, # of connection points: 3
#     Node 2, Type 0, BuildingBlock: VETTIZ_charged_linker_0, # of connection points: 3
#     Node 3, Type 0, BuildingBlock: VETTIZ_charged_linker_0, # of connection points: 3
#     Node 4, Type 0, BuildingBlock: VETTIZ_charged_linker_0, # of connection points: 3
#     Node 5, Type 0, BuildingBlock: VETTIZ_charged_linker_0, # of connection points: 3
#     Node 6, Type 0, BuildingBlock: VETTIZ_charged_linker_0, # of connection points: 3
#     Node 7, Type 0, BuildingBlock: VETTIZ_charged_linker_0, # of connection points: 3
#     Node 8, Type 1, BuildingBlock: BETGAK_clean_sbu_0, # of connection points: 6
#     Node 9, Type 1, BuildingBlock: BETGAK_clean_sbu_0, # of connection points: 6
#     Node 10, Type 1, BuildingBlock: BETGAK_clean_sbu_0, # of connection points: 6
#     Node 11, Type 1, BuildingBlock: BETGAK_clean_sbu_0, # of connection points: 6
#     Edge 12, Type (0, 1), BuildingBlock: XIVTED_clean_linker_0, # of connection points: 2
#     Edge 13, Type (0, 1), BuildingBlock: XIVTED_clean_linker_0, # of connection points: 2
#     Edge 14, Type (0, 1), BuildingBlock: XIVTED_clean_linker_0, # of connection points: 2
#     Edge 15, Type (0, 1), BuildingBlock: XIVTED_clean_linker_0, # of connection points: 2
#     Edge 16, Type (0, 1), BuildingBlock: XIVTED_clean_linker_0, # of connection points: 2
#     Edge 17, Type (0, 1), BuildingBlock: XIVTED_clean_linker_0, # of connection points: 2
#     Edge 18, Type (0, 1), BuildingBlock: XIVTED_clean_linker_0, # of connection points: 2
#     Edge 19, Type (0, 1), BuildingBlock: XIVTED_clean_linker_0, # of connection points: 2
#     Edge 20, Type (0, 1), BuildingBlock: XIVTED_clean_linker_0, # of connection points: 2
#     Edge 21, Type (0, 1), BuildingBlock: XIVTED_clean_linker_0, # of connection points: 2
#     Edge 22, Type (0, 1), BuildingBlock: XIVTED_clean_linker_0, # of connection points: 2
#     Edge 23, Type (0, 1), BuildingBlock: XIVTED_clean_linker_0, # of connection points: 2
#     Edge 24, Type (0, 1), BuildingBlock: XIVTED_clean_linker_0, # of connection points: 2
#     Edge 25, Type (0, 1), BuildingBlock: XIVTED_clean_linker_0, # of connection points: 2
#     Edge 26, Type (0, 1), BuildingBlock: XIVTED_clean_linker_0, # of connection points: 2
#     Edge 27, Type (0, 1), BuildingBlock: XIVTED_clean_linker_0, # of connection points: 2
#     Edge 28, Type (0, 1), BuildingBlock: XIVTED_clean_linker_0, # of connection points: 2
#     Edge 29, Type (0, 1), BuildingBlock: XIVTED_clean_linker_0, # of connection points: 2
#     Edge 30, Type (0, 1), BuildingBlock: XIVTED_clean_linker_0, # of connection points: 2
#     Edge 31, Type (0, 1), BuildingBlock: XIVTED_clean_linker_0, # of connection points: 2
#     Edge 32, Type (0, 1), BuildingBlock: XIVTED_clean_linker_0, # of connection points: 2
#     Edge 33, Type (0, 1), BuildingBlock: XIVTED_clean_linker_0, # of connection points: 2
#     Edge 34, Type (0, 1), BuildingBlock: XIVTED_clean_linker_0, # of connection points: 2
#     Edge 35, Type (0, 1), BuildingBlock: XIVTED_clean_linker_0, # of connection points: 2
# Relax obj value: 0.461
# Max RMSD: 0.272
# Mean RMSD: 0.256
data_MOF--net-zzz--node1-BETGAK_clean_sbu_0--node2-VETTIZ_charged_linker_0--edge1-XIVTED_clean_linker_0
_symmetry_space_group_name_H-M    P1
_symmetry_Int_Tables_number       1
_symmetry_cell_setting            triclinic
loop_
_symmetry_equiv_pos_as_xyz
'x, y, z'
_cell_length_a     59.339413
_cell_length_b     59.342882
_cell_length_c     18.403598
_cell_angle_alpha  89.974383
_cell_angle_beta   90.004617
_cell_angle_gamma 89.716825
loop_
_atom_site_label
_atom_site_type_symbol
_atom_site_fract_x
_atom_site_fract_y
_atom_site_fract_z
_atom_type_partial_charge
C0 C 0.7817 0.51505 0.4978 0.0
C1 C 0.80174 0.5013 0.50457 0.0
C2 C 0.80269 0.48114 0.46391 0.0
C3 C 0.7696 0.49214 0.3972 0.0
C4 C 0.7648 0.50898 0.44537 0.0
C5 C 0.74156 0.51915 0.42424 0.0
H6 H 0.6697 0.53528 0.12991 0.0
C7 C 0.75527 0.49454 0.33358 0.0
C8 C 0.73563 0.50664 0.35248 0.0
H9 H 0.64071 0.50413 0.31895 0.0
H10 H 0.679 0.5023 0.37653 0.0
H11 H 0.71401 0.56196 0.19059 0.0
H12 H 0.69523 0.49589 0.12065 0.0
H13 H 0.7229 0.49791 0.09146 0.0
H14 H 0.70233 0.51766 0.05719 0.0
H15 H 0.71078 0.55448 0.09676 0.0
H16 H 0.73761 0.55199 0.14286 0.0
C17 C 0.74358 0.54469 0.41173 0.0
C18 C 0.72404 0.51401 0.48318 0.0
C19 C 0.80141 0.49775 0.10252 0.0
C20 C 0.79645 0.50628 0.03342 0.0
C21 C 0.77601 0.51706 0.01922 0.0
C22 C 0.76003 0.51882 0.07406 0.0
C23 C 0.76457 0.50919 0.14256 0.0
C24 C 0.7851 0.49921 0.15645 0.0
C25 C 0.78756 0.49161 0.23396 0.0
C26 C 0.76381 0.49646 0.262 0.0
C27 C 0.75119 0.50754 0.20889 0.0
C28 C 0.80548 0.50691 0.26979 0.0
C29 C 0.79397 0.46624 0.237 0.0
C30 C 0.67094 0.52926 0.18544 0.0
C31 C 0.65191 0.52086 0.2203 0.0
C32 C 0.65499 0.51131 0.2908 0.0
C33 C 0.67687 0.51052 0.32449 0.0
C34 C 0.69584 0.51865 0.28637 0.0
C35 C 0.69228 0.52641 0.21602 0.0
C36 C 0.71292 0.52517 0.17059 0.0
C37 C 0.72946 0.51548 0.22411 0.0
C38 C 0.72072 0.51389 0.29453 0.0
C39 C 0.7192 0.54957 0.1483 0.0
C40 C 0.70829 0.50853 0.1063 0.0
H41 H 0.78805 0.46126 0.37904 0.0
H42 H 0.77958 0.52997 0.5309 0.0
H43 H 0.72261 0.49552 0.49168 0.0
H44 H 0.70724 0.52067 0.46711 0.0
H45 H 0.72897 0.52189 0.53556 0.0
H46 H 0.75632 0.54826 0.369 0.0
H47 H 0.74877 0.55334 0.46253 0.0
H48 H 0.72715 0.55189 0.39394 0.0
H49 H 0.81754 0.4898 0.11369 0.0
H50 H 0.77236 0.52375 0.96568 0.0
H51 H 0.74462 0.5271 0.0598 0.0
H52 H 0.79985 0.52482 0.26945 0.0
H53 H 0.82174 0.50578 0.24003 0.0
H54 H 0.80919 0.5022 0.32645 0.0
H55 H 0.77931 0.45574 0.25283 0.0
H56 H 0.80794 0.46309 0.27587 0.0
H57 H 0.79996 0.45965 0.18392 0.0
H58 H 0.81684 0.46966 0.46957 0.0
C59 C 0.78662 0.47645 0.41065 0.0
C60 C 0.99825 0.76856 0.02348 0.0
C61 C 0.9981 0.7919 0.01339 0.0
C62 C 0.98796 0.8061 0.06525 0.0
C63 C 0.98359 0.77432 0.14435 0.0
C64 C 0.99014 0.76005 0.08924 0.0
C65 C 0.98889 0.73588 0.11203 0.0
H66 H 0.02822 0.66093 0.27073 0.0
C67 C 0.98249 0.76137 0.21166 0.0
C68 C 0.98281 0.73877 0.19275 0.0
H69 H 0.96979 0.65604 0.12872 0.0
H70 H 0.95761 0.69346 0.16849 0.0
H71 H 0.04195 0.71757 0.26929 0.0
H72 H 0.98726 0.6956 0.40966 0.0
H73 H 0.01148 0.70901 0.44892 0.0
H74 H 0.0139 0.68094 0.41433 0.0
H75 H 0.04742 0.69586 0.33572 0.0
H76 H 0.04258 0.72452 0.36462 0.0
C77 C 0.01215 0.72445 0.10108 0.0
C78 C 0.97041 0.72434 0.06641 0.0
C79 C 1.0051 0.80586 0.42975 0.0
C80 C 0.01167 0.8015 0.50092 0.0
C81 C 0.01628 0.77865 0.51987 0.0
C82 C 0.01352 0.76077 0.4679 0.0
C83 C 1.00622 0.76581 0.39647 0.0
C84 C 1.0022 0.78833 0.38014 0.0
C85 C 0.9927 0.79199 0.30665 0.0
C86 C 0.99025 0.768 0.28105 0.0
C87 C 0.99878 0.75194 0.33145 0.0
C88 C 1.01016 0.80585 0.26175 0.0
C89 C 0.96926 0.80351 0.31455 0.0
C90 C 0.01288 0.66789 0.24797 0.0
C91 C 1.00062 0.65581 0.19247 0.0
C92 C 0.97997 0.66491 0.16823 0.0
C93 C 0.97315 0.68637 0.18922 0.0
C94 C 0.98714 0.69888 0.23393 0.0
C95 C 1.0047 0.68956 0.27117 0.0
C96 C 0.0122 0.70685 0.32999 0.0
C97 C 0.99814 0.72826 0.3103 0.0
C98 C 0.98606 0.72266 0.2474 0.0
C99 C 0.03757 0.71146 0.3246 0.0
C100 C 1.00583 0.69764 0.40518 0.0
H101 H 0.97312 0.80866 0.16962 0.0
H102 H 1.00537 0.75751 0.98262 0.0
H103 H 0.97062 0.73036 0.0092 0.0
H104 H 0.9534 0.72791 0.08904 0.0
H105 H 0.97311 0.70591 0.06272 0.0
H106 H 0.02527 0.73297 0.13421 0.0
H107 H 0.01738 0.725 0.04319 0.0
H108 H 0.01181 0.70642 0.11656 0.0
H109 H 1.00142 0.82301 0.41289 0.0
H110 H 0.02127 0.77458 0.57492 0.0
H111 H 0.01654 0.74364 0.48461 0.0
H112 H 0.02411 0.81262 0.29556 0.0
H113 H 1.00239 0.82086 0.2359 0.0
H114 H 0.0185 0.79542 0.21938 0.0
H115 H 0.96044 0.79764 0.36442 0.0
H116 H 0.95769 0.79926 0.2695 0.0
H117 H 0.97087 0.82212 0.31811 0.0
H118 H 0.98738 0.82419 0.05711 0.0
C119 C 0.98036 0.79728 0.13081 0.0
C120 C 0.85633 1.00801 0.26143 0.0
C121 C 0.86546 0.0206 0.20181 0.0
C122 C 0.85274 0.03894 0.17479 0.0
C123 C 0.8211 0.02801 0.24812 0.0
C124 C 0.8341 0.01317 0.28663 0.0
C125 C 0.81937 1.00274 0.34629 0.0
H126 H 0.70642 0.98057 0.42237 0.0
C127 C 0.79742 0.02309 0.26179 0.0
C128 C 0.79557 0.01258 0.33033 0.0
H129 H 0.73745 0.03146 0.55605 0.0
H130 H 0.77268 0.02798 0.48224 0.0
H131 H 0.70419 0.99169 0.30581 0.0
H132 H 0.75529 0.95074 0.36399 0.0
H133 H 0.74659 0.94733 0.27229 0.0
H134 H 0.72572 0.94861 0.34298 0.0
H135 H 0.71417 0.97654 0.23184 0.0
H136 H 0.7225 1.00563 0.2446 0.0
C137 C 0.82743 1.01045 0.42145 0.0
C138 C 0.81983 0.97683 0.34066 0.0
C139 C 0.75324 1.00879 0.03165 0.0
C140 C 0.7346 0.99477 0.01891 0.0
C141 C 0.73121 0.97615 0.06593 0.0
C142 C 0.7436 0.97417 0.1301 0.0
C143 C 0.75788 0.99172 0.14922 0.0
C144 C 0.76417 1.00743 0.09844 0.0
C145 C 0.7821 0.02289 0.12617 0.0
C146 C 0.78353 0.015 0.205 0.0
C147 C 0.76862 0.9972 0.21784 0.0
C148 C 0.77374 0.04753 0.12159 0.0
C149 C 0.80373 0.01857 0.08088 0.0
C150 C 0.72038 0.99142 0.43624 0.0
C151 C 0.71847 1.00672 0.49424 0.0
C152 C 0.73805 0.01945 0.51186 0.0
C153 C 0.75828 0.01755 0.46968 0.0
C154 C 0.75876 1.00322 0.40862 0.0
C155 C 0.73948 0.99132 0.39145 0.0
C156 C 0.7405 0.98142 0.31649 0.0
C157 C 0.76269 0.99134 0.28964 0.0
C158 C 0.775 1.00095 0.34662 0.0
C159 C 0.71946 0.98925 0.27209 0.0
C160 C 0.74205 0.95558 0.32402 0.0
H161 H 0.82088 0.05603 0.17325 0.0
H162 H 0.86589 0.9944 0.28576 0.0
H163 H 0.81398 0.97131 0.28612 0.0
H164 H 0.80867 0.96919 0.38234 0.0
H165 H 0.83717 0.97021 0.34936 0.0
H166 H 0.82729 0.02916 0.42509 0.0
H167 H 0.84489 1.00439 0.4319 0.0
H168 H 0.81621 1.00372 0.46457 0.0
H169 H 0.75792 0.02193 0.99389 0.0
H170 H 0.71783 0.96416 0.05747 0.0
H171 H 0.74072 0.96004 0.16517 0.0
H172 H 0.75651 0.04917 0.14494 0.0
H173 H 0.77322 0.0534 0.06429 0.0
H174 H 0.78472 0.05903 0.15262 0.0
H175 H 0.81456 1.00545 0.10649 0.0
H176 H 0.81353 0.03416 0.07247 0.0
H177 H 0.79981 0.01266 0.02498 0.0
H178 H 0.85923 0.04935 0.13126 0.0
C179 C 0.83062 0.04272 0.19796 0.0
C180 C 0.52337 0.7406 0.503 0.0
C181 C 0.50776 0.72274 0.51991 0.0
C182 C 0.48536 0.72512 0.49465 0.0
C183 C 0.49626 0.75647 0.42039 0.0
C184 C 0.5163 0.75857 0.45568 0.0
C185 C 0.52796 0.77992 0.4253 0.0
H186 H 0.5286 0.84859 0.11429 0.0
C187 C 0.49714 0.76938 0.35348 0.0
C188 C 0.51216 0.78747 0.36204 0.0
H189 H 0.51496 0.88102 0.3188 0.0
H190 H 0.51521 0.84339 0.38071 0.0
H191 H 0.5594 0.80343 0.1699 0.0
H192 H 0.49063 0.82239 0.13066 0.0
H193 H 0.49176 0.79435 0.10458 0.0
H194 H 0.50924 0.81441 0.05823 0.0
H195 H 0.54768 0.80641 0.08051 0.0
H196 H 0.54686 0.77989 0.12901 0.0
C197 C 0.55174 0.77409 0.39752 0.0
C198 C 0.5289 0.79824 0.484 0.0
C199 C 0.48557 0.71817 0.1383 0.0
C200 C 0.48903 0.72135 0.06386 0.0
C201 C 0.50182 0.73956 0.03891 0.0
C202 C 0.50934 0.75572 0.08813 0.0
C203 C 0.50324 0.75376 0.16178 0.0
C204 C 0.49214 0.73491 0.18612 0.0
C205 C 0.4881 0.73506 0.26645 0.0
C206 C 0.4959 0.75883 0.28463 0.0
C207 C 0.50578 0.76886 0.22398 0.0
C208 C 0.50364 0.7167 0.2996 0.0
C209 C 0.46278 0.73114 0.28345 0.0
C210 C 0.52672 0.84804 0.17288 0.0
C211 C 0.52233 0.86787 0.21116 0.0
C212 C 0.51891 0.86605 0.28763 0.0
C213 C 0.51914 0.84453 0.32343 0.0
C214 C 0.52269 0.82476 0.2823 0.0
C215 C 0.52567 0.8271 0.20775 0.0
C216 C 0.52221 0.80555 0.16791 0.0
C217 C 0.51561 0.79021 0.22952 0.0
C218 C 0.51826 0.80023 0.29793 0.0
C219 C 0.5451 0.79839 0.13437 0.0
C220 C 0.50266 0.80915 0.11207 0.0
H221 H 0.46268 0.74281 0.42353 0.0
H222 H 0.54037 0.74018 0.52419 0.0
H223 H 0.51166 0.80239 0.5037 0.0
H224 H 0.53657 0.81385 0.46188 0.0
H225 H 0.53911 0.79242 0.53108 0.0
H226 H 0.55091 0.76078 0.35512 0.0
H227 H 0.56254 0.76789 0.44268 0.0
H228 H 0.55983 0.78921 0.37348 0.0
H229 H 0.47672 0.70348 0.15834 0.0
H230 H 0.50491 0.74189 0.98139 0.0
H231 H 0.51832 0.76977 0.0661 0.0
H232 H 0.52168 0.72065 0.28937 0.0
H233 H 0.5 0.69996 0.27532 0.0
H234 H 0.50141 0.71479 0.35865 0.0
H235 H 0.45414 0.74716 0.29814 0.0
H236 H 0.4606 0.71885 0.32834 0.0
H237 H 0.45329 0.72411 0.2368 0.0
H238 H 0.47269 0.71273 0.50807 0.0
C239 C 0.47958 0.74194 0.44487 0.0
C240 C 0.35735 0.50342 0.15101 0.0
C241 C 0.36888 0.51466 0.20947 0.0
C242 C 0.3579 0.53291 0.24336 0.0
C243 C 0.32377 0.52497 0.1782 0.0
C244 C 0.33461 0.50991 0.13388 0.0
C245 C 0.31778 0.50208 0.07488 0.0
H246 H 0.19956 0.50364 0.02062 0.0
C247 C 0.29953 0.52302 0.16796 0.0
C248 C 0.29504 0.51236 0.10096 0.0
H249 H 0.24448 0.51281 0.83942 0.0
H250 H 0.27728 0.51206 0.92464 0.0
H251 H 0.21414 0.47025 0.09217 0.0
H252 H 0.22758 0.53773 0.14182 0.0
H253 H 0.21696 0.52069 0.21442 0.0
H254 H 0.20187 0.52209 0.13161 0.0
H255 H 0.2076 0.48005 0.18023 0.0
H256 H 0.23419 0.46587 0.16243 0.0
C257 C 0.31684 0.47624 0.07128 0.0
C258 C 0.32472 0.51206 1.00125 0.0
C259 C 0.25338 0.52671 0.39822 0.0
C260 C 0.23196 0.51801 0.41335 0.0
C261 C 0.22382 0.49972 0.37214 0.0
C262 C 0.23515 0.49311 0.309 0.0
C263 C 0.25362 0.50583 0.28646 0.0
C264 C 0.26389 0.52042 0.3337 0.0
C265 C 0.28509 0.53012 0.30282 0.0
C266 C 0.28434 0.52025 0.22627 0.0
C267 C 0.26528 0.50704 0.21702 0.0
C268 C 0.30512 0.52138 0.34954 0.0
C269 C 0.28287 0.55612 0.30134 0.0
C270 C 0.21632 0.50511 0.99781 0.0
C271 C 0.21909 0.50774 0.92292 0.0
C272 C 0.24155 0.51051 0.89699 0.0
C273 C 0.2605 0.50981 0.94576 0.0
C274 C 0.25696 0.50603 0.02079 0.0
C275 C 0.23487 0.50406 0.04451 0.0
C276 C 0.23286 0.50127 0.12455 0.0
C277 C 0.25748 0.50237 0.14658 0.0
C278 C 0.27219 0.50488 0.08677 0.0
C279 C 0.22171 0.47821 0.14102 0.0
C280 C 0.21912 0.52153 0.15491 0.0
H281 H 0.32789 0.55203 0.25567 0.0
H282 H 0.3656 0.49004 0.12106 0.0
H283 H 0.32395 0.53078 1.00275 0.0
H284 H 0.3135 0.50601 0.95738 0.0
H285 H 0.34224 0.50692 0.98738 0.0
H286 H 0.31221 0.46913 0.1251 0.0
H287 H 0.33346 0.46917 0.05494 0.0
H288 H 0.30407 0.47078 0.03083 0.0
H289 H 0.26036 0.54015 0.43093 0.0
H290 H 0.2077 0.49211 0.3843 0.0
H291 H 0.22886 0.47921 0.27823 0.0
H292 H 0.29976 0.51651 0.40527 0.0
H293 H 0.31807 0.53445 0.35818 0.0
H294 H 0.31307 0.50621 0.32479 0.0
H295 H 0.26552 0.56133 0.28541 0.0
H296 H 0.29413 0.56395 0.26086 0.0
H297 H 0.28653 0.5634 0.35564 0.0
H298 H 0.36618 0.5424 0.28591 0.0
C299 C 0.33561 0.53821 0.22741 0.0
C300 C 1.0088 0.25003 0.39494 0.0
C301 C 1.00957 0.22678 0.40567 0.0
C302 C 1.0042 0.212 0.34844 0.0
C303 C 0.99975 0.24354 0.26826 0.0
C304 C 1.00361 0.25808 0.32545 0.0
C305 C 1.001 0.28222 0.30331 0.0
H306 H 0.0306 0.36091 0.11352 0.0
C307 C 0.99716 0.25684 0.20198 0.0
C308 C 0.99621 0.27931 0.22189 0.0
H309 H 0.98044 0.36259 0.2858 0.0
H310 H 0.96982 0.32417 0.25468 0.0
H311 H 0.05035 0.30504 0.10883 0.0
H312 H 0.98603 0.32251 0.00943 0.0
H313 H 1.00714 0.30895 0.95479 0.0
H314 H 0.01096 0.33765 0.9829 0.0
H315 H 0.04937 0.32668 0.04003 0.0
H316 H 0.04548 0.29755 0.01525 0.0
C317 C 0.02341 0.29466 0.31718 0.0
C318 C 0.9813 0.29267 0.34716 0.0
C319 C 1.00602 0.21411 0.97022 0.0
C320 C 0.01253 0.21858 0.89925 0.0
C321 C 0.01801 0.24129 0.88131 0.0
C322 C 0.01653 0.25897 0.93455 0.0
C323 C 1.00985 0.25378 1.00635 0.0
C324 C 1.00516 0.23135 0.02174 0.0
C325 C 1.00093 0.22707 0.09969 0.0
C326 C 1.00113 0.25071 0.12903 0.0
C327 C 1.00642 0.26715 0.07586 0.0
C328 C 0.02085 0.21231 0.12884 0.0
C329 C 0.97721 0.21638 0.10761 0.0
C330 C 0.01796 0.35274 0.14655 0.0
C331 C 1.00763 0.36442 0.20689 0.0
C332 C 0.98968 0.3539 0.24333 0.0
C333 C 0.98419 0.33169 0.22862 0.0
C334 C 0.99736 0.3196 0.17998 0.0
C335 C 0.01134 0.32996 0.13169 0.0
C336 C 0.01646 0.31294 0.06939 0.0
C337 C 1.006 0.2907 0.09843 0.0
C338 C 0.99725 0.29576 0.16741 0.0
C339 C 0.04194 0.31042 0.05763 0.0
C340 C 1.00447 0.32092 0.99998 0.0
H341 H 0.99448 0.20829 0.23928 0.0
H342 H 0.01182 0.2615 0.43959 0.0
H343 H 0.97995 0.28536 0.40256 0.0
H344 H 0.96492 0.28977 0.31951 0.0
H345 H 0.98382 0.31092 0.35663 0.0
H346 H 0.03738 0.28675 0.28582 0.0
H347 H 0.02791 0.2942 0.37576 0.0
H348 H 0.02225 0.31263 0.30121 0.0
H349 H 1.00241 0.19694 0.98666 0.0
H350 H 0.02352 0.24528 0.82676 0.0
H351 H 0.02108 0.27591 0.91961 0.0
H352 H 0.03495 0.21071 0.08923 0.0
H353 H 0.01533 0.19489 0.14134 0.0
H354 H 0.02892 0.21969 0.17755 0.0
H355 H 0.9651 0.22407 0.06849 0.0
H356 H 0.96964 0.21928 0.16177 0.0
H357 H 0.97779 0.19797 0.09692 0.0
H358 H 1.00361 0.19394 0.35727 0.0
C359 C 0.99898 0.2203 0.28005 0.0
C360 C 0.28228 0.01331 0.93392 0.0
C361 C 0.30575 1.00706 0.93478 0.0
C362 C 0.31443 0.9971 0.99793 0.0
C363 C 0.2797 1.0043 0.06228 0.0
C364 C 0.26915 0.01087 0.99918 0.0
C365 C 0.24371 0.01435 0.01486 0.0
H366 H 0.16775 0.03476 0.29981 0.0
C367 C 0.26442 1.0076 0.12402 0.0
C368 C 0.24232 0.01171 0.09868 0.0
H369 H 0.14617 0.99983 0.10764 0.0
H370 H 0.18566 0.99971 0.06192 0.0
H371 H 0.19821 0.99746 0.31843 0.0
H372 H 0.20819 0.06556 0.24902 0.0
H373 H 0.23146 0.05967 0.30465 0.0
H374 H 0.20337 0.05788 0.34199 0.0
H375 H 0.20033 0.02017 0.38217 0.0
H376 H 0.22456 1.00389 0.35388 0.0
C377 C 0.23036 0.99593 0.97537 0.0
C378 C 0.236 0.03795 0.9909 0.0
C379 C 0.30183 0.02082 0.36702 0.0
C380 C 0.29335 0.02674 0.4355 0.0
C381 C 0.27066 0.03242 0.44399 0.0
C382 C 0.25631 0.03188 0.38387 0.0
C383 C 0.26474 0.02473 0.31578 0.0
C384 C 0.28723 0.01968 0.30827 0.0
C385 C 0.29328 0.01142 0.23384 0.0
C386 C 0.27032 0.01219 0.19705 0.0
C387 C 0.25401 0.02001 0.24525 0.0
C388 C 0.30268 0.98698 0.24061 0.0
C389 C 0.31011 0.0286 0.20147 0.0
C390 C 0.1709 0.02821 0.2457 0.0
C391 C 0.15351 0.01833 0.20664 0.0
C392 C 0.15913 1.00821 0.13876 0.0
C393 C 0.18186 1.00846 0.11163 0.0
C394 C 0.19919 0.0184 0.15344 0.0
C395 C 0.19307 0.02684 0.22108 0.0
C396 C 0.21233 0.02907 0.27136 0.0
C397 C 0.23145 0.02192 0.22332 0.0
C398 C 0.22472 0.01673 0.15167 0.0
C399 C 0.20879 0.01201 0.33515 0.0
C400 C 0.21398 0.05426 0.29364 0.0
H401 H 0.30953 0.98795 0.10654 0.0
H402 H 0.27464 0.01994 0.88494 0.0
H403 H 0.24621 0.05111 0.01826 0.0
H404 H 0.21801 0.04071 1.00525 0.0
H405 H 0.23788 0.03997 0.93117 0.0
H406 H 0.23436 0.97904 0.9983 0.0
H407 H 0.23463 0.99577 0.91656 0.0
H408 H 0.21204 0.99897 0.97965 0.0
H409 H 0.31931 0.01581 0.36034 0.0
H410 H 0.26401 0.03672 0.49705 0.0
H411 H 0.23911 0.03636 0.39394 0.0
H412 H 0.30036 0.97974 0.29584 0.0
H413 H 0.32103 0.98634 0.22868 0.0
H414 H 0.29372 0.97512 0.20414 0.0
H415 H 0.30263 0.04584 0.20149 0.0
H416 H 0.31521 0.02495 0.14533 0.0
H417 H 0.32583 0.02905 0.23422 0.0
H418 H 0.33182 0.99139 0.99991 0.0
C419 C 0.30155 0.99541 0.06055 0.0
C420 C 0.5128 0.28339 0.92792 0.0
C421 C 0.50554 0.30658 0.92755 0.0
C422 C 0.49266 0.3143 0.98651 0.0
C423 C 0.49707 0.27877 0.04905 0.0
C424 C 0.50771 0.26941 0.98968 0.0
C425 C 0.51257 0.24419 1.0054 0.0
H426 H 0.53063 0.16738 0.28494 0.0
C427 C 0.49764 0.26282 0.11011 0.0
C428 C 0.5052 0.24157 0.08573 0.0
H429 H 0.49283 0.1465 0.09806 0.0
H430 H 0.49368 0.18573 0.05017 0.0
H431 H 0.5571 0.21453 0.24428 0.0
H432 H 0.49059 0.19228 0.29975 0.0
H433 H 0.49159 0.21908 0.3366 0.0
H434 H 0.51122 0.19792 0.36847 0.0
H435 H 0.54902 0.20559 0.33372 0.0
H436 H 0.54644 0.23465 0.30544 0.0
C437 C 0.5378 0.239 0.99624 0.0
C438 C 0.49831 0.22944 0.95484 0.0
C439 C 0.49543 0.2985 0.35951 0.0
C440 C 0.50371 0.29139 0.42741 0.0
C441 C 0.51158 0.26921 0.4357 0.0
C442 C 0.51254 0.25478 0.37614 0.0
C443 C 0.50498 0.2624 0.30788 0.0
C444 C 0.49659 0.28391 0.30056 0.0
C445 C 0.49099 0.2898 0.22334 0.0
C446 C 0.4972 0.26789 0.18529 0.0
C447 C 0.50501 0.25208 0.23532 0.0
C448 C 0.50598 0.31006 0.19944 0.0
C449 C 0.46526 0.29432 0.21932 0.0
C450 C 0.5241 0.1706 0.23082 0.0
C451 C 0.51294 0.15349 0.19396 0.0
C452 C 0.50238 0.15917 0.12687 0.0
C453 C 0.50317 0.18168 0.09852 0.0
C454 C 0.51369 0.19892 0.13901 0.0
C455 C 0.52203 0.19293 0.20713 0.0
C456 C 0.5203 0.2118 0.26004 0.0
C457 C 0.51136 0.23039 0.21252 0.0
C458 C 0.50951 0.22403 0.13922 0.0
C459 C 0.54437 0.21694 0.28807 0.0
C460 C 0.50276 0.20507 0.31976 0.0
H461 H 0.47811 0.30774 0.08802 0.0
H462 H 0.52198 0.27653 0.88214 0.0
H463 H 0.48004 0.23218 0.96518 0.0
H464 H 0.50231 0.21137 0.96299 0.0
H465 H 0.50182 0.23361 0.89706 0.0
H466 H 0.54802 0.25003 0.03211 0.0
H467 H 0.54315 0.24183 0.93909 0.0
H468 H 0.54145 0.22117 0.01068 0.0
H469 H 0.49003 0.31573 0.35031 0.0
H470 H 0.51821 0.26344 0.48734 0.0
H471 H 0.51982 0.23853 0.38575 0.0
H472 H 0.51718 0.31622 0.24351 0.0
H473 H 0.49568 0.32481 0.18246 0.0
H474 H 0.51763 0.30547 0.15461 0.0
H475 H 0.45592 0.28306 0.25702 0.0
H476 H 0.45811 0.29066 0.1651 0.0
H477 H 0.46123 0.31199 0.2346 0.0
H478 H 0.48626 0.33145 0.98749 0.0
C479 C 0.48818 0.3006 0.04582 0.0
La480 La 0.03 1.0081 0.75004 0.0
La481 La 0.99134 1.01048 0.66667 0.0
C482 C 0.05883 0.99705 0.84356 0.0
C483 C 0.06348 0.97439 0.87247 0.0
C484 C 0.08027 0.9609 0.84014 0.0
C485 C 0.07979 0.93755 0.8485 0.0
C486 C 0.06262 0.92769 0.88948 0.0
C487 C 0.04758 0.94123 0.9288 0.0
C488 C 0.0481 0.96447 0.92087 0.0
C489 C 0.03993 0.01861 0.61291 0.0
C490 C 1.00982 0.96198 0.68424 0.0
C491 C 0.96224 0.02096 0.57356 0.0
C492 C 0.96109 0.04222 0.53327 0.0
C493 C 0.9442 0.05793 0.55052 0.0
C494 C 0.94765 0.08077 0.53707 0.0
C495 C 0.96817 0.08807 0.50719 0.0
C496 C 0.98363 0.07194 0.4814 0.0
C497 C 0.97999 0.04922 0.49349 0.0
C498 C 0.98121 1.00055 0.80408 0.0
C499 C 0.01259 0.05665 0.72925 0.0
O500 O 0.06357 0.99987 0.77487 0.0
O501 O 0.03905 1.00547 0.85967 0.0
O502 O 0.04858 0.02789 0.67001 0.0
O503 O 0.0257 1.00406 0.63384 0.0
O504 O 0.02367 0.97141 0.73184 0.0
O505 O 0.99561 0.97467 0.64765 0.0
O506 O 0.95899 0.02301 0.64342 0.0
O507 O 0.9797 1.00821 0.55948 0.0
O508 O 0.97276 0.99096 0.74732 0.0
O509 O 0.99559 0.01486 0.78242 0.0
O510 O 0.99955 0.04714 0.67921 0.0
O511 O 0.02556 0.04386 0.77005 0.0
H512 H 0.09243 0.96815 0.8031 0.0
H513 H 0.09147 0.92718 0.8178 0.0
H514 H 0.03428 0.93372 0.96095 0.0
H515 H 0.03511 0.97437 0.94741 0.0
H516 H 0.92941 0.05284 0.58081 0.0
H517 H 0.935 0.09272 0.55509 0.0
H518 H 0.9997 0.07668 0.45833 0.0
H519 H 0.99331 0.03753 0.47873 0.0
La520 La 0.51067 0.03247 0.7423 0.0
La521 La 0.50708 0.99235 0.65616 0.0
C522 C 0.52093 0.06187 0.83372 0.0
C523 C 0.54053 0.06109 0.88161 0.0
C524 C 0.55663 0.0782 0.87731 0.0
C525 C 0.57861 0.07409 0.90067 0.0
C526 C 0.58466 0.05273 0.92761 0.0
C527 C 0.56786 0.03651 0.93868 0.0
C528 C 0.54597 0.0407 0.91632 0.0
C529 C 0.4988 0.04144 0.60522 0.0
C530 C 0.55627 1.00972 0.68061 0.0
C531 C 0.50089 0.96729 0.54778 0.0
C532 C 0.48026 0.9638 0.50552 0.0
C533 C 0.46652 0.94524 0.52163 0.0
C534 C 0.44355 0.94618 0.50646 0.0
C535 C 0.43424 0.96564 0.47499 0.0
C536 C 0.44869 0.98248 0.44852 0.0
C537 C 0.47158 0.98148 0.46325 0.0
C538 C 0.51322 0.97698 0.79113 0.0
C539 C 0.46226 0.01243 0.72791 0.0
O540 O 0.52599 0.06346 0.7648 0.0
O541 O 0.50572 0.04644 0.84562 0.0
O542 O 0.49015 0.0507 0.66233 0.0
O543 O 0.51324 0.02714 0.62708 0.0
O544 O 0.54724 0.02492 0.72514 0.0
O545 O 0.54341 0.99492 0.64747 0.0
O546 O 0.49973 0.96037 0.61491 0.0
O547 O 0.50986 0.98732 0.5437 0.0
O548 O 0.51177 0.965 0.73314 0.0
O549 O 0.51227 0.99772 0.77299 0.0
O550 O 0.47077 1.00026 0.67386 0.0
O551 O 0.47566 0.02487 0.76827 0.0
H552 H 0.55275 0.09395 0.85011 0.0
H553 H 0.59115 0.08708 0.89303 0.0
H554 H 0.57186 0.01976 0.95831 0.0
H555 H 0.53397 0.02705 0.91982 0.0
H556 H 0.473 0.93117 0.55298 0.0
H557 H 0.43286 0.93264 0.52536 0.0
H558 H 0.44221 0.99775 0.42381 0.0
H559 H 0.48185 0.99584 0.44863 0.0
La560 La 0.49665 0.51042 0.73321 0.0
La561 La 0.53579 0.50933 0.65639 0.0
C562 C 0.46474 0.51756 0.82037 0.0
C563 C 0.45445 0.53822 0.84864 0.0
C564 C 0.43637 0.54836 0.81129 0.0
C565 C 0.43012 0.5704 0.8272 0.0
C566 C 0.4415 0.58209 0.88167 0.0
C567 C 0.45799 0.57135 0.92376 0.0
C568 C 0.46444 0.54945 0.90744 0.0
C569 C 0.48819 0.49954 0.59495 0.0
C570 C 0.51613 0.55749 0.67141 0.0
C571 C 0.56703 0.50089 0.56806 0.0
C572 C 0.57121 0.47994 0.52807 0.0
C573 C 0.58796 0.46504 0.5528 0.0
C574 C 0.58643 0.44215 0.53702 0.0
C575 C 0.56803 0.43406 0.49689 0.0
C576 C 0.55334 0.44952 0.46331 0.0
C577 C 0.55507 0.47232 0.47817 0.0
C578 C 0.54375 0.51954 0.79541 0.0
C579 C 0.51648 0.4625 0.71823 0.0
O580 O 0.46198 0.51402 0.75102 0.0
O581 O 0.48552 0.51373 0.84046 0.0
O582 O 0.48032 0.48939 0.65149 0.0
O583 O 0.50168 0.51467 0.61714 0.0
O584 O 0.50213 0.54761 0.71799 0.0
O585 O 0.53064 0.54498 0.63561 0.0
O586 O 0.56927 0.49926 0.63842 0.0
O587 O 0.54858 0.51168 0.55072 0.0
O588 O 0.55223 0.52976 0.73985 0.0
O589 O 0.53047 0.50454 0.77185 0.0
O590 O 0.52939 0.4722 0.66826 0.0
O591 O 0.50297 0.47517 0.75729 0.0
H592 H 0.42816 0.53987 0.76651 0.0
H593 H 0.41743 0.57876 0.79437 0.0
H594 H 0.46709 0.58048 0.96544 0.0
H595 H 0.47825 0.54196 0.93766 0.0
H596 H 0.6008 0.47066 0.59043 0.0
H597 H 0.59845 0.43066 0.56152 0.0
H598 H 0.53894 0.44404 0.43197 0.0
H599 H 0.54212 0.48345 0.45695 0.0
La600 La 0.01132 0.49077 0.73596 0.0
La601 La 0.01432 0.52872 0.64219 0.0
C602 C 1.00502 0.45981 0.82731 0.0
C603 C 0.98495 0.45222 0.86608 0.0
C604 C 0.96959 0.43794 0.83093 0.0
C605 C 0.94709 0.43827 0.85141 0.0
C606 C 0.94015 0.45265 0.90738 0.0
C607 C 0.95615 0.46341 0.95111 0.0
C608 C 0.97862 0.46313 0.93062 0.0
C609 C 0.02226 0.4801 0.59993 0.0
C610 C 0.96497 0.51148 0.67335 0.0
C611 C 0.02227 0.54964 0.52685 0.0
C612 C 0.04153 0.56339 0.50563 0.0
C613 C 0.05031 0.57956 0.55353 0.0
C614 C 0.07259 0.58648 0.54638 0.0
C615 C 0.08622 0.5772 0.49176 0.0
C616 C 0.07667 0.56297 0.43931 0.0
C617 C 0.05439 0.55619 0.44609 0.0
C618 C 0.01247 0.54716 0.7744 0.0
C619 C 0.05909 0.51207 0.72368 0.0
O620 O 1.0047 0.45682 0.75705 0.0
O621 O 0.01201 0.48 0.84413 0.0
O622 O 0.03291 0.47337 0.65714 0.0
O623 O 1.00715 0.49387 0.62042 0.0
O624 O 0.97449 0.49742 0.72093 0.0
O625 O 0.97769 0.52508 0.6342 0.0
O626 O 1.00899 0.55755 0.57785 0.0
O627 O 0.02766 0.52849 0.53758 0.0
O628 O 0.01404 0.5579 0.71364 0.0
O629 O 0.01203 0.52603 0.76091 0.0
O630 O 0.05084 0.52329 0.6671 0.0
O631 O 0.04555 0.49987 0.76398 0.0
H632 H 0.97428 0.42873 0.78238 0.0
H633 H 0.93489 0.42965 0.81768 0.0
H634 H 0.95094 0.4742 0.99561 0.0
H635 H 0.99036 0.47365 0.96009 0.0
H636 H 0.04076 0.58527 0.60021 0.0
H637 H 0.07973 0.59752 0.58713 0.0
H638 H 0.08698 0.55524 0.3975 0.0
H639 H 0.04799 0.54345 0.40939 0.0
H640 H 0.12727 0.9813 0.24492 0.0
H641 H 0.06447 0.05265 0.55501 0.0
H642 H 0.12948 0.0536 0.2623 0.0
H643 H 0.04487 0.98434 0.5095 0.0
H644 H 0.0884 0.05232 0.44698 0.0
H645 H 0.09687 0.98085 0.33699 0.0
C646 C 0.12085 0.99713 0.2659 0.0
C647 C 0.13087 0.01756 0.24437 0.0
C648 C 0.07876 0.03739 0.45974 0.0
C649 C 0.09666 0.01711 0.35283 0.0
C650 C 0.065 0.0376 0.52174 0.0
C651 C 0.05241 0.0186 0.54163 0.0
C652 C 0.08056 0.01783 0.41679 0.0
C653 C 0.05404 0.99951 0.49613 0.0
C654 C 0.10369 0.99684 0.31944 0.0
C655 C 0.12221 0.03744 0.27603 0.0
N656 N 0.06801 0.99952 0.43654 0.0
N657 N 0.10605 0.03667 0.32868 0.0
H658 H 0.54507 0.12299 0.23838 0.0
H659 H 0.46693 0.06981 0.54891 0.0
H660 H 0.47389 0.13627 0.25284 0.0
H661 H 0.53283 0.04308 0.50049 0.0
H662 H 0.46932 0.09397 0.44106 0.0
H663 H 0.54123 0.09358 0.3317 0.0
C664 C 0.52846 0.11916 0.25927 0.0
C665 C 0.50965 0.13172 0.23524 0.0
C666 C 0.48321 0.08269 0.45327 0.0
C667 C 0.50525 0.09854 0.34609 0.0
C668 C 0.48184 0.06879 0.51507 0.0
C669 C 0.4996 0.05413 0.53414 0.0
C670 C 0.50271 0.08246 0.40977 0.0
C671 C 0.51857 0.05385 0.48799 0.0
C672 C 0.52631 0.1025 0.31342 0.0
C673 C 0.48874 0.12659 0.2673 0.0
N674 N 0.51971 0.06791 0.42878 0.0
N675 N 0.48717 0.11069 0.32116 0.0
H676 H 0.38106 0.47498 0.27807 0.0
H677 H 0.48667 0.53222 0.48543 0.0
H678 H 0.40683 0.54052 0.22396 0.0
H679 H 0.45792 0.46843 0.54617 0.0
H680 H 0.46071 0.53378 0.38069 0.0
H681 H 0.41234 0.47 0.36474 0.0
C682 C 0.39377 0.48796 0.28207 0.0
C683 C 0.39137 0.50803 0.24201 0.0
C684 C 0.46023 0.51931 0.41649 0.0
C685 C 0.42702 0.5029 0.34453 0.0
C686 C 0.4752 0.51838 0.47632 0.0
C687 C 0.47466 0.50014 0.52528 0.0
C688 C 0.44452 0.50185 0.40476 0.0
C689 C 0.45907 0.48286 0.51036 0.0
C690 C 0.41148 0.48531 0.33281 0.0
C691 C 0.40811 0.52458 0.25235 0.0
N692 N 0.44473 0.48418 0.45226 0.0
N693 N 0.4249 0.52178 0.30261 0.0
H694 H 0.9835 0.40384 0.21213 0.0
H695 H 0.05363 0.44927 0.55574 0.0
H696 H 0.04593 0.37433 0.28452 0.0
H697 H 0.99112 0.47946 0.48594 0.0
H698 H 0.0528 0.42438 0.44983 0.0
H699 H 0.98805 0.43417 0.30149 0.0
C700 C 0.99875 0.40431 0.24445 0.0
C701 C 0.01471 0.3867 0.23858 0.0
C702 C 0.03931 0.43652 0.45698 0.0
C703 C 0.01956 0.42118 0.34475 0.0
C704 C 0.03977 0.45084 0.51775 0.0
C705 C 0.02242 0.46662 0.53046 0.0
C706 C 0.02127 0.43764 0.40753 0.0
C707 C 1.00494 0.46769 0.47871 0.0
C708 C 1.00113 0.42147 0.29667 0.0
C709 C 0.03356 0.3878 0.28488 0.0
N710 N 1.00473 0.45336 0.42014 0.0
N711 N 0.03532 0.40447 0.33608 0.0
H712 H 0.87751 0.98032 0.13673 0.0
H713 H 0.98133 0.03391 0.91056 0.0
H714 H 0.90121 0.04806 0.16832 0.0
H715 H 0.94957 0.97112 0.85493 0.0
H716 H 0.95576 0.03734 0.01565 0.0
H717 H 0.9075 0.97435 0.04606 0.0
C718 C 0.88944 0.99371 0.12649 0.0
C719 C 0.88686 0.01465 0.16144 0.0
C720 C 0.95452 0.02269 0.98087 0.0
C721 C 0.92115 1.00814 0.0554 0.0
C722 C 0.96926 0.02066 0.92092 0.0
C723 C 0.96777 1.00213 0.87345 0.0
C724 C 0.93817 1.00599 0.99437 0.0
C725 C 0.95146 0.98569 0.88975 0.0
C726 C 0.90641 0.99042 0.07371 0.0
C727 C 0.90257 0.03156 0.1436 0.0
N728 N 0.93742 0.988 0.94824 0.0
N729 N 0.91881 0.028 0.09206 0.0
H730 H 0.54744 0.90756 0.20195 0.0
H731 H 0.48484 0.94408 0.83134 0.0
H732 H 0.48911 0.87508 0.11182 0.0
H733 H 0.53922 0.9836 0.91782 0.0
H734 H 0.48546 0.92071 0.93996 0.0
H735 H 0.54416 0.93715 0.10732 0.0
C736 C 0.53356 0.90698 0.16381 0.0
C737 C 0.51827 0.88889 0.16623 0.0
C738 C 0.49715 0.93461 0.93642 0.0
C739 C 0.5148 0.92245 0.05573 0.0
C740 C 0.4967 0.94816 0.87407 0.0
C741 C 0.51172 0.96621 0.86521 0.0
C742 C 0.5131 0.93852 0.99149 0.0
C743 C 0.52696 0.97025 0.92258 0.0
C744 C 0.53184 0.92377 0.10912 0.0
C745 C 0.50109 0.88878 0.11336 0.0
N746 N 0.52741 0.95641 0.98277 0.0
N747 N 0.49996 0.905 0.06083 0.0
H748 H 0.63182 0.55659 0.1528 0.0
H749 H 0.54594 0.4858 0.9015 0.0
H750 H 0.62417 0.48498 0.17985 0.0
H751 H 0.56988 0.55256 0.85358 0.0
H752 H 0.56932 0.4856 0.01298 0.0
H753 H 0.60385 0.55598 0.05565 0.0
C754 C 0.62373 0.54076 0.13989 0.0
C755 C 0.63032 0.52088 0.17618 0.0
C756 C 0.5693 0.50035 0.97832 0.0
C757 C 0.59807 0.51993 0.06164 0.0
C758 C 0.55581 0.50053 0.91477 0.0
C759 C 0.55579 0.51929 0.86766 0.0
C760 C 0.58266 0.51919 0.99583 0.0
C761 C 0.56923 0.53773 0.88779 0.0
C762 C 0.60787 0.54038 0.08339 0.0
C763 C 0.6194 0.50084 0.15504 0.0
N764 N 0.58193 0.53721 0.94969 0.0
N765 N 0.60398 0.50084 0.09915 0.0
H766 H 0.03613 0.6521 0.09759 0.0
H767 H 0.99431 0.53569 0.91134 0.0
H768 H 0.98115 0.61378 0.18549 0.0
H769 H 0.03277 0.587 0.80254 0.0
H770 H 0.99411 0.55946 0.02237 0.0
H771 H 0.04074 0.62359 1.00176 0.0
C772 C 0.02569 0.63718 0.09888 0.0
C773 C 1.00868 0.63518 0.15165 0.0
C774 C 1.00279 0.56536 0.97429 0.0
C775 C 0.01323 0.6025 0.03901 0.0
C776 C 1.00301 0.55169 0.9109 0.0
C777 C 0.0136 0.55921 0.84682 0.0
C778 C 0.01365 0.58653 0.9744 0.0
C779 C 0.02432 0.58035 0.85003 0.0
C780 C 0.028 0.62105 0.04302 0.0
C781 C 0.99493 0.61581 0.14752 0.0
N782 N 0.02413 0.59304 0.91194 0.0
N783 N 0.9974 0.60041 0.09246 0.0
H784 H 0.04555 0.2027 0.45127 0.0
H785 H 0.95695 0.11887 0.61333 0.0
H786 H 0.98023 0.22676 0.51775 0.0
H787 H 0.99584 0.11178 0.41553 0.0
H788 H 0.97309 0.15634 0.63018 0.0
H789 H 0.0377 0.16662 0.50879 0.0
C790 C 0.03029 0.20098 0.48316 0.0
C791 C 0.013 0.21698 0.47732 0.0
C792 C 0.97829 0.14613 0.58431 0.0
C793 C 1.00388 0.1763 0.54108 0.0
C794 C 0.96873 0.12505 0.57323 0.0
C795 C 0.97519 0.11186 0.51307 0.0
C796 C 0.9949 0.15359 0.53655 0.0
C797 C 0.99085 0.12082 0.46401 0.0
C798 C 0.02565 0.18028 0.51468 0.0
C799 C 0.9936 0.21427 0.51954 0.0
N800 N 1.00033 0.14105 0.47727 0.0
N801 N 0.98894 0.19364 0.54709 0.0
H802 H 0.32744 0.05371 0.47529 0.0
H803 H 0.40675 0.95537 0.59033 0.0
H804 H 0.29434 0.99132 0.52693 0.0
H805 H 0.40681 0.98868 0.38109 0.0
H806 H 0.36991 0.97247 0.61602 0.0
H807 H 0.36351 0.03652 0.50732 0.0
C808 C 0.32761 0.03696 0.49886 0.0
C809 C 0.30829 0.02362 0.49724 0.0
C810 C 0.37832 0.97596 0.56506 0.0
C811 C 0.34888 1.00398 0.53152 0.0
C812 C 0.39896 0.96587 0.54921 0.0
C813 C 0.41009 0.97088 0.48356 0.0
C814 C 0.36949 0.99166 0.51633 0.0
C815 C 0.39922 0.98487 0.43311 0.0
C816 C 0.34815 0.02705 0.51563 0.0
C817 C 0.30917 1.0019 0.52705 0.0
N818 N 0.37969 0.99519 0.45126 0.0
N819 N 0.32949 0.99224 0.54032 0.0
H820 H 0.47814 0.32763 0.46886 0.0
H821 H 0.57278 0.40543 0.61322 0.0
H822 H 0.54229 0.29486 0.5068 0.0
H823 H 0.54729 0.40846 0.39296 0.0
H824 H 0.55455 0.36879 0.62812 0.0
H825 H 0.49473 0.36323 0.50799 0.0
C826 C 0.49532 0.32767 0.48888 0.0
C827 C 0.50913 0.30857 0.48199 0.0
C828 C 0.55301 0.3778 0.57714 0.0
C829 C 0.52763 0.34854 0.52803 0.0
C830 C 0.56373 0.39837 0.56762 0.0
C831 C 0.56139 0.41022 0.50168 0.0
C832 C 0.53944 0.36966 0.52139 0.0
C833 C 0.54907 0.40029 0.44526 0.0
C834 C 0.50468 0.34789 0.51105 0.0
C835 C 0.53112 0.30929 0.51016 0.0
N836 N 0.53821 0.38068 0.45685 0.0
N837 N 0.54002 0.3293 0.53007 0.0
H838 H 0.22596 0.56287 0.3988 0.0
H839 H 0.1109 0.568 0.61209 0.0
H840 H 0.20046 0.50489 0.51402 0.0
H841 H 0.11711 0.58639 0.38605 0.0
H842 H 0.15114 0.55834 0.61407 0.0
H843 H 0.19294 0.58431 0.43627 0.0
C844 C 0.21395 0.55493 0.43489 0.0
C845 C 0.21591 0.53206 0.45382 0.0
C846 C 0.14361 0.56503 0.56498 0.0
C847 C 0.17835 0.55655 0.49585 0.0
C848 C 0.12089 0.57074 0.5637 0.0
C849 C 0.11082 0.57785 0.49853 0.0
C850 C 0.15617 0.5669 0.50123 0.0
C851 C 0.12436 0.58092 0.43713 0.0
C852 C 0.1951 0.56717 0.45549 0.0
C853 C 0.19948 0.52247 0.4986 0.0
N854 N 0.14646 0.57517 0.43971 0.0
N855 N 0.18107 0.53477 0.5176 0.0
H856 H 0.04336 0.79367 1.00764 0.0
H857 H 0.02543 0.91102 0.82805 0.0
H858 H 0.98305 0.8151 0.89666 0.0
H859 H 0.08772 0.89092 0.92996 0.0
H860 H 0.01422 0.87185 0.82045 0.0
H861 H 0.06428 0.82376 0.94753 0.0
C862 C 0.03487 0.80403 0.96741 0.0
C863 C 0.01159 0.80226 0.95664 0.0
C864 C 0.03052 0.87578 0.84357 0.0
C865 C 0.03493 0.83679 0.89017 0.0
C866 C 0.03687 0.89813 0.84779 0.0
C867 C 0.05735 0.90389 0.88008 0.0
C868 C 0.04435 0.85918 0.8749 0.0
C869 C 0.07168 0.88687 0.90531 0.0
C870 C 0.04671 0.82132 0.93381 0.0
C871 C 1.00105 0.81614 0.90577 0.0
N872 N 0.06464 0.86513 0.90384 0.0
N873 N 0.01274 0.8332 0.87535 0.0
H874 H 0.72536 0.03842 0.97471 0.0
H875 H 0.60378 0.02424 0.02746 0.0
H876 H 0.70048 0.97009 0.95376 0.0
H877 H 0.61973 0.06512 0.83969 0.0
H878 H 0.6416 1.00803 0.02204 0.0
H879 H 0.68931 0.05237 0.93487 0.0
C880 C 0.71288 0.02608 0.9596 0.0
C881 C 0.71612 1.00274 0.97073 0.0
C882 C 0.63658 0.02051 0.98211 0.0
C883 C 0.67442 0.01928 0.92835 0.0
C884 C 0.61518 0.02988 0.98534 0.0
C885 C 0.60848 0.04593 0.93358 0.0
C886 C 0.65149 0.02778 0.92833 0.0
C887 C 0.62424 0.05307 0.88144 0.0
C888 C 0.69212 0.03432 0.93736 0.0
C889 C 0.69863 0.98818 0.9502 0.0
N890 N 0.64526 0.04407 0.88055 0.0
N891 N 0.67813 0.99674 0.93284 0.0
H892 H 0.44495 0.71121 0.0675 0.0
H893 H 0.45771 0.61167 0.78509 0.0
H894 H 0.50619 0.69864 0.94721 0.0
H895 H 0.42311 0.60674 0.99026 0.0
H896 H 0.46514 0.65159 0.80936 0.0
H897 H 0.42659 0.68092 1.00105 0.0
C898 C 0.45432 0.7023 0.02581 0.0
C899 C 0.47717 0.70672 0.01357 0.0
C900 C 0.4552 0.6419 0.8475 0.0
C901 C 0.4563 0.67284 0.9374 0.0
C902 C 0.4509 0.61936 0.83371 0.0
C903 C 0.43973 0.6064 0.88588 0.0
C904 C 0.44783 0.65123 0.91309 0.0
C905 C 0.43153 0.61655 0.94883 0.0
C906 C 0.44383 0.68525 0.98792 0.0
C907 C 0.48858 0.69533 0.95824 0.0
N908 N 0.43593 0.63854 0.96115 0.0
N909 N 0.47806 0.67841 0.92262 0.0
H910 H 0.82941 0.5345 0.99325 0.0
H911 H 0.9013 0.42835 0.90855 0.0
H912 H 0.8005 0.46937 0.95109 0.0
H913 H 0.92732 0.49606 0.89802 0.0
H914 H 0.86302 0.44369 0.90356 0.0
H915 H 0.86396 0.5225 0.93272 0.0
C916 C 0.83014 0.51803 0.96787 0.0
C917 C 0.81261 0.50274 0.97626 0.0
C918 C 0.87712 0.45518 0.90149 0.0
C919 C 0.85176 0.48854 0.91096 0.0
C920 C 0.89881 0.44642 0.90543 0.0
C921 C 0.91711 0.46109 0.9069 0.0
C922 C 0.87402 0.47868 0.89902 0.0
C923 C 0.91341 0.48433 0.90046 0.0
C924 C 0.84981 0.51105 0.93398 0.0
C925 C 0.81401 0.48143 0.9447 0.0
N926 N 0.89219 0.49247 0.89769 0.0
N927 N 0.83364 0.47466 0.91461 0.0
H928 H 0.04972 0.19246 0.87115 0.0
H929 H 0.97938 0.08866 0.70032 0.0
H930 H 0.97881 0.1968 0.82479 0.0
H931 H 0.04643 0.08236 0.78797 0.0
H932 H 0.97967 0.12906 0.73215 0.0
H933 H 0.05017 0.15381 0.82308 0.0
C934 C 0.03442 0.18565 0.84795 0.0
C935 C 0.0144 0.19844 0.84958 0.0
C936 C 0.99451 0.11895 0.74279 0.0
C937 C 0.01447 0.15331 0.79708 0.0
C938 C 0.99433 0.09579 0.72482 0.0
C939 C 0.01291 0.08185 0.74122 0.0
C940 C 0.01369 0.12865 0.77526 0.0
C941 C 0.03166 0.09224 0.77411 0.0
C942 C 0.03457 0.16334 0.82167 0.0
C943 C 0.99482 0.18802 0.82229 0.0
N944 N 0.0316 0.1148 0.78946 0.0
N945 N 0.99533 0.16623 0.79748 0.0
H946 H 0.32914 0.04567 0.90589 0.0
H947 H 0.4293 0.98124 0.69016 0.0
H948 H 0.32433 0.97639 0.83972 0.0
H949 H 0.43776 0.0439 0.80503 0.0
H950 H 0.38932 0.98109 0.72693 0.0
H951 H 0.36636 0.04783 0.84777 0.0
C952 C 0.33536 0.03121 0.87595 0.0
C953 C 0.32294 0.01106 0.87576 0.0
C954 C 0.39983 0.99506 0.74301 0.0
C955 C 0.36661 0.01301 0.81153 0.0
C956 C 0.42277 0.99513 0.72214 0.0
C957 C 0.43725 0.01255 0.74457 0.0
C958 C 0.39088 0.01282 0.78517 0.0
C959 C 0.42753 0.02998 0.78651 0.0
C960 C 0.35695 0.03229 0.84405 0.0
C961 C 0.33276 0.99253 0.83922 0.0
N962 N 0.40518 0.0297 0.80499 0.0
N963 N 0.35387 0.9939 0.80924 0.0
H964 H 0.47468 0.32704 0.83978 0.0
H965 H 0.55177 0.43119 0.70992 0.0
H966 H 0.54545 0.3283 0.89025 0.0
H967 H 0.48116 0.43633 0.76176 0.0
H968 H 0.55107 0.39111 0.74801 0.0
H969 H 0.47822 0.36371 0.78002 0.0
C970 C 0.49124 0.33453 0.83547 0.0
C971 C 0.50987 0.32399 0.86901 0.0
C972 C 0.5357 0.40098 0.75014 0.0
C973 C 0.51399 0.36701 0.80151 0.0
C974 C 0.53605 0.42387 0.72795 0.0
C975 C 0.51649 0.43737 0.73234 0.0
C976 C 0.51548 0.39119 0.7749 0.0
C977 C 0.49671 0.4268 0.75727 0.0
C978 C 0.49317 0.35578 0.80234 0.0
C979 C 0.53071 0.33527 0.86367 0.0
N980 N 0.49671 0.40458 0.7769 0.0
N981 N 0.53219 0.3561 0.83115 0.0
H982 H 0.1849 0.47738 0.93333 0.0
H983 H 0.09594 0.53245 0.65422 0.0
H984 H 0.20388 0.53572 0.80835 0.0
H985 H 0.07917 0.49183 0.84058 0.0
H986 H 0.13605 0.5312 0.69275 0.0
H987 H 0.14741 0.47919 0.88111 0.0
C988 C 0.18134 0.49051 0.89398 0.0
C989 C 0.19788 0.50662 0.8766 0.0
C990 C 0.12347 0.52276 0.72512 0.0
C991 C 0.15397 0.50865 0.81458 0.0
C992 C 0.10054 0.52346 0.70322 0.0
C993 C 0.08381 0.51236 0.74408 0.0
C994 C 0.12986 0.51066 0.78788 0.0
C995 C 0.0911 0.5007 0.80667 0.0
C996 C 0.15969 0.49156 0.86417 0.0
C997 C 0.1919 0.5229 0.82382 0.0
N998 N 0.11326 0.50014 0.82604 0.0
N999 N 0.17046 0.52358 0.79503 0.0
H1000 H 0.04734 0.82174 0.575 0.0
H1001 H 0.97604 0.93626 0.62725 0.0
H1002 H 0.97608 0.82836 0.5363 0.0
H1003 H 0.04425 0.93042 0.70556 0.0
H1004 H 0.97652 0.89631 0.5964 0.0
H1005 H 0.04729 0.86002 0.62857 0.0
C1006 C 0.03157 0.83086 0.57992 0.0
C1007 C 0.0116 0.82146 0.55199 0.0
C1008 C 0.99142 0.90357 0.62079 0.0
C1009 C 0.01158 0.86588 0.61032 0.0
C1010 C 0.99117 0.92657 0.63842 0.0
C1011 C 1.01008 0.93697 0.66965 0.0
C1012 C 0.01088 0.89043 0.63307 0.0
C1013 C 0.02918 0.92323 0.68214 0.0
C1014 C 0.03159 0.85291 0.60959 0.0
C1015 C 0.99183 0.83461 0.55792 0.0
N1016 N 0.02915 0.90081 0.66346 0.0
N1017 N 0.99239 0.85596 0.58531 0.0
H1018 H 0.70619 0.01683 0.63923 0.0
H1019 H 0.57637 0.98883 0.56559 0.0
H1020 H 0.67694 1.00512 0.42796 0.0
H1021 H 0.59313 0.0311 0.74828 0.0
H1022 H 0.61541 0.98968 0.52678 0.0
H1023 H 0.66755 0.01869 0.69067 0.0
C1024 C 0.69187 0.01468 0.60348 0.0
C1025 C 0.69533 1.01009 0.52893 0.0
C1026 C 0.61073 0.99877 0.57556 0.0
C1027 C 0.65089 0.0119 0.58807 0.0
C1028 C 0.58825 0.9982 0.59834 0.0
C1029 C 0.58104 1.00989 0.66082 0.0
C1030 C 0.62684 0.01087 0.61541 0.0
C1031 C 0.5977 0.02183 0.69978 0.0
C1032 C 0.66977 0.01569 0.63308 0.0
C1033 C 0.67573 1.0077 0.48601 0.0
N1034 N 0.61979 0.02192 0.67674 0.0
N1035 N 0.65477 1.00832 0.51606 0.0
H1036 H 0.54235 0.69237 0.48988 0.0
H1037 H 0.48803 0.59105 0.72797 0.0
H1038 H 0.48515 0.70127 0.63109 0.0
H1039 H 0.54392 0.58203 0.58134 0.0
H1040 H 0.48806 0.63173 0.69945 0.0
H1041 H 0.54526 0.65285 0.53053 0.0
C1042 C 0.53081 0.68631 0.53101 0.0
C1043 C 0.51363 0.7006 0.55733 0.0
C1044 C 0.50039 0.62086 0.67368 0.0
C1045 C 0.51636 0.65461 0.6029 0.0
C1046 C 0.50035 0.59754 0.69007 0.0
C1047 C 0.51592 0.58273 0.65726 0.0
C1048 C 0.51618 0.62978 0.62398 0.0
C1049 C 0.53148 0.59246 0.60834 0.0
C1050 C 0.53225 0.66352 0.55351 0.0
C1051 C 0.49878 0.69118 0.60918 0.0
N1052 N 0.53117 0.61507 0.59335 0.0
N1053 N 0.50039 0.66902 0.62957 0.0
H1054 H 0.82952 0.53866 0.49386 0.0
H1055 H 0.93163 0.4828 0.72748 0.0
H1056 H 0.82352 0.4758 0.60873 0.0
H1057 H 0.93985 0.54022 0.58659 0.0
H1058 H 0.89118 0.48237 0.69691 0.0
H1059 H 0.86832 0.54229 0.54046 0.0
C1060 C 0.83599 0.52599 0.53088 0.0
C1061 C 0.82274 0.5071 0.54814 0.0
C1062 C 0.9018 0.49514 0.67284 0.0
C1063 C 0.86799 0.51076 0.60049 0.0
C1064 C 0.92504 0.49543 0.69055 0.0
C1065 C 0.93962 0.51152 0.65971 0.0
C1066 C 0.89267 0.51114 0.62395 0.0
C1067 C 0.92963 0.52738 0.61197 0.0
C1068 C 0.85841 0.52788 0.55667 0.0
C1069 C 0.83274 0.49087 0.59453 0.0
N1070 N 0.90709 0.52675 0.59575 0.0
N1071 N 0.85452 0.493 0.61848 0.0
loop_
_geom_bond_atom_site_label_1
_geom_bond_atom_site_label_2
_geom_bond_distance
_geom_bond_site_symmetry_2
_ccdc_geom_bond_type
C0 C1 1.391 . S
C0 C4 1.391 . S
C0 H42 0.948 . S
C1 C0 1.391 . S
C1 C2 1.391 . S
C2 C1 1.391 . S
C2 H58 0.947 . S
C2 C59 1.392 . S
C3 C4 1.391 . S
C3 C7 1.397 . S
C3 C59 1.419 . S
C4 C0 1.391 . S
C4 C3 1.391 . S
C4 C5 1.399 . S
C5 C4 1.399 . S
C5 C8 1.396 . S
C5 C17 1.453 . S
C5 C18 1.684 . S
H6 C30 0.948 . S
C7 C3 1.397 . S
C7 C8 1.394 . S
C7 C26 1.723 . S
C8 C5 1.396 . S
C8 C7 1.394 . S
C8 C38 1.723 . S
H9 C32 0.947 . S
H10 C33 0.948 . S
H11 C39 0.982 . S
H12 C40 0.979 . S
H13 C40 0.980 . S
H14 C40 0.983 . S
H15 C39 0.979 . S
H16 C39 0.977 . S
C17 C5 1.453 . S
C17 H46 0.982 . S
C17 H47 0.979 . S
C17 H48 0.977 . S
C18 C5 1.684 . S
C18 H43 0.979 . S
C18 H44 0.980 . S
C18 H45 0.983 . S
C19 C20 1.391 . S
C19 C24 1.391 . S
C19 H49 0.948 . S
C20 C19 1.391 . S
C20 C21 1.391 . S
C21 C20 1.391 . S
C21 C22 1.392 . S
C21 H50 0.947 . S
C22 C21 1.392 . S
C22 C23 1.419 . S
C22 H51 0.948 . S
C23 C22 1.419 . S
C23 C24 1.391 . S
C23 C27 1.397 . S
C24 C19 1.391 . S
C24 C23 1.391 . S
C24 C25 1.399 . S
C25 C24 1.399 . S
C25 C26 1.396 . S
C25 C28 1.453 . S
C25 C29 1.684 . S
C26 C7 1.723 . S
C26 C25 1.396 . S
C26 C27 1.394 . S
C27 C23 1.397 . S
C27 C26 1.394 . S
C27 C37 1.723 . S
C28 C25 1.453 . S
C28 H52 0.982 . S
C28 H53 0.979 . S
C28 H54 0.977 . S
C29 C25 1.684 . S
C29 H55 0.979 . S
C29 H56 0.980 . S
C29 H57 0.983 . S
C30 H6 0.948 . S
C30 C31 1.391 . S
C30 C35 1.391 . S
C31 C30 1.391 . S
C31 C32 1.391 . S
C32 H9 0.947 . S
C32 C31 1.391 . S
C32 C33 1.392 . S
C33 H10 0.948 . S
C33 C32 1.392 . S
C33 C34 1.419 . S
C34 C33 1.419 . S
C34 C35 1.391 . S
C34 C38 1.397 . S
C35 C30 1.391 . S
C35 C34 1.391 . S
C35 C36 1.399 . S
C36 C35 1.399 . S
C36 C37 1.396 . S
C36 C39 1.453 . S
C36 C40 1.684 . S
C37 C27 1.723 . S
C37 C36 1.396 . S
C37 C38 1.394 . S
C38 C8 1.723 . S
C38 C34 1.397 . S
C38 C37 1.394 . S
C39 H11 0.982 . S
C39 H15 0.979 . S
C39 H16 0.977 . S
C39 C36 1.453 . S
C40 H12 0.979 . S
C40 H13 0.980 . S
C40 H14 0.983 . S
C40 C36 1.684 . S
H41 C59 0.948 . S
H42 C0 0.948 . S
H43 C18 0.979 . S
H44 C18 0.980 . S
H45 C18 0.983 . S
H46 C17 0.982 . S
H47 C17 0.979 . S
H48 C17 0.977 . S
H49 C19 0.948 . S
H50 C21 0.947 . S
H51 C22 0.948 . S
H52 C28 0.982 . S
H53 C28 0.979 . S
H54 C28 0.977 . S
H55 C29 0.979 . S
H56 C29 0.980 . S
H57 C29 0.983 . S
H58 C2 0.947 . S
C59 C2 1.392 . S
C59 C3 1.419 . S
C59 H41 0.948 . S
C60 C61 1.391 . S
C60 C64 1.391 . S
C60 H102 0.948 . S
C61 C60 1.391 . S
C61 C62 1.391 . S
C62 C61 1.391 . S
C62 H118 0.947 . S
C62 C119 1.392 . S
C63 C64 1.391 . S
C63 C67 1.397 1_655 S
C63 C119 1.419 . S
C64 C60 1.391 . S
C64 C63 1.391 . S
C64 C65 1.399 . S
C65 C64 1.399 . S
C65 C68 1.396 1_655 S
C65 C77 1.453 1_655 S
C65 C78 1.684 . S
H66 C90 0.948 . S
C67 C63 1.397 1_455 S
C67 C68 1.394 . S
C67 C86 1.723 . S
C68 C65 1.396 1_455 S
C68 C67 1.394 . S
C68 C98 1.723 . S
H69 C92 0.947 . S
H70 C93 0.948 . S
H71 C99 0.982 . S
H72 C100 0.979 . S
H73 C100 0.980 . S
H74 C100 0.983 . S
H75 C99 0.979 . S
H76 C99 0.977 . S
C77 C65 1.453 1_455 S
C77 H106 0.982 . S
C77 H107 0.979 . S
C77 H108 0.977 . S
C78 C65 1.684 . S
C78 H103 0.979 . S
C78 H104 0.980 . S
C78 H105 0.983 . S
C79 C80 1.391 . S
C79 C84 1.391 . S
C79 H109 0.948 . S
C80 C79 1.391 . S
C80 C81 1.391 . S
C81 C80 1.391 . S
C81 C82 1.392 . S
C81 H110 0.947 . S
C82 C81 1.392 . S
C82 C83 1.419 . S
C82 H111 0.948 . S
C83 C82 1.419 . S
C83 C84 1.391 . S
C83 C87 1.397 1_655 S
C84 C79 1.391 . S
C84 C83 1.391 . S
C84 C85 1.399 . S
C85 C84 1.399 . S
C85 C86 1.396 1_655 S
C85 C88 1.453 1_655 S
C85 C89 1.684 . S
C86 C67 1.723 . S
C86 C85 1.396 1_455 S
C86 C87 1.394 . S
C87 C83 1.397 1_455 S
C87 C86 1.394 . S
C87 C97 1.723 . S
C88 C85 1.453 1_455 S
C88 H112 0.982 . S
C88 H113 0.979 . S
C88 H114 0.977 . S
C89 C85 1.684 . S
C89 H115 0.979 . S
C89 H116 0.980 . S
C89 H117 0.983 . S
C90 H66 0.948 . S
C90 C91 1.391 . S
C90 C95 1.391 . S
C91 C90 1.391 . S
C91 C92 1.391 . S
C92 H69 0.947 . S
C92 C91 1.391 . S
C92 C93 1.392 . S
C93 H70 0.948 . S
C93 C92 1.392 . S
C93 C94 1.419 . S
C94 C93 1.419 . S
C94 C95 1.391 . S
C94 C98 1.397 1_655 S
C95 C90 1.391 . S
C95 C94 1.391 . S
C95 C96 1.399 . S
C96 C95 1.399 . S
C96 C97 1.396 1_655 S
C96 C99 1.453 1_655 S
C96 C100 1.684 . S
C97 C87 1.723 . S
C97 C96 1.396 1_455 S
C97 C98 1.394 . S
C98 C68 1.723 . S
C98 C94 1.397 1_455 S
C98 C97 1.394 . S
C99 H71 0.982 . S
C99 H75 0.979 . S
C99 H76 0.977 . S
C99 C96 1.453 1_455 S
C100 H72 0.979 . S
C100 H73 0.980 . S
C100 H74 0.983 . S
C100 C96 1.684 . S
H101 C119 0.948 . S
H102 C60 0.948 . S
H103 C78 0.979 . S
H104 C78 0.980 . S
H105 C78 0.983 . S
H106 C77 0.982 . S
H107 C77 0.979 . S
H108 C77 0.977 . S
H109 C79 0.948 . S
H110 C81 0.947 . S
H111 C82 0.948 . S
H112 C88 0.982 . S
H113 C88 0.979 . S
H114 C88 0.977 . S
H115 C89 0.979 . S
H116 C89 0.980 . S
H117 C89 0.983 . S
H118 C62 0.947 . S
C119 C62 1.392 . S
C119 C63 1.419 . S
C119 H101 0.948 . S
C120 C121 1.391 . S
C120 C124 1.391 . S
C120 H162 0.948 . S
C121 C120 1.391 . S
C121 C122 1.391 . S
C122 C121 1.391 . S
C122 H178 0.947 . S
C122 C179 1.392 . S
C123 C124 1.391 . S
C123 C127 1.397 1_565 S
C123 C179 1.419 . S
C124 C120 1.391 . S
C124 C123 1.391 . S
C124 C125 1.399 . S
C125 C124 1.399 . S
C125 C128 1.396 1_565 S
C125 C137 1.453 1_565 S
C125 C138 1.684 . S
H126 C150 0.948 . S
C127 C123 1.397 1_545 S
C127 C128 1.394 . S
C127 C146 1.723 . S
C128 C125 1.396 1_545 S
C128 C127 1.394 . S
C128 C158 1.723 . S
H129 C152 0.947 . S
H130 C153 0.948 . S
H131 C159 0.982 . S
H132 C160 0.979 . S
H133 C160 0.980 . S
H134 C160 0.983 . S
H135 C159 0.979 . S
H136 C159 0.977 . S
C137 C125 1.453 1_545 S
C137 H166 0.982 . S
C137 H167 0.979 . S
C137 H168 0.977 . S
C138 C125 1.684 . S
C138 H163 0.979 . S
C138 H164 0.980 . S
C138 H165 0.983 . S
C139 C140 1.391 . S
C139 C144 1.391 . S
C139 H169 0.948 . S
C140 C139 1.391 . S
C140 C141 1.391 . S
C141 C140 1.391 . S
C141 C142 1.392 . S
C141 H170 0.947 . S
C142 C141 1.392 . S
C142 C143 1.419 . S
C142 H171 0.948 . S
C143 C142 1.419 . S
C143 C144 1.391 . S
C143 C147 1.397 1_565 S
C144 C139 1.391 . S
C144 C143 1.391 . S
C144 C145 1.399 . S
C145 C144 1.399 . S
C145 C146 1.396 1_565 S
C145 C148 1.453 1_565 S
C145 C149 1.684 . S
C146 C127 1.723 . S
C146 C145 1.396 1_545 S
C146 C147 1.394 . S
C147 C143 1.397 1_545 S
C147 C146 1.394 . S
C147 C157 1.723 . S
C148 C145 1.453 1_545 S
C148 H172 0.982 . S
C148 H173 0.979 . S
C148 H174 0.977 . S
C149 C145 1.684 . S
C149 H175 0.979 . S
C149 H176 0.980 . S
C149 H177 0.983 . S
C150 H126 0.948 . S
C150 C151 1.391 . S
C150 C155 1.391 . S
C151 C150 1.391 . S
C151 C152 1.391 . S
C152 H129 0.947 . S
C152 C151 1.391 . S
C152 C153 1.392 . S
C153 H130 0.948 . S
C153 C152 1.392 . S
C153 C154 1.419 . S
C154 C153 1.419 . S
C154 C155 1.391 . S
C154 C158 1.397 1_565 S
C155 C150 1.391 . S
C155 C154 1.391 . S
C155 C156 1.399 . S
C156 C155 1.399 . S
C156 C157 1.396 1_565 S
C156 C159 1.453 1_565 S
C156 C160 1.684 . S
C157 C147 1.723 . S
C157 C156 1.396 1_545 S
C157 C158 1.394 . S
C158 C128 1.723 . S
C158 C154 1.397 1_545 S
C158 C157 1.394 . S
C159 H131 0.982 . S
C159 H135 0.979 . S
C159 H136 0.977 . S
C159 C156 1.453 1_545 S
C160 H132 0.979 . S
C160 H133 0.980 . S
C160 H134 0.983 . S
C160 C156 1.684 . S
H161 C179 0.948 . S
H162 C120 0.948 . S
H163 C138 0.979 . S
H164 C138 0.980 . S
H165 C138 0.983 . S
H166 C137 0.982 . S
H167 C137 0.979 . S
H168 C137 0.977 . S
H169 C139 0.948 . S
H170 C141 0.947 . S
H171 C142 0.948 . S
H172 C148 0.982 . S
H173 C148 0.979 . S
H174 C148 0.977 . S
H175 C149 0.979 . S
H176 C149 0.980 . S
H177 C149 0.983 . S
H178 C122 0.947 . S
C179 C122 1.392 . S
C179 C123 1.419 . S
C179 H161 0.948 . S
C180 C181 1.391 . S
C180 C184 1.391 . S
C180 H222 0.948 . S
C181 C180 1.391 . S
C181 C182 1.391 . S
C182 C181 1.391 . S
C182 H238 0.947 . S
C182 C239 1.392 . S
C183 C184 1.391 . S
C183 C187 1.397 . S
C183 C239 1.419 . S
C184 C180 1.391 . S
C184 C183 1.391 . S
C184 C185 1.399 . S
C185 C184 1.399 . S
C185 C188 1.396 . S
C185 C197 1.453 . S
C185 C198 1.684 . S
H186 C210 0.948 . S
C187 C183 1.397 . S
C187 C188 1.394 . S
C187 C206 1.723 . S
C188 C185 1.396 . S
C188 C187 1.394 . S
C188 C218 1.723 . S
H189 C212 0.947 . S
H190 C213 0.948 . S
H191 C219 0.982 . S
H192 C220 0.979 . S
H193 C220 0.980 . S
H194 C220 0.983 . S
H195 C219 0.979 . S
H196 C219 0.977 . S
C197 C185 1.453 . S
C197 H226 0.982 . S
C197 H227 0.979 . S
C197 H228 0.977 . S
C198 C185 1.684 . S
C198 H223 0.979 . S
C198 H224 0.980 . S
C198 H225 0.983 . S
C199 C200 1.391 . S
C199 C204 1.391 . S
C199 H229 0.948 . S
C200 C199 1.391 . S
C200 C201 1.391 . S
C201 C200 1.391 . S
C201 C202 1.392 . S
C201 H230 0.947 . S
C202 C201 1.392 . S
C202 C203 1.419 . S
C202 H231 0.948 . S
C203 C202 1.419 . S
C203 C204 1.391 . S
C203 C207 1.397 . S
C204 C199 1.391 . S
C204 C203 1.391 . S
C204 C205 1.399 . S
C205 C204 1.399 . S
C205 C206 1.396 . S
C205 C208 1.453 . S
C205 C209 1.684 . S
C206 C187 1.723 . S
C206 C205 1.396 . S
C206 C207 1.394 . S
C207 C203 1.397 . S
C207 C206 1.394 . S
C207 C217 1.723 . S
C208 C205 1.453 . S
C208 H232 0.982 . S
C208 H233 0.979 . S
C208 H234 0.977 . S
C209 C205 1.684 . S
C209 H235 0.979 . S
C209 H236 0.980 . S
C209 H237 0.983 . S
C210 H186 0.948 . S
C210 C211 1.391 . S
C210 C215 1.391 . S
C211 C210 1.391 . S
C211 C212 1.391 . S
C212 H189 0.947 . S
C212 C211 1.391 . S
C212 C213 1.392 . S
C213 H190 0.948 . S
C213 C212 1.392 . S
C213 C214 1.419 . S
C214 C213 1.419 . S
C214 C215 1.391 . S
C214 C218 1.397 . S
C215 C210 1.391 . S
C215 C214 1.391 . S
C215 C216 1.399 . S
C216 C215 1.399 . S
C216 C217 1.396 . S
C216 C219 1.453 . S
C216 C220 1.684 . S
C217 C207 1.723 . S
C217 C216 1.396 . S
C217 C218 1.394 . S
C218 C188 1.723 . S
C218 C214 1.397 . S
C218 C217 1.394 . S
C219 H191 0.982 . S
C219 H195 0.979 . S
C219 H196 0.977 . S
C219 C216 1.453 . S
C220 H192 0.979 . S
C220 H193 0.980 . S
C220 H194 0.983 . S
C220 C216 1.684 . S
H221 C239 0.948 . S
H222 C180 0.948 . S
H223 C198 0.979 . S
H224 C198 0.980 . S
H225 C198 0.983 . S
H226 C197 0.982 . S
H227 C197 0.979 . S
H228 C197 0.977 . S
H229 C199 0.948 . S
H230 C201 0.947 . S
H231 C202 0.948 . S
H232 C208 0.982 . S
H233 C208 0.979 . S
H234 C208 0.977 . S
H235 C209 0.979 . S
H236 C209 0.980 . S
H237 C209 0.983 . S
H238 C182 0.947 . S
C239 C182 1.392 . S
C239 C183 1.419 . S
C239 H221 0.948 . S
C240 C241 1.391 . S
C240 C244 1.391 . S
C240 H282 0.948 . S
C241 C240 1.391 . S
C241 C242 1.391 . S
C242 C241 1.391 . S
C242 H298 0.947 . S
C242 C299 1.392 . S
C243 C244 1.391 . S
C243 C247 1.397 . S
C243 C299 1.419 . S
C244 C240 1.391 . S
C244 C243 1.391 . S
C244 C245 1.399 1_554 S
C245 C244 1.399 1_556 S
C245 C248 1.396 . S
C245 C257 1.453 . S
C245 C258 1.684 . S
H246 C270 0.948 . S
C247 C243 1.397 . S
C247 C248 1.394 1_554 S
C247 C266 1.723 . S
C248 C245 1.396 . S
C248 C247 1.394 1_556 S
C248 C278 1.723 . S
H249 C272 0.947 . S
H250 C273 0.948 . S
H251 C279 0.982 . S
H252 C280 0.979 . S
H253 C280 0.980 1_554 S
H254 C280 0.983 . S
H255 C279 0.979 . S
H256 C279 0.977 1_554 S
C257 C245 1.453 . S
C257 H286 0.982 . S
C257 H287 0.979 . S
C257 H288 0.977 . S
C258 C245 1.684 . S
C258 H283 0.979 . S
C258 H284 0.980 . S
C258 H285 0.983 . S
C259 C260 1.391 . S
C259 C264 1.391 . S
C259 H289 0.948 . S
C260 C259 1.391 . S
C260 C261 1.391 . S
C261 C260 1.391 . S
C261 C262 1.392 . S
C261 H290 0.947 . S
C262 C261 1.392 . S
C262 C263 1.419 . S
C262 H291 0.948 . S
C263 C262 1.419 . S
C263 C264 1.391 . S
C263 C267 1.397 . S
C264 C259 1.391 . S
C264 C263 1.391 . S
C264 C265 1.399 . S
C265 C264 1.399 . S
C265 C266 1.396 . S
C265 C268 1.453 . S
C265 C269 1.684 . S
C266 C247 1.723 . S
C266 C265 1.396 . S
C266 C267 1.394 . S
C267 C263 1.397 . S
C267 C266 1.394 . S
C267 C277 1.722 1_554 S
C268 C265 1.453 . S
C268 H292 0.982 . S
C268 H293 0.979 . S
C268 H294 0.977 . S
C269 C265 1.684 . S
C269 H295 0.979 . S
C269 H296 0.980 . S
C269 H297 0.983 . S
C270 H246 0.948 . S
C270 C271 1.391 . S
C270 C275 1.391 . S
C271 C270 1.391 . S
C271 C272 1.391 . S
C272 H249 0.947 . S
C272 C271 1.391 . S
C272 C273 1.392 . S
C273 H250 0.948 . S
C273 C272 1.392 . S
C273 C274 1.419 . S
C274 C273 1.419 . S
C274 C275 1.391 . S
C274 C278 1.397 . S
C275 C270 1.391 . S
C275 C274 1.391 . S
C275 C276 1.399 . S
C276 C275 1.399 . S
C276 C277 1.397 . S
C276 C279 1.453 . S
C276 C280 1.684 . S
C277 C267 1.722 1_556 S
C277 C276 1.397 . S
C277 C278 1.395 . S
C278 C248 1.723 . S
C278 C274 1.397 . S
C278 C277 1.395 . S
C279 H251 0.982 . S
C279 H255 0.979 . S
C279 H256 0.977 1_556 S
C279 C276 1.453 . S
C280 H252 0.979 . S
C280 H253 0.980 1_556 S
C280 H254 0.983 . S
C280 C276 1.684 . S
H281 C299 0.948 . S
H282 C240 0.948 . S
H283 C258 0.979 . S
H284 C258 0.980 . S
H285 C258 0.983 . S
H286 C257 0.982 . S
H287 C257 0.979 . S
H288 C257 0.977 . S
H289 C259 0.948 . S
H290 C261 0.947 . S
H291 C262 0.948 . S
H292 C268 0.982 . S
H293 C268 0.979 . S
H294 C268 0.977 . S
H295 C269 0.979 . S
H296 C269 0.980 . S
H297 C269 0.983 . S
H298 C242 0.947 . S
C299 C242 1.392 . S
C299 C243 1.419 . S
C299 H281 0.948 . S
C300 C301 1.391 . S
C300 C304 1.391 . S
C300 H342 0.948 . S
C301 C300 1.391 . S
C301 C302 1.391 . S
C302 C301 1.391 . S
C302 H358 0.947 . S
C302 C359 1.392 . S
C303 C304 1.391 . S
C303 C307 1.396 1_655 S
C303 C359 1.419 . S
C304 C300 1.391 . S
C304 C303 1.391 . S
C304 C305 1.399 . S
C305 C304 1.399 . S
C305 C308 1.396 1_655 S
C305 C317 1.453 1_655 S
C305 C318 1.684 . S
H306 C330 0.948 . S
C307 C303 1.396 1_455 S
C307 C308 1.395 . S
C307 C326 1.723 . S
C308 C305 1.396 1_455 S
C308 C307 1.395 . S
C308 C338 1.723 . S
H309 C332 0.947 . S
H310 C333 0.948 . S
H311 C339 0.982 . S
H312 C340 0.979 . S
H313 C340 0.980 . S
H314 C340 0.983 . S
H315 C339 0.979 . S
H316 C339 0.977 . S
C317 C305 1.453 1_455 S
C317 H346 0.982 . S
C317 H347 0.979 . S
C317 H348 0.977 . S
C318 C305 1.684 . S
C318 H343 0.979 . S
C318 H344 0.980 . S
C318 H345 0.983 . S
C319 C320 1.391 . S
C319 C324 1.391 . S
C319 H349 0.948 . S
C320 C319 1.391 . S
C320 C321 1.391 . S
C321 C320 1.391 . S
C321 C322 1.392 . S
C321 H350 0.947 . S
C322 C321 1.392 . S
C322 C323 1.419 . S
C322 H351 0.948 . S
C323 C322 1.419 . S
C323 C324 1.391 . S
C323 C327 1.396 1_655 S
C324 C319 1.391 . S
C324 C323 1.391 . S
C324 C325 1.399 . S
C325 C324 1.399 . S
C325 C326 1.396 1_656 S
C325 C328 1.453 1_655 S
C325 C329 1.684 . S
C326 C307 1.723 . S
C326 C325 1.396 1_454 S
C326 C327 1.395 1_554 S
C327 C323 1.396 1_455 S
C327 C326 1.395 1_556 S
C327 C337 1.723 . S
C328 C325 1.453 1_455 S
C328 H352 0.982 . S
C328 H353 0.979 . S
C328 H354 0.977 1_556 S
C329 C325 1.684 . S
C329 H355 0.979 . S
C329 H356 0.980 1_556 S
C329 H357 0.983 . S
C330 H306 0.948 . S
C330 C331 1.391 . S
C330 C335 1.391 . S
C331 C330 1.391 . S
C331 C332 1.391 . S
C332 H309 0.947 . S
C332 C331 1.391 . S
C332 C333 1.392 . S
C333 H310 0.948 . S
C333 C332 1.392 . S
C333 C334 1.419 . S
C334 C333 1.419 . S
C334 C335 1.391 . S
C334 C338 1.396 1_655 S
C335 C330 1.391 . S
C335 C334 1.391 . S
C335 C336 1.399 1_554 S
C336 C335 1.399 1_556 S
C336 C337 1.397 1_655 S
C336 C339 1.453 1_655 S
C336 C340 1.684 . S
C337 C327 1.723 . S
C337 C336 1.397 1_455 S
C337 C338 1.394 1_556 S
C338 C308 1.723 . S
C338 C334 1.396 1_455 S
C338 C337 1.394 1_554 S
C339 H311 0.982 . S
C339 H315 0.979 . S
C339 H316 0.977 . S
C339 C336 1.453 1_455 S
C340 H312 0.979 . S
C340 H313 0.980 . S
C340 H314 0.983 . S
C340 C336 1.684 . S
H341 C359 0.948 . S
H342 C300 0.948 . S
H343 C318 0.979 . S
H344 C318 0.980 . S
H345 C318 0.983 . S
H346 C317 0.982 . S
H347 C317 0.979 . S
H348 C317 0.977 . S
H349 C319 0.948 . S
H350 C321 0.947 . S
H351 C322 0.948 . S
H352 C328 0.982 . S
H353 C328 0.979 . S
H354 C328 0.977 1_554 S
H355 C329 0.979 . S
H356 C329 0.980 1_554 S
H357 C329 0.983 . S
H358 C302 0.947 . S
C359 C302 1.392 . S
C359 C303 1.419 . S
C359 H341 0.948 . S
C360 C361 1.391 . S
C360 C364 1.391 . S
C360 H402 0.948 . S
C361 C360 1.391 . S
C361 C362 1.391 . S
C362 C361 1.391 . S
C362 H418 0.947 . S
C362 C419 1.392 . S
C363 C364 1.391 . S
C363 C367 1.397 1_545 S
C363 C419 1.419 . S
C364 C360 1.391 . S
C364 C363 1.391 . S
C364 C365 1.399 . S
C365 C364 1.399 . S
C365 C368 1.396 1_545 S
C365 C377 1.453 1_545 S
C365 C378 1.684 . S
H366 C390 0.948 . S
C367 C363 1.397 1_565 S
C367 C368 1.394 . S
C367 C386 1.723 1_556 S
C368 C365 1.396 1_565 S
C368 C367 1.394 . S
C368 C398 1.723 1_556 S
H369 C392 0.947 1_556 S
H370 C393 0.948 1_556 S
H371 C399 0.982 . S
H372 C400 0.979 . S
H373 C400 0.980 . S
H374 C400 0.983 . S
H375 C399 0.979 . S
H376 C399 0.977 . S
C377 C365 1.453 1_565 S
C377 H406 0.982 . S
C377 H407 0.979 . S
C377 H408 0.977 . S
C378 C365 1.684 . S
C378 H403 0.979 . S
C378 H404 0.980 . S
C378 H405 0.983 . S
C379 C380 1.391 . S
C379 C384 1.391 . S
C379 H409 0.948 . S
C380 C379 1.391 . S
C380 C381 1.391 . S
C381 C380 1.391 . S
C381 C382 1.392 . S
C381 H410 0.947 . S
C382 C381 1.392 . S
C382 C383 1.419 . S
C382 H411 0.948 . S
C383 C382 1.419 . S
C383 C384 1.391 . S
C383 C387 1.397 1_545 S
C384 C379 1.391 . S
C384 C383 1.391 . S
C384 C385 1.399 . S
C385 C384 1.399 . S
C385 C386 1.396 1_545 S
C385 C388 1.453 1_545 S
C385 C389 1.684 . S
C386 C367 1.723 1_554 S
C386 C385 1.396 1_565 S
C386 C387 1.394 . S
C387 C383 1.397 1_565 S
C387 C386 1.394 . S
C387 C397 1.723 . S
C388 C385 1.453 1_565 S
C388 H412 0.982 . S
C388 H413 0.979 . S
C388 H414 0.977 1_554 S
C389 C385 1.684 . S
C389 H415 0.979 . S
C389 H416 0.980 1_554 S
C389 H417 0.983 . S
C390 H366 0.948 . S
C390 C391 1.391 . S
C390 C395 1.391 . S
C391 C390 1.391 . S
C391 C392 1.391 . S
C392 H369 0.947 1_554 S
C392 C391 1.391 . S
C392 C393 1.392 . S
C393 H370 0.948 1_554 S
C393 C392 1.392 . S
C393 C394 1.419 . S
C394 C393 1.419 . S
C394 C395 1.391 . S
C394 C398 1.397 1_545 S
C395 C390 1.391 . S
C395 C394 1.391 . S
C395 C396 1.399 . S
C396 C395 1.399 . S
C396 C397 1.396 1_545 S
C396 C399 1.453 1_545 S
C396 C400 1.684 . S
C397 C387 1.723 . S
C397 C396 1.396 1_565 S
C397 C398 1.394 . S
C398 C368 1.723 1_554 S
C398 C394 1.397 1_565 S
C398 C397 1.394 . S
C399 H371 0.982 . S
C399 H375 0.979 . S
C399 H376 0.977 . S
C399 C396 1.453 1_565 S
C400 H372 0.979 . S
C400 H373 0.980 . S
C400 H374 0.983 . S
C400 C396 1.684 . S
H401 C419 0.948 . S
H402 C360 0.948 . S
H403 C378 0.979 . S
H404 C378 0.980 . S
H405 C378 0.983 . S
H406 C377 0.982 . S
H407 C377 0.979 . S
H408 C377 0.977 . S
H409 C379 0.948 . S
H410 C381 0.947 . S
H411 C382 0.948 . S
H412 C388 0.982 . S
H413 C388 0.979 . S
H414 C388 0.977 1_556 S
H415 C389 0.979 . S
H416 C389 0.980 1_556 S
H417 C389 0.983 . S
H418 C362 0.947 . S
C419 C362 1.392 . S
C419 C363 1.419 . S
C419 H401 0.948 . S
C420 C421 1.391 . S
C420 C424 1.391 . S
C420 H462 0.948 . S
C421 C420 1.391 . S
C421 C422 1.391 . S
C422 C421 1.391 . S
C422 H478 0.947 . S
C422 C479 1.392 . S
C423 C424 1.391 . S
C423 C427 1.397 . S
C423 C479 1.419 . S
C424 C420 1.391 . S
C424 C423 1.391 . S
C424 C425 1.399 . S
C425 C424 1.399 . S
C425 C428 1.396 . S
C425 C437 1.453 . S
C425 C438 1.684 . S
H426 C450 0.948 . S
C427 C423 1.397 . S
C427 C428 1.394 . S
C427 C446 1.723 1_556 S
C428 C425 1.396 . S
C428 C427 1.394 . S
C428 C458 1.723 1_556 S
H429 C452 0.947 1_556 S
H430 C453 0.951 . S
H431 C459 0.982 . S
H432 C460 0.979 . S
H433 C460 0.980 . S
H434 C460 0.983 . S
H435 C459 0.979 . S
H436 C459 0.977 . S
C437 C425 1.453 . S
C437 H466 0.982 . S
C437 H467 0.979 . S
C437 H468 0.977 . S
C438 C425 1.684 . S
C438 H463 0.979 . S
C438 H464 0.980 . S
C438 H465 0.983 . S
C439 C440 1.391 . S
C439 C444 1.391 . S
C439 H469 0.948 . S
C440 C439 1.391 . S
C440 C441 1.391 . S
C441 C440 1.391 . S
C441 C442 1.392 . S
C441 H470 0.947 . S
C442 C441 1.392 . S
C442 C443 1.419 . S
C442 H471 0.948 . S
C443 C442 1.419 . S
C443 C444 1.391 . S
C443 C447 1.397 . S
C444 C439 1.391 . S
C444 C443 1.391 . S
C444 C445 1.399 . S
C445 C444 1.399 . S
C445 C446 1.396 . S
C445 C448 1.453 . S
C445 C449 1.684 . S
C446 C427 1.723 1_554 S
C446 C445 1.396 . S
C446 C447 1.394 . S
C447 C443 1.397 . S
C447 C446 1.394 . S
C447 C457 1.723 . S
C448 C445 1.453 . S
C448 H472 0.982 . S
C448 H473 0.979 . S
C448 H474 0.977 1_554 S
C449 C445 1.684 . S
C449 H475 0.979 . S
C449 H476 0.980 1_554 S
C449 H477 0.983 . S
C450 H426 0.948 . S
C450 C451 1.391 . S
C450 C455 1.391 . S
C451 C450 1.391 . S
C451 C452 1.391 . S
C452 H429 0.947 1_554 S
C452 C451 1.391 . S
C452 C453 1.391 1_554 S
C453 H430 0.951 . S
C453 C452 1.391 1_556 S
C453 C454 1.416 1_556 S
C454 C453 1.416 1_554 S
C454 C455 1.391 . S
C454 C458 1.397 . S
C455 C450 1.391 . S
C455 C454 1.391 . S
C455 C456 1.399 . S
C456 C455 1.399 . S
C456 C457 1.396 . S
C456 C459 1.453 . S
C456 C460 1.684 . S
C457 C447 1.723 . S
C457 C456 1.396 . S
C457 C458 1.394 . S
C458 C428 1.723 1_554 S
C458 C454 1.397 . S
C458 C457 1.394 . S
C459 H431 0.982 . S
C459 H435 0.979 . S
C459 H436 0.977 . S
C459 C456 1.453 . S
C460 H432 0.979 . S
C460 H433 0.980 . S
C460 H434 0.983 . S
C460 C456 1.684 . S
H461 C479 0.948 . S
H462 C420 0.948 . S
H463 C438 0.979 . S
H464 C438 0.980 . S
H465 C438 0.983 . S
H466 C437 0.982 . S
H467 C437 0.979 . S
H468 C437 0.977 . S
H469 C439 0.948 . S
H470 C441 0.947 . S
H471 C442 0.948 . S
H472 C448 0.982 . S
H473 C448 0.979 . S
H474 C448 0.977 1_556 S
H475 C449 0.979 . S
H476 C449 0.980 1_556 S
H477 C449 0.983 . S
H478 C422 0.947 . S
C479 C422 1.392 . S
C479 C423 1.419 . S
C479 H461 0.948 . S
La480 C482 2.928 . S
La480 O500 2.521 . S
La480 O501 2.628 . S
La480 O502 2.554 . S
La480 O503 2.757 1_565 S
La480 O504 2.470 . S
La480 O509 2.482 1_455 S
La480 O511 2.503 1_565 S
La481 C491 2.928 . S
La481 O503 2.482 1_655 S
La481 O505 2.503 1_545 S
La481 O506 2.521 . S
La481 O507 2.628 . S
La481 O508 2.554 . S
La481 O509 2.757 1_545 S
La481 O510 2.470 . S
C482 La480 2.928 . S
C482 C483 1.503 . S
C482 O500 1.261 . S
C482 O501 1.243 . S
C483 C482 1.503 . S
C483 C484 1.394 . S
C483 C488 1.373 . S
C484 C483 1.394 . S
C484 C485 1.380 . S
C484 H512 0.930 . S
C485 C484 1.380 . S
C485 C486 1.376 . S
C485 H513 0.930 . S
C486 C485 1.376 . S
C486 C487 1.370 . S
C487 C486 1.370 . S
C487 C488 1.396 . S
C487 H514 0.940 . S
C488 C483 1.373 . S
C488 C487 1.396 . S
C488 H515 0.929 1_455 S
C489 O502 1.240 . S
C489 O503 1.289 1_565 S
C490 O504 1.258 1_655 S
C490 O505 1.256 . S
C491 La481 2.928 . S
C491 C492 1.503 . S
C491 O506 1.261 . S
C491 O507 1.243 . S
C492 C491 1.503 . S
C492 C493 1.394 . S
C492 C497 1.373 . S
C493 C492 1.394 . S
C493 C494 1.380 . S
C493 H516 0.930 . S
C494 C493 1.380 . S
C494 C495 1.376 . S
C494 H517 0.930 . S
C495 C494 1.376 . S
C495 C496 1.370 . S
C496 C495 1.370 . S
C496 C497 1.396 . S
C496 H518 0.931 . S
C497 C492 1.373 . S
C497 C496 1.396 . S
C497 H519 0.929 1_655 S
C498 O508 1.240 . S
C498 O509 1.289 1_545 S
C499 O510 1.258 1_455 S
C499 O511 1.256 . S
O500 La480 2.521 . S
O500 C482 1.261 . S
O501 La480 2.628 . S
O501 C482 1.243 . S
O502 La480 2.554 . S
O502 C489 1.240 . S
O503 La480 2.757 1_545 S
O503 La481 2.482 1_455 S
O503 C489 1.289 1_545 S
O504 La480 2.470 . S
O504 C490 1.258 1_455 S
O505 La481 2.503 1_565 S
O505 C490 1.256 . S
O506 La481 2.521 . S
O506 C491 1.261 . S
O507 La481 2.628 . S
O507 C491 1.243 . S
O508 La481 2.554 . S
O508 C498 1.240 . S
O509 La480 2.482 1_655 S
O509 La481 2.757 1_565 S
O509 C498 1.289 1_565 S
O510 La481 2.470 . S
O510 C499 1.258 1_655 S
O511 La480 2.503 1_545 S
O511 C499 1.256 . S
H512 C484 0.930 . S
H513 C485 0.930 . S
H514 C487 0.940 . S
H515 C488 0.929 1_655 S
H516 C493 0.930 . S
H517 C494 0.930 . S
H518 C496 0.931 . S
H519 C497 0.929 1_455 S
La520 C522 2.928 . S
La520 O540 2.521 . S
La520 O541 2.628 . S
La520 O542 2.554 . S
La520 O543 2.757 . S
La520 O544 2.470 . S
La520 O549 2.482 1_545 S
La520 O551 2.503 . S
La521 C531 2.928 . S
La521 O543 2.482 1_565 S
La521 O545 2.503 . S
La521 O546 2.521 . S
La521 O547 2.628 . S
La521 O548 2.554 . S
La521 O549 2.757 . S
La521 O550 2.470 . S
C522 La520 2.928 . S
C522 C523 1.503 . S
C522 O540 1.261 . S
C522 O541 1.243 . S
C523 C522 1.503 . S
C523 C524 1.394 . S
C523 C528 1.373 . S
C524 C523 1.394 . S
C524 C525 1.380 . S
C524 H552 0.930 . S
C525 C524 1.380 . S
C525 C526 1.376 . S
C525 H553 0.930 . S
C526 C525 1.376 . S
C526 C527 1.370 . S
C527 C526 1.370 . S
C527 C528 1.396 . S
C527 H554 0.928 1_545 S
C528 C523 1.373 . S
C528 C527 1.396 . S
C528 H555 0.929 1_545 S
C529 O542 1.240 . S
C529 O543 1.289 . S
C530 O544 1.258 1_565 S
C530 O545 1.256 . S
C531 La521 2.928 . S
C531 C532 1.503 . S
C531 O546 1.261 . S
C531 O547 1.243 . S
C532 C531 1.503 . S
C532 C533 1.394 . S
C532 C537 1.373 . S
C533 C532 1.394 . S
C533 C534 1.380 . S
C533 H556 0.930 . S
C534 C533 1.380 . S
C534 C535 1.376 . S
C534 H557 0.930 . S
C535 C534 1.376 . S
C535 C536 1.370 . S
C536 C535 1.370 . S
C536 C537 1.396 . S
C536 H558 0.919 1_565 S
C537 C532 1.373 . S
C537 C536 1.396 . S
C537 H559 0.929 1_565 S
C538 O548 1.240 . S
C538 O549 1.289 . S
C539 O550 1.258 1_545 S
C539 O551 1.256 . S
O540 La520 2.521 . S
O540 C522 1.261 . S
O541 La520 2.628 . S
O541 C522 1.243 . S
O542 La520 2.554 . S
O542 C529 1.240 . S
O543 La520 2.757 . S
O543 La521 2.482 1_545 S
O543 C529 1.289 . S
O544 La520 2.470 . S
O544 C530 1.258 1_545 S
O545 La521 2.503 . S
O545 C530 1.256 . S
O546 La521 2.521 . S
O546 C531 1.261 . S
O547 La521 2.628 . S
O547 C531 1.243 . S
O548 La521 2.554 . S
O548 C538 1.240 . S
O549 La520 2.482 1_565 S
O549 La521 2.757 . S
O549 C538 1.289 . S
O550 La521 2.470 . S
O550 C539 1.258 1_565 S
O551 La520 2.503 . S
O551 C539 1.256 . S
H552 C524 0.930 . S
H553 C525 0.930 . S
H554 C527 0.928 1_565 S
H555 C528 0.929 1_565 S
H556 C533 0.930 . S
H557 C534 0.930 . S
H558 C536 0.919 1_545 S
H559 C537 0.929 1_545 S
La560 C562 2.928 . S
La560 O580 2.521 . S
La560 O581 2.628 . S
La560 O582 2.554 . S
La560 O583 2.757 . S
La560 O584 2.470 . S
La560 O589 2.482 . S
La560 O591 2.503 . S
La561 C571 2.928 . S
La561 O583 2.482 . S
La561 O585 2.503 . S
La561 O586 2.521 . S
La561 O587 2.628 . S
La561 O588 2.554 . S
La561 O589 2.757 . S
La561 O590 2.470 . S
C562 La560 2.928 . S
C562 C563 1.503 . S
C562 O580 1.261 . S
C562 O581 1.243 . S
C563 C562 1.503 . S
C563 C564 1.394 . S
C563 C568 1.373 . S
C564 C563 1.394 . S
C564 C565 1.380 . S
C564 H592 0.930 . S
C565 C564 1.380 . S
C565 C566 1.376 . S
C565 H593 0.930 . S
C566 C565 1.376 . S
C566 C567 1.370 . S
C567 C566 1.370 . S
C567 C568 1.396 . S
C567 H594 0.929 . S
C568 C563 1.373 . S
C568 C567 1.396 . S
C568 H595 0.929 . S
C569 O582 1.240 . S
C569 O583 1.289 . S
C570 O584 1.258 . S
C570 O585 1.256 . S
C571 La561 2.928 . S
C571 C572 1.503 . S
C571 O586 1.261 . S
C571 O587 1.243 . S
C572 C571 1.503 . S
C572 C573 1.394 . S
C572 C577 1.373 . S
C573 C572 1.394 . S
C573 C574 1.380 . S
C573 H596 0.930 . S
C574 C573 1.380 . S
C574 C575 1.376 . S
C574 H597 0.930 . S
C575 C574 1.376 . S
C575 C576 1.370 . S
C576 C575 1.370 . S
C576 C577 1.396 . S
C576 H598 0.929 . S
C577 C572 1.373 . S
C577 C576 1.396 . S
C577 H599 0.929 . S
C578 O588 1.240 . S
C578 O589 1.289 . S
C579 O590 1.258 . S
C579 O591 1.256 . S
O580 La560 2.521 . S
O580 C562 1.261 . S
O581 La560 2.628 . S
O581 C562 1.243 . S
O582 La560 2.554 . S
O582 C569 1.240 . S
O583 La560 2.757 . S
O583 La561 2.482 . S
O583 C569 1.289 . S
O584 La560 2.470 . S
O584 C570 1.258 . S
O585 La561 2.503 . S
O585 C570 1.256 . S
O586 La561 2.521 . S
O586 C571 1.261 . S
O587 La561 2.628 . S
O587 C571 1.243 . S
O588 La561 2.554 . S
O588 C578 1.240 . S
O589 La560 2.482 . S
O589 La561 2.757 . S
O589 C578 1.289 . S
O590 La561 2.470 . S
O590 C579 1.258 . S
O591 La560 2.503 . S
O591 C579 1.256 . S
H592 C564 0.930 . S
H593 C565 0.930 . S
H594 C567 0.929 . S
H595 C568 0.929 . S
H596 C573 0.930 . S
H597 C574 0.930 . S
H598 C576 0.929 . S
H599 C577 0.929 . S
La600 C602 2.928 . S
La600 O620 2.521 . S
La600 O621 2.628 . S
La600 O622 2.554 . S
La600 O623 2.757 1_655 S
La600 O624 2.470 . S
La600 O629 2.482 . S
La600 O631 2.503 1_655 S
La601 C611 2.928 . S
La601 O623 2.482 . S
La601 O625 2.503 1_455 S
La601 O626 2.521 . S
La601 O627 2.628 . S
La601 O628 2.554 . S
La601 O629 2.757 1_455 S
La601 O630 2.470 . S
C602 La600 2.928 . S
C602 C603 1.503 . S
C602 O620 1.261 . S
C602 O621 1.243 . S
C603 C602 1.503 . S
C603 C604 1.394 . S
C603 C608 1.373 . S
C604 C603 1.394 . S
C604 C605 1.380 . S
C604 H632 0.930 . S
C605 C604 1.380 . S
C605 C606 1.376 . S
C605 H633 0.930 . S
C606 C605 1.376 . S
C606 C607 1.370 . S
C607 C606 1.370 . S
C607 C608 1.396 . S
C607 H634 0.929 . S
C608 C603 1.373 . S
C608 C607 1.396 . S
C608 H635 0.929 . S
C609 O622 1.257 . S
C609 O623 1.279 1_655 S
C610 O624 1.258 . S
C610 O625 1.256 . S
C611 La601 2.928 . S
C611 C612 1.503 . S
C611 O626 1.261 . S
C611 O627 1.243 . S
C612 C611 1.503 . S
C612 C613 1.394 . S
C612 C617 1.373 . S
C613 C612 1.394 . S
C613 C614 1.380 . S
C613 H636 0.930 . S
C614 C613 1.380 . S
C614 C615 1.376 . S
C614 H637 0.930 . S
C615 C614 1.376 . S
C615 C616 1.370 . S
C616 C615 1.370 . S
C616 C617 1.396 . S
C616 H638 0.929 . S
C617 C612 1.373 . S
C617 C616 1.396 . S
C617 H639 0.929 . S
C618 O628 1.263 . S
C618 O629 1.276 1_455 S
C619 O630 1.258 . S
C619 O631 1.256 . S
O620 La600 2.521 . S
O620 C602 1.261 . S
O621 La600 2.628 . S
O621 C602 1.243 . S
O622 La600 2.554 . S
O622 C609 1.257 . S
O623 La600 2.757 1_455 S
O623 La601 2.482 . S
O623 C609 1.279 1_455 S
O624 La600 2.470 . S
O624 C610 1.258 . S
O625 La601 2.503 1_655 S
O625 C610 1.256 . S
O626 La601 2.521 . S
O626 C611 1.261 . S
O627 La601 2.628 . S
O627 C611 1.243 . S
O628 La601 2.554 . S
O628 C618 1.263 . S
O629 La600 2.482 . S
O629 La601 2.757 1_655 S
O629 C618 1.276 1_655 S
O630 La601 2.470 . S
O630 C619 1.258 . S
O631 La600 2.503 1_455 S
O631 C619 1.256 . S
H632 C604 0.930 . S
H633 C605 0.930 . S
H634 C607 0.929 . S
H635 C608 0.929 . S
H636 C613 0.930 . S
H637 C614 0.930 . S
H638 C616 0.929 . S
H639 C617 0.929 . S
H640 C646 0.930 . S
H641 C650 0.930 . S
H642 C655 0.929 . S
H643 C653 0.929 . S
H644 C648 0.929 . S
H645 C654 0.929 . S
C646 H640 0.930 . S
C646 C647 1.369 . S
C646 C654 1.378 . S
C647 C646 1.369 . S
C647 C655 1.431 1_565 S
C648 H644 0.929 . S
C648 C650 1.378 . S
C648 C652 1.350 . S
C649 C652 1.463 1_565 S
C649 C654 1.345 . S
C649 N657 1.432 1_565 S
C650 H641 0.930 . S
C650 C648 1.378 . S
C650 C651 1.367 . S
C651 C650 1.367 . S
C651 C653 1.433 1_545 S
C652 C648 1.350 . S
C652 C649 1.463 1_545 S
C652 N656 1.427 1_545 S
C653 H643 0.929 . S
C653 C651 1.433 1_565 S
C653 N656 1.384 . S
C654 H645 0.929 . S
C654 C646 1.378 . S
C654 C649 1.345 . S
C655 H642 0.929 . S
C655 C647 1.431 1_545 S
C655 N657 1.384 . S
N656 C652 1.427 1_565 S
N656 C653 1.384 . S
N657 C649 1.432 1_545 S
N657 C655 1.384 . S
H658 C664 0.930 . S
H659 C668 0.930 . S
H660 C673 0.929 . S
H661 C671 0.929 . S
H662 C666 0.929 . S
H663 C672 0.929 . S
C664 H658 0.930 . S
C664 C665 1.367 . S
C664 C672 1.378 . S
C665 C664 1.367 . S
C665 C673 1.433 . S
C666 H662 0.929 . S
C666 C668 1.378 . S
C666 C670 1.350 . S
C667 C670 1.463 . S
C667 C672 1.350 . S
C667 N675 1.427 . S
C668 H659 0.930 . S
C668 C666 1.378 . S
C668 C669 1.367 . S
C669 C668 1.367 . S
C669 C671 1.433 . S
C670 C666 1.350 . S
C670 C667 1.463 . S
C670 N674 1.427 . S
C671 H661 0.929 . S
C671 C669 1.433 . S
C671 N674 1.384 . S
C672 H663 0.929 . S
C672 C664 1.378 . S
C672 C667 1.350 . S
C673 H660 0.929 . S
C673 C665 1.433 . S
C673 N675 1.384 . S
N674 C670 1.427 . S
N674 C671 1.384 . S
N675 C667 1.427 . S
N675 C673 1.384 . S
H676 C682 0.930 . S
H677 C686 0.930 . S
H678 C691 0.929 . S
H679 C689 0.929 . S
H680 C684 0.929 . S
H681 C690 0.929 . S
C682 H676 0.930 . S
C682 C683 1.367 . S
C682 C690 1.378 . S
C683 C682 1.367 . S
C683 C691 1.433 . S
C684 H680 0.929 . S
C684 C686 1.378 . S
C684 C688 1.350 . S
C685 C688 1.463 . S
C685 C690 1.350 . S
C685 N693 1.427 . S
C686 H677 0.930 . S
C686 C684 1.378 . S
C686 C687 1.367 . S
C687 C686 1.367 . S
C687 C689 1.433 . S
C688 C684 1.350 . S
C688 C685 1.463 . S
C688 N692 1.427 . S
C689 H679 0.929 . S
C689 C687 1.433 . S
C689 N692 1.384 . S
C690 H681 0.929 . S
C690 C682 1.378 . S
C690 C685 1.350 . S
C691 H678 0.929 . S
C691 C683 1.433 . S
C691 N693 1.384 . S
N692 C688 1.427 . S
N692 C689 1.384 . S
N693 C685 1.427 . S
N693 C691 1.384 . S
H694 C700 0.930 . S
H695 C704 0.930 . S
H696 C709 0.929 . S
H697 C707 0.929 . S
H698 C702 0.929 . S
H699 C708 0.929 . S
C700 H694 0.930 . S
C700 C701 1.365 . S
C700 C708 1.378 . S
C701 C700 1.365 . S
C701 C709 1.435 1_655 S
C702 H698 0.929 . S
C702 C704 1.378 . S
C702 C706 1.350 . S
C703 C706 1.463 . S
C703 C708 1.346 1_455 S
C703 N711 1.432 . S
C704 H695 0.930 . S
C704 C702 1.378 . S
C704 C705 1.367 . S
C705 C704 1.367 . S
C705 C707 1.433 1_455 S
C706 C702 1.350 . S
C706 C703 1.463 . S
C706 N710 1.427 1_455 S
C707 H697 0.929 . S
C707 C705 1.433 1_655 S
C707 N710 1.384 . S
C708 H699 0.929 . S
C708 C700 1.378 . S
C708 C703 1.346 1_655 S
C709 H696 0.929 . S
C709 C701 1.435 1_455 S
C709 N711 1.384 . S
N710 C706 1.427 1_655 S
N710 C707 1.384 . S
N711 C703 1.432 . S
N711 C709 1.384 . S
H712 C718 0.930 . S
H713 C722 0.930 . S
H714 C727 0.929 . S
H715 C725 0.929 . S
H716 C720 0.929 1_554 S
H717 C726 0.929 . S
C718 H712 0.930 . S
C718 C719 1.379 . S
C718 C726 1.378 . S
C719 C718 1.379 . S
C719 C727 1.421 1_565 S
C720 H716 0.929 1_556 S
C720 C722 1.378 . S
C720 C724 1.347 1_546 S
C721 C724 1.462 . S
C721 C726 1.380 . S
C721 N729 1.397 1_565 S
C722 H713 0.930 . S
C722 C720 1.378 . S
C722 C723 1.346 1_545 S
C723 C722 1.346 1_565 S
C723 C725 1.455 . S
C724 C720 1.347 1_564 S
C724 C721 1.462 . S
C724 N728 1.430 1_554 S
C725 H715 0.929 . S
C725 C723 1.455 . S
C725 N728 1.384 . S
C726 H717 0.929 . S
C726 C718 1.378 . S
C726 C721 1.380 . S
C727 H714 0.929 . S
C727 C719 1.421 1_545 S
C727 N729 1.384 . S
N728 C724 1.430 1_556 S
N728 C725 1.384 . S
N729 C721 1.397 1_545 S
N729 C727 1.384 . S
H730 C736 0.930 . S
H731 C740 0.930 . S
H732 C745 0.929 . S
H733 C743 0.929 . S
H734 C738 0.929 . S
H735 C744 0.929 . S
C736 H730 0.930 . S
C736 C737 1.367 . S
C736 C744 1.378 . S
C737 C736 1.367 . S
C737 C745 1.433 . S
C738 H734 0.929 . S
C738 C740 1.378 . S
C738 C742 1.350 1_556 S
C739 C742 1.463 . S
C739 C744 1.350 . S
C739 N747 1.427 . S
C740 H731 0.930 . S
C740 C738 1.378 . S
C740 C741 1.367 . S
C741 C740 1.367 . S
C741 C743 1.433 . S
C742 C738 1.350 1_554 S
C742 C739 1.463 . S
C742 N746 1.427 1_554 S
C743 H733 0.929 . S
C743 C741 1.433 . S
C743 N746 1.384 . S
C744 H735 0.929 . S
C744 C736 1.378 . S
C744 C739 1.350 . S
C745 H732 0.929 . S
C745 C737 1.433 . S
C745 N747 1.384 . S
N746 C742 1.427 1_556 S
N746 C743 1.384 . S
N747 C739 1.427 . S
N747 C745 1.384 . S
H748 C754 0.930 . S
H749 C758 0.930 . S
H750 C763 0.929 . S
H751 C761 0.929 . S
H752 C756 0.929 1_554 S
H753 C762 0.929 . S
C754 H748 0.930 . S
C754 C755 1.367 . S
C754 C762 1.378 . S
C755 C754 1.367 . S
C755 C763 1.433 . S
C756 H752 0.929 1_556 S
C756 C758 1.378 . S
C756 C760 1.350 1_556 S
C757 C760 1.463 . S
C757 C762 1.350 . S
C757 N765 1.427 . S
C758 H749 0.930 . S
C758 C756 1.378 . S
C758 C759 1.367 . S
C759 C758 1.367 . S
C759 C761 1.433 . S
C760 C756 1.350 1_554 S
C760 C757 1.463 . S
C760 N764 1.427 1_554 S
C761 H751 0.929 . S
C761 C759 1.433 . S
C761 N764 1.384 . S
C762 H753 0.929 . S
C762 C754 1.378 . S
C762 C757 1.350 . S
C763 H750 0.929 . S
C763 C755 1.433 . S
C763 N765 1.384 . S
N764 C760 1.427 1_556 S
N764 C761 1.384 . S
N765 C757 1.427 . S
N765 C763 1.384 . S
H766 C772 0.930 . S
H767 C776 0.930 . S
H768 C781 0.929 . S
H769 C779 0.929 . S
H770 C774 0.929 1_554 S
H771 C780 0.929 . S
C772 H766 0.930 . S
C772 C773 1.367 1_455 S
C772 C780 1.378 . S
C773 C772 1.367 1_655 S
C773 C781 1.433 . S
C774 H770 0.929 1_556 S
C774 C776 1.378 . S
C774 C778 1.350 1_556 S
C775 C778 1.463 . S
C775 C780 1.340 1_655 S
C775 N783 1.438 . S
C776 H767 0.930 . S
C776 C774 1.378 . S
C776 C777 1.367 . S
C777 C776 1.367 . S
C777 C779 1.433 1_655 S
C778 C774 1.350 1_554 S
C778 C775 1.463 . S
C778 N782 1.427 1_654 S
C779 H769 0.929 . S
C779 C777 1.433 1_455 S
C779 N782 1.384 . S
C780 H771 0.929 . S
C780 C772 1.378 . S
C780 C775 1.340 1_455 S
C781 H768 0.929 . S
C781 C773 1.433 . S
C781 N783 1.384 . S
N782 C778 1.427 1_456 S
N782 C779 1.384 . S
N783 C775 1.438 . S
N783 C781 1.384 . S
H784 C790 0.930 . S
H785 C794 0.930 . S
H786 C799 0.929 . S
H787 C797 0.929 . S
H788 C792 0.929 . S
H789 C798 0.920 1_455 S
C790 H784 0.930 . S
C790 C791 1.367 . S
C790 C798 1.361 1_455 S
C791 C790 1.367 . S
C791 C799 1.433 1_455 S
C792 H788 0.929 . S
C792 C794 1.378 . S
C792 C796 1.350 . S
C793 C796 1.463 . S
C793 C798 1.377 . S
C793 N801 1.427 . S
C794 H785 0.930 . S
C794 C792 1.378 . S
C794 C795 1.367 . S
C795 C794 1.367 . S
C795 C797 1.433 . S
C796 C792 1.350 . S
C796 C793 1.463 . S
C796 N800 1.427 . S
C797 H787 0.929 . S
C797 C795 1.433 . S
C797 N800 1.384 . S
C798 H789 0.920 1_655 S
C798 C790 1.361 1_655 S
C798 C793 1.377 . S
C799 H786 0.929 . S
C799 C791 1.433 1_655 S
C799 N801 1.384 . S
N800 C796 1.427 . S
N800 C797 1.384 . S
N801 C793 1.427 . S
N801 C799 1.384 . S
H802 C808 0.930 . S
H803 C812 0.930 . S
H804 C817 0.929 . S
H805 C815 0.929 . S
H806 C810 0.929 . S
H807 C816 0.929 . S
C808 H802 0.930 . S
C808 C809 1.367 . S
C808 C816 1.378 1_545 S
C809 C808 1.367 . S
C809 C817 1.433 1_545 S
C810 H806 0.929 . S
C810 C812 1.378 . S
C810 C814 1.350 . S
C811 C814 1.463 . S
C811 C816 1.350 . S
C811 N819 1.427 . S
C812 H803 0.930 . S
C812 C810 1.378 . S
C812 C813 1.367 . S
C813 C812 1.367 . S
C813 C815 1.433 . S
C814 C810 1.350 . S
C814 C811 1.463 . S
C814 N818 1.427 . S
C815 H805 0.929 . S
C815 C813 1.433 . S
C815 N818 1.384 . S
C816 H807 0.929 . S
C816 C808 1.378 1_565 S
C816 C811 1.350 . S
C817 H804 0.929 . S
C817 C809 1.433 1_565 S
C817 N819 1.384 . S
N818 C814 1.427 . S
N818 C815 1.384 . S
N819 C811 1.427 . S
N819 C817 1.384 . S
H820 C826 0.930 . S
H821 C830 0.930 . S
H822 C835 0.929 . S
H823 C833 0.929 . S
H824 C828 0.929 . S
H825 C834 0.929 . S
C826 H820 0.930 . S
C826 C827 1.367 . S
C826 C834 1.378 . S
C827 C826 1.367 . S
C827 C835 1.433 . S
C828 H824 0.929 . S
C828 C830 1.378 . S
C828 C832 1.350 . S
C829 C832 1.463 . S
C829 C834 1.350 . S
C829 N837 1.427 . S
C830 H821 0.930 . S
C830 C828 1.378 . S
C830 C831 1.367 . S
C831 C830 1.367 . S
C831 C833 1.433 . S
C832 C828 1.350 . S
C832 C829 1.463 . S
C832 N836 1.427 . S
C833 H823 0.929 . S
C833 C831 1.433 . S
C833 N836 1.384 . S
C834 H825 0.929 . S
C834 C826 1.378 . S
C834 C829 1.350 . S
C835 H822 0.929 . S
C835 C827 1.433 . S
C835 N837 1.384 . S
N836 C832 1.427 . S
N836 C833 1.384 . S
N837 C829 1.427 . S
N837 C835 1.384 . S
H838 C844 0.930 . S
H839 C848 0.930 . S
H840 C853 0.929 . S
H841 C851 0.929 . S
H842 C846 0.929 . S
H843 C852 0.929 . S
C844 H838 0.930 . S
C844 C845 1.367 . S
C844 C852 1.378 . S
C845 C844 1.367 . S
C845 C853 1.433 . S
C846 H842 0.929 . S
C846 C848 1.378 . S
C846 C850 1.350 . S
C847 C850 1.463 . S
C847 C852 1.350 . S
C847 N855 1.427 . S
C848 H839 0.930 . S
C848 C846 1.378 . S
C848 C849 1.367 . S
C849 C848 1.367 . S
C849 C851 1.433 . S
C850 C846 1.350 . S
C850 C847 1.463 . S
C850 N854 1.427 . S
C851 H841 0.929 . S
C851 C849 1.433 . S
C851 N854 1.384 . S
C852 H843 0.929 . S
C852 C844 1.378 . S
C852 C847 1.350 . S
C853 H840 0.929 . S
C853 C845 1.433 . S
C853 N855 1.384 . S
N854 C850 1.427 . S
N854 C851 1.384 . S
N855 C847 1.427 . S
N855 C853 1.384 . S
H856 C862 0.930 . S
H857 C866 0.930 . S
H858 C871 0.929 . S
H859 C869 0.929 . S
H860 C864 0.929 . S
H861 C870 0.929 . S
C862 H856 0.930 . S
C862 C863 1.367 1_455 S
C862 C870 1.378 . S
C863 C862 1.367 1_655 S
C863 C871 1.433 . S
C864 H860 0.929 . S
C864 C866 1.378 . S
C864 C868 1.350 1_556 S
C865 C868 1.463 . S
C865 C870 1.350 . S
C865 N873 1.427 1_455 S
C866 H857 0.930 . S
C866 C864 1.378 . S
C866 C867 1.367 . S
C867 C866 1.367 . S
C867 C869 1.433 1_556 S
C868 C864 1.350 1_554 S
C868 C865 1.463 . S
C868 N872 1.427 . S
C869 H859 0.929 . S
C869 C867 1.433 1_554 S
C869 N872 1.384 . S
C870 H861 0.929 . S
C870 C862 1.378 . S
C870 C865 1.350 . S
C871 H858 0.929 . S
C871 C863 1.433 . S
C871 N873 1.384 . S
N872 C868 1.427 . S
N872 C869 1.384 . S
N873 C865 1.427 1_655 S
N873 C871 1.384 . S
H874 C880 0.930 . S
H875 C884 0.930 . S
H876 C889 0.929 . S
H877 C887 0.929 . S
H878 C882 0.929 1_565 S
H879 C888 0.929 . S
C880 H874 0.930 . S
C880 C881 1.367 1_545 S
C880 C888 1.378 . S
C881 C880 1.367 1_565 S
C881 C889 1.433 . S
C882 H878 0.929 1_545 S
C882 C884 1.378 1_554 S
C882 C886 1.350 . S
C883 C886 1.463 . S
C883 C888 1.350 . S
C883 N891 1.427 1_545 S
C884 H875 0.930 . S
C884 C882 1.378 1_556 S
C884 C885 1.367 . S
C885 C884 1.367 . S
C885 C887 1.433 . S
C886 C882 1.350 . S
C886 C883 1.463 . S
C886 N890 1.427 1_554 S
C887 H877 0.929 . S
C887 C885 1.433 . S
C887 N890 1.384 . S
C888 H879 0.929 . S
C888 C880 1.378 . S
C888 C883 1.350 . S
C889 H876 0.929 . S
C889 C881 1.433 . S
C889 N891 1.384 . S
N890 C886 1.427 1_556 S
N890 C887 1.384 . S
N891 C883 1.427 1_565 S
N891 C889 1.384 . S
H892 C898 0.930 . S
H893 C902 0.930 . S
H894 C907 0.929 . S
H895 C905 0.929 . S
H896 C900 0.929 . S
H897 C906 0.929 . S
C898 H892 0.930 . S
C898 C899 1.367 . S
C898 C906 1.378 . S
C899 C898 1.367 . S
C899 C907 1.433 . S
C900 H896 0.929 . S
C900 C902 1.378 . S
C900 C904 1.350 1_556 S
C901 C904 1.463 . S
C901 C906 1.350 . S
C901 N909 1.427 . S
C902 H893 0.930 . S
C902 C900 1.378 . S
C902 C903 1.367 . S
C903 C902 1.367 . S
C903 C905 1.433 1_556 S
C904 C900 1.350 1_554 S
C904 C901 1.463 . S
C904 N908 1.427 . S
C905 H895 0.929 . S
C905 C903 1.433 1_554 S
C905 N908 1.384 . S
C906 H897 0.929 . S
C906 C898 1.378 . S
C906 C901 1.350 . S
C907 H894 0.929 . S
C907 C899 1.433 . S
C907 N909 1.384 . S
N908 C904 1.427 . S
N908 C905 1.384 . S
N909 C901 1.427 . S
N909 C907 1.384 . S
H910 C916 0.930 . S
H911 C920 0.929 1_554 S
H912 C925 0.929 . S
H913 C923 0.929 . S
H914 C918 0.929 . S
H915 C924 0.929 . S
C916 H910 0.930 . S
C916 C917 1.367 . S
C916 C924 1.378 . S
C917 C916 1.367 . S
C917 C925 1.433 . S
C918 H914 0.929 . S
C918 C920 1.372 1_554 S
C918 C922 1.350 . S
C919 C922 1.463 . S
C919 C924 1.350 . S
C919 N927 1.427 . S
C920 H911 0.929 1_556 S
C920 C918 1.372 1_556 S
C920 C921 1.373 . S
C921 C920 1.373 . S
C921 C923 1.433 . S
C922 C918 1.350 . S
C922 C919 1.463 . S
C922 N926 1.427 1_554 S
C923 H913 0.929 . S
C923 C921 1.433 . S
C923 N926 1.384 . S
C924 H915 0.929 . S
C924 C916 1.378 . S
C924 C919 1.350 . S
C925 H912 0.929 . S
C925 C917 1.433 . S
C925 N927 1.384 . S
N926 C922 1.427 1_556 S
N926 C923 1.384 . S
N927 C919 1.427 . S
N927 C925 1.384 . S
H928 C934 0.930 . S
H929 C938 0.930 . S
H930 C943 0.929 . S
H931 C941 0.929 . S
H932 C936 0.929 . S
H933 C942 0.929 . S
C934 H928 0.930 . S
C934 C935 1.367 . S
C934 C942 1.378 . S
C935 C934 1.367 . S
C935 C943 1.433 1_455 S
C936 H932 0.929 . S
C936 C938 1.378 . S
C936 C940 1.350 1_655 S
C937 C940 1.463 . S
C937 C942 1.350 . S
C937 N945 1.427 1_455 S
C938 H929 0.930 . S
C938 C936 1.378 . S
C938 C939 1.367 1_655 S
C939 C938 1.367 1_455 S
C939 C941 1.433 . S
C940 C936 1.350 1_455 S
C940 C937 1.463 . S
C940 N944 1.427 . S
C941 H931 0.929 . S
C941 C939 1.433 . S
C941 N944 1.384 . S
C942 H933 0.929 . S
C942 C934 1.378 . S
C942 C937 1.350 . S
C943 H930 0.929 . S
C943 C935 1.433 1_655 S
C943 N945 1.384 . S
N944 C940 1.427 . S
N944 C941 1.384 . S
N945 C937 1.427 1_655 S
N945 C943 1.384 . S
H946 C952 0.930 . S
H947 C956 0.930 . S
H948 C961 0.929 . S
H949 C959 0.929 . S
H950 C954 0.929 . S
H951 C960 0.929 . S
C952 H946 0.930 . S
C952 C953 1.367 . S
C952 C960 1.378 . S
C953 C952 1.367 . S
C953 C961 1.433 1_545 S
C954 H950 0.929 . S
C954 C956 1.378 . S
C954 C958 1.350 1_565 S
C955 C958 1.463 . S
C955 C960 1.350 . S
C955 N963 1.427 1_545 S
C956 H947 0.930 . S
C956 C954 1.378 . S
C956 C957 1.367 1_565 S
C957 C956 1.367 1_545 S
C957 C959 1.433 . S
C958 C954 1.350 1_545 S
C958 C955 1.463 . S
C958 N962 1.427 . S
C959 H949 0.929 . S
C959 C957 1.433 . S
C959 N962 1.384 . S
C960 H951 0.929 . S
C960 C952 1.378 . S
C960 C955 1.350 . S
C961 H948 0.929 . S
C961 C953 1.433 1_565 S
C961 N963 1.384 . S
N962 C958 1.427 . S
N962 C959 1.384 . S
N963 C955 1.427 1_565 S
N963 C961 1.384 . S
H964 C970 0.930 . S
H965 C974 0.930 . S
H966 C979 0.929 . S
H967 C977 0.929 . S
H968 C972 0.929 . S
H969 C978 0.929 . S
C970 H964 0.930 . S
C970 C971 1.367 . S
C970 C978 1.378 . S
C971 C970 1.367 . S
C971 C979 1.433 . S
C972 H968 0.929 . S
C972 C974 1.378 . S
C972 C976 1.350 . S
C973 C976 1.463 . S
C973 C978 1.350 . S
C973 N981 1.427 . S
C974 H965 0.930 . S
C974 C972 1.378 . S
C974 C975 1.367 . S
C975 C974 1.367 . S
C975 C977 1.433 . S
C976 C972 1.350 . S
C976 C973 1.463 . S
C976 N980 1.427 . S
C977 H967 0.929 . S
C977 C975 1.433 . S
C977 N980 1.384 . S
C978 H969 0.929 . S
C978 C970 1.378 . S
C978 C973 1.350 . S
C979 H966 0.929 . S
C979 C971 1.433 . S
C979 N981 1.384 . S
N980 C976 1.427 . S
N980 C977 1.384 . S
N981 C973 1.427 . S
N981 C979 1.384 . S
H982 C988 0.930 . S
H983 C992 0.930 . S
H984 C997 0.929 . S
H985 C995 0.929 . S
H986 C990 0.929 . S
H987 C996 0.929 . S
C988 H982 0.930 . S
C988 C989 1.367 . S
C988 C996 1.378 . S
C989 C988 1.367 . S
C989 C997 1.433 . S
C990 H986 0.929 . S
C990 C992 1.378 . S
C990 C994 1.350 . S
C991 C994 1.463 . S
C991 C996 1.350 . S
C991 N999 1.427 . S
C992 H983 0.930 . S
C992 C990 1.378 . S
C992 C993 1.367 . S
C993 C992 1.367 . S
C993 C995 1.433 . S
C994 C990 1.350 . S
C994 C991 1.463 . S
C994 N998 1.427 . S
C995 H985 0.929 . S
C995 C993 1.433 . S
C995 N998 1.384 . S
C996 H987 0.929 . S
C996 C988 1.378 . S
C996 C991 1.350 . S
C997 H984 0.929 . S
C997 C989 1.433 . S
C997 N999 1.384 . S
N998 C994 1.427 . S
N998 C995 1.384 . S
N999 C991 1.427 . S
N999 C997 1.384 . S
H1000 C1006 0.930 . S
H1001 C1010 0.930 . S
H1002 C1015 0.929 . S
H1003 C1013 0.936 . S
H1004 C1008 0.929 . S
H1005 C1014 0.929 . S
C1006 H1000 0.930 . S
C1006 C1007 1.367 1_455 S
C1006 C1014 1.378 . S
C1007 C1006 1.367 1_655 S
C1007 C1015 1.433 . S
C1008 H1004 0.929 . S
C1008 C1010 1.378 . S
C1008 C1012 1.350 . S
C1009 C1012 1.463 . S
C1009 C1014 1.350 1_655 S
C1009 N1017 1.427 . S
C1010 H1001 0.930 . S
C1010 C1008 1.378 . S
C1010 C1011 1.367 . S
C1011 C1010 1.367 . S
C1011 C1013 1.425 1_655 S
C1012 C1008 1.350 . S
C1012 C1009 1.463 . S
C1012 N1016 1.427 1_655 S
C1013 H1003 0.936 . S
C1013 C1011 1.425 1_455 S
C1013 N1016 1.385 . S
C1014 H1005 0.929 . S
C1014 C1006 1.378 . S
C1014 C1009 1.350 1_455 S
C1015 H1002 0.929 . S
C1015 C1007 1.433 . S
C1015 N1017 1.384 . S
N1016 C1012 1.427 1_455 S
N1016 C1013 1.385 . S
N1017 C1009 1.427 . S
N1017 C1015 1.384 . S
H1018 C1024 0.930 . S
H1019 C1028 0.930 1_545 S
H1020 C1033 0.929 . S
H1021 C1031 0.929 . S
H1022 C1026 0.918 1_545 S
H1023 C1032 0.929 . S
C1024 H1018 0.930 . S
C1024 C1025 1.367 . S
C1024 C1032 1.378 . S
C1025 C1024 1.367 . S
C1025 C1033 1.433 1_565 S
C1026 H1022 0.918 1_565 S
C1026 C1028 1.380 . S
C1026 C1030 1.359 . S
C1027 C1030 1.463 . S
C1027 C1032 1.350 . S
C1027 N1035 1.427 1_565 S
C1028 H1019 0.930 1_565 S
C1028 C1026 1.380 . S
C1028 C1029 1.367 . S
C1029 C1028 1.367 . S
C1029 C1031 1.433 . S
C1030 C1026 1.359 . S
C1030 C1027 1.463 . S
C1030 N1034 1.427 . S
C1031 H1021 0.929 . S
C1031 C1029 1.433 . S
C1031 N1034 1.384 . S
C1032 H1023 0.929 . S
C1032 C1024 1.378 . S
C1032 C1027 1.350 . S
C1033 H1020 0.929 . S
C1033 C1025 1.433 1_545 S
C1033 N1035 1.384 . S
N1034 C1030 1.427 . S
N1034 C1031 1.384 . S
N1035 C1027 1.427 1_545 S
N1035 C1033 1.384 . S
H1036 C1042 0.930 . S
H1037 C1046 0.930 . S
H1038 C1051 0.929 . S
H1039 C1049 0.929 . S
H1040 C1044 0.929 . S
H1041 C1050 0.929 . S
C1042 H1036 0.930 . S
C1042 C1043 1.367 . S
C1042 C1050 1.378 . S
C1043 C1042 1.367 . S
C1043 C1051 1.433 . S
C1044 H1040 0.929 . S
C1044 C1046 1.378 . S
C1044 C1048 1.350 . S
C1045 C1048 1.463 . S
C1045 C1050 1.350 . S
C1045 N1053 1.427 . S
C1046 H1037 0.930 . S
C1046 C1044 1.378 . S
C1046 C1047 1.367 . S
C1047 C1046 1.367 . S
C1047 C1049 1.433 . S
C1048 C1044 1.350 . S
C1048 C1045 1.463 . S
C1048 N1052 1.427 . S
C1049 H1039 0.929 . S
C1049 C1047 1.433 . S
C1049 N1052 1.384 . S
C1050 H1041 0.929 . S
C1050 C1042 1.378 . S
C1050 C1045 1.350 . S
C1051 H1038 0.929 . S
C1051 C1043 1.433 . S
C1051 N1053 1.384 . S
N1052 C1048 1.427 . S
N1052 C1049 1.384 . S
N1053 C1045 1.427 . S
N1053 C1051 1.384 . S
H1054 C1060 0.930 . S
H1055 C1064 0.930 . S
H1056 C1069 0.929 . S
H1057 C1067 0.929 . S
H1058 C1062 0.929 . S
H1059 C1068 0.929 . S
C1060 H1054 0.930 . S
C1060 C1061 1.367 . S
C1060 C1068 1.378 . S
C1061 C1060 1.367 . S
C1061 C1069 1.433 . S
C1062 H1058 0.929 . S
C1062 C1064 1.378 . S
C1062 C1066 1.350 . S
C1063 C1066 1.463 . S
C1063 C1068 1.350 . S
C1063 N1071 1.427 . S
C1064 H1055 0.930 . S
C1064 C1062 1.378 . S
C1064 C1065 1.367 . S
C1065 C1064 1.367 . S
C1065 C1067 1.433 . S
C1066 C1062 1.350 . S
C1066 C1063 1.463 . S
C1066 N1070 1.427 . S
C1067 H1057 0.929 . S
C1067 C1065 1.433 . S
C1067 N1070 1.384 . S
C1068 H1059 0.929 . S
C1068 C1060 1.378 . S
C1068 C1063 1.350 . S
C1069 H1056 0.929 . S
C1069 C1061 1.433 . S
C1069 N1071 1.384 . S
N1070 C1066 1.427 . S
N1070 C1067 1.384 . S
N1071 C1063 1.427 . S
N1071 C1069 1.384 . S
C647 C391 2.276 1_565 S
C651 C489 2.367 1_545 S
C669 C529 2.378 . S
C665 C451 2.282 . S
C687 C569 2.376 . S
C683 C241 2.017 . S
C705 C609 2.370 1_455 S
C701 C331 2.005 . S
C723 C498 2.365 1_565 S
C719 C121 1.996 . S
C737 C211 2.291 . S
C741 C538 2.378 . S
C755 C31 2.289 . S
C759 C578 2.376 . S
C773 C91 1.995 . S
C777 C618 2.369 1_655 S
C795 C495 0.463 . S
C791 C301 0.558 1_455 S
C813 C535 0.455 . S
C809 C380 0.354 . S
C831 C575 0.454 . S
C827 C440 0.349 . S
C845 C260 0.535 . S
C849 C615 0.424 . S
C863 C61 0.469 . S
C867 C486 0.434 . S
C885 C526 0.433 . S
C881 C140 0.504 . S
C903 C566 0.439 . S
C899 C200 0.434 . S
C917 C20 0.463 . S
C921 C606 0.473 . S
C935 C320 3.012 1_455 S
C939 C499 3.219 . S
C953 C361 2.590 . S
C957 C539 3.208 . S
C975 C579 3.202 . S
C971 C421 2.582 . S
C993 C619 3.221 . S
C989 C271 2.996 . S
C1007 C80 3.003 . S
C1011 C490 3.236 . S
C1029 C530 3.211 . S
C1025 C151 2.986 . S
C1047 C570 3.204 . S
C1043 C181 2.593 . S
C1061 C1 2.611 . S
C1065 C610 3.225 . S
