# Generated by pormake.
# Topology ctn, (3,4)-cn, num edge types: 1
# Building blocks:
#     Node 0, Type 0, BuildingBlock: QEWDON_clean_linker_0, # of connection points: 3
#     Node 1, Type 0, BuildingBlock: QEWDON_clean_linker_0, # of connection points: 3
#     Node 2, Type 0, BuildingBlock: QEWDON_clean_linker_0, # of connection points: 3
#     Node 3, Type 0, BuildingBlock: QEWDON_clean_linker_0, # of connection points: 3
#     Node 4, Type 0, BuildingBlock: QEWDON_clean_linker_0, # of connection points: 3
#     Node 5, Type 0, BuildingBlock: QEWDON_clean_linker_0, # of connection points: 3
#     Node 6, Type 0, BuildingBlock: QEWDON_clean_linker_0, # of connection points: 3
#     Node 7, Type 0, BuildingBlock: QEWDON_clean_linker_0, # of connection points: 3
#     Node 8, Type 0, BuildingBlock: QEWDON_clean_linker_0, # of connection points: 3
#     Node 9, Type 0, BuildingBlock: QEWDON_clean_linker_0, # of connection points: 3
#     Node 10, Type 0, BuildingBlock: QEWDON_clean_linker_0, # of connection points: 3
#     Node 11, Type 0, BuildingBlock: QEWDON_clean_linker_0, # of connection points: 3
#     Node 12, Type 0, BuildingBlock: QEWDON_clean_linker_0, # of connection points: 3
#     Node 13, Type 0, BuildingBlock: QEWDON_clean_linker_0, # of connection points: 3
#     Node 14, Type 0, BuildingBlock: QEWDON_clean_linker_0, # of connection points: 3
#     Node 15, Type 0, BuildingBlock: QEWDON_clean_linker_0, # of connection points: 3
#     Node 16, Type 1, BuildingBlock: NAHDIM_clean_sbu_0, # of connection points: 4
#     Node 17, Type 1, BuildingBlock: NAHDIM_clean_sbu_0, # of connection points: 4
#     Node 18, Type 1, BuildingBlock: NAHDIM_clean_sbu_0, # of connection points: 4
#     Node 19, Type 1, BuildingBlock: NAHDIM_clean_sbu_0, # of connection points: 4
#     Node 20, Type 1, BuildingBlock: NAHDIM_clean_sbu_0, # of connection points: 4
#     Node 21, Type 1, BuildingBlock: NAHDIM_clean_sbu_0, # of connection points: 4
#     Node 22, Type 1, BuildingBlock: NAHDIM_clean_sbu_0, # of connection points: 4
#     Node 23, Type 1, BuildingBlock: NAHDIM_clean_sbu_0, # of connection points: 4
#     Node 24, Type 1, BuildingBlock: NAHDIM_clean_sbu_0, # of connection points: 4
#     Node 25, Type 1, BuildingBlock: NAHDIM_clean_sbu_0, # of connection points: 4
#     Node 26, Type 1, BuildingBlock: NAHDIM_clean_sbu_0, # of connection points: 4
#     Node 27, Type 1, BuildingBlock: NAHDIM_clean_sbu_0, # of connection points: 4
#     Edge 28, Type (0, 1), BuildingBlock: AJUNOK_clean_linker_0, # of connection points: 2
#     Edge 29, Type (0, 1), BuildingBlock: AJUNOK_clean_linker_0, # of connection points: 2
#     Edge 30, Type (0, 1), BuildingBlock: AJUNOK_clean_linker_0, # of connection points: 2
#     Edge 31, Type (0, 1), BuildingBlock: AJUNOK_clean_linker_0, # of connection points: 2
#     Edge 32, Type (0, 1), BuildingBlock: AJUNOK_clean_linker_0, # of connection points: 2
#     Edge 33, Type (0, 1), BuildingBlock: AJUNOK_clean_linker_0, # of connection points: 2
#     Edge 34, Type (0, 1), BuildingBlock: AJUNOK_clean_linker_0, # of connection points: 2
#     Edge 35, Type (0, 1), BuildingBlock: AJUNOK_clean_linker_0, # of connection points: 2
#     Edge 36, Type (0, 1), BuildingBlock: AJUNOK_clean_linker_0, # of connection points: 2
#     Edge 37, Type (0, 1), BuildingBlock: AJUNOK_clean_linker_0, # of connection points: 2
#     Edge 38, Type (0, 1), BuildingBlock: AJUNOK_clean_linker_0, # of connection points: 2
#     Edge 39, Type (0, 1), BuildingBlock: AJUNOK_clean_linker_0, # of connection points: 2
#     Edge 40, Type (0, 1), BuildingBlock: AJUNOK_clean_linker_0, # of connection points: 2
#     Edge 41, Type (0, 1), BuildingBlock: AJUNOK_clean_linker_0, # of connection points: 2
#     Edge 42, Type (0, 1), BuildingBlock: AJUNOK_clean_linker_0, # of connection points: 2
#     Edge 43, Type (0, 1), BuildingBlock: AJUNOK_clean_linker_0, # of connection points: 2
#     Edge 44, Type (0, 1), BuildingBlock: AJUNOK_clean_linker_0, # of connection points: 2
#     Edge 45, Type (0, 1), BuildingBlock: AJUNOK_clean_linker_0, # of connection points: 2
#     Edge 46, Type (0, 1), BuildingBlock: AJUNOK_clean_linker_0, # of connection points: 2
#     Edge 47, Type (0, 1), BuildingBlock: AJUNOK_clean_linker_0, # of connection points: 2
#     Edge 48, Type (0, 1), BuildingBlock: AJUNOK_clean_linker_0, # of connection points: 2
#     Edge 49, Type (0, 1), BuildingBlock: AJUNOK_clean_linker_0, # of connection points: 2
#     Edge 50, Type (0, 1), BuildingBlock: AJUNOK_clean_linker_0, # of connection points: 2
#     Edge 51, Type (0, 1), BuildingBlock: AJUNOK_clean_linker_0, # of connection points: 2
#     Edge 52, Type (0, 1), BuildingBlock: AJUNOK_clean_linker_0, # of connection points: 2
#     Edge 53, Type (0, 1), BuildingBlock: AJUNOK_clean_linker_0, # of connection points: 2
#     Edge 54, Type (0, 1), BuildingBlock: AJUNOK_clean_linker_0, # of connection points: 2
#     Edge 55, Type (0, 1), BuildingBlock: AJUNOK_clean_linker_0, # of connection points: 2
#     Edge 56, Type (0, 1), BuildingBlock: AJUNOK_clean_linker_0, # of connection points: 2
#     Edge 57, Type (0, 1), BuildingBlock: AJUNOK_clean_linker_0, # of connection points: 2
#     Edge 58, Type (0, 1), BuildingBlock: AJUNOK_clean_linker_0, # of connection points: 2
#     Edge 59, Type (0, 1), BuildingBlock: AJUNOK_clean_linker_0, # of connection points: 2
#     Edge 60, Type (0, 1), BuildingBlock: AJUNOK_clean_linker_0, # of connection points: 2
#     Edge 61, Type (0, 1), BuildingBlock: AJUNOK_clean_linker_0, # of connection points: 2
#     Edge 62, Type (0, 1), BuildingBlock: AJUNOK_clean_linker_0, # of connection points: 2
#     Edge 63, Type (0, 1), BuildingBlock: AJUNOK_clean_linker_0, # of connection points: 2
#     Edge 64, Type (0, 1), BuildingBlock: AJUNOK_clean_linker_0, # of connection points: 2
#     Edge 65, Type (0, 1), BuildingBlock: AJUNOK_clean_linker_0, # of connection points: 2
#     Edge 66, Type (0, 1), BuildingBlock: AJUNOK_clean_linker_0, # of connection points: 2
#     Edge 67, Type (0, 1), BuildingBlock: AJUNOK_clean_linker_0, # of connection points: 2
#     Edge 68, Type (0, 1), BuildingBlock: AJUNOK_clean_linker_0, # of connection points: 2
#     Edge 69, Type (0, 1), BuildingBlock: AJUNOK_clean_linker_0, # of connection points: 2
#     Edge 70, Type (0, 1), BuildingBlock: AJUNOK_clean_linker_0, # of connection points: 2
#     Edge 71, Type (0, 1), BuildingBlock: AJUNOK_clean_linker_0, # of connection points: 2
#     Edge 72, Type (0, 1), BuildingBlock: AJUNOK_clean_linker_0, # of connection points: 2
#     Edge 73, Type (0, 1), BuildingBlock: AJUNOK_clean_linker_0, # of connection points: 2
#     Edge 74, Type (0, 1), BuildingBlock: AJUNOK_clean_linker_0, # of connection points: 2
#     Edge 75, Type (0, 1), BuildingBlock: AJUNOK_clean_linker_0, # of connection points: 2
# Relax obj value: 0.120
# Max RMSD: 0.273
# Mean RMSD: 0.155
data_MOF--net-ctn--node1-NAHDIM_clean_sbu_0--node2-QEWDON_clean_linker_0--edge1-AJUNOK_clean_linker_0
_symmetry_space_group_name_H-M    P1
_symmetry_Int_Tables_number       1
_symmetry_cell_setting            triclinic
loop_
_symmetry_equiv_pos_as_xyz
'x, y, z'
_cell_length_a     38.27958
_cell_length_b     40.409787
_cell_length_c     42.903116
_cell_angle_alpha  100.18211
_cell_angle_beta   92.153718
_cell_angle_gamma 97.900676
loop_
_atom_site_label
_atom_site_type_symbol
_atom_site_fract_x
_atom_site_fract_y
_atom_site_fract_z
_atom_type_partial_charge
H0 H 0.12074 0.04649 0.06808 0.0
C1 C 0.10435 0.04025 0.0869 0.0
C2 C 0.10743 1.01063 0.09926 0.0
C3 C 0.082 0.063 0.10017 0.0
H4 H 0.0893 0.98082 0.13421 0.0
C5 C 0.08673 1.00335 0.12438 0.0
C6 C 0.06406 0.02596 0.13779 0.0
C7 C 0.06175 0.05544 0.12526 0.0
C8 C 0.08301 0.09686 0.09113 0.0
H9 H 0.04523 0.07351 0.13606 0.0
C10 C 0.07584 0.10052 0.05953 0.0
C11 C 0.07585 0.13319 0.05208 0.0
C12 C 0.09083 0.12602 0.11492 0.0
H13 H 0.09673 0.12383 0.13931 0.0
C14 C 0.09131 0.15826 0.10755 0.0
H15 H 0.07001 0.07815 0.04104 0.0
C16 C 0.08377 0.16188 0.07643 0.0
H17 H 0.08367 0.18724 0.07146 0.0
H18 H 0.09731 0.18054 0.12608 0.0
H19 H 0.36331 0.76679 0.28226 0.0
C20 C 0.34424 0.74398 0.27499 0.0
C21 C 0.34986 0.71407 0.28549 0.0
C22 C 0.31425 0.74483 0.25538 0.0
H23 H 0.32893 0.66166 0.28493 0.0
C24 C 0.32508 0.68463 0.27628 0.0
C25 C 0.2948 0.68496 0.25676 0.0
C26 C 0.28977 0.71509 0.24608 0.0
C27 C 0.30762 0.77756 0.24677 0.0
H28 H 0.26595 0.71588 0.23191 0.0
C29 C 0.29838 0.78009 0.21522 0.0
C30 C 0.29428 0.81189 0.2075 0.0
C31 C 0.3114 0.8069 0.2705 0.0
H32 H 0.31796 0.8056 0.295 0.0
C33 C 0.30653 0.83819 0.26299 0.0
H34 H 0.29562 0.75775 0.19663 0.0
C35 C 0.29818 0.84075 0.23171 0.0
H36 H 0.2946 0.86535 0.22638 0.0
H37 H 0.30941 0.86057 0.28147 0.0
H38 H 0.0668 0.48523 0.0465 0.0
C39 C 0.04824 0.5022 0.04231 0.0
C40 C 0.03282 0.52017 0.06807 0.0
C41 C 0.04059 0.50654 0.01121 0.0
H42 H 0.99693 0.55659 0.08158 0.0
C43 C 1.0086 0.54202 0.06206 0.0
C44 C 1.00048 0.54624 0.03085 0.0
C45 C 0.01672 0.5285 1.00567 0.0
C46 C 0.05823 0.48878 0.98446 0.0
H47 H 1.0103 0.53136 0.98154 0.0
C48 C 0.05777 0.45342 0.97994 0.0
C49 C 0.07443 0.43662 0.95441 0.0
C50 C 0.07563 0.50725 0.9633 0.0
H51 H 0.07641 0.53455 0.96642 0.0
C52 C 0.0927 0.4907 0.93825 0.0
H53 H 0.04423 0.43896 0.99608 0.0
C54 C 0.09221 0.45558 0.93382 0.0
H55 H 0.10521 0.44311 0.914 0.0
H56 H 0.10623 0.50512 0.92215 0.0
H57 H 0.80261 0.80749 0.25719 0.0
C58 C 0.8041 0.79665 0.23236 0.0
C59 C 0.8225 0.81592 0.21224 0.0
C60 C 0.79003 0.76245 0.22109 0.0
H61 H 0.83936 0.81567 0.16477 0.0
C62 C 0.82555 0.80087 0.18049 0.0
C63 C 0.81204 0.76661 0.16914 0.0
C64 C 0.79403 0.74768 0.18954 0.0
C65 C 0.77445 0.74076 0.24283 0.0
H66 H 0.78419 0.72096 0.18122 0.0
C67 C 0.74309 0.74682 0.25742 0.0
C68 C 0.72743 0.72452 0.27646 0.0
C69 C 0.79051 0.7128 0.24793 0.0
H70 H 0.81468 0.70775 0.23685 0.0
C71 C 0.77556 0.69116 0.26734 0.0
H72 H 0.73074 0.76847 0.25357 0.0
C73 C 0.74418 0.69686 0.28145 0.0
H74 H 0.73264 0.67924 0.29586 0.0
H75 H 0.78811 0.66966 0.27117 0.0
H76 H 0.14452 0.9865 0.5004 0.0
C77 C 0.12203 0.98836 0.485 0.0
C78 C 0.12236 0.01655 0.46999 0.0
C79 C 0.09358 0.96177 0.47933 0.0
H80 H 0.09445 0.03927 0.43685 0.0
C81 C 0.09338 0.01832 0.44962 0.0
C82 C 0.06441 0.992 0.44377 0.0
C83 C 0.06463 0.96385 0.45906 0.0
C84 C 0.09735 0.92971 0.49037 0.0
H85 H 0.04314 0.94282 0.45402 0.0
C86 C 0.07655 0.91825 0.51386 0.0
C87 C 0.08275 0.88866 0.52513 0.0
C88 C 0.12355 0.91105 0.47778 0.0
H89 H 0.13976 0.9195 0.4597 0.0
C90 C 0.12918 0.88148 0.48839 0.0
H91 H 0.05664 0.93282 0.52399 0.0
C92 C 0.10909 0.87041 0.51198 0.0
H93 H 0.11408 0.84741 0.51998 0.0
H94 H 0.14938 0.86722 0.47849 0.0
H95 H 0.2918 0.67304 0.78578 0.0
C96 C 0.28726 0.6874 0.80874 0.0
C97 C 0.30216 0.67944 0.83638 0.0
C98 C 0.26657 0.71367 0.81024 0.0
H99 H 0.3079 0.69254 0.88739 0.0
C100 C 0.29537 0.69778 0.8661 0.0
C101 C 0.27386 0.72377 0.86823 0.0
C102 C 0.25941 0.73123 0.84001 0.0
C103 C 0.25473 0.72419 0.78054 0.0
H104 H 0.2433 0.75142 0.84115 0.0
C105 C 0.21992 0.73076 0.77547 0.0
C106 C 0.20934 0.74065 0.74705 0.0
C107 C 0.27886 0.72802 0.75705 0.0
H108 H 0.30592 0.72368 0.7605 0.0
C109 C 0.26854 0.738 0.72906 0.0
H110 H 0.20093 0.72728 0.79315 0.0
C111 C 0.23407 0.74423 0.72402 0.0
H112 H 0.22677 0.75213 0.70212 0.0
H113 H 0.28739 0.741 0.71121 0.0
H114 H 0.97885 0.61568 0.49144 0.0
C115 C 0.96316 0.59265 0.49575 0.0
C116 C 0.95546 0.58923 0.52687 0.0
C117 C 0.95018 0.56681 0.47002 0.0
H118 H 0.92676 0.5576 0.55576 0.0
C119 C 0.93414 0.5597 0.53196 0.0
C120 C 0.92047 0.53382 0.50634 0.0
C121 C 0.92914 0.53733 0.47538 0.0
C122 C 0.95481 0.57273 0.43738 0.0
H123 H 0.91864 0.51769 0.45536 0.0
C124 C 0.98111 0.5593 0.41912 0.0
C125 C 0.98531 0.5659 0.38816 0.0
C126 C 0.93287 0.59277 0.42471 0.0
H127 H 0.9126 0.60337 0.43856 0.0
C128 C 0.93699 0.59942 0.39417 0.0
H129 H 0.99816 0.5439 0.42894 0.0
C130 C 0.96308 0.58623 0.37603 0.0
H131 H 0.96625 0.5924 0.35264 0.0
H132 H 0.9201 0.61508 0.38461 0.0
H133 H 0.84608 0.83277 0.78923 0.0
C134 C 0.8439 0.81667 0.80697 0.0
C135 C 0.8624 0.78853 0.80424 0.0
C136 C 0.8235 0.82466 0.83307 0.0
H137 H 0.87593 0.74791 0.82705 0.0
C138 C 0.86048 0.7686 0.82815 0.0
C139 C 0.84008 0.77619 0.85428 0.0
C140 C 0.82103 0.80368 0.85601 0.0
C141 C 0.80699 0.85629 0.83836 0.0
H142 H 0.80448 0.80917 0.87568 0.0
C143 C 0.78665 0.8658 0.81413 0.0
C144 C 0.76975 0.89492 0.82085 0.0
C145 C 0.81116 0.87699 0.86871 0.0
H146 H 0.82716 0.87073 0.8876 0.0
C147 C 0.7949 0.90601 0.8751 0.0
H148 H 0.78304 0.85018 0.79064 0.0
C149 C 0.77413 0.91484 0.85143 0.0
H150 H 0.76151 0.93741 0.85693 0.0
H151 H 0.79827 0.92165 0.89856 0.0
H152 H 0.34341 0.33531 0.28862 0.0
C153 C 0.3423 0.3192 0.30635 0.0
C154 C 0.36092 0.2911 0.30273 0.0
C155 C 0.32343 0.32734 0.33345 0.0
H156 H 0.37479 0.24968 0.32409 0.0
C157 C 0.35958 0.27061 0.32617 0.0
C158 C 0.34037 0.27813 0.35313 0.0
C159 C 0.32221 0.30631 0.35634 0.0
C160 C 0.30755 0.3593 0.33981 0.0
H161 H 0.30735 0.31222 0.37712 0.0
C162 C 0.28605 0.36921 0.31663 0.0
C163 C 0.27005 0.39885 0.32426 0.0
C164 C 0.3137 0.37999 0.37009 0.0
H165 H 0.33064 0.37344 0.38817 0.0
C166 C 0.29829 0.40943 0.37746 0.0
H167 H 0.2809 0.3535 0.29324 0.0
C168 C 0.27646 0.41872 0.35483 0.0
H169 H 0.26475 0.44175 0.36113 0.0
H170 H 0.30323 0.42508 0.40085 0.0
H171 H 0.56592 0.98836 0.54072 0.0
C172 C 0.54712 1.00569 0.53841 0.0
C173 C 0.53228 0.0218 0.56551 0.0
C174 C 0.53848 0.01244 0.50836 0.0
H175 H 0.49679 0.05745 0.58255 0.0
C176 C 0.50777 0.04417 0.56187 0.0
C177 C 0.49839 0.05049 0.53164 0.0
C178 C 0.51425 0.03477 0.50515 0.0
C179 C 0.55532 0.99702 0.48009 0.0
H180 H 0.50728 0.03949 0.48175 0.0
C181 C 0.5496 0.96167 0.46935 0.0
C182 C 0.56333 0.94753 0.44087 0.0
C183 C 0.57568 0.01805 0.46272 0.0
H184 H 0.58025 0.04537 0.47064 0.0
C185 C 0.59026 1.00399 0.43502 0.0
H186 H 0.53332 0.94541 0.48237 0.0
C187 C 0.58405 0.96895 0.42404 0.0
H188 H 0.59539 0.95855 0.40234 0.0
H189 H 0.6061 0.02033 0.42183 0.0
H190 H 0.30617 0.30302 0.76836 0.0
C191 C 0.30773 0.29453 0.74309 0.0
C192 C 0.3264 0.31613 0.72505 0.0
C193 C 0.29224 0.26154 0.72875 0.0
H194 H 0.34374 0.32105 0.67851 0.0
C195 C 0.32882 0.30474 0.69239 0.0
C196 C 0.31309 0.27194 0.67781 0.0
C197 C 0.29492 0.2506 0.69616 0.0
C198 C 0.27443 0.23752 0.74753 0.0
H199 H 0.2835 0.22493 0.68514 0.0
C200 C 0.24669 0.2462 0.76647 0.0
C201 C 0.2272 0.22177 0.7813 0.0
C202 C 0.28379 0.20475 0.74481 0.0
H203 H 0.30525 0.19759 0.73054 0.0
C204 C 0.26538 0.18084 0.76022 0.0
H205 H 0.23986 0.27163 0.76896 0.0
C206 C 0.23708 0.1891 0.77807 0.0
H207 H 0.22248 0.16962 0.78885 0.0
H208 H 0.27265 0.1556 0.75782 0.0
H209 H 0.87575 0.25766 0.76148 0.0
C210 C 0.85542 0.23557 0.75692 0.0
C211 C 0.86168 0.20547 0.7668 0.0
C212 C 0.82295 0.23767 0.74165 0.0
H213 H 0.83929 0.15427 0.76978 0.0
C214 C 0.83464 0.17753 0.76208 0.0
C215 C 0.80186 0.17928 0.74694 0.0
C216 C 0.79645 0.20927 0.73622 0.0
C217 C 0.81602 0.27056 0.73394 0.0
H218 H 0.77108 0.21103 0.72501 0.0
C219 C 0.80682 0.27386 0.70264 0.0
C220 C 0.80095 0.30564 0.69592 0.0
C221 C 0.81919 0.29916 0.75836 0.0
H222 H 0.82618 0.29714 0.78259 0.0
C223 C 0.81317 0.33055 0.75181 0.0
H224 H 0.80459 0.25195 0.68363 0.0
C225 C 0.80422 0.33385 0.72082 0.0
H226 H 0.80044 0.35867 0.71621 0.0
H227 H 0.81572 0.35246 0.77078 0.0
H228 H 0.61726 0.54878 0.56164 0.0
C229 C 0.59973 0.54177 0.57943 0.0
C230 C 0.60129 0.51111 0.59046 0.0
C231 C 0.57735 0.56443 0.59277 0.0
H232 H 0.58058 0.4796 0.62338 0.0
C233 C 0.57898 0.50272 0.61421 0.0
C234 C 0.55652 0.52541 0.62775 0.0
C235 C 0.55565 0.55586 0.61657 0.0
C236 C 0.57943 0.59893 0.58507 0.0
H237 H 0.53844 0.57346 0.62696 0.0
C238 C 0.57314 0.60403 0.55381 0.0
C239 C 0.57385 0.63726 0.54759 0.0
C240 C 0.5871 0.62721 0.60981 0.0
H241 H 0.59222 0.62386 0.63399 0.0
C242 C 0.58836 0.66003 0.60366 0.0
H243 H 0.56737 0.58232 0.53462 0.0
C244 C 0.58168 0.66508 0.57284 0.0
H245 H 0.58213 0.69085 0.5688 0.0
H246 H 0.59425 0.68163 0.62289 0.0
H247 H 0.64659 0.47826 0.99176 0.0
C248 C 0.62295 0.48082 0.97818 0.0
C249 C 0.6225 0.50899 0.96333 0.0
C250 C 0.59345 0.45547 0.97525 0.0
H251 H 0.59237 0.53273 0.93275 0.0
C252 C 0.59199 0.51171 0.94536 0.0
C253 C 0.5619 0.48666 0.94216 0.0
C254 C 0.5626 0.45899 0.95811 0.0
C255 C 0.59718 0.42346 0.98652 0.0
H256 H 0.5398 0.43951 0.95632 0.0
C257 C 0.57591 0.41183 0.00966 0.0
C258 C 0.5824 0.38261 0.02138 0.0
C259 C 0.62382 0.40499 0.97452 0.0
H260 H 0.64032 0.4134 0.95661 0.0
C261 C 0.62953 0.37561 0.98548 0.0
H262 H 0.55551 0.42605 0.01929 0.0
C263 C 0.60912 0.36456 1.00887 0.0
H264 H 0.61423 0.34183 0.01732 0.0
H265 H 0.65008 0.36155 0.97603 0.0
H266 H 0.79442 0.17332 0.28178 0.0
C267 C 0.78757 0.18764 0.30397 0.0
C268 C 0.80172 0.1815 0.33274 0.0
C269 C 0.76534 0.21248 0.30339 0.0
H270 H 0.80388 0.19622 0.38383 0.0
C271 C 0.79305 0.20057 0.36146 0.0
C272 C 0.77094 0.22574 0.36138 0.0
C273 C 0.75673 0.23102 0.33222 0.0
C274 C 0.75298 0.22032 0.27257 0.0
H275 H 0.73965 0.25025 0.33195 0.0
C276 C 0.71783 0.2257 0.26687 0.0
C277 C 0.70655 0.23247 0.2373 0.0
C278 C 0.77677 0.22266 0.24856 0.0
H279 H 0.80411 0.21938 0.25242 0.0
C280 C 0.76576 0.22985 0.21947 0.0
H281 H 0.69908 0.22375 0.28501 0.0
C282 C 0.73091 0.23469 0.2138 0.0
H283 H 0.72304 0.24053 0.1911 0.0
H284 H 0.78436 0.23177 0.20125 0.0
H285 H 0.47563 0.10855 0.97273 0.0
C286 C 0.46029 0.08722 0.98051 0.0
C287 C 0.45458 0.08861 0.01288 0.0
C288 C 0.4444 0.05933 0.95785 0.0
H289 H 0.42832 0.06258 0.04722 0.0
C290 C 0.43328 0.06138 0.02237 0.0
C291 C 0.41765 0.03303 0.9999 0.0
C292 C 0.42314 0.0324 0.96763 0.0
C293 C 0.44689 0.05983 0.92369 0.0
H294 H 0.41069 1.01101 0.94997 0.0
C295 C 0.47857 0.05589 0.90877 0.0
C296 C 0.48013 0.05584 0.87595 0.0
C297 C 0.41689 0.06395 0.90581 0.0
H298 H 0.39231 0.06699 0.91697 0.0
C299 C 0.41844 0.06445 0.87349 0.0
H300 H 0.50146 0.05186 0.9225 0.0
C301 C 0.44976 0.06042 0.85863 0.0
H302 H 0.45025 0.06093 0.83348 0.0
H303 H 0.39525 0.06787 0.85988 0.0
C304 C 0.21709 0.92713 0.06049 0.0
O305 O 0.2495 0.93736 0.07291 0.0
O306 O 0.24877 0.83922 0.99124 0.0
Zn307 Zn 0.25489 0.87639 0.031 0.0
O308 O 0.29247 0.91328 0.02161 0.0
C309 C 0.2522 0.83844 0.08357 0.0
O310 O 0.22007 0.82606 0.07138 0.0
O311 O 0.21087 0.89905 0.04087 0.0
C312 C 0.32255 0.92255 0.0366 0.0
O313 O 0.33081 0.90735 0.05989 0.0
C314 C 0.25721 0.80962 0.9902 0.0
O315 O 0.26822 0.80086 0.01651 0.0
O316 O 0.27128 0.85928 0.06999 0.0
C317 C 0.18532 0.46732 0.24862 0.0
O318 O 0.20003 0.48361 0.22743 0.0
O319 O 0.09454 0.52228 0.27916 0.0
Zn320 Zn 0.13291 0.51425 0.2486 0.0
O321 O 0.17008 0.55619 0.25513 0.0
C322 C 0.08008 0.51215 0.19725 0.0
O323 O 0.0608 0.52159 0.22098 0.0
O324 O 0.1563 0.47509 0.25921 0.0
C325 C 0.1853 0.56624 0.23189 0.0
O326 O 0.17652 0.54901 0.2031 0.0
C327 C 0.09957 0.52889 0.30922 0.0
O328 O 0.13176 0.53124 0.322 0.0
O329 O 0.11126 0.5062 0.20321 0.0
C330 C 0.8945 0.62557 0.99464 0.0
O331 O 0.90254 0.65254 0.9817 0.0
O332 O 0.83154 0.6673 0.95304 0.0
Zn333 Zn 0.82157 0.64045 0.98875 0.0
O334 O 0.77809 0.60529 0.97656 0.0
C335 C 0.83813 0.69191 0.04521 0.0
O336 O 0.8697 0.69371 0.03413 0.0
O337 O 0.86227 0.61588 0.99887 0.0
C338 C 0.74709 0.61282 0.97981 0.0
O339 O 0.74333 0.64463 0.99031 0.0
C340 C 0.82631 0.69814 0.95643 0.0
O341 O 0.81398 0.71217 0.98293 0.0
O342 O 0.81294 0.67125 0.0294 0.0
C343 C 0.90047 0.08207 0.3205 0.0
O344 O 0.92965 0.08626 0.33875 0.0
O345 O 0.95571 0.01877 0.33068 0.0
Zn346 Zn 0.92555 0.01885 0.29042 0.0
O347 O 0.89378 0.97326 0.27705 0.0
C348 C 0.9883 0.01862 0.25282 0.0
O349 O 1.00172 1.00757 0.27697 0.0
O350 O 0.89384 0.05583 0.29865 0.0
C351 C 0.90467 0.94953 0.258 0.0
O352 O 0.93653 0.95497 0.24793 0.0
C353 C 0.96331 0.99143 0.3383 0.0
O354 O 0.95125 0.96233 0.31972 0.0
O355 O 0.957 0.02609 0.25385 0.0
C356 C 0.39317 0.1336 0.50151 0.0
O357 O 0.40266 0.15967 0.48768 0.0
O358 O 0.32932 0.17352 0.45658 0.0
Zn359 Zn 0.32056 0.15028 0.49477 0.0
O360 O 0.27689 0.11499 0.48467 0.0
C361 C 0.33726 0.20126 0.55239 0.0
O362 O 0.37 0.19863 0.54541 0.0
O363 O 0.36068 0.12553 0.50589 0.0
C364 C 0.24576 0.122 0.48843 0.0
O365 O 0.24146 0.15375 0.49847 0.0
C366 C 0.33667 0.20566 0.45965 0.0
O367 O 0.34003 0.22414 0.48831 0.0
O368 O 0.31216 0.18369 0.53383 0.0
C369 C 0.38303 0.56535 0.82068 0.0
O370 O 0.37871 0.54343 0.83998 0.0
O371 O 0.46003 0.51829 0.83049 0.0
Zn372 Zn 0.43038 0.51948 0.79035 0.0
O373 O 0.39691 0.47505 0.77736 0.0
C374 C 0.46178 0.50451 0.7282 0.0
O375 O 0.43563 0.47916 0.72201 0.0
O376 O 0.40323 0.56001 0.79795 0.0
C377 C 0.40902 0.4472 0.77707 0.0
O378 O 0.44266 0.44811 0.78507 0.0
C379 C 0.45072 0.49954 0.85055 0.0
O380 O 0.41972 0.48037 0.84654 0.0
O381 O 0.46412 0.5246 0.75495 0.0
C382 C 0.71124 0.42772 0.553 0.0
O383 O 0.74261 0.43647 0.56799 0.0
O384 O 0.74687 0.34205 0.48465 0.0
Zn385 Zn 0.7498 0.37716 0.52544 0.0
O386 O 0.78968 0.41387 0.5199 0.0
C387 C 0.78066 0.33808 0.5701 0.0
O388 O 0.80213 0.32899 0.54802 0.0
O389 O 0.70594 0.40071 0.53195 0.0
C390 C 0.82011 0.42196 0.53431 0.0
O391 O 0.82868 0.40552 0.5566 0.0
C392 C 0.74347 0.3098 0.48121 0.0
O393 O 0.73779 0.2954 0.50606 0.0
O394 O 0.75836 0.35739 0.56491 0.0
C395 C 0.68851 0.96515 0.74486 0.0
O396 O 0.70568 0.98399 0.72674 0.0
O397 O 0.59796 0.01959 0.77429 0.0
Zn398 Zn 0.63591 0.0115 0.74331 0.0
O399 O 0.67404 0.05263 0.75057 0.0
C400 C 0.58175 1.0073 0.69227 0.0
O401 O 0.56137 0.01224 0.71609 0.0
O402 O 0.65807 0.97128 0.75299 0.0
C403 C 0.68855 0.06403 0.72765 0.0
O404 O 0.67804 0.04904 0.69845 0.0
C405 C 0.60348 0.03587 0.80267 0.0
O406 O 0.636 0.04872 0.81341 0.0
O407 O 0.61406 1.00467 0.69803 0.0
C408 C 0.03683 0.16966 0.93153 0.0
O409 O 1.01202 0.15205 0.91082 0.0
O410 O 0.99936 0.20472 0.86293 0.0
Zn411 Zn 0.04517 0.22251 0.89022 0.0
O412 O 0.04384 0.27171 0.90838 0.0
C413 C 0.10216 0.24328 0.85075 0.0
O414 O 0.08799 0.27132 0.85254 0.0
O415 O 0.05207 0.19822 0.92687 0.0
C416 C 0.07069 0.29026 0.9237 0.0
O417 O 0.09943 0.27677 0.92796 0.0
C418 C 0.9971 0.21372 0.83602 0.0
O419 O 0.02467 0.23193 0.82708 0.0
O420 O 0.08827 0.21958 0.86434 0.0
C421 C 0.53826 0.67845 0.42844 0.0
O422 O 0.51374 0.66157 0.40706 0.0
O423 O 0.50257 0.71518 0.36124 0.0
Zn424 Zn 0.54822 0.73207 0.38841 0.0
O425 O 0.54988 0.78188 0.40695 0.0
C426 C 0.59301 0.73397 0.33445 0.0
O427 O 0.56532 0.74183 0.31994 0.0
O428 O 0.5541 0.70713 0.42468 0.0
C429 C 0.54049 0.80229 0.38995 0.0
O430 O 0.52891 0.79024 0.36037 0.0
C431 C 0.47419 0.7251 0.37121 0.0
O432 O 0.47519 0.74392 0.39962 0.0
O433 O 0.5908 0.72811 0.36251 0.0
C434 C 1.01111 0.81885 0.61713 0.0
O435 O 0.97892 0.80241 0.61029 0.0
O436 O 0.97863 0.78416 0.69495 0.0
Zn437 Zn 0.01486 0.77291 0.66269 0.0
O438 O 0.99515 0.73149 0.62958 0.0
C439 C 0.07021 0.77167 0.71293 0.0
O440 O 0.05177 0.79006 0.73252 0.0
O441 O 0.02991 0.81151 0.63935 0.0
C442 C 1.00311 0.70221 0.63105 0.0
O443 O 0.02349 0.69872 0.65521 0.0
C444 C 0.9594 0.75997 0.70428 0.0
O445 O 0.96381 0.72859 0.69275 0.0
O446 O 0.05914 0.76248 0.68394 0.0
C447 C 0.50914 0.31117 0.11111 0.0
O448 O 0.47694 0.29521 0.10298 0.0
O449 O 0.47503 0.27955 0.19036 0.0
Zn450 Zn 0.5092 0.26538 0.15719 0.0
O451 O 0.48733 0.22442 0.12478 0.0
C452 C 0.56771 0.26455 0.20445 0.0
O453 O 0.55495 0.28918 0.22264 0.0
O454 O 0.52651 0.30339 0.13396 0.0
C455 C 0.5081 0.21091 0.10556 0.0
O456 O 0.54139 0.22485 0.10755 0.0
C457 C 0.45273 0.25747 0.19953 0.0
O458 O 0.45182 0.22531 0.18668 0.0
O459 O 0.55222 0.25172 0.17743 0.0
C460 C 0.26984 0.78029 0.90267 0.0
C461 C 0.26811 0.74474 0.89956 0.0
C462 C 0.26509 0.80083 0.93173 0.0
C463 C 0.25897 0.78686 0.95917 0.0
H464 H 0.27568 0.79258 0.8826 0.0
H465 H 0.26735 0.82804 0.93288 0.0
S466 S 0.24921 0.69519 0.96365 0.0
N467 N 0.25721 0.69634 0.92627 0.0
N468 N 0.24972 0.7351 0.98114 0.0
C469 C 0.25667 0.75138 0.95643 0.0
C470 C 0.26095 0.73034 0.92666 0.0
C471 C 0.04884 0.55886 0.38109 0.0
C472 C 0.01356 0.55295 0.36866 0.0
C473 C 0.07639 0.55028 0.36191 0.0
C474 C 0.0697 0.53546 0.32956 0.0
H475 H 0.05536 0.57134 0.40551 0.0
H476 H 0.10321 0.5562 0.37238 0.0
S477 S 0.98116 0.51083 0.28674 0.0
N478 N 0.97298 0.5285 0.32294 0.0
N479 N 0.0245 0.51255 0.28683 0.0
C480 C 0.03427 0.52807 0.31727 0.0
C481 C 1.0063 0.53676 0.33682 0.0
C482 C 0.83319 0.72055 0.87398 0.0
C483 C 0.8394 0.75635 0.88051 0.0
C484 C 0.83003 0.70171 0.89863 0.0
C485 C 0.83274 0.71801 0.93067 0.0
H486 H 0.82974 0.70704 0.84965 0.0
H487 H 0.8243 0.67425 0.8925 0.0
S488 S 0.85407 0.81093 0.96045 0.0
N489 N 0.85216 0.80706 0.92146 0.0
N490 N 0.84538 0.77189 0.96753 0.0
C491 C 0.84041 0.75369 0.93747 0.0
C492 C 0.84396 0.77278 0.91248 0.0
C493 C 0.02616 0.9628 0.39536 0.0
C494 C 0.03628 0.99203 0.41877 0.0
C495 C 1.00214 0.96281 0.3699 0.0
C496 C 0.98731 0.99212 0.36658 0.0
H497 H 0.03774 0.93994 0.3961 0.0
H498 H 0.99586 0.93976 0.35227 0.0
S499 S 1.00268 0.07451 0.42296 0.0
N500 N 0.02769 0.05043 0.43824 0.0
N501 N 0.983 0.0507 0.39005 0.0
C502 C 0.99648 0.02132 0.39025 0.0
C503 C 0.02083 0.02123 0.41637 0.0
C504 C 0.35245 0.25823 0.63367 0.0
C505 C 0.31814 0.25833 0.64414 0.0
C506 C 0.35825 0.24068 0.60352 0.0
C507 C 0.32992 0.22265 0.58265 0.0
H508 H 0.37511 0.27045 0.64944 0.0
H509 H 0.38528 0.24042 0.597 0.0
S510 S 0.23459 0.21888 0.59767 0.0
N511 N 0.25527 0.24174 0.63056 0.0
N512 N 0.26589 0.20877 0.57385 0.0
C513 C 0.29529 0.22421 0.59229 0.0
C514 C 0.28948 0.242 0.62305 0.0
C515 C 0.50982 0.48957 0.65172 0.0
C516 C 0.53507 0.51882 0.65479 0.0
C517 C 0.48658 0.48505 0.67573 0.0
C518 C 0.4879 0.50948 0.70388 0.0
H519 H 0.50722 0.47059 0.63017 0.0
H520 H 0.46713 0.46235 0.67193 0.0
S521 S 0.55172 0.58925 0.72433 0.0
N522 N 0.56176 0.57155 0.68874 0.0
N523 N 0.51836 0.56321 0.73383 0.0
C524 C 0.51404 0.53829 0.70761 0.0
C525 C 0.53752 0.5429 0.6831 0.0
C526 C 0.8158 0.30143 0.63903 0.0
C527 C 0.79289 0.31031 0.66297 0.0
C528 C 0.81119 0.30979 0.60885 0.0
C529 C 0.78342 0.32726 0.60145 0.0
H530 H 0.83825 0.28912 0.64403 0.0
H531 H 0.83013 0.30325 0.59151 0.0
S532 S 0.71375 0.35251 0.65508 0.0
N533 N 0.7398 0.33479 0.67665 0.0
N534 N 0.73093 0.35053 0.62019 0.0
C535 C 0.7594 0.33485 0.62489 0.0
C536 C 0.76419 0.32638 0.65555 0.0
C537 C 0.58011 0.01787 0.60584 0.0
C538 C 0.54388 0.01641 0.5976 0.0
C539 C 0.592 0.01392 0.63612 0.0
C540 C 0.56818 1.0085 0.65956 0.0
H541 H 0.5996 0.0229 0.58896 0.0
H542 H 0.6202 0.01603 0.64139 0.0
S543 S 0.47029 0.9995 0.64913 0.0
N544 N 0.48411 1.00675 0.61464 0.0
N545 N 0.50631 0.99989 0.67169 0.0
C546 C 0.53178 1.00615 0.65138 0.0
C547 C 0.51968 1.01002 0.62045 0.0
C548 C 0.89834 0.19474 0.81279 0.0
C549 C 0.89639 0.20384 0.78267 0.0
C550 C 0.93109 0.19662 0.82948 0.0
C551 C 0.96303 0.20757 0.81657 0.0
H552 H 0.87435 0.18738 0.82405 0.0
H553 H 0.93124 0.19061 0.85311 0.0
S554 S 0.97199 0.22959 0.73639 0.0
N555 N 0.92896 0.22085 0.73927 0.0
N556 N 0.99039 0.22433 0.77024 0.0
C557 C 0.96132 0.21494 0.78566 0.0
C558 C 0.92804 0.21312 0.76884 0.0
C559 C 0.56324 0.88697 0.44683 0.0
C560 C 0.55543 0.91057 0.42814 0.0
C561 C 0.55783 0.85199 0.43444 0.0
C562 C 0.54413 0.83931 0.40296 0.0
H563 H 0.57443 0.89567 0.47093 0.0
H564 H 0.56493 0.83486 0.44958 0.0
S565 S 0.51619 0.89094 0.34547 0.0
N566 N 0.53115 0.91908 0.37755 0.0
N567 N 0.5208 0.85351 0.35413 0.0
C568 C 0.53509 0.86277 0.38443 0.0
C569 C 0.54081 0.89834 0.39704 0.0
C570 C 0.19052 0.21757 0.82806 0.0
C571 C 0.19594 0.22949 0.79941 0.0
C572 C 0.16007 0.22208 0.84445 0.0
C573 C 0.13419 0.23931 0.83321 0.0
H574 H 0.20992 0.20445 0.83787 0.0
H575 H 0.15692 0.21224 0.86625 0.0
S576 S 0.13461 0.27457 0.7591 0.0
N577 N 0.17175 0.25816 0.75996 0.0
N578 N 0.11539 0.26806 0.79174 0.0
C579 C 0.13936 0.25191 0.80499 0.0
C580 C 0.17004 0.2467 0.78788 0.0
C581 C 0.58823 0.66903 0.50369 0.0
C582 C 0.566 0.64382 0.5152 0.0
C583 C 0.57932 0.67932 0.47532 0.0
C584 C 0.54781 0.66478 0.45709 0.0
H585 H 0.61244 0.68149 0.51713 0.0
H586 H 0.59715 0.69929 0.46792 0.0
S587 S 0.48106 0.59671 0.4762 0.0
N588 N 0.51153 0.6038 0.50584 0.0
N589 N 0.49492 0.62273 0.45209 0.0
C590 C 0.52594 0.63854 0.46767 0.0
C591 C 0.53502 0.62814 0.49678 0.0
C592 C 0.90997 0.80705 0.76949 0.0
C593 C 0.88545 0.78103 0.77744 0.0
C594 C 0.93337 0.80015 0.74554 0.0
C595 C 0.93324 0.76692 0.72857 0.0
H596 H 0.91169 0.83285 0.78243 0.0
H597 H 0.95215 0.82098 0.74074 0.0
S598 S 0.87185 0.6903 0.73839 0.0
N599 N 0.86078 0.72122 0.76502 0.0
N600 N 0.90479 0.70803 0.72033 0.0
C601 C 0.90816 0.74082 0.73577 0.0
C602 C 0.88432 0.74791 0.7601 0.0
C603 C 0.08157 0.86916 0.57719 0.0
C604 C 0.06285 0.87637 0.55096 0.0
C605 C 0.0643 0.8523 0.5994 0.0
C606 C 0.02752 0.84157 0.59616 0.0
H607 H 0.11009 0.87559 0.57997 0.0
H608 H 0.08027 0.84633 0.61845 0.0
S609 S 0.96594 0.85755 0.53324 0.0
N610 N 1.00533 0.87406 0.52422 0.0
N611 N 0.97255 0.84229 0.5659 0.0
C612 C 1.00819 0.85042 0.57097 0.0
C613 C 0.02591 0.86785 0.54842 0.0
C614 C 0.15471 0.73211 0.71109 0.0
C615 C 0.17256 0.74678 0.74058 0.0
C616 C 0.12141 0.73975 0.70284 0.0
C617 C 0.1044 0.76245 0.72371 0.0
H618 H 0.16683 0.71484 0.69399 0.0
H619 H 0.10917 0.72803 0.67962 0.0
S620 S 0.13958 0.80696 0.80438 0.0
N621 N 0.17062 0.78449 0.79109 0.0
N622 N 0.10773 0.79871 0.77584 0.0
C623 C 0.12151 0.77655 0.75376 0.0
C624 C 0.1556 0.76872 0.76213 0.0
C625 C 0.96199 0.65074 0.55215 0.0
C626 C 0.96782 0.61746 0.55381 0.0
C627 C 0.97306 0.67781 0.57736 0.0
C628 C 0.99065 0.67275 0.60519 0.0
H629 H 0.94843 0.65586 0.53129 0.0
H630 H 0.96798 0.70294 0.57482 0.0
S631 S 0.01276 0.59023 0.62098 0.0
N632 N 0.99256 0.58083 0.58518 0.0
N633 N 0.01335 0.6315 0.63269 0.0
C634 C 0.99662 0.63947 0.60711 0.0
C635 C 0.98518 0.6119 0.58144 0.0
C636 C 0.87785 0.85757 0.21804 0.0
C637 C 0.84226 0.85032 0.22483 0.0
C638 C 0.89753 0.88958 0.22904 0.0
C639 C 0.88259 0.91585 0.24745 0.0
H640 H 0.89079 0.83821 0.20423 0.0
H641 H 0.92482 0.8936 0.223 0.0
S642 S 0.79012 0.90999 0.27167 0.0
N643 N 0.79259 0.87194 0.25089 0.0
N644 N 0.8297 0.93232 0.27198 0.0
C645 C 0.84701 0.90891 0.25467 0.0
C646 C 0.82686 0.87612 0.24334 0.0
C647 C 0.81792 0.12376 0.31221 0.0
C648 C 0.82643 0.15583 0.33206 0.0
C649 C 0.84182 0.10013 0.30888 0.0
C650 C 0.87536 0.10746 0.32528 0.0
H651 H 0.79256 0.11692 0.2989 0.0
H652 H 0.83389 0.07595 0.29313 0.0
S653 S 0.91085 0.18815 0.37998 0.0
N654 N 0.87097 0.19388 0.36808 0.0
N655 N 0.91571 0.14945 0.36233 0.0
C656 C 0.88404 0.13932 0.3456 0.0
C657 C 0.85965 0.16344 0.3489 0.0
C658 C 0.36061 0.9932 0.99417 0.0
C659 C 0.39415 1.00478 0.00983 0.0
C660 C 0.3378 0.96671 1.00303 0.0
C661 C 0.34758 0.95056 0.02788 0.0
H662 H 0.35171 1.00498 0.97509 0.0
H663 H 0.31222 0.95895 0.99023 0.0
S664 S 0.4333 0.97078 0.07576 0.0
N665 N 0.43655 0.99765 0.05079 0.0
N666 N 0.39372 0.94802 0.06773 0.0
C667 C 0.38122 0.96185 0.04368 0.0
C668 C 0.40443 0.98891 0.03461 0.0
C669 C 0.21269 0.41678 0.30973 0.0
C670 C 0.24641 0.40992 0.30111 0.0
C671 C 0.19227 0.43347 0.2915 0.0
C672 C 0.20488 0.4444 0.26403 0.0
H673 H 0.20262 0.41041 0.33153 0.0
H674 H 0.16712 0.43928 0.3 0.0
S675 S 0.29016 0.42919 0.22952 0.0
N676 N 0.29041 0.41261 0.26205 0.0
N677 N 0.25221 0.44409 0.22757 0.0
C678 C 0.23772 0.43576 0.25408 0.0
C679 C 0.25842 0.41848 0.27265 0.0
C680 C 0.15062 0.07757 0.4825 0.0
C681 C 0.15406 0.04302 0.47394 0.0
C682 C 0.18035 0.10287 0.48693 0.0
C683 C 0.21469 0.09462 0.4827 0.0
H684 H 0.12478 0.08508 0.48629 0.0
H685 H 0.17628 0.12909 0.4939 0.0
S686 S 0.23742 1.00766 0.458 0.0
N687 N 0.19407 1.00182 0.45974 0.0
N688 N 0.24994 0.04907 0.46815 0.0
C689 C 0.21832 0.06006 0.47348 0.0
C690 C 0.18804 0.03437 0.4691 0.0
C691 C 0.75591 0.13701 0.71265 0.0
C692 C 0.77299 0.15 0.74275 0.0
C693 C 0.72873 0.10923 0.70807 0.0
C694 C 0.71725 0.09359 0.73351 0.0
H695 H 0.76391 0.14816 0.69238 0.0
H696 H 0.71657 0.10008 0.68435 0.0
S697 S 0.75278 0.11908 0.81742 0.0
N698 N 0.77612 0.14592 0.79858 0.0
N699 N 0.72503 0.09378 0.79016 0.0
C700 C 0.73395 0.10667 0.76387 0.0
C701 C 0.76183 0.1348 0.76843 0.0
C702 C 0.48002 0.09888 0.50881 0.0
C703 C 0.4721 0.07339 0.52704 0.0
C704 C 0.4546 0.1186 0.50129 0.0
C705 C 0.42002 0.11346 0.51142 0.0
H706 H 0.50604 0.10332 0.49991 0.0
H707 H 0.46199 0.13753 0.48681 0.0
S708 S 0.38629 0.0506 0.56086 0.0
N709 N 0.42766 0.04463 0.55584 0.0
N710 N 0.37976 0.08162 0.5419 0.0
C711 C 0.41202 0.08855 0.53039 0.0
C712 C 0.43807 0.06861 0.5382 0.0
C713 C 0.62056 0.45527 0.56665 0.0
C714 C 0.62917 0.49006 0.57986 0.0
C715 C 0.64707 0.4353 0.55706 0.0
C716 C 0.68312 0.44929 0.56103 0.0
H717 H 0.59318 0.44347 0.56363 0.0
H718 H 0.63932 0.40858 0.5472 0.0
S719 S 0.71931 0.53919 0.59458 0.0
N720 N 0.67613 0.53758 0.59633 0.0
N721 N 0.72571 0.50038 0.5787 0.0
C722 C 0.69188 0.48411 0.57415 0.0
C723 C 0.66499 0.50438 0.58347 0.0
C724 C 0.75217 0.23288 0.41753 0.0
C725 C 0.76365 0.24753 0.3916 0.0
C726 C 0.74505 0.25311 0.4461 0.0
C727 C 0.74922 0.28887 0.44999 0.0
H728 H 0.74842 0.20552 0.41564 0.0
H729 H 0.7364 0.24053 0.46535 0.0
S730 S 0.78052 0.33978 0.38956 0.0
N731 N 0.78023 0.29997 0.37198 0.0
N732 N 0.76651 0.33794 0.42521 0.0
C733 C 0.76081 0.30379 0.42414 0.0
C734 C 0.76811 0.28318 0.39513 0.0
C735 C 0.50995 0.02705 0.83002 0.0
C736 C 0.51267 0.05001 0.85908 0.0
C737 C 0.53947 0.02245 0.81234 0.0
C738 C 0.57317 0.0405 0.82295 0.0
H739 H 0.48464 0.01256 0.82072 0.0
H740 H 0.53568 1.00465 0.79 0.0
S741 S 0.59467 0.10357 0.89778 0.0
N742 N 0.55177 0.09099 0.89783 0.0
N743 N 0.60755 0.08201 0.8649 0.0
C744 C 0.57647 0.06307 0.85235 0.0
C745 C 0.54622 0.06786 0.87035 0.0
C746 C 0.34845 0.27579 0.4108 0.0
C747 C 0.34108 0.25839 0.37933 0.0
C748 C 0.34769 0.25838 0.4363 0.0
C749 C 0.33944 0.22271 0.43155 0.0
H750 H 0.35479 0.30325 0.41583 0.0
H751 H 0.35323 0.27324 0.46001 0.0
S752 S 0.31874 0.16503 0.35348 0.0
N753 N 0.32578 0.20344 0.34461 0.0
N754 N 0.32451 0.17048 0.3925 0.0
C755 C 0.33273 0.20485 0.40006 0.0
C756 C 0.33356 0.22271 0.374 0.0
C757 C 0.52042 0.52059 0.91897 0.0
C758 C 0.53107 0.48876 0.92044 0.0
C759 C 0.49413 0.52395 0.8965 0.0
C760 C 0.47671 0.4955 0.87532 0.0
H761 H 0.53287 0.54327 0.93501 0.0
H762 H 0.4874 0.54898 0.89568 0.0
S763 S 0.49443 0.40675 0.86818 0.0
N764 N 0.52243 0.42838 0.89727 0.0
N765 N 0.47149 0.43469 0.85673 0.0
C766 C 0.48615 0.46349 0.87693 0.0
C767 C 0.51362 0.46009 0.89912 0.0
C768 C 0.7913 0.72927 0.11687 0.0
C769 C 0.81896 0.74969 0.13681 0.0
C770 C 0.79766 0.71126 0.08708 0.0
C771 C 0.83197 0.71282 0.0761 0.0
H772 H 0.76452 0.72703 0.12446 0.0
H773 H 0.77546 0.69566 0.07276 0.0
S774 S 0.91366 0.76251 0.11971 0.0
N775 N 0.88197 0.77025 0.14381 0.0
N776 N 0.894 0.73686 0.08776 0.0
C777 C 0.85984 0.73359 0.09572 0.0
C778 C 0.85329 0.7519 0.12605 0.0
C779 C 1.00891 0.02548 0.16773 0.0
C780 C 0.04472 0.02102 0.16655 0.0
C781 C 0.991 0.02473 0.19562 0.0
C782 C 1.00812 0.01953 0.22361 0.0
H783 H 0.99466 0.02995 0.14692 0.0
H784 H 0.96349 0.02835 0.19516 0.0
S785 S 0.10217 1.00728 0.23326 0.0
N786 N 0.09687 0.01182 0.19597 0.0
N787 N 0.06333 1.00993 0.24824 0.0
C788 C 0.04391 0.01468 0.22266 0.0
C789 C 0.06212 0.01548 0.1942 0.0
C790 C 0.25495 0.79826 0.15747 0.0
C791 C 0.28616 0.81572 0.17435 0.0
C792 C 0.2446 0.80516 0.12778 0.0
C793 C 0.26526 0.82959 0.11376 0.0
H794 H 0.23773 0.78012 0.16784 0.0
H795 H 0.21982 0.79173 0.11608 0.0
S796 S 0.35142 0.8796 0.14739 0.0
N797 N 0.33895 0.8565 0.17423 0.0
N798 N 0.31995 0.86943 0.11853 0.0
C799 C 0.29744 0.84602 0.12993 0.0
C800 C 0.30775 0.83912 0.16019 0.0
C801 C 0.07983 0.51822 0.10985 0.0
C802 C 0.04377 0.51715 0.10109 0.0
C803 C 0.09119 0.5156 0.14066 0.0
C804 C 0.06701 0.51214 0.16418 0.0
H805 H 0.09964 0.52173 0.09289 0.0
H806 H 0.11927 0.51719 0.14625 0.0
S807 S 0.96942 0.50543 0.15302 0.0
N808 N 0.98375 0.51023 0.11804 0.0
N809 N 1.00507 0.50617 0.17618 0.0
C810 C 0.03081 0.51052 0.15568 0.0
C811 C 0.01921 0.51288 0.12415 0.0
C812 C 0.38577 0.73835 0.33616 0.0
C813 C 0.3807 0.71455 0.30765 0.0
C814 C 0.41548 0.74068 0.35694 0.0
C815 C 0.44165 0.71965 0.34983 0.0
H816 H 0.36666 0.75549 0.34236 0.0
H817 H 0.41834 0.75984 0.37836 0.0
S818 S 0.44017 0.65246 0.27831 0.0
N819 N 0.40354 0.66887 0.27359 0.0
N820 N 0.45983 0.67346 0.31241 0.0
C821 C 0.43658 0.69531 0.32155 0.0
C822 C 0.40598 0.69267 0.30055 0.0
C823 C 0.1041 0.38469 0.94604 0.0
C824 C 0.07279 0.39922 0.9487 0.0
C825 C 0.10315 0.34936 0.93895 0.0
C826 C 0.07082 0.32729 0.93371 0.0
H827 H 0.12952 0.40081 0.94929 0.0
H828 H 0.12797 0.33937 0.9367 0.0
S829 S 0.98137 0.35289 0.9386 0.0
N830 N 1.00864 0.38913 0.94628 0.0
N831 N 1.00667 0.32268 0.93263 0.0
C832 C 0.0393 0.34157 0.93678 0.0
C833 C 0.04033 0.37754 0.94439 0.0
C834 C 0.68985 0.72722 0.32298 0.0
C835 C 0.69335 0.72926 0.29086 0.0
C836 C 0.65742 0.72896 0.33674 0.0
C837 C 0.62703 0.73283 0.31896 0.0
H838 H 0.71239 0.72405 0.33763 0.0
H839 H 0.65627 0.72712 0.36157 0.0
S840 S 0.62218 0.73919 0.23361 0.0
N841 N 0.66377 0.7351 0.24143 0.0
N842 N 0.60277 0.73886 0.26731 0.0
C843 C 0.63028 0.73539 0.28684 0.0
C844 C 0.66343 0.73354 0.2728 0.0
C845 C 0.08885 0.16312 1.0067 0.0
C846 C 0.06725 0.13833 0.01932 0.0
C847 C 0.07911 0.17231 0.97801 0.0
C848 C 0.04735 0.15702 0.96051 0.0
H849 H 0.1132 0.17617 0.01955 0.0
H850 H 0.09646 0.19205 0.96978 0.0
S851 S 0.98208 0.08951 0.98252 0.0
N852 N 0.01315 0.09781 0.01173 0.0
N853 N 0.99497 0.11464 0.95737 0.0
C854 C 0.02614 0.13113 0.97217 0.0
C855 C 0.03607 0.12186 1.00162 0.0
C856 C 0.38101 0.25049 0.25815 0.0
C857 C 0.3833 0.2838 0.27539 0.0
C858 C 0.40315 0.24246 0.23346 0.0
C859 C 0.42868 0.26738 0.22498 0.0
H860 H 0.36197 0.23037 0.26389 0.0
H861 H 0.40034 0.21634 0.22112 0.0
S862 S 0.44587 0.35851 0.26334 0.0
N863 N 0.41348 0.34187 0.2827 0.0
N864 N 0.45485 0.32701 0.23612 0.0
C865 C 0.43102 0.30095 0.24189 0.0
C866 C 0.40842 0.30909 0.26707 0.0
C867 C 0.5263 0.3572 0.04171 0.0
C868 C 0.56232 0.37048 0.04706 0.0
C869 C 0.50878 0.33946 0.06337 0.0
C870 C 0.52668 0.33444 0.09116 0.0
H871 H 0.5121 0.35894 0.01987 0.0
H872 H 0.48141 0.32839 0.05754 0.0
S873 S 0.62029 0.36865 0.11768 0.0
N874 N 0.6145 0.38054 0.08319 0.0
N875 N 0.58188 0.34767 0.12408 0.0
C876 C 0.56222 0.34971 0.09762 0.0
C877 C 0.57995 0.36756 0.07551 0.0
C878 C 0.6545 0.26281 0.2503 0.0
C879 C 0.66955 0.23763 0.23059 0.0
C880 C 0.62112 0.27071 0.24217 0.0
C881 C 0.60147 0.2536 0.21409 0.0
H882 H 0.66921 0.27739 0.27153 0.0
H883 H 0.61113 0.29103 0.25762 0.0
S884 S 0.62777 0.18255 0.15652 0.0
N885 N 0.6613 0.19359 0.18339 0.0
N886 N 0.59871 0.20811 0.168 0.0
C887 C 0.61568 0.22717 0.19501 0.0
C888 C 0.64965 0.2193 0.20328 0.0
C889 C 0.44672 0.13535 0.0578 0.0
C890 C 0.46908 0.11939 0.0366 0.0
C891 C 0.45951 0.16491 0.07988 0.0
C892 C 0.49526 0.17966 0.08174 0.0
H893 H 0.41894 0.12519 0.05702 0.0
H894 H 0.44112 0.17628 0.09554 0.0
S895 S 0.56505 0.1465 0.03232 0.0
N896 N 0.5288 0.11963 0.01944 0.0
N897 N 0.55306 0.17517 0.0607 0.0
C898 C 0.51798 0.16364 0.0608 0.0
C899 C 0.50487 0.13357 0.03828 0.0
C900 C 0.33867 0.37943 0.7301 0.0
C901 C 0.34563 0.34973 0.74049 0.0
C902 C 0.35842 0.41118 0.74293 0.0
C903 C 0.38634 0.41412 0.76602 0.0
H904 H 0.31805 0.37802 0.71171 0.0
H905 H 0.35257 0.43334 0.73391 0.0
S906 S 0.41444 0.34397 0.80162 0.0
N907 N 0.38149 0.3253 0.77577 0.0
N908 N 0.41906 0.38473 0.79946 0.0
C909 C 0.39314 0.38463 0.7769 0.0
C910 C 0.37265 0.35249 0.76425 0.0
C911 C 0.31851 0.62587 0.85148 0.0
C912 C 0.3249 0.65198 0.83376 0.0
C913 C 0.33765 0.59826 0.84731 0.0
C914 C 0.36403 0.59559 0.82526 0.0
H915 H 0.29786 0.62628 0.86807 0.0
H916 H 0.33121 0.57855 0.86117 0.0
S917 S 0.39347 0.65933 0.77541 0.0
N918 N 0.36141 0.6749 0.79519 0.0
N919 N 0.397 0.62304 0.78703 0.0
C920 C 0.37141 0.62217 0.80812 0.0
C921 C 0.35199 0.6503 0.81245 0.0
C922 C 0.90329 0.48615 0.53572 0.0
C923 C 0.8952 0.50439 0.512 0.0
C924 C 0.87906 0.45939 0.54254 0.0
C925 C 0.84561 0.44996 0.52608 0.0
H926 H 0.92861 0.49264 0.54915 0.0
H927 H 0.8866 0.44622 0.56106 0.0
S928 S 0.81119 0.49071 0.46237 0.0
N929 N 0.8512 0.51183 0.47254 0.0
N930 N 0.80574 0.46156 0.48499 0.0
C931 C 0.83726 0.46808 0.50221 0.0
C932 C 0.86201 0.49523 0.49527 0.0
C933 C 0.76246 0.92116 0.77287 0.0
C934 C 0.7471 0.90541 0.79672 0.0
C935 C 0.74268 0.9387 0.75477 0.0
C936 C 0.70684 0.94117 0.75996 0.0
H937 H 0.79044 0.9217 0.76953 0.0
H938 H 0.75616 0.95187 0.73776 0.0
S939 S 0.65356 0.89991 0.81703 0.0
N940 N 0.69359 0.8903 0.82264 0.0
N941 N 0.65611 0.92271 0.78861 0.0
C942 C 0.69068 0.92326 0.78227 0.0
C943 C 0.71092 0.90559 0.8007 0.0
C944 C 0.65166 0.56968 0.97538 0.0
C945 C 0.65439 0.53507 0.96582 0.0
C946 C 0.68167 0.59459 0.97935 0.0
C947 C 0.71562 0.58592 0.97373 0.0
H948 H 0.62621 0.57749 0.98054 0.0
H949 H 0.67817 0.62082 0.98732 0.0
S950 S 0.73631 0.4988 0.94549 0.0
N951 N 0.69317 0.49345 0.94879 0.0
N952 N 0.74962 0.54002 0.95634 0.0
C953 C 0.71848 0.55137 0.96325 0.0
C954 C 0.6879 0.52604 0.9593 0.0
C955 C 0.2538 0.63901 0.27436 0.0
C956 C 0.26722 0.65452 0.24954 0.0
C957 C 0.22722 0.61071 0.26843 0.0
C958 C 0.21318 0.59654 0.23737 0.0
H959 H 0.26361 0.64914 0.29867 0.0
H960 H 0.21778 0.59979 0.28841 0.0
S961 S 0.24002 0.62749 0.16397 0.0
N962 N 0.26502 0.65355 0.19277 0.0
N963 N 0.21511 0.60034 0.18138 0.0
C964 C 0.22658 0.61176 0.21228 0.0
C965 C 0.25351 0.64077 0.21842 0.0
C966 C 0.93993 0.56322 0.03305 0.0
C967 C 0.97481 0.56883 0.02395 0.0
C968 C 0.91426 0.58178 0.02359 0.0
C969 C 0.92255 0.60692 1.00492 0.0
H970 H 0.93218 0.54361 0.04674 0.0
H971 H 0.88761 0.57612 0.0308 0.0
S972 S 1.01115 0.6328 0.97696 0.0
N973 N 0.01696 0.60225 0.99673 0.0
N974 N 0.96904 0.63731 0.97907 0.0
C975 C 0.95776 0.61344 0.99658 0.0
C976 C 0.98376 0.59435 1.00604 0.0
C977 C 0.12668 0.9543 0.07697 0.0
C978 C 0.13518 0.9895 0.0884 0.0
C979 C 0.15308 0.93426 0.0672 0.0
C980 C 0.18899 0.9486 0.06921 0.0
H981 H 0.09944 0.94224 0.07546 0.0
H982 H 0.14538 0.90726 0.05867 0.0
S983 S 0.22489 0.03966 0.09779 0.0
N984 N 0.1819 0.03777 0.1012 0.0
N985 N 0.2313 1.00049 0.08326 0.0
C986 C 0.19765 0.98383 0.08062 0.0
C987 C 0.17084 1.00415 0.09011 0.0
loop_
_geom_bond_atom_site_label_1
_geom_bond_atom_site_label_2
_geom_bond_distance
_geom_bond_site_symmetry_2
_ccdc_geom_bond_type
H0 C1 0.949 . S
C1 H0 0.949 . S
C1 C2 1.395 . S
C1 C3 1.391 . S
C2 C1 1.395 . S
C2 C5 1.390 1_545 S
C3 C1 1.391 . S
C3 C7 1.387 . S
C3 C8 1.491 . S
H4 C5 0.950 . S
C5 C2 1.390 1_565 S
C5 H4 0.950 . S
C5 C6 1.378 1_565 S
C6 C5 1.378 1_545 S
C6 C7 1.409 . S
C7 C3 1.387 . S
C7 C6 1.409 . S
C7 H9 0.951 . S
C8 C3 1.491 . S
C8 C10 1.382 . S
C8 C12 1.404 . S
H9 C7 0.951 . S
C10 C8 1.382 . S
C10 C11 1.390 1_554 S
C10 H15 0.949 1_554 S
C11 C10 1.390 1_556 S
C11 C16 1.399 1_556 S
C12 C8 1.404 . S
C12 H13 0.950 . S
C12 C14 1.375 . S
H13 C12 0.950 . S
C14 C12 1.375 . S
C14 C16 1.382 . S
C14 H18 0.950 . S
H15 C10 0.949 1_556 S
C16 C11 1.399 1_554 S
C16 C14 1.382 . S
C16 H17 0.943 1_554 S
H17 C16 0.943 1_556 S
H18 C14 0.950 . S
H19 C20 0.949 . S
C20 H19 0.949 . S
C20 C21 1.395 . S
C20 C22 1.391 . S
C21 C20 1.395 . S
C21 C24 1.390 . S
C22 C20 1.391 . S
C22 C26 1.387 . S
C22 C27 1.491 . S
H23 C24 0.950 . S
C24 C21 1.390 . S
C24 H23 0.950 . S
C24 C25 1.378 . S
C25 C24 1.378 . S
C25 C26 1.409 . S
C26 C22 1.387 . S
C26 C25 1.409 . S
C26 H28 0.951 . S
C27 C22 1.491 . S
C27 C29 1.382 . S
C27 C31 1.404 . S
H28 C26 0.951 . S
C29 C27 1.382 . S
C29 C30 1.390 . S
C29 H34 0.949 . S
C30 C29 1.390 . S
C30 C35 1.399 . S
C31 C27 1.404 . S
C31 H32 0.950 . S
C31 C33 1.375 . S
H32 C31 0.950 . S
C33 C31 1.375 . S
C33 C35 1.382 . S
C33 H37 0.950 . S
H34 C29 0.949 . S
C35 C30 1.399 . S
C35 C33 1.382 . S
C35 H36 0.952 . S
H36 C35 0.952 . S
H37 C33 0.950 . S
H38 C39 0.949 . S
C39 H38 0.949 . S
C39 C40 1.395 . S
C39 C41 1.391 1_455 S
C40 C39 1.395 . S
C40 C43 1.390 1_455 S
C41 C39 1.391 1_655 S
C41 C45 1.387 . S
C41 C46 1.486 1_654 S
H42 C43 0.950 . S
C43 C40 1.390 1_655 S
C43 H42 0.950 . S
C43 C44 1.378 . S
C44 C43 1.378 . S
C44 C45 1.409 . S
C45 C41 1.387 . S
C45 C44 1.409 . S
C45 H47 0.951 1_554 S
C46 C41 1.486 1_456 S
C46 C48 1.387 . S
C46 C50 1.405 . S
H47 C45 0.951 1_556 S
C48 C46 1.387 . S
C48 C49 1.390 . S
C48 H53 0.949 1_556 S
C49 C48 1.390 . S
C49 C54 1.399 . S
C50 C46 1.405 . S
C50 H51 0.955 . S
C50 C52 1.375 . S
H51 C50 0.955 . S
C52 C50 1.375 . S
C52 C54 1.382 . S
C52 H56 0.950 . S
H53 C48 0.949 1_554 S
C54 C49 1.399 . S
C54 C52 1.382 . S
C54 H55 0.952 . S
H55 C54 0.952 . S
H56 C52 0.950 . S
H57 C58 0.949 . S
C58 H57 0.949 . S
C58 C59 1.395 . S
C58 C60 1.391 . S
C59 C58 1.395 . S
C59 C62 1.390 . S
C60 C58 1.391 . S
C60 C64 1.387 . S
C60 C65 1.491 . S
H61 C62 0.950 . S
C62 C59 1.390 . S
C62 H61 0.950 . S
C62 C63 1.378 . S
C63 C62 1.378 . S
C63 C64 1.409 . S
C64 C60 1.387 . S
C64 C63 1.409 . S
C64 H66 0.951 . S
C65 C60 1.491 . S
C65 C67 1.382 . S
C65 C69 1.404 . S
H66 C64 0.951 . S
C67 C65 1.382 . S
C67 C68 1.390 . S
C67 H72 0.949 . S
C68 C67 1.390 . S
C68 C73 1.399 . S
C69 C65 1.404 . S
C69 H70 0.950 . S
C69 C71 1.375 . S
H70 C69 0.950 . S
C71 C69 1.375 . S
C71 C73 1.382 . S
C71 H75 0.950 . S
H72 C67 0.949 . S
C73 C68 1.399 . S
C73 C71 1.382 . S
C73 H74 0.952 . S
H74 C73 0.952 . S
H75 C71 0.950 . S
H76 C77 0.949 . S
C77 H76 0.949 . S
C77 C78 1.395 1_565 S
C77 C79 1.391 . S
C78 C77 1.395 1_545 S
C78 C81 1.390 . S
C79 C77 1.391 . S
C79 C83 1.387 . S
C79 C84 1.491 . S
H80 C81 0.950 . S
C81 C78 1.390 . S
C81 H80 0.950 . S
C81 C82 1.378 1_545 S
C82 C81 1.378 1_565 S
C82 C83 1.409 . S
C83 C79 1.387 . S
C83 C82 1.409 . S
C83 H85 0.951 . S
C84 C79 1.491 . S
C84 C86 1.382 . S
C84 C88 1.404 . S
H85 C83 0.951 . S
C86 C84 1.382 . S
C86 C87 1.390 . S
C86 H91 0.949 . S
C87 C86 1.390 . S
C87 C92 1.399 . S
C88 C84 1.404 . S
C88 H89 0.950 . S
C88 C90 1.375 . S
H89 C88 0.950 . S
C90 C88 1.375 . S
C90 C92 1.382 . S
C90 H94 0.950 . S
H91 C86 0.949 . S
C92 C87 1.399 . S
C92 C90 1.382 . S
C92 H93 0.952 . S
H93 C92 0.952 . S
H94 C90 0.950 . S
H95 C96 0.949 . S
C96 H95 0.949 . S
C96 C97 1.395 . S
C96 C98 1.391 . S
C97 C96 1.395 . S
C97 C100 1.390 . S
C98 C96 1.391 . S
C98 C102 1.387 . S
C98 C103 1.491 . S
H99 C100 0.950 . S
C100 C97 1.390 . S
C100 H99 0.950 . S
C100 C101 1.378 . S
C101 C100 1.378 . S
C101 C102 1.409 . S
C102 C98 1.387 . S
C102 C101 1.409 . S
C102 H104 0.951 . S
C103 C98 1.491 . S
C103 C105 1.382 . S
C103 C107 1.404 . S
H104 C102 0.951 . S
C105 C103 1.382 . S
C105 C106 1.390 . S
C105 H110 0.949 . S
C106 C105 1.390 . S
C106 C111 1.399 . S
C107 C103 1.404 . S
C107 H108 0.950 . S
C107 C109 1.375 . S
H108 C107 0.950 . S
C109 C107 1.375 . S
C109 C111 1.382 . S
C109 H113 0.950 . S
H110 C105 0.949 . S
C111 C106 1.399 . S
C111 C109 1.382 . S
C111 H112 0.952 . S
H112 C111 0.952 . S
H113 C109 0.950 . S
H114 C115 0.949 . S
C115 H114 0.949 . S
C115 C116 1.395 . S
C115 C117 1.391 . S
C116 C115 1.395 . S
C116 C119 1.390 . S
C117 C115 1.391 . S
C117 C121 1.387 . S
C117 C122 1.491 . S
H118 C119 0.950 . S
C119 C116 1.390 . S
C119 H118 0.950 . S
C119 C120 1.378 . S
C120 C119 1.378 . S
C120 C121 1.409 . S
C121 C117 1.387 . S
C121 C120 1.409 . S
C121 H123 0.951 . S
C122 C117 1.491 . S
C122 C124 1.382 1_655 S
C122 C126 1.404 . S
H123 C121 0.951 . S
C124 C122 1.382 1_455 S
C124 C125 1.390 . S
C124 H129 0.949 . S
C125 C124 1.390 . S
C125 C130 1.399 1_455 S
C126 C122 1.404 . S
C126 H127 0.950 . S
C126 C128 1.375 . S
H127 C126 0.950 . S
C128 C126 1.375 . S
C128 C130 1.382 . S
C128 H132 0.950 . S
H129 C124 0.949 . S
C130 C125 1.399 1_655 S
C130 C128 1.382 . S
C130 H131 0.952 . S
H131 C130 0.952 . S
H132 C128 0.950 . S
H133 C134 0.949 . S
C134 H133 0.949 . S
C134 C135 1.395 . S
C134 C136 1.391 . S
C135 C134 1.395 . S
C135 C138 1.390 . S
C136 C134 1.391 . S
C136 C140 1.387 . S
C136 C141 1.491 . S
H137 C138 0.950 . S
C138 C135 1.390 . S
C138 H137 0.950 . S
C138 C139 1.378 . S
C139 C138 1.378 . S
C139 C140 1.409 . S
C140 C136 1.387 . S
C140 C139 1.409 . S
C140 H142 0.951 . S
C141 C136 1.491 . S
C141 C143 1.382 . S
C141 C145 1.404 . S
H142 C140 0.951 . S
C143 C141 1.382 . S
C143 C144 1.390 . S
C143 H148 0.949 . S
C144 C143 1.390 . S
C144 C149 1.399 . S
C145 C141 1.404 . S
C145 H146 0.950 . S
C145 C147 1.375 . S
H146 C145 0.950 . S
C147 C145 1.375 . S
C147 C149 1.382 . S
C147 H151 0.950 . S
H148 C143 0.949 . S
C149 C144 1.399 . S
C149 C147 1.382 . S
C149 H150 0.952 . S
H150 C149 0.952 . S
H151 C147 0.950 . S
H152 C153 0.949 . S
C153 H152 0.949 . S
C153 C154 1.395 . S
C153 C155 1.391 . S
C154 C153 1.395 . S
C154 C157 1.390 . S
C155 C153 1.391 . S
C155 C159 1.387 . S
C155 C160 1.491 . S
H156 C157 0.950 . S
C157 C154 1.390 . S
C157 H156 0.950 . S
C157 C158 1.378 . S
C158 C157 1.378 . S
C158 C159 1.409 . S
C159 C155 1.387 . S
C159 C158 1.409 . S
C159 H161 0.951 . S
C160 C155 1.491 . S
C160 C162 1.382 . S
C160 C164 1.404 . S
H161 C159 0.951 . S
C162 C160 1.382 . S
C162 C163 1.390 . S
C162 H167 0.949 . S
C163 C162 1.390 . S
C163 C168 1.399 . S
C164 C160 1.404 . S
C164 H165 0.950 . S
C164 C166 1.375 . S
H165 C164 0.950 . S
C166 C164 1.375 . S
C166 C168 1.382 . S
C166 H170 0.950 . S
H167 C162 0.949 . S
C168 C163 1.399 . S
C168 C166 1.382 . S
C168 H169 0.952 . S
H169 C168 0.952 . S
H170 C166 0.950 . S
H171 C172 0.949 . S
C172 H171 0.949 . S
C172 C173 1.395 . S
C172 C174 1.391 . S
C173 C172 1.395 . S
C173 C176 1.390 1_565 S
C174 C172 1.391 . S
C174 C178 1.387 . S
C174 C179 1.491 . S
H175 C176 0.950 . S
C176 C173 1.390 1_545 S
C176 H175 0.950 . S
C176 C177 1.378 . S
C177 C176 1.378 . S
C177 C178 1.409 1_545 S
C178 C174 1.387 . S
C178 C177 1.409 1_565 S
C178 H180 0.951 . S
C179 C174 1.491 . S
C179 C181 1.382 . S
C179 C183 1.404 . S
H180 C178 0.951 . S
C181 C179 1.382 . S
C181 C182 1.390 . S
C181 H186 0.949 . S
C182 C181 1.390 . S
C182 C187 1.399 . S
C183 C179 1.404 . S
C183 H184 0.950 . S
C183 C185 1.375 . S
H184 C183 0.950 . S
C185 C183 1.375 . S
C185 C187 1.382 . S
C185 H189 0.950 . S
H186 C181 0.949 . S
C187 C182 1.399 . S
C187 C185 1.382 . S
C187 H188 0.952 . S
H188 C187 0.952 . S
H189 C185 0.950 . S
H190 C191 0.949 . S
C191 H190 0.949 . S
C191 C192 1.395 . S
C191 C193 1.391 . S
C192 C191 1.395 . S
C192 C195 1.390 . S
C193 C191 1.391 . S
C193 C197 1.387 . S
C193 C198 1.491 . S
H194 C195 0.950 . S
C195 C192 1.390 . S
C195 H194 0.950 . S
C195 C196 1.378 . S
C196 C195 1.378 . S
C196 C197 1.409 . S
C197 C193 1.387 . S
C197 C196 1.409 . S
C197 H199 0.951 . S
C198 C193 1.491 . S
C198 C200 1.382 . S
C198 C202 1.404 . S
H199 C197 0.951 . S
C200 C198 1.382 . S
C200 C201 1.390 . S
C200 H205 0.949 . S
C201 C200 1.390 . S
C201 C206 1.399 . S
C202 C198 1.404 . S
C202 H203 0.950 . S
C202 C204 1.375 . S
H203 C202 0.950 . S
C204 C202 1.375 . S
C204 C206 1.382 . S
C204 H208 0.950 . S
H205 C200 0.949 . S
C206 C201 1.399 . S
C206 C204 1.382 . S
C206 H207 0.952 . S
H207 C206 0.952 . S
H208 C204 0.950 . S
H209 C210 0.949 . S
C210 H209 0.949 . S
C210 C211 1.395 . S
C210 C212 1.391 . S
C211 C210 1.395 . S
C211 C214 1.390 . S
C212 C210 1.391 . S
C212 C216 1.387 . S
C212 C217 1.491 . S
H213 C214 0.950 . S
C214 C211 1.390 . S
C214 H213 0.950 . S
C214 C215 1.378 . S
C215 C214 1.378 . S
C215 C216 1.409 . S
C216 C212 1.387 . S
C216 C215 1.409 . S
C216 H218 0.951 . S
C217 C212 1.491 . S
C217 C219 1.382 . S
C217 C221 1.404 . S
H218 C216 0.951 . S
C219 C217 1.382 . S
C219 C220 1.390 . S
C219 H224 0.949 . S
C220 C219 1.390 . S
C220 C225 1.399 . S
C221 C217 1.404 . S
C221 H222 0.950 . S
C221 C223 1.375 . S
H222 C221 0.950 . S
C223 C221 1.375 . S
C223 C225 1.382 . S
C223 H227 0.950 . S
H224 C219 0.949 . S
C225 C220 1.399 . S
C225 C223 1.382 . S
C225 H226 0.952 . S
H226 C225 0.952 . S
H227 C223 0.950 . S
H228 C229 0.949 . S
C229 H228 0.949 . S
C229 C230 1.395 . S
C229 C231 1.391 . S
C230 C229 1.395 . S
C230 C233 1.390 . S
C231 C229 1.391 . S
C231 C235 1.387 . S
C231 C236 1.491 . S
H232 C233 0.950 . S
C233 C230 1.390 . S
C233 H232 0.950 . S
C233 C234 1.378 . S
C234 C233 1.378 . S
C234 C235 1.409 . S
C235 C231 1.387 . S
C235 C234 1.409 . S
C235 H237 0.951 . S
C236 C231 1.491 . S
C236 C238 1.382 . S
C236 C240 1.404 . S
H237 C235 0.951 . S
C238 C236 1.382 . S
C238 C239 1.390 . S
C238 H243 0.949 . S
C239 C238 1.390 . S
C239 C244 1.399 . S
C240 C236 1.404 . S
C240 H241 0.950 . S
C240 C242 1.375 . S
H241 C240 0.950 . S
C242 C240 1.375 . S
C242 C244 1.382 . S
C242 H246 0.950 . S
H243 C238 0.949 . S
C244 C239 1.399 . S
C244 C242 1.382 . S
C244 H245 0.952 . S
H245 C244 0.952 . S
H246 C242 0.950 . S
H247 C248 0.949 1_554 S
C248 H247 0.949 1_556 S
C248 C249 1.395 . S
C248 C250 1.391 . S
C249 C248 1.395 . S
C249 C252 1.390 . S
C250 C248 1.391 . S
C250 C254 1.387 . S
C250 C255 1.491 . S
H251 C252 0.950 . S
C252 C249 1.390 . S
C252 H251 0.950 . S
C252 C253 1.378 . S
C253 C252 1.378 . S
C253 C254 1.409 . S
C254 C250 1.387 . S
C254 C253 1.409 . S
C254 H256 0.951 . S
C255 C250 1.491 . S
C255 C257 1.382 1_556 S
C255 C259 1.404 . S
H256 C254 0.951 . S
C257 C255 1.382 1_554 S
C257 C258 1.390 . S
C257 H262 0.949 . S
C258 C257 1.390 . S
C258 C263 1.399 . S
C259 C255 1.404 . S
C259 H260 0.950 . S
C259 C261 1.375 . S
H260 C259 0.950 . S
C261 C259 1.375 . S
C261 C263 1.382 1_556 S
C261 H265 0.950 . S
H262 C257 0.949 . S
C263 C258 1.399 . S
C263 C261 1.382 1_554 S
C263 H264 0.952 . S
H264 C263 0.952 . S
H265 C261 0.950 . S
H266 C267 0.949 . S
C267 H266 0.949 . S
C267 C268 1.395 . S
C267 C269 1.391 . S
C268 C267 1.395 . S
C268 C271 1.390 . S
C269 C267 1.391 . S
C269 C273 1.387 . S
C269 C274 1.491 . S
H270 C271 0.950 . S
C271 C268 1.390 . S
C271 H270 0.950 . S
C271 C272 1.378 . S
C272 C271 1.378 . S
C272 C273 1.409 . S
C273 C269 1.387 . S
C273 C272 1.409 . S
C273 H275 0.951 . S
C274 C269 1.491 . S
C274 C276 1.382 . S
C274 C278 1.404 . S
H275 C273 0.951 . S
C276 C274 1.382 . S
C276 C277 1.390 . S
C276 H281 0.949 . S
C277 C276 1.390 . S
C277 C282 1.399 . S
C278 C274 1.404 . S
C278 H279 0.950 . S
C278 C280 1.375 . S
H279 C278 0.950 . S
C280 C278 1.375 . S
C280 C282 1.382 . S
C280 H284 0.950 . S
H281 C276 0.949 . S
C282 C277 1.399 . S
C282 C280 1.382 . S
C282 H283 0.952 . S
H283 C282 0.952 . S
H284 C280 0.950 . S
H285 C286 0.949 . S
C286 H285 0.949 . S
C286 C287 1.377 1_556 S
C286 C288 1.391 . S
C287 C286 1.377 1_554 S
C287 C290 1.399 . S
C288 C286 1.391 . S
C288 C292 1.387 . S
C288 C293 1.491 . S
H289 C290 0.950 . S
C290 C287 1.399 . S
C290 H289 0.950 . S
C290 C291 1.378 1_554 S
C291 C290 1.378 1_556 S
C291 C292 1.409 . S
C292 C288 1.387 . S
C292 C291 1.409 . S
C292 H294 0.951 1_545 S
C293 C288 1.491 . S
C293 C295 1.382 . S
C293 C297 1.404 . S
H294 C292 0.951 1_565 S
C295 C293 1.382 . S
C295 C296 1.390 . S
C295 H300 0.949 . S
C296 C295 1.390 . S
C296 C301 1.399 . S
C297 C293 1.404 . S
C297 H298 0.950 . S
C297 C299 1.375 . S
H298 C297 0.950 . S
C299 C297 1.375 . S
C299 C301 1.382 . S
C299 H303 0.950 . S
H300 C295 0.949 . S
C301 C296 1.399 . S
C301 C299 1.382 . S
C301 H302 0.952 . S
H302 C301 0.952 . S
H303 C299 0.950 . S
C304 O305 1.160 . S
C304 O311 1.185 . S
O305 C304 1.160 . S
O306 Zn307 1.899 . S
O306 C314 1.284 1_554 S
Zn307 O306 1.899 . S
Zn307 O308 2.032 . S
Zn307 O311 2.086 . S
Zn307 O316 1.977 . S
O308 Zn307 2.032 . S
O308 C312 1.278 . S
C309 O310 1.203 . S
C309 O316 1.267 . S
O310 C309 1.203 . S
O311 C304 1.185 . S
O311 Zn307 2.086 . S
C312 O308 1.278 . S
C312 O313 1.211 . S
O313 C312 1.211 . S
C314 O306 1.284 1_556 S
C314 O315 1.273 . S
O315 C314 1.273 . S
O316 Zn307 1.977 . S
O316 C309 1.267 . S
C317 O318 1.160 . S
C317 O324 1.185 . S
O318 C317 1.160 . S
O319 Zn320 1.899 . S
O319 C327 1.284 . S
Zn320 O319 1.899 . S
Zn320 O321 2.032 . S
Zn320 O324 2.086 . S
Zn320 O329 1.977 . S
O321 Zn320 2.032 . S
O321 C325 1.278 . S
C322 O323 1.203 . S
C322 O329 1.267 . S
O323 C322 1.203 . S
O324 C317 1.185 . S
O324 Zn320 2.086 . S
C325 O321 1.278 . S
C325 O326 1.211 . S
O326 C325 1.211 . S
C327 O319 1.284 . S
C327 O328 1.273 . S
O328 C327 1.273 . S
O329 Zn320 1.977 . S
O329 C322 1.267 . S
C330 O331 1.160 . S
C330 O337 1.185 1_556 S
O331 C330 1.160 . S
O332 Zn333 1.899 1_556 S
O332 C340 1.284 . S
Zn333 O332 1.899 1_554 S
Zn333 O334 2.032 1_554 S
Zn333 O337 2.086 . S
Zn333 O342 1.977 . S
O334 Zn333 2.032 1_556 S
O334 C338 1.278 . S
C335 O336 1.203 . S
C335 O342 1.267 . S
O336 C335 1.203 . S
O337 C330 1.185 1_554 S
O337 Zn333 2.086 . S
C338 O334 1.278 . S
C338 O339 1.211 1_556 S
O339 C338 1.211 1_554 S
C340 O332 1.284 . S
C340 O341 1.273 . S
O341 C340 1.273 . S
O342 Zn333 1.977 . S
O342 C335 1.267 . S
C343 O344 1.160 . S
C343 O350 1.185 . S
O344 C343 1.160 . S
O345 Zn346 1.899 . S
O345 C353 1.284 . S
Zn346 O345 1.899 . S
Zn346 O347 2.032 1_545 S
Zn346 O350 2.086 . S
Zn346 O355 1.977 . S
O347 Zn346 2.032 1_565 S
O347 C351 1.278 . S
C348 O349 1.203 1_655 S
C348 O355 1.267 . S
O349 C348 1.203 1_455 S
O350 C343 1.185 . S
O350 Zn346 2.086 . S
C351 O347 1.278 . S
C351 O352 1.211 . S
O352 C351 1.211 . S
C353 O345 1.284 . S
C353 O354 1.273 1_545 S
O354 C353 1.273 1_565 S
O355 Zn346 1.977 . S
O355 C348 1.267 . S
C356 O357 1.160 . S
C356 O363 1.185 . S
O357 C356 1.160 . S
O358 Zn359 1.899 . S
O358 C366 1.284 . S
Zn359 O358 1.899 . S
Zn359 O360 2.032 . S
Zn359 O363 2.086 . S
Zn359 O368 1.977 . S
O360 Zn359 2.032 . S
O360 C364 1.278 . S
C361 O362 1.203 . S
C361 O368 1.267 . S
O362 C361 1.203 . S
O363 C356 1.185 . S
O363 Zn359 2.086 . S
C364 O360 1.278 . S
C364 O365 1.211 . S
O365 C364 1.211 . S
C366 O358 1.284 . S
C366 O367 1.273 . S
O367 C366 1.273 . S
O368 Zn359 1.977 . S
O368 C361 1.267 . S
C369 O370 1.160 . S
C369 O376 1.185 . S
O370 C369 1.160 . S
O371 Zn372 1.899 . S
O371 C379 1.284 . S
Zn372 O371 1.899 . S
Zn372 O373 2.032 . S
Zn372 O376 2.086 . S
Zn372 O381 1.977 . S
O373 Zn372 2.032 . S
O373 C377 1.278 . S
C374 O375 1.203 . S
C374 O381 1.267 . S
O375 C374 1.203 . S
O376 C369 1.185 . S
O376 Zn372 2.086 . S
C377 O373 1.278 . S
C377 O378 1.211 . S
O378 C377 1.211 . S
C379 O371 1.284 . S
C379 O380 1.273 . S
O380 C379 1.273 . S
O381 Zn372 1.977 . S
O381 C374 1.267 . S
C382 O383 1.160 . S
C382 O389 1.185 . S
O383 C382 1.160 . S
O384 Zn385 1.899 . S
O384 C392 1.284 . S
Zn385 O384 1.899 . S
Zn385 O386 2.032 . S
Zn385 O389 2.086 . S
Zn385 O394 1.977 . S
O386 Zn385 2.032 . S
O386 C390 1.278 . S
C387 O388 1.203 . S
C387 O394 1.267 . S
O388 C387 1.203 . S
O389 C382 1.185 . S
O389 Zn385 2.086 . S
C390 O386 1.278 . S
C390 O391 1.211 . S
O391 C390 1.211 . S
C392 O384 1.284 . S
C392 O393 1.273 . S
O393 C392 1.273 . S
O394 Zn385 1.977 . S
O394 C387 1.267 . S
C395 O396 1.160 . S
C395 O402 1.185 . S
O396 C395 1.160 . S
O397 Zn398 1.899 . S
O397 C405 1.284 . S
Zn398 O397 1.899 . S
Zn398 O399 2.032 . S
Zn398 O402 2.086 1_545 S
Zn398 O407 1.977 1_545 S
O399 Zn398 2.032 . S
O399 C403 1.278 . S
C400 O401 1.203 . S
C400 O407 1.267 1_545 S
O401 C400 1.203 . S
O402 C395 1.185 . S
O402 Zn398 2.086 1_565 S
C403 O399 1.278 . S
C403 O404 1.211 . S
O404 C403 1.211 . S
C405 O397 1.284 . S
C405 O406 1.273 . S
O406 C405 1.273 . S
O407 Zn398 1.977 1_565 S
O407 C400 1.267 1_565 S
C408 O409 1.160 1_455 S
C408 O415 1.185 . S
O409 C408 1.160 1_655 S
O410 Zn411 1.899 1_655 S
O410 C418 1.284 . S
Zn411 O410 1.899 1_455 S
Zn411 O412 2.032 . S
Zn411 O415 2.086 . S
Zn411 O420 1.977 . S
O412 Zn411 2.032 . S
O412 C416 1.278 . S
C413 O414 1.203 . S
C413 O420 1.267 . S
O414 C413 1.203 . S
O415 C408 1.185 . S
O415 Zn411 2.086 . S
C416 O412 1.278 . S
C416 O417 1.211 . S
O417 C416 1.211 . S
C418 O410 1.284 . S
C418 O419 1.273 . S
O419 C418 1.273 . S
O420 Zn411 1.977 . S
O420 C413 1.267 . S
C421 O422 1.160 . S
C421 O428 1.185 . S
O422 C421 1.160 . S
O423 Zn424 1.899 . S
O423 C431 1.284 . S
Zn424 O423 1.899 . S
Zn424 O425 2.032 . S
Zn424 O428 2.086 . S
Zn424 O433 1.977 . S
O425 Zn424 2.032 . S
O425 C429 1.278 . S
C426 O427 1.203 . S
C426 O433 1.267 . S
O427 C426 1.203 . S
O428 C421 1.185 . S
O428 Zn424 2.086 . S
C429 O425 1.278 . S
C429 O430 1.211 . S
O430 C429 1.211 . S
C431 O423 1.284 . S
C431 O432 1.273 . S
O432 C431 1.273 . S
O433 Zn424 1.977 . S
O433 C426 1.267 . S
C434 O435 1.160 1_455 S
C434 O441 1.185 . S
O435 C434 1.160 1_655 S
O436 Zn437 1.899 1_655 S
O436 C444 1.284 . S
Zn437 O436 1.899 1_455 S
Zn437 O438 2.032 1_455 S
Zn437 O441 2.086 . S
Zn437 O446 1.977 . S
O438 Zn437 2.032 1_655 S
O438 C442 1.278 . S
C439 O440 1.203 . S
C439 O446 1.267 . S
O440 C439 1.203 . S
O441 C434 1.185 . S
O441 Zn437 2.086 . S
C442 O438 1.278 . S
C442 O443 1.207 1_655 S
O443 C442 1.207 1_455 S
C444 O436 1.284 . S
C444 O445 1.273 . S
O445 C444 1.273 . S
O446 Zn437 1.977 . S
O446 C439 1.267 . S
C447 O448 1.160 . S
C447 O454 1.185 . S
O448 C447 1.160 . S
O449 Zn450 1.899 . S
O449 C457 1.284 . S
Zn450 O449 1.899 . S
Zn450 O451 2.032 . S
Zn450 O454 2.086 . S
Zn450 O459 1.977 . S
O451 Zn450 2.032 . S
O451 C455 1.278 . S
C452 O453 1.203 . S
C452 O459 1.267 . S
O453 C452 1.203 . S
O454 C447 1.185 . S
O454 Zn450 2.086 . S
C455 O451 1.278 . S
C455 O456 1.211 . S
O456 C455 1.211 . S
C457 O449 1.284 . S
C457 O458 1.273 . S
O458 C457 1.273 . S
O459 Zn450 1.977 . S
O459 C452 1.267 . S
C460 C461 1.369 . S
C460 C462 1.419 . S
C460 H464 0.930 . S
C461 C460 1.369 . S
C461 C470 1.429 . S
C462 C460 1.419 . S
C462 C463 1.363 . S
C462 H465 0.929 . S
C463 C462 1.363 . S
C463 C469 1.428 . S
H464 C460 0.930 . S
H465 C462 0.929 . S
S466 N467 1.613 . S
S466 N468 1.610 . S
N467 S466 1.613 . S
N467 C470 1.350 . S
N468 S466 1.610 . S
N468 C469 1.351 . S
C469 C463 1.428 . S
C469 N468 1.351 . S
C469 C470 1.434 . S
C470 C461 1.429 . S
C470 N467 1.350 . S
C470 C469 1.434 . S
C471 C472 1.369 . S
C471 C473 1.419 . S
C471 H475 0.930 . S
C472 C471 1.369 . S
C472 C481 1.429 . S
C473 C471 1.419 . S
C473 C474 1.363 . S
C473 H476 0.929 . S
C474 C473 1.363 . S
C474 C480 1.428 . S
H475 C471 0.930 . S
H476 C473 0.929 . S
S477 N478 1.613 . S
S477 N479 1.610 1_655 S
N478 S477 1.613 . S
N478 C481 1.350 1_655 S
N479 S477 1.610 1_455 S
N479 C480 1.351 . S
C480 C474 1.428 . S
C480 N479 1.351 . S
C480 C481 1.434 . S
C481 C472 1.429 . S
C481 N478 1.350 1_455 S
C481 C480 1.434 . S
C482 C483 1.369 . S
C482 C484 1.419 . S
C482 H486 0.930 . S
C483 C482 1.369 . S
C483 C492 1.429 . S
C484 C482 1.419 . S
C484 C485 1.363 . S
C484 H487 0.929 . S
C485 C484 1.363 . S
C485 C491 1.428 . S
H486 C482 0.930 . S
H487 C484 0.929 . S
S488 N489 1.613 . S
S488 N490 1.610 . S
N489 S488 1.613 . S
N489 C492 1.350 . S
N490 S488 1.610 . S
N490 C491 1.351 . S
C491 C485 1.428 . S
C491 N490 1.351 . S
C491 C492 1.434 . S
C492 C483 1.429 . S
C492 N489 1.350 . S
C492 C491 1.434 . S
C493 C494 1.369 1_565 S
C493 C495 1.419 . S
C493 H497 0.930 . S
C494 C493 1.369 1_545 S
C494 C503 1.429 . S
C495 C493 1.419 . S
C495 C496 1.363 1_565 S
C495 H498 0.929 1_455 S
C496 C495 1.363 1_545 S
C496 C502 1.428 . S
H497 C493 0.930 . S
H498 C495 0.929 1_655 S
S499 N500 1.613 . S
S499 N501 1.610 . S
N500 S499 1.613 . S
N500 C503 1.350 . S
N501 S499 1.610 . S
N501 C502 1.351 . S
C502 C496 1.428 . S
C502 N501 1.351 . S
C502 C503 1.434 . S
C503 C494 1.429 . S
C503 N500 1.350 . S
C503 C502 1.434 . S
C504 C505 1.369 . S
C504 C506 1.419 . S
C504 H508 0.930 . S
C505 C504 1.369 . S
C505 C514 1.429 . S
C506 C504 1.419 . S
C506 C507 1.363 . S
C506 H509 0.929 . S
C507 C506 1.363 . S
C507 C513 1.428 . S
H508 C504 0.930 . S
H509 C506 0.929 . S
S510 N511 1.613 . S
S510 N512 1.610 . S
N511 S510 1.613 . S
N511 C514 1.350 . S
N512 S510 1.610 . S
N512 C513 1.351 . S
C513 C507 1.428 . S
C513 N512 1.351 . S
C513 C514 1.434 . S
C514 C505 1.429 . S
C514 N511 1.350 . S
C514 C513 1.434 . S
C515 C516 1.369 . S
C515 C517 1.419 . S
C515 H519 0.930 . S
C516 C515 1.369 . S
C516 C525 1.429 . S
C517 C515 1.419 . S
C517 C518 1.363 . S
C517 H520 0.929 . S
C518 C517 1.363 . S
C518 C524 1.428 . S
H519 C515 0.930 . S
H520 C517 0.929 . S
S521 N522 1.613 . S
S521 N523 1.610 . S
N522 S521 1.613 . S
N522 C525 1.350 . S
N523 S521 1.610 . S
N523 C524 1.351 . S
C524 C518 1.428 . S
C524 N523 1.351 . S
C524 C525 1.434 . S
C525 C516 1.429 . S
C525 N522 1.350 . S
C525 C524 1.434 . S
C526 C527 1.369 . S
C526 C528 1.419 . S
C526 H530 0.930 . S
C527 C526 1.369 . S
C527 C536 1.429 . S
C528 C526 1.419 . S
C528 C529 1.363 . S
C528 H531 0.929 . S
C529 C528 1.363 . S
C529 C535 1.428 . S
H530 C526 0.930 . S
H531 C528 0.929 . S
S532 N533 1.613 . S
S532 N534 1.610 . S
N533 S532 1.613 . S
N533 C536 1.350 . S
N534 S532 1.610 . S
N534 C535 1.351 . S
C535 C529 1.428 . S
C535 N534 1.351 . S
C535 C536 1.434 . S
C536 C527 1.429 . S
C536 N533 1.350 . S
C536 C535 1.434 . S
C537 C538 1.369 . S
C537 C539 1.419 . S
C537 H541 0.930 . S
C538 C537 1.369 . S
C538 C547 1.429 . S
C539 C537 1.419 . S
C539 C540 1.363 . S
C539 H542 0.929 . S
C540 C539 1.363 . S
C540 C546 1.428 . S
H541 C537 0.930 . S
H542 C539 0.929 . S
S543 N544 1.613 1_545 S
S543 N545 1.608 1_545 S
N544 S543 1.613 1_565 S
N544 C547 1.350 . S
N545 S543 1.608 1_565 S
N545 C546 1.352 . S
C546 C540 1.428 . S
C546 N545 1.352 . S
C546 C547 1.434 . S
C547 C538 1.429 . S
C547 N544 1.350 . S
C547 C546 1.434 . S
C548 C549 1.369 . S
C548 C550 1.419 . S
C548 H552 0.930 . S
C549 C548 1.369 . S
C549 C558 1.429 . S
C550 C548 1.419 . S
C550 C551 1.363 . S
C550 H553 0.929 . S
C551 C550 1.363 . S
C551 C557 1.428 . S
H552 C548 0.930 . S
H553 C550 0.929 . S
S554 N555 1.613 . S
S554 N556 1.610 . S
N555 S554 1.613 . S
N555 C558 1.350 . S
N556 S554 1.610 . S
N556 C557 1.351 . S
C557 C551 1.428 . S
C557 N556 1.351 . S
C557 C558 1.434 . S
C558 C549 1.429 . S
C558 N555 1.350 . S
C558 C557 1.434 . S
C559 C560 1.369 . S
C559 C561 1.419 . S
C559 H563 0.930 . S
C560 C559 1.369 . S
C560 C569 1.429 . S
C561 C559 1.419 . S
C561 C562 1.363 . S
C561 H564 0.929 . S
C562 C561 1.363 . S
C562 C568 1.428 . S
H563 C559 0.930 . S
H564 C561 0.929 . S
S565 N566 1.613 . S
S565 N567 1.610 . S
N566 S565 1.613 . S
N566 C569 1.350 . S
N567 S565 1.610 . S
N567 C568 1.351 . S
C568 C562 1.428 . S
C568 N567 1.351 . S
C568 C569 1.434 . S
C569 C560 1.429 . S
C569 N566 1.350 . S
C569 C568 1.434 . S
C570 C571 1.369 . S
C570 C572 1.419 . S
C570 H574 0.930 . S
C571 C570 1.369 . S
C571 C580 1.429 . S
C572 C570 1.419 . S
C572 C573 1.363 . S
C572 H575 0.929 . S
C573 C572 1.363 . S
C573 C579 1.428 . S
H574 C570 0.930 . S
H575 C572 0.929 . S
S576 N577 1.613 . S
S576 N578 1.610 . S
N577 S576 1.613 . S
N577 C580 1.350 . S
N578 S576 1.610 . S
N578 C579 1.351 . S
C579 C573 1.428 . S
C579 N578 1.351 . S
C579 C580 1.434 . S
C580 C571 1.429 . S
C580 N577 1.350 . S
C580 C579 1.434 . S
C581 C582 1.369 . S
C581 C583 1.419 . S
C581 H585 0.930 . S
C582 C581 1.369 . S
C582 C591 1.429 . S
C583 C581 1.419 . S
C583 C584 1.363 . S
C583 H586 0.929 . S
C584 C583 1.363 . S
C584 C590 1.428 . S
H585 C581 0.930 . S
H586 C583 0.929 . S
S587 N588 1.613 . S
S587 N589 1.610 . S
N588 S587 1.613 . S
N588 C591 1.350 . S
N589 S587 1.610 . S
N589 C590 1.351 . S
C590 C584 1.428 . S
C590 N589 1.351 . S
C590 C591 1.434 . S
C591 C582 1.429 . S
C591 N588 1.350 . S
C591 C590 1.434 . S
C592 C593 1.369 . S
C592 C594 1.419 . S
C592 H596 0.930 . S
C593 C592 1.369 . S
C593 C602 1.429 . S
C594 C592 1.419 . S
C594 C595 1.363 . S
C594 H597 0.929 . S
C595 C594 1.363 . S
C595 C601 1.428 . S
H596 C592 0.930 . S
H597 C594 0.929 . S
S598 N599 1.613 . S
S598 N600 1.610 . S
N599 S598 1.613 . S
N599 C602 1.350 . S
N600 S598 1.610 . S
N600 C601 1.351 . S
C601 C595 1.428 . S
C601 N600 1.351 . S
C601 C602 1.434 . S
C602 C593 1.429 . S
C602 N599 1.350 . S
C602 C601 1.434 . S
C603 C604 1.369 . S
C603 C605 1.419 . S
C603 H607 0.930 . S
C604 C603 1.369 . S
C604 C613 1.429 . S
C605 C603 1.419 . S
C605 C606 1.363 . S
C605 H608 0.929 . S
C606 C605 1.363 . S
C606 C612 1.428 . S
H607 C603 0.930 . S
H608 C605 0.929 . S
S609 N610 1.613 . S
S609 N611 1.610 . S
N610 S609 1.613 . S
N610 C613 1.350 . S
N611 S609 1.610 . S
N611 C612 1.351 . S
C612 C606 1.428 . S
C612 N611 1.351 . S
C612 C613 1.434 . S
C613 C604 1.429 . S
C613 N610 1.350 . S
C613 C612 1.434 . S
C614 C615 1.369 . S
C614 C616 1.419 . S
C614 H618 0.930 . S
C615 C614 1.369 . S
C615 C624 1.429 . S
C616 C614 1.419 . S
C616 C617 1.363 . S
C616 H619 0.929 . S
C617 C616 1.363 . S
C617 C623 1.428 . S
H618 C614 0.930 . S
H619 C616 0.929 . S
S620 N621 1.613 . S
S620 N622 1.610 . S
N621 S620 1.613 . S
N621 C624 1.350 . S
N622 S620 1.610 . S
N622 C623 1.351 . S
C623 C617 1.428 . S
C623 N622 1.351 . S
C623 C624 1.434 . S
C624 C615 1.429 . S
C624 N621 1.350 . S
C624 C623 1.434 . S
C625 C626 1.369 . S
C625 C627 1.419 . S
C625 H629 0.930 . S
C626 C625 1.369 . S
C626 C635 1.429 . S
C627 C625 1.419 . S
C627 C628 1.363 . S
C627 H630 0.929 . S
C628 C627 1.363 . S
C628 C634 1.428 . S
H629 C625 0.930 . S
H630 C627 0.929 . S
S631 N632 1.613 . S
S631 N633 1.610 . S
N632 S631 1.613 . S
N632 C635 1.350 . S
N633 S631 1.610 . S
N633 C634 1.351 . S
C634 C628 1.428 . S
C634 N633 1.351 . S
C634 C635 1.434 . S
C635 C626 1.429 . S
C635 N632 1.350 . S
C635 C634 1.434 . S
C636 C637 1.369 . S
C636 C638 1.419 . S
C636 H640 0.930 . S
C637 C636 1.369 . S
C637 C646 1.429 . S
C638 C636 1.419 . S
C638 C639 1.363 . S
C638 H641 0.929 . S
C639 C638 1.363 . S
C639 C645 1.428 . S
H640 C636 0.930 . S
H641 C638 0.929 . S
S642 N643 1.613 . S
S642 N644 1.610 . S
N643 S642 1.613 . S
N643 C646 1.350 . S
N644 S642 1.610 . S
N644 C645 1.351 . S
C645 C639 1.428 . S
C645 N644 1.351 . S
C645 C646 1.434 . S
C646 C637 1.429 . S
C646 N643 1.350 . S
C646 C645 1.434 . S
C647 C648 1.369 . S
C647 C649 1.419 . S
C647 H651 0.930 . S
C648 C647 1.369 . S
C648 C657 1.429 . S
C649 C647 1.419 . S
C649 C650 1.363 . S
C649 H652 0.929 . S
C650 C649 1.363 . S
C650 C656 1.428 . S
H651 C647 0.930 . S
H652 C649 0.929 . S
S653 N654 1.613 . S
S653 N655 1.610 . S
N654 S653 1.613 . S
N654 C657 1.350 . S
N655 S653 1.610 . S
N655 C656 1.351 . S
C656 C650 1.428 . S
C656 N655 1.351 . S
C656 C657 1.434 . S
C657 C648 1.429 . S
C657 N654 1.350 . S
C657 C656 1.434 . S
C658 C659 1.369 1_556 S
C658 C660 1.419 1_556 S
C658 H662 0.930 1_565 S
C659 C658 1.369 1_554 S
C659 C668 1.444 . S
C660 C658 1.419 1_554 S
C660 C661 1.363 . S
C660 H663 0.929 . S
C661 C660 1.363 . S
C661 C667 1.428 . S
H662 C658 0.930 1_545 S
H663 C660 0.929 . S
S664 N665 1.613 . S
S664 N666 1.610 . S
N665 S664 1.613 . S
N665 C668 1.350 . S
N666 S664 1.610 . S
N666 C667 1.351 . S
C667 C661 1.428 . S
C667 N666 1.351 . S
C667 C668 1.434 . S
C668 C659 1.444 . S
C668 N665 1.350 . S
C668 C667 1.434 . S
C669 C670 1.369 . S
C669 C671 1.419 . S
C669 H673 0.930 . S
C670 C669 1.369 . S
C670 C679 1.429 . S
C671 C669 1.419 . S
C671 C672 1.363 . S
C671 H674 0.929 . S
C672 C671 1.363 . S
C672 C678 1.428 . S
H673 C669 0.930 . S
H674 C671 0.929 . S
S675 N676 1.613 . S
S675 N677 1.610 . S
N676 S675 1.613 . S
N676 C679 1.350 . S
N677 S675 1.610 . S
N677 C678 1.351 . S
C678 C672 1.428 . S
C678 N677 1.351 . S
C678 C679 1.434 . S
C679 C670 1.429 . S
C679 N676 1.350 . S
C679 C678 1.434 . S
C680 C681 1.369 . S
C680 C682 1.419 . S
C680 H684 0.930 . S
C681 C680 1.369 . S
C681 C690 1.429 . S
C682 C680 1.419 . S
C682 C683 1.363 . S
C682 H685 0.929 . S
C683 C682 1.363 . S
C683 C689 1.428 . S
H684 C680 0.930 . S
H685 C682 0.929 . S
S686 N687 1.613 1_545 S
S686 N688 1.610 . S
N687 S686 1.613 1_565 S
N687 C690 1.350 1_565 S
N688 S686 1.610 . S
N688 C689 1.351 . S
C689 C683 1.428 . S
C689 N688 1.351 . S
C689 C690 1.434 . S
C690 C681 1.429 . S
C690 N687 1.350 1_545 S
C690 C689 1.434 . S
C691 C692 1.369 . S
C691 C693 1.419 . S
C691 H695 0.930 . S
C692 C691 1.369 . S
C692 C701 1.429 . S
C693 C691 1.419 . S
C693 C694 1.363 . S
C693 H696 0.929 . S
C694 C693 1.363 . S
C694 C700 1.428 . S
H695 C691 0.930 . S
H696 C693 0.929 . S
S697 N698 1.613 . S
S697 N699 1.610 . S
N698 S697 1.613 . S
N698 C701 1.350 . S
N699 S697 1.610 . S
N699 C700 1.351 . S
C700 C694 1.428 . S
C700 N699 1.351 . S
C700 C701 1.434 . S
C701 C692 1.429 . S
C701 N698 1.350 . S
C701 C700 1.434 . S
C702 C703 1.369 . S
C702 C704 1.419 . S
C702 H706 0.930 . S
C703 C702 1.369 . S
C703 C712 1.429 . S
C704 C702 1.419 . S
C704 C705 1.363 . S
C704 H707 0.929 . S
C705 C704 1.363 . S
C705 C711 1.428 . S
H706 C702 0.930 . S
H707 C704 0.929 . S
S708 N709 1.613 . S
S708 N710 1.610 . S
N709 S708 1.613 . S
N709 C712 1.350 . S
N710 S708 1.610 . S
N710 C711 1.351 . S
C711 C705 1.428 . S
C711 N710 1.351 . S
C711 C712 1.434 . S
C712 C703 1.429 . S
C712 N709 1.350 . S
C712 C711 1.434 . S
C713 C714 1.369 . S
C713 C715 1.419 . S
C713 H717 0.930 . S
C714 C713 1.369 . S
C714 C723 1.429 . S
C715 C713 1.419 . S
C715 C716 1.363 . S
C715 H718 0.929 . S
C716 C715 1.363 . S
C716 C722 1.428 . S
H717 C713 0.930 . S
H718 C715 0.929 . S
S719 N720 1.613 . S
S719 N721 1.610 . S
N720 S719 1.613 . S
N720 C723 1.350 . S
N721 S719 1.610 . S
N721 C722 1.351 . S
C722 C716 1.428 . S
C722 N721 1.351 . S
C722 C723 1.434 . S
C723 C714 1.429 . S
C723 N720 1.350 . S
C723 C722 1.434 . S
C724 C725 1.369 . S
C724 C726 1.419 . S
C724 H728 0.930 . S
C725 C724 1.369 . S
C725 C734 1.429 . S
C726 C724 1.419 . S
C726 C727 1.363 . S
C726 H729 0.929 . S
C727 C726 1.363 . S
C727 C733 1.428 . S
H728 C724 0.930 . S
H729 C726 0.929 . S
S730 N731 1.613 . S
S730 N732 1.610 . S
N731 S730 1.613 . S
N731 C734 1.350 . S
N732 S730 1.610 . S
N732 C733 1.351 . S
C733 C727 1.428 . S
C733 N732 1.351 . S
C733 C734 1.434 . S
C734 C725 1.429 . S
C734 N731 1.350 . S
C734 C733 1.434 . S
C735 C736 1.369 . S
C735 C737 1.419 . S
C735 H739 0.930 1_545 S
C736 C735 1.369 . S
C736 C745 1.429 . S
C737 C735 1.419 . S
C737 C738 1.363 . S
C737 H740 0.929 1_545 S
C738 C737 1.363 . S
C738 C744 1.428 . S
H739 C735 0.930 1_565 S
H740 C737 0.929 1_565 S
S741 N742 1.613 . S
S741 N743 1.610 . S
N742 S741 1.613 . S
N742 C745 1.350 . S
N743 S741 1.610 . S
N743 C744 1.351 . S
C744 C738 1.428 . S
C744 N743 1.351 . S
C744 C745 1.434 . S
C745 C736 1.429 . S
C745 N742 1.350 . S
C745 C744 1.434 . S
C746 C747 1.369 . S
C746 C748 1.419 . S
C746 H750 0.930 . S
C747 C746 1.369 . S
C747 C756 1.429 . S
C748 C746 1.419 . S
C748 C749 1.363 . S
C748 H751 0.929 . S
C749 C748 1.363 . S
C749 C755 1.428 . S
H750 C746 0.930 . S
H751 C748 0.929 . S
S752 N753 1.613 . S
S752 N754 1.610 . S
N753 S752 1.613 . S
N753 C756 1.350 . S
N754 S752 1.610 . S
N754 C755 1.351 . S
C755 C749 1.428 . S
C755 N754 1.351 . S
C755 C756 1.434 . S
C756 C747 1.429 . S
C756 N753 1.350 . S
C756 C755 1.434 . S
C757 C758 1.369 . S
C757 C759 1.419 . S
C757 H761 0.930 . S
C758 C757 1.369 . S
C758 C767 1.429 . S
C759 C757 1.419 . S
C759 C760 1.363 . S
C759 H762 0.929 . S
C760 C759 1.363 . S
C760 C766 1.428 . S
H761 C757 0.930 . S
H762 C759 0.929 . S
S763 N764 1.613 . S
S763 N765 1.610 . S
N764 S763 1.613 . S
N764 C767 1.350 . S
N765 S763 1.610 . S
N765 C766 1.351 . S
C766 C760 1.428 . S
C766 N765 1.351 . S
C766 C767 1.434 . S
C767 C758 1.429 . S
C767 N764 1.350 . S
C767 C766 1.434 . S
C768 C769 1.369 . S
C768 C770 1.419 . S
C768 H772 0.930 . S
C769 C768 1.369 . S
C769 C778 1.429 . S
C770 C768 1.419 . S
C770 C771 1.363 . S
C770 H773 0.929 . S
C771 C770 1.363 . S
C771 C777 1.428 . S
H772 C768 0.930 . S
H773 C770 0.929 . S
S774 N775 1.613 . S
S774 N776 1.610 . S
N775 S774 1.613 . S
N775 C778 1.350 . S
N776 S774 1.610 . S
N776 C777 1.351 . S
C777 C771 1.428 . S
C777 N776 1.351 . S
C777 C778 1.434 . S
C778 C769 1.429 . S
C778 N775 1.350 . S
C778 C777 1.434 . S
C779 C780 1.369 1_655 S
C779 C781 1.419 . S
C779 H783 0.930 1_545 S
C780 C779 1.369 1_455 S
C780 C789 1.429 . S
C781 C779 1.419 . S
C781 C782 1.363 1_655 S
C781 H784 0.929 . S
C782 C781 1.363 1_455 S
C782 C788 1.428 . S
H783 C779 0.930 1_565 S
H784 C781 0.929 . S
S785 N786 1.613 . S
S785 N787 1.610 . S
N786 S785 1.613 . S
N786 C789 1.350 . S
N787 S785 1.610 . S
N787 C788 1.351 . S
C788 C782 1.428 . S
C788 N787 1.351 . S
C788 C789 1.434 . S
C789 C780 1.429 . S
C789 N786 1.350 . S
C789 C788 1.434 . S
C790 C791 1.369 . S
C790 C792 1.419 . S
C790 H794 0.930 . S
C791 C790 1.369 . S
C791 C800 1.429 . S
C792 C790 1.419 . S
C792 C793 1.363 . S
C792 H795 0.929 . S
C793 C792 1.363 . S
C793 C799 1.428 . S
H794 C790 0.930 . S
H795 C792 0.929 . S
S796 N797 1.613 . S
S796 N798 1.610 . S
N797 S796 1.613 . S
N797 C800 1.350 . S
N798 S796 1.610 . S
N798 C799 1.351 . S
C799 C793 1.428 . S
C799 N798 1.351 . S
C799 C800 1.434 . S
C800 C791 1.429 . S
C800 N797 1.350 . S
C800 C799 1.434 . S
C801 C802 1.369 . S
C801 C803 1.419 . S
C801 H805 0.930 . S
C802 C801 1.369 . S
C802 C811 1.429 . S
C803 C801 1.419 . S
C803 C804 1.363 . S
C803 H806 0.929 . S
C804 C803 1.363 . S
C804 C810 1.428 . S
H805 C801 0.930 . S
H806 C803 0.929 . S
S807 N808 1.613 . S
S807 N809 1.610 . S
N808 S807 1.613 . S
N808 C811 1.350 . S
N809 S807 1.610 . S
N809 C810 1.351 . S
C810 C804 1.428 . S
C810 N809 1.351 . S
C810 C811 1.434 . S
C811 C802 1.429 . S
C811 N808 1.350 . S
C811 C810 1.434 . S
C812 C813 1.369 . S
C812 C814 1.419 . S
C812 H816 0.930 . S
C813 C812 1.369 . S
C813 C822 1.429 . S
C814 C812 1.419 . S
C814 C815 1.363 . S
C814 H817 0.929 . S
C815 C814 1.363 . S
C815 C821 1.428 . S
H816 C812 0.930 . S
H817 C814 0.929 . S
S818 N819 1.613 . S
S818 N820 1.610 . S
N819 S818 1.613 . S
N819 C822 1.350 . S
N820 S818 1.610 . S
N820 C821 1.351 . S
C821 C815 1.428 . S
C821 N820 1.351 . S
C821 C822 1.434 . S
C822 C813 1.429 . S
C822 N819 1.350 . S
C822 C821 1.434 . S
C823 C824 1.369 . S
C823 C825 1.419 . S
C823 H827 0.930 . S
C824 C823 1.369 . S
C824 C833 1.429 1_455 S
C825 C823 1.419 . S
C825 C826 1.363 . S
C825 H828 0.929 . S
C826 C825 1.363 . S
C826 C832 1.428 1_455 S
H827 C823 0.930 . S
H828 C825 0.929 . S
S829 N830 1.613 . S
S829 N831 1.610 . S
N830 S829 1.613 . S
N830 C833 1.350 . S
N831 S829 1.610 . S
N831 C832 1.351 . S
C832 C826 1.428 1_655 S
C832 N831 1.351 . S
C832 C833 1.434 . S
C833 C824 1.429 1_655 S
C833 N830 1.350 . S
C833 C832 1.434 . S
C834 C835 1.369 . S
C834 C836 1.419 . S
C834 H838 0.930 . S
C835 C834 1.369 . S
C835 C844 1.429 . S
C836 C834 1.419 . S
C836 C837 1.363 . S
C836 H839 0.929 . S
C837 C836 1.363 . S
C837 C843 1.428 . S
H838 C834 0.930 . S
H839 C836 0.929 . S
S840 N841 1.613 . S
S840 N842 1.610 . S
N841 S840 1.613 . S
N841 C844 1.350 . S
N842 S840 1.610 . S
N842 C843 1.351 . S
C843 C837 1.428 . S
C843 N842 1.351 . S
C843 C844 1.434 . S
C844 C835 1.429 . S
C844 N841 1.350 . S
C844 C843 1.434 . S
C845 C846 1.369 . S
C845 C847 1.419 . S
C845 H849 0.930 . S
C846 C845 1.369 . S
C846 C855 1.452 . S
C847 C845 1.419 . S
C847 C848 1.363 . S
C847 H850 0.929 . S
C848 C847 1.363 . S
C848 C854 1.428 1_455 S
H849 C845 0.930 . S
H850 C847 0.929 . S
S851 N852 1.613 . S
S851 N853 1.610 . S
N852 S851 1.613 . S
N852 C855 1.333 1_655 S
N853 S851 1.610 . S
N853 C854 1.351 . S
C854 C848 1.428 1_655 S
C854 N853 1.351 . S
C854 C855 1.426 1_655 S
C855 C846 1.452 . S
C855 N852 1.333 1_455 S
C855 C854 1.426 1_455 S
C856 C857 1.369 . S
C856 C858 1.419 . S
C856 H860 0.930 . S
C857 C856 1.369 . S
C857 C866 1.429 . S
C858 C856 1.419 . S
C858 C859 1.363 . S
C858 H861 0.929 . S
C859 C858 1.363 . S
C859 C865 1.428 . S
H860 C856 0.930 . S
H861 C858 0.929 . S
S862 N863 1.613 . S
S862 N864 1.610 . S
N863 S862 1.613 . S
N863 C866 1.350 . S
N864 S862 1.610 . S
N864 C865 1.351 . S
C865 C859 1.428 . S
C865 N864 1.351 . S
C865 C866 1.434 . S
C866 C857 1.429 . S
C866 N863 1.350 . S
C866 C865 1.434 . S
C867 C868 1.369 . S
C867 C869 1.419 . S
C867 H871 0.930 . S
C868 C867 1.369 . S
C868 C877 1.429 . S
C869 C867 1.419 . S
C869 C870 1.363 . S
C869 H872 0.929 . S
C870 C869 1.363 . S
C870 C876 1.428 . S
H871 C867 0.930 . S
H872 C869 0.929 . S
S873 N874 1.613 . S
S873 N875 1.610 . S
N874 S873 1.613 . S
N874 C877 1.350 . S
N875 S873 1.610 . S
N875 C876 1.351 . S
C876 C870 1.428 . S
C876 N875 1.351 . S
C876 C877 1.434 . S
C877 C868 1.429 . S
C877 N874 1.350 . S
C877 C876 1.434 . S
C878 C879 1.369 . S
C878 C880 1.419 . S
C878 H882 0.930 . S
C879 C878 1.369 . S
C879 C888 1.429 . S
C880 C878 1.419 . S
C880 C881 1.363 . S
C880 H883 0.929 . S
C881 C880 1.363 . S
C881 C887 1.428 . S
H882 C878 0.930 . S
H883 C880 0.929 . S
S884 N885 1.613 . S
S884 N886 1.610 . S
N885 S884 1.613 . S
N885 C888 1.350 . S
N886 S884 1.610 . S
N886 C887 1.351 . S
C887 C881 1.428 . S
C887 N886 1.351 . S
C887 C888 1.434 . S
C888 C879 1.429 . S
C888 N885 1.350 . S
C888 C887 1.434 . S
C889 C890 1.369 . S
C889 C891 1.419 . S
C889 H893 0.930 . S
C890 C889 1.369 . S
C890 C899 1.429 . S
C891 C889 1.419 . S
C891 C892 1.363 . S
C891 H894 0.929 . S
C892 C891 1.363 . S
C892 C898 1.428 . S
H893 C889 0.930 . S
H894 C891 0.929 . S
S895 N896 1.613 . S
S895 N897 1.610 . S
N896 S895 1.613 . S
N896 C899 1.350 . S
N897 S895 1.610 . S
N897 C898 1.351 . S
C898 C892 1.428 . S
C898 N897 1.351 . S
C898 C899 1.434 . S
C899 C890 1.429 . S
C899 N896 1.350 . S
C899 C898 1.434 . S
C900 C901 1.369 . S
C900 C902 1.419 . S
C900 H904 0.930 . S
C901 C900 1.369 . S
C901 C910 1.429 . S
C902 C900 1.419 . S
C902 C903 1.363 . S
C902 H905 0.929 . S
C903 C902 1.363 . S
C903 C909 1.428 . S
H904 C900 0.930 . S
H905 C902 0.929 . S
S906 N907 1.613 . S
S906 N908 1.610 . S
N907 S906 1.613 . S
N907 C910 1.350 . S
N908 S906 1.610 . S
N908 C909 1.351 . S
C909 C903 1.428 . S
C909 N908 1.351 . S
C909 C910 1.434 . S
C910 C901 1.429 . S
C910 N907 1.350 . S
C910 C909 1.434 . S
C911 C912 1.369 . S
C911 C913 1.419 . S
C911 H915 0.930 . S
C912 C911 1.369 . S
C912 C921 1.429 . S
C913 C911 1.419 . S
C913 C914 1.363 . S
C913 H916 0.929 . S
C914 C913 1.363 . S
C914 C920 1.428 . S
H915 C911 0.930 . S
H916 C913 0.929 . S
S917 N918 1.613 . S
S917 N919 1.610 . S
N918 S917 1.613 . S
N918 C921 1.350 . S
N919 S917 1.610 . S
N919 C920 1.351 . S
C920 C914 1.428 . S
C920 N919 1.351 . S
C920 C921 1.434 . S
C921 C912 1.429 . S
C921 N918 1.350 . S
C921 C920 1.434 . S
C922 C923 1.369 . S
C922 C924 1.419 . S
C922 H926 0.930 . S
C923 C922 1.369 . S
C923 C932 1.429 . S
C924 C922 1.419 . S
C924 C925 1.363 . S
C924 H927 0.929 . S
C925 C924 1.363 . S
C925 C931 1.428 . S
H926 C922 0.930 . S
H927 C924 0.929 . S
S928 N929 1.613 . S
S928 N930 1.610 . S
N929 S928 1.613 . S
N929 C932 1.350 . S
N930 S928 1.610 . S
N930 C931 1.351 . S
C931 C925 1.428 . S
C931 N930 1.351 . S
C931 C932 1.434 . S
C932 C923 1.429 . S
C932 N929 1.350 . S
C932 C931 1.434 . S
C933 C934 1.369 . S
C933 C935 1.419 . S
C933 H937 0.930 . S
C934 C933 1.369 . S
C934 C943 1.429 . S
C935 C933 1.419 . S
C935 C936 1.363 . S
C935 H938 0.929 . S
C936 C935 1.363 . S
C936 C942 1.428 . S
H937 C933 0.930 . S
H938 C935 0.929 . S
S939 N940 1.613 . S
S939 N941 1.610 . S
N940 S939 1.613 . S
N940 C943 1.350 . S
N941 S939 1.610 . S
N941 C942 1.351 . S
C942 C936 1.428 . S
C942 N941 1.351 . S
C942 C943 1.434 . S
C943 C934 1.429 . S
C943 N940 1.350 . S
C943 C942 1.434 . S
C944 C945 1.369 . S
C944 C946 1.419 . S
C944 H948 0.930 . S
C945 C944 1.369 . S
C945 C954 1.429 1_556 S
C946 C944 1.419 . S
C946 C947 1.363 . S
C946 H949 0.929 . S
C947 C946 1.363 . S
C947 C953 1.428 1_556 S
H948 C944 0.930 . S
H949 C946 0.929 . S
S950 N951 1.613 . S
S950 N952 1.610 . S
N951 S950 1.613 . S
N951 C954 1.350 . S
N952 S950 1.610 . S
N952 C953 1.351 . S
C953 C947 1.428 1_554 S
C953 N952 1.351 . S
C953 C954 1.434 . S
C954 C945 1.429 1_554 S
C954 N951 1.350 . S
C954 C953 1.434 . S
C955 C956 1.369 . S
C955 C957 1.419 . S
C955 H959 0.930 . S
C956 C955 1.369 . S
C956 C965 1.429 . S
C957 C955 1.419 . S
C957 C958 1.363 . S
C957 H960 0.929 . S
C958 C957 1.363 . S
C958 C964 1.428 . S
H959 C955 0.930 . S
H960 C957 0.929 . S
S961 N962 1.613 . S
S961 N963 1.610 . S
N962 S961 1.613 . S
N962 C965 1.350 . S
N963 S961 1.610 . S
N963 C964 1.351 . S
C964 C958 1.428 . S
C964 N963 1.351 . S
C964 C965 1.434 . S
C965 C956 1.429 . S
C965 N962 1.350 . S
C965 C964 1.434 . S
C966 C967 1.369 . S
C966 C968 1.419 . S
C966 H970 0.930 . S
C967 C966 1.369 . S
C967 C976 1.429 1_554 S
C968 C966 1.419 . S
C968 C969 1.363 . S
C968 H971 0.929 . S
C969 C968 1.363 . S
C969 C975 1.428 1_554 S
H970 C966 0.930 . S
H971 C968 0.929 . S
S972 N973 1.613 . S
S972 N974 1.610 . S
N973 S972 1.613 . S
N973 C976 1.350 . S
N974 S972 1.610 . S
N974 C975 1.351 . S
C975 C969 1.428 1_556 S
C975 N974 1.351 . S
C975 C976 1.434 . S
C976 C967 1.429 1_556 S
C976 N973 1.350 . S
C976 C975 1.434 . S
C977 C978 1.369 . S
C977 C979 1.419 . S
C977 H981 0.930 . S
C978 C977 1.369 . S
C978 C987 1.429 . S
C979 C977 1.419 . S
C979 C980 1.363 . S
C979 H982 0.929 . S
C980 C979 1.363 . S
C980 C986 1.428 . S
H981 C977 0.930 . S
H982 C979 0.929 . S
S983 N984 1.613 . S
S983 N985 1.610 1_545 S
N984 S983 1.613 . S
N984 C987 1.350 1_545 S
N985 S983 1.610 1_565 S
N985 C986 1.351 . S
C986 C980 1.428 . S
C986 N985 1.351 . S
C986 C987 1.434 . S
C987 C978 1.429 . S
C987 N984 1.350 1_565 S
C987 C986 1.434 . S
C463 C314 1.819 . S
C461 C101 1.822 . S
C474 C327 1.280 . S
C472 C125 1.186 . S
C483 C139 1.913 . S
C485 C340 1.872 . S
C496 C353 1.709 1_455 S
C494 C82 1.753 1_545 S
C507 C361 1.546 . S
C505 C196 1.574 . S
C518 C374 1.734 . S
C516 C234 1.758 . S
C527 C220 1.010 . S
C529 C387 1.055 . S
C540 C400 1.652 1_565 S
C538 C173 1.673 . S
C549 C211 1.199 . S
C551 C418 1.153 . S
C562 C429 1.160 . S
C560 C182 1.134 . S
C571 C201 1.263 . S
C573 C413 1.391 . S
C584 C421 1.409 . S
C582 C239 1.311 . S
C593 C135 1.676 . S
C595 C444 1.671 . S
C604 C87 1.660 . S
C606 C434 1.795 . S
C615 C106 1.210 . S
C617 C439 1.366 . S
C626 C116 1.318 . S
C628 C442 1.328 . S
C637 C59 1.790 . S
C639 C351 1.755 . S
C648 C268 2.030 . S
C650 C343 2.033 . S
C661 C312 1.358 . S
C659 C291 1.340 1_564 S
C672 C317 1.446 . S
C670 C163 1.360 . S
C681 C78 1.970 . S
C683 C364 1.940 . S
C694 C403 1.302 . S
C692 C215 1.308 . S
C705 C356 1.658 . S
C703 C177 1.649 . S
C716 C382 1.698 . S
C714 C230 1.745 . S
C727 C392 1.820 . S
C725 C272 1.816 . S
C736 C296 1.198 . S
C738 C405 1.276 . S
C747 C158 1.916 . S
C749 C366 1.869 . S
C760 C379 1.704 . S
C758 C253 1.752 . S
C769 C63 1.576 . S
C771 C335 1.548 . S
C782 C348 1.731 1_455 S
C780 C6 1.759 . S
C793 C309 1.061 . S
C791 C30 1.003 . S
C804 C322 1.652 . S
C802 C40 1.676 . S
C813 C21 1.190 . S
C815 C431 1.160 . S
C824 C49 1.143 . S
C826 C416 1.166 . S
C835 C68 1.251 . S
C837 C426 1.395 . S
C846 C11 1.313 . S
C848 C408 1.409 . S
C859 C457 1.673 . S
C857 C154 1.677 . S
C870 C447 1.797 . S
C868 C258 1.649 . S
C881 C452 1.371 . S
C879 C277 1.194 . S
C890 C287 1.330 . S
C892 C455 1.327 . S
C901 C192 1.789 . S
C903 C377 1.755 . S
C914 C369 2.034 . S
C912 C97 2.032 . S
C925 C390 1.359 . S
C923 C120 1.356 . S
C936 C395 1.448 . S
C934 C144 1.373 . S
C945 C249 1.970 . S
C947 C338 1.939 . S
C958 C325 1.298 . S
C956 C25 1.305 . S
C967 C44 1.645 . S
C969 C330 1.656 1_554 S
C980 C304 1.696 . S
C978 C2 1.746 1_565 S
