# Generated by pormake.
# Topology pto, (3,4)-cn, num edge types: 1
# Building blocks:
#     Node 0, Type 0, BuildingBlock: KAKCAD_clean_linker_0, # of connection points: 3
#     Node 1, Type 0, BuildingBlock: KAKCAD_clean_linker_0, # of connection points: 3
#     Node 2, Type 0, BuildingBlock: KAKCAD_clean_linker_0, # of connection points: 3
#     Node 3, Type 0, BuildingBlock: KAKCAD_clean_linker_0, # of connection points: 3
#     Node 4, Type 0, BuildingBlock: KAKCAD_clean_linker_0, # of connection points: 3
#     Node 5, Type 0, BuildingBlock: KAKCAD_clean_linker_0, # of connection points: 3
#     Node 6, Type 0, BuildingBlock: KAKCAD_clean_linker_0, # of connection points: 3
#     Node 7, Type 0, BuildingBlock: KAKCAD_clean_linker_0, # of connection points: 3
#     Node 8, Type 1, BuildingBlock: KOZSID_clean_sbu_0, # of connection points: 4
#     Node 9, Type 1, BuildingBlock: KOZSID_clean_sbu_0, # of connection points: 4
#     Node 10, Type 1, BuildingBlock: KOZSID_clean_sbu_0, # of connection points: 4
#     Node 11, Type 1, BuildingBlock: KOZSID_clean_sbu_0, # of connection points: 4
#     Node 12, Type 1, BuildingBlock: KOZSID_clean_sbu_0, # of connection points: 4
#     Node 13, Type 1, BuildingBlock: KOZSID_clean_sbu_0, # of connection points: 4
#     Edge 14, Type (0, 1), BuildingBlock: UVAHIK_clean_linker_0, # of connection points: 2
#     Edge 15, Type (0, 1), BuildingBlock: UVAHIK_clean_linker_0, # of connection points: 2
#     Edge 16, Type (0, 1), BuildingBlock: UVAHIK_clean_linker_0, # of connection points: 2
#     Edge 17, Type (0, 1), BuildingBlock: UVAHIK_clean_linker_0, # of connection points: 2
#     Edge 18, Type (0, 1), BuildingBlock: UVAHIK_clean_linker_0, # of connection points: 2
#     Edge 19, Type (0, 1), BuildingBlock: UVAHIK_clean_linker_0, # of connection points: 2
#     Edge 20, Type (0, 1), BuildingBlock: UVAHIK_clean_linker_0, # of connection points: 2
#     Edge 21, Type (0, 1), BuildingBlock: UVAHIK_clean_linker_0, # of connection points: 2
#     Edge 22, Type (0, 1), BuildingBlock: UVAHIK_clean_linker_0, # of connection points: 2
#     Edge 23, Type (0, 1), BuildingBlock: UVAHIK_clean_linker_0, # of connection points: 2
#     Edge 24, Type (0, 1), BuildingBlock: UVAHIK_clean_linker_0, # of connection points: 2
#     Edge 25, Type (0, 1), BuildingBlock: UVAHIK_clean_linker_0, # of connection points: 2
#     Edge 26, Type (0, 1), BuildingBlock: UVAHIK_clean_linker_0, # of connection points: 2
#     Edge 27, Type (0, 1), BuildingBlock: UVAHIK_clean_linker_0, # of connection points: 2
#     Edge 28, Type (0, 1), BuildingBlock: UVAHIK_clean_linker_0, # of connection points: 2
#     Edge 29, Type (0, 1), BuildingBlock: UVAHIK_clean_linker_0, # of connection points: 2
#     Edge 30, Type (0, 1), BuildingBlock: UVAHIK_clean_linker_0, # of connection points: 2
#     Edge 31, Type (0, 1), BuildingBlock: UVAHIK_clean_linker_0, # of connection points: 2
#     Edge 32, Type (0, 1), BuildingBlock: UVAHIK_clean_linker_0, # of connection points: 2
#     Edge 33, Type (0, 1), BuildingBlock: UVAHIK_clean_linker_0, # of connection points: 2
#     Edge 34, Type (0, 1), BuildingBlock: UVAHIK_clean_linker_0, # of connection points: 2
#     Edge 35, Type (0, 1), BuildingBlock: UVAHIK_clean_linker_0, # of connection points: 2
#     Edge 36, Type (0, 1), BuildingBlock: UVAHIK_clean_linker_0, # of connection points: 2
#     Edge 37, Type (0, 1), BuildingBlock: UVAHIK_clean_linker_0, # of connection points: 2
# Relax obj value: 0.000
# Max RMSD: 0.020
# Mean RMSD: 0.008
data_MOF--net-pto--node1-KOZSID_clean_sbu_0--node2-KAKCAD_clean_linker_0--edge1-UVAHIK_clean_linker_0
_symmetry_space_group_name_H-M    P1
_symmetry_Int_Tables_number       1
_symmetry_cell_setting            triclinic
loop_
_symmetry_equiv_pos_as_xyz
'x, y, z'
_cell_length_a     57.278562
_cell_length_b     77.572013
_cell_length_c     67.479256
_cell_angle_alpha  88.437466
_cell_angle_beta   88.594388
_cell_angle_gamma 92.4877
loop_
_atom_site_label
_atom_site_type_symbol
_atom_site_fract_x
_atom_site_fract_y
_atom_site_fract_z
_atom_type_partial_charge
C0 C 0.2807 0.20219 0.3522 0.0
C1 C 0.25787 0.19532 0.35599 0.0
C2 C 0.28453 0.21724 0.34051 0.0
C3 C 0.26558 0.2258 0.33265 0.0
C4 C 0.24276 0.21899 0.33655 0.0
C5 C 0.23895 0.20382 0.348 0.0
C6 C 0.26957 0.24176 0.32029 0.0
C7 C 0.2859 0.24233 0.30442 0.0
C8 C 0.28909 0.25719 0.2921 0.0
C9 C 0.27609 0.27171 0.29615 0.0
C10 C 0.25973 0.27133 0.31203 0.0
C11 C 0.25654 0.25628 0.32399 0.0
C12 C 0.24545 0.28645 0.31581 0.0
C13 C 0.25578 0.30322 0.3155 0.0
C14 C 0.22127 0.28416 0.31962 0.0
C15 C 0.20766 0.29835 0.32287 0.0
C16 C 0.21794 0.31514 0.32249 0.0
C17 C 0.30502 0.25715 0.27441 0.0
C18 C 0.32691 0.2497 0.27549 0.0
C19 C 0.29798 0.26392 0.25609 0.0
C20 C 0.31231 0.26297 0.23914 0.0
C21 C 0.33401 0.25525 0.24013 0.0
C22 C 0.34127 0.24879 0.25854 0.0
C23 C 0.24216 0.31743 0.3189 0.0
H24 H 0.29559 0.1958 0.35809 0.0
H25 H 0.30228 0.22229 0.33777 0.0
H26 H 0.22787 0.22529 0.33052 0.0
H27 H 0.22118 0.19884 0.35081 0.0
H28 H 0.2954 0.23092 0.30117 0.0
H29 H 0.24411 0.25592 0.33638 0.0
H30 H 0.2784 0.28322 0.28672 0.0
H31 H 0.2744 0.30534 0.31275 0.0
H32 H 0.21279 0.27139 0.31978 0.0
H33 H 0.18907 0.29618 0.32578 0.0
H34 H 0.33289 0.2445 0.28944 0.0
H35 H 0.28112 0.26957 0.25471 0.0
H36 H 0.25053 0.33024 0.31837 0.0
H37 H 0.35782 0.24265 0.25976 0.0
H38 H 0.30634 0.26826 0.22523 0.0
C39 C 0.29993 0.77954 0.78531 0.0
C40 C 0.31734 0.76751 0.78816 0.0
C41 C 0.28549 0.77859 0.76897 0.0
C42 C 0.28784 0.76544 0.75529 0.0
C43 C 0.30502 0.75332 0.75811 0.0
C44 C 0.31975 0.75443 0.77427 0.0
C45 C 0.27223 0.76437 0.73818 0.0
C46 C 0.26922 0.77901 0.72602 0.0
C47 C 0.25381 0.77838 0.71016 0.0
C48 C 0.24134 0.7628 0.70662 0.0
C49 C 0.24409 0.74801 0.71871 0.0
C50 C 0.25978 0.74889 0.73438 0.0
C51 C 0.22988 0.73189 0.71544 0.0
C52 C 0.20621 0.73264 0.71058 0.0
C53 C 0.23969 0.71564 0.71743 0.0
C54 C 0.22608 0.70052 0.7148 0.0
C55 C 0.20236 0.70129 0.71007 0.0
C56 C 0.25036 0.79404 0.69754 0.0
C57 C 0.24962 0.81039 0.706 0.0
C58 C 0.24749 0.79277 0.67699 0.0
C59 C 0.24376 0.80744 0.66522 0.0
C60 C 0.24302 0.82379 0.67368 0.0
C61 C 0.24611 0.82508 0.69421 0.0
C62 C 0.19266 0.71755 0.70786 0.0
H63 H 0.29715 0.78956 0.79585 0.0
H64 H 0.27215 0.78796 0.76722 0.0
H65 H 0.30726 0.74315 0.74763 0.0
H66 H 0.3332 0.74512 0.77573 0.0
H67 H 0.27922 0.79085 0.7288 0.0
H68 H 0.26165 0.73773 0.74414 0.0
H69 H 0.22923 0.76223 0.69456 0.0
H70 H 0.19798 0.74491 0.70919 0.0
H71 H 0.25793 0.71461 0.72097 0.0
H72 H 0.23406 0.68821 0.71682 0.0
H73 H 0.25145 0.81184 0.7218 0.0
H74 H 0.24826 0.78044 0.66992 0.0
H75 H 0.17454 0.71864 0.70396 0.0
H76 H 0.246 0.83747 0.70121 0.0
H77 H 0.24117 0.80591 0.64952 0.0
C78 C 0.70704 0.74331 0.25484 0.0
C79 C 0.70584 0.75882 0.24368 0.0
C80 C 0.7207 0.74253 0.2717 0.0
C81 C 0.73362 0.7572 0.27774 0.0
C82 C 0.73246 0.77269 0.26654 0.0
C83 C 0.71866 0.77351 0.24981 0.0
C84 C 0.74847 0.75641 0.2955 0.0
C85 C 0.7615 0.74184 0.29958 0.0
C86 C 0.77633 0.74138 0.31584 0.0
C87 C 0.7781 0.75568 0.32811 0.0
C88 C 0.76517 0.77032 0.32434 0.0
C89 C 0.75023 0.77049 0.30815 0.0
C90 C 0.76774 0.78565 0.33695 0.0
C91 C 0.76903 0.78373 0.35766 0.0
C92 C 0.76924 0.80235 0.32826 0.0
C93 C 0.77196 0.8168 0.34 0.0
C94 C 0.77331 0.81489 0.3607 0.0
C95 C 0.79058 0.72618 0.31962 0.0
C96 C 0.7805 0.70937 0.31901 0.0
C97 C 0.81444 0.72842 0.32368 0.0
C98 C 0.82802 0.71413 0.32685 0.0
C99 C 0.81799 0.69731 0.32618 0.0
C100 C 0.79406 0.69507 0.32236 0.0
C101 C 0.77182 0.7982 0.36942 0.0
H102 H 0.69763 0.73168 0.25044 0.0
H103 H 0.72099 0.73043 0.28007 0.0
H104 H 0.74244 0.78419 0.27055 0.0
H105 H 0.71793 0.78574 0.24177 0.0
H106 H 0.76081 0.73107 0.28968 0.0
H107 H 0.73976 0.78158 0.3055 0.0
H108 H 0.78979 0.75546 0.3405 0.0
H109 H 0.76763 0.77105 0.36482 0.0
H110 H 0.76872 0.80426 0.31232 0.0
H111 H 0.77343 0.82948 0.33282 0.0
H112 H 0.76211 0.70729 0.31604 0.0
H113 H 0.82271 0.74123 0.32407 0.0
H114 H 0.7725 0.79633 0.38535 0.0
H115 H 0.78591 0.68224 0.32159 0.0
H116 H 0.84638 0.71625 0.32992 0.0
C117 C 0.7965 0.21765 0.69678 0.0
C118 C 0.77739 0.20689 0.69155 0.0
C119 C 0.79312 0.23204 0.7083 0.0
C120 C 0.77056 0.23602 0.71487 0.0
C121 C 0.75143 0.22528 0.70963 0.0
C122 C 0.75481 0.21087 0.69809 0.0
C123 C 0.76713 0.25122 0.72734 0.0
C124 C 0.77961 0.26688 0.72293 0.0
C125 C 0.77747 0.28111 0.73518 0.0
C126 C 0.76228 0.2796 0.75187 0.0
C127 C 0.74944 0.26408 0.75639 0.0
C128 C 0.75196 0.24996 0.74403 0.0
C129 C 0.73393 0.2624 0.77435 0.0
C130 C 0.7414 0.26886 0.7925 0.0
C131 C 0.7117 0.25407 0.77354 0.0
C132 C 0.69728 0.2522 0.79053 0.0
C133 C 0.7048 0.25856 0.80871 0.0
C134 C 0.79159 0.29736 0.73077 0.0
C135 C 0.815 0.29675 0.72416 0.0
C136 C 0.78193 0.31355 0.73323 0.0
C137 C 0.79542 0.32876 0.72924 0.0
C138 C 0.81886 0.32812 0.72267 0.0
C139 C 0.82842 0.31193 0.72009 0.0
C140 C 0.727 0.26694 0.8095 0.0
H141 H 0.81415 0.21477 0.69227 0.0
H142 H 0.80826 0.2399 0.71238 0.0
H143 H 0.73381 0.22814 0.71427 0.0
H144 H 0.7397 0.20297 0.69407 0.0
H145 H 0.79086 0.26803 0.70977 0.0
H146 H 0.74274 0.23778 0.74782 0.0
H147 H 0.76061 0.29046 0.76149 0.0
H148 H 0.75853 0.27517 0.79365 0.0
H149 H 0.7054 0.24907 0.75973 0.0
H150 H 0.68035 0.24555 0.78948 0.0
H151 H 0.8231 0.28451 0.72235 0.0
H152 H 0.76389 0.31448 0.7381 0.0
H153 H 0.7332 0.27214 0.82325 0.0
H154 H 0.8463 0.31094 0.7148 0.0
H155 H 0.78756 0.34101 0.73157 0.0
C156 C 0.76989 0.80523 0.67279 0.0
C157 C 0.77009 0.82187 0.68057 0.0
C158 C 0.76565 0.79064 0.68516 0.0
C159 C 0.76167 0.79231 0.70566 0.0
C160 C 0.76177 0.80895 0.71342 0.0
C161 C 0.76582 0.82354 0.70103 0.0
C162 C 0.75798 0.77679 0.719 0.0
C163 C 0.771 0.76211 0.71603 0.0
C164 C 0.76826 0.74762 0.72894 0.0
C165 C 0.75258 0.74805 0.74524 0.0
C166 C 0.73933 0.7626 0.74851 0.0
C167 C 0.74193 0.77679 0.73509 0.0
C168 C 0.72326 0.76317 0.76617 0.0
C169 C 0.71069 0.7482 0.7734 0.0
C170 C 0.72073 0.77867 0.77625 0.0
C171 C 0.7061 0.77918 0.79307 0.0
C172 C 0.69399 0.76415 0.80041 0.0
C173 C 0.78204 0.73214 0.72549 0.0
C174 C 0.78518 0.72603 0.70622 0.0
C175 C 0.79218 0.72338 0.7414 0.0
C176 C 0.80513 0.70883 0.73811 0.0
C177 C 0.80829 0.70274 0.71884 0.0
C178 C 0.79818 0.71151 0.70293 0.0
C179 C 0.69639 0.74866 0.79044 0.0
H180 H 0.77335 0.80343 0.65715 0.0
H181 H 0.76543 0.77803 0.67863 0.0
H182 H 0.75909 0.81075 0.72916 0.0
H183 H 0.76547 0.83615 0.70751 0.0
H184 H 0.78386 0.76212 0.70398 0.0
H185 H 0.73125 0.78783 0.73704 0.0
H186 H 0.75082 0.73703 0.75544 0.0
H187 H 0.71178 0.73611 0.76586 0.0
H188 H 0.73045 0.79039 0.77143 0.0
H189 H 0.7047 0.79124 0.80064 0.0
H190 H 0.77731 0.73235 0.69369 0.0
H191 H 0.79042 0.72792 0.75637 0.0
H192 H 0.68702 0.73693 0.79575 0.0
H193 H 0.80004 0.70699 0.68795 0.0
H194 H 0.813 0.70251 0.75063 0.0
C195 C 0.70472 0.24553 0.26749 0.0
C196 C 0.71275 0.25225 0.24886 0.0
C197 C 0.71883 0.24681 0.28404 0.0
C198 C 0.7412 0.25497 0.28235 0.0
C199 C 0.74922 0.26174 0.26379 0.0
C200 C 0.73521 0.26034 0.24721 0.0
C201 C 0.75628 0.25625 0.29984 0.0
C202 C 0.75899 0.24178 0.31236 0.0
C203 C 0.77366 0.24273 0.32871 0.0
C204 C 0.78576 0.25844 0.33239 0.0
C205 C 0.78322 0.27312 0.32004 0.0
C206 C 0.7683 0.27187 0.30385 0.0
C207 C 0.7963 0.28967 0.32387 0.0
C208 C 0.80013 0.29493 0.34338 0.0
C209 C 0.80519 0.30034 0.30798 0.0
C210 C 0.81742 0.31588 0.3115 0.0
C211 C 0.82138 0.32098 0.33096 0.0
C212 C 0.77653 0.22723 0.34175 0.0
C213 C 0.75726 0.216 0.3468 0.0
C214 C 0.79856 0.22343 0.34907 0.0
C215 C 0.80124 0.20874 0.3611 0.0
C216 C 0.78199 0.19742 0.36601 0.0
C217 C 0.75997 0.20125 0.35871 0.0
C218 C 0.81271 0.31035 0.34687 0.0
H219 H 0.68739 0.23948 0.26939 0.0
H220 H 0.71213 0.24164 0.29823 0.0
H221 H 0.76653 0.26787 0.262 0.0
H222 H 0.74215 0.26538 0.23304 0.0
H223 H 0.75018 0.22961 0.30896 0.0
H224 H 0.76565 0.28314 0.29447 0.0
H225 H 0.79725 0.25921 0.34487 0.0
H226 H 0.7932 0.28725 0.35599 0.0
H227 H 0.80306 0.29659 0.29277 0.0
H228 H 0.8242 0.32376 0.29897 0.0
H229 H 0.73998 0.21863 0.34163 0.0
H230 H 0.81385 0.23168 0.34528 0.0
H231 H 0.81539 0.3141 0.36203 0.0
H232 H 0.7448 0.19273 0.36195 0.0
H233 H 0.81841 0.20632 0.36665 0.0
C234 C 0.29725 0.26374 0.79838 0.0
C235 C 0.3194 0.25667 0.79671 0.0
C236 C 0.28327 0.26535 0.78182 0.0
C237 C 0.29103 0.25984 0.76323 0.0
C238 C 0.31316 0.25281 0.7615 0.0
C239 C 0.32722 0.25129 0.77804 0.0
C240 C 0.27589 0.26119 0.74578 0.0
C241 C 0.26384 0.27627 0.74201 0.0
C242 C 0.24896 0.27749 0.72582 0.0
C243 C 0.24617 0.26334 0.7134 0.0
C244 C 0.25814 0.24818 0.71693 0.0
C245 C 0.27306 0.24725 0.73309 0.0
C246 C 0.2548 0.23322 0.70392 0.0
C247 C 0.23228 0.22778 0.69822 0.0
C248 C 0.27409 0.22421 0.69721 0.0
C249 C 0.27093 0.21009 0.68499 0.0
C250 C 0.24841 0.20463 0.67932 0.0
C251 C 0.2362 0.29347 0.72198 0.0
C252 C 0.226 0.3022 0.73776 0.0
C253 C 0.23398 0.30006 0.70252 0.0
C254 C 0.22178 0.315 0.69893 0.0
C255 C 0.2116 0.32371 0.71472 0.0
C256 C 0.21387 0.31715 0.73417 0.0
C257 C 0.22911 0.2136 0.68609 0.0
H258 H 0.29049 0.26774 0.81258 0.0
H259 H 0.26615 0.27059 0.78366 0.0
H260 H 0.3197 0.24865 0.74729 0.0
H261 H 0.34433 0.24606 0.77614 0.0
H262 H 0.26642 0.28721 0.75149 0.0
H263 H 0.28189 0.23543 0.73618 0.0
H264 H 0.23457 0.26408 0.70098 0.0
H265 H 0.21707 0.23438 0.70333 0.0
H266 H 0.29165 0.22818 0.70126 0.0
H267 H 0.28612 0.20333 0.68015 0.0
H268 H 0.22705 0.29731 0.75288 0.0
H269 H 0.24194 0.2938 0.69007 0.0
H270 H 0.21157 0.20977 0.68184 0.0
H271 H 0.20591 0.32342 0.74662 0.0
H272 H 0.22057 0.31986 0.68381 0.0
C273 C 0.24651 0.81364 0.32901 0.0
C274 C 0.2441 0.81121 0.34969 0.0
C275 C 0.25093 0.79973 0.31694 0.0
C276 C 0.25302 0.78308 0.32528 0.0
C277 C 0.25068 0.78066 0.34597 0.0
C278 C 0.24627 0.79457 0.35803 0.0
C279 C 0.25727 0.76825 0.31242 0.0
C280 C 0.27329 0.77 0.29633 0.0
C281 C 0.27687 0.7562 0.28366 0.0
C282 C 0.26453 0.74035 0.28768 0.0
C283 C 0.2487 0.73825 0.30391 0.0
C284 C 0.24504 0.75236 0.31605 0.0
C285 C 0.23577 0.72142 0.30812 0.0
C286 C 0.22767 0.71121 0.29256 0.0
C287 C 0.23129 0.71546 0.3278 0.0
C288 C 0.21876 0.69985 0.33181 0.0
C289 C 0.21075 0.68972 0.31625 0.0
C290 C 0.29311 0.75845 0.26606 0.0
C291 C 0.29508 0.77429 0.25529 0.0
C292 C 0.30638 0.74472 0.25958 0.0
C293 C 0.32071 0.74664 0.24253 0.0
C294 C 0.32251 0.76243 0.23187 0.0
C295 C 0.30981 0.7763 0.2385 0.0
C296 C 0.21545 0.69547 0.29659 0.0
H297 H 0.24519 0.82633 0.32214 0.0
H298 H 0.25241 0.80199 0.30104 0.0
H299 H 0.2524 0.76802 0.35286 0.0
H300 H 0.24429 0.79223 0.37389 0.0
H301 H 0.28324 0.7821 0.29388 0.0
H302 H 0.23215 0.75114 0.32809 0.0
H303 H 0.26716 0.72961 0.27808 0.0
H304 H 0.23037 0.7155 0.27724 0.0
H305 H 0.23763 0.72278 0.34016 0.0
H306 H 0.21557 0.69559 0.3471 0.0
H307 H 0.28485 0.78508 0.25952 0.0
H308 H 0.3058 0.73246 0.26767 0.0
H309 H 0.20921 0.68797 0.28433 0.0
H310 H 0.3108 0.78856 0.23037 0.0
H311 H 0.33055 0.73581 0.23774 0.0
C312 C 0.05343 0.52939 0.36285 0.0
C313 C 0.06237 0.53445 0.38084 0.0
C314 C 0.04958 0.5255 0.39532 0.0
C315 C 0.03374 0.51544 0.38541 0.0
N316 N 0.03573 0.51729 0.36543 0.0
Co317 Co 0.01635 0.50497 0.34537 0.0
N318 N 0.99709 0.4922 0.36675 0.0
C319 C 0.99915 0.49363 0.38658 0.0
C320 C 0.9834 0.48333 0.39757 0.0
C321 C 0.97059 0.47464 0.38398 0.0
C322 C 0.97943 0.48009 0.3654 0.0
N323 N 0.99696 0.49263 0.32528 0.0
C324 C 0.9796 0.48026 0.32785 0.0
C325 C 0.97157 0.47453 0.3098 0.0
C326 C 0.98412 0.48367 0.29534 0.0
C327 C 0.99917 0.49432 0.30529 0.0
N328 N 0.03563 0.51775 0.32395 0.0
C329 C 0.03329 0.51652 0.30412 0.0
C330 C 0.04833 0.52736 0.29311 0.0
C331 C 0.06102 0.53615 0.30668 0.0
C332 C 0.05308 0.53003 0.3253 0.0
N333 N 0.03852 0.486 0.34516 0.0
C334 C 0.06863 0.45825 0.34452 0.0
C335 C 0.0609 0.46569 0.32696 0.0
C336 C 0.04609 0.47945 0.32761 0.0
C337 C 0.06143 0.46512 0.36246 0.0
C338 C 0.0464 0.47886 0.36244 0.0
N339 N 0.99419 0.52396 0.34555 0.0
C340 C 0.97207 0.54488 0.32769 0.0
C341 C 0.96448 0.55195 0.34537 0.0
C342 C 0.97154 0.54455 0.36321 0.0
C343 C 0.98638 0.5307 0.36296 0.0
C344 C 0.98666 0.53098 0.32812 0.0
H345 H 0.99149 0.5258 0.37701 0.0
H346 H 0.99169 0.52622 0.31411 0.0
H347 H 0.04094 0.48449 0.31368 0.0
H348 H 0.04123 0.48338 0.37657 0.0
C349 C 0.01646 0.50445 0.39445 0.0
C350 C 0.06212 0.53668 0.34378 0.0
C351 C 0.97072 0.47316 0.34698 0.0
C352 C 0.0162 0.50552 0.29624 0.0
H353 H 0.07656 0.54376 0.38326 0.0
H354 H 0.05146 0.52633 0.4112 0.0
H355 H 0.9816 0.48215 0.41356 0.0
H356 H 0.95645 0.46523 0.38738 0.0
H357 H 0.9583 0.46455 0.30723 0.0
H358 H 0.98278 0.48244 0.27947 0.0
H359 H 0.04959 0.52895 0.27713 0.0
H360 H 0.07432 0.54616 0.30316 0.0
H361 H 0.06638 0.461 0.31267 0.0
H362 H 0.06694 0.45971 0.37646 0.0
H363 H 0.96668 0.55001 0.3135 0.0
H364 H 0.96609 0.54966 0.37729 0.0
C365 C 0.04708 0.53943 0.71174 0.0
C366 C 0.05587 0.54432 0.72985 0.0
C367 C 0.0437 0.53466 0.74412 0.0
C368 C 0.02835 0.52439 0.73397 0.0
N369 N 0.03012 0.52676 0.71402 0.0
Co370 Co 0.01147 0.51431 0.69359 0.0
N371 N 0.99262 0.50084 0.71469 0.0
C372 C 0.99427 0.50217 0.73458 0.0
C373 C 0.97878 0.49143 0.74528 0.0
C374 C 0.96658 0.48257 0.73144 0.0
C375 C 0.97551 0.48839 0.71301 0.0
N376 N 0.99296 0.5017 0.67318 0.0
C377 C 0.97614 0.4889 0.67547 0.0
C378 C 0.96841 0.48324 0.65731 0.0
C379 C 0.98076 0.49279 0.64305 0.0
C380 C 0.99534 0.50363 0.65323 0.0
N381 N 0.03017 0.52797 0.67253 0.0
C382 C 0.02806 0.52697 0.65266 0.0
C383 C 0.04262 0.53841 0.64196 0.0
C384 C 0.05465 0.5474 0.6558 0.0
C385 C 0.04677 0.54081 0.67423 0.0
N386 N 0.03469 0.49603 0.69315 0.0
C387 C 0.06742 0.46992 0.69287 0.0
C388 C 0.05988 0.47729 0.67516 0.0
C389 C 0.04368 0.49026 0.67564 0.0
C390 C 0.05823 0.4758 0.71067 0.0
C391 C 0.04205 0.4887 0.71047 0.0
N392 N 0.98826 0.53258 0.69406 0.0
C393 C 0.96318 0.55213 0.67703 0.0
C394 C 0.9555 0.55865 0.69503 0.0
C395 C 0.96456 0.55195 0.71249 0.0
C396 C 0.98075 0.53907 0.71167 0.0
C397 C 0.97941 0.53917 0.67689 0.0
H398 H 0.98704 0.53467 0.72551 0.0
H399 H 0.98453 0.53471 0.66272 0.0
H400 H 0.03868 0.4954 0.66166 0.0
H401 H 0.03567 0.49242 0.72456 0.0
C402 C 0.01128 0.51306 0.74278 0.0
C403 C 0.05491 0.54761 0.69289 0.0
C404 C 0.96757 0.48132 0.69442 0.0
C405 C 0.01175 0.5155 0.6445 0.0
H406 H 0.06945 0.55407 0.73249 0.0
H407 H 0.04551 0.53529 0.76002 0.0
H408 H 0.97684 0.49 0.76124 0.0
H409 H 0.95286 0.47277 0.73456 0.0
H410 H 0.95543 0.47308 0.65462 0.0
H411 H 0.97951 0.49177 0.62714 0.0
H412 H 0.04401 0.54022 0.62601 0.0
H413 H 0.06748 0.55782 0.65265 0.0
H414 H 0.06662 0.47323 0.66098 0.0
H415 H 0.06319 0.47026 0.72479 0.0
H416 H 0.95653 0.55684 0.6631 0.0
H417 H 0.9595 0.5568 0.7268 0.0
C418 C 0.24216 0.98493 0.54542 0.0
C419 C 0.26331 0.98045 0.55329 0.0
C420 C 0.28045 0.98915 0.54219 0.0
C421 C 0.26883 0.99852 0.52835 0.0
N422 N 0.24527 0.99651 0.53012 0.0
Co423 Co 0.22159 0.0079 0.51336 0.0
N424 N 0.24681 0.01941 0.49589 0.0
C425 C 0.27013 0.01747 0.4969 0.0
C426 C 0.28301 0.02694 0.48274 0.0
C427 C 0.26701 0.03567 0.47224 0.0
C428 C 0.24523 0.03108 0.48076 0.0
N429 N 0.19797 0.01968 0.49684 0.0
C430 C 0.20115 0.03189 0.48214 0.0
C431 C 0.17999 0.03766 0.47555 0.0
C432 C 0.16285 0.02885 0.48653 0.0
C433 C 0.17444 0.01835 0.49923 0.0
N434 N 0.19638 0.99602 0.5306 0.0
C435 C 0.17302 0.99718 0.52884 0.0
C436 C 0.16005 0.98668 0.54196 0.0
C437 C 0.17605 0.97807 0.55258 0.0
C438 C 0.19797 0.98394 0.54536 0.0
N439 N 0.22257 0.02796 0.53101 0.0
C440 C 0.22419 0.05715 0.55501 0.0
C441 C 0.20286 0.04893 0.55052 0.0
C442 C 0.20245 0.03447 0.53859 0.0
C443 C 0.24466 0.05036 0.54748 0.0
C444 C 0.24346 0.03593 0.53562 0.0
N445 N 0.22066 0.98783 0.49571 0.0
C446 C 0.19896 0.96672 0.47686 0.0
C447 C 0.21941 0.95838 0.47214 0.0
C448 C 0.2405 0.96521 0.47911 0.0
C449 C 0.24072 0.9798 0.49072 0.0
C450 C 0.19997 0.98129 0.4886 0.0
H451 H 0.25737 0.98424 0.49558 0.0
H452 H 0.18376 0.98691 0.4919 0.0
H453 H 0.18566 0.02888 0.53557 0.0
H454 H 0.25971 0.03154 0.5303 0.0
C455 C 0.27952 0.00801 0.51246 0.0
C456 C 0.21973 0.97702 0.55221 0.0
C457 C 0.22381 0.03903 0.4748 0.0
C458 C 0.16378 0.00772 0.51417 0.0
H459 H 0.26606 0.97142 0.56543 0.0
H460 H 0.29915 0.98829 0.5436 0.0
H461 H 0.30183 0.02789 0.48076 0.0
H462 H 0.27096 0.0448 0.46007 0.0
H463 H 0.17716 0.04752 0.46434 0.0
H464 H 0.14418 0.03031 0.48576 0.0
H465 H 0.1412 0.98512 0.54328 0.0
H466 H 0.17195 0.96828 0.564 0.0
H467 H 0.18649 0.05378 0.55587 0.0
H468 H 0.26166 0.05607 0.55081 0.0
H469 H 0.18216 0.96183 0.47188 0.0
H470 H 0.25688 0.95939 0.47554 0.0
C471 C 0.47607 0.79017 0.04443 0.0
C472 C 0.46873 0.80643 0.04908 0.0
C473 C 0.48247 0.81807 0.03806 0.0
C474 C 0.49719 0.8083 0.02721 0.0
N475 N 0.49359 0.7911 0.03052 0.0
Co476 Co 0.51033 0.77227 0.01714 0.0
N477 N 0.53209 0.78943 0.00249 0.0
C478 C 0.53309 0.80676 0.00439 0.0
C479 C 0.55032 0.81514 0.99289 0.0
C480 C 0.56084 0.80242 0.9829 0.0
C481 C 0.54917 0.78697 0.98875 0.0
N482 N 0.52641 0.75347 0.00305 0.0
C483 C 0.54298 0.75448 0.98828 0.0
C484 C 0.54761 0.73827 0.98125 0.0
C485 C 0.53361 0.72663 0.99197 0.0
C486 C 0.52107 0.73632 0.00473 0.0
N487 N 0.48931 0.75508 0.03257 0.0
C488 C 0.48977 0.73767 0.032 0.0
C489 C 0.47481 0.72917 0.04545 0.0
C490 C 0.46431 0.74189 0.05541 0.0
C491 C 0.47328 0.75752 0.04723 0.0
N492 N 0.48784 0.77318 0.99523 0.0
C493 C 0.45863 0.77361 0.96215 0.0
C494 C 0.46004 0.75876 0.9742 0.0
C495 C 0.47469 0.75879 0.9904 0.0
C496 C 0.47152 0.78843 0.96743 0.0
C497 C 0.48567 0.78799 0.98399 0.0
N498 N 0.53282 0.77133 0.03899 0.0
C499 C 0.55505 0.75474 0.06209 0.0
C500 C 0.56264 0.76971 0.07145 0.0
C501 C 0.55552 0.78556 0.06403 0.0
C502 C 0.54064 0.78607 0.04795 0.0
C503 C 0.54042 0.75584 0.04593 0.0
H504 H 0.53545 0.79851 0.04322 0.0
H505 H 0.53535 0.74396 0.03941 0.0
H506 H 0.47523 0.74693 0.99863 0.0
H507 H 0.49496 0.79974 0.98718 0.0
C508 C 0.51606 0.81488 0.01544 0.0
C509 C 0.46643 0.7743 0.05416 0.0
C510 C 0.55409 0.77049 0.98001 0.0
C511 C 0.50431 0.72968 0.01853 0.0
H512 H 0.45517 0.80958 0.05966 0.0
H513 H 0.48224 0.83201 0.03838 0.0
H514 H 0.55424 0.8289 0.99144 0.0
H515 H 0.57506 0.80433 0.9721 0.0
H516 H 0.55955 0.73511 0.96938 0.0
H517 H 0.53244 0.71277 0.99045 0.0
H518 H 0.4721 0.71538 0.0479 0.0
H519 H 0.45171 0.73978 0.06752 0.0
H520 H 0.44994 0.74704 0.97117 0.0
H521 H 0.47122 0.80028 0.9586 0.0
H522 H 0.56047 0.74219 0.06716 0.0
H523 H 0.56093 0.79749 0.0709 0.0
C524 C 0.82281 0.9866 0.55457 0.0
C525 C 0.84445 0.98141 0.5607 0.0
C526 C 0.8609 0.99142 0.55029 0.0
C527 C 0.84846 0.00206 0.53838 0.0
N528 N 0.82501 -0.0004 0.54071 0.0
Co529 Co 0.80038 0.01172 0.5257 0.0
N530 N 0.82463 0.02496 0.50874 0.0
C531 C 0.8481 0.02373 0.50934 0.0
C532 C 0.86024 0.03432 0.49576 0.0
C533 C 0.84357 0.04295 0.48597 0.0
C534 C 0.82213 0.03718 0.4943 0.0
N535 N 0.77572 0.02401 0.5109 0.0
C536 C 0.77789 0.03659 0.49654 0.0
C537 C 0.75624 0.04224 0.49099 0.0
C538 C 0.73982 0.03288 0.50216 0.0
C539 C 0.75227 0.02218 0.51396 0.0
N540 N 0.77611 0.99826 0.54242 0.0
C541 C 0.75262 -0.00065 0.54176 0.0
C542 C 0.74049 0.98821 0.55477 0.0
C543 C 0.75719 0.97923 0.56407 0.0
C544 C 0.77862 0.9854 0.55607 0.0
N545 N 0.80123 0.03043 0.54525 0.0
C546 C 0.80211 0.05782 0.57186 0.0
C547 C 0.78105 0.04951 0.5669 0.0
C548 C 0.78101 0.036 0.5537 0.0
C549 C 0.82278 0.05206 0.56347 0.0
C550 C 0.82195 0.03842 0.55038 0.0
N551 N 0.79951 0.99304 0.50622 0.0
C552 C 0.77749 0.97264 0.48677 0.0
C553 C 0.79799 0.96523 0.48025 0.0
C554 C 0.8193 0.9722 0.48665 0.0
C555 C 0.81967 0.98604 0.49946 0.0
C556 C 0.77864 0.9864 0.49963 0.0
H557 H 0.83644 0.99073 0.50383 0.0
H558 H 0.76238 0.99129 0.50427 0.0
H559 H 0.76434 0.03044 0.55043 0.0
H560 H 0.8383 0.03465 0.54451 0.0
C561 C 0.85825 0.01316 0.52349 0.0
C562 C 0.80073 0.97811 0.56135 0.0
C563 C 0.8 0.04405 0.48831 0.0
C564 C 0.74246 0.01058 0.52833 0.0
H565 H 0.84805 0.97111 0.57116 0.0
H566 H 0.87969 0.99055 0.55074 0.0
H567 H 0.879 0.0358 0.49348 0.0
H568 H 0.84684 0.05259 0.47422 0.0
H569 H 0.7526 0.05229 0.48023 0.0
H570 H 0.72105 0.03396 0.50197 0.0
H571 H 0.72173 0.98659 0.55695 0.0
H572 H 0.75396 0.96905 0.57523 0.0
H573 H 0.76452 0.05366 0.57282 0.0
H574 H 0.83957 0.05799 0.56705 0.0
H575 H 0.76053 0.96758 0.48237 0.0
H576 H 0.83568 0.96704 0.48175 0.0
C577 C 0.4803 0.25901 0.05095 0.0
C578 C 0.47209 0.27481 0.05644 0.0
C579 C 0.48465 0.28716 0.04545 0.0
C580 C 0.49966 0.27822 0.03387 0.0
N581 N 0.49725 0.26088 0.03662 0.0
Co582 Co 0.51547 0.24296 0.02293 0.0
N583 N 0.53574 0.26117 0.00844 0.0
C584 C 0.53514 0.27848 0.01033 0.0
C585 C 0.5513 0.28766 0.99849 0.0
C586 C 0.56277 0.27553 0.98828 0.0
C587 C 0.5528 0.25959 0.99445 0.0
N588 N 0.53332 0.22505 0.0088 0.0
C589 C 0.5502 0.22695 0.99437 0.0
C590 C 0.55713 0.21112 0.98777 0.0
C591 C 0.54405 0.19876 0.9983 0.0
C592 C 0.52988 0.20771 0.0106 0.0
N593 N 0.4956 0.22477 0.03787 0.0
C594 C 0.49696 0.20745 0.03673 0.0
C595 C 0.48193 0.19826 0.04958 0.0
C596 C 0.47053 0.21043 0.0598 0.0
C597 C 0.47924 0.22639 0.05248 0.0
N598 N 0.49299 0.24311 0.00098 0.0
C599 C 0.46227 0.2434 0.96894 0.0
C600 C 0.46736 0.22794 0.97869 0.0
C601 C 0.48263 0.22809 0.99453 0.0
C602 C 0.4727 0.2587 0.97563 0.0
C603 C 0.48777 0.25827 0.99153 0.0
N604 N 0.53795 0.24283 0.04485 0.0
C605 C 0.56186 0.22739 0.0678 0.0
C606 C 0.56863 0.24272 0.07691 0.0
C607 C 0.55989 0.2581 0.06955 0.0
C608 C 0.54482 0.25787 0.05364 0.0
C609 C 0.54662 0.22774 0.05195 0.0
H610 H 0.53878 0.27003 0.04887 0.0
H611 H 0.54201 0.21562 0.04576 0.0
H612 H 0.48586 0.21588 0.00123 0.0
H613 H 0.49516 0.27038 0.99575 0.0
C614 C 0.5178 0.28575 0.02192 0.0
C615 C 0.47232 0.24269 0.06053 0.0
C616 C 0.55939 0.24341 0.98589 0.0
C617 C 0.51298 0.20022 0.02381 0.0
H618 H 0.45882 0.27717 0.06762 0.0
H619 H 0.48359 0.30101 0.04634 0.0
H620 H 0.55391 0.30155 0.997 0.0
H621 H 0.57655 0.27812 0.97719 0.0
H622 H 0.57003 0.20875 0.97629 0.0
H623 H 0.54453 0.18491 0.99691 0.0
H624 H 0.47989 0.18438 0.05158 0.0
H625 H 0.45761 0.20783 0.07159 0.0
H626 H 0.45948 0.21574 0.97425 0.0
H627 H 0.46963 0.27101 0.96841 0.0
H628 H 0.56839 0.21515 0.07275 0.0
H629 H 0.56425 0.27031 0.07626 0.0
C630 C 0.18191 0.33125 0.31583 0.0
C631 C 0.20329 0.3302 0.32545 0.0
C632 C 0.16806 0.34541 0.31847 0.0
C633 C 0.15605 0.38029 0.35242 0.0
H634 H 0.12804 0.40108 0.30635 0.0
C635 C 0.1038 0.4427 0.35568 0.0
C636 C 0.08393 0.44334 0.34392 0.0
C637 C 0.11885 0.42904 0.35412 0.0
C638 C 0.13549 0.3953 0.31941 0.0
H639 H 0.22683 0.34305 0.34557 0.0
H640 H 0.20255 0.3679 0.35016 0.0
H641 H 0.15356 0.37709 0.3022 0.0
H642 H 0.06362 0.4298 0.32204 0.0
H643 H 0.08959 0.40592 0.3195 0.0
H644 H 0.13769 0.39839 0.36967 0.0
C645 C 0.19654 0.35772 0.34062 0.0
C646 C 0.15016 0.38158 0.31701 0.0
C647 C 0.21051 0.34359 0.33785 0.0
C648 C 0.07905 0.42982 0.33101 0.0
C649 C 0.09398 0.41617 0.32952 0.0
C650 C 0.14124 0.39399 0.35485 0.0
C651 C 0.17522 0.3588 0.33088 0.0
C652 C 0.16043 0.37383 0.33349 0.0
C653 C 0.11425 0.41573 0.34082 0.0
C654 C 0.13061 0.40155 0.33837 0.0
H655 H 0.176 0.32121 0.30604 0.0
H656 H 0.15161 0.3458 0.31093 0.0
H657 H 0.16358 0.37445 0.36541 0.0
H658 H 0.10806 0.45301 0.36566 0.0
H659 H 0.13441 0.42916 0.36292 0.0
C660 C 0.16443 0.68413 0.71515 0.0
C661 C 0.18763 0.68524 0.70779 0.0
C662 C 0.15048 0.66914 0.71302 0.0
C663 C 0.14537 0.62935 0.68407 0.0
H664 H 0.10295 0.61401 0.7273 0.0
C665 C 0.09371 0.56326 0.6867 0.0
C666 C 0.0702 0.56352 0.69295 0.0
C667 C 0.10831 0.5781 0.68781 0.0
C668 C 0.11456 0.61822 0.71503 0.0
H669 H 0.21429 0.67141 0.69226 0.0
H670 H 0.19014 0.645 0.68907 0.0
H671 H 0.12826 0.63971 0.73089 0.0
H672 H 0.04326 0.57916 0.70507 0.0
H673 H 0.06878 0.60517 0.70713 0.0
H674 H 0.13174 0.60762 0.66835 0.0
C675 C 0.18263 0.65587 0.69623 0.0
C676 C 0.12905 0.63297 0.71706 0.0
C677 C 0.19657 0.67093 0.69829 0.0
C678 C 0.06139 0.57878 0.70018 0.0
C679 C 0.076 0.59356 0.70144 0.0
C680 C 0.13096 0.6145 0.68209 0.0
C681 C 0.15941 0.65479 0.70359 0.0
C682 C 0.1445 0.6388 0.70155 0.0
C683 C 0.09965 0.59334 0.69541 0.0
C684 C 0.11529 0.60888 0.69751 0.0
H685 H 0.15705 0.69481 0.72278 0.0
H686 H 0.13259 0.66886 0.71863 0.0
H687 H 0.15685 0.63359 0.67173 0.0
H688 H 0.10079 0.55152 0.68124 0.0
H689 H 0.12651 0.57753 0.68322 0.0
C690 C 0.82475 0.66808 0.34131 0.0
C691 C 0.8326 0.68218 0.32902 0.0
C692 C 0.8386 0.65381 0.34386 0.0
C693 C 0.88576 0.63113 0.31953 0.0
H694 H 0.89605 0.61144 0.37188 0.0
C695 C 0.95501 0.58102 0.33175 0.0
C696 C 0.94954 0.56707 0.34498 0.0
C697 C 0.94051 0.59497 0.33057 0.0
C698 C 0.8931 0.61664 0.35714 0.0
H699 H 0.86095 0.69234 0.30961 0.0
H700 H 0.88511 0.66745 0.31405 0.0
H701 H 0.8707 0.63582 0.36822 0.0
H702 H 0.9248 0.55686 0.36758 0.0
H703 H 0.89911 0.58118 0.36532 0.0
H704 H 0.90781 0.61194 0.30833 0.0
C705 C 0.86826 0.66742 0.32171 0.0
C706 C 0.87863 0.63061 0.35506 0.0
C707 C 0.85453 0.68172 0.31931 0.0
C708 C 0.92949 0.56752 0.35734 0.0
C709 C 0.91483 0.58145 0.35605 0.0
C710 C 0.90006 0.61712 0.32158 0.0
C711 C 0.86043 0.65331 0.33398 0.0
C712 C 0.87502 0.63809 0.33625 0.0
C713 C 0.92005 0.59526 0.34248 0.0
C714 C 0.90414 0.60981 0.34042 0.0
H715 H 0.80798 0.66815 0.34908 0.0
H716 H 0.83209 0.64307 0.35331 0.0
H717 H 0.88295 0.63644 0.30481 0.0
H718 H 0.9706 0.58117 0.3223 0.0
H719 H 0.94539 0.60558 0.32031 0.0
C720 C 0.82394 0.35874 0.70941 0.0
C721 C 0.83341 0.34424 0.71865 0.0
C722 C 0.83782 0.37377 0.70545 0.0
C723 C 0.89912 0.38923 0.69832 0.0
H724 H 0.87628 0.43388 0.71174 0.0
C725 C 0.96026 0.4498 0.70143 0.0
C726 C 0.95185 0.46562 0.69496 0.0
C727 C 0.94533 0.43509 0.70288 0.0
C728 C 0.8828 0.42155 0.7076 0.0
H729 H 0.86475 0.33439 0.73145 0.0
H730 H 0.88896 0.36049 0.72428 0.0
H731 H 0.85086 0.40801 0.71698 0.0
H732 H 0.92165 0.47876 0.68481 0.0
H733 H 0.89543 0.45291 0.68691 0.0
H734 H 0.93101 0.40267 0.68892 0.0
C735 C 0.8709 0.36013 0.71986 0.0
C736 C 0.86824 0.40674 0.71065 0.0
C737 C 0.85701 0.34517 0.72394 0.0
C738 C 0.92839 0.46658 0.68977 0.0
C739 C 0.91344 0.45185 0.69113 0.0
C740 C 0.91361 0.40403 0.69516 0.0
C741 C 0.86148 0.37457 0.71054 0.0
C742 C 0.87637 0.39041 0.70628 0.0
C743 C 0.92171 0.43594 0.69782 0.0
C744 C 0.90575 0.42035 0.70001 0.0
H745 H 0.80591 0.35838 0.70491 0.0
H746 H 0.83016 0.38467 0.6981 0.0
H747 H 0.90571 0.37683 0.6945 0.0
H748 H 0.97832 0.4489 0.70561 0.0
H749 H 0.9522 0.42315 0.70841 0.0
C750 C 0.23895 0.16586 0.36175 0.0
C751 C 0.2538 0.17931 0.36824 0.0
C752 C 0.23523 0.15069 0.37326 0.0
C753 C 0.26051 0.12584 0.41477 0.0
H754 H 0.19945 0.10209 0.41684 0.0
C755 C 0.2359 0.07022 0.47074 0.0
C756 C 0.22549 0.05534 0.46278 0.0
C757 C 0.23881 0.08541 0.45922 0.0
C758 C 0.21661 0.10855 0.41628 0.0
H759 H 0.27601 0.18769 0.39196 0.0
H760 H 0.26906 0.16147 0.41237 0.0
H761 H 0.20554 0.12871 0.39691 0.0
H762 H 0.21003 0.0444 0.43676 0.0
H763 H 0.21462 0.07122 0.41659 0.0
H764 H 0.27134 0.10583 0.43454 0.0
C765 C 0.26078 0.16234 0.39814 0.0
C766 C 0.22016 0.12376 0.40481 0.0
C767 C 0.26471 0.1774 0.38652 0.0
C768 C 0.21781 0.05585 0.4432 0.0
C769 C 0.22044 0.07113 0.43174 0.0
C770 C 0.25686 0.11077 0.42642 0.0
C771 C 0.24607 0.14875 0.39162 0.0
C772 C 0.24218 0.13259 0.40388 0.0
C773 C 0.23118 0.08599 0.4396 0.0
C774 C 0.2349 0.10198 0.42726 0.0
H775 H 0.23052 0.16695 0.3476 0.0
H776 H 0.22414 0.14041 0.36757 0.0
H777 H 0.27781 0.13206 0.41411 0.0
H778 H 0.24198 0.07 0.48582 0.0
H779 H 0.24697 0.09672 0.46567 0.0
C780 C 0.34019 0.75345 0.81513 0.0
C781 C 0.33273 0.76855 0.80561 0.0
C782 C 0.35442 0.75444 0.83161 0.0
C783 C 0.36905 0.78133 0.87304 0.0
H784 H 0.42622 0.75641 0.87472 0.0
C785 C 0.4326 0.78818 0.93782 0.0
C786 C 0.44426 0.77346 0.94404 0.0
C787 C 0.41946 0.78803 0.92063 0.0
C788 C 0.41013 0.76324 0.87468 0.0
H789 H 0.33498 0.79659 0.80595 0.0
H790 H 0.35906 0.79819 0.8352 0.0
H791 H 0.40219 0.755 0.84544 0.0
H792 H 0.4513 0.74706 0.9367 0.0
H793 H 0.42743 0.74649 0.90758 0.0
H794 H 0.37635 0.78911 0.90246 0.0
C795 C 0.35382 0.78562 0.82976 0.0
C796 C 0.39647 0.76249 0.85784 0.0
C797 C 0.33991 0.78466 0.81308 0.0
C798 C 0.44228 0.75857 0.93265 0.0
C799 C 0.42889 0.75834 0.91565 0.0
C800 C 0.38249 0.78186 0.89003 0.0
C801 C 0.36121 0.77053 0.83914 0.0
C802 C 0.37583 0.77152 0.85688 0.0
C803 C 0.41738 0.77309 0.90933 0.0
C804 C 0.40321 0.77279 0.8911 0.0
H805 H 0.3347 0.74081 0.8101 0.0
H806 H 0.35973 0.74261 0.83874 0.0
H807 H 0.35306 0.78828 0.8727 0.0
H808 H 0.43344 0.79984 0.9463 0.0
H809 H 0.41113 0.79972 0.91613 0.0
C810 C 0.79213 0.83038 0.38875 0.0
C811 C 0.77638 0.83029 0.3731 0.0
C812 C 0.79531 0.84501 0.40017 0.0
C813 C 0.78703 0.89202 0.39921 0.0
H814 H 0.79232 0.88704 0.45624 0.0
C815 C 0.78151 0.94944 0.45144 0.0
C816 C 0.79704 0.95013 0.46723 0.0
C817 C 0.78 0.93494 0.43964 0.0
C818 C 0.79116 0.88863 0.44031 0.0
H819 H 0.75124 0.84532 0.35745 0.0
H820 H 0.75668 0.87081 0.37744 0.0
H821 H 0.78749 0.86137 0.43641 0.0
H822 H 0.82321 0.93619 0.48299 0.0
H823 H 0.82077 0.91094 0.4622 0.0
H824 H 0.79047 0.91929 0.40315 0.0
C825 C 0.76692 0.8597 0.38065 0.0
C826 C 0.7884 0.87393 0.42894 0.0
C827 C 0.76377 0.84509 0.36921 0.0
C828 C 0.81123 0.9361 0.47082 0.0
C829 C 0.80965 0.92157 0.45906 0.0
C830 C 0.78974 0.90672 0.41058 0.0
C831 C 0.78278 0.85986 0.39622 0.0
C832 C 0.78619 0.87546 0.40827 0.0
C833 C 0.79394 0.9208 0.4434 0.0
C834 C 0.79173 0.90518 0.43126 0.0
H835 H 0.80233 0.81925 0.39194 0.0
H836 H 0.80789 0.8448 0.41189 0.0
H837 H 0.7858 0.89364 0.38328 0.0
H838 H 0.77051 0.96012 0.4482 0.0
H839 H 0.76758 0.93468 0.42779 0.0
C840 C 0.69904 0.2516 0.84509 0.0
C841 C 0.6896 0.25642 0.82682 0.0
C842 C 0.68476 0.24966 0.86215 0.0
C843 C 0.62878 0.26291 0.88348 0.0
H844 H 0.63604 0.22447 0.92045 0.0
C845 C 0.56444 0.24854 0.94939 0.0
C846 C 0.5741 0.24386 0.96753 0.0
C847 C 0.57835 0.24958 0.93209 0.0
C848 C 0.63397 0.23537 0.91038 0.0
H849 H 0.6578 0.26305 0.81217 0.0
H850 H 0.63281 0.25945 0.84193 0.0
H851 H 0.66071 0.22724 0.89043 0.0
H852 H 0.60548 0.23662 0.98219 0.0
H853 H 0.6301 0.23856 0.95191 0.0
H854 H 0.60217 0.27113 0.90344 0.0
C855 C 0.65129 0.2573 0.84307 0.0
C856 C 0.64808 0.23696 0.89318 0.0
C857 C 0.66555 0.25919 0.82599 0.0
C858 C 0.59778 0.24014 0.96823 0.0
C859 C 0.61174 0.24118 0.95092 0.0
C860 C 0.6147 0.26135 0.90068 0.0
C861 C 0.66074 0.25254 0.86135 0.0
C862 C 0.64565 0.25075 0.87955 0.0
C863 C 0.6022 0.246 0.93266 0.0
C864 C 0.61712 0.24756 0.91433 0.0
H865 H 0.71745 0.24919 0.84617 0.0
H866 H 0.69261 0.24613 0.87605 0.0
H867 H 0.62673 0.27384 0.87343 0.0
H868 H 0.54614 0.25145 0.94867 0.0
H869 H 0.5704 0.25309 0.91824 0.0
C870 C 0.24885 0.84128 0.64187 0.0
C871 C 0.23902 0.83942 0.66117 0.0
C872 C 0.2451 0.85597 0.63015 0.0
C873 C 0.23167 0.90135 0.63318 0.0
H874 H 0.21371 0.897 0.57845 0.0
C875 C 0.2115 0.96091 0.5845 0.0
C876 C 0.21937 0.96098 0.56467 0.0
C877 C 0.21222 0.94589 0.59636 0.0
C878 C 0.219 0.89847 0.59363 0.0
H879 H 0.21717 0.85153 0.68306 0.0
H880 H 0.21124 0.87737 0.66273 0.0
H881 H 0.21864 0.8711 0.59896 0.0
H882 H 0.23437 0.94581 0.54157 0.0
H883 H 0.2364 0.91969 0.56234 0.0
H884 H 0.23277 0.92865 0.6278 0.0
C885 C 0.22188 0.86742 0.65678 0.0
C886 C 0.22174 0.88362 0.60537 0.0
C887 C 0.22539 0.85265 0.66843 0.0
C888 C 0.22802 0.94591 0.55683 0.0
C889 C 0.229 0.93096 0.5687 0.0
C890 C 0.2292 0.91621 0.62138 0.0
C891 C 0.23168 0.86921 0.63752 0.0
C892 C 0.22818 0.88493 0.62522 0.0
C893 C 0.22117 0.93076 0.58864 0.0
C894 C 0.22293 0.91496 0.60142 0.0
H895 H 0.25978 0.83153 0.63591 0.0
H896 H 0.25311 0.85713 0.61543 0.0
H897 H 0.2369 0.90271 0.6484 0.0
H898 H 0.20494 0.9725 0.59081 0.0
H899 H 0.20576 0.94616 0.61155 0.0
C900 C 0.66954 0.75065 0.22521 0.0
C901 C 0.69132 0.75972 0.22572 0.0
C902 C 0.65586 0.75163 0.20838 0.0
C903 C 0.64514 0.77918 0.16497 0.0
H904 H 0.61757 0.73744 0.14334 0.0
C905 C 0.59737 0.77984 0.09059 0.0
C906 C 0.57753 0.76872 0.08905 0.0
C907 C 0.61148 0.77873 0.10715 0.0
C908 C 0.62484 0.74926 0.14933 0.0
H909 H 0.71591 0.77668 0.20866 0.0
H910 H 0.69173 0.77869 0.17953 0.0
H911 H 0.64149 0.73551 0.17264 0.0
H912 H 0.55652 0.74806 0.10378 0.0
H913 H 0.58072 0.74637 0.13288 0.0
H914 H 0.62816 0.79301 0.14201 0.0
C915 C 0.68525 0.77091 0.19224 0.0
C916 C 0.6386 0.74812 0.16608 0.0
C917 C 0.69905 0.76979 0.20897 0.0
C918 C 0.57192 0.75661 0.10445 0.0
C919 C 0.58586 0.75562 0.1211 0.0
C920 C 0.63117 0.78034 0.14834 0.0
C921 C 0.66354 0.76184 0.19178 0.0
C922 C 0.64891 0.76306 0.17404 0.0
C923 C 0.60589 0.76661 0.12263 0.0
C924 C 0.62085 0.76539 0.1403 0.0
H925 H 0.66284 0.74301 0.23793 0.0
H926 H 0.63906 0.74466 0.2085 0.0
H927 H 0.65266 0.79092 0.17096 0.0
H928 H 0.60221 0.78918 0.07882 0.0
H929 H 0.62696 0.78721 0.10766 0.0
C930 C 0.76879 0.17577 0.68407 0.0
C931 C 0.78108 0.19149 0.67945 0.0
C932 C 0.77247 0.16124 0.67283 0.0
C933 C 0.79437 0.14821 0.62389 0.0
H934 H 0.79757 0.10325 0.65002 0.0
C935 C 0.81651 0.08753 0.58086 0.0
C936 C 0.80229 0.07264 0.58531 0.0
C937 C 0.81553 0.1019 0.59285 0.0
C938 C 0.79655 0.1157 0.6425 0.0
H939 H 0.80667 0.20434 0.65922 0.0
H940 H 0.81339 0.1789 0.6398 0.0
H941 H 0.79245 0.1287 0.66985 0.0
H942 H 0.77654 0.06091 0.6062 0.0
H943 H 0.7746 0.08605 0.62696 0.0
H944 H 0.7983 0.13519 0.59654 0.0
C945 C 0.80077 0.17784 0.65203 0.0
C946 C 0.79359 0.13027 0.65386 0.0
C947 C 0.7971 0.19237 0.66329 0.0
C948 C 0.78752 0.07227 0.60227 0.0
C949 C 0.78659 0.08661 0.61428 0.0
C950 C 0.79736 0.13364 0.61254 0.0
C951 C 0.78852 0.1621 0.65669 0.0
C952 C 0.7923 0.14668 0.64467 0.0
C953 C 0.80038 0.10166 0.60957 0.0
C954 C 0.79832 0.11721 0.62171 0.0
H955 H 0.75651 0.17462 0.69655 0.0
H956 H 0.76256 0.14935 0.67666 0.0
H957 H 0.79313 0.16063 0.61634 0.0
H958 H 0.82794 0.08826 0.56781 0.0
H959 H 0.82655 0.11325 0.58897 0.0
C960 C 0.37306 0.25675 0.22222 0.0
C961 C 0.34873 0.25357 0.22193 0.0
C962 C 0.38683 0.2551 0.20505 0.0
C963 C 0.38696 0.23466 0.15626 0.0
H964 H 0.43584 0.26944 0.14271 0.0
C965 C 0.43439 0.23887 0.07964 0.0
C966 C 0.45849 0.24284 0.07934 0.0
C967 C 0.42132 0.23965 0.09733 0.0
C968 C 0.42246 0.25949 0.14641 0.0
H969 H 0.31983 0.24588 0.20345 0.0
H970 H 0.3438 0.24327 0.17344 0.0
H971 H 0.41252 0.2718 0.17314 0.0
H972 H 0.48807 0.25066 0.09679 0.0
H973 H 0.46533 0.25186 0.12789 0.0
H974 H 0.39686 0.22238 0.1295 0.0
C975 C 0.35226 0.24693 0.18697 0.0
C976 C 0.4091 0.26086 0.16384 0.0
C977 C 0.33849 0.24863 0.20411 0.0
C978 C 0.46944 0.24754 0.09685 0.0
C979 C 0.4564 0.24832 0.11453 0.0
C980 C 0.40034 0.23329 0.13883 0.0
C981 C 0.37658 0.25016 0.18723 0.0
C982 C 0.39113 0.2485 0.16893 0.0
C983 C 0.43216 0.24446 0.11497 0.0
C984 C 0.41819 0.24573 0.13367 0.0
H985 H 0.38144 0.2607 0.23568 0.0
H986 H 0.40555 0.25753 0.20577 0.0
H987 H 0.37348 0.22479 0.15992 0.0
H988 H 0.4257 0.23536 0.06616 0.0
H989 H 0.40264 0.23683 0.0971 0.0
C990 C 0.8196 0.67279 0.72821 0.0
C991 C 0.82217 0.68734 0.71536 0.0
C992 C 0.83298 0.65842 0.72519 0.0
C993 C 0.86895 0.63717 0.68746 0.0
H994 H 0.89516 0.6149 0.73346 0.0
C995 C 0.94035 0.58666 0.68225 0.0
C996 C 0.93846 0.57252 0.69576 0.0
C997 C 0.92516 0.60023 0.68382 0.0
C998 C 0.88773 0.62084 0.72048 0.0
H999 H 0.84084 0.69826 0.68929 0.0
H1000 H 0.86433 0.67321 0.68409 0.0
H1001 H 0.87066 0.63944 0.73783 0.0
H1002 H 0.91845 0.56114 0.72089 0.0
H1003 H 0.89202 0.58478 0.72363 0.0
H1004 H 0.8863 0.6186 0.67012 0.0
C1005 C 0.85169 0.67279 0.69631 0.0
C1006 C 0.87368 0.6349 0.72298 0.0
C1007 C 0.83825 0.68715 0.69931 0.0
C1008 C 0.92066 0.57201 0.7105 0.0
C1009 C 0.90552 0.58555 0.71207 0.0
C1010 C 0.88307 0.6231 0.68495 0.0
C1011 C 0.8493 0.65829 0.70929 0.0
C1012 C 0.86409 0.64324 0.70652 0.0
C1013 C 0.9078 0.59992 0.69893 0.0
C1014 C 0.89259 0.61477 0.70145 0.0
H1015 H 0.80707 0.67243 0.74051 0.0
H1016 H 0.83042 0.64735 0.73525 0.0
H1017 H 0.86159 0.64317 0.67449 0.0
H1018 H 0.95403 0.58752 0.67085 0.0
H1019 H 0.9275 0.6112 0.67358 0.0
C1020 C 0.85376 0.33743 0.34734 0.0
C1021 C 0.83479 0.33728 0.33457 0.0
C1022 C 0.86717 0.35265 0.34995 0.0
C1023 C 0.88067 0.39578 0.32594 0.0
H1024 H 0.90967 0.40522 0.37607 0.0
C1025 C 0.93087 0.46009 0.34076 0.0
C1026 C 0.95354 0.45825 0.34769 0.0
C1027 C 0.91522 0.44579 0.34033 0.0
C1028 C 0.90168 0.40269 0.36199 0.0
H1029 H 0.81433 0.35292 0.31509 0.0
H1030 H 0.83709 0.37966 0.32017 0.0
H1031 H 0.88392 0.37953 0.37326 0.0
H1032 H 0.97754 0.44043 0.36027 0.0
H1033 H 0.94992 0.41537 0.35998 0.0
H1034 H 0.89817 0.41917 0.31487 0.0
C1035 C 0.84223 0.36796 0.32768 0.0
C1036 C 0.88704 0.38794 0.36031 0.0
C1037 C 0.82908 0.35268 0.32484 0.0
C1038 C 0.9601 0.44207 0.35486 0.0
C1039 C 0.94433 0.42781 0.35474 0.0
C1040 C 0.89501 0.41064 0.32773 0.0
C1041 C 0.86166 0.36811 0.34006 0.0
C1042 C 0.87649 0.38419 0.3422 0.0
C1043 C 0.92187 0.4295 0.34719 0.0
C1044 C 0.9058 0.41416 0.34571 0.0
H1045 H 0.85864 0.32565 0.35486 0.0
H1046 H 0.8822 0.35214 0.35933 0.0
H1047 H 0.87332 0.3932 0.31164 0.0
H1048 H 0.92548 0.47254 0.33533 0.0
H1049 H 0.89793 0.44744 0.3346 0.0
C1050 C 0.20126 0.35374 0.72326 0.0
C1051 C 0.19847 0.3395 0.71098 0.0
C1052 C 0.18834 0.36839 0.72019 0.0
C1053 C 0.15315 0.39109 0.68318 0.0
H1054 H 0.12684 0.41213 0.72967 0.0
C1055 C 0.08252 0.44241 0.67969 0.0
C1056 C 0.08444 0.45602 0.69297 0.0
C1057 C 0.09757 0.42871 0.68084 0.0
C1058 C 0.13431 0.40655 0.71654 0.0
H1059 H 0.18002 0.3295 0.68576 0.0
H1060 H 0.15732 0.35506 0.68048 0.0
H1061 H 0.15089 0.38725 0.73368 0.0
H1062 H 0.10442 0.46638 0.71716 0.0
H1063 H 0.13062 0.44253 0.71916 0.0
H1064 H 0.13625 0.41037 0.66605 0.0
C1065 C 0.16976 0.355 0.69231 0.0
C1066 C 0.14811 0.39229 0.71884 0.0
C1067 C 0.18275 0.34035 0.69534 0.0
C1068 C 0.10219 0.45592 0.70698 0.0
C1069 C 0.11719 0.44225 0.70813 0.0
C1070 C 0.13927 0.40538 0.68087 0.0
C1071 C 0.17226 0.36913 0.70481 0.0
C1072 C 0.15774 0.3844 0.7022 0.0
C1073 C 0.11483 0.42836 0.69529 0.0
C1074 C 0.12975 0.41328 0.69754 0.0
H1075 H 0.21354 0.3536 0.73521 0.0
H1076 H 0.19102 0.37918 0.72986 0.0
H1077 H 0.16053 0.38543 0.67007 0.0
H1078 H 0.06889 0.44205 0.66884 0.0
H1079 H 0.09517 0.41812 0.67085 0.0
C1080 C 0.20314 0.65817 0.311 0.0
C1081 C 0.19721 0.6733 0.3205 0.0
C1082 C 0.19011 0.64274 0.31479 0.0
C1083 C 0.14563 0.62176 0.3501 0.0
H1084 H 0.13472 0.59126 0.30637 0.0
C1085 C 0.07282 0.56761 0.35004 0.0
C1086 C 0.07933 0.55156 0.34317 0.0
C1087 C 0.08859 0.58187 0.34864 0.0
C1088 C 0.13783 0.59958 0.31876 0.0
H1089 H 0.17297 0.68428 0.34125 0.0
H1090 H 0.14966 0.65756 0.3474 0.0
H1091 H 0.15935 0.61744 0.30103 0.0
H1092 H 0.10731 0.53749 0.33005 0.0
H1093 H 0.13488 0.56262 0.32711 0.0
H1094 H 0.1232 0.60409 0.36754 0.0
C1095 C 0.16479 0.65737 0.33748 0.0
C1096 C 0.15203 0.61456 0.31575 0.0
C1097 C 0.17805 0.67273 0.3339 0.0
C1098 C 0.10196 0.54984 0.33527 0.0
C1099 C 0.11762 0.56415 0.33358 0.0
C1100 C 0.13114 0.6069 0.35301 0.0
C1101 C 0.17061 0.64216 0.32795 0.0
C1102 C 0.15607 0.6259 0.33136 0.0
C1103 C 0.11101 0.58032 0.34012 0.0
C1104 C 0.12707 0.59571 0.33735 0.0
H1105 H 0.21803 0.65825 0.30076 0.0
H1106 H 0.19544 0.63124 0.30748 0.0
H1107 H 0.14868 0.62997 0.36258 0.0
H1108 H 0.0554 0.56915 0.35618 0.0
H1109 H 0.08303 0.59422 0.35367 0.0
C1110 C 0.76589 0.83823 0.64825 0.0
C1111 C 0.7748 0.83744 0.66747 0.0
C1112 C 0.77008 0.85294 0.63606 0.0
C1113 C 0.80826 0.89289 0.63022 0.0
H1114 H 0.75807 0.90837 0.59752 0.0
C1115 C 0.80758 0.9608 0.5924 0.0
C1116 C 0.80044 0.96146 0.57268 0.0
C1117 C 0.80588 0.94522 0.60335 0.0
C1118 C 0.77233 0.9041 0.60642 0.0
H1119 H 0.79557 0.85145 0.68873 0.0
H1120 H 0.80202 0.87731 0.66785 0.0
H1121 H 0.75218 0.88207 0.6179 0.0
H1122 H 0.78605 0.9467 0.54877 0.0
H1123 H 0.7828 0.91938 0.56796 0.0
H1124 H 0.82811 0.91529 0.61904 0.0
C1125 C 0.79214 0.86645 0.66202 0.0
C1126 C 0.769 0.889 0.61806 0.0
C1127 C 0.78812 0.85169 0.67414 0.0
C1128 C 0.7917 0.94637 0.56398 0.0
C1129 C 0.78976 0.93084 0.57496 0.0
C1130 C 0.81149 0.9081 0.61871 0.0
C1131 C 0.78312 0.8673 0.64284 0.0
C1132 C 0.78691 0.8832 0.63014 0.0
C1133 C 0.79669 0.93014 0.59479 0.0
C1134 C 0.79355 0.91385 0.60672 0.0
H1135 H 0.75536 0.82758 0.64267 0.0
H1136 H 0.76313 0.85303 0.62128 0.0
H1137 H 0.82258 0.88867 0.63906 0.0
H1138 H 0.8141 0.9724 0.5994 0.0
H1139 H 0.81111 0.94507 0.61867 0.0
C1140 C 0.69757 0.26452 0.21707 0.0
C1141 C 0.6978 0.25087 0.2312 0.0
C1142 C 0.6837 0.26321 0.20041 0.0
C1143 C 0.65191 0.23132 0.16986 0.0
H1144 H 0.62113 0.27178 0.15048 0.0
C1145 C 0.58227 0.22956 0.10886 0.0
C1146 C 0.58437 0.24276 0.09412 0.0
C1147 C 0.5964 0.23005 0.12546 0.0
C1148 C 0.62978 0.26041 0.15563 0.0
H1149 H 0.68364 0.22505 0.23872 0.0
H1150 H 0.65882 0.22302 0.21002 0.0
H1151 H 0.64467 0.27365 0.17997 0.0
H1152 H 0.60366 0.26646 0.08496 0.0
H1153 H 0.62797 0.26744 0.11407 0.0
H1154 H 0.63657 0.21806 0.14558 0.0
C1155 C 0.6697 0.23464 0.21165 0.0
C1156 C 0.64333 0.26148 0.1725 0.0
C1157 C 0.6837 0.2359 0.22827 0.0
C1158 C 0.60121 0.25628 0.09622 0.0
C1159 C 0.61519 0.25683 0.11287 0.0
C1160 C 0.63817 0.23022 0.15305 0.0
C1161 C 0.66955 0.24827 0.19749 0.0
C1162 C 0.6547 0.24698 0.17976 0.0
C1163 C 0.61281 0.2438 0.12772 0.0
C1164 C 0.6271 0.2448 0.14571 0.0
H1165 H 0.70796 0.27633 0.21896 0.0
H1166 H 0.68428 0.27388 0.18969 0.0
H1167 H 0.66068 0.21996 0.17485 0.0
H1168 H 0.56928 0.21908 0.10787 0.0
H1169 H 0.59406 0.21991 0.13678 0.0
C1170 C 0.25995 0.18773 0.64978 0.0
C1171 C 0.24509 0.18961 0.66638 0.0
C1172 C 0.25699 0.17353 0.63768 0.0
C1173 C 0.214 0.139 0.62439 0.0
H1174 H 0.26912 0.1172 0.60432 0.0
C1175 C 0.21045 0.07384 0.5842 0.0
C1176 C 0.22525 0.07269 0.56739 0.0
C1177 C 0.21214 0.08825 0.59619 0.0
C1178 C 0.25356 0.12325 0.60965 0.0
H1179 H 0.21559 0.17802 0.6834 0.0
H1180 H 0.21054 0.1531 0.66237 0.0
H1181 H 0.27355 0.14196 0.62554 0.0
H1182 H 0.25278 0.0861 0.54958 0.0
H1183 H 0.25584 0.1111 0.57057 0.0
H1184 H 0.19405 0.1201 0.60857 0.0
C1185 C 0.22423 0.16277 0.6585 0.0
C1186 C 0.2561 0.13746 0.62179 0.0
C1187 C 0.22713 0.17702 0.67057 0.0
C1188 C 0.24146 0.0864 0.56265 0.0
C1189 C 0.24321 0.10074 0.57466 0.0
C1190 C 0.21147 0.12472 0.61229 0.0
C1191 C 0.23917 0.16083 0.64194 0.0
C1192 C 0.23636 0.14556 0.62923 0.0
C1193 C 0.22871 0.10176 0.59164 0.0
C1194 C 0.23124 0.11676 0.60471 0.0
H1195 H 0.27372 0.19736 0.64601 0.0
H1196 H 0.26854 0.1726 0.62483 0.0
H1197 H 0.19844 0.14507 0.62966 0.0
H1198 H 0.19794 0.06343 0.58838 0.0
H1199 H 0.20089 0.0886 0.60929 0.0
C1200 C 0.35477 0.77738 0.2115 0.0
C1201 C 0.33713 0.7643 0.21355 0.0
C1202 C 0.36857 0.7791 0.19412 0.0
C1203 C 0.38462 0.75519 0.14876 0.0
H1204 H 0.40829 0.80047 0.12995 0.0
C1205 C 0.42736 0.76847 0.07115 0.0
C1206 C 0.45046 0.77522 0.07174 0.0
C1207 C 0.41302 0.768 0.08821 0.0
C1208 C 0.40178 0.78778 0.13511 0.0
H1209 H 0.31952 0.74305 0.1991 0.0
H1210 H 0.34269 0.74648 0.16838 0.0
H1211 H 0.3839 0.79778 0.16016 0.0
H1212 H 0.4764 0.7876 0.09002 0.0
H1213 H 0.45088 0.78738 0.11983 0.0
H1214 H 0.4019 0.74539 0.12317 0.0
C1215 C 0.34668 0.75504 0.18036 0.0
C1216 C 0.38796 0.78616 0.15249 0.0
C1217 C 0.33326 0.7531 0.1979 0.0
C1218 C 0.45863 0.7823 0.08932 0.0
C1219 C 0.44411 0.78218 0.10628 0.0
C1220 C 0.39799 0.75687 0.13119 0.0
C1221 C 0.36466 0.76799 0.17825 0.0
C1222 C 0.37925 0.76982 0.15962 0.0
C1223 C 0.42136 0.77471 0.10594 0.0
C1224 C 0.40674 0.77315 0.12428 0.0
H1225 H 0.35811 0.7861 0.22349 0.0
H1226 H 0.38248 0.78901 0.1933 0.0
H1227 H 0.3788 0.74235 0.15393 0.0
H1228 H 0.42069 0.76313 0.05763 0.0
H1229 H 0.39545 0.76229 0.08762 0.0
C1230 C 0.76744 0.17599 0.39261 0.0
C1231 C 0.78486 0.18161 0.37854 0.0
C1232 C 0.76987 0.16093 0.40404 0.0
C1233 C 0.81328 0.13197 0.42332 0.0
H1234 H 0.76072 0.09879 0.42911 0.0
C1235 C 0.80838 0.07554 0.48133 0.0
C1236 C 0.80004 0.05946 0.47481 0.0
C1237 C 0.80766 0.09022 0.46895 0.0
C1238 C 0.77559 0.10788 0.42751 0.0
H1239 H 0.8185 0.17566 0.3655 0.0
H1240 H 0.82289 0.14956 0.38583 0.0
H1241 H 0.75711 0.12503 0.40877 0.0
H1242 H 0.785 0.04579 0.45035 0.0
H1243 H 0.7834 0.07158 0.42864 0.0
H1244 H 0.83169 0.11484 0.4422 0.0
C1245 C 0.80742 0.1569 0.38798 0.0
C1246 C 0.77345 0.12296 0.41604 0.0
C1247 C 0.80491 0.17189 0.3764 0.0
C1248 C 0.79135 0.05816 0.45564 0.0
C1249 C 0.79038 0.07287 0.44332 0.0
C1250 C 0.81533 0.11696 0.43499 0.0
C1251 C 0.78985 0.15122 0.40182 0.0
C1252 C 0.79226 0.13516 0.41385 0.0
C1253 C 0.7984 0.08906 0.44991 0.0
C1254 C 0.7965 0.10479 0.4372 0.0
H1255 H 0.752 0.18332 0.39494 0.0
H1256 H 0.75621 0.15697 0.41482 0.0
H1257 H 0.828 0.14121 0.42198 0.0
H1258 H 0.81515 0.07674 0.49611 0.0
H1259 H 0.81378 0.10256 0.47446 0.0
C1260 C 0.3473 0.24009 0.81728 0.0
C1261 C 0.33415 0.25481 0.81441 0.0
C1262 C 0.3609 0.23825 0.83407 0.0
C1263 C 0.36652 0.25299 0.8851 0.0
H1264 H 0.42996 0.23785 0.87999 0.0
C1265 C 0.43084 0.25695 0.9493 0.0
C1266 C 0.44648 0.24363 0.95177 0.0
C1267 C 0.41667 0.25761 0.93278 0.0
C1268 C 0.41216 0.24184 0.88173 0.0
H1269 H 0.32546 0.27932 0.82679 0.0
H1270 H 0.34893 0.27598 0.85618 0.0
H1271 H 0.40627 0.24036 0.85059 0.0
H1272 H 0.45932 0.22046 0.9388 0.0
H1273 H 0.43409 0.22132 0.91026 0.0
H1274 H 0.37225 0.25437 0.91621 0.0
C1275 C 0.34848 0.26578 0.84553 0.0
C1276 C 0.39862 0.24332 0.86487 0.0
C1277 C 0.33501 0.26767 0.8287 0.0
C1278 C 0.44732 0.23081 0.93747 0.0
C1279 C 0.43307 0.23143 0.92096 0.0
C1280 C 0.37999 0.25141 0.90197 0.0
C1281 C 0.36153 0.25104 0.84841 0.0
C1282 C 0.37572 0.24903 0.86636 0.0
C1283 C 0.41768 0.24491 0.91834 0.0
C1284 C 0.40304 0.24594 0.90049 0.0
H1285 H 0.34677 0.2298 0.80675 0.0
H1286 H 0.37058 0.22666 0.83601 0.0
H1287 H 0.34879 0.25716 0.88674 0.0
H1288 H 0.4295 0.26692 0.96016 0.0
H1289 H 0.40523 0.26828 0.93115 0.0
C1290 C 0.25079 0.8278 0.3806 0.0
C1291 C 0.23938 0.82598 0.36252 0.0
C1292 C 0.24647 0.84173 0.39264 0.0
C1293 C 0.22519 0.88582 0.39104 0.0
H1294 H 0.22018 0.87905 0.44816 0.0
C1295 C 0.20508 0.94146 0.44327 0.0
C1296 C 0.21891 0.94263 0.46014 0.0
C1297 C 0.20547 0.92686 0.43157 0.0
C1298 C 0.22169 0.88116 0.43224 0.0
H1299 H 0.21416 0.83721 0.34309 0.0
H1300 H 0.2067 0.8616 0.3641 0.0
H1301 H 0.22497 0.85424 0.42723 0.0
H1302 H 0.24335 0.92916 0.47836 0.0
H1303 H 0.24434 0.90387 0.45783 0.0
H1304 H 0.22223 0.91277 0.39607 0.0
C1305 C 0.2192 0.85234 0.36882 0.0
C1306 C 0.22445 0.86696 0.42025 0.0
C1307 C 0.2235 0.83839 0.35679 0.0
C1308 C 0.23274 0.92874 0.4653 0.0
C1309 C 0.23308 0.91416 0.45366 0.0
C1310 C 0.22244 0.90003 0.40303 0.0
C1311 C 0.23066 0.85418 0.38687 0.0
C1312 C 0.2265 0.86915 0.39953 0.0
C1313 C 0.2196 0.91309 0.43658 0.0
C1314 C 0.22093 0.89788 0.42378 0.0
H1315 H 0.26339 0.81861 0.3853 0.0
H1316 H 0.25589 0.84293 0.40629 0.0
H1317 H 0.22699 0.88797 0.37513 0.0
H1318 H 0.19435 0.95199 0.43885 0.0
H1319 H 0.19472 0.92634 0.4186 0.0
C1320 C 0.68251 0.75289 0.83447 0.0
C1321 C 0.67926 0.7646 0.81867 0.0
C1322 C 0.66917 0.75368 0.85201 0.0
C1323 C 0.63069 0.78284 0.87968 0.0
H1324 H 0.61332 0.74076 0.90985 0.0
C1325 C 0.56178 0.7782 0.94415 0.0
C1326 C 0.56903 0.77022 0.96173 0.0
C1327 C 0.57562 0.77789 0.92685 0.0
C1328 C 0.6182 0.7526 0.9016 0.0
H1329 H 0.65926 0.786 0.80847 0.0
H1330 H 0.63519 0.78695 0.8387 0.0
H1331 H 0.63593 0.73919 0.87892 0.0
H1332 H 0.5964 0.75601 0.97533 0.0
H1333 H 0.62039 0.75493 0.94476 0.0
H1334 H 0.61206 0.79609 0.90217 0.0
C1335 C 0.64856 0.77753 0.83795 0.0
C1336 C 0.63126 0.75175 0.88392 0.0
C1337 C 0.66221 0.77693 0.82056 0.0
C1338 C 0.59041 0.76205 0.96183 0.0
C1339 C 0.60405 0.76144 0.94443 0.0
C1340 C 0.61726 0.78363 0.89717 0.0
C1341 C 0.65197 0.766 0.854 0.0
C1342 C 0.63778 0.76687 0.87274 0.0
C1343 C 0.59675 0.76936 0.9268 0.0
C1344 C 0.611 0.76853 0.90831 0.0
H1345 H 0.69577 0.74339 0.83342 0.0
H1346 H 0.67269 0.7448 0.86412 0.0
H1347 H 0.63574 0.7948 0.87176 0.0
H1348 H 0.54534 0.78459 0.94382 0.0
H1349 H 0.56961 0.78401 0.9134 0.0
loop_
_geom_bond_atom_site_label_1
_geom_bond_atom_site_label_2
_geom_bond_distance
_geom_bond_site_symmetry_2
_ccdc_geom_bond_type
C0 C1 1.386 . S
C0 C2 1.397 . S
C0 H24 0.931 . S
C1 C0 1.386 . S
C1 C5 1.397 . S
C2 C0 1.397 . S
C2 C3 1.384 . S
C2 H25 0.930 . S
C3 C2 1.384 . S
C3 C4 1.377 . S
C3 C6 1.481 . S
C4 C3 1.377 . S
C4 C5 1.389 . S
C4 H26 0.929 . S
C5 C1 1.397 . S
C5 C4 1.389 . S
C5 H27 0.931 . S
C6 C3 1.481 . S
C6 C7 1.387 . S
C6 C11 1.390 . S
C7 C6 1.387 . S
C7 C8 1.401 . S
C7 H28 0.930 . S
C8 C7 1.401 . S
C8 C9 1.376 . S
C8 C17 1.511 . S
C9 C8 1.376 . S
C9 C10 1.392 . S
C9 H30 0.931 . S
C10 C9 1.392 . S
C10 C11 1.361 . S
C10 C12 1.500 . S
C11 C6 1.390 . S
C11 C10 1.361 . S
C11 H29 0.931 . S
C12 C10 1.500 . S
C12 C13 1.371 . S
C12 C14 1.365 . S
C13 C12 1.371 . S
C13 C23 1.386 . S
C13 H31 0.931 . S
C14 C12 1.365 . S
C14 C15 1.409 . S
C14 H32 0.929 . S
C15 C14 1.409 . S
C15 C16 1.380 . S
C15 H33 0.930 . S
C16 C15 1.380 . S
C16 C23 1.357 . S
C17 C8 1.511 . S
C17 C18 1.341 . S
C17 C19 1.371 . S
C18 C17 1.341 . S
C18 C22 1.394 . S
C18 H34 0.930 . S
C19 C17 1.371 . S
C19 C20 1.392 . S
C19 H35 0.931 . S
C20 C19 1.392 . S
C20 C21 1.331 . S
C20 H38 0.932 . S
C21 C20 1.331 . S
C21 C22 1.336 . S
C22 C18 1.394 . S
C22 C21 1.336 . S
C22 H37 0.929 . S
C23 C13 1.386 . S
C23 C16 1.357 . S
C23 H36 0.928 . S
H24 C0 0.931 . S
H25 C2 0.930 . S
H26 C4 0.929 . S
H27 C5 0.931 . S
H28 C7 0.930 . S
H29 C11 0.931 . S
H30 C9 0.931 . S
H31 C13 0.931 . S
H32 C14 0.929 . S
H33 C15 0.930 . S
H34 C18 0.930 . S
H35 C19 0.931 . S
H36 C23 0.928 . S
H37 C22 0.929 . S
H38 C20 0.932 . S
C39 C40 1.386 . S
C39 C41 1.397 . S
C39 H63 0.931 . S
C40 C39 1.386 . S
C40 C44 1.397 . S
C41 C39 1.397 . S
C41 C42 1.384 . S
C41 H64 0.930 . S
C42 C41 1.384 . S
C42 C43 1.377 . S
C42 C45 1.481 . S
C43 C42 1.377 . S
C43 C44 1.389 . S
C43 H65 0.929 . S
C44 C40 1.397 . S
C44 C43 1.389 . S
C44 H66 0.931 . S
C45 C42 1.481 . S
C45 C46 1.387 . S
C45 C50 1.390 . S
C46 C45 1.387 . S
C46 C47 1.401 . S
C46 H67 0.930 . S
C47 C46 1.401 . S
C47 C48 1.376 . S
C47 C56 1.511 . S
C48 C47 1.376 . S
C48 C49 1.392 . S
C48 H69 0.931 . S
C49 C48 1.392 . S
C49 C50 1.361 . S
C49 C51 1.500 . S
C50 C45 1.390 . S
C50 C49 1.361 . S
C50 H68 0.931 . S
C51 C49 1.500 . S
C51 C52 1.371 . S
C51 C53 1.365 . S
C52 C51 1.371 . S
C52 C62 1.386 . S
C52 H70 0.931 . S
C53 C51 1.365 . S
C53 C54 1.409 . S
C53 H71 0.929 . S
C54 C53 1.409 . S
C54 C55 1.380 . S
C54 H72 0.930 . S
C55 C54 1.380 . S
C55 C62 1.357 . S
C56 C47 1.511 . S
C56 C57 1.341 . S
C56 C58 1.371 . S
C57 C56 1.341 . S
C57 C61 1.394 . S
C57 H73 0.930 . S
C58 C56 1.371 . S
C58 C59 1.392 . S
C58 H74 0.931 . S
C59 C58 1.392 . S
C59 C60 1.331 . S
C59 H77 0.932 . S
C60 C59 1.331 . S
C60 C61 1.336 . S
C61 C57 1.394 . S
C61 C60 1.336 . S
C61 H76 0.929 . S
C62 C52 1.386 . S
C62 C55 1.357 . S
C62 H75 0.928 . S
H63 C39 0.931 . S
H64 C41 0.930 . S
H65 C43 0.929 . S
H66 C44 0.931 . S
H67 C46 0.930 . S
H68 C50 0.931 . S
H69 C48 0.931 . S
H70 C52 0.931 . S
H71 C53 0.929 . S
H72 C54 0.930 . S
H73 C57 0.930 . S
H74 C58 0.931 . S
H75 C62 0.928 . S
H76 C61 0.929 . S
H77 C59 0.932 . S
C78 C79 1.386 . S
C78 C80 1.397 . S
C78 H102 0.931 . S
C79 C78 1.386 . S
C79 C83 1.397 . S
C80 C78 1.397 . S
C80 C81 1.384 . S
C80 H103 0.930 . S
C81 C80 1.384 . S
C81 C82 1.377 . S
C81 C84 1.481 . S
C82 C81 1.377 . S
C82 C83 1.389 . S
C82 H104 0.929 . S
C83 C79 1.397 . S
C83 C82 1.389 . S
C83 H105 0.931 . S
C84 C81 1.481 . S
C84 C85 1.387 . S
C84 C89 1.390 . S
C85 C84 1.387 . S
C85 C86 1.401 . S
C85 H106 0.930 . S
C86 C85 1.401 . S
C86 C87 1.376 . S
C86 C95 1.511 . S
C87 C86 1.376 . S
C87 C88 1.392 . S
C87 H108 0.931 . S
C88 C87 1.392 . S
C88 C89 1.361 . S
C88 C90 1.500 . S
C89 C84 1.390 . S
C89 C88 1.361 . S
C89 H107 0.931 . S
C90 C88 1.500 . S
C90 C91 1.371 . S
C90 C92 1.365 . S
C91 C90 1.371 . S
C91 C101 1.386 . S
C91 H109 0.931 . S
C92 C90 1.365 . S
C92 C93 1.409 . S
C92 H110 0.929 . S
C93 C92 1.409 . S
C93 C94 1.380 . S
C93 H111 0.930 . S
C94 C93 1.380 . S
C94 C101 1.357 . S
C95 C86 1.511 . S
C95 C96 1.341 . S
C95 C97 1.371 . S
C96 C95 1.341 . S
C96 C100 1.394 . S
C96 H112 0.930 . S
C97 C95 1.371 . S
C97 C98 1.392 . S
C97 H113 0.931 . S
C98 C97 1.392 . S
C98 C99 1.331 . S
C98 H116 0.932 . S
C99 C98 1.331 . S
C99 C100 1.336 . S
C100 C96 1.394 . S
C100 C99 1.336 . S
C100 H115 0.929 . S
C101 C91 1.386 . S
C101 C94 1.357 . S
C101 H114 0.928 . S
H102 C78 0.931 . S
H103 C80 0.930 . S
H104 C82 0.929 . S
H105 C83 0.931 . S
H106 C85 0.930 . S
H107 C89 0.931 . S
H108 C87 0.931 . S
H109 C91 0.931 . S
H110 C92 0.929 . S
H111 C93 0.930 . S
H112 C96 0.930 . S
H113 C97 0.931 . S
H114 C101 0.928 . S
H115 C100 0.929 . S
H116 C98 0.932 . S
C117 C118 1.386 . S
C117 C119 1.397 . S
C117 H141 0.931 . S
C118 C117 1.386 . S
C118 C122 1.397 . S
C119 C117 1.397 . S
C119 C120 1.384 . S
C119 H142 0.930 . S
C120 C119 1.384 . S
C120 C121 1.377 . S
C120 C123 1.481 . S
C121 C120 1.377 . S
C121 C122 1.389 . S
C121 H143 0.929 . S
C122 C118 1.397 . S
C122 C121 1.389 . S
C122 H144 0.931 . S
C123 C120 1.481 . S
C123 C124 1.387 . S
C123 C128 1.390 . S
C124 C123 1.387 . S
C124 C125 1.401 . S
C124 H145 0.930 . S
C125 C124 1.401 . S
C125 C126 1.376 . S
C125 C134 1.511 . S
C126 C125 1.376 . S
C126 C127 1.392 . S
C126 H147 0.931 . S
C127 C126 1.392 . S
C127 C128 1.361 . S
C127 C129 1.500 . S
C128 C123 1.390 . S
C128 C127 1.361 . S
C128 H146 0.931 . S
C129 C127 1.500 . S
C129 C130 1.371 . S
C129 C131 1.365 . S
C130 C129 1.371 . S
C130 C140 1.386 . S
C130 H148 0.931 . S
C131 C129 1.365 . S
C131 C132 1.409 . S
C131 H149 0.929 . S
C132 C131 1.409 . S
C132 C133 1.380 . S
C132 H150 0.930 . S
C133 C132 1.380 . S
C133 C140 1.357 . S
C134 C125 1.511 . S
C134 C135 1.341 . S
C134 C136 1.371 . S
C135 C134 1.341 . S
C135 C139 1.394 . S
C135 H151 0.930 . S
C136 C134 1.371 . S
C136 C137 1.392 . S
C136 H152 0.931 . S
C137 C136 1.392 . S
C137 C138 1.331 . S
C137 H155 0.932 . S
C138 C137 1.331 . S
C138 C139 1.336 . S
C139 C135 1.394 . S
C139 C138 1.336 . S
C139 H154 0.929 . S
C140 C130 1.386 . S
C140 C133 1.357 . S
C140 H153 0.928 . S
H141 C117 0.931 . S
H142 C119 0.930 . S
H143 C121 0.929 . S
H144 C122 0.931 . S
H145 C124 0.930 . S
H146 C128 0.931 . S
H147 C126 0.931 . S
H148 C130 0.931 . S
H149 C131 0.929 . S
H150 C132 0.930 . S
H151 C135 0.930 . S
H152 C136 0.931 . S
H153 C140 0.928 . S
H154 C139 0.929 . S
H155 C137 0.932 . S
C156 C157 1.386 . S
C156 C158 1.397 . S
C156 H180 0.931 . S
C157 C156 1.386 . S
C157 C161 1.397 . S
C158 C156 1.397 . S
C158 C159 1.384 . S
C158 H181 0.930 . S
C159 C158 1.384 . S
C159 C160 1.377 . S
C159 C162 1.481 . S
C160 C159 1.377 . S
C160 C161 1.389 . S
C160 H182 0.929 . S
C161 C157 1.397 . S
C161 C160 1.389 . S
C161 H183 0.931 . S
C162 C159 1.481 . S
C162 C163 1.387 . S
C162 C167 1.390 . S
C163 C162 1.387 . S
C163 C164 1.401 . S
C163 H184 0.930 . S
C164 C163 1.401 . S
C164 C165 1.376 . S
C164 C173 1.511 . S
C165 C164 1.376 . S
C165 C166 1.392 . S
C165 H186 0.931 . S
C166 C165 1.392 . S
C166 C167 1.361 . S
C166 C168 1.500 . S
C167 C162 1.390 . S
C167 C166 1.361 . S
C167 H185 0.931 . S
C168 C166 1.500 . S
C168 C169 1.371 . S
C168 C170 1.365 . S
C169 C168 1.371 . S
C169 C179 1.386 . S
C169 H187 0.931 . S
C170 C168 1.365 . S
C170 C171 1.409 . S
C170 H188 0.929 . S
C171 C170 1.409 . S
C171 C172 1.380 . S
C171 H189 0.930 . S
C172 C171 1.380 . S
C172 C179 1.357 . S
C173 C164 1.511 . S
C173 C174 1.341 . S
C173 C175 1.371 . S
C174 C173 1.341 . S
C174 C178 1.394 . S
C174 H190 0.930 . S
C175 C173 1.371 . S
C175 C176 1.392 . S
C175 H191 0.931 . S
C176 C175 1.392 . S
C176 C177 1.331 . S
C176 H194 0.932 . S
C177 C176 1.331 . S
C177 C178 1.336 . S
C178 C174 1.394 . S
C178 C177 1.336 . S
C178 H193 0.929 . S
C179 C169 1.386 . S
C179 C172 1.357 . S
C179 H192 0.928 . S
H180 C156 0.931 . S
H181 C158 0.930 . S
H182 C160 0.929 . S
H183 C161 0.931 . S
H184 C163 0.930 . S
H185 C167 0.931 . S
H186 C165 0.931 . S
H187 C169 0.931 . S
H188 C170 0.929 . S
H189 C171 0.930 . S
H190 C174 0.930 . S
H191 C175 0.931 . S
H192 C179 0.928 . S
H193 C178 0.929 . S
H194 C176 0.932 . S
C195 C196 1.386 . S
C195 C197 1.397 . S
C195 H219 0.931 . S
C196 C195 1.386 . S
C196 C200 1.397 . S
C197 C195 1.397 . S
C197 C198 1.384 . S
C197 H220 0.930 . S
C198 C197 1.384 . S
C198 C199 1.377 . S
C198 C201 1.481 . S
C199 C198 1.377 . S
C199 C200 1.389 . S
C199 H221 0.929 . S
C200 C196 1.397 . S
C200 C199 1.389 . S
C200 H222 0.931 . S
C201 C198 1.481 . S
C201 C202 1.387 . S
C201 C206 1.390 . S
C202 C201 1.387 . S
C202 C203 1.401 . S
C202 H223 0.930 . S
C203 C202 1.401 . S
C203 C204 1.376 . S
C203 C212 1.511 . S
C204 C203 1.376 . S
C204 C205 1.392 . S
C204 H225 0.931 . S
C205 C204 1.392 . S
C205 C206 1.361 . S
C205 C207 1.500 . S
C206 C201 1.390 . S
C206 C205 1.361 . S
C206 H224 0.931 . S
C207 C205 1.500 . S
C207 C208 1.371 . S
C207 C209 1.365 . S
C208 C207 1.371 . S
C208 C218 1.386 . S
C208 H226 0.931 . S
C209 C207 1.365 . S
C209 C210 1.409 . S
C209 H227 0.929 . S
C210 C209 1.409 . S
C210 C211 1.380 . S
C210 H228 0.930 . S
C211 C210 1.380 . S
C211 C218 1.357 . S
C212 C203 1.511 . S
C212 C213 1.341 . S
C212 C214 1.371 . S
C213 C212 1.341 . S
C213 C217 1.394 . S
C213 H229 0.930 . S
C214 C212 1.371 . S
C214 C215 1.392 . S
C214 H230 0.931 . S
C215 C214 1.392 . S
C215 C216 1.331 . S
C215 H233 0.932 . S
C216 C215 1.331 . S
C216 C217 1.336 . S
C217 C213 1.394 . S
C217 C216 1.336 . S
C217 H232 0.929 . S
C218 C208 1.386 . S
C218 C211 1.357 . S
C218 H231 0.928 . S
H219 C195 0.931 . S
H220 C197 0.930 . S
H221 C199 0.929 . S
H222 C200 0.931 . S
H223 C202 0.930 . S
H224 C206 0.931 . S
H225 C204 0.931 . S
H226 C208 0.931 . S
H227 C209 0.929 . S
H228 C210 0.930 . S
H229 C213 0.930 . S
H230 C214 0.931 . S
H231 C218 0.928 . S
H232 C217 0.929 . S
H233 C215 0.932 . S
C234 C235 1.386 . S
C234 C236 1.397 . S
C234 H258 0.931 . S
C235 C234 1.386 . S
C235 C239 1.397 . S
C236 C234 1.397 . S
C236 C237 1.384 . S
C236 H259 0.930 . S
C237 C236 1.384 . S
C237 C238 1.377 . S
C237 C240 1.481 . S
C238 C237 1.377 . S
C238 C239 1.389 . S
C238 H260 0.929 . S
C239 C235 1.397 . S
C239 C238 1.389 . S
C239 H261 0.931 . S
C240 C237 1.481 . S
C240 C241 1.387 . S
C240 C245 1.390 . S
C241 C240 1.387 . S
C241 C242 1.401 . S
C241 H262 0.930 . S
C242 C241 1.401 . S
C242 C243 1.376 . S
C242 C251 1.511 . S
C243 C242 1.376 . S
C243 C244 1.392 . S
C243 H264 0.931 . S
C244 C243 1.392 . S
C244 C245 1.361 . S
C244 C246 1.500 . S
C245 C240 1.390 . S
C245 C244 1.361 . S
C245 H263 0.931 . S
C246 C244 1.500 . S
C246 C247 1.371 . S
C246 C248 1.365 . S
C247 C246 1.371 . S
C247 C257 1.386 . S
C247 H265 0.931 . S
C248 C246 1.365 . S
C248 C249 1.409 . S
C248 H266 0.929 . S
C249 C248 1.409 . S
C249 C250 1.380 . S
C249 H267 0.930 . S
C250 C249 1.380 . S
C250 C257 1.357 . S
C251 C242 1.511 . S
C251 C252 1.341 . S
C251 C253 1.371 . S
C252 C251 1.341 . S
C252 C256 1.394 . S
C252 H268 0.930 . S
C253 C251 1.371 . S
C253 C254 1.392 . S
C253 H269 0.931 . S
C254 C253 1.392 . S
C254 C255 1.331 . S
C254 H272 0.932 . S
C255 C254 1.331 . S
C255 C256 1.336 . S
C256 C252 1.394 . S
C256 C255 1.336 . S
C256 H271 0.929 . S
C257 C247 1.386 . S
C257 C250 1.357 . S
C257 H270 0.928 . S
H258 C234 0.931 . S
H259 C236 0.930 . S
H260 C238 0.929 . S
H261 C239 0.931 . S
H262 C241 0.930 . S
H263 C245 0.931 . S
H264 C243 0.931 . S
H265 C247 0.931 . S
H266 C248 0.929 . S
H267 C249 0.930 . S
H268 C252 0.930 . S
H269 C253 0.931 . S
H270 C257 0.928 . S
H271 C256 0.929 . S
H272 C254 0.932 . S
C273 C274 1.386 . S
C273 C275 1.397 . S
C273 H297 0.931 . S
C274 C273 1.386 . S
C274 C278 1.397 . S
C275 C273 1.397 . S
C275 C276 1.384 . S
C275 H298 0.930 . S
C276 C275 1.384 . S
C276 C277 1.377 . S
C276 C279 1.481 . S
C277 C276 1.377 . S
C277 C278 1.389 . S
C277 H299 0.929 . S
C278 C274 1.397 . S
C278 C277 1.389 . S
C278 H300 0.931 . S
C279 C276 1.481 . S
C279 C280 1.387 . S
C279 C284 1.390 . S
C280 C279 1.387 . S
C280 C281 1.401 . S
C280 H301 0.930 . S
C281 C280 1.401 . S
C281 C282 1.376 . S
C281 C290 1.511 . S
C282 C281 1.376 . S
C282 C283 1.392 . S
C282 H303 0.931 . S
C283 C282 1.392 . S
C283 C284 1.361 . S
C283 C285 1.500 . S
C284 C279 1.390 . S
C284 C283 1.361 . S
C284 H302 0.931 . S
C285 C283 1.500 . S
C285 C286 1.371 . S
C285 C287 1.365 . S
C286 C285 1.371 . S
C286 C296 1.386 . S
C286 H304 0.931 . S
C287 C285 1.365 . S
C287 C288 1.409 . S
C287 H305 0.929 . S
C288 C287 1.409 . S
C288 C289 1.380 . S
C288 H306 0.930 . S
C289 C288 1.380 . S
C289 C296 1.357 . S
C290 C281 1.511 . S
C290 C291 1.341 . S
C290 C292 1.371 . S
C291 C290 1.341 . S
C291 C295 1.394 . S
C291 H307 0.930 . S
C292 C290 1.371 . S
C292 C293 1.392 . S
C292 H308 0.931 . S
C293 C292 1.392 . S
C293 C294 1.331 . S
C293 H311 0.932 . S
C294 C293 1.331 . S
C294 C295 1.336 . S
C295 C291 1.394 . S
C295 C294 1.336 . S
C295 H310 0.929 . S
C296 C286 1.386 . S
C296 C289 1.357 . S
C296 H309 0.928 . S
H297 C273 0.931 . S
H298 C275 0.930 . S
H299 C277 0.929 . S
H300 C278 0.931 . S
H301 C280 0.930 . S
H302 C284 0.931 . S
H303 C282 0.931 . S
H304 C286 0.931 . S
H305 C287 0.929 . S
H306 C288 0.930 . S
H307 C291 0.930 . S
H308 C292 0.931 . S
H309 C296 0.928 . S
H310 C295 0.929 . S
H311 C293 0.932 . S
C312 C313 1.443 . S
C312 N316 1.376 . S
C312 C350 1.389 . S
C313 C312 1.443 . S
C313 C314 1.340 . S
C313 H353 0.951 . S
C314 C313 1.340 . S
C314 C315 1.439 . S
C314 H354 0.950 . S
C315 C314 1.439 . S
C315 N316 1.374 . S
C315 C349 1.395 . S
N316 C312 1.376 . S
N316 C315 1.374 . S
N316 Co317 2.008 . S
Co317 N316 2.008 . S
Co317 N318 1.995 . S
Co317 N323 2.008 . S
Co317 N328 1.995 . S
Co317 N333 2.282 . S
Co317 N339 2.282 1_455 S
N318 Co317 1.995 . S
N318 C319 1.376 . S
N318 C322 1.383 1_455 S
C319 N318 1.376 . S
C319 C320 1.446 1_455 S
C319 C349 1.391 . S
C320 C319 1.446 1_655 S
C320 C321 1.339 . S
C320 H355 0.949 . S
C321 C320 1.339 . S
C321 C322 1.439 . S
C321 H356 0.950 . S
C322 N318 1.383 1_655 S
C322 C321 1.439 . S
C322 C351 1.392 . S
N323 Co317 2.008 . S
N323 C324 1.376 1_455 S
N323 C327 1.374 . S
C324 N323 1.376 1_655 S
C324 C325 1.443 . S
C324 C351 1.389 . S
C325 C324 1.443 . S
C325 C326 1.340 . S
C325 H357 0.951 . S
C326 C325 1.340 . S
C326 C327 1.439 1_655 S
C326 H358 0.950 . S
C327 N323 1.374 . S
C327 C326 1.439 1_455 S
C327 C352 1.395 . S
N328 Co317 1.995 . S
N328 C329 1.376 . S
N328 C332 1.383 . S
C329 N328 1.376 . S
C329 C330 1.446 . S
C329 C352 1.391 . S
C330 C329 1.446 . S
C330 C331 1.339 . S
C330 H359 0.949 . S
C331 C330 1.339 . S
C331 C332 1.439 . S
C331 H360 0.950 . S
C332 N328 1.383 . S
C332 C331 1.439 . S
C332 C350 1.392 . S
N333 Co317 2.282 . S
N333 C336 1.332 . S
N333 C338 1.332 . S
C334 C335 1.386 . S
C334 C337 1.388 . S
C335 C334 1.386 . S
C335 C336 1.382 . S
C335 H361 0.950 . S
C336 N333 1.332 . S
C336 C335 1.382 . S
C336 H347 0.952 . S
C337 C334 1.388 . S
C337 C338 1.382 . S
C337 H362 0.950 . S
C338 N333 1.332 . S
C338 C337 1.382 . S
C338 H348 0.948 . S
N339 Co317 2.282 1_655 S
N339 C343 1.332 . S
N339 C344 1.332 . S
C340 C341 1.388 . S
C340 C344 1.382 . S
C340 H363 0.950 . S
C341 C340 1.388 . S
C341 C342 1.386 . S
C342 C341 1.386 . S
C342 C343 1.382 . S
C342 H364 0.950 . S
C343 N339 1.332 . S
C343 C342 1.382 . S
C343 H345 0.952 . S
C344 N339 1.332 . S
C344 C340 1.382 . S
C344 H346 0.948 . S
H345 C343 0.952 . S
H346 C344 0.948 . S
H347 C336 0.952 . S
H348 C338 0.948 . S
C349 C315 1.395 . S
C349 C319 1.391 . S
C350 C312 1.389 . S
C350 C332 1.392 . S
C351 C322 1.392 . S
C351 C324 1.389 . S
C352 C327 1.395 . S
C352 C329 1.391 . S
H353 C313 0.951 . S
H354 C314 0.950 . S
H355 C320 0.949 . S
H356 C321 0.950 . S
H357 C325 0.951 . S
H358 C326 0.950 . S
H359 C330 0.949 . S
H360 C331 0.950 . S
H361 C335 0.950 . S
H362 C337 0.950 . S
H363 C340 0.950 . S
H364 C342 0.950 . S
C365 C366 1.443 . S
C365 N369 1.376 . S
C365 C403 1.389 . S
C366 C365 1.443 . S
C366 C367 1.340 . S
C366 H406 0.951 . S
C367 C366 1.340 . S
C367 C368 1.439 . S
C367 H407 0.950 . S
C368 C367 1.439 . S
C368 N369 1.374 . S
C368 C402 1.395 . S
N369 C365 1.376 . S
N369 C368 1.374 . S
N369 Co370 2.008 . S
Co370 N369 2.008 . S
Co370 N371 1.995 1_455 S
Co370 N376 2.008 1_455 S
Co370 N381 1.995 . S
Co370 N386 2.282 . S
Co370 N392 2.282 1_455 S
N371 Co370 1.995 1_655 S
N371 C372 1.376 . S
N371 C375 1.383 . S
C372 N371 1.376 . S
C372 C373 1.446 . S
C372 C402 1.391 1_655 S
C373 C372 1.446 . S
C373 C374 1.339 . S
C373 H408 0.949 . S
C374 C373 1.339 . S
C374 C375 1.439 . S
C374 H409 0.950 . S
C375 N371 1.383 . S
C375 C374 1.439 . S
C375 C404 1.392 . S
N376 Co370 2.008 1_655 S
N376 C377 1.376 . S
N376 C380 1.374 . S
C377 N376 1.376 . S
C377 C378 1.443 . S
C377 C404 1.389 . S
C378 C377 1.443 . S
C378 C379 1.340 . S
C378 H410 0.951 . S
C379 C378 1.340 . S
C379 C380 1.439 . S
C379 H411 0.950 . S
C380 N376 1.374 . S
C380 C379 1.439 . S
C380 C405 1.395 1_655 S
N381 Co370 1.995 . S
N381 C382 1.376 . S
N381 C385 1.383 . S
C382 N381 1.376 . S
C382 C383 1.446 . S
C382 C405 1.391 . S
C383 C382 1.446 . S
C383 C384 1.339 . S
C383 H412 0.949 . S
C384 C383 1.339 . S
C384 C385 1.439 . S
C384 H413 0.950 . S
C385 N381 1.383 . S
C385 C384 1.439 . S
C385 C403 1.392 . S
N386 Co370 2.282 . S
N386 C389 1.332 . S
N386 C391 1.332 . S
C387 C388 1.386 . S
C387 C390 1.388 . S
C388 C387 1.386 . S
C388 C389 1.382 . S
C388 H414 0.950 . S
C389 N386 1.332 . S
C389 C388 1.382 . S
C389 H400 0.952 . S
C390 C387 1.388 . S
C390 C391 1.382 . S
C390 H415 0.950 . S
C391 N386 1.332 . S
C391 C390 1.382 . S
C391 H401 0.948 . S
N392 Co370 2.282 1_655 S
N392 C396 1.332 . S
N392 C397 1.332 . S
C393 C394 1.388 . S
C393 C397 1.382 . S
C393 H416 0.950 . S
C394 C393 1.388 . S
C394 C395 1.386 . S
C395 C394 1.386 . S
C395 C396 1.382 . S
C395 H417 0.950 . S
C396 N392 1.332 . S
C396 C395 1.382 . S
C396 H398 0.952 . S
C397 N392 1.332 . S
C397 C393 1.382 . S
C397 H399 0.948 . S
H398 C396 0.952 . S
H399 C397 0.948 . S
H400 C389 0.952 . S
H401 C391 0.948 . S
C402 C368 1.395 . S
C402 C372 1.391 1_455 S
C403 C365 1.389 . S
C403 C385 1.392 . S
C404 C375 1.392 . S
C404 C377 1.389 . S
C405 C380 1.395 1_455 S
C405 C382 1.391 . S
H406 C366 0.951 . S
H407 C367 0.950 . S
H408 C373 0.949 . S
H409 C374 0.950 . S
H410 C378 0.951 . S
H411 C379 0.950 . S
H412 C383 0.949 . S
H413 C384 0.950 . S
H414 C388 0.950 . S
H415 C390 0.950 . S
H416 C393 0.950 . S
H417 C395 0.950 . S
C418 C419 1.443 . S
C418 N422 1.376 . S
C418 C456 1.389 . S
C419 C418 1.443 . S
C419 C420 1.340 . S
C419 H459 0.951 . S
C420 C419 1.340 . S
C420 C421 1.439 . S
C420 H460 0.950 . S
C421 C420 1.439 . S
C421 N422 1.374 . S
C421 C455 1.395 1_565 S
N422 C418 1.376 . S
N422 C421 1.374 . S
N422 Co423 2.008 1_565 S
Co423 N422 2.008 1_545 S
Co423 N424 1.995 . S
Co423 N429 2.008 . S
Co423 N434 1.995 1_545 S
Co423 N439 2.282 . S
Co423 N445 2.282 1_545 S
N424 Co423 1.995 . S
N424 C425 1.376 . S
N424 C428 1.383 . S
C425 N424 1.376 . S
C425 C426 1.446 . S
C425 C455 1.391 . S
C426 C425 1.446 . S
C426 C427 1.339 . S
C426 H461 0.949 . S
C427 C426 1.339 . S
C427 C428 1.439 . S
C427 H462 0.950 . S
C428 N424 1.383 . S
C428 C427 1.439 . S
C428 C457 1.392 . S
N429 Co423 2.008 . S
N429 C430 1.376 . S
N429 C433 1.374 . S
C430 N429 1.376 . S
C430 C431 1.443 . S
C430 C457 1.389 . S
C431 C430 1.443 . S
C431 C432 1.340 . S
C431 H463 0.951 . S
C432 C431 1.340 . S
C432 C433 1.439 . S
C432 H464 0.950 . S
C433 N429 1.374 . S
C433 C432 1.439 . S
C433 C458 1.395 . S
N434 Co423 1.995 1_565 S
N434 C435 1.376 . S
N434 C438 1.383 . S
C435 N434 1.376 . S
C435 C436 1.446 . S
C435 C458 1.391 1_565 S
C436 C435 1.446 . S
C436 C437 1.339 . S
C436 H465 0.949 . S
C437 C436 1.339 . S
C437 C438 1.439 . S
C437 H466 0.950 . S
C438 N434 1.383 . S
C438 C437 1.439 . S
C438 C456 1.392 . S
N439 Co423 2.282 . S
N439 C442 1.332 . S
N439 C444 1.332 . S
C440 C441 1.386 . S
C440 C443 1.388 . S
C441 C440 1.386 . S
C441 C442 1.382 . S
C441 H467 0.950 . S
C442 N439 1.332 . S
C442 C441 1.382 . S
C442 H453 0.952 . S
C443 C440 1.388 . S
C443 C444 1.382 . S
C443 H468 0.950 . S
C444 N439 1.332 . S
C444 C443 1.382 . S
C444 H454 0.948 . S
N445 Co423 2.282 1_565 S
N445 C449 1.332 . S
N445 C450 1.332 . S
C446 C447 1.388 . S
C446 C450 1.382 . S
C446 H469 0.950 . S
C447 C446 1.388 . S
C447 C448 1.386 . S
C448 C447 1.386 . S
C448 C449 1.382 . S
C448 H470 0.950 . S
C449 N445 1.332 . S
C449 C448 1.382 . S
C449 H451 0.952 . S
C450 N445 1.332 . S
C450 C446 1.382 . S
C450 H452 0.948 . S
H451 C449 0.952 . S
H452 C450 0.948 . S
H453 C442 0.952 . S
H454 C444 0.948 . S
C455 C421 1.395 1_545 S
C455 C425 1.391 . S
C456 C418 1.389 . S
C456 C438 1.392 . S
C457 C428 1.392 . S
C457 C430 1.389 . S
C458 C433 1.395 . S
C458 C435 1.391 1_545 S
H459 C419 0.951 . S
H460 C420 0.950 . S
H461 C426 0.949 . S
H462 C427 0.950 . S
H463 C431 0.951 . S
H464 C432 0.950 . S
H465 C436 0.949 . S
H466 C437 0.950 . S
H467 C441 0.950 . S
H468 C443 0.950 . S
H469 C446 0.950 . S
H470 C448 0.950 . S
C471 C472 1.443 . S
C471 N475 1.376 . S
C471 C509 1.389 . S
C472 C471 1.443 . S
C472 C473 1.340 . S
C472 H512 0.951 . S
C473 C472 1.340 . S
C473 C474 1.439 . S
C473 H513 0.950 . S
C474 C473 1.439 . S
C474 N475 1.374 . S
C474 C508 1.395 . S
N475 C471 1.376 . S
N475 C474 1.374 . S
N475 Co476 2.008 . S
Co476 N475 2.008 . S
Co476 N477 2.013 . S
Co476 N482 2.008 1_554 S
Co476 N487 1.995 . S
Co476 N492 2.282 1_554 S
Co476 N498 2.282 . S
N477 Co476 2.013 . S
N477 C478 1.382 . S
N477 C481 1.353 1_554 S
C478 N477 1.382 . S
C478 C479 1.446 1_554 S
C478 C508 1.391 . S
C479 C478 1.446 1_556 S
C479 C480 1.339 . S
C479 H514 0.949 . S
C480 C479 1.339 . S
C480 C481 1.439 . S
C480 H515 0.950 . S
C481 N477 1.353 1_556 S
C481 C480 1.439 . S
C481 C510 1.392 . S
N482 Co476 2.008 1_556 S
N482 C483 1.376 . S
N482 C486 1.374 . S
C483 N482 1.376 . S
C483 C484 1.443 . S
C483 C510 1.389 . S
C484 C483 1.443 . S
C484 C485 1.340 . S
C484 H516 0.951 . S
C485 C484 1.340 . S
C485 C486 1.462 . S
C485 H517 0.950 . S
C486 N482 1.374 . S
C486 C485 1.462 . S
C486 C511 1.377 1_556 S
N487 Co476 1.995 . S
N487 C488 1.376 . S
N487 C491 1.383 . S
C488 N487 1.376 . S
C488 C489 1.446 . S
C488 C511 1.391 . S
C489 C488 1.446 . S
C489 C490 1.339 . S
C489 H518 0.949 . S
C490 C489 1.339 . S
C490 C491 1.439 . S
C490 H519 0.950 . S
C491 N487 1.383 . S
C491 C490 1.439 . S
C491 C509 1.392 . S
N492 Co476 2.282 1_556 S
N492 C495 1.332 . S
N492 C497 1.332 . S
C493 C494 1.386 . S
C493 C496 1.388 . S
C494 C493 1.386 . S
C494 C495 1.382 . S
C494 H520 0.950 . S
C495 N492 1.332 . S
C495 C494 1.382 . S
C495 H506 0.952 . S
C496 C493 1.388 . S
C496 C497 1.382 . S
C496 H521 0.950 . S
C497 N492 1.332 . S
C497 C496 1.382 . S
C497 H507 0.948 . S
N498 Co476 2.282 . S
N498 C502 1.332 . S
N498 C503 1.332 . S
C499 C500 1.388 . S
C499 C503 1.382 . S
C499 H522 0.950 . S
C500 C499 1.388 . S
C500 C501 1.386 . S
C501 C500 1.386 . S
C501 C502 1.382 . S
C501 H523 0.950 . S
C502 N498 1.332 . S
C502 C501 1.382 . S
C502 H504 0.952 . S
C503 N498 1.332 . S
C503 C499 1.382 . S
C503 H505 0.948 . S
H504 C502 0.952 . S
H505 C503 0.948 . S
H506 C495 0.952 . S
H507 C497 0.948 . S
C508 C474 1.395 . S
C508 C478 1.391 . S
C509 C471 1.389 . S
C509 C491 1.392 . S
C510 C481 1.392 . S
C510 C483 1.389 . S
C511 C486 1.377 1_554 S
C511 C488 1.391 . S
H512 C472 0.951 . S
H513 C473 0.950 . S
H514 C479 0.949 . S
H515 C480 0.950 . S
H516 C484 0.951 . S
H517 C485 0.950 . S
H518 C489 0.949 . S
H519 C490 0.950 . S
H520 C494 0.950 . S
H521 C496 0.950 . S
H522 C499 0.950 . S
H523 C501 0.950 . S
C524 C525 1.443 . S
C524 N528 1.417 . S
C524 C562 1.389 . S
C525 C524 1.443 . S
C525 C526 1.340 . S
C525 H565 0.951 . S
C526 C525 1.340 . S
C526 C527 1.434 1_565 S
C526 H566 0.950 . S
C527 C526 1.434 1_545 S
C527 N528 1.375 1_545 S
C527 C561 1.400 . S
N528 C524 1.417 . S
N528 C527 1.375 1_565 S
N528 Co529 1.980 1_565 S
Co529 N528 1.980 1_545 S
Co529 N530 1.995 . S
Co529 N535 2.008 . S
Co529 N540 1.994 . S
Co529 N545 2.282 . S
Co529 N551 2.282 1_545 S
N530 Co529 1.995 . S
N530 C531 1.376 . S
N530 C534 1.383 . S
C531 N530 1.376 . S
C531 C532 1.446 . S
C531 C561 1.391 . S
C532 C531 1.446 . S
C532 C533 1.339 . S
C532 H567 0.949 . S
C533 C532 1.339 . S
C533 C534 1.439 . S
C533 H568 0.950 . S
C534 N530 1.383 . S
C534 C533 1.439 . S
C534 C563 1.392 . S
N535 Co529 2.008 . S
N535 C536 1.376 . S
N535 C539 1.374 . S
C536 N535 1.376 . S
C536 C537 1.443 . S
C536 C563 1.389 . S
C537 C536 1.443 . S
C537 C538 1.340 . S
C537 H569 0.951 . S
C538 C537 1.340 . S
C538 C539 1.439 . S
C538 H570 0.950 . S
C539 N535 1.374 . S
C539 C538 1.439 . S
C539 C564 1.395 . S
N540 Co529 1.994 . S
N540 C541 1.376 . S
N540 C544 1.384 1_545 S
C541 N540 1.376 . S
C541 C542 1.446 1_545 S
C541 C564 1.391 . S
C542 C541 1.446 1_565 S
C542 C543 1.339 . S
C542 H571 0.949 . S
C543 C542 1.339 . S
C543 C544 1.439 . S
C543 H572 0.950 . S
C544 N540 1.384 1_565 S
C544 C543 1.439 . S
C544 C562 1.392 . S
N545 Co529 2.282 . S
N545 C548 1.332 . S
N545 C550 1.332 . S
C546 C547 1.386 . S
C546 C549 1.388 . S
C547 C546 1.386 . S
C547 C548 1.382 . S
C547 H573 0.950 . S
C548 N545 1.332 . S
C548 C547 1.382 . S
C548 H559 0.952 . S
C549 C546 1.388 . S
C549 C550 1.382 . S
C549 H574 0.950 . S
C550 N545 1.332 . S
C550 C549 1.382 . S
C550 H560 0.948 . S
N551 Co529 2.282 1_565 S
N551 C555 1.332 . S
N551 C556 1.332 . S
C552 C553 1.388 . S
C552 C556 1.382 . S
C552 H575 0.950 . S
C553 C552 1.388 . S
C553 C554 1.386 . S
C554 C553 1.386 . S
C554 C555 1.382 . S
C554 H576 0.950 . S
C555 N551 1.332 . S
C555 C554 1.382 . S
C555 H557 0.952 . S
C556 N551 1.332 . S
C556 C552 1.382 . S
C556 H558 0.948 . S
H557 C555 0.952 . S
H558 C556 0.948 . S
H559 C548 0.952 . S
H560 C550 0.948 . S
C561 C527 1.400 . S
C561 C531 1.391 . S
C562 C524 1.389 . S
C562 C544 1.392 . S
C563 C534 1.392 . S
C563 C536 1.389 . S
C564 C539 1.395 . S
C564 C541 1.391 . S
H565 C525 0.951 . S
H566 C526 0.950 . S
H567 C532 0.949 . S
H568 C533 0.950 . S
H569 C537 0.951 . S
H570 C538 0.950 . S
H571 C542 0.949 . S
H572 C543 0.950 . S
H573 C547 0.950 . S
H574 C549 0.950 . S
H575 C552 0.950 . S
H576 C554 0.950 . S
C577 C578 1.443 . S
C577 N581 1.376 . S
C577 C615 1.389 . S
C578 C577 1.443 . S
C578 C579 1.340 . S
C578 H618 0.951 . S
C579 C578 1.340 . S
C579 C580 1.439 . S
C579 H619 0.950 . S
C580 C579 1.439 . S
C580 N581 1.374 . S
C580 C614 1.395 . S
N581 C577 1.376 . S
N581 C580 1.374 . S
N581 Co582 2.008 . S
Co582 N581 2.008 . S
Co582 N583 1.995 . S
Co582 N588 2.008 . S
Co582 N593 1.995 . S
Co582 N598 2.264 1_554 S
Co582 N604 2.282 . S
N583 Co582 1.995 . S
N583 C584 1.376 . S
N583 C587 1.383 1_554 S
C584 N583 1.376 . S
C584 C585 1.446 1_554 S
C584 C614 1.391 . S
C585 C584 1.446 1_556 S
C585 C586 1.339 . S
C585 H620 0.949 . S
C586 C585 1.339 . S
C586 C587 1.439 . S
C586 H621 0.950 . S
C587 N583 1.383 1_556 S
C587 C586 1.439 . S
C587 C616 1.392 . S
N588 Co582 2.008 . S
N588 C589 1.376 1_554 S
N588 C592 1.374 . S
C589 N588 1.376 1_556 S
C589 C590 1.443 . S
C589 C616 1.389 . S
C590 C589 1.443 . S
C590 C591 1.340 . S
C590 H622 0.951 . S
C591 C590 1.340 . S
C591 C592 1.439 1_556 S
C591 H623 0.950 . S
C592 N588 1.374 . S
C592 C591 1.439 1_554 S
C592 C617 1.395 . S
N593 Co582 1.995 . S
N593 C594 1.376 . S
N593 C597 1.383 . S
C594 N593 1.376 . S
C594 C595 1.446 . S
C594 C617 1.391 . S
C595 C594 1.446 . S
C595 C596 1.339 . S
C595 H624 0.949 . S
C596 C595 1.339 . S
C596 C597 1.439 . S
C596 H625 0.950 . S
C597 N593 1.383 . S
C597 C596 1.439 . S
C597 C615 1.392 . S
N598 Co582 2.264 1_556 S
N598 C601 1.340 . S
N598 C603 1.346 . S
C599 C600 1.386 . S
C599 C602 1.388 . S
C600 C599 1.386 . S
C600 C601 1.382 . S
C600 H626 0.950 . S
C601 N598 1.340 . S
C601 C600 1.382 . S
C601 H612 0.952 1_556 S
C602 C599 1.388 . S
C602 C603 1.382 . S
C602 H627 0.950 . S
C603 N598 1.346 . S
C603 C602 1.382 . S
C603 H613 0.948 . S
N604 Co582 2.282 . S
N604 C608 1.332 . S
N604 C609 1.332 . S
C605 C606 1.388 . S
C605 C609 1.382 . S
C605 H628 0.950 . S
C606 C605 1.388 . S
C606 C607 1.386 . S
C607 C606 1.386 . S
C607 C608 1.382 . S
C607 H629 0.950 . S
C608 N604 1.332 . S
C608 C607 1.382 . S
C608 H610 0.952 . S
C609 N604 1.332 . S
C609 C605 1.382 . S
C609 H611 0.948 . S
H610 C608 0.952 . S
H611 C609 0.948 . S
H612 C601 0.952 1_554 S
H613 C603 0.948 . S
C614 C580 1.395 . S
C614 C584 1.391 . S
C615 C577 1.389 . S
C615 C597 1.392 . S
C616 C587 1.392 . S
C616 C589 1.389 . S
C617 C592 1.395 . S
C617 C594 1.391 . S
H618 C578 0.951 . S
H619 C579 0.950 . S
H620 C585 0.949 . S
H621 C586 0.950 . S
H622 C590 0.951 . S
H623 C591 0.950 . S
H624 C595 0.949 . S
H625 C596 0.950 . S
H626 C600 0.950 . S
H627 C602 0.950 . S
H628 C605 0.950 . S
H629 C607 0.950 . S
C630 C631 1.349 . S
C630 C632 1.327 . S
C630 H655 0.950 . S
C631 C630 1.349 . S
C631 C647 1.349 . S
C632 C630 1.327 . S
C632 C651 1.429 . S
C632 H656 0.950 . S
C633 C650 1.574 . S
C633 C652 1.368 . S
C633 H657 0.949 . S
H634 C638 0.949 . S
C635 C636 1.349 . S
C635 C637 1.327 . S
C635 H658 0.950 . S
C636 C635 1.349 . S
C636 C648 1.349 . S
C637 C635 1.327 . S
C637 C653 1.429 . S
C637 H659 0.950 . S
C638 H634 0.949 . S
C638 C646 1.574 . S
C638 C654 1.368 . S
H639 C647 0.950 . S
H640 C645 0.950 . S
H641 C646 0.949 . S
H642 C648 0.950 . S
H643 C649 0.950 . S
H644 C650 0.949 . S
C645 H640 0.950 . S
C645 C647 1.327 . S
C645 C651 1.429 . S
C646 C638 1.574 . S
C646 H641 0.949 . S
C646 C652 1.368 . S
C647 C631 1.349 . S
C647 H639 0.950 . S
C647 C645 1.327 . S
C648 C636 1.349 . S
C648 H642 0.950 . S
C648 C649 1.327 . S
C649 H643 0.950 . S
C649 C648 1.327 . S
C649 C653 1.429 . S
C650 C633 1.574 . S
C650 H644 0.949 . S
C650 C654 1.368 . S
C651 C632 1.429 . S
C651 C645 1.429 . S
C651 C652 1.523 . S
C652 C633 1.368 . S
C652 C646 1.368 . S
C652 C651 1.523 . S
C653 C637 1.429 . S
C653 C649 1.429 . S
C653 C654 1.523 . S
C654 C638 1.368 . S
C654 C650 1.368 . S
C654 C653 1.523 . S
H655 C630 0.950 . S
H656 C632 0.950 . S
H657 C633 0.949 . S
H658 C635 0.950 . S
H659 C637 0.950 . S
C660 C661 1.349 . S
C660 C662 1.327 . S
C660 H685 0.950 . S
C661 C660 1.349 . S
C661 C677 1.349 . S
C662 C660 1.327 . S
C662 C681 1.429 . S
C662 H686 0.950 . S
C663 C680 1.574 . S
C663 C682 1.368 . S
C663 H687 0.949 . S
H664 C668 0.949 . S
C665 C666 1.349 . S
C665 C667 1.327 . S
C665 H688 0.950 . S
C666 C665 1.349 . S
C666 C678 1.349 . S
C667 C665 1.327 . S
C667 C683 1.429 . S
C667 H689 0.950 . S
C668 H664 0.949 . S
C668 C676 1.574 . S
C668 C684 1.368 . S
H669 C677 0.950 . S
H670 C675 0.950 . S
H671 C676 0.949 . S
H672 C678 0.950 . S
H673 C679 0.950 . S
H674 C680 0.949 . S
C675 H670 0.950 . S
C675 C677 1.327 . S
C675 C681 1.429 . S
C676 C668 1.574 . S
C676 H671 0.949 . S
C676 C682 1.368 . S
C677 C661 1.349 . S
C677 H669 0.950 . S
C677 C675 1.327 . S
C678 C666 1.349 . S
C678 H672 0.950 . S
C678 C679 1.327 . S
C679 H673 0.950 . S
C679 C678 1.327 . S
C679 C683 1.429 . S
C680 C663 1.574 . S
C680 H674 0.949 . S
C680 C684 1.368 . S
C681 C662 1.429 . S
C681 C675 1.429 . S
C681 C682 1.523 . S
C682 C663 1.368 . S
C682 C676 1.368 . S
C682 C681 1.523 . S
C683 C667 1.429 . S
C683 C679 1.429 . S
C683 C684 1.523 . S
C684 C668 1.368 . S
C684 C680 1.368 . S
C684 C683 1.523 . S
H685 C660 0.950 . S
H686 C662 0.950 . S
H687 C663 0.949 . S
H688 C665 0.950 . S
H689 C667 0.950 . S
C690 C691 1.349 . S
C690 C692 1.327 . S
C690 H715 0.950 . S
C691 C690 1.349 . S
C691 C707 1.349 . S
C692 C690 1.327 . S
C692 C711 1.429 . S
C692 H716 0.950 . S
C693 C710 1.574 . S
C693 C712 1.368 . S
C693 H717 0.949 . S
H694 C698 0.949 . S
C695 C696 1.349 . S
C695 C697 1.327 . S
C695 H718 0.950 . S
C696 C695 1.349 . S
C696 C708 1.349 . S
C697 C695 1.327 . S
C697 C713 1.429 . S
C697 H719 0.950 . S
C698 H694 0.949 . S
C698 C706 1.574 . S
C698 C714 1.368 . S
H699 C707 0.950 . S
H700 C705 0.950 . S
H701 C706 0.949 . S
H702 C708 0.950 . S
H703 C709 0.950 . S
H704 C710 0.949 . S
C705 H700 0.950 . S
C705 C707 1.327 . S
C705 C711 1.429 . S
C706 C698 1.574 . S
C706 H701 0.949 . S
C706 C712 1.368 . S
C707 C691 1.349 . S
C707 H699 0.950 . S
C707 C705 1.327 . S
C708 C696 1.349 . S
C708 H702 0.950 . S
C708 C709 1.327 . S
C709 H703 0.950 . S
C709 C708 1.327 . S
C709 C713 1.429 . S
C710 C693 1.574 . S
C710 H704 0.949 . S
C710 C714 1.368 . S
C711 C692 1.429 . S
C711 C705 1.429 . S
C711 C712 1.523 . S
C712 C693 1.368 . S
C712 C706 1.368 . S
C712 C711 1.523 . S
C713 C697 1.429 . S
C713 C709 1.429 . S
C713 C714 1.523 . S
C714 C698 1.368 . S
C714 C710 1.368 . S
C714 C713 1.523 . S
H715 C690 0.950 . S
H716 C692 0.950 . S
H717 C693 0.949 . S
H718 C695 0.950 . S
H719 C697 0.950 . S
C720 C721 1.349 . S
C720 C722 1.327 . S
C720 H745 0.950 . S
C721 C720 1.349 . S
C721 C737 1.349 . S
C722 C720 1.327 . S
C722 C741 1.429 . S
C722 H746 0.950 . S
C723 C740 1.574 . S
C723 C742 1.368 . S
C723 H747 0.949 . S
H724 C728 0.949 . S
C725 C726 1.349 . S
C725 C727 1.327 . S
C725 H748 0.950 . S
C726 C725 1.349 . S
C726 C738 1.349 . S
C727 C725 1.327 . S
C727 C743 1.429 . S
C727 H749 0.950 . S
C728 H724 0.949 . S
C728 C736 1.574 . S
C728 C744 1.368 . S
H729 C737 0.950 . S
H730 C735 0.950 . S
H731 C736 0.949 . S
H732 C738 0.950 . S
H733 C739 0.950 . S
H734 C740 0.949 . S
C735 H730 0.950 . S
C735 C737 1.327 . S
C735 C741 1.429 . S
C736 C728 1.574 . S
C736 H731 0.949 . S
C736 C742 1.368 . S
C737 C721 1.349 . S
C737 H729 0.950 . S
C737 C735 1.327 . S
C738 C726 1.349 . S
C738 H732 0.950 . S
C738 C739 1.327 . S
C739 H733 0.950 . S
C739 C738 1.327 . S
C739 C743 1.429 . S
C740 C723 1.574 . S
C740 H734 0.949 . S
C740 C744 1.368 . S
C741 C722 1.429 . S
C741 C735 1.429 . S
C741 C742 1.523 . S
C742 C723 1.368 . S
C742 C736 1.368 . S
C742 C741 1.523 . S
C743 C727 1.429 . S
C743 C739 1.429 . S
C743 C744 1.523 . S
C744 C728 1.368 . S
C744 C740 1.368 . S
C744 C743 1.523 . S
H745 C720 0.950 . S
H746 C722 0.950 . S
H747 C723 0.949 . S
H748 C725 0.950 . S
H749 C727 0.950 . S
C750 C751 1.349 . S
C750 C752 1.327 . S
C750 H775 0.950 . S
C751 C750 1.349 . S
C751 C767 1.349 . S
C752 C750 1.327 . S
C752 C771 1.429 . S
C752 H776 0.950 . S
C753 C770 1.574 . S
C753 C772 1.368 . S
C753 H777 0.949 . S
H754 C758 0.949 . S
C755 C756 1.349 . S
C755 C757 1.327 . S
C755 H778 0.950 . S
C756 C755 1.349 . S
C756 C768 1.349 . S
C757 C755 1.327 . S
C757 C773 1.429 . S
C757 H779 0.950 . S
C758 H754 0.949 . S
C758 C766 1.574 . S
C758 C774 1.368 . S
H759 C767 0.950 . S
H760 C765 0.950 . S
H761 C766 0.949 . S
H762 C768 0.950 . S
H763 C769 0.950 . S
H764 C770 0.949 . S
C765 H760 0.950 . S
C765 C767 1.327 . S
C765 C771 1.429 . S
C766 C758 1.574 . S
C766 H761 0.949 . S
C766 C772 1.368 . S
C767 C751 1.349 . S
C767 H759 0.950 . S
C767 C765 1.327 . S
C768 C756 1.349 . S
C768 H762 0.950 . S
C768 C769 1.327 . S
C769 H763 0.950 . S
C769 C768 1.327 . S
C769 C773 1.429 . S
C770 C753 1.574 . S
C770 H764 0.949 . S
C770 C774 1.368 . S
C771 C752 1.429 . S
C771 C765 1.429 . S
C771 C772 1.523 . S
C772 C753 1.368 . S
C772 C766 1.368 . S
C772 C771 1.523 . S
C773 C757 1.429 . S
C773 C769 1.429 . S
C773 C774 1.523 . S
C774 C758 1.368 . S
C774 C770 1.368 . S
C774 C773 1.523 . S
H775 C750 0.950 . S
H776 C752 0.950 . S
H777 C753 0.949 . S
H778 C755 0.950 . S
H779 C757 0.950 . S
C780 C781 1.349 . S
C780 C782 1.327 . S
C780 H805 0.950 . S
C781 C780 1.349 . S
C781 C797 1.349 . S
C782 C780 1.327 . S
C782 C801 1.429 . S
C782 H806 0.950 . S
C783 C800 1.574 . S
C783 C802 1.368 . S
C783 H807 0.949 . S
H784 C788 0.949 . S
C785 C786 1.349 . S
C785 C787 1.327 . S
C785 H808 0.950 . S
C786 C785 1.349 . S
C786 C798 1.349 . S
C787 C785 1.327 . S
C787 C803 1.429 . S
C787 H809 0.950 . S
C788 H784 0.949 . S
C788 C796 1.574 . S
C788 C804 1.368 . S
H789 C797 0.950 . S
H790 C795 0.950 . S
H791 C796 0.949 . S
H792 C798 0.950 . S
H793 C799 0.950 . S
H794 C800 0.949 . S
C795 H790 0.950 . S
C795 C797 1.327 . S
C795 C801 1.429 . S
C796 C788 1.574 . S
C796 H791 0.949 . S
C796 C802 1.368 . S
C797 C781 1.349 . S
C797 H789 0.950 . S
C797 C795 1.327 . S
C798 C786 1.349 . S
C798 H792 0.950 . S
C798 C799 1.327 . S
C799 H793 0.950 . S
C799 C798 1.327 . S
C799 C803 1.429 . S
C800 C783 1.574 . S
C800 H794 0.949 . S
C800 C804 1.368 . S
C801 C782 1.429 . S
C801 C795 1.429 . S
C801 C802 1.523 . S
C802 C783 1.368 . S
C802 C796 1.368 . S
C802 C801 1.523 . S
C803 C787 1.429 . S
C803 C799 1.429 . S
C803 C804 1.523 . S
C804 C788 1.368 . S
C804 C800 1.368 . S
C804 C803 1.523 . S
H805 C780 0.950 . S
H806 C782 0.950 . S
H807 C783 0.949 . S
H808 C785 0.950 . S
H809 C787 0.950 . S
C810 C811 1.349 . S
C810 C812 1.327 . S
C810 H835 0.950 . S
C811 C810 1.349 . S
C811 C827 1.349 . S
C812 C810 1.327 . S
C812 C831 1.429 . S
C812 H836 0.950 . S
C813 C830 1.574 . S
C813 C832 1.368 . S
C813 H837 0.949 . S
H814 C818 0.949 . S
C815 C816 1.349 . S
C815 C817 1.327 . S
C815 H838 0.950 . S
C816 C815 1.349 . S
C816 C828 1.349 . S
C817 C815 1.327 . S
C817 C833 1.429 . S
C817 H839 0.950 . S
C818 H814 0.949 . S
C818 C826 1.574 . S
C818 C834 1.368 . S
H819 C827 0.950 . S
H820 C825 0.950 . S
H821 C826 0.949 . S
H822 C828 0.950 . S
H823 C829 0.950 . S
H824 C830 0.949 . S
C825 H820 0.950 . S
C825 C827 1.327 . S
C825 C831 1.429 . S
C826 C818 1.574 . S
C826 H821 0.949 . S
C826 C832 1.368 . S
C827 C811 1.349 . S
C827 H819 0.950 . S
C827 C825 1.327 . S
C828 C816 1.349 . S
C828 H822 0.950 . S
C828 C829 1.327 . S
C829 H823 0.950 . S
C829 C828 1.327 . S
C829 C833 1.429 . S
C830 C813 1.574 . S
C830 H824 0.949 . S
C830 C834 1.368 . S
C831 C812 1.429 . S
C831 C825 1.429 . S
C831 C832 1.523 . S
C832 C813 1.368 . S
C832 C826 1.368 . S
C832 C831 1.523 . S
C833 C817 1.429 . S
C833 C829 1.429 . S
C833 C834 1.523 . S
C834 C818 1.368 . S
C834 C830 1.368 . S
C834 C833 1.523 . S
H835 C810 0.950 . S
H836 C812 0.950 . S
H837 C813 0.949 . S
H838 C815 0.950 . S
H839 C817 0.950 . S
C840 C841 1.349 . S
C840 C842 1.327 . S
C840 H865 0.950 . S
C841 C840 1.349 . S
C841 C857 1.349 . S
C842 C840 1.327 . S
C842 C861 1.429 . S
C842 H866 0.950 . S
C843 C860 1.574 . S
C843 C862 1.368 . S
C843 H867 0.949 . S
H844 C848 0.949 . S
C845 C846 1.349 . S
C845 C847 1.327 . S
C845 H868 0.950 . S
C846 C845 1.349 . S
C846 C858 1.349 . S
C847 C845 1.327 . S
C847 C863 1.429 . S
C847 H869 0.950 . S
C848 H844 0.949 . S
C848 C856 1.574 . S
C848 C864 1.368 . S
H849 C857 0.950 . S
H850 C855 0.950 . S
H851 C856 0.949 . S
H852 C858 0.950 . S
H853 C859 0.950 . S
H854 C860 0.949 . S
C855 H850 0.950 . S
C855 C857 1.327 . S
C855 C861 1.429 . S
C856 C848 1.574 . S
C856 H851 0.949 . S
C856 C862 1.368 . S
C857 C841 1.349 . S
C857 H849 0.950 . S
C857 C855 1.327 . S
C858 C846 1.349 . S
C858 H852 0.950 . S
C858 C859 1.327 . S
C859 H853 0.950 . S
C859 C858 1.327 . S
C859 C863 1.429 . S
C860 C843 1.574 . S
C860 H854 0.949 . S
C860 C864 1.368 . S
C861 C842 1.429 . S
C861 C855 1.429 . S
C861 C862 1.523 . S
C862 C843 1.368 . S
C862 C856 1.368 . S
C862 C861 1.523 . S
C863 C847 1.429 . S
C863 C859 1.429 . S
C863 C864 1.523 . S
C864 C848 1.368 . S
C864 C860 1.368 . S
C864 C863 1.523 . S
H865 C840 0.950 . S
H866 C842 0.950 . S
H867 C843 0.949 . S
H868 C845 0.950 . S
H869 C847 0.950 . S
C870 C871 1.349 . S
C870 C872 1.327 . S
C870 H895 0.950 . S
C871 C870 1.349 . S
C871 C887 1.349 . S
C872 C870 1.327 . S
C872 C891 1.429 . S
C872 H896 0.950 . S
C873 C890 1.574 . S
C873 C892 1.368 . S
C873 H897 0.949 . S
H874 C878 0.949 . S
C875 C876 1.349 . S
C875 C877 1.327 . S
C875 H898 0.950 . S
C876 C875 1.349 . S
C876 C888 1.349 . S
C877 C875 1.327 . S
C877 C893 1.429 . S
C877 H899 0.950 . S
C878 H874 0.949 . S
C878 C886 1.574 . S
C878 C894 1.368 . S
H879 C887 0.950 . S
H880 C885 0.950 . S
H881 C886 0.949 . S
H882 C888 0.950 . S
H883 C889 0.950 . S
H884 C890 0.949 . S
C885 H880 0.950 . S
C885 C887 1.327 . S
C885 C891 1.429 . S
C886 C878 1.574 . S
C886 H881 0.949 . S
C886 C892 1.368 . S
C887 C871 1.349 . S
C887 H879 0.950 . S
C887 C885 1.327 . S
C888 C876 1.349 . S
C888 H882 0.950 . S
C888 C889 1.327 . S
C889 H883 0.950 . S
C889 C888 1.327 . S
C889 C893 1.429 . S
C890 C873 1.574 . S
C890 H884 0.949 . S
C890 C894 1.368 . S
C891 C872 1.429 . S
C891 C885 1.429 . S
C891 C892 1.523 . S
C892 C873 1.368 . S
C892 C886 1.368 . S
C892 C891 1.523 . S
C893 C877 1.429 . S
C893 C889 1.429 . S
C893 C894 1.523 . S
C894 C878 1.368 . S
C894 C890 1.368 . S
C894 C893 1.523 . S
H895 C870 0.950 . S
H896 C872 0.950 . S
H897 C873 0.949 . S
H898 C875 0.950 . S
H899 C877 0.950 . S
C900 C901 1.349 . S
C900 C902 1.327 . S
C900 H925 0.950 . S
C901 C900 1.349 . S
C901 C917 1.349 . S
C902 C900 1.327 . S
C902 C921 1.429 . S
C902 H926 0.950 . S
C903 C920 1.574 . S
C903 C922 1.368 . S
C903 H927 0.949 . S
H904 C908 0.949 . S
C905 C906 1.349 . S
C905 C907 1.327 . S
C905 H928 0.950 . S
C906 C905 1.349 . S
C906 C918 1.349 . S
C907 C905 1.327 . S
C907 C923 1.429 . S
C907 H929 0.950 . S
C908 H904 0.949 . S
C908 C916 1.574 . S
C908 C924 1.368 . S
H909 C917 0.950 . S
H910 C915 0.950 . S
H911 C916 0.949 . S
H912 C918 0.950 . S
H913 C919 0.950 . S
H914 C920 0.949 . S
C915 H910 0.950 . S
C915 C917 1.327 . S
C915 C921 1.429 . S
C916 C908 1.574 . S
C916 H911 0.949 . S
C916 C922 1.368 . S
C917 C901 1.349 . S
C917 H909 0.950 . S
C917 C915 1.327 . S
C918 C906 1.349 . S
C918 H912 0.950 . S
C918 C919 1.327 . S
C919 H913 0.950 . S
C919 C918 1.327 . S
C919 C923 1.429 . S
C920 C903 1.574 . S
C920 H914 0.949 . S
C920 C924 1.368 . S
C921 C902 1.429 . S
C921 C915 1.429 . S
C921 C922 1.523 . S
C922 C903 1.368 . S
C922 C916 1.368 . S
C922 C921 1.523 . S
C923 C907 1.429 . S
C923 C919 1.429 . S
C923 C924 1.523 . S
C924 C908 1.368 . S
C924 C920 1.368 . S
C924 C923 1.523 . S
H925 C900 0.950 . S
H926 C902 0.950 . S
H927 C903 0.949 . S
H928 C905 0.950 . S
H929 C907 0.950 . S
C930 C931 1.349 . S
C930 C932 1.327 . S
C930 H955 0.950 . S
C931 C930 1.349 . S
C931 C947 1.349 . S
C932 C930 1.327 . S
C932 C951 1.429 . S
C932 H956 0.950 . S
C933 C950 1.574 . S
C933 C952 1.368 . S
C933 H957 0.949 . S
H934 C938 0.949 . S
C935 C936 1.349 . S
C935 C937 1.327 . S
C935 H958 0.950 . S
C936 C935 1.349 . S
C936 C948 1.349 . S
C937 C935 1.327 . S
C937 C953 1.429 . S
C937 H959 0.950 . S
C938 H934 0.949 . S
C938 C946 1.574 . S
C938 C954 1.368 . S
H939 C947 0.950 . S
H940 C945 0.950 . S
H941 C946 0.949 . S
H942 C948 0.950 . S
H943 C949 0.950 . S
H944 C950 0.949 . S
C945 H940 0.950 . S
C945 C947 1.327 . S
C945 C951 1.429 . S
C946 C938 1.574 . S
C946 H941 0.949 . S
C946 C952 1.368 . S
C947 C931 1.349 . S
C947 H939 0.950 . S
C947 C945 1.327 . S
C948 C936 1.349 . S
C948 H942 0.950 . S
C948 C949 1.327 . S
C949 H943 0.950 . S
C949 C948 1.327 . S
C949 C953 1.429 . S
C950 C933 1.574 . S
C950 H944 0.949 . S
C950 C954 1.368 . S
C951 C932 1.429 . S
C951 C945 1.429 . S
C951 C952 1.523 . S
C952 C933 1.368 . S
C952 C946 1.368 . S
C952 C951 1.523 . S
C953 C937 1.429 . S
C953 C949 1.429 . S
C953 C954 1.523 . S
C954 C938 1.368 . S
C954 C950 1.368 . S
C954 C953 1.523 . S
H955 C930 0.950 . S
H956 C932 0.950 . S
H957 C933 0.949 . S
H958 C935 0.950 . S
H959 C937 0.950 . S
C960 C961 1.349 . S
C960 C962 1.327 . S
C960 H985 0.950 . S
C961 C960 1.349 . S
C961 C977 1.349 . S
C962 C960 1.327 . S
C962 C981 1.429 . S
C962 H986 0.950 . S
C963 C980 1.574 . S
C963 C982 1.368 . S
C963 H987 0.949 . S
H964 C968 0.949 . S
C965 C966 1.349 . S
C965 C967 1.327 . S
C965 H988 0.950 . S
C966 C965 1.349 . S
C966 C978 1.349 . S
C967 C965 1.327 . S
C967 C983 1.429 . S
C967 H989 0.950 . S
C968 H964 0.949 . S
C968 C976 1.574 . S
C968 C984 1.368 . S
H969 C977 0.950 . S
H970 C975 0.950 . S
H971 C976 0.949 . S
H972 C978 0.950 . S
H973 C979 0.950 . S
H974 C980 0.949 . S
C975 H970 0.950 . S
C975 C977 1.327 . S
C975 C981 1.429 . S
C976 C968 1.574 . S
C976 H971 0.949 . S
C976 C982 1.368 . S
C977 C961 1.349 . S
C977 H969 0.950 . S
C977 C975 1.327 . S
C978 C966 1.349 . S
C978 H972 0.950 . S
C978 C979 1.327 . S
C979 H973 0.950 . S
C979 C978 1.327 . S
C979 C983 1.429 . S
C980 C963 1.574 . S
C980 H974 0.949 . S
C980 C984 1.368 . S
C981 C962 1.429 . S
C981 C975 1.429 . S
C981 C982 1.523 . S
C982 C963 1.368 . S
C982 C976 1.368 . S
C982 C981 1.523 . S
C983 C967 1.429 . S
C983 C979 1.429 . S
C983 C984 1.523 . S
C984 C968 1.368 . S
C984 C980 1.368 . S
C984 C983 1.523 . S
H985 C960 0.950 . S
H986 C962 0.950 . S
H987 C963 0.949 . S
H988 C965 0.950 . S
H989 C967 0.950 . S
C990 C991 1.349 . S
C990 C992 1.327 . S
C990 H1015 0.950 . S
C991 C990 1.349 . S
C991 C1007 1.349 . S
C992 C990 1.327 . S
C992 C1011 1.429 . S
C992 H1016 0.950 . S
C993 C1010 1.574 . S
C993 C1012 1.368 . S
C993 H1017 0.949 . S
H994 C998 0.949 . S
C995 C996 1.349 . S
C995 C997 1.327 . S
C995 H1018 0.950 . S
C996 C995 1.349 . S
C996 C1008 1.349 . S
C997 C995 1.327 . S
C997 C1013 1.429 . S
C997 H1019 0.950 . S
C998 H994 0.949 . S
C998 C1006 1.574 . S
C998 C1014 1.368 . S
H999 C1007 0.950 . S
H1000 C1005 0.950 . S
H1001 C1006 0.949 . S
H1002 C1008 0.950 . S
H1003 C1009 0.950 . S
H1004 C1010 0.949 . S
C1005 H1000 0.950 . S
C1005 C1007 1.327 . S
C1005 C1011 1.429 . S
C1006 C998 1.574 . S
C1006 H1001 0.949 . S
C1006 C1012 1.368 . S
C1007 C991 1.349 . S
C1007 H999 0.950 . S
C1007 C1005 1.327 . S
C1008 C996 1.349 . S
C1008 H1002 0.950 . S
C1008 C1009 1.327 . S
C1009 H1003 0.950 . S
C1009 C1008 1.327 . S
C1009 C1013 1.429 . S
C1010 C993 1.574 . S
C1010 H1004 0.949 . S
C1010 C1014 1.368 . S
C1011 C992 1.429 . S
C1011 C1005 1.429 . S
C1011 C1012 1.523 . S
C1012 C993 1.368 . S
C1012 C1006 1.368 . S
C1012 C1011 1.523 . S
C1013 C997 1.429 . S
C1013 C1009 1.429 . S
C1013 C1014 1.523 . S
C1014 C998 1.368 . S
C1014 C1010 1.368 . S
C1014 C1013 1.523 . S
H1015 C990 0.950 . S
H1016 C992 0.950 . S
H1017 C993 0.949 . S
H1018 C995 0.950 . S
H1019 C997 0.950 . S
C1020 C1021 1.349 . S
C1020 C1022 1.327 . S
C1020 H1045 0.950 . S
C1021 C1020 1.349 . S
C1021 C1037 1.349 . S
C1022 C1020 1.327 . S
C1022 C1041 1.429 . S
C1022 H1046 0.950 . S
C1023 C1040 1.574 . S
C1023 C1042 1.368 . S
C1023 H1047 0.949 . S
H1024 C1028 0.949 . S
C1025 C1026 1.349 . S
C1025 C1027 1.327 . S
C1025 H1048 0.950 . S
C1026 C1025 1.349 . S
C1026 C1038 1.349 . S
C1027 C1025 1.327 . S
C1027 C1043 1.429 . S
C1027 H1049 0.950 . S
C1028 H1024 0.949 . S
C1028 C1036 1.574 . S
C1028 C1044 1.368 . S
H1029 C1037 0.950 . S
H1030 C1035 0.950 . S
H1031 C1036 0.949 . S
H1032 C1038 0.950 . S
H1033 C1039 0.950 . S
H1034 C1040 0.949 . S
C1035 H1030 0.950 . S
C1035 C1037 1.327 . S
C1035 C1041 1.429 . S
C1036 C1028 1.574 . S
C1036 H1031 0.949 . S
C1036 C1042 1.368 . S
C1037 C1021 1.349 . S
C1037 H1029 0.950 . S
C1037 C1035 1.327 . S
C1038 C1026 1.349 . S
C1038 H1032 0.950 . S
C1038 C1039 1.327 . S
C1039 H1033 0.950 . S
C1039 C1038 1.327 . S
C1039 C1043 1.429 . S
C1040 C1023 1.574 . S
C1040 H1034 0.949 . S
C1040 C1044 1.368 . S
C1041 C1022 1.429 . S
C1041 C1035 1.429 . S
C1041 C1042 1.523 . S
C1042 C1023 1.368 . S
C1042 C1036 1.368 . S
C1042 C1041 1.523 . S
C1043 C1027 1.429 . S
C1043 C1039 1.429 . S
C1043 C1044 1.523 . S
C1044 C1028 1.368 . S
C1044 C1040 1.368 . S
C1044 C1043 1.523 . S
H1045 C1020 0.950 . S
H1046 C1022 0.950 . S
H1047 C1023 0.949 . S
H1048 C1025 0.950 . S
H1049 C1027 0.950 . S
C1050 C1051 1.349 . S
C1050 C1052 1.327 . S
C1050 H1075 0.950 . S
C1051 C1050 1.349 . S
C1051 C1067 1.349 . S
C1052 C1050 1.327 . S
C1052 C1071 1.429 . S
C1052 H1076 0.950 . S
C1053 C1070 1.574 . S
C1053 C1072 1.368 . S
C1053 H1077 0.949 . S
H1054 C1058 0.949 . S
C1055 C1056 1.349 . S
C1055 C1057 1.327 . S
C1055 H1078 0.950 . S
C1056 C1055 1.349 . S
C1056 C1068 1.349 . S
C1057 C1055 1.327 . S
C1057 C1073 1.429 . S
C1057 H1079 0.950 . S
C1058 H1054 0.949 . S
C1058 C1066 1.574 . S
C1058 C1074 1.368 . S
H1059 C1067 0.950 . S
H1060 C1065 0.950 . S
H1061 C1066 0.949 . S
H1062 C1068 0.950 . S
H1063 C1069 0.950 . S
H1064 C1070 0.949 . S
C1065 H1060 0.950 . S
C1065 C1067 1.327 . S
C1065 C1071 1.429 . S
C1066 C1058 1.574 . S
C1066 H1061 0.949 . S
C1066 C1072 1.368 . S
C1067 C1051 1.349 . S
C1067 H1059 0.950 . S
C1067 C1065 1.327 . S
C1068 C1056 1.349 . S
C1068 H1062 0.950 . S
C1068 C1069 1.327 . S
C1069 H1063 0.950 . S
C1069 C1068 1.327 . S
C1069 C1073 1.429 . S
C1070 C1053 1.574 . S
C1070 H1064 0.949 . S
C1070 C1074 1.368 . S
C1071 C1052 1.429 . S
C1071 C1065 1.429 . S
C1071 C1072 1.523 . S
C1072 C1053 1.368 . S
C1072 C1066 1.368 . S
C1072 C1071 1.523 . S
C1073 C1057 1.429 . S
C1073 C1069 1.429 . S
C1073 C1074 1.523 . S
C1074 C1058 1.368 . S
C1074 C1070 1.368 . S
C1074 C1073 1.523 . S
H1075 C1050 0.950 . S
H1076 C1052 0.950 . S
H1077 C1053 0.949 . S
H1078 C1055 0.950 . S
H1079 C1057 0.950 . S
C1080 C1081 1.349 . S
C1080 C1082 1.327 . S
C1080 H1105 0.950 . S
C1081 C1080 1.349 . S
C1081 C1097 1.349 . S
C1082 C1080 1.327 . S
C1082 C1101 1.429 . S
C1082 H1106 0.950 . S
C1083 C1100 1.574 . S
C1083 C1102 1.368 . S
C1083 H1107 0.949 . S
H1084 C1088 0.949 . S
C1085 C1086 1.349 . S
C1085 C1087 1.327 . S
C1085 H1108 0.950 . S
C1086 C1085 1.349 . S
C1086 C1098 1.349 . S
C1087 C1085 1.327 . S
C1087 C1103 1.429 . S
C1087 H1109 0.950 . S
C1088 H1084 0.949 . S
C1088 C1096 1.574 . S
C1088 C1104 1.368 . S
H1089 C1097 0.950 . S
H1090 C1095 0.950 . S
H1091 C1096 0.949 . S
H1092 C1098 0.950 . S
H1093 C1099 0.950 . S
H1094 C1100 0.949 . S
C1095 H1090 0.950 . S
C1095 C1097 1.327 . S
C1095 C1101 1.429 . S
C1096 C1088 1.574 . S
C1096 H1091 0.949 . S
C1096 C1102 1.368 . S
C1097 C1081 1.349 . S
C1097 H1089 0.950 . S
C1097 C1095 1.327 . S
C1098 C1086 1.349 . S
C1098 H1092 0.950 . S
C1098 C1099 1.327 . S
C1099 H1093 0.950 . S
C1099 C1098 1.327 . S
C1099 C1103 1.429 . S
C1100 C1083 1.574 . S
C1100 H1094 0.949 . S
C1100 C1104 1.368 . S
C1101 C1082 1.429 . S
C1101 C1095 1.429 . S
C1101 C1102 1.523 . S
C1102 C1083 1.368 . S
C1102 C1096 1.368 . S
C1102 C1101 1.523 . S
C1103 C1087 1.429 . S
C1103 C1099 1.429 . S
C1103 C1104 1.523 . S
C1104 C1088 1.368 . S
C1104 C1100 1.368 . S
C1104 C1103 1.523 . S
H1105 C1080 0.950 . S
H1106 C1082 0.950 . S
H1107 C1083 0.949 . S
H1108 C1085 0.950 . S
H1109 C1087 0.950 . S
C1110 C1111 1.349 . S
C1110 C1112 1.327 . S
C1110 H1135 0.950 . S
C1111 C1110 1.349 . S
C1111 C1127 1.349 . S
C1112 C1110 1.327 . S
C1112 C1131 1.429 . S
C1112 H1136 0.950 . S
C1113 C1130 1.574 . S
C1113 C1132 1.368 . S
C1113 H1137 0.949 . S
H1114 C1118 0.949 . S
C1115 C1116 1.349 . S
C1115 C1117 1.327 . S
C1115 H1138 0.950 . S
C1116 C1115 1.349 . S
C1116 C1128 1.349 . S
C1117 C1115 1.327 . S
C1117 C1133 1.429 . S
C1117 H1139 0.950 . S
C1118 H1114 0.949 . S
C1118 C1126 1.574 . S
C1118 C1134 1.368 . S
H1119 C1127 0.950 . S
H1120 C1125 0.950 . S
H1121 C1126 0.949 . S
H1122 C1128 0.950 . S
H1123 C1129 0.950 . S
H1124 C1130 0.949 . S
C1125 H1120 0.950 . S
C1125 C1127 1.327 . S
C1125 C1131 1.429 . S
C1126 C1118 1.574 . S
C1126 H1121 0.949 . S
C1126 C1132 1.368 . S
C1127 C1111 1.349 . S
C1127 H1119 0.950 . S
C1127 C1125 1.327 . S
C1128 C1116 1.349 . S
C1128 H1122 0.950 . S
C1128 C1129 1.327 . S
C1129 H1123 0.950 . S
C1129 C1128 1.327 . S
C1129 C1133 1.429 . S
C1130 C1113 1.574 . S
C1130 H1124 0.949 . S
C1130 C1134 1.368 . S
C1131 C1112 1.429 . S
C1131 C1125 1.429 . S
C1131 C1132 1.523 . S
C1132 C1113 1.368 . S
C1132 C1126 1.368 . S
C1132 C1131 1.523 . S
C1133 C1117 1.429 . S
C1133 C1129 1.429 . S
C1133 C1134 1.523 . S
C1134 C1118 1.368 . S
C1134 C1130 1.368 . S
C1134 C1133 1.523 . S
H1135 C1110 0.950 . S
H1136 C1112 0.950 . S
H1137 C1113 0.949 . S
H1138 C1115 0.950 . S
H1139 C1117 0.950 . S
C1140 C1141 1.349 . S
C1140 C1142 1.327 . S
C1140 H1165 0.950 . S
C1141 C1140 1.349 . S
C1141 C1157 1.349 . S
C1142 C1140 1.327 . S
C1142 C1161 1.429 . S
C1142 H1166 0.950 . S
C1143 C1160 1.574 . S
C1143 C1162 1.368 . S
C1143 H1167 0.949 . S
H1144 C1148 0.949 . S
C1145 C1146 1.349 . S
C1145 C1147 1.327 . S
C1145 H1168 0.950 . S
C1146 C1145 1.349 . S
C1146 C1158 1.349 . S
C1147 C1145 1.327 . S
C1147 C1163 1.429 . S
C1147 H1169 0.950 . S
C1148 H1144 0.949 . S
C1148 C1156 1.574 . S
C1148 C1164 1.368 . S
H1149 C1157 0.950 . S
H1150 C1155 0.950 . S
H1151 C1156 0.949 . S
H1152 C1158 0.950 . S
H1153 C1159 0.950 . S
H1154 C1160 0.949 . S
C1155 H1150 0.950 . S
C1155 C1157 1.327 . S
C1155 C1161 1.429 . S
C1156 C1148 1.574 . S
C1156 H1151 0.949 . S
C1156 C1162 1.368 . S
C1157 C1141 1.349 . S
C1157 H1149 0.950 . S
C1157 C1155 1.327 . S
C1158 C1146 1.349 . S
C1158 H1152 0.950 . S
C1158 C1159 1.327 . S
C1159 H1153 0.950 . S
C1159 C1158 1.327 . S
C1159 C1163 1.429 . S
C1160 C1143 1.574 . S
C1160 H1154 0.949 . S
C1160 C1164 1.368 . S
C1161 C1142 1.429 . S
C1161 C1155 1.429 . S
C1161 C1162 1.523 . S
C1162 C1143 1.368 . S
C1162 C1156 1.368 . S
C1162 C1161 1.523 . S
C1163 C1147 1.429 . S
C1163 C1159 1.429 . S
C1163 C1164 1.523 . S
C1164 C1148 1.368 . S
C1164 C1160 1.368 . S
C1164 C1163 1.523 . S
H1165 C1140 0.950 . S
H1166 C1142 0.950 . S
H1167 C1143 0.949 . S
H1168 C1145 0.950 . S
H1169 C1147 0.950 . S
C1170 C1171 1.349 . S
C1170 C1172 1.327 . S
C1170 H1195 0.950 . S
C1171 C1170 1.349 . S
C1171 C1187 1.349 . S
C1172 C1170 1.327 . S
C1172 C1191 1.429 . S
C1172 H1196 0.950 . S
C1173 C1190 1.574 . S
C1173 C1192 1.368 . S
C1173 H1197 0.949 . S
H1174 C1178 0.949 . S
C1175 C1176 1.349 . S
C1175 C1177 1.327 . S
C1175 H1198 0.950 . S
C1176 C1175 1.349 . S
C1176 C1188 1.349 . S
C1177 C1175 1.327 . S
C1177 C1193 1.429 . S
C1177 H1199 0.950 . S
C1178 H1174 0.949 . S
C1178 C1186 1.574 . S
C1178 C1194 1.368 . S
H1179 C1187 0.950 . S
H1180 C1185 0.950 . S
H1181 C1186 0.949 . S
H1182 C1188 0.950 . S
H1183 C1189 0.950 . S
H1184 C1190 0.949 . S
C1185 H1180 0.950 . S
C1185 C1187 1.327 . S
C1185 C1191 1.429 . S
C1186 C1178 1.574 . S
C1186 H1181 0.949 . S
C1186 C1192 1.368 . S
C1187 C1171 1.349 . S
C1187 H1179 0.950 . S
C1187 C1185 1.327 . S
C1188 C1176 1.349 . S
C1188 H1182 0.950 . S
C1188 C1189 1.327 . S
C1189 H1183 0.950 . S
C1189 C1188 1.327 . S
C1189 C1193 1.429 . S
C1190 C1173 1.574 . S
C1190 H1184 0.949 . S
C1190 C1194 1.368 . S
C1191 C1172 1.429 . S
C1191 C1185 1.429 . S
C1191 C1192 1.523 . S
C1192 C1173 1.368 . S
C1192 C1186 1.368 . S
C1192 C1191 1.523 . S
C1193 C1177 1.429 . S
C1193 C1189 1.429 . S
C1193 C1194 1.523 . S
C1194 C1178 1.368 . S
C1194 C1190 1.368 . S
C1194 C1193 1.523 . S
H1195 C1170 0.950 . S
H1196 C1172 0.950 . S
H1197 C1173 0.949 . S
H1198 C1175 0.950 . S
H1199 C1177 0.950 . S
C1200 C1201 1.349 . S
C1200 C1202 1.327 . S
C1200 H1225 0.950 . S
C1201 C1200 1.349 . S
C1201 C1217 1.349 . S
C1202 C1200 1.327 . S
C1202 C1221 1.429 . S
C1202 H1226 0.950 . S
C1203 C1220 1.574 . S
C1203 C1222 1.368 . S
C1203 H1227 0.949 . S
H1204 C1208 0.949 . S
C1205 C1206 1.349 . S
C1205 C1207 1.327 . S
C1205 H1228 0.950 . S
C1206 C1205 1.349 . S
C1206 C1218 1.349 . S
C1207 C1205 1.327 . S
C1207 C1223 1.429 . S
C1207 H1229 0.950 . S
C1208 H1204 0.949 . S
C1208 C1216 1.574 . S
C1208 C1224 1.368 . S
H1209 C1217 0.950 . S
H1210 C1215 0.950 . S
H1211 C1216 0.949 . S
H1212 C1218 0.950 . S
H1213 C1219 0.950 . S
H1214 C1220 0.949 . S
C1215 H1210 0.950 . S
C1215 C1217 1.327 . S
C1215 C1221 1.429 . S
C1216 C1208 1.574 . S
C1216 H1211 0.949 . S
C1216 C1222 1.368 . S
C1217 C1201 1.349 . S
C1217 H1209 0.950 . S
C1217 C1215 1.327 . S
C1218 C1206 1.349 . S
C1218 H1212 0.950 . S
C1218 C1219 1.327 . S
C1219 H1213 0.950 . S
C1219 C1218 1.327 . S
C1219 C1223 1.429 . S
C1220 C1203 1.574 . S
C1220 H1214 0.949 . S
C1220 C1224 1.368 . S
C1221 C1202 1.429 . S
C1221 C1215 1.429 . S
C1221 C1222 1.523 . S
C1222 C1203 1.368 . S
C1222 C1216 1.368 . S
C1222 C1221 1.523 . S
C1223 C1207 1.429 . S
C1223 C1219 1.429 . S
C1223 C1224 1.523 . S
C1224 C1208 1.368 . S
C1224 C1220 1.368 . S
C1224 C1223 1.523 . S
H1225 C1200 0.950 . S
H1226 C1202 0.950 . S
H1227 C1203 0.949 . S
H1228 C1205 0.950 . S
H1229 C1207 0.950 . S
C1230 C1231 1.349 . S
C1230 C1232 1.327 . S
C1230 H1255 0.950 . S
C1231 C1230 1.349 . S
C1231 C1247 1.349 . S
C1232 C1230 1.327 . S
C1232 C1251 1.429 . S
C1232 H1256 0.950 . S
C1233 C1250 1.574 . S
C1233 C1252 1.368 . S
C1233 H1257 0.949 . S
H1234 C1238 0.949 . S
C1235 C1236 1.349 . S
C1235 C1237 1.327 . S
C1235 H1258 0.950 . S
C1236 C1235 1.349 . S
C1236 C1248 1.349 . S
C1237 C1235 1.327 . S
C1237 C1253 1.429 . S
C1237 H1259 0.950 . S
C1238 H1234 0.949 . S
C1238 C1246 1.574 . S
C1238 C1254 1.368 . S
H1239 C1247 0.950 . S
H1240 C1245 0.950 . S
H1241 C1246 0.949 . S
H1242 C1248 0.950 . S
H1243 C1249 0.950 . S
H1244 C1250 0.949 . S
C1245 H1240 0.950 . S
C1245 C1247 1.327 . S
C1245 C1251 1.429 . S
C1246 C1238 1.574 . S
C1246 H1241 0.949 . S
C1246 C1252 1.368 . S
C1247 C1231 1.349 . S
C1247 H1239 0.950 . S
C1247 C1245 1.327 . S
C1248 C1236 1.349 . S
C1248 H1242 0.950 . S
C1248 C1249 1.327 . S
C1249 H1243 0.950 . S
C1249 C1248 1.327 . S
C1249 C1253 1.429 . S
C1250 C1233 1.574 . S
C1250 H1244 0.949 . S
C1250 C1254 1.368 . S
C1251 C1232 1.429 . S
C1251 C1245 1.429 . S
C1251 C1252 1.523 . S
C1252 C1233 1.368 . S
C1252 C1246 1.368 . S
C1252 C1251 1.523 . S
C1253 C1237 1.429 . S
C1253 C1249 1.429 . S
C1253 C1254 1.523 . S
C1254 C1238 1.368 . S
C1254 C1250 1.368 . S
C1254 C1253 1.523 . S
H1255 C1230 0.950 . S
H1256 C1232 0.950 . S
H1257 C1233 0.949 . S
H1258 C1235 0.950 . S
H1259 C1237 0.950 . S
C1260 C1261 1.349 . S
C1260 C1262 1.327 . S
C1260 H1285 0.950 . S
C1261 C1260 1.349 . S
C1261 C1277 1.349 . S
C1262 C1260 1.327 . S
C1262 C1281 1.429 . S
C1262 H1286 0.950 . S
C1263 C1280 1.574 . S
C1263 C1282 1.368 . S
C1263 H1287 0.949 . S
H1264 C1268 0.949 . S
C1265 C1266 1.349 . S
C1265 C1267 1.327 . S
C1265 H1288 0.950 . S
C1266 C1265 1.349 . S
C1266 C1278 1.349 . S
C1267 C1265 1.327 . S
C1267 C1283 1.429 . S
C1267 H1289 0.950 . S
C1268 H1264 0.949 . S
C1268 C1276 1.574 . S
C1268 C1284 1.368 . S
H1269 C1277 0.950 . S
H1270 C1275 0.950 . S
H1271 C1276 0.949 . S
H1272 C1278 0.950 . S
H1273 C1279 0.950 . S
H1274 C1280 0.949 . S
C1275 H1270 0.950 . S
C1275 C1277 1.327 . S
C1275 C1281 1.429 . S
C1276 C1268 1.574 . S
C1276 H1271 0.949 . S
C1276 C1282 1.368 . S
C1277 C1261 1.349 . S
C1277 H1269 0.950 . S
C1277 C1275 1.327 . S
C1278 C1266 1.349 . S
C1278 H1272 0.950 . S
C1278 C1279 1.327 . S
C1279 H1273 0.950 . S
C1279 C1278 1.327 . S
C1279 C1283 1.429 . S
C1280 C1263 1.574 . S
C1280 H1274 0.949 . S
C1280 C1284 1.368 . S
C1281 C1262 1.429 . S
C1281 C1275 1.429 . S
C1281 C1282 1.523 . S
C1282 C1263 1.368 . S
C1282 C1276 1.368 . S
C1282 C1281 1.523 . S
C1283 C1267 1.429 . S
C1283 C1279 1.429 . S
C1283 C1284 1.523 . S
C1284 C1268 1.368 . S
C1284 C1280 1.368 . S
C1284 C1283 1.523 . S
H1285 C1260 0.950 . S
H1286 C1262 0.950 . S
H1287 C1263 0.949 . S
H1288 C1265 0.950 . S
H1289 C1267 0.950 . S
C1290 C1291 1.349 . S
C1290 C1292 1.327 . S
C1290 H1315 0.950 . S
C1291 C1290 1.349 . S
C1291 C1307 1.349 . S
C1292 C1290 1.327 . S
C1292 C1311 1.429 . S
C1292 H1316 0.950 . S
C1293 C1310 1.574 . S
C1293 C1312 1.368 . S
C1293 H1317 0.949 . S
H1294 C1298 0.949 . S
C1295 C1296 1.349 . S
C1295 C1297 1.327 . S
C1295 H1318 0.950 . S
C1296 C1295 1.349 . S
C1296 C1308 1.349 . S
C1297 C1295 1.327 . S
C1297 C1313 1.429 . S
C1297 H1319 0.950 . S
C1298 H1294 0.949 . S
C1298 C1306 1.574 . S
C1298 C1314 1.368 . S
H1299 C1307 0.950 . S
H1300 C1305 0.950 . S
H1301 C1306 0.949 . S
H1302 C1308 0.950 . S
H1303 C1309 0.950 . S
H1304 C1310 0.949 . S
C1305 H1300 0.950 . S
C1305 C1307 1.327 . S
C1305 C1311 1.429 . S
C1306 C1298 1.574 . S
C1306 H1301 0.949 . S
C1306 C1312 1.368 . S
C1307 C1291 1.349 . S
C1307 H1299 0.950 . S
C1307 C1305 1.327 . S
C1308 C1296 1.349 . S
C1308 H1302 0.950 . S
C1308 C1309 1.327 . S
C1309 H1303 0.950 . S
C1309 C1308 1.327 . S
C1309 C1313 1.429 . S
C1310 C1293 1.574 . S
C1310 H1304 0.949 . S
C1310 C1314 1.368 . S
C1311 C1292 1.429 . S
C1311 C1305 1.429 . S
C1311 C1312 1.523 . S
C1312 C1293 1.368 . S
C1312 C1306 1.368 . S
C1312 C1311 1.523 . S
C1313 C1297 1.429 . S
C1313 C1309 1.429 . S
C1313 C1314 1.523 . S
C1314 C1298 1.368 . S
C1314 C1310 1.368 . S
C1314 C1313 1.523 . S
H1315 C1290 0.950 . S
H1316 C1292 0.950 . S
H1317 C1293 0.949 . S
H1318 C1295 0.950 . S
H1319 C1297 0.950 . S
C1320 C1321 1.349 . S
C1320 C1322 1.327 . S
C1320 H1345 0.950 . S
C1321 C1320 1.349 . S
C1321 C1337 1.349 . S
C1322 C1320 1.327 . S
C1322 C1341 1.429 . S
C1322 H1346 0.950 . S
C1323 C1340 1.574 . S
C1323 C1342 1.368 . S
C1323 H1347 0.949 . S
H1324 C1328 0.949 . S
C1325 C1326 1.349 . S
C1325 C1327 1.327 . S
C1325 H1348 0.950 . S
C1326 C1325 1.349 . S
C1326 C1338 1.349 . S
C1327 C1325 1.327 . S
C1327 C1343 1.429 . S
C1327 H1349 0.950 . S
C1328 H1324 0.949 . S
C1328 C1336 1.574 . S
C1328 C1344 1.368 . S
H1329 C1337 0.950 . S
H1330 C1335 0.950 . S
H1331 C1336 0.949 . S
H1332 C1338 0.950 . S
H1333 C1339 0.950 . S
H1334 C1340 0.949 . S
C1335 H1330 0.950 . S
C1335 C1337 1.327 . S
C1335 C1341 1.429 . S
C1336 C1328 1.574 . S
C1336 H1331 0.949 . S
C1336 C1342 1.368 . S
C1337 C1321 1.349 . S
C1337 H1329 0.950 . S
C1337 C1335 1.327 . S
C1338 C1326 1.349 . S
C1338 H1332 0.950 . S
C1338 C1339 1.327 . S
C1339 H1333 0.950 . S
C1339 C1338 1.327 . S
C1339 C1343 1.429 . S
C1340 C1323 1.574 . S
C1340 H1334 0.949 . S
C1340 C1344 1.368 . S
C1341 C1322 1.429 . S
C1341 C1335 1.429 . S
C1341 C1342 1.523 . S
C1342 C1323 1.368 . S
C1342 C1336 1.368 . S
C1342 C1341 1.523 . S
C1343 C1327 1.429 . S
C1343 C1339 1.429 . S
C1343 C1344 1.523 . S
C1344 C1328 1.368 . S
C1344 C1340 1.368 . S
C1344 C1343 1.523 . S
H1345 C1320 0.950 . S
H1346 C1322 0.950 . S
H1347 C1323 0.949 . S
H1348 C1325 0.950 . S
H1349 C1327 0.950 . S
C636 C334 1.577 . S
C631 C16 1.581 . S
C666 C403 1.542 . S
C661 C55 1.548 . S
C696 C341 1.563 . S
C691 C99 1.568 . S
C726 C404 1.539 . S
C721 C138 1.542 . S
C756 C457 1.573 . S
C751 C1 1.576 . S
C786 C493 1.526 . S
C781 C40 1.525 . S
C811 C94 1.555 . S
C816 C553 1.552 . S
C846 C616 1.523 . S
C841 C133 1.523 . S
C876 C456 1.546 . S
C871 C60 1.549 . S
C901 C79 1.534 . S
C906 C500 1.532 . S
C936 C546 1.540 . S
C931 C118 1.540 . S
C966 C615 1.533 . S
C961 C21 1.536 . S
C991 C177 1.551 . S
C996 C394 1.547 . S
C1026 C351 1.559 . S
C1021 C211 1.565 . S
C1051 C255 1.551 . S
C1056 C387 1.548 . S
C1081 C289 1.575 . S
C1086 C350 1.571 . S
C1116 C562 1.541 . S
C1111 C157 1.543 . S
C1146 C606 1.531 . S
C1141 C196 1.531 . S
C1176 C440 1.557 . S
C1171 C250 1.563 . S
C1201 C294 1.526 . S
C1206 C509 1.527 . S
C1236 C563 1.545 . S
C1231 C216 1.550 . S
C1266 C599 1.529 . S
C1261 C235 1.529 . S
C1296 C447 1.571 . S
C1291 C274 1.573 . S
C1321 C172 1.528 . S
C1326 C510 1.528 . S
