# Generated by pormake.
# Topology zzz, (3,6)-cn, num edge types: 1
# Building blocks:
#     Node 0, Type 0, BuildingBlock: VETTIZ_charged_linker_0, # of connection points: 3
#     Node 1, Type 0, BuildingBlock: VETTIZ_charged_linker_0, # of connection points: 3
#     Node 2, Type 0, BuildingBlock: VETTIZ_charged_linker_0, # of connection points: 3
#     Node 3, Type 0, BuildingBlock: VETTIZ_charged_linker_0, # of connection points: 3
#     Node 4, Type 0, BuildingBlock: VETTIZ_charged_linker_0, # of connection points: 3
#     Node 5, Type 0, BuildingBlock: VETTIZ_charged_linker_0, # of connection points: 3
#     Node 6, Type 0, BuildingBlock: VETTIZ_charged_linker_0, # of connection points: 3
#     Node 7, Type 0, BuildingBlock: VETTIZ_charged_linker_0, # of connection points: 3
#     Node 8, Type 1, BuildingBlock: HISSIN_clean_sbu_0, # of connection points: 6
#     Node 9, Type 1, BuildingBlock: HISSIN_clean_sbu_0, # of connection points: 6
#     Node 10, Type 1, BuildingBlock: HISSIN_clean_sbu_0, # of connection points: 6
#     Node 11, Type 1, BuildingBlock: HISSIN_clean_sbu_0, # of connection points: 6
#     Edge 12, Type (0, 1), BuildingBlock: MIFKUJ_clean_linker_0, # of connection points: 2
#     Edge 13, Type (0, 1), BuildingBlock: MIFKUJ_clean_linker_0, # of connection points: 2
#     Edge 14, Type (0, 1), BuildingBlock: MIFKUJ_clean_linker_0, # of connection points: 2
#     Edge 15, Type (0, 1), BuildingBlock: MIFKUJ_clean_linker_0, # of connection points: 2
#     Edge 16, Type (0, 1), BuildingBlock: MIFKUJ_clean_linker_0, # of connection points: 2
#     Edge 17, Type (0, 1), BuildingBlock: MIFKUJ_clean_linker_0, # of connection points: 2
#     Edge 18, Type (0, 1), BuildingBlock: MIFKUJ_clean_linker_0, # of connection points: 2
#     Edge 19, Type (0, 1), BuildingBlock: MIFKUJ_clean_linker_0, # of connection points: 2
#     Edge 20, Type (0, 1), BuildingBlock: MIFKUJ_clean_linker_0, # of connection points: 2
#     Edge 21, Type (0, 1), BuildingBlock: MIFKUJ_clean_linker_0, # of connection points: 2
#     Edge 22, Type (0, 1), BuildingBlock: MIFKUJ_clean_linker_0, # of connection points: 2
#     Edge 23, Type (0, 1), BuildingBlock: MIFKUJ_clean_linker_0, # of connection points: 2
#     Edge 24, Type (0, 1), BuildingBlock: MIFKUJ_clean_linker_0, # of connection points: 2
#     Edge 25, Type (0, 1), BuildingBlock: MIFKUJ_clean_linker_0, # of connection points: 2
#     Edge 26, Type (0, 1), BuildingBlock: MIFKUJ_clean_linker_0, # of connection points: 2
#     Edge 27, Type (0, 1), BuildingBlock: MIFKUJ_clean_linker_0, # of connection points: 2
#     Edge 28, Type (0, 1), BuildingBlock: MIFKUJ_clean_linker_0, # of connection points: 2
#     Edge 29, Type (0, 1), BuildingBlock: MIFKUJ_clean_linker_0, # of connection points: 2
#     Edge 30, Type (0, 1), BuildingBlock: MIFKUJ_clean_linker_0, # of connection points: 2
#     Edge 31, Type (0, 1), BuildingBlock: MIFKUJ_clean_linker_0, # of connection points: 2
#     Edge 32, Type (0, 1), BuildingBlock: MIFKUJ_clean_linker_0, # of connection points: 2
#     Edge 33, Type (0, 1), BuildingBlock: MIFKUJ_clean_linker_0, # of connection points: 2
#     Edge 34, Type (0, 1), BuildingBlock: MIFKUJ_clean_linker_0, # of connection points: 2
#     Edge 35, Type (0, 1), BuildingBlock: MIFKUJ_clean_linker_0, # of connection points: 2
# Relax obj value: 0.363
# Max RMSD: 0.214
# Mean RMSD: 0.191
data_MOF--net-zzz--node1-HISSIN_clean_sbu_0--node2-VETTIZ_charged_linker_0--edge1-MIFKUJ_clean_linker_0
_symmetry_space_group_name_H-M    P1
_symmetry_Int_Tables_number       1
_symmetry_cell_setting            triclinic
loop_
_symmetry_equiv_pos_as_xyz
'x, y, z'
_cell_length_a     69.656036
_cell_length_b     70.09489
_cell_length_c     26.854887
_cell_angle_alpha  89.593671
_cell_angle_beta   92.209625
_cell_angle_gamma 91.697965
loop_
_atom_site_label
_atom_site_type_symbol
_atom_site_fract_x
_atom_site_fract_y
_atom_site_fract_z
_atom_type_partial_charge
C0 C 0.78721 0.55204 0.28289 0.0
C1 C 0.80524 0.56057 0.29749 0.0
C2 C 0.8126 0.5758 0.26882 0.0
C3 C 0.7853 0.57323 0.21087 0.0
C4 C 0.77727 0.55893 0.23972 0.0
C5 C 0.75757 0.55267 0.21846 0.0
H6 H 0.68904 0.56286 0.0299 0.0
C7 C 0.77232 0.57688 0.16756 0.0
C8 C 0.75556 0.56542 0.17208 0.0
H9 H 0.68614 0.52356 0.15366 0.0
H10 H 0.71715 0.53602 0.18712 0.0
H11 H 0.7085 0.60033 0.09056 0.0
H12 H 0.72638 0.55416 1.00293 0.0
H13 H 0.74563 0.57062 0.9983 0.0
H14 H 0.72198 0.57689 0.97498 0.0
H15 H 0.70399 0.59737 0.02472 0.0
H16 H 0.72548 0.60959 0.04895 0.0
C17 C 0.74248 0.55704 0.25706 0.0
C18 C 0.75814 0.53134 0.20484 0.0
C19 C 0.7993 0.60963 0.01662 0.0
C20 C 0.79162 0.61184 0.96769 0.0
C21 C 0.77146 0.61114 0.96002 0.0
C22 C 0.75951 0.60543 0.99856 0.0
C23 C 0.76782 0.60035 0.04513 0.0
C24 C 0.7872 0.60374 0.05455 0.0
C25 C 0.79349 0.59788 0.10651 0.0
C26 C 0.77508 0.58826 0.12437 0.0
C27 C 0.76021 0.58967 0.08814 0.0
C28 C 0.79909 0.61625 0.13635 0.0
C29 C 0.80999 0.5836 0.10299 0.0
C30 C 0.69492 0.55722 0.0648 0.0
C31 C 0.68518 0.54254 0.08972 0.0
C32 C 0.69344 0.53507 0.13422 0.0
C33 C 0.7114 0.54227 0.15336 0.0
C34 C 0.72124 0.55682 0.12714 0.0
C35 C 0.71282 0.56393 0.08353 0.0
C36 C 0.72553 0.57801 0.05747 0.0
C37 C 0.74287 0.57886 0.09322 0.0
C38 C 0.74046 0.56655 0.13449 0.0
C39 C 0.71539 0.59738 0.05483 0.0
C40 C 0.73011 0.56967 1.00574 0.0
H41 H 0.80932 0.59365 0.206 0.0
H42 H 0.78102 0.5405 0.30463 0.0
H43 H 0.7714 0.52843 0.18476 0.0
H44 H 0.74602 0.52673 0.17971 0.0
H45 H 0.75807 0.52224 0.23888 0.0
H46 H 0.74506 0.57163 0.27239 0.0
H47 H 0.74323 0.54673 0.28865 0.0
H48 H 0.7277 0.55673 0.24084 0.0
H49 H 0.81464 0.61034 0.02445 0.0
H50 H 0.765 0.61357 0.92328 0.0
H51 H 0.7444 0.60405 0.98973 0.0
H52 H 0.79432 0.62944 0.11679 0.0
H53 H 0.81491 0.61781 0.14273 0.0
H54 H 0.79214 0.61646 0.17284 0.0
H55 H 0.80629 0.57264 0.07415 0.0
H56 H 0.81299 0.57566 0.1378 0.0
H57 H 0.82358 0.59106 0.09279 0.0
H58 H 0.8264 0.58255 0.27875 0.0
C59 C 0.80272 0.58221 0.22619 0.0
C60 C 0.90245 0.77889 0.99716 0.0
C61 C 0.89826 0.79845 0.99729 0.0
C62 C 0.90156 0.80847 0.04257 0.0
C63 C 0.91961 0.78225 0.07705 0.0
C64 C 0.91395 0.7714 0.03616 0.0
C65 C 0.92433 0.75291 0.03518 0.0
H66 H 1.00236 0.70231 0.09666 0.0
C67 C 0.93555 0.77256 0.10388 0.0
C68 C 0.93871 0.7556 0.07895 0.0
H69 H 0.95453 0.68883 0.99411 0.0
H70 H 0.93852 0.71651 0.01941 0.0
H71 H 1.0029 0.75155 0.08309 0.0
H72 H 0.97189 0.7178 0.19227 0.0
H73 H 0.98716 0.73638 0.21766 0.0
H74 H 0.99755 0.71634 0.18864 0.0
H75 H 0.01551 0.73595 0.12579 0.0
H76 H 0.00736 0.75857 0.14618 0.0
C77 C 0.93422 0.75142 0.98432 0.0
C78 C 0.90943 0.73662 0.04571 0.0
C79 C 0.96828 0.80702 0.24921 0.0
C80 C 0.98517 0.80487 0.27837 0.0
C81 C 0.99693 0.78934 0.26779 0.0
C82 C 0.99147 0.77604 0.22955 0.0
C83 C 0.97425 0.77846 0.20096 0.0
C84 C 0.96328 0.79405 0.21118 0.0
C85 C 0.94662 0.79621 0.17524 0.0
C86 C 0.94824 0.77864 0.14355 0.0
C87 C 0.96445 0.76792 0.15795 0.0
C88 C 0.95008 0.81504 0.14537 0.0
C89 C 0.92793 0.79549 0.20485 0.0
C90 C 0.98843 0.70551 0.07996 0.0
C91 C 0.97974 0.69339 0.04265 0.0
C92 C 0.9615 0.69781 0.02256 0.0
C93 C 0.95216 0.71397 0.03746 0.0
C94 C 0.96097 0.72622 0.07313 0.0
C95 C 0.97851 0.72182 0.09539 0.0
C96 C 0.98439 0.73647 0.13552 0.0
C97 C 0.96781 0.75048 0.13174 0.0
C98 C 0.95452 0.74428 0.09384 0.0
C99 C 1.00365 0.74619 0.12217 0.0
C100 C 0.98539 0.72626 0.18646 0.0
H101 H 0.9148 0.80912 0.11466 0.0
H102 H 0.89908 0.77014 0.96479 0.0
H103 H 0.89824 0.74146 0.07088 0.0
H104 H 0.9159 0.72435 0.06556 0.0
H105 H 0.90194 0.73158 0.01077 0.0
H106 H 0.93694 0.7657 0.96731 0.0
H107 H 0.92519 0.74298 0.957 0.0
H108 H 0.94861 0.74523 0.98759 0.0
H109 H 0.95926 0.81909 0.25484 0.0
H110 H 0.01019 0.78739 0.28936 0.0
H111 H 1.00088 0.76453 0.22309 0.0
H112 H 0.96549 0.81975 0.14653 0.0
H113 H 0.94184 0.82691 0.16033 0.0
H114 H 0.94642 0.81347 0.10522 0.0
H115 H 0.92867 0.78434 0.23449 0.0
H116 H 0.91501 0.79165 0.18149 0.0
H117 H 0.92565 0.80937 0.22311 0.0
H118 H 0.89809 0.82331 0.04603 0.0
C119 C 0.91193 0.80035 0.08256 0.0
C120 C 0.80754 0.99572 0.06025 0.0
C121 C 0.81991 0.98577 0.02848 0.0
C122 C 0.81581 0.96628 0.01931 0.0
C123 C 0.78585 0.96811 0.06047 0.0
C124 C 0.79065 0.98608 0.07759 0.0
C125 C 0.77628 0.99162 0.11692 0.0
H126 H 0.68979 0.96396 0.2247 0.0
C127 C 0.76718 0.96201 0.07822 0.0
C128 C 0.76147 0.9747 0.11475 0.0
H129 H 0.72549 0.01246 0.27092 0.0
H130 H 0.74832 0.00517 0.20624 0.0
H131 H 0.68723 0.97 0.12678 0.0
H132 H 0.72355 0.93383 0.20815 0.0
H133 H 0.71554 0.92171 0.15332 0.0
H134 H 0.69818 0.93134 0.19367 0.0
H135 H 0.68385 0.94507 0.11837 0.0
H136 H 0.69792 0.95933 0.07601 0.0
C137 C 0.76698 0.01053 0.10196 0.0
C138 C 0.787 0.9928 0.16801 0.0
C139 C 0.72257 0.92841 0.95388 0.0
C140 C 0.70336 0.92174 0.95669 0.0
C141 C 0.69597 0.91824 1.00427 0.0
C142 C 0.70642 0.92401 0.04747 0.0
C143 C 0.72434 0.93339 0.04298 0.0
C144 C 0.73285 0.93392 0.99753 0.0
C145 C 0.75301 0.9422 1.00134 0.0
C146 C 0.754 0.94868 0.05588 0.0
C147 C 0.73668 0.94455 0.07867 0.0
C148 C 0.75507 0.95925 0.96491 0.0
C149 C 0.76694 0.92616 0.9897 0.0
C150 C 0.70269 0.97289 0.22236 0.0
C151 C 0.70584 0.98848 0.25445 0.0
C152 C 0.72259 1.00016 0.24738 0.0
C153 C 0.73594 0.99584 0.21026 0.0
C154 C 0.73255 0.97977 0.17939 0.0
C155 C 0.71582 0.96894 0.18572 0.0
C156 C 0.71313 0.95318 0.14866 0.0
C157 C 0.73147 0.9554 0.12033 0.0
C158 C 0.74327 0.97096 0.13793 0.0
C159 C 0.69467 0.95694 0.11572 0.0
C160 C 0.71243 0.93393 0.17726 0.0
H161 H 0.79726 0.9422 0.03255 0.0
H162 H 0.81103 0.01026 0.07138 0.0
H163 H 0.79461 0.97935 0.17625 0.0
H164 H 0.77713 0.99498 0.19847 0.0
H165 H 0.79784 1.00477 0.16852 0.0
H166 H 0.76011 0.00945 0.06397 0.0
H167 H 0.77795 0.02237 0.10187 0.0
H168 H 0.75576 0.01424 0.128 0.0
H169 H 0.72903 0.93077 0.91832 0.0
H170 H 0.68163 0.91214 1.00798 0.0
H171 H 0.69998 0.92159 0.08264 0.0
H172 H 0.74458 0.97037 0.97295 0.0
H173 H 0.75268 0.95461 0.92569 0.0
H174 H 0.76968 0.96592 0.96771 0.0
H175 H 0.7602 0.91544 0.96362 0.0
H176 H 0.77154 0.9184 0.02417 0.0
H177 H 0.7797 0.93177 0.9703 0.0
H178 H 0.82549 0.95792 0.99829 0.0
C179 C 0.79915 0.95737 0.03637 0.0
C180 C 0.5004 0.725 0.23596 0.0
C181 C 0.49084 0.71001 0.26188 0.0
C182 C 0.47147 0.70563 0.24903 0.0
C183 C 0.47168 0.72925 0.18298 0.0
C184 C 0.4903 0.73475 0.19702 0.0
C185 C 0.49698 0.75192 0.16639 0.0
H186 H 0.47731 0.80989 0.96332 0.0
C187 C 0.4654 0.74065 0.13932 0.0
C188 C 0.47992 0.75442 0.12928 0.0
H189 H 0.52639 0.8161 0.06551 0.0
H190 H 0.51465 0.78871 0.11386 0.0
H191 H 0.47861 0.76689 0.95317 0.0
H192 H 0.4459 0.80257 0.04476 0.0
H193 H 0.42999 0.78464 0.02077 0.0
H194 H 0.44221 0.80046 0.97846 0.0
H195 H 0.45663 0.77697 0.9303 0.0
H196 H 0.45705 0.75391 0.96071 0.0
C197 C 0.51544 0.74698 0.14003 0.0
C198 C 0.49974 0.76915 0.20162 0.0
C199 C 0.40726 0.7162 0.03716 0.0
C200 C 0.40073 0.72023 0.9881 0.0
C201 C 0.40735 0.73722 0.96517 0.0
C202 C 0.42154 0.74892 0.98884 0.0
C203 C 0.42953 0.74342 0.03551 0.0
C204 C 0.42194 0.72762 0.05948 0.0
C205 C 0.43302 0.72302 0.10697 0.0
C206 C 0.44901 0.73829 0.10658 0.0
C207 C 0.44679 0.75021 0.06494 0.0
C208 C 0.44076 0.70259 0.10189 0.0
C209 C 0.41954 0.72557 0.15105 0.0
C210 C 0.48569 0.80541 0.99594 0.0
C211 C 0.5029 0.8151 0.01007 0.0
C212 C 0.51304 0.80889 0.05365 0.0
C213 C 0.5062 0.79304 0.08171 0.0
C214 C 0.48886 0.78348 0.06654 0.0
C215 C 0.479 0.78998 0.02427 0.0
C216 C 0.46094 0.77862 0.01237 0.0
C217 C 0.46091 0.7646 0.05534 0.0
C218 C 0.4774 0.76703 0.08722 0.0
C219 C 0.46323 0.76863 0.96148 0.0
C220 C 0.44378 0.79218 0.01374 0.0
H221 H 0.44729 0.71076 0.20218 0.0
H222 H 0.51515 0.72904 0.24603 0.0
H223 H 0.48741 0.76998 0.22657 0.0
H224 H 0.50038 0.78287 0.18138 0.0
H225 H 0.51306 0.76788 0.2254 0.0
H226 H 0.51329 0.73333 0.11942 0.0
H227 H 0.52762 0.74534 0.16752 0.0
H228 H 0.51961 0.75799 0.11264 0.0
H229 H 0.40218 0.70348 0.05628 0.0
H230 H 0.40268 0.74077 0.9274 0.0
H231 H 0.42646 0.76124 0.96856 0.0
H232 H 0.44603 0.7004 0.0638 0.0
H233 H 0.4293 0.69159 0.10837 0.0
H234 H 0.45314 0.6996 0.12713 0.0
H235 H 0.40737 0.73495 0.14085 0.0
H236 H 0.42702 0.73273 0.18331 0.0
H237 H 0.41326 0.71167 0.16342 0.0
H238 H 0.46377 0.69434 0.26842 0.0
C239 C 0.4619 0.71515 0.21024 0.0
C240 C 0.32479 0.475 0.14605 0.0
C241 C 0.33615 0.46827 0.18697 0.0
C242 C 0.32924 0.4527 0.21503 0.0
C243 C 0.29955 0.45176 0.16562 0.0
C244 C 0.30658 0.46615 0.13534 0.0
C245 C 0.29251 0.47007 0.09207 0.0
H246 H 0.20282 0.45091 0.98576 0.0
C247 C 0.27994 0.44626 0.14792 0.0
C248 C 0.27567 0.45641 0.10365 0.0
H249 H 0.24647 0.4887 0.92632 0.0
H250 H 0.26807 0.48132 0.99708 0.0
H251 H 0.23062 0.41654 0.02016 0.0
H252 H 0.20604 0.46456 0.08729 0.0
H253 H 0.21023 0.44929 0.13819 0.0
H254 H 0.19398 0.44169 0.08773 0.0
H255 H 0.20564 0.41877 0.0326 0.0
H256 H 0.22224 0.4088 0.07823 0.0
C257 C 0.30201 0.46474 0.0433 0.0
C258 C 0.28681 0.49114 0.09397 0.0
C259 C 0.2362 0.41249 0.26838 0.0
C260 C 0.21611 0.40973 0.26676 0.0
C261 C 0.20619 0.40998 0.21992 0.0
C262 C 0.21565 0.41554 0.17694 0.0
C263 C 0.23515 0.42116 0.18077 0.0
C264 C 0.24536 0.4186 0.22526 0.0
C265 C 0.26588 0.42573 0.22261 0.0
C266 C 0.26569 0.43461 0.17056 0.0
C267 C 0.24766 0.43188 0.14652 0.0
C268 C 0.27907 0.40826 0.22708 0.0
C269 C 0.2697 0.44087 0.264 0.0
C270 C 0.21717 0.45732 0.98695 0.0
C271 C 0.22299 0.47007 0.94958 0.0
C272 C 0.24159 0.47871 0.95439 0.0
C273 C 0.25415 0.47432 0.99532 0.0
C274 C 0.24803 0.46128 0.03207 0.0
C275 C 0.2297 0.45318 0.02716 0.0
C276 C 0.22477 0.4404 0.06992 0.0
C277 C 0.24342 0.44131 0.10069 0.0
C278 C 0.25719 0.45362 0.079 0.0
C279 C 0.22044 0.42003 0.04947 0.0
C280 C 0.20786 0.44926 0.0972 0.0
H281 H 0.30673 0.4328 0.22772 0.0
H282 H 0.32998 0.48668 0.12314 0.0
H283 H 0.28282 0.49493 0.1323 0.0
H284 H 0.27425 0.49417 0.06925 0.0
H285 H 0.29896 0.50077 0.08337 0.0
H286 H 0.30932 0.4509 0.04767 0.0
H287 H 0.31295 0.47578 0.03302 0.0
H288 H 0.29151 0.46281 0.01184 0.0
H289 H 0.24432 0.41177 0.30351 0.0
H290 H 0.19074 0.40775 0.21689 0.0
H291 H 0.20706 0.41649 0.1431 0.0
H292 H 0.2709 0.39448 0.22207 0.0
H293 H 0.28664 0.40766 0.2642 0.0
H294 H 0.28986 0.4084 0.19773 0.0
H295 H 0.25783 0.45115 0.26389 0.0
H296 H 0.28297 0.44952 0.2596 0.0
H297 H 0.27068 0.43402 0.30139 0.0
H298 H 0.33769 0.44724 0.24647 0.0
C299 C 0.31117 0.44438 0.20438 0.0
C300 C 0.11914 0.23897 0.2802 0.0
C301 C 0.12566 0.22026 0.27573 0.0
C302 C 0.12388 0.21143 0.22863 0.0
C303 C 0.10431 0.23714 0.19713 0.0
C304 C 0.10819 0.24695 0.24085 0.0
C305 C 0.09716 0.26503 0.24275 0.0
H306 H 0.02234 0.31788 0.16562 0.0
C307 C 0.08893 0.24709 0.16868 0.0
C308 C 0.0847 0.26347 0.1949 0.0
H309 H 0.06606 0.32917 0.28123 0.0
H310 H 0.08269 0.30158 0.25798 0.0
H311 H 0.05561 0.30274 0.07763 0.0
H312 H 0.02063 0.26814 0.17665 0.0
H313 H 0.01818 0.26194 0.11247 0.0
H314 H 0.00962 0.2844 0.13273 0.0
H315 H 0.02984 0.30432 0.0753 0.0
H316 H 0.04116 0.28448 0.04776 0.0
C317 C 0.11186 0.28211 0.24112 0.0
C318 C 0.08495 0.26415 0.28997 0.0
C319 C 0.05893 0.21268 0.01989 0.0
C320 C 0.04311 0.21527 0.98692 0.0
C321 C 0.03169 0.23138 0.99444 0.0
C322 C 0.03636 0.24463 0.03339 0.0
C323 C 0.05254 0.24173 0.06561 0.0
C324 C 0.06332 0.22579 0.05796 0.0
C325 C 0.07954 0.22383 0.09534 0.0
C326 C 0.07734 0.24142 0.12654 0.0
C327 C 0.06149 0.25223 0.10989 0.0
C328 C 0.0986 0.22482 0.0672 0.0
C329 C 0.07601 0.20502 0.12534 0.0
C330 C 0.03549 0.31417 0.18571 0.0
C331 C 0.04281 0.32561 0.22612 0.0
C332 C 0.06009 0.3206 0.25062 0.0
C333 C 0.06979 0.30449 0.23692 0.0
C334 C 0.06222 0.2928 0.19834 0.0
C335 C 0.04565 0.29777 0.17204 0.0
C336 C 0.04103 0.2836 0.12987 0.0
C337 C 0.05736 0.26938 0.13649 0.0
C338 C 0.06933 0.27498 0.17777 0.0
C339 C 0.04188 0.29431 0.07972 0.0
C340 C 0.02124 0.27397 0.13811 0.0
H341 H 0.11152 0.21175 0.15567 0.0
H342 H 0.12083 0.24644 0.31533 0.0
H343 H 0.07847 0.24959 0.29498 0.0
H344 H 0.07269 0.27372 0.28838 0.0
H345 H 0.09393 0.26759 0.32398 0.0
H346 H 0.12594 0.27789 0.22711 0.0
H347 H 0.11471 0.28833 0.2787 0.0
H348 H 0.107 0.2935 0.21507 0.0
H349 H 0.06773 0.20027 0.01706 0.0
H350 H 0.0193 0.23386 0.96991 0.0
H351 H 0.02727 0.2566 0.03722 0.0
H352 H 0.09772 0.2352 0.03568 0.0
H353 H 0.10186 0.21071 0.05152 0.0
H354 H 0.11102 0.22997 0.0908 0.0
H355 H 0.0607 0.2 0.12256 0.0
H356 H 0.079 0.20678 0.16582 0.0
H357 H 0.08475 0.19328 0.11167 0.0
H358 H 0.1289 0.19715 0.22326 0.0
C359 C 0.11334 0.21981 0.18934 0.0
C360 C 0.29425 0.02961 0.01485 0.0
C361 C 0.31235 0.03651 0.99726 0.0
C362 C 0.32192 0.05147 0.02336 0.0
C363 C 0.29605 0.05357 0.08054 0.0
C364 C 0.28628 0.03853 0.05704 0.0
C365 C 0.26735 0.03412 0.08316 0.0
H366 H 0.20808 0.06127 0.27318 0.0
C367 C 0.28478 0.06032 0.12212 0.0
C368 C 0.26766 0.0492 0.12497 0.0
H369 H 0.19634 0.01393 0.17418 0.0
H370 H 0.22659 0.02105 0.13216 0.0
H371 H 0.24903 0.05036 0.29707 0.0
H372 H 0.22604 0.09179 0.19419 0.0
H373 H 0.24543 0.10266 0.22859 0.0
H374 H 0.225 0.09332 0.26078 0.0
H375 H 0.24336 0.07379 0.31704 0.0
H376 H 0.26677 0.06853 0.2948 0.0
C377 C 0.26789 0.01372 0.10461 0.0
C378 C 0.25035 0.03678 0.04573 0.0
C379 C 0.31627 0.11202 0.22963 0.0
C380 C 0.31256 0.11871 0.27722 0.0
C381 C 0.29444 0.11459 0.29703 0.0
C382 C 0.28077 0.10291 0.27087 0.0
C383 C 0.28559 0.09468 0.22538 0.0
C384 C 0.30302 0.09961 0.20549 0.0
C385 C 0.30707 0.08802 0.16077 0.0
C386 C 0.28914 0.07526 0.1564 0.0
C387 C 0.27654 0.07923 0.19389 0.0
C388 C 0.32534 0.07628 0.1734 0.0
C389 C 0.30863 0.10204 0.11591 0.0
C390 C 0.21178 0.05252 0.24205 0.0
C391 C 0.19958 0.03728 0.22668 0.0
C392 C 0.20541 0.02588 0.18681 0.0
C393 C 0.22293 0.03 0.16246 0.0
C394 C 0.23502 0.04543 0.17879 0.0
C395 C 0.22919 0.05613 0.21856 0.0
C396 C 0.24386 0.07096 0.23499 0.0
C397 C 0.25915 0.06837 0.1974 0.0
C398 C 0.25437 0.05334 0.1636 0.0
C399 C 0.25112 0.06584 0.28879 0.0
C400 C 0.23469 0.09078 0.22977 0.0
H401 H 0.32237 0.07135 0.08037 0.0
H402 H 0.28649 0.018 0.99594 0.0
H403 H 0.2512 0.05122 0.02839 0.0
H404 H 0.23641 0.03539 0.06388 0.0
H405 H 0.25049 0.02601 0.01558 0.0
H406 H 0.28119 0.01188 0.12822 0.0
H407 H 0.26773 1.00307 0.07413 0.0
H408 H 0.25558 0.01046 0.12821 0.0
H409 H 0.33029 0.11434 0.21413 0.0
H410 H 0.29136 0.11942 0.33403 0.0
H411 H 0.26741 0.09993 0.28836 0.0
H412 H 0.32813 0.07468 0.21429 0.0
H413 H 0.33837 0.0831 0.15785 0.0
H414 H 0.32397 0.0614 0.15981 0.0
H415 H 0.29919 0.11443 0.11995 0.0
H416 H 0.30368 0.09555 0.08007 0.0
H417 H 0.32357 0.10778 0.11273 0.0
H418 H 0.33584 0.05686 0.01199 0.0
C419 C 0.31396 0.05997 0.06383 0.0
C420 C 0.52292 0.29439 1.00607 0.0
C421 C 0.53122 0.31233 0.99231 0.0
C422 C 0.54605 0.32042 0.02293 0.0
C423 C 0.54502 0.29314 0.07855 0.0
C424 C 0.53022 0.28492 0.04951 0.0
C425 C 0.52416 0.26548 0.07059 0.0
H426 H 0.54013 0.19894 0.25706 0.0
C427 C 0.55014 0.27997 0.11974 0.0
C428 C 0.53814 0.26345 0.11578 0.0
H429 H 0.49702 0.19341 0.13773 0.0
H430 H 0.50746 0.22453 0.10451 0.0
H431 H 0.57277 0.21129 0.19039 0.0
H432 H 0.53487 0.24213 0.28041 0.0
H433 H 0.55798 0.25217 0.29172 0.0
H434 H 0.55356 0.22733 0.30531 0.0
H435 H 0.57728 0.21395 0.25616 0.0
H436 H 0.58663 0.23106 0.21187 0.0
C437 C 0.52711 0.25009 0.03116 0.0
C438 C 0.50316 0.26637 0.08627 0.0
C439 C 0.60133 0.30154 0.24904 0.0
C440 C 0.60975 0.29262 0.2914 0.0
C441 C 0.6055 0.27306 0.29956 0.0
C442 C 0.59207 0.26309 0.2687 0.0
C443 C 0.58285 0.27262 0.22862 0.0
C444 C 0.58817 0.29125 0.21814 0.0
C445 C 0.57777 0.29871 0.17228 0.0
C446 C 0.5645 0.28175 0.15856 0.0
C447 C 0.56734 0.26673 0.19219 0.0
C448 C 0.59291 0.30285 0.13224 0.0
C449 C 0.56632 0.31627 0.18748 0.0
C450 C 0.53296 0.20401 0.22322 0.0
C451 C 0.51794 0.19328 0.19981 0.0
C452 C 0.5087 0.20123 0.15682 0.0
C453 C 0.51482 0.21927 0.13744 0.0
C454 C 0.53032 0.2295 0.16128 0.0
C455 C 0.53898 0.22152 0.20341 0.0
C456 C 0.55537 0.2334 0.2247 0.0
C457 C 0.55516 0.25023 0.18946 0.0
C458 C 0.5405 0.24829 0.15179 0.0
C459 C 0.57401 0.22191 0.22108 0.0
C460 C 0.5504 0.23904 0.27843 0.0
H461 H 0.56417 0.31826 0.0868 0.0
H462 H 0.51145 0.28783 0.9832 0.0
H463 H 0.50123 0.27911 0.1098 0.0
H464 H 0.49874 0.25382 0.1085 0.0
H465 H 0.49323 0.26736 0.05302 0.0
H466 H 0.54178 0.2516 0.01635 0.0
H467 H 0.51651 0.25144 0.99943 0.0
H468 H 0.52575 0.23552 0.04664 0.0
H469 H 0.60408 0.31651 0.24112 0.0
H470 H 0.61215 0.26553 0.33071 0.0
H471 H 0.58898 0.24849 0.27832 0.0
H472 H 0.60623 0.29473 0.13955 0.0
H473 H 0.59721 0.31823 0.13113 0.0
H474 H 0.58775 0.29829 0.09452 0.0
H475 H 0.56004 0.31392 0.22458 0.0
H476 H 0.55392 0.31912 0.16195 0.0
H477 H 0.57575 0.32932 0.18993 0.0
H478 H 0.55247 0.33421 0.01366 0.0
C479 C 0.5529 0.31105 0.06558 0.0
Eu480 Eu 0.99588 0.02208 0.58727 0.0
Eu481 Eu 0.02306 1.00109 0.66998 0.0
C482 C 0.01729 0.04618 0.6774 0.0
C483 C 0.98824 0.06021 0.49739 0.0
C484 C 0.99383 0.07547 0.52908 0.0
C485 C 0.00983 0.07301 0.43564 0.0
C486 C 0.00801 0.08871 0.51525 0.0
C487 C 0.99558 0.05976 0.44944 0.0
C488 C 0.01685 0.08702 0.46944 0.0
C489 C 0.97935 0.04267 0.51838 0.0
O490 O 0.99379 1.00282 0.70522 0.0
O491 O 0.97343 0.00982 0.63869 0.0
C492 C 0.97629 0.00522 0.68604 0.0
O493 O 0.99684 0.99167 0.55873 0.0
O494 O 0.03093 0.99558 0.74823 0.0
O495 O 0.04666 0.98243 0.69068 0.0
O496 O 0.00852 0.97624 0.62859 0.0
C497 C 1.00142 0.97586 0.5825 0.0
O498 O 0.02668 0.02969 0.56676 0.0
O499 O 0.04158 1.00427 0.60236 0.0
O500 O 0.03 0.0327 0.68208 0.0
O501 O 0.98822 0.02708 0.50875 0.0
O502 O 0.97479 0.04333 0.56497 0.0
O503 O 1.00164 0.04354 0.64917 0.0
C504 C 0.03672 0.96295 0.75773 0.0
C505 C 0.03272 0.94752 0.72536 0.0
C506 C 0.02103 0.94524 0.82357 0.0
C507 C 0.02213 0.93157 0.74119 0.0
C508 C 0.03158 0.96127 0.80761 0.0
C509 C 0.01543 0.93065 0.78983 0.0
C510 C 0.04226 0.98187 0.73741 0.0
C511 C 0.04128 0.0182 0.56939 0.0
H512 H 0.98853 0.0763 0.56637 0.0
H513 H 0.01607 0.07165 0.39957 0.0
H514 H 0.01307 0.09934 0.54215 0.0
H515 H 0.99153 0.04819 0.42426 0.0
H516 H 0.03651 0.94831 0.68667 0.0
H517 H 0.01644 0.94472 0.86164 0.0
H518 H 0.01803 0.92066 0.71415 0.0
H519 H 0.03452 0.97293 0.83331 0.0
Eu520 Eu 0.5157 0.02339 0.65502 0.0
Eu521 Eu 0.49293 0.99584 0.57632 0.0
C522 C 0.51074 0.97758 0.67812 0.0
C523 C 0.55608 0.05177 0.71162 0.0
C524 C 0.56598 0.04669 0.66942 0.0
C525 C 0.58622 0.05334 0.75951 0.0
C526 C 0.58556 0.04316 0.67355 0.0
C527 C 0.56647 0.05643 0.75568 0.0
C528 C 0.5955 0.04472 0.72002 0.0
C529 C 0.53549 0.04701 0.713 0.0
O530 O 0.47337 0.9972 0.64228 0.0
O531 O 0.48388 0.02646 0.67066 0.0
C532 C 0.47083 0.01241 0.66953 0.0
O533 O 0.51521 0.03878 0.58078 0.0
O534 O 0.46586 0.98634 0.53971 0.0
O535 O 0.4926 0.97634 0.51293 0.0
O536 O 0.48648 0.02625 0.55393 0.0
C537 C 0.49999 0.03953 0.55089 0.0
O538 O 0.53984 0.00946 0.61475 0.0
O539 O 0.52233 1.0019 0.5437 0.0
O540 O 0.50548 0.97444 0.63113 0.0
O541 O 0.5249 0.05257 0.67485 0.0
O542 O 0.53177 0.02925 0.72468 0.0
O543 O 0.51305 0.99503 0.6958 0.0
C544 C 0.46977 0.98826 0.45434 0.0
C545 C 0.48092 1.00428 0.4401 0.0
C546 C 0.44446 0.99788 0.3958 0.0
C547 C 0.47335 0.01767 0.40668 0.0
C548 C 0.45198 0.98456 0.42982 0.0
C549 C 0.45441 0.01536 0.38708 0.0
C550 C 0.47441 0.97895 0.50241 0.0
C551 C 0.53909 1.00461 0.5674 0.0
H552 H 0.55822 0.04329 0.63472 0.0
H553 H 0.59365 0.0557 0.79518 0.0
H554 H 0.59211 0.03701 0.64178 0.0
H555 H 0.55909 0.06061 0.78848 0.0
H556 H 0.49472 0.0075 0.45858 0.0
H557 H 0.43017 0.99517 0.37969 0.0
H558 H 0.48168 0.03069 0.40062 0.0
H559 H 0.44317 0.97227 0.44013 0.0
Eu560 Eu 0.49604 0.51886 0.66146 0.0
Eu561 Eu 0.52999 0.5043 0.59069 0.0
C562 C 0.5401 0.51708 0.70409 0.0
C563 C 0.45221 0.54384 0.70762 0.0
C564 C 0.45321 0.55889 0.67297 0.0
C565 C 0.42264 0.55625 0.73745 0.0
C566 C 0.43941 0.57297 0.67198 0.0
C567 C 0.43654 0.54226 0.73871 0.0
C568 C 0.42433 0.57208 0.70529 0.0
C569 C 0.46818 0.53075 0.71463 0.0
O570 O 0.51752 0.4773 0.62664 0.0
O571 O 0.50474 0.49069 0.69518 0.0
C572 C 0.51091 0.47575 0.67193 0.0
O573 O 0.48122 0.50422 0.59483 0.0
O574 O 0.55944 0.50711 0.56614 0.0
O575 O 0.53968 0.48597 0.53218 0.0
O576 O 0.50452 0.50968 0.5386 0.0
C577 C 0.48651 0.50602 0.54859 0.0
O578 O 0.49999 0.54283 0.60554 0.0
O579 O 0.53035 0.53647 0.58131 0.0
O580 O 0.54384 0.50551 0.66775 0.0
O581 O 0.46703 0.51494 0.68926 0.0
O582 O 0.48536 0.53867 0.71495 0.0
O583 O 0.52398 0.5264 0.70399 0.0
C584 C 0.5726 0.4786 0.53907 0.0
C585 C 0.56975 0.46096 0.56307 0.0
C586 C 0.60433 0.46911 0.51654 0.0
C587 C 0.58388 0.44726 0.56249 0.0
C588 C 0.59012 0.48275 0.51683 0.0
C589 C 0.60119 0.45103 0.53831 0.0
C590 C 0.55739 0.49267 0.53585 0.0
C591 C 0.5157 0.54786 0.58253 0.0
H592 H 0.46514 0.56024 0.64832 0.0
H593 H 0.4113 0.55534 0.76396 0.0
H594 H 0.44099 0.58499 0.64674 0.0
H595 H 0.43555 0.53071 0.76558 0.0
H596 H 0.55638 0.45756 0.58095 0.0
H597 H 0.61757 0.47253 0.49814 0.0
H598 H 0.58083 0.43339 0.57892 0.0
H599 H 0.59263 0.4964 0.49867 0.0
Eu600 Eu 0.02209 0.52791 0.58969 0.0
Eu601 Eu 1.0026 0.49708 0.6648 0.0
C602 C 0.04904 0.50336 0.66514 0.0
C603 C 0.05785 0.54858 0.50548 0.0
C604 C 0.07463 0.54536 0.5349 0.0
C605 C 0.07347 0.53621 0.43378 0.0
C606 C 0.09017 0.53656 0.51458 0.0
C607 C 0.05789 0.54504 0.45413 0.0
C608 C 0.08922 0.53086 0.46455 0.0
C609 C 0.03944 0.55134 0.52942 0.0
O610 O 0.99598 0.52646 0.69436 0.0
O611 O 0.02176 0.54279 0.66415 0.0
C612 C 0.00802 0.54127 0.6961 0.0
O613 O 0.99025 0.53361 0.58458 0.0
O614 O 0.99708 0.48821 0.74114 0.0
O615 O 0.98379 0.47237 0.67955 0.0
O616 O 0.97991 0.50354 0.60532 0.0
C617 C 0.97666 0.52024 0.58496 0.0
O618 O 0.01974 0.5001 0.54575 0.0
O619 O 0.01538 0.4779 0.60805 0.0
O620 O 0.03389 0.49842 0.69057 0.0
O621 O 0.02541 0.53968 0.51484 0.0
O622 O 0.04036 0.5532 0.57772 0.0
O623 O 0.04744 0.512 0.62167 0.0
C624 C 0.96421 0.48074 0.74559 0.0
C625 C 0.94891 0.48485 0.71182 0.0
C626 C 0.94643 0.49431 0.8122 0.0
C627 C 0.93292 0.49425 0.72773 0.0
C628 C 0.96244 0.48482 0.79628 0.0
C629 C 0.93188 0.49979 0.77768 0.0
C630 C 0.98321 0.47633 0.72688 0.0
C631 C 0.01887 0.4822 0.56137 0.0
H632 H 0.07518 0.54804 0.5746 0.0
H633 H 0.07257 0.53231 0.39478 0.0
H634 H 0.1021 0.53262 0.53925 0.0
H635 H 0.04521 0.54754 0.4306 0.0
H636 H 0.94983 0.48208 0.67236 0.0
H637 H 0.94583 0.49813 0.85112 0.0
H638 H 0.92204 0.49836 0.70013 0.0
H639 H 0.97406 0.48188 0.82297 0.0
H640 H 0.16977 0.06141 0.23606 0.0
H641 H 0.1422 0.05803 0.28954 0.0
H642 H 0.1612 1.00256 0.33713 0.0
H643 H 0.18827 0.0056 0.28117 0.0
H644 H 0.12497 1.00035 0.33472 0.0
H645 H 0.16828 0.04846 0.40485 0.0
H646 H 0.18747 0.07858 0.40887 0.0
H647 H 0.13624 0.11053 0.38523 0.0
H648 H 0.11678 0.08061 0.37942 0.0
H649 H 0.07195 0.99491 0.55741 0.0
H650 H 0.0974 0.99781 0.49731 0.0
H651 H 0.07297 0.04946 0.43892 0.0
H652 H 0.04737 0.0467 0.49921 0.0
H653 H 0.11113 0.05384 0.44636 0.0
H654 H 0.06799 0.00621 0.37594 0.0
H655 H 0.04834 0.97635 0.37468 0.0
H656 H 0.09904 0.94395 0.40252 0.0
H657 H 0.11897 0.97365 0.40468 0.0
C658 C 0.16786 0.04832 0.25723 0.0
C659 C 0.18124 0.03373 0.25387 0.0
C660 C 0.15216 0.04648 0.28863 0.0
C661 C 0.14961 0.03026 0.31933 0.0
C662 C 0.16263 0.01534 0.31453 0.0
C663 C 0.17815 0.01702 0.28221 0.0
C664 C 0.13367 0.02893 0.35653 0.0
C665 C 0.12225 0.01203 0.3595 0.0
C666 C 0.12935 0.04422 0.38865 0.0
C667 C 0.1411 0.06224 0.39098 0.0
C668 C 0.16113 0.06189 0.39981 0.0
C669 C 0.17206 0.07894 0.40238 0.0
C670 C 0.1631 0.09645 0.39695 0.0
C671 C 0.14318 0.09696 0.38896 0.0
C672 C 0.1322 0.07995 0.38592 0.0
C673 C 0.07194 0.00697 0.53199 0.0
C674 C 0.05741 0.02055 0.53362 0.0
C675 C 0.08653 0.00854 0.49714 0.0
C676 C 0.08717 0.02374 0.46256 0.0
C677 C 0.07291 0.03754 0.46477 0.0
C678 C 0.05821 0.03592 0.49944 0.0
C679 C 0.10269 0.0253 0.42455 0.0
C680 C 0.11395 0.04222 0.42147 0.0
C681 C 0.10688 0.01007 0.39244 0.0
C682 C 0.09495 0.99218 0.39096 0.0
C683 C 0.07493 0.99273 0.38218 0.0
C684 C 0.06375 0.97583 0.38125 0.0
C685 C 0.07243 0.95827 0.38864 0.0
C686 C 0.09233 0.95757 0.39687 0.0
C687 C 0.10358 0.97443 0.39791 0.0
H688 H 0.06374 0.9452 0.38789 0.0
H689 H 0.17157 0.10963 0.39917 0.0
H690 H 0.48189 0.17524 0.20753 0.0
H691 H 0.47415 0.14586 0.25397 0.0
H692 H 0.53447 0.13959 0.29174 0.0
H693 H 0.54222 0.16704 0.24107 0.0
H694 H 0.52213 0.10743 0.28466 0.0
H695 H 0.49299 0.16214 0.36863 0.0
H696 H 0.46947 0.18764 0.37425 0.0
H697 H 0.42312 0.14683 0.34658 0.0
H698 H 0.44639 0.12117 0.34028 0.0
H699 H 0.52872 0.06385 0.52054 0.0
H700 H 0.52761 0.08705 0.45229 0.0
H701 H 0.46775 0.07256 0.42287 0.0
H702 H 0.46873 0.04912 0.49101 0.0
H703 H 0.47408 0.11054 0.41534 0.0
H704 H 0.50186 0.05554 0.34949 0.0
H705 H 0.52425 0.029 0.34856 0.0
H706 H 0.57202 0.06897 0.34216 0.0
H707 H 0.5499 0.09579 0.34408 0.0
C708 C 0.4935 0.16729 0.22472 0.0
C709 C 0.51268 0.17404 0.22159 0.0
C710 C 0.48903 0.15061 0.25232 0.0
C711 C 0.50359 0.14062 0.27868 0.0
C712 C 0.52275 0.14684 0.27276 0.0
C713 C 0.5272 0.16293 0.24409 0.0
C714 C 0.49956 0.12413 0.31364 0.0
C715 C 0.51168 0.10835 0.31339 0.0
C716 C 0.48524 0.12432 0.35001 0.0
C717 C 0.47142 0.13984 0.35321 0.0
C718 C 0.47779 0.15867 0.36338 0.0
C719 C 0.46451 0.17313 0.36673 0.0
C720 C 0.44482 0.16888 0.36054 0.0
C721 C 0.43837 0.15013 0.35114 0.0
C722 C 0.45159 0.13564 0.34763 0.0
C723 C 0.51526 0.0656 0.49973 0.0
C724 C 0.49885 0.05447 0.51118 0.0
C725 C 0.51467 0.07883 0.46037 0.0
C726 C 0.49768 0.0813 0.43138 0.0
C727 C 0.48109 0.07073 0.44396 0.0
C728 C 0.48168 0.05734 0.4831 0.0
C729 C 0.49743 0.09481 0.3879 0.0
C730 C 0.48438 0.1097 0.38628 0.0
C731 C 0.51083 0.09379 0.34975 0.0
C732 C 0.52418 0.07769 0.34721 0.0
C733 C 0.51713 0.05868 0.34811 0.0
C734 C 0.52979 0.04358 0.34744 0.0
C735 C 0.54956 0.04729 0.34538 0.0
C736 C 0.5567 0.06612 0.34379 0.0
C737 C 0.5441 0.08128 0.34463 0.0
H738 H 0.55935 0.03559 0.34496 0.0
H739 H 0.43457 0.1801 0.3632 0.0
H740 H 0.37081 0.4516 0.19592 0.0
H741 H 0.3983 0.46241 0.24871 0.0
H742 H 0.37081 0.51576 0.27243 0.0
H743 H 0.34304 0.50473 0.21997 0.0
H744 H 0.42498 0.49018 0.259 0.0
H745 H 0.37648 0.52648 0.39683 0.0
H746 H 0.34241 0.52605 0.41919 0.0
H747 H 0.33539 0.46819 0.36858 0.0
H748 H 0.36946 0.46819 0.34674 0.0
H749 H 0.48713 0.52389 0.45797 0.0
H750 H 0.46293 0.5219 0.3897 0.0
H751 H 0.42905 0.48212 0.47591 0.0
H752 H 0.45269 0.4851 0.54545 0.0
H753 H 0.40583 0.50339 0.43113 0.0
H754 H 0.45981 0.46912 0.37263 0.0
H755 H 0.49378 0.46554 0.35248 0.0
H756 H 0.48984 0.51216 0.24834 0.0
H757 H 0.45587 0.51609 0.26814 0.0
C758 C 0.37097 0.46592 0.21087 0.0
C759 C 0.35481 0.47734 0.20383 0.0
C760 C 0.38668 0.47209 0.24122 0.0
C761 C 0.38652 0.48975 0.26553 0.0
C762 C 0.37117 0.50194 0.25472 0.0
C763 C 0.3554 0.49576 0.22421 0.0
C764 C 0.40118 0.49415 0.30628 0.0
C765 C 0.4208 0.49327 0.29653 0.0
C766 C 0.39583 0.49773 0.35568 0.0
C767 C 0.37543 0.49745 0.36959 0.0
C768 C 0.36766 0.51366 0.39067 0.0
C769 C 0.34836 0.51348 0.40325 0.0
C770 C 0.33673 0.49713 0.39514 0.0
C771 C 0.3444 0.48087 0.3747 0.0
C772 C 0.3637 0.48095 0.36222 0.0
C773 C 0.47453 0.51468 0.46228 0.0
C774 C 0.47191 0.50449 0.50693 0.0
C775 C 0.4607 0.51347 0.42303 0.0
C776 C 0.44422 0.5015 0.42675 0.0
C777 C 0.44155 0.49147 0.47171 0.0
C778 C 0.45513 0.49309 0.51148 0.0
C779 C 0.42977 0.49933 0.38413 0.0
C780 C 0.41013 0.5006 0.39353 0.0
C781 C 0.4351 0.49555 0.33473 0.0
C782 C 0.45538 0.49298 0.32211 0.0
C783 C 0.46622 0.47863 0.34552 0.0
C784 C 0.48546 0.47653 0.33416 0.0
C785 C 0.49397 0.48863 0.29921 0.0
C786 C 0.48323 0.5028 0.27539 0.0
C787 C 0.46398 0.50494 0.28659 0.0
H788 H 0.50888 0.48701 0.29053 0.0
H789 H 0.32179 0.49703 0.4048 0.0
H790 H 0.01622 0.32694 0.29777 0.0
H791 H 0.00981 0.35451 0.34966 0.0
H792 H 0.04395 0.39059 0.25457 0.0
H793 H 0.05056 0.36289 0.20333 0.0
H794 H 0.05583 0.39547 0.34679 0.0
H795 H 0.99343 0.395 0.26575 0.0
H796 H 0.9622 0.38102 0.23605 0.0
H797 H 0.94808 0.36725 0.38659 0.0
H798 H 0.97935 0.38092 0.41716 0.0
H799 H 0.03558 0.48385 0.46977 0.0
H800 H 0.03823 0.45808 0.40912 0.0
H801 H 0.00954 0.41899 0.50819 0.0
H802 H 0.00718 0.44453 0.56927 0.0
H803 H 0.99434 0.41611 0.41245 0.0
H804 H 0.05625 0.41774 0.49357 0.0
H805 H 0.08874 0.42828 0.52311 0.0
H806 H 0.105 0.43756 0.37216 0.0
H807 H 0.07235 0.42811 0.34168 0.0
C808 C 0.02156 0.34093 0.28658 0.0
C809 C 0.03339 0.3428 0.24541 0.0
C810 C 0.01804 0.35674 0.31662 0.0
C811 C 0.02632 0.37488 0.30638 0.0
C812 C 0.03733 0.37689 0.26362 0.0
C813 C 0.04085 0.36108 0.23369 0.0
C814 C 0.02515 0.39117 0.34255 0.0
C815 C 0.04232 0.4003 0.36017 0.0
C816 C 0.00763 0.39706 0.36195 0.0
C817 C 0.98882 0.38883 0.3437 0.0
C818 C 0.98373 0.38885 0.29249 0.0
C819 C 0.96601 0.38101 0.27551 0.0
C820 C 0.95318 0.37321 0.3094 0.0
C821 C 0.95804 0.37328 0.36037 0.0
C822 C 0.97575 0.38109 0.37755 0.0
C823 C 0.02992 0.46974 0.47885 0.0
C824 C 0.02117 0.46637 0.52473 0.0
C825 C 0.0315 0.45495 0.44406 0.0
C826 C 0.02412 0.43643 0.45376 0.0
C827 C 0.01536 0.43307 0.49949 0.0
C828 C 0.01409 0.44774 0.53464 0.0
C829 C 0.02506 0.42068 0.41603 0.0
C830 C 0.00785 0.41155 0.39844 0.0
C831 C 0.0426 0.4148 0.39657 0.0
C832 C 0.06164 0.42247 0.41531 0.0
C833 C 0.06653 0.42257 0.46666 0.0
C834 C 0.08504 0.42831 0.48359 0.0
C835 C 0.09891 0.43363 0.44953 0.0
C836 C 0.09422 0.43353 0.39852 0.0
C837 C 0.07567 0.42814 0.38143 0.0
H838 H 0.11333 0.43765 0.46256 0.0
H839 H 0.93946 0.36715 0.29618 0.0
H840 H 0.8575 0.9764 0.04283 0.0
H841 H 0.88376 0.98256 0.9865 0.0
H842 H 0.84742 0.01912 0.89695 0.0
H843 H 0.82095 0.01264 0.9534 0.0
H844 H 0.86399 0.9958 0.83761 0.0
H845 H 0.88877 0.03618 0.9679 0.0
H846 H 0.89889 0.04541 0.05358 0.0
H847 H 0.94116 1.00201 0.05768 0.0
H848 H 0.93112 0.99234 0.97223 0.0
H849 H 0.94014 0.02017 0.67287 0.0
H850 H 0.91409 0.02015 0.7315 0.0
H851 H 0.94805 0.98671 0.83537 0.0
H852 H 0.97445 0.98755 0.77783 0.0
H853 H 0.93198 0.011 0.88682 0.0
H854 H 0.90535 0.96985 0.75621 0.0
H855 H 0.89463 0.96132 0.67013 0.0
H856 H 0.85535 0.00736 0.66672 0.0
H857 H 0.86599 0.01629 0.75231 0.0
C858 C 0.85533 0.98637 0.01227 0.0
C859 C 0.83716 0.9944 1.00363 0.0
C860 C 0.8704 0.98983 0.97962 0.0
C861 C 0.8679 1.00145 0.93694 0.0
C862 C 0.84996 0.01012 0.92933 0.0
C863 C 0.83485 0.00669 0.96223 0.0
C864 C 0.88345 1.00336 0.89893 0.0
C865 C 0.87879 0.99945 0.84844 0.0
C866 C 0.90302 0.00771 0.91232 0.0
C867 C 0.90906 0.01342 0.96379 0.0
C868 C 0.90011 0.0285 0.98721 0.0
C869 C 0.90586 0.03383 0.03571 0.0
C870 C 0.92063 0.02427 0.0611 0.0
C871 C 0.92971 0.00939 0.03799 0.0
C872 C 0.92401 1.00399 0.9895 0.0
C873 C 0.94202 0.01262 0.70797 0.0
C874 C 0.95953 1.00377 0.72009 0.0
C875 C 0.92696 0.01253 0.74172 0.0
C876 C 0.92862 1.00315 0.78836 0.0
C877 C 0.94608 0.99413 0.80012 0.0
C878 C 0.96126 0.99452 0.76681 0.0
C879 C 0.91262 1.0031 0.82544 0.0
C880 C 0.91718 0.00737 0.87586 0.0
C881 C 0.89294 0.99916 0.81191 0.0
C882 C 0.88661 0.99383 0.76041 0.0
C883 C 0.89453 0.9782 0.73689 0.0
C884 C 0.88846 0.97329 0.68828 0.0
C885 C 0.87437 0.98381 0.66301 0.0
C886 C 0.86629 0.99924 0.6863 0.0
C887 C 0.87232 1.00423 0.73485 0.0
H888 H 0.86969 0.97998 0.6254 0.0
H889 H 0.92506 0.02842 0.09865 0.0
H890 H 0.51612 0.85092 0.04 0.0
H891 H 0.52186 0.87906 0.98683 0.0
H892 H 0.50952 0.84483 0.85603 0.0
H893 H 0.50435 0.81678 0.90866 0.0
H894 H 0.53744 0.86959 0.83704 0.0
H895 H 0.47519 0.87314 0.90883 0.0
H896 H 0.45272 0.87413 0.97746 0.0
H897 H 0.48168 0.92485 0.03418 0.0
H898 H 0.5045 0.92399 0.96621 0.0
H899 H 0.5071 0.93913 0.65771 0.0
H900 H 0.5099 0.91232 0.71615 0.0
H901 H 0.52317 0.95154 0.83639 0.0
H902 H 0.52016 0.97841 0.77842 0.0
H903 H 0.49728 0.92553 0.8646 0.0
H904 H 0.55811 0.92322 0.78887 0.0
H905 H 0.5803 0.92236 0.71944 0.0
H906 H 0.55378 0.86947 0.66939 0.0
H907 H 0.53132 0.87016 0.73817 0.0
C908 C 0.51507 0.84933 0.9999 0.0
C909 C 0.50955 0.8316 0.97871 0.0
C910 C 0.51815 0.86548 0.96944 0.0
C911 C 0.51574 0.86427 0.91715 0.0
C912 C 0.51138 0.84631 0.89606 0.0
C913 C 0.50831 0.83024 0.92634 0.0
C914 C 0.51668 0.88165 0.88422 0.0
C915 C 0.52855 0.88175 0.84297 0.0
C916 C 0.50541 0.89781 0.89206 0.0
C917 C 0.49168 0.89837 0.93281 0.0
C918 C 0.47685 0.88442 0.93616 0.0
C919 C 0.46404 0.88497 0.9749 0.0
C920 C 0.4658 0.89951 0.01024 0.0
C921 C 0.48035 0.91357 1.00683 0.0
C922 C 0.49323 0.91306 0.96821 0.0
C923 C 0.51072 0.9421 0.69651 0.0
C924 C 0.51334 0.96105 0.7131 0.0
C925 C 0.51243 0.92669 0.72999 0.0
C926 C 0.5169 0.92978 0.78092 0.0
C927 C 0.51968 0.94868 0.79745 0.0
C928 C 0.51798 0.96408 0.76405 0.0
C929 C 0.51792 0.91341 0.81718 0.0
C930 C 0.50635 0.91347 0.85895 0.0
C931 C 0.52943 0.8974 0.8097 0.0
C932 C 0.54293 0.89687 0.76837 0.0
C933 C 0.55693 0.91151 0.76278 0.0
C934 C 0.56956 0.91104 0.72362 0.0
C935 C 0.5684 0.89591 0.68994 0.0
C936 C 0.55465 0.8812 0.69547 0.0
C937 C 0.54198 0.88161 0.73458 0.0
H938 H 0.57818 0.89557 0.65964 0.0
H939 H 0.45587 0.89991 0.0402 0.0
H940 H 0.68176 0.51245 0.02716 0.0
H941 H 0.65486 0.50545 0.96778 0.0
H942 H 0.62198 0.54892 0.03492 0.0
H943 H 0.64904 0.55606 0.094 0.0
H944 H 0.59935 0.51493 0.99954 0.0
H945 H 0.64571 0.56238 0.94487 0.0
H946 H 0.67872 0.57412 0.92992 0.0
H947 H 0.68559 0.52869 0.82624 0.0
H948 H 0.65275 0.5164 0.84153 0.0
H949 H 0.53682 0.53718 0.79094 0.0
H950 H 0.55985 0.53928 0.86213 0.0
H951 H 0.59819 0.50312 0.78634 0.0
H952 H 0.57541 0.50105 0.71508 0.0
H953 H 0.61765 0.53291 0.82825 0.0
H954 H 0.57127 0.48603 0.87882 0.0
H955 H 0.53892 0.47286 0.8954 0.0
H956 H 0.53226 0.51568 1.00647 0.0
H957 H 0.56444 0.52935 0.9898 0.0
C958 C 0.66847 0.51991 0.03053 0.0
C959 C 0.66728 0.53454 0.06559 0.0
C960 C 0.65318 0.51602 0.9964 0.0
C961 C 0.63645 0.52675 0.9967 0.0
C962 C 0.63468 0.54039 0.03421 0.0
C963 C 0.65008 0.54441 0.06807 0.0
C964 C 0.62213 0.52556 0.95411 0.0
C965 C 0.60324 0.51905 0.96217 0.0
C966 C 0.62732 0.53064 0.90518 0.0
C967 C 0.64684 0.53835 0.89474 0.0
C968 C 0.65431 0.55481 0.91916 0.0
C969 C 0.67298 0.56157 0.91063 0.0
C970 C 0.68426 0.55214 0.87723 0.0
C971 C 0.67684 0.53597 0.85217 0.0
C972 C 0.6582 0.52909 0.86076 0.0
C973 C 0.55018 0.52972 0.78929 0.0
C974 C 0.55421 0.51896 0.74708 0.0
C975 C 0.5633 0.53086 0.8302 0.0
C976 C 0.58073 0.52123 0.82989 0.0
C977 C 0.58488 0.51069 0.78756 0.0
C978 C 0.57177 0.5095 0.74678 0.0
C979 C 0.59474 0.52221 0.87338 0.0
C980 C 0.61365 0.52876 0.86552 0.0
C981 C 0.58954 0.51707 0.92236 0.0
C982 C 0.57021 0.50883 0.93268 0.0
C983 C 0.56285 0.49273 0.90649 0.0
C984 C 0.54455 0.48516 0.91594 0.0
C985 C 0.53353 0.49344 0.95193 0.0
C986 C 0.5408 0.50929 0.97856 0.0
C987 C 0.55908 0.51697 0.96911 0.0
H988 H 0.51937 0.48755 0.95923 0.0
H989 H 0.69872 0.55738 0.8707 0.0
H990 H 0.96747 0.65638 0.05085 0.0
H991 H 0.97514 0.62991 0.99705 0.0
H992 H 0.01867 0.66526 0.92899 0.0
H993 H 0.01068 0.69196 0.98271 0.0
H994 H 0.99655 0.64919 0.85883 0.0
H995 H 0.02938 0.6246 1.00359 0.0
H996 H 0.03365 0.61475 0.09155 0.0
H997 H 0.98763 0.57303 0.07229 0.0
H998 H 0.98291 0.5828 0.98435 0.0
H999 H 0.02922 0.57478 0.70678 0.0
H1000 H 0.02691 0.59947 0.76982 0.0
H1001 H 0.98075 0.56737 0.8366 0.0
H1002 H 0.98306 0.54242 0.77357 0.0
H1003 H 1.0057 0.58166 0.90812 0.0
H1004 H 0.97203 0.60724 0.76492 0.0
H1005 H 0.96765 0.61702 0.67693 0.0
H1006 H 0.01539 0.65693 0.69379 0.0
H1007 H 0.02022 0.6472 0.78177 0.0
C1008 C 0.97923 0.65826 0.02586 0.0
C1009 C 0.98877 0.67618 0.02199 0.0
C1010 C 0.98356 0.64309 0.99472 0.0
C1011 C 0.9976 0.64534 0.95864 0.0
C1012 C 0.0078 0.663 0.95635 0.0
C1013 C 1.00347 0.67821 0.9877 0.0
C1014 C 1.00037 0.62989 0.92093 0.0
C1015 C 0.99895 0.63451 0.86985 0.0
C1016 C 1.0029 0.61048 0.93458 0.0
C1017 C 1.00568 0.60456 0.98746 0.0
C1018 C 0.02007 0.61343 0.0182 0.0
C1019 C 0.02259 0.60784 0.06804 0.0
C1020 C 0.01088 0.59331 0.08752 0.0
C1021 C 0.99667 0.5843 0.05716 0.0
C1022 C 0.99408 0.58984 1.00729 0.0
C1023 C 0.0185 0.57291 0.7347 0.0
C1024 C 0.00626 0.55652 0.73459 0.0
C1025 C 0.01716 0.58716 0.77086 0.0
C1026 C 1.00352 0.58554 0.80807 0.0
C1027 C 0.99141 0.56908 0.80847 0.0
C1028 C 0.99269 0.55482 0.77211 0.0
C1029 C 1.0019 0.60102 0.84624 0.0
C1030 C 1.00346 0.59638 0.89727 0.0
C1031 C 0.9995 0.62043 0.83261 0.0
C1032 C 0.99661 0.62635 0.77978 0.0
C1033 C 0.98169 0.618 0.74976 0.0
C1034 C 0.97911 0.62355 0.69991 0.0
C1035 C 0.99127 0.63755 0.67974 0.0
C1036 C 0.006 0.64607 0.70944 0.0
C1037 C 0.00866 0.64055 0.75931 0.0
H1038 H 0.98925 0.64183 0.64114 0.0
H1039 H 0.01286 0.589 0.12612 0.0
H1040 H 0.15072 0.19061 0.28986 0.0
H1041 H 0.14488 0.16351 0.34567 0.0
H1042 H 0.10229 0.19529 0.41934 0.0
H1043 H 0.10764 0.22199 0.36406 0.0
H1044 H 0.11596 0.1672 0.48016 0.0
H1045 H 0.0889 0.17417 0.30923 0.0
H1046 H 0.09176 0.1783 0.21846 0.0
H1047 H 0.12581 0.1283 0.21385 0.0
H1048 H 0.12308 0.12389 0.30466 0.0
H1049 H 0.02416 0.12496 0.48805 0.0
H1050 H 0.05395 0.14325 0.47512 0.0
H1051 H 0.07954 0.09314 0.41686 0.0
H1052 H 0.04967 0.07481 0.42936 0.0
H1053 H 0.08421 0.12287 0.35718 0.0
H1054 H 0.09548 0.11162 0.53005 0.0
H1055 H 0.08752 0.10982 0.61865 0.0
H1056 H 0.07916 0.17025 0.61992 0.0
H1057 H 0.08674 0.1724 0.5311 0.0
C1058 C 0.14066 0.1921 0.31924 0.0
C1059 C 0.12909 0.20821 0.32092 0.0
C1060 C 0.13743 0.17662 0.35133 0.0
C1061 C 0.12265 0.17718 0.38536 0.0
C1062 C 0.11363 0.19446 0.39298 0.0
C1063 C 0.11678 0.20986 0.36099 0.0
C1064 C 0.11299 0.15939 0.40285 0.0
C1065 C 0.10921 0.15727 0.45359 0.0
C1066 C 0.10435 0.14633 0.36809 0.0
C1067 C 0.10602 0.14886 0.31364 0.0
C1068 C 0.09705 0.16412 0.2888 0.0
C1069 C 0.09861 0.16648 0.23739 0.0
C1070 C 0.10905 0.15363 0.21043 0.0
C1071 C 0.11781 0.13829 0.23482 0.0
C1072 C 0.11623 0.13583 0.28624 0.0
C1073 C 0.03618 0.11781 0.47286 0.0
C1074 C 0.03454 0.09847 0.4595 0.0
C1075 C 0.05327 0.12821 0.46594 0.0
C1076 C 0.06913 0.11944 0.44608 0.0
C1077 C 0.06755 0.10014 0.43268 0.0
C1078 C 0.05041 0.08975 0.43934 0.0
C1079 C 0.08651 0.13105 0.43441 0.0
C1080 C 0.09164 0.13205 0.38451 0.0
C1081 C 0.09596 0.14328 0.46993 0.0
C1082 C 0.09167 0.14215 0.52372 0.0
C1083 C 0.09186 0.12452 0.54911 0.0
C1084 C 0.08741 0.12344 0.59941 0.0
C1085 C 0.08283 0.13991 0.62489 0.0
C1086 C 0.08273 0.15751 0.60014 0.0
C1087 C 0.08715 0.15867 0.54982 0.0
H1088 H 0.07936 0.13904 0.66381 0.0
H1089 H 0.11029 0.15552 0.17064 0.0
H1090 H 0.34006 0.14687 0.26098 0.0
H1091 H 0.37358 0.14494 0.29138 0.0
H1092 H 0.35693 0.09934 0.39133 0.0
H1093 H 0.32374 0.10236 0.36409 0.0
H1094 H 0.38848 0.11228 0.4252 0.0
H1095 H 0.3669 0.09746 0.24084 0.0
H1096 H 0.35876 0.11019 0.15661 0.0
H1097 H 0.40866 0.14752 0.1651 0.0
H1098 H 0.41703 0.13519 0.24927 0.0
H1099 H 0.41666 0.02339 0.39854 0.0
H1100 H 0.40111 0.05321 0.38278 0.0
H1101 H 0.4527 0.07721 0.32096 0.0
H1102 H 0.46821 0.04639 0.33244 0.0
H1103 H 0.41804 0.0893 0.27226 0.0
H1104 H 0.44389 0.10027 0.44413 0.0
H1105 H 0.4548 0.08663 0.52516 0.0
H1106 H 0.40031 0.05704 0.53707 0.0
H1107 H 0.38878 0.07151 0.45791 0.0
C1108 C 0.34352 0.13729 0.29164 0.0
C1109 C 0.3294 0.12448 0.3095 0.0
C1110 C 0.36274 0.1359 0.30833 0.0
C1111 C 0.36806 0.12119 0.34147 0.0
C1112 C 0.35345 0.11062 0.36502 0.0
C1113 C 0.33428 0.11241 0.34955 0.0
C1114 C 0.38795 0.1138 0.34484 0.0
C1115 C 0.39516 0.10768 0.39167 0.0
C1116 C 0.39763 0.10839 0.30167 0.0
C1117 C 0.39245 0.11559 0.25129 0.0
C1118 C 0.3761 0.10838 0.22462 0.0
C1119 C 0.37144 0.11552 0.17703 0.0
C1120 C 0.38314 0.12963 0.15566 0.0
C1121 C 0.39958 0.13663 0.18175 0.0
C1122 C 0.40427 0.12961 0.22937 0.0
C1123 C 0.4247 0.03458 0.37988 0.0
C1124 C 0.44395 0.03234 0.36755 0.0
C1125 C 0.41585 0.05191 0.37207 0.0
C1126 C 0.42609 0.06771 0.35326 0.0
C1127 C 0.44472 0.0653 0.33686 0.0
C1128 C 0.45358 0.04769 0.34376 0.0
C1129 C 0.41682 0.08647 0.35185 0.0
C1130 C 0.41195 0.09473 0.30574 0.0
C1131 C 0.40949 0.09411 0.39554 0.0
C1132 C 0.41559 0.08688 0.4453 0.0
C1133 C 0.43422 0.09107 0.46458 0.0
C1134 C 0.44043 0.08332 0.51033 0.0
C1135 C 0.42821 0.07106 0.53652 0.0
C1136 C 0.40964 0.06683 0.51741 0.0
C1137 C 0.40318 0.07499 0.47243 0.0
H1138 H 0.43314 0.06477 0.57148 0.0
H1139 H 0.37949 0.13511 0.11884 0.0
H1140 H 0.63359 0.32417 0.27707 0.0
H1141 H 0.64419 0.34739 0.33961 0.0
H1142 H 0.62364 0.30997 0.45551 0.0
H1143 H 0.61123 0.28756 0.39307 0.0
H1144 H 0.60782 0.34098 0.46377 0.0
H1145 H 0.67295 0.32662 0.44919 0.0
H1146 H 0.70299 0.31937 0.40858 0.0
H1147 H 0.70378 0.37476 0.3393 0.0
H1148 H 0.67358 0.38227 0.37883 0.0
H1149 H 0.61263 0.42324 0.60485 0.0
H1150 H 0.62752 0.39324 0.58423 0.0
H1151 H 0.6349 0.41342 0.43394 0.0
H1152 H 0.6199 0.44315 0.45379 0.0
H1153 H 0.6633 0.38704 0.46653 0.0
H1154 H 0.59292 0.39428 0.45999 0.0
H1155 H 0.56284 0.40194 0.5001 0.0
H1156 H 0.5732 0.35847 0.6106 0.0
H1157 H 0.60354 0.35081 0.57151 0.0
C1158 C 0.6314 0.32076 0.31585 0.0
C1159 C 0.62096 0.30416 0.32953 0.0
C1160 C 0.63791 0.33394 0.35189 0.0
C1161 C 0.6347 0.33053 0.40256 0.0
C1162 C 0.6262 0.31301 0.41668 0.0
C1163 C 0.61923 0.30006 0.38063 0.0
C1164 C 0.6366 0.3465 0.43874 0.0
C1165 C 0.62033 0.35059 0.46565 0.0
C1166 C 0.6527 0.35936 0.44093 0.0
C1167 C 0.67092 0.35498 0.41696 0.0
C1168 C 0.67944 0.33722 0.42505 0.0
C1169 C 0.69652 0.33307 0.40224 0.0
C1170 C 0.70528 0.34659 0.37136 0.0
C1171 C 0.69699 0.36431 0.36328 0.0
C1172 C 0.6799 0.36853 0.38598 0.0
C1173 C 0.6179 0.42147 0.5678 0.0
C1174 C 0.61465 0.43538 0.53064 0.0
C1175 C 0.62659 0.40442 0.55627 0.0
C1176 C 0.63202 0.40105 0.50738 0.0
C1177 C 0.63086 0.41578 0.47194 0.0
C1178 C 0.62219 0.4328 0.48339 0.0
C1179 C 0.63448 0.38136 0.4898 0.0
C1180 C 0.65134 0.37677 0.46614 0.0
C1181 C 0.619 0.36788 0.49061 0.0
C1182 C 0.60055 0.37213 0.51325 0.0
C1183 C 0.5888 0.38643 0.49296 0.0
C1184 C 0.57173 0.39077 0.51551 0.0
C1185 C 0.56613 0.38073 0.55796 0.0
C1186 C 0.57757 0.36627 0.5778 0.0
C1187 C 0.59471 0.36193 0.5555 0.0
H1188 H 0.55291 0.38413 0.5754 0.0
H1189 H 0.7185 0.34335 0.35374 0.0
H1190 H 0.18171 0.39209 0.29106 0.0
H1191 H 0.15856 0.40614 0.34514 0.0
H1192 H 0.20223 0.44629 0.40025 0.0
H1193 H 0.22519 0.43285 0.3462 0.0
H1194 H 0.17274 0.4403 0.46772 0.0
H1195 H 0.18177 0.45763 0.29376 0.0
H1196 H 0.18393 0.44991 0.20471 0.0
H1197 H 0.12687 0.42493 0.2033 0.0
H1198 H 0.12446 0.4324 0.29258 0.0
H1199 H 0.12841 0.53031 0.48042 0.0
H1200 H 0.14953 0.50418 0.46134 0.0
H1201 H 0.10118 0.47293 0.39328 0.0
H1202 H 0.08021 0.49872 0.41211 0.0
H1203 H 0.13054 0.47063 0.33877 0.0
H1204 H 0.12075 0.46494 0.51535 0.0
H1205 H 0.12202 0.47584 0.60243 0.0
H1206 H 0.18348 0.4818 0.59998 0.0
H1207 H 0.18262 0.47136 0.51249 0.0
C1208 C 0.18659 0.40341 0.31613 0.0
C1209 C 0.20512 0.41178 0.31275 0.0
C1210 C 0.17337 0.41133 0.3473 0.0
C1211 C 0.1786 0.42761 0.37542 0.0
C1212 C 0.19789 0.43382 0.37853 0.0
C1213 C 0.21107 0.426 0.34733 0.0
C1214 C 0.16382 0.44095 0.39021 0.0
C1215 C 0.16334 0.44689 0.43988 0.0
C1216 C 0.15178 0.44962 0.35354 0.0
C1217 C 0.15301 0.44538 0.29979 0.0
C1218 C 0.16972 0.45043 0.27444 0.0
C1219 C 0.17098 0.44613 0.22396 0.0
C1220 C 0.15557 0.43688 0.19838 0.0
C1221 C 0.13881 0.43204 0.2232 0.0
C1222 C 0.13747 0.43633 0.27372 0.0
C1223 C 0.12239 0.51787 0.46112 0.0
C1224 C 0.10271 0.5166 0.44748 0.0
C1225 C 0.13439 0.50289 0.45069 0.0
C1226 C 0.12681 0.48631 0.42724 0.0
C1227 C 0.10731 0.48538 0.41213 0.0
C1228 C 0.09538 0.50031 0.42225 0.0
C1229 C 0.13918 0.47011 0.41674 0.0
C1230 C 0.13939 0.46377 0.36737 0.0
C1231 C 0.15116 0.46144 0.45384 0.0
C1232 C 0.1516 0.46743 0.50695 0.0
C1233 C 0.13455 0.46862 0.53314 0.0
C1234 C 0.13519 0.47476 0.58265 0.0
C1235 C 0.15282 0.47958 0.60658 0.0
C1236 C 0.16984 0.47812 0.58128 0.0
C1237 C 0.16927 0.4721 0.53173 0.0
H1238 H 0.15332 0.48451 0.64465 0.0
H1239 H 0.15661 0.43351 0.15933 0.0
H1240 H 0.90898 0.78779 0.9029 0.0
H1241 H 0.92153 0.80989 0.84287 0.0
H1242 H 0.89776 0.85672 0.92042 0.0
H1243 H 0.88314 0.83444 0.97863 0.0
H1244 H 0.90694 0.86706 0.82511 0.0
H1245 H 0.93793 0.83645 0.96851 0.0
H1246 H 0.94801 0.80868 0.01887 0.0
H1247 H 0.98026 0.78867 0.8978 0.0
H1248 H 0.96992 0.81604 0.84604 0.0
H1249 H 0.98333 0.93512 0.84316 0.0
H1250 H 0.95813 0.91136 0.86007 0.0
H1251 H 0.98858 0.86908 0.78089 0.0
H1252 H 0.01433 0.89264 0.76544 0.0
H1253 H 0.97572 0.85518 0.86612 0.0
H1254 H 0.94851 0.88976 0.72793 0.0
H1255 H 0.93972 0.91916 0.68252 0.0
H1256 H 0.90157 0.93325 0.79751 0.0
H1257 H 0.91041 0.90414 0.84422 0.0
C1258 C 0.90523 0.80254 0.90648 0.0
C1259 C 0.89639 0.80938 0.94913 0.0
C1260 C 0.91265 0.81529 0.87158 0.0
C1261 C 0.91172 0.83496 0.8794 0.0
C1262 C 0.89934 0.84155 0.91499 0.0
C1263 C 0.89129 0.82872 0.949 0.0
C1264 C 0.92698 0.84796 0.8605 0.0
C1265 C 0.92197 0.86449 0.8339 0.0
C1266 C 0.94665 0.84455 0.87198 0.0
C1267 C 0.95298 0.82817 0.90323 0.0
C1268 C 0.94707 0.82606 0.95251 0.0
C1269 C 0.95283 0.81041 0.98133 0.0
C1270 C 0.96482 0.79698 0.96169 0.0
C1271 C 0.97098 0.7991 0.913 0.0
C1272 C 0.96514 0.81465 0.88384 0.0
C1273 C 0.98488 0.92068 0.83012 0.0
C1274 C 1.00093 0.91574 0.80321 0.0
C1275 C 0.97027 0.90721 0.83904 0.0
C1276 C 0.97127 0.88859 0.82074 0.0
C1277 C 0.98744 0.88345 0.79485 0.0
C1278 C 1.00212 0.89693 0.786 0.0
C1279 C 0.95576 0.87429 0.83049 0.0
C1280 C 0.96074 0.85757 0.85605 0.0
C1281 C 0.93616 0.87768 0.81845 0.0
C1282 C 0.93023 0.89482 0.7897 0.0
C1283 C 0.93831 0.89916 0.74363 0.0
C1284 C 0.93333 0.91575 0.71768 0.0
C1285 C 0.92014 0.92802 0.73714 0.0
C1286 C 0.9118 0.9237 0.78251 0.0
C1287 C 0.91678 0.90715 0.80873 0.0
H1288 H 0.91641 0.94085 0.71697 0.0
H1289 H 0.96931 0.78491 0.98418 0.0
H1290 H 0.71118 0.9138 0.85857 0.0
H1291 H 0.69388 0.92682 0.78556 0.0
H1292 H 0.64864 0.94416 0.87901 0.0
H1293 H 0.66581 0.93201 0.95152 0.0
H1294 H 0.63488 0.93752 0.78394 0.0
H1295 H 0.68859 0.97366 0.87104 0.0
H1296 H 0.72258 0.97673 0.89967 0.0
H1297 H 0.74023 0.96849 0.75001 0.0
H1298 H 0.70621 0.96534 0.7206 0.0
H1299 H 0.60505 0.02581 0.80638 0.0
H1300 H 0.62628 0.99945 0.81598 0.0
H1301 H 0.64528 0.00808 0.6665 0.0
H1302 H 0.62458 0.03568 0.65676 0.0
H1303 H 0.67446 0.99575 0.74822 0.0
H1304 H 0.61413 0.97797 0.67062 0.0
H1305 H 0.57899 0.97825 0.65786 0.0
H1306 H 0.57206 0.95527 0.80483 0.0
H1307 H 0.6072 0.95436 0.81809 0.0
C1308 C 0.69729 0.91994 0.86342 0.0
C1309 C 0.69029 0.92244 0.91145 0.0
C1310 C 0.68735 0.92721 0.82148 0.0
C1311 C 0.67022 0.93689 0.82708 0.0
C1312 C 0.66187 0.93681 0.87375 0.0
C1313 C 0.67181 0.92974 0.91554 0.0
C1314 C 0.66316 0.95071 0.78913 0.0
C1315 C 0.64358 0.95006 0.77477 0.0
C1316 C 0.67462 0.96697 0.77658 0.0
C1317 C 0.69498 0.96912 0.79377 0.0
C1318 C 0.69975 0.97248 0.84433 0.0
C1319 C 0.719 0.97421 0.86069 0.0
C1320 C 0.73359 0.97272 0.82673 0.0
C1321 C 0.72892 0.96959 0.77628 0.0
C1322 C 0.70966 0.96785 0.75973 0.0
C1323 C 0.61427 0.02296 0.77596 0.0
C1324 C 0.61267 0.03289 0.73028 0.0
C1325 C 0.62625 0.00755 0.78143 0.0
C1326 C 0.63677 1.00152 0.74139 0.0
C1327 C 0.63693 0.01241 0.69748 0.0
C1328 C 0.62501 0.0281 0.69202 0.0
C1329 C 0.64603 0.9829 0.74556 0.0
C1330 C 0.66596 0.98274 0.75386 0.0
C1331 C 0.63474 0.96609 0.75356 0.0
C1332 C 0.61346 0.96578 0.74497 0.0
C1333 C 0.60518 0.97267 0.69996 0.0
C1334 C 0.58521 0.97297 0.69266 0.0
C1335 C 0.57329 0.96663 0.73035 0.0
C1336 C 0.58132 0.95994 0.7754 0.0
C1337 C 0.60128 0.95937 0.78265 0.0
H1338 H 0.55784 0.96696 0.72473 0.0
H1339 H 0.74849 0.97406 0.83948 0.0
H1340 H 0.40673 0.68211 0.99153 0.0
H1341 H 0.39585 0.65834 0.93162 0.0
H1342 H 0.36115 0.69985 0.85372 0.0
H1343 H 0.37211 0.72415 0.91465 0.0
H1344 H 0.36527 0.64101 0.89324 0.0
H1345 H 0.36639 0.69209 0.729 0.0
H1346 H 0.37748 0.72482 0.70746 0.0
H1347 H 0.42447 0.72092 0.81506 0.0
H1348 H 0.41376 0.68812 0.83668 0.0
H1349 H 0.38509 0.5732 0.71229 0.0
H1350 H 0.36687 0.60017 0.74122 0.0
H1351 H 0.41901 0.63513 0.74723 0.0
H1352 H 0.43681 0.60874 0.71636 0.0
H1353 H 0.39136 0.6572 0.72847 0.0
H1354 H 0.40252 0.60502 0.84926 0.0
H1355 H 0.39832 0.57181 0.87897 0.0
H1356 H 0.33701 0.57718 0.87098 0.0
H1357 H 0.3409 0.61038 0.84068 0.0
C1358 C 0.39617 0.68618 0.96305 0.0
C1359 C 0.39041 0.70517 0.95789 0.0
C1360 C 0.38996 0.67246 0.92849 0.0
C1361 C 0.37786 0.67732 0.8877 0.0
C1362 C 0.37069 0.69584 0.88458 0.0
C1363 C 0.37701 0.70971 0.91931 0.0
C1364 C 0.37561 0.66364 0.84578 0.0
C1365 C 0.37046 0.6446 0.85665 0.0
C1366 C 0.38243 0.66828 0.79806 0.0
C1367 C 0.38912 0.68783 0.78484 0.0
C1368 C 0.37909 0.69824 0.74793 0.0
C1369 C 0.38532 0.71678 0.73571 0.0
C1370 C 0.40162 0.72497 0.76001 0.0
C1371 C 0.41181 0.71459 0.79637 0.0
C1372 C 0.40568 0.69603 0.80858 0.0
C1373 C 0.39244 0.58686 0.71845 0.0
C1374 C 0.41237 0.58888 0.71248 0.0
C1375 C 0.38206 0.60223 0.73508 0.0
C1376 C 0.39161 0.6196 0.74757 0.0
C1377 C 0.41121 0.62196 0.73781 0.0
C1378 C 0.42145 0.6068 0.7202 0.0
C1379 C 0.38246 0.63438 0.77745 0.0
C1380 C 0.3852 0.65364 0.76398 0.0
C1381 C 0.37432 0.62988 0.82382 0.0
C1382 C 0.37198 0.61002 0.84213 0.0
C1383 C 0.38816 0.59906 0.85365 0.0
C1384 C 0.38583 0.58026 0.87057 0.0
C1385 C 0.3674 0.57237 0.8767 0.0
C1386 C 0.35127 0.58329 0.86606 0.0
C1387 C 0.35352 0.60209 0.84898 0.0
H1388 H 0.36563 0.55781 0.88982 0.0
H1389 H 0.40639 0.73933 0.75057 0.0
H1390 H 0.82894 0.6257 0.95868 0.0
H1391 H 0.85272 0.61083 0.90858 0.0
H1392 H 0.80753 0.57924 0.82823 0.0
H1393 H 0.7839 0.59283 0.88015 0.0
H1394 H 0.83026 0.55606 0.877 0.0
H1395 H 0.84007 0.60978 0.76914 0.0
H1396 H 0.84651 0.64352 0.74735 0.0
H1397 H 0.90135 0.64208 0.82574 0.0
H1398 H 0.89514 0.6084 0.84866 0.0
H1399 H 0.89363 0.49828 0.74989 0.0
H1400 H 0.86946 0.5216 0.76794 0.0
H1401 H 0.91174 0.55418 0.85595 0.0
H1402 H 0.93615 0.53129 0.83662 0.0
H1403 H 0.89013 0.57728 0.79636 0.0
H1404 H 0.8792 0.526 0.91222 0.0
H1405 H 0.87327 0.49261 0.93831 0.0
H1406 H 0.82074 0.49031 0.84914 0.0
H1407 H 0.8265 0.52363 0.82199 0.0
C1408 C 0.82398 0.61595 0.92952 0.0
C1409 C 0.80452 0.60992 0.92508 0.0
C1410 C 0.83763 0.60761 0.90039 0.0
C1411 C 0.83193 0.59359 0.86535 0.0
C1412 C 0.81227 0.58984 0.85559 0.0
C1413 C 0.79868 0.59786 0.88523 0.0
C1414 C 0.84611 0.58017 0.84712 0.0
C1415 C 0.8431 0.56071 0.85814 0.0
C1416 C 0.86329 0.58629 0.82464 0.0
C1417 C 0.86706 0.60657 0.81094 0.0
C1418 C 0.85344 0.61669 0.78211 0.0
C1419 C 0.85706 0.63581 0.76947 0.0
C1420 C 0.87431 0.64495 0.78523 0.0
C1421 C 0.88799 0.63498 0.81358 0.0
C1422 C 0.88444 0.61587 0.82634 0.0
C1423 C 0.89777 0.51041 0.77307 0.0
C1424 C 0.91675 0.51285 0.79221 0.0
C1425 C 0.88396 0.52369 0.78344 0.0
C1426 C 0.88881 0.53956 0.81346 0.0
C1427 C 0.90772 0.54204 0.83265 0.0
C1428 C 0.92156 0.52879 0.82222 0.0
C1429 C 0.87403 0.55332 0.82584 0.0
C1430 C 0.87706 0.57274 0.8143 0.0
C1431 C 0.85688 0.54727 0.84837 0.0
C1432 C 0.85339 0.52723 0.86463 0.0
C1433 C 0.86647 0.51832 0.89784 0.0
C1434 C 0.86312 0.49942 0.91288 0.0
C1435 C 0.84667 0.48932 0.89527 0.0
C1436 C 0.8335 0.49813 0.86268 0.0
C1437 C 0.83679 0.51703 0.84747 0.0
H1438 H 0.8441 0.47469 0.90698 0.0
H1439 H 0.87708 0.65975 0.77541 0.0
H1440 H 0.06905 0.19719 0.93047 0.0
H1441 H 0.06363 0.17017 0.87526 0.0
H1442 H 1.0025 0.17328 0.89254 0.0
H1443 H 0.00804 0.19984 0.95114 0.0
H1444 H 0.01019 0.13828 0.89678 0.0
H1445 H 0.0278 0.18591 0.78 0.0
H1446 H 0.0465 0.2119 0.74055 0.0
H1447 H 0.09423 0.17505 0.72836 0.0
H1448 H 0.07598 0.14895 0.76868 0.0
H1449 H 0.99009 0.07238 0.69605 0.0
H1450 H 0.99365 0.10182 0.74425 0.0
H1451 H 0.05381 0.09147 0.77151 0.0
H1452 H 0.05028 0.06161 0.72395 0.0
H1453 H 0.04499 0.13045 0.74089 0.0
H1454 H 0.02544 0.08311 0.86205 0.0
H1455 H 1.00414 0.05741 0.89364 0.0
H1456 H 0.95673 0.09525 0.88813 0.0
H1457 H 0.9777 0.12111 0.85578 0.0
C1458 C 0.05438 0.19221 0.92278 0.0
C1459 C 0.03902 0.20074 0.94626 0.0
C1460 C 0.05126 0.17677 0.89026 0.0
C1461 C 0.0326 0.1695 0.87864 0.0
C1462 C 0.0171 0.17842 0.90055 0.0
C1463 C 0.02025 0.19384 0.93378 0.0
C1464 C 0.02955 0.15205 0.84607 0.0
C1465 C 0.0176 0.13685 0.86229 0.0
C1466 C 0.03931 0.14967 0.80099 0.0
C1467 C 0.05056 0.16552 0.77796 0.0
C1468 C 0.04237 0.18341 0.76951 0.0
C1469 C 0.05288 0.19816 0.74688 0.0
C1470 C 0.07156 0.19515 0.73212 0.0
C1471 C 0.07978 0.17739 0.73998 0.0
C1472 C 0.06935 0.16261 0.76274 0.0
C1473 C 1.00414 0.0763 0.71215 0.0
C1474 C 0.0199 0.06446 0.70599 0.0
C1475 C 0.00612 0.09319 0.73994 0.0
C1476 C 0.02397 0.09894 0.76192 0.0
C1477 C 0.03986 0.08739 0.75506 0.0
C1478 C 0.03781 0.07026 0.72793 0.0
C1479 C 0.02595 0.1169 0.79218 0.0
C1480 C 0.03763 0.1321 0.77541 0.0
C1481 C 0.01565 0.11945 0.83604 0.0
C1482 C 1.0031 0.10398 0.85603 0.0
C1483 C 0.01044 0.08591 0.8672 0.0
C1484 C 0.99843 0.07132 0.8853 0.0
C1485 C 0.97908 0.07468 0.89276 0.0
C1486 C 0.97172 0.09266 0.88227 0.0
C1487 C 0.98366 0.10729 0.86409 0.0
H1488 H 0.96981 0.06337 0.90676 0.0
H1489 H 0.07965 0.20657 0.71446 0.0
H1490 H 0.3252 1.00032 0.97491 0.0
H1491 H 0.34931 0.99298 0.91371 0.0
H1492 H 0.34867 0.05144 0.86198 0.0
H1493 H 0.32351 0.05794 0.91862 0.0
H1494 H 0.35708 0.03552 0.79035 0.0
H1495 H 0.38479 0.02755 0.95534 0.0
H1496 H 0.38826 0.01392 0.04004 0.0
H1497 H 0.39522 0.95827 0.97857 0.0
H1498 H 0.39156 0.97155 0.89346 0.0
H1499 H 0.45513 0.04414 0.71102 0.0
H1500 H 0.42628 0.04574 0.7605 0.0
H1501 H 0.41755 0.98485 0.74818 0.0
H1502 H 0.44612 0.9832 0.69784 0.0
H1503 H 0.41366 0.99912 0.84817 0.0
H1504 H 0.3896 0.0136 0.679 0.0
H1505 H 0.38745 0.03205 0.60048 0.0
H1506 H 0.37747 0.08301 0.68222 0.0
H1507 H 0.37976 0.06493 0.76117 0.0
C1508 C 0.32962 0.0113 0.94885 0.0
C1509 C 0.32223 0.02973 0.95184 0.0
C1510 C 0.34393 0.00729 0.91455 0.0
C1511 C 0.35181 0.02178 0.88363 0.0
C1512 C 0.34333 0.03977 0.8847 0.0
C1513 C 0.32872 0.04354 0.91742 0.0
C1514 C 0.36903 0.01887 0.85125 0.0
C1515 C 0.36946 0.02776 0.80395 0.0
C1516 C 0.38552 0.00854 0.86713 0.0
C1517 C 0.38765 1.0005 0.91812 0.0
C1518 C 0.38693 0.01239 0.95993 0.0
C1519 C 0.38895 1.00473 1.00799 0.0
C1520 C 0.39189 0.98523 0.01468 0.0
C1521 C 0.39288 0.97336 0.97332 0.0
C1522 C 0.39084 0.98094 0.92517 0.0
C1523 C 0.44708 0.03106 0.71867 0.0
C1524 C 0.4531 0.01354 0.69997 0.0
C1525 C 0.43047 0.032 0.74702 0.0
C1526 C 0.41948 0.01542 0.7583 0.0
C1527 C 0.42562 0.99789 0.74026 0.0
C1528 C 0.44201 0.99699 0.71114 0.0
C1529 C 0.4017 0.01634 0.78882 0.0
C1530 C 0.40119 0.00694 0.83531 0.0
C1531 C 0.38555 0.02704 0.77347 0.0
C1532 C 0.38497 0.03793 0.72598 0.0
C1533 C 0.38717 0.02878 0.68024 0.0
C1534 C 0.38587 0.03917 0.63564 0.0
C1535 C 0.3823 0.05869 0.63641 0.0
C1536 C 0.38021 0.0679 0.68171 0.0
C1537 C 0.38149 0.05759 0.72634 0.0
H1538 H 0.38101 0.06672 0.60197 0.0
H1539 H 0.39346 0.97932 0.05192 0.0
H1540 H 0.49676 0.32912 0.96865 0.0
H1541 H 0.49135 0.35436 0.90579 0.0
H1542 H 0.54822 0.34675 0.85259 0.0
H1543 H 0.55355 0.3217 0.91499 0.0
H1544 H 0.5433 0.38336 0.87404 0.0
H1545 H 0.50805 0.33481 0.78067 0.0
H1546 H 0.48325 0.30938 0.76666 0.0
H1547 H 0.43905 0.34907 0.79337 0.0
H1548 H 0.46362 0.37469 0.80821 0.0
H1549 H 0.51553 0.43961 0.63423 0.0
H1550 H 0.51694 0.40928 0.68079 0.0
H1551 H 0.50898 0.43925 0.81764 0.0
H1552 H 0.50724 0.46937 0.77173 0.0
H1553 H 0.48979 0.39044 0.74859 0.0
H1554 H 0.54186 0.41988 0.90363 0.0
H1555 H 0.5673 0.4449 0.91493 0.0
H1556 H 0.57933 0.44204 0.7596 0.0
H1557 H 0.55427 0.41673 0.74759 0.0
C1558 C 0.50776 0.33234 0.94219 0.0
C1559 C 0.52549 0.32325 0.94641 0.0
C1560 C 0.50476 0.34691 0.90649 0.0
C1561 C 0.51944 0.35267 0.87441 0.0
C1562 C 0.53669 0.34276 0.87689 0.0
C1563 C 0.53965 0.32826 0.91227 0.0
C1564 C 0.51765 0.36992 0.84122 0.0
C1565 C 0.53157 0.38481 0.84667 0.0
C1566 C 0.50247 0.37198 0.80502 0.0
C1567 C 0.48769 0.35662 0.79602 0.0
C1568 C 0.49305 0.33808 0.78396 0.0
C1569 C 0.47904 0.32364 0.77579 0.0
C1570 C 0.45959 0.32759 0.77925 0.0
C1571 C 0.45412 0.34602 0.79076 0.0
C1572 C 0.46808 0.36051 0.79901 0.0
C1573 C 0.51392 0.43973 0.67418 0.0
C1574 C 0.51122 0.45702 0.69904 0.0
C1575 C 0.51464 0.42234 0.70074 0.0
C1576 C 0.51306 0.42193 0.75283 0.0
C1577 C 0.51022 0.43914 0.77756 0.0
C1578 C 0.50921 0.45641 0.75107 0.0
C1579 C 0.5153 0.40379 0.78203 0.0
C1580 C 0.50149 0.38886 0.77601 0.0
C1581 C 0.53064 0.40159 0.81759 0.0
C1582 C 0.54604 0.41654 0.82465 0.0
C1583 C 0.55 0.42451 0.87195 0.0
C1584 C 0.56437 0.43874 0.87848 0.0
C1585 C 0.57488 0.44509 0.83798 0.0
C1586 C 0.57113 0.43716 0.79091 0.0
C1587 C 0.55684 0.42287 0.78422 0.0
H1588 H 0.58597 0.45612 0.84308 0.0
H1589 H 0.44876 0.31639 0.7729 0.0
H1590 H 0.19896 0.44499 0.89827 0.0
H1591 H 0.17242 0.45215 0.8405 0.0
H1592 H 0.18902 0.51193 0.845 0.0
H1593 H 0.21518 0.50486 0.90554 0.0
H1594 H 0.15312 0.50988 0.85411 0.0
H1595 H 0.19204 0.48295 0.73563 0.0
H1596 H 0.21323 0.46061 0.69552 0.0
H1597 H 0.16881 0.41685 0.69752 0.0
H1598 H 0.14741 0.43885 0.7382 0.0
H1599 H 0.08391 0.51706 0.63338 0.0
H1600 H 0.1158 0.51257 0.67299 0.0
H1601 H 0.0905 0.47672 0.7853 0.0
H1602 H 0.05855 0.48136 0.74674 0.0
H1603 H 0.13227 0.47008 0.70869 0.0
H1604 H 0.09865 0.50123 0.85224 0.0
H1605 H 0.07858 0.52752 0.87857 0.0
H1606 H 0.11665 0.56827 0.80985 0.0
H1607 H 0.13674 0.54213 0.78251 0.0
C1608 C 0.19709 0.45969 0.88682 0.0
C1609 C 0.20912 0.47437 0.90726 0.0
C1610 C 0.18197 0.46376 0.85304 0.0
C1611 C 0.17861 0.48261 0.83769 0.0
C1612 C 0.19119 0.49725 0.85614 0.0
C1613 C 0.2063 0.49318 0.89045 0.0
C1614 C 0.16102 0.48698 0.80619 0.0
C1615 C 0.14887 0.50128 0.8219 0.0
C1616 C 0.15519 0.47604 0.76356 0.0
C1617 C 0.16819 0.46251 0.74053 0.0
C1618 C 0.18686 0.46849 0.72809 0.0
C1619 C 0.19889 0.45591 0.70507 0.0
C1620 C 0.19239 0.43731 0.69411 0.0
C1621 C 0.17384 0.43126 0.7061 0.0
C1622 C 0.16174 0.44379 0.72909 0.0
C1623 C 0.08509 0.50816 0.66641 0.0
C1624 C 0.06857 0.49968 0.68704 0.0
C1625 C 0.10334 0.50564 0.68901 0.0
C1626 C 0.10544 0.49455 0.73244 0.0
C1627 C 0.08913 0.48557 0.75219 0.0
C1628 C 0.07087 0.48822 0.73 0.0
C1629 C 0.12463 0.49244 0.75766 0.0
C1630 C 0.1369 0.47865 0.74066 0.0
C1631 C 0.1309 0.50418 0.7979 0.0
C1632 C 0.11902 0.51979 0.81498 0.0
C1633 C 0.10262 0.51579 0.84247 0.0
C1634 C 0.09127 0.53065 0.85761 0.0
C1635 C 0.09631 0.54955 0.84577 0.0
C1636 C 0.11274 0.55363 0.81889 0.0
C1637 C 0.1241 0.5388 0.80356 0.0
H1638 H 0.08751 0.56104 0.85752 0.0
H1639 H 0.20172 0.42759 0.67623 0.0
H1640 H 0.96201 0.81684 0.35082 0.0
H1641 H 0.96683 0.84434 0.40578 0.0
H1642 H 0.02364 0.85406 0.35071 0.0
H1643 H 0.0187 0.82645 0.29492 0.0
H1644 H 0.9903 0.85528 0.48073 0.0
H1645 H 0.03271 0.90326 0.3463 0.0
H1646 H 0.03766 0.90683 0.25616 0.0
H1647 H 0.98185 0.88123 0.22359 0.0
H1648 H 0.97647 0.87777 0.31348 0.0
H1649 H 0.01736 0.94162 0.60919 0.0
H1650 H 0.01692 0.91198 0.56205 0.0
H1651 H 0.98092 0.93754 0.44721 0.0
H1652 H 0.98213 0.96758 0.49327 0.0
H1653 H 1.00513 0.91812 0.4031 0.0
H1654 H 0.96447 0.90165 0.54055 0.0
H1655 H 0.95692 0.89829 0.6292 0.0
H1656 H 1.00463 0.86153 0.65358 0.0
H1657 H 0.01246 0.86465 0.56495 0.0
C1658 C 0.97568 0.82463 0.35094 0.0
C1659 C 0.98996 0.81938 0.31826 0.0
C1660 C 0.97844 0.84041 0.38255 0.0
C1661 C 0.99549 0.85164 0.38227 0.0
C1662 C 0.01021 0.84589 0.35141 0.0
C1663 C 0.00748 0.82994 0.31984 0.0
C1664 C 0.99722 0.86973 0.41246 0.0
C1665 C 0.99368 0.86898 0.46369 0.0
C1666 C 1.00135 0.88783 0.3907 0.0
C1667 C 1.00432 0.89003 0.33658 0.0
C1668 C 0.02149 0.89844 0.31987 0.0
C1669 C 0.02436 0.90045 0.26884 0.0
C1670 C 0.01011 0.89419 0.23417 0.0
C1671 C 0.99291 0.886 0.25047 0.0
C1672 C 0.98995 0.884 0.30145 0.0
C1673 C 0.00918 0.94095 0.57414 0.0
C1674 C 0.99967 0.95713 0.55548 0.0
C1675 C 0.00886 0.92382 0.54707 0.0
C1676 C 0.99861 0.9221 0.50095 0.0
C1677 C 0.98899 0.93825 0.48247 0.0
C1678 C 0.98957 0.95549 0.50915 0.0
C1679 C 0.99815 0.90374 0.47156 0.0
C1680 C 1.00192 0.90443 0.42039 0.0
C1681 C 0.99397 0.88561 0.49325 0.0
C1682 C 0.98913 0.88352 0.54629 0.0
C1683 C 0.97338 0.89291 0.56488 0.0
C1684 C 0.96906 0.89104 0.61511 0.0
C1685 C 0.98035 0.87978 0.64707 0.0
C1686 C 0.99592 0.87027 0.62879 0.0
C1687 C 1.00027 0.87203 0.57854 0.0
H1688 H 0.977 0.87837 0.68593 0.0
H1689 H 0.01238 0.89574 0.19468 0.0
H1690 H 0.68706 0.96205 0.31265 0.0
H1691 H 0.66059 0.96645 0.36757 0.0
H1692 H 0.66492 0.02727 0.34352 0.0
H1693 H 0.69116 0.02278 0.28631 0.0
H1694 H 0.65451 0.98138 0.45046 0.0
H1695 H 0.62006 0.04729 0.35706 0.0
H1696 H 0.61736 0.06303 0.27471 0.0
H1697 H 0.6267 0.00971 0.20304 0.0
H1698 H 0.62915 0.9936 0.28488 0.0
H1699 H 0.57698 0.00885 0.60204 0.0
H1700 H 0.60631 0.00792 0.55463 0.0
H1701 H 0.57209 0.99572 0.42076 0.0
H1702 H 0.54285 0.99733 0.46762 0.0
H1703 H 0.5982 0.01868 0.39491 0.0
H1704 H 0.60089 0.96108 0.4922 0.0
H1705 H 0.60213 0.94046 0.56703 0.0
H1706 H 0.65309 0.97072 0.62146 0.0
H1707 H 0.65205 0.99166 0.54714 0.0
C1708 C 0.68243 0.97643 0.31866 0.0
C1709 C 0.69128 0.992 0.29385 0.0
C1710 C 0.66723 0.97896 0.35076 0.0
C1711 C 0.66018 0.99718 0.35972 0.0
C1712 C 0.66957 0.01294 0.33688 0.0
C1713 C 0.68485 0.01039 0.30443 0.0
C1714 C 0.64287 0.99929 0.39194 0.0
C1715 C 0.6423 0.9897 0.43825 0.0
C1716 C 0.62651 0.0098 0.37655 0.0
C1717 C 0.62509 0.01932 0.32714 0.0
C1718 C 0.62153 0.03893 0.32371 0.0
C1719 C 0.62002 0.04791 0.27713 0.0
C1720 C 0.62196 0.03739 0.23368 0.0
C1721 C 0.6253 0.01785 0.23672 0.0
C1722 C 0.62677 0.0088 0.2832 0.0
C1723 C 0.57567 0.00601 0.56249 0.0
C1724 C 0.55733 1.00321 0.53905 0.0
C1725 C 0.59259 0.0053 0.53521 0.0
C1726 C 0.59179 1.00152 0.48354 0.0
C1727 C 0.57344 0.99871 0.46026 0.0
C1728 C 0.55657 0.99953 0.48742 0.0
C1729 C 0.6098 1.00071 0.45339 0.0
C1730 C 0.61051 0.01056 0.40747 0.0
C1731 C 0.62609 0.99005 0.46859 0.0
C1732 C 0.62631 0.97802 0.51426 0.0
C1733 C 0.61226 0.96345 0.52033 0.0
C1734 C 0.61298 0.95165 0.56253 0.0
C1735 C 0.62778 0.95417 0.59871 0.0
C1736 C 0.64174 0.96868 0.59314 0.0
C1737 C 0.64108 0.98053 0.55103 0.0
H1738 H 0.62833 0.945 0.63131 0.0
H1739 H 0.6208 0.04437 0.19766 0.0
H1740 H 0.48042 0.70565 0.35781 0.0
H1741 H 0.48903 0.67986 0.41529 0.0
H1742 H 0.52987 0.66018 0.31188 0.0
H1743 H 0.52095 0.68603 0.25371 0.0
H1744 H 0.50746 0.63116 0.3404 0.0
H1745 H 0.54419 0.67952 0.42792 0.0
H1746 H 0.55074 0.71066 0.46821 0.0
H1747 H 0.50718 0.698 0.57338 0.0
H1748 H 0.50017 0.66689 0.53329 0.0
H1749 H 0.54044 0.5589 0.50988 0.0
H1750 H 0.53999 0.58801 0.45896 0.0
H1751 H 0.49212 0.60776 0.53939 0.0
H1752 H 0.49227 0.57852 0.59008 0.0
H1753 H 0.52102 0.63673 0.52253 0.0
H1754 H 0.48297 0.58955 0.43138 0.0
H1755 H 0.47669 0.55811 0.39252 0.0
H1756 H 0.52321 0.56859 0.29461 0.0
H1757 H 0.52999 0.59999 0.33356 0.0
C1758 C 0.49174 0.69623 0.34811 0.0
C1759 C 0.50021 0.69807 0.30152 0.0
C1760 C 0.49663 0.68139 0.381 0.0
C1761 C 0.5102 0.66795 0.36834 0.0
C1762 C 0.51938 0.6703 0.32274 0.0
C1763 C 0.5145 0.68526 0.28976 0.0
C1764 C 0.51348 0.65075 0.40092 0.0
C1765 C 0.51085 0.63245 0.38002 0.0
C1766 C 0.51739 0.65221 0.45305 0.0
C1767 C 0.52156 0.67092 0.47731 0.0
C1768 C 0.5359 0.68343 0.4594 0.0
C1769 C 0.53972 0.70107 0.48225 0.0
C1770 C 0.52936 0.70632 0.52326 0.0
C1771 C 0.51519 0.69392 0.54158 0.0
C1772 C 0.5113 0.67627 0.51884 0.0
C1773 C 0.52991 0.56949 0.51718 0.0
C1774 C 0.51638 0.56628 0.55422 0.0
C1775 C 0.52964 0.58613 0.48782 0.0
C1776 C 0.51596 0.6001 0.49508 0.0
C1777 C 0.50283 0.59724 0.53305 0.0
C1778 C 0.5029 0.58046 0.56195 0.0
C1779 C 0.51493 0.61732 0.46192 0.0
C1780 C 0.51789 0.63554 0.48277 0.0
C1781 C 0.51134 0.6158 0.40978 0.0
C1782 C 0.50714 0.59703 0.3858 0.0
C1783 C 0.49198 0.58509 0.40186 0.0
C1784 C 0.48831 0.56728 0.37978 0.0
C1785 C 0.49958 0.56132 0.34121 0.0
C1786 C 0.51451 0.5732 0.32456 0.0
C1787 C 0.51827 0.59101 0.34662 0.0
H1788 H 0.49671 0.54753 0.32416 0.0
H1789 H 0.53233 0.71998 0.54091 0.0
H1790 H 0.81659 0.5241 0.31964 0.0
H1791 H 0.8433 0.51529 0.37727 0.0
H1792 H 0.84879 0.57347 0.42793 0.0
H1793 H 0.82203 0.58219 0.3717 0.0
H1794 H 0.88264 0.55864 0.38669 0.0
H1795 H 0.8349 0.54195 0.5067 0.0
H1796 H 0.8062 0.52458 0.53633 0.0
H1797 H 0.83324 0.47117 0.51462 0.0
H1798 H 0.86202 0.48823 0.48416 0.0
H1799 H 0.96051 0.55452 0.56109 0.0
H1800 H 0.92911 0.5599 0.52041 0.0
H1801 H 0.91824 0.49906 0.51174 0.0
H1802 H 0.94916 0.49367 0.55476 0.0
H1803 H 0.88654 0.51389 0.5303 0.0
H1804 H 0.93308 0.52819 0.40858 0.0
H1805 H 0.96191 0.54361 0.37369 0.0
H1806 H 0.93755 0.59867 0.39013 0.0
H1807 H 0.90866 0.58359 0.42574 0.0
C1808 C 0.82302 0.53481 0.3445 0.0
C1809 C 0.81731 0.55387 0.34085 0.0
C1810 C 0.83837 0.5298 0.37713 0.0
C1811 C 0.84821 0.5438 0.40645 0.0
C1812 C 0.84155 0.56248 0.40541 0.0
C1813 C 0.82619 0.56742 0.37335 0.0
C1814 C 0.86661 0.53969 0.43409 0.0
C1815 C 0.88347 0.54903 0.41851 0.0
C1816 C 0.86782 0.52661 0.47433 0.0
C1817 C 0.85053 0.51636 0.4926 0.0
C1818 C 0.83465 0.5265 0.50775 0.0
C1819 C 0.81839 0.51671 0.52482 0.0
C1820 C 0.81787 0.49678 0.52721 0.0
C1821 C 0.83365 0.4866 0.51267 0.0
C1822 C 0.84995 0.49633 0.49554 0.0
C1823 C 0.95142 0.5423 0.55059 0.0
C1824 C 0.95746 0.52367 0.56081 0.0
C1825 C 0.93345 0.54537 0.52703 0.0
C1826 C 0.92132 0.52989 0.51169 0.0
C1827 C 0.92722 0.51129 0.52288 0.0
C1828 C 0.945 0.50822 0.54737 0.0
C1829 C 0.9027 0.53307 0.48336 0.0
C1830 C 0.88581 0.52351 0.49851 0.0
C1831 C 0.90147 0.54565 0.44183 0.0
C1832 C 0.91879 0.55477 0.42027 0.0
C1833 C 0.93393 0.5436 0.40505 0.0
C1834 C 0.95027 0.55228 0.38511 0.0
C1835 C 0.95158 0.57211 0.37982 0.0
C1836 C 0.93652 0.58331 0.39432 0.0
C1837 C 0.92015 0.5747 0.41435 0.0
H1838 H 0.96425 0.5788 0.36438 0.0
H1839 H 0.80527 0.48922 0.54046 0.0
loop_
_geom_bond_atom_site_label_1
_geom_bond_atom_site_label_2
_geom_bond_distance
_geom_bond_site_symmetry_2
_ccdc_geom_bond_type
C0 C1 1.391 . S
C0 C4 1.391 . S
C0 H42 0.948 . S
C1 C0 1.391 . S
C1 C2 1.391 . S
C2 C1 1.391 . S
C2 H58 0.947 . S
C2 C59 1.392 . S
C3 C4 1.391 . S
C3 C7 1.397 . S
C3 C59 1.419 . S
C4 C0 1.391 . S
C4 C3 1.391 . S
C4 C5 1.399 . S
C5 C4 1.399 . S
C5 C8 1.396 . S
C5 C17 1.453 . S
C5 C18 1.684 . S
H6 C30 0.948 . S
C7 C3 1.397 . S
C7 C8 1.394 . S
C7 C26 1.723 . S
C8 C5 1.396 . S
C8 C7 1.394 . S
C8 C38 1.723 . S
H9 C32 0.947 . S
H10 C33 0.948 . S
H11 C39 0.982 . S
H12 C40 0.979 . S
H13 C40 0.980 1_556 S
H14 C40 0.983 1_556 S
H15 C39 0.979 1_556 S
H16 C39 0.977 . S
C17 C5 1.453 . S
C17 H46 0.982 . S
C17 H47 0.979 . S
C17 H48 0.977 . S
C18 C5 1.684 . S
C18 H43 0.979 . S
C18 H44 0.980 . S
C18 H45 0.983 . S
C19 C20 1.391 1_554 S
C19 C24 1.391 . S
C19 H49 0.948 . S
C20 C19 1.391 1_556 S
C20 C21 1.391 . S
C21 C20 1.391 . S
C21 C22 1.392 1_556 S
C21 H50 0.947 . S
C22 C21 1.392 1_554 S
C22 C23 1.419 . S
C22 H51 0.948 1_554 S
C23 C22 1.419 . S
C23 C24 1.391 . S
C23 C27 1.397 . S
C24 C19 1.391 . S
C24 C23 1.391 . S
C24 C25 1.399 . S
C25 C24 1.399 . S
C25 C26 1.396 . S
C25 C28 1.453 . S
C25 C29 1.684 . S
C26 C7 1.723 . S
C26 C25 1.396 . S
C26 C27 1.394 . S
C27 C23 1.397 . S
C27 C26 1.394 . S
C27 C37 1.723 . S
C28 C25 1.453 . S
C28 H52 0.982 . S
C28 H53 0.979 . S
C28 H54 0.977 . S
C29 C25 1.684 . S
C29 H55 0.979 . S
C29 H56 0.980 . S
C29 H57 0.983 . S
C30 H6 0.948 . S
C30 C31 1.391 . S
C30 C35 1.391 . S
C31 C30 1.391 . S
C31 C32 1.391 . S
C32 H9 0.947 . S
C32 C31 1.391 . S
C32 C33 1.392 . S
C33 H10 0.948 . S
C33 C32 1.392 . S
C33 C34 1.419 . S
C34 C33 1.419 . S
C34 C35 1.391 . S
C34 C38 1.397 . S
C35 C30 1.391 . S
C35 C34 1.391 . S
C35 C36 1.399 . S
C36 C35 1.399 . S
C36 C37 1.396 . S
C36 C39 1.453 . S
C36 C40 1.684 . S
C37 C27 1.723 . S
C37 C36 1.396 . S
C37 C38 1.394 . S
C38 C8 1.723 . S
C38 C34 1.397 . S
C38 C37 1.394 . S
C39 H11 0.982 . S
C39 H15 0.979 1_554 S
C39 H16 0.977 . S
C39 C36 1.453 . S
C40 H12 0.979 . S
C40 H13 0.980 1_554 S
C40 H14 0.983 1_554 S
C40 C36 1.684 . S
H41 C59 0.948 . S
H42 C0 0.948 . S
H43 C18 0.979 . S
H44 C18 0.980 . S
H45 C18 0.983 . S
H46 C17 0.982 . S
H47 C17 0.979 . S
H48 C17 0.977 . S
H49 C19 0.948 . S
H50 C21 0.947 . S
H51 C22 0.948 1_556 S
H52 C28 0.982 . S
H53 C28 0.979 . S
H54 C28 0.977 . S
H55 C29 0.979 . S
H56 C29 0.980 . S
H57 C29 0.983 . S
H58 C2 0.947 . S
C59 C2 1.392 . S
C59 C3 1.419 . S
C59 H41 0.948 . S
C60 C61 1.391 . S
C60 C64 1.391 . S
C60 H102 0.948 . S
C61 C60 1.391 . S
C61 C62 1.391 . S
C62 C61 1.391 . S
C62 H118 0.947 . S
C62 C119 1.392 . S
C63 C64 1.391 . S
C63 C67 1.397 . S
C63 C119 1.419 . S
C64 C60 1.391 . S
C64 C63 1.391 . S
C64 C65 1.399 . S
C65 C64 1.399 . S
C65 C68 1.396 . S
C65 C77 1.453 . S
C65 C78 1.684 . S
H66 C90 0.948 . S
C67 C63 1.397 . S
C67 C68 1.394 . S
C67 C86 1.723 . S
C68 C65 1.396 . S
C68 C67 1.394 . S
C68 C98 1.723 . S
H69 C92 0.947 . S
H70 C93 0.948 . S
H71 C99 0.982 . S
H72 C100 0.979 . S
H73 C100 0.980 . S
H74 C100 0.983 . S
H75 C99 0.979 . S
H76 C99 0.977 . S
C77 C65 1.453 . S
C77 H106 0.982 . S
C77 H107 0.979 . S
C77 H108 0.977 . S
C78 C65 1.684 . S
C78 H103 0.979 . S
C78 H104 0.980 . S
C78 H105 0.983 . S
C79 C80 1.391 . S
C79 C84 1.391 . S
C79 H109 0.948 . S
C80 C79 1.391 . S
C80 C81 1.391 . S
C81 C80 1.391 . S
C81 C82 1.392 . S
C81 H110 0.947 . S
C82 C81 1.392 . S
C82 C83 1.419 . S
C82 H111 0.948 . S
C83 C82 1.419 . S
C83 C84 1.391 . S
C83 C87 1.397 . S
C84 C79 1.391 . S
C84 C83 1.391 . S
C84 C85 1.399 . S
C85 C84 1.399 . S
C85 C86 1.396 . S
C85 C88 1.453 . S
C85 C89 1.684 . S
C86 C67 1.723 . S
C86 C85 1.396 . S
C86 C87 1.394 . S
C87 C83 1.397 . S
C87 C86 1.394 . S
C87 C97 1.723 . S
C88 C85 1.453 . S
C88 H112 0.982 . S
C88 H113 0.979 . S
C88 H114 0.977 . S
C89 C85 1.684 . S
C89 H115 0.979 . S
C89 H116 0.980 . S
C89 H117 0.983 . S
C90 H66 0.948 . S
C90 C91 1.391 . S
C90 C95 1.391 . S
C91 C90 1.391 . S
C91 C92 1.391 . S
C92 H69 0.947 . S
C92 C91 1.391 . S
C92 C93 1.392 . S
C93 H70 0.948 . S
C93 C92 1.392 . S
C93 C94 1.419 . S
C94 C93 1.419 . S
C94 C95 1.391 . S
C94 C98 1.397 . S
C95 C90 1.391 . S
C95 C94 1.391 . S
C95 C96 1.399 . S
C96 C95 1.399 . S
C96 C97 1.396 . S
C96 C99 1.453 . S
C96 C100 1.684 . S
C97 C87 1.723 . S
C97 C96 1.396 . S
C97 C98 1.394 . S
C98 C68 1.723 . S
C98 C94 1.397 . S
C98 C97 1.394 . S
C99 H71 0.982 . S
C99 H75 0.979 . S
C99 H76 0.977 . S
C99 C96 1.453 . S
C100 H72 0.979 . S
C100 H73 0.980 . S
C100 H74 0.983 . S
C100 C96 1.684 . S
H101 C119 0.948 . S
H102 C60 0.948 . S
H103 C78 0.979 . S
H104 C78 0.980 . S
H105 C78 0.983 . S
H106 C77 0.982 . S
H107 C77 0.979 . S
H108 C77 0.977 . S
H109 C79 0.948 . S
H110 C81 0.947 . S
H111 C82 0.948 . S
H112 C88 0.982 . S
H113 C88 0.979 . S
H114 C88 0.977 . S
H115 C89 0.979 . S
H116 C89 0.980 . S
H117 C89 0.983 . S
H118 C62 0.947 . S
C119 C62 1.392 . S
C119 C63 1.419 . S
C119 H101 0.948 . S
C120 C121 1.391 . S
C120 C124 1.391 . S
C120 H162 0.948 . S
C121 C120 1.391 . S
C121 C122 1.391 . S
C122 C121 1.391 . S
C122 H178 0.947 . S
C122 C179 1.392 . S
C123 C124 1.391 . S
C123 C127 1.397 . S
C123 C179 1.419 . S
C124 C120 1.391 . S
C124 C123 1.391 . S
C124 C125 1.399 . S
C125 C124 1.399 . S
C125 C128 1.396 . S
C125 C137 1.453 . S
C125 C138 1.684 . S
H126 C150 0.948 . S
C127 C123 1.397 . S
C127 C128 1.394 . S
C127 C146 1.723 . S
C128 C125 1.396 . S
C128 C127 1.394 . S
C128 C158 1.723 . S
H129 C152 0.947 . S
H130 C153 0.948 . S
H131 C159 0.982 . S
H132 C160 0.979 . S
H133 C160 0.980 . S
H134 C160 0.983 . S
H135 C159 0.979 . S
H136 C159 0.977 . S
C137 C125 1.453 . S
C137 H166 0.982 . S
C137 H167 0.979 . S
C137 H168 0.977 . S
C138 C125 1.684 . S
C138 H163 0.979 . S
C138 H164 0.980 . S
C138 H165 0.983 . S
C139 C140 1.391 . S
C139 C144 1.391 . S
C139 H169 0.948 . S
C140 C139 1.391 . S
C140 C141 1.391 . S
C141 C140 1.391 . S
C141 C142 1.392 . S
C141 H170 0.947 . S
C142 C141 1.392 . S
C142 C143 1.419 . S
C142 H171 0.948 . S
C143 C142 1.419 . S
C143 C144 1.391 . S
C143 C147 1.397 . S
C144 C139 1.391 . S
C144 C143 1.391 . S
C144 C145 1.399 . S
C145 C144 1.399 . S
C145 C146 1.396 . S
C145 C148 1.453 . S
C145 C149 1.684 . S
C146 C127 1.723 . S
C146 C145 1.396 . S
C146 C147 1.394 . S
C147 C143 1.397 . S
C147 C146 1.394 . S
C147 C157 1.723 . S
C148 C145 1.453 . S
C148 H172 0.982 . S
C148 H173 0.979 . S
C148 H174 0.977 . S
C149 C145 1.684 . S
C149 H175 0.979 . S
C149 H176 0.980 . S
C149 H177 0.983 . S
C150 H126 0.948 . S
C150 C151 1.391 . S
C150 C155 1.391 . S
C151 C150 1.391 . S
C151 C152 1.391 . S
C152 H129 0.947 . S
C152 C151 1.391 . S
C152 C153 1.392 . S
C153 H130 0.948 . S
C153 C152 1.392 . S
C153 C154 1.419 . S
C154 C153 1.419 . S
C154 C155 1.391 . S
C154 C158 1.397 . S
C155 C150 1.391 . S
C155 C154 1.391 . S
C155 C156 1.399 . S
C156 C155 1.399 . S
C156 C157 1.396 . S
C156 C159 1.453 . S
C156 C160 1.684 . S
C157 C147 1.723 . S
C157 C156 1.396 . S
C157 C158 1.394 . S
C158 C128 1.723 . S
C158 C154 1.397 . S
C158 C157 1.394 . S
C159 H131 0.982 . S
C159 H135 0.979 . S
C159 H136 0.977 . S
C159 C156 1.453 . S
C160 H132 0.979 . S
C160 H133 0.980 . S
C160 H134 0.983 . S
C160 C156 1.684 . S
H161 C179 0.948 . S
H162 C120 0.948 . S
H163 C138 0.979 . S
H164 C138 0.980 . S
H165 C138 0.983 . S
H166 C137 0.982 . S
H167 C137 0.979 . S
H168 C137 0.977 . S
H169 C139 0.948 . S
H170 C141 0.947 . S
H171 C142 0.948 . S
H172 C148 0.982 . S
H173 C148 0.979 . S
H174 C148 0.977 . S
H175 C149 0.979 . S
H176 C149 0.980 . S
H177 C149 0.983 . S
H178 C122 0.947 . S
C179 C122 1.392 . S
C179 C123 1.419 . S
C179 H161 0.948 . S
C180 C181 1.391 . S
C180 C184 1.391 . S
C180 H222 0.948 . S
C181 C180 1.391 . S
C181 C182 1.391 . S
C182 C181 1.391 . S
C182 H238 0.947 . S
C182 C239 1.392 . S
C183 C184 1.391 . S
C183 C187 1.397 . S
C183 C239 1.419 . S
C184 C180 1.391 . S
C184 C183 1.391 . S
C184 C185 1.399 . S
C185 C184 1.399 . S
C185 C188 1.396 . S
C185 C197 1.453 . S
C185 C198 1.684 . S
H186 C210 0.948 . S
C187 C183 1.397 . S
C187 C188 1.394 . S
C187 C206 1.723 . S
C188 C185 1.396 . S
C188 C187 1.394 . S
C188 C218 1.723 . S
H189 C212 0.947 . S
H190 C213 0.948 . S
H191 C219 0.982 . S
H192 C220 0.979 . S
H193 C220 0.980 . S
H194 C220 0.983 . S
H195 C219 0.979 . S
H196 C219 0.977 . S
C197 C185 1.453 . S
C197 H226 0.982 . S
C197 H227 0.979 . S
C197 H228 0.977 . S
C198 C185 1.684 . S
C198 H223 0.979 . S
C198 H224 0.980 . S
C198 H225 0.983 . S
C199 C200 1.391 . S
C199 C204 1.391 . S
C199 H229 0.948 . S
C200 C199 1.391 . S
C200 C201 1.391 1_554 S
C201 C200 1.391 1_556 S
C201 C202 1.392 1_556 S
C201 H230 0.947 . S
C202 C201 1.392 1_554 S
C202 C203 1.419 . S
C202 H231 0.948 . S
C203 C202 1.419 . S
C203 C204 1.391 . S
C203 C207 1.397 . S
C204 C199 1.391 . S
C204 C203 1.391 . S
C204 C205 1.399 . S
C205 C204 1.399 . S
C205 C206 1.396 . S
C205 C208 1.453 . S
C205 C209 1.684 . S
C206 C187 1.723 . S
C206 C205 1.396 . S
C206 C207 1.394 . S
C207 C203 1.397 . S
C207 C206 1.394 . S
C207 C217 1.723 . S
C208 C205 1.453 . S
C208 H232 0.982 . S
C208 H233 0.979 . S
C208 H234 0.977 . S
C209 C205 1.684 . S
C209 H235 0.979 . S
C209 H236 0.980 . S
C209 H237 0.983 . S
C210 H186 0.948 . S
C210 C211 1.391 . S
C210 C215 1.391 . S
C211 C210 1.391 . S
C211 C212 1.391 . S
C212 H189 0.947 . S
C212 C211 1.391 . S
C212 C213 1.392 . S
C213 H190 0.948 . S
C213 C212 1.392 . S
C213 C214 1.419 . S
C214 C213 1.419 . S
C214 C215 1.391 . S
C214 C218 1.397 . S
C215 C210 1.391 . S
C215 C214 1.391 . S
C215 C216 1.399 . S
C216 C215 1.399 . S
C216 C217 1.396 . S
C216 C219 1.453 . S
C216 C220 1.684 . S
C217 C207 1.723 . S
C217 C216 1.396 . S
C217 C218 1.394 . S
C218 C188 1.723 . S
C218 C214 1.397 . S
C218 C217 1.394 . S
C219 H191 0.982 . S
C219 H195 0.979 . S
C219 H196 0.977 . S
C219 C216 1.453 . S
C220 H192 0.979 . S
C220 H193 0.980 . S
C220 H194 0.983 . S
C220 C216 1.684 . S
H221 C239 0.948 . S
H222 C180 0.948 . S
H223 C198 0.979 . S
H224 C198 0.980 . S
H225 C198 0.983 . S
H226 C197 0.982 . S
H227 C197 0.979 . S
H228 C197 0.977 . S
H229 C199 0.948 . S
H230 C201 0.947 . S
H231 C202 0.948 . S
H232 C208 0.982 . S
H233 C208 0.979 . S
H234 C208 0.977 . S
H235 C209 0.979 . S
H236 C209 0.980 . S
H237 C209 0.983 . S
H238 C182 0.947 . S
C239 C182 1.392 . S
C239 C183 1.419 . S
C239 H221 0.948 . S
C240 C241 1.391 . S
C240 C244 1.391 . S
C240 H282 0.948 . S
C241 C240 1.391 . S
C241 C242 1.391 . S
C242 C241 1.391 . S
C242 H298 0.947 . S
C242 C299 1.392 . S
C243 C244 1.391 . S
C243 C247 1.397 . S
C243 C299 1.419 . S
C244 C240 1.391 . S
C244 C243 1.391 . S
C244 C245 1.399 . S
C245 C244 1.399 . S
C245 C248 1.396 . S
C245 C257 1.453 . S
C245 C258 1.684 1_554 S
H246 C270 0.948 . S
C247 C243 1.397 . S
C247 C248 1.394 . S
C247 C266 1.723 . S
C248 C245 1.396 . S
C248 C247 1.394 . S
C248 C278 1.723 . S
H249 C272 0.947 . S
H250 C273 0.948 . S
H251 C279 0.982 . S
H252 C280 0.979 . S
H253 C280 0.980 . S
H254 C280 0.983 1_556 S
H255 C279 0.979 1_556 S
H256 C279 0.977 . S
C257 C245 1.453 . S
C257 H286 0.982 . S
C257 H287 0.979 1_554 S
C257 H288 0.977 1_554 S
C258 C245 1.684 1_556 S
C258 H283 0.979 1_556 S
C258 H284 0.980 . S
C258 H285 0.983 . S
C259 C260 1.391 . S
C259 C264 1.391 . S
C259 H289 0.948 . S
C260 C259 1.391 . S
C260 C261 1.391 . S
C261 C260 1.391 . S
C261 C262 1.392 . S
C261 H290 0.947 . S
C262 C261 1.392 . S
C262 C263 1.419 . S
C262 H291 0.948 . S
C263 C262 1.419 . S
C263 C264 1.391 . S
C263 C267 1.397 . S
C264 C259 1.391 . S
C264 C263 1.391 . S
C264 C265 1.399 . S
C265 C264 1.399 . S
C265 C266 1.396 . S
C265 C268 1.453 . S
C265 C269 1.684 . S
C266 C247 1.723 . S
C266 C265 1.396 . S
C266 C267 1.394 . S
C267 C263 1.397 . S
C267 C266 1.394 . S
C267 C277 1.723 . S
C268 C265 1.453 . S
C268 H292 0.982 . S
C268 H293 0.979 . S
C268 H294 0.977 . S
C269 C265 1.684 . S
C269 H295 0.979 . S
C269 H296 0.980 . S
C269 H297 0.983 . S
C270 H246 0.948 . S
C270 C271 1.391 . S
C270 C275 1.391 . S
C271 C270 1.391 . S
C271 C272 1.391 . S
C272 H249 0.947 . S
C272 C271 1.391 . S
C272 C273 1.392 . S
C273 H250 0.948 . S
C273 C272 1.392 . S
C273 C274 1.419 . S
C274 C273 1.419 . S
C274 C275 1.391 . S
C274 C278 1.397 1_556 S
C275 C270 1.391 . S
C275 C274 1.391 . S
C275 C276 1.399 1_556 S
C276 C275 1.399 1_554 S
C276 C277 1.396 . S
C276 C279 1.453 . S
C276 C280 1.684 . S
C277 C267 1.723 . S
C277 C276 1.396 . S
C277 C278 1.394 . S
C278 C248 1.723 . S
C278 C274 1.397 1_554 S
C278 C277 1.394 . S
C279 H251 0.982 . S
C279 H255 0.979 1_554 S
C279 H256 0.977 . S
C279 C276 1.453 . S
C280 H252 0.979 . S
C280 H253 0.980 . S
C280 H254 0.983 1_554 S
C280 C276 1.684 . S
H281 C299 0.948 . S
H282 C240 0.948 . S
H283 C258 0.979 1_554 S
H284 C258 0.980 . S
H285 C258 0.983 . S
H286 C257 0.982 . S
H287 C257 0.979 1_556 S
H288 C257 0.977 1_556 S
H289 C259 0.948 . S
H290 C261 0.947 . S
H291 C262 0.948 . S
H292 C268 0.982 . S
H293 C268 0.979 . S
H294 C268 0.977 . S
H295 C269 0.979 . S
H296 C269 0.980 . S
H297 C269 0.983 . S
H298 C242 0.947 . S
C299 C242 1.392 . S
C299 C243 1.419 . S
C299 H281 0.948 . S
C300 C301 1.391 . S
C300 C304 1.391 . S
C300 H342 0.948 . S
C301 C300 1.391 . S
C301 C302 1.391 . S
C302 C301 1.391 . S
C302 H358 0.947 . S
C302 C359 1.392 . S
C303 C304 1.391 . S
C303 C307 1.397 . S
C303 C359 1.419 . S
C304 C300 1.391 . S
C304 C303 1.391 . S
C304 C305 1.399 . S
C305 C304 1.399 . S
C305 C308 1.396 . S
C305 C317 1.453 . S
C305 C318 1.684 . S
H306 C330 0.948 . S
C307 C303 1.397 . S
C307 C308 1.394 . S
C307 C326 1.723 1_554 S
C308 C305 1.396 . S
C308 C307 1.394 . S
C308 C338 1.723 . S
H309 C332 0.947 . S
H310 C333 0.948 . S
H311 C339 0.982 . S
H312 C340 0.979 . S
H313 C340 0.980 . S
H314 C340 0.983 . S
H315 C339 0.979 . S
H316 C339 0.977 . S
C317 C305 1.453 . S
C317 H346 0.982 . S
C317 H347 0.979 . S
C317 H348 0.977 . S
C318 C305 1.684 . S
C318 H343 0.979 . S
C318 H344 0.980 . S
C318 H345 0.983 . S
C319 C320 1.391 . S
C319 C324 1.391 . S
C319 H349 0.948 . S
C320 C319 1.391 . S
C320 C321 1.391 . S
C321 C320 1.391 . S
C321 C322 1.392 . S
C321 H350 0.947 . S
C322 C321 1.392 . S
C322 C323 1.419 . S
C322 H351 0.948 . S
C323 C322 1.419 . S
C323 C324 1.391 . S
C323 C327 1.397 . S
C324 C319 1.391 . S
C324 C323 1.391 . S
C324 C325 1.399 . S
C325 C324 1.399 . S
C325 C326 1.396 . S
C325 C328 1.453 . S
C325 C329 1.684 . S
C326 C307 1.723 1_556 S
C326 C325 1.396 . S
C326 C327 1.394 . S
C327 C323 1.397 . S
C327 C326 1.394 . S
C327 C337 1.723 . S
C328 C325 1.453 . S
C328 H352 0.982 . S
C328 H353 0.979 . S
C328 H354 0.977 1_556 S
C329 C325 1.684 . S
C329 H355 0.979 . S
C329 H356 0.996 . S
C329 H357 0.983 . S
C330 H306 0.948 . S
C330 C331 1.391 . S
C330 C335 1.391 . S
C331 C330 1.391 . S
C331 C332 1.391 . S
C332 H309 0.947 . S
C332 C331 1.391 . S
C332 C333 1.392 . S
C333 H310 0.948 . S
C333 C332 1.392 . S
C333 C334 1.419 . S
C334 C333 1.419 . S
C334 C335 1.391 . S
C334 C338 1.397 . S
C335 C330 1.391 . S
C335 C334 1.391 . S
C335 C336 1.399 1_554 S
C336 C335 1.399 1_556 S
C336 C337 1.396 . S
C336 C339 1.453 . S
C336 C340 1.684 . S
C337 C327 1.723 . S
C337 C336 1.396 . S
C337 C338 1.394 1_556 S
C338 C308 1.723 . S
C338 C334 1.397 . S
C338 C337 1.394 1_554 S
C339 H311 0.982 . S
C339 H315 0.979 . S
C339 H316 0.977 . S
C339 C336 1.453 . S
C340 H312 0.979 . S
C340 H313 0.980 . S
C340 H314 0.983 . S
C340 C336 1.684 . S
H341 C359 0.948 . S
H342 C300 0.948 . S
H343 C318 0.979 . S
H344 C318 0.980 . S
H345 C318 0.983 . S
H346 C317 0.982 . S
H347 C317 0.979 . S
H348 C317 0.977 . S
H349 C319 0.948 . S
H350 C321 0.947 . S
H351 C322 0.948 . S
H352 C328 0.982 . S
H353 C328 0.979 . S
H354 C328 0.977 1_554 S
H355 C329 0.979 . S
H356 C329 0.996 . S
H357 C329 0.983 . S
H358 C302 0.947 . S
C359 C302 1.392 . S
C359 C303 1.419 . S
C359 H341 0.948 . S
C360 C361 1.391 . S
C360 C364 1.391 . S
C360 H402 0.948 . S
C361 C360 1.391 . S
C361 C362 1.391 . S
C362 C361 1.391 . S
C362 H418 0.947 . S
C362 C419 1.392 . S
C363 C364 1.391 . S
C363 C367 1.397 . S
C363 C419 1.419 . S
C364 C360 1.391 . S
C364 C363 1.391 . S
C364 C365 1.399 . S
C365 C364 1.399 . S
C365 C368 1.396 . S
C365 C377 1.453 . S
C365 C378 1.684 . S
H366 C390 0.948 . S
C367 C363 1.397 . S
C367 C368 1.394 . S
C367 C386 1.723 1_556 S
C368 C365 1.396 . S
C368 C367 1.394 . S
C368 C398 1.723 1_556 S
H369 C392 0.947 . S
H370 C393 0.948 . S
H371 C399 0.982 . S
H372 C400 0.979 . S
H373 C400 0.980 . S
H374 C400 0.983 . S
H375 C399 0.979 . S
H376 C399 0.977 . S
C377 C365 1.453 . S
C377 H406 0.982 . S
C377 H407 0.979 . S
C377 H408 0.977 . S
C378 C365 1.684 . S
C378 H403 0.979 . S
C378 H404 0.980 . S
C378 H405 0.983 . S
C379 C380 1.391 . S
C379 C384 1.391 . S
C379 H409 0.948 . S
C380 C379 1.391 . S
C380 C381 1.391 . S
C381 C380 1.391 . S
C381 C382 1.392 . S
C381 H410 0.947 . S
C382 C381 1.392 . S
C382 C383 1.419 . S
C382 H411 0.948 . S
C383 C382 1.419 . S
C383 C384 1.391 . S
C383 C387 1.397 . S
C384 C379 1.391 . S
C384 C383 1.391 . S
C384 C385 1.399 . S
C385 C384 1.399 . S
C385 C386 1.396 . S
C385 C388 1.453 . S
C385 C389 1.673 1_554 S
C386 C367 1.723 1_554 S
C386 C385 1.396 . S
C386 C387 1.394 . S
C387 C383 1.397 . S
C387 C386 1.394 . S
C387 C397 1.723 . S
C388 C385 1.453 . S
C388 H412 0.982 . S
C388 H413 0.979 . S
C388 H414 0.977 1_554 S
C389 C385 1.673 1_556 S
C389 H415 0.974 1_556 S
C389 H416 1.002 . S
C389 H417 0.976 1_556 S
C390 H366 0.948 . S
C390 C391 1.391 . S
C390 C395 1.391 . S
C391 C390 1.391 . S
C391 C392 1.391 1_554 S
C392 H369 0.947 . S
C392 C391 1.391 1_556 S
C392 C393 1.392 . S
C393 H370 0.948 . S
C393 C392 1.392 . S
C393 C394 1.419 1_556 S
C394 C393 1.419 1_554 S
C394 C395 1.391 . S
C394 C398 1.397 . S
C395 C390 1.391 . S
C395 C394 1.391 . S
C395 C396 1.399 . S
C396 C395 1.399 . S
C396 C397 1.396 . S
C396 C399 1.453 . S
C396 C400 1.684 . S
C397 C387 1.723 . S
C397 C396 1.396 . S
C397 C398 1.394 . S
C398 C368 1.723 1_554 S
C398 C394 1.397 . S
C398 C397 1.394 . S
C399 H371 0.982 . S
C399 H375 0.979 . S
C399 H376 0.977 . S
C399 C396 1.453 . S
C400 H372 0.979 . S
C400 H373 0.980 . S
C400 H374 0.983 . S
C400 C396 1.684 . S
H401 C419 0.948 . S
H402 C360 0.948 . S
H403 C378 0.979 . S
H404 C378 0.980 . S
H405 C378 0.983 . S
H406 C377 0.982 . S
H407 C377 0.979 . S
H408 C377 0.977 . S
H409 C379 0.948 . S
H410 C381 0.947 . S
H411 C382 0.948 . S
H412 C388 0.982 . S
H413 C388 0.979 . S
H414 C388 0.977 1_556 S
H415 C389 0.974 1_554 S
H416 C389 1.002 . S
H417 C389 0.976 1_554 S
H418 C362 0.947 . S
C419 C362 1.392 . S
C419 C363 1.419 . S
C419 H401 0.948 . S
C420 C421 1.391 . S
C420 C424 1.391 . S
C420 H462 0.948 . S
C421 C420 1.391 . S
C421 C422 1.391 . S
C422 C421 1.391 . S
C422 H478 0.947 . S
C422 C479 1.392 . S
C423 C424 1.391 . S
C423 C427 1.397 1_556 S
C423 C479 1.419 . S
C424 C420 1.391 . S
C424 C423 1.391 . S
C424 C425 1.399 . S
C425 C424 1.399 . S
C425 C428 1.396 1_556 S
C425 C437 1.453 . S
C425 C438 1.684 . S
H426 C450 0.948 . S
C427 C423 1.397 1_554 S
C427 C428 1.394 . S
C427 C446 1.723 . S
C428 C425 1.396 1_554 S
C428 C427 1.394 . S
C428 C458 1.723 . S
H429 C452 0.947 . S
H430 C453 0.948 . S
H431 C459 0.982 . S
H432 C460 0.979 . S
H433 C460 0.980 . S
H434 C460 0.983 . S
H435 C459 0.979 . S
H436 C459 0.977 . S
C437 C425 1.453 . S
C437 H466 0.982 . S
C437 H467 0.979 . S
C437 H468 0.977 . S
C438 C425 1.684 . S
C438 H463 0.979 . S
C438 H464 0.980 . S
C438 H465 0.983 . S
C439 C440 1.391 . S
C439 C444 1.391 . S
C439 H469 0.948 . S
C440 C439 1.391 . S
C440 C441 1.391 . S
C441 C440 1.391 . S
C441 C442 1.392 . S
C441 H470 0.947 . S
C442 C441 1.392 . S
C442 C443 1.419 . S
C442 H471 0.948 . S
C443 C442 1.419 . S
C443 C444 1.391 . S
C443 C447 1.397 . S
C444 C439 1.391 . S
C444 C443 1.391 . S
C444 C445 1.399 . S
C445 C444 1.399 . S
C445 C446 1.396 . S
C445 C448 1.453 . S
C445 C449 1.684 . S
C446 C427 1.723 . S
C446 C445 1.396 . S
C446 C447 1.394 . S
C447 C443 1.397 . S
C447 C446 1.394 . S
C447 C457 1.723 . S
C448 C445 1.453 . S
C448 H472 0.982 . S
C448 H473 0.979 . S
C448 H474 0.977 . S
C449 C445 1.684 . S
C449 H475 0.979 . S
C449 H476 0.980 . S
C449 H477 0.983 . S
C450 H426 0.948 . S
C450 C451 1.391 . S
C450 C455 1.391 . S
C451 C450 1.391 . S
C451 C452 1.391 . S
C452 H429 0.947 . S
C452 C451 1.391 . S
C452 C453 1.392 . S
C453 H430 0.948 . S
C453 C452 1.392 . S
C453 C454 1.419 . S
C454 C453 1.419 . S
C454 C455 1.391 . S
C454 C458 1.397 . S
C455 C450 1.391 . S
C455 C454 1.391 . S
C455 C456 1.399 . S
C456 C455 1.399 . S
C456 C457 1.396 . S
C456 C459 1.453 . S
C456 C460 1.684 . S
C457 C447 1.723 . S
C457 C456 1.396 . S
C457 C458 1.394 . S
C458 C428 1.723 . S
C458 C454 1.397 . S
C458 C457 1.394 . S
C459 H431 0.982 . S
C459 H435 0.979 . S
C459 H436 0.977 . S
C459 C456 1.453 . S
C460 H432 0.979 . S
C460 H433 0.980 . S
C460 H434 0.983 . S
C460 C456 1.684 . S
H461 C479 0.948 . S
H462 C420 0.948 . S
H463 C438 0.979 . S
H464 C438 0.980 . S
H465 C438 0.983 . S
H466 C437 0.982 . S
H467 C437 0.979 . S
H468 C437 0.977 . S
H469 C439 0.948 . S
H470 C441 0.947 . S
H471 C442 0.948 . S
H472 C448 0.982 . S
H473 C448 0.979 . S
H474 C448 0.977 . S
H475 C449 0.979 . S
H476 C449 0.980 . S
H477 C449 0.983 . S
H478 C422 0.947 . S
C479 C422 1.392 . S
C479 C423 1.419 . S
C479 H461 0.948 . S
Eu480 C489 2.828 . S
Eu480 O491 2.392 . S
Eu480 O493 2.418 1_545 S
Eu480 O498 2.373 1_655 S
Eu480 O501 2.488 . S
Eu480 O502 2.471 . S
Eu480 O503 2.349 1_655 S
Eu481 O490 2.373 1_455 S
Eu481 O494 2.488 . S
Eu481 O495 2.471 . S
Eu481 O496 2.349 . S
Eu481 O499 2.392 1_565 S
Eu481 O500 2.418 1_565 S
Eu481 C510 2.828 . S
C482 O500 1.244 . S
C482 O503 1.265 . S
C483 C484 1.379 1_655 S
C483 C487 1.373 . S
C483 C489 1.505 . S
C484 C483 1.379 1_455 S
C484 C486 1.369 . S
C484 H512 0.930 . S
C485 C487 1.383 . S
C485 C488 1.382 1_655 S
C485 H513 0.930 . S
C486 C484 1.369 . S
C486 C488 1.392 . S
C486 H514 0.930 . S
C487 C483 1.373 . S
C487 C485 1.383 . S
C487 H515 0.931 . S
C488 C485 1.382 1_455 S
C488 C486 1.392 . S
C489 Eu480 2.828 . S
C489 C483 1.505 . S
C489 O501 1.249 . S
C489 O502 1.244 . S
O490 Eu481 2.373 1_655 S
O490 C492 1.258 . S
O491 Eu480 2.392 . S
O491 C492 1.242 1_545 S
C492 O490 1.258 . S
C492 O491 1.242 1_565 S
O493 Eu480 2.418 1_565 S
O493 C497 1.244 . S
O494 Eu481 2.488 . S
O494 C510 1.249 . S
O495 Eu481 2.471 . S
O495 C510 1.244 . S
O496 Eu481 2.349 . S
O496 C497 1.265 1_455 S
C497 O493 1.244 . S
C497 O496 1.265 1_655 S
O498 Eu480 2.373 1_455 S
O498 C511 1.258 . S
O499 Eu481 2.392 1_545 S
O499 C511 1.242 . S
O500 Eu481 2.418 1_545 S
O500 C482 1.244 . S
O501 Eu480 2.488 . S
O501 C489 1.249 . S
O502 Eu480 2.471 . S
O502 C489 1.244 . S
O503 Eu480 2.349 1_455 S
O503 C482 1.265 . S
C504 C505 1.379 . S
C504 C508 1.373 . S
C504 C510 1.505 . S
C505 C504 1.379 . S
C505 C507 1.369 . S
C505 H516 0.930 1_455 S
C506 C508 1.383 . S
C506 C509 1.382 . S
C506 H517 0.930 . S
C507 C505 1.369 . S
C507 C509 1.392 . S
C507 H518 0.930 1_455 S
C508 C504 1.373 . S
C508 C506 1.383 . S
C508 H519 0.931 . S
C509 C506 1.382 . S
C509 C507 1.392 . S
C510 Eu481 2.828 . S
C510 O494 1.249 . S
C510 O495 1.244 . S
C510 C504 1.505 . S
C511 O498 1.258 . S
C511 O499 1.242 . S
H512 C484 0.930 . S
H513 C485 0.930 . S
H514 C486 0.930 . S
H515 C487 0.931 . S
H516 C505 0.930 1_655 S
H517 C506 0.930 . S
H518 C507 0.930 1_655 S
H519 C508 0.931 . S
Eu520 C529 2.828 . S
Eu520 O531 2.392 . S
Eu520 O533 2.418 . S
Eu520 O538 2.373 . S
Eu520 O541 2.488 . S
Eu520 O542 2.471 . S
Eu520 O543 2.349 1_545 S
Eu521 O530 2.373 1_565 S
Eu521 O534 2.488 . S
Eu521 O535 2.471 1_565 S
Eu521 O536 2.349 1_565 S
Eu521 O539 2.392 . S
Eu521 O540 2.418 . S
Eu521 C550 2.828 . S
C522 O540 1.244 . S
C522 O543 1.265 . S
C523 C524 1.379 1_545 S
C523 C527 1.373 . S
C523 C529 1.505 . S
C524 C523 1.379 1_565 S
C524 C526 1.369 . S
C524 H552 0.930 . S
C525 C527 1.383 . S
C525 C528 1.382 . S
C525 H553 0.930 . S
C526 C524 1.369 . S
C526 C528 1.392 1_565 S
C526 H554 0.930 . S
C527 C523 1.373 . S
C527 C525 1.383 . S
C527 H555 0.931 . S
C528 C525 1.382 . S
C528 C526 1.392 1_545 S
C529 Eu520 2.828 . S
C529 C523 1.505 . S
C529 O541 1.249 . S
C529 O542 1.244 . S
O530 Eu521 2.373 1_545 S
O530 C532 1.258 . S
O531 Eu520 2.392 . S
O531 C532 1.242 . S
C532 O530 1.258 . S
C532 O531 1.242 . S
O533 Eu520 2.418 . S
O533 C537 1.244 . S
O534 Eu521 2.488 . S
O534 C550 1.249 . S
O535 Eu521 2.471 1_545 S
O535 C550 1.244 1_545 S
O536 Eu521 2.349 1_545 S
O536 C537 1.265 . S
C537 O533 1.244 . S
C537 O536 1.265 . S
O538 Eu520 2.373 . S
O538 C551 1.258 1_545 S
O539 Eu521 2.392 . S
O539 C551 1.242 . S
O540 Eu521 2.418 . S
O540 C522 1.244 . S
O541 Eu520 2.488 . S
O541 C529 1.249 . S
O542 Eu520 2.471 . S
O542 C529 1.244 . S
O543 Eu520 2.349 1_565 S
O543 C522 1.265 . S
C544 C545 1.379 . S
C544 C548 1.373 1_545 S
C544 C550 1.505 1_545 S
C545 C544 1.379 . S
C545 C547 1.369 . S
C545 H556 0.930 . S
C546 C548 1.383 . S
C546 C549 1.382 1_565 S
C546 H557 0.930 . S
C547 C545 1.369 . S
C547 C549 1.392 . S
C547 H558 0.930 . S
C548 C544 1.373 1_565 S
C548 C546 1.383 . S
C548 H559 0.931 . S
C549 C546 1.382 1_545 S
C549 C547 1.392 . S
C550 Eu521 2.828 . S
C550 O534 1.249 . S
C550 O535 1.244 1_565 S
C550 C544 1.505 1_565 S
C551 O538 1.258 1_565 S
C551 O539 1.242 . S
H552 C524 0.930 . S
H553 C525 0.930 . S
H554 C526 0.930 . S
H555 C527 0.931 . S
H556 C545 0.930 . S
H557 C546 0.930 . S
H558 C547 0.930 . S
H559 C548 0.931 . S
Eu560 C569 2.828 . S
Eu560 O571 2.392 . S
Eu560 O573 2.418 . S
Eu560 O578 2.373 . S
Eu560 O581 2.488 . S
Eu560 O582 2.471 . S
Eu560 O583 2.349 . S
Eu561 O570 2.373 . S
Eu561 O574 2.488 . S
Eu561 O575 2.471 . S
Eu561 O576 2.349 . S
Eu561 O579 2.392 . S
Eu561 O580 2.418 . S
Eu561 C590 2.828 . S
C562 O580 1.244 . S
C562 O583 1.265 . S
C563 C564 1.379 . S
C563 C567 1.373 . S
C563 C569 1.505 . S
C564 C563 1.379 . S
C564 C566 1.369 . S
C564 H592 0.930 . S
C565 C567 1.383 . S
C565 C568 1.382 . S
C565 H593 0.930 . S
C566 C564 1.369 . S
C566 C568 1.392 . S
C566 H594 0.930 . S
C567 C563 1.373 . S
C567 C565 1.383 . S
C567 H595 0.931 . S
C568 C565 1.382 . S
C568 C566 1.392 . S
C569 Eu560 2.828 . S
C569 C563 1.505 . S
C569 O581 1.249 . S
C569 O582 1.244 . S
O570 Eu561 2.373 . S
O570 C572 1.258 . S
O571 Eu560 2.392 . S
O571 C572 1.242 . S
C572 O570 1.258 . S
C572 O571 1.242 . S
O573 Eu560 2.418 . S
O573 C577 1.244 . S
O574 Eu561 2.488 . S
O574 C590 1.249 . S
O575 Eu561 2.471 . S
O575 C590 1.244 . S
O576 Eu561 2.349 . S
O576 C577 1.265 . S
C577 O573 1.244 . S
C577 O576 1.265 . S
O578 Eu560 2.373 . S
O578 C591 1.258 . S
O579 Eu561 2.392 . S
O579 C591 1.242 . S
O580 Eu561 2.418 . S
O580 C562 1.244 . S
O581 Eu560 2.488 . S
O581 C569 1.249 . S
O582 Eu560 2.471 . S
O582 C569 1.244 . S
O583 Eu560 2.349 . S
O583 C562 1.265 . S
C584 C585 1.379 . S
C584 C588 1.373 . S
C584 C590 1.505 . S
C585 C584 1.379 . S
C585 C587 1.369 . S
C585 H596 0.930 . S
C586 C588 1.383 . S
C586 C589 1.382 . S
C586 H597 0.930 . S
C587 C585 1.369 . S
C587 C589 1.392 . S
C587 H598 0.930 . S
C588 C584 1.373 . S
C588 C586 1.383 . S
C588 H599 0.931 . S
C589 C586 1.382 . S
C589 C587 1.392 . S
C590 Eu561 2.828 . S
C590 O574 1.249 . S
C590 O575 1.244 . S
C590 C584 1.505 . S
C591 O578 1.258 . S
C591 O579 1.242 . S
H592 C564 0.930 . S
H593 C565 0.930 . S
H594 C566 0.930 . S
H595 C567 0.931 . S
H596 C585 0.930 . S
H597 C586 0.930 . S
H598 C587 0.930 . S
H599 C588 0.931 . S
Eu600 C609 2.828 . S
Eu600 O611 2.392 . S
Eu600 O613 2.418 1_455 S
Eu600 O618 2.373 . S
Eu600 O621 2.488 . S
Eu600 O622 2.471 . S
Eu600 O623 2.349 . S
Eu601 O610 2.373 . S
Eu601 O614 2.488 . S
Eu601 O615 2.471 . S
Eu601 O616 2.349 . S
Eu601 O619 2.392 1_655 S
Eu601 O620 2.418 1_655 S
Eu601 C630 2.828 . S
C602 O620 1.244 . S
C602 O623 1.265 . S
C603 C604 1.379 . S
C603 C607 1.373 . S
C603 C609 1.505 . S
C604 C603 1.379 . S
C604 C606 1.369 . S
C604 H632 0.930 . S
C605 C607 1.383 . S
C605 C608 1.382 . S
C605 H633 0.930 . S
C606 C604 1.369 . S
C606 C608 1.392 . S
C606 H634 0.930 . S
C607 C603 1.373 . S
C607 C605 1.383 . S
C607 H635 0.931 . S
C608 C605 1.382 . S
C608 C606 1.392 . S
C609 Eu600 2.828 . S
C609 C603 1.505 . S
C609 O621 1.249 . S
C609 O622 1.244 . S
O610 Eu601 2.373 . S
O610 C612 1.258 1_655 S
O611 Eu600 2.392 . S
O611 C612 1.242 . S
C612 O610 1.258 1_455 S
C612 O611 1.242 . S
O613 Eu600 2.418 1_655 S
O613 C617 1.244 . S
O614 Eu601 2.488 . S
O614 C630 1.249 . S
O615 Eu601 2.471 . S
O615 C630 1.244 . S
O616 Eu601 2.349 . S
O616 C617 1.265 . S
C617 O613 1.244 . S
C617 O616 1.265 . S
O618 Eu600 2.373 . S
O618 C631 1.258 . S
O619 Eu601 2.392 1_455 S
O619 C631 1.242 . S
O620 Eu601 2.418 1_455 S
O620 C602 1.244 . S
O621 Eu600 2.488 . S
O621 C609 1.249 . S
O622 Eu600 2.471 . S
O622 C609 1.244 . S
O623 Eu600 2.349 . S
O623 C602 1.265 . S
C624 C625 1.379 . S
C624 C628 1.373 . S
C624 C630 1.505 . S
C625 C624 1.379 . S
C625 C627 1.369 . S
C625 H636 0.930 . S
C626 C628 1.383 . S
C626 C629 1.382 . S
C626 H637 0.930 . S
C627 C625 1.369 . S
C627 C629 1.392 . S
C627 H638 0.930 . S
C628 C624 1.373 . S
C628 C626 1.383 . S
C628 H639 0.931 . S
C629 C626 1.382 . S
C629 C627 1.392 . S
C630 Eu601 2.828 . S
C630 O614 1.249 . S
C630 O615 1.244 . S
C630 C624 1.505 . S
C631 O618 1.258 . S
C631 O619 1.242 . S
H632 C604 0.930 . S
H633 C605 0.930 . S
H634 C606 0.930 . S
H635 C607 0.931 . S
H636 C625 0.930 . S
H637 C626 0.930 . S
H638 C627 0.930 . S
H639 C628 0.931 . S
H640 C658 0.951 . S
H641 C660 0.951 . S
H642 C662 0.950 . S
H643 C663 0.950 . S
H644 C665 0.950 . S
H645 C668 0.950 . S
H646 C669 0.950 . S
H647 C671 0.950 . S
H648 C672 0.950 . S
H649 C673 0.992 . S
H650 C675 0.951 . S
H651 C677 0.950 . S
H652 C678 0.950 . S
H653 C680 0.950 . S
H654 C683 0.950 . S
H655 C684 0.950 . S
H656 C686 0.950 . S
H657 C687 0.950 . S
C658 H640 0.951 . S
C658 C659 1.366 . S
C658 C660 1.388 . S
C659 C658 1.366 . S
C659 C663 1.385 . S
C660 H641 0.951 . S
C660 C658 1.388 . S
C660 C661 1.366 . S
C661 C660 1.366 . S
C661 C662 1.414 . S
C661 C664 1.499 . S
C662 H642 0.950 . S
C662 C661 1.414 . S
C662 C663 1.374 . S
C663 H643 0.950 . S
C663 C659 1.385 . S
C663 C662 1.374 . S
C664 C661 1.499 . S
C664 C665 1.373 . S
C664 C666 1.389 . S
C665 H644 0.950 . S
C665 C664 1.373 . S
C665 C681 1.377 . S
C666 C664 1.389 . S
C666 C667 1.524 . S
C666 C680 1.377 . S
C667 C666 1.524 . S
C667 C668 1.397 . S
C667 C672 1.363 . S
C668 H645 0.950 . S
C668 C667 1.397 . S
C668 C669 1.334 . S
C669 H646 0.950 . S
C669 C668 1.334 . S
C669 C670 1.287 . S
C670 C669 1.287 . S
C670 C671 1.524 . S
C670 H689 0.913 . S
C671 H647 0.950 . S
C671 C670 1.524 . S
C671 C672 1.415 . S
C672 H648 0.950 . S
C672 C667 1.363 . S
C672 C671 1.415 . S
C673 H649 0.992 . S
C673 C674 1.366 . S
C673 C675 1.388 . S
C674 C673 1.366 . S
C674 C678 1.385 . S
C675 H650 0.951 . S
C675 C673 1.388 . S
C675 C676 1.366 . S
C676 C675 1.366 . S
C676 C677 1.414 . S
C676 C679 1.499 . S
C677 H651 0.950 . S
C677 C676 1.414 . S
C677 C678 1.374 . S
C678 H652 0.950 . S
C678 C674 1.385 . S
C678 C677 1.374 . S
C679 C676 1.499 . S
C679 C680 1.373 . S
C679 C681 1.389 . S
C680 H653 0.950 . S
C680 C666 1.377 . S
C680 C679 1.373 . S
C681 C665 1.377 . S
C681 C679 1.389 . S
C681 C682 1.524 . S
C682 C681 1.524 . S
C682 C683 1.397 . S
C682 C687 1.363 1_545 S
C683 H654 0.950 . S
C683 C682 1.397 . S
C683 C684 1.334 1_545 S
C684 H655 0.950 . S
C684 C683 1.334 1_565 S
C684 C685 1.287 . S
C685 C684 1.287 . S
C685 C686 1.524 . S
C685 H688 0.999 . S
C686 H656 0.950 . S
C686 C685 1.524 . S
C686 C687 1.415 . S
C687 H657 0.950 . S
C687 C682 1.363 1_565 S
C687 C686 1.415 . S
H688 C685 0.999 . S
H689 C670 0.913 . S
H690 C708 0.951 . S
H691 C710 0.951 . S
H692 C712 0.950 . S
H693 C713 0.950 . S
H694 C715 0.950 . S
H695 C718 0.950 . S
H696 C719 0.950 . S
H697 C721 0.950 . S
H698 C722 0.950 . S
H699 C723 0.951 . S
H700 C725 0.951 . S
H701 C727 0.950 . S
H702 C728 0.950 . S
H703 C730 0.950 . S
H704 C733 0.950 . S
H705 C734 0.950 . S
H706 C736 0.950 . S
H707 C737 0.950 . S
C708 H690 0.951 . S
C708 C709 1.366 . S
C708 C710 1.388 . S
C709 C708 1.366 . S
C709 C713 1.385 . S
C710 H691 0.951 . S
C710 C708 1.388 . S
C710 C711 1.366 . S
C711 C710 1.366 . S
C711 C712 1.414 . S
C711 C714 1.499 . S
C712 H692 0.950 . S
C712 C711 1.414 . S
C712 C713 1.374 . S
C713 H693 0.950 . S
C713 C709 1.385 . S
C713 C712 1.374 . S
C714 C711 1.499 . S
C714 C715 1.373 . S
C714 C716 1.389 . S
C715 H694 0.950 . S
C715 C714 1.373 . S
C715 C731 1.377 . S
C716 C714 1.389 . S
C716 C717 1.524 . S
C716 C730 1.377 . S
C717 C716 1.524 . S
C717 C718 1.397 . S
C717 C722 1.363 . S
C718 H695 0.950 . S
C718 C717 1.397 . S
C718 C719 1.334 . S
C719 H696 0.950 . S
C719 C718 1.334 . S
C719 C720 1.287 . S
C720 C719 1.287 . S
C720 C721 1.524 . S
C720 H739 0.913 . S
C721 H697 0.950 . S
C721 C720 1.524 . S
C721 C722 1.415 . S
C722 H698 0.950 . S
C722 C717 1.363 . S
C722 C721 1.415 . S
C723 H699 0.951 . S
C723 C724 1.366 . S
C723 C725 1.388 . S
C724 C723 1.366 . S
C724 C728 1.385 . S
C725 H700 0.951 . S
C725 C723 1.388 . S
C725 C726 1.366 . S
C726 C725 1.366 . S
C726 C727 1.414 . S
C726 C729 1.499 . S
C727 H701 0.950 . S
C727 C726 1.414 . S
C727 C728 1.374 . S
C728 H702 0.950 . S
C728 C724 1.385 . S
C728 C727 1.374 . S
C729 C726 1.499 . S
C729 C730 1.373 . S
C729 C731 1.389 . S
C730 H703 0.950 . S
C730 C716 1.377 . S
C730 C729 1.373 . S
C731 C715 1.377 . S
C731 C729 1.389 . S
C731 C732 1.524 . S
C732 C731 1.524 . S
C732 C733 1.397 . S
C732 C737 1.363 . S
C733 H704 0.950 . S
C733 C732 1.397 . S
C733 C734 1.334 . S
C734 H705 0.950 . S
C734 C733 1.334 . S
C734 C735 1.287 . S
C735 C734 1.287 . S
C735 C736 1.524 . S
C735 H738 0.999 . S
C736 H706 0.950 . S
C736 C735 1.524 . S
C736 C737 1.415 . S
C737 H707 0.950 . S
C737 C732 1.363 . S
C737 C736 1.415 . S
H738 C735 0.999 . S
H739 C720 0.913 . S
H740 C758 0.951 . S
H741 C760 0.951 . S
H742 C762 0.950 . S
H743 C763 0.950 . S
H744 C765 0.950 . S
H745 C768 0.950 . S
H746 C769 0.950 . S
H747 C771 0.950 . S
H748 C772 0.950 . S
H749 C773 0.951 . S
H750 C775 0.951 . S
H751 C777 0.950 . S
H752 C778 0.950 . S
H753 C780 0.950 . S
H754 C783 0.950 . S
H755 C784 0.950 . S
H756 C786 0.950 . S
H757 C787 0.950 . S
C758 H740 0.951 . S
C758 C759 1.366 . S
C758 C760 1.388 . S
C759 C758 1.366 . S
C759 C763 1.385 . S
C760 H741 0.951 . S
C760 C758 1.388 . S
C760 C761 1.366 . S
C761 C760 1.366 . S
C761 C762 1.414 . S
C761 C764 1.499 . S
C762 H742 0.950 . S
C762 C761 1.414 . S
C762 C763 1.374 . S
C763 H743 0.950 . S
C763 C759 1.385 . S
C763 C762 1.374 . S
C764 C761 1.499 . S
C764 C765 1.373 . S
C764 C766 1.389 . S
C765 H744 0.950 . S
C765 C764 1.373 . S
C765 C781 1.377 . S
C766 C764 1.389 . S
C766 C767 1.524 . S
C766 C780 1.377 . S
C767 C766 1.524 . S
C767 C768 1.397 . S
C767 C772 1.363 . S
C768 H745 0.950 . S
C768 C767 1.397 . S
C768 C769 1.334 . S
C769 H746 0.950 . S
C769 C768 1.334 . S
C769 C770 1.287 . S
C770 C769 1.287 . S
C770 C771 1.524 . S
C770 H789 0.913 . S
C771 H747 0.950 . S
C771 C770 1.524 . S
C771 C772 1.415 . S
C772 H748 0.950 . S
C772 C767 1.363 . S
C772 C771 1.415 . S
C773 H749 0.951 . S
C773 C774 1.366 . S
C773 C775 1.388 . S
C774 C773 1.366 . S
C774 C778 1.385 . S
C775 H750 0.951 . S
C775 C773 1.388 . S
C775 C776 1.366 . S
C776 C775 1.366 . S
C776 C777 1.414 . S
C776 C779 1.499 . S
C777 H751 0.950 . S
C777 C776 1.414 . S
C777 C778 1.374 . S
C778 H752 0.950 . S
C778 C774 1.385 . S
C778 C777 1.374 . S
C779 C776 1.499 . S
C779 C780 1.373 . S
C779 C781 1.389 . S
C780 H753 0.950 . S
C780 C766 1.377 . S
C780 C779 1.373 . S
C781 C765 1.377 . S
C781 C779 1.389 . S
C781 C782 1.524 . S
C782 C781 1.524 . S
C782 C783 1.397 . S
C782 C787 1.363 . S
C783 H754 0.950 . S
C783 C782 1.397 . S
C783 C784 1.334 . S
C784 H755 0.950 . S
C784 C783 1.334 . S
C784 C785 1.287 . S
C785 C784 1.287 . S
C785 C786 1.524 . S
C785 H788 0.999 . S
C786 H756 0.950 . S
C786 C785 1.524 . S
C786 C787 1.415 . S
C787 H757 0.950 . S
C787 C782 1.363 . S
C787 C786 1.415 . S
H788 C785 0.999 . S
H789 C770 0.913 . S
H790 C808 0.951 . S
H791 C810 0.951 . S
H792 C812 0.950 . S
H793 C813 0.950 . S
H794 C815 0.950 . S
H795 C818 0.950 . S
H796 C819 0.950 . S
H797 C821 0.950 . S
H798 C822 0.950 1_455 S
H799 C823 0.951 . S
H800 C825 0.951 . S
H801 C827 0.950 . S
H802 C828 0.950 . S
H803 C830 0.950 . S
H804 C833 0.950 . S
H805 C834 0.950 . S
H806 C836 0.950 . S
H807 C837 0.950 . S
C808 H790 0.951 . S
C808 C809 1.366 . S
C808 C810 1.388 . S
C809 C808 1.366 . S
C809 C813 1.385 . S
C810 H791 0.951 . S
C810 C808 1.388 . S
C810 C811 1.366 . S
C811 C810 1.366 . S
C811 C812 1.414 . S
C811 C814 1.499 . S
C812 H792 0.950 . S
C812 C811 1.414 . S
C812 C813 1.374 . S
C813 H793 0.950 . S
C813 C809 1.385 . S
C813 C812 1.374 . S
C814 C811 1.499 . S
C814 C815 1.373 . S
C814 C816 1.389 . S
C815 H794 0.950 . S
C815 C814 1.373 . S
C815 C831 1.377 . S
C816 C814 1.389 . S
C816 C817 1.524 . S
C816 C830 1.377 . S
C817 C816 1.524 . S
C817 C818 1.397 1_455 S
C817 C822 1.363 1_455 S
C818 H795 0.950 . S
C818 C817 1.397 1_655 S
C818 C819 1.334 . S
C819 H796 0.950 . S
C819 C818 1.334 . S
C819 C820 1.287 . S
C820 C819 1.287 . S
C820 C821 1.524 . S
C820 H839 0.913 . S
C821 H797 0.950 . S
C821 C820 1.524 . S
C821 C822 1.415 . S
C822 H798 0.950 1_655 S
C822 C817 1.363 1_655 S
C822 C821 1.415 . S
C823 H799 0.951 . S
C823 C824 1.366 . S
C823 C825 1.388 . S
C824 C823 1.366 . S
C824 C828 1.385 . S
C825 H800 0.951 . S
C825 C823 1.388 . S
C825 C826 1.366 . S
C826 C825 1.366 . S
C826 C827 1.414 . S
C826 C829 1.499 . S
C827 H801 0.950 . S
C827 C826 1.414 . S
C827 C828 1.374 . S
C828 H802 0.950 . S
C828 C824 1.385 . S
C828 C827 1.374 . S
C829 C826 1.499 . S
C829 C830 1.373 . S
C829 C831 1.389 . S
C830 H803 0.950 . S
C830 C816 1.377 . S
C830 C829 1.373 . S
C831 C815 1.377 . S
C831 C829 1.389 . S
C831 C832 1.524 . S
C832 C831 1.524 . S
C832 C833 1.397 . S
C832 C837 1.363 . S
C833 H804 0.950 . S
C833 C832 1.397 . S
C833 C834 1.334 . S
C834 H805 0.950 . S
C834 C833 1.334 . S
C834 C835 1.287 . S
C835 C834 1.287 . S
C835 C836 1.524 . S
C835 H838 0.999 . S
C836 H806 0.950 . S
C836 C835 1.524 . S
C836 C837 1.415 . S
C837 H807 0.950 . S
C837 C832 1.363 . S
C837 C836 1.415 . S
H838 C835 0.999 . S
H839 C820 0.913 . S
H840 C858 0.951 . S
H841 C860 0.951 . S
H842 C862 0.950 1_556 S
H843 C863 0.950 . S
H844 C865 0.950 . S
H845 C868 0.950 1_565 S
H846 C869 0.950 . S
H847 C871 0.950 . S
H848 C872 0.950 . S
H849 C873 0.951 . S
H850 C875 0.951 . S
H851 C877 0.950 . S
H852 C878 0.950 . S
H853 C880 0.950 . S
H854 C883 0.950 . S
H855 C884 0.950 . S
H856 C886 0.950 . S
H857 C887 0.950 . S
C858 H840 0.951 . S
C858 C859 1.366 . S
C858 C860 1.388 . S
C859 C858 1.366 . S
C859 C863 1.385 . S
C860 H841 0.951 . S
C860 C858 1.388 . S
C860 C861 1.366 . S
C861 C860 1.366 . S
C861 C862 1.414 . S
C861 C864 1.499 1_554 S
C862 H842 0.950 1_554 S
C862 C861 1.414 . S
C862 C863 1.374 . S
C863 H843 0.950 . S
C863 C859 1.385 . S
C863 C862 1.374 . S
C864 C861 1.499 1_556 S
C864 C865 1.373 . S
C864 C866 1.389 . S
C865 H844 0.950 . S
C865 C864 1.373 . S
C865 C881 1.377 . S
C866 C864 1.389 . S
C866 C867 1.524 1_556 S
C866 C880 1.377 . S
C867 C866 1.524 1_554 S
C867 C868 1.397 1_565 S
C867 C872 1.363 . S
C868 H845 0.950 1_545 S
C868 C867 1.397 1_545 S
C868 C869 1.334 . S
C869 H846 0.950 . S
C869 C868 1.334 . S
C869 C870 1.287 . S
C870 C869 1.287 . S
C870 C871 1.524 . S
C870 H889 0.913 . S
C871 H847 0.950 . S
C871 C870 1.524 . S
C871 C872 1.415 1_545 S
C872 H848 0.950 . S
C872 C867 1.363 . S
C872 C871 1.415 1_565 S
C873 H849 0.951 . S
C873 C874 1.366 . S
C873 C875 1.388 . S
C874 C873 1.366 . S
C874 C878 1.385 . S
C875 H850 0.951 . S
C875 C873 1.388 . S
C875 C876 1.366 . S
C876 C875 1.366 . S
C876 C877 1.414 . S
C876 C879 1.499 . S
C877 H851 0.950 . S
C877 C876 1.414 . S
C877 C878 1.374 . S
C878 H852 0.950 . S
C878 C874 1.385 . S
C878 C877 1.374 . S
C879 C876 1.499 . S
C879 C880 1.373 . S
C879 C881 1.389 . S
C880 H853 0.950 . S
C880 C866 1.377 . S
C880 C879 1.373 . S
C881 C865 1.377 . S
C881 C879 1.389 . S
C881 C882 1.524 . S
C882 C881 1.524 . S
C882 C883 1.397 . S
C882 C887 1.363 . S
C883 H854 0.950 . S
C883 C882 1.397 . S
C883 C884 1.334 . S
C884 H855 0.950 . S
C884 C883 1.334 . S
C884 C885 1.287 . S
C885 C884 1.287 . S
C885 C886 1.524 . S
C885 H888 0.999 . S
C886 H856 0.950 . S
C886 C885 1.524 . S
C886 C887 1.415 . S
C887 H857 0.950 . S
C887 C882 1.363 . S
C887 C886 1.415 . S
H888 C885 0.999 . S
H889 C870 0.913 . S
H890 C908 0.951 . S
H891 C910 0.951 . S
H892 C912 0.950 . S
H893 C913 0.950 . S
H894 C915 0.950 . S
H895 C918 0.950 . S
H896 C919 0.950 . S
H897 C921 0.950 . S
H898 C922 0.950 . S
H899 C923 0.951 . S
H900 C925 0.951 . S
H901 C927 0.950 . S
H902 C928 0.950 . S
H903 C930 0.950 . S
H904 C933 0.950 . S
H905 C934 0.950 . S
H906 C936 0.950 . S
H907 C937 0.950 . S
C908 H890 0.951 . S
C908 C909 1.366 . S
C908 C910 1.388 . S
C909 C908 1.366 . S
C909 C913 1.385 . S
C910 H891 0.951 . S
C910 C908 1.388 . S
C910 C911 1.366 1_554 S
C911 C910 1.366 1_556 S
C911 C912 1.414 . S
C911 C914 1.499 . S
C912 H892 0.950 . S
C912 C911 1.414 . S
C912 C913 1.374 1_556 S
C913 H893 0.950 . S
C913 C909 1.385 . S
C913 C912 1.374 1_554 S
C914 C911 1.499 . S
C914 C915 1.373 . S
C914 C916 1.389 . S
C915 H894 0.950 . S
C915 C914 1.373 . S
C915 C931 1.377 . S
C916 C914 1.389 . S
C916 C917 1.524 . S
C916 C930 1.377 . S
C917 C916 1.524 . S
C917 C918 1.397 . S
C917 C922 1.363 . S
C918 H895 0.950 . S
C918 C917 1.397 . S
C918 C919 1.334 . S
C919 H896 0.950 . S
C919 C918 1.334 . S
C919 C920 1.287 . S
C920 C919 1.287 . S
C920 C921 1.524 . S
C920 H939 0.913 . S
C921 H897 0.950 . S
C921 C920 1.524 . S
C921 C922 1.415 . S
C922 H898 0.950 . S
C922 C917 1.363 . S
C922 C921 1.415 . S
C923 H899 0.951 . S
C923 C924 1.366 . S
C923 C925 1.388 . S
C924 C923 1.366 . S
C924 C928 1.385 . S
C925 H900 0.951 . S
C925 C923 1.388 . S
C925 C926 1.366 . S
C926 C925 1.366 . S
C926 C927 1.414 . S
C926 C929 1.499 . S
C927 H901 0.950 . S
C927 C926 1.414 . S
C927 C928 1.374 . S
C928 H902 0.950 . S
C928 C924 1.385 . S
C928 C927 1.374 . S
C929 C926 1.499 . S
C929 C930 1.373 . S
C929 C931 1.389 . S
C930 H903 0.950 . S
C930 C916 1.377 . S
C930 C929 1.373 . S
C931 C915 1.377 . S
C931 C929 1.389 . S
C931 C932 1.524 . S
C932 C931 1.524 . S
C932 C933 1.397 . S
C932 C937 1.363 . S
C933 H904 0.950 . S
C933 C932 1.397 . S
C933 C934 1.334 . S
C934 H905 0.950 . S
C934 C933 1.334 . S
C934 C935 1.287 . S
C935 C934 1.287 . S
C935 C936 1.524 . S
C935 H938 0.999 . S
C936 H906 0.950 . S
C936 C935 1.524 . S
C936 C937 1.415 . S
C937 H907 0.950 . S
C937 C932 1.363 . S
C937 C936 1.415 . S
H938 C935 0.999 . S
H939 C920 0.913 . S
H940 C958 0.951 . S
H941 C960 0.951 . S
H942 C962 0.950 . S
H943 C963 0.950 . S
H944 C965 0.950 . S
H945 C968 0.950 . S
H946 C969 0.950 . S
H947 C971 0.950 . S
H948 C972 0.950 . S
H949 C973 0.951 . S
H950 C975 0.951 . S
H951 C977 0.950 . S
H952 C978 0.950 . S
H953 C980 0.950 . S
H954 C983 0.950 . S
H955 C984 0.950 . S
H956 C986 0.950 . S
H957 C987 0.950 . S
C958 H940 0.951 . S
C958 C959 1.366 . S
C958 C960 1.388 1_554 S
C959 C958 1.366 . S
C959 C963 1.385 . S
C960 H941 0.951 . S
C960 C958 1.388 1_556 S
C960 C961 1.366 . S
C961 C960 1.366 . S
C961 C962 1.414 1_556 S
C961 C964 1.499 . S
C962 H942 0.950 . S
C962 C961 1.414 1_554 S
C962 C963 1.374 . S
C963 H943 0.950 . S
C963 C959 1.385 . S
C963 C962 1.374 . S
C964 C961 1.499 . S
C964 C965 1.373 . S
C964 C966 1.389 . S
C965 H944 0.950 . S
C965 C964 1.373 . S
C965 C981 1.377 . S
C966 C964 1.389 . S
C966 C967 1.524 . S
C966 C980 1.377 . S
C967 C966 1.524 . S
C967 C968 1.397 . S
C967 C972 1.363 . S
C968 H945 0.950 . S
C968 C967 1.397 . S
C968 C969 1.334 . S
C969 H946 0.950 . S
C969 C968 1.334 . S
C969 C970 1.287 . S
C970 C969 1.287 . S
C970 C971 1.524 . S
C970 H989 0.913 . S
C971 H947 0.950 . S
C971 C970 1.524 . S
C971 C972 1.415 . S
C972 H948 0.950 . S
C972 C967 1.363 . S
C972 C971 1.415 . S
C973 H949 0.951 . S
C973 C974 1.366 . S
C973 C975 1.388 . S
C974 C973 1.366 . S
C974 C978 1.385 . S
C975 H950 0.951 . S
C975 C973 1.388 . S
C975 C976 1.366 . S
C976 C975 1.366 . S
C976 C977 1.414 . S
C976 C979 1.499 . S
C977 H951 0.950 . S
C977 C976 1.414 . S
C977 C978 1.374 . S
C978 H952 0.950 . S
C978 C974 1.385 . S
C978 C977 1.374 . S
C979 C976 1.499 . S
C979 C980 1.373 . S
C979 C981 1.389 . S
C980 H953 0.950 . S
C980 C966 1.377 . S
C980 C979 1.373 . S
C981 C965 1.377 . S
C981 C979 1.389 . S
C981 C982 1.524 . S
C982 C981 1.524 . S
C982 C983 1.397 . S
C982 C987 1.363 . S
C983 H954 0.950 . S
C983 C982 1.397 . S
C983 C984 1.334 . S
C984 H955 0.950 . S
C984 C983 1.334 . S
C984 C985 1.287 . S
C985 C984 1.287 . S
C985 C986 1.524 . S
C985 H988 0.999 . S
C986 H956 0.950 . S
C986 C985 1.524 . S
C986 C987 1.415 . S
C987 H957 0.950 . S
C987 C982 1.363 . S
C987 C986 1.415 . S
H988 C985 0.999 . S
H989 C970 0.913 . S
H990 C1008 0.951 . S
H991 C1010 0.943 1_556 S
H992 C1012 0.950 1_455 S
H993 C1013 0.950 . S
H994 C1015 0.950 . S
H995 C1018 0.950 . S
H996 C1019 0.950 . S
H997 C1021 0.950 . S
H998 C1022 0.950 . S
H999 C1023 0.951 . S
H1000 C1025 0.951 . S
H1001 C1027 0.950 . S
H1002 C1028 0.950 . S
H1003 C1030 0.950 . S
H1004 C1033 0.950 . S
H1005 C1034 0.950 1_655 S
H1006 C1036 0.950 . S
H1007 C1037 0.950 . S
C1008 H990 0.951 . S
C1008 C1009 1.366 . S
C1008 C1010 1.388 . S
C1009 C1008 1.366 . S
C1009 C1013 1.385 . S
C1010 H991 0.943 1_554 S
C1010 C1008 1.388 . S
C1010 C1011 1.366 . S
C1011 C1010 1.366 . S
C1011 C1012 1.414 . S
C1011 C1014 1.499 1_554 S
C1012 H992 0.950 1_655 S
C1012 C1011 1.414 . S
C1012 C1013 1.374 . S
C1013 H993 0.950 . S
C1013 C1009 1.385 . S
C1013 C1012 1.374 . S
C1014 C1011 1.499 1_556 S
C1014 C1015 1.373 . S
C1014 C1016 1.389 . S
C1015 H994 0.950 . S
C1015 C1014 1.373 . S
C1015 C1031 1.377 . S
C1016 C1014 1.389 . S
C1016 C1017 1.524 . S
C1016 C1030 1.377 . S
C1017 C1016 1.524 . S
C1017 C1018 1.397 1_556 S
C1017 C1022 1.363 . S
C1018 H995 0.950 . S
C1018 C1017 1.397 1_554 S
C1018 C1019 1.334 . S
C1019 H996 0.950 . S
C1019 C1018 1.334 . S
C1019 C1020 1.287 . S
C1020 C1019 1.287 . S
C1020 C1021 1.524 . S
C1020 H1039 0.913 . S
C1021 H997 0.950 . S
C1021 C1020 1.524 . S
C1021 C1022 1.415 1_554 S
C1022 H998 0.950 . S
C1022 C1017 1.363 . S
C1022 C1021 1.415 1_556 S
C1023 H999 0.951 . S
C1023 C1024 1.366 1_455 S
C1023 C1025 1.388 . S
C1024 C1023 1.366 1_655 S
C1024 C1028 1.385 . S
C1025 H1000 0.951 . S
C1025 C1023 1.388 . S
C1025 C1026 1.366 1_455 S
C1026 C1025 1.366 1_655 S
C1026 C1027 1.414 . S
C1026 C1029 1.499 . S
C1027 H1001 0.950 . S
C1027 C1026 1.414 . S
C1027 C1028 1.374 . S
C1028 H1002 0.950 . S
C1028 C1024 1.385 . S
C1028 C1027 1.374 . S
C1029 C1026 1.499 . S
C1029 C1030 1.373 . S
C1029 C1031 1.389 . S
C1030 H1003 0.950 . S
C1030 C1016 1.377 . S
C1030 C1029 1.373 . S
C1031 C1015 1.377 . S
C1031 C1029 1.389 . S
C1031 C1032 1.524 1_655 S
C1032 C1031 1.524 1_455 S
C1032 C1033 1.397 1_455 S
C1032 C1037 1.363 . S
C1033 H1004 0.950 . S
C1033 C1032 1.397 1_655 S
C1033 C1034 1.334 1_655 S
C1034 H1005 0.950 1_455 S
C1034 C1033 1.334 1_455 S
C1034 C1035 1.287 . S
C1035 C1034 1.287 . S
C1035 C1036 1.524 . S
C1035 H1038 0.999 . S
C1036 H1006 0.950 . S
C1036 C1035 1.524 . S
C1036 C1037 1.415 . S
C1037 H1007 0.950 . S
C1037 C1032 1.363 . S
C1037 C1036 1.415 . S
H1038 C1035 0.999 . S
H1039 C1020 0.913 . S
H1040 C1058 0.951 . S
H1041 C1060 0.951 . S
H1042 C1062 0.950 . S
H1043 C1063 0.950 . S
H1044 C1065 0.950 . S
H1045 C1068 0.950 . S
H1046 C1069 0.950 . S
H1047 C1071 0.950 . S
H1048 C1072 0.950 . S
H1049 C1073 0.951 . S
H1050 C1075 0.951 . S
H1051 C1077 0.950 . S
H1052 C1078 0.950 . S
H1053 C1080 0.950 . S
H1054 C1083 0.950 . S
H1055 C1084 0.950 . S
H1056 C1086 0.932 1_655 S
H1057 C1087 0.950 1_655 S
C1058 H1040 0.951 . S
C1058 C1059 1.366 . S
C1058 C1060 1.388 . S
C1059 C1058 1.366 . S
C1059 C1063 1.385 . S
C1060 H1041 0.951 . S
C1060 C1058 1.388 . S
C1060 C1061 1.366 . S
C1061 C1060 1.366 . S
C1061 C1062 1.414 . S
C1061 C1064 1.499 . S
C1062 H1042 0.950 . S
C1062 C1061 1.414 . S
C1062 C1063 1.374 . S
C1063 H1043 0.950 . S
C1063 C1059 1.385 . S
C1063 C1062 1.374 . S
C1064 C1061 1.499 . S
C1064 C1065 1.373 . S
C1064 C1066 1.389 . S
C1065 H1044 0.950 . S
C1065 C1064 1.373 . S
C1065 C1081 1.377 . S
C1066 C1064 1.389 . S
C1066 C1067 1.524 . S
C1066 C1080 1.377 . S
C1067 C1066 1.524 . S
C1067 C1068 1.397 . S
C1067 C1072 1.363 . S
C1068 H1045 0.950 . S
C1068 C1067 1.397 . S
C1068 C1069 1.334 . S
C1069 H1046 0.950 . S
C1069 C1068 1.334 . S
C1069 C1070 1.287 . S
C1070 C1069 1.287 . S
C1070 C1071 1.524 . S
C1070 H1089 0.913 . S
C1071 H1047 0.950 . S
C1071 C1070 1.524 . S
C1071 C1072 1.415 . S
C1072 H1048 0.950 . S
C1072 C1067 1.363 . S
C1072 C1071 1.415 . S
C1073 H1049 0.951 . S
C1073 C1074 1.366 . S
C1073 C1075 1.388 . S
C1074 C1073 1.366 . S
C1074 C1078 1.385 1_655 S
C1075 H1050 0.951 . S
C1075 C1073 1.388 . S
C1075 C1076 1.366 1_655 S
C1076 C1075 1.366 1_455 S
C1076 C1077 1.414 . S
C1076 C1079 1.499 . S
C1077 H1051 0.950 . S
C1077 C1076 1.414 . S
C1077 C1078 1.374 . S
C1078 H1052 0.950 . S
C1078 C1074 1.385 1_455 S
C1078 C1077 1.374 . S
C1079 C1076 1.499 . S
C1079 C1080 1.373 . S
C1079 C1081 1.389 . S
C1080 H1053 0.950 . S
C1080 C1066 1.377 . S
C1080 C1079 1.373 . S
C1081 C1065 1.377 . S
C1081 C1079 1.389 . S
C1081 C1082 1.524 . S
C1082 C1081 1.524 . S
C1082 C1083 1.397 . S
C1082 C1087 1.363 . S
C1083 H1054 0.950 . S
C1083 C1082 1.397 . S
C1083 C1084 1.334 . S
C1084 H1055 0.950 . S
C1084 C1083 1.334 . S
C1084 C1085 1.287 . S
C1085 C1084 1.287 . S
C1085 C1086 1.538 . S
C1085 H1088 0.999 . S
C1086 H1056 0.932 1_455 S
C1086 C1085 1.538 . S
C1086 C1087 1.421 . S
C1087 H1057 0.950 1_455 S
C1087 C1082 1.363 . S
C1087 C1086 1.421 . S
H1088 C1085 0.999 . S
H1089 C1070 0.913 . S
H1090 C1108 0.951 . S
H1091 C1110 0.951 . S
H1092 C1112 0.950 . S
H1093 C1113 0.950 . S
H1094 C1115 0.950 . S
H1095 C1118 0.950 . S
H1096 C1119 0.942 1_565 S
H1097 C1121 0.950 . S
H1098 C1122 0.950 . S
H1099 C1123 0.951 . S
H1100 C1125 0.951 . S
H1101 C1127 0.950 . S
H1102 C1128 0.950 . S
H1103 C1130 0.950 . S
H1104 C1133 0.950 . S
H1105 C1134 0.950 . S
H1106 C1136 0.950 . S
H1107 C1137 0.950 . S
C1108 H1090 0.951 . S
C1108 C1109 1.366 . S
C1108 C1110 1.388 . S
C1109 C1108 1.366 . S
C1109 C1113 1.385 . S
C1110 H1091 0.951 . S
C1110 C1108 1.388 . S
C1110 C1111 1.366 . S
C1111 C1110 1.366 . S
C1111 C1112 1.414 . S
C1111 C1114 1.499 . S
C1112 H1092 0.950 . S
C1112 C1111 1.414 . S
C1112 C1113 1.374 . S
C1113 H1093 0.950 . S
C1113 C1109 1.385 . S
C1113 C1112 1.374 . S
C1114 C1111 1.499 . S
C1114 C1115 1.373 . S
C1114 C1116 1.389 . S
C1115 H1094 0.950 . S
C1115 C1114 1.373 . S
C1115 C1131 1.377 . S
C1116 C1114 1.389 . S
C1116 C1117 1.524 . S
C1116 C1130 1.377 . S
C1117 C1116 1.524 . S
C1117 C1118 1.397 . S
C1117 C1122 1.363 . S
C1118 H1095 0.950 . S
C1118 C1117 1.397 . S
C1118 C1119 1.334 . S
C1119 H1096 0.942 1_545 S
C1119 C1118 1.334 . S
C1119 C1120 1.287 1_545 S
C1120 C1119 1.287 1_565 S
C1120 C1121 1.524 1_565 S
C1120 H1139 0.913 . S
C1121 H1097 0.950 . S
C1121 C1120 1.524 1_545 S
C1121 C1122 1.415 . S
C1122 H1098 0.950 . S
C1122 C1117 1.363 . S
C1122 C1121 1.415 . S
C1123 H1099 0.951 . S
C1123 C1124 1.366 . S
C1123 C1125 1.388 . S
C1124 C1123 1.366 . S
C1124 C1128 1.385 . S
C1125 H1100 0.951 . S
C1125 C1123 1.388 . S
C1125 C1126 1.366 . S
C1126 C1125 1.366 . S
C1126 C1127 1.414 . S
C1126 C1129 1.499 . S
C1127 H1101 0.950 . S
C1127 C1126 1.414 . S
C1127 C1128 1.374 . S
C1128 H1102 0.950 . S
C1128 C1124 1.385 . S
C1128 C1127 1.374 . S
C1129 C1126 1.499 . S
C1129 C1130 1.373 . S
C1129 C1131 1.389 . S
C1130 H1103 0.950 . S
C1130 C1116 1.377 . S
C1130 C1129 1.373 . S
C1131 C1115 1.377 . S
C1131 C1129 1.389 . S
C1131 C1132 1.524 . S
C1132 C1131 1.524 . S
C1132 C1133 1.397 . S
C1132 C1137 1.363 . S
C1133 H1104 0.950 . S
C1133 C1132 1.397 . S
C1133 C1134 1.334 . S
C1134 H1105 0.950 . S
C1134 C1133 1.334 . S
C1134 C1135 1.287 . S
C1135 C1134 1.287 . S
C1135 C1136 1.524 . S
C1135 H1138 0.999 . S
C1136 H1106 0.950 . S
C1136 C1135 1.524 . S
C1136 C1137 1.415 . S
C1137 H1107 0.950 . S
C1137 C1132 1.363 . S
C1137 C1136 1.415 . S
H1138 C1135 0.999 . S
H1139 C1120 0.913 . S
H1140 C1158 0.951 . S
H1141 C1160 0.951 . S
H1142 C1162 0.950 . S
H1143 C1163 0.950 . S
H1144 C1165 0.950 . S
H1145 C1168 0.950 . S
H1146 C1169 0.950 . S
H1147 C1171 0.950 . S
H1148 C1172 0.950 . S
H1149 C1173 0.951 . S
H1150 C1175 0.951 . S
H1151 C1177 0.950 . S
H1152 C1178 0.950 . S
H1153 C1180 0.950 . S
H1154 C1183 0.950 . S
H1155 C1184 0.950 . S
H1156 C1186 0.950 . S
H1157 C1187 0.950 . S
C1158 H1140 0.951 . S
C1158 C1159 1.366 . S
C1158 C1160 1.388 . S
C1159 C1158 1.366 . S
C1159 C1163 1.385 . S
C1160 H1141 0.951 . S
C1160 C1158 1.388 . S
C1160 C1161 1.366 . S
C1161 C1160 1.366 . S
C1161 C1162 1.414 . S
C1161 C1164 1.499 . S
C1162 H1142 0.950 . S
C1162 C1161 1.414 . S
C1162 C1163 1.374 . S
C1163 H1143 0.950 . S
C1163 C1159 1.385 . S
C1163 C1162 1.374 . S
C1164 C1161 1.499 . S
C1164 C1165 1.373 . S
C1164 C1166 1.389 . S
C1165 H1144 0.950 . S
C1165 C1164 1.373 . S
C1165 C1181 1.377 . S
C1166 C1164 1.389 . S
C1166 C1167 1.524 . S
C1166 C1180 1.377 . S
C1167 C1166 1.524 . S
C1167 C1168 1.397 . S
C1167 C1172 1.363 . S
C1168 H1145 0.950 . S
C1168 C1167 1.397 . S
C1168 C1169 1.334 . S
C1169 H1146 0.950 . S
C1169 C1168 1.334 . S
C1169 C1170 1.287 . S
C1170 C1169 1.287 . S
C1170 C1171 1.524 . S
C1170 H1189 0.913 . S
C1171 H1147 0.950 . S
C1171 C1170 1.524 . S
C1171 C1172 1.415 . S
C1172 H1148 0.950 . S
C1172 C1167 1.363 . S
C1172 C1171 1.415 . S
C1173 H1149 0.951 . S
C1173 C1174 1.366 . S
C1173 C1175 1.388 . S
C1174 C1173 1.366 . S
C1174 C1178 1.385 . S
C1175 H1150 0.951 . S
C1175 C1173 1.388 . S
C1175 C1176 1.366 . S
C1176 C1175 1.366 . S
C1176 C1177 1.414 . S
C1176 C1179 1.499 . S
C1177 H1151 0.950 . S
C1177 C1176 1.414 . S
C1177 C1178 1.374 . S
C1178 H1152 0.950 . S
C1178 C1174 1.385 . S
C1178 C1177 1.374 . S
C1179 C1176 1.499 . S
C1179 C1180 1.373 . S
C1179 C1181 1.389 . S
C1180 H1153 0.950 . S
C1180 C1166 1.377 . S
C1180 C1179 1.373 . S
C1181 C1165 1.377 . S
C1181 C1179 1.389 . S
C1181 C1182 1.524 . S
C1182 C1181 1.524 . S
C1182 C1183 1.397 . S
C1182 C1187 1.363 . S
C1183 H1154 0.950 . S
C1183 C1182 1.397 . S
C1183 C1184 1.334 . S
C1184 H1155 0.950 . S
C1184 C1183 1.334 . S
C1184 C1185 1.287 . S
C1185 C1184 1.287 . S
C1185 C1186 1.524 . S
C1185 H1188 0.999 . S
C1186 H1156 0.950 . S
C1186 C1185 1.524 . S
C1186 C1187 1.415 . S
C1187 H1157 0.950 . S
C1187 C1182 1.363 . S
C1187 C1186 1.415 . S
H1188 C1185 0.999 . S
H1189 C1170 0.913 . S
H1190 C1208 0.951 . S
H1191 C1210 0.951 . S
H1192 C1212 0.950 . S
H1193 C1213 0.950 . S
H1194 C1215 0.950 . S
H1195 C1218 0.950 . S
H1196 C1219 0.950 . S
H1197 C1221 0.950 . S
H1198 C1222 0.950 . S
H1199 C1223 0.951 . S
H1200 C1225 0.951 . S
H1201 C1227 0.950 . S
H1202 C1228 0.950 . S
H1203 C1230 0.950 . S
H1204 C1233 0.950 . S
H1205 C1234 0.950 . S
H1206 C1236 0.950 . S
H1207 C1237 0.950 . S
C1208 H1190 0.951 . S
C1208 C1209 1.366 . S
C1208 C1210 1.388 . S
C1209 C1208 1.366 . S
C1209 C1213 1.385 . S
C1210 H1191 0.951 . S
C1210 C1208 1.388 . S
C1210 C1211 1.366 . S
C1211 C1210 1.366 . S
C1211 C1212 1.414 . S
C1211 C1214 1.499 . S
C1212 H1192 0.950 . S
C1212 C1211 1.414 . S
C1212 C1213 1.374 . S
C1213 H1193 0.950 . S
C1213 C1209 1.385 . S
C1213 C1212 1.374 . S
C1214 C1211 1.499 . S
C1214 C1215 1.373 . S
C1214 C1216 1.389 . S
C1215 H1194 0.950 . S
C1215 C1214 1.373 . S
C1215 C1231 1.377 . S
C1216 C1214 1.389 . S
C1216 C1217 1.524 . S
C1216 C1230 1.377 . S
C1217 C1216 1.524 . S
C1217 C1218 1.397 . S
C1217 C1222 1.363 . S
C1218 H1195 0.950 . S
C1218 C1217 1.397 . S
C1218 C1219 1.334 . S
C1219 H1196 0.950 . S
C1219 C1218 1.334 . S
C1219 C1220 1.287 . S
C1220 C1219 1.287 . S
C1220 C1221 1.524 . S
C1220 H1239 0.913 . S
C1221 H1197 0.950 . S
C1221 C1220 1.524 . S
C1221 C1222 1.415 . S
C1222 H1198 0.950 . S
C1222 C1217 1.363 . S
C1222 C1221 1.415 . S
C1223 H1199 0.951 . S
C1223 C1224 1.366 . S
C1223 C1225 1.388 . S
C1224 C1223 1.366 . S
C1224 C1228 1.385 . S
C1225 H1200 0.951 . S
C1225 C1223 1.388 . S
C1225 C1226 1.366 . S
C1226 C1225 1.366 . S
C1226 C1227 1.414 . S
C1226 C1229 1.499 . S
C1227 H1201 0.950 . S
C1227 C1226 1.414 . S
C1227 C1228 1.374 . S
C1228 H1202 0.950 . S
C1228 C1224 1.385 . S
C1228 C1227 1.374 . S
C1229 C1226 1.499 . S
C1229 C1230 1.373 . S
C1229 C1231 1.389 . S
C1230 H1203 0.950 . S
C1230 C1216 1.377 . S
C1230 C1229 1.373 . S
C1231 C1215 1.377 . S
C1231 C1229 1.389 . S
C1231 C1232 1.524 . S
C1232 C1231 1.524 . S
C1232 C1233 1.397 . S
C1232 C1237 1.363 . S
C1233 H1204 0.950 . S
C1233 C1232 1.397 . S
C1233 C1234 1.334 . S
C1234 H1205 0.950 . S
C1234 C1233 1.334 . S
C1234 C1235 1.287 . S
C1235 C1234 1.287 . S
C1235 C1236 1.524 . S
C1235 H1238 0.999 . S
C1236 H1206 0.950 . S
C1236 C1235 1.524 . S
C1236 C1237 1.415 . S
C1237 H1207 0.950 . S
C1237 C1232 1.363 . S
C1237 C1236 1.415 . S
H1238 C1235 0.999 . S
H1239 C1220 0.913 . S
H1240 C1258 0.951 1_556 S
H1241 C1260 0.951 . S
H1242 C1262 0.950 . S
H1243 C1263 0.950 . S
H1244 C1265 0.950 . S
H1245 C1268 0.950 . S
H1246 C1269 0.950 . S
H1247 C1271 0.950 . S
H1248 C1272 0.950 . S
H1249 C1273 0.951 . S
H1250 C1275 0.951 . S
H1251 C1277 0.950 . S
H1252 C1278 0.950 . S
H1253 C1280 0.950 . S
H1254 C1283 0.950 . S
H1255 C1284 0.950 . S
H1256 C1286 0.950 . S
H1257 C1287 0.950 . S
C1258 H1240 0.951 1_554 S
C1258 C1259 1.366 . S
C1258 C1260 1.388 1_554 S
C1259 C1258 1.366 . S
C1259 C1263 1.385 . S
C1260 H1241 0.951 . S
C1260 C1258 1.388 1_556 S
C1260 C1261 1.369 . S
C1261 C1260 1.369 . S
C1261 C1262 1.407 1_556 S
C1261 C1264 1.502 . S
C1262 H1242 0.950 . S
C1262 C1261 1.407 1_554 S
C1262 C1263 1.374 . S
C1263 H1243 0.950 . S
C1263 C1259 1.385 . S
C1263 C1262 1.374 . S
C1264 C1261 1.502 . S
C1264 C1265 1.373 . S
C1264 C1266 1.389 . S
C1265 H1244 0.950 . S
C1265 C1264 1.373 . S
C1265 C1281 1.377 . S
C1266 C1264 1.389 . S
C1266 C1267 1.524 1_655 S
C1266 C1280 1.377 1_655 S
C1267 C1266 1.524 1_455 S
C1267 C1268 1.397 1_556 S
C1267 C1272 1.363 . S
C1268 H1245 0.950 . S
C1268 C1267 1.397 1_554 S
C1268 C1269 1.334 . S
C1269 H1246 0.950 . S
C1269 C1268 1.334 . S
C1269 C1270 1.287 . S
C1270 C1269 1.287 . S
C1270 C1271 1.524 1_554 S
C1270 H1289 0.913 . S
C1271 H1247 0.950 . S
C1271 C1270 1.524 1_556 S
C1271 C1272 1.415 . S
C1272 H1248 0.950 . S
C1272 C1267 1.363 . S
C1272 C1271 1.415 . S
C1273 H1249 0.951 . S
C1273 C1274 1.366 . S
C1273 C1275 1.388 1_455 S
C1274 C1273 1.366 . S
C1274 C1278 1.385 . S
C1275 H1250 0.951 . S
C1275 C1273 1.388 1_655 S
C1275 C1276 1.366 . S
C1276 C1275 1.366 . S
C1276 C1277 1.414 1_655 S
C1276 C1279 1.499 . S
C1277 H1251 0.950 . S
C1277 C1276 1.414 1_455 S
C1277 C1278 1.374 . S
C1278 H1252 0.950 . S
C1278 C1274 1.385 . S
C1278 C1277 1.374 . S
C1279 C1276 1.499 . S
C1279 C1280 1.373 1_655 S
C1279 C1281 1.389 . S
C1280 H1253 0.950 . S
C1280 C1266 1.377 1_455 S
C1280 C1279 1.373 1_455 S
C1281 C1265 1.377 . S
C1281 C1279 1.389 . S
C1281 C1282 1.524 . S
C1282 C1281 1.524 . S
C1282 C1283 1.397 . S
C1282 C1287 1.363 . S
C1283 H1254 0.950 . S
C1283 C1282 1.397 . S
C1283 C1284 1.334 . S
C1284 H1255 0.950 . S
C1284 C1283 1.334 . S
C1284 C1285 1.287 . S
C1285 C1284 1.287 . S
C1285 C1286 1.524 . S
C1285 H1288 0.999 . S
C1286 H1256 0.950 . S
C1286 C1285 1.524 . S
C1286 C1287 1.415 . S
C1287 H1257 0.950 . S
C1287 C1282 1.363 . S
C1287 C1286 1.415 . S
H1288 C1285 0.999 . S
H1289 C1270 0.913 . S
H1290 C1308 0.951 1_556 S
H1291 C1310 0.951 . S
H1292 C1312 0.950 . S
H1293 C1313 0.950 . S
H1294 C1315 0.950 . S
H1295 C1318 0.950 . S
H1296 C1319 0.950 . S
H1297 C1321 0.950 . S
H1298 C1322 0.950 . S
H1299 C1323 0.951 . S
H1300 C1325 0.951 . S
H1301 C1327 0.950 . S
H1302 C1328 0.954 . S
H1303 C1330 0.950 . S
H1304 C1333 0.950 . S
H1305 C1334 0.950 . S
H1306 C1336 0.950 1_554 S
H1307 C1337 0.964 . S
C1308 H1290 0.951 1_554 S
C1308 C1309 1.366 . S
C1308 C1310 1.388 1_554 S
C1309 C1308 1.366 . S
C1309 C1313 1.385 . S
C1310 H1291 0.951 . S
C1310 C1308 1.388 1_556 S
C1310 C1311 1.366 . S
C1311 C1310 1.366 . S
C1311 C1312 1.414 1_556 S
C1311 C1314 1.499 . S
C1312 H1292 0.950 . S
C1312 C1311 1.414 1_554 S
C1312 C1313 1.374 . S
C1313 H1293 0.950 . S
C1313 C1309 1.385 . S
C1313 C1312 1.374 . S
C1314 C1311 1.499 . S
C1314 C1315 1.373 . S
C1314 C1316 1.389 . S
C1315 H1294 0.950 . S
C1315 C1314 1.373 . S
C1315 C1331 1.377 . S
C1316 C1314 1.389 . S
C1316 C1317 1.524 . S
C1316 C1330 1.377 . S
C1317 C1316 1.524 . S
C1317 C1318 1.397 . S
C1317 C1322 1.363 . S
C1318 H1295 0.950 . S
C1318 C1317 1.397 . S
C1318 C1319 1.334 1_565 S
C1319 H1296 0.950 . S
C1319 C1318 1.334 1_545 S
C1319 C1320 1.287 . S
C1320 C1319 1.287 . S
C1320 C1321 1.524 1_545 S
C1320 H1339 0.913 . S
C1321 H1297 0.950 . S
C1321 C1320 1.524 1_565 S
C1321 C1322 1.415 . S
C1322 H1298 0.950 . S
C1322 C1317 1.363 . S
C1322 C1321 1.415 . S
C1323 H1299 0.951 . S
C1323 C1324 1.366 . S
C1323 C1325 1.388 1_545 S
C1324 C1323 1.366 . S
C1324 C1328 1.385 1_545 S
C1325 H1300 0.951 . S
C1325 C1323 1.388 1_565 S
C1325 C1326 1.366 . S
C1326 C1325 1.366 . S
C1326 C1327 1.414 . S
C1326 C1329 1.499 . S
C1327 H1301 0.950 . S
C1327 C1326 1.414 . S
C1327 C1328 1.374 . S
C1328 H1302 0.954 . S
C1328 C1324 1.385 1_565 S
C1328 C1327 1.374 . S
C1329 C1326 1.499 . S
C1329 C1330 1.373 . S
C1329 C1331 1.389 . S
C1330 H1303 0.950 . S
C1330 C1316 1.377 . S
C1330 C1329 1.373 . S
C1331 C1315 1.377 . S
C1331 C1329 1.389 . S
C1331 C1332 1.524 . S
C1332 C1331 1.524 . S
C1332 C1333 1.397 . S
C1332 C1337 1.363 . S
C1333 H1304 0.950 . S
C1333 C1332 1.397 . S
C1333 C1334 1.334 . S
C1334 H1305 0.950 . S
C1334 C1333 1.334 . S
C1334 C1335 1.287 . S
C1335 C1334 1.287 . S
C1335 C1336 1.524 . S
C1335 H1338 0.999 . S
C1336 H1306 0.950 1_556 S
C1336 C1335 1.524 . S
C1336 C1337 1.415 . S
C1337 H1307 0.964 . S
C1337 C1332 1.363 . S
C1337 C1336 1.415 . S
H1338 C1335 0.999 . S
H1339 C1320 0.913 . S
H1340 C1358 0.951 . S
H1341 C1360 0.950 1_554 S
H1342 C1362 0.950 . S
H1343 C1363 0.950 . S
H1344 C1365 0.950 . S
H1345 C1368 0.950 . S
H1346 C1369 0.950 . S
H1347 C1371 0.950 . S
H1348 C1372 0.950 . S
H1349 C1373 0.951 . S
H1350 C1375 0.951 . S
H1351 C1377 0.950 . S
H1352 C1378 0.950 . S
H1353 C1380 0.950 . S
H1354 C1383 0.950 . S
H1355 C1384 0.950 . S
H1356 C1386 0.950 . S
H1357 C1387 0.950 . S
C1358 H1340 0.951 . S
C1358 C1359 1.366 . S
C1358 C1360 1.388 1_554 S
C1359 C1358 1.366 . S
C1359 C1363 1.385 1_554 S
C1360 H1341 0.950 1_556 S
C1360 C1358 1.388 1_556 S
C1360 C1361 1.366 . S
C1361 C1360 1.366 . S
C1361 C1362 1.414 . S
C1361 C1364 1.499 . S
C1362 H1342 0.950 . S
C1362 C1361 1.414 . S
C1362 C1363 1.374 . S
C1363 H1343 0.950 . S
C1363 C1359 1.385 1_556 S
C1363 C1362 1.374 . S
C1364 C1361 1.499 . S
C1364 C1365 1.373 . S
C1364 C1366 1.389 . S
C1365 H1344 0.950 . S
C1365 C1364 1.373 . S
C1365 C1381 1.377 . S
C1366 C1364 1.389 . S
C1366 C1367 1.524 . S
C1366 C1380 1.377 . S
C1367 C1366 1.524 . S
C1367 C1368 1.397 . S
C1367 C1372 1.363 . S
C1368 H1345 0.950 . S
C1368 C1367 1.397 . S
C1368 C1369 1.334 . S
C1369 H1346 0.950 . S
C1369 C1368 1.334 . S
C1369 C1370 1.287 . S
C1370 C1369 1.287 . S
C1370 C1371 1.524 . S
C1370 H1389 0.913 . S
C1371 H1347 0.950 . S
C1371 C1370 1.524 . S
C1371 C1372 1.415 . S
C1372 H1348 0.950 . S
C1372 C1367 1.363 . S
C1372 C1371 1.415 . S
C1373 H1349 0.951 . S
C1373 C1374 1.366 . S
C1373 C1375 1.388 . S
C1374 C1373 1.366 . S
C1374 C1378 1.385 . S
C1375 H1350 0.951 . S
C1375 C1373 1.388 . S
C1375 C1376 1.366 . S
C1376 C1375 1.366 . S
C1376 C1377 1.414 . S
C1376 C1379 1.499 . S
C1377 H1351 0.950 . S
C1377 C1376 1.414 . S
C1377 C1378 1.374 . S
C1378 H1352 0.950 . S
C1378 C1374 1.385 . S
C1378 C1377 1.374 . S
C1379 C1376 1.499 . S
C1379 C1380 1.373 . S
C1379 C1381 1.389 . S
C1380 H1353 0.950 . S
C1380 C1366 1.377 . S
C1380 C1379 1.373 . S
C1381 C1365 1.377 . S
C1381 C1379 1.389 . S
C1381 C1382 1.524 . S
C1382 C1381 1.524 . S
C1382 C1383 1.397 . S
C1382 C1387 1.363 . S
C1383 H1354 0.950 . S
C1383 C1382 1.397 . S
C1383 C1384 1.334 . S
C1384 H1355 0.950 . S
C1384 C1383 1.334 . S
C1384 C1385 1.287 . S
C1385 C1384 1.287 . S
C1385 C1386 1.524 . S
C1385 H1388 0.999 . S
C1386 H1356 0.950 . S
C1386 C1385 1.524 . S
C1386 C1387 1.415 . S
C1387 H1357 0.950 . S
C1387 C1382 1.363 . S
C1387 C1386 1.415 . S
H1388 C1385 0.999 . S
H1389 C1370 0.913 . S
H1390 C1408 0.951 . S
H1391 C1410 0.951 1_554 S
H1392 C1412 0.950 . S
H1393 C1413 0.950 . S
H1394 C1415 0.950 . S
H1395 C1418 0.950 . S
H1396 C1419 0.950 . S
H1397 C1421 0.950 . S
H1398 C1422 0.950 . S
H1399 C1423 0.951 . S
H1400 C1425 0.951 . S
H1401 C1427 0.950 . S
H1402 C1428 0.950 . S
H1403 C1430 0.950 . S
H1404 C1433 0.950 . S
H1405 C1434 0.950 . S
H1406 C1436 0.950 . S
H1407 C1437 0.950 . S
C1408 H1390 0.951 . S
C1408 C1409 1.366 1_554 S
C1408 C1410 1.388 1_554 S
C1409 C1408 1.366 1_556 S
C1409 C1413 1.385 . S
C1410 H1391 0.951 1_556 S
C1410 C1408 1.388 1_556 S
C1410 C1411 1.366 . S
C1411 C1410 1.366 . S
C1411 C1412 1.414 . S
C1411 C1414 1.499 . S
C1412 H1392 0.950 . S
C1412 C1411 1.414 . S
C1412 C1413 1.374 . S
C1413 H1393 0.950 . S
C1413 C1409 1.385 . S
C1413 C1412 1.374 . S
C1414 C1411 1.499 . S
C1414 C1415 1.373 . S
C1414 C1416 1.389 . S
C1415 H1394 0.950 . S
C1415 C1414 1.373 . S
C1415 C1431 1.377 . S
C1416 C1414 1.389 . S
C1416 C1417 1.524 . S
C1416 C1430 1.377 . S
C1417 C1416 1.524 . S
C1417 C1418 1.397 . S
C1417 C1422 1.363 . S
C1418 H1395 0.950 . S
C1418 C1417 1.397 . S
C1418 C1419 1.334 . S
C1419 H1396 0.950 . S
C1419 C1418 1.334 . S
C1419 C1420 1.287 . S
C1420 C1419 1.287 . S
C1420 C1421 1.524 . S
C1420 H1439 0.913 . S
C1421 H1397 0.950 . S
C1421 C1420 1.524 . S
C1421 C1422 1.415 . S
C1422 H1398 0.950 . S
C1422 C1417 1.363 . S
C1422 C1421 1.415 . S
C1423 H1399 0.951 . S
C1423 C1424 1.366 . S
C1423 C1425 1.388 . S
C1424 C1423 1.366 . S
C1424 C1428 1.385 . S
C1425 H1400 0.951 . S
C1425 C1423 1.388 . S
C1425 C1426 1.366 . S
C1426 C1425 1.366 . S
C1426 C1427 1.414 . S
C1426 C1429 1.499 . S
C1427 H1401 0.950 . S
C1427 C1426 1.414 . S
C1427 C1428 1.374 . S
C1428 H1402 0.950 . S
C1428 C1424 1.385 . S
C1428 C1427 1.374 . S
C1429 C1426 1.499 . S
C1429 C1430 1.373 . S
C1429 C1431 1.389 . S
C1430 H1403 0.950 . S
C1430 C1416 1.377 . S
C1430 C1429 1.373 . S
C1431 C1415 1.377 . S
C1431 C1429 1.389 . S
C1431 C1432 1.524 . S
C1432 C1431 1.524 . S
C1432 C1433 1.397 . S
C1432 C1437 1.363 . S
C1433 H1404 0.950 . S
C1433 C1432 1.397 . S
C1433 C1434 1.334 . S
C1434 H1405 0.950 . S
C1434 C1433 1.334 . S
C1434 C1435 1.287 . S
C1435 C1434 1.287 . S
C1435 C1436 1.524 . S
C1435 H1438 0.999 . S
C1436 H1406 0.950 . S
C1436 C1435 1.524 . S
C1436 C1437 1.415 . S
C1437 H1407 0.950 . S
C1437 C1432 1.363 . S
C1437 C1436 1.415 . S
H1438 C1435 0.999 . S
H1439 C1420 0.913 . S
H1440 C1458 0.951 . S
H1441 C1460 0.951 . S
H1442 C1462 0.950 . S
H1443 C1463 0.950 . S
H1444 C1465 0.950 . S
H1445 C1468 0.950 . S
H1446 C1469 0.950 . S
H1447 C1471 0.950 . S
H1448 C1472 0.950 . S
H1449 C1473 0.951 . S
H1450 C1475 0.951 . S
H1451 C1477 0.950 . S
H1452 C1478 0.950 . S
H1453 C1480 0.950 . S
H1454 C1483 0.950 . S
H1455 C1484 0.950 . S
H1456 C1486 0.950 . S
H1457 C1487 0.950 . S
C1458 H1440 0.951 . S
C1458 C1459 1.366 . S
C1458 C1460 1.388 . S
C1459 C1458 1.366 . S
C1459 C1463 1.385 . S
C1460 H1441 0.951 . S
C1460 C1458 1.388 . S
C1460 C1461 1.366 . S
C1461 C1460 1.366 . S
C1461 C1462 1.414 . S
C1461 C1464 1.499 . S
C1462 H1442 0.950 . S
C1462 C1461 1.414 . S
C1462 C1463 1.374 . S
C1463 H1443 0.950 . S
C1463 C1459 1.385 . S
C1463 C1462 1.374 . S
C1464 C1461 1.499 . S
C1464 C1465 1.373 . S
C1464 C1466 1.389 . S
C1465 H1444 0.950 . S
C1465 C1464 1.373 . S
C1465 C1481 1.377 . S
C1466 C1464 1.389 . S
C1466 C1467 1.524 . S
C1466 C1480 1.377 . S
C1467 C1466 1.524 . S
C1467 C1468 1.397 . S
C1467 C1472 1.363 . S
C1468 H1445 0.950 . S
C1468 C1467 1.397 . S
C1468 C1469 1.334 . S
C1469 H1446 0.950 . S
C1469 C1468 1.334 . S
C1469 C1470 1.287 . S
C1470 C1469 1.287 . S
C1470 C1471 1.524 . S
C1470 H1489 0.913 . S
C1471 H1447 0.950 . S
C1471 C1470 1.524 . S
C1471 C1472 1.415 . S
C1472 H1448 0.950 . S
C1472 C1467 1.363 . S
C1472 C1471 1.415 . S
C1473 H1449 0.951 . S
C1473 C1474 1.366 . S
C1473 C1475 1.388 . S
C1474 C1473 1.366 . S
C1474 C1478 1.385 . S
C1475 H1450 0.951 . S
C1475 C1473 1.388 . S
C1475 C1476 1.366 . S
C1476 C1475 1.366 . S
C1476 C1477 1.414 . S
C1476 C1479 1.499 . S
C1477 H1451 0.950 . S
C1477 C1476 1.414 . S
C1477 C1478 1.374 . S
C1478 H1452 0.950 . S
C1478 C1474 1.385 . S
C1478 C1477 1.374 . S
C1479 C1476 1.499 . S
C1479 C1480 1.373 . S
C1479 C1481 1.389 . S
C1480 H1453 0.950 . S
C1480 C1466 1.377 . S
C1480 C1479 1.373 . S
C1481 C1465 1.377 . S
C1481 C1479 1.389 . S
C1481 C1482 1.524 1_455 S
C1482 C1481 1.524 1_655 S
C1482 C1483 1.397 . S
C1482 C1487 1.363 . S
C1483 H1454 0.950 . S
C1483 C1482 1.397 . S
C1483 C1484 1.334 . S
C1484 H1455 0.950 . S
C1484 C1483 1.334 . S
C1484 C1485 1.287 . S
C1485 C1484 1.287 . S
C1485 C1486 1.524 . S
C1485 H1488 0.999 . S
C1486 H1456 0.950 . S
C1486 C1485 1.524 . S
C1486 C1487 1.415 . S
C1487 H1457 0.950 . S
C1487 C1482 1.363 . S
C1487 C1486 1.415 . S
H1488 C1485 0.999 . S
H1489 C1470 0.913 . S
H1490 C1508 0.951 . S
H1491 C1510 0.951 . S
H1492 C1512 0.950 . S
H1493 C1513 0.950 . S
H1494 C1515 0.950 . S
H1495 C1518 0.950 . S
H1496 C1519 0.950 . S
H1497 C1521 0.950 1_565 S
H1498 C1522 0.950 . S
H1499 C1523 0.951 . S
H1500 C1525 0.951 . S
H1501 C1527 0.950 . S
H1502 C1528 0.950 . S
H1503 C1530 0.950 . S
H1504 C1533 0.950 . S
H1505 C1534 0.950 . S
H1506 C1536 0.950 . S
H1507 C1537 0.950 . S
C1508 H1490 0.951 . S
C1508 C1509 1.366 . S
C1508 C1510 1.388 . S
C1509 C1508 1.366 . S
C1509 C1513 1.385 . S
C1510 H1491 0.951 . S
C1510 C1508 1.388 . S
C1510 C1511 1.366 . S
C1511 C1510 1.366 . S
C1511 C1512 1.414 . S
C1511 C1514 1.499 . S
C1512 H1492 0.950 . S
C1512 C1511 1.414 . S
C1512 C1513 1.374 . S
C1513 H1493 0.950 . S
C1513 C1509 1.385 . S
C1513 C1512 1.374 . S
C1514 C1511 1.499 . S
C1514 C1515 1.373 . S
C1514 C1516 1.389 . S
C1515 H1494 0.950 . S
C1515 C1514 1.373 . S
C1515 C1531 1.377 . S
C1516 C1514 1.389 . S
C1516 C1517 1.524 . S
C1516 C1530 1.377 . S
C1517 C1516 1.524 . S
C1517 C1518 1.397 . S
C1517 C1522 1.363 . S
C1518 H1495 0.950 . S
C1518 C1517 1.397 . S
C1518 C1519 1.334 . S
C1519 H1496 0.950 . S
C1519 C1518 1.334 . S
C1519 C1520 1.287 . S
C1520 C1519 1.287 . S
C1520 C1521 1.524 . S
C1520 H1539 0.913 . S
C1521 H1497 0.950 1_545 S
C1521 C1520 1.524 . S
C1521 C1522 1.415 . S
C1522 H1498 0.950 . S
C1522 C1517 1.363 . S
C1522 C1521 1.415 . S
C1523 H1499 0.951 . S
C1523 C1524 1.366 . S
C1523 C1525 1.388 . S
C1524 C1523 1.366 . S
C1524 C1528 1.385 . S
C1525 H1500 0.951 . S
C1525 C1523 1.388 . S
C1525 C1526 1.366 . S
C1526 C1525 1.366 . S
C1526 C1527 1.414 . S
C1526 C1529 1.499 . S
C1527 H1501 0.950 . S
C1527 C1526 1.414 . S
C1527 C1528 1.374 . S
C1528 H1502 0.950 . S
C1528 C1524 1.385 . S
C1528 C1527 1.374 . S
C1529 C1526 1.499 . S
C1529 C1530 1.373 . S
C1529 C1531 1.389 . S
C1530 H1503 0.950 . S
C1530 C1516 1.377 . S
C1530 C1529 1.373 . S
C1531 C1515 1.377 . S
C1531 C1529 1.389 . S
C1531 C1532 1.524 . S
C1532 C1531 1.524 . S
C1532 C1533 1.397 . S
C1532 C1537 1.363 . S
C1533 H1504 0.950 . S
C1533 C1532 1.397 . S
C1533 C1534 1.334 . S
C1534 H1505 0.950 . S
C1534 C1533 1.334 . S
C1534 C1535 1.287 . S
C1535 C1534 1.287 . S
C1535 C1536 1.524 . S
C1535 H1538 0.999 . S
C1536 H1506 0.950 . S
C1536 C1535 1.524 . S
C1536 C1537 1.415 . S
C1537 H1507 0.950 . S
C1537 C1532 1.363 . S
C1537 C1536 1.415 . S
H1538 C1535 0.999 . S
H1539 C1520 0.913 . S
H1540 C1558 0.951 . S
H1541 C1560 0.951 . S
H1542 C1562 0.950 . S
H1543 C1563 0.950 . S
H1544 C1565 0.950 . S
H1545 C1568 0.950 . S
H1546 C1569 0.950 . S
H1547 C1571 0.950 . S
H1548 C1572 0.950 . S
H1549 C1573 0.951 . S
H1550 C1575 0.951 . S
H1551 C1577 0.950 . S
H1552 C1578 0.950 . S
H1553 C1580 0.950 . S
H1554 C1583 0.950 . S
H1555 C1584 0.950 . S
H1556 C1586 0.950 . S
H1557 C1587 0.950 . S
C1558 H1540 0.951 . S
C1558 C1559 1.366 . S
C1558 C1560 1.388 . S
C1559 C1558 1.366 . S
C1559 C1563 1.385 . S
C1560 H1541 0.951 . S
C1560 C1558 1.388 . S
C1560 C1561 1.366 . S
C1561 C1560 1.366 . S
C1561 C1562 1.414 . S
C1561 C1564 1.499 . S
C1562 H1542 0.950 . S
C1562 C1561 1.414 . S
C1562 C1563 1.374 . S
C1563 H1543 0.950 . S
C1563 C1559 1.385 . S
C1563 C1562 1.374 . S
C1564 C1561 1.499 . S
C1564 C1565 1.373 . S
C1564 C1566 1.389 . S
C1565 H1544 0.950 . S
C1565 C1564 1.373 . S
C1565 C1581 1.377 . S
C1566 C1564 1.389 . S
C1566 C1567 1.524 . S
C1566 C1580 1.377 . S
C1567 C1566 1.524 . S
C1567 C1568 1.397 . S
C1567 C1572 1.363 . S
C1568 H1545 0.950 . S
C1568 C1567 1.397 . S
C1568 C1569 1.334 . S
C1569 H1546 0.950 . S
C1569 C1568 1.334 . S
C1569 C1570 1.287 . S
C1570 C1569 1.287 . S
C1570 C1571 1.524 . S
C1570 H1589 0.913 . S
C1571 H1547 0.950 . S
C1571 C1570 1.524 . S
C1571 C1572 1.415 . S
C1572 H1548 0.950 . S
C1572 C1567 1.363 . S
C1572 C1571 1.415 . S
C1573 H1549 0.951 . S
C1573 C1574 1.366 . S
C1573 C1575 1.388 . S
C1574 C1573 1.366 . S
C1574 C1578 1.385 . S
C1575 H1550 0.951 . S
C1575 C1573 1.388 . S
C1575 C1576 1.366 . S
C1576 C1575 1.366 . S
C1576 C1577 1.414 . S
C1576 C1579 1.499 . S
C1577 H1551 0.950 . S
C1577 C1576 1.414 . S
C1577 C1578 1.374 . S
C1578 H1552 0.950 . S
C1578 C1574 1.385 . S
C1578 C1577 1.374 . S
C1579 C1576 1.499 . S
C1579 C1580 1.373 . S
C1579 C1581 1.389 . S
C1580 H1553 0.950 . S
C1580 C1566 1.377 . S
C1580 C1579 1.373 . S
C1581 C1565 1.377 . S
C1581 C1579 1.389 . S
C1581 C1582 1.524 . S
C1582 C1581 1.524 . S
C1582 C1583 1.397 . S
C1582 C1587 1.363 . S
C1583 H1554 0.950 . S
C1583 C1582 1.397 . S
C1583 C1584 1.334 . S
C1584 H1555 0.950 . S
C1584 C1583 1.334 . S
C1584 C1585 1.287 . S
C1585 C1584 1.287 . S
C1585 C1586 1.524 . S
C1585 H1588 0.999 . S
C1586 H1556 0.950 . S
C1586 C1585 1.524 . S
C1586 C1587 1.415 . S
C1587 H1557 0.950 . S
C1587 C1582 1.363 . S
C1587 C1586 1.415 . S
H1588 C1585 0.999 . S
H1589 C1570 0.913 . S
H1590 C1608 0.951 . S
H1591 C1610 0.951 . S
H1592 C1612 0.950 . S
H1593 C1613 0.950 . S
H1594 C1615 0.950 . S
H1595 C1618 0.950 . S
H1596 C1619 0.950 . S
H1597 C1621 0.950 . S
H1598 C1622 0.950 . S
H1599 C1623 0.951 . S
H1600 C1625 0.951 . S
H1601 C1627 0.950 . S
H1602 C1628 0.950 . S
H1603 C1630 0.950 . S
H1604 C1633 0.950 . S
H1605 C1634 0.950 . S
H1606 C1636 0.950 . S
H1607 C1637 0.950 . S
C1608 H1590 0.951 . S
C1608 C1609 1.366 . S
C1608 C1610 1.388 . S
C1609 C1608 1.366 . S
C1609 C1613 1.385 . S
C1610 H1591 0.951 . S
C1610 C1608 1.388 . S
C1610 C1611 1.366 . S
C1611 C1610 1.366 . S
C1611 C1612 1.414 . S
C1611 C1614 1.499 . S
C1612 H1592 0.950 . S
C1612 C1611 1.414 . S
C1612 C1613 1.374 . S
C1613 H1593 0.950 . S
C1613 C1609 1.385 . S
C1613 C1612 1.374 . S
C1614 C1611 1.499 . S
C1614 C1615 1.373 . S
C1614 C1616 1.389 . S
C1615 H1594 0.950 . S
C1615 C1614 1.373 . S
C1615 C1631 1.377 . S
C1616 C1614 1.389 . S
C1616 C1617 1.524 . S
C1616 C1630 1.377 . S
C1617 C1616 1.524 . S
C1617 C1618 1.397 . S
C1617 C1622 1.363 . S
C1618 H1595 0.950 . S
C1618 C1617 1.397 . S
C1618 C1619 1.334 . S
C1619 H1596 0.950 . S
C1619 C1618 1.334 . S
C1619 C1620 1.287 . S
C1620 C1619 1.287 . S
C1620 C1621 1.524 . S
C1620 H1639 0.913 . S
C1621 H1597 0.950 . S
C1621 C1620 1.524 . S
C1621 C1622 1.415 . S
C1622 H1598 0.950 . S
C1622 C1617 1.363 . S
C1622 C1621 1.415 . S
C1623 H1599 0.951 . S
C1623 C1624 1.366 . S
C1623 C1625 1.388 . S
C1624 C1623 1.366 . S
C1624 C1628 1.385 . S
C1625 H1600 0.951 . S
C1625 C1623 1.388 . S
C1625 C1626 1.366 . S
C1626 C1625 1.366 . S
C1626 C1627 1.414 . S
C1626 C1629 1.499 . S
C1627 H1601 0.950 . S
C1627 C1626 1.414 . S
C1627 C1628 1.374 . S
C1628 H1602 0.950 . S
C1628 C1624 1.385 . S
C1628 C1627 1.374 . S
C1629 C1626 1.499 . S
C1629 C1630 1.373 . S
C1629 C1631 1.389 . S
C1630 H1603 0.950 . S
C1630 C1616 1.377 . S
C1630 C1629 1.373 . S
C1631 C1615 1.377 . S
C1631 C1629 1.389 . S
C1631 C1632 1.524 . S
C1632 C1631 1.524 . S
C1632 C1633 1.397 . S
C1632 C1637 1.363 . S
C1633 H1604 0.950 . S
C1633 C1632 1.397 . S
C1633 C1634 1.334 . S
C1634 H1605 0.950 . S
C1634 C1633 1.334 . S
C1634 C1635 1.287 . S
C1635 C1634 1.287 . S
C1635 C1636 1.524 . S
C1635 H1638 0.999 . S
C1636 H1606 0.950 . S
C1636 C1635 1.524 . S
C1636 C1637 1.415 . S
C1637 H1607 0.950 . S
C1637 C1632 1.363 . S
C1637 C1636 1.415 . S
H1638 C1635 0.999 . S
H1639 C1620 0.913 . S
H1640 C1658 0.951 . S
H1641 C1660 0.951 . S
H1642 C1662 0.950 . S
H1643 C1663 0.950 . S
H1644 C1665 0.950 . S
H1645 C1668 0.950 . S
H1646 C1669 0.950 . S
H1647 C1671 0.950 . S
H1648 C1672 0.950 . S
H1649 C1673 0.951 1_455 S
H1650 C1675 0.951 . S
H1651 C1677 0.950 . S
H1652 C1678 0.950 . S
H1653 C1680 0.950 . S
H1654 C1683 0.950 . S
H1655 C1684 0.950 . S
H1656 C1686 0.950 . S
H1657 C1687 0.950 . S
C1658 H1640 0.951 . S
C1658 C1659 1.366 . S
C1658 C1660 1.388 . S
C1659 C1658 1.366 . S
C1659 C1663 1.385 . S
C1660 H1641 0.951 . S
C1660 C1658 1.388 . S
C1660 C1661 1.366 . S
C1661 C1660 1.366 . S
C1661 C1662 1.414 . S
C1661 C1664 1.499 . S
C1662 H1642 0.950 . S
C1662 C1661 1.414 . S
C1662 C1663 1.374 . S
C1663 H1643 0.950 . S
C1663 C1659 1.385 . S
C1663 C1662 1.374 . S
C1664 C1661 1.499 . S
C1664 C1665 1.373 . S
C1664 C1666 1.389 . S
C1665 H1644 0.950 . S
C1665 C1664 1.373 . S
C1665 C1681 1.377 . S
C1666 C1664 1.389 . S
C1666 C1667 1.524 . S
C1666 C1680 1.377 . S
C1667 C1666 1.524 . S
C1667 C1668 1.397 1_655 S
C1667 C1672 1.363 . S
C1668 H1645 0.950 . S
C1668 C1667 1.397 1_455 S
C1668 C1669 1.334 . S
C1669 H1646 0.950 . S
C1669 C1668 1.334 . S
C1669 C1670 1.287 . S
C1670 C1669 1.287 . S
C1670 C1671 1.524 1_455 S
C1670 H1689 0.913 . S
C1671 H1647 0.950 . S
C1671 C1670 1.524 1_655 S
C1671 C1672 1.415 . S
C1672 H1648 0.950 . S
C1672 C1667 1.363 . S
C1672 C1671 1.415 . S
C1673 H1649 0.951 1_655 S
C1673 C1674 1.366 . S
C1673 C1675 1.388 . S
C1674 C1673 1.366 . S
C1674 C1678 1.385 . S
C1675 H1650 0.951 . S
C1675 C1673 1.388 . S
C1675 C1676 1.366 . S
C1676 C1675 1.366 . S
C1676 C1677 1.414 . S
C1676 C1679 1.499 . S
C1677 H1651 0.950 . S
C1677 C1676 1.414 . S
C1677 C1678 1.374 . S
C1678 H1652 0.950 . S
C1678 C1674 1.385 . S
C1678 C1677 1.374 . S
C1679 C1676 1.499 . S
C1679 C1680 1.373 . S
C1679 C1681 1.389 . S
C1680 H1653 0.950 . S
C1680 C1666 1.377 . S
C1680 C1679 1.373 . S
C1681 C1665 1.377 . S
C1681 C1679 1.389 . S
C1681 C1682 1.524 . S
C1682 C1681 1.524 . S
C1682 C1683 1.397 . S
C1682 C1687 1.363 . S
C1683 H1654 0.950 . S
C1683 C1682 1.397 . S
C1683 C1684 1.334 . S
C1684 H1655 0.950 . S
C1684 C1683 1.334 . S
C1684 C1685 1.287 . S
C1685 C1684 1.287 . S
C1685 C1686 1.524 . S
C1685 H1688 0.999 . S
C1686 H1656 0.950 . S
C1686 C1685 1.524 . S
C1686 C1687 1.415 . S
C1687 H1657 0.950 . S
C1687 C1682 1.363 . S
C1687 C1686 1.415 . S
H1688 C1685 0.999 . S
H1689 C1670 0.913 . S
H1690 C1708 0.951 . S
H1691 C1710 0.951 . S
H1692 C1712 0.950 . S
H1693 C1713 0.950 . S
H1694 C1715 0.950 . S
H1695 C1718 0.950 . S
H1696 C1719 0.950 . S
H1697 C1721 0.950 . S
H1698 C1722 0.950 . S
H1699 C1723 0.951 1_545 S
H1700 C1725 0.951 . S
H1701 C1727 0.950 . S
H1702 C1728 0.950 . S
H1703 C1730 0.950 . S
H1704 C1733 0.950 . S
H1705 C1734 0.950 . S
H1706 C1736 0.950 . S
H1707 C1737 0.950 . S
C1708 H1690 0.951 . S
C1708 C1709 1.366 . S
C1708 C1710 1.388 . S
C1709 C1708 1.366 . S
C1709 C1713 1.385 . S
C1710 H1691 0.951 . S
C1710 C1708 1.388 . S
C1710 C1711 1.366 . S
C1711 C1710 1.366 . S
C1711 C1712 1.414 . S
C1711 C1714 1.499 . S
C1712 H1692 0.950 . S
C1712 C1711 1.414 . S
C1712 C1713 1.374 . S
C1713 H1693 0.950 . S
C1713 C1709 1.385 . S
C1713 C1712 1.374 . S
C1714 C1711 1.499 . S
C1714 C1715 1.373 . S
C1714 C1716 1.389 . S
C1715 H1694 0.950 . S
C1715 C1714 1.373 . S
C1715 C1731 1.377 . S
C1716 C1714 1.389 . S
C1716 C1717 1.524 . S
C1716 C1730 1.377 . S
C1717 C1716 1.524 . S
C1717 C1718 1.397 . S
C1717 C1722 1.363 . S
C1718 H1695 0.950 . S
C1718 C1717 1.397 . S
C1718 C1719 1.334 . S
C1719 H1696 0.950 . S
C1719 C1718 1.334 . S
C1719 C1720 1.287 . S
C1720 C1719 1.287 . S
C1720 C1721 1.524 . S
C1720 H1739 0.913 . S
C1721 H1697 0.950 . S
C1721 C1720 1.524 . S
C1721 C1722 1.415 . S
C1722 H1698 0.950 . S
C1722 C1717 1.363 . S
C1722 C1721 1.415 . S
C1723 H1699 0.951 1_565 S
C1723 C1724 1.366 . S
C1723 C1725 1.388 . S
C1724 C1723 1.366 . S
C1724 C1728 1.385 . S
C1725 H1700 0.951 . S
C1725 C1723 1.388 . S
C1725 C1726 1.366 . S
C1726 C1725 1.366 . S
C1726 C1727 1.414 . S
C1726 C1729 1.499 . S
C1727 H1701 0.950 . S
C1727 C1726 1.414 . S
C1727 C1728 1.374 . S
C1728 H1702 0.950 . S
C1728 C1724 1.385 . S
C1728 C1727 1.374 . S
C1729 C1726 1.499 . S
C1729 C1730 1.373 . S
C1729 C1731 1.389 . S
C1730 H1703 0.950 . S
C1730 C1716 1.377 . S
C1730 C1729 1.373 . S
C1731 C1715 1.377 . S
C1731 C1729 1.389 . S
C1731 C1732 1.524 . S
C1732 C1731 1.524 . S
C1732 C1733 1.397 . S
C1732 C1737 1.363 . S
C1733 H1704 0.950 . S
C1733 C1732 1.397 . S
C1733 C1734 1.334 . S
C1734 H1705 0.950 . S
C1734 C1733 1.334 . S
C1734 C1735 1.287 . S
C1735 C1734 1.287 . S
C1735 C1736 1.524 . S
C1735 H1738 0.999 . S
C1736 H1706 0.950 . S
C1736 C1735 1.524 . S
C1736 C1737 1.415 . S
C1737 H1707 0.950 . S
C1737 C1732 1.363 . S
C1737 C1736 1.415 . S
H1738 C1735 0.999 . S
H1739 C1720 0.913 . S
H1740 C1758 0.951 . S
H1741 C1760 0.951 . S
H1742 C1762 0.950 . S
H1743 C1763 0.950 . S
H1744 C1765 0.950 . S
H1745 C1768 0.950 . S
H1746 C1769 0.950 . S
H1747 C1771 0.950 . S
H1748 C1772 0.950 . S
H1749 C1773 0.951 . S
H1750 C1775 0.951 . S
H1751 C1777 0.950 . S
H1752 C1778 0.950 . S
H1753 C1780 0.950 . S
H1754 C1783 0.950 . S
H1755 C1784 0.950 . S
H1756 C1786 0.950 . S
H1757 C1787 0.950 . S
C1758 H1740 0.951 . S
C1758 C1759 1.366 . S
C1758 C1760 1.388 . S
C1759 C1758 1.366 . S
C1759 C1763 1.385 . S
C1760 H1741 0.951 . S
C1760 C1758 1.388 . S
C1760 C1761 1.366 . S
C1761 C1760 1.366 . S
C1761 C1762 1.414 . S
C1761 C1764 1.499 . S
C1762 H1742 0.950 . S
C1762 C1761 1.414 . S
C1762 C1763 1.374 . S
C1763 H1743 0.950 . S
C1763 C1759 1.385 . S
C1763 C1762 1.374 . S
C1764 C1761 1.499 . S
C1764 C1765 1.373 . S
C1764 C1766 1.389 . S
C1765 H1744 0.950 . S
C1765 C1764 1.373 . S
C1765 C1781 1.377 . S
C1766 C1764 1.389 . S
C1766 C1767 1.524 . S
C1766 C1780 1.377 . S
C1767 C1766 1.524 . S
C1767 C1768 1.397 . S
C1767 C1772 1.363 . S
C1768 H1745 0.950 . S
C1768 C1767 1.397 . S
C1768 C1769 1.334 . S
C1769 H1746 0.950 . S
C1769 C1768 1.334 . S
C1769 C1770 1.287 . S
C1770 C1769 1.287 . S
C1770 C1771 1.524 . S
C1770 H1789 0.913 . S
C1771 H1747 0.950 . S
C1771 C1770 1.524 . S
C1771 C1772 1.415 . S
C1772 H1748 0.950 . S
C1772 C1767 1.363 . S
C1772 C1771 1.415 . S
C1773 H1749 0.951 . S
C1773 C1774 1.366 . S
C1773 C1775 1.388 . S
C1774 C1773 1.366 . S
C1774 C1778 1.385 . S
C1775 H1750 0.951 . S
C1775 C1773 1.388 . S
C1775 C1776 1.366 . S
C1776 C1775 1.366 . S
C1776 C1777 1.414 . S
C1776 C1779 1.499 . S
C1777 H1751 0.950 . S
C1777 C1776 1.414 . S
C1777 C1778 1.374 . S
C1778 H1752 0.950 . S
C1778 C1774 1.385 . S
C1778 C1777 1.374 . S
C1779 C1776 1.499 . S
C1779 C1780 1.373 . S
C1779 C1781 1.389 . S
C1780 H1753 0.950 . S
C1780 C1766 1.377 . S
C1780 C1779 1.373 . S
C1781 C1765 1.377 . S
C1781 C1779 1.389 . S
C1781 C1782 1.524 . S
C1782 C1781 1.524 . S
C1782 C1783 1.397 . S
C1782 C1787 1.363 . S
C1783 H1754 0.950 . S
C1783 C1782 1.397 . S
C1783 C1784 1.334 . S
C1784 H1755 0.950 . S
C1784 C1783 1.334 . S
C1784 C1785 1.287 . S
C1785 C1784 1.287 . S
C1785 C1786 1.524 . S
C1785 H1788 0.999 . S
C1786 H1756 0.950 . S
C1786 C1785 1.524 . S
C1786 C1787 1.415 . S
C1787 H1757 0.950 . S
C1787 C1782 1.363 . S
C1787 C1786 1.415 . S
H1788 C1785 0.999 . S
H1789 C1770 0.913 . S
H1790 C1808 0.951 . S
H1791 C1810 0.951 . S
H1792 C1812 0.950 . S
H1793 C1813 0.950 . S
H1794 C1815 0.950 . S
H1795 C1818 0.950 . S
H1796 C1819 0.950 . S
H1797 C1821 0.950 . S
H1798 C1822 0.950 . S
H1799 C1823 0.951 . S
H1800 C1825 0.951 . S
H1801 C1827 0.950 . S
H1802 C1828 0.950 . S
H1803 C1830 0.950 . S
H1804 C1833 0.950 . S
H1805 C1834 0.950 . S
H1806 C1836 0.950 . S
H1807 C1837 0.950 . S
C1808 H1790 0.951 . S
C1808 C1809 1.366 . S
C1808 C1810 1.388 . S
C1809 C1808 1.366 . S
C1809 C1813 1.385 . S
C1810 H1791 0.951 . S
C1810 C1808 1.388 . S
C1810 C1811 1.366 . S
C1811 C1810 1.366 . S
C1811 C1812 1.414 . S
C1811 C1814 1.499 . S
C1812 H1792 0.950 . S
C1812 C1811 1.414 . S
C1812 C1813 1.374 . S
C1813 H1793 0.950 . S
C1813 C1809 1.385 . S
C1813 C1812 1.374 . S
C1814 C1811 1.499 . S
C1814 C1815 1.373 . S
C1814 C1816 1.389 . S
C1815 H1794 0.950 . S
C1815 C1814 1.373 . S
C1815 C1831 1.377 . S
C1816 C1814 1.389 . S
C1816 C1817 1.524 . S
C1816 C1830 1.377 . S
C1817 C1816 1.524 . S
C1817 C1818 1.397 . S
C1817 C1822 1.363 . S
C1818 H1795 0.950 . S
C1818 C1817 1.397 . S
C1818 C1819 1.334 . S
C1819 H1796 0.950 . S
C1819 C1818 1.334 . S
C1819 C1820 1.287 . S
C1820 C1819 1.287 . S
C1820 C1821 1.524 . S
C1820 H1839 0.913 . S
C1821 H1797 0.950 . S
C1821 C1820 1.524 . S
C1821 C1822 1.415 . S
C1822 H1798 0.950 . S
C1822 C1817 1.363 . S
C1822 C1821 1.415 . S
C1823 H1799 0.951 . S
C1823 C1824 1.366 . S
C1823 C1825 1.388 . S
C1824 C1823 1.366 . S
C1824 C1828 1.385 . S
C1825 H1800 0.951 . S
C1825 C1823 1.388 . S
C1825 C1826 1.366 . S
C1826 C1825 1.366 . S
C1826 C1827 1.414 . S
C1826 C1829 1.499 . S
C1827 H1801 0.950 . S
C1827 C1826 1.414 . S
C1827 C1828 1.374 . S
C1828 H1802 0.950 . S
C1828 C1824 1.385 . S
C1828 C1827 1.374 . S
C1829 C1826 1.499 . S
C1829 C1830 1.373 . S
C1829 C1831 1.389 . S
C1830 H1803 0.950 . S
C1830 C1816 1.377 . S
C1830 C1829 1.373 . S
C1831 C1815 1.377 . S
C1831 C1829 1.389 . S
C1831 C1832 1.524 . S
C1832 C1831 1.524 . S
C1832 C1833 1.397 . S
C1832 C1837 1.363 . S
C1833 H1804 0.950 . S
C1833 C1832 1.397 . S
C1833 C1834 1.334 . S
C1834 H1805 0.950 . S
C1834 C1833 1.334 . S
C1834 C1835 1.287 . S
C1835 C1834 1.287 . S
C1835 C1836 1.524 . S
C1835 H1838 0.999 . S
C1836 H1806 0.950 . S
C1836 C1835 1.524 . S
C1836 C1837 1.415 . S
C1837 H1807 0.950 . S
C1837 C1832 1.363 . S
C1837 C1836 1.415 . S
H1838 C1835 0.999 . S
H1839 C1820 0.913 . S
C659 C391 2.713 . S
C674 C511 2.750 . S
C724 C537 1.990 . S
C709 C451 1.916 . S
C774 C577 2.107 . S
C759 C241 1.820 . S
C824 C631 2.684 . S
C809 C331 2.382 . S
C874 C492 2.750 . S
C859 C121 2.451 . S
C909 C211 1.955 . S
C924 C522 1.989 . S
C959 C31 2.020 . S
C974 C562 2.107 . S
C1009 C91 2.420 . S
C1024 C612 2.684 1_655 S
C1074 C488 0.287 1_655 S
C1059 C301 0.633 . S
C1124 C549 0.463 . S
C1109 C380 0.449 . S
C1174 C589 0.255 . S
C1159 C440 0.261 . S
C1209 C260 0.790 . S
C1224 C608 0.387 . S
C1259 C61 0.486 . S
C1274 C509 0.287 . S
C1324 C528 0.464 . S
C1309 C140 0.467 . S
C1374 C568 0.254 . S
C1359 C200 0.201 . S
C1409 C20 0.607 . S
C1424 C629 0.385 . S
C1459 C320 2.355 . S
C1474 C482 2.518 . S
C1509 C361 2.875 . S
C1524 C532 3.331 . S
C1574 C572 2.994 . S
C1559 C421 2.528 . S
C1624 C602 2.262 . S
C1609 C271 2.117 . S
C1659 C80 2.386 . S
C1674 C497 2.518 . S
C1724 C551 3.331 . S
C1709 C151 3.199 . S
C1774 C591 2.994 . S
C1759 C181 2.583 . S
C1809 C1 1.840 . S
C1824 C617 2.262 . S
