# Generated by pormake.
# Topology anh, (6,3)-cn, num edge types: 1
# Building blocks:
#     Node 0, Type 0, BuildingBlock: BETFAJ_clean_sbu_0, # of connection points: 6
#     Node 1, Type 0, BuildingBlock: BETFAJ_clean_sbu_0, # of connection points: 6
#     Node 2, Type 0, BuildingBlock: BETFAJ_clean_sbu_0, # of connection points: 6
#     Node 3, Type 1, BuildingBlock: PAMTOO_clean_linker_0, # of connection points: 3
#     Node 4, Type 1, BuildingBlock: PAMTOO_clean_linker_0, # of connection points: 3
#     Node 5, Type 1, BuildingBlock: PAMTOO_clean_linker_0, # of connection points: 3
#     Node 6, Type 1, BuildingBlock: PAMTOO_clean_linker_0, # of connection points: 3
#     Node 7, Type 1, BuildingBlock: PAMTOO_clean_linker_0, # of connection points: 3
#     Node 8, Type 1, BuildingBlock: PAMTOO_clean_linker_0, # of connection points: 3
#     Edge 9, Type (0, 1), BuildingBlock: KIFKEQ_clean_linker_1, # of connection points: 2
#     Edge 10, Type (0, 1), BuildingBlock: KIFKEQ_clean_linker_1, # of connection points: 2
#     Edge 11, Type (0, 1), BuildingBlock: KIFKEQ_clean_linker_1, # of connection points: 2
#     Edge 12, Type (0, 1), BuildingBlock: KIFKEQ_clean_linker_1, # of connection points: 2
#     Edge 13, Type (0, 1), BuildingBlock: KIFKEQ_clean_linker_1, # of connection points: 2
#     Edge 14, Type (0, 1), BuildingBlock: KIFKEQ_clean_linker_1, # of connection points: 2
#     Edge 15, Type (0, 1), BuildingBlock: KIFKEQ_clean_linker_1, # of connection points: 2
#     Edge 16, Type (0, 1), BuildingBlock: KIFKEQ_clean_linker_1, # of connection points: 2
#     Edge 17, Type (0, 1), BuildingBlock: KIFKEQ_clean_linker_1, # of connection points: 2
#     Edge 18, Type (0, 1), BuildingBlock: KIFKEQ_clean_linker_1, # of connection points: 2
#     Edge 19, Type (0, 1), BuildingBlock: KIFKEQ_clean_linker_1, # of connection points: 2
#     Edge 20, Type (0, 1), BuildingBlock: KIFKEQ_clean_linker_1, # of connection points: 2
#     Edge 21, Type (0, 1), BuildingBlock: KIFKEQ_clean_linker_1, # of connection points: 2
#     Edge 22, Type (0, 1), BuildingBlock: KIFKEQ_clean_linker_1, # of connection points: 2
#     Edge 23, Type (0, 1), BuildingBlock: KIFKEQ_clean_linker_1, # of connection points: 2
#     Edge 24, Type (0, 1), BuildingBlock: KIFKEQ_clean_linker_1, # of connection points: 2
#     Edge 25, Type (0, 1), BuildingBlock: KIFKEQ_clean_linker_1, # of connection points: 2
#     Edge 26, Type (0, 1), BuildingBlock: KIFKEQ_clean_linker_1, # of connection points: 2
# Relax obj value: 0.163
# Max RMSD: 0.183
# Mean RMSD: 0.124
data_MOF--net-anh--node1-BETFAJ_clean_sbu_0--node2-PAMTOO_clean_linker_0--edge1-KIFKEQ_clean_linker_1
_symmetry_space_group_name_H-M    P1
_symmetry_Int_Tables_number       1
_symmetry_cell_setting            triclinic
loop_
_symmetry_equiv_pos_as_xyz
'x, y, z'
_cell_length_a     30.675216
_cell_length_b     38.72375
_cell_length_c     50.359612
_cell_angle_alpha  89.221525
_cell_angle_beta   91.14106
_cell_angle_gamma 130.65552
loop_
_atom_site_label
_atom_site_type_symbol
_atom_site_fract_x
_atom_site_fract_y
_atom_site_fract_z
_atom_type_partial_charge
Sm0 Sm 0.15015 0.49669 0.14547 0.0
Sm1 Sm 1.07816 0.52158 0.14893 0.0
C2 C 0.22392 0.48963 0.12969 0.0
C3 C 0.28261 0.51813 0.14079 0.0
C4 C 0.32573 0.56256 0.13114 0.0
C5 C 0.38026 0.59085 0.14298 0.0
C6 C 0.39323 0.57483 0.16423 0.0
C7 C 0.34805 0.53207 0.17543 0.0
C8 C 0.2938 0.50394 0.16364 0.0
C9 C 0.13277 0.49588 0.19907 0.0
C10 C 0.2164 0.60428 0.15245 0.0
C11 C 1.0203 0.54597 0.16234 0.0
C12 C 0.9609 0.5129 0.17064 0.0
C13 C 0.94422 0.4777 0.18838 0.0
C14 C 0.88681 0.43801 0.18977 0.0
C15 C 0.84625 0.43286 0.17293 0.0
C16 C 0.86302 0.4687 0.15589 0.0
C17 C 0.91959 0.50865 0.15508 0.0
C18 C 1.09086 0.50575 0.09782 0.0
C19 C 1.01361 0.41558 0.14852 0.0
O20 O 0.21235 0.51155 0.11577 0.0
O21 O 0.1826 0.45958 0.14588 0.0
O22 O 0.11298 0.50519 0.18093 0.0
O23 O 0.16148 0.4855 0.18922 0.0
O24 O 0.22267 0.57367 0.15341 0.0
O25 O 0.16565 0.59236 0.14913 0.0
O26 O 1.0583 0.55141 0.17845 0.0
O27 O 1.02727 0.54138 0.13749 0.0
O28 O 0.13032 0.52825 0.11519 0.0
O29 O 1.04198 0.49017 0.10739 0.0
O30 O 1.01319 0.44579 0.15987 0.0
O31 O 1.05961 0.42842 0.13614 0.0
H32 H 0.31774 0.57533 0.11416 0.0
H33 H 0.4135 0.6238 0.13414 0.0
H34 H 0.35525 0.51805 0.19193 0.0
H35 H 0.26093 0.47066 0.17225 0.0
H36 H 0.97575 0.47975 0.20018 0.0
H37 H 0.87433 0.41119 0.20346 0.0
H38 H 0.83225 0.46573 0.14299 0.0
H39 H 0.93175 0.53479 0.14085 0.0
Sm40 Sm 0.7149 0.02405 0.47667 0.0
Sm41 Sm 0.64177 0.04731 0.468 0.0
C42 C 0.75456 0.9833 0.49156 0.0
C43 C 0.73112 0.93566 0.49082 0.0
C44 C 0.70259 0.90719 0.51296 0.0
C45 C 0.68344 0.86319 0.5131 0.0
C46 C 0.69286 0.84676 0.49121 0.0
C47 C 0.71858 0.87419 0.46849 0.0
C48 C 0.73772 0.91832 0.46831 0.0
C49 C 0.69944 0.03374 0.42393 0.0
C50 C 0.57414 0.94204 0.47029 0.0
C51 C 0.60213 0.08802 0.45329 0.0
C52 C 0.62446 0.13486 0.45643 0.0
C53 C 0.63047 0.1593 0.43394 0.0
C54 C 0.64935 0.20304 0.43658 0.0
C55 C 0.66243 0.22302 0.46179 0.0
C56 C 0.65976 0.19965 0.48415 0.0
C57 C 0.64098 0.15591 0.4815 0.0
C58 C 0.6549 0.03563 0.52054 0.0
C59 C 0.7829 0.12935 0.47238 0.0
O60 O 0.73031 0.99211 0.50794 0.0
O61 O 0.76724 1.00444 0.46883 0.0
O62 O 0.66064 1.01329 0.44107 0.0
O63 O 0.74819 0.04868 0.43406 0.0
O64 O 0.62191 0.95547 0.48198 0.0
O65 O 0.57238 0.97173 0.45859 0.0
O66 O 0.63116 0.0833 0.43746 0.0
O67 O 0.58523 0.06315 0.47478 0.0
O68 O 0.69519 0.05774 0.50402 0.0
O69 O 0.60628 0.01962 0.5097 0.0
O70 O 0.73393 0.11513 0.4619 0.0
O71 O 0.78653 0.10063 0.48401 0.0
H72 H 0.69627 0.91925 0.53052 0.0
H73 H 0.66302 0.84252 0.53076 0.0
H74 H 0.7267 0.8625 0.4514 0.0
H75 H 0.75913 0.93924 0.45083 0.0
H76 H 0.61931 0.14412 0.41437 0.0
H77 H 0.65177 0.22066 0.41901 0.0
H78 H 0.66921 0.21416 0.50384 0.0
H79 H 0.63804 0.13822 0.49915 0.0
Sm80 Sm 0.75352 0.62444 0.82049 0.0
Sm81 Sm 0.67068 0.52328 0.82346 0.0
C82 C 0.80287 0.70998 0.81052 0.0
C83 C 0.78133 0.73471 0.80985 0.0
C84 C 0.73187 0.7183 0.79499 0.0
C85 C 0.71234 0.74231 0.79441 0.0
C86 C 0.74163 0.78309 0.80874 0.0
C87 C 0.7896 0.79837 0.8245 0.0
C88 C 0.80931 0.77442 0.82498 0.0
C89 C 0.73335 0.5899 0.87063 0.0
C90 C 0.61259 0.56814 0.82566 0.0
C91 C 0.62098 0.43791 0.83433 0.0
C92 C 0.63808 0.41016 0.83133 0.0
C93 C 0.6582 0.40137 0.85346 0.0
C94 C 0.67414 0.37501 0.8509 0.0
C95 C 0.66961 0.35629 0.82619 0.0
C96 C 0.65054 0.36592 0.80396 0.0
C97 C 0.63509 0.39258 0.80648 0.0
C98 C 0.68888 0.55701 0.77296 0.0
C99 C 0.81268 0.57979 0.82285 0.0
O100 O 0.7844 0.67992 0.79176 0.0
O101 O 0.80466 0.69595 0.83392 0.0
O102 O 0.6959 0.57591 0.85288 0.0
O103 O 0.78425 0.6248 0.86273 0.0
O104 O 0.66263 0.60422 0.81594 0.0
O105 O 0.60613 0.53263 0.83418 0.0
O106 O 0.64987 0.47044 0.85203 0.0
O107 O 0.60994 0.45007 0.81258 0.0
O108 O 0.72802 0.5717 0.79012 0.0
O109 O 0.63873 0.52265 0.78184 0.0
O110 O 0.7599 0.54204 0.82833 0.0
O111 O 0.82236 0.61737 0.81596 0.0
H112 H 0.70853 0.68716 0.78359 0.0
H113 H 0.67476 0.72934 0.78238 0.0
H114 H 0.81333 0.82982 0.8356 0.0
H115 H 0.84695 0.78727 0.83692 0.0
H116 H 0.66136 0.41469 0.87285 0.0
H117 H 0.68952 0.369 0.86838 0.0
H118 H 0.64558 0.3516 0.78468 0.0
H119 H 0.62003 0.39881 0.78896 0.0
H120 H 0.71137 0.10735 0.22871 0.0
H121 H 0.58043 0.9627 0.21834 0.0
H122 H 0.66005 0.04981 0.15 0.0
H123 H 0.52856 0.96165 0.14025 0.0
C124 C 0.52678 0.94593 0.1593 0.0
O125 O 0.58206 0.96504 0.16665 0.0
H126 H 0.50735 0.95289 0.17443 0.0
C127 C 0.68425 0.07808 0.2157 0.0
C128 C 0.6913 0.08416 0.18806 0.0
C129 C 0.64469 0.03458 0.22684 0.0
C130 C 0.61081 0.99663 0.21005 0.0
C131 C 0.6154 1.00219 0.18242 0.0
C132 C 0.65549 0.04594 0.17136 0.0
H133 H 0.67657 0.61128 0.56992 0.0
H134 H 0.6944 0.5094 0.56944 0.0
H135 H 0.67915 0.55849 0.49616 0.0
H136 H 0.6202 0.46394 0.49149 0.0
C137 C 0.63712 0.45926 0.50963 0.0
O138 O 0.68686 0.50098 0.51807 0.0
H139 H 0.60405 0.44357 0.52539 0.0
C140 C 0.67958 0.58863 0.55949 0.0
C141 C 0.67738 0.58809 0.53165 0.0
C142 C 0.68614 0.56067 0.57371 0.0
C143 C 0.68869 0.53109 0.55933 0.0
C144 C 0.68531 0.52997 0.53154 0.0
C145 C 0.68036 0.5588 0.51769 0.0
H146 H 1.09228 0.55423 0.89621 0.0
H147 H 0.24143 0.5653 0.89863 0.0
H148 H 0.18232 0.57918 0.82423 0.0
H149 H 0.23428 0.52622 0.82301 0.0
C150 C 0.25936 0.54219 0.84179 0.0
O151 O 0.26101 0.57799 0.84801 0.0
H152 H 0.23598 0.51543 0.85743 0.0
C153 C 0.12731 0.5597 0.88619 0.0
C154 C 0.13263 0.56748 0.85872 0.0
C155 C 0.16614 0.55897 0.90091 0.0
C156 C 0.21066 0.56517 0.88758 0.0
C157 C 0.2165 0.57164 0.85995 0.0
C158 C 0.1775 0.57325 0.84546 0.0
H159 H 1.06158 0.43706 0.39983 0.0
H160 H 0.21047 0.57926 0.40469 0.0
H161 H 0.13921 0.49877 0.47602 0.0
H162 H 0.1957 0.59875 0.48642 0.0
C163 C 0.21438 0.6102 0.46625 0.0
O164 O 0.22077 0.58059 0.45649 0.0
H165 H 0.18419 0.61013 0.45351 0.0
C166 C 1.09394 0.46683 0.41173 0.0
C167 C 1.09459 0.46285 0.43948 0.0
C168 C 0.13544 0.50851 0.39906 0.0
C169 C 0.17785 0.54691 0.41431 0.0
C170 C 0.17912 0.54343 0.44204 0.0
C171 C 0.13786 0.50131 0.45461 0.0
H172 H 0.69094 0.9871 0.72032 0.0
H173 H 0.68295 0.09342 0.72667 0.0
H174 H 0.69852 0.03834 0.79726 0.0
H175 H 0.62694 0.06577 0.80444 0.0
C176 C 0.64484 0.09039 0.78767 0.0
O177 O 0.69308 0.09885 0.77854 0.0
H178 H 0.6117 0.0754 0.77156 0.0
C179 C 0.69077 1.0099 0.73251 0.0
C180 C 0.69516 1.00884 0.76029 0.0
C181 C 0.6861 0.04003 0.72022 0.0
C182 C 0.68549 0.06933 0.73592 0.0
C183 C 0.68993 0.06858 0.76365 0.0
C184 C 0.6941 0.03806 0.77584 0.0
H185 H 0.69332 0.50217 0.07315 0.0
H186 H 0.5314 0.46103 0.04742 0.0
H187 H 0.57287 0.47521 0.13032 0.0
H188 H 0.47688 0.3926 0.11861 0.0
C189 C 0.45533 0.40582 0.11183 0.0
O190 O 0.49008 0.44377 0.09555 0.0
H191 H 0.41573 0.37805 0.10068 0.0
C192 C 0.65334 0.49401 0.07819 0.0
C193 C 0.63467 0.48515 0.10459 0.0
C194 C 0.61739 0.48782 0.05764 0.0
C195 C 0.56127 0.46937 0.06328 0.0
C196 C 0.54469 0.46369 0.08966 0.0
C197 C 0.58459 0.47752 0.11001 0.0
H198 H 0.4497 0.58173 0.21087 0.0
H199 H 0.47801 0.61073 0.12723 0.0
H200 H 0.4714 0.53159 0.20701 0.0
H201 H 0.50126 0.56239 0.12337 0.0
H202 H 0.37335 0.41265 0.11347 0.0
H203 H 0.39072 0.47655 0.13496 0.0
H204 H 0.5275 0.50129 0.18223 0.0
H205 H 0.50687 0.43451 0.16195 0.0
C206 C 0.46487 0.5803 0.19202 0.0
C207 C 0.45318 0.59342 0.16856 0.0
C208 C 0.47656 0.55103 0.18983 0.0
C209 C 0.48345 0.54076 0.16453 0.0
C210 C 0.49315 0.56828 0.14295 0.0
C211 C 0.48038 0.5966 0.14536 0.0
C212 C 0.4046 0.42983 0.12961 0.0
C213 C 0.44122 0.42077 0.13494 0.0
C214 C 0.41562 0.46708 0.14141 0.0
C215 C 0.46298 0.49518 0.1588 0.0
C216 C 0.49232 0.48092 0.16803 0.0
C217 C 0.48031 0.4428 0.1565 0.0
H218 H 0.87278 0.18488 0.50795 0.0
H219 H 0.80599 0.18425 0.43157 0.0
H220 H 0.94877 0.26818 0.50515 0.0
H221 H 0.88198 0.26585 0.42814 0.0
H222 H 0.97946 0.41133 0.43493 0.0
H223 H 0.9056 0.33161 0.44681 0.0
H224 H 1.0352 0.33173 0.48229 0.0
H225 H 0.10911 0.41275 0.47121 0.0
C226 C 0.87502 0.20248 0.49042 0.0
C227 C 0.83331 0.17832 0.47009 0.0
C228 C 0.91833 0.25009 0.48881 0.0
C229 C 0.92073 0.27403 0.46672 0.0
C230 C 0.88039 0.24906 0.44594 0.0
C231 C 0.83706 0.20207 0.44774 0.0
C232 C 0.9919 0.39453 0.44581 0.0
C233 C 1.04989 0.41784 0.45182 0.0
C234 C 0.94975 0.3487 0.45238 0.0
C235 C 0.96461 0.32466 0.46466 0.0
C236 C 1.02222 0.349 0.47265 0.0
C237 C 1.06456 0.39536 0.46634 0.0
H238 H 0.71501 0.80226 0.7623 0.0
H239 H 0.73443 0.83005 0.8465 0.0
H240 H 0.70144 0.85674 0.7545 0.0
H241 H 0.72163 0.88577 0.83842 0.0
H242 H 0.63869 0.95001 0.8025 0.0
H243 H 0.64573 0.89305 0.8178 0.0
H244 H 0.77824 0.9436 0.76046 0.0
H245 H 0.77156 0.99996 0.74544 0.0
C246 C 0.71521 0.81931 0.77924 0.0
C247 C 0.72612 0.81202 0.80499 0.0
C248 C 0.708 0.85085 0.77472 0.0
C249 C 0.71145 0.87589 0.79582 0.0
C250 C 0.71904 0.86695 0.82184 0.0
C251 C 0.72672 0.8354 0.82639 0.0
C252 C 0.6699 0.94925 0.79358 0.0
C253 C 0.70371 0.97858 0.77239 0.0
C254 C 0.67386 0.91678 0.80229 0.0
C255 C 0.71158 0.91343 0.78983 0.0
C256 C 0.74781 0.94479 0.76992 0.0
C257 C 0.74396 0.97698 0.76132 0.0
H258 H 0.77275 0.36756 0.13597 0.0
H259 H 0.77946 0.41299 0.21459 0.0
H260 H 0.69933 0.37157 0.12311 0.0
H261 H 0.70603 0.41709 0.20196 0.0
H262 H 0.57211 0.41803 0.14222 0.0
H263 H 0.59927 0.37935 0.1655 0.0
H264 H 0.7696 0.47533 0.13362 0.0
H265 H 0.74456 0.5164 0.11134 0.0
C266 C 0.75467 0.37422 0.15125 0.0
C267 C 0.78467 0.39425 0.17534 0.0
C268 C 0.71348 0.37743 0.1437 0.0
C269 C 0.69997 0.39693 0.1613 0.0
C270 C 0.71724 0.40303 0.18798 0.0
C271 C 0.75857 0.39986 0.19532 0.0
C272 C 0.61629 0.43248 0.14086 0.0
C273 C 0.65604 0.4703 0.12432 0.0
C274 C 0.6311 0.40947 0.15392 0.0
C275 C 0.68538 0.42345 0.15038 0.0
C276 C 0.72672 0.46323 0.13589 0.0
C277 C 0.71242 0.48684 0.12319 0.0
H278 H 0.55188 0.8751 0.50251 0.0
H279 H 0.48163 0.89815 0.43641 0.0
H280 H 0.46832 0.7939 0.50112 0.0
H281 H 0.39793 0.817 0.43509 0.0
H282 H 0.28051 0.66363 0.4242 0.0
H283 H 0.37017 0.74308 0.42474 0.0
H284 H 0.36535 0.74349 0.51043 0.0
H285 H 0.27651 0.66399 0.50974 0.0
C286 C 0.51857 0.86279 0.48767 0.0
C287 C 0.52313 0.893 0.46964 0.0
C288 C 0.47061 0.81631 0.48695 0.0
C289 C 0.42648 0.79895 0.46798 0.0
C290 C 0.43144 0.82919 0.44978 0.0
C291 C 0.47909 0.87575 0.45069 0.0
C292 C 0.29911 0.68078 0.44309 0.0
C293 C 0.27158 0.65795 0.4669 0.0
C294 C 0.35011 0.72623 0.44343 0.0
C295 C 0.3746 0.74974 0.46762 0.0
C296 C 0.34788 0.72631 0.49148 0.0
C297 C 0.29688 0.68088 0.49111 0.0
H298 H 0.64499 0.2923 0.86234 0.0
H299 H 0.71811 0.34671 0.78478 0.0
H300 H 0.65062 0.23329 0.85635 0.0
H301 H 0.71937 0.28541 0.77791 0.0
H302 H 0.73819 0.18025 0.77484 0.0
H303 H 0.75532 0.24857 0.78779 0.0
H304 H 0.59691 0.16574 0.83168 0.0
H305 H 0.58169 0.09785 0.81983 0.0
C306 C 0.663 0.29216 0.84412 0.0
C307 C 0.68022 0.324 0.82387 0.0
C308 C 0.66535 0.25772 0.8405 0.0
C309 C 0.68412 0.25375 0.81639 0.0
C310 C 0.70465 0.28723 0.79677 0.0
C311 C 0.70308 0.3221 0.80055 0.0
C312 C 0.70772 0.17674 0.78776 0.0
C313 C 0.65902 0.13367 0.79682 0.0
C314 C 0.71726 0.21595 0.79498 0.0
C315 C 0.67764 0.21291 0.81087 0.0
C316 C 0.62918 0.16975 0.81998 0.0
C317 C 0.62009 0.13069 0.81305 0.0
H318 H 0.72324 0.82136 0.53282 0.0
H319 H 0.64274 0.77671 0.455 0.0
H320 H 0.71627 0.75542 0.53662 0.0
H321 H 0.63599 0.70978 0.45894 0.0
H322 H 0.58554 0.57575 0.5103 0.0
H323 H 0.58513 0.63641 0.49526 0.0
H324 H 0.76904 0.73557 0.50733 0.0
H325 H 0.76918 0.67536 0.52235 0.0
C326 C 0.70314 0.79701 0.51668 0.0
C327 C 0.68332 0.80411 0.49367 0.0
C328 C 0.69975 0.75954 0.51875 0.0
C329 C 0.67633 0.72808 0.49793 0.0
C330 C 0.65447 0.73388 0.47518 0.0
C331 C 0.65849 0.77204 0.47293 0.0
C332 C 0.62582 0.61044 0.50892 0.0
C333 C 0.67739 0.62149 0.51754 0.0
C334 C 0.62563 0.64489 0.50028 0.0
C335 C 0.677 0.69045 0.50046 0.0
C336 C 0.72893 0.70065 0.50722 0.0
C337 C 0.72908 0.66642 0.51576 0.0
H338 H 0.80594 0.50697 0.83405 0.0
H339 H 0.93004 0.65063 0.81735 0.0
H340 H 0.8814 0.50427 0.83966 0.0
H341 H 1.00696 0.64833 0.82135 0.0
H342 H 0.14712 0.64313 0.84503 0.0
H343 H 1.07291 0.64734 0.83554 0.0
H344 H 0.94614 0.49979 0.83414 0.0
H345 H 1.02071 0.49708 0.84537 0.0
C346 C 0.84973 0.53822 0.83124 0.0
C347 C 0.86119 0.57901 0.82512 0.0
C348 C 0.89419 0.53673 0.8342 0.0
C349 C 0.95271 0.57591 0.83079 0.0
C350 C 0.9638 0.61687 0.82451 0.0
C351 C 0.91907 0.61838 0.82189 0.0
C352 C 0.10337 0.61173 0.84199 0.0
C353 C 1.09029 0.56979 0.8454 0.0
C354 C 1.05978 0.61387 0.83666 0.0
C355 C 1.00102 0.57398 0.83436 0.0
C356 C 0.98917 0.53196 0.83642 0.0
C357 C 1.03264 0.53002 0.84225 0.0
H358 H 0.21427 0.67298 0.14835 0.0
H359 H 0.33163 0.64793 0.16055 0.0
H360 H 0.29354 0.75385 0.14943 0.0
H361 H 0.41249 0.73072 0.16153 0.0
H362 H 0.52167 0.88509 0.1916 0.0
H363 H 0.45113 0.8016 0.18965 0.0
H364 H 0.37391 0.809 0.11965 0.0
H365 H 0.44375 0.89187 0.12173 0.0
C366 C 0.2571 0.68462 0.15125 0.0
C367 C 0.26647 0.65369 0.15414 0.0
C368 C 0.30273 0.73127 0.15169 0.0
C369 C 0.35934 0.7487 0.15509 0.0
C370 C 0.36917 0.71812 0.15877 0.0
C371 C 0.32302 0.67086 0.15814 0.0
C372 C 0.49033 0.86872 0.17549 0.0
C373 C 0.48874 0.89493 0.15651 0.0
C374 C 0.45012 0.82102 0.17436 0.0
C375 C 0.40697 0.7988 0.15455 0.0
C376 C 0.40643 0.82515 0.13527 0.0
C377 C 0.44659 0.87259 0.13633 0.0
H378 H 0.7445 0.29917 0.49152 0.0
H379 H 0.59582 0.2393 0.44059 0.0
H380 H 0.74523 0.36132 0.5024 0.0
H381 H 0.59654 0.3007 0.45155 0.0
H382 H 0.56358 0.36728 0.51447 0.0
H383 H 0.57763 0.3148 0.50098 0.0
H384 H 0.74928 0.42806 0.4756 0.0
H385 H 0.73495 0.48089 0.48864 0.0
C386 C 0.71278 0.29979 0.48234 0.0
C387 C 0.67004 0.2645 0.46525 0.0
C388 C 0.71335 0.33525 0.48846 0.0
C389 C 0.67055 0.33517 0.47795 0.0
C390 C 0.62971 0.30115 0.45996 0.0
C391 C 0.62964 0.2663 0.45355 0.0
C392 C 0.60451 0.38099 0.50629 0.0
C393 C 0.64855 0.42807 0.50313 0.0
C394 C 0.61243 0.35107 0.4985 0.0
C395 C 0.66453 0.36767 0.48737 0.0
C396 C 0.70902 0.41472 0.48441 0.0
C397 C 0.70079 0.44475 0.4919 0.0
H398 H 0.57956 0.60287 0.79079 0.0
H399 H 0.53611 0.53455 0.86625 0.0
H400 H 0.50013 0.60288 0.79472 0.0
H401 H 0.45691 0.53467 0.8705 0.0
H402 H 0.33937 0.56677 0.88127 0.0
H403 H 0.4268 0.57688 0.8778 0.0
H404 H 0.39923 0.55671 0.793 0.0
H405 H 0.31325 0.54788 0.79661 0.0
C406 C 0.55313 0.588 0.80831 0.0
C407 C 0.56415 0.56846 0.82811 0.0
C408 C 0.50712 0.58772 0.81056 0.0
C409 C 0.47123 0.56876 0.83299 0.0
C410 C 0.4833 0.55001 0.85301 0.0
C411 C 0.52855 0.54947 0.85047 0.0
C412 C 0.35285 0.56555 0.86184 0.0
C413 C 0.31914 0.55668 0.83923 0.0
C414 C 0.40269 0.5707 0.85982 0.0
C415 C 0.42057 0.56713 0.83509 0.0
C416 C 0.38793 0.5602 0.8124 0.0
C417 C 0.33825 0.55509 0.81445 0.0
H418 H 0.96276 0.37113 0.1945 0.0
H419 H 0.95343 0.35014 0.10999 0.0
H420 H 0.88457 0.28943 0.20101 0.0
H421 H 0.87332 0.26803 0.11638 0.0
H422 H 0.68855 0.13146 0.14746 0.0
H423 H 0.7661 0.21182 0.13531 0.0
H424 H 0.87841 0.22052 0.1933 0.0
H425 H 0.80214 0.14102 0.20504 0.0
C426 C 0.9433 0.34897 0.1773 0.0
C427 C 0.96399 0.36665 0.15178 0.0
C428 C 0.89881 0.30227 0.181 0.0
C429 C 0.87305 0.27237 0.15919 0.0
C430 C 0.89241 0.29031 0.13351 0.0
C431 C 0.93823 0.33706 0.12987 0.0
C432 C 0.7302 0.15047 0.15719 0.0
C433 C 0.73901 0.13031 0.17757 0.0
C434 C 0.77443 0.19635 0.1503 0.0
C435 C 0.82784 0.22258 0.16378 0.0
C436 C 0.83731 0.20147 0.18302 0.0
C437 C 0.79362 0.15595 0.18973 0.0
H438 H 0.18568 0.52905 0.073 0.0
H439 H 1.02135 0.49259 0.05729 0.0
H440 H 0.20575 0.54038 0.0254 0.0
H441 H 1.04232 0.5055 0.00991 0.0
H442 H 0.13807 0.59477 0.93606 0.0
H443 H 0.11964 0.57901 0.98333 0.0
H444 H 0.1635 0.49355 0.98028 0.0
H445 H 0.18017 0.50797 0.93244 0.0
C446 C 0.15363 0.52299 0.05942 0.0
C447 C 1.1018 0.50966 0.06894 0.0
C448 C 0.16517 0.52952 0.03217 0.0
C449 C 0.12573 0.52406 0.01401 0.0
C450 C 1.07364 0.5102 0.0235 0.0
C451 C 1.06154 0.5026 0.05061 0.0
C452 C 0.14324 0.57219 0.94529 0.0
C453 C 0.15975 0.55208 0.93026 0.0
C454 C 0.13284 0.56332 0.97242 0.0
C455 C 0.13946 0.53464 0.98538 0.0
C456 C 0.15813 0.51584 0.97074 0.0
C457 C 0.16789 0.52427 0.9434 0.0
H458 H 0.76501 0.04602 0.38311 0.0
H459 H 0.60853 0.02004 0.40026 0.0
H460 H 0.74484 0.04234 0.33551 0.0
H461 H 0.58936 0.01785 0.35249 0.0
H462 H 0.63485 0.07986 0.26394 0.0
H463 H 0.64402 0.07789 0.31231 0.0
H464 H 0.66112 0.97647 0.30375 0.0
H465 H 0.6514 0.97806 0.25548 0.0
C466 C 0.72656 0.03987 0.37668 0.0
C467 C 0.68829 0.03327 0.39528 0.0
C468 C 0.71489 0.03751 0.3495 0.0
C469 C 0.6654 0.02952 0.34045 0.0
C470 C 0.62774 0.02399 0.35904 0.0
C471 C 0.63871 0.02524 0.38627 0.0
C472 C 0.63973 0.0567 0.27249 0.0
C473 C 0.64257 0.02918 0.25606 0.0
C474 C 0.64478 0.05549 0.30008 0.0
C475 C 0.65375 0.02732 0.31161 0.0
C476 C 0.65469 0.99873 0.29525 0.0
C477 C 0.64867 0.99937 0.26772 0.0
H478 H 0.74091 0.53754 0.74154 0.0
H479 H 0.65763 0.59404 0.74049 0.0
H480 H 0.74452 0.54087 0.69282 0.0
H481 H 0.66287 0.59886 0.6918 0.0
H482 H 0.73736 0.63571 0.6057 0.0
H483 H 0.74332 0.63918 0.65404 0.0
H484 H 0.65717 0.49622 0.65746 0.0
H485 H 0.64756 0.49153 0.6092 0.0
C486 C 0.72476 0.55171 0.73081 0.0
C487 C 0.6993 0.5658 0.74444 0.0
C488 C 0.72643 0.55332 0.70307 0.0
C489 C 0.70377 0.56995 0.68869 0.0
C490 C 0.68079 0.58606 0.7025 0.0
C491 C 0.67781 0.58336 0.73021 0.0
C492 C 0.71863 0.60468 0.61661 0.0
C493 C 0.6915 0.56319 0.60329 0.0
C494 C 0.72267 0.60692 0.64432 0.0
C495 C 0.701 0.56806 0.65934 0.0
C496 C 0.67488 0.52681 0.64622 0.0
C497 C 0.66967 0.52427 0.61854 0.0
H498 H 0.75325 0.09398 0.5504 0.0
H499 H 0.57368 0.97474 0.55574 0.0
H500 H 0.7622 0.09593 0.5989 0.0
H501 H 0.58278 0.97556 0.60401 0.0
H502 H 0.60107 0.02399 0.68896 0.0
H503 H 0.59519 0.02188 0.64037 0.0
H504 H 0.76017 0.05604 0.63727 0.0
H505 H 0.76573 0.05828 0.68582 0.0
C506 C 0.716 0.06781 0.56196 0.0
C507 C 0.66262 0.03455 0.54945 0.0
C508 C 0.72105 0.06882 0.58971 0.0
C509 C 0.67295 0.03627 0.60538 0.0
C510 C 0.62026 1.00187 0.59261 0.0
C511 C 0.61511 1.0012 0.56498 0.0
C512 C 0.63616 0.03147 0.67776 0.0
C513 C 0.68389 0.04144 0.69093 0.0
C514 C 0.63265 0.02981 0.65001 0.0
C515 C 0.67713 0.03858 0.6349 0.0
C516 C 0.72538 0.04941 0.64824 0.0
C517 C 0.72851 0.05053 0.67598 0.0
H518 H 0.62772 0.52083 0.88954 0.0
H519 H 0.8077 0.61518 0.9118 0.0
H520 H 0.60282 0.49273 0.93484 0.0
H521 H 0.78299 0.58595 0.95724 0.0
H522 H 0.70712 0.57074 0.03917 0.0
H523 H 0.73843 0.59218 -0.00672 0.0
H524 H 0.60653 0.45168 0.9693 0.0
H525 H 0.57381 0.43101 0.01523 0.0
C526 C 0.66201 0.53511 0.90413 0.0
C527 C 0.71953 0.57063 0.89744 0.0
C528 C 0.6478 0.5187 0.93002 0.0
C529 C 0.69093 0.53734 0.94966 0.0
C530 C 0.74878 0.57152 0.94261 0.0
C531 C 0.76297 0.58813 0.91666 0.0
C532 C 0.68538 0.54459 0.024 0.0
C533 C 0.63809 0.49944 0.03033 0.0
C534 C 0.70347 0.55667 -0.00217 0.0
C535 C 0.67502 0.52357 0.97769 0.0
C536 C 0.62875 0.47801 0.98434 0.0
C537 C 0.6101 0.46611 0.01048 0.0
H538 H 0.11126 0.43448 0.23513 0.0
H539 H 0.13627 0.55732 0.22773 0.0
H540 H 0.10731 0.43712 0.28312 0.0
H541 H 0.13726 0.56262 0.2762 0.0
H542 H 1.09987 0.5427 0.36592 0.0
H543 H 1.09265 0.53798 0.3173 0.0
H544 H 0.16833 0.47486 0.31844 0.0
H545 H 0.17179 0.47735 0.36667 0.0
C546 C 0.11617 0.46224 0.24393 0.0
C547 C 0.12444 0.49583 0.22785 0.0
C548 C 0.11471 0.46422 0.27153 0.0
C549 C 0.1238 0.50091 0.28393 0.0
C550 C 0.12993 0.53373 0.2676 0.0
C551 C 0.12956 0.53088 0.2398 0.0
C552 C 0.11499 0.52804 0.3555 0.0
C553 C 0.13633 0.51034 0.36977 0.0
C554 C 0.11109 0.52539 0.32766 0.0
C555 C 0.12903 0.50534 0.31361 0.0
C556 C 0.1522 0.48916 0.32827 0.0
C557 C 0.15512 0.49114 0.35596 0.0
loop_
_geom_bond_atom_site_label_1
_geom_bond_atom_site_label_2
_geom_bond_distance
_geom_bond_site_symmetry_2
_ccdc_geom_bond_type
Sm0 C2 2.846 . S
Sm0 O20 2.543 . S
Sm0 O21 2.450 . S
Sm0 O22 2.681 1_455 S
Sm0 O23 2.464 . S
Sm0 O24 2.396 . S
Sm0 O28 2.386 . S
Sm0 O31 2.408 1_455 S
Sm1 C11 2.846 . S
Sm1 O22 2.386 . S
Sm1 O25 2.408 1_655 S
Sm1 O26 2.543 . S
Sm1 O27 2.450 . S
Sm1 O28 2.681 1_655 S
Sm1 O29 2.464 . S
Sm1 O30 2.396 . S
C2 Sm0 2.846 . S
C2 C3 1.506 . S
C2 O20 1.261 . S
C2 O21 1.242 . S
C3 C2 1.506 . S
C3 C4 1.358 . S
C3 C8 1.382 . S
C4 C3 1.358 . S
C4 C5 1.385 . S
C4 H32 0.930 . S
C5 C4 1.385 . S
C5 C6 1.395 . S
C5 H33 0.929 . S
C6 C5 1.395 . S
C6 C7 1.335 . S
C7 C6 1.335 . S
C7 C8 1.398 . S
C7 H34 0.930 . S
C8 C3 1.382 . S
C8 C7 1.398 . S
C8 H35 0.929 . S
C9 O22 1.271 1_455 S
C9 O23 1.251 . S
C10 O24 1.252 . S
C10 O25 1.272 . S
C11 Sm1 2.846 . S
C11 C12 1.506 . S
C11 O26 1.261 . S
C11 O27 1.242 . S
C12 C11 1.506 . S
C12 C13 1.358 . S
C12 C17 1.382 . S
C13 C12 1.358 . S
C13 C14 1.385 . S
C13 H36 0.930 . S
C14 C13 1.385 . S
C14 C15 1.395 . S
C14 H37 0.929 . S
C15 C14 1.395 . S
C15 C16 1.335 . S
C16 C15 1.335 . S
C16 C17 1.398 . S
C16 H38 0.930 . S
C17 C12 1.382 . S
C17 C16 1.398 . S
C17 H39 0.929 . S
C18 O28 1.271 . S
C18 O29 1.251 1_455 S
C19 O30 1.252 . S
C19 O31 1.272 . S
O20 Sm0 2.543 . S
O20 C2 1.261 . S
O21 Sm0 2.450 . S
O21 C2 1.242 . S
O22 Sm0 2.681 1_655 S
O22 Sm1 2.386 . S
O22 C9 1.271 1_655 S
O23 Sm0 2.464 . S
O23 C9 1.251 . S
O24 Sm0 2.396 . S
O24 C10 1.252 . S
O25 Sm1 2.408 1_455 S
O25 C10 1.272 . S
O26 Sm1 2.543 . S
O26 C11 1.261 . S
O27 Sm1 2.450 . S
O27 C11 1.242 . S
O28 Sm0 2.386 . S
O28 Sm1 2.681 1_455 S
O28 C18 1.271 . S
O29 Sm1 2.464 . S
O29 C18 1.251 1_655 S
O30 Sm1 2.396 . S
O30 C19 1.252 . S
O31 Sm0 2.408 1_655 S
O31 C19 1.272 . S
H32 C4 0.930 . S
H33 C5 0.929 . S
H34 C7 0.930 . S
H35 C8 0.929 . S
H36 C13 0.930 . S
H37 C14 0.929 . S
H38 C16 0.930 . S
H39 C17 0.929 . S
Sm40 C42 2.846 1_545 S
Sm40 O60 2.543 1_545 S
Sm40 O61 2.450 1_545 S
Sm40 O62 2.681 . S
Sm40 O63 2.464 . S
Sm40 O64 2.396 1_545 S
Sm40 O68 2.386 . S
Sm40 O71 2.408 . S
Sm41 C51 2.846 . S
Sm41 O62 2.386 . S
Sm41 O65 2.408 1_545 S
Sm41 O66 2.543 . S
Sm41 O67 2.450 . S
Sm41 O68 2.681 . S
Sm41 O69 2.464 . S
Sm41 O70 2.396 . S
C42 Sm40 2.846 1_565 S
C42 C43 1.506 . S
C42 O60 1.261 . S
C42 O61 1.242 . S
C43 C42 1.506 . S
C43 C44 1.358 . S
C43 C48 1.382 . S
C44 C43 1.358 . S
C44 C45 1.385 . S
C44 H72 0.930 . S
C45 C44 1.385 . S
C45 C46 1.395 . S
C45 H73 0.929 . S
C46 C45 1.395 . S
C46 C47 1.335 . S
C47 C46 1.335 . S
C47 C48 1.398 . S
C47 H74 0.930 . S
C48 C43 1.382 . S
C48 C47 1.398 . S
C48 H75 0.929 . S
C49 O62 1.271 . S
C49 O63 1.251 . S
C50 O64 1.252 . S
C50 O65 1.272 . S
C51 Sm41 2.846 . S
C51 C52 1.506 . S
C51 O66 1.261 . S
C51 O67 1.242 . S
C52 C51 1.506 . S
C52 C53 1.358 . S
C52 C57 1.382 . S
C53 C52 1.358 . S
C53 C54 1.385 . S
C53 H76 0.930 . S
C54 C53 1.385 . S
C54 C55 1.395 . S
C54 H77 0.929 . S
C55 C54 1.395 . S
C55 C56 1.335 . S
C56 C55 1.335 . S
C56 C57 1.398 . S
C56 H78 0.930 . S
C57 C52 1.382 . S
C57 C56 1.398 . S
C57 H79 0.929 . S
C58 O68 1.271 . S
C58 O69 1.251 . S
C59 O70 1.252 . S
C59 O71 1.272 . S
O60 Sm40 2.543 1_565 S
O60 C42 1.261 . S
O61 Sm40 2.450 1_565 S
O61 C42 1.242 . S
O62 Sm40 2.681 . S
O62 Sm41 2.386 . S
O62 C49 1.271 . S
O63 Sm40 2.464 . S
O63 C49 1.251 . S
O64 Sm40 2.396 1_565 S
O64 C50 1.252 . S
O65 Sm41 2.408 1_565 S
O65 C50 1.272 . S
O66 Sm41 2.543 . S
O66 C51 1.261 . S
O67 Sm41 2.450 . S
O67 C51 1.242 . S
O68 Sm40 2.386 . S
O68 Sm41 2.681 . S
O68 C58 1.271 . S
O69 Sm41 2.464 . S
O69 C58 1.251 . S
O70 Sm41 2.396 . S
O70 C59 1.252 . S
O71 Sm40 2.408 . S
O71 C59 1.272 . S
H72 C44 0.930 . S
H73 C45 0.929 . S
H74 C47 0.930 . S
H75 C48 0.929 . S
H76 C53 0.930 . S
H77 C54 0.929 . S
H78 C56 0.930 . S
H79 C57 0.929 . S
Sm80 C82 2.846 . S
Sm80 O100 2.543 . S
Sm80 O101 2.450 . S
Sm80 O102 2.681 . S
Sm80 O103 2.464 . S
Sm80 O104 2.396 . S
Sm80 O108 2.386 . S
Sm80 O111 2.408 . S
Sm81 C91 2.846 . S
Sm81 O102 2.386 . S
Sm81 O105 2.408 . S
Sm81 O106 2.543 . S
Sm81 O107 2.450 . S
Sm81 O108 2.681 . S
Sm81 O109 2.464 . S
Sm81 O110 2.396 . S
C82 Sm80 2.846 . S
C82 C83 1.506 . S
C82 O100 1.261 . S
C82 O101 1.242 . S
C83 C82 1.506 . S
C83 C84 1.358 . S
C83 C88 1.382 . S
C84 C83 1.358 . S
C84 C85 1.385 . S
C84 H112 0.930 . S
C85 C84 1.385 . S
C85 C86 1.395 . S
C85 H113 0.929 . S
C86 C85 1.395 . S
C86 C87 1.335 . S
C87 C86 1.335 . S
C87 C88 1.398 . S
C87 H114 0.930 . S
C88 C83 1.382 . S
C88 C87 1.398 . S
C88 H115 0.929 . S
C89 O102 1.271 . S
C89 O103 1.251 . S
C90 O104 1.252 . S
C90 O105 1.272 . S
C91 Sm81 2.846 . S
C91 C92 1.506 . S
C91 O106 1.261 . S
C91 O107 1.242 . S
C92 C91 1.506 . S
C92 C93 1.358 . S
C92 C97 1.382 . S
C93 C92 1.358 . S
C93 C94 1.385 . S
C93 H116 0.930 . S
C94 C93 1.385 . S
C94 C95 1.395 . S
C94 H117 0.929 . S
C95 C94 1.395 . S
C95 C96 1.335 . S
C96 C95 1.335 . S
C96 C97 1.398 . S
C96 H118 0.930 . S
C97 C92 1.382 . S
C97 C96 1.398 . S
C97 H119 0.929 . S
C98 O108 1.271 . S
C98 O109 1.251 . S
C99 O110 1.252 . S
C99 O111 1.272 . S
O100 Sm80 2.543 . S
O100 C82 1.261 . S
O101 Sm80 2.450 . S
O101 C82 1.242 . S
O102 Sm80 2.681 . S
O102 Sm81 2.386 . S
O102 C89 1.271 . S
O103 Sm80 2.464 . S
O103 C89 1.251 . S
O104 Sm80 2.396 . S
O104 C90 1.252 . S
O105 Sm81 2.408 . S
O105 C90 1.272 . S
O106 Sm81 2.543 . S
O106 C91 1.261 . S
O107 Sm81 2.450 . S
O107 C91 1.242 . S
O108 Sm80 2.386 . S
O108 Sm81 2.681 . S
O108 C98 1.271 . S
O109 Sm81 2.464 . S
O109 C98 1.251 . S
O110 Sm81 2.396 . S
O110 C99 1.252 . S
O111 Sm80 2.408 . S
O111 C99 1.272 . S
H112 C84 0.930 . S
H113 C85 0.929 . S
H114 C87 0.930 . S
H115 C88 0.929 . S
H116 C93 0.930 . S
H117 C94 0.929 . S
H118 C96 0.930 . S
H119 C97 0.929 . S
H120 C127 0.929 . S
H121 C130 0.930 . S
H122 C132 0.929 . S
H123 C124 0.969 . S
C124 H123 0.969 . S
C124 O125 1.550 . S
C124 H126 0.973 . S
O125 C124 1.550 . S
O125 C131 1.412 . S
H126 C124 0.973 . S
C127 H120 0.929 . S
C127 C128 1.400 . S
C127 C129 1.364 . S
C128 C127 1.400 . S
C128 C132 1.377 . S
C129 C127 1.364 . S
C129 C130 1.374 1_545 S
C130 H121 0.930 . S
C130 C129 1.374 1_565 S
C130 C131 1.383 . S
C131 O125 1.412 . S
C131 C130 1.383 . S
C131 C132 1.394 1_565 S
C132 H122 0.929 . S
C132 C128 1.377 . S
C132 C131 1.394 1_545 S
H133 C140 0.929 . S
H134 C143 0.930 . S
H135 C145 0.929 . S
H136 C137 0.969 . S
C137 H136 0.969 . S
C137 O138 1.550 . S
C137 H139 0.973 . S
O138 C137 1.550 . S
O138 C144 1.412 . S
H139 C137 0.973 . S
C140 H133 0.929 . S
C140 C141 1.400 . S
C140 C142 1.364 . S
C141 C140 1.400 . S
C141 C145 1.377 . S
C142 C140 1.364 . S
C142 C143 1.374 . S
C143 H134 0.930 . S
C143 C142 1.374 . S
C143 C144 1.383 . S
C144 O138 1.412 . S
C144 C143 1.383 . S
C144 C145 1.394 . S
C145 H135 0.929 . S
C145 C141 1.377 . S
C145 C144 1.394 . S
H146 C153 0.929 . S
H147 C156 0.930 . S
H148 C158 0.929 . S
H149 C150 0.969 . S
C150 H149 0.969 . S
C150 O151 1.550 . S
C150 H152 0.973 . S
O151 C150 1.550 . S
O151 C157 1.412 . S
H152 C150 0.973 . S
C153 H146 0.929 . S
C153 C154 1.400 . S
C153 C155 1.364 . S
C154 C153 1.400 . S
C154 C158 1.377 . S
C155 C153 1.364 . S
C155 C156 1.374 . S
C156 H147 0.930 . S
C156 C155 1.374 . S
C156 C157 1.383 . S
C157 O151 1.412 . S
C157 C156 1.383 . S
C157 C158 1.394 . S
C158 H148 0.929 . S
C158 C154 1.377 . S
C158 C157 1.394 . S
H159 C166 0.929 . S
H160 C169 0.930 . S
H161 C171 0.929 . S
H162 C163 0.969 . S
C163 H162 0.969 . S
C163 O164 1.550 . S
C163 H165 0.973 . S
O164 C163 1.550 . S
O164 C170 1.412 . S
H165 C163 0.973 . S
C166 H159 0.929 . S
C166 C167 1.400 . S
C166 C168 1.364 1_655 S
C167 C166 1.400 . S
C167 C171 1.377 1_655 S
C168 C166 1.364 1_455 S
C168 C169 1.374 . S
C169 H160 0.930 . S
C169 C168 1.374 . S
C169 C170 1.383 . S
C170 O164 1.412 . S
C170 C169 1.383 . S
C170 C171 1.394 . S
C171 H161 0.929 . S
C171 C167 1.377 1_455 S
C171 C170 1.394 . S
H172 C179 0.929 . S
H173 C182 0.930 . S
H174 C184 0.929 . S
H175 C176 0.969 . S
C176 H175 0.969 . S
C176 O177 1.550 . S
C176 H178 0.973 . S
O177 C176 1.550 . S
O177 C183 1.412 . S
H178 C176 0.973 . S
C179 H172 0.929 . S
C179 C180 1.400 . S
C179 C181 1.364 1_565 S
C180 C179 1.400 . S
C180 C184 1.377 1_565 S
C181 C179 1.364 1_545 S
C181 C182 1.374 . S
C182 H173 0.930 . S
C182 C181 1.374 . S
C182 C183 1.383 . S
C183 O177 1.412 . S
C183 C182 1.383 . S
C183 C184 1.394 . S
C184 H174 0.929 . S
C184 C180 1.377 1_545 S
C184 C183 1.394 . S
H185 C192 0.929 . S
H186 C195 0.930 . S
H187 C197 0.929 . S
H188 C189 0.969 . S
C189 H188 0.969 . S
C189 O190 1.550 . S
C189 H191 0.973 . S
O190 C189 1.550 . S
O190 C196 1.412 . S
H191 C189 0.973 . S
C192 H185 0.929 . S
C192 C193 1.400 . S
C192 C194 1.364 . S
C193 C192 1.400 . S
C193 C197 1.377 . S
C194 C192 1.364 . S
C194 C195 1.374 . S
C195 H186 0.930 . S
C195 C194 1.374 . S
C195 C196 1.383 . S
C196 O190 1.412 . S
C196 C195 1.383 . S
C196 C197 1.394 . S
C197 H187 0.929 . S
C197 C193 1.377 . S
C197 C196 1.394 . S
H198 C206 0.950 . S
H199 C211 0.950 . S
H200 C208 0.950 . S
H201 C210 0.950 . S
H202 C212 0.950 . S
H203 C214 0.950 . S
H204 C216 0.950 . S
H205 C217 0.950 . S
C206 H198 0.950 . S
C206 C207 1.386 . S
C206 C208 1.391 . S
C207 C206 1.386 . S
C207 C211 1.393 . S
C208 H200 0.950 . S
C208 C206 1.391 . S
C208 C209 1.400 . S
C209 C208 1.400 . S
C209 C210 1.398 . S
C209 C215 1.491 . S
C210 H201 0.950 . S
C210 C209 1.398 . S
C210 C211 1.391 . S
C211 H199 0.950 . S
C211 C207 1.393 . S
C211 C210 1.391 . S
C212 H202 0.950 . S
C212 C213 1.386 . S
C212 C214 1.391 . S
C213 C212 1.386 . S
C213 C217 1.393 . S
C214 H203 0.950 . S
C214 C212 1.391 . S
C214 C215 1.400 . S
C215 C209 1.491 . S
C215 C214 1.400 . S
C215 C216 1.398 . S
C216 H204 0.950 . S
C216 C215 1.398 . S
C216 C217 1.391 . S
C217 H205 0.950 . S
C217 C213 1.393 . S
C217 C216 1.391 . S
H218 C226 0.950 . S
H219 C231 0.950 . S
H220 C228 0.950 . S
H221 C230 0.950 . S
H222 C232 0.950 . S
H223 C234 0.950 . S
H224 C236 0.950 . S
H225 C237 0.950 . S
C226 H218 0.950 . S
C226 C227 1.386 . S
C226 C228 1.391 . S
C227 C226 1.386 . S
C227 C231 1.393 . S
C228 H220 0.950 . S
C228 C226 1.391 . S
C228 C229 1.400 . S
C229 C228 1.400 . S
C229 C230 1.398 . S
C229 C235 1.491 . S
C230 H221 0.950 . S
C230 C229 1.398 . S
C230 C231 1.391 . S
C231 H219 0.950 . S
C231 C227 1.393 . S
C231 C230 1.391 . S
C232 H222 0.950 . S
C232 C233 1.386 . S
C232 C234 1.391 . S
C233 C232 1.386 . S
C233 C237 1.393 . S
C234 H223 0.950 . S
C234 C232 1.391 . S
C234 C235 1.400 . S
C235 C229 1.491 . S
C235 C234 1.400 . S
C235 C236 1.398 . S
C236 H224 0.950 . S
C236 C235 1.398 . S
C236 C237 1.391 . S
C237 H225 0.950 . S
C237 C233 1.393 . S
C237 C236 1.391 . S
H238 C246 0.950 . S
H239 C251 0.950 . S
H240 C248 0.950 . S
H241 C250 0.950 . S
H242 C252 0.950 . S
H243 C254 0.950 . S
H244 C256 0.950 . S
H245 C257 0.950 . S
C246 H238 0.950 . S
C246 C247 1.386 . S
C246 C248 1.391 . S
C247 C246 1.386 . S
C247 C251 1.393 . S
C248 H240 0.950 . S
C248 C246 1.391 . S
C248 C249 1.400 . S
C249 C248 1.400 . S
C249 C250 1.398 . S
C249 C255 1.491 . S
C250 H241 0.950 . S
C250 C249 1.398 . S
C250 C251 1.391 . S
C251 H239 0.950 . S
C251 C247 1.393 . S
C251 C250 1.391 . S
C252 H242 0.950 . S
C252 C253 1.386 . S
C252 C254 1.391 . S
C253 C252 1.386 . S
C253 C257 1.393 . S
C254 H243 0.950 . S
C254 C252 1.391 . S
C254 C255 1.400 . S
C255 C249 1.491 . S
C255 C254 1.400 . S
C255 C256 1.398 . S
C256 H244 0.950 . S
C256 C255 1.398 . S
C256 C257 1.391 . S
C257 H245 0.950 . S
C257 C253 1.393 . S
C257 C256 1.391 . S
H258 C266 0.950 . S
H259 C271 0.950 . S
H260 C268 0.950 . S
H261 C270 0.950 . S
H262 C272 0.950 . S
H263 C274 0.950 . S
H264 C276 0.950 . S
H265 C277 0.950 . S
C266 H258 0.950 . S
C266 C267 1.386 . S
C266 C268 1.391 . S
C267 C266 1.386 . S
C267 C271 1.393 . S
C268 H260 0.950 . S
C268 C266 1.391 . S
C268 C269 1.400 . S
C269 C268 1.400 . S
C269 C270 1.398 . S
C269 C275 1.491 . S
C270 H261 0.950 . S
C270 C269 1.398 . S
C270 C271 1.391 . S
C271 H259 0.950 . S
C271 C267 1.393 . S
C271 C270 1.391 . S
C272 H262 0.950 . S
C272 C273 1.386 . S
C272 C274 1.391 . S
C273 C272 1.386 . S
C273 C277 1.393 . S
C274 H263 0.950 . S
C274 C272 1.391 . S
C274 C275 1.400 . S
C275 C269 1.491 . S
C275 C274 1.400 . S
C275 C276 1.398 . S
C276 H264 0.950 . S
C276 C275 1.398 . S
C276 C277 1.391 . S
C277 H265 0.950 . S
C277 C273 1.393 . S
C277 C276 1.391 . S
H278 C286 0.950 . S
H279 C291 0.950 . S
H280 C288 0.950 . S
H281 C290 0.950 . S
H282 C292 0.950 . S
H283 C294 0.950 . S
H284 C296 0.950 . S
H285 C297 0.950 . S
C286 H278 0.950 . S
C286 C287 1.386 . S
C286 C288 1.391 . S
C287 C286 1.386 . S
C287 C291 1.393 . S
C288 H280 0.950 . S
C288 C286 1.391 . S
C288 C289 1.400 . S
C289 C288 1.400 . S
C289 C290 1.398 . S
C289 C295 1.491 . S
C290 H281 0.950 . S
C290 C289 1.398 . S
C290 C291 1.391 . S
C291 H279 0.950 . S
C291 C287 1.393 . S
C291 C290 1.391 . S
C292 H282 0.950 . S
C292 C293 1.386 . S
C292 C294 1.391 . S
C293 C292 1.386 . S
C293 C297 1.393 . S
C294 H283 0.950 . S
C294 C292 1.391 . S
C294 C295 1.400 . S
C295 C289 1.491 . S
C295 C294 1.400 . S
C295 C296 1.398 . S
C296 H284 0.950 . S
C296 C295 1.398 . S
C296 C297 1.391 . S
C297 H285 0.950 . S
C297 C293 1.393 . S
C297 C296 1.391 . S
H298 C306 0.950 . S
H299 C311 0.950 . S
H300 C308 0.950 . S
H301 C310 0.950 . S
H302 C312 0.950 . S
H303 C314 0.950 . S
H304 C316 0.950 . S
H305 C317 0.950 . S
C306 H298 0.950 . S
C306 C307 1.386 . S
C306 C308 1.391 . S
C307 C306 1.386 . S
C307 C311 1.393 . S
C308 H300 0.950 . S
C308 C306 1.391 . S
C308 C309 1.400 . S
C309 C308 1.400 . S
C309 C310 1.398 . S
C309 C315 1.491 . S
C310 H301 0.950 . S
C310 C309 1.398 . S
C310 C311 1.391 . S
C311 H299 0.950 . S
C311 C307 1.393 . S
C311 C310 1.391 . S
C312 H302 0.950 . S
C312 C313 1.386 . S
C312 C314 1.391 . S
C313 C312 1.386 . S
C313 C317 1.393 . S
C314 H303 0.950 . S
C314 C312 1.391 . S
C314 C315 1.400 . S
C315 C309 1.491 . S
C315 C314 1.400 . S
C315 C316 1.398 . S
C316 H304 0.950 . S
C316 C315 1.398 . S
C316 C317 1.391 . S
C317 H305 0.950 . S
C317 C313 1.393 . S
C317 C316 1.391 . S
H318 C326 0.950 . S
H319 C331 0.950 . S
H320 C328 0.950 . S
H321 C330 0.950 . S
H322 C332 0.950 . S
H323 C334 0.950 . S
H324 C336 0.950 . S
H325 C337 0.950 . S
C326 H318 0.950 . S
C326 C327 1.386 . S
C326 C328 1.391 . S
C327 C326 1.386 . S
C327 C331 1.393 . S
C328 H320 0.950 . S
C328 C326 1.391 . S
C328 C329 1.400 . S
C329 C328 1.400 . S
C329 C330 1.398 . S
C329 C335 1.491 . S
C330 H321 0.950 . S
C330 C329 1.398 . S
C330 C331 1.391 . S
C331 H319 0.950 . S
C331 C327 1.393 . S
C331 C330 1.391 . S
C332 H322 0.950 . S
C332 C333 1.386 . S
C332 C334 1.391 . S
C333 C332 1.386 . S
C333 C337 1.393 . S
C334 H323 0.950 . S
C334 C332 1.391 . S
C334 C335 1.400 . S
C335 C329 1.491 . S
C335 C334 1.400 . S
C335 C336 1.398 . S
C336 H324 0.950 . S
C336 C335 1.398 . S
C336 C337 1.391 . S
C337 H325 0.950 . S
C337 C333 1.393 . S
C337 C336 1.391 . S
H338 C346 0.950 . S
H339 C351 0.950 . S
H340 C348 0.950 . S
H341 C350 0.950 . S
H342 C352 0.950 1_455 S
H343 C354 0.950 . S
H344 C356 0.950 . S
H345 C357 0.950 . S
C346 H338 0.950 . S
C346 C347 1.386 . S
C346 C348 1.391 . S
C347 C346 1.386 . S
C347 C351 1.393 . S
C348 H340 0.950 . S
C348 C346 1.391 . S
C348 C349 1.400 . S
C349 C348 1.400 . S
C349 C350 1.398 . S
C349 C355 1.491 . S
C350 H341 0.950 . S
C350 C349 1.398 . S
C350 C351 1.391 . S
C351 H339 0.950 . S
C351 C347 1.393 . S
C351 C350 1.391 . S
C352 H342 0.950 1_655 S
C352 C353 1.386 . S
C352 C354 1.391 . S
C353 C352 1.386 . S
C353 C357 1.393 . S
C354 H343 0.950 . S
C354 C352 1.391 . S
C354 C355 1.400 . S
C355 C349 1.491 . S
C355 C354 1.400 . S
C355 C356 1.398 . S
C356 H344 0.950 . S
C356 C355 1.398 . S
C356 C357 1.391 . S
C357 H345 0.950 . S
C357 C353 1.393 . S
C357 C356 1.391 . S
H358 C366 0.950 . S
H359 C371 0.950 . S
H360 C368 0.950 . S
H361 C370 0.950 . S
H362 C372 0.950 . S
H363 C374 0.950 . S
H364 C376 0.950 . S
H365 C377 0.950 . S
C366 H358 0.950 . S
C366 C367 1.386 . S
C366 C368 1.391 . S
C367 C366 1.386 . S
C367 C371 1.393 . S
C368 H360 0.950 . S
C368 C366 1.391 . S
C368 C369 1.400 . S
C369 C368 1.400 . S
C369 C370 1.398 . S
C369 C375 1.491 . S
C370 H361 0.950 . S
C370 C369 1.398 . S
C370 C371 1.391 . S
C371 H359 0.950 . S
C371 C367 1.393 . S
C371 C370 1.391 . S
C372 H362 0.950 . S
C372 C373 1.386 . S
C372 C374 1.391 . S
C373 C372 1.386 . S
C373 C377 1.393 . S
C374 H363 0.950 . S
C374 C372 1.391 . S
C374 C375 1.400 . S
C375 C369 1.491 . S
C375 C374 1.400 . S
C375 C376 1.398 . S
C376 H364 0.950 . S
C376 C375 1.398 . S
C376 C377 1.391 . S
C377 H365 0.950 . S
C377 C373 1.393 . S
C377 C376 1.391 . S
H378 C386 0.950 . S
H379 C391 0.950 . S
H380 C388 0.950 . S
H381 C390 0.950 . S
H382 C392 0.950 . S
H383 C394 0.950 . S
H384 C396 0.950 . S
H385 C397 0.950 . S
C386 H378 0.950 . S
C386 C387 1.386 . S
C386 C388 1.391 . S
C387 C386 1.386 . S
C387 C391 1.393 . S
C388 H380 0.950 . S
C388 C386 1.391 . S
C388 C389 1.400 . S
C389 C388 1.400 . S
C389 C390 1.398 . S
C389 C395 1.491 . S
C390 H381 0.950 . S
C390 C389 1.398 . S
C390 C391 1.391 . S
C391 H379 0.950 . S
C391 C387 1.393 . S
C391 C390 1.391 . S
C392 H382 0.950 . S
C392 C393 1.386 . S
C392 C394 1.391 . S
C393 C392 1.386 . S
C393 C397 1.393 . S
C394 H383 0.950 . S
C394 C392 1.391 . S
C394 C395 1.400 . S
C395 C389 1.491 . S
C395 C394 1.400 . S
C395 C396 1.398 . S
C396 H384 0.950 . S
C396 C395 1.398 . S
C396 C397 1.391 . S
C397 H385 0.950 . S
C397 C393 1.393 . S
C397 C396 1.391 . S
H398 C406 0.950 . S
H399 C411 0.950 . S
H400 C408 0.950 . S
H401 C410 0.950 . S
H402 C412 0.950 . S
H403 C414 0.950 . S
H404 C416 0.950 . S
H405 C417 0.950 . S
C406 H398 0.950 . S
C406 C407 1.386 . S
C406 C408 1.391 . S
C407 C406 1.386 . S
C407 C411 1.393 . S
C408 H400 0.950 . S
C408 C406 1.391 . S
C408 C409 1.400 . S
C409 C408 1.400 . S
C409 C410 1.398 . S
C409 C415 1.491 . S
C410 H401 0.950 . S
C410 C409 1.398 . S
C410 C411 1.391 . S
C411 H399 0.950 . S
C411 C407 1.393 . S
C411 C410 1.391 . S
C412 H402 0.950 . S
C412 C413 1.386 . S
C412 C414 1.391 . S
C413 C412 1.386 . S
C413 C417 1.393 . S
C414 H403 0.950 . S
C414 C412 1.391 . S
C414 C415 1.400 . S
C415 C409 1.491 . S
C415 C414 1.400 . S
C415 C416 1.398 . S
C416 H404 0.950 . S
C416 C415 1.398 . S
C416 C417 1.391 . S
C417 H405 0.950 . S
C417 C413 1.393 . S
C417 C416 1.391 . S
H418 C426 0.950 . S
H419 C431 0.950 . S
H420 C428 0.950 . S
H421 C430 0.950 . S
H422 C432 0.950 . S
H423 C434 0.950 . S
H424 C436 0.950 . S
H425 C437 0.950 . S
C426 H418 0.950 . S
C426 C427 1.386 . S
C426 C428 1.391 . S
C427 C426 1.386 . S
C427 C431 1.393 . S
C428 H420 0.950 . S
C428 C426 1.391 . S
C428 C429 1.400 . S
C429 C428 1.400 . S
C429 C430 1.398 . S
C429 C435 1.491 . S
C430 H421 0.950 . S
C430 C429 1.398 . S
C430 C431 1.391 . S
C431 H419 0.950 . S
C431 C427 1.393 . S
C431 C430 1.391 . S
C432 H422 0.950 . S
C432 C433 1.386 . S
C432 C434 1.391 . S
C433 C432 1.386 . S
C433 C437 1.393 . S
C434 H423 0.950 . S
C434 C432 1.391 . S
C434 C435 1.400 . S
C435 C429 1.491 . S
C435 C434 1.400 . S
C435 C436 1.398 . S
C436 H424 0.950 . S
C436 C435 1.398 . S
C436 C437 1.391 . S
C437 H425 0.950 . S
C437 C433 1.393 . S
C437 C436 1.391 . S
H438 C446 0.950 . S
H439 C451 0.950 . S
H440 C448 0.950 . S
H441 C450 0.950 1_655 S
H442 C452 0.950 . S
H443 C454 0.950 . S
H444 C456 0.950 . S
H445 C457 0.950 . S
C446 H438 0.950 . S
C446 C447 1.386 . S
C446 C448 1.391 . S
C447 C446 1.386 . S
C447 C451 1.393 1_455 S
C448 H440 0.950 . S
C448 C446 1.391 . S
C448 C449 1.400 . S
C449 C448 1.400 . S
C449 C450 1.398 . S
C449 C455 1.491 1_554 S
C450 H441 0.950 1_455 S
C450 C449 1.398 . S
C450 C451 1.391 1_455 S
C451 H439 0.950 . S
C451 C447 1.393 1_655 S
C451 C450 1.391 1_655 S
C452 H442 0.950 . S
C452 C453 1.386 . S
C452 C454 1.391 . S
C453 C452 1.386 . S
C453 C457 1.393 . S
C454 H443 0.950 . S
C454 C452 1.391 . S
C454 C455 1.400 . S
C455 C449 1.491 1_556 S
C455 C454 1.400 . S
C455 C456 1.398 . S
C456 H444 0.950 . S
C456 C455 1.398 . S
C456 C457 1.391 . S
C457 H445 0.950 . S
C457 C453 1.393 . S
C457 C456 1.391 . S
H458 C466 0.950 1_565 S
H459 C471 0.950 . S
H460 C468 0.950 1_565 S
H461 C470 0.950 . S
H462 C472 0.950 . S
H463 C474 0.950 . S
H464 C476 0.950 1_565 S
H465 C477 0.950 1_565 S
C466 H458 0.950 1_545 S
C466 C467 1.386 . S
C466 C468 1.391 . S
C467 C466 1.386 . S
C467 C471 1.393 . S
C468 H460 0.950 1_545 S
C468 C466 1.391 . S
C468 C469 1.400 . S
C469 C468 1.400 . S
C469 C470 1.398 . S
C469 C475 1.491 . S
C470 H461 0.950 . S
C470 C469 1.398 . S
C470 C471 1.391 . S
C471 H459 0.950 . S
C471 C467 1.393 . S
C471 C470 1.391 . S
C472 H462 0.950 . S
C472 C473 1.386 . S
C472 C474 1.391 . S
C473 C472 1.386 . S
C473 C477 1.393 . S
C474 H463 0.950 . S
C474 C472 1.391 . S
C474 C475 1.400 . S
C475 C469 1.491 . S
C475 C474 1.400 . S
C475 C476 1.398 . S
C476 H464 0.950 1_545 S
C476 C475 1.398 . S
C476 C477 1.391 . S
C477 H465 0.950 1_545 S
C477 C473 1.393 . S
C477 C476 1.391 . S
H478 C486 0.950 . S
H479 C491 0.950 . S
H480 C488 0.950 . S
H481 C490 0.950 . S
H482 C492 0.950 . S
H483 C494 0.950 . S
H484 C496 0.950 . S
H485 C497 0.950 . S
C486 H478 0.950 . S
C486 C487 1.386 . S
C486 C488 1.391 . S
C487 C486 1.386 . S
C487 C491 1.393 . S
C488 H480 0.950 . S
C488 C486 1.391 . S
C488 C489 1.400 . S
C489 C488 1.400 . S
C489 C490 1.398 . S
C489 C495 1.491 . S
C490 H481 0.950 . S
C490 C489 1.398 . S
C490 C491 1.391 . S
C491 H479 0.950 . S
C491 C487 1.393 . S
C491 C490 1.391 . S
C492 H482 0.950 . S
C492 C493 1.386 . S
C492 C494 1.391 . S
C493 C492 1.386 . S
C493 C497 1.393 . S
C494 H483 0.950 . S
C494 C492 1.391 . S
C494 C495 1.400 . S
C495 C489 1.491 . S
C495 C494 1.400 . S
C495 C496 1.398 . S
C496 H484 0.950 . S
C496 C495 1.398 . S
C496 C497 1.391 . S
C497 H485 0.950 . S
C497 C493 1.393 . S
C497 C496 1.391 . S
H498 C506 0.950 . S
H499 C511 0.950 . S
H500 C508 0.950 . S
H501 C510 0.950 . S
H502 C512 0.950 . S
H503 C514 0.950 . S
H504 C516 0.950 . S
H505 C517 0.950 . S
C506 H498 0.950 . S
C506 C507 1.386 . S
C506 C508 1.391 . S
C507 C506 1.386 . S
C507 C511 1.393 1_545 S
C508 H500 0.950 . S
C508 C506 1.391 . S
C508 C509 1.400 . S
C509 C508 1.400 . S
C509 C510 1.398 1_545 S
C509 C515 1.491 . S
C510 H501 0.950 . S
C510 C509 1.398 1_565 S
C510 C511 1.391 . S
C511 H499 0.950 . S
C511 C507 1.393 1_565 S
C511 C510 1.391 . S
C512 H502 0.950 . S
C512 C513 1.386 1_565 S
C512 C514 1.391 . S
C513 C512 1.386 1_545 S
C513 C517 1.393 . S
C514 H503 0.950 . S
C514 C512 1.391 . S
C514 C515 1.400 1_565 S
C515 C509 1.491 . S
C515 C514 1.400 1_545 S
C515 C516 1.398 . S
C516 H504 0.950 . S
C516 C515 1.398 . S
C516 C517 1.391 . S
C517 H505 0.950 . S
C517 C513 1.393 . S
C517 C516 1.391 . S
H518 C526 0.950 . S
H519 C531 0.950 . S
H520 C528 0.950 . S
H521 C530 0.950 . S
H522 C532 0.950 . S
H523 C534 0.950 . S
H524 C536 0.978 . S
H525 C537 0.950 . S
C526 H518 0.950 . S
C526 C527 1.386 . S
C526 C528 1.391 . S
C527 C526 1.386 . S
C527 C531 1.393 . S
C528 H520 0.950 . S
C528 C526 1.391 . S
C528 C529 1.400 . S
C529 C528 1.400 . S
C529 C530 1.398 . S
C529 C535 1.491 . S
C530 H521 0.950 . S
C530 C529 1.398 . S
C530 C531 1.391 . S
C531 H519 0.950 . S
C531 C527 1.393 . S
C531 C530 1.391 . S
C532 H522 0.950 . S
C532 C533 1.386 . S
C532 C534 1.391 . S
C533 C532 1.386 . S
C533 C537 1.393 . S
C534 H523 0.950 . S
C534 C532 1.391 . S
C534 C535 1.400 1_554 S
C535 C529 1.491 . S
C535 C534 1.400 1_556 S
C535 C536 1.407 . S
C536 H524 0.978 . S
C536 C535 1.407 . S
C536 C537 1.355 1_556 S
C537 H525 0.950 . S
C537 C533 1.393 . S
C537 C536 1.355 1_554 S
H538 C546 0.950 . S
H539 C551 0.950 1_655 S
H540 C548 0.950 . S
H541 C550 0.950 . S
H542 C552 0.950 . S
H543 C554 0.950 . S
H544 C556 0.950 . S
H545 C557 0.950 . S
C546 H538 0.950 . S
C546 C547 1.401 . S
C546 C548 1.391 . S
C547 C546 1.401 . S
C547 C551 1.378 . S
C548 H540 0.950 . S
C548 C546 1.391 . S
C548 C549 1.400 . S
C549 C548 1.400 . S
C549 C550 1.398 . S
C549 C555 1.491 . S
C550 H541 0.950 . S
C550 C549 1.398 . S
C550 C551 1.391 . S
C551 H539 0.950 1_455 S
C551 C547 1.378 . S
C551 C550 1.391 . S
C552 H542 0.950 . S
C552 C553 1.386 . S
C552 C554 1.391 . S
C553 C552 1.386 . S
C553 C557 1.393 . S
C554 H543 0.950 . S
C554 C552 1.391 . S
C554 C555 1.400 . S
C555 C549 1.491 . S
C555 C554 1.400 . S
C555 C556 1.398 . S
C556 H544 0.950 . S
C556 C555 1.398 . S
C556 C557 1.391 . S
C557 H545 0.950 . S
C557 C553 1.393 . S
C557 C556 1.391 . S
C207 C6 0.590 . S
C213 C189 0.600 . S
C227 C59 1.829 . S
C233 C167 1.805 . S
C247 C86 1.169 . S
C253 C180 1.170 . S
C267 C15 0.438 . S
C273 C193 0.278 . S
C293 C163 1.871 . S
C287 C50 2.007 . S
C313 C176 1.288 . S
C307 C95 1.319 . S
C327 C46 1.090 . S
C333 C141 1.093 . S
C347 C99 3.023 . S
C353 C154 2.984 1_655 S
C367 C10 2.012 . S
C373 C124 1.894 . S
C393 C137 1.290 . S
C387 C55 1.353 . S
C413 C150 2.896 . S
C407 C90 3.057 . S
C427 C19 1.843 . S
C433 C128 1.826 . S
C453 C155 1.750 . S
C447 C18 1.701 . S
C467 C49 1.457 . S
C473 C129 1.487 . S
C487 C98 1.495 . S
C493 C142 1.599 . S
C513 C181 1.539 . S
C507 C58 1.453 . S
C533 C194 1.322 . S
C527 C89 1.312 . S
C547 C9 1.425 . S
C553 C168 1.476 . S
