# Generated by pormake.
# Topology ptr, (4,4)-cn, num edge types: 1
# Building blocks:
#     Node 0, Type 0, BuildingBlock: CEKHIL_clean_sbu_0, # of connection points: 4
#     Node 1, Type 0, BuildingBlock: CEKHIL_clean_sbu_0, # of connection points: 4
#     Node 2, Type 0, BuildingBlock: CEKHIL_clean_sbu_0, # of connection points: 4
#     Node 3, Type 0, BuildingBlock: CEKHIL_clean_sbu_0, # of connection points: 4
#     Node 4, Type 0, BuildingBlock: CEKHIL_clean_sbu_0, # of connection points: 4
#     Node 5, Type 0, BuildingBlock: CEKHIL_clean_sbu_0, # of connection points: 4
#     Node 6, Type 0, BuildingBlock: CEKHIL_clean_sbu_0, # of connection points: 4
#     Node 7, Type 0, BuildingBlock: CEKHIL_clean_sbu_0, # of connection points: 4
#     Node 8, Type 0, BuildingBlock: CEKHIL_clean_sbu_0, # of connection points: 4
#     Node 9, Type 0, BuildingBlock: CEKHIL_clean_sbu_0, # of connection points: 4
#     Node 10, Type 0, BuildingBlock: CEKHIL_clean_sbu_0, # of connection points: 4
#     Node 11, Type 0, BuildingBlock: CEKHIL_clean_sbu_0, # of connection points: 4
#     Node 12, Type 0, BuildingBlock: CEKHIL_clean_sbu_0, # of connection points: 4
#     Node 13, Type 0, BuildingBlock: CEKHIL_clean_sbu_0, # of connection points: 4
#     Node 14, Type 0, BuildingBlock: CEKHIL_clean_sbu_0, # of connection points: 4
#     Node 15, Type 0, BuildingBlock: CEKHIL_clean_sbu_0, # of connection points: 4
#     Node 16, Type 0, BuildingBlock: CEKHIL_clean_sbu_0, # of connection points: 4
#     Node 17, Type 0, BuildingBlock: CEKHIL_clean_sbu_0, # of connection points: 4
#     Node 18, Type 1, BuildingBlock: MIFKUJ_clean_linker_1, # of connection points: 4
#     Node 19, Type 1, BuildingBlock: MIFKUJ_clean_linker_1, # of connection points: 4
#     Node 20, Type 1, BuildingBlock: MIFKUJ_clean_linker_1, # of connection points: 4
#     Node 21, Type 1, BuildingBlock: MIFKUJ_clean_linker_1, # of connection points: 4
#     Node 22, Type 1, BuildingBlock: MIFKUJ_clean_linker_1, # of connection points: 4
#     Node 23, Type 1, BuildingBlock: MIFKUJ_clean_linker_1, # of connection points: 4
#     Node 24, Type 1, BuildingBlock: MIFKUJ_clean_linker_1, # of connection points: 4
#     Node 25, Type 1, BuildingBlock: MIFKUJ_clean_linker_1, # of connection points: 4
#     Node 26, Type 1, BuildingBlock: MIFKUJ_clean_linker_1, # of connection points: 4
#     Node 27, Type 1, BuildingBlock: MIFKUJ_clean_linker_1, # of connection points: 4
#     Node 28, Type 1, BuildingBlock: MIFKUJ_clean_linker_1, # of connection points: 4
#     Node 29, Type 1, BuildingBlock: MIFKUJ_clean_linker_1, # of connection points: 4
#     Node 30, Type 1, BuildingBlock: MIFKUJ_clean_linker_1, # of connection points: 4
#     Node 31, Type 1, BuildingBlock: MIFKUJ_clean_linker_1, # of connection points: 4
#     Node 32, Type 1, BuildingBlock: MIFKUJ_clean_linker_1, # of connection points: 4
#     Node 33, Type 1, BuildingBlock: MIFKUJ_clean_linker_1, # of connection points: 4
#     Node 34, Type 1, BuildingBlock: MIFKUJ_clean_linker_1, # of connection points: 4
#     Node 35, Type 1, BuildingBlock: MIFKUJ_clean_linker_1, # of connection points: 4
#     Edge 36, Type (0, 1), BuildingBlock: XUDNAN_clean_linker_2, # of connection points: 2
#     Edge 37, Type (0, 1), BuildingBlock: XUDNAN_clean_linker_2, # of connection points: 2
#     Edge 38, Type (0, 1), BuildingBlock: XUDNAN_clean_linker_2, # of connection points: 2
#     Edge 39, Type (0, 1), BuildingBlock: XUDNAN_clean_linker_2, # of connection points: 2
#     Edge 40, Type (0, 1), BuildingBlock: XUDNAN_clean_linker_2, # of connection points: 2
#     Edge 41, Type (0, 1), BuildingBlock: XUDNAN_clean_linker_2, # of connection points: 2
#     Edge 42, Type (0, 1), BuildingBlock: XUDNAN_clean_linker_2, # of connection points: 2
#     Edge 43, Type (0, 1), BuildingBlock: XUDNAN_clean_linker_2, # of connection points: 2
#     Edge 44, Type (0, 1), BuildingBlock: XUDNAN_clean_linker_2, # of connection points: 2
#     Edge 45, Type (0, 1), BuildingBlock: XUDNAN_clean_linker_2, # of connection points: 2
#     Edge 46, Type (0, 1), BuildingBlock: XUDNAN_clean_linker_2, # of connection points: 2
#     Edge 47, Type (0, 1), BuildingBlock: XUDNAN_clean_linker_2, # of connection points: 2
#     Edge 48, Type (0, 1), BuildingBlock: XUDNAN_clean_linker_2, # of connection points: 2
#     Edge 49, Type (0, 1), BuildingBlock: XUDNAN_clean_linker_2, # of connection points: 2
#     Edge 50, Type (0, 1), BuildingBlock: XUDNAN_clean_linker_2, # of connection points: 2
#     Edge 51, Type (0, 1), BuildingBlock: XUDNAN_clean_linker_2, # of connection points: 2
#     Edge 52, Type (0, 1), BuildingBlock: XUDNAN_clean_linker_2, # of connection points: 2
#     Edge 53, Type (0, 1), BuildingBlock: XUDNAN_clean_linker_2, # of connection points: 2
#     Edge 54, Type (0, 1), BuildingBlock: XUDNAN_clean_linker_2, # of connection points: 2
#     Edge 55, Type (0, 1), BuildingBlock: XUDNAN_clean_linker_2, # of connection points: 2
#     Edge 56, Type (0, 1), BuildingBlock: XUDNAN_clean_linker_2, # of connection points: 2
#     Edge 57, Type (0, 1), BuildingBlock: XUDNAN_clean_linker_2, # of connection points: 2
#     Edge 58, Type (0, 1), BuildingBlock: XUDNAN_clean_linker_2, # of connection points: 2
#     Edge 59, Type (0, 1), BuildingBlock: XUDNAN_clean_linker_2, # of connection points: 2
#     Edge 60, Type (0, 1), BuildingBlock: XUDNAN_clean_linker_2, # of connection points: 2
#     Edge 61, Type (0, 1), BuildingBlock: XUDNAN_clean_linker_2, # of connection points: 2
#     Edge 62, Type (0, 1), BuildingBlock: XUDNAN_clean_linker_2, # of connection points: 2
#     Edge 63, Type (0, 1), BuildingBlock: XUDNAN_clean_linker_2, # of connection points: 2
#     Edge 64, Type (0, 1), BuildingBlock: XUDNAN_clean_linker_2, # of connection points: 2
#     Edge 65, Type (0, 1), BuildingBlock: XUDNAN_clean_linker_2, # of connection points: 2
#     Edge 66, Type (0, 1), BuildingBlock: XUDNAN_clean_linker_2, # of connection points: 2
#     Edge 67, Type (0, 1), BuildingBlock: XUDNAN_clean_linker_2, # of connection points: 2
#     Edge 68, Type (0, 1), BuildingBlock: XUDNAN_clean_linker_2, # of connection points: 2
#     Edge 69, Type (0, 1), BuildingBlock: XUDNAN_clean_linker_2, # of connection points: 2
#     Edge 70, Type (0, 1), BuildingBlock: XUDNAN_clean_linker_2, # of connection points: 2
#     Edge 71, Type (0, 1), BuildingBlock: XUDNAN_clean_linker_2, # of connection points: 2
#     Edge 72, Type (0, 1), BuildingBlock: XUDNAN_clean_linker_2, # of connection points: 2
#     Edge 73, Type (0, 1), BuildingBlock: XUDNAN_clean_linker_2, # of connection points: 2
#     Edge 74, Type (0, 1), BuildingBlock: XUDNAN_clean_linker_2, # of connection points: 2
#     Edge 75, Type (0, 1), BuildingBlock: XUDNAN_clean_linker_2, # of connection points: 2
#     Edge 76, Type (0, 1), BuildingBlock: XUDNAN_clean_linker_2, # of connection points: 2
#     Edge 77, Type (0, 1), BuildingBlock: XUDNAN_clean_linker_2, # of connection points: 2
#     Edge 78, Type (0, 1), BuildingBlock: XUDNAN_clean_linker_2, # of connection points: 2
#     Edge 79, Type (0, 1), BuildingBlock: XUDNAN_clean_linker_2, # of connection points: 2
#     Edge 80, Type (0, 1), BuildingBlock: XUDNAN_clean_linker_2, # of connection points: 2
#     Edge 81, Type (0, 1), BuildingBlock: XUDNAN_clean_linker_2, # of connection points: 2
#     Edge 82, Type (0, 1), BuildingBlock: XUDNAN_clean_linker_2, # of connection points: 2
#     Edge 83, Type (0, 1), BuildingBlock: XUDNAN_clean_linker_2, # of connection points: 2
#     Edge 84, Type (0, 1), BuildingBlock: XUDNAN_clean_linker_2, # of connection points: 2
#     Edge 85, Type (0, 1), BuildingBlock: XUDNAN_clean_linker_2, # of connection points: 2
#     Edge 86, Type (0, 1), BuildingBlock: XUDNAN_clean_linker_2, # of connection points: 2
#     Edge 87, Type (0, 1), BuildingBlock: XUDNAN_clean_linker_2, # of connection points: 2
#     Edge 88, Type (0, 1), BuildingBlock: XUDNAN_clean_linker_2, # of connection points: 2
#     Edge 89, Type (0, 1), BuildingBlock: XUDNAN_clean_linker_2, # of connection points: 2
#     Edge 90, Type (0, 1), BuildingBlock: XUDNAN_clean_linker_2, # of connection points: 2
#     Edge 91, Type (0, 1), BuildingBlock: XUDNAN_clean_linker_2, # of connection points: 2
#     Edge 92, Type (0, 1), BuildingBlock: XUDNAN_clean_linker_2, # of connection points: 2
#     Edge 93, Type (0, 1), BuildingBlock: XUDNAN_clean_linker_2, # of connection points: 2
#     Edge 94, Type (0, 1), BuildingBlock: XUDNAN_clean_linker_2, # of connection points: 2
#     Edge 95, Type (0, 1), BuildingBlock: XUDNAN_clean_linker_2, # of connection points: 2
#     Edge 96, Type (0, 1), BuildingBlock: XUDNAN_clean_linker_2, # of connection points: 2
#     Edge 97, Type (0, 1), BuildingBlock: XUDNAN_clean_linker_2, # of connection points: 2
#     Edge 98, Type (0, 1), BuildingBlock: XUDNAN_clean_linker_2, # of connection points: 2
#     Edge 99, Type (0, 1), BuildingBlock: XUDNAN_clean_linker_2, # of connection points: 2
#     Edge 100, Type (0, 1), BuildingBlock: XUDNAN_clean_linker_2, # of connection points: 2
#     Edge 101, Type (0, 1), BuildingBlock: XUDNAN_clean_linker_2, # of connection points: 2
#     Edge 102, Type (0, 1), BuildingBlock: XUDNAN_clean_linker_2, # of connection points: 2
#     Edge 103, Type (0, 1), BuildingBlock: XUDNAN_clean_linker_2, # of connection points: 2
#     Edge 104, Type (0, 1), BuildingBlock: XUDNAN_clean_linker_2, # of connection points: 2
#     Edge 105, Type (0, 1), BuildingBlock: XUDNAN_clean_linker_2, # of connection points: 2
#     Edge 106, Type (0, 1), BuildingBlock: XUDNAN_clean_linker_2, # of connection points: 2
#     Edge 107, Type (0, 1), BuildingBlock: XUDNAN_clean_linker_2, # of connection points: 2
# Relax obj value: 0.037
# Max RMSD: 0.119
# Mean RMSD: 0.059
data_MOF--net-ptr--node1-CEKHIL_clean_sbu_0--node2-MIFKUJ_clean_linker_1--edge1-XUDNAN_clean_linker_2
_symmetry_space_group_name_H-M    P1
_symmetry_Int_Tables_number       1
_symmetry_cell_setting            triclinic
loop_
_symmetry_equiv_pos_as_xyz
'x, y, z'
_cell_length_a     89.719015
_cell_length_b     88.853632
_cell_length_c     62.191605
_cell_angle_alpha  90.888009
_cell_angle_beta   89.433571
_cell_angle_gamma 120.94168
loop_
_atom_site_label
_atom_site_type_symbol
_atom_site_fract_x
_atom_site_fract_y
_atom_site_fract_z
_atom_type_partial_charge
Co0 Co 0.00866 0.34792 0.00954 0.0
O1 O 0.01002 0.3336 0.03143 0.0
O2 O 0.03276 0.35702 0.01748 0.0
C3 C 0.98969 0.32594 0.98779 0.0
O4 O 0.01201 0.36552 0.98625 0.0
Co5 Co 0.97305 0.34547 1.00205 0.0
O6 O 0.98615 0.36316 0.97964 0.0
C7 C 0.99229 0.36054 0.04198 0.0
C8 C 0.02672 0.34424 0.03116 0.0
C9 C 1.00236 0.36992 0.97609 0.0
O10 O 0.00618 0.36265 0.03284 0.0
O11 O 0.97726 0.35186 0.03332 0.0
O12 O 0.00609 0.33097 0.98696 0.0
O13 O 0.98531 0.33288 0.00304 0.0
Co14 Co 0.65866 0.65801 0.00728 0.0
O15 O 0.67387 0.67117 0.98407 0.0
O16 O 0.67017 0.6461 0.99577 0.0
C17 C 0.66743 0.68122 0.0297 0.0
O18 O 0.64464 0.64129 0.03164 0.0
Co19 Co 0.63016 0.66581 0.02292 0.0
O20 O 0.62907 0.65167 0.0479 0.0
C21 C 0.62651 0.64795 0.98124 0.0
C22 C 0.67805 0.65923 0.98267 0.0
C23 C 0.635 0.64136 0.04711 0.0
O24 O 0.63878 0.64519 0.98634 0.0
O25 O 0.62233 0.65732 0.9927 0.0
O26 O 0.6764 0.67352 0.02806 0.0
O27 O 0.65454 0.67564 0.01661 0.0
Co28 Co 0.34448 1.00086 0.00853 0.0
O29 O 0.33078 0.00419 0.98784 0.0
O30 O 0.35498 0.02572 0.00231 0.0
C31 C 0.32243 0.98233 0.02996 0.0
O32 O 0.36159 0.00199 0.03096 0.0
Co33 Co 0.33967 0.96399 0.01215 0.0
O34 O 0.35382 0.9742 0.03847 0.0
C35 C 0.36022 0.98623 0.97629 0.0
C36 C 0.34215 0.02083 0.98895 0.0
C37 C 0.36299 0.99066 0.04217 0.0
O38 O 0.35841 0.99855 0.98451 0.0
O39 O 0.3529 0.9708 0.98416 0.0
O40 O 0.32909 0.99918 0.03173 0.0
O41 O 0.32781 0.97712 0.01367 0.0
Co42 Co 0.99558 0.65686 0.01302 0.0
O43 O 0.98759 0.66457 0.98907 0.0
O44 O 0.97136 0.64046 0.00777 0.0
C45 C 0.01005 0.68311 0.03026 0.0
O46 O 0.99803 0.64453 0.03885 0.0
Co47 Co 0.03434 0.67152 0.02446 0.0
O48 O 0.0254 0.65733 0.05093 0.0
C49 C 0.01747 0.64465 0.9897 0.0
C50 C 0.97237 0.65079 0.99255 0.0
C51 C 0.00931 0.64578 0.05249 0.0
O52 O 1.00265 0.64335 0.99309 0.0
O53 O 0.03144 0.65571 0.99953 0.0
O54 O 0.99331 0.67317 0.03233 0.0
O55 O 0.01724 0.67756 0.01681 0.0
Co56 Co 0.34295 0.34582 0.01386 0.0
O57 O 0.32679 0.33185 0.03591 0.0
O58 O 0.3293 0.35609 0.0227 0.0
C59 C 0.33771 0.3234 0.99159 0.0
O60 O 0.35791 0.36338 0.99073 0.0
Co61 Co 0.37457 0.34166 0.00361 0.0
O62 O 0.37797 0.35712 0.97918 0.0
C63 C 0.37522 0.36144 0.04233 0.0
C64 C 0.32174 0.34315 0.03611 0.0
C65 C 0.37039 0.3659 0.978 0.0
O66 O 0.36075 0.35987 0.03664 0.0
O67 O 0.38252 0.35438 0.03199 0.0
O68 O 0.32762 0.32989 0.99157 0.0
O69 O 0.3495 0.32947 0.00637 0.0
Co70 Co 0.66106 0.00464 0.01173 0.0
O71 O 0.6694 0.99338 0.03024 0.0
O72 O 0.6474 0.97932 0.00768 0.0
C73 C 0.68747 0.02575 0.99968 0.0
O74 O 0.64931 0.0121 0.98971 0.0
Co75 Co 0.67146 0.04327 0.02156 0.0
O76 O 0.66187 0.04147 0.99234 0.0
C77 C 0.64615 0.01497 0.04928 0.0
C78 C 0.65731 0.97855 0.02225 0.0
C79 C 0.65187 0.02687 0.98281 0.0
O80 O 0.64479 0.00347 0.03533 0.0
O81 O 0.65733 0.03138 0.04789 0.0
O82 O 0.67975 0.0102 0.99085 0.0
O83 O 0.67982 0.02737 0.01645 0.0
Co84 Co 0.67801 0.6834 0.34063 0.0
O85 O 0.68588 0.67287 0.36135 0.0
O86 O 0.70304 0.69555 0.34095 0.0
C87 C 0.65693 0.65763 0.32639 0.0
O88 O 0.67571 0.69798 0.31727 0.0
Co89 Co 0.64096 0.67746 0.33837 0.0
O90 O 0.64812 0.69021 0.31076 0.0
C91 C 0.66564 0.7012 0.37183 0.0
C92 C 0.70159 0.6847 0.35573 0.0
C93 C 0.66427 0.69929 0.30646 0.0
O94 O 0.67804 0.69967 0.36363 0.0
O95 O 0.65 0.69272 0.36483 0.0
O96 O 0.6729 0.66449 0.31973 0.0
O97 O 0.65438 0.66614 0.3415 0.0
Co98 Co 0.327 0.99385 0.34348 0.0
O99 O 0.34332 0.00751 0.32131 0.0
O100 O 0.34386 0.98656 0.33947 0.0
C101 C 0.32767 0.01691 0.36038 0.0
O102 O 0.31305 0.97768 0.36827 0.0
Co103 Co 0.2918 0.99244 0.34917 0.0
O104 O 0.29212 0.98331 0.37792 0.0
C105 C 0.29572 0.9713 0.31473 0.0
C106 C 0.35084 0.99864 0.32491 0.0
C107 C 0.30118 0.97632 0.38131 0.0
O108 O 0.31107 0.97592 0.3214 0.0
O109 O 0.28651 0.97716 0.32294 0.0
O110 O 0.33967 0.01322 0.36417 0.0
O111 O 0.31664 0.00746 0.34567 0.0
Co112 Co 0.01495 0.34315 0.35073 0.0
O113 O 0.00533 0.35111 0.32898 0.0
O114 O 0.0289 0.36821 0.34825 0.0
C115 C 0.98985 0.32502 0.36783 0.0
O116 O 0.02877 0.34079 0.37479 0.0
Co117 Co 0.00634 0.30505 0.35428 0.0
O118 O 0.02016 0.31273 0.38122 0.0
C119 C 0.02952 0.32698 0.3196 0.0
C120 C 0.01811 0.36683 0.33351 0.0
C121 C 0.0295 0.32902 0.38572 0.0
O122 O 0.02954 0.34022 0.32821 0.0
O123 O 0.02014 0.31135 0.32668 0.0
O124 O 0.99812 0.34182 0.37161 0.0
O125 O 0.9961 0.31977 0.35255 0.0
Co126 Co 0.66599 0.99055 0.34196 0.0
O127 O 0.66354 0.00578 0.32258 0.0
O128 O 0.64164 0.98318 0.33903 0.0
C129 C 0.6884 0.01196 0.36085 0.0
O130 O 0.66372 0.97251 0.36384 0.0
Co131 Co 0.70016 0.98949 0.34195 0.0
O132 O 0.68996 0.97544 0.36826 0.0
C133 C 0.6751 0.9724 0.30669 0.0
C134 C 0.64694 0.99632 0.32602 0.0
C135 C 0.67402 0.96871 0.3735 0.0
O136 O 0.6639 0.97459 0.31718 0.0
O137 O 0.69082 0.97886 0.31291 0.0
O138 O 0.6726 0.00803 0.3652 0.0
O139 O 0.69014 0.00417 0.34419 0.0
Co140 Co 0.01477 0.67689 0.34793 0.0
O141 O 0.99947 0.66363 0.37099 0.0
O142 O 0.9973 0.68335 0.35212 0.0
C143 C 0.01497 0.65422 0.3314 0.0
O144 O 0.02813 0.69279 0.32273 0.0
Co145 Co 0.05062 0.67927 0.34323 0.0
O146 O 0.05157 0.69056 0.31559 0.0
C147 C 0.04486 0.69856 0.37815 0.0
C148 C 0.99153 0.67213 0.36774 0.0
C149 C 0.0415 0.69624 0.31114 0.0
O150 O 0.03065 0.6955 0.36928 0.0
O151 O 0.05368 0.69179 0.37139 0.0
O152 O 1.00231 0.65698 0.32782 0.0
O153 O 0.02583 0.66407 0.346 0.0
Co154 Co 0.32712 0.33213 0.34429 0.0
O155 O 0.34091 0.33107 0.36702 0.0
O156 O 0.31741 0.30799 0.35357 0.0
C157 C 0.34985 0.34966 0.32267 0.0
O158 O 0.30983 0.3281 0.32032 0.0
Co159 Co 0.33016 0.36725 0.33371 0.0
O160 O 0.31437 0.35423 0.30957 0.0
C161 C 0.31039 0.34839 0.37198 0.0
C162 C 0.33012 0.31427 0.36733 0.0
C163 C 0.30666 0.33761 0.3079 0.0
O164 O 0.31257 0.33566 0.36641 0.0
O165 O 0.31713 0.36281 0.36168 0.0
O166 O 0.34328 0.33279 0.32287 0.0
O167 O 0.34348 0.35571 0.33683 0.0
Co168 Co 0.34189 0.01516 0.68467 0.0
O169 O 0.34421 1.00106 0.7059 0.0
O170 O 0.36638 0.0241 0.69067 0.0
C171 C 0.32155 0.99161 0.66586 0.0
O172 O 0.34434 0.03241 0.66139 0.0
Co173 Co 0.30647 0.01262 0.67757 0.0
O174 O 0.31782 0.02665 0.65162 0.0
C175 C 0.32694 0.02933 0.71688 0.0
C176 C 0.36088 0.01113 0.70403 0.0
C177 C 0.33426 0.03484 0.64911 0.0
O178 O 0.34053 0.03035 0.70821 0.0
O179 O 0.31188 0.02115 0.70816 0.0
O180 O 0.33795 0.99748 0.66239 0.0
O181 O 0.31819 0.99969 0.68069 0.0
Co182 Co 0.99318 0.32897 0.67154 0.0
O183 O 0.01088 0.3441 0.65151 0.0
O184 O 0.01023 0.32183 0.66786 0.0
C185 C 0.99293 0.35111 0.68975 0.0
O186 O 0.97748 0.31099 0.69391 0.0
Co187 Co 0.95791 0.32776 0.67458 0.0
O188 O 0.95378 0.31295 0.70005 0.0
C189 C 0.9663 0.31304 0.63675 0.0
C190 C 0.01807 0.33484 0.65459 0.0
C191 C 0.96329 0.30656 0.70425 0.0
O192 O 0.97872 0.31308 0.64701 0.0
O193 O 0.95794 0.32013 0.64408 0.0
O194 O 0.00445 0.34694 0.69446 0.0
O195 O 0.98288 0.3425 0.67392 0.0
Co196 Co 0.67841 0.66945 0.6749 0.0
O197 O 0.66794 0.67763 0.65463 0.0
O198 O 0.68958 0.69463 0.67668 0.0
C199 C 0.65337 0.64709 0.6883 0.0
O200 O 0.6924 0.66652 0.69831 0.0
Co201 Co 0.67384 0.63247 0.67247 0.0
O202 O 0.68614 0.63869 0.70051 0.0
C203 C 0.69719 0.65961 0.64167 0.0
C204 C 0.67896 0.69334 0.66172 0.0
C205 C 0.694 0.6545 0.70738 0.0
O206 O 0.69547 0.67126 0.65216 0.0
O207 O 0.6886 0.64328 0.64624 0.0
O208 O 0.65938 0.66303 0.6954 0.0
O209 O 0.66185 0.64544 0.67245 0.0
Co210 Co 0.33372 0.32573 0.67927 0.0
O211 O 0.32642 0.33703 0.65906 0.0
O212 O 0.3094 0.31071 0.67295 0.0
C213 C 0.34905 0.34912 0.70113 0.0
O214 O 0.33564 0.3099 0.70105 0.0
Co215 Co 0.37205 0.33685 0.68642 0.0
O216 O 0.36321 0.32137 0.71183 0.0
C217 C 0.35378 0.31564 0.64811 0.0
C218 C 0.3111 0.32296 0.66022 0.0
C219 C 0.34709 0.31 0.71346 0.0
O220 O 0.3397 0.31465 0.6548 0.0
O221 O 0.36833 0.32444 0.6579 0.0
O222 O 0.33223 0.33954 0.70289 0.0
O223 O 0.35586 0.34523 0.68516 0.0
Co224 Co 0.67985 0.01507 0.67478 0.0
O225 O 0.66163 0.00689 0.69596 0.0
O226 O 0.66872 0.0288 0.6737 0.0
C227 C 0.67276 0.98817 0.6626 0.0
O228 O 0.69732 0.0268 0.65036 0.0
Co229 Co 0.70852 0.00541 0.67668 0.0
O230 O 0.71301 0.01371 0.64651 0.0
C231 C 0.70947 0.03194 0.7069 0.0
C232 C 0.65889 0.01902 0.68929 0.0
C233 C 0.70813 0.024 0.63989 0.0
O234 O 0.6971 0.03191 0.69652 0.0
O235 O 0.71489 0.02143 0.70248 0.0
O236 O 0.66464 0.99565 0.65526 0.0
O237 O 0.68384 0.99659 0.67768 0.0
Co238 Co 0.99512 0.67236 0.68111 0.0
O239 O 0.00676 0.66928 0.70492 0.0
O240 O 0.98388 0.64758 0.68855 0.0
C241 C 0.02006 0.69082 0.66332 0.0
O242 O 0.97984 0.67054 0.65565 0.0
Co243 Co 1.00163 0.70925 0.67031 0.0
O244 O 0.98755 0.69753 0.6444 0.0
C245 C 0.981 0.69054 0.70869 0.0
C246 C 0.99552 0.65262 0.70364 0.0
C247 C 0.97849 0.68088 0.64249 0.0
O248 O 0.97986 0.67616 0.70205 0.0
O249 O 0.99043 0.70527 0.69936 0.0
O250 O 0.01308 0.67394 0.66109 0.0
O251 O 0.01233 0.69578 0.67664 0.0
H252 H 0.15651 0.35299 0.2055 0.0
H253 H 0.13446 0.35484 0.22682 0.0
H254 H 0.09413 0.30858 0.19442 0.0
H255 H 0.11638 0.30687 0.1728 0.0
H256 H 0.16301 0.32527 0.20237 0.0
H257 H 0.14268 0.35566 0.15947 0.0
H258 H 0.11969 0.35768 0.14133 0.0
H259 H 0.11254 0.31687 0.09674 0.0
H260 H 0.13482 0.314 0.11572 0.0
H261 H 0.18044 0.31379 0.11468 0.0
H262 H 0.20613 0.31638 0.09656 0.0
H263 H 0.23929 0.35517 0.14357 0.0
H264 H 0.21385 0.35336 0.16095 0.0
H265 H 0.16818 0.33443 0.12352 0.0
H266 H 0.18744 0.30304 0.1674 0.0
H267 H 0.20867 0.29942 0.18754 0.0
H268 H 0.21856 0.34332 0.2286 0.0
H269 H 0.19706 0.34651 0.20877 0.0
C270 C 0.13806 0.32986 0.18751 0.0
C271 C 0.14293 0.34321 0.20302 0.0
C272 C 0.13034 0.34431 0.21508 0.0
C273 C 0.11262 0.33192 0.21214 0.0
C274 C 0.10772 0.31827 0.19698 0.0
C275 C 0.12037 0.31731 0.18463 0.0
C276 C 0.15171 0.32942 0.17438 0.0
C277 C 0.16417 0.32729 0.18513 0.0
C278 C 0.1529 0.33171 0.15177 0.0
C279 C 0.14015 0.33424 0.13949 0.0
C280 C 0.13604 0.34693 0.14601 0.0
C281 C 0.12306 0.34825 0.1355 0.0
C282 C 0.11439 0.33739 0.11773 0.0
C283 C 0.11912 0.32541 0.11038 0.0
C284 C 0.13183 0.32378 0.12124 0.0
C285 C 0.19516 0.33303 0.13953 0.0
C286 C 0.19325 0.32308 0.12086 0.0
C287 C 0.20787 0.32455 0.11053 0.0
C288 C 0.22455 0.33585 0.11888 0.0
C289 C 0.22651 0.34627 0.13701 0.0
C290 C 0.21197 0.34511 0.14702 0.0
C291 C 0.17968 0.33055 0.15161 0.0
C292 C 0.16686 0.3321 0.14069 0.0
C293 C 0.17804 0.32764 0.17408 0.0
C294 C 0.19066 0.32508 0.18653 0.0
C295 C 0.19417 0.31184 0.18079 0.0
C296 C 0.2064 0.30985 0.19228 0.0
C297 C 0.21538 0.32104 0.20979 0.0
C298 C 0.2117 0.3342 0.21553 0.0
C299 C 0.19943 0.33611 0.20413 0.0
H300 H 0.69092 0.87391 0.18837 0.0
H301 H 0.68776 0.89546 0.20921 0.0
H302 H 0.64026 0.88069 0.1751 0.0
H303 H 0.64284 0.85814 0.1555 0.0
H304 H 0.67155 0.84026 0.1893 0.0
H305 H 0.68946 0.8827 0.13043 0.0
H306 H 0.68574 0.90222 0.10676 0.0
H307 H 0.63542 0.85883 0.08762 0.0
H308 H 0.63978 0.83934 0.11044 0.0
H309 H 0.6492 0.79746 0.11124 0.0
H310 H 0.65288 0.77507 0.09321 0.0
H311 H 0.70079 0.79324 0.12824 0.0
H312 H 0.69809 0.81688 0.14365 0.0
H313 H 0.66749 0.832 0.11005 0.0
H314 H 0.64618 0.79353 0.17795 0.0
H315 H 0.6486 0.77424 0.20326 0.0
H316 H 0.70455 0.80919 0.20383 0.0
H317 H 0.70147 0.82918 0.18073 0.0
C318 C 0.66722 0.86446 0.1702 0.0
C319 C 0.67983 0.87533 0.18533 0.0
C320 C 0.6781 0.88785 0.19708 0.0
C321 C 0.66378 0.88997 0.19382 0.0
C322 C 0.65136 0.87933 0.17825 0.0
C323 C 0.65297 0.86659 0.16674 0.0
C324 C 0.66853 0.85021 0.1592 0.0
C325 C 0.67089 0.83865 0.17194 0.0
C326 C 0.66711 0.84767 0.13661 0.0
C327 C 0.66489 0.85957 0.1222 0.0
C328 C 0.67767 0.87743 0.12103 0.0
C329 C 0.67543 0.88861 0.10758 0.0
C330 C 0.66022 0.88223 0.09516 0.0
C331 C 0.64746 0.86426 0.09649 0.0
C332 C 0.64986 0.85306 0.10967 0.0
C333 C 0.67304 0.80852 0.12947 0.0
C334 C 0.66056 0.79666 0.11486 0.0
C335 C 0.6626 0.78364 0.10477 0.0
C336 C 0.67704 0.78196 0.10938 0.0
C337 C 0.68957 0.79403 0.12393 0.0
C338 C 0.68779 0.80737 0.13339 0.0
C339 C 0.67095 0.8224 0.14015 0.0
C340 C 0.66823 0.83373 0.1274 0.0
C341 C 0.67201 0.82478 0.16275 0.0
C342 C 0.67366 0.81265 0.17731 0.0
C343 C 0.65892 0.79698 0.18374 0.0
C344 C 0.66042 0.78583 0.1981 0.0
C345 C 0.67682 0.78986 0.20592 0.0
C346 C 0.69158 0.8056 0.19898 0.0
C347 C 0.68994 0.81704 0.18538 0.0
H348 H 0.12827 0.82952 0.1947 0.0
H349 H 0.10474 0.80711 0.21666 0.0
H350 H 0.10973 0.76689 0.18329 0.0
H351 H 0.13365 0.78937 0.16206 0.0
H352 H 0.16179 0.83808 0.19303 0.0
H353 H 0.11659 0.82173 0.14007 0.0
H354 H 0.09028 0.7989 0.12237 0.0
H355 H 0.11868 0.77484 0.09832 0.0
H356 H 0.14511 0.79828 0.11527 0.0
H357 H 0.20044 0.8474 0.11561 0.0
H358 H 0.227 0.8714 0.09941 0.0
H359 H 0.21433 0.90878 0.12577 0.0
H360 H 0.18818 0.88488 0.14212 0.0
H361 H 0.16342 0.83706 0.11318 0.0
H362 H 0.20883 0.85417 0.16803 0.0
H363 H 0.2331 0.87495 0.19067 0.0
H364 H 0.20297 0.89786 0.21211 0.0
H365 H 0.17855 0.8764 0.19033 0.0
C366 C 0.13266 0.81113 0.17662 0.0
C367 C 0.12423 0.81586 0.19208 0.0
C368 C 0.11067 0.80302 0.20447 0.0
C369 C 0.10533 0.78519 0.20173 0.0
C370 C 0.11362 0.7805 0.18596 0.0
C371 C 0.12719 0.79333 0.17364 0.0
C372 C 0.14766 0.82483 0.16425 0.0
C373 C 0.16202 0.83795 0.17559 0.0
C374 C 0.14815 0.82453 0.14149 0.0
C375 C 0.13275 0.81165 0.12898 0.0
C376 C 0.11716 0.81165 0.13069 0.0
C377 C 0.10208 0.79846 0.12074 0.0
C378 C 0.10221 0.78483 0.10907 0.0
C379 C 0.11806 0.78519 0.1069 0.0
C380 C 0.13321 0.79857 0.11662 0.0
C381 C 0.19249 0.86441 0.13025 0.0
C382 C 0.20335 0.86077 0.11764 0.0
C383 C 0.21849 0.87449 0.10839 0.0
C384 C 0.22294 0.89205 0.11157 0.0
C385 C 0.21156 0.89548 0.12344 0.0
C386 C 0.19653 0.88182 0.13269 0.0
C387 C 0.17748 0.8503 0.14206 0.0
C388 C 0.16315 0.83712 0.13062 0.0
C389 C 0.17692 0.85059 0.16477 0.0
C390 C 0.19191 0.86373 0.17766 0.0
C391 C 0.20753 0.86371 0.17765 0.0
C392 C 0.22144 0.8757 0.19049 0.0
C393 C 0.22004 0.88808 0.20342 0.0
C394 C 0.20444 0.88827 0.20286 0.0
C395 C 0.19047 0.8761 0.1903 0.0
H396 H 0.31384 0.19222 0.85651 0.0
H397 H 0.31102 0.21291 0.83394 0.0
H398 H 0.36001 0.22744 0.80334 0.0
H399 H 0.363 0.20714 0.82652 0.0
H400 H 0.34027 0.17073 0.82869 0.0
H401 H 0.31304 0.1829 0.90238 0.0
H402 H 0.31013 0.20656 0.91884 0.0
H403 H 0.36241 0.2444 0.89891 0.0
H404 H 0.36509 0.22073 0.88193 0.0
H405 H 0.36688 0.15851 0.90241 0.0
H406 H 0.36567 0.13311 0.91931 0.0
H407 H 0.31104 0.10164 0.90376 0.0
H408 H 0.31256 0.12687 0.88646 0.0
H409 H 0.34053 0.17336 0.90855 0.0
H410 H 0.36582 0.14959 0.8536 0.0
H411 H 0.36318 0.1237 0.83492 0.0
H412 H 0.31036 0.10711 0.81769 0.0
H413 H 0.31313 0.133 0.83606 0.0
C414 C 0.33876 0.19833 0.84342 0.0
C415 C 0.32412 0.2001 0.84522 0.0
C416 C 0.32243 0.21179 0.83211 0.0
C417 C 0.33529 0.22185 0.81682 0.0
C418 C 0.34999 0.2201 0.81516 0.0
C419 C 0.35166 0.20841 0.82828 0.0
C420 C 0.34021 0.18537 0.85662 0.0
C421 C 0.34064 0.17152 0.84612 0.0
C422 C 0.34027 0.18608 0.87936 0.0
C423 C 0.33928 0.20013 0.89103 0.0
C424 C 0.32392 0.19628 0.90178 0.0
C425 C 0.32223 0.20976 0.91101 0.0
C426 C 0.33604 0.22723 0.91004 0.0
C427 C 0.35163 0.231 0.8999 0.0
C428 C 0.35317 0.21755 0.89026 0.0
C429 C 0.33982 0.14449 0.89318 0.0
C430 C 0.35462 0.14617 0.90298 0.0
C431 C 0.35389 0.13166 0.91265 0.0
C432 C 0.33831 0.11526 0.91267 0.0
C433 C 0.32334 0.11394 0.90363 0.0
C434 C 0.32412 0.12838 0.89392 0.0
C435 C 0.34093 0.15899 0.88053 0.0
C436 C 0.34074 0.17294 0.89111 0.0
C437 C 0.34083 0.15828 0.85783 0.0
C438 C 0.33967 0.14314 0.84608 0.0
C439 C 0.35373 0.14039 0.84566 0.0
C440 C 0.35223 0.12567 0.83502 0.0
C441 C 0.33654 0.11342 0.82502 0.0
C442 C 0.32253 0.11628 0.82547 0.0
C443 C 0.32412 0.13108 0.83579 0.0
H444 H 0.8306 0.12518 0.82584 0.0
H445 H 0.80598 0.1057 0.80301 0.0
H446 H 0.77414 0.12181 0.83715 0.0
H447 H 0.79911 0.14206 0.85895 0.0
H448 H 0.84641 0.15941 0.82671 0.0
H449 H 0.81723 0.11472 0.88193 0.0
H450 H 0.79332 0.09494 0.9057 0.0
H451 H 0.7899 0.13898 0.92976 0.0
H452 H 0.81395 0.15857 0.90653 0.0
H453 H 0.85641 0.19927 0.90346 0.0
H454 H 0.87862 0.22668 0.91985 0.0
H455 H 0.91864 0.21992 0.89031 0.0
H456 H 0.8962 0.19187 0.8747 0.0
H457 H 0.8468 0.16656 0.90594 0.0
H458 H 0.86984 0.20977 0.85053 0.0
H459 H 0.89171 0.23208 0.82694 0.0
H460 H 0.90319 0.19382 0.80069 0.0
H461 H 0.88167 0.1717 0.82493 0.0
C462 C 0.8167 0.13495 0.84431 0.0
C463 C 0.81826 0.12438 0.82853 0.0
C464 C 0.8041 0.11314 0.81558 0.0
C465 C 0.78802 0.11216 0.8182 0.0
C466 C 0.78636 0.12238 0.83448 0.0
C467 C 0.80059 0.13377 0.84724 0.0
C468 C 0.83227 0.14844 0.85616 0.0
C469 C 0.84669 0.16069 0.8441 0.0
C470 C 0.83237 0.15047 0.87878 0.0
C471 C 0.81749 0.13816 0.89256 0.0
C472 C 0.81126 0.12006 0.89231 0.0
C473 C 0.79753 0.10875 0.90584 0.0
C474 C 0.78975 0.11535 0.91986 0.0
C475 C 0.79581 0.13344 0.91962 0.0
C476 C 0.80956 0.1447 0.90626 0.0
C477 C 0.87459 0.19358 0.88762 0.0
C478 C 0.86995 0.2035 0.90076 0.0
C479 C 0.88269 0.21932 0.9099 0.0
C480 C 0.90041 0.22568 0.90602 0.0
C481 C 0.90511 0.2154 0.89358 0.0
C482 C 0.89229 0.19944 0.88452 0.0
C483 C 0.86076 0.17764 0.87645 0.0
C484 C 0.84671 0.16496 0.8886 0.0
C485 C 0.86074 0.17547 0.85384 0.0
C486 C 0.87428 0.18911 0.83973 0.0
C487 C 0.87724 0.20625 0.83991 0.0
C488 C 0.88963 0.21895 0.82623 0.0
C489 C 0.89923 0.21477 0.81188 0.0
C490 C 0.89623 0.19758 0.81174 0.0
C491 C 0.88384 0.18487 0.82547 0.0
H492 H 0.80143 0.64349 0.81548 0.0
H493 H 0.78049 0.64587 0.7933 0.0
H494 H 0.78605 0.68834 0.83407 0.0
H495 H 0.80791 0.6867 0.85515 0.0
H496 H 0.83493 0.66637 0.82253 0.0
H497 H 0.7832 0.63684 0.87066 0.0
H498 H 0.75904 0.63785 0.88827 0.0
H499 H 0.79576 0.68678 0.91934 0.0
H500 H 0.81982 0.68557 0.90212 0.0
H501 H 0.86364 0.6802 0.90889 0.0
H502 H 0.88405 0.6758 0.93014 0.0
H503 H 0.87449 0.63236 0.88878 0.0
H504 H 0.85418 0.63676 0.86744 0.0
H505 H 0.82942 0.65898 0.90166 0.0
H506 H 0.88061 0.68681 0.86145 0.0
H507 H 0.90648 0.69256 0.84179 0.0
H508 H 0.87434 0.6548 0.79295 0.0
H509 H 0.84845 0.64798 0.8138 0.0
C510 C 0.80608 0.6647 0.83724 0.0
C511 C 0.79818 0.65336 0.81958 0.0
C512 C 0.78602 0.65461 0.80704 0.0
C513 C 0.78139 0.66721 0.81193 0.0
C514 C 0.78937 0.67858 0.82963 0.0
C515 C 0.80171 0.67748 0.84197 0.0
C516 C 0.81917 0.66337 0.8503 0.0
C517 C 0.83357 0.66435 0.83977 0.0
C518 C 0.81783 0.66167 0.87294 0.0
C519 C 0.80327 0.66118 0.88504 0.0
C520 C 0.78602 0.64762 0.88155 0.0
C521 C 0.77228 0.64818 0.89161 0.0
C522 C 0.7756 0.66243 0.90504 0.0
C523 C 0.79289 0.6757 0.90897 0.0
C524 C 0.80661 0.67498 0.89924 0.0
C525 C 0.85743 0.65885 0.88652 0.0
C526 C 0.86597 0.66977 0.90435 0.0
C527 C 0.87769 0.66736 0.91635 0.0
C528 C 0.88084 0.65387 0.91085 0.0
C529 C 0.87231 0.64294 0.89311 0.0
C530 C 0.86074 0.64544 0.88098 0.0
C531 C 0.84494 0.66134 0.87377 0.0
C532 C 0.83071 0.66067 0.88437 0.0
C533 C 0.84665 0.66367 0.8512 0.0
C534 C 0.86248 0.66673 0.83937 0.0
C535 C 0.87908 0.67936 0.84685 0.0
C536 C 0.89393 0.68288 0.83531 0.0
C537 C 0.8926 0.67429 0.81558 0.0
C538 C 0.87596 0.66152 0.80819 0.0
C539 C 0.86109 0.65776 0.81999 0.0
H540 H 0.82937 0.69318 0.53062 0.0
H541 H 0.80773 0.69616 0.55136 0.0
H542 H 0.76667 0.65087 0.51818 0.0
H543 H 0.78844 0.64775 0.49775 0.0
H544 H 0.83517 0.66605 0.52994 0.0
H545 H 0.82215 0.69755 0.47741 0.0
H546 H 0.80307 0.70301 0.45518 0.0
H547 H 0.78124 0.65135 0.42659 0.0
H548 H 0.80053 0.64599 0.44882 0.0
H549 H 0.84974 0.64572 0.44516 0.0
H550 H 0.87454 0.6462 0.42726 0.0
H551 H 0.90972 0.68788 0.47003 0.0
H552 H 0.88517 0.68813 0.48711 0.0
H553 H 0.83884 0.66762 0.45029 0.0
H554 H 0.85819 0.63975 0.49988 0.0
H555 H 0.87949 0.63743 0.52177 0.0
H556 H 0.88954 0.68366 0.55786 0.0
H557 H 0.86867 0.68617 0.53563 0.0
C558 C 0.81053 0.67028 0.51259 0.0
C559 C 0.8157 0.68392 0.52778 0.0
C560 C 0.80332 0.6857 0.53948 0.0
C561 C 0.78548 0.67379 0.53635 0.0
C562 C 0.78031 0.66019 0.52103 0.0
C563 C 0.79273 0.65846 0.50925 0.0
C564 C 0.82384 0.66828 0.50071 0.0
C565 C 0.83608 0.66648 0.51253 0.0
C566 C 0.82463 0.66833 0.47799 0.0
C567 C 0.81274 0.67137 0.46477 0.0
C568 C 0.81321 0.68737 0.46642 0.0
C569 C 0.80235 0.69049 0.45367 0.0
C570 C 0.79068 0.6776 0.43914 0.0
C571 C 0.79001 0.66145 0.43776 0.0
C572 C 0.80109 0.65843 0.45032 0.0
C573 C 0.86551 0.66656 0.4679 0.0
C574 C 0.86279 0.65515 0.45048 0.0
C575 C 0.87691 0.65542 0.44026 0.0
C576 C 0.8939 0.66699 0.44746 0.0
C577 C 0.89667 0.67876 0.46437 0.0
C578 C 0.88264 0.67876 0.47424 0.0
C579 C 0.85055 0.66577 0.47954 0.0
C580 C 0.83787 0.66689 0.46768 0.0
C581 C 0.84937 0.66511 0.50233 0.0
C582 C 0.8619 0.66323 0.51596 0.0
C583 C 0.86505 0.64943 0.51245 0.0
C584 C 0.87714 0.64804 0.52508 0.0
C585 C 0.88632 0.66042 0.5415 0.0
C586 C 0.88294 0.67406 0.54513 0.0
C587 C 0.87085 0.67542 0.53256 0.0
H588 H 0.3789 0.21782 0.5268 0.0
H589 H 0.3791 0.24214 0.54616 0.0
H590 H 0.32456 0.21953 0.53155 0.0
H591 H 0.3248 0.19588 0.51152 0.0
H592 H 0.35585 0.17968 0.53377 0.0
H593 H 0.37356 0.22282 0.47807 0.0
H594 H 0.3712 0.24585 0.46051 0.0
H595 H 0.31821 0.208 0.44273 0.0
H596 H 0.32087 0.18484 0.46003 0.0
H597 H 0.31667 0.13193 0.47701 0.0
H598 H 0.30999 0.10564 0.45611 0.0
H599 H 0.36475 0.12752 0.44347 0.0
H600 H 0.37129 0.15378 0.46463 0.0
H601 H 0.34378 0.17184 0.45536 0.0
H602 H 0.32812 0.14099 0.53482 0.0
H603 H 0.32995 0.11964 0.5573 0.0
H604 H 0.37946 0.13404 0.52834 0.0
H605 H 0.37759 0.1556 0.50611 0.0
C606 C 0.35187 0.20516 0.51767 0.0
C607 C 0.36704 0.2182 0.52781 0.0
C608 C 0.36708 0.23204 0.53893 0.0
C609 C 0.35186 0.23292 0.54038 0.0
C610 C 0.33664 0.2196 0.53039 0.0
C611 C 0.33668 0.20594 0.51908 0.0
C612 C 0.35175 0.1907 0.5054 0.0
C613 C 0.35355 0.17812 0.51657 0.0
C614 C 0.3485 0.18863 0.48301 0.0
C615 C 0.34735 0.20215 0.47056 0.0
C616 C 0.36147 0.21945 0.47027 0.0
C617 C 0.36004 0.23263 0.46032 0.0
C618 C 0.3444 0.22888 0.45048 0.0
C619 C 0.33046 0.21137 0.45005 0.0
C620 C 0.33195 0.19812 0.45996 0.0
C621 C 0.34444 0.14471 0.47227 0.0
C622 C 0.32722 0.13096 0.46986 0.0
C623 C 0.32344 0.11601 0.45786 0.0
C624 C 0.33684 0.11455 0.448 0.0
C625 C 0.35416 0.12818 0.451 0.0
C626 C 0.35792 0.1432 0.46298 0.0
C627 C 0.3481 0.16092 0.48373 0.0
C628 C 0.34657 0.17365 0.47245 0.0
C629 C 0.35174 0.16322 0.50597 0.0
C630 C 0.35266 0.14977 0.51875 0.0
C631 C 0.33931 0.13945 0.53325 0.0
C632 C 0.34034 0.12718 0.54598 0.0
C633 C 0.35483 0.12507 0.5446 0.0
C634 C 0.36818 0.13542 0.52993 0.0
C635 C 0.36708 0.14764 0.5171 0.0
H636 H 0.79579 0.1543 0.52474 0.0
H637 H 0.77354 0.12863 0.544 0.0
H638 H 0.79599 0.09863 0.51992 0.0
H639 H 0.81745 0.12409 0.49982 0.0
H640 H 0.83472 0.17041 0.52708 0.0
H641 H 0.78549 0.13962 0.47886 0.0
H642 H 0.76416 0.11267 0.46048 0.0
H643 H 0.8055 0.11321 0.42343 0.0
H644 H 0.82678 0.13923 0.44316 0.0
H645 H 0.86695 0.18615 0.44123 0.0
H646 H 0.88885 0.21168 0.42153 0.0
H647 H 0.88079 0.24553 0.46475 0.0
H648 H 0.85784 0.21999 0.48269 0.0
H649 H 0.83399 0.17141 0.44732 0.0
H650 H 0.88186 0.1941 0.4975 0.0
H651 H 0.90641 0.21872 0.51653 0.0
H652 H 0.87116 0.23209 0.54671 0.0
H653 H 0.84659 0.20724 0.52815 0.0
C654 C 0.80815 0.14102 0.51078 0.0
C655 C 0.79584 0.14214 0.52367 0.0
C656 C 0.78318 0.12744 0.53476 0.0
C657 C 0.7828 0.11139 0.53354 0.0
C658 C 0.79548 0.11054 0.5209 0.0
C659 C 0.80793 0.12515 0.50954 0.0
C660 C 0.82114 0.15638 0.49839 0.0
C661 C 0.83444 0.17072 0.50966 0.0
C662 C 0.82109 0.15648 0.47562 0.0
C663 C 0.80782 0.14122 0.46286 0.0
C664 C 0.78998 0.13378 0.467 0.0
C665 C 0.77774 0.11847 0.4562 0.0
C666 C 0.78306 0.11052 0.44064 0.0
C667 C 0.80089 0.11859 0.43575 0.0
C668 C 0.81311 0.13367 0.44682 0.0
C669 C 0.8609 0.20107 0.46378 0.0
C670 C 0.86977 0.19908 0.44624 0.0
C671 C 0.88251 0.21378 0.43516 0.0
C672 C 0.88682 0.23085 0.44149 0.0
C673 C 0.87777 0.23271 0.459 0.0
C674 C 0.86479 0.21803 0.46967 0.0
C675 C 0.84763 0.18552 0.47599 0.0
C676 C 0.83427 0.17113 0.46473 0.0
C677 C 0.84789 0.18503 0.49874 0.0
C678 C 0.86247 0.19896 0.51139 0.0
C679 C 0.87942 0.20221 0.50845 0.0
C680 C 0.89337 0.21618 0.51927 0.0
C681 C 0.89053 0.22717 0.5329 0.0
C682 C 0.87355 0.22371 0.5362 0.0
C683 C 0.85957 0.20955 0.52571 0.0
H684 H 0.97678 0.52222 0.18607 0.0
H685 H 0.97359 0.54407 0.16646 0.0
H686 H 0.02009 0.55769 0.13012 0.0
H687 H 0.0234 0.53611 0.15023 0.0
H688 H 0.99811 0.49789 0.15506 0.0
H689 H 0.9832 0.52129 0.22769 0.0
H690 H 0.98781 0.547 0.24858 0.0
H691 H 0.0413 0.57572 0.22736 0.0
H692 H 0.03652 0.55001 0.20637 0.0
H693 H 0.03892 0.49816 0.22304 0.0
H694 H 0.04391 0.47897 0.24565 0.0
H695 H 0.98955 0.43883 0.24022 0.0
H696 H 0.98498 0.45791 0.21669 0.0
H697 H 0.01347 0.50884 0.23251 0.0
H698 H 0.02981 0.48101 0.17617 0.0
H699 H 0.02722 0.45518 0.15766 0.0
H700 H 0.97278 0.4356 0.14636 0.0
H701 H 0.97545 0.46138 0.1649 0.0
C702 C 1.00038 0.52765 0.16966 0.0
C703 C 0.9863 0.52998 0.17393 0.0
C704 C 0.98444 0.54239 0.16261 0.0
C705 C 0.99663 0.55269 0.14678 0.0
C706 C 0.01063 0.55017 0.14243 0.0
C707 C 0.01245 0.53773 0.15373 0.0
C708 C 1.00282 0.5151 0.18226 0.0
C709 C 1.00134 0.5002 0.17202 0.0
C710 C 0.00714 0.51811 0.20427 0.0
C711 C 0.00954 0.53388 0.21559 0.0
C712 C 0.99583 0.53323 0.22737 0.0
C713 C 0.99845 0.54791 0.23916 0.0
C714 C 0.01492 0.5633 0.23959 0.0
C715 C 0.02852 0.56396 0.2274 0.0
C716 C 0.02582 0.54936 0.21541 0.0
C717 C 0.0116 0.47944 0.21828 0.0
C718 C 0.02814 0.48516 0.22662 0.0
C719 C 0.03091 0.47418 0.23968 0.0
C720 C 0.01709 0.45736 0.24506 0.0
C721 C 1.00056 0.45157 0.23628 0.0
C722 C 0.99787 0.4625 0.22293 0.0
C723 C 0.0086 0.49151 0.20543 0.0
C724 C 0.01005 0.50637 0.21561 0.0
C725 C 0.0042 0.48837 0.18341 0.0
C726 C 1.00279 0.473 0.17195 0.0
C727 C 0.01733 0.47111 0.16973 0.0
C728 C 0.01586 0.45643 0.1591 0.0
C729 C 0.99978 0.44336 0.15073 0.0
C730 C 0.98527 0.44536 0.15293 0.0
C731 C 0.9868 0.46011 0.16335 0.0
H732 H 0.49743 0.46052 0.16184 0.0
H733 H 0.47336 0.43764 0.1409 0.0
H734 H 0.44012 0.45627 0.16476 0.0
H735 H 0.46404 0.4783 0.18669 0.0
H736 H 0.5119 0.49795 0.16137 0.0
H737 H 0.48359 0.44913 0.20618 0.0
H738 H 0.45923 0.4246 0.2237 0.0
H739 H 0.45249 0.4606 0.26445 0.0
H740 H 0.47597 0.48527 0.24503 0.0
H741 H 0.5199 0.53238 0.24239 0.0
H742 H 0.54197 0.55592 0.26479 0.0
H743 H 0.58123 0.54725 0.23675 0.0
H744 H 0.55896 0.52364 0.21413 0.0
H745 H 0.50896 0.49797 0.24105 0.0
H746 H 0.53787 0.54717 0.19347 0.0
H747 H 0.56165 0.57053 0.17289 0.0
H748 H 0.56817 0.53199 0.13782 0.0
H749 H 0.54476 0.50862 0.159 0.0
C750 C 0.48244 0.47098 0.17585 0.0
C751 C 0.48492 0.4596 0.1625 0.0
C752 C 0.47113 0.44659 0.15043 0.0
C753 C 0.45467 0.445 0.15104 0.0
C754 C 0.45241 0.45674 0.16419 0.0
C755 C 0.46612 0.4695 0.1766 0.0
C756 C 0.49689 0.48434 0.18922 0.0
C757 C 0.51146 0.49789 0.17881 0.0
C758 C 0.49597 0.48414 0.21197 0.0
C759 C 0.48146 0.46917 0.22378 0.0
C760 C 0.47663 0.45183 0.21848 0.0
C761 C 0.46282 0.4377 0.22897 0.0
C762 C 0.45379 0.44042 0.2458 0.0
C763 C 0.45886 0.45785 0.25142 0.0
C764 C 0.47248 0.47204 0.24048 0.0
C765 C 0.53774 0.52622 0.2266 0.0
C766 C 0.53324 0.53548 0.24109 0.0
C767 C 0.54589 0.54894 0.25391 0.0
C768 C 0.56335 0.55338 0.25269 0.0
C769 C 0.56793 0.54424 0.23795 0.0
C770 C 0.55521 0.53071 0.22509 0.0
C771 C 0.52402 0.51188 0.21319 0.0
C772 C 0.5095 0.49807 0.22362 0.0
C773 C 0.52506 0.51174 0.19042 0.0
C774 C 0.53969 0.5261 0.17816 0.0
C775 C 0.54463 0.54372 0.18171 0.0
C776 C 0.55818 0.55708 0.16985 0.0
C777 C 0.56681 0.55307 0.15383 0.0
C778 C 0.5617 0.53544 0.15002 0.0
C779 C 0.54834 0.5221 0.16213 0.0
H780 H 0.53079 0.01472 0.15015 0.0
H781 H 0.55373 0.01359 0.12999 0.0
H782 H 0.54962 0.97364 0.17232 0.0
H783 H 0.52582 0.97388 0.19177 0.0
H784 H 0.49941 0.99529 0.15689 0.0
H785 H 0.54808 0.02083 0.20274 0.0
H786 H 0.57239 0.02375 0.22322 0.0
H787 H 0.53654 0.98187 0.26481 0.0
H788 H 0.51226 0.97822 0.24316 0.0
H789 H 0.46696 0.97918 0.24161 0.0
H790 H 0.44619 0.98316 0.26282 0.0
H791 H 0.45627 0.02682 0.22274 0.0
H792 H 0.47811 0.02378 0.20313 0.0
H793 H 0.50053 0.99928 0.23651 0.0
H794 H 0.45124 0.97776 0.18619 0.0
H795 H 0.4305 0.98132 0.16475 0.0
H796 H 0.47322 0.02519 0.13231 0.0
H797 H 0.49377 0.02193 0.15422 0.0
C798 C 0.52663 0.99456 0.17277 0.0
C799 C 0.53451 0.00542 0.15492 0.0
C800 C 0.54765 0.00482 0.1434 0.0
C801 C 0.55341 0.99357 0.14969 0.0
C802 C 0.54542 0.98248 0.16727 0.0
C803 C 0.53193 0.98274 0.17846 0.0
C804 C 0.51313 0.9959 0.18546 0.0
C805 C 0.49978 0.99629 0.17431 0.0
C806 C 0.51349 0.99719 0.20826 0.0
C807 C 0.52831 0.99909 0.22111 0.0
C808 C 0.54544 0.01206 0.21604 0.0
C809 C 0.55937 0.01389 0.22803 0.0
C810 C 0.55652 0.00311 0.24584 0.0
C811 C 0.53931 0.99024 0.25106 0.0
C812 C 0.52537 0.98825 0.23882 0.0
C813 C 0.47393 1.00095 0.22045 0.0
C814 C 0.46478 0.9897 0.23753 0.0
C815 C 0.4527 0.99188 0.24951 0.0
C816 C 0.44935 0.00529 0.24457 0.0
C817 C 0.45859 0.01652 0.22741 0.0
C818 C 0.47093 0.01459 0.2158 0.0
C819 C 0.48689 0.99867 0.20789 0.0
C820 C 0.50011 0.99806 0.21911 0.0
C821 C 0.48689 0.99799 0.18509 0.0
C822 C 0.47407 0.99964 0.17191 0.0
C823 C 0.4561 0.9882 0.17455 0.0
C824 C 0.44428 0.9902 0.16219 0.0
C825 C 0.45019 0.00361 0.14686 0.0
C826 C 0.46819 0.01493 0.14421 0.0
C827 C 0.47997 0.01294 0.15655 0.0
H828 H 0.49588 0.03283 0.86609 0.0
H829 H 0.47156 0.03135 0.8862 0.0
H830 H 0.43733 0.97922 0.86063 0.0
H831 H 0.46175 0.98078 0.84052 0.0
H832 H 0.51022 0.01148 0.86783 0.0
H833 H 0.48458 0.03067 0.81539 0.0
H834 H 0.46005 0.02855 0.7956 0.0
H835 H 0.44833 0.97835 0.76935 0.0
H836 H 0.47283 0.98052 0.78923 0.0
H837 H 0.5248 0.98624 0.78893 0.0
H838 H 0.54914 0.99114 0.76573 0.0
H839 H 0.58028 0.04346 0.79235 0.0
H840 H 0.55594 0.03849 0.81547 0.0
H841 H 0.50858 0.00625 0.78821 0.0
H842 H 0.53717 0.98938 0.84158 0.0
H843 H 0.56213 0.99378 0.86281 0.0
H844 H 0.56963 0.04302 0.88692 0.0
H845 H 0.54469 0.03852 0.86593 0.0
C846 C 0.48059 0.00697 0.85174 0.0
C847 C 0.48315 0.02108 0.86487 0.0
C848 C 0.46923 0.02025 0.87621 0.0
C849 C 0.45254 0.0052 0.87488 0.0
C850 C 0.45007 0.99095 0.86201 0.0
C851 C 0.46396 0.99186 0.85046 0.0
C852 C 0.49531 0.00809 0.8393 0.0
C853 C 0.50992 0.01043 0.85042 0.0
C854 C 0.49485 0.00663 0.8166 0.0
C855 C 0.4804 0.00565 0.80397 0.0
C856 C 0.47673 0.01922 0.80534 0.0
C857 C 0.46282 0.01808 0.79389 0.0
C858 C 0.45224 0.00327 0.78098 0.0
C859 C 0.45616 0.98985 0.77933 0.0
C860 C 0.47018 0.99109 0.7906 0.0
C861 C 0.53862 0.01194 0.80403 0.0
C862 C 0.53694 0.99868 0.78991 0.0
C863 C 0.55085 1.00148 0.77674 0.0
C864 C 0.56657 0.01771 0.7772 0.0
C865 C 0.56827 0.03088 0.79154 0.0
C866 C 0.55444 0.028 0.80488 0.0
C867 C 0.52349 0.00952 0.81675 0.0
C868 C 0.5088 0.00703 0.80565 0.0
C869 C 0.52404 0.01115 0.83944 0.0
C870 C 0.53915 0.01368 0.85208 0.0
C871 C 0.54423 1.00112 0.85144 0.0
C872 C 0.55838 0.00357 0.86365 0.0
C873 C 0.56784 0.01876 0.87644 0.0
C874 C 0.56268 0.03126 0.87706 0.0
C875 C 0.5484 0.02868 0.86515 0.0
H876 H 0.03803 0.54616 0.85456 0.0
H877 H 0.04203 0.5689 0.8803 0.0
H878 H 0.98698 0.55002 0.8777 0.0
H879 H 0.98335 0.52783 0.85091 0.0
H880 H 0.01316 0.50865 0.86387 0.0
H881 H 0.02934 0.55308 0.81179 0.0
H882 H 0.02812 0.57713 0.79532 0.0
H883 H 0.97487 0.54129 0.77666 0.0
H884 H 0.97624 0.51708 0.79324 0.0
H885 H 0.9745 0.46739 0.79128 0.0
H886 H 0.97086 0.44312 0.76858 0.0
H887 H 0.02412 0.45806 0.78093 0.0
H888 H 0.02745 0.48208 0.80427 0.0
H889 H 0.99772 0.50314 0.78664 0.0
H890 H 0.98579 0.45687 0.83562 0.0
H891 H 0.98948 0.43531 0.85528 0.0
H892 H 0.0375 0.47694 0.882 0.0
H893 H 0.0345 0.49849 0.86132 0.0
C894 C 0.01041 0.53532 0.851 0.0
C895 C 0.0269 0.54713 0.8593 0.0
C896 C 0.0291 0.56002 0.87416 0.0
C897 C 0.01475 0.56106 0.8815 0.0
C898 C 0.99832 0.54966 0.87238 0.0
C899 C 0.9962 0.53692 0.85716 0.0
C900 C 0.00794 0.52046 0.83734 0.0
C901 C 0.01001 0.50744 0.8469 0.0
C902 C 1.00349 0.51899 0.81537 0.0
C903 C 1.00276 0.53332 0.80423 0.0
C904 C 0.01734 0.55037 0.80429 0.0
C905 C 0.01662 0.56414 0.79483 0.0
C906 C 1.00129 0.56123 0.78495 0.0
C907 C 0.98688 0.54399 0.7841 0.0
C908 C 0.98762 0.53016 0.79364 0.0
C909 C 1.00123 0.47653 0.79941 0.0
C910 C 0.98538 0.46543 0.78909 0.0
C911 C 0.98337 0.45159 0.77606 0.0
C912 C 0.99726 0.44871 0.77273 0.0
C913 C 0.0131 0.45977 0.7833 0.0
C914 C 0.01507 0.47357 0.79652 0.0
C915 C 1.00319 0.49123 0.8131 0.0
C916 C 1.00088 0.50421 0.80359 0.0
C917 C 0.00778 0.49281 0.83513 0.0
C918 C 0.01002 0.47941 0.84655 0.0
C919 C 0.9974 0.46141 0.84516 0.0
C920 C 0.99941 0.44908 0.85653 0.0
C921 C 0.0138 0.45455 0.87001 0.0
C922 C 0.02632 0.47247 0.87163 0.0
C923 C 0.02454 0.48475 0.85988 0.0
H924 H 0.46034 0.50402 0.8639 0.0
H925 H 0.43765 0.48243 0.88752 0.0
H926 H 0.44628 0.44225 0.86104 0.0
H927 H 0.46951 0.464 0.83858 0.0
H928 H 0.49384 0.5163 0.86219 0.0
H929 H 0.44836 0.4888 0.811 0.0
H930 H 0.42333 0.4633 0.79464 0.0
H931 H 0.45637 0.4436 0.77393 0.0
H932 H 0.48147 0.46949 0.78988 0.0
H933 H 0.53193 0.51501 0.78969 0.0
H934 H 0.55658 0.5342 0.76688 0.0
H935 H 0.54689 0.57649 0.77906 0.0
H936 H 0.52251 0.55724 0.80249 0.0
H937 H 0.497 0.50526 0.7843 0.0
H938 H 0.5433 0.53606 0.83749 0.0
H939 H 0.56585 0.5615 0.85753 0.0
H940 H 0.52816 0.57601 0.87531 0.0
H941 H 0.50592 0.55092 0.8549 0.0
C942 C 0.46654 0.48564 0.84927 0.0
C943 C 0.45735 0.49056 0.86326 0.0
C944 C 0.44425 0.47815 0.8766 0.0
C945 C 0.44011 0.46057 0.87623 0.0
C946 C 0.44925 0.45569 0.86203 0.0
C947 C 0.46241 0.4681 0.8489 0.0
C948 C 0.4808 0.49881 0.83546 0.0
C949 C 0.49438 0.51403 0.84508 0.0
C950 C 0.48158 0.49585 0.81315 0.0
C951 C 0.46674 0.48095 0.8018 0.0
C952 C 0.45021 0.47902 0.80282 0.0
C953 C 0.43589 0.46435 0.79359 0.0
C954 C 0.43776 0.45124 0.78318 0.0
C955 C 0.45446 0.45348 0.78165 0.0
C956 C 0.46883 0.46826 0.79078 0.0
C957 C 0.52539 0.53469 0.79777 0.0
C958 C 0.53516 0.52844 0.78749 0.0
C959 C 0.54921 0.53943 0.77435 0.0
C960 C 0.55367 0.55689 0.7709 0.0
C961 C 0.54398 0.5632 0.7815 0.0
C962 C 0.52998 0.5522 0.79482 0.0
C963 C 0.51017 0.52266 0.81113 0.0
C964 C 0.49639 0.5076 0.80137 0.0
C965 C 0.50903 0.52603 0.83321 0.0
C966 C 0.52297 0.54171 0.84454 0.0
C967 C 0.54 0.54489 0.84546 0.0
C968 C 0.55282 0.55933 0.85706 0.0
C969 C 0.54881 0.57082 0.86791 0.0
C970 C 0.53176 0.5676 0.86683 0.0
C971 C 0.51899 0.55319 0.85531 0.0
H972 H 0.63043 0.83703 0.49458 0.0
H973 H 0.62864 0.85805 0.47139 0.0
H974 H 0.67758 0.89957 0.49679 0.0
H975 H 0.67962 0.8784 0.51916 0.0
H976 H 0.6542 0.82723 0.49401 0.0
H977 H 0.63574 0.8555 0.54722 0.0
H978 H 0.63705 0.87894 0.57013 0.0
H979 H 0.68796 0.89219 0.59204 0.0
H980 H 0.68668 0.86901 0.5692 0.0
H981 H 0.69188 0.82769 0.56699 0.0
H982 H 0.69718 0.80841 0.58895 0.0
H983 H 0.64589 0.76499 0.57333 0.0
H984 H 0.64109 0.78432 0.5506 0.0
H985 H 0.66523 0.83518 0.57253 0.0
H986 H 0.68941 0.81732 0.51516 0.0
H987 H 0.6936 0.79694 0.49291 0.0
H988 H 0.63834 0.76691 0.48012 0.0
H989 H 0.63454 0.78803 0.50152 0.0
C990 C 0.65506 0.85613 0.50881 0.0
C991 C 0.64073 0.85068 0.49519 0.0
C992 C 0.63966 0.86275 0.48207 0.0
C993 C 0.65296 0.88053 0.48221 0.0
C994 C 0.66719 0.88597 0.49608 0.0
C995 C 0.66827 0.87389 0.50911 0.0
C996 C 0.65665 0.84314 0.52186 0.0
C997 C 0.65618 0.8288 0.51127 0.0
C998 C 0.66005 0.84551 0.54424 0.0
C999 C 0.66107 0.86043 0.55661 0.0
C1000 C 0.64727 0.86364 0.55672 0.0
C1001 C 0.64803 0.87702 0.56977 0.0
C1002 C 0.66251 0.88721 0.58303 0.0
C1003 C 0.6765 0.88432 0.58228 0.0
C1004 C 0.67579 0.87109 0.56923 0.0
C1005 C 0.6661 0.80745 0.5572 0.0
C1006 C 0.68184 0.81398 0.56822 0.0
C1007 C 0.68478 0.80292 0.58091 0.0
C1008 C 0.67189 0.7851 0.58321 0.0
C1009 C 0.65622 0.77854 0.5718 0.0
C1010 C 0.65339 0.7896 0.55886 0.0
C1011 C 0.66276 0.81948 0.54465 0.0
C1012 C 0.66288 0.83353 0.55533 0.0
C1013 C 0.65958 0.81722 0.52234 0.0
C1014 C 0.66168 0.80414 0.5099 0.0
C1015 C 0.67822 0.80628 0.50759 0.0
C1016 C 0.68055 0.79451 0.49498 0.0
C1017 C 0.66633 0.78022 0.48461 0.0
C1018 C 0.64968 0.77793 0.48745 0.0
C1019 C 0.64742 0.7899 0.4998 0.0
H1020 H 0.16485 0.79836 0.49145 0.0
H1021 H 0.1401 0.77849 0.46902 0.0
H1022 H 0.10715 0.79127 0.50654 0.0
H1023 H 0.13221 0.8119 0.52809 0.0
H1024 H 0.18037 0.8326 0.49642 0.0
H1025 H 0.15004 0.78302 0.5443 0.0
H1026 H 0.12642 0.76079 0.56659 0.0
H1027 H 0.1234 0.80182 0.60078 0.0
H1028 H 0.14682 0.82383 0.57863 0.0
H1029 H 0.18897 0.86659 0.57655 0.0
H1030 H 0.21059 0.89008 0.59933 0.0
H1031 H 0.2506 0.88231 0.57183 0.0
H1032 H 0.22872 0.85871 0.54871 0.0
H1033 H 0.17912 0.83249 0.57613 0.0
H1034 H 0.20417 0.8807 0.52731 0.0
H1035 H 0.22738 0.90493 0.50723 0.0
H1036 H 0.23895 0.86872 0.47485 0.0
H1037 H 0.21559 0.84444 0.49509 0.0
C1038 C 0.15035 0.80641 0.51166 0.0
C1039 C 0.15229 0.79688 0.49483 0.0
C1040 C 0.13807 0.78539 0.48215 0.0
C1041 C 0.12157 0.78315 0.4861 0.0
C1042 C 0.11967 0.79275 0.50296 0.0
C1043 C 0.13395 0.80438 0.51549 0.0
C1044 C 0.16559 0.81905 0.52461 0.0
C1045 C 0.18025 0.83234 0.51386 0.0
C1046 C 0.16525 0.81892 0.54736 0.0
C1047 C 0.15032 0.80515 0.55987 0.0
C1048 C 0.14414 0.78719 0.55645 0.0
C1049 C 0.13062 0.77449 0.56915 0.0
C1050 C 0.12318 0.77956 0.58562 0.0
C1051 C 0.12908 0.7975 0.58852 0.0
C1052 C 0.14248 0.81011 0.57586 0.0
C1053 C 0.2072 0.86081 0.56107 0.0
C1054 C 0.20239 0.8699 0.57541 0.0
C1055 C 0.21477 0.88331 0.58844 0.0
C1056 C 0.23226 0.88787 0.58758 0.0
C1057 C 0.23722 0.87911 0.57278 0.0
C1058 C 0.22475 0.86561 0.55965 0.0
C1059 C 0.1936 0.8462 0.54796 0.0
C1060 C 0.17933 0.83249 0.55868 0.0
C1061 C 0.19416 0.84608 0.52524 0.0
C1062 C 0.20832 0.86079 0.51298 0.0
C1063 C 0.21184 0.87799 0.5161 0.0
C1064 C 0.22515 0.89185 0.50462 0.0
C1065 C 0.23516 0.8888 0.48957 0.0
C1066 C 0.23145 0.8715 0.48624 0.0
C1067 C 0.21814 0.85763 0.49782 0.0
H1068 H 0.14178 0.32313 0.488 0.0
H1069 H 0.11965 0.32462 0.46734 0.0
H1070 H 0.12671 0.36811 0.50723 0.0
H1071 H 0.14968 0.36726 0.5269 0.0
H1072 H 0.17521 0.34549 0.49266 0.0
H1073 H 0.12528 0.31847 0.54299 0.0
H1074 H 0.10223 0.31985 0.56298 0.0
H1075 H 0.14101 0.36758 0.59453 0.0
H1076 H 0.16393 0.36612 0.57461 0.0
H1077 H 0.22237 0.35959 0.54256 0.0
H1078 H 0.24225 0.35292 0.56084 0.0
H1079 H 0.19836 0.30824 0.59063 0.0
H1080 H 0.17866 0.3142 0.57113 0.0
H1081 H 0.17251 0.33941 0.57196 0.0
H1082 H 0.21267 0.36878 0.49689 0.0
H1083 H 0.23531 0.36836 0.47518 0.0
H1084 H 0.21439 0.31394 0.49158 0.0
H1085 H 0.19237 0.31484 0.51403 0.0
C1086 C 0.1473 0.34495 0.50918 0.0
C1087 C 0.13864 0.33306 0.49221 0.0
C1088 C 0.12579 0.33379 0.48057 0.0
C1089 C 0.12121 0.34638 0.48569 0.0
C1090 C 0.12997 0.35833 0.50268 0.0
C1091 C 0.14298 0.35772 0.51415 0.0
C1092 C 0.16089 0.34391 0.52144 0.0
C1093 C 0.17461 0.34416 0.51001 0.0
C1094 C 0.16025 0.34233 0.5441 0.0
C1095 C 0.14629 0.34229 0.55719 0.0
C1096 C 0.12879 0.32914 0.55436 0.0
C1097 C 0.11567 0.32988 0.56585 0.0
C1098 C 0.11984 0.34387 0.58021 0.0
C1099 C 0.13741 0.35673 0.58342 0.0
C1100 C 0.15051 0.35587 0.57214 0.0
C1101 C 0.19894 0.33719 0.55506 0.0
C1102 C 0.21703 0.34819 0.55275 0.0
C1103 C 0.22842 0.3445 0.5635 0.0
C1104 C 0.22197 0.3299 0.57709 0.0
C1105 C 0.20386 0.31931 0.57989 0.0
C1106 C 0.19253 0.32285 0.56893 0.0
C1107 C 0.18654 0.34038 0.54311 0.0
C1108 C 0.17312 0.34071 0.55461 0.0
C1109 C 0.18738 0.34235 0.52049 0.0
C1110 C 0.20096 0.34189 0.50719 0.0
C1111 C 0.21304 0.35679 0.49581 0.0
C1112 C 0.22592 0.35647 0.48327 0.0
C1113 C 0.22679 0.34112 0.48154 0.0
C1114 C 0.21444 0.32613 0.49282 0.0
C1115 C 0.20172 0.32655 0.50557 0.0
H1116 H 0.01728 0.39342 0.05573 0.0
H1117 H 0.9692 0.34693 0.07474 0.0
H1118 H 0.96817 0.36225 0.10761 0.0
H1119 H 0.03494 0.40968 0.11151 0.0
H1120 H 0.0434 0.43221 0.10426 0.0
H1121 H 0.04226 0.41665 0.0844 0.0
H1122 H 0.02429 0.42453 0.0596 0.0
H1123 H 0.02524 0.43997 0.07938 0.0
H1124 H 0.00449 0.42264 0.06966 0.0
H1125 H 0.96991 0.38335 0.13527 0.0
H1126 H 0.97445 0.40915 0.15633 0.0
H1127 H 0.02097 0.4425 0.11928 0.0
C1128 C 0.00692 0.38634 0.06726 0.0
C1129 C 0.99342 0.36897 0.06294 0.0
C1130 C 0.9797 0.36023 0.07791 0.0
C1131 C 0.97904 0.36879 0.09664 0.0
C1132 C 0.99219 0.38612 0.10013 0.0
C1133 C 0.00594 0.39482 0.08595 0.0
C1134 C 0.01719 0.41403 0.09223 0.0
C1135 C 0.03554 0.41839 0.09848 0.0
C1136 C 0.01783 0.42599 0.07414 0.0
C1137 C 0.00727 0.41484 0.11163 0.0
C1138 C 0.99305 0.39853 0.11609 0.0
C1139 C 0.98116 0.39615 0.1322 0.0
C1140 C 0.98375 0.41087 0.14395 0.0
C1141 C 0.99807 0.42776 0.13945 0.0
C1142 C 0.01012 0.42968 0.12332 0.0
H1143 H 0.61168 0.6061 0.04677 0.0
H1144 H 0.64666 0.64968 0.0879 0.0
H1145 H 0.63497 0.63064 0.11976 0.0
H1146 H 0.57611 0.59056 0.08052 0.0
H1147 H 0.5674 0.56754 0.07508 0.0
H1148 H 0.58048 0.58347 0.05516 0.0
H1149 H 0.60149 0.5716 0.05395 0.0
H1150 H 0.58834 0.55546 0.07375 0.0
H1151 H 0.61121 0.57022 0.07851 0.0
H1152 H 0.617 0.60831 0.14727 0.0
H1153 H 0.59446 0.5838 0.16867 0.0
H1154 H 0.57066 0.55456 0.10993 0.0
C1155 C 0.61729 0.61134 0.06242 0.0
C1156 C 0.63036 0.62913 0.06501 0.0
C1157 C 0.63692 0.63592 0.08572 0.0
C1158 C 0.63034 0.62523 0.10385 0.0
C1159 C 0.6171 0.60781 0.10094 0.0
C1160 C 0.61071 0.60084 0.08074 0.0
C1161 C 0.59527 0.58228 0.0823 0.0
C1162 C 0.57885 0.58089 0.0727 0.0
C1163 C 0.59933 0.56911 0.07149 0.0
C1164 C 0.59375 0.58007 0.10649 0.0
C1165 C 0.60655 0.59491 0.11693 0.0
C1166 C 0.60709 0.5965 0.13928 0.0
C1167 C 0.59418 0.58258 0.1513 0.0
C1168 C 0.58091 0.56727 0.14096 0.0
C1169 C 0.58086 0.56597 0.11827 0.0
H1170 H 0.36978 0.97018 0.06783 0.0
H1171 H 0.38659 0.02462 0.05536 0.0
H1172 H 0.40982 0.03401 0.08256 0.0
H1173 H 0.3783 0.97493 0.12539 0.0
H1174 H 0.38567 0.9595 0.12504 0.0
H1175 H 0.36969 0.95725 0.10587 0.0
H1176 H 0.38935 0.95793 0.0746 0.0
H1177 H 0.40538 0.9602 0.09364 0.0
H1178 H 0.41138 0.97614 0.0727 0.0
H1179 H 0.43231 0.03724 0.10991 0.0
H1180 H 0.45196 0.03412 0.13458 0.0
H1181 H 0.42036 0.97746 0.1279 0.0
C1182 C 0.37816 0.98411 0.0709 0.0
C1183 C 0.37628 0.99666 0.05941 0.0
C1184 C 0.3877 0.01474 0.06397 0.0
C1185 C 0.40092 0.02019 0.0794 0.0
C1186 C 0.40251 0.00741 0.09017 0.0
C1187 C 0.39137 0.98974 0.08611 0.0
C1188 C 0.39621 0.97856 0.09899 0.0
C1189 C 0.3816 0.96687 0.11476 0.0
C1190 C 0.40086 0.96757 0.08409 0.0
C1191 C 0.41201 0.99268 0.11076 0.0
C1192 C 0.41541 0.00924 0.10562 0.0
C1193 C 0.4297 0.02432 0.11408 0.0
C1194 C 0.44086 0.02241 0.12798 0.0
C1195 C 0.43773 0.00554 0.13321 0.0
C1196 C 0.42298 0.99053 0.12457 0.0
H1197 H 0.37403 0.96716 0.95912 0.0
H1198 H 0.37385 0.01559 0.95155 0.0
H1199 H 0.39602 0.02468 0.92313 0.0
H1200 H 0.41894 0.98559 0.95352 0.0
H1201 H 0.41776 0.96744 0.93864 0.0
H1202 H 0.40054 0.96373 0.9569 0.0
H1203 H 0.37806 0.94927 0.92615 0.0
H1204 H 0.39522 0.95285 0.90778 0.0
H1205 H 0.38117 0.96114 0.90165 0.0
H1206 H 0.42003 0.02991 0.89804 0.0
H1207 H 0.44368 0.03033 0.87686 0.0
H1208 H 0.42836 0.97856 0.90018 0.0
C1209 C 0.37837 0.9795 0.95118 0.0
C1210 C 0.37213 0.99063 0.95762 0.0
C1211 C 0.3784 0.00682 0.94699 0.0
C1212 C 0.39099 0.01211 0.93076 0.0
C1213 C 0.39716 1.00105 0.92518 0.0
C1214 C 0.39099 0.98502 0.93491 0.0
C1215 C 0.4005 0.97608 0.92666 0.0
C1216 C 0.41 0.97304 0.94503 0.0
C1217 C 0.38799 0.95881 0.91485 0.0
C1218 C 0.41323 0.98977 0.91116 0.0
C1219 C 0.41101 0.00403 0.91049 0.0
C1220 C 0.42178 0.01874 0.89823 0.0
C1221 C 0.43524 0.01891 0.88638 0.0
C1222 C 0.4378 0.00447 0.88685 0.0
C1223 C 0.42652 0.98966 0.89926 0.0
H1224 H 0.00411 0.40126 0.97592 0.0
H1225 H 0.01597 0.36762 0.93765 0.0
H1226 H 0.02216 0.38687 0.90619 0.0
H1227 H 0.98231 0.40965 0.93757 0.0
H1228 H 0.99074 0.43237 0.94462 0.0
H1229 H 0.98947 0.41737 0.96465 0.0
H1230 H 0.0224 0.43721 0.97236 0.0
H1231 H 0.02375 0.45249 0.95259 0.0
H1232 H 0.03773 0.44352 0.95049 0.0
H1233 H 0.02234 0.40725 0.87772 0.0
H1234 H 0.02027 0.42922 0.85578 0.0
H1235 H 0.01032 0.45065 0.91341 0.0
C1236 C 0.00863 0.39836 0.96109 0.0
C1237 C 0.00989 0.38322 0.95915 0.0
C1238 C 0.01536 0.37944 0.93946 0.0
C1239 C 0.01876 0.39022 0.92153 0.0
C1240 C 0.01692 0.40486 0.92378 0.0
C1241 C 0.01241 0.40918 0.94325 0.0
C1242 C 0.01065 0.42517 0.94133 0.0
C1243 C 0.9922 0.42087 0.94739 0.0
C1244 C 0.02446 0.4405 0.955 0.0
C1245 C 0.01415 0.42879 0.91755 0.0
C1246 C 0.01773 0.41694 0.90765 0.0
C1247 C 0.01998 0.41684 0.88541 0.0
C1248 C 0.0187 0.42926 0.87307 0.0
C1249 C 0.01539 0.44167 0.88304 0.0
C1250 C 0.0132 0.44147 0.90554 0.0
H1251 H 0.61876 0.6167 0.96181 0.0
H1252 H 0.61145 0.6611 0.95599 0.0
H1253 H 0.59323 0.64736 0.92393 0.0
H1254 H 0.61877 0.60726 0.90355 0.0
H1255 H 0.60658 0.58384 0.90725 0.0
H1256 H 0.62088 0.59806 0.92816 0.0
H1257 H 0.59532 0.58461 0.95535 0.0
H1258 H 0.58097 0.57037 0.93456 0.0
H1259 H 0.57573 0.58467 0.94933 0.0
H1260 H 0.57432 0.62827 0.89432 0.0
H1261 H 0.55457 0.60417 0.86992 0.0
H1262 H 0.57283 0.57135 0.89561 0.0
C1263 C 0.61361 0.62366 0.95348 0.0
C1264 C 0.61659 0.64001 0.96126 0.0
C1265 C 0.6093 0.64855 0.95029 0.0
C1266 C 0.59903 0.64092 0.93199 0.0
C1267 C 0.59607 0.62467 0.92492 0.0
C1268 C 0.60307 0.61607 0.93532 0.0
C1269 C 0.59654 0.59802 0.92549 0.0
C1270 C 0.61159 0.59673 0.91552 0.0
C1271 C 0.58654 0.58357 0.94217 0.0
C1272 C 0.58452 0.59771 0.90829 0.0
C1273 C 0.58468 0.61334 0.90805 0.0
C1274 C 0.57414 0.61599 0.89425 0.0
C1275 C 0.56288 0.60219 0.88056 0.0
C1276 C 0.5621 0.58586 0.88089 0.0
C1277 C 0.57332 0.58376 0.89472 0.0
H1278 H 0.99911 0.62855 0.95224 0.0
H1279 H 0.0383 0.6315 0.99545 0.0
H1280 H 0.04105 0.61013 0.97291 0.0
H1281 H 0.97868 0.58207 0.93887 0.0
H1282 H 0.9755 0.58471 0.91092 0.0
H1283 H 0.97582 0.59983 0.93082 0.0
H1284 H 1.00041 0.62588 0.90986 0.0
H1285 H 1.00015 0.61083 0.88989 0.0
H1286 H 0.02009 0.62592 0.90356 0.0
H1287 H 0.03964 0.58856 0.94686 0.0
H1288 H 0.03533 0.56856 0.9168 0.0
H1289 H 0.99853 0.58032 0.88804 0.0
C1290 C 0.00818 0.62458 0.95692 0.0
C1291 C 0.01853 0.63172 0.97556 0.0
C1292 C 0.03037 0.62635 0.98113 0.0
C1293 C 0.03197 0.61414 0.96851 0.0
C1294 C 0.02178 0.60748 0.95019 0.0
C1295 C 0.0102 0.61253 0.94419 0.0
C1296 C 1.00143 0.60371 0.92309 0.0
C1297 C 0.98168 0.59188 0.92612 0.0
C1298 C 0.00579 0.6174 0.90556 0.0
C1299 C 0.00989 0.59294 0.91838 0.0
C1300 C 0.02146 0.5953 0.93439 0.0
C1301 C 0.03077 0.58673 0.93404 0.0
C1302 C 0.02834 0.57551 0.91672 0.0
C1303 C 0.01686 0.57307 0.89972 0.0
C1304 C 0.0074 0.58186 0.90072 0.0
H1305 H 0.40051 0.37919 0.95493 0.0
H1306 H 0.35611 0.38551 0.9655 0.0
H1307 H 0.36873 0.41033 0.94008 0.0
H1308 H 0.4322 0.42459 0.95321 0.0
H1309 H 0.4452 0.42194 0.93294 0.0
H1310 H 0.43217 0.40431 0.95109 0.0
H1311 H 0.41688 0.38333 0.9187 0.0
H1312 H 0.42988 0.40089 0.90043 0.0
H1313 H 0.40652 0.38929 0.89865 0.0
H1314 H 0.38691 0.43494 0.91341 0.0
H1315 H 0.40875 0.45687 0.88859 0.0
H1316 H 0.44132 0.4345 0.89765 0.0
C1317 C 0.39326 0.3856 0.95181 0.0
C1318 C 0.37722 0.38028 0.96214 0.0
C1319 C 0.36839 0.3893 0.95774 0.0
C1320 C 0.37546 0.4034 0.94332 0.0
C1321 C 0.39139 0.40835 0.93358 0.0
C1322 C 0.40016 0.3997 0.93773 0.0
C1323 C 0.41731 0.40778 0.92589 0.0
C1324 C 0.43262 0.41509 0.94173 0.0
C1325 C 0.41766 0.39453 0.90997 0.0
C1326 C 0.41688 0.42235 0.91428 0.0
C1327 C 0.40185 0.42251 0.9188 0.0
C1328 C 0.39873 0.43491 0.90982 0.0
C1329 C 0.41127 0.4474 0.89585 0.0
C1330 C 0.42677 0.44742 0.89104 0.0
C1331 C 0.42951 0.43471 0.90057 0.0
H1332 H 0.62018 1.0009 0.96643 0.0
H1333 H 0.66252 0.05418 0.95559 0.0
H1334 H 0.64645 0.05678 0.92546 0.0
H1335 H 0.60774 0.98922 0.90901 0.0
H1336 H 0.58483 0.97679 0.91508 0.0
H1337 H 0.60037 0.97823 0.93442 0.0
H1338 H 0.58768 0.99006 0.96306 0.0
H1339 H 0.57218 0.98874 0.94381 0.0
H1340 H 0.58653 0.00927 0.95732 0.0
H1341 H 0.62517 0.05496 0.89895 0.0
H1342 H 0.59977 0.04847 0.87691 0.0
H1343 H 0.57072 0.9964 0.90413 0.0
C1344 C 0.62621 0.01295 0.95738 0.0
C1345 C 0.64265 0.02733 0.96336 0.0
C1346 C 0.64994 0.04301 0.95138 0.0
C1347 C 0.64094 0.04461 0.93416 0.0
C1348 C 0.62462 0.03041 0.929 0.0
C1349 C 0.61729 0.01483 0.94012 0.0
C1350 C 0.59903 0.00207 0.93203 0.0
C1351 C 0.59794 0.9856 0.92204 0.0
C1352 C 0.58556 0.99726 0.95013 0.0
C1353 C 0.59718 0.01309 0.915 0.0
C1354 C 0.61218 0.02934 0.91348 0.0
C1355 C 0.61342 0.04221 0.8998 0.0
C1356 C 0.5989 0.03845 0.88744 0.0
C1357 C 0.58333 0.02195 0.88878 0.0
C1358 C 0.58256 0.00903 0.90256 0.0
H1359 H 0.6108 0.99888 0.04807 0.0
H1360 H 0.65457 0.01946 0.09157 0.0
H1361 H 0.63475 0.0129 0.12263 0.0
H1362 H 0.5905 0.01834 0.07466 0.0
H1363 H 0.56855 1.00064 0.06998 0.0
H1364 H 0.58555 0.00404 0.05156 0.0
H1365 H 0.57803 0.97202 0.057 0.0
H1366 H 0.56091 0.96849 0.07542 0.0
H1367 H 0.57765 0.96436 0.08379 0.0
H1368 H 0.61052 0.0058 0.14865 0.0
H1369 H 0.58413 1.00134 0.16754 0.0
H1370 H 0.55654 0.98788 0.10691 0.0
C1371 C 0.61605 1.00148 0.06421 0.0
C1372 C 0.63407 0.00927 0.06764 0.0
C1373 C 0.64072 0.01323 0.08881 0.0
C1374 C 0.62957 0.00951 0.10648 0.0
C1375 C 0.61185 0.00208 0.10263 0.0
C1376 C 0.60513 0.99824 0.08201 0.0
C1377 C 0.58596 0.99225 0.08211 0.0
C1378 C 0.58245 0.00455 0.0688 0.0
C1379 C 0.57499 0.97314 0.0741 0.0
C1380 C 0.58307 0.99376 0.10591 0.0
C1381 C 0.59806 0.99901 0.11752 0.0
C1382 C 0.59868 1.00159 0.13975 0.0
C1383 C 0.58367 0.99899 0.15034 0.0
C1384 C 0.56841 0.99425 0.13863 0.0
C1385 C 0.56808 0.99146 0.11618 0.0
H1386 H 0.02955 0.64066 0.08101 0.0
H1387 H 0.97599 0.61961 0.06145 0.0
H1388 H 0.96667 0.59465 0.08571 0.0
H1389 H 0.02833 0.60118 0.08208 0.0
H1390 H 0.04186 0.60615 0.10547 0.0
H1391 H 0.04423 0.62364 0.08884 0.0
H1392 H 0.03898 0.63847 0.12188 0.0
H1393 H 0.03678 0.62109 0.13871 0.0
H1394 H 0.01969 0.62607 0.13797 0.0
H1395 H 0.96348 0.5704 0.10903 0.0
H1396 H 0.96665 0.54907 0.13049 0.0
H1397 H 0.02216 0.58595 0.13527 0.0
C1398 C 0.01581 0.63105 0.08219 0.0
C1399 C 1.00353 0.63218 0.06929 0.0
C1400 C 0.98569 0.61912 0.07115 0.0
C1401 C 0.98023 0.60487 0.08493 0.0
C1402 C 0.99273 0.60389 0.09691 0.0
C1403 C 0.01013 0.61672 0.09587 0.0
C1404 C 0.02105 0.612 0.10943 0.0
C1405 C 0.03466 0.61066 0.09562 0.0
C1406 C 0.02963 0.62519 0.12811 0.0
C1407 C 0.00716 0.5942 0.11754 0.0
C1408 C 0.99089 0.58987 0.11038 0.0
C1409 C 0.97612 0.57377 0.11502 0.0
C1410 C 0.97805 0.56175 0.12727 0.0
C1411 C 0.99464 0.56584 0.13464 0.0
C1412 C 0.00932 0.58238 0.12979 0.0
H1413 H 0.41017 0.38201 0.04904 0.0
H1414 H 0.36016 0.36578 0.07842 0.0
H1415 H 0.37502 0.3846 0.11016 0.0
H1416 H 0.43374 0.38531 0.09746 0.0
H1417 H 0.45336 0.40475 0.08891 0.0
H1418 H 0.4388 0.38915 0.06922 0.0
H1419 H 0.43666 0.41383 0.05045 0.0
H1420 H 0.45124 0.42949 0.07005 0.0
H1421 H 0.43017 0.42686 0.06589 0.0
H1422 H 0.39548 0.40487 0.13885 0.0
H1423 H 0.41974 0.42674 0.16117 0.0
H1424 H 0.45616 0.43185 0.11108 0.0
C1425 C 0.40237 0.38226 0.06229 0.0
C1426 C 0.38405 0.37232 0.06147 0.0
C1427 C 0.37423 0.37328 0.07883 0.0
C1428 C 0.38255 0.38387 0.09692 0.0
C1429 C 0.40066 0.39359 0.09718 0.0
C1430 C 0.41044 0.39304 0.08022 0.0
C1431 C 0.42966 0.40556 0.08389 0.0
C1432 C 0.43946 0.39559 0.08494 0.0
C1433 C 0.43738 0.41978 0.06654 0.0
C1434 C 0.42917 0.41318 0.10562 0.0
C1435 C 0.41236 0.40598 0.11313 0.0
C1436 C 0.4087 0.41076 0.13303 0.0
C1437 C 0.42261 0.42335 0.14551 0.0
C1438 C 0.43999 0.43127 0.13792 0.0
C1439 C 0.44316 0.42599 0.11765 0.0
H1440 H 0.64858 0.71826 0.38224 0.0
H1441 H 0.69109 0.71184 0.40255 0.0
H1442 H 0.69589 0.7312 0.43414 0.0
H1443 H 0.66891 0.76408 0.39723 0.0
H1444 H 0.64869 0.76215 0.40546 0.0
H1445 H 0.64883 0.74785 0.38474 0.0
H1446 H 0.62655 0.7208 0.40658 0.0
H1447 H 0.62646 0.73502 0.42746 0.0
H1448 H 0.63152 0.71842 0.43389 0.0
H1449 H 0.69472 0.75009 0.46458 0.0
H1450 H 0.68953 0.76885 0.48947 0.0
H1451 H 0.64915 0.76424 0.44706 0.0
C1452 C 0.65891 0.7209 0.39333 0.0
C1453 C 0.66938 0.71345 0.3901 0.0
C1454 C 0.68294 0.71745 0.40476 0.0
C1455 C 0.6857 0.72836 0.42275 0.0
C1456 C 0.67495 0.73531 0.42558 0.0
C1457 C 0.66199 0.73192 0.41106 0.0
C1458 C 0.65247 0.74126 0.41733 0.0
C1459 C 0.65488 0.75463 0.40017 0.0
C1460 C 0.6331 0.72808 0.42157 0.0
C1461 C 0.6619 0.75029 0.43786 0.0
C1462 C 0.67474 0.74664 0.44247 0.0
C1463 C 0.68485 0.75322 0.46096 0.0
C1464 C 0.68185 0.76396 0.47495 0.0
C1465 C 0.66898 0.76818 0.47027 0.0
C1466 C 0.65892 0.76115 0.45142 0.0
H1467 H 0.28276 0.94071 0.383 0.0
H1468 H 0.3087 0.98773 0.4226 0.0
H1469 H 0.29721 0.96974 0.45538 0.0
H1470 H 0.24458 0.92088 0.41201 0.0
H1471 H 0.24007 0.89871 0.40909 0.0
H1472 H 0.25285 0.91472 0.38911 0.0
H1473 H 0.27789 0.90865 0.39442 0.0
H1474 H 0.2651 0.89247 0.41435 0.0
H1475 H 0.28655 0.91036 0.42097 0.0
H1476 H 0.28028 0.94717 0.48328 0.0
H1477 H 0.25888 0.9218 0.50442 0.0
H1478 H 0.24276 0.88944 0.4465 0.0
C1479 C 0.28652 0.94705 0.39866 0.0
C1480 C 0.29696 0.96546 0.40053 0.0
C1481 C 0.30103 0.97356 0.42107 0.0
C1482 C 0.29455 0.96346 0.4397 0.0
C1483 C 0.28392 0.9453 0.43739 0.0
C1484 C 0.27996 0.93714 0.41739 0.0
C1485 C 0.26671 0.91771 0.41922 0.0
C1486 C 0.25007 0.91272 0.40662 0.0
C1487 C 0.27454 0.90665 0.4118 0.0
C1488 C 0.26345 0.91632 0.44326 0.0
C1489 C 0.2737 0.93232 0.45347 0.0
C1490 C 0.27231 0.93454 0.47548 0.0
C1491 C 0.26001 0.92008 0.48733 0.0
C1492 C 0.24911 0.90362 0.47714 0.0
C1493 C 0.2511 0.90174 0.45485 0.0
H1494 H 0.03768 0.30871 0.4103 0.0
H1495 H 0.05141 0.36264 0.40025 0.0
H1496 H 0.07515 0.37275 0.42652 0.0
H1497 H 0.04779 0.31354 0.4683 0.0
H1498 H 0.05636 0.29912 0.46679 0.0
H1499 H 0.03943 0.29597 0.44864 0.0
H1500 H 0.05869 0.29795 0.41621 0.0
H1501 H 0.07572 0.30125 0.43422 0.0
H1502 H 0.08015 0.31701 0.41354 0.0
H1503 H 0.09906 0.3773 0.45127 0.0
H1504 H 0.12083 0.37582 0.47353 0.0
H1505 H 0.09098 0.31891 0.46861 0.0
C1506 C 0.04545 0.32262 0.41388 0.0
C1507 C 0.0426 0.33484 0.40314 0.0
C1508 C 0.05326 0.35297 0.40821 0.0
C1509 C 0.0668 0.35887 0.42315 0.0
C1510 C 0.06947 0.34651 0.43306 0.0
C1511 C 0.05902 0.32875 0.42879 0.0
C1512 C 0.06518 0.31828 0.44089 0.0
C1513 C 0.05137 0.30601 0.45712 0.0
C1514 C 0.07024 0.30802 0.42528 0.0
C1515 C 0.08097 0.33296 0.4522 0.0
C1516 C 0.08316 0.34913 0.44757 0.0
C1517 C 0.09731 0.36469 0.45532 0.0
C1518 C 0.10959 0.36369 0.46807 0.0
C1519 C 0.10766 0.34725 0.47301 0.0
C1520 C 0.09299 0.33172 0.46506 0.0
H1521 H 0.03758 0.30395 0.29985 0.0
H1522 H 0.04825 0.35747 0.29727 0.0
H1523 H 0.06894 0.36365 0.26768 0.0
H1524 H 0.08067 0.31426 0.29112 0.0
H1525 H 0.07505 0.2952 0.27465 0.0
H1526 H 0.05993 0.29438 0.29452 0.0
H1527 H 0.03639 0.28488 0.26511 0.0
H1528 H 0.05146 0.28567 0.24513 0.0
H1529 H 0.04103 0.29821 0.2416 0.0
H1530 H 0.08998 0.36492 0.24043 0.0
H1531 H 0.11012 0.36101 0.21691 0.0
H1532 H 0.08587 0.30672 0.23638 0.0
C1533 C 0.04407 0.3169 0.29288 0.0
C1534 C 0.04123 0.3302 0.30097 0.0
C1535 C 0.05018 0.34703 0.29147 0.0
C1536 C 0.06193 0.35068 0.27456 0.0
C1537 C 0.06459 0.33737 0.26719 0.0
C1538 C 0.0559 0.3208 0.27594 0.0
C1539 C 0.06182 0.30914 0.26566 0.0
C1540 C 0.06985 0.30288 0.28249 0.0
C1541 C 0.04677 0.29355 0.25366 0.0
C1542 C 0.07545 0.32189 0.25011 0.0
C1543 C 0.07673 0.33806 0.25119 0.0
C1544 C 0.08899 0.35227 0.23925 0.0
C1545 C 0.1004 0.34996 0.22602 0.0
C1546 C 0.09946 0.33357 0.22481 0.0
C1547 C 0.08665 0.31929 0.23677 0.0
H1548 H 0.64666 0.70133 0.27147 0.0
H1549 H 0.6954 0.72998 0.30622 0.0
H1550 H 0.70427 0.75576 0.28354 0.0
H1551 H 0.66581 0.72039 0.21815 0.0
H1552 H 0.6468 0.72078 0.20994 0.0
H1553 H 0.64467 0.70418 0.22812 0.0
H1554 H 0.62887 0.71351 0.25549 0.0
H1555 H 0.63116 0.73028 0.23755 0.0
H1556 H 0.63938 0.73603 0.26462 0.0
H1557 H 0.70595 0.77958 0.26095 0.0
H1558 H 0.70263 0.79877 0.23624 0.0
H1559 H 0.65468 0.75383 0.21211 0.0
C1560 C 0.65933 0.71293 0.27402 0.0
C1561 C 0.67033 0.71362 0.29065 0.0
C1562 C 0.68681 0.72905 0.29349 0.0
C1563 C 0.69193 0.74382 0.28076 0.0
C1564 C 0.68063 0.74286 0.26488 0.0
C1565 C 0.66487 0.72769 0.26105 0.0
C1566 C 0.65524 0.73025 0.24286 0.0
C1567 C 0.65301 0.71818 0.22363 0.0
C1568 C 0.63762 0.72734 0.2506 0.0
C1569 C 0.6678 0.74937 0.23762 0.0
C1570 C 0.68227 0.75639 0.25065 0.0
C1571 C 0.69497 0.7741 0.25012 0.0
C1572 C 0.69299 0.78492 0.23571 0.0
C1573 C 0.67859 0.77803 0.22144 0.0
C1574 C 0.66588 0.75986 0.22257 0.0
H1575 H 0.26135 0.94862 0.30736 0.0
H1576 H 0.31254 0.96504 0.28166 0.0
H1577 H 0.29893 0.94492 0.25041 0.0
H1578 H 0.24131 0.9027 0.29108 0.0
H1579 H 0.22075 0.90079 0.28537 0.0
H1580 H 0.23474 0.916 0.30576 0.0
H1581 H 0.23414 0.94131 0.28635 0.0
H1582 H 0.2203 0.92623 0.2658 0.0
H1583 H 0.24058 0.94547 0.2585 0.0
H1584 H 0.27917 0.9245 0.2205 0.0
H1585 H 0.25543 0.90422 0.19619 0.0
H1586 H 0.2176 0.90006 0.24354 0.0
C1587 C 0.26973 0.94795 0.29522 0.0
C1588 C 0.28799 0.95847 0.2968 0.0
C1589 C 0.29851 0.95704 0.28074 0.0
C1590 C 0.29089 0.94571 0.26294 0.0
C1591 C 0.27279 0.93573 0.26171 0.0
C1592 C 0.26239 0.93658 0.27764 0.0
C1593 C 0.24331 0.92457 0.27274 0.0
C1594 C 0.23452 0.91016 0.28974 0.0
C1595 C 0.23404 0.93502 0.27073 0.0
C1596 C 0.24451 0.91707 0.25127 0.0
C1597 C 0.26157 0.92364 0.24509 0.0
C1598 C 0.26576 0.91907 0.22537 0.0
C1599 C 0.25216 0.90745 0.2117 0.0
C1600 C 0.23454 0.90042 0.21786 0.0
C1601 C 0.23083 0.90531 0.23805 0.0
H1602 H 0.69574 0.96958 0.27618 0.0
H1603 H 0.64171 0.94905 0.2935 0.0
H1604 H 0.63262 0.92751 0.26357 0.0
H1605 H 0.68884 0.96331 0.21705 0.0
H1606 H 0.70517 0.95736 0.21401 0.0
H1607 H 0.70719 0.97252 0.23499 0.0
H1608 H 0.70946 0.9527 0.26332 0.0
H1609 H 0.7073 0.93744 0.24251 0.0
H1610 H 0.69246 0.92997 0.26498 0.0
H1611 H 0.62976 0.90561 0.23516 0.0
H1612 H 0.63324 0.88609 0.20973 0.0
H1613 H 0.6891 0.92219 0.20958 0.0
C1614 C 0.68197 0.96079 0.27347 0.0
C1615 C 0.66944 0.96099 0.28724 0.0
C1616 C 0.65156 0.94922 0.28311 0.0
C1617 C 0.64627 0.93693 0.26615 0.0
C1618 C 0.65901 0.93679 0.25326 0.0
C1619 C 0.67648 0.9486 0.25654 0.0
C1620 C 0.68765 0.94508 0.24134 0.0
C1621 C 0.69781 0.96049 0.22593 0.0
C1622 C 0.69993 0.94105 0.25379 0.0
C1623 C 0.67376 0.929 0.22956 0.0
C1624 C 0.65732 0.92448 0.23652 0.0
C1625 C 0.64255 0.90926 0.22921 0.0
C1626 C 0.64467 0.89828 0.21463 0.0
C1627 C 0.66146 0.90257 0.20746 0.0
C1628 C 0.67609 0.91838 0.21477 0.0
H1629 H 0.06827 0.70563 0.28274 0.0
H1630 H 0.02621 0.71475 0.29812 0.0
H1631 H 0.0367 0.73726 0.26981 0.0
H1632 H 0.10021 0.74935 0.27557 0.0
H1633 H 0.11107 0.74517 0.25382 0.0
H1634 H 0.09911 0.72854 0.27351 0.0
H1635 H 0.08061 0.70652 0.24329 0.0
H1636 H 0.09259 0.72308 0.22345 0.0
H1637 H 0.06924 0.71234 0.22457 0.0
H1638 H 0.0536 0.76073 0.24173 0.0
H1639 H 0.07483 0.78234 0.2161 0.0
H1640 H 0.10573 0.75769 0.2203 0.0
C1641 C 0.06102 0.7121 0.28001 0.0
C1642 C 0.04637 0.70836 0.29272 0.0
C1643 C 0.03741 0.7173 0.28857 0.0
C1644 C 0.04328 0.73012 0.27252 0.0
C1645 C 0.05804 0.73376 0.26069 0.0
C1646 C 0.06668 0.72488 0.26418 0.0
C1647 C 0.08277 0.73181 0.25027 0.0
C1648 C 0.09925 0.73916 0.26412 0.0
C1649 C 0.0812 0.71759 0.23446 0.0
C1650 C 0.08209 0.74626 0.23868 0.0
C1651 C 0.06769 0.74715 0.24473 0.0
C1652 C 0.06482 0.76003 0.23676 0.0
C1653 C 0.077 0.77231 0.22232 0.0
C1654 C 0.09191 0.77166 0.21606 0.0
C1655 C 0.09431 0.75834 0.22433 0.0
H1656 H 0.2755 0.33521 0.31052 0.0
H1657 H 0.3068 0.32271 0.26913 0.0
H1658 H 0.28523 0.31437 0.23978 0.0
H1659 H 0.23215 0.29977 0.28949 0.0
H1660 H 0.22315 0.31376 0.29232 0.0
H1661 H 0.23978 0.31623 0.31055 0.0
H1662 H 0.25846 0.3491 0.30074 0.0
H1663 H 0.24207 0.3467 0.28227 0.0
H1664 H 0.26402 0.35511 0.27298 0.0
H1665 H 0.26217 0.31152 0.21366 0.0
H1666 H 0.2391 0.31273 0.19382 0.0
H1667 H 0.22222 0.32574 0.25325 0.0
C1668 C 0.27744 0.33011 0.29549 0.0
C1669 C 0.29252 0.32923 0.29205 0.0
C1670 C 0.29506 0.32305 0.27209 0.0
C1671 C 0.28293 0.31838 0.25537 0.0
C1672 C 0.26831 0.31981 0.25907 0.0
C1673 C 0.26539 0.32523 0.27882 0.0
C1674 C 0.24931 0.32671 0.27842 0.0
C1675 C 0.23527 0.31331 0.29359 0.0
C1676 C 0.25375 0.34552 0.28392 0.0
C1677 C 0.24402 0.32204 0.25512 0.0
C1678 C 0.255 0.31794 0.24422 0.0
C1679 C 0.25328 0.31434 0.22218 0.0
C1680 C 0.24006 0.31499 0.21103 0.0
C1681 C 0.2287 0.31926 0.2219 0.0
C1682 C 0.23069 0.32257 0.24433 0.0
H1683 H 0.29066 0.36343 0.38029 0.0
H1684 H 0.30498 0.32763 0.40655 0.0
H1685 H 0.28602 0.32274 0.43796 0.0
H1686 H 0.28741 0.38254 0.43092 0.0
H1687 H 0.26865 0.3834 0.42274 0.0
H1688 H 0.28414 0.38495 0.40292 0.0
H1689 H 0.2595 0.35861 0.3819 0.0
H1690 H 0.24393 0.357 0.40164 0.0
H1691 H 0.24591 0.3382 0.39555 0.0
H1692 H 0.26559 0.32175 0.46653 0.0
H1693 H 0.24385 0.32336 0.48932 0.0
H1694 H 0.24101 0.35803 0.44315 0.0
C1695 C 0.28997 0.35474 0.39279 0.0
C1696 C 0.29941 0.34602 0.39107 0.0
C1697 C 0.29787 0.33445 0.40754 0.0
C1698 C 0.28718 0.33163 0.42548 0.0
C1699 C 0.27795 0.34031 0.42661 0.0
C1700 C 0.27911 0.35152 0.41065 0.0
C1701 C 0.26708 0.35846 0.41527 0.0
C1702 C 0.27744 0.37853 0.41814 0.0
C1703 C 0.25329 0.35272 0.39754 0.0
C1704 C 0.25901 0.34942 0.43632 0.0
C1705 C 0.26559 0.33915 0.44267 0.0
C1706 C 0.26023 0.32963 0.46163 0.0
C1707 C 0.24772 0.33053 0.4744 0.0
C1708 C 0.24046 0.34069 0.46806 0.0
C1709 C 0.24634 0.35029 0.44872 0.0
H1710 H 0.69218 0.95779 0.39725 0.0
H1711 H 0.64045 0.94951 0.38915 0.0
H1712 H 0.62936 0.92662 0.41706 0.0
H1713 H 0.67929 0.91329 0.40351 0.0
H1714 H 0.69573 0.91774 0.42318 0.0
H1715 H 0.69957 0.93399 0.4035 0.0
H1716 H 0.70581 0.95673 0.43396 0.0
H1717 H 0.70201 0.94054 0.45376 0.0
H1718 H 0.68984 0.95156 0.45481 0.0
H1719 H 0.62392 0.90364 0.44523 0.0
H1720 H 0.62469 0.88309 0.47098 0.0
H1721 H 0.68001 0.90658 0.45938 0.0
C1722 C 0.67852 0.95132 0.40136 0.0
C1723 C 0.6672 0.95552 0.39093 0.0
C1724 C 0.64941 0.94659 0.3969 0.0
C1725 C 0.64299 0.93356 0.41275 0.0
C1726 C 0.65453 0.92966 0.4225 0.0
C1727 C 0.67194 0.93835 0.41703 0.0
C1728 C 0.68165 0.9315 0.42934 0.0
C1729 C 0.68952 0.92366 0.41396 0.0
C1730 C 0.69565 0.94594 0.44383 0.0
C1731 C 0.66698 0.91743 0.4425 0.0
C1732 C 0.65143 0.91656 0.43845 0.0
C1733 C 0.63605 0.90426 0.44853 0.0
C1734 C 0.63659 0.89257 0.46303 0.0
C1735 C 0.65242 0.89322 0.46732 0.0
C1736 C 0.66775 0.9059 0.45685 0.0
H1737 H 0.06943 0.70227 0.40666 0.0
H1738 H 0.03666 0.72326 0.39084 0.0
H1739 H 0.05113 0.74604 0.41922 0.0
H1740 H 0.07122 0.71072 0.46514 0.0
H1741 H 0.09352 0.7162 0.46668 0.0
H1742 H 0.07924 0.70058 0.4468 0.0
H1743 H 0.10094 0.71915 0.41676 0.0
H1744 H 0.1152 0.73489 0.43648 0.0
H1745 H 0.10753 0.74195 0.41436 0.0
H1746 H 0.07166 0.76851 0.44646 0.0
H1747 H 0.09557 0.78794 0.47108 0.0
H1748 H 0.11373 0.75111 0.46969 0.0
C1749 C 0.06508 0.71148 0.40932 0.0
C1750 C 0.05197 0.71104 0.39648 0.0
C1751 C 0.04664 0.72332 0.40055 0.0
C1752 C 0.05478 0.7363 0.41661 0.0
C1753 C 0.068 0.7366 0.42861 0.0
C1754 C 0.07293 0.72435 0.4253 0.0
C1755 C 0.08802 0.72794 0.43948 0.0
C1756 C 0.08267 0.71297 0.45548 0.0
C1757 C 0.10385 0.73118 0.42596 0.0
C1758 C 0.09125 0.7445 0.4508 0.0
C1759 C 0.07952 0.74926 0.44448 0.0
C1760 C 0.0807 0.76473 0.45183 0.0
C1761 C 0.0943 0.77565 0.46588 0.0
C1762 C 0.10653 0.77105 0.47239 0.0
C1763 C 0.10472 0.75511 0.46493 0.0
H1764 H 0.35268 0.06197 0.73068 0.0
H1765 H 0.30368 0.01649 0.74944 0.0
H1766 H 0.30308 0.03213 0.78219 0.0
H1767 H 0.37027 0.07771 0.78668 0.0
H1768 H 0.37952 0.10039 0.77951 0.0
H1769 H 0.37791 0.08462 0.75965 0.0
H1770 H 0.36084 0.09349 0.73465 0.0
H1771 H 0.36227 0.10915 0.75443 0.0
H1772 H 0.34132 0.09237 0.74451 0.0
H1773 H 0.30535 0.05349 0.80964 0.0
H1774 H 0.31053 0.07961 0.83052 0.0
H1775 H 0.35784 0.11183 0.79431 0.0
C1776 C 0.3422 0.05516 0.74214 0.0
C1777 C 0.32832 0.03799 0.73777 0.0
C1778 C 0.31446 0.02963 0.75264 0.0
C1779 C 0.31405 0.03837 0.77131 0.0
C1780 C 0.32759 0.05551 0.77487 0.0
C1781 C 0.34147 0.06385 0.7608 0.0
C1782 C 0.35323 0.08296 0.76721 0.0
C1783 C 0.3713 0.08663 0.77365 0.0
C1784 C 0.35448 0.0952 0.74912 0.0
C1785 C 0.34343 0.08416 0.78652 0.0
C1786 C 0.32882 0.06808 0.79082 0.0
C1787 C 0.31691 0.0661 0.80672 0.0
C1788 C 0.31988 0.08098 0.81839 0.0
C1789 C 0.33461 0.09763 0.81406 0.0
C1790 C 0.34668 0.09916 0.7982 0.0
H1791 H 0.93302 0.29245 0.72758 0.0
H1792 H 0.97968 0.2897 0.71923 0.0
H1793 H 0.96881 0.26636 0.74648 0.0
H1794 H 0.92841 0.28525 0.78489 0.0
H1795 H 0.90503 0.2722 0.78374 0.0
H1796 H 0.91684 0.28905 0.76418 0.0
H1797 H 0.9021 0.26612 0.7334 0.0
H1798 H 0.89027 0.24921 0.75286 0.0
H1799 H 0.90365 0.24667 0.73306 0.0
H1800 H 0.95218 0.24255 0.77424 0.0
H1801 H 0.93147 0.22071 0.80003 0.0
H1802 H 0.89574 0.23906 0.78922 0.0
C1803 C 0.94108 0.28709 0.73152 0.0
C1804 C 0.95727 0.29301 0.72121 0.0
C1805 C 0.96727 0.28545 0.72687 0.0
C1806 C 0.9612 0.27218 0.74235 0.0
C1807 C 0.94511 0.26659 0.75204 0.0
C1808 C 0.93523 0.27386 0.74683 0.0
C1809 C 0.91823 0.26534 0.75912 0.0
C1810 C 0.91707 0.27876 0.77386 0.0
C1811 C 0.90265 0.2563 0.74368 0.0
C1812 C 0.92 0.25206 0.77203 0.0
C1813 C 0.93559 0.25297 0.7678 0.0
C1814 C 0.93994 0.24176 0.77767 0.0
C1815 C 0.92805 0.22932 0.7922 0.0
C1816 C 0.91196 0.22815 0.79673 0.0
C1817 C 0.90801 0.23976 0.78644 0.0
H1818 H 0.70136 0.63316 0.73108 0.0
H1819 H 0.71534 0.68748 0.72428 0.0
H1820 H 0.73812 0.69641 0.75169 0.0
H1821 H 0.70915 0.63544 0.78945 0.0
H1822 H 0.71772 0.62104 0.78761 0.0
H1823 H 0.70158 0.61875 0.76869 0.0
H1824 H 0.72214 0.62207 0.73719 0.0
H1825 H 0.73839 0.62453 0.75598 0.0
H1826 H 0.74369 0.6412 0.73623 0.0
H1827 H 0.76116 0.69982 0.77735 0.0
H1828 H 0.78182 0.69726 0.80055 0.0
H1829 H 0.75207 0.6406 0.79195 0.0
C1830 C 0.70901 0.6469 0.73556 0.0
C1831 C 0.70649 0.65959 0.72544 0.0
C1832 C 0.71692 0.67746 0.73177 0.0
C1833 C 0.72993 0.68269 0.74734 0.0
C1834 C 0.7323 0.66991 0.75663 0.0
C1835 C 0.72201 0.65236 0.75115 0.0
C1836 C 0.72763 0.64132 0.763 0.0
C1837 C 0.71316 0.62837 0.77809 0.0
C1838 C 0.7333 0.63172 0.74715 0.0
C1839 C 0.74295 0.65546 0.77558 0.0
C1840 C 0.74538 0.67185 0.77175 0.0
C1841 C 0.7592 0.68701 0.78078 0.0
C1842 C 0.77083 0.6854 0.79407 0.0
C1843 C 0.7686 0.66871 0.79833 0.0
C1844 C 0.75432 0.65358 0.78898 0.0
H1845 H 0.70544 0.63906 0.61702 0.0
H1846 H 0.71871 0.6931 0.62659 0.0
H1847 H 0.74161 0.70245 0.59883 0.0
H1848 H 0.74808 0.64784 0.61124 0.0
H1849 H 0.74284 0.63109 0.59103 0.0
H1850 H 0.72664 0.62855 0.61031 0.0
H1851 H 0.70582 0.62471 0.5793 0.0
H1852 H 0.72198 0.62723 0.5599 0.0
H1853 H 0.71304 0.64132 0.55901 0.0
H1854 H 0.7644 0.70607 0.57167 0.0
H1855 H 0.785 0.7036 0.54729 0.0
H1856 H 0.75666 0.6472 0.55601 0.0
C1857 C 0.71296 0.65284 0.61316 0.0
C1858 C 0.71021 0.66532 0.62404 0.0
C1859 C 0.72052 0.68325 0.61849 0.0
C1860 C 0.73355 0.68871 0.60271 0.0
C1861 C 0.73605 0.67606 0.59255 0.0
C1862 C 0.72597 0.6585 0.59751 0.0
C1863 C 0.73174 0.64759 0.58505 0.0
C1864 C 0.73768 0.63823 0.60032 0.0
C1865 C 0.71728 0.63444 0.56991 0.0
C1866 C 0.74685 0.6618 0.57255 0.0
C1867 C 0.74909 0.67813 0.57698 0.0
C1868 C 0.76268 0.69333 0.56797 0.0
C1869 C 0.77437 0.69181 0.55425 0.0
C1870 C 0.77241 0.6752 0.54969 0.0
C1871 C 0.75833 0.66003 0.55884 0.0
H1872 H 0.3172 0.03941 0.61591 0.0
H1873 H 0.36836 0.06149 0.64439 0.0
H1874 H 0.37991 0.08603 0.61871 0.0
H1875 H 0.33237 0.05239 0.55998 0.0
H1876 H 0.31532 0.05681 0.55443 0.0
H1877 H 0.3117 0.04017 0.57348 0.0
H1878 H 0.30313 0.05567 0.60244 0.0
H1879 H 0.30685 0.07241 0.58359 0.0
H1880 H 0.31809 0.07843 0.60899 0.0
H1881 H 0.38508 0.10971 0.59197 0.0
H1882 H 0.38352 0.1299 0.56641 0.0
H1883 H 0.32899 0.0918 0.55542 0.0
C1884 C 0.33092 0.04923 0.6166 0.0
C1885 C 0.34186 0.04849 0.63224 0.0
C1886 C 0.35972 0.06168 0.6325 0.0
C1887 C 0.36639 0.07569 0.61798 0.0
C1888 C 0.3551 0.07621 0.60313 0.0
C1889 C 0.33777 0.06319 0.60221 0.0
C1890 C 0.32811 0.06712 0.58549 0.0
C1891 C 0.32149 0.0533 0.56726 0.0
C1892 C 0.31317 0.06849 0.59575 0.0
C1893 C 0.34252 0.08474 0.57769 0.0
C1894 C 0.35807 0.08969 0.58781 0.0
C1895 C 0.37303 0.10582 0.58376 0.0
C1896 C 0.37203 0.11718 0.56914 0.0
C1897 C 0.35614 0.11245 0.55884 0.0
C1898 C 0.3413 0.09589 0.56309 0.0
H1899 H 0.95791 0.27956 0.62615 0.0
H1900 H 0.96064 0.3261 0.60098 0.0
H1901 H 0.94508 0.30962 0.56834 0.0
H1902 H 0.95974 0.25954 0.57201 0.0
H1903 H 0.94419 0.23775 0.58099 0.0
H1904 H 0.95908 0.25402 0.59991 0.0
H1905 H 0.93306 0.24894 0.62367 0.0
H1906 H 0.9181 0.23289 0.60476 0.0
H1907 H 0.91613 0.25149 0.61215 0.0
H1908 H 0.92473 0.28754 0.54254 0.0
H1909 H 0.90175 0.26103 0.52387 0.0
H1910 H 0.91168 0.22824 0.56497 0.0
C1911 C 0.95592 0.28638 0.61324 0.0
C1912 C 0.96069 0.30411 0.61574 0.0
C1913 C 0.95724 0.31255 0.5991 0.0
C1914 C 0.94845 0.30331 0.58052 0.0
C1915 C 0.94317 0.28562 0.57887 0.0
C1916 C 0.94692 0.27722 0.59462 0.0
C1917 C 0.93775 0.25762 0.59014 0.0
C1918 C 0.95098 0.2519 0.58548 0.0
C1919 C 0.92554 0.24713 0.60878 0.0
C1920 C 0.92763 0.25627 0.57009 0.0
C1921 C 0.93119 0.27263 0.5637 0.0
C1922 C 0.92217 0.27469 0.54699 0.0
C1923 C 0.90911 0.25963 0.53658 0.0
C1924 C 0.90526 0.2428 0.54291 0.0
C1925 C 0.91478 0.24108 0.55962 0.0
H1926 H 0.37152 0.29876 0.63964 0.0
H1927 H 0.33346 0.30941 0.61287 0.0
H1928 H 0.33068 0.29129 0.58084 0.0
H1929 H 0.39204 0.2971 0.58904 0.0
H1930 H 0.39418 0.279 0.59755 0.0
H1931 H 0.39468 0.29441 0.61716 0.0
H1932 H 0.36939 0.26886 0.638 0.0
H1933 H 0.36883 0.2534 0.6185 0.0
H1934 H 0.34944 0.2541 0.62411 0.0
H1935 H 0.33149 0.27144 0.55232 0.0
H1936 H 0.33385 0.24933 0.53065 0.0
H1937 H 0.36939 0.24947 0.57775 0.0
C1938 C 0.36288 0.29755 0.62681 0.0
C1939 C 0.35288 0.30566 0.6285 0.0
C1940 C 0.3413 0.30337 0.61175 0.0
C1941 C 0.33969 0.29318 0.5935 0.0
C1942 C 0.34959 0.28519 0.59241 0.0
C1943 C 0.36084 0.28711 0.60871 0.0
C1944 C 0.36877 0.27585 0.60449 0.0
C1945 C 0.3886 0.28728 0.6019 0.0
C1946 C 0.3638 0.26225 0.62233 0.0
C1947 C 0.36011 0.26718 0.58338 0.0
C1948 C 0.34933 0.27297 0.57653 0.0
C1949 C 0.33982 0.26673 0.55758 0.0
C1950 C 0.34114 0.25403 0.54548 0.0
C1951 C 0.35165 0.24741 0.55253 0.0
C1952 C 0.3614 0.25432 0.57166 0.0
H1953 H 0.72255 0.05918 0.63397 0.0
H1954 H 0.71284 0.0113 0.60199 0.0
H1955 H 0.72879 0.0283 0.56987 0.0
H1956 H 0.72117 0.08259 0.58616 0.0
H1957 H 0.73898 0.10339 0.5954 0.0
H1958 H 0.72477 0.08724 0.61458 0.0
H1959 H 0.75133 0.08847 0.63253 0.0
H1960 H 0.76559 0.10457 0.61342 0.0
H1961 H 0.76582 0.08455 0.61638 0.0
H1962 H 0.7467 0.05062 0.54194 0.0
H1963 H 0.76713 0.07661 0.52117 0.0
H1964 H 0.76784 0.11031 0.57308 0.0
C1965 C 0.72343 0.05229 0.61995 0.0
C1966 C 0.71624 0.03394 0.62016 0.0
C1967 C 0.71815 0.02535 0.60193 0.0
C1968 C 0.72712 0.03488 0.58366 0.0
C1969 C 0.73434 0.05303 0.58404 0.0
C1970 C 0.73274 0.06168 0.60178 0.0
C1971 C 0.74324 0.0814 0.59893 0.0
C1972 C 0.73132 0.0891 0.59875 0.0
C1973 C 0.75733 0.09026 0.61635 0.0
C1974 C 0.75115 0.08249 0.57694 0.0
C1975 C 0.74559 0.06598 0.56848 0.0
C1976 C 0.75122 0.06363 0.54846 0.0
C1977 C 0.76301 0.07854 0.53687 0.0
C1978 C 0.76941 0.09567 0.54548 0.0
C1979 C 0.76316 0.09753 0.56577 0.0
H1980 H 0.9718 0.69897 0.61259 0.0
H1981 H 0.9538 0.6461 0.6343 0.0
H1982 H 0.92921 0.63462 0.60878 0.0
H1983 H 0.93114 0.69461 0.60922 0.0
H1984 H 0.93602 0.70795 0.58567 0.0
H1985 H 0.9532 0.71168 0.60367 0.0
H1986 H 0.96991 0.70754 0.57212 0.0
H1987 H 0.95283 0.70395 0.55394 0.0
H1988 H 0.9592 0.6878 0.55588 0.0
H1989 H 0.90504 0.62937 0.58266 0.0
H1990 H 0.88397 0.63089 0.55875 0.0
H1991 H 0.91819 0.68732 0.55481 0.0
C1992 C 0.96292 0.68491 0.61179 0.0
C1993 C 0.96485 0.67345 0.6255 0.0
C1994 C 0.95273 0.65517 0.62393 0.0
C1995 C 0.93869 0.64853 0.60947 0.0
C1996 C 0.93698 0.66031 0.59662 0.0
C1997 C 0.94888 0.67811 0.59759 0.0
C1998 C 0.9437 0.68822 0.58314 0.0
C1999 C 0.94084 0.70138 0.59621 0.0
C2000 C 0.95721 0.69741 0.5652 0.0
C2001 C 0.92678 0.67339 0.5742 0.0
C2002 C 0.92316 0.65735 0.58193 0.0
C2003 C 0.90788 0.64186 0.57636 0.0
C2004 C 0.89601 0.64285 0.5627 0.0
C2005 C 0.89938 0.65923 0.5549 0.0
C2006 C 0.91511 0.67461 0.56063 0.0
H2007 H 0.95152 0.66253 0.72665 0.0
H2008 H 0.98743 0.71868 0.73352 0.0
H2009 H 0.96962 0.71999 0.76285 0.0
H2010 H 0.91332 0.66383 0.73468 0.0
H2011 H 0.90192 0.64392 0.74995 0.0
H2012 H 0.91826 0.6467 0.73072 0.0
H2013 H 0.9348 0.64103 0.76038 0.0
H2014 H 0.91842 0.63808 0.77969 0.0
H2015 H 0.94095 0.65409 0.78474 0.0
H2016 H 0.94704 0.7162 0.7887 0.0
H2017 H 0.92116 0.70722 0.811 0.0
H2018 H 0.89976 0.65321 0.78929 0.0
C2019 C 0.95578 0.67501 0.73463 0.0
C2020 C 0.97087 0.6905 0.7277 0.0
C2021 C 0.97588 0.70663 0.73838 0.0
C2022 C 0.96589 0.70754 0.75516 0.0
C2023 C 0.9509 0.69219 0.76123 0.0
C2024 C 0.94587 0.67618 0.75149 0.0
C2025 C 0.92865 0.6619 0.7606 0.0
C2026 C 0.91472 0.65361 0.74293 0.0
C2027 C 0.93084 0.64795 0.77204 0.0
C2028 C 0.9247 0.67252 0.77654 0.0
C2029 C 0.9378 0.68993 0.77666 0.0
C2030 C 0.93683 0.70253 0.78912 0.0
C2031 C 0.92207 0.69723 0.8019 0.0
C2032 C 0.90842 0.67942 0.80231 0.0
C2033 C 0.90988 0.66693 0.78942 0.0
H2034 H 0.3671 0.30606 0.74354 0.0
H2035 H 0.31426 0.28165 0.71954 0.0
H2036 H 0.30519 0.2572 0.74466 0.0
H2037 H 0.36825 0.26733 0.7489 0.0
H2038 H 0.3808 0.2741 0.77334 0.0
H2039 H 0.38294 0.29032 0.75458 0.0
H2040 H 0.37521 0.30568 0.78469 0.0
H2041 H 0.37313 0.28954 0.8036 0.0
H2042 H 0.35534 0.29317 0.79972 0.0
H2043 H 0.30222 0.23451 0.77091 0.0
H2044 H 0.30558 0.21545 0.79641 0.0
H2045 H 0.36021 0.2549 0.8037 0.0
C2046 C 0.35357 0.29569 0.74367 0.0
C2047 C 0.34141 0.29584 0.72949 0.0
C2048 C 0.32385 0.28191 0.73023 0.0
C2049 C 0.31855 0.26795 0.74447 0.0
C2050 C 0.33092 0.26812 0.758 0.0
C2051 C 0.34805 0.28168 0.75781 0.0
C2052 C 0.35888 0.27846 0.77353 0.0
C2053 C 0.37358 0.27749 0.76188 0.0
C2054 C 0.36606 0.29255 0.79145 0.0
C2055 C 0.34528 0.26076 0.78217 0.0
C2056 C 0.3292 0.25509 0.77316 0.0
C2057 C 0.31471 0.2389 0.77824 0.0
C2058 C 0.31673 0.2282 0.79284 0.0
C2059 C 0.33314 0.23368 0.80216 0.0
C2060 C 0.34753 0.25026 0.79678 0.0
H2061 H 0.73348 0.03379 0.73539 0.0
H2062 H 0.70539 0.05968 0.71819 0.0
H2063 H 0.72119 0.08213 0.74642 0.0
H2064 H 0.73471 0.04203 0.79322 0.0
H2065 H 0.75622 0.04545 0.79598 0.0
H2066 H 0.74192 0.03089 0.7753 0.0
H2067 H 0.76529 0.04868 0.74644 0.0
H2068 H 0.77963 0.0633 0.76699 0.0
H2069 H 0.77396 0.07196 0.74454 0.0
H2070 H 0.74166 0.10291 0.77474 0.0
H2071 H 0.76476 0.12011 0.80122 0.0
H2072 H 0.77843 0.07977 0.80076 0.0
C2073 C 0.7305 0.04407 0.73761 0.0
C2074 C 0.7182 0.04496 0.72449 0.0
C2075 C 0.71473 0.05868 0.72803 0.0
C2076 C 0.72363 0.07149 0.74404 0.0
C2077 C 0.73582 0.0703 0.75648 0.0
C2078 C 0.73915 0.05687 0.75353 0.0
C2079 C 0.75323 0.05882 0.76855 0.0
C2080 C 0.74609 0.04338 0.78419 0.0
C2081 C 0.76895 0.06081 0.75587 0.0
C2082 C 0.75758 0.07569 0.78011 0.0
C2083 C 0.74735 0.08207 0.77301 0.0
C2084 C 0.74956 0.0979 0.78066 0.0
C2085 C 0.76266 0.10752 0.79583 0.0
C2086 C 0.77339 0.10127 0.80326 0.0
C2087 C 0.77057 0.08501 0.79538 0.0
H2088 H 0.0606 0.35195 0.02614 0.0
H2089 H 0.01792 0.33221 0.07175 0.0
H2090 H 0.03596 0.32901 0.09887 0.0
H2091 H 0.07443 0.32181 0.04144 0.0
H2092 H 0.09725 0.33741 0.03771 0.0
H2093 H 0.08137 0.33906 0.02207 0.0
H2094 H 0.09406 0.37112 0.03539 0.0
H2095 H 0.10997 0.36957 0.05108 0.0
H2096 H 0.09579 0.3758 0.06387 0.0
H2097 H 0.05869 0.32886 0.12148 0.0
H2098 H 0.08405 0.32913 0.13722 0.0
H2099 H 0.11143 0.3464 0.07647 0.0
C2100 C 0.05515 0.34706 0.04189 0.0
C2101 C 0.03791 0.34243 0.04694 0.0
C2102 C 0.03109 0.33579 0.06756 0.0
C2103 C 0.04125 0.33399 0.0831 0.0
C2104 C 0.05815 0.33858 0.07766 0.0
C2105 C 0.06501 0.34473 0.05749 0.0
C2106 C 0.08328 0.34782 0.05559 0.0
C2107 C 0.08412 0.3358 0.03817 0.0
C2108 C 0.09656 0.36723 0.05123 0.0
C2109 C 0.08562 0.34262 0.0779 0.0
C2110 C 0.071 0.33754 0.09042 0.0
C2111 C 0.07016 0.33267 0.1118 0.0
C2112 C 0.08459 0.3329 0.12061 0.0
C2113 C 0.09954 0.33768 0.108 0.0
C2114 C 0.10005 0.34256 0.08635 0.0
H2115 H 0.64582 0.69094 0.04787 0.0
H2116 H 0.69982 0.70522 0.04429 0.0
H2117 H 0.70826 0.73228 0.06546 0.0
H2118 H 0.65185 0.73272 0.0426 0.0
H2119 H 0.63543 0.72977 0.06184 0.0
H2120 H 0.63352 0.71109 0.04756 0.0
H2121 H 0.63155 0.69593 0.08364 0.0
H2122 H 0.6332 0.71448 0.09806 0.0
H2123 H 0.64829 0.70736 0.10354 0.0
H2124 H 0.7109 0.7594 0.08269 0.0
H2125 H 0.70755 0.78282 0.09901 0.0
H2126 H 0.65133 0.74895 0.09539 0.0
C2127 C 0.65938 0.69965 0.05182 0.0
C2128 C 0.67222 0.69613 0.04443 0.0
C2129 C 0.68982 0.70772 0.04995 0.0
C2130 C 0.69472 0.72311 0.06187 0.0
C2131 C 0.68177 0.72642 0.06852 0.0
C2132 C 0.66442 0.7148 0.06414 0.0
C2133 C 0.65306 0.7214 0.07318 0.0
C2134 C 0.64287 0.72389 0.05522 0.0
C2135 C 0.6408 0.70906 0.09065 0.0
C2136 C 0.66678 0.73883 0.0827 0.0
C2137 C 0.68324 0.74153 0.07973 0.0
C2138 C 0.69804 0.75723 0.08569 0.0
C2139 C 0.69594 0.77045 0.09515 0.0
C2140 C 0.67913 0.76784 0.09901 0.0
C2141 C 0.66441 0.75166 0.09268 0.0
H2142 H 0.29772 0.94727 0.0248 0.0
H2143 H 0.3185 0.99039 0.07101 0.0
H2144 H 0.2965 0.97128 0.09753 0.0
H2145 H 0.2535 0.93104 0.0376 0.0
H2146 H 0.24661 0.90819 0.03418 0.0
H2147 H 0.26506 0.92461 0.0194 0.0
H2148 H 0.28412 0.91322 0.03484 0.0
H2149 H 0.2657 0.89672 0.04964 0.0
H2150 H 0.28552 0.91177 0.06356 0.0
H2151 H 0.27178 0.94831 0.11843 0.0
H2152 H 0.24496 0.92294 0.13231 0.0
H2153 H 0.23881 0.89472 0.07226 0.0
C2154 C 0.29778 0.95254 0.04064 0.0
C2155 C 0.30985 0.97026 0.04595 0.0
C2156 C 0.30936 0.97684 0.06664 0.0
C2157 C 0.29696 0.96608 0.08184 0.0
C2158 C 0.28505 0.94877 0.07606 0.0
C2159 C 0.28527 0.942 0.05597 0.0
C2160 C 0.27019 0.92327 0.0535 0.0
C2161 C 0.25813 0.9217 0.03508 0.0
C2162 C 0.27678 0.91049 0.05019 0.0
C2163 C 0.26138 0.92071 0.07522 0.0
C2164 C 0.27032 0.93555 0.08802 0.0
C2165 C 0.26464 0.9366 0.10857 0.0
C2166 C 0.24929 0.92215 0.11624 0.0
C2167 C 0.23963 0.90687 0.10332 0.0
C2168 C 0.24594 0.90613 0.08261 0.0
H2169 H 0.35725 0.05694 0.99324 0.0
H2170 H 0.32338 0.01238 0.95231 0.0
H2171 H 0.31972 0.03187 0.92816 0.0
H2172 H 0.33281 0.07854 0.98846 0.0
H2173 H 0.35156 0.10042 0.98817 0.0
H2174 H 0.35247 0.08323 1.00196 0.0
H2175 H 0.37939 0.08938 0.97936 0.0
H2176 H 0.37856 0.10659 0.96549 0.0
H2177 H 0.37815 0.08889 0.95042 0.0
H2178 H 0.31931 0.05554 0.9085 0.0
H2179 H 0.3213 0.08234 0.89488 0.0
H2180 H 0.35425 0.11205 0.94887 0.0
C2181 C 0.3492 0.05137 0.9791 0.0
C2182 C 0.34062 0.03314 0.97465 0.0
C2183 C 0.33002 0.02628 0.95612 0.0
C2184 C 0.3279 0.03725 0.94222 0.0
C2185 C 0.33635 0.05509 0.94709 0.0
C2186 C 0.34673 0.06217 0.96508 0.0
C2187 C 0.35369 0.08177 0.96683 0.0
C2188 C 0.34724 0.08625 0.98759 0.0
C2189 C 0.37364 0.09227 0.96544 0.0
C2190 C 0.34556 0.08446 0.94705 0.0
C2191 C 0.33572 0.06887 0.93589 0.0
C2192 C 0.32688 0.06784 0.91715 0.0
C2193 C 0.32798 0.08314 0.90965 0.0
C2194 C 0.33772 0.09931 0.92093 0.0
C2195 C 0.34675 0.09994 0.93982 0.0
H2196 H 0.98565 0.29535 0.97083 0.0
H2197 H 0.96449 0.32956 0.96952 0.0
H2198 H 0.94125 0.30885 0.9452 0.0
H2199 H 0.97385 0.27762 0.9149 0.0
H2200 H 0.96779 0.25574 0.92274 0.0
H2201 H 0.98447 0.27445 0.93735 0.0
H2202 H 0.96742 0.26184 0.97283 0.0
H2203 H 0.9507 0.24315 0.95834 0.0
H2204 H 0.94516 0.25651 0.97469 0.0
H2205 H 0.91935 0.28404 0.9234 0.0
H2206 H 0.89871 0.25547 0.90691 0.0
H2207 H 0.93226 0.23568 0.92418 0.0
C2208 C 0.97636 0.29861 0.96489 0.0
C2209 C 0.97696 0.31415 0.97169 0.0
C2210 C 0.96431 0.3178 0.96432 0.0
C2211 C 0.9511 0.30614 0.95043 0.0
C2212 C 0.95058 0.29076 0.94431 0.0
C2213 C 0.96277 0.28684 0.95135 0.0
C2214 C 0.95801 0.26849 0.9442 0.0
C2215 C 0.97186 0.26912 0.92888 0.0
C2216 C 0.95515 0.25681 0.96368 0.0
C2217 C 0.9411 0.26265 0.93246 0.0
C2218 C 0.9373 0.27587 0.93243 0.0
C2219 C 0.92217 0.27357 0.92327 0.0
C2220 C 0.91045 0.25723 0.91412 0.0
C2221 C 0.91373 0.24324 0.91447 0.0
C2222 C 0.92944 0.24614 0.92348 0.0
H2223 H 0.69081 0.63702 0.97574 0.0
H2224 H 0.69708 0.68665 0.95603 0.0
H2225 H 0.72185 0.69211 0.93321 0.0
H2226 H 0.73562 0.65148 0.9789 0.0
H2227 H 0.73362 0.63156 0.96817 0.0
H2228 H 0.71561 0.63082 0.9822 0.0
H2229 H 0.69583 0.61571 0.94915 0.0
H2230 H 0.71378 0.61633 0.93505 0.0
H2231 H 0.70239 0.62595 0.92322 0.0
H2232 H 0.74724 0.6936 0.9149 0.0
H2233 H 0.77085 0.68994 0.90007 0.0
H2234 H 0.74801 0.63895 0.92989 0.0
C2235 C 0.69726 0.64891 0.96639 0.0
C2236 C 0.69197 0.6614 0.96771 0.0
C2237 C 0.70083 0.67685 0.95531 0.0
C2238 C 0.71495 0.68011 0.94227 0.0
C2239 C 0.72003 0.66772 0.94159 0.0
C2240 C 0.71138 0.65233 0.95308 0.0
C2241 C 0.71983 0.64142 0.94965 0.0
C2242 C 0.72657 0.63866 0.971 0.0
C2243 C 0.7072 0.62381 0.93861 0.0
C2244 C 0.73471 0.65326 0.93479 0.0
C2245 C 0.73456 0.66837 0.93042 0.0
C2246 C 0.7474 0.68174 0.91798 0.0
C2247 C 0.76079 0.6796 0.90973 0.0
C2248 C 0.76116 0.66417 0.91381 0.0
C2249 C 0.74787 0.65077 0.92636 0.0
H2250 H 0.97018 0.66892 0.95827 0.0
H2251 H 0.93885 0.62563 1.00115 0.0
H2252 H 0.91223 0.62146 0.98431 0.0
H2253 H 0.94321 0.68706 0.9581 0.0
H2254 H 0.9461 0.6925 0.92997 0.0
H2255 H 0.9629 0.6916 0.94445 0.0
H2256 H 0.96192 0.66905 0.91672 0.0
H2257 H 0.94519 0.66998 0.90206 0.0
H2258 H 0.94154 0.64919 0.91121 0.0
H2259 H 0.88896 0.62266 0.96418 0.0
H2260 H 0.87045 0.62879 0.94099 0.0
H2261 H 0.91643 0.67122 0.91108 0.0
C2262 C 0.95772 0.65844 0.96394 0.0
C2263 C 0.95661 0.64758 0.98102 0.0
C2264 C 0.94005 0.63406 0.98803 0.0
C2265 C 0.92483 0.6316 0.97859 0.0
C2266 C 0.92634 0.64265 0.96201 0.0
C2267 C 0.94233 0.6557 0.95457 0.0
C2268 C 0.94023 0.66586 0.93664 0.0
C2269 C 0.94861 0.68541 0.94266 0.0
C2270 C 0.94766 0.66337 0.9154 0.0
C2271 C 0.92058 0.65684 0.93571 0.0
C2272 C 0.91284 0.64336 0.95035 0.0
C2273 C 0.89484 0.63311 0.95258 0.0
C2274 C 0.88445 0.63667 0.93943 0.0
C2275 C 0.89211 0.65042 0.92443 0.0
C2276 C 0.91037 0.66066 0.92253 0.0
H2277 H 0.35757 0.3082 0.98765 0.0
H2278 H 0.31266 0.30734 0.96082 0.0
H2279 H 0.30786 0.28318 0.93622 0.0
H2280 H 0.37284 0.29893 0.93754 0.0
H2281 H 0.3796 0.28531 0.95024 0.0
H2282 H 0.37986 0.30298 0.96519 0.0
H2283 H 0.36027 0.28106 0.99444 0.0
H2284 H 0.3599 0.26333 0.97956 0.0
H2285 H 0.33979 0.26209 0.9868 0.0
H2286 H 0.30682 0.25791 0.91627 0.0
H2287 H 0.31062 0.23421 0.90088 0.0
H2288 H 0.35672 0.25216 0.93974 0.0
C2289 C 0.34682 0.30303 0.97647 0.0
C2290 C 0.33546 0.30961 0.97614 0.0
C2291 C 0.32152 0.30249 0.96133 0.0
C2292 C 0.31869 0.28876 0.9473 0.0
C2293 C 0.32999 0.28241 0.94822 0.0
C2294 C 0.34386 0.28939 0.96229 0.0
C2295 C 0.35388 0.27997 0.96029 0.0
C2296 C 0.37266 0.29255 0.95287 0.0
C2297 C 0.35342 0.27109 0.98154 0.0
C2298 C 0.34342 0.26653 0.943 0.0
C2299 C 0.32963 0.26811 0.93633 0.0
C2300 C 0.31766 0.25665 0.9212 0.0
C2301 C 0.31985 0.24322 0.91264 0.0
C2302 C 0.33399 0.24151 0.91911 0.0
C2303 C 0.34595 0.25338 0.93437 0.0
H2304 H 0.70296 0.02861 0.96012 0.0
H2305 H 0.70845 0.05699 0.0198 0.0
H2306 H 0.73543 0.08239 0.00615 0.0
H2307 H 0.74882 0.04527 0.95102 0.0
H2308 H 0.74762 0.04707 0.92234 0.0
H2309 H 0.72892 0.03074 0.9369 0.0
H2310 H 0.7105 0.04302 0.92185 0.0
H2311 H 0.72913 0.05935 0.90721 0.0
H2312 H 0.71784 0.06595 0.92562 0.0
H2313 H 0.76177 0.10453 0.98658 0.0
H2314 H 0.78535 0.12292 0.96145 0.0
H2315 H 0.76248 0.0812 0.91328 0.0
C2316 C 0.70992 0.04015 0.97032 0.0
C2317 C 0.70366 0.04079 0.99109 0.0
C2318 C 0.713 0.05619 0.00386 0.0
C2319 C 0.72837 0.07068 0.99627 0.0
C2320 C 0.7342 0.06966 0.97578 0.0
C2321 C 0.72525 0.05488 0.96287 0.0
C2322 C 0.73416 0.05756 0.94118 0.0
C2323 C 0.74024 0.04438 0.93766 0.0
C2324 C 0.72219 0.0564 0.92289 0.0
C2325 C 0.7495 0.07613 0.944 0.0
C2326 C 0.74926 0.08276 0.96414 0.0
C2327 C 0.76203 0.09955 0.97068 0.0
C2328 C 0.77531 0.10996 0.95617 0.0
C2329 C 0.77574 0.10368 0.93519 0.0
C2330 C 0.76265 0.08641 0.92918 0.0
H2331 H 0.67031 0.97314 0.05892 0.0
H2332 H 0.63925 0.94604 0.00271 0.0
H2333 H 0.6366 0.91836 0.01507 0.0
H2334 H 0.69373 0.95075 0.06169 0.0
H2335 H 0.69336 0.94995 0.09064 0.0
H2336 H 0.69275 0.96748 0.07734 0.0
H2337 H 0.66434 0.9597 0.09762 0.0
H2338 H 0.66492 0.94221 0.11108 0.0
H2339 H 0.64595 0.93762 0.09599 0.0
H2340 H 0.63866 0.89396 0.03305 0.0
H2341 H 0.64344 0.87447 0.05598 0.0
H2342 H 0.67136 0.91735 0.10177 0.0
C2343 C 0.66294 0.96139 0.04918 0.0
C2344 C 0.65507 0.96175 0.02976 0.0
C2345 C 0.64538 0.94605 0.01763 0.0
C2346 C 0.64385 0.9303 0.02451 0.0
C2347 C 0.6519 0.93045 0.04368 0.0
C2348 C 0.66109 0.94556 0.05595 0.0
C2349 C 0.66822 0.94221 0.07613 0.0
C2350 C 0.6882 0.95325 0.07646 0.0
C2351 C 0.66039 0.94563 0.0964 0.0
C2352 C 0.66181 0.92287 0.07323 0.0
C2353 C 0.65251 0.91633 0.05437 0.0
C2354 C 0.64572 0.89891 0.048 0.0
C2355 C 0.64841 0.88788 0.06129 0.0
C2356 C 0.65766 0.89418 0.08095 0.0
C2357 C 0.6644 0.912 0.08684 0.0
H2358 H 0.04456 0.70722 0.02595 0.0
H2359 H 0.99967 0.69389 0.06604 0.0
H2360 H 0.01821 0.719 0.09024 0.0
H2361 H 0.0752 0.71959 0.06795 0.0
H2362 H 0.09271 0.73741 0.05345 0.0
H2363 H 0.07579 0.71885 0.03899 0.0
H2364 H 0.06951 0.73956 0.01707 0.0
H2365 H 0.08649 0.75821 0.03139 0.0
H2366 H 0.06478 0.75456 0.03105 0.0
H2367 H 0.04221 0.74455 0.11112 0.0
H2368 H 0.06922 0.76918 0.12621 0.0
H2369 H 0.09798 0.76659 0.07107 0.0
C2370 C 0.03858 0.70964 0.03974 0.0
C2371 C 0.02068 0.69862 0.04417 0.0
C2372 C 0.01335 0.70222 0.06234 0.0
C2373 C 0.02378 0.71642 0.07617 0.0
C2374 C 0.04145 0.72692 0.07145 0.0
C2375 C 0.04874 0.72378 0.05355 0.0
C2376 C 0.06805 0.73688 0.05211 0.0
C2377 C 0.07855 0.72763 0.05319 0.0
C2378 C 0.07246 0.74796 0.03169 0.0
C2379 C 0.07058 0.7478 0.07215 0.0
C2380 C 0.0551 0.74185 0.08311 0.0
C2381 C 0.05435 0.74949 0.10249 0.0
C2382 C 0.06979 0.76359 0.11085 0.0
C2383 C 0.08583 0.77006 0.09978 0.0
C2384 C 0.08607 0.76199 0.0801 0.0
H2385 H 0.29688 0.35212 0.03072 0.0
H2386 H 0.31663 0.33015 0.0763 0.0
H2387 H 0.29427 0.32655 0.10262 0.0
H2388 H 0.28484 0.37528 0.069 0.0
H2389 H 0.26511 0.36989 0.05518 0.0
H2390 H 0.28328 0.37172 0.04028 0.0
H2391 H 0.26362 0.34027 0.02495 0.0
H2392 H 0.2454 0.33832 0.03983 0.0
H2393 H 0.25179 0.3223 0.04318 0.0
H2394 H 0.27039 0.32583 0.12417 0.0
H2395 H 0.24473 0.32596 0.13887 0.0
H2396 H 0.23867 0.34606 0.07858 0.0
C2397 C 0.29654 0.34672 0.04633 0.0
C2398 C 0.3085 0.34153 0.05164 0.0
C2399 C 0.30754 0.33419 0.072 0.0
C2400 C 0.29494 0.33214 0.08705 0.0
C2401 C 0.28322 0.33723 0.08133 0.0
C2402 C 0.28374 0.34418 0.0614 0.0
C2403 C 0.26897 0.34766 0.05901 0.0
C2404 C 0.27597 0.36731 0.05568 0.0
C2405 C 0.25672 0.33647 0.04065 0.0
C2406 C 0.26019 0.34171 0.08075 0.0
C2407 C 0.26878 0.33593 0.09343 0.0
C2408 C 0.26348 0.3302 0.11437 0.0
C2409 C 0.24896 0.33034 0.12258 0.0
C2410 C 0.23981 0.33592 0.10975 0.0
C2411 C 0.24543 0.3416 0.08856 0.0
H2412 H 0.70327 0.66151 0.38324 0.0
H2413 H 0.73517 0.71145 0.35162 0.0
H2414 H 0.76121 0.71481 0.36928 0.0
H2415 H 0.72611 0.67357 0.43352 0.0
H2416 H 0.72422 0.6526 0.43739 0.0
H2417 H 0.70797 0.65395 0.42221 0.0
H2418 H 0.71305 0.6384 0.38986 0.0
H2419 H 0.72932 0.63699 0.40495 0.0
H2420 H 0.73467 0.64737 0.37906 0.0
H2421 H 0.78365 0.71343 0.3912 0.0
H2422 H 0.80137 0.70665 0.41477 0.0
H2423 H 0.75546 0.65713 0.43143 0.0
C2424 C 0.71574 0.67312 0.38001 0.0
C2425 C 0.71716 0.68624 0.36605 0.0
C2426 C 0.73374 0.70121 0.36219 0.0
C2427 C 0.74862 0.70326 0.37218 0.0
C2428 C 0.74679 0.69016 0.38588 0.0
C2429 C 0.73082 0.67531 0.3897 0.0
C2430 C 0.73255 0.66315 0.40503 0.0
C2431 C 0.72209 0.66068 0.42577 0.0
C2432 C 0.72707 0.64543 0.39406 0.0
C2433 C 0.75196 0.67357 0.40931 0.0
C2434 C 0.75988 0.68915 0.39817 0.0
C2435 C 0.77762 0.70123 0.39993 0.0
C2436 C 0.78756 0.69731 0.41343 0.0
C2437 C 0.77981 0.68138 0.4249 0.0
C2438 C 0.76176 0.66933 0.42268 0.0
H2439 H 0.34786 0.03813 0.39401 0.0
H2440 H 0.30412 0.02679 0.35332 0.0
H2441 H 0.30155 0.05002 0.37181 0.0
H2442 H 0.3309 0.04756 0.44274 0.0
H2443 H 0.3519 0.06502 0.4516 0.0
H2444 H 0.35019 0.04712 0.43557 0.0
H2445 H 0.37169 0.06924 0.40778 0.0
H2446 H 0.37343 0.08719 0.42368 0.0
H2447 H 0.36705 0.08476 0.39586 0.0
H2448 H 0.30397 0.07473 0.39357 0.0
H2449 H 0.31116 0.09967 0.41791 0.0
H2450 H 0.3531 0.0953 0.44528 0.0
C2451 C 0.33771 0.04052 0.38909 0.0
C2452 C 0.32619 0.03064 0.37221 0.0
C2453 C 0.31309 0.03415 0.36622 0.0
C2454 C 0.3115 0.04733 0.37661 0.0
C2455 C 0.32308 0.05688 0.39307 0.0
C2456 C 0.3359 0.05366 0.39939 0.0
C2457 C 0.34668 0.06605 0.4175 0.0
C2458 C 0.3448 0.05583 0.43807 0.0
C2459 C 0.36585 0.07749 0.41079 0.0
C2460 C 0.33808 0.07688 0.42003 0.0
C2461 C 0.32443 0.07125 0.40584 0.0
C2462 C 0.31454 0.07919 0.4049 0.0
C2463 C 0.31866 0.09329 0.41889 0.0
C2464 C 0.33259 0.09935 0.43364 0.0
C2465 C 0.34243 0.09101 0.43414 0.0
H2466 H 0.97639 0.2902 0.37734 0.0
H2467 H 0.96645 0.33295 0.38376 0.0
H2468 H 0.93862 0.31323 0.40196 0.0
H2469 H 0.93213 0.25503 0.36869 0.0
H2470 H 0.93409 0.2395 0.38492 0.0
H2471 H 0.95291 0.25668 0.37143 0.0
H2472 H 0.96925 0.26705 0.40777 0.0
H2473 H 0.95051 0.24984 0.42133 0.0
H2474 H 0.95956 0.27235 0.42991 0.0
H2475 H 0.91147 0.28877 0.41798 0.0
H2476 H 0.88806 0.26206 0.43464 0.0
H2477 H 0.9169 0.23574 0.42175 0.0
C2478 C 0.96827 0.29532 0.3825 0.0
C2479 C 0.97343 0.31303 0.37901 0.0
C2480 C 0.96269 0.31941 0.3863 0.0
C2481 C 0.94684 0.3083 0.39655 0.0
C2482 C 0.94206 0.2909 0.39975 0.0
C2483 C 0.95255 0.28448 0.39328 0.0
C2484 C 0.94474 0.2655 0.39987 0.0
C2485 C 0.94073 0.25347 0.38004 0.0
C2486 C 0.95673 0.26358 0.41566 0.0
C2487 C 0.92817 0.26226 0.41084 0.0
C2488 C 0.92682 0.27704 0.41031 0.0
C2489 C 0.91251 0.27719 0.41884 0.0
C2490 C 0.89932 0.26192 0.4285 0.0
C2491 C 0.9006 0.24669 0.43003 0.0
C2492 C 0.91528 0.24697 0.42084 0.0
H2493 H 1.00166 0.36831 0.29711 0.0
H2494 H 0.03974 0.40094 0.34542 0.0
H2495 H 0.04365 0.42744 0.32792 0.0
H2496 H 0.02385 0.39719 0.2524 0.0
H2497 H 0.00409 0.39288 0.23955 0.0
H2498 H 0.0041 0.37634 0.25594 0.0
H2499 H 0.97919 0.37473 0.27918 0.0
H2500 H 0.97913 0.39128 0.26289 0.0
H2501 H 0.98195 0.39447 0.29159 0.0
H2502 H 0.0428 0.45028 0.30617 0.0
H2503 H 0.03815 0.4683 0.28062 0.0
H2504 H 1.00191 0.4212 0.24483 0.0
C2505 C 0.01079 0.38104 0.304 0.0
C2506 C 0.02035 0.38257 0.32268 0.0
C2507 C 0.03229 0.39945 0.33112 0.0
C2508 C 0.03459 0.41459 0.32131 0.0
C2509 C 0.02498 0.41265 0.30296 0.0
C2510 C 0.0134 0.39635 0.29426 0.0
C2511 C 0.00492 0.39804 0.2742 0.0
C2512 C 0.00952 0.39068 0.25435 0.0
C2513 C 0.98512 0.3891 0.27715 0.0
C2514 C 0.01342 0.41782 0.27316 0.0
C2515 C 0.0249 0.42595 0.28995 0.0
C2516 C 0.03401 0.44409 0.29278 0.0
C2517 C 0.03137 0.45423 0.27802 0.0
C2518 C 0.01982 0.44628 0.26044 0.0
C2519 C 0.01075 0.42777 0.25809 0.0
H2520 H 0.6525 0.641 0.28668 0.0
H2521 H 0.62827 0.63585 0.34906 0.0
H2522 H 0.60291 0.60791 0.33749 0.0
H2523 H 0.61342 0.6248 0.25648 0.0
H2524 H 0.61856 0.61315 0.23663 0.0
H2525 H 0.63578 0.63215 0.25015 0.0
H2526 H 0.64902 0.61379 0.26246 0.0
H2527 H 0.63182 0.59471 0.24897 0.0
H2528 H 0.63572 0.59388 0.27718 0.0
H2529 H 0.57989 0.58141 0.31961 0.0
H2530 H 0.55936 0.55786 0.29533 0.0
H2531 H 0.59699 0.57985 0.24334 0.0
C2532 C 0.64193 0.63381 0.29791 0.0
C2533 C 0.64238 0.64054 0.31881 0.0
C2534 C 0.6282 0.63097 0.33297 0.0
C2535 C 0.61375 0.61502 0.3266 0.0
C2536 C 0.61354 0.6088 0.30591 0.0
C2537 C 0.62714 0.61784 0.29165 0.0
C2538 C 0.62287 0.60854 0.26989 0.0
C2539 C 0.62264 0.62037 0.25225 0.0
C2540 C 0.63562 0.60236 0.2643 0.0
C2541 C 0.60473 0.59306 0.27421 0.0
C2542 C 0.59978 0.59347 0.2952 0.0
C2543 C 0.58357 0.58092 0.30311 0.0
C2544 C 0.57194 0.56767 0.28913 0.0
C2545 C 0.57645 0.56708 0.26737 0.0
C2546 C 0.5932 0.57986 0.25992 0.0
H2547 H 0.36215 0.97617 0.3128 0.0
H2548 H 0.37585 0.0306 0.31102 0.0
H2549 H 0.40301 0.03831 0.29177 0.0
H2550 H 0.40573 0.98372 0.31898 0.0
H2551 H 0.4021 0.96597 0.30114 0.0
H2552 H 0.38421 0.96477 0.31606 0.0
H2553 H 0.36733 0.95992 0.28058 0.0
H2554 H 0.38514 0.96105 0.26558 0.0
H2555 H 0.37734 0.97553 0.25921 0.0
H2556 H 0.42886 0.04032 0.27358 0.0
H2557 H 0.45061 0.03626 0.25439 0.0
H2558 H 0.41887 0.97995 0.26419 0.0
C2559 C 0.37099 0.98971 0.3085 0.0
C2560 C 0.36704 0.00285 0.31354 0.0
C2561 C 0.37868 0.02037 0.3073 0.0
C2562 C 0.39416 0.02488 0.29646 0.0
C2563 C 0.39768 0.01166 0.29162 0.0
C2564 C 0.38635 0.99439 0.29715 0.0
C2565 C 0.39282 0.98262 0.28873 0.0
C2566 C 0.39643 0.97375 0.30734 0.0
C2567 C 0.37989 0.96898 0.27256 0.0
C2568 C 0.40955 0.99601 0.27773 0.0
C2569 C 0.41217 0.01269 0.27988 0.0
C2570 C 0.42683 0.02728 0.27151 0.0
C2571 C 0.43906 0.02478 0.2604 0.0
C2572 C 0.43648 0.00773 0.25729 0.0
C2573 C 0.42147 0.9932 0.2663 0.0
H2574 H 0.61288 0.97387 0.31412 0.0
H2575 H 0.65415 0.02855 0.3139 0.0
H2576 H 0.63496 0.0363 0.29511 0.0
H2577 H 0.59808 0.97388 0.26102 0.0
H2578 H 0.57541 0.95914 0.26694 0.0
H2579 H 0.59179 0.95797 0.28205 0.0
H2580 H 0.5789 0.96217 0.31753 0.0
H2581 H 0.56247 0.96336 0.30251 0.0
H2582 H 0.57635 0.98093 0.32075 0.0
H2583 H 0.61169 0.03822 0.2762 0.0
H2584 H 0.58633 0.03406 0.25614 0.0
H2585 H 0.56065 0.97776 0.26568 0.0
C2586 C 0.61773 0.98748 0.31037 0.0
C2587 C 0.63492 1.00067 0.31563 0.0
C2588 C 0.641 0.01828 0.31005 0.0
C2589 C 0.63019 0.02282 0.29944 0.0
C2590 C 0.61338 0.00954 0.29427 0.0
C2591 C 0.60718 0.99221 0.29935 0.0
C2592 C 0.58897 0.98041 0.29059 0.0
C2593 C 0.58855 0.96707 0.27417 0.0
C2594 C 0.5759 0.97117 0.30894 0.0
C2595 C 0.58596 0.99383 0.27981 0.0
C2596 C 0.60015 0.01056 0.28237 0.0
C2597 C 0.60053 0.02516 0.27393 0.0
C2598 C 0.58608 0.02262 0.26235 0.0
C2599 C 0.57147 0.00555 0.25898 0.0
C2600 C 0.57146 0.99101 0.26805 0.0
H2601 H 0.99516 0.63214 0.29819 0.0
H2602 H 0.04115 0.64778 0.33664 0.0
H2603 H 0.04648 0.62703 0.31643 0.0
H2604 H 0.98093 0.58643 0.29488 0.0
H2605 H 0.97358 0.58364 0.26744 0.0
H2606 H 0.97354 0.60026 0.28435 0.0
H2607 H 0.99249 0.62393 0.2564 0.0
H2608 H 0.9926 0.60738 0.23941 0.0
H2609 H 0.01283 0.6263 0.24782 0.0
H2610 H 0.04695 0.60469 0.29281 0.0
H2611 H 0.04178 0.58084 0.26751 0.0
H2612 H 0.99535 0.57891 0.24429 0.0
C2613 C 0.00635 0.6312 0.30227 0.0
C2614 C 0.01776 0.64162 0.31894 0.0
C2615 C 0.03226 0.64 0.32389 0.0
C2616 C 0.03543 0.62825 0.31249 0.0
C2617 C 0.024 0.61819 0.29617 0.0
C2618 C 0.00973 0.61946 0.29103 0.0
C2619 C 0.99935 0.60676 0.27299 0.0
C2620 C 0.98075 0.59348 0.28037 0.0
C2621 C 0.99932 0.61669 0.25297 0.0
C2622 C 0.00989 0.59801 0.26915 0.0
C2623 C 0.02415 0.60499 0.28256 0.0
C2624 C 0.03587 0.59914 0.28213 0.0
C2625 C 0.03288 0.58567 0.26765 0.0
C2626 C 0.01824 0.57814 0.25392 0.0
C2627 C 0.00662 0.58443 0.25468 0.0
H2628 H 0.36335 0.38424 0.31049 0.0
H2629 H 0.37259 0.34086 0.30675 0.0
H2630 H 0.40012 0.35955 0.28772 0.0
H2631 H 0.38047 0.40067 0.25683 0.0
H2632 H 0.38996 0.42342 0.26455 0.0
H2633 H 0.37098 0.4068 0.27839 0.0
H2634 H 0.38724 0.41775 0.31469 0.0
H2635 H 0.40631 0.43431 0.30093 0.0
H2636 H 0.40775 0.41892 0.31804 0.0
H2637 H 0.42732 0.38298 0.27138 0.0
H2638 H 0.45134 0.40895 0.25441 0.0
H2639 H 0.42382 0.43697 0.26462 0.0
C2640 C 0.37119 0.37873 0.3056 0.0
C2641 C 0.36585 0.3611 0.31021 0.0
C2642 C 0.37636 0.35429 0.30337 0.0
C2643 C 0.39209 0.36482 0.29262 0.0
C2644 C 0.39707 0.38213 0.28846 0.0
C2645 C 0.38687 0.38902 0.29434 0.0
C2646 C 0.39515 0.40792 0.287 0.0
C2647 C 0.38344 0.40981 0.27072 0.0
C2648 C 0.39936 0.42046 0.30632 0.0
C2649 C 0.41164 0.41053 0.27636 0.0
C2650 C 0.4125 0.3955 0.27767 0.0
C2651 C 0.42665 0.39473 0.26982 0.0
C2652 C 0.44021 0.4096 0.25996 0.0
C2653 C 0.43949 0.42508 0.25751 0.0
C2654 C 0.42496 0.42548 0.26612 0.0
H2655 H 0.31835 0.27869 0.36499 0.0
H2656 H 0.3472 0.32515 0.40527 0.0
H2657 H 0.35249 0.30793 0.43146 0.0
H2658 H 0.29875 0.24685 0.4087 0.0
H2659 H 0.30114 0.23026 0.39477 0.0
H2660 H 0.29835 0.24581 0.37972 0.0
H2661 H 0.32676 0.25487 0.35873 0.0
H2662 H 0.32964 0.23937 0.37371 0.0
H2663 H 0.34662 0.26215 0.37336 0.0
H2664 H 0.35543 0.28633 0.45286 0.0
H2665 H 0.35692 0.26168 0.46778 0.0
H2666 H 0.32759 0.22898 0.41325 0.0
C2667 C 0.32556 0.28512 0.37948 0.0
C2668 C 0.3323 0.30326 0.38316 0.0
C2669 C 0.34194 0.3113 0.4021 0.0
C2670 C 0.34497 0.30161 0.41713 0.0
C2671 C 0.33839 0.28386 0.41297 0.0
C2672 C 0.32895 0.27564 0.39461 0.0
C2673 C 0.32426 0.25659 0.39364 0.0
C2674 C 0.30444 0.24414 0.39424 0.0
C2675 C 0.3323 0.25304 0.37368 0.0
C2676 C 0.33267 0.25551 0.4142 0.0
C2677 C 0.34058 0.27138 0.42514 0.0
C2678 C 0.34936 0.27384 0.4444 0.0
C2679 C 0.35026 0.25976 0.45266 0.0
C2680 C 0.3426 0.24339 0.4416 0.0
C2681 C 0.33351 0.24125 0.42219 0.0
H2682 H 0.69326 0.04081 0.38367 0.0
H2683 H 0.71765 0.01076 0.36745 0.0
H2684 H 0.74364 0.03172 0.38809 0.0
H2685 H 0.73153 0.08239 0.37688 0.0
H2686 H 0.7269 0.09312 0.39851 0.0
H2687 H 0.70935 0.07475 0.38453 0.0
H2688 H 0.69758 0.05861 0.42065 0.0
H2689 H 0.71511 0.07697 0.43476 0.0
H2690 H 0.71173 0.05528 0.43774 0.0
H2691 H 0.76709 0.05598 0.40964 0.0
H2692 H 0.78756 0.08323 0.42882 0.0
H2693 H 0.74931 0.09938 0.42832 0.0
C2694 C 0.70398 0.03853 0.38485 0.0
C2695 C 0.70341 0.02407 0.37424 0.0
C2696 C 0.71781 0.0217 0.37557 0.0
C2697 C 0.7326 0.0335 0.38731 0.0
C2698 C 0.73289 0.04776 0.39735 0.0
C2699 C 0.71906 0.05045 0.39612 0.0
C2700 C 0.72337 0.06764 0.40694 0.0
C2701 C 0.72275 0.08022 0.39074 0.0
C2702 C 0.71122 0.06442 0.42617 0.0
C2703 C 0.7418 0.07418 0.4143 0.0
C2704 C 0.7469 0.06237 0.40885 0.0
C2705 C 0.76331 0.06542 0.41386 0.0
C2706 C 0.77493 0.08107 0.42458 0.0
C2707 C 0.77025 0.0937 0.42987 0.0
C2708 C 0.75334 0.09003 0.42474 0.0
H2709 H 0.96538 0.6791 0.36 0.0
H2710 H 0.9858 0.65982 0.40839 0.0
H2711 H 0.96294 0.65628 0.43366 0.0
H2712 H 0.95298 0.70301 0.39555 0.0
H2713 H 0.9331 0.69694 0.3816 0.0
H2714 H 0.95117 0.69817 0.36711 0.0
H2715 H 0.9315 0.66606 0.35384 0.0
H2716 H 0.91336 0.66474 0.36829 0.0
H2717 H 0.91983 0.64896 0.3732 0.0
H2718 H 0.9391 0.65617 0.45435 0.0
H2719 H 0.91392 0.65748 0.46852 0.0
H2720 H 0.90721 0.67474 0.40646 0.0
C2721 C 0.96498 0.67413 0.37592 0.0
C2722 C 0.97737 0.66977 0.38228 0.0
C2723 C 0.97639 0.66317 0.40315 0.0
C2724 C 0.96349 0.66115 0.41766 0.0
C2725 C 0.95147 0.66554 0.41096 0.0
C2726 C 0.95191 0.67169 0.39054 0.0
C2727 C 0.93708 0.675 0.38741 0.0
C2728 C 0.944 0.69444 0.38264 0.0
C2729 C 0.92471 0.66297 0.36963 0.0
C2730 C 0.92846 0.67001 0.40936 0.0
C2731 C 0.9371 0.66471 0.42271 0.0
C2732 C 0.9321 0.66011 0.44402 0.0
C2733 C 0.91786 0.66092 0.45193 0.0
C2734 C 0.90869 0.66605 0.43848 0.0
C2735 C 0.91397 0.67057 0.41691 0.0
H2736 H 0.39638 0.03242 0.71124 0.0
H2737 H 0.35181 0.98085 0.72437 0.0
H2738 H 0.37039 0.97338 0.74474 0.0
H2739 H 0.42802 0.0188 0.70528 0.0
H2740 H 0.4452 0.03791 0.71872 0.0
H2741 H 0.42856 0.03935 0.70456 0.0
H2742 H 0.42154 0.05115 0.73916 0.0
H2743 H 0.43816 0.04975 0.75342 0.0
H2744 H 0.41619 0.03867 0.76354 0.0
H2745 H 0.39337 0.971 0.76328 0.0
H2746 H 0.4196 0.97449 0.7806 0.0
H2747 H 0.44966 0.02777 0.75703 0.0
C2748 C 0.3906 0.01956 0.71835 0.0
C2749 C 0.37262 0.00722 0.71615 0.0
C2750 C 0.36551 0.99057 0.72585 0.0
C2751 C 0.37597 0.98614 0.73743 0.0
C2752 C 0.39356 0.99854 0.73938 0.0
C2753 C 0.40088 0.01495 0.73028 0.0
C2754 C 0.42014 0.0259 0.73543 0.0
C2755 C 0.43113 0.03077 0.71476 0.0
C2756 C 0.42424 0.04234 0.74868 0.0
C2757 C 0.42242 0.01303 0.74876 0.0
C2758 C 0.4069 0.9973 0.75066 0.0
C2759 C 0.40562 0.98325 0.76193 0.0
C2760 C 0.4206 0.98532 0.77161 0.0
C2761 C 0.43667 1.00135 0.77011 0.0
C2762 C 0.43753 0.0154 0.75855 0.0
H2763 H 0.00816 0.36933 0.72778 0.0
H2764 H 0.97523 0.36579 0.67481 0.0
H2765 H 0.97346 0.39041 0.69006 0.0
H2766 H 0.98517 0.37958 0.76857 0.0
H2767 H 0.00452 0.39461 0.78334 0.0
H2768 H 1.00366 0.37671 0.76824 0.0
H2769 H 0.03143 0.39872 0.74746 0.0
H2770 H 0.03232 0.41669 0.76243 0.0
H2771 H 0.03191 0.41658 0.73345 0.0
H2772 H 0.97566 0.4156 0.7096 0.0
H2773 H 0.98014 0.43936 0.73435 0.0
H2774 H 0.0102 0.42643 0.77653 0.0
C2775 C 1.0006 0.37378 0.71948 0.0
C2776 C 0.99187 0.36564 0.70007 0.0
C2777 C 0.982 0.37174 0.68971 0.0
C2778 C 0.98094 0.38579 0.69819 0.0
C2779 C 0.98968 0.39357 0.71721 0.0
C2780 C 0.99918 0.38777 0.72793 0.0
C2781 C 0.00685 0.39839 0.74849 0.0
C2782 C 0.99961 0.38662 0.76833 0.0
C2783 C 0.02682 0.40817 0.74791 0.0
C2784 C 1.00026 0.41106 0.74738 0.0
C2785 C 0.99047 0.40802 0.72909 0.0
C2786 C 0.98312 0.41802 0.72415 0.0
C2787 C 0.98564 0.43142 0.73843 0.0
C2788 C 0.99528 0.43465 0.75761 0.0
C2789 C 1.0028 0.42436 0.762 0.0
H2790 H 0.63586 0.64534 0.72587 0.0
H2791 H 0.63649 0.61378 0.67226 0.0
H2792 H 0.61107 0.58764 0.68741 0.0
H2793 H 0.62404 0.61216 0.76624 0.0
H2794 H 0.61027 0.61789 0.78111 0.0
H2795 H 0.62841 0.63436 0.76593 0.0
H2796 H 0.6077 0.64121 0.74524 0.0
H2797 H 0.58949 0.62473 0.76032 0.0
H2798 H 0.5892 0.62371 0.73135 0.0
H2799 H 0.58546 0.56508 0.70765 0.0
H2800 H 0.56164 0.54697 0.73263 0.0
H2801 H 0.57797 0.59244 0.77442 0.0
C2802 C 0.6306 0.63293 0.71733 0.0
C2803 C 0.63813 0.63161 0.69783 0.0
C2804 C 0.63096 0.61512 0.6872 0.0
C2805 C 0.61649 0.60018 0.69566 0.0
C2806 C 0.60936 0.60189 0.71486 0.0
C2807 C 0.61618 0.61778 0.72567 0.0
C2808 C 0.60614 0.6158 0.74627 0.0
C2809 C 0.61792 0.62032 0.76606 0.0
C2810 C 0.59763 0.62703 0.74575 0.0
C2811 C 0.59261 0.59636 0.74523 0.0
C2812 C 0.59471 0.58865 0.72691 0.0
C2813 C 0.58376 0.57091 0.72217 0.0
C2814 C 0.57033 0.5607 0.73659 0.0
C2815 C 0.56797 0.56816 0.75571 0.0
C2816 C 0.57929 0.5863 0.75994 0.0
H2817 H 0.66399 0.69611 0.62471 0.0
H2818 H 0.69537 0.72623 0.67946 0.0
H2819 H 0.69661 0.75272 0.66555 0.0
H2820 H 0.6868 0.73028 0.58585 0.0
H2821 H 0.66757 0.7248 0.57076 0.0
H2822 H 0.66866 0.70802 0.58531 0.0
H2823 H 0.64036 0.70045 0.6057 0.0
H2824 H 0.6392 0.71723 0.59124 0.0
H2825 H 0.63917 0.71752 0.62022 0.0
H2826 H 0.69404 0.77575 0.64622 0.0
H2827 H 0.68898 0.79426 0.62196 0.0
H2828 H 0.66079 0.7498 0.57834 0.0
C2829 C 0.67104 0.70826 0.63381 0.0
C2830 C 0.67952 0.7091 0.65324 0.0
C2831 C 0.68879 0.72529 0.66455 0.0
C2832 C 0.68954 0.7404 0.6568 0.0
C2833 C 0.68109 0.73916 0.63761 0.0
C2834 C 0.67211 0.72356 0.62616 0.0
C2835 C 0.6646 0.72598 0.60564 0.0
C2836 C 0.67238 0.72204 0.58571 0.0
C2837 C 0.64465 0.71462 0.60572 0.0
C2838 C 0.6707 0.74535 0.60743 0.0
C2839 C 0.68009 0.75264 0.62605 0.0
C2840 C 0.68685 0.77023 0.63146 0.0
C2841 C 0.68402 0.7807 0.61742 0.0
C2842 C 0.67466 0.77365 0.59798 0.0
C2843 C 0.6679 0.75566 0.59307 0.0
H2844 H 0.31879 0.9763 0.62567 0.0
H2845 H 0.29248 0.96888 0.68699 0.0
H2846 H 0.26824 0.94061 0.67424 0.0
H2847 H 0.2802 0.95925 0.59401 0.0
H2848 H 0.28655 0.94864 0.57411 0.0
H2849 H 0.30289 0.96772 0.58846 0.0
H2850 H 0.31711 0.95025 0.60074 0.0
H2851 H 0.30075 0.93109 0.58648 0.0
H2852 H 0.30417 0.92989 0.61476 0.0
H2853 H 0.24672 0.91395 0.65554 0.0
H2854 H 0.22728 0.89068 0.63025 0.0
H2855 H 0.26577 0.91514 0.57955 0.0
C2856 C 0.30799 0.96856 0.63638 0.0
C2857 C 0.3075 0.97469 0.65733 0.0
C2858 C 0.29306 0.96444 0.67085 0.0
C2859 C 0.27927 0.9483 0.66382 0.0
C2860 C 0.27998 0.94263 0.64311 0.0
C2861 C 0.2938 0.95242 0.62941 0.0
C2862 C 0.29041 0.94364 0.60738 0.0
C2863 C 0.28998 0.95552 0.58996 0.0
C2864 C 0.30391 0.93841 0.60203 0.0
C2865 C 0.27251 0.92757 0.61094 0.0
C2866 C 0.26697 0.92723 0.63181 0.0
C2867 C 0.25084 0.91405 0.63911 0.0
C2868 C 0.23985 0.90095 0.62458 0.0
C2869 C 0.2449 0.90121 0.60288 0.0
C2870 C 0.26161 0.91455 0.59608 0.0
H2871 H 0.03193 0.31371 0.64702 0.0
H2872 H 0.04121 0.36607 0.63681 0.0
H2873 H 0.06833 0.37403 0.61749 0.0
H2874 H 0.07702 0.32615 0.65439 0.0
H2875 H 0.07478 0.30739 0.63985 0.0
H2876 H 0.05636 0.30586 0.65378 0.0
H2877 H 0.03862 0.29582 0.61843 0.0
H2878 H 0.057 0.29735 0.60438 0.0
H2879 H 0.04713 0.30927 0.59488 0.0
H2880 H 0.09436 0.37657 0.59945 0.0
H2881 H 0.11729 0.37308 0.58215 0.0
H2882 H 0.09104 0.31878 0.60225 0.0
C2883 C 0.03977 0.32687 0.64085 0.0
C2884 C 0.0345 0.33931 0.64351 0.0
C2885 C 0.04497 0.35633 0.63495 0.0
C2886 C 0.06043 0.361 0.62399 0.0
C2887 C 0.06522 0.34845 0.62149 0.0
C2888 C 0.05519 0.3317 0.62952 0.0
C2889 C 0.0631 0.3206 0.62379 0.0
C2890 C 0.06811 0.31465 0.64417 0.0
C2891 C 0.05072 0.30483 0.60952 0.0
C2892 C 0.0791 0.33376 0.61134 0.0
C2893 C 0.0801 0.34977 0.61041 0.0
C2894 C 0.09374 0.36409 0.60006 0.0
C2895 C 0.10674 0.36201 0.59037 0.0
C2896 C 0.10597 0.3457 0.59091 0.0
C2897 C 0.0919 0.33137 0.60149 0.0
H2898 H 0.30686 0.34854 0.64202 0.0
H2899 H 0.28196 0.29217 0.64935 0.0
H2900 H 0.25717 0.2879 0.62764 0.0
H2901 H 0.26766 0.34992 0.64723 0.0
H2902 H 0.2741 0.36712 0.62791 0.0
H2903 H 0.29037 0.36576 0.64304 0.0
H2904 H 0.30521 0.36478 0.60754 0.0
H2905 H 0.28894 0.36606 0.59229 0.0
H2906 H 0.29269 0.34822 0.5875 0.0
H2907 H 0.23536 0.28962 0.60491 0.0
H2908 H 0.21667 0.29717 0.58482 0.0
H2909 H 0.25449 0.35261 0.59436 0.0
C2910 C 0.29622 0.33531 0.63891 0.0
C2911 C 0.29634 0.32066 0.64725 0.0
C2912 C 0.2821 0.30356 0.64314 0.0
C2913 C 0.26801 0.30101 0.63075 0.0
C2914 C 0.26825 0.31569 0.62279 0.0
C2915 C 0.28187 0.33253 0.62686 0.0
C2916 C 0.27843 0.34605 0.61726 0.0
C2917 C 0.27758 0.35791 0.63491 0.0
C2918 C 0.29213 0.35691 0.60013 0.0
C2919 C 0.26075 0.33416 0.60719 0.0
C2920 C 0.25524 0.31671 0.61039 0.0
C2921 C 0.23944 0.30324 0.60248 0.0
C2922 C 0.22883 0.3077 0.59123 0.0
C2923 C 0.23389 0.32551 0.58821 0.0
C2924 C 0.25021 0.33887 0.59619 0.0
H2925 H 0.66009 0.9722 0.62302 0.0
H2926 H 0.67966 0.96623 0.68389 0.0
H2927 H 0.67696 0.9387 0.67076 0.0
H2928 H 0.62934 0.92505 0.61248 0.0
H2929 H 0.634 0.92671 0.58407 0.0
H2930 H 0.63582 0.94523 0.59875 0.0
H2931 H 0.66764 0.96452 0.58568 0.0
H2932 H 0.66592 0.94607 0.571 0.0
H2933 H 0.68294 0.95754 0.59057 0.0
H2934 H 0.67392 0.91312 0.65113 0.0
H2935 H 0.67137 0.89072 0.62518 0.0
H2936 H 0.65443 0.91285 0.5761 0.0
C2937 C 0.66349 0.96488 0.63363 0.0
C2938 C 0.66997 0.97124 0.65451 0.0
C2939 C 0.67466 0.96157 0.66784 0.0
C2940 C 0.67311 0.94588 0.66058 0.0
C2941 C 0.66692 0.94004 0.63988 0.0
C2942 C 0.66221 0.94918 0.6265 0.0
C2943 C 0.65708 0.94045 0.60446 0.0
C2944 C 0.63792 0.93397 0.59966 0.0
C2945 C 0.66911 0.95289 0.58689 0.0
C2946 C 0.65992 0.92518 0.60755 0.0
C2947 C 0.66544 0.92519 0.62821 0.0
C2948 C 0.66954 0.91289 0.63491 0.0
C2949 C 0.66816 0.9003 0.62003 0.0
C2950 C 0.66282 0.90013 0.59864 0.0
C2951 C 0.6584 0.9126 0.59241 0.0
H2952 H 0.0335 0.69407 0.62205 0.0
H2953 H 0.04557 0.71708 0.68617 0.0
H2954 H 0.07412 0.74062 0.67356 0.0
H2955 H 0.07841 0.70595 0.60664 0.0
H2956 H 0.07625 0.71132 0.57946 0.0
H2957 H 0.05744 0.69487 0.59377 0.0
H2958 H 0.04168 0.71189 0.58679 0.0
H2959 H 0.06043 0.72839 0.57252 0.0
H2960 H 0.05184 0.73461 0.59501 0.0
H2961 H 0.10019 0.76243 0.65446 0.0
H2962 H 0.12257 0.78256 0.62912 0.0
H2963 H 0.09409 0.7471 0.57619 0.0
C2964 C 0.04238 0.70388 0.63341 0.0
C2965 C 0.03748 0.70372 0.65514 0.0
C2966 C 0.04915 0.71699 0.6695 0.0
C2967 C 0.06541 0.73037 0.66252 0.0
C2968 C 0.06981 0.73044 0.64101 0.0
C2969 C 0.0587 0.71765 0.62656 0.0
C2970 C 0.0663 0.72188 0.60395 0.0
C2971 C 0.06981 0.70766 0.59545 0.0
C2972 C 0.05435 0.72434 0.58867 0.0
C2973 C 0.08318 0.73912 0.60804 0.0
C2974 C 0.08494 0.7436 0.62962 0.0
C2975 C 0.09902 0.75909 0.63751 0.0
C2976 C 0.11161 0.7705 0.62295 0.0
C2977 C 0.11003 0.76652 0.60065 0.0
C2978 C 0.09572 0.75044 0.59316 0.0
H2979 H 0.98235 0.61672 0.69943 0.0
H2980 H 0.01038 0.66116 0.74299 0.0
H2981 H 0.01327 0.64219 0.76889 0.0
H2982 H 0.95939 0.58326 0.74095 0.0
H2983 H 0.96167 0.56671 0.72675 0.0
H2984 H 0.96048 0.58336 0.71198 0.0
H2985 H 0.98964 0.59205 0.69314 0.0
H2986 H 0.99092 0.57545 0.70785 0.0
H2987 H 0.00853 0.59795 0.70922 0.0
H2988 H 0.01427 0.61925 0.7896 0.0
H2989 H 0.01404 0.59345 0.8038 0.0
H2990 H 0.9864 0.56332 0.74696 0.0
C2991 C 0.98886 0.62234 0.71456 0.0
C2992 C 0.99608 0.64044 0.71922 0.0
C2993 C 0.00477 0.64737 0.73903 0.0
C2994 C 0.00644 0.63669 0.75391 0.0
C2995 C 0.99944 0.61902 0.7488 0.0
C2996 C 0.99086 0.61182 0.72963 0.0
C2997 C 0.98545 0.59256 0.72785 0.0
C2998 C 0.96556 0.58078 0.72682 0.0
C2999 C 0.99416 0.58932 0.70836 0.0
C3000 C 0.99249 0.59022 0.74889 0.0
C3001 C 1.00038 0.60567 0.76072 0.0
C3002 C 0.00816 0.60707 0.78049 0.0
C3003 C 0.00807 0.59234 0.78834 0.0
C3004 C 1.00038 0.57636 0.77645 0.0
C3005 C 0.99229 0.57528 0.75653 0.0
H3006 H 0.38385 0.37336 0.69841 0.0
H3007 H 0.33849 0.35694 0.73891 0.0
H3008 H 0.3564 0.38087 0.76471 0.0
H3009 H 0.41518 0.38576 0.74122 0.0
H3010 H 0.43205 0.40446 0.72717 0.0
H3011 H 0.41579 0.38571 0.71224 0.0
H3012 H 0.40796 0.40576 0.69143 0.0
H3013 H 0.4242 0.42456 0.70627 0.0
H3014 H 0.40201 0.41952 0.7062 0.0
H3015 H 0.37923 0.4066 0.786 0.0
H3016 H 0.4051 0.43276 0.80087 0.0
H3017 H 0.43532 0.43317 0.74563 0.0
C3018 C 0.3777 0.37474 0.71276 0.0
C3019 C 0.35979 0.36327 0.71671 0.0
C3020 C 0.3522 0.36558 0.73558 0.0
C3021 C 0.36226 0.37911 0.75034 0.0
C3022 C 0.37987 0.39023 0.74593 0.0
C3023 C 0.38752 0.38824 0.72757 0.0
C3024 C 0.40661 0.40226 0.72635 0.0
C3025 C 0.41808 0.39405 0.72678 0.0
C3026 C 0.41041 0.4137 0.70638 0.0
C3027 C 0.40849 0.41249 0.74686 0.0
C3028 C 0.39294 0.40528 0.75797 0.0
C3029 C 0.39145 0.41242 0.77737 0.0
C3030 C 0.40621 0.42739 0.7856 0.0
C3031 C 0.42228 0.43518 0.77437 0.0
C3032 C 0.42333 0.4275 0.75476 0.0
H3033 H 0.63355 0.99735 0.71745 0.0
H3034 H 0.65409 0.0469 0.68453 0.0
H3035 H 0.63254 0.05195 0.70328 0.0
H3036 H 0.58833 0.98517 0.71567 0.0
H3037 H 0.58347 0.97525 0.74183 0.0
H3038 H 0.60034 0.97554 0.72556 0.0
H3039 H 0.62232 0.99095 0.75664 0.0
H3040 H 0.60555 0.99076 0.77297 0.0
H3041 H 0.62542 0.01118 0.7679 0.0
H3042 H 0.60953 0.05208 0.727 0.0
H3043 H 0.58574 0.04652 0.75215 0.0
H3044 H 0.57987 0.99649 0.76867 0.0
C3045 C 0.63349 0.00924 0.71409 0.0
C3046 C 0.64552 0.02177 0.69956 0.0
C3047 C 0.64496 0.03711 0.69556 0.0
C3048 C 0.6328 0.0401 0.70617 0.0
C3049 C 0.62122 0.02754 0.72056 0.0
C3050 C 0.62136 0.01234 0.72436 0.0
C3051 C 0.60752 1.00087 0.74051 0.0
C3052 C 0.59412 0.98316 0.73027 0.0
C3053 C 0.6157 0.9983 0.7607 0.0
C3054 C 0.59965 0.01206 0.74538 0.0
C3055 C 0.60777 0.02743 0.7338 0.0
C3056 C 0.60303 0.04005 0.73606 0.0
C3057 C 0.58959 0.03683 0.75046 0.0
C3058 C 0.58097 0.02107 0.7623 0.0
C3059 C 0.5861 0.00856 0.75964 0.0
loop_
_geom_bond_atom_site_label_1
_geom_bond_atom_site_label_2
_geom_bond_distance
_geom_bond_site_symmetry_2
_ccdc_geom_bond_type
Co0 O1 2.216 . S
Co0 O2 2.091 . S
Co0 O4 2.004 1_554 S
Co0 O10 2.021 . S
Co0 O12 2.137 1_454 S
Co0 O13 2.244 1_455 S
O1 Co0 2.216 . S
O1 C8 1.247 . S
O2 Co0 2.091 . S
O2 C8 1.261 . S
C3 O12 1.247 . S
C3 O13 1.272 1_556 S
O4 Co0 2.004 1_556 S
O4 C9 1.259 . S
Co5 O6 2.061 1_554 S
Co5 O11 2.052 . S
Co5 O13 2.135 . S
O6 Co5 2.061 1_556 S
O6 C9 1.235 1_655 S
C7 O10 1.238 1_655 S
C7 O11 1.241 . S
C8 O1 1.247 . S
C8 O2 1.261 . S
C9 O4 1.259 . S
C9 O6 1.235 1_455 S
O10 Co0 2.021 . S
O10 C7 1.238 1_455 S
O11 Co5 2.052 . S
O11 C7 1.241 . S
O12 Co0 2.137 1_656 S
O12 C3 1.247 . S
O13 Co0 2.244 1_655 S
O13 C3 1.272 1_554 S
O13 Co5 2.135 . S
Co14 O15 2.216 1_554 S
Co14 O16 2.091 . S
Co14 O18 2.004 . S
Co14 O24 2.021 1_554 S
Co14 O26 2.137 . S
Co14 O27 2.244 . S
O15 Co14 2.216 1_556 S
O15 C22 1.247 . S
O16 Co14 2.091 . S
O16 C22 1.261 1_554 S
C17 O26 1.247 . S
C17 O27 1.272 . S
O18 Co14 2.004 . S
O18 C23 1.259 . S
Co19 O20 2.061 . S
Co19 O25 2.052 1_554 S
Co19 O27 2.135 . S
O20 Co19 2.061 . S
O20 C23 1.235 . S
C21 O24 1.238 . S
C21 O25 1.241 . S
C22 O15 1.247 . S
C22 O16 1.261 1_556 S
C23 O18 1.259 . S
C23 O20 1.235 . S
O24 Co14 2.021 1_556 S
O24 C21 1.238 . S
O25 Co19 2.052 1_556 S
O25 C21 1.241 . S
O26 Co14 2.137 . S
O26 C17 1.247 . S
O27 Co14 2.244 . S
O27 C17 1.272 . S
O27 Co19 2.135 . S
Co28 O29 2.216 1_554 S
Co28 O30 2.091 . S
Co28 O32 2.004 . S
Co28 O38 2.021 1_554 S
Co28 O40 2.142 1_545 S
Co28 O41 2.244 1_545 S
O29 Co28 2.216 1_556 S
O29 C36 1.247 . S
O30 Co28 2.091 . S
O30 C36 1.261 1_554 S
C31 O40 1.309 . S
C31 O41 1.272 . S
O32 Co28 2.004 . S
O32 C37 1.259 . S
Co33 O34 2.061 . S
Co33 O39 2.052 1_554 S
Co33 O41 2.135 . S
O34 Co33 2.061 . S
O34 C37 1.235 1_565 S
C35 O38 1.238 1_565 S
C35 O39 1.241 . S
C36 O29 1.247 . S
C36 O30 1.261 1_556 S
C37 O32 1.259 . S
C37 O34 1.235 1_545 S
O38 Co28 2.021 1_556 S
O38 C35 1.238 1_545 S
O39 Co33 2.052 1_556 S
O39 C35 1.241 . S
O40 Co28 2.142 1_565 S
O40 C31 1.309 . S
O41 Co28 2.244 1_565 S
O41 C31 1.272 . S
O41 Co33 2.135 . S
Co42 O43 2.216 1_554 S
Co42 O44 2.091 . S
Co42 O46 2.004 . S
Co42 O52 2.021 1_554 S
Co42 O54 2.137 1_655 S
Co42 O55 2.244 1_655 S
O43 Co42 2.216 1_556 S
O43 C50 1.247 . S
O44 Co42 2.091 . S
O44 C50 1.261 1_554 S
C45 O54 1.247 . S
C45 O55 1.272 . S
O46 Co42 2.004 . S
O46 C51 1.253 1_655 S
Co47 O48 2.061 . S
Co47 O53 2.052 1_554 S
Co47 O55 2.135 . S
O48 Co47 2.061 . S
O48 C51 1.241 . S
C49 O52 1.238 1_455 S
C49 O53 1.241 . S
C50 O43 1.247 . S
C50 O44 1.261 1_556 S
C51 O46 1.253 1_455 S
C51 O48 1.241 . S
O52 Co42 2.021 1_556 S
O52 C49 1.238 1_655 S
O53 Co47 2.052 1_556 S
O53 C49 1.241 . S
O54 Co42 2.137 1_455 S
O54 C45 1.247 . S
O55 Co42 2.244 1_455 S
O55 C45 1.272 . S
O55 Co47 2.135 . S
Co56 O57 2.216 . S
Co56 O58 2.091 . S
Co56 O60 2.004 1_554 S
Co56 O66 2.021 . S
Co56 O68 2.137 1_554 S
Co56 O69 2.244 1_554 S
O57 Co56 2.216 . S
O57 C64 1.247 . S
O58 Co56 2.091 . S
O58 C64 1.261 . S
C59 O68 1.247 . S
C59 O69 1.272 . S
O60 Co56 2.004 1_556 S
O60 C65 1.259 . S
Co61 O62 2.061 . S
Co61 O67 2.052 1_556 S
Co61 O69 2.135 . S
O62 Co61 2.061 . S
O62 C65 1.235 . S
C63 O66 1.238 . S
C63 O67 1.241 . S
C64 O57 1.247 . S
C64 O58 1.261 . S
C65 O60 1.259 . S
C65 O62 1.235 . S
O66 Co56 2.021 . S
O66 C63 1.238 . S
O67 Co61 2.052 1_554 S
O67 C63 1.241 . S
O68 Co56 2.137 1_556 S
O68 C59 1.247 . S
O69 Co56 2.244 1_556 S
O69 C59 1.272 . S
O69 Co61 2.135 . S
Co70 O71 2.216 . S
Co70 O72 2.091 . S
Co70 O74 2.004 1_554 S
Co70 O80 2.021 . S
Co70 O82 2.137 1_564 S
Co70 O83 2.244 1_565 S
O71 Co70 2.216 . S
O71 C78 1.247 . S
O72 Co70 2.091 . S
O72 C78 1.261 . S
C73 O82 1.247 . S
C73 O83 1.272 1_556 S
O74 Co70 2.004 1_556 S
O74 C79 1.253 1_565 S
Co75 O76 2.061 1_554 S
Co75 O81 2.052 . S
Co75 O83 2.135 . S
O76 Co75 2.061 1_556 S
O76 C79 1.241 . S
C77 O80 1.238 1_545 S
C77 O81 1.241 . S
C78 O71 1.247 . S
C78 O72 1.261 . S
C79 O74 1.253 1_545 S
C79 O76 1.241 . S
O80 Co70 2.021 . S
O80 C77 1.238 1_565 S
O81 Co75 2.052 . S
O81 C77 1.241 . S
O82 Co70 2.137 1_546 S
O82 C73 1.247 . S
O83 Co70 2.244 1_545 S
O83 C73 1.272 1_554 S
O83 Co75 2.135 . S
Co84 O85 2.216 . S
Co84 O86 2.091 . S
Co84 O88 2.004 . S
Co84 O94 2.021 . S
Co84 O96 2.137 . S
Co84 O97 2.244 . S
O85 Co84 2.216 . S
O85 C92 1.247 . S
O86 Co84 2.091 . S
O86 C92 1.261 . S
C87 O96 1.247 . S
C87 O97 1.272 . S
O88 Co84 2.004 . S
O88 C93 1.259 . S
Co89 O90 2.061 . S
Co89 O95 2.052 . S
Co89 O97 2.135 . S
O90 Co89 2.061 . S
O90 C93 1.235 . S
C91 O94 1.238 . S
C91 O95 1.241 . S
C92 O85 1.247 . S
C92 O86 1.261 . S
C93 O88 1.259 . S
C93 O90 1.235 . S
O94 Co84 2.021 . S
O94 C91 1.238 . S
O95 Co89 2.052 . S
O95 C91 1.241 . S
O96 Co84 2.137 . S
O96 C87 1.247 . S
O97 Co84 2.244 . S
O97 C87 1.272 . S
O97 Co89 2.135 . S
Co98 O99 2.229 . S
Co98 O100 2.091 . S
Co98 O102 2.004 . S
Co98 O108 2.021 . S
Co98 O110 2.137 1_565 S
Co98 O111 2.244 1_565 S
O99 Co98 2.229 . S
O99 C106 1.292 . S
O100 Co98 2.091 . S
O100 C106 1.261 . S
C101 O110 1.247 . S
C101 O111 1.272 . S
O102 Co98 2.004 . S
O102 C107 1.259 . S
Co103 O104 2.061 . S
Co103 O109 2.052 . S
Co103 O111 2.135 1_565 S
O104 Co103 2.061 . S
O104 C107 1.235 . S
C105 O108 1.238 . S
C105 O109 1.241 . S
C106 O99 1.292 . S
C106 O100 1.261 . S
C107 O102 1.259 . S
C107 O104 1.235 . S
O108 Co98 2.021 . S
O108 C105 1.238 . S
O109 Co103 2.052 . S
O109 C105 1.241 . S
O110 Co98 2.137 1_545 S
O110 C101 1.247 . S
O111 Co98 2.244 1_545 S
O111 C101 1.272 . S
O111 Co103 2.135 1_545 S
Co112 O113 2.216 . S
Co112 O114 2.091 . S
Co112 O116 2.004 . S
Co112 O122 2.021 . S
Co112 O124 2.137 1_455 S
Co112 O125 2.244 . S
O113 Co112 2.216 . S
O113 C120 1.247 . S
O114 Co112 2.091 . S
O114 C120 1.261 . S
C115 O124 1.247 . S
C115 O125 1.272 1_655 S
O116 Co112 2.004 . S
O116 C121 1.259 . S
Co117 O118 2.061 . S
Co117 O123 2.052 . S
Co117 O125 2.135 . S
O118 Co117 2.061 . S
O118 C121 1.235 . S
C119 O122 1.238 . S
C119 O123 1.241 . S
C120 O113 1.247 . S
C120 O114 1.261 . S
C121 O116 1.259 . S
C121 O118 1.235 . S
O122 Co112 2.021 . S
O122 C119 1.238 . S
O123 Co117 2.052 . S
O123 C119 1.241 . S
O124 Co112 2.137 1_655 S
O124 C115 1.247 . S
O125 Co112 2.244 . S
O125 C115 1.272 1_455 S
O125 Co117 2.135 . S
Co126 O127 2.216 . S
Co126 O128 2.091 . S
Co126 O130 2.004 . S
Co126 O136 2.021 . S
Co126 O138 2.137 1_565 S
Co126 O139 2.244 1_565 S
O127 Co126 2.216 . S
O127 C134 1.247 . S
O128 Co126 2.091 . S
O128 C134 1.261 . S
C129 O138 1.247 . S
C129 O139 1.272 . S
O130 Co126 2.004 . S
O130 C135 1.259 . S
Co131 O132 2.061 . S
Co131 O137 2.052 . S
Co131 O139 2.135 1_565 S
O132 Co131 2.061 . S
O132 C135 1.235 . S
C133 O136 1.238 . S
C133 O137 1.241 . S
C134 O127 1.247 . S
C134 O128 1.261 . S
C135 O130 1.259 . S
C135 O132 1.235 . S
O136 Co126 2.021 . S
O136 C133 1.238 . S
O137 Co131 2.052 . S
O137 C133 1.241 . S
O138 Co126 2.137 1_545 S
O138 C129 1.247 . S
O139 Co126 2.244 1_545 S
O139 C129 1.272 . S
O139 Co131 2.135 1_545 S
Co140 O141 2.216 1_455 S
Co140 O142 2.091 1_455 S
Co140 O144 2.004 . S
Co140 O150 2.021 . S
Co140 O152 2.137 1_455 S
Co140 O153 2.244 . S
O141 Co140 2.216 1_655 S
O141 C148 1.247 . S
O142 Co140 2.091 1_655 S
O142 C148 1.261 . S
C143 O152 1.247 1_455 S
C143 O153 1.272 . S
O144 Co140 2.004 . S
O144 C149 1.259 . S
Co145 O146 2.061 . S
Co145 O151 2.052 . S
Co145 O153 2.135 . S
O146 Co145 2.061 . S
O146 C149 1.235 . S
C147 O150 1.238 . S
C147 O151 1.241 . S
C148 O141 1.247 . S
C148 O142 1.261 . S
C149 O144 1.259 . S
C149 O146 1.235 . S
O150 Co140 2.021 . S
O150 C147 1.238 . S
O151 Co145 2.052 . S
O151 C147 1.241 . S
O152 Co140 2.137 1_655 S
O152 C143 1.247 1_655 S
O153 Co140 2.244 . S
O153 C143 1.272 . S
O153 Co145 2.135 . S
Co154 O155 2.216 . S
Co154 O156 2.091 . S
Co154 O158 2.004 . S
Co154 O164 2.021 . S
Co154 O166 2.137 . S
Co154 O167 2.244 . S
O155 Co154 2.216 . S
O155 C162 1.247 . S
O156 Co154 2.091 . S
O156 C162 1.261 . S
C157 O166 1.247 . S
C157 O167 1.272 . S
O158 Co154 2.004 . S
O158 C163 1.259 . S
Co159 O160 2.061 . S
Co159 O165 2.052 . S
Co159 O167 2.135 . S
O160 Co159 2.061 . S
O160 C163 1.235 . S
C161 O164 1.238 . S
C161 O165 1.241 . S
C162 O155 1.247 . S
C162 O156 1.261 . S
C163 O158 1.259 . S
C163 O160 1.235 . S
O164 Co154 2.021 . S
O164 C161 1.238 . S
O165 Co159 2.052 . S
O165 C161 1.241 . S
O166 Co154 2.137 . S
O166 C157 1.247 . S
O167 Co154 2.244 . S
O167 C157 1.272 . S
O167 Co159 2.135 . S
Co168 O169 2.216 . S
Co168 O170 2.091 . S
Co168 O172 2.004 . S
Co168 O178 2.021 . S
Co168 O180 2.137 1_545 S
Co168 O181 2.250 . S
O169 Co168 2.216 . S
O169 C176 1.247 . S
O170 Co168 2.091 . S
O170 C176 1.261 . S
C171 O180 1.247 . S
C171 O181 1.233 1_565 S
O172 Co168 2.004 . S
O172 C177 1.259 . S
Co173 O174 2.061 . S
Co173 O179 2.052 . S
Co173 O181 2.178 . S
O174 Co173 2.061 . S
O174 C177 1.235 . S
C175 O178 1.238 . S
C175 O179 1.241 . S
C176 O169 1.247 . S
C176 O170 1.261 . S
C177 O172 1.259 . S
C177 O174 1.235 . S
O178 Co168 2.021 . S
O178 C175 1.238 . S
O179 Co173 2.052 . S
O179 C175 1.241 . S
O180 Co168 2.137 1_565 S
O180 C171 1.247 . S
O181 Co168 2.250 . S
O181 C171 1.233 1_545 S
O181 Co173 2.178 . S
Co182 O183 2.216 1_655 S
Co182 O184 2.091 1_655 S
Co182 O186 2.004 . S
Co182 O192 2.021 . S
Co182 O194 2.137 1_655 S
Co182 O195 2.244 . S
O183 Co182 2.216 1_455 S
O183 C190 1.247 . S
O184 Co182 2.091 1_455 S
O184 C190 1.261 . S
C185 O194 1.247 1_655 S
C185 O195 1.272 . S
O186 Co182 2.004 . S
O186 C191 1.259 . S
Co187 O188 2.061 . S
Co187 O193 2.052 . S
Co187 O195 2.135 . S
O188 Co187 2.061 . S
O188 C191 1.235 . S
C189 O192 1.238 . S
C189 O193 1.241 . S
C190 O183 1.247 . S
C190 O184 1.261 . S
C191 O186 1.259 . S
C191 O188 1.235 . S
O192 Co182 2.021 . S
O192 C189 1.238 . S
O193 Co187 2.052 . S
O193 C189 1.241 . S
O194 Co182 2.137 1_455 S
O194 C185 1.247 1_455 S
O195 Co182 2.244 . S
O195 C185 1.272 . S
O195 Co187 2.135 . S
Co196 O197 2.216 . S
Co196 O198 2.091 . S
Co196 O200 2.004 . S
Co196 O206 2.021 . S
Co196 O208 2.137 . S
Co196 O209 2.244 . S
O197 Co196 2.216 . S
O197 C204 1.247 . S
O198 Co196 2.091 . S
O198 C204 1.261 . S
C199 O208 1.247 . S
C199 O209 1.272 . S
O200 Co196 2.004 . S
O200 C205 1.259 . S
Co201 O202 2.061 . S
Co201 O207 2.052 . S
Co201 O209 2.135 . S
O202 Co201 2.061 . S
O202 C205 1.235 . S
C203 O206 1.238 . S
C203 O207 1.241 . S
C204 O197 1.247 . S
C204 O198 1.261 . S
C205 O200 1.259 . S
C205 O202 1.235 . S
O206 Co196 2.021 . S
O206 C203 1.238 . S
O207 Co201 2.052 . S
O207 C203 1.241 . S
O208 Co196 2.137 . S
O208 C199 1.247 . S
O209 Co196 2.244 . S
O209 C199 1.272 . S
O209 Co201 2.135 . S
Co210 O211 2.216 . S
Co210 O212 2.091 . S
Co210 O214 2.004 . S
Co210 O220 2.021 . S
Co210 O222 2.137 . S
Co210 O223 2.244 . S
O211 Co210 2.216 . S
O211 C218 1.247 . S
O212 Co210 2.091 . S
O212 C218 1.261 . S
C213 O222 1.247 . S
C213 O223 1.272 . S
O214 Co210 2.004 . S
O214 C219 1.259 . S
Co215 O216 2.061 . S
Co215 O221 2.052 . S
Co215 O223 2.135 . S
O216 Co215 2.061 . S
O216 C219 1.235 . S
C217 O220 1.238 . S
C217 O221 1.241 . S
C218 O211 1.247 . S
C218 O212 1.261 . S
C219 O214 1.259 . S
C219 O216 1.235 . S
O220 Co210 2.021 . S
O220 C217 1.238 . S
O221 Co215 2.052 . S
O221 C217 1.241 . S
O222 Co210 2.137 . S
O222 C213 1.247 . S
O223 Co210 2.244 . S
O223 C213 1.272 . S
O223 Co215 2.135 . S
Co224 O225 2.216 . S
Co224 O226 2.091 . S
Co224 O228 2.004 . S
Co224 O234 2.021 . S
Co224 O236 2.137 1_545 S
Co224 O237 2.288 . S
O225 Co224 2.216 . S
O225 C232 1.247 . S
O226 Co224 2.091 . S
O226 C232 1.261 . S
C227 O236 1.247 . S
C227 O237 1.265 1_565 S
O228 Co224 2.004 . S
O228 C233 1.259 . S
Co229 O230 2.061 . S
Co229 O235 2.052 . S
Co229 O237 2.140 . S
O230 Co229 2.061 . S
O230 C233 1.235 . S
C231 O234 1.238 . S
C231 O235 1.241 . S
C232 O225 1.247 . S
C232 O226 1.261 . S
C233 O228 1.259 . S
C233 O230 1.235 . S
O234 Co224 2.021 . S
O234 C231 1.238 . S
O235 Co229 2.052 . S
O235 C231 1.241 . S
O236 Co224 2.137 1_565 S
O236 C227 1.247 . S
O237 Co224 2.288 . S
O237 C227 1.265 1_545 S
O237 Co229 2.140 . S
Co238 O239 2.216 . S
Co238 O240 2.091 . S
Co238 O242 2.004 . S
Co238 O248 2.021 . S
Co238 O250 2.137 1_655 S
Co238 O251 2.255 . S
O239 Co238 2.216 . S
O239 C246 1.247 . S
O240 Co238 2.091 . S
O240 C246 1.261 . S
C241 O250 1.247 . S
C241 O251 1.213 1_455 S
O242 Co238 2.004 . S
O242 C247 1.259 . S
Co243 O244 2.061 . S
Co243 O249 2.052 . S
Co243 O251 2.202 . S
O244 Co243 2.061 . S
O244 C247 1.235 . S
C245 O248 1.238 . S
C245 O249 1.241 . S
C246 O239 1.247 . S
C246 O240 1.261 . S
C247 O242 1.259 . S
C247 O244 1.235 . S
O248 Co238 2.021 . S
O248 C245 1.238 . S
O249 Co243 2.052 . S
O249 C245 1.241 . S
O250 Co238 2.137 1_455 S
O250 C241 1.247 . S
O251 Co238 2.255 . S
O251 C241 1.213 1_655 S
O251 Co243 2.202 . S
H252 C271 0.949 . S
H253 C272 0.950 . S
H254 C274 0.950 . S
H255 C275 0.950 . S
H256 C277 0.950 . S
H257 C280 0.950 . S
H258 C281 0.950 . S
H259 C283 0.951 . S
H260 C284 0.949 . S
H261 C286 0.949 . S
H262 C287 0.950 . S
H263 C289 0.950 . S
H264 C290 0.950 . S
H265 C292 0.950 . S
H266 C295 0.950 . S
H267 C296 0.950 . S
H268 C298 0.951 . S
H269 C299 0.949 . S
C270 C271 1.376 . S
C270 C275 1.386 . S
C270 C276 1.483 . S
C271 H252 0.949 . S
C271 C270 1.376 . S
C271 C272 1.397 . S
C272 H253 0.950 . S
C272 C271 1.397 . S
C272 C273 1.391 . S
C273 C272 1.391 . S
C273 C274 1.405 . S
C274 H254 0.950 . S
C274 C273 1.405 . S
C274 C275 1.367 . S
C275 H255 0.950 . S
C275 C270 1.386 . S
C275 C274 1.367 . S
C276 C270 1.483 . S
C276 C277 1.382 . S
C276 C278 1.403 . S
C277 H256 0.950 . S
C277 C276 1.382 . S
C277 C293 1.411 . S
C278 C276 1.403 . S
C278 C279 1.489 . S
C278 C292 1.411 . S
C279 C278 1.489 . S
C279 C280 1.383 . S
C279 C284 1.382 . S
C280 H257 0.950 . S
C280 C279 1.383 . S
C280 C281 1.395 . S
C281 H258 0.950 . S
C281 C280 1.395 . S
C281 C282 1.288 . S
C282 C281 1.288 . S
C282 C283 1.392 . S
C283 H259 0.951 . S
C283 C282 1.392 . S
C283 C284 1.392 . S
C284 H260 0.949 . S
C284 C279 1.382 . S
C284 C283 1.392 . S
C285 C286 1.376 . S
C285 C290 1.386 . S
C285 C291 1.483 . S
C286 H261 0.949 . S
C286 C285 1.376 . S
C286 C287 1.397 . S
C287 H262 0.950 . S
C287 C286 1.397 . S
C287 C288 1.391 . S
C288 C287 1.391 . S
C288 C289 1.405 . S
C289 H263 0.950 . S
C289 C288 1.405 . S
C289 C290 1.367 . S
C290 H264 0.950 . S
C290 C285 1.386 . S
C290 C289 1.367 . S
C291 C285 1.483 . S
C291 C292 1.382 . S
C291 C293 1.403 . S
C292 H265 0.950 . S
C292 C278 1.411 . S
C292 C291 1.382 . S
C293 C277 1.411 . S
C293 C291 1.403 . S
C293 C294 1.489 . S
C294 C293 1.489 . S
C294 C295 1.383 . S
C294 C299 1.382 . S
C295 H266 0.950 . S
C295 C294 1.383 . S
C295 C296 1.395 . S
C296 H267 0.950 . S
C296 C295 1.395 . S
C296 C297 1.288 . S
C297 C296 1.288 . S
C297 C298 1.392 . S
C298 H268 0.951 . S
C298 C297 1.392 . S
C298 C299 1.392 . S
C299 H269 0.949 . S
C299 C294 1.382 . S
C299 C298 1.392 . S
H300 C319 0.949 . S
H301 C320 0.950 . S
H302 C322 0.950 . S
H303 C323 0.950 . S
H304 C325 0.950 . S
H305 C328 0.950 . S
H306 C329 0.950 . S
H307 C331 0.951 . S
H308 C332 0.949 . S
H309 C334 0.949 . S
H310 C335 0.950 . S
H311 C337 0.950 . S
H312 C338 0.950 . S
H313 C340 0.950 . S
H314 C343 0.950 . S
H315 C344 0.950 . S
H316 C346 0.951 . S
H317 C347 0.949 . S
C318 C319 1.376 . S
C318 C323 1.386 . S
C318 C324 1.483 . S
C319 H300 0.949 . S
C319 C318 1.376 . S
C319 C320 1.397 . S
C320 H301 0.950 . S
C320 C319 1.397 . S
C320 C321 1.391 . S
C321 C320 1.391 . S
C321 C322 1.405 . S
C322 H302 0.950 . S
C322 C321 1.405 . S
C322 C323 1.367 . S
C323 H303 0.950 . S
C323 C318 1.386 . S
C323 C322 1.367 . S
C324 C318 1.483 . S
C324 C325 1.382 . S
C324 C326 1.403 . S
C325 H304 0.950 . S
C325 C324 1.382 . S
C325 C341 1.411 . S
C326 C324 1.403 . S
C326 C327 1.489 . S
C326 C340 1.411 . S
C327 C326 1.489 . S
C327 C328 1.383 . S
C327 C332 1.382 . S
C328 H305 0.950 . S
C328 C327 1.383 . S
C328 C329 1.395 . S
C329 H306 0.950 . S
C329 C328 1.395 . S
C329 C330 1.288 . S
C330 C329 1.288 . S
C330 C331 1.392 . S
C331 H307 0.951 . S
C331 C330 1.392 . S
C331 C332 1.392 . S
C332 H308 0.949 . S
C332 C327 1.382 . S
C332 C331 1.392 . S
C333 C334 1.376 . S
C333 C338 1.386 . S
C333 C339 1.483 . S
C334 H309 0.949 . S
C334 C333 1.376 . S
C334 C335 1.397 . S
C335 H310 0.950 . S
C335 C334 1.397 . S
C335 C336 1.391 . S
C336 C335 1.391 . S
C336 C337 1.405 . S
C337 H311 0.950 . S
C337 C336 1.405 . S
C337 C338 1.367 . S
C338 H312 0.950 . S
C338 C333 1.386 . S
C338 C337 1.367 . S
C339 C333 1.483 . S
C339 C340 1.382 . S
C339 C341 1.403 . S
C340 H313 0.950 . S
C340 C326 1.411 . S
C340 C339 1.382 . S
C341 C325 1.411 . S
C341 C339 1.403 . S
C341 C342 1.489 . S
C342 C341 1.489 . S
C342 C343 1.383 . S
C342 C347 1.382 . S
C343 H314 0.950 . S
C343 C342 1.383 . S
C343 C344 1.395 . S
C344 H315 0.950 . S
C344 C343 1.395 . S
C344 C345 1.288 . S
C345 C344 1.288 . S
C345 C346 1.392 . S
C346 H316 0.951 . S
C346 C345 1.392 . S
C346 C347 1.392 . S
C347 H317 0.949 . S
C347 C342 1.382 . S
C347 C346 1.392 . S
H348 C367 0.949 . S
H349 C368 0.950 . S
H350 C370 0.950 . S
H351 C371 0.950 . S
H352 C373 0.950 . S
H353 C376 0.950 . S
H354 C377 0.950 . S
H355 C379 0.951 . S
H356 C380 0.949 . S
H357 C382 0.949 . S
H358 C383 0.950 . S
H359 C385 0.950 . S
H360 C386 0.950 . S
H361 C388 0.950 . S
H362 C391 0.950 . S
H363 C392 0.950 . S
H364 C394 0.951 . S
H365 C395 0.949 . S
C366 C367 1.376 . S
C366 C371 1.386 . S
C366 C372 1.483 . S
C367 H348 0.949 . S
C367 C366 1.376 . S
C367 C368 1.397 . S
C368 H349 0.950 . S
C368 C367 1.397 . S
C368 C369 1.391 . S
C369 C368 1.391 . S
C369 C370 1.405 . S
C370 H350 0.950 . S
C370 C369 1.405 . S
C370 C371 1.367 . S
C371 H351 0.950 . S
C371 C366 1.386 . S
C371 C370 1.367 . S
C372 C366 1.483 . S
C372 C373 1.382 . S
C372 C374 1.403 . S
C373 H352 0.950 . S
C373 C372 1.382 . S
C373 C389 1.411 . S
C374 C372 1.403 . S
C374 C375 1.489 . S
C374 C388 1.411 . S
C375 C374 1.489 . S
C375 C376 1.383 . S
C375 C380 1.382 . S
C376 H353 0.950 . S
C376 C375 1.383 . S
C376 C377 1.395 . S
C377 H354 0.950 . S
C377 C376 1.395 . S
C377 C378 1.288 . S
C378 C377 1.288 . S
C378 C379 1.392 . S
C379 H355 0.951 . S
C379 C378 1.392 . S
C379 C380 1.392 . S
C380 H356 0.949 . S
C380 C375 1.382 . S
C380 C379 1.392 . S
C381 C382 1.376 . S
C381 C386 1.386 . S
C381 C387 1.483 . S
C382 H357 0.949 . S
C382 C381 1.376 . S
C382 C383 1.397 . S
C383 H358 0.950 . S
C383 C382 1.397 . S
C383 C384 1.391 . S
C384 C383 1.391 . S
C384 C385 1.405 . S
C385 H359 0.950 . S
C385 C384 1.405 . S
C385 C386 1.367 . S
C386 H360 0.950 . S
C386 C381 1.386 . S
C386 C385 1.367 . S
C387 C381 1.483 . S
C387 C388 1.382 . S
C387 C389 1.403 . S
C388 H361 0.950 . S
C388 C374 1.411 . S
C388 C387 1.382 . S
C389 C373 1.411 . S
C389 C387 1.403 . S
C389 C390 1.489 . S
C390 C389 1.489 . S
C390 C391 1.383 . S
C390 C395 1.382 . S
C391 H362 0.950 . S
C391 C390 1.383 . S
C391 C392 1.395 . S
C392 H363 0.950 . S
C392 C391 1.395 . S
C392 C393 1.288 . S
C393 C392 1.288 . S
C393 C394 1.392 . S
C394 H364 0.951 . S
C394 C393 1.392 . S
C394 C395 1.392 . S
C395 H365 0.949 . S
C395 C390 1.382 . S
C395 C394 1.392 . S
H396 C415 0.949 . S
H397 C416 0.950 . S
H398 C418 0.950 . S
H399 C419 0.950 . S
H400 C421 0.950 . S
H401 C424 0.950 . S
H402 C425 0.950 . S
H403 C427 0.951 . S
H404 C428 0.949 . S
H405 C430 0.949 . S
H406 C431 0.950 . S
H407 C433 0.950 . S
H408 C434 0.950 . S
H409 C436 0.950 . S
H410 C439 0.950 . S
H411 C440 0.950 . S
H412 C442 0.951 . S
H413 C443 0.949 . S
C414 C415 1.376 . S
C414 C419 1.386 . S
C414 C420 1.483 . S
C415 H396 0.949 . S
C415 C414 1.376 . S
C415 C416 1.397 . S
C416 H397 0.950 . S
C416 C415 1.397 . S
C416 C417 1.391 . S
C417 C416 1.391 . S
C417 C418 1.405 . S
C418 H398 0.950 . S
C418 C417 1.405 . S
C418 C419 1.367 . S
C419 H399 0.950 . S
C419 C414 1.386 . S
C419 C418 1.367 . S
C420 C414 1.483 . S
C420 C421 1.382 . S
C420 C422 1.403 . S
C421 H400 0.950 . S
C421 C420 1.382 . S
C421 C437 1.411 . S
C422 C420 1.403 . S
C422 C423 1.489 . S
C422 C436 1.411 . S
C423 C422 1.489 . S
C423 C424 1.383 . S
C423 C428 1.382 . S
C424 H401 0.950 . S
C424 C423 1.383 . S
C424 C425 1.395 . S
C425 H402 0.950 . S
C425 C424 1.395 . S
C425 C426 1.288 . S
C426 C425 1.288 . S
C426 C427 1.392 . S
C427 H403 0.951 . S
C427 C426 1.392 . S
C427 C428 1.392 . S
C428 H404 0.949 . S
C428 C423 1.382 . S
C428 C427 1.392 . S
C429 C430 1.376 . S
C429 C434 1.386 . S
C429 C435 1.483 . S
C430 H405 0.949 . S
C430 C429 1.376 . S
C430 C431 1.397 . S
C431 H406 0.950 . S
C431 C430 1.397 . S
C431 C432 1.391 . S
C432 C431 1.391 . S
C432 C433 1.405 . S
C433 H407 0.950 . S
C433 C432 1.405 . S
C433 C434 1.367 . S
C434 H408 0.950 . S
C434 C429 1.386 . S
C434 C433 1.367 . S
C435 C429 1.483 . S
C435 C436 1.382 . S
C435 C437 1.403 . S
C436 H409 0.950 . S
C436 C422 1.411 . S
C436 C435 1.382 . S
C437 C421 1.411 . S
C437 C435 1.403 . S
C437 C438 1.489 . S
C438 C437 1.489 . S
C438 C439 1.383 . S
C438 C443 1.382 . S
C439 H410 0.950 . S
C439 C438 1.383 . S
C439 C440 1.395 . S
C440 H411 0.950 . S
C440 C439 1.395 . S
C440 C441 1.288 . S
C441 C440 1.288 . S
C441 C442 1.392 . S
C442 H412 0.951 . S
C442 C441 1.392 . S
C442 C443 1.392 . S
C443 H413 0.949 . S
C443 C438 1.382 . S
C443 C442 1.392 . S
H444 C463 0.949 . S
H445 C464 0.950 . S
H446 C466 0.950 . S
H447 C467 0.950 . S
H448 C469 0.950 . S
H449 C472 0.950 . S
H450 C473 0.950 . S
H451 C475 0.951 . S
H452 C476 0.949 . S
H453 C478 0.949 . S
H454 C479 0.950 . S
H455 C481 0.950 . S
H456 C482 0.950 . S
H457 C484 0.950 . S
H458 C487 0.950 . S
H459 C488 0.950 . S
H460 C490 0.951 . S
H461 C491 0.949 . S
C462 C463 1.376 . S
C462 C467 1.386 . S
C462 C468 1.483 . S
C463 H444 0.949 . S
C463 C462 1.376 . S
C463 C464 1.397 . S
C464 H445 0.950 . S
C464 C463 1.397 . S
C464 C465 1.391 . S
C465 C464 1.391 . S
C465 C466 1.405 . S
C466 H446 0.950 . S
C466 C465 1.405 . S
C466 C467 1.367 . S
C467 H447 0.950 . S
C467 C462 1.386 . S
C467 C466 1.367 . S
C468 C462 1.483 . S
C468 C469 1.382 . S
C468 C470 1.403 . S
C469 H448 0.950 . S
C469 C468 1.382 . S
C469 C485 1.411 . S
C470 C468 1.403 . S
C470 C471 1.489 . S
C470 C484 1.411 . S
C471 C470 1.489 . S
C471 C472 1.383 . S
C471 C476 1.382 . S
C472 H449 0.950 . S
C472 C471 1.383 . S
C472 C473 1.395 . S
C473 H450 0.950 . S
C473 C472 1.395 . S
C473 C474 1.288 . S
C474 C473 1.288 . S
C474 C475 1.392 . S
C475 H451 0.951 . S
C475 C474 1.392 . S
C475 C476 1.392 . S
C476 H452 0.949 . S
C476 C471 1.382 . S
C476 C475 1.392 . S
C477 C478 1.376 . S
C477 C482 1.386 . S
C477 C483 1.483 . S
C478 H453 0.949 . S
C478 C477 1.376 . S
C478 C479 1.397 . S
C479 H454 0.950 . S
C479 C478 1.397 . S
C479 C480 1.391 . S
C480 C479 1.391 . S
C480 C481 1.405 . S
C481 H455 0.950 . S
C481 C480 1.405 . S
C481 C482 1.367 . S
C482 H456 0.950 . S
C482 C477 1.386 . S
C482 C481 1.367 . S
C483 C477 1.483 . S
C483 C484 1.382 . S
C483 C485 1.403 . S
C484 H457 0.950 . S
C484 C470 1.411 . S
C484 C483 1.382 . S
C485 C469 1.411 . S
C485 C483 1.403 . S
C485 C486 1.489 . S
C486 C485 1.489 . S
C486 C487 1.383 . S
C486 C491 1.382 . S
C487 H458 0.950 . S
C487 C486 1.383 . S
C487 C488 1.395 . S
C488 H459 0.950 . S
C488 C487 1.395 . S
C488 C489 1.288 . S
C489 C488 1.288 . S
C489 C490 1.392 . S
C490 H460 0.951 . S
C490 C489 1.392 . S
C490 C491 1.392 . S
C491 H461 0.949 . S
C491 C486 1.382 . S
C491 C490 1.392 . S
H492 C511 0.949 . S
H493 C512 0.950 . S
H494 C514 0.950 . S
H495 C515 0.950 . S
H496 C517 0.950 . S
H497 C520 0.950 . S
H498 C521 0.950 . S
H499 C523 0.951 . S
H500 C524 0.949 . S
H501 C526 0.949 . S
H502 C527 0.950 . S
H503 C529 0.950 . S
H504 C530 0.950 . S
H505 C532 0.950 . S
H506 C535 0.950 . S
H507 C536 0.950 . S
H508 C538 0.951 . S
H509 C539 0.949 . S
C510 C511 1.376 . S
C510 C515 1.386 . S
C510 C516 1.483 . S
C511 H492 0.949 . S
C511 C510 1.376 . S
C511 C512 1.397 . S
C512 H493 0.950 . S
C512 C511 1.397 . S
C512 C513 1.391 . S
C513 C512 1.391 . S
C513 C514 1.405 . S
C514 H494 0.950 . S
C514 C513 1.405 . S
C514 C515 1.367 . S
C515 H495 0.950 . S
C515 C510 1.386 . S
C515 C514 1.367 . S
C516 C510 1.483 . S
C516 C517 1.382 . S
C516 C518 1.403 . S
C517 H496 0.950 . S
C517 C516 1.382 . S
C517 C533 1.411 . S
C518 C516 1.403 . S
C518 C519 1.489 . S
C518 C532 1.411 . S
C519 C518 1.489 . S
C519 C520 1.383 . S
C519 C524 1.382 . S
C520 H497 0.950 . S
C520 C519 1.383 . S
C520 C521 1.395 . S
C521 H498 0.950 . S
C521 C520 1.395 . S
C521 C522 1.288 . S
C522 C521 1.288 . S
C522 C523 1.392 . S
C523 H499 0.951 . S
C523 C522 1.392 . S
C523 C524 1.392 . S
C524 H500 0.949 . S
C524 C519 1.382 . S
C524 C523 1.392 . S
C525 C526 1.376 . S
C525 C530 1.386 . S
C525 C531 1.483 . S
C526 H501 0.949 . S
C526 C525 1.376 . S
C526 C527 1.397 . S
C527 H502 0.950 . S
C527 C526 1.397 . S
C527 C528 1.391 . S
C528 C527 1.391 . S
C528 C529 1.405 . S
C529 H503 0.950 . S
C529 C528 1.405 . S
C529 C530 1.367 . S
C530 H504 0.950 . S
C530 C525 1.386 . S
C530 C529 1.367 . S
C531 C525 1.483 . S
C531 C532 1.382 . S
C531 C533 1.403 . S
C532 H505 0.950 . S
C532 C518 1.411 . S
C532 C531 1.382 . S
C533 C517 1.411 . S
C533 C531 1.403 . S
C533 C534 1.489 . S
C534 C533 1.489 . S
C534 C535 1.383 . S
C534 C539 1.382 . S
C535 H506 0.950 . S
C535 C534 1.383 . S
C535 C536 1.395 . S
C536 H507 0.950 . S
C536 C535 1.395 . S
C536 C537 1.288 . S
C537 C536 1.288 . S
C537 C538 1.392 . S
C538 H508 0.951 . S
C538 C537 1.392 . S
C538 C539 1.392 . S
C539 H509 0.949 . S
C539 C534 1.382 . S
C539 C538 1.392 . S
H540 C559 0.949 . S
H541 C560 0.950 . S
H542 C562 0.950 . S
H543 C563 0.950 . S
H544 C565 0.950 . S
H545 C568 0.950 . S
H546 C569 0.950 . S
H547 C571 0.951 . S
H548 C572 0.949 . S
H549 C574 0.949 . S
H550 C575 0.950 . S
H551 C577 0.950 . S
H552 C578 0.950 . S
H553 C580 0.950 . S
H554 C583 0.950 . S
H555 C584 0.950 . S
H556 C586 0.951 . S
H557 C587 0.949 . S
C558 C559 1.376 . S
C558 C563 1.386 . S
C558 C564 1.483 . S
C559 H540 0.949 . S
C559 C558 1.376 . S
C559 C560 1.397 . S
C560 H541 0.950 . S
C560 C559 1.397 . S
C560 C561 1.391 . S
C561 C560 1.391 . S
C561 C562 1.405 . S
C562 H542 0.950 . S
C562 C561 1.405 . S
C562 C563 1.367 . S
C563 H543 0.950 . S
C563 C558 1.386 . S
C563 C562 1.367 . S
C564 C558 1.483 . S
C564 C565 1.382 . S
C564 C566 1.403 . S
C565 H544 0.950 . S
C565 C564 1.382 . S
C565 C581 1.411 . S
C566 C564 1.403 . S
C566 C567 1.489 . S
C566 C580 1.411 . S
C567 C566 1.489 . S
C567 C568 1.383 . S
C567 C572 1.382 . S
C568 H545 0.950 . S
C568 C567 1.383 . S
C568 C569 1.395 . S
C569 H546 0.950 . S
C569 C568 1.395 . S
C569 C570 1.288 . S
C570 C569 1.288 . S
C570 C571 1.392 . S
C571 H547 0.951 . S
C571 C570 1.392 . S
C571 C572 1.392 . S
C572 H548 0.949 . S
C572 C567 1.382 . S
C572 C571 1.392 . S
C573 C574 1.376 . S
C573 C578 1.386 . S
C573 C579 1.483 . S
C574 H549 0.949 . S
C574 C573 1.376 . S
C574 C575 1.397 . S
C575 H550 0.950 . S
C575 C574 1.397 . S
C575 C576 1.391 . S
C576 C575 1.391 . S
C576 C577 1.405 . S
C577 H551 0.950 . S
C577 C576 1.405 . S
C577 C578 1.367 . S
C578 H552 0.950 . S
C578 C573 1.386 . S
C578 C577 1.367 . S
C579 C573 1.483 . S
C579 C580 1.382 . S
C579 C581 1.403 . S
C580 H553 0.950 . S
C580 C566 1.411 . S
C580 C579 1.382 . S
C581 C565 1.411 . S
C581 C579 1.403 . S
C581 C582 1.489 . S
C582 C581 1.489 . S
C582 C583 1.383 . S
C582 C587 1.382 . S
C583 H554 0.950 . S
C583 C582 1.383 . S
C583 C584 1.395 . S
C584 H555 0.950 . S
C584 C583 1.395 . S
C584 C585 1.288 . S
C585 C584 1.288 . S
C585 C586 1.392 . S
C586 H556 0.951 . S
C586 C585 1.392 . S
C586 C587 1.392 . S
C587 H557 0.949 . S
C587 C582 1.382 . S
C587 C586 1.392 . S
H588 C607 0.949 . S
H589 C608 0.950 . S
H590 C610 0.950 . S
H591 C611 0.950 . S
H592 C613 0.950 . S
H593 C616 0.950 . S
H594 C617 0.950 . S
H595 C619 0.951 . S
H596 C620 0.949 . S
H597 C622 0.949 . S
H598 C623 0.950 . S
H599 C625 0.950 . S
H600 C626 0.950 . S
H601 C628 0.950 . S
H602 C631 0.950 . S
H603 C632 0.950 . S
H604 C634 0.951 . S
H605 C635 0.949 . S
C606 C607 1.376 . S
C606 C611 1.386 . S
C606 C612 1.483 . S
C607 H588 0.949 . S
C607 C606 1.376 . S
C607 C608 1.397 . S
C608 H589 0.950 . S
C608 C607 1.397 . S
C608 C609 1.391 . S
C609 C608 1.391 . S
C609 C610 1.405 . S
C610 H590 0.950 . S
C610 C609 1.405 . S
C610 C611 1.367 . S
C611 H591 0.950 . S
C611 C606 1.386 . S
C611 C610 1.367 . S
C612 C606 1.483 . S
C612 C613 1.382 . S
C612 C614 1.403 . S
C613 H592 0.950 . S
C613 C612 1.382 . S
C613 C629 1.411 . S
C614 C612 1.403 . S
C614 C615 1.489 . S
C614 C628 1.411 . S
C615 C614 1.489 . S
C615 C616 1.383 . S
C615 C620 1.382 . S
C616 H593 0.950 . S
C616 C615 1.383 . S
C616 C617 1.395 . S
C617 H594 0.950 . S
C617 C616 1.395 . S
C617 C618 1.288 . S
C618 C617 1.288 . S
C618 C619 1.392 . S
C619 H595 0.951 . S
C619 C618 1.392 . S
C619 C620 1.392 . S
C620 H596 0.949 . S
C620 C615 1.382 . S
C620 C619 1.392 . S
C621 C622 1.376 . S
C621 C626 1.386 . S
C621 C627 1.483 . S
C622 H597 0.949 . S
C622 C621 1.376 . S
C622 C623 1.397 . S
C623 H598 0.950 . S
C623 C622 1.397 . S
C623 C624 1.391 . S
C624 C623 1.391 . S
C624 C625 1.405 . S
C625 H599 0.950 . S
C625 C624 1.405 . S
C625 C626 1.367 . S
C626 H600 0.950 . S
C626 C621 1.386 . S
C626 C625 1.367 . S
C627 C621 1.483 . S
C627 C628 1.382 . S
C627 C629 1.403 . S
C628 H601 0.950 . S
C628 C614 1.411 . S
C628 C627 1.382 . S
C629 C613 1.411 . S
C629 C627 1.403 . S
C629 C630 1.489 . S
C630 C629 1.489 . S
C630 C631 1.383 . S
C630 C635 1.382 . S
C631 H602 0.950 . S
C631 C630 1.383 . S
C631 C632 1.395 . S
C632 H603 0.950 . S
C632 C631 1.395 . S
C632 C633 1.288 . S
C633 C632 1.288 . S
C633 C634 1.392 . S
C634 H604 0.951 . S
C634 C633 1.392 . S
C634 C635 1.392 . S
C635 H605 0.949 . S
C635 C630 1.382 . S
C635 C634 1.392 . S
H636 C655 0.949 . S
H637 C656 0.950 . S
H638 C658 0.950 . S
H639 C659 0.950 . S
H640 C661 0.950 . S
H641 C664 0.950 . S
H642 C665 0.950 . S
H643 C667 0.951 . S
H644 C668 0.949 . S
H645 C670 0.949 . S
H646 C671 0.950 . S
H647 C673 0.950 . S
H648 C674 0.950 . S
H649 C676 0.950 . S
H650 C679 0.950 . S
H651 C680 0.950 . S
H652 C682 0.951 . S
H653 C683 0.949 . S
C654 C655 1.376 . S
C654 C659 1.386 . S
C654 C660 1.483 . S
C655 H636 0.949 . S
C655 C654 1.376 . S
C655 C656 1.397 . S
C656 H637 0.950 . S
C656 C655 1.397 . S
C656 C657 1.391 . S
C657 C656 1.391 . S
C657 C658 1.405 . S
C658 H638 0.950 . S
C658 C657 1.405 . S
C658 C659 1.367 . S
C659 H639 0.950 . S
C659 C654 1.386 . S
C659 C658 1.367 . S
C660 C654 1.483 . S
C660 C661 1.382 . S
C660 C662 1.403 . S
C661 H640 0.950 . S
C661 C660 1.382 . S
C661 C677 1.411 . S
C662 C660 1.403 . S
C662 C663 1.489 . S
C662 C676 1.411 . S
C663 C662 1.489 . S
C663 C664 1.383 . S
C663 C668 1.382 . S
C664 H641 0.950 . S
C664 C663 1.383 . S
C664 C665 1.395 . S
C665 H642 0.950 . S
C665 C664 1.395 . S
C665 C666 1.288 . S
C666 C665 1.288 . S
C666 C667 1.392 . S
C667 H643 0.951 . S
C667 C666 1.392 . S
C667 C668 1.392 . S
C668 H644 0.949 . S
C668 C663 1.382 . S
C668 C667 1.392 . S
C669 C670 1.376 . S
C669 C674 1.386 . S
C669 C675 1.483 . S
C670 H645 0.949 . S
C670 C669 1.376 . S
C670 C671 1.397 . S
C671 H646 0.950 . S
C671 C670 1.397 . S
C671 C672 1.391 . S
C672 C671 1.391 . S
C672 C673 1.405 . S
C673 H647 0.950 . S
C673 C672 1.405 . S
C673 C674 1.367 . S
C674 H648 0.950 . S
C674 C669 1.386 . S
C674 C673 1.367 . S
C675 C669 1.483 . S
C675 C676 1.382 . S
C675 C677 1.403 . S
C676 H649 0.950 . S
C676 C662 1.411 . S
C676 C675 1.382 . S
C677 C661 1.411 . S
C677 C675 1.403 . S
C677 C678 1.489 . S
C678 C677 1.489 . S
C678 C679 1.383 . S
C678 C683 1.382 . S
C679 H650 0.950 . S
C679 C678 1.383 . S
C679 C680 1.395 . S
C680 H651 0.950 . S
C680 C679 1.395 . S
C680 C681 1.288 . S
C681 C680 1.288 . S
C681 C682 1.392 . S
C682 H652 0.951 . S
C682 C681 1.392 . S
C682 C683 1.392 . S
C683 H653 0.949 . S
C683 C678 1.382 . S
C683 C682 1.392 . S
H684 C703 0.949 . S
H685 C704 0.950 . S
H686 C706 0.950 . S
H687 C707 0.950 . S
H688 C709 0.950 . S
H689 C712 0.950 . S
H690 C713 0.950 . S
H691 C715 0.951 . S
H692 C716 0.949 . S
H693 C718 0.949 . S
H694 C719 0.950 . S
H695 C721 0.950 . S
H696 C722 0.950 . S
H697 C724 0.950 . S
H698 C727 0.950 . S
H699 C728 0.950 . S
H700 C730 0.951 . S
H701 C731 0.949 . S
C702 C703 1.376 . S
C702 C707 1.386 1_655 S
C702 C708 1.483 . S
C703 H684 0.949 . S
C703 C702 1.376 . S
C703 C704 1.397 . S
C704 H685 0.950 . S
C704 C703 1.397 . S
C704 C705 1.391 . S
C705 C704 1.391 . S
C705 C706 1.405 1_655 S
C706 H686 0.950 . S
C706 C705 1.405 1_455 S
C706 C707 1.367 . S
C707 H687 0.950 . S
C707 C702 1.386 1_455 S
C707 C706 1.367 . S
C708 C702 1.483 . S
C708 C709 1.382 . S
C708 C710 1.403 1_655 S
C709 H688 0.950 . S
C709 C708 1.382 . S
C709 C725 1.411 . S
C710 C708 1.403 1_455 S
C710 C711 1.489 . S
C710 C724 1.411 . S
C711 C710 1.489 . S
C711 C712 1.383 1_455 S
C711 C716 1.382 . S
C712 H689 0.950 . S
C712 C711 1.383 1_655 S
C712 C713 1.395 . S
C713 H690 0.950 . S
C713 C712 1.395 . S
C713 C714 1.288 1_655 S
C714 C713 1.288 1_455 S
C714 C715 1.392 . S
C715 H691 0.951 . S
C715 C714 1.392 . S
C715 C716 1.392 . S
C716 H692 0.949 . S
C716 C711 1.382 . S
C716 C715 1.392 . S
C717 C718 1.376 . S
C717 C722 1.386 1_455 S
C717 C723 1.483 . S
C718 H693 0.949 . S
C718 C717 1.376 . S
C718 C719 1.397 . S
C719 H694 0.950 . S
C719 C718 1.397 . S
C719 C720 1.391 . S
C720 C719 1.391 . S
C720 C721 1.405 1_455 S
C721 H695 0.950 . S
C721 C720 1.405 1_655 S
C721 C722 1.367 . S
C722 H696 0.950 . S
C722 C717 1.386 1_655 S
C722 C721 1.367 . S
C723 C717 1.483 . S
C723 C724 1.382 . S
C723 C725 1.403 1_455 S
C724 H697 0.950 . S
C724 C710 1.411 . S
C724 C723 1.382 . S
C725 C709 1.411 . S
C725 C723 1.403 1_655 S
C725 C726 1.489 . S
C726 C725 1.489 . S
C726 C727 1.383 1_655 S
C726 C731 1.382 . S
C727 H698 0.950 . S
C727 C726 1.383 1_455 S
C727 C728 1.395 . S
C728 H699 0.950 . S
C728 C727 1.395 . S
C728 C729 1.288 1_455 S
C729 C728 1.288 1_655 S
C729 C730 1.392 . S
C730 H700 0.951 . S
C730 C729 1.392 . S
C730 C731 1.392 . S
C731 H701 0.949 . S
C731 C726 1.382 . S
C731 C730 1.392 . S
H732 C751 0.949 . S
H733 C752 0.950 . S
H734 C754 0.950 . S
H735 C755 0.950 . S
H736 C757 0.950 . S
H737 C760 0.950 . S
H738 C761 0.950 . S
H739 C763 0.951 . S
H740 C764 0.949 . S
H741 C766 0.949 . S
H742 C767 0.950 . S
H743 C769 0.950 . S
H744 C770 0.950 . S
H745 C772 0.950 . S
H746 C775 0.950 . S
H747 C776 0.950 . S
H748 C778 0.951 . S
H749 C779 0.949 . S
C750 C751 1.376 . S
C750 C755 1.386 . S
C750 C756 1.483 . S
C751 H732 0.949 . S
C751 C750 1.376 . S
C751 C752 1.397 . S
C752 H733 0.950 . S
C752 C751 1.397 . S
C752 C753 1.391 . S
C753 C752 1.391 . S
C753 C754 1.405 . S
C754 H734 0.950 . S
C754 C753 1.405 . S
C754 C755 1.367 . S
C755 H735 0.950 . S
C755 C750 1.386 . S
C755 C754 1.367 . S
C756 C750 1.483 . S
C756 C757 1.382 . S
C756 C758 1.403 . S
C757 H736 0.950 . S
C757 C756 1.382 . S
C757 C773 1.411 . S
C758 C756 1.403 . S
C758 C759 1.489 . S
C758 C772 1.411 . S
C759 C758 1.489 . S
C759 C760 1.383 . S
C759 C764 1.382 . S
C760 H737 0.950 . S
C760 C759 1.383 . S
C760 C761 1.395 . S
C761 H738 0.950 . S
C761 C760 1.395 . S
C761 C762 1.288 . S
C762 C761 1.288 . S
C762 C763 1.392 . S
C763 H739 0.951 . S
C763 C762 1.392 . S
C763 C764 1.392 . S
C764 H740 0.949 . S
C764 C759 1.382 . S
C764 C763 1.392 . S
C765 C766 1.376 . S
C765 C770 1.386 . S
C765 C771 1.483 . S
C766 H741 0.949 . S
C766 C765 1.376 . S
C766 C767 1.397 . S
C767 H742 0.950 . S
C767 C766 1.397 . S
C767 C768 1.391 . S
C768 C767 1.391 . S
C768 C769 1.405 . S
C769 H743 0.950 . S
C769 C768 1.405 . S
C769 C770 1.367 . S
C770 H744 0.950 . S
C770 C765 1.386 . S
C770 C769 1.367 . S
C771 C765 1.483 . S
C771 C772 1.382 . S
C771 C773 1.403 . S
C772 H745 0.950 . S
C772 C758 1.411 . S
C772 C771 1.382 . S
C773 C757 1.411 . S
C773 C771 1.403 . S
C773 C774 1.489 . S
C774 C773 1.489 . S
C774 C775 1.383 . S
C774 C779 1.382 . S
C775 H746 0.950 . S
C775 C774 1.383 . S
C775 C776 1.395 . S
C776 H747 0.950 . S
C776 C775 1.395 . S
C776 C777 1.288 . S
C777 C776 1.288 . S
C777 C778 1.392 . S
C778 H748 0.951 . S
C778 C777 1.392 . S
C778 C779 1.392 . S
C779 H749 0.949 . S
C779 C774 1.382 . S
C779 C778 1.392 . S
H780 C799 0.949 . S
H781 C800 0.950 . S
H782 C802 0.950 . S
H783 C803 0.950 . S
H784 C805 0.950 . S
H785 C808 0.950 . S
H786 C809 0.950 . S
H787 C811 0.951 . S
H788 C812 0.949 . S
H789 C814 0.949 . S
H790 C815 0.950 . S
H791 C817 0.950 . S
H792 C818 0.950 . S
H793 C820 0.950 . S
H794 C823 0.950 . S
H795 C824 0.950 . S
H796 C826 0.951 . S
H797 C827 0.949 . S
C798 C799 1.376 . S
C798 C803 1.386 1_545 S
C798 C804 1.483 . S
C799 H780 0.949 . S
C799 C798 1.376 . S
C799 C800 1.397 . S
C800 H781 0.950 . S
C800 C799 1.397 . S
C800 C801 1.391 . S
C801 C800 1.391 . S
C801 C802 1.405 1_545 S
C802 H782 0.950 . S
C802 C801 1.405 1_565 S
C802 C803 1.367 . S
C803 H783 0.950 . S
C803 C798 1.386 1_565 S
C803 C802 1.367 . S
C804 C798 1.483 . S
C804 C805 1.382 . S
C804 C806 1.403 1_545 S
C805 H784 0.950 . S
C805 C804 1.382 . S
C805 C821 1.411 . S
C806 C804 1.403 1_565 S
C806 C807 1.489 . S
C806 C820 1.411 . S
C807 C806 1.489 . S
C807 C808 1.383 1_565 S
C807 C812 1.382 . S
C808 H785 0.950 . S
C808 C807 1.383 1_545 S
C808 C809 1.395 . S
C809 H786 0.950 . S
C809 C808 1.395 . S
C809 C810 1.288 1_545 S
C810 C809 1.288 1_565 S
C810 C811 1.392 . S
C811 H787 0.951 . S
C811 C810 1.392 . S
C811 C812 1.392 . S
C812 H788 0.949 . S
C812 C807 1.382 . S
C812 C811 1.392 . S
C813 C814 1.376 . S
C813 C818 1.386 1_565 S
C813 C819 1.483 . S
C814 H789 0.949 . S
C814 C813 1.376 . S
C814 C815 1.397 . S
C815 H790 0.950 . S
C815 C814 1.397 . S
C815 C816 1.391 . S
C816 C815 1.391 . S
C816 C817 1.405 1_565 S
C817 H791 0.950 . S
C817 C816 1.405 1_545 S
C817 C818 1.367 . S
C818 H792 0.950 . S
C818 C813 1.386 1_545 S
C818 C817 1.367 . S
C819 C813 1.483 . S
C819 C820 1.382 . S
C819 C821 1.403 1_565 S
C820 H793 0.950 . S
C820 C806 1.411 . S
C820 C819 1.382 . S
C821 C805 1.411 . S
C821 C819 1.403 1_545 S
C821 C822 1.489 . S
C822 C821 1.489 . S
C822 C823 1.383 1_545 S
C822 C827 1.382 . S
C823 H794 0.950 . S
C823 C822 1.383 1_565 S
C823 C824 1.395 . S
C824 H795 0.950 . S
C824 C823 1.395 . S
C824 C825 1.288 1_565 S
C825 C824 1.288 1_545 S
C825 C826 1.392 . S
C826 H796 0.951 . S
C826 C825 1.392 . S
C826 C827 1.392 . S
C827 H797 0.949 . S
C827 C822 1.382 . S
C827 C826 1.392 . S
H828 C847 0.949 . S
H829 C848 0.950 . S
H830 C850 0.950 . S
H831 C851 0.950 . S
H832 C853 0.950 . S
H833 C856 0.950 . S
H834 C857 0.950 . S
H835 C859 0.951 . S
H836 C860 0.949 . S
H837 C862 0.949 . S
H838 C863 0.950 . S
H839 C865 0.950 . S
H840 C866 0.950 . S
H841 C868 0.950 . S
H842 C871 0.950 . S
H843 C872 0.950 . S
H844 C874 0.951 . S
H845 C875 0.949 . S
C846 C847 1.397 . S
C846 C851 1.376 1_545 S
C846 C852 1.501 . S
C847 H828 0.949 . S
C847 C846 1.397 . S
C847 C848 1.397 . S
C848 H829 0.950 . S
C848 C847 1.397 . S
C848 C849 1.391 1_545 S
C849 C848 1.391 1_565 S
C849 C850 1.405 . S
C850 H830 0.950 . S
C850 C849 1.405 . S
C850 C851 1.367 . S
C851 H831 0.950 . S
C851 C846 1.376 1_565 S
C851 C850 1.367 . S
C852 C846 1.501 . S
C852 C853 1.353 . S
C852 C854 1.400 1_545 S
C853 H832 0.950 . S
C853 C852 1.353 . S
C853 C869 1.443 . S
C854 C852 1.400 1_565 S
C854 C855 1.481 . S
C854 C868 1.433 . S
C855 C854 1.481 . S
C855 C856 1.358 1_565 S
C855 C860 1.395 . S
C856 H833 0.950 . S
C856 C855 1.358 1_545 S
C856 C857 1.395 . S
C857 H834 0.950 . S
C857 C856 1.395 . S
C857 C858 1.288 . S
C858 C857 1.288 . S
C858 C859 1.392 1_545 S
C859 H835 0.951 . S
C859 C858 1.392 1_565 S
C859 C860 1.392 . S
C860 H836 0.949 . S
C860 C855 1.395 . S
C860 C859 1.392 . S
C861 C862 1.384 . S
C861 C866 1.382 1_565 S
C861 C867 1.501 . S
C862 H837 0.949 . S
C862 C861 1.384 . S
C862 C863 1.397 . S
C863 H838 0.950 . S
C863 C862 1.397 . S
C863 C864 1.391 1_565 S
C864 C863 1.391 1_545 S
C864 C865 1.405 . S
C865 H839 0.950 . S
C865 C864 1.405 . S
C865 C866 1.367 . S
C866 H840 0.950 . S
C866 C861 1.382 1_545 S
C866 C865 1.367 . S
C867 C861 1.501 . S
C867 C868 1.360 . S
C867 C869 1.400 1_565 S
C868 H841 0.950 . S
C868 C854 1.433 . S
C868 C867 1.360 . S
C869 C853 1.443 . S
C869 C867 1.400 1_545 S
C869 C870 1.481 . S
C870 C869 1.481 . S
C870 C871 1.341 1_545 S
C870 C875 1.404 . S
C871 H842 0.950 . S
C871 C870 1.341 1_565 S
C871 C872 1.395 . S
C872 H843 0.950 . S
C872 C871 1.395 . S
C872 C873 1.288 . S
C873 C872 1.288 . S
C873 C874 1.392 1_565 S
C874 H844 0.951 . S
C874 C873 1.392 1_545 S
C874 C875 1.392 . S
C875 H845 0.949 . S
C875 C870 1.404 . S
C875 C874 1.392 . S
H876 C895 0.949 . S
H877 C896 0.950 . S
H878 C898 0.950 . S
H879 C899 0.950 . S
H880 C901 0.950 . S
H881 C904 0.950 . S
H882 C905 0.950 . S
H883 C907 0.951 . S
H884 C908 0.949 . S
H885 C910 0.949 . S
H886 C911 0.950 . S
H887 C913 0.950 . S
H888 C914 0.950 . S
H889 C916 0.950 . S
H890 C919 0.950 . S
H891 C920 0.950 . S
H892 C922 0.951 . S
H893 C923 0.949 . S
C894 C895 1.376 . S
C894 C899 1.386 1_455 S
C894 C900 1.483 . S
C895 H876 0.949 . S
C895 C894 1.376 . S
C895 C896 1.397 . S
C896 H877 0.950 . S
C896 C895 1.397 . S
C896 C897 1.391 . S
C897 C896 1.391 . S
C897 C898 1.405 1_455 S
C898 H878 0.950 . S
C898 C897 1.405 1_655 S
C898 C899 1.367 . S
C899 H879 0.950 . S
C899 C894 1.386 1_655 S
C899 C898 1.367 . S
C900 C894 1.483 . S
C900 C901 1.382 . S
C900 C902 1.403 1_455 S
C901 H880 0.950 . S
C901 C900 1.382 . S
C901 C917 1.411 . S
C902 C900 1.403 1_655 S
C902 C903 1.489 . S
C902 C916 1.411 . S
C903 C902 1.489 . S
C903 C904 1.383 1_655 S
C903 C908 1.382 . S
C904 H881 0.950 . S
C904 C903 1.383 1_455 S
C904 C905 1.395 . S
C905 H882 0.950 . S
C905 C904 1.395 . S
C905 C906 1.288 1_455 S
C906 C905 1.288 1_655 S
C906 C907 1.392 . S
C907 H883 0.951 . S
C907 C906 1.392 . S
C907 C908 1.392 . S
C908 H884 0.949 . S
C908 C903 1.382 . S
C908 C907 1.392 . S
C909 C910 1.376 . S
C909 C914 1.386 1_655 S
C909 C915 1.483 . S
C910 H885 0.949 . S
C910 C909 1.376 . S
C910 C911 1.397 . S
C911 H886 0.950 . S
C911 C910 1.397 . S
C911 C912 1.391 . S
C912 C911 1.391 . S
C912 C913 1.405 1_655 S
C913 H887 0.950 . S
C913 C912 1.405 1_455 S
C913 C914 1.367 . S
C914 H888 0.950 . S
C914 C909 1.386 1_455 S
C914 C913 1.367 . S
C915 C909 1.483 . S
C915 C916 1.382 . S
C915 C917 1.403 1_655 S
C916 H889 0.950 . S
C916 C902 1.411 . S
C916 C915 1.382 . S
C917 C901 1.411 . S
C917 C915 1.403 1_455 S
C917 C918 1.489 . S
C918 C917 1.489 . S
C918 C919 1.383 1_455 S
C918 C923 1.382 . S
C919 H890 0.950 . S
C919 C918 1.383 1_655 S
C919 C920 1.395 . S
C920 H891 0.950 . S
C920 C919 1.395 . S
C920 C921 1.288 1_655 S
C921 C920 1.288 1_455 S
C921 C922 1.392 . S
C922 H892 0.951 . S
C922 C921 1.392 . S
C922 C923 1.392 . S
C923 H893 0.949 . S
C923 C918 1.382 . S
C923 C922 1.392 . S
H924 C943 0.949 . S
H925 C944 0.950 . S
H926 C946 0.950 . S
H927 C947 0.950 . S
H928 C949 0.950 . S
H929 C952 0.950 . S
H930 C953 0.950 . S
H931 C955 0.951 . S
H932 C956 0.949 . S
H933 C958 0.949 . S
H934 C959 0.950 . S
H935 C961 0.950 . S
H936 C962 0.950 . S
H937 C964 0.950 . S
H938 C967 0.950 . S
H939 C968 0.950 . S
H940 C970 0.951 . S
H941 C971 0.949 . S
C942 C943 1.376 . S
C942 C947 1.386 . S
C942 C948 1.483 . S
C943 H924 0.949 . S
C943 C942 1.376 . S
C943 C944 1.397 . S
C944 H925 0.950 . S
C944 C943 1.397 . S
C944 C945 1.391 . S
C945 C944 1.391 . S
C945 C946 1.405 . S
C946 H926 0.950 . S
C946 C945 1.405 . S
C946 C947 1.367 . S
C947 H927 0.950 . S
C947 C942 1.386 . S
C947 C946 1.367 . S
C948 C942 1.483 . S
C948 C949 1.382 . S
C948 C950 1.403 . S
C949 H928 0.950 . S
C949 C948 1.382 . S
C949 C965 1.411 . S
C950 C948 1.403 . S
C950 C951 1.489 . S
C950 C964 1.411 . S
C951 C950 1.489 . S
C951 C952 1.383 . S
C951 C956 1.382 . S
C952 H929 0.950 . S
C952 C951 1.383 . S
C952 C953 1.395 . S
C953 H930 0.950 . S
C953 C952 1.395 . S
C953 C954 1.288 . S
C954 C953 1.288 . S
C954 C955 1.392 . S
C955 H931 0.951 . S
C955 C954 1.392 . S
C955 C956 1.392 . S
C956 H932 0.949 . S
C956 C951 1.382 . S
C956 C955 1.392 . S
C957 C958 1.376 . S
C957 C962 1.386 . S
C957 C963 1.483 . S
C958 H933 0.949 . S
C958 C957 1.376 . S
C958 C959 1.397 . S
C959 H934 0.950 . S
C959 C958 1.397 . S
C959 C960 1.391 . S
C960 C959 1.391 . S
C960 C961 1.405 . S
C961 H935 0.950 . S
C961 C960 1.405 . S
C961 C962 1.367 . S
C962 H936 0.950 . S
C962 C957 1.386 . S
C962 C961 1.367 . S
C963 C957 1.483 . S
C963 C964 1.382 . S
C963 C965 1.403 . S
C964 H937 0.950 . S
C964 C950 1.411 . S
C964 C963 1.382 . S
C965 C949 1.411 . S
C965 C963 1.403 . S
C965 C966 1.489 . S
C966 C965 1.489 . S
C966 C967 1.383 . S
C966 C971 1.382 . S
C967 H938 0.950 . S
C967 C966 1.383 . S
C967 C968 1.395 . S
C968 H939 0.950 . S
C968 C967 1.395 . S
C968 C969 1.288 . S
C969 C968 1.288 . S
C969 C970 1.392 . S
C970 H940 0.951 . S
C970 C969 1.392 . S
C970 C971 1.392 . S
C971 H941 0.949 . S
C971 C966 1.382 . S
C971 C970 1.392 . S
H972 C991 0.949 . S
H973 C992 0.950 . S
H974 C994 0.950 . S
H975 C995 0.950 . S
H976 C997 0.950 . S
H977 C1000 0.950 . S
H978 C1001 0.950 . S
H979 C1003 0.951 . S
H980 C1004 0.949 . S
H981 C1006 0.949 . S
H982 C1007 0.950 . S
H983 C1009 0.950 . S
H984 C1010 0.950 . S
H985 C1012 0.950 . S
H986 C1015 0.950 . S
H987 C1016 0.950 . S
H988 C1018 0.951 . S
H989 C1019 0.949 . S
C990 C991 1.376 . S
C990 C995 1.386 . S
C990 C996 1.483 . S
C991 H972 0.949 . S
C991 C990 1.376 . S
C991 C992 1.397 . S
C992 H973 0.950 . S
C992 C991 1.397 . S
C992 C993 1.391 . S
C993 C992 1.391 . S
C993 C994 1.405 . S
C994 H974 0.950 . S
C994 C993 1.405 . S
C994 C995 1.367 . S
C995 H975 0.950 . S
C995 C990 1.386 . S
C995 C994 1.367 . S
C996 C990 1.483 . S
C996 C997 1.382 . S
C996 C998 1.403 . S
C997 H976 0.950 . S
C997 C996 1.382 . S
C997 C1013 1.411 . S
C998 C996 1.403 . S
C998 C999 1.489 . S
C998 C1012 1.411 . S
C999 C998 1.489 . S
C999 C1000 1.383 . S
C999 C1004 1.382 . S
C1000 H977 0.950 . S
C1000 C999 1.383 . S
C1000 C1001 1.395 . S
C1001 H978 0.950 . S
C1001 C1000 1.395 . S
C1001 C1002 1.288 . S
C1002 C1001 1.288 . S
C1002 C1003 1.392 . S
C1003 H979 0.951 . S
C1003 C1002 1.392 . S
C1003 C1004 1.392 . S
C1004 H980 0.949 . S
C1004 C999 1.382 . S
C1004 C1003 1.392 . S
C1005 C1006 1.376 . S
C1005 C1010 1.386 . S
C1005 C1011 1.483 . S
C1006 H981 0.949 . S
C1006 C1005 1.376 . S
C1006 C1007 1.397 . S
C1007 H982 0.950 . S
C1007 C1006 1.397 . S
C1007 C1008 1.391 . S
C1008 C1007 1.391 . S
C1008 C1009 1.405 . S
C1009 H983 0.950 . S
C1009 C1008 1.405 . S
C1009 C1010 1.367 . S
C1010 H984 0.950 . S
C1010 C1005 1.386 . S
C1010 C1009 1.367 . S
C1011 C1005 1.483 . S
C1011 C1012 1.382 . S
C1011 C1013 1.403 . S
C1012 H985 0.950 . S
C1012 C998 1.411 . S
C1012 C1011 1.382 . S
C1013 C997 1.411 . S
C1013 C1011 1.403 . S
C1013 C1014 1.489 . S
C1014 C1013 1.489 . S
C1014 C1015 1.383 . S
C1014 C1019 1.382 . S
C1015 H986 0.950 . S
C1015 C1014 1.383 . S
C1015 C1016 1.395 . S
C1016 H987 0.950 . S
C1016 C1015 1.395 . S
C1016 C1017 1.288 . S
C1017 C1016 1.288 . S
C1017 C1018 1.392 . S
C1018 H988 0.951 . S
C1018 C1017 1.392 . S
C1018 C1019 1.392 . S
C1019 H989 0.949 . S
C1019 C1014 1.382 . S
C1019 C1018 1.392 . S
H1020 C1039 0.949 . S
H1021 C1040 0.950 . S
H1022 C1042 0.950 . S
H1023 C1043 0.950 . S
H1024 C1045 0.950 . S
H1025 C1048 0.950 . S
H1026 C1049 0.950 . S
H1027 C1051 0.951 . S
H1028 C1052 0.949 . S
H1029 C1054 0.949 . S
H1030 C1055 0.950 . S
H1031 C1057 0.950 . S
H1032 C1058 0.950 . S
H1033 C1060 0.950 . S
H1034 C1063 0.950 . S
H1035 C1064 0.950 . S
H1036 C1066 0.951 . S
H1037 C1067 0.949 . S
C1038 C1039 1.376 . S
C1038 C1043 1.386 . S
C1038 C1044 1.483 . S
C1039 H1020 0.949 . S
C1039 C1038 1.376 . S
C1039 C1040 1.397 . S
C1040 H1021 0.950 . S
C1040 C1039 1.397 . S
C1040 C1041 1.391 . S
C1041 C1040 1.391 . S
C1041 C1042 1.405 . S
C1042 H1022 0.950 . S
C1042 C1041 1.405 . S
C1042 C1043 1.367 . S
C1043 H1023 0.950 . S
C1043 C1038 1.386 . S
C1043 C1042 1.367 . S
C1044 C1038 1.483 . S
C1044 C1045 1.382 . S
C1044 C1046 1.403 . S
C1045 H1024 0.950 . S
C1045 C1044 1.382 . S
C1045 C1061 1.411 . S
C1046 C1044 1.403 . S
C1046 C1047 1.489 . S
C1046 C1060 1.411 . S
C1047 C1046 1.489 . S
C1047 C1048 1.383 . S
C1047 C1052 1.382 . S
C1048 H1025 0.950 . S
C1048 C1047 1.383 . S
C1048 C1049 1.395 . S
C1049 H1026 0.950 . S
C1049 C1048 1.395 . S
C1049 C1050 1.288 . S
C1050 C1049 1.288 . S
C1050 C1051 1.392 . S
C1051 H1027 0.951 . S
C1051 C1050 1.392 . S
C1051 C1052 1.392 . S
C1052 H1028 0.949 . S
C1052 C1047 1.382 . S
C1052 C1051 1.392 . S
C1053 C1054 1.376 . S
C1053 C1058 1.386 . S
C1053 C1059 1.483 . S
C1054 H1029 0.949 . S
C1054 C1053 1.376 . S
C1054 C1055 1.397 . S
C1055 H1030 0.950 . S
C1055 C1054 1.397 . S
C1055 C1056 1.391 . S
C1056 C1055 1.391 . S
C1056 C1057 1.405 . S
C1057 H1031 0.950 . S
C1057 C1056 1.405 . S
C1057 C1058 1.367 . S
C1058 H1032 0.950 . S
C1058 C1053 1.386 . S
C1058 C1057 1.367 . S
C1059 C1053 1.483 . S
C1059 C1060 1.382 . S
C1059 C1061 1.403 . S
C1060 H1033 0.950 . S
C1060 C1046 1.411 . S
C1060 C1059 1.382 . S
C1061 C1045 1.411 . S
C1061 C1059 1.403 . S
C1061 C1062 1.489 . S
C1062 C1061 1.489 . S
C1062 C1063 1.383 . S
C1062 C1067 1.382 . S
C1063 H1034 0.950 . S
C1063 C1062 1.383 . S
C1063 C1064 1.395 . S
C1064 H1035 0.950 . S
C1064 C1063 1.395 . S
C1064 C1065 1.288 . S
C1065 C1064 1.288 . S
C1065 C1066 1.392 . S
C1066 H1036 0.951 . S
C1066 C1065 1.392 . S
C1066 C1067 1.392 . S
C1067 H1037 0.949 . S
C1067 C1062 1.382 . S
C1067 C1066 1.392 . S
H1068 C1087 0.949 . S
H1069 C1088 0.950 . S
H1070 C1090 0.950 . S
H1071 C1091 0.950 . S
H1072 C1093 0.950 . S
H1073 C1096 0.950 . S
H1074 C1097 0.950 . S
H1075 C1099 0.951 . S
H1076 C1100 0.949 . S
H1077 C1102 0.949 . S
H1078 C1103 0.950 . S
H1079 C1105 0.950 . S
H1080 C1106 0.950 . S
H1081 C1108 0.950 . S
H1082 C1111 0.950 . S
H1083 C1112 0.950 . S
H1084 C1114 0.951 . S
H1085 C1115 0.949 . S
C1086 C1087 1.376 . S
C1086 C1091 1.386 . S
C1086 C1092 1.483 . S
C1087 H1068 0.949 . S
C1087 C1086 1.376 . S
C1087 C1088 1.397 . S
C1088 H1069 0.950 . S
C1088 C1087 1.397 . S
C1088 C1089 1.391 . S
C1089 C1088 1.391 . S
C1089 C1090 1.405 . S
C1090 H1070 0.950 . S
C1090 C1089 1.405 . S
C1090 C1091 1.367 . S
C1091 H1071 0.950 . S
C1091 C1086 1.386 . S
C1091 C1090 1.367 . S
C1092 C1086 1.483 . S
C1092 C1093 1.382 . S
C1092 C1094 1.403 . S
C1093 H1072 0.950 . S
C1093 C1092 1.382 . S
C1093 C1109 1.411 . S
C1094 C1092 1.403 . S
C1094 C1095 1.489 . S
C1094 C1108 1.411 . S
C1095 C1094 1.489 . S
C1095 C1096 1.383 . S
C1095 C1100 1.382 . S
C1096 H1073 0.950 . S
C1096 C1095 1.383 . S
C1096 C1097 1.395 . S
C1097 H1074 0.950 . S
C1097 C1096 1.395 . S
C1097 C1098 1.288 . S
C1098 C1097 1.288 . S
C1098 C1099 1.392 . S
C1099 H1075 0.951 . S
C1099 C1098 1.392 . S
C1099 C1100 1.392 . S
C1100 H1076 0.949 . S
C1100 C1095 1.382 . S
C1100 C1099 1.392 . S
C1101 C1102 1.376 . S
C1101 C1106 1.386 . S
C1101 C1107 1.483 . S
C1102 H1077 0.949 . S
C1102 C1101 1.376 . S
C1102 C1103 1.397 . S
C1103 H1078 0.950 . S
C1103 C1102 1.397 . S
C1103 C1104 1.391 . S
C1104 C1103 1.391 . S
C1104 C1105 1.405 . S
C1105 H1079 0.950 . S
C1105 C1104 1.405 . S
C1105 C1106 1.367 . S
C1106 H1080 0.950 . S
C1106 C1101 1.386 . S
C1106 C1105 1.367 . S
C1107 C1101 1.483 . S
C1107 C1108 1.382 . S
C1107 C1109 1.403 . S
C1108 H1081 0.950 . S
C1108 C1094 1.411 . S
C1108 C1107 1.382 . S
C1109 C1093 1.411 . S
C1109 C1107 1.403 . S
C1109 C1110 1.489 . S
C1110 C1109 1.489 . S
C1110 C1111 1.383 . S
C1110 C1115 1.382 . S
C1111 H1082 0.950 . S
C1111 C1110 1.383 . S
C1111 C1112 1.395 . S
C1112 H1083 0.950 . S
C1112 C1111 1.395 . S
C1112 C1113 1.288 . S
C1113 C1112 1.288 . S
C1113 C1114 1.392 . S
C1114 H1084 0.951 . S
C1114 C1113 1.392 . S
C1114 C1115 1.392 . S
C1115 H1085 0.949 . S
C1115 C1110 1.382 . S
C1115 C1114 1.392 . S
H1116 C1128 0.930 . S
H1117 C1130 0.930 . S
H1118 C1131 0.930 . S
H1119 C1135 0.959 . S
H1120 C1135 0.959 . S
H1121 C1135 0.961 . S
H1122 C1136 0.963 1_455 S
H1123 C1136 0.959 1_455 S
H1124 C1136 0.953 . S
H1125 C1139 0.929 . S
H1126 C1140 0.931 . S
H1127 C1142 0.930 . S
C1128 H1116 0.930 . S
C1128 C1129 1.399 1_455 S
C1128 C1133 1.399 . S
C1129 C1128 1.399 1_655 S
C1129 C1130 1.376 . S
C1130 H1117 0.930 . S
C1130 C1129 1.376 . S
C1130 C1131 1.388 . S
C1131 H1118 0.930 . S
C1131 C1130 1.388 . S
C1131 C1132 1.390 . S
C1132 C1131 1.390 . S
C1132 C1133 1.394 1_655 S
C1132 C1138 1.465 . S
C1133 C1128 1.399 . S
C1133 C1132 1.394 1_455 S
C1133 C1134 1.516 . S
C1134 C1133 1.516 . S
C1134 C1135 1.502 . S
C1134 C1136 1.566 1_455 S
C1134 C1137 1.526 . S
C1135 H1119 0.959 . S
C1135 H1120 0.959 . S
C1135 H1121 0.961 . S
C1135 C1134 1.502 . S
C1136 H1122 0.963 1_655 S
C1136 H1123 0.959 1_655 S
C1136 H1124 0.953 . S
C1136 C1134 1.566 1_655 S
C1137 C1134 1.526 . S
C1137 C1138 1.396 1_455 S
C1137 C1142 1.390 . S
C1138 C1132 1.465 . S
C1138 C1137 1.396 1_655 S
C1138 C1139 1.399 . S
C1139 H1125 0.929 . S
C1139 C1138 1.399 . S
C1139 C1140 1.385 . S
C1140 H1126 0.931 . S
C1140 C1139 1.385 . S
C1140 C1141 1.389 . S
C1141 C1140 1.389 . S
C1141 C1142 1.387 1_655 S
C1142 H1127 0.930 . S
C1142 C1137 1.390 . S
C1142 C1141 1.387 1_455 S
H1143 C1155 0.930 . S
H1144 C1157 0.930 . S
H1145 C1158 0.930 . S
H1146 C1162 0.959 . S
H1147 C1162 0.959 . S
H1148 C1162 0.961 . S
H1149 C1163 0.960 . S
H1150 C1163 0.961 . S
H1151 C1163 0.959 . S
H1152 C1166 0.929 . S
H1153 C1167 0.931 . S
H1154 C1169 0.930 . S
C1155 H1143 0.930 . S
C1155 C1156 1.399 . S
C1155 C1160 1.399 . S
C1156 C1155 1.399 . S
C1156 C1157 1.376 . S
C1157 H1144 0.930 . S
C1157 C1156 1.376 . S
C1157 C1158 1.388 . S
C1158 H1145 0.930 . S
C1158 C1157 1.388 . S
C1158 C1159 1.390 . S
C1159 C1158 1.390 . S
C1159 C1160 1.394 . S
C1159 C1165 1.465 . S
C1160 C1155 1.399 . S
C1160 C1159 1.394 . S
C1160 C1161 1.516 . S
C1161 C1160 1.516 . S
C1161 C1162 1.502 . S
C1161 C1163 1.561 . S
C1161 C1164 1.526 . S
C1162 H1146 0.959 . S
C1162 H1147 0.959 . S
C1162 H1148 0.961 . S
C1162 C1161 1.502 . S
C1163 H1149 0.960 . S
C1163 H1150 0.961 . S
C1163 H1151 0.959 . S
C1163 C1161 1.561 . S
C1164 C1161 1.526 . S
C1164 C1165 1.396 . S
C1164 C1169 1.390 . S
C1165 C1159 1.465 . S
C1165 C1164 1.396 . S
C1165 C1166 1.399 . S
C1166 H1152 0.929 . S
C1166 C1165 1.399 . S
C1166 C1167 1.385 . S
C1167 H1153 0.931 . S
C1167 C1166 1.385 . S
C1167 C1168 1.389 . S
C1168 C1167 1.389 . S
C1168 C1169 1.387 . S
C1169 H1154 0.930 . S
C1169 C1164 1.390 . S
C1169 C1168 1.387 . S
H1170 C1182 0.930 . S
H1171 C1184 0.930 . S
H1172 C1185 0.930 . S
H1173 C1189 0.959 . S
H1174 C1189 0.959 . S
H1175 C1189 0.961 . S
H1176 C1190 0.960 . S
H1177 C1190 0.961 . S
H1178 C1190 0.959 . S
H1179 C1193 0.929 . S
H1180 C1194 0.931 . S
H1181 C1196 0.930 . S
C1182 H1170 0.930 . S
C1182 C1183 1.399 1_565 S
C1182 C1187 1.399 . S
C1183 C1182 1.399 1_545 S
C1183 C1184 1.376 . S
C1184 H1171 0.930 . S
C1184 C1183 1.376 . S
C1184 C1185 1.388 . S
C1185 H1172 0.930 . S
C1185 C1184 1.388 . S
C1185 C1186 1.390 . S
C1186 C1185 1.390 . S
C1186 C1187 1.394 1_545 S
C1186 C1192 1.465 . S
C1187 C1182 1.399 . S
C1187 C1186 1.394 1_565 S
C1187 C1188 1.516 . S
C1188 C1187 1.516 . S
C1188 C1189 1.502 . S
C1188 C1190 1.561 . S
C1188 C1191 1.526 . S
C1189 H1173 0.959 . S
C1189 H1174 0.959 . S
C1189 H1175 0.961 . S
C1189 C1188 1.502 . S
C1190 H1176 0.960 . S
C1190 H1177 0.961 . S
C1190 H1178 0.959 . S
C1190 C1188 1.561 . S
C1191 C1188 1.526 . S
C1191 C1192 1.396 1_565 S
C1191 C1196 1.390 . S
C1192 C1186 1.465 . S
C1192 C1191 1.396 1_545 S
C1192 C1193 1.399 . S
C1193 H1179 0.929 . S
C1193 C1192 1.399 . S
C1193 C1194 1.385 . S
C1194 H1180 0.931 . S
C1194 C1193 1.385 . S
C1194 C1195 1.389 . S
C1195 C1194 1.389 . S
C1195 C1196 1.387 1_545 S
C1196 H1181 0.930 . S
C1196 C1191 1.390 . S
C1196 C1195 1.387 1_565 S
H1197 C1209 0.930 . S
H1198 C1211 0.930 . S
H1199 C1212 0.930 . S
H1200 C1216 0.959 . S
H1201 C1216 0.959 . S
H1202 C1216 0.961 . S
H1203 C1217 0.960 . S
H1204 C1217 0.961 . S
H1205 C1217 0.959 . S
H1206 C1220 0.929 . S
H1207 C1221 0.931 . S
H1208 C1223 0.930 . S
C1209 H1197 0.930 . S
C1209 C1210 1.399 1_565 S
C1209 C1214 1.399 . S
C1210 C1209 1.399 1_545 S
C1210 C1211 1.376 . S
C1211 H1198 0.930 . S
C1211 C1210 1.376 . S
C1211 C1212 1.388 . S
C1212 H1199 0.930 . S
C1212 C1211 1.388 . S
C1212 C1213 1.390 . S
C1213 C1212 1.390 . S
C1213 C1214 1.394 1_545 S
C1213 C1219 1.465 . S
C1214 C1209 1.399 . S
C1214 C1213 1.394 1_565 S
C1214 C1215 1.516 . S
C1215 C1214 1.516 . S
C1215 C1216 1.502 . S
C1215 C1217 1.561 . S
C1215 C1218 1.526 . S
C1216 H1200 0.959 . S
C1216 H1201 0.959 . S
C1216 H1202 0.961 . S
C1216 C1215 1.502 . S
C1217 H1203 0.960 . S
C1217 H1204 0.961 . S
C1217 H1205 0.959 . S
C1217 C1215 1.561 . S
C1218 C1215 1.526 . S
C1218 C1219 1.396 1_565 S
C1218 C1223 1.390 . S
C1219 C1213 1.465 . S
C1219 C1218 1.396 1_545 S
C1219 C1220 1.399 . S
C1220 H1206 0.929 . S
C1220 C1219 1.399 . S
C1220 C1221 1.385 . S
C1221 H1207 0.931 . S
C1221 C1220 1.385 . S
C1221 C1222 1.338 1_545 S
C1222 C1221 1.338 1_565 S
C1222 C1223 1.410 . S
C1223 H1208 0.930 . S
C1223 C1218 1.390 . S
C1223 C1222 1.410 . S
H1224 C1236 0.930 . S
H1225 C1238 0.930 . S
H1226 C1239 0.930 . S
H1227 C1243 0.959 1_655 S
H1228 C1243 0.959 . S
H1229 C1243 0.961 . S
H1230 C1244 0.960 . S
H1231 C1244 0.961 . S
H1232 C1244 0.959 . S
H1233 C1247 0.929 . S
H1234 C1248 0.931 . S
H1235 C1250 0.930 . S
C1236 H1224 0.930 . S
C1236 C1237 1.399 . S
C1236 C1241 1.399 . S
C1237 C1236 1.399 . S
C1237 C1238 1.376 1_455 S
C1238 H1225 0.930 . S
C1238 C1237 1.376 1_655 S
C1238 C1239 1.388 . S
C1239 H1226 0.930 . S
C1239 C1238 1.388 . S
C1239 C1240 1.390 1_655 S
C1240 C1239 1.390 1_455 S
C1240 C1241 1.394 . S
C1240 C1246 1.465 . S
C1241 C1236 1.399 . S
C1241 C1240 1.394 . S
C1241 C1242 1.516 . S
C1242 C1241 1.516 . S
C1242 C1243 1.502 . S
C1242 C1244 1.561 . S
C1242 C1245 1.526 . S
C1243 H1227 0.959 1_455 S
C1243 H1228 0.959 . S
C1243 H1229 0.961 . S
C1243 C1242 1.502 . S
C1244 H1230 0.960 . S
C1244 H1231 0.961 . S
C1244 H1232 0.959 . S
C1244 C1242 1.561 . S
C1245 C1242 1.526 . S
C1245 C1246 1.396 . S
C1245 C1250 1.390 . S
C1246 C1240 1.465 . S
C1246 C1245 1.396 . S
C1246 C1247 1.399 1_455 S
C1247 H1233 0.929 . S
C1247 C1246 1.399 1_655 S
C1247 C1248 1.385 . S
C1248 H1234 0.931 . S
C1248 C1247 1.385 . S
C1248 C1249 1.389 1_655 S
C1249 C1248 1.389 1_455 S
C1249 C1250 1.387 . S
C1250 H1235 0.930 . S
C1250 C1245 1.390 . S
C1250 C1249 1.387 . S
H1251 C1263 0.930 . S
H1252 C1265 0.930 . S
H1253 C1266 0.930 . S
H1254 C1270 0.959 . S
H1255 C1270 0.959 . S
H1256 C1270 0.961 . S
H1257 C1271 0.960 . S
H1258 C1271 0.961 . S
H1259 C1271 0.959 . S
H1260 C1274 0.929 . S
H1261 C1275 0.931 . S
H1262 C1277 0.930 . S
C1263 H1251 0.930 . S
C1263 C1264 1.399 . S
C1263 C1268 1.399 . S
C1264 C1263 1.399 . S
C1264 C1265 1.376 . S
C1265 H1252 0.930 . S
C1265 C1264 1.376 . S
C1265 C1266 1.388 . S
C1266 H1253 0.930 . S
C1266 C1265 1.388 . S
C1266 C1267 1.390 . S
C1267 C1266 1.390 . S
C1267 C1268 1.394 . S
C1267 C1273 1.465 . S
C1268 C1263 1.399 . S
C1268 C1267 1.394 . S
C1268 C1269 1.516 . S
C1269 C1268 1.516 . S
C1269 C1270 1.502 . S
C1269 C1271 1.561 . S
C1269 C1272 1.526 . S
C1270 H1254 0.959 . S
C1270 H1255 0.959 . S
C1270 H1256 0.961 . S
C1270 C1269 1.502 . S
C1271 H1257 0.960 . S
C1271 H1258 0.961 . S
C1271 H1259 0.959 . S
C1271 C1269 1.561 . S
C1272 C1269 1.526 . S
C1272 C1273 1.396 . S
C1272 C1277 1.390 . S
C1273 C1267 1.465 . S
C1273 C1272 1.396 . S
C1273 C1274 1.399 . S
C1274 H1260 0.929 . S
C1274 C1273 1.399 . S
C1274 C1275 1.385 . S
C1275 H1261 0.931 . S
C1275 C1274 1.385 . S
C1275 C1276 1.389 . S
C1276 C1275 1.389 . S
C1276 C1277 1.387 . S
C1277 H1262 0.930 . S
C1277 C1272 1.390 . S
C1277 C1276 1.387 . S
H1278 C1290 0.930 . S
H1279 C1292 0.930 . S
H1280 C1293 0.930 . S
H1281 C1297 0.959 . S
H1282 C1297 0.959 . S
H1283 C1297 0.961 . S
H1284 C1298 0.960 . S
H1285 C1298 0.961 . S
H1286 C1298 0.959 . S
H1287 C1301 0.929 . S
H1288 C1302 0.931 . S
H1289 C1304 0.930 . S
C1290 H1278 0.930 . S
C1290 C1291 1.399 . S
C1290 C1295 1.399 . S
C1291 C1290 1.399 . S
C1291 C1292 1.376 . S
C1292 H1279 0.930 . S
C1292 C1291 1.376 . S
C1292 C1293 1.388 . S
C1293 H1280 0.930 . S
C1293 C1292 1.388 . S
C1293 C1294 1.390 . S
C1294 C1293 1.390 . S
C1294 C1295 1.394 . S
C1294 C1300 1.465 . S
C1295 C1290 1.399 . S
C1295 C1294 1.394 . S
C1295 C1296 1.516 . S
C1296 C1295 1.516 . S
C1296 C1297 1.502 1_455 S
C1296 C1298 1.561 . S
C1296 C1299 1.526 . S
C1297 H1281 0.959 . S
C1297 H1282 0.959 . S
C1297 H1283 0.961 . S
C1297 C1296 1.502 1_655 S
C1298 H1284 0.960 . S
C1298 H1285 0.961 . S
C1298 H1286 0.959 . S
C1298 C1296 1.561 . S
C1299 C1296 1.526 . S
C1299 C1300 1.396 . S
C1299 C1304 1.390 . S
C1300 C1294 1.465 . S
C1300 C1299 1.396 . S
C1300 C1301 1.399 . S
C1301 H1287 0.929 . S
C1301 C1300 1.399 . S
C1301 C1302 1.385 . S
C1302 H1288 0.931 . S
C1302 C1301 1.385 . S
C1302 C1303 1.389 . S
C1303 C1302 1.389 . S
C1303 C1304 1.387 . S
C1304 H1289 0.930 . S
C1304 C1299 1.390 . S
C1304 C1303 1.387 . S
H1305 C1317 0.930 . S
H1306 C1319 0.930 . S
H1307 C1320 0.930 . S
H1308 C1324 0.959 . S
H1309 C1324 0.959 . S
H1310 C1324 0.961 . S
H1311 C1325 0.960 . S
H1312 C1325 0.961 . S
H1313 C1325 0.959 . S
H1314 C1328 0.929 . S
H1315 C1329 0.931 . S
H1316 C1331 0.930 . S
C1317 H1305 0.930 . S
C1317 C1318 1.399 . S
C1317 C1322 1.399 . S
C1318 C1317 1.399 . S
C1318 C1319 1.376 . S
C1319 H1306 0.930 . S
C1319 C1318 1.376 . S
C1319 C1320 1.388 . S
C1320 H1307 0.930 . S
C1320 C1319 1.388 . S
C1320 C1321 1.390 . S
C1321 C1320 1.390 . S
C1321 C1322 1.394 . S
C1321 C1327 1.465 . S
C1322 C1317 1.399 . S
C1322 C1321 1.394 . S
C1322 C1323 1.516 . S
C1323 C1322 1.516 . S
C1323 C1324 1.502 . S
C1323 C1325 1.561 . S
C1323 C1326 1.526 . S
C1324 H1308 0.959 . S
C1324 H1309 0.959 . S
C1324 H1310 0.961 . S
C1324 C1323 1.502 . S
C1325 H1311 0.960 . S
C1325 H1312 0.961 . S
C1325 H1313 0.959 . S
C1325 C1323 1.561 . S
C1326 C1323 1.526 . S
C1326 C1327 1.396 . S
C1326 C1331 1.390 . S
C1327 C1321 1.465 . S
C1327 C1326 1.396 . S
C1327 C1328 1.399 . S
C1328 H1314 0.929 . S
C1328 C1327 1.399 . S
C1328 C1329 1.385 . S
C1329 H1315 0.931 . S
C1329 C1328 1.385 . S
C1329 C1330 1.389 . S
C1330 C1329 1.389 . S
C1330 C1331 1.387 . S
C1331 H1316 0.930 . S
C1331 C1326 1.390 . S
C1331 C1330 1.387 . S
H1332 C1344 0.930 . S
H1333 C1346 0.930 . S
H1334 C1347 0.930 . S
H1335 C1351 0.959 . S
H1336 C1351 0.959 . S
H1337 C1351 0.961 . S
H1338 C1352 0.960 . S
H1339 C1352 0.961 . S
H1340 C1352 0.959 . S
H1341 C1355 0.929 . S
H1342 C1356 0.931 . S
H1343 C1358 0.930 . S
C1344 H1332 0.930 . S
C1344 C1345 1.399 . S
C1344 C1349 1.399 . S
C1345 C1344 1.399 . S
C1345 C1346 1.376 1_565 S
C1346 H1333 0.930 . S
C1346 C1345 1.376 1_545 S
C1346 C1347 1.388 . S
C1347 H1334 0.930 . S
C1347 C1346 1.388 . S
C1347 C1348 1.390 . S
C1348 C1347 1.390 . S
C1348 C1349 1.394 1_545 S
C1348 C1354 1.465 . S
C1349 C1344 1.399 . S
C1349 C1348 1.394 1_565 S
C1349 C1350 1.516 . S
C1350 C1349 1.516 . S
C1350 C1351 1.502 . S
C1350 C1352 1.561 . S
C1350 C1353 1.526 . S
C1351 H1335 0.959 . S
C1351 H1336 0.959 . S
C1351 H1337 0.961 . S
C1351 C1350 1.502 . S
C1352 H1338 0.960 . S
C1352 H1339 0.961 . S
C1352 H1340 0.959 . S
C1352 C1350 1.561 . S
C1353 C1350 1.526 . S
C1353 C1354 1.396 1_565 S
C1353 C1358 1.390 . S
C1354 C1348 1.465 . S
C1354 C1353 1.396 1_545 S
C1354 C1355 1.399 . S
C1355 H1341 0.929 . S
C1355 C1354 1.399 . S
C1355 C1356 1.385 . S
C1356 H1342 0.931 . S
C1356 C1355 1.385 . S
C1356 C1357 1.389 1_545 S
C1357 C1356 1.389 1_565 S
C1357 C1358 1.387 . S
C1358 H1343 0.930 . S
C1358 C1353 1.390 . S
C1358 C1357 1.387 . S
H1359 C1371 0.930 . S
H1360 C1373 0.930 . S
H1361 C1374 0.930 . S
H1362 C1378 0.959 . S
H1363 C1378 0.959 . S
H1364 C1378 0.961 . S
H1365 C1379 0.960 . S
H1366 C1379 0.961 . S
H1367 C1379 0.959 . S
H1368 C1382 0.929 . S
H1369 C1383 0.931 . S
H1370 C1385 0.930 . S
C1371 H1359 0.930 . S
C1371 C1372 1.399 1_565 S
C1371 C1376 1.399 . S
C1372 C1371 1.399 1_545 S
C1372 C1373 1.376 . S
C1373 H1360 0.930 . S
C1373 C1372 1.376 . S
C1373 C1374 1.388 . S
C1374 H1361 0.930 . S
C1374 C1373 1.388 . S
C1374 C1375 1.390 . S
C1375 C1374 1.390 . S
C1375 C1376 1.394 1_545 S
C1375 C1381 1.465 . S
C1376 C1371 1.399 . S
C1376 C1375 1.394 1_565 S
C1376 C1377 1.516 . S
C1377 C1376 1.516 . S
C1377 C1378 1.502 . S
C1377 C1379 1.561 . S
C1377 C1380 1.526 . S
C1378 H1362 0.959 . S
C1378 H1363 0.959 . S
C1378 H1364 0.961 . S
C1378 C1377 1.502 . S
C1379 H1365 0.960 . S
C1379 H1366 0.961 . S
C1379 H1367 0.959 . S
C1379 C1377 1.561 . S
C1380 C1377 1.526 . S
C1380 C1381 1.396 1_565 S
C1380 C1385 1.390 . S
C1381 C1375 1.465 . S
C1381 C1380 1.396 1_545 S
C1381 C1382 1.399 . S
C1382 H1368 0.929 . S
C1382 C1381 1.399 . S
C1382 C1383 1.385 . S
C1383 H1369 0.931 . S
C1383 C1382 1.385 . S
C1383 C1384 1.389 . S
C1384 C1383 1.389 . S
C1384 C1385 1.387 1_545 S
C1385 H1370 0.930 . S
C1385 C1380 1.390 . S
C1385 C1384 1.387 1_565 S
H1386 C1398 0.930 . S
H1387 C1400 0.927 1_455 S
H1388 C1401 0.900 1_455 S
H1389 C1405 1.028 . S
H1390 C1405 0.954 1_655 S
H1391 C1405 0.897 1_655 S
H1392 C1406 0.960 . S
H1393 C1406 0.961 . S
H1394 C1406 0.959 . S
H1395 C1409 0.928 1_455 S
H1396 C1410 0.930 1_455 S
H1397 C1412 0.930 . S
C1398 H1386 0.930 . S
C1398 C1399 1.399 . S
C1398 C1403 1.399 . S
C1399 C1398 1.399 . S
C1399 C1400 1.376 . S
C1400 H1387 0.927 1_655 S
C1400 C1399 1.376 . S
C1400 C1401 1.414 . S
C1401 H1388 0.900 1_655 S
C1401 C1400 1.414 . S
C1401 C1402 1.398 . S
C1402 C1401 1.398 . S
C1402 C1403 1.394 . S
C1402 C1408 1.465 . S
C1403 C1398 1.399 . S
C1403 C1402 1.394 . S
C1403 C1404 1.516 . S
C1404 C1403 1.516 . S
C1404 C1405 1.489 1_655 S
C1404 C1406 1.561 . S
C1404 C1407 1.526 . S
C1405 H1389 1.028 . S
C1405 H1390 0.954 1_455 S
C1405 H1391 0.897 1_455 S
C1405 C1404 1.489 1_455 S
C1406 H1392 0.960 . S
C1406 H1393 0.961 . S
C1406 H1394 0.959 . S
C1406 C1404 1.561 . S
C1407 C1404 1.526 . S
C1407 C1408 1.396 . S
C1407 C1412 1.390 . S
C1408 C1402 1.465 . S
C1408 C1407 1.396 . S
C1408 C1409 1.401 . S
C1409 H1395 0.928 1_655 S
C1409 C1408 1.401 . S
C1409 C1410 1.385 . S
C1410 H1396 0.930 1_655 S
C1410 C1409 1.385 . S
C1410 C1411 1.390 . S
C1411 C1410 1.390 . S
C1411 C1412 1.387 . S
C1412 H1397 0.930 . S
C1412 C1407 1.390 . S
C1412 C1411 1.387 . S
H1413 C1425 0.930 . S
H1414 C1427 0.930 . S
H1415 C1428 0.930 . S
H1416 C1432 0.959 . S
H1417 C1432 0.959 . S
H1418 C1432 0.961 . S
H1419 C1433 0.960 . S
H1420 C1433 0.961 . S
H1421 C1433 0.959 . S
H1422 C1436 0.929 . S
H1423 C1437 0.931 . S
H1424 C1439 0.930 . S
C1425 H1413 0.930 . S
C1425 C1426 1.399 . S
C1425 C1430 1.399 . S
C1426 C1425 1.399 . S
C1426 C1427 1.376 . S
C1427 H1414 0.930 . S
C1427 C1426 1.376 . S
C1427 C1428 1.388 . S
C1428 H1415 0.930 . S
C1428 C1427 1.388 . S
C1428 C1429 1.390 . S
C1429 C1428 1.390 . S
C1429 C1430 1.394 . S
C1429 C1435 1.465 . S
C1430 C1425 1.399 . S
C1430 C1429 1.394 . S
C1430 C1431 1.516 . S
C1431 C1430 1.516 . S
C1431 C1432 1.502 . S
C1431 C1433 1.561 . S
C1431 C1434 1.526 . S
C1432 H1416 0.959 . S
C1432 H1417 0.959 . S
C1432 H1418 0.961 . S
C1432 C1431 1.502 . S
C1433 H1419 0.960 . S
C1433 H1420 0.961 . S
C1433 H1421 0.959 . S
C1433 C1431 1.561 . S
C1434 C1431 1.526 . S
C1434 C1435 1.396 . S
C1434 C1439 1.390 . S
C1435 C1429 1.465 . S
C1435 C1434 1.396 . S
C1435 C1436 1.399 . S
C1436 H1422 0.929 . S
C1436 C1435 1.399 . S
C1436 C1437 1.385 . S
C1437 H1423 0.931 . S
C1437 C1436 1.385 . S
C1437 C1438 1.389 . S
C1438 C1437 1.389 . S
C1438 C1439 1.387 . S
C1439 H1424 0.930 . S
C1439 C1434 1.390 . S
C1439 C1438 1.387 . S
H1440 C1452 0.930 . S
H1441 C1454 0.930 . S
H1442 C1455 0.930 . S
H1443 C1459 0.959 . S
H1444 C1459 0.959 . S
H1445 C1459 0.961 . S
H1446 C1460 0.960 . S
H1447 C1460 0.961 . S
H1448 C1460 0.959 . S
H1449 C1463 0.929 . S
H1450 C1464 0.931 . S
H1451 C1466 0.930 . S
C1452 H1440 0.930 . S
C1452 C1453 1.399 . S
C1452 C1457 1.399 . S
C1453 C1452 1.399 . S
C1453 C1454 1.376 . S
C1454 H1441 0.930 . S
C1454 C1453 1.376 . S
C1454 C1455 1.388 . S
C1455 H1442 0.930 . S
C1455 C1454 1.388 . S
C1455 C1456 1.390 . S
C1456 C1455 1.390 . S
C1456 C1457 1.394 . S
C1456 C1462 1.465 . S
C1457 C1452 1.399 . S
C1457 C1456 1.394 . S
C1457 C1458 1.516 . S
C1458 C1457 1.516 . S
C1458 C1459 1.502 . S
C1458 C1460 1.561 . S
C1458 C1461 1.526 . S
C1459 H1443 0.959 . S
C1459 H1444 0.959 . S
C1459 H1445 0.961 . S
C1459 C1458 1.502 . S
C1460 H1446 0.960 . S
C1460 H1447 0.961 . S
C1460 H1448 0.959 . S
C1460 C1458 1.561 . S
C1461 C1458 1.526 . S
C1461 C1462 1.396 . S
C1461 C1466 1.390 . S
C1462 C1456 1.465 . S
C1462 C1461 1.396 . S
C1462 C1463 1.399 . S
C1463 H1449 0.929 . S
C1463 C1462 1.399 . S
C1463 C1464 1.385 . S
C1464 H1450 0.931 . S
C1464 C1463 1.385 . S
C1464 C1465 1.389 . S
C1465 C1464 1.389 . S
C1465 C1466 1.387 . S
C1466 H1451 0.930 . S
C1466 C1461 1.390 . S
C1466 C1465 1.387 . S
H1467 C1479 0.930 . S
H1468 C1481 0.930 . S
H1469 C1482 0.930 . S
H1470 C1486 0.959 . S
H1471 C1486 0.959 . S
H1472 C1486 0.961 . S
H1473 C1487 0.960 . S
H1474 C1487 0.961 . S
H1475 C1487 0.959 . S
H1476 C1490 0.929 . S
H1477 C1491 0.931 . S
H1478 C1493 0.930 . S
C1479 H1467 0.930 . S
C1479 C1480 1.399 . S
C1479 C1484 1.399 . S
C1480 C1479 1.399 . S
C1480 C1481 1.376 . S
C1481 H1468 0.930 . S
C1481 C1480 1.376 . S
C1481 C1482 1.388 . S
C1482 H1469 0.930 . S
C1482 C1481 1.388 . S
C1482 C1483 1.390 . S
C1483 C1482 1.390 . S
C1483 C1484 1.394 . S
C1483 C1489 1.465 . S
C1484 C1479 1.399 . S
C1484 C1483 1.394 . S
C1484 C1485 1.516 . S
C1485 C1484 1.516 . S
C1485 C1486 1.502 . S
C1485 C1487 1.561 . S
C1485 C1488 1.526 . S
C1486 H1470 0.959 . S
C1486 H1471 0.959 . S
C1486 H1472 0.961 . S
C1486 C1485 1.502 . S
C1487 H1473 0.960 . S
C1487 H1474 0.961 . S
C1487 H1475 0.959 . S
C1487 C1485 1.561 . S
C1488 C1485 1.526 . S
C1488 C1489 1.396 . S
C1488 C1493 1.390 . S
C1489 C1483 1.465 . S
C1489 C1488 1.396 . S
C1489 C1490 1.399 . S
C1490 H1476 0.929 . S
C1490 C1489 1.399 . S
C1490 C1491 1.385 . S
C1491 H1477 0.931 . S
C1491 C1490 1.385 . S
C1491 C1492 1.389 . S
C1492 C1491 1.389 . S
C1492 C1493 1.387 . S
C1493 H1478 0.930 . S
C1493 C1488 1.390 . S
C1493 C1492 1.387 . S
H1494 C1506 0.930 . S
H1495 C1508 0.930 . S
H1496 C1509 0.930 . S
H1497 C1513 0.959 . S
H1498 C1513 0.959 . S
H1499 C1513 0.961 . S
H1500 C1514 0.960 . S
H1501 C1514 0.961 . S
H1502 C1514 0.959 . S
H1503 C1517 0.929 . S
H1504 C1518 0.931 . S
H1505 C1520 0.930 . S
C1506 H1494 0.930 . S
C1506 C1507 1.399 . S
C1506 C1511 1.399 . S
C1507 C1506 1.399 . S
C1507 C1508 1.376 . S
C1508 H1495 0.930 . S
C1508 C1507 1.376 . S
C1508 C1509 1.388 . S
C1509 H1496 0.930 . S
C1509 C1508 1.388 . S
C1509 C1510 1.390 . S
C1510 C1509 1.390 . S
C1510 C1511 1.394 . S
C1510 C1516 1.465 . S
C1511 C1506 1.399 . S
C1511 C1510 1.394 . S
C1511 C1512 1.516 . S
C1512 C1511 1.516 . S
C1512 C1513 1.502 . S
C1512 C1514 1.561 . S
C1512 C1515 1.526 . S
C1513 H1497 0.959 . S
C1513 H1498 0.959 . S
C1513 H1499 0.961 . S
C1513 C1512 1.502 . S
C1514 H1500 0.960 . S
C1514 H1501 0.961 . S
C1514 H1502 0.959 . S
C1514 C1512 1.561 . S
C1515 C1512 1.526 . S
C1515 C1516 1.396 . S
C1515 C1520 1.390 . S
C1516 C1510 1.465 . S
C1516 C1515 1.396 . S
C1516 C1517 1.399 . S
C1517 H1503 0.929 . S
C1517 C1516 1.399 . S
C1517 C1518 1.385 . S
C1518 H1504 0.931 . S
C1518 C1517 1.385 . S
C1518 C1519 1.389 . S
C1519 C1518 1.389 . S
C1519 C1520 1.387 . S
C1520 H1505 0.930 . S
C1520 C1515 1.390 . S
C1520 C1519 1.387 . S
H1521 C1533 0.930 . S
H1522 C1535 0.930 . S
H1523 C1536 0.930 . S
H1524 C1540 0.959 . S
H1525 C1540 0.959 . S
H1526 C1540 0.961 . S
H1527 C1541 0.960 . S
H1528 C1541 0.961 . S
H1529 C1541 0.959 . S
H1530 C1544 0.929 . S
H1531 C1545 0.931 . S
H1532 C1547 0.930 . S
C1533 H1521 0.930 . S
C1533 C1534 1.399 . S
C1533 C1538 1.399 . S
C1534 C1533 1.399 . S
C1534 C1535 1.376 . S
C1535 H1522 0.930 . S
C1535 C1534 1.376 . S
C1535 C1536 1.388 . S
C1536 H1523 0.930 . S
C1536 C1535 1.388 . S
C1536 C1537 1.390 . S
C1537 C1536 1.390 . S
C1537 C1538 1.394 . S
C1537 C1543 1.465 . S
C1538 C1533 1.399 . S
C1538 C1537 1.394 . S
C1538 C1539 1.516 . S
C1539 C1538 1.516 . S
C1539 C1540 1.502 . S
C1539 C1541 1.561 . S
C1539 C1542 1.526 . S
C1540 H1524 0.959 . S
C1540 H1525 0.959 . S
C1540 H1526 0.961 . S
C1540 C1539 1.502 . S
C1541 H1527 0.960 . S
C1541 H1528 0.961 . S
C1541 H1529 0.959 . S
C1541 C1539 1.561 . S
C1542 C1539 1.526 . S
C1542 C1543 1.396 . S
C1542 C1547 1.390 . S
C1543 C1537 1.465 . S
C1543 C1542 1.396 . S
C1543 C1544 1.399 . S
C1544 H1530 0.929 . S
C1544 C1543 1.399 . S
C1544 C1545 1.385 . S
C1545 H1531 0.931 . S
C1545 C1544 1.385 . S
C1545 C1546 1.389 . S
C1546 C1545 1.389 . S
C1546 C1547 1.387 . S
C1547 H1532 0.930 . S
C1547 C1542 1.390 . S
C1547 C1546 1.387 . S
H1548 C1560 0.930 . S
H1549 C1562 0.930 . S
H1550 C1563 0.930 . S
H1551 C1567 0.959 . S
H1552 C1567 0.959 . S
H1553 C1567 0.961 . S
H1554 C1568 0.960 . S
H1555 C1568 0.961 . S
H1556 C1568 0.959 . S
H1557 C1571 0.929 . S
H1558 C1572 0.931 . S
H1559 C1574 0.930 . S
C1560 H1548 0.930 . S
C1560 C1561 1.399 . S
C1560 C1565 1.399 . S
C1561 C1560 1.399 . S
C1561 C1562 1.376 . S
C1562 H1549 0.930 . S
C1562 C1561 1.376 . S
C1562 C1563 1.388 . S
C1563 H1550 0.930 . S
C1563 C1562 1.388 . S
C1563 C1564 1.390 . S
C1564 C1563 1.390 . S
C1564 C1565 1.394 . S
C1564 C1570 1.465 . S
C1565 C1560 1.399 . S
C1565 C1564 1.394 . S
C1565 C1566 1.516 . S
C1566 C1565 1.516 . S
C1566 C1567 1.502 . S
C1566 C1568 1.561 . S
C1566 C1569 1.526 . S
C1567 H1551 0.959 . S
C1567 H1552 0.959 . S
C1567 H1553 0.961 . S
C1567 C1566 1.502 . S
C1568 H1554 0.960 . S
C1568 H1555 0.961 . S
C1568 H1556 0.959 . S
C1568 C1566 1.561 . S
C1569 C1566 1.526 . S
C1569 C1570 1.396 . S
C1569 C1574 1.390 . S
C1570 C1564 1.465 . S
C1570 C1569 1.396 . S
C1570 C1571 1.399 . S
C1571 H1557 0.929 . S
C1571 C1570 1.399 . S
C1571 C1572 1.385 . S
C1572 H1558 0.931 . S
C1572 C1571 1.385 . S
C1572 C1573 1.389 . S
C1573 C1572 1.389 . S
C1573 C1574 1.387 . S
C1574 H1559 0.930 . S
C1574 C1569 1.390 . S
C1574 C1573 1.387 . S
H1575 C1587 0.930 . S
H1576 C1589 0.930 . S
H1577 C1590 0.930 . S
H1578 C1594 0.959 . S
H1579 C1594 0.959 . S
H1580 C1594 0.961 . S
H1581 C1595 0.960 . S
H1582 C1595 0.961 . S
H1583 C1595 0.959 . S
H1584 C1598 0.929 . S
H1585 C1599 0.931 . S
H1586 C1601 0.930 . S
C1587 H1575 0.930 . S
C1587 C1588 1.399 . S
C1587 C1592 1.399 . S
C1588 C1587 1.399 . S
C1588 C1589 1.376 . S
C1589 H1576 0.930 . S
C1589 C1588 1.376 . S
C1589 C1590 1.388 . S
C1590 H1577 0.930 . S
C1590 C1589 1.388 . S
C1590 C1591 1.390 . S
C1591 C1590 1.390 . S
C1591 C1592 1.394 . S
C1591 C1597 1.465 . S
C1592 C1587 1.399 . S
C1592 C1591 1.394 . S
C1592 C1593 1.516 . S
C1593 C1592 1.516 . S
C1593 C1594 1.502 . S
C1593 C1595 1.561 . S
C1593 C1596 1.526 . S
C1594 H1578 0.959 . S
C1594 H1579 0.959 . S
C1594 H1580 0.961 . S
C1594 C1593 1.502 . S
C1595 H1581 0.960 . S
C1595 H1582 0.961 . S
C1595 H1583 0.959 . S
C1595 C1593 1.561 . S
C1596 C1593 1.526 . S
C1596 C1597 1.396 . S
C1596 C1601 1.390 . S
C1597 C1591 1.465 . S
C1597 C1596 1.396 . S
C1597 C1598 1.399 . S
C1598 H1584 0.929 . S
C1598 C1597 1.399 . S
C1598 C1599 1.385 . S
C1599 H1585 0.931 . S
C1599 C1598 1.385 . S
C1599 C1600 1.389 . S
C1600 C1599 1.389 . S
C1600 C1601 1.387 . S
C1601 H1586 0.930 . S
C1601 C1596 1.390 . S
C1601 C1600 1.387 . S
H1602 C1614 0.930 . S
H1603 C1616 0.930 . S
H1604 C1617 0.930 . S
H1605 C1621 0.959 . S
H1606 C1621 0.959 . S
H1607 C1621 0.961 . S
H1608 C1622 0.960 . S
H1609 C1622 0.961 . S
H1610 C1622 0.959 . S
H1611 C1625 0.929 . S
H1612 C1626 0.931 . S
H1613 C1628 0.930 . S
C1614 H1602 0.930 . S
C1614 C1615 1.399 . S
C1614 C1619 1.399 . S
C1615 C1614 1.399 . S
C1615 C1616 1.376 . S
C1616 H1603 0.930 . S
C1616 C1615 1.376 . S
C1616 C1617 1.388 . S
C1617 H1604 0.930 . S
C1617 C1616 1.388 . S
C1617 C1618 1.390 . S
C1618 C1617 1.390 . S
C1618 C1619 1.394 . S
C1618 C1624 1.465 . S
C1619 C1614 1.399 . S
C1619 C1618 1.394 . S
C1619 C1620 1.516 . S
C1620 C1619 1.516 . S
C1620 C1621 1.502 . S
C1620 C1622 1.561 . S
C1620 C1623 1.526 . S
C1621 H1605 0.959 . S
C1621 H1606 0.959 . S
C1621 H1607 0.961 . S
C1621 C1620 1.502 . S
C1622 H1608 0.960 . S
C1622 H1609 0.961 . S
C1622 H1610 0.959 . S
C1622 C1620 1.561 . S
C1623 C1620 1.526 . S
C1623 C1624 1.396 . S
C1623 C1628 1.390 . S
C1624 C1618 1.465 . S
C1624 C1623 1.396 . S
C1624 C1625 1.399 . S
C1625 H1611 0.929 . S
C1625 C1624 1.399 . S
C1625 C1626 1.385 . S
C1626 H1612 0.931 . S
C1626 C1625 1.385 . S
C1626 C1627 1.389 . S
C1627 C1626 1.389 . S
C1627 C1628 1.387 . S
C1628 H1613 0.930 . S
C1628 C1623 1.390 . S
C1628 C1627 1.387 . S
H1629 C1641 0.930 . S
H1630 C1643 0.930 . S
H1631 C1644 0.930 . S
H1632 C1648 0.959 . S
H1633 C1648 0.959 . S
H1634 C1648 0.961 . S
H1635 C1649 0.960 . S
H1636 C1649 0.961 . S
H1637 C1649 0.959 . S
H1638 C1652 0.929 . S
H1639 C1653 0.931 . S
H1640 C1655 0.930 . S
C1641 H1629 0.930 . S
C1641 C1642 1.399 . S
C1641 C1646 1.399 . S
C1642 C1641 1.399 . S
C1642 C1643 1.376 . S
C1643 H1630 0.930 . S
C1643 C1642 1.376 . S
C1643 C1644 1.388 . S
C1644 H1631 0.930 . S
C1644 C1643 1.388 . S
C1644 C1645 1.390 . S
C1645 C1644 1.390 . S
C1645 C1646 1.394 . S
C1645 C1651 1.465 . S
C1646 C1641 1.399 . S
C1646 C1645 1.394 . S
C1646 C1647 1.516 . S
C1647 C1646 1.516 . S
C1647 C1648 1.502 . S
C1647 C1649 1.561 . S
C1647 C1650 1.526 . S
C1648 H1632 0.959 . S
C1648 H1633 0.959 . S
C1648 H1634 0.961 . S
C1648 C1647 1.502 . S
C1649 H1635 0.960 . S
C1649 H1636 0.961 . S
C1649 H1637 0.959 . S
C1649 C1647 1.561 . S
C1650 C1647 1.526 . S
C1650 C1651 1.396 . S
C1650 C1655 1.390 . S
C1651 C1645 1.465 . S
C1651 C1650 1.396 . S
C1651 C1652 1.399 . S
C1652 H1638 0.929 . S
C1652 C1651 1.399 . S
C1652 C1653 1.385 . S
C1653 H1639 0.931 . S
C1653 C1652 1.385 . S
C1653 C1654 1.389 . S
C1654 C1653 1.389 . S
C1654 C1655 1.387 . S
C1655 H1640 0.930 . S
C1655 C1650 1.390 . S
C1655 C1654 1.387 . S
H1656 C1668 0.930 . S
H1657 C1670 0.930 . S
H1658 C1671 0.930 . S
H1659 C1675 0.959 . S
H1660 C1675 0.959 . S
H1661 C1675 0.961 . S
H1662 C1676 0.960 . S
H1663 C1676 0.961 . S
H1664 C1676 0.959 . S
H1665 C1679 0.929 . S
H1666 C1680 0.931 . S
H1667 C1682 0.930 . S
C1668 H1656 0.930 . S
C1668 C1669 1.399 . S
C1668 C1673 1.399 . S
C1669 C1668 1.399 . S
C1669 C1670 1.376 . S
C1670 H1657 0.930 . S
C1670 C1669 1.376 . S
C1670 C1671 1.388 . S
C1671 H1658 0.930 . S
C1671 C1670 1.388 . S
C1671 C1672 1.390 . S
C1672 C1671 1.390 . S
C1672 C1673 1.394 . S
C1672 C1678 1.465 . S
C1673 C1668 1.399 . S
C1673 C1672 1.394 . S
C1673 C1674 1.516 . S
C1674 C1673 1.516 . S
C1674 C1675 1.502 . S
C1674 C1676 1.561 . S
C1674 C1677 1.526 . S
C1675 H1659 0.959 . S
C1675 H1660 0.959 . S
C1675 H1661 0.961 . S
C1675 C1674 1.502 . S
C1676 H1662 0.960 . S
C1676 H1663 0.961 . S
C1676 H1664 0.959 . S
C1676 C1674 1.561 . S
C1677 C1674 1.526 . S
C1677 C1678 1.396 . S
C1677 C1682 1.390 . S
C1678 C1672 1.465 . S
C1678 C1677 1.396 . S
C1678 C1679 1.399 . S
C1679 H1665 0.929 . S
C1679 C1678 1.399 . S
C1679 C1680 1.385 . S
C1680 H1666 0.931 . S
C1680 C1679 1.385 . S
C1680 C1681 1.389 . S
C1681 C1680 1.389 . S
C1681 C1682 1.387 . S
C1682 H1667 0.930 . S
C1682 C1677 1.390 . S
C1682 C1681 1.387 . S
H1683 C1695 0.930 . S
H1684 C1697 0.930 . S
H1685 C1698 0.930 . S
H1686 C1702 0.959 . S
H1687 C1702 0.959 . S
H1688 C1702 0.961 . S
H1689 C1703 0.960 . S
H1690 C1703 0.961 . S
H1691 C1703 0.959 . S
H1692 C1706 0.929 . S
H1693 C1707 0.931 . S
H1694 C1709 0.930 . S
C1695 H1683 0.930 . S
C1695 C1696 1.399 . S
C1695 C1700 1.399 . S
C1696 C1695 1.399 . S
C1696 C1697 1.376 . S
C1697 H1684 0.930 . S
C1697 C1696 1.376 . S
C1697 C1698 1.388 . S
C1698 H1685 0.930 . S
C1698 C1697 1.388 . S
C1698 C1699 1.390 . S
C1699 C1698 1.390 . S
C1699 C1700 1.394 . S
C1699 C1705 1.465 . S
C1700 C1695 1.399 . S
C1700 C1699 1.394 . S
C1700 C1701 1.516 . S
C1701 C1700 1.516 . S
C1701 C1702 1.502 . S
C1701 C1703 1.561 . S
C1701 C1704 1.526 . S
C1702 H1686 0.959 . S
C1702 H1687 0.959 . S
C1702 H1688 0.961 . S
C1702 C1701 1.502 . S
C1703 H1689 0.960 . S
C1703 H1690 0.961 . S
C1703 H1691 0.959 . S
C1703 C1701 1.561 . S
C1704 C1701 1.526 . S
C1704 C1705 1.396 . S
C1704 C1709 1.390 . S
C1705 C1699 1.465 . S
C1705 C1704 1.396 . S
C1705 C1706 1.399 . S
C1706 H1692 0.929 . S
C1706 C1705 1.399 . S
C1706 C1707 1.385 . S
C1707 H1693 0.931 . S
C1707 C1706 1.385 . S
C1707 C1708 1.389 . S
C1708 C1707 1.389 . S
C1708 C1709 1.387 . S
C1709 H1694 0.930 . S
C1709 C1704 1.390 . S
C1709 C1708 1.387 . S
H1710 C1722 0.930 . S
H1711 C1724 0.930 . S
H1712 C1725 0.930 . S
H1713 C1729 0.959 . S
H1714 C1729 0.959 . S
H1715 C1729 0.961 . S
H1716 C1730 0.960 . S
H1717 C1730 0.961 . S
H1718 C1730 0.959 . S
H1719 C1733 0.929 . S
H1720 C1734 0.931 . S
H1721 C1736 0.930 . S
C1722 H1710 0.930 . S
C1722 C1723 1.399 . S
C1722 C1727 1.399 . S
C1723 C1722 1.399 . S
C1723 C1724 1.376 . S
C1724 H1711 0.930 . S
C1724 C1723 1.376 . S
C1724 C1725 1.388 . S
C1725 H1712 0.930 . S
C1725 C1724 1.388 . S
C1725 C1726 1.390 . S
C1726 C1725 1.390 . S
C1726 C1727 1.394 . S
C1726 C1732 1.465 . S
C1727 C1722 1.399 . S
C1727 C1726 1.394 . S
C1727 C1728 1.516 . S
C1728 C1727 1.516 . S
C1728 C1729 1.502 . S
C1728 C1730 1.561 . S
C1728 C1731 1.526 . S
C1729 H1713 0.959 . S
C1729 H1714 0.959 . S
C1729 H1715 0.961 . S
C1729 C1728 1.502 . S
C1730 H1716 0.960 . S
C1730 H1717 0.961 . S
C1730 H1718 0.959 . S
C1730 C1728 1.561 . S
C1731 C1728 1.526 . S
C1731 C1732 1.396 . S
C1731 C1736 1.390 . S
C1732 C1726 1.465 . S
C1732 C1731 1.396 . S
C1732 C1733 1.399 . S
C1733 H1719 0.929 . S
C1733 C1732 1.399 . S
C1733 C1734 1.385 . S
C1734 H1720 0.931 . S
C1734 C1733 1.385 . S
C1734 C1735 1.389 . S
C1735 C1734 1.389 . S
C1735 C1736 1.387 . S
C1736 H1721 0.930 . S
C1736 C1731 1.390 . S
C1736 C1735 1.387 . S
H1737 C1749 0.930 . S
H1738 C1751 0.930 . S
H1739 C1752 0.930 . S
H1740 C1756 0.959 . S
H1741 C1756 0.959 . S
H1742 C1756 0.961 . S
H1743 C1757 0.960 . S
H1744 C1757 0.961 . S
H1745 C1757 0.959 . S
H1746 C1760 0.929 . S
H1747 C1761 0.931 . S
H1748 C1763 0.930 . S
C1749 H1737 0.930 . S
C1749 C1750 1.399 . S
C1749 C1754 1.399 . S
C1750 C1749 1.399 . S
C1750 C1751 1.376 . S
C1751 H1738 0.930 . S
C1751 C1750 1.376 . S
C1751 C1752 1.388 . S
C1752 H1739 0.930 . S
C1752 C1751 1.388 . S
C1752 C1753 1.390 . S
C1753 C1752 1.390 . S
C1753 C1754 1.394 . S
C1753 C1759 1.465 . S
C1754 C1749 1.399 . S
C1754 C1753 1.394 . S
C1754 C1755 1.516 . S
C1755 C1754 1.516 . S
C1755 C1756 1.502 . S
C1755 C1757 1.561 . S
C1755 C1758 1.526 . S
C1756 H1740 0.959 . S
C1756 H1741 0.959 . S
C1756 H1742 0.961 . S
C1756 C1755 1.502 . S
C1757 H1743 0.960 . S
C1757 H1744 0.961 . S
C1757 H1745 0.959 . S
C1757 C1755 1.561 . S
C1758 C1755 1.526 . S
C1758 C1759 1.396 . S
C1758 C1763 1.390 . S
C1759 C1753 1.465 . S
C1759 C1758 1.396 . S
C1759 C1760 1.399 . S
C1760 H1746 0.929 . S
C1760 C1759 1.399 . S
C1760 C1761 1.385 . S
C1761 H1747 0.931 . S
C1761 C1760 1.385 . S
C1761 C1762 1.389 . S
C1762 C1761 1.389 . S
C1762 C1763 1.387 . S
C1763 H1748 0.930 . S
C1763 C1758 1.390 . S
C1763 C1762 1.387 . S
H1764 C1776 0.930 . S
H1765 C1778 0.930 . S
H1766 C1779 0.930 . S
H1767 C1783 0.959 . S
H1768 C1783 0.959 . S
H1769 C1783 0.961 . S
H1770 C1784 0.960 . S
H1771 C1784 0.961 . S
H1772 C1784 0.959 . S
H1773 C1787 0.929 . S
H1774 C1788 0.931 . S
H1775 C1790 0.930 . S
C1776 H1764 0.930 . S
C1776 C1777 1.399 . S
C1776 C1781 1.399 . S
C1777 C1776 1.399 . S
C1777 C1778 1.376 . S
C1778 H1765 0.930 . S
C1778 C1777 1.376 . S
C1778 C1779 1.388 . S
C1779 H1766 0.930 . S
C1779 C1778 1.388 . S
C1779 C1780 1.390 . S
C1780 C1779 1.390 . S
C1780 C1781 1.394 . S
C1780 C1786 1.465 . S
C1781 C1776 1.399 . S
C1781 C1780 1.394 . S
C1781 C1782 1.516 . S
C1782 C1781 1.516 . S
C1782 C1783 1.502 . S
C1782 C1784 1.561 . S
C1782 C1785 1.526 . S
C1783 H1767 0.959 . S
C1783 H1768 0.959 . S
C1783 H1769 0.961 . S
C1783 C1782 1.502 . S
C1784 H1770 0.960 . S
C1784 H1771 0.961 . S
C1784 H1772 0.959 . S
C1784 C1782 1.561 . S
C1785 C1782 1.526 . S
C1785 C1786 1.396 . S
C1785 C1790 1.390 . S
C1786 C1780 1.465 . S
C1786 C1785 1.396 . S
C1786 C1787 1.399 . S
C1787 H1773 0.929 . S
C1787 C1786 1.399 . S
C1787 C1788 1.385 . S
C1788 H1774 0.931 . S
C1788 C1787 1.385 . S
C1788 C1789 1.389 . S
C1789 C1788 1.389 . S
C1789 C1790 1.387 . S
C1790 H1775 0.930 . S
C1790 C1785 1.390 . S
C1790 C1789 1.387 . S
H1791 C1803 0.930 . S
H1792 C1805 0.930 . S
H1793 C1806 0.930 . S
H1794 C1810 0.959 . S
H1795 C1810 0.959 . S
H1796 C1810 0.961 . S
H1797 C1811 0.960 . S
H1798 C1811 0.961 . S
H1799 C1811 0.959 . S
H1800 C1814 0.929 . S
H1801 C1815 0.931 . S
H1802 C1817 0.930 . S
C1803 H1791 0.930 . S
C1803 C1804 1.399 . S
C1803 C1808 1.399 . S
C1804 C1803 1.399 . S
C1804 C1805 1.376 . S
C1805 H1792 0.930 . S
C1805 C1804 1.376 . S
C1805 C1806 1.388 . S
C1806 H1793 0.930 . S
C1806 C1805 1.388 . S
C1806 C1807 1.390 . S
C1807 C1806 1.390 . S
C1807 C1808 1.394 . S
C1807 C1813 1.465 . S
C1808 C1803 1.399 . S
C1808 C1807 1.394 . S
C1808 C1809 1.516 . S
C1809 C1808 1.516 . S
C1809 C1810 1.502 . S
C1809 C1811 1.561 . S
C1809 C1812 1.526 . S
C1810 H1794 0.959 . S
C1810 H1795 0.959 . S
C1810 H1796 0.961 . S
C1810 C1809 1.502 . S
C1811 H1797 0.960 . S
C1811 H1798 0.961 . S
C1811 H1799 0.959 . S
C1811 C1809 1.561 . S
C1812 C1809 1.526 . S
C1812 C1813 1.396 . S
C1812 C1817 1.390 . S
C1813 C1807 1.465 . S
C1813 C1812 1.396 . S
C1813 C1814 1.399 . S
C1814 H1800 0.929 . S
C1814 C1813 1.399 . S
C1814 C1815 1.385 . S
C1815 H1801 0.931 . S
C1815 C1814 1.385 . S
C1815 C1816 1.389 . S
C1816 C1815 1.389 . S
C1816 C1817 1.387 . S
C1817 H1802 0.930 . S
C1817 C1812 1.390 . S
C1817 C1816 1.387 . S
H1818 C1830 0.930 . S
H1819 C1832 0.930 . S
H1820 C1833 0.930 . S
H1821 C1837 0.959 . S
H1822 C1837 0.959 . S
H1823 C1837 0.961 . S
H1824 C1838 0.960 . S
H1825 C1838 0.961 . S
H1826 C1838 0.959 . S
H1827 C1841 0.929 . S
H1828 C1842 0.931 . S
H1829 C1844 0.930 . S
C1830 H1818 0.930 . S
C1830 C1831 1.399 . S
C1830 C1835 1.399 . S
C1831 C1830 1.399 . S
C1831 C1832 1.376 . S
C1832 H1819 0.930 . S
C1832 C1831 1.376 . S
C1832 C1833 1.388 . S
C1833 H1820 0.930 . S
C1833 C1832 1.388 . S
C1833 C1834 1.390 . S
C1834 C1833 1.390 . S
C1834 C1835 1.394 . S
C1834 C1840 1.465 . S
C1835 C1830 1.399 . S
C1835 C1834 1.394 . S
C1835 C1836 1.516 . S
C1836 C1835 1.516 . S
C1836 C1837 1.502 . S
C1836 C1838 1.561 . S
C1836 C1839 1.526 . S
C1837 H1821 0.959 . S
C1837 H1822 0.959 . S
C1837 H1823 0.961 . S
C1837 C1836 1.502 . S
C1838 H1824 0.960 . S
C1838 H1825 0.961 . S
C1838 H1826 0.959 . S
C1838 C1836 1.561 . S
C1839 C1836 1.526 . S
C1839 C1840 1.396 . S
C1839 C1844 1.390 . S
C1840 C1834 1.465 . S
C1840 C1839 1.396 . S
C1840 C1841 1.399 . S
C1841 H1827 0.929 . S
C1841 C1840 1.399 . S
C1841 C1842 1.385 . S
C1842 H1828 0.931 . S
C1842 C1841 1.385 . S
C1842 C1843 1.389 . S
C1843 C1842 1.389 . S
C1843 C1844 1.387 . S
C1844 H1829 0.930 . S
C1844 C1839 1.390 . S
C1844 C1843 1.387 . S
H1845 C1857 0.930 . S
H1846 C1859 0.930 . S
H1847 C1860 0.930 . S
H1848 C1864 0.959 . S
H1849 C1864 0.959 . S
H1850 C1864 0.961 . S
H1851 C1865 0.960 . S
H1852 C1865 0.961 . S
H1853 C1865 0.959 . S
H1854 C1868 0.929 . S
H1855 C1869 0.931 . S
H1856 C1871 0.930 . S
C1857 H1845 0.930 . S
C1857 C1858 1.399 . S
C1857 C1862 1.399 . S
C1858 C1857 1.399 . S
C1858 C1859 1.376 . S
C1859 H1846 0.930 . S
C1859 C1858 1.376 . S
C1859 C1860 1.388 . S
C1860 H1847 0.930 . S
C1860 C1859 1.388 . S
C1860 C1861 1.390 . S
C1861 C1860 1.390 . S
C1861 C1862 1.394 . S
C1861 C1867 1.465 . S
C1862 C1857 1.399 . S
C1862 C1861 1.394 . S
C1862 C1863 1.516 . S
C1863 C1862 1.516 . S
C1863 C1864 1.502 . S
C1863 C1865 1.561 . S
C1863 C1866 1.526 . S
C1864 H1848 0.959 . S
C1864 H1849 0.959 . S
C1864 H1850 0.961 . S
C1864 C1863 1.502 . S
C1865 H1851 0.960 . S
C1865 H1852 0.961 . S
C1865 H1853 0.959 . S
C1865 C1863 1.561 . S
C1866 C1863 1.526 . S
C1866 C1867 1.396 . S
C1866 C1871 1.390 . S
C1867 C1861 1.465 . S
C1867 C1866 1.396 . S
C1867 C1868 1.399 . S
C1868 H1854 0.929 . S
C1868 C1867 1.399 . S
C1868 C1869 1.385 . S
C1869 H1855 0.931 . S
C1869 C1868 1.385 . S
C1869 C1870 1.389 . S
C1870 C1869 1.389 . S
C1870 C1871 1.387 . S
C1871 H1856 0.930 . S
C1871 C1866 1.390 . S
C1871 C1870 1.387 . S
H1872 C1884 0.930 . S
H1873 C1886 0.930 . S
H1874 C1887 0.930 . S
H1875 C1891 0.959 . S
H1876 C1891 0.959 . S
H1877 C1891 0.961 . S
H1878 C1892 0.960 . S
H1879 C1892 0.961 . S
H1880 C1892 0.959 . S
H1881 C1895 0.929 . S
H1882 C1896 0.931 . S
H1883 C1898 0.930 . S
C1884 H1872 0.930 . S
C1884 C1885 1.399 . S
C1884 C1889 1.399 . S
C1885 C1884 1.399 . S
C1885 C1886 1.376 . S
C1886 H1873 0.930 . S
C1886 C1885 1.376 . S
C1886 C1887 1.388 . S
C1887 H1874 0.930 . S
C1887 C1886 1.388 . S
C1887 C1888 1.390 . S
C1888 C1887 1.390 . S
C1888 C1889 1.394 . S
C1888 C1894 1.465 . S
C1889 C1884 1.399 . S
C1889 C1888 1.394 . S
C1889 C1890 1.516 . S
C1890 C1889 1.516 . S
C1890 C1891 1.502 . S
C1890 C1892 1.561 . S
C1890 C1893 1.526 . S
C1891 H1875 0.959 . S
C1891 H1876 0.959 . S
C1891 H1877 0.961 . S
C1891 C1890 1.502 . S
C1892 H1878 0.960 . S
C1892 H1879 0.961 . S
C1892 H1880 0.959 . S
C1892 C1890 1.561 . S
C1893 C1890 1.526 . S
C1893 C1894 1.396 . S
C1893 C1898 1.390 . S
C1894 C1888 1.465 . S
C1894 C1893 1.396 . S
C1894 C1895 1.399 . S
C1895 H1881 0.929 . S
C1895 C1894 1.399 . S
C1895 C1896 1.385 . S
C1896 H1882 0.931 . S
C1896 C1895 1.385 . S
C1896 C1897 1.389 . S
C1897 C1896 1.389 . S
C1897 C1898 1.387 . S
C1898 H1883 0.930 . S
C1898 C1893 1.390 . S
C1898 C1897 1.387 . S
H1899 C1911 0.930 . S
H1900 C1913 0.930 . S
H1901 C1914 0.930 . S
H1902 C1918 0.959 . S
H1903 C1918 0.959 . S
H1904 C1918 0.961 . S
H1905 C1919 0.960 . S
H1906 C1919 0.961 . S
H1907 C1919 0.959 . S
H1908 C1922 0.929 . S
H1909 C1923 0.931 . S
H1910 C1925 0.930 . S
C1911 H1899 0.930 . S
C1911 C1912 1.399 . S
C1911 C1916 1.399 . S
C1912 C1911 1.399 . S
C1912 C1913 1.376 . S
C1913 H1900 0.930 . S
C1913 C1912 1.376 . S
C1913 C1914 1.388 . S
C1914 H1901 0.930 . S
C1914 C1913 1.388 . S
C1914 C1915 1.390 . S
C1915 C1914 1.390 . S
C1915 C1916 1.394 . S
C1915 C1921 1.465 . S
C1916 C1911 1.399 . S
C1916 C1915 1.394 . S
C1916 C1917 1.516 . S
C1917 C1916 1.516 . S
C1917 C1918 1.502 . S
C1917 C1919 1.561 . S
C1917 C1920 1.526 . S
C1918 H1902 0.959 . S
C1918 H1903 0.959 . S
C1918 H1904 0.961 . S
C1918 C1917 1.502 . S
C1919 H1905 0.960 . S
C1919 H1906 0.961 . S
C1919 H1907 0.959 . S
C1919 C1917 1.561 . S
C1920 C1917 1.526 . S
C1920 C1921 1.396 . S
C1920 C1925 1.390 . S
C1921 C1915 1.465 . S
C1921 C1920 1.396 . S
C1921 C1922 1.399 . S
C1922 H1908 0.929 . S
C1922 C1921 1.399 . S
C1922 C1923 1.385 . S
C1923 H1909 0.931 . S
C1923 C1922 1.385 . S
C1923 C1924 1.389 . S
C1924 C1923 1.389 . S
C1924 C1925 1.387 . S
C1925 H1910 0.930 . S
C1925 C1920 1.390 . S
C1925 C1924 1.387 . S
H1926 C1938 0.930 . S
H1927 C1940 0.930 . S
H1928 C1941 0.930 . S
H1929 C1945 0.959 . S
H1930 C1945 0.959 . S
H1931 C1945 0.961 . S
H1932 C1946 0.960 . S
H1933 C1946 0.961 . S
H1934 C1946 0.959 . S
H1935 C1949 0.929 . S
H1936 C1950 0.931 . S
H1937 C1952 0.930 . S
C1938 H1926 0.930 . S
C1938 C1939 1.399 . S
C1938 C1943 1.399 . S
C1939 C1938 1.399 . S
C1939 C1940 1.376 . S
C1940 H1927 0.930 . S
C1940 C1939 1.376 . S
C1940 C1941 1.388 . S
C1941 H1928 0.930 . S
C1941 C1940 1.388 . S
C1941 C1942 1.390 . S
C1942 C1941 1.390 . S
C1942 C1943 1.394 . S
C1942 C1948 1.465 . S
C1943 C1938 1.399 . S
C1943 C1942 1.394 . S
C1943 C1944 1.516 . S
C1944 C1943 1.516 . S
C1944 C1945 1.502 . S
C1944 C1946 1.561 . S
C1944 C1947 1.526 . S
C1945 H1929 0.959 . S
C1945 H1930 0.959 . S
C1945 H1931 0.961 . S
C1945 C1944 1.502 . S
C1946 H1932 0.960 . S
C1946 H1933 0.961 . S
C1946 H1934 0.959 . S
C1946 C1944 1.561 . S
C1947 C1944 1.526 . S
C1947 C1948 1.396 . S
C1947 C1952 1.390 . S
C1948 C1942 1.465 . S
C1948 C1947 1.396 . S
C1948 C1949 1.399 . S
C1949 H1935 0.929 . S
C1949 C1948 1.399 . S
C1949 C1950 1.385 . S
C1950 H1936 0.931 . S
C1950 C1949 1.385 . S
C1950 C1951 1.389 . S
C1951 C1950 1.389 . S
C1951 C1952 1.387 . S
C1952 H1937 0.930 . S
C1952 C1947 1.390 . S
C1952 C1951 1.387 . S
H1953 C1965 0.930 . S
H1954 C1967 0.930 . S
H1955 C1968 0.930 . S
H1956 C1972 0.959 . S
H1957 C1972 0.959 . S
H1958 C1972 0.961 . S
H1959 C1973 0.960 . S
H1960 C1973 0.961 . S
H1961 C1973 0.959 . S
H1962 C1976 0.929 . S
H1963 C1977 0.931 . S
H1964 C1979 0.930 . S
C1965 H1953 0.930 . S
C1965 C1966 1.399 . S
C1965 C1970 1.399 . S
C1966 C1965 1.399 . S
C1966 C1967 1.376 . S
C1967 H1954 0.930 . S
C1967 C1966 1.376 . S
C1967 C1968 1.388 . S
C1968 H1955 0.930 . S
C1968 C1967 1.388 . S
C1968 C1969 1.390 . S
C1969 C1968 1.390 . S
C1969 C1970 1.394 . S
C1969 C1975 1.465 . S
C1970 C1965 1.399 . S
C1970 C1969 1.394 . S
C1970 C1971 1.516 . S
C1971 C1970 1.516 . S
C1971 C1972 1.502 . S
C1971 C1973 1.561 . S
C1971 C1974 1.526 . S
C1972 H1956 0.959 . S
C1972 H1957 0.959 . S
C1972 H1958 0.961 . S
C1972 C1971 1.502 . S
C1973 H1959 0.960 . S
C1973 H1960 0.961 . S
C1973 H1961 0.959 . S
C1973 C1971 1.561 . S
C1974 C1971 1.526 . S
C1974 C1975 1.396 . S
C1974 C1979 1.390 . S
C1975 C1969 1.465 . S
C1975 C1974 1.396 . S
C1975 C1976 1.399 . S
C1976 H1962 0.929 . S
C1976 C1975 1.399 . S
C1976 C1977 1.385 . S
C1977 H1963 0.931 . S
C1977 C1976 1.385 . S
C1977 C1978 1.389 . S
C1978 C1977 1.389 . S
C1978 C1979 1.387 . S
C1979 H1964 0.930 . S
C1979 C1974 1.390 . S
C1979 C1978 1.387 . S
H1980 C1992 0.930 . S
H1981 C1994 0.930 . S
H1982 C1995 0.930 . S
H1983 C1999 0.959 . S
H1984 C1999 0.959 . S
H1985 C1999 0.961 . S
H1986 C2000 0.960 . S
H1987 C2000 0.961 . S
H1988 C2000 0.959 . S
H1989 C2003 0.929 . S
H1990 C2004 0.931 . S
H1991 C2006 0.930 . S
C1992 H1980 0.930 . S
C1992 C1993 1.399 . S
C1992 C1997 1.399 . S
C1993 C1992 1.399 . S
C1993 C1994 1.376 . S
C1994 H1981 0.930 . S
C1994 C1993 1.376 . S
C1994 C1995 1.388 . S
C1995 H1982 0.930 . S
C1995 C1994 1.388 . S
C1995 C1996 1.390 . S
C1996 C1995 1.390 . S
C1996 C1997 1.394 . S
C1996 C2002 1.465 . S
C1997 C1992 1.399 . S
C1997 C1996 1.394 . S
C1997 C1998 1.516 . S
C1998 C1997 1.516 . S
C1998 C1999 1.502 . S
C1998 C2000 1.561 . S
C1998 C2001 1.526 . S
C1999 H1983 0.959 . S
C1999 H1984 0.959 . S
C1999 H1985 0.961 . S
C1999 C1998 1.502 . S
C2000 H1986 0.960 . S
C2000 H1987 0.961 . S
C2000 H1988 0.959 . S
C2000 C1998 1.561 . S
C2001 C1998 1.526 . S
C2001 C2002 1.396 . S
C2001 C2006 1.390 . S
C2002 C1996 1.465 . S
C2002 C2001 1.396 . S
C2002 C2003 1.399 . S
C2003 H1989 0.929 . S
C2003 C2002 1.399 . S
C2003 C2004 1.385 . S
C2004 H1990 0.931 . S
C2004 C2003 1.385 . S
C2004 C2005 1.389 . S
C2005 C2004 1.389 . S
C2005 C2006 1.387 . S
C2006 H1991 0.930 . S
C2006 C2001 1.390 . S
C2006 C2005 1.387 . S
H2007 C2019 0.930 . S
H2008 C2021 0.930 . S
H2009 C2022 0.930 . S
H2010 C2026 0.959 . S
H2011 C2026 0.959 . S
H2012 C2026 0.961 . S
H2013 C2027 0.960 . S
H2014 C2027 0.961 . S
H2015 C2027 0.959 . S
H2016 C2030 0.929 . S
H2017 C2031 0.931 . S
H2018 C2033 0.930 . S
C2019 H2007 0.930 . S
C2019 C2020 1.399 . S
C2019 C2024 1.399 . S
C2020 C2019 1.399 . S
C2020 C2021 1.376 . S
C2021 H2008 0.930 . S
C2021 C2020 1.376 . S
C2021 C2022 1.388 . S
C2022 H2009 0.930 . S
C2022 C2021 1.388 . S
C2022 C2023 1.390 . S
C2023 C2022 1.390 . S
C2023 C2024 1.394 . S
C2023 C2029 1.465 . S
C2024 C2019 1.399 . S
C2024 C2023 1.394 . S
C2024 C2025 1.516 . S
C2025 C2024 1.516 . S
C2025 C2026 1.502 . S
C2025 C2027 1.561 . S
C2025 C2028 1.526 . S
C2026 H2010 0.959 . S
C2026 H2011 0.959 . S
C2026 H2012 0.961 . S
C2026 C2025 1.502 . S
C2027 H2013 0.960 . S
C2027 H2014 0.961 . S
C2027 H2015 0.959 . S
C2027 C2025 1.561 . S
C2028 C2025 1.526 . S
C2028 C2029 1.396 . S
C2028 C2033 1.390 . S
C2029 C2023 1.465 . S
C2029 C2028 1.396 . S
C2029 C2030 1.399 . S
C2030 H2016 0.929 . S
C2030 C2029 1.399 . S
C2030 C2031 1.385 . S
C2031 H2017 0.931 . S
C2031 C2030 1.385 . S
C2031 C2032 1.389 . S
C2032 C2031 1.389 . S
C2032 C2033 1.387 . S
C2033 H2018 0.930 . S
C2033 C2028 1.390 . S
C2033 C2032 1.387 . S
H2034 C2046 0.930 . S
H2035 C2048 0.930 . S
H2036 C2049 0.930 . S
H2037 C2053 0.959 . S
H2038 C2053 0.959 . S
H2039 C2053 0.961 . S
H2040 C2054 0.960 . S
H2041 C2054 0.961 . S
H2042 C2054 0.959 . S
H2043 C2057 0.929 . S
H2044 C2058 0.931 . S
H2045 C2060 0.930 . S
C2046 H2034 0.930 . S
C2046 C2047 1.399 . S
C2046 C2051 1.399 . S
C2047 C2046 1.399 . S
C2047 C2048 1.376 . S
C2048 H2035 0.930 . S
C2048 C2047 1.376 . S
C2048 C2049 1.388 . S
C2049 H2036 0.930 . S
C2049 C2048 1.388 . S
C2049 C2050 1.390 . S
C2050 C2049 1.390 . S
C2050 C2051 1.394 . S
C2050 C2056 1.465 . S
C2051 C2046 1.399 . S
C2051 C2050 1.394 . S
C2051 C2052 1.516 . S
C2052 C2051 1.516 . S
C2052 C2053 1.502 . S
C2052 C2054 1.561 . S
C2052 C2055 1.526 . S
C2053 H2037 0.959 . S
C2053 H2038 0.959 . S
C2053 H2039 0.961 . S
C2053 C2052 1.502 . S
C2054 H2040 0.960 . S
C2054 H2041 0.961 . S
C2054 H2042 0.959 . S
C2054 C2052 1.561 . S
C2055 C2052 1.526 . S
C2055 C2056 1.396 . S
C2055 C2060 1.390 . S
C2056 C2050 1.465 . S
C2056 C2055 1.396 . S
C2056 C2057 1.399 . S
C2057 H2043 0.929 . S
C2057 C2056 1.399 . S
C2057 C2058 1.385 . S
C2058 H2044 0.931 . S
C2058 C2057 1.385 . S
C2058 C2059 1.389 . S
C2059 C2058 1.389 . S
C2059 C2060 1.387 . S
C2060 H2045 0.930 . S
C2060 C2055 1.390 . S
C2060 C2059 1.387 . S
H2061 C2073 0.930 . S
H2062 C2075 0.930 . S
H2063 C2076 0.930 . S
H2064 C2080 0.959 . S
H2065 C2080 0.959 . S
H2066 C2080 0.961 . S
H2067 C2081 0.960 . S
H2068 C2081 0.961 . S
H2069 C2081 0.959 . S
H2070 C2084 0.929 . S
H2071 C2085 0.931 . S
H2072 C2087 0.930 . S
C2073 H2061 0.930 . S
C2073 C2074 1.399 . S
C2073 C2078 1.399 . S
C2074 C2073 1.399 . S
C2074 C2075 1.376 . S
C2075 H2062 0.930 . S
C2075 C2074 1.376 . S
C2075 C2076 1.388 . S
C2076 H2063 0.930 . S
C2076 C2075 1.388 . S
C2076 C2077 1.390 . S
C2077 C2076 1.390 . S
C2077 C2078 1.394 . S
C2077 C2083 1.465 . S
C2078 C2073 1.399 . S
C2078 C2077 1.394 . S
C2078 C2079 1.516 . S
C2079 C2078 1.516 . S
C2079 C2080 1.502 . S
C2079 C2081 1.561 . S
C2079 C2082 1.526 . S
C2080 H2064 0.959 . S
C2080 H2065 0.959 . S
C2080 H2066 0.961 . S
C2080 C2079 1.502 . S
C2081 H2067 0.960 . S
C2081 H2068 0.961 . S
C2081 H2069 0.959 . S
C2081 C2079 1.561 . S
C2082 C2079 1.526 . S
C2082 C2083 1.396 . S
C2082 C2087 1.390 . S
C2083 C2077 1.465 . S
C2083 C2082 1.396 . S
C2083 C2084 1.399 . S
C2084 H2070 0.929 . S
C2084 C2083 1.399 . S
C2084 C2085 1.385 . S
C2085 H2071 0.931 . S
C2085 C2084 1.385 . S
C2085 C2086 1.389 . S
C2086 C2085 1.389 . S
C2086 C2087 1.387 . S
C2087 H2072 0.930 . S
C2087 C2082 1.390 . S
C2087 C2086 1.387 . S
H2088 C2100 0.930 . S
H2089 C2102 0.930 . S
H2090 C2103 0.930 . S
H2091 C2107 0.959 . S
H2092 C2107 0.959 . S
H2093 C2107 0.961 . S
H2094 C2108 0.960 . S
H2095 C2108 0.961 . S
H2096 C2108 0.959 . S
H2097 C2111 0.929 . S
H2098 C2112 0.931 . S
H2099 C2114 0.930 . S
C2100 H2088 0.930 . S
C2100 C2101 1.399 . S
C2100 C2105 1.399 . S
C2101 C2100 1.399 . S
C2101 C2102 1.376 . S
C2102 H2089 0.930 . S
C2102 C2101 1.376 . S
C2102 C2103 1.388 . S
C2103 H2090 0.930 . S
C2103 C2102 1.388 . S
C2103 C2104 1.390 . S
C2104 C2103 1.390 . S
C2104 C2105 1.394 . S
C2104 C2110 1.465 . S
C2105 C2100 1.399 . S
C2105 C2104 1.394 . S
C2105 C2106 1.516 . S
C2106 C2105 1.516 . S
C2106 C2107 1.502 . S
C2106 C2108 1.561 . S
C2106 C2109 1.526 . S
C2107 H2091 0.959 . S
C2107 H2092 0.959 . S
C2107 H2093 0.961 . S
C2107 C2106 1.502 . S
C2108 H2094 0.960 . S
C2108 H2095 0.961 . S
C2108 H2096 0.959 . S
C2108 C2106 1.561 . S
C2109 C2106 1.526 . S
C2109 C2110 1.396 . S
C2109 C2114 1.390 . S
C2110 C2104 1.465 . S
C2110 C2109 1.396 . S
C2110 C2111 1.399 . S
C2111 H2097 0.929 . S
C2111 C2110 1.399 . S
C2111 C2112 1.385 . S
C2112 H2098 0.931 . S
C2112 C2111 1.385 . S
C2112 C2113 1.389 . S
C2113 C2112 1.389 . S
C2113 C2114 1.387 . S
C2114 H2099 0.930 . S
C2114 C2109 1.390 . S
C2114 C2113 1.387 . S
H2115 C2127 0.930 . S
H2116 C2129 0.930 . S
H2117 C2130 0.930 . S
H2118 C2134 0.959 . S
H2119 C2134 0.959 . S
H2120 C2134 0.961 . S
H2121 C2135 0.960 . S
H2122 C2135 0.961 . S
H2123 C2135 0.959 . S
H2124 C2138 0.929 . S
H2125 C2139 0.931 . S
H2126 C2141 0.930 . S
C2127 H2115 0.930 . S
C2127 C2128 1.399 . S
C2127 C2132 1.399 . S
C2128 C2127 1.399 . S
C2128 C2129 1.376 . S
C2129 H2116 0.930 . S
C2129 C2128 1.376 . S
C2129 C2130 1.388 . S
C2130 H2117 0.930 . S
C2130 C2129 1.388 . S
C2130 C2131 1.390 . S
C2131 C2130 1.390 . S
C2131 C2132 1.394 . S
C2131 C2137 1.465 . S
C2132 C2127 1.399 . S
C2132 C2131 1.394 . S
C2132 C2133 1.516 . S
C2133 C2132 1.516 . S
C2133 C2134 1.502 . S
C2133 C2135 1.561 . S
C2133 C2136 1.526 . S
C2134 H2118 0.959 . S
C2134 H2119 0.959 . S
C2134 H2120 0.961 . S
C2134 C2133 1.502 . S
C2135 H2121 0.960 . S
C2135 H2122 0.961 . S
C2135 H2123 0.959 . S
C2135 C2133 1.561 . S
C2136 C2133 1.526 . S
C2136 C2137 1.396 . S
C2136 C2141 1.390 . S
C2137 C2131 1.465 . S
C2137 C2136 1.396 . S
C2137 C2138 1.399 . S
C2138 H2124 0.929 . S
C2138 C2137 1.399 . S
C2138 C2139 1.385 . S
C2139 H2125 0.931 . S
C2139 C2138 1.385 . S
C2139 C2140 1.389 . S
C2140 C2139 1.389 . S
C2140 C2141 1.387 . S
C2141 H2126 0.930 . S
C2141 C2136 1.390 . S
C2141 C2140 1.387 . S
H2142 C2154 0.930 . S
H2143 C2156 0.930 . S
H2144 C2157 0.930 . S
H2145 C2161 0.959 . S
H2146 C2161 0.959 . S
H2147 C2161 0.961 . S
H2148 C2162 0.960 . S
H2149 C2162 0.961 . S
H2150 C2162 0.959 . S
H2151 C2165 0.929 . S
H2152 C2166 0.931 . S
H2153 C2168 0.930 . S
C2154 H2142 0.930 . S
C2154 C2155 1.399 . S
C2154 C2159 1.399 . S
C2155 C2154 1.399 . S
C2155 C2156 1.376 . S
C2156 H2143 0.930 . S
C2156 C2155 1.376 . S
C2156 C2157 1.388 . S
C2157 H2144 0.930 . S
C2157 C2156 1.388 . S
C2157 C2158 1.390 . S
C2158 C2157 1.390 . S
C2158 C2159 1.394 . S
C2158 C2164 1.465 . S
C2159 C2154 1.399 . S
C2159 C2158 1.394 . S
C2159 C2160 1.516 . S
C2160 C2159 1.516 . S
C2160 C2161 1.502 . S
C2160 C2162 1.561 . S
C2160 C2163 1.526 . S
C2161 H2145 0.959 . S
C2161 H2146 0.959 . S
C2161 H2147 0.961 . S
C2161 C2160 1.502 . S
C2162 H2148 0.960 . S
C2162 H2149 0.961 . S
C2162 H2150 0.959 . S
C2162 C2160 1.561 . S
C2163 C2160 1.526 . S
C2163 C2164 1.396 . S
C2163 C2168 1.390 . S
C2164 C2158 1.465 . S
C2164 C2163 1.396 . S
C2164 C2165 1.399 . S
C2165 H2151 0.929 . S
C2165 C2164 1.399 . S
C2165 C2166 1.385 . S
C2166 H2152 0.931 . S
C2166 C2165 1.385 . S
C2166 C2167 1.389 . S
C2167 C2166 1.389 . S
C2167 C2168 1.387 . S
C2168 H2153 0.930 . S
C2168 C2163 1.390 . S
C2168 C2167 1.387 . S
H2169 C2181 0.930 . S
H2170 C2183 0.930 . S
H2171 C2184 0.930 . S
H2172 C2188 0.959 . S
H2173 C2188 0.959 . S
H2174 C2188 0.961 1_554 S
H2175 C2189 0.960 . S
H2176 C2189 0.961 . S
H2177 C2189 0.959 . S
H2178 C2192 0.929 . S
H2179 C2193 0.931 . S
H2180 C2195 0.930 . S
C2181 H2169 0.930 . S
C2181 C2182 1.399 . S
C2181 C2186 1.399 . S
C2182 C2181 1.399 . S
C2182 C2183 1.376 . S
C2183 H2170 0.930 . S
C2183 C2182 1.376 . S
C2183 C2184 1.388 . S
C2184 H2171 0.930 . S
C2184 C2183 1.388 . S
C2184 C2185 1.390 . S
C2185 C2184 1.390 . S
C2185 C2186 1.394 . S
C2185 C2191 1.465 . S
C2186 C2181 1.399 . S
C2186 C2185 1.394 . S
C2186 C2187 1.516 . S
C2187 C2186 1.516 . S
C2187 C2188 1.502 . S
C2187 C2189 1.561 . S
C2187 C2190 1.526 . S
C2188 H2172 0.959 . S
C2188 H2173 0.959 . S
C2188 H2174 0.961 1_556 S
C2188 C2187 1.502 . S
C2189 H2175 0.960 . S
C2189 H2176 0.961 . S
C2189 H2177 0.959 . S
C2189 C2187 1.561 . S
C2190 C2187 1.526 . S
C2190 C2191 1.396 . S
C2190 C2195 1.390 . S
C2191 C2185 1.465 . S
C2191 C2190 1.396 . S
C2191 C2192 1.399 . S
C2192 H2178 0.929 . S
C2192 C2191 1.399 . S
C2192 C2193 1.385 . S
C2193 H2179 0.931 . S
C2193 C2192 1.385 . S
C2193 C2194 1.389 . S
C2194 C2193 1.389 . S
C2194 C2195 1.387 . S
C2195 H2180 0.930 . S
C2195 C2190 1.390 . S
C2195 C2194 1.387 . S
H2196 C2208 0.930 . S
H2197 C2210 0.930 . S
H2198 C2211 0.930 . S
H2199 C2215 0.959 . S
H2200 C2215 0.959 . S
H2201 C2215 0.961 . S
H2202 C2216 0.960 1_554 S
H2203 C2216 0.961 . S
H2204 C2216 0.959 . S
H2205 C2219 0.929 . S
H2206 C2220 0.931 . S
H2207 C2222 0.930 . S
C2208 H2196 0.930 . S
C2208 C2209 1.399 . S
C2208 C2213 1.399 . S
C2209 C2208 1.399 . S
C2209 C2210 1.376 . S
C2210 H2197 0.930 . S
C2210 C2209 1.376 . S
C2210 C2211 1.388 . S
C2211 H2198 0.930 . S
C2211 C2210 1.388 . S
C2211 C2212 1.390 . S
C2212 C2211 1.390 . S
C2212 C2213 1.394 . S
C2212 C2218 1.465 . S
C2213 C2208 1.399 . S
C2213 C2212 1.394 . S
C2213 C2214 1.516 . S
C2214 C2213 1.516 . S
C2214 C2215 1.502 . S
C2214 C2216 1.561 . S
C2214 C2217 1.526 . S
C2215 H2199 0.959 . S
C2215 H2200 0.959 . S
C2215 H2201 0.961 . S
C2215 C2214 1.502 . S
C2216 H2202 0.960 1_556 S
C2216 H2203 0.961 . S
C2216 H2204 0.959 . S
C2216 C2214 1.561 . S
C2217 C2214 1.526 . S
C2217 C2218 1.396 . S
C2217 C2222 1.390 . S
C2218 C2212 1.465 . S
C2218 C2217 1.396 . S
C2218 C2219 1.399 . S
C2219 H2205 0.929 . S
C2219 C2218 1.399 . S
C2219 C2220 1.385 . S
C2220 H2206 0.931 . S
C2220 C2219 1.385 . S
C2220 C2221 1.389 . S
C2221 C2220 1.389 . S
C2221 C2222 1.387 . S
C2222 H2207 0.930 . S
C2222 C2217 1.390 . S
C2222 C2221 1.387 . S
H2223 C2235 0.930 . S
H2224 C2237 0.930 . S
H2225 C2238 0.930 . S
H2226 C2242 0.959 . S
H2227 C2242 0.959 . S
H2228 C2242 0.961 . S
H2229 C2243 0.960 . S
H2230 C2243 0.961 . S
H2231 C2243 0.959 . S
H2232 C2246 0.929 . S
H2233 C2247 0.931 . S
H2234 C2249 0.930 . S
C2235 H2223 0.930 . S
C2235 C2236 1.399 . S
C2235 C2240 1.399 . S
C2236 C2235 1.399 . S
C2236 C2237 1.376 . S
C2237 H2224 0.930 . S
C2237 C2236 1.376 . S
C2237 C2238 1.388 . S
C2238 H2225 0.930 . S
C2238 C2237 1.388 . S
C2238 C2239 1.390 . S
C2239 C2238 1.390 . S
C2239 C2240 1.394 . S
C2239 C2245 1.465 . S
C2240 C2235 1.399 . S
C2240 C2239 1.394 . S
C2240 C2241 1.516 . S
C2241 C2240 1.516 . S
C2241 C2242 1.502 . S
C2241 C2243 1.561 . S
C2241 C2244 1.526 . S
C2242 H2226 0.959 . S
C2242 H2227 0.959 . S
C2242 H2228 0.961 . S
C2242 C2241 1.502 . S
C2243 H2229 0.960 . S
C2243 H2230 0.961 . S
C2243 H2231 0.959 . S
C2243 C2241 1.561 . S
C2244 C2241 1.526 . S
C2244 C2245 1.396 . S
C2244 C2249 1.390 . S
C2245 C2239 1.465 . S
C2245 C2244 1.396 . S
C2245 C2246 1.399 . S
C2246 H2232 0.929 . S
C2246 C2245 1.399 . S
C2246 C2247 1.385 . S
C2247 H2233 0.931 . S
C2247 C2246 1.385 . S
C2247 C2248 1.389 . S
C2248 C2247 1.389 . S
C2248 C2249 1.387 . S
C2249 H2234 0.930 . S
C2249 C2244 1.390 . S
C2249 C2248 1.387 . S
H2250 C2262 0.930 . S
H2251 C2264 0.930 1_554 S
H2252 C2265 0.930 . S
H2253 C2269 0.959 . S
H2254 C2269 0.959 . S
H2255 C2269 0.961 . S
H2256 C2270 0.960 . S
H2257 C2270 0.961 . S
H2258 C2270 0.959 . S
H2259 C2273 0.929 . S
H2260 C2274 0.931 . S
H2261 C2276 0.930 . S
C2262 H2250 0.930 . S
C2262 C2263 1.399 . S
C2262 C2267 1.399 . S
C2263 C2262 1.399 . S
C2263 C2264 1.376 . S
C2264 H2251 0.930 1_556 S
C2264 C2263 1.376 . S
C2264 C2265 1.388 . S
C2265 H2252 0.930 . S
C2265 C2264 1.388 . S
C2265 C2266 1.390 . S
C2266 C2265 1.390 . S
C2266 C2267 1.394 . S
C2266 C2272 1.465 . S
C2267 C2262 1.399 . S
C2267 C2266 1.394 . S
C2267 C2268 1.516 . S
C2268 C2267 1.516 . S
C2268 C2269 1.502 . S
C2268 C2270 1.561 . S
C2268 C2271 1.526 . S
C2269 H2253 0.959 . S
C2269 H2254 0.959 . S
C2269 H2255 0.961 . S
C2269 C2268 1.502 . S
C2270 H2256 0.960 . S
C2270 H2257 0.961 . S
C2270 H2258 0.959 . S
C2270 C2268 1.561 . S
C2271 C2268 1.526 . S
C2271 C2272 1.396 . S
C2271 C2276 1.390 . S
C2272 C2266 1.465 . S
C2272 C2271 1.396 . S
C2272 C2273 1.399 . S
C2273 H2259 0.929 . S
C2273 C2272 1.399 . S
C2273 C2274 1.385 . S
C2274 H2260 0.931 . S
C2274 C2273 1.385 . S
C2274 C2275 1.389 . S
C2275 C2274 1.389 . S
C2275 C2276 1.387 . S
C2276 H2261 0.930 . S
C2276 C2271 1.390 . S
C2276 C2275 1.387 . S
H2277 C2289 0.946 . S
H2278 C2291 0.930 . S
H2279 C2292 0.930 . S
H2280 C2296 0.959 . S
H2281 C2296 0.959 . S
H2282 C2296 0.961 1_554 S
H2283 C2297 0.960 1_554 S
H2284 C2297 0.961 . S
H2285 C2297 0.959 . S
H2286 C2300 0.929 . S
H2287 C2301 0.931 . S
H2288 C2303 0.930 . S
C2289 H2277 0.946 . S
C2289 C2290 1.399 . S
C2289 C2294 1.399 . S
C2290 C2289 1.399 . S
C2290 C2291 1.376 . S
C2291 H2278 0.930 . S
C2291 C2290 1.376 . S
C2291 C2292 1.388 . S
C2292 H2279 0.930 . S
C2292 C2291 1.388 . S
C2292 C2293 1.390 . S
C2293 C2292 1.390 . S
C2293 C2294 1.394 . S
C2293 C2299 1.465 . S
C2294 C2289 1.399 . S
C2294 C2293 1.394 . S
C2294 C2295 1.516 . S
C2295 C2294 1.516 . S
C2295 C2296 1.502 . S
C2295 C2297 1.561 . S
C2295 C2298 1.526 . S
C2296 H2280 0.959 . S
C2296 H2281 0.959 . S
C2296 H2282 0.961 1_556 S
C2296 C2295 1.502 . S
C2297 H2283 0.960 1_556 S
C2297 H2284 0.961 . S
C2297 H2285 0.959 . S
C2297 C2295 1.561 . S
C2298 C2295 1.526 . S
C2298 C2299 1.396 . S
C2298 C2303 1.390 . S
C2299 C2293 1.465 . S
C2299 C2298 1.396 . S
C2299 C2300 1.399 . S
C2300 H2286 0.929 . S
C2300 C2299 1.399 . S
C2300 C2301 1.385 . S
C2301 H2287 0.931 . S
C2301 C2300 1.385 . S
C2301 C2302 1.389 . S
C2302 C2301 1.389 . S
C2302 C2303 1.387 . S
C2303 H2288 0.930 . S
C2303 C2298 1.390 . S
C2303 C2302 1.387 . S
H2304 C2316 0.930 . S
H2305 C2318 0.930 1_554 S
H2306 C2319 0.930 . S
H2307 C2323 0.959 . S
H2308 C2323 0.959 . S
H2309 C2323 0.961 . S
H2310 C2324 0.960 . S
H2311 C2324 0.961 . S
H2312 C2324 0.959 . S
H2313 C2327 0.929 . S
H2314 C2328 0.931 . S
H2315 C2330 0.930 . S
C2316 H2304 0.930 . S
C2316 C2317 1.399 . S
C2316 C2321 1.399 . S
C2317 C2316 1.399 . S
C2317 C2318 1.376 . S
C2318 H2305 0.930 1_556 S
C2318 C2317 1.376 . S
C2318 C2319 1.388 . S
C2319 H2306 0.930 . S
C2319 C2318 1.388 . S
C2319 C2320 1.390 . S
C2320 C2319 1.390 . S
C2320 C2321 1.394 . S
C2320 C2326 1.465 . S
C2321 C2316 1.399 . S
C2321 C2320 1.394 . S
C2321 C2322 1.516 . S
C2322 C2321 1.516 . S
C2322 C2323 1.502 . S
C2322 C2324 1.561 . S
C2322 C2325 1.526 . S
C2323 H2307 0.959 . S
C2323 H2308 0.959 . S
C2323 H2309 0.961 . S
C2323 C2322 1.502 . S
C2324 H2310 0.960 . S
C2324 H2311 0.961 . S
C2324 H2312 0.959 . S
C2324 C2322 1.561 . S
C2325 C2322 1.526 . S
C2325 C2326 1.396 . S
C2325 C2330 1.390 . S
C2326 C2320 1.465 . S
C2326 C2325 1.396 . S
C2326 C2327 1.399 . S
C2327 H2313 0.929 . S
C2327 C2326 1.399 . S
C2327 C2328 1.385 . S
C2328 H2314 0.931 . S
C2328 C2327 1.385 . S
C2328 C2329 1.389 . S
C2329 C2328 1.389 . S
C2329 C2330 1.387 . S
C2330 H2315 0.930 . S
C2330 C2325 1.390 . S
C2330 C2329 1.387 . S
H2331 C2343 0.930 . S
H2332 C2345 0.930 . S
H2333 C2346 0.930 . S
H2334 C2350 0.959 . S
H2335 C2350 0.959 . S
H2336 C2350 0.961 . S
H2337 C2351 0.960 . S
H2338 C2351 0.961 . S
H2339 C2351 0.959 . S
H2340 C2354 0.929 . S
H2341 C2355 0.931 . S
H2342 C2357 0.930 . S
C2343 H2331 0.930 . S
C2343 C2344 1.399 . S
C2343 C2348 1.399 . S
C2344 C2343 1.399 . S
C2344 C2345 1.376 . S
C2345 H2332 0.930 . S
C2345 C2344 1.376 . S
C2345 C2346 1.388 . S
C2346 H2333 0.930 . S
C2346 C2345 1.388 . S
C2346 C2347 1.390 . S
C2347 C2346 1.390 . S
C2347 C2348 1.394 . S
C2347 C2353 1.465 . S
C2348 C2343 1.399 . S
C2348 C2347 1.394 . S
C2348 C2349 1.516 . S
C2349 C2348 1.516 . S
C2349 C2350 1.502 . S
C2349 C2351 1.561 . S
C2349 C2352 1.526 . S
C2350 H2334 0.959 . S
C2350 H2335 0.959 . S
C2350 H2336 0.961 . S
C2350 C2349 1.502 . S
C2351 H2337 0.960 . S
C2351 H2338 0.961 . S
C2351 H2339 0.959 . S
C2351 C2349 1.561 . S
C2352 C2349 1.526 . S
C2352 C2353 1.396 . S
C2352 C2357 1.390 . S
C2353 C2347 1.465 . S
C2353 C2352 1.396 . S
C2353 C2354 1.399 . S
C2354 H2340 0.929 . S
C2354 C2353 1.399 . S
C2354 C2355 1.385 . S
C2355 H2341 0.931 . S
C2355 C2354 1.385 . S
C2355 C2356 1.389 . S
C2356 C2355 1.389 . S
C2356 C2357 1.387 . S
C2357 H2342 0.930 . S
C2357 C2352 1.390 . S
C2357 C2356 1.387 . S
H2358 C2370 0.930 . S
H2359 C2372 0.930 . S
H2360 C2373 0.930 . S
H2361 C2377 0.959 . S
H2362 C2377 0.959 . S
H2363 C2377 0.961 . S
H2364 C2378 0.960 . S
H2365 C2378 0.961 . S
H2366 C2378 0.959 . S
H2367 C2381 0.929 . S
H2368 C2382 0.931 . S
H2369 C2384 0.930 . S
C2370 H2358 0.930 . S
C2370 C2371 1.399 . S
C2370 C2375 1.399 . S
C2371 C2370 1.399 . S
C2371 C2372 1.376 . S
C2372 H2359 0.930 . S
C2372 C2371 1.376 . S
C2372 C2373 1.388 . S
C2373 H2360 0.930 . S
C2373 C2372 1.388 . S
C2373 C2374 1.390 . S
C2374 C2373 1.390 . S
C2374 C2375 1.394 . S
C2374 C2380 1.465 . S
C2375 C2370 1.399 . S
C2375 C2374 1.394 . S
C2375 C2376 1.516 . S
C2376 C2375 1.516 . S
C2376 C2377 1.502 . S
C2376 C2378 1.561 . S
C2376 C2379 1.526 . S
C2377 H2361 0.959 . S
C2377 H2362 0.959 . S
C2377 H2363 0.961 . S
C2377 C2376 1.502 . S
C2378 H2364 0.960 . S
C2378 H2365 0.961 . S
C2378 H2366 0.959 . S
C2378 C2376 1.561 . S
C2379 C2376 1.526 . S
C2379 C2380 1.396 . S
C2379 C2384 1.390 . S
C2380 C2374 1.465 . S
C2380 C2379 1.396 . S
C2380 C2381 1.399 . S
C2381 H2367 0.929 . S
C2381 C2380 1.399 . S
C2381 C2382 1.385 . S
C2382 H2368 0.931 . S
C2382 C2381 1.385 . S
C2382 C2383 1.389 . S
C2383 C2382 1.389 . S
C2383 C2384 1.387 . S
C2384 H2369 0.930 . S
C2384 C2379 1.390 . S
C2384 C2383 1.387 . S
H2385 C2397 0.930 . S
H2386 C2399 0.930 . S
H2387 C2400 0.930 . S
H2388 C2404 0.959 . S
H2389 C2404 0.959 . S
H2390 C2404 0.961 . S
H2391 C2405 0.960 . S
H2392 C2405 0.961 . S
H2393 C2405 0.959 . S
H2394 C2408 0.929 . S
H2395 C2409 0.931 . S
H2396 C2411 0.930 . S
C2397 H2385 0.930 . S
C2397 C2398 1.399 . S
C2397 C2402 1.399 . S
C2398 C2397 1.399 . S
C2398 C2399 1.376 . S
C2399 H2386 0.930 . S
C2399 C2398 1.376 . S
C2399 C2400 1.388 . S
C2400 H2387 0.930 . S
C2400 C2399 1.388 . S
C2400 C2401 1.390 . S
C2401 C2400 1.390 . S
C2401 C2402 1.394 . S
C2401 C2407 1.465 . S
C2402 C2397 1.399 . S
C2402 C2401 1.394 . S
C2402 C2403 1.516 . S
C2403 C2402 1.516 . S
C2403 C2404 1.502 . S
C2403 C2405 1.561 . S
C2403 C2406 1.526 . S
C2404 H2388 0.959 . S
C2404 H2389 0.959 . S
C2404 H2390 0.961 . S
C2404 C2403 1.502 . S
C2405 H2391 0.960 . S
C2405 H2392 0.961 . S
C2405 H2393 0.959 . S
C2405 C2403 1.561 . S
C2406 C2403 1.526 . S
C2406 C2407 1.396 . S
C2406 C2411 1.390 . S
C2407 C2401 1.465 . S
C2407 C2406 1.396 . S
C2407 C2408 1.399 . S
C2408 H2394 0.929 . S
C2408 C2407 1.399 . S
C2408 C2409 1.385 . S
C2409 H2395 0.931 . S
C2409 C2408 1.385 . S
C2409 C2410 1.389 . S
C2410 C2409 1.389 . S
C2410 C2411 1.387 . S
C2411 H2396 0.930 . S
C2411 C2406 1.390 . S
C2411 C2410 1.387 . S
H2412 C2424 0.930 . S
H2413 C2426 0.930 . S
H2414 C2427 0.930 . S
H2415 C2431 0.959 . S
H2416 C2431 0.959 . S
H2417 C2431 0.961 . S
H2418 C2432 0.960 . S
H2419 C2432 0.961 . S
H2420 C2432 0.959 . S
H2421 C2435 0.929 . S
H2422 C2436 0.931 . S
H2423 C2438 0.930 . S
C2424 H2412 0.930 . S
C2424 C2425 1.399 . S
C2424 C2429 1.399 . S
C2425 C2424 1.399 . S
C2425 C2426 1.376 . S
C2426 H2413 0.930 . S
C2426 C2425 1.376 . S
C2426 C2427 1.388 . S
C2427 H2414 0.930 . S
C2427 C2426 1.388 . S
C2427 C2428 1.390 . S
C2428 C2427 1.390 . S
C2428 C2429 1.394 . S
C2428 C2434 1.465 . S
C2429 C2424 1.399 . S
C2429 C2428 1.394 . S
C2429 C2430 1.516 . S
C2430 C2429 1.516 . S
C2430 C2431 1.502 . S
C2430 C2432 1.561 . S
C2430 C2433 1.526 . S
C2431 H2415 0.959 . S
C2431 H2416 0.959 . S
C2431 H2417 0.961 . S
C2431 C2430 1.502 . S
C2432 H2418 0.960 . S
C2432 H2419 0.961 . S
C2432 H2420 0.959 . S
C2432 C2430 1.561 . S
C2433 C2430 1.526 . S
C2433 C2434 1.396 . S
C2433 C2438 1.390 . S
C2434 C2428 1.465 . S
C2434 C2433 1.396 . S
C2434 C2435 1.399 . S
C2435 H2421 0.929 . S
C2435 C2434 1.399 . S
C2435 C2436 1.385 . S
C2436 H2422 0.931 . S
C2436 C2435 1.385 . S
C2436 C2437 1.389 . S
C2437 C2436 1.389 . S
C2437 C2438 1.387 . S
C2438 H2423 0.930 . S
C2438 C2433 1.390 . S
C2438 C2437 1.387 . S
H2439 C2451 0.930 . S
H2440 C2453 0.930 . S
H2441 C2454 0.930 . S
H2442 C2458 0.959 . S
H2443 C2458 0.959 . S
H2444 C2458 0.961 . S
H2445 C2459 0.960 . S
H2446 C2459 0.961 . S
H2447 C2459 0.959 . S
H2448 C2462 0.929 . S
H2449 C2463 0.931 . S
H2450 C2465 0.930 . S
C2451 H2439 0.930 . S
C2451 C2452 1.399 . S
C2451 C2456 1.399 . S
C2452 C2451 1.399 . S
C2452 C2453 1.376 . S
C2453 H2440 0.930 . S
C2453 C2452 1.376 . S
C2453 C2454 1.388 . S
C2454 H2441 0.930 . S
C2454 C2453 1.388 . S
C2454 C2455 1.390 . S
C2455 C2454 1.390 . S
C2455 C2456 1.394 . S
C2455 C2461 1.465 . S
C2456 C2451 1.399 . S
C2456 C2455 1.394 . S
C2456 C2457 1.516 . S
C2457 C2456 1.516 . S
C2457 C2458 1.502 . S
C2457 C2459 1.561 . S
C2457 C2460 1.526 . S
C2458 H2442 0.959 . S
C2458 H2443 0.959 . S
C2458 H2444 0.961 . S
C2458 C2457 1.502 . S
C2459 H2445 0.960 . S
C2459 H2446 0.961 . S
C2459 H2447 0.959 . S
C2459 C2457 1.561 . S
C2460 C2457 1.526 . S
C2460 C2461 1.396 . S
C2460 C2465 1.390 . S
C2461 C2455 1.465 . S
C2461 C2460 1.396 . S
C2461 C2462 1.399 . S
C2462 H2448 0.929 . S
C2462 C2461 1.399 . S
C2462 C2463 1.385 . S
C2463 H2449 0.931 . S
C2463 C2462 1.385 . S
C2463 C2464 1.389 . S
C2464 C2463 1.389 . S
C2464 C2465 1.387 . S
C2465 H2450 0.930 . S
C2465 C2460 1.390 . S
C2465 C2464 1.387 . S
H2466 C2478 0.930 . S
H2467 C2480 0.930 . S
H2468 C2481 0.930 . S
H2469 C2485 0.959 . S
H2470 C2485 0.959 . S
H2471 C2485 0.961 . S
H2472 C2486 0.960 . S
H2473 C2486 0.961 . S
H2474 C2486 0.959 . S
H2475 C2489 0.929 . S
H2476 C2490 0.931 . S
H2477 C2492 0.930 . S
C2478 H2466 0.930 . S
C2478 C2479 1.399 . S
C2478 C2483 1.399 . S
C2479 C2478 1.399 . S
C2479 C2480 1.376 . S
C2480 H2467 0.930 . S
C2480 C2479 1.376 . S
C2480 C2481 1.388 . S
C2481 H2468 0.930 . S
C2481 C2480 1.388 . S
C2481 C2482 1.390 . S
C2482 C2481 1.390 . S
C2482 C2483 1.394 . S
C2482 C2488 1.465 . S
C2483 C2478 1.399 . S
C2483 C2482 1.394 . S
C2483 C2484 1.516 . S
C2484 C2483 1.516 . S
C2484 C2485 1.502 . S
C2484 C2486 1.561 . S
C2484 C2487 1.526 . S
C2485 H2469 0.959 . S
C2485 H2470 0.959 . S
C2485 H2471 0.961 . S
C2485 C2484 1.502 . S
C2486 H2472 0.960 . S
C2486 H2473 0.961 . S
C2486 H2474 0.959 . S
C2486 C2484 1.561 . S
C2487 C2484 1.526 . S
C2487 C2488 1.396 . S
C2487 C2492 1.390 . S
C2488 C2482 1.465 . S
C2488 C2487 1.396 . S
C2488 C2489 1.399 . S
C2489 H2475 0.929 . S
C2489 C2488 1.399 . S
C2489 C2490 1.385 . S
C2490 H2476 0.931 . S
C2490 C2489 1.385 . S
C2490 C2491 1.389 . S
C2491 C2490 1.389 . S
C2491 C2492 1.387 . S
C2492 H2477 0.930 . S
C2492 C2487 1.390 . S
C2492 C2491 1.387 . S
H2493 C2505 0.931 1_655 S
H2494 C2507 0.930 . S
H2495 C2508 0.930 . S
H2496 C2512 0.959 . S
H2497 C2512 0.959 1_655 S
H2498 C2512 0.963 . S
H2499 C2513 0.960 . S
H2500 C2513 0.961 . S
H2501 C2513 0.959 . S
H2502 C2516 0.929 . S
H2503 C2517 0.931 . S
H2504 C2519 0.953 . S
C2505 H2493 0.931 1_455 S
C2505 C2506 1.399 . S
C2505 C2510 1.399 . S
C2506 C2505 1.399 . S
C2506 C2507 1.376 . S
C2507 H2494 0.930 . S
C2507 C2506 1.376 . S
C2507 C2508 1.388 . S
C2508 H2495 0.930 . S
C2508 C2507 1.388 . S
C2508 C2509 1.390 . S
C2509 C2508 1.390 . S
C2509 C2510 1.394 . S
C2509 C2515 1.465 . S
C2510 C2505 1.399 . S
C2510 C2509 1.394 . S
C2510 C2511 1.516 1_455 S
C2511 C2510 1.516 1_655 S
C2511 C2512 1.502 1_655 S
C2511 C2513 1.561 . S
C2511 C2514 1.526 1_655 S
C2512 H2496 0.959 . S
C2512 H2497 0.959 1_455 S
C2512 H2498 0.963 . S
C2512 C2511 1.502 1_455 S
C2513 H2499 0.960 . S
C2513 H2500 0.961 . S
C2513 H2501 0.959 . S
C2513 C2511 1.561 . S
C2514 C2511 1.526 1_455 S
C2514 C2515 1.396 . S
C2514 C2519 1.357 1_455 S
C2515 C2509 1.465 . S
C2515 C2514 1.396 . S
C2515 C2516 1.399 . S
C2516 H2502 0.929 . S
C2516 C2515 1.399 . S
C2516 C2517 1.385 . S
C2517 H2503 0.931 . S
C2517 C2516 1.385 . S
C2517 C2518 1.389 . S
C2518 C2517 1.389 . S
C2518 C2519 1.401 1_455 S
C2519 H2504 0.953 . S
C2519 C2514 1.357 1_655 S
C2519 C2518 1.401 1_655 S
H2520 C2532 0.930 . S
H2521 C2534 0.930 . S
H2522 C2535 0.930 . S
H2523 C2539 0.959 . S
H2524 C2539 0.959 . S
H2525 C2539 0.961 . S
H2526 C2540 0.960 . S
H2527 C2540 0.961 . S
H2528 C2540 0.959 . S
H2529 C2543 0.929 . S
H2530 C2544 0.931 . S
H2531 C2546 0.930 . S
C2532 H2520 0.930 . S
C2532 C2533 1.399 . S
C2532 C2537 1.399 . S
C2533 C2532 1.399 . S
C2533 C2534 1.376 . S
C2534 H2521 0.930 . S
C2534 C2533 1.376 . S
C2534 C2535 1.388 . S
C2535 H2522 0.930 . S
C2535 C2534 1.388 . S
C2535 C2536 1.390 . S
C2536 C2535 1.390 . S
C2536 C2537 1.394 . S
C2536 C2542 1.465 . S
C2537 C2532 1.399 . S
C2537 C2536 1.394 . S
C2537 C2538 1.516 . S
C2538 C2537 1.516 . S
C2538 C2539 1.502 . S
C2538 C2540 1.561 . S
C2538 C2541 1.526 . S
C2539 H2523 0.959 . S
C2539 H2524 0.959 . S
C2539 H2525 0.961 . S
C2539 C2538 1.502 . S
C2540 H2526 0.960 . S
C2540 H2527 0.961 . S
C2540 H2528 0.959 . S
C2540 C2538 1.561 . S
C2541 C2538 1.526 . S
C2541 C2542 1.396 . S
C2541 C2546 1.390 . S
C2542 C2536 1.465 . S
C2542 C2541 1.396 . S
C2542 C2543 1.399 . S
C2543 H2529 0.929 . S
C2543 C2542 1.399 . S
C2543 C2544 1.385 . S
C2544 H2530 0.931 . S
C2544 C2543 1.385 . S
C2544 C2545 1.389 . S
C2545 C2544 1.389 . S
C2545 C2546 1.387 . S
C2546 H2531 0.930 . S
C2546 C2541 1.390 . S
C2546 C2545 1.387 . S
H2547 C2559 0.930 . S
H2548 C2561 0.930 . S
H2549 C2562 0.930 . S
H2550 C2566 0.959 . S
H2551 C2566 0.959 . S
H2552 C2566 0.961 . S
H2553 C2567 0.960 . S
H2554 C2567 0.961 . S
H2555 C2567 0.959 . S
H2556 C2570 0.929 . S
H2557 C2571 0.931 . S
H2558 C2573 0.930 . S
C2559 H2547 0.930 . S
C2559 C2560 1.399 . S
C2559 C2564 1.399 . S
C2560 C2559 1.399 . S
C2560 C2561 1.376 1_565 S
C2561 H2548 0.930 . S
C2561 C2560 1.376 1_545 S
C2561 C2562 1.388 . S
C2562 H2549 0.930 . S
C2562 C2561 1.388 . S
C2562 C2563 1.390 . S
C2563 C2562 1.390 . S
C2563 C2564 1.394 1_545 S
C2563 C2569 1.465 . S
C2564 C2559 1.399 . S
C2564 C2563 1.394 1_565 S
C2564 C2565 1.516 . S
C2565 C2564 1.516 . S
C2565 C2566 1.502 . S
C2565 C2567 1.561 . S
C2565 C2568 1.526 . S
C2566 H2550 0.959 . S
C2566 H2551 0.959 . S
C2566 H2552 0.961 . S
C2566 C2565 1.502 . S
C2567 H2553 0.960 . S
C2567 H2554 0.961 . S
C2567 H2555 0.959 . S
C2567 C2565 1.561 . S
C2568 C2565 1.526 . S
C2568 C2569 1.396 1_565 S
C2568 C2573 1.390 . S
C2569 C2563 1.465 . S
C2569 C2568 1.396 1_545 S
C2569 C2570 1.399 . S
C2570 H2556 0.929 . S
C2570 C2569 1.399 . S
C2570 C2571 1.385 . S
C2571 H2557 0.931 . S
C2571 C2570 1.385 . S
C2571 C2572 1.389 1_545 S
C2572 C2571 1.389 1_565 S
C2572 C2573 1.387 . S
C2573 H2558 0.930 . S
C2573 C2568 1.390 . S
C2573 C2572 1.387 . S
H2574 C2586 0.930 . S
H2575 C2588 0.930 . S
H2576 C2589 0.930 . S
H2577 C2593 0.959 . S
H2578 C2593 0.959 . S
H2579 C2593 0.961 . S
H2580 C2594 0.960 . S
H2581 C2594 0.961 . S
H2582 C2594 0.959 . S
H2583 C2597 0.929 . S
H2584 C2598 0.931 . S
H2585 C2600 0.930 . S
C2586 H2574 0.930 . S
C2586 C2587 1.399 . S
C2586 C2591 1.399 . S
C2587 C2586 1.399 . S
C2587 C2588 1.376 1_565 S
C2588 H2575 0.930 . S
C2588 C2587 1.376 1_545 S
C2588 C2589 1.388 . S
C2589 H2576 0.930 . S
C2589 C2588 1.388 . S
C2589 C2590 1.390 . S
C2590 C2589 1.390 . S
C2590 C2591 1.394 1_545 S
C2590 C2596 1.465 . S
C2591 C2586 1.399 . S
C2591 C2590 1.394 1_565 S
C2591 C2592 1.516 . S
C2592 C2591 1.516 . S
C2592 C2593 1.502 . S
C2592 C2594 1.561 . S
C2592 C2595 1.526 . S
C2593 H2577 0.959 . S
C2593 H2578 0.959 . S
C2593 H2579 0.961 . S
C2593 C2592 1.502 . S
C2594 H2580 0.960 . S
C2594 H2581 0.961 . S
C2594 H2582 0.959 . S
C2594 C2592 1.561 . S
C2595 C2592 1.526 . S
C2595 C2596 1.396 1_565 S
C2595 C2600 1.390 . S
C2596 C2590 1.465 . S
C2596 C2595 1.396 1_545 S
C2596 C2597 1.399 . S
C2597 H2583 0.929 . S
C2597 C2596 1.399 . S
C2597 C2598 1.385 . S
C2598 H2584 0.931 . S
C2598 C2597 1.385 . S
C2598 C2599 1.389 1_545 S
C2599 C2598 1.389 1_565 S
C2599 C2600 1.387 . S
C2600 H2585 0.930 . S
C2600 C2595 1.390 . S
C2600 C2599 1.387 . S
H2601 C2613 0.930 . S
H2602 C2615 0.930 . S
H2603 C2616 0.930 . S
H2604 C2620 0.959 . S
H2605 C2620 0.959 . S
H2606 C2620 0.961 . S
H2607 C2621 0.960 . S
H2608 C2621 0.961 . S
H2609 C2621 0.959 . S
H2610 C2624 0.929 . S
H2611 C2625 0.931 . S
H2612 C2627 0.930 . S
C2613 H2601 0.930 . S
C2613 C2614 1.399 . S
C2613 C2618 1.399 . S
C2614 C2613 1.399 . S
C2614 C2615 1.376 . S
C2615 H2602 0.930 . S
C2615 C2614 1.376 . S
C2615 C2616 1.388 . S
C2616 H2603 0.930 . S
C2616 C2615 1.388 . S
C2616 C2617 1.390 . S
C2617 C2616 1.390 . S
C2617 C2618 1.394 . S
C2617 C2623 1.465 . S
C2618 C2613 1.399 . S
C2618 C2617 1.394 . S
C2618 C2619 1.516 . S
C2619 C2618 1.516 . S
C2619 C2620 1.502 1_455 S
C2619 C2621 1.561 . S
C2619 C2622 1.526 . S
C2620 H2604 0.959 . S
C2620 H2605 0.959 . S
C2620 H2606 0.961 . S
C2620 C2619 1.502 1_655 S
C2621 H2607 0.960 . S
C2621 H2608 0.961 . S
C2621 H2609 0.959 . S
C2621 C2619 1.561 . S
C2622 C2619 1.526 . S
C2622 C2623 1.396 . S
C2622 C2627 1.390 . S
C2623 C2617 1.465 . S
C2623 C2622 1.396 . S
C2623 C2624 1.399 . S
C2624 H2610 0.929 . S
C2624 C2623 1.399 . S
C2624 C2625 1.385 . S
C2625 H2611 0.931 . S
C2625 C2624 1.385 . S
C2625 C2626 1.389 . S
C2626 C2625 1.389 . S
C2626 C2627 1.387 . S
C2627 H2612 0.930 . S
C2627 C2622 1.390 . S
C2627 C2626 1.387 . S
H2628 C2640 0.930 . S
H2629 C2642 0.930 . S
H2630 C2643 0.930 . S
H2631 C2647 0.959 . S
H2632 C2647 0.959 . S
H2633 C2647 0.961 . S
H2634 C2648 0.960 . S
H2635 C2648 0.961 . S
H2636 C2648 0.959 . S
H2637 C2651 0.929 . S
H2638 C2652 0.931 . S
H2639 C2654 0.930 . S
C2640 H2628 0.930 . S
C2640 C2641 1.399 . S
C2640 C2645 1.399 . S
C2641 C2640 1.399 . S
C2641 C2642 1.376 . S
C2642 H2629 0.930 . S
C2642 C2641 1.376 . S
C2642 C2643 1.388 . S
C2643 H2630 0.930 . S
C2643 C2642 1.388 . S
C2643 C2644 1.390 . S
C2644 C2643 1.390 . S
C2644 C2645 1.394 . S
C2644 C2650 1.465 . S
C2645 C2640 1.399 . S
C2645 C2644 1.394 . S
C2645 C2646 1.516 . S
C2646 C2645 1.516 . S
C2646 C2647 1.502 . S
C2646 C2648 1.561 . S
C2646 C2649 1.526 . S
C2647 H2631 0.959 . S
C2647 H2632 0.959 . S
C2647 H2633 0.961 . S
C2647 C2646 1.502 . S
C2648 H2634 0.960 . S
C2648 H2635 0.961 . S
C2648 H2636 0.959 . S
C2648 C2646 1.561 . S
C2649 C2646 1.526 . S
C2649 C2650 1.396 . S
C2649 C2654 1.390 . S
C2650 C2644 1.465 . S
C2650 C2649 1.396 . S
C2650 C2651 1.399 . S
C2651 H2637 0.929 . S
C2651 C2650 1.399 . S
C2651 C2652 1.385 . S
C2652 H2638 0.931 . S
C2652 C2651 1.385 . S
C2652 C2653 1.389 . S
C2653 C2652 1.389 . S
C2653 C2654 1.387 . S
C2654 H2639 0.930 . S
C2654 C2649 1.390 . S
C2654 C2653 1.387 . S
H2655 C2667 0.930 . S
H2656 C2669 0.930 . S
H2657 C2670 0.930 . S
H2658 C2674 0.959 . S
H2659 C2674 0.959 . S
H2660 C2674 0.961 . S
H2661 C2675 0.960 . S
H2662 C2675 0.961 . S
H2663 C2675 0.959 . S
H2664 C2678 0.929 . S
H2665 C2679 0.931 . S
H2666 C2681 0.930 . S
C2667 H2655 0.930 . S
C2667 C2668 1.399 . S
C2667 C2672 1.399 . S
C2668 C2667 1.399 . S
C2668 C2669 1.376 . S
C2669 H2656 0.930 . S
C2669 C2668 1.376 . S
C2669 C2670 1.388 . S
C2670 H2657 0.930 . S
C2670 C2669 1.388 . S
C2670 C2671 1.390 . S
C2671 C2670 1.390 . S
C2671 C2672 1.394 . S
C2671 C2677 1.465 . S
C2672 C2667 1.399 . S
C2672 C2671 1.394 . S
C2672 C2673 1.516 . S
C2673 C2672 1.516 . S
C2673 C2674 1.502 . S
C2673 C2675 1.561 . S
C2673 C2676 1.526 . S
C2674 H2658 0.959 . S
C2674 H2659 0.959 . S
C2674 H2660 0.961 . S
C2674 C2673 1.502 . S
C2675 H2661 0.960 . S
C2675 H2662 0.961 . S
C2675 H2663 0.959 . S
C2675 C2673 1.561 . S
C2676 C2673 1.526 . S
C2676 C2677 1.396 . S
C2676 C2681 1.390 . S
C2677 C2671 1.465 . S
C2677 C2676 1.396 . S
C2677 C2678 1.399 . S
C2678 H2664 0.929 . S
C2678 C2677 1.399 . S
C2678 C2679 1.385 . S
C2679 H2665 0.931 . S
C2679 C2678 1.385 . S
C2679 C2680 1.389 . S
C2680 C2679 1.389 . S
C2680 C2681 1.387 . S
C2681 H2666 0.930 . S
C2681 C2676 1.390 . S
C2681 C2680 1.387 . S
H2682 C2694 0.930 . S
H2683 C2696 0.930 . S
H2684 C2697 0.930 . S
H2685 C2701 0.959 . S
H2686 C2701 0.959 . S
H2687 C2701 0.961 . S
H2688 C2702 0.960 . S
H2689 C2702 0.961 . S
H2690 C2702 0.959 . S
H2691 C2705 0.929 . S
H2692 C2706 0.931 . S
H2693 C2708 0.930 . S
C2694 H2682 0.930 . S
C2694 C2695 1.399 . S
C2694 C2699 1.399 . S
C2695 C2694 1.399 . S
C2695 C2696 1.376 . S
C2696 H2683 0.930 . S
C2696 C2695 1.376 . S
C2696 C2697 1.388 . S
C2697 H2684 0.930 . S
C2697 C2696 1.388 . S
C2697 C2698 1.390 . S
C2698 C2697 1.390 . S
C2698 C2699 1.394 . S
C2698 C2704 1.465 . S
C2699 C2694 1.399 . S
C2699 C2698 1.394 . S
C2699 C2700 1.516 . S
C2700 C2699 1.516 . S
C2700 C2701 1.502 . S
C2700 C2702 1.561 . S
C2700 C2703 1.526 . S
C2701 H2685 0.959 . S
C2701 H2686 0.959 . S
C2701 H2687 0.961 . S
C2701 C2700 1.502 . S
C2702 H2688 0.960 . S
C2702 H2689 0.961 . S
C2702 H2690 0.959 . S
C2702 C2700 1.561 . S
C2703 C2700 1.526 . S
C2703 C2704 1.396 . S
C2703 C2708 1.390 . S
C2704 C2698 1.465 . S
C2704 C2703 1.396 . S
C2704 C2705 1.399 . S
C2705 H2691 0.929 . S
C2705 C2704 1.399 . S
C2705 C2706 1.385 . S
C2706 H2692 0.931 . S
C2706 C2705 1.385 . S
C2706 C2707 1.389 . S
C2707 C2706 1.389 . S
C2707 C2708 1.387 . S
C2708 H2693 0.930 . S
C2708 C2703 1.390 . S
C2708 C2707 1.387 . S
H2709 C2721 0.930 . S
H2710 C2723 0.930 . S
H2711 C2724 0.930 . S
H2712 C2728 0.959 . S
H2713 C2728 0.959 . S
H2714 C2728 0.961 . S
H2715 C2729 0.960 . S
H2716 C2729 0.961 . S
H2717 C2729 0.959 . S
H2718 C2732 0.929 . S
H2719 C2733 0.931 . S
H2720 C2735 0.930 . S
C2721 H2709 0.930 . S
C2721 C2722 1.399 . S
C2721 C2726 1.399 . S
C2722 C2721 1.399 . S
C2722 C2723 1.376 . S
C2723 H2710 0.930 . S
C2723 C2722 1.376 . S
C2723 C2724 1.388 . S
C2724 H2711 0.930 . S
C2724 C2723 1.388 . S
C2724 C2725 1.390 . S
C2725 C2724 1.390 . S
C2725 C2726 1.394 . S
C2725 C2731 1.465 . S
C2726 C2721 1.399 . S
C2726 C2725 1.394 . S
C2726 C2727 1.516 . S
C2727 C2726 1.516 . S
C2727 C2728 1.502 . S
C2727 C2729 1.561 . S
C2727 C2730 1.526 . S
C2728 H2712 0.959 . S
C2728 H2713 0.959 . S
C2728 H2714 0.961 . S
C2728 C2727 1.502 . S
C2729 H2715 0.960 . S
C2729 H2716 0.961 . S
C2729 H2717 0.959 . S
C2729 C2727 1.561 . S
C2730 C2727 1.526 . S
C2730 C2731 1.396 . S
C2730 C2735 1.390 . S
C2731 C2725 1.465 . S
C2731 C2730 1.396 . S
C2731 C2732 1.399 . S
C2732 H2718 0.929 . S
C2732 C2731 1.399 . S
C2732 C2733 1.385 . S
C2733 H2719 0.931 . S
C2733 C2732 1.385 . S
C2733 C2734 1.389 . S
C2734 C2733 1.389 . S
C2734 C2735 1.387 . S
C2735 H2720 0.930 . S
C2735 C2730 1.390 . S
C2735 C2734 1.387 . S
H2736 C2748 0.930 . S
H2737 C2750 0.930 . S
H2738 C2751 0.930 . S
H2739 C2755 0.959 . S
H2740 C2755 0.959 . S
H2741 C2755 0.961 . S
H2742 C2756 0.960 . S
H2743 C2756 0.961 . S
H2744 C2756 0.959 . S
H2745 C2759 0.929 . S
H2746 C2760 0.931 . S
H2747 C2762 0.930 . S
C2748 H2736 0.930 . S
C2748 C2749 1.399 . S
C2748 C2753 1.399 . S
C2749 C2748 1.399 . S
C2749 C2750 1.376 1_545 S
C2750 H2737 0.930 . S
C2750 C2749 1.376 1_565 S
C2750 C2751 1.388 . S
C2751 H2738 0.930 . S
C2751 C2750 1.388 . S
C2751 C2752 1.401 . S
C2752 C2751 1.401 . S
C2752 C2753 1.353 1_565 S
C2752 C2758 1.491 . S
C2753 C2748 1.399 . S
C2753 C2752 1.353 1_545 S
C2753 C2754 1.516 . S
C2754 C2753 1.516 . S
C2754 C2755 1.502 . S
C2754 C2756 1.561 . S
C2754 C2757 1.526 . S
C2755 H2739 0.959 . S
C2755 H2740 0.959 . S
C2755 H2741 0.961 . S
C2755 C2754 1.502 . S
C2756 H2742 0.960 . S
C2756 H2743 0.961 . S
C2756 H2744 0.959 . S
C2756 C2754 1.561 . S
C2757 C2754 1.526 . S
C2757 C2758 1.396 1_545 S
C2757 C2762 1.390 . S
C2758 C2752 1.491 . S
C2758 C2757 1.396 1_565 S
C2758 C2759 1.399 . S
C2759 H2745 0.929 . S
C2759 C2758 1.399 . S
C2759 C2760 1.385 . S
C2760 H2746 0.931 . S
C2760 C2759 1.385 . S
C2760 C2761 1.389 1_565 S
C2761 C2760 1.389 1_545 S
C2761 C2762 1.387 . S
C2762 H2747 0.930 . S
C2762 C2757 1.390 . S
C2762 C2761 1.387 . S
H2763 C2775 0.930 . S
H2764 C2777 0.930 . S
H2765 C2778 0.930 . S
H2766 C2782 0.959 . S
H2767 C2782 0.959 . S
H2768 C2782 0.961 . S
H2769 C2783 0.959 . S
H2770 C2783 0.962 . S
H2771 C2783 0.956 1_455 S
H2772 C2786 0.929 . S
H2773 C2787 0.931 . S
H2774 C2789 0.930 . S
C2775 H2763 0.930 . S
C2775 C2776 1.399 . S
C2775 C2780 1.399 . S
C2776 C2775 1.399 . S
C2776 C2777 1.376 1_655 S
C2777 H2764 0.930 . S
C2777 C2776 1.376 1_455 S
C2777 C2778 1.388 . S
C2778 H2765 0.930 . S
C2778 C2777 1.388 . S
C2778 C2779 1.395 . S
C2779 C2778 1.395 . S
C2779 C2780 1.393 1_455 S
C2779 C2785 1.490 . S
C2780 C2775 1.399 . S
C2780 C2779 1.393 1_655 S
C2780 C2781 1.516 . S
C2781 C2780 1.516 . S
C2781 C2782 1.502 . S
C2781 C2783 1.564 . S
C2781 C2784 1.526 . S
C2782 H2766 0.959 . S
C2782 H2767 0.959 . S
C2782 H2768 0.961 . S
C2782 C2781 1.502 . S
C2783 H2769 0.959 . S
C2783 H2770 0.962 . S
C2783 H2771 0.956 1_655 S
C2783 C2781 1.564 . S
C2784 C2781 1.526 . S
C2784 C2785 1.377 1_655 S
C2784 C2789 1.390 . S
C2785 C2779 1.490 . S
C2785 C2784 1.377 1_455 S
C2785 C2786 1.390 . S
C2786 H2772 0.929 . S
C2786 C2785 1.390 . S
C2786 C2787 1.385 . S
C2787 H2773 0.931 . S
C2787 C2786 1.385 . S
C2787 C2788 1.389 1_455 S
C2788 C2787 1.389 1_655 S
C2788 C2789 1.387 . S
C2789 H2774 0.930 . S
C2789 C2784 1.390 . S
C2789 C2788 1.387 . S
H2790 C2802 0.930 . S
H2791 C2804 0.930 . S
H2792 C2805 0.930 . S
H2793 C2809 0.959 . S
H2794 C2809 0.959 . S
H2795 C2809 0.961 . S
H2796 C2810 0.960 . S
H2797 C2810 0.961 . S
H2798 C2810 0.959 . S
H2799 C2813 0.929 . S
H2800 C2814 0.931 . S
H2801 C2816 0.930 . S
C2802 H2790 0.930 . S
C2802 C2803 1.399 . S
C2802 C2807 1.399 . S
C2803 C2802 1.399 . S
C2803 C2804 1.376 . S
C2804 H2791 0.930 . S
C2804 C2803 1.376 . S
C2804 C2805 1.388 . S
C2805 H2792 0.930 . S
C2805 C2804 1.388 . S
C2805 C2806 1.390 . S
C2806 C2805 1.390 . S
C2806 C2807 1.394 . S
C2806 C2812 1.465 . S
C2807 C2802 1.399 . S
C2807 C2806 1.394 . S
C2807 C2808 1.516 . S
C2808 C2807 1.516 . S
C2808 C2809 1.502 . S
C2808 C2810 1.561 . S
C2808 C2811 1.526 . S
C2809 H2793 0.959 . S
C2809 H2794 0.959 . S
C2809 H2795 0.961 . S
C2809 C2808 1.502 . S
C2810 H2796 0.960 . S
C2810 H2797 0.961 . S
C2810 H2798 0.959 . S
C2810 C2808 1.561 . S
C2811 C2808 1.526 . S
C2811 C2812 1.396 . S
C2811 C2816 1.390 . S
C2812 C2806 1.465 . S
C2812 C2811 1.396 . S
C2812 C2813 1.399 . S
C2813 H2799 0.929 . S
C2813 C2812 1.399 . S
C2813 C2814 1.385 . S
C2814 H2800 0.931 . S
C2814 C2813 1.385 . S
C2814 C2815 1.389 . S
C2815 C2814 1.389 . S
C2815 C2816 1.387 . S
C2816 H2801 0.930 . S
C2816 C2811 1.390 . S
C2816 C2815 1.387 . S
H2817 C2829 0.930 . S
H2818 C2831 0.930 . S
H2819 C2832 0.930 . S
H2820 C2836 0.959 . S
H2821 C2836 0.959 . S
H2822 C2836 0.961 . S
H2823 C2837 0.960 . S
H2824 C2837 0.961 . S
H2825 C2837 0.959 . S
H2826 C2840 0.929 . S
H2827 C2841 0.931 . S
H2828 C2843 0.930 . S
C2829 H2817 0.930 . S
C2829 C2830 1.399 . S
C2829 C2834 1.399 . S
C2830 C2829 1.399 . S
C2830 C2831 1.376 . S
C2831 H2818 0.930 . S
C2831 C2830 1.376 . S
C2831 C2832 1.388 . S
C2832 H2819 0.930 . S
C2832 C2831 1.388 . S
C2832 C2833 1.390 . S
C2833 C2832 1.390 . S
C2833 C2834 1.394 . S
C2833 C2839 1.465 . S
C2834 C2829 1.399 . S
C2834 C2833 1.394 . S
C2834 C2835 1.516 . S
C2835 C2834 1.516 . S
C2835 C2836 1.502 . S
C2835 C2837 1.561 . S
C2835 C2838 1.526 . S
C2836 H2820 0.959 . S
C2836 H2821 0.959 . S
C2836 H2822 0.961 . S
C2836 C2835 1.502 . S
C2837 H2823 0.960 . S
C2837 H2824 0.961 . S
C2837 H2825 0.959 . S
C2837 C2835 1.561 . S
C2838 C2835 1.526 . S
C2838 C2839 1.396 . S
C2838 C2843 1.390 . S
C2839 C2833 1.465 . S
C2839 C2838 1.396 . S
C2839 C2840 1.399 . S
C2840 H2826 0.929 . S
C2840 C2839 1.399 . S
C2840 C2841 1.385 . S
C2841 H2827 0.931 . S
C2841 C2840 1.385 . S
C2841 C2842 1.389 . S
C2842 C2841 1.389 . S
C2842 C2843 1.387 . S
C2843 H2828 0.930 . S
C2843 C2838 1.390 . S
C2843 C2842 1.387 . S
H2844 C2856 0.930 . S
H2845 C2858 0.930 . S
H2846 C2859 0.930 . S
H2847 C2863 0.959 . S
H2848 C2863 0.959 . S
H2849 C2863 0.961 . S
H2850 C2864 0.960 . S
H2851 C2864 0.961 . S
H2852 C2864 0.959 . S
H2853 C2867 0.929 . S
H2854 C2868 0.931 . S
H2855 C2870 0.930 . S
C2856 H2844 0.930 . S
C2856 C2857 1.399 . S
C2856 C2861 1.399 . S
C2857 C2856 1.399 . S
C2857 C2858 1.376 . S
C2858 H2845 0.930 . S
C2858 C2857 1.376 . S
C2858 C2859 1.388 . S
C2859 H2846 0.930 . S
C2859 C2858 1.388 . S
C2859 C2860 1.390 . S
C2860 C2859 1.390 . S
C2860 C2861 1.394 . S
C2860 C2866 1.465 . S
C2861 C2856 1.399 . S
C2861 C2860 1.394 . S
C2861 C2862 1.516 . S
C2862 C2861 1.516 . S
C2862 C2863 1.502 . S
C2862 C2864 1.561 . S
C2862 C2865 1.526 . S
C2863 H2847 0.959 . S
C2863 H2848 0.959 . S
C2863 H2849 0.961 . S
C2863 C2862 1.502 . S
C2864 H2850 0.960 . S
C2864 H2851 0.961 . S
C2864 H2852 0.959 . S
C2864 C2862 1.561 . S
C2865 C2862 1.526 . S
C2865 C2866 1.396 . S
C2865 C2870 1.390 . S
C2866 C2860 1.465 . S
C2866 C2865 1.396 . S
C2866 C2867 1.399 . S
C2867 H2853 0.929 . S
C2867 C2866 1.399 . S
C2867 C2868 1.385 . S
C2868 H2854 0.931 . S
C2868 C2867 1.385 . S
C2868 C2869 1.389 . S
C2869 C2868 1.389 . S
C2869 C2870 1.387 . S
C2870 H2855 0.930 . S
C2870 C2865 1.390 . S
C2870 C2869 1.387 . S
H2871 C2883 0.930 . S
H2872 C2885 0.930 . S
H2873 C2886 0.930 . S
H2874 C2890 0.959 . S
H2875 C2890 0.959 . S
H2876 C2890 0.961 . S
H2877 C2891 0.960 . S
H2878 C2891 0.961 . S
H2879 C2891 0.959 . S
H2880 C2894 0.929 . S
H2881 C2895 0.931 . S
H2882 C2897 0.930 . S
C2883 H2871 0.930 . S
C2883 C2884 1.399 . S
C2883 C2888 1.399 . S
C2884 C2883 1.399 . S
C2884 C2885 1.376 . S
C2885 H2872 0.930 . S
C2885 C2884 1.376 . S
C2885 C2886 1.388 . S
C2886 H2873 0.930 . S
C2886 C2885 1.388 . S
C2886 C2887 1.390 . S
C2887 C2886 1.390 . S
C2887 C2888 1.394 . S
C2887 C2893 1.465 . S
C2888 C2883 1.399 . S
C2888 C2887 1.394 . S
C2888 C2889 1.516 . S
C2889 C2888 1.516 . S
C2889 C2890 1.502 . S
C2889 C2891 1.561 . S
C2889 C2892 1.526 . S
C2890 H2874 0.959 . S
C2890 H2875 0.959 . S
C2890 H2876 0.961 . S
C2890 C2889 1.502 . S
C2891 H2877 0.960 . S
C2891 H2878 0.961 . S
C2891 H2879 0.959 . S
C2891 C2889 1.561 . S
C2892 C2889 1.526 . S
C2892 C2893 1.396 . S
C2892 C2897 1.390 . S
C2893 C2887 1.465 . S
C2893 C2892 1.396 . S
C2893 C2894 1.399 . S
C2894 H2880 0.929 . S
C2894 C2893 1.399 . S
C2894 C2895 1.385 . S
C2895 H2881 0.931 . S
C2895 C2894 1.385 . S
C2895 C2896 1.389 . S
C2896 C2895 1.389 . S
C2896 C2897 1.387 . S
C2897 H2882 0.930 . S
C2897 C2892 1.390 . S
C2897 C2896 1.387 . S
H2898 C2910 0.930 . S
H2899 C2912 0.930 . S
H2900 C2913 0.930 . S
H2901 C2917 0.959 . S
H2902 C2917 0.959 . S
H2903 C2917 0.961 . S
H2904 C2918 0.960 . S
H2905 C2918 0.961 . S
H2906 C2918 0.959 . S
H2907 C2921 0.929 . S
H2908 C2922 0.931 . S
H2909 C2924 0.930 . S
C2910 H2898 0.930 . S
C2910 C2911 1.399 . S
C2910 C2915 1.399 . S
C2911 C2910 1.399 . S
C2911 C2912 1.376 . S
C2912 H2899 0.930 . S
C2912 C2911 1.376 . S
C2912 C2913 1.388 . S
C2913 H2900 0.930 . S
C2913 C2912 1.388 . S
C2913 C2914 1.390 . S
C2914 C2913 1.390 . S
C2914 C2915 1.394 . S
C2914 C2920 1.465 . S
C2915 C2910 1.399 . S
C2915 C2914 1.394 . S
C2915 C2916 1.516 . S
C2916 C2915 1.516 . S
C2916 C2917 1.502 . S
C2916 C2918 1.561 . S
C2916 C2919 1.526 . S
C2917 H2901 0.959 . S
C2917 H2902 0.959 . S
C2917 H2903 0.961 . S
C2917 C2916 1.502 . S
C2918 H2904 0.960 . S
C2918 H2905 0.961 . S
C2918 H2906 0.959 . S
C2918 C2916 1.561 . S
C2919 C2916 1.526 . S
C2919 C2920 1.396 . S
C2919 C2924 1.390 . S
C2920 C2914 1.465 . S
C2920 C2919 1.396 . S
C2920 C2921 1.399 . S
C2921 H2907 0.929 . S
C2921 C2920 1.399 . S
C2921 C2922 1.385 . S
C2922 H2908 0.931 . S
C2922 C2921 1.385 . S
C2922 C2923 1.389 . S
C2923 C2922 1.389 . S
C2923 C2924 1.387 . S
C2924 H2909 0.930 . S
C2924 C2919 1.390 . S
C2924 C2923 1.387 . S
H2925 C2937 0.930 . S
H2926 C2939 0.930 . S
H2927 C2940 0.930 . S
H2928 C2944 0.959 . S
H2929 C2944 0.959 . S
H2930 C2944 0.961 . S
H2931 C2945 0.960 . S
H2932 C2945 0.961 . S
H2933 C2945 0.959 . S
H2934 C2948 0.929 . S
H2935 C2949 0.931 . S
H2936 C2951 0.930 . S
C2937 H2925 0.930 . S
C2937 C2938 1.399 . S
C2937 C2942 1.399 . S
C2938 C2937 1.399 . S
C2938 C2939 1.376 . S
C2939 H2926 0.930 . S
C2939 C2938 1.376 . S
C2939 C2940 1.388 . S
C2940 H2927 0.930 . S
C2940 C2939 1.388 . S
C2940 C2941 1.390 . S
C2941 C2940 1.390 . S
C2941 C2942 1.394 . S
C2941 C2947 1.465 . S
C2942 C2937 1.399 . S
C2942 C2941 1.394 . S
C2942 C2943 1.516 . S
C2943 C2942 1.516 . S
C2943 C2944 1.502 . S
C2943 C2945 1.561 . S
C2943 C2946 1.526 . S
C2944 H2928 0.959 . S
C2944 H2929 0.959 . S
C2944 H2930 0.961 . S
C2944 C2943 1.502 . S
C2945 H2931 0.960 . S
C2945 H2932 0.961 . S
C2945 H2933 0.959 . S
C2945 C2943 1.561 . S
C2946 C2943 1.526 . S
C2946 C2947 1.396 . S
C2946 C2951 1.390 . S
C2947 C2941 1.465 . S
C2947 C2946 1.396 . S
C2947 C2948 1.399 . S
C2948 H2934 0.929 . S
C2948 C2947 1.399 . S
C2948 C2949 1.385 . S
C2949 H2935 0.931 . S
C2949 C2948 1.385 . S
C2949 C2950 1.389 . S
C2950 C2949 1.389 . S
C2950 C2951 1.387 . S
C2951 H2936 0.930 . S
C2951 C2946 1.390 . S
C2951 C2950 1.387 . S
H2952 C2964 0.930 . S
H2953 C2966 0.930 . S
H2954 C2967 0.930 . S
H2955 C2971 0.959 . S
H2956 C2971 0.959 . S
H2957 C2971 0.961 . S
H2958 C2972 0.960 . S
H2959 C2972 0.961 . S
H2960 C2972 0.959 . S
H2961 C2975 0.929 . S
H2962 C2976 0.931 . S
H2963 C2978 0.930 . S
C2964 H2952 0.930 . S
C2964 C2965 1.399 . S
C2964 C2969 1.399 . S
C2965 C2964 1.399 . S
C2965 C2966 1.376 . S
C2966 H2953 0.930 . S
C2966 C2965 1.376 . S
C2966 C2967 1.388 . S
C2967 H2954 0.930 . S
C2967 C2966 1.388 . S
C2967 C2968 1.390 . S
C2968 C2967 1.390 . S
C2968 C2969 1.394 . S
C2968 C2974 1.465 . S
C2969 C2964 1.399 . S
C2969 C2968 1.394 . S
C2969 C2970 1.516 . S
C2970 C2969 1.516 . S
C2970 C2971 1.502 . S
C2970 C2972 1.561 . S
C2970 C2973 1.526 . S
C2971 H2955 0.959 . S
C2971 H2956 0.959 . S
C2971 H2957 0.961 . S
C2971 C2970 1.502 . S
C2972 H2958 0.960 . S
C2972 H2959 0.961 . S
C2972 H2960 0.959 . S
C2972 C2970 1.561 . S
C2973 C2970 1.526 . S
C2973 C2974 1.396 . S
C2973 C2978 1.390 . S
C2974 C2968 1.465 . S
C2974 C2973 1.396 . S
C2974 C2975 1.399 . S
C2975 H2961 0.929 . S
C2975 C2974 1.399 . S
C2975 C2976 1.385 . S
C2976 H2962 0.931 . S
C2976 C2975 1.385 . S
C2976 C2977 1.389 . S
C2977 C2976 1.389 . S
C2977 C2978 1.387 . S
C2978 H2963 0.930 . S
C2978 C2973 1.390 . S
C2978 C2977 1.387 . S
H2979 C2991 0.930 . S
H2980 C2993 0.930 . S
H2981 C2994 0.924 1_455 S
H2982 C2998 0.959 . S
H2983 C2998 0.959 . S
H2984 C2998 0.961 . S
H2985 C2999 0.960 . S
H2986 C2999 0.961 . S
H2987 C2999 0.959 . S
H2988 C3002 0.928 . S
H2989 C3003 0.926 1_455 S
H2990 C3005 0.930 . S
C2991 H2979 0.930 . S
C2991 C2992 1.399 . S
C2991 C2996 1.399 . S
C2992 C2991 1.399 . S
C2992 C2993 1.376 . S
C2993 H2980 0.930 . S
C2993 C2992 1.376 . S
C2993 C2994 1.388 . S
C2994 H2981 0.924 1_655 S
C2994 C2993 1.388 . S
C2994 C2995 1.390 . S
C2995 C2994 1.390 . S
C2995 C2996 1.394 . S
C2995 C3001 1.465 . S
C2996 C2991 1.399 . S
C2996 C2995 1.394 . S
C2996 C2997 1.516 . S
C2997 C2996 1.516 . S
C2997 C2998 1.502 . S
C2997 C2999 1.561 1_655 S
C2997 C3000 1.526 . S
C2998 H2982 0.959 . S
C2998 H2983 0.959 . S
C2998 H2984 0.961 . S
C2998 C2997 1.502 . S
C2999 H2985 0.960 . S
C2999 H2986 0.961 . S
C2999 H2987 0.959 . S
C2999 C2997 1.561 1_455 S
C3000 C2997 1.526 . S
C3000 C3001 1.396 . S
C3000 C3005 1.390 . S
C3001 C2995 1.465 . S
C3001 C3000 1.396 . S
C3001 C3002 1.397 1_655 S
C3002 H2988 0.928 . S
C3002 C3001 1.397 1_455 S
C3002 C3003 1.396 1_455 S
C3003 H2989 0.926 1_655 S
C3003 C3002 1.396 1_655 S
C3003 C3004 1.386 . S
C3004 C3003 1.386 . S
C3004 C3005 1.387 . S
C3005 H2990 0.930 . S
C3005 C3000 1.390 . S
C3005 C3004 1.387 . S
H3006 C3018 0.930 . S
H3007 C3020 0.930 . S
H3008 C3021 0.930 . S
H3009 C3025 0.959 . S
H3010 C3025 0.959 . S
H3011 C3025 0.961 . S
H3012 C3026 0.960 . S
H3013 C3026 0.961 . S
H3014 C3026 0.959 . S
H3015 C3029 0.929 . S
H3016 C3030 0.931 . S
H3017 C3032 0.930 . S
C3018 H3006 0.930 . S
C3018 C3019 1.399 . S
C3018 C3023 1.399 . S
C3019 C3018 1.399 . S
C3019 C3020 1.376 . S
C3020 H3007 0.930 . S
C3020 C3019 1.376 . S
C3020 C3021 1.388 . S
C3021 H3008 0.930 . S
C3021 C3020 1.388 . S
C3021 C3022 1.390 . S
C3022 C3021 1.390 . S
C3022 C3023 1.394 . S
C3022 C3028 1.465 . S
C3023 C3018 1.399 . S
C3023 C3022 1.394 . S
C3023 C3024 1.516 . S
C3024 C3023 1.516 . S
C3024 C3025 1.502 . S
C3024 C3026 1.561 . S
C3024 C3027 1.526 . S
C3025 H3009 0.959 . S
C3025 H3010 0.959 . S
C3025 H3011 0.961 . S
C3025 C3024 1.502 . S
C3026 H3012 0.960 . S
C3026 H3013 0.961 . S
C3026 H3014 0.959 . S
C3026 C3024 1.561 . S
C3027 C3024 1.526 . S
C3027 C3028 1.396 . S
C3027 C3032 1.390 . S
C3028 C3022 1.465 . S
C3028 C3027 1.396 . S
C3028 C3029 1.399 . S
C3029 H3015 0.929 . S
C3029 C3028 1.399 . S
C3029 C3030 1.385 . S
C3030 H3016 0.931 . S
C3030 C3029 1.385 . S
C3030 C3031 1.389 . S
C3031 C3030 1.389 . S
C3031 C3032 1.387 . S
C3032 H3017 0.930 . S
C3032 C3027 1.390 . S
C3032 C3031 1.387 . S
H3033 C3045 0.930 . S
H3034 C3047 0.930 . S
H3035 C3048 0.930 . S
H3036 C3052 0.959 . S
H3037 C3052 0.959 . S
H3038 C3052 0.961 . S
H3039 C3053 0.960 . S
H3040 C3053 0.961 . S
H3041 C3053 0.959 . S
H3042 C3056 0.929 . S
H3043 C3057 0.931 . S
H3044 C3059 0.930 . S
C3045 H3033 0.930 . S
C3045 C3046 1.399 1_565 S
C3045 C3050 1.443 . S
C3046 C3045 1.399 1_545 S
C3046 C3047 1.376 . S
C3047 H3034 0.930 . S
C3047 C3046 1.376 . S
C3047 C3048 1.388 . S
C3048 H3035 0.930 . S
C3048 C3047 1.388 . S
C3048 C3049 1.390 . S
C3049 C3048 1.390 . S
C3049 C3050 1.320 1_545 S
C3049 C3055 1.465 . S
C3050 C3045 1.443 . S
C3050 C3049 1.320 1_565 S
C3050 C3051 1.539 . S
C3051 C3050 1.539 . S
C3051 C3052 1.502 . S
C3051 C3053 1.561 . S
C3051 C3054 1.526 . S
C3052 H3036 0.959 . S
C3052 H3037 0.959 . S
C3052 H3038 0.961 . S
C3052 C3051 1.502 . S
C3053 H3039 0.960 . S
C3053 H3040 0.961 . S
C3053 H3041 0.959 . S
C3053 C3051 1.561 . S
C3054 C3051 1.526 . S
C3054 C3055 1.396 1_565 S
C3054 C3059 1.390 . S
C3055 C3049 1.465 . S
C3055 C3054 1.396 1_545 S
C3055 C3056 1.399 . S
C3056 H3042 0.929 . S
C3056 C3055 1.399 . S
C3056 C3057 1.385 . S
C3057 H3043 0.931 . S
C3057 C3056 1.385 . S
C3057 C3058 1.389 . S
C3058 C3057 1.389 . S
C3058 C3059 1.387 1_545 S
C3059 H3044 0.930 . S
C3059 C3054 1.390 . S
C3059 C3058 1.387 1_565 S
C1129 C7 1.456 . S
C1141 C729 1.479 . S
C1156 C23 1.605 . S
C1168 C777 1.608 . S
C1195 C825 1.481 . S
C1183 C37 1.484 . S
C1210 C35 1.495 1_545 S
C1222 C849 1.509 . S
C1237 C9 1.486 . S
C1249 C921 1.515 . S
C1264 C21 1.552 . S
C1276 C969 1.617 . S
C1291 C49 1.426 . S
C1303 C897 1.474 . S
C1330 C945 1.603 . S
C1318 C65 1.597 . S
C1357 C873 1.487 . S
C1345 C79 1.465 1_565 S
C1372 C77 1.459 . S
C1384 C801 1.472 . S
C1411 C705 1.513 . S
C1399 C51 1.485 1_655 S
C1426 C63 1.594 . S
C1438 C753 1.611 . S
C1453 C91 1.632 . S
C1465 C1017 1.688 . S
C1480 C107 1.663 . S
C1492 C1065 1.663 . S
C1519 C1089 1.651 . S
C1507 C121 1.660 . S
C1534 C119 1.630 . S
C1546 C273 1.608 . S
C1561 C93 1.656 . S
C1573 C345 1.651 . S
C1588 C105 1.613 . S
C1600 C393 1.658 . S
C1615 C133 1.565 . S
C1627 C321 1.573 . S
C1642 C149 1.652 . S
C1654 C369 1.649 . S
C1681 C297 1.587 . S
C1669 C163 1.642 . S
C1708 C1113 1.673 . S
C1696 C161 1.703 . S
C1735 C993 1.659 . S
C1723 C135 1.662 . S
C1762 C1041 1.662 . S
C1750 C147 1.619 . S
C1777 C175 1.528 . S
C1789 C441 1.599 . S
C1804 C191 1.641 . S
C1816 C489 1.643 . S
C1831 C205 1.661 . S
C1843 C513 1.657 . S
C1858 C203 1.706 . S
C1870 C561 1.678 . S
C1897 C633 1.638 . S
C1885 C177 1.648 . S
C1924 C681 1.686 . S
C1912 C189 1.609 . S
C1951 C609 1.674 . S
C1939 C217 1.671 . S
C1978 C657 1.660 . S
C1966 C233 1.662 . S
C1993 C247 1.663 . S
C2005 C585 1.629 . S
C2032 C537 1.616 . S
C2020 C245 1.574 . S
C2047 C219 1.669 . S
C2059 C417 1.665 . S
C2086 C465 1.634 . S
C2074 C231 1.595 . S
C2113 C282 1.591 . S
C2101 C8 1.605 . S
C2128 C17 1.504 . S
C2140 C336 1.521 . S
C2167 C384 1.561 . S
C2155 C31 1.602 . S
C2194 C432 1.592 . S
C2182 C36 1.613 . S
C2221 C480 1.532 . S
C2209 C3 1.590 . S
C2248 C522 1.537 . S
C2236 C22 1.520 . S
C2263 C50 1.604 . S
C2275 C528 1.621 . S
C2290 C59 1.504 . S
C2302 C426 1.479 . S
C2317 C73 1.594 . S
C2329 C474 1.535 . S
C2344 C78 1.637 . S
C2356 C330 1.579 . S
C2383 C378 1.551 . S
C2371 C45 1.558 . S
C2398 C64 1.539 . S
C2410 C288 1.497 . S
C2437 C570 1.568 . S
C2425 C92 1.567 . S
C2452 C101 1.640 . S
C2464 C624 1.631 . S
C2479 C115 1.647 . S
C2491 C672 1.652 . S
C2518 C720 1.454 . S
C2506 C120 1.433 . S
C2533 C87 1.561 . S
C2545 C768 1.568 . S
C2560 C106 1.414 . S
C2572 C816 1.406 . S
C2587 C134 1.425 . S
C2599 C810 1.432 . S
C2614 C143 1.429 . S
C2626 C714 1.428 . S
C2653 C762 1.577 . S
C2641 C157 1.569 . S
C2668 C162 1.584 . S
C2680 C618 1.566 . S
C2695 C129 1.653 . S
C2707 C666 1.582 . S
C2734 C576 1.608 . S
C2722 C148 1.650 . S
C2761 C858 1.416 . S
C2749 C176 1.434 . S
C2776 C185 1.427 . S
C2788 C912 1.435 . S
C2803 C199 1.573 . S
C2815 C960 1.579 . S
C2842 C1008 1.559 . S
C2830 C204 1.568 . S
C2869 C1056 1.631 . S
C2857 C171 1.648 . S
C2884 C190 1.645 . S
C2896 C1098 1.645 . S
C2911 C218 1.591 . S
C2923 C1104 1.549 . S
C2938 C227 1.643 . S
C2950 C1002 1.603 . S
C2977 C1050 1.596 . S
C2965 C241 1.647 . S
C3004 C906 1.428 . S
C2992 C246 1.439 . S
C3031 C954 1.545 . S
C3019 C213 1.564 . S
C3046 C232 1.407 . S
C3058 C864 1.411 . S
