# Generated by pormake.
# Topology anh, (6,3)-cn, num edge types: 1
# Building blocks:
#     Node 0, Type 0, BuildingBlock: NUHQIS_clean_sbu_0, # of connection points: 6
#     Node 1, Type 0, BuildingBlock: NUHQIS_clean_sbu_0, # of connection points: 6
#     Node 2, Type 0, BuildingBlock: NUHQIS_clean_sbu_0, # of connection points: 6
#     Node 3, Type 1, BuildingBlock: BETDAH_clean_linker_0, # of connection points: 3
#     Node 4, Type 1, BuildingBlock: BETDAH_clean_linker_0, # of connection points: 3
#     Node 5, Type 1, BuildingBlock: BETDAH_clean_linker_0, # of connection points: 3
#     Node 6, Type 1, BuildingBlock: BETDAH_clean_linker_0, # of connection points: 3
#     Node 7, Type 1, BuildingBlock: BETDAH_clean_linker_0, # of connection points: 3
#     Node 8, Type 1, BuildingBlock: BETDAH_clean_linker_0, # of connection points: 3
#     Edge 9, Type (0, 1), BuildingBlock: ZUJKAS_clean_linker_0, # of connection points: 2
#     Edge 10, Type (0, 1), BuildingBlock: ZUJKAS_clean_linker_0, # of connection points: 2
#     Edge 11, Type (0, 1), BuildingBlock: ZUJKAS_clean_linker_0, # of connection points: 2
#     Edge 12, Type (0, 1), BuildingBlock: ZUJKAS_clean_linker_0, # of connection points: 2
#     Edge 13, Type (0, 1), BuildingBlock: ZUJKAS_clean_linker_0, # of connection points: 2
#     Edge 14, Type (0, 1), BuildingBlock: ZUJKAS_clean_linker_0, # of connection points: 2
#     Edge 15, Type (0, 1), BuildingBlock: ZUJKAS_clean_linker_0, # of connection points: 2
#     Edge 16, Type (0, 1), BuildingBlock: ZUJKAS_clean_linker_0, # of connection points: 2
#     Edge 17, Type (0, 1), BuildingBlock: ZUJKAS_clean_linker_0, # of connection points: 2
#     Edge 18, Type (0, 1), BuildingBlock: ZUJKAS_clean_linker_0, # of connection points: 2
#     Edge 19, Type (0, 1), BuildingBlock: ZUJKAS_clean_linker_0, # of connection points: 2
#     Edge 20, Type (0, 1), BuildingBlock: ZUJKAS_clean_linker_0, # of connection points: 2
#     Edge 21, Type (0, 1), BuildingBlock: ZUJKAS_clean_linker_0, # of connection points: 2
#     Edge 22, Type (0, 1), BuildingBlock: ZUJKAS_clean_linker_0, # of connection points: 2
#     Edge 23, Type (0, 1), BuildingBlock: ZUJKAS_clean_linker_0, # of connection points: 2
#     Edge 24, Type (0, 1), BuildingBlock: ZUJKAS_clean_linker_0, # of connection points: 2
#     Edge 25, Type (0, 1), BuildingBlock: ZUJKAS_clean_linker_0, # of connection points: 2
#     Edge 26, Type (0, 1), BuildingBlock: ZUJKAS_clean_linker_0, # of connection points: 2
# Relax obj value: 0.174
# Max RMSD: 0.140
# Mean RMSD: 0.102
data_MOF--net-anh--node1-NUHQIS_clean_sbu_0--node2-BETDAH_clean_linker_0--edge1-ZUJKAS_clean_linker_0
_symmetry_space_group_name_H-M    P1
_symmetry_Int_Tables_number       1
_symmetry_cell_setting            triclinic
loop_
_symmetry_equiv_pos_as_xyz
'x, y, z'
_cell_length_a     40.70708
_cell_length_b     40.682997
_cell_length_c     64.624854
_cell_angle_alpha  91.9333
_cell_angle_beta   95.345895
_cell_angle_gamma 119.79728
loop_
_atom_site_label
_atom_site_type_symbol
_atom_site_fract_x
_atom_site_fract_y
_atom_site_fract_z
_atom_type_partial_charge
Tb0 Tb 0.13252 0.59348 0.15187 0.0
Eu1 Eu 0.08858 0.6406 0.15242 0.0
C2 C 0.11981 0.62115 0.19372 0.0
C3 C 1.03958 0.54724 0.15413 0.0
C4 C 0.20043 0.55799 0.16589 0.0
C5 C 0.2268 0.53104 0.19075 0.0
C6 C 0.1957 0.533 0.18131 0.0
C7 C 0.23727 0.58242 0.16084 0.0
C8 C 0.26846 0.58037 0.17029 0.0
C9 C 0.26327 0.55376 0.18484 0.0
C10 C 0.16626 0.55567 0.15427 0.0
O11 O 0.10726 0.58561 0.11956 0.0
O12 O 0.10215 0.63893 0.11933 0.0
O13 O 0.15209 0.68733 0.15838 0.0
O14 O 0.18074 0.65304 0.15024 0.0
C15 C 0.10336 0.61101 0.10932 0.0
O16 O 1.04657 0.65449 0.13855 0.0
O17 O 0.08262 0.68578 0.16737 0.0
O18 O 0.08944 0.62 0.18421 0.0
O19 O 0.14576 0.62201 0.18292 0.0
O20 O 0.07297 0.5484 0.15621 0.0
O21 O 1.03854 0.57866 0.15065 0.0
C22 C 0.18322 0.68635 0.15507 0.0
O23 O 0.13925 0.55083 0.1653 0.0
O24 O 0.17101 0.57946 0.14021 0.0
C25 C 1.01925 0.67385 0.16321 0.0
C26 C 0.94926 0.65547 0.1774 0.0
C27 C 0.95873 0.67223 0.15853 0.0
C28 C 0.99345 0.68143 0.15156 0.0
C29 C 1.0108 0.65865 0.18249 0.0
C30 C 0.9762 0.6498 0.1896 0.0
C31 C 1.05313 0.67898 0.15421 0.0
H32 H 0.22203 0.51051 0.20205 0.0
H33 H 0.16761 0.51385 0.1855 0.0
H34 H 0.24184 0.602 0.14902 0.0
H35 H 0.29618 0.59794 0.16523 0.0
H36 H 0.93851 0.67634 0.14847 0.0
H37 H 0.99943 0.69296 0.13661 0.0
H38 H 1.03032 0.65243 0.19174 0.0
H39 H 0.97006 0.63737 0.20431 0.0
Tb40 Tb 0.62331 0.12758 0.48922 0.0
Eu41 Eu 0.53207 0.08569 0.48008 0.0
C42 C 0.57435 0.09611 0.52535 0.0
C43 C 0.57652 1.03523 0.48485 0.0
C44 C 0.7249 0.2036 0.50299 0.0
C45 C 0.78557 0.25205 0.52137 0.0
C46 C 0.75676 0.21412 0.51766 0.0
C47 C 0.72165 0.23147 0.49226 0.0
C48 C 0.75074 0.26954 0.49584 0.0
C49 C 0.78301 0.28011 0.51041 0.0
C50 C 0.69439 0.16381 0.50036 0.0
O51 O 0.61527 0.1304 0.45555 0.0
O52 O 0.55006 0.09302 0.4478 0.0
O53 O 0.55044 0.14839 0.47685 0.0
O54 O 0.61008 0.17443 0.4949 0.0
C55 C 0.58418 0.113 0.44198 0.0
O56 O 0.47697 1.04045 0.46483 0.0
O57 O 0.47941 0.08318 0.48679 0.0
O58 O 0.54725 0.0994 0.51492 0.0
O59 O 0.60137 0.09651 0.51584 0.0
O60 O 0.60889 0.06713 0.48313 0.0
O61 O 0.54474 1.0366 0.48592 0.0
C62 C 0.58123 0.17841 0.48667 0.0
O63 O 0.66897 0.15525 0.51308 0.0
O64 O 0.67891 0.14861 0.48139 0.0
C65 C 0.4285 1.02109 0.48645 0.0
C66 C 0.37183 0.96112 0.50539 0.0
C67 C 0.36267 0.98394 0.49298 0.0
C68 C 0.39085 1.01368 0.48353 0.0
C69 C 0.43822 0.9998 0.49966 0.0
C70 C 0.41011 0.96998 0.509 0.0
C71 C 0.4576 0.05083 0.47565 0.0
H72 H 0.81043 0.25923 0.53238 0.0
H73 H 0.75937 0.19293 0.52624 0.0
H74 H 0.69675 0.2238 0.48117 0.0
H75 H 0.74815 0.29066 0.48719 0.0
H76 H 0.33356 0.97813 0.4901 0.0
H77 H 0.3831 1.03033 0.4736 0.0
H78 H 0.46736 1.00553 0.50224 0.0
H79 H 0.41815 0.95269 0.51816 0.0
Tb80 Tb 0.59801 0.61013 0.82218 0.0
Eu81 Eu 0.54976 0.51989 0.81003 0.0
C82 C 0.57539 0.55413 0.8566 0.0
C83 C 0.64425 0.56376 0.81804 0.0
C84 C 0.63342 0.7072 0.8478 0.0
C85 C 0.6648 0.7665 0.86994 0.0
C86 C 0.66682 0.73929 0.85729 0.0
C87 C 0.59778 0.70153 0.85189 0.0
C88 C 0.5957 0.72893 0.86448 0.0
C89 C 0.62922 0.76212 0.87327 0.0
C90 C 0.63665 0.68029 0.83366 0.0
O91 O 0.60115 0.60301 0.78867 0.0
O92 O 0.5471 0.54532 0.78008 0.0
O93 O 0.50402 0.53517 0.81715 0.0
O94 O 0.5385 0.60037 0.81933 0.0
C95 C 0.57461 0.57701 0.77455 0.0
O96 O 0.53478 0.46801 0.7909 0.0
O97 O 0.50423 0.46516 0.81717 0.0
O98 O 0.57586 0.52971 0.84323 0.0
O99 O 0.57465 0.58396 0.85017 0.0
O100 O 0.64356 0.59441 0.82507 0.0
O101 O 0.61203 0.53315 0.80971 0.0
C102 C 0.50533 0.56836 0.81907 0.0
O103 O 0.64174 0.65471 0.84262 0.0
O104 O 0.61205 0.66594 0.81679 0.0
C105 C 0.51586 0.41539 0.81059 0.0
C106 C 0.52629 0.35668 0.82553 0.0
C107 C 0.49166 0.3483 0.81383 0.0
C108 C 0.48651 0.3775 0.80641 0.0
C109 C 0.55011 0.42403 0.82263 0.0
C110 C 0.55533 0.39491 0.83001 0.0
C111 C 0.51037 0.44599 0.80298 0.0
H112 H 0.69115 0.79201 0.87613 0.0
H113 H 0.69454 0.74386 0.85443 0.0
H114 H 0.57165 0.6765 0.84494 0.0
H115 H 0.56792 0.72475 0.86684 0.0
H116 H 0.46866 0.31916 0.8103 0.0
H117 H 0.45972 0.37051 0.79736 0.0
H118 H 0.57293 0.45329 0.82614 0.0
H119 H 0.58254 0.4023 0.83868 0.0
H120 H 0.5429 0.04932 0.21921 0.0
H121 H 0.64631 0.15351 0.21299 0.0
H122 H 0.57537 0.07923 0.15801 0.0
C123 C 0.56237 0.06852 0.20914 0.0
C124 C 0.55365 0.05919 0.18742 0.0
C125 C 0.59539 0.1019 0.21839 0.0
C126 C 0.62116 0.12785 0.20572 0.0
C127 C 0.61497 0.12036 0.1838 0.0
C128 C 0.5809 0.08546 0.1748 0.0
N129 N 0.64173 0.14665 0.17052 0.0
C130 C 0.67679 0.18248 0.17526 0.0
H131 H 0.58342 0.53334 0.55276 0.0
H132 H 0.57992 0.63628 0.54457 0.0
H133 H 0.58177 0.57033 0.49118 0.0
C134 C 0.58267 0.55344 0.54241 0.0
C135 C 0.58308 0.54694 0.52091 0.0
C136 C 0.58123 0.58503 0.55104 0.0
C137 C 0.58094 0.61205 0.5379 0.0
C138 C 0.58098 0.60752 0.5162 0.0
C139 C 0.58164 0.57433 0.50781 0.0
N140 N 0.58028 0.63515 0.50253 0.0
C141 C 0.57991 0.66987 0.50692 0.0
H142 H 1.01255 0.58175 0.88426 0.0
H143 H 0.11464 0.57779 0.87675 0.0
H144 H 1.03722 0.56575 0.82256 0.0
C145 C 1.03102 0.57936 0.874 0.0
C146 C 1.01986 0.57409 0.8523 0.0
C147 C 1.06464 0.58051 0.88295 0.0
C148 C 0.08867 0.57646 0.86986 0.0
C149 C 0.07972 0.57135 0.84799 0.0
C150 C 1.04466 0.56969 0.83933 0.0
N151 N 0.10493 0.56806 0.83441 0.0
C152 C 0.14096 0.56964 0.83908 0.0
H153 H 0.18931 0.63182 0.42214 0.0
H154 H 0.15047 0.51362 0.40561 0.0
H155 H 0.17543 0.55673 0.46999 0.0
C156 C 0.18136 0.6037 0.42671 0.0
C157 C 0.18329 0.59792 0.448 0.0
C158 C 0.1695 0.57358 0.41121 0.0
C159 C 0.16075 0.53752 0.41725 0.0
C160 C 0.16235 0.53134 0.43839 0.0
C161 C 0.17417 0.56169 0.45366 0.0
N162 N 0.14899 0.4939 0.44412 0.0
C163 C 0.12681 0.48135 0.46032 0.0
H164 H 0.63363 0.13817 0.75346 0.0
H165 H 0.68988 0.07457 0.74194 0.0
H166 H 0.69412 0.11708 0.80445 0.0
C167 C 0.65059 0.1258 0.75911 0.0
C168 C 0.66286 0.13004 0.78057 0.0
C169 C 0.65984 0.10563 0.74495 0.0
C170 C 0.68265 0.09056 0.75251 0.0
C171 C 0.69453 0.0941 0.77391 0.0
C172 C 0.68443 0.11372 0.78791 0.0
N173 N 0.71583 0.07692 0.78111 0.0
C174 C 0.71221 0.06226 0.80037 0.0
H175 H 0.59978 0.49003 0.0771 0.0
H176 H 0.4794 0.41016 0.06248 0.0
H177 H 0.53367 0.43078 0.12548 0.0
C178 C 0.57276 0.46957 0.08195 0.0
C179 C 0.5708 0.46225 0.10302 0.0
C180 C 0.53999 0.45107 0.06714 0.0
C181 C 0.50504 0.42459 0.07362 0.0
C182 C 0.50262 0.41767 0.09465 0.0
C183 C 0.53561 0.43623 0.10922 0.0
N184 N 0.46651 0.39379 0.10118 0.0
C185 C 0.45765 0.4034 0.11984 0.0
H186 H 0.33917 0.60455 0.19786 0.0
H187 H 0.39112 0.59003 0.20172 0.0
H188 H 0.30872 0.47034 0.18896 0.0
H189 H 0.25725 0.48444 0.18567 0.0
H190 H 0.36953 0.48224 0.21646 0.0
H191 H 0.41808 0.56484 0.14736 0.0
H192 H 0.41915 0.59026 0.17088 0.0
H193 H 0.37414 0.5548 0.15688 0.0
C194 C 0.33227 0.57514 0.19635 0.0
C195 C 0.29423 0.54566 0.19124 0.0
C196 C 0.36189 0.56689 0.19854 0.0
C197 C 0.35381 0.52916 0.19514 0.0
C198 C 0.31567 0.49966 0.19168 0.0
H199 H 0.39316 0.37509 0.13806 0.0
H200 H 0.37878 0.41011 0.16387 0.0
C201 C 0.28619 0.50779 0.18979 0.0
C202 C 0.38395 0.5199 0.19193 0.0
H203 H 0.4394 0.52286 0.15482 0.0
C204 C 0.38568 0.49185 0.20332 0.0
C205 C 0.40523 0.53264 0.17486 0.0
C206 C 0.40408 0.56211 0.16167 0.0
C207 C 0.40535 0.47385 0.19696 0.0
C208 C 0.42355 0.4842 0.17878 0.0
C209 C 0.42518 0.51489 0.16872 0.0
C210 C 0.43532 0.46007 0.16772 0.0
C211 C 0.40484 0.44266 0.20911 0.0
C212 C 0.47195 0.47629 0.16153 0.0
C213 C 0.47997 0.45637 0.14671 0.0
C214 C 0.45146 0.42012 0.13793 0.0
C215 C 0.41558 0.4029 0.14492 0.0
C216 C 0.40753 0.42278 0.15977 0.0
H217 H 0.40258 0.44737 0.22583 0.0
H218 H 0.37955 0.41506 0.20273 0.0
H219 H 0.43087 0.44069 0.20795 0.0
H220 H 0.49356 0.50518 0.16723 0.0
H221 H 0.50774 0.47023 0.14126 0.0
H222 H 0.82454 0.32384 0.5466 0.0
H223 H 0.88809 0.3806 0.54987 0.0
H224 H 0.87993 0.37968 0.48274 0.0
H225 H 0.81664 0.32383 0.4795 0.0
H226 H 0.94304 0.37459 0.53673 0.0
H227 H 0.9406 0.49119 0.49792 0.0
H228 H 0.89805 0.45276 0.50618 0.0
H229 H 0.91189 0.44854 0.4809 0.0
C230 C 0.83592 0.33668 0.53261 0.0
C231 C 0.81598 0.31928 0.51278 0.0
C232 C 0.87209 0.36915 0.5345 0.0
C233 C 0.88879 0.3846 0.51658 0.0
C234 C 0.8674 0.36906 0.49685 0.0
H235 H 0.07398 0.41098 0.46765 0.0
H236 H 1.02194 0.39481 0.48873 0.0
C237 C 0.83118 0.33685 0.49497 0.0
C238 C 0.93047 0.41076 0.51785 0.0
H239 H 0.99488 0.48118 0.49185 0.0
C240 C 0.95462 0.39879 0.52752 0.0
C241 C 0.94608 0.44297 0.50638 0.0
C242 C 0.92269 0.45976 0.4975 0.0
C243 C 0.99271 0.41513 0.5238 0.0
C244 C 1.00656 0.44342 0.50971 0.0
C245 C 0.98393 0.45867 0.50221 0.0
C246 C 1.04144 0.45319 0.50003 0.0
C247 C 1.01704 0.40041 0.53407 0.0
C248 C 0.06956 0.49129 0.49931 0.0
C249 C 0.09903 0.50043 0.48712 0.0
C250 C 0.10064 0.47158 0.47554 0.0
C251 C 0.07347 0.43349 0.47681 0.0
C252 C 1.04396 0.42433 0.48894 0.0
H253 H 1.00889 0.39153 0.54974 0.0
H254 H 1.01239 0.37499 0.52446 0.0
H255 H 1.04786 0.42216 0.53575 0.0
H256 H 0.06786 0.51396 0.50751 0.0
H257 H 0.11944 0.53009 0.48606 0.0
H258 H 0.67281 0.80947 0.90832 0.0
H259 H 0.68456 0.87389 0.91646 0.0
H260 H 0.59544 0.85348 0.86728 0.0
H261 H 0.58341 0.78966 0.85941 0.0
H262 H 0.71309 0.91847 0.88807 0.0
H263 H 0.58948 0.93019 0.90341 0.0
H264 H 0.59168 0.88767 0.90799 0.0
H265 H 0.57295 0.89323 0.88269 0.0
C266 C 0.6547 0.81833 0.89988 0.0
C267 C 0.62772 0.79484 0.88295 0.0
C268 C 0.66127 0.85505 0.90464 0.0
C269 C 0.64102 0.86878 0.89249 0.0
C270 C 0.61097 0.8436 0.87727 0.0
H271 H 0.65339 0.99339 0.80327 0.0
H272 H 0.63973 0.95772 0.83407 0.0
C273 C 0.60423 0.8069 0.87263 0.0
C274 C 0.65729 0.91027 0.89123 0.0
H275 H 0.62708 0.97121 0.87594 0.0
C276 C 0.69486 0.93085 0.88635 0.0
C277 C 0.63397 0.92692 0.88933 0.0
C278 C 0.59493 0.90831 0.8964 0.0
C279 C 0.70744 0.96439 0.87642 0.0
C280 C 0.68184 0.97782 0.87159 0.0
C281 C 0.64639 0.9604 0.87929 0.0
C282 C 0.68739 1.00273 0.85455 0.0
C283 C 0.74621 0.98244 0.86892 0.0
C284 C 0.71832 1.04014 0.85596 0.0
C285 C 0.72637 0.06035 0.83822 0.0
C286 C 0.7034 1.04326 0.8191 0.0
C287 C 0.67154 1.00677 0.81794 0.0
C288 C 0.66357 0.98662 0.83554 0.0
H289 H 0.76172 0.96705 0.87305 0.0
H290 H 0.74324 0.98306 0.8517 0.0
H291 H 0.76387 1.01221 0.87603 0.0
H292 H 0.73682 0.05315 0.87054 0.0
H293 H 0.75088 0.0888 0.83932 0.0
H294 H 0.90229 0.68575 0.17193 0.0
H295 H 0.83325 0.6514 0.17117 0.0
H296 H 0.83752 0.55565 0.19504 0.0
H297 H 0.90618 0.58867 0.19444 0.0
H298 H 0.79608 0.53612 0.15889 0.0
H299 H 0.74885 0.61589 0.20661 0.0
H300 H 0.78184 0.64662 0.19001 0.0
H301 H 0.79751 0.62558 0.20988 0.0
C302 C 0.88866 0.65765 0.17739 0.0
C303 C 0.90975 0.63967 0.18274 0.0
C304 C 0.84914 0.63827 0.17734 0.0
C305 C 0.83012 0.60092 0.1831 0.0
C306 C 0.85162 0.58449 0.19057 0.0
H307 H 0.59338 0.43179 0.13454 0.0
H308 H 0.65269 0.46344 0.15863 0.0
C309 C 0.89105 0.60359 0.19032 0.0
C310 C 0.78841 0.57669 0.17706 0.0
H311 H 0.70401 0.57585 0.1762 0.0
C312 C 0.77577 0.54422 0.16318 0.0
C313 C 0.76196 0.58741 0.18249 0.0
C314 C 0.77326 0.62059 0.19825 0.0
C315 C 0.73806 0.52366 0.15353 0.0
C316 C 0.71214 0.53562 0.15808 0.0
C317 C 0.72412 0.56691 0.17273 0.0
C318 C 0.67374 0.51804 0.14615 0.0
C319 C 0.72689 0.49075 0.13752 0.0
C320 C 0.66554 0.53874 0.13172 0.0
C321 C 0.63165 0.52086 0.11803 0.0
C322 C 0.60543 0.48196 0.11857 0.0
C323 C 0.61297 0.46179 0.13375 0.0
C324 C 0.64685 0.47975 0.14748 0.0
H325 H 0.752 0.48919 0.13337 0.0
H326 H 0.70747 0.4637 0.14387 0.0
H327 H 0.71148 0.49309 0.12305 0.0
H328 H 0.68603 0.56836 0.1305 0.0
H329 H 0.62624 0.53734 0.10682 0.0
H330 H 0.37174 0.92975 0.54249 0.0
H331 H 0.32978 0.86328 0.54879 0.0
H332 H 0.26165 0.84503 0.48976 0.0
H333 H 0.30332 0.91061 0.48318 0.0
H334 H 0.21969 0.79965 0.52286 0.0
H335 H 0.35046 0.79346 0.51006 0.0
H336 H 0.35305 0.8247 0.53131 0.0
H337 H 0.34692 0.83492 0.50488 0.0
C338 C 0.34724 0.91176 0.5311 0.0
C339 C 0.34138 0.92523 0.51211 0.0
C340 C 0.32321 0.87394 0.53481 0.0
C341 C 0.29312 0.84924 0.51957 0.0
C342 C 0.28474 0.86373 0.50174 0.0
H343 H 0.16272 0.65245 0.44692 0.0
H344 H 0.18535 0.70789 0.47159 0.0
C345 C 0.30867 0.90138 0.498 0.0
C346 C 0.27528 0.80758 0.51959 0.0
H347 H 0.29233 0.73731 0.50392 0.0
C348 C 0.2356 0.7857 0.51936 0.0
C349 C 0.29623 0.78948 0.51527 0.0
C350 C 0.339 0.81164 0.51529 0.0
C351 C 0.21593 0.74653 0.51317 0.0
C352 C 0.23648 0.72935 0.50648 0.0
C353 C 0.2765 0.75051 0.50886 0.0
C354 C 0.21762 0.69229 0.49365 0.0
C355 C 0.17323 0.72442 0.51301 0.0
C356 C 0.22868 0.6652 0.49752 0.0
C357 C 0.21696 0.6341 0.48294 0.0
C358 C 0.19378 0.62942 0.46424 0.0
C359 C 0.18125 0.6556 0.46092 0.0
C360 C 0.19339 0.68689 0.47533 0.0
H361 H 0.16471 0.73527 0.5263 0.0
H362 H 0.15935 0.72833 0.49843 0.0
H363 H 0.16243 0.69358 0.51391 0.0
H364 H 0.24775 0.66901 0.51141 0.0
H365 H 0.22737 0.61464 0.48596 0.0
H366 H 0.50722 0.29166 0.80189 0.0
H367 H 0.52758 0.24594 0.80919 0.0
H368 H 0.58321 0.30613 0.86972 0.0
H369 H 0.56269 0.35239 0.86246 0.0
H370 H 0.63127 0.29842 0.8482 0.0
H371 H 0.50202 0.15797 0.84331 0.0
H372 H 0.49754 0.1818 0.82137 0.0
H373 H 0.50075 0.20147 0.84743 0.0
C374 C 0.52259 0.2945 0.81706 0.0
C375 C 0.53347 0.32575 0.83155 0.0
C376 C 0.53408 0.26813 0.82129 0.0
C377 C 0.55637 0.27217 0.84017 0.0
C378 C 0.56573 0.30229 0.85514 0.0
H379 H 0.63407 0.10951 0.81766 0.0
H380 H 0.61318 0.14361 0.84023 0.0
C381 C 0.55425 0.32882 0.85089 0.0
C382 C 0.57493 0.24886 0.8423 0.0
H383 H 0.55672 0.15937 0.82824 0.0
C384 C 0.61497 0.2678 0.84458 0.0
C385 C 0.55394 0.20882 0.8382 0.0
C386 C 0.51118 0.18642 0.8377 0.0
C387 C 0.63421 0.24838 0.84014 0.0
C388 C 0.61276 0.20939 0.83288 0.0
C389 C 0.57314 0.18953 0.8333 0.0
C390 C 0.62958 0.1908 0.82121 0.0
C391 C 0.67718 0.27034 0.84194 0.0
C392 C 0.64557 0.20605 0.80308 0.0
C393 C 0.65729 0.18674 0.79024 0.0
C394 C 0.65302 0.15162 0.79518 0.0
C395 C 0.63791 0.13672 0.81361 0.0
C396 C 0.62597 0.15607 0.82647 0.0
H397 H 0.68933 0.29357 0.8548 0.0
H398 H 0.68942 0.25159 0.84477 0.0
H399 H 0.68605 0.28365 0.82723 0.0
H400 H 0.6477 0.2323 0.79842 0.0
H401 H 0.66914 0.19899 0.77623 0.0
H402 H 0.5165 0.96223 0.49 0.0
H403 H 0.51728 0.90275 0.49422 0.0
H404 H 0.63712 0.96074 0.48807 0.0
H405 H 0.63656 1.02019 0.48426 0.0
H406 H 0.52881 0.85453 0.47227 0.0
H407 H 0.64488 0.91043 0.53783 0.0
H408 H 0.6236 0.93774 0.52858 0.0
H409 H 0.65998 0.93619 0.51538 0.0
C410 C 0.54322 0.96265 0.48957 0.0
C411 C 0.5765 0.99724 0.4868 0.0
C412 C 0.54367 0.92803 0.49202 0.0
C413 C 0.57746 0.92593 0.49207 0.0
C414 C 0.61054 0.9604 0.4889 0.0
H415 H 0.6394 0.74243 0.5035 0.0
H416 H 0.63803 0.80184 0.49997 0.0
C417 C 0.61011 0.99497 0.48644 0.0
C418 C 0.57787 0.88815 0.49501 0.0
H419 H 0.62596 0.84912 0.52191 0.0
C420 C 0.55009 0.85371 0.4833 0.0
C421 C 0.60525 0.88533 0.50927 0.0
C422 C 0.63487 0.91926 0.52364 0.0
C423 C 0.54949 0.81829 0.48492 0.0
C424 C 0.57692 0.81548 0.49916 0.0
C425 C 0.60466 0.84992 0.51089 0.0
C426 C 0.57767 0.77783 0.50195 0.0
C427 C 0.51991 0.78438 0.47053 0.0
C428 C 0.54473 0.74295 0.50485 0.0
C429 C 0.54559 0.70849 0.50695 0.0
C430 C 0.57952 0.70696 0.50656 0.0
C431 C 0.61261 0.74182 0.50411 0.0
C432 C 0.61176 0.77628 0.50201 0.0
H433 H 0.50974 0.7932 0.45639 0.0
H434 H 0.5313 0.76605 0.46548 0.0
H435 H 0.49489 0.76728 0.47882 0.0
H436 H 0.51792 0.74215 0.50563 0.0
H437 H 0.51929 0.68273 0.50871 0.0
H438 H 0.71624 0.61916 0.83761 0.0
H439 H 0.77695 0.61947 0.84139 0.0
H440 H 0.72182 0.5087 0.80752 0.0
H441 H 0.66099 0.50834 0.80366 0.0
H442 H 0.80335 0.57814 0.86046 0.0
H443 H 0.81322 0.55725 0.77685 0.0
H444 H 0.77851 0.5681 0.78551 0.0
H445 H 0.77027 0.52031 0.78513 0.0
C446 C 0.71672 0.59476 0.83077 0.0
C447 C 0.68258 0.56383 0.82012 0.0
C448 C 0.75204 0.59494 0.83302 0.0
C449 C 0.75561 0.56447 0.82449 0.0
C450 C 0.72143 0.53339 0.81394 0.0
H451 H 0.95438 0.52143 0.82476 0.0
H452 H 0.89207 0.51839 0.81808 0.0
C453 C 0.68597 0.53306 0.81183 0.0
C454 C 0.79435 0.56503 0.82722 0.0
H455 H 0.85929 0.55437 0.80083 0.0
C456 C 0.81536 0.57307 0.84726 0.0
C457 C 0.81129 0.55817 0.81041 0.0
C458 C 0.79243 0.55081 0.78823 0.0
C459 C 0.85099 0.57378 0.85094 0.0
C460 C 0.86842 0.56768 0.83409 0.0
C461 C 0.84723 0.55931 0.81404 0.0
C462 C 0.90822 0.57037 0.83702 0.0
C463 C 0.86873 0.57968 0.87328 0.0
C464 C 0.94019 0.60116 0.8492 0.0
C465 C 0.97599 0.60283 0.85306 0.0
C466 C 0.98264 0.5743 0.84464 0.0
C467 C 0.95139 0.54439 0.83151 0.0
C468 C 0.91516 0.54252 0.82777 0.0
H469 H 0.84681 0.57026 0.88418 0.0
H470 H 0.88433 0.5639 0.87567 0.0
H471 H 0.889 0.61045 0.87751 0.0
H472 H 0.93762 0.62431 0.856 0.0
H473 H 0.99873 0.62666 0.86313 0.0
H474 H 0.25558 0.70098 0.14601 0.0
H475 H 0.3167 0.76164 0.14969 0.0
H476 H 0.26151 0.81979 0.17256 0.0
H477 H 0.20075 0.75965 0.1689 0.0
H478 H 0.34427 0.8315 0.13278 0.0
H479 H 0.35118 0.86082 0.21756 0.0
H480 H 0.31747 0.81509 0.20385 0.0
H481 H 0.30802 0.85384 0.20315 0.0
C482 C 0.2562 0.72655 0.15189 0.0
C483 C 0.22207 0.7242 0.15718 0.0
C484 C 0.29169 0.76179 0.15398 0.0
C485 C 0.29527 0.7966 0.16183 0.0
C486 C 0.26107 0.79421 0.16693 0.0
H487 H 0.48089 1.03766 0.19638 0.0
H488 H 0.42161 0.97651 0.18924 0.0
C489 C 0.22563 0.75918 0.16465 0.0
C490 C 0.33397 0.83492 0.16457 0.0
H491 H 0.39598 0.91123 0.20024 0.0
C492 C 0.35546 0.84866 0.14764 0.0
C493 C 0.34993 0.85866 0.18377 0.0
C494 C 0.33074 0.84631 0.20319 0.0
C495 C 0.39037 0.88462 0.1491 0.0
C496 C 0.4064 0.90847 0.16835 0.0
C497 C 0.38497 0.89433 0.1853 0.0
C498 C 0.44412 0.948 0.17134 0.0
C499 C 0.40872 0.89719 0.12946 0.0
C500 C 0.47856 0.95497 0.16371 0.0
C501 C 0.51315 0.99113 0.16752 0.0
C502 C 0.51546 1.02225 0.17946 0.0
C503 C 0.48104 1.01527 0.1869 0.0
C504 C 0.44659 0.97951 0.18293 0.0
H505 H 0.38764 0.88303 0.11528 0.0
H506 H 0.4221 0.92844 0.12895 0.0
H507 H 0.43103 0.88922 0.12886 0.0
H508 H 0.4794 0.93199 0.15534 0.0
H509 H 0.53865 0.99411 0.16191 0.0
H510 H 0.52989 0.19969 0.46906 0.0
H511 H 0.53159 0.26072 0.4729 0.0
H512 H 0.63638 0.30727 0.5146 0.0
H513 H 0.6355 0.24675 0.51006 0.0
H514 H 0.52558 0.30289 0.50011 0.0
H515 H 0.67257 0.3958 0.4831 0.0
H516 H 0.65008 0.34477 0.47953 0.0
H517 H 0.67214 0.36987 0.505 0.0
C518 C 0.5537 0.22291 0.47892 0.0
C519 C 0.58276 0.21725 0.48899 0.0
C520 C 0.5546 0.25841 0.48121 0.0
C521 C 0.58461 0.29055 0.49374 0.0
C522 C 0.61332 0.2846 0.50413 0.0
H523 H 0.63217 0.52284 0.53721 0.0
H524 H 0.63149 0.46306 0.52993 0.0
C525 C 0.61261 0.24918 0.50167 0.0
C526 C 0.58509 0.32915 0.49622 0.0
H527 H 0.64274 0.42704 0.49788 0.0
C528 C 0.55138 0.3298 0.49938 0.0
C529 C 0.61817 0.36559 0.49535 0.0
C530 C 0.65514 0.36907 0.49034 0.0
C531 C 0.55006 0.36428 0.50216 0.0
C532 C 0.58327 0.40063 0.50166 0.0
C533 C 0.61692 0.40003 0.49842 0.0
C534 C 0.58416 0.43916 0.5052 0.0
C535 C 0.5129 0.36127 0.50636 0.0
C536 C 0.55872 0.44818 0.49354 0.0
C537 C 0.55941 0.48342 0.49759 0.0
C538 C 0.58545 0.51145 0.51359 0.0
C539 C 0.61146 0.5027 0.52475 0.0
C540 C 0.61107 0.4679 0.52057 0.0
H541 H 0.49325 0.33327 0.51179 0.0
H542 H 0.51781 0.38406 0.5183 0.0
H543 H 0.49856 0.36441 0.49173 0.0
H544 H 0.53796 0.42782 0.4812 0.0
H545 H 0.53852 0.48808 0.4886 0.0
H546 H 0.43062 0.50838 0.81931 0.0
H547 H 0.37182 0.50972 0.82297 0.0
H548 H 0.4354 0.63209 0.82843 0.0
H549 H 0.49412 0.6308 0.82438 0.0
H550 H 0.34359 0.53182 0.85147 0.0
H551 H 0.35143 0.62157 0.78787 0.0
H552 H 0.38321 0.60283 0.79164 0.0
H553 H 0.39263 0.64499 0.80712 0.0
C554 C 0.43239 0.53578 0.82111 0.0
C555 C 0.46822 0.56946 0.82126 0.0
C556 C 0.39817 0.53654 0.82331 0.0
C557 C 0.3975 0.57099 0.82561 0.0
C558 C 0.43345 0.60471 0.82605 0.0
H559 H 0.21455 0.631 0.84071 0.0
H560 H 0.27459 0.63106 0.83811 0.0
C561 C 0.46773 0.60397 0.82387 0.0
C562 C 0.35986 0.57137 0.82799 0.0
H563 H 0.30426 0.60962 0.81014 0.0
C564 C 0.33523 0.54882 0.84223 0.0
C565 C 0.34743 0.59331 0.8163 0.0
C566 C 0.3698 0.61675 0.79973 0.0
C567 C 0.30048 0.54821 0.84535 0.0
C568 C 0.28797 0.57005 0.83361 0.0
C569 C 0.31265 0.59267 0.8194 0.0
C570 C 0.24999 0.56988 0.83577 0.0
C571 C 0.27822 0.52486 0.86198 0.0
C572 C 0.21434 0.53578 0.83524 0.0
C573 C 0.17959 0.53581 0.83691 0.0
C574 C 0.17836 0.56989 0.83911 0.0
C575 C 0.21373 0.604 0.83943 0.0
C576 C 0.24853 0.60399 0.83776 0.0
H577 H 0.29682 0.52062 0.87399 0.0
H578 H 0.26437 0.5385 0.86988 0.0
H579 H 0.25579 0.49636 0.85469 0.0
H580 H 0.21297 0.50863 0.83303 0.0
H581 H 0.15333 0.50877 0.83608 0.0
H582 H 0.96397 0.53214 0.15255 0.0
H583 H 0.90525 0.4728 0.15675 0.0
H584 H 0.96964 0.41534 0.16445 0.0
H585 H 1.02834 0.4747 0.16075 0.0
H586 H 0.86145 0.40515 0.13753 0.0
H587 H 0.91332 0.37453 0.21212 0.0
H588 H 0.94052 0.41907 0.20119 0.0
H589 H 0.94226 0.37758 0.19219 0.0
C590 C 0.966 0.50705 0.15523 0.0
C591 C 1.00218 0.50951 0.15635 0.0
C592 C 0.93178 0.47247 0.15765 0.0
C593 C 0.93153 0.43819 0.16153 0.0
C594 C 0.96766 0.44056 0.16227 0.0
H595 H 0.75146 0.19695 0.17806 0.0
H596 H 0.81054 0.25686 0.17475 0.0
C597 C 1.00186 0.47511 0.15987 0.0
C598 C 0.894 0.40054 0.16429 0.0
H599 H 0.85433 0.32473 0.19472 0.0
C600 C 0.86027 0.38799 0.15022 0.0
C601 C 0.89061 0.37658 0.18066 0.0
C602 C 0.92344 0.38774 0.19752 0.0
C603 C 0.82517 0.35335 0.15162 0.0
C604 C 0.8218 0.32938 0.16798 0.0
C605 C 0.85552 0.34191 0.18205 0.0
C606 C 0.7843 0.29165 0.17066 0.0
C607 C 0.79226 0.34223 0.13482 0.0
C608 C 0.74819 0.28929 0.17013 0.0
C609 C 0.71393 0.25451 0.17213 0.0
C610 C 0.71369 0.22006 0.17506 0.0
C611 C 0.74973 0.22239 0.17604 0.0
C612 C 0.78404 0.2572 0.17406 0.0
H613 H 0.80227 0.35566 0.12026 0.0
H614 H 0.77532 0.31092 0.13105 0.0
H615 H 0.77333 0.35214 0.14027 0.0
H616 H 0.74624 0.3146 0.16825 0.0
H617 H 0.68728 0.25462 0.17116 0.0
H618 H 0.10975 0.55999 0.08348 0.0
H619 H 0.10678 0.55611 0.04544 0.0
H620 H 0.08704 0.6508 0.04403 0.0
H621 H 0.09075 0.65539 0.08213 0.0
H622 H 1.0502 0.54242 0.01505 0.0
H623 H 0.17343 0.6854 0.00905 0.0
H624 H 0.16372 0.66456 0.03355 0.0
H625 H 0.13801 0.68689 0.02298 0.0
C626 C 0.10489 0.58013 0.07514 0.0
C627 C 0.10072 0.60818 0.08602 0.0
C628 C 0.10319 0.57785 0.05331 0.0
C629 C 0.09741 0.60359 0.04173 0.0
C630 C 0.09256 0.6312 0.05253 0.0
H631 H 1.06059 0.63072 0.91053 0.0
H632 H 0.06987 0.63546 0.94869 0.0
C633 C 0.0944 0.63361 0.07438 0.0
C634 C 0.0955 0.60087 0.01841 0.0
H635 H 0.13383 0.65191 0.97729 0.0
C636 C 0.06873 0.56631 0.00683 0.0
C637 C 0.1197 0.63192 0.00754 0.0
C638 C 0.15059 0.66916 0.01891 0.0
C639 C 1.06475 0.56229 0.98484 0.0
C640 C 0.08854 0.59351 0.97398 0.0
C641 C 0.11555 0.62795 0.98554 0.0
C642 C 0.08479 0.59143 0.95064 0.0
C643 C 1.03426 0.52495 0.97337 0.0
C644 C 0.09101 0.56575 0.93886 0.0
C645 C 0.0857 0.56295 0.91692 0.0
C646 C 0.07396 0.58572 0.90626 0.0
C647 C 0.06904 0.61228 0.91816 0.0
C648 C 0.07451 0.61517 0.94003 0.0
H649 H 1.01296 0.50691 0.9836 0.0
H650 H 1.01912 0.52973 0.95965 0.0
H651 H 1.04775 0.50904 0.96766 0.0
H652 H 0.09965 0.54759 0.94664 0.0
H653 H 0.08968 0.54215 0.90831 0.0
H654 H 0.64792 0.13356 0.4224 0.0
H655 H 0.65284 0.13516 0.38498 0.0
H656 H 0.53377 0.10127 0.37241 0.0
H657 H 0.52832 0.09796 0.40973 0.0
H658 H 0.54773 0.06283 0.3461 0.0
H659 H 0.66264 0.2122 0.34647 0.0
H660 H 0.6776 0.18614 0.36283 0.0
H661 H 0.63952 0.19363 0.36925 0.0
C662 C 0.62282 0.12673 0.41169 0.0
C663 C 0.58773 0.11573 0.41919 0.0
C664 C 0.62575 0.12797 0.39021 0.0
C665 C 0.59392 0.11917 0.37564 0.0
C666 C 0.55891 0.10837 0.38316 0.0
H667 H 0.60246 0.16209 0.24297 0.0
H668 H 0.60286 0.16723 0.28106 0.0
C669 C 0.55581 0.10651 0.4046 0.0
C670 C 0.59642 0.11932 0.35257 0.0
H671 H 0.64776 0.17232 0.31493 0.0
C672 C 0.56953 0.08696 0.33935 0.0
C673 C 0.62437 0.15089 0.34344 0.0
C674 C 0.65238 0.18781 0.35621 0.0
C675 C 0.57007 0.08501 0.31759 0.0
C676 C 0.59926 0.11574 0.30859 0.0
C677 C 0.62574 0.14843 0.32171 0.0
C678 C 0.60237 0.11448 0.28564 0.0
C679 C 0.53852 0.05026 0.30446 0.0
C680 C 0.60355 0.08405 0.27545 0.0
C681 C 0.60285 0.08092 0.25373 0.0
C682 C 0.60202 0.10867 0.24164 0.0
C683 C 0.60331 0.1404 0.2519 0.0
C684 C 0.60338 0.14323 0.27367 0.0
H685 H 0.51257 1.03591 0.31248 0.0
H686 H 0.53057 0.05763 0.28914 0.0
H687 H 0.54824 1.02957 0.30169 0.0
H688 H 0.60419 0.06216 0.28425 0.0
H689 H 0.60216 0.05629 0.24628 0.0
H690 H 0.52823 0.52623 0.74134 0.0
H691 H 0.53165 0.53358 0.70417 0.0
H692 H 0.62745 0.64733 0.7185 0.0
H693 H 0.6248 0.63985 0.75592 0.0
H694 H 0.52341 0.58173 0.67982 0.0
H695 H 0.66921 0.6042 0.67824 0.0
H696 H 0.6438 0.58826 0.7006 0.0
H697 H 0.66695 0.63772 0.69597 0.0
C698 C 0.55017 0.55288 0.73669 0.0
C699 C 0.57637 0.58238 0.7518 0.0
C700 C 0.55205 0.55704 0.71532 0.0
C701 C 0.58019 0.59077 0.70834 0.0
C702 C 0.60603 0.62062 0.72335 0.0
H703 H 0.62298 0.64871 0.57906 0.0
H704 H 0.62284 0.65324 0.61712 0.0
C705 C 0.60429 0.6164 0.74482 0.0
C706 C 0.58172 0.59446 0.68537 0.0
H707 H 0.63853 0.60953 0.64667 0.0
C708 C 0.54867 0.58788 0.67264 0.0
C709 C 0.61463 0.60259 0.67581 0.0
C710 C 0.65057 0.60827 0.68829 0.0
C711 C 0.54752 0.58894 0.65082 0.0
C712 C 0.58016 0.59642 0.64125 0.0
C713 C 0.61352 0.60391 0.65396 0.0
C714 C 0.57949 0.59438 0.61803 0.0
C715 C 0.51128 0.58212 0.63815 0.0
C716 C 0.55528 0.55986 0.6058 0.0
C717 C 0.55537 0.55721 0.58414 0.0
C718 C 0.57972 0.58901 0.57404 0.0
C719 C 0.60363 0.62377 0.58626 0.0
C720 C 0.60374 0.62633 0.60805 0.0
H721 H 0.4929 0.58719 0.64793 0.0
H722 H 0.51767 0.60075 0.62518 0.0
H723 H 0.49488 0.5521 0.63131 0.0
H724 H 0.53667 0.53466 0.61308 0.0
H725 H 0.53639 0.53006 0.57525 0.0
H726 H 0.52166 0.09001 0.55107 0.0
H727 H 0.52546 0.08482 0.58888 0.0
H728 H 0.63273 0.0877 0.58829 0.0
H729 H 0.62894 0.09211 0.55085 0.0
H730 H 0.58409 1.03243 0.61158 0.0
H731 H 0.59711 0.17265 0.63281 0.0
H732 H 0.55562 0.13956 0.61527 0.0
H733 H 0.60208 0.15905 0.60693 0.0
C734 C 0.54596 0.08943 0.55903 0.0
C735 C 0.57508 0.0917 0.54797 0.0
C736 C 0.54817 0.08663 0.58061 0.0
C737 C 0.57964 0.08638 0.59139 0.0
C738 C 0.60822 0.08788 0.58028 0.0
H739 H 0.697 0.10819 0.71123 0.0
H740 H 0.67241 0.0993 0.67424 0.0
C741 C 0.606 0.09049 0.55883 0.0
C742 C 0.58385 0.08524 0.61431 0.0
H743 H 0.60194 0.13843 0.66038 0.0
C744 C 0.58757 0.05539 0.62227 0.0
C745 C 0.5884 0.11527 0.6282 0.0
C746 C 0.5859 0.14865 0.62046 0.0
C747 C 0.59689 0.05536 0.6437 0.0
C748 C 0.60284 0.08606 0.65745 0.0
C749 C 0.59744 0.11504 0.64968 0.0
C750 C 0.61687 0.08976 0.67979 0.0
C751 C 0.60096 1.02287 0.65149 0.0
C752 C 0.59379 0.08756 0.69507 0.0
C753 C 0.60759 0.09224 0.7162 0.0
C754 C 0.64496 0.09977 0.72243 0.0
C755 C 0.66796 0.10191 0.707 0.0
C756 C 0.65401 0.09694 0.68587 0.0
H757 H 0.58699 0.99756 0.63986 0.0
H758 H 0.63172 1.03199 0.65458 0.0
H759 H 0.58845 1.01458 0.66632 0.0
H760 H 0.56506 0.08208 0.69062 0.0
H761 H 0.58885 0.08972 0.72765 0.0
H762 H 0.57505 0.49411 0.87434 0.0
H763 H 0.56812 0.47906 0.91043 0.0
H764 H 0.56324 0.58056 0.92526 0.0
H765 H 0.5705 0.59621 0.88903 0.0
H766 H 0.61152 0.56795 0.95486 0.0
H767 H 0.46771 0.44005 0.93629 0.0
H768 H 0.50271 0.44014 0.92127 0.0
H769 H 0.48885 0.4755 0.91816 0.0
C770 C 0.57258 0.51337 0.88523 0.0
C771 C 0.57304 0.54626 0.87876 0.0
C772 C 0.56843 0.50457 0.90584 0.0
C773 C 0.56446 0.52832 0.92037 0.0
C774 C 0.56596 0.56173 0.91418 0.0
H775 H 0.49027 0.46412 0.04229 0.0
H776 H 0.49596 0.48426 0.0069 0.0
C777 C 0.5701 0.5706 0.8935 0.0
C778 C 0.55886 0.51807 0.94202 0.0
H779 H 0.49962 0.44824 0.97052 0.0
C780 C 0.58695 0.54195 0.95835 0.0
C781 C 0.5265 0.48438 0.94649 0.0
C782 C 0.49451 0.45868 0.92967 0.0
C783 C 0.58412 0.53235 0.97903 0.0
C784 C 0.55263 0.49775 0.98336 0.0
C785 C 0.52395 0.47452 0.96711 0.0
C786 C 0.549 0.48499 0.00463 0.0
C787 C 0.61474 0.55941 -0.00393 0.0
C788 C 0.57648 0.47787 0.01485 0.0
C789 C 0.57319 0.46614 0.03499 0.0
C790 C 0.5422 0.46107 0.04523 0.0
C791 C 0.51423 0.46735 0.03473 0.0
C792 C 0.51758 0.47911 0.01459 0.0
H793 H 0.6309 0.58863 0.99114 0.0
H794 H 0.60231 0.56061 0.01047 0.0
H795 H 0.63524 0.54936 -0.00011 0.0
H796 H 0.60045 0.48131 0.00722 0.0
H797 H 0.59487 0.46096 0.04255 0.0
H798 H 0.18233 0.62976 0.21816 0.0
H799 H 0.18891 0.62317 0.25548 0.0
H800 H 0.07499 0.60284 0.25844 0.0
H801 H 0.06798 0.60934 0.22093 0.0
H802 H 0.17984 0.66489 0.28998 0.0
H803 H 0.07721 0.50894 0.28224 0.0
H804 H 0.09857 0.53438 0.26035 0.0
H805 H 1.06078 0.53831 0.27022 0.0
C806 C 0.15868 0.62409 0.22672 0.0
C807 C 0.12453 0.61988 0.21657 0.0
C808 C 0.16255 0.62038 0.24805 0.0
C809 C 0.13229 0.61211 0.25958 0.0
C810 C 0.09847 0.60879 0.24968 0.0
H811 H 0.13921 0.61489 0.39428 0.0
H812 H 0.13055 0.62496 0.35761 0.0
C813 C 0.09461 0.6127 0.2283 0.0
C814 C 0.13624 0.60638 0.28192 0.0
H815 H 0.10496 0.5384 0.31631 0.0
C816 C 0.16338 0.63732 0.2958 0.0
C817 C 0.115 0.57022 0.28929 0.0
C818 C 0.0864 0.53588 0.27479 0.0
C819 C 0.16975 0.63307 0.31699 0.0
C820 C 0.14827 0.59699 0.3244 0.0
C821 C 0.12124 0.56601 0.31051 0.0
C822 C 0.15366 0.59088 0.34655 0.0
C823 C 0.19986 0.66695 0.33125 0.0
C824 C 0.16905 0.56791 0.35237 0.0
C825 C 0.17441 0.56235 0.37337 0.0
C826 C 0.16421 0.57949 0.38885 0.0
C827 C 0.14825 0.60202 0.38283 0.0
C828 C 0.14308 0.60769 0.36188 0.0
H829 H 0.21895 0.6906 0.32239 0.0
H830 H 0.18579 0.67755 0.3413 0.0
H831 H 0.21748 0.6588 0.3416 0.0
H832 H 0.17728 0.55465 0.34068 0.0
H833 H 0.18696 0.54504 0.37749 0.0
loop_
_geom_bond_atom_site_label_1
_geom_bond_atom_site_label_2
_geom_bond_distance
_geom_bond_site_symmetry_2
_ccdc_geom_bond_type
Tb0 C10 2.825 . S
Tb0 O11 2.347 . S
Tb0 O14 2.366 . S
Tb0 O19 2.418 . S
Tb0 O20 2.384 . S
Tb0 O23 2.479 . S
Tb0 O24 2.471 . S
Eu1 O12 2.418 . S
Eu1 O13 2.384 . S
Eu1 O16 2.479 1_455 S
Eu1 O17 2.471 1_455 S
Eu1 O18 2.347 . S
Eu1 O21 2.366 1_455 S
Eu1 C31 2.825 1_455 S
C2 O18 1.259 . S
C2 O19 1.265 . S
C3 O20 1.255 1_655 S
C3 O21 1.265 . S
C4 C6 1.380 . S
C4 C7 1.374 . S
C4 C10 1.507 . S
C5 C6 1.384 . S
C5 C9 1.387 . S
C5 H32 0.930 . S
C6 C4 1.380 . S
C6 C5 1.384 . S
C6 H33 0.931 . S
C7 C4 1.374 . S
C7 C8 1.390 . S
C7 H34 0.930 . S
C8 C7 1.390 . S
C8 C9 1.391 . S
C8 H35 0.930 . S
C9 C5 1.387 . S
C9 C8 1.391 . S
C10 Tb0 2.825 . S
C10 C4 1.507 . S
C10 O23 1.238 . S
C10 O24 1.247 . S
O11 Tb0 2.347 . S
O11 C15 1.259 . S
O12 Eu1 2.418 . S
O12 C15 1.265 . S
O13 Eu1 2.384 . S
O13 C22 1.255 . S
O14 Tb0 2.366 . S
O14 C22 1.265 . S
C15 O11 1.259 . S
C15 O12 1.265 . S
O16 Eu1 2.479 1_655 S
O16 C31 1.238 . S
O17 Eu1 2.471 1_655 S
O17 C31 1.247 . S
O18 Eu1 2.347 . S
O18 C2 1.259 . S
O19 Tb0 2.418 . S
O19 C2 1.265 . S
O20 Tb0 2.384 . S
O20 C3 1.255 1_455 S
O21 Eu1 2.366 1_655 S
O21 C3 1.265 . S
C22 O13 1.255 . S
C22 O14 1.265 . S
O23 Tb0 2.479 . S
O23 C10 1.238 . S
O24 Tb0 2.471 . S
O24 C10 1.247 . S
C25 C28 1.380 . S
C25 C29 1.374 . S
C25 C31 1.507 . S
C26 C27 1.387 . S
C26 C30 1.391 . S
C27 C26 1.387 . S
C27 C28 1.384 . S
C27 H36 0.930 . S
C28 C25 1.380 . S
C28 C27 1.384 . S
C28 H37 0.931 . S
C29 C25 1.374 . S
C29 C30 1.390 . S
C29 H38 0.930 . S
C30 C26 1.391 . S
C30 C29 1.390 . S
C30 H39 0.930 . S
C31 Eu1 2.825 1_655 S
C31 O16 1.238 . S
C31 O17 1.247 . S
C31 C25 1.507 . S
H32 C5 0.930 . S
H33 C6 0.931 . S
H34 C7 0.930 . S
H35 C8 0.930 . S
H36 C27 0.930 . S
H37 C28 0.931 . S
H38 C29 0.930 . S
H39 C30 0.930 . S
Tb40 C50 2.825 . S
Tb40 O51 2.347 . S
Tb40 O54 2.366 . S
Tb40 O59 2.418 . S
Tb40 O60 2.384 . S
Tb40 O63 2.479 . S
Tb40 O64 2.471 . S
Eu41 O52 2.418 . S
Eu41 O53 2.384 . S
Eu41 O56 2.479 1_545 S
Eu41 O57 2.471 1_545 S
Eu41 O58 2.347 . S
Eu41 O61 2.366 1_545 S
Eu41 C71 2.825 1_545 S
C42 O58 1.259 . S
C42 O59 1.265 . S
C43 O60 1.255 1_565 S
C43 O61 1.265 . S
C44 C46 1.380 . S
C44 C47 1.374 . S
C44 C50 1.507 . S
C45 C46 1.384 . S
C45 C49 1.387 . S
C45 H72 0.930 . S
C46 C44 1.380 . S
C46 C45 1.384 . S
C46 H73 0.931 . S
C47 C44 1.374 . S
C47 C48 1.390 . S
C47 H74 0.930 . S
C48 C47 1.390 . S
C48 C49 1.391 . S
C48 H75 0.930 . S
C49 C45 1.387 . S
C49 C48 1.391 . S
C50 Tb40 2.825 . S
C50 C44 1.507 . S
C50 O63 1.238 . S
C50 O64 1.247 . S
O51 Tb40 2.347 . S
O51 C55 1.259 . S
O52 Eu41 2.418 . S
O52 C55 1.265 . S
O53 Eu41 2.384 . S
O53 C62 1.255 . S
O54 Tb40 2.366 . S
O54 C62 1.265 . S
C55 O51 1.259 . S
C55 O52 1.265 . S
O56 Eu41 2.479 1_565 S
O56 C71 1.238 . S
O57 Eu41 2.471 1_565 S
O57 C71 1.247 . S
O58 Eu41 2.347 . S
O58 C42 1.259 . S
O59 Tb40 2.418 . S
O59 C42 1.265 . S
O60 Tb40 2.384 . S
O60 C43 1.255 1_545 S
O61 Eu41 2.366 1_565 S
O61 C43 1.265 . S
C62 O53 1.255 . S
C62 O54 1.265 . S
O63 Tb40 2.479 . S
O63 C50 1.238 . S
O64 Tb40 2.471 . S
O64 C50 1.247 . S
C65 C68 1.380 . S
C65 C69 1.374 . S
C65 C71 1.507 . S
C66 C67 1.387 . S
C66 C70 1.391 . S
C67 C66 1.387 . S
C67 C68 1.384 . S
C67 H76 0.930 . S
C68 C65 1.380 . S
C68 C67 1.384 . S
C68 H77 0.931 . S
C69 C65 1.374 . S
C69 C70 1.390 . S
C69 H78 0.930 . S
C70 C66 1.391 . S
C70 C69 1.390 . S
C70 H79 0.930 . S
C71 Eu41 2.825 1_565 S
C71 O56 1.238 . S
C71 O57 1.247 . S
C71 C65 1.507 . S
H72 C45 0.930 . S
H73 C46 0.931 . S
H74 C47 0.930 . S
H75 C48 0.930 . S
H76 C67 0.930 . S
H77 C68 0.931 . S
H78 C69 0.930 . S
H79 C70 0.930 . S
Tb80 C90 2.825 . S
Tb80 O91 2.347 . S
Tb80 O94 2.366 . S
Tb80 O99 2.418 . S
Tb80 O100 2.384 . S
Tb80 O103 2.479 . S
Tb80 O104 2.471 . S
Eu81 O92 2.418 . S
Eu81 O93 2.384 . S
Eu81 O96 2.479 . S
Eu81 O97 2.471 . S
Eu81 O98 2.347 . S
Eu81 O101 2.366 . S
Eu81 C111 2.825 . S
C82 O98 1.259 . S
C82 O99 1.265 . S
C83 O100 1.255 . S
C83 O101 1.265 . S
C84 C86 1.380 . S
C84 C87 1.374 . S
C84 C90 1.507 . S
C85 C86 1.384 . S
C85 C89 1.387 . S
C85 H112 0.930 . S
C86 C84 1.380 . S
C86 C85 1.384 . S
C86 H113 0.931 . S
C87 C84 1.374 . S
C87 C88 1.390 . S
C87 H114 0.930 . S
C88 C87 1.390 . S
C88 C89 1.391 . S
C88 H115 0.930 . S
C89 C85 1.387 . S
C89 C88 1.391 . S
C90 Tb80 2.825 . S
C90 C84 1.507 . S
C90 O103 1.238 . S
C90 O104 1.247 . S
O91 Tb80 2.347 . S
O91 C95 1.259 . S
O92 Eu81 2.418 . S
O92 C95 1.265 . S
O93 Eu81 2.384 . S
O93 C102 1.255 . S
O94 Tb80 2.366 . S
O94 C102 1.265 . S
C95 O91 1.259 . S
C95 O92 1.265 . S
O96 Eu81 2.479 . S
O96 C111 1.238 . S
O97 Eu81 2.471 . S
O97 C111 1.247 . S
O98 Eu81 2.347 . S
O98 C82 1.259 . S
O99 Tb80 2.418 . S
O99 C82 1.265 . S
O100 Tb80 2.384 . S
O100 C83 1.255 . S
O101 Eu81 2.366 . S
O101 C83 1.265 . S
C102 O93 1.255 . S
C102 O94 1.265 . S
O103 Tb80 2.479 . S
O103 C90 1.238 . S
O104 Tb80 2.471 . S
O104 C90 1.247 . S
C105 C108 1.380 . S
C105 C109 1.374 . S
C105 C111 1.507 . S
C106 C107 1.387 . S
C106 C110 1.391 . S
C107 C106 1.387 . S
C107 C108 1.384 . S
C107 H116 0.930 . S
C108 C105 1.380 . S
C108 C107 1.384 . S
C108 H117 0.931 . S
C109 C105 1.374 . S
C109 C110 1.390 . S
C109 H118 0.930 . S
C110 C106 1.391 . S
C110 C109 1.390 . S
C110 H119 0.930 . S
C111 Eu81 2.825 . S
C111 O96 1.238 . S
C111 O97 1.247 . S
C111 C105 1.507 . S
H112 C85 0.930 . S
H113 C86 0.931 . S
H114 C87 0.930 . S
H115 C88 0.930 . S
H116 C107 0.930 . S
H117 C108 0.931 . S
H118 C109 0.930 . S
H119 C110 0.930 . S
H120 C123 0.929 . S
H121 C126 0.929 . S
H122 C128 0.930 . S
C123 H120 0.929 . S
C123 C124 1.398 . S
C123 C125 1.396 . S
C124 C123 1.398 . S
C124 C128 1.407 . S
C125 C123 1.396 . S
C125 C126 1.394 . S
C126 H121 0.929 . S
C126 C125 1.394 . S
C126 C127 1.382 . S
C127 C126 1.382 . S
C127 C128 1.392 . S
C127 N129 1.420 . S
C128 H122 0.930 . S
C128 C124 1.407 . S
C128 C127 1.392 . S
N129 C127 1.420 . S
N129 C130 1.244 . S
C130 N129 1.244 . S
H131 C134 0.929 . S
H132 C137 0.929 . S
H133 C139 0.930 . S
C134 H131 0.929 . S
C134 C135 1.398 . S
C134 C136 1.396 . S
C135 C134 1.398 . S
C135 C139 1.407 . S
C136 C134 1.396 . S
C136 C137 1.394 . S
C137 H132 0.929 . S
C137 C136 1.394 . S
C137 C138 1.382 . S
C138 C137 1.382 . S
C138 C139 1.392 . S
C138 N140 1.420 . S
C139 H133 0.930 . S
C139 C135 1.407 . S
C139 C138 1.392 . S
N140 C138 1.420 . S
N140 C141 1.244 . S
C141 N140 1.244 . S
H142 C145 0.929 1_655 S
H143 C148 0.929 . S
H144 C150 0.930 . S
C145 H142 0.929 1_455 S
C145 C146 1.398 1_455 S
C145 C147 1.396 . S
C146 C145 1.398 1_655 S
C146 C150 1.407 1_655 S
C147 C145 1.396 . S
C147 C148 1.394 . S
C148 H143 0.929 . S
C148 C147 1.394 . S
C148 C149 1.382 . S
C149 C148 1.382 . S
C149 C150 1.392 . S
C149 N151 1.420 . S
C150 H144 0.930 . S
C150 C146 1.407 1_455 S
C150 C149 1.392 . S
N151 C149 1.420 . S
N151 C152 1.244 . S
C152 N151 1.244 . S
H153 C156 0.929 . S
H154 C159 0.929 1_655 S
H155 C161 0.930 . S
C156 H153 0.929 . S
C156 C157 1.398 . S
C156 C158 1.396 . S
C157 C156 1.398 . S
C157 C161 1.407 . S
C158 C156 1.396 . S
C158 C159 1.394 . S
C159 H154 0.929 1_455 S
C159 C158 1.394 . S
C159 C160 1.382 . S
C160 C159 1.382 . S
C160 C161 1.392 . S
C160 N162 1.420 1_455 S
C161 H155 0.930 . S
C161 C157 1.407 . S
C161 C160 1.392 . S
N162 C160 1.420 1_655 S
N162 C163 1.244 . S
C163 N162 1.244 . S
H164 C167 0.929 . S
H165 C170 0.929 1_565 S
H166 C172 0.930 . S
C167 H164 0.929 . S
C167 C168 1.398 . S
C167 C169 1.396 . S
C168 C167 1.398 . S
C168 C172 1.407 . S
C169 C167 1.396 . S
C169 C170 1.394 . S
C170 H165 0.929 1_545 S
C170 C169 1.394 . S
C170 C171 1.382 . S
C171 C170 1.382 . S
C171 C172 1.392 . S
C171 N173 1.420 1_545 S
C172 H166 0.930 . S
C172 C168 1.407 . S
C172 C171 1.392 . S
N173 C171 1.420 1_565 S
N173 C174 1.244 . S
C174 N173 1.244 . S
H175 C178 0.929 . S
H176 C181 0.929 . S
H177 C183 0.930 . S
C178 H175 0.929 . S
C178 C179 1.398 . S
C178 C180 1.396 . S
C179 C178 1.398 . S
C179 C183 1.407 . S
C180 C178 1.396 . S
C180 C181 1.394 . S
C181 H176 0.929 . S
C181 C180 1.394 . S
C181 C182 1.382 . S
C182 C181 1.382 . S
C182 C183 1.392 . S
C182 N184 1.420 . S
C183 H177 0.930 . S
C183 C179 1.407 . S
C183 C182 1.392 . S
N184 C182 1.420 . S
N184 C185 1.244 . S
C185 N184 1.244 . S
H186 C194 0.929 . S
H187 C196 0.930 . S
H188 C198 0.930 . S
H189 C201 0.929 . S
H190 C204 0.930 . S
H191 C206 0.960 . S
H192 C206 0.960 . S
H193 C206 0.960 . S
C194 H186 0.929 . S
C194 C195 1.377 . S
C194 C196 1.384 . S
C195 C194 1.377 . S
C195 C201 1.390 . S
C196 H187 0.930 . S
C196 C194 1.384 . S
C196 C197 1.372 . S
C197 C196 1.372 . S
C197 C198 1.400 . S
C197 C202 1.490 . S
C198 H188 0.930 . S
C198 C197 1.400 . S
C198 C201 1.386 . S
H199 C215 0.930 . S
H200 C216 0.931 . S
C201 H189 0.929 . S
C201 C195 1.390 . S
C201 C198 1.386 . S
C202 C197 1.490 . S
C202 C204 1.395 . S
C202 C205 1.403 . S
H203 C209 0.930 . S
C204 H190 0.930 . S
C204 C202 1.395 . S
C204 C207 1.403 . S
C205 C202 1.403 . S
C205 C206 1.524 . S
C205 C209 1.400 . S
C206 H191 0.960 . S
C206 H192 0.960 . S
C206 H193 0.960 . S
C206 C205 1.524 . S
C207 C204 1.403 . S
C207 C208 1.392 . S
C207 C211 1.495 . S
C208 C207 1.392 . S
C208 C209 1.385 . S
C208 C210 1.478 . S
C209 H203 0.930 . S
C209 C205 1.400 . S
C209 C208 1.385 . S
C210 C208 1.478 . S
C210 C212 1.381 . S
C210 C216 1.383 . S
C211 C207 1.495 . S
C211 H217 0.959 . S
C211 H218 0.961 . S
C211 H219 0.960 . S
C212 C210 1.381 . S
C212 C213 1.394 . S
C212 H220 0.930 . S
C213 C212 1.394 . S
C213 C214 1.383 . S
C213 H221 0.929 . S
C214 C213 1.383 . S
C214 C215 1.377 . S
C215 H199 0.930 . S
C215 C214 1.377 . S
C215 C216 1.379 . S
C216 H200 0.931 . S
C216 C210 1.383 . S
C216 C215 1.379 . S
H217 C211 0.959 . S
H218 C211 0.961 . S
H219 C211 0.960 . S
H220 C212 0.930 . S
H221 C213 0.929 . S
H222 C230 0.929 . S
H223 C232 0.930 . S
H224 C234 0.930 . S
H225 C237 0.929 . S
H226 C240 0.930 . S
H227 C242 0.960 . S
H228 C242 0.960 . S
H229 C242 0.960 . S
C230 H222 0.929 . S
C230 C231 1.377 . S
C230 C232 1.384 . S
C231 C230 1.377 . S
C231 C237 1.390 . S
C232 H223 0.930 . S
C232 C230 1.384 . S
C232 C233 1.372 . S
C233 C232 1.372 . S
C233 C234 1.400 . S
C233 C238 1.490 . S
C234 H224 0.930 . S
C234 C233 1.400 . S
C234 C237 1.386 . S
H235 C251 0.930 . S
H236 C252 0.931 . S
C237 H225 0.929 . S
C237 C231 1.390 . S
C237 C234 1.386 . S
C238 C233 1.490 . S
C238 C240 1.395 . S
C238 C241 1.403 . S
H239 C245 0.930 . S
C240 H226 0.930 . S
C240 C238 1.395 . S
C240 C243 1.403 . S
C241 C238 1.403 . S
C241 C242 1.524 . S
C241 C245 1.400 . S
C242 H227 0.960 . S
C242 H228 0.960 . S
C242 H229 0.960 . S
C242 C241 1.524 . S
C243 C240 1.403 . S
C243 C244 1.392 . S
C243 C247 1.495 . S
C244 C243 1.392 . S
C244 C245 1.385 . S
C244 C246 1.478 . S
C245 H239 0.930 . S
C245 C241 1.400 . S
C245 C244 1.385 . S
C246 C244 1.478 . S
C246 C248 1.381 . S
C246 C252 1.383 . S
C247 C243 1.495 . S
C247 H253 0.959 . S
C247 H254 0.961 . S
C247 H255 0.960 . S
C248 C246 1.381 . S
C248 C249 1.394 . S
C248 H256 0.930 . S
C249 C248 1.394 . S
C249 C250 1.383 . S
C249 H257 0.929 . S
C250 C249 1.383 . S
C250 C251 1.377 . S
C251 H235 0.930 . S
C251 C250 1.377 . S
C251 C252 1.379 . S
C252 H236 0.931 . S
C252 C246 1.383 . S
C252 C251 1.379 . S
H253 C247 0.959 . S
H254 C247 0.961 . S
H255 C247 0.960 . S
H256 C248 0.930 . S
H257 C249 0.929 . S
H258 C266 0.929 . S
H259 C268 0.930 . S
H260 C270 0.930 . S
H261 C273 0.929 . S
H262 C276 0.930 . S
H263 C278 0.960 . S
H264 C278 0.960 . S
H265 C278 0.960 . S
C266 H258 0.929 . S
C266 C267 1.377 . S
C266 C268 1.384 . S
C267 C266 1.377 . S
C267 C273 1.390 . S
C268 H259 0.930 . S
C268 C266 1.384 . S
C268 C269 1.372 . S
C269 C268 1.372 . S
C269 C270 1.400 . S
C269 C274 1.490 . S
C270 H260 0.930 . S
C270 C269 1.400 . S
C270 C273 1.386 . S
H271 C287 0.930 . S
H272 C288 0.931 . S
C273 H261 0.929 . S
C273 C267 1.390 . S
C273 C270 1.386 . S
C274 C269 1.490 . S
C274 C276 1.395 . S
C274 C277 1.403 . S
H275 C281 0.930 . S
C276 H262 0.930 . S
C276 C274 1.395 . S
C276 C279 1.403 . S
C277 C274 1.403 . S
C277 C278 1.524 . S
C277 C281 1.400 . S
C278 H263 0.960 . S
C278 H264 0.960 . S
C278 H265 0.960 . S
C278 C277 1.524 . S
C279 C276 1.403 . S
C279 C280 1.392 . S
C279 C283 1.495 . S
C280 C279 1.392 . S
C280 C281 1.385 . S
C280 C282 1.478 . S
C281 H275 0.930 . S
C281 C277 1.400 . S
C281 C280 1.385 . S
C282 C280 1.478 . S
C282 C284 1.381 . S
C282 C288 1.383 . S
C283 C279 1.495 . S
C283 H289 0.959 . S
C283 H290 0.961 . S
C283 H291 0.960 . S
C284 C282 1.381 . S
C284 C285 1.394 . S
C284 H292 0.930 . S
C285 C284 1.394 . S
C285 C286 1.383 . S
C285 H293 0.929 . S
C286 C285 1.383 . S
C286 C287 1.377 . S
C287 H271 0.930 . S
C287 C286 1.377 . S
C287 C288 1.379 . S
C288 H272 0.931 . S
C288 C282 1.383 . S
C288 C287 1.379 . S
H289 C283 0.959 . S
H290 C283 0.961 . S
H291 C283 0.960 . S
H292 C284 0.930 . S
H293 C285 0.929 . S
H294 C302 0.929 . S
H295 C304 0.930 . S
H296 C306 0.930 . S
H297 C309 0.929 . S
H298 C312 0.930 . S
H299 C314 0.960 . S
H300 C314 0.960 . S
H301 C314 0.960 . S
C302 H294 0.929 . S
C302 C303 1.377 . S
C302 C304 1.384 . S
C303 C302 1.377 . S
C303 C309 1.390 . S
C304 H295 0.930 . S
C304 C302 1.384 . S
C304 C305 1.372 . S
C305 C304 1.372 . S
C305 C306 1.400 . S
C305 C310 1.490 . S
C306 H296 0.930 . S
C306 C305 1.400 . S
C306 C309 1.386 . S
H307 C323 0.930 . S
H308 C324 0.931 . S
C309 H297 0.929 . S
C309 C303 1.390 . S
C309 C306 1.386 . S
C310 C305 1.490 . S
C310 C312 1.395 . S
C310 C313 1.403 . S
H311 C317 0.930 . S
C312 H298 0.930 . S
C312 C310 1.395 . S
C312 C315 1.403 . S
C313 C310 1.403 . S
C313 C314 1.524 . S
C313 C317 1.400 . S
C314 H299 0.960 . S
C314 H300 0.960 . S
C314 H301 0.960 . S
C314 C313 1.524 . S
C315 C312 1.403 . S
C315 C316 1.392 . S
C315 C319 1.495 . S
C316 C315 1.392 . S
C316 C317 1.385 . S
C316 C318 1.478 . S
C317 H311 0.930 . S
C317 C313 1.400 . S
C317 C316 1.385 . S
C318 C316 1.478 . S
C318 C320 1.381 . S
C318 C324 1.383 . S
C319 C315 1.495 . S
C319 H325 0.959 . S
C319 H326 0.961 . S
C319 H327 0.960 . S
C320 C318 1.381 . S
C320 C321 1.394 . S
C320 H328 0.930 . S
C321 C320 1.394 . S
C321 C322 1.383 . S
C321 H329 0.929 . S
C322 C321 1.383 . S
C322 C323 1.377 . S
C323 H307 0.930 . S
C323 C322 1.377 . S
C323 C324 1.379 . S
C324 H308 0.931 . S
C324 C318 1.383 . S
C324 C323 1.379 . S
H325 C319 0.959 . S
H326 C319 0.961 . S
H327 C319 0.960 . S
H328 C320 0.930 . S
H329 C321 0.929 . S
H330 C338 0.929 . S
H331 C340 0.930 . S
H332 C342 0.930 . S
H333 C345 0.929 . S
H334 C348 0.930 . S
H335 C350 0.960 . S
H336 C350 0.960 . S
H337 C350 0.960 . S
C338 H330 0.929 . S
C338 C339 1.377 . S
C338 C340 1.384 . S
C339 C338 1.377 . S
C339 C345 1.390 . S
C340 H331 0.930 . S
C340 C338 1.384 . S
C340 C341 1.372 . S
C341 C340 1.372 . S
C341 C342 1.400 . S
C341 C346 1.490 . S
C342 H332 0.930 . S
C342 C341 1.400 . S
C342 C345 1.386 . S
H343 C359 0.930 . S
H344 C360 0.931 . S
C345 H333 0.929 . S
C345 C339 1.390 . S
C345 C342 1.386 . S
C346 C341 1.490 . S
C346 C348 1.395 . S
C346 C349 1.403 . S
H347 C353 0.930 . S
C348 H334 0.930 . S
C348 C346 1.395 . S
C348 C351 1.403 . S
C349 C346 1.403 . S
C349 C350 1.524 . S
C349 C353 1.400 . S
C350 H335 0.960 . S
C350 H336 0.960 . S
C350 H337 0.960 . S
C350 C349 1.524 . S
C351 C348 1.403 . S
C351 C352 1.392 . S
C351 C355 1.495 . S
C352 C351 1.392 . S
C352 C353 1.385 . S
C352 C354 1.478 . S
C353 H347 0.930 . S
C353 C349 1.400 . S
C353 C352 1.385 . S
C354 C352 1.478 . S
C354 C356 1.381 . S
C354 C360 1.383 . S
C355 C351 1.495 . S
C355 H361 0.959 . S
C355 H362 0.961 . S
C355 H363 0.960 . S
C356 C354 1.381 . S
C356 C357 1.394 . S
C356 H364 0.930 . S
C357 C356 1.394 . S
C357 C358 1.383 . S
C357 H365 0.929 . S
C358 C357 1.383 . S
C358 C359 1.377 . S
C359 H343 0.930 . S
C359 C358 1.377 . S
C359 C360 1.379 . S
C360 H344 0.931 . S
C360 C354 1.383 . S
C360 C359 1.379 . S
H361 C355 0.959 . S
H362 C355 0.961 . S
H363 C355 0.960 . S
H364 C356 0.930 . S
H365 C357 0.929 . S
H366 C374 0.929 . S
H367 C376 0.930 . S
H368 C378 0.930 . S
H369 C381 0.929 . S
H370 C384 0.930 . S
H371 C386 0.960 . S
H372 C386 0.960 . S
H373 C386 0.960 . S
C374 H366 0.929 . S
C374 C375 1.377 . S
C374 C376 1.384 . S
C375 C374 1.377 . S
C375 C381 1.390 . S
C376 H367 0.930 . S
C376 C374 1.384 . S
C376 C377 1.372 . S
C377 C376 1.372 . S
C377 C378 1.400 . S
C377 C382 1.490 . S
C378 H368 0.930 . S
C378 C377 1.400 . S
C378 C381 1.386 . S
H379 C395 0.930 . S
H380 C396 0.931 . S
C381 H369 0.929 . S
C381 C375 1.390 . S
C381 C378 1.386 . S
C382 C377 1.490 . S
C382 C384 1.395 . S
C382 C385 1.403 . S
H383 C389 0.930 . S
C384 H370 0.930 . S
C384 C382 1.395 . S
C384 C387 1.403 . S
C385 C382 1.403 . S
C385 C386 1.524 . S
C385 C389 1.400 . S
C386 H371 0.960 . S
C386 H372 0.960 . S
C386 H373 0.960 . S
C386 C385 1.524 . S
C387 C384 1.403 . S
C387 C388 1.392 . S
C387 C391 1.495 . S
C388 C387 1.392 . S
C388 C389 1.385 . S
C388 C390 1.478 . S
C389 H383 0.930 . S
C389 C385 1.400 . S
C389 C388 1.385 . S
C390 C388 1.478 . S
C390 C392 1.381 . S
C390 C396 1.383 . S
C391 C387 1.495 . S
C391 H397 0.959 . S
C391 H398 0.961 . S
C391 H399 0.960 . S
C392 C390 1.381 . S
C392 C393 1.394 . S
C392 H400 0.930 . S
C393 C392 1.394 . S
C393 C394 1.383 . S
C393 H401 0.929 . S
C394 C393 1.383 . S
C394 C395 1.377 . S
C395 H379 0.930 . S
C395 C394 1.377 . S
C395 C396 1.379 . S
C396 H380 0.931 . S
C396 C390 1.383 . S
C396 C395 1.379 . S
H397 C391 0.959 . S
H398 C391 0.961 . S
H399 C391 0.960 . S
H400 C392 0.930 . S
H401 C393 0.929 . S
H402 C410 0.929 . S
H403 C412 0.930 . S
H404 C414 0.930 . S
H405 C417 0.929 . S
H406 C420 0.930 . S
H407 C422 0.960 . S
H408 C422 0.960 . S
H409 C422 0.960 . S
C410 H402 0.929 . S
C410 C411 1.377 . S
C410 C412 1.384 . S
C411 C410 1.377 . S
C411 C417 1.390 . S
C412 H403 0.930 . S
C412 C410 1.384 . S
C412 C413 1.372 . S
C413 C412 1.372 . S
C413 C414 1.400 . S
C413 C418 1.490 . S
C414 H404 0.930 . S
C414 C413 1.400 . S
C414 C417 1.386 . S
H415 C431 0.930 . S
H416 C432 0.931 . S
C417 H405 0.929 . S
C417 C411 1.390 . S
C417 C414 1.386 . S
C418 C413 1.490 . S
C418 C420 1.395 . S
C418 C421 1.403 . S
H419 C425 0.930 . S
C420 H406 0.930 . S
C420 C418 1.395 . S
C420 C423 1.403 . S
C421 C418 1.403 . S
C421 C422 1.524 . S
C421 C425 1.400 . S
C422 H407 0.960 . S
C422 H408 0.960 . S
C422 H409 0.960 . S
C422 C421 1.524 . S
C423 C420 1.403 . S
C423 C424 1.392 . S
C423 C427 1.495 . S
C424 C423 1.392 . S
C424 C425 1.385 . S
C424 C426 1.478 . S
C425 H419 0.930 . S
C425 C421 1.400 . S
C425 C424 1.385 . S
C426 C424 1.478 . S
C426 C428 1.381 . S
C426 C432 1.383 . S
C427 C423 1.495 . S
C427 H433 0.959 . S
C427 H434 0.961 . S
C427 H435 0.960 . S
C428 C426 1.381 . S
C428 C429 1.394 . S
C428 H436 0.930 . S
C429 C428 1.394 . S
C429 C430 1.383 . S
C429 H437 0.929 . S
C430 C429 1.383 . S
C430 C431 1.377 . S
C431 H415 0.930 . S
C431 C430 1.377 . S
C431 C432 1.379 . S
C432 H416 0.931 . S
C432 C426 1.383 . S
C432 C431 1.379 . S
H433 C427 0.959 . S
H434 C427 0.961 . S
H435 C427 0.960 . S
H436 C428 0.930 . S
H437 C429 0.929 . S
H438 C446 0.929 . S
H439 C448 0.930 . S
H440 C450 0.930 . S
H441 C453 0.929 . S
H442 C456 0.930 . S
H443 C458 0.960 . S
H444 C458 0.960 . S
H445 C458 0.960 . S
C446 H438 0.929 . S
C446 C447 1.377 . S
C446 C448 1.384 . S
C447 C446 1.377 . S
C447 C453 1.390 . S
C448 H439 0.930 . S
C448 C446 1.384 . S
C448 C449 1.372 . S
C449 C448 1.372 . S
C449 C450 1.400 . S
C449 C454 1.490 . S
C450 H440 0.930 . S
C450 C449 1.400 . S
C450 C453 1.386 . S
H451 C467 0.930 . S
H452 C468 0.931 . S
C453 H441 0.929 . S
C453 C447 1.390 . S
C453 C450 1.386 . S
C454 C449 1.490 . S
C454 C456 1.395 . S
C454 C457 1.403 . S
H455 C461 0.930 . S
C456 H442 0.930 . S
C456 C454 1.395 . S
C456 C459 1.403 . S
C457 C454 1.403 . S
C457 C458 1.524 . S
C457 C461 1.400 . S
C458 H443 0.960 . S
C458 H444 0.960 . S
C458 H445 0.960 . S
C458 C457 1.524 . S
C459 C456 1.403 . S
C459 C460 1.392 . S
C459 C463 1.495 . S
C460 C459 1.392 . S
C460 C461 1.385 . S
C460 C462 1.478 . S
C461 H455 0.930 . S
C461 C457 1.400 . S
C461 C460 1.385 . S
C462 C460 1.478 . S
C462 C464 1.381 . S
C462 C468 1.383 . S
C463 C459 1.495 . S
C463 H469 0.959 . S
C463 H470 0.961 . S
C463 H471 0.960 . S
C464 C462 1.381 . S
C464 C465 1.394 . S
C464 H472 0.930 . S
C465 C464 1.394 . S
C465 C466 1.383 . S
C465 H473 0.929 . S
C466 C465 1.383 . S
C466 C467 1.377 . S
C467 H451 0.930 . S
C467 C466 1.377 . S
C467 C468 1.379 . S
C468 H452 0.931 . S
C468 C462 1.383 . S
C468 C467 1.379 . S
H469 C463 0.959 . S
H470 C463 0.961 . S
H471 C463 0.960 . S
H472 C464 0.930 . S
H473 C465 0.929 . S
H474 C482 0.929 . S
H475 C484 0.930 . S
H476 C486 0.930 . S
H477 C489 0.929 . S
H478 C492 0.930 . S
H479 C494 0.960 . S
H480 C494 0.960 . S
H481 C494 0.960 . S
C482 H474 0.929 . S
C482 C483 1.377 . S
C482 C484 1.384 . S
C483 C482 1.377 . S
C483 C489 1.390 . S
C484 H475 0.930 . S
C484 C482 1.384 . S
C484 C485 1.372 . S
C485 C484 1.372 . S
C485 C486 1.400 . S
C485 C490 1.490 . S
C486 H476 0.930 . S
C486 C485 1.400 . S
C486 C489 1.386 . S
H487 C503 0.930 . S
H488 C504 0.931 . S
C489 H477 0.929 . S
C489 C483 1.390 . S
C489 C486 1.386 . S
C490 C485 1.490 . S
C490 C492 1.395 . S
C490 C493 1.403 . S
H491 C497 0.930 . S
C492 H478 0.930 . S
C492 C490 1.395 . S
C492 C495 1.403 . S
C493 C490 1.403 . S
C493 C494 1.524 . S
C493 C497 1.400 . S
C494 H479 0.960 . S
C494 H480 0.960 . S
C494 H481 0.960 . S
C494 C493 1.524 . S
C495 C492 1.403 . S
C495 C496 1.392 . S
C495 C499 1.495 . S
C496 C495 1.392 . S
C496 C497 1.385 . S
C496 C498 1.478 . S
C497 H491 0.930 . S
C497 C493 1.400 . S
C497 C496 1.385 . S
C498 C496 1.478 . S
C498 C500 1.381 . S
C498 C504 1.383 . S
C499 C495 1.495 . S
C499 H505 0.959 . S
C499 H506 0.961 . S
C499 H507 0.960 . S
C500 C498 1.381 . S
C500 C501 1.394 . S
C500 H508 0.930 . S
C501 C500 1.394 . S
C501 C502 1.383 . S
C501 H509 0.929 . S
C502 C501 1.383 . S
C502 C503 1.377 . S
C503 H487 0.930 . S
C503 C502 1.377 . S
C503 C504 1.379 . S
C504 H488 0.931 . S
C504 C498 1.383 . S
C504 C503 1.379 . S
H505 C499 0.959 . S
H506 C499 0.961 . S
H507 C499 0.960 . S
H508 C500 0.930 . S
H509 C501 0.929 . S
H510 C518 0.929 . S
H511 C520 0.930 . S
H512 C522 0.930 . S
H513 C525 0.929 . S
H514 C528 0.930 . S
H515 C530 0.960 . S
H516 C530 0.960 . S
H517 C530 0.960 . S
C518 H510 0.929 . S
C518 C519 1.377 . S
C518 C520 1.384 . S
C519 C518 1.377 . S
C519 C525 1.390 . S
C520 H511 0.930 . S
C520 C518 1.384 . S
C520 C521 1.372 . S
C521 C520 1.372 . S
C521 C522 1.400 . S
C521 C526 1.490 . S
C522 H512 0.930 . S
C522 C521 1.400 . S
C522 C525 1.386 . S
H523 C539 0.930 . S
H524 C540 0.931 . S
C525 H513 0.929 . S
C525 C519 1.390 . S
C525 C522 1.386 . S
C526 C521 1.490 . S
C526 C528 1.395 . S
C526 C529 1.403 . S
H527 C533 0.930 . S
C528 H514 0.930 . S
C528 C526 1.395 . S
C528 C531 1.403 . S
C529 C526 1.403 . S
C529 C530 1.524 . S
C529 C533 1.400 . S
C530 H515 0.960 . S
C530 H516 0.960 . S
C530 H517 0.960 . S
C530 C529 1.524 . S
C531 C528 1.403 . S
C531 C532 1.392 . S
C531 C535 1.495 . S
C532 C531 1.392 . S
C532 C533 1.385 . S
C532 C534 1.478 . S
C533 H527 0.930 . S
C533 C529 1.400 . S
C533 C532 1.385 . S
C534 C532 1.478 . S
C534 C536 1.381 . S
C534 C540 1.383 . S
C535 C531 1.495 . S
C535 H541 0.959 . S
C535 H542 0.961 . S
C535 H543 0.960 . S
C536 C534 1.381 . S
C536 C537 1.394 . S
C536 H544 0.930 . S
C537 C536 1.394 . S
C537 C538 1.383 . S
C537 H545 0.929 . S
C538 C537 1.383 . S
C538 C539 1.377 . S
C539 H523 0.930 . S
C539 C538 1.377 . S
C539 C540 1.379 . S
C540 H524 0.931 . S
C540 C534 1.383 . S
C540 C539 1.379 . S
H541 C535 0.959 . S
H542 C535 0.961 . S
H543 C535 0.960 . S
H544 C536 0.930 . S
H545 C537 0.929 . S
H546 C554 0.929 . S
H547 C556 0.930 . S
H548 C558 0.930 . S
H549 C561 0.929 . S
H550 C564 0.930 . S
H551 C566 0.960 . S
H552 C566 0.960 . S
H553 C566 0.960 . S
C554 H546 0.929 . S
C554 C555 1.377 . S
C554 C556 1.384 . S
C555 C554 1.377 . S
C555 C561 1.390 . S
C556 H547 0.930 . S
C556 C554 1.384 . S
C556 C557 1.372 . S
C557 C556 1.372 . S
C557 C558 1.400 . S
C557 C562 1.490 . S
C558 H548 0.930 . S
C558 C557 1.400 . S
C558 C561 1.386 . S
H559 C575 0.930 . S
H560 C576 0.931 . S
C561 H549 0.929 . S
C561 C555 1.390 . S
C561 C558 1.386 . S
C562 C557 1.490 . S
C562 C564 1.395 . S
C562 C565 1.403 . S
H563 C569 0.930 . S
C564 H550 0.930 . S
C564 C562 1.395 . S
C564 C567 1.403 . S
C565 C562 1.403 . S
C565 C566 1.524 . S
C565 C569 1.400 . S
C566 H551 0.960 . S
C566 H552 0.960 . S
C566 H553 0.960 . S
C566 C565 1.524 . S
C567 C564 1.403 . S
C567 C568 1.392 . S
C567 C571 1.495 . S
C568 C567 1.392 . S
C568 C569 1.385 . S
C568 C570 1.478 . S
C569 H563 0.930 . S
C569 C565 1.400 . S
C569 C568 1.385 . S
C570 C568 1.478 . S
C570 C572 1.381 . S
C570 C576 1.383 . S
C571 C567 1.495 . S
C571 H577 0.959 . S
C571 H578 0.961 . S
C571 H579 0.960 . S
C572 C570 1.381 . S
C572 C573 1.394 . S
C572 H580 0.930 . S
C573 C572 1.394 . S
C573 C574 1.383 . S
C573 H581 0.929 . S
C574 C573 1.383 . S
C574 C575 1.377 . S
C575 H559 0.930 . S
C575 C574 1.377 . S
C575 C576 1.379 . S
C576 H560 0.931 . S
C576 C570 1.383 . S
C576 C575 1.379 . S
H577 C571 0.959 . S
H578 C571 0.961 . S
H579 C571 0.960 . S
H580 C572 0.930 . S
H581 C573 0.929 . S
H582 C590 0.929 . S
H583 C592 0.930 . S
H584 C594 0.930 . S
H585 C597 0.929 . S
H586 C600 0.930 . S
H587 C602 0.960 . S
H588 C602 0.960 . S
H589 C602 0.960 . S
C590 H582 0.929 . S
C590 C591 1.377 . S
C590 C592 1.384 . S
C591 C590 1.377 . S
C591 C597 1.390 . S
C592 H583 0.930 . S
C592 C590 1.384 . S
C592 C593 1.372 . S
C593 C592 1.372 . S
C593 C594 1.400 . S
C593 C598 1.490 . S
C594 H584 0.930 . S
C594 C593 1.400 . S
C594 C597 1.386 . S
H595 C611 0.930 . S
H596 C612 0.931 . S
C597 H585 0.929 . S
C597 C591 1.390 . S
C597 C594 1.386 . S
C598 C593 1.490 . S
C598 C600 1.395 . S
C598 C601 1.403 . S
H599 C605 0.930 . S
C600 H586 0.930 . S
C600 C598 1.395 . S
C600 C603 1.403 . S
C601 C598 1.403 . S
C601 C602 1.524 . S
C601 C605 1.400 . S
C602 H587 0.960 . S
C602 H588 0.960 . S
C602 H589 0.960 . S
C602 C601 1.524 . S
C603 C600 1.403 . S
C603 C604 1.392 . S
C603 C607 1.495 . S
C604 C603 1.392 . S
C604 C605 1.385 . S
C604 C606 1.478 . S
C605 H599 0.930 . S
C605 C601 1.400 . S
C605 C604 1.385 . S
C606 C604 1.478 . S
C606 C608 1.381 . S
C606 C612 1.383 . S
C607 C603 1.495 . S
C607 H613 0.959 . S
C607 H614 0.961 . S
C607 H615 0.960 . S
C608 C606 1.381 . S
C608 C609 1.394 . S
C608 H616 0.930 . S
C609 C608 1.394 . S
C609 C610 1.383 . S
C609 H617 0.929 . S
C610 C609 1.383 . S
C610 C611 1.377 . S
C611 H595 0.930 . S
C611 C610 1.377 . S
C611 C612 1.379 . S
C612 H596 0.931 . S
C612 C606 1.383 . S
C612 C611 1.379 . S
H613 C607 0.959 . S
H614 C607 0.961 . S
H615 C607 0.960 . S
H616 C608 0.930 . S
H617 C609 0.929 . S
H618 C626 0.929 . S
H619 C628 0.930 . S
H620 C630 0.930 . S
H621 C633 0.929 . S
H622 C636 0.924 1_655 S
H623 C638 0.960 . S
H624 C638 0.960 . S
H625 C638 0.960 . S
C626 H618 0.929 . S
C626 C627 1.377 . S
C626 C628 1.384 . S
C627 C626 1.377 . S
C627 C633 1.390 . S
C628 H619 0.930 . S
C628 C626 1.384 . S
C628 C629 1.372 . S
C629 C628 1.372 . S
C629 C630 1.400 . S
C629 C634 1.490 . S
C630 H620 0.930 . S
C630 C629 1.400 . S
C630 C633 1.386 . S
H631 C647 0.930 . S
H632 C648 0.931 . S
C633 H621 0.929 . S
C633 C627 1.390 . S
C633 C630 1.386 . S
C634 C629 1.490 . S
C634 C636 1.400 . S
C634 C637 1.403 . S
H635 C641 0.942 . S
C636 H622 0.924 1_455 S
C636 C634 1.400 . S
C636 C639 1.404 1_455 S
C637 C634 1.403 . S
C637 C638 1.524 . S
C637 C641 1.400 . S
C638 H623 0.960 . S
C638 H624 0.960 . S
C638 H625 0.960 . S
C638 C637 1.524 . S
C639 C636 1.404 1_655 S
C639 C640 1.392 1_654 S
C639 C643 1.495 1_554 S
C640 C639 1.392 1_456 S
C640 C641 1.385 1_556 S
C640 C642 1.478 . S
C641 H635 0.942 . S
C641 C637 1.400 . S
C641 C640 1.385 1_554 S
C642 C640 1.478 . S
C642 C644 1.381 . S
C642 C648 1.383 . S
C643 C639 1.495 1_556 S
C643 H649 0.997 . S
C643 H650 0.961 . S
C643 H651 0.960 . S
C644 C642 1.381 . S
C644 C645 1.394 . S
C644 H652 0.930 . S
C645 C644 1.394 . S
C645 C646 1.383 . S
C645 H653 0.929 . S
C646 C645 1.383 . S
C646 C647 1.377 . S
C647 H631 0.930 . S
C647 C646 1.377 . S
C647 C648 1.379 . S
C648 H632 0.931 . S
C648 C642 1.383 . S
C648 C647 1.379 . S
H649 C643 0.997 . S
H650 C643 0.961 . S
H651 C643 0.960 . S
H652 C644 0.930 . S
H653 C645 0.929 . S
H654 C662 0.929 . S
H655 C664 0.930 . S
H656 C666 0.930 . S
H657 C669 0.929 . S
H658 C672 0.930 . S
H659 C674 0.960 . S
H660 C674 0.960 . S
H661 C674 0.960 . S
C662 H654 0.929 . S
C662 C663 1.377 . S
C662 C664 1.384 . S
C663 C662 1.377 . S
C663 C669 1.390 . S
C664 H655 0.930 . S
C664 C662 1.384 . S
C664 C665 1.372 . S
C665 C664 1.372 . S
C665 C666 1.400 . S
C665 C670 1.490 . S
C666 H656 0.930 . S
C666 C665 1.400 . S
C666 C669 1.386 . S
H667 C683 0.930 . S
H668 C684 0.931 . S
C669 H657 0.929 . S
C669 C663 1.390 . S
C669 C666 1.386 . S
C670 C665 1.490 . S
C670 C672 1.395 . S
C670 C673 1.403 . S
H671 C677 0.930 . S
C672 H658 0.930 . S
C672 C670 1.395 . S
C672 C675 1.403 . S
C673 C670 1.403 . S
C673 C674 1.524 . S
C673 C677 1.400 . S
C674 H659 0.960 . S
C674 H660 0.960 . S
C674 H661 0.960 . S
C674 C673 1.524 . S
C675 C672 1.403 . S
C675 C676 1.392 . S
C675 C679 1.495 1_545 S
C676 C675 1.392 . S
C676 C677 1.385 . S
C676 C678 1.478 . S
C677 H671 0.930 . S
C677 C673 1.400 . S
C677 C676 1.385 . S
C678 C676 1.478 . S
C678 C680 1.381 . S
C678 C684 1.383 . S
C679 C675 1.495 1_565 S
C679 H685 0.959 . S
C679 H686 0.961 . S
C679 H687 0.960 . S
C680 C678 1.381 . S
C680 C681 1.394 . S
C680 H688 0.930 . S
C681 C680 1.394 . S
C681 C682 1.383 . S
C681 H689 0.929 . S
C682 C681 1.383 . S
C682 C683 1.377 . S
C683 H667 0.930 . S
C683 C682 1.377 . S
C683 C684 1.379 . S
C684 H668 0.931 . S
C684 C678 1.383 . S
C684 C683 1.379 . S
H685 C679 0.959 . S
H686 C679 0.961 . S
H687 C679 0.960 . S
H688 C680 0.930 . S
H689 C681 0.929 . S
H690 C698 0.929 . S
H691 C700 0.930 . S
H692 C702 0.930 . S
H693 C705 0.929 . S
H694 C708 0.930 . S
H695 C710 0.960 . S
H696 C710 0.960 . S
H697 C710 0.960 . S
C698 H690 0.929 . S
C698 C699 1.377 . S
C698 C700 1.384 . S
C699 C698 1.377 . S
C699 C705 1.390 . S
C700 H691 0.930 . S
C700 C698 1.384 . S
C700 C701 1.372 . S
C701 C700 1.372 . S
C701 C702 1.400 . S
C701 C706 1.490 . S
C702 H692 0.930 . S
C702 C701 1.400 . S
C702 C705 1.386 . S
H703 C719 0.930 . S
H704 C720 0.931 . S
C705 H693 0.929 . S
C705 C699 1.390 . S
C705 C702 1.386 . S
C706 C701 1.490 . S
C706 C708 1.395 . S
C706 C709 1.403 . S
H707 C713 0.930 . S
C708 H694 0.930 . S
C708 C706 1.395 . S
C708 C711 1.403 . S
C709 C706 1.403 . S
C709 C710 1.524 . S
C709 C713 1.400 . S
C710 H695 0.960 . S
C710 H696 0.960 . S
C710 H697 0.960 . S
C710 C709 1.524 . S
C711 C708 1.403 . S
C711 C712 1.392 . S
C711 C715 1.495 . S
C712 C711 1.392 . S
C712 C713 1.385 . S
C712 C714 1.478 . S
C713 H707 0.930 . S
C713 C709 1.400 . S
C713 C712 1.385 . S
C714 C712 1.478 . S
C714 C716 1.381 . S
C714 C720 1.383 . S
C715 C711 1.495 . S
C715 H721 0.959 . S
C715 H722 0.961 . S
C715 H723 0.960 . S
C716 C714 1.381 . S
C716 C717 1.394 . S
C716 H724 0.930 . S
C717 C716 1.394 . S
C717 C718 1.383 . S
C717 H725 0.929 . S
C718 C717 1.383 . S
C718 C719 1.377 . S
C719 H703 0.930 . S
C719 C718 1.377 . S
C719 C720 1.379 . S
C720 H704 0.931 . S
C720 C714 1.383 . S
C720 C719 1.379 . S
H721 C715 0.959 . S
H722 C715 0.961 . S
H723 C715 0.960 . S
H724 C716 0.930 . S
H725 C717 0.929 . S
H726 C734 0.929 . S
H727 C736 0.930 . S
H728 C738 0.930 . S
H729 C741 0.929 . S
H730 C744 0.930 1_565 S
H731 C746 0.960 . S
H732 C746 0.960 . S
H733 C746 0.960 . S
C734 H726 0.929 . S
C734 C735 1.377 . S
C734 C736 1.384 . S
C735 C734 1.377 . S
C735 C741 1.390 . S
C736 H727 0.930 . S
C736 C734 1.384 . S
C736 C737 1.372 . S
C737 C736 1.372 . S
C737 C738 1.400 . S
C737 C742 1.490 . S
C738 H728 0.930 . S
C738 C737 1.400 . S
C738 C741 1.386 . S
H739 C755 0.930 . S
H740 C756 0.931 . S
C741 H729 0.929 . S
C741 C735 1.390 . S
C741 C738 1.386 . S
C742 C737 1.490 . S
C742 C744 1.395 . S
C742 C745 1.403 . S
H743 C749 0.930 . S
C744 H730 0.930 1_545 S
C744 C742 1.395 . S
C744 C747 1.403 . S
C745 C742 1.403 . S
C745 C746 1.524 . S
C745 C749 1.400 . S
C746 H731 0.960 . S
C746 H732 0.960 . S
C746 H733 0.960 . S
C746 C745 1.524 . S
C747 C744 1.403 . S
C747 C748 1.392 . S
C747 C751 1.495 1_545 S
C748 C747 1.392 . S
C748 C749 1.385 . S
C748 C750 1.478 . S
C749 H743 0.930 . S
C749 C745 1.400 . S
C749 C748 1.385 . S
C750 C748 1.478 . S
C750 C752 1.381 . S
C750 C756 1.383 . S
C751 C747 1.495 1_565 S
C751 H757 0.959 . S
C751 H758 0.961 . S
C751 H759 0.960 . S
C752 C750 1.381 . S
C752 C753 1.394 . S
C752 H760 0.930 1_545 S
C753 C752 1.394 . S
C753 C754 1.383 . S
C753 H761 0.929 1_545 S
C754 C753 1.383 . S
C754 C755 1.377 . S
C755 H739 0.930 . S
C755 C754 1.377 . S
C755 C756 1.379 . S
C756 H740 0.931 . S
C756 C750 1.383 . S
C756 C755 1.379 . S
H757 C751 0.959 . S
H758 C751 0.961 . S
H759 C751 0.960 . S
H760 C752 0.930 1_565 S
H761 C753 0.929 1_565 S
H762 C770 0.929 . S
H763 C772 0.930 . S
H764 C774 0.930 . S
H765 C777 0.929 . S
H766 C780 0.930 . S
H767 C782 0.960 . S
H768 C782 0.960 . S
H769 C782 0.960 . S
C770 H762 0.929 . S
C770 C771 1.377 . S
C770 C772 1.384 . S
C771 C770 1.377 . S
C771 C777 1.390 . S
C772 H763 0.930 . S
C772 C770 1.384 . S
C772 C773 1.372 . S
C773 C772 1.372 . S
C773 C774 1.400 . S
C773 C778 1.490 . S
C774 H764 0.930 . S
C774 C773 1.400 . S
C774 C777 1.386 . S
H775 C791 0.930 . S
H776 C792 0.931 . S
C777 H765 0.929 . S
C777 C771 1.390 . S
C777 C774 1.386 . S
C778 C773 1.490 . S
C778 C780 1.395 . S
C778 C781 1.403 . S
H779 C785 0.930 . S
C780 H766 0.930 . S
C780 C778 1.395 . S
C780 C783 1.460 . S
C781 C778 1.403 . S
C781 C782 1.524 . S
C781 C785 1.400 . S
C782 H767 0.960 . S
C782 H768 0.960 . S
C782 H769 0.960 . S
C782 C781 1.524 . S
C783 C780 1.460 . S
C783 C784 1.366 1_556 S
C783 C787 1.468 1_556 S
C784 C783 1.366 1_554 S
C784 C785 1.385 1_554 S
C784 C786 1.478 . S
C785 H779 0.930 . S
C785 C781 1.400 . S
C785 C784 1.385 1_556 S
C786 C784 1.478 . S
C786 C788 1.381 . S
C786 C792 1.383 . S
C787 C783 1.468 1_554 S
C787 H793 0.959 . S
C787 H794 0.961 . S
C787 H795 0.960 . S
C788 C786 1.381 . S
C788 C789 1.394 . S
C788 H796 0.930 . S
C789 C788 1.394 . S
C789 C790 1.383 . S
C789 H797 0.929 . S
C790 C789 1.383 . S
C790 C791 1.377 . S
C791 H775 0.930 . S
C791 C790 1.377 . S
C791 C792 1.379 . S
C792 H776 0.931 . S
C792 C786 1.383 . S
C792 C791 1.379 . S
H793 C787 0.959 . S
H794 C787 0.961 . S
H795 C787 0.960 . S
H796 C788 0.930 . S
H797 C789 0.929 . S
H798 C806 0.929 . S
H799 C808 0.930 . S
H800 C810 0.930 1_655 S
H801 C813 0.929 1_655 S
H802 C816 0.930 . S
H803 C818 0.960 . S
H804 C818 0.960 . S
H805 C818 0.960 . S
C806 H798 0.929 . S
C806 C807 1.377 . S
C806 C808 1.384 . S
C807 C806 1.377 . S
C807 C813 1.390 . S
C808 H799 0.930 . S
C808 C806 1.384 . S
C808 C809 1.372 . S
C809 C808 1.372 . S
C809 C810 1.400 . S
C809 C814 1.490 . S
C810 H800 0.930 1_455 S
C810 C809 1.400 . S
C810 C813 1.386 . S
H811 C827 0.930 1_655 S
H812 C828 0.931 1_655 S
C813 H801 0.929 1_455 S
C813 C807 1.390 . S
C813 C810 1.386 . S
C814 C809 1.490 . S
C814 C816 1.395 . S
C814 C817 1.403 . S
H815 C821 0.930 1_655 S
C816 H802 0.930 . S
C816 C814 1.395 . S
C816 C819 1.403 . S
C817 C814 1.403 . S
C817 C818 1.524 1_455 S
C817 C821 1.400 . S
C818 H803 0.960 . S
C818 H804 0.960 . S
C818 H805 0.960 . S
C818 C817 1.524 1_655 S
C819 C816 1.403 . S
C819 C820 1.392 . S
C819 C823 1.495 . S
C820 C819 1.392 . S
C820 C821 1.385 . S
C820 C822 1.478 . S
C821 H815 0.930 1_455 S
C821 C817 1.400 . S
C821 C820 1.385 . S
C822 C820 1.478 . S
C822 C824 1.381 . S
C822 C828 1.383 . S
C823 C819 1.495 . S
C823 H829 0.959 . S
C823 H830 0.961 . S
C823 H831 0.960 . S
C824 C822 1.381 . S
C824 C825 1.394 . S
C824 H832 0.930 . S
C825 C824 1.394 . S
C825 C826 1.383 . S
C825 H833 0.929 . S
C826 C825 1.383 . S
C826 C827 1.377 . S
C827 H811 0.930 1_455 S
C827 C826 1.377 . S
C827 C828 1.379 . S
C828 H812 0.931 1_455 S
C828 C822 1.383 . S
C828 C827 1.379 . S
H829 C823 0.959 . S
H830 C823 0.961 . S
H831 C823 0.960 . S
H832 C824 0.930 . S
H833 C825 0.929 . S
C195 C9 0.525 . S
C214 C185 0.543 . S
C231 C49 0.359 . S
C250 C163 0.430 . S
C267 C89 0.297 . S
C286 C174 0.401 . S
C303 C26 0.252 . S
C322 C179 0.180 . S
C358 C157 0.306 . S
C339 C66 0.292 . S
C394 C168 0.158 . S
C375 C106 0.309 . S
C411 C43 3.006 . S
C430 C141 2.951 . S
C447 C83 2.957 . S
C466 C146 2.897 . S
C483 C22 3.006 . S
C502 C124 2.957 1_565 S
C538 C135 2.944 . S
C519 C62 2.998 . S
C574 C152 2.953 . S
C555 C102 3.032 . S
C591 C3 3.000 . S
C610 C130 2.954 . S
C646 C147 1.704 . S
C627 C15 1.695 . S
C663 C55 1.728 . S
C682 C125 1.727 . S
C699 C95 1.710 . S
C718 C136 1.739 . S
C754 C169 1.278 . S
C735 C42 1.244 . S
C790 C180 1.254 . S
C771 C82 1.253 . S
C807 C2 1.213 . S
C826 C158 1.226 . S
