# Generated by pormake.
# Topology nom, (4,4)-cn, num edge types: 1
# Building blocks:
#     Node 0, Type 0, BuildingBlock: MIFKUJ_clean_linker_1, # of connection points: 4
#     Node 1, Type 0, BuildingBlock: MIFKUJ_clean_linker_1, # of connection points: 4
#     Node 2, Type 0, BuildingBlock: MIFKUJ_clean_linker_1, # of connection points: 4
#     Node 3, Type 0, BuildingBlock: MIFKUJ_clean_linker_1, # of connection points: 4
#     Node 4, Type 0, BuildingBlock: MIFKUJ_clean_linker_1, # of connection points: 4
#     Node 5, Type 0, BuildingBlock: MIFKUJ_clean_linker_1, # of connection points: 4
#     Node 6, Type 1, BuildingBlock: GALJAG_clean_sbu_0, # of connection points: 4
#     Node 7, Type 1, BuildingBlock: GALJAG_clean_sbu_0, # of connection points: 4
#     Node 8, Type 1, BuildingBlock: GALJAG_clean_sbu_0, # of connection points: 4
#     Node 9, Type 1, BuildingBlock: GALJAG_clean_sbu_0, # of connection points: 4
#     Node 10, Type 1, BuildingBlock: GALJAG_clean_sbu_0, # of connection points: 4
#     Node 11, Type 1, BuildingBlock: GALJAG_clean_sbu_0, # of connection points: 4
#     Edge 12, Type (0, 1), BuildingBlock: CIFDUS_clean_linker_0, # of connection points: 2
#     Edge 13, Type (0, 1), BuildingBlock: CIFDUS_clean_linker_0, # of connection points: 2
#     Edge 14, Type (0, 1), BuildingBlock: CIFDUS_clean_linker_0, # of connection points: 2
#     Edge 15, Type (0, 1), BuildingBlock: CIFDUS_clean_linker_0, # of connection points: 2
#     Edge 16, Type (0, 1), BuildingBlock: CIFDUS_clean_linker_0, # of connection points: 2
#     Edge 17, Type (0, 1), BuildingBlock: CIFDUS_clean_linker_0, # of connection points: 2
#     Edge 18, Type (0, 1), BuildingBlock: CIFDUS_clean_linker_0, # of connection points: 2
#     Edge 19, Type (0, 1), BuildingBlock: CIFDUS_clean_linker_0, # of connection points: 2
#     Edge 20, Type (0, 1), BuildingBlock: CIFDUS_clean_linker_0, # of connection points: 2
#     Edge 21, Type (0, 1), BuildingBlock: CIFDUS_clean_linker_0, # of connection points: 2
#     Edge 22, Type (0, 1), BuildingBlock: CIFDUS_clean_linker_0, # of connection points: 2
#     Edge 23, Type (0, 1), BuildingBlock: CIFDUS_clean_linker_0, # of connection points: 2
#     Edge 24, Type (0, 1), BuildingBlock: CIFDUS_clean_linker_0, # of connection points: 2
#     Edge 25, Type (0, 1), BuildingBlock: CIFDUS_clean_linker_0, # of connection points: 2
#     Edge 26, Type (0, 1), BuildingBlock: CIFDUS_clean_linker_0, # of connection points: 2
#     Edge 27, Type (0, 1), BuildingBlock: CIFDUS_clean_linker_0, # of connection points: 2
#     Edge 28, Type (0, 1), BuildingBlock: CIFDUS_clean_linker_0, # of connection points: 2
#     Edge 29, Type (0, 1), BuildingBlock: CIFDUS_clean_linker_0, # of connection points: 2
#     Edge 30, Type (0, 1), BuildingBlock: CIFDUS_clean_linker_0, # of connection points: 2
#     Edge 31, Type (0, 1), BuildingBlock: CIFDUS_clean_linker_0, # of connection points: 2
#     Edge 32, Type (0, 1), BuildingBlock: CIFDUS_clean_linker_0, # of connection points: 2
#     Edge 33, Type (0, 1), BuildingBlock: CIFDUS_clean_linker_0, # of connection points: 2
#     Edge 34, Type (0, 1), BuildingBlock: CIFDUS_clean_linker_0, # of connection points: 2
#     Edge 35, Type (0, 1), BuildingBlock: CIFDUS_clean_linker_0, # of connection points: 2
# Relax obj value: 0.004
# Max RMSD: 0.109
# Mean RMSD: 0.081
data_MOF--net-nom--node1-GALJAG_clean_sbu_0--node2-MIFKUJ_clean_linker_1--edge1-CIFDUS_clean_linker_0
_symmetry_space_group_name_H-M    P1
_symmetry_Int_Tables_number       1
_symmetry_cell_setting            triclinic
loop_
_symmetry_equiv_pos_as_xyz
'x, y, z'
_cell_length_a     47.524081
_cell_length_b     47.41693
_cell_length_c     52.008121
_cell_angle_alpha  89.949093
_cell_angle_beta   89.966053
_cell_angle_gamma 120.06373
loop_
_atom_site_label
_atom_site_type_symbol
_atom_site_fract_x
_atom_site_fract_y
_atom_site_fract_z
_atom_type_partial_charge
H0 H 0.99716 0.50315 0.27001 0.0
H1 H 0.95811 0.47788 0.23491 0.0
H2 H 0.90259 0.52033 0.26385 0.0
H3 H 0.94266 0.54722 0.29824 0.0
H4 H 0.03712 0.56329 0.28251 0.0
H5 H 0.93858 0.47555 0.32142 0.0
H6 H 0.88124 0.44845 0.33313 0.0
H7 H 0.90031 0.53049 0.3814 0.0
H8 H 0.95657 0.55866 0.36739 0.0
H9 H 0.05648 0.61667 0.38259 0.0
H10 H 0.09198 0.63143 0.42012 0.0
H11 H 0.11656 0.55799 0.39923 0.0
H12 H 0.08276 0.54521 0.36094 0.0
H13 H 1.00318 0.54757 0.37401 0.0
H14 H 0.09268 0.63754 0.33392 0.0
H15 H 0.14856 0.67385 0.3197 0.0
H16 H 0.14668 0.59458 0.27738 0.0
H17 H 0.09078 0.55816 0.29197 0.0
C18 C 0.97266 0.52673 0.28706 0.0
C19 C 0.97682 0.50738 0.2687 0.0
C20 C 0.95449 0.49284 0.24875 0.0
C21 C 0.92733 0.49698 0.24698 0.0
C22 C 0.9232 0.51652 0.26511 0.0
C23 C 0.94601 0.53177 0.28474 0.0
C24 C 0.99627 0.54126 0.30855 0.0
C25 C 0.02958 0.55943 0.30251 0.0
C26 C 0.98649 0.53747 0.33473 0.0
C27 C 0.95184 0.51957 0.34294 0.0
C28 C 0.93023 0.48794 0.33411 0.0
C29 C 0.89743 0.47221 0.34122 0.0
C30 C 0.88573 0.48728 0.35808 0.0
C31 C 0.9079 0.51838 0.36776 0.0
C32 C 0.94038 0.53441 0.36006 0.0
C33 C 0.06724 0.58003 0.36903 0.0
C34 C 0.07007 0.60427 0.38597 0.0
C35 C 0.09011 0.61236 0.40757 0.0
C36 C 0.10703 0.5957 0.41305 0.0
C37 C 0.10449 0.57182 0.39559 0.0
C38 C 0.085 0.56428 0.3737 0.0
C39 C 0.0435 0.56896 0.34777 0.0
C40 C 0.01038 0.55128 0.35393 0.0
C41 C 0.05326 0.57371 0.32178 0.0
C42 C 0.0877 0.59506 0.31423 0.0
C43 C 0.10445 0.62784 0.32189 0.0
C44 C 0.13623 0.64866 0.31351 0.0
C45 C 0.15193 0.63707 0.29735 0.0
C46 C 0.13527 0.60411 0.28998 0.0
C47 C 0.10335 0.58334 0.29821 0.0
H48 H 0.39981 0.95627 0.52659 0.0
H49 H 0.36647 0.90016 0.54132 0.0
H50 H 0.44272 0.8804 0.51922 0.0
H51 H 0.47524 0.93638 0.50344 0.0
H52 H 0.4646 1.0009 0.54538 0.0
H53 H 0.40837 0.94717 0.46626 0.0
H54 H 0.39324 0.90958 0.43001 0.0
H55 H 0.49458 0.95234 0.40923 0.0
H56 H 0.5096 0.989 0.4461 0.0
H57 H 0.54954 0.08811 0.46312 0.0
H58 H 0.5695 0.14377 0.44747 0.0
H59 H 0.4945 0.14848 0.49096 0.0
H60 H 0.4744 0.09287 0.50619 0.0
H61 H 0.49305 0.03549 0.45457 0.0
H62 H 0.55266 0.08634 0.52898 0.0
H63 H 0.57561 0.11957 0.56743 0.0
H64 H 0.47865 0.08325 0.59763 0.0
H65 H 0.456 0.04936 0.55941 0.0
C66 C 0.43985 0.95033 0.51385 0.0
C67 C 0.40917 0.9397 0.52477 0.0
C68 C 0.39028 0.90767 0.5334 0.0
C69 C 0.40194 0.88568 0.53172 0.0
C70 C 0.43271 0.89644 0.52054 0.0
C71 C 0.45143 0.92846 0.51158 0.0
C72 C 0.46019 0.98486 0.50618 0.0
C73 C 0.47053 0.00857 0.5255 0.0
C74 C 0.46955 0.99455 0.4804 0.0
C75 C 0.46016 0.97067 0.4591 0.0
C76 C 0.42737 0.94802 0.45421 0.0
C77 C 0.41873 0.92679 0.43328 0.0
C78 C 0.4427 0.92796 0.41666 0.0
C79 C 0.47554 0.95044 0.42181 0.0
C80 C 0.48415 0.97161 0.44277 0.0
C81 C 0.51065 0.08639 0.486 0.0
C82 C 0.53758 0.10125 0.46942 0.0
C83 C 0.54902 0.13306 0.46058 0.0
C84 C 0.53344 0.1504 0.4679 0.0
C85 C 0.50678 0.1356 0.48477 0.0
C86 C 0.49552 0.10396 0.49373 0.0
C87 C 0.49656 0.05177 0.49375 0.0
C88 C 0.48742 0.02796 0.4745 0.0
C89 C 0.48921 0.04187 0.5197 0.0
C90 C 0.50261 0.06536 0.54131 0.0
C91 C 0.53633 0.086 0.54368 0.0
C92 C 0.54942 0.10503 0.56572 0.0
C93 C 0.52902 0.10391 0.58581 0.0
C94 C 0.49514 0.0842 0.58283 0.0
C95 C 0.48211 0.06499 0.5609 0.0
H96 H 0.51666 0.54046 0.72154 0.0
H97 H 0.50056 0.55955 0.75937 0.0
H98 H 0.39949 0.49736 0.73924 0.0
H99 H 0.41576 0.47742 0.70201 0.0
H100 H 0.50479 0.48045 0.70982 0.0
H101 H 0.48133 0.55914 0.66897 0.0
H102 H 0.44795 0.58339 0.65835 0.0
H103 H 0.37259 0.49017 0.62989 0.0
H104 H 0.40669 0.46652 0.63977 0.0
H105 H 0.46174 0.42693 0.60768 0.0
H106 H 0.48169 0.41382 0.56878 0.0
H107 H 0.58046 0.48294 0.59102 0.0
H108 H 0.56026 0.4949 0.63029 0.0
H109 H 0.46944 0.48588 0.62113 0.0
H110 H 0.49084 0.4074 0.65753 0.0
H111 H 0.51876 0.37801 0.66998 0.0
H112 H 0.59175 0.46372 0.70947 0.0
H113 H 0.56404 0.49326 0.6965 0.0
C114 C 0.46746 0.50775 0.70878 0.0
C115 C 0.49103 0.53091 0.72531 0.0
C116 C 0.48179 0.54201 0.74681 0.0
C117 C 0.44873 0.5301 0.75229 0.0
C118 C 0.42515 0.50684 0.73571 0.0
C119 C 0.43443 0.49569 0.71424 0.0
C120 C 0.47754 0.49567 0.68626 0.0
C121 C 0.49754 0.48215 0.69036 0.0
C122 C 0.46689 0.49649 0.66102 0.0
C123 C 0.44639 0.51105 0.65523 0.0
C124 C 0.45756 0.54398 0.66052 0.0
C125 C 0.43835 0.55773 0.65454 0.0
C126 C 0.40751 0.53875 0.64326 0.0
C127 C 0.3964 0.50567 0.63814 0.0
C128 C 0.41576 0.49204 0.6439 0.0
C129 C 0.50951 0.46174 0.62193 0.0
C130 C 0.4877 0.43899 0.60424 0.0
C131 C 0.49918 0.43173 0.5819 0.0
C132 C 0.53274 0.44747 0.57657 0.0
C133 C 0.55452 0.46994 0.59459 0.0
C134 C 0.54301 0.4769 0.61706 0.0
C135 C 0.49727 0.47126 0.64463 0.0
C136 C 0.47683 0.48426 0.64056 0.0
C137 C 0.50718 0.46953 0.66993 0.0
C138 C 0.52551 0.45261 0.6759 0.0
C139 C 0.51316 0.42005 0.66849 0.0
C140 C 0.52892 0.40317 0.67587 0.0
C141 C 0.55733 0.41852 0.69083 0.0
C142 C 0.57004 0.45133 0.69779 0.0
C143 C 0.55416 0.46817 0.6905 0.0
H144 H 0.04529 0.54164 0.76885 0.0
H145 H 0.08352 0.56483 0.73297 0.0
H146 H 0.13791 0.52144 0.7626 0.0
H147 H 0.09871 0.49679 0.79783 0.0
H148 H 0.00462 0.48156 0.78284 0.0
H149 H 0.10321 0.57259 0.82614 0.0
H150 H 0.16071 0.59857 0.83797 0.0
H151 H 0.14419 0.50718 0.86986 0.0
H152 H 0.0867 0.48203 0.85894 0.0
H153 H 0.9895 0.44451 0.89061 0.0
H154 H 0.94982 0.43173 0.92496 0.0
H155 H 0.91836 0.49329 0.88844 0.0
H156 H 0.95702 0.50452 0.8536 0.0
H157 H 0.04069 0.50329 0.87378 0.0
H158 H 0.94585 0.41596 0.84319 0.0
H159 H 0.88789 0.38229 0.83394 0.0
H160 H 0.8959 0.45067 0.77562 0.0
H161 H 0.95378 0.48562 0.78592 0.0
C162 C 0.06932 0.51787 0.78639 0.0
C163 C 0.06524 0.53681 0.76756 0.0
C164 C 0.0871 0.55011 0.7471 0.0
C165 C 0.11372 0.54509 0.7452 0.0
C166 C 0.11778 0.52601 0.76387 0.0
C167 C 0.09549 0.5121 0.78408 0.0
C168 C 0.04594 0.50439 0.8082 0.0
C169 C 0.01248 0.48676 0.8027 0.0
C170 C 0.05614 0.50919 0.83422 0.0
C171 C 0.09084 0.52542 0.84162 0.0
C172 C 0.11208 0.55833 0.83581 0.0
C173 C 0.14497 0.57303 0.84245 0.0
C174 C 0.15725 0.55501 0.85488 0.0
C175 C 0.13564 0.52205 0.86078 0.0
C176 C 0.10276 0.50753 0.85441 0.0
C177 C 0.97609 0.47533 0.86955 0.0
C178 C 0.97403 0.45523 0.89009 0.0
C179 C 0.95139 0.44811 0.90978 0.0
C180 C 0.93079 0.46153 0.90962 0.0
C181 C 0.93328 0.48199 0.88906 0.0
C182 C 0.95558 0.48867 0.86919 0.0
C183 C 0.99949 0.48235 0.84828 0.0
C184 C 0.03279 0.49833 0.8539 0.0
C185 C 0.98911 0.475 0.82242 0.0
C186 C 0.95416 0.45387 0.81576 0.0
C187 C 0.93515 0.4242 0.82878 0.0
C188 C 0.90211 0.4048 0.82337 0.0
C189 C 0.88762 0.41412 0.80424 0.0
C190 C 0.9067 0.4431 0.79048 0.0
C191 C 0.93969 0.46296 0.79632 0.0
H192 H 0.62764 0.07597 0.03454 0.0
H193 H 0.66488 0.13173 0.04751 0.0
H194 H 0.61447 0.16521 0.9979 0.0
H195 H 0.57544 0.1089 0.98687 0.0
H196 H 0.56585 0.04003 0.043 0.0
H197 H 0.63016 0.08304 0.96101 0.0
H198 H 0.64749 0.11907 0.92324 0.0
H199 H 0.54694 0.08563 0.90499 0.0
H200 H 0.52992 0.05022 0.94275 0.0
H201 H 0.48652 0.9514 0.95851 0.0
H202 H 0.46097 0.89312 0.94847 0.0
H203 H 0.52164 0.88287 0.00509 0.0
H204 H 0.54793 0.94099 0.01436 0.0
H205 H 0.54337 0.99962 0.95322 0.0
H206 H 0.47549 0.95841 0.02565 0.0
H207 H 0.44744 0.92237 0.06187 0.0
H208 H 0.54018 0.95164 0.09771 0.0
H209 H 0.56791 0.98851 0.06177 0.0
C210 C 0.59887 0.08808 0.00945 0.0
C211 C 0.62447 0.0953 0.02654 0.0
C212 C 0.6461 0.1274 0.03371 0.0
C213 C 0.64305 0.1533 0.02367 0.0
C214 C 0.61747 0.14602 0.00635 0.0
C215 C 0.59537 0.11374 0.99961 0.0
C216 C 0.57555 0.05349 1.00298 0.0
C217 C 0.56129 0.0312 0.02334 0.0
C218 C 0.56757 0.04206 0.97735 0.0
C219 C 0.57876 0.06417 0.95477 0.0
C220 C 0.61193 0.08368 0.94891 0.0
C221 C 0.62176 0.10407 0.92728 0.0
C222 C 0.59857 0.10531 0.91121 0.0
C223 C 0.56541 0.08563 0.91717 0.0
C224 C 0.55564 0.06519 0.93864 0.0
C225 C 0.51877 0.95059 0.98756 0.0
C226 C 0.49437 0.93663 0.96873 0.0
C227 C 0.47979 0.90339 0.963 0.0
C228 C 0.48916 0.88353 0.9762 0.0
C229 C 0.51356 0.89752 0.99497 0.0
C230 C 0.52846 0.93074 1.00037 0.0
C231 C 0.53526 0.98608 0.99326 0.0
C232 C 0.54792 0.00847 0.97286 0.0
C233 C 0.54061 0.99786 0.01881 0.0
C234 C 0.52379 0.97603 0.04096 0.0
C235 C 0.48974 0.95703 0.04134 0.0
C236 C 0.47375 0.93629 0.06204 0.0
C237 C 0.49148 0.93393 0.08279 0.0
C238 C 0.52565 0.95317 0.08235 0.0
C239 C 0.5416 0.97418 0.06174 0.0
H240 H 0.5617 0.4832 0.18913 0.0
H241 H 0.57965 0.46287 0.22499 0.0
H242 H 0.61725 0.55588 0.26313 0.0
H243 H 0.60125 0.57663 0.22653 0.0
H244 H 0.54616 0.56202 0.21032 0.0
H245 H 0.55906 0.48705 0.12812 0.0
H246 H 0.59672 0.46952 0.11281 0.0
H247 H 0.67566 0.55065 0.15225 0.0
H248 H 0.63784 0.56789 0.16776 0.0
H249 H 0.5679 0.60254 0.10343 0.0
H250 H 0.54133 0.61465 0.06845 0.0
H251 H 0.44788 0.55271 0.10416 0.0
H252 H 0.47488 0.54174 0.13952 0.0
H253 H 0.56202 0.54584 0.11842 0.0
H254 H 0.54913 0.6289 0.15411 0.0
H255 H 0.5266 0.66199 0.1698 0.0
H256 H 0.46663 0.5861 0.22377 0.0
H257 H 0.48873 0.55264 0.20762 0.0
C258 C 0.58041 0.53164 0.20489 0.0
C259 C 0.57454 0.49949 0.20492 0.0
C260 C 0.58436 0.48768 0.2257 0.0
C261 C 0.59986 0.50762 0.24711 0.0
C262 C 0.6059 0.53989 0.24688 0.0
C263 C 0.59643 0.55175 0.22601 0.0
C264 C 0.56789 0.5436 0.18377 0.0
C265 C 0.54956 0.55838 0.19022 0.0
C266 C 0.57324 0.54001 0.15751 0.0
C267 C 0.59565 0.52859 0.14921 0.0
C268 C 0.58444 0.50092 0.13357 0.0
C269 C 0.60591 0.49093 0.12491 0.0
C270 C 0.63906 0.50882 0.13132 0.0
C271 C 0.65026 0.5366 0.1469 0.0
C272 C 0.62868 0.54628 0.1559 0.0
C273 C 0.5234 0.57135 0.12413 0.0
C274 C 0.54169 0.59166 0.10372 0.0
C275 C 0.52639 0.59839 0.08363 0.0
C276 C 0.49235 0.58453 0.0833 0.0
C277 C 0.47413 0.56424 0.10389 0.0
C278 C 0.48952 0.55781 0.12411 0.0
C279 C 0.53961 0.56346 0.14504 0.0
C280 C 0.55848 0.54932 0.13853 0.0
C281 C 0.53599 0.56907 0.17125 0.0
C282 C 0.52033 0.58801 0.1794 0.0
C283 C 0.53054 0.61896 0.16887 0.0
C284 C 0.51778 0.63797 0.17795 0.0
C285 C 0.49491 0.62664 0.19805 0.0
C286 C 0.48447 0.59557 0.20844 0.0
C287 C 0.497 0.57641 0.19916 0.0
In288 In 0.63941 0.3999 0.41329 0.0
O289 O 0.69137 0.44256 0.41398 0.0
O290 O 0.68234 0.39946 0.39424 0.0
C291 C 0.62001 0.41664 0.45695 0.0
C292 C 0.62109 0.41829 0.37006 0.0
C293 C 0.61927 0.33679 0.42392 0.0
O294 O 0.64703 0.41789 0.45495 0.0
O295 O 0.60302 0.40756 0.43683 0.0
O296 O 0.60113 0.34545 0.41286 0.0
O297 O 0.64736 0.35979 0.42918 0.0
C298 C 0.7028 0.42817 0.40089 0.0
O299 O 0.61 0.38867 0.37577 0.0
O300 O 0.6406 0.43817 0.38627 0.0
In301 In 0.25837 0.63216 0.57559 0.0
O302 O 0.27216 0.59273 0.56994 0.0
O303 O 0.29599 0.62763 0.59947 0.0
C304 C 0.22296 0.61884 0.5323 0.0
C305 C 0.21547 0.60995 0.61502 0.0
C306 C 0.30082 0.69521 0.56416 0.0
O307 O 0.24364 0.60985 0.53564 0.0
O308 O 0.21973 0.63397 0.55101 0.0
O309 O 0.27842 0.68715 0.58053 0.0
O310 O 0.30209 0.67167 0.55424 0.0
C311 C 0.29279 0.60287 0.58788 0.0
O312 O 0.24307 0.63527 0.61682 0.0
O313 O 0.2094 0.59622 0.59335 0.0
In314 In 0.64203 0.2581 0.74745 0.0
O315 O 0.69534 0.2772 0.73726 0.0
O316 O 0.68481 0.29621 0.77063 0.0
C317 C 0.6229 0.22182 0.70395 0.0
C318 C 0.62607 0.22087 0.79033 0.0
C319 C 0.61427 0.29527 0.73961 0.0
O320 O 0.64652 0.25057 0.70454 0.0
O321 O 0.60954 0.21094 0.72544 0.0
O322 O 0.59824 0.26594 0.7467 0.0
O323 O 0.64431 0.30604 0.73712 0.0
C324 C 0.70626 0.29647 0.75614 0.0
O325 O 0.6161 0.24061 0.78603 0.0
O326 O 0.64386 0.2196 0.77284 0.0
In327 In 0.40188 0.63953 0.91374 0.0
O328 O 0.34812 0.60354 0.92224 0.0
O329 O 0.35932 0.63853 0.89274 0.0
C330 C 0.42753 0.62195 0.95287 0.0
C331 C 0.41978 0.61824 0.87213 0.0
C332 C 0.42425 0.70344 0.92332 0.0
O333 O 0.39979 0.61932 0.95421 0.0
O334 O 0.44208 0.63307 0.93179 0.0
O335 O 0.42656 0.69315 0.90153 0.0
O336 O 0.41084 0.6816 0.9402 0.0
C337 C 0.33755 0.61487 0.90524 0.0
O338 O 0.43442 0.64774 0.87903 0.0
O339 O 0.39626 0.59938 0.8864 0.0
In340 In 0.78312 0.40347 0.07819 0.0
O341 O 0.79998 0.3996 0.11876 0.0
O342 O 0.82693 0.44419 0.09816 0.0
C343 C 0.74282 0.34069 0.06546 0.0
C344 C 0.74261 0.42529 0.09151 0.0
C345 C 0.82398 0.41972 0.03787 0.0
O346 O 0.76678 0.34905 0.08031 0.0
O347 O 0.73944 0.36382 0.0572 0.0
O348 O 0.80112 0.42613 0.03816 0.0
O349 O 0.82574 0.40516 0.05756 0.0
C350 C 0.82389 0.42838 0.11846 0.0
O351 O 0.76469 0.43984 0.07481 0.0
O352 O 0.74135 0.4003 0.1012 0.0
In353 In 0.40267 0.78312 0.24903 0.0
O354 O 0.43054 0.75564 0.25473 0.0
O355 O 0.41168 0.75542 0.21762 0.0
C356 C 0.41891 0.81743 0.29333 0.0
C357 C 0.42601 0.82963 0.21221 0.0
C358 C 0.33952 0.73907 0.2582 0.0
O359 O 0.4341 0.80366 0.28519 0.0
O360 O 0.39588 0.81392 0.27911 0.0
O361 O 0.34819 0.76571 0.24679 0.0
O362 O 0.36256 0.73459 0.26456 0.0
C363 C 0.42716 0.74617 0.23164 0.0
O364 O 0.3981 0.80459 0.21089 0.0
O365 O 0.44173 0.8315 0.23229 0.0
H366 H 0.20288 0.62617 0.29591 0.0
H367 H 0.17599 0.69831 0.27778 0.0
H368 H 0.23131 0.73582 0.26302 0.0
H369 H 0.2877 0.74856 0.2561 0.0
H370 H 0.31488 0.67691 0.27546 0.0
H371 H 0.25906 0.63865 0.28855 0.0
C372 C 0.2091 0.65 0.2885 0.0
C373 C 0.18542 0.65947 0.28797 0.0
C374 C 0.241 0.67151 0.28022 0.0
C375 C 0.1939 0.69059 0.27865 0.0
C376 C 0.22547 0.71198 0.27009 0.0
C377 C 0.28131 0.72447 0.263 0.0
C378 C 0.30533 0.71554 0.26476 0.0
C379 C 0.24927 0.70278 0.27091 0.0
C380 C 0.2968 0.68437 0.27394 0.0
C381 C 0.2649 0.66248 0.28146 0.0
H382 H 0.59549 0.20097 0.46416 0.0
H383 H 0.49601 0.17417 0.44865 0.0
H384 H 0.51376 0.22904 0.43264 0.0
H385 H 0.55754 0.28515 0.42395 0.0
H386 H 0.65686 0.31219 0.44058 0.0
H387 H 0.63927 0.25673 0.45488 0.0
C388 C 0.57776 0.20709 0.45704 0.0
C389 C 0.54451 0.18358 0.45766 0.0
C390 C 0.58811 0.23875 0.44802 0.0
C391 C 0.52174 0.19197 0.44868 0.0
C392 C 0.53187 0.22329 0.4394 0.0
C393 C 0.57531 0.27879 0.43052 0.0
C394 C 0.60842 0.3027 0.43118 0.0
C395 C 0.56498 0.24695 0.43912 0.0
C396 C 0.63119 0.29421 0.43993 0.0
C397 C 0.62117 0.26251 0.44813 0.0
H398 H 0.36918 0.52685 0.60097 0.0
H399 H 0.39997 0.58381 0.67072 0.0
H400 H 0.36772 0.60896 0.65944 0.0
H401 H 0.3307 0.61475 0.62991 0.0
H402 H 0.29772 0.55595 0.56128 0.0
H403 H 0.33043 0.53102 0.5723 0.0
C404 C 0.36853 0.54441 0.61393 0.0
C405 C 0.38717 0.55346 0.63663 0.0
C406 C 0.34948 0.5584 0.60756 0.0
C407 C 0.38638 0.57675 0.65289 0.0
C408 C 0.36775 0.59101 0.64656 0.0
C409 C 0.33067 0.59647 0.61737 0.0
C410 C 0.31195 0.58727 0.59477 0.0
C411 C 0.34928 0.58208 0.62393 0.0
C412 C 0.31194 0.56341 0.5788 0.0
C413 C 0.33067 0.54919 0.58507 0.0
H414 H 0.85919 0.38555 0.75913 0.0
H415 H 0.83793 0.39657 0.8378 0.0
H416 H 0.77965 0.36161 0.82974 0.0
H417 H 0.73493 0.32747 0.80042 0.0
H418 H 0.75617 0.31344 0.72239 0.0
H419 H 0.81428 0.34989 0.73 0.0
C420 C 0.84165 0.38034 0.77437 0.0
C421 C 0.85253 0.39361 0.79893 0.0
C422 C 0.80832 0.35963 0.76973 0.0
C423 C 0.82987 0.3865 0.81875 0.0
C424 C 0.79666 0.36658 0.81415 0.0
C425 C 0.7523 0.33245 0.78508 0.0
C426 C 0.74135 0.31795 0.76087 0.0
C427 C 0.78562 0.35292 0.78974 0.0
C428 C 0.76408 0.32431 0.74122 0.0
C429 C 0.79727 0.34519 0.74554 0.0
H430 H 0.48112 0.8556 0.92919 0.0
H431 H 0.46406 0.83292 0.01001 0.0
H432 H 0.44177 0.77503 1.00071 0.0
H433 H 0.42841 0.73112 0.96974 0.0
H434 H 0.44718 0.75375 0.88899 0.0
H435 H 0.46744 0.81139 0.89806 0.0
C436 C 0.47217 0.83787 0.94468 0.0
C437 C 0.47413 0.84838 0.97022 0.0
C438 C 0.45988 0.80471 0.93922 0.0
C439 C 0.46293 0.82532 0.99021 0.0
C440 C 0.45017 0.79228 0.9849 0.0
C441 C 0.43685 0.74866 0.95412 0.0
C442 C 0.4363 0.73823 0.92875 0.0
C443 C 0.44877 0.78173 0.95951 0.0
C444 C 0.44744 0.76123 0.90871 0.0
C445 C 0.45898 0.79416 0.91388 0.0
H446 H 0.63192 0.44865 0.13448 0.0
H447 H 0.6973 0.5459 0.10712 0.0
H448 H 0.73483 0.52855 0.0913 0.0
H449 H 0.74922 0.48552 0.08568 0.0
H450 H 0.68459 0.38911 0.11527 0.0
H451 H 0.64654 0.40618 0.12957 0.0
C452 C 0.65431 0.46594 0.12491 0.0
C453 C 0.66184 0.4984 0.12185 0.0
C454 C 0.67588 0.45592 0.11624 0.0
C455 C 0.69113 0.52078 0.10979 0.0
C456 C 0.71251 0.51085 0.10067 0.0
C457 C 0.72671 0.46829 0.09513 0.0
C458 C 0.71965 0.43611 0.09934 0.0
C459 C 0.70517 0.47847 0.10383 0.0
C460 C 0.69059 0.41406 0.11186 0.0
C461 C 0.6688 0.42377 0.12004 0.0
H462 H 0.39587 0.82975 0.51152 0.0
H463 H 0.36331 0.86523 0.57476 0.0
H464 H 0.32914 0.80969 0.59032 0.0
H465 H 0.3079 0.75071 0.58579 0.0
H466 H 0.3429 0.71588 0.52388 0.0
H467 H 0.37724 0.77151 0.50844 0.0
C468 C 0.38174 0.8255 0.52894 0.0
C469 C 0.38208 0.8518 0.54174 0.0
C470 C 0.36258 0.79352 0.53813 0.0
C471 C 0.36308 0.84552 0.5641 0.0
C472 C 0.34368 0.81373 0.57318 0.0
C473 C 0.32317 0.75537 0.569 0.0
C474 C 0.32277 0.72923 0.55597 0.0
C475 C 0.34308 0.7875 0.56028 0.0
C476 C 0.34279 0.7356 0.5343 0.0
C477 C 0.36239 0.7674 0.52539 0.0
H478 H 0.52811 0.35745 0.71097 0.0
H479 H 0.62215 0.43841 0.69078 0.0
H480 H 0.64822 0.40792 0.70517 0.0
H481 H 0.64408 0.3577 0.72238 0.0
H482 H 0.54993 0.27654 0.74216 0.0
H483 H 0.52407 0.30765 0.72898 0.0
C484 C 0.55429 0.36831 0.70954 0.0
C485 C 0.57316 0.40006 0.69968 0.0
C486 C 0.56907 0.35064 0.71782 0.0
C487 C 0.60712 0.41408 0.69843 0.0
C488 C 0.62201 0.39662 0.70657 0.0
C489 C 0.61792 0.3469 0.72395 0.0
C490 C 0.59894 0.31486 0.73319 0.0
C491 C 0.60321 0.36485 0.7162 0.0
C492 C 0.56508 0.30118 0.73511 0.0
C493 C 0.55027 0.31891 0.72752 0.0
H494 H 0.18466 0.54457 0.8974 0.0
H495 H 0.20938 0.59963 0.82659 0.0
H496 H 0.26701 0.62391 0.83656 0.0
H497 H 0.31054 0.62838 0.86465 0.0
H498 H 0.28609 0.57078 0.93398 0.0
H499 H 0.22818 0.54809 0.92501 0.0
C500 C 0.20258 0.56159 0.88396 0.0
C501 C 0.19247 0.57022 0.86127 0.0
C502 C 0.23578 0.5749 0.88948 0.0
C503 C 0.21624 0.59289 0.84442 0.0
C504 C 0.24929 0.60661 0.84998 0.0
C505 C 0.29252 0.61093 0.87783 0.0
C506 C 0.30255 0.60131 0.89997 0.0
C507 C 0.25933 0.59769 0.87238 0.0
C508 C 0.27897 0.57853 0.91679 0.0
C509 C 0.24587 0.56558 0.91168 0.0
H510 H 0.63016 0.2029 0.03073 0.0
H511 H 0.7082 0.18123 0.03471 0.0
H512 H 0.74517 0.23629 0.04978 0.0
H513 H 0.75585 0.29126 0.06123 0.0
H514 H 0.6793 0.31424 0.05279 0.0
H515 H 0.64147 0.25824 0.03964 0.0
C516 C 0.65535 0.21022 0.03442 0.0
C517 C 0.66607 0.18755 0.0317 0.0
C518 C 0.67685 0.24229 0.04233 0.0
C519 C 0.69883 0.19769 0.03714 0.0
C520 C 0.72018 0.22935 0.0456 0.0
C521 C 0.73082 0.28385 0.05663 0.0
C522 C 0.72022 0.30662 0.05813 0.0
C523 C 0.70945 0.25185 0.04833 0.0
C524 C 0.68794 0.29702 0.05175 0.0
C525 C 0.66632 0.26505 0.04424 0.0
H526 H 0.47362 0.66146 0.17122 0.0
H527 H 0.48893 0.63883 0.24846 0.0
H528 H 0.47001 0.67437 0.26583 0.0
H529 H 0.44928 0.71218 0.25898 0.0
H530 H 0.43279 0.73347 0.1816 0.0
H531 H 0.45234 0.69853 0.16439 0.0
C532 C 0.47295 0.66446 0.19185 0.0
C533 C 0.48267 0.6476 0.20853 0.0
C534 C 0.46195 0.6848 0.20168 0.0
C535 C 0.48125 0.65132 0.23523 0.0
C536 C 0.47063 0.67177 0.24517 0.0
C537 C 0.45011 0.70924 0.23837 0.0
C538 C 0.43972 0.72545 0.2216 0.0
C539 C 0.46096 0.68869 0.22857 0.0
C540 C 0.44064 0.72121 0.19492 0.0
C541 C 0.45181 0.70124 0.18505 0.0
H542 H 0.84914 0.51576 0.36826 0.0
H543 H 0.84286 0.42168 0.36474 0.0
H544 H 0.78556 0.39521 0.37639 0.0
H545 H 0.73729 0.39871 0.38855 0.0
H546 H 0.74548 0.49306 0.39656 0.0
H547 H 0.80236 0.51954 0.38298 0.0
C548 C 0.83561 0.48951 0.37049 0.0
C549 C 0.85067 0.47093 0.3655 0.0
C550 C 0.80296 0.47445 0.37819 0.0
C551 C 0.83205 0.43678 0.36788 0.0
C552 C 0.79925 0.42154 0.37482 0.0
C553 C 0.75161 0.42507 0.38731 0.0
C554 C 0.73732 0.44396 0.39341 0.0
C555 C 0.78447 0.44014 0.38007 0.0
C556 C 0.75608 0.47807 0.39202 0.0
C557 C 0.78852 0.49319 0.38419 0.0
H558 H 0.16318 0.59395 0.42088 0.0
H559 H 0.09336 0.61146 0.46043 0.0
H560 H 0.12357 0.62118 0.50027 0.0
H561 H 0.16906 0.62348 0.52439 0.0
H562 H 0.23613 0.60139 0.48589 0.0
H563 H 0.20711 0.59371 0.44536 0.0
C564 C 0.15421 0.59946 0.43821 0.0
C565 C 0.126 0.60215 0.43735 0.0
C566 C 0.17107 0.60393 0.4614 0.0
C567 C 0.11534 0.60997 0.46012 0.0
C568 C 0.13242 0.61519 0.4831 0.0
C569 C 0.17728 0.61695 0.50712 0.0
C570 C 0.20469 0.61306 0.50808 0.0
C571 C 0.16023 0.61212 0.48399 0.0
C572 C 0.21498 0.60439 0.48563 0.0
C573 C 0.19848 0.60011 0.46245 0.0
H574 H 0.58192 0.16477 0.59191 0.0
H575 H 0.50786 0.08334 0.63487 0.0
H576 H 0.53059 0.11229 0.67502 0.0
H577 H 0.5714 0.16073 0.69811 0.0
H578 H 0.64636 0.2416 0.65541 0.0
H579 H 0.62386 0.21251 0.6151 0.0
C580 C 0.57091 0.15318 0.61004 0.0
C581 C 0.54301 0.12196 0.61023 0.0
C582 C 0.58442 0.16977 0.63318 0.0
C583 C 0.5289 0.1076 0.634 0.0
C584 C 0.54207 0.12401 0.65705 0.0
C585 C 0.58294 0.17189 0.67999 0.0
C586 C 0.61051 0.20326 0.67976 0.0
C587 C 0.56979 0.15511 0.65688 0.0
C588 C 0.62514 0.21744 0.65612 0.0
C589 C 0.61223 0.20087 0.63305 0.0
H590 H 0.47634 0.59204 0.77088 0.0
H591 H 0.39903 0.49385 0.78578 0.0
H592 H 0.38309 0.51244 0.82394 0.0
H593 H 0.39148 0.55648 0.85343 0.0
H594 H 0.4694 0.65447 0.83891 0.0
H595 H 0.48501 0.63595 0.8005 0.0
C596 C 0.45618 0.57464 0.78259 0.0
C597 C 0.43893 0.54159 0.77541 0.0
C598 C 0.44731 0.58543 0.80465 0.0
C599 C 0.41249 0.5195 0.79061 0.0
C600 C 0.40348 0.53007 0.81256 0.0
C601 C 0.4119 0.57377 0.84187 0.0
C602 C 0.42927 0.60679 0.84904 0.0
C603 C 0.42074 0.56296 0.81979 0.0
C604 C 0.45564 0.6289 0.83384 0.0
C605 C 0.46458 0.61834 0.81186 0.0
H606 H 0.9387 0.45402 0.96063 0.0
H607 H 0.86923 0.45315 0.90667 0.0
H608 H 0.83088 0.44231 0.94165 0.0
H609 H 0.81631 0.43148 0.9877 0.0
H610 H 0.88443 0.42788 0.04048 0.0
H611 H 0.92371 0.44145 0.00578 0.0
C612 C 0.91503 0.451 0.95634 0.0
C613 C 0.90709 0.45449 0.93091 0.0
C614 C 0.8927 0.44388 0.97641 0.0
C615 C 0.87642 0.45119 0.92604 0.0
C616 C 0.85428 0.44473 0.94603 0.0
C617 C 0.83983 0.43385 0.99153 0.0
C618 C 0.84752 0.42879 0.01657 0.0
C619 C 0.86212 0.44094 0.97131 0.0
C620 C 0.87792 0.43157 0.02131 0.0
C621 C 0.90041 0.43935 1.0015 0.0
H622 H 0.50701 0.94365 0.13385 0.0
H623 H 0.43744 0.87297 0.08096 0.0
H624 H 0.40961 0.83573 0.11652 0.0
H625 H 0.40623 0.8221 0.16248 0.0
H626 H 0.47815 0.89102 0.2148 0.0
H627 H 0.50402 0.92986 0.17961 0.0
C628 C 0.48597 0.91999 0.12999 0.0
C629 C 0.47443 0.91131 0.10464 0.0
C630 C 0.47047 0.89829 0.15048 0.0
C631 C 0.44667 0.88068 0.10024 0.0
C632 C 0.43081 0.85919 0.12057 0.0
C633 C 0.42738 0.84575 0.16619 0.0
C634 C 0.4402 0.85376 0.19119 0.0
C635 C 0.44259 0.86766 0.14575 0.0
C636 C 0.46784 0.88431 0.19569 0.0
C637 C 0.48267 0.9065 0.17558 0.0
H638 H 0.56669 0.44648 0.26834 0.0
H639 H 0.65405 0.53995 0.27733 0.0
H640 H 0.66756 0.52071 0.31624 0.0
H641 H 0.65445 0.47783 0.34813 0.0
H642 H 0.56935 0.38319 0.33807 0.0
H643 H 0.5554 0.40225 0.29888 0.0
C644 C 0.58897 0.46254 0.27852 0.0
C645 C 0.60907 0.49483 0.26991 0.0
C646 C 0.597 0.45112 0.30074 0.0
C647 C 0.63765 0.51527 0.2837 0.0
C648 C 0.64556 0.50422 0.30592 0.0
C649 C 0.63282 0.46137 0.33737 0.0
C650 C 0.61277 0.42925 0.34608 0.0
C651 C 0.62529 0.47233 0.31474 0.0
C652 C 0.5851 0.40806 0.33176 0.0
C653 C 0.57713 0.41896 0.30939 0.0
H654 H 0.47209 0.8956 0.39721 0.0
H655 H 0.39256 0.91319 0.38363 0.0
H656 H 0.37792 0.88005 0.34481 0.0
H657 H 0.38836 0.84727 0.31408 0.0
H658 H 0.4683 0.83018 0.3268 0.0
H659 H 0.48236 0.86227 0.3664 0.0
C660 C 0.45166 0.89233 0.38568 0.0
C661 C 0.43343 0.90685 0.39343 0.0
C662 C 0.44353 0.87346 0.36315 0.0
C663 C 0.40674 0.90193 0.37841 0.0
C664 C 0.39847 0.88317 0.35607 0.0
C665 C 0.40886 0.85052 0.32552 0.0
C666 C 0.42731 0.83643 0.31748 0.0
C667 C 0.41677 0.86896 0.3482 0.0
C668 C 0.45373 0.84081 0.33256 0.0
C669 C 0.46177 0.85916 0.3552 0.0
H670 H 0.58776 0.44377 0.56881 0.0
H671 H 0.5052 0.43744 0.52874 0.0
H672 H 0.5247 0.42713 0.48849 0.0
H673 H 0.56532 0.42022 0.46442 0.0
H674 H 0.64916 0.42909 0.50397 0.0
H675 H 0.6294 0.43888 0.54448 0.0
C676 C 0.57417 0.44052 0.55126 0.0
C677 C 0.54487 0.4412 0.552 0.0
C678 C 0.58585 0.43525 0.52798 0.0
C679 C 0.52744 0.43639 0.52899 0.0
C680 C 0.53873 0.43078 0.50585 0.0
C681 C 0.57931 0.4244 0.4819 0.0
C682 C 0.60863 0.4239 0.4812 0.0
C683 C 0.56788 0.43014 0.50511 0.0
C684 C 0.62653 0.42943 0.50398 0.0
C685 C 0.61521 0.43494 0.52718 0.0
H686 H 0.10008 0.53982 0.69431 0.0
H687 H 0.17962 0.58301 0.74808 0.0
H688 H 0.21823 0.60841 0.71256 0.0
H689 H 0.22925 0.618 0.66605 0.0
H690 H 0.14987 0.57149 0.61231 0.0
H691 H 0.11123 0.54792 0.64789 0.0
C692 C 0.12588 0.55488 0.69817 0.0
C693 C 0.13708 0.55972 0.72367 0.0
C694 C 0.14788 0.56886 0.67767 0.0
C695 C 0.17055 0.57888 0.72853 0.0
C696 C 0.19256 0.59348 0.70827 0.0
C697 C 0.20346 0.60287 0.66221 0.0
C698 C 0.19232 0.59666 0.63667 0.0
C699 C 0.1815 0.58865 0.68275 0.0
C700 C 0.15895 0.57661 0.63185 0.0
C701 C 0.13687 0.56313 0.65216 0.0
H702 H 0.5753 0.1443 0.89508 0.0
H703 H 0.64437 0.11406 0.87531 0.0
H704 H 0.65906 0.14712 0.83617 0.0
H705 H 0.65127 0.18365 0.807 0.0
H706 H 0.58241 0.21407 0.8272 0.0
H707 H 0.56836 0.18161 0.86653 0.0
C708 C 0.59347 0.14484 0.88214 0.0
C709 C 0.60861 0.12662 0.88806 0.0
C710 C 0.6017 0.1638 0.85967 0.0
C711 C 0.63255 0.12806 0.87133 0.0
C712 C 0.6408 0.14679 0.84886 0.0
C713 C 0.63316 0.18312 0.82001 0.0
C714 C 0.61778 0.20111 0.81411 0.0
C715 C 0.62538 0.16459 0.84274 0.0
C716 C 0.59456 0.2004 0.83125 0.0
C717 C 0.58652 0.18185 0.85376 0.0
H718 H 0.50821 0.59039 0.03232 0.0
H719 H 0.43935 0.59311 0.08501 0.0
H720 H 0.41223 0.60307 0.04927 0.0
H721 H 0.40878 0.61243 1.00305 0.0
H722 H 0.47987 0.61324 0.95098 0.0
H723 H 0.50565 0.601 0.98653 0.0
C724 C 0.48755 0.59358 0.03612 0.0
C725 C 0.47594 0.59094 0.06146 0.0
C726 C 0.47243 0.59999 0.01554 0.0
C727 C 0.44862 0.59448 0.06575 0.0
C728 C 0.43317 0.60041 0.04531 0.0
C729 C 0.42982 0.60976 0.9995 0.0
C730 C 0.44235 0.61363 0.97443 0.0
C731 C 0.4449 0.60329 0.02013 0.0
C732 C 0.46979 0.6104 0.97013 0.0
C733 C 0.48455 0.60341 0.99044 0.0
H734 H 0.93924 0.50555 0.19608 0.0
H735 H 0.86265 0.45321 0.25119 0.0
H736 H 0.82375 0.42557 0.21621 0.0
H737 H 0.81173 0.4167 0.16965 0.0
H738 H 0.88783 0.4729 0.11496 0.0
H739 H 0.92685 0.49851 0.14991 0.0
C740 C 0.914 0.48806 0.20031 0.0
C741 C 0.90366 0.48117 0.22597 0.0
C742 C 0.89181 0.47293 0.18018 0.0
C743 C 0.87094 0.45882 0.23145 0.0
C744 C 0.84881 0.443 0.2115 0.0
C745 C 0.83691 0.4344 0.16551 0.0
C746 C 0.84707 0.44278 0.13988 0.0
C747 C 0.85899 0.44983 0.18576 0.0
C748 C 0.87957 0.46613 0.13461 0.0
C749 C 0.90185 0.48077 0.15455 0.0
loop_
_geom_bond_atom_site_label_1
_geom_bond_atom_site_label_2
_geom_bond_distance
_geom_bond_site_symmetry_2
_ccdc_geom_bond_type
H0 C19 0.949 . S
H1 C20 0.950 . S
H2 C22 0.950 . S
H3 C23 0.950 . S
H4 C25 0.950 . S
H5 C28 0.950 . S
H6 C29 0.950 . S
H7 C31 0.951 . S
H8 C32 0.949 . S
H9 C34 0.949 . S
H10 C35 0.950 . S
H11 C37 0.950 . S
H12 C38 0.950 . S
H13 C40 0.962 . S
H14 C43 0.950 . S
H15 C44 0.950 . S
H16 C46 0.951 . S
H17 C47 0.949 . S
C18 C19 1.376 . S
C18 C23 1.386 . S
C18 C24 1.483 . S
C19 H0 0.949 . S
C19 C18 1.376 . S
C19 C20 1.397 . S
C20 H1 0.950 . S
C20 C19 1.397 . S
C20 C21 1.391 . S
C21 C20 1.391 . S
C21 C22 1.405 . S
C22 H2 0.950 . S
C22 C21 1.405 . S
C22 C23 1.367 . S
C23 H3 0.950 . S
C23 C18 1.386 . S
C23 C22 1.367 . S
C24 C18 1.483 . S
C24 C25 1.382 1_655 S
C24 C26 1.403 . S
C25 H4 0.950 . S
C25 C24 1.382 1_455 S
C25 C41 1.411 . S
C26 C24 1.403 . S
C26 C27 1.489 . S
C26 C40 1.411 1_655 S
C27 C26 1.489 . S
C27 C28 1.383 . S
C27 C32 1.382 . S
C28 H5 0.950 . S
C28 C27 1.383 . S
C28 C29 1.395 . S
C29 H6 0.950 . S
C29 C28 1.395 . S
C29 C30 1.288 . S
C30 C29 1.288 . S
C30 C31 1.392 . S
C31 H7 0.951 . S
C31 C30 1.392 . S
C31 C32 1.392 . S
C32 H8 0.949 . S
C32 C27 1.382 . S
C32 C31 1.392 . S
C33 C34 1.376 . S
C33 C38 1.386 . S
C33 C39 1.483 . S
C34 H9 0.949 . S
C34 C33 1.376 . S
C34 C35 1.397 . S
C35 H10 0.950 . S
C35 C34 1.397 . S
C35 C36 1.391 . S
C36 C35 1.391 . S
C36 C37 1.405 . S
C37 H11 0.950 . S
C37 C36 1.405 . S
C37 C38 1.367 . S
C38 H12 0.950 . S
C38 C33 1.386 . S
C38 C37 1.367 . S
C39 C33 1.483 . S
C39 C40 1.382 . S
C39 C41 1.403 . S
C40 H13 0.962 . S
C40 C26 1.411 1_455 S
C40 C39 1.382 . S
C41 C25 1.411 . S
C41 C39 1.403 . S
C41 C42 1.489 . S
C42 C41 1.489 . S
C42 C43 1.383 . S
C42 C47 1.382 . S
C43 H14 0.950 . S
C43 C42 1.383 . S
C43 C44 1.395 . S
C44 H15 0.950 . S
C44 C43 1.395 . S
C44 C45 1.288 . S
C45 C44 1.288 . S
C45 C46 1.392 . S
C46 H16 0.951 . S
C46 C45 1.392 . S
C46 C47 1.392 . S
C47 H17 0.949 . S
C47 C42 1.382 . S
C47 C46 1.392 . S
H48 C67 0.949 . S
H49 C68 0.950 . S
H50 C70 0.950 . S
H51 C71 0.950 . S
H52 C73 0.950 1_565 S
H53 C76 0.950 . S
H54 C77 0.950 . S
H55 C79 0.951 . S
H56 C80 0.949 . S
H57 C82 0.949 . S
H58 C83 0.950 . S
H59 C85 0.950 . S
H60 C86 0.950 . S
H61 C88 0.950 . S
H62 C91 0.950 . S
H63 C92 0.950 . S
H64 C94 0.951 . S
H65 C95 0.949 . S
C66 C67 1.376 . S
C66 C71 1.386 . S
C66 C72 1.483 . S
C67 H48 0.949 . S
C67 C66 1.376 . S
C67 C68 1.397 . S
C68 H49 0.950 . S
C68 C67 1.397 . S
C68 C69 1.391 . S
C69 C68 1.391 . S
C69 C70 1.405 . S
C70 H50 0.950 . S
C70 C69 1.405 . S
C70 C71 1.367 . S
C71 H51 0.950 . S
C71 C66 1.386 . S
C71 C70 1.367 . S
C72 C66 1.483 . S
C72 C73 1.382 1_565 S
C72 C74 1.403 . S
C73 H52 0.950 1_545 S
C73 C72 1.382 1_545 S
C73 C89 1.411 . S
C74 C72 1.403 . S
C74 C75 1.489 . S
C74 C88 1.411 1_565 S
C75 C74 1.489 . S
C75 C76 1.383 . S
C75 C80 1.382 . S
C76 H53 0.950 . S
C76 C75 1.383 . S
C76 C77 1.395 . S
C77 H54 0.950 . S
C77 C76 1.395 . S
C77 C78 1.288 . S
C78 C77 1.288 . S
C78 C79 1.392 . S
C79 H55 0.951 . S
C79 C78 1.392 . S
C79 C80 1.392 . S
C80 H56 0.949 . S
C80 C75 1.382 . S
C80 C79 1.392 . S
C81 C82 1.376 . S
C81 C86 1.386 . S
C81 C87 1.483 . S
C82 H57 0.949 . S
C82 C81 1.376 . S
C82 C83 1.397 . S
C83 H58 0.950 . S
C83 C82 1.397 . S
C83 C84 1.391 . S
C84 C83 1.391 . S
C84 C85 1.405 . S
C85 H59 0.950 . S
C85 C84 1.405 . S
C85 C86 1.367 . S
C86 H60 0.950 . S
C86 C81 1.386 . S
C86 C85 1.367 . S
C87 C81 1.483 . S
C87 C88 1.382 . S
C87 C89 1.403 . S
C88 H61 0.950 . S
C88 C74 1.411 1_545 S
C88 C87 1.382 . S
C89 C73 1.411 . S
C89 C87 1.403 . S
C89 C90 1.489 . S
C90 C89 1.489 . S
C90 C91 1.383 . S
C90 C95 1.382 . S
C91 H62 0.950 . S
C91 C90 1.383 . S
C91 C92 1.395 . S
C92 H63 0.950 . S
C92 C91 1.395 . S
C92 C93 1.288 . S
C93 C92 1.288 . S
C93 C94 1.392 . S
C94 H64 0.951 . S
C94 C93 1.392 . S
C94 C95 1.392 . S
C95 H65 0.949 . S
C95 C90 1.382 . S
C95 C94 1.392 . S
H96 C115 0.949 . S
H97 C116 0.950 . S
H98 C118 0.950 . S
H99 C119 0.950 . S
H100 C121 0.950 . S
H101 C124 0.950 . S
H102 C125 0.950 . S
H103 C127 0.951 . S
H104 C128 0.949 . S
H105 C130 0.949 . S
H106 C131 0.950 . S
H107 C133 0.950 . S
H108 C134 0.950 . S
H109 C136 0.950 . S
H110 C139 0.950 . S
H111 C140 0.950 . S
H112 C142 0.951 . S
H113 C143 0.949 . S
C114 C115 1.376 . S
C114 C119 1.386 . S
C114 C120 1.483 . S
C115 H96 0.949 . S
C115 C114 1.376 . S
C115 C116 1.397 . S
C116 H97 0.950 . S
C116 C115 1.397 . S
C116 C117 1.391 . S
C117 C116 1.391 . S
C117 C118 1.405 . S
C118 H98 0.950 . S
C118 C117 1.405 . S
C118 C119 1.367 . S
C119 H99 0.950 . S
C119 C114 1.386 . S
C119 C118 1.367 . S
C120 C114 1.483 . S
C120 C121 1.382 . S
C120 C122 1.403 . S
C121 H100 0.950 . S
C121 C120 1.382 . S
C121 C137 1.411 . S
C122 C120 1.403 . S
C122 C123 1.489 . S
C122 C136 1.411 . S
C123 C122 1.489 . S
C123 C124 1.383 . S
C123 C128 1.382 . S
C124 H101 0.950 . S
C124 C123 1.383 . S
C124 C125 1.395 . S
C125 H102 0.950 . S
C125 C124 1.395 . S
C125 C126 1.288 . S
C126 C125 1.288 . S
C126 C127 1.392 . S
C127 H103 0.951 . S
C127 C126 1.392 . S
C127 C128 1.392 . S
C128 H104 0.949 . S
C128 C123 1.382 . S
C128 C127 1.392 . S
C129 C130 1.376 . S
C129 C134 1.386 . S
C129 C135 1.483 . S
C130 H105 0.949 . S
C130 C129 1.376 . S
C130 C131 1.397 . S
C131 H106 0.950 . S
C131 C130 1.397 . S
C131 C132 1.391 . S
C132 C131 1.391 . S
C132 C133 1.405 . S
C133 H107 0.950 . S
C133 C132 1.405 . S
C133 C134 1.367 . S
C134 H108 0.950 . S
C134 C129 1.386 . S
C134 C133 1.367 . S
C135 C129 1.483 . S
C135 C136 1.382 . S
C135 C137 1.403 . S
C136 H109 0.950 . S
C136 C122 1.411 . S
C136 C135 1.382 . S
C137 C121 1.411 . S
C137 C135 1.403 . S
C137 C138 1.489 . S
C138 C137 1.489 . S
C138 C139 1.383 . S
C138 C143 1.382 . S
C139 H110 0.950 . S
C139 C138 1.383 . S
C139 C140 1.395 . S
C140 H111 0.950 . S
C140 C139 1.395 . S
C140 C141 1.288 . S
C141 C140 1.288 . S
C141 C142 1.392 . S
C142 H112 0.951 . S
C142 C141 1.392 . S
C142 C143 1.392 . S
C143 H113 0.949 . S
C143 C138 1.382 . S
C143 C142 1.392 . S
H144 C163 0.949 . S
H145 C164 0.950 . S
H146 C166 0.950 . S
H147 C167 0.950 . S
H148 C169 0.952 . S
H149 C172 0.950 . S
H150 C173 0.950 . S
H151 C175 0.951 . S
H152 C176 0.949 . S
H153 C178 0.949 . S
H154 C179 0.950 . S
H155 C181 0.950 . S
H156 C182 0.950 . S
H157 C184 0.950 . S
H158 C187 0.950 . S
H159 C188 0.950 . S
H160 C190 0.951 . S
H161 C191 0.949 . S
C162 C163 1.376 . S
C162 C167 1.386 . S
C162 C168 1.483 . S
C163 H144 0.949 . S
C163 C162 1.376 . S
C163 C164 1.397 . S
C164 H145 0.950 . S
C164 C163 1.397 . S
C164 C165 1.391 . S
C165 C164 1.391 . S
C165 C166 1.405 . S
C166 H146 0.950 . S
C166 C165 1.405 . S
C166 C167 1.367 . S
C167 H147 0.950 . S
C167 C162 1.386 . S
C167 C166 1.367 . S
C168 C162 1.483 . S
C168 C169 1.382 . S
C168 C170 1.403 . S
C169 H148 0.952 . S
C169 C168 1.382 . S
C169 C185 1.411 1_455 S
C170 C168 1.403 . S
C170 C171 1.489 . S
C170 C184 1.411 . S
C171 C170 1.489 . S
C171 C172 1.383 . S
C171 C176 1.382 . S
C172 H149 0.950 . S
C172 C171 1.383 . S
C172 C173 1.395 . S
C173 H150 0.950 . S
C173 C172 1.395 . S
C173 C174 1.288 . S
C174 C173 1.288 . S
C174 C175 1.392 . S
C175 H151 0.951 . S
C175 C174 1.392 . S
C175 C176 1.392 . S
C176 H152 0.949 . S
C176 C171 1.382 . S
C176 C175 1.392 . S
C177 C178 1.376 . S
C177 C182 1.386 . S
C177 C183 1.483 . S
C178 H153 0.949 . S
C178 C177 1.376 . S
C178 C179 1.397 . S
C179 H154 0.950 . S
C179 C178 1.397 . S
C179 C180 1.391 . S
C180 C179 1.391 . S
C180 C181 1.405 . S
C181 H155 0.950 . S
C181 C180 1.405 . S
C181 C182 1.367 . S
C182 H156 0.950 . S
C182 C177 1.386 . S
C182 C181 1.367 . S
C183 C177 1.483 . S
C183 C184 1.382 1_655 S
C183 C185 1.403 . S
C184 H157 0.950 . S
C184 C170 1.411 . S
C184 C183 1.382 1_455 S
C185 C169 1.411 1_655 S
C185 C183 1.403 . S
C185 C186 1.489 . S
C186 C185 1.489 . S
C186 C187 1.383 . S
C186 C191 1.382 . S
C187 H158 0.950 . S
C187 C186 1.383 . S
C187 C188 1.395 . S
C188 H159 0.950 . S
C188 C187 1.395 . S
C188 C189 1.288 . S
C189 C188 1.288 . S
C189 C190 1.392 . S
C190 H160 0.951 . S
C190 C189 1.392 . S
C190 C191 1.392 . S
C191 H161 0.949 . S
C191 C186 1.382 . S
C191 C190 1.392 . S
H192 C211 0.949 . S
H193 C212 0.950 . S
H194 C214 0.950 . S
H195 C215 0.950 . S
H196 C217 0.950 . S
H197 C220 0.950 . S
H198 C221 0.950 . S
H199 C223 0.951 . S
H200 C224 0.949 . S
H201 C226 0.949 . S
H202 C227 0.950 . S
H203 C229 0.950 . S
H204 C230 0.950 . S
H205 C232 0.950 1_565 S
H206 C235 0.950 . S
H207 C236 0.950 . S
H208 C238 0.951 . S
H209 C239 0.949 . S
C210 C211 1.376 . S
C210 C215 1.386 1_554 S
C210 C216 1.483 1_554 S
C211 H192 0.949 . S
C211 C210 1.376 . S
C211 C212 1.397 . S
C212 H193 0.950 . S
C212 C211 1.397 . S
C212 C213 1.391 . S
C213 C212 1.391 . S
C213 C214 1.405 . S
C214 H194 0.950 . S
C214 C213 1.405 . S
C214 C215 1.367 1_554 S
C215 H195 0.950 . S
C215 C210 1.386 1_556 S
C215 C214 1.367 1_556 S
C216 C210 1.483 1_556 S
C216 C217 1.382 1_556 S
C216 C218 1.403 . S
C217 H196 0.950 . S
C217 C216 1.382 1_554 S
C217 C233 1.411 1_545 S
C218 C216 1.403 . S
C218 C219 1.489 . S
C218 C232 1.411 . S
C219 C218 1.489 . S
C219 C220 1.383 . S
C219 C224 1.382 . S
C220 H197 0.950 . S
C220 C219 1.383 . S
C220 C221 1.395 . S
C221 H198 0.950 . S
C221 C220 1.395 . S
C221 C222 1.288 . S
C222 C221 1.288 . S
C222 C223 1.392 . S
C223 H199 0.951 . S
C223 C222 1.392 . S
C223 C224 1.392 . S
C224 H200 0.949 . S
C224 C219 1.382 . S
C224 C223 1.392 . S
C225 C226 1.376 . S
C225 C230 1.386 . S
C225 C231 1.483 . S
C226 H201 0.949 . S
C226 C225 1.376 . S
C226 C227 1.397 . S
C227 H202 0.950 . S
C227 C226 1.397 . S
C227 C228 1.391 . S
C228 C227 1.391 . S
C228 C229 1.405 . S
C229 H203 0.950 . S
C229 C228 1.405 . S
C229 C230 1.367 . S
C230 H204 0.950 . S
C230 C225 1.386 . S
C230 C229 1.367 . S
C231 C225 1.483 . S
C231 C232 1.382 1_565 S
C231 C233 1.403 1_556 S
C232 H205 0.950 1_545 S
C232 C218 1.411 . S
C232 C231 1.382 1_545 S
C233 C217 1.411 1_565 S
C233 C231 1.403 1_554 S
C233 C234 1.489 . S
C234 C233 1.489 . S
C234 C235 1.383 . S
C234 C239 1.382 . S
C235 H206 0.950 . S
C235 C234 1.383 . S
C235 C236 1.395 . S
C236 H207 0.950 . S
C236 C235 1.395 . S
C236 C237 1.288 . S
C237 C236 1.288 . S
C237 C238 1.392 . S
C238 H208 0.951 . S
C238 C237 1.392 . S
C238 C239 1.392 . S
C239 H209 0.949 . S
C239 C234 1.382 . S
C239 C238 1.392 . S
H240 C259 0.949 . S
H241 C260 0.950 . S
H242 C262 0.950 . S
H243 C263 0.950 . S
H244 C265 0.950 . S
H245 C268 0.950 . S
H246 C269 0.950 . S
H247 C271 0.951 . S
H248 C272 0.949 . S
H249 C274 0.949 . S
H250 C275 0.950 . S
H251 C277 0.950 . S
H252 C278 0.950 . S
H253 C280 0.950 . S
H254 C283 0.950 . S
H255 C284 0.950 . S
H256 C286 0.951 . S
H257 C287 0.949 . S
C258 C259 1.376 . S
C258 C263 1.386 . S
C258 C264 1.483 . S
C259 H240 0.949 . S
C259 C258 1.376 . S
C259 C260 1.397 . S
C260 H241 0.950 . S
C260 C259 1.397 . S
C260 C261 1.391 . S
C261 C260 1.391 . S
C261 C262 1.405 . S
C262 H242 0.950 . S
C262 C261 1.405 . S
C262 C263 1.367 . S
C263 H243 0.950 . S
C263 C258 1.386 . S
C263 C262 1.367 . S
C264 C258 1.483 . S
C264 C265 1.382 . S
C264 C266 1.403 . S
C265 H244 0.950 . S
C265 C264 1.382 . S
C265 C281 1.411 . S
C266 C264 1.403 . S
C266 C267 1.489 . S
C266 C280 1.411 . S
C267 C266 1.489 . S
C267 C268 1.383 . S
C267 C272 1.382 . S
C268 H245 0.950 . S
C268 C267 1.383 . S
C268 C269 1.395 . S
C269 H246 0.950 . S
C269 C268 1.395 . S
C269 C270 1.288 . S
C270 C269 1.288 . S
C270 C271 1.392 . S
C271 H247 0.951 . S
C271 C270 1.392 . S
C271 C272 1.392 . S
C272 H248 0.949 . S
C272 C267 1.382 . S
C272 C271 1.392 . S
C273 C274 1.376 . S
C273 C278 1.386 . S
C273 C279 1.483 . S
C274 H249 0.949 . S
C274 C273 1.376 . S
C274 C275 1.397 . S
C275 H250 0.950 . S
C275 C274 1.397 . S
C275 C276 1.391 . S
C276 C275 1.391 . S
C276 C277 1.405 . S
C277 H251 0.950 . S
C277 C276 1.405 . S
C277 C278 1.367 . S
C278 H252 0.950 . S
C278 C273 1.386 . S
C278 C277 1.367 . S
C279 C273 1.483 . S
C279 C280 1.382 . S
C279 C281 1.403 . S
C280 H253 0.950 . S
C280 C266 1.411 . S
C280 C279 1.382 . S
C281 C265 1.411 . S
C281 C279 1.403 . S
C281 C282 1.489 . S
C282 C281 1.489 . S
C282 C283 1.383 . S
C282 C287 1.382 . S
C283 H254 0.950 . S
C283 C282 1.383 . S
C283 C284 1.395 . S
C284 H255 0.950 . S
C284 C283 1.395 . S
C284 C285 1.288 . S
C285 C284 1.288 . S
C285 C286 1.392 . S
C286 H256 0.951 . S
C286 C285 1.392 . S
C286 C287 1.392 . S
C287 H257 0.949 . S
C287 C282 1.382 . S
C287 C286 1.392 . S
In288 O289 2.294 . S
In288 O290 2.326 . S
In288 O294 2.266 . S
In288 O295 2.326 . S
In288 O296 2.266 . S
In288 O297 2.326 . S
In288 O299 2.294 . S
In288 O300 2.326 . S
O289 In288 2.294 . S
O289 C298 1.240 . S
O290 In288 2.326 . S
O290 C298 1.252 . S
C291 O294 1.252 . S
C291 O295 1.260 . S
C292 O299 1.240 . S
C292 O300 1.252 . S
C293 O296 1.252 . S
C293 O297 1.260 . S
O294 In288 2.266 . S
O294 C291 1.252 . S
O295 In288 2.326 . S
O295 C291 1.260 . S
O296 In288 2.266 . S
O296 C293 1.252 . S
O297 In288 2.326 . S
O297 C293 1.260 . S
C298 O289 1.240 . S
C298 O290 1.252 . S
O299 In288 2.294 . S
O299 C292 1.240 . S
O300 In288 2.326 . S
O300 C292 1.252 . S
In301 O302 2.294 . S
In301 O303 2.326 . S
In301 O307 2.266 . S
In301 O308 2.326 . S
In301 O309 2.266 . S
In301 O310 2.326 . S
In301 O312 2.294 . S
In301 O313 2.326 . S
O302 In301 2.294 . S
O302 C311 1.240 . S
O303 In301 2.326 . S
O303 C311 1.252 . S
C304 O307 1.252 . S
C304 O308 1.260 . S
C305 O312 1.240 . S
C305 O313 1.252 . S
C306 O309 1.252 . S
C306 O310 1.260 . S
O307 In301 2.266 . S
O307 C304 1.252 . S
O308 In301 2.326 . S
O308 C304 1.260 . S
O309 In301 2.266 . S
O309 C306 1.252 . S
O310 In301 2.326 . S
O310 C306 1.260 . S
C311 O302 1.240 . S
C311 O303 1.252 . S
O312 In301 2.294 . S
O312 C305 1.240 . S
O313 In301 2.326 . S
O313 C305 1.252 . S
In314 O315 2.294 . S
In314 O316 2.326 . S
In314 O320 2.266 . S
In314 O321 2.326 . S
In314 O322 2.266 . S
In314 O323 2.326 . S
In314 O325 2.294 . S
In314 O326 2.326 . S
O315 In314 2.294 . S
O315 C324 1.240 . S
O316 In314 2.326 . S
O316 C324 1.252 . S
C317 O320 1.252 . S
C317 O321 1.260 . S
C318 O325 1.240 . S
C318 O326 1.252 . S
C319 O322 1.252 . S
C319 O323 1.260 . S
O320 In314 2.266 . S
O320 C317 1.252 . S
O321 In314 2.326 . S
O321 C317 1.260 . S
O322 In314 2.266 . S
O322 C319 1.252 . S
O323 In314 2.326 . S
O323 C319 1.260 . S
C324 O315 1.240 . S
C324 O316 1.252 . S
O325 In314 2.294 . S
O325 C318 1.240 . S
O326 In314 2.326 . S
O326 C318 1.252 . S
In327 O328 2.294 . S
In327 O329 2.326 . S
In327 O333 2.266 . S
In327 O334 2.326 . S
In327 O335 2.266 . S
In327 O336 2.326 . S
In327 O338 2.294 . S
In327 O339 2.326 . S
O328 In327 2.294 . S
O328 C337 1.240 . S
O329 In327 2.326 . S
O329 C337 1.252 . S
C330 O333 1.252 . S
C330 O334 1.260 . S
C331 O338 1.240 . S
C331 O339 1.252 . S
C332 O335 1.252 . S
C332 O336 1.260 . S
O333 In327 2.266 . S
O333 C330 1.252 . S
O334 In327 2.326 . S
O334 C330 1.260 . S
O335 In327 2.266 . S
O335 C332 1.252 . S
O336 In327 2.326 . S
O336 C332 1.260 . S
C337 O328 1.240 . S
C337 O329 1.252 . S
O338 In327 2.294 . S
O338 C331 1.240 . S
O339 In327 2.326 . S
O339 C331 1.252 . S
In340 O341 2.294 . S
In340 O342 2.326 . S
In340 O346 2.266 . S
In340 O347 2.326 . S
In340 O348 2.266 . S
In340 O349 2.326 . S
In340 O351 2.294 . S
In340 O352 2.326 . S
O341 In340 2.294 . S
O341 C350 1.240 . S
O342 In340 2.326 . S
O342 C350 1.252 . S
C343 O346 1.252 . S
C343 O347 1.260 . S
C344 O351 1.240 . S
C344 O352 1.252 . S
C345 O348 1.252 . S
C345 O349 1.260 . S
O346 In340 2.266 . S
O346 C343 1.252 . S
O347 In340 2.326 . S
O347 C343 1.260 . S
O348 In340 2.266 . S
O348 C345 1.252 . S
O349 In340 2.326 . S
O349 C345 1.260 . S
C350 O341 1.240 . S
C350 O342 1.252 . S
O351 In340 2.294 . S
O351 C344 1.240 . S
O352 In340 2.326 . S
O352 C344 1.252 . S
In353 O354 2.294 . S
In353 O355 2.326 . S
In353 O359 2.266 . S
In353 O360 2.326 . S
In353 O361 2.266 . S
In353 O362 2.326 . S
In353 O364 2.294 . S
In353 O365 2.326 . S
O354 In353 2.294 . S
O354 C363 1.240 . S
O355 In353 2.326 . S
O355 C363 1.252 . S
C356 O359 1.252 . S
C356 O360 1.260 . S
C357 O364 1.240 . S
C357 O365 1.252 . S
C358 O361 1.252 . S
C358 O362 1.260 . S
O359 In353 2.266 . S
O359 C356 1.252 . S
O360 In353 2.326 . S
O360 C356 1.260 . S
O361 In353 2.266 . S
O361 C358 1.252 . S
O362 In353 2.326 . S
O362 C358 1.260 . S
C363 O354 1.240 . S
C363 O355 1.252 . S
O364 In353 2.294 . S
O364 C357 1.240 . S
O365 In353 2.326 . S
O365 C357 1.252 . S
H366 C372 0.930 . S
H367 C375 0.930 . S
H368 C376 0.930 . S
H369 C377 0.930 . S
H370 C380 0.930 . S
H371 C381 0.930 . S
C372 H366 0.930 . S
C372 C373 1.355 . S
C372 C374 1.415 . S
C373 C372 1.355 . S
C373 C375 1.419 . S
C374 C372 1.415 . S
C374 C379 1.425 . S
C374 C381 1.409 . S
C375 H367 0.930 . S
C375 C373 1.419 . S
C375 C376 1.362 . S
C376 H368 0.930 . S
C376 C375 1.362 . S
C376 C379 1.409 . S
C377 H369 0.930 . S
C377 C378 1.355 . S
C377 C379 1.415 . S
C378 C377 1.355 . S
C378 C380 1.419 . S
C379 C374 1.425 . S
C379 C376 1.409 . S
C379 C377 1.415 . S
C380 H370 0.930 . S
C380 C378 1.419 . S
C380 C381 1.362 . S
C381 H371 0.930 . S
C381 C374 1.409 . S
C381 C380 1.362 . S
H382 C388 0.930 . S
H383 C391 0.930 . S
H384 C392 0.930 . S
H385 C393 0.930 . S
H386 C396 0.930 . S
H387 C397 0.930 . S
C388 H382 0.930 . S
C388 C389 1.355 . S
C388 C390 1.415 . S
C389 C388 1.355 . S
C389 C391 1.419 . S
C390 C388 1.415 . S
C390 C395 1.425 . S
C390 C397 1.409 . S
C391 H383 0.930 . S
C391 C389 1.419 . S
C391 C392 1.362 . S
C392 H384 0.930 . S
C392 C391 1.362 . S
C392 C395 1.409 . S
C393 H385 0.930 . S
C393 C394 1.355 . S
C393 C395 1.415 . S
C394 C393 1.355 . S
C394 C396 1.419 . S
C395 C390 1.425 . S
C395 C392 1.409 . S
C395 C393 1.415 . S
C396 H386 0.930 . S
C396 C394 1.419 . S
C396 C397 1.362 . S
C397 H387 0.930 . S
C397 C390 1.409 . S
C397 C396 1.362 . S
H398 C404 0.930 . S
H399 C407 0.930 . S
H400 C408 0.930 . S
H401 C409 0.930 . S
H402 C412 0.930 . S
H403 C413 0.930 . S
C404 H398 0.930 . S
C404 C405 1.355 . S
C404 C406 1.415 . S
C405 C404 1.355 . S
C405 C407 1.419 . S
C406 C404 1.415 . S
C406 C411 1.425 . S
C406 C413 1.409 . S
C407 H399 0.930 . S
C407 C405 1.419 . S
C407 C408 1.362 . S
C408 H400 0.930 . S
C408 C407 1.362 . S
C408 C411 1.409 . S
C409 H401 0.930 . S
C409 C410 1.355 . S
C409 C411 1.415 . S
C410 C409 1.355 . S
C410 C412 1.419 . S
C411 C406 1.425 . S
C411 C408 1.409 . S
C411 C409 1.415 . S
C412 H402 0.930 . S
C412 C410 1.419 . S
C412 C413 1.362 . S
C413 H403 0.930 . S
C413 C406 1.409 . S
C413 C412 1.362 . S
H414 C420 0.930 . S
H415 C423 0.930 . S
H416 C424 0.930 . S
H417 C425 0.930 . S
H418 C428 0.930 . S
H419 C429 0.930 . S
C420 H414 0.930 . S
C420 C421 1.355 . S
C420 C422 1.415 . S
C421 C420 1.355 . S
C421 C423 1.419 . S
C422 C420 1.415 . S
C422 C427 1.425 . S
C422 C429 1.409 . S
C423 H415 0.930 . S
C423 C421 1.419 . S
C423 C424 1.362 . S
C424 H416 0.930 . S
C424 C423 1.362 . S
C424 C427 1.409 . S
C425 H417 0.930 . S
C425 C426 1.355 . S
C425 C427 1.415 . S
C426 C425 1.355 . S
C426 C428 1.419 . S
C427 C422 1.425 . S
C427 C424 1.409 . S
C427 C425 1.415 . S
C428 H418 0.930 . S
C428 C426 1.419 . S
C428 C429 1.362 . S
C429 H419 0.930 . S
C429 C422 1.409 . S
C429 C428 1.362 . S
H430 C436 0.930 . S
H431 C439 0.930 . S
H432 C440 0.930 . S
H433 C441 0.930 . S
H434 C444 0.930 . S
H435 C445 0.930 . S
C436 H430 0.930 . S
C436 C437 1.355 . S
C436 C438 1.415 . S
C437 C436 1.355 . S
C437 C439 1.419 . S
C438 C436 1.415 . S
C438 C443 1.425 . S
C438 C445 1.409 . S
C439 H431 0.930 . S
C439 C437 1.419 . S
C439 C440 1.362 . S
C440 H432 0.930 . S
C440 C439 1.362 . S
C440 C443 1.409 . S
C441 H433 0.930 . S
C441 C442 1.355 . S
C441 C443 1.415 . S
C442 C441 1.355 . S
C442 C444 1.419 . S
C443 C438 1.425 . S
C443 C440 1.409 . S
C443 C441 1.415 . S
C444 H434 0.930 . S
C444 C442 1.419 . S
C444 C445 1.362 . S
C445 H435 0.930 . S
C445 C438 1.409 . S
C445 C444 1.362 . S
H446 C452 0.930 . S
H447 C455 0.930 . S
H448 C456 0.930 . S
H449 C457 0.930 . S
H450 C460 0.930 . S
H451 C461 0.930 . S
C452 H446 0.930 . S
C452 C453 1.355 . S
C452 C454 1.415 . S
C453 C452 1.355 . S
C453 C455 1.419 . S
C454 C452 1.415 . S
C454 C459 1.425 . S
C454 C461 1.409 . S
C455 H447 0.930 . S
C455 C453 1.419 . S
C455 C456 1.362 . S
C456 H448 0.930 . S
C456 C455 1.362 . S
C456 C459 1.409 . S
C457 H449 0.930 . S
C457 C458 1.355 . S
C457 C459 1.415 . S
C458 C457 1.355 . S
C458 C460 1.419 . S
C459 C454 1.425 . S
C459 C456 1.409 . S
C459 C457 1.415 . S
C460 H450 0.930 . S
C460 C458 1.419 . S
C460 C461 1.362 . S
C461 H451 0.930 . S
C461 C454 1.409 . S
C461 C460 1.362 . S
H462 C468 0.930 . S
H463 C471 0.930 . S
H464 C472 0.930 . S
H465 C473 0.930 . S
H466 C476 0.930 . S
H467 C477 0.930 . S
C468 H462 0.930 . S
C468 C469 1.355 . S
C468 C470 1.415 . S
C469 C468 1.355 . S
C469 C471 1.419 . S
C470 C468 1.415 . S
C470 C475 1.425 . S
C470 C477 1.409 . S
C471 H463 0.930 . S
C471 C469 1.419 . S
C471 C472 1.362 . S
C472 H464 0.930 . S
C472 C471 1.362 . S
C472 C475 1.409 . S
C473 H465 0.930 . S
C473 C474 1.355 . S
C473 C475 1.415 . S
C474 C473 1.355 . S
C474 C476 1.419 . S
C475 C470 1.425 . S
C475 C472 1.409 . S
C475 C473 1.415 . S
C476 H466 0.930 . S
C476 C474 1.419 . S
C476 C477 1.362 . S
C477 H467 0.930 . S
C477 C470 1.409 . S
C477 C476 1.362 . S
H478 C484 0.930 . S
H479 C487 0.930 . S
H480 C488 0.930 . S
H481 C489 0.930 . S
H482 C492 0.930 . S
H483 C493 0.930 . S
C484 H478 0.930 . S
C484 C485 1.355 . S
C484 C486 1.415 . S
C485 C484 1.355 . S
C485 C487 1.419 . S
C486 C484 1.415 . S
C486 C491 1.425 . S
C486 C493 1.409 . S
C487 H479 0.930 . S
C487 C485 1.419 . S
C487 C488 1.362 . S
C488 H480 0.930 . S
C488 C487 1.362 . S
C488 C491 1.409 . S
C489 H481 0.930 . S
C489 C490 1.355 . S
C489 C491 1.415 . S
C490 C489 1.355 . S
C490 C492 1.419 . S
C491 C486 1.425 . S
C491 C488 1.409 . S
C491 C489 1.415 . S
C492 H482 0.930 . S
C492 C490 1.419 . S
C492 C493 1.362 . S
C493 H483 0.930 . S
C493 C486 1.409 . S
C493 C492 1.362 . S
H494 C500 0.930 . S
H495 C503 0.930 . S
H496 C504 0.930 . S
H497 C505 0.930 . S
H498 C508 0.930 . S
H499 C509 0.930 . S
C500 H494 0.930 . S
C500 C501 1.355 . S
C500 C502 1.415 . S
C501 C500 1.355 . S
C501 C503 1.419 . S
C502 C500 1.415 . S
C502 C507 1.425 . S
C502 C509 1.409 . S
C503 H495 0.930 . S
C503 C501 1.419 . S
C503 C504 1.362 . S
C504 H496 0.930 . S
C504 C503 1.362 . S
C504 C507 1.409 . S
C505 H497 0.930 . S
C505 C506 1.355 . S
C505 C507 1.415 . S
C506 C505 1.355 . S
C506 C508 1.419 . S
C507 C502 1.425 . S
C507 C504 1.409 . S
C507 C505 1.415 . S
C508 H498 0.930 . S
C508 C506 1.419 . S
C508 C509 1.362 . S
C509 H499 0.930 . S
C509 C502 1.409 . S
C509 C508 1.362 . S
H510 C516 0.930 . S
H511 C519 0.930 . S
H512 C520 0.930 . S
H513 C521 0.930 . S
H514 C524 0.930 . S
H515 C525 0.930 . S
C516 H510 0.930 . S
C516 C517 1.355 . S
C516 C518 1.415 . S
C517 C516 1.355 . S
C517 C519 1.419 . S
C518 C516 1.415 . S
C518 C523 1.425 . S
C518 C525 1.409 . S
C519 H511 0.930 . S
C519 C517 1.419 . S
C519 C520 1.362 . S
C520 H512 0.930 . S
C520 C519 1.362 . S
C520 C523 1.409 . S
C521 H513 0.930 . S
C521 C522 1.355 . S
C521 C523 1.415 . S
C522 C521 1.355 . S
C522 C524 1.419 . S
C523 C518 1.425 . S
C523 C520 1.409 . S
C523 C521 1.415 . S
C524 H514 0.930 . S
C524 C522 1.419 . S
C524 C525 1.362 . S
C525 H515 0.930 . S
C525 C518 1.409 . S
C525 C524 1.362 . S
H526 C532 0.930 . S
H527 C535 0.930 . S
H528 C536 0.930 . S
H529 C537 0.930 . S
H530 C540 0.930 . S
H531 C541 0.930 . S
C532 H526 0.930 . S
C532 C533 1.355 . S
C532 C534 1.415 . S
C533 C532 1.355 . S
C533 C535 1.419 . S
C534 C532 1.415 . S
C534 C539 1.425 . S
C534 C541 1.409 . S
C535 H527 0.930 . S
C535 C533 1.419 . S
C535 C536 1.362 . S
C536 H528 0.930 . S
C536 C535 1.362 . S
C536 C539 1.409 . S
C537 H529 0.930 . S
C537 C538 1.355 . S
C537 C539 1.415 . S
C538 C537 1.355 . S
C538 C540 1.419 . S
C539 C534 1.425 . S
C539 C536 1.409 . S
C539 C537 1.415 . S
C540 H530 0.930 . S
C540 C538 1.419 . S
C540 C541 1.362 . S
C541 H531 0.930 . S
C541 C534 1.409 . S
C541 C540 1.362 . S
H542 C548 0.930 . S
H543 C551 0.930 . S
H544 C552 0.930 . S
H545 C553 0.930 . S
H546 C556 0.930 . S
H547 C557 0.930 . S
C548 H542 0.930 . S
C548 C549 1.355 . S
C548 C550 1.415 . S
C549 C548 1.355 . S
C549 C551 1.419 . S
C550 C548 1.415 . S
C550 C555 1.425 . S
C550 C557 1.409 . S
C551 H543 0.930 . S
C551 C549 1.419 . S
C551 C552 1.362 . S
C552 H544 0.930 . S
C552 C551 1.362 . S
C552 C555 1.409 . S
C553 H545 0.930 . S
C553 C554 1.355 . S
C553 C555 1.415 . S
C554 C553 1.355 . S
C554 C556 1.419 . S
C555 C550 1.425 . S
C555 C552 1.409 . S
C555 C553 1.415 . S
C556 H546 0.930 . S
C556 C554 1.419 . S
C556 C557 1.362 . S
C557 H547 0.930 . S
C557 C550 1.409 . S
C557 C556 1.362 . S
H558 C564 0.930 . S
H559 C567 0.930 . S
H560 C568 0.930 . S
H561 C569 0.930 . S
H562 C572 0.930 . S
H563 C573 0.930 . S
C564 H558 0.930 . S
C564 C565 1.355 . S
C564 C566 1.415 . S
C565 C564 1.355 . S
C565 C567 1.419 . S
C566 C564 1.415 . S
C566 C571 1.425 . S
C566 C573 1.409 . S
C567 H559 0.930 . S
C567 C565 1.419 . S
C567 C568 1.362 . S
C568 H560 0.930 . S
C568 C567 1.362 . S
C568 C571 1.409 . S
C569 H561 0.930 . S
C569 C570 1.355 . S
C569 C571 1.415 . S
C570 C569 1.355 . S
C570 C572 1.419 . S
C571 C566 1.425 . S
C571 C568 1.409 . S
C571 C569 1.415 . S
C572 H562 0.930 . S
C572 C570 1.419 . S
C572 C573 1.362 . S
C573 H563 0.930 . S
C573 C566 1.409 . S
C573 C572 1.362 . S
H574 C580 0.930 . S
H575 C583 0.930 . S
H576 C584 0.930 . S
H577 C585 0.930 . S
H578 C588 0.930 . S
H579 C589 0.930 . S
C580 H574 0.930 . S
C580 C581 1.355 . S
C580 C582 1.415 . S
C581 C580 1.355 . S
C581 C583 1.419 . S
C582 C580 1.415 . S
C582 C587 1.425 . S
C582 C589 1.409 . S
C583 H575 0.930 . S
C583 C581 1.419 . S
C583 C584 1.362 . S
C584 H576 0.930 . S
C584 C583 1.362 . S
C584 C587 1.409 . S
C585 H577 0.930 . S
C585 C586 1.355 . S
C585 C587 1.415 . S
C586 C585 1.355 . S
C586 C588 1.419 . S
C587 C582 1.425 . S
C587 C584 1.409 . S
C587 C585 1.415 . S
C588 H578 0.930 . S
C588 C586 1.419 . S
C588 C589 1.362 . S
C589 H579 0.930 . S
C589 C582 1.409 . S
C589 C588 1.362 . S
H590 C596 0.930 . S
H591 C599 0.930 . S
H592 C600 0.930 . S
H593 C601 0.930 . S
H594 C604 0.930 . S
H595 C605 0.930 . S
C596 H590 0.930 . S
C596 C597 1.355 . S
C596 C598 1.415 . S
C597 C596 1.355 . S
C597 C599 1.419 . S
C598 C596 1.415 . S
C598 C603 1.425 . S
C598 C605 1.409 . S
C599 H591 0.930 . S
C599 C597 1.419 . S
C599 C600 1.362 . S
C600 H592 0.930 . S
C600 C599 1.362 . S
C600 C603 1.409 . S
C601 H593 0.930 . S
C601 C602 1.355 . S
C601 C603 1.415 . S
C602 C601 1.355 . S
C602 C604 1.419 . S
C603 C598 1.425 . S
C603 C600 1.409 . S
C603 C601 1.415 . S
C604 H594 0.930 . S
C604 C602 1.419 . S
C604 C605 1.362 . S
C605 H595 0.930 . S
C605 C598 1.409 . S
C605 C604 1.362 . S
H606 C612 0.930 . S
H607 C615 0.930 . S
H608 C616 0.930 . S
H609 C617 0.930 . S
H610 C620 0.930 . S
H611 C621 0.930 . S
C612 H606 0.930 . S
C612 C613 1.355 . S
C612 C614 1.415 . S
C613 C612 1.355 . S
C613 C615 1.419 . S
C614 C612 1.415 . S
C614 C619 1.425 . S
C614 C621 1.409 1_556 S
C615 H607 0.930 . S
C615 C613 1.419 . S
C615 C616 1.362 . S
C616 H608 0.930 . S
C616 C615 1.362 . S
C616 C619 1.409 . S
C617 H609 0.930 . S
C617 C618 1.355 1_556 S
C617 C619 1.415 . S
C618 C617 1.355 1_554 S
C618 C620 1.419 . S
C619 C614 1.425 . S
C619 C616 1.409 . S
C619 C617 1.415 . S
C620 H610 0.930 . S
C620 C618 1.419 . S
C620 C621 1.362 . S
C621 H611 0.930 . S
C621 C614 1.409 1_554 S
C621 C620 1.362 . S
H622 C628 0.930 . S
H623 C631 0.930 . S
H624 C632 0.930 . S
H625 C633 0.930 . S
H626 C636 0.930 . S
H627 C637 0.930 . S
C628 H622 0.930 . S
C628 C629 1.355 . S
C628 C630 1.415 . S
C629 C628 1.355 . S
C629 C631 1.419 . S
C630 C628 1.415 . S
C630 C635 1.425 . S
C630 C637 1.409 . S
C631 H623 0.930 . S
C631 C629 1.419 . S
C631 C632 1.362 . S
C632 H624 0.930 . S
C632 C631 1.362 . S
C632 C635 1.409 . S
C633 H625 0.930 . S
C633 C634 1.355 . S
C633 C635 1.415 . S
C634 C633 1.355 . S
C634 C636 1.419 . S
C635 C630 1.425 . S
C635 C632 1.409 . S
C635 C633 1.415 . S
C636 H626 0.930 . S
C636 C634 1.419 . S
C636 C637 1.362 . S
C637 H627 0.930 . S
C637 C630 1.409 . S
C637 C636 1.362 . S
H638 C644 0.930 . S
H639 C647 0.930 . S
H640 C648 0.930 . S
H641 C649 0.930 . S
H642 C652 0.930 . S
H643 C653 0.930 . S
C644 H638 0.930 . S
C644 C645 1.355 . S
C644 C646 1.415 . S
C645 C644 1.355 . S
C645 C647 1.419 . S
C646 C644 1.415 . S
C646 C651 1.425 . S
C646 C653 1.409 . S
C647 H639 0.930 . S
C647 C645 1.419 . S
C647 C648 1.362 . S
C648 H640 0.930 . S
C648 C647 1.362 . S
C648 C651 1.409 . S
C649 H641 0.930 . S
C649 C650 1.355 . S
C649 C651 1.415 . S
C650 C649 1.355 . S
C650 C652 1.419 . S
C651 C646 1.425 . S
C651 C648 1.409 . S
C651 C649 1.415 . S
C652 H642 0.930 . S
C652 C650 1.419 . S
C652 C653 1.362 . S
C653 H643 0.930 . S
C653 C646 1.409 . S
C653 C652 1.362 . S
H654 C660 0.930 . S
H655 C663 0.930 . S
H656 C664 0.930 . S
H657 C665 0.930 . S
H658 C668 0.930 . S
H659 C669 0.930 . S
C660 H654 0.930 . S
C660 C661 1.355 . S
C660 C662 1.415 . S
C661 C660 1.355 . S
C661 C663 1.419 . S
C662 C660 1.415 . S
C662 C667 1.425 . S
C662 C669 1.409 . S
C663 H655 0.930 . S
C663 C661 1.419 . S
C663 C664 1.362 . S
C664 H656 0.930 . S
C664 C663 1.362 . S
C664 C667 1.409 . S
C665 H657 0.930 . S
C665 C666 1.355 . S
C665 C667 1.415 . S
C666 C665 1.355 . S
C666 C668 1.419 . S
C667 C662 1.425 . S
C667 C664 1.409 . S
C667 C665 1.415 . S
C668 H658 0.930 . S
C668 C666 1.419 . S
C668 C669 1.362 . S
C669 H659 0.930 . S
C669 C662 1.409 . S
C669 C668 1.362 . S
H670 C676 0.930 . S
H671 C679 0.930 . S
H672 C680 0.930 . S
H673 C681 0.930 . S
H674 C684 0.930 . S
H675 C685 0.930 . S
C676 H670 0.930 . S
C676 C677 1.355 . S
C676 C678 1.415 . S
C677 C676 1.355 . S
C677 C679 1.419 . S
C678 C676 1.415 . S
C678 C683 1.425 . S
C678 C685 1.409 . S
C679 H671 0.930 . S
C679 C677 1.419 . S
C679 C680 1.362 . S
C680 H672 0.930 . S
C680 C679 1.362 . S
C680 C683 1.409 . S
C681 H673 0.930 . S
C681 C682 1.355 . S
C681 C683 1.415 . S
C682 C681 1.355 . S
C682 C684 1.419 . S
C683 C678 1.425 . S
C683 C680 1.409 . S
C683 C681 1.415 . S
C684 H674 0.930 . S
C684 C682 1.419 . S
C684 C685 1.362 . S
C685 H675 0.930 . S
C685 C678 1.409 . S
C685 C684 1.362 . S
H686 C692 0.930 . S
H687 C695 0.930 . S
H688 C696 0.930 . S
H689 C697 0.930 . S
H690 C700 0.930 . S
H691 C701 0.930 . S
C692 H686 0.930 . S
C692 C693 1.355 . S
C692 C694 1.415 . S
C693 C692 1.355 . S
C693 C695 1.419 . S
C694 C692 1.415 . S
C694 C699 1.425 . S
C694 C701 1.409 . S
C695 H687 0.930 . S
C695 C693 1.419 . S
C695 C696 1.362 . S
C696 H688 0.930 . S
C696 C695 1.362 . S
C696 C699 1.409 . S
C697 H689 0.930 . S
C697 C698 1.355 . S
C697 C699 1.415 . S
C698 C697 1.355 . S
C698 C700 1.419 . S
C699 C694 1.425 . S
C699 C696 1.409 . S
C699 C697 1.415 . S
C700 H690 0.930 . S
C700 C698 1.419 . S
C700 C701 1.362 . S
C701 H691 0.930 . S
C701 C694 1.409 . S
C701 C700 1.362 . S
H702 C708 0.930 . S
H703 C711 0.930 . S
H704 C712 0.930 . S
H705 C713 0.930 . S
H706 C716 0.930 . S
H707 C717 0.930 . S
C708 H702 0.930 . S
C708 C709 1.355 . S
C708 C710 1.415 . S
C709 C708 1.355 . S
C709 C711 1.419 . S
C710 C708 1.415 . S
C710 C715 1.425 . S
C710 C717 1.409 . S
C711 H703 0.930 . S
C711 C709 1.419 . S
C711 C712 1.362 . S
C712 H704 0.930 . S
C712 C711 1.362 . S
C712 C715 1.409 . S
C713 H705 0.930 . S
C713 C714 1.355 . S
C713 C715 1.415 . S
C714 C713 1.355 . S
C714 C716 1.419 . S
C715 C710 1.425 . S
C715 C712 1.409 . S
C715 C713 1.415 . S
C716 H706 0.930 . S
C716 C714 1.419 . S
C716 C717 1.362 . S
C717 H707 0.930 . S
C717 C710 1.409 . S
C717 C716 1.362 . S
H718 C724 0.930 . S
H719 C727 0.930 . S
H720 C728 0.930 . S
H721 C729 0.937 . S
H722 C732 0.930 . S
H723 C733 0.930 . S
C724 H718 0.930 . S
C724 C725 1.355 . S
C724 C726 1.415 . S
C725 C724 1.355 . S
C725 C727 1.419 . S
C726 C724 1.415 . S
C726 C731 1.425 . S
C726 C733 1.409 1_554 S
C727 H719 0.930 . S
C727 C725 1.419 . S
C727 C728 1.362 . S
C728 H720 0.930 . S
C728 C727 1.362 . S
C728 C731 1.409 . S
C729 H721 0.937 . S
C729 C730 1.355 . S
C729 C731 1.415 1_556 S
C730 C729 1.355 . S
C730 C732 1.419 . S
C731 C726 1.425 . S
C731 C728 1.409 . S
C731 C729 1.415 1_554 S
C732 H722 0.930 . S
C732 C730 1.419 . S
C732 C733 1.362 . S
C733 H723 0.930 . S
C733 C726 1.409 1_556 S
C733 C732 1.362 . S
H734 C740 0.930 . S
H735 C743 0.930 . S
H736 C744 0.930 . S
H737 C745 0.930 . S
H738 C748 0.930 . S
H739 C749 0.930 . S
C740 H734 0.930 . S
C740 C741 1.355 . S
C740 C742 1.415 . S
C741 C740 1.355 . S
C741 C743 1.419 . S
C742 C740 1.415 . S
C742 C747 1.425 . S
C742 C749 1.409 . S
C743 H735 0.930 . S
C743 C741 1.419 . S
C743 C744 1.362 . S
C744 H736 0.930 . S
C744 C743 1.362 . S
C744 C747 1.409 . S
C745 H737 0.930 . S
C745 C746 1.355 . S
C745 C747 1.415 . S
C746 C745 1.355 . S
C746 C748 1.419 . S
C747 C742 1.425 . S
C747 C744 1.409 . S
C747 C745 1.415 . S
C748 H738 0.930 . S
C748 C746 1.419 . S
C748 C749 1.362 . S
C749 H739 0.930 . S
C749 C742 1.409 . S
C749 C748 1.362 . S
C378 C358 1.571 . S
C373 C45 1.573 . S
C389 C84 1.568 . S
C394 C293 1.574 . S
C405 C126 1.563 . S
C410 C311 1.570 . S
C421 C189 1.565 . S
C426 C324 1.563 . S
C442 C332 1.576 . S
C437 C228 1.574 . S
C453 C270 1.546 . S
C458 C344 1.572 . S
C469 C69 1.567 . S
C474 C306 1.575 . S
C485 C141 1.570 . S
C490 C319 1.571 . S
C501 C174 1.559 . S
C506 C337 1.570 . S
C522 C343 1.575 . S
C517 C213 1.556 . S
C538 C363 1.564 . S
C533 C285 1.562 . S
C554 C298 1.571 . S
C549 C30 1.563 . S
C565 C36 1.592 . S
C570 C304 1.594 . S
C581 C93 1.596 . S
C586 C317 1.599 . S
C602 C331 1.589 . S
C597 C117 1.579 . S
C613 C180 1.590 . S
C618 C345 1.600 . S
C634 C357 1.595 . S
C629 C237 1.595 . S
C650 C292 1.600 . S
C645 C261 1.593 . S
C666 C356 1.605 . S
C661 C78 1.592 . S
C677 C132 1.590 . S
C682 C291 1.593 . S
C698 C305 1.598 . S
C693 C165 1.578 . S
C709 C222 1.537 . S
C714 C318 1.581 . S
C725 C276 1.587 . S
C730 C330 1.599 . S
C741 C21 1.592 . S
C746 C350 1.601 . S
