# Generated by pormake.
# Topology anh, (6,3)-cn, num edge types: 1
# Building blocks:
#     Node 0, Type 0, BuildingBlock: BETDEL_clean_sbu_0, # of connection points: 6
#     Node 1, Type 0, BuildingBlock: BETDEL_clean_sbu_0, # of connection points: 6
#     Node 2, Type 0, BuildingBlock: BETDEL_clean_sbu_0, # of connection points: 6
#     Node 3, Type 1, BuildingBlock: ESEHIV_clean_linker_0, # of connection points: 3
#     Node 4, Type 1, BuildingBlock: ESEHIV_clean_linker_0, # of connection points: 3
#     Node 5, Type 1, BuildingBlock: ESEHIV_clean_linker_0, # of connection points: 3
#     Node 6, Type 1, BuildingBlock: ESEHIV_clean_linker_0, # of connection points: 3
#     Node 7, Type 1, BuildingBlock: ESEHIV_clean_linker_0, # of connection points: 3
#     Node 8, Type 1, BuildingBlock: ESEHIV_clean_linker_0, # of connection points: 3
#     Edge 9, Type (0, 1), BuildingBlock: UVAHIK_clean_linker_0, # of connection points: 2
#     Edge 10, Type (0, 1), BuildingBlock: UVAHIK_clean_linker_0, # of connection points: 2
#     Edge 11, Type (0, 1), BuildingBlock: UVAHIK_clean_linker_0, # of connection points: 2
#     Edge 12, Type (0, 1), BuildingBlock: UVAHIK_clean_linker_0, # of connection points: 2
#     Edge 13, Type (0, 1), BuildingBlock: UVAHIK_clean_linker_0, # of connection points: 2
#     Edge 14, Type (0, 1), BuildingBlock: UVAHIK_clean_linker_0, # of connection points: 2
#     Edge 15, Type (0, 1), BuildingBlock: UVAHIK_clean_linker_0, # of connection points: 2
#     Edge 16, Type (0, 1), BuildingBlock: UVAHIK_clean_linker_0, # of connection points: 2
#     Edge 17, Type (0, 1), BuildingBlock: UVAHIK_clean_linker_0, # of connection points: 2
#     Edge 18, Type (0, 1), BuildingBlock: UVAHIK_clean_linker_0, # of connection points: 2
#     Edge 19, Type (0, 1), BuildingBlock: UVAHIK_clean_linker_0, # of connection points: 2
#     Edge 20, Type (0, 1), BuildingBlock: UVAHIK_clean_linker_0, # of connection points: 2
#     Edge 21, Type (0, 1), BuildingBlock: UVAHIK_clean_linker_0, # of connection points: 2
#     Edge 22, Type (0, 1), BuildingBlock: UVAHIK_clean_linker_0, # of connection points: 2
#     Edge 23, Type (0, 1), BuildingBlock: UVAHIK_clean_linker_0, # of connection points: 2
#     Edge 24, Type (0, 1), BuildingBlock: UVAHIK_clean_linker_0, # of connection points: 2
#     Edge 25, Type (0, 1), BuildingBlock: UVAHIK_clean_linker_0, # of connection points: 2
#     Edge 26, Type (0, 1), BuildingBlock: UVAHIK_clean_linker_0, # of connection points: 2
# Relax obj value: 0.141
# Max RMSD: 0.165
# Mean RMSD: 0.132
data_MOF--net-anh--node1-BETDEL_clean_sbu_0--node2-ESEHIV_clean_linker_0--edge1-UVAHIK_clean_linker_0
_symmetry_space_group_name_H-M    P1
_symmetry_Int_Tables_number       1
_symmetry_cell_setting            triclinic
loop_
_symmetry_equiv_pos_as_xyz
'x, y, z'
_cell_length_a     36.263337
_cell_length_b     36.223784
_cell_length_c     65.077426
_cell_angle_alpha  89.949837
_cell_angle_beta   89.977378
_cell_angle_gamma 120.02879
loop_
_atom_site_label
_atom_site_type_symbol
_atom_site_fract_x
_atom_site_fract_y
_atom_site_fract_z
_atom_type_partial_charge
Dy0 Dy 0.04857 0.484 0.16705 0.0
C1 C 0.94494 0.55751 0.18176 0.0
C2 C 0.10438 0.45586 0.15983 0.0
Dy3 Dy 0.99993 0.53041 0.17041 0.0
O4 O 0.10222 0.47404 0.17656 0.0
O5 O 0.07594 0.45301 0.14677 0.0
O6 O 0.02124 0.45152 0.19702 0.0
O7 O 0.03439 0.51448 0.19246 0.0
C8 C 0.01817 0.48303 0.20452 0.0
C9 C 0.02784 0.52982 0.13231 0.0
O10 O 0.06386 0.58211 0.18076 0.0
O11 O 0.09965 0.5534 0.16397 0.0
O12 O 0.97412 0.57519 0.16773 0.0
O13 O 0.94602 0.5252 0.18968 0.0
O14 O 0.02416 0.56102 0.13974 0.0
O15 O 0.01294 0.49909 0.14481 0.0
O16 O 0.9841 0.42725 0.16166 0.0
O17 O 0.94642 0.4619 0.16907 0.0
C18 C 0.09953 0.58607 0.17313 0.0
C19 C 0.94772 0.42666 0.16494 0.0
Dy20 Dy 0.48628 0.03515 0.49635 0.0
C21 C 0.66318 0.13651 0.52329 0.0
C22 C 0.40493 0.98047 0.48428 0.0
Dy23 Dy 0.58682 0.08746 0.5045 0.0
O24 O 0.41756 0.99005 0.50316 0.0
O25 O 0.43683 1.00112 0.47175 0.0
O26 O 0.47713 0.05661 0.52732 0.0
O27 O 0.52942 0.04776 0.52208 0.0
C28 C 0.51213 0.06053 0.53482 0.0
C29 C 0.56921 0.08075 0.46394 0.0
O30 O 0.57394 0.02053 0.50878 0.0
O31 O 0.50405 0.98351 0.4963 0.0
O32 O 0.65544 0.10701 0.50978 0.0
O33 O 0.62883 0.13835 0.5268 0.0
O34 O 0.60781 0.10105 0.47112 0.0
O35 O 0.54414 0.06661 0.4789 0.0
O36 O 0.49961 0.10175 0.49008 0.0
O37 O 0.56634 0.13671 0.50597 0.0
C38 C 0.53944 0.98468 0.50289 0.0
C39 C 0.53276 0.13672 0.49771 0.0
Dy40 Dy 0.58767 0.59965 0.82929 0.0
C41 C 0.51442 0.42559 0.85351 0.0
C42 C 0.61532 0.67959 0.81425 0.0
Dy43 Dy 0.5405 0.50518 0.83819 0.0
O44 O 0.62776 0.67088 0.83132 0.0
O45 O 0.58812 0.6445 0.80514 0.0
O46 O 0.61759 0.61318 0.86056 0.0
O47 O 0.5561 0.561 0.85639 0.0
C48 C 0.58636 0.57949 0.86889 0.0
C49 C 0.54204 0.52483 0.79833 0.0
O50 O 0.48845 0.51883 0.84617 0.0
O51 O 0.5187 0.58408 0.82953 0.0
O52 O 0.49619 0.43424 0.83861 0.0
O53 O 0.54655 0.46063 0.86027 0.0
O54 O 0.51111 0.49132 0.80692 0.0
O55 O 0.57239 0.5437 0.81084 0.0
O56 O 0.64169 0.58732 0.82344 0.0
O57 O 0.60905 0.52112 0.83926 0.0
C58 C 0.48549 0.55116 0.83845 0.0
C59 C 0.64334 0.55438 0.83136 0.0
H60 H 0.46063 0.96262 0.24425 0.0
H61 H 0.58795 0.06885 0.24102 0.0
H62 H 0.52109 0.00816 0.18525 0.0
C63 C 0.48768 0.9849 0.23508 0.0
C64 C 0.4862 0.98109 0.21354 0.0
C65 C 0.5243 0.01612 0.24504 0.0
C66 C 0.55984 0.0442 0.23333 0.0
C67 C 0.55889 0.04207 0.21178 0.0
C68 C 0.52198 0.0102 0.20187 0.0
H69 H 0.54699 0.62166 0.57679 0.0
H70 H 0.54071 0.50025 0.57393 0.0
H71 H 0.53687 0.56208 0.51808 0.0
C72 C 0.54482 0.59545 0.56781 0.0
C73 C 0.54223 0.59637 0.54626 0.0
C74 C 0.54359 0.56067 0.57793 0.0
C75 C 0.54054 0.52675 0.56625 0.0
C76 C 0.53823 0.52695 0.54472 0.0
C77 C 0.53826 0.56153 0.5347 0.0
H78 H 0.99455 0.53776 0.90933 0.0
H79 H 0.11464 0.54167 0.91059 0.0
H80 H 0.06155 0.54972 0.85263 0.0
C81 C 0.02171 0.54004 0.90118 0.0
C82 C 0.02397 0.54411 0.87963 0.0
C83 C 0.05461 0.53992 0.91237 0.0
C84 C 0.08963 0.54272 0.90192 0.0
C85 C 0.09229 0.54568 0.8804 0.0
C86 C 0.05983 0.54752 0.86924 0.0
H87 H 0.9317 0.47238 0.42985 0.0
H88 H 0.03099 0.59677 0.41165 0.0
H89 H 0.01592 0.56009 0.47537 0.0
C90 C 0.95803 0.50353 0.43385 0.0
C91 C 0.97076 0.51294 0.45448 0.0
C92 C 0.97976 0.53345 0.41826 0.0
C93 C 0.01397 0.57353 0.42361 0.0
C94 C 0.02735 0.58356 0.44411 0.0
C95 C 1.00556 0.55299 0.45952 0.0
H96 H 0.59963 0.15856 0.7576 0.0
H97 H 0.62844 0.05957 0.74471 0.0
H98 H 0.61789 0.09095 0.80735 0.0
C99 C 0.60732 0.1349 0.76298 0.0
C100 C 0.60831 0.12811 0.7842 0.0
C101 C 0.61472 0.11052 0.7486 0.0
C102 C 0.62423 0.07968 0.75568 0.0
C103 C 0.62547 0.07242 0.7768 0.0
C104 C 0.6172 0.09657 0.79103 0.0
H105 H 0.46441 0.46201 0.08262 0.0
H106 H 0.59922 0.52292 0.09219 0.0
H107 H 0.51422 0.47466 0.14398 0.0
C108 C 0.49106 0.47186 0.09301 0.0
C109 C 0.48391 0.46499 0.11427 0.0
C110 C 0.53244 0.49233 0.08498 0.0
C111 C 0.56712 0.5066 0.09836 0.0
C112 C 0.56077 0.50079 0.11967 0.0
C113 C 0.5191 0.47932 0.12754 0.0
C114 C 0.13444 0.41946 0.13863 0.0
C115 C 0.13594 0.44236 0.15628 0.0
C116 C 0.16585 0.40847 0.13521 0.0
C117 C 0.25678 0.40544 0.16091 0.0
H118 H 0.30207 0.42372 0.10554 0.0
C119 C 0.43134 0.46326 0.13989 0.0
C120 C 0.43982 0.44595 0.12241 0.0
C121 C 0.38942 0.45025 0.14553 0.0
C122 C 0.28929 0.41766 0.12101 0.0
H123 H 0.17064 0.47122 0.18432 0.0
H124 H 0.22602 0.45373 0.17807 0.0
H125 H 0.2366 0.4248 0.11203 0.0
H126 H 0.41084 0.39859 0.09827 0.0
H127 H 0.33764 0.37705 0.10778 0.0
H128 H 0.31151 0.40138 0.16995 0.0
C129 C 0.20023 0.44293 0.1671 0.0
C130 C 0.25164 0.41815 0.12475 0.0
C131 C 0.16869 0.45341 0.1706 0.0
C132 C 0.40541 0.41332 0.11152 0.0
C133 C 0.36354 0.40077 0.117 0.0
C134 C 0.29481 0.40563 0.15719 0.0
C135 C 0.1995 0.42063 0.14928 0.0
C136 C 0.23556 0.41328 0.14485 0.0
C137 C 0.35526 0.42002 0.13369 0.0
C138 C 0.31188 0.41277 0.13729 0.0
H139 H 0.10924 0.41034 0.12744 0.0
H140 H 0.16396 0.39081 0.12145 0.0
H141 H 0.24476 0.4005 0.17649 0.0
H142 H 0.45698 0.4887 0.14851 0.0
H143 H 0.38386 0.46587 0.15837 0.0
C144 C 0.74213 0.16889 0.52226 0.0
C145 C 0.70622 0.17054 0.52897 0.0
C146 C 0.78223 0.20574 0.52231 0.0
C147 C 0.83956 0.32294 0.5348 0.0
H148 H 0.88324 0.33198 0.4795 0.0
C149 C 0.90398 0.45544 0.47048 0.0
C150 C 0.94866 0.47965 0.47036 0.0
C151 C 0.88298 0.41995 0.48326 0.0
C152 C 0.87202 0.32968 0.49515 0.0
H153 H 0.68451 0.21031 0.54324 0.0
H154 H 0.75375 0.27468 0.5427 0.0
H155 H 0.83235 0.26235 0.49314 0.0
H156 H 1.00635 0.48702 0.48423 0.0
H157 H 0.96908 0.42426 0.5067 0.0
H158 H 0.87724 0.3914 0.53574 0.0
C159 C 0.75162 0.24522 0.53762 0.0
C160 C 0.84305 0.28976 0.50309 0.0
C161 C 0.71169 0.20826 0.53783 0.0
C162 C 0.97186 0.46907 0.48414 0.0
C163 C 0.95072 0.43331 0.49694 0.0
C164 C 0.86855 0.36307 0.52673 0.0
C165 C 0.78689 0.24496 0.52875 0.0
C166 C 0.82512 0.28594 0.52273 0.0
C167 C 0.90624 0.40812 0.49618 0.0
C168 C 0.88377 0.36659 0.50662 0.0
H169 H 0.73879 0.13996 0.51562 0.0
H170 H 0.80897 0.20412 0.51593 0.0
H171 H 0.82683 0.32112 0.55006 0.0
H172 H 0.88533 0.46314 0.46018 0.0
H173 H 0.84858 0.40064 0.48246 0.0
C174 C 0.65341 0.75802 0.81993 0.0
C175 C 0.62521 0.72266 0.8081 0.0
C176 C 0.65832 0.79814 0.81602 0.0
C177 C 0.59811 0.84556 0.79517 0.0
H178 H 0.70577 0.95179 0.7979 0.0
C179 C 0.60444 0.00694 0.79781 0.0
C180 C 0.63233 0.03733 0.78362 0.0
C181 C 0.60704 0.97046 0.80193 0.0
C182 C 0.67552 0.92235 0.79708 0.0
H183 H 0.58165 0.70157 0.78231 0.0
H184 H 0.59035 0.77187 0.77538 0.0
H185 H 0.70472 0.8839 0.80075 0.0
H186 H 0.6864 0.05487 0.76358 0.0
H187 H 0.69092 0.99109 0.77077 0.0
H188 H 0.56887 0.88376 0.79135 0.0
C189 C 0.60827 0.76847 0.78782 0.0
C190 C 0.6749 0.88357 0.79879 0.0
C191 C 0.60352 0.72837 0.79167 0.0
C192 C 0.6643 0.03171 0.77447 0.0
C193 C 0.66706 0.99538 0.77868 0.0
C194 C 0.5987 0.88425 0.7936 0.0
C195 C 0.63494 0.80353 0.80027 0.0
C196 C 0.63617 0.84479 0.79779 0.0
C197 C 0.63774 0.96387 0.79204 0.0
C198 C 0.63738 0.92304 0.79453 0.0
H199 H 0.67049 0.7544 0.8327 0.0
H200 H 0.6789 0.82449 0.82595 0.0
H201 H 0.56772 0.81621 0.79464 0.0
H202 H 0.57935 0.01035 0.80498 0.0
H203 H 0.58439 0.94691 0.81251 0.0
C204 C 0.91291 0.60347 0.17611 0.0
C205 C 0.9104 0.56698 0.18495 0.0
C206 C 0.87693 0.60804 0.17534 0.0
C207 C 0.76217 0.55751 0.19096 0.0
H208 H 0.75009 0.5879 0.13526 0.0
C209 C 0.60192 0.49209 0.14835 0.0
C210 C 0.59811 0.51806 0.13347 0.0
C211 C 0.63994 0.5069 0.15929 0.0
C212 C 0.75304 0.58021 0.15104 0.0
H213 H 0.86977 0.50842 0.20146 0.0
H214 H 0.80654 0.51541 0.19946 0.0
H215 H 0.81846 0.59972 0.14674 0.0
H216 H 0.62913 0.58096 0.11967 0.0
H217 H 0.69527 0.60702 0.13889 0.0
H218 H 0.69557 0.53573 0.19465 0.0
C219 C 0.83623 0.54103 0.19345 0.0
C220 C 0.79248 0.58714 0.15769 0.0
C221 C 0.87242 0.53683 0.19449 0.0
C222 C 0.63167 0.56003 0.13077 0.0
C223 C 0.66946 0.57491 0.14177 0.0
C224 C 0.72246 0.55033 0.18423 0.0
C225 C 0.8376 0.57577 0.18304 0.0
C226 C 0.79739 0.57495 0.17756 0.0
C227 C 0.6746 0.54801 0.15559 0.0
C228 C 0.71733 0.56075 0.16402 0.0
H229 H 0.94208 0.62744 0.16888 0.0
H230 H 0.87939 0.63578 0.16771 0.0
H231 H 0.76499 0.54827 0.20646 0.0
H232 H 0.57644 0.4596 0.15069 0.0
H233 H 0.64302 0.48527 0.16971 0.0
C234 C 0.35427 0.92669 0.45932 0.0
C235 C 0.36194 0.94669 0.47853 0.0
C236 C 0.31505 0.89024 0.45528 0.0
C237 C 0.22492 0.80272 0.48331 0.0
H238 H 0.17406 0.77269 0.42913 0.0
C239 C 0.06461 0.64888 0.46635 0.0
C240 C 0.06478 0.6257 0.44907 0.0
C241 C 0.09911 0.68958 0.47022 0.0
C242 C 0.18804 0.78069 0.44433 0.0
H243 H 0.33424 0.94652 0.50806 0.0
H244 H 0.26535 0.88409 0.50077 0.0
H245 H 0.23636 0.84289 0.43479 0.0
H246 H 0.10219 0.62627 0.42289 0.0
H247 H 0.16181 0.69737 0.42947 0.0
H248 H 0.17642 0.74046 0.4928 0.0
C249 C 0.28984 0.89537 0.48905 0.0
C250 C 0.22376 0.82081 0.44757 0.0
C251 C 0.32915 0.93135 0.49317 0.0
C252 C 0.10054 0.64369 0.43604 0.0
C253 C 0.13473 0.68439 0.43979 0.0
C254 C 0.18898 0.7628 0.48011 0.0
C255 C 0.28273 0.87355 0.47031 0.0
C256 C 0.24296 0.83214 0.46705 0.0
C257 C 0.13421 0.70788 0.45681 0.0
C258 C 0.17057 0.7512 0.46053 0.0
H259 H 0.37922 0.93788 0.44784 0.0
H260 H 0.31087 0.87409 0.44074 0.0
H261 H 0.2393 0.80994 0.49843 0.0
H262 H 0.03741 0.63605 0.47659 0.0
H263 H 0.09795 0.70712 0.48344 0.0
C264 C 0.53898 0.37793 0.86798 0.0
C265 C 0.50757 0.38267 0.85769 0.0
C266 C 0.53941 0.33965 0.86657 0.0
C267 C 0.51137 0.26074 0.82681 0.0
H268 H 0.56383 0.21477 0.86284 0.0
C269 C 0.61307 0.19629 0.7954 0.0
C270 C 0.5976 0.15269 0.79886 0.0
C271 C 0.59759 0.21814 0.80681 0.0
C272 C 0.54867 0.22701 0.85275 0.0
H273 H 0.44886 0.34986 0.84036 0.0
H274 H 0.44899 0.28267 0.8383 0.0
H275 H 0.53813 0.26077 0.87706 0.0
H276 H 0.55605 0.09855 0.81803 0.0
H277 H 0.5296 0.13754 0.83842 0.0
H278 H 0.52372 0.22896 0.8024 0.0
C279 C 0.47395 0.30876 0.84694 0.0
C280 C 0.53409 0.2533 0.86082 0.0
C281 C 0.47376 0.34712 0.84818 0.0
C282 C 0.56868 0.13219 0.81507 0.0
C283 C 0.55344 0.15432 0.82668 0.0
C284 C 0.52625 0.23504 0.81879 0.0
C285 C 0.50826 0.30556 0.85496 0.0
C286 C 0.51621 0.27126 0.8478 0.0
C287 C 0.56676 0.19703 0.82209 0.0
C288 C 0.54607 0.21899 0.83156 0.0
H289 H 0.56532 0.40488 0.87551 0.0
H290 H 0.5663 0.33829 0.87292 0.0
H291 H 0.49849 0.27453 0.81624 0.0
H292 H 0.63603 0.21319 0.78333 0.0
H293 H 0.60867 0.2513 0.80323 0.0
C294 C 0.50549 0.90533 0.49716 0.0
C295 C 0.53993 0.94381 0.50438 0.0
C296 C 0.50581 0.86687 0.49887 0.0
C297 C 0.57872 0.82344 0.50807 0.0
H298 H 0.4747 0.72016 0.52296 0.0
C299 C 0.57736 0.67551 0.54194 0.0
C300 C 0.54459 0.63462 0.53639 0.0
C301 C 0.57718 0.71201 0.53508 0.0
C302 C 0.5039 0.74854 0.51847 0.0
H303 H 0.60178 0.97156 0.51913 0.0
H304 H 0.60198 0.9048 0.52243 0.0
H305 H 0.4733 0.78602 0.5172 0.0
H306 H 0.48651 0.59995 0.51879 0.0
H307 H 0.486 0.66404 0.50675 0.0
H308 H 0.60949 0.78615 0.5099 0.0
C309 C 0.57498 0.90431 0.51505 0.0
C310 C 0.50314 0.78643 0.51517 0.0
C311 C 0.57474 0.94273 0.51328 0.0
C312 C 0.51231 0.63107 0.5232 0.0
C313 C 0.51183 0.66774 0.51649 0.0
C314 C 0.57951 0.78566 0.51148 0.0
C315 C 0.54052 0.86574 0.5079 0.0
C316 C 0.54068 0.82463 0.5102 0.0
C317 C 0.544 0.70867 0.5226 0.0
C318 C 0.54225 0.74782 0.51701 0.0
H319 H 0.47817 0.90481 0.49013 0.0
H320 H 0.47892 0.83806 0.49292 0.0
H321 H 0.60811 0.85183 0.5038 0.0
H322 H 0.60268 0.67922 0.55209 0.0
H323 H 0.60224 0.74285 0.54027 0.0
C324 C 0.68567 0.51888 0.84007 0.0
C325 C 0.68441 0.55418 0.83185 0.0
C326 C 0.72407 0.51875 0.8416 0.0
C327 C 0.84129 0.59053 0.84353 0.0
H328 H 0.84146 0.48426 0.83684 0.0
C329 C 0.99396 0.57767 0.85585 0.0
C330 C 0.98777 0.54362 0.86855 0.0
C331 C 0.95884 0.57975 0.84808 0.0
C332 C 0.84201 0.51422 0.83882 0.0
H333 H 0.72313 0.61704 0.81856 0.0
H334 H 0.79033 0.61664 0.82102 0.0
H335 H 0.77704 0.48695 0.82938 0.0
H336 H 0.94017 0.48426 0.88232 0.0
H337 H 0.87929 0.48742 0.86862 0.0
H338 H 0.90635 0.61756 0.8532 0.0
C339 C 0.76142 0.58914 0.8265 0.0
C340 C 0.80494 0.51576 0.83459 0.0
C341 C 0.72279 0.58927 0.82496 0.0
C342 C 0.94592 0.51086 0.87255 0.0
C343 C 0.91101 0.51263 0.86461 0.0
C344 C 0.87853 0.58902 0.84767 0.0
C345 C 0.76262 0.55387 0.83491 0.0
C346 C 0.80365 0.55366 0.83735 0.0
C347 C 0.91687 0.54747 0.85259 0.0
C348 C 0.87908 0.55058 0.84581 0.0
H349 H 0.65696 0.49128 0.84566 0.0
H350 H 0.72357 0.49131 0.84853 0.0
H351 H 0.84157 0.62022 0.84601 0.0
H352 H 0.02585 0.60353 0.85266 0.0
H353 H 0.96452 0.60687 0.83874 0.0
C354 C 0.14079 0.66228 0.18517 0.0
C355 C 0.13995 0.62772 0.17488 0.0
C356 C 0.17868 0.7015 0.18681 0.0
C357 C 0.29661 0.75118 0.18366 0.0
H358 H 0.29289 0.8562 0.18123 0.0
C359 C 0.45007 0.91706 0.19022 0.0
C360 C 0.44727 0.94561 0.20387 0.0
C361 C 0.41318 0.87973 0.18395 0.0
C362 C 0.29453 0.8272 0.18205 0.0
H363 H 0.17873 0.60776 0.15814 0.0
H364 H 0.2446 0.6762 0.1608 0.0
H365 H 0.22781 0.78816 0.17601 0.0
H366 H 0.40346 0.95858 0.22071 0.0
H367 H 0.33946 0.89402 0.20979 0.0
H368 H 0.36334 0.79033 0.18988 0.0
C369 C 0.21603 0.67283 0.16787 0.0
C370 C 0.25709 0.78805 0.17911 0.0
C371 C 0.1781 0.63354 0.16625 0.0
C372 C 0.40669 0.93713 0.21024 0.0
C373 C 0.36993 0.90015 0.20387 0.0
C374 C 0.33411 0.79038 0.18654 0.0
C375 C 0.2169 0.70744 0.17817 0.0
C376 C 0.2574 0.74937 0.18017 0.0
C377 C 0.37265 0.87038 0.19102 0.0
C378 C 0.33349 0.82892 0.18607 0.0
H379 H 0.11216 0.65907 0.19209 0.0
H380 H 0.17806 0.72702 0.19517 0.0
H381 H 0.29819 0.72218 0.18483 0.0
H382 H 0.48088 0.92255 0.18517 0.0
H383 H 0.41646 0.85781 0.17384 0.0
C384 C 0.56907 0.21542 0.50422 0.0
C385 C 0.53222 0.17763 0.49827 0.0
C386 C 0.56851 0.25346 0.50661 0.0
C387 C 0.50907 0.30977 0.49457 0.0
H388 H 0.5696 0.37633 0.54236 0.0
C389 C 0.50115 0.45858 0.52456 0.0
C390 C 0.53851 0.4916 0.53335 0.0
C391 C 0.49958 0.42089 0.51788 0.0
C392 C 0.55304 0.3586 0.52875 0.0
H393 H 0.46604 0.15097 0.48947 0.0
H394 H 0.465 0.21771 0.49381 0.0
H395 H 0.56762 0.30958 0.53548 0.0
H396 H 0.60391 0.51219 0.5412 0.0
H397 H 0.60184 0.44751 0.52905 0.0
H398 H 0.49433 0.35917 0.48804 0.0
C399 C 0.49447 0.21772 0.49651 0.0
C400 C 0.55185 0.32011 0.52481 0.0
C401 C 0.49503 0.1794 0.49407 0.0
C402 C 0.5748 0.48726 0.53437 0.0
C403 C 0.57336 0.44992 0.52765 0.0
C404 C 0.51027 0.34854 0.49854 0.0
C405 C 0.53105 0.25508 0.50322 0.0
C406 C 0.53035 0.29533 0.50753 0.0
C407 C 0.53536 0.41557 0.51996 0.0
C408 C 0.53279 0.37375 0.51557 0.0
H409 H 0.59853 0.21568 0.50736 0.0
H410 H 0.5976 0.28171 0.5113 0.0
H411 H 0.49231 0.29162 0.48109 0.0
H412 H 0.47256 0.46096 0.52392 0.0
H413 H 0.46975 0.39513 0.51212 0.0
C414 C 0.40902 0.51644 0.84981 0.0
C415 C 0.44458 0.55124 0.84065 0.0
C416 C 0.37064 0.51642 0.85222 0.0
C417 C 0.30952 0.56778 0.83405 0.0
H418 H 0.24706 0.52067 0.88469 0.0
C419 C 0.16009 0.57926 0.8595 0.0
C420 C 0.12825 0.54409 0.87028 0.0
C421 C 0.19808 0.58035 0.8538 0.0
C422 C 0.2637 0.53345 0.87031 0.0
H423 H 0.46713 0.61325 0.8266 0.0
H424 H 0.40026 0.6134 0.83104 0.0
H425 H 0.31432 0.5228 0.87926 0.0
H426 H 0.10986 0.4816 0.88244 0.0
H427 H 0.17504 0.48283 0.8721 0.0
H428 H 0.25859 0.57867 0.82528 0.0
C429 C 0.40198 0.58586 0.83618 0.0
C430 C 0.30245 0.53468 0.86719 0.0
C431 C 0.44048 0.58588 0.83375 0.0
C432 C 0.13398 0.50915 0.87418 0.0
C433 C 0.17157 0.51012 0.86845 0.0
C434 C 0.27057 0.56659 0.8372 0.0
C435 C 0.36659 0.55124 0.8456 0.0
C436 C 0.32579 0.55142 0.84895 0.0
C437 C 0.20481 0.54627 0.85881 0.0
C438 C 0.24688 0.54891 0.8553 0.0
H439 H 0.4107 0.48902 0.85518 0.0
H440 H 0.34396 0.4888 0.85918 0.0
H441 H 0.3264 0.58067 0.81975 0.0
H442 H 0.15662 0.60679 0.85651 0.0
H443 H 0.22296 0.60873 0.84642 0.0
C444 C 0.8678 0.38376 0.16275 0.0
C445 C 0.90703 0.38513 0.16496 0.0
C446 C 0.82928 0.34507 0.1643 0.0
C447 C 0.78318 0.22589 0.16654 0.0
H448 H 0.68771 0.22905 0.19149 0.0
C449 C 0.63693 0.07993 0.20376 0.0
C450 C 0.59643 0.07492 0.20022 0.0
C451 C 0.67365 0.11558 0.19614 0.0
C452 C 0.71387 0.22763 0.18425 0.0
H453 H 0.93637 0.3466 0.17043 0.0
H454 H 0.86958 0.2796 0.17394 0.0
H455 H 0.75379 0.29532 0.18522 0.0
H456 H 0.56248 0.10277 0.18563 0.0
H457 H 0.62683 0.16563 0.1725 0.0
H458 H 0.74336 0.1577 0.16666 0.0
C459 C 0.86822 0.30807 0.17036 0.0
C460 C 0.75195 0.26579 0.18054 0.0
C461 C 0.90676 0.34669 0.16844 0.0
C462 C 0.59326 0.10556 0.18831 0.0
C463 C 0.63009 0.1417 0.181 0.0
C464 C 0.74527 0.18767 0.17058 0.0
C465 C 0.82874 0.30661 0.16852 0.0
C466 C 0.78741 0.26565 0.17171 0.0
C467 C 0.67079 0.14753 0.18518 0.0
C468 C 0.7102 0.18807 0.17955 0.0
H469 H 0.86678 0.4127 0.1599 0.0
H470 H 0.7999 0.34553 0.16224 0.0
H471 H 0.80915 0.2241 0.15934 0.0
H472 H 0.64025 0.05701 0.21311 0.0
H473 H 0.70445 0.11923 0.19977 0.0
C474 C 0.01632 0.48701 0.1003 0.0
C475 C 0.03556 0.52664 0.11032 0.0
C476 C 0.01988 0.48501 0.07895 0.0
C477 C 0.08429 0.53983 0.03439 0.0
H478 H 0.97886 0.49341 0.00364 0.0
C479 C 0.0852 0.56738 0.94714 0.0
C480 C 0.05237 0.5363 0.93504 0.0
C481 C 0.08354 0.56386 0.96855 0.0
C482 C 0.00865 0.50569 0.01186 0.0
H483 H 0.07518 0.59489 0.10628 0.0
H484 H 0.08281 0.59124 0.06906 0.0
H485 H 0.97676 0.48945 0.04104 0.0
H486 H 0.99251 0.4768 0.93559 0.0
H487 H 0.99031 0.46928 0.97291 0.0
H488 H 0.11645 0.55514 0.00547 0.0
C489 C 0.06445 0.56191 0.07764 0.0
C490 C 1.00733 0.50353 0.03333 0.0
C491 C 0.06001 0.56398 0.09886 0.0
C492 C 0.01797 0.50139 0.94467 0.0
C493 C 0.01671 0.49732 0.96608 0.0
C494 C 0.08565 0.54116 0.01291 0.0
C495 C 0.04371 0.52252 0.06745 0.0
C496 C 0.04514 0.52116 0.04476 0.0
C497 C 0.04943 0.52858 0.97838 0.0
C498 C 0.04787 0.52481 0.0013 0.0
H499 H 0.99716 0.45778 0.10882 0.0
H500 H 1.00369 0.45429 0.07137 0.0
H501 H 0.11387 0.55344 0.04293 0.0
H502 H 0.11191 0.59475 0.94002 0.0
H503 H 0.10884 0.5892 0.97735 0.0
C504 C 0.52245 0.03816 0.43462 0.0
C505 C 0.5583 0.07505 0.44196 0.0
C506 C 0.51584 0.03105 0.41341 0.0
C507 C 0.57658 0.06722 0.36416 0.0
H508 H 0.46467 1.00335 0.33956 0.0
C509 C 0.5585 0.01987 0.27893 0.0
C510 C 0.52541 0.01971 0.26773 0.0
C511 C 0.5602 0.0243 0.30029 0.0
C512 C 0.49622 0.02171 0.3461 0.0
H513 H 0.61396 0.1345 0.43325 0.0
H514 H 0.60136 0.12364 0.39651 0.0
H515 H 0.47101 0.01798 0.37628 0.0
H516 H 0.46813 0.02402 0.2699 0.0
H517 H 0.47195 0.03373 0.3071 0.0
H518 H 0.60193 0.07307 0.33402 0.0
C519 C 0.57921 0.09904 0.40683 0.0
C520 C 0.49986 0.02957 0.36729 0.0
C521 C 0.58626 0.10558 0.42791 0.0
C522 C 0.49384 0.02377 0.27826 0.0
C523 C 0.49595 0.02905 0.29961 0.0
C524 C 0.57296 0.06002 0.34301 0.0
C525 C 0.54466 0.06111 0.39921 0.0
C526 C 0.54014 0.05253 0.37663 0.0
C527 C 0.52934 0.02964 0.31094 0.0
C528 C 0.53276 0.03701 0.33363 0.0
H529 H 0.50078 0.01392 0.44522 0.0
H530 H 0.48909 1.00128 0.40823 0.0
H531 H 0.60823 0.08416 0.37071 0.0
H532 H 0.58292 0.01625 0.27115 0.0
H533 H 0.58578 0.02341 0.30842 0.0
C534 C 0.57983 0.56846 0.76714 0.0
C535 C 0.54485 0.53262 0.77596 0.0
C536 C 0.58234 0.57436 0.74577 0.0
C537 C 0.54482 0.51366 0.69788 0.0
H538 H 0.56769 0.6199 0.67246 0.0
C539 C 0.51738 0.52269 0.61158 0.0
C540 C 0.54565 0.55969 0.6007 0.0
C541 C 0.51943 0.52133 0.63297 0.0
C542 C 0.56193 0.59019 0.67928 0.0
H543 H 0.4848 0.47536 0.7695 0.0
H544 H 0.48949 0.4853 0.73239 0.0
H545 H 0.56857 0.61473 0.70992 0.0
H546 H 0.5984 0.62429 0.6037 0.0
H547 H 0.60268 0.62173 0.6411 0.0
H548 H 0.53868 0.48902 0.6675 0.0
C549 C 0.51503 0.50874 0.74187 0.0
C550 C 0.56236 0.58728 0.70074 0.0
C551 C 0.51228 0.50317 0.76313 0.0
C552 C 0.57594 0.59545 0.61171 0.0
C553 C 0.57828 0.59398 0.63315 0.0
C554 C 0.54483 0.51666 0.67649 0.0
C555 C 0.55019 0.54416 0.73293 0.0
C556 C 0.55308 0.54874 0.71023 0.0
C557 C 0.55014 0.55681 0.64406 0.0
C558 C 0.55263 0.55471 0.66688 0.0
H559 H 0.60533 0.59169 0.77671 0.0
H560 H 0.60982 0.60192 0.73925 0.0
H561 H 0.53828 0.48375 0.70478 0.0
H562 H 0.49326 0.49487 0.60353 0.0
H563 H 0.49653 0.4925 0.64083 0.0
C564 C 0.5048 0.08656 0.56911 0.0
C565 C 0.52737 0.07435 0.55589 0.0
C566 C 0.51738 0.09687 0.58954 0.0
C567 C 0.60634 0.12659 0.6257 0.0
H568 H 0.51579 0.0725 0.66597 0.0
C569 C 0.6366 0.11202 0.71181 0.0
C570 C 0.60932 0.11489 0.72627 0.0
C571 C 0.62914 0.11244 0.69077 0.0
C572 C 0.54143 0.0885 0.65497 0.0
H573 H 0.58149 0.0646 0.55331 0.0
H574 H 0.60351 0.08256 0.58912 0.0
H575 H 0.49841 0.06413 0.6296 0.0
H576 H 0.55335 0.12144 0.72988 0.0
H577 H 0.54128 0.12363 0.69329 0.0
H578 H 0.64941 0.15067 0.65116 0.0
C579 C 0.57627 0.08443 0.58367 0.0
C580 C 0.53144 0.08363 0.63411 0.0
C581 C 0.56357 0.07396 0.56323 0.0
C582 C 0.5753 0.11964 0.7192 0.0
C583 C 0.568 0.1203 0.6982 0.0
C584 C 0.61636 0.13163 0.64663 0.0
C585 C 0.55283 0.09526 0.59712 0.0
C586 C 0.56377 0.1024 0.61924 0.0
C587 C 0.59431 0.11586 0.68374 0.0
C588 C 0.58399 0.11242 0.6615 0.0
H589 H 0.47693 0.0874 0.56376 0.0
H590 H 0.49908 0.10569 0.59948 0.0
H591 H 0.63186 0.14174 0.61456 0.0
H592 H 0.66339 0.10883 0.71676 0.0
H593 H 0.64985 0.10864 0.68004 0.0
C594 C 0.54897 0.53101 0.89842 0.0
C595 C 0.58371 0.56868 0.89083 0.0
C596 C 0.54578 0.5216 0.91939 0.0
C597 C 0.56173 0.50121 0.9632 0.0
H598 H 0.57499 0.59064 0.00045 0.0
C599 C 0.56631 0.48938 0.05197 0.0
C600 C 0.53948 0.50029 0.06266 0.0
C601 C 0.57287 0.497 0.03086 0.0
C602 C 0.57121 0.56542 0.9902 0.0
H603 H 0.6427 0.62566 0.89894 0.0
H604 H 0.63672 0.60953 0.93569 0.0
H605 H 0.58496 0.60486 0.96355 0.0
H606 H 0.49899 0.5282 0.05992 0.0
H607 H 0.51085 0.542 0.02304 0.0
H608 H 0.54787 0.46175 0.98993 0.0
C609 C 0.61204 0.58735 0.92543 0.0
C610 C 0.57722 0.57363 0.96916 0.0
C611 C 0.61551 0.59648 0.90445 0.0
C612 C 0.51956 0.51921 0.05196 0.0
C613 C 0.52658 0.52736 0.03095 0.0
C614 C 0.55628 0.49316 0.98431 0.0
C615 C 0.577 0.54999 0.9331 0.0
C616 C 0.57221 0.54151 0.95545 0.0
C617 C 0.55324 0.51629 0.02021 0.0
C618 C 0.56058 0.5251 0.99796 0.0
H619 H 0.52407 0.50905 0.88819 0.0
H620 H 0.5183 0.49274 0.92495 0.0
H621 H 0.55791 0.47601 0.95293 0.0
H622 H 0.58187 0.4746 0.05991 0.0
H623 H 0.59375 0.4884 0.02292 0.0
C624 C 1.00532 0.52073 0.23339 0.0
C625 C 1.00362 0.48383 0.22553 0.0
C626 C 0.99407 0.52199 0.25382 0.0
C627 C 0.99054 0.47293 0.30343 0.0
H628 H 0.92809 0.52795 0.32172 0.0
C629 C 0.96087 0.48196 0.38906 0.0
C630 C 0.96929 0.52201 0.39627 0.0
C631 C 0.95677 0.47314 0.36805 0.0
C632 C 0.94574 0.51266 0.31684 0.0
H633 H 0.98698 0.41873 0.23238 0.0
H634 H 0.96731 0.42086 0.268 0.0
H635 H 0.93698 0.52093 0.28492 0.0
H636 H 0.97697 0.58308 0.38712 0.0
H637 H 0.9714 0.56828 0.35042 0.0
H638 H 1.00067 0.46578 0.33511 0.0
C639 C 0.97788 0.44901 0.25853 0.0
C640 C 0.9508 0.50864 0.29579 0.0
C641 C 0.98903 0.44775 0.23814 0.0
C642 C 0.97125 0.55219 0.38204 0.0
C643 C 0.9675 0.54348 0.361 0.0
C644 C 0.98569 0.47711 0.32439 0.0
C645 C 0.98104 0.48637 0.2667 0.0
C646 C 0.97349 0.48895 0.2889 0.0
C647 C 0.96139 0.50428 0.35373 0.0
C648 C 0.9635 0.49726 0.33138 0.0
H649 H 0.01626 0.54891 0.2239 0.0
H650 H 0.99709 0.55131 0.25974 0.0
H651 H 0.00888 0.45832 0.29861 0.0
H652 H 0.95942 0.45805 0.39955 0.0
H653 H 0.95124 0.44231 0.36299 0.0
loop_
_geom_bond_atom_site_label_1
_geom_bond_atom_site_label_2
_geom_bond_distance
_geom_bond_site_symmetry_2
_ccdc_geom_bond_type
Dy0 O4 2.398 . S
Dy0 O5 2.491 . S
Dy0 O6 2.403 . S
Dy0 O7 2.664 . S
Dy0 O11 2.326 . S
Dy0 O15 2.310 . S
Dy0 O16 2.351 1_455 S
C1 O12 1.185 . S
C1 O13 1.355 . S
C2 O4 1.185 . S
C2 O5 1.355 . S
Dy3 O7 2.312 . S
Dy3 O10 2.354 . S
Dy3 O12 2.395 1_455 S
Dy3 O13 2.489 1_455 S
Dy3 O14 2.404 . S
Dy3 O15 2.667 . S
Dy3 O17 2.326 1_455 S
O4 Dy0 2.398 . S
O4 C2 1.185 . S
O5 Dy0 2.491 . S
O5 C2 1.355 . S
O6 Dy0 2.403 . S
O6 C8 1.254 . S
O7 Dy0 2.664 . S
O7 Dy3 2.312 . S
O7 C8 1.268 . S
C8 O6 1.254 . S
C8 O7 1.268 . S
C9 O14 1.254 . S
C9 O15 1.268 . S
O10 Dy3 2.354 . S
O10 C18 1.249 . S
O11 Dy0 2.326 . S
O11 C18 1.267 . S
O12 C1 1.185 . S
O12 Dy3 2.395 1_655 S
O13 C1 1.355 . S
O13 Dy3 2.489 1_655 S
O14 Dy3 2.404 . S
O14 C9 1.254 . S
O15 Dy0 2.310 . S
O15 Dy3 2.667 . S
O15 C9 1.268 . S
O16 Dy0 2.351 1_655 S
O16 C19 1.249 . S
O17 Dy3 2.326 1_655 S
O17 C19 1.267 . S
C18 O10 1.249 . S
C18 O11 1.267 . S
C19 O16 1.249 . S
C19 O17 1.267 . S
Dy20 O24 2.398 1_545 S
Dy20 O25 2.491 1_545 S
Dy20 O26 2.403 . S
Dy20 O27 2.664 . S
Dy20 O31 2.326 1_545 S
Dy20 O35 2.310 . S
Dy20 O36 2.351 . S
C21 O32 1.185 . S
C21 O33 1.355 . S
C22 O24 1.185 . S
C22 O25 1.355 . S
Dy23 O27 2.310 . S
Dy23 O30 2.351 1_545 S
Dy23 O32 2.398 . S
Dy23 O33 2.491 . S
Dy23 O34 2.403 . S
Dy23 O35 2.664 . S
Dy23 O37 2.326 . S
O24 Dy20 2.398 1_565 S
O24 C22 1.185 . S
O25 Dy20 2.491 1_565 S
O25 C22 1.355 . S
O26 Dy20 2.403 . S
O26 C28 1.254 . S
O27 Dy20 2.664 . S
O27 Dy23 2.310 . S
O27 C28 1.268 . S
C28 O26 1.254 . S
C28 O27 1.268 . S
C29 O34 1.254 . S
C29 O35 1.268 . S
O30 Dy23 2.351 1_565 S
O30 C38 1.249 . S
O31 Dy20 2.326 1_565 S
O31 C38 1.267 . S
O32 C21 1.185 . S
O32 Dy23 2.398 . S
O33 C21 1.355 . S
O33 Dy23 2.491 . S
O34 Dy23 2.403 . S
O34 C29 1.254 . S
O35 Dy20 2.310 . S
O35 Dy23 2.664 . S
O35 C29 1.268 . S
O36 Dy20 2.351 . S
O36 C39 1.249 . S
O37 Dy23 2.326 . S
O37 C39 1.267 . S
C38 O30 1.249 . S
C38 O31 1.267 . S
C39 O36 1.249 . S
C39 O37 1.267 . S
Dy40 O44 2.398 . S
Dy40 O45 2.491 . S
Dy40 O46 2.403 . S
Dy40 O47 2.664 . S
Dy40 O51 2.326 . S
Dy40 O55 2.310 . S
Dy40 O56 2.351 . S
C41 O52 1.185 . S
C41 O53 1.355 . S
C42 O44 1.185 . S
C42 O45 1.355 . S
Dy43 O47 2.310 . S
Dy43 O50 2.351 . S
Dy43 O52 2.398 . S
Dy43 O53 2.491 . S
Dy43 O54 2.403 . S
Dy43 O55 2.664 . S
Dy43 O57 2.326 . S
O44 Dy40 2.398 . S
O44 C42 1.185 . S
O45 Dy40 2.491 . S
O45 C42 1.355 . S
O46 Dy40 2.403 . S
O46 C48 1.254 . S
O47 Dy40 2.664 . S
O47 Dy43 2.310 . S
O47 C48 1.268 . S
C48 O46 1.254 . S
C48 O47 1.268 . S
C49 O54 1.254 . S
C49 O55 1.268 . S
O50 Dy43 2.351 . S
O50 C58 1.249 . S
O51 Dy40 2.326 . S
O51 C58 1.267 . S
O52 C41 1.185 . S
O52 Dy43 2.398 . S
O53 C41 1.355 . S
O53 Dy43 2.491 . S
O54 Dy43 2.403 . S
O54 C49 1.254 . S
O55 Dy40 2.310 . S
O55 Dy43 2.664 . S
O55 C49 1.268 . S
O56 Dy40 2.351 . S
O56 C59 1.249 . S
O57 Dy43 2.326 . S
O57 C59 1.267 . S
C58 O50 1.249 . S
C58 O51 1.267 . S
C59 O56 1.249 . S
C59 O57 1.267 . S
H60 C63 0.931 . S
H61 C66 0.928 . S
H62 C68 0.930 . S
C63 H60 0.931 . S
C63 C64 1.413 . S
C63 C65 1.360 1_565 S
C64 C63 1.413 . S
C64 C68 1.429 1_565 S
C65 C63 1.360 1_545 S
C65 C66 1.372 . S
C66 H61 0.928 . S
C66 C65 1.372 . S
C66 C67 1.404 . S
C67 C66 1.404 . S
C67 C68 1.391 . S
C68 H62 0.930 . S
C68 C64 1.429 1_545 S
C68 C67 1.391 . S
H69 C72 0.931 . S
H70 C75 0.928 . S
H71 C77 0.930 . S
C72 H69 0.931 . S
C72 C73 1.413 . S
C72 C74 1.360 . S
C73 C72 1.413 . S
C73 C77 1.429 . S
C74 C72 1.360 . S
C74 C75 1.372 . S
C75 H70 0.928 . S
C75 C74 1.372 . S
C75 C76 1.404 . S
C76 C75 1.404 . S
C76 C77 1.391 . S
C77 H71 0.930 . S
C77 C73 1.429 . S
C77 C76 1.391 . S
H78 C81 0.931 . S
H79 C84 0.928 . S
H80 C86 0.930 . S
C81 H78 0.931 . S
C81 C82 1.413 . S
C81 C83 1.360 . S
C82 C81 1.413 . S
C82 C86 1.429 . S
C83 C81 1.360 . S
C83 C84 1.372 . S
C84 H79 0.928 . S
C84 C83 1.372 . S
C84 C85 1.404 . S
C85 C84 1.404 . S
C85 C86 1.391 . S
C86 H80 0.930 . S
C86 C82 1.429 . S
C86 C85 1.391 . S
H87 C90 0.931 . S
H88 C93 0.928 . S
H89 C95 0.930 . S
C90 H87 0.931 . S
C90 C91 1.413 . S
C90 C92 1.360 1_655 S
C91 C90 1.413 . S
C91 C95 1.429 1_655 S
C92 C90 1.360 1_455 S
C92 C93 1.372 . S
C93 H88 0.928 . S
C93 C92 1.372 . S
C93 C94 1.404 . S
C94 C93 1.404 . S
C94 C95 1.391 . S
C95 H89 0.930 . S
C95 C91 1.429 1_455 S
C95 C94 1.391 . S
H96 C99 0.931 . S
H97 C102 0.928 . S
H98 C104 0.930 . S
C99 H96 0.931 . S
C99 C100 1.413 . S
C99 C101 1.360 . S
C100 C99 1.413 . S
C100 C104 1.429 . S
C101 C99 1.360 . S
C101 C102 1.372 . S
C102 H97 0.928 . S
C102 C101 1.372 . S
C102 C103 1.404 . S
C103 C102 1.404 . S
C103 C104 1.391 . S
C104 H98 0.930 . S
C104 C100 1.429 . S
C104 C103 1.391 . S
H105 C108 0.931 . S
H106 C111 0.928 . S
H107 C113 0.930 . S
C108 H105 0.931 . S
C108 C109 1.413 . S
C108 C110 1.360 . S
C109 C108 1.413 . S
C109 C113 1.429 . S
C110 C108 1.360 . S
C110 C111 1.372 . S
C111 H106 0.928 . S
C111 C110 1.372 . S
C111 C112 1.404 . S
C112 C111 1.404 . S
C112 C113 1.391 . S
C113 H107 0.930 . S
C113 C109 1.429 . S
C113 C112 1.391 . S
C114 C115 1.349 . S
C114 C116 1.327 . S
C114 H139 0.950 . S
C115 C114 1.349 . S
C115 C131 1.349 . S
C116 C114 1.327 . S
C116 C135 1.429 . S
C116 H140 0.950 . S
C117 C134 1.574 . S
C117 C136 1.368 . S
C117 H141 0.949 . S
H118 C122 0.949 . S
C119 C120 1.349 . S
C119 C121 1.327 . S
C119 H142 0.950 . S
C120 C119 1.349 . S
C120 C132 1.349 . S
C121 C119 1.327 . S
C121 C137 1.429 . S
C121 H143 0.950 . S
C122 H118 0.949 . S
C122 C130 1.574 . S
C122 C138 1.368 . S
H123 C131 0.950 . S
H124 C129 0.950 . S
H125 C130 0.949 . S
H126 C132 0.950 . S
H127 C133 0.950 . S
H128 C134 0.949 . S
C129 H124 0.950 . S
C129 C131 1.327 . S
C129 C135 1.429 . S
C130 C122 1.574 . S
C130 H125 0.949 . S
C130 C136 1.368 . S
C131 C115 1.349 . S
C131 H123 0.950 . S
C131 C129 1.327 . S
C132 C120 1.349 . S
C132 H126 0.950 . S
C132 C133 1.327 . S
C133 H127 0.950 . S
C133 C132 1.327 . S
C133 C137 1.429 . S
C134 C117 1.574 . S
C134 H128 0.949 . S
C134 C138 1.368 . S
C135 C116 1.429 . S
C135 C129 1.429 . S
C135 C136 1.523 . S
C136 C117 1.368 . S
C136 C130 1.368 . S
C136 C135 1.523 . S
C137 C121 1.429 . S
C137 C133 1.429 . S
C137 C138 1.523 . S
C138 C122 1.368 . S
C138 C134 1.368 . S
C138 C137 1.523 . S
H139 C114 0.950 . S
H140 C116 0.950 . S
H141 C117 0.949 . S
H142 C119 0.950 . S
H143 C121 0.950 . S
C144 C145 1.349 . S
C144 C146 1.327 . S
C144 H169 0.950 . S
C145 C144 1.349 . S
C145 C161 1.349 . S
C146 C144 1.327 . S
C146 C165 1.429 . S
C146 H170 0.950 . S
C147 C164 1.574 . S
C147 C166 1.368 . S
C147 H171 0.949 . S
H148 C152 0.949 . S
C149 C150 1.349 . S
C149 C151 1.327 . S
C149 H172 0.950 . S
C150 C149 1.349 . S
C150 C162 1.349 . S
C151 C149 1.327 . S
C151 C167 1.429 . S
C151 H173 0.950 . S
C152 H148 0.949 . S
C152 C160 1.574 . S
C152 C168 1.368 . S
H153 C161 0.950 . S
H154 C159 0.950 . S
H155 C160 0.949 . S
H156 C162 0.950 . S
H157 C163 0.950 . S
H158 C164 0.949 . S
C159 H154 0.950 . S
C159 C161 1.327 . S
C159 C165 1.429 . S
C160 C152 1.574 . S
C160 H155 0.949 . S
C160 C166 1.368 . S
C161 C145 1.349 . S
C161 H153 0.950 . S
C161 C159 1.327 . S
C162 C150 1.349 . S
C162 H156 0.950 . S
C162 C163 1.327 . S
C163 H157 0.950 . S
C163 C162 1.327 . S
C163 C167 1.429 . S
C164 C147 1.574 . S
C164 H158 0.949 . S
C164 C168 1.368 . S
C165 C146 1.429 . S
C165 C159 1.429 . S
C165 C166 1.523 . S
C166 C147 1.368 . S
C166 C160 1.368 . S
C166 C165 1.523 . S
C167 C151 1.429 . S
C167 C163 1.429 . S
C167 C168 1.523 . S
C168 C152 1.368 . S
C168 C164 1.368 . S
C168 C167 1.523 . S
H169 C144 0.950 . S
H170 C146 0.950 . S
H171 C147 0.949 . S
H172 C149 0.950 . S
H173 C151 0.950 . S
C174 C175 1.349 . S
C174 C176 1.327 . S
C174 H199 0.950 . S
C175 C174 1.349 . S
C175 C191 1.349 . S
C176 C174 1.327 . S
C176 C195 1.429 . S
C176 H200 0.950 . S
C177 C194 1.574 . S
C177 C196 1.368 . S
C177 H201 0.949 . S
H178 C182 0.949 . S
C179 C180 1.349 1_565 S
C179 C181 1.327 . S
C179 H202 0.950 . S
C180 C179 1.349 1_545 S
C180 C192 1.349 . S
C181 C179 1.327 . S
C181 C197 1.429 . S
C181 H203 0.950 . S
C182 H178 0.949 . S
C182 C190 1.574 . S
C182 C198 1.368 . S
H183 C191 0.950 . S
H184 C189 0.950 . S
H185 C190 0.949 . S
H186 C192 0.950 . S
H187 C193 0.950 . S
H188 C194 0.949 . S
C189 H184 0.950 . S
C189 C191 1.327 . S
C189 C195 1.429 . S
C190 C182 1.574 . S
C190 H185 0.949 . S
C190 C196 1.368 . S
C191 C175 1.349 . S
C191 H183 0.950 . S
C191 C189 1.327 . S
C192 C180 1.349 . S
C192 H186 0.950 . S
C192 C193 1.327 1_545 S
C193 H187 0.950 . S
C193 C192 1.327 1_565 S
C193 C197 1.429 . S
C194 C177 1.574 . S
C194 H188 0.949 . S
C194 C198 1.368 . S
C195 C176 1.429 . S
C195 C189 1.429 . S
C195 C196 1.523 . S
C196 C177 1.368 . S
C196 C190 1.368 . S
C196 C195 1.523 . S
C197 C181 1.429 . S
C197 C193 1.429 . S
C197 C198 1.523 . S
C198 C182 1.368 . S
C198 C194 1.368 . S
C198 C197 1.523 . S
H199 C174 0.950 . S
H200 C176 0.950 . S
H201 C177 0.949 . S
H202 C179 0.950 . S
H203 C181 0.950 . S
C204 C205 1.349 . S
C204 C206 1.327 . S
C204 H229 0.950 . S
C205 C204 1.349 . S
C205 C221 1.349 . S
C206 C204 1.327 . S
C206 C225 1.429 . S
C206 H230 0.950 . S
C207 C224 1.574 . S
C207 C226 1.368 . S
C207 H231 0.949 . S
H208 C212 0.949 . S
C209 C210 1.349 . S
C209 C211 1.327 . S
C209 H232 0.950 . S
C210 C209 1.349 . S
C210 C222 1.349 . S
C211 C209 1.327 . S
C211 C227 1.429 . S
C211 H233 0.950 . S
C212 H208 0.949 . S
C212 C220 1.574 . S
C212 C228 1.368 . S
H213 C221 0.950 . S
H214 C219 0.950 . S
H215 C220 0.949 . S
H216 C222 0.950 . S
H217 C223 0.950 . S
H218 C224 0.949 . S
C219 H214 0.950 . S
C219 C221 1.327 . S
C219 C225 1.429 . S
C220 C212 1.574 . S
C220 H215 0.949 . S
C220 C226 1.368 . S
C221 C205 1.349 . S
C221 H213 0.950 . S
C221 C219 1.327 . S
C222 C210 1.349 . S
C222 H216 0.950 . S
C222 C223 1.327 . S
C223 H217 0.950 . S
C223 C222 1.327 . S
C223 C227 1.429 . S
C224 C207 1.574 . S
C224 H218 0.949 . S
C224 C228 1.368 . S
C225 C206 1.429 . S
C225 C219 1.429 . S
C225 C226 1.523 . S
C226 C207 1.368 . S
C226 C220 1.368 . S
C226 C225 1.523 . S
C227 C211 1.429 . S
C227 C223 1.429 . S
C227 C228 1.523 . S
C228 C212 1.368 . S
C228 C224 1.368 . S
C228 C227 1.523 . S
H229 C204 0.950 . S
H230 C206 0.950 . S
H231 C207 0.949 . S
H232 C209 0.950 . S
H233 C211 0.950 . S
C234 C235 1.349 . S
C234 C236 1.327 . S
C234 H259 0.950 . S
C235 C234 1.349 . S
C235 C251 1.349 . S
C236 C234 1.327 . S
C236 C255 1.429 . S
C236 H260 0.950 . S
C237 C254 1.574 . S
C237 C256 1.368 . S
C237 H261 0.949 . S
H238 C242 0.949 . S
C239 C240 1.349 . S
C239 C241 1.327 . S
C239 H262 0.950 . S
C240 C239 1.349 . S
C240 C252 1.349 . S
C241 C239 1.327 . S
C241 C257 1.429 . S
C241 H263 0.950 . S
C242 H238 0.949 . S
C242 C250 1.574 . S
C242 C258 1.368 . S
H243 C251 0.950 . S
H244 C249 0.950 . S
H245 C250 0.949 . S
H246 C252 0.950 . S
H247 C253 0.950 . S
H248 C254 0.949 . S
C249 H244 0.950 . S
C249 C251 1.327 . S
C249 C255 1.429 . S
C250 C242 1.574 . S
C250 H245 0.949 . S
C250 C256 1.368 . S
C251 C235 1.349 . S
C251 H243 0.950 . S
C251 C249 1.327 . S
C252 C240 1.349 . S
C252 H246 0.950 . S
C252 C253 1.327 . S
C253 H247 0.950 . S
C253 C252 1.327 . S
C253 C257 1.429 . S
C254 C237 1.574 . S
C254 H248 0.949 . S
C254 C258 1.368 . S
C255 C236 1.429 . S
C255 C249 1.429 . S
C255 C256 1.523 . S
C256 C237 1.368 . S
C256 C250 1.368 . S
C256 C255 1.523 . S
C257 C241 1.429 . S
C257 C253 1.429 . S
C257 C258 1.523 . S
C258 C242 1.368 . S
C258 C254 1.368 . S
C258 C257 1.523 . S
H259 C234 0.950 . S
H260 C236 0.950 . S
H261 C237 0.949 . S
H262 C239 0.950 . S
H263 C241 0.950 . S
C264 C265 1.349 . S
C264 C266 1.327 . S
C264 H289 0.950 . S
C265 C264 1.349 . S
C265 C281 1.349 . S
C266 C264 1.327 . S
C266 C285 1.429 . S
C266 H290 0.950 . S
C267 C284 1.574 . S
C267 C286 1.368 . S
C267 H291 0.949 . S
H268 C272 0.949 . S
C269 C270 1.349 . S
C269 C271 1.327 . S
C269 H292 0.950 . S
C270 C269 1.349 . S
C270 C282 1.349 . S
C271 C269 1.327 . S
C271 C287 1.429 . S
C271 H293 0.950 . S
C272 H268 0.949 . S
C272 C280 1.574 . S
C272 C288 1.368 . S
H273 C281 0.950 . S
H274 C279 0.950 . S
H275 C280 0.949 . S
H276 C282 0.950 . S
H277 C283 0.950 . S
H278 C284 0.949 . S
C279 H274 0.950 . S
C279 C281 1.327 . S
C279 C285 1.429 . S
C280 C272 1.574 . S
C280 H275 0.949 . S
C280 C286 1.368 . S
C281 C265 1.349 . S
C281 H273 0.950 . S
C281 C279 1.327 . S
C282 C270 1.349 . S
C282 H276 0.950 . S
C282 C283 1.327 . S
C283 H277 0.950 . S
C283 C282 1.327 . S
C283 C287 1.429 . S
C284 C267 1.574 . S
C284 H278 0.949 . S
C284 C288 1.368 . S
C285 C266 1.429 . S
C285 C279 1.429 . S
C285 C286 1.523 . S
C286 C267 1.368 . S
C286 C280 1.368 . S
C286 C285 1.523 . S
C287 C271 1.429 . S
C287 C283 1.429 . S
C287 C288 1.523 . S
C288 C272 1.368 . S
C288 C284 1.368 . S
C288 C287 1.523 . S
H289 C264 0.950 . S
H290 C266 0.950 . S
H291 C267 0.949 . S
H292 C269 0.950 . S
H293 C271 0.950 . S
C294 C295 1.349 . S
C294 C296 1.327 . S
C294 H319 0.950 . S
C295 C294 1.349 . S
C295 C311 1.349 . S
C296 C294 1.327 . S
C296 C315 1.429 . S
C296 H320 0.950 . S
C297 C314 1.574 . S
C297 C316 1.368 . S
C297 H321 0.949 . S
H298 C302 0.949 . S
C299 C300 1.349 . S
C299 C301 1.327 . S
C299 H322 0.950 . S
C300 C299 1.349 . S
C300 C312 1.349 . S
C301 C299 1.327 . S
C301 C317 1.429 . S
C301 H323 0.950 . S
C302 H298 0.949 . S
C302 C310 1.574 . S
C302 C318 1.368 . S
H303 C311 0.950 . S
H304 C309 0.950 . S
H305 C310 0.949 . S
H306 C312 0.950 . S
H307 C313 0.950 . S
H308 C314 0.949 . S
C309 H304 0.950 . S
C309 C311 1.327 . S
C309 C315 1.429 . S
C310 C302 1.574 . S
C310 H305 0.949 . S
C310 C316 1.368 . S
C311 C295 1.349 . S
C311 H303 0.950 . S
C311 C309 1.327 . S
C312 C300 1.349 . S
C312 H306 0.950 . S
C312 C313 1.327 . S
C313 H307 0.950 . S
C313 C312 1.327 . S
C313 C317 1.429 . S
C314 C297 1.574 . S
C314 H308 0.949 . S
C314 C318 1.368 . S
C315 C296 1.429 . S
C315 C309 1.429 . S
C315 C316 1.523 . S
C316 C297 1.368 . S
C316 C310 1.368 . S
C316 C315 1.523 . S
C317 C301 1.429 . S
C317 C313 1.429 . S
C317 C318 1.523 . S
C318 C302 1.368 . S
C318 C314 1.368 . S
C318 C317 1.523 . S
H319 C294 0.950 . S
H320 C296 0.950 . S
H321 C297 0.949 . S
H322 C299 0.950 . S
H323 C301 0.950 . S
C324 C325 1.349 . S
C324 C326 1.327 . S
C324 H349 0.950 . S
C325 C324 1.349 . S
C325 C341 1.349 . S
C326 C324 1.327 . S
C326 C345 1.429 . S
C326 H350 0.950 . S
C327 C344 1.574 . S
C327 C346 1.368 . S
C327 H351 0.949 . S
H328 C332 0.949 . S
C329 C330 1.349 . S
C329 C331 1.327 . S
C329 H352 0.950 . S
C330 C329 1.349 . S
C330 C342 1.349 . S
C331 C329 1.327 . S
C331 C347 1.429 . S
C331 H353 0.950 . S
C332 H328 0.949 . S
C332 C340 1.574 . S
C332 C348 1.368 . S
H333 C341 0.950 . S
H334 C339 0.950 . S
H335 C340 0.949 . S
H336 C342 0.950 . S
H337 C343 0.950 . S
H338 C344 0.949 . S
C339 H334 0.950 . S
C339 C341 1.327 . S
C339 C345 1.429 . S
C340 C332 1.574 . S
C340 H335 0.949 . S
C340 C346 1.368 . S
C341 C325 1.349 . S
C341 H333 0.950 . S
C341 C339 1.327 . S
C342 C330 1.349 . S
C342 H336 0.950 . S
C342 C343 1.327 . S
C343 H337 0.950 . S
C343 C342 1.327 . S
C343 C347 1.429 . S
C344 C327 1.574 . S
C344 H338 0.949 . S
C344 C348 1.368 . S
C345 C326 1.429 . S
C345 C339 1.429 . S
C345 C346 1.523 . S
C346 C327 1.368 . S
C346 C340 1.368 . S
C346 C345 1.523 . S
C347 C331 1.429 . S
C347 C343 1.429 . S
C347 C348 1.523 . S
C348 C332 1.368 . S
C348 C344 1.368 . S
C348 C347 1.523 . S
H349 C324 0.950 . S
H350 C326 0.950 . S
H351 C327 0.949 . S
H352 C329 0.950 . S
H353 C331 0.950 . S
C354 C355 1.349 . S
C354 C356 1.327 . S
C354 H379 0.950 . S
C355 C354 1.349 . S
C355 C371 1.349 . S
C356 C354 1.327 . S
C356 C375 1.429 . S
C356 H380 0.950 . S
C357 C374 1.574 . S
C357 C376 1.368 . S
C357 H381 0.949 . S
H358 C362 0.949 . S
C359 C360 1.349 . S
C359 C361 1.327 . S
C359 H382 0.950 . S
C360 C359 1.349 . S
C360 C372 1.349 . S
C361 C359 1.327 . S
C361 C377 1.429 . S
C361 H383 0.950 . S
C362 H358 0.949 . S
C362 C370 1.574 . S
C362 C378 1.368 . S
H363 C371 0.950 . S
H364 C369 0.950 . S
H365 C370 0.949 . S
H366 C372 0.950 . S
H367 C373 0.950 . S
H368 C374 0.949 . S
C369 H364 0.950 . S
C369 C371 1.327 . S
C369 C375 1.429 . S
C370 C362 1.574 . S
C370 H365 0.949 . S
C370 C376 1.368 . S
C371 C355 1.349 . S
C371 H363 0.950 . S
C371 C369 1.327 . S
C372 C360 1.349 . S
C372 H366 0.950 . S
C372 C373 1.327 . S
C373 H367 0.950 . S
C373 C372 1.327 . S
C373 C377 1.429 . S
C374 C357 1.574 . S
C374 H368 0.949 . S
C374 C378 1.368 . S
C375 C356 1.429 . S
C375 C369 1.429 . S
C375 C376 1.523 . S
C376 C357 1.368 . S
C376 C370 1.368 . S
C376 C375 1.523 . S
C377 C361 1.429 . S
C377 C373 1.429 . S
C377 C378 1.523 . S
C378 C362 1.368 . S
C378 C374 1.368 . S
C378 C377 1.523 . S
H379 C354 0.950 . S
H380 C356 0.950 . S
H381 C357 0.949 . S
H382 C359 0.950 . S
H383 C361 0.950 . S
C384 C385 1.349 . S
C384 C386 1.327 . S
C384 H409 0.950 . S
C385 C384 1.349 . S
C385 C401 1.349 . S
C386 C384 1.327 . S
C386 C405 1.429 . S
C386 H410 0.950 . S
C387 C404 1.574 . S
C387 C406 1.368 . S
C387 H411 0.949 . S
H388 C392 0.949 . S
C389 C390 1.349 . S
C389 C391 1.327 . S
C389 H412 0.950 . S
C390 C389 1.349 . S
C390 C402 1.349 . S
C391 C389 1.327 . S
C391 C407 1.429 . S
C391 H413 0.950 . S
C392 H388 0.949 . S
C392 C400 1.574 . S
C392 C408 1.368 . S
H393 C401 0.950 . S
H394 C399 0.950 . S
H395 C400 0.949 . S
H396 C402 0.950 . S
H397 C403 0.950 . S
H398 C404 0.949 . S
C399 H394 0.950 . S
C399 C401 1.327 . S
C399 C405 1.429 . S
C400 C392 1.574 . S
C400 H395 0.949 . S
C400 C406 1.368 . S
C401 C385 1.349 . S
C401 H393 0.950 . S
C401 C399 1.327 . S
C402 C390 1.349 . S
C402 H396 0.950 . S
C402 C403 1.327 . S
C403 H397 0.950 . S
C403 C402 1.327 . S
C403 C407 1.429 . S
C404 C387 1.574 . S
C404 H398 0.949 . S
C404 C408 1.368 . S
C405 C386 1.429 . S
C405 C399 1.429 . S
C405 C406 1.523 . S
C406 C387 1.368 . S
C406 C400 1.368 . S
C406 C405 1.523 . S
C407 C391 1.429 . S
C407 C403 1.429 . S
C407 C408 1.523 . S
C408 C392 1.368 . S
C408 C404 1.368 . S
C408 C407 1.523 . S
H409 C384 0.950 . S
H410 C386 0.950 . S
H411 C387 0.949 . S
H412 C389 0.950 . S
H413 C391 0.950 . S
C414 C415 1.349 . S
C414 C416 1.327 . S
C414 H439 0.950 . S
C415 C414 1.349 . S
C415 C431 1.349 . S
C416 C414 1.327 . S
C416 C435 1.429 . S
C416 H440 0.950 . S
C417 C434 1.574 . S
C417 C436 1.368 . S
C417 H441 0.949 . S
H418 C422 0.949 . S
C419 C420 1.349 . S
C419 C421 1.327 . S
C419 H442 0.950 . S
C420 C419 1.349 . S
C420 C432 1.349 . S
C421 C419 1.327 . S
C421 C437 1.429 . S
C421 H443 0.950 . S
C422 H418 0.949 . S
C422 C430 1.574 . S
C422 C438 1.368 . S
H423 C431 0.950 . S
H424 C429 0.950 . S
H425 C430 0.949 . S
H426 C432 0.950 . S
H427 C433 0.950 . S
H428 C434 0.949 . S
C429 H424 0.950 . S
C429 C431 1.327 . S
C429 C435 1.429 . S
C430 C422 1.574 . S
C430 H425 0.949 . S
C430 C436 1.368 . S
C431 C415 1.349 . S
C431 H423 0.950 . S
C431 C429 1.327 . S
C432 C420 1.349 . S
C432 H426 0.950 . S
C432 C433 1.327 . S
C433 H427 0.950 . S
C433 C432 1.327 . S
C433 C437 1.429 . S
C434 C417 1.574 . S
C434 H428 0.949 . S
C434 C438 1.368 . S
C435 C416 1.429 . S
C435 C429 1.429 . S
C435 C436 1.523 . S
C436 C417 1.368 . S
C436 C430 1.368 . S
C436 C435 1.523 . S
C437 C421 1.429 . S
C437 C433 1.429 . S
C437 C438 1.523 . S
C438 C422 1.368 . S
C438 C434 1.368 . S
C438 C437 1.523 . S
H439 C414 0.950 . S
H440 C416 0.950 . S
H441 C417 0.949 . S
H442 C419 0.950 . S
H443 C421 0.950 . S
C444 C445 1.349 . S
C444 C446 1.327 . S
C444 H469 0.950 . S
C445 C444 1.349 . S
C445 C461 1.349 . S
C446 C444 1.327 . S
C446 C465 1.429 . S
C446 H470 0.950 . S
C447 C464 1.574 . S
C447 C466 1.368 . S
C447 H471 0.949 . S
H448 C452 0.949 . S
C449 C450 1.349 . S
C449 C451 1.327 . S
C449 H472 0.950 . S
C450 C449 1.349 . S
C450 C462 1.349 . S
C451 C449 1.327 . S
C451 C467 1.429 . S
C451 H473 0.950 . S
C452 H448 0.949 . S
C452 C460 1.574 . S
C452 C468 1.368 . S
H453 C461 0.950 . S
H454 C459 0.950 . S
H455 C460 0.949 . S
H456 C462 0.950 . S
H457 C463 0.950 . S
H458 C464 0.949 . S
C459 H454 0.950 . S
C459 C461 1.327 . S
C459 C465 1.429 . S
C460 C452 1.574 . S
C460 H455 0.949 . S
C460 C466 1.368 . S
C461 C445 1.349 . S
C461 H453 0.950 . S
C461 C459 1.327 . S
C462 C450 1.349 . S
C462 H456 0.950 . S
C462 C463 1.327 . S
C463 H457 0.950 . S
C463 C462 1.327 . S
C463 C467 1.429 . S
C464 C447 1.574 . S
C464 H458 0.949 . S
C464 C468 1.368 . S
C465 C446 1.429 . S
C465 C459 1.429 . S
C465 C466 1.523 . S
C466 C447 1.368 . S
C466 C460 1.368 . S
C466 C465 1.523 . S
C467 C451 1.429 . S
C467 C463 1.429 . S
C467 C468 1.523 . S
C468 C452 1.368 . S
C468 C464 1.368 . S
C468 C467 1.523 . S
H469 C444 0.950 . S
H470 C446 0.950 . S
H471 C447 0.949 . S
H472 C449 0.950 . S
H473 C451 0.950 . S
C474 C475 1.349 . S
C474 C476 1.327 . S
C474 H499 0.950 1_455 S
C475 C474 1.349 . S
C475 C491 1.349 . S
C476 C474 1.327 . S
C476 C495 1.429 . S
C476 H500 0.950 1_455 S
C477 C494 1.574 . S
C477 C496 1.368 . S
C477 H501 0.949 . S
H478 C482 0.918 1_656 S
C479 C480 1.349 . S
C479 C481 1.327 . S
C479 H502 0.950 . S
C480 C479 1.349 . S
C480 C492 1.349 . S
C481 C479 1.327 . S
C481 C497 1.429 . S
C481 H503 0.950 . S
C482 H478 0.918 1_454 S
C482 C490 1.574 . S
C482 C498 1.368 . S
H483 C491 0.950 . S
H484 C489 0.950 . S
H485 C490 0.949 1_655 S
H486 C492 0.950 1_655 S
H487 C493 0.950 1_655 S
H488 C494 0.949 . S
C489 H484 0.950 . S
C489 C491 1.327 . S
C489 C495 1.429 . S
C490 C482 1.574 . S
C490 H485 0.949 1_455 S
C490 C496 1.368 . S
C491 C475 1.349 . S
C491 H483 0.950 . S
C491 C489 1.327 . S
C492 C480 1.349 . S
C492 H486 0.950 1_455 S
C492 C493 1.327 . S
C493 H487 0.950 1_455 S
C493 C492 1.327 . S
C493 C497 1.429 . S
C494 C477 1.574 . S
C494 H488 0.949 . S
C494 C498 1.368 . S
C495 C476 1.429 . S
C495 C489 1.429 . S
C495 C496 1.523 . S
C496 C477 1.368 . S
C496 C490 1.368 . S
C496 C495 1.523 . S
C497 C481 1.429 . S
C497 C493 1.429 . S
C497 C498 1.523 1_556 S
C498 C482 1.368 . S
C498 C494 1.368 . S
C498 C497 1.523 1_554 S
H499 C474 0.950 1_655 S
H500 C476 0.950 1_655 S
H501 C477 0.949 . S
H502 C479 0.950 . S
H503 C481 0.950 . S
C504 C505 1.349 1_565 S
C504 C506 1.327 . S
C504 H529 0.950 . S
C505 C504 1.349 1_545 S
C505 C521 1.349 . S
C506 C504 1.327 . S
C506 C525 1.429 1_565 S
C506 H530 0.950 . S
C507 C524 1.574 . S
C507 C526 1.368 . S
C507 H531 0.949 . S
H508 C512 0.949 . S
C509 C510 1.349 . S
C509 C511 1.327 . S
C509 H532 0.950 . S
C510 C509 1.349 . S
C510 C522 1.349 1_545 S
C511 C509 1.327 . S
C511 C527 1.429 . S
C511 H533 0.950 . S
C512 H508 0.949 . S
C512 C520 1.574 . S
C512 C528 1.368 1_565 S
H513 C521 0.950 . S
H514 C519 0.950 . S
H515 C520 0.949 . S
H516 C522 0.950 . S
H517 C523 0.950 . S
H518 C524 0.949 . S
C519 H514 0.950 . S
C519 C521 1.327 . S
C519 C525 1.429 . S
C520 C512 1.574 . S
C520 H515 0.949 . S
C520 C526 1.368 1_565 S
C521 C505 1.349 . S
C521 H513 0.950 . S
C521 C519 1.327 . S
C522 C510 1.349 1_565 S
C522 H516 0.950 . S
C522 C523 1.327 . S
C523 H517 0.950 . S
C523 C522 1.327 . S
C523 C527 1.429 1_565 S
C524 C507 1.574 . S
C524 H518 0.949 . S
C524 C528 1.368 . S
C525 C506 1.429 1_545 S
C525 C519 1.429 . S
C525 C526 1.523 . S
C526 C507 1.368 . S
C526 C520 1.368 1_545 S
C526 C525 1.523 . S
C527 C511 1.429 . S
C527 C523 1.429 1_545 S
C527 C528 1.523 . S
C528 C512 1.368 1_545 S
C528 C524 1.368 . S
C528 C527 1.523 . S
H529 C504 0.950 . S
H530 C506 0.950 . S
H531 C507 0.949 . S
H532 C509 0.950 . S
H533 C511 0.950 . S
C534 C535 1.349 . S
C534 C536 1.327 . S
C534 H559 0.950 . S
C535 C534 1.349 . S
C535 C551 1.349 . S
C536 C534 1.327 . S
C536 C555 1.429 . S
C536 H560 0.950 . S
C537 C554 1.574 . S
C537 C556 1.368 . S
C537 H561 0.949 . S
H538 C542 0.949 . S
C539 C540 1.349 . S
C539 C541 1.327 . S
C539 H562 0.950 . S
C540 C539 1.349 . S
C540 C552 1.349 . S
C541 C539 1.327 . S
C541 C557 1.429 . S
C541 H563 0.950 . S
C542 H538 0.949 . S
C542 C550 1.574 . S
C542 C558 1.368 . S
H543 C551 0.950 . S
H544 C549 0.950 . S
H545 C550 0.949 . S
H546 C552 0.950 . S
H547 C553 0.950 . S
H548 C554 0.949 . S
C549 H544 0.950 . S
C549 C551 1.327 . S
C549 C555 1.429 . S
C550 C542 1.574 . S
C550 H545 0.949 . S
C550 C556 1.368 . S
C551 C535 1.349 . S
C551 H543 0.950 . S
C551 C549 1.327 . S
C552 C540 1.349 . S
C552 H546 0.950 . S
C552 C553 1.327 . S
C553 H547 0.950 . S
C553 C552 1.327 . S
C553 C557 1.429 . S
C554 C537 1.574 . S
C554 H548 0.949 . S
C554 C558 1.368 . S
C555 C536 1.429 . S
C555 C549 1.429 . S
C555 C556 1.523 . S
C556 C537 1.368 . S
C556 C550 1.368 . S
C556 C555 1.523 . S
C557 C541 1.429 . S
C557 C553 1.429 . S
C557 C558 1.523 . S
C558 C542 1.368 . S
C558 C554 1.368 . S
C558 C557 1.523 . S
H559 C534 0.950 . S
H560 C536 0.950 . S
H561 C537 0.949 . S
H562 C539 0.950 . S
H563 C541 0.950 . S
C564 C565 1.349 . S
C564 C566 1.327 . S
C564 H589 0.950 . S
C565 C564 1.349 . S
C565 C581 1.349 . S
C566 C564 1.327 . S
C566 C585 1.429 . S
C566 H590 0.950 . S
C567 C584 1.574 . S
C567 C586 1.368 . S
C567 H591 0.949 1_545 S
H568 C572 0.949 . S
C569 C570 1.349 . S
C569 C571 1.327 . S
C569 H592 0.950 . S
C570 C569 1.349 . S
C570 C582 1.349 . S
C571 C569 1.327 . S
C571 C587 1.429 . S
C571 H593 0.950 . S
C572 H568 0.949 . S
C572 C580 1.574 . S
C572 C588 1.368 . S
H573 C581 0.950 1_565 S
H574 C579 0.950 1_565 S
H575 C580 0.949 . S
H576 C582 0.950 . S
H577 C583 0.950 . S
H578 C584 0.949 1_565 S
C579 H574 0.950 1_545 S
C579 C581 1.327 . S
C579 C585 1.429 . S
C580 C572 1.574 . S
C580 H575 0.949 . S
C580 C586 1.368 . S
C581 C565 1.349 . S
C581 H573 0.950 1_545 S
C581 C579 1.327 . S
C582 C570 1.349 . S
C582 H576 0.950 . S
C582 C583 1.327 . S
C583 H577 0.950 . S
C583 C582 1.327 . S
C583 C587 1.429 . S
C584 C567 1.574 . S
C584 H578 0.949 1_545 S
C584 C588 1.368 . S
C585 C566 1.429 . S
C585 C579 1.429 . S
C585 C586 1.523 . S
C586 C567 1.368 . S
C586 C580 1.368 . S
C586 C585 1.523 . S
C587 C571 1.429 . S
C587 C583 1.429 . S
C587 C588 1.523 . S
C588 C572 1.368 . S
C588 C584 1.368 . S
C588 C587 1.523 . S
H589 C564 0.950 . S
H590 C566 0.950 . S
H591 C567 0.949 1_565 S
H592 C569 0.950 . S
H593 C571 0.950 . S
C594 C595 1.349 . S
C594 C596 1.327 . S
C594 H619 0.950 . S
C595 C594 1.349 . S
C595 C611 1.349 . S
C596 C594 1.327 . S
C596 C615 1.429 . S
C596 H620 0.950 . S
C597 C614 1.574 . S
C597 C616 1.368 . S
C597 H621 0.949 . S
H598 C602 0.949 1_554 S
C599 C600 1.349 . S
C599 C601 1.327 . S
C599 H622 0.950 . S
C600 C599 1.349 . S
C600 C612 1.349 . S
C601 C599 1.327 . S
C601 C617 1.429 . S
C601 H623 0.950 . S
C602 H598 0.949 1_556 S
C602 C610 1.574 . S
C602 C618 1.368 1_556 S
H603 C611 0.950 . S
H604 C609 0.950 . S
H605 C610 0.949 . S
H606 C612 0.950 . S
H607 C613 0.950 . S
H608 C614 0.949 . S
C609 H604 0.950 . S
C609 C611 1.327 . S
C609 C615 1.429 . S
C610 C602 1.574 . S
C610 H605 0.949 . S
C610 C616 1.368 . S
C611 C595 1.349 . S
C611 H603 0.950 . S
C611 C609 1.327 . S
C612 C600 1.349 . S
C612 H606 0.950 . S
C612 C613 1.327 . S
C613 H607 0.950 . S
C613 C612 1.327 . S
C613 C617 1.429 . S
C614 C597 1.574 . S
C614 H608 0.949 . S
C614 C618 1.368 1_556 S
C615 C596 1.429 . S
C615 C609 1.429 . S
C615 C616 1.523 . S
C616 C597 1.368 . S
C616 C610 1.368 . S
C616 C615 1.523 . S
C617 C601 1.429 . S
C617 C613 1.429 . S
C617 C618 1.523 . S
C618 C602 1.368 1_554 S
C618 C614 1.368 1_554 S
C618 C617 1.523 . S
H619 C594 0.950 . S
H620 C596 0.950 . S
H621 C597 0.949 . S
H622 C599 0.950 . S
H623 C601 0.950 . S
C624 C625 1.349 . S
C624 C626 1.327 . S
C624 H649 0.950 . S
C625 C624 1.349 . S
C625 C641 1.349 . S
C626 C624 1.327 . S
C626 C645 1.429 . S
C626 H650 0.950 . S
C627 C644 1.574 . S
C627 C646 1.368 . S
C627 H651 0.949 . S
H628 C632 0.949 . S
C629 C630 1.349 . S
C629 C631 1.327 . S
C629 H652 0.950 . S
C630 C629 1.349 . S
C630 C642 1.349 . S
C631 C629 1.327 . S
C631 C647 1.429 . S
C631 H653 0.950 . S
C632 H628 0.949 . S
C632 C640 1.574 . S
C632 C648 1.368 . S
H633 C641 0.950 . S
H634 C639 0.950 . S
H635 C640 0.949 . S
H636 C642 0.950 . S
H637 C643 0.950 . S
H638 C644 0.949 . S
C639 H634 0.950 . S
C639 C641 1.327 . S
C639 C645 1.429 . S
C640 C632 1.574 . S
C640 H635 0.949 . S
C640 C646 1.368 . S
C641 C625 1.349 . S
C641 H633 0.950 . S
C641 C639 1.327 . S
C642 C630 1.349 . S
C642 H636 0.950 . S
C642 C643 1.327 . S
C643 H637 0.950 . S
C643 C642 1.327 . S
C643 C647 1.429 . S
C644 C627 1.574 . S
C644 H638 0.949 . S
C644 C648 1.368 . S
C645 C626 1.429 . S
C645 C639 1.429 . S
C645 C646 1.523 . S
C646 C627 1.368 . S
C646 C640 1.368 . S
C646 C645 1.523 . S
C647 C631 1.429 . S
C647 C643 1.429 . S
C647 C648 1.523 . S
C648 C632 1.368 . S
C648 C644 1.368 . S
C648 C647 1.523 . S
H649 C624 0.950 . S
H650 C626 0.950 . S
H651 C627 0.949 . S
H652 C629 0.950 . S
H653 C631 0.950 . S
C115 C2 0.976 . S
C120 C109 0.979 . S
C145 C21 0.920 . S
C150 C91 0.932 . S
C175 C42 0.959 . S
C180 C103 0.960 . S
C205 C1 0.904 . S
C210 C112 0.913 . S
C240 C94 0.960 . S
C235 C22 0.959 . S
C270 C100 0.931 . S
C265 C41 0.920 . S
C295 C38 1.732 . S
C300 C73 1.747 . S
C325 C59 1.818 . S
C330 C82 1.797 1_655 S
C355 C18 1.732 . S
C360 C64 1.747 . S
C390 C76 1.773 . S
C385 C39 1.800 . S
C420 C85 1.723 . S
C415 C58 1.715 . S
C445 C19 1.801 . S
C450 C67 1.773 . S
C480 C83 1.571 . S
C475 C9 1.508 . S
C505 C29 1.508 . S
C510 C65 1.571 . S
C535 C49 1.508 . S
C540 C74 1.570 . S
C570 C101 1.387 . S
C565 C28 1.357 . S
C600 C110 1.388 . S
C595 C48 1.357 . S
C625 C8 1.357 . S
C630 C92 1.387 . S
