# Generated by pormake.
# Topology rtl, (3,6)-cn, num edge types: 1
# Building blocks:
#     Node 0, Type 0, BuildingBlock: BETDIP_clean_linker_0, # of connection points: 3
#     Node 1, Type 0, BuildingBlock: BETDIP_clean_linker_0, # of connection points: 3
#     Node 2, Type 0, BuildingBlock: BETDIP_clean_linker_0, # of connection points: 3
#     Node 3, Type 0, BuildingBlock: BETDIP_clean_linker_0, # of connection points: 3
#     Node 4, Type 1, BuildingBlock: KUMBOL_clean_sbu_1, # of connection points: 6
#     Node 5, Type 1, BuildingBlock: KUMBOL_clean_sbu_1, # of connection points: 6
#     Edge 6, Type (0, 1), BuildingBlock: ZUJKAS_clean_linker_0, # of connection points: 2
#     Edge 7, Type (0, 1), BuildingBlock: ZUJKAS_clean_linker_0, # of connection points: 2
#     Edge 8, Type (0, 1), BuildingBlock: ZUJKAS_clean_linker_0, # of connection points: 2
#     Edge 9, Type (0, 1), BuildingBlock: ZUJKAS_clean_linker_0, # of connection points: 2
#     Edge 10, Type (0, 1), BuildingBlock: ZUJKAS_clean_linker_0, # of connection points: 2
#     Edge 11, Type (0, 1), BuildingBlock: ZUJKAS_clean_linker_0, # of connection points: 2
#     Edge 12, Type (0, 1), BuildingBlock: ZUJKAS_clean_linker_0, # of connection points: 2
#     Edge 13, Type (0, 1), BuildingBlock: ZUJKAS_clean_linker_0, # of connection points: 2
#     Edge 14, Type (0, 1), BuildingBlock: ZUJKAS_clean_linker_0, # of connection points: 2
#     Edge 15, Type (0, 1), BuildingBlock: ZUJKAS_clean_linker_0, # of connection points: 2
#     Edge 16, Type (0, 1), BuildingBlock: ZUJKAS_clean_linker_0, # of connection points: 2
#     Edge 17, Type (0, 1), BuildingBlock: ZUJKAS_clean_linker_0, # of connection points: 2
# Relax obj value: 0.051
# Max RMSD: 0.207
# Mean RMSD: 0.154
data_MOF--net-rtl--node1-KUMBOL_clean_sbu_1--node2-BETDIP_clean_linker_0--edge1-ZUJKAS_clean_linker_0
_symmetry_space_group_name_H-M    P1
_symmetry_Int_Tables_number       1
_symmetry_cell_setting            triclinic
loop_
_symmetry_equiv_pos_as_xyz
'x, y, z'
_cell_length_a     45.603064
_cell_length_b     45.581811
_cell_length_c     34.212107
_cell_angle_alpha  80.850147
_cell_angle_beta   99.913702
_cell_angle_gamma 91.179801
loop_
_atom_site_label
_atom_site_type_symbol
_atom_site_fract_x
_atom_site_fract_y
_atom_site_fract_z
_atom_type_partial_charge
H0 H 0.23114 0.83555 0.95886 0.0
H1 H 0.23158 0.8174 0.08622 0.0
H2 H 0.17113 0.88253 0.0115 0.0
H3 H 0.25508 0.77595 0.08357 0.0
C4 C 0.26582 0.7791 0.05728 0.0
C5 C 0.22229 0.83976 0.9849 0.0
C6 C 0.19961 0.86098 0.98049 0.0
C7 C 0.23374 0.82364 0.02261 0.0
C8 C 0.22276 0.82932 0.05677 0.0
C9 C 0.20003 0.85052 0.05293 0.0
C10 C 0.18869 0.86623 0.01469 0.0
N11 N 0.25628 0.8021 0.02455 0.0
H12 H 0.71294 0.71627 0.69021 0.0
H13 H 0.71736 0.71197 0.56677 0.0
H14 H 0.65886 0.65366 0.62851 0.0
H15 H 0.77175 0.71643 0.60369 0.0
C16 C 0.76567 0.73743 0.61152 0.0
C17 C 0.70541 0.70663 0.66327 0.0
C18 C 0.68452 0.68349 0.66368 0.0
C19 C 0.71793 0.7163 0.62876 0.0
C20 C 0.70839 0.70375 0.59375 0.0
C21 C 0.68657 0.68151 0.5931 0.0
C22 C 0.67516 0.6713 0.6284 0.0
N23 N 0.73997 0.73881 0.62954 0.0
H24 H 0.7836 0.19859 0.96936 0.0
H25 H 0.79402 0.1914 0.09804 0.0
H26 H 0.84659 0.13634 0.04611 0.0
H27 H 0.7466 0.20673 0.08382 0.0
C28 C 0.74579 0.22333 0.05711 0.0
C29 C 0.79422 0.18839 0.99908 0.0
C30 C 0.81599 0.16611 1.00348 0.0
C31 C 0.78547 0.19711 0.03293 0.0
C32 C 0.79962 0.18422 0.07157 0.0
C33 C 0.82131 0.16197 0.07641 0.0
C34 C 0.82922 0.15295 0.04232 0.0
N35 N 0.76289 0.21925 0.02727 0.0
H36 H 0.32459 0.30278 0.38486 0.0
H37 H 0.32146 0.30206 0.50986 0.0
H38 H 0.37832 0.36364 0.45046 0.0
H39 H 0.31477 0.25173 0.50683 0.0
C40 C 0.29774 0.25351 0.48009 0.0
C41 C 0.33224 0.31143 0.41255 0.0
C42 C 0.35253 0.33515 0.41315 0.0
C43 C 0.32162 0.29878 0.44758 0.0
C44 C 0.33078 0.3106 0.4833 0.0
C45 C 0.35099 0.33426 0.48456 0.0
C46 C 0.36195 0.34609 0.44943 0.0
N47 N 0.30096 0.27494 0.44598 0.0
C48 C 0.96149 0.09936 0.48654 0.0
C49 C 0.91233 0.08402 0.45759 0.0
C50 C 0.93945 0.07783 0.4844 0.0
C51 C 0.908 0.11169 0.43252 0.0
C52 C 0.95714 0.12723 0.46159 0.0
C53 C 0.93032 0.13324 0.43455 0.0
N54 N 0.9877 0.09256 0.51187 0.0
C55 C 0.01006 0.11283 0.51479 0.0
C56 C 0.98014 0.14805 0.46408 0.0
C57 C 1.00667 0.14084 0.49091 0.0
Gd58 Gd 0.03185 0.98165 0.50674 0.0
Gd59 Gd 0.99183 0.04489 0.54979 0.0
N60 N 0.9446 0.05087 0.50827 0.0
C61 C 0.89023 0.0623 0.457 0.0
C62 C 0.92214 0.03069 0.51006 0.0
C63 C 0.89497 0.03574 0.48388 0.0
H64 H 0.92442 0.0111 0.53241 0.0
H65 H 0.8775 0.01935 0.48495 0.0
H66 H 0.09965 0.00952 0.53901 0.0
H67 H 0.0304 0.10748 0.53586 0.0
H68 H 0.14448 0.99377 0.58828 0.0
H69 H 0.86912 0.06617 0.43682 0.0
H70 H 0.88739 0.1167 0.41156 0.0
H71 H 0.98736 0.92234 0.50646 0.0
H72 H 0.97767 0.1697 0.4454 0.0
H73 H 0.02451 0.15684 0.4932 0.0
H74 H 0.12482 0.89286 0.64147 0.0
H75 H 0.92665 0.15445 0.41496 0.0
H76 H 0.03115 0.851 0.59183 0.0
H77 H 0.98731 0.87073 0.54202 0.0
N78 N 0.03026 0.93192 0.53694 0.0
C79 C 0.0549 0.92135 0.56344 0.0
C80 C 1.00634 0.91409 0.52871 0.0
C81 C 0.03123 0.87369 0.57646 0.0
C82 C 1.00639 0.88477 0.54847 0.0
C83 C 0.05592 0.89197 0.58421 0.0
H84 H 0.08245 0.85943 0.62863 0.0
N85 N 0.07673 0.96891 0.55132 0.0
C86 C 0.07887 0.94029 0.5707 0.0
C87 C 0.128 0.94986 0.60561 0.0
C88 C 0.10439 0.93018 0.59886 0.0
C89 C 0.10028 0.98768 0.55638 0.0
C90 C 0.12605 0.97861 0.58394 0.0
O91 O 0.99625 0.05137 0.48398 0.0
O92 O 0.9909 1.00436 0.46853 0.0
O93 O 0.06032 0.98846 0.46137 0.0
O94 O 0.0323 0.9497 0.46605 0.0
O95 O 0.97617 0.997 0.56156 0.0
O96 O 0.98233 0.97813 0.50483 0.0
O97 O 0.03117 0.97579 0.57354 0.0
O98 O 0.03284 0.02305 0.58919 0.0
O99 O 0.96322 0.04258 0.59475 0.0
O100 O 0.99426 0.07865 0.58853 0.0
O101 O 0.05105 0.02831 0.49923 0.0
O102 O 0.04125 0.05132 0.55159 0.0
C103 C 0.98733 0.03319 0.45835 0.0
C104 C 0.97004 0.97727 0.53703 0.0
C105 C 0.04258 0.96905 0.40199 0.0
C106 C 0.05321 0.96021 0.33725 0.0
C107 C 0.00915 0.98841 0.34063 0.0
C108 C 0.01679 0.98485 0.38238 0.0
C109 C 0.02715 0.97614 0.31813 0.0
C110 C 0.06076 0.95687 0.37943 0.0
C111 C 0.05075 0.96496 0.44592 0.0
C112 C 0.10545 0.90094 0.6196 0.0
C113 C 0.08131 0.8819 0.61228 0.0
H114 H 0.14794 0.94297 0.62709 0.0
C115 C 0.03873 0.99452 0.59884 0.0
C116 C 0.05638 0.04896 0.52262 0.0
C117 C 0.98355 0.06167 0.65326 0.0
C118 C 0.97182 0.06708 0.71873 0.0
C119 C 0.01748 0.0421 0.71415 0.0
C120 C 0.01008 0.04689 0.67234 0.0
C121 C 0.99848 0.05204 0.73729 0.0
C122 C 0.96453 0.07185 0.6765 0.0
C123 C 0.97499 0.06564 0.60932 0.0
H124 H 0.98912 1.00054 0.32568 0.0
H125 H 1.00257 0.99429 0.39937 0.0
H126 H 0.02038 0.97876 0.28583 0.0
H127 H 0.08091 0.94504 0.3948 0.0
H128 H 0.038 0.03066 0.72865 0.0
H129 H 0.02499 0.03903 0.65493 0.0
H130 H 1.00483 0.04831 0.76969 0.0
H131 H 0.94386 0.08298 0.66172 0.0
C132 C 0.60539 0.54513 0.04338 0.0
C133 C 0.60417 0.59823 0.01958 0.0
C134 C 0.59076 0.57225 0.03651 0.0
C135 C 0.63195 0.59623 0.00771 0.0
C136 C 0.63397 0.54327 0.03339 0.0
C137 C 0.6468 0.56879 0.01456 0.0
N138 N 0.59265 0.52107 0.06257 0.0
C139 C 0.6088 0.49553 0.0767 0.0
C140 C 0.64931 0.51613 0.04421 0.0
C141 C 0.6369 0.49232 0.0667 0.0
Gd142 Gd 0.48296 0.49524 0.99233 0.0
Gd143 Gd 0.5442 0.5283 0.07496 0.0
N144 N 0.56375 0.57338 0.04775 0.0
C145 C 0.58949 0.62549 0.01586 0.0
C146 C 0.55002 0.59997 0.04626 0.0
C147 C 0.56249 0.6264 0.02981 0.0
H148 H 0.52913 0.60057 0.05702 0.0
H149 H 0.55126 0.64741 0.02778 0.0
H150 H 0.51696 0.43556 0.97149 0.0
H151 H 0.60028 0.47762 0.09618 0.0
H152 H 0.51781 0.38117 0.99188 0.0
H153 H 0.59906 0.64596 1.00301 0.0
H154 H 0.64244 0.61586 0.99407 0.0
H155 H 0.41768 0.51895 0.00597 0.0
H156 H 0.67128 0.51375 0.03701 0.0
H157 H 0.64919 0.47168 0.07699 0.0
H158 H 0.43629 0.3625 0.06434 0.0
H159 H 0.6686 0.56772 0.00628 0.0
H160 H 0.37256 0.44516 0.06342 0.0
H161 H 0.374 0.49866 0.03547 0.0
N162 N 0.44035 0.47745 0.01785 0.0
C163 C 0.43914 0.44779 0.03058 0.0
C164 C 0.41689 0.49557 0.01786 0.0
C165 C 0.39156 0.45394 0.05033 0.0
C166 C 0.39227 0.48415 0.03454 0.0
C167 C 0.41498 0.43525 0.04795 0.0
H168 H 0.39653 0.39444 0.07532 0.0
N169 N 0.48308 0.4428 1.00468 0.0
C170 C 0.46152 0.42994 0.02441 0.0
C171 C 0.48163 0.38125 0.02494 0.0
C172 C 0.46036 0.39885 0.03548 0.0
C173 C 0.50198 0.42556 0.99095 0.0
C174 C 0.50214 0.39465 1.00181 0.0
O175 O 0.53232 0.55129 0.0102 0.0
O176 O 0.52588 0.51308 0.97403 0.0
O177 O 0.46283 0.47797 0.93749 0.0
O178 O 0.45985 0.52522 0.94147 0.0
O179 O 0.4982 0.5485 0.06564 0.0
O180 O 0.47369 0.54207 1.00183 0.0
O181 O 0.47501 0.49541 0.05601 0.0
O182 O 0.52087 0.48569 0.0947 0.0
O183 O 0.53257 0.54715 0.12465 0.0
O184 O 0.57699 0.53027 0.12878 0.0
O185 O 0.531 0.47974 1.00149 0.0
O186 O 0.54769 0.47965 0.06899 0.0
C187 C 0.53617 0.53957 0.97883 0.0
C188 C 0.47737 0.55566 0.0337 0.0
C189 C 0.43569 0.51043 0.87884 0.0
C190 C 0.41799 0.49625 0.81281 0.0
C191 C 0.40393 0.54405 0.8274 0.0
C192 C 0.42037 0.53762 0.86605 0.0
C193 C 0.40272 0.52359 0.80093 0.0
C194 C 0.43428 0.48967 0.85215 0.0
C195 C 0.45308 0.50422 0.91989 0.0
C196 C 0.43733 0.38631 0.0551 0.0
C197 C 0.41465 0.40448 0.06128 0.0
H198 H 0.48156 0.35727 0.03292 0.0
C199 C 0.49185 0.48254 0.08906 0.0
C200 C 0.5479 0.46871 0.03566 0.0
C201 C 0.55811 0.528 0.18907 0.0
C202 C 0.5697 0.53146 0.26052 0.0
C203 C 0.54394 0.48822 0.2381 0.0
C204 C 0.54489 0.50028 0.19818 0.0
C205 C 0.55614 0.50372 0.26914 0.0
C206 C 0.57059 0.54342 0.22021 0.0
C207 C 0.55843 0.54155 0.14727 0.0
H208 H 0.39206 0.56499 0.81791 0.0
H209 H 0.42094 0.55393 0.88601 0.0
H210 H 0.38953 0.52908 0.7712 0.0
H211 H 0.44633 0.46879 0.86165 0.0
H212 H 0.53371 0.46682 0.245 0.0
H213 H 0.53526 0.4881 0.17448 0.0
H214 H 0.55531 0.49385 0.29989 0.0
H215 H 0.5805 0.565 0.21295 0.0
H216 H 0.29034 0.20833 0.53879 0.0
H217 H 0.24861 0.17385 0.54128 0.0
H218 H 0.20604 0.21699 0.42448 0.0
H219 H 0.24788 0.25171 0.42182 0.0
H220 H 0.16806 0.20684 0.4845 0.0
H221 H 0.22937 0.10491 0.47553 0.0
H222 H 0.24718 0.12569 0.51337 0.0
H223 H 0.24311 0.14183 0.46124 0.0
C224 C 0.27217 0.21033 0.51351 0.0
C225 C 0.27245 0.23254 0.48004 0.0
C226 C 0.24841 0.19056 0.51491 0.0
C227 C 0.22442 0.1926 0.48285 0.0
C228 C 0.22446 0.21494 0.44943 0.0
H229 H 0.08637 0.05787 0.45899 0.0
H230 H 0.12601 0.09346 0.44748 0.0
C231 C 0.24838 0.23469 0.4479 0.0
C232 C 0.19907 0.17175 0.485 0.0
H233 H 0.18168 0.09798 0.49494 0.0
C234 C 0.17094 0.18306 0.48646 0.0
C235 C 0.20281 0.14077 0.48715 0.0
C236 C 0.23216 0.12751 0.48388 0.0
C237 C 0.14667 0.16408 0.49129 0.0
C238 C 0.15076 0.13299 0.49518 0.0
C239 C 0.17865 0.12179 0.49241 0.0
C240 C 0.12643 0.11165 0.50223 0.0
C241 C 0.11682 0.17747 0.49198 0.0
C242 C 0.11379 0.10971 0.53718 0.0
C243 C 0.09117 0.08928 0.54398 0.0
C244 C 0.08073 0.07035 0.51594 0.0
C245 C 0.09377 0.07211 0.48122 0.0
C246 C 0.11642 0.09248 0.47452 0.0
H247 H 0.11542 0.20132 0.47832 0.0
H248 H 0.09847 0.16536 0.4757 0.0
H249 H 0.11343 0.17586 0.5236 0.0
H250 H 0.12164 0.1238 0.55944 0.0
H251 H 0.08198 0.08825 0.57132 0.0
H252 H 0.29784 0.77853 0.99631 0.0
H253 H 0.3338 0.74092 0.99094 0.0
H254 H 0.321 0.69254 0.10569 0.0
H255 H 0.28471 0.73004 0.11113 0.0
H256 H 0.38721 0.72219 0.04322 0.0
H257 H 0.30658 0.62984 0.02982 0.0
H258 H 0.29507 0.66825 0.02299 0.0
H259 H 0.30629 0.64797 0.07271 0.0
C260 C 0.30262 0.75988 0.02041 0.0
C261 C 0.28833 0.75706 0.0541 0.0
C262 C 0.32321 0.73844 0.01729 0.0
C263 C 0.32971 0.71375 0.04762 0.0
C264 C 0.31587 0.71116 0.0816 0.0
H265 H 0.47785 0.59058 0.09199 0.0
H266 H 0.4424 0.62952 0.09373 0.0
C267 C 0.2953 0.73263 0.08479 0.0
C268 C 0.35123 0.69088 0.04382 0.0
H269 H 0.35778 0.61731 0.03783 0.0
C270 C 0.3808 0.69927 0.04193 0.0
C271 C 0.34265 0.66112 0.04156 0.0
C272 C 0.31087 0.6512 0.04149 0.0
C273 C 0.40222 0.67849 0.03871 0.0
C274 C 0.39386 0.64852 0.03782 0.0
C275 C 0.36415 0.64027 0.03884 0.0
C276 C 0.41567 0.62529 0.03622 0.0
C277 C 0.43353 0.68884 0.03584 0.0
C278 C 0.4121 0.60965 1.00358 0.0
C279 C 0.4323 0.58726 1.00246 0.0
C280 C 0.45632 0.5799 0.03422 0.0
C281 C 0.45972 0.59565 0.06692 0.0
C282 C 0.43956 0.61807 0.06792 0.0
H283 H 0.43446 0.71329 0.02661 0.0
H284 H 0.44785 0.68306 0.0657 0.0
H285 H 0.44292 0.67776 0.01404 0.0
H286 H 0.39369 0.61483 0.97891 0.0
H287 H 0.42891 0.57561 0.97683 0.0
H288 H 0.8246 0.7348 0.61011 0.0
H289 H 0.85927 0.77603 0.60159 0.0
H290 H 0.78726 0.83839 0.59121 0.0
H291 H 0.75307 0.79697 0.60268 0.0
H292 H 0.86318 0.81568 0.54301 0.0
H293 H 0.84614 0.87526 0.666 0.0
H294 H 0.83067 0.83904 0.66134 0.0
H295 H 0.81187 0.87199 0.63251 0.0
C296 C 0.81636 0.75735 0.60669 0.0
C297 C 0.78633 0.76276 0.60755 0.0
C298 C 0.83613 0.78094 0.60166 0.0
C299 C 0.82618 0.81054 0.59642 0.0
C300 C 0.79591 0.81591 0.59664 0.0
H301 H 0.9283 0.95429 0.48345 0.0
H302 H 0.89278 0.9147 0.49777 0.0
C303 C 0.77627 0.79222 0.60286 0.0
C304 C 0.84724 0.83548 0.58867 0.0
H305 H 0.87177 0.90183 0.61617 0.0
C306 C 0.86518 0.83436 0.55936 0.0
C307 C 0.85039 0.85979 0.61024 0.0
C308 C 0.83397 0.86145 0.64456 0.0
C309 C 0.88593 0.85667 0.55094 0.0
C310 C 0.88783 0.8818 0.57085 0.0
C311 C 0.87009 0.88286 0.60039 0.0
C312 C 0.90844 0.90691 0.56209 0.0
C313 C 0.9062 0.85241 0.5217 0.0
C314 C 0.92809 0.91697 0.59354 0.0
C315 C 0.94769 0.9403 0.58544 0.0
C316 C 0.94835 0.95367 0.54572 0.0
C317 C 0.92849 0.94398 0.5143 0.0
C318 C 0.90838 0.92117 0.52247 0.0
H319 H 0.90901 0.82849 0.52011 0.0
H320 H 0.89622 0.86354 0.4912 0.0
H321 H 0.92855 0.86195 0.53016 0.0
H322 H 0.92856 0.90651 0.62437 0.0
H323 H 0.96288 0.94737 0.61016 0.0
H324 H 0.73281 0.26829 0.99238 0.0
H325 H 0.69994 0.31132 0.98674 0.0
H326 H 0.68141 0.28006 0.10568 0.0
H327 H 0.71409 0.23707 0.11148 0.0
H328 H 0.63677 0.30992 0.99633 0.0
H329 H 0.70949 0.36793 0.10722 0.0
H330 H 0.72336 0.33974 0.08334 0.0
H331 H 0.70306 0.32928 0.12392 0.0
C332 C 0.72176 0.27063 0.01732 0.0
C333 C 0.72602 0.24942 0.05248 0.0
C334 C 0.70301 0.29518 0.01404 0.0
C335 C 0.68859 0.29899 0.046 0.0
C336 C 0.69269 0.27772 0.08094 0.0
H337 H 0.56849 0.42563 0.0988 0.0
H338 H 0.60257 0.38454 0.09972 0.0
C339 C 0.71123 0.25315 0.08413 0.0
C340 C 0.66876 0.32489 0.04281 0.0
H341 H 0.66035 0.38672 0.08463 0.0
C342 C 0.64197 0.32689 0.01533 0.0
C343 C 0.67563 0.34681 0.06786 0.0
C344 C 0.70455 0.34611 0.09707 0.0
C345 C 0.62138 0.34987 0.01302 0.0
C346 C 0.62818 0.37175 0.03825 0.0
C347 C 0.65518 0.3699 0.06538 0.0
C348 C 0.60743 0.39656 0.03737 0.0
C349 C 0.59214 0.34997 0.98457 0.0
C350 C 0.59916 0.41711 1.00216 0.0
C351 C 0.57967 0.44049 1.00156 0.0
C352 C 0.56837 0.44389 0.03629 0.0
C353 C 0.57694 0.42353 0.07165 0.0
C354 C 0.59635 0.40009 0.07218 0.0
H355 H 0.58718 0.32786 0.97534 0.0
H356 H 0.5735 0.35654 0.99846 0.0
H357 H 0.5932 0.36627 0.95707 0.0
H358 H 0.60799 0.41522 0.97523 0.0
H359 H 0.57371 0.45612 0.97406 0.0
H360 H 0.23059 0.8569 0.12755 0.0
H361 H 0.21016 0.86992 0.18438 0.0
H362 H 0.1217 0.872 0.11462 0.0
H363 H 0.14171 0.85787 0.05861 0.0
H364 H 0.18059 0.92019 0.18648 0.0
H365 H 0.10835 0.82387 0.21936 0.0
H366 H 0.13641 0.82347 0.18812 0.0
H367 H 0.10042 0.83999 0.16731 0.0
C368 C 0.20673 0.85948 0.1247 0.0
C369 C 0.18778 0.85643 0.08852 0.0
C370 C 0.19511 0.8671 0.15708 0.0
C371 C 0.16435 0.87154 0.15397 0.0
C372 C 0.14541 0.86806 0.1181 0.0
H373 H 0.06763 0.98412 0.26434 0.0
H374 H 0.0971 0.96146 0.22381 0.0
C375 C 0.15696 0.86038 0.08586 0.0
C376 C 0.15205 0.88192 0.18685 0.0
H377 H 0.09665 0.86873 0.24282 0.0
C378 C 0.16254 0.9087 0.19927 0.0
C379 C 0.12887 0.86669 0.20411 0.0
C380 C 0.11809 0.83675 0.19434 0.0
C381 C 0.14944 0.92144 0.2269 0.0
C382 C 0.12472 0.90736 0.24173 0.0
C383 C 0.11528 0.87979 0.23095 0.0
C384 C 0.10755 0.92138 0.26706 0.0
C385 C 0.16216 0.94991 0.23974 0.0
C386 C 0.10283 0.90606 0.30439 0.0
C387 C 0.08542 0.91871 0.32732 0.0
C388 C 0.07228 0.94695 0.31331 0.0
C389 C 0.07714 0.96224 0.27591 0.0
C390 C 0.0944 0.9495 0.25294 0.0
H391 H 0.18604 0.95222 0.23687 0.0
H392 H 0.14996 0.96908 0.22003 0.0
H393 H 0.16002 0.95102 0.27131 0.0
H394 H 0.1125 0.88419 0.31569 0.0
H395 H 0.08177 0.90608 0.35564 0.0
H396 H 0.67854 0.62524 0.69475 0.0
H397 H 0.65518 0.60473 0.7522 0.0
H398 H 0.64071 0.69328 0.77467 0.0
H399 H 0.66368 0.71411 0.71644 0.0
H400 H 0.66988 0.61192 0.83446 0.0
H401 H 0.55679 0.65552 0.76387 0.0
H402 H 0.58635 0.65402 0.73526 0.0
H403 H 0.5863 0.6823 0.76626 0.0
C404 C 0.67033 0.64039 0.71184 0.0
C405 C 0.6726 0.67132 0.70075 0.0
C406 C 0.65714 0.62862 0.74479 0.0
C407 C 0.64581 0.64747 0.76731 0.0
C408 C 0.64891 0.67836 0.75727 0.0
H409 H 0.53896 0.59969 0.95735 0.0
H410 H 0.56743 0.62726 0.90904 0.0
C411 C 0.66225 0.69021 0.72426 0.0
C412 C 0.63028 0.63447 0.80069 0.0
H413 H 0.56175 0.62741 0.82859 0.0
C414 C 0.64627 0.61544 0.83334 0.0
C415 C 0.5995 0.63912 0.79915 0.0
C416 C 0.58105 0.65866 0.76419 0.0
C417 C 0.63228 0.60075 0.86439 0.0
C418 C 0.6013 0.6047 0.86229 0.0
C419 C 0.58547 0.62433 0.83013 0.0
C420 C 0.5847 0.58799 0.89239 0.0
C421 C 0.65089 0.58129 0.89924 0.0
C422 C 0.58456 0.55676 0.89872 0.0
C423 C 0.56858 0.54103 0.9266 0.0
C424 C 0.55233 0.55624 0.94856 0.0
C425 C 0.55187 0.58745 0.94151 0.0
C426 C 0.56795 0.60319 0.91374 0.0
H427 H 0.67465 0.588 0.90299 0.0
H428 H 0.64264 0.58213 0.92769 0.0
H429 H 0.64974 0.55795 0.89359 0.0
H430 H 0.59666 0.54453 0.88186 0.0
H431 H 0.5692 0.51696 0.9313 0.0
H432 H 0.82995 0.103 0.10556 0.0
H433 H 0.85601 0.0804 0.17184 0.0
H434 H 0.8733 0.16758 0.20434 0.0
H435 H 0.84658 0.19019 0.13846 0.0
H436 H 0.91272 0.08553 0.2045 0.0
H437 H 0.84195 0.12639 0.30114 0.0
H438 H 0.83065 0.12919 0.24747 0.0
H439 H 0.85573 0.15601 0.26817 0.0
C440 C 0.83915 0.11729 0.12702 0.0
C441 C 0.83616 0.14832 0.11704 0.0
C442 C 0.85397 0.10438 0.16485 0.0
C443 C 0.86619 0.12226 0.19334 0.0
C444 C 0.86332 0.15329 0.18333 0.0
H445 H 0.9896 0.08935 0.41754 0.0
H446 H 0.95932 0.11048 0.35331 0.0
C447 C 0.84818 0.1662 0.14565 0.0
C448 C 0.88325 0.10845 0.23266 0.0
H449 H 0.88899 0.10519 0.3342 0.0
C450 C 0.90734 0.08965 0.23282 0.0
C451 C 0.87617 0.11374 0.26967 0.0
C452 C 0.84953 0.13218 0.27171 0.0
C453 C 0.92486 0.07652 0.26893 0.0
C454 C 0.91815 0.08241 0.30568 0.0
C455 C 0.89405 0.10097 0.30574 0.0
C456 C 0.93615 0.06957 0.34444 0.0
C457 C 0.95067 0.05669 0.26775 0.0
C458 C 0.93292 0.03966 0.3605 0.0
C459 C 0.94984 0.02765 0.39741 0.0
C460 C 0.97032 0.0454 0.4186 0.0
C461 C 0.97372 0.07528 0.40208 0.0
C462 C 0.95657 0.08734 0.36541 0.0
H463 H 0.9552 0.05727 0.23675 0.0
H464 H 0.9711 0.06338 0.28694 0.0
H465 H 0.94563 0.03345 0.27996 0.0
H466 H 0.91713 0.02571 0.34463 0.0
H467 H 0.94661 1.00461 0.40958 0.0
H468 H 0.36366 0.30468 0.56219 0.0
H469 H 0.37871 0.32615 0.62386 0.0
H470 H 0.37525 0.41385 0.55404 0.0
H471 H 0.35944 0.39285 0.49246 0.0
H472 H 0.43034 0.39647 0.6157 0.0
H473 H 0.32313 0.37891 0.6733 0.0
H474 H 0.33903 0.34827 0.65654 0.0
H475 H 0.32516 0.38014 0.62079 0.0
C476 C 0.36576 0.32857 0.55995 0.0
C477 C 0.36033 0.34702 0.52226 0.0
C478 C 0.37449 0.34076 0.59521 0.0
C479 C 0.37798 0.37156 0.5934 0.0
C480 C 0.37277 0.39 0.55597 0.0
H481 H 0.42245 0.50879 0.73338 0.0
H482 H 0.41568 0.47512 0.68395 0.0
C483 C 0.36389 0.37791 0.52079 0.0
C484 C 0.38711 0.38486 0.63035 0.0
H485 H 0.36082 0.40408 0.71044 0.0
C486 C 0.41529 0.39791 0.63669 0.0
C487 C 0.36752 0.38637 0.65781 0.0
C488 C 0.33692 0.37284 0.65197 0.0
C489 C 0.42416 0.41315 0.66931 0.0
C490 C 0.40398 0.41606 0.69563 0.0
C491 C 0.37625 0.4019 0.69021 0.0
C492 C 0.41007 0.43581 0.72663 0.0
C493 C 0.45502 0.42612 0.67508 0.0
C494 C 0.40871 0.42506 0.76711 0.0
C495 C 0.41219 0.44445 0.79551 0.0
C496 C 0.41674 0.47498 0.78378 0.0
C497 C 0.41864 0.48548 0.74335 0.0
C498 C 0.41517 0.46616 0.7151 0.0
H499 H 0.47062 0.41361 0.6621 0.0
H500 H 0.45415 0.44942 0.65934 0.0
H501 H 0.46403 0.42607 0.70739 0.0
H502 H 0.40453 0.40176 0.7766 0.0
H503 H 0.41033 0.43573 0.82633 0.0
H504 H 0.62923 0.66753 0.56378 0.0
H505 H 0.61137 0.64312 0.50563 0.0
H506 H 0.70032 0.64289 0.47896 0.0
H507 H 0.71872 0.66664 0.53795 0.0
H508 H 0.64669 0.66348 0.41021 0.0
H509 H 0.63647 0.55293 0.50282 0.0
H510 H 0.62188 0.58454 0.51895 0.0
H511 H 0.66121 0.5813 0.52052 0.0
C512 C 0.64511 0.66213 0.54579 0.0
C513 C 0.67551 0.6687 0.55589 0.0
C514 C 0.6348 0.64834 0.51244 0.0
C515 C 0.65459 0.641 0.48836 0.0
C516 C 0.68475 0.64838 0.49734 0.0
H517 H 0.62334 0.55977 0.26995 0.0
H518 H 0.64473 0.5869 0.32427 0.0
C519 C 0.69517 0.66206 0.53092 0.0
C520 C 0.6437 0.62488 0.4545 0.0
H521 H 0.61736 0.55752 0.43349 0.0
C522 C 0.64045 0.64026 0.4151 0.0
C523 C 0.63545 0.5947 0.46124 0.0
C524 C 0.63903 0.57719 0.50311 0.0
C525 C 0.62837 0.62636 0.38212 0.0
C526 C 0.62006 0.59608 0.38884 0.0
C527 C 0.62369 0.5807 0.42835 0.0
C528 C 0.60711 0.57996 0.35551 0.0
C529 C 0.62369 0.64452 0.34061 0.0
C530 C 0.57924 0.56627 0.35557 0.0
C531 C 0.56714 0.55046 0.32484 0.0
C532 C 0.58267 0.54805 0.29337 0.0
C533 C 0.61065 0.56165 0.29346 0.0
C534 C 0.62284 0.57726 0.32439 0.0
H535 H 0.62324 0.66873 0.34176 0.0
H536 H 0.64232 0.64018 0.32524 0.0
H537 H 0.60257 0.63849 0.32228 0.0
H538 H 0.56674 0.56797 0.37934 0.0
H539 H 0.54544 0.54045 0.32541 0.0
H540 H 0.82597 0.10966 0.99138 0.0
H541 H 0.84866 0.09457 0.93787 0.0
H542 H 0.85083 0.18602 0.88171 0.0
H543 H 0.82847 0.20146 0.93565 0.0
H544 H 0.83165 0.13855 0.82804 0.0
H545 H 0.93915 0.11715 0.93323 0.0
H546 H 0.90671 0.10095 0.9512 0.0
H547 H 0.91034 0.14063 0.94209 0.0
C548 C 0.83113 0.12658 0.96755 0.0
C549 C 0.82582 0.1568 0.96804 0.0
C550 C 0.84397 0.1179 0.93697 0.0
C551 C 0.85171 0.13923 0.90624 0.0
C552 C 0.84501 0.16927 0.90529 0.0
H553 H 0.94402 0.12121 0.7071 0.0
H554 H 0.91332 0.13953 0.75035 0.0
C555 C 0.83216 0.17802 0.93601 0.0
C556 C 0.86859 0.13015 0.87685 0.0
H557 H 0.93591 0.10217 0.86968 0.0
C558 C 0.8545 0.13075 0.83691 0.0
C559 C 0.89835 0.12003 0.88872 0.0
C560 C 0.91473 0.11979 0.93105 0.0
C561 C 0.86923 0.12056 0.80868 0.0
C562 C 0.89896 0.11011 0.82069 0.0
C563 C 0.9131 0.11004 0.86054 0.0
C564 C 0.91589 0.09867 0.79287 0.0
C565 C 0.85254 0.12017 0.76667 0.0
C566 C 0.9279 0.06979 0.80266 0.0
C567 C 0.94565 0.05941 0.77826 0.0
C568 C 0.95178 0.07771 0.74353 0.0
C569 C 0.93936 0.10648 0.73338 0.0
C570 C 0.92173 0.11693 0.758 0.0
H571 H 0.82806 0.12134 0.76533 0.0
H572 H 0.85913 0.13972 0.74637 0.0
H573 H 0.8579 0.0998 0.75522 0.0
H574 H 0.92372 0.05533 0.82946 0.0
H575 H 0.95462 0.03704 0.78661 0.0
H576 H 0.35996 0.39412 0.38635 0.0
H577 H 0.38298 0.41646 0.3294 0.0
H578 H 0.39491 0.32955 0.29962 0.0
H579 H 0.37195 0.30692 0.3569 0.0
H580 H 0.44065 0.406 0.31817 0.0
H581 H 0.35712 0.37781 0.19128 0.0
H582 H 0.3491 0.3757 0.24153 0.0
H583 H 0.37063 0.34694 0.22931 0.0
C584 C 0.36742 0.37971 0.36767 0.0
C585 C 0.36425 0.34869 0.37635 0.0
C586 C 0.38049 0.39254 0.33504 0.0
C587 C 0.39053 0.37473 0.31009 0.0
C588 C 0.38689 0.34379 0.31806 0.0
H589 H 0.51562 0.4368 0.1468 0.0
H590 H 0.49182 0.4091 0.20039 0.0
C591 C 0.37374 0.33088 0.3508 0.0
C592 C 0.40603 0.38867 0.27702 0.0
H593 H 0.40142 0.40078 0.17493 0.0
C594 C 0.43212 0.40478 0.28686 0.0
C595 C 0.39474 0.38726 0.23616 0.0
C596 C 0.36623 0.37122 0.22371 0.0
C597 C 0.44718 0.41959 0.25701 0.0
C598 C 0.43608 0.41793 0.21619 0.0
C599 C 0.41002 0.40179 0.20629 0.0
C600 C 0.45045 0.43398 0.18328 0.0
C601 C 0.47439 0.4376 0.26932 0.0
C602 C 0.43497 0.45685 0.1556 0.0
C603 C 0.44857 0.47275 0.12523 0.0
C604 C 0.47774 0.46581 0.12155 0.0
C605 C 0.49316 0.44274 0.14908 0.0
C606 C 0.4796 0.42691 0.17965 0.0
H607 H 0.47617 0.44195 0.30068 0.0
H608 H 0.49461 0.42518 0.26732 0.0
H609 H 0.47406 0.45921 0.24898 0.0
H610 H 0.41251 0.46275 0.15792 0.0
H611 H 0.43638 0.4908 0.10499 0.0
H612 H 0.18494 0.83829 0.91034 0.0
H613 H 0.16085 0.86412 0.84486 0.0
H614 H 0.16 0.94551 0.89394 0.0
H615 H 0.18446 0.91995 0.95948 0.0
H616 H 0.10463 0.93055 0.85191 0.0
H617 H 0.19458 0.92548 0.7625 0.0
H618 H 0.18601 0.89029 0.78988 0.0
H619 H 0.20137 0.91943 0.81678 0.0
C620 C 0.18019 0.86183 0.90703 0.0
C621 C 0.18663 0.87707 0.94013 0.0
C622 C 0.16641 0.87654 0.86959 0.0
C623 C 0.15897 0.90678 0.86449 0.0
C624 C 0.16565 0.92217 0.89728 0.0
H625 H 0.07826 0.02463 0.64721 0.0
H626 H 0.10811 1.00462 0.7125 0.0
C627 C 0.17947 0.90749 0.93472 0.0
C628 C 0.14259 0.92187 0.82559 0.0
H629 H 0.14626 0.93967 0.7257 0.0
C630 C 0.11383 0.9328 0.82439 0.0
C631 C 0.15474 0.92486 0.78979 0.0
C632 C 0.18598 0.91465 0.78969 0.0
C633 C 0.09657 0.94589 0.78806 0.0
C634 C 0.10841 0.94805 0.75226 0.0
C635 C 0.13735 0.93778 0.75342 0.0
C636 C 0.09055 0.96016 0.71312 0.0
C637 C 0.0656 0.95701 0.7878 0.0
C638 C 0.07091 0.94166 0.6923 0.0
C639 C 0.05376 0.953 0.65534 0.0
C640 C 0.05607 0.98301 0.63864 0.0
C641 C 0.07579 1.00151 0.65965 0.0
C642 C 0.09296 0.99012 0.69668 0.0
H643 H 0.06031 0.95539 0.81858 0.0
H644 H 0.06317 0.98053 0.7729 0.0
H645 H 0.0491 0.94381 0.77017 0.0
H646 H 0.06887 0.91845 0.70468 0.0
H647 H 0.03867 0.93827 0.63986 0.0
loop_
_geom_bond_atom_site_label_1
_geom_bond_atom_site_label_2
_geom_bond_distance
_geom_bond_site_symmetry_2
_ccdc_geom_bond_type
H0 C5 0.930 . S
H1 C8 0.930 . S
H2 C10 0.930 . S
H3 C4 1.016 . S
C4 H3 1.016 . S
C4 N11 1.286 . S
C5 H0 0.930 . S
C5 C6 1.397 . S
C5 C7 1.361 1_556 S
C6 C5 1.397 . S
C6 C10 1.390 1_556 S
C7 C5 1.361 1_554 S
C7 C8 1.393 . S
C7 N11 1.413 . S
C8 H1 0.930 . S
C8 C7 1.393 . S
C8 C9 1.399 . S
C9 C8 1.399 . S
C9 C10 1.381 . S
C10 H2 0.930 . S
C10 C6 1.390 1_554 S
C10 C9 1.381 . S
N11 C4 1.286 . S
N11 C7 1.413 . S
H12 C17 0.930 . S
H13 C20 0.930 . S
H14 C22 0.930 . S
H15 C16 1.016 . S
C16 H15 1.016 . S
C16 N23 1.286 . S
C17 H12 0.930 . S
C17 C18 1.397 . S
C17 C19 1.361 . S
C18 C17 1.397 . S
C18 C22 1.390 . S
C19 C17 1.361 . S
C19 C20 1.393 . S
C19 N23 1.413 . S
C20 H13 0.930 . S
C20 C19 1.393 . S
C20 C21 1.399 . S
C21 C20 1.399 . S
C21 C22 1.381 . S
C22 H14 0.930 . S
C22 C18 1.390 . S
C22 C21 1.381 . S
N23 C16 1.286 . S
N23 C19 1.413 . S
H24 C29 0.930 . S
H25 C32 0.930 . S
H26 C34 0.930 . S
H27 C28 1.016 . S
C28 H27 1.016 . S
C28 N35 1.286 . S
C29 H24 0.930 . S
C29 C30 1.397 . S
C29 C31 1.361 1_556 S
C30 C29 1.397 . S
C30 C34 1.390 1_556 S
C31 C29 1.361 1_554 S
C31 C32 1.393 . S
C31 N35 1.413 . S
C32 H25 0.930 . S
C32 C31 1.393 . S
C32 C33 1.399 . S
C33 C32 1.399 . S
C33 C34 1.381 . S
C34 H26 0.930 . S
C34 C30 1.390 1_554 S
C34 C33 1.381 . S
N35 C28 1.286 . S
N35 C31 1.413 . S
H36 C41 0.930 . S
H37 C44 0.930 . S
H38 C46 0.930 . S
H39 C40 1.016 . S
C40 H39 1.016 . S
C40 N47 1.286 . S
C41 H36 0.930 . S
C41 C42 1.397 . S
C41 C43 1.361 . S
C42 C41 1.397 . S
C42 C46 1.390 . S
C43 C41 1.361 . S
C43 C44 1.393 . S
C43 N47 1.413 . S
C44 H37 0.930 . S
C44 C43 1.393 . S
C44 C45 1.399 . S
C45 C44 1.399 . S
C45 C46 1.381 . S
C46 H38 0.930 . S
C46 C42 1.390 . S
C46 C45 1.381 . S
N47 C40 1.286 . S
N47 C43 1.413 . S
C48 C50 1.422 . S
C48 C52 1.415 . S
C48 N54 1.369 . S
C49 C50 1.421 . S
C49 C51 1.417 . S
C49 C61 1.422 . S
C50 C48 1.422 . S
C50 C49 1.421 . S
C50 N60 1.359 . S
C51 C49 1.417 . S
C51 C53 1.329 . S
C51 H70 0.930 . S
C52 C48 1.415 . S
C52 C53 1.437 . S
C52 C56 1.413 . S
C53 C51 1.329 . S
C53 C52 1.437 . S
C53 H75 0.929 . S
N54 C48 1.369 . S
N54 C55 1.338 1_655 S
N54 Gd59 2.622 . S
C55 N54 1.338 1_455 S
C55 C57 1.378 . S
C55 H67 0.929 . S
C56 C52 1.413 . S
C56 C57 1.348 1_655 S
C56 H72 0.931 . S
C57 C55 1.378 . S
C57 C56 1.348 1_455 S
C57 H73 0.930 . S
Gd58 N78 2.622 . S
Gd58 N85 2.570 . S
Gd58 O92 2.353 1_465 S
Gd58 O93 2.468 . S
Gd58 O94 2.427 . S
Gd58 O96 2.388 1_455 S
Gd58 O97 2.386 . S
Gd58 O101 2.307 1_565 S
Gd58 C111 2.805 . S
Gd59 N54 2.622 . S
Gd59 N60 2.570 . S
Gd59 O91 2.386 . S
Gd59 O95 2.307 1_545 S
Gd59 O98 2.353 1_655 S
Gd59 O99 2.468 . S
Gd59 O100 2.427 . S
Gd59 O102 2.388 1_655 S
Gd59 C123 2.805 . S
N60 C50 1.359 . S
N60 Gd59 2.570 . S
N60 C62 1.343 . S
C61 C49 1.422 . S
C61 C63 1.321 . S
C61 H69 0.931 . S
C62 N60 1.343 . S
C62 C63 1.390 . S
C62 H64 0.931 . S
C63 C61 1.321 . S
C63 C62 1.390 . S
C63 H65 0.930 . S
H64 C62 0.931 . S
H65 C63 0.930 . S
H66 C89 0.931 . S
H67 C55 0.929 . S
H68 C90 0.930 . S
H69 C61 0.931 . S
H70 C51 0.930 . S
H71 C80 0.929 1_655 S
H72 C56 0.931 . S
H73 C57 0.930 . S
H74 C112 0.930 . S
H75 C53 0.929 . S
H76 C81 0.931 . S
H77 C82 0.930 1_655 S
N78 Gd58 2.622 . S
N78 C79 1.369 . S
N78 C80 1.338 . S
C79 N78 1.369 . S
C79 C83 1.415 . S
C79 C86 1.422 . S
C80 H71 0.929 1_455 S
C80 N78 1.338 . S
C80 C82 1.378 . S
C81 H76 0.931 . S
C81 C82 1.348 . S
C81 C83 1.413 . S
C82 H77 0.930 1_455 S
C82 C80 1.378 . S
C82 C81 1.348 . S
C83 C79 1.415 . S
C83 C81 1.413 . S
C83 C113 1.437 . S
H84 C113 0.929 . S
N85 Gd58 2.570 . S
N85 C86 1.359 . S
N85 C89 1.343 . S
C86 C79 1.422 . S
C86 N85 1.359 . S
C86 C88 1.421 . S
C87 C88 1.422 . S
C87 C90 1.321 . S
C87 H114 0.931 . S
C88 C86 1.421 . S
C88 C87 1.422 . S
C88 C112 1.417 . S
C89 H66 0.931 . S
C89 N85 1.343 . S
C89 C90 1.390 . S
C90 H68 0.930 . S
C90 C87 1.321 . S
C90 C89 1.390 . S
O91 Gd59 2.386 . S
O91 C103 1.265 . S
O92 Gd58 2.353 1_645 S
O92 C103 1.242 . S
O93 Gd58 2.468 . S
O93 C111 1.263 . S
O94 Gd58 2.427 . S
O94 C111 1.252 . S
O95 Gd59 2.307 1_565 S
O95 C104 1.261 . S
O96 Gd58 2.388 1_655 S
O96 C104 1.252 . S
O97 Gd58 2.386 . S
O97 C115 1.265 . S
O98 Gd59 2.353 1_455 S
O98 C115 1.242 1_545 S
O99 Gd59 2.468 . S
O99 C123 1.263 . S
O100 Gd59 2.427 . S
O100 C123 1.252 . S
O101 Gd58 2.307 1_545 S
O101 C116 1.261 . S
O102 Gd59 2.388 1_455 S
O102 C116 1.252 . S
C103 O91 1.265 . S
C103 O92 1.242 . S
C104 O95 1.261 . S
C104 O96 1.252 . S
C105 C108 1.394 . S
C105 C110 1.370 . S
C105 C111 1.500 . S
C106 C109 1.383 . S
C106 C110 1.395 . S
C107 C108 1.396 . S
C107 C109 1.365 . S
C107 H124 0.929 . S
C108 C105 1.394 . S
C108 C107 1.396 . S
C108 H125 0.930 . S
C109 C106 1.383 . S
C109 C107 1.365 . S
C109 H126 0.931 . S
C110 C105 1.370 . S
C110 C106 1.395 . S
C110 H127 0.930 . S
C111 Gd58 2.805 . S
C111 O93 1.263 . S
C111 O94 1.252 . S
C111 C105 1.500 . S
C112 H74 0.930 . S
C112 C88 1.417 . S
C112 C113 1.329 . S
C113 C83 1.437 . S
C113 H84 0.929 . S
C113 C112 1.329 . S
H114 C87 0.931 . S
C115 O97 1.265 . S
C115 O98 1.242 1_565 S
C116 O101 1.261 . S
C116 O102 1.252 . S
C117 C120 1.394 . S
C117 C122 1.370 . S
C117 C123 1.500 . S
C118 C121 1.383 . S
C118 C122 1.395 . S
C119 C120 1.396 . S
C119 C121 1.365 . S
C119 H128 0.929 . S
C120 C117 1.394 . S
C120 C119 1.396 . S
C120 H129 0.930 . S
C121 C118 1.383 . S
C121 C119 1.365 . S
C121 H130 0.931 . S
C122 C117 1.370 . S
C122 C118 1.395 . S
C122 H131 0.930 . S
C123 Gd59 2.805 . S
C123 O99 1.263 . S
C123 O100 1.252 . S
C123 C117 1.500 . S
H124 C107 0.929 . S
H125 C108 0.930 . S
H126 C109 0.931 . S
H127 C110 0.930 . S
H128 C119 0.929 . S
H129 C120 0.930 . S
H130 C121 0.931 . S
H131 C122 0.930 . S
C132 C134 1.422 . S
C132 C136 1.415 . S
C132 N138 1.369 . S
C133 C134 1.421 . S
C133 C135 1.417 . S
C133 C145 1.422 . S
C134 C132 1.422 . S
C134 C133 1.421 . S
C134 N144 1.359 . S
C135 C133 1.417 . S
C135 C137 1.329 . S
C135 H154 0.930 . S
C136 C132 1.415 . S
C136 C137 1.437 . S
C136 C140 1.413 . S
C137 C135 1.329 . S
C137 C136 1.437 . S
C137 H159 0.929 . S
N138 C132 1.369 . S
N138 C139 1.338 . S
N138 Gd143 2.622 . S
C139 N138 1.338 . S
C139 C141 1.378 . S
C139 H151 0.929 . S
C140 C136 1.413 . S
C140 C141 1.348 . S
C140 H156 0.931 . S
C141 C139 1.378 . S
C141 C140 1.348 . S
C141 H157 0.930 . S
Gd142 N162 2.625 . S
Gd142 N169 2.570 1_556 S
Gd142 O176 2.353 . S
Gd142 O177 2.468 . S
Gd142 O178 2.427 . S
Gd142 O180 2.388 1_556 S
Gd142 O181 2.386 1_556 S
Gd142 O185 2.307 1_556 S
Gd142 C195 2.805 . S
Gd143 N138 2.622 . S
Gd143 N144 2.570 . S
Gd143 O175 2.386 . S
Gd143 O179 2.307 . S
Gd143 O182 2.353 . S
Gd143 O183 2.468 . S
Gd143 O184 2.427 . S
Gd143 O186 2.388 . S
Gd143 C207 2.805 . S
N144 C134 1.359 . S
N144 Gd143 2.570 . S
N144 C146 1.343 . S
C145 C133 1.422 . S
C145 C147 1.321 . S
C145 H153 0.931 . S
C146 N144 1.343 . S
C146 C147 1.390 . S
C146 H148 0.931 . S
C147 C145 1.321 . S
C147 C146 1.390 . S
C147 H149 0.930 . S
H148 C146 0.931 . S
H149 C147 0.930 . S
H150 C173 0.931 . S
H151 C139 0.929 . S
H152 C174 0.930 . S
H153 C145 0.931 . S
H154 C135 0.930 . S
H155 C164 0.929 . S
H156 C140 0.931 . S
H157 C141 0.930 . S
H158 C196 0.930 . S
H159 C137 0.929 . S
H160 C165 0.931 . S
H161 C166 0.930 . S
N162 Gd142 2.625 . S
N162 C163 1.365 1_556 S
N162 C164 1.337 . S
C163 N162 1.365 1_554 S
C163 C167 1.415 . S
C163 C170 1.422 . S
C164 H155 0.929 . S
C164 N162 1.337 . S
C164 C166 1.378 . S
C165 H160 0.931 . S
C165 C166 1.348 1_554 S
C165 C167 1.413 . S
C166 H161 0.930 . S
C166 C164 1.378 . S
C166 C165 1.348 1_556 S
C167 C163 1.415 . S
C167 C165 1.413 . S
C167 C197 1.437 . S
H168 C197 0.929 . S
N169 Gd142 2.570 1_554 S
N169 C170 1.359 . S
N169 C173 1.343 . S
C170 C163 1.422 . S
C170 N169 1.359 . S
C170 C172 1.421 . S
C171 C172 1.422 . S
C171 C174 1.321 . S
C171 H198 0.931 . S
C172 C170 1.421 . S
C172 C171 1.422 . S
C172 C196 1.417 . S
C173 H150 0.931 . S
C173 N169 1.343 . S
C173 C174 1.390 . S
C174 H152 0.930 . S
C174 C171 1.321 . S
C174 C173 1.390 . S
O175 Gd143 2.386 . S
O175 C187 1.265 1_554 S
O176 Gd142 2.353 . S
O176 C187 1.242 . S
O177 Gd142 2.468 . S
O177 C195 1.263 . S
O178 Gd142 2.427 . S
O178 C195 1.252 . S
O179 Gd143 2.307 . S
O179 C188 1.261 . S
O180 Gd142 2.388 1_554 S
O180 C188 1.252 . S
O181 Gd142 2.386 1_554 S
O181 C199 1.265 . S
O182 Gd143 2.353 . S
O182 C199 1.242 . S
O183 Gd143 2.468 . S
O183 C207 1.263 . S
O184 Gd143 2.427 . S
O184 C207 1.252 . S
O185 Gd142 2.307 1_554 S
O185 C200 1.261 . S
O186 Gd143 2.388 . S
O186 C200 1.252 . S
C187 O175 1.265 1_556 S
C187 O176 1.242 . S
C188 O179 1.261 . S
C188 O180 1.252 . S
C189 C192 1.394 . S
C189 C194 1.370 . S
C189 C195 1.500 . S
C190 C193 1.383 . S
C190 C194 1.395 . S
C191 C192 1.396 . S
C191 C193 1.365 . S
C191 H208 0.929 . S
C192 C189 1.394 . S
C192 C191 1.396 . S
C192 H209 0.930 . S
C193 C190 1.383 . S
C193 C191 1.365 . S
C193 H210 0.931 . S
C194 C189 1.370 . S
C194 C190 1.395 . S
C194 H211 0.930 . S
C195 Gd142 2.805 . S
C195 O177 1.263 . S
C195 O178 1.252 . S
C195 C189 1.500 . S
C196 H158 0.930 . S
C196 C172 1.417 . S
C196 C197 1.329 . S
C197 C167 1.437 . S
C197 H168 0.929 . S
C197 C196 1.329 . S
H198 C171 0.931 . S
C199 O181 1.265 . S
C199 O182 1.242 . S
C200 O185 1.261 . S
C200 O186 1.252 . S
C201 C204 1.394 . S
C201 C206 1.370 . S
C201 C207 1.500 . S
C202 C205 1.383 . S
C202 C206 1.395 . S
C203 C204 1.396 . S
C203 C205 1.365 . S
C203 H212 0.929 . S
C204 C201 1.394 . S
C204 C203 1.396 . S
C204 H213 0.930 . S
C205 C202 1.383 . S
C205 C203 1.365 . S
C205 H214 0.931 . S
C206 C201 1.370 . S
C206 C202 1.395 . S
C206 H215 0.930 . S
C207 Gd143 2.805 . S
C207 O183 1.263 . S
C207 O184 1.252 . S
C207 C201 1.500 . S
H208 C191 0.929 . S
H209 C192 0.930 . S
H210 C193 0.931 . S
H211 C194 0.930 . S
H212 C203 0.929 . S
H213 C204 0.930 . S
H214 C205 0.931 . S
H215 C206 0.930 . S
H216 C224 0.929 . S
H217 C226 0.930 . S
H218 C228 0.930 . S
H219 C231 0.929 . S
H220 C234 0.930 . S
H221 C236 0.960 . S
H222 C236 0.960 . S
H223 C236 0.960 . S
C224 H216 0.929 . S
C224 C225 1.377 . S
C224 C226 1.384 . S
C225 C224 1.377 . S
C225 C231 1.390 . S
C226 H217 0.930 . S
C226 C224 1.384 . S
C226 C227 1.372 . S
C227 C226 1.372 . S
C227 C228 1.400 . S
C227 C232 1.490 . S
C228 H218 0.930 . S
C228 C227 1.400 . S
C228 C231 1.386 . S
H229 C245 0.930 . S
H230 C246 0.931 . S
C231 H219 0.929 . S
C231 C225 1.390 . S
C231 C228 1.386 . S
C232 C227 1.490 . S
C232 C234 1.395 . S
C232 C235 1.403 . S
H233 C239 0.930 . S
C234 H220 0.930 . S
C234 C232 1.395 . S
C234 C237 1.403 . S
C235 C232 1.403 . S
C235 C236 1.524 . S
C235 C239 1.400 . S
C236 H221 0.960 . S
C236 H222 0.960 . S
C236 H223 0.960 . S
C236 C235 1.524 . S
C237 C234 1.403 . S
C237 C238 1.392 . S
C237 C241 1.495 . S
C238 C237 1.392 . S
C238 C239 1.385 . S
C238 C240 1.478 . S
C239 H233 0.930 . S
C239 C235 1.400 . S
C239 C238 1.385 . S
C240 C238 1.478 . S
C240 C242 1.381 . S
C240 C246 1.383 . S
C241 C237 1.495 . S
C241 H247 0.959 . S
C241 H248 0.961 . S
C241 H249 0.960 . S
C242 C240 1.381 . S
C242 C243 1.394 . S
C242 H250 0.930 . S
C243 C242 1.394 . S
C243 C244 1.383 . S
C243 H251 0.929 . S
C244 C243 1.383 . S
C244 C245 1.377 . S
C245 H229 0.930 . S
C245 C244 1.377 . S
C245 C246 1.379 . S
C246 H230 0.931 . S
C246 C240 1.383 . S
C246 C245 1.379 . S
H247 C241 0.959 . S
H248 C241 0.961 . S
H249 C241 0.960 . S
H250 C242 0.930 . S
H251 C243 0.929 . S
H252 C260 0.929 . S
H253 C262 0.930 . S
H254 C264 0.930 . S
H255 C267 0.929 . S
H256 C270 0.930 . S
H257 C272 0.960 . S
H258 C272 0.960 1_556 S
H259 C272 0.960 . S
C260 H252 0.929 . S
C260 C261 1.377 . S
C260 C262 1.384 . S
C261 C260 1.377 . S
C261 C267 1.390 . S
C262 H253 0.930 . S
C262 C260 1.384 . S
C262 C263 1.372 . S
C263 C262 1.372 . S
C263 C264 1.400 . S
C263 C268 1.490 . S
C264 H254 0.930 . S
C264 C263 1.400 . S
C264 C267 1.386 . S
H265 C281 0.930 . S
H266 C282 0.931 . S
C267 H255 0.929 . S
C267 C261 1.390 . S
C267 C264 1.386 . S
C268 C263 1.490 . S
C268 C270 1.395 . S
C268 C271 1.403 . S
H269 C275 0.930 . S
C270 H256 0.930 . S
C270 C268 1.395 . S
C270 C273 1.403 . S
C271 C268 1.403 . S
C271 C272 1.524 . S
C271 C275 1.400 . S
C272 H257 0.960 . S
C272 H258 0.960 1_554 S
C272 H259 0.960 . S
C272 C271 1.524 . S
C273 C270 1.403 . S
C273 C274 1.392 . S
C273 C277 1.495 . S
C274 C273 1.392 . S
C274 C275 1.385 . S
C274 C276 1.478 . S
C275 H269 0.930 . S
C275 C271 1.400 . S
C275 C274 1.385 . S
C276 C274 1.478 . S
C276 C278 1.381 . S
C276 C282 1.383 . S
C277 C273 1.495 . S
C277 H283 0.959 . S
C277 H284 0.961 . S
C277 H285 0.960 . S
C278 C276 1.381 . S
C278 C279 1.394 . S
C278 H286 0.930 . S
C279 C278 1.394 . S
C279 C280 1.383 . S
C279 H287 0.929 1_554 S
C280 C279 1.383 . S
C280 C281 1.377 . S
C281 H265 0.930 . S
C281 C280 1.377 . S
C281 C282 1.379 . S
C282 H266 0.931 . S
C282 C276 1.383 . S
C282 C281 1.379 . S
H283 C277 0.959 . S
H284 C277 0.961 . S
H285 C277 0.960 . S
H286 C278 0.930 . S
H287 C279 0.929 1_556 S
H288 C296 0.929 . S
H289 C298 0.930 . S
H290 C300 0.930 . S
H291 C303 0.929 . S
H292 C306 0.930 . S
H293 C308 0.960 . S
H294 C308 0.960 . S
H295 C308 0.960 . S
C296 H288 0.929 . S
C296 C297 1.377 . S
C296 C298 1.384 . S
C297 C296 1.377 . S
C297 C303 1.390 . S
C298 H289 0.930 . S
C298 C296 1.384 . S
C298 C299 1.372 . S
C299 C298 1.372 . S
C299 C300 1.400 . S
C299 C304 1.490 . S
C300 H290 0.930 . S
C300 C299 1.400 . S
C300 C303 1.386 . S
H301 C317 0.930 . S
H302 C318 0.931 . S
C303 H291 0.929 . S
C303 C297 1.390 . S
C303 C300 1.386 . S
C304 C299 1.490 . S
C304 C306 1.395 . S
C304 C307 1.403 . S
H305 C311 0.930 . S
C306 H292 0.930 . S
C306 C304 1.395 . S
C306 C309 1.403 . S
C307 C304 1.403 . S
C307 C308 1.524 . S
C307 C311 1.400 . S
C308 H293 0.960 . S
C308 H294 0.960 . S
C308 H295 0.960 . S
C308 C307 1.524 . S
C309 C306 1.403 . S
C309 C310 1.392 . S
C309 C313 1.495 . S
C310 C309 1.392 . S
C310 C311 1.385 . S
C310 C312 1.478 . S
C311 H305 0.930 . S
C311 C307 1.400 . S
C311 C310 1.385 . S
C312 C310 1.478 . S
C312 C314 1.381 . S
C312 C318 1.383 . S
C313 C309 1.495 . S
C313 H319 0.959 . S
C313 H320 0.961 . S
C313 H321 0.960 . S
C314 C312 1.381 . S
C314 C315 1.394 . S
C314 H322 0.930 . S
C315 C314 1.394 . S
C315 C316 1.383 . S
C315 H323 0.929 . S
C316 C315 1.383 . S
C316 C317 1.377 . S
C317 H301 0.930 . S
C317 C316 1.377 . S
C317 C318 1.379 . S
C318 H302 0.931 . S
C318 C312 1.383 . S
C318 C317 1.379 . S
H319 C313 0.959 . S
H320 C313 0.961 . S
H321 C313 0.960 . S
H322 C314 0.930 . S
H323 C315 0.929 . S
H324 C332 0.929 . S
H325 C334 0.930 . S
H326 C336 0.930 . S
H327 C339 0.929 . S
H328 C342 0.930 . S
H329 C344 0.960 . S
H330 C344 0.960 . S
H331 C344 0.960 . S
C332 H324 0.929 . S
C332 C333 1.377 1_556 S
C332 C334 1.384 . S
C333 C332 1.377 1_554 S
C333 C339 1.390 . S
C334 H325 0.930 . S
C334 C332 1.384 . S
C334 C335 1.372 1_556 S
C335 C334 1.372 1_554 S
C335 C336 1.400 . S
C335 C340 1.490 . S
C336 H326 0.930 . S
C336 C335 1.400 . S
C336 C339 1.386 . S
H337 C353 0.930 . S
H338 C354 0.931 . S
C339 H327 0.929 . S
C339 C333 1.390 . S
C339 C336 1.386 . S
C340 C335 1.490 . S
C340 C342 1.395 . S
C340 C343 1.403 . S
H341 C347 0.930 . S
C342 H328 0.930 . S
C342 C340 1.395 . S
C342 C345 1.403 . S
C343 C340 1.403 . S
C343 C344 1.524 . S
C343 C347 1.400 . S
C344 H329 0.960 . S
C344 H330 0.960 . S
C344 H331 0.960 . S
C344 C343 1.524 . S
C345 C342 1.403 . S
C345 C346 1.392 . S
C345 C349 1.495 . S
C346 C345 1.392 . S
C346 C347 1.385 . S
C346 C348 1.478 . S
C347 H341 0.930 . S
C347 C343 1.400 . S
C347 C346 1.385 . S
C348 C346 1.478 . S
C348 C350 1.381 1_554 S
C348 C354 1.383 . S
C349 C345 1.495 . S
C349 H355 0.959 1_554 S
C349 H356 0.961 . S
C349 H357 0.960 1_554 S
C350 C348 1.381 1_556 S
C350 C351 1.394 . S
C350 H358 0.930 . S
C351 C350 1.394 . S
C351 C352 1.383 1_556 S
C351 H359 0.929 . S
C352 C351 1.383 1_554 S
C352 C353 1.377 . S
C353 H337 0.930 . S
C353 C352 1.377 . S
C353 C354 1.379 . S
C354 H338 0.931 . S
C354 C348 1.383 . S
C354 C353 1.379 . S
H355 C349 0.959 1_556 S
H356 C349 0.961 . S
H357 C349 0.960 1_556 S
H358 C350 0.930 . S
H359 C351 0.929 . S
H360 C368 0.929 . S
H361 C370 0.930 . S
H362 C372 0.930 . S
H363 C375 0.929 . S
H364 C378 0.930 . S
H365 C380 0.960 . S
H366 C380 0.960 . S
H367 C380 0.960 . S
C368 H360 0.929 . S
C368 C369 1.377 . S
C368 C370 1.384 . S
C369 C368 1.377 . S
C369 C375 1.390 . S
C370 H361 0.930 . S
C370 C368 1.384 . S
C370 C371 1.372 . S
C371 C370 1.372 . S
C371 C372 1.400 . S
C371 C376 1.490 . S
C372 H362 0.930 . S
C372 C371 1.400 . S
C372 C375 1.386 . S
H373 C389 0.930 . S
H374 C390 0.931 . S
C375 H363 0.929 . S
C375 C369 1.390 . S
C375 C372 1.386 . S
C376 C371 1.490 . S
C376 C378 1.395 . S
C376 C379 1.403 . S
H377 C383 0.930 . S
C378 H364 0.930 . S
C378 C376 1.395 . S
C378 C381 1.403 . S
C379 C376 1.403 . S
C379 C380 1.524 . S
C379 C383 1.400 . S
C380 H365 0.960 . S
C380 H366 0.960 . S
C380 H367 0.960 . S
C380 C379 1.524 . S
C381 C378 1.403 . S
C381 C382 1.392 . S
C381 C385 1.495 . S
C382 C381 1.392 . S
C382 C383 1.385 . S
C382 C384 1.478 . S
C383 H377 0.930 . S
C383 C379 1.400 . S
C383 C382 1.385 . S
C384 C382 1.478 . S
C384 C386 1.381 . S
C384 C390 1.383 . S
C385 C381 1.495 . S
C385 H391 0.959 . S
C385 H392 0.961 . S
C385 H393 0.960 . S
C386 C384 1.381 . S
C386 C387 1.394 . S
C386 H394 0.930 . S
C387 C386 1.394 . S
C387 C388 1.383 . S
C387 H395 0.929 . S
C388 C387 1.383 . S
C388 C389 1.377 . S
C389 H373 0.930 . S
C389 C388 1.377 . S
C389 C390 1.379 . S
C390 H374 0.931 . S
C390 C384 1.383 . S
C390 C389 1.379 . S
H391 C385 0.959 . S
H392 C385 0.961 . S
H393 C385 0.960 . S
H394 C386 0.930 . S
H395 C387 0.929 . S
H396 C404 0.929 . S
H397 C406 0.930 . S
H398 C408 0.930 . S
H399 C411 0.929 . S
H400 C414 0.930 . S
H401 C416 0.960 . S
H402 C416 0.960 . S
H403 C416 0.960 . S
C404 H396 0.929 . S
C404 C405 1.377 . S
C404 C406 1.384 . S
C405 C404 1.377 . S
C405 C411 1.390 . S
C406 H397 0.930 . S
C406 C404 1.384 . S
C406 C407 1.372 . S
C407 C406 1.372 . S
C407 C408 1.400 . S
C407 C412 1.490 . S
C408 H398 0.930 . S
C408 C407 1.400 . S
C408 C411 1.386 . S
H409 C425 0.930 . S
H410 C426 0.931 . S
C411 H399 0.929 . S
C411 C405 1.390 . S
C411 C408 1.386 . S
C412 C407 1.490 . S
C412 C414 1.395 . S
C412 C415 1.403 . S
H413 C419 0.930 . S
C414 H400 0.930 . S
C414 C412 1.395 . S
C414 C417 1.403 . S
C415 C412 1.403 . S
C415 C416 1.524 . S
C415 C419 1.400 . S
C416 H401 0.960 . S
C416 H402 0.960 . S
C416 H403 0.960 . S
C416 C415 1.524 . S
C417 C414 1.403 . S
C417 C418 1.392 . S
C417 C421 1.495 . S
C418 C417 1.392 . S
C418 C419 1.385 . S
C418 C420 1.478 . S
C419 H413 0.930 . S
C419 C415 1.400 . S
C419 C418 1.385 . S
C420 C418 1.478 . S
C420 C422 1.381 . S
C420 C426 1.383 . S
C421 C417 1.495 . S
C421 H427 0.959 . S
C421 H428 0.961 . S
C421 H429 0.960 . S
C422 C420 1.381 . S
C422 C423 1.394 . S
C422 H430 0.930 . S
C423 C422 1.394 . S
C423 C424 1.383 . S
C423 H431 0.929 . S
C424 C423 1.383 . S
C424 C425 1.377 . S
C425 H409 0.930 . S
C425 C424 1.377 . S
C425 C426 1.379 . S
C426 H410 0.931 . S
C426 C420 1.383 . S
C426 C425 1.379 . S
H427 C421 0.959 . S
H428 C421 0.961 . S
H429 C421 0.960 . S
H430 C422 0.930 . S
H431 C423 0.929 . S
H432 C440 0.929 . S
H433 C442 0.930 . S
H434 C444 0.930 . S
H435 C447 0.929 . S
H436 C450 0.930 . S
H437 C452 0.960 . S
H438 C452 0.960 . S
H439 C452 0.960 . S
C440 H432 0.929 . S
C440 C441 1.377 . S
C440 C442 1.384 . S
C441 C440 1.377 . S
C441 C447 1.390 . S
C442 H433 0.930 . S
C442 C440 1.384 . S
C442 C443 1.372 . S
C443 C442 1.372 . S
C443 C444 1.400 . S
C443 C448 1.490 . S
C444 H434 0.930 . S
C444 C443 1.400 . S
C444 C447 1.386 . S
H445 C461 0.930 . S
H446 C462 0.931 . S
C447 H435 0.929 . S
C447 C441 1.390 . S
C447 C444 1.386 . S
C448 C443 1.490 . S
C448 C450 1.395 . S
C448 C451 1.403 . S
H449 C455 0.930 . S
C450 H436 0.930 . S
C450 C448 1.395 . S
C450 C453 1.403 . S
C451 C448 1.403 . S
C451 C452 1.524 . S
C451 C455 1.400 . S
C452 H437 0.960 . S
C452 H438 0.960 . S
C452 H439 0.960 . S
C452 C451 1.524 . S
C453 C450 1.403 . S
C453 C454 1.392 . S
C453 C457 1.495 . S
C454 C453 1.392 . S
C454 C455 1.385 . S
C454 C456 1.478 . S
C455 H449 0.930 . S
C455 C451 1.400 . S
C455 C454 1.385 . S
C456 C454 1.478 . S
C456 C458 1.381 . S
C456 C462 1.383 . S
C457 C453 1.495 . S
C457 H463 0.959 . S
C457 H464 0.961 . S
C457 H465 0.960 . S
C458 C456 1.381 . S
C458 C459 1.394 . S
C458 H466 0.930 . S
C459 C458 1.394 . S
C459 C460 1.383 . S
C459 H467 0.931 1_545 S
C460 C459 1.383 . S
C460 C461 1.377 . S
C461 H445 0.930 . S
C461 C460 1.377 . S
C461 C462 1.379 . S
C462 H446 0.931 . S
C462 C456 1.383 . S
C462 C461 1.379 . S
H463 C457 0.959 . S
H464 C457 0.961 . S
H465 C457 0.960 . S
H466 C458 0.930 . S
H467 C459 0.931 1_565 S
H468 C476 0.929 . S
H469 C478 0.930 . S
H470 C480 0.930 . S
H471 C483 0.929 . S
H472 C486 0.930 . S
H473 C488 0.960 . S
H474 C488 0.960 . S
H475 C488 0.960 . S
C476 H468 0.929 . S
C476 C477 1.377 . S
C476 C478 1.384 . S
C477 C476 1.377 . S
C477 C483 1.390 . S
C478 H469 0.930 . S
C478 C476 1.384 . S
C478 C479 1.372 . S
C479 C478 1.372 . S
C479 C480 1.400 . S
C479 C484 1.490 . S
C480 H470 0.930 . S
C480 C479 1.400 . S
C480 C483 1.386 . S
H481 C497 0.930 . S
H482 C498 0.931 . S
C483 H471 0.929 . S
C483 C477 1.390 . S
C483 C480 1.386 . S
C484 C479 1.490 . S
C484 C486 1.395 . S
C484 C487 1.403 . S
H485 C491 0.930 . S
C486 H472 0.930 . S
C486 C484 1.395 . S
C486 C489 1.403 . S
C487 C484 1.403 . S
C487 C488 1.524 . S
C487 C491 1.400 . S
C488 H473 0.960 . S
C488 H474 0.960 . S
C488 H475 0.960 . S
C488 C487 1.524 . S
C489 C486 1.403 . S
C489 C490 1.392 . S
C489 C493 1.495 . S
C490 C489 1.392 . S
C490 C491 1.385 . S
C490 C492 1.478 . S
C491 H485 0.930 . S
C491 C487 1.400 . S
C491 C490 1.385 . S
C492 C490 1.478 . S
C492 C494 1.381 . S
C492 C498 1.383 . S
C493 C489 1.495 . S
C493 H499 0.959 . S
C493 H500 0.961 . S
C493 H501 0.960 . S
C494 C492 1.381 . S
C494 C495 1.394 . S
C494 H502 0.930 . S
C495 C494 1.394 . S
C495 C496 1.383 . S
C495 H503 0.929 . S
C496 C495 1.383 . S
C496 C497 1.377 . S
C497 H481 0.930 . S
C497 C496 1.377 . S
C497 C498 1.379 . S
C498 H482 0.931 . S
C498 C492 1.383 . S
C498 C497 1.379 . S
H499 C493 0.959 . S
H500 C493 0.961 . S
H501 C493 0.960 . S
H502 C494 0.930 . S
H503 C495 0.929 . S
H504 C512 0.929 . S
H505 C514 0.930 . S
H506 C516 0.930 . S
H507 C519 0.929 . S
H508 C522 0.930 . S
H509 C524 0.960 . S
H510 C524 0.960 . S
H511 C524 0.960 . S
C512 H504 0.929 . S
C512 C513 1.377 . S
C512 C514 1.384 . S
C513 C512 1.377 . S
C513 C519 1.390 . S
C514 H505 0.930 . S
C514 C512 1.384 . S
C514 C515 1.372 . S
C515 C514 1.372 . S
C515 C516 1.400 . S
C515 C520 1.490 . S
C516 H506 0.930 . S
C516 C515 1.400 . S
C516 C519 1.386 . S
H517 C533 0.930 . S
H518 C534 0.931 . S
C519 H507 0.929 . S
C519 C513 1.390 . S
C519 C516 1.386 . S
C520 C515 1.490 . S
C520 C522 1.395 . S
C520 C523 1.403 . S
H521 C527 0.930 . S
C522 H508 0.930 . S
C522 C520 1.395 . S
C522 C525 1.403 . S
C523 C520 1.403 . S
C523 C524 1.524 . S
C523 C527 1.400 . S
C524 H509 0.960 . S
C524 H510 0.960 . S
C524 H511 0.960 . S
C524 C523 1.524 . S
C525 C522 1.403 . S
C525 C526 1.392 . S
C525 C529 1.495 . S
C526 C525 1.392 . S
C526 C527 1.385 . S
C526 C528 1.478 . S
C527 H521 0.930 . S
C527 C523 1.400 . S
C527 C526 1.385 . S
C528 C526 1.478 . S
C528 C530 1.381 . S
C528 C534 1.383 . S
C529 C525 1.495 . S
C529 H535 0.959 . S
C529 H536 0.961 . S
C529 H537 0.960 . S
C530 C528 1.381 . S
C530 C531 1.394 . S
C530 H538 0.930 . S
C531 C530 1.394 . S
C531 C532 1.383 . S
C531 H539 0.929 . S
C532 C531 1.383 . S
C532 C533 1.377 . S
C533 H517 0.930 . S
C533 C532 1.377 . S
C533 C534 1.379 . S
C534 H518 0.931 . S
C534 C528 1.383 . S
C534 C533 1.379 . S
H535 C529 0.959 . S
H536 C529 0.961 . S
H537 C529 0.960 . S
H538 C530 0.930 . S
H539 C531 0.929 . S
H540 C548 0.929 . S
H541 C550 0.930 . S
H542 C552 0.930 . S
H543 C555 0.929 . S
H544 C558 0.930 . S
H545 C560 0.960 . S
H546 C560 0.960 . S
H547 C560 0.960 . S
C548 H540 0.929 . S
C548 C549 1.377 . S
C548 C550 1.384 . S
C549 C548 1.377 . S
C549 C555 1.390 . S
C550 H541 0.930 . S
C550 C548 1.384 . S
C550 C551 1.372 . S
C551 C550 1.372 . S
C551 C552 1.400 . S
C551 C556 1.490 . S
C552 H542 0.930 . S
C552 C551 1.400 . S
C552 C555 1.386 . S
H553 C569 0.930 . S
H554 C570 0.931 . S
C555 H543 0.929 . S
C555 C549 1.390 . S
C555 C552 1.386 . S
C556 C551 1.490 . S
C556 C558 1.395 . S
C556 C559 1.403 . S
H557 C563 0.930 . S
C558 H544 0.930 . S
C558 C556 1.395 . S
C558 C561 1.403 . S
C559 C556 1.403 . S
C559 C560 1.524 . S
C559 C563 1.400 . S
C560 H545 0.960 . S
C560 H546 0.960 . S
C560 H547 0.960 . S
C560 C559 1.524 . S
C561 C558 1.403 . S
C561 C562 1.392 . S
C561 C565 1.495 . S
C562 C561 1.392 . S
C562 C563 1.385 . S
C562 C564 1.478 . S
C563 H557 0.930 . S
C563 C559 1.400 . S
C563 C562 1.385 . S
C564 C562 1.478 . S
C564 C566 1.381 . S
C564 C570 1.383 . S
C565 C561 1.495 . S
C565 H571 0.959 . S
C565 H572 0.961 . S
C565 H573 0.960 . S
C566 C564 1.381 . S
C566 C567 1.394 . S
C566 H574 0.930 . S
C567 C566 1.394 . S
C567 C568 1.383 . S
C567 H575 0.929 . S
C568 C567 1.383 . S
C568 C569 1.377 . S
C569 H553 0.930 . S
C569 C568 1.377 . S
C569 C570 1.379 . S
C570 H554 0.931 . S
C570 C564 1.383 . S
C570 C569 1.379 . S
H571 C565 0.959 . S
H572 C565 0.961 . S
H573 C565 0.960 . S
H574 C566 0.930 . S
H575 C567 0.929 . S
H576 C584 0.929 . S
H577 C586 0.930 . S
H578 C588 0.930 . S
H579 C591 0.929 . S
H580 C594 0.930 . S
H581 C596 0.960 . S
H582 C596 0.960 . S
H583 C596 0.960 . S
C584 H576 0.929 . S
C584 C585 1.377 . S
C584 C586 1.384 . S
C585 C584 1.377 . S
C585 C591 1.390 . S
C586 H577 0.930 . S
C586 C584 1.384 . S
C586 C587 1.372 . S
C587 C586 1.372 . S
C587 C588 1.400 . S
C587 C592 1.490 . S
C588 H578 0.930 . S
C588 C587 1.400 . S
C588 C591 1.386 . S
H589 C605 0.930 . S
H590 C606 0.931 . S
C591 H579 0.929 . S
C591 C585 1.390 . S
C591 C588 1.386 . S
C592 C587 1.490 . S
C592 C594 1.395 . S
C592 C595 1.403 . S
H593 C599 0.930 . S
C594 H580 0.930 . S
C594 C592 1.395 . S
C594 C597 1.403 . S
C595 C592 1.403 . S
C595 C596 1.524 . S
C595 C599 1.400 . S
C596 H581 0.960 . S
C596 H582 0.960 . S
C596 H583 0.960 . S
C596 C595 1.524 . S
C597 C594 1.403 . S
C597 C598 1.392 . S
C597 C601 1.495 . S
C598 C597 1.392 . S
C598 C599 1.385 . S
C598 C600 1.478 . S
C599 H593 0.930 . S
C599 C595 1.400 . S
C599 C598 1.385 . S
C600 C598 1.478 . S
C600 C602 1.381 . S
C600 C606 1.383 . S
C601 C597 1.495 . S
C601 H607 0.959 . S
C601 H608 0.961 . S
C601 H609 0.960 . S
C602 C600 1.381 . S
C602 C603 1.394 . S
C602 H610 0.930 . S
C603 C602 1.394 . S
C603 C604 1.383 . S
C603 H611 0.929 . S
C604 C603 1.383 . S
C604 C605 1.377 . S
C605 H589 0.930 . S
C605 C604 1.377 . S
C605 C606 1.379 . S
C606 H590 0.931 . S
C606 C600 1.383 . S
C606 C605 1.379 . S
H607 C601 0.959 . S
H608 C601 0.961 . S
H609 C601 0.960 . S
H610 C602 0.930 . S
H611 C603 0.929 . S
H612 C620 0.929 . S
H613 C622 0.930 . S
H614 C624 0.930 . S
H615 C627 0.929 . S
H616 C630 0.930 . S
H617 C632 0.960 . S
H618 C632 0.960 . S
H619 C632 0.960 . S
C620 H612 0.929 . S
C620 C621 1.377 . S
C620 C622 1.384 . S
C621 C620 1.377 . S
C621 C627 1.390 . S
C622 H613 0.930 . S
C622 C620 1.384 . S
C622 C623 1.372 . S
C623 C622 1.372 . S
C623 C624 1.400 . S
C623 C628 1.490 . S
C624 H614 0.930 . S
C624 C623 1.400 . S
C624 C627 1.386 . S
H625 C641 0.930 1_545 S
H626 C642 0.931 . S
C627 H615 0.929 . S
C627 C621 1.390 . S
C627 C624 1.386 . S
C628 C623 1.490 . S
C628 C630 1.395 . S
C628 C631 1.403 . S
H629 C635 0.930 . S
C630 H616 0.930 . S
C630 C628 1.395 . S
C630 C633 1.403 . S
C631 C628 1.403 . S
C631 C632 1.524 . S
C631 C635 1.400 . S
C632 H617 0.960 . S
C632 H618 0.960 . S
C632 H619 0.960 . S
C632 C631 1.524 . S
C633 C630 1.403 . S
C633 C634 1.392 . S
C633 C637 1.495 . S
C634 C633 1.392 . S
C634 C635 1.385 . S
C634 C636 1.478 . S
C635 H629 0.930 . S
C635 C631 1.400 . S
C635 C634 1.385 . S
C636 C634 1.478 . S
C636 C638 1.381 . S
C636 C642 1.383 . S
C637 C633 1.495 . S
C637 H643 0.959 . S
C637 H644 0.961 . S
C637 H645 0.960 . S
C638 C636 1.381 . S
C638 C639 1.394 . S
C638 H646 0.930 . S
C639 C638 1.394 . S
C639 C640 1.383 . S
C639 H647 0.929 . S
C640 C639 1.383 . S
C640 C641 1.377 . S
C641 H625 0.930 1_565 S
C641 C640 1.377 . S
C641 C642 1.379 . S
C642 H626 0.931 . S
C642 C636 1.383 . S
C642 C641 1.379 . S
H643 C637 0.959 . S
H644 C637 0.961 . S
H645 C637 0.960 . S
H646 C638 0.930 . S
H647 C639 0.929 . S
C244 C116 1.666 . S
C225 C40 1.687 . S
C261 C4 1.690 . S
C280 C188 1.674 . S
C297 C16 1.691 . S
C316 C104 1.676 . S
C333 C28 1.661 . S
C352 C200 1.657 . S
C388 C106 1.498 . S
C369 C9 1.636 . S
C424 C187 1.725 . S
C405 C18 1.733 . S
C441 C33 1.656 . S
C460 C103 1.662 . S
C477 C45 1.627 . S
C496 C190 1.486 . S
C532 C202 1.426 . S
C513 C21 1.578 . S
C568 C118 1.429 . S
C549 C30 1.583 . S
C604 C199 1.660 . S
C585 C42 1.648 . S
C621 C6 1.585 . S
C640 C115 1.593 . S
