# Generated by pormake.
# Topology bwt, (3,3)-cn, num edge types: 1
# Building blocks:
#     Node 0, Type 0, BuildingBlock: OLANEW_clean_sbu_2, # of connection points: 3
#     Node 1, Type 0, BuildingBlock: OLANEW_clean_sbu_2, # of connection points: 3
#     Node 2, Type 0, BuildingBlock: OLANEW_clean_sbu_2, # of connection points: 3
#     Node 3, Type 0, BuildingBlock: OLANEW_clean_sbu_2, # of connection points: 3
#     Node 4, Type 0, BuildingBlock: OLANEW_clean_sbu_2, # of connection points: 3
#     Node 5, Type 0, BuildingBlock: OLANEW_clean_sbu_2, # of connection points: 3
#     Node 6, Type 0, BuildingBlock: OLANEW_clean_sbu_2, # of connection points: 3
#     Node 7, Type 0, BuildingBlock: OLANEW_clean_sbu_2, # of connection points: 3
#     Node 8, Type 0, BuildingBlock: OLANEW_clean_sbu_2, # of connection points: 3
#     Node 9, Type 0, BuildingBlock: OLANEW_clean_sbu_2, # of connection points: 3
#     Node 10, Type 0, BuildingBlock: OLANEW_clean_sbu_2, # of connection points: 3
#     Node 11, Type 0, BuildingBlock: OLANEW_clean_sbu_2, # of connection points: 3
#     Node 12, Type 0, BuildingBlock: OLANEW_clean_sbu_2, # of connection points: 3
#     Node 13, Type 0, BuildingBlock: OLANEW_clean_sbu_2, # of connection points: 3
#     Node 14, Type 0, BuildingBlock: OLANEW_clean_sbu_2, # of connection points: 3
#     Node 15, Type 0, BuildingBlock: OLANEW_clean_sbu_2, # of connection points: 3
#     Node 16, Type 0, BuildingBlock: OLANEW_clean_sbu_2, # of connection points: 3
#     Node 17, Type 0, BuildingBlock: OLANEW_clean_sbu_2, # of connection points: 3
#     Node 18, Type 0, BuildingBlock: OLANEW_clean_sbu_2, # of connection points: 3
#     Node 19, Type 0, BuildingBlock: OLANEW_clean_sbu_2, # of connection points: 3
#     Node 20, Type 0, BuildingBlock: OLANEW_clean_sbu_2, # of connection points: 3
#     Node 21, Type 0, BuildingBlock: OLANEW_clean_sbu_2, # of connection points: 3
#     Node 22, Type 0, BuildingBlock: OLANEW_clean_sbu_2, # of connection points: 3
#     Node 23, Type 0, BuildingBlock: OLANEW_clean_sbu_2, # of connection points: 3
#     Node 24, Type 1, BuildingBlock: BETDAH_clean_linker_0, # of connection points: 3
#     Node 25, Type 1, BuildingBlock: BETDAH_clean_linker_0, # of connection points: 3
#     Node 26, Type 1, BuildingBlock: BETDAH_clean_linker_0, # of connection points: 3
#     Node 27, Type 1, BuildingBlock: BETDAH_clean_linker_0, # of connection points: 3
#     Node 28, Type 1, BuildingBlock: BETDAH_clean_linker_0, # of connection points: 3
#     Node 29, Type 1, BuildingBlock: BETDAH_clean_linker_0, # of connection points: 3
#     Node 30, Type 1, BuildingBlock: BETDAH_clean_linker_0, # of connection points: 3
#     Node 31, Type 1, BuildingBlock: BETDAH_clean_linker_0, # of connection points: 3
#     Node 32, Type 1, BuildingBlock: BETDAH_clean_linker_0, # of connection points: 3
#     Node 33, Type 1, BuildingBlock: BETDAH_clean_linker_0, # of connection points: 3
#     Node 34, Type 1, BuildingBlock: BETDAH_clean_linker_0, # of connection points: 3
#     Node 35, Type 1, BuildingBlock: BETDAH_clean_linker_0, # of connection points: 3
#     Node 36, Type 1, BuildingBlock: BETDAH_clean_linker_0, # of connection points: 3
#     Node 37, Type 1, BuildingBlock: BETDAH_clean_linker_0, # of connection points: 3
#     Node 38, Type 1, BuildingBlock: BETDAH_clean_linker_0, # of connection points: 3
#     Node 39, Type 1, BuildingBlock: BETDAH_clean_linker_0, # of connection points: 3
#     Node 40, Type 1, BuildingBlock: BETDAH_clean_linker_0, # of connection points: 3
#     Node 41, Type 1, BuildingBlock: BETDAH_clean_linker_0, # of connection points: 3
#     Node 42, Type 1, BuildingBlock: BETDAH_clean_linker_0, # of connection points: 3
#     Node 43, Type 1, BuildingBlock: BETDAH_clean_linker_0, # of connection points: 3
#     Node 44, Type 1, BuildingBlock: BETDAH_clean_linker_0, # of connection points: 3
#     Node 45, Type 1, BuildingBlock: BETDAH_clean_linker_0, # of connection points: 3
#     Node 46, Type 1, BuildingBlock: BETDAH_clean_linker_0, # of connection points: 3
#     Node 47, Type 1, BuildingBlock: BETDAH_clean_linker_0, # of connection points: 3
#     Edge 48, Type (0, 1), BuildingBlock: CIFDUS_clean_linker_0, # of connection points: 2
#     Edge 49, Type (0, 1), BuildingBlock: CIFDUS_clean_linker_0, # of connection points: 2
#     Edge 50, Type (0, 1), BuildingBlock: CIFDUS_clean_linker_0, # of connection points: 2
#     Edge 51, Type (0, 1), BuildingBlock: CIFDUS_clean_linker_0, # of connection points: 2
#     Edge 52, Type (0, 1), BuildingBlock: CIFDUS_clean_linker_0, # of connection points: 2
#     Edge 53, Type (0, 1), BuildingBlock: CIFDUS_clean_linker_0, # of connection points: 2
#     Edge 54, Type (0, 1), BuildingBlock: CIFDUS_clean_linker_0, # of connection points: 2
#     Edge 55, Type (0, 1), BuildingBlock: CIFDUS_clean_linker_0, # of connection points: 2
#     Edge 56, Type (0, 1), BuildingBlock: CIFDUS_clean_linker_0, # of connection points: 2
#     Edge 57, Type (0, 1), BuildingBlock: CIFDUS_clean_linker_0, # of connection points: 2
#     Edge 58, Type (0, 1), BuildingBlock: CIFDUS_clean_linker_0, # of connection points: 2
#     Edge 59, Type (0, 1), BuildingBlock: CIFDUS_clean_linker_0, # of connection points: 2
#     Edge 60, Type (0, 1), BuildingBlock: CIFDUS_clean_linker_0, # of connection points: 2
#     Edge 61, Type (0, 1), BuildingBlock: CIFDUS_clean_linker_0, # of connection points: 2
#     Edge 62, Type (0, 1), BuildingBlock: CIFDUS_clean_linker_0, # of connection points: 2
#     Edge 63, Type (0, 1), BuildingBlock: CIFDUS_clean_linker_0, # of connection points: 2
#     Edge 64, Type (0, 1), BuildingBlock: CIFDUS_clean_linker_0, # of connection points: 2
#     Edge 65, Type (0, 1), BuildingBlock: CIFDUS_clean_linker_0, # of connection points: 2
#     Edge 66, Type (0, 1), BuildingBlock: CIFDUS_clean_linker_0, # of connection points: 2
#     Edge 67, Type (0, 1), BuildingBlock: CIFDUS_clean_linker_0, # of connection points: 2
#     Edge 68, Type (0, 1), BuildingBlock: CIFDUS_clean_linker_0, # of connection points: 2
#     Edge 69, Type (0, 1), BuildingBlock: CIFDUS_clean_linker_0, # of connection points: 2
#     Edge 70, Type (0, 1), BuildingBlock: CIFDUS_clean_linker_0, # of connection points: 2
#     Edge 71, Type (0, 1), BuildingBlock: CIFDUS_clean_linker_0, # of connection points: 2
#     Edge 72, Type (0, 1), BuildingBlock: CIFDUS_clean_linker_0, # of connection points: 2
#     Edge 73, Type (0, 1), BuildingBlock: CIFDUS_clean_linker_0, # of connection points: 2
#     Edge 74, Type (0, 1), BuildingBlock: CIFDUS_clean_linker_0, # of connection points: 2
#     Edge 75, Type (0, 1), BuildingBlock: CIFDUS_clean_linker_0, # of connection points: 2
#     Edge 76, Type (0, 1), BuildingBlock: CIFDUS_clean_linker_0, # of connection points: 2
#     Edge 77, Type (0, 1), BuildingBlock: CIFDUS_clean_linker_0, # of connection points: 2
#     Edge 78, Type (0, 1), BuildingBlock: CIFDUS_clean_linker_0, # of connection points: 2
#     Edge 79, Type (0, 1), BuildingBlock: CIFDUS_clean_linker_0, # of connection points: 2
#     Edge 80, Type (0, 1), BuildingBlock: CIFDUS_clean_linker_0, # of connection points: 2
#     Edge 81, Type (0, 1), BuildingBlock: CIFDUS_clean_linker_0, # of connection points: 2
#     Edge 82, Type (0, 1), BuildingBlock: CIFDUS_clean_linker_0, # of connection points: 2
#     Edge 83, Type (0, 1), BuildingBlock: CIFDUS_clean_linker_0, # of connection points: 2
#     Edge 84, Type (0, 1), BuildingBlock: CIFDUS_clean_linker_0, # of connection points: 2
#     Edge 85, Type (0, 1), BuildingBlock: CIFDUS_clean_linker_0, # of connection points: 2
#     Edge 86, Type (0, 1), BuildingBlock: CIFDUS_clean_linker_0, # of connection points: 2
#     Edge 87, Type (0, 1), BuildingBlock: CIFDUS_clean_linker_0, # of connection points: 2
#     Edge 88, Type (0, 1), BuildingBlock: CIFDUS_clean_linker_0, # of connection points: 2
#     Edge 89, Type (0, 1), BuildingBlock: CIFDUS_clean_linker_0, # of connection points: 2
#     Edge 90, Type (0, 1), BuildingBlock: CIFDUS_clean_linker_0, # of connection points: 2
#     Edge 91, Type (0, 1), BuildingBlock: CIFDUS_clean_linker_0, # of connection points: 2
#     Edge 92, Type (0, 1), BuildingBlock: CIFDUS_clean_linker_0, # of connection points: 2
#     Edge 93, Type (0, 1), BuildingBlock: CIFDUS_clean_linker_0, # of connection points: 2
#     Edge 94, Type (0, 1), BuildingBlock: CIFDUS_clean_linker_0, # of connection points: 2
#     Edge 95, Type (0, 1), BuildingBlock: CIFDUS_clean_linker_0, # of connection points: 2
#     Edge 96, Type (0, 1), BuildingBlock: CIFDUS_clean_linker_0, # of connection points: 2
#     Edge 97, Type (0, 1), BuildingBlock: CIFDUS_clean_linker_0, # of connection points: 2
#     Edge 98, Type (0, 1), BuildingBlock: CIFDUS_clean_linker_0, # of connection points: 2
#     Edge 99, Type (0, 1), BuildingBlock: CIFDUS_clean_linker_0, # of connection points: 2
#     Edge 100, Type (0, 1), BuildingBlock: CIFDUS_clean_linker_0, # of connection points: 2
#     Edge 101, Type (0, 1), BuildingBlock: CIFDUS_clean_linker_0, # of connection points: 2
#     Edge 102, Type (0, 1), BuildingBlock: CIFDUS_clean_linker_0, # of connection points: 2
#     Edge 103, Type (0, 1), BuildingBlock: CIFDUS_clean_linker_0, # of connection points: 2
#     Edge 104, Type (0, 1), BuildingBlock: CIFDUS_clean_linker_0, # of connection points: 2
#     Edge 105, Type (0, 1), BuildingBlock: CIFDUS_clean_linker_0, # of connection points: 2
#     Edge 106, Type (0, 1), BuildingBlock: CIFDUS_clean_linker_0, # of connection points: 2
#     Edge 107, Type (0, 1), BuildingBlock: CIFDUS_clean_linker_0, # of connection points: 2
#     Edge 108, Type (0, 1), BuildingBlock: CIFDUS_clean_linker_0, # of connection points: 2
#     Edge 109, Type (0, 1), BuildingBlock: CIFDUS_clean_linker_0, # of connection points: 2
#     Edge 110, Type (0, 1), BuildingBlock: CIFDUS_clean_linker_0, # of connection points: 2
#     Edge 111, Type (0, 1), BuildingBlock: CIFDUS_clean_linker_0, # of connection points: 2
#     Edge 112, Type (0, 1), BuildingBlock: CIFDUS_clean_linker_0, # of connection points: 2
#     Edge 113, Type (0, 1), BuildingBlock: CIFDUS_clean_linker_0, # of connection points: 2
#     Edge 114, Type (0, 1), BuildingBlock: CIFDUS_clean_linker_0, # of connection points: 2
#     Edge 115, Type (0, 1), BuildingBlock: CIFDUS_clean_linker_0, # of connection points: 2
#     Edge 116, Type (0, 1), BuildingBlock: CIFDUS_clean_linker_0, # of connection points: 2
#     Edge 117, Type (0, 1), BuildingBlock: CIFDUS_clean_linker_0, # of connection points: 2
#     Edge 118, Type (0, 1), BuildingBlock: CIFDUS_clean_linker_0, # of connection points: 2
#     Edge 119, Type (0, 1), BuildingBlock: CIFDUS_clean_linker_0, # of connection points: 2
# Relax obj value: 0.060
# Max RMSD: 0.121
# Mean RMSD: 0.061
data_MOF--net-bwt--node1-OLANEW_clean_sbu_2--node2-BETDAH_clean_linker_0--edge1-CIFDUS_clean_linker_0
_symmetry_space_group_name_H-M    P1
_symmetry_Int_Tables_number       1
_symmetry_cell_setting            triclinic
loop_
_symmetry_equiv_pos_as_xyz
'x, y, z'
_cell_length_a     52.93673
_cell_length_b     52.982967
_cell_length_c     52.984009
_cell_angle_alpha  94.58526
_cell_angle_beta   94.552951
_cell_angle_gamma 94.564853
loop_
_atom_site_label
_atom_site_type_symbol
_atom_site_fract_x
_atom_site_fract_y
_atom_site_fract_z
_atom_type_partial_charge
O0 O 0.35492 0.57798 0.36789 0.0
Cd1 Cd 0.35167 0.56339 0.32285 0.0
O2 O 0.3626 0.61826 0.36155 0.0
Cd3 Cd 0.37044 0.60835 0.32227 0.0
O4 O 0.40275 0.59939 0.30108 0.0
C5 C 0.41487 0.58127 0.30871 0.0
O6 O 0.40528 0.56762 0.32586 0.0
C7 C 0.35821 0.60119 0.37657 0.0
C8 C 0.30061 0.55911 0.30456 0.0
O9 O 0.31073 0.54071 0.31464 0.0
O10 O 0.31483 0.57949 0.30264 0.0
O11 O 0.22243 0.41177 0.83248 0.0
Cd12 Cd 0.19787 0.40528 0.79117 0.0
O13 O 0.20353 0.44559 0.84479 0.0
Cd14 Cd 0.17378 0.43914 0.81338 0.0
O15 O 0.13869 0.43095 0.78841 0.0
C16 C 0.11895 0.42228 0.79814 0.0
O17 O 0.12066 0.41858 0.82243 0.0
C18 C 0.22077 0.43058 0.84858 0.0
C19 C 0.23226 0.41576 0.75552 0.0
O20 O 0.22171 0.43355 0.7674 0.0
O21 O 0.22581 0.39274 0.75969 0.0
O22 O 0.72673 0.94726 0.59136 0.0
Cd23 Cd 0.74122 0.94884 0.63654 0.0
O24 O 0.76582 0.95014 0.57988 0.0
Cd25 Cd 0.78402 0.95954 0.61825 0.0
O26 O 0.81294 0.9736 0.64887 0.0
C27 C 0.82305 0.99621 0.64903 0.0
O28 O 0.81481 0.01056 0.63155 0.0
C29 C 0.74196 0.94701 0.57397 0.0
C30 C 0.70542 0.96652 0.66783 0.0
O31 O 0.72454 0.98121 0.66301 0.0
O32 O 0.70319 0.94353 0.65786 0.0
O33 O 0.7047 0.92392 0.2381 0.0
Cd34 Cd 0.70279 0.91137 0.28134 0.0
O35 O 0.71022 0.96454 0.25121 0.0
Cd36 Cd 0.69278 0.95793 0.28634 0.0
O37 O 0.65847 0.95906 0.30665 0.0
C38 C 0.64427 0.93921 0.30961 0.0
O39 O 0.65119 0.91686 0.30171 0.0
C40 C 0.71024 0.94681 0.23356 0.0
C41 C 0.75294 0.9126 0.30253 0.0
O42 O 0.74226 0.89299 0.28891 0.0
O43 O 0.73965 0.93141 0.30691 0.0
O44 O 0.37569 0.33497 0.55747 0.0
Cd45 Cd 0.33038 0.34039 0.54952 0.0
O46 O 0.37354 0.34366 0.59846 0.0
Cd47 Cd 0.33875 0.36246 0.592 0.0
O48 O 0.33244 0.40096 0.58282 0.0
C49 C 0.34963 0.41087 0.57034 0.0
O50 O 0.36729 0.39671 0.56262 0.0
C51 C 0.38604 0.33632 0.5801 0.0
C52 C 0.30182 0.29597 0.5586 0.0
O53 O 0.30644 0.30065 0.53597 0.0
O54 O 0.31038 0.31244 0.57693 0.0
O55 O 0.23378 0.74498 0.96792 0.0
Cd56 Cd 0.27777 0.73771 0.96065 0.0
O57 O 0.24503 0.75786 0.00802 0.0
Cd58 Cd 0.27968 0.73819 0.00855 0.0
O59 O 0.29852 0.70434 0.01717 0.0
C60 C 0.29609 0.68495 0.00114 0.0
O61 O 0.28337 0.68623 0.97902 0.0
C62 C 0.2284 0.7553 0.98911 0.0
C63 C 0.30276 0.78433 0.95221 0.0
O64 O 0.29242 0.76903 0.93362 0.0
O65 O 0.3019 0.77724 0.97472 0.0
O66 O 0.78195 0.18101 0.38048 0.0
Cd67 Cd 0.73963 0.1585 0.37136 0.0
O68 O 0.79064 0.16562 0.41723 0.0
Cd69 Cd 0.75492 0.14162 0.41322 0.0
O70 O 0.7249 0.11071 0.40556 0.0
C71 C 0.7231 0.09804 0.38401 0.0
O72 O 0.73879 0.10457 0.36717 0.0
C73 C 0.797 0.17992 0.40022 0.0
C74 C 0.70293 0.1924 0.37924 0.0
O75 O 0.71033 0.17866 0.39678 0.0
O76 O 0.71251 0.18966 0.35782 0.0
O77 O 0.5742 0.75265 0.99728 0.0
Cd78 Cd 0.61793 0.76459 0.01489 0.0
O79 O 0.58086 0.76741 0.96051 0.0
Cd80 Cd 0.62 0.78234 0.97211 0.0
O81 O 0.65459 0.8079 0.98002 0.0
C82 C 0.66005 0.81922 0.00206 0.0
O83 O 0.64528 0.81426 0.02016 0.0
C84 C 0.56606 0.75641 0.97478 0.0
C85 C 0.64433 0.72154 0.01945 0.0
O86 O 0.63236 0.73062 0.03774 0.0
O87 O 0.64401 0.73302 0.99904 0.0
O88 O 0.60444 0.3855 0.31023 0.0
Cd89 Cd 0.59991 0.34113 0.31991 0.0
O90 O 0.56536 0.39383 0.31703 0.0
Cd91 Cd 0.55683 0.35607 0.32943 0.0
O92 O 0.5581 0.33218 0.361 0.0
C93 C 0.54951 0.34198 0.38089 0.0
O94 O 0.53907 0.3636 0.37972 0.0
C95 C 0.58731 0.40102 0.31077 0.0
C96 C 0.59378 0.30791 0.276 0.0
O97 O 0.61601 0.31634 0.28595 0.0
O98 O 0.57449 0.31515 0.2869 0.0
O99 O 0.98297 0.27984 0.77402 0.0
Cd100 Cd 0.97357 0.3244 0.77389 0.0
O101 O 0.97877 0.27729 0.73245 0.0
Cd102 Cd 0.98251 0.26 0.69419 0.0
O103 O 0.98968 0.25129 0.65456 0.0
C104 C 0.97494 0.25878 0.63711 0.0
O105 O 0.95531 0.27082 0.64345 0.0
C106 C 0.98352 0.26684 0.75289 0.0
C107 C 0.95328 0.34219 0.81829 0.0
O108 O 0.93873 0.33298 0.79868 0.0
O109 O 0.97739 0.3429 0.81689 0.0
O110 O 0.42981 0.80551 0.21024 0.0
Cd111 Cd 0.42929 0.76467 0.18536 0.0
O112 O 0.38939 0.79782 0.21634 0.0
Cd113 Cd 0.38326 0.7673 0.18556 0.0
O114 O 0.37959 0.74384 0.14929 0.0
C115 C 0.37217 0.75407 0.12942 0.0
O116 O 0.36674 0.77788 0.13167 0.0
C117 C 0.4104 0.81141 0.22135 0.0
C118 C 0.43851 0.72884 0.22002 0.0
O119 O 0.45654 0.73899 0.20841 0.0
O120 O 0.41592 0.73499 0.21462 0.0
O121 O 0.98384 0.60131 0.74473 0.0
Cd122 Cd 0.00244 0.64365 0.76169 0.0
O123 O 0.94489 0.60968 0.75201 0.0
Cd124 Cd 0.95625 0.64803 0.76949 0.0
O125 O 0.96387 0.68072 0.79765 0.0
C126 C 0.98304 0.68128 0.81378 0.0
O127 O 0.9981 0.66277 0.81222 0.0
C128 C 0.96022 0.59425 0.74385 0.0
C129 C 0.01764 0.67458 0.72449 0.0
O130 O 0.03268 0.65951 0.73431 0.0
O131 O 0.99528 0.67486 0.73214 0.0
O132 O 0.69049 0.36682 0.59423 0.0
Cd133 Cd 0.69845 0.36913 0.64039 0.0
O134 O 0.65 0.37037 0.59718 0.0
Cd135 Cd 0.6091 0.37087 0.58766 0.0
O136 O 0.57054 0.37584 0.59786 0.0
C137 C 0.55254 0.38144 0.58256 0.0
O138 O 0.55669 0.38408 0.55877 0.0
C139 C 0.66833 0.36763 0.58335 0.0
C140 C 0.74906 0.38558 0.65576 0.0
O141 O 0.74234 0.36213 0.64878 0.0
O142 O 0.73182 0.40126 0.65556 0.0
O143 O 0.80933 0.58886 0.19424 0.0
Cd144 Cd 0.82828 0.6002 0.23757 0.0
O145 O 0.83852 0.57018 0.17395 0.0
Cd146 Cd 0.86757 0.57458 0.20602 0.0
O147 O 0.90583 0.57586 0.22523 0.0
C148 C 0.92201 0.56424 0.21335 0.0
O149 O 0.91466 0.55205 0.19107 0.0
C150 C 0.8164 0.57788 0.1741 0.0
C151 C 0.78643 0.60917 0.26479 0.0
O152 O 0.79712 0.62663 0.25288 0.0
O153 O 0.79642 0.58793 0.26512 0.0
O154 O 0.23843 0.03904 0.4311 0.0
Cd155 Cd 0.23247 0.01763 0.38826 0.0
O156 O 0.20005 0.02885 0.44256 0.0
Cd157 Cd 0.18268 0.00931 0.40674 0.0
O158 O 0.14651 0.9962 0.38489 0.0
C159 C 0.12743 0.99535 0.39806 0.0
O160 O 0.13124 0.00159 0.42266 0.0
C161 C 0.2224 0.03965 0.44773 0.0
C162 C 0.27813 0.99888 0.37557 0.0
O163 O 0.27362 0.02183 0.37215 0.0
O164 O 0.26092 0.98472 0.38465 0.0
O165 O 0.24915 0.0098 0.76091 0.0
Cd166 Cd 0.23033 0.02587 0.72239 0.0
O167 O 0.2854 0.03223 0.75853 0.0
Cd168 Cd 0.32482 0.04589 0.77146 0.0
O169 O 0.36484 0.04366 0.78387 0.0
C170 C 0.3825 0.05477 0.77286 0.0
O171 O 0.37645 0.06883 0.75433 0.0
C172 C 0.27207 0.01603 0.76952 0.0
C173 C 0.18145 0.04005 0.72811 0.0
O174 O 0.18564 0.01668 0.72384 0.0
O175 O 0.20035 0.05693 0.72951 0.0
O176 O 0.63705 0.67807 0.34971 0.0
Cd177 Cd 0.67454 0.69358 0.32987 0.0
O178 O 0.64524 0.63871 0.35441 0.0
Cd179 Cd 0.63856 0.60001 0.36513 0.0
O180 O 0.63229 0.55957 0.36952 0.0
C181 C 0.61195 0.5504 0.37778 0.0
O182 O 0.59484 0.56576 0.38432 0.0
C183 C 0.63052 0.6564 0.35696 0.0
C184 C 0.67425 0.74618 0.3363 0.0
O185 O 0.66144 0.73328 0.31737 0.0
O186 O 0.68826 0.73436 0.35141 0.0
O187 O 0.73678 0.23594 0.98803 0.0
Cd188 Cd 0.69909 0.20717 0.99073 0.0
O189 O 0.71351 0.26832 0.98786 0.0
Cd190 Cd 0.70732 0.30796 0.98291 0.0
O191 O 0.71098 0.34905 0.9814 0.0
C192 C 0.72553 0.35889 0.96622 0.0
O193 O 0.73754 0.34393 0.95118 0.0
C194 C 0.73516 0.25959 0.98688 0.0
C195 C 0.71256 0.16153 0.00797 0.0
O196 O 0.71386 0.16597 0.98468 0.0
O197 O 0.70453 0.17857 0.02317 0.0
O198 O 0.23148 0.82732 0.60478 0.0
Cd199 Cd 0.27799 0.83275 0.60876 0.0
O200 O 0.22993 0.86464 0.62531 0.0
Cd201 Cd 0.21297 0.8983 0.64096 0.0
O202 O 0.20997 0.93876 0.65131 0.0
C203 C 0.23027 0.95179 0.6606 0.0
O204 O 0.25106 0.94012 0.6644 0.0
C205 C 0.21842 0.84424 0.61426 0.0
C206 C 0.29839 0.78787 0.5926 0.0
O207 O 0.2916 0.79159 0.61518 0.0
O208 O 0.29575 0.80548 0.5776 0.0
O209 O 0.41534 0.26443 0.0734 0.0
Cd210 Cd 0.37016 0.26927 0.07662 0.0
O211 O 0.40915 0.22744 0.05111 0.0
Cd212 Cd 0.41896 0.19238 0.03069 0.0
O213 O 0.42506 0.15404 0.01519 0.0
C214 C 0.40983 0.14277 0.9973 0.0
O215 O 0.39092 0.15478 0.98793 0.0
C216 C 0.42439 0.24528 0.06257 0.0
C217 C 0.35489 0.31393 0.05813 0.0
O218 O 0.36713 0.31431 0.08002 0.0
O219 O 0.34997 0.29253 0.04489 0.0
O220 O 0.37512 0.6204 0.67991 0.0
Cd221 Cd 0.38879 0.66328 0.69871 0.0
O222 O 0.39733 0.62549 0.64715 0.0
Cd223 Cd 0.40875 0.61415 0.60949 0.0
O224 O 0.41493 0.61675 0.5695 0.0
C225 C 0.41284 0.59753 0.55329 0.0
O226 O 0.40749 0.57483 0.56081 0.0
C227 C 0.38266 0.61152 0.6591 0.0
C228 C 0.39334 0.66411 0.75159 0.0
O229 O 0.37263 0.66924 0.73962 0.0
O230 O 0.41191 0.65882 0.73855 0.0
O231 O 0.01827 0.7711 0.24896 0.0
Cd232 Cd 0.04556 0.74113 0.23027 0.0
O233 O 0.03293 0.76659 0.28809 0.0
Cd234 Cd 0.03376 0.77222 0.32954 0.0
O235 O 0.03268 0.77763 0.37071 0.0
C236 C 0.04841 0.76748 0.38529 0.0
O237 O 0.06541 0.75395 0.37521 0.0
C238 C 0.01821 0.77701 0.27266 0.0
C239 C 0.05162 0.752 0.18039 0.0
O240 O 0.03327 0.73651 0.18554 0.0
O241 O 0.06734 0.76198 0.1988 0.0
O242 O 0.64669 0.23321 0.79739 0.0
Cd243 Cd 0.65508 0.27918 0.79794 0.0
O244 O 0.65499 0.23334 0.83863 0.0
Cd245 Cd 0.65512 0.21586 0.87464 0.0
O246 O 0.65174 0.20769 0.91405 0.0
C247 C 0.65406 0.22668 0.93054 0.0
O248 O 0.6587 0.24951 0.92303 0.0
C249 C 0.64806 0.22124 0.8172 0.0
C250 C 0.63959 0.2926 0.74981 0.0
O251 O 0.6632 0.29076 0.75619 0.0
O252 O 0.62363 0.28889 0.76637 0.0
O253 O 0.06662 0.33968 0.22579 0.0
Cd254 Cd 0.05484 0.29404 0.22266 0.0
O255 O 0.02795 0.34625 0.21116 0.0
Cd256 Cd 0.00043 0.37092 0.19579 0.0
O257 O 0.9794 0.39155 0.16819 0.0
C258 C 0.95997 0.38029 0.15515 0.0
O259 O 0.95232 0.35702 0.15971 0.0
C260 C 0.05034 0.35497 0.21963 0.0
C261 C 0.03957 0.28021 0.26911 0.0
O262 O 0.06273 0.27922 0.26392 0.0
O263 O 0.02366 0.28735 0.25216 0.0
H264 H 0.33357 0.65342 0.52181 0.0
H265 H 0.35566 0.5795 0.5376 0.0
H266 H 0.34484 0.6338 0.59909 0.0
C267 C 0.33903 0.64017 0.53537 0.0
C268 C 0.33835 0.64689 0.56157 0.0
C269 C 0.34559 0.616 0.52644 0.0
C270 C 0.35053 0.59816 0.54407 0.0
C271 C 0.34983 0.60458 0.57019 0.0
C272 C 0.34462 0.62904 0.5788 0.0
N273 N 0.35406 0.58673 0.58828 0.0
C274 C 0.35003 0.56065 0.58236 0.0
H275 H 0.30867 0.43045 0.98029 0.0
H276 H 0.30841 0.51153 0.98291 0.0
H277 H 0.3481 0.47769 0.04354 0.0
C278 C 0.3144 0.449 0.99 0.0
C279 C 0.32948 0.45103 0.01329 0.0
C280 C 0.30634 0.47064 0.97908 0.0
C281 C 0.31418 0.49478 0.99142 0.0
C282 C 0.32961 0.49728 0.01451 0.0
C283 C 0.33687 0.47543 0.02539 0.0
N284 N 0.33816 0.5214 0.02737 0.0
C285 C 0.33203 0.54449 0.01886 0.0
H286 H 0.68479 0.88193 0.43552 0.0
H287 H 0.6501 0.952 0.43055 0.0
H288 H 0.64464 0.89783 0.36522 0.0
C289 C 0.67421 0.89441 0.42429 0.0
C290 C 0.66576 0.88677 0.39876 0.0
C291 C 0.6687 0.91786 0.43584 0.0
C292 C 0.65427 0.93379 0.42178 0.0
C293 C 0.64546 0.92638 0.39635 0.0
C294 C 0.651 0.90289 0.38505 0.0
N295 N 0.63183 0.94274 0.38154 0.0
C296 C 0.63819 0.96878 0.38405 0.0
H297 H 0.73246 0.0405 0.10981 0.0
H298 H 0.75401 0.96546 0.08948 0.0
H299 H 0.74722 0.01802 0.03267 0.0
C300 C 0.73789 0.02652 0.09568 0.0
C301 C 0.73943 0.03271 0.07043 0.0
C302 C 0.74275 0.0022 0.10276 0.0
C303 C 0.74969 0.98411 0.0843 0.0
C304 C 0.75148 0.99002 0.05915 0.0
C305 C 0.74661 0.01423 0.05241 0.0
N306 N 0.75725 0.97155 0.0401 0.0
C307 C 0.74745 0.94639 0.03943 0.0
H308 H 0.53198 0.30597 0.62257 0.0
H309 H 0.54368 0.32262 0.54612 0.0
H310 H 0.60655 0.30525 0.59596 0.0
C311 C 0.5444 0.30842 0.60756 0.0
C312 C 0.57045 0.3055 0.61249 0.0
C313 C 0.53428 0.31437 0.5836 0.0
C314 C 0.55091 0.3173 0.5644 0.0
C315 C 0.57693 0.31374 0.56878 0.0
C316 C 0.58653 0.30807 0.59283 0.0
N317 N 0.59382 0.31547 0.54931 0.0
C318 C 0.58579 0.31997 0.52461 0.0
H319 H 0.09074 0.76271 0.03782 0.0
H320 H 0.06406 0.77314 0.96094 0.0
H321 H 0.01195 0.77346 0.0191 0.0
C322 C 0.07555 0.76654 0.02408 0.0
C323 C 0.05093 0.76831 0.03177 0.0
C324 C 0.0806 0.76848 0.99864 0.0
C325 C 0.06042 0.77157 0.98061 0.0
C326 C 0.03561 0.77316 0.98798 0.0
C327 C 0.0311 0.77206 0.01357 0.0
N328 N 0.0148 0.7752 0.96988 0.0
C329 C 0.01405 0.76407 0.94517 0.0
H330 H 0.93852 0.23779 0.3813 0.0
H331 H 0.9508 0.24141 0.46273 0.0
H332 H 0.0102 0.26974 0.41898 0.0
C333 C 0.95056 0.24335 0.39868 0.0
C334 C 0.97517 0.2548 0.39722 0.0
C335 C 0.94151 0.2385 0.4222 0.0
C336 C 0.95771 0.24485 0.44452 0.0
C337 C 0.98265 0.25588 0.44331 0.0
C338 C 0.99119 0.26073 0.41969 0.0
N339 N 0.99953 0.26259 0.46546 0.0
C340 C 0.9923 0.26145 0.49001 0.0
H341 H 0.43224 0.69507 0.90087 0.0
H342 H 0.40557 0.7027 0.97532 0.0
H343 H 0.35339 0.67542 0.91086 0.0
C344 C 0.41691 0.69311 0.91313 0.0
C345 C 0.39224 0.6846 0.90247 0.0
C346 C 0.42197 0.69952 0.9394 0.0
C347 C 0.4019 0.69738 0.95512 0.0
C348 C 0.37711 0.68876 0.9448 0.0
C349 C 0.37252 0.68215 0.91862 0.0
N350 N 0.35637 0.68698 0.96019 0.0
C351 C 0.35751 0.69861 0.98475 0.0
H352 H 0.6512 0.54454 0.31224 0.0
H353 H 0.57445 0.56403 0.29936 0.0
H354 H 0.63628 0.62186 0.30154 0.0
C355 C 0.63796 0.55874 0.30913 0.0
C356 C 0.64728 0.58404 0.30703 0.0
C357 C 0.61172 0.5513 0.30654 0.0
C358 C 0.59461 0.56972 0.30209 0.0
C359 C 0.60352 0.59519 0.30025 0.0
C360 C 0.62972 0.60218 0.30294 0.0
N361 N 0.58672 0.61411 0.29506 0.0
C362 C 0.56045 0.60923 0.29142 0.0
H363 H 0.0498 0.13291 0.73465 0.0
H364 H 0.97151 0.1024 0.72665 0.0
H365 H 0.03064 0.05183 0.72609 0.0
C366 C 0.03584 0.11663 0.73227 0.0
C367 C 0.04387 0.09187 0.73059 0.0
C368 C 0.00978 0.12059 0.73054 0.0
C369 C 0.99159 0.09949 0.72757 0.0
C370 C 0.99935 0.07473 0.72662 0.0
C371 C 0.02525 0.07114 0.72795 0.0
N372 N 0.98179 0.05286 0.72461 0.0
C373 C 0.9563 0.05241 0.71598 0.0
H374 H 0.39925 0.9396 0.3137 0.0
H375 H 0.48059 0.93896 0.3262 0.0
H376 H 0.44156 0.99343 0.36936 0.0
C377 C 0.41725 0.94699 0.32381 0.0
C378 C 0.41761 0.96738 0.34245 0.0
C379 C 0.4398 0.93642 0.31778 0.0
C380 C 0.46311 0.94714 0.33032 0.0
C381 C 0.46377 0.96791 0.34878 0.0
C382 C 0.441 0.97775 0.35482 0.0
N383 N 0.4869 0.97908 0.36196 0.0
C384 C 0.51091 0.97461 0.35463 0.0
H385 H 0.8963 0.45081 0.68778 0.0
H386 H 0.96715 0.43236 0.72423 0.0
H387 H 0.908 0.37319 0.70061 0.0
C388 C 0.90819 0.43687 0.69511 0.0
C389 C 0.89884 0.41112 0.69303 0.0
C390 C 0.93275 0.44481 0.70648 0.0
C391 C 0.94837 0.42642 0.71509 0.0
C392 C 0.93952 0.40051 0.71254 0.0
C393 C 0.91487 0.3931 0.70162 0.0
N394 N 0.95465 0.38146 0.72128 0.0
C395 C 0.97822 0.3867 0.73498 0.0
H396 H 0.64564 0.31526 0.43734 0.0
H397 H 0.61404 0.38562 0.42286 0.0
H398 H 0.61783 0.32831 0.36159 0.0
C399 C 0.63701 0.32739 0.42425 0.0
C400 C 0.63316 0.31899 0.39832 0.0
C401 C 0.63016 0.35133 0.4335 0.0
C402 C 0.61921 0.36703 0.4162 0.0
C403 C 0.6149 0.35864 0.39021 0.0
C404 C 0.62149 0.33461 0.38158 0.0
N405 N 0.60387 0.37382 0.3722 0.0
C406 C 0.60716 0.40016 0.37444 0.0
H407 H 0.73644 0.60753 0.0475 0.0
H408 H 0.74887 0.53211 0.01752 0.0
H409 H 0.70474 0.5794 0.97231 0.0
C410 C 0.73333 0.59234 0.03233 0.0
C411 C 0.71894 0.59621 0.00978 0.0
C412 C 0.74427 0.56933 0.0353 0.0
C413 C 0.74067 0.54997 0.01529 0.0
C414 C 0.72647 0.5537 0.99249 0.0
C415 C 0.716 0.57688 0.98978 0.0
N416 N 0.72211 0.53448 0.97202 0.0
C417 C 0.72375 0.50885 0.97501 0.0
H418 H 0.24792 0.14995 0.56216 0.0
H419 H 0.21816 0.09374 0.60835 0.0
H420 H 0.23933 0.16998 0.64133 0.0
C421 C 0.24234 0.14486 0.58044 0.0
C422 C 0.24499 0.16329 0.60135 0.0
C423 C 0.2323 0.1199 0.58272 0.0
C424 C 0.22561 0.11308 0.60651 0.0
C425 C 0.22848 0.13108 0.6278 0.0
C426 C 0.23776 0.15614 0.62497 0.0
N427 N 0.22224 0.12447 0.6522 0.0
C428 C 0.21788 0.09938 0.6578 0.0
H429 H 0.32621 0.92008 0.87319 0.0
H430 H 0.37426 0.98857 0.89556 0.0
H431 H 0.38026 0.92409 0.93916 0.0
C432 C 0.34113 0.93038 0.88608 0.0
C433 C 0.35217 0.91865 0.90669 0.0
C434 C 0.34935 0.95541 0.88185 0.0
C435 C 0.36807 0.96921 0.89883 0.0
C436 C 0.37878 0.95805 0.91987 0.0
C437 C 0.37127 0.93269 0.92329 0.0
N438 N 0.397 0.97189 0.93796 0.0
C439 C 0.39854 0.99821 0.94228 0.0
H440 H 0.49217 0.6574 0.34136 0.0
H441 H 0.47146 0.60064 0.39112 0.0
H442 H 0.41348 0.63054 0.34373 0.0
C443 C 0.47748 0.64539 0.34875 0.0
C444 C 0.45191 0.64596 0.33957 0.0
C445 C 0.48471 0.62892 0.36695 0.0
C446 C 0.46598 0.6136 0.37724 0.0
C447 C 0.44017 0.61481 0.36916 0.0
C448 C 0.43337 0.63062 0.35024 0.0
N449 N 0.42062 0.59957 0.3789 0.0
C450 C 0.42116 0.59436 0.40418 0.0
H451 H 0.8449 0.34918 0.92938 0.0
H452 H 0.85209 0.38712 0.00482 0.0
H453 H 0.90318 0.41031 0.95047 0.0
C454 C 0.85421 0.36375 0.9433 0.0
C455 C 0.87522 0.37915 0.9369 0.0
C456 C 0.84553 0.36655 0.96771 0.0
C457 C 0.8582 0.38507 0.98579 0.0
C458 C 0.87901 0.4008 0.97955 0.0
C459 C 0.88706 0.39812 0.95504 0.0
N460 N 0.89274 0.41875 0.99793 0.0
C461 C 0.89683 0.41371 0.02318 0.0
H462 H 0.07936 0.77811 0.63119 0.0
H463 H 0.06023 0.80062 0.55632 0.0
H464 H 0.00285 0.7627 0.59615 0.0
C465 C 0.06534 0.77935 0.61538 0.0
C466 C 0.04023 0.7689 0.61642 0.0
C467 C 0.07267 0.79084 0.59377 0.0
C468 C 0.05462 0.79183 0.57303 0.0
C469 C 0.0293 0.78198 0.57411 0.0
C470 C 0.02225 0.77086 0.59585 0.0
N471 N 0.01051 0.78259 0.55357 0.0
C472 C 0.01614 0.78571 0.5288 0.0
H473 H 0.55687 0.24173 0.13443 0.0
H474 H 0.58115 0.19436 0.07302 0.0
H475 H 0.63082 0.213 0.14133 0.0
C476 C 0.57125 0.23062 0.12671 0.0
C477 C 0.5944 0.22897 0.14116 0.0
C478 C 0.56621 0.21789 0.10238 0.0
C479 C 0.58494 0.20407 0.09189 0.0
C480 C 0.60849 0.20275 0.10584 0.0
C481 C 0.61284 0.21465 0.13057 0.0
N482 N 0.62819 0.18983 0.0953 0.0
C483 C 0.63164 0.18907 0.06954 0.0
H484 H 0.3351 0.46863 0.66236 0.0
H485 H 0.39501 0.44706 0.61681 0.0
H486 H 0.34928 0.39022 0.64996 0.0
C487 C 0.34575 0.45422 0.65371 0.0
C488 C 0.33939 0.42872 0.65782 0.0
C489 C 0.36581 0.46139 0.63906 0.0
C490 C 0.37977 0.44222 0.62847 0.0
C491 C 0.37362 0.41656 0.63242 0.0
C492 C 0.35344 0.41002 0.64683 0.0
N493 N 0.38705 0.39663 0.62205 0.0
C494 C 0.41032 0.39992 0.61184 0.0
H495 H 0.90911 0.86996 0.32019 0.0
H496 H 0.97763 0.919 0.33965 0.0
H497 H 0.90548 0.9506 0.33599 0.0
C498 C 0.91845 0.88885 0.32515 0.0
C499 C 0.90376 0.9098 0.32727 0.0
C500 C 0.94512 0.89198 0.32922 0.0
C501 C 0.95707 0.91631 0.3369 0.0
C502 C 0.94268 0.93737 0.33985 0.0
C503 C 0.91621 0.93405 0.33464 0.0
N504 N 0.95432 0.96222 0.34735 0.0
C505 C 0.97965 0.9671 0.35683 0.0
H506 H 0.63733 0.07508 0.76413 0.0
H507 H 0.56259 0.07201 0.79008 0.0
H508 H 0.59247 0.00316 0.76187 0.0
C509 C 0.62031 0.06382 0.76804 0.0
C510 C 0.61753 0.03747 0.76133 0.0
C511 C 0.60073 0.07622 0.77867 0.0
C512 C 0.57781 0.06231 0.78216 0.0
C513 C 0.57491 0.03586 0.77609 0.0
C514 C 0.59492 0.02357 0.76624 0.0
N515 N 0.55205 0.02111 0.77946 0.0
C516 C 0.52862 0.03116 0.77982 0.0
H517 H 0.15416 0.48472 0.25641 0.0
H518 H 0.08197 0.51299 0.23655 0.0
H519 H 0.14409 0.5639 0.27253 0.0
C520 C 0.14218 0.50034 0.25568 0.0
C521 C 0.1523 0.52478 0.26543 0.0
C522 C 0.11685 0.49581 0.24518 0.0
C523 C 0.10145 0.51625 0.24477 0.0
C524 C 0.11126 0.54086 0.25473 0.0
C525 C 0.13668 0.54497 0.26477 0.0
N526 N 0.09608 0.56182 0.25513 0.0
C527 C 0.07041 0.55982 0.24669 0.0
H528 H 0.26471 0.52249 0.31393 0.0
H529 H 0.275 0.59103 0.27571 0.0
H530 H 0.22978 0.58705 0.26098 0.0
H531 H 0.18753 0.56327 0.25792 0.0
H532 H 0.17746 0.49542 0.2973 0.0
H533 H 0.22241 0.49996 0.31256 0.0
C534 C 0.2571 0.53655 0.30235 0.0
C535 C 0.27324 0.5569 0.29577 0.0
C536 C 0.23111 0.53426 0.29413 0.0
C537 C 0.26299 0.57512 0.28098 0.0
C538 C 0.23713 0.57287 0.27256 0.0
C539 C 0.19512 0.54969 0.27013 0.0
C540 C 0.17921 0.52891 0.27625 0.0
C541 C 0.22102 0.55245 0.27894 0.0
C542 C 0.18939 0.51134 0.29192 0.0
C543 C 0.21507 0.51396 0.30074 0.0
H544 H 0.24623 0.38633 0.71524 0.0
H545 H 0.26395 0.45882 0.75879 0.0
H546 H 0.29939 0.46846 0.73341 0.0
H547 H 0.32588 0.45595 0.69993 0.0
H548 H 0.30546 0.38595 0.65249 0.0
H549 H 0.27116 0.37526 0.67898 0.0
C550 C 0.25782 0.40426 0.71903 0.0
C551 C 0.25255 0.42183 0.73885 0.0
C552 C 0.27787 0.40997 0.70395 0.0
C553 C 0.26754 0.44507 0.74351 0.0
C554 C 0.28789 0.45054 0.72911 0.0
C555 C 0.31366 0.43861 0.69482 0.0
C556 C 0.31841 0.42192 0.67399 0.0
C557 C 0.29324 0.43311 0.70934 0.0
C558 C 0.30271 0.39907 0.66857 0.0
C559 C 0.28285 0.39303 0.68357 0.0
H560 H 0.71296 0.00309 0.70709 0.0
H561 H 0.65508 0.9507 0.66524 0.0
H562 H 0.62281 0.9675 0.69095 0.0
H563 H 0.61088 0.99851 0.72371 0.0
H564 H 0.66943 0.04823 0.76834 0.0
H565 H 0.70155 0.03118 0.74292 0.0
C566 C 0.69327 0.99536 0.70368 0.0
C567 C 0.68629 0.97593 0.68417 0.0
C568 C 0.67495 0.0047 0.7189 0.0
C569 C 0.66085 0.96571 0.68016 0.0
C570 C 0.64241 0.97534 0.69481 0.0
C571 C 0.63069 0.00528 0.72838 0.0
C572 C 0.63751 0.02496 0.7478 0.0
C573 C 0.64923 0.99496 0.7141 0.0
C574 C 0.66339 0.03361 0.75312 0.0
C575 C 0.68187 0.02375 0.73869 0.0
H576 H 0.78886 0.88431 0.28413 0.0
H577 H 0.77822 0.94439 0.34119 0.0
H578 H 0.82377 0.94808 0.35472 0.0
H579 H 0.86671 0.93484 0.34959 0.0
H580 H 0.87732 0.87733 0.2897 0.0
H581 H 0.83169 0.87174 0.27846 0.0
C582 C 0.79646 0.89806 0.29969 0.0
C583 C 0.78018 0.91396 0.31173 0.0
C584 C 0.8227 0.90052 0.30691 0.0
C585 C 0.79038 0.93192 0.33162 0.0
C586 C 0.81641 0.93405 0.33934 0.0
C587 C 0.85914 0.92124 0.33392 0.0
C588 C 0.87566 0.90642 0.32072 0.0
C589 C 0.8328 0.91861 0.32694 0.0
C590 C 0.86522 0.88863 0.30069 0.0
C591 C 0.83906 0.88555 0.29403 0.0
H592 H 0.30365 0.2724 0.6023 0.0
H593 H 0.26837 0.26552 0.52554 0.0
H594 H 0.2461 0.22487 0.53275 0.0
H595 H 0.23767 0.19089 0.56033 0.0
H596 H 0.27646 0.19551 0.63565 0.0
H597 H 0.29564 0.2378 0.6298 0.0
C598 C 0.29092 0.26207 0.58724 0.0
C599 C 0.2876 0.27194 0.56344 0.0
C600 C 0.27872 0.23838 0.5913 0.0
C601 C 0.2713 0.25825 0.54399 0.0
C602 C 0.25854 0.23504 0.54811 0.0
C603 C 0.25057 0.2009 0.57542 0.0
C604 C 0.25564 0.18974 0.59836 0.0
C605 C 0.26236 0.22479 0.57159 0.0
C606 C 0.27183 0.20358 0.6179 0.0
C607 C 0.28305 0.22773 0.61449 0.0
H608 H 0.31122 0.80309 0.90696 0.0
H609 H 0.31992 0.82314 0.98795 0.0
H610 H 0.3361 0.86625 0.98103 0.0
H611 H 0.34598 0.89873 0.95201 0.0
H612 H 0.33905 0.87829 0.87106 0.0
H613 H 0.32351 0.83503 0.87798 0.0
C614 C 0.31679 0.81684 0.92311 0.0
C615 C 0.31425 0.80989 0.94793 0.0
C616 C 0.32613 0.84163 0.91901 0.0
C617 C 0.32168 0.82794 0.96864 0.0
C618 C 0.33086 0.85265 0.9647 0.0
C619 C 0.34149 0.88477 0.93585 0.0
C620 C 0.34358 0.89196 0.91102 0.0
C621 C 0.33296 0.85976 0.93997 0.0
C622 C 0.33718 0.87356 0.89036 0.0
C623 C 0.32847 0.8487 0.8943 0.0
H624 H 0.69264 0.23115 0.3506 0.0
H625 H 0.67345 0.19778 0.41903 0.0
H626 H 0.64746 0.23267 0.42938 0.0
H627 H 0.63304 0.27419 0.42071 0.0
H628 H 0.65572 0.30929 0.35424 0.0
H629 H 0.67664 0.27176 0.34099 0.0
C630 C 0.68251 0.23132 0.36761 0.0
C631 C 0.6851 0.21199 0.3841 0.0
C632 C 0.66815 0.25175 0.37378 0.0
C633 C 0.67191 0.21254 0.40611 0.0
C634 C 0.65705 0.23248 0.41204 0.0
C635 C 0.6426 0.27372 0.40335 0.0
C636 C 0.64296 0.29477 0.3887 0.0
C637 C 0.65554 0.25249 0.39633 0.0
C638 C 0.65484 0.29338 0.36585 0.0
C639 C 0.6671 0.27199 0.35835 0.0
H640 H 0.67009 0.69712 0.98371 0.0
H641 H 0.64862 0.69357 0.06038 0.0
H642 H 0.6699 0.65469 0.06408 0.0
H643 H 0.69385 0.6213 0.04539 0.0
H644 H 0.71582 0.62481 0.96896 0.0
H645 H 0.69476 0.66394 0.96522 0.0
C646 C 0.67012 0.68788 0.00126 0.0
C647 C 0.65776 0.69827 0.02173 0.0
C648 C 0.68234 0.66546 0.00326 0.0
C649 C 0.65797 0.68602 0.04431 0.0
C650 C 0.67012 0.66376 0.04646 0.0
C651 C 0.69431 0.63078 0.02801 0.0
C652 C 0.70645 0.62017 0.00751 0.0
C653 C 0.6823 0.65329 0.02604 0.0
C654 C 0.7064 0.63243 0.98493 0.0
C655 C 0.69448 0.65488 0.98283 0.0
H656 H 0.62936 0.29736 0.24324 0.0
H657 H 0.55052 0.27982 0.25569 0.0
H658 H 0.54434 0.25247 0.216 0.0
H659 H 0.56089 0.23454 0.17731 0.0
H660 H 0.63888 0.25447 0.16315 0.0
H661 H 0.64599 0.27924 0.20432 0.0
C662 C 0.61087 0.28743 0.23734 0.0
C663 C 0.59042 0.29067 0.25238 0.0
C664 C 0.60732 0.27205 0.21426 0.0
C665 C 0.56655 0.27777 0.24441 0.0
C666 C 0.56299 0.26209 0.22173 0.0
C667 C 0.57941 0.24447 0.18306 0.0
C668 C 0.59925 0.2427 0.16696 0.0
C669 C 0.58317 0.25931 0.20639 0.0
C670 C 0.6233 0.25518 0.17518 0.0
C671 C 0.62734 0.26958 0.19866 0.0
H672 H 0.90352 0.34702 0.82585 0.0
H673 H 0.97918 0.35804 0.86411 0.0
H674 H 0.96175 0.37157 0.90376 0.0
H675 H 0.92502 0.37831 0.92804 0.0
H676 H 0.84933 0.36812 0.88988 0.0
H677 H 0.86681 0.35608 0.84975 0.0
C678 C 0.91621 0.35246 0.84284 0.0
C679 C 0.94261 0.35134 0.84202 0.0
C680 C 0.90606 0.36028 0.86562 0.0
C681 C 0.95878 0.35863 0.86419 0.0
C682 C 0.94884 0.36638 0.8869 0.0
C683 C 0.91234 0.37394 0.91087 0.0
C684 C 0.88588 0.37408 0.91202 0.0
C685 C 0.92251 0.36707 0.88788 0.0
C686 C 0.86975 0.36787 0.88962 0.0
C687 C 0.87973 0.36105 0.86664 0.0
H688 H 0.40794 0.71435 0.25623 0.0
H689 H 0.48142 0.7046 0.22863 0.0
H690 H 0.49164 0.6779 0.26282 0.0
H691 H 0.48018 0.65821 0.3006 0.0
H692 H 0.40781 0.66965 0.33017 0.0
H693 H 0.3966 0.69453 0.29483 0.0
C694 C 0.4261 0.70618 0.25757 0.0
C695 C 0.44388 0.71142 0.23986 0.0
C696 C 0.43205 0.69117 0.27757 0.0
C697 C 0.46742 0.70091 0.24202 0.0
C698 C 0.47328 0.68565 0.26157 0.0
C699 C 0.462 0.66619 0.29966 0.0
C700 C 0.44493 0.66169 0.31824 0.0
C701 C 0.45584 0.68087 0.27956 0.0
C702 C 0.4213 0.67218 0.31607 0.0
C703 C 0.41489 0.68664 0.2959 0.0
H704 H 0.99176 0.71104 0.70311 0.0
H705 H 0.06225 0.67537 0.70192 0.0
H706 H 0.07582 0.7021 0.66922 0.0
H707 H 0.06713 0.73457 0.63996 0.0
H708 H 0.99695 0.77067 0.64134 0.0
H709 H 0.98377 0.74471 0.6749 0.0
C710 C 0.0101 0.70912 0.69572 0.0
C711 C 0.0259 0.69113 0.7049 0.0
C712 C 0.01784 0.7246 0.67692 0.0
C713 C 0.04967 0.68901 0.69519 0.0
C714 C 0.05747 0.7043 0.67648 0.0
C715 C 0.04914 0.73708 0.64789 0.0
C716 C 0.03306 0.75455 0.63814 0.0
C717 C 0.04167 0.72208 0.66713 0.0
C718 C 0.00958 0.75719 0.64832 0.0
C719 C 0.00205 0.74239 0.66755 0.0
H720 H 0.79089 0.36073 0.64698 0.0
H721 H 0.76747 0.43009 0.68276 0.0
H722 H 0.81169 0.44417 0.69718 0.0
H723 H 0.85671 0.43621 0.70071 0.0
H724 H 0.88054 0.36801 0.66277 0.0
H725 H 0.83636 0.35391 0.64844 0.0
C726 C 0.79547 0.37892 0.65794 0.0
C727 C 0.77592 0.39427 0.66393 0.0
C728 C 0.82097 0.38705 0.66589 0.0
C729 C 0.78217 0.41792 0.67789 0.0
C730 C 0.80745 0.42597 0.68618 0.0
C731 C 0.85238 0.41847 0.68892 0.0
C732 C 0.87205 0.40319 0.68297 0.0
C733 C 0.82698 0.41065 0.68035 0.0
C734 C 0.86584 0.38 0.66806 0.0
C735 C 0.84056 0.37196 0.65971 0.0
H736 H 0.7658 0.58444 0.30239 0.0
H737 H 0.75106 0.64047 0.24955 0.0
H738 H 0.70689 0.63954 0.25983 0.0
H739 H 0.67145 0.61839 0.27915 0.0
H740 H 0.68655 0.56494 0.33481 0.0
H741 H 0.73158 0.56922 0.3279 0.0
C742 C 0.75301 0.59678 0.29351 0.0
C743 C 0.76155 0.6122 0.27498 0.0
C744 C 0.72763 0.59629 0.29963 0.0
C745 C 0.74493 0.62838 0.26386 0.0
C746 C 0.71961 0.62775 0.2696 0.0
C747 C 0.68453 0.60821 0.29044 0.0
C748 C 0.67524 0.5907 0.30689 0.0
C749 C 0.71056 0.61115 0.28683 0.0
C750 C 0.69283 0.57776 0.32121 0.0
C751 C 0.7187 0.58033 0.31743 0.0
H752 H 0.3217 0.02619 0.36635 0.0
H753 H 0.28951 0.94951 0.37148 0.0
H754 H 0.32978 0.93313 0.36177 0.0
H755 H 0.37414 0.9405 0.35189 0.0
H756 H 0.40688 0.01707 0.34778 0.0
H757 H 0.36649 0.03363 0.35732 0.0
C758 C 0.32348 0.00589 0.36526 0.0
C759 C 0.30258 0.9891 0.36951 0.0
C760 C 0.34682 0.9966 0.36 0.0
C761 C 0.30528 0.96286 0.3683 0.0
C762 C 0.3283 0.95346 0.36274 0.0
C763 C 0.37237 0.96081 0.35297 0.0
C764 C 0.39339 0.97754 0.34902 0.0
C765 C 0.34918 0.97015 0.35855 0.0
C766 C 0.391 0.00383 0.35091 0.0
C767 C 0.36789 0.01328 0.35623 0.0
H768 H 0.1606 0.08298 0.71518 0.0
H769 H 0.14427 0.01278 0.74902 0.0
H770 H 0.10111 0.02388 0.75506 0.0
H771 H 0.06798 0.05294 0.75004 0.0
H772 H 0.08223 0.12058 0.71102 0.0
H773 H 0.12645 0.11159 0.70869 0.0
C774 C 0.14757 0.07024 0.72399 0.0
C775 C 0.15553 0.04716 0.73174 0.0
C776 C 0.1225 0.07639 0.7267 0.0
C777 C 0.13846 0.0306 0.74282 0.0
C778 C 0.11384 0.03697 0.74634 0.0
C779 C 0.0805 0.06562 0.74063 0.0
C780 C 0.07141 0.08738 0.73062 0.0
C781 C 0.10559 0.0597 0.73815 0.0
C782 C 0.08851 0.1039 0.71933 0.0
C783 C 0.11384 0.09862 0.71768 0.0
H784 H 0.70618 0.78103 0.36604 0.0
H785 H 0.63477 0.77227 0.31966 0.0
H786 H 0.62615 0.81544 0.3341 0.0
H787 H 0.6371 0.854 0.36293 0.0
H788 H 0.7101 0.86392 0.40687 0.0
H789 H 0.7196 0.8218 0.39065 0.0
C790 C 0.68889 0.78871 0.35886 0.0
C791 C 0.67104 0.77343 0.34203 0.0
C792 C 0.6841 0.81357 0.36714 0.0
C793 C 0.64884 0.78368 0.33263 0.0
C794 C 0.64381 0.80831 0.341 0.0
C795 C 0.65533 0.84729 0.36862 0.0
C796 C 0.6725 0.86207 0.38669 0.0
C797 C 0.66106 0.82322 0.35869 0.0
C798 C 0.696 0.85273 0.39377 0.0
C799 C 0.70163 0.82869 0.38429 0.0
H800 H 0.6952 0.13696 0.04701 0.0
H801 H 0.74797 0.13257 0.98916 0.0
H802 H 0.76211 0.09327 0.00443 0.0
H803 H 0.75952 0.06036 0.03413 0.0
H804 H 0.70298 0.06194 0.08868 0.0
H805 H 0.69097 0.1025 0.07535 0.0
C806 C 0.70984 0.12738 0.03784 0.0
C807 C 0.72063 0.13762 0.0171 0.0
C808 C 0.71741 0.10444 0.04628 0.0
C809 C 0.73933 0.12494 0.00511 0.0
C810 C 0.74747 0.10253 0.01388 0.0
C811 C 0.74429 0.06926 0.04294 0.0
C812 C 0.73241 0.05789 0.06258 0.0
C813 C 0.73658 0.09207 0.03439 0.0
C814 C 0.71308 0.07031 0.074 0.0
C815 C 0.7059 0.09346 0.06617 0.0
H816 H 0.29278 0.74293 0.61339 0.0
H817 H 0.32648 0.77862 0.55227 0.0
H818 H 0.34274 0.73846 0.53783 0.0
H819 H 0.34715 0.69318 0.54253 0.0
H820 H 0.30989 0.65704 0.6016 0.0
H821 H 0.29586 0.69752 0.61715 0.0
C822 C 0.30379 0.74196 0.59698 0.0
C823 C 0.30852 0.76372 0.58399 0.0
C824 C 0.31261 0.71874 0.58849 0.0
C825 C 0.32255 0.76209 0.56257 0.0
C826 C 0.33188 0.73916 0.55433 0.0
C827 C 0.33573 0.69402 0.55863 0.0
C828 C 0.32991 0.67192 0.57093 0.0
C829 C 0.32691 0.71731 0.56707 0.0
C830 C 0.31535 0.67369 0.59204 0.0
C831 C 0.30702 0.69685 0.60086 0.0
H832 H 0.37933 0.3612 0.06577 0.0
H833 H 0.31148 0.31919 0.02889 0.0
H834 H 0.29679 0.35822 0.01336 0.0
H835 H 0.3032 0.40397 0.01047 0.0
H836 H 0.37396 0.44504 0.04216 0.0
H837 H 0.38706 0.40688 0.0603 0.0
C838 C 0.36132 0.36069 0.05436 0.0
C839 C 0.3464 0.33749 0.04854 0.0
C840 C 0.35341 0.38304 0.0448 0.0
C841 C 0.32328 0.33688 0.03349 0.0
C842 C 0.31486 0.35917 0.0247 0.0
C843 C 0.32177 0.40467 0.02083 0.0
C844 C 0.33746 0.42768 0.02475 0.0
C845 C 0.32984 0.38233 0.03015 0.0
C846 C 0.36108 0.42797 0.03912 0.0
C847 C 0.36879 0.406 0.04932 0.0
H848 H 0.36011 0.68054 0.78466 0.0
H849 H 0.43231 0.64834 0.78155 0.0
H850 H 0.43729 0.64994 0.82784 0.0
H851 H 0.42192 0.66178 0.86917 0.0
H852 H 0.35107 0.69653 0.87246 0.0
H853 H 0.34444 0.69186 0.82617 0.0
C854 C 0.37689 0.67377 0.7941 0.0
C855 C 0.39586 0.66445 0.77964 0.0
C856 C 0.37979 0.67502 0.82078 0.0
C857 C 0.41748 0.65575 0.7922 0.0
C858 C 0.42033 0.65661 0.81869 0.0
C859 C 0.40508 0.66848 0.8598 0.0
C860 C 0.38712 0.67963 0.87439 0.0
C861 C 0.40175 0.66646 0.83316 0.0
C862 C 0.36509 0.6876 0.86183 0.0
C863 C 0.3614 0.68518 0.83531 0.0
H864 H 0.01999 0.73611 0.1381 0.0
H865 H 0.08962 0.78239 0.16342 0.0
H866 H 0.09468 0.79267 0.11993 0.0
H867 H 0.07993 0.78779 0.07464 0.0
H868 H 0.01096 0.74066 0.04904 0.0
H869 H 0.00473 0.73199 0.09281 0.0
C870 C 0.03628 0.74845 0.13412 0.0
C871 C 0.05447 0.75833 0.15399 0.0
C872 C 0.03908 0.75432 0.10906 0.0
C873 C 0.07537 0.77443 0.1485 0.0
C874 C 0.07827 0.78036 0.12363 0.0
C875 C 0.06355 0.77557 0.07863 0.0
C876 C 0.046 0.76483 0.05856 0.0
C877 C 0.06034 0.77029 0.10376 0.0
C878 C 0.02463 0.74942 0.06412 0.0
C879 C 0.02117 0.74425 0.08913 0.0
H880 H 0.59483 0.27536 0.72421 0.0
H881 H 0.6649 0.32046 0.71697 0.0
H882 H 0.64975 0.32852 0.67363 0.0
H883 H 0.61604 0.32333 0.63832 0.0
H884 H 0.54796 0.27433 0.64465 0.0
H885 H 0.5628 0.26746 0.68796 0.0
C886 C 0.60671 0.28705 0.71316 0.0
C887 C 0.63074 0.29761 0.72376 0.0
C888 C 0.59821 0.29094 0.68816 0.0
C889 C 0.64625 0.31225 0.70914 0.0
C890 C 0.6376 0.31684 0.68442 0.0
C891 C 0.6046 0.31081 0.64897 0.0
C892 C 0.58065 0.29977 0.63824 0.0
C893 C 0.61357 0.30628 0.67374 0.0
C894 C 0.56609 0.28375 0.65256 0.0
C895 C 0.57464 0.27961 0.67732 0.0
H896 H 0.99359 0.28566 0.28711 0.0
H897 H 0.06749 0.26045 0.30729 0.0
H898 H 0.0542 0.25043 0.34875 0.0
H899 H 0.02142 0.24864 0.37921 0.0
H900 H 0.94805 0.2751 0.3591 0.0
H901 H 0.96127 0.28458 0.31761 0.0
C902 C 0.00679 0.2779 0.30053 0.0
C903 C 0.03146 0.27375 0.29407 0.0
C904 C 0.99911 0.27235 0.32435 0.0
C905 C 0.04837 0.26383 0.31177 0.0
C906 C 0.0408 0.25809 0.33549 0.0
C907 C 0.00842 0.25669 0.36583 0.0
C908 C 0.98373 0.26099 0.37223 0.0
C909 C 0.01621 0.26233 0.34201 0.0
C910 C 0.96702 0.27119 0.35453 0.0
C911 C 0.97459 0.27676 0.33083 0.0
H912 H 0.34279 0.5706 0.41215 0.0
H913 H 0.37273 0.64722 0.40305 0.0
H914 H 0.37219 0.65833 0.44866 0.0
H915 H 0.36307 0.64628 0.49105 0.0
H916 H 0.33094 0.57015 0.49936 0.0
H917 H 0.33319 0.55877 0.45425 0.0
C918 C 0.34914 0.58977 0.42009 0.0
C919 C 0.35756 0.6081 0.40414 0.0
C920 C 0.34858 0.59609 0.44625 0.0
C921 C 0.36584 0.63281 0.41483 0.0
C922 C 0.36561 0.63917 0.44093 0.0
C923 C 0.35617 0.6273 0.48297 0.0
C924 C 0.34681 0.60918 0.49875 0.0
C925 C 0.35687 0.62099 0.45679 0.0
C926 C 0.33861 0.58447 0.48791 0.0
C927 C 0.33967 0.57795 0.462 0.0
H928 H 0.22074 0.46669 0.88821 0.0
H929 H 0.26261 0.40525 0.85992 0.0
H930 H 0.29347 0.41325 0.89695 0.0
H931 H 0.30841 0.43734 0.93742 0.0
H932 H 0.26546 0.49734 0.96697 0.0
H933 H 0.23567 0.49074 0.92897 0.0
C934 C 0.23661 0.45503 0.89012 0.0
C935 C 0.23926 0.43533 0.8713 0.0
C936 C 0.25426 0.45964 0.91156 0.0
C937 C 0.25998 0.42045 0.87413 0.0
C938 C 0.27771 0.42505 0.89528 0.0
C939 C 0.29241 0.44885 0.93571 0.0
C940 C 0.28918 0.46773 0.95517 0.0
C941 C 0.27497 0.44452 0.91415 0.0
C942 C 0.26866 0.48287 0.95222 0.0
C943 C 0.25145 0.47895 0.93058 0.0
H944 H 0.69346 0.94958 0.55324 0.0
H945 H 0.76858 0.93344 0.53387 0.0
H946 H 0.75256 0.9234 0.48951 0.0
H947 H 0.71711 0.91808 0.45631 0.0
H948 H 0.64222 0.93536 0.47486 0.0
H949 H 0.65825 0.9463 0.5194 0.0
C950 C 0.70631 0.94391 0.53929 0.0
C951 C 0.73215 0.94212 0.54692 0.0
C952 C 0.69703 0.93839 0.51368 0.0
C953 C 0.74862 0.93501 0.52855 0.0
C954 C 0.73948 0.9292 0.50316 0.0
C955 C 0.70434 0.92423 0.47016 0.0
C956 C 0.67853 0.92572 0.46249 0.0
C957 C 0.71371 0.93063 0.49556 0.0
C958 C 0.66219 0.93413 0.48042 0.0
C959 C 0.67133 0.94027 0.50585 0.0
H960 H 0.73217 0.99116 0.21955 0.0
H961 H 0.70112 0.91597 0.18948 0.0
H962 H 0.70871 0.92641 0.14653 0.0
H963 H 0.72254 0.95732 0.11744 0.0
H964 H 0.75574 0.0318 0.14755 0.0
H965 H 0.74847 0.02129 0.19054 0.0
C966 C 0.7271 0.97704 0.20361 0.0
C967 C 0.71595 0.95288 0.20772 0.0
C968 C 0.73171 0.98309 0.17896 0.0
C969 C 0.70974 0.93471 0.18687 0.0
C970 C 0.71401 0.94068 0.16228 0.0
C971 C 0.72865 0.97115 0.13338 0.0
C972 C 0.73958 0.99539 0.12913 0.0
C973 C 0.72483 0.96485 0.1581 0.0
C974 C 0.74686 0.01317 0.15013 0.0
C975 C 0.74287 0.00712 0.17477 0.0
H976 H 0.41828 0.32001 0.54579 0.0
H977 H 0.41478 0.3421 0.6256 0.0
H978 H 0.4602 0.33826 0.63338 0.0
H979 H 0.50103 0.33097 0.61734 0.0
H980 H 0.50397 0.30393 0.53847 0.0
H981 H 0.4589 0.3088 0.53045 0.0
C982 C 0.42739 0.32378 0.56493 0.0
C983 C 0.41309 0.33147 0.58502 0.0
C984 C 0.45356 0.32132 0.5694 0.0
C985 C 0.42523 0.3361 0.60973 0.0
C986 C 0.45128 0.33401 0.61422 0.0
C987 C 0.49196 0.32541 0.59847 0.0
C988 C 0.50642 0.31716 0.57864 0.0
C989 C 0.46566 0.32692 0.59414 0.0
C990 C 0.49389 0.31103 0.55416 0.0
C991 C 0.46787 0.31345 0.54953 0.0
H992 H 0.18509 0.74147 0.95813 0.0
H993 H 0.21358 0.78625 0.02772 0.0
H994 H 0.17049 0.79594 0.03557 0.0
H995 H 0.12465 0.78959 0.0242 0.0
H996 H 0.09558 0.74269 0.95613 0.0
H997 H 0.13898 0.73647 0.94586 0.0
C998 C 0.18189 0.75359 0.97486 0.0
C999 C 0.20252 0.76299 0.99239 0.0
C1000 C 0.15696 0.75869 0.97955 0.0
C1001 C 0.19803 0.7786 0.01402 0.0
C1002 C 0.1734 0.78416 0.01853 0.0
C1003 C 0.12778 0.77793 0.00714 0.0
C1004 C 0.10687 0.76643 0.99112 0.0
C1005 C 0.1527 0.7739 0.00171 0.0
C1006 C 0.1113 0.75191 0.96875 0.0
C1007 C 0.13613 0.74818 0.96295 0.0
H1008 H 0.83782 0.17405 0.43327 0.0
H1009 H 0.81267 0.21898 0.3731 0.0
H1010 H 0.85466 0.24209 0.37585 0.0
H1011 H 0.89877 0.24856 0.39416 0.0
H1012 H 0.92496 0.20194 0.45242 0.0
H1013 H 0.88211 0.18096 0.45204 0.0
C1014 C 0.84147 0.18903 0.42088 0.0
C1015 C 0.82214 0.19471 0.40294 0.0
C1016 C 0.86581 0.20199 0.42226 0.0
C1017 C 0.82723 0.2141 0.38697 0.0
C1018 C 0.85123 0.22736 0.38854 0.0
C1019 C 0.89521 0.23366 0.40666 0.0
C1020 C 0.91517 0.22672 0.42314 0.0
C1021 C 0.87073 0.22124 0.40587 0.0
C1022 C 0.90996 0.20785 0.43968 0.0
C1023 C 0.88549 0.19569 0.43933 0.0
H1024 H 0.53144 0.72626 0.99677 0.0
H1025 H 0.54069 0.76844 0.93116 0.0
H1026 H 0.49681 0.75534 0.91508 0.0
H1027 H 0.45594 0.73197 0.91946 0.0
H1028 H 0.44699 0.68786 0.98373 0.0
H1029 H 0.49044 0.70221 0.00081 0.0
C1030 C 0.52385 0.73262 0.97897 0.0
C1031 C 0.53938 0.7483 0.9652 0.0
C1032 C 0.49861 0.72483 0.96966 0.0
C1033 C 0.52924 0.75629 0.94212 0.0
C1034 C 0.50411 0.74885 0.93291 0.0
C1035 C 0.46354 0.72521 0.93705 0.0
C1036 C 0.4482 0.70874 0.95019 0.0
C1037 C 0.48867 0.73306 0.94646 0.0
C1038 C 0.45824 0.70075 0.97333 0.0
C1039 C 0.48316 0.7088 0.98302 0.0
H1040 H 0.56193 0.44213 0.32418 0.0
H1041 H 0.62739 0.42003 0.28691 0.0
H1042 H 0.63989 0.46439 0.28134 0.0
H1043 H 0.63289 0.50925 0.28778 0.0
H1044 H 0.56931 0.53207 0.3278 0.0
H1045 H 0.55501 0.48754 0.33081 0.0
C1046 C 0.57872 0.447 0.3145 0.0
C1047 C 0.5936 0.42776 0.3058 0.0
C1048 C 0.5861 0.47264 0.31177 0.0
C1049 C 0.61557 0.43444 0.29374 0.0
C1050 C 0.62276 0.45981 0.29057 0.0
C1051 C 0.61608 0.50462 0.2975 0.0
C1052 C 0.60239 0.52415 0.30773 0.0
C1053 C 0.60833 0.47905 0.29975 0.0
C1054 C 0.58012 0.51754 0.31943 0.0
C1055 C 0.57201 0.49204 0.32134 0.0
H1056 H 0.96534 0.2268 0.71925 0.0
H1057 H 0.01725 0.24754 0.7859 0.0
H1058 H 0.03002 0.20414 0.78496 0.0
H1059 H 0.02684 0.1604 0.76481 0.0
H1060 H 0.9743 0.13939 0.69866 0.0
H1061 H 0.96146 0.18279 0.69963 0.0
C1062 C 0.97974 0.22189 0.7333 0.0
C1063 C 0.99076 0.24043 0.75229 0.0
C1064 C 0.9868 0.19684 0.73276 0.0
C1065 C 0.00862 0.23358 0.77101 0.0
C1066 C 0.01596 0.20881 0.77045 0.0
C1067 C 0.01267 0.1654 0.75055 0.0
C1068 C 0.00163 0.14679 0.73161 0.0
C1069 C 0.00527 0.19031 0.75135 0.0
C1070 C 0.98296 0.15337 0.7135 0.0
C1071 C 0.9757 0.17819 0.71399 0.0
H1072 H 0.44835 0.84984 0.22992 0.0
H1073 H 0.37688 0.82245 0.25622 0.0
H1074 H 0.38031 0.85801 0.28883 0.0
H1075 H 0.4036 0.89641 0.31012 0.0
H1076 H 0.47358 0.92587 0.28226 0.0
H1077 H 0.47107 0.8895 0.25053 0.0
C1078 C 0.43352 0.85167 0.24278 0.0
C1079 C 0.41239 0.83348 0.24061 0.0
C1080 C 0.43545 0.87237 0.26137 0.0
C1081 C 0.39328 0.83621 0.25735 0.0
C1082 C 0.39526 0.8565 0.27608 0.0
C1083 C 0.41816 0.8952 0.2969 0.0
C1084 C 0.43869 0.91405 0.29863 0.0
C1085 C 0.41623 0.87468 0.27824 0.0
C1086 C 0.45771 0.91157 0.28169 0.0
C1087 C 0.45618 0.89086 0.26335 0.0
H1088 H 0.98732 0.5562 0.72526 0.0
H1089 H 0.91167 0.57235 0.7429 0.0
H1090 H 0.89652 0.52787 0.73219 0.0
H1091 H 0.90516 0.48405 0.72042 0.0
H1092 H 0.98037 0.46763 0.70164 0.0
H1093 H 0.9953 0.5125 0.71064 0.0
C1094 C 0.96748 0.55005 0.72657 0.0
C1095 C 0.95074 0.56765 0.73504 0.0
C1096 C 0.95883 0.52433 0.72047 0.0
C1097 C 0.92504 0.55929 0.73651 0.0
C1098 C 0.91633 0.5338 0.73045 0.0
C1099 C 0.92471 0.49027 0.71779 0.0
C1100 C 0.9416 0.47236 0.71043 0.0
C1101 C 0.93313 0.51611 0.72275 0.0
C1102 C 0.96701 0.48086 0.70767 0.0
C1103 C 0.97556 0.50658 0.71266 0.0
H1104 H 0.62963 0.38263 0.55142 0.0
H1105 H 0.69937 0.34549 0.55186 0.0
H1106 H 0.69472 0.33921 0.50576 0.0
H1107 H 0.6708 0.34319 0.46553 0.0
H1108 H 0.60005 0.37842 0.46393 0.0
H1109 H 0.60559 0.38722 0.51019 0.0
C1110 C 0.64356 0.37281 0.54148 0.0
C1111 C 0.66459 0.36416 0.55523 0.0
C1112 C 0.64079 0.36918 0.51473 0.0
C1113 C 0.68295 0.35229 0.54186 0.0
C1114 C 0.68034 0.34867 0.51544 0.0
C1115 C 0.65631 0.35246 0.47522 0.0
C1116 C 0.63465 0.35942 0.46121 0.0
C1117 C 0.65928 0.35685 0.50173 0.0
C1118 C 0.61684 0.37263 0.47416 0.0
C1119 C 0.6199 0.37751 0.50067 0.0
H1120 H 0.82557 0.55821 0.12672 0.0
H1121 H 0.76778 0.59144 0.16851 0.0
H1122 H 0.73989 0.59006 0.12955 0.0
H1123 H 0.73262 0.58167 0.08338 0.0
H1124 H 0.79037 0.54946 0.04102 0.0
H1125 H 0.81729 0.5477 0.08048 0.0
C1126 C 0.80681 0.56497 0.12735 0.0
C1127 C 0.79895 0.57512 0.15054 0.0
C1128 C 0.79081 0.5643 0.10477 0.0
C1129 C 0.77448 0.58369 0.15096 0.0
C1130 C 0.75846 0.58292 0.12866 0.0
C1131 C 0.75112 0.57427 0.08279 0.0
C1132 C 0.7596 0.56596 0.05931 0.0
C1133 C 0.76658 0.57366 0.10543 0.0
C1134 C 0.78336 0.55589 0.05888 0.0
C1135 C 0.79882 0.55504 0.08141 0.0
H1136 H 0.19344 0.04329 0.48782 0.0
H1137 H 0.26693 0.06816 0.46424 0.0
H1138 H 0.27705 0.09403 0.50455 0.0
H1139 H 0.26422 0.1112 0.54564 0.0
H1140 H 0.19032 0.08704 0.56858 0.0
H1141 H 0.18141 0.05893 0.52956 0.0
C1142 C 0.21174 0.05424 0.4915 0.0
C1143 C 0.22929 0.0539 0.47289 0.0
C1144 C 0.2174 0.06919 0.51465 0.0
C1145 C 0.25299 0.0681 0.47815 0.0
C1146 C 0.2588 0.08295 0.5012 0.0
C1147 C 0.24616 0.09979 0.54207 0.0
C1148 C 0.22791 0.10134 0.55994 0.0
C1149 C 0.241 0.08392 0.51942 0.0
C1150 C 0.20479 0.08606 0.55527 0.0
C1151 C 0.1996 0.07011 0.53287 0.0
H1152 H 0.32078 0.00411 0.77998 0.0
H1153 H 0.24676 -0.00039 0.80867 0.0
H1154 H 0.26383 0.9796 0.84564 0.0
H1155 H 0.30021 0.96419 0.87032 0.0
H1156 H 0.37486 0.97272 0.84344 0.0
H1157 H 0.35748 0.99149 0.80572 0.0
C1158 C 0.30861 -0.00012 0.79482 0.0
C1159 C 0.28276 0.00434 0.79204 0.0
C1160 C 0.31871 0.98907 0.81634 0.0
C1161 C 0.26682 0.99668 0.81052 0.0
C1162 C 0.27657 0.98529 0.83169 0.0
C1163 C 0.31255 0.97021 0.85613 0.0
C1164 C 0.33866 0.96707 0.85941 0.0
C1165 C 0.30251 0.9815 0.83485 0.0
C1166 C 0.35468 0.97506 0.84118 0.0
C1167 C 0.34475 0.98572 0.81966 0.0
H1168 H 0.59803 0.6128 0.35414 0.0
H1169 H 0.60613 0.69206 0.38211 0.0
H1170 H 0.56196 0.68942 0.39205 0.0
H1171 H 0.51967 0.66647 0.38665 0.0
H1172 H 0.51109 0.58721 0.35982 0.0
H1173 H 0.55703 0.58763 0.35635 0.0
C1174 C 0.59054 0.62919 0.36337 0.0
C1175 C 0.60545 0.6526 0.36732 0.0
C1176 C 0.56495 0.62759 0.36905 0.0
C1177 C 0.595 0.67386 0.37863 0.0
C1178 C 0.56973 0.6724 0.38436 0.0
C1179 C 0.52806 0.64911 0.3809 0.0
C1180 C 0.51218 0.62696 0.37308 0.0
C1181 C 0.55431 0.64964 0.37878 0.0
C1182 C 0.52307 0.6045 0.36575 0.0
C1183 C 0.54929 0.60482 0.36361 0.0
H1184 H 0.74759 0.30921 0.00474 0.0
H1185 H 0.77471 0.24662 0.96053 0.0
H1186 H 0.8117 0.2739 0.95143 0.0
H1187 H 0.83549 0.31574 0.95481 0.0
H1188 H 0.80667 0.37929 0.9962 0.0
H1189 H 0.771 0.35149 0.00738 0.0
C1190 C 0.76119 0.30173 0.99253 0.0
C1191 C 0.75796 0.27616 0.98262 0.0
C1192 C 0.78214 0.31766 0.98695 0.0
C1193 C 0.77666 0.26633 0.96819 0.0
C1194 C 0.79775 0.28192 0.9629 0.0
C1195 C 0.82124 0.32364 0.96598 0.0
C1196 C 0.82377 0.34963 0.97452 0.0
C1197 C 0.8005 0.30769 0.97189 0.0
C1198 C 0.80541 0.35932 0.98958 0.0
C1199 C 0.78491 0.34346 0.99588 0.0
H1200 H 0.18801 0.81709 0.57661 0.0
H1201 H 0.18628 0.85998 0.64903 0.0
H1202 H 0.14064 0.84817 0.64856 0.0
H1203 H 0.10174 0.82328 0.62877 0.0
H1204 H 0.10348 0.7808 0.55613 0.0
H1205 H 0.14856 0.79481 0.55539 0.0
C1206 C 0.17754 0.82407 0.59214 0.0
C1207 C 0.19043 0.83955 0.61272 0.0
C1208 C 0.15137 0.81708 0.59178 0.0
C1209 C 0.1767 0.84851 0.63272 0.0
C1210 C 0.15065 0.84151 0.63259 0.0
C1211 C 0.11204 0.81721 0.61277 0.0
C1212 C 0.09945 0.8009 0.59263 0.0
C1213 C 0.13788 0.82548 0.61242 0.0
C1214 C 0.1128 0.79342 0.5718 0.0
C1215 C 0.13857 0.80134 0.57143 0.0
H1216 H 0.45078 0.20287 0.0633 0.0
H1217 H 0.46074 0.2848 0.06874 0.0
H1218 H 0.5063 0.28359 0.07921 0.0
H1219 H 0.54251 0.25936 0.09084 0.0
H1220 H 0.53295 0.17753 0.08424 0.0
H1221 H 0.48813 0.17847 0.069 0.0
C1222 C 0.46295 0.22042 0.06557 0.0
C1223 C 0.4523 0.24387 0.06484 0.0
C1224 C 0.48922 0.21959 0.07152 0.0
C1225 C 0.46843 0.26647 0.06921 0.0
C1226 C 0.4945 0.26582 0.0752 0.0
C1227 C 0.53065 0.24178 0.08559 0.0
C1228 C 0.54079 0.21843 0.08876 0.0
C1229 C 0.50498 0.24251 0.07703 0.0
C1230 C 0.52546 0.19571 0.0818 0.0
C1231 C 0.49983 0.19627 0.0733 0.0
H1232 H 0.41272 0.5755 0.64306 0.0
H1233 H 0.33504 0.58825 0.65522 0.0
H1234 H 0.32239 0.54284 0.64594 0.0
H1235 H 0.33396 0.49976 0.63787 0.0
H1236 H 0.41295 0.48593 0.63329 0.0
H1237 H 0.42425 0.53147 0.63442 0.0
C1238 C 0.39297 0.56827 0.64316 0.0
C1239 C 0.37474 0.585 0.64966 0.0
C1240 C 0.3861 0.54198 0.63912 0.0
C1241 C 0.3493 0.57558 0.65025 0.0
C1242 C 0.34213 0.54968 0.64507 0.0
C1243 C 0.35382 0.50643 0.63776 0.0
C1244 C 0.37254 0.48899 0.63626 0.0
C1245 C 0.36051 0.53266 0.64026 0.0
C1246 C 0.39789 0.49852 0.63437 0.0
C1247 C 0.4045 0.52472 0.63534 0.0
H1248 H 0.02577 0.81149 0.31433 0.0
H1249 H 0.97232 0.78544 0.25005 0.0
H1250 H 0.94456 0.81808 0.26239 0.0
H1251 H 0.93649 0.85506 0.29015 0.0
H1252 H 0.98878 0.88016 0.3557 0.0
H1253 H 0.01583 0.84646 0.34436 0.0
C1254 C 0.00764 0.81231 0.30356 0.0
C1255 C 0.00087 0.79566 0.28163 0.0
C1256 C 0.99169 0.83109 0.31084 0.0
C1257 C 0.97792 0.79797 0.26708 0.0
C1258 C 0.96202 0.8166 0.27413 0.0
C1259 C 0.95349 0.85288 0.30234 0.0
C1260 C 0.96056 0.87021 0.32374 0.0
C1261 C 0.96883 0.83339 0.29583 0.0
C1262 C 0.98303 0.86735 0.33891 0.0
C1263 C 0.99847 0.84801 0.3325 0.0
H1264 H 0.60876 0.19583 0.78786 0.0
H1265 H 0.67184 0.18506 0.84139 0.0
H1266 H 0.66204 0.13892 0.83495 0.0
H1267 H 0.63692 0.10162 0.81208 0.0
H1268 H 0.57267 0.11244 0.76008 0.0
H1269 H 0.58133 0.15868 0.76795 0.0
C1270 C 0.6202 0.18331 0.79822 0.0
C1271 C 0.64098 0.19366 0.81503 0.0
C1272 C 0.61426 0.15692 0.79461 0.0
C1273 C 0.65559 0.17743 0.82857 0.0
C1274 C 0.65009 0.1511 0.82476 0.0
C1275 C 0.62474 0.11422 0.80272 0.0
C1276 C 0.60434 0.10391 0.78543 0.0
C1277 C 0.62968 0.14064 0.80758 0.0
C1278 C 0.58845 0.12015 0.77349 0.0
C1279 C 0.59346 0.14649 0.7779 0.0
H1280 H 0.09459 0.37917 0.20903 0.0
H1281 H 0.0223 0.39225 0.23748 0.0
H1282 H 0.03582 0.43755 0.24652 0.0
H1283 H 0.06956 0.47257 0.24955 0.0
H1284 H 0.14103 0.45977 0.21866 0.0
H1285 H 0.12653 0.4152 0.20758 0.0
C1286 C 0.08176 0.39205 0.21696 0.0
C1287 C 0.05753 0.38254 0.22256 0.0
C1288 C 0.08961 0.41802 0.22195 0.0
C1289 C 0.04094 0.3993 0.2327 0.0
C1290 C 0.04873 0.42513 0.23804 0.0
C1291 C 0.0818 0.46023 0.23989 0.0
C1292 C 0.10659 0.46952 0.23548 0.0
C1293 C 0.07319 0.43463 0.23312 0.0
C1294 C 0.12215 0.45305 0.22304 0.0
C1295 C 0.11383 0.42755 0.21652 0.0
H1296 H 0.44221 0.60931 0.27758 0.0
H1297 H 0.44797 0.54938 0.32788 0.0
H1298 H 0.49378 0.55136 0.32519 0.0
H1299 H 0.5328 0.57351 0.31265 0.0
H1300 H 0.5275 0.63381 0.26312 0.0
H1301 H 0.4809 0.62771 0.26066 0.0
C1302 C 0.45341 0.59638 0.28761 0.0
C1303 C 0.44166 0.57945 0.30315 0.0
C1304 C 0.47989 0.59789 0.28635 0.0
C1305 C 0.45648 0.56273 0.31589 0.0
C1306 C 0.48275 0.56392 0.31449 0.0
C1307 C 0.52135 0.58521 0.30129 0.0
C1308 C 0.53321 0.6043 0.2884 0.0
C1309 C 0.49473 0.58203 0.30053 0.0
C1310 C 0.51849 0.61919 0.27341 0.0
C1311 C 0.49195 0.61576 0.27209 0.0
H1312 H 0.07384 0.40407 0.81366 0.0
H1313 H 0.10872 0.42794 0.74755 0.0
H1314 H 0.06802 0.41899 0.72201 0.0
H1315 H 0.02225 0.40444 0.71846 0.0
H1316 H 0.98758 0.38079 0.7845 0.0
H1317 H 0.02843 0.38954 0.81018 0.0
C1318 C 0.07259 0.40731 0.79366 0.0
C1319 C 0.09434 0.41667 0.78257 0.0
C1320 C 0.04914 0.40214 0.77911 0.0
C1321 C 0.09231 0.42075 0.7566 0.0
C1322 C 0.06903 0.41564 0.74197 0.0
C1323 C 0.02383 0.40124 0.73848 0.0
C1324 C 0.00231 0.39198 0.74979 0.0
C1325 C 0.04733 0.40636 0.75301 0.0
C1326 C 0.00416 0.38786 0.77561 0.0
C1327 C 0.02744 0.39288 0.79022 0.0
H1328 H 0.85187 0.04132 0.65077 0.0
H1329 H 0.84515 0.97116 0.68694 0.0
H1330 H 0.88506 0.98375 0.71277 0.0
H1331 H 0.92382 0.0129 0.72229 0.0
H1332 H 0.93142 0.08226 0.68536 0.0
H1333 H 0.8891 0.07196 0.66267 0.0
C1334 C 0.85896 0.0289 0.66451 0.0
C1335 C 0.84564 0.0052 0.66671 0.0
C1336 C 0.88213 0.0361 0.67906 0.0
C1337 C 0.85508 0.98941 0.6847 0.0
C1338 C 0.87794 0.99657 0.69947 0.0
C1339 C 0.91589 0.02589 0.70958 0.0
C1340 C 0.93031 0.04825 0.70535 0.0
C1341 C 0.89189 0.01958 0.6964 0.0
C1342 C 0.92032 0.06499 0.68881 0.0
C1343 C 0.89627 0.05904 0.67583 0.0
H1344 H 0.62138 0.98248 0.32019 0.0
H1345 H 0.61051 0.90099 0.32147 0.0
H1346 H 0.56814 0.90468 0.33594 0.0
H1347 H 0.53347 0.93116 0.3471 0.0
H1348 H 0.54476 0.01244 0.34579 0.0
H1349 H 0.58775 0.00882 0.33261 0.0
C1350 C 0.60986 0.9655 0.3238 0.0
C1351 C 0.61915 0.94149 0.31971 0.0
C1352 C 0.58553 0.96776 0.33204 0.0
C1353 C 0.60383 0.91971 0.32437 0.0
C1354 C 0.57958 0.9218 0.33266 0.0
C1355 C 0.54548 0.94798 0.34393 0.0
C1356 C 0.53625 0.97201 0.34721 0.0
C1357 C 0.57013 0.9457 0.33633 0.0
C1358 C 0.55169 0.99378 0.34322 0.0
C1359 C 0.57619 0.99171 0.33571 0.0
H1360 H 0.31472 0.44492 0.57927 0.0
H1361 H 0.39083 0.4391 0.55686 0.0
H1362 H 0.39739 0.4852 0.55753 0.0
H1363 H 0.38245 0.52748 0.56697 0.0
H1364 H 0.30635 0.53357 0.58862 0.0
H1365 H 0.29862 0.48711 0.58546 0.0
C1366 C 0.33259 0.45373 0.57417 0.0
C1367 C 0.35222 0.43857 0.56803 0.0
C1368 C 0.33623 0.48031 0.57444 0.0
C1369 C 0.37531 0.45028 0.56149 0.0
C1370 C 0.37916 0.47668 0.56198 0.0
C1371 C 0.3641 0.5185 0.57057 0.0
C1372 C 0.34492 0.53352 0.57793 0.0
C1373 C 0.35989 0.4919 0.56874 0.0
C1374 C 0.32124 0.52205 0.58276 0.0
C1375 C 0.31688 0.49559 0.58104 0.0
H1376 H 0.29666 0.64132 0.97048 0.0
H1377 H 0.31746 0.67416 0.04726 0.0
H1378 H 0.33134 0.63363 0.05927 0.0
H1379 H 0.33572 0.58811 0.04848 0.0
H1380 H 0.31456 0.55518 0.97201 0.0
H1381 H 0.30247 0.59635 0.95933 0.0
C1382 C 0.3043 0.63965 0.98982 0.0
C1383 C 0.30592 0.66076 0.00795 0.0
C1384 C 0.31198 0.61618 0.99669 0.0
C1385 C 0.316 0.65825 0.0329 0.0
C1386 C 0.32388 0.63504 0.03983 0.0
C1387 C 0.32854 0.59012 0.02904 0.0
C1388 C 0.32579 0.5689 0.01117 0.0
C1389 C 0.32166 0.6138 0.02198 0.0
C1390 C 0.31661 0.5714 0.98604 0.0
C1391 C 0.30976 0.5949 0.97881 0.0
H1392 H 0.69011 0.07789 0.41552 0.0
H1393 H 0.71622 0.06603 0.34064 0.0
H1394 H 0.69019 0.02563 0.33328 0.0
H1395 H 0.66291 0.99197 0.34948 0.0
H1396 H 0.63741 0.00299 0.42438 0.0
H1397 H 0.6602 0.04554 0.43047 0.0
C1398 C 0.68991 0.0666 0.39749 0.0
C1399 C 0.70531 0.07488 0.37877 0.0
C1400 C 0.67507 0.04324 0.39345 0.0
C1401 C 0.70471 0.06007 0.35546 0.0
C1402 C 0.68984 0.03693 0.35121 0.0
C1403 C 0.66198 0.00401 0.36686 0.0
C1404 C 0.64852 0.99484 0.38639 0.0
C1405 C 0.67537 0.02811 0.37025 0.0
C1406 C 0.6476 0.01007 0.40908 0.0
C1407 C 0.6607 0.03424 0.41257 0.0
H1408 H 0.67431 0.84925 0.04573 0.0
H1409 H 0.69241 0.83584 0.968 0.0
H1410 H 0.72308 0.87316 0.97353 0.0
H1411 H 0.74189 0.9119 0.99927 0.0
H1412 H 0.72295 0.92593 0.0764 0.0
H1413 H 0.69561 0.88601 0.07245 0.0
C1414 C 0.68517 0.85429 0.03007 0.0
C1415 C 0.68083 0.83991 0.00641 0.0
C1416 C 0.70255 0.87597 0.03327 0.0
C1417 C 0.69521 0.84666 0.98638 0.0
C1418 C 0.71274 0.86804 0.98949 0.0
C1419 C 0.73206 0.90586 0.01526 0.0
C1420 C 0.73428 0.92145 0.03808 0.0
C1421 C 0.71613 0.88315 0.01266 0.0
C1422 C 0.72148 0.91391 0.05873 0.0
C1423 C 0.7058 0.89121 0.05642 0.0
H1424 H 0.53759 0.36159 0.42672 0.0
H1425 H 0.57399 0.29971 0.39103 0.0
H1426 H 0.58821 0.2869 0.43277 0.0
H1427 H 0.59293 0.29534 0.47966 0.0
H1428 H 0.55577 0.35676 0.5147 0.0
H1429 H 0.53923 0.36783 0.47298 0.0
C1430 C 0.54836 0.34509 0.428 0.0
C1431 C 0.55497 0.33184 0.40578 0.0
C1432 C 0.55656 0.33794 0.45197 0.0
C1433 C 0.56875 0.31036 0.40784 0.0
C1434 C 0.57698 0.30307 0.43171 0.0
C1435 C 0.58108 0.31102 0.47797 0.0
C1436 C 0.57567 0.32552 0.49988 0.0
C1437 C 0.57151 0.31709 0.4539 0.0
C1438 C 0.56022 0.34562 0.49787 0.0
C1439 C 0.55073 0.35185 0.47408 0.0
H1440 H 0.9479 0.27354 0.59585 0.0
H1441 H 0.01511 0.23669 0.61789 0.0
H1442 H 0.02603 0.23352 0.57391 0.0
H1443 H 0.01739 0.24276 0.52927 0.0
H1444 H 0.95051 0.27975 0.50735 0.0
H1445 H 0.93844 0.28134 0.55117 0.0
C1446 C 0.96487 0.26469 0.59104 0.0
C1447 C 0.98071 0.25549 0.6102 0.0
C1448 C 0.97112 0.26305 0.56574 0.0
C1449 C 0.00259 0.244 0.60356 0.0
C1450 C 0.00889 0.2422 0.57841 0.0
C1451 C 0.00013 0.25101 0.53422 0.0
C1452 C 0.98479 0.2612 0.5155 0.0
C1453 C 0.99345 0.25189 0.55939 0.0
C1454 C 0.96249 0.27186 0.52174 0.0
C1455 C 0.95565 0.27277 0.54671 0.0
H1456 H 0.35652 0.7707 0.08404 0.0
H1457 H 0.38354 0.70519 0.11768 0.0
H1458 H 0.3814 0.68209 0.07563 0.0
H1459 H 0.37251 0.68076 0.029 0.0
H1460 H 0.34514 0.74606 0.99572 0.0
H1461 H 0.34688 0.76913 0.03789 0.0
C1462 C 0.36194 0.75136 0.08224 0.0
C1463 C 0.37027 0.73976 0.10402 0.0
C1464 C 0.36072 0.73823 0.05803 0.0
C1465 C 0.3771 0.71463 0.10125 0.0
C1466 C 0.37593 0.7014 0.0772 0.0
C1467 C 0.367 0.70006 0.03116 0.0
C1468 C 0.35877 0.71191 0.00964 0.0
C1469 C 0.36792 0.71306 0.05545 0.0
C1470 C 0.35158 0.73678 0.01227 0.0
C1471 C 0.35254 0.74989 0.03631 0.0
H1472 H 0.02209 0.68765 0.85077 0.0
H1473 H 0.95262 0.71917 0.82566 0.0
H1474 H 0.95697 0.749 0.86367 0.0
H1475 H 0.97902 0.76412 0.90566 0.0
H1476 H 0.0479 0.73201 0.93084 0.0
H1477 H 0.04542 0.70447 0.89117 0.0
C1478 C 0.00799 0.70117 0.85347 0.0
C1479 C 0.98695 0.701 0.83549 0.0
C1480 C 0.01049 0.71811 0.87546 0.0
C1481 C 0.96897 0.7188 0.83924 0.0
C1482 C 0.9714 0.73584 0.86101 0.0
C1483 C 0.99358 0.75128 0.90216 0.0
C1484 C 0.01362 0.74992 0.92079 0.0
C1485 C 0.99183 0.73537 0.87946 0.0
C1486 C 0.0324 0.73327 0.91649 0.0
C1487 C 0.03092 0.71752 0.89391 0.0
H1488 H 0.5081 0.38687 0.55449 0.0
H1489 H 0.54051 0.3851 0.63167 0.0
H1490 H 0.49957 0.3926 0.64752 0.0
H1491 H 0.45424 0.39879 0.63962 0.0
H1492 H 0.42097 0.39863 0.56281 0.0
H1493 H 0.46252 0.39301 0.54656 0.0
C1494 C 0.50623 0.38829 0.57477 0.0
C1495 C 0.52742 0.38563 0.59185 0.0
C1496 C 0.48252 0.39246 0.58382 0.0
C1497 C 0.52457 0.38716 0.61808 0.0
C1498 C 0.50117 0.39153 0.62721 0.0
C1499 C 0.45633 0.39801 0.61937 0.0
C1500 C 0.43502 0.39955 0.60234 0.0
C1501 C 0.48005 0.39424 0.61029 0.0
C1502 C 0.43745 0.39789 0.57615 0.0
C1503 C 0.4611 0.39451 0.56691 0.0
H1504 H 0.96046 0.54167 0.19214 0.0
H1505 H 0.94407 0.5889 0.25805 0.0
H1506 H 0.98875 0.59142 0.27445 0.0
H1507 H 0.03286 0.58086 0.26961 0.0
H1508 H 0.04904 0.53388 0.2037 0.0
H1509 H 0.00404 0.53053 0.18766 0.0
C1510 C 0.9666 0.55247 0.21013 0.0
C1511 C 0.94891 0.56512 0.2238 0.0
C1512 C 0.99231 0.55391 0.21939 0.0
C1513 C 0.95726 0.57899 0.24711 0.0
C1514 C 0.98282 0.58047 0.25651 0.0
C1515 C 0.02636 0.56989 0.25178 0.0
C1516 C 0.04387 0.55765 0.23769 0.0
C1517 C 0.00054 0.56813 0.24274 0.0
C1518 C 0.03563 0.54344 0.21469 0.0
C1519 C 0.00999 0.54154 0.20557 0.0
H1520 H 0.08384 0.99236 0.42166 0.0
H1521 H 0.11211 0.98292 0.34758 0.0
H1522 H 0.0686 0.97295 0.3281 0.0
H1523 H 0.02218 0.96768 0.33215 0.0
H1524 H 0.99449 0.97749 0.40628 0.0
H1525 H 0.03813 0.98655 0.42581 0.0
C1526 C 0.08057 0.98807 0.40125 0.0
C1527 C 0.10125 0.98845 0.38611 0.0
C1528 C 0.05557 0.98248 0.39021 0.0
C1529 C 0.09656 0.98278 0.35969 0.0
C1530 C 0.07168 0.97711 0.34853 0.0
C1531 C 0.02588 0.97181 0.35256 0.0
C1532 C 0.00548 0.97209 0.36791 0.0
C1533 C 0.05102 0.97703 0.36358 0.0
C1534 C 0.01013 0.97731 0.39426 0.0
C1535 C 0.035 0.98246 0.40537 0.0
H1536 H 0.42453 0.07482 0.75265 0.0
H1537 H 0.40082 0.02385 0.80763 0.0
H1538 H 0.44452 0.01311 0.81576 0.0
H1539 H 0.48918 0.01612 0.8053 0.0
H1540 H 0.51283 0.0666 0.7502 0.0
H1541 H 0.46952 0.07976 0.74409 0.0
C1542 C 0.42893 0.06152 0.76656 0.0
C1543 C 0.40935 0.05003 0.77934 0.0
C1544 C 0.4541 0.05529 0.77105 0.0
C1545 C 0.41546 0.03292 0.79741 0.0
C1546 C 0.44046 0.02671 0.80207 0.0
C1547 C 0.48476 0.03022 0.79221 0.0
C1548 C 0.5038 0.04049 0.77817 0.0
C1549 C 0.45986 0.03747 0.78872 0.0
C1550 C 0.49821 0.0586 0.76117 0.0
C1551 C 0.47352 0.06603 0.75766 0.0
H1552 H 0.64203 0.5138 0.36281 0.0
H1553 H 0.57141 0.52469 0.39605 0.0
H1554 H 0.56371 0.47888 0.39827 0.0
H1555 H 0.57707 0.43547 0.39063 0.0
H1556 H 0.64729 0.42484 0.35698 0.0
H1557 H 0.65519 0.47081 0.35498 0.0
C1558 C 0.62505 0.50621 0.37074 0.0
C1559 C 0.60745 0.52269 0.37947 0.0
C1560 C 0.62072 0.47989 0.37191 0.0
C1561 C 0.58536 0.51246 0.38934 0.0
C1562 C 0.58092 0.48625 0.39061 0.0
C1563 C 0.59415 0.44341 0.3831 0.0
C1564 C 0.61181 0.42723 0.37426 0.0
C1565 C 0.59848 0.46979 0.38199 0.0
C1566 C 0.63372 0.43728 0.36417 0.0
C1567 C 0.63818 0.46345 0.36299 0.0
H1568 H 0.70548 0.39477 0.99634 0.0
H1569 H 0.75342 0.3858 0.93456 0.0
H1570 H 0.75798 0.4318 0.93245 0.0
H1571 H 0.74706 0.47467 0.94722 0.0
H1572 H 0.69934 0.4835 0.00892 0.0
H1573 H 0.69602 0.43746 0.01217 0.0
C1574 C 0.71696 0.40285 0.98243 0.0
C1575 C 0.72888 0.38682 0.96548 0.0
C1576 C 0.71954 0.4293 0.98135 0.0
C1577 C 0.74388 0.39767 0.94773 0.0
C1578 C 0.74653 0.42398 0.94651 0.0
C1579 C 0.73615 0.46638 0.96146 0.0
C1580 C 0.72344 0.48205 0.97784 0.0
C1581 C 0.73428 0.43996 0.96307 0.0
C1582 C 0.70926 0.47149 0.99621 0.0
C1583 C 0.70733 0.44527 0.998 0.0
H1584 H 0.19094 0.98204 0.65592 0.0
H1585 H 0.27212 0.9848 0.67432 0.0
H1586 H 0.27511 0.03105 0.67669 0.0
H1587 H 0.25524 0.07075 0.67053 0.0
H1588 H 0.17437 0.06852 0.65212 0.0
H1589 H 0.17053 0.02211 0.65307 0.0
C1590 C 0.20925 0.99276 0.66066 0.0
C1591 C 0.2313 0.97989 0.66461 0.0
C1592 C 0.21088 0.01947 0.66193 0.0
C1593 C 0.25484 0.99413 0.67099 0.0
C1594 C 0.25662 0.02063 0.67229 0.0
C1595 C 0.23679 0.06001 0.66707 0.0
C1596 C 0.2151 0.07265 0.66128 0.0
C1597 C 0.23486 0.03347 0.66734 0.0
C1598 C 0.19125 0.0589 0.65669 0.0
C1599 C 0.1891 0.03244 0.65712 0.0
H1600 H 0.37969 0.1131 0.96066 0.0
H1601 H 0.44598 0.11219 0.01351 0.0
H1602 H 0.44903 0.06743 0.00021 0.0
H1603 H 0.43171 0.02786 0.97485 0.0
H1604 H 0.36519 0.02861 0.92265 0.0
H1605 H 0.36337 0.07411 0.93426 0.0
C1606 C 0.3949 0.10318 0.96919 0.0
C1607 C 0.4125 0.11601 0.98816 0.0
C1608 C 0.39646 0.07738 0.96156 0.0
C1609 C 0.43212 0.10281 0.99893 0.0
C1610 C 0.43388 0.07718 0.99136 0.0
C1611 C 0.41702 0.03817 0.96593 0.0
C1612 C 0.39867 0.02527 0.94793 0.0
C1613 C 0.41601 0.0642 0.9729 0.0
C1614 C 0.37956 0.03844 0.93647 0.0
C1615 C 0.37849 0.06437 0.94316 0.0
H1616 H 0.40567 0.56133 0.51323 0.0
H1617 H 0.42518 0.64168 0.53216 0.0
H1618 H 0.42978 0.64764 0.48756 0.0
H1619 H 0.42875 0.63005 0.44305 0.0
H1620 H 0.40859 0.55015 0.42372 0.0
H1621 H 0.4038 0.54387 0.46857 0.0
C1622 C 0.41107 0.58012 0.50763 0.0
C1623 C 0.41541 0.60095 0.52611 0.0
C1624 C 0.41368 0.58345 0.48189 0.0
C1625 C 0.42197 0.62524 0.51842 0.0
C1626 C 0.42463 0.6287 0.4929 0.0
C1627 C 0.42358 0.61127 0.44885 0.0
C1628 C 0.41942 0.59046 0.43056 0.0
C1629 C 0.42071 0.60794 0.47451 0.0
C1630 C 0.41222 0.56627 0.43782 0.0
C1631 C 0.40939 0.56275 0.46335 0.0
H1632 H 0.01666 0.79515 0.41195 0.0
H1633 H 0.07689 0.74543 0.42134 0.0
H1634 H 0.0731 0.74782 0.46707 0.0
H1635 H 0.05128 0.76249 0.50431 0.0
H1636 H 0.99085 0.81162 0.49485 0.0
H1637 H 0.99615 0.8112 0.44925 0.0
C1638 C 0.02904 0.78491 0.42399 0.0
C1639 C 0.04692 0.77 0.41317 0.0
C1640 C 0.0267 0.78628 0.45026 0.0
C1641 C 0.0629 0.75699 0.42912 0.0
C1642 C 0.06075 0.75831 0.45529 0.0
C1643 C 0.03952 0.77325 0.49217 0.0
C1644 C 0.02078 0.7871 0.50254 0.0
C1645 C 0.04255 0.77268 0.46603 0.0
C1646 C 0.00545 0.80094 0.48699 0.0
C1647 C 0.00843 0.80062 0.461 0.0
H1648 H 0.64344 0.18249 0.95241 0.0
H1649 H 0.65785 0.26368 0.96972 0.0
H1650 H 0.65235 0.25897 0.01435 0.0
H1651 H 0.64293 0.23197 0.04858 0.0
H1652 H 0.62901 0.15095 0.03204 0.0
H1653 H 0.63489 0.15528 0.98698 0.0
C1654 C 0.64536 0.19915 0.96594 0.0
C1655 C 0.651 0.22341 0.95766 0.0
C1656 C 0.64219 0.19632 0.99169 0.0
C1657 C 0.65349 0.24478 0.9755 0.0
C1658 C 0.65035 0.24213 0.00106 0.0
C1659 C 0.64123 0.21533 0.035 0.0
C1660 C 0.63551 0.19124 0.0432 0.0
C1661 C 0.64462 0.21804 0.00935 0.0
C1662 C 0.63336 0.16968 0.02582 0.0
C1663 C 0.63669 0.17218 0.00016 0.0
H1664 H 0.92039 0.35999 0.12197 0.0
H1665 H 0.97286 0.42698 0.13898 0.0
H1666 H 0.95636 0.4443 0.10026 0.0
H1667 H 0.92941 0.43881 0.05966 0.0
H1668 H 0.87791 0.37145 0.04226 0.0
H1669 H 0.89147 0.35588 0.08306 0.0
C1670 C 0.92805 0.3785 0.11738 0.0
C1671 C 0.94801 0.39203 0.13326 0.0
C1672 C 0.9187 0.38822 0.09493 0.0
C1673 C 0.9576 0.41607 0.12704 0.0
C1674 C 0.94821 0.42599 0.10486 0.0
C1675 C 0.92097 0.42093 0.06512 0.0
C1676 C 0.90273 0.40623 0.04835 0.0
C1677 C 0.92914 0.41201 0.0884 0.0
C1678 C 0.89191 0.38303 0.05517 0.0
C1679 C 0.89973 0.37412 0.07839 0.0
loop_
_geom_bond_atom_site_label_1
_geom_bond_atom_site_label_2
_geom_bond_distance
_geom_bond_site_symmetry_2
_ccdc_geom_bond_type
O0 Cd1 2.300 . S
O0 C7 1.275 . S
Cd1 O0 2.300 . S
Cd1 O9 2.381 . S
Cd1 O10 2.378 . S
O2 Cd3 2.385 . S
O2 C7 1.255 . S
Cd3 O2 2.385 . S
Cd3 O4 2.317 . S
O4 Cd3 2.317 . S
O4 C5 1.232 . S
C5 O4 1.232 . S
C5 O6 1.218 . S
O6 C5 1.218 . S
C7 O0 1.275 . S
C7 O2 1.255 . S
C8 O9 1.258 . S
C8 O10 1.256 . S
O9 Cd1 2.381 . S
O9 C8 1.258 . S
O10 Cd1 2.378 . S
O10 C8 1.256 . S
O11 Cd12 2.300 . S
O11 C18 1.275 . S
Cd12 O11 2.300 . S
Cd12 O20 2.381 . S
Cd12 O21 2.378 . S
O13 Cd14 2.385 . S
O13 C18 1.255 . S
Cd14 O13 2.385 . S
Cd14 O15 2.317 . S
O15 Cd14 2.317 . S
O15 C16 1.232 . S
C16 O15 1.232 . S
C16 O17 1.218 . S
O17 C16 1.218 . S
C18 O11 1.275 . S
C18 O13 1.255 . S
C19 O20 1.258 . S
C19 O21 1.256 . S
O20 Cd12 2.381 . S
O20 C19 1.258 . S
O21 Cd12 2.378 . S
O21 C19 1.256 . S
O22 Cd23 2.305 . S
O22 C29 1.280 . S
Cd23 O22 2.305 . S
Cd23 O31 2.381 1_565 S
Cd23 O32 2.378 . S
O24 Cd25 2.385 . S
O24 C29 1.255 . S
Cd25 O24 2.385 . S
Cd25 O26 2.317 . S
O26 Cd25 2.317 . S
O26 C27 1.232 . S
C27 O26 1.232 . S
C27 O28 1.218 . S
O28 C27 1.218 . S
C29 O22 1.280 . S
C29 O24 1.255 . S
C30 O31 1.258 . S
C30 O32 1.256 1_545 S
O31 Cd23 2.381 1_545 S
O31 C30 1.258 . S
O32 Cd23 2.378 . S
O32 C30 1.256 1_565 S
O33 Cd34 2.300 1_565 S
O33 C40 1.275 1_565 S
Cd34 O33 2.300 1_545 S
Cd34 O42 2.381 1_545 S
Cd34 O43 2.378 . S
O35 Cd36 2.385 . S
O35 C40 1.255 . S
Cd36 O35 2.385 . S
Cd36 O37 2.317 . S
O37 Cd36 2.317 . S
O37 C38 1.232 . S
C38 O37 1.232 . S
C38 O39 1.218 . S
O39 C38 1.218 . S
C40 O33 1.275 1_545 S
C40 O35 1.255 . S
C41 O42 1.258 1_545 S
C41 O43 1.256 . S
O42 Cd34 2.381 1_565 S
O42 C41 1.258 1_565 S
O43 Cd34 2.378 . S
O43 C41 1.256 . S
O44 Cd45 2.300 . S
O44 C51 1.275 . S
Cd45 O44 2.300 . S
Cd45 O53 2.381 . S
Cd45 O54 2.378 . S
O46 Cd47 2.385 . S
O46 C51 1.255 . S
Cd47 O46 2.385 . S
Cd47 O48 2.317 . S
O48 Cd47 2.317 . S
O48 C49 1.232 . S
C49 O48 1.232 . S
C49 O50 1.218 . S
O50 C49 1.218 . S
C51 O44 1.275 . S
C51 O46 1.255 . S
C52 O53 1.258 . S
C52 O54 1.256 . S
O53 Cd45 2.381 . S
O53 C52 1.258 . S
O54 Cd45 2.378 . S
O54 C52 1.256 . S
O55 Cd56 2.300 1_556 S
O55 C62 1.275 1_556 S
Cd56 O55 2.300 1_554 S
Cd56 O64 2.381 1_554 S
Cd56 O65 2.378 . S
O57 Cd58 2.385 . S
O57 C62 1.255 . S
Cd58 O57 2.385 . S
Cd58 O59 2.317 . S
O59 Cd58 2.317 . S
O59 C60 1.232 . S
C60 O59 1.232 . S
C60 O61 1.218 . S
O61 C60 1.218 . S
C62 O55 1.275 1_554 S
C62 O57 1.255 . S
C63 O64 1.258 1_554 S
C63 O65 1.256 . S
O64 Cd56 2.381 1_556 S
O64 C63 1.258 1_556 S
O65 Cd56 2.378 . S
O65 C63 1.256 . S
O66 Cd67 2.300 . S
O66 C73 1.275 . S
Cd67 O66 2.300 . S
Cd67 O75 2.381 . S
Cd67 O76 2.378 . S
O68 Cd69 2.385 . S
O68 C73 1.255 . S
Cd69 O68 2.385 . S
Cd69 O70 2.317 . S
O70 Cd69 2.317 . S
O70 C71 1.232 . S
C71 O70 1.232 . S
C71 O72 1.218 . S
O72 C71 1.218 . S
C73 O66 1.275 . S
C73 O68 1.255 . S
C74 O75 1.258 . S
C74 O76 1.256 . S
O75 Cd67 2.381 . S
O75 C74 1.258 . S
O76 Cd67 2.378 . S
O76 C74 1.256 . S
O77 Cd78 2.305 . S
O77 C84 1.281 . S
Cd78 O77 2.305 . S
Cd78 O86 2.381 1_556 S
Cd78 O87 2.378 . S
O79 Cd80 2.385 . S
O79 C84 1.255 . S
Cd80 O79 2.385 . S
Cd80 O81 2.317 . S
O81 Cd80 2.317 . S
O81 C82 1.232 . S
C82 O81 1.232 . S
C82 O83 1.218 . S
O83 C82 1.218 . S
C84 O77 1.281 . S
C84 O79 1.255 . S
C85 O86 1.258 . S
C85 O87 1.256 1_554 S
O86 Cd78 2.381 1_554 S
O86 C85 1.258 . S
O87 Cd78 2.378 . S
O87 C85 1.256 1_556 S
O88 Cd89 2.300 . S
O88 C95 1.275 . S
Cd89 O88 2.300 . S
Cd89 O97 2.381 . S
Cd89 O98 2.378 . S
O90 Cd91 2.385 . S
O90 C95 1.255 . S
Cd91 O90 2.385 . S
Cd91 O92 2.317 . S
O92 Cd91 2.317 . S
O92 C93 1.232 . S
C93 O92 1.232 . S
C93 O94 1.218 . S
O94 C93 1.218 . S
C95 O88 1.275 . S
C95 O90 1.255 . S
C96 O97 1.258 . S
C96 O98 1.256 . S
O97 Cd89 2.381 . S
O97 C96 1.258 . S
O98 Cd89 2.378 . S
O98 C96 1.256 . S
O99 Cd100 2.300 1_655 S
O99 C106 1.275 1_655 S
Cd100 O99 2.300 1_455 S
Cd100 O108 2.381 1_455 S
Cd100 O109 2.378 . S
O101 Cd102 2.385 . S
O101 C106 1.255 . S
Cd102 O101 2.385 . S
Cd102 O103 2.317 . S
O103 Cd102 2.317 . S
O103 C104 1.232 . S
C104 O103 1.232 . S
C104 O105 1.218 . S
O105 C104 1.218 . S
C106 O99 1.275 1_455 S
C106 O101 1.255 . S
C107 O108 1.258 1_455 S
C107 O109 1.256 . S
O108 Cd100 2.381 1_655 S
O108 C107 1.258 1_655 S
O109 Cd100 2.378 . S
O109 C107 1.256 . S
O110 Cd111 2.300 . S
O110 C117 1.275 . S
Cd111 O110 2.300 . S
Cd111 O119 2.381 . S
Cd111 O120 2.378 . S
O112 Cd113 2.385 . S
O112 C117 1.255 . S
Cd113 O112 2.385 . S
Cd113 O114 2.317 . S
O114 Cd113 2.317 . S
O114 C115 1.232 . S
C115 O114 1.232 . S
C115 O116 1.218 . S
O116 C115 1.218 . S
C117 O110 1.275 . S
C117 O112 1.255 . S
C118 O119 1.258 . S
C118 O120 1.256 . S
O119 Cd111 2.381 . S
O119 C118 1.258 . S
O120 Cd111 2.378 . S
O120 C118 1.256 . S
O121 Cd122 2.305 . S
O121 C128 1.280 . S
Cd122 O121 2.305 . S
Cd122 O130 2.381 1_655 S
Cd122 O131 2.378 . S
O123 Cd124 2.385 . S
O123 C128 1.255 . S
Cd124 O123 2.385 . S
Cd124 O125 2.317 . S
O125 Cd124 2.317 . S
O125 C126 1.232 . S
C126 O125 1.232 . S
C126 O127 1.218 . S
O127 C126 1.218 . S
C128 O121 1.280 . S
C128 O123 1.255 . S
C129 O130 1.258 . S
C129 O131 1.256 1_455 S
O130 Cd122 2.381 1_455 S
O130 C129 1.258 . S
O131 Cd122 2.378 . S
O131 C129 1.256 1_655 S
O132 Cd133 2.300 . S
O132 C139 1.275 . S
Cd133 O132 2.300 . S
Cd133 O141 2.381 . S
Cd133 O142 2.378 . S
O134 Cd135 2.385 . S
O134 C139 1.255 . S
Cd135 O134 2.385 . S
Cd135 O136 2.317 . S
O136 Cd135 2.317 . S
O136 C137 1.232 . S
C137 O136 1.232 . S
C137 O138 1.218 . S
O138 C137 1.218 . S
C139 O132 1.275 . S
C139 O134 1.255 . S
C140 O141 1.258 . S
C140 O142 1.256 . S
O141 Cd133 2.381 . S
O141 C140 1.258 . S
O142 Cd133 2.378 . S
O142 C140 1.256 . S
O143 Cd144 2.300 . S
O143 C150 1.275 . S
Cd144 O143 2.300 . S
Cd144 O152 2.381 . S
Cd144 O153 2.378 . S
O145 Cd146 2.385 . S
O145 C150 1.255 . S
Cd146 O145 2.385 . S
Cd146 O147 2.317 . S
O147 Cd146 2.317 . S
O147 C148 1.232 . S
C148 O147 1.232 . S
C148 O149 1.218 . S
O149 C148 1.218 . S
C150 O143 1.275 . S
C150 O145 1.255 . S
C151 O152 1.258 . S
C151 O153 1.256 . S
O152 Cd144 2.381 . S
O152 C151 1.258 . S
O153 Cd144 2.378 . S
O153 C151 1.256 . S
O154 Cd155 2.300 1_545 S
O154 C161 1.275 . S
Cd155 O154 2.300 1_565 S
Cd155 O163 2.381 1_565 S
Cd155 O164 2.378 . S
O156 Cd157 2.385 . S
O156 C161 1.255 1_565 S
Cd157 O156 2.385 . S
Cd157 O158 2.317 . S
O158 Cd157 2.317 . S
O158 C159 1.232 . S
C159 O158 1.232 . S
C159 O160 1.218 . S
O160 C159 1.218 . S
C161 O154 1.275 . S
C161 O156 1.255 1_545 S
C162 O163 1.258 1_565 S
C162 O164 1.256 . S
O163 Cd155 2.381 1_545 S
O163 C162 1.258 1_545 S
O164 Cd155 2.378 . S
O164 C162 1.256 . S
O165 Cd166 2.300 1_565 S
O165 C172 1.275 1_565 S
Cd166 O165 2.300 1_545 S
Cd166 O174 2.381 1_545 S
Cd166 O175 2.378 . S
O167 Cd168 2.385 . S
O167 C172 1.255 . S
Cd168 O167 2.385 . S
Cd168 O169 2.317 . S
O169 Cd168 2.317 . S
O169 C170 1.232 . S
C170 O169 1.232 . S
C170 O171 1.218 . S
O171 C170 1.218 . S
C172 O165 1.275 1_545 S
C172 O167 1.255 . S
C173 O174 1.258 1_545 S
C173 O175 1.256 . S
O174 Cd166 2.381 1_565 S
O174 C173 1.258 1_565 S
O175 Cd166 2.378 . S
O175 C173 1.256 . S
O176 Cd177 2.300 . S
O176 C183 1.275 . S
Cd177 O176 2.300 . S
Cd177 O185 2.381 . S
Cd177 O186 2.378 . S
O178 Cd179 2.385 . S
O178 C183 1.255 . S
Cd179 O178 2.385 . S
Cd179 O180 2.317 . S
O180 Cd179 2.317 . S
O180 C181 1.232 . S
C181 O180 1.232 . S
C181 O182 1.218 . S
O182 C181 1.218 . S
C183 O176 1.275 . S
C183 O178 1.255 . S
C184 O185 1.258 . S
C184 O186 1.256 . S
O185 Cd177 2.381 . S
O185 C184 1.258 . S
O186 Cd177 2.378 . S
O186 C184 1.256 . S
O187 Cd188 2.300 1_556 S
O187 C194 1.275 1_556 S
Cd188 O187 2.300 1_554 S
Cd188 O196 2.381 1_554 S
Cd188 O197 2.378 . S
O189 Cd190 2.385 . S
O189 C194 1.255 . S
Cd190 O189 2.385 . S
Cd190 O191 2.317 . S
O191 Cd190 2.317 . S
O191 C192 1.232 . S
C192 O191 1.232 . S
C192 O193 1.218 . S
O193 C192 1.218 . S
C194 O187 1.275 1_554 S
C194 O189 1.255 . S
C195 O196 1.258 1_554 S
C195 O197 1.256 . S
O196 Cd188 2.381 1_556 S
O196 C195 1.258 1_556 S
O197 Cd188 2.378 . S
O197 C195 1.256 . S
O198 Cd199 2.300 . S
O198 C205 1.275 . S
Cd199 O198 2.300 . S
Cd199 O207 2.381 . S
Cd199 O208 2.378 . S
O200 Cd201 2.385 . S
O200 C205 1.255 . S
Cd201 O200 2.385 . S
Cd201 O202 2.317 . S
O202 Cd201 2.317 . S
O202 C203 1.232 . S
C203 O202 1.232 . S
C203 O204 1.218 . S
O204 C203 1.218 . S
C205 O198 1.275 . S
C205 O200 1.255 . S
C206 O207 1.258 . S
C206 O208 1.256 . S
O207 Cd199 2.381 . S
O207 C206 1.258 . S
O208 Cd199 2.378 . S
O208 C206 1.256 . S
O209 Cd210 2.300 1_554 S
O209 C216 1.275 . S
Cd210 O209 2.300 1_556 S
Cd210 O218 2.381 1_556 S
Cd210 O219 2.378 . S
O211 Cd212 2.385 . S
O211 C216 1.255 1_556 S
Cd212 O211 2.385 . S
Cd212 O213 2.317 . S
O213 Cd212 2.317 . S
O213 C214 1.232 . S
C214 O213 1.232 . S
C214 O215 1.218 . S
O215 C214 1.218 . S
C216 O209 1.275 . S
C216 O211 1.255 1_554 S
C217 O218 1.258 1_556 S
C217 O219 1.256 . S
O218 Cd210 2.381 1_554 S
O218 C217 1.258 1_554 S
O219 Cd210 2.378 . S
O219 C217 1.256 . S
O220 Cd221 2.300 . S
O220 C227 1.275 . S
Cd221 O220 2.300 . S
Cd221 O229 2.381 . S
Cd221 O230 2.378 . S
O222 Cd223 2.385 . S
O222 C227 1.255 . S
Cd223 O222 2.385 . S
Cd223 O224 2.317 . S
O224 Cd223 2.317 . S
O224 C225 1.232 . S
C225 O224 1.232 . S
C225 O226 1.218 . S
O226 C225 1.218 . S
C227 O220 1.275 . S
C227 O222 1.255 . S
C228 O229 1.258 . S
C228 O230 1.256 . S
O229 Cd221 2.381 . S
O229 C228 1.258 . S
O230 Cd221 2.378 . S
O230 C228 1.256 . S
O231 Cd232 2.300 1_655 S
O231 C238 1.275 1_655 S
Cd232 O231 2.300 1_455 S
Cd232 O240 2.381 1_455 S
Cd232 O241 2.378 . S
O233 Cd234 2.385 . S
O233 C238 1.255 . S
Cd234 O233 2.385 . S
Cd234 O235 2.317 . S
O235 Cd234 2.317 . S
O235 C236 1.232 . S
C236 O235 1.232 . S
C236 O237 1.218 . S
O237 C236 1.218 . S
C238 O231 1.275 1_455 S
C238 O233 1.255 . S
C239 O240 1.258 1_455 S
C239 O241 1.256 . S
O240 Cd232 2.381 1_655 S
O240 C239 1.258 1_655 S
O241 Cd232 2.378 . S
O241 C239 1.256 . S
O242 Cd243 2.300 . S
O242 C249 1.275 . S
Cd243 O242 2.300 . S
Cd243 O251 2.381 . S
Cd243 O252 2.378 . S
O244 Cd245 2.385 . S
O244 C249 1.255 . S
Cd245 O244 2.385 . S
Cd245 O246 2.317 . S
O246 Cd245 2.317 . S
O246 C247 1.232 . S
C247 O246 1.232 . S
C247 O248 1.218 . S
O248 C247 1.218 . S
C249 O242 1.275 . S
C249 O244 1.255 . S
C250 O251 1.258 . S
C250 O252 1.256 . S
O251 Cd243 2.381 . S
O251 C250 1.258 . S
O252 Cd243 2.378 . S
O252 C250 1.256 . S
O253 Cd254 2.300 1_455 S
O253 C260 1.275 . S
Cd254 O253 2.300 1_655 S
Cd254 O262 2.381 1_655 S
Cd254 O263 2.378 . S
O255 Cd256 2.385 . S
O255 C260 1.255 1_655 S
Cd256 O255 2.385 . S
Cd256 O257 2.317 . S
O257 Cd256 2.317 . S
O257 C258 1.232 . S
C258 O257 1.232 . S
C258 O259 1.218 . S
O259 C258 1.218 . S
C260 O253 1.275 . S
C260 O255 1.255 1_455 S
C261 O262 1.258 1_655 S
C261 O263 1.256 . S
O262 Cd254 2.381 1_455 S
O262 C261 1.258 1_455 S
O263 Cd254 2.378 . S
O263 C261 1.256 . S
H264 C267 0.929 . S
H265 C270 0.929 . S
H266 C272 0.930 . S
C267 H264 0.929 . S
C267 C268 1.398 . S
C267 C269 1.396 . S
C268 C267 1.398 . S
C268 C272 1.407 . S
C269 C267 1.396 . S
C269 C270 1.394 . S
C270 H265 0.929 . S
C270 C269 1.394 . S
C270 C271 1.382 . S
C271 C270 1.382 . S
C271 C272 1.392 . S
C271 N273 1.420 . S
C272 H266 0.930 . S
C272 C268 1.407 . S
C272 C271 1.392 . S
N273 C271 1.420 . S
N273 C274 1.244 . S
C274 N273 1.244 . S
H275 C278 0.929 . S
H276 C281 0.929 . S
H277 C283 0.930 . S
C278 H275 0.929 . S
C278 C279 1.398 . S
C278 C280 1.396 . S
C279 C278 1.398 . S
C279 C283 1.407 . S
C280 C278 1.396 . S
C280 C281 1.394 . S
C281 H276 0.929 . S
C281 C280 1.394 . S
C281 C282 1.382 . S
C282 C281 1.382 . S
C282 C283 1.392 . S
C282 N284 1.420 . S
C283 H277 0.930 . S
C283 C279 1.407 . S
C283 C282 1.392 . S
N284 C282 1.420 . S
N284 C285 1.244 . S
C285 N284 1.244 . S
H286 C289 0.929 . S
H287 C292 0.929 . S
H288 C294 0.930 . S
C289 H286 0.929 . S
C289 C290 1.398 . S
C289 C291 1.396 . S
C290 C289 1.398 . S
C290 C294 1.407 . S
C291 C289 1.396 . S
C291 C292 1.394 1_565 S
C292 H287 0.929 . S
C292 C291 1.394 1_545 S
C292 C293 1.382 . S
C293 C292 1.382 . S
C293 C294 1.392 1_545 S
C293 N295 1.420 . S
C294 H288 0.930 . S
C294 C290 1.407 . S
C294 C293 1.392 1_565 S
N295 C293 1.420 . S
N295 C296 1.244 . S
C296 N295 1.244 . S
H297 C300 0.944 . S
H298 C303 0.929 . S
H299 C305 0.930 . S
C300 H297 0.944 . S
C300 C301 1.395 . S
C300 C302 1.379 1_545 S
C301 C300 1.395 . S
C301 C305 1.373 1_545 S
C302 C300 1.379 1_565 S
C302 C303 1.394 . S
C303 H298 0.929 . S
C303 C302 1.394 . S
C303 C304 1.382 . S
C304 C303 1.382 . S
C304 C305 1.392 . S
C304 N306 1.420 . S
C305 H299 0.930 . S
C305 C301 1.373 1_565 S
C305 C304 1.392 . S
N306 C304 1.420 . S
N306 C307 1.244 . S
C307 N306 1.244 . S
H308 C311 0.929 . S
H309 C314 0.929 . S
H310 C316 0.930 . S
C311 H308 0.929 . S
C311 C312 1.398 . S
C311 C313 1.396 . S
C312 C311 1.398 . S
C312 C316 1.407 . S
C313 C311 1.396 . S
C313 C314 1.394 . S
C314 H309 0.929 . S
C314 C313 1.394 . S
C314 C315 1.382 . S
C315 C314 1.382 . S
C315 C316 1.392 . S
C315 N317 1.420 . S
C316 H310 0.930 . S
C316 C312 1.407 . S
C316 C315 1.392 . S
N317 C315 1.420 . S
N317 C318 1.244 . S
C318 N317 1.244 . S
H319 C322 0.946 . S
H320 C325 0.929 . S
H321 C327 0.930 . S
C322 H319 0.946 . S
C322 C323 1.401 . S
C322 C324 1.377 1_554 S
C323 C322 1.401 . S
C323 C327 1.407 1_554 S
C324 C322 1.377 1_556 S
C324 C325 1.394 . S
C325 H320 0.929 . S
C325 C324 1.394 . S
C325 C326 1.382 . S
C326 C325 1.382 . S
C326 C327 1.392 . S
C326 N328 1.420 . S
C327 H321 0.930 . S
C327 C323 1.407 1_556 S
C327 C326 1.392 . S
N328 C326 1.420 . S
N328 C329 1.244 . S
C329 N328 1.244 . S
H330 C333 0.929 . S
H331 C336 0.929 . S
H332 C338 0.930 . S
C333 H330 0.929 . S
C333 C334 1.398 . S
C333 C335 1.396 . S
C334 C333 1.398 . S
C334 C338 1.407 . S
C335 C333 1.396 . S
C335 C336 1.394 . S
C336 H331 0.929 . S
C336 C335 1.394 . S
C336 C337 1.382 . S
C337 C336 1.382 . S
C337 C338 1.392 . S
C337 N339 1.420 . S
C338 H332 0.930 . S
C338 C334 1.407 . S
C338 C337 1.392 . S
N339 C337 1.420 . S
N339 C340 1.244 . S
C340 N339 1.244 . S
H341 C344 0.929 . S
H342 C347 0.929 . S
H343 C349 0.930 . S
C344 H341 0.929 . S
C344 C345 1.398 . S
C344 C346 1.396 . S
C345 C344 1.398 . S
C345 C349 1.407 . S
C346 C344 1.396 . S
C346 C347 1.394 1_556 S
C347 H342 0.929 . S
C347 C346 1.394 1_554 S
C347 C348 1.382 . S
C348 C347 1.382 . S
C348 C349 1.392 1_554 S
C348 N350 1.420 . S
C349 H343 0.930 . S
C349 C345 1.407 . S
C349 C348 1.392 1_556 S
N350 C348 1.420 . S
N350 C351 1.244 . S
C351 N350 1.244 . S
H352 C355 0.929 . S
H353 C358 0.929 . S
H354 C360 0.930 . S
C355 H352 0.929 . S
C355 C356 1.398 . S
C355 C357 1.396 . S
C356 C355 1.398 . S
C356 C360 1.407 . S
C357 C355 1.396 . S
C357 C358 1.394 . S
C358 H353 0.929 . S
C358 C357 1.394 . S
C358 C359 1.382 . S
C359 C358 1.382 . S
C359 C360 1.392 . S
C359 N361 1.420 . S
C360 H354 0.930 . S
C360 C356 1.407 . S
C360 C359 1.392 . S
N361 C359 1.420 . S
N361 C362 1.244 . S
C362 N361 1.244 . S
H363 C366 0.945 . S
H364 C369 0.929 . S
H365 C371 0.930 . S
C366 H363 0.945 . S
C366 C367 1.395 . S
C366 C368 1.377 1_455 S
C367 C366 1.395 . S
C367 C371 1.372 1_455 S
C368 C366 1.377 1_655 S
C368 C369 1.394 . S
C369 H364 0.929 . S
C369 C368 1.394 . S
C369 C370 1.382 . S
C370 C369 1.382 . S
C370 C371 1.392 . S
C370 N372 1.420 . S
C371 H365 0.930 . S
C371 C367 1.372 1_655 S
C371 C370 1.392 . S
N372 C370 1.420 . S
N372 C373 1.244 . S
C373 N372 1.244 . S
H374 C377 0.929 . S
H375 C380 0.929 . S
H376 C382 0.930 . S
C377 H374 0.929 . S
C377 C378 1.398 . S
C377 C379 1.396 . S
C378 C377 1.398 . S
C378 C382 1.407 . S
C379 C377 1.396 . S
C379 C380 1.394 . S
C380 H375 0.929 . S
C380 C379 1.394 . S
C380 C381 1.382 . S
C381 C380 1.382 . S
C381 C382 1.392 . S
C381 N383 1.420 . S
C382 H376 0.930 . S
C382 C378 1.407 . S
C382 C381 1.392 . S
N383 C381 1.420 . S
N383 C384 1.244 . S
C384 N383 1.244 . S
H385 C388 0.929 . S
H386 C391 0.929 . S
H387 C393 0.930 . S
C388 H385 0.929 . S
C388 C389 1.398 . S
C388 C390 1.396 . S
C389 C388 1.398 . S
C389 C393 1.407 . S
C390 C388 1.396 . S
C390 C391 1.394 1_655 S
C391 H386 0.929 . S
C391 C390 1.394 1_455 S
C391 C392 1.382 . S
C392 C391 1.382 . S
C392 C393 1.392 1_455 S
C392 N394 1.420 . S
C393 H387 0.930 . S
C393 C389 1.407 . S
C393 C392 1.392 1_655 S
N394 C392 1.420 . S
N394 C395 1.244 . S
C395 N394 1.244 . S
H396 C399 0.929 . S
H397 C402 0.929 . S
H398 C404 0.930 . S
C399 H396 0.929 . S
C399 C400 1.398 . S
C399 C401 1.396 . S
C400 C399 1.398 . S
C400 C404 1.407 . S
C401 C399 1.396 . S
C401 C402 1.394 . S
C402 H397 0.929 . S
C402 C401 1.394 . S
C402 C403 1.382 . S
C403 C402 1.382 . S
C403 C404 1.392 . S
C403 N405 1.420 . S
C404 H398 0.930 . S
C404 C400 1.407 . S
C404 C403 1.392 . S
N405 C403 1.420 . S
N405 C406 1.244 . S
C406 N405 1.244 . S
H407 C410 0.929 . S
H408 C413 0.929 . S
H409 C415 0.930 . S
C410 H407 0.929 . S
C410 C411 1.398 . S
C410 C412 1.396 . S
C411 C410 1.398 . S
C411 C415 1.407 . S
C412 C410 1.396 . S
C412 C413 1.394 . S
C413 H408 0.929 . S
C413 C412 1.394 . S
C413 C414 1.382 . S
C414 C413 1.382 . S
C414 C415 1.392 . S
C414 N416 1.420 . S
C415 H409 0.930 . S
C415 C411 1.407 . S
C415 C414 1.392 . S
N416 C414 1.420 . S
N416 C417 1.244 . S
C417 N416 1.244 . S
H418 C421 0.929 . S
H419 C424 0.929 . S
H420 C426 0.930 . S
C421 H418 0.929 . S
C421 C422 1.398 . S
C421 C423 1.396 . S
C422 C421 1.398 . S
C422 C426 1.407 . S
C423 C421 1.396 . S
C423 C424 1.394 1_545 S
C424 H419 0.929 . S
C424 C423 1.394 1_565 S
C424 C425 1.382 . S
C425 C424 1.382 . S
C425 C426 1.392 1_565 S
C425 N427 1.420 . S
C426 H420 0.930 . S
C426 C422 1.407 . S
C426 C425 1.392 1_545 S
N427 C425 1.420 . S
N427 C428 1.244 . S
C428 N427 1.244 . S
H429 C432 0.964 . S
H430 C435 0.929 . S
H431 C437 0.930 . S
C432 H429 0.964 . S
C432 C433 1.399 . S
C432 C434 1.358 1_565 S
C433 C432 1.399 . S
C433 C437 1.377 1_565 S
C434 C432 1.358 1_545 S
C434 C435 1.394 . S
C435 H430 0.929 . S
C435 C434 1.394 . S
C435 C436 1.382 . S
C436 C435 1.382 . S
C436 C437 1.392 . S
C436 N438 1.420 . S
C437 H431 0.930 . S
C437 C433 1.377 1_545 S
C437 C436 1.392 . S
N438 C436 1.420 . S
N438 C439 1.244 . S
C439 N438 1.244 . S
H440 C443 0.929 . S
H441 C446 0.929 . S
H442 C448 0.930 . S
C443 H440 0.929 . S
C443 C444 1.398 . S
C443 C445 1.396 . S
C444 C443 1.398 . S
C444 C448 1.407 . S
C445 C443 1.396 . S
C445 C446 1.394 . S
C446 H441 0.929 . S
C446 C445 1.394 . S
C446 C447 1.382 . S
C447 C446 1.382 . S
C447 C448 1.392 . S
C447 N449 1.420 . S
C448 H442 0.930 . S
C448 C444 1.407 . S
C448 C447 1.392 . S
N449 C447 1.420 . S
N449 C450 1.244 . S
C450 N449 1.244 . S
H451 C454 0.965 . S
H452 C457 0.929 . S
H453 C459 0.930 . S
C454 H451 0.965 . S
C454 C455 1.399 . S
C454 C456 1.356 1_556 S
C455 C454 1.399 . S
C455 C459 1.376 1_556 S
C456 C454 1.356 1_554 S
C456 C457 1.394 . S
C457 H452 0.929 . S
C457 C456 1.394 . S
C457 C458 1.382 . S
C458 C457 1.382 . S
C458 C459 1.392 . S
C458 N460 1.420 . S
C459 H453 0.930 . S
C459 C455 1.376 1_554 S
C459 C458 1.392 . S
N460 C458 1.420 . S
N460 C461 1.244 . S
C461 N460 1.244 . S
H462 C465 0.929 . S
H463 C468 0.929 . S
H464 C470 0.930 . S
C465 H462 0.929 . S
C465 C466 1.398 . S
C465 C467 1.396 . S
C466 C465 1.398 . S
C466 C470 1.407 . S
C467 C465 1.396 . S
C467 C468 1.394 . S
C468 H463 0.929 . S
C468 C467 1.394 . S
C468 C469 1.382 . S
C469 C468 1.382 . S
C469 C470 1.392 . S
C469 N471 1.420 . S
C470 H464 0.930 . S
C470 C466 1.407 . S
C470 C469 1.392 . S
N471 C469 1.420 . S
N471 C472 1.244 . S
C472 N471 1.244 . S
H473 C476 0.929 . S
H474 C479 0.929 . S
H475 C481 0.930 . S
C476 H473 0.929 . S
C476 C477 1.398 . S
C476 C478 1.396 . S
C477 C476 1.398 . S
C477 C481 1.407 . S
C478 C476 1.396 . S
C478 C479 1.394 1_554 S
C479 H474 0.929 . S
C479 C478 1.394 1_556 S
C479 C480 1.382 . S
C480 C479 1.382 . S
C480 C481 1.392 1_556 S
C480 N482 1.420 . S
C481 H475 0.930 . S
C481 C477 1.407 . S
C481 C480 1.392 1_554 S
N482 C480 1.420 . S
N482 C483 1.244 . S
C483 N482 1.244 . S
H484 C487 0.929 . S
H485 C490 0.929 . S
H486 C492 0.930 . S
C487 H484 0.929 . S
C487 C488 1.398 . S
C487 C489 1.396 . S
C488 C487 1.398 . S
C488 C492 1.407 . S
C489 C487 1.396 . S
C489 C490 1.394 . S
C490 H485 0.929 . S
C490 C489 1.394 . S
C490 C491 1.382 . S
C491 C490 1.382 . S
C491 C492 1.392 . S
C491 N493 1.420 . S
C492 H486 0.930 . S
C492 C488 1.407 . S
C492 C491 1.392 . S
N493 C491 1.420 . S
N493 C494 1.244 . S
C494 N493 1.244 . S
H495 C498 0.965 . S
H496 C501 0.929 . S
H497 C503 0.930 . S
C498 H495 0.965 . S
C498 C499 1.399 . S
C498 C500 1.357 1_655 S
C499 C498 1.399 . S
C499 C503 1.376 1_655 S
C500 C498 1.357 1_455 S
C500 C501 1.394 . S
C501 H496 0.929 . S
C501 C500 1.394 . S
C501 C502 1.382 . S
C502 C501 1.382 . S
C502 C503 1.392 . S
C502 N504 1.420 . S
C503 H497 0.930 . S
C503 C499 1.376 1_455 S
C503 C502 1.392 . S
N504 C502 1.420 . S
N504 C505 1.244 . S
C505 N504 1.244 . S
H506 C509 0.929 . S
H507 C512 0.929 . S
H508 C514 0.930 . S
C509 H506 0.929 . S
C509 C510 1.398 . S
C509 C511 1.396 . S
C510 C509 1.398 . S
C510 C514 1.407 . S
C511 C509 1.396 . S
C511 C512 1.394 . S
C512 H507 0.929 . S
C512 C511 1.394 . S
C512 C513 1.382 . S
C513 C512 1.382 . S
C513 C514 1.392 . S
C513 N515 1.420 . S
C514 H508 0.930 . S
C514 C510 1.407 . S
C514 C513 1.392 . S
N515 C513 1.420 . S
N515 C516 1.244 . S
C516 N515 1.244 . S
H517 C520 0.929 . S
H518 C523 0.929 . S
H519 C525 0.930 . S
C520 H517 0.929 . S
C520 C521 1.398 . S
C520 C522 1.396 . S
C521 C520 1.398 . S
C521 C525 1.407 . S
C522 C520 1.396 . S
C522 C523 1.394 1_455 S
C523 H518 0.929 . S
C523 C522 1.394 1_655 S
C523 C524 1.382 . S
C524 C523 1.382 . S
C524 C525 1.392 1_655 S
C524 N526 1.420 . S
C525 H519 0.930 . S
C525 C521 1.407 . S
C525 C524 1.392 1_455 S
N526 C524 1.420 . S
N526 C527 1.244 . S
C527 N526 1.244 . S
H528 C534 0.930 . S
H529 C537 0.930 . S
H530 C538 0.930 . S
H531 C539 0.930 . S
H532 C542 0.930 . S
H533 C543 0.930 . S
C534 H528 0.930 . S
C534 C535 1.355 . S
C534 C536 1.415 . S
C535 C534 1.355 . S
C535 C537 1.419 . S
C536 C534 1.415 . S
C536 C541 1.425 . S
C536 C543 1.409 . S
C537 H529 0.930 . S
C537 C535 1.419 . S
C537 C538 1.362 . S
C538 H530 0.930 . S
C538 C537 1.362 . S
C538 C541 1.409 . S
C539 H531 0.930 . S
C539 C540 1.355 . S
C539 C541 1.415 . S
C540 C539 1.355 . S
C540 C542 1.419 . S
C541 C536 1.425 . S
C541 C538 1.409 . S
C541 C539 1.415 . S
C542 H532 0.930 . S
C542 C540 1.419 . S
C542 C543 1.362 . S
C543 H533 0.930 . S
C543 C536 1.409 . S
C543 C542 1.362 . S
H544 C550 0.930 . S
H545 C553 0.930 . S
H546 C554 0.930 . S
H547 C555 0.930 . S
H548 C558 0.930 . S
H549 C559 0.930 . S
C550 H544 0.930 . S
C550 C551 1.355 . S
C550 C552 1.415 . S
C551 C550 1.355 . S
C551 C553 1.419 . S
C552 C550 1.415 . S
C552 C557 1.425 . S
C552 C559 1.409 . S
C553 H545 0.930 . S
C553 C551 1.419 . S
C553 C554 1.362 . S
C554 H546 0.930 . S
C554 C553 1.362 . S
C554 C557 1.409 . S
C555 H547 0.930 . S
C555 C556 1.355 . S
C555 C557 1.415 . S
C556 C555 1.355 . S
C556 C558 1.419 . S
C557 C552 1.425 . S
C557 C554 1.409 . S
C557 C555 1.415 . S
C558 H548 0.930 . S
C558 C556 1.419 . S
C558 C559 1.362 . S
C559 H549 0.930 . S
C559 C552 1.409 . S
C559 C558 1.362 . S
H560 C566 0.930 . S
H561 C569 0.930 1_565 S
H562 C570 0.930 . S
H563 C571 0.930 . S
H564 C574 0.930 . S
H565 C575 0.930 . S
C566 H560 0.930 . S
C566 C567 1.355 . S
C566 C568 1.415 . S
C567 C566 1.355 . S
C567 C569 1.419 . S
C568 C566 1.415 . S
C568 C573 1.425 . S
C568 C575 1.409 . S
C569 H561 0.930 1_545 S
C569 C567 1.419 . S
C569 C570 1.362 . S
C570 H562 0.930 . S
C570 C569 1.362 . S
C570 C573 1.409 . S
C571 H563 0.930 . S
C571 C572 1.355 . S
C571 C573 1.415 . S
C572 C571 1.355 . S
C572 C574 1.419 . S
C573 C568 1.425 . S
C573 C570 1.409 . S
C573 C571 1.415 . S
C574 H564 0.930 . S
C574 C572 1.419 . S
C574 C575 1.362 . S
C575 H565 0.930 . S
C575 C568 1.409 . S
C575 C574 1.362 . S
H576 C582 0.930 . S
H577 C585 0.930 . S
H578 C586 0.930 . S
H579 C587 0.930 1_545 S
H580 C590 0.930 . S
H581 C591 0.930 . S
C582 H576 0.930 . S
C582 C583 1.355 . S
C582 C584 1.415 . S
C583 C582 1.355 . S
C583 C585 1.419 1_565 S
C584 C582 1.415 . S
C584 C589 1.425 . S
C584 C591 1.409 . S
C585 H577 0.930 . S
C585 C583 1.419 1_545 S
C585 C586 1.362 . S
C586 H578 0.930 . S
C586 C585 1.362 . S
C586 C589 1.409 1_545 S
C587 H579 0.930 1_565 S
C587 C588 1.355 . S
C587 C589 1.415 . S
C588 C587 1.355 . S
C588 C590 1.419 . S
C589 C584 1.425 . S
C589 C586 1.409 1_565 S
C589 C587 1.415 . S
C590 H580 0.930 . S
C590 C588 1.419 . S
C590 C591 1.362 . S
C591 H581 0.930 . S
C591 C584 1.409 . S
C591 C590 1.362 . S
H592 C598 0.930 . S
H593 C601 0.930 . S
H594 C602 0.930 . S
H595 C603 0.930 . S
H596 C606 0.930 . S
H597 C607 0.930 . S
C598 H592 0.930 . S
C598 C599 1.355 . S
C598 C600 1.415 . S
C599 C598 1.355 . S
C599 C601 1.419 . S
C600 C598 1.415 . S
C600 C605 1.425 . S
C600 C607 1.409 . S
C601 H593 0.930 . S
C601 C599 1.419 . S
C601 C602 1.362 . S
C602 H594 0.930 . S
C602 C601 1.362 . S
C602 C605 1.409 . S
C603 H595 0.930 . S
C603 C604 1.355 . S
C603 C605 1.415 . S
C604 C603 1.355 . S
C604 C606 1.419 . S
C605 C600 1.425 . S
C605 C602 1.409 . S
C605 C603 1.415 . S
C606 H596 0.930 . S
C606 C604 1.419 . S
C606 C607 1.362 . S
C607 H597 0.930 . S
C607 C600 1.409 . S
C607 C606 1.362 . S
H608 C614 0.930 1_554 S
H609 C617 0.930 . S
H610 C618 0.930 . S
H611 C619 0.930 . S
H612 C622 0.930 . S
H613 C623 0.930 . S
C614 H608 0.930 1_556 S
C614 C615 1.355 . S
C614 C616 1.415 . S
C615 C614 1.355 . S
C615 C617 1.419 . S
C616 C614 1.415 . S
C616 C621 1.425 . S
C616 C623 1.409 . S
C617 H609 0.930 . S
C617 C615 1.419 . S
C617 C618 1.362 . S
C618 H610 0.930 . S
C618 C617 1.362 . S
C618 C621 1.409 . S
C619 H611 0.930 . S
C619 C620 1.355 . S
C619 C621 1.415 . S
C620 C619 1.355 . S
C620 C622 1.419 . S
C621 C616 1.425 . S
C621 C618 1.409 . S
C621 C619 1.415 . S
C622 H612 0.930 . S
C622 C620 1.419 . S
C622 C623 1.362 . S
C623 H613 0.930 . S
C623 C616 1.409 . S
C623 C622 1.362 . S
H624 C630 0.930 . S
H625 C633 0.930 . S
H626 C634 0.930 . S
H627 C635 0.930 . S
H628 C638 0.930 . S
H629 C639 0.930 . S
C630 H624 0.930 . S
C630 C631 1.355 . S
C630 C632 1.415 . S
C631 C630 1.355 . S
C631 C633 1.419 . S
C632 C630 1.415 . S
C632 C637 1.425 . S
C632 C639 1.409 . S
C633 H625 0.930 . S
C633 C631 1.419 . S
C633 C634 1.362 . S
C634 H626 0.930 . S
C634 C633 1.362 . S
C634 C637 1.409 . S
C635 H627 0.930 . S
C635 C636 1.355 . S
C635 C637 1.415 . S
C636 C635 1.355 . S
C636 C638 1.419 . S
C637 C632 1.425 . S
C637 C634 1.409 . S
C637 C635 1.415 . S
C638 H628 0.930 . S
C638 C636 1.419 . S
C638 C639 1.362 . S
C639 H629 0.930 . S
C639 C632 1.409 . S
C639 C638 1.362 . S
H640 C646 0.942 . S
H641 C649 0.930 . S
H642 C650 0.930 . S
H643 C651 0.930 . S
H644 C654 0.930 . S
H645 C655 0.930 . S
C646 H640 0.942 . S
C646 C647 1.355 . S
C646 C648 1.415 . S
C647 C646 1.355 . S
C647 C649 1.419 . S
C648 C646 1.415 . S
C648 C653 1.425 . S
C648 C655 1.409 . S
C649 H641 0.930 . S
C649 C647 1.419 . S
C649 C650 1.362 . S
C650 H642 0.930 . S
C650 C649 1.362 . S
C650 C653 1.409 . S
C651 H643 0.930 . S
C651 C652 1.355 . S
C651 C653 1.415 . S
C652 C651 1.355 . S
C652 C654 1.419 . S
C653 C648 1.425 . S
C653 C650 1.409 . S
C653 C651 1.415 . S
C654 H644 0.930 . S
C654 C652 1.419 . S
C654 C655 1.362 . S
C655 H645 0.930 . S
C655 C648 1.409 . S
C655 C654 1.362 . S
H656 C662 0.930 . S
H657 C665 0.930 . S
H658 C666 0.930 . S
H659 C667 0.930 . S
H660 C670 0.930 . S
H661 C671 0.930 . S
C662 H656 0.930 . S
C662 C663 1.355 . S
C662 C664 1.415 . S
C663 C662 1.355 . S
C663 C665 1.419 . S
C664 C662 1.415 . S
C664 C669 1.425 . S
C664 C671 1.409 . S
C665 H657 0.930 . S
C665 C663 1.419 . S
C665 C666 1.362 . S
C666 H658 0.930 . S
C666 C665 1.362 . S
C666 C669 1.409 . S
C667 H659 0.930 . S
C667 C668 1.355 . S
C667 C669 1.415 . S
C668 C667 1.355 . S
C668 C670 1.419 . S
C669 C664 1.425 . S
C669 C666 1.409 . S
C669 C667 1.415 . S
C670 H660 0.930 . S
C670 C668 1.419 . S
C670 C671 1.362 . S
C671 H661 0.930 . S
C671 C664 1.409 . S
C671 C670 1.362 . S
H672 C678 0.930 . S
H673 C681 0.930 . S
H674 C682 0.930 . S
H675 C683 0.930 1_455 S
H676 C686 0.930 . S
H677 C687 0.930 . S
C678 H672 0.930 . S
C678 C679 1.355 . S
C678 C680 1.415 . S
C679 C678 1.355 . S
C679 C681 1.419 1_655 S
C680 C678 1.415 . S
C680 C685 1.425 . S
C680 C687 1.409 . S
C681 H673 0.930 . S
C681 C679 1.419 1_455 S
C681 C682 1.362 . S
C682 H674 0.930 . S
C682 C681 1.362 . S
C682 C685 1.409 1_455 S
C683 H675 0.930 1_655 S
C683 C684 1.355 . S
C683 C685 1.415 . S
C684 C683 1.355 . S
C684 C686 1.419 . S
C685 C680 1.425 . S
C685 C682 1.409 1_655 S
C685 C683 1.415 . S
C686 H676 0.930 . S
C686 C684 1.419 . S
C686 C687 1.362 . S
C687 H677 0.930 . S
C687 C680 1.409 . S
C687 C686 1.362 . S
H688 C694 0.930 . S
H689 C697 0.930 . S
H690 C698 0.930 . S
H691 C699 0.930 . S
H692 C702 0.930 . S
H693 C703 0.930 . S
C694 H688 0.930 . S
C694 C695 1.355 . S
C694 C696 1.415 . S
C695 C694 1.355 . S
C695 C697 1.419 . S
C696 C694 1.415 . S
C696 C701 1.425 . S
C696 C703 1.409 . S
C697 H689 0.930 . S
C697 C695 1.419 . S
C697 C698 1.362 . S
C698 H690 0.930 . S
C698 C697 1.362 . S
C698 C701 1.409 . S
C699 H691 0.930 . S
C699 C700 1.355 . S
C699 C701 1.415 . S
C700 C699 1.355 . S
C700 C702 1.419 . S
C701 C696 1.425 . S
C701 C698 1.409 . S
C701 C699 1.415 . S
C702 H692 0.930 . S
C702 C700 1.419 . S
C702 C703 1.362 . S
C703 H693 0.930 . S
C703 C696 1.409 . S
C703 C702 1.362 . S
H704 C710 0.930 . S
H705 C713 0.930 . S
H706 C714 0.930 . S
H707 C715 0.930 . S
H708 C718 0.930 1_655 S
H709 C719 0.930 . S
C710 H704 0.930 . S
C710 C711 1.355 1_655 S
C710 C712 1.415 1_655 S
C711 C710 1.355 1_455 S
C711 C713 1.419 . S
C712 C710 1.415 1_455 S
C712 C717 1.425 . S
C712 C719 1.409 1_455 S
C713 H705 0.930 . S
C713 C711 1.419 . S
C713 C714 1.362 . S
C714 H706 0.930 . S
C714 C713 1.362 . S
C714 C717 1.409 . S
C715 H707 0.930 . S
C715 C716 1.355 . S
C715 C717 1.415 . S
C716 C715 1.355 . S
C716 C718 1.419 . S
C717 C712 1.425 . S
C717 C714 1.409 . S
C717 C715 1.415 . S
C718 H708 0.930 1_455 S
C718 C716 1.419 . S
C718 C719 1.362 1_455 S
C719 H709 0.930 . S
C719 C712 1.409 1_655 S
C719 C718 1.362 1_655 S
H720 C726 0.930 . S
H721 C729 0.930 . S
H722 C730 0.930 . S
H723 C731 0.930 . S
H724 C734 0.930 . S
H725 C735 0.930 . S
C726 H720 0.930 . S
C726 C727 1.355 . S
C726 C728 1.415 . S
C727 C726 1.355 . S
C727 C729 1.419 . S
C728 C726 1.415 . S
C728 C733 1.425 . S
C728 C735 1.409 . S
C729 H721 0.930 . S
C729 C727 1.419 . S
C729 C730 1.362 . S
C730 H722 0.930 . S
C730 C729 1.362 . S
C730 C733 1.409 . S
C731 H723 0.930 . S
C731 C732 1.355 . S
C731 C733 1.415 . S
C732 C731 1.355 . S
C732 C734 1.419 . S
C733 C728 1.425 . S
C733 C730 1.409 . S
C733 C731 1.415 . S
C734 H724 0.930 . S
C734 C732 1.419 . S
C734 C735 1.362 . S
C735 H725 0.930 . S
C735 C728 1.409 . S
C735 C734 1.362 . S
H736 C742 0.930 . S
H737 C745 0.930 . S
H738 C746 0.930 . S
H739 C747 0.930 . S
H740 C750 0.930 . S
H741 C751 0.930 . S
C742 H736 0.930 . S
C742 C743 1.355 . S
C742 C744 1.415 . S
C743 C742 1.355 . S
C743 C745 1.419 . S
C744 C742 1.415 . S
C744 C749 1.425 . S
C744 C751 1.409 . S
C745 H737 0.930 . S
C745 C743 1.419 . S
C745 C746 1.362 . S
C746 H738 0.930 . S
C746 C745 1.362 . S
C746 C749 1.409 . S
C747 H739 0.930 . S
C747 C748 1.355 . S
C747 C749 1.415 . S
C748 C747 1.355 . S
C748 C750 1.419 . S
C749 C744 1.425 . S
C749 C746 1.409 . S
C749 C747 1.415 . S
C750 H740 0.930 . S
C750 C748 1.419 . S
C750 C751 1.362 . S
C751 H741 0.930 . S
C751 C744 1.409 . S
C751 C750 1.362 . S
H752 C758 0.930 . S
H753 C761 0.930 . S
H754 C762 0.930 . S
H755 C763 0.930 . S
H756 C766 0.932 . S
H757 C767 0.930 . S
C758 H752 0.930 . S
C758 C759 1.355 1_545 S
C758 C760 1.415 1_545 S
C759 C758 1.355 1_565 S
C759 C761 1.419 . S
C760 C758 1.415 1_565 S
C760 C765 1.425 . S
C760 C767 1.409 1_565 S
C761 H753 0.930 . S
C761 C759 1.419 . S
C761 C762 1.362 . S
C762 H754 0.930 . S
C762 C761 1.362 . S
C762 C765 1.409 . S
C763 H755 0.930 . S
C763 C764 1.355 . S
C763 C765 1.415 . S
C764 C763 1.355 . S
C764 C766 1.416 1_565 S
C765 C760 1.425 . S
C765 C762 1.409 . S
C765 C763 1.415 . S
C766 H756 0.932 . S
C766 C764 1.416 1_545 S
C766 C767 1.364 . S
C767 H757 0.930 . S
C767 C760 1.409 1_545 S
C767 C766 1.364 . S
H768 C774 0.930 . S
H769 C777 0.930 . S
H770 C778 0.930 . S
H771 C779 0.930 1_565 S
H772 C782 0.930 . S
H773 C783 0.930 . S
C774 H768 0.930 . S
C774 C775 1.355 . S
C774 C776 1.415 . S
C775 C774 1.355 . S
C775 C777 1.419 1_545 S
C776 C774 1.415 . S
C776 C781 1.425 . S
C776 C783 1.409 . S
C777 H769 0.930 . S
C777 C775 1.419 1_565 S
C777 C778 1.362 . S
C778 H770 0.930 . S
C778 C777 1.362 . S
C778 C781 1.409 1_565 S
C779 H771 0.930 1_545 S
C779 C780 1.355 . S
C779 C781 1.415 . S
C780 C779 1.355 . S
C780 C782 1.419 . S
C781 C776 1.425 . S
C781 C778 1.409 1_545 S
C781 C779 1.415 . S
C782 H772 0.930 . S
C782 C780 1.419 . S
C782 C783 1.362 . S
C783 H773 0.930 . S
C783 C776 1.409 . S
C783 C782 1.362 . S
H784 C790 0.930 . S
H785 C793 0.930 . S
H786 C794 0.930 . S
H787 C795 0.930 . S
H788 C798 0.930 . S
H789 C799 0.930 . S
C790 H784 0.930 . S
C790 C791 1.355 . S
C790 C792 1.415 . S
C791 C790 1.355 . S
C791 C793 1.419 . S
C792 C790 1.415 . S
C792 C797 1.425 . S
C792 C799 1.409 . S
C793 H785 0.930 . S
C793 C791 1.419 . S
C793 C794 1.362 . S
C794 H786 0.930 . S
C794 C793 1.362 . S
C794 C797 1.409 . S
C795 H787 0.930 . S
C795 C796 1.355 . S
C795 C797 1.415 . S
C796 C795 1.355 . S
C796 C798 1.419 . S
C797 C792 1.425 . S
C797 C794 1.409 . S
C797 C795 1.415 . S
C798 H788 0.930 . S
C798 C796 1.419 . S
C798 C799 1.362 . S
C799 H789 0.930 . S
C799 C792 1.409 . S
C799 C798 1.362 . S
H800 C806 0.930 . S
H801 C809 0.930 . S
H802 C810 0.930 1_556 S
H803 C811 0.930 . S
H804 C814 0.930 . S
H805 C815 0.930 . S
C806 H800 0.930 . S
C806 C807 1.355 . S
C806 C808 1.415 . S
C807 C806 1.355 . S
C807 C809 1.419 1_554 S
C808 C806 1.415 . S
C808 C813 1.425 . S
C808 C815 1.409 . S
C809 H801 0.930 . S
C809 C807 1.419 1_556 S
C809 C810 1.362 1_556 S
C810 H802 0.930 1_554 S
C810 C809 1.362 1_554 S
C810 C813 1.409 . S
C811 H803 0.930 . S
C811 C812 1.355 . S
C811 C813 1.415 . S
C812 C811 1.355 . S
C812 C814 1.419 . S
C813 C808 1.425 . S
C813 C810 1.409 . S
C813 C811 1.415 . S
C814 H804 0.930 . S
C814 C812 1.419 . S
C814 C815 1.362 . S
C815 H805 0.930 . S
C815 C808 1.409 . S
C815 C814 1.362 . S
H816 C822 0.930 . S
H817 C825 0.930 . S
H818 C826 0.930 . S
H819 C827 0.930 . S
H820 C830 0.930 . S
H821 C831 0.930 . S
C822 H816 0.930 . S
C822 C823 1.355 . S
C822 C824 1.415 . S
C823 C822 1.355 . S
C823 C825 1.419 . S
C824 C822 1.415 . S
C824 C829 1.425 . S
C824 C831 1.409 . S
C825 H817 0.930 . S
C825 C823 1.419 . S
C825 C826 1.362 . S
C826 H818 0.930 . S
C826 C825 1.362 . S
C826 C829 1.409 . S
C827 H819 0.930 . S
C827 C828 1.355 . S
C827 C829 1.415 . S
C828 C827 1.355 . S
C828 C830 1.419 . S
C829 C824 1.425 . S
C829 C826 1.409 . S
C829 C827 1.415 . S
C830 H820 0.930 . S
C830 C828 1.419 . S
C830 C831 1.362 . S
C831 H821 0.930 . S
C831 C824 1.409 . S
C831 C830 1.362 . S
H832 C838 0.931 . S
H833 C841 0.930 . S
H834 C842 0.930 . S
H835 C843 0.930 . S
H836 C846 0.930 . S
H837 C847 0.933 . S
C838 H832 0.931 . S
C838 C839 1.354 1_554 S
C838 C840 1.414 1_554 S
C839 C838 1.354 1_556 S
C839 C841 1.419 . S
C840 C838 1.414 1_556 S
C840 C845 1.425 . S
C840 C847 1.408 1_556 S
C841 H833 0.930 . S
C841 C839 1.419 . S
C841 C842 1.362 . S
C842 H834 0.930 . S
C842 C841 1.362 . S
C842 C845 1.409 . S
C843 H835 0.930 . S
C843 C844 1.355 . S
C843 C845 1.415 . S
C844 C843 1.355 . S
C844 C846 1.419 . S
C845 C840 1.425 . S
C845 C842 1.409 . S
C845 C843 1.415 . S
C846 H836 0.930 . S
C846 C844 1.419 . S
C846 C847 1.361 1_556 S
C847 H837 0.933 . S
C847 C840 1.408 1_554 S
C847 C846 1.361 1_554 S
H848 C854 0.930 . S
H849 C857 0.930 . S
H850 C858 0.930 . S
H851 C859 0.930 . S
H852 C862 0.930 . S
H853 C863 0.930 . S
C854 H848 0.930 . S
C854 C855 1.355 . S
C854 C856 1.415 . S
C855 C854 1.355 . S
C855 C857 1.419 . S
C856 C854 1.415 . S
C856 C861 1.425 . S
C856 C863 1.409 . S
C857 H849 0.930 . S
C857 C855 1.419 . S
C857 C858 1.362 . S
C858 H850 0.930 . S
C858 C857 1.362 . S
C858 C861 1.409 . S
C859 H851 0.930 . S
C859 C860 1.355 . S
C859 C861 1.415 . S
C860 C859 1.355 . S
C860 C862 1.419 . S
C861 C856 1.425 . S
C861 C858 1.409 . S
C861 C859 1.415 . S
C862 H852 0.930 . S
C862 C860 1.419 . S
C862 C863 1.362 . S
C863 H853 0.930 . S
C863 C856 1.409 . S
C863 C862 1.362 . S
H864 C870 0.930 . S
H865 C873 0.930 . S
H866 C874 0.930 . S
H867 C875 0.930 . S
H868 C878 0.930 1_655 S
H869 C879 0.930 . S
C870 H864 0.930 . S
C870 C871 1.355 1_655 S
C870 C872 1.415 1_655 S
C871 C870 1.355 1_455 S
C871 C873 1.419 . S
C872 C870 1.415 1_455 S
C872 C877 1.425 . S
C872 C879 1.409 1_455 S
C873 H865 0.930 . S
C873 C871 1.419 . S
C873 C874 1.362 . S
C874 H866 0.930 . S
C874 C873 1.362 . S
C874 C877 1.409 . S
C875 H867 0.930 . S
C875 C876 1.355 . S
C875 C877 1.415 . S
C876 C875 1.355 . S
C876 C878 1.419 . S
C877 C872 1.425 . S
C877 C874 1.409 . S
C877 C875 1.415 . S
C878 H868 0.930 1_455 S
C878 C876 1.419 . S
C878 C879 1.362 1_455 S
C879 H869 0.930 . S
C879 C872 1.409 1_655 S
C879 C878 1.362 1_655 S
H880 C886 0.930 . S
H881 C889 0.930 . S
H882 C890 0.930 . S
H883 C891 0.930 . S
H884 C894 0.930 . S
H885 C895 0.930 . S
C886 H880 0.930 . S
C886 C887 1.355 . S
C886 C888 1.415 . S
C887 C886 1.355 . S
C887 C889 1.419 . S
C888 C886 1.415 . S
C888 C893 1.425 . S
C888 C895 1.409 . S
C889 H881 0.930 . S
C889 C887 1.419 . S
C889 C890 1.362 . S
C890 H882 0.930 . S
C890 C889 1.362 . S
C890 C893 1.409 . S
C891 H883 0.930 . S
C891 C892 1.355 . S
C891 C893 1.415 . S
C892 C891 1.355 . S
C892 C894 1.419 . S
C893 C888 1.425 . S
C893 C890 1.409 . S
C893 C891 1.415 . S
C894 H884 0.930 . S
C894 C892 1.419 . S
C894 C895 1.362 . S
C895 H885 0.930 . S
C895 C888 1.409 . S
C895 C894 1.362 . S
H896 C902 0.930 . S
H897 C905 0.930 . S
H898 C906 0.930 . S
H899 C907 0.957 . S
H900 C910 0.930 . S
H901 C911 0.930 . S
C902 H896 0.930 . S
C902 C903 1.355 . S
C902 C904 1.415 . S
C903 C902 1.355 . S
C903 C905 1.419 1_655 S
C904 C902 1.415 . S
C904 C909 1.425 . S
C904 C911 1.409 . S
C905 H897 0.930 . S
C905 C903 1.419 1_455 S
C905 C906 1.362 . S
C906 H898 0.930 . S
C906 C905 1.362 . S
C906 C909 1.409 1_455 S
C907 H899 0.957 . S
C907 C908 1.355 . S
C907 C909 1.415 . S
C908 C907 1.355 . S
C908 C910 1.419 . S
C909 C904 1.425 . S
C909 C906 1.409 1_655 S
C909 C907 1.415 . S
C910 H900 0.930 . S
C910 C908 1.419 . S
C910 C911 1.362 . S
C911 H901 0.930 . S
C911 C904 1.409 . S
C911 C910 1.362 . S
H912 C918 0.930 . S
H913 C921 0.930 . S
H914 C922 0.930 . S
H915 C923 0.930 . S
H916 C926 0.930 . S
H917 C927 0.930 . S
C918 H912 0.930 . S
C918 C919 1.355 . S
C918 C920 1.415 . S
C919 C918 1.355 . S
C919 C921 1.419 . S
C920 C918 1.415 . S
C920 C925 1.425 . S
C920 C927 1.409 . S
C921 H913 0.930 . S
C921 C919 1.419 . S
C921 C922 1.362 . S
C922 H914 0.930 . S
C922 C921 1.362 . S
C922 C925 1.409 . S
C923 H915 0.930 . S
C923 C924 1.355 . S
C923 C925 1.415 . S
C924 C923 1.355 . S
C924 C926 1.419 . S
C925 C920 1.425 . S
C925 C922 1.409 . S
C925 C923 1.415 . S
C926 H916 0.930 . S
C926 C924 1.419 . S
C926 C927 1.362 . S
C927 H917 0.930 . S
C927 C920 1.409 . S
C927 C926 1.362 . S
H928 C934 0.930 . S
H929 C937 0.930 . S
H930 C938 0.930 . S
H931 C939 0.930 . S
H932 C942 0.930 . S
H933 C943 0.930 . S
C934 H928 0.930 . S
C934 C935 1.355 . S
C934 C936 1.415 . S
C935 C934 1.355 . S
C935 C937 1.419 . S
C936 C934 1.415 . S
C936 C941 1.425 . S
C936 C943 1.409 . S
C937 H929 0.930 . S
C937 C935 1.419 . S
C937 C938 1.362 . S
C938 H930 0.930 . S
C938 C937 1.362 . S
C938 C941 1.409 . S
C939 H931 0.930 . S
C939 C940 1.355 . S
C939 C941 1.415 . S
C940 C939 1.355 . S
C940 C942 1.419 . S
C941 C936 1.425 . S
C941 C938 1.409 . S
C941 C939 1.415 . S
C942 H932 0.930 . S
C942 C940 1.419 . S
C942 C943 1.362 . S
C943 H933 0.930 . S
C943 C936 1.409 . S
C943 C942 1.362 . S
H944 C950 0.930 1_545 S
H945 C953 0.930 . S
H946 C954 0.930 . S
H947 C955 0.930 . S
H948 C958 0.930 . S
H949 C959 0.930 . S
C950 H944 0.930 1_565 S
C950 C951 1.355 . S
C950 C952 1.415 . S
C951 C950 1.355 . S
C951 C953 1.419 . S
C952 C950 1.415 . S
C952 C957 1.425 . S
C952 C959 1.409 1_565 S
C953 H945 0.930 . S
C953 C951 1.419 . S
C953 C954 1.362 . S
C954 H946 0.930 . S
C954 C953 1.362 . S
C954 C957 1.409 . S
C955 H947 0.930 . S
C955 C956 1.355 . S
C955 C957 1.415 . S
C956 C955 1.355 . S
C956 C958 1.419 1_565 S
C957 C952 1.425 . S
C957 C954 1.409 . S
C957 C955 1.415 . S
C958 H948 0.930 . S
C958 C956 1.419 1_545 S
C958 C959 1.362 . S
C959 H949 0.930 . S
C959 C952 1.409 1_545 S
C959 C958 1.362 . S
H960 C966 0.930 . S
H961 C969 0.930 . S
H962 C970 0.930 . S
H963 C971 0.930 . S
H964 C974 0.930 1_545 S
H965 C975 0.930 . S
C966 H960 0.930 . S
C966 C967 1.358 . S
C966 C968 1.415 1_545 S
C967 C966 1.358 . S
C967 C969 1.414 1_545 S
C968 C966 1.415 1_565 S
C968 C973 1.425 . S
C968 C975 1.409 1_565 S
C969 H961 0.930 . S
C969 C967 1.414 1_565 S
C969 C970 1.362 . S
C970 H962 0.930 . S
C970 C969 1.362 . S
C970 C973 1.409 . S
C971 H963 0.930 . S
C971 C972 1.355 . S
C971 C973 1.415 . S
C972 C971 1.355 . S
C972 C974 1.419 . S
C973 C968 1.425 . S
C973 C970 1.409 . S
C973 C971 1.415 . S
C974 H964 0.930 1_565 S
C974 C972 1.419 . S
C974 C975 1.362 1_565 S
C975 H965 0.930 . S
C975 C968 1.409 1_545 S
C975 C974 1.362 1_545 S
H976 C982 0.930 . S
H977 C985 0.930 . S
H978 C986 0.930 . S
H979 C987 0.930 . S
H980 C990 0.930 . S
H981 C991 0.930 . S
C982 H976 0.930 . S
C982 C983 1.355 . S
C982 C984 1.415 . S
C983 C982 1.355 . S
C983 C985 1.419 . S
C984 C982 1.415 . S
C984 C989 1.425 . S
C984 C991 1.409 . S
C985 H977 0.930 . S
C985 C983 1.419 . S
C985 C986 1.362 . S
C986 H978 0.930 . S
C986 C985 1.362 . S
C986 C989 1.409 . S
C987 H979 0.930 . S
C987 C988 1.355 . S
C987 C989 1.415 . S
C988 C987 1.355 . S
C988 C990 1.419 . S
C989 C984 1.425 . S
C989 C986 1.409 . S
C989 C987 1.415 . S
C990 H980 0.930 . S
C990 C988 1.419 . S
C990 C991 1.362 . S
C991 H981 0.930 . S
C991 C984 1.409 . S
C991 C990 1.362 . S
H992 C998 0.930 . S
H993 C1001 0.930 . S
H994 C1002 0.930 . S
H995 C1003 0.930 . S
H996 C1006 0.930 . S
H997 C1007 0.930 . S
C998 H992 0.930 . S
C998 C999 1.355 1_556 S
C998 C1000 1.415 . S
C999 C998 1.355 1_554 S
C999 C1001 1.419 . S
C1000 C998 1.415 . S
C1000 C1005 1.425 . S
C1000 C1007 1.409 . S
C1001 H993 0.930 . S
C1001 C999 1.419 . S
C1001 C1002 1.362 . S
C1002 H994 0.930 . S
C1002 C1001 1.362 . S
C1002 C1005 1.409 1_554 S
C1003 H995 0.930 . S
C1003 C1004 1.355 . S
C1003 C1005 1.415 . S
C1004 C1003 1.355 . S
C1004 C1006 1.419 . S
C1005 C1000 1.425 . S
C1005 C1002 1.409 1_556 S
C1005 C1003 1.415 . S
C1006 H996 0.930 . S
C1006 C1004 1.419 . S
C1006 C1007 1.362 . S
C1007 H997 0.930 . S
C1007 C1000 1.409 . S
C1007 C1006 1.362 . S
H1008 C1014 0.930 . S
H1009 C1017 0.930 . S
H1010 C1018 0.930 . S
H1011 C1019 0.930 . S
H1012 C1022 0.930 . S
H1013 C1023 0.930 . S
C1014 H1008 0.930 . S
C1014 C1015 1.355 . S
C1014 C1016 1.415 . S
C1015 C1014 1.355 . S
C1015 C1017 1.419 . S
C1016 C1014 1.415 . S
C1016 C1021 1.425 . S
C1016 C1023 1.409 . S
C1017 H1009 0.930 . S
C1017 C1015 1.419 . S
C1017 C1018 1.362 . S
C1018 H1010 0.930 . S
C1018 C1017 1.362 . S
C1018 C1021 1.409 . S
C1019 H1011 0.930 . S
C1019 C1020 1.355 . S
C1019 C1021 1.415 . S
C1020 C1019 1.355 . S
C1020 C1022 1.419 . S
C1021 C1016 1.425 . S
C1021 C1018 1.409 . S
C1021 C1019 1.415 . S
C1022 H1012 0.930 . S
C1022 C1020 1.419 . S
C1022 C1023 1.362 . S
C1023 H1013 0.930 . S
C1023 C1016 1.409 . S
C1023 C1022 1.362 . S
H1024 C1030 0.930 . S
H1025 C1033 0.930 . S
H1026 C1034 0.930 . S
H1027 C1035 0.930 . S
H1028 C1038 0.930 . S
H1029 C1039 0.930 . S
C1030 H1024 0.930 . S
C1030 C1031 1.355 1_554 S
C1030 C1032 1.415 . S
C1031 C1030 1.355 1_556 S
C1031 C1033 1.419 . S
C1032 C1030 1.415 . S
C1032 C1037 1.425 1_554 S
C1032 C1039 1.409 . S
C1033 H1025 0.930 . S
C1033 C1031 1.419 . S
C1033 C1034 1.362 . S
C1034 H1026 0.930 . S
C1034 C1033 1.362 . S
C1034 C1037 1.409 . S
C1035 H1027 0.930 . S
C1035 C1036 1.381 . S
C1035 C1037 1.415 . S
C1036 C1035 1.381 . S
C1036 C1038 1.392 1_556 S
C1037 C1032 1.425 1_556 S
C1037 C1034 1.409 . S
C1037 C1035 1.415 . S
C1038 H1028 0.930 . S
C1038 C1036 1.392 1_554 S
C1038 C1039 1.362 . S
C1039 H1029 0.930 . S
C1039 C1032 1.409 . S
C1039 C1038 1.362 . S
H1040 C1046 0.930 . S
H1041 C1049 0.930 . S
H1042 C1050 0.930 . S
H1043 C1051 0.930 . S
H1044 C1054 0.930 . S
H1045 C1055 0.930 . S
C1046 H1040 0.930 . S
C1046 C1047 1.355 . S
C1046 C1048 1.415 . S
C1047 C1046 1.355 . S
C1047 C1049 1.419 . S
C1048 C1046 1.415 . S
C1048 C1053 1.425 . S
C1048 C1055 1.409 . S
C1049 H1041 0.930 . S
C1049 C1047 1.419 . S
C1049 C1050 1.362 . S
C1050 H1042 0.930 . S
C1050 C1049 1.362 . S
C1050 C1053 1.409 . S
C1051 H1043 0.930 . S
C1051 C1052 1.355 . S
C1051 C1053 1.415 . S
C1052 C1051 1.355 . S
C1052 C1054 1.419 . S
C1053 C1048 1.425 . S
C1053 C1050 1.409 . S
C1053 C1051 1.415 . S
C1054 H1044 0.930 . S
C1054 C1052 1.419 . S
C1054 C1055 1.362 . S
C1055 H1045 0.930 . S
C1055 C1048 1.409 . S
C1055 C1054 1.362 . S
H1056 C1062 0.930 . S
H1057 C1065 0.930 . S
H1058 C1066 0.930 . S
H1059 C1067 0.930 1_455 S
H1060 C1070 0.930 . S
H1061 C1071 0.930 . S
C1062 H1056 0.930 . S
C1062 C1063 1.355 1_655 S
C1062 C1064 1.415 . S
C1063 C1062 1.355 1_455 S
C1063 C1065 1.419 . S
C1064 C1062 1.415 . S
C1064 C1069 1.452 . S
C1064 C1071 1.409 . S
C1065 H1057 0.930 . S
C1065 C1063 1.419 . S
C1065 C1066 1.362 . S
C1066 H1058 0.930 . S
C1066 C1065 1.362 . S
C1066 C1069 1.385 1_455 S
C1067 H1059 0.930 1_655 S
C1067 C1068 1.355 . S
C1067 C1069 1.414 . S
C1068 C1067 1.355 . S
C1068 C1070 1.419 . S
C1069 C1064 1.452 . S
C1069 C1066 1.385 1_655 S
C1069 C1067 1.414 . S
C1070 H1060 0.930 . S
C1070 C1068 1.419 . S
C1070 C1071 1.362 . S
C1071 H1061 0.930 . S
C1071 C1064 1.409 . S
C1071 C1070 1.362 . S
H1072 C1078 0.930 . S
H1073 C1081 0.930 . S
H1074 C1082 0.930 . S
H1075 C1083 0.930 . S
H1076 C1086 0.930 . S
H1077 C1087 0.930 . S
C1078 H1072 0.930 . S
C1078 C1079 1.355 . S
C1078 C1080 1.415 . S
C1079 C1078 1.355 . S
C1079 C1081 1.419 . S
C1080 C1078 1.415 . S
C1080 C1085 1.425 . S
C1080 C1087 1.409 . S
C1081 H1073 0.930 . S
C1081 C1079 1.419 . S
C1081 C1082 1.362 . S
C1082 H1074 0.930 . S
C1082 C1081 1.362 . S
C1082 C1085 1.409 . S
C1083 H1075 0.930 . S
C1083 C1084 1.355 . S
C1083 C1085 1.415 . S
C1084 C1083 1.355 . S
C1084 C1086 1.419 . S
C1085 C1080 1.425 . S
C1085 C1082 1.409 . S
C1085 C1083 1.415 . S
C1086 H1076 0.930 . S
C1086 C1084 1.419 . S
C1086 C1087 1.362 . S
C1087 H1077 0.930 . S
C1087 C1080 1.409 . S
C1087 C1086 1.362 . S
H1088 C1094 0.930 . S
H1089 C1097 0.934 . S
H1090 C1098 0.930 . S
H1091 C1099 0.930 . S
H1092 C1102 0.930 . S
H1093 C1103 0.930 . S
C1094 H1088 0.930 . S
C1094 C1095 1.355 . S
C1094 C1096 1.415 . S
C1095 C1094 1.355 . S
C1095 C1097 1.410 1_655 S
C1096 C1094 1.415 . S
C1096 C1101 1.425 . S
C1096 C1103 1.409 . S
C1097 H1089 0.934 . S
C1097 C1095 1.410 1_455 S
C1097 C1098 1.368 . S
C1098 H1090 0.930 . S
C1098 C1097 1.368 . S
C1098 C1101 1.409 1_455 S
C1099 H1091 0.930 . S
C1099 C1100 1.355 1_455 S
C1099 C1101 1.415 1_455 S
C1100 C1099 1.355 1_655 S
C1100 C1102 1.419 . S
C1101 C1096 1.425 . S
C1101 C1098 1.409 1_655 S
C1101 C1099 1.415 1_655 S
C1102 H1092 0.930 . S
C1102 C1100 1.419 . S
C1102 C1103 1.362 . S
C1103 H1093 0.930 . S
C1103 C1096 1.409 . S
C1103 C1102 1.362 . S
H1104 C1110 0.930 . S
H1105 C1113 0.930 . S
H1106 C1114 0.930 . S
H1107 C1115 0.930 . S
H1108 C1118 0.930 . S
H1109 C1119 0.930 . S
C1110 H1104 0.930 . S
C1110 C1111 1.355 . S
C1110 C1112 1.415 . S
C1111 C1110 1.355 . S
C1111 C1113 1.419 . S
C1112 C1110 1.415 . S
C1112 C1117 1.425 . S
C1112 C1119 1.409 . S
C1113 H1105 0.930 . S
C1113 C1111 1.419 . S
C1113 C1114 1.362 . S
C1114 H1106 0.930 . S
C1114 C1113 1.362 . S
C1114 C1117 1.409 . S
C1115 H1107 0.930 . S
C1115 C1116 1.355 . S
C1115 C1117 1.415 . S
C1116 C1115 1.355 . S
C1116 C1118 1.419 . S
C1117 C1112 1.425 . S
C1117 C1114 1.409 . S
C1117 C1115 1.415 . S
C1118 H1108 0.930 . S
C1118 C1116 1.419 . S
C1118 C1119 1.362 . S
C1119 H1109 0.930 . S
C1119 C1112 1.409 . S
C1119 C1118 1.362 . S
H1120 C1126 0.930 . S
H1121 C1129 0.930 . S
H1122 C1130 0.930 . S
H1123 C1131 0.930 . S
H1124 C1134 0.930 . S
H1125 C1135 0.930 . S
C1126 H1120 0.930 . S
C1126 C1127 1.355 . S
C1126 C1128 1.415 . S
C1127 C1126 1.355 . S
C1127 C1129 1.419 . S
C1128 C1126 1.415 . S
C1128 C1133 1.425 . S
C1128 C1135 1.409 . S
C1129 H1121 0.930 . S
C1129 C1127 1.419 . S
C1129 C1130 1.362 . S
C1130 H1122 0.930 . S
C1130 C1129 1.362 . S
C1130 C1133 1.409 . S
C1131 H1123 0.930 . S
C1131 C1132 1.355 . S
C1131 C1133 1.415 . S
C1132 C1131 1.355 . S
C1132 C1134 1.419 . S
C1133 C1128 1.425 . S
C1133 C1130 1.409 . S
C1133 C1131 1.415 . S
C1134 H1124 0.930 . S
C1134 C1132 1.419 . S
C1134 C1135 1.362 . S
C1135 H1125 0.930 . S
C1135 C1128 1.409 . S
C1135 C1134 1.362 . S
H1136 C1142 0.930 . S
H1137 C1145 0.930 . S
H1138 C1146 0.930 . S
H1139 C1147 0.930 . S
H1140 C1150 0.930 . S
H1141 C1151 0.930 . S
C1142 H1136 0.930 . S
C1142 C1143 1.355 . S
C1142 C1144 1.415 . S
C1143 C1142 1.355 . S
C1143 C1145 1.419 . S
C1144 C1142 1.415 . S
C1144 C1149 1.425 . S
C1144 C1151 1.409 . S
C1145 H1137 0.930 . S
C1145 C1143 1.419 . S
C1145 C1146 1.362 . S
C1146 H1138 0.930 . S
C1146 C1145 1.362 . S
C1146 C1149 1.409 . S
C1147 H1139 0.930 . S
C1147 C1148 1.355 . S
C1147 C1149 1.415 . S
C1148 C1147 1.355 . S
C1148 C1150 1.419 . S
C1149 C1144 1.425 . S
C1149 C1146 1.409 . S
C1149 C1147 1.415 . S
C1150 H1140 0.930 . S
C1150 C1148 1.419 . S
C1150 C1151 1.362 . S
C1151 H1141 0.930 . S
C1151 C1144 1.409 . S
C1151 C1150 1.362 . S
H1152 C1158 0.930 . S
H1153 C1161 0.930 . S
H1154 C1162 0.930 . S
H1155 C1163 0.930 . S
H1156 C1166 0.930 . S
H1157 C1167 0.930 . S
C1158 H1152 0.930 . S
C1158 C1159 1.348 1_565 S
C1158 C1160 1.426 . S
C1159 C1158 1.348 1_545 S
C1159 C1161 1.429 . S
C1160 C1158 1.426 . S
C1160 C1165 1.392 1_565 S
C1160 C1167 1.430 . S
C1161 H1153 0.930 . S
C1161 C1159 1.429 . S
C1161 C1162 1.362 . S
C1162 H1154 0.930 . S
C1162 C1161 1.362 . S
C1162 C1165 1.409 . S
C1163 H1155 0.930 . S
C1163 C1164 1.355 . S
C1163 C1165 1.415 . S
C1164 C1163 1.355 . S
C1164 C1166 1.419 1_545 S
C1165 C1160 1.392 1_545 S
C1165 C1162 1.409 . S
C1165 C1163 1.415 . S
C1166 H1156 0.930 . S
C1166 C1164 1.419 1_565 S
C1166 C1167 1.362 . S
C1167 H1157 0.930 . S
C1167 C1160 1.430 . S
C1167 C1166 1.362 . S
H1168 C1174 0.930 . S
H1169 C1177 0.930 . S
H1170 C1178 0.930 . S
H1171 C1179 0.930 . S
H1172 C1182 0.930 . S
H1173 C1183 0.930 . S
C1174 H1168 0.930 . S
C1174 C1175 1.355 . S
C1174 C1176 1.415 . S
C1175 C1174 1.355 . S
C1175 C1177 1.419 . S
C1176 C1174 1.415 . S
C1176 C1181 1.425 . S
C1176 C1183 1.409 . S
C1177 H1169 0.930 . S
C1177 C1175 1.419 . S
C1177 C1178 1.362 . S
C1178 H1170 0.930 . S
C1178 C1177 1.362 . S
C1178 C1181 1.409 . S
C1179 H1171 0.930 . S
C1179 C1180 1.355 . S
C1179 C1181 1.415 . S
C1180 C1179 1.355 . S
C1180 C1182 1.419 . S
C1181 C1176 1.425 . S
C1181 C1178 1.409 . S
C1181 C1179 1.415 . S
C1182 H1172 0.930 . S
C1182 C1180 1.419 . S
C1182 C1183 1.362 . S
C1183 H1173 0.930 . S
C1183 C1176 1.409 . S
C1183 C1182 1.362 . S
H1184 C1190 0.930 . S
H1185 C1193 0.930 . S
H1186 C1194 0.930 . S
H1187 C1195 0.930 1_556 S
H1188 C1198 0.930 . S
H1189 C1199 0.930 . S
C1190 H1184 0.930 . S
C1190 C1191 1.355 1_554 S
C1190 C1192 1.415 . S
C1191 C1190 1.355 1_556 S
C1191 C1193 1.419 . S
C1192 C1190 1.415 . S
C1192 C1197 1.425 . S
C1192 C1199 1.409 . S
C1193 H1185 0.930 . S
C1193 C1191 1.419 . S
C1193 C1194 1.362 . S
C1194 H1186 0.930 . S
C1194 C1193 1.362 . S
C1194 C1197 1.409 1_556 S
C1195 H1187 0.930 1_554 S
C1195 C1196 1.355 . S
C1195 C1197 1.415 . S
C1196 C1195 1.355 . S
C1196 C1198 1.419 . S
C1197 C1192 1.425 . S
C1197 C1194 1.409 1_554 S
C1197 C1195 1.415 . S
C1198 H1188 0.930 . S
C1198 C1196 1.419 . S
C1198 C1199 1.362 . S
C1199 H1189 0.930 . S
C1199 C1192 1.409 . S
C1199 C1198 1.362 . S
H1200 C1206 0.930 . S
H1201 C1209 0.930 . S
H1202 C1210 0.930 . S
H1203 C1211 0.930 . S
H1204 C1214 0.930 . S
H1205 C1215 0.930 . S
C1206 H1200 0.930 . S
C1206 C1207 1.355 . S
C1206 C1208 1.415 . S
C1207 C1206 1.355 . S
C1207 C1209 1.419 . S
C1208 C1206 1.415 . S
C1208 C1213 1.425 . S
C1208 C1215 1.409 . S
C1209 H1201 0.930 . S
C1209 C1207 1.419 . S
C1209 C1210 1.362 . S
C1210 H1202 0.930 . S
C1210 C1209 1.362 . S
C1210 C1213 1.409 . S
C1211 H1203 0.930 . S
C1211 C1212 1.355 . S
C1211 C1213 1.415 . S
C1212 C1211 1.355 . S
C1212 C1214 1.419 . S
C1213 C1208 1.425 . S
C1213 C1210 1.409 . S
C1213 C1211 1.415 . S
C1214 H1204 0.930 . S
C1214 C1212 1.419 . S
C1214 C1215 1.362 . S
C1215 H1205 0.930 . S
C1215 C1208 1.409 . S
C1215 C1214 1.362 . S
H1216 C1222 0.930 . S
H1217 C1225 0.930 . S
H1218 C1226 0.930 . S
H1219 C1227 0.930 . S
H1220 C1230 0.930 1_556 S
H1221 C1231 0.935 1_556 S
C1222 H1216 0.930 . S
C1222 C1223 1.355 . S
C1222 C1224 1.415 . S
C1223 C1222 1.355 . S
C1223 C1225 1.419 . S
C1224 C1222 1.415 . S
C1224 C1229 1.425 . S
C1224 C1231 1.415 . S
C1225 H1217 0.930 . S
C1225 C1223 1.419 . S
C1225 C1226 1.362 . S
C1226 H1218 0.930 . S
C1226 C1225 1.362 . S
C1226 C1229 1.409 . S
C1227 H1219 0.930 . S
C1227 C1228 1.355 . S
C1227 C1229 1.415 . S
C1228 C1227 1.355 . S
C1228 C1230 1.419 . S
C1229 C1224 1.425 . S
C1229 C1226 1.409 . S
C1229 C1227 1.415 . S
C1230 H1220 0.930 1_554 S
C1230 C1228 1.419 . S
C1230 C1231 1.357 . S
C1231 H1221 0.935 1_554 S
C1231 C1224 1.415 . S
C1231 C1230 1.357 . S
H1232 C1238 0.930 . S
H1233 C1241 0.930 . S
H1234 C1242 0.930 . S
H1235 C1243 0.930 . S
H1236 C1246 0.930 . S
H1237 C1247 0.930 . S
C1238 H1232 0.930 . S
C1238 C1239 1.355 . S
C1238 C1240 1.415 . S
C1239 C1238 1.355 . S
C1239 C1241 1.419 . S
C1240 C1238 1.415 . S
C1240 C1245 1.425 . S
C1240 C1247 1.409 . S
C1241 H1233 0.930 . S
C1241 C1239 1.419 . S
C1241 C1242 1.362 . S
C1242 H1234 0.930 . S
C1242 C1241 1.362 . S
C1242 C1245 1.409 . S
C1243 H1235 0.930 . S
C1243 C1244 1.355 . S
C1243 C1245 1.415 . S
C1244 C1243 1.355 . S
C1244 C1246 1.419 . S
C1245 C1240 1.425 . S
C1245 C1242 1.409 . S
C1245 C1243 1.415 . S
C1246 H1236 0.930 . S
C1246 C1244 1.419 . S
C1246 C1247 1.362 . S
C1247 H1237 0.930 . S
C1247 C1240 1.409 . S
C1247 C1246 1.362 . S
H1248 C1254 0.938 . S
H1249 C1257 0.930 . S
H1250 C1258 0.930 . S
H1251 C1259 0.930 . S
H1252 C1262 0.930 . S
H1253 C1263 0.930 . S
C1254 H1248 0.938 . S
C1254 C1255 1.353 . S
C1254 C1256 1.410 1_655 S
C1255 C1254 1.353 . S
C1255 C1257 1.419 1_655 S
C1256 C1254 1.410 1_455 S
C1256 C1261 1.425 . S
C1256 C1263 1.409 . S
C1257 H1249 0.930 . S
C1257 C1255 1.419 1_455 S
C1257 C1258 1.362 . S
C1258 H1250 0.930 . S
C1258 C1257 1.362 . S
C1258 C1261 1.409 . S
C1259 H1251 0.930 . S
C1259 C1260 1.355 . S
C1259 C1261 1.415 . S
C1260 C1259 1.355 . S
C1260 C1262 1.419 . S
C1261 C1256 1.425 . S
C1261 C1258 1.409 . S
C1261 C1259 1.415 . S
C1262 H1252 0.930 . S
C1262 C1260 1.419 . S
C1262 C1263 1.362 . S
C1263 H1253 0.930 . S
C1263 C1256 1.409 . S
C1263 C1262 1.362 . S
H1264 C1270 0.930 . S
H1265 C1273 0.930 . S
H1266 C1274 0.930 . S
H1267 C1275 0.930 . S
H1268 C1278 0.930 . S
H1269 C1279 0.930 . S
C1270 H1264 0.930 . S
C1270 C1271 1.355 . S
C1270 C1272 1.415 . S
C1271 C1270 1.355 . S
C1271 C1273 1.419 . S
C1272 C1270 1.415 . S
C1272 C1277 1.425 . S
C1272 C1279 1.409 . S
C1273 H1265 0.930 . S
C1273 C1271 1.419 . S
C1273 C1274 1.362 . S
C1274 H1266 0.930 . S
C1274 C1273 1.362 . S
C1274 C1277 1.409 . S
C1275 H1267 0.930 . S
C1275 C1276 1.355 . S
C1275 C1277 1.415 . S
C1276 C1275 1.355 . S
C1276 C1278 1.419 . S
C1277 C1272 1.425 . S
C1277 C1274 1.409 . S
C1277 C1275 1.415 . S
C1278 H1268 0.930 . S
C1278 C1276 1.419 . S
C1278 C1279 1.362 . S
C1279 H1269 0.930 . S
C1279 C1272 1.409 . S
C1279 C1278 1.362 . S
H1280 C1286 0.930 . S
H1281 C1289 0.930 . S
H1282 C1290 0.930 . S
H1283 C1291 0.930 . S
H1284 C1294 0.930 . S
H1285 C1295 0.930 . S
C1286 H1280 0.930 . S
C1286 C1287 1.355 . S
C1286 C1288 1.415 . S
C1287 C1286 1.355 . S
C1287 C1289 1.419 1_455 S
C1288 C1286 1.415 . S
C1288 C1293 1.425 1_455 S
C1288 C1295 1.409 . S
C1289 H1281 0.930 . S
C1289 C1287 1.419 1_655 S
C1289 C1290 1.362 . S
C1290 H1282 0.930 . S
C1290 C1289 1.362 . S
C1290 C1293 1.409 . S
C1291 H1283 0.930 . S
C1291 C1292 1.355 1_655 S
C1291 C1293 1.415 . S
C1292 C1291 1.355 1_455 S
C1292 C1294 1.419 . S
C1293 C1288 1.425 1_655 S
C1293 C1290 1.409 . S
C1293 C1291 1.415 . S
C1294 H1284 0.930 . S
C1294 C1292 1.419 . S
C1294 C1295 1.362 . S
C1295 H1285 0.930 . S
C1295 C1288 1.409 . S
C1295 C1294 1.362 . S
H1296 C1302 0.930 . S
H1297 C1305 0.930 . S
H1298 C1306 0.930 . S
H1299 C1307 0.930 . S
H1300 C1310 0.930 . S
H1301 C1311 0.930 . S
C1302 H1296 0.930 . S
C1302 C1303 1.355 . S
C1302 C1304 1.415 . S
C1303 C1302 1.355 . S
C1303 C1305 1.419 . S
C1304 C1302 1.415 . S
C1304 C1309 1.425 . S
C1304 C1311 1.409 . S
C1305 H1297 0.930 . S
C1305 C1303 1.419 . S
C1305 C1306 1.362 . S
C1306 H1298 0.930 . S
C1306 C1305 1.362 . S
C1306 C1309 1.409 . S
C1307 H1299 0.930 . S
C1307 C1308 1.355 . S
C1307 C1309 1.415 . S
C1308 C1307 1.355 . S
C1308 C1310 1.419 . S
C1309 C1304 1.425 . S
C1309 C1306 1.409 . S
C1309 C1307 1.415 . S
C1310 H1300 0.930 . S
C1310 C1308 1.419 . S
C1310 C1311 1.362 . S
C1311 H1301 0.930 . S
C1311 C1304 1.409 . S
C1311 C1310 1.362 . S
H1312 C1318 0.930 . S
H1313 C1321 0.930 . S
H1314 C1322 0.930 . S
H1315 C1323 0.930 . S
H1316 C1326 0.930 . S
H1317 C1327 0.930 . S
C1318 H1312 0.930 . S
C1318 C1319 1.355 . S
C1318 C1320 1.415 . S
C1319 C1318 1.355 . S
C1319 C1321 1.419 . S
C1320 C1318 1.415 . S
C1320 C1325 1.425 . S
C1320 C1327 1.409 . S
C1321 H1313 0.930 . S
C1321 C1319 1.419 . S
C1321 C1322 1.362 . S
C1322 H1314 0.930 . S
C1322 C1321 1.362 . S
C1322 C1325 1.409 . S
C1323 H1315 0.930 . S
C1323 C1324 1.355 . S
C1323 C1325 1.415 . S
C1324 C1323 1.355 . S
C1324 C1326 1.419 . S
C1325 C1320 1.425 . S
C1325 C1322 1.409 . S
C1325 C1323 1.415 . S
C1326 H1316 0.930 . S
C1326 C1324 1.419 . S
C1326 C1327 1.362 . S
C1327 H1317 0.930 . S
C1327 C1320 1.409 . S
C1327 C1326 1.362 . S
H1328 C1334 0.930 . S
H1329 C1337 0.930 . S
H1330 C1338 0.930 . S
H1331 C1339 0.930 . S
H1332 C1342 0.930 . S
H1333 C1343 0.930 . S
C1334 H1328 0.930 . S
C1334 C1335 1.355 . S
C1334 C1336 1.415 . S
C1335 C1334 1.355 . S
C1335 C1337 1.419 1_545 S
C1336 C1334 1.415 . S
C1336 C1341 1.425 1_545 S
C1336 C1343 1.409 . S
C1337 H1329 0.930 . S
C1337 C1335 1.419 1_565 S
C1337 C1338 1.362 . S
C1338 H1330 0.930 . S
C1338 C1337 1.362 . S
C1338 C1341 1.409 . S
C1339 H1331 0.930 . S
C1339 C1340 1.355 1_565 S
C1339 C1341 1.415 . S
C1340 C1339 1.355 1_545 S
C1340 C1342 1.419 . S
C1341 C1336 1.425 1_565 S
C1341 C1338 1.409 . S
C1341 C1339 1.415 . S
C1342 H1332 0.930 . S
C1342 C1340 1.419 . S
C1342 C1343 1.362 . S
C1343 H1333 0.930 . S
C1343 C1336 1.409 . S
C1343 C1342 1.362 . S
H1344 C1350 0.930 . S
H1345 C1353 0.930 . S
H1346 C1354 0.930 . S
H1347 C1355 0.930 . S
H1348 C1358 0.930 1_545 S
H1349 C1359 0.930 . S
C1350 H1344 0.930 . S
C1350 C1351 1.355 1_545 S
C1350 C1352 1.415 1_545 S
C1351 C1350 1.355 1_565 S
C1351 C1353 1.419 . S
C1352 C1350 1.415 1_565 S
C1352 C1357 1.425 . S
C1352 C1359 1.409 1_565 S
C1353 H1345 0.930 . S
C1353 C1351 1.419 . S
C1353 C1354 1.362 . S
C1354 H1346 0.930 . S
C1354 C1353 1.362 . S
C1354 C1357 1.409 . S
C1355 H1347 0.930 . S
C1355 C1356 1.355 . S
C1355 C1357 1.415 . S
C1356 C1355 1.355 . S
C1356 C1358 1.419 . S
C1357 C1352 1.425 . S
C1357 C1354 1.409 . S
C1357 C1355 1.415 . S
C1358 H1348 0.930 1_565 S
C1358 C1356 1.419 . S
C1358 C1359 1.362 1_565 S
C1359 H1349 0.930 . S
C1359 C1352 1.409 1_545 S
C1359 C1358 1.362 1_545 S
H1360 C1366 0.930 . S
H1361 C1369 0.930 . S
H1362 C1370 0.930 . S
H1363 C1371 0.930 . S
H1364 C1374 0.930 . S
H1365 C1375 0.930 . S
C1366 H1360 0.930 . S
C1366 C1367 1.355 . S
C1366 C1368 1.415 . S
C1367 C1366 1.355 . S
C1367 C1369 1.419 . S
C1368 C1366 1.415 . S
C1368 C1373 1.425 . S
C1368 C1375 1.409 . S
C1369 H1361 0.930 . S
C1369 C1367 1.419 . S
C1369 C1370 1.362 . S
C1370 H1362 0.930 . S
C1370 C1369 1.362 . S
C1370 C1373 1.409 . S
C1371 H1363 0.930 . S
C1371 C1372 1.355 . S
C1371 C1373 1.415 . S
C1372 C1371 1.355 . S
C1372 C1374 1.419 . S
C1373 C1368 1.425 . S
C1373 C1370 1.409 . S
C1373 C1371 1.415 . S
C1374 H1364 0.930 . S
C1374 C1372 1.419 . S
C1374 C1375 1.362 . S
C1375 H1365 0.930 . S
C1375 C1368 1.409 . S
C1375 C1374 1.362 . S
H1376 C1382 0.930 . S
H1377 C1385 0.930 . S
H1378 C1386 0.930 . S
H1379 C1387 0.930 . S
H1380 C1390 0.930 . S
H1381 C1391 0.930 . S
C1382 H1376 0.930 . S
C1382 C1383 1.355 . S
C1382 C1384 1.415 . S
C1383 C1382 1.355 . S
C1383 C1385 1.419 1_556 S
C1384 C1382 1.415 . S
C1384 C1389 1.425 . S
C1384 C1391 1.409 . S
C1385 H1377 0.930 . S
C1385 C1383 1.419 1_554 S
C1385 C1386 1.362 . S
C1386 H1378 0.930 . S
C1386 C1385 1.362 . S
C1386 C1389 1.409 1_554 S
C1387 H1379 0.930 . S
C1387 C1388 1.355 . S
C1387 C1389 1.415 . S
C1388 C1387 1.355 . S
C1388 C1390 1.419 . S
C1389 C1384 1.425 . S
C1389 C1386 1.409 1_556 S
C1389 C1387 1.415 . S
C1390 H1380 0.930 . S
C1390 C1388 1.419 . S
C1390 C1391 1.362 . S
C1391 H1381 0.930 . S
C1391 C1384 1.409 . S
C1391 C1390 1.362 . S
H1392 C1398 0.930 . S
H1393 C1401 0.930 . S
H1394 C1402 0.930 . S
H1395 C1403 0.930 . S
H1396 C1406 0.930 . S
H1397 C1407 0.930 . S
C1398 H1392 0.930 . S
C1398 C1399 1.355 . S
C1398 C1400 1.415 . S
C1399 C1398 1.355 . S
C1399 C1401 1.419 . S
C1400 C1398 1.415 . S
C1400 C1405 1.425 . S
C1400 C1407 1.409 . S
C1401 H1393 0.930 . S
C1401 C1399 1.419 . S
C1401 C1402 1.362 . S
C1402 H1394 0.930 . S
C1402 C1401 1.362 . S
C1402 C1405 1.409 . S
C1403 H1395 0.930 . S
C1403 C1404 1.355 . S
C1403 C1405 1.415 . S
C1404 C1403 1.355 . S
C1404 C1406 1.419 . S
C1405 C1400 1.425 . S
C1405 C1402 1.409 . S
C1405 C1403 1.415 . S
C1406 H1396 0.930 . S
C1406 C1404 1.419 . S
C1406 C1407 1.362 . S
C1407 H1397 0.930 . S
C1407 C1400 1.409 . S
C1407 C1406 1.362 . S
H1408 C1414 0.930 . S
H1409 C1417 0.930 . S
H1410 C1418 0.930 . S
H1411 C1419 0.930 . S
H1412 C1422 0.930 . S
H1413 C1423 0.930 . S
C1414 H1408 0.930 . S
C1414 C1415 1.355 1_556 S
C1414 C1416 1.412 1_556 S
C1415 C1414 1.355 1_554 S
C1415 C1417 1.419 . S
C1416 C1414 1.412 1_554 S
C1416 C1421 1.435 . S
C1416 C1423 1.402 1_554 S
C1417 H1409 0.930 . S
C1417 C1415 1.419 . S
C1417 C1418 1.362 . S
C1418 H1410 0.930 . S
C1418 C1417 1.362 . S
C1418 C1421 1.409 . S
C1419 H1411 0.930 . S
C1419 C1420 1.355 . S
C1419 C1421 1.415 . S
C1420 C1419 1.355 . S
C1420 C1422 1.419 1_554 S
C1421 C1416 1.435 . S
C1421 C1418 1.409 . S
C1421 C1419 1.415 . S
C1422 H1412 0.930 . S
C1422 C1420 1.419 1_556 S
C1422 C1423 1.362 . S
C1423 H1413 0.930 . S
C1423 C1416 1.402 1_556 S
C1423 C1422 1.362 . S
H1424 C1430 0.930 . S
H1425 C1433 0.930 . S
H1426 C1434 0.930 . S
H1427 C1435 0.930 . S
H1428 C1438 0.930 . S
H1429 C1439 0.930 . S
C1430 H1424 0.930 . S
C1430 C1431 1.355 . S
C1430 C1432 1.415 . S
C1431 C1430 1.355 . S
C1431 C1433 1.419 . S
C1432 C1430 1.415 . S
C1432 C1437 1.425 . S
C1432 C1439 1.409 . S
C1433 H1425 0.930 . S
C1433 C1431 1.419 . S
C1433 C1434 1.362 . S
C1434 H1426 0.930 . S
C1434 C1433 1.362 . S
C1434 C1437 1.409 . S
C1435 H1427 0.930 . S
C1435 C1436 1.355 . S
C1435 C1437 1.415 . S
C1436 C1435 1.355 . S
C1436 C1438 1.419 . S
C1437 C1432 1.425 . S
C1437 C1434 1.409 . S
C1437 C1435 1.415 . S
C1438 H1428 0.930 . S
C1438 C1436 1.419 . S
C1438 C1439 1.362 . S
C1439 H1429 0.930 . S
C1439 C1432 1.409 . S
C1439 C1438 1.362 . S
H1440 C1446 0.930 . S
H1441 C1449 0.930 . S
H1442 C1450 0.930 . S
H1443 C1451 0.930 . S
H1444 C1454 0.930 . S
H1445 C1455 0.930 . S
C1446 H1440 0.930 . S
C1446 C1447 1.355 . S
C1446 C1448 1.415 . S
C1447 C1446 1.355 . S
C1447 C1449 1.419 1_655 S
C1448 C1446 1.415 . S
C1448 C1453 1.425 . S
C1448 C1455 1.409 . S
C1449 H1441 0.930 . S
C1449 C1447 1.419 1_455 S
C1449 C1450 1.362 . S
C1450 H1442 0.930 . S
C1450 C1449 1.362 . S
C1450 C1453 1.409 1_455 S
C1451 H1443 0.930 . S
C1451 C1452 1.355 . S
C1451 C1453 1.415 . S
C1452 C1451 1.355 . S
C1452 C1454 1.419 . S
C1453 C1448 1.425 . S
C1453 C1450 1.409 1_655 S
C1453 C1451 1.415 . S
C1454 H1444 0.930 . S
C1454 C1452 1.419 . S
C1454 C1455 1.362 . S
C1455 H1445 0.930 . S
C1455 C1448 1.409 . S
C1455 C1454 1.362 . S
H1456 C1462 0.930 . S
H1457 C1465 0.930 . S
H1458 C1466 0.930 . S
H1459 C1467 0.930 . S
H1460 C1470 0.930 . S
H1461 C1471 0.930 . S
C1462 H1456 0.930 . S
C1462 C1463 1.355 . S
C1462 C1464 1.415 . S
C1463 C1462 1.355 . S
C1463 C1465 1.419 . S
C1464 C1462 1.415 . S
C1464 C1469 1.425 . S
C1464 C1471 1.409 . S
C1465 H1457 0.930 . S
C1465 C1463 1.419 . S
C1465 C1466 1.362 . S
C1466 H1458 0.930 . S
C1466 C1465 1.362 . S
C1466 C1469 1.409 . S
C1467 H1459 0.930 . S
C1467 C1468 1.355 . S
C1467 C1469 1.415 . S
C1468 C1467 1.355 . S
C1468 C1470 1.419 . S
C1469 C1464 1.425 . S
C1469 C1466 1.409 . S
C1469 C1467 1.415 . S
C1470 H1460 0.930 . S
C1470 C1468 1.419 . S
C1470 C1471 1.362 . S
C1471 H1461 0.930 . S
C1471 C1464 1.409 . S
C1471 C1470 1.362 . S
H1472 C1478 0.930 . S
H1473 C1481 0.930 . S
H1474 C1482 0.930 . S
H1475 C1483 0.930 . S
H1476 C1486 0.930 . S
H1477 C1487 0.930 . S
C1478 H1472 0.930 . S
C1478 C1479 1.355 . S
C1478 C1480 1.415 . S
C1479 C1478 1.355 . S
C1479 C1481 1.419 1_455 S
C1480 C1478 1.415 . S
C1480 C1485 1.425 1_455 S
C1480 C1487 1.409 . S
C1481 H1473 0.930 . S
C1481 C1479 1.419 1_655 S
C1481 C1482 1.362 . S
C1482 H1474 0.930 . S
C1482 C1481 1.362 . S
C1482 C1485 1.409 . S
C1483 H1475 0.930 . S
C1483 C1484 1.355 1_655 S
C1483 C1485 1.415 . S
C1484 C1483 1.355 1_455 S
C1484 C1486 1.419 . S
C1485 C1480 1.425 1_655 S
C1485 C1482 1.409 . S
C1485 C1483 1.415 . S
C1486 H1476 0.930 . S
C1486 C1484 1.419 . S
C1486 C1487 1.362 . S
C1487 H1477 0.930 . S
C1487 C1480 1.409 . S
C1487 C1486 1.362 . S
H1488 C1494 0.930 . S
H1489 C1497 0.930 . S
H1490 C1498 0.930 . S
H1491 C1499 0.930 . S
H1492 C1502 0.930 . S
H1493 C1503 0.930 . S
C1494 H1488 0.930 . S
C1494 C1495 1.355 . S
C1494 C1496 1.415 . S
C1495 C1494 1.355 . S
C1495 C1497 1.419 . S
C1496 C1494 1.415 . S
C1496 C1501 1.425 . S
C1496 C1503 1.409 . S
C1497 H1489 0.930 . S
C1497 C1495 1.419 . S
C1497 C1498 1.362 . S
C1498 H1490 0.930 . S
C1498 C1497 1.362 . S
C1498 C1501 1.409 . S
C1499 H1491 0.930 . S
C1499 C1500 1.355 . S
C1499 C1501 1.415 . S
C1500 C1499 1.355 . S
C1500 C1502 1.419 . S
C1501 C1496 1.425 . S
C1501 C1498 1.409 . S
C1501 C1499 1.415 . S
C1502 H1492 0.930 . S
C1502 C1500 1.419 . S
C1502 C1503 1.362 . S
C1503 H1493 0.930 . S
C1503 C1496 1.409 . S
C1503 C1502 1.362 . S
H1504 C1510 0.930 . S
H1505 C1513 0.930 . S
H1506 C1514 0.930 . S
H1507 C1515 0.930 . S
H1508 C1518 0.930 . S
H1509 C1519 0.930 . S
C1510 H1504 0.930 . S
C1510 C1511 1.355 . S
C1510 C1512 1.415 . S
C1511 C1510 1.355 . S
C1511 C1513 1.419 . S
C1512 C1510 1.415 . S
C1512 C1517 1.425 . S
C1512 C1519 1.409 . S
C1513 H1505 0.930 . S
C1513 C1511 1.419 . S
C1513 C1514 1.362 . S
C1514 H1506 0.930 . S
C1514 C1513 1.362 . S
C1514 C1517 1.409 . S
C1515 H1507 0.930 . S
C1515 C1516 1.355 . S
C1515 C1517 1.415 . S
C1516 C1515 1.355 . S
C1516 C1518 1.419 . S
C1517 C1512 1.425 . S
C1517 C1514 1.409 . S
C1517 C1515 1.415 . S
C1518 H1508 0.930 . S
C1518 C1516 1.419 . S
C1518 C1519 1.362 . S
C1519 H1509 0.930 . S
C1519 C1512 1.409 . S
C1519 C1518 1.362 . S
H1520 C1526 0.930 . S
H1521 C1529 0.930 . S
H1522 C1530 0.930 . S
H1523 C1531 0.930 . S
H1524 C1534 0.930 . S
H1525 C1535 0.930 . S
C1526 H1520 0.930 . S
C1526 C1527 1.355 . S
C1526 C1528 1.415 . S
C1527 C1526 1.355 . S
C1527 C1529 1.419 . S
C1528 C1526 1.415 . S
C1528 C1533 1.425 . S
C1528 C1535 1.409 . S
C1529 H1521 0.930 . S
C1529 C1527 1.419 . S
C1529 C1530 1.362 . S
C1530 H1522 0.930 . S
C1530 C1529 1.362 . S
C1530 C1533 1.409 . S
C1531 H1523 0.930 . S
C1531 C1532 1.355 . S
C1531 C1533 1.415 . S
C1532 C1531 1.355 . S
C1532 C1534 1.419 . S
C1533 C1528 1.425 . S
C1533 C1530 1.409 . S
C1533 C1531 1.415 . S
C1534 H1524 0.930 . S
C1534 C1532 1.419 . S
C1534 C1535 1.362 . S
C1535 H1525 0.930 . S
C1535 C1528 1.409 . S
C1535 C1534 1.362 . S
H1536 C1542 0.930 . S
H1537 C1545 0.930 . S
H1538 C1546 0.930 . S
H1539 C1547 0.930 . S
H1540 C1550 0.930 1_565 S
H1541 C1551 0.930 . S
C1542 H1536 0.930 . S
C1542 C1543 1.355 1_565 S
C1542 C1544 1.415 1_565 S
C1543 C1542 1.355 1_545 S
C1543 C1545 1.419 . S
C1544 C1542 1.415 1_545 S
C1544 C1549 1.425 . S
C1544 C1551 1.409 1_545 S
C1545 H1537 0.930 . S
C1545 C1543 1.419 . S
C1545 C1546 1.362 . S
C1546 H1538 0.930 . S
C1546 C1545 1.362 . S
C1546 C1549 1.409 . S
C1547 H1539 0.930 . S
C1547 C1548 1.355 . S
C1547 C1549 1.415 . S
C1548 C1547 1.355 . S
C1548 C1550 1.419 . S
C1549 C1544 1.425 . S
C1549 C1546 1.409 . S
C1549 C1547 1.415 . S
C1550 H1540 0.930 1_545 S
C1550 C1548 1.419 . S
C1550 C1551 1.362 1_545 S
C1551 H1541 0.930 . S
C1551 C1544 1.409 1_565 S
C1551 C1550 1.362 1_565 S
H1552 C1558 0.930 . S
H1553 C1561 0.930 . S
H1554 C1562 0.930 . S
H1555 C1563 0.930 . S
H1556 C1566 0.930 . S
H1557 C1567 0.930 . S
C1558 H1552 0.930 . S
C1558 C1559 1.355 . S
C1558 C1560 1.415 . S
C1559 C1558 1.355 . S
C1559 C1561 1.419 . S
C1560 C1558 1.415 . S
C1560 C1565 1.425 . S
C1560 C1567 1.409 . S
C1561 H1553 0.930 . S
C1561 C1559 1.419 . S
C1561 C1562 1.362 . S
C1562 H1554 0.930 . S
C1562 C1561 1.362 . S
C1562 C1565 1.409 . S
C1563 H1555 0.930 . S
C1563 C1564 1.355 . S
C1563 C1565 1.415 . S
C1564 C1563 1.355 . S
C1564 C1566 1.419 . S
C1565 C1560 1.425 . S
C1565 C1562 1.409 . S
C1565 C1563 1.415 . S
C1566 H1556 0.930 . S
C1566 C1564 1.419 . S
C1566 C1567 1.362 . S
C1567 H1557 0.930 . S
C1567 C1560 1.409 . S
C1567 C1566 1.362 . S
H1568 C1574 0.930 . S
H1569 C1577 0.930 . S
H1570 C1578 0.930 . S
H1571 C1579 0.898 1_556 S
H1572 C1582 0.930 . S
H1573 C1583 0.930 . S
C1574 H1568 0.930 . S
C1574 C1575 1.355 . S
C1574 C1576 1.415 . S
C1575 C1574 1.355 . S
C1575 C1577 1.419 1_554 S
C1576 C1574 1.415 . S
C1576 C1581 1.425 . S
C1576 C1583 1.409 . S
C1577 H1569 0.930 . S
C1577 C1575 1.419 1_556 S
C1577 C1578 1.362 . S
C1578 H1570 0.930 . S
C1578 C1577 1.362 . S
C1578 C1581 1.409 1_556 S
C1579 H1571 0.898 1_554 S
C1579 C1580 1.355 . S
C1579 C1581 1.415 . S
C1580 C1579 1.355 . S
C1580 C1582 1.419 . S
C1581 C1576 1.425 . S
C1581 C1578 1.409 1_554 S
C1581 C1579 1.415 . S
C1582 H1572 0.930 . S
C1582 C1580 1.419 . S
C1582 C1583 1.362 . S
C1583 H1573 0.930 . S
C1583 C1576 1.409 . S
C1583 C1582 1.362 . S
H1584 C1590 0.930 . S
H1585 C1593 0.930 . S
H1586 C1594 0.930 . S
H1587 C1595 0.930 . S
H1588 C1598 0.930 . S
H1589 C1599 0.930 . S
C1590 H1584 0.930 . S
C1590 C1591 1.355 . S
C1590 C1592 1.415 . S
C1591 C1590 1.355 . S
C1591 C1593 1.419 . S
C1592 C1590 1.415 . S
C1592 C1597 1.425 . S
C1592 C1599 1.409 . S
C1593 H1585 0.930 . S
C1593 C1591 1.419 . S
C1593 C1594 1.362 . S
C1594 H1586 0.930 . S
C1594 C1593 1.362 . S
C1594 C1597 1.409 . S
C1595 H1587 0.930 . S
C1595 C1596 1.355 . S
C1595 C1597 1.415 . S
C1596 C1595 1.355 . S
C1596 C1598 1.419 . S
C1597 C1592 1.425 . S
C1597 C1594 1.409 . S
C1597 C1595 1.415 . S
C1598 H1588 0.930 . S
C1598 C1596 1.419 . S
C1598 C1599 1.362 . S
C1599 H1589 0.930 . S
C1599 C1592 1.409 . S
C1599 C1598 1.362 . S
H1600 C1606 0.930 . S
H1601 C1609 0.930 . S
H1602 C1610 0.930 . S
H1603 C1611 0.930 . S
H1604 C1614 0.930 . S
H1605 C1615 0.930 . S
C1606 H1600 0.930 . S
C1606 C1607 1.355 1_554 S
C1606 C1608 1.415 . S
C1607 C1606 1.355 1_556 S
C1607 C1609 1.419 . S
C1608 C1606 1.415 . S
C1608 C1613 1.425 1_554 S
C1608 C1615 1.409 . S
C1609 H1601 0.930 . S
C1609 C1607 1.419 . S
C1609 C1610 1.362 . S
C1610 H1602 0.930 . S
C1610 C1609 1.362 . S
C1610 C1613 1.409 . S
C1611 H1603 0.930 . S
C1611 C1612 1.355 . S
C1611 C1613 1.415 . S
C1612 C1611 1.355 . S
C1612 C1614 1.419 1_556 S
C1613 C1608 1.425 1_556 S
C1613 C1610 1.409 . S
C1613 C1611 1.415 . S
C1614 H1604 0.930 . S
C1614 C1612 1.419 1_554 S
C1614 C1615 1.362 . S
C1615 H1605 0.930 . S
C1615 C1608 1.409 . S
C1615 C1614 1.362 . S
H1616 C1622 0.930 . S
H1617 C1625 0.930 . S
H1618 C1626 0.930 . S
H1619 C1627 0.930 . S
H1620 C1630 0.930 . S
H1621 C1631 0.930 . S
C1622 H1616 0.930 . S
C1622 C1623 1.355 . S
C1622 C1624 1.415 . S
C1623 C1622 1.355 . S
C1623 C1625 1.419 . S
C1624 C1622 1.415 . S
C1624 C1629 1.425 . S
C1624 C1631 1.409 . S
C1625 H1617 0.930 . S
C1625 C1623 1.419 . S
C1625 C1626 1.362 . S
C1626 H1618 0.930 . S
C1626 C1625 1.362 . S
C1626 C1629 1.409 . S
C1627 H1619 0.930 . S
C1627 C1628 1.355 . S
C1627 C1629 1.415 . S
C1628 C1627 1.355 . S
C1628 C1630 1.419 . S
C1629 C1624 1.425 . S
C1629 C1626 1.409 . S
C1629 C1627 1.415 . S
C1630 H1620 0.930 . S
C1630 C1628 1.419 . S
C1630 C1631 1.362 . S
C1631 H1621 0.930 . S
C1631 C1624 1.409 . S
C1631 C1630 1.362 . S
H1632 C1638 0.930 . S
H1633 C1641 0.930 . S
H1634 C1642 0.930 . S
H1635 C1643 0.930 . S
H1636 C1646 0.930 . S
H1637 C1647 0.930 . S
C1638 H1632 0.930 . S
C1638 C1639 1.355 . S
C1638 C1640 1.415 . S
C1639 C1638 1.355 . S
C1639 C1641 1.419 1_455 S
C1640 C1638 1.415 . S
C1640 C1645 1.425 . S
C1640 C1647 1.409 . S
C1641 H1633 0.930 . S
C1641 C1639 1.419 1_655 S
C1641 C1642 1.362 . S
C1642 H1634 0.930 . S
C1642 C1641 1.362 . S
C1642 C1645 1.409 1_655 S
C1643 H1635 0.930 . S
C1643 C1644 1.355 . S
C1643 C1645 1.415 . S
C1644 C1643 1.355 . S
C1644 C1646 1.419 . S
C1645 C1640 1.425 . S
C1645 C1642 1.409 1_455 S
C1645 C1643 1.415 . S
C1646 H1636 0.930 . S
C1646 C1644 1.419 . S
C1646 C1647 1.362 . S
C1647 H1637 0.930 . S
C1647 C1640 1.409 . S
C1647 C1646 1.362 . S
H1648 C1654 0.930 . S
H1649 C1657 0.930 . S
H1650 C1658 0.930 . S
H1651 C1659 0.930 . S
H1652 C1662 0.930 . S
H1653 C1663 0.930 . S
C1654 H1648 0.930 . S
C1654 C1655 1.355 . S
C1654 C1656 1.415 . S
C1655 C1654 1.355 . S
C1655 C1657 1.419 . S
C1656 C1654 1.415 . S
C1656 C1661 1.425 . S
C1656 C1663 1.409 . S
C1657 H1649 0.930 . S
C1657 C1655 1.419 . S
C1657 C1658 1.362 . S
C1658 H1650 0.930 . S
C1658 C1657 1.362 . S
C1658 C1661 1.409 . S
C1659 H1651 0.930 . S
C1659 C1660 1.355 . S
C1659 C1661 1.415 . S
C1660 C1659 1.355 . S
C1660 C1662 1.419 . S
C1661 C1656 1.425 . S
C1661 C1658 1.409 . S
C1661 C1659 1.415 . S
C1662 H1652 0.930 . S
C1662 C1660 1.419 . S
C1662 C1663 1.362 . S
C1663 H1653 0.930 . S
C1663 C1656 1.409 . S
C1663 C1662 1.362 . S
H1664 C1670 0.930 . S
H1665 C1673 0.930 . S
H1666 C1674 0.930 . S
H1667 C1675 0.930 . S
H1668 C1678 0.930 . S
H1669 C1679 0.930 . S
C1670 H1664 0.930 . S
C1670 C1671 1.355 1_455 S
C1670 C1672 1.415 . S
C1671 C1670 1.355 1_655 S
C1671 C1673 1.419 . S
C1672 C1670 1.415 . S
C1672 C1677 1.423 1_455 S
C1672 C1679 1.411 . S
C1673 H1665 0.930 . S
C1673 C1671 1.419 . S
C1673 C1674 1.362 . S
C1674 H1666 0.930 . S
C1674 C1673 1.362 . S
C1674 C1677 1.409 . S
C1675 H1667 0.930 . S
C1675 C1676 1.355 . S
C1675 C1677 1.415 . S
C1676 C1675 1.355 . S
C1676 C1678 1.419 1_655 S
C1677 C1672 1.423 1_655 S
C1677 C1674 1.409 . S
C1677 C1675 1.415 . S
C1678 H1668 0.930 . S
C1678 C1676 1.419 1_455 S
C1678 C1679 1.362 . S
C1679 H1669 0.930 . S
C1679 C1672 1.411 . S
C1679 C1678 1.362 . S
C540 C521 1.543 . S
C535 C8 1.580 . S
C556 C488 1.529 . S
C551 C19 1.472 . S
C572 C510 1.263 . S
C567 C30 1.285 . S
C588 C499 1.622 . S
C583 C41 1.588 1_565 S
C604 C422 1.584 . S
C599 C52 1.570 . S
C615 C63 1.552 1_556 S
C620 C433 1.629 . S
C636 C400 1.521 . S
C631 C74 1.499 . S
C647 C85 1.287 . S
C652 C411 1.277 . S
C668 C477 1.559 . S
C663 C96 1.588 . S
C679 C107 1.583 1_655 S
C684 C455 1.619 . S
C695 C118 1.519 . S
C700 C444 1.503 . S
C716 C466 1.302 . S
C711 C129 1.292 . S
C732 C389 1.556 . S
C727 C140 1.565 . S
C743 C151 1.415 . S
C748 C356 1.505 . S
C764 C378 1.313 . S
C759 C162 1.257 . S
C775 C173 1.556 . S
C780 C367 1.620 . S
C796 C290 1.572 . S
C791 C184 1.524 . S
C812 C301 1.630 . S
C807 C195 1.506 . S
C823 C206 1.438 . S
C828 C268 1.518 . S
C839 C217 1.287 . S
C844 C279 1.300 . S
C855 C228 1.513 . S
C860 C345 1.584 . S
C871 C239 1.498 . S
C876 C323 1.602 . S
C892 C312 1.488 . S
C887 C250 1.477 . S
C903 C261 1.310 . S
C908 C334 1.253 . S
C924 C269 1.428 . S
C919 C7 1.468 . S
C940 C280 1.354 . S
C935 C18 1.423 . S
C951 C29 1.341 . S
C956 C291 1.340 . S
C967 C40 1.239 . S
C972 C302 1.211 . S
C988 C313 1.399 . S
C983 C51 1.471 . S
C999 C62 1.195 . S
C1004 C324 1.222 . S
C1020 C335 1.421 . S
C1015 C73 1.426 . S
C1036 C346 1.355 . S
C1031 C84 1.327 . S
C1052 C357 1.399 . S
C1047 C95 1.455 . S
C1063 C106 1.195 . S
C1068 C368 1.230 . S
C1079 C117 1.430 . S
C1084 C379 1.426 . S
C1095 C128 1.352 . S
C1100 C390 1.325 . S
C1111 C139 1.411 . S
C1116 C401 1.457 . S
C1127 C150 1.327 . S
C1132 C412 1.425 . S
C1143 C161 1.276 . S
C1148 C423 1.351 . S
C1159 C172 1.120 . S
C1164 C434 1.214 . S
C1175 C183 1.344 . S
C1180 C445 1.406 . S
C1196 C456 1.237 . S
C1191 C194 1.194 1_556 S
C1212 C467 1.341 . S
C1207 C205 1.272 . S
C1228 C478 1.352 . S
C1223 C216 1.282 . S
C1244 C489 1.422 . S
C1239 C227 1.423 . S
C1255 C238 1.149 1_655 S
C1260 C500 1.228 . S
C1271 C249 1.289 . S
C1276 C511 1.341 . S
C1287 C260 1.248 . S
C1292 C522 1.338 . S
C1303 C5 1.344 . S
C1308 C362 1.515 . S
C1324 C395 1.520 . S
C1319 C16 1.373 . S
C1335 C27 1.206 1_545 S
C1340 C373 1.369 . S
C1356 C384 1.620 . S
C1351 C38 1.468 1_565 S
C1367 C49 1.385 . S
C1372 C274 1.529 . S
C1383 C60 1.370 1_556 S
C1388 C285 1.593 . S
C1399 C71 1.389 . S
C1404 C296 1.540 . S
C1415 C82 1.315 1_554 S
C1420 C307 1.430 . S
C1436 C318 1.489 . S
C1431 C93 1.294 . S
C1452 C340 1.600 . S
C1447 C104 1.386 1_655 S
C1463 C115 1.402 . S
C1468 C351 1.527 . S
C1479 C126 1.206 1_455 S
C1484 C329 1.373 . S
C1500 C494 1.535 . S
C1495 C137 1.165 . S
C1516 C527 1.550 . S
C1511 C148 1.252 . S
C1527 C159 1.213 . S
C1532 C505 1.427 . S
C1548 C516 1.608 . S
C1543 C170 1.148 . S
C1559 C181 1.284 . S
C1564 C406 1.495 . S
C1575 C192 1.286 . S
C1580 C417 1.595 . S
C1591 C203 1.293 . S
C1596 C428 1.530 . S
C1612 C439 1.432 . S
C1607 C214 1.120 . S
C1628 C450 1.527 . S
C1623 C225 1.171 . S
C1644 C472 1.612 . S
C1639 C236 1.296 . S
C1655 C247 1.294 . S
C1660 C483 1.529 . S
C1676 C461 1.441 . S
C1671 C258 1.157 . S
