# Generated by pormake.
# Topology tsx, (6,3)-cn, num edge types: 1
# Building blocks:
#     Node 0, Type 0, BuildingBlock: VOLQOD_clean_sbu_1, # of connection points: 6
#     Node 1, Type 0, BuildingBlock: VOLQOD_clean_sbu_1, # of connection points: 6
#     Node 2, Type 1, BuildingBlock: KAKCAD_clean_linker_0, # of connection points: 3
#     Node 3, Type 1, BuildingBlock: KAKCAD_clean_linker_0, # of connection points: 3
#     Node 4, Type 1, BuildingBlock: KAKCAD_clean_linker_0, # of connection points: 3
#     Node 5, Type 1, BuildingBlock: KAKCAD_clean_linker_0, # of connection points: 3
#     Edge 6, Type (0, 1), BuildingBlock: FUNLAD_clean_linker_1, # of connection points: 2
#     Edge 7, Type (0, 1), BuildingBlock: FUNLAD_clean_linker_1, # of connection points: 2
#     Edge 8, Type (0, 1), BuildingBlock: FUNLAD_clean_linker_1, # of connection points: 2
#     Edge 9, Type (0, 1), BuildingBlock: FUNLAD_clean_linker_1, # of connection points: 2
#     Edge 10, Type (0, 1), BuildingBlock: FUNLAD_clean_linker_1, # of connection points: 2
#     Edge 11, Type (0, 1), BuildingBlock: FUNLAD_clean_linker_1, # of connection points: 2
#     Edge 12, Type (0, 1), BuildingBlock: FUNLAD_clean_linker_1, # of connection points: 2
#     Edge 13, Type (0, 1), BuildingBlock: FUNLAD_clean_linker_1, # of connection points: 2
#     Edge 14, Type (0, 1), BuildingBlock: FUNLAD_clean_linker_1, # of connection points: 2
#     Edge 15, Type (0, 1), BuildingBlock: FUNLAD_clean_linker_1, # of connection points: 2
#     Edge 16, Type (0, 1), BuildingBlock: FUNLAD_clean_linker_1, # of connection points: 2
#     Edge 17, Type (0, 1), BuildingBlock: FUNLAD_clean_linker_1, # of connection points: 2
# Relax obj value: 0.075
# Max RMSD: 0.108
# Mean RMSD: 0.083
data_MOF--net-tsx--node1-VOLQOD_clean_sbu_1--node2-KAKCAD_clean_linker_0--edge1-FUNLAD_clean_linker_1
_symmetry_space_group_name_H-M    P1
_symmetry_Int_Tables_number       1
_symmetry_cell_setting            triclinic
loop_
_symmetry_equiv_pos_as_xyz
'x, y, z'
_cell_length_a     25.763506
_cell_length_b     26.642565
_cell_length_c     51.053315
_cell_angle_alpha  90.596794
_cell_angle_beta   90.050616
_cell_angle_gamma 89.922972
loop_
_atom_site_label
_atom_site_type_symbol
_atom_site_fract_x
_atom_site_fract_y
_atom_site_fract_z
_atom_type_partial_charge
O0 O 0.05355 0.9847 0.07321 0.0
Zn1 Zn 0.0747 0.98894 0.03534 0.0
O2 O 0.01435 0.00308 0.01336 0.0
Zn3 Zn 0.00314 0.94729 0.98884 0.0
Zn4 Zn 0.95248 0.01176 0.03518 0.0
Zn5 Zn 0.02703 0.06452 0.99387 0.0
O6 O 0.00358 0.97108 0.95152 0.0
O7 O 0.03061 0.05011 0.95516 0.0
O8 O 0.11117 0.92497 0.02402 0.0
O9 O 0.06062 0.89668 0.99179 0.0
O10 O 0.93637 0.91068 0.99627 0.0
O11 O 0.90316 0.95427 0.0296 0.0
O12 O 0.91377 0.07565 0.02618 0.0
O13 O 0.12666 0.04511 0.03364 0.0
O14 O 0.96792 0.1129 0.99863 0.0
O15 O 0.09297 0.09899 0.00536 0.0
C16 C 0.01231 0.99666 0.08552 0.0
C17 C 0.01779 0.01222 0.94125 0.0
C18 C 0.90132 0.91753 0.01347 0.0
C19 C 0.10052 0.89254 0.00629 0.0
C20 C 0.92553 0.11214 0.01136 0.0
C21 C 0.12865 0.0862 0.02124 0.0
O22 O 0.97138 0.01078 0.0736 0.0
O23 O 0.55683 0.47653 0.57275 0.0
Zn24 Zn 0.57392 0.48609 0.53464 0.0
O25 O 0.51144 0.49813 0.51395 0.0
Zn26 Zn 0.50281 0.4444 0.48789 0.0
Zn27 Zn 0.45154 0.5002 0.53743 0.0
Zn28 Zn 0.51743 0.56208 0.49588 0.0
O29 O 0.4988 0.47165 0.45119 0.0
O30 O 0.519 0.55216 0.45672 0.0
O31 O 0.61324 0.42564 0.52138 0.0
O32 O 0.56417 0.39787 0.48846 0.0
O33 O 0.43938 0.4027 0.49538 0.0
O34 O 0.40553 0.44101 0.5303 0.0
O35 O 0.40819 0.56219 0.53174 0.0
O36 O 0.62165 0.54556 0.53309 0.0
O37 O 0.4551 0.60521 0.5032 0.0
O38 O 0.58162 0.59969 0.50704 0.0
C39 C 0.51592 0.48397 0.58618 0.0
C40 C 0.50858 0.51482 0.4419 0.0
C41 C 0.40488 0.40599 0.51314 0.0
C42 C 0.60449 0.39468 0.50273 0.0
C43 C 0.4149 0.60049 0.51745 0.0
C44 C 0.61958 0.58777 0.52173 0.0
O45 O 0.47307 0.49608 0.57544 0.0
C46 C 0.97368 0.93593 0.30293 0.0
C47 C 0.97745 0.9795 0.28784 0.0
C48 C 0.98076 0.93822 0.33008 0.0
C49 C 0.99049 0.9844 0.34266 0.0
C50 C 0.99324 0.02816 0.32762 0.0
C51 C 0.98698 0.02575 0.30046 0.0
C52 C 0.99754 0.9872 0.37144 0.0
C53 C 0.03226 0.95477 0.38406 0.0
C54 C 0.04056 0.95875 0.41122 0.0
C55 C 0.01278 0.99478 0.42579 0.0
C56 C 0.97743 0.02704 0.4135 0.0
C57 C 0.9703 0.02319 0.38628 0.0
C58 C 0.94798 0.06477 0.42906 0.0
C59 C 0.92589 0.05202 0.45326 0.0
C60 C 0.94146 0.11377 0.41971 0.0
C61 C 0.91248 0.14895 0.43393 0.0
C62 C 0.88904 0.1357 0.45777 0.0
C63 C 0.07934 0.92638 0.42431 0.0
C64 C 0.08183 0.87476 0.4186 0.0
C65 C 0.1147 0.94719 0.44235 0.0
C66 C 0.15197 0.91703 0.45434 0.0
C67 C 0.15429 0.8654 0.44882 0.0
C68 C 0.11892 0.84451 0.43072 0.0
C69 C 0.89691 0.08725 0.46751 0.0
H70 H 0.9659 0.89996 0.29364 0.0
H71 H 0.97795 0.90404 0.34129 0.0
H72 H 0.00073 0.06422 0.33686 0.0
H73 H 0.9888 0.06023 0.28946 0.0
H74 H 0.05424 0.9277 0.37258 0.0
H75 H 0.94266 0.04754 0.37663 0.0
H76 H 0.01896 0.99792 0.44674 0.0
H77 H 0.93003 0.01447 0.46094 0.0
H78 H 0.95912 0.12507 0.40145 0.0
H79 H 0.90903 0.18651 0.42626 0.0
H80 H 0.05503 0.85774 0.40479 0.0
H81 H 0.11422 0.98702 0.44683 0.0
H82 H 0.87959 0.07622 0.48591 0.0
H83 H 0.12047 0.80517 0.42533 0.0
H84 H 0.17917 0.93415 0.46793 0.0
C85 C 0.00318 0.03115 0.72673 0.0
C86 C 0.00623 0.98302 0.73776 0.0
C87 C 0.00255 0.0369 0.69958 0.0
C88 C 0.0046 0.99477 0.68282 0.0
C89 C 0.00723 0.9467 0.69383 0.0
C90 C 0.00783 0.94094 0.72101 0.0
C91 C 0.00298 0.0011 0.65396 0.0
C92 C 0.03137 0.03956 0.64205 0.0
C93 C 0.02882 0.04688 0.61486 0.0
C94 C 0.99757 0.01497 0.5995 0.0
C95 C 0.9693 0.97606 0.61107 0.0
C96 C 0.97223 0.96937 0.63828 0.0
C97 C 0.93558 0.94298 0.59496 0.0
C98 C 0.90135 0.96336 0.57644 0.0
C99 C 0.93581 0.8909 0.59886 0.0
C100 C 0.90169 0.85987 0.58499 0.0
C101 C 0.8666 0.88035 0.56684 0.0
C102 C 0.05905 0.08779 0.60264 0.0
C103 C 0.06181 0.13529 0.61475 0.0
C104 C 0.08617 0.07944 0.57912 0.0
C105 C 0.11654 0.1174 0.56832 0.0
C106 C 0.12061 0.16447 0.58096 0.0
C107 C 0.09213 0.17318 0.60398 0.0
C108 C 0.86692 0.93233 0.56267 0.0
H109 H -5e-05 0.0645 0.73888 0.0
H110 H -0.0007 0.07437 0.69171 0.0
H111 H 0.00922 0.9135 0.68144 0.0
H112 H 0.00984 0.90344 0.72897 0.0
H113 H 0.05634 0.06329 0.65394 0.0
H114 H 0.94912 0.9404 0.64738 0.0
H115 H 0.9951 0.02047 0.57853 0.0
H116 H 0.89997 0.00347 0.57325 0.0
H117 H 0.96196 0.8742 0.61295 0.0
H118 H 0.90169 0.82022 0.58936 0.0
H119 H 0.04055 0.1432 0.63262 0.0
H120 H 0.08484 0.0432 0.56934 0.0
H121 H 0.83989 0.94908 0.54903 0.0
H122 H 0.09406 0.2092 0.61399 0.0
H123 H 0.13661 0.10942 0.55016 0.0
C124 C 0.48943 0.44901 0.80251 0.0
C125 C 0.49177 0.49515 0.78938 0.0
C126 C 0.4926 0.44751 0.82987 0.0
C127 C 0.4981 0.49202 0.84469 0.0
C128 C 0.50066 0.53799 0.83145 0.0
C129 C 0.49715 0.53949 0.80418 0.0
C130 C 0.50006 0.49084 0.87385 0.0
C131 C 0.52763 0.45303 0.88694 0.0
C132 C 0.52982 0.45221 0.91449 0.0
C133 C 0.50379 0.48973 0.92896 0.0
C134 C 0.47641 0.52792 0.91619 0.0
C135 C 0.47451 0.52801 0.88872 0.0
C136 C 0.44975 0.56813 0.93134 0.0
C137 C 0.417 0.55647 0.95241 0.0
C138 C 0.45578 0.61855 0.92419 0.0
C139 C 0.42855 0.65644 0.93735 0.0
C140 C 0.39407 0.64474 0.95763 0.0
C141 C 0.56039 0.41286 0.92807 0.0
C142 C 0.55836 0.36261 0.91949 0.0
C143 C 0.59251 0.4254 0.94943 0.0
C144 C 0.62278 0.38874 0.96157 0.0
C145 C 0.62172 0.33866 0.9525 0.0
C146 C 0.58848 0.32594 0.93167 0.0
C147 C 0.38923 0.59441 0.96541 0.0
H148 H 0.48385 0.41411 0.79187 0.0
H149 H 0.48953 0.41156 0.83945 0.0
H150 H 0.50569 0.57296 0.84215 0.0
H151 H 0.49904 0.57554 0.79458 0.0
H152 H 0.54878 0.42506 0.87567 0.0
H153 H 0.45208 0.55671 0.87892 0.0
H154 H 0.50512 0.48948 0.95018 0.0
H155 H 0.4118 0.5179 0.95836 0.0
H156 H 0.48139 0.62865 0.90827 0.0
H157 H 0.43332 0.69493 0.93113 0.0
H158 H 0.53337 0.35159 0.90336 0.0
H159 H 0.59504 0.4638 0.95648 0.0
H160 H 0.36405 0.58419 0.98144 0.0
H161 H 0.58648 0.2876 0.92445 0.0
H162 H 0.64666 0.39991 0.97804 0.0
C163 C 0.5 0.54139 0.22648 0.0
C164 C 0.50561 0.49363 0.23771 0.0
C165 C 0.49977 0.54677 0.19927 0.0
C166 C 0.50477 0.50462 0.18267 0.0
C167 C 0.51016 0.45696 0.1939 0.0
C168 C 0.51039 0.45157 0.2211 0.0
C169 C 0.50337 0.51029 0.15374 0.0
C170 C 0.52965 0.55001 0.14169 0.0
C171 C 0.52796 0.55592 0.11438 0.0
C172 C 0.49945 0.52161 0.09905 0.0
C173 C 0.47291 0.4817 0.11077 0.0
C174 C 0.47517 0.4763 0.13809 0.0
C175 C 0.44153 0.4463 0.09471 0.0
C176 C 0.40727 0.46423 0.07552 0.0
C177 C 0.44376 0.39449 0.09939 0.0
C178 C 0.41147 0.36136 0.08568 0.0
C179 C 0.37621 0.37941 0.06689 0.0
C180 C 0.55645 0.59775 0.10195 0.0
C181 C 0.55436 0.64636 0.11284 0.0
C182 C 0.58671 0.58921 0.07946 0.0
C183 C 0.61552 0.62817 0.06852 0.0
C184 C 0.61457 0.67649 0.07992 0.0
C185 C 0.58287 0.68535 0.10182 0.0
C186 C 0.3747 0.43111 0.0619 0.0
H187 H 0.49446 0.57466 0.23845 0.0
H188 H 0.49447 0.58389 0.19122 0.0
H189 H 0.51457 0.42377 0.18167 0.0
H190 H 0.51451 0.41433 0.22919 0.0
H191 H 0.55252 0.57574 0.15354 0.0
H192 H 0.4535 0.44642 0.14729 0.0
H193 H 0.49776 0.52605 0.07798 0.0
H194 H 0.4043 0.50404 0.0717 0.0
H195 H 0.47 0.37961 0.11399 0.0
H196 H 0.41295 0.32203 0.09065 0.0
H197 H 0.53069 0.65423 0.12993 0.0
H198 H 0.58904 0.55213 0.07063 0.0
H199 H 0.34756 0.44606 0.04774 0.0
H200 H 0.58102 0.72234 0.11081 0.0
H201 H 0.63833 0.62023 0.05118 0.0
H202 H 0.20044 0.10912 0.04148 0.0
C203 C 0.17215 0.12052 0.02687 0.0
H204 H 0.14921 0.17812 0.00101 0.0
H205 H 0.28731 0.29547 0.09314 0.0
H206 H 0.21325 0.27926 0.12101 0.0
H207 H 0.13937 0.2289 0.10483 0.0
H208 H 0.13956 0.19383 0.06084 0.0
C209 C 0.17626 0.16606 0.01603 0.0
C210 C 0.21773 0.20133 0.02463 0.0
C211 C 0.21597 0.2232 0.05008 0.0
C212 C 0.25759 0.25383 0.05904 0.0
C213 C 0.25605 0.27317 0.085 0.0
C214 C 0.21384 0.26399 0.10127 0.0
C215 C 0.17234 0.23552 0.0922 0.0
C216 C 0.17313 0.21532 0.06693 0.0
H217 H 0.30157 0.36313 0.04713 0.0
C218 C 0.3374 0.34615 0.05406 0.0
H219 H 0.37949 0.27788 0.0567 0.0
H220 H 0.23165 0.16728 0.9744 0.0
H221 H 0.30438 0.18608 0.9459 0.0
H222 H 0.37564 0.24094 0.9611 0.0
H223 H 0.37473 0.27726 0.00496 0.0
C224 C 0.34329 0.29619 0.05158 0.0
C225 C 0.29987 0.26412 0.04216 0.0
C226 C 0.30095 0.24342 0.01651 0.0
C227 C 0.25972 0.21204 0.0077 0.0
C228 C 0.26189 0.19152 0.98203 0.0
C229 C 0.30339 0.20201 0.96548 0.0
C230 C 0.34353 0.23289 0.97405 0.0
C231 C 0.34255 0.25345 0.99925 0.0
H232 H 0.12306 0.82142 0.98721 0.0
C233 C 0.13577 0.84996 0.00119 0.0
H234 H 0.19733 0.87486 0.02546 0.0
H235 H 0.30912 0.66257 0.02823 0.0
H236 H 0.28338 0.67334 0.07367 0.0
H237 H 0.22786 0.74442 0.08734 0.0
H238 H 0.19805 0.80545 0.05572 0.0
C239 C 0.18387 0.84712 0.01126 0.0
C240 C 0.21974 0.8058 0.00324 0.0
C241 C 0.23663 0.77039 0.02196 0.0
C242 C 0.26809 0.72901 0.01402 0.0
C243 C 0.28477 0.69442 0.03316 0.0
C244 C 0.27032 0.70018 0.05931 0.0
C245 C 0.23909 0.74023 0.06701 0.0
C246 C 0.22227 0.775 0.04865 0.0
H247 H 0.37786 0.72399 0.96804 0.0
C248 C 0.36301 0.68592 0.96958 0.0
H249 H 0.29802 0.64215 0.98048 0.0
H250 H 0.20276 0.87186 0.96319 0.0
H251 H 0.22499 0.85921 0.9175 0.0
H252 H 0.27109 0.78269 0.9029 0.0
H253 H 0.29641 0.7192 0.934 0.0
C254 C 0.31489 0.67934 0.97914 0.0
C255 C 0.28231 0.72294 0.98736 0.0
C256 C 0.26522 0.75829 0.96859 0.0
C257 C 0.2356 0.80073 0.97671 0.0
C258 C 0.22266 0.83747 0.9579 0.0
C259 C 0.23563 0.83094 0.93161 0.0
C260 C 0.26179 0.788 0.92342 0.0
C261 C 0.27649 0.752 0.94157 0.0
H262 H 0.85987 0.84803 0.00225 0.0
C263 C 0.85986 0.87973 0.01585 0.0
H264 H 0.8263 0.91137 0.04998 0.0
H265 H 0.64747 0.74368 0.01549 0.0
H266 H 0.62922 0.79859 0.97892 0.0
H267 H 0.68414 0.87249 0.97052 0.0
H268 H 0.75786 0.89178 0.99851 0.0
C269 C 0.8253 0.88115 0.03553 0.0
C270 C 0.7908 0.83778 0.04074 0.0
C271 C 0.74752 0.82755 0.02438 0.0
C272 C 0.71521 0.78556 0.02954 0.0
C273 C 0.67274 0.77558 0.01267 0.0
C274 C 0.66193 0.8067 0.99159 0.0
C275 C 0.69291 0.84827 0.98683 0.0
C276 C 0.73522 0.8588 0.00298 0.0
H277 H 0.63475 0.75652 0.07473 0.0
C278 C 0.64654 0.71833 0.06982 0.0
H279 H 0.70712 0.67377 0.05384 0.0
H280 H 0.87074 0.84702 0.07595 0.0
H281 H 0.88793 0.79297 0.11288 0.0
H282 H 0.83131 0.72065 0.12206 0.0
H283 H 0.75717 0.70194 0.09432 0.0
C284 C 0.69176 0.71122 0.05721 0.0
C285 C 0.72594 0.75442 0.05122 0.0
C286 C 0.76915 0.76471 0.0676 0.0
C287 C 0.80152 0.80656 0.06241 0.0
C288 C 0.84454 0.81595 0.07908 0.0
C289 C 0.85494 0.78516 0.10034 0.0
C290 C 0.82309 0.74444 0.1055 0.0
C291 C 0.78066 0.73412 0.08939 0.0
H292 H 0.90164 0.18511 0.99559 0.0
C293 C 0.88821 0.15309 0.00674 0.0
H294 H 0.82299 0.11813 0.02387 0.0
H295 H 0.69013 0.32003 0.02597 0.0
H296 H 0.70451 0.30746 0.07244 0.0
H297 H 0.76293 0.24051 0.08786 0.0
H298 H 0.80713 0.18545 0.05692 0.0
C299 C 0.83759 0.14969 0.01277 0.0
C300 C 0.80003 0.18825 0.00351 0.0
C301 C 0.77457 0.22008 0.02182 0.0
C302 C 0.74131 0.25904 0.01291 0.0
C303 C 0.71617 0.29015 0.03166 0.0
C304 C 0.72402 0.28331 0.05839 0.0
C305 C 0.7569 0.24558 0.06707 0.0
C306 C 0.78202 0.21425 0.0491 0.0
H307 H 0.64368 0.25987 0.9604 0.0
C308 C 0.65479 0.29873 0.964 0.0
H309 H 0.71312 0.3459 0.98019 0.0
H310 H 0.83517 0.12823 0.96323 0.0
H311 H 0.8233 0.14236 0.9168 0.0
H312 H 0.77248 0.21472 0.90125 0.0
H313 H 0.73226 0.27254 0.93201 0.0
C314 C 0.69985 0.30786 0.97653 0.0
C315 C 0.73369 0.26618 0.98569 0.0
C316 C 0.759 0.23414 0.96733 0.0
C317 C 0.79084 0.19417 0.97627 0.0
C318 C 0.81278 0.16071 0.95755 0.0
C319 C 0.80592 0.16812 0.93081 0.0
C320 C 0.77712 0.20871 0.92206 0.0
C321 C 0.75389 0.24145 0.93999 0.0
H322 H 0.69212 0.61298 0.5404 0.0
C323 C 0.66144 0.62402 0.52697 0.0
H324 H 0.63229 0.68225 0.50313 0.0
H325 H 0.78127 0.79389 0.59341 0.0
H326 H 0.71231 0.77257 0.62355 0.0
H327 H 0.63703 0.72265 0.60872 0.0
H328 H 0.63072 0.69321 0.56373 0.0
C329 C 0.66172 0.67049 0.51704 0.0
C330 C 0.70273 0.70678 0.5249 0.0
C331 C 0.70463 0.72543 0.55101 0.0
C332 C 0.747 0.75571 0.5593 0.0
C333 C 0.74928 0.77184 0.58583 0.0
C334 C 0.71002 0.75975 0.60339 0.0
C335 C 0.66772 0.73153 0.59506 0.0
C336 C 0.66479 0.71456 0.56921 0.0
H337 H 0.79027 0.86744 0.54807 0.0
C338 C 0.82622 0.84919 0.55388 0.0
H339 H 0.8672 0.78009 0.55419 0.0
H340 H 0.70847 0.68024 0.47306 0.0
H341 H 0.77561 0.7047 0.44236 0.0
H342 H 0.84816 0.75897 0.45654 0.0
H343 H 0.85413 0.78901 0.50156 0.0
C344 C 0.83106 0.79945 0.55009 0.0
C345 C 0.78627 0.76883 0.54119 0.0
C346 C 0.78325 0.75196 0.51484 0.0
C347 C 0.74129 0.72093 0.50665 0.0
C348 C 0.73944 0.70406 0.48028 0.0
C349 C 0.7777 0.71782 0.46248 0.0
C350 C 0.81856 0.74837 0.47046 0.0
C351 C 0.82155 0.76532 0.49633 0.0
H352 H 0.63485 0.33133 0.47942 0.0
C353 C 0.64236 0.35493 0.49652 0.0
H354 H 0.69503 0.37203 0.52711 0.0
H355 H 0.7552 0.14673 0.4738 0.0
H356 H 0.67451 0.1179 0.49273 0.0
H357 H 0.61727 0.17638 0.51695 0.0
H358 H 0.64009 0.26437 0.52189 0.0
C359 C 0.68601 0.34794 0.51042 0.0
C360 C 0.72537 0.31077 0.50138 0.0
C361 C 0.71283 0.25899 0.49991 0.0
C362 C 0.74697 0.22489 0.487 0.0
C363 C 0.73175 0.17403 0.48423 0.0
C364 C 0.68534 0.15697 0.4949 0.0
C365 C 0.65302 0.18992 0.50845 0.0
C366 C 0.6664 0.24037 0.51098 0.0
H367 H 0.85116 0.16525 0.49372 0.0
C368 C 0.85602 0.17132 0.47282 0.0
H369 H 0.83161 0.2147 0.4405 0.0
H370 H 0.76351 0.40679 0.50331 0.0
H371 H 0.84683 0.43468 0.48696 0.0
H372 H 0.90761 0.37487 0.46609 0.0
H373 H 0.88522 0.28678 0.46131 0.0
C374 C 0.82887 0.20821 0.46139 0.0
C375 C 0.7947 0.24238 0.47673 0.0
C376 C 0.8088 0.29348 0.47981 0.0
C377 C 0.77406 0.32779 0.49214 0.0
C378 C 0.78856 0.37894 0.49433 0.0
C379 C 0.83631 0.3955 0.48501 0.0
C380 C 0.87051 0.36184 0.47325 0.0
C381 C 0.85712 0.3114 0.47058 0.0
H382 H 0.36881 0.33374 0.50189 0.0
C383 C 0.36527 0.36631 0.51479 0.0
H384 H 0.32439 0.39971 0.54629 0.0
H385 H 0.16278 0.2181 0.50818 0.0
H386 H 0.15346 0.26398 0.46757 0.0
H387 H 0.20734 0.33847 0.45889 0.0
H388 H 0.27106 0.36735 0.49063 0.0
C389 C 0.32733 0.36802 0.5328 0.0
C390 C 0.29375 0.3239 0.53775 0.0
C391 C 0.25637 0.30798 0.51902 0.0
C392 C 0.22461 0.26565 0.52422 0.0
C393 C 0.18768 0.25024 0.50523 0.0
C394 C 0.18192 0.27623 0.48187 0.0
C395 C 0.21232 0.31812 0.47697 0.0
C396 C 0.24902 0.33412 0.49529 0.0
H397 H 0.14923 0.24257 0.57973 0.0
C398 C 0.15456 0.20525 0.57127 0.0
H399 H 0.20243 0.16175 0.54576 0.0
H400 H 0.36248 0.34403 0.57761 0.0
H401 H 0.37132 0.29821 0.6181 0.0
H402 H 0.316 0.22487 0.62706 0.0
H403 H 0.25155 0.19692 0.5955 0.0
C404 C 0.19407 0.19814 0.55446 0.0
C405 C 0.22956 0.24019 0.54829 0.0
C406 C 0.26727 0.25575 0.5669 0.0
C407 C 0.29923 0.29785 0.56168 0.0
C408 C 0.33677 0.31253 0.58058 0.0
C409 C 0.3424 0.28648 0.60393 0.0
C410 C 0.31126 0.24519 0.60897 0.0
C411 C 0.27422 0.22972 0.59072 0.0
H412 H 0.33594 0.62931 0.52517 0.0
C413 C 0.37228 0.63718 0.51521 0.0
H414 H 0.41065 0.68327 0.48801 0.0
H415 H 0.21192 0.73558 0.42318 0.0
H416 H 0.25665 0.67835 0.39364 0.0
H417 H 0.33397 0.6316 0.40827 0.0
H418 H 0.36719 0.642 0.45231 0.0
C419 C 0.37515 0.67622 0.49884 0.0
C420 C 0.32778 0.70388 0.49077 0.0
C421 C 0.30857 0.69692 0.46494 0.0
C422 C 0.26358 0.72325 0.45666 0.0
C423 C 0.24565 0.71613 0.43063 0.0
C424 C 0.27097 0.68342 0.41343 0.0
C425 C 0.31452 0.65715 0.42163 0.0
C426 C 0.33326 0.66362 0.44703 0.0
H427 H 0.23103 0.85455 0.46736 0.0
C428 C 0.19593 0.83517 0.46108 0.0
H429 H 0.15779 0.76483 0.45922 0.0
H430 H 0.35583 0.72736 0.54116 0.0
H431 H 0.30909 0.78205 0.57131 0.0
H432 H 0.22837 0.82436 0.55765 0.0
H433 H 0.19427 0.81275 0.51367 0.0
C434 C 0.1924 0.78546 0.46484 0.0
C435 C 0.23783 0.75636 0.47425 0.0
C436 C 0.25626 0.76239 0.50028 0.0
C437 C 0.3018 0.73666 0.50844 0.0
C438 C 0.32061 0.74489 0.53419 0.0
C439 C 0.29428 0.77635 0.55165 0.0
C440 C 0.24891 0.80028 0.54394 0.0
C441 C 0.22992 0.79351 0.51859 0.0
H442 H 0.04993 0.9863 0.12384 0.0
C443 C 0.01306 0.99428 0.11435 0.0
H444 H 0.93344 0.01012 0.12004 0.0
H445 H 0.02888 0.91382 0.2316 0.0
H446 H 0.041 0.83695 0.20664 0.0
H447 H 0.01953 0.83297 0.15956 0.0
H448 H 0.98728 0.90643 0.13707 0.0
C449 C 0.97042 0.0011 0.12911 0.0
C450 C 0.97364 0.00045 0.15825 0.0
C451 C 0.98925 0.95629 0.17144 0.0
C452 C -0.00174 0.95769 0.19894 0.0
C453 C 0.01841 0.91425 0.21111 0.0
C454 C 0.02606 0.86989 0.19694 0.0
C455 C 0.01423 0.86772 0.17041 0.0
C456 C 0.99611 0.91029 0.1577 0.0
H457 H 0.94363 0.9477 0.2514 0.0
C458 C 0.97011 0.976 0.25908 0.0
H459 H 0.02423 0.03245 0.24966 0.0
H460 H 0.94152 0.09112 0.13918 0.0
H461 H 0.92342 0.16648 0.16455 0.0
H462 H 0.93337 0.16744 0.21261 0.0
H463 H 0.96202 0.09322 0.23555 0.0
C464 C 0.99686 0.0047 0.24231 0.0
C465 C 0.98795 0.00233 0.21348 0.0
C466 C 0.97 0.04579 0.20042 0.0
C467 C 0.96321 0.04495 0.17276 0.0
C468 C 0.94667 0.08936 0.16018 0.0
C469 C 0.93617 0.13296 0.1745 0.0
C470 C 0.94184 0.13352 0.20155 0.0
C471 C 0.95849 0.09061 0.21446 0.0
H472 H 0.03156 0.05268 0.90448 0.0
C473 C 0.01914 0.01703 0.91255 0.0
H474 H 0.99402 0.94317 0.9038 0.0
H475 H 0.9455 0.06947 0.79437 0.0
H476 H 0.87935 0.11261 0.81984 0.0
H477 H 0.87005 0.09725 0.86718 0.0
H478 H 0.927 0.03893 0.88933 0.0
C479 C 0.00512 0.97958 0.89623 0.0
C480 C 0.00764 0.98596 0.86738 0.0
C481 C 0.97332 0.01956 0.85467 0.0
C482 C 0.9781 0.02775 0.82732 0.0
C483 C 0.94362 0.06181 0.81512 0.0
C484 C 0.90537 0.08675 0.82949 0.0
C485 C 0.90018 0.07816 0.85614 0.0
C486 C 0.93345 0.04484 0.86866 0.0
H487 H 0.99366 0.93865 0.77362 0.0
C488 C 0.00577 0.97517 0.76651 0.0
H489 H 0.03383 0.04696 0.7779 0.0
H490 H 0.07808 0.91763 0.88563 0.0
H491 H 0.14383 0.874 0.86011 0.0
H492 H 0.1527 0.88885 0.81271 0.0
H493 H 0.0958 0.94725 0.79053 0.0
C494 C 0.02064 0.0103 0.78405 0.0
C495 C 0.01632 0.00149 0.81265 0.0
C496 C 0.05015 0.96734 0.82528 0.0
C497 C 0.04547 0.95926 0.85267 0.0
C498 C 0.07987 0.92516 0.86486 0.0
C499 C 0.11786 0.89991 0.85046 0.0
C500 C 0.12282 0.90824 0.82377 0.0
C501 C 0.08964 0.94166 0.81124 0.0
H502 H 0.55619 0.46675 0.62312 0.0
C503 C 0.51929 0.47864 0.61486 0.0
H504 H 0.44175 0.49937 0.62311 0.0
H505 H 0.43222 0.39528 0.73352 0.0
H506 H 0.37238 0.344 0.70818 0.0
H507 H 0.36357 0.35507 0.66048 0.0
H508 H 0.41429 0.41771 0.63782 0.0
C509 C 0.47934 0.48874 0.631 0.0
C510 C 0.48447 0.48275 0.65988 0.0
C511 C 0.45491 0.44559 0.67279 0.0
C512 C 0.46058 0.43867 0.70025 0.0
C513 C 0.42996 0.40176 0.71267 0.0
C514 C 0.39539 0.37208 0.69836 0.0
C515 C 0.3904 0.37833 0.6715 0.0
C516 C 0.41972 0.41453 0.65875 0.0
H517 H 0.47466 0.53468 0.75249 0.0
C518 C 0.48728 0.49895 0.76045 0.0
H519 H 0.51418 0.42594 0.75067 0.0
H520 H 0.54158 0.56233 0.64213 0.0
H521 H 0.60456 0.61073 0.66695 0.0
H522 H 0.62096 0.59284 0.71354 0.0
H523 H 0.57348 0.52738 0.73571 0.0
C524 C 0.50073 0.46197 0.74362 0.0
C525 C 0.4961 0.46864 0.71474 0.0
C526 C 0.52645 0.50518 0.70173 0.0
C527 C 0.51935 0.51338 0.67447 0.0
C528 C 0.5473 0.55269 0.66244 0.0
C529 C 0.58331 0.58108 0.67652 0.0
C530 C 0.59237 0.57117 0.70277 0.0
C531 C 0.56446 0.53371 0.71532 0.0
H532 H 0.51718 0.55977 0.40612 0.0
C533 C 0.50842 0.52245 0.41332 0.0
H534 H 0.49147 0.44728 0.40281 0.0
H535 H 0.43386 0.57328 0.29443 0.0
H536 H 0.36215 0.60808 0.31947 0.0
H537 H 0.35263 0.58989 0.36644 0.0
H538 H 0.41525 0.53753 0.38888 0.0
C539 C 0.49859 0.48521 0.39608 0.0
C540 C 0.5019 0.49376 0.36737 0.0
C541 C 0.46468 0.52427 0.35459 0.0
C542 C 0.46957 0.53393 0.32736 0.0
C543 C 0.43201 0.56466 0.31508 0.0
C544 C 0.39058 0.58482 0.3292 0.0
C545 C 0.38531 0.57469 0.35568 0.0
C546 C 0.42172 0.54475 0.36834 0.0
H547 H 0.49617 0.44826 0.27347 0.0
C548 C 0.50471 0.48582 0.26651 0.0
H549 H 0.52444 0.55992 0.27842 0.0
H550 H 0.57883 0.43236 0.38571 0.0
H551 H 0.64984 0.39664 0.36052 0.0
H552 H 0.65884 0.41422 0.31339 0.0
H553 H 0.59677 0.46741 0.29117 0.0
C554 C 0.51504 0.52202 0.28431 0.0
C555 C 0.51093 0.51222 0.31286 0.0
C556 C 0.54786 0.48134 0.32557 0.0
C557 C 0.54305 0.47175 0.35282 0.0
C558 C 0.58052 0.44085 0.36505 0.0
C559 C 0.62157 0.42017 0.35084 0.0
C560 C 0.62661 0.43002 0.3243 0.0
C561 C 0.59047 0.46039 0.31174 0.0
loop_
_geom_bond_atom_site_label_1
_geom_bond_atom_site_label_2
_geom_bond_distance
_geom_bond_site_symmetry_2
_ccdc_geom_bond_type
O0 Zn1 1.953 . S
O0 C16 1.225 1_565 S
Zn1 O0 1.953 . S
Zn1 O2 1.949 1_565 S
Zn1 O8 1.919 . S
Zn1 O13 1.924 1_565 S
O2 Zn1 1.949 1_545 S
O2 Zn3 1.923 1_444 S
O2 Zn4 1.950 1_455 S
O2 Zn5 1.945 1_554 S
Zn3 O2 1.923 1_666 S
Zn3 O6 1.933 . S
Zn3 O9 1.941 1_655 S
Zn3 O10 1.958 1_556 S
Zn4 O2 1.950 1_655 S
Zn4 O11 1.938 1_545 S
Zn4 O12 1.906 . S
Zn4 O22 1.953 . S
Zn5 O2 1.945 1_556 S
Zn5 O7 1.932 . S
Zn5 O14 1.977 1_455 S
Zn5 O15 1.910 1_556 S
O6 Zn3 1.933 . S
O6 C17 1.226 1_665 S
O7 Zn5 1.932 . S
O7 C17 1.307 . S
O8 Zn1 1.919 . S
O8 C19 1.253 . S
O9 Zn3 1.941 1_455 S
O9 C19 1.283 1_556 S
O10 Zn3 1.958 1_554 S
O10 C18 1.330 . S
O11 Zn4 1.938 1_565 S
O11 C18 1.247 . S
O12 Zn4 1.906 . S
O12 C20 1.304 . S
O13 Zn1 1.924 1_545 S
O13 C21 1.311 . S
O14 Zn5 1.977 1_655 S
O14 C20 1.272 1_556 S
O15 Zn5 1.910 1_554 S
O15 C21 1.231 . S
C16 O0 1.225 1_545 S
C16 O22 1.298 1_455 S
C17 O6 1.226 1_445 S
C17 O7 1.307 . S
C18 O10 1.330 . S
C18 O11 1.247 . S
C19 O8 1.253 . S
C19 O9 1.283 1_554 S
C20 O12 1.304 . S
C20 O14 1.272 1_554 S
C21 O13 1.311 . S
C21 O15 1.231 . S
O22 Zn4 1.953 . S
O22 C16 1.298 1_655 S
O23 Zn24 1.953 . S
O23 C39 1.225 . S
Zn24 O23 1.953 . S
Zn24 O25 1.949 . S
Zn24 O31 1.919 . S
Zn24 O36 1.924 . S
O25 Zn24 1.949 . S
O25 Zn26 1.923 . S
O25 Zn27 1.950 . S
O25 Zn28 1.945 . S
Zn26 O25 1.923 . S
Zn26 O29 1.933 . S
Zn26 O32 1.941 . S
Zn26 O33 1.965 . S
Zn27 O25 1.950 . S
Zn27 O34 1.938 . S
Zn27 O35 1.906 . S
Zn27 O45 1.953 . S
Zn28 O25 1.945 . S
Zn28 O30 1.932 . S
Zn28 O37 1.977 . S
Zn28 O38 1.910 . S
O29 Zn26 1.933 . S
O29 C40 1.226 . S
O30 Zn28 1.932 . S
O30 C40 1.307 . S
O31 Zn24 1.919 . S
O31 C42 1.253 . S
O32 Zn26 1.941 . S
O32 C42 1.283 . S
O33 Zn26 1.965 . S
O33 C41 1.303 . S
O34 Zn27 1.938 . S
O34 C41 1.247 . S
O35 Zn27 1.906 . S
O35 C43 1.304 . S
O36 Zn24 1.924 . S
O36 C44 1.311 . S
O37 Zn28 1.977 . S
O37 C43 1.272 . S
O38 Zn28 1.910 . S
O38 C44 1.231 . S
C39 O23 1.225 . S
C39 O45 1.298 . S
C40 O29 1.226 . S
C40 O30 1.307 . S
C41 O33 1.303 . S
C41 O34 1.247 . S
C42 O31 1.253 . S
C42 O32 1.283 . S
C43 O35 1.304 . S
C43 O37 1.272 . S
C44 O36 1.311 . S
C44 O38 1.231 . S
O45 Zn27 1.953 . S
O45 C39 1.298 . S
C46 C47 1.390 1_455 S
C46 C48 1.397 . S
C46 H70 0.931 . S
C47 C46 1.390 1_655 S
C47 C51 1.393 1_665 S
C48 C46 1.397 . S
C48 C49 1.384 . S
C48 H71 0.930 . S
C49 C48 1.384 . S
C49 C50 1.377 1_565 S
C49 C52 1.481 . S
C50 C49 1.377 1_545 S
C50 C51 1.389 . S
C50 H72 0.929 . S
C51 C47 1.393 1_445 S
C51 C50 1.389 . S
C51 H73 0.931 . S
C52 C49 1.481 . S
C52 C53 1.394 . S
C52 C57 1.383 1_465 S
C53 C52 1.394 . S
C53 C54 1.401 . S
C53 H74 0.930 . S
C54 C53 1.401 . S
C54 C55 1.366 1_455 S
C54 C63 1.511 . S
C55 C54 1.366 1_655 S
C55 C56 1.402 1_565 S
C55 H76 0.932 . S
C56 C55 1.402 1_545 S
C56 C57 1.361 . S
C56 C58 1.500 . S
C57 C52 1.383 1_645 S
C57 C56 1.361 . S
C57 H75 0.931 . S
C58 C56 1.500 . S
C58 C59 1.371 . S
C58 C60 1.365 . S
C59 C58 1.371 . S
C59 C69 1.386 . S
C59 H77 0.931 . S
C60 C58 1.365 . S
C60 C61 1.409 . S
C60 H78 0.929 . S
C61 C60 1.409 . S
C61 C62 1.380 . S
C61 H79 0.930 . S
C62 C61 1.380 . S
C62 C69 1.357 . S
C63 C54 1.511 . S
C63 C64 1.341 . S
C63 C65 1.371 . S
C64 C63 1.341 . S
C64 C68 1.394 . S
C64 H80 0.930 . S
C65 C63 1.371 . S
C65 C66 1.392 . S
C65 H81 0.931 . S
C66 C65 1.392 . S
C66 C67 1.331 . S
C66 H84 0.932 . S
C67 C66 1.331 . S
C67 C68 1.336 . S
C68 C64 1.394 . S
C68 C67 1.336 . S
C68 H83 0.929 . S
C69 C59 1.386 . S
C69 C62 1.357 . S
C69 H82 0.928 . S
H70 C46 0.931 . S
H71 C48 0.930 . S
H72 C50 0.929 . S
H73 C51 0.931 . S
H74 C53 0.930 . S
H75 C57 0.931 . S
H76 C55 0.932 . S
H77 C59 0.931 . S
H78 C60 0.929 . S
H79 C61 0.930 . S
H80 C64 0.930 . S
H81 C65 0.931 . S
H82 C69 0.928 . S
H83 C68 0.929 . S
H84 C66 0.932 . S
C85 C86 1.386 . S
C85 C87 1.397 . S
C85 H109 0.931 . S
C86 C85 1.386 . S
C86 C90 1.397 1_545 S
C87 C85 1.397 . S
C87 C88 1.384 . S
C87 H110 0.930 . S
C88 C87 1.384 . S
C88 C89 1.377 1_545 S
C88 C91 1.481 . S
C89 C88 1.377 1_565 S
C89 C90 1.389 . S
C89 H111 0.929 . S
C90 C86 1.397 1_565 S
C90 C89 1.389 . S
C90 H112 0.931 . S
C91 C88 1.481 . S
C91 C92 1.387 . S
C91 C96 1.390 1_445 S
C92 C91 1.387 . S
C92 C93 1.401 . S
C92 H113 0.930 . S
C93 C92 1.401 . S
C93 C94 1.376 . S
C93 C102 1.511 . S
C94 C93 1.376 . S
C94 C95 1.392 1_445 S
C94 H115 0.931 . S
C95 C94 1.392 1_665 S
C95 C96 1.361 . S
C95 C97 1.500 . S
C96 C91 1.390 1_665 S
C96 C95 1.361 . S
C96 H114 0.931 . S
C97 C95 1.500 . S
C97 C98 1.371 . S
C97 C99 1.365 . S
C98 C97 1.371 . S
C98 C108 1.386 . S
C98 H116 0.931 . S
C99 C97 1.365 . S
C99 C100 1.409 . S
C99 H117 0.929 . S
C100 C99 1.409 . S
C100 C101 1.380 . S
C100 H118 0.930 . S
C101 C100 1.380 . S
C101 C108 1.357 . S
C102 C93 1.511 . S
C102 C103 1.341 . S
C102 C104 1.371 . S
C103 C102 1.341 . S
C103 C107 1.394 . S
C103 H119 0.930 . S
C104 C102 1.371 . S
C104 C105 1.392 . S
C104 H120 0.931 . S
C105 C104 1.392 . S
C105 C106 1.331 . S
C105 H123 0.932 . S
C106 C105 1.331 . S
C106 C107 1.336 . S
C107 C103 1.394 . S
C107 C106 1.336 . S
C107 H122 0.929 . S
C108 C98 1.386 . S
C108 C101 1.357 . S
C108 H121 0.928 . S
H109 C85 0.931 . S
H110 C87 0.930 . S
H111 C89 0.929 . S
H112 C90 0.931 . S
H113 C92 0.930 . S
H114 C96 0.931 . S
H115 C94 0.931 . S
H116 C98 0.931 . S
H117 C99 0.929 . S
H118 C100 0.930 . S
H119 C103 0.930 . S
H120 C104 0.931 . S
H121 C108 0.928 . S
H122 C107 0.929 . S
H123 C105 0.932 . S
C124 C125 1.386 . S
C124 C126 1.397 . S
C124 H148 0.931 . S
C125 C124 1.386 . S
C125 C129 1.397 . S
C126 C124 1.397 . S
C126 C127 1.384 . S
C126 H149 0.930 . S
C127 C126 1.384 . S
C127 C128 1.377 . S
C127 C130 1.481 . S
C128 C127 1.377 . S
C128 C129 1.389 . S
C128 H150 0.929 . S
C129 C125 1.397 . S
C129 C128 1.389 . S
C129 H151 0.931 . S
C130 C127 1.481 . S
C130 C131 1.387 . S
C130 C135 1.390 . S
C131 C130 1.387 . S
C131 C132 1.401 . S
C131 H152 0.930 . S
C132 C131 1.401 . S
C132 C133 1.376 . S
C132 C141 1.511 . S
C133 C132 1.376 . S
C133 C134 1.392 . S
C133 H154 0.931 . S
C134 C133 1.392 . S
C134 C135 1.361 . S
C134 C136 1.500 . S
C135 C130 1.390 . S
C135 C134 1.361 . S
C135 H153 0.931 . S
C136 C134 1.500 . S
C136 C137 1.371 . S
C136 C138 1.365 . S
C137 C136 1.371 . S
C137 C147 1.386 . S
C137 H155 0.931 . S
C138 C136 1.365 . S
C138 C139 1.409 . S
C138 H156 0.929 . S
C139 C138 1.409 . S
C139 C140 1.380 . S
C139 H157 0.930 . S
C140 C139 1.380 . S
C140 C147 1.357 . S
C141 C132 1.511 . S
C141 C142 1.341 . S
C141 C143 1.371 . S
C142 C141 1.341 . S
C142 C146 1.394 . S
C142 H158 0.930 . S
C143 C141 1.371 . S
C143 C144 1.392 . S
C143 H159 0.931 . S
C144 C143 1.392 . S
C144 C145 1.331 . S
C144 H162 0.932 . S
C145 C144 1.331 . S
C145 C146 1.336 . S
C146 C142 1.394 . S
C146 C145 1.336 . S
C146 H161 0.929 . S
C147 C137 1.386 . S
C147 C140 1.357 . S
C147 H160 0.928 . S
H148 C124 0.931 . S
H149 C126 0.930 . S
H150 C128 0.929 . S
H151 C129 0.931 . S
H152 C131 0.930 . S
H153 C135 0.931 . S
H154 C133 0.931 . S
H155 C137 0.931 . S
H156 C138 0.929 . S
H157 C139 0.930 . S
H158 C142 0.930 . S
H159 C143 0.931 . S
H160 C147 0.928 . S
H161 C146 0.929 . S
H162 C144 0.932 . S
C163 C164 1.386 . S
C163 C165 1.397 . S
C163 H187 0.931 . S
C164 C163 1.386 . S
C164 C168 1.397 . S
C165 C163 1.397 . S
C165 C166 1.384 . S
C165 H188 0.930 . S
C166 C165 1.384 . S
C166 C167 1.377 . S
C166 C169 1.481 . S
C167 C166 1.377 . S
C167 C168 1.389 . S
C167 H189 0.929 . S
C168 C164 1.397 . S
C168 C167 1.389 . S
C168 H190 0.931 . S
C169 C166 1.481 . S
C169 C170 1.387 . S
C169 C174 1.390 . S
C170 C169 1.387 . S
C170 C171 1.401 . S
C170 H191 0.930 . S
C171 C170 1.401 . S
C171 C172 1.376 . S
C171 C180 1.511 . S
C172 C171 1.376 . S
C172 C173 1.392 . S
C172 H193 0.931 . S
C173 C172 1.392 . S
C173 C174 1.361 . S
C173 C175 1.500 . S
C174 C169 1.390 . S
C174 C173 1.361 . S
C174 H192 0.931 . S
C175 C173 1.500 . S
C175 C176 1.371 . S
C175 C177 1.365 . S
C176 C175 1.371 . S
C176 C186 1.386 . S
C176 H194 0.931 . S
C177 C175 1.365 . S
C177 C178 1.409 . S
C177 H195 0.929 . S
C178 C177 1.409 . S
C178 C179 1.380 . S
C178 H196 0.930 . S
C179 C178 1.380 . S
C179 C186 1.357 . S
C180 C171 1.511 . S
C180 C181 1.341 . S
C180 C182 1.371 . S
C181 C180 1.341 . S
C181 C185 1.394 . S
C181 H197 0.930 . S
C182 C180 1.371 . S
C182 C183 1.392 . S
C182 H198 0.931 . S
C183 C182 1.392 . S
C183 C184 1.331 . S
C183 H201 0.932 . S
C184 C183 1.331 . S
C184 C185 1.336 . S
C185 C181 1.394 . S
C185 C184 1.336 . S
C185 H200 0.929 . S
C186 C176 1.386 . S
C186 C179 1.357 . S
C186 H199 0.928 . S
H187 C163 0.931 . S
H188 C165 0.930 . S
H189 C167 0.929 . S
H190 C168 0.931 . S
H191 C170 0.930 . S
H192 C174 0.931 . S
H193 C172 0.931 . S
H194 C176 0.931 . S
H195 C177 0.929 . S
H196 C178 0.930 . S
H197 C181 0.930 . S
H198 C182 0.931 . S
H199 C186 0.928 . S
H200 C185 0.929 . S
H201 C183 0.932 . S
H202 C203 0.951 . S
C203 H202 0.951 . S
C203 C209 1.265 . S
H204 C209 0.950 . S
H205 C213 0.949 . S
H206 C214 0.950 . S
H207 C215 0.951 . S
H208 C216 0.951 . S
C209 C203 1.265 . S
C209 H204 0.950 . S
C209 C210 1.478 . S
C210 C209 1.478 . S
C210 C211 1.397 . S
C210 C227 1.394 . S
C211 C210 1.397 . S
C211 C212 1.438 . S
C211 C216 1.429 . S
C212 C211 1.438 . S
C212 C213 1.428 . S
C212 C225 1.394 . S
C213 H205 0.949 . S
C213 C212 1.428 . S
C213 C214 1.345 . S
C214 H206 0.950 . S
C214 C213 1.345 . S
C214 C215 1.424 . S
C215 H207 0.951 . S
C215 C214 1.424 . S
C215 C216 1.347 . S
C216 H208 0.951 . S
C216 C211 1.429 . S
C216 C215 1.347 . S
H217 C218 0.951 . S
C218 H217 0.951 . S
C218 C224 1.265 . S
H219 C224 0.950 . S
H220 C228 0.949 . S
H221 C229 0.950 . S
H222 C230 0.951 . S
H223 C231 0.951 . S
C224 C218 1.265 . S
C224 H219 0.950 . S
C224 C225 1.478 . S
C225 C212 1.394 . S
C225 C224 1.478 . S
C225 C226 1.397 . S
C226 C225 1.397 . S
C226 C227 1.438 . S
C226 C231 1.429 . S
C227 C210 1.394 . S
C227 C226 1.438 . S
C227 C228 1.428 1_554 S
C228 H220 0.949 . S
C228 C227 1.428 1_556 S
C228 C229 1.345 . S
C229 H221 0.950 . S
C229 C228 1.345 . S
C229 C230 1.424 . S
C230 H222 0.951 . S
C230 C229 1.424 . S
C230 C231 1.347 1_556 S
C231 H223 0.951 . S
C231 C226 1.429 . S
C231 C230 1.347 1_554 S
H232 C233 0.951 . S
C233 H232 0.951 . S
C233 C239 1.265 . S
H234 C239 0.952 . S
H235 C243 0.949 . S
H236 C244 0.950 . S
H237 C245 0.951 . S
H238 C246 0.951 . S
C239 C233 1.265 . S
C239 H234 0.952 . S
C239 C240 1.478 . S
C240 C239 1.478 . S
C240 C241 1.397 1_556 S
C240 C257 1.394 . S
C241 C240 1.397 1_554 S
C241 C242 1.438 1_554 S
C241 C246 1.429 . S
C242 C241 1.438 1_556 S
C242 C243 1.428 1_556 S
C242 C255 1.394 . S
C243 H235 0.949 . S
C243 C242 1.428 1_554 S
C243 C244 1.345 . S
C244 H236 0.950 . S
C244 C243 1.345 . S
C244 C245 1.424 . S
C245 H237 0.951 . S
C245 C244 1.424 . S
C245 C246 1.347 . S
C246 H238 0.951 . S
C246 C241 1.429 . S
C246 C245 1.347 . S
H247 C248 0.951 . S
C248 H247 0.951 . S
C248 C254 1.265 . S
H249 C254 0.950 . S
H250 C258 0.949 . S
H251 C259 0.950 . S
H252 C260 0.951 . S
H253 C261 0.951 . S
C254 C248 1.265 . S
C254 H249 0.950 . S
C254 C255 1.478 . S
C255 C242 1.394 . S
C255 C254 1.478 . S
C255 C256 1.397 . S
C256 C255 1.397 . S
C256 C257 1.438 . S
C256 C261 1.429 . S
C257 C240 1.394 . S
C257 C256 1.438 . S
C257 C258 1.428 . S
C258 H250 0.949 . S
C258 C257 1.428 . S
C258 C259 1.345 . S
C259 H251 0.950 . S
C259 C258 1.345 . S
C259 C260 1.424 . S
C260 H252 0.951 . S
C260 C259 1.424 . S
C260 C261 1.347 . S
C261 H253 0.951 . S
C261 C256 1.429 . S
C261 C260 1.347 . S
H262 C263 0.951 . S
C263 H262 0.951 . S
C263 C269 1.265 . S
H264 C269 0.950 . S
H265 C273 0.949 . S
H266 C274 0.950 . S
H267 C275 0.951 . S
H268 C276 0.948 1_556 S
C269 C263 1.265 . S
C269 H264 0.950 . S
C269 C270 1.478 . S
C270 C269 1.478 . S
C270 C271 1.397 . S
C270 C287 1.394 . S
C271 C270 1.397 . S
C271 C272 1.438 . S
C271 C276 1.440 . S
C272 C271 1.438 . S
C272 C273 1.428 . S
C272 C285 1.394 . S
C273 H265 0.949 . S
C273 C272 1.428 . S
C273 C274 1.345 1_554 S
C274 H266 0.950 . S
C274 C273 1.345 1_556 S
C274 C275 1.424 . S
C275 H267 0.951 . S
C275 C274 1.424 . S
C275 C276 1.339 1_556 S
C276 H268 0.948 1_554 S
C276 C271 1.440 . S
C276 C275 1.339 1_554 S
H277 C278 0.951 . S
C278 H277 0.951 . S
C278 C284 1.265 . S
H279 C284 0.950 . S
H280 C288 0.949 . S
H281 C289 0.950 . S
H282 C290 0.951 . S
H283 C291 0.951 . S
C284 C278 1.265 . S
C284 H279 0.950 . S
C284 C285 1.478 . S
C285 C272 1.394 . S
C285 C284 1.478 . S
C285 C286 1.397 . S
C286 C285 1.397 . S
C286 C287 1.438 . S
C286 C291 1.429 . S
C287 C270 1.394 . S
C287 C286 1.438 . S
C287 C288 1.428 . S
C288 H280 0.949 . S
C288 C287 1.428 . S
C288 C289 1.345 . S
C289 H281 0.950 . S
C289 C288 1.345 . S
C289 C290 1.424 . S
C290 H282 0.951 . S
C290 C289 1.424 . S
C290 C291 1.347 . S
C291 H283 0.951 . S
C291 C286 1.429 . S
C291 C290 1.347 . S
H292 C293 0.951 . S
C293 H292 0.951 . S
C293 C299 1.265 . S
H294 C299 0.950 . S
H295 C303 0.949 . S
H296 C304 0.950 . S
H297 C305 0.951 . S
H298 C306 0.951 . S
C299 C293 1.265 . S
C299 H294 0.950 . S
C299 C300 1.478 . S
C300 C299 1.478 . S
C300 C301 1.397 1_556 S
C300 C317 1.394 . S
C301 C300 1.397 1_554 S
C301 C302 1.438 1_554 S
C301 C306 1.429 . S
C302 C301 1.438 1_556 S
C302 C303 1.428 1_556 S
C302 C315 1.394 . S
C303 H295 0.949 . S
C303 C302 1.428 1_554 S
C303 C304 1.345 . S
C304 H296 0.950 . S
C304 C303 1.345 . S
C304 C305 1.424 . S
C305 H297 0.951 . S
C305 C304 1.424 . S
C305 C306 1.347 . S
C306 H298 0.951 . S
C306 C301 1.429 . S
C306 C305 1.347 . S
H307 C308 0.951 . S
C308 H307 0.951 . S
C308 C314 1.265 . S
H309 C314 0.950 . S
H310 C318 0.949 . S
H311 C319 0.950 . S
H312 C320 0.951 . S
H313 C321 0.951 . S
C314 C308 1.265 . S
C314 H309 0.950 . S
C314 C315 1.478 . S
C315 C302 1.394 . S
C315 C314 1.478 . S
C315 C316 1.397 . S
C316 C315 1.397 . S
C316 C317 1.438 . S
C316 C321 1.429 . S
C317 C300 1.394 . S
C317 C316 1.438 . S
C317 C318 1.428 . S
C318 H310 0.949 . S
C318 C317 1.428 . S
C318 C319 1.345 . S
C319 H311 0.950 . S
C319 C318 1.345 . S
C319 C320 1.424 . S
C320 H312 0.951 . S
C320 C319 1.424 . S
C320 C321 1.347 . S
C321 H313 0.951 . S
C321 C316 1.429 . S
C321 C320 1.347 . S
H322 C323 0.951 . S
C323 H322 0.951 . S
C323 C329 1.265 . S
H324 C329 0.950 . S
H325 C333 0.949 . S
H326 C334 0.950 . S
H327 C335 0.951 . S
H328 C336 0.951 . S
C329 C323 1.265 . S
C329 H324 0.950 . S
C329 C330 1.478 . S
C330 C329 1.478 . S
C330 C331 1.397 . S
C330 C347 1.394 . S
C331 C330 1.397 . S
C331 C332 1.438 . S
C331 C336 1.429 . S
C332 C331 1.438 . S
C332 C333 1.428 . S
C332 C345 1.394 . S
C333 H325 0.949 . S
C333 C332 1.428 . S
C333 C334 1.345 . S
C334 H326 0.950 . S
C334 C333 1.345 . S
C334 C335 1.424 . S
C335 H327 0.951 . S
C335 C334 1.424 . S
C335 C336 1.347 . S
C336 H328 0.951 . S
C336 C331 1.429 . S
C336 C335 1.347 . S
H337 C338 0.951 . S
C338 H337 0.951 . S
C338 C344 1.265 . S
H339 C344 0.950 . S
H340 C348 0.949 . S
H341 C349 0.950 . S
H342 C350 0.951 . S
H343 C351 0.951 . S
C344 C338 1.265 . S
C344 H339 0.950 . S
C344 C345 1.478 . S
C345 C332 1.394 . S
C345 C344 1.478 . S
C345 C346 1.397 . S
C346 C345 1.397 . S
C346 C347 1.438 . S
C346 C351 1.429 . S
C347 C330 1.394 . S
C347 C346 1.438 . S
C347 C348 1.428 . S
C348 H340 0.949 . S
C348 C347 1.428 . S
C348 C349 1.345 . S
C349 H341 0.950 . S
C349 C348 1.345 . S
C349 C350 1.424 . S
C350 H342 0.951 . S
C350 C349 1.424 . S
C350 C351 1.347 . S
C351 H343 0.951 . S
C351 C346 1.429 . S
C351 C350 1.347 . S
H352 C353 0.951 . S
C353 H352 0.951 . S
C353 C359 1.265 . S
H354 C359 0.950 . S
H355 C363 0.949 . S
H356 C364 0.950 . S
H357 C365 0.951 . S
H358 C366 0.951 . S
C359 C353 1.265 . S
C359 H354 0.950 . S
C359 C360 1.478 . S
C360 C359 1.478 . S
C360 C361 1.397 . S
C360 C377 1.394 . S
C361 C360 1.397 . S
C361 C362 1.438 . S
C361 C366 1.429 . S
C362 C361 1.438 . S
C362 C363 1.428 . S
C362 C375 1.394 . S
C363 H355 0.949 . S
C363 C362 1.428 . S
C363 C364 1.345 . S
C364 H356 0.950 . S
C364 C363 1.345 . S
C364 C365 1.424 . S
C365 H357 0.951 . S
C365 C364 1.424 . S
C365 C366 1.347 . S
C366 H358 0.951 . S
C366 C361 1.429 . S
C366 C365 1.347 . S
H367 C368 0.951 . S
C368 H367 0.951 . S
C368 C374 1.265 . S
H369 C374 0.950 . S
H370 C378 0.949 . S
H371 C379 0.950 . S
H372 C380 0.951 . S
H373 C381 0.951 . S
C374 C368 1.265 . S
C374 H369 0.950 . S
C374 C375 1.478 . S
C375 C362 1.394 . S
C375 C374 1.478 . S
C375 C376 1.397 . S
C376 C375 1.397 . S
C376 C377 1.438 . S
C376 C381 1.429 . S
C377 C360 1.394 . S
C377 C376 1.438 . S
C377 C378 1.428 . S
C378 H370 0.949 . S
C378 C377 1.428 . S
C378 C379 1.345 . S
C379 H371 0.950 . S
C379 C378 1.345 . S
C379 C380 1.424 . S
C380 H372 0.951 . S
C380 C379 1.424 . S
C380 C381 1.347 . S
C381 H373 0.951 . S
C381 C376 1.429 . S
C381 C380 1.347 . S
H382 C383 0.951 . S
C383 H382 0.951 . S
C383 C389 1.265 . S
H384 C389 0.950 . S
H385 C393 0.949 . S
H386 C394 0.950 . S
H387 C395 0.951 . S
H388 C396 0.951 . S
C389 C383 1.265 . S
C389 H384 0.950 . S
C389 C390 1.478 . S
C390 C389 1.478 . S
C390 C391 1.397 . S
C390 C407 1.394 . S
C391 C390 1.397 . S
C391 C392 1.438 . S
C391 C396 1.429 . S
C392 C391 1.438 . S
C392 C393 1.428 . S
C392 C405 1.394 . S
C393 H385 0.949 . S
C393 C392 1.428 . S
C393 C394 1.345 . S
C394 H386 0.950 . S
C394 C393 1.345 . S
C394 C395 1.424 . S
C395 H387 0.951 . S
C395 C394 1.424 . S
C395 C396 1.347 . S
C396 H388 0.951 . S
C396 C391 1.429 . S
C396 C395 1.347 . S
H397 C398 0.951 . S
C398 H397 0.951 . S
C398 C404 1.265 . S
H399 C404 0.950 . S
H400 C408 0.949 . S
H401 C409 0.950 . S
H402 C410 0.951 . S
H403 C411 0.951 . S
C404 C398 1.265 . S
C404 H399 0.950 . S
C404 C405 1.478 . S
C405 C392 1.394 . S
C405 C404 1.478 . S
C405 C406 1.397 . S
C406 C405 1.397 . S
C406 C407 1.438 . S
C406 C411 1.429 . S
C407 C390 1.394 . S
C407 C406 1.438 . S
C407 C408 1.428 . S
C408 H400 0.949 . S
C408 C407 1.428 . S
C408 C409 1.345 . S
C409 H401 0.950 . S
C409 C408 1.345 . S
C409 C410 1.424 . S
C410 H402 0.951 . S
C410 C409 1.424 . S
C410 C411 1.347 . S
C411 H403 0.951 . S
C411 C406 1.429 . S
C411 C410 1.347 . S
H412 C413 0.951 . S
C413 H412 0.951 . S
C413 C419 1.265 . S
H414 C419 0.950 . S
H415 C423 0.949 . S
H416 C424 0.950 . S
H417 C425 0.951 . S
H418 C426 0.951 . S
C419 C413 1.265 . S
C419 H414 0.950 . S
C419 C420 1.478 . S
C420 C419 1.478 . S
C420 C421 1.397 . S
C420 C437 1.394 . S
C421 C420 1.397 . S
C421 C422 1.438 . S
C421 C426 1.429 . S
C422 C421 1.438 . S
C422 C423 1.428 . S
C422 C435 1.394 . S
C423 H415 0.949 . S
C423 C422 1.428 . S
C423 C424 1.345 . S
C424 H416 0.950 . S
C424 C423 1.345 . S
C424 C425 1.424 . S
C425 H417 0.951 . S
C425 C424 1.424 . S
C425 C426 1.347 . S
C426 H418 0.951 . S
C426 C421 1.429 . S
C426 C425 1.347 . S
H427 C428 0.951 . S
C428 H427 0.951 . S
C428 C434 1.265 . S
H429 C434 0.950 . S
H430 C438 0.949 . S
H431 C439 0.950 . S
H432 C440 0.951 . S
H433 C441 0.951 . S
C434 C428 1.265 . S
C434 H429 0.950 . S
C434 C435 1.478 . S
C435 C422 1.394 . S
C435 C434 1.478 . S
C435 C436 1.397 . S
C436 C435 1.397 . S
C436 C437 1.438 . S
C436 C441 1.429 . S
C437 C420 1.394 . S
C437 C436 1.438 . S
C437 C438 1.428 . S
C438 H430 0.949 . S
C438 C437 1.428 . S
C438 C439 1.345 . S
C439 H431 0.950 . S
C439 C438 1.345 . S
C439 C440 1.424 . S
C440 H432 0.951 . S
C440 C439 1.424 . S
C440 C441 1.347 . S
C441 H433 0.951 . S
C441 C436 1.429 . S
C441 C440 1.347 . S
H442 C443 0.951 . S
C443 H442 0.951 . S
C443 C449 1.266 1_455 S
H444 C449 0.948 1_565 S
H445 C453 0.949 . S
H446 C454 0.950 . S
H447 C455 0.951 . S
H448 C456 0.951 . S
C449 C443 1.266 1_655 S
C449 H444 0.948 1_545 S
C449 C450 1.478 . S
C450 C449 1.478 . S
C450 C451 1.397 1_545 S
C450 C467 1.394 1_655 S
C451 C450 1.397 1_565 S
C451 C452 1.438 . S
C451 C456 1.429 . S
C452 C451 1.438 . S
C452 C453 1.428 . S
C452 C465 1.394 1_665 S
C453 H445 0.949 . S
C453 C452 1.428 . S
C453 C454 1.345 . S
C454 H446 0.950 . S
C454 C453 1.345 . S
C454 C455 1.424 . S
C455 H447 0.951 . S
C455 C454 1.424 . S
C455 C456 1.347 . S
C456 H448 0.951 . S
C456 C451 1.429 . S
C456 C455 1.347 . S
H457 C458 0.950 1_565 S
C458 H457 0.950 1_545 S
C458 C464 1.266 1_655 S
H459 C464 0.950 . S
H460 C468 0.949 . S
H461 C469 0.950 . S
H462 C470 0.951 . S
H463 C471 0.951 . S
C464 C458 1.266 1_455 S
C464 H459 0.950 . S
C464 C465 1.478 . S
C465 C452 1.394 1_445 S
C465 C464 1.478 . S
C465 C466 1.397 . S
C466 C465 1.397 . S
C466 C467 1.438 . S
C466 C471 1.429 . S
C467 C450 1.394 1_455 S
C467 C466 1.438 . S
C467 C468 1.428 . S
C468 H460 0.949 . S
C468 C467 1.428 . S
C468 C469 1.345 . S
C469 H461 0.950 . S
C469 C468 1.345 . S
C469 C470 1.424 . S
C470 H462 0.951 . S
C470 C469 1.424 . S
C470 C471 1.347 . S
C471 H463 0.951 . S
C471 C466 1.429 . S
C471 C470 1.347 . S
H472 C473 0.951 . S
C473 H472 0.951 . S
C473 C479 1.265 1_455 S
H474 C479 0.950 . S
H475 C483 0.949 . S
H476 C484 0.950 . S
H477 C485 0.951 . S
H478 C486 0.951 . S
C479 C473 1.265 1_655 S
C479 H474 0.950 . S
C479 C480 1.478 1_655 S
C480 C479 1.478 1_455 S
C480 C481 1.397 1_455 S
C480 C497 1.394 1_545 S
C481 C480 1.397 1_655 S
C481 C482 1.437 1_655 S
C481 C486 1.429 . S
C482 C481 1.437 1_455 S
C482 C483 1.426 1_455 S
C482 C495 1.397 . S
C483 H475 0.949 . S
C483 C482 1.426 1_655 S
C483 C484 1.345 . S
C484 H476 0.950 . S
C484 C483 1.345 . S
C484 C485 1.424 . S
C485 H477 0.951 . S
C485 C484 1.424 . S
C485 C486 1.347 . S
C486 H478 0.951 . S
C486 C481 1.429 . S
C486 C485 1.347 . S
H487 C488 0.951 1_655 S
C488 H487 0.951 1_455 S
C488 C494 1.265 1_545 S
H489 C494 0.950 . S
H490 C498 0.949 . S
H491 C499 0.950 . S
H492 C500 0.951 . S
H493 C501 0.951 . S
C494 C488 1.265 1_565 S
C494 H489 0.950 . S
C494 C495 1.478 1_565 S
C495 C482 1.397 . S
C495 C494 1.478 1_545 S
C495 C496 1.397 1_545 S
C496 C495 1.397 1_565 S
C496 C497 1.438 . S
C496 C501 1.429 . S
C497 C480 1.394 1_565 S
C497 C496 1.438 . S
C497 C498 1.428 . S
C498 H490 0.949 . S
C498 C497 1.428 . S
C498 C499 1.345 . S
C499 H491 0.950 . S
C499 C498 1.345 . S
C499 C500 1.424 . S
C500 H492 0.951 . S
C500 C499 1.424 . S
C500 C501 1.347 . S
C501 H493 0.951 . S
C501 C496 1.429 . S
C501 C500 1.347 . S
H502 C503 0.951 . S
C503 H502 0.951 . S
C503 C509 1.265 . S
H504 C509 0.950 . S
H505 C513 0.949 . S
H506 C514 0.950 . S
H507 C515 0.951 . S
H508 C516 0.951 . S
C509 C503 1.265 . S
C509 H504 0.950 . S
C509 C510 1.478 . S
C510 C509 1.478 . S
C510 C511 1.397 . S
C510 C527 1.394 . S
C511 C510 1.397 . S
C511 C512 1.438 . S
C511 C516 1.429 . S
C512 C511 1.438 . S
C512 C513 1.428 . S
C512 C525 1.394 . S
C513 H505 0.949 . S
C513 C512 1.428 . S
C513 C514 1.345 . S
C514 H506 0.950 . S
C514 C513 1.345 . S
C514 C515 1.424 . S
C515 H507 0.951 . S
C515 C514 1.424 . S
C515 C516 1.347 . S
C516 H508 0.951 . S
C516 C511 1.429 . S
C516 C515 1.347 . S
H517 C518 0.951 . S
C518 H517 0.951 . S
C518 C524 1.265 . S
H519 C524 0.950 . S
H520 C528 0.949 . S
H521 C529 0.950 . S
H522 C530 0.951 . S
H523 C531 0.951 . S
C524 C518 1.265 . S
C524 H519 0.950 . S
C524 C525 1.478 . S
C525 C512 1.394 . S
C525 C524 1.478 . S
C525 C526 1.397 . S
C526 C525 1.397 . S
C526 C527 1.438 . S
C526 C531 1.429 . S
C527 C510 1.394 . S
C527 C526 1.438 . S
C527 C528 1.428 . S
C528 H520 0.949 . S
C528 C527 1.428 . S
C528 C529 1.345 . S
C529 H521 0.950 . S
C529 C528 1.345 . S
C529 C530 1.424 . S
C530 H522 0.951 . S
C530 C529 1.424 . S
C530 C531 1.347 . S
C531 H523 0.951 . S
C531 C526 1.429 . S
C531 C530 1.347 . S
H532 C533 0.951 . S
C533 H532 0.951 . S
C533 C539 1.265 . S
H534 C539 0.950 . S
H535 C543 0.949 . S
H536 C544 0.950 . S
H537 C545 0.951 . S
H538 C546 0.951 . S
C539 C533 1.265 . S
C539 H534 0.950 . S
C539 C540 1.478 . S
C540 C539 1.478 . S
C540 C541 1.397 . S
C540 C557 1.394 . S
C541 C540 1.397 . S
C541 C542 1.438 . S
C541 C546 1.429 . S
C542 C541 1.438 . S
C542 C543 1.428 . S
C542 C555 1.394 . S
C543 H535 0.949 . S
C543 C542 1.428 . S
C543 C544 1.345 . S
C544 H536 0.950 . S
C544 C543 1.345 . S
C544 C545 1.424 . S
C545 H537 0.951 . S
C545 C544 1.424 . S
C545 C546 1.347 . S
C546 H538 0.951 . S
C546 C541 1.429 . S
C546 C545 1.347 . S
H547 C548 0.951 . S
C548 H547 0.951 . S
C548 C554 1.265 . S
H549 C554 0.950 . S
H550 C558 0.949 . S
H551 C559 0.950 . S
H552 C560 0.951 . S
H553 C561 0.951 . S
C554 C548 1.265 . S
C554 H549 0.950 . S
C554 C555 1.478 . S
C555 C542 1.394 . S
C555 C554 1.478 . S
C555 C556 1.397 . S
C556 C555 1.397 . S
C556 C557 1.438 . S
C556 C561 1.429 . S
C557 C540 1.394 . S
C557 C556 1.438 . S
C557 C558 1.428 . S
C558 H550 0.949 . S
C558 C557 1.428 . S
C558 C559 1.345 . S
C559 H551 0.950 . S
C559 C558 1.345 . S
C559 C560 1.424 . S
C560 H552 0.951 . S
C560 C559 1.424 . S
C560 C561 1.347 . S
C561 H553 0.951 . S
C561 C556 1.429 . S
C561 C560 1.347 . S
C218 C179 1.429 . S
C203 C21 1.420 . S
C233 C19 1.413 1_556 S
C248 C140 1.427 . S
C263 C18 1.423 . S
C278 C184 1.396 . S
C293 C20 1.404 1_556 S
C308 C145 1.415 . S
C323 C44 1.418 . S
C338 C101 1.426 . S
C353 C42 1.454 . S
C368 C62 1.450 . S
C398 C106 1.401 . S
C383 C41 1.426 . S
C428 C67 1.411 . S
C413 C43 1.431 . S
C443 C16 1.480 . S
C458 C47 1.485 1_545 S
C473 C17 1.452 . S
C488 C86 1.446 . S
C518 C125 1.484 . S
C503 C39 1.480 . S
C533 C40 1.452 . S
C548 C164 1.446 . S
