# Generated by pormake.
# Topology nom, (4,4)-cn, num edge types: 1
# Building blocks:
#     Node 0, Type 0, BuildingBlock: KUFVIS_clean_linker_0, # of connection points: 4
#     Node 1, Type 0, BuildingBlock: KUFVIS_clean_linker_0, # of connection points: 4
#     Node 2, Type 0, BuildingBlock: KUFVIS_clean_linker_0, # of connection points: 4
#     Node 3, Type 0, BuildingBlock: KUFVIS_clean_linker_0, # of connection points: 4
#     Node 4, Type 0, BuildingBlock: KUFVIS_clean_linker_0, # of connection points: 4
#     Node 5, Type 0, BuildingBlock: KUFVIS_clean_linker_0, # of connection points: 4
#     Node 6, Type 1, BuildingBlock: CEKHIL_clean_sbu_0, # of connection points: 4
#     Node 7, Type 1, BuildingBlock: CEKHIL_clean_sbu_0, # of connection points: 4
#     Node 8, Type 1, BuildingBlock: CEKHIL_clean_sbu_0, # of connection points: 4
#     Node 9, Type 1, BuildingBlock: CEKHIL_clean_sbu_0, # of connection points: 4
#     Node 10, Type 1, BuildingBlock: CEKHIL_clean_sbu_0, # of connection points: 4
#     Node 11, Type 1, BuildingBlock: CEKHIL_clean_sbu_0, # of connection points: 4
#     Edge 12, Type (0, 1), BuildingBlock: MIFKUJ_clean_linker_0, # of connection points: 2
#     Edge 13, Type (0, 1), BuildingBlock: MIFKUJ_clean_linker_0, # of connection points: 2
#     Edge 14, Type (0, 1), BuildingBlock: MIFKUJ_clean_linker_0, # of connection points: 2
#     Edge 15, Type (0, 1), BuildingBlock: MIFKUJ_clean_linker_0, # of connection points: 2
#     Edge 16, Type (0, 1), BuildingBlock: MIFKUJ_clean_linker_0, # of connection points: 2
#     Edge 17, Type (0, 1), BuildingBlock: MIFKUJ_clean_linker_0, # of connection points: 2
#     Edge 18, Type (0, 1), BuildingBlock: MIFKUJ_clean_linker_0, # of connection points: 2
#     Edge 19, Type (0, 1), BuildingBlock: MIFKUJ_clean_linker_0, # of connection points: 2
#     Edge 20, Type (0, 1), BuildingBlock: MIFKUJ_clean_linker_0, # of connection points: 2
#     Edge 21, Type (0, 1), BuildingBlock: MIFKUJ_clean_linker_0, # of connection points: 2
#     Edge 22, Type (0, 1), BuildingBlock: MIFKUJ_clean_linker_0, # of connection points: 2
#     Edge 23, Type (0, 1), BuildingBlock: MIFKUJ_clean_linker_0, # of connection points: 2
#     Edge 24, Type (0, 1), BuildingBlock: MIFKUJ_clean_linker_0, # of connection points: 2
#     Edge 25, Type (0, 1), BuildingBlock: MIFKUJ_clean_linker_0, # of connection points: 2
#     Edge 26, Type (0, 1), BuildingBlock: MIFKUJ_clean_linker_0, # of connection points: 2
#     Edge 27, Type (0, 1), BuildingBlock: MIFKUJ_clean_linker_0, # of connection points: 2
#     Edge 28, Type (0, 1), BuildingBlock: MIFKUJ_clean_linker_0, # of connection points: 2
#     Edge 29, Type (0, 1), BuildingBlock: MIFKUJ_clean_linker_0, # of connection points: 2
#     Edge 30, Type (0, 1), BuildingBlock: MIFKUJ_clean_linker_0, # of connection points: 2
#     Edge 31, Type (0, 1), BuildingBlock: MIFKUJ_clean_linker_0, # of connection points: 2
#     Edge 32, Type (0, 1), BuildingBlock: MIFKUJ_clean_linker_0, # of connection points: 2
#     Edge 33, Type (0, 1), BuildingBlock: MIFKUJ_clean_linker_0, # of connection points: 2
#     Edge 34, Type (0, 1), BuildingBlock: MIFKUJ_clean_linker_0, # of connection points: 2
#     Edge 35, Type (0, 1), BuildingBlock: MIFKUJ_clean_linker_0, # of connection points: 2
# Relax obj value: 0.004
# Max RMSD: 0.049
# Mean RMSD: 0.042
data_MOF--net-nom--node1-CEKHIL_clean_sbu_0--node2-KUFVIS_clean_linker_0--edge1-MIFKUJ_clean_linker_0
_symmetry_space_group_name_H-M    P1
_symmetry_Int_Tables_number       1
_symmetry_cell_setting            triclinic
loop_
_symmetry_equiv_pos_as_xyz
'x, y, z'
_cell_length_a     59.845145
_cell_length_b     59.244647
_cell_length_c     59.530406
_cell_angle_alpha  90.038952
_cell_angle_beta   89.962121
_cell_angle_gamma 121.02535
loop_
_atom_site_label
_atom_site_type_symbol
_atom_site_fract_x
_atom_site_fract_y
_atom_site_fract_z
_atom_type_partial_charge
H0 H 0.10749 0.58068 0.34533 0.0
H1 H 0.04981 0.56777 0.29653 0.0
H2 H 0.02676 0.53404 0.3634 0.0
H3 H 0.98954 0.53297 0.35534 0.0
H4 H 0.93259 0.49685 0.30303 0.0
H5 H 0.01315 0.53226 0.28635 0.0
C6 C 0.08706 0.57171 0.34083 0.0
C7 C 0.06786 0.55729 0.35685 0.0
C8 C 0.08058 0.57521 0.31919 0.0
C9 C 0.05423 0.56416 0.31329 0.0
C10 C 0.034 0.54873 0.32891 0.0
C11 C 0.04135 0.5458 0.35095 0.0
C12 C 1.00561 0.53499 0.32189 0.0
C13 C 0.9852 0.52782 0.33779 0.0
C14 C 0.95881 0.51351 0.33103 0.0
C15 C 0.95285 0.50737 0.30835 0.0
C16 C 0.97232 0.51456 0.29232 0.0
C17 C 0.99856 0.52807 0.29902 0.0
H18 H 0.52583 0.10177 0.51059 0.0
H19 H 0.49816 0.04197 0.46029 0.0
H20 H 0.50624 0.0239 0.5295 0.0
H21 H 0.47484 0.98307 0.52037 0.0
H22 H 0.46567 0.92739 0.46987 0.0
H23 H 0.50243 0.0086 0.45218 0.0
C24 C 0.51837 0.08133 0.50611 0.0
C25 C 0.51574 0.06346 0.52272 0.0
C26 C 0.5126 0.07375 0.48368 0.0
C27 C 0.50336 0.04744 0.47766 0.0
C28 C 0.50045 0.02857 0.49399 0.0
C29 C 0.50733 0.03726 0.51658 0.0
C30 C 0.49061 1.00021 0.48742 0.0
C31 C 0.47825 0.9793 0.50331 0.0
C32 C 0.46999 0.95313 0.49714 0.0
C33 C 0.47309 0.94766 0.47493 0.0
C34 C 0.4841 0.96743 0.45874 0.0
C35 C 0.49318 0.99363 0.46498 0.0
H36 H 0.53572 0.44116 0.6376 0.0
H37 H 0.49608 0.46183 0.6855 0.0
H38 H 0.49811 0.48169 0.61482 0.0
H39 H 0.46307 0.48291 0.62219 0.0
H40 H 0.43627 0.51757 0.66972 0.0
H41 H 0.4894 0.4942 0.69165 0.0
C42 C 0.52453 0.45045 0.64134 0.0
C43 C 0.51677 0.46044 0.62379 0.0
C44 C 0.51767 0.45146 0.66352 0.0
C45 C 0.50226 0.46254 0.66832 0.0
C46 C 0.49497 0.47416 0.65101 0.0
C47 C 0.5029 0.47314 0.62865 0.0
C48 C 0.47884 0.48671 0.65613 0.0
C49 C 0.46376 0.48974 0.63915 0.0
C50 C 0.44858 0.50101 0.64416 0.0
C51 C 0.44791 0.50879 0.66609 0.0
C52 C 0.4619 0.50574 0.68336 0.0
C53 C 0.47795 0.49546 0.67823 0.0
H54 H 0.10606 0.5173 0.80378 0.0
H55 H 0.04845 0.48875 0.85582 0.0
H56 H 0.02775 0.4942 0.78685 0.0
H57 H 0.98862 0.46169 0.79621 0.0
H58 H 0.93291 0.45258 0.84578 0.0
H59 H 0.0133 0.48999 0.86442 0.0
C60 C 0.08592 0.50922 0.80892 0.0
C61 C 0.06735 0.50542 0.79289 0.0
C62 C 0.07931 0.50385 0.83155 0.0
C63 C 0.05318 0.49343 0.83826 0.0
C64 C 0.03359 0.48903 0.82229 0.0
C65 C 0.04143 0.49583 0.79953 0.0
C66 C 1.00538 0.47808 0.82915 0.0
C67 C 0.9848 0.46523 0.81321 0.0
C68 C 0.95886 0.45676 0.81911 0.0
C69 C 0.95307 0.45994 0.84113 0.0
C70 C 0.97243 0.47124 0.85752 0.0
C71 C 0.99856 0.48052 0.85157 0.0
H72 H 0.50502 0.92826 0.01911 0.0
H73 H 0.54154 0.9807 0.96344 0.0
H74 H 0.53519 0.01054 0.02831 0.0
H75 H 0.57288 0.04631 0.01669 0.0
H76 H 0.59095 0.0986 0.96093 0.0
H77 H 0.53894 0.01592 0.95105 0.0
C78 C 0.51484 0.94801 0.01212 0.0
C79 C 0.5197 0.96897 0.02603 0.0
C80 C 0.52269 0.95196 0.98964 0.0
C81 C 0.53503 0.9777 0.98074 0.0
C82 C 0.53995 0.99949 0.99445 0.0
C83 C 0.53206 0.99463 0.01729 0.0
C84 C 0.55379 0.02719 0.98521 0.0
C85 C 0.56997 0.04913 0.99922 0.0
C86 C 0.58346 0.07492 0.99049 0.0
C87 C 0.5807 0.07879 0.96776 0.0
C88 C 0.56501 0.05773 0.95357 0.0
C89 C 0.55134 0.03198 0.96224 0.0
H90 H 0.51454 0.5952 0.13104 0.0
H91 H 0.55106 0.57732 0.1841 0.0
H92 H 0.54182 0.5426 0.11777 0.0
H93 H 0.57527 0.5389 0.12707 0.0
H94 H 0.59807 0.50806 0.18158 0.0
H95 H 0.55285 0.54325 0.1958 0.0
C96 C 0.52404 0.5849 0.13697 0.0
C97 C 0.52814 0.56932 0.12195 0.0
C98 C 0.53193 0.58761 0.15935 0.0
C99 C 0.54417 0.57408 0.16695 0.0
C100 C 0.54833 0.55756 0.15222 0.0
C101 C 0.5396 0.55514 0.12962 0.0
C102 C 0.56208 0.54344 0.16021 0.0
C103 C 0.57478 0.5351 0.14487 0.0
C104 C 0.58697 0.52148 0.15248 0.0
C105 C 0.58798 0.51772 0.17552 0.0
C106 C 0.57626 0.52601 0.191 0.0
C107 C 0.56274 0.53814 0.18343 0.0
Co108 Co 0.64946 0.38291 0.40342 0.0
O109 O 0.67571 0.3835 0.38391 0.0
O110 O 0.6831 0.41462 0.40837 0.0
C111 C 0.63197 0.34032 0.41464 0.0
O112 O 0.62857 0.38943 0.42718 0.0
Co113 Co 0.58996 0.34507 0.39542 0.0
O114 O 0.58544 0.36127 0.42279 0.0
C115 C 0.61918 0.39296 0.3674 0.0
C116 C 0.6924 0.40566 0.3934 0.0
C117 C 0.60464 0.38033 0.43293 0.0
O118 O 0.63979 0.40119 0.37965 0.0
O119 O 0.59865 0.37023 0.36991 0.0
O120 O 0.65312 0.35895 0.42396 0.0
O121 O 0.62331 0.34756 0.39805 0.0
Co122 Co 0.28193 0.64096 0.57375 0.0
O123 O 0.30738 0.63922 0.59272 0.0
O124 O 0.28323 0.60951 0.56724 0.0
C125 C 0.30825 0.68418 0.56422 0.0
O126 O 0.25466 0.63576 0.55011 0.0
Co127 Co 0.26094 0.67834 0.58304 0.0
O128 O 0.24395 0.6668 0.55335 0.0
C129 C 0.23891 0.62797 0.60807 0.0
C130 C 0.30151 0.61759 0.58228 0.0
C131 C 0.2422 0.64694 0.54335 0.0
O132 O 0.25338 0.62145 0.5971 0.0
O133 O 0.24008 0.65001 0.60554 0.0
O134 O 0.31014 0.66591 0.55387 0.0
O135 O 0.29194 0.67609 0.58071 0.0
Co136 Co 0.64917 0.27833 0.74187 0.0
O137 O 0.64858 0.30382 0.72175 0.0
O138 O 0.61835 0.28058 0.74704 0.0
C139 C 0.69181 0.30427 0.75204 0.0
O140 O 0.64266 0.25118 0.76628 0.0
Co141 Co 0.68526 0.25543 0.73535 0.0
O142 O 0.6741 0.24117 0.76601 0.0
C143 C 0.63571 0.23293 0.70968 0.0
C144 C 0.62698 0.29855 0.73151 0.0
C145 C 0.6538 0.23939 0.77468 0.0
O146 O 0.6299 0.24888 0.71914 0.0
O147 O 0.65699 0.23332 0.71332 0.0
O148 O 0.6739 0.30723 0.76149 0.0
O149 O 0.6838 0.28724 0.73596 0.0
Co150 Co 0.38942 0.64093 0.90557 0.0
O151 O 0.3632 0.64133 0.88672 0.0
O152 O 0.35544 0.60962 0.91065 0.0
C153 C 0.40799 0.68378 0.91664 0.0
O154 O 0.4101 0.6334 0.92879 0.0
Co155 Co 0.44906 0.67761 0.89784 0.0
O156 O 0.45329 0.66186 0.92558 0.0
C157 C 0.41938 0.62863 0.871 0.0
C158 C 0.34635 0.61916 0.89607 0.0
C159 C 0.43384 0.64248 0.93512 0.0
O160 O 0.39797 0.62217 0.88144 0.0
O161 O 0.44093 0.65017 0.87446 0.0
O162 O 0.38714 0.66537 0.92654 0.0
O163 O 0.41605 0.67604 0.89992 0.0
Co164 Co 0.75813 0.38657 0.07461 0.0
O165 O 0.73272 0.38816 0.09364 0.0
O166 O 0.75686 0.41813 0.06834 0.0
C167 C 0.7318 0.34341 0.06499 0.0
O168 O 0.78553 0.39167 0.05115 0.0
Co169 Co 0.77841 0.34859 0.08429 0.0
O170 O 0.79609 0.36054 0.05481 0.0
C171 C 0.79694 0.39673 0.11183 0.0
C172 C 0.73866 0.40995 0.08351 0.0
C173 C 0.79795 0.38035 0.04461 0.0
O174 O 0.78634 0.40555 0.09827 0.0
O175 O 0.79363 0.37364 0.11016 0.0
O176 O 0.73005 0.36165 0.05443 0.0
O177 O 0.74796 0.35161 0.08152 0.0
Co178 Co 0.38966 0.75139 0.24166 0.0
O179 O 0.39164 0.72679 0.22134 0.0
O180 O 0.42067 0.74978 0.24756 0.0
C181 C 0.34693 0.72469 0.25097 0.0
O182 O 0.39471 0.77773 0.26642 0.0
Co183 Co 0.35272 0.77322 0.23418 0.0
O184 O 0.36407 0.78879 0.26445 0.0
C185 C 0.40264 0.79634 0.20905 0.0
C186 C 0.41298 0.73226 0.2317 0.0
C187 C 0.38369 0.79003 0.27402 0.0
O188 O 0.40913 0.7814 0.21939 0.0
O189 O 0.38072 0.79488 0.21184 0.0
O190 O 0.36478 0.72183 0.26063 0.0
O191 O 0.35504 0.74192 0.23508 0.0
H192 H 0.10426 0.556 0.29341 0.0
H193 H 0.14823 0.58154 0.27741 0.0
H194 H 0.15134 0.65363 0.29535 0.0
H195 H 0.1073 0.628 0.31142 0.0
H196 H 0.17753 0.65578 0.25325 0.0
H197 H 0.17139 0.62767 0.33087 0.0
H198 H 0.1541 0.59293 0.35975 0.0
H199 H 0.19104 0.55597 0.32726 0.0
H200 H 0.20758 0.58978 0.29752 0.0
H201 H 0.31353 0.74278 0.2548 0.0
H202 H 0.26719 0.71776 0.26415 0.0
H203 H 0.27067 0.64692 0.26952 0.0
H204 H 0.31768 0.67265 0.26216 0.0
H205 H 0.23971 0.64291 0.2985 0.0
H206 H 0.24435 0.66594 0.22091 0.0
H207 H 0.25831 0.69531 0.18792 0.0
H208 H 0.22343 0.7367 0.21604 0.0
H209 H 0.20953 0.70777 0.24933 0.0
C210 C 0.11389 0.57729 0.29297 0.0
C211 C 0.1023 0.59009 0.30323 0.0
C212 C 0.13909 0.59186 0.28404 0.0
C213 C 0.1532 0.61949 0.28543 0.0
C214 C 0.14079 0.63235 0.29403 0.0
C215 C 0.1156 0.61774 0.30306 0.0
C216 C 0.18171 0.63469 0.28068 0.0
C217 C 0.19122 0.65319 0.26321 0.0
C218 C 0.19946 0.63073 0.29331 0.0
C219 C 0.19053 0.61116 0.31182 0.0
C220 C 0.17571 0.61206 0.32978 0.0
C221 C 0.16603 0.59253 0.34632 0.0
C222 C 0.17155 0.57234 0.34542 0.0
C223 C 0.18677 0.57162 0.32794 0.0
C224 C 0.19623 0.59091 0.31119 0.0
C225 C 0.3044 0.7219 0.25817 0.0
C226 C 0.31913 0.70961 0.25768 0.0
C227 C 0.27775 0.70746 0.26325 0.0
C228 C 0.26486 0.68008 0.26683 0.0
C229 C 0.27984 0.66792 0.26675 0.0
C230 C 0.30675 0.68261 0.26251 0.0
C231 C 0.23596 0.6642 0.27079 0.0
C232 C 0.22624 0.64557 0.28829 0.0
C233 C 0.21794 0.66753 0.25776 0.0
C234 C 0.22611 0.68484 0.23769 0.0
C235 C 0.23978 0.68139 0.2201 0.0
C236 C 0.24767 0.69795 0.20135 0.0
C237 C 0.24182 0.71789 0.19991 0.0
C238 C 0.22798 0.72126 0.21719 0.0
C239 C 0.22007 0.70478 0.23599 0.0
H240 H 0.24796 0.7307 0.18539 0.0
H241 H 0.16402 0.55725 0.35826 0.0
H242 H 0.5497 0.09298 0.45095 0.0
H243 H 0.56815 0.13615 0.43267 0.0
H244 H 0.50776 0.1458 0.46209 0.0
H245 H 0.48945 0.10283 0.48046 0.0
H246 H 0.5269 0.16959 0.41591 0.0
H247 H 0.55824 0.16524 0.49215 0.0
H248 H 0.57494 0.14243 0.51509 0.0
H249 H 0.64055 0.16963 0.47079 0.0
H250 H 0.62387 0.19206 0.44728 0.0
H251 H 0.58029 0.30595 0.4214 0.0
H252 H 0.55872 0.25892 0.42979 0.0
H253 H 0.63339 0.26404 0.42899 0.0
H254 H 0.65503 0.31166 0.42274 0.0
H255 H 0.60828 0.23066 0.45707 0.0
H256 H 0.58464 0.23808 0.38279 0.0
H257 H 0.56822 0.25303 0.35169 0.0
H258 H 0.49279 0.21664 0.3829 0.0
H259 H 0.50886 0.20176 0.41435 0.0
C260 C 0.53969 0.10379 0.45261 0.0
C261 C 0.5181 0.09457 0.46698 0.0
C262 C 0.55032 0.1285 0.44229 0.0
C263 C 0.53945 0.1443 0.4462 0.0
C264 C 0.51638 0.13393 0.45876 0.0
C265 C 0.50591 0.10937 0.46922 0.0
C266 C 0.55436 0.17294 0.44082 0.0
C267 C 0.54459 0.18308 0.42494 0.0
C268 C 0.57795 0.19034 0.45204 0.0
C269 C 0.58977 0.18019 0.46792 0.0
C270 C 0.57634 0.16652 0.48742 0.0
C271 C 0.58567 0.15347 0.5004 0.0
C272 C 0.60863 0.15434 0.49423 0.0
C273 C 0.62267 0.16883 0.47543 0.0
C274 C 0.61331 0.18174 0.46229 0.0
C275 C 0.59205 0.29701 0.42333 0.0
C276 C 0.61927 0.31235 0.42142 0.0
C277 C 0.5797 0.26998 0.42781 0.0
C278 C 0.59416 0.25734 0.42925 0.0
C279 C 0.62156 0.27297 0.42788 0.0
C280 C 0.63399 0.30024 0.42429 0.0
C281 C 0.58074 0.22798 0.43214 0.0
C282 C 0.59071 0.21754 0.44775 0.0
C283 C 0.55784 0.21019 0.41993 0.0
C284 C 0.54803 0.21901 0.40103 0.0
C285 C 0.56459 0.23341 0.38309 0.0
C286 C 0.55535 0.24186 0.36539 0.0
C287 C 0.5295 0.23585 0.36535 0.0
C288 C 0.51282 0.22131 0.38297 0.0
C289 C 0.52198 0.21284 0.40073 0.0
H290 H 0.52237 0.24241 0.35163 0.0
H291 H 0.61562 0.14387 0.50407 0.0
H292 H 0.46563 0.53799 0.61085 0.0
H293 H 0.44005 0.5556 0.59429 0.0
H294 H 0.37055 0.49309 0.62543 0.0
H295 H 0.39595 0.47546 0.64174 0.0
H296 H 0.39021 0.53671 0.56865 0.0
H297 H 0.34755 0.52633 0.65721 0.0
H298 H 0.35803 0.52092 0.69619 0.0
H299 H 0.43959 0.56233 0.68002 0.0
H300 H 0.42971 0.5689 0.64123 0.0
H301 H 0.29094 0.56974 0.56578 0.0
H302 H 0.31579 0.54789 0.57168 0.0
H303 H 0.37036 0.61267 0.6133 0.0
H304 H 0.34514 0.63413 0.60802 0.0
H305 H 0.36089 0.56961 0.6321 0.0
H306 H 0.38358 0.60286 0.55665 0.0
H307 H 0.37483 0.60866 0.51724 0.0
H308 H 0.33721 0.52524 0.50639 0.0
H309 H 0.34545 0.5189 0.54582 0.0
C310 C 0.44466 0.52722 0.61308 0.0
C311 C 0.43271 0.50518 0.62734 0.0
C312 C 0.43007 0.5374 0.60376 0.0
C313 C 0.40342 0.52585 0.60885 0.0
C314 C 0.39106 0.50237 0.6213 0.0
C315 C 0.40555 0.49216 0.63046 0.0
C316 C 0.38952 0.54032 0.60454 0.0
C317 C 0.38373 0.54388 0.58247 0.0
C318 C 0.3815 0.55016 0.62256 0.0
C319 C 0.38783 0.54776 0.64622 0.0
C320 C 0.36773 0.53452 0.66204 0.0
C321 C 0.37358 0.53128 0.6841 0.0
C322 C 0.39944 0.5412 0.69053 0.0
C323 C 0.41956 0.55467 0.675 0.0
C324 C 0.41386 0.5582 0.65299 0.0
C325 C 0.30818 0.57928 0.57626 0.0
C326 C 0.316 0.60371 0.58643 0.0
C327 C 0.32255 0.56685 0.57949 0.0
C328 C 0.34534 0.57874 0.59266 0.0
C329 C 0.35294 0.603 0.60303 0.0
C330 C 0.33846 0.6153 0.59999 0.0
C331 C 0.36102 0.5658 0.59608 0.0
C332 C 0.36725 0.56251 0.61813 0.0
C333 C 0.3697 0.55658 0.57799 0.0
C334 C 0.36494 0.56039 0.55424 0.0
C335 C 0.3733 0.58574 0.54589 0.0
C336 C 0.36845 0.58912 0.52355 0.0
C337 C 0.35542 0.56733 0.50934 0.0
C338 C 0.34728 0.5421 0.51742 0.0
C339 C 0.35206 0.53861 0.53976 0.0
H340 H 0.35167 0.56999 0.49205 0.0
H341 H 0.40388 0.53856 0.70758 0.0
H342 H 0.92878 0.47554 0.80445 0.0
H343 H 0.88458 0.44949 0.78928 0.0
H344 H 0.89325 0.38177 0.78468 0.0
H345 H 0.93772 0.40799 0.79993 0.0
H346 H 0.86229 0.38599 0.74882 0.0
H347 H 0.86804 0.38767 0.82976 0.0
H348 H 0.88328 0.41063 0.86611 0.0
H349 H 0.84215 0.45115 0.85397 0.0
H350 H 0.8271 0.42881 0.81733 0.0
H351 H 0.72804 0.28981 0.74726 0.0
H352 H 0.77436 0.31525 0.75652 0.0
H353 H 0.76539 0.37905 0.78013 0.0
H354 H 0.71852 0.35275 0.77218 0.0
H355 H 0.79762 0.37672 0.80596 0.0
H356 H 0.79235 0.37691 0.72537 0.0
H357 H 0.77914 0.35715 0.68764 0.0
H358 H 0.82008 0.31605 0.69764 0.0
H359 H 0.83328 0.33533 0.73555 0.0
C360 C 0.92164 0.4554 0.7993 0.0
C361 C 0.93669 0.4438 0.80317 0.0
C362 C 0.89631 0.44047 0.79083 0.0
C363 C 0.88544 0.41356 0.78622 0.0
C364 C 0.90125 0.40249 0.78815 0.0
C365 C 0.92671 0.4175 0.79669 0.0
C366 C 0.8569 0.39659 0.78204 0.0
C367 C 0.84809 0.38365 0.76137 0.0
C368 C 0.8384 0.39403 0.79827 0.0
C369 C 0.8466 0.40671 0.82071 0.0
C370 C 0.86234 0.40156 0.83479 0.0
C371 C 0.87096 0.41447 0.85545 0.0
C372 C 0.86373 0.43237 0.86233 0.0
C373 C 0.84776 0.43729 0.84861 0.0
C374 C 0.83916 0.4245 0.8279 0.0
C375 C 0.73591 0.30919 0.75457 0.0
C376 C 0.71964 0.31933 0.75887 0.0
C377 C 0.76253 0.3239 0.75968 0.0
C378 C 0.77382 0.34956 0.76844 0.0
C379 C 0.75738 0.35943 0.77328 0.0
C380 C 0.73055 0.34439 0.76871 0.0
C381 C 0.80264 0.36605 0.77248 0.0
C382 C 0.81163 0.37894 0.79327 0.0
C383 C 0.8213 0.36878 0.75622 0.0
C384 C 0.8136 0.35738 0.73336 0.0
C385 C 0.79842 0.36355 0.71956 0.0
C386 C 0.79095 0.35244 0.69814 0.0
C387 C 0.79871 0.3353 0.69027 0.0
C388 C 0.81405 0.3293 0.70377 0.0
C389 C 0.82156 0.34033 0.72521 0.0
H390 H 0.79289 0.32671 0.67369 0.0
H391 H 0.87047 0.44239 0.8783 0.0
H392 H 0.4995 0.93536 0.94804 0.0
H393 H 0.48317 0.89165 0.93119 0.0
H394 H 0.51681 0.87126 0.98588 0.0
H395 H 0.53419 0.91494 0.00181 0.0
H396 H 0.51988 0.84835 0.95162 0.0
H397 H 0.45184 0.85796 0.98389 0.0
H398 H 0.42374 0.87685 0.98841 0.0
H399 H 0.39579 0.8542 0.92089 0.0
H400 H 0.42398 0.83548 0.91594 0.0
H401 H 0.39542 0.70668 0.95075 0.0
H402 H 0.41722 0.7537 0.96026 0.0
H403 H 0.4717 0.77168 0.90601 0.0
H404 H 0.45047 0.72498 0.8968 0.0
H405 H 0.42445 0.79595 0.93835 0.0
H406 H 0.53083 0.82361 0.9195 0.0
H407 H 0.55771 0.80308 0.92078 0.0
H408 H 0.50707 0.74863 0.97096 0.0
H409 H 0.48012 0.76907 0.97021 0.0
C410 C 0.50411 0.9218 0.95597 0.0
C411 C 0.51782 0.92846 0.9764 0.0
C412 C 0.49447 0.89667 0.94652 0.0
C413 C 0.49808 0.87772 0.95755 0.0
C414 C 0.51351 0.88525 0.97701 0.0
C415 C 0.52338 0.91029 0.9862 0.0
C416 C 0.48453 0.84955 0.95013 0.0
C417 C 0.49905 0.83703 0.94851 0.0
C418 C 0.45718 0.83435 0.94657 0.0
C419 C 0.44018 0.84554 0.94951 0.0
C420 C 0.43975 0.8571 0.97001 0.0
C421 C 0.42383 0.86779 0.97264 0.0
C422 C 0.40802 0.86676 0.95493 0.0
C423 C 0.40808 0.85502 0.93458 0.0
C424 C 0.42403 0.84437 0.93186 0.0
C425 C 0.41215 0.72067 0.94098 0.0
C426 C 0.4213 0.71203 0.92314 0.0
C427 C 0.42451 0.74757 0.94632 0.0
C428 C 0.4463 0.76633 0.93399 0.0
C429 C 0.45524 0.75767 0.91604 0.0
C430 C 0.44301 0.73088 0.91077 0.0
C431 C 0.45986 0.79492 0.93988 0.0
C432 C 0.44534 0.80743 0.94118 0.0
C433 C 0.48707 0.80996 0.94388 0.0
C434 C 0.5033 0.79768 0.94458 0.0
C435 C 0.52549 0.80731 0.93085 0.0
C436 C 0.54073 0.79568 0.93148 0.0
C437 C 0.53405 0.7745 0.94588 0.0
C438 C 0.51216 0.76497 0.95975 0.0
C439 C 0.49688 0.77654 0.9592 0.0
H440 H 0.54586 0.76552 0.94633 0.0
H441 H 0.39569 0.87503 0.95699 0.0
H442 H 0.6258 0.54714 0.12074 0.0
H443 H 0.65238 0.53055 0.10397 0.0
H444 H 0.60278 0.45504 0.13506 0.0
H445 H 0.576 0.47111 0.15114 0.0
H446 H 0.66008 0.48448 0.14655 0.0
H447 H 0.59843 0.45245 0.08497 0.0
H448 H 0.57441 0.45723 0.05351 0.0
H449 H 0.6467 0.51064 0.02066 0.0
H450 H 0.67118 0.50646 0.05213 0.0
H451 H 0.70004 0.3966 0.11439 0.0
H452 H 0.67564 0.41842 0.12202 0.0
H453 H 0.72047 0.47696 0.07174 0.0
H454 H 0.74485 0.45486 0.06376 0.0
H455 H 0.66979 0.46182 0.06836 0.0
H456 H 0.73178 0.49155 0.1276 0.0
H457 H 0.75681 0.48833 0.15903 0.0
H458 H 0.68614 0.44244 0.19665 0.0
H459 H 0.66061 0.44497 0.16528 0.0
C460 C 0.62004 0.52673 0.12322 0.0
C461 C 0.59887 0.51045 0.13731 0.0
C462 C 0.63534 0.51733 0.11382 0.0
C463 C 0.62972 0.49163 0.11851 0.0
C464 C 0.60759 0.47495 0.13132 0.0
C465 C 0.59222 0.48414 0.1404 0.0
C466 C 0.64803 0.48266 0.11224 0.0
C467 C 0.6621 0.47937 0.12947 0.0
C468 C 0.6513 0.4768 0.08988 0.0
C469 C 0.63664 0.47946 0.07106 0.0
C470 C 0.60922 0.46548 0.07118 0.0
C471 C 0.59551 0.468 0.05331 0.0
C472 C 0.60902 0.48431 0.03514 0.0
C473 C 0.63627 0.49807 0.03478 0.0
C474 C 0.65006 0.49562 0.05262 0.0
C475 C 0.70486 0.41419 0.10499 0.0
C476 C 0.72456 0.42404 0.08854 0.0
C477 C 0.69089 0.42673 0.10942 0.0
C478 C 0.69635 0.44961 0.09768 0.0
C479 C 0.71588 0.4594 0.08109 0.0
C480 C 0.72991 0.44682 0.07662 0.0
C481 C 0.68147 0.463 0.10281 0.0
C482 C 0.66808 0.46719 0.08542 0.0
C483 C 0.67897 0.46996 0.12507 0.0
C484 C 0.69424 0.46826 0.14397 0.0
C485 C 0.72153 0.48056 0.14248 0.0
C486 C 0.73582 0.47889 0.1603 0.0
C487 C 0.72307 0.46513 0.17979 0.0
C488 C 0.69599 0.45305 0.18152 0.0
C489 C 0.6816 0.45461 0.16373 0.0
H490 H 0.73417 0.46389 0.19358 0.0
H491 H 0.59838 0.48622 0.02131 0.0
H492 H 0.42489 0.93604 0.52132 0.0
H493 H 0.39711 0.89152 0.537 0.0
H494 H 0.45653 0.87333 0.52172 0.0
H495 H 0.48435 0.91766 0.50661 0.0
H496 H 0.40597 0.83963 0.50086 0.0
H497 H 0.445 0.87578 0.57325 0.0
H498 H 0.45653 0.90627 0.60524 0.0
H499 H 0.37548 0.87809 0.61682 0.0
H500 H 0.36348 0.84767 0.58467 0.0
H501 H 0.35258 0.70874 0.53863 0.0
H502 H 0.38 0.75581 0.53059 0.0
H503 H 0.32672 0.77068 0.5674 0.0
H504 H 0.30002 0.7238 0.5764 0.0
H505 H 0.37218 0.80722 0.57747 0.0
H506 H 0.33139 0.77177 0.50711 0.0
H507 H 0.3171 0.74259 0.47399 0.0
H508 H 0.39688 0.77065 0.45668 0.0
H509 H 0.41166 0.79975 0.48989 0.0
C510 C 0.43241 0.9229 0.52225 0.0
C511 C 0.45678 0.93031 0.51277 0.0
C512 C 0.41645 0.89739 0.53099 0.0
C513 C 0.42464 0.879 0.53025 0.0
C514 C 0.44974 0.88711 0.52233 0.0
C515 C 0.4657 0.91252 0.51387 0.0
C516 C 0.40636 0.85063 0.53536 0.0
C517 C 0.39878 0.83245 0.51766 0.0
C518 C 0.39615 0.84143 0.55706 0.0
C519 C 0.40337 0.85967 0.57639 0.0
C520 C 0.42965 0.87627 0.58247 0.0
C521 C 0.43626 0.8935 0.60067 0.0
C522 C 0.41675 0.89418 0.61301 0.0
C523 C 0.39057 0.87757 0.60722 0.0
C524 C 0.38386 0.86032 0.58902 0.0
C525 C 0.34663 0.72204 0.54487 0.0
C526 C 0.32405 0.7125 0.55806 0.0
C527 C 0.36228 0.74901 0.54018 0.0
C528 C 0.35535 0.76703 0.54803 0.0
C529 C 0.33265 0.75739 0.56111 0.0
C530 C 0.31728 0.7305 0.56616 0.0
C531 C 0.37197 0.79587 0.54297 0.0
C532 C 0.37919 0.81422 0.56061 0.0
C533 C 0.38141 0.80536 0.52104 0.0
C534 C 0.37262 0.78775 0.50113 0.0
C535 C 0.34588 0.77156 0.49635 0.0
C536 C 0.3377 0.75506 0.47754 0.0
C537 C 0.35607 0.75472 0.46328 0.0
C538 C 0.38267 0.77091 0.46777 0.0
C539 C 0.39097 0.78742 0.48657 0.0
H540 H 0.34969 0.74195 0.44871 0.0
H541 H 0.42191 0.90752 0.6271 0.0
H542 H 0.56751 0.46838 0.6751 0.0
H543 H 0.58348 0.44162 0.69178 0.0
H544 H 0.50448 0.38013 0.70581 0.0
H545 H 0.48833 0.40689 0.68867 0.0
H546 H 0.54979 0.39077 0.74012 0.0
H547 H 0.51984 0.36824 0.6631 0.0
H548 H 0.51675 0.38039 0.6241 0.0
H549 H 0.60006 0.42057 0.6177 0.0
H550 H 0.60365 0.40897 0.65685 0.0
H551 H 0.57914 0.28847 0.74601 0.0
H552 H 0.55817 0.31384 0.73831 0.0
H553 H 0.62403 0.36793 0.69774 0.0
H554 H 0.64462 0.34212 0.70479 0.0
H555 H 0.58226 0.35954 0.67779 0.0
H556 H 0.61306 0.38171 0.75376 0.0
H557 H 0.61768 0.37308 0.79349 0.0
H558 H 0.53499 0.3366 0.80285 0.0
H559 H 0.52985 0.34472 0.76307 0.0
C560 C 0.55361 0.44966 0.68267 0.0
C561 C 0.52669 0.43979 0.68075 0.0
C562 C 0.56274 0.43431 0.69207 0.0
C563 C 0.54518 0.4088 0.69986 0.0
C564 C 0.51837 0.39983 0.7 0.0
C565 C 0.50915 0.41519 0.69037 0.0
C566 C 0.55476 0.3905 0.7044 0.0
C567 C 0.55648 0.38351 0.72654 0.0
C568 C 0.56407 0.3816 0.68668 0.0
C569 C 0.56202 0.38788 0.66293 0.0
C570 C 0.53751 0.37979 0.65342 0.0
C571 C 0.53566 0.38656 0.6313 0.0
C572 C 0.55819 0.40123 0.61844 0.0
C573 C 0.58263 0.40916 0.62768 0.0
C574 C 0.58458 0.40247 0.64983 0.0
C575 C 0.58911 0.3057 0.73536 0.0
C576 C 0.61362 0.31326 0.72607 0.0
C577 C 0.57716 0.32035 0.73108 0.0
C578 C 0.58963 0.34322 0.71774 0.0
C579 C 0.61391 0.35047 0.70812 0.0
C580 C 0.62573 0.33567 0.71219 0.0
C581 C 0.57751 0.35959 0.71372 0.0
C582 C 0.57539 0.36643 0.69153 0.0
C583 C 0.56799 0.36844 0.73147 0.0
C584 C 0.57104 0.36357 0.75538 0.0
C585 C 0.59584 0.37167 0.76425 0.0
C586 C 0.59856 0.3669 0.78678 0.0
C587 C 0.57663 0.35422 0.80067 0.0
C588 C 0.55195 0.34637 0.79206 0.0
C589 C 0.54913 0.35107 0.76953 0.0
H590 H 0.57878 0.35055 0.81811 0.0
H591 H 0.55666 0.40631 0.6013 0.0
H592 H 0.10288 0.47625 0.84181 0.0
H593 H 0.1468 0.4946 0.85763 0.0
H594 H 0.15045 0.56812 0.87015 0.0
H595 H 0.10642 0.54961 0.85461 0.0
H596 H 0.19106 0.57291 0.84319 0.0
H597 H 0.15008 0.53249 0.91358 0.0
H598 H 0.12 0.49537 0.93783 0.0
H599 H 0.15934 0.45423 0.92063 0.0
H600 H 0.18945 0.49096 0.89603 0.0
H601 H 0.31894 0.64297 0.88641 0.0
H602 H 0.27213 0.62242 0.88017 0.0
H603 H 0.26299 0.54556 0.88735 0.0
H604 H 0.30968 0.56642 0.89557 0.0
H605 H 0.22398 0.54184 0.90502 0.0
H606 H 0.26237 0.57746 0.8334 0.0
H607 H 0.29131 0.61116 0.80598 0.0
H608 H 0.25618 0.65691 0.82103 0.0
H609 H 0.22723 0.62363 0.84873 0.0
C610 C 0.1126 0.49587 0.84897 0.0
C611 C 0.10103 0.5113 0.84755 0.0
C612 C 0.13779 0.50645 0.85781 0.0
C613 C 0.15201 0.53279 0.86507 0.0
C614 C 0.13988 0.54774 0.86473 0.0
C615 C 0.11459 0.53706 0.85614 0.0
C616 C 0.18034 0.54558 0.87058 0.0
C617 C 0.19829 0.56643 0.85696 0.0
C618 C 0.18983 0.53638 0.88787 0.0
C619 C 0.17188 0.5144 0.90282 0.0
C620 C 0.1522 0.51544 0.91483 0.0
C621 C 0.13517 0.49449 0.92867 0.0
C622 C 0.13772 0.47243 0.93073 0.0
C623 C 0.15737 0.47132 0.919 0.0
C624 C 0.17444 0.49222 0.90514 0.0
C625 C 0.30693 0.62168 0.88658 0.0
C626 C 0.31802 0.60629 0.89125 0.0
C627 C 0.28007 0.60984 0.88281 0.0
C628 C 0.26372 0.58222 0.88256 0.0
C629 C 0.27491 0.56685 0.88734 0.0
C630 C 0.30168 0.57876 0.89191 0.0
C631 C 0.23506 0.56945 0.87762 0.0
C632 C 0.21696 0.5485 0.89126 0.0
C633 C 0.22537 0.57809 0.85989 0.0
C634 C 0.24282 0.59818 0.8433 0.0
C635 C 0.26095 0.5948 0.83097 0.0
C636 C 0.27733 0.61381 0.81536 0.0
C637 C 0.27563 0.63619 0.81181 0.0
C638 C 0.2575 0.63959 0.82382 0.0
C639 C 0.24109 0.62065 0.83946 0.0
H640 H 0.28832 0.65088 0.79971 0.0
H641 H 0.12451 0.45622 0.94144 0.0
H642 H 0.57198 0.0914 0.02971 0.0
H643 H 0.59766 0.13521 0.04704 0.0
H644 H 0.65896 0.15594 0.99859 0.0
H645 H 0.63378 0.11232 0.98184 0.0
H646 H 0.68079 0.17922 0.03421 0.0
H647 H 0.60829 0.17224 0.99239 0.0
H648 H 0.56171 0.15291 0.98286 0.0
H649 H 0.54636 0.16867 0.04974 0.0
H650 H 0.59276 0.18776 0.05962 0.0
H651 H 0.69904 0.31999 0.02889 0.0
H652 H 0.67427 0.27289 0.01943 0.0
H653 H 0.70464 0.25575 0.07849 0.0
H654 H 0.72979 0.30253 0.08761 0.0
H655 H 0.63657 0.23049 0.03935 0.0
H656 H 0.71229 0.20398 0.06948 0.0
H657 H 0.76 0.22508 0.07336 0.0
H658 H 0.77132 0.27962 0.02081 0.0
H659 H 0.72371 0.25862 0.01641 0.0
C660 C 0.59126 0.10512 0.02326 0.0
C661 C 0.6008 0.09854 0.00433 0.0
C662 C 0.6058 0.13031 0.03293 0.0
C663 C 0.63 0.14938 0.0237 0.0
C664 C 0.6403 0.1419 0.00595 0.0
C665 C 0.62587 0.11688 0.99635 0.0
C666 C 0.64406 0.17752 0.03126 0.0
C667 C 0.671 0.1903 0.03549 0.0
C668 C 0.63164 0.19242 0.03258 0.0
C669 C 0.60381 0.18103 0.02676 0.0
C670 C 0.59486 0.17133 0.00504 0.0
C671 C 0.56855 0.16048 0.99959 0.0
C672 C 0.55107 0.15947 0.01571 0.0
C673 C 0.5599 0.1694 0.03729 0.0
C674 C 0.5862 0.18024 0.04281 0.0
C675 C 0.70049 0.30616 0.03977 0.0
C676 C 0.71657 0.31505 0.05888 0.0
C677 C 0.68623 0.27922 0.03443 0.0
C678 C 0.68777 0.26068 0.04809 0.0
C679 C 0.70345 0.26959 0.06741 0.0
C680 C 0.71781 0.29642 0.07263 0.0
C681 C 0.67323 0.23209 0.04214 0.0
C682 C 0.64626 0.21929 0.0383 0.0
C683 C 0.68576 0.21735 0.0405 0.0
C684 C 0.71444 0.2299 0.04281 0.0
C685 C 0.72497 0.22041 0.05871 0.0
C686 C 0.75199 0.23236 0.061 0.0
C687 C 0.76868 0.25373 0.0474 0.0
C688 C 0.75838 0.26313 0.0314 0.0
C689 C 0.73138 0.25123 0.02902 0.0
H690 H 0.78959 0.26297 0.04922 0.0
H691 H 0.53071 0.15107 0.01147 0.0
H692 H 0.50483 0.57585 0.19925 0.0
H693 H 0.48765 0.60135 0.21701 0.0
H694 H 0.5289 0.66333 0.16836 0.0
H695 H 0.54679 0.63856 0.15145 0.0
H696 H 0.52815 0.68527 0.20444 0.0
H697 H 0.46226 0.61098 0.16241 0.0
H698 H 0.43418 0.56389 0.15301 0.0
H699 H 0.40077 0.54838 0.21914 0.0
H700 H 0.4289 0.59536 0.22901 0.0
H701 H 0.40428 0.69826 0.19694 0.0
H702 H 0.42712 0.67479 0.18883 0.0
H703 H 0.47577 0.71018 0.24709 0.0
H704 H 0.45357 0.73432 0.25481 0.0
H705 H 0.4317 0.63895 0.20902 0.0
H706 H 0.53512 0.71718 0.23975 0.0
H707 H 0.56295 0.7655 0.24309 0.0
H708 H 0.52069 0.77532 0.1895 0.0
H709 H 0.49286 0.7271 0.18566 0.0
C710 C 0.51093 0.59534 0.19295 0.0
C711 C 0.52705 0.60515 0.1739 0.0
C712 C 0.50079 0.60977 0.20286 0.0
C713 C 0.50632 0.63408 0.19369 0.0
C714 C 0.52409 0.64467 0.17579 0.0
C715 C 0.53436 0.63046 0.16609 0.0
C716 C 0.49243 0.64779 0.2013 0.0
C717 C 0.50706 0.67502 0.20565 0.0
C718 C 0.46483 0.63479 0.20244 0.0
C719 C 0.44788 0.60659 0.19652 0.0
C720 C 0.44903 0.59749 0.17498 0.0
C721 C 0.43311 0.57083 0.16957 0.0
C722 C 0.41576 0.55314 0.18549 0.0
C723 C 0.41425 0.56209 0.20684 0.0
C724 C 0.43018 0.58873 0.21236 0.0
C725 C 0.41997 0.7012 0.20793 0.0
C726 C 0.42721 0.71838 0.22641 0.0
C727 C 0.43295 0.68762 0.20336 0.0
C728 C 0.45344 0.69077 0.21718 0.0
C729 C 0.46044 0.70769 0.23584 0.0
C730 C 0.44765 0.72148 0.24029 0.0
C731 C 0.46743 0.67645 0.212 0.0
C732 C 0.45281 0.64913 0.20814 0.0
C733 C 0.495 0.68953 0.21053 0.0
C734 C 0.51172 0.71854 0.21263 0.0
C735 C 0.53182 0.72967 0.22866 0.0
C736 C 0.54759 0.75703 0.23063 0.0
C737 C 0.54352 0.77346 0.21658 0.0
C738 C 0.52375 0.76257 0.20045 0.0
C739 C 0.50795 0.73523 0.19838 0.0
H740 H 0.55574 0.79464 0.21814 0.0
H741 H 0.40344 0.53251 0.18126 0.0
H742 H 0.94425 0.54245 0.35668 0.0
H743 H 0.90028 0.5263 0.3721 0.0
H744 H 0.87787 0.44699 0.35373 0.0
H745 H 0.92161 0.46287 0.3389 0.0
H746 H 0.84783 0.46875 0.33356 0.0
H747 H 0.8791 0.45668 0.40484 0.0
H748 H 0.90823 0.47153 0.43777 0.0
H749 H 0.88518 0.52726 0.45407 0.0
H750 H 0.85617 0.51299 0.42101 0.0
H751 H 0.71772 0.38733 0.36793 0.0
H752 H 0.76447 0.40807 0.36121 0.0
H753 H 0.77845 0.47536 0.4005 0.0
H754 H 0.73155 0.45417 0.40791 0.0
H755 H 0.81411 0.46427 0.41056 0.0
H756 H 0.78217 0.47691 0.34155 0.0
H757 H 0.75399 0.46497 0.30811 0.0
H758 H 0.77951 0.41277 0.28633 0.0
H759 H 0.80757 0.42411 0.31982 0.0
C760 C 0.93028 0.52147 0.35693 0.0
C761 C 0.93637 0.50388 0.34675 0.0
C762 C 0.9051 0.51228 0.36551 0.0
C763 C 0.88571 0.48545 0.36383 0.0
C764 C 0.89244 0.46774 0.35513 0.0
C765 C 0.91752 0.47681 0.34686 0.0
C766 C 0.8578 0.47604 0.36859 0.0
C767 C 0.84038 0.46752 0.35042 0.0
C768 C 0.84828 0.47541 0.39045 0.0
C769 C 0.86573 0.48401 0.41029 0.0
C770 C 0.88046 0.47231 0.4153 0.0
C771 C 0.8969 0.48056 0.43402 0.0
C772 C 0.89863 0.50039 0.44796 0.0
C773 C 0.88386 0.51195 0.44323 0.0
C774 C 0.86741 0.50377 0.42451 0.0
C775 C 0.73068 0.40663 0.37503 0.0
C776 C 0.7208 0.41914 0.38833 0.0
C777 C 0.75751 0.41856 0.37111 0.0
C778 C 0.77518 0.44358 0.38002 0.0
C779 C 0.76535 0.45611 0.39337 0.0
C780 C 0.73847 0.44403 0.3975 0.0
C781 C 0.80382 0.45634 0.37551 0.0
C782 C 0.82145 0.46561 0.39365 0.0
C783 C 0.81369 0.45812 0.3535 0.0
C784 C 0.79681 0.4512 0.33332 0.0
C785 C 0.78163 0.46273 0.32972 0.0
C786 C 0.76569 0.4561 0.31074 0.0
C787 C 0.76492 0.43808 0.29513 0.0
C788 C 0.78011 0.42671 0.29845 0.0
C789 C 0.79606 0.43325 0.31742 0.0
H790 H 0.75258 0.43298 0.28045 0.0
H791 H 0.91135 0.50675 0.46246 0.0
H792 H 0.0597 0.57589 0.39601 0.0
H793 H 0.08574 0.58582 0.43044 0.0
H794 H 0.12398 0.54708 0.4029 0.0
H795 H 0.09799 0.53714 0.36861 0.0
H796 H 0.11734 0.54078 0.44996 0.0
H797 H 0.15236 0.60973 0.39477 0.0
H798 H 0.14965 0.63999 0.36794 0.0
H799 H 0.13157 0.67592 0.4221 0.0
H800 H 0.13367 0.6454 0.44908 0.0
H801 H 0.23628 0.60906 0.51285 0.0
H802 H 0.20394 0.58931 0.48265 0.0
H803 H 0.17254 0.63785 0.50143 0.0
H804 H 0.20515 0.65823 0.53082 0.0
H805 H 0.17496 0.6375 0.45868 0.0
H806 H 0.14274 0.56904 0.51493 0.0
H807 H 0.14531 0.53775 0.54054 0.0
H808 H 0.15882 0.50065 0.48448 0.0
H809 H 0.15664 0.53195 0.45855 0.0
C810 C 0.07282 0.56851 0.39776 0.0
C811 C 0.07676 0.55566 0.37974 0.0
C812 C 0.08789 0.5744 0.41732 0.0
C813 C 0.10709 0.56751 0.41912 0.0
C814 C 0.1093 0.55255 0.40195 0.0
C815 C 0.09438 0.54682 0.38238 0.0
C816 C 0.12704 0.57878 0.43728 0.0
C817 C 0.13004 0.56191 0.45186 0.0
C818 C 0.14361 0.60634 0.4398 0.0
C819 C 0.14285 0.62511 0.42381 0.0
C820 C 0.14759 0.62395 0.40084 0.0
C821 C 0.14619 0.64115 0.38564 0.0
C822 C 0.14037 0.65983 0.39331 0.0
C823 C 0.13602 0.66139 0.41619 0.0
C824 C 0.13731 0.64414 0.43143 0.0
C825 C 0.22256 0.61561 0.51045 0.0
C826 C 0.22345 0.63532 0.52431 0.0
C827 C 0.20389 0.60412 0.49328 0.0
C828 C 0.18539 0.61172 0.48989 0.0
C829 C 0.1865 0.63157 0.50359 0.0
C830 C 0.20528 0.64326 0.52047 0.0
C831 C 0.16507 0.59957 0.47194 0.0
C832 C 0.16214 0.61634 0.45713 0.0
C833 C 0.14864 0.57192 0.46929 0.0
C834 C 0.14977 0.55299 0.48483 0.0
C835 C 0.14642 0.55431 0.50809 0.0
C836 C 0.14779 0.53656 0.52265 0.0
C837 C 0.15229 0.51727 0.51415 0.0
C838 C 0.15536 0.51563 0.49105 0.0
C839 C 0.15404 0.53335 0.47641 0.0
H840 H 0.15335 0.50355 0.52546 0.0
H841 H 0.13928 0.67315 0.38154 0.0
H842 H 0.49821 0.09056 0.5462 0.0
H843 H 0.51588 0.11517 0.58112 0.0
H844 H 0.56683 0.0842 0.58728 0.0
H845 H 0.54956 0.05984 0.55178 0.0
H846 H 0.52493 0.09345 0.62896 0.0
H847 H 0.6085 0.12705 0.58664 0.0
H848 H 0.63834 0.14514 0.55421 0.0
H849 H 0.61343 0.20029 0.54215 0.0
H850 H 0.58317 0.18221 0.57438 0.0
H851 H 0.62356 0.18225 0.70768 0.0
H852 H 0.59738 0.14918 0.67931 0.0
H853 H 0.58047 0.20413 0.6476 0.0
H854 H 0.60623 0.23727 0.67652 0.0
H855 H 0.60471 0.18144 0.61961 0.0
H856 H 0.53234 0.15496 0.66986 0.0
H857 H 0.51016 0.14144 0.70655 0.0
H858 H 0.51767 0.07317 0.70646 0.0
H859 H 0.54021 0.08646 0.66986 0.0
C860 C 0.5129 0.08864 0.55517 0.0
C861 C 0.52261 0.07338 0.54619 0.0
C862 C 0.52298 0.10274 0.57509 0.0
C863 C 0.54294 0.10187 0.58656 0.0
C864 C 0.55165 0.0854 0.57848 0.0
C865 C 0.54157 0.07125 0.55838 0.0
C866 C 0.55534 0.11948 0.60615 0.0
C867 C 0.54261 0.11252 0.62706 0.0
C868 C 0.57801 0.14458 0.60359 0.0
C869 C 0.59324 0.15293 0.58254 0.0
C870 C 0.6089 0.14255 0.57669 0.0
C871 C 0.62607 0.15298 0.55851 0.0
C872 C 0.62791 0.17398 0.54626 0.0
C873 C 0.61207 0.18412 0.55176 0.0
C874 C 0.59482 0.17371 0.56989 0.0
C875 C 0.61386 0.18712 0.69489 0.0
C876 C 0.617 0.21234 0.69418 0.0
C877 C 0.59883 0.16817 0.67877 0.0
C878 C 0.58699 0.17419 0.66139 0.0
C879 C 0.58939 0.1991 0.66099 0.0
C880 C 0.604 0.21795 0.67749 0.0
C881 C 0.57453 0.15542 0.64251 0.0
C882 C 0.5871 0.16231 0.62164 0.0
C883 C 0.55211 0.13011 0.64538 0.0
C884 C 0.53816 0.12183 0.66719 0.0
C885 C 0.52943 0.13716 0.67773 0.0
C886 C 0.51675 0.12951 0.6985 0.0
C887 C 0.51255 0.10648 0.70885 0.0
C888 C 0.52094 0.091 0.69841 0.0
C889 C 0.53363 0.09856 0.67764 0.0
H890 H 0.50276 0.10061 0.72495 0.0
H891 H 0.64163 0.18241 0.5325 0.0
H892 H 0.41666 0.49369 0.70426 0.0
H893 H 0.41129 0.51293 0.73855 0.0
H894 H 0.49419 0.5538 0.74995 0.0
H895 H 0.49999 0.53538 0.71477 0.0
H896 H 0.44444 0.51891 0.78905 0.0
H897 H 0.49188 0.5936 0.73921 0.0
H898 H 0.50203 0.61868 0.70391 0.0
H899 H 0.42558 0.60839 0.70361 0.0
H900 H 0.41462 0.58234 0.73849 0.0
H901 H 0.45668 0.61611 0.86833 0.0
H902 H 0.46263 0.59063 0.83915 0.0
H903 H 0.39132 0.57509 0.80736 0.0
H904 H 0.38494 0.60029 0.83708 0.0
H905 H 0.43698 0.5979 0.77887 0.0
H906 H 0.39077 0.52585 0.82982 0.0
H907 H 0.38138 0.50299 0.86627 0.0
H908 H 0.45693 0.51109 0.86586 0.0
H909 H 0.46694 0.53438 0.82954 0.0
C910 C 0.43383 0.5067 0.71406 0.0
C911 C 0.45885 0.51342 0.70652 0.0
C912 C 0.43068 0.51765 0.73365 0.0
C913 C 0.45237 0.5353 0.74639 0.0
C914 C 0.47724 0.54054 0.74004 0.0
C915 C 0.48051 0.52982 0.7201 0.0
C916 C 0.44851 0.54861 0.76582 0.0
C917 C 0.44333 0.53649 0.78697 0.0
C918 C 0.44618 0.57102 0.76286 0.0
C919 C 0.45218 0.58535 0.74117 0.0
C920 C 0.47696 0.596 0.7313 0.0
C921 C 0.48294 0.61058 0.71144 0.0
C922 C 0.46444 0.61506 0.70148 0.0
C923 C 0.4399 0.60491 0.71134 0.0
C924 C 0.43375 0.59011 0.73109 0.0
C925 C 0.44201 0.60686 0.85532 0.0
C926 C 0.42037 0.61018 0.85487 0.0
C927 C 0.44541 0.59227 0.83872 0.0
C928 C 0.42744 0.58098 0.82111 0.0
C929 C 0.40538 0.58363 0.82088 0.0
C930 C 0.40166 0.59785 0.83786 0.0
C931 C 0.43304 0.56832 0.80215 0.0
C932 C 0.43829 0.58043 0.78102 0.0
C933 C 0.43566 0.5461 0.80522 0.0
C934 C 0.42971 0.53211 0.82706 0.0
C935 C 0.40549 0.523 0.8376 0.0
C936 C 0.40003 0.50991 0.85822 0.0
C937 C 0.41857 0.50565 0.86841 0.0
C938 C 0.4426 0.51443 0.85796 0.0
C939 C 0.44817 0.52756 0.83735 0.0
H940 H 0.4143 0.49551 0.88437 0.0
H941 H 0.46912 0.62642 0.68613 0.0
H942 H 0.94736 0.49541 0.87324 0.0
H943 H 0.9209 0.4839 0.9074 0.0
H944 H 0.94908 0.43312 0.92777 0.0
H945 H 0.97562 0.4447 0.89349 0.0
H946 H 0.8953 0.40752 0.92537 0.0
H947 H 0.96461 0.48761 0.95793 0.0
H948 H 0.99629 0.53538 0.95934 0.0
H949 H 0.93374 0.55093 0.95689 0.0
H950 H 0.90168 0.50324 0.95516 0.0
H951 H 0.83103 0.36486 0.0291 0.0
H952 H 0.86292 0.38404 0.99902 0.0
H953 H 0.83917 0.44021 0.98577 0.0
H954 H 0.80741 0.42146 0.01653 0.0
H955 H 0.89054 0.46427 0.98417 0.0
H956 H 0.82146 0.38673 0.95061 0.0
H957 H 0.78811 0.33958 0.94723 0.0
H958 H 0.8478 0.31986 0.94871 0.0
H959 H 0.88151 0.36688 0.95241 0.0
C960 C 0.94875 0.48269 0.88552 0.0
C961 C 0.96381 0.47121 0.88091 0.0
C962 C 0.9335 0.47599 0.90497 0.0
C963 C 0.93293 0.45759 0.92018 0.0
C964 C 0.94923 0.44738 0.91629 0.0
C965 C 0.96467 0.45426 0.89688 0.0
C966 C 0.91328 0.44689 0.93862 0.0
C967 C 0.89458 0.41985 0.93849 0.0
C968 C 0.9115 0.46317 0.95508 0.0
C969 C 0.93076 0.49184 0.95621 0.0
C970 C 0.95762 0.50122 0.95751 0.0
C971 C 0.97564 0.52828 0.9584 0.0
C972 C 0.96704 0.54618 0.95815 0.0
C973 C 0.94038 0.53704 0.95706 0.0
C974 C 0.92227 0.51 0.95615 0.0
C975 C 0.83234 0.38118 0.01978 0.0
C976 C 0.8164 0.39146 0.02528 0.0
C977 C 0.85064 0.39213 0.00244 0.0
C978 C 0.8533 0.41338 0.9898 0.0
C979 C 0.83749 0.42379 0.99521 0.0
C980 C 0.81922 0.41294 0.01275 0.0
C981 C 0.87283 0.42474 0.9712 0.0
C982 C 0.89134 0.45188 0.97114 0.0
C983 C 0.8742 0.40865 0.95427 0.0
C984 C 0.854 0.38033 0.95201 0.0
C985 C 0.82747 0.37233 0.95039 0.0
C986 C 0.8085 0.34562 0.94839 0.0
C987 C 0.81582 0.32673 0.94782 0.0
C988 C 0.84215 0.33451 0.94918 0.0
C989 C 0.8612 0.36119 0.95121 0.0
H990 H 0.80111 0.30607 0.94627 0.0
H991 H 0.98103 0.56712 0.95884 0.0
H992 H 0.55082 0.97147 0.06009 0.0
H993 H 0.53581 0.94574 0.09491 0.0
H994 H 0.45684 0.92444 0.07964 0.0
H995 H 0.47185 0.94967 0.04461 0.0
H996 H 0.50875 0.94065 0.13323 0.0
H997 H 0.41687 0.85857 0.08905 0.0
H998 H 0.40065 0.84217 0.05087 0.0
H999 H 0.47917 0.87399 0.02749 0.0
H1000 H 0.49588 0.89019 0.06566 0.0
H1001 H 0.4096 0.84484 0.20361 0.0
H1002 H 0.4364 0.87814 0.17581 0.0
H1003 H 0.4641 0.82844 0.15113 0.0
H1004 H 0.4374 0.79489 0.17951 0.0
H1005 H 0.44343 0.84683 0.11759 0.0
H1006 H 0.50632 0.88187 0.1761 0.0
H1007 H 0.52267 0.89689 0.2145 0.0
H1008 H 0.50388 0.95751 0.20909 0.0
H1009 H 0.48703 0.94261 0.17077 0.0
C1010 C 0.53047 0.96229 0.06477 0.0
C1011 C 0.51251 0.96281 0.04993 0.0
C1012 C 0.52185 0.94739 0.08454 0.0
C1013 C 0.49512 0.93266 0.08963 0.0
C1014 C 0.4775 0.93529 0.07587 0.0
C1015 C 0.4861 0.95002 0.05604 0.0
C1016 C 0.48542 0.91245 0.10775 0.0
C1017 C 0.49445 0.92015 0.12982 0.0
C1018 C 0.46728 0.88551 0.10323 0.0
C1019 C 0.45761 0.87574 0.0802 0.0
C1020 C 0.43068 0.86196 0.07579 0.0
C1021 C 0.4214 0.85271 0.05417 0.0
C1022 C 0.43887 0.85704 0.0368 0.0
C1023 C 0.46568 0.87068 0.04099 0.0
C1024 C 0.47506 0.8799 0.06262 0.0
C1025 C 0.42165 0.84109 0.19247 0.0
C1026 C 0.4213 0.81719 0.19363 0.0
C1027 C 0.43707 0.86023 0.17666 0.0
C1028 C 0.4523 0.85584 0.16144 0.0
C1029 C 0.45252 0.83224 0.16281 0.0
C1030 C 0.43739 0.81316 0.17903 0.0
C1031 C 0.46613 0.87516 0.14313 0.0
C1032 C 0.45787 0.86729 0.12098 0.0
C1033 C 0.48503 0.90185 0.14758 0.0
C1034 C 0.49523 0.91099 0.1706 0.0
C1035 C 0.50547 0.89827 0.18316 0.0
C1036 C 0.51487 0.90679 0.2049 0.0
C1037 C 0.51427 0.92811 0.21424 0.0
C1038 C 0.50432 0.94099 0.20184 0.0
C1039 C 0.49487 0.93254 0.18008 0.0
H1040 H 0.52156 0.93468 0.23108 0.0
H1041 H 0.43154 0.84969 0.02016 0.0
H1042 H 0.54058 0.48605 0.21724 0.0
H1043 H 0.5501 0.46996 0.25172 0.0
H1044 H 0.62824 0.53766 0.25203 0.0
H1045 H 0.61871 0.55345 0.21738 0.0
H1046 H 0.62971 0.49404 0.25408 0.0
H1047 H 0.584 0.52749 0.2942 0.0
H1048 H 0.54786 0.53471 0.30286 0.0
H1049 H 0.49635 0.45163 0.31275 0.0
H1050 H 0.53208 0.44385 0.30383 0.0
H1051 H 0.65713 0.44373 0.35509 0.0
H1052 H 0.6524 0.47284 0.32855 0.0
H1053 H 0.57314 0.41139 0.31519 0.0
H1054 H 0.57755 0.38247 0.34118 0.0
H1055 H 0.57651 0.45829 0.32315 0.0
H1056 H 0.6202 0.42463 0.27811 0.0
H1057 H 0.65562 0.41661 0.26851 0.0
H1058 H 0.71042 0.49993 0.26749 0.0
H1059 H 0.67535 0.50843 0.27739 0.0
C1060 C 0.55934 0.49804 0.22531 0.0
C1061 C 0.57875 0.52123 0.215 0.0
C1062 C 0.56489 0.48878 0.24493 0.0
C1063 C 0.58995 0.50259 0.25456 0.0
C1064 C 0.6088 0.52665 0.24497 0.0
C1065 C 0.60326 0.53585 0.22536 0.0
C1066 C 0.59726 0.4905 0.27294 0.0
C1067 C 0.61841 0.48679 0.26943 0.0
C1068 C 0.58228 0.4805 0.29279 0.0
C1069 C 0.56071 0.48507 0.29818 0.0
C1070 C 0.56492 0.51073 0.29805 0.0
C1071 C 0.54451 0.51493 0.30303 0.0
C1072 C 0.51981 0.49364 0.30831 0.0
C1073 C 0.51549 0.4681 0.30865 0.0
C1074 C 0.53582 0.46379 0.30366 0.0
C1075 C 0.63878 0.43639 0.34637 0.0
C1076 C 0.61778 0.41067 0.35039 0.0
C1077 C 0.63609 0.45305 0.33123 0.0
C1078 C 0.61233 0.44433 0.31996 0.0
C1079 C 0.59156 0.41867 0.32381 0.0
C1080 C 0.59425 0.40206 0.33868 0.0
C1081 C 0.60861 0.46152 0.30406 0.0
C1082 C 0.58809 0.46607 0.308 0.0
C1083 C 0.62411 0.47224 0.28458 0.0
C1084 C 0.64523 0.46715 0.27881 0.0
C1085 C 0.63985 0.44123 0.27608 0.0
C1086 C 0.65985 0.4366 0.27052 0.0
C1087 C 0.68528 0.45775 0.26747 0.0
C1088 C 0.69074 0.48357 0.26992 0.0
C1089 C 0.6708 0.4883 0.2755 0.0
H1090 H 0.70073 0.45413 0.26315 0.0
H1091 H 0.50404 0.49693 0.31217 0.0
H1092 H 0.50822 0.94326 0.44078 0.0
H1093 H 0.4955 0.91697 0.40625 0.0
H1094 H 0.44306 0.94416 0.39 0.0
H1095 H 0.45604 0.97072 0.42446 0.0
H1096 H 0.41884 0.88944 0.39392 0.0
H1097 H 0.49317 0.95997 0.35632 0.0
H1098 H 0.53976 0.99314 0.35129 0.0
H1099 H 0.55812 0.932 0.35014 0.0
H1100 H 0.51166 0.89846 0.35548 0.0
H1101 H 0.36787 0.82177 0.2925 0.0
H1102 H 0.38883 0.85446 0.32198 0.0
H1103 H 0.44716 0.83294 0.32956 0.0
H1104 H 0.42657 0.80038 0.29936 0.0
H1105 H 0.46976 0.88491 0.33015 0.0
H1106 H 0.39812 0.81476 0.36892 0.0
H1107 H 0.35243 0.78009 0.37593 0.0
H1108 H 0.33011 0.8383 0.37766 0.0
H1109 H 0.37563 0.87331 0.37037 0.0
C1110 C 0.49489 0.94453 0.42928 0.0
C1111 C 0.48329 0.9592 0.4351 0.0
C1112 C 0.48751 0.9294 0.40963 0.0
C1113 C 0.46822 0.92849 0.3956 0.0
C1114 C 0.45799 0.94461 0.40059 0.0
C1115 C 0.46562 0.96 0.42012 0.0
C1116 C 0.4563 0.90822 0.37762 0.0
C1117 C 0.42986 0.88874 0.37973 0.0
C1118 C 0.47099 0.90657 0.35974 0.0
C1119 C 0.49894 0.92671 0.35652 0.0
C1120 C 0.50716 0.9536 0.3552 0.0
C1121 C 0.53354 0.97247 0.35225 0.0
C1122 C 0.5519 0.96469 0.35045 0.0
C1123 C 0.54389 0.93801 0.35155 0.0
C1124 C 0.51752 0.91905 0.35452 0.0
C1125 C 0.38501 0.82369 0.30049 0.0
C1126 C 0.3954 0.80822 0.29352 0.0
C1127 C 0.39699 0.84245 0.31747 0.0
C1128 C 0.41945 0.84604 0.32826 0.0
C1129 C 0.42983 0.83054 0.32152 0.0
C1130 C 0.41792 0.8118 0.30434 0.0
C1131 C 0.43213 0.86632 0.34624 0.0
C1132 C 0.4587 0.88566 0.34427 0.0
C1133 C 0.4177 0.86763 0.36456 0.0
C1134 C 0.39026 0.84663 0.36888 0.0
C1135 C 0.38343 0.82015 0.37061 0.0
C1136 C 0.35757 0.80044 0.37467 0.0
C1137 C 0.33837 0.80698 0.37718 0.0
C1138 C 0.345 0.83326 0.37568 0.0
C1139 C 0.37084 0.85305 0.37161 0.0
H1140 H 0.31836 0.79169 0.38033 0.0
H1141 H 0.57232 0.97933 0.34816 0.0
H1142 H 0.50233 0.41336 0.60529 0.0
H1143 H 0.51856 0.40461 0.57093 0.0
H1144 H 0.56076 0.48765 0.55531 0.0
H1145 H 0.54499 0.49654 0.59057 0.0
H1146 H 0.51462 0.40924 0.52913 0.0
H1147 H 0.61746 0.50236 0.52697 0.0
H1148 H 0.64958 0.53585 0.55299 0.0
H1149 H 0.6178 0.48049 0.60741 0.0
H1150 H 0.58579 0.44669 0.58165 0.0
H1151 H 0.57028 0.39683 0.43052 0.0
H1152 H 0.55746 0.41642 0.46012 0.0
H1153 H 0.61124 0.41218 0.50574 0.0
H1154 H 0.62546 0.3942 0.47536 0.0
H1155 H 0.60991 0.45369 0.51574 0.0
H1156 H 0.54283 0.36371 0.50353 0.0
H1157 H 0.51099 0.32511 0.48151 0.0
H1158 H 0.47133 0.36551 0.46298 0.0
H1159 H 0.50314 0.40447 0.48468 0.0
C1160 C 0.51471 0.42973 0.59433 0.0
C1161 C 0.52242 0.45562 0.60057 0.0
C1162 C 0.52402 0.42472 0.57465 0.0
C1163 C 0.54123 0.44545 0.56056 0.0
C1164 C 0.54786 0.47133 0.56608 0.0
C1165 C 0.53857 0.47639 0.58602 0.0
C1166 C 0.55252 0.43948 0.54065 0.0
C1167 C 0.53546 0.41917 0.52614 0.0
C1168 C 0.57975 0.45194 0.53689 0.0
C1169 C 0.59901 0.47213 0.55246 0.0
C1170 C 0.61737 0.49737 0.54449 0.0
C1171 C 0.63556 0.5164 0.55918 0.0
C1172 C 0.63566 0.51035 0.58186 0.0
C1173 C 0.61764 0.48522 0.58987 0.0
C1174 C 0.59945 0.46613 0.57524 0.0
C1175 C 0.57953 0.40032 0.44683 0.0
C1176 C 0.59856 0.39367 0.45081 0.0
C1177 C 0.57212 0.41143 0.46379 0.0
C1178 C 0.58271 0.41507 0.48548 0.0
C1179 C 0.60259 0.40944 0.48924 0.0
C1180 C 0.61064 0.39906 0.47195 0.0
C1181 C 0.57195 0.42329 0.50436 0.0
C1182 C 0.58906 0.44401 0.5186 0.0
C1183 C 0.54475 0.41052 0.50848 0.0
C1184 C 0.5255 0.38707 0.49554 0.0
C1185 C 0.5274 0.3644 0.49465 0.0
C1186 C 0.50936 0.34246 0.48224 0.0
C1187 C 0.48919 0.34289 0.4708 0.0
C1188 C 0.48698 0.36522 0.47181 0.0
C1189 C 0.505 0.38723 0.48418 0.0
H1190 H 0.47525 0.32588 0.4612 0.0
H1191 H 0.64975 0.52511 0.5932 0.0
H1192 H 0.08191 0.55194 0.77252 0.0
H1193 H 0.10783 0.5689 0.73799 0.0
H1194 H 0.1015 0.49378 0.72729 0.0
H1195 H 0.07567 0.47694 0.76187 0.0
H1196 H 0.15541 0.57369 0.73219 0.0
H1197 H 0.10687 0.48698 0.66959 0.0
H1198 H 0.06306 0.44989 0.66003 0.0
H1199 H 0.0286 0.49286 0.6855 0.0
H1200 H 0.0722 0.53033 0.69493 0.0
H1201 H 0.24335 0.59754 0.6407 0.0
H1202 H 0.21098 0.57177 0.67006 0.0
H1203 H 0.15697 0.59053 0.64002 0.0
H1204 H 0.18921 0.61659 0.61126 0.0
H1205 H 0.13305 0.53733 0.65492 0.0
H1206 H 0.19114 0.62672 0.68061 0.0
H1207 H 0.23403 0.66542 0.68984 0.0
H1208 H 0.24741 0.61966 0.73793 0.0
H1209 H 0.20473 0.58054 0.72869 0.0
C1210 C 0.08527 0.53883 0.76229 0.0
C1211 C 0.07638 0.51301 0.76948 0.0
C1212 C 0.10033 0.54859 0.74276 0.0
C1213 C 0.10666 0.53264 0.73004 0.0
C1214 C 0.09665 0.50638 0.73666 0.0
C1215 C 0.08176 0.4967 0.75629 0.0
C1216 C 0.1254 0.5441 0.711 0.0
C1217 C 0.15048 0.56564 0.71532 0.0
C1218 C 0.11911 0.53363 0.68897 0.0
C1219 C 0.0928 0.51133 0.68319 0.0
C1220 C 0.08995 0.48854 0.67309 0.0
C1221 C 0.06515 0.46745 0.6677 0.0
C1222 C 0.04306 0.46898 0.67223 0.0
C1223 C 0.04572 0.49165 0.68209 0.0
C1224 C 0.07047 0.5128 0.6875 0.0
C1225 C 0.22438 0.59568 0.6402 0.0
C1226 C 0.21879 0.60913 0.62383 0.0
C1227 C 0.20597 0.58108 0.65697 0.0
C1228 C 0.18159 0.57932 0.65725 0.0
C1229 C 0.17557 0.59153 0.64012 0.0
C1230 C 0.19406 0.60651 0.62375 0.0
C1231 C 0.163 0.56674 0.67621 0.0
C1232 C 0.138 0.54506 0.67188 0.0
C1233 C 0.16926 0.57717 0.69823 0.0
C1234 C 0.19492 0.60063 0.70374 0.0
C1235 C 0.20335 0.62484 0.69298 0.0
C1236 C 0.22759 0.64686 0.69824 0.0
C1237 C 0.24348 0.64498 0.7144 0.0
C1238 C 0.23512 0.62107 0.72537 0.0
C1239 C 0.21091 0.59897 0.72012 0.0
H1240 H 0.26223 0.66206 0.71847 0.0
H1241 H 0.02388 0.45263 0.66805 0.0
H1242 H 0.60229 0.06879 0.9228 0.0
H1243 H 0.61062 0.09566 0.88915 0.0
H1244 H 0.53662 0.09056 0.89759 0.0
H1245 H 0.52843 0.06387 0.93166 0.0
H1246 H 0.55707 0.09325 0.84863 0.0
H1247 H 0.57673 0.13732 0.91983 0.0
H1248 H 0.59447 0.14775 0.95814 0.0
H1249 H 0.67143 0.17532 0.93256 0.0
H1250 H 0.65389 0.16404 0.89399 0.0
H1251 H 0.6031 0.21601 0.78949 0.0
H1252 H 0.5817 0.18123 0.8179 0.0
H1253 H 0.65464 0.18538 0.83074 0.0
H1254 H 0.67607 0.21996 0.80258 0.0
H1255 H 0.62918 0.18271 0.86936 0.0
H1256 H 0.60875 0.13752 0.79786 0.0
H1257 H 0.59063 0.12765 0.7595 0.0
H1258 H 0.5147 0.10384 0.78557 0.0
H1259 H 0.53247 0.11396 0.8241 0.0
C1260 C 0.58721 0.07224 0.91679 0.0
C1261 C 0.56457 0.06399 0.92958 0.0
C1262 C 0.59206 0.08775 0.89767 0.0
C1263 C 0.57433 0.09526 0.89098 0.0
C1264 C 0.55045 0.08482 0.90238 0.0
C1265 C 0.54569 0.06944 0.92174 0.0
C1266 C 0.58302 0.11749 0.87496 0.0
C1267 C 0.57252 0.11291 0.85321 0.0
C1268 C 0.6033 0.14311 0.88091 0.0
C1269 C 0.61394 0.14955 0.90406 0.0
C1270 C 0.59737 0.14524 0.92238 0.0
C1271 C 0.60742 0.15143 0.94415 0.0
C1272 C 0.6341 0.16236 0.9478 0.0
C1273 C 0.65076 0.16687 0.92969 0.0
C1274 C 0.64076 0.16052 0.90787 0.0
C1275 C 0.61465 0.20978 0.79861 0.0
C1276 C 0.64132 0.22078 0.79372 0.0
C1277 C 0.60233 0.18972 0.81468 0.0
C1278 C 0.61649 0.18044 0.82624 0.0
C1279 C 0.64328 0.19211 0.82198 0.0
C1280 C 0.65551 0.21192 0.80585 0.0
C1281 C 0.60372 0.15852 0.84276 0.0
C1282 C 0.61351 0.16316 0.86473 0.0
C1283 C 0.58274 0.13311 0.83695 0.0
C1284 C 0.572 0.12679 0.81383 0.0
C1285 C 0.58824 0.13039 0.7954 0.0
C1286 C 0.57802 0.12471 0.77363 0.0
C1287 C 0.55155 0.1152 0.77009 0.0
C1288 C 0.53521 0.11126 0.78833 0.0
C1289 C 0.54534 0.11695 0.81014 0.0
H1290 H 0.54368 0.11082 0.75322 0.0
H1291 H 0.6419 0.1675 0.96463 0.0
H1292 H 0.4909 0.52867 0.09628 0.0
H1293 H 0.47315 0.533 0.06025 0.0
H1294 H 0.53032 0.61625 0.0597 0.0
H1295 H 0.54836 0.61167 0.09482 0.0
H1296 H 0.44964 0.55847 0.05147 0.0
H1297 H 0.5451 0.64255 0.0099 0.0
H1298 H 0.59096 0.65474 0.00547 0.0
H1299 H 0.56921 0.57416 0.0155 0.0
H1300 H 0.52317 0.5614 0.01968 0.0
H1301 H 0.42172 0.6369 0.97998 0.0
H1302 H 0.43576 0.61696 0.00863 0.0
H1303 H 0.47169 0.59494 0.95695 0.0
H1304 H 0.4591 0.61634 0.92879 0.0
H1305 H 0.50337 0.6132 0.98757 0.0
H1306 H 0.41337 0.5489 0.98785 0.0
H1307 H 0.36597 0.53094 0.98959 0.0
H1308 H 0.37375 0.56131 0.05647 0.0
H1309 H 0.42127 0.57978 0.05503 0.0
C1310 C 0.50021 0.54759 0.08789 0.0
C1311 C 0.5212 0.56977 0.0981 0.0
C1312 C 0.48987 0.55017 0.0675 0.0
C1313 C 0.50045 0.57495 0.05704 0.0
C1314 C 0.52209 0.5968 0.06696 0.0
C1315 C 0.53244 0.59419 0.08709 0.0
C1316 C 0.48805 0.57886 0.03681 0.0
C1317 C 0.46132 0.5702 0.03737 0.0
C1318 C 0.50301 0.59355 0.01803 0.0
C1319 C 0.53067 0.60105 0.01523 0.0
C1320 C 0.55006 0.62739 0.01102 0.0
C1321 C 0.57611 0.63441 0.00859 0.0
C1322 C 0.583 0.61525 0.01024 0.0
C1323 C 0.56386 0.589 0.01428 0.0
C1324 C 0.53778 0.58187 0.01671 0.0
C1325 C 0.43237 0.62751 0.97487 0.0
C1326 C 0.43941 0.62811 0.9523 0.0
C1327 C 0.44027 0.61594 0.99118 0.0
C1328 C 0.45467 0.60409 0.98508 0.0
C1329 C 0.46081 0.60401 0.96228 0.0
C1330 C 0.45352 0.61613 0.94615 0.0
C1331 C 0.46501 0.59351 0.00244 0.0
C1332 C 0.49145 0.60105 0.0014 0.0
C1333 C 0.44952 0.57694 0.02028 0.0
C1334 C 0.42094 0.5659 0.02125 0.0
C1335 C 0.40501 0.55192 0.00287 0.0
C1336 C 0.37811 0.54162 0.00381 0.0
C1337 C 0.36686 0.54503 0.02311 0.0
C1338 C 0.38249 0.5587 0.04153 0.0
C1339 C 0.40941 0.56906 0.04067 0.0
H1340 H 0.34603 0.53704 0.0238 0.0
H1341 H 0.60318 0.62073 0.00837 0.0
H1342 H 0.94506 0.46527 0.27536 0.0
H1343 H 0.92143 0.45187 0.2398 0.0
H1344 H 0.95539 0.53346 0.22101 0.0
H1345 H 0.97901 0.54689 0.25701 0.0
H1346 H 0.90318 0.50712 0.21633 0.0
H1347 H 0.97063 0.49327 0.19158 0.0
H1348 H 1.00165 0.47769 0.19348 0.0
H1349 H 0.938 0.39763 0.19731 0.0
H1350 H 0.90658 0.41272 0.19576 0.0
H1351 H 0.82661 0.45113 0.11345 0.0
H1352 H 0.86197 0.47795 0.14017 0.0
H1353 H 0.84409 0.40764 0.17657 0.0
H1354 H 0.80924 0.38106 0.15025 0.0
H1355 H 0.89533 0.43666 0.16601 0.0
H1356 H 0.82894 0.45153 0.1974 0.0
H1357 H 0.79756 0.46671 0.19582 0.0
H1358 H 0.8595 0.54478 0.1792 0.0
H1359 H 0.8912 0.52996 0.18039 0.0
C1360 C 0.94819 0.48029 0.26327 0.0
C1361 C 0.96411 0.50706 0.2687 0.0
C1362 C 0.93463 0.47266 0.24296 0.0
C1363 C 0.9367 0.49164 0.22758 0.0
C1364 C 0.95355 0.51847 0.23255 0.0
C1365 C 0.96727 0.52613 0.25295 0.0
C1366 C 0.91934 0.48311 0.20752 0.0
C1367 C 0.9019 0.49218 0.20496 0.0
C1368 C 0.9174 0.4634 0.1928 0.0
C1369 C 0.93623 0.45417 0.19364 0.0
C1370 C 0.96324 0.47235 0.19297 0.0
C1371 C 0.9809 0.4636 0.19397 0.0
C1372 C 0.97181 0.43669 0.19554 0.0
C1373 C 0.94502 0.41847 0.19608 0.0
C1374 C 0.92728 0.42711 0.1951 0.0
C1375 C 0.82993 0.44153 0.12743 0.0
C1376 C 0.81526 0.41393 0.12958 0.0
C1377 C 0.8502 0.45684 0.14262 0.0
C1378 C 0.8559 0.44475 0.16023 0.0
C1379 C 0.84035 0.41739 0.16295 0.0
C1380 C 0.82032 0.40221 0.14789 0.0
C1381 C 0.87856 0.45987 0.17548 0.0
C1382 C 0.89703 0.45204 0.17706 0.0
C1383 C 0.8814 0.48065 0.18927 0.0
C1384 C 0.86237 0.48956 0.18869 0.0
C1385 C 0.83583 0.47188 0.19321 0.0
C1386 C 0.81799 0.48043 0.19243 0.0
C1387 C 0.82651 0.50667 0.18733 0.0
C1388 C 0.85291 0.52444 0.18309 0.0
C1389 C 0.87082 0.51599 0.18383 0.0
H1390 H 0.81267 0.51324 0.18671 0.0
H1391 H 0.98551 0.42996 0.19631 0.0
loop_
_geom_bond_atom_site_label_1
_geom_bond_atom_site_label_2
_geom_bond_distance
_geom_bond_site_symmetry_2
_ccdc_geom_bond_type
H0 C6 0.930 . S
H1 C9 0.931 . S
H2 C11 0.931 . S
H3 C13 0.930 . S
H4 C15 0.930 . S
H5 C17 0.931 1_455 S
C6 H0 0.930 . S
C6 C7 1.380 . S
C6 C8 1.394 . S
C7 C6 1.380 . S
C7 C11 1.382 . S
C8 C6 1.394 . S
C8 C9 1.400 . S
C9 H1 0.931 . S
C9 C8 1.400 . S
C9 C10 1.375 . S
C10 C9 1.375 . S
C10 C11 1.415 . S
C10 C12 1.501 1_455 S
C11 H2 0.931 . S
C11 C7 1.382 . S
C11 C10 1.415 . S
C12 C10 1.501 1_655 S
C12 C13 1.384 . S
C12 C17 1.408 . S
C13 H3 0.930 . S
C13 C12 1.384 . S
C13 C14 1.389 . S
C14 C13 1.389 . S
C14 C15 1.405 . S
C15 H4 0.930 . S
C15 C14 1.405 . S
C15 C16 1.364 . S
C16 C15 1.364 . S
C16 C17 1.400 . S
C17 H5 0.931 1_655 S
C17 C12 1.408 . S
C17 C16 1.400 . S
H18 C24 0.930 . S
H19 C27 0.931 . S
H20 C29 0.931 . S
H21 C31 0.930 . S
H22 C33 0.930 . S
H23 C35 0.931 1_545 S
C24 H18 0.930 . S
C24 C25 1.380 . S
C24 C26 1.394 . S
C25 C24 1.380 . S
C25 C29 1.382 . S
C26 C24 1.394 . S
C26 C27 1.400 . S
C27 H19 0.931 . S
C27 C26 1.400 . S
C27 C28 1.375 . S
C28 C27 1.375 . S
C28 C29 1.415 . S
C28 C30 1.501 1_545 S
C29 H20 0.931 . S
C29 C25 1.382 . S
C29 C28 1.415 . S
C30 C28 1.501 1_565 S
C30 C31 1.384 . S
C30 C35 1.408 . S
C31 H21 0.930 . S
C31 C30 1.384 . S
C31 C32 1.389 . S
C32 C31 1.389 . S
C32 C33 1.405 . S
C33 H22 0.930 . S
C33 C32 1.405 . S
C33 C34 1.364 . S
C34 C33 1.364 . S
C34 C35 1.400 . S
C35 H23 0.931 1_565 S
C35 C30 1.408 . S
C35 C34 1.400 . S
H36 C42 0.930 . S
H37 C45 0.931 . S
H38 C47 0.931 . S
H39 C49 0.930 . S
H40 C51 0.930 . S
H41 C53 0.931 . S
C42 H36 0.930 . S
C42 C43 1.380 . S
C42 C44 1.394 . S
C43 C42 1.380 . S
C43 C47 1.382 . S
C44 C42 1.394 . S
C44 C45 1.400 . S
C45 H37 0.931 . S
C45 C44 1.400 . S
C45 C46 1.375 . S
C46 C45 1.375 . S
C46 C47 1.415 . S
C46 C48 1.501 . S
C47 H38 0.931 . S
C47 C43 1.382 . S
C47 C46 1.415 . S
C48 C46 1.501 . S
C48 C49 1.384 . S
C48 C53 1.408 . S
C49 H39 0.930 . S
C49 C48 1.384 . S
C49 C50 1.389 . S
C50 C49 1.389 . S
C50 C51 1.405 . S
C51 H40 0.930 . S
C51 C50 1.405 . S
C51 C52 1.364 . S
C52 C51 1.364 . S
C52 C53 1.400 . S
C53 H41 0.931 . S
C53 C48 1.408 . S
C53 C52 1.400 . S
H54 C60 0.930 . S
H55 C63 0.931 . S
H56 C65 0.931 . S
H57 C67 0.930 . S
H58 C69 0.930 . S
H59 C71 0.931 1_455 S
C60 H54 0.930 . S
C60 C61 1.380 . S
C60 C62 1.394 . S
C61 C60 1.380 . S
C61 C65 1.382 . S
C62 C60 1.394 . S
C62 C63 1.400 . S
C63 H55 0.931 . S
C63 C62 1.400 . S
C63 C64 1.375 . S
C64 C63 1.375 . S
C64 C65 1.415 . S
C64 C66 1.501 1_455 S
C65 H56 0.931 . S
C65 C61 1.382 . S
C65 C64 1.415 . S
C66 C64 1.501 1_655 S
C66 C67 1.384 . S
C66 C71 1.408 . S
C67 H57 0.930 . S
C67 C66 1.384 . S
C67 C68 1.389 . S
C68 C67 1.389 . S
C68 C69 1.405 . S
C69 H58 0.930 . S
C69 C68 1.405 . S
C69 C70 1.364 . S
C70 C69 1.364 . S
C70 C71 1.400 . S
C71 H59 0.931 1_655 S
C71 C66 1.408 . S
C71 C70 1.400 . S
H72 C78 0.930 . S
H73 C81 0.931 . S
H74 C83 0.931 . S
H75 C85 0.930 . S
H76 C87 0.930 . S
H77 C89 0.931 . S
C78 H72 0.930 . S
C78 C79 1.380 . S
C78 C80 1.394 1_554 S
C79 C78 1.380 . S
C79 C83 1.382 . S
C80 C78 1.394 1_556 S
C80 C81 1.400 . S
C81 H73 0.931 . S
C81 C80 1.400 . S
C81 C82 1.375 . S
C82 C81 1.375 . S
C82 C83 1.415 1_556 S
C82 C84 1.501 1_565 S
C83 H74 0.931 . S
C83 C79 1.382 . S
C83 C82 1.415 1_554 S
C84 C82 1.501 1_545 S
C84 C85 1.384 1_556 S
C84 C89 1.408 . S
C85 H75 0.930 . S
C85 C84 1.384 1_554 S
C85 C86 1.389 1_554 S
C86 C85 1.389 1_556 S
C86 C87 1.405 . S
C87 H76 0.930 . S
C87 C86 1.405 . S
C87 C88 1.364 . S
C88 C87 1.364 . S
C88 C89 1.400 . S
C89 H77 0.931 . S
C89 C84 1.408 . S
C89 C88 1.400 . S
H90 C96 0.930 . S
H91 C99 0.931 . S
H92 C101 0.931 . S
H93 C103 0.930 . S
H94 C105 0.930 . S
H95 C107 0.931 . S
C96 H90 0.930 . S
C96 C97 1.380 . S
C96 C98 1.394 . S
C97 C96 1.380 . S
C97 C101 1.382 . S
C98 C96 1.394 . S
C98 C99 1.400 . S
C99 H91 0.931 . S
C99 C98 1.400 . S
C99 C100 1.375 . S
C100 C99 1.375 . S
C100 C101 1.415 . S
C100 C102 1.501 . S
C101 H92 0.931 . S
C101 C97 1.382 . S
C101 C100 1.415 . S
C102 C100 1.501 . S
C102 C103 1.384 . S
C102 C107 1.408 . S
C103 H93 0.930 . S
C103 C102 1.384 . S
C103 C104 1.389 . S
C104 C103 1.389 . S
C104 C105 1.405 . S
C105 H94 0.930 . S
C105 C104 1.405 . S
C105 C106 1.364 . S
C106 C105 1.364 . S
C106 C107 1.400 . S
C107 H95 0.931 . S
C107 C102 1.408 . S
C107 C106 1.400 . S
Co108 O109 2.216 . S
Co108 O110 2.091 . S
Co108 O112 2.004 . S
Co108 O118 2.021 . S
Co108 O120 2.137 . S
Co108 O121 2.244 . S
O109 Co108 2.216 . S
O109 C116 1.247 . S
O110 Co108 2.091 . S
O110 C116 1.261 . S
C111 O120 1.247 . S
C111 O121 1.272 . S
O112 Co108 2.004 . S
O112 C117 1.259 . S
Co113 O114 2.061 . S
Co113 O119 2.052 . S
Co113 O121 2.135 . S
O114 Co113 2.061 . S
O114 C117 1.235 . S
C115 O118 1.238 . S
C115 O119 1.241 . S
C116 O109 1.247 . S
C116 O110 1.261 . S
C117 O112 1.259 . S
C117 O114 1.235 . S
O118 Co108 2.021 . S
O118 C115 1.238 . S
O119 Co113 2.052 . S
O119 C115 1.241 . S
O120 Co108 2.137 . S
O120 C111 1.247 . S
O121 Co108 2.244 . S
O121 C111 1.272 . S
O121 Co113 2.135 . S
Co122 O123 2.216 . S
Co122 O124 2.091 . S
Co122 O126 2.004 . S
Co122 O132 2.021 . S
Co122 O134 2.137 . S
Co122 O135 2.244 . S
O123 Co122 2.216 . S
O123 C130 1.247 . S
O124 Co122 2.091 . S
O124 C130 1.261 . S
C125 O134 1.247 . S
C125 O135 1.272 . S
O126 Co122 2.004 . S
O126 C131 1.259 . S
Co127 O128 2.061 . S
Co127 O133 2.052 . S
Co127 O135 2.135 . S
O128 Co127 2.061 . S
O128 C131 1.235 . S
C129 O132 1.238 . S
C129 O133 1.241 . S
C130 O123 1.247 . S
C130 O124 1.261 . S
C131 O126 1.259 . S
C131 O128 1.235 . S
O132 Co122 2.021 . S
O132 C129 1.238 . S
O133 Co127 2.052 . S
O133 C129 1.241 . S
O134 Co122 2.137 . S
O134 C125 1.247 . S
O135 Co122 2.244 . S
O135 C125 1.272 . S
O135 Co127 2.135 . S
Co136 O137 2.216 . S
Co136 O138 2.091 . S
Co136 O140 2.004 . S
Co136 O146 2.021 . S
Co136 O148 2.137 . S
Co136 O149 2.244 . S
O137 Co136 2.216 . S
O137 C144 1.247 . S
O138 Co136 2.091 . S
O138 C144 1.261 . S
C139 O148 1.247 . S
C139 O149 1.272 . S
O140 Co136 2.004 . S
O140 C145 1.259 . S
Co141 O142 2.061 . S
Co141 O147 2.052 . S
Co141 O149 2.135 . S
O142 Co141 2.061 . S
O142 C145 1.235 . S
C143 O146 1.238 . S
C143 O147 1.241 . S
C144 O137 1.247 . S
C144 O138 1.261 . S
C145 O140 1.259 . S
C145 O142 1.235 . S
O146 Co136 2.021 . S
O146 C143 1.238 . S
O147 Co141 2.052 . S
O147 C143 1.241 . S
O148 Co136 2.137 . S
O148 C139 1.247 . S
O149 Co136 2.244 . S
O149 C139 1.272 . S
O149 Co141 2.135 . S
Co150 O151 2.216 . S
Co150 O152 2.091 . S
Co150 O154 2.004 . S
Co150 O160 2.021 . S
Co150 O162 2.137 . S
Co150 O163 2.244 . S
O151 Co150 2.216 . S
O151 C158 1.247 . S
O152 Co150 2.091 . S
O152 C158 1.261 . S
C153 O162 1.247 . S
C153 O163 1.272 . S
O154 Co150 2.004 . S
O154 C159 1.259 . S
Co155 O156 2.061 . S
Co155 O161 2.052 . S
Co155 O163 2.135 . S
O156 Co155 2.061 . S
O156 C159 1.235 . S
C157 O160 1.238 . S
C157 O161 1.241 . S
C158 O151 1.247 . S
C158 O152 1.261 . S
C159 O154 1.259 . S
C159 O156 1.235 . S
O160 Co150 2.021 . S
O160 C157 1.238 . S
O161 Co155 2.052 . S
O161 C157 1.241 . S
O162 Co150 2.137 . S
O162 C153 1.247 . S
O163 Co150 2.244 . S
O163 C153 1.272 . S
O163 Co155 2.135 . S
Co164 O165 2.216 . S
Co164 O166 2.091 . S
Co164 O168 2.004 . S
Co164 O174 2.021 . S
Co164 O176 2.137 . S
Co164 O177 2.244 . S
O165 Co164 2.216 . S
O165 C172 1.247 . S
O166 Co164 2.091 . S
O166 C172 1.261 . S
C167 O176 1.247 . S
C167 O177 1.272 . S
O168 Co164 2.004 . S
O168 C173 1.259 . S
Co169 O170 2.061 . S
Co169 O175 2.052 . S
Co169 O177 2.135 . S
O170 Co169 2.061 . S
O170 C173 1.235 . S
C171 O174 1.238 . S
C171 O175 1.241 . S
C172 O165 1.247 . S
C172 O166 1.261 . S
C173 O168 1.259 . S
C173 O170 1.235 . S
O174 Co164 2.021 . S
O174 C171 1.238 . S
O175 Co169 2.052 . S
O175 C171 1.241 . S
O176 Co164 2.137 . S
O176 C167 1.247 . S
O177 Co164 2.244 . S
O177 C167 1.272 . S
O177 Co169 2.135 . S
Co178 O179 2.216 . S
Co178 O180 2.091 . S
Co178 O182 2.004 . S
Co178 O188 2.021 . S
Co178 O190 2.137 . S
Co178 O191 2.244 . S
O179 Co178 2.216 . S
O179 C186 1.247 . S
O180 Co178 2.091 . S
O180 C186 1.261 . S
C181 O190 1.247 . S
C181 O191 1.272 . S
O182 Co178 2.004 . S
O182 C187 1.259 . S
Co183 O184 2.061 . S
Co183 O189 2.052 . S
Co183 O191 2.135 . S
O184 Co183 2.061 . S
O184 C187 1.235 . S
C185 O188 1.238 . S
C185 O189 1.241 . S
C186 O179 1.247 . S
C186 O180 1.261 . S
C187 O182 1.259 . S
C187 O184 1.235 . S
O188 Co178 2.021 . S
O188 C185 1.238 . S
O189 Co183 2.052 . S
O189 C185 1.241 . S
O190 Co178 2.137 . S
O190 C181 1.247 . S
O191 Co178 2.244 . S
O191 C181 1.272 . S
O191 Co183 2.135 . S
H192 C210 0.951 . S
H193 C212 0.951 . S
H194 C214 0.950 . S
H195 C215 0.950 . S
H196 C217 0.950 . S
H197 C220 0.950 . S
H198 C221 0.950 . S
H199 C223 0.950 . S
H200 C224 0.950 . S
H201 C225 0.951 . S
H202 C227 0.951 . S
H203 C229 0.950 . S
H204 C230 0.950 . S
H205 C232 0.950 . S
H206 C235 0.950 . S
H207 C236 0.950 . S
H208 C238 0.950 . S
H209 C239 0.950 . S
C210 H192 0.951 . S
C210 C211 1.366 . S
C210 C212 1.388 . S
C211 C210 1.366 . S
C211 C215 1.385 . S
C212 H193 0.951 . S
C212 C210 1.388 . S
C212 C213 1.366 . S
C213 C212 1.366 . S
C213 C214 1.414 . S
C213 C216 1.499 . S
C214 H194 0.950 . S
C214 C213 1.414 . S
C214 C215 1.374 . S
C215 H195 0.950 . S
C215 C211 1.385 . S
C215 C214 1.374 . S
C216 C213 1.499 . S
C216 C217 1.373 . S
C216 C218 1.389 . S
C217 H196 0.950 . S
C217 C216 1.373 . S
C217 C233 1.377 . S
C218 C216 1.389 . S
C218 C219 1.524 . S
C218 C232 1.377 . S
C219 C218 1.524 . S
C219 C220 1.397 . S
C219 C224 1.363 . S
C220 H197 0.950 . S
C220 C219 1.397 . S
C220 C221 1.334 . S
C221 H198 0.950 . S
C221 C220 1.334 . S
C221 C222 1.287 . S
C222 C221 1.287 . S
C222 C223 1.524 . S
C222 H241 0.913 . S
C223 H199 0.950 . S
C223 C222 1.524 . S
C223 C224 1.415 . S
C224 H200 0.950 . S
C224 C219 1.363 . S
C224 C223 1.415 . S
C225 H201 0.951 . S
C225 C226 1.366 . S
C225 C227 1.388 . S
C226 C225 1.366 . S
C226 C230 1.385 . S
C227 H202 0.951 . S
C227 C225 1.388 . S
C227 C228 1.366 . S
C228 C227 1.366 . S
C228 C229 1.414 . S
C228 C231 1.499 . S
C229 H203 0.950 . S
C229 C228 1.414 . S
C229 C230 1.374 . S
C230 H204 0.950 . S
C230 C226 1.385 . S
C230 C229 1.374 . S
C231 C228 1.499 . S
C231 C232 1.373 . S
C231 C233 1.389 . S
C232 H205 0.950 . S
C232 C218 1.377 . S
C232 C231 1.373 . S
C233 C217 1.377 . S
C233 C231 1.389 . S
C233 C234 1.524 . S
C234 C233 1.524 . S
C234 C235 1.397 . S
C234 C239 1.363 . S
C235 H206 0.950 . S
C235 C234 1.397 . S
C235 C236 1.334 . S
C236 H207 0.950 . S
C236 C235 1.334 . S
C236 C237 1.287 . S
C237 C236 1.287 . S
C237 C238 1.524 . S
C237 H240 0.999 . S
C238 H208 0.950 . S
C238 C237 1.524 . S
C238 C239 1.415 . S
C239 H209 0.950 . S
C239 C234 1.363 . S
C239 C238 1.415 . S
H240 C237 0.999 . S
H241 C222 0.913 . S
H242 C260 0.951 . S
H243 C262 0.951 . S
H244 C264 0.950 . S
H245 C265 0.950 . S
H246 C267 0.950 . S
H247 C270 0.950 . S
H248 C271 0.950 . S
H249 C273 0.950 . S
H250 C274 0.950 . S
H251 C275 0.951 . S
H252 C277 0.951 . S
H253 C279 0.950 . S
H254 C280 0.950 . S
H255 C282 0.950 . S
H256 C285 0.950 . S
H257 C286 0.950 . S
H258 C288 0.950 . S
H259 C289 0.950 . S
C260 H242 0.951 . S
C260 C261 1.366 . S
C260 C262 1.388 . S
C261 C260 1.366 . S
C261 C265 1.385 . S
C262 H243 0.951 . S
C262 C260 1.388 . S
C262 C263 1.366 . S
C263 C262 1.366 . S
C263 C264 1.414 . S
C263 C266 1.499 . S
C264 H244 0.950 . S
C264 C263 1.414 . S
C264 C265 1.374 . S
C265 H245 0.950 . S
C265 C261 1.385 . S
C265 C264 1.374 . S
C266 C263 1.499 . S
C266 C267 1.373 . S
C266 C268 1.389 . S
C267 H246 0.950 . S
C267 C266 1.373 . S
C267 C283 1.377 . S
C268 C266 1.389 . S
C268 C269 1.524 . S
C268 C282 1.377 . S
C269 C268 1.524 . S
C269 C270 1.397 . S
C269 C274 1.363 . S
C270 H247 0.950 . S
C270 C269 1.397 . S
C270 C271 1.334 . S
C271 H248 0.950 . S
C271 C270 1.334 . S
C271 C272 1.287 . S
C272 C271 1.287 . S
C272 C273 1.524 . S
C272 H291 0.913 . S
C273 H249 0.950 . S
C273 C272 1.524 . S
C273 C274 1.415 . S
C274 H250 0.950 . S
C274 C269 1.363 . S
C274 C273 1.415 . S
C275 H251 0.951 . S
C275 C276 1.366 . S
C275 C277 1.388 . S
C276 C275 1.366 . S
C276 C280 1.385 . S
C277 H252 0.951 . S
C277 C275 1.388 . S
C277 C278 1.366 . S
C278 C277 1.366 . S
C278 C279 1.414 . S
C278 C281 1.499 . S
C279 H253 0.950 . S
C279 C278 1.414 . S
C279 C280 1.374 . S
C280 H254 0.950 . S
C280 C276 1.385 . S
C280 C279 1.374 . S
C281 C278 1.499 . S
C281 C282 1.373 . S
C281 C283 1.389 . S
C282 H255 0.950 . S
C282 C268 1.377 . S
C282 C281 1.373 . S
C283 C267 1.377 . S
C283 C281 1.389 . S
C283 C284 1.524 . S
C284 C283 1.524 . S
C284 C285 1.397 . S
C284 C289 1.363 . S
C285 H256 0.950 . S
C285 C284 1.397 . S
C285 C286 1.334 . S
C286 H257 0.950 . S
C286 C285 1.334 . S
C286 C287 1.287 . S
C287 C286 1.287 . S
C287 C288 1.524 . S
C287 H290 0.999 . S
C288 H258 0.950 . S
C288 C287 1.524 . S
C288 C289 1.415 . S
C289 H259 0.950 . S
C289 C284 1.363 . S
C289 C288 1.415 . S
H290 C287 0.999 . S
H291 C272 0.913 . S
H292 C310 0.951 . S
H293 C312 0.951 . S
H294 C314 0.950 . S
H295 C315 0.950 . S
H296 C317 0.950 . S
H297 C320 0.950 . S
H298 C321 0.950 . S
H299 C323 0.950 . S
H300 C324 0.950 . S
H301 C325 0.951 . S
H302 C327 0.951 . S
H303 C329 0.950 . S
H304 C330 0.950 . S
H305 C332 0.950 . S
H306 C335 0.950 . S
H307 C336 0.950 . S
H308 C338 0.950 . S
H309 C339 0.950 . S
C310 H292 0.951 . S
C310 C311 1.366 . S
C310 C312 1.388 . S
C311 C310 1.366 . S
C311 C315 1.385 . S
C312 H293 0.951 . S
C312 C310 1.388 . S
C312 C313 1.366 . S
C313 C312 1.366 . S
C313 C314 1.414 . S
C313 C316 1.499 . S
C314 H294 0.950 . S
C314 C313 1.414 . S
C314 C315 1.374 . S
C315 H295 0.950 . S
C315 C311 1.385 . S
C315 C314 1.374 . S
C316 C313 1.499 . S
C316 C317 1.373 . S
C316 C318 1.389 . S
C317 H296 0.950 . S
C317 C316 1.373 . S
C317 C333 1.377 . S
C318 C316 1.389 . S
C318 C319 1.524 . S
C318 C332 1.377 . S
C319 C318 1.524 . S
C319 C320 1.397 . S
C319 C324 1.363 . S
C320 H297 0.950 . S
C320 C319 1.397 . S
C320 C321 1.334 . S
C321 H298 0.950 . S
C321 C320 1.334 . S
C321 C322 1.287 . S
C322 C321 1.287 . S
C322 C323 1.524 . S
C322 H341 0.913 . S
C323 H299 0.950 . S
C323 C322 1.524 . S
C323 C324 1.415 . S
C324 H300 0.950 . S
C324 C319 1.363 . S
C324 C323 1.415 . S
C325 H301 0.951 . S
C325 C326 1.366 . S
C325 C327 1.388 . S
C326 C325 1.366 . S
C326 C330 1.385 . S
C327 H302 0.951 . S
C327 C325 1.388 . S
C327 C328 1.366 . S
C328 C327 1.366 . S
C328 C329 1.414 . S
C328 C331 1.499 . S
C329 H303 0.950 . S
C329 C328 1.414 . S
C329 C330 1.374 . S
C330 H304 0.950 . S
C330 C326 1.385 . S
C330 C329 1.374 . S
C331 C328 1.499 . S
C331 C332 1.373 . S
C331 C333 1.389 . S
C332 H305 0.950 . S
C332 C318 1.377 . S
C332 C331 1.373 . S
C333 C317 1.377 . S
C333 C331 1.389 . S
C333 C334 1.524 . S
C334 C333 1.524 . S
C334 C335 1.397 . S
C334 C339 1.363 . S
C335 H306 0.950 . S
C335 C334 1.397 . S
C335 C336 1.334 . S
C336 H307 0.950 . S
C336 C335 1.334 . S
C336 C337 1.287 . S
C337 C336 1.287 . S
C337 C338 1.524 . S
C337 H340 0.999 . S
C338 H308 0.950 . S
C338 C337 1.524 . S
C338 C339 1.415 . S
C339 H309 0.950 . S
C339 C334 1.363 . S
C339 C338 1.415 . S
H340 C337 0.999 . S
H341 C322 0.913 . S
H342 C360 0.951 . S
H343 C362 0.951 . S
H344 C364 0.950 . S
H345 C365 0.950 . S
H346 C367 0.950 . S
H347 C370 0.950 . S
H348 C371 0.950 . S
H349 C373 0.950 . S
H350 C374 0.950 . S
H351 C375 0.951 . S
H352 C377 0.951 . S
H353 C379 0.950 . S
H354 C380 0.950 . S
H355 C382 0.950 . S
H356 C385 0.950 . S
H357 C386 0.950 . S
H358 C388 0.950 . S
H359 C389 0.950 . S
C360 H342 0.951 . S
C360 C361 1.366 . S
C360 C362 1.388 . S
C361 C360 1.366 . S
C361 C365 1.385 . S
C362 H343 0.951 . S
C362 C360 1.388 . S
C362 C363 1.366 . S
C363 C362 1.366 . S
C363 C364 1.414 . S
C363 C366 1.499 . S
C364 H344 0.950 . S
C364 C363 1.414 . S
C364 C365 1.374 . S
C365 H345 0.950 . S
C365 C361 1.385 . S
C365 C364 1.374 . S
C366 C363 1.499 . S
C366 C367 1.373 . S
C366 C368 1.389 . S
C367 H346 0.950 . S
C367 C366 1.373 . S
C367 C383 1.377 . S
C368 C366 1.389 . S
C368 C369 1.524 . S
C368 C382 1.377 . S
C369 C368 1.524 . S
C369 C370 1.397 . S
C369 C374 1.363 . S
C370 H347 0.950 . S
C370 C369 1.397 . S
C370 C371 1.334 . S
C371 H348 0.950 . S
C371 C370 1.334 . S
C371 C372 1.287 . S
C372 C371 1.287 . S
C372 C373 1.524 . S
C372 H391 0.913 . S
C373 H349 0.950 . S
C373 C372 1.524 . S
C373 C374 1.415 . S
C374 H350 0.950 . S
C374 C369 1.363 . S
C374 C373 1.415 . S
C375 H351 0.951 . S
C375 C376 1.366 . S
C375 C377 1.388 . S
C376 C375 1.366 . S
C376 C380 1.385 . S
C377 H352 0.951 . S
C377 C375 1.388 . S
C377 C378 1.366 . S
C378 C377 1.366 . S
C378 C379 1.414 . S
C378 C381 1.499 . S
C379 H353 0.950 . S
C379 C378 1.414 . S
C379 C380 1.374 . S
C380 H354 0.950 . S
C380 C376 1.385 . S
C380 C379 1.374 . S
C381 C378 1.499 . S
C381 C382 1.373 . S
C381 C383 1.389 . S
C382 H355 0.950 . S
C382 C368 1.377 . S
C382 C381 1.373 . S
C383 C367 1.377 . S
C383 C381 1.389 . S
C383 C384 1.524 . S
C384 C383 1.524 . S
C384 C385 1.397 . S
C384 C389 1.363 . S
C385 H356 0.950 . S
C385 C384 1.397 . S
C385 C386 1.334 . S
C386 H357 0.950 . S
C386 C385 1.334 . S
C386 C387 1.287 . S
C387 C386 1.287 . S
C387 C388 1.524 . S
C387 H390 0.999 . S
C388 H358 0.950 . S
C388 C387 1.524 . S
C388 C389 1.415 . S
C389 H359 0.950 . S
C389 C384 1.363 . S
C389 C388 1.415 . S
H390 C387 0.999 . S
H391 C372 0.913 . S
H392 C410 0.951 . S
H393 C412 0.951 . S
H394 C414 0.950 . S
H395 C415 0.950 1_554 S
H396 C417 0.950 . S
H397 C420 0.950 . S
H398 C421 0.950 . S
H399 C423 0.950 . S
H400 C424 0.950 . S
H401 C425 0.951 . S
H402 C427 0.951 . S
H403 C429 0.950 . S
H404 C430 0.950 . S
H405 C432 0.950 . S
H406 C435 0.950 . S
H407 C436 0.950 . S
H408 C438 0.950 . S
H409 C439 0.950 1_554 S
C410 H392 0.951 . S
C410 C411 1.366 . S
C410 C412 1.388 . S
C411 C410 1.366 . S
C411 C415 1.385 . S
C412 H393 0.951 . S
C412 C410 1.388 . S
C412 C413 1.366 . S
C413 C412 1.366 . S
C413 C414 1.414 . S
C413 C416 1.499 . S
C414 H394 0.950 . S
C414 C413 1.414 . S
C414 C415 1.374 . S
C415 H395 0.950 1_556 S
C415 C411 1.385 . S
C415 C414 1.374 . S
C416 C413 1.499 . S
C416 C417 1.373 . S
C416 C418 1.389 . S
C417 H396 0.950 . S
C417 C416 1.373 . S
C417 C433 1.377 . S
C418 C416 1.389 . S
C418 C419 1.524 . S
C418 C432 1.377 . S
C419 C418 1.524 . S
C419 C420 1.397 . S
C419 C424 1.363 . S
C420 H397 0.950 . S
C420 C419 1.397 . S
C420 C421 1.334 . S
C421 H398 0.950 . S
C421 C420 1.334 . S
C421 C422 1.287 . S
C422 C421 1.287 . S
C422 C423 1.524 . S
C422 H441 0.913 . S
C423 H399 0.950 . S
C423 C422 1.524 . S
C423 C424 1.415 . S
C424 H400 0.950 . S
C424 C419 1.363 . S
C424 C423 1.415 . S
C425 H401 0.951 . S
C425 C426 1.366 . S
C425 C427 1.388 . S
C426 C425 1.366 . S
C426 C430 1.385 . S
C427 H402 0.951 . S
C427 C425 1.388 . S
C427 C428 1.366 . S
C428 C427 1.366 . S
C428 C429 1.414 . S
C428 C431 1.499 . S
C429 H403 0.950 . S
C429 C428 1.414 . S
C429 C430 1.374 . S
C430 H404 0.950 . S
C430 C426 1.385 . S
C430 C429 1.374 . S
C431 C428 1.499 . S
C431 C432 1.373 . S
C431 C433 1.389 . S
C432 H405 0.950 . S
C432 C418 1.377 . S
C432 C431 1.373 . S
C433 C417 1.377 . S
C433 C431 1.389 . S
C433 C434 1.524 . S
C434 C433 1.524 . S
C434 C435 1.397 . S
C434 C439 1.363 . S
C435 H406 0.950 . S
C435 C434 1.397 . S
C435 C436 1.334 . S
C436 H407 0.950 . S
C436 C435 1.334 . S
C436 C437 1.287 . S
C437 C436 1.287 . S
C437 C438 1.524 1_556 S
C437 H440 0.999 . S
C438 H408 0.950 . S
C438 C437 1.524 1_554 S
C438 C439 1.415 1_554 S
C439 H409 0.950 1_556 S
C439 C434 1.363 . S
C439 C438 1.415 1_556 S
H440 C437 0.999 . S
H441 C422 0.913 . S
H442 C460 0.951 . S
H443 C462 0.951 . S
H444 C464 0.950 . S
H445 C465 0.950 . S
H446 C467 0.950 . S
H447 C470 0.950 . S
H448 C471 0.950 . S
H449 C473 0.950 . S
H450 C474 0.950 . S
H451 C475 0.951 . S
H452 C477 0.951 . S
H453 C479 0.950 . S
H454 C480 0.950 . S
H455 C482 0.950 . S
H456 C485 0.950 . S
H457 C486 0.950 . S
H458 C488 0.950 . S
H459 C489 0.950 . S
C460 H442 0.951 . S
C460 C461 1.366 . S
C460 C462 1.388 . S
C461 C460 1.366 . S
C461 C465 1.385 . S
C462 H443 0.951 . S
C462 C460 1.388 . S
C462 C463 1.366 . S
C463 C462 1.366 . S
C463 C464 1.414 . S
C463 C466 1.499 . S
C464 H444 0.950 . S
C464 C463 1.414 . S
C464 C465 1.374 . S
C465 H445 0.950 . S
C465 C461 1.385 . S
C465 C464 1.374 . S
C466 C463 1.499 . S
C466 C467 1.373 . S
C466 C468 1.389 . S
C467 H446 0.950 . S
C467 C466 1.373 . S
C467 C483 1.377 . S
C468 C466 1.389 . S
C468 C469 1.524 . S
C468 C482 1.377 . S
C469 C468 1.524 . S
C469 C470 1.397 . S
C469 C474 1.363 . S
C470 H447 0.950 . S
C470 C469 1.397 . S
C470 C471 1.334 . S
C471 H448 0.950 . S
C471 C470 1.334 . S
C471 C472 1.287 . S
C472 C471 1.287 . S
C472 C473 1.524 . S
C472 H491 0.913 . S
C473 H449 0.950 . S
C473 C472 1.524 . S
C473 C474 1.415 . S
C474 H450 0.950 . S
C474 C469 1.363 . S
C474 C473 1.415 . S
C475 H451 0.951 . S
C475 C476 1.366 . S
C475 C477 1.388 . S
C476 C475 1.366 . S
C476 C480 1.385 . S
C477 H452 0.951 . S
C477 C475 1.388 . S
C477 C478 1.366 . S
C478 C477 1.366 . S
C478 C479 1.414 . S
C478 C481 1.499 . S
C479 H453 0.950 . S
C479 C478 1.414 . S
C479 C480 1.374 . S
C480 H454 0.950 . S
C480 C476 1.385 . S
C480 C479 1.374 . S
C481 C478 1.499 . S
C481 C482 1.373 . S
C481 C483 1.389 . S
C482 H455 0.950 . S
C482 C468 1.377 . S
C482 C481 1.373 . S
C483 C467 1.377 . S
C483 C481 1.389 . S
C483 C484 1.524 . S
C484 C483 1.524 . S
C484 C485 1.397 . S
C484 C489 1.363 . S
C485 H456 0.950 . S
C485 C484 1.397 . S
C485 C486 1.334 . S
C486 H457 0.950 . S
C486 C485 1.334 . S
C486 C487 1.287 . S
C487 C486 1.287 . S
C487 C488 1.524 . S
C487 H490 0.999 . S
C488 H458 0.950 . S
C488 C487 1.524 . S
C488 C489 1.415 . S
C489 H459 0.950 . S
C489 C484 1.363 . S
C489 C488 1.415 . S
H490 C487 0.999 . S
H491 C472 0.913 . S
H492 C510 0.951 . S
H493 C512 0.951 . S
H494 C514 0.950 . S
H495 C515 0.950 . S
H496 C517 0.950 . S
H497 C520 0.950 . S
H498 C521 0.950 . S
H499 C523 0.950 . S
H500 C524 0.950 . S
H501 C525 0.951 . S
H502 C527 0.951 . S
H503 C529 0.950 . S
H504 C530 0.950 . S
H505 C532 0.950 . S
H506 C535 0.950 . S
H507 C536 0.950 . S
H508 C538 0.950 . S
H509 C539 0.950 . S
C510 H492 0.951 . S
C510 C511 1.366 . S
C510 C512 1.388 . S
C511 C510 1.366 . S
C511 C515 1.385 . S
C512 H493 0.951 . S
C512 C510 1.388 . S
C512 C513 1.366 . S
C513 C512 1.366 . S
C513 C514 1.414 . S
C513 C516 1.499 . S
C514 H494 0.950 . S
C514 C513 1.414 . S
C514 C515 1.374 . S
C515 H495 0.950 . S
C515 C511 1.385 . S
C515 C514 1.374 . S
C516 C513 1.499 . S
C516 C517 1.373 . S
C516 C518 1.389 . S
C517 H496 0.950 . S
C517 C516 1.373 . S
C517 C533 1.377 . S
C518 C516 1.389 . S
C518 C519 1.524 . S
C518 C532 1.377 . S
C519 C518 1.524 . S
C519 C520 1.397 . S
C519 C524 1.363 . S
C520 H497 0.950 . S
C520 C519 1.397 . S
C520 C521 1.334 . S
C521 H498 0.950 . S
C521 C520 1.334 . S
C521 C522 1.287 . S
C522 C521 1.287 . S
C522 C523 1.524 . S
C522 H541 0.913 . S
C523 H499 0.950 . S
C523 C522 1.524 . S
C523 C524 1.415 . S
C524 H500 0.950 . S
C524 C519 1.363 . S
C524 C523 1.415 . S
C525 H501 0.951 . S
C525 C526 1.366 . S
C525 C527 1.388 . S
C526 C525 1.366 . S
C526 C530 1.385 . S
C527 H502 0.951 . S
C527 C525 1.388 . S
C527 C528 1.366 . S
C528 C527 1.366 . S
C528 C529 1.414 . S
C528 C531 1.499 . S
C529 H503 0.950 . S
C529 C528 1.414 . S
C529 C530 1.374 . S
C530 H504 0.950 . S
C530 C526 1.385 . S
C530 C529 1.374 . S
C531 C528 1.499 . S
C531 C532 1.373 . S
C531 C533 1.389 . S
C532 H505 0.950 . S
C532 C518 1.377 . S
C532 C531 1.373 . S
C533 C517 1.377 . S
C533 C531 1.389 . S
C533 C534 1.524 . S
C534 C533 1.524 . S
C534 C535 1.397 . S
C534 C539 1.363 . S
C535 H506 0.950 . S
C535 C534 1.397 . S
C535 C536 1.334 . S
C536 H507 0.950 . S
C536 C535 1.334 . S
C536 C537 1.287 . S
C537 C536 1.287 . S
C537 C538 1.524 . S
C537 H540 0.999 . S
C538 H508 0.950 . S
C538 C537 1.524 . S
C538 C539 1.415 . S
C539 H509 0.950 . S
C539 C534 1.363 . S
C539 C538 1.415 . S
H540 C537 0.999 . S
H541 C522 0.913 . S
H542 C560 0.951 . S
H543 C562 0.951 . S
H544 C564 0.950 . S
H545 C565 0.950 . S
H546 C567 0.950 . S
H547 C570 0.950 . S
H548 C571 0.950 . S
H549 C573 0.950 . S
H550 C574 0.950 . S
H551 C575 0.951 . S
H552 C577 0.951 . S
H553 C579 0.950 . S
H554 C580 0.950 . S
H555 C582 0.950 . S
H556 C585 0.950 . S
H557 C586 0.950 . S
H558 C588 0.950 . S
H559 C589 0.950 . S
C560 H542 0.951 . S
C560 C561 1.366 . S
C560 C562 1.388 . S
C561 C560 1.366 . S
C561 C565 1.385 . S
C562 H543 0.951 . S
C562 C560 1.388 . S
C562 C563 1.366 . S
C563 C562 1.366 . S
C563 C564 1.414 . S
C563 C566 1.499 . S
C564 H544 0.950 . S
C564 C563 1.414 . S
C564 C565 1.374 . S
C565 H545 0.950 . S
C565 C561 1.385 . S
C565 C564 1.374 . S
C566 C563 1.499 . S
C566 C567 1.373 . S
C566 C568 1.389 . S
C567 H546 0.950 . S
C567 C566 1.373 . S
C567 C583 1.377 . S
C568 C566 1.389 . S
C568 C569 1.524 . S
C568 C582 1.377 . S
C569 C568 1.524 . S
C569 C570 1.397 . S
C569 C574 1.363 . S
C570 H547 0.950 . S
C570 C569 1.397 . S
C570 C571 1.334 . S
C571 H548 0.950 . S
C571 C570 1.334 . S
C571 C572 1.287 . S
C572 C571 1.287 . S
C572 C573 1.524 . S
C572 H591 0.913 . S
C573 H549 0.950 . S
C573 C572 1.524 . S
C573 C574 1.415 . S
C574 H550 0.950 . S
C574 C569 1.363 . S
C574 C573 1.415 . S
C575 H551 0.951 . S
C575 C576 1.366 . S
C575 C577 1.388 . S
C576 C575 1.366 . S
C576 C580 1.385 . S
C577 H552 0.951 . S
C577 C575 1.388 . S
C577 C578 1.366 . S
C578 C577 1.366 . S
C578 C579 1.414 . S
C578 C581 1.499 . S
C579 H553 0.950 . S
C579 C578 1.414 . S
C579 C580 1.374 . S
C580 H554 0.950 . S
C580 C576 1.385 . S
C580 C579 1.374 . S
C581 C578 1.499 . S
C581 C582 1.373 . S
C581 C583 1.389 . S
C582 H555 0.950 . S
C582 C568 1.377 . S
C582 C581 1.373 . S
C583 C567 1.377 . S
C583 C581 1.389 . S
C583 C584 1.524 . S
C584 C583 1.524 . S
C584 C585 1.397 . S
C584 C589 1.363 . S
C585 H556 0.950 . S
C585 C584 1.397 . S
C585 C586 1.334 . S
C586 H557 0.950 . S
C586 C585 1.334 . S
C586 C587 1.287 . S
C587 C586 1.287 . S
C587 C588 1.524 . S
C587 H590 0.999 . S
C588 H558 0.950 . S
C588 C587 1.524 . S
C588 C589 1.415 . S
C589 H559 0.950 . S
C589 C584 1.363 . S
C589 C588 1.415 . S
H590 C587 0.999 . S
H591 C572 0.913 . S
H592 C610 0.951 . S
H593 C612 0.951 . S
H594 C614 0.950 . S
H595 C615 0.950 . S
H596 C617 0.950 . S
H597 C620 0.950 . S
H598 C621 0.950 . S
H599 C623 0.950 . S
H600 C624 0.950 . S
H601 C625 0.951 . S
H602 C627 0.951 . S
H603 C629 0.950 . S
H604 C630 0.950 . S
H605 C632 0.950 . S
H606 C635 0.950 . S
H607 C636 0.950 . S
H608 C638 0.950 . S
H609 C639 0.950 . S
C610 H592 0.951 . S
C610 C611 1.366 . S
C610 C612 1.388 . S
C611 C610 1.366 . S
C611 C615 1.385 . S
C612 H593 0.951 . S
C612 C610 1.388 . S
C612 C613 1.366 . S
C613 C612 1.366 . S
C613 C614 1.414 . S
C613 C616 1.499 . S
C614 H594 0.950 . S
C614 C613 1.414 . S
C614 C615 1.374 . S
C615 H595 0.950 . S
C615 C611 1.385 . S
C615 C614 1.374 . S
C616 C613 1.499 . S
C616 C617 1.373 . S
C616 C618 1.389 . S
C617 H596 0.950 . S
C617 C616 1.373 . S
C617 C633 1.377 . S
C618 C616 1.389 . S
C618 C619 1.524 . S
C618 C632 1.377 . S
C619 C618 1.524 . S
C619 C620 1.397 . S
C619 C624 1.363 . S
C620 H597 0.950 . S
C620 C619 1.397 . S
C620 C621 1.334 . S
C621 H598 0.950 . S
C621 C620 1.334 . S
C621 C622 1.287 . S
C622 C621 1.287 . S
C622 C623 1.524 . S
C622 H641 0.913 . S
C623 H599 0.950 . S
C623 C622 1.524 . S
C623 C624 1.415 . S
C624 H600 0.950 . S
C624 C619 1.363 . S
C624 C623 1.415 . S
C625 H601 0.951 . S
C625 C626 1.366 . S
C625 C627 1.388 . S
C626 C625 1.366 . S
C626 C630 1.385 . S
C627 H602 0.951 . S
C627 C625 1.388 . S
C627 C628 1.366 . S
C628 C627 1.366 . S
C628 C629 1.414 . S
C628 C631 1.499 . S
C629 H603 0.950 . S
C629 C628 1.414 . S
C629 C630 1.374 . S
C630 H604 0.950 . S
C630 C626 1.385 . S
C630 C629 1.374 . S
C631 C628 1.499 . S
C631 C632 1.373 . S
C631 C633 1.389 . S
C632 H605 0.950 . S
C632 C618 1.377 . S
C632 C631 1.373 . S
C633 C617 1.377 . S
C633 C631 1.389 . S
C633 C634 1.524 . S
C634 C633 1.524 . S
C634 C635 1.397 . S
C634 C639 1.363 . S
C635 H606 0.950 . S
C635 C634 1.397 . S
C635 C636 1.334 . S
C636 H607 0.950 . S
C636 C635 1.334 . S
C636 C637 1.287 . S
C637 C636 1.287 . S
C637 C638 1.524 . S
C637 H640 0.999 . S
C638 H608 0.950 . S
C638 C637 1.524 . S
C638 C639 1.415 . S
C639 H609 0.950 . S
C639 C634 1.363 . S
C639 C638 1.415 . S
H640 C637 0.999 . S
H641 C622 0.913 . S
H642 C660 0.951 . S
H643 C662 0.951 . S
H644 C664 0.950 1_556 S
H645 C665 0.950 . S
H646 C667 0.950 . S
H647 C670 0.967 . S
H648 C671 0.950 . S
H649 C673 0.950 . S
H650 C674 0.950 . S
H651 C675 0.951 . S
H652 C677 0.951 . S
H653 C679 0.950 . S
H654 C680 0.950 . S
H655 C682 0.950 . S
H656 C685 0.950 . S
H657 C686 0.950 . S
H658 C688 0.950 . S
H659 C689 0.950 . S
C660 H642 0.951 . S
C660 C661 1.366 . S
C660 C662 1.388 . S
C661 C660 1.366 . S
C661 C665 1.385 1_554 S
C662 H643 0.951 . S
C662 C660 1.388 . S
C662 C663 1.366 . S
C663 C662 1.366 . S
C663 C664 1.414 . S
C663 C666 1.499 . S
C664 H644 0.950 1_554 S
C664 C663 1.414 . S
C664 C665 1.374 1_554 S
C665 H645 0.950 . S
C665 C661 1.385 1_556 S
C665 C664 1.374 1_556 S
C666 C663 1.499 . S
C666 C667 1.373 . S
C666 C668 1.389 . S
C667 H646 0.950 . S
C667 C666 1.373 . S
C667 C683 1.377 . S
C668 C666 1.389 . S
C668 C669 1.524 . S
C668 C682 1.377 . S
C669 C668 1.524 . S
C669 C670 1.371 1_554 S
C669 C674 1.363 . S
C670 H647 0.967 . S
C670 C669 1.371 1_556 S
C670 C671 1.343 . S
C671 H648 0.950 . S
C671 C670 1.343 . S
C671 C672 1.287 1_556 S
C672 C671 1.287 1_554 S
C672 C673 1.524 . S
C672 H691 0.913 . S
C673 H649 0.950 . S
C673 C672 1.524 . S
C673 C674 1.415 . S
C674 H650 0.950 . S
C674 C669 1.363 . S
C674 C673 1.415 . S
C675 H651 0.951 . S
C675 C676 1.366 . S
C675 C677 1.388 . S
C676 C675 1.366 . S
C676 C680 1.385 . S
C677 H652 0.951 . S
C677 C675 1.388 . S
C677 C678 1.366 . S
C678 C677 1.366 . S
C678 C679 1.414 . S
C678 C681 1.499 . S
C679 H653 0.950 . S
C679 C678 1.414 . S
C679 C680 1.374 . S
C680 H654 0.950 . S
C680 C676 1.385 . S
C680 C679 1.374 . S
C681 C678 1.499 . S
C681 C682 1.373 . S
C681 C683 1.389 . S
C682 H655 0.950 . S
C682 C668 1.377 . S
C682 C681 1.373 . S
C683 C667 1.377 . S
C683 C681 1.389 . S
C683 C684 1.524 . S
C684 C683 1.524 . S
C684 C685 1.397 . S
C684 C689 1.363 . S
C685 H656 0.950 . S
C685 C684 1.397 . S
C685 C686 1.334 . S
C686 H657 0.950 . S
C686 C685 1.334 . S
C686 C687 1.287 . S
C687 C686 1.287 . S
C687 C688 1.524 . S
C687 H690 0.999 . S
C688 H658 0.950 . S
C688 C687 1.524 . S
C688 C689 1.415 . S
C689 H659 0.950 . S
C689 C684 1.363 . S
C689 C688 1.415 . S
H690 C687 0.999 . S
H691 C672 0.913 . S
H692 C710 0.951 . S
H693 C712 0.951 . S
H694 C714 0.950 . S
H695 C715 0.950 . S
H696 C717 0.950 . S
H697 C720 0.950 . S
H698 C721 0.950 . S
H699 C723 0.950 . S
H700 C724 0.950 . S
H701 C725 0.951 . S
H702 C727 0.951 . S
H703 C729 0.950 . S
H704 C730 0.950 . S
H705 C732 0.950 . S
H706 C735 0.950 . S
H707 C736 0.950 . S
H708 C738 0.950 . S
H709 C739 0.950 . S
C710 H692 0.951 . S
C710 C711 1.366 . S
C710 C712 1.388 . S
C711 C710 1.366 . S
C711 C715 1.385 . S
C712 H693 0.951 . S
C712 C710 1.388 . S
C712 C713 1.366 . S
C713 C712 1.366 . S
C713 C714 1.414 . S
C713 C716 1.499 . S
C714 H694 0.950 . S
C714 C713 1.414 . S
C714 C715 1.374 . S
C715 H695 0.950 . S
C715 C711 1.385 . S
C715 C714 1.374 . S
C716 C713 1.499 . S
C716 C717 1.373 . S
C716 C718 1.389 . S
C717 H696 0.950 . S
C717 C716 1.373 . S
C717 C733 1.377 . S
C718 C716 1.389 . S
C718 C719 1.524 . S
C718 C732 1.377 . S
C719 C718 1.524 . S
C719 C720 1.397 . S
C719 C724 1.363 . S
C720 H697 0.950 . S
C720 C719 1.397 . S
C720 C721 1.334 . S
C721 H698 0.950 . S
C721 C720 1.334 . S
C721 C722 1.287 . S
C722 C721 1.287 . S
C722 C723 1.524 . S
C722 H741 0.913 . S
C723 H699 0.950 . S
C723 C722 1.524 . S
C723 C724 1.415 . S
C724 H700 0.950 . S
C724 C719 1.363 . S
C724 C723 1.415 . S
C725 H701 0.951 . S
C725 C726 1.366 . S
C725 C727 1.388 . S
C726 C725 1.366 . S
C726 C730 1.385 . S
C727 H702 0.951 . S
C727 C725 1.388 . S
C727 C728 1.366 . S
C728 C727 1.366 . S
C728 C729 1.414 . S
C728 C731 1.499 . S
C729 H703 0.950 . S
C729 C728 1.414 . S
C729 C730 1.374 . S
C730 H704 0.950 . S
C730 C726 1.385 . S
C730 C729 1.374 . S
C731 C728 1.499 . S
C731 C732 1.373 . S
C731 C733 1.389 . S
C732 H705 0.950 . S
C732 C718 1.377 . S
C732 C731 1.373 . S
C733 C717 1.377 . S
C733 C731 1.389 . S
C733 C734 1.524 . S
C734 C733 1.524 . S
C734 C735 1.397 . S
C734 C739 1.363 . S
C735 H706 0.950 . S
C735 C734 1.397 . S
C735 C736 1.334 . S
C736 H707 0.950 . S
C736 C735 1.334 . S
C736 C737 1.287 . S
C737 C736 1.287 . S
C737 C738 1.524 . S
C737 H740 0.999 . S
C738 H708 0.950 . S
C738 C737 1.524 . S
C738 C739 1.415 . S
C739 H709 0.950 . S
C739 C734 1.363 . S
C739 C738 1.415 . S
H740 C737 0.999 . S
H741 C722 0.913 . S
H742 C760 0.951 . S
H743 C762 0.951 . S
H744 C764 0.950 . S
H745 C765 0.950 . S
H746 C767 0.950 . S
H747 C770 0.950 . S
H748 C771 0.950 . S
H749 C773 0.950 . S
H750 C774 0.950 . S
H751 C775 0.951 . S
H752 C777 0.951 . S
H753 C779 0.950 . S
H754 C780 0.950 . S
H755 C782 0.950 . S
H756 C785 0.950 . S
H757 C786 0.950 . S
H758 C788 0.950 . S
H759 C789 0.950 . S
C760 H742 0.951 . S
C760 C761 1.366 . S
C760 C762 1.388 . S
C761 C760 1.366 . S
C761 C765 1.385 . S
C762 H743 0.951 . S
C762 C760 1.388 . S
C762 C763 1.366 . S
C763 C762 1.366 . S
C763 C764 1.414 . S
C763 C766 1.499 . S
C764 H744 0.950 . S
C764 C763 1.414 . S
C764 C765 1.374 . S
C765 H745 0.950 . S
C765 C761 1.385 . S
C765 C764 1.374 . S
C766 C763 1.499 . S
C766 C767 1.373 . S
C766 C768 1.389 . S
C767 H746 0.950 . S
C767 C766 1.373 . S
C767 C783 1.377 . S
C768 C766 1.389 . S
C768 C769 1.524 . S
C768 C782 1.377 . S
C769 C768 1.524 . S
C769 C770 1.397 . S
C769 C774 1.363 . S
C770 H747 0.950 . S
C770 C769 1.397 . S
C770 C771 1.334 . S
C771 H748 0.950 . S
C771 C770 1.334 . S
C771 C772 1.287 . S
C772 C771 1.287 . S
C772 C773 1.524 . S
C772 H791 0.913 . S
C773 H749 0.950 . S
C773 C772 1.524 . S
C773 C774 1.415 . S
C774 H750 0.950 . S
C774 C769 1.363 . S
C774 C773 1.415 . S
C775 H751 0.951 . S
C775 C776 1.366 . S
C775 C777 1.388 . S
C776 C775 1.366 . S
C776 C780 1.385 . S
C777 H752 0.951 . S
C777 C775 1.388 . S
C777 C778 1.366 . S
C778 C777 1.366 . S
C778 C779 1.414 . S
C778 C781 1.499 . S
C779 H753 0.950 . S
C779 C778 1.414 . S
C779 C780 1.374 . S
C780 H754 0.950 . S
C780 C776 1.385 . S
C780 C779 1.374 . S
C781 C778 1.499 . S
C781 C782 1.373 . S
C781 C783 1.389 . S
C782 H755 0.950 . S
C782 C768 1.377 . S
C782 C781 1.373 . S
C783 C767 1.377 . S
C783 C781 1.389 . S
C783 C784 1.524 . S
C784 C783 1.524 . S
C784 C785 1.397 . S
C784 C789 1.363 . S
C785 H756 0.950 . S
C785 C784 1.397 . S
C785 C786 1.334 . S
C786 H757 0.950 . S
C786 C785 1.334 . S
C786 C787 1.287 . S
C787 C786 1.287 . S
C787 C788 1.524 . S
C787 H790 0.999 . S
C788 H758 0.950 . S
C788 C787 1.524 . S
C788 C789 1.415 . S
C789 H759 0.950 . S
C789 C784 1.363 . S
C789 C788 1.415 . S
H790 C787 0.999 . S
H791 C772 0.913 . S
H792 C810 0.951 . S
H793 C812 0.951 . S
H794 C814 0.950 . S
H795 C815 0.950 . S
H796 C817 0.950 . S
H797 C820 0.950 . S
H798 C821 0.950 . S
H799 C823 0.950 . S
H800 C824 0.950 . S
H801 C825 0.951 . S
H802 C827 0.951 . S
H803 C829 0.950 . S
H804 C830 0.950 . S
H805 C832 0.950 . S
H806 C835 0.950 . S
H807 C836 0.950 . S
H808 C838 0.950 . S
H809 C839 0.950 . S
C810 H792 0.951 . S
C810 C811 1.366 . S
C810 C812 1.388 . S
C811 C810 1.366 . S
C811 C815 1.385 . S
C812 H793 0.951 . S
C812 C810 1.388 . S
C812 C813 1.366 . S
C813 C812 1.366 . S
C813 C814 1.414 . S
C813 C816 1.499 . S
C814 H794 0.950 . S
C814 C813 1.414 . S
C814 C815 1.374 . S
C815 H795 0.950 . S
C815 C811 1.385 . S
C815 C814 1.374 . S
C816 C813 1.499 . S
C816 C817 1.373 . S
C816 C818 1.389 . S
C817 H796 0.950 . S
C817 C816 1.373 . S
C817 C833 1.377 . S
C818 C816 1.389 . S
C818 C819 1.524 . S
C818 C832 1.377 . S
C819 C818 1.524 . S
C819 C820 1.397 . S
C819 C824 1.363 . S
C820 H797 0.950 . S
C820 C819 1.397 . S
C820 C821 1.334 . S
C821 H798 0.950 . S
C821 C820 1.334 . S
C821 C822 1.287 . S
C822 C821 1.287 . S
C822 C823 1.524 . S
C822 H841 0.913 . S
C823 H799 0.950 . S
C823 C822 1.524 . S
C823 C824 1.415 . S
C824 H800 0.950 . S
C824 C819 1.363 . S
C824 C823 1.415 . S
C825 H801 0.951 . S
C825 C826 1.366 . S
C825 C827 1.388 . S
C826 C825 1.366 . S
C826 C830 1.385 . S
C827 H802 0.951 . S
C827 C825 1.388 . S
C827 C828 1.366 . S
C828 C827 1.366 . S
C828 C829 1.414 . S
C828 C831 1.499 . S
C829 H803 0.950 . S
C829 C828 1.414 . S
C829 C830 1.374 . S
C830 H804 0.950 . S
C830 C826 1.385 . S
C830 C829 1.374 . S
C831 C828 1.499 . S
C831 C832 1.373 . S
C831 C833 1.389 . S
C832 H805 0.950 . S
C832 C818 1.377 . S
C832 C831 1.373 . S
C833 C817 1.377 . S
C833 C831 1.389 . S
C833 C834 1.524 . S
C834 C833 1.524 . S
C834 C835 1.397 . S
C834 C839 1.363 . S
C835 H806 0.950 . S
C835 C834 1.397 . S
C835 C836 1.334 . S
C836 H807 0.950 . S
C836 C835 1.334 . S
C836 C837 1.287 . S
C837 C836 1.287 . S
C837 C838 1.524 . S
C837 H840 0.999 . S
C838 H808 0.950 . S
C838 C837 1.524 . S
C838 C839 1.415 . S
C839 H809 0.950 . S
C839 C834 1.363 . S
C839 C838 1.415 . S
H840 C837 0.999 . S
H841 C822 0.913 . S
H842 C860 0.951 . S
H843 C862 0.951 . S
H844 C864 0.950 . S
H845 C865 0.950 . S
H846 C867 0.950 . S
H847 C870 0.950 . S
H848 C871 0.950 . S
H849 C873 0.950 . S
H850 C874 0.950 . S
H851 C875 0.951 . S
H852 C877 0.951 . S
H853 C879 0.950 . S
H854 C880 0.950 . S
H855 C882 0.950 . S
H856 C885 0.950 . S
H857 C886 0.950 . S
H858 C888 0.950 . S
H859 C889 0.950 . S
C860 H842 0.951 . S
C860 C861 1.366 . S
C860 C862 1.388 . S
C861 C860 1.366 . S
C861 C865 1.385 . S
C862 H843 0.951 . S
C862 C860 1.388 . S
C862 C863 1.366 . S
C863 C862 1.366 . S
C863 C864 1.414 . S
C863 C866 1.499 . S
C864 H844 0.950 . S
C864 C863 1.414 . S
C864 C865 1.374 . S
C865 H845 0.950 . S
C865 C861 1.385 . S
C865 C864 1.374 . S
C866 C863 1.499 . S
C866 C867 1.373 . S
C866 C868 1.389 . S
C867 H846 0.950 . S
C867 C866 1.373 . S
C867 C883 1.377 . S
C868 C866 1.389 . S
C868 C869 1.524 . S
C868 C882 1.377 . S
C869 C868 1.524 . S
C869 C870 1.397 . S
C869 C874 1.363 . S
C870 H847 0.950 . S
C870 C869 1.397 . S
C870 C871 1.334 . S
C871 H848 0.950 . S
C871 C870 1.334 . S
C871 C872 1.287 . S
C872 C871 1.287 . S
C872 C873 1.524 . S
C872 H891 0.913 . S
C873 H849 0.950 . S
C873 C872 1.524 . S
C873 C874 1.415 . S
C874 H850 0.950 . S
C874 C869 1.363 . S
C874 C873 1.415 . S
C875 H851 0.951 . S
C875 C876 1.366 . S
C875 C877 1.388 . S
C876 C875 1.366 . S
C876 C880 1.385 . S
C877 H852 0.951 . S
C877 C875 1.388 . S
C877 C878 1.366 . S
C878 C877 1.366 . S
C878 C879 1.414 . S
C878 C881 1.499 . S
C879 H853 0.950 . S
C879 C878 1.414 . S
C879 C880 1.374 . S
C880 H854 0.950 . S
C880 C876 1.385 . S
C880 C879 1.374 . S
C881 C878 1.499 . S
C881 C882 1.373 . S
C881 C883 1.389 . S
C882 H855 0.950 . S
C882 C868 1.377 . S
C882 C881 1.373 . S
C883 C867 1.377 . S
C883 C881 1.389 . S
C883 C884 1.524 . S
C884 C883 1.524 . S
C884 C885 1.397 . S
C884 C889 1.363 . S
C885 H856 0.950 . S
C885 C884 1.397 . S
C885 C886 1.334 . S
C886 H857 0.950 . S
C886 C885 1.334 . S
C886 C887 1.287 . S
C887 C886 1.287 . S
C887 C888 1.524 . S
C887 H890 0.999 . S
C888 H858 0.950 . S
C888 C887 1.524 . S
C888 C889 1.415 . S
C889 H859 0.950 . S
C889 C884 1.363 . S
C889 C888 1.415 . S
H890 C887 0.999 . S
H891 C872 0.913 . S
H892 C910 0.951 . S
H893 C912 0.951 . S
H894 C914 0.950 . S
H895 C915 0.950 . S
H896 C917 0.950 . S
H897 C920 0.950 . S
H898 C921 0.950 . S
H899 C923 0.950 . S
H900 C924 0.950 . S
H901 C925 0.951 . S
H902 C927 0.951 . S
H903 C929 0.950 . S
H904 C930 0.950 . S
H905 C932 0.950 . S
H906 C935 0.950 . S
H907 C936 0.950 . S
H908 C938 0.950 . S
H909 C939 0.950 . S
C910 H892 0.951 . S
C910 C911 1.366 . S
C910 C912 1.388 . S
C911 C910 1.366 . S
C911 C915 1.385 . S
C912 H893 0.951 . S
C912 C910 1.388 . S
C912 C913 1.366 . S
C913 C912 1.366 . S
C913 C914 1.414 . S
C913 C916 1.499 . S
C914 H894 0.950 . S
C914 C913 1.414 . S
C914 C915 1.374 . S
C915 H895 0.950 . S
C915 C911 1.385 . S
C915 C914 1.374 . S
C916 C913 1.499 . S
C916 C917 1.373 . S
C916 C918 1.389 . S
C917 H896 0.950 . S
C917 C916 1.373 . S
C917 C933 1.377 . S
C918 C916 1.389 . S
C918 C919 1.524 . S
C918 C932 1.377 . S
C919 C918 1.524 . S
C919 C920 1.397 . S
C919 C924 1.363 . S
C920 H897 0.950 . S
C920 C919 1.397 . S
C920 C921 1.334 . S
C921 H898 0.950 . S
C921 C920 1.334 . S
C921 C922 1.287 . S
C922 C921 1.287 . S
C922 C923 1.524 . S
C922 H941 0.913 . S
C923 H899 0.950 . S
C923 C922 1.524 . S
C923 C924 1.415 . S
C924 H900 0.950 . S
C924 C919 1.363 . S
C924 C923 1.415 . S
C925 H901 0.951 . S
C925 C926 1.366 . S
C925 C927 1.388 . S
C926 C925 1.366 . S
C926 C930 1.385 . S
C927 H902 0.951 . S
C927 C925 1.388 . S
C927 C928 1.366 . S
C928 C927 1.366 . S
C928 C929 1.414 . S
C928 C931 1.499 . S
C929 H903 0.950 . S
C929 C928 1.414 . S
C929 C930 1.374 . S
C930 H904 0.950 . S
C930 C926 1.385 . S
C930 C929 1.374 . S
C931 C928 1.499 . S
C931 C932 1.373 . S
C931 C933 1.389 . S
C932 H905 0.950 . S
C932 C918 1.377 . S
C932 C931 1.373 . S
C933 C917 1.377 . S
C933 C931 1.389 . S
C933 C934 1.524 . S
C934 C933 1.524 . S
C934 C935 1.397 . S
C934 C939 1.363 . S
C935 H906 0.950 . S
C935 C934 1.397 . S
C935 C936 1.334 . S
C936 H907 0.950 . S
C936 C935 1.334 . S
C936 C937 1.287 . S
C937 C936 1.287 . S
C937 C938 1.524 . S
C937 H940 0.999 . S
C938 H908 0.950 . S
C938 C937 1.524 . S
C938 C939 1.415 . S
C939 H909 0.950 . S
C939 C934 1.363 . S
C939 C938 1.415 . S
H940 C937 0.999 . S
H941 C922 0.913 . S
H942 C960 0.951 . S
H943 C962 0.951 . S
H944 C964 0.950 . S
H945 C965 0.950 . S
H946 C967 0.950 . S
H947 C970 0.950 . S
H948 C971 0.950 . S
H949 C973 0.950 . S
H950 C974 0.950 . S
H951 C975 0.951 . S
H952 C977 0.951 . S
H953 C979 0.950 . S
H954 C980 0.950 . S
H955 C982 0.950 . S
H956 C985 0.950 . S
H957 C986 0.950 . S
H958 C988 0.950 . S
H959 C989 0.950 . S
C960 H942 0.951 . S
C960 C961 1.366 . S
C960 C962 1.388 . S
C961 C960 1.366 . S
C961 C965 1.385 . S
C962 H943 0.951 . S
C962 C960 1.388 . S
C962 C963 1.366 . S
C963 C962 1.366 . S
C963 C964 1.414 . S
C963 C966 1.499 . S
C964 H944 0.950 . S
C964 C963 1.414 . S
C964 C965 1.374 . S
C965 H945 0.950 . S
C965 C961 1.385 . S
C965 C964 1.374 . S
C966 C963 1.499 . S
C966 C967 1.373 . S
C966 C968 1.389 . S
C967 H946 0.950 . S
C967 C966 1.373 . S
C967 C983 1.377 . S
C968 C966 1.389 . S
C968 C969 1.524 . S
C968 C982 1.377 . S
C969 C968 1.524 . S
C969 C970 1.397 . S
C969 C974 1.363 . S
C970 H947 0.950 . S
C970 C969 1.397 . S
C970 C971 1.334 . S
C971 H948 0.950 . S
C971 C970 1.334 . S
C971 C972 1.287 . S
C972 C971 1.287 . S
C972 C973 1.524 . S
C972 H991 0.913 . S
C973 H949 0.950 . S
C973 C972 1.524 . S
C973 C974 1.415 . S
C974 H950 0.950 . S
C974 C969 1.363 . S
C974 C973 1.415 . S
C975 H951 0.951 . S
C975 C976 1.366 . S
C975 C977 1.388 1_554 S
C976 C975 1.366 . S
C976 C980 1.385 . S
C977 H952 0.951 . S
C977 C975 1.388 1_556 S
C977 C978 1.366 . S
C978 C977 1.366 . S
C978 C979 1.414 . S
C978 C981 1.499 . S
C979 H953 0.950 . S
C979 C978 1.414 . S
C979 C980 1.374 1_556 S
C980 H954 0.950 . S
C980 C976 1.385 . S
C980 C979 1.374 1_554 S
C981 C978 1.499 . S
C981 C982 1.373 . S
C981 C983 1.389 . S
C982 H955 0.950 . S
C982 C968 1.377 . S
C982 C981 1.373 . S
C983 C967 1.377 . S
C983 C981 1.389 . S
C983 C984 1.524 . S
C984 C983 1.524 . S
C984 C985 1.397 . S
C984 C989 1.363 . S
C985 H956 0.950 . S
C985 C984 1.397 . S
C985 C986 1.334 . S
C986 H957 0.950 . S
C986 C985 1.334 . S
C986 C987 1.287 . S
C987 C986 1.287 . S
C987 C988 1.524 . S
C987 H990 0.999 . S
C988 H958 0.950 . S
C988 C987 1.524 . S
C988 C989 1.415 . S
C989 H959 0.950 . S
C989 C984 1.363 . S
C989 C988 1.415 . S
H990 C987 0.999 . S
H991 C972 0.913 . S
H992 C1010 0.951 . S
H993 C1012 0.951 . S
H994 C1014 0.950 . S
H995 C1015 0.950 . S
H996 C1017 0.950 . S
H997 C1020 0.950 . S
H998 C1021 0.950 . S
H999 C1023 0.950 . S
H1000 C1024 0.950 . S
H1001 C1025 0.951 . S
H1002 C1027 0.951 . S
H1003 C1029 0.950 . S
H1004 C1030 0.950 . S
H1005 C1032 0.950 . S
H1006 C1035 0.950 . S
H1007 C1036 0.950 . S
H1008 C1038 0.950 . S
H1009 C1039 0.950 . S
C1010 H992 0.951 . S
C1010 C1011 1.366 . S
C1010 C1012 1.388 . S
C1011 C1010 1.366 . S
C1011 C1015 1.385 . S
C1012 H993 0.951 . S
C1012 C1010 1.388 . S
C1012 C1013 1.366 . S
C1013 C1012 1.366 . S
C1013 C1014 1.414 . S
C1013 C1016 1.499 . S
C1014 H994 0.950 . S
C1014 C1013 1.414 . S
C1014 C1015 1.374 . S
C1015 H995 0.950 . S
C1015 C1011 1.385 . S
C1015 C1014 1.374 . S
C1016 C1013 1.499 . S
C1016 C1017 1.373 . S
C1016 C1018 1.389 . S
C1017 H996 0.950 . S
C1017 C1016 1.373 . S
C1017 C1033 1.377 . S
C1018 C1016 1.389 . S
C1018 C1019 1.524 . S
C1018 C1032 1.377 . S
C1019 C1018 1.524 . S
C1019 C1020 1.397 . S
C1019 C1024 1.363 . S
C1020 H997 0.950 . S
C1020 C1019 1.397 . S
C1020 C1021 1.334 . S
C1021 H998 0.950 . S
C1021 C1020 1.334 . S
C1021 C1022 1.287 . S
C1022 C1021 1.287 . S
C1022 C1023 1.524 . S
C1022 H1041 0.913 . S
C1023 H999 0.950 . S
C1023 C1022 1.524 . S
C1023 C1024 1.415 . S
C1024 H1000 0.950 . S
C1024 C1019 1.363 . S
C1024 C1023 1.415 . S
C1025 H1001 0.951 . S
C1025 C1026 1.366 . S
C1025 C1027 1.388 . S
C1026 C1025 1.366 . S
C1026 C1030 1.385 . S
C1027 H1002 0.951 . S
C1027 C1025 1.388 . S
C1027 C1028 1.366 . S
C1028 C1027 1.366 . S
C1028 C1029 1.414 . S
C1028 C1031 1.499 . S
C1029 H1003 0.950 . S
C1029 C1028 1.414 . S
C1029 C1030 1.374 . S
C1030 H1004 0.950 . S
C1030 C1026 1.385 . S
C1030 C1029 1.374 . S
C1031 C1028 1.499 . S
C1031 C1032 1.373 . S
C1031 C1033 1.389 . S
C1032 H1005 0.950 . S
C1032 C1018 1.377 . S
C1032 C1031 1.373 . S
C1033 C1017 1.377 . S
C1033 C1031 1.389 . S
C1033 C1034 1.524 . S
C1034 C1033 1.524 . S
C1034 C1035 1.397 . S
C1034 C1039 1.363 . S
C1035 H1006 0.950 . S
C1035 C1034 1.397 . S
C1035 C1036 1.334 . S
C1036 H1007 0.950 . S
C1036 C1035 1.334 . S
C1036 C1037 1.287 . S
C1037 C1036 1.287 . S
C1037 C1038 1.524 . S
C1037 H1040 0.999 . S
C1038 H1008 0.950 . S
C1038 C1037 1.524 . S
C1038 C1039 1.415 . S
C1039 H1009 0.950 . S
C1039 C1034 1.363 . S
C1039 C1038 1.415 . S
H1040 C1037 0.999 . S
H1041 C1022 0.913 . S
H1042 C1060 0.951 . S
H1043 C1062 0.951 . S
H1044 C1064 0.950 . S
H1045 C1065 0.950 . S
H1046 C1067 0.950 . S
H1047 C1070 0.950 . S
H1048 C1071 0.950 . S
H1049 C1073 0.950 . S
H1050 C1074 0.950 . S
H1051 C1075 0.951 . S
H1052 C1077 0.951 . S
H1053 C1079 0.950 . S
H1054 C1080 0.950 . S
H1055 C1082 0.950 . S
H1056 C1085 0.950 . S
H1057 C1086 0.950 . S
H1058 C1088 0.950 . S
H1059 C1089 0.950 . S
C1060 H1042 0.951 . S
C1060 C1061 1.366 . S
C1060 C1062 1.388 . S
C1061 C1060 1.366 . S
C1061 C1065 1.385 . S
C1062 H1043 0.951 . S
C1062 C1060 1.388 . S
C1062 C1063 1.366 . S
C1063 C1062 1.366 . S
C1063 C1064 1.414 . S
C1063 C1066 1.499 . S
C1064 H1044 0.950 . S
C1064 C1063 1.414 . S
C1064 C1065 1.374 . S
C1065 H1045 0.950 . S
C1065 C1061 1.385 . S
C1065 C1064 1.374 . S
C1066 C1063 1.499 . S
C1066 C1067 1.373 . S
C1066 C1068 1.389 . S
C1067 H1046 0.950 . S
C1067 C1066 1.373 . S
C1067 C1083 1.377 . S
C1068 C1066 1.389 . S
C1068 C1069 1.524 . S
C1068 C1082 1.377 . S
C1069 C1068 1.524 . S
C1069 C1070 1.397 . S
C1069 C1074 1.363 . S
C1070 H1047 0.950 . S
C1070 C1069 1.397 . S
C1070 C1071 1.334 . S
C1071 H1048 0.950 . S
C1071 C1070 1.334 . S
C1071 C1072 1.287 . S
C1072 C1071 1.287 . S
C1072 C1073 1.524 . S
C1072 H1091 0.913 . S
C1073 H1049 0.950 . S
C1073 C1072 1.524 . S
C1073 C1074 1.415 . S
C1074 H1050 0.950 . S
C1074 C1069 1.363 . S
C1074 C1073 1.415 . S
C1075 H1051 0.951 . S
C1075 C1076 1.366 . S
C1075 C1077 1.388 . S
C1076 C1075 1.366 . S
C1076 C1080 1.385 . S
C1077 H1052 0.951 . S
C1077 C1075 1.388 . S
C1077 C1078 1.366 . S
C1078 C1077 1.366 . S
C1078 C1079 1.414 . S
C1078 C1081 1.499 . S
C1079 H1053 0.950 . S
C1079 C1078 1.414 . S
C1079 C1080 1.374 . S
C1080 H1054 0.950 . S
C1080 C1076 1.385 . S
C1080 C1079 1.374 . S
C1081 C1078 1.499 . S
C1081 C1082 1.373 . S
C1081 C1083 1.389 . S
C1082 H1055 0.950 . S
C1082 C1068 1.377 . S
C1082 C1081 1.373 . S
C1083 C1067 1.377 . S
C1083 C1081 1.389 . S
C1083 C1084 1.524 . S
C1084 C1083 1.524 . S
C1084 C1085 1.397 . S
C1084 C1089 1.363 . S
C1085 H1056 0.950 . S
C1085 C1084 1.397 . S
C1085 C1086 1.334 . S
C1086 H1057 0.950 . S
C1086 C1085 1.334 . S
C1086 C1087 1.287 . S
C1087 C1086 1.287 . S
C1087 C1088 1.524 . S
C1087 H1090 0.999 . S
C1088 H1058 0.950 . S
C1088 C1087 1.524 . S
C1088 C1089 1.415 . S
C1089 H1059 0.950 . S
C1089 C1084 1.363 . S
C1089 C1088 1.415 . S
H1090 C1087 0.999 . S
H1091 C1072 0.913 . S
H1092 C1110 0.951 . S
H1093 C1112 0.951 . S
H1094 C1114 0.950 . S
H1095 C1115 0.950 . S
H1096 C1117 0.950 . S
H1097 C1120 0.950 . S
H1098 C1121 0.950 . S
H1099 C1123 0.950 . S
H1100 C1124 0.950 . S
H1101 C1125 0.951 . S
H1102 C1127 0.951 . S
H1103 C1129 0.950 . S
H1104 C1130 0.950 . S
H1105 C1132 0.950 . S
H1106 C1135 0.950 . S
H1107 C1136 0.950 . S
H1108 C1138 0.950 . S
H1109 C1139 0.950 . S
C1110 H1092 0.951 . S
C1110 C1111 1.366 . S
C1110 C1112 1.388 . S
C1111 C1110 1.366 . S
C1111 C1115 1.385 . S
C1112 H1093 0.951 . S
C1112 C1110 1.388 . S
C1112 C1113 1.366 . S
C1113 C1112 1.366 . S
C1113 C1114 1.414 . S
C1113 C1116 1.499 . S
C1114 H1094 0.950 . S
C1114 C1113 1.414 . S
C1114 C1115 1.374 . S
C1115 H1095 0.950 . S
C1115 C1111 1.385 . S
C1115 C1114 1.374 . S
C1116 C1113 1.499 . S
C1116 C1117 1.373 . S
C1116 C1118 1.389 . S
C1117 H1096 0.950 . S
C1117 C1116 1.373 . S
C1117 C1133 1.377 . S
C1118 C1116 1.389 . S
C1118 C1119 1.524 . S
C1118 C1132 1.377 . S
C1119 C1118 1.524 . S
C1119 C1120 1.397 . S
C1119 C1124 1.363 . S
C1120 H1097 0.950 . S
C1120 C1119 1.397 . S
C1120 C1121 1.334 . S
C1121 H1098 0.950 . S
C1121 C1120 1.334 . S
C1121 C1122 1.287 . S
C1122 C1121 1.287 . S
C1122 C1123 1.524 . S
C1122 H1141 0.913 . S
C1123 H1099 0.950 . S
C1123 C1122 1.524 . S
C1123 C1124 1.415 . S
C1124 H1100 0.950 . S
C1124 C1119 1.363 . S
C1124 C1123 1.415 . S
C1125 H1101 0.951 . S
C1125 C1126 1.366 . S
C1125 C1127 1.388 . S
C1126 C1125 1.366 . S
C1126 C1130 1.385 . S
C1127 H1102 0.951 . S
C1127 C1125 1.388 . S
C1127 C1128 1.366 . S
C1128 C1127 1.366 . S
C1128 C1129 1.414 . S
C1128 C1131 1.499 . S
C1129 H1103 0.950 . S
C1129 C1128 1.414 . S
C1129 C1130 1.374 . S
C1130 H1104 0.950 . S
C1130 C1126 1.385 . S
C1130 C1129 1.374 . S
C1131 C1128 1.499 . S
C1131 C1132 1.373 . S
C1131 C1133 1.389 . S
C1132 H1105 0.950 . S
C1132 C1118 1.377 . S
C1132 C1131 1.373 . S
C1133 C1117 1.377 . S
C1133 C1131 1.389 . S
C1133 C1134 1.524 . S
C1134 C1133 1.524 . S
C1134 C1135 1.397 . S
C1134 C1139 1.363 . S
C1135 H1106 0.950 . S
C1135 C1134 1.397 . S
C1135 C1136 1.334 . S
C1136 H1107 0.950 . S
C1136 C1135 1.334 . S
C1136 C1137 1.287 . S
C1137 C1136 1.287 . S
C1137 C1138 1.524 . S
C1137 H1140 0.999 . S
C1138 H1108 0.950 . S
C1138 C1137 1.524 . S
C1138 C1139 1.415 . S
C1139 H1109 0.950 . S
C1139 C1134 1.363 . S
C1139 C1138 1.415 . S
H1140 C1137 0.999 . S
H1141 C1122 0.913 . S
H1142 C1160 0.951 . S
H1143 C1162 0.951 . S
H1144 C1164 0.950 . S
H1145 C1165 0.950 . S
H1146 C1167 0.950 . S
H1147 C1170 0.950 . S
H1148 C1171 0.950 . S
H1149 C1173 0.950 . S
H1150 C1174 0.950 . S
H1151 C1175 0.951 . S
H1152 C1177 0.951 . S
H1153 C1179 0.950 . S
H1154 C1180 0.950 . S
H1155 C1182 0.950 . S
H1156 C1185 0.950 . S
H1157 C1186 0.950 . S
H1158 C1188 0.950 . S
H1159 C1189 0.950 . S
C1160 H1142 0.951 . S
C1160 C1161 1.366 . S
C1160 C1162 1.388 . S
C1161 C1160 1.366 . S
C1161 C1165 1.385 . S
C1162 H1143 0.951 . S
C1162 C1160 1.388 . S
C1162 C1163 1.366 . S
C1163 C1162 1.366 . S
C1163 C1164 1.414 . S
C1163 C1166 1.499 . S
C1164 H1144 0.950 . S
C1164 C1163 1.414 . S
C1164 C1165 1.374 . S
C1165 H1145 0.950 . S
C1165 C1161 1.385 . S
C1165 C1164 1.374 . S
C1166 C1163 1.499 . S
C1166 C1167 1.373 . S
C1166 C1168 1.389 . S
C1167 H1146 0.950 . S
C1167 C1166 1.373 . S
C1167 C1183 1.377 . S
C1168 C1166 1.389 . S
C1168 C1169 1.524 . S
C1168 C1182 1.377 . S
C1169 C1168 1.524 . S
C1169 C1170 1.397 . S
C1169 C1174 1.363 . S
C1170 H1147 0.950 . S
C1170 C1169 1.397 . S
C1170 C1171 1.334 . S
C1171 H1148 0.950 . S
C1171 C1170 1.334 . S
C1171 C1172 1.287 . S
C1172 C1171 1.287 . S
C1172 C1173 1.524 . S
C1172 H1191 0.913 . S
C1173 H1149 0.950 . S
C1173 C1172 1.524 . S
C1173 C1174 1.415 . S
C1174 H1150 0.950 . S
C1174 C1169 1.363 . S
C1174 C1173 1.415 . S
C1175 H1151 0.951 . S
C1175 C1176 1.366 . S
C1175 C1177 1.388 . S
C1176 C1175 1.366 . S
C1176 C1180 1.385 . S
C1177 H1152 0.951 . S
C1177 C1175 1.388 . S
C1177 C1178 1.366 . S
C1178 C1177 1.366 . S
C1178 C1179 1.414 . S
C1178 C1181 1.499 . S
C1179 H1153 0.950 . S
C1179 C1178 1.414 . S
C1179 C1180 1.374 . S
C1180 H1154 0.950 . S
C1180 C1176 1.385 . S
C1180 C1179 1.374 . S
C1181 C1178 1.499 . S
C1181 C1182 1.373 . S
C1181 C1183 1.389 . S
C1182 H1155 0.950 . S
C1182 C1168 1.377 . S
C1182 C1181 1.373 . S
C1183 C1167 1.377 . S
C1183 C1181 1.389 . S
C1183 C1184 1.524 . S
C1184 C1183 1.524 . S
C1184 C1185 1.397 . S
C1184 C1189 1.363 . S
C1185 H1156 0.950 . S
C1185 C1184 1.397 . S
C1185 C1186 1.334 . S
C1186 H1157 0.950 . S
C1186 C1185 1.334 . S
C1186 C1187 1.287 . S
C1187 C1186 1.287 . S
C1187 C1188 1.524 . S
C1187 H1190 0.999 . S
C1188 H1158 0.950 . S
C1188 C1187 1.524 . S
C1188 C1189 1.415 . S
C1189 H1159 0.950 . S
C1189 C1184 1.363 . S
C1189 C1188 1.415 . S
H1190 C1187 0.999 . S
H1191 C1172 0.913 . S
H1192 C1210 0.951 . S
H1193 C1212 0.951 . S
H1194 C1214 0.950 . S
H1195 C1215 0.950 . S
H1196 C1217 0.950 . S
H1197 C1220 0.950 . S
H1198 C1221 0.950 . S
H1199 C1223 0.950 . S
H1200 C1224 0.950 . S
H1201 C1225 0.951 . S
H1202 C1227 0.951 . S
H1203 C1229 0.950 . S
H1204 C1230 0.950 . S
H1205 C1232 0.950 . S
H1206 C1235 0.950 . S
H1207 C1236 0.950 . S
H1208 C1238 0.950 . S
H1209 C1239 0.950 . S
C1210 H1192 0.951 . S
C1210 C1211 1.366 . S
C1210 C1212 1.388 . S
C1211 C1210 1.366 . S
C1211 C1215 1.385 . S
C1212 H1193 0.951 . S
C1212 C1210 1.388 . S
C1212 C1213 1.366 . S
C1213 C1212 1.366 . S
C1213 C1214 1.414 . S
C1213 C1216 1.499 . S
C1214 H1194 0.950 . S
C1214 C1213 1.414 . S
C1214 C1215 1.374 . S
C1215 H1195 0.950 . S
C1215 C1211 1.385 . S
C1215 C1214 1.374 . S
C1216 C1213 1.499 . S
C1216 C1217 1.373 . S
C1216 C1218 1.389 . S
C1217 H1196 0.950 . S
C1217 C1216 1.373 . S
C1217 C1233 1.377 . S
C1218 C1216 1.389 . S
C1218 C1219 1.524 . S
C1218 C1232 1.377 . S
C1219 C1218 1.524 . S
C1219 C1220 1.397 . S
C1219 C1224 1.363 . S
C1220 H1197 0.950 . S
C1220 C1219 1.397 . S
C1220 C1221 1.334 . S
C1221 H1198 0.950 . S
C1221 C1220 1.334 . S
C1221 C1222 1.287 . S
C1222 C1221 1.287 . S
C1222 C1223 1.524 . S
C1222 H1241 0.913 . S
C1223 H1199 0.950 . S
C1223 C1222 1.524 . S
C1223 C1224 1.415 . S
C1224 H1200 0.950 . S
C1224 C1219 1.363 . S
C1224 C1223 1.415 . S
C1225 H1201 0.951 . S
C1225 C1226 1.366 . S
C1225 C1227 1.388 . S
C1226 C1225 1.366 . S
C1226 C1230 1.385 . S
C1227 H1202 0.951 . S
C1227 C1225 1.388 . S
C1227 C1228 1.366 . S
C1228 C1227 1.366 . S
C1228 C1229 1.414 . S
C1228 C1231 1.499 . S
C1229 H1203 0.950 . S
C1229 C1228 1.414 . S
C1229 C1230 1.374 . S
C1230 H1204 0.950 . S
C1230 C1226 1.385 . S
C1230 C1229 1.374 . S
C1231 C1228 1.499 . S
C1231 C1232 1.373 . S
C1231 C1233 1.389 . S
C1232 H1205 0.950 . S
C1232 C1218 1.377 . S
C1232 C1231 1.373 . S
C1233 C1217 1.377 . S
C1233 C1231 1.389 . S
C1233 C1234 1.524 . S
C1234 C1233 1.524 . S
C1234 C1235 1.397 . S
C1234 C1239 1.363 . S
C1235 H1206 0.950 . S
C1235 C1234 1.397 . S
C1235 C1236 1.334 . S
C1236 H1207 0.950 . S
C1236 C1235 1.334 . S
C1236 C1237 1.287 . S
C1237 C1236 1.287 . S
C1237 C1238 1.524 . S
C1237 H1240 0.999 . S
C1238 H1208 0.950 . S
C1238 C1237 1.524 . S
C1238 C1239 1.415 . S
C1239 H1209 0.950 . S
C1239 C1234 1.363 . S
C1239 C1238 1.415 . S
H1240 C1237 0.999 . S
H1241 C1222 0.913 . S
H1242 C1260 0.951 . S
H1243 C1262 0.951 . S
H1244 C1264 0.950 . S
H1245 C1265 0.950 . S
H1246 C1267 0.950 . S
H1247 C1270 0.950 . S
H1248 C1271 0.950 . S
H1249 C1273 0.950 . S
H1250 C1274 0.950 . S
H1251 C1275 0.951 . S
H1252 C1277 0.951 . S
H1253 C1279 0.950 . S
H1254 C1280 0.950 . S
H1255 C1282 0.950 . S
H1256 C1285 0.950 . S
H1257 C1286 0.950 . S
H1258 C1288 0.950 . S
H1259 C1289 0.950 . S
C1260 H1242 0.951 . S
C1260 C1261 1.366 . S
C1260 C1262 1.388 . S
C1261 C1260 1.366 . S
C1261 C1265 1.385 . S
C1262 H1243 0.951 . S
C1262 C1260 1.388 . S
C1262 C1263 1.366 . S
C1263 C1262 1.366 . S
C1263 C1264 1.414 . S
C1263 C1266 1.499 . S
C1264 H1244 0.950 . S
C1264 C1263 1.414 . S
C1264 C1265 1.374 . S
C1265 H1245 0.950 . S
C1265 C1261 1.385 . S
C1265 C1264 1.374 . S
C1266 C1263 1.499 . S
C1266 C1267 1.373 . S
C1266 C1268 1.389 . S
C1267 H1246 0.950 . S
C1267 C1266 1.373 . S
C1267 C1283 1.377 . S
C1268 C1266 1.389 . S
C1268 C1269 1.524 . S
C1268 C1282 1.377 . S
C1269 C1268 1.524 . S
C1269 C1270 1.397 . S
C1269 C1274 1.363 . S
C1270 H1247 0.950 . S
C1270 C1269 1.397 . S
C1270 C1271 1.334 . S
C1271 H1248 0.950 . S
C1271 C1270 1.334 . S
C1271 C1272 1.287 . S
C1272 C1271 1.287 . S
C1272 C1273 1.524 . S
C1272 H1291 0.913 . S
C1273 H1249 0.950 . S
C1273 C1272 1.524 . S
C1273 C1274 1.415 . S
C1274 H1250 0.950 . S
C1274 C1269 1.363 . S
C1274 C1273 1.415 . S
C1275 H1251 0.951 . S
C1275 C1276 1.366 . S
C1275 C1277 1.388 . S
C1276 C1275 1.366 . S
C1276 C1280 1.385 . S
C1277 H1252 0.951 . S
C1277 C1275 1.388 . S
C1277 C1278 1.366 . S
C1278 C1277 1.366 . S
C1278 C1279 1.414 . S
C1278 C1281 1.499 . S
C1279 H1253 0.950 . S
C1279 C1278 1.414 . S
C1279 C1280 1.374 . S
C1280 H1254 0.950 . S
C1280 C1276 1.385 . S
C1280 C1279 1.374 . S
C1281 C1278 1.499 . S
C1281 C1282 1.373 . S
C1281 C1283 1.389 . S
C1282 H1255 0.950 . S
C1282 C1268 1.377 . S
C1282 C1281 1.373 . S
C1283 C1267 1.377 . S
C1283 C1281 1.389 . S
C1283 C1284 1.524 . S
C1284 C1283 1.524 . S
C1284 C1285 1.397 . S
C1284 C1289 1.363 . S
C1285 H1256 0.950 . S
C1285 C1284 1.397 . S
C1285 C1286 1.334 . S
C1286 H1257 0.950 . S
C1286 C1285 1.334 . S
C1286 C1287 1.287 . S
C1287 C1286 1.287 . S
C1287 C1288 1.524 . S
C1287 H1290 0.999 . S
C1288 H1258 0.950 . S
C1288 C1287 1.524 . S
C1288 C1289 1.415 . S
C1289 H1259 0.950 . S
C1289 C1284 1.363 . S
C1289 C1288 1.415 . S
H1290 C1287 0.999 . S
H1291 C1272 0.913 . S
H1292 C1310 0.951 . S
H1293 C1312 0.951 . S
H1294 C1314 0.950 . S
H1295 C1315 0.950 . S
H1296 C1317 0.950 . S
H1297 C1320 0.950 . S
H1298 C1321 0.950 . S
H1299 C1323 0.945 1_556 S
H1300 C1324 0.948 . S
H1301 C1325 0.951 . S
H1302 C1327 0.947 1_554 S
H1303 C1329 0.950 . S
H1304 C1330 0.950 . S
H1305 C1332 0.950 . S
H1306 C1335 0.950 . S
H1307 C1336 0.920 1_556 S
H1308 C1338 0.950 . S
H1309 C1339 0.950 . S
C1310 H1292 0.951 . S
C1310 C1311 1.366 . S
C1310 C1312 1.388 . S
C1311 C1310 1.366 . S
C1311 C1315 1.385 . S
C1312 H1293 0.951 . S
C1312 C1310 1.388 . S
C1312 C1313 1.366 . S
C1313 C1312 1.366 . S
C1313 C1314 1.414 . S
C1313 C1316 1.499 . S
C1314 H1294 0.950 . S
C1314 C1313 1.414 . S
C1314 C1315 1.374 . S
C1315 H1295 0.950 . S
C1315 C1311 1.385 . S
C1315 C1314 1.374 . S
C1316 C1313 1.499 . S
C1316 C1317 1.373 . S
C1316 C1318 1.389 . S
C1317 H1296 0.950 . S
C1317 C1316 1.373 . S
C1317 C1333 1.377 . S
C1318 C1316 1.389 . S
C1318 C1319 1.524 . S
C1318 C1332 1.377 . S
C1319 C1318 1.524 . S
C1319 C1320 1.397 . S
C1319 C1324 1.363 . S
C1320 H1297 0.950 . S
C1320 C1319 1.397 . S
C1320 C1321 1.334 . S
C1321 H1298 0.950 . S
C1321 C1320 1.334 . S
C1321 C1322 1.287 . S
C1322 C1321 1.287 . S
C1322 C1323 1.524 . S
C1322 H1341 0.913 . S
C1323 H1299 0.945 1_554 S
C1323 C1322 1.524 . S
C1323 C1324 1.415 . S
C1324 H1300 0.948 . S
C1324 C1319 1.363 . S
C1324 C1323 1.415 . S
C1325 H1301 0.951 . S
C1325 C1326 1.366 . S
C1325 C1327 1.390 . S
C1326 C1325 1.366 . S
C1326 C1330 1.385 . S
C1327 H1302 0.947 1_556 S
C1327 C1325 1.390 . S
C1327 C1328 1.366 . S
C1328 C1327 1.366 . S
C1328 C1329 1.414 . S
C1328 C1331 1.499 1_556 S
C1329 H1303 0.950 . S
C1329 C1328 1.414 . S
C1329 C1330 1.374 . S
C1330 H1304 0.950 . S
C1330 C1326 1.385 . S
C1330 C1329 1.374 . S
C1331 C1328 1.499 1_554 S
C1331 C1332 1.373 . S
C1331 C1333 1.389 . S
C1332 H1305 0.950 . S
C1332 C1318 1.377 . S
C1332 C1331 1.373 . S
C1333 C1317 1.377 . S
C1333 C1331 1.389 . S
C1333 C1334 1.524 . S
C1334 C1333 1.524 . S
C1334 C1335 1.397 . S
C1334 C1339 1.363 . S
C1335 H1306 0.950 . S
C1335 C1334 1.397 . S
C1335 C1336 1.334 . S
C1336 H1307 0.920 1_554 S
C1336 C1335 1.334 . S
C1336 C1337 1.287 . S
C1337 C1336 1.287 . S
C1337 C1338 1.524 . S
C1337 H1340 0.999 . S
C1338 H1308 0.950 . S
C1338 C1337 1.524 . S
C1338 C1339 1.415 . S
C1339 H1309 0.950 . S
C1339 C1334 1.363 . S
C1339 C1338 1.415 . S
H1340 C1337 0.999 . S
H1341 C1322 0.913 . S
H1342 C1360 0.951 . S
H1343 C1362 0.951 . S
H1344 C1364 0.950 . S
H1345 C1365 0.950 . S
H1346 C1367 0.950 . S
H1347 C1370 0.950 . S
H1348 C1371 0.950 . S
H1349 C1373 0.950 . S
H1350 C1374 0.950 . S
H1351 C1375 0.951 . S
H1352 C1377 0.951 . S
H1353 C1379 0.950 . S
H1354 C1380 0.950 . S
H1355 C1382 0.950 . S
H1356 C1385 0.950 . S
H1357 C1386 0.950 . S
H1358 C1388 0.950 . S
H1359 C1389 0.950 . S
C1360 H1342 0.951 . S
C1360 C1361 1.366 . S
C1360 C1362 1.388 . S
C1361 C1360 1.366 . S
C1361 C1365 1.385 . S
C1362 H1343 0.951 . S
C1362 C1360 1.388 . S
C1362 C1363 1.366 . S
C1363 C1362 1.366 . S
C1363 C1364 1.414 . S
C1363 C1366 1.499 . S
C1364 H1344 0.950 . S
C1364 C1363 1.414 . S
C1364 C1365 1.374 . S
C1365 H1345 0.950 . S
C1365 C1361 1.385 . S
C1365 C1364 1.374 . S
C1366 C1363 1.499 . S
C1366 C1367 1.373 . S
C1366 C1368 1.389 . S
C1367 H1346 0.950 . S
C1367 C1366 1.373 . S
C1367 C1383 1.377 . S
C1368 C1366 1.389 . S
C1368 C1369 1.524 . S
C1368 C1382 1.377 . S
C1369 C1368 1.524 . S
C1369 C1370 1.397 . S
C1369 C1374 1.363 . S
C1370 H1347 0.950 . S
C1370 C1369 1.397 . S
C1370 C1371 1.334 . S
C1371 H1348 0.950 . S
C1371 C1370 1.334 . S
C1371 C1372 1.287 . S
C1372 C1371 1.287 . S
C1372 C1373 1.524 . S
C1372 H1391 0.913 . S
C1373 H1349 0.950 . S
C1373 C1372 1.524 . S
C1373 C1374 1.415 . S
C1374 H1350 0.950 . S
C1374 C1369 1.363 . S
C1374 C1373 1.415 . S
C1375 H1351 0.951 . S
C1375 C1376 1.366 . S
C1375 C1377 1.388 . S
C1376 C1375 1.366 . S
C1376 C1380 1.385 . S
C1377 H1352 0.951 . S
C1377 C1375 1.388 . S
C1377 C1378 1.366 . S
C1378 C1377 1.366 . S
C1378 C1379 1.414 . S
C1378 C1381 1.499 . S
C1379 H1353 0.950 . S
C1379 C1378 1.414 . S
C1379 C1380 1.374 . S
C1380 H1354 0.950 . S
C1380 C1376 1.385 . S
C1380 C1379 1.374 . S
C1381 C1378 1.499 . S
C1381 C1382 1.373 . S
C1381 C1383 1.389 . S
C1382 H1355 0.950 . S
C1382 C1368 1.377 . S
C1382 C1381 1.373 . S
C1383 C1367 1.377 . S
C1383 C1381 1.389 . S
C1383 C1384 1.524 . S
C1384 C1383 1.524 . S
C1384 C1385 1.397 . S
C1384 C1389 1.363 . S
C1385 H1356 0.950 . S
C1385 C1384 1.397 . S
C1385 C1386 1.334 . S
C1386 H1357 0.950 . S
C1386 C1385 1.334 . S
C1386 C1387 1.287 . S
C1387 C1386 1.287 . S
C1387 C1388 1.524 . S
C1387 H1390 0.999 . S
C1388 H1358 0.950 . S
C1388 C1387 1.524 . S
C1388 C1389 1.415 . S
C1389 H1359 0.950 . S
C1389 C1384 1.363 . S
C1389 C1388 1.415 . S
H1390 C1387 0.999 . S
H1391 C1372 0.913 . S
C226 C181 1.612 . S
C211 C8 1.559 . S
C261 C26 1.569 . S
C276 C111 1.617 . S
C311 C50 1.580 . S
C326 C130 1.633 . S
C361 C68 1.559 . S
C376 C139 1.616 . S
C426 C153 1.615 . S
C411 C80 1.567 . S
C461 C104 1.573 . S
C476 C172 1.627 . S
C511 C32 1.554 . S
C526 C125 1.609 . S
C561 C44 1.557 . S
C576 C144 1.608 . S
C611 C62 1.561 . S
C626 C158 1.607 . S
C676 C167 1.603 . S
C661 C86 1.549 1_554 S
C726 C186 1.607 . S
C711 C98 1.556 . S
C776 C116 1.611 . S
C761 C14 1.561 . S
C811 C7 1.475 . S
C826 C131 1.513 . S
C861 C25 1.470 . S
C876 C143 1.488 . S
C926 C157 1.491 . S
C911 C52 1.476 . S
C961 C70 1.475 . S
C976 C173 1.514 . S
C1026 C185 1.487 . S
C1011 C79 1.469 . S
C1076 C115 1.492 . S
C1061 C106 1.476 . S
C1126 C187 1.518 . S
C1111 C34 1.479 . S
C1161 C43 1.488 . S
C1176 C117 1.532 . S
C1226 C129 1.504 . S
C1211 C61 1.485 . S
C1261 C88 1.481 . S
C1276 C145 1.519 . S
C1311 C97 1.488 . S
C1326 C159 1.531 . S
C1361 C16 1.486 . S
C1376 C171 1.503 . S
