# Generated by pormake.
# Topology tsx, (6,3)-cn, num edge types: 1
# Building blocks:
#     Node 0, Type 0, BuildingBlock: VOLQOD_clean_sbu_1, # of connection points: 6
#     Node 1, Type 0, BuildingBlock: VOLQOD_clean_sbu_1, # of connection points: 6
#     Node 2, Type 1, BuildingBlock: ESEHIV_clean_linker_0, # of connection points: 3
#     Node 3, Type 1, BuildingBlock: ESEHIV_clean_linker_0, # of connection points: 3
#     Node 4, Type 1, BuildingBlock: ESEHIV_clean_linker_0, # of connection points: 3
#     Node 5, Type 1, BuildingBlock: ESEHIV_clean_linker_0, # of connection points: 3
#     Edge 6, Type (0, 1), BuildingBlock: UVAHIK_clean_linker_0, # of connection points: 2
#     Edge 7, Type (0, 1), BuildingBlock: UVAHIK_clean_linker_0, # of connection points: 2
#     Edge 8, Type (0, 1), BuildingBlock: UVAHIK_clean_linker_0, # of connection points: 2
#     Edge 9, Type (0, 1), BuildingBlock: UVAHIK_clean_linker_0, # of connection points: 2
#     Edge 10, Type (0, 1), BuildingBlock: UVAHIK_clean_linker_0, # of connection points: 2
#     Edge 11, Type (0, 1), BuildingBlock: UVAHIK_clean_linker_0, # of connection points: 2
#     Edge 12, Type (0, 1), BuildingBlock: UVAHIK_clean_linker_0, # of connection points: 2
#     Edge 13, Type (0, 1), BuildingBlock: UVAHIK_clean_linker_0, # of connection points: 2
#     Edge 14, Type (0, 1), BuildingBlock: UVAHIK_clean_linker_0, # of connection points: 2
#     Edge 15, Type (0, 1), BuildingBlock: UVAHIK_clean_linker_0, # of connection points: 2
#     Edge 16, Type (0, 1), BuildingBlock: UVAHIK_clean_linker_0, # of connection points: 2
#     Edge 17, Type (0, 1), BuildingBlock: UVAHIK_clean_linker_0, # of connection points: 2
# Relax obj value: 0.075
# Max RMSD: 0.108
# Mean RMSD: 0.083
data_MOF--net-tsx--node1-VOLQOD_clean_sbu_1--node2-ESEHIV_clean_linker_0--edge1-UVAHIK_clean_linker_0
_symmetry_space_group_name_H-M    P1
_symmetry_Int_Tables_number       1
_symmetry_cell_setting            triclinic
loop_
_symmetry_equiv_pos_as_xyz
'x, y, z'
_cell_length_a     25.08864
_cell_length_b     25.958638
_cell_length_c     49.676595
_cell_angle_alpha  90.661886
_cell_angle_beta   89.92437
_cell_angle_gamma 90.246959
loop_
_atom_site_label
_atom_site_type_symbol
_atom_site_fract_x
_atom_site_fract_y
_atom_site_fract_z
_atom_type_partial_charge
O0 O 0.05348 0.98945 0.07503 0.0
Zn1 Zn 0.07506 0.98779 0.03595 0.0
O2 O 0.01527 0.00476 0.01256 0.0
Zn3 Zn -0.00148 0.94524 0.98959 0.0
Zn4 Zn 0.95365 0.02241 0.03479 0.0
Zn5 Zn 0.03362 0.06359 0.9901 0.0
O6 O 0.00437 0.96291 0.95039 0.0
O7 O 0.03243 0.04417 0.95073 0.0
O8 O 0.10397 0.91735 0.02762 0.0
O9 O 0.04964 0.88734 0.99589 0.0
O10 O 0.92477 0.91826 0.99699 0.0
O11 O 0.89425 0.97171 0.02857 0.0
O12 O 0.92514 0.09224 0.02607 0.0
O13 O 0.13476 0.03881 0.0313 0.0
O14 O 0.98089 0.1211 0.99497 0.0
O15 O 0.1062 0.09143 -0.00048 0.0
C16 C 0.01172 0.00502 0.08717 0.0
C17 C 0.01913 0.00323 0.93801 0.0
C18 C 0.88809 0.93273 0.01309 0.0
C19 C 0.08949 0.8817 0.01138 0.0
C20 C 0.93997 0.12705 0.00984 0.0
C21 C 0.1417 0.07763 0.01623 0.0
O22 O 0.97129 0.0208 0.07425 0.0
O23 O 0.53818 0.4912 0.57401 0.0
Zn24 Zn 0.55803 0.49129 0.53463 0.0
O25 O 0.49737 0.51055 0.51223 0.0
Zn26 Zn 0.4788 0.45299 0.48841 0.0
Zn27 Zn 0.4368 0.52683 0.53536 0.0
Zn28 Zn 0.51519 0.57084 0.49064 0.0
O29 O 0.48455 0.47275 0.44955 0.0
O30 O 0.51368 0.55365 0.45096 0.0
O31 O 0.58562 0.4208 0.52481 0.0
O32 O 0.52864 0.39396 0.49351 0.0
O33 O 0.40514 0.42616 0.49586 0.0
O34 O 0.37695 0.47634 0.52936 0.0
O35 O 0.40825 0.59705 0.528 0.0
O36 O 0.61805 0.54206 0.53013 0.0
O37 O 0.4623 0.62805 0.49669 0.0
O38 O 0.58812 0.59789 0.5002 0.0
C39 C 0.49716 0.50692 0.58676 0.0
C40 C 0.49984 0.51348 0.43771 0.0
C41 C 0.36965 0.43891 0.51298 0.0
C42 C 0.56916 0.38645 0.50829 0.0
C43 C 0.42209 0.63288 0.51217 0.0
C44 C 0.62441 0.58231 0.51603 0.0
O45 O 0.45641 0.52366 0.57445 0.0
H46 H 0.90704 0.02832 0.37942 0.0
H47 H 0.05867 0.95168 0.38119 0.0
H48 H 0.98054 0.99461 0.45513 0.0
C49 C 0.93987 0.01209 0.39058 0.0
C50 C 0.93888 0.01412 0.41883 0.0
C51 C 0.98319 0.99014 0.3767 0.0
C52 C 0.02518 0.96895 0.39161 0.0
C53 C 0.02435 0.96985 0.41992 0.0
C54 C 0.98121 0.99296 0.43333 0.0
H55 H 0.9801 0.92469 0.64434 0.0
H56 H 0.05728 0.0729 0.64427 0.0
H57 H 0.01336 -0.00016 0.56945 0.0
C58 C -0.0027 0.95672 0.6335 0.0
C59 C -0.00465 0.95665 0.60522 0.0
C60 C 0.01914 -0.00135 0.64788 0.0
C61 C 0.03896 0.0409 0.63351 0.0
C62 C 0.03659 0.04182 0.60528 0.0
C63 C 0.0151 -0.0006 0.59124 0.0
H64 H 0.4084 0.51817 0.88229 0.0
H65 H 0.55487 0.43342 0.87663 0.0
H66 H 0.48783 0.46879 0.95415 0.0
C67 C 0.44097 0.49821 0.89185 0.0
C68 C 0.44381 0.49715 0.92013 0.0
C69 C 0.48045 0.4747 0.87587 0.0
C70 C 0.5229 0.44976 0.88862 0.0
C71 C 0.52577 0.44731 0.91679 0.0
C72 C 0.48607 0.47105 0.9324 0.0
H73 H 0.47957 0.43399 0.14452 0.0
H74 H 0.55589 0.58264 0.14379 0.0
H75 H 0.51841 0.50506 0.06925 0.0
C76 C 0.49735 0.46559 0.13357 0.0
C77 C 0.49776 0.46391 0.10529 0.0
C78 C 0.51784 0.5084 0.14775 0.0
C79 C 0.53852 0.54999 0.13316 0.0
C80 C 0.53851 0.54924 0.10488 0.0
C81 C 0.5183 0.50596 0.09107 0.0
C82 C 0.23188 0.09295 0.03639 0.0
C83 C 0.19061 0.10912 0.01939 0.0
C84 C 0.27548 0.1251 0.04163 0.0
C85 C 0.34413 0.24521 0.02022 0.0
H86 H 0.37753 0.25745 0.09622 0.0
C87 C 0.44024 0.42541 0.06903 0.0
C88 C 0.4751 0.41872 0.0908 0.0
C89 C 0.41487 0.38298 0.05709 0.0
C90 C 0.3696 0.25389 0.07485 0.0
H91 H 0.16414 0.17071 0.99348 0.0
H92 H 0.23956 0.22714 0.00308 0.0
H93 H 0.31641 0.19072 0.08087 0.0
H94 H 0.51357 0.36228 0.11597 0.0
H95 H 0.46932 0.2881 0.0951 0.0
H96 H 0.39614 0.30989 0.0145 0.0
C97 C 0.23865 0.18935 0.01209 0.0
C98 C 0.33452 0.21554 0.06602 0.0
C99 C 0.19517 0.1571 0.00673 0.0
C100 C 0.48606 0.36861 0.09956 0.0
C101 C 0.46081 0.32621 0.0876 0.0
C102 C 0.37925 0.28375 0.02908 0.0
C103 C 0.27863 0.17421 0.0301 0.0
C104 C 0.32063 0.21129 0.03869 0.0
C105 C 0.42397 0.33304 0.06668 0.0
C106 C 0.39161 0.28901 0.05657 0.0
H107 H 0.22997 0.05595 0.04621 0.0
H108 H 0.30614 0.11195 0.05522 0.0
H109 H 0.33474 0.24246 -0.00102 0.0
H110 H 0.43074 0.46363 0.06198 0.0
H111 H 0.38624 0.38957 0.04121 0.0
C112 C 0.1066 0.79444 0.99122 0.0
C113 C 0.12114 0.83383 0.00948 0.0
C114 C 0.13905 0.75137 0.98761 0.0
C115 C 0.27893 0.71547 0.99253 0.0
H116 H 0.22559 0.57761 0.97767 0.0
C117 C 0.42103 0.55486 0.95925 0.0
C118 C 0.40428 0.52572 0.93675 0.0
C119 C 0.38506 0.586 0.97331 0.0
C120 C 0.24104 0.61594 0.98172 0.0
H121 H 0.17985 0.85749 0.03928 0.0
H122 H 0.23636 0.78217 0.03296 0.0
H123 H 0.16423 0.64452 0.99327 0.0
H124 H 0.33586 0.50398 0.91244 0.0
H125 H 0.27349 0.55972 0.93635 0.0
H126 H 0.35515 0.68788 0.98006 0.0
C127 C 0.20016 0.78504 0.02122 0.0
C128 C 0.20596 0.65417 0.99067 0.0
C129 C 0.16767 0.8281 0.02488 0.0
C130 C 0.35023 0.52667 0.92938 0.0
C131 C 0.3143 0.55807 0.94335 0.0
C132 C 0.31389 0.6774 0.98351 0.0
C133 C 0.18675 0.74677 0.00215 0.0
C134 C 0.22442 0.70456 0.9957 0.0
C135 C 0.3316 0.589 0.96508 0.0
C136 C 0.29523 0.62743 0.97753 0.0
H137 H 0.07091 0.79749 0.97911 0.0
H138 H 0.12791 0.72279 0.97256 0.0
H139 H 0.29424 0.75411 0.9958 0.0
H140 H 0.46244 0.55531 0.96539 0.0
H141 H 0.39947 0.60875 0.99022 0.0
C142 C 0.79627 0.91892 0.03142 0.0
C143 C 0.83888 0.90154 0.01537 0.0
C144 C 0.75276 0.88679 0.03648 0.0
C145 C 0.68761 0.76294 0.01681 0.0
H146 H 0.65323 0.75794 0.09286 0.0
C147 C 0.59588 0.58548 0.06831 0.0
C148 C 0.56061 0.59348 0.08992 0.0
C149 C 0.62025 0.62731 0.05577 0.0
C150 C 0.6614 0.75942 0.07146 0.0
H151 H 0.86762 0.83797 0.99066 0.0
H152 H 0.79228 0.78157 -4e-05 0.0
H153 H 0.71254 0.82464 0.07653 0.0
H154 H 0.52042 0.65136 0.11421 0.0
H155 H 0.56284 0.72448 0.09226 0.0
H156 H 0.63767 0.69626 0.01207 0.0
C157 C 0.79214 0.82023 0.00839 0.0
C158 C 0.69543 0.79778 0.06207 0.0
C159 C 0.83555 0.85248 0.0032 0.0
C160 C 0.54829 0.6441 0.09794 0.0
C161 C 0.57249 0.6859 0.08536 0.0
C162 C 0.65348 0.72442 0.02624 0.0
C163 C 0.75104 0.8365 0.02572 0.0
C164 C 0.70972 0.79946 0.03474 0.0
C165 C 0.60968 0.67793 0.06456 0.0
C166 C 0.64082 0.72175 0.05377 0.0
H167 H 0.79721 0.95679 0.0408 0.0
H168 H 0.72118 0.9008 0.04949 0.0
H169 H 0.69738 0.76363 0.99557 0.0
H170 H 0.60636 0.54684 0.06183 0.0
H171 H 0.64921 0.61986 0.04002 0.0
C172 C 0.85673 0.17676 0.01956 0.0
C173 C 0.90627 0.17314 0.00643 0.0
C174 C 0.82132 0.21615 0.01329 0.0
C175 C 0.75685 0.31203 0.00138 0.0
H176 H 0.74248 0.32896 0.92427 0.0
C177 C 0.59716 0.44245 0.9521 0.0
C178 C 0.57093 0.42056 0.9297 0.0
C179 C 0.64134 0.41808 0.96331 0.0
C180 C 0.746 0.32465 0.94586 0.0
H181 H 0.95926 0.21056 0.97806 0.0
H182 H 0.89765 0.27966 0.9674 0.0
H183 H 0.81577 0.27854 0.94177 0.0
H184 H 0.56898 0.35505 0.90222 0.0
H185 H 0.64592 0.31268 0.92171 0.0
H186 H 0.68536 0.35647 0.00521 0.0
C187 C 0.88576 0.25131 0.98209 0.0
C188 C 0.78845 0.29636 0.95593 0.0
C189 C 0.92112 0.21181 0.98828 0.0
C190 C 0.58902 0.37337 0.91913 0.0
C191 C 0.63311 0.34916 0.93026 0.0
C192 C 0.71428 0.34048 0.99126 0.0
C193 C 0.83479 0.25289 0.99385 0.0
C194 C 0.79378 0.28882 0.98376 0.0
C195 C 0.66012 0.37152 0.95225 0.0
C196 C 0.70779 0.34596 0.96336 0.0
H197 H 0.8441 0.14778 0.03376 0.0
H198 H 0.78223 0.21601 0.02257 0.0
H199 H 0.76021 0.30727 0.02294 0.0
H200 H 0.58438 0.47904 0.96052 0.0
H201 H 0.66155 0.43625 0.9802 0.0
C202 C 0.71567 0.59527 0.53544 0.0
C203 C 0.67381 0.61311 0.51928 0.0
C204 C 0.76004 0.62643 0.54064 0.0
C205 C 0.82996 0.74632 0.51998 0.0
H206 H 0.86902 0.75337 0.59544 0.0
C207 C 0.93428 0.92138 0.56955 0.0
C208 C 0.97056 0.91271 0.59052 0.0
C209 C 0.90693 0.88021 0.55753 0.0
C210 C 0.85948 0.75124 0.57419 0.0
H211 H 0.64701 0.67679 0.49488 0.0
H212 H 0.72385 0.73146 0.50441 0.0
H213 H 0.80508 0.689 0.58021 0.0
H214 H 0.00931 0.85399 0.61412 0.0
H215 H 0.96151 0.78202 0.59312 0.0
H216 H 0.88327 0.81001 0.51429 0.0
C217 C 0.72275 0.69313 0.51278 0.0
C218 C 0.82277 0.71425 0.56544 0.0
C219 C 0.67846 0.66188 0.50747 0.0
C220 C 0.98079 0.86187 0.59836 0.0
C221 C 0.95351 0.82072 0.58632 0.0
C222 C 0.86671 0.78347 0.52878 0.0
C223 C 0.76347 0.6762 0.52991 0.0
C224 C 0.80686 0.71191 0.53833 0.0
C225 C 0.91535 0.82955 0.56622 0.0
C226 C 0.88113 0.78687 0.55608 0.0
H227 H 0.71369 0.55765 0.5446 0.0
H228 H 0.79121 0.61192 0.55354 0.0
H229 H 0.81906 0.745 0.4989 0.0
H230 H 0.92522 0.96017 0.56325 0.0
H231 H 0.87733 0.88836 0.54232 0.0
C232 C 0.64948 0.33199 0.51688 0.0
C233 C 0.59901 0.33778 0.50508 0.0
C234 C 0.67985 0.28807 0.51149 0.0
C235 C 0.69633 0.19038 0.45849 0.0
H236 H 0.79323 0.12842 0.50939 0.0
C237 C 0.84154 0.03231 0.42491 0.0
C238 C 0.89453 0.0402 0.43312 0.0
C239 C 0.80029 0.06029 0.4369 0.0
C240 C 0.76635 0.1454 0.49497 0.0
H241 H 0.53938 0.3005 0.47981 0.0
H242 H 0.59206 0.22376 0.47074 0.0
H243 H 0.72933 0.193 0.52508 0.0
H244 H 0.94576 0.08237 0.46083 0.0
H245 H 0.87387 0.13148 0.48162 0.0
H246 H 0.73414 0.14421 0.42825 0.0
C247 C 0.60865 0.25365 0.48365 0.0
C248 C 0.72985 0.18234 0.50394 0.0
C249 C 0.57844 0.2976 0.48892 0.0
C250 C 0.90523 0.07511 0.45426 0.0
C251 C 0.86402 0.10314 0.46623 0.0
C252 C 0.7327 0.15352 0.44955 0.0
C253 C 0.66022 0.24899 0.4943 0.0
C254 C 0.69509 0.20587 0.48568 0.0
C255 C 0.81125 0.09679 0.45729 0.0
C256 C 0.76877 0.13131 0.46759 0.0
H257 H 0.66645 0.36219 0.52947 0.0
H258 H 0.71964 0.28588 0.51981 0.0
H259 H 0.67078 0.20838 0.4438 0.0
H260 H 0.83207 0.00495 0.40897 0.0
H261 H 0.7599 0.05399 0.42989 0.0
C262 C 0.31748 0.35884 0.50226 0.0
C263 C 0.3211 0.40683 0.51556 0.0
C264 C 0.27549 0.32513 0.50783 0.0
C265 C 0.18562 0.29577 0.56362 0.0
H266 H 0.12524 0.19654 0.51316 0.0
C267 C 0.0447 0.13717 0.59988 0.0
C268 C 0.05693 0.08725 0.59066 0.0
C269 C 0.06725 0.1801 0.58758 0.0
C270 C 0.14184 0.22402 0.52746 0.0
H271 H 0.28109 0.45879 0.54345 0.0
H272 H 0.20738 0.40032 0.55279 0.0
H273 H 0.18133 0.26664 0.49653 0.0
H274 H 0.10065 0.04307 0.56072 0.0
H275 H 0.14068 0.11815 0.53936 0.0
H276 H 0.14771 0.25265 0.5946 0.0
C277 C 0.23776 0.38822 0.53858 0.0
C278 C 0.17389 0.26412 0.51795 0.0
C279 C 0.27992 0.4218 0.53315 0.0
C280 C 0.09034 0.08114 0.56815 0.0
C281 C 0.11309 0.12414 0.55588 0.0
C282 C 0.15362 0.25588 0.57308 0.0
C283 C 0.23606 0.33883 0.5267 0.0
C284 C 0.19686 0.29992 0.53601 0.0
C285 C 0.10268 0.17402 0.56585 0.0
C286 C 0.13209 0.21906 0.55518 0.0
H287 H 0.34846 0.34615 0.48853 0.0
H288 H 0.27564 0.28724 0.49847 0.0
H289 H 0.20352 0.32198 0.57816 0.0
H290 H 0.01818 0.143 0.61686 0.0
H291 H 0.0577 0.21808 0.5954 0.0
C292 C 0.39795 0.71637 0.49052 0.0
C293 C 0.38811 0.67912 0.51026 0.0
C294 C 0.36161 0.75611 0.48635 0.0
C295 C 0.21924 0.77841 0.49268 0.0
H296 H 0.25466 0.91831 0.47253 0.0
C297 C 0.05635 0.91682 0.45852 0.0
C298 C 0.06796 0.94569 0.43546 0.0
C299 C 0.09677 0.89126 0.47216 0.0
C300 C 0.2442 0.87929 0.47801 0.0
H301 H 0.33442 0.65668 0.54245 0.0
H302 H 0.27132 0.72606 0.53515 0.0
H303 H 0.32468 0.86134 0.48883 0.0
H304 H 0.13169 0.97248 0.4095 0.0
H305 H 0.20183 0.92599 0.43254 0.0
H306 H 0.13954 0.79507 0.48089 0.0
C307 C 0.30665 0.72398 0.52263 0.0
C308 C 0.28423 0.8468 0.4874 0.0
C309 C 0.34292 0.68432 0.52683 0.0
C310 C 0.12122 0.94975 0.42688 0.0
C311 C 0.1616 0.92377 0.44038 0.0
C312 C 0.17941 0.81065 0.48317 0.0
C313 C 0.31481 0.75931 0.50183 0.0
C314 C 0.2722 0.79584 0.49449 0.0
C315 C 0.14969 0.89347 0.46289 0.0
C316 C 0.19148 0.86124 0.47536 0.0
H317 H 0.4325 0.71365 0.47749 0.0
H318 H 0.36878 0.78264 0.47005 0.0
H319 H 0.20889 0.73902 0.49751 0.0
H320 H 0.01575 0.91255 0.46561 0.0
H321 H 0.08635 0.86893 0.4897 0.0
C322 C 0.04292 0.97057 0.13124 0.0
C323 C 0.00967 0.00383 0.11688 0.0
C324 C 0.0397 0.96818 0.15927 0.0
C325 C 0.95109 0.00405 0.21682 0.0
H326 H 0.07831 0.97827 0.25875 0.0
C327 C 0.96525 0.03247 0.33232 0.0
C328 C 0.98503 0.99025 0.34672 0.0
C329 C 0.96735 0.03291 0.30423 0.0
C330 C 0.04248 0.98517 0.24721 0.0
H331 H 0.94795 0.06165 0.12063 0.0
H332 H 0.94397 0.05935 0.16953 0.0
H333 H 0.08469 0.98321 0.20986 0.0
H334 H 0.02185 0.91496 0.3425 0.0
H335 H 0.02749 0.91702 0.29347 0.0
H336 H 0.90956 0.00797 0.25453 0.0
C337 C 0.97123 0.03362 0.15921 0.0
C338 C 0.04595 0.98775 0.21919 0.0
C339 C 0.97376 0.03528 0.13114 0.0
C340 C 0.00718 0.94858 0.33222 0.0
C341 C 0.01017 0.94952 0.30414 0.0
C342 C 0.94788 0.00242 0.24487 0.0
C343 C 0.00383 -0.00029 0.17367 0.0
C344 C 0.00026 -0.00287 0.20358 0.0
C345 C 0.99016 0.99162 0.28994 0.0
C346 C 0.9935 0.99285 0.26026 0.0
H347 H 0.07066 0.94551 0.12077 0.0
H348 H 0.06476 0.94088 0.16956 0.0
H349 H 0.91481 0.01019 0.20556 0.0
H350 H 0.94897 0.06576 0.34271 0.0
H351 H 0.95217 0.06605 0.29368 0.0
C352 C 0.0226 0.04869 0.89383 0.0
C353 C 0.02067 0.00247 0.90824 0.0
C354 C 0.02322 0.04794 0.86571 0.0
C355 C 0.99379 0.96265 0.80687 0.0
H356 H 0.0756 0.0652 0.76824 0.0
C357 C 0.0308 0.95309 0.69194 0.0
C358 C 0.02054 -0.00129 0.67784 0.0
C359 C 0.03146 0.95314 0.72006 0.0
C360 C 0.05238 0.03652 0.77881 0.0
H361 H 0.01895 0.91915 0.90445 0.0
H362 H 0.02185 0.91773 0.8555 0.0
H363 H 0.07652 0.06564 0.81733 0.0
H364 H 0.00228 0.08005 0.68251 0.0
H365 H 0.00512 0.08024 0.73155 0.0
H366 H 0.97077 0.93298 0.76815 0.0
C367 C 0.02129 0.95469 0.86582 0.0
C368 C 0.05265 0.03686 0.80693 0.0
C369 C 0.01996 0.95547 0.89393 0.0
C370 C 0.01137 0.04442 0.69262 0.0
C371 C 0.01275 0.04456 0.72071 0.0
C372 C 0.99413 0.96194 0.77875 0.0
C373 C 0.02265 0.00091 0.85132 0.0
C374 C 0.02312 8e-05 0.82135 0.0
C375 C 0.02259 -0.00109 0.73469 0.0
C376 C 0.02318 -0.00098 0.76448 0.0
H377 H 0.02279 0.08557 0.90426 0.0
H378 H 0.02329 0.08433 0.85527 0.0
H379 H 0.96976 0.93433 0.81722 0.0
H380 H 0.03895 0.91737 0.68126 0.0
H381 H 0.03968 0.91752 0.73039 0.0
C382 C 0.46215 0.5373 0.63128 0.0
C383 C 0.49625 0.50492 0.61645 0.0
C384 C 0.46038 0.53479 0.65933 0.0
C385 C 0.53442 0.48327 0.71825 0.0
H386 H 0.39987 0.50718 0.75479 0.0
C387 C 0.4966 0.43569 0.83 0.0
C388 C 0.47861 0.47735 0.84594 0.0
C389 C 0.4979 0.43914 0.80199 0.0
C390 C 0.43768 0.50064 0.74478 0.0
H391 H 0.55486 0.44416 0.61926 0.0
H392 H 0.55015 0.43802 0.66805 0.0
H393 H 0.4042 0.51224 0.70584 0.0
H394 H 0.44716 0.55516 0.84454 0.0
H395 H 0.44728 0.55996 0.7955 0.0
H396 H 0.56705 0.46971 0.75738 0.0
C397 C 0.52601 0.46669 0.65823 0.0
C398 C 0.44039 0.50387 0.71676 0.0
C399 C 0.52854 0.46994 0.6302 0.0
C400 C 0.46043 0.52195 0.83302 0.0
C401 C 0.46078 0.52495 0.80495 0.0
C402 C 0.53138 0.47905 0.74621 0.0
C403 C 0.49189 0.49909 0.6732 0.0
C404 C 0.48889 0.49544 0.70309 0.0
C405 C 0.48021 0.48384 0.78927 0.0
C406 C 0.48306 0.48789 0.75968 0.0
H407 H 0.43715 0.56501 0.62122 0.0
H408 H 0.43453 0.56122 0.67009 0.0
H409 H 0.57271 0.47758 0.70862 0.0
H410 H 0.50975 0.40028 0.83914 0.0
H411 H 0.51246 0.40671 0.79023 0.0
C412 C 0.50468 0.56046 0.39397 0.0
C413 C 0.50202 0.5138 0.40796 0.0
C414 C 0.50636 0.56055 0.36584 0.0
C415 C 0.47947 0.47664 0.3061 0.0
H416 H 0.5645 0.57888 0.26902 0.0
C417 C 0.5267 0.46474 0.19246 0.0
C418 C 0.51727 0.50976 0.17771 0.0
C419 C 0.52502 0.46576 0.22055 0.0
C420 C 0.54036 0.55033 0.27916 0.0
H421 H 0.50011 0.4306 0.40346 0.0
H422 H 0.50489 0.43062 0.3546 0.0
H423 H 0.5618 0.57933 0.31812 0.0
H424 H 0.49851 0.59119 0.1812 0.0
H425 H 0.49729 0.59305 0.23031 0.0
H426 H 0.45932 0.44694 0.267 0.0
C427 C 0.50401 0.46729 0.36519 0.0
C428 C 0.53855 0.55067 0.30728 0.0
C429 C 0.50159 0.46724 0.39327 0.0
C430 C 0.50688 0.55596 0.19184 0.0
C431 C 0.50594 0.55708 0.21996 0.0
C432 C 0.4819 0.4759 0.27802 0.0
C433 C 0.50613 0.51394 0.35108 0.0
C434 C 0.50803 0.51383 0.32113 0.0
C435 C 0.51462 0.51191 0.23454 0.0
C436 C 0.5123 0.51276 0.26431 0.0
H437 H 0.50472 0.59701 0.40472 0.0
H438 H 0.50707 0.59724 0.3557 0.0
H439 H 0.45464 0.44834 0.31599 0.0
H440 H 0.5359 0.4287 0.18232 0.0
H441 H 0.5325 0.43053 0.23138 0.0
loop_
_geom_bond_atom_site_label_1
_geom_bond_atom_site_label_2
_geom_bond_distance
_geom_bond_site_symmetry_2
_ccdc_geom_bond_type
O0 Zn1 1.953 . S
O0 C16 1.225 1_565 S
Zn1 O0 1.953 . S
Zn1 O2 1.949 1_565 S
Zn1 O8 1.919 . S
Zn1 O13 1.924 1_565 S
O2 Zn1 1.949 1_545 S
O2 Zn3 1.923 1_444 S
O2 Zn4 1.950 1_455 S
O2 Zn5 1.945 1_554 S
Zn3 O2 1.923 1_666 S
Zn3 O6 1.933 . S
Zn3 O9 1.941 1_655 S
Zn3 O10 1.964 . S
Zn4 O2 1.950 1_655 S
Zn4 O11 1.938 1_545 S
Zn4 O12 1.906 . S
Zn4 O22 1.953 . S
Zn5 O2 1.945 1_556 S
Zn5 O7 1.932 . S
Zn5 O14 1.977 1_455 S
Zn5 O15 1.910 1_556 S
O6 Zn3 1.933 . S
O6 C17 1.226 1_665 S
O7 Zn5 1.932 . S
O7 C17 1.307 . S
O8 Zn1 1.919 . S
O8 C19 1.253 . S
O9 Zn3 1.941 1_455 S
O9 C19 1.283 1_556 S
O10 Zn3 1.964 . S
O10 C18 1.307 1_556 S
O11 Zn4 1.938 1_565 S
O11 C18 1.247 . S
O12 Zn4 1.906 . S
O12 C20 1.304 . S
O13 Zn1 1.924 1_545 S
O13 C21 1.311 . S
O14 Zn5 1.977 1_655 S
O14 C20 1.272 1_556 S
O15 Zn5 1.910 1_554 S
O15 C21 1.231 . S
C16 O0 1.225 1_545 S
C16 O22 1.298 1_455 S
C17 O6 1.226 1_445 S
C17 O7 1.307 . S
C18 O10 1.307 1_554 S
C18 O11 1.247 . S
C19 O8 1.253 . S
C19 O9 1.283 1_554 S
C20 O12 1.304 . S
C20 O14 1.272 1_554 S
C21 O13 1.311 . S
C21 O15 1.231 . S
O22 Zn4 1.953 . S
O22 C16 1.298 1_655 S
O23 Zn24 1.953 . S
O23 C39 1.225 . S
Zn24 O23 1.953 . S
Zn24 O25 1.949 . S
Zn24 O31 1.919 . S
Zn24 O36 1.924 . S
O25 Zn24 1.949 . S
O25 Zn26 1.923 . S
O25 Zn27 1.950 . S
O25 Zn28 1.945 . S
Zn26 O25 1.923 . S
Zn26 O29 1.933 . S
Zn26 O32 1.941 . S
Zn26 O33 1.965 . S
Zn27 O25 1.950 . S
Zn27 O34 1.938 . S
Zn27 O35 1.906 . S
Zn27 O45 1.953 . S
Zn28 O25 1.945 . S
Zn28 O30 1.932 . S
Zn28 O37 1.977 . S
Zn28 O38 1.910 . S
O29 Zn26 1.933 . S
O29 C40 1.226 . S
O30 Zn28 1.932 . S
O30 C40 1.307 . S
O31 Zn24 1.919 . S
O31 C42 1.253 . S
O32 Zn26 1.941 . S
O32 C42 1.283 . S
O33 Zn26 1.965 . S
O33 C41 1.303 . S
O34 Zn27 1.938 . S
O34 C41 1.247 . S
O35 Zn27 1.906 . S
O35 C43 1.304 . S
O36 Zn24 1.924 . S
O36 C44 1.311 . S
O37 Zn28 1.977 . S
O37 C43 1.272 . S
O38 Zn28 1.910 . S
O38 C44 1.231 . S
C39 O23 1.225 . S
C39 O45 1.298 . S
C40 O29 1.226 . S
C40 O30 1.307 . S
C41 O33 1.303 . S
C41 O34 1.247 . S
C42 O31 1.253 . S
C42 O32 1.283 . S
C43 O35 1.304 . S
C43 O37 1.272 . S
C44 O36 1.311 . S
C44 O38 1.231 . S
O45 Zn27 1.953 . S
O45 C39 1.298 . S
H46 C49 0.931 . S
H47 C52 0.928 . S
H48 C54 0.930 1_545 S
C49 H46 0.931 . S
C49 C50 1.413 . S
C49 C51 1.357 1_545 S
C50 C49 1.413 . S
C50 C54 1.422 1_645 S
C51 C49 1.357 1_565 S
C51 C52 1.375 1_655 S
C52 H47 0.928 . S
C52 C51 1.375 1_455 S
C52 C53 1.404 . S
C53 C52 1.404 . S
C53 C54 1.398 . S
C54 H48 0.930 1_565 S
C54 C50 1.422 1_465 S
C54 C53 1.398 . S
H55 C58 0.931 . S
H56 C61 0.928 . S
H57 C63 0.930 . S
C58 H55 0.931 . S
C58 C59 1.413 . S
C58 C60 1.360 1_665 S
C59 C58 1.413 . S
C59 C63 1.429 1_665 S
C60 C58 1.360 1_445 S
C60 C61 1.372 . S
C61 H56 0.928 . S
C61 C60 1.372 . S
C61 C62 1.404 . S
C62 C61 1.404 . S
C62 C63 1.391 . S
C63 H57 0.930 . S
C63 C59 1.429 1_445 S
C63 C62 1.391 . S
H64 C67 0.931 . S
H65 C70 0.928 . S
H66 C72 0.930 . S
C67 H64 0.931 . S
C67 C68 1.413 . S
C67 C69 1.360 . S
C68 C67 1.413 . S
C68 C72 1.429 . S
C69 C67 1.360 . S
C69 C70 1.372 . S
C70 H65 0.928 . S
C70 C69 1.372 . S
C70 C71 1.404 . S
C71 C70 1.404 . S
C71 C72 1.391 . S
C72 H66 0.930 . S
C72 C68 1.429 . S
C72 C71 1.391 . S
H73 C76 0.931 . S
H74 C79 0.928 . S
H75 C81 0.930 . S
C76 H73 0.931 . S
C76 C77 1.413 . S
C76 C78 1.360 . S
C77 C76 1.413 . S
C77 C81 1.429 . S
C78 C76 1.360 . S
C78 C79 1.372 . S
C79 H74 0.928 . S
C79 C78 1.372 . S
C79 C80 1.404 . S
C80 C79 1.404 . S
C80 C81 1.391 . S
C81 H75 0.930 . S
C81 C77 1.429 . S
C81 C80 1.391 . S
C82 C83 1.349 . S
C82 C84 1.327 . S
C82 H107 0.950 . S
C83 C82 1.349 . S
C83 C99 1.349 . S
C84 C82 1.327 . S
C84 C103 1.429 . S
C84 H108 0.950 . S
C85 C102 1.574 . S
C85 C104 1.368 . S
C85 H109 0.949 . S
H86 C90 0.949 . S
C87 C88 1.349 . S
C87 C89 1.327 . S
C87 H110 0.950 . S
C88 C87 1.349 . S
C88 C100 1.349 . S
C89 C87 1.327 . S
C89 C105 1.429 . S
C89 H111 0.950 . S
C90 H86 0.949 . S
C90 C98 1.574 . S
C90 C106 1.368 . S
H91 C99 0.950 . S
H92 C97 0.950 . S
H93 C98 0.949 . S
H94 C100 0.950 . S
H95 C101 0.950 . S
H96 C102 0.949 . S
C97 H92 0.950 . S
C97 C99 1.327 . S
C97 C103 1.429 . S
C98 C90 1.574 . S
C98 H93 0.949 . S
C98 C104 1.368 . S
C99 C83 1.349 . S
C99 H91 0.950 . S
C99 C97 1.327 . S
C100 C88 1.349 . S
C100 H94 0.950 . S
C100 C101 1.327 . S
C101 H95 0.950 . S
C101 C100 1.327 . S
C101 C105 1.429 . S
C102 C85 1.574 . S
C102 H96 0.949 . S
C102 C106 1.368 . S
C103 C84 1.429 . S
C103 C97 1.429 . S
C103 C104 1.523 . S
C104 C85 1.368 . S
C104 C98 1.368 . S
C104 C103 1.523 . S
C105 C89 1.429 . S
C105 C101 1.429 . S
C105 C106 1.523 . S
C106 C90 1.368 . S
C106 C102 1.368 . S
C106 C105 1.523 . S
H107 C82 0.950 . S
H108 C84 0.950 . S
H109 C85 0.949 . S
H110 C87 0.950 . S
H111 C89 0.950 . S
C112 C113 1.351 . S
C112 C114 1.331 . S
C112 H137 0.944 1_556 S
C113 C112 1.351 . S
C113 C129 1.349 . S
C114 C112 1.331 . S
C114 C133 1.429 . S
C114 H138 0.950 . S
C115 C132 1.574 . S
C115 C134 1.368 . S
C115 H139 0.949 . S
H116 C120 0.949 . S
C117 C118 1.349 . S
C117 C119 1.327 . S
C117 H140 0.950 . S
C118 C117 1.349 . S
C118 C130 1.349 . S
C119 C117 1.327 . S
C119 C135 1.429 . S
C119 H141 0.950 . S
C120 H116 0.949 . S
C120 C128 1.574 . S
C120 C136 1.368 . S
H121 C129 0.950 . S
H122 C127 0.950 . S
H123 C128 0.949 . S
H124 C130 0.950 . S
H125 C131 0.950 . S
H126 C132 0.949 . S
C127 H122 0.950 . S
C127 C129 1.327 . S
C127 C133 1.429 . S
C128 C120 1.574 . S
C128 H123 0.949 . S
C128 C134 1.368 . S
C129 C113 1.349 . S
C129 H121 0.950 . S
C129 C127 1.327 . S
C130 C118 1.349 . S
C130 H124 0.950 . S
C130 C131 1.327 . S
C131 H125 0.950 . S
C131 C130 1.327 . S
C131 C135 1.429 . S
C132 C115 1.574 . S
C132 H126 0.949 . S
C132 C136 1.368 . S
C133 C114 1.429 . S
C133 C127 1.429 . S
C133 C134 1.523 . S
C134 C115 1.368 . S
C134 C128 1.368 . S
C134 C133 1.523 . S
C135 C119 1.429 . S
C135 C131 1.429 . S
C135 C136 1.523 . S
C136 C120 1.368 . S
C136 C132 1.368 . S
C136 C135 1.523 . S
H137 C112 0.944 1_554 S
H138 C114 0.950 . S
H139 C115 0.949 . S
H140 C117 0.950 . S
H141 C119 0.950 . S
C142 C143 1.349 . S
C142 C144 1.327 . S
C142 H167 0.950 . S
C143 C142 1.349 . S
C143 C159 1.349 . S
C144 C142 1.327 . S
C144 C163 1.429 . S
C144 H168 0.950 . S
C145 C162 1.574 . S
C145 C164 1.368 . S
C145 H169 0.949 . S
H146 C150 0.949 . S
C147 C148 1.349 . S
C147 C149 1.327 . S
C147 H170 0.950 . S
C148 C147 1.349 . S
C148 C160 1.349 . S
C149 C147 1.327 . S
C149 C165 1.429 . S
C149 H171 0.950 . S
C150 H146 0.949 . S
C150 C158 1.574 . S
C150 C166 1.368 . S
H151 C159 0.950 . S
H152 C157 0.950 . S
H153 C158 0.949 . S
H154 C160 0.950 . S
H155 C161 0.950 . S
H156 C162 0.949 . S
C157 H152 0.950 . S
C157 C159 1.327 . S
C157 C163 1.429 . S
C158 C150 1.574 . S
C158 H153 0.949 . S
C158 C164 1.368 . S
C159 C143 1.349 . S
C159 H151 0.950 . S
C159 C157 1.327 . S
C160 C148 1.349 . S
C160 H154 0.950 . S
C160 C161 1.327 . S
C161 H155 0.950 . S
C161 C160 1.327 . S
C161 C165 1.429 . S
C162 C145 1.574 . S
C162 H156 0.949 . S
C162 C166 1.368 . S
C163 C144 1.429 . S
C163 C157 1.429 . S
C163 C164 1.523 . S
C164 C145 1.368 . S
C164 C158 1.368 . S
C164 C163 1.523 . S
C165 C149 1.429 . S
C165 C161 1.429 . S
C165 C166 1.523 . S
C166 C150 1.368 . S
C166 C162 1.368 . S
C166 C165 1.523 . S
H167 C142 0.950 . S
H168 C144 0.950 . S
H169 C145 0.949 . S
H170 C147 0.950 . S
H171 C149 0.950 . S
C172 C173 1.349 . S
C172 C174 1.327 . S
C172 H197 0.950 . S
C173 C172 1.349 . S
C173 C189 1.349 1_556 S
C174 C172 1.327 . S
C174 C193 1.429 . S
C174 H198 0.950 . S
C175 C192 1.574 . S
C175 C194 1.368 . S
C175 H199 0.949 . S
H176 C180 0.949 . S
C177 C178 1.349 . S
C177 C179 1.327 . S
C177 H200 0.950 . S
C178 C177 1.349 . S
C178 C190 1.349 . S
C179 C177 1.327 . S
C179 C195 1.429 . S
C179 H201 0.950 . S
C180 H176 0.949 . S
C180 C188 1.574 . S
C180 C196 1.368 . S
H181 C189 0.950 . S
H182 C187 0.950 1_554 S
H183 C188 0.949 . S
H184 C190 0.950 . S
H185 C191 0.950 . S
H186 C192 0.949 . S
C187 H182 0.950 1_556 S
C187 C189 1.327 1_556 S
C187 C193 1.429 . S
C188 C180 1.574 . S
C188 H183 0.949 . S
C188 C194 1.368 . S
C189 C173 1.349 1_554 S
C189 H181 0.950 . S
C189 C187 1.327 1_554 S
C190 C178 1.349 . S
C190 H184 0.950 . S
C190 C191 1.327 . S
C191 H185 0.950 . S
C191 C190 1.327 . S
C191 C195 1.429 . S
C192 C175 1.574 . S
C192 H186 0.949 . S
C192 C196 1.368 . S
C193 C174 1.429 . S
C193 C187 1.429 . S
C193 C194 1.523 . S
C194 C175 1.368 . S
C194 C188 1.368 . S
C194 C193 1.523 . S
C195 C179 1.429 . S
C195 C191 1.429 . S
C195 C196 1.523 . S
C196 C180 1.368 . S
C196 C192 1.368 . S
C196 C195 1.523 . S
H197 C172 0.950 . S
H198 C174 0.950 . S
H199 C175 0.949 . S
H200 C177 0.950 . S
H201 C179 0.950 . S
C202 C203 1.349 . S
C202 C204 1.327 . S
C202 H227 0.950 . S
C203 C202 1.349 . S
C203 C219 1.349 . S
C204 C202 1.327 . S
C204 C223 1.429 . S
C204 H228 0.950 . S
C205 C222 1.574 . S
C205 C224 1.368 . S
C205 H229 0.949 . S
H206 C210 0.949 . S
C207 C208 1.349 . S
C207 C209 1.327 . S
C207 H230 0.950 . S
C208 C207 1.349 . S
C208 C220 1.349 . S
C209 C207 1.327 . S
C209 C225 1.429 . S
C209 H231 0.950 . S
C210 H206 0.949 . S
C210 C218 1.574 . S
C210 C226 1.368 . S
H211 C219 0.950 . S
H212 C217 0.950 . S
H213 C218 0.949 . S
H214 C220 0.950 . S
H215 C221 0.950 . S
H216 C222 0.949 . S
C217 H212 0.950 . S
C217 C219 1.327 . S
C217 C223 1.429 . S
C218 C210 1.574 . S
C218 H213 0.949 . S
C218 C224 1.368 . S
C219 C203 1.349 . S
C219 H211 0.950 . S
C219 C217 1.327 . S
C220 C208 1.349 . S
C220 H214 0.950 . S
C220 C221 1.327 . S
C221 H215 0.950 . S
C221 C220 1.327 . S
C221 C225 1.429 . S
C222 C205 1.574 . S
C222 H216 0.949 . S
C222 C226 1.368 . S
C223 C204 1.429 . S
C223 C217 1.429 . S
C223 C224 1.523 . S
C224 C205 1.368 . S
C224 C218 1.368 . S
C224 C223 1.523 . S
C225 C209 1.429 . S
C225 C221 1.429 . S
C225 C226 1.523 . S
C226 C210 1.368 . S
C226 C222 1.368 . S
C226 C225 1.523 . S
H227 C202 0.950 . S
H228 C204 0.950 . S
H229 C205 0.949 . S
H230 C207 0.950 . S
H231 C209 0.950 . S
C232 C233 1.349 . S
C232 C234 1.327 . S
C232 H257 0.950 . S
C233 C232 1.349 . S
C233 C249 1.349 . S
C234 C232 1.327 . S
C234 C253 1.429 . S
C234 H258 0.950 . S
C235 C252 1.574 . S
C235 C254 1.368 . S
C235 H259 0.949 . S
H236 C240 0.949 . S
C237 C238 1.349 . S
C237 C239 1.327 . S
C237 H260 0.950 . S
C238 C237 1.349 . S
C238 C250 1.349 . S
C239 C237 1.327 . S
C239 C255 1.429 . S
C239 H261 0.950 . S
C240 H236 0.949 . S
C240 C248 1.574 . S
C240 C256 1.368 . S
H241 C249 0.950 . S
H242 C247 0.950 . S
H243 C248 0.949 . S
H244 C250 0.950 . S
H245 C251 0.950 . S
H246 C252 0.949 . S
C247 H242 0.950 . S
C247 C249 1.327 . S
C247 C253 1.429 . S
C248 C240 1.574 . S
C248 H243 0.949 . S
C248 C254 1.368 . S
C249 C233 1.349 . S
C249 H241 0.950 . S
C249 C247 1.327 . S
C250 C238 1.349 . S
C250 H244 0.950 . S
C250 C251 1.327 . S
C251 H245 0.950 . S
C251 C250 1.327 . S
C251 C255 1.429 . S
C252 C235 1.574 . S
C252 H246 0.949 . S
C252 C256 1.368 . S
C253 C234 1.429 . S
C253 C247 1.429 . S
C253 C254 1.523 . S
C254 C235 1.368 . S
C254 C248 1.368 . S
C254 C253 1.523 . S
C255 C239 1.429 . S
C255 C251 1.429 . S
C255 C256 1.523 . S
C256 C240 1.368 . S
C256 C252 1.368 . S
C256 C255 1.523 . S
H257 C232 0.950 . S
H258 C234 0.950 . S
H259 C235 0.949 . S
H260 C237 0.950 . S
H261 C239 0.950 . S
C262 C263 1.349 . S
C262 C264 1.327 . S
C262 H287 0.950 . S
C263 C262 1.349 . S
C263 C279 1.349 . S
C264 C262 1.327 . S
C264 C283 1.429 . S
C264 H288 0.950 . S
C265 C282 1.574 . S
C265 C284 1.368 . S
C265 H289 0.949 . S
H266 C270 0.949 . S
C267 C268 1.349 . S
C267 C269 1.327 . S
C267 H290 0.950 . S
C268 C267 1.349 . S
C268 C280 1.349 . S
C269 C267 1.327 . S
C269 C285 1.429 . S
C269 H291 0.950 . S
C270 H266 0.949 . S
C270 C278 1.574 . S
C270 C286 1.368 . S
H271 C279 0.950 . S
H272 C277 0.950 . S
H273 C278 0.949 . S
H274 C280 0.950 . S
H275 C281 0.950 . S
H276 C282 0.949 . S
C277 H272 0.950 . S
C277 C279 1.327 . S
C277 C283 1.429 . S
C278 C270 1.574 . S
C278 H273 0.949 . S
C278 C284 1.368 . S
C279 C263 1.349 . S
C279 H271 0.950 . S
C279 C277 1.327 . S
C280 C268 1.349 . S
C280 H274 0.950 . S
C280 C281 1.327 . S
C281 H275 0.950 . S
C281 C280 1.327 . S
C281 C285 1.429 . S
C282 C265 1.574 . S
C282 H276 0.949 . S
C282 C286 1.368 . S
C283 C264 1.429 . S
C283 C277 1.429 . S
C283 C284 1.523 . S
C284 C265 1.368 . S
C284 C278 1.368 . S
C284 C283 1.523 . S
C285 C269 1.429 . S
C285 C281 1.429 . S
C285 C286 1.523 . S
C286 C270 1.368 . S
C286 C282 1.368 . S
C286 C285 1.523 . S
H287 C262 0.950 . S
H288 C264 0.950 . S
H289 C265 0.949 . S
H290 C267 0.950 . S
H291 C269 0.950 . S
C292 C293 1.349 . S
C292 C294 1.327 . S
C292 H317 0.950 . S
C293 C292 1.349 . S
C293 C309 1.349 . S
C294 C292 1.327 . S
C294 C313 1.429 . S
C294 H318 0.950 . S
C295 C312 1.574 . S
C295 C314 1.368 . S
C295 H319 0.949 . S
H296 C300 0.949 . S
C297 C298 1.349 . S
C297 C299 1.327 . S
C297 H320 0.950 . S
C298 C297 1.349 . S
C298 C310 1.349 . S
C299 C297 1.327 . S
C299 C315 1.429 . S
C299 H321 0.950 . S
C300 H296 0.949 . S
C300 C308 1.574 . S
C300 C316 1.368 . S
H301 C309 0.950 . S
H302 C307 0.950 . S
H303 C308 0.949 . S
H304 C310 0.950 . S
H305 C311 0.950 . S
H306 C312 0.949 . S
C307 H302 0.950 . S
C307 C309 1.327 . S
C307 C313 1.429 . S
C308 C300 1.574 . S
C308 H303 0.949 . S
C308 C314 1.368 . S
C309 C293 1.349 . S
C309 H301 0.950 . S
C309 C307 1.327 . S
C310 C298 1.349 . S
C310 H304 0.950 . S
C310 C311 1.327 . S
C311 H305 0.950 . S
C311 C310 1.327 . S
C311 C315 1.429 . S
C312 C295 1.574 . S
C312 H306 0.949 . S
C312 C316 1.368 . S
C313 C294 1.429 . S
C313 C307 1.429 . S
C313 C314 1.523 . S
C314 C295 1.368 . S
C314 C308 1.368 . S
C314 C313 1.523 . S
C315 C299 1.429 . S
C315 C311 1.429 . S
C315 C316 1.523 . S
C316 C300 1.368 . S
C316 C312 1.368 . S
C316 C315 1.523 . S
H317 C292 0.950 . S
H318 C294 0.950 . S
H319 C295 0.949 . S
H320 C297 0.950 . S
H321 C299 0.950 . S
C322 C323 1.349 1_565 S
C322 C324 1.327 . S
C322 H347 0.950 . S
C323 C322 1.349 1_545 S
C323 C339 1.349 1_455 S
C324 C322 1.327 . S
C324 C343 1.429 1_565 S
C324 H348 0.950 . S
C325 C342 1.574 . S
C325 C344 1.368 1_655 S
C325 H349 0.949 . S
H326 C330 0.949 . S
C327 C328 1.354 1_655 S
C327 C329 1.327 . S
C327 H350 0.950 . S
C328 C327 1.354 1_455 S
C328 C340 1.344 1_545 S
C329 C327 1.327 . S
C329 C345 1.429 1_655 S
C329 H351 0.950 . S
C330 H326 0.949 . S
C330 C338 1.574 . S
C330 C346 1.368 1_565 S
H331 C339 0.950 . S
H332 C337 0.950 . S
H333 C338 0.949 . S
H334 C340 0.950 . S
H335 C341 0.950 . S
H336 C342 0.949 . S
C337 H332 0.950 . S
C337 C339 1.327 . S
C337 C343 1.429 1_655 S
C338 C330 1.574 . S
C338 H333 0.949 . S
C338 C344 1.368 1_565 S
C339 C323 1.349 1_655 S
C339 H331 0.950 . S
C339 C337 1.327 . S
C340 C328 1.344 1_565 S
C340 H334 0.950 . S
C340 C341 1.327 . S
C341 H335 0.950 . S
C341 C340 1.327 . S
C341 C345 1.429 1_565 S
C342 C325 1.574 . S
C342 H336 0.949 . S
C342 C346 1.368 1_655 S
C343 C324 1.429 1_545 S
C343 C337 1.429 1_455 S
C343 C344 1.523 . S
C344 C325 1.368 1_455 S
C344 C338 1.368 1_545 S
C344 C343 1.523 . S
C345 C329 1.429 1_455 S
C345 C341 1.429 1_545 S
C345 C346 1.523 . S
C346 C330 1.368 1_545 S
C346 C342 1.368 1_455 S
C346 C345 1.523 . S
H347 C322 0.950 . S
H348 C324 0.950 . S
H349 C325 0.949 . S
H350 C327 0.950 . S
H351 C329 0.950 . S
C352 C353 1.349 . S
C352 C354 1.327 . S
C352 H377 0.950 . S
C353 C352 1.349 . S
C353 C369 1.349 1_445 S
C354 C352 1.327 . S
C354 C373 1.429 . S
C354 H378 0.950 . S
C355 C372 1.574 . S
C355 C374 1.368 1_665 S
C355 H379 0.949 . S
H356 C360 0.949 . S
C357 C358 1.349 1_665 S
C357 C359 1.327 . S
C357 H380 0.950 . S
C358 C357 1.349 1_445 S
C358 C370 1.349 . S
C359 C357 1.327 . S
C359 C375 1.429 1_665 S
C359 H381 0.950 . S
C360 H356 0.949 . S
C360 C368 1.574 . S
C360 C376 1.368 . S
H361 C369 0.950 . S
H362 C367 0.950 . S
H363 C368 0.949 . S
H364 C370 0.950 . S
H365 C371 0.950 . S
H366 C372 0.949 . S
C367 H362 0.950 . S
C367 C369 1.327 . S
C367 C373 1.429 1_665 S
C368 C360 1.574 . S
C368 H363 0.949 . S
C368 C374 1.368 . S
C369 C353 1.349 1_665 S
C369 H361 0.950 . S
C369 C367 1.327 . S
C370 C358 1.349 . S
C370 H364 0.950 . S
C370 C371 1.327 . S
C371 H365 0.950 . S
C371 C370 1.327 . S
C371 C375 1.429 . S
C372 C355 1.574 . S
C372 H366 0.949 . S
C372 C376 1.368 1_665 S
C373 C354 1.429 . S
C373 C367 1.429 1_445 S
C373 C374 1.523 . S
C374 C355 1.368 1_445 S
C374 C368 1.368 . S
C374 C373 1.523 . S
C375 C359 1.429 1_445 S
C375 C371 1.429 . S
C375 C376 1.523 . S
C376 C360 1.368 . S
C376 C372 1.368 1_445 S
C376 C375 1.523 . S
H377 C352 0.950 . S
H378 C354 0.950 . S
H379 C355 0.949 . S
H380 C357 0.950 . S
H381 C359 0.950 . S
C382 C383 1.349 . S
C382 C384 1.327 . S
C382 H407 0.950 . S
C383 C382 1.349 . S
C383 C399 1.349 . S
C384 C382 1.327 . S
C384 C403 1.429 . S
C384 H408 0.950 . S
C385 C402 1.574 . S
C385 C404 1.368 . S
C385 H409 0.949 . S
H386 C390 0.949 . S
C387 C388 1.349 . S
C387 C389 1.327 . S
C387 H410 0.950 . S
C388 C387 1.349 . S
C388 C400 1.349 . S
C389 C387 1.327 . S
C389 C405 1.429 . S
C389 H411 0.950 . S
C390 H386 0.949 . S
C390 C398 1.574 . S
C390 C406 1.368 . S
H391 C399 0.950 . S
H392 C397 0.950 . S
H393 C398 0.949 . S
H394 C400 0.950 . S
H395 C401 0.950 . S
H396 C402 0.949 . S
C397 H392 0.950 . S
C397 C399 1.327 . S
C397 C403 1.429 . S
C398 C390 1.574 . S
C398 H393 0.949 . S
C398 C404 1.368 . S
C399 C383 1.349 . S
C399 H391 0.950 . S
C399 C397 1.327 . S
C400 C388 1.349 . S
C400 H394 0.950 . S
C400 C401 1.327 . S
C401 H395 0.950 . S
C401 C400 1.327 . S
C401 C405 1.429 . S
C402 C385 1.574 . S
C402 H396 0.949 . S
C402 C406 1.368 . S
C403 C384 1.429 . S
C403 C397 1.429 . S
C403 C404 1.523 . S
C404 C385 1.368 . S
C404 C398 1.368 . S
C404 C403 1.523 . S
C405 C389 1.429 . S
C405 C401 1.429 . S
C405 C406 1.523 . S
C406 C390 1.368 . S
C406 C402 1.368 . S
C406 C405 1.523 . S
H407 C382 0.950 . S
H408 C384 0.950 . S
H409 C385 0.949 . S
H410 C387 0.950 . S
H411 C389 0.950 . S
C412 C413 1.349 . S
C412 C414 1.327 . S
C412 H437 0.950 . S
C413 C412 1.349 . S
C413 C429 1.349 . S
C414 C412 1.327 . S
C414 C433 1.429 . S
C414 H438 0.950 . S
C415 C432 1.574 . S
C415 C434 1.368 . S
C415 H439 0.949 . S
H416 C420 0.949 . S
C417 C418 1.349 . S
C417 C419 1.327 . S
C417 H440 0.950 . S
C418 C417 1.349 . S
C418 C430 1.349 . S
C419 C417 1.327 . S
C419 C435 1.429 . S
C419 H441 0.950 . S
C420 H416 0.949 . S
C420 C428 1.574 . S
C420 C436 1.368 . S
H421 C429 0.950 . S
H422 C427 0.950 . S
H423 C428 0.949 . S
H424 C430 0.950 . S
H425 C431 0.950 . S
H426 C432 0.949 . S
C427 H422 0.950 . S
C427 C429 1.327 . S
C427 C433 1.429 . S
C428 C420 1.574 . S
C428 H423 0.949 . S
C428 C434 1.368 . S
C429 C413 1.349 . S
C429 H421 0.950 . S
C429 C427 1.327 . S
C430 C418 1.349 . S
C430 H424 0.950 . S
C430 C431 1.327 . S
C431 H425 0.950 . S
C431 C430 1.327 . S
C431 C435 1.429 . S
C432 C415 1.574 . S
C432 H426 0.949 . S
C432 C436 1.368 . S
C433 C414 1.429 . S
C433 C427 1.429 . S
C433 C434 1.523 . S
C434 C415 1.368 . S
C434 C428 1.368 . S
C434 C433 1.523 . S
C435 C419 1.429 . S
C435 C431 1.429 . S
C435 C436 1.523 . S
C436 C420 1.368 . S
C436 C432 1.368 . S
C436 C435 1.523 . S
H437 C412 0.950 . S
H438 C414 0.950 . S
H439 C415 0.949 . S
H440 C417 0.950 . S
H441 C419 0.950 . S
C88 C77 1.390 . S
C83 C21 1.391 . S
C113 C19 1.383 1_556 S
C118 C68 1.385 . S
C143 C18 1.350 . S
C148 C80 1.356 . S
C173 C20 1.372 1_556 S
C178 C71 1.370 . S
C203 C44 1.391 . S
C208 C59 1.390 . S
C233 C42 1.383 . S
C238 C50 1.385 . S
C268 C62 1.356 . S
C263 C41 1.350 . S
C298 C53 1.370 . S
C293 C43 1.372 . S
C323 C16 1.492 . S
C328 C51 1.492 1_445 S
C353 C17 1.457 . S
C358 C60 1.458 . S
C388 C69 1.492 . S
C383 C39 1.492 . S
C413 C40 1.457 . S
C418 C78 1.458 . S
