# Generated by pormake.
# Topology rtl, (3,6)-cn, num edge types: 1
# Building blocks:
#     Node 0, Type 0, BuildingBlock: KAKCAD_clean_linker_0, # of connection points: 3
#     Node 1, Type 0, BuildingBlock: KAKCAD_clean_linker_0, # of connection points: 3
#     Node 2, Type 0, BuildingBlock: KAKCAD_clean_linker_0, # of connection points: 3
#     Node 3, Type 0, BuildingBlock: KAKCAD_clean_linker_0, # of connection points: 3
#     Node 4, Type 1, BuildingBlock: KUMBOL_clean_sbu_1, # of connection points: 6
#     Node 5, Type 1, BuildingBlock: KUMBOL_clean_sbu_1, # of connection points: 6
#     Edge 6, Type (0, 1), BuildingBlock: EZIPEK_clean_linker_0, # of connection points: 2
#     Edge 7, Type (0, 1), BuildingBlock: EZIPEK_clean_linker_0, # of connection points: 2
#     Edge 8, Type (0, 1), BuildingBlock: EZIPEK_clean_linker_0, # of connection points: 2
#     Edge 9, Type (0, 1), BuildingBlock: EZIPEK_clean_linker_0, # of connection points: 2
#     Edge 10, Type (0, 1), BuildingBlock: EZIPEK_clean_linker_0, # of connection points: 2
#     Edge 11, Type (0, 1), BuildingBlock: EZIPEK_clean_linker_0, # of connection points: 2
#     Edge 12, Type (0, 1), BuildingBlock: EZIPEK_clean_linker_0, # of connection points: 2
#     Edge 13, Type (0, 1), BuildingBlock: EZIPEK_clean_linker_0, # of connection points: 2
#     Edge 14, Type (0, 1), BuildingBlock: EZIPEK_clean_linker_0, # of connection points: 2
#     Edge 15, Type (0, 1), BuildingBlock: EZIPEK_clean_linker_0, # of connection points: 2
#     Edge 16, Type (0, 1), BuildingBlock: EZIPEK_clean_linker_0, # of connection points: 2
#     Edge 17, Type (0, 1), BuildingBlock: EZIPEK_clean_linker_0, # of connection points: 2
# Relax obj value: 0.018
# Max RMSD: 0.113
# Mean RMSD: 0.068
data_MOF--net-rtl--node1-KUMBOL_clean_sbu_1--node2-KAKCAD_clean_linker_0--edge1-EZIPEK_clean_linker_0
_symmetry_space_group_name_H-M    P1
_symmetry_Int_Tables_number       1
_symmetry_cell_setting            triclinic
loop_
_symmetry_equiv_pos_as_xyz
'x, y, z'
_cell_length_a     31.298917
_cell_length_b     32.091943
_cell_length_c     28.374241
_cell_angle_alpha  77.28039
_cell_angle_beta   99.077405
_cell_angle_gamma 90.72661
loop_
_atom_site_label
_atom_site_type_symbol
_atom_site_fract_x
_atom_site_fract_y
_atom_site_fract_z
_atom_type_partial_charge
C0 C 0.12636 0.91794 0.86127 0.0
C1 C 0.15293 0.93187 0.82578 0.0
C2 C 0.14468 0.89934 0.90931 0.0
C3 C 0.18983 0.89411 0.92233 0.0
C4 C 0.21638 0.90903 0.88682 0.0
C5 C 0.19802 0.928 0.83885 0.0
C6 C 0.2091 0.87207 0.97252 0.0
C7 C 0.23999 0.83918 0.97986 0.0
C8 C 0.25761 0.81732 0.02726 0.0
C9 C 0.24515 0.82965 0.0678 0.0
C10 C 0.21355 0.86227 0.06115 0.0
C11 C 0.1955 0.88286 0.0131 0.0
C12 C 0.19749 0.87378 0.10361 0.0
C13 C 0.19456 0.8427 0.14658 0.0
C14 C 0.18222 0.91563 0.10023 0.0
C15 C 0.16167 0.92528 0.13679 0.0
C16 C 0.15746 0.89386 0.17866 0.0
C17 C 0.28763 0.78048 0.0338 0.0
C18 C 0.32771 0.77763 0.06479 0.0
C19 C 0.27658 0.74835 0.00769 0.0
C20 C 0.30532 0.71438 0.01182 0.0
C21 C 0.34572 0.71223 0.04172 0.0
C22 C 0.35674 0.74384 0.06843 0.0
C23 C 0.17542 0.85288 0.18408 0.0
H24 H 0.09145 0.92051 0.85144 0.0
H25 H 0.1235 0.8878 0.93588 0.0
H26 H 0.25127 0.9057 0.89611 0.0
H27 H 0.21883 0.93846 0.8116 0.0
H28 H 0.24978 0.82999 0.9485 0.0
H29 H 0.1703 0.90716 0.00681 0.0
H30 H 0.2595 0.81314 0.10429 0.0
H31 H 0.20545 0.81004 0.15069 0.0
H32 H 0.18528 0.94101 0.06885 0.0
H33 H 0.14855 0.95727 0.13213 0.0
H34 H 0.33697 0.80209 0.08511 0.0
H35 H 0.24568 0.7496 0.98397 0.0
H36 H 0.17284 0.82827 0.21639 0.0
H37 H 0.38791 0.74251 0.09165 0.0
H38 H 0.2964 0.69013 0.99108 0.0
C39 C 0.64477 0.6656 0.79995 0.0
C40 C 0.63303 0.62254 0.80967 0.0
C41 C 0.66119 0.68345 0.75695 0.0
C42 C 0.6665 0.6584 0.7232 0.0
C43 C 0.65664 0.61474 0.73453 0.0
C44 C 0.6398 0.59712 0.77708 0.0
C45 C 0.67991 0.67793 0.67515 0.0
C46 C 0.71197 0.70909 0.67126 0.0
C47 C 0.72379 0.72845 0.62544 0.0
C48 C 0.70333 0.71464 0.58364 0.0
C49 C 0.67302 0.68187 0.58732 0.0
C50 C 0.66054 0.6649 0.63285 0.0
C51 C 0.65681 0.66292 0.54458 0.0
C52 C 0.6474 0.68846 0.49684 0.0
C53 C 0.65309 0.61829 0.5512 0.0
C54 C 0.64124 0.59962 0.5112 0.0
C55 C 0.63318 0.62509 0.46374 0.0
C56 C 0.75826 0.76175 0.62145 0.0
C57 C 0.76859 0.78596 0.65752 0.0
C58 C 0.78181 0.76946 0.58186 0.0
C59 C 0.8139 0.8002 0.57838 0.0
C60 C 0.8253 0.82242 0.6157 0.0
C61 C 0.80232 0.81499 0.6553 0.0
C62 C 0.63583 0.66964 0.4567 0.0
H63 H 0.63987 0.68565 0.82485 0.0
H64 H 0.66821 0.71718 0.74934 0.0
H65 H 0.66134 0.59419 0.7101 0.0
H66 H 0.63127 0.56374 0.78417 0.0
H67 H 0.72839 0.71706 0.70449 0.0
H68 H 0.63543 0.64132 0.63525 0.0
H69 H 0.71145 0.72849 0.54801 0.0
H70 H 0.64941 0.7229 0.49044 0.0
H71 H 0.66084 0.59751 0.5872 0.0
H72 H 0.63966 0.56515 0.51711 0.0
H73 H 0.75086 0.7828 0.68781 0.0
H74 H 0.77667 0.75129 0.55371 0.0
H75 H 0.62972 0.68968 0.42013 0.0
H76 H 0.81036 0.83193 0.68448 0.0
H77 H 0.83119 0.80536 0.54744 0.0
C78 C 0.82472 0.08902 0.26755 0.0
C79 C 0.86927 0.07962 0.27757 0.0
C80 C 0.80464 0.10575 0.21954 0.0
C81 C 0.82895 0.11425 0.1808 0.0
C82 C 0.87344 0.10351 0.19111 0.0
C83 C 0.89326 0.08604 0.2389 0.0
C84 C 0.80892 0.13692 0.13059 0.0
C85 C 0.77728 0.16917 0.12423 0.0
C86 C 0.76072 0.19322 0.07752 0.0
C87 C 0.77648 0.18543 0.03646 0.0
C88 C 0.80786 0.15296 0.04178 0.0
C89 C 0.8232 0.12846 0.08896 0.0
C90 C 0.82544 0.14485 0.99861 0.0
C91 C 0.79842 0.14679 0.95346 0.0
C92 C 0.8696 0.13425 1.00265 0.0
C93 C 0.88599 0.12449 0.96326 0.0
C94 C 0.85878 0.12549 0.91876 0.0
C95 C 0.72792 0.22741 0.07252 0.0
C96 C 0.69053 0.21852 0.09434 0.0
C97 C 0.73471 0.2694 0.04804 0.0
C98 C 0.70489 0.30206 0.04603 0.0
C99 C 0.6675 0.29311 0.0678 0.0
C100 C 0.66033 0.25103 0.09157 0.0
C101 C 0.815 0.13737 0.91381 0.0
H102 H 0.80571 0.08416 0.29701 0.0
H103 H 0.77018 0.1127 0.21299 0.0
H104 H 0.89351 0.11014 0.16267 0.0
H105 H 0.92775 0.079 0.24605 0.0
H106 H 0.76661 0.17702 0.1558 0.0
H107 H 0.84631 0.10254 0.09329 0.0
H108 H 0.76447 0.20489 1.00055 0.0
H109 H 0.76425 0.15455 0.94906 0.0
H110 H 0.89163 0.13343 0.03637 0.0
H111 H 0.91994 0.11574 0.96762 0.0
H112 H 0.6846 0.18632 0.11333 0.0
H113 H 0.7635 0.27708 0.03138 0.0
H114 H 0.79355 0.13841 0.87963 0.0
H115 H 0.63145 0.24344 0.10807 0.0
H116 H 0.71082 0.33434 0.02729 0.0
C117 C 0.38034 0.40784 0.30624 0.0
C118 C 0.40355 0.38163 0.28517 0.0
C119 C 0.36353 0.391 0.34903 0.0
C120 C 0.36934 0.34742 0.37178 0.0
C121 C 0.39182 0.32086 0.35006 0.0
C122 C 0.40911 0.33792 0.30722 0.0
C123 C 0.35276 0.3307 0.41867 0.0
C124 C 0.32815 0.2933 0.42556 0.0
C125 C 0.30973 0.27973 0.46863 0.0
C126 C 0.31671 0.30413 0.50462 0.0
C127 C 0.34187 0.34079 0.49894 0.0
C128 C 0.35996 0.35374 0.45599 0.0
C129 C 0.34833 0.36563 0.53794 0.0
C130 C 0.31327 0.37384 0.56038 0.0
C131 C 0.38962 0.37964 0.55454 0.0
C132 C 0.39585 0.4003 0.59368 0.0
C133 C 0.36084 0.40746 0.61655 0.0
C134 C 0.28122 0.24175 0.476 0.0
C135 C 0.25209 0.23212 0.43685 0.0
C136 C 0.28019 0.21697 0.52348 0.0
C137 C 0.24877 0.18616 0.53216 0.0
C138 C 0.21851 0.17803 0.49342 0.0
C139 C 0.2214 0.20023 0.44544 0.0
C140 C 0.3195 0.39447 0.59933 0.0
H141 H 0.37566 0.44161 0.28975 0.0
H142 H 0.3459 0.41219 0.36441 0.0
H143 H 0.39694 0.28721 0.36687 0.0
H144 H 0.42706 0.31723 0.29155 0.0
H145 H 0.32274 0.27539 0.39704 0.0
H146 H 0.37901 0.38237 0.45117 0.0
H147 H 0.30203 0.29491 0.53737 0.0
H148 H 0.28096 0.36406 0.54797 0.0
H149 H 0.41727 0.37353 0.53821 0.0
H150 H 0.428 0.41013 0.60664 0.0
H151 H 0.25157 0.25044 0.39984 0.0
H152 H 0.30295 0.22215 0.55447 0.0
H153 H 0.29212 0.39994 0.61645 0.0
H154 H 0.19858 0.19422 0.4149 0.0
H155 H 0.24756 0.16918 0.56941 0.0
C156 C 0.93347 0.13065 0.50074 0.0
C157 C 0.86346 0.10789 0.4664 0.0
C158 C 0.90299 0.09895 0.49884 0.0
C159 C 0.85556 0.14852 0.43533 0.0
C160 C 0.92478 0.17205 0.47112 0.0
C161 C 0.88608 0.18055 0.43778 0.0
N162 N 0.97105 0.12144 0.53257 0.0
C163 C 0.99924 0.15295 0.54028 0.0
C164 C 0.95488 0.20395 0.47663 0.0
C165 C 0.99189 0.19453 0.51202 0.0
Gd166 Gd 0.04523 0.96246 0.52164 0.0
Gd167 Gd 0.98195 0.05045 0.57588 0.0
N168 N 0.91176 0.05965 0.52901 0.0
C169 C 0.83274 0.07589 0.46647 0.0
C170 C 0.88121 0.02885 0.53003 0.0
C171 C 0.84144 0.03644 0.49893 0.0
H172 H 0.88716 0.99794 0.55369 0.0
H173 H 0.81773 0.01155 0.49958 0.0
H174 H 0.15095 0.96162 0.56756 0.0
H175 H 0.02795 0.14596 0.56762 0.0
H176 H 0.20788 0.90908 0.61413 0.0
H177 H 0.80204 0.08149 0.44209 0.0
H178 H 0.82556 0.15573 0.40988 0.0
H179 H 0.96614 0.90704 0.47344 0.0
H180 H 0.94934 0.23616 0.45463 0.0
H181 H 0.01487 0.2192 0.51737 0.0
H182 H 0.13992 0.77347 0.61902 0.0
H183 H 0.8791 0.21201 0.41431 0.0
H184 H 0.99728 0.77355 0.52729 0.0
H185 H 0.94701 0.8313 0.47735 0.0
N186 N 0.02548 0.89177 0.52208 0.0
C187 C 0.05437 0.86072 0.54776 0.0
C188 C 0.98803 0.88185 0.49543 0.0
C189 C 0.00567 0.80662 0.52579 0.0
C190 C 0.97721 0.83912 0.49753 0.0
C191 C 0.04514 0.81721 0.55076 0.0
H192 H 0.06919 0.75222 0.58093 0.0
N193 N 0.10273 0.91498 0.56229 0.0
C194 C 0.09418 0.8727 0.56887 0.0
C195 C 0.16684 0.8549 0.61178 0.0
C196 C 0.12588 0.84146 0.59409 0.0
C197 C 0.14352 0.92812 0.57615 0.0
C198 C 0.17589 0.89842 0.60207 0.0
O199 O 0.9831 0.05459 0.49601 0.0
O200 O 0.97683 0.98501 0.49226 0.0
O201 O 0.04503 1.00082 0.44851 0.0
O202 O 0.07703 0.93869 0.46953 0.0
O203 O 0.95804 0.983 0.59568 0.0
O204 O 0.9891 0.93425 0.56016 0.0
O205 O 0.07956 0.979 0.59087 0.0
O206 O 0.02184 0.99482 0.62488 0.0
O207 O 0.93751 0.06586 0.6216 0.0
O208 O 0.005 0.08207 0.63488 0.0
O209 O 0.08141 0.02393 0.52512 0.0
O210 O 0.04752 0.07335 0.55833 0.0
C211 C 0.96686 0.02525 0.47321 0.0
C212 C 0.9621 0.94423 0.58784 0.0
C213 C 0.04442 0.96139 0.38721 0.0
C214 C 0.05344 0.94186 0.31109 0.0
C215 C 0.98186 0.9592 0.32525 0.0
C216 C 0.99958 0.96545 0.37141 0.0
C217 C 0.00868 0.94803 0.29486 0.0
C218 C 0.07108 0.94847 0.3575 0.0
C219 C 0.06409 0.9712 0.43398 0.0
C220 C 0.11613 0.79797 0.59938 0.0
C221 C 0.07586 0.78586 0.57766 0.0
H222 H 0.19207 0.83192 0.63147 0.0
C223 C 0.06327 0.98704 0.62789 0.0
C224 C 0.07875 0.06117 0.53755 0.0
C225 C 0.96918 0.06232 0.70347 0.0
C226 C 0.94576 0.06491 0.78082 0.0
C227 C 0.99651 0.00949 0.77734 0.0
C228 C 0.99484 0.02591 0.72729 0.0
C229 C 0.97215 0.02887 0.80407 0.0
C230 C 0.94432 0.08161 0.73035 0.0
C231 C 0.96792 0.07994 0.65069 0.0
H232 H 0.9473 0.96307 0.31301 0.0
H233 H 0.9784 0.97348 0.3947 0.0
H234 H 0.99451 0.94347 0.25903 0.0
H235 H 0.10564 0.94421 0.37007 0.0
H236 H 0.01663 0.98157 0.79541 0.0
H237 H 0.01355 0.0101 0.70728 0.0
H238 H 0.97363 0.01563 0.84288 0.0
H239 H 0.92396 0.10941 0.71223 0.0
C240 C 0.64506 0.55721 0.04571 0.0
C241 C 0.64121 0.63458 0.01775 0.0
C242 C 0.62311 0.59598 0.03928 0.0
C243 C 0.68122 0.63367 1.00151 0.0
C244 C 0.68619 0.55654 0.03137 0.0
C245 C 0.70368 0.59478 0.00839 0.0
N246 N 0.62705 0.52051 0.06755 0.0
C247 C 0.65065 0.48296 0.08036 0.0
C248 C 0.70896 0.51755 0.04132 0.0
C249 C 0.69138 0.48077 0.06658 0.0
Gd250 Gd 0.46221 0.49364 0.99033 0.0
Gd251 Gd 0.5585 0.52937 0.08951 0.0
N252 N 0.58394 0.59596 0.05434 0.0
C253 C 0.61888 0.67302 0.01403 0.0
C254 C 0.5636 0.63333 0.05414 0.0
C255 C 0.58024 0.67242 0.03301 0.0
H256 H 0.53417 0.63283 0.06967 0.0
H257 H 0.56339 0.70202 0.0316 0.0
H258 H 0.48455 0.38588 0.01487 0.0
H259 H 0.63904 0.45463 0.10235 0.0
H260 H 0.44556 0.31958 0.03321 0.0
H261 H 0.63174 0.70335 0.99773 0.0
H262 H 0.69547 0.66296 0.98445 0.0
H263 H 0.38734 0.57183 0.97363 0.0
H264 H 0.7406 0.51574 0.03087 0.0
H265 H 0.70946 0.45076 0.07608 0.0
H266 H 0.29881 0.36424 0.02504 0.0
H267 H 0.73494 0.59471 0.99655 0.0
H268 H 0.26567 0.514 0.99104 0.0
H269 H 0.30964 0.57867 0.97542 0.0
N270 N 0.38879 0.50382 0.99265 0.0
C271 C 0.3651 0.46787 0.99985 0.0
C272 C 0.36929 0.54325 0.98312 0.0
C273 C 0.30014 0.51075 0.99135 0.0
C274 C 0.32487 0.54731 0.9829 0.0
C275 C 0.32007 0.47043 0.99975 0.0
H276 H 0.26187 0.43422 0.00868 0.0
N277 N 0.42961 0.42666 0.00947 0.0
C278 C 0.3861 0.42827 0.00912 0.0
C279 C 0.38416 0.35106 0.02774 0.0
C280 C 0.3623 0.39045 0.0184 0.0
C281 C 0.45075 0.3881 0.01715 0.0
C282 C 0.42851 0.34993 0.02691 0.0
O283 O 0.54669 0.56307 0.00921 0.0
O284 O 0.52987 0.50649 0.9749 0.0
O285 O 0.44767 0.46678 0.92584 0.0
O286 O 0.44303 0.53531 0.91875 0.0
O287 O 0.49272 0.55946 0.08392 0.0
O288 O 0.46369 0.56115 1.00327 0.0
O289 O 0.44822 0.48183 0.06827 0.0
O290 O 0.51503 0.47491 0.11846 0.0
O291 O 0.55645 0.55914 0.15145 0.0
O292 O 0.61149 0.52018 0.1499 0.0
O293 O 0.52057 0.44929 0.01324 0.0
O294 O 0.56317 0.46016 0.08469 0.0
C295 C 0.54737 0.5437 0.97332 0.0
C296 C 0.46383 0.57353 0.0447 0.0
C297 C 0.39953 0.50546 0.85805 0.0
C298 C 0.36672 0.48684 0.78174 0.0
C299 C 0.32609 0.52937 0.82107 0.0
C300 C 0.36137 0.52786 0.85837 0.0
C301 C 0.32868 0.509 0.78286 0.0
C302 C 0.40204 0.48504 0.81949 0.0
C303 C 0.43764 0.50374 0.89635 0.0
C304 C 0.31749 0.39298 0.01802 0.0
C305 C 0.29644 0.43283 0.00863 0.0
H306 H 0.36702 0.32136 0.0351 0.0
C307 C 0.47228 0.47177 0.11204 0.0
C308 C 0.55228 0.43821 0.05041 0.0
C309 C 0.59513 0.52164 0.22748 0.0
C310 C 0.60393 0.52941 0.31183 0.0
C311 C 0.60161 0.45874 0.29418 0.0
C312 C 0.59673 0.47695 0.24412 0.0
C313 C 0.6053 0.48481 0.328 0.0
C314 C 0.5984 0.54774 0.26151 0.0
C315 C 0.59301 0.54152 0.17526 0.0
H316 H 0.29676 0.54665 0.82159 0.0
H317 H 0.35884 0.54455 0.88696 0.0
H318 H 0.30116 0.51065 0.75403 0.0
H319 H 0.43151 0.46802 0.81856 0.0
H320 H 0.60277 0.42433 0.3068 0.0
H321 H 0.59425 0.45619 0.21846 0.0
H322 H 0.60968 0.47029 0.36675 0.0
H323 H 0.59798 0.58222 0.24905 0.0
C324 C 0.13886 0.16269 0.49096 0.0
C325 C 0.18261 0.14787 0.50382 0.0
C326 C 0.15821 0.07891 0.54657 0.0
C327 C 0.11446 0.09163 0.52763 0.0
N328 N 0.06453 0.14338 0.4717 0.0
N329 N 0.23299 0.08816 0.5351 0.0
C330 C 0.10514 0.13291 0.49695 0.0
C331 C 0.19204 0.10481 0.52902 0.0
N332 N 0.12919 0.20538 0.47513 0.0
N333 N 0.16764 0.0433 0.58316 0.0
H334 H 0.25833 0.10567 0.52128 0.0
H335 H 0.24057 0.05584 0.54925 0.0
H336 H 0.14375 0.02546 0.59942 0.0
H337 H 0.19897 0.03466 0.60119 0.0
H338 H 0.09777 0.21786 0.47 0.0
H339 H 0.15272 0.22869 0.47227 0.0
H340 H 0.05736 0.17126 0.44469 0.0
H341 H 0.03886 0.12263 0.47479 0.0
C342 C 0.37901 0.63982 0.08126 0.0
C343 C 0.37698 0.67734 0.04369 0.0
C344 C 0.43552 0.64919 0.01078 0.0
C345 C 0.43472 0.60976 0.04528 0.0
N346 N 0.40168 0.5656 0.1097 0.0
N347 N 0.39906 0.7164 0.96898 0.0
C348 C 0.40557 0.60464 0.0798 0.0
C349 C 0.40393 0.68156 0.00728 0.0
N350 N 0.35581 0.63797 0.11866 0.0
N351 N 0.46797 0.65674 0.9832 0.0
H352 H 0.37783 0.74191 0.96631 0.0
H353 H 0.4138 0.71868 0.9381 0.0
H354 H 0.49278 0.63464 0.9863 0.0
H355 H 0.4731 0.68635 0.96126 0.0
H356 H 0.35982 0.61369 0.15021 0.0
H357 H 0.33464 0.6624 0.11992 0.0
H358 H 0.37729 0.55831 0.13106 0.0
H359 H 0.42084 0.53925 0.11045 0.0
C360 C 0.85584 0.89551 0.61621 0.0
C361 C 0.86239 0.85227 0.61445 0.0
C362 C 0.93959 0.86623 0.61144 0.0
C363 C 0.9315 0.91038 0.60825 0.0
N364 N 0.88992 0.95527 0.64368 0.0
N365 N 0.91188 0.79462 0.61611 0.0
C366 C 0.89204 0.92192 0.62138 0.0
C367 C 0.90481 0.83701 0.61399 0.0
N368 N 0.81503 0.91224 0.61103 0.0
N369 N 0.98127 0.85155 0.61867 0.0
H370 H 0.8892 0.77133 0.62504 0.0
H371 H 0.93976 0.78238 0.60792 0.0
H372 H 0.00709 0.87147 0.62346 0.0
H373 H 0.99065 0.8195 0.62629 0.0
H374 H 0.8091 0.94476 0.60767 0.0
H375 H 0.7872 0.89475 0.60484 0.0
H376 H 0.86211 0.96285 0.65632 0.0
H377 H 0.91738 0.97035 0.65709 0.0
C378 C 0.62605 0.3406 0.10584 0.0
C379 C 0.63501 0.32771 0.06367 0.0
C380 C 0.58965 0.38689 0.01151 0.0
C381 C 0.57786 0.39815 0.05392 0.0
N382 N 0.57365 0.37442 0.14012 0.0
N383 N 0.6143 0.33037 0.97757 0.0
C384 C 0.59272 0.37162 0.10078 0.0
C385 C 0.61325 0.34823 0.01691 0.0
N386 N 0.65007 0.32434 0.15057 0.0
N387 N 0.58091 0.41351 0.96623 0.0
H388 H 0.63059 0.30158 0.98019 0.0
H389 H 0.59514 0.34167 0.94366 0.0
H390 H 0.56461 0.44266 0.95862 0.0
H391 H 0.59394 0.40845 0.93628 0.0
H392 H 0.64746 0.33605 0.1815 0.0
H393 H 0.67535 0.30212 0.15577 0.0
H394 H 0.58125 0.35347 0.17415 0.0
H395 H 0.54639 0.39374 0.13713 0.0
C396 C 0.09503 0.88096 0.22617 0.0
C397 C 0.13276 0.90393 0.21567 0.0
C398 C 0.11655 0.954 0.26459 0.0
C399 C 0.08174 0.92825 0.27944 0.0
N400 N 0.04588 0.86062 0.28454 0.0
N401 N 0.18532 0.95565 0.23562 0.0
C402 C 0.07344 0.88963 0.26341 0.0
C403 C 0.14541 0.9384 0.23828 0.0
N404 N 0.07828 0.85255 0.19907 0.0
N405 N 0.12099 0.99415 0.27335 0.0
H406 H 0.20796 0.94402 0.21809 0.0
H407 H 0.19749 0.97828 0.25523 0.0
H408 H 0.09937 0.00776 0.29041 0.0
H409 H 0.14348 0.01554 0.25905 0.0
H410 H 0.0485 0.83826 0.20251 0.0
H411 H 0.09157 0.8467 0.16964 0.0
H412 H 0.04193 0.8303 0.27706 0.0
H413 H 0.03068 0.86499 0.31333 0.0
C414 C 0.56859 0.61673 0.85368 0.0
C415 C 0.61168 0.60405 0.85268 0.0
C416 C 0.60982 0.54794 0.92643 0.0
C417 C 0.56885 0.56377 0.93091 0.0
N418 N 0.50958 0.61464 0.89981 0.0
N419 N 0.67627 0.56295 0.8929 0.0
C420 C 0.54855 0.59887 0.89503 0.0
C421 C 0.63313 0.57114 0.89045 0.0
N422 N 0.54584 0.64387 0.81383 0.0
N423 N 0.62613 0.51012 0.95565 0.0
H424 H 0.69462 0.57988 0.86766 0.0
H425 H 0.69467 0.54235 0.92247 0.0
H426 H 0.6108 0.49279 0.98345 0.0
H427 H 0.65318 0.49444 0.94996 0.0
H428 H 0.51284 0.65051 0.80996 0.0
H429 H 0.55894 0.6571 0.78242 0.0
H430 H 0.49598 0.64366 0.87908 0.0
H431 H 0.49163 0.5994 0.92615 0.0
C432 C 0.88414 0.02542 0.35793 0.0
C433 C 0.89183 0.06586 0.32877 0.0
C434 C 0.95236 0.0755 0.39048 0.0
C435 C 0.94112 0.03818 0.42312 0.0
N436 N 0.88996 0.98121 0.43951 0.0
N437 N 0.9258 0.13433 0.32378 0.0
C438 C 0.90508 0.01411 0.40745 0.0
C439 C 0.9234 0.09257 0.34727 0.0
N440 N 0.85821 0.99711 0.338 0.0
N441 N 0.99221 0.0928 0.39821 0.0
H442 H 0.90443 0.14841 0.29235 0.0
H443 H 0.94598 0.15584 0.33869 0.0
H444 H 0.01691 0.07785 0.4254 0.0
H445 H 1.00267 0.11827 0.37328 0.0
H446 H 0.85547 0.96542 0.35603 0.0
H447 H 0.84264 0.00407 0.30177 0.0
H448 H 0.86118 0.96593 0.43069 0.0
H449 H 0.90321 0.97183 0.47631 0.0
C450 C 0.36735 0.4015 0.70704 0.0
C451 C 0.36715 0.42753 0.65956 0.0
C452 C 0.37488 0.49138 0.69413 0.0
C453 C 0.36947 0.46594 0.74042 0.0
N454 N 0.35648 0.3974 0.79069 0.0
N455 N 0.36676 0.49744 0.60642 0.0
C456 C 0.3649 0.42107 0.74694 0.0
C457 C 0.37014 0.47256 0.6527 0.0
N458 N 0.3707 0.35805 0.71403 0.0
N459 N 0.38543 0.53336 0.69008 0.0
H460 H 0.36403 0.48478 0.57524 0.0
H461 H 0.36361 0.53061 0.59852 0.0
H462 H 0.38907 0.54817 0.71968 0.0
H463 H 0.39425 0.55251 0.6586 0.0
H464 H 0.37556 0.33745 0.74841 0.0
H465 H 0.37245 0.34268 0.68556 0.0
H466 H 0.34787 0.36546 0.79605 0.0
H467 H 0.35497 0.41047 0.82096 0.0
C468 C 0.58209 0.59463 0.40314 0.0
C469 C 0.62501 0.60436 0.42141 0.0
C470 C 0.65316 0.57018 0.36296 0.0
C471 C 0.61072 0.5569 0.34798 0.0
N472 N 0.53489 0.5537 0.35462 0.0
N473 N 0.70194 0.59948 0.42215 0.0
C474 C 0.57511 0.56855 0.36813 0.0
C475 C 0.66071 0.59186 0.402 0.0
N476 N 0.5481 0.61088 0.41891 0.0
N477 N 0.68615 0.5624 0.33941 0.0
H478 H 0.70878 0.61684 0.4494 0.0
H479 H 0.72956 0.58661 0.41411 0.0
H480 H 0.6823 0.54512 0.31196 0.0
H481 H 0.71669 0.57543 0.34451 0.0
H482 H 0.51586 0.60872 0.40377 0.0
H483 H 0.55225 0.62942 0.44518 0.0
H484 H 0.5084 0.55682 0.37169 0.0
H485 H 0.52837 0.53593 0.32772 0.0
C486 C 0.90702 0.13938 0.85431 0.0
C487 C 0.87651 0.11295 0.87803 0.0
C488 C 0.88393 0.06103 0.82786 0.0
C489 C 0.91916 0.08412 0.81001 0.0
N490 N 0.96729 0.1435 0.80942 0.0
N491 N 0.83925 0.04602 0.89164 0.0
C492 C 0.93132 0.1231 0.82369 0.0
C493 C 0.86549 0.07321 0.86563 0.0
N494 N 0.91224 0.18027 0.86056 0.0
N495 N 0.86782 0.02771 0.80822 0.0
H496 H 0.82529 0.05343 0.91987 0.0
H497 H 0.83417 0.01468 0.88798 0.0
H498 H 0.88045 0.01816 0.78025 0.0
H499 H 0.83949 0.0123 0.81621 0.0
H500 H 0.93082 0.20251 0.84057 0.0
H501 H 0.89468 0.19322 0.88248 0.0
H502 H 0.98065 0.16926 0.82289 0.0
H503 H 0.98582 0.13277 0.78679 0.0
C504 C 0.4596 0.42724 0.24602 0.0
C505 C 0.4228 0.40149 0.24087 0.0
C506 C 0.41058 0.43175 0.15258 0.0
C507 C 0.451 0.45257 0.15644 0.0
N508 N 0.49623 0.48957 0.20924 0.0
N509 N 0.36587 0.37511 0.18818 0.0
C510 C 0.47129 0.45535 0.204 0.0
C511 C 0.39948 0.40207 0.19374 0.0
N512 N 0.48373 0.42458 0.29116 0.0
N513 N 0.37923 0.44625 0.11353 0.0
H514 H 0.35583 0.35389 0.21764 0.0
H515 H 0.35073 0.37134 0.15395 0.0
H516 H 0.38098 0.4763 0.09102 0.0
H517 H 0.34819 0.43399 0.11015 0.0
H518 H 0.5131 0.43977 0.29655 0.0
H519 H 0.4762 0.40423 0.32272 0.0
H520 H 0.50721 0.497 0.24296 0.0
H521 H 0.49898 0.51433 0.17941 0.0
C522 C 0.12186 0.99066 0.75497 0.0
C523 C 0.13317 0.94689 0.77397 0.0
C524 C 0.09883 0.92943 0.6975 0.0
C525 C 0.08941 0.97349 0.67727 0.0
N526 N 0.10024 0.04684 0.6828 0.0
N527 N 0.14014 0.87562 0.76105 0.0
C528 C 0.10341 0.00441 0.70486 0.0
C529 C 0.12421 0.91662 0.7444 0.0
N530 N 0.12784 0.01884 0.78506 0.0
N531 N 0.08161 0.89958 0.6729 0.0
H532 H 0.15762 0.86447 0.79599 0.0
H533 H 0.13911 0.85357 0.73891 0.0
H534 H 0.06297 0.90804 0.63851 0.0
H535 H 0.08287 0.86686 0.68787 0.0
H536 H 0.1155 0.05008 0.7749 0.0
H537 H 0.14262 0.01009 0.82155 0.0
H538 H 0.11355 0.07079 0.69964 0.0
H539 H 0.08778 0.0578 0.64593 0.0
loop_
_geom_bond_atom_site_label_1
_geom_bond_atom_site_label_2
_geom_bond_distance
_geom_bond_site_symmetry_2
_ccdc_geom_bond_type
C0 C1 1.386 . S
C0 C2 1.397 . S
C0 H24 0.931 . S
C1 C0 1.386 . S
C1 C5 1.397 . S
C2 C0 1.397 . S
C2 C3 1.384 . S
C2 H25 0.930 . S
C3 C2 1.384 . S
C3 C4 1.377 . S
C3 C6 1.481 . S
C4 C3 1.377 . S
C4 C5 1.389 . S
C4 H26 0.929 . S
C5 C1 1.397 . S
C5 C4 1.389 . S
C5 H27 0.931 1_565 S
C6 C3 1.481 . S
C6 C7 1.387 . S
C6 C11 1.390 1_556 S
C7 C6 1.387 . S
C7 C8 1.401 1_556 S
C7 H28 0.930 . S
C8 C7 1.401 1_554 S
C8 C9 1.376 . S
C8 C17 1.511 . S
C9 C8 1.376 . S
C9 C10 1.392 . S
C9 H30 0.931 . S
C10 C9 1.392 . S
C10 C11 1.361 . S
C10 C12 1.500 . S
C11 C6 1.390 1_554 S
C11 C10 1.361 . S
C11 H29 0.931 . S
C12 C10 1.500 . S
C12 C13 1.371 . S
C12 C14 1.365 . S
C13 C12 1.371 . S
C13 C23 1.386 . S
C13 H31 0.931 . S
C14 C12 1.365 . S
C14 C15 1.409 . S
C14 H32 0.929 . S
C15 C14 1.409 . S
C15 C16 1.380 . S
C15 H33 0.930 . S
C16 C15 1.380 . S
C16 C23 1.357 . S
C17 C8 1.511 . S
C17 C18 1.341 1_554 S
C17 C19 1.371 . S
C18 C17 1.341 1_556 S
C18 C22 1.394 1_556 S
C18 H34 0.930 . S
C19 C17 1.371 . S
C19 C20 1.392 . S
C19 H35 0.931 . S
C20 C19 1.392 . S
C20 C21 1.331 . S
C20 H38 0.932 . S
C21 C20 1.331 . S
C21 C22 1.336 . S
C22 C18 1.394 1_554 S
C22 C21 1.336 . S
C22 H37 0.929 1_554 S
C23 C13 1.386 . S
C23 C16 1.357 . S
C23 H36 0.928 . S
H24 C0 0.931 . S
H25 C2 0.930 . S
H26 C4 0.929 . S
H27 C5 0.931 1_545 S
H28 C7 0.930 . S
H29 C11 0.931 . S
H30 C9 0.931 . S
H31 C13 0.931 . S
H32 C14 0.929 . S
H33 C15 0.930 . S
H34 C18 0.930 . S
H35 C19 0.931 . S
H36 C23 0.928 . S
H37 C22 0.929 1_556 S
H38 C20 0.932 . S
C39 C40 1.386 . S
C39 C41 1.397 . S
C39 H63 0.931 . S
C40 C39 1.386 . S
C40 C44 1.397 . S
C41 C39 1.397 . S
C41 C42 1.384 . S
C41 H64 0.930 . S
C42 C41 1.384 . S
C42 C43 1.377 . S
C42 C45 1.481 . S
C43 C42 1.377 . S
C43 C44 1.389 . S
C43 H65 0.929 . S
C44 C40 1.397 . S
C44 C43 1.389 . S
C44 H66 0.931 . S
C45 C42 1.481 . S
C45 C46 1.387 . S
C45 C50 1.390 . S
C46 C45 1.387 . S
C46 C47 1.401 . S
C46 H67 0.930 . S
C47 C46 1.401 . S
C47 C48 1.376 . S
C47 C56 1.511 . S
C48 C47 1.376 . S
C48 C49 1.392 . S
C48 H69 0.931 . S
C49 C48 1.392 . S
C49 C50 1.361 . S
C49 C51 1.500 . S
C50 C45 1.390 . S
C50 C49 1.361 . S
C50 H68 0.931 . S
C51 C49 1.500 . S
C51 C52 1.371 . S
C51 C53 1.365 . S
C52 C51 1.371 . S
C52 C62 1.386 . S
C52 H70 0.931 . S
C53 C51 1.365 . S
C53 C54 1.409 . S
C53 H71 0.929 . S
C54 C53 1.409 . S
C54 C55 1.380 . S
C54 H72 0.930 . S
C55 C54 1.380 . S
C55 C62 1.357 . S
C56 C47 1.511 . S
C56 C57 1.341 . S
C56 C58 1.371 . S
C57 C56 1.341 . S
C57 C61 1.394 . S
C57 H73 0.930 . S
C58 C56 1.371 . S
C58 C59 1.392 . S
C58 H74 0.931 . S
C59 C58 1.392 . S
C59 C60 1.331 . S
C59 H77 0.932 . S
C60 C59 1.331 . S
C60 C61 1.336 . S
C61 C57 1.394 . S
C61 C60 1.336 . S
C61 H76 0.929 . S
C62 C52 1.386 . S
C62 C55 1.357 . S
C62 H75 0.928 . S
H63 C39 0.931 . S
H64 C41 0.930 . S
H65 C43 0.929 . S
H66 C44 0.931 . S
H67 C46 0.930 . S
H68 C50 0.931 . S
H69 C48 0.931 . S
H70 C52 0.931 . S
H71 C53 0.929 . S
H72 C54 0.930 . S
H73 C57 0.930 . S
H74 C58 0.931 . S
H75 C62 0.928 . S
H76 C61 0.929 . S
H77 C59 0.932 . S
C78 C79 1.386 . S
C78 C80 1.397 . S
C78 H102 0.931 . S
C79 C78 1.386 . S
C79 C83 1.397 . S
C80 C78 1.397 . S
C80 C81 1.384 . S
C80 H103 0.930 . S
C81 C80 1.384 . S
C81 C82 1.377 . S
C81 C84 1.481 . S
C82 C81 1.377 . S
C82 C83 1.389 . S
C82 H104 0.929 . S
C83 C79 1.397 . S
C83 C82 1.389 . S
C83 H105 0.931 . S
C84 C81 1.481 . S
C84 C85 1.387 . S
C84 C89 1.390 . S
C85 C84 1.387 . S
C85 C86 1.401 . S
C85 H106 0.930 . S
C86 C85 1.401 . S
C86 C87 1.376 . S
C86 C95 1.511 . S
C87 C86 1.376 . S
C87 C88 1.392 . S
C87 H108 0.931 1_554 S
C88 C87 1.392 . S
C88 C89 1.361 . S
C88 C90 1.500 1_554 S
C89 C84 1.390 . S
C89 C88 1.361 . S
C89 H107 0.931 . S
C90 C88 1.500 1_556 S
C90 C91 1.371 . S
C90 C92 1.365 . S
C91 C90 1.371 . S
C91 C101 1.386 . S
C91 H109 0.931 . S
C92 C90 1.365 . S
C92 C93 1.409 . S
C92 H110 0.929 1_556 S
C93 C92 1.409 . S
C93 C94 1.380 . S
C93 H111 0.930 . S
C94 C93 1.380 . S
C94 C101 1.357 . S
C95 C86 1.511 . S
C95 C96 1.341 . S
C95 C97 1.371 . S
C96 C95 1.341 . S
C96 C100 1.394 . S
C96 H112 0.930 . S
C97 C95 1.371 . S
C97 C98 1.390 . S
C97 H113 0.931 1_554 S
C98 C97 1.390 . S
C98 C99 1.346 . S
C98 H116 0.919 1_554 S
C99 C98 1.346 . S
C99 C100 1.336 . S
C100 C96 1.394 . S
C100 C99 1.336 . S
C100 H115 0.929 . S
C101 C91 1.386 . S
C101 C94 1.357 . S
C101 H114 0.928 . S
H102 C78 0.931 . S
H103 C80 0.930 . S
H104 C82 0.929 . S
H105 C83 0.931 . S
H106 C85 0.930 . S
H107 C89 0.931 . S
H108 C87 0.931 1_556 S
H109 C91 0.931 . S
H110 C92 0.929 1_554 S
H111 C93 0.930 . S
H112 C96 0.930 . S
H113 C97 0.931 1_556 S
H114 C101 0.928 . S
H115 C100 0.929 . S
H116 C98 0.919 1_556 S
C117 C118 1.386 . S
C117 C119 1.397 . S
C117 H141 0.931 . S
C118 C117 1.386 . S
C118 C122 1.397 . S
C119 C117 1.397 . S
C119 C120 1.384 . S
C119 H142 0.930 . S
C120 C119 1.384 . S
C120 C121 1.377 . S
C120 C123 1.481 . S
C121 C120 1.377 . S
C121 C122 1.389 . S
C121 H143 0.929 . S
C122 C118 1.397 . S
C122 C121 1.389 . S
C122 H144 0.931 . S
C123 C120 1.481 . S
C123 C124 1.387 . S
C123 C128 1.390 . S
C124 C123 1.387 . S
C124 C125 1.401 . S
C124 H145 0.930 . S
C125 C124 1.401 . S
C125 C126 1.376 . S
C125 C134 1.511 . S
C126 C125 1.376 . S
C126 C127 1.392 . S
C126 H147 0.931 . S
C127 C126 1.392 . S
C127 C128 1.361 . S
C127 C129 1.500 . S
C128 C123 1.390 . S
C128 C127 1.361 . S
C128 H146 0.931 . S
C129 C127 1.500 . S
C129 C130 1.371 . S
C129 C131 1.365 . S
C130 C129 1.371 . S
C130 C140 1.386 . S
C130 H148 0.931 . S
C131 C129 1.365 . S
C131 C132 1.409 . S
C131 H149 0.929 . S
C132 C131 1.409 . S
C132 C133 1.380 . S
C132 H150 0.930 . S
C133 C132 1.380 . S
C133 C140 1.357 . S
C134 C125 1.511 . S
C134 C135 1.341 . S
C134 C136 1.371 . S
C135 C134 1.341 . S
C135 C139 1.394 . S
C135 H151 0.930 . S
C136 C134 1.371 . S
C136 C137 1.392 . S
C136 H152 0.931 . S
C137 C136 1.392 . S
C137 C138 1.331 . S
C137 H155 0.932 . S
C138 C137 1.331 . S
C138 C139 1.336 . S
C139 C135 1.394 . S
C139 C138 1.336 . S
C139 H154 0.929 . S
C140 C130 1.386 . S
C140 C133 1.357 . S
C140 H153 0.928 . S
H141 C117 0.931 . S
H142 C119 0.930 . S
H143 C121 0.929 . S
H144 C122 0.931 . S
H145 C124 0.930 . S
H146 C128 0.931 . S
H147 C126 0.931 . S
H148 C130 0.931 . S
H149 C131 0.929 . S
H150 C132 0.930 . S
H151 C135 0.930 . S
H152 C136 0.931 . S
H153 C140 0.928 . S
H154 C139 0.929 . S
H155 C137 0.932 . S
C156 C158 1.422 . S
C156 C160 1.415 . S
C156 N162 1.369 . S
C157 C158 1.421 . S
C157 C159 1.417 . S
C157 C169 1.422 . S
C158 C156 1.422 . S
C158 C157 1.421 . S
C158 N168 1.359 . S
C159 C157 1.417 . S
C159 C161 1.329 . S
C159 H178 0.930 . S
C160 C156 1.415 . S
C160 C161 1.437 . S
C160 C164 1.413 . S
C161 C159 1.329 . S
C161 C160 1.437 . S
C161 H183 0.929 . S
N162 C156 1.369 . S
N162 C163 1.338 . S
N162 Gd167 2.622 . S
C163 N162 1.338 . S
C163 C165 1.378 . S
C163 H175 0.929 1_655 S
C164 C160 1.413 . S
C164 C165 1.348 . S
C164 H180 0.931 . S
C165 C163 1.378 . S
C165 C164 1.348 . S
C165 H181 0.930 1_655 S
Gd166 N186 2.622 . S
Gd166 N193 2.570 . S
Gd166 O200 2.344 1_465 S
Gd166 O201 2.468 . S
Gd166 O202 2.427 . S
Gd166 O204 2.388 1_455 S
Gd166 O205 2.386 . S
Gd166 O209 2.307 1_565 S
Gd166 C219 2.805 . S
Gd167 N162 2.622 . S
Gd167 N168 2.570 . S
Gd167 O199 2.386 . S
Gd167 O203 2.307 1_545 S
Gd167 O206 2.353 1_655 S
Gd167 O207 2.468 . S
Gd167 O208 2.427 . S
Gd167 O210 2.388 1_655 S
Gd167 C231 2.805 . S
N168 C158 1.359 . S
N168 Gd167 2.570 . S
N168 C170 1.343 . S
C169 C157 1.422 . S
C169 C171 1.321 . S
C169 H177 0.931 . S
C170 N168 1.343 . S
C170 C171 1.390 . S
C170 H172 0.931 . S
C171 C169 1.321 . S
C171 C170 1.390 . S
C171 H173 0.930 . S
H172 C170 0.931 . S
H173 C171 0.930 . S
H174 C197 0.931 . S
H175 C163 0.929 1_455 S
H176 C198 0.930 . S
H177 C169 0.931 . S
H178 C159 0.930 . S
H179 C188 0.929 1_655 S
H180 C164 0.931 . S
H181 C165 0.930 1_455 S
H182 C220 0.930 . S
H183 C161 0.929 . S
H184 C189 0.931 . S
H185 C190 0.930 1_655 S
N186 Gd166 2.622 . S
N186 C187 1.369 . S
N186 C188 1.338 . S
C187 N186 1.369 . S
C187 C191 1.415 . S
C187 C194 1.422 . S
C188 H179 0.929 1_455 S
C188 N186 1.338 . S
C188 C190 1.378 . S
C189 H184 0.931 . S
C189 C190 1.348 . S
C189 C191 1.413 . S
C190 H185 0.930 1_455 S
C190 C188 1.378 . S
C190 C189 1.348 . S
C191 C187 1.415 . S
C191 C189 1.413 . S
C191 C221 1.437 . S
H192 C221 0.929 . S
N193 Gd166 2.570 . S
N193 C194 1.359 . S
N193 C197 1.343 . S
C194 C187 1.422 . S
C194 N193 1.359 . S
C194 C196 1.421 . S
C195 C196 1.422 . S
C195 C198 1.321 . S
C195 H222 0.931 . S
C196 C194 1.421 . S
C196 C195 1.422 . S
C196 C220 1.417 . S
C197 H174 0.931 . S
C197 N193 1.343 . S
C197 C198 1.390 . S
C198 H176 0.930 . S
C198 C195 1.321 . S
C198 C197 1.390 . S
O199 Gd167 2.386 . S
O199 C211 1.265 . S
O200 Gd166 2.344 1_645 S
O200 C211 1.257 . S
O201 Gd166 2.468 . S
O201 C219 1.263 . S
O202 Gd166 2.427 . S
O202 C219 1.252 . S
O203 Gd167 2.307 1_565 S
O203 C212 1.261 . S
O204 Gd166 2.388 1_655 S
O204 C212 1.252 . S
O205 Gd166 2.386 . S
O205 C223 1.265 . S
O206 Gd167 2.353 1_455 S
O206 C223 1.242 1_545 S
O207 Gd167 2.468 . S
O207 C231 1.263 . S
O208 Gd167 2.427 . S
O208 C231 1.252 . S
O209 Gd166 2.307 1_545 S
O209 C224 1.261 . S
O210 Gd167 2.388 1_455 S
O210 C224 1.252 . S
C211 O199 1.265 . S
C211 O200 1.257 . S
C212 O203 1.261 . S
C212 O204 1.252 . S
C213 C216 1.394 . S
C213 C218 1.370 . S
C213 C219 1.500 . S
C214 C217 1.383 . S
C214 C218 1.395 . S
C215 C216 1.396 . S
C215 C217 1.365 . S
C215 H232 0.929 . S
C216 C213 1.394 . S
C216 C215 1.396 . S
C216 H233 0.930 . S
C217 C214 1.383 . S
C217 C215 1.365 . S
C217 H234 0.931 . S
C218 C213 1.370 . S
C218 C214 1.395 . S
C218 H235 0.930 . S
C219 Gd166 2.805 . S
C219 O201 1.263 . S
C219 O202 1.252 . S
C219 C213 1.500 . S
C220 H182 0.930 . S
C220 C196 1.417 . S
C220 C221 1.329 . S
C221 C191 1.437 . S
C221 H192 0.929 . S
C221 C220 1.329 . S
H222 C195 0.931 . S
C223 O205 1.265 . S
C223 O206 1.242 1_565 S
C224 O209 1.261 . S
C224 O210 1.252 . S
C225 C228 1.394 . S
C225 C230 1.370 . S
C225 C231 1.500 . S
C226 C229 1.383 . S
C226 C230 1.395 . S
C227 C228 1.396 . S
C227 C229 1.365 . S
C227 H236 0.929 . S
C228 C225 1.394 . S
C228 C227 1.396 . S
C228 H237 0.930 . S
C229 C226 1.383 . S
C229 C227 1.365 . S
C229 H238 0.931 . S
C230 C225 1.370 . S
C230 C226 1.395 . S
C230 H239 0.930 . S
C231 Gd167 2.805 . S
C231 O207 1.263 . S
C231 O208 1.252 . S
C231 C225 1.500 . S
H232 C215 0.929 . S
H233 C216 0.930 . S
H234 C217 0.931 . S
H235 C218 0.930 . S
H236 C227 0.929 . S
H237 C228 0.930 . S
H238 C229 0.931 . S
H239 C230 0.930 . S
C240 C242 1.422 . S
C240 C244 1.415 . S
C240 N246 1.369 . S
C241 C242 1.421 . S
C241 C243 1.417 . S
C241 C253 1.422 . S
C242 C240 1.422 . S
C242 C241 1.421 . S
C242 N252 1.359 . S
C243 C241 1.417 . S
C243 C245 1.329 . S
C243 H262 0.930 . S
C244 C240 1.415 . S
C244 C245 1.437 . S
C244 C248 1.413 . S
C245 C243 1.329 . S
C245 C244 1.437 . S
C245 H267 0.929 . S
N246 C240 1.369 . S
N246 C247 1.338 . S
N246 Gd251 2.622 . S
C247 N246 1.338 . S
C247 C249 1.378 . S
C247 H259 0.929 . S
C248 C244 1.413 . S
C248 C249 1.348 . S
C248 H264 0.931 . S
C249 C247 1.378 . S
C249 C248 1.348 . S
C249 H265 0.930 . S
Gd250 N270 2.623 . S
Gd250 N277 2.570 1_556 S
Gd250 O284 2.353 . S
Gd250 O285 2.468 . S
Gd250 O286 2.427 . S
Gd250 O288 2.388 1_556 S
Gd250 O289 2.386 1_556 S
Gd250 O293 2.307 1_556 S
Gd250 C303 2.805 . S
Gd251 N246 2.622 . S
Gd251 N252 2.570 . S
Gd251 O283 2.386 . S
Gd251 O287 2.307 . S
Gd251 O290 2.353 . S
Gd251 O291 2.468 . S
Gd251 O292 2.427 . S
Gd251 O294 2.388 . S
Gd251 C315 2.805 . S
N252 C242 1.359 . S
N252 Gd251 2.570 . S
N252 C254 1.343 . S
C253 C241 1.422 . S
C253 C255 1.321 . S
C253 H261 0.931 . S
C254 N252 1.343 . S
C254 C255 1.390 . S
C254 H256 0.931 . S
C255 C253 1.321 . S
C255 C254 1.390 . S
C255 H257 0.930 . S
H256 C254 0.931 . S
H257 C255 0.930 . S
H258 C281 0.931 . S
H259 C247 0.929 . S
H260 C282 0.930 . S
H261 C253 0.931 . S
H262 C243 0.930 . S
H263 C272 0.929 . S
H264 C248 0.931 . S
H265 C249 0.930 . S
H266 C304 0.930 . S
H267 C245 0.929 . S
H268 C273 0.931 . S
H269 C274 0.930 . S
N270 Gd250 2.623 . S
N270 C271 1.368 1_556 S
N270 C272 1.337 . S
C271 N270 1.368 1_554 S
C271 C275 1.415 . S
C271 C278 1.422 . S
C272 H263 0.929 . S
C272 N270 1.337 . S
C272 C274 1.378 . S
C273 H268 0.931 . S
C273 C274 1.348 1_554 S
C273 C275 1.413 . S
C274 H269 0.930 . S
C274 C272 1.378 . S
C274 C273 1.348 1_556 S
C275 C271 1.415 . S
C275 C273 1.413 . S
C275 C305 1.437 . S
H276 C305 0.929 . S
N277 Gd250 2.570 1_554 S
N277 C278 1.359 . S
N277 C281 1.343 . S
C278 C271 1.422 . S
C278 N277 1.359 . S
C278 C280 1.421 . S
C279 C280 1.422 . S
C279 C282 1.321 . S
C279 H306 0.931 . S
C280 C278 1.421 . S
C280 C279 1.422 . S
C280 C304 1.417 . S
C281 H258 0.931 . S
C281 N277 1.343 . S
C281 C282 1.390 . S
C282 H260 0.930 . S
C282 C279 1.321 . S
C282 C281 1.390 . S
O283 Gd251 2.386 . S
O283 C295 1.265 1_554 S
O284 Gd250 2.353 . S
O284 C295 1.242 . S
O285 Gd250 2.468 . S
O285 C303 1.263 . S
O286 Gd250 2.427 . S
O286 C303 1.252 . S
O287 Gd251 2.307 . S
O287 C296 1.261 . S
O288 Gd250 2.388 1_554 S
O288 C296 1.252 . S
O289 Gd250 2.386 1_554 S
O289 C307 1.265 . S
O290 Gd251 2.353 . S
O290 C307 1.242 . S
O291 Gd251 2.468 . S
O291 C315 1.263 . S
O292 Gd251 2.427 . S
O292 C315 1.252 . S
O293 Gd250 2.307 1_554 S
O293 C308 1.261 . S
O294 Gd251 2.388 . S
O294 C308 1.252 . S
C295 O283 1.265 1_556 S
C295 O284 1.242 . S
C296 O287 1.261 . S
C296 O288 1.252 . S
C297 C300 1.394 . S
C297 C302 1.370 . S
C297 C303 1.500 . S
C298 C301 1.383 . S
C298 C302 1.395 . S
C299 C300 1.396 . S
C299 C301 1.365 . S
C299 H316 0.929 . S
C300 C297 1.394 . S
C300 C299 1.396 . S
C300 H317 0.930 . S
C301 C298 1.383 . S
C301 C299 1.365 . S
C301 H318 0.931 . S
C302 C297 1.370 . S
C302 C298 1.395 . S
C302 H319 0.930 . S
C303 Gd250 2.805 . S
C303 O285 1.263 . S
C303 O286 1.252 . S
C303 C297 1.500 . S
C304 H266 0.930 . S
C304 C280 1.417 . S
C304 C305 1.329 . S
C305 C275 1.437 . S
C305 H276 0.929 . S
C305 C304 1.329 . S
H306 C279 0.931 . S
C307 O289 1.265 . S
C307 O290 1.242 . S
C308 O293 1.261 . S
C308 O294 1.252 . S
C309 C312 1.394 . S
C309 C314 1.370 . S
C309 C315 1.500 . S
C310 C313 1.383 . S
C310 C314 1.395 . S
C311 C312 1.396 . S
C311 C313 1.365 . S
C311 H320 0.929 . S
C312 C309 1.394 . S
C312 C311 1.396 . S
C312 H321 0.930 . S
C313 C310 1.383 . S
C313 C311 1.365 . S
C313 H322 0.931 . S
C314 C309 1.370 . S
C314 C310 1.395 . S
C314 H323 0.930 . S
C315 Gd251 2.805 . S
C315 O291 1.263 . S
C315 O292 1.252 . S
C315 C309 1.500 . S
H316 C299 0.929 . S
H317 C300 0.930 . S
H318 C301 0.931 . S
H319 C302 0.930 . S
H320 C311 0.929 . S
H321 C312 0.930 . S
H322 C313 0.931 . S
H323 C314 0.930 . S
C324 C325 1.363 . S
C324 C330 1.379 . S
C324 N332 1.356 . S
C325 C324 1.363 . S
C325 C331 1.363 . S
C326 C327 1.363 . S
C326 C331 1.379 . S
C326 N333 1.356 . S
C327 C326 1.363 . S
C327 C330 1.363 . S
N328 C330 1.356 . S
N328 H340 0.984 . S
N328 H341 0.985 . S
N329 C331 1.356 . S
N329 H334 0.984 . S
N329 H335 0.985 . S
C330 C324 1.379 . S
C330 C327 1.363 . S
C330 N328 1.356 . S
C331 C325 1.363 . S
C331 C326 1.379 . S
C331 N329 1.356 . S
N332 C324 1.356 . S
N332 H338 0.984 . S
N332 H339 0.984 . S
N333 C326 1.356 . S
N333 H336 0.984 . S
N333 H337 0.985 . S
H334 N329 0.984 . S
H335 N329 0.985 . S
H336 N333 0.984 . S
H337 N333 0.985 . S
H338 N332 0.984 . S
H339 N332 0.984 . S
H340 N328 0.984 . S
H341 N328 0.985 . S
C342 C343 1.363 . S
C342 C348 1.379 . S
C342 N350 1.356 . S
C343 C342 1.363 . S
C343 C349 1.363 . S
C344 C345 1.363 . S
C344 C349 1.379 . S
C344 N351 1.356 1_554 S
C345 C344 1.363 . S
C345 C348 1.363 . S
N346 C348 1.356 . S
N346 H358 0.984 . S
N346 H359 0.985 . S
N347 C349 1.356 1_556 S
N347 H352 0.978 1_556 S
N347 H353 0.985 . S
C348 C342 1.379 . S
C348 C345 1.363 . S
C348 N346 1.356 . S
C349 C343 1.363 . S
C349 C344 1.379 . S
C349 N347 1.356 1_554 S
N350 C342 1.356 . S
N350 H356 0.984 . S
N350 H357 0.984 . S
N351 C344 1.356 1_556 S
N351 H354 0.984 . S
N351 H355 0.985 . S
H352 N347 0.978 1_554 S
H353 N347 0.985 . S
H354 N351 0.984 . S
H355 N351 0.985 . S
H356 N350 0.984 . S
H357 N350 0.984 . S
H358 N346 0.984 . S
H359 N346 0.985 . S
C360 C361 1.363 . S
C360 C366 1.379 . S
C360 N368 1.356 . S
C361 C360 1.363 . S
C361 C367 1.363 . S
C362 C363 1.363 . S
C362 C367 1.379 . S
C362 N369 1.356 . S
C363 C362 1.363 . S
C363 C366 1.363 . S
N364 C366 1.356 . S
N364 H376 0.984 1_565 S
N364 H377 0.985 . S
N365 C367 1.356 . S
N365 H370 0.984 . S
N365 H371 0.985 . S
C366 C360 1.379 . S
C366 C363 1.363 . S
C366 N364 1.356 . S
C367 C361 1.363 . S
C367 C362 1.379 . S
C367 N365 1.356 . S
N368 C360 1.356 . S
N368 H374 0.984 . S
N368 H375 0.984 . S
N369 C362 1.356 . S
N369 H372 0.984 . S
N369 H373 0.985 . S
H370 N365 0.984 . S
H371 N365 0.985 . S
H372 N369 0.984 . S
H373 N369 0.985 . S
H374 N368 0.984 . S
H375 N368 0.984 . S
H376 N364 0.984 1_545 S
H377 N364 0.985 . S
C378 C379 1.363 . S
C378 C384 1.379 . S
C378 N386 1.356 . S
C379 C378 1.363 . S
C379 C385 1.363 1_554 S
C380 C381 1.363 1_556 S
C380 C385 1.379 . S
C380 N387 1.356 . S
C381 C380 1.363 1_554 S
C381 C384 1.363 . S
N382 C384 1.356 . S
N382 H394 0.984 . S
N382 H395 0.985 . S
N383 C385 1.356 . S
N383 H388 0.984 . S
N383 H389 0.985 . S
C384 C378 1.379 . S
C384 C381 1.363 . S
C384 N382 1.356 . S
C385 C379 1.363 1_556 S
C385 C380 1.379 . S
C385 N383 1.356 . S
N386 C378 1.356 . S
N386 H392 0.984 . S
N386 H393 0.984 . S
N387 C380 1.356 . S
N387 H390 0.984 . S
N387 H391 0.985 . S
H388 N383 0.984 . S
H389 N383 0.985 . S
H390 N387 0.984 . S
H391 N387 0.985 . S
H392 N386 0.984 . S
H393 N386 0.984 . S
H394 N382 0.984 . S
H395 N382 0.985 . S
C396 C397 1.363 . S
C396 C402 1.379 . S
C396 N404 1.356 . S
C397 C396 1.363 . S
C397 C403 1.363 . S
C398 C399 1.363 . S
C398 C403 1.379 . S
C398 N405 1.356 1_565 S
C399 C398 1.363 . S
C399 C402 1.363 . S
N400 C402 1.356 . S
N400 H412 0.984 . S
N400 H413 0.985 . S
N401 C403 1.356 . S
N401 H406 0.984 . S
N401 H407 0.985 1_565 S
C402 C396 1.379 . S
C402 C399 1.363 . S
C402 N400 1.356 . S
C403 C397 1.363 . S
C403 C398 1.379 . S
C403 N401 1.356 . S
N404 C396 1.356 . S
N404 H410 0.984 . S
N404 H411 0.984 . S
N405 C398 1.356 1_545 S
N405 H408 0.984 . S
N405 H409 0.985 . S
H406 N401 0.984 . S
H407 N401 0.985 1_545 S
H408 N405 0.984 . S
H409 N405 0.985 . S
H410 N404 0.984 . S
H411 N404 0.984 . S
H412 N400 0.984 . S
H413 N400 0.985 . S
C414 C415 1.363 . S
C414 C420 1.379 . S
C414 N422 1.356 . S
C415 C414 1.363 . S
C415 C421 1.363 . S
C416 C417 1.363 . S
C416 C421 1.379 . S
C416 N423 1.356 . S
C417 C416 1.363 . S
C417 C420 1.363 . S
N418 C420 1.356 . S
N418 H430 0.984 . S
N418 H431 0.985 . S
N419 C421 1.356 . S
N419 H424 0.984 . S
N419 H425 0.985 . S
C420 C414 1.379 . S
C420 C417 1.363 . S
C420 N418 1.356 . S
C421 C415 1.363 . S
C421 C416 1.379 . S
C421 N419 1.356 . S
N422 C414 1.356 . S
N422 H428 0.984 . S
N422 H429 0.984 . S
N423 C416 1.356 . S
N423 H426 0.984 . S
N423 H427 0.985 . S
H424 N419 0.984 . S
H425 N419 0.985 . S
H426 N423 0.984 . S
H427 N423 0.985 . S
H428 N422 0.984 . S
H429 N422 0.984 . S
H430 N418 0.984 . S
H431 N418 0.985 . S
C432 C433 1.363 . S
C432 C438 1.379 . S
C432 N440 1.356 1_545 S
C433 C432 1.363 . S
C433 C439 1.363 . S
C434 C435 1.363 . S
C434 C439 1.379 . S
C434 N441 1.356 . S
C435 C434 1.363 . S
C435 C438 1.363 . S
N436 C438 1.356 1_565 S
N436 H448 0.984 . S
N436 H449 0.985 . S
N437 C439 1.356 . S
N437 H442 0.984 . S
N437 H443 0.985 . S
C438 C432 1.379 . S
C438 C435 1.363 . S
C438 N436 1.356 1_545 S
C439 C433 1.363 . S
C439 C434 1.379 . S
C439 N437 1.356 . S
N440 C432 1.356 1_565 S
N440 H446 0.984 . S
N440 H447 0.984 . S
N441 C434 1.356 . S
N441 H444 0.984 . S
N441 H445 0.985 . S
H442 N437 0.984 . S
H443 N437 0.985 . S
H444 N441 0.984 . S
H445 N441 0.985 . S
H446 N440 0.984 . S
H447 N440 0.984 . S
H448 N436 0.984 . S
H449 N436 0.985 . S
C450 C451 1.363 . S
C450 C456 1.379 . S
C450 N458 1.356 . S
C451 C450 1.363 . S
C451 C457 1.363 . S
C452 C453 1.363 . S
C452 C457 1.379 . S
C452 N459 1.356 . S
C453 C452 1.363 . S
C453 C456 1.363 . S
N454 C456 1.356 . S
N454 H466 0.984 . S
N454 H467 0.985 . S
N455 C457 1.356 . S
N455 H460 0.984 . S
N455 H461 0.985 . S
C456 C450 1.379 . S
C456 C453 1.363 . S
C456 N454 1.356 . S
C457 C451 1.363 . S
C457 C452 1.379 . S
C457 N455 1.356 . S
N458 C450 1.356 . S
N458 H464 0.984 . S
N458 H465 0.984 . S
N459 C452 1.356 . S
N459 H462 0.984 . S
N459 H463 0.985 . S
H460 N455 0.984 . S
H461 N455 0.985 . S
H462 N459 0.984 . S
H463 N459 0.985 . S
H464 N458 0.984 . S
H465 N458 0.984 . S
H466 N454 0.984 . S
H467 N454 0.985 . S
C468 C469 1.363 . S
C468 C474 1.379 . S
C468 N476 1.356 . S
C469 C468 1.363 . S
C469 C475 1.363 . S
C470 C471 1.363 . S
C470 C475 1.379 . S
C470 N477 1.356 . S
C471 C470 1.363 . S
C471 C474 1.363 . S
N472 C474 1.356 . S
N472 H484 0.984 . S
N472 H485 0.985 . S
N473 C475 1.356 . S
N473 H478 0.984 . S
N473 H479 0.985 . S
C474 C468 1.379 . S
C474 C471 1.363 . S
C474 N472 1.356 . S
C475 C469 1.363 . S
C475 C470 1.379 . S
C475 N473 1.356 . S
N476 C468 1.356 . S
N476 H482 0.984 . S
N476 H483 0.984 . S
N477 C470 1.356 . S
N477 H480 0.984 . S
N477 H481 0.985 . S
H478 N473 0.984 . S
H479 N473 0.985 . S
H480 N477 0.984 . S
H481 N477 0.985 . S
H482 N476 0.984 . S
H483 N476 0.984 . S
H484 N472 0.984 . S
H485 N472 0.985 . S
C486 C487 1.363 . S
C486 C492 1.379 . S
C486 N494 1.356 . S
C487 C486 1.363 . S
C487 C493 1.363 . S
C488 C489 1.363 . S
C488 C493 1.379 . S
C488 N495 1.356 . S
C489 C488 1.363 . S
C489 C492 1.363 . S
N490 C492 1.356 . S
N490 H502 0.984 . S
N490 H503 0.985 . S
N491 C493 1.356 . S
N491 H496 0.984 . S
N491 H497 0.985 . S
C492 C486 1.379 . S
C492 C489 1.363 . S
C492 N490 1.356 . S
C493 C487 1.363 . S
C493 C488 1.379 . S
C493 N491 1.356 . S
N494 C486 1.356 . S
N494 H500 0.984 . S
N494 H501 0.984 . S
N495 C488 1.356 . S
N495 H498 0.984 . S
N495 H499 0.985 1_545 S
H496 N491 0.984 . S
H497 N491 0.985 . S
H498 N495 0.984 . S
H499 N495 0.985 1_565 S
H500 N494 0.984 . S
H501 N494 0.984 . S
H502 N490 0.984 . S
H503 N490 0.985 . S
C504 C505 1.363 . S
C504 C510 1.379 . S
C504 N512 1.356 . S
C505 C504 1.363 . S
C505 C511 1.363 . S
C506 C507 1.363 . S
C506 C511 1.379 . S
C506 N513 1.356 . S
C507 C506 1.363 . S
C507 C510 1.363 . S
N508 C510 1.356 . S
N508 H520 0.984 . S
N508 H521 0.985 . S
N509 C511 1.356 . S
N509 H514 0.984 . S
N509 H515 0.985 . S
C510 C504 1.379 . S
C510 C507 1.363 . S
C510 N508 1.356 . S
C511 C505 1.363 . S
C511 C506 1.379 . S
C511 N509 1.356 . S
N512 C504 1.356 . S
N512 H518 0.984 . S
N512 H519 0.984 . S
N513 C506 1.356 . S
N513 H516 0.984 . S
N513 H517 0.985 . S
H514 N509 0.984 . S
H515 N509 0.985 . S
H516 N513 0.984 . S
H517 N513 0.985 . S
H518 N512 0.984 . S
H519 N512 0.984 . S
H520 N508 0.984 . S
H521 N508 0.985 . S
C522 C523 1.363 . S
C522 C528 1.379 . S
C522 N530 1.356 1_565 S
C523 C522 1.363 . S
C523 C529 1.363 . S
C524 C525 1.363 . S
C524 C529 1.379 . S
C524 N531 1.356 . S
C525 C524 1.363 . S
C525 C528 1.363 . S
N526 C528 1.356 1_545 S
N526 H538 0.984 . S
N526 H539 0.985 . S
N527 C529 1.356 . S
N527 H532 0.984 . S
N527 H533 0.985 . S
C528 C522 1.379 . S
C528 C525 1.363 . S
C528 N526 1.356 1_565 S
C529 C523 1.363 . S
C529 C524 1.379 . S
C529 N527 1.356 . S
N530 C522 1.356 1_545 S
N530 H536 0.984 . S
N530 H537 0.984 . S
N531 C524 1.356 . S
N531 H534 0.984 . S
N531 H535 0.985 . S
H532 N527 0.984 . S
H533 N527 0.985 . S
H534 N531 0.984 . S
H535 N531 0.985 . S
H536 N530 0.984 . S
H537 N530 0.984 . S
H538 N526 0.984 . S
H539 N526 0.985 . S
C327 C224 1.679 . S
C325 C138 1.642 . S
C343 C21 1.635 . S
C345 C296 1.666 . S
C361 C60 1.650 . S
C363 C212 1.679 . S
C379 C99 1.650 . S
C381 C308 1.666 . S
C399 C214 1.428 . S
C397 C16 1.551 . S
C417 C295 1.633 . S
C415 C40 1.614 . S
C433 C79 1.633 . S
C435 C211 1.669 . S
C451 C133 1.537 . S
C453 C298 1.411 . S
C471 C310 1.411 . S
C469 C55 1.535 . S
C489 C226 1.428 . S
C487 C94 1.549 . S
C507 C307 1.633 . S
C505 C118 1.610 . S
C523 C1 1.626 . S
C525 C223 1.669 . S
