# Generated by pormake.
# Topology eea, (3,6)-cn, num edge types: 1
# Building blocks:
#     Node 0, Type 0, BuildingBlock: MIDCAF_clean_linker_0, # of connection points: 3
#     Node 1, Type 0, BuildingBlock: MIDCAF_clean_linker_0, # of connection points: 3
#     Node 2, Type 0, BuildingBlock: MIDCAF_clean_linker_0, # of connection points: 3
#     Node 3, Type 0, BuildingBlock: MIDCAF_clean_linker_0, # of connection points: 3
#     Node 4, Type 0, BuildingBlock: MIDCAF_clean_linker_0, # of connection points: 3
#     Node 5, Type 0, BuildingBlock: MIDCAF_clean_linker_0, # of connection points: 3
#     Node 6, Type 0, BuildingBlock: MIDCAF_clean_linker_0, # of connection points: 3
#     Node 7, Type 0, BuildingBlock: MIDCAF_clean_linker_0, # of connection points: 3
#     Node 8, Type 0, BuildingBlock: MIDCAF_clean_linker_0, # of connection points: 3
#     Node 9, Type 0, BuildingBlock: MIDCAF_clean_linker_0, # of connection points: 3
#     Node 10, Type 0, BuildingBlock: MIDCAF_clean_linker_0, # of connection points: 3
#     Node 11, Type 0, BuildingBlock: MIDCAF_clean_linker_0, # of connection points: 3
#     Node 12, Type 0, BuildingBlock: MIDCAF_clean_linker_0, # of connection points: 3
#     Node 13, Type 0, BuildingBlock: MIDCAF_clean_linker_0, # of connection points: 3
#     Node 14, Type 0, BuildingBlock: MIDCAF_clean_linker_0, # of connection points: 3
#     Node 15, Type 0, BuildingBlock: MIDCAF_clean_linker_0, # of connection points: 3
#     Node 16, Type 0, BuildingBlock: MIDCAF_clean_linker_0, # of connection points: 3
#     Node 17, Type 0, BuildingBlock: MIDCAF_clean_linker_0, # of connection points: 3
#     Node 18, Type 1, BuildingBlock: LEVNOQ01_clean_sbu_1, # of connection points: 6
#     Node 19, Type 1, BuildingBlock: LEVNOQ01_clean_sbu_1, # of connection points: 6
#     Node 20, Type 1, BuildingBlock: LEVNOQ01_clean_sbu_1, # of connection points: 6
#     Node 21, Type 1, BuildingBlock: LEVNOQ01_clean_sbu_1, # of connection points: 6
#     Node 22, Type 1, BuildingBlock: LEVNOQ01_clean_sbu_1, # of connection points: 6
#     Node 23, Type 1, BuildingBlock: LEVNOQ01_clean_sbu_1, # of connection points: 6
#     Node 24, Type 1, BuildingBlock: LEVNOQ01_clean_sbu_1, # of connection points: 6
#     Node 25, Type 1, BuildingBlock: LEVNOQ01_clean_sbu_1, # of connection points: 6
#     Node 26, Type 1, BuildingBlock: LEVNOQ01_clean_sbu_1, # of connection points: 6
#     Edge 27, Type (0, 1), None
#     Edge 28, Type (0, 1), None
#     Edge 29, Type (0, 1), None
#     Edge 30, Type (0, 1), None
#     Edge 31, Type (0, 1), None
#     Edge 32, Type (0, 1), None
#     Edge 33, Type (0, 1), None
#     Edge 34, Type (0, 1), None
#     Edge 35, Type (0, 1), None
#     Edge 36, Type (0, 1), None
#     Edge 37, Type (0, 1), None
#     Edge 38, Type (0, 1), None
#     Edge 39, Type (0, 1), None
#     Edge 40, Type (0, 1), None
#     Edge 41, Type (0, 1), None
#     Edge 42, Type (0, 1), None
#     Edge 43, Type (0, 1), None
#     Edge 44, Type (0, 1), None
#     Edge 45, Type (0, 1), None
#     Edge 46, Type (0, 1), None
#     Edge 47, Type (0, 1), None
#     Edge 48, Type (0, 1), None
#     Edge 49, Type (0, 1), None
#     Edge 50, Type (0, 1), None
#     Edge 51, Type (0, 1), None
#     Edge 52, Type (0, 1), None
#     Edge 53, Type (0, 1), None
#     Edge 54, Type (0, 1), None
#     Edge 55, Type (0, 1), None
#     Edge 56, Type (0, 1), None
#     Edge 57, Type (0, 1), None
#     Edge 58, Type (0, 1), None
#     Edge 59, Type (0, 1), None
#     Edge 60, Type (0, 1), None
#     Edge 61, Type (0, 1), None
#     Edge 62, Type (0, 1), None
#     Edge 63, Type (0, 1), None
#     Edge 64, Type (0, 1), None
#     Edge 65, Type (0, 1), None
#     Edge 66, Type (0, 1), None
#     Edge 67, Type (0, 1), None
#     Edge 68, Type (0, 1), None
#     Edge 69, Type (0, 1), None
#     Edge 70, Type (0, 1), None
#     Edge 71, Type (0, 1), None
#     Edge 72, Type (0, 1), None
#     Edge 73, Type (0, 1), None
#     Edge 74, Type (0, 1), None
#     Edge 75, Type (0, 1), None
#     Edge 76, Type (0, 1), None
#     Edge 77, Type (0, 1), None
#     Edge 78, Type (0, 1), None
#     Edge 79, Type (0, 1), None
#     Edge 80, Type (0, 1), None
# Relax obj value: 0.095
# Max RMSD: 0.181
# Mean RMSD: 0.091
data_MOF--net-eea--node1-LEVNOQ01_clean_sbu_1--node2-MIDCAF_clean_linker_0--edge1-none
_symmetry_space_group_name_H-M    P1
_symmetry_Int_Tables_number       1
_symmetry_cell_setting            triclinic
loop_
_symmetry_equiv_pos_as_xyz
'x, y, z'
_cell_length_a     36.132451
_cell_length_b     35.875025
_cell_length_c     36.987
_cell_angle_alpha  90.21112
_cell_angle_beta   89.918863
_cell_angle_gamma 120.38932
loop_
_atom_site_label
_atom_site_type_symbol
_atom_site_fract_x
_atom_site_fract_y
_atom_site_fract_z
_atom_type_partial_charge
C0 C 0.17442 0.96295 0.37204 0.0
C1 C 0.18199 0.96753 0.33468 0.0
C2 C 0.18713 0.00436 0.31703 0.0
C3 C 0.19179 0.03921 0.33724 0.0
H4 H 0.26017 0.18443 0.33571 0.0
H5 H 0.2334 0.22217 0.29981 0.0
H6 H 0.16715 0.23249 0.39345 0.0
H7 H 0.19406 0.19362 0.42947 0.0
H8 H 0.24042 0.14582 0.50782 0.0
H9 H 0.27116 0.14564 0.56594 0.0
H10 H 0.34877 0.0996 0.51555 0.0
H11 H 0.31533 0.0974 0.4568 0.0
H12 H 0.17889 -0.00414 0.42157 0.0
H13 H 0.16974 0.93443 0.3861 0.0
H14 H 0.19224 0.00804 0.28807 0.0
H15 H 0.20006 0.06896 0.32331 0.0
N16 N 0.21096 0.11232 0.38295 0.0
N17 N 0.25265 0.15431 0.43188 0.0
N18 N 0.23387 0.08143 0.42645 0.0
C19 C 0.2312 0.1505 0.40075 0.0
C20 C 0.25456 0.11965 0.4443 0.0
C21 C 0.21147 0.07756 0.39599 0.0
C22 C 0.22895 0.18637 0.38504 0.0
C23 C 0.24094 0.19596 0.34879 0.0
C24 C 0.22475 0.21662 0.32815 0.0
C25 C 0.19647 0.22829 0.34353 0.0
C26 C 0.1879 0.2226 0.38081 0.0
C27 C 0.20398 0.20138 0.40153 0.0
C28 C 0.27602 0.12213 0.47828 0.0
C29 C 0.26395 0.13561 0.50922 0.0
C30 C 0.28119 0.13488 0.54245 0.0
C31 C 0.31202 0.12208 0.54517 0.0
C32 C 0.32474 0.10911 0.51403 0.0
C33 C 0.30602 0.10824 0.48069 0.0
C34 C 0.19204 0.03742 0.37513 0.0
C35 C 0.18012 -0.00182 0.39235 0.0
C36 C 0.00338 0.22894 0.37804 0.0
C37 C 0.00508 0.24674 0.34398 0.0
C38 C 0.96711 0.2322 0.32404 0.0
C39 C 0.92796 0.1993 0.33788 0.0
H40 H 0.87088 0.04845 0.33612 0.0
H41 H 0.83952 0.978 0.30766 0.0
H42 H 0.74088 0.92496 0.38963 0.0
H43 H 0.77237 -0.00417 0.41845 0.0
H44 H 0.80517 0.06226 0.49451 0.0
H45 H 0.8068 0.08148 0.55859 0.0
H46 H 0.85243 0.21374 0.5281 0.0
H47 H 0.85098 0.19507 0.4649 0.0
H48 H 0.96381 0.1845 0.41885 0.0
H49 H 0.03212 0.24052 0.39429 0.0
H50 H 0.9678 0.24622 0.29797 0.0
H51 H 0.8989 0.18773 0.32213 0.0
N52 N 0.87039 0.10678 0.37467 0.0
N53 N 0.82443 0.0791 0.42483 0.0
N54 N 0.87217 0.15367 0.41957 0.0
C55 C 0.83917 0.07242 0.39297 0.0
C56 C 0.84053 0.11984 0.43807 0.0
C57 C 0.88672 0.14738 0.3877 0.0
C58 C 0.82327 0.02818 0.37892 0.0
C59 C 0.84288 0.02177 0.34854 0.0
C60 C 0.82524 0.98117 0.33241 0.0
C61 C 0.78748 0.94606 0.34613 0.0
C62 C 0.77012 0.95139 0.37847 0.0
C63 C 0.78783 0.99219 0.39469 0.0
C64 C 0.82931 0.12749 0.47477 0.0
C65 C 0.81421 0.09513 0.50151 0.0
C66 C 0.81499 0.10598 0.53815 0.0
C67 C 0.83075 0.1492 0.54812 0.0
C68 C 0.84096 0.18027 0.52105 0.0
C69 C 0.84019 0.16958 0.48481 0.0
C70 C 0.92653 0.18233 0.37235 0.0
C71 C 0.96438 0.19744 0.39229 0.0
C72 C 0.77809 0.76955 0.33188 0.0
C73 C 0.73688 0.73279 0.32867 0.0
C74 C 0.73262 0.69165 0.32972 0.0
C75 C 0.76729 0.68727 0.34013 0.0
H76 H 0.95242 0.77936 0.33942 0.0
H77 H 0.02979 0.80959 0.33341 0.0
H78 H 0.03595 0.77706 0.44483 0.0
H79 H 0.95949 0.74679 0.45072 0.0
H80 H 0.85575 0.64336 0.47394 0.0
H81 H 0.83018 0.61742 0.53496 0.0
H82 H 0.75705 0.68232 0.5346 0.0
H83 H 0.78102 0.70656 0.47222 0.0
H84 H 0.84302 0.79378 0.349 0.0
H85 H 0.78259 0.80175 0.33062 0.0
H86 H 0.70154 0.66273 0.32636 0.0
H87 H 0.76204 0.65518 0.34503 0.0
N88 N 0.87748 0.7399 0.37174 0.0
N89 N 0.88295 0.71603 0.42949 0.0
N90 N 0.81568 0.6984 0.40686 0.0
C91 C 0.90212 0.7379 0.39867 0.0
C92 C 0.83989 0.69656 0.43379 0.0
C93 C 0.83411 0.71935 0.37563 0.0
C94 C 0.94947 0.75984 0.39532 0.0
C95 C 0.97042 0.77909 0.3627 0.0
C96 C 0.01482 0.79669 0.35931 0.0
C97 C 0.03904 0.79544 0.3885 0.0
C98 C 0.01837 0.77842 0.42165 0.0
C99 C 0.97422 0.76072 0.42497 0.0
C100 C 0.82027 0.67679 0.46861 0.0
C101 C 0.83332 0.65107 0.4865 0.0
C102 C 0.81844 0.63606 0.52123 0.0
C103 C 0.79131 0.6476 0.5391 0.0
C104 C 0.77744 0.67261 0.52105 0.0
C105 C 0.79118 0.6864 0.48558 0.0
C106 C 0.80661 0.72392 0.34911 0.0
C107 C 0.81289 0.76509 0.34213 0.0
C108 C 0.98515 0.18517 0.63349 0.0
C109 C 0.9832 0.2072 0.66418 0.0
C110 C 0.02132 0.23588 0.68248 0.0
C111 C 0.06106 0.24509 0.6685 0.0
H112 H 0.17116 0.20454 0.66593 0.0
H113 H 0.22291 0.1814 0.67808 0.0
H114 H 0.30512 0.26636 0.59393 0.0
H115 H 0.25394 0.28946 0.5819 0.0
H116 H 0.20104 0.29056 0.50863 0.0
H117 H 0.19996 0.31383 0.44654 0.0
H118 H 0.09117 0.32774 0.47405 0.0
H119 H 0.09198 0.30439 0.53495 0.0
H120 H 0.02579 0.18077 0.59355 0.0
H121 H 0.95629 0.16349 0.61858 0.0
H122 H 0.02049 0.25356 0.70599 0.0
H123 H 0.09022 0.26938 0.68162 0.0
N124 N 0.13683 0.24114 0.6295 0.0
N125 N 0.17668 0.27392 0.57695 0.0
N126 N 0.10703 0.26187 0.58289 0.0
C127 C 0.17358 0.25599 0.61001 0.0
C128 C 0.14367 0.27729 0.56332 0.0
C129 C 0.10354 0.24404 0.6159 0.0
C130 C 0.20793 0.24808 0.62232 0.0
C131 C 0.20065 0.21884 0.65047 0.0
C132 C 0.23023 0.20547 0.65741 0.0
C133 C 0.2675 0.22117 0.63632 0.0
C134 C 0.27619 0.25284 0.61012 0.0
C135 C 0.24682 0.26621 0.60325 0.0
C136 C 0.14624 0.29511 0.52668 0.0
C137 C 0.17721 0.29904 0.50135 0.0
C138 C 0.17663 0.31233 0.46578 0.0
C139 C 0.14536 0.32237 0.45513 0.0
C140 C 0.11566 0.32004 0.48103 0.0
C141 C 0.11599 0.30649 0.51616 0.0
C142 C 0.06293 0.22653 0.63565 0.0
C143 C 0.02483 0.19535 0.61897 0.0
C144 C 0.8337 0.79952 0.61288 0.0
C145 C 0.83672 0.80276 0.65065 0.0
C146 C 0.84382 0.84078 0.66764 0.0
C147 C 0.83798 0.87052 0.64823 0.0
H148 H 0.75059 0.91214 0.68035 0.0
H149 H 0.77201 0.97458 0.71933 0.0
H150 H 0.7857 0.05209 0.62534 0.0
H151 H 0.76398 0.98912 0.58649 0.0
H152 H 0.71643 0.90588 0.50619 0.0
H153 H 0.68202 0.87259 0.4484 0.0
H154 H 0.67567 0.75379 0.48099 0.0
H155 H 0.71068 0.78723 0.53766 0.0
H156 H 0.81823 0.82223 0.56522 0.0
H157 H 0.82925 0.77077 0.59918 0.0
H158 H 0.84746 0.84433 0.69675 0.0
H159 H 0.83815 0.89674 0.663 0.0
N160 N 0.79008 0.90503 0.61797 0.0
N161 N 0.73714 0.89872 0.57759 0.0
N162 N 0.77271 0.85982 0.56784 0.0
C163 C 0.76046 0.9155 0.60821 0.0
C164 C 0.74299 0.87024 0.55763 0.0
C165 C 0.79699 0.8778 0.59771 0.0
C166 C 0.75637 0.94651 0.63068 0.0
C167 C 0.75685 0.94231 0.66833 0.0
C168 C 0.7698 0.97814 0.69047 0.0
C169 C 0.7826 0.01856 0.67508 0.0
C170 C 0.7775 0.02155 0.6377 0.0
C171 C 0.76416 0.98547 0.61555 0.0
C172 C 0.71666 0.84918 0.52575 0.0
C173 C 0.70697 0.87249 0.50095 0.0
C174 C 0.68757 0.85359 0.46801 0.0
C175 C 0.67676 0.81091 0.46016 0.0
C176 C 0.6838 0.78682 0.48624 0.0
C177 C 0.70399 0.80596 0.51859 0.0
C178 C 0.82411 0.86152 0.61208 0.0
C179 C 0.82692 0.82879 0.59351 0.0
C180 C 0.19991 0.03967 0.61351 0.0
C181 C 0.19073 0.03276 0.65053 0.0
C182 C 0.14912 0.00167 0.66142 0.0
C183 C 0.12097 0.97125 0.63659 0.0
H184 H 0.0291 0.84495 0.64262 0.0
H185 H 0.96023 0.78379 0.66046 0.0
H186 H 0.95812 0.71595 0.56291 0.0
H187 H 0.02725 0.77711 0.54519 0.0
H188 H 0.15148 0.82169 0.53652 0.0
H189 H 0.18828 0.81013 0.48651 0.0
H190 H 0.22025 0.93404 0.44186 0.0
H191 H 0.18479 0.94639 0.49296 0.0
H192 H 0.18245 0.01133 0.56086 0.0
H193 H 0.23137 0.06412 0.60432 0.0
H194 H 0.14091 -0.00338 0.68988 0.0
H195 H 0.09166 0.94393 0.64672 0.0
N196 N 0.0831 0.8944 0.59302 0.0
N197 N 0.09921 0.85161 0.55555 0.0
N198 N 0.14466 0.92686 0.55683 0.0
C199 C 0.07282 0.8549 0.57991 0.0
C200 C 0.13528 0.88761 0.54404 0.0
C201 C 0.11878 0.93059 0.58139 0.0
C202 C 0.03323 0.8161 0.59222 0.0
C203 C 0.01401 0.8169 0.62506 0.0
C204 C 0.97461 0.7818 0.63535 0.0
C205 C 0.95343 0.74537 0.61284 0.0
C206 C 0.97347 0.7438 0.58069 0.0
C207 C 0.01314 0.77875 0.57058 0.0
C208 C 0.16409 0.88421 0.5178 0.0
C209 C 0.16747 0.84698 0.51658 0.0
C210 C 0.18926 0.84077 0.48823 0.0
C211 C 0.20666 0.87104 0.46001 0.0
C212 C 0.20713 0.91027 0.46327 0.0
C213 C 0.18636 0.91703 0.49225 0.0
C214 C 0.13473 0.97187 0.60094 0.0
C215 C 0.17192 0.00901 0.58863 0.0
C216 C 0.84107 0.29631 0.70538 0.0
C217 C 0.84864 0.30089 0.66802 0.0
C218 C 0.85381 0.33775 0.65038 0.0
C219 C 0.85851 0.3726 0.6706 0.0
H220 H 0.92696 0.51787 0.66914 0.0
H221 H 0.9002 0.55561 0.63324 0.0
H222 H 0.83383 0.56581 0.72685 0.0
H223 H 0.86075 0.52694 0.76287 0.0
H224 H 0.90706 0.47909 0.84122 0.0
H225 H 0.93776 0.47887 0.89935 0.0
H226 H 0.01542 0.43287 0.84895 0.0
H227 H 0.98201 0.43071 0.7902 0.0
H228 H 0.84555 0.32921 0.75492 0.0
H229 H 0.83636 0.26778 0.71944 0.0
H230 H 0.85893 0.34144 0.62142 0.0
H231 H 0.8668 0.40236 0.65668 0.0
N232 N 0.87769 0.4457 0.71633 0.0
N233 N 0.91936 0.48765 0.76529 0.0
N234 N 0.90056 0.41477 0.75982 0.0
C235 C 0.89793 0.48387 0.73415 0.0
C236 C 0.92125 0.45298 0.7777 0.0
C237 C 0.87818 0.41092 0.72936 0.0
C238 C 0.89569 0.51975 0.71846 0.0
C239 C 0.90771 0.52938 0.68222 0.0
C240 C 0.89151 0.55003 0.66158 0.0
C241 C 0.86321 0.56167 0.67695 0.0
C242 C 0.85461 0.55595 0.71422 0.0
C243 C 0.87068 0.53473 0.73494 0.0
C244 C 0.94269 0.45542 0.81168 0.0
C245 C 0.93059 0.46888 0.84262 0.0
C246 C 0.94781 0.46813 0.87586 0.0
C247 C 0.97864 0.45532 0.87858 0.0
C248 C 0.99138 0.44238 0.84743 0.0
C249 C 0.97269 0.44153 0.81409 0.0
C250 C 0.85874 0.37079 0.70849 0.0
C251 C 0.84679 0.33154 0.72569 0.0
C252 C 0.67011 0.56233 0.71143 0.0
C253 C 0.67181 0.58014 0.67737 0.0
C254 C 0.63385 0.5656 0.65742 0.0
C255 C 0.5947 0.53271 0.67125 0.0
H256 H 0.53762 0.38187 0.66945 0.0
H257 H 0.50624 0.31143 0.64095 0.0
H258 H 0.40756 0.25836 0.72288 0.0
H259 H 0.43905 0.32922 0.75173 0.0
H260 H 0.47187 0.39561 0.82784 0.0
H261 H 0.47349 0.41481 0.89193 0.0
H262 H 0.51912 0.54707 0.86147 0.0
H263 H 0.51767 0.52843 0.79826 0.0
H264 H 0.63051 0.51789 0.75223 0.0
H265 H 0.69884 0.5739 0.72768 0.0
H266 H 0.63456 0.57963 0.63135 0.0
H267 H 0.56564 0.52114 0.65549 0.0
N268 N 0.53711 0.44018 0.70802 0.0
N269 N 0.49113 0.41248 0.75816 0.0
N270 N 0.53888 0.48705 0.75293 0.0
C271 C 0.50589 0.40581 0.7263 0.0
C272 C 0.50723 0.45321 0.77141 0.0
C273 C 0.55343 0.48077 0.72106 0.0
C274 C 0.48998 0.36158 0.71223 0.0
C275 C 0.50961 0.35518 0.68185 0.0
C276 C 0.49196 0.31459 0.6657 0.0
C277 C 0.45419 0.27948 0.67941 0.0
C278 C 0.43682 0.28479 0.71174 0.0
C279 C 0.45452 0.32558 0.72798 0.0
C280 C 0.496 0.46084 0.80812 0.0
C281 C 0.4809 0.42848 0.83484 0.0
C282 C 0.48169 0.43931 0.87149 0.0
C283 C 0.49744 0.48252 0.88147 0.0
C284 C 0.50764 0.51361 0.85441 0.0
C285 C 0.50688 0.50293 0.81817 0.0
C286 C 0.59326 0.51572 0.70571 0.0
C287 C 0.6311 0.53084 0.72567 0.0
C288 C 0.44482 0.10302 0.66532 0.0
C289 C 0.40362 0.06626 0.66198 0.0
C290 C 0.39936 0.02512 0.66297 0.0
C291 C 0.43399 0.02071 0.67343 0.0
H292 H 0.61905 0.11266 0.67279 0.0
H293 H 0.69642 0.14292 0.66677 0.0
H294 H 0.70258 0.11023 0.77814 0.0
H295 H 0.62612 0.07994 0.78404 0.0
H296 H 0.52242 0.97661 0.80728 0.0
H297 H 0.49688 0.95068 0.86831 0.0
H298 H 0.42364 0.01547 0.86793 0.0
H299 H 0.44759 0.03971 0.80555 0.0
H300 H 0.5097 0.1272 0.68256 0.0
H301 H 0.44932 0.13522 0.66411 0.0
H302 H 0.36829 -0.00379 0.65952 0.0
H303 H 0.42873 0.9886 0.67827 0.0
N304 N 0.54413 0.0732 0.70511 0.0
N305 N 0.54958 0.04923 0.76282 0.0
N306 N 0.48231 0.0317 0.74022 0.0
C307 C 0.56875 0.07113 0.73202 0.0
C308 C 0.50651 0.02978 0.76713 0.0
C309 C 0.50077 0.05268 0.709 0.0
C310 C 0.6161 0.09306 0.72866 0.0
C311 C 0.63705 0.11236 0.69606 0.0
C312 C 0.68145 0.12997 0.69266 0.0
C313 C 0.70568 0.1287 0.72184 0.0
C314 C 0.685 0.11162 0.75498 0.0
C315 C 0.64085 0.0939 0.7583 0.0
C316 C 0.48689 0.00999 0.80194 0.0
C317 C 0.49997 0.9843 0.81984 0.0
C318 C 0.48511 0.96929 0.85456 0.0
C319 C 0.45796 0.9808 0.87244 0.0
C320 C 0.44405 0.00578 0.85438 0.0
C321 C 0.45777 0.01957 0.81891 0.0
C322 C 0.47329 0.05734 0.68251 0.0
C323 C 0.47959 0.09853 0.6756 0.0
C324 C 0.65183 0.51847 0.96683 0.0
C325 C 0.64987 0.54048 -0.00246 0.0
C326 C 0.68799 0.56914 0.01585 0.0
C327 C 0.72773 0.57836 0.00187 0.0
H328 H 0.83783 0.53783 -0.00067 0.0
H329 H 0.88957 0.51469 0.01149 0.0
H330 H 0.9718 0.59962 0.92733 0.0
H331 H 0.92062 0.62273 0.91528 0.0
H332 H 0.86773 0.62384 0.842 0.0
H333 H 0.86668 0.64714 0.77992 0.0
H334 H 0.75797 0.66118 0.80746 0.0
H335 H 0.75876 0.6378 0.86835 0.0
H336 H 0.69248 0.5141 0.92687 0.0
H337 H 0.62297 0.49682 0.9519 0.0
H338 H 0.68716 0.5868 0.03937 0.0
H339 H 0.75689 0.60262 0.015 0.0
N340 N 0.8035 0.57443 0.96287 0.0
N341 N 0.84338 0.60723 0.91033 0.0
N342 N 0.77374 0.59519 0.91626 0.0
C343 C 0.84027 0.58928 0.94338 0.0
C344 C 0.81038 0.61061 0.8967 0.0
C345 C 0.77023 0.57734 0.94926 0.0
C346 C 0.87461 0.58136 0.9557 0.0
C347 C 0.86732 0.55213 0.98387 0.0
C348 C 0.89689 0.53875 0.99081 0.0
C349 C 0.93417 0.55444 0.96973 0.0
C350 C 0.94287 0.58611 0.94352 0.0
C351 C 0.9135 0.59947 0.93664 0.0
C352 C 0.81297 0.62845 0.86006 0.0
C353 C 0.84392 0.63236 0.83473 0.0
C354 C 0.84336 0.64567 0.79917 0.0
C355 C 0.81212 0.65575 0.78852 0.0
C356 C 0.78243 0.65345 0.81443 0.0
C357 C 0.78276 0.63988 0.84956 0.0
C358 C 0.72961 0.55983 0.969 0.0
C359 C 0.69151 0.52867 0.95231 0.0
C360 C 0.5003 0.13275 0.94617 0.0
C361 C 0.50332 0.136 0.98395 0.0
C362 C 0.51043 0.17402 0.00093 0.0
C363 C 0.50462 0.20378 0.98152 0.0
H364 H 0.41727 0.24546 0.0136 0.0
H365 H 0.43864 0.30786 0.05261 0.0
H366 H 0.45243 0.38544 0.95865 0.0
H367 H 0.43077 0.32252 0.91977 0.0
H368 H 0.38316 0.23928 0.83946 0.0
H369 H 0.34874 0.20602 0.78167 0.0
H370 H 0.34241 0.08721 0.81419 0.0
H371 H 0.37743 0.12062 0.87086 0.0
H372 H 0.48486 0.15548 0.89851 0.0
H373 H 0.49583 0.10399 0.93248 0.0
H374 H 0.51407 0.17757 0.03004 0.0
H375 H 0.50481 0.23001 -0.00371 0.0
N376 N 0.45679 0.23835 0.95124 0.0
N377 N 0.40389 0.2321 0.91084 0.0
N378 N 0.43942 0.19316 0.9011 0.0
C379 C 0.4272 0.24886 0.94147 0.0
C380 C 0.40973 0.20361 0.89087 0.0
C381 C 0.46369 0.21111 0.93099 0.0
C382 C 0.42311 0.27987 0.96395 0.0
C383 C 0.42355 0.27563 0.00159 0.0
C384 C 0.43646 0.31144 0.02375 0.0
C385 C 0.44927 0.35188 0.00839 0.0
C386 C 0.44422 0.35489 0.971 0.0
C387 C 0.43092 0.31884 0.94883 0.0
C388 C 0.38341 0.18257 0.85899 0.0
C389 C 0.37371 0.20589 0.83421 0.0
C390 C 0.3543 0.187 0.80126 0.0
C391 C 0.34348 0.14433 0.7934 0.0
C392 C 0.35054 0.12023 0.81946 0.0
C393 C 0.37073 0.13935 0.85181 0.0
C394 C 0.49077 0.19479 0.94536 0.0
C395 C 0.49355 0.16204 0.92681 0.0
C396 C 0.86656 0.37295 0.94689 0.0
C397 C 0.85736 0.36602 0.9839 0.0
C398 C 0.81575 0.33493 -0.00522 0.0
C399 C 0.78759 0.30453 0.96993 0.0
H400 H 0.69574 0.17827 0.97595 0.0
H401 H 0.62688 0.11711 0.99379 0.0
H402 H 0.62478 0.04924 0.89626 0.0
H403 H 0.6939 0.11041 0.87853 0.0
H404 H 0.81812 0.155 0.86983 0.0
H405 H 0.85492 0.14345 0.81982 0.0
H406 H 0.88691 0.26738 0.77518 0.0
H407 H 0.85144 0.27972 0.82629 0.0
H408 H 0.84912 0.34464 0.89423 0.0
H409 H 0.89802 0.3974 0.93771 0.0
H410 H 0.80752 0.32987 0.02323 0.0
H411 H 0.75828 0.27722 0.98005 0.0
N412 N 0.74974 0.2277 0.92635 0.0
N413 N 0.76585 0.18492 0.88887 0.0
N414 N 0.8113 0.26017 0.89015 0.0
C415 C 0.73946 0.18821 0.91323 0.0
C416 C 0.80192 0.22092 0.87735 0.0
C417 C 0.78542 0.2639 0.91471 0.0
C418 C 0.69987 0.14941 0.92555 0.0
C419 C 0.68066 0.15021 0.95838 0.0
C420 C 0.64126 0.11512 0.96868 0.0
C421 C 0.62008 0.07868 0.94618 0.0
C422 C 0.64012 0.0771 0.91403 0.0
C423 C 0.67979 0.11206 0.90391 0.0
C424 C 0.83073 0.21753 0.85111 0.0
C425 C 0.8341 0.18029 0.84989 0.0
C426 C 0.8559 0.17409 0.82154 0.0
C427 C 0.87331 0.20437 0.79332 0.0
C428 C 0.87377 0.2436 0.79659 0.0
C429 C 0.853 0.25035 0.82557 0.0
C430 C 0.80137 0.30517 0.93429 0.0
C431 C 0.83858 0.34231 0.922 0.0
C432 C 0.50777 0.62963 0.03871 0.0
C433 C 0.51536 0.63421 0.00136 0.0
C434 C 0.52054 0.67107 0.98371 0.0
C435 C 0.52524 0.70593 0.00393 0.0
H436 H 0.59373 0.85122 0.00248 0.0
H437 H 0.56696 0.88897 0.9666 0.0
H438 H 0.50059 0.89914 0.06022 0.0
H439 H 0.52751 0.86027 0.09623 0.0
H440 H 0.57373 0.81234 0.17456 0.0
H441 H 0.60441 0.8121 0.23269 0.0
H442 H 0.68215 0.7662 0.18232 0.0
H443 H 0.64877 0.76405 0.12355 0.0
H444 H 0.51225 0.66253 0.08825 0.0
H445 H 0.50305 0.60109 0.05277 0.0
H446 H 0.52566 0.67476 0.95475 0.0
H447 H 0.53354 0.73569 0.99001 0.0
N448 N 0.54445 0.77904 0.04967 0.0
N449 N 0.58611 0.82097 0.09863 0.0
N450 N 0.5673 0.74808 0.09316 0.0
C451 C 0.56469 0.8172 0.06749 0.0
C452 C 0.58799 0.78629 0.11104 0.0
C453 C 0.54492 0.74425 0.06269 0.0
C454 C 0.56246 0.85309 0.05181 0.0
C455 C 0.57448 0.86273 0.01557 0.0
C456 C 0.55828 0.88338 -0.00506 0.0
C457 C 0.52997 0.89501 0.01031 0.0
C458 C 0.52137 0.88928 0.04758 0.0
C459 C 0.53745 0.86806 0.0683 0.0
C460 C 0.6094 0.78872 0.14502 0.0
C461 C 0.59727 0.80214 0.17597 0.0
C462 C 0.61448 0.80138 0.20921 0.0
C463 C 0.64533 0.78861 0.21193 0.0
C464 C 0.6581 0.77569 0.18079 0.0
C465 C 0.63942 0.77485 0.14744 0.0
C466 C 0.52547 0.70412 0.04182 0.0
C467 C 0.5135 0.66486 0.05903 0.0
C468 C 0.33677 0.89556 0.04478 0.0
C469 C 0.33848 0.91335 0.01071 0.0
C470 C 0.30052 0.8988 0.99075 0.0
C471 C 0.26137 0.86591 0.00459 0.0
H472 H 0.20427 0.71508 0.00283 0.0
H473 H 0.17289 0.64464 0.97435 0.0
H474 H 0.07422 0.5916 0.05629 0.0
H475 H 0.10572 0.66247 0.08512 0.0
H476 H 0.13856 0.72889 0.16122 0.0
H477 H 0.14018 0.74812 0.2253 0.0
H478 H 0.18578 0.88037 0.19479 0.0
H479 H 0.18433 0.86169 0.13159 0.0
H480 H 0.29718 0.85114 0.08559 0.0
H481 H 0.36551 0.90715 0.06103 0.0
H482 H 0.30122 0.91281 0.96468 0.0
H483 H 0.23231 0.85433 0.98883 0.0
N484 N 0.20377 0.77341 0.04138 0.0
N485 N 0.15779 0.74573 0.09153 0.0
N486 N 0.20555 0.82029 0.08628 0.0
C487 C 0.17255 0.73905 0.05967 0.0
C488 C 0.17391 0.78647 0.10477 0.0
C489 C 0.2201 0.814 0.05441 0.0
C490 C 0.15664 0.69481 0.04561 0.0
C491 C 0.17626 0.6884 0.01524 0.0
C492 C 0.15861 0.64781 -0.00091 0.0
C493 C 0.12084 0.6127 0.01281 0.0
C494 C 0.10347 0.61802 0.04514 0.0
C495 C 0.12118 0.65882 0.06137 0.0
C496 C 0.16267 0.79412 0.14147 0.0
C497 C 0.14758 0.76176 0.16821 0.0
C498 C 0.14837 0.77262 0.20485 0.0
C499 C 0.16412 0.81583 0.21481 0.0
C500 C 0.17431 0.8469 0.18775 0.0
C501 C 0.17355 0.8362 0.15151 0.0
C502 C 0.25993 0.84895 0.03906 0.0
C503 C 0.29777 0.86407 0.05902 0.0
C504 C 0.1114 0.43621 -0.0015 0.0
C505 C 0.07019 0.39945 -0.0047 0.0
C506 C 0.06592 0.35831 -0.00365 0.0
C507 C 0.10059 0.35392 0.00675 0.0
H508 H 0.28574 0.44603 0.00605 0.0
H509 H 0.3631 0.47624 5e-05 0.0
H510 H 0.36924 0.4437 0.11147 0.0
H511 H 0.29279 0.41345 0.11736 0.0
H512 H 0.18905 0.31002 0.14056 0.0
H513 H 0.16346 0.28408 0.20159 0.0
H514 H 0.09032 0.34898 0.20121 0.0
H515 H 0.11431 0.37322 0.13883 0.0
H516 H 0.17634 0.46044 0.0156 0.0
H517 H 0.11591 0.46841 -0.00276 0.0
H518 H 0.03484 0.32939 0.993 0.0
H519 H 0.09534 0.32183 0.01166 0.0
N520 N 0.21079 0.40656 0.03836 0.0
N521 N 0.21626 0.38269 0.09612 0.0
N522 N 0.14898 0.36506 0.07348 0.0
C523 C 0.23542 0.40456 0.0653 0.0
C524 C 0.17319 0.36322 0.10041 0.0
C525 C 0.16742 0.38601 0.04225 0.0
C526 C 0.28278 0.4265 0.06195 0.0
C527 C 0.30373 0.44575 0.02933 0.0
C528 C 0.34813 0.46334 0.02595 0.0
C529 C 0.37235 0.46208 0.05514 0.0
C530 C 0.35167 0.44507 0.08829 0.0
C531 C 0.30752 0.42737 0.0916 0.0
C532 C 0.15357 0.34345 0.13523 0.0
C533 C 0.16661 0.31773 0.15313 0.0
C534 C 0.15172 0.30272 0.18784 0.0
C535 C 0.12459 0.31425 0.20572 0.0
C536 C 0.11072 0.33926 0.18766 0.0
C537 C 0.12447 0.35306 0.1522 0.0
C538 C 0.13992 0.39058 0.01572 0.0
C539 C 0.1462 0.43175 0.00874 0.0
C540 C 0.31852 0.85181 0.30021 0.0
C541 C 0.31656 0.87385 0.3309 0.0
C542 C 0.35468 0.90253 0.3492 0.0
C543 C 0.39442 0.91175 0.33523 0.0
H544 H 0.50451 0.87118 0.33268 0.0
H545 H 0.55623 0.84801 0.34483 0.0
H546 H 0.63844 0.93288 0.26065 0.0
H547 H 0.58728 0.95602 0.2486 0.0
H548 H 0.53445 0.95726 0.17538 0.0
H549 H 0.53338 0.98053 0.11329 0.0
H550 H 0.42458 -0.00557 0.14079 0.0
H551 H 0.42538 0.97108 0.20169 0.0
H552 H 0.35918 0.84742 0.26027 0.0
H553 H 0.28966 0.83014 0.2853 0.0
H554 H 0.35384 0.92021 0.3727 0.0
H555 H 0.42358 0.93604 0.34835 0.0
N556 N 0.47019 0.90778 0.29622 0.0
N557 N 0.51006 0.94058 0.24368 0.0
N558 N 0.44042 0.92856 0.24962 0.0
C559 C 0.50694 0.92263 0.27674 0.0
C560 C 0.47706 0.94397 0.23006 0.0
C561 C 0.43692 0.91071 0.28263 0.0
C562 C 0.54128 0.91469 0.28905 0.0
C563 C 0.53399 0.88546 0.31721 0.0
C564 C 0.56355 0.87206 0.32415 0.0
C565 C 0.60081 0.88773 0.30306 0.0
C566 C 0.60952 0.91939 0.27684 0.0
C567 C 0.58016 0.93277 0.26997 0.0
C568 C 0.47964 0.9618 0.19342 0.0
C569 C 0.51062 0.96573 0.1681 0.0
C570 C 0.51004 0.97903 0.13253 0.0
C571 C 0.47878 0.98906 0.12187 0.0
C572 C 0.44907 0.98674 0.14777 0.0
C573 C 0.4494 0.97318 0.1829 0.0
C574 C 0.3963 0.89319 0.30237 0.0
C575 C 0.3582 0.86201 0.2857 0.0
C576 C 0.167 0.46617 0.27951 0.0
C577 C 0.16999 0.46939 0.31728 0.0
C578 C 0.1771 0.50741 0.33428 0.0
C579 C 0.1713 0.53717 0.31487 0.0
H580 H 0.08393 0.57881 0.34698 0.0
H581 H 0.10533 0.64122 0.38599 0.0
H582 H 0.11907 0.7188 0.29203 0.0
H583 H 0.09739 0.65586 0.25316 0.0
H584 H 0.04979 0.57259 0.17282 0.0
H585 H 0.01536 0.53929 0.11504 0.0
H586 H 0.00898 0.42047 0.14765 0.0
H587 H 0.04401 0.45393 0.20431 0.0
H588 H 0.15157 0.48892 0.23185 0.0
H589 H 0.16254 0.43742 0.2658 0.0
H590 H 0.18073 0.51094 0.36339 0.0
H591 H 0.17148 0.5634 0.32965 0.0
N592 N 0.12346 0.57173 0.2846 0.0
N593 N 0.07051 0.56543 0.24423 0.0
N594 N 0.10606 0.52652 0.23448 0.0
C595 C 0.09383 0.58221 0.27485 0.0
C596 C 0.07635 0.53694 0.22426 0.0
C597 C 0.13035 0.5445 0.26434 0.0
C598 C 0.08974 0.61322 0.29733 0.0
C599 C 0.09021 0.60899 0.33497 0.0
C600 C 0.10314 0.6448 0.35713 0.0
C601 C 0.11594 0.68524 0.34176 0.0
C602 C 0.11087 0.68825 0.30438 0.0
C603 C 0.09755 0.65219 0.28221 0.0
C604 C 0.05001 0.51588 0.19239 0.0
C605 C 0.04032 0.53919 0.16759 0.0
C606 C 0.02091 0.52028 0.13465 0.0
C607 C 0.01008 0.4776 0.12681 0.0
C608 C 0.01712 0.45351 0.15289 0.0
C609 C 0.03732 0.47265 0.18524 0.0
C610 C 0.15745 0.52819 0.27871 0.0
C611 C 0.16025 0.49547 0.26014 0.0
C612 C 0.53327 0.70627 0.28024 0.0
C613 C 0.52405 0.69936 0.31725 0.0
C614 C 0.48243 0.66828 0.32812 0.0
C615 C 0.45429 0.63788 0.30327 0.0
H616 H 0.36237 0.51159 0.30926 0.0
H617 H 0.29349 0.45044 0.32708 0.0
H618 H 0.2914 0.3826 0.22954 0.0
H619 H 0.36054 0.44376 0.21183 0.0
H620 H 0.48477 0.48831 0.20319 0.0
H621 H 0.52156 0.47673 0.15318 0.0
H622 H 0.55357 0.60066 0.10853 0.0
H623 H 0.51812 0.61302 0.15964 0.0
H624 H 0.51584 0.67796 0.22758 0.0
H625 H 0.56474 0.73072 0.27107 0.0
H626 H 0.47419 0.66324 0.35657 0.0
H627 H 0.42497 0.61057 0.31339 0.0
N628 N 0.41641 0.56104 0.25969 0.0
N629 N 0.4325 0.51825 0.22221 0.0
N630 N 0.47798 0.59349 0.22351 0.0
C631 C 0.40612 0.52154 0.24656 0.0
C632 C 0.46859 0.55424 0.2107 0.0
C633 C 0.45211 0.59723 0.24806 0.0
C634 C 0.36651 0.48274 0.25886 0.0
C635 C 0.34728 0.48354 0.29169 0.0
C636 C 0.30788 0.44845 0.30198 0.0
C637 C 0.2867 0.41202 0.27946 0.0
C638 C 0.30674 0.41045 0.24732 0.0
C639 C 0.34643 0.4454 0.23722 0.0
C640 C 0.4974 0.55083 0.18446 0.0
C641 C 0.50076 0.51359 0.18324 0.0
C642 C 0.52255 0.50738 0.1549 0.0
C643 C 0.53996 0.53765 0.12667 0.0
C644 C 0.54044 0.57689 0.12994 0.0
C645 C 0.51968 0.58365 0.15892 0.0
C646 C 0.46807 0.6385 0.26763 0.0
C647 C 0.50529 0.67563 0.25535 0.0
O648 O 0.44 0.93389 0.92114 0.0
Mg649 Mg 0.49814 0.95648 0.94942 0.0
O650 O 0.47307 0.00243 0.93307 0.0
Mg651 Mg 0.48769 -0.00071 -0.00396 0.0
O652 O 0.49837 0.93918 0.00128 0.0
O653 O 0.51372 0.91116 0.95257 0.0
O654 O 0.4992 0.00041 0.05874 0.0
O655 O 0.41397 0.95033 0.00489 0.0
Mg656 Mg 0.4356 0.02764 0.02627 0.0
O657 O 0.48869 0.06434 -0.0039 0.0
O658 O 0.44409 0.00621 0.07662 0.0
O659 O 0.38074 0.98628 -0.00419 0.0
O660 O 0.45334 0.09051 0.02748 0.0
C661 C 0.5766 0.04334 0.95536 0.0
C662 C 0.45054 0.97152 0.91124 0.0
C663 C 0.51168 0.91472 0.98713 0.0
C664 C 0.47455 -0.0003 0.08392 0.0
C665 C 0.37925 0.95062 -0.00074 0.0
C666 C 0.48278 0.09603 0.0047 0.0
O667 O 0.55555 0.01346 0.93256 0.0
O668 O 0.55949 0.04332 0.9855 0.0
O669 O 0.03992 0.4816 0.91523 0.0
Mg670 Mg 0.04054 0.52936 0.95006 0.0
O671 O 0.97869 0.45941 0.94142 0.0
Mg672 Mg -0.00503 0.47451 0.00165 0.0
O673 O 0.06128 0.54094 0.00185 0.0
O674 O 0.09933 0.58166 0.95458 0.0
O675 O 0.00331 0.48336 0.06352 0.0
O676 O 0.0357 0.44105 -0.00146 0.0
Mg677 Mg 0.95382 0.38375 0.03884 0.0
O678 O 0.92963 0.41199 0.00629 0.0
O679 O 0.97541 0.41796 0.08765 0.0
O680 O -0.00298 0.37127 0.00987 0.0
O681 O 0.88924 0.34664 0.03034 0.0
C682 C 0.96278 0.53639 0.97298 0.0
C683 C -0.00042 0.46038 0.91358 0.0
C684 C 0.09457 0.5754 0.98902 0.0
C685 C -0.00555 0.45872 0.09091 0.0
C686 C 0.03173 0.40368 -0.00076 0.0
C687 C 0.89281 0.37667 0.00899 0.0
O688 O 0.99017 0.54441 0.948 0.0
O689 O 0.95922 0.51211 -0.00043 0.0
O690 O 0.54807 0.48963 0.08893 0.0
Mg691 Mg 0.48563 0.44994 0.06786 0.0
O692 O 0.52471 0.52886 0.0651 0.0
Mg693 Mg 0.50442 0.5005 0.00669 0.0
O694 O 0.48082 0.42807 0.01662 0.0
O695 O 0.46538 0.38635 0.06604 0.0
O696 O 0.48696 0.47992 0.94605 0.0
O697 O 0.57382 0.51015 -0.00228 0.0
Mg698 Mg 0.56752 0.57371 0.96743 0.0
O699 O 0.51791 0.5693 -0.00487 0.0
O700 O 0.54693 0.53272 0.92205 0.0
O701 O 0.61536 0.57989 0.00325 0.0
O702 O 0.5617 0.62642 0.96095 0.0
C703 C 0.41725 0.47258 0.05021 0.0
C704 C 0.54443 0.52269 0.09073 0.0
C705 C 0.46721 0.39053 0.03132 0.0
C706 C 0.51102 0.49814 0.91867 0.0
C707 C 0.61093 0.54279 0.0038 0.0
C708 C 0.53042 0.60797 0.98368 0.0
O709 O 0.4349 0.46345 0.07578 0.0
O710 O 0.4356 0.48474 0.01942 0.0
O711 O 0.10658 0.26731 0.2544 0.0
Mg712 Mg 0.16472 0.28983 0.28265 0.0
O713 O 0.13969 0.33584 0.26635 0.0
Mg714 Mg 0.15429 0.33266 0.3293 0.0
O715 O 0.16494 0.27252 0.3345 0.0
O716 O 0.18024 0.24447 0.28579 0.0
O717 O 0.16579 0.33373 0.392 0.0
O718 O 0.08057 0.28371 0.33815 0.0
Mg719 Mg 0.10222 0.36101 0.35955 0.0
O720 O 0.15532 0.39771 0.3294 0.0
O721 O 0.11069 0.33954 0.40989 0.0
O722 O 0.04734 0.31968 0.32909 0.0
O723 O 0.11998 0.42389 0.36078 0.0
C724 C 0.24321 0.37668 0.28863 0.0
C725 C 0.11714 0.30495 0.24451 0.0
C726 C 0.17821 0.24803 0.32035 0.0
C727 C 0.14114 0.33302 0.41719 0.0
C728 C 0.04585 0.28401 0.33253 0.0
C729 C 0.14943 0.42941 0.33801 0.0
O730 O 0.22215 0.34682 0.26581 0.0
O731 O 0.2261 0.37666 0.31877 0.0
O732 O 0.7066 0.8149 0.2486 0.0
Mg733 Mg 0.7072 0.86266 0.28341 0.0
O734 O 0.64536 0.79271 0.27478 0.0
Mg735 Mg 0.66164 0.80783 0.335 0.0
O736 O 0.72794 0.87427 0.33519 0.0
O737 O 0.76597 0.91498 0.28791 0.0
O738 O 0.66998 0.81668 0.39687 0.0
O739 O 0.70238 0.77438 0.3319 0.0
Mg740 Mg 0.62047 0.71701 0.37222 0.0
O741 O 0.59632 0.74529 0.33967 0.0
O742 O 0.64209 0.75127 0.421 0.0
O743 O 0.66371 0.70459 0.34323 0.0
O744 O 0.55589 0.67993 0.36369 0.0
C745 C 0.62942 0.86968 0.30631 0.0
C746 C 0.66626 0.79368 0.24695 0.0
C747 C 0.76122 0.90874 0.32236 0.0
C748 C 0.66112 0.79203 0.42426 0.0
C749 C 0.69842 0.73701 0.3326 0.0
C750 C 0.55948 0.70998 0.34234 0.0
O751 O 0.65681 0.87769 0.28134 0.0
O752 O 0.62586 0.8454 0.33291 0.0
O753 O 0.21478 0.82303 0.42227 0.0
Mg754 Mg 0.15233 0.78331 0.40123 0.0
O755 O 0.1914 0.86224 0.39844 0.0
Mg756 Mg 0.1711 0.83385 0.34004 0.0
O757 O 0.14751 0.76143 0.35 0.0
O758 O 0.13209 0.71972 0.39942 0.0
O759 O 0.15365 0.81325 0.2794 0.0
O760 O 0.24051 0.84351 0.33107 0.0
Mg761 Mg 0.23421 0.90709 0.30074 0.0
O762 O 0.1846 0.90264 0.32844 0.0
O763 O 0.2136 0.86606 0.25538 0.0
O764 O 0.28204 0.91325 0.33657 0.0
O765 O 0.22836 0.95978 0.29428 0.0
C766 C 0.08395 0.80594 0.38356 0.0
C767 C 0.21113 0.85608 0.42406 0.0
C768 C 0.1339 0.72389 0.36469 0.0
C769 C 0.1777 0.83147 0.25201 0.0
C770 C 0.27761 0.87615 0.33714 0.0
C771 C 0.19709 0.94131 0.317 0.0
O772 O 0.1016 0.79682 0.40914 0.0
O773 O 0.10229 0.81809 0.35276 0.0
O774 O 0.77331 0.60066 0.58779 0.0
Mg775 Mg 0.83145 0.62319 0.61605 0.0
O776 O 0.80642 0.6692 0.59973 0.0
Mg777 Mg 0.82103 0.66602 0.66269 0.0
O778 O 0.83166 0.60588 0.6679 0.0
O779 O 0.84698 0.57783 0.6192 0.0
O780 O 0.83254 0.66711 0.72539 0.0
O781 O 0.7473 0.61709 0.67155 0.0
Mg782 Mg 0.76898 0.69439 0.69295 0.0
O783 O 0.82207 0.73109 0.66278 0.0
O784 O 0.77745 0.67293 0.74329 0.0
O785 O 0.71409 0.65307 0.66249 0.0
O786 O 0.78675 0.75728 0.69419 0.0
C787 C 0.90994 0.71003 0.62201 0.0
C788 C 0.78387 0.6383 0.5779 0.0
C789 C 0.84494 0.5814 0.65376 0.0
C790 C 0.8079 0.6664 0.75058 0.0
C791 C 0.71259 0.6174 0.66592 0.0
C792 C 0.81619 0.76279 0.6714 0.0
O793 O 0.88888 0.68017 0.5992 0.0
O794 O 0.89283 0.71002 0.65215 0.0
O795 O 0.37331 0.1484 0.58181 0.0
Mg796 Mg 0.37391 0.19614 0.61664 0.0
O797 O 0.31207 0.12616 0.60801 0.0
Mg798 Mg 0.32834 0.14128 0.66824 0.0
O799 O 0.39464 0.20771 0.66843 0.0
O800 O 0.43269 0.24846 0.62117 0.0
O801 O 0.33668 0.15013 0.73012 0.0
O802 O 0.36911 0.10784 0.66516 0.0
Mg803 Mg 0.28723 0.05051 0.70541 0.0
O804 O 0.26301 0.07875 0.67288 0.0
O805 O 0.30883 0.08472 0.75422 0.0
O806 O 0.33042 0.03805 0.67643 0.0
O807 O 0.22265 0.01339 0.69694 0.0
C808 C 0.29612 0.20314 0.63956 0.0
C809 C 0.33297 0.12715 0.58017 0.0
C810 C 0.42792 0.24219 0.65561 0.0
C811 C 0.32784 0.12547 0.75749 0.0
C812 C 0.36515 0.07047 0.66584 0.0
C813 C 0.22619 0.04342 0.67559 0.0
O814 O 0.32352 0.21117 0.61459 0.0
O815 O 0.29257 0.17885 0.66616 0.0
O816 O 0.88146 0.15638 0.75557 0.0
Mg817 Mg 0.81902 0.11667 0.7345 0.0
O818 O 0.85804 0.19557 0.73175 0.0
Mg819 Mg 0.83774 0.16719 0.67335 0.0
O820 O 0.81417 0.09476 0.68328 0.0
O821 O 0.79878 0.05309 0.73272 0.0
O822 O 0.82028 0.1466 0.6127 0.0
O823 O 0.90715 0.17687 0.66436 0.0
Mg824 Mg 0.90082 0.24041 0.63407 0.0
O825 O 0.85121 0.23598 0.66179 0.0
O826 O 0.88023 0.19942 0.58869 0.0
O827 O 0.94868 0.24661 0.66988 0.0
O828 O 0.89497 0.2931 0.6276 0.0
C829 C 0.75059 0.13924 0.71689 0.0
C830 C 0.87779 0.18942 0.75737 0.0
C831 C 0.80057 0.05723 0.69799 0.0
C832 C 0.84433 0.16483 0.58532 0.0
C833 C 0.94425 0.20951 0.67043 0.0
C834 C 0.86371 0.27465 0.65034 0.0
O835 O 0.76827 0.13014 0.74246 0.0
O836 O 0.76892 0.1514 0.68609 0.0
loop_
_geom_bond_atom_site_label_1
_geom_bond_atom_site_label_2
_geom_bond_distance
_geom_bond_site_symmetry_2
_ccdc_geom_bond_type
C0 C1 1.384 . S
C0 H13 0.947 . S
C0 C35 1.382 1_565 S
C1 C0 1.384 . S
C1 C2 1.378 1_565 S
C2 C1 1.378 1_545 S
C2 C3 1.378 . S
C2 H14 0.952 . S
C3 C2 1.378 . S
C3 H15 0.950 . S
C3 C34 1.383 . S
H4 C23 0.947 . S
H5 C24 0.946 . S
H6 C26 0.953 . S
H7 C27 0.945 . S
H8 C29 0.952 . S
H9 C30 0.949 . S
H10 C32 0.950 . S
H11 C33 0.948 . S
H12 C35 0.951 . S
H13 C0 0.947 . S
H14 C2 0.952 . S
H15 C3 0.950 . S
N16 C19 1.382 . S
N16 C21 1.363 . S
N17 C19 1.371 . S
N17 C20 1.372 . S
N18 C20 1.361 . S
N18 C21 1.377 . S
C19 N16 1.382 . S
C19 N17 1.371 . S
C19 C22 1.480 . S
C20 N17 1.372 . S
C20 N18 1.361 . S
C20 C28 1.457 . S
C21 N16 1.363 . S
C21 N18 1.377 . S
C21 C34 1.479 . S
C22 C19 1.480 . S
C22 C23 1.383 . S
C22 C27 1.385 . S
C23 H4 0.947 . S
C23 C22 1.383 . S
C23 C24 1.388 . S
C24 H5 0.946 . S
C24 C23 1.388 . S
C24 C25 1.384 . S
C25 C24 1.384 . S
C25 C26 1.377 . S
C26 H6 0.953 . S
C26 C25 1.377 . S
C26 C27 1.369 . S
C27 H7 0.945 . S
C27 C22 1.385 . S
C27 C26 1.369 . S
C28 C20 1.457 . S
C28 C29 1.372 . S
C28 C33 1.364 . S
C29 H8 0.952 . S
C29 C28 1.372 . S
C29 C30 1.389 . S
C30 H9 0.949 . S
C30 C29 1.389 . S
C30 C31 1.387 . S
C31 C30 1.387 . S
C31 C32 1.372 . S
C32 H10 0.950 . S
C32 C31 1.372 . S
C32 C33 1.379 . S
C33 H11 0.948 . S
C33 C28 1.364 . S
C33 C32 1.379 . S
C34 C3 1.383 . S
C34 C21 1.479 . S
C34 C35 1.398 . S
C35 C0 1.382 1_545 S
C35 H12 0.951 . S
C35 C34 1.398 . S
C36 C37 1.384 . S
C36 H49 0.947 . S
C36 C71 1.382 1_455 S
C37 C36 1.384 . S
C37 C38 1.378 1_455 S
C38 C37 1.378 1_655 S
C38 C39 1.378 . S
C38 H50 0.952 . S
C39 C38 1.378 . S
C39 H51 0.950 . S
C39 C70 1.383 . S
H40 C59 0.947 . S
H41 C60 0.946 1_565 S
H42 C62 0.953 . S
H43 C63 0.945 . S
H44 C65 0.952 . S
H45 C66 0.949 . S
H46 C68 0.950 . S
H47 C69 0.948 . S
H48 C71 0.951 . S
H49 C36 0.947 . S
H50 C38 0.952 . S
H51 C39 0.950 . S
N52 C55 1.382 . S
N52 C57 1.363 . S
N53 C55 1.371 . S
N53 C56 1.372 . S
N54 C56 1.361 . S
N54 C57 1.377 . S
C55 N52 1.382 . S
C55 N53 1.371 . S
C55 C58 1.480 . S
C56 N53 1.372 . S
C56 N54 1.361 . S
C56 C64 1.457 . S
C57 N52 1.363 . S
C57 N54 1.377 . S
C57 C70 1.479 . S
C58 C55 1.480 . S
C58 C59 1.383 . S
C58 C63 1.385 . S
C59 H40 0.947 . S
C59 C58 1.383 . S
C59 C60 1.388 . S
C60 H41 0.946 1_545 S
C60 C59 1.388 . S
C60 C61 1.384 1_545 S
C61 C60 1.384 1_565 S
C61 C62 1.377 . S
C62 H42 0.953 . S
C62 C61 1.377 . S
C62 C63 1.369 1_565 S
C63 H43 0.945 . S
C63 C58 1.385 . S
C63 C62 1.369 1_545 S
C64 C56 1.457 . S
C64 C65 1.372 . S
C64 C69 1.364 . S
C65 H44 0.952 . S
C65 C64 1.372 . S
C65 C66 1.389 . S
C66 H45 0.949 . S
C66 C65 1.389 . S
C66 C67 1.387 . S
C67 C66 1.387 . S
C67 C68 1.372 . S
C68 H46 0.950 . S
C68 C67 1.372 . S
C68 C69 1.379 . S
C69 H47 0.948 . S
C69 C64 1.364 . S
C69 C68 1.379 . S
C70 C39 1.383 . S
C70 C57 1.479 . S
C70 C71 1.398 . S
C71 C36 1.382 1_655 S
C71 H48 0.951 . S
C71 C70 1.398 . S
C72 C73 1.384 . S
C72 H85 0.947 . S
C72 C107 1.382 . S
C73 C72 1.384 . S
C73 C74 1.378 . S
C74 C73 1.378 . S
C74 C75 1.378 . S
C74 H86 0.952 . S
C75 C74 1.378 . S
C75 H87 0.950 . S
C75 C106 1.383 . S
H76 C95 0.947 . S
H77 C96 0.946 1_455 S
H78 C98 0.953 . S
H79 C99 0.945 . S
H80 C101 0.952 . S
H81 C102 0.949 . S
H82 C104 0.950 . S
H83 C105 0.948 . S
H84 C107 0.951 . S
H85 C72 0.947 . S
H86 C74 0.952 . S
H87 C75 0.950 . S
N88 C91 1.382 . S
N88 C93 1.363 . S
N89 C91 1.371 . S
N89 C92 1.372 . S
N90 C92 1.361 . S
N90 C93 1.377 . S
C91 N88 1.382 . S
C91 N89 1.371 . S
C91 C94 1.480 . S
C92 N89 1.372 . S
C92 N90 1.361 . S
C92 C100 1.457 . S
C93 N88 1.363 . S
C93 N90 1.377 . S
C93 C106 1.479 . S
C94 C91 1.480 . S
C94 C95 1.383 . S
C94 C99 1.385 . S
C95 H76 0.947 . S
C95 C94 1.383 . S
C95 C96 1.388 . S
C96 H77 0.946 1_655 S
C96 C95 1.388 . S
C96 C97 1.384 1_655 S
C97 C96 1.384 1_455 S
C97 C98 1.377 . S
C98 H78 0.953 . S
C98 C97 1.377 . S
C98 C99 1.369 1_455 S
C99 H79 0.945 . S
C99 C94 1.385 . S
C99 C98 1.369 1_655 S
C100 C92 1.457 . S
C100 C101 1.372 . S
C100 C105 1.364 . S
C101 H80 0.952 . S
C101 C100 1.372 . S
C101 C102 1.389 . S
C102 H81 0.949 . S
C102 C101 1.389 . S
C102 C103 1.387 . S
C103 C102 1.387 . S
C103 C104 1.372 . S
C104 H82 0.950 . S
C104 C103 1.372 . S
C104 C105 1.379 . S
C105 H83 0.948 . S
C105 C100 1.364 . S
C105 C104 1.379 . S
C106 C75 1.383 . S
C106 C93 1.479 . S
C106 C107 1.398 . S
C107 C72 1.382 . S
C107 H84 0.951 . S
C107 C106 1.398 . S
C108 C109 1.384 . S
C108 H121 0.947 . S
C108 C143 1.382 1_655 S
C109 C108 1.384 . S
C109 C110 1.378 1_655 S
C110 C109 1.378 1_455 S
C110 C111 1.378 . S
C110 H122 0.952 . S
C111 C110 1.378 . S
C111 H123 0.950 . S
C111 C142 1.383 . S
H112 C131 0.947 . S
H113 C132 0.946 . S
H114 C134 0.953 . S
H115 C135 0.945 . S
H116 C137 0.952 . S
H117 C138 0.949 . S
H118 C140 0.950 . S
H119 C141 0.948 . S
H120 C143 0.951 . S
H121 C108 0.947 . S
H122 C110 0.952 . S
H123 C111 0.950 . S
N124 C127 1.382 . S
N124 C129 1.363 . S
N125 C127 1.371 . S
N125 C128 1.372 . S
N126 C128 1.361 . S
N126 C129 1.377 . S
C127 N124 1.382 . S
C127 N125 1.371 . S
C127 C130 1.480 . S
C128 N125 1.372 . S
C128 N126 1.361 . S
C128 C136 1.457 . S
C129 N124 1.363 . S
C129 N126 1.377 . S
C129 C142 1.479 . S
C130 C127 1.480 . S
C130 C131 1.383 . S
C130 C135 1.385 . S
C131 H112 0.947 . S
C131 C130 1.383 . S
C131 C132 1.388 . S
C132 H113 0.946 . S
C132 C131 1.388 . S
C132 C133 1.384 . S
C133 C132 1.384 . S
C133 C134 1.377 . S
C134 H114 0.953 . S
C134 C133 1.377 . S
C134 C135 1.369 . S
C135 H115 0.945 . S
C135 C130 1.385 . S
C135 C134 1.369 . S
C136 C128 1.457 . S
C136 C137 1.372 . S
C136 C141 1.364 . S
C137 H116 0.952 . S
C137 C136 1.372 . S
C137 C138 1.389 . S
C138 H117 0.949 . S
C138 C137 1.389 . S
C138 C139 1.387 . S
C139 C138 1.387 . S
C139 C140 1.372 . S
C140 H118 0.950 . S
C140 C139 1.372 . S
C140 C141 1.379 . S
C141 H119 0.948 . S
C141 C136 1.364 . S
C141 C140 1.379 . S
C142 C111 1.383 . S
C142 C129 1.479 . S
C142 C143 1.398 . S
C143 C108 1.382 1_455 S
C143 H120 0.951 . S
C143 C142 1.398 . S
C144 C145 1.384 . S
C144 H157 0.947 . S
C144 C179 1.382 . S
C145 C144 1.384 . S
C145 C146 1.378 . S
C146 C145 1.378 . S
C146 C147 1.378 . S
C146 H158 0.952 . S
C147 C146 1.378 . S
C147 H159 0.950 . S
C147 C178 1.383 . S
H148 C167 0.947 . S
H149 C168 0.946 1_545 S
H150 C170 0.953 . S
H151 C171 0.945 . S
H152 C173 0.952 . S
H153 C174 0.949 . S
H154 C176 0.950 . S
H155 C177 0.948 . S
H156 C179 0.951 . S
H157 C144 0.947 . S
H158 C146 0.952 . S
H159 C147 0.950 . S
N160 C163 1.382 . S
N160 C165 1.363 . S
N161 C163 1.371 . S
N161 C164 1.372 . S
N162 C164 1.361 . S
N162 C165 1.377 . S
C163 N160 1.382 . S
C163 N161 1.371 . S
C163 C166 1.480 . S
C164 N161 1.372 . S
C164 N162 1.361 . S
C164 C172 1.457 . S
C165 N160 1.363 . S
C165 N162 1.377 . S
C165 C178 1.479 . S
C166 C163 1.480 . S
C166 C167 1.383 . S
C166 C171 1.385 . S
C167 H148 0.947 . S
C167 C166 1.383 . S
C167 C168 1.388 . S
C168 H149 0.946 1_565 S
C168 C167 1.388 . S
C168 C169 1.384 1_565 S
C169 C168 1.384 1_545 S
C169 C170 1.377 . S
C170 H150 0.953 . S
C170 C169 1.377 . S
C170 C171 1.369 1_545 S
C171 H151 0.945 . S
C171 C166 1.385 . S
C171 C170 1.369 1_565 S
C172 C164 1.457 . S
C172 C173 1.372 . S
C172 C177 1.364 . S
C173 H152 0.952 . S
C173 C172 1.372 . S
C173 C174 1.389 . S
C174 H153 0.949 . S
C174 C173 1.389 . S
C174 C175 1.387 . S
C175 C174 1.387 . S
C175 C176 1.372 . S
C176 H154 0.950 . S
C176 C175 1.372 . S
C176 C177 1.379 . S
C177 H155 0.948 . S
C177 C172 1.364 . S
C177 C176 1.379 . S
C178 C147 1.383 . S
C178 C165 1.479 . S
C178 C179 1.398 . S
C179 C144 1.382 . S
C179 H156 0.951 . S
C179 C178 1.398 . S
C180 C181 1.384 . S
C180 H193 0.947 . S
C180 C215 1.382 1_545 S
C181 C180 1.384 . S
C181 C182 1.378 1_545 S
C182 C181 1.378 1_565 S
C182 C183 1.378 . S
C182 H194 0.952 . S
C183 C182 1.378 . S
C183 H195 0.950 . S
C183 C214 1.383 . S
H184 C203 0.947 . S
H185 C204 0.946 . S
H186 C206 0.953 . S
H187 C207 0.945 . S
H188 C209 0.952 . S
H189 C210 0.949 . S
H190 C212 0.950 . S
H191 C213 0.948 . S
H192 C215 0.951 . S
H193 C180 0.947 . S
H194 C182 0.952 . S
H195 C183 0.950 . S
N196 C199 1.382 . S
N196 C201 1.363 . S
N197 C199 1.371 . S
N197 C200 1.372 . S
N198 C200 1.361 . S
N198 C201 1.377 . S
C199 N196 1.382 . S
C199 N197 1.371 . S
C199 C202 1.480 . S
C200 N197 1.372 . S
C200 N198 1.361 . S
C200 C208 1.457 . S
C201 N196 1.363 . S
C201 N198 1.377 . S
C201 C214 1.479 . S
C202 C199 1.480 . S
C202 C203 1.383 . S
C202 C207 1.385 . S
C203 H184 0.947 . S
C203 C202 1.383 . S
C203 C204 1.388 . S
C204 H185 0.946 . S
C204 C203 1.388 . S
C204 C205 1.384 1_455 S
C205 C204 1.384 1_655 S
C205 C206 1.377 . S
C206 H186 0.953 . S
C206 C205 1.377 . S
C206 C207 1.369 1_655 S
C207 H187 0.945 . S
C207 C202 1.385 . S
C207 C206 1.369 1_455 S
C208 C200 1.457 . S
C208 C209 1.372 . S
C208 C213 1.364 . S
C209 H188 0.952 . S
C209 C208 1.372 . S
C209 C210 1.389 . S
C210 H189 0.949 . S
C210 C209 1.389 . S
C210 C211 1.387 . S
C211 C210 1.387 . S
C211 C212 1.372 . S
C212 H190 0.950 . S
C212 C211 1.372 . S
C212 C213 1.379 . S
C213 H191 0.948 . S
C213 C208 1.364 . S
C213 C212 1.379 . S
C214 C183 1.383 . S
C214 C201 1.479 . S
C214 C215 1.398 . S
C215 C180 1.382 1_565 S
C215 H192 0.951 . S
C215 C214 1.398 . S
C216 C217 1.384 . S
C216 H229 0.947 . S
C216 C251 1.382 . S
C217 C216 1.384 . S
C217 C218 1.378 . S
C218 C217 1.378 . S
C218 C219 1.378 . S
C218 H230 0.952 . S
C219 C218 1.378 . S
C219 H231 0.950 . S
C219 C250 1.383 . S
H220 C239 0.947 . S
H221 C240 0.946 . S
H222 C242 0.953 . S
H223 C243 0.945 . S
H224 C245 0.952 . S
H225 C246 0.949 . S
H226 C248 0.949 1_455 S
H227 C249 0.948 . S
H228 C251 0.951 . S
H229 C216 0.947 . S
H230 C218 0.952 . S
H231 C219 0.950 . S
N232 C235 1.382 . S
N232 C237 1.363 . S
N233 C235 1.371 . S
N233 C236 1.372 . S
N234 C236 1.361 . S
N234 C237 1.377 . S
C235 N232 1.382 . S
C235 N233 1.371 . S
C235 C238 1.480 . S
C236 N233 1.372 . S
C236 N234 1.361 . S
C236 C244 1.457 . S
C237 N232 1.363 . S
C237 N234 1.377 . S
C237 C250 1.479 . S
C238 C235 1.480 . S
C238 C239 1.383 . S
C238 C243 1.385 . S
C239 H220 0.947 . S
C239 C238 1.383 . S
C239 C240 1.388 . S
C240 H221 0.946 . S
C240 C239 1.388 . S
C240 C241 1.384 . S
C241 C240 1.384 . S
C241 C242 1.377 . S
C242 H222 0.953 . S
C242 C241 1.377 . S
C242 C243 1.369 . S
C243 H223 0.945 . S
C243 C238 1.385 . S
C243 C242 1.369 . S
C244 C236 1.457 . S
C244 C245 1.372 . S
C244 C249 1.364 . S
C245 H224 0.952 . S
C245 C244 1.372 . S
C245 C246 1.389 . S
C246 H225 0.949 . S
C246 C245 1.389 . S
C246 C247 1.387 1_655 S
C247 C246 1.387 1_455 S
C247 C248 1.372 1_455 S
C248 H226 0.949 1_655 S
C248 C247 1.372 1_655 S
C248 C249 1.379 . S
C249 H227 0.948 . S
C249 C244 1.364 . S
C249 C248 1.379 . S
C250 C219 1.383 . S
C250 C237 1.479 . S
C250 C251 1.398 . S
C251 C216 1.382 . S
C251 H228 0.951 . S
C251 C250 1.398 . S
C252 C253 1.384 . S
C252 H265 0.947 . S
C252 C287 1.382 . S
C253 C252 1.384 . S
C253 C254 1.378 . S
C254 C253 1.378 . S
C254 C255 1.378 . S
C254 H266 0.952 . S
C255 C254 1.378 . S
C255 H267 0.950 . S
C255 C286 1.383 . S
H256 C275 0.947 . S
H257 C276 0.946 . S
H258 C278 0.953 . S
H259 C279 0.945 . S
H260 C281 0.952 . S
H261 C282 0.949 . S
H262 C284 0.950 . S
H263 C285 0.948 . S
H264 C287 0.951 . S
H265 C252 0.947 . S
H266 C254 0.952 . S
H267 C255 0.950 . S
N268 C271 1.382 . S
N268 C273 1.363 . S
N269 C271 1.371 . S
N269 C272 1.372 . S
N270 C272 1.361 . S
N270 C273 1.377 . S
C271 N268 1.382 . S
C271 N269 1.371 . S
C271 C274 1.480 . S
C272 N269 1.372 . S
C272 N270 1.361 . S
C272 C280 1.457 . S
C273 N268 1.363 . S
C273 N270 1.377 . S
C273 C286 1.479 . S
C274 C271 1.480 . S
C274 C275 1.383 . S
C274 C279 1.385 . S
C275 H256 0.947 . S
C275 C274 1.383 . S
C275 C276 1.388 . S
C276 H257 0.946 . S
C276 C275 1.388 . S
C276 C277 1.384 . S
C277 C276 1.384 . S
C277 C278 1.377 . S
C278 H258 0.953 . S
C278 C277 1.377 . S
C278 C279 1.369 . S
C279 H259 0.945 . S
C279 C274 1.385 . S
C279 C278 1.369 . S
C280 C272 1.457 . S
C280 C281 1.372 . S
C280 C285 1.364 . S
C281 H260 0.952 . S
C281 C280 1.372 . S
C281 C282 1.389 . S
C282 H261 0.949 . S
C282 C281 1.389 . S
C282 C283 1.387 . S
C283 C282 1.387 . S
C283 C284 1.372 . S
C284 H262 0.950 . S
C284 C283 1.372 . S
C284 C285 1.379 . S
C285 H263 0.948 . S
C285 C280 1.364 . S
C285 C284 1.379 . S
C286 C255 1.383 . S
C286 C273 1.479 . S
C286 C287 1.398 . S
C287 C252 1.382 . S
C287 H264 0.951 . S
C287 C286 1.398 . S
C288 C289 1.384 . S
C288 H301 0.947 . S
C288 C323 1.382 . S
C289 C288 1.384 . S
C289 C290 1.378 . S
C290 C289 1.378 . S
C290 C291 1.378 . S
C290 H302 0.952 . S
C291 C290 1.378 . S
C291 H303 0.950 . S
C291 C322 1.383 . S
H292 C311 0.947 . S
H293 C312 0.946 . S
H294 C314 0.953 . S
H295 C315 0.945 . S
H296 C317 0.952 . S
H297 C318 0.949 . S
H298 C320 0.947 . S
H299 C321 0.948 . S
H300 C323 0.951 . S
H301 C288 0.947 . S
H302 C290 0.952 . S
H303 C291 0.950 . S
N304 C307 1.382 . S
N304 C309 1.363 . S
N305 C307 1.371 . S
N305 C308 1.372 . S
N306 C308 1.361 . S
N306 C309 1.377 . S
C307 N304 1.382 . S
C307 N305 1.371 . S
C307 C310 1.480 . S
C308 N305 1.372 . S
C308 N306 1.361 . S
C308 C316 1.457 . S
C309 N304 1.363 . S
C309 N306 1.377 . S
C309 C322 1.479 . S
C310 C307 1.480 . S
C310 C311 1.383 . S
C310 C315 1.385 . S
C311 H292 0.947 . S
C311 C310 1.383 . S
C311 C312 1.388 . S
C312 H293 0.946 . S
C312 C311 1.388 . S
C312 C313 1.384 . S
C313 C312 1.384 . S
C313 C314 1.377 . S
C314 H294 0.953 . S
C314 C313 1.377 . S
C314 C315 1.369 . S
C315 H295 0.945 . S
C315 C310 1.385 . S
C315 C314 1.369 . S
C316 C308 1.457 . S
C316 C317 1.372 . S
C316 C321 1.364 . S
C317 H296 0.952 . S
C317 C316 1.372 . S
C317 C318 1.389 . S
C318 H297 0.949 . S
C318 C317 1.389 . S
C318 C319 1.387 1_545 S
C319 C318 1.387 1_565 S
C319 C320 1.381 . S
C320 H298 0.947 . S
C320 C319 1.381 . S
C320 C321 1.373 1_565 S
C321 H299 0.948 . S
C321 C316 1.364 . S
C321 C320 1.373 1_545 S
C322 C291 1.383 . S
C322 C309 1.479 . S
C322 C323 1.398 . S
C323 C288 1.382 . S
C323 H300 0.951 . S
C323 C322 1.398 . S
C324 C325 1.384 1_556 S
C324 H337 0.947 . S
C324 C359 1.382 . S
C325 C324 1.384 1_554 S
C325 C326 1.378 . S
C326 C325 1.378 . S
C326 C327 1.378 . S
C326 H338 0.952 . S
C327 C326 1.378 . S
C327 H339 0.950 . S
C327 C358 1.383 1_554 S
H328 C347 0.947 . S
H329 C348 0.946 . S
H330 C350 0.953 . S
H331 C351 0.945 . S
H332 C353 0.952 . S
H333 C354 0.949 . S
H334 C356 0.950 . S
H335 C357 0.948 . S
H336 C359 0.951 . S
H337 C324 0.947 . S
H338 C326 0.952 . S
H339 C327 0.950 . S
N340 C343 1.382 . S
N340 C345 1.363 . S
N341 C343 1.371 . S
N341 C344 1.372 . S
N342 C344 1.361 . S
N342 C345 1.377 . S
C343 N340 1.382 . S
C343 N341 1.371 . S
C343 C346 1.480 . S
C344 N341 1.372 . S
C344 N342 1.361 . S
C344 C352 1.457 . S
C345 N340 1.363 . S
C345 N342 1.377 . S
C345 C358 1.479 . S
C346 C343 1.480 . S
C346 C347 1.383 1_556 S
C346 C351 1.385 . S
C347 H328 0.947 . S
C347 C346 1.383 1_554 S
C347 C348 1.388 . S
C348 H329 0.946 . S
C348 C347 1.388 . S
C348 C349 1.384 . S
C349 C348 1.384 . S
C349 C350 1.377 1_554 S
C350 H330 0.953 . S
C350 C349 1.377 1_556 S
C350 C351 1.369 . S
C351 H331 0.945 . S
C351 C346 1.385 . S
C351 C350 1.369 . S
C352 C344 1.457 . S
C352 C353 1.372 . S
C352 C357 1.364 . S
C353 H332 0.952 . S
C353 C352 1.372 . S
C353 C354 1.389 . S
C354 H333 0.949 . S
C354 C353 1.389 . S
C354 C355 1.387 . S
C355 C354 1.387 . S
C355 C356 1.372 . S
C356 H334 0.950 . S
C356 C355 1.372 . S
C356 C357 1.379 . S
C357 H335 0.948 . S
C357 C352 1.364 . S
C357 C356 1.379 . S
C358 C327 1.383 1_556 S
C358 C345 1.479 . S
C358 C359 1.398 . S
C359 C324 1.382 . S
C359 H336 0.951 . S
C359 C358 1.398 . S
C360 C361 1.384 1_556 S
C360 H373 0.947 . S
C360 C395 1.382 . S
C361 C360 1.384 1_554 S
C361 C362 1.378 . S
C362 C361 1.378 . S
C362 C363 1.378 . S
C362 H374 0.952 . S
C363 C362 1.378 . S
C363 H375 0.950 . S
C363 C394 1.383 1_554 S
H364 C383 0.947 . S
H365 C384 0.946 . S
H366 C386 0.953 . S
H367 C387 0.945 . S
H368 C389 0.952 . S
H369 C390 0.949 . S
H370 C392 0.950 . S
H371 C393 0.948 . S
H372 C395 0.951 . S
H373 C360 0.947 . S
H374 C362 0.952 . S
H375 C363 0.950 . S
N376 C379 1.382 . S
N376 C381 1.363 . S
N377 C379 1.371 . S
N377 C380 1.372 . S
N378 C380 1.361 . S
N378 C381 1.377 . S
C379 N376 1.382 . S
C379 N377 1.371 . S
C379 C382 1.480 . S
C380 N377 1.372 . S
C380 N378 1.361 . S
C380 C388 1.457 . S
C381 N376 1.363 . S
C381 N378 1.377 . S
C381 C394 1.479 . S
C382 C379 1.480 . S
C382 C383 1.383 1_556 S
C382 C387 1.385 . S
C383 H364 0.947 . S
C383 C382 1.383 1_554 S
C383 C384 1.388 . S
C384 H365 0.946 . S
C384 C383 1.388 . S
C384 C385 1.384 . S
C385 C384 1.384 . S
C385 C386 1.377 1_554 S
C386 H366 0.953 . S
C386 C385 1.377 1_556 S
C386 C387 1.369 . S
C387 H367 0.945 . S
C387 C382 1.385 . S
C387 C386 1.369 . S
C388 C380 1.457 . S
C388 C389 1.372 . S
C388 C393 1.364 . S
C389 H368 0.952 . S
C389 C388 1.372 . S
C389 C390 1.389 . S
C390 H369 0.949 . S
C390 C389 1.389 . S
C390 C391 1.387 . S
C391 C390 1.387 . S
C391 C392 1.372 . S
C392 H370 0.950 . S
C392 C391 1.372 . S
C392 C393 1.379 . S
C393 H371 0.948 . S
C393 C388 1.364 . S
C393 C392 1.379 . S
C394 C363 1.383 1_556 S
C394 C381 1.479 . S
C394 C395 1.398 . S
C395 C360 1.382 . S
C395 H372 0.951 . S
C395 C394 1.398 . S
C396 C397 1.384 1_556 S
C396 H409 0.947 . S
C396 C431 1.382 . S
C397 C396 1.384 1_554 S
C397 C398 1.378 . S
C398 C397 1.378 . S
C398 C399 1.378 . S
C398 H410 0.952 . S
C399 C398 1.378 . S
C399 H411 0.950 . S
C399 C430 1.383 1_554 S
H400 C419 0.947 . S
H401 C420 0.946 . S
H402 C422 0.953 . S
H403 C423 0.945 . S
H404 C425 0.952 . S
H405 C426 0.949 . S
H406 C428 0.950 . S
H407 C429 0.948 . S
H408 C431 0.951 . S
H409 C396 0.947 . S
H410 C398 0.952 . S
H411 C399 0.950 . S
N412 C415 1.382 . S
N412 C417 1.363 . S
N413 C415 1.371 . S
N413 C416 1.372 . S
N414 C416 1.361 . S
N414 C417 1.377 . S
C415 N412 1.382 . S
C415 N413 1.371 . S
C415 C418 1.480 . S
C416 N413 1.372 . S
C416 N414 1.361 . S
C416 C424 1.457 . S
C417 N412 1.363 . S
C417 N414 1.377 . S
C417 C430 1.479 . S
C418 C415 1.480 . S
C418 C419 1.383 1_556 S
C418 C423 1.385 . S
C419 H400 0.947 . S
C419 C418 1.383 1_554 S
C419 C420 1.388 . S
C420 H401 0.946 . S
C420 C419 1.388 . S
C420 C421 1.386 . S
C421 C420 1.386 . S
C421 C422 1.371 1_554 S
C422 H402 0.953 . S
C422 C421 1.371 1_556 S
C422 C423 1.369 . S
C423 H403 0.945 . S
C423 C418 1.385 . S
C423 C422 1.369 . S
C424 C416 1.457 . S
C424 C425 1.372 . S
C424 C429 1.364 . S
C425 H404 0.952 . S
C425 C424 1.372 . S
C425 C426 1.389 . S
C426 H405 0.949 . S
C426 C425 1.389 . S
C426 C427 1.387 . S
C427 C426 1.387 . S
C427 C428 1.372 . S
C428 H406 0.950 . S
C428 C427 1.372 . S
C428 C429 1.379 . S
C429 H407 0.948 . S
C429 C424 1.364 . S
C429 C428 1.379 . S
C430 C399 1.383 1_556 S
C430 C417 1.479 . S
C430 C431 1.398 . S
C431 C396 1.382 . S
C431 H408 0.951 . S
C431 C430 1.398 . S
C432 C433 1.393 . S
C432 H445 0.947 . S
C432 C467 1.382 . S
C433 C432 1.393 . S
C433 C434 1.374 1_554 S
C434 C433 1.374 1_556 S
C434 C435 1.378 . S
C434 H446 0.952 . S
C435 C434 1.378 . S
C435 H447 0.950 . S
C435 C466 1.383 1_556 S
H436 C455 0.947 1_556 S
H437 C456 0.946 . S
H438 C458 0.953 . S
H439 C459 0.945 . S
H440 C461 0.952 . S
H441 C462 0.949 . S
H442 C464 0.950 . S
H443 C465 0.948 . S
H444 C467 0.951 . S
H445 C432 0.947 . S
H446 C434 0.952 . S
H447 C435 0.950 . S
N448 C451 1.382 . S
N448 C453 1.363 . S
N449 C451 1.371 . S
N449 C452 1.372 . S
N450 C452 1.361 . S
N450 C453 1.377 . S
C451 N448 1.382 . S
C451 N449 1.371 . S
C451 C454 1.480 . S
C452 N449 1.372 . S
C452 N450 1.361 . S
C452 C460 1.457 . S
C453 N448 1.363 . S
C453 N450 1.377 . S
C453 C466 1.479 . S
C454 C451 1.480 . S
C454 C455 1.383 . S
C454 C459 1.385 . S
C455 H436 0.947 1_554 S
C455 C454 1.383 . S
C455 C456 1.388 1_554 S
C456 H437 0.946 . S
C456 C455 1.388 1_556 S
C456 C457 1.384 1_556 S
C457 C456 1.384 1_554 S
C457 C458 1.377 . S
C458 H438 0.953 . S
C458 C457 1.377 . S
C458 C459 1.369 . S
C459 H439 0.945 . S
C459 C454 1.385 . S
C459 C458 1.369 . S
C460 C452 1.457 . S
C460 C461 1.372 . S
C460 C465 1.364 . S
C461 H440 0.952 . S
C461 C460 1.372 . S
C461 C462 1.389 . S
C462 H441 0.949 . S
C462 C461 1.389 . S
C462 C463 1.387 . S
C463 C462 1.387 . S
C463 C464 1.372 . S
C464 H442 0.950 . S
C464 C463 1.372 . S
C464 C465 1.379 . S
C465 H443 0.948 . S
C465 C460 1.364 . S
C465 C464 1.379 . S
C466 C435 1.383 1_554 S
C466 C453 1.479 . S
C466 C467 1.398 . S
C467 C432 1.382 . S
C467 H444 0.951 . S
C467 C466 1.398 . S
C468 C469 1.384 . S
C468 H481 0.947 . S
C468 C503 1.382 . S
C469 C468 1.384 . S
C469 C470 1.378 1_554 S
C470 C469 1.378 1_556 S
C470 C471 1.378 . S
C470 H482 0.952 . S
C471 C470 1.378 . S
C471 H483 0.950 . S
C471 C502 1.383 1_556 S
H472 C491 0.953 . S
H473 C492 0.946 . S
H474 C494 0.953 . S
H475 C495 0.945 . S
H476 C497 0.952 . S
H477 C498 0.949 . S
H478 C500 0.950 . S
H479 C501 0.948 . S
H480 C503 0.951 . S
H481 C468 0.947 . S
H482 C470 0.952 . S
H483 C471 0.950 . S
N484 C487 1.382 . S
N484 C489 1.363 . S
N485 C487 1.371 . S
N485 C488 1.372 . S
N486 C488 1.361 . S
N486 C489 1.377 . S
C487 N484 1.382 . S
C487 N485 1.371 . S
C487 C490 1.480 . S
C488 N485 1.372 . S
C488 N486 1.361 . S
C488 C496 1.457 . S
C489 N484 1.363 . S
C489 N486 1.377 . S
C489 C502 1.479 . S
C490 C487 1.480 . S
C490 C491 1.373 1_554 S
C490 C495 1.385 . S
C491 H472 0.953 . S
C491 C490 1.373 1_556 S
C491 C492 1.393 . S
C492 H473 0.946 . S
C492 C491 1.393 . S
C492 C493 1.384 . S
C493 C492 1.384 . S
C493 C494 1.377 1_556 S
C494 H474 0.953 . S
C494 C493 1.377 1_554 S
C494 C495 1.369 . S
C495 H475 0.945 . S
C495 C490 1.385 . S
C495 C494 1.369 . S
C496 C488 1.457 . S
C496 C497 1.372 . S
C496 C501 1.364 . S
C497 H476 0.952 . S
C497 C496 1.372 . S
C497 C498 1.389 . S
C498 H477 0.949 . S
C498 C497 1.389 . S
C498 C499 1.387 . S
C499 C498 1.387 . S
C499 C500 1.372 . S
C500 H478 0.950 . S
C500 C499 1.372 . S
C500 C501 1.379 . S
C501 H479 0.948 . S
C501 C496 1.364 . S
C501 C500 1.379 . S
C502 C471 1.383 1_554 S
C502 C489 1.479 . S
C502 C503 1.398 . S
C503 C468 1.382 . S
C503 H480 0.951 . S
C503 C502 1.398 . S
C504 C505 1.384 . S
C504 H517 0.947 . S
C504 C539 1.382 . S
C505 C504 1.384 . S
C505 C506 1.378 1_554 S
C506 C505 1.378 1_556 S
C506 C507 1.372 1_556 S
C506 H518 0.952 . S
C507 C506 1.372 1_554 S
C507 H519 0.943 1_554 S
C507 C538 1.396 . S
H508 C527 0.947 1_556 S
H509 C528 0.946 . S
H510 C530 0.953 . S
H511 C531 0.945 . S
H512 C533 0.952 . S
H513 C534 0.949 . S
H514 C536 0.950 . S
H515 C537 0.948 . S
H516 C539 0.951 . S
H517 C504 0.947 . S
H518 C506 0.952 . S
H519 C507 0.943 1_556 S
N520 C523 1.382 . S
N520 C525 1.363 . S
N521 C523 1.371 . S
N521 C524 1.372 . S
N522 C524 1.361 . S
N522 C525 1.377 . S
C523 N520 1.382 . S
C523 N521 1.371 . S
C523 C526 1.480 . S
C524 N521 1.372 . S
C524 N522 1.361 . S
C524 C532 1.457 . S
C525 N520 1.363 . S
C525 N522 1.377 . S
C525 C538 1.479 . S
C526 C523 1.480 . S
C526 C527 1.383 . S
C526 C531 1.385 . S
C527 H508 0.947 1_554 S
C527 C526 1.383 . S
C527 C528 1.388 1_554 S
C528 H509 0.946 . S
C528 C527 1.388 1_556 S
C528 C529 1.384 1_556 S
C529 C528 1.384 1_554 S
C529 C530 1.377 . S
C530 H510 0.953 . S
C530 C529 1.377 . S
C530 C531 1.369 . S
C531 H511 0.945 . S
C531 C526 1.385 . S
C531 C530 1.369 . S
C532 C524 1.457 . S
C532 C533 1.372 . S
C532 C537 1.364 . S
C533 H512 0.952 . S
C533 C532 1.372 . S
C533 C534 1.389 . S
C534 H513 0.949 . S
C534 C533 1.389 . S
C534 C535 1.387 . S
C535 C534 1.387 . S
C535 C536 1.372 . S
C536 H514 0.950 . S
C536 C535 1.372 . S
C536 C537 1.379 . S
C537 H515 0.948 . S
C537 C532 1.364 . S
C537 C536 1.379 . S
C538 C507 1.396 . S
C538 C525 1.479 . S
C538 C539 1.398 . S
C539 C504 1.382 . S
C539 H516 0.951 . S
C539 C538 1.398 . S
C540 C541 1.384 . S
C540 H553 0.947 . S
C540 C575 1.382 . S
C541 C540 1.384 . S
C541 C542 1.378 . S
C542 C541 1.378 . S
C542 C543 1.378 . S
C542 H554 0.952 . S
C543 C542 1.378 . S
C543 H555 0.950 . S
C543 C574 1.383 . S
H544 C563 0.947 . S
H545 C564 0.946 . S
H546 C566 0.953 . S
H547 C567 0.945 . S
H548 C569 0.952 . S
H549 C570 0.949 . S
H550 C572 0.950 . S
H551 C573 0.948 . S
H552 C575 0.951 . S
H553 C540 0.947 . S
H554 C542 0.952 . S
H555 C543 0.950 . S
N556 C559 1.382 . S
N556 C561 1.363 . S
N557 C559 1.371 . S
N557 C560 1.372 . S
N558 C560 1.361 . S
N558 C561 1.377 . S
C559 N556 1.382 . S
C559 N557 1.371 . S
C559 C562 1.480 . S
C560 N557 1.372 . S
C560 N558 1.361 . S
C560 C568 1.457 . S
C561 N556 1.363 . S
C561 N558 1.377 . S
C561 C574 1.479 . S
C562 C559 1.480 . S
C562 C563 1.383 . S
C562 C567 1.385 . S
C563 H544 0.947 . S
C563 C562 1.383 . S
C563 C564 1.388 . S
C564 H545 0.946 . S
C564 C563 1.388 . S
C564 C565 1.384 . S
C565 C564 1.384 . S
C565 C566 1.377 . S
C566 H546 0.953 . S
C566 C565 1.377 . S
C566 C567 1.369 . S
C567 H547 0.945 . S
C567 C562 1.385 . S
C567 C566 1.369 . S
C568 C560 1.457 . S
C568 C569 1.372 . S
C568 C573 1.364 . S
C569 H548 0.952 . S
C569 C568 1.372 . S
C569 C570 1.389 . S
C570 H549 0.949 . S
C570 C569 1.389 . S
C570 C571 1.387 1_565 S
C571 C570 1.387 1_545 S
C571 C572 1.372 . S
C572 H550 0.950 . S
C572 C571 1.372 . S
C572 C573 1.379 1_545 S
C573 H551 0.948 . S
C573 C568 1.364 . S
C573 C572 1.379 1_565 S
C574 C543 1.383 . S
C574 C561 1.479 . S
C574 C575 1.398 . S
C575 C540 1.382 . S
C575 H552 0.951 . S
C575 C574 1.398 . S
C576 C577 1.384 . S
C576 H589 0.947 . S
C576 C611 1.382 . S
C577 C576 1.384 . S
C577 C578 1.378 . S
C578 C577 1.378 . S
C578 C579 1.378 . S
C578 H590 0.952 . S
C579 C578 1.378 . S
C579 H591 0.950 . S
C579 C610 1.383 . S
H580 C599 0.947 . S
H581 C600 0.946 . S
H582 C602 0.953 . S
H583 C603 0.945 . S
H584 C605 0.952 . S
H585 C606 0.949 . S
H586 C608 0.950 1_655 S
H587 C609 0.948 . S
H588 C611 0.951 . S
H589 C576 0.947 . S
H590 C578 0.952 . S
H591 C579 0.950 . S
N592 C595 1.382 . S
N592 C597 1.363 . S
N593 C595 1.371 . S
N593 C596 1.372 . S
N594 C596 1.361 . S
N594 C597 1.377 . S
C595 N592 1.382 . S
C595 N593 1.371 . S
C595 C598 1.480 . S
C596 N593 1.372 . S
C596 N594 1.361 . S
C596 C604 1.457 . S
C597 N592 1.363 . S
C597 N594 1.377 . S
C597 C610 1.479 . S
C598 C595 1.480 . S
C598 C599 1.383 . S
C598 C603 1.385 . S
C599 H580 0.947 . S
C599 C598 1.383 . S
C599 C600 1.388 . S
C600 H581 0.946 . S
C600 C599 1.388 . S
C600 C601 1.384 . S
C601 C600 1.384 . S
C601 C602 1.377 . S
C602 H582 0.953 . S
C602 C601 1.377 . S
C602 C603 1.369 . S
C603 H583 0.945 . S
C603 C598 1.385 . S
C603 C602 1.369 . S
C604 C596 1.457 . S
C604 C605 1.372 . S
C604 C609 1.364 . S
C605 H584 0.952 . S
C605 C604 1.372 . S
C605 C606 1.389 . S
C606 H585 0.949 . S
C606 C605 1.389 . S
C606 C607 1.387 . S
C607 C606 1.387 . S
C607 C608 1.372 . S
C608 H586 0.950 1_455 S
C608 C607 1.372 . S
C608 C609 1.379 . S
C609 H587 0.948 . S
C609 C604 1.364 . S
C609 C608 1.379 . S
C610 C579 1.383 . S
C610 C597 1.479 . S
C610 C611 1.398 . S
C611 C576 1.382 . S
C611 H588 0.951 . S
C611 C610 1.398 . S
C612 C613 1.384 . S
C612 H625 0.947 . S
C612 C647 1.382 . S
C613 C612 1.384 . S
C613 C614 1.378 . S
C614 C613 1.378 . S
C614 C615 1.378 . S
C614 H626 0.952 . S
C615 C614 1.378 . S
C615 H627 0.950 . S
C615 C646 1.383 . S
H616 C635 0.947 . S
H617 C636 0.946 . S
H618 C638 0.953 . S
H619 C639 0.945 . S
H620 C641 0.952 . S
H621 C642 0.949 . S
H622 C644 0.950 . S
H623 C645 0.948 . S
H624 C647 0.951 . S
H625 C612 0.947 . S
H626 C614 0.952 . S
H627 C615 0.950 . S
N628 C631 1.382 . S
N628 C633 1.363 . S
N629 C631 1.371 . S
N629 C632 1.372 . S
N630 C632 1.361 . S
N630 C633 1.377 . S
C631 N628 1.382 . S
C631 N629 1.371 . S
C631 C634 1.480 . S
C632 N629 1.372 . S
C632 N630 1.361 . S
C632 C640 1.457 . S
C633 N628 1.363 . S
C633 N630 1.377 . S
C633 C646 1.479 . S
C634 C631 1.480 . S
C634 C635 1.383 . S
C634 C639 1.385 . S
C635 H616 0.947 . S
C635 C634 1.383 . S
C635 C636 1.388 . S
C636 H617 0.946 . S
C636 C635 1.388 . S
C636 C637 1.384 . S
C637 C636 1.384 . S
C637 C638 1.377 . S
C638 H618 0.953 . S
C638 C637 1.377 . S
C638 C639 1.369 . S
C639 H619 0.945 . S
C639 C634 1.385 . S
C639 C638 1.369 . S
C640 C632 1.457 . S
C640 C641 1.372 . S
C640 C645 1.364 . S
C641 H620 0.952 . S
C641 C640 1.372 . S
C641 C642 1.389 . S
C642 H621 0.949 . S
C642 C641 1.389 . S
C642 C643 1.387 . S
C643 C642 1.387 . S
C643 C644 1.372 . S
C644 H622 0.950 . S
C644 C643 1.372 . S
C644 C645 1.379 . S
C645 H623 0.948 . S
C645 C640 1.364 . S
C645 C644 1.379 . S
C646 C615 1.383 . S
C646 C633 1.479 . S
C646 C647 1.398 . S
C647 C612 1.382 . S
C647 H624 0.951 . S
C647 C646 1.398 . S
O648 Mg649 1.990 . S
O648 C662 1.254 1_565 S
Mg649 O648 1.990 . S
Mg649 O652 2.180 1_556 S
Mg649 O653 2.117 . S
Mg649 O667 2.030 1_565 S
O650 Mg651 2.072 1_556 S
O650 C662 1.260 . S
Mg651 O650 2.072 1_554 S
Mg651 O652 2.099 1_545 S
Mg651 O654 2.079 . S
Mg651 O655 2.072 1_545 S
Mg651 O657 2.099 . S
Mg651 O668 2.079 . S
O652 Mg649 2.180 1_554 S
O652 Mg651 2.099 1_565 S
O652 C663 1.279 1_554 S
O653 Mg649 2.117 . S
O653 C663 1.250 . S
O654 Mg651 2.079 . S
O654 C664 1.264 . S
O655 Mg651 2.072 1_565 S
O655 C665 1.260 . S
Mg656 O657 2.180 . S
Mg656 O658 2.030 . S
Mg656 O659 1.990 1_545 S
Mg656 O660 2.117 . S
O657 Mg651 2.099 . S
O657 Mg656 2.180 . S
O657 C666 1.279 1_554 S
O658 Mg656 2.030 . S
O658 C664 1.248 . S
O659 Mg656 1.990 1_565 S
O659 C665 1.253 . S
O660 Mg656 2.117 . S
O660 C666 1.250 1_554 S
C661 O667 1.248 . S
C661 O668 1.264 1_556 S
C662 O648 1.254 1_545 S
C662 O650 1.260 . S
C663 O652 1.279 1_556 S
C663 O653 1.250 . S
C664 O654 1.264 . S
C664 O658 1.248 . S
C665 O655 1.260 . S
C665 O659 1.253 . S
C666 O657 1.279 1_556 S
C666 O660 1.250 1_556 S
O667 Mg649 2.030 1_545 S
O667 C661 1.248 . S
O668 Mg651 2.079 . S
O668 C661 1.264 1_554 S
O669 Mg670 1.990 . S
O669 C683 1.253 . S
Mg670 O669 1.990 . S
Mg670 O673 2.180 1_556 S
Mg670 O674 2.117 . S
Mg670 O688 2.030 1_455 S
O671 Mg672 2.072 1_556 S
O671 C683 1.260 1_655 S
Mg672 O671 2.072 1_554 S
Mg672 O673 2.099 1_655 S
Mg672 O675 2.079 . S
Mg672 O676 2.072 1_655 S
Mg672 O678 2.099 . S
Mg672 O689 2.079 . S
O673 Mg670 2.180 1_554 S
O673 Mg672 2.099 1_455 S
O673 C684 1.279 1_554 S
O674 Mg670 2.117 . S
O674 C684 1.250 . S
O675 Mg672 2.079 . S
O675 C685 1.264 1_655 S
O676 Mg672 2.072 1_455 S
O676 C686 1.260 . S
Mg677 O678 2.180 . S
Mg677 O679 2.030 1_655 S
Mg677 O680 1.990 1_655 S
Mg677 O681 2.117 . S
O678 Mg672 2.099 . S
O678 Mg677 2.180 . S
O678 C687 1.279 1_554 S
O679 Mg677 2.030 1_455 S
O679 C685 1.248 . S
O680 Mg677 1.990 1_455 S
O680 C686 1.253 . S
O681 Mg677 2.117 . S
O681 C687 1.250 1_554 S
C682 O688 1.248 . S
C682 O689 1.264 1_556 S
C683 O669 1.253 . S
C683 O671 1.260 1_455 S
C684 O673 1.279 1_556 S
C684 O674 1.250 . S
C685 O675 1.264 1_455 S
C685 O679 1.248 . S
C686 O676 1.260 . S
C686 O680 1.253 . S
C687 O678 1.279 1_556 S
C687 O681 1.250 1_556 S
O688 Mg670 2.030 1_655 S
O688 C682 1.248 . S
O689 Mg672 2.079 . S
O689 C682 1.264 1_554 S
O690 Mg691 1.990 . S
O690 C704 1.253 . S
Mg691 O690 1.990 . S
Mg691 O694 2.180 . S
Mg691 O695 2.117 . S
Mg691 O709 2.030 . S
O692 Mg693 2.072 1_554 S
O692 C704 1.260 . S
Mg693 O692 2.072 1_556 S
Mg693 O694 2.099 1_556 S
Mg693 O696 2.079 . S
Mg693 O697 2.072 . S
Mg693 O699 2.099 . S
Mg693 O710 2.077 1_556 S
O694 Mg691 2.180 . S
O694 Mg693 2.099 1_554 S
O694 C705 1.279 . S
O695 Mg691 2.117 . S
O695 C705 1.250 . S
O696 Mg693 2.079 . S
O696 C706 1.264 . S
O697 Mg693 2.072 . S
O697 C707 1.260 . S
Mg698 O699 2.180 . S
Mg698 O700 2.030 . S
Mg698 O701 1.990 . S
Mg698 O702 2.117 . S
O699 Mg693 2.099 . S
O699 Mg698 2.180 . S
O699 C708 1.279 1_556 S
O700 Mg698 2.030 . S
O700 C706 1.248 . S
O701 Mg698 1.990 . S
O701 C707 1.253 . S
O702 Mg698 2.117 . S
O702 C708 1.250 1_556 S
C703 O709 1.248 . S
C703 O710 1.282 . S
C704 O690 1.253 . S
C704 O692 1.260 . S
C705 O694 1.279 . S
C705 O695 1.250 . S
C706 O696 1.264 . S
C706 O700 1.248 . S
C707 O697 1.260 . S
C707 O701 1.253 . S
C708 O699 1.279 1_554 S
C708 O702 1.250 1_554 S
O709 Mg691 2.030 . S
O709 C703 1.248 . S
O710 Mg693 2.077 1_554 S
O710 C703 1.282 . S
O711 Mg712 1.990 . S
O711 C725 1.253 . S
Mg712 O711 1.990 . S
Mg712 O715 2.180 . S
Mg712 O716 2.117 . S
Mg712 O730 2.030 . S
O713 Mg714 2.072 . S
O713 C725 1.260 . S
Mg714 O713 2.072 . S
Mg714 O715 2.099 . S
Mg714 O717 2.079 . S
Mg714 O718 2.072 . S
Mg714 O720 2.099 . S
Mg714 O731 2.079 . S
O715 Mg712 2.180 . S
O715 Mg714 2.099 . S
O715 C726 1.279 . S
O716 Mg712 2.117 . S
O716 C726 1.250 . S
O717 Mg714 2.079 . S
O717 C727 1.264 . S
O718 Mg714 2.072 . S
O718 C728 1.260 . S
Mg719 O720 2.180 . S
Mg719 O721 2.030 . S
Mg719 O722 1.990 . S
Mg719 O723 2.117 . S
O720 Mg714 2.099 . S
O720 Mg719 2.180 . S
O720 C729 1.279 . S
O721 Mg719 2.030 . S
O721 C727 1.248 . S
O722 Mg719 1.990 . S
O722 C728 1.253 . S
O723 Mg719 2.117 . S
O723 C729 1.250 . S
C724 O730 1.248 . S
C724 O731 1.264 . S
C725 O711 1.253 . S
C725 O713 1.260 . S
C726 O715 1.279 . S
C726 O716 1.250 . S
C727 O717 1.264 . S
C727 O721 1.248 . S
C728 O718 1.260 . S
C728 O722 1.253 . S
C729 O720 1.279 . S
C729 O723 1.250 . S
O730 Mg712 2.030 . S
O730 C724 1.248 . S
O731 Mg714 2.079 . S
O731 C724 1.264 . S
O732 Mg733 1.990 . S
O732 C746 1.253 . S
Mg733 O732 1.990 . S
Mg733 O736 2.180 . S
Mg733 O737 2.117 . S
Mg733 O751 2.030 . S
O734 Mg735 2.072 . S
O734 C746 1.260 . S
Mg735 O734 2.072 . S
Mg735 O736 2.099 . S
Mg735 O738 2.079 . S
Mg735 O739 2.072 . S
Mg735 O741 2.099 . S
Mg735 O752 2.079 . S
O736 Mg733 2.180 . S
O736 Mg735 2.099 . S
O736 C747 1.279 . S
O737 Mg733 2.117 . S
O737 C747 1.250 . S
O738 Mg735 2.079 . S
O738 C748 1.264 . S
O739 Mg735 2.072 . S
O739 C749 1.260 . S
Mg740 O741 2.180 . S
Mg740 O742 2.030 . S
Mg740 O743 1.990 . S
Mg740 O744 2.117 . S
O741 Mg735 2.099 . S
O741 Mg740 2.180 . S
O741 C750 1.279 . S
O742 Mg740 2.030 . S
O742 C748 1.248 . S
O743 Mg740 1.990 . S
O743 C749 1.253 . S
O744 Mg740 2.117 . S
O744 C750 1.250 . S
C745 O751 1.248 . S
C745 O752 1.264 . S
C746 O732 1.253 . S
C746 O734 1.260 . S
C747 O736 1.279 . S
C747 O737 1.250 . S
C748 O738 1.264 . S
C748 O742 1.248 . S
C749 O739 1.260 . S
C749 O743 1.253 . S
C750 O741 1.279 . S
C750 O744 1.250 . S
O751 Mg733 2.030 . S
O751 C745 1.248 . S
O752 Mg735 2.079 . S
O752 C745 1.264 . S
O753 Mg754 1.990 . S
O753 C767 1.253 . S
Mg754 O753 1.990 . S
Mg754 O757 2.180 . S
Mg754 O758 2.117 . S
Mg754 O772 2.030 . S
O755 Mg756 2.072 . S
O755 C767 1.260 . S
Mg756 O755 2.072 . S
Mg756 O757 2.099 . S
Mg756 O759 2.079 . S
Mg756 O760 2.072 . S
Mg756 O762 2.099 . S
Mg756 O773 2.079 . S
O757 Mg754 2.180 . S
O757 Mg756 2.099 . S
O757 C768 1.279 . S
O758 Mg754 2.117 . S
O758 C768 1.250 . S
O759 Mg756 2.079 . S
O759 C769 1.264 . S
O760 Mg756 2.072 . S
O760 C770 1.260 . S
Mg761 O762 2.180 . S
Mg761 O763 2.030 . S
Mg761 O764 1.990 . S
Mg761 O765 2.117 . S
O762 Mg756 2.099 . S
O762 Mg761 2.180 . S
O762 C771 1.279 . S
O763 Mg761 2.030 . S
O763 C769 1.248 . S
O764 Mg761 1.990 . S
O764 C770 1.253 . S
O765 Mg761 2.117 . S
O765 C771 1.250 . S
C766 O772 1.248 . S
C766 O773 1.264 . S
C767 O753 1.253 . S
C767 O755 1.260 . S
C768 O757 1.279 . S
C768 O758 1.250 . S
C769 O759 1.264 . S
C769 O763 1.248 . S
C770 O760 1.260 . S
C770 O764 1.253 . S
C771 O762 1.279 . S
C771 O765 1.250 . S
O772 Mg754 2.030 . S
O772 C766 1.248 . S
O773 Mg756 2.079 . S
O773 C766 1.264 . S
O774 Mg775 1.990 . S
O774 C788 1.253 . S
Mg775 O774 1.990 . S
Mg775 O778 2.180 . S
Mg775 O779 2.117 . S
Mg775 O793 2.030 . S
O776 Mg777 2.072 . S
O776 C788 1.260 . S
Mg777 O776 2.072 . S
Mg777 O778 2.099 . S
Mg777 O780 2.079 . S
Mg777 O781 2.072 . S
Mg777 O783 2.099 . S
Mg777 O794 2.079 . S
O778 Mg775 2.180 . S
O778 Mg777 2.099 . S
O778 C789 1.279 . S
O779 Mg775 2.117 . S
O779 C789 1.250 . S
O780 Mg777 2.079 . S
O780 C790 1.264 . S
O781 Mg777 2.072 . S
O781 C791 1.260 . S
Mg782 O783 2.180 . S
Mg782 O784 2.030 . S
Mg782 O785 1.990 . S
Mg782 O786 2.117 . S
O783 Mg777 2.099 . S
O783 Mg782 2.180 . S
O783 C792 1.279 . S
O784 Mg782 2.030 . S
O784 C790 1.248 . S
O785 Mg782 1.990 . S
O785 C791 1.253 . S
O786 Mg782 2.117 . S
O786 C792 1.250 . S
C787 O793 1.248 . S
C787 O794 1.264 . S
C788 O774 1.253 . S
C788 O776 1.260 . S
C789 O778 1.279 . S
C789 O779 1.250 . S
C790 O780 1.264 . S
C790 O784 1.248 . S
C791 O781 1.260 . S
C791 O785 1.253 . S
C792 O783 1.279 . S
C792 O786 1.250 . S
O793 Mg775 2.030 . S
O793 C787 1.248 . S
O794 Mg777 2.079 . S
O794 C787 1.264 . S
O795 Mg796 1.990 . S
O795 C809 1.253 . S
Mg796 O795 1.990 . S
Mg796 O799 2.180 . S
Mg796 O800 2.117 . S
Mg796 O814 2.030 . S
O797 Mg798 2.072 . S
O797 C809 1.260 . S
Mg798 O797 2.072 . S
Mg798 O799 2.099 . S
Mg798 O801 2.079 . S
Mg798 O802 2.072 . S
Mg798 O804 2.099 . S
Mg798 O815 2.079 . S
O799 Mg796 2.180 . S
O799 Mg798 2.099 . S
O799 C810 1.279 . S
O800 Mg796 2.117 . S
O800 C810 1.250 . S
O801 Mg798 2.079 . S
O801 C811 1.264 . S
O802 Mg798 2.072 . S
O802 C812 1.260 . S
Mg803 O804 2.180 . S
Mg803 O805 2.030 . S
Mg803 O806 1.990 . S
Mg803 O807 2.117 . S
O804 Mg798 2.099 . S
O804 Mg803 2.180 . S
O804 C813 1.279 . S
O805 Mg803 2.030 . S
O805 C811 1.248 . S
O806 Mg803 1.990 . S
O806 C812 1.253 . S
O807 Mg803 2.117 . S
O807 C813 1.250 . S
C808 O814 1.248 . S
C808 O815 1.264 . S
C809 O795 1.253 . S
C809 O797 1.260 . S
C810 O799 1.279 . S
C810 O800 1.250 . S
C811 O801 1.264 . S
C811 O805 1.248 . S
C812 O802 1.260 . S
C812 O806 1.253 . S
C813 O804 1.279 . S
C813 O807 1.250 . S
O814 Mg796 2.030 . S
O814 C808 1.248 . S
O815 Mg798 2.079 . S
O815 C808 1.264 . S
O816 Mg817 1.990 . S
O816 C830 1.253 . S
Mg817 O816 1.990 . S
Mg817 O820 2.180 . S
Mg817 O821 2.117 . S
Mg817 O835 2.030 . S
O818 Mg819 2.072 . S
O818 C830 1.260 . S
Mg819 O818 2.072 . S
Mg819 O820 2.099 . S
Mg819 O822 2.079 . S
Mg819 O823 2.072 . S
Mg819 O825 2.099 . S
Mg819 O836 2.079 . S
O820 Mg817 2.180 . S
O820 Mg819 2.099 . S
O820 C831 1.279 . S
O821 Mg817 2.117 . S
O821 C831 1.250 . S
O822 Mg819 2.079 . S
O822 C832 1.264 . S
O823 Mg819 2.072 . S
O823 C833 1.260 . S
Mg824 O825 2.180 . S
Mg824 O826 2.030 . S
Mg824 O827 1.990 . S
Mg824 O828 2.117 . S
O825 Mg819 2.099 . S
O825 Mg824 2.180 . S
O825 C834 1.279 . S
O826 Mg824 2.030 . S
O826 C832 1.248 . S
O827 Mg824 1.990 . S
O827 C833 1.253 . S
O828 Mg824 2.117 . S
O828 C834 1.250 . S
C829 O835 1.248 . S
C829 O836 1.264 . S
C830 O816 1.253 . S
C830 O818 1.260 . S
C831 O820 1.279 . S
C831 O821 1.250 . S
C832 O822 1.264 . S
C832 O826 1.248 . S
C833 O823 1.260 . S
C833 O827 1.253 . S
C834 O825 1.279 . S
C834 O828 1.250 . S
O835 Mg817 2.030 . S
O835 C829 1.248 . S
O836 Mg819 2.079 . S
O836 C829 1.264 . S
C469 C665 1.804 . S
C505 C686 1.791 . S
C433 C708 1.245 . S
C397 C687 1.290 1_554 S
C707 C325 1.862 1_556 S
C361 C666 1.295 1_554 S
C661 C421 1.772 1_556 S
C682 C349 1.799 1_556 S
C385 C705 1.432 . S
C493 C684 1.314 . S
C529 C703 1.680 . S
C663 C457 1.405 1_556 S
C728 C37 1.804 . S
C73 C749 1.791 . S
C1 C771 1.242 . S
C613 C750 1.289 . S
C541 C770 1.862 . S
C577 C729 1.295 . S
C637 C724 1.774 . S
C565 C745 1.799 . S
C768 C601 1.432 . S
C61 C747 1.315 . S
C766 C97 1.680 . S
C25 C726 1.406 . S
C791 C253 1.804 . S
C289 C812 1.791 . S
C834 C217 1.242 . S
C813 C181 1.290 . S
C833 C109 1.862 . S
C145 C792 1.295 . S
C205 C787 1.774 . S
C133 C808 1.799 . S
C831 C169 1.432 . S
C277 C810 1.314 . S
C313 C829 1.680 . S
C241 C789 1.405 . S
C571 C664 1.450 . S
C685 C607 1.499 . S
C643 C704 1.631 . S
C247 C683 1.644 . S
C283 C706 1.487 . S
C662 C319 1.631 1_545 S
C139 C727 1.450 . S
C175 C748 1.499 . S
C211 C767 1.631 . S
C463 C746 1.644 . S
C769 C499 1.487 . S
C535 C725 1.632 . S
C355 C790 1.450 . S
C391 C811 1.499 . S
C830 C427 1.631 . S
C31 C809 1.645 . S
C67 C832 1.487 . S
C103 C788 1.632 . S
