# Generated by pormake.
# Topology ctn, (3,4)-cn, num edge types: 1
# Building blocks:
#     Node 0, Type 0, BuildingBlock: MIDCAF_clean_linker_0, # of connection points: 3
#     Node 1, Type 0, BuildingBlock: MIDCAF_clean_linker_0, # of connection points: 3
#     Node 2, Type 0, BuildingBlock: MIDCAF_clean_linker_0, # of connection points: 3
#     Node 3, Type 0, BuildingBlock: MIDCAF_clean_linker_0, # of connection points: 3
#     Node 4, Type 0, BuildingBlock: MIDCAF_clean_linker_0, # of connection points: 3
#     Node 5, Type 0, BuildingBlock: MIDCAF_clean_linker_0, # of connection points: 3
#     Node 6, Type 0, BuildingBlock: MIDCAF_clean_linker_0, # of connection points: 3
#     Node 7, Type 0, BuildingBlock: MIDCAF_clean_linker_0, # of connection points: 3
#     Node 8, Type 0, BuildingBlock: MIDCAF_clean_linker_0, # of connection points: 3
#     Node 9, Type 0, BuildingBlock: MIDCAF_clean_linker_0, # of connection points: 3
#     Node 10, Type 0, BuildingBlock: MIDCAF_clean_linker_0, # of connection points: 3
#     Node 11, Type 0, BuildingBlock: MIDCAF_clean_linker_0, # of connection points: 3
#     Node 12, Type 0, BuildingBlock: MIDCAF_clean_linker_0, # of connection points: 3
#     Node 13, Type 0, BuildingBlock: MIDCAF_clean_linker_0, # of connection points: 3
#     Node 14, Type 0, BuildingBlock: MIDCAF_clean_linker_0, # of connection points: 3
#     Node 15, Type 0, BuildingBlock: MIDCAF_clean_linker_0, # of connection points: 3
#     Node 16, Type 1, BuildingBlock: AZAVOO_clean_sbu_0, # of connection points: 4
#     Node 17, Type 1, BuildingBlock: AZAVOO_clean_sbu_0, # of connection points: 4
#     Node 18, Type 1, BuildingBlock: AZAVOO_clean_sbu_0, # of connection points: 4
#     Node 19, Type 1, BuildingBlock: AZAVOO_clean_sbu_0, # of connection points: 4
#     Node 20, Type 1, BuildingBlock: AZAVOO_clean_sbu_0, # of connection points: 4
#     Node 21, Type 1, BuildingBlock: AZAVOO_clean_sbu_0, # of connection points: 4
#     Node 22, Type 1, BuildingBlock: AZAVOO_clean_sbu_0, # of connection points: 4
#     Node 23, Type 1, BuildingBlock: AZAVOO_clean_sbu_0, # of connection points: 4
#     Node 24, Type 1, BuildingBlock: AZAVOO_clean_sbu_0, # of connection points: 4
#     Node 25, Type 1, BuildingBlock: AZAVOO_clean_sbu_0, # of connection points: 4
#     Node 26, Type 1, BuildingBlock: AZAVOO_clean_sbu_0, # of connection points: 4
#     Node 27, Type 1, BuildingBlock: AZAVOO_clean_sbu_0, # of connection points: 4
#     Edge 28, Type (0, 1), BuildingBlock: TEMPAE_clean_linker_10, # of connection points: 2
#     Edge 29, Type (0, 1), BuildingBlock: TEMPAE_clean_linker_10, # of connection points: 2
#     Edge 30, Type (0, 1), BuildingBlock: TEMPAE_clean_linker_10, # of connection points: 2
#     Edge 31, Type (0, 1), BuildingBlock: TEMPAE_clean_linker_10, # of connection points: 2
#     Edge 32, Type (0, 1), BuildingBlock: TEMPAE_clean_linker_10, # of connection points: 2
#     Edge 33, Type (0, 1), BuildingBlock: TEMPAE_clean_linker_10, # of connection points: 2
#     Edge 34, Type (0, 1), BuildingBlock: TEMPAE_clean_linker_10, # of connection points: 2
#     Edge 35, Type (0, 1), BuildingBlock: TEMPAE_clean_linker_10, # of connection points: 2
#     Edge 36, Type (0, 1), BuildingBlock: TEMPAE_clean_linker_10, # of connection points: 2
#     Edge 37, Type (0, 1), BuildingBlock: TEMPAE_clean_linker_10, # of connection points: 2
#     Edge 38, Type (0, 1), BuildingBlock: TEMPAE_clean_linker_10, # of connection points: 2
#     Edge 39, Type (0, 1), BuildingBlock: TEMPAE_clean_linker_10, # of connection points: 2
#     Edge 40, Type (0, 1), BuildingBlock: TEMPAE_clean_linker_10, # of connection points: 2
#     Edge 41, Type (0, 1), BuildingBlock: TEMPAE_clean_linker_10, # of connection points: 2
#     Edge 42, Type (0, 1), BuildingBlock: TEMPAE_clean_linker_10, # of connection points: 2
#     Edge 43, Type (0, 1), BuildingBlock: TEMPAE_clean_linker_10, # of connection points: 2
#     Edge 44, Type (0, 1), BuildingBlock: TEMPAE_clean_linker_10, # of connection points: 2
#     Edge 45, Type (0, 1), BuildingBlock: TEMPAE_clean_linker_10, # of connection points: 2
#     Edge 46, Type (0, 1), BuildingBlock: TEMPAE_clean_linker_10, # of connection points: 2
#     Edge 47, Type (0, 1), BuildingBlock: TEMPAE_clean_linker_10, # of connection points: 2
#     Edge 48, Type (0, 1), BuildingBlock: TEMPAE_clean_linker_10, # of connection points: 2
#     Edge 49, Type (0, 1), BuildingBlock: TEMPAE_clean_linker_10, # of connection points: 2
#     Edge 50, Type (0, 1), BuildingBlock: TEMPAE_clean_linker_10, # of connection points: 2
#     Edge 51, Type (0, 1), BuildingBlock: TEMPAE_clean_linker_10, # of connection points: 2
#     Edge 52, Type (0, 1), BuildingBlock: TEMPAE_clean_linker_10, # of connection points: 2
#     Edge 53, Type (0, 1), BuildingBlock: TEMPAE_clean_linker_10, # of connection points: 2
#     Edge 54, Type (0, 1), BuildingBlock: TEMPAE_clean_linker_10, # of connection points: 2
#     Edge 55, Type (0, 1), BuildingBlock: TEMPAE_clean_linker_10, # of connection points: 2
#     Edge 56, Type (0, 1), BuildingBlock: TEMPAE_clean_linker_10, # of connection points: 2
#     Edge 57, Type (0, 1), BuildingBlock: TEMPAE_clean_linker_10, # of connection points: 2
#     Edge 58, Type (0, 1), BuildingBlock: TEMPAE_clean_linker_10, # of connection points: 2
#     Edge 59, Type (0, 1), BuildingBlock: TEMPAE_clean_linker_10, # of connection points: 2
#     Edge 60, Type (0, 1), BuildingBlock: TEMPAE_clean_linker_10, # of connection points: 2
#     Edge 61, Type (0, 1), BuildingBlock: TEMPAE_clean_linker_10, # of connection points: 2
#     Edge 62, Type (0, 1), BuildingBlock: TEMPAE_clean_linker_10, # of connection points: 2
#     Edge 63, Type (0, 1), BuildingBlock: TEMPAE_clean_linker_10, # of connection points: 2
#     Edge 64, Type (0, 1), BuildingBlock: TEMPAE_clean_linker_10, # of connection points: 2
#     Edge 65, Type (0, 1), BuildingBlock: TEMPAE_clean_linker_10, # of connection points: 2
#     Edge 66, Type (0, 1), BuildingBlock: TEMPAE_clean_linker_10, # of connection points: 2
#     Edge 67, Type (0, 1), BuildingBlock: TEMPAE_clean_linker_10, # of connection points: 2
#     Edge 68, Type (0, 1), BuildingBlock: TEMPAE_clean_linker_10, # of connection points: 2
#     Edge 69, Type (0, 1), BuildingBlock: TEMPAE_clean_linker_10, # of connection points: 2
#     Edge 70, Type (0, 1), BuildingBlock: TEMPAE_clean_linker_10, # of connection points: 2
#     Edge 71, Type (0, 1), BuildingBlock: TEMPAE_clean_linker_10, # of connection points: 2
#     Edge 72, Type (0, 1), BuildingBlock: TEMPAE_clean_linker_10, # of connection points: 2
#     Edge 73, Type (0, 1), BuildingBlock: TEMPAE_clean_linker_10, # of connection points: 2
#     Edge 74, Type (0, 1), BuildingBlock: TEMPAE_clean_linker_10, # of connection points: 2
#     Edge 75, Type (0, 1), BuildingBlock: TEMPAE_clean_linker_10, # of connection points: 2
# Relax obj value: 0.002
# Max RMSD: 0.043
# Mean RMSD: 0.023
data_MOF--net-ctn--node1-AZAVOO_clean_sbu_0--node2-MIDCAF_clean_linker_0--edge1-TEMPAE_clean_linker_10
_symmetry_space_group_name_H-M    P1
_symmetry_Int_Tables_number       1
_symmetry_cell_setting            triclinic
loop_
_symmetry_equiv_pos_as_xyz
'x, y, z'
_cell_length_a     66.911287
_cell_length_b     67.966634
_cell_length_c     67.92536
_cell_angle_alpha  90.134024
_cell_angle_beta   92.671098
_cell_angle_gamma 92.990533
loop_
_atom_site_label
_atom_site_type_symbol
_atom_site_fract_x
_atom_site_fract_y
_atom_site_fract_z
_atom_type_partial_charge
C0 C 0.9686 0.01981 0.05382 0.0
C1 C 0.97675 0.01205 0.07137 0.0
C2 C 0.99524 0.0032 0.0712 0.0
C3 C 0.00566 0.00257 0.05389 0.0
H4 H 0.0536 0.97829 0.02942 0.0
H5 H 0.08417 0.9606 0.0282 0.0
H6 H 0.0931 0.98245 0.9694 0.0
H7 H 0.06279 0.00063 0.97078 0.0
H8 H 0.04159 0.03925 0.95856 0.0
H9 H 0.04049 0.06937 0.93934 0.0
H10 H 0.98832 0.08569 0.96936 0.0
H11 H 0.98918 0.05548 0.98857 0.0
H12 H 0.97277 0.02607 0.02337 0.0
H13 H 0.95439 0.02678 0.05363 0.0
H14 H 0.00174 0.99699 0.08455 0.0
H15 H 0.02009 0.99602 0.05437 0.0
N16 N 0.02586 0.0008 0.01706 0.0
N17 N 0.03395 0.01671 0.9877 0.0
N18 N 0.00635 0.02612 0.0048 0.0
C19 C 0.03781 0.0028 0.00148 0.0
C20 C 0.01826 0.02843 0.98922 0.0
C21 C 0.01 0.0123 0.01874 0.0
C22 C 0.05571 0.99097 0.00023 0.0
C23 C 0.06198 0.97926 0.01616 0.0
C24 C 0.07949 0.96902 0.01543 0.0
C25 C 0.09112 0.97013 0.99871 0.0
C26 C 0.08467 0.98153 0.98263 0.0
C27 C 0.0672 0.99186 0.98339 0.0
C28 C 0.01567 0.04505 0.97539 0.0
C29 C 0.02966 0.04905 0.9609 0.0
C30 C 0.0291 0.06634 0.9499 0.0
C31 C 0.01449 0.07997 0.95305 0.0
C32 C 0.99971 0.07541 0.96658 0.0
C33 C 0.0003 0.05813 0.97766 0.0
C34 C 0.99795 0.01108 0.03647 0.0
C35 C 0.97917 0.01947 0.03656 0.0
C36 C 0.26533 0.66622 0.25959 0.0
C37 C 0.25201 0.65934 0.24414 0.0
C38 C 0.25241 0.66904 0.22588 0.0
C39 C 0.2657 0.68524 0.22317 0.0
H40 H 0.26584 0.74523 0.20103 0.0
H41 H 0.25873 0.76589 0.17271 0.0
H42 H 0.32197 0.78149 0.1694 0.0
H43 H 0.32895 0.76145 0.19846 0.0
H44 H 0.33999 0.76235 0.25915 0.0
H45 H 0.36857 0.76698 0.28255 0.0
H46 H 0.37602 0.70408 0.28206 0.0
H47 H 0.34651 0.69955 0.25994 0.0
H48 H 0.28885 0.68716 0.269 0.0
H49 H 0.26521 0.65939 0.27397 0.0
H50 H 0.24268 0.66396 0.21352 0.0
H51 H 0.26565 0.69231 0.2089 0.0
N52 N 0.28942 0.72211 0.22104 0.0
N53 N 0.31895 0.74069 0.23019 0.0
N54 N 0.31004 0.71187 0.24746 0.0
C55 C 0.30219 0.73793 0.21821 0.0
C56 C 0.32292 0.72766 0.24483 0.0
C57 C 0.29322 0.70905 0.23563 0.0
C58 C 0.29796 0.7516 0.20186 0.0
C59 C 0.27822 0.75318 0.19434 0.0
C60 C 0.27417 0.76493 0.178 0.0
C61 C 0.2898 0.77512 0.16852 0.0
C62 C 0.30954 0.77399 0.17641 0.0
C63 C 0.31356 0.76245 0.19301 0.0
C64 C 0.34102 0.7306 0.25791 0.0
C65 C 0.34782 0.74958 0.26409 0.0
C66 C 0.36432 0.7522 0.27741 0.0
C67 C 0.37472 0.73591 0.2844 0.0
C68 C 0.36817 0.71697 0.27756 0.0
C69 C 0.35133 0.71433 0.26472 0.0
C70 C 0.27912 0.69194 0.23857 0.0
C71 C 0.27884 0.68223 0.25678 0.0
C72 C 0.00804 0.41661 0.01232 0.0
C73 C 0.99981 0.41601 0.99289 0.0
C74 C 0.98722 0.43095 0.98664 0.0
C75 C 0.98282 0.446 -0.00041 0.0
H76 H 0.94176 0.48851 0.00832 0.0
H77 H 0.91252 0.50791 0.0021 0.0
H78 H 0.92275 0.53555 0.05926 0.0
H79 H 0.95218 0.51661 0.06535 0.0
H80 H 0.00187 0.51297 0.08422 0.0
H81 H 0.02382 0.51733 0.11373 0.0
H82 H 0.03259 0.4547 0.11439 0.0
H83 H 0.01173 0.45071 0.08425 0.0
H84 H 0.01031 0.43152 0.04008 0.0
H85 H 0.01743 0.40514 0.01781 0.0
H86 H 0.98079 0.43107 0.97171 0.0
H87 H 0.97305 0.45726 0.99432 0.0
N88 N 0.9711 0.47425 0.02873 0.0
N89 N 0.97791 0.49099 0.05876 0.0
N90 N 0.99717 0.46468 0.05029 0.0
C91 C 0.96671 0.48859 0.0416 0.0
C92 C 0.99313 0.47905 0.06319 0.0
C93 C 0.98635 0.46227 0.03296 0.0
C94 C 0.94939 0.50095 0.03737 0.0
C95 C 0.93787 0.49881 0.01954 0.0
C96 C 0.92101 0.50984 0.016 0.0
C97 C 0.91527 0.52326 0.03019 0.0
C98 C 0.92691 0.52556 0.04789 0.0
C99 C 0.94377 0.51458 0.05142 0.0
C100 C 0.00526 0.48155 0.08185 0.0
C101 C 0.00848 0.50017 0.09076 0.0
C102 C 0.02098 0.50261 0.10778 0.0
C103 C 0.03019 0.4864 0.11651 0.0
C104 C 0.02628 0.46765 0.10788 0.0
C105 C 0.01419 0.46531 0.09064 0.0
C106 C 0.99104 0.44652 0.01904 0.0
C107 C 0.00381 0.43171 0.02518 0.0
C108 C 0.74719 0.77168 0.15956 0.0
C109 C 0.73583 0.75372 0.1602 0.0
C110 C 0.72077 0.75157 0.17391 0.0
C111 C 0.71718 0.76706 0.18668 0.0
H112 H 0.67644 0.78615 0.22511 0.0
H113 H 0.6493 0.78328 0.24774 0.0
H114 H 0.66721 0.84061 0.27205 0.0
H115 H 0.6942 0.84374 0.24926 0.0
H116 H 0.72913 0.87057 0.22383 0.0
H117 H 0.75426 0.89816 0.22701 0.0
H118 H 0.80014 0.85965 0.21094 0.0
H119 H 0.77514 0.83222 0.20726 0.0
H120 H 0.75274 0.80068 0.17133 0.0
H121 H 0.7586 0.77404 0.14889 0.0
H122 H 0.71187 0.73787 0.17492 0.0
H123 H 0.70551 0.7649 0.19711 0.0
N124 N 0.70855 0.801 0.21052 0.0
N125 N 0.71859 0.83195 0.22406 0.0
N126 N 0.73833 0.81724 0.20113 0.0
C127 C 0.7052 0.81619 0.2228 0.0
C128 C 0.73522 0.83252 0.2133 0.0
C129 C 0.72503 0.80147 0.19955 0.0
C130 C 0.68769 0.81511 0.23545 0.0
C131 C 0.67454 0.79826 0.23513 0.0
C132 C 0.659 0.79655 0.24816 0.0
C133 C 0.65622 0.81164 0.26178 0.0
C134 C 0.66887 0.8288 0.26162 0.0
C135 C 0.68444 0.83051 0.24862 0.0
C136 C 0.75018 0.84926 0.21526 0.0
C137 C 0.74458 0.86802 0.22096 0.0
C138 C 0.75887 0.88378 0.22271 0.0
C139 C 0.77903 0.88089 0.21926 0.0
C140 C 0.78467 0.86214 0.21375 0.0
C141 C 0.77035 0.84652 0.21156 0.0
C142 C 0.72865 0.78497 0.18607 0.0
C143 C 0.74371 0.78706 0.17237 0.0
C144 C 0.04731 0.9266 0.52226 0.0
C145 C 0.02838 0.91654 0.52062 0.0
C146 C 0.01321 0.92456 0.50857 0.0
C147 C 0.0171 0.94172 0.4978 0.0
H148 H 0.99405 0.97475 0.45079 0.0
H149 H 0.97254 0.98082 0.42172 0.0
H150 H 0.02144 0.01417 0.39593 0.0
H151 H 0.04259 0.0088 0.42522 0.0
H152 H 0.08592 0.01358 0.45006 0.0
H153 H 0.11643 0.03419 0.45603 0.0
H154 H 0.11217 0.02535 0.5188 0.0
H155 H 0.0824 0.0037 0.51258 0.0
H156 H 0.06605 0.9509 0.51287 0.0
H157 H 0.05943 0.92076 0.53118 0.0
H158 H 0.99834 0.91746 0.50727 0.0
H159 H 0.00517 0.94724 0.48836 0.0
N160 N 0.02851 0.97252 0.47042 0.0
N161 N 0.05071 0.99837 0.46127 0.0
N162 N 0.05806 0.97989 0.48957 0.0
C163 C 0.03333 0.98739 0.45787 0.0
C164 C 0.06305 0.99481 0.47717 0.0
C165 C 0.04086 0.9686 0.48624 0.0
C166 C 0.02007 0.99128 0.44036 0.0
C167 C 0.00017 0.98346 0.43894 0.0
C168 C 0.98785 0.98687 0.42222 0.0
C169 C 0.99519 0.99801 0.40642 0.0
C170 C 0.01508 0.00588 0.40793 0.0
C171 C 0.0273 0.00267 0.42472 0.0
C172 C 0.08176 0.00708 0.48086 0.0
C173 C 0.0916 0.01599 0.46512 0.0
C174 C 0.10905 0.02793 0.46859 0.0
C175 C 0.11683 0.03168 0.48794 0.0
C176 C 0.10695 0.0226 0.50367 0.0
C177 C 0.08976 0.01027 0.50014 0.0
C178 C 0.0362 0.95142 0.49897 0.0
C179 C 0.05114 0.94387 0.51164 0.0
C180 C 0.22806 0.75507 0.83165 0.0
C181 C 0.21154 0.76479 0.83808 0.0
C182 C 0.19294 0.76189 0.82771 0.0
C183 C 0.19093 0.7494 0.81124 0.0
H184 H 0.15052 0.72531 0.7651 0.0
H185 H 0.12291 0.72817 0.74045 0.0
H186 H 0.16009 0.70735 0.69542 0.0
H187 H 0.18759 0.70393 0.72008 0.0
H188 H 0.21975 0.66997 0.74263 0.0
H189 H 0.24518 0.64563 0.74043 0.0
H190 H 0.27746 0.67179 0.79132 0.0
H191 H 0.25209 0.69574 0.79382 0.0
H192 H 0.23906 0.73506 0.811 0.0
H193 H 0.24251 0.75684 0.83951 0.0
H194 H 0.17998 0.76925 0.83238 0.0
H195 H 0.17639 0.74732 0.80361 0.0
N196 N 0.18956 0.72584 0.77493 0.0
N197 N 0.20251 0.70018 0.75695 0.0
N198 N 0.21956 0.71224 0.78574 0.0
C199 C 0.1881 0.71333 0.75922 0.0
C200 C 0.21824 0.69946 0.77031 0.0
C201 C 0.20537 0.72547 0.78818 0.0
C202 C 0.17121 0.71439 0.7445 0.0
C203 C 0.15277 0.72123 0.74996 0.0
C204 C 0.13697 0.72281 0.73593 0.0
C205 C 0.13951 0.71802 0.71614 0.0
C206 C 0.15788 0.71117 0.71064 0.0
C207 C 0.17353 0.70915 0.72474 0.0
C208 C 0.23378 0.68484 0.76843 0.0
C209 C 0.23226 0.67053 0.75336 0.0
C210 C 0.24686 0.65661 0.75205 0.0
C211 C 0.26327 0.65669 0.76578 0.0
C212 C 0.26482 0.67107 0.78074 0.0
C213 C 0.25029 0.68493 0.78206 0.0
C214 C 0.20741 0.73935 0.80507 0.0
C215 C 0.22601 0.74245 0.8154 0.0
C216 C 0.98936 0.57323 0.49808 0.0
C217 C 0.97455 0.57979 0.51015 0.0
C218 C 0.95642 0.56853 0.51113 0.0
C219 C 0.95299 0.55128 0.50001 0.0
H220 H 0.91165 0.50641 0.48943 0.0
H221 H 0.88142 0.4858 0.49399 0.0
H222 H 0.89962 0.44479 0.45045 0.0
H223 H 0.92973 0.46555 0.44552 0.0
H224 H 0.96587 0.48237 0.41705 0.0
H225 H 0.98937 0.47546 0.39168 0.0
H226 H 0.03559 0.51109 0.42334 0.0
H227 H 0.01227 0.5181 0.44861 0.0
H228 H 0.99755 0.55153 0.47748 0.0
H229 H 0.00343 0.58168 0.49692 0.0
H230 H 0.94483 0.57308 0.52051 0.0
H231 H 0.93874 0.54311 0.50103 0.0
N232 N 0.94623 0.51592 0.47661 0.0
N233 N 0.95538 0.49499 0.45145 0.0
N234 N 0.97675 0.52195 0.46162 0.0
C235 C 0.94205 0.49984 0.46494 0.0
C236 C 0.97278 0.50597 0.44974 0.0
C237 C 0.96352 0.52707 0.47506 0.0
C238 C 0.92325 0.48763 0.46716 0.0
C239 C 0.90922 0.49305 0.48072 0.0
C240 C 0.89189 0.4812 0.48342 0.0
C241 C 0.88814 0.46362 0.47265 0.0
C242 C 0.90195 0.45836 0.45882 0.0
C243 C 0.91929 0.47023 0.45609 0.0
C244 C 0.98716 0.50086 0.43483 0.0
C245 C 0.98109 0.48859 0.41869 0.0
C246 C 0.99449 0.48468 0.40413 0.0
C247 C 0.01429 0.49269 0.4056 0.0
C248 C 0.02048 0.50454 0.42195 0.0
C249 C 0.00705 0.50867 0.43634 0.0
C250 C 0.9676 0.5449 0.48755 0.0
C251 C 0.98591 0.556 0.48686 0.0
C252 C 0.85078 0.75638 0.73856 0.0
C253 C 0.85315 0.77152 0.72468 0.0
C254 C 0.83922 0.78629 0.72364 0.0
C255 C 0.82312 0.7858 0.73605 0.0
H256 H 0.76588 0.80708 0.74117 0.0
H257 H 0.74271 0.83364 0.73896 0.0
H258 H 0.72349 0.81996 0.79736 0.0
H259 H 0.74654 0.79329 0.79965 0.0
H260 H 0.75416 0.74574 0.81121 0.0
H261 H 0.75298 0.72446 0.83993 0.0
H262 H 0.81531 0.71282 0.83452 0.0
H263 H 0.8166 0.7342 0.80565 0.0
H264 H 0.83337 0.74402 0.76154 0.0
H265 H 0.86138 0.74489 0.73981 0.0
H266 H 0.84052 0.79802 0.71293 0.0
H267 H 0.8126 0.79736 0.73471 0.0
N268 N 0.78896 0.78322 0.76057 0.0
N269 N 0.77228 0.76943 0.78723 0.0
N270 N 0.80217 0.75651 0.77764 0.0
C271 C 0.77333 0.78303 0.77266 0.0
C272 C 0.78658 0.75608 0.78978 0.0
C273 C 0.80344 0.77001 0.76295 0.0
C274 C 0.75818 0.79812 0.77064 0.0
C275 C 0.75659 0.80958 0.75348 0.0
C276 C 0.74322 0.8247 0.75214 0.0
C277 C 0.73135 0.82883 0.768 0.0
C278 C 0.73255 0.8171 0.78496 0.0
C279 C 0.74572 0.80181 0.78621 0.0
C280 C 0.78552 0.74182 0.8062 0.0
C281 C 0.7676 0.73853 0.81598 0.0
C282 C 0.76686 0.72619 0.83235 0.0
C283 C 0.78405 0.71699 0.83944 0.0
C284 C 0.80186 0.71982 0.8294 0.0
C285 C 0.80255 0.73201 0.81285 0.0
C286 C 0.82063 0.77058 0.74987 0.0
C287 C 0.83474 0.75594 0.75106 0.0
C288 C 0.35014 0.25975 0.23903 0.0
C289 C 0.35309 0.27522 0.2256 0.0
C290 C 0.33957 0.29035 0.22481 0.0
C291 C 0.32328 0.28991 0.23699 0.0
H292 H 0.26563 0.31122 0.24105 0.0
H293 H 0.24263 0.33795 0.23875 0.0
H294 H 0.22294 0.32424 0.29698 0.0
H295 H 0.24578 0.29741 0.29934 0.0
H296 H 0.2522 0.24878 0.30964 0.0
H297 H 0.25025 0.22729 0.3382 0.0
H298 H 0.31305 0.21661 0.33502 0.0
H299 H 0.31511 0.23814 0.30631 0.0
H300 H 0.3321 0.24717 0.26142 0.0
H301 H 0.36042 0.24797 0.24007 0.0
H302 H 0.34132 0.30235 0.21446 0.0
H303 H 0.31308 0.30176 0.23584 0.0
N304 N 0.28848 0.28718 0.26068 0.0
N305 N 0.27121 0.27324 0.28689 0.0
N306 N 0.30115 0.26016 0.27766 0.0
C307 C 0.27264 0.28699 0.2725 0.0
C308 C 0.28534 0.25973 0.28953 0.0
C309 C 0.3028 0.27381 0.26314 0.0
C310 C 0.25766 0.30224 0.27043 0.0
C311 C 0.25628 0.31376 0.2533 0.0
C312 C 0.24301 0.32897 0.2519 0.0
C313 C 0.23105 0.33313 0.2677 0.0
C314 C 0.23207 0.32136 0.28463 0.0
C315 C 0.24512 0.30597 0.28593 0.0
C316 C 0.28386 0.24532 0.30578 0.0
C317 C 0.26558 0.24173 0.31488 0.0
C318 C 0.2644 0.22928 0.33114 0.0
C319 C 0.2815 0.2203 0.3388 0.0
C320 C 0.29967 0.22343 0.32943 0.0
C321 C 0.30081 0.2357 0.31297 0.0
C322 C 0.3202 0.27436 0.25034 0.0
C323 C 0.33393 0.25936 0.2513 0.0
C324 C 0.51094 0.92184 0.5096 0.0
C325 C 0.50218 0.92113 0.49038 0.0
C326 C 0.48949 0.93607 0.48437 0.0
C327 C 0.48545 0.9512 0.49738 0.0
H328 H 0.44172 0.99043 0.50943 0.0
H329 H 0.41369 0.01126 0.50275 0.0
H330 H 0.43245 0.04714 0.55355 0.0
H331 H 0.46013 0.02606 0.56059 0.0
H332 H 0.49253 0.00965 0.59183 0.0
H333 H 0.51299 0.01284 0.62251 0.0
H334 H 0.54908 0.9661 0.60353 0.0
H335 H 0.52858 0.96259 0.57323 0.0
H336 H 0.51394 0.93687 0.53727 0.0
H337 H 0.52043 0.91038 0.51492 0.0
H338 H 0.48266 0.9361 0.4696 0.0
H339 H 0.47554 0.96242 0.49232 0.0
N340 N 0.47439 0.97948 0.52678 0.0
N341 N 0.4813 0.99569 0.5571 0.0
N342 N 0.50061 0.9697 0.54797 0.0
C343 C 0.4701 0.99363 0.5399 0.0
C344 C 0.49661 0.98376 0.56124 0.0
C345 C 0.48965 0.96746 0.53073 0.0
C346 C 0.45321 0.00651 0.53559 0.0
C347 C 0.4399 0.00276 0.5192 0.0
C348 C 0.42385 0.01476 0.5153 0.0
C349 C 0.42077 0.03084 0.52764 0.0
C350 C 0.43416 0.03466 0.54394 0.0
C351 C 0.45013 0.02262 0.54791 0.0
C352 C 0.50885 0.98586 0.57999 0.0
C353 C 0.50479 1e-05 0.59422 0.0
C354 C 0.51655 0.0019 0.61179 0.0
C355 C 0.5326 0.98966 0.61551 0.0
C356 C 0.53661 0.97552 0.6013 0.0
C357 C 0.5249 0.97362 0.58381 0.0
C358 C 0.49414 0.95178 0.51665 0.0
C359 C 0.50707 0.93701 0.52252 0.0
C360 C 0.25046 0.27315 0.66306 0.0
C361 C 0.23493 0.25981 0.65609 0.0
C362 C 0.21557 0.26174 0.66285 0.0
C363 C 0.21181 0.27674 0.67609 0.0
H364 H 0.17574 0.28905 0.72214 0.0
H365 H 0.14871 0.28486 0.74459 0.0
H366 H 0.16319 0.34313 0.76841 0.0
H367 H 0.19071 0.34721 0.74625 0.0
H368 H 0.23336 0.36786 0.73754 0.0
H369 H 0.25788 0.39565 0.74129 0.0
H370 H 0.29031 0.37323 0.69329 0.0
H371 H 0.26584 0.34565 0.6893 0.0
H372 H 0.25897 0.29832 0.68104 0.0
H373 H 0.26565 0.27188 0.65853 0.0
H374 H 0.20318 0.25194 0.6576 0.0
H375 H 0.19669 0.27793 0.68085 0.0
N376 N 0.20674 0.3055 0.70717 0.0
N377 N 0.21643 0.33602 0.72181 0.0
N378 N 0.23636 0.32241 0.69835 0.0
C379 C 0.20319 0.32017 0.71998 0.0
C380 C 0.23302 0.33728 0.71098 0.0
C381 C 0.22329 0.3065 0.69633 0.0
C382 C 0.18559 0.3184 0.73247 0.0
C383 C 0.17312 0.30109 0.73201 0.0
C384 C 0.15746 0.29872 0.74481 0.0
C385 C 0.15378 0.31364 0.75834 0.0
C386 C 0.1658 0.33125 0.75835 0.0
C387 C 0.18154 0.3336 0.74558 0.0
C388 C 0.24759 0.35445 0.71313 0.0
C389 C 0.24566 0.36888 0.72771 0.0
C390 C 0.25975 0.38476 0.72995 0.0
C391 C 0.27599 0.38662 0.71757 0.0
C392 C 0.27781 0.37233 0.70289 0.0
C393 C 0.26382 0.35643 0.70071 0.0
C394 C 0.22728 0.29031 0.68268 0.0
C395 C 0.24665 0.28829 0.67606 0.0
C396 C 0.76719 0.16278 0.75765 0.0
C397 C 0.75381 0.15578 0.7423 0.0
C398 C 0.75382 0.1656 0.72409 0.0
C399 C 0.76676 0.18207 0.72136 0.0
H400 H 0.77351 0.23036 0.68664 0.0
H401 H 0.76634 0.2521 0.65933 0.0
H402 H 0.81185 0.29456 0.68237 0.0
H403 H 0.81952 0.27244 0.70968 0.0
H404 H 0.83837 0.26145 0.75855 0.0
H405 H 0.86706 0.26661 0.78181 0.0
H406 H 0.87637 0.20406 0.78047 0.0
H407 H 0.84684 0.19896 0.75851 0.0
H408 H 0.79033 0.18412 0.76699 0.0
H409 H 0.76737 0.15585 0.77198 0.0
H410 H 0.744 0.16043 0.71183 0.0
H411 H 0.76637 0.18926 0.70714 0.0
N412 N 0.78966 0.21945 0.71921 0.0
N413 N 0.81796 0.23943 0.72925 0.0
N414 N 0.81019 0.21004 0.74604 0.0
C415 C 0.80166 0.23593 0.71679 0.0
C416 C 0.82235 0.22643 0.74379 0.0
C417 C 0.79372 0.20652 0.73386 0.0
C418 C 0.79709 0.24962 0.70043 0.0
C419 C 0.78198 0.24434 0.68604 0.0
C420 C 0.77776 0.2569 0.67038 0.0
C421 C 0.78839 0.27516 0.66875 0.0
C422 C 0.80349 0.28052 0.68314 0.0
C423 C 0.80782 0.26787 0.69882 0.0
C424 C 0.84034 0.22981 0.75694 0.0
C425 C 0.84662 0.24887 0.76331 0.0
C426 C 0.86317 0.2518 0.77654 0.0
C427 C 0.87411 0.23575 0.78324 0.0
C428 C 0.86808 0.21675 0.77621 0.0
C429 C 0.85122 0.21379 0.76347 0.0
C430 C 0.78019 0.18895 0.73667 0.0
C431 C 0.78032 0.17907 0.75481 0.0
C432 C 0.47061 0.52008 0.55657 0.0
C433 C 0.47889 0.51203 0.57392 0.0
C434 C 0.49751 0.50347 0.57353 0.0
C435 C 0.50798 0.50347 0.55621 0.0
H436 H 0.54854 0.47099 0.52101 0.0
H437 H 0.57877 0.45277 0.51892 0.0
H438 H 0.60476 0.49891 0.48293 0.0
H439 H 0.57424 0.51662 0.48427 0.0
H440 H 0.54359 0.54356 0.46199 0.0
H441 H 0.54224 0.57389 0.44319 0.0
H442 H 0.49139 0.59049 0.47514 0.0
H443 H 0.49252 0.56003 0.49399 0.0
H444 H 0.47477 0.52728 0.52631 0.0
H445 H 0.4563 0.52684 0.55657 0.0
H446 H 0.50412 0.49708 0.58673 0.0
H447 H 0.52254 0.4972 0.55655 0.0
N448 N 0.5285 0.50343 0.5195 0.0
N449 N 0.53705 0.52117 0.49131 0.0
N450 N 0.50883 0.52909 0.50825 0.0
C451 C 0.54082 0.50659 0.50435 0.0
C452 C 0.52106 0.53243 0.49306 0.0
C453 C 0.51243 0.51459 0.52151 0.0
C454 C 0.55896 0.49523 0.50279 0.0
C455 C 0.56069 0.47719 0.51259 0.0
C456 C 0.5781 0.46681 0.51149 0.0
C457 C 0.59431 0.4744 0.50084 0.0
C458 C 0.5925 0.49244 0.491 0.0
C459 C 0.57499 0.50265 0.49185 0.0
C460 C 0.51836 0.54945 0.47977 0.0
C461 C 0.53192 0.55349 0.4649 0.0
C462 C 0.53121 0.5709 0.45412 0.0
C463 C 0.51689 0.58463 0.4579 0.0
C464 C 0.50256 0.58011 0.47189 0.0
C465 C 0.50329 0.56269 0.48275 0.0
C466 C 0.50018 0.51238 0.53904 0.0
C467 C 0.48123 0.5204 0.53931 0.0
C468 C 0.53961 0.43591 0.03144 0.0
C469 C 0.52648 0.42057 0.02391 0.0
C470 C 0.51651 0.42313 0.00546 0.0
C471 C 0.51971 0.44042 0.99476 0.0
H472 H 0.49045 0.47947 0.95468 0.0
H473 H 0.46919 0.48556 0.92544 0.0
H474 H 0.51737 0.52147 0.90144 0.0
H475 H 0.53819 0.51612 0.93094 0.0
H476 H 0.57146 0.53368 0.96233 0.0
H477 H 0.60188 0.55423 0.96857 0.0
H478 H 0.6186 0.51735 0.0177 0.0
H479 H 0.58787 0.49686 0.01174 0.0
H480 H 0.55339 0.46457 0.02673 0.0
H481 H 0.54732 0.43462 0.04571 0.0
H482 H 0.50661 0.41153 0.99895 0.0
H483 H 0.51199 0.44166 0.98048 0.0
N484 N 0.52504 0.47747 0.97432 0.0
N485 N 0.54607 0.50479 0.9668 0.0
N486 N 0.55415 0.48515 0.99406 0.0
C487 C 0.52924 0.49321 0.96266 0.0
C488 C 0.55858 0.50094 0.98249 0.0
C489 C 0.53741 0.47333 0.99005 0.0
C490 C 0.51604 0.49729 0.94516 0.0
C491 C 0.49644 0.48877 0.9432 0.0
C492 C 0.48427 0.49219 0.92637 0.0
C493 C 0.4915 0.50401 0.91099 0.0
C494 C 0.51107 0.51263 0.9131 0.0
C495 C 0.52311 0.50944 0.93001 0.0
C496 C 0.57713 0.51355 0.98652 0.0
C497 C 0.58155 0.52988 0.97449 0.0
C498 C 0.59911 0.54162 0.97797 0.0
C499 C 0.61275 0.53736 0.99355 0.0
C500 C 0.60833 0.52111 0.00567 0.0
C501 C 0.59072 0.50933 0.00219 0.0
C502 C 0.53319 0.45554 0.00206 0.0
C503 C 0.54302 0.45314 0.02059 0.0
C504 C 0.71338 0.23289 0.34365 0.0
C505 C 0.70521 0.25148 0.34371 0.0
C506 C 0.69515 0.25809 0.32657 0.0
C507 C 0.6932 0.2462 0.30966 0.0
H508 H 0.65822 0.23555 0.25848 0.0
H509 H 0.63211 0.24048 0.23317 0.0
H510 H 0.64994 0.18957 0.20153 0.0
H511 H 0.67601 0.18436 0.22703 0.0
H512 H 0.71481 0.16154 0.24381 0.0
H513 H 0.73999 0.13701 0.24104 0.0
H514 H 0.76885 0.15769 0.29601 0.0
H515 H 0.74366 0.18163 0.29909 0.0
H516 H 0.71831 0.20693 0.32719 0.0
H517 H 0.7214 0.22754 0.35663 0.0
H518 H 0.68869 0.27238 0.3263 0.0
H519 H 0.68539 0.25165 0.29663 0.0
N520 N 0.68623 0.21802 0.27697 0.0
N521 N 0.6981 0.19187 0.25889 0.0
N522 N 0.71318 0.20066 0.2897 0.0
C523 C 0.68496 0.20638 0.26059 0.0
C524 C 0.71232 0.18898 0.27343 0.0
C525 C 0.70026 0.21517 0.29162 0.0
C526 C 0.66928 0.20952 0.24487 0.0
C527 C 0.65666 0.22536 0.24616 0.0
C528 C 0.64172 0.22828 0.23157 0.0
C529 C 0.63896 0.21544 0.21534 0.0
C530 C 0.65156 0.19961 0.21398 0.0
C531 C 0.66658 0.1967 0.22856 0.0
C532 C 0.72714 0.17362 0.27166 0.0
C533 C 0.72646 0.16076 0.25536 0.0
C534 C 0.74094 0.14675 0.25373 0.0
C535 C 0.75642 0.14532 0.26833 0.0
C536 C 0.75695 0.15808 0.28466 0.0
C537 C 0.74251 0.17198 0.28634 0.0
C538 C 0.70161 0.22766 0.30955 0.0
C539 C 0.71171 0.22116 0.32674 0.0
C540 C 0.48195 0.08411 0.98808 0.0
C541 C 0.47484 0.08498 0.00715 0.0
C542 C 0.46487 0.06828 0.01494 0.0
C543 C 0.46168 0.05109 0.00365 0.0
H544 H 0.4178 0.00636 0.99233 0.0
H545 H 0.38898 0.98424 0.99819 0.0
H546 H 0.40582 0.94575 0.95177 0.0
H547 H 0.4345 0.96806 0.94555 0.0
H548 H 0.47219 0.9805 0.92043 0.0
H549 H 0.49501 0.97418 0.89437 0.0
H550 H 0.52956 0.0279 0.90988 0.0
H551 H 0.50673 0.03446 0.9355 0.0
H552 H 0.4847 0.0666 0.96222 0.0
H553 H 0.48973 0.09682 0.98182 0.0
H554 H 0.45918 0.06869 0.0296 0.0
H555 H 0.45374 0.03849 0.00994 0.0
N556 N 0.44958 0.01921 0.97597 0.0
N557 N 0.45824 -0.00081 0.94983 0.0
N558 N 0.4772 0.02843 0.95747 0.0
C559 C 0.44595 0.00275 0.96469 0.0
C560 C 0.47395 0.01196 0.94615 0.0
C561 C 0.46515 0.03212 0.97242 0.0
C562 C 0.42855 0.98904 0.96845 0.0
C563 C 0.41543 0.9932 0.98334 0.0
C564 C 0.39891 0.98046 0.98678 0.0
C565 C 0.39509 0.96324 0.97546 0.0
C566 C 0.40819 0.95905 0.96058 0.0
C567 C 0.42472 0.97179 0.95711 0.0
C568 C 0.48755 0.00802 0.93011 0.0
C569 C 0.4846 0.99102 0.91823 0.0
C570 C 0.49773 0.98733 0.90335 0.0
C571 C 0.51405 0.00058 0.89998 0.0
C572 C 0.51694 0.01756 0.91183 0.0
C573 C 0.50387 0.02125 0.92666 0.0
C574 C 0.46876 0.05018 0.98452 0.0
C575 C 0.47912 0.06681 0.97693 0.0
Mg576 Mg 0.23401 0.85246 0.00952 0.0
O577 O 0.26417 0.86887 0.0039 0.0
O578 O 0.28721 0.84614 0.00514 0.0
Mg579 Mg 0.27248 0.81612 0.01242 0.0
C580 C 0.28226 0.86391 0.00268 0.0
C581 C 0.21531 0.89337 0.00931 0.0
O582 O 0.22641 0.89472 0.02577 0.0
O583 O 0.23331 0.83917 0.97877 0.0
O584 O 0.25539 0.81573 0.98217 0.0
O585 O 0.23833 0.85754 0.04188 0.0
O586 O 0.24898 0.8318 0.02635 0.0
C587 C 0.2423 0.82476 0.97186 0.0
C588 C 0.24806 0.84158 0.04252 0.0
O589 O 0.21618 0.87817 0.99851 0.0
Mg590 Mg 0.15053 0.50286 0.27493 0.0
O591 O 0.1315 0.50241 0.24581 0.0
O592 O 0.15275 0.50691 0.22152 0.0
Mg593 Mg 0.18486 0.50945 0.23462 0.0
C594 C 0.13502 0.5043 0.22755 0.0
C595 C 0.12044 0.50337 0.30658 0.0
O596 O 0.13267 0.5189 0.30987 0.0
O597 O 0.1597 0.47163 0.26869 0.0
O598 O 0.18195 0.4775 0.24558 0.0
O599 O 0.14999 0.5357 0.27697 0.0
O600 O 0.17309 0.52014 0.26197 0.0
C601 C 0.1727 0.46573 0.25713 0.0
C602 C 0.1658 0.53655 0.2667 0.0
O603 O 0.12358 0.49206 0.29223 0.0
Mg604 Mg 0.77858 0.6482 0.01848 0.0
O605 O 0.7477 0.63166 0.01543 0.0
O606 O 0.72489 0.65457 0.01399 0.0
Mg607 Mg 0.74069 0.68518 0.01657 0.0
C608 C 0.7295 0.63656 0.01389 0.0
C609 C 0.79584 0.60684 0.02422 0.0
O610 O 0.78593 0.60816 0.04038 0.0
O611 O 0.77614 0.65672 0.98602 0.0
O612 O 0.75431 0.6805 0.98655 0.0
O613 O 0.7771 0.64858 0.05139 0.0
O614 O 0.76615 0.6719 0.03177 0.0
C615 C 0.76624 0.67004 0.97737 0.0
C616 C 0.76825 0.66498 0.04931 0.0
O617 O 0.79471 0.62048 0.01152 0.0
Mg618 Mg 0.90413 0.0343 0.23673 0.0
O619 O 0.88621 0.00483 0.23259 0.0
O620 O 0.90729 0.98197 0.22443 0.0
Mg621 Mg 0.93882 0.99673 0.22408 0.0
C622 C 0.88973 0.98716 0.22798 0.0
C623 C 0.87782 0.06601 0.25307 0.0
O624 O 0.8946 0.07636 0.25032 0.0
O625 O 0.9165 0.024 0.26669 0.0
O626 O 0.93867 0.00272 0.25744 0.0
O627 O 0.89996 0.04097 0.2047 0.0
O628 O 0.92519 0.02479 0.21754 0.0
C629 C 0.93027 0.01213 0.27082 0.0
C630 C 0.91569 0.03117 0.2021 0.0
O631 O 0.87715 0.04757 0.24982 0.0
Mg632 Mg 0.27691 0.15093 0.51697 0.0
O633 O 0.24756 0.13165 0.51425 0.0
O634 O 0.22251 0.1523 0.51351 0.0
Mg635 Mg 0.23546 0.18407 0.51512 0.0
C636 C 0.22889 0.13491 0.51328 0.0
C637 C 0.31439 0.1295 0.51039 0.0
O638 O 0.32044 0.14809 0.51284 0.0
O639 O 0.27324 0.15876 0.48449 0.0
O640 O 0.24923 0.18039 0.48495 0.0
O641 O 0.27648 0.15143 0.54986 0.0
O642 O 0.26215 0.17314 0.53049 0.0
C643 C 0.26204 0.171 0.47578 0.0
C644 C 0.26574 0.16667 0.54803 0.0
O645 O 0.29572 0.12497 0.51041 0.0
Mg646 Mg 0.4051 0.53734 0.73829 0.0
O647 O 0.38617 0.50837 0.73459 0.0
O648 O 0.40694 0.4845 0.72891 0.0
Mg649 Mg 0.43884 0.49827 0.72791 0.0
C650 C 0.38936 0.4903 0.73135 0.0
C651 C 0.38031 0.57084 0.75279 0.0
O652 O 0.39755 0.58007 0.74942 0.0
O653 O 0.41654 0.52767 0.76883 0.0
O654 O 0.43868 0.50578 0.76092 0.0
O655 O 0.40176 0.54318 0.70608 0.0
O656 O 0.42611 0.52645 0.71988 0.0
C657 C 0.43013 0.51585 0.77371 0.0
C658 C 0.41719 0.53276 0.70408 0.0
O659 O 0.37862 0.55225 0.75053 0.0
Mg660 Mg 0.73061 0.34876 0.50968 0.0
O661 O 0.75987 0.36608 0.50255 0.0
O662 O 0.78415 0.34468 0.50448 0.0
Mg663 Mg 0.77077 0.31433 0.51245 0.0
C664 C 0.77822 0.36202 0.50138 0.0
C665 C 0.71429 0.39125 0.50394 0.0
O666 O 0.73024 0.39654 0.5151 0.0
O667 O 0.72926 0.33454 0.47938 0.0
O668 O 0.75338 0.31305 0.48229 0.0
O669 O 0.73639 0.3551 0.54166 0.0
O670 O 0.74656 0.32895 0.52638 0.0
C671 C 0.73929 0.32096 0.47227 0.0
C672 C 0.74624 0.33919 0.54233 0.0
O673 O 0.71141 0.37335 0.49866 0.0
Mg674 Mg 0.65232 -0.00062 0.77408 0.0
O675 O 0.63394 -0.0001 0.74465 0.0
O676 O 0.65588 0.00282 0.72087 0.0
Mg677 Mg 0.6877 0.0055 0.73474 0.0
C678 C 0.63791 0.00106 0.72645 0.0
C679 C 0.62695 0.99034 0.80902 0.0
O680 O 0.64461 0.99622 0.81681 0.0
O681 O 0.66101 0.96799 0.7677 0.0
O682 O 0.68433 0.9736 0.74559 0.0
O683 O 0.65234 0.03213 0.77682 0.0
O684 O 0.67535 0.01636 0.7618 0.0
C685 C 0.67443 0.96193 0.75671 0.0
C686 C 0.66824 0.03285 0.76665 0.0
O687 O 0.62481 0.98886 0.79038 0.0
Mg688 Mg 0.03712 0.25528 0.89733 0.0
O689 O 0.00649 0.25288 0.88078 0.0
O690 O 0.98372 0.2439 0.90265 0.0
Mg691 Mg -5e-05 0.23895 0.93249 0.0
C692 C 0.98842 0.24874 0.88524 0.0
C693 C 0.06653 0.26447 0.86574 0.0
O694 O 0.07302 0.24869 0.87457 0.0
O695 O 0.02879 0.28373 0.91206 0.0
O696 O 0.00782 0.27223 0.93454 0.0
O697 O 0.04125 0.22381 0.8903 0.0
O698 O 0.0274 0.23392 0.91716 0.0
C699 C 0.01766 0.28644 0.92649 0.0
C700 C 0.0321 0.21952 0.90622 0.0
O701 O 0.05088 0.2719 0.87178 0.0
Mg702 Mg 0.53759 0.75857 0.39766 0.0
O703 O 0.50672 0.75468 0.38184 0.0
O704 O 0.48455 0.74599 0.40437 0.0
Mg705 Mg 0.50162 0.74261 0.43407 0.0
C706 C 0.48885 0.75024 0.38671 0.0
C707 C 0.56618 0.78501 0.37377 0.0
O708 O 0.57424 0.78707 0.39172 0.0
O709 O 0.52875 0.78722 0.41153 0.0
O710 O 0.50861 0.77608 0.43486 0.0
O711 O 0.5426 0.72711 0.39165 0.0
O712 O 0.52898 0.73781 0.41844 0.0
C713 C 0.51789 0.79019 0.42611 0.0
C714 C 0.53384 0.72319 0.40789 0.0
O715 O 0.54996 0.77457 0.37118 0.0
Mg716 Mg 0.98447 0.74407 0.59611 0.0
O717 O 0.01395 0.73907 0.61378 0.0
O718 O 0.03644 0.73091 0.59219 0.0
Mg719 Mg 0.02208 0.73251 0.56109 0.0
C720 C 0.03145 0.73398 0.60981 0.0
C721 C 0.95347 0.76344 0.61978 0.0
O722 O 0.94622 0.764 0.60148 0.0
O723 O 0.99679 0.77415 0.58658 0.0
O724 O 0.01894 0.76607 0.56468 0.0
O725 O 0.97584 0.71209 0.59742 0.0
O726 O 0.99276 0.7259 0.57345 0.0
C727 C 0.00979 0.77897 0.57404 0.0
C728 C 0.98522 0.71014 0.58134 0.0
O729 O 0.97065 0.75667 0.62307 0.0
Mg730 Mg 0.48397 0.24727 0.09701 0.0
O731 O 0.51343 0.24083 0.11406 0.0
O732 O 0.53551 0.23437 0.09149 0.0
Mg733 Mg 0.5202 0.23533 0.06069 0.0
C734 C 0.53099 0.23649 0.10942 0.0
C735 C 0.45383 0.26732 0.12113 0.0
O736 O 0.44657 0.2683 0.10286 0.0
O737 O 0.49734 0.27721 0.08785 0.0
O738 O 0.51708 0.2688 0.06388 0.0
O739 O 0.47354 0.21567 0.09779 0.0
O740 O 0.49146 0.22885 0.07422 0.0
C741 C 0.5091 0.28183 0.07412 0.0
C742 C 0.48297 0.21338 0.0818 0.0
O743 O 0.4708 0.26005 0.12426 0.0
C744 C 0.23019 0.79048 0.85915 0.0
C745 C 0.21371 0.77703 0.85621 0.0
C746 C 0.23393 0.80026 0.87726 0.0
C747 C 0.22097 0.7963 0.89282 0.0
C748 C 0.20375 0.78347 0.8896 0.0
C749 C 0.20028 0.77404 0.87127 0.0
C750 C 0.25229 0.81404 0.88003 0.0
C751 C 0.18965 0.77881 0.90587 0.0
C752 C 0.24407 0.80002 0.94479 0.0
C753 C 0.23711 0.81787 0.95144 0.0
C754 C 0.23887 0.79289 0.92577 0.0
C755 C 0.22655 0.80394 0.91295 0.0
C756 C 0.21963 0.82208 0.91943 0.0
C757 C 0.22492 0.82879 0.93864 0.0
C758 C 0.24646 0.77341 0.91944 0.0
C759 C 0.20663 0.83434 0.90607 0.0
H760 H 0.24045 0.79299 0.84741 0.0
H761 H 0.18761 0.76353 0.86907 0.0
H762 H 0.24834 0.82815 0.88671 0.0
H763 H 0.26336 0.80734 0.89029 0.0
H764 H 0.25952 0.81724 0.86591 0.0
H765 H 0.17597 0.7701 0.90046 0.0
H766 H 0.19743 0.77024 0.91752 0.0
H767 H 0.18509 0.79257 0.91279 0.0
H768 H 0.25342 0.79141 0.95455 0.0
H769 H 0.21952 0.84264 0.94361 0.0
H770 H 0.25554 0.7755 0.90628 0.0
H771 H 0.23364 0.763 0.91524 0.0
H772 H 0.2558 0.76656 0.93124 0.0
H773 H 0.21444 0.838 0.89239 0.0
H774 H 0.20277 0.84827 0.91323 0.0
H775 H 0.19255 0.8258 0.90164 0.0
C776 C 0.02245 0.49331 0.37003 0.0
C777 C 0.0283 0.48966 0.38971 0.0
C778 C 0.03637 0.49321 0.35519 0.0
C779 C 0.05653 0.48917 0.36017 0.0
C780 C 0.06217 0.48422 0.37982 0.0
C781 C 0.04801 0.48466 0.39439 0.0
C782 C 0.0298 0.49874 0.33446 0.0
C783 C 0.08344 0.47957 0.3857 0.0
C784 C 0.0932 0.48104 0.31999 0.0
C785 C 0.10344 0.49956 0.31948 0.0
C786 C 0.0777 0.47739 0.33303 0.0
C787 C 0.07223 0.49269 0.34558 0.0
C788 C 0.08221 0.51152 0.34471 0.0
C789 C 0.09774 0.51467 0.33178 0.0
C790 C 0.06749 0.45709 0.33371 0.0
C791 C 0.07668 0.52834 0.35764 0.0
H792 H 0.00725 0.4973 0.3664 0.0
H793 H 0.05247 0.48157 0.40957 0.0
H794 H 0.03639 0.51359 0.33103 0.0
H795 H 0.03528 0.48828 0.32364 0.0
H796 H 0.01324 0.49901 0.33247 0.0
H797 H 0.08479 0.4736 0.40089 0.0
H798 H 0.08905 0.46873 0.37533 0.0
H799 H 0.09329 0.49317 0.385 0.0
H800 H 0.09758 0.4693 0.31053 0.0
H801 H 0.10545 0.52908 0.33134 0.0
H802 H 0.05105 0.458 0.33138 0.0
H803 H 0.07026 0.45058 0.34849 0.0
H804 H 0.0729 0.44703 0.32244 0.0
H805 H 0.06047 0.53086 0.35546 0.0
H806 H 0.08533 0.5423 0.35454 0.0
H807 H 0.07949 0.52457 0.37338 0.0
C808 C 0.79835 0.70996 0.87315 0.0
C809 C 0.78363 0.70582 0.85815 0.0
C810 C 0.79657 0.70185 0.89199 0.0
C811 C 0.77975 0.68916 0.89583 0.0
C812 C 0.76555 0.6839 0.88037 0.0
C813 C 0.76759 0.6924 0.86172 0.0
C814 C 0.81197 0.70795 0.90812 0.0
C815 C 0.74757 0.67019 0.8838 0.0
C816 C 0.78015 0.66187 0.94472 0.0
C817 C 0.76911 0.67418 0.95622 0.0
C818 C 0.78345 0.66628 0.92488 0.0
C819 C 0.77572 0.68351 0.91646 0.0
C820 C 0.7644 0.69585 0.92793 0.0
C821 C 0.76116 0.69099 0.94758 0.0
C822 C 0.79538 0.65267 0.91299 0.0
C823 C 0.756 0.71445 0.91954 0.0
H824 H 0.81069 0.72045 0.87049 0.0
H825 H 0.75632 0.68899 0.85005 0.0
H826 H 0.80509 0.71756 0.91886 0.0
H827 H 0.81709 0.69487 0.91626 0.0
H828 H 0.82522 0.71612 0.90228 0.0
H829 H 0.73951 0.66547 0.86977 0.0
H830 H 0.75217 0.65691 0.89195 0.0
H831 H 0.737 0.67776 0.89298 0.0
H832 H 0.78628 0.6488 0.95122 0.0
H833 H 0.75265 0.70066 0.9563 0.0
H834 H 0.80929 0.66059 0.90837 0.0
H835 H 0.78663 0.64791 0.89938 0.0
H836 H 0.79954 0.63938 0.92141 0.0
H837 H 0.76837 0.72453 0.91468 0.0
H838 H 0.74741 0.72237 0.9304 0.0
H839 H 0.74598 0.71086 0.90641 0.0
C840 C 0.96961 0.98552 0.3804 0.0
C841 C 0.98251 0.0009 0.38811 0.0
C842 C 0.95891 0.98749 0.36229 0.0
C843 C 0.96141 0.00512 0.35144 0.0
C844 C 0.97378 0.02097 0.35945 0.0
C845 C 0.98402 0.01872 0.37774 0.0
C846 C 0.94564 0.97035 0.35437 0.0
C847 C 0.97697 0.03997 0.34828 0.0
C848 C 0.95611 0.00151 0.29572 0.0
C849 C 0.93757 0.00974 0.2916 0.0
C850 C 0.96391 -0.00013 0.31511 0.0
C851 C 0.95278 0.00631 0.3309 0.0
C852 C 0.93385 0.01423 0.32694 0.0
C853 C 0.92653 0.01602 0.3073 0.0
C854 C 0.98428 0.99157 0.31866 0.0
C855 C 0.92142 0.02092 0.34344 0.0
H856 H 0.96842 0.97161 0.38813 0.0
H857 H 0.99354 0.03087 0.38376 0.0
H858 H 0.93083 0.97542 0.34913 0.0
H859 H 0.95255 0.96374 0.34155 0.0
H860 H 0.9433 0.95871 0.36561 0.0
H861 H 0.98595 0.05134 0.35711 0.0
H862 H 0.98489 0.0371 0.33464 0.0
H863 H 0.96237 0.04596 0.34373 0.0
H864 H 0.96484 0.99672 0.28371 0.0
H865 H 0.91215 0.02229 0.30426 0.0
H866 H 0.98312 0.9785 0.32836 0.0
H867 H 0.99462 0.00269 0.32633 0.0
H868 H 0.99098 0.98719 0.30476 0.0
H869 H 0.91894 0.00872 0.35403 0.0
H870 H 0.90663 0.02591 0.33796 0.0
H871 H 0.92954 0.03322 0.35168 0.0
C872 C 0.22933 0.22546 0.64224 0.0
C873 C 0.23887 0.24433 0.64142 0.0
C874 C 0.23257 0.211 0.62809 0.0
C875 C 0.24586 0.21544 0.61292 0.0
C876 C 0.25578 0.23431 0.6122 0.0
C877 C 0.25203 0.24855 0.62632 0.0
C878 C 0.22158 0.19109 0.6292 0.0
C879 C 0.27018 0.23958 0.59631 0.0
C880 C 0.26938 0.17578 0.58366 0.0
C881 C 0.25876 0.17691 0.56545 0.0
C882 C 0.26481 0.18767 0.59961 0.0
C883 C 0.24904 0.2007 0.59733 0.0
C884 C 0.23746 0.20093 0.57937 0.0
C885 C 0.24258 0.18915 0.56359 0.0
C886 C 0.27764 0.18714 0.61847 0.0
C887 C 0.22025 0.21431 0.57648 0.0
H888 H 0.21935 0.22194 0.654 0.0
H889 H 0.25918 0.26316 0.62527 0.0
H890 H 0.21205 0.18834 0.61556 0.0
H891 H 0.23244 0.17931 0.63017 0.0
H892 H 0.21195 0.18988 0.64207 0.0
H893 H 0.27744 0.25456 0.59842 0.0
H894 H 0.28203 0.22877 0.59612 0.0
H895 H 0.26211 0.23894 0.58167 0.0
H896 H 0.28194 0.16636 0.58516 0.0
H897 H 0.2341 0.18985 0.5497 0.0
H898 H 0.26813 0.18562 0.63138 0.0
H899 H 0.2867 0.20124 0.62026 0.0
H900 H 0.28797 0.17487 0.61859 0.0
H901 H 0.21009 0.21275 0.5889 0.0
H902 H 0.21141 0.21116 0.56248 0.0
H903 H 0.22611 0.22988 0.57629 0.0
C904 C 0.47937 0.52253 0.60908 0.0
C905 C 0.46884 0.5138 0.59273 0.0
C906 C 0.47002 0.52511 0.62687 0.0
C907 C 0.44976 0.51842 0.62845 0.0
C908 C 0.43913 0.50931 0.61205 0.0
C909 C 0.44876 0.50731 0.59426 0.0
C910 C 0.48175 0.53524 0.64389 0.0
C911 C 0.41765 0.50164 0.61333 0.0
C912 C 0.43395 0.51094 0.68094 0.0
C913 C 0.42417 0.52826 0.68435 0.0
C914 C 0.4416 0.50713 0.6625 0.0
C915 C 0.43978 0.5212 0.64728 0.0
C916 C 0.42951 0.53853 0.65052 0.0
C917 C 0.42161 0.54174 0.66897 0.0
C918 C 0.45201 0.48824 0.65945 0.0
C919 C 0.42758 0.55406 0.63478 0.0
H920 H 0.49484 0.52776 0.60777 0.0
H921 H 0.44068 0.50049 0.5816 0.0
H922 H 0.47405 0.54845 0.64848 0.0
H923 H 0.48251 0.52523 0.65675 0.0
H924 H 0.49727 0.53987 0.64012 0.0
H925 H 0.41171 0.49437 0.59944 0.0
H926 H 0.41642 0.4909 0.62555 0.0
H927 H 0.40805 0.51392 0.61668 0.0
H928 H 0.43558 0.50029 0.69263 0.0
H929 H 0.41407 0.55517 0.6716 0.0
H930 H 0.46815 0.49164 0.65727 0.0
H931 H 0.44566 0.48054 0.64597 0.0
H932 H 0.45064 0.47809 0.67217 0.0
H933 H 0.44268 0.56027 0.63134 0.0
H934 H 0.41842 0.5663 0.63936 0.0
H935 H 0.42066 0.54744 0.621 0.0
C936 C 0.76396 0.29001 0.64487 0.0
C937 C 0.78386 0.28818 0.65175 0.0
C938 C 0.75942 0.30031 0.62754 0.0
C939 C 0.77516 0.3093 0.61697 0.0
C940 C 0.79521 0.3085 0.62441 0.0
C941 C 0.79935 0.29783 0.64168 0.0
C942 C 0.73782 0.3008 0.62009 0.0
C943 C 0.81234 0.31818 0.61369 0.0
C944 C 0.76277 0.31339 0.56227 0.0
C945 C 0.75615 0.33258 0.56086 0.0
C946 C 0.76986 0.30593 0.58034 0.0
C947 C 0.77055 0.31804 0.59737 0.0
C948 C 0.765 0.33781 0.59583 0.0
C949 C 0.7577 0.34482 0.57758 0.0
C950 C 0.77551 0.28471 0.5814 0.0
C951 C 0.76591 0.35126 0.61359 0.0
H952 H 0.75189 0.28299 0.65284 0.0
H953 H 0.81478 0.29643 0.64685 0.0
H954 H 0.73375 0.31622 0.61749 0.0
H955 H 0.73576 0.29287 0.60578 0.0
H956 H 0.7273 0.29388 0.63055 0.0
H957 H 0.82668 0.31835 0.62263 0.0
H958 H 0.81428 0.31009 0.59976 0.0
H959 H 0.80906 0.33354 0.60972 0.0
H960 H 0.76159 0.30385 0.54942 0.0
H961 H 0.75275 0.35973 0.57654 0.0
H962 H 0.76475 0.27616 0.59044 0.0
H963 H 0.7906 0.2837 0.58868 0.0
H964 H 0.77548 0.27771 0.56661 0.0
H965 H 0.75413 0.34637 0.62374 0.0
H966 H 0.76362 0.36682 0.60947 0.0
H967 H 0.78057 0.35054 0.62183 0.0
C968 C 0.55218 0.01058 0.64094 0.0
C969 C 0.54558 0.99184 0.63385 0.0
C970 C 0.56592 0.01275 0.65717 0.0
C971 C 0.57329 0.99578 0.66645 0.0
C972 C 0.56607 0.97684 0.65986 0.0
C973 C 0.55227 0.9751 0.64369 0.0
C974 C 0.57319 0.0332 0.66383 0.0
C975 C 0.57353 0.95838 0.66938 0.0
C976 C 0.62536 -0.00049 0.69115 0.0
C977 C 0.62123 0.00015 0.71121 0.0
C978 C 0.60989 0.99827 0.6765 0.0
C979 C 0.58972 0.99774 0.68197 0.0
C980 C 0.58537 0.99861 0.70214 0.0
C981 C 0.60118 -0.00025 0.71653 0.0
C982 C 0.61515 0.99727 0.65514 0.0
C983 C 0.56403 0.9982 0.7085 0.0
H984 H 0.5472 0.02358 0.63334 0.0
H985 H 0.54693 0.96058 0.63853 0.0
H986 H 0.57201 0.03477 0.67999 0.0
H987 H 0.58924 0.0357 0.66064 0.0
H988 H 0.56461 0.04482 0.65635 0.0
H989 H 0.56542 0.94482 0.6634 0.0
H990 H 0.58972 0.95737 0.66693 0.0
H991 H 0.57184 0.95891 0.68554 0.0
H992 H 0.64076 -0.00021 0.68683 0.0
H993 H 0.5978 0.0003 0.73197 0.0
H994 H 0.60848 0.00951 0.64679 0.0
H995 H 0.60878 0.98328 0.64841 0.0
H996 H 0.63159 0.99813 0.65334 0.0
H997 H 0.55601 0.01038 0.70139 0.0
H998 H 0.56318 -0.00044 0.72473 0.0
H999 H 0.55601 0.98421 0.70362 0.0
C1000 C 0.89545 0.22416 0.81193 0.0
C1001 C 0.89146 0.23866 0.79777 0.0
C1002 C 0.9118 0.22645 0.82554 0.0
C1003 C 0.92412 0.244 0.82555 0.0
C1004 C 0.92008 0.25888 0.81161 0.0
C1005 C 0.904 0.25591 0.79769 0.0
C1006 C 0.91586 0.21006 0.83994 0.0
C1007 C 0.93263 0.278 0.81149 0.0
C1008 C 0.95332 0.25474 0.8739 0.0
C1009 C 0.97241 0.24889 0.8696 0.0
C1010 C 0.93768 0.25409 0.85939 0.0
C1011 C 0.94108 0.24676 0.84037 0.0
C1012 C 0.96041 0.24102 0.83592 0.0
C1013 C 0.97596 0.24246 0.85053 0.0
C1014 C 0.91743 0.26091 0.86452 0.0
C1015 C 0.96447 0.23259 0.81599 0.0
H1016 H 0.88566 0.211 0.81258 0.0
H1017 H 0.90138 0.2671 0.78669 0.0
H1018 H 0.93152 0.20564 0.83899 0.0
H1019 H 0.91413 0.21528 0.85521 0.0
H1020 H 0.90559 0.19686 0.83719 0.0
H1021 H 0.92711 0.28836 0.8001 0.0
H1022 H 0.9326 0.28527 0.82614 0.0
H1023 H 0.9484 0.27505 0.80872 0.0
H1024 H 0.95065 0.2599 0.88861 0.0
H1025 H 0.9907 0.23779 0.84727 0.0
H1026 H 0.90633 0.2482 0.86421 0.0
H1027 H 0.91211 0.27166 0.85345 0.0
H1028 H 0.91777 0.26787 0.87936 0.0
H1029 H 0.95523 0.2187 0.81345 0.0
H1030 H 0.98048 0.22944 0.81468 0.0
H1031 H 0.96014 0.24294 0.80414 0.0
C1032 C 0.48973 0.89547 0.46545 0.0
C1033 C 0.5056 0.90426 0.47716 0.0
C1034 C 0.49216 0.87811 0.45479 0.0
C1035 C 0.51082 0.86919 0.4561 0.0
C1036 C 0.52718 0.87852 0.46703 0.0
C1037 C 0.52442 0.89603 0.47729 0.0
C1038 C 0.47444 0.86874 0.44305 0.0
C1039 C 0.5473 0.86942 0.46887 0.0
C1040 C 0.50933 0.81353 0.45242 0.0
C1041 C 0.5161 0.81051 0.43347 0.0
C1042 C 0.50764 0.83255 0.4599 0.0
C1043 C 0.51257 0.84903 0.44805 0.0
C1044 C 0.51925 0.84616 0.42883 0.0
C1045 C 0.52111 0.8269 0.42181 0.0
C1046 C 0.50073 0.83498 0.48059 0.0
C1047 C 0.52433 0.86341 0.41569 0.0
H1048 H 0.47509 0.9016 0.46533 0.0
H1049 H 0.5369 0.90298 0.48589 0.0
H1050 H 0.47889 0.86427 0.42823 0.0
H1051 H 0.46889 0.85523 0.45064 0.0
H1052 H 0.46192 0.8788 0.44129 0.0
H1053 H 0.55896 0.87943 0.47633 0.0
H1054 H 0.54592 0.85562 0.47751 0.0
H1055 H 0.55238 0.86547 0.45414 0.0
H1056 H 0.50557 0.80097 0.4616 0.0
H1057 H 0.52625 0.82467 0.40711 0.0
H1058 H 0.48683 0.84321 0.48028 0.0
H1059 H 0.51227 0.84371 0.48963 0.0
H1060 H 0.49773 0.82063 0.48797 0.0
H1061 H 0.51115 0.87255 0.41354 0.0
H1062 H 0.52906 0.85868 0.40103 0.0
H1063 H 0.53658 0.87295 0.4228 0.0
C1064 C 0.14272 0.31564 0.79298 0.0
C1065 C 0.13843 0.31015 0.77325 0.0
C1066 C 0.12952 0.3102 0.80771 0.0
C1067 C 0.11166 0.29889 0.80261 0.0
C1068 C 0.10671 0.29422 0.78259 0.0
C1069 C 0.12013 0.29995 0.76815 0.0
C1070 C 0.13529 0.31555 0.82888 0.0
C1071 C 0.08779 0.2822 0.77656 0.0
C1072 C 0.09335 0.26342 0.84157 0.0
C1073 C 0.07751 0.27328 0.84922 0.0
C1074 C 0.10434 0.27152 0.82623 0.0
C1075 C 0.09947 0.29002 0.81837 0.0
C1076 C 0.08338 0.30002 0.82586 0.0
C1077 C 0.07252 0.29149 0.8412 0.0
C1078 C 0.12131 0.26031 0.81856 0.0
C1079 C 0.07784 0.31981 0.81787 0.0
H1080 H 0.15689 0.32335 0.79712 0.0
H1081 H 0.11654 0.29598 0.75288 0.0
H1082 H 0.12252 0.32184 0.83612 0.0
H1083 H 0.13917 0.30208 0.8371 0.0
H1084 H 0.14835 0.32634 0.83013 0.0
H1085 H 0.08503 0.28171 0.76031 0.0
H1086 H 0.08896 0.26689 0.78196 0.0
H1087 H 0.07466 0.28831 0.78333 0.0
H1088 H 0.09725 0.2493 0.8476 0.0
H1089 H 0.06031 0.2992 0.84705 0.0
H1090 H 0.13564 0.26915 0.82083 0.0
H1091 H 0.11886 0.25769 0.80248 0.0
H1092 H 0.12285 0.24587 0.82597 0.0
H1093 H 0.09065 0.33071 0.82037 0.0
H1094 H 0.06457 0.32541 0.82489 0.0
H1095 H 0.07461 0.3188 0.80173 0.0
C1096 C 0.5366 0.61493 0.44833 0.0
C1097 C 0.51808 0.60431 0.44856 0.0
C1098 C 0.53808 0.63404 0.44072 0.0
C1099 C 0.52062 0.64272 0.43302 0.0
C1100 C 0.50192 0.63193 0.4328 0.0
C1101 C 0.50085 0.61285 0.44072 0.0
C1102 C 0.55826 0.64514 0.44142 0.0
C1103 C 0.48305 0.64066 0.42448 0.0
C1104 C 0.52335 0.69853 0.43305 0.0
C1105 C 0.52898 0.70266 0.41381 0.0
C1106 C 0.51994 0.67906 0.43931 0.0
C1107 C 0.52201 0.66337 0.42594 0.0
C1108 C 0.52694 0.66747 0.40628 0.0
C1109 C 0.53051 0.68709 0.40048 0.0
C1110 C 0.5149 0.67526 0.46046 0.0
C1111 C 0.52904 0.65112 0.39155 0.0
H1112 H 0.5499 0.60848 0.45467 0.0
H1113 H 0.48654 0.6046 0.4408 0.0
H1114 H 0.56205 0.65004 0.42641 0.0
H1115 H 0.55775 0.65855 0.45069 0.0
H1116 H 0.57044 0.6361 0.44749 0.0
H1117 H 0.46991 0.62996 0.42444 0.0
H1118 H 0.4797 0.65374 0.43329 0.0
H1119 H 0.48518 0.64572 0.40917 0.0
H1120 H 0.5222 0.7105 0.44343 0.0
H1121 H 0.5347 0.69022 0.38553 0.0
H1122 H 0.52718 0.66748 0.4681 0.0
H1123 H 0.50108 0.66557 0.46106 0.0
H1124 H 0.51269 0.68909 0.46865 0.0
H1125 H 0.5421 0.64248 0.39603 0.0
H1126 H 0.53115 0.6568 0.37643 0.0
H1127 H 0.51558 0.64085 0.39124 0.0
C1128 C 0.87393 0.75414 0.70114 0.0
C1129 C 0.86969 0.77156 0.71084 0.0
C1130 C 0.88876 0.75407 0.68721 0.0
C1131 C 0.89969 0.77183 0.68295 0.0
C1132 C 0.89584 0.78937 0.69306 0.0
C1133 C 0.88081 0.78904 0.70684 0.0
C1134 C 0.89231 0.73508 0.67664 0.0
C1135 C 0.90732 0.80854 0.68904 0.0
C1136 C 0.94741 0.76553 0.65589 0.0
C1137 C 0.94066 0.76804 0.63623 0.0
C1138 C 0.93447 0.76756 0.6714 0.0
C1139 C 0.91432 0.77211 0.66711 0.0
C1140 C 0.90771 0.77555 0.64738 0.0
C1141 C 0.92097 0.77353 0.6322 0.0
C1142 C 0.94211 0.764 0.69228 0.0
C1143 C 0.88635 0.78046 0.64219 0.0
H1144 H 0.86522 0.74064 0.70401 0.0
H1145 H 0.87774 0.80249 0.71449 0.0
H1146 H 0.88865 0.73668 0.66064 0.0
H1147 H 0.90833 0.7317 0.67835 0.0
H1148 H 0.8831 0.72239 0.68223 0.0
H1149 H 0.90341 0.82058 0.69902 0.0
H1150 H 0.92367 0.80661 0.69076 0.0
H1151 H 0.9041 0.81311 0.67359 0.0
H1152 H 0.96263 0.76138 0.65915 0.0
H1153 H 0.91564 0.77562 0.61708 0.0
H1154 H 0.93475 0.75027 0.6979 0.0
H1155 H 0.93829 0.77622 0.70205 0.0
H1156 H 0.95859 0.76257 0.69335 0.0
H1157 H 0.87606 0.76777 0.64576 0.0
H1158 H 0.88395 0.78398 0.62632 0.0
H1159 H 0.88216 0.7932 0.65105 0.0
C1160 C 0.01362 0.88186 0.52071 0.0
C1161 C 0.02485 0.89723 0.53055 0.0
C1162 C 0.01103 0.86322 0.5293 0.0
C1163 C 0.02009 0.85971 0.54813 0.0
C1164 C 0.03117 0.87519 0.55832 0.0
C1165 C 0.03334 0.89379 0.54945 0.0
C1166 C 0.999 0.84712 0.51799 0.0
C1167 C 0.0411 0.87198 0.57839 0.0
C1168 C 0.00014 0.81414 0.57466 0.0
C1169 C 0.01354 0.80009 0.56922 0.0
C1170 C 0.00242 0.83379 0.56843 0.0
C1171 C 0.0186 0.83956 0.55665 0.0
C1172 C 0.03267 0.82567 0.55185 0.0
C1173 C 0.02992 0.80609 0.5581 0.0
C1174 C 0.98704 0.84815 0.57373 0.0
C1175 C 0.05028 0.83131 0.53953 0.0
H1176 H 0.00729 0.88421 0.50598 0.0
H1177 H 0.04179 0.90563 0.55731 0.0
H1178 H 0.00885 0.8351 0.51441 0.0
H1179 H 0.98703 0.84067 0.52715 0.0
H1180 H 0.99197 0.85255 0.50403 0.0
H1181 H 0.04855 0.88572 0.58469 0.0
H1182 H 0.02988 0.86621 0.58873 0.0
H1183 H 0.05247 0.86076 0.57732 0.0
H1184 H 0.98742 0.80965 0.58322 0.0
H1185 H 0.04046 0.79541 0.55398 0.0
H1186 H 0.97854 0.85257 0.56019 0.0
H1187 H 0.9945 0.86171 0.58035 0.0
H1188 H 0.97626 0.84177 0.58424 0.0
H1189 H 0.04482 0.83525 0.52445 0.0
H1190 H 0.06069 0.8192 0.53839 0.0
H1191 H 0.05874 0.84447 0.54593 0.0
C1192 C 0.10463 0.71018 0.7027 0.0
C1193 C 0.12313 0.72053 0.70116 0.0
C1194 C 0.08913 0.71213 0.68829 0.0
C1195 C 0.09209 0.72514 0.6723 0.0
C1196 C 0.11066 0.73597 0.67098 0.0
C1197 C 0.12606 0.73332 0.68531 0.0
C1198 C 0.06974 0.69997 0.68995 0.0
C1199 C 0.11425 0.75032 0.65442 0.0
C1200 C 0.06132 0.71776 0.62423 0.0
C1201 C 0.04651 0.7314 0.62611 0.0
C1202 C 0.07592 0.71522 0.63939 0.0
C1203 C 0.07604 0.72702 0.6566 0.0
C1204 C 0.06114 0.74086 0.65857 0.0
C1205 C 0.04635 0.74269 0.64339 0.0
C1206 C 0.09124 0.69995 0.63694 0.0
C1207 C 0.06107 0.75403 0.67649 0.0
H1208 H 0.10248 0.70024 0.71497 0.0
H1209 H 0.14037 0.74143 0.68429 0.0
H1210 H 0.057 0.70974 0.69043 0.0
H1211 H 0.06703 0.69038 0.67675 0.0
H1212 H 0.06983 0.69056 0.70329 0.0
H1213 H 0.12911 0.75838 0.65615 0.0
H1214 H 0.11338 0.74236 0.64011 0.0
H1215 H 0.10244 0.76121 0.65377 0.0
H1216 H 0.06136 0.70886 0.61097 0.0
H1217 H 0.03499 0.75334 0.64482 0.0
H1218 H 0.09117 0.68969 0.64963 0.0
H1219 H 0.10645 0.70723 0.63675 0.0
H1220 H 0.0884 0.69125 0.62314 0.0
H1221 H 0.06005 0.745 0.69002 0.0
H1222 H 0.04843 0.76401 0.67577 0.0
H1223 H 0.07535 0.76311 0.67792 0.0
C1224 C 0.99582 0.60334 0.5318 0.0
C1225 C 0.97768 0.59863 0.52123 0.0
C1226 C 0.9988 0.62116 0.54231 0.0
C1227 C 0.98332 0.6346 0.54209 0.0
C1228 C 0.96504 0.62996 0.53136 0.0
C1229 C 0.96243 0.61202 0.5211 0.0
C1230 C 0.01843 0.62557 0.55371 0.0
C1231 C 0.94823 0.64397 0.53063 0.0
C1232 C 0.98007 0.67344 0.58185 0.0
C1233 C 0.98686 0.69055 0.57217 0.0
C1234 C 0.97967 0.65496 0.57254 0.0
C1235 C 0.98608 0.6536 0.55304 0.0
C1236 C 0.99368 0.6707 0.54348 0.0
C1237 C 0.99402 0.68898 0.55318 0.0
C1238 C 0.97165 0.63703 0.58329 0.0
C1239 C 0.0006 0.66985 0.52266 0.0
H1240 H 0.00758 0.59295 0.53206 0.0
H1241 H 0.9485 0.60858 0.5127 0.0
H1242 H 0.02571 0.63946 0.54837 0.0
H1243 H 0.0157 0.62775 0.56954 0.0
H1244 H 0.02896 0.61357 0.55237 0.0
H1245 H 0.93499 0.63818 0.52151 0.0
H1246 H 0.94344 0.64683 0.54575 0.0
H1247 H 0.95352 0.65832 0.52447 0.0
H1248 H 0.97462 0.67453 0.59658 0.0
H1249 H 0.99925 0.70213 0.54559 0.0
H1250 H 0.98227 0.62505 0.58275 0.0
H1251 H 0.95731 0.63143 0.57594 0.0
H1252 H 0.96896 0.64027 0.59896 0.0
H1253 H 0.01161 0.65833 0.52134 0.0
H1254 H 0.00754 0.68415 0.51789 0.0
H1255 H 0.98764 0.66579 0.5124 0.0
C1256 C 0.81089 0.89578 0.23447 0.0
C1257 C 0.79428 0.89733 0.22136 0.0
C1258 C 0.82594 0.91092 0.23611 0.0
C1259 C 0.82453 0.92774 0.22395 0.0
C1260 C 0.8077 0.92939 0.21074 0.0
C1261 C 0.79261 0.91422 0.20977 0.0
C1262 C 0.84342 0.90884 0.2507 0.0
C1263 C 0.80589 0.9469 0.19725 0.0
C1264 C 0.8561 0.97417 0.23801 0.0
C1265 C 0.8729 0.97218 0.22672 0.0
C1266 C 0.84024 0.95979 0.23732 0.0
C1267 C 0.84102 0.9433 0.22466 0.0
C1268 C 0.85776 0.94143 0.21292 0.0
C1269 C 0.87362 0.95577 0.21428 0.0
C1270 C 0.82285 0.96204 0.25039 0.0
C1271 C 0.85892 0.92428 0.19891 0.0
H1272 H 0.81203 0.88271 0.24349 0.0
H1273 H 0.77978 0.91526 0.19954 0.0
H1274 H 0.85748 0.90812 0.24276 0.0
H1275 H 0.84513 0.92191 0.26057 0.0
H1276 H 0.84163 0.89541 0.25988 0.0
H1277 H 0.79173 0.94604 0.18801 0.0
H1278 H 0.80656 0.96073 0.206 0.0
H1279 H 0.81868 0.9478 0.1874 0.0
H1280 H 0.85555 0.98678 0.24775 0.0
H1281 H 0.8865 0.95428 0.20538 0.0
H1282 H 0.8215 0.94922 0.26042 0.0
H1283 H 0.80865 0.96227 0.24132 0.0
H1284 H 0.82455 0.97573 0.25943 0.0
H1285 H 0.859 0.91028 0.20727 0.0
H1286 H 0.87254 0.92549 0.19015 0.0
H1287 H 0.84553 0.92338 0.18862 0.0
C1288 C 0.78016 0.12131 0.28298 0.0
C1289 C 0.7725 0.1312 0.26637 0.0
C1290 C 0.79663 0.10948 0.28177 0.0
C1291 C 0.80557 0.10731 0.26348 0.0
C1292 C 0.79742 0.11658 0.24649 0.0
C1293 C 0.78103 0.12847 0.24815 0.0
C1294 C 0.80488 0.09982 0.30021 0.0
C1295 C 0.80646 0.11451 0.22668 0.0
C1296 C 0.86051 0.09618 0.26232 0.0
C1297 C 0.85942 0.07606 0.25753 0.0
C1298 C 0.8431 0.10638 0.2648 0.0
C1299 C 0.82411 0.09627 0.26227 0.0
C1300 C 0.8229 0.07584 0.25796 0.0
C1301 C 0.84058 0.06595 0.25573 0.0
C1302 C 0.84503 0.12812 0.26964 0.0
C1303 C 0.80292 0.06458 0.25508 0.0
H1304 H 0.77342 0.12304 0.29704 0.0
H1305 H 0.77537 0.13619 0.23529 0.0
H1306 H 0.80587 0.08377 0.29776 0.0
H1307 H 0.82029 0.10598 0.30389 0.0
H1308 H 0.79554 0.10207 0.31305 0.0
H1309 H 0.79751 0.12149 0.21467 0.0
H1310 H 0.82185 0.12146 0.22723 0.0
H1311 H 0.80765 0.09871 0.223 0.0
H1312 H 0.875 0.10407 0.26384 0.0
H1313 H 0.83958 0.05041 0.25198 0.0
H1314 H 0.83687 0.13117 0.28308 0.0
H1315 H 0.83811 0.13661 0.25742 0.0
H1316 H 0.86089 0.13359 0.27207 0.0
H1317 H 0.79373 0.06661 0.26804 0.0
H1318 H 0.80455 0.04856 0.25282 0.0
H1319 H 0.79453 0.07041 0.24208 0.0
C1320 C 0.36586 0.94102 0.96358 0.0
C1321 C 0.37762 0.9496 0.97929 0.0
C1322 C 0.34963 0.92774 0.96701 0.0
C1323 C 0.34503 0.92294 0.98662 0.0
C1324 C 0.35662 0.9318 0.00254 0.0
C1325 C 0.37279 0.945 0.99868 0.0
C1326 C 0.33759 0.91861 0.94965 0.0
C1327 C 0.35223 0.92701 0.02365 0.0
C1328 C 0.29384 0.89908 0.99666 0.0
C1329 C 0.29815 0.87914 0.99835 0.0
C1330 C 0.30892 0.91353 0.99278 0.0
C1331 C 0.32876 0.9079 0.99048 0.0
C1332 C 0.33319 0.88782 0.99206 0.0
C1333 C 0.31787 0.87372 0.99598 0.0
C1334 C 0.30367 0.93482 0.99124 0.0
C1335 C 0.35416 0.88122 0.98967 0.0
H1336 H 0.36931 0.94474 0.94857 0.0
H1337 H 0.38194 0.95138 0.01089 0.0
H1338 H 0.33893 0.9024 0.9497 0.0
H1339 H 0.32149 0.92136 0.95081 0.0
H1340 H 0.34261 0.92446 0.93534 0.0
H1341 H 0.36201 0.93591 0.03434 0.0
H1342 H 0.33637 0.92965 0.02638 0.0
H1343 H 0.35442 0.91118 0.02649 0.0
H1344 H 0.27868 0.90345 0.99848 0.0
H1345 H 0.32142 0.85838 0.9972 0.0
H1346 H 0.30763 0.94077 0.97665 0.0
H1347 H 0.31251 0.94375 0.00259 0.0
H1348 H 0.28749 0.93675 0.99318 0.0
H1349 H 0.35941 0.88566 0.97499 0.0
H1350 H 0.35508 0.86502 0.99115 0.0
H1351 H 0.36461 0.88853 0.00091 0.0
C1352 C 0.20607 0.35417 0.25053 0.0
C1353 C 0.21872 0.3506 0.26702 0.0
C1354 C 0.19587 0.37168 0.24898 0.0
C1355 C 0.19878 0.38609 0.26409 0.0
C1356 C 0.21096 0.3822 0.2811 0.0
C1357 C 0.22066 0.36442 0.28242 0.0
C1358 C 0.18268 0.37512 0.23081 0.0
C1359 C 0.21473 0.39729 0.29739 0.0
C1360 C 0.19639 0.43979 0.24994 0.0
C1361 C 0.17836 0.44493 0.25784 0.0
C1362 C 0.20297 0.42062 0.25163 0.0
C1363 C 0.19108 0.40605 0.26116 0.0
C1364 C 0.17252 0.41091 0.26859 0.0
C1365 C 0.16645 0.43037 0.26702 0.0
C1366 C 0.223 0.41614 0.24374 0.0
C1367 C 0.15928 0.39563 0.27849 0.0
H1368 H 0.20442 0.34338 0.23871 0.0
H1369 H 0.23058 0.36175 0.2951 0.0
H1370 H 0.16809 0.38055 0.23496 0.0
H1371 H 0.18995 0.38663 0.2216 0.0
H1372 H 0.17987 0.36154 0.22176 0.0
H1373 H 0.22326 0.39139 0.31029 0.0
H1374 H 0.22336 0.4103 0.29173 0.0
H1375 H 0.20036 0.40248 0.30238 0.0
H1376 H 0.20577 0.45092 0.2429 0.0
H1377 H 0.15244 0.43419 0.27306 0.0
H1378 H 0.22114 0.40385 0.23294 0.0
H1379 H 0.2332 0.41137 0.25596 0.0
H1380 H 0.23029 0.42907 0.23646 0.0
H1381 H 0.15657 0.38246 0.26886 0.0
H1382 H 0.14461 0.40135 0.28204 0.0
H1383 H 0.16688 0.39074 0.29235 0.0
C1384 C 0.13788 0.06206 0.47975 0.0
C1385 C 0.13475 0.04545 0.49172 0.0
C1386 C 0.1543 0.07546 0.48339 0.0
C1387 C 0.16768 0.07259 0.49976 0.0
C1388 C 0.16475 0.05588 0.51187 0.0
C1389 C 0.1485 0.04239 0.50757 0.0
C1390 C 0.15708 0.09295 0.46992 0.0
C1391 C 0.17851 0.0525 0.52967 0.0
C1392 C 0.21812 0.10121 0.50065 0.0
C1393 C 0.21397 0.11813 0.51124 0.0
C1394 C 0.20329 0.08605 0.49704 0.0
C1395 C 0.18409 0.08767 0.50467 0.0
C1396 C 0.18017 0.10434 0.51614 0.0
C1397 C 0.19506 0.11949 0.51904 0.0
C1398 C 0.2079 0.06873 0.48437 0.0
C1399 C 0.16007 0.1064 0.52496 0.0
H1400 H 0.12725 0.06491 0.46771 0.0
H1401 H 0.14656 0.02946 0.51671 0.0
H1402 H 0.15492 0.10674 0.47813 0.0
H1403 H 0.17255 0.09389 0.46466 0.0
H1404 H 0.14637 0.09217 0.45691 0.0
H1405 H 0.17442 0.03858 0.53739 0.0
H1406 H 0.19422 0.05204 0.52523 0.0
H1407 H 0.17793 0.06494 0.5402 0.0
H1408 H 0.23269 0.10021 0.49449 0.0
H1409 H 0.19189 0.13248 0.5274 0.0
H1410 H 0.19834 0.06869 0.47057 0.0
H1411 H 0.20435 0.0547 0.49207 0.0
H1412 H 0.22385 0.06915 0.48045 0.0
H1413 H 0.14836 0.1079 0.51303 0.0
H1414 H 0.16001 0.11941 0.53488 0.0
H1415 H 0.15588 0.09299 0.53344 0.0
C1416 C 0.7204 0.13739 0.73685 0.0
C1417 C 0.74 0.13826 0.74528 0.0
C1418 C 0.70735 0.12083 0.73939 0.0
C1419 C 0.71395 0.1049 0.75092 0.0
C1420 C 0.7336 0.10574 0.75964 0.0
C1421 C 0.74643 0.1223 0.75656 0.0
C1422 C 0.68657 0.12032 0.72967 0.0
C1423 C 0.74114 0.08909 0.77216 0.0
C1424 C 0.67665 0.06846 0.77333 0.0
C1425 C 0.67819 0.05186 0.76132 0.0
C1426 C 0.68783 0.08606 0.76983 0.0
C1427 C 0.7005 0.08713 0.7537 0.0
C1428 C 0.70129 0.07073 0.74094 0.0
C1429 C 0.69026 0.05323 0.74502 0.0
C1430 C 0.68679 0.10316 0.78391 0.0
C1431 C 0.71426 0.07146 0.72332 0.0
H1432 H 0.71515 0.14974 0.72837 0.0
H1433 H 0.76164 0.12262 0.76283 0.0
H1434 H 0.68432 0.10731 0.71976 0.0
H1435 H 0.67518 0.11879 0.74099 0.0
H1436 H 0.68385 0.1338 0.72093 0.0
H1437 H 0.75654 0.09239 0.77853 0.0
H1438 H 0.731 0.08606 0.78439 0.0
H1439 H 0.74113 0.07544 0.76318 0.0
H1440 H 0.66738 0.06744 0.78599 0.0
H1441 H 0.69122 0.0406 0.73549 0.0
H1442 H 0.68337 0.11676 0.77572 0.0
H1443 H 0.70158 0.10593 0.7918 0.0
H1444 H 0.67528 0.10039 0.79499 0.0
H1445 H 0.71115 0.08458 0.71421 0.0
H1446 H 0.71185 0.05808 0.71391 0.0
H1447 H 0.73028 0.07285 0.72837 0.0
C1448 C 0.39295 0.05072 0.53906 0.0
C1449 C 0.40375 0.04371 0.52353 0.0
C1450 C 0.3776 0.06374 0.53561 0.0
C1451 C 0.37278 0.06978 0.51611 0.0
C1452 C 0.38314 0.06227 0.50027 0.0
C1453 C 0.39857 0.04938 0.50417 0.0
C1454 C 0.3669 0.07144 0.55291 0.0
C1455 C 0.37834 0.06829 0.47927 0.0
C1456 C 0.32311 0.09408 0.50838 0.0
C1457 C 0.32925 0.11411 0.50979 0.0
C1458 C 0.33717 0.07942 0.50968 0.0
C1459 C 0.3578 0.08496 0.51257 0.0
C1460 C 0.36411 0.10516 0.51328 0.0
C1461 C 0.34978 0.11947 0.51182 0.0
C1462 C 0.32992 0.05802 0.50862 0.0
C1463 C 0.38597 0.11168 0.51638 0.0
H1464 H 0.39657 0.0461 0.55401 0.0
H1465 H 0.40694 0.04418 0.49209 0.0
H1466 H 0.36971 0.08764 0.55413 0.0
H1467 H 0.35049 0.06852 0.55063 0.0
H1468 H 0.37187 0.06467 0.56706 0.0
H1469 H 0.38654 0.05984 0.4685 0.0
H1470 H 0.36203 0.0661 0.47569 0.0
H1471 H 0.38239 0.0842 0.47746 0.0
H1472 H 0.30728 0.08981 0.50672 0.0
H1473 H 0.35469 0.1349 0.51283 0.0
H1474 H 0.33284 0.05095 0.5231 0.0
H1475 H 0.33825 0.05007 0.49761 0.0
H1476 H 0.31363 0.05618 0.50465 0.0
H1477 H 0.39168 0.10673 0.53104 0.0
H1478 H 0.38849 0.12794 0.51556 0.0
H1479 H 0.39495 0.10481 0.50516 0.0
C1480 C 0.62036 0.45365 0.51684 0.0
C1481 C 0.61308 0.46362 0.50015 0.0
C1482 C 0.63768 0.44294 0.5163 0.0
C1483 C 0.64824 0.44248 0.49874 0.0
C1484 C 0.64136 0.45296 0.482 0.0
C1485 C 0.62376 0.46324 0.48284 0.0
C1486 C 0.64445 0.4318 0.53442 0.0
C1487 C 0.65239 0.453 0.4631 0.0
C1488 C 0.70116 0.42509 0.50526 0.0
C1489 C 0.6982 0.40511 0.50016 0.0
C1490 C 0.6852 0.43774 0.50396 0.0
C1491 C 0.66584 0.43012 0.49771 0.0
C1492 C 0.66296 0.41017 0.49177 0.0
C1493 C 0.67921 0.39796 0.49291 0.0
C1494 C 0.6889 0.45905 0.51 0.0
C1495 C 0.64251 0.40142 0.48519 0.0
H1496 H 0.61253 0.4542 0.53042 0.0
H1497 H 0.61818 0.47068 0.46977 0.0
H1498 H 0.6444 0.41582 0.53099 0.0
H1499 H 0.66003 0.43669 0.53907 0.0
H1500 H 0.63469 0.43388 0.54698 0.0
H1501 H 0.64603 0.46317 0.45197 0.0
H1502 H 0.66845 0.45737 0.4661 0.0
H1503 H 0.65164 0.43793 0.45671 0.0
H1504 H 0.71582 0.43075 0.51072 0.0
H1505 H 0.67676 0.38254 0.4889 0.0
H1506 H 0.68132 0.4618 0.52384 0.0
H1507 H 0.68247 0.46884 0.49857 0.0
H1508 H 0.70511 0.46317 0.51243 0.0
H1509 H 0.63236 0.40171 0.49764 0.0
H1510 H 0.64302 0.38596 0.47997 0.0
H1511 H 0.63585 0.41031 0.47314 0.0
C1512 C 0.71563 0.28338 0.3606 0.0
C1513 C 0.70768 0.26395 0.36164 0.0
C1514 C 0.72009 0.29456 0.37781 0.0
C1515 C 0.71627 0.2861 0.39639 0.0
C1516 C 0.70737 0.2668 0.3974 0.0
C1517 C 0.70329 0.25591 0.38001 0.0
C1518 C 0.72972 0.31504 0.37618 0.0
C1519 C 0.7028 0.25736 0.41691 0.0
C1520 C 0.74723 0.30191 0.44236 0.0
C1521 C 0.73401 0.31354 0.45208 0.0
C1522 C 0.74193 0.29358 0.42383 0.0
C1523 C 0.72284 0.29676 0.41489 0.0
C1524 C 0.70965 0.30897 0.42431 0.0
C1525 C 0.71545 0.31732 0.44276 0.0
C1526 C 0.75652 0.28087 0.41412 0.0
C1527 C 0.68913 0.31256 0.41527 0.0
H1528 H 0.71915 0.28954 0.34639 0.0
H1529 H 0.69693 0.24094 0.38077 0.0
H1530 H 0.72154 0.3257 0.38472 0.0
H1531 H 0.7453 0.31526 0.38255 0.0
H1532 H 0.73012 0.32008 0.36064 0.0
H1533 H 0.69447 0.24285 0.41504 0.0
H1534 H 0.71699 0.25518 0.42555 0.0
H1535 H 0.69382 0.26715 0.42567 0.0
H1536 H 0.7617 0.2991 0.44934 0.0
H1537 H 0.70513 0.32628 0.45017 0.0
H1538 H 0.75882 0.2859 0.39882 0.0
H1539 H 0.75031 0.26542 0.41323 0.0
H1540 H 0.7713 0.28108 0.42229 0.0
H1541 H 0.69028 0.31772 0.39986 0.0
H1542 H 0.68129 0.32361 0.4237 0.0
H1543 H 0.67983 0.29855 0.41478 0.0
C1544 C 0.53548 0.97782 0.88207 0.0
C1545 C 0.52836 0.99669 0.8845 0.0
C1546 C 0.5504 0.97447 0.86874 0.0
C1547 C 0.55844 0.9904 0.85769 0.0
C1548 C 0.55072 0.00928 0.85951 0.0
C1549 C 0.53575 0.01217 0.87282 0.0
C1550 C 0.55815 0.9541 0.8671 0.0
C1551 C 0.55885 0.02666 0.84797 0.0
C1552 C 0.61208 0.99129 0.84201 0.0
C1553 C 0.60952 0.98791 0.82165 0.0
C1554 C 0.5956 0.99137 0.85401 0.0
C1555 C 0.57603 0.98787 0.84548 0.0
C1556 C 0.57336 0.98349 0.8251 0.0
C1557 C 0.59015 0.98361 0.8134 0.0
C1558 C 0.59909 0.99612 0.87568 0.0
C1559 C 0.55273 0.97947 0.81553 0.0
H1560 H 0.52994 0.9658 0.89112 0.0
H1561 H 0.53002 0.0267 0.87433 0.0
H1562 H 0.55854 0.94963 0.85141 0.0
H1563 H 0.57373 0.95414 0.87346 0.0
H1564 H 0.54886 0.94291 0.87497 0.0
H1565 H 0.55041 0.04008 0.85018 0.0
H1566 H 0.5748 0.03002 0.85258 0.0
H1567 H 0.55828 0.02309 0.832 0.0
H1568 H 0.62698 0.99451 0.84856 0.0
H1569 H 0.58804 0.98089 0.79769 0.0
H1570 H 0.59154 0.98465 0.88471 0.0
H1571 H 0.59252 0.01033 0.87902 0.0
H1572 H 0.61527 0.99724 0.88025 0.0
H1573 H 0.54415 0.96823 0.82399 0.0
H1574 H 0.55333 0.97428 0.80006 0.0
H1575 H 0.54436 0.99313 0.81558 0.0
C1576 C 0.26474 0.19518 0.3603 0.0
C1577 C 0.28057 0.20905 0.35743 0.0
C1578 C 0.26225 0.18639 0.37877 0.0
C1579 C 0.27573 0.19187 0.39475 0.0
C1580 C 0.29229 0.20516 0.39167 0.0
C1581 C 0.29457 0.21352 0.37299 0.0
C1582 C 0.24461 0.17201 0.38139 0.0
C1583 C 0.30689 0.21154 0.40837 0.0
C1584 C 0.25586 0.19181 0.44607 0.0
C1585 C 0.2646 0.17536 0.45463 0.0
C1586 C 0.25917 0.19711 0.42653 0.0
C1587 C 0.27132 0.18555 0.4151 0.0
C1588 C 0.2797 0.16857 0.4234 0.0
C1589 C 0.27636 0.16375 0.44313 0.0
C1590 C 0.25009 0.21543 0.41829 0.0
C1591 C 0.29247 0.15574 0.41153 0.0
H1592 H 0.25402 0.19156 0.34821 0.0
H1593 H 0.30671 0.22437 0.37085 0.0
H1594 H 0.24946 0.15873 0.38939 0.0
H1595 H 0.23347 0.17895 0.39041 0.0
H1596 H 0.23712 0.16735 0.36707 0.0
H1597 H 0.31994 0.22053 0.40317 0.0
H1598 H 0.29916 0.22042 0.41914 0.0
H1599 H 0.31246 0.19852 0.41631 0.0
H1600 H 0.2468 0.20093 0.4548 0.0
H1601 H 0.28309 0.15095 0.44958 0.0
H1602 H 0.24063 0.21173 0.40481 0.0
H1603 H 0.26215 0.22619 0.41401 0.0
H1604 H 0.24075 0.22264 0.42903 0.0
H1605 H 0.28432 0.15116 0.39753 0.0
H1606 H 0.29676 0.14234 0.4197 0.0
H1607 H 0.30632 0.16422 0.40761 0.0
C1608 C 0.46698 0.49101 0.88425 0.0
C1609 C 0.47913 0.50672 0.89244 0.0
C1610 C 0.45674 0.49281 0.86588 0.0
C1611 C 0.45898 0.51059 0.85522 0.0
C1612 C 0.47053 0.52675 0.86371 0.0
C1613 C 0.48028 0.52468 0.88227 0.0
C1614 C 0.44431 0.47533 0.85746 0.0
C1615 C 0.47344 0.54592 0.85275 0.0
C1616 C 0.45576 0.50674 0.79947 0.0
C1617 C 0.43698 0.51417 0.79469 0.0
C1618 C 0.46302 0.50555 0.81909 0.0
C1619 C 0.45107 0.51161 0.83442 0.0
C1620 C 0.43194 0.51883 0.82978 0.0
C1621 C 0.42519 0.52021 0.80992 0.0
C1622 C 0.48364 0.49806 0.82338 0.0
C1623 C 0.41865 0.52505 0.84577 0.0
H1624 H 0.46607 0.47699 0.89181 0.0
H1625 H 0.48919 0.53708 0.88864 0.0
H1626 H 0.4295 0.47994 0.85168 0.0
H1627 H 0.45196 0.46902 0.84494 0.0
H1628 H 0.44192 0.46358 0.86858 0.0
H1629 H 0.48162 0.55753 0.86197 0.0
H1630 H 0.48207 0.54347 0.83948 0.0
H1631 H 0.45876 0.55138 0.84763 0.0
H1632 H 0.46506 0.50219 0.78782 0.0
H1633 H 0.41062 0.52587 0.80634 0.0
H1634 H 0.48261 0.48486 0.83292 0.0
H1635 H 0.49325 0.50946 0.8315 0.0
H1636 H 0.4911 0.49411 0.80975 0.0
H1637 H 0.41602 0.5127 0.85614 0.0
H1638 H 0.40394 0.52975 0.83975 0.0
H1639 H 0.42615 0.53743 0.85441 0.0
C1640 C 0.7235 0.72644 0.13693 0.0
C1641 C 0.73953 0.73757 0.14621 0.0
C1642 C 0.72682 0.71249 0.12231 0.0
C1643 C 0.7466 0.70982 0.11667 0.0
C1644 C 0.76289 0.72038 0.12656 0.0
C1645 C 0.75916 0.73399 0.1413 0.0
C1646 C 0.70909 0.70128 0.11228 0.0
C1647 C 0.78421 0.71802 0.12094 0.0
C1648 C 0.76041 0.66686 0.08498 0.0
C1649 C 0.76099 0.67565 0.06634 0.0
C1650 C 0.75492 0.67754 0.10145 0.0
C1651 C 0.75025 0.69751 0.09921 0.0
C1652 C 0.75032 0.70627 0.08033 0.0
C1653 C 0.75558 0.69519 0.06412 0.0
C1654 C 0.75465 0.66763 0.12131 0.0
C1655 C 0.74563 0.72759 0.07734 0.0
H1656 H 0.70827 0.72916 0.14052 0.0
H1657 H 0.77167 0.74217 0.14873 0.0
H1658 H 0.70691 0.70661 0.09694 0.0
H1659 H 0.71184 0.68535 0.11147 0.0
H1660 H 0.69505 0.70312 0.12003 0.0
H1661 H 0.79526 0.7264 0.13088 0.0
H1662 H 0.78773 0.70225 0.12127 0.0
H1663 H 0.78606 0.72329 0.10565 0.0
H1664 H 0.76448 0.65171 0.08675 0.0
H1665 H 0.7561 0.70213 0.04979 0.0
H1666 H 0.74026 0.66987 0.12827 0.0
H1667 H 0.76678 0.67436 0.13122 0.0
H1668 H 0.75675 0.65156 0.12024 0.0
H1669 H 0.73079 0.73038 0.08311 0.0
H1670 H 0.74555 0.73193 0.06158 0.0
H1671 H 0.75694 0.73723 0.08571 0.0
C1672 C 0.97719 0.02252 0.10656 0.0
C1673 C 0.96658 0.01414 0.09008 0.0
C1674 C 0.96781 0.0251 0.12434 0.0
C1675 C 0.94742 0.01882 0.12575 0.0
C1676 C 0.93665 0.01021 0.10918 0.0
C1677 C 0.94633 0.00815 0.09143 0.0
C1678 C 0.97971 0.03465 0.14157 0.0
C1679 C 0.91501 0.00301 0.11026 0.0
C1680 C 0.93165 0.00982 0.17801 0.0
C1681 C 0.92233 0.02724 0.18213 0.0
C1682 C 0.93913 0.00651 0.1594 0.0
C1683 C 0.93755 0.02116 0.14472 0.0
C1684 C 0.92766 0.03857 0.14864 0.0
C1685 C 0.91995 0.0413 0.16727 0.0
C1686 C 0.94914 0.98755 0.15563 0.0
C1687 C 0.92595 0.05466 0.13346 0.0
H1688 H 0.99278 0.02738 0.10541 0.0
H1689 H 0.93818 0.0016 0.07868 0.0
H1690 H 0.9722 0.04782 0.1466 0.0
H1691 H 0.9804 0.02426 0.15413 0.0
H1692 H 0.99526 0.03923 0.13785 0.0
H1693 H 0.90883 0.99649 0.09611 0.0
H1694 H 0.91356 0.99174 0.12198 0.0
H1695 H 0.90576 0.01536 0.11426 0.0
H1696 H 0.93304 0.9987 0.18926 0.0
H1697 H 0.91273 0.05479 0.17046 0.0
H1698 H 0.96531 0.99075 0.15344 0.0
H1699 H 0.94257 0.9804 0.14194 0.0
H1700 H 0.94765 0.97699 0.168 0.0
H1701 H 0.94113 0.06083 0.13024 0.0
H1702 H 0.91695 0.06684 0.13847 0.0
H1703 H 0.91899 0.04859 0.11945 0.0
C1704 C 0.29582 0.80419 0.14624 0.0
C1705 C 0.28548 0.78621 0.15008 0.0
C1706 C 0.29166 0.81465 0.12884 0.0
C1707 C 0.27659 0.80708 0.11514 0.0
C1708 C 0.26617 0.78893 0.11889 0.0
C1709 C 0.27089 0.77864 0.13617 0.0
C1710 C 0.30329 0.83381 0.12514 0.0
C1711 C 0.24989 0.78041 0.1047 0.0
C1712 C 0.24934 0.84001 0.07916 0.0
C1713 C 0.25718 0.83461 0.06127 0.0
C1714 C 0.2561 0.83174 0.09699 0.0
C1715 C 0.27136 0.81809 0.09692 0.0
C1716 C 0.28018 0.81352 0.07905 0.0
C1717 C 0.27282 0.82168 0.06138 0.0
C1718 C 0.2461 0.83675 0.11571 0.0
C1719 C 0.29682 0.79939 0.07846 0.0
H1720 H 0.307 0.81025 0.15695 0.0
H1721 H 0.26317 0.76452 0.13871 0.0
H1722 H 0.31033 0.83321 0.1107 0.0
H1723 H 0.29298 0.84608 0.12445 0.0
H1724 H 0.31517 0.83722 0.1368 0.0
H1725 H 0.24292 0.76634 0.11002 0.0
H1726 H 0.238 0.79108 0.1024 0.0
H1727 H 0.25614 0.77771 0.09015 0.0
H1728 H 0.23722 0.84999 0.07913 0.0
H1729 H 0.27918 0.81774 0.04766 0.0
H1730 H 0.25748 0.8412 0.12749 0.0
H1731 H 0.23756 0.82351 0.12098 0.0
H1732 H 0.23564 0.8488 0.11354 0.0
H1733 H 0.30869 0.8033 0.08997 0.0
H1734 H 0.3037 0.79927 0.06388 0.0
H1735 H 0.29084 0.78425 0.08161 0.0
C1736 C 0.06119 0.47765 0.13621 0.0
C1737 C 0.04431 0.48907 0.1341 0.0
C1738 C 0.07486 0.48016 0.15241 0.0
C1739 C 0.072 0.49485 0.16664 0.0
C1740 C 0.05505 0.50644 0.16471 0.0
C1741 C 0.0413 0.50326 0.14861 0.0
C1742 C 0.09261 0.4673 0.15408 0.0
C1743 C 0.05168 0.52248 0.17943 0.0
C1744 C 0.10084 0.49116 0.21596 0.0
C1745 C 0.11813 0.50304 0.21271 0.0
C1746 C 0.08548 0.4886 0.20122 0.0
C1747 C 0.08727 0.49856 0.18304 0.0
C1748 C 0.10431 0.51124 0.18005 0.0
C1749 C 0.11965 0.51312 0.19482 0.0
C1750 C 0.06775 0.47461 0.20478 0.0
C1751 C 0.10656 0.5225 0.16106 0.0
H1752 H 0.06402 0.46694 0.12498 0.0
H1753 H 0.02818 0.51194 0.1474 0.0
H1754 H 0.10667 0.47645 0.15262 0.0
H1755 H 0.09345 0.46026 0.1688 0.0
H1756 H 0.09185 0.45557 0.14261 0.0
H1757 H 0.03763 0.53004 0.17596 0.0
H1758 H 0.05104 0.51624 0.19447 0.0
H1759 H 0.06444 0.5336 0.17965 0.0
H1760 H 0.09968 0.48326 0.22974 0.0
H1761 H 0.1329 0.52249 0.19235 0.0
H1762 H 0.06761 0.46201 0.19435 0.0
H1763 H 0.05355 0.48208 0.20198 0.0
H1764 H 0.06809 0.4688 0.22006 0.0
H1765 H 0.10806 0.51205 0.14872 0.0
H1766 H 0.11988 0.53299 0.16173 0.0
H1767 H 0.09301 0.53083 0.15763 0.0
C1768 C 0.39552 0.72415 0.31342 0.0
C1769 C 0.392 0.73857 0.29905 0.0
C1770 C 0.41173 0.72632 0.32722 0.0
C1771 C 0.42437 0.74366 0.32718 0.0
C1772 C 0.42082 0.75842 0.31299 0.0
C1773 C 0.4049 0.75556 0.2989 0.0
C1774 C 0.41531 0.71003 0.34186 0.0
C1775 C 0.43372 0.77732 0.3128 0.0
C1776 C 0.45351 0.75529 0.37543 0.0
C1777 C 0.47262 0.74944 0.37125 0.0
C1778 C 0.43782 0.75415 0.36097 0.0
C1779 C 0.44122 0.74633 0.34214 0.0
C1780 C 0.46053 0.74038 0.33788 0.0
C1781 C 0.47611 0.74232 0.35241 0.0
C1782 C 0.41759 0.7612 0.36586 0.0
C1783 C 0.46457 0.73141 0.31819 0.0
H1784 H 0.38548 0.71118 0.31411 0.0
H1785 H 0.40268 0.76666 0.28771 0.0
H1786 H 0.43089 0.70531 0.34116 0.0
H1787 H 0.4135 0.71548 0.35704 0.0
H1788 H 0.40483 0.69698 0.33916 0.0
H1789 H 0.4285 0.78767 0.30126 0.0
H1790 H 0.43369 0.78477 0.32736 0.0
H1791 H 0.44945 0.77405 0.3102 0.0
H1792 H 0.45089 0.76095 0.38997 0.0
H1793 H 0.49087 0.73764 0.34926 0.0
H1794 H 0.40634 0.74862 0.36544 0.0
H1795 H 0.41254 0.772 0.35471 0.0
H1796 H 0.41784 0.7682 0.38068 0.0
H1797 H 0.45491 0.71776 0.31575 0.0
H1798 H 0.48047 0.72771 0.31717 0.0
H1799 H 0.46075 0.74169 0.30611 0.0
C1800 C 0.98824 0.39057 0.9674 0.0
C1801 C 0.00373 0.39931 0.97963 0.0
C1802 C 0.99115 0.37343 0.95655 0.0
C1803 C 0.00989 0.36468 0.95819 0.0
C1804 C 0.02587 0.37396 0.9697 0.0
C1805 C 0.02264 0.39124 0.98016 0.0
C1806 C 0.97381 0.3641 0.94422 0.0
C1807 C 0.04605 0.36504 0.9719 0.0
C1808 C 0.00884 0.30912 0.95329 0.0
C1809 C 0.01599 0.30658 0.93441 0.0
C1810 C 0.00695 0.32794 0.96117 0.0
C1811 C 0.01207 0.34473 0.9498 0.0
C1812 C 0.01923 0.34234 0.9307 0.0
C1813 C 0.02127 0.32326 0.92327 0.0
C1814 C 0.99952 0.32985 0.98172 0.0
C1815 C 0.02455 0.35992 0.91808 0.0
H1816 H 0.97355 0.39657 0.96696 0.0
H1817 H 0.03483 0.39815 0.98918 0.0
H1818 H 0.97871 0.36005 0.92943 0.0
H1819 H 0.96825 0.35035 0.95136 0.0
H1820 H 0.96119 0.37403 0.94237 0.0
H1821 H 0.05742 0.37501 0.97984 0.0
H1822 H 0.04458 0.35105 0.98022 0.0
H1823 H 0.05159 0.36146 0.95725 0.0
H1824 H 0.00487 0.29632 0.96207 0.0
H1825 H 0.02669 0.32141 0.90862 0.0
H1826 H 0.98551 0.33791 0.98126 0.0
H1827 H 0.01076 0.33852 0.99117 0.0
H1828 H 0.99652 0.31531 0.98874 0.0
H1829 H 0.01128 0.36889 0.91564 0.0
H1830 H 0.02988 0.35557 0.90353 0.0
H1831 H 0.03642 0.36949 0.92575 0.0
C1832 C 0.6391 0.79111 0.28706 0.0
C1833 C 0.641 0.80899 0.2769 0.0
C1834 C 0.62568 0.78858 0.30219 0.0
C1835 C 0.61382 0.8043 0.30728 0.0
C1836 C 0.61534 0.82227 0.29682 0.0
C1837 C 0.62899 0.82442 0.28177 0.0
C1838 C 0.62457 0.76921 0.31306 0.0
C1839 C 0.60281 0.83929 0.30175 0.0
C1840 C 0.56932 0.78893 0.33737 0.0
C1841 C 0.57718 0.79244 0.35665 0.0
C1842 C 0.58073 0.79365 0.32104 0.0
C1843 C 0.60045 0.80201 0.32409 0.0
C1844 C 0.60806 0.80652 0.34345 0.0
C1845 C 0.59631 0.80172 0.3595 0.0
C1846 C 0.57203 0.78877 0.30059 0.0
C1847 C 0.62902 0.81547 0.34731 0.0
H1848 H 0.64857 0.77923 0.28357 0.0
H1849 H 0.63027 0.83821 0.27382 0.0
H1850 H 0.62915 0.77166 0.32883 0.0
H1851 H 0.60894 0.76288 0.31245 0.0
H1852 H 0.63436 0.75826 0.30688 0.0
H1853 H 0.60505 0.85191 0.29158 0.0
H1854 H 0.58669 0.83446 0.30108 0.0
H1855 H 0.60669 0.84442 0.31703 0.0
H1856 H 0.55449 0.78188 0.33501 0.0
H1857 H 0.60247 0.80461 0.37433 0.0
H1858 H 0.58001 0.77646 0.29435 0.0
H1859 H 0.57417 0.80159 0.29068 0.0
H1860 H 0.5558 0.78439 0.30057 0.0
H1861 H 0.64007 0.80475 0.34318 0.0
H1862 H 0.63206 0.81964 0.36303 0.0
H1863 H 0.63148 0.82876 0.3381 0.0
C1864 C 0.03429 0.11044 0.9441 0.0
C1865 C 0.01584 0.09966 0.94373 0.0
C1866 C 0.03579 0.12971 0.93687 0.0
C1867 C 0.01843 0.13837 0.92893 0.0
C1868 C 0.99982 0.1274 0.92802 0.0
C1869 C 0.99872 0.10817 0.93557 0.0
C1870 C 0.05588 0.14099 0.93828 0.0
C1871 C 0.98106 0.13611 0.91941 0.0
C1872 C 0.02071 0.19419 0.93038 0.0
C1873 C 0.02688 0.19886 0.91144 0.0
C1874 C 0.01722 0.17453 0.93605 0.0
C1875 C 0.01978 0.15922 0.92238 0.0
C1876 C 0.02519 0.16387 0.90298 0.0
C1877 C 0.02881 0.18366 0.89777 0.0
C1878 C 0.01162 0.17015 0.95694 0.0
C1879 C 0.02782 0.14793 0.88794 0.0
H1880 H 0.0475 0.10403 0.9507 0.0
H1881 H 0.98446 0.0998 0.93517 0.0
H1882 H 0.05997 0.14635 0.92352 0.0
H1883 H 0.055 0.15412 0.94789 0.0
H1884 H 0.06802 0.13191 0.94437 0.0
H1885 H 0.96806 0.12524 0.9187 0.0
H1886 H 0.97725 0.14885 0.9285 0.0
H1887 H 0.98359 0.14168 0.90434 0.0
H1888 H 0.01924 0.20587 0.94102 0.0
H1889 H 0.03342 0.18719 0.88305 0.0
H1890 H 0.02381 0.16235 0.96472 0.0
H1891 H 0.99789 0.16027 0.95695 0.0
H1892 H 0.00899 0.18373 0.96536 0.0
H1893 H 0.04094 0.13938 0.89247 0.0
H1894 H 0.03018 0.15402 0.87301 0.0
H1895 H 0.0145 0.13749 0.88711 0.0
C1896 C 0.38147 0.29254 0.2086 0.0
C1897 C 0.36979 0.27522 0.21195 0.0
C1898 C 0.39664 0.29287 0.19497 0.0
C1899 C 0.40007 0.27553 0.18433 0.0
C1900 C 0.38858 0.25792 0.18795 0.0
C1901 C 0.37363 0.25797 0.20175 0.0
C1902 C 0.40873 0.31186 0.19167 0.0
C1903 C 0.39165 0.23915 0.17679 0.0
C1904 C 0.42171 0.27816 0.13377 0.0
C1905 C 0.44115 0.27194 0.13768 0.0
C1906 C 0.40845 0.28014 0.14896 0.0
C1907 C 0.41481 0.27591 0.16858 0.0
C1908 C 0.43475 0.27063 0.1728 0.0
C1909 C 0.44769 0.26866 0.15728 0.0
C1910 C 0.38732 0.28584 0.14384 0.0
C1911 C 0.44213 0.26622 0.19358 0.0
H1912 H 0.3787 0.30584 0.21664 0.0
H1913 H 0.3645 0.24462 0.20412 0.0
H1914 H 0.42498 0.3094 0.19337 0.0
H1915 H 0.40574 0.31704 0.17639 0.0
H1916 H 0.40513 0.32368 0.20206 0.0
H1917 H 0.38204 0.22654 0.18191 0.0
H1918 H 0.38819 0.24135 0.16084 0.0
H1919 H 0.40754 0.23528 0.17847 0.0
H1920 H 0.41654 0.28085 0.1187 0.0
H1921 H 0.46272 0.26394 0.16046 0.0
H1922 H 0.38346 0.29843 0.15311 0.0
H1923 H 0.37662 0.27332 0.14693 0.0
H1924 H 0.38515 0.28996 0.12809 0.0
H1925 H 0.43857 0.27822 0.20373 0.0
H1926 H 0.45854 0.26434 0.19467 0.0
H1927 H 0.43436 0.25248 0.1987 0.0
C1928 C 0.54008 0.3933 0.04476 0.0
C1929 C 0.52375 0.40161 0.03472 0.0
C1930 C 0.53809 0.37461 0.05343 0.0
C1931 C 0.51945 0.36377 0.05171 0.0
C1932 C 0.50274 0.37233 0.04226 0.0
C1933 C 0.50504 0.3912 0.03408 0.0
C1934 C 0.55618 0.36611 0.06368 0.0
C1935 C 0.48262 0.36119 0.03998 0.0
C1936 C 0.51975 0.308 0.0505 0.0
C1937 C 0.51281 0.30288 0.06907 0.0
C1938 C 0.52213 0.32776 0.0448 0.0
C1939 C 0.51782 0.34284 0.05812 0.0
C1940 C 0.51138 0.33784 0.07712 0.0
C1941 C 0.50874 0.31789 0.08231 0.0
C1942 C 0.52874 0.33245 0.02429 0.0
C1943 C 0.50707 0.35354 0.09185 0.0
H1944 H 0.55465 0.40106 0.04522 0.0
H1945 H 0.4922 0.39764 0.02682 0.0
H1946 H 0.55227 0.35997 0.07821 0.0
H1947 H 0.56132 0.35384 0.05473 0.0
H1948 H 0.56881 0.37728 0.06594 0.0
H1949 H 0.47085 0.37035 0.03326 0.0
H1950 H 0.4839 0.34804 0.0305 0.0
H1951 H 0.47774 0.35588 0.0545 0.0
H1952 H 0.5228 0.29652 0.04012 0.0
H1953 H 0.50349 0.31404 0.09673 0.0
H1954 H 0.5426 0.34217 0.02508 0.0
H1955 H 0.51703 0.34054 0.01609 0.0
H1956 H 0.53164 0.31901 0.01577 0.0
H1957 H 0.52021 0.36411 0.09392 0.0
H1958 H 0.50338 0.34726 0.1064 0.0
H1959 H 0.4943 0.36202 0.0862 0.0
C1960 C 0.61973 0.23756 0.1928 0.0
C1961 C 0.62294 0.21856 0.19992 0.0
C1962 C 0.60459 0.24077 0.17835 0.0
C1963 C 0.59233 0.22461 0.17084 0.0
C1964 C 0.59544 0.20541 0.17801 0.0
C1965 C 0.61073 0.20261 0.19244 0.0
C1966 C 0.60183 0.26145 0.17098 0.0
C1967 C 0.58261 0.18782 0.17042 0.0
C1968 C 0.54219 0.2348 0.14519 0.0
C1969 C 0.54665 0.23363 0.12524 0.0
C1970 C 0.55689 0.23188 0.1602 0.0
C1971 C 0.57654 0.22774 0.15516 0.0
C1972 C 0.58117 0.22661 0.13509 0.0
C1973 C 0.56619 0.22954 0.1204 0.0
C1974 C 0.5514 0.23319 0.18146 0.0
C1975 C 0.60197 0.22228 0.12912 0.0
H1976 H 0.62928 0.24991 0.19835 0.0
H1977 H 0.61297 0.18794 0.19807 0.0
H1978 H 0.60415 0.26212 0.15492 0.0
H1979 H 0.58629 0.26565 0.17319 0.0
H1980 H 0.61239 0.27245 0.17858 0.0
H1981 H 0.58678 0.17391 0.17772 0.0
H1982 H 0.56661 0.19008 0.17284 0.0
H1983 H 0.58409 0.18618 0.15431 0.0
H1984 H 0.52716 0.23793 0.14913 0.0
H1985 H 0.56987 0.22862 0.10506 0.0
H1986 H 0.56097 0.24486 0.18921 0.0
H1987 H 0.5542 0.21909 0.18904 0.0
H1988 H 0.53545 0.23648 0.18292 0.0
H1989 H 0.61301 0.2336 0.13541 0.0
H1990 H 0.60315 0.22198 0.11286 0.0
H1991 H 0.6062 0.20783 0.13512 0.0
C1992 C 0.4702 0.12092 0.01068 0.0
C1993 C 0.47728 0.1035 0.01867 0.0
C1994 C 0.47179 0.13853 0.02158 0.0
C1995 C 0.48109 0.13875 0.04074 0.0
C1996 C 0.48862 0.12123 0.04873 0.0
C1997 C 0.48639 0.10371 0.03767 0.0
C1998 C 0.4632 0.1568 0.01271 0.0
C1999 C 0.49901 0.12101 0.06894 0.0
C2000 C 0.4989 0.18941 0.06016 0.0
C2001 C 0.48348 0.19378 0.07246 0.0
C2002 C 0.49874 0.1712 0.05033 0.0
C2003 C 0.48251 0.15728 0.05251 0.0
C2004 C 0.46707 0.16151 0.06518 0.0
C2005 C 0.46788 0.17963 0.0752 0.0
C2006 C 0.51574 0.16701 0.03734 0.0
C2007 C 0.44931 0.14722 0.0676 0.0
H2008 H 0.463 0.12065 0.99604 0.0
H2009 H 0.49197 0.09021 0.04374 0.0
H2010 H 0.45169 0.16228 0.02229 0.0
H2011 H 0.47514 0.16867 0.0118 0.0
H2012 H 0.45625 0.15408 0.99771 0.0
H2013 H 0.50477 0.10637 0.07265 0.0
H2014 H 0.51173 0.13218 0.06976 0.0
H2015 H 0.4885 0.125 0.08026 0.0
H2016 H 0.51113 0.20017 0.05822 0.0
H2017 H 0.45587 0.18301 0.08463 0.0
H2018 H 0.51009 0.16586 0.02175 0.0
H2019 H 0.52199 0.15268 0.04137 0.0
H2020 H 0.528 0.17868 0.03848 0.0
H2021 H 0.44097 0.14494 0.0532 0.0
H2022 H 0.43886 0.1525 0.07845 0.0
H2023 H 0.45443 0.13268 0.07246 0.0
C2024 C 0.2985 0.41316 0.70367 0.0
C2025 C 0.2913 0.40315 0.72014 0.0
C2026 C 0.31381 0.42802 0.70575 0.0
C2027 C 0.32216 0.43295 0.72477 0.0
C2028 C 0.31464 0.42322 0.7415 0.0
C2029 C 0.29927 0.40845 0.73899 0.0
C2030 C 0.32132 0.43817 0.68756 0.0
C2031 C 0.32323 0.42802 0.76201 0.0
C2032 C 0.3753 0.45553 0.72767 0.0
C2033 C 0.37213 0.47562 0.73014 0.0
C2034 C 0.35917 0.44149 0.72613 0.0
C2035 C 0.33935 0.44767 0.72702 0.0
C2036 C 0.33601 0.46787 0.72967 0.0
C2037 C 0.35243 0.48161 0.73124 0.0
C2038 C 0.36333 0.42005 0.72337 0.0
C2039 C 0.31507 0.47499 0.73065 0.0
H2040 H 0.29218 0.40931 0.6891 0.0
H2041 H 0.29389 0.40062 0.75175 0.0
H2042 H 0.32049 0.45436 0.68905 0.0
H2043 H 0.33728 0.43513 0.68588 0.0
H2044 H 0.31262 0.43325 0.67395 0.0
H2045 H 0.31505 0.41982 0.77354 0.0
H2046 H 0.33919 0.42432 0.76321 0.0
H2047 H 0.32272 0.44404 0.76498 0.0
H2048 H 0.39042 0.4507 0.72686 0.0
H2049 H 0.34979 0.49708 0.73314 0.0
H2050 H 0.35626 0.41454 0.70918 0.0
H2051 H 0.35665 0.4111 0.73527 0.0
H2052 H 0.37962 0.41762 0.72343 0.0
H2053 H 0.30639 0.47132 0.71669 0.0
H2054 H 0.31503 0.49115 0.73315 0.0
H2055 H 0.30717 0.46739 0.7427 0.0
C2056 C 0.28715 0.63353 0.78159 0.0
C2057 C 0.27901 0.64214 0.76445 0.0
C2058 C 0.30301 0.62087 0.78075 0.0
C2059 C 0.31089 0.61666 0.76232 0.0
C2060 C 0.30233 0.6248 0.7449 0.0
C2061 C 0.28652 0.63746 0.74618 0.0
C2062 C 0.31168 0.61243 0.79964 0.0
C2063 C 0.3103 0.62062 0.72496 0.0
C2064 C 0.36489 0.60259 0.76013 0.0
C2065 C 0.36265 0.58218 0.75697 0.0
C2066 C 0.34818 0.61389 0.76235 0.0
C2067 C 0.32873 0.60458 0.76131 0.0
C2068 C 0.32638 0.58391 0.75869 0.0
C2069 C 0.34338 0.57293 0.7566 0.0
C2070 C 0.35132 0.63589 0.76533 0.0
C2071 C 0.30588 0.57347 0.7575 0.0
H2072 H 0.2812 0.6368 0.79573 0.0
H2073 H 0.28044 0.64419 0.7329 0.0
H2074 H 0.31174 0.59615 0.79852 0.0
H2075 H 0.32747 0.61803 0.80214 0.0
H2076 H 0.30319 0.61633 0.81264 0.0
H2077 H 0.30126 0.62716 0.71275 0.0
H2078 H 0.32598 0.62669 0.72442 0.0
H2079 H 0.31046 0.60449 0.72248 0.0
H2080 H 0.37972 0.60984 0.76053 0.0
H2081 H 0.34151 0.55717 0.75415 0.0
H2082 H 0.34405 0.64048 0.77883 0.0
H2083 H 0.3442 0.64369 0.75273 0.0
H2084 H 0.36744 0.64074 0.76665 0.0
H2085 H 0.2975 0.57701 0.77065 0.0
H2086 H 0.30666 0.55721 0.75642 0.0
H2087 H 0.29717 0.57867 0.7444 0.0
C2088 C 0.86482 0.44663 0.49572 0.0
C2089 C 0.87031 0.45042 0.47636 0.0
C2090 C 0.84877 0.4333 0.49959 0.0
C2091 C 0.83799 0.42348 0.48372 0.0
C2092 C 0.84307 0.42765 0.46411 0.0
C2093 C 0.85919 0.44107 0.46066 0.0
C2094 C 0.84384 0.4292 0.52071 0.0
C2095 C 0.83187 0.41752 0.4468 0.0
C2096 C 0.81339 0.37342 0.49461 0.0
C2097 C 0.79329 0.37783 0.49644 0.0
C2098 C 0.82798 0.38812 0.49029 0.0
C2099 C 0.8224 0.40778 0.48773 0.0
C2100 C 0.80215 0.41238 0.48938 0.0
C2101 C 0.78781 0.39734 0.49371 0.0
C2102 C 0.84943 0.38262 0.48864 0.0
C2103 C 0.79568 0.43319 0.48676 0.0
H2104 H 0.87348 0.45361 0.50794 0.0
H2105 H 0.86317 0.44416 0.44565 0.0
H2106 H 0.82768 0.43097 0.52274 0.0
H2107 H 0.84696 0.41373 0.52441 0.0
H2108 H 0.85269 0.4391 0.53127 0.0
H2109 H 0.83679 0.42336 0.43245 0.0
H2110 H 0.83425 0.40149 0.44727 0.0
H2111 H 0.81554 0.41929 0.44761 0.0
H2112 H 0.81782 0.35843 0.49663 0.0
H2113 H 0.77234 0.40093 0.49508 0.0
H2114 H 0.85921 0.3908 0.49985 0.0
H2115 H 0.85481 0.38685 0.47396 0.0
H2116 H 0.85124 0.36659 0.49074 0.0
H2117 H 0.80362 0.44298 0.49801 0.0
H2118 H 0.77928 0.43426 0.48806 0.0
H2119 H 0.79981 0.43883 0.4721 0.0
C2120 C 0.70639 0.84991 0.75084 0.0
C2121 C 0.71895 0.84627 0.76737 0.0
C2122 C 0.69631 0.86749 0.74924 0.0
C2123 C 0.69923 0.88188 0.76436 0.0
C2124 C 0.71124 0.87788 0.78146 0.0
C2125 C 0.72085 0.86005 0.78281 0.0
C2126 C 0.68332 0.87105 0.73096 0.0
C2127 C 0.715 0.89294 0.79777 0.0
C2128 C 0.69783 0.93558 0.74999 0.0
C2129 C 0.67977 0.94103 0.75761 0.0
C2130 C 0.7041 0.91632 0.75185 0.0
C2131 C 0.69187 0.90196 0.76129 0.0
C2132 C 0.6733 0.90712 0.76846 0.0
C2133 C 0.66753 0.92667 0.7667 0.0
C2134 C 0.72415 0.91151 0.74422 0.0
C2135 C 0.65972 0.89208 0.77827 0.0
H2136 H 0.70477 0.83915 0.73898 0.0
H2137 H 0.73069 0.85733 0.79554 0.0
H2138 H 0.66879 0.87672 0.73497 0.0
H2139 H 0.69084 0.88239 0.72176 0.0
H2140 H 0.68036 0.85745 0.72196 0.0
H2141 H 0.72322 0.8869 0.8108 0.0
H2142 H 0.72396 0.9058 0.79224 0.0
H2143 H 0.70065 0.8984 0.80253 0.0
H2144 H 0.70746 0.94655 0.74302 0.0
H2145 H 0.6535 0.93073 0.77253 0.0
H2146 H 0.72223 0.89921 0.73343 0.0
H2147 H 0.73412 0.90661 0.75657 0.0
H2148 H 0.73173 0.92432 0.737 0.0
H2149 H 0.65691 0.8789 0.76866 0.0
H2150 H 0.64511 0.89804 0.78164 0.0
H2151 H 0.66709 0.88712 0.79222 0.0
C2152 C 0.64243 0.55692 0.9813 0.0
C2153 C 0.63136 0.55004 0.99717 0.0
C2154 C 0.65925 0.56996 0.98432 0.0
C2155 C 0.66522 0.57625 0.00369 0.0
C2156 C 0.65453 0.56885 0.01984 0.0
C2157 C 0.63771 0.55585 0.01639 0.0
C2158 C 0.67028 0.57747 0.96672 0.0
C2159 C 0.66046 0.5752 0.04071 0.0
C2160 C 0.7173 0.60093 0.01222 0.0
C2161 C 0.71313 0.62097 0.01172 0.0
C2162 C 0.70185 0.58617 0.00986 0.0
C2163 C 0.68178 0.59157 0.00688 0.0
C2164 C 0.67747 0.61173 0.00651 0.0
C2165 C 0.69315 0.62615 0.00895 0.0
C2166 C 0.707 0.56481 0.0104 0.0
C2167 C 0.65626 0.61809 0.00331 0.0
H2168 H 0.63783 0.55221 0.96645 0.0
H2169 H 0.62916 0.55073 0.02871 0.0
H2170 H 0.66887 0.59361 0.96533 0.0
H2171 H 0.68648 0.57488 0.96874 0.0
H2172 H 0.66443 0.5703 0.95275 0.0
H2173 H 0.65158 0.56696 0.05172 0.0
H2174 H 0.67658 0.57299 0.04397 0.0
H2175 H 0.65821 0.59115 0.04247 0.0
H2176 H 0.73265 0.59674 0.01439 0.0
H2177 H 0.6897 0.64155 0.00854 0.0
H2178 H 0.70238 0.55759 0.99613 0.0
H2179 H 0.69864 0.55692 0.02198 0.0
H2180 H 0.72328 0.56305 0.01334 0.0
H2181 H 0.64991 0.61261 0.98882 0.0
H2182 H 0.65539 0.63436 0.00374 0.0
H2183 H 0.64669 0.61159 0.01477 0.0
C2184 C 0.244 0.626 0.25843 0.0
C2185 C 0.23794 0.64198 0.24698 0.0
C2186 C 0.231 0.6095 0.26119 0.0
C2187 C 0.21157 0.60874 0.25197 0.0
C2188 C 0.20533 0.62472 0.24032 0.0
C2189 C 0.21852 0.64123 0.23812 0.0
C2190 C 0.23814 0.5928 0.27389 0.0
C2191 C 0.1848 0.6243 0.23006 0.0
C2192 C 0.1881 0.55706 0.24545 0.0
C2193 C 0.17562 0.55565 0.26143 0.0
C2194 C 0.19916 0.57462 0.24162 0.0
C2195 C 0.19799 0.591 0.25433 0.0
C2196 C 0.18487 0.58988 0.2701 0.0
C2197 C 0.17367 0.57225 0.27333 0.0
C2198 C 0.21263 0.5754 0.22437 0.0
C2199 C 0.18343 0.60695 0.28414 0.0
H2200 H 0.25907 0.62622 0.26503 0.0
H2201 H 0.21354 0.65361 0.22952 0.0
H2202 H 0.2276 0.58972 0.28578 0.0
H2203 H 0.23843 0.57919 0.26489 0.0
H2204 H 0.25336 0.59607 0.28073 0.0
H2205 H 0.18232 0.63785 0.22136 0.0
H2206 H 0.18283 0.61138 0.22002 0.0
H2207 H 0.17308 0.62266 0.24105 0.0
H2208 H 0.18942 0.54443 0.23601 0.0
H2209 H 0.16409 0.57118 0.28577 0.0
H2210 H 0.22853 0.57665 0.22983 0.0
H2211 H 0.20984 0.5886 0.21526 0.0
H2212 H 0.21039 0.56208 0.21484 0.0
H2213 H 0.19797 0.60963 0.2925 0.0
H2214 H 0.17152 0.6042 0.29481 0.0
H2215 H 0.18035 0.6206 0.27588 0.0
C2216 C 0.89713 0.55445 0.03255 0.0
C2217 C 0.89702 0.53462 0.0268 0.0
C2218 C 0.87975 0.56508 0.03059 0.0
C2219 C 0.8618 0.5557 0.02254 0.0
C2220 C 0.86168 0.53585 0.01617 0.0
C2221 C 0.87929 0.52552 0.01843 0.0
C2222 C 0.88051 0.58625 0.03751 0.0
C2223 C 0.84286 0.5254 0.00742 0.0
C2224 C 0.81466 0.57884 0.03817 0.0
C2225 C 0.81069 0.59157 0.0224 0.0
C2226 C 0.83073 0.5664 0.038 0.0
C2227 C 0.84306 0.56658 0.0216 0.0
C2228 C 0.83839 0.57849 0.00513 0.0
C2229 C 0.82229 0.59089 0.00574 0.0
C2230 C 0.8352 0.55388 0.05585 0.0
C2231 C 0.85102 0.57889 0.98727 0.0
H2232 H 0.91085 0.56169 0.03868 0.0
H2233 H 0.87901 0.51014 0.01412 0.0
H2234 H 0.87559 0.59595 0.0253 0.0
H2235 H 0.87004 0.58784 0.04956 0.0
H2236 H 0.89576 0.59151 0.043 0.0
H2237 H 0.84561 0.51042 0.00192 0.0
H2238 H 0.83141 0.52406 0.01871 0.0
H2239 H 0.83648 0.53408 0.99506 0.0
H2240 H 0.80574 0.57918 0.05107 0.0
H2241 H 0.81924 0.60056 0.99341 0.0
H2242 H 0.84954 0.55935 0.06331 0.0
H2243 H 0.837 0.53839 0.05138 0.0
H2244 H 0.82323 0.55413 0.06664 0.0
H2245 H 0.86599 0.58597 0.99121 0.0
H2246 H 0.84411 0.58716 0.97485 0.0
H2247 H 0.85337 0.56369 0.98222 0.0
C2248 C 0.1272 0.96882 0.99033 0.0
C2249 C 0.11008 0.95968 0.99824 0.0
C2250 C 0.14537 0.95936 0.99047 0.0
C2251 C 0.14647 0.94039 0.99885 0.0
C2252 C 0.12919 0.93099 0.00662 0.0
C2253 C 0.1112 0.9407 0.00614 0.0
C2254 C 0.16346 0.96978 0.98195 0.0
C2255 C 0.12976 0.91075 0.01571 0.0
C2256 C 0.18727 0.9058 0.98787 0.0
C2257 C 0.19957 0.90752 0.00516 0.0
C2258 C 0.17045 0.91717 0.98513 0.0
C2259 C 0.16576 0.93046 0.00011 0.0
C2260 C 0.17871 0.93303 0.0171 0.0
C2261 C 0.19551 0.92159 0.01938 0.0
C2262 C 0.15715 0.91424 0.96667 0.0
C2263 C 0.17421 0.94704 0.03341 0.0
H2264 H 0.12654 0.98358 0.98442 0.0
H2265 H 0.09796 0.9334 0.01196 0.0
H2266 H 0.17528 0.97268 0.99376 0.0
H2267 H 0.16982 0.96029 0.97077 0.0
H2268 H 0.15984 0.98402 0.97499 0.0
H2269 H 0.11495 0.90539 0.0209 0.0
H2270 H 0.13468 0.90003 0.00482 0.0
H2271 H 0.14081 0.91102 0.02841 0.0
H2272 H 0.19038 0.89508 0.97673 0.0
H2273 H 0.20496 0.92309 0.03275 0.0
H2274 H 0.1539 0.92866 0.95996 0.0
H2275 H 0.14262 0.90695 0.97047 0.0
H2276 H 0.16401 0.90502 0.95555 0.0
H2277 H 0.17139 0.96183 0.02734 0.0
H2278 H 0.18662 0.94856 0.04485 0.0
H2279 H 0.16041 0.94162 0.04056 0.0
loop_
_geom_bond_atom_site_label_1
_geom_bond_atom_site_label_2
_geom_bond_distance
_geom_bond_site_symmetry_2
_ccdc_geom_bond_type
C0 C1 1.384 . S
C0 H13 0.947 . S
C0 C35 1.382 . S
C1 C0 1.384 . S
C1 C2 1.378 1_655 S
C2 C1 1.378 1_455 S
C2 C3 1.378 . S
C2 H14 0.952 . S
C3 C2 1.378 . S
C3 H15 0.950 . S
C3 C34 1.383 . S
H4 C23 0.947 . S
H5 C24 0.946 . S
H6 C26 0.953 1_556 S
H7 C27 0.945 . S
H8 C29 0.952 . S
H9 C30 0.949 . S
H10 C32 0.964 . S
H11 C33 0.948 . S
H12 C35 0.951 . S
H13 C0 0.947 . S
H14 C2 0.952 . S
H15 C3 0.950 . S
N16 C19 1.382 . S
N16 C21 1.363 . S
N17 C19 1.371 . S
N17 C20 1.372 . S
N18 C20 1.361 . S
N18 C21 1.377 . S
C19 N16 1.382 . S
C19 N17 1.371 . S
C19 C22 1.480 . S
C20 N17 1.372 . S
C20 N18 1.361 . S
C20 C28 1.457 . S
C21 N16 1.363 . S
C21 N18 1.377 . S
C21 C34 1.479 . S
C22 C19 1.480 . S
C22 C23 1.383 1_545 S
C22 C27 1.385 . S
C23 H4 0.947 . S
C23 C22 1.383 1_565 S
C23 C24 1.388 . S
C24 H5 0.946 . S
C24 C23 1.388 . S
C24 C25 1.384 . S
C25 C24 1.384 . S
C25 C26 1.377 1_565 S
C26 H6 0.953 1_554 S
C26 C25 1.377 1_545 S
C26 C27 1.369 . S
C27 H7 0.945 . S
C27 C22 1.385 . S
C27 C26 1.369 . S
C28 C20 1.457 . S
C28 C29 1.372 1_554 S
C28 C33 1.364 . S
C29 H8 0.952 . S
C29 C28 1.372 1_556 S
C29 C30 1.389 . S
C30 H9 0.949 . S
C30 C29 1.389 . S
C30 C31 1.387 . S
C31 C30 1.387 . S
C31 C32 1.372 . S
C32 H10 0.964 . S
C32 C31 1.372 . S
C32 C33 1.379 1_556 S
C33 H11 0.948 . S
C33 C28 1.364 . S
C33 C32 1.379 1_554 S
C34 C3 1.383 . S
C34 C21 1.479 . S
C34 C35 1.398 1_455 S
C35 C0 1.382 . S
C35 H12 0.951 . S
C35 C34 1.398 1_655 S
C36 C37 1.384 . S
C36 H49 0.947 . S
C36 C71 1.382 . S
C37 C36 1.384 . S
C37 C38 1.378 . S
C38 C37 1.378 . S
C38 C39 1.378 . S
C38 H50 0.952 . S
C39 C38 1.378 . S
C39 H51 0.950 . S
C39 C70 1.383 . S
H40 C59 0.947 . S
H41 C60 0.946 . S
H42 C62 0.953 . S
H43 C63 0.945 . S
H44 C65 0.952 . S
H45 C66 0.949 . S
H46 C68 0.950 . S
H47 C69 0.948 . S
H48 C71 0.951 . S
H49 C36 0.947 . S
H50 C38 0.952 . S
H51 C39 0.950 . S
N52 C55 1.382 . S
N52 C57 1.363 . S
N53 C55 1.371 . S
N53 C56 1.372 . S
N54 C56 1.361 . S
N54 C57 1.377 . S
C55 N52 1.382 . S
C55 N53 1.371 . S
C55 C58 1.480 . S
C56 N53 1.372 . S
C56 N54 1.361 . S
C56 C64 1.457 . S
C57 N52 1.363 . S
C57 N54 1.377 . S
C57 C70 1.479 . S
C58 C55 1.480 . S
C58 C59 1.383 . S
C58 C63 1.385 . S
C59 H40 0.947 . S
C59 C58 1.383 . S
C59 C60 1.388 . S
C60 H41 0.946 . S
C60 C59 1.388 . S
C60 C61 1.384 . S
C61 C60 1.384 . S
C61 C62 1.377 . S
C62 H42 0.953 . S
C62 C61 1.377 . S
C62 C63 1.369 . S
C63 H43 0.945 . S
C63 C58 1.385 . S
C63 C62 1.369 . S
C64 C56 1.457 . S
C64 C65 1.372 . S
C64 C69 1.364 . S
C65 H44 0.952 . S
C65 C64 1.372 . S
C65 C66 1.389 . S
C66 H45 0.949 . S
C66 C65 1.389 . S
C66 C67 1.387 . S
C67 C66 1.387 . S
C67 C68 1.372 . S
C68 H46 0.950 . S
C68 C67 1.372 . S
C68 C69 1.379 . S
C69 H47 0.948 . S
C69 C64 1.364 . S
C69 C68 1.379 . S
C70 C39 1.383 . S
C70 C57 1.479 . S
C70 C71 1.398 . S
C71 C36 1.382 . S
C71 H48 0.951 . S
C71 C70 1.398 . S
C72 C73 1.384 1_454 S
C72 H85 0.947 . S
C72 C107 1.375 1_455 S
C73 C72 1.384 1_656 S
C73 C74 1.378 . S
C74 C73 1.378 . S
C74 C75 1.354 1_556 S
C74 H86 0.952 . S
C75 C74 1.354 1_554 S
C75 H87 0.940 1_554 S
C75 C106 1.418 . S
H76 C95 0.947 . S
H77 C96 0.946 . S
H78 C98 0.953 . S
H79 C99 0.945 . S
H80 C101 0.952 1_655 S
H81 C102 0.949 . S
H82 C104 0.950 . S
H83 C105 0.948 . S
H84 C107 0.936 1_455 S
H85 C72 0.947 . S
H86 C74 0.952 . S
H87 C75 0.940 1_556 S
N88 C91 1.382 . S
N88 C93 1.363 . S
N89 C91 1.371 . S
N89 C92 1.372 . S
N90 C92 1.361 . S
N90 C93 1.377 . S
C91 N88 1.382 . S
C91 N89 1.371 . S
C91 C94 1.480 . S
C92 N89 1.372 . S
C92 N90 1.361 . S
C92 C100 1.457 1_655 S
C93 N88 1.363 . S
C93 N90 1.377 . S
C93 C106 1.479 . S
C94 C91 1.480 . S
C94 C95 1.383 . S
C94 C99 1.385 . S
C95 H76 0.947 . S
C95 C94 1.383 . S
C95 C96 1.388 . S
C96 H77 0.946 . S
C96 C95 1.388 . S
C96 C97 1.384 . S
C97 C96 1.384 . S
C97 C98 1.377 . S
C98 H78 0.953 . S
C98 C97 1.377 . S
C98 C99 1.369 . S
C99 H79 0.945 . S
C99 C94 1.385 . S
C99 C98 1.369 . S
C100 C92 1.457 1_455 S
C100 C101 1.372 . S
C100 C105 1.364 . S
C101 H80 0.952 1_455 S
C101 C100 1.372 . S
C101 C102 1.389 . S
C102 H81 0.949 . S
C102 C101 1.389 . S
C102 C103 1.387 . S
C103 C102 1.387 . S
C103 C104 1.372 . S
C104 H82 0.950 . S
C104 C103 1.372 . S
C104 C105 1.379 . S
C105 H83 0.948 . S
C105 C100 1.364 . S
C105 C104 1.379 . S
C106 C75 1.418 . S
C106 C93 1.479 . S
C106 C107 1.421 . S
C107 C72 1.375 1_655 S
C107 H84 0.936 1_655 S
C107 C106 1.421 . S
C108 C109 1.384 . S
C108 H121 0.947 . S
C108 C143 1.382 . S
C109 C108 1.384 . S
C109 C110 1.378 . S
C110 C109 1.378 . S
C110 C111 1.378 . S
C110 H122 0.952 . S
C111 C110 1.378 . S
C111 H123 0.950 . S
C111 C142 1.383 . S
H112 C131 0.947 . S
H113 C132 0.946 . S
H114 C134 0.953 . S
H115 C135 0.945 . S
H116 C137 0.952 . S
H117 C138 0.949 . S
H118 C140 0.950 . S
H119 C141 0.948 . S
H120 C143 0.951 . S
H121 C108 0.947 . S
H122 C110 0.952 . S
H123 C111 0.950 . S
N124 C127 1.382 . S
N124 C129 1.363 . S
N125 C127 1.371 . S
N125 C128 1.372 . S
N126 C128 1.361 . S
N126 C129 1.377 . S
C127 N124 1.382 . S
C127 N125 1.371 . S
C127 C130 1.480 . S
C128 N125 1.372 . S
C128 N126 1.361 . S
C128 C136 1.457 . S
C129 N124 1.363 . S
C129 N126 1.377 . S
C129 C142 1.479 . S
C130 C127 1.480 . S
C130 C131 1.383 . S
C130 C135 1.385 . S
C131 H112 0.947 . S
C131 C130 1.383 . S
C131 C132 1.388 . S
C132 H113 0.946 . S
C132 C131 1.388 . S
C132 C133 1.384 . S
C133 C132 1.384 . S
C133 C134 1.377 . S
C134 H114 0.953 . S
C134 C133 1.377 . S
C134 C135 1.369 . S
C135 H115 0.945 . S
C135 C130 1.385 . S
C135 C134 1.369 . S
C136 C128 1.457 . S
C136 C137 1.372 . S
C136 C141 1.364 . S
C137 H116 0.952 . S
C137 C136 1.372 . S
C137 C138 1.389 . S
C138 H117 0.949 . S
C138 C137 1.389 . S
C138 C139 1.387 . S
C139 C138 1.387 . S
C139 C140 1.372 . S
C140 H118 0.950 . S
C140 C139 1.372 . S
C140 C141 1.379 . S
C141 H119 0.948 . S
C141 C136 1.364 . S
C141 C140 1.379 . S
C142 C111 1.383 . S
C142 C129 1.479 . S
C142 C143 1.398 . S
C143 C108 1.382 . S
C143 H120 0.951 . S
C143 C142 1.398 . S
C144 C145 1.384 . S
C144 H157 0.947 . S
C144 C179 1.382 . S
C145 C144 1.384 . S
C145 C146 1.378 . S
C146 C145 1.378 . S
C146 C147 1.378 . S
C146 H158 0.952 . S
C147 C146 1.378 . S
C147 H159 0.950 . S
C147 C178 1.383 . S
H148 C167 0.947 . S
H149 C168 0.946 . S
H150 C170 0.953 1_545 S
H151 C171 0.938 1_545 S
H152 C173 0.952 . S
H153 C174 0.949 . S
H154 C176 0.960 . S
H155 C177 0.948 . S
H156 C179 0.951 . S
H157 C144 0.947 . S
H158 C146 0.952 . S
H159 C147 0.950 . S
N160 C163 1.382 . S
N160 C165 1.363 . S
N161 C163 1.371 . S
N161 C164 1.372 . S
N162 C164 1.361 . S
N162 C165 1.377 . S
C163 N160 1.382 . S
C163 N161 1.371 . S
C163 C166 1.480 . S
C164 N161 1.372 . S
C164 N162 1.361 . S
C164 C172 1.457 . S
C165 N160 1.363 . S
C165 N162 1.377 . S
C165 C178 1.479 . S
C166 C163 1.480 . S
C166 C167 1.383 . S
C166 C171 1.385 . S
C167 H148 0.947 . S
C167 C166 1.383 . S
C167 C168 1.388 1_455 S
C168 H149 0.946 . S
C168 C167 1.388 1_655 S
C168 C169 1.384 1_655 S
C169 C168 1.384 1_455 S
C169 C170 1.377 . S
C170 H150 0.953 1_565 S
C170 C169 1.377 . S
C170 C171 1.369 . S
C171 H151 0.938 1_565 S
C171 C166 1.385 . S
C171 C170 1.369 . S
C172 C164 1.457 . S
C172 C173 1.372 1_565 S
C172 C177 1.364 . S
C173 H152 0.952 . S
C173 C172 1.372 1_545 S
C173 C174 1.389 . S
C174 H153 0.949 . S
C174 C173 1.389 . S
C174 C175 1.387 . S
C175 C174 1.387 . S
C175 C176 1.372 . S
C176 H154 0.960 . S
C176 C175 1.372 . S
C176 C177 1.379 1_545 S
C177 H155 0.948 . S
C177 C172 1.364 . S
C177 C176 1.379 1_565 S
C178 C147 1.383 . S
C178 C165 1.479 . S
C178 C179 1.398 . S
C179 C144 1.382 . S
C179 H156 0.951 . S
C179 C178 1.398 . S
C180 C181 1.384 . S
C180 H193 0.947 . S
C180 C215 1.382 . S
C181 C180 1.384 . S
C181 C182 1.378 . S
C182 C181 1.378 . S
C182 C183 1.378 . S
C182 H194 0.952 . S
C183 C182 1.378 . S
C183 H195 0.950 . S
C183 C214 1.383 . S
H184 C203 0.947 . S
H185 C204 0.946 . S
H186 C206 0.953 . S
H187 C207 0.945 . S
H188 C209 0.952 . S
H189 C210 0.949 . S
H190 C212 0.950 . S
H191 C213 0.948 . S
H192 C215 0.951 . S
H193 C180 0.947 . S
H194 C182 0.952 . S
H195 C183 0.950 . S
N196 C199 1.382 . S
N196 C201 1.363 . S
N197 C199 1.371 . S
N197 C200 1.372 . S
N198 C200 1.361 . S
N198 C201 1.377 . S
C199 N196 1.382 . S
C199 N197 1.371 . S
C199 C202 1.480 . S
C200 N197 1.372 . S
C200 N198 1.361 . S
C200 C208 1.457 . S
C201 N196 1.363 . S
C201 N198 1.377 . S
C201 C214 1.479 . S
C202 C199 1.480 . S
C202 C203 1.383 . S
C202 C207 1.385 . S
C203 H184 0.947 . S
C203 C202 1.383 . S
C203 C204 1.388 . S
C204 H185 0.946 . S
C204 C203 1.388 . S
C204 C205 1.384 . S
C205 C204 1.384 . S
C205 C206 1.377 . S
C206 H186 0.953 . S
C206 C205 1.377 . S
C206 C207 1.369 . S
C207 H187 0.945 . S
C207 C202 1.385 . S
C207 C206 1.369 . S
C208 C200 1.457 . S
C208 C209 1.372 . S
C208 C213 1.364 . S
C209 H188 0.952 . S
C209 C208 1.372 . S
C209 C210 1.389 . S
C210 H189 0.949 . S
C210 C209 1.389 . S
C210 C211 1.387 . S
C211 C210 1.387 . S
C211 C212 1.372 . S
C212 H190 0.950 . S
C212 C211 1.372 . S
C212 C213 1.379 . S
C213 H191 0.948 . S
C213 C208 1.364 . S
C213 C212 1.379 . S
C214 C183 1.383 . S
C214 C201 1.479 . S
C214 C215 1.398 . S
C215 C180 1.382 . S
C215 H192 0.951 . S
C215 C214 1.398 . S
C216 C217 1.384 . S
C216 H229 0.947 1_655 S
C216 C251 1.382 . S
C217 C216 1.384 . S
C217 C218 1.378 . S
C218 C217 1.378 . S
C218 C219 1.378 . S
C218 H230 0.952 . S
C219 C218 1.378 . S
C219 H231 0.950 . S
C219 C250 1.383 . S
H220 C239 0.947 . S
H221 C240 0.946 . S
H222 C242 0.953 . S
H223 C243 0.945 . S
H224 C245 0.952 . S
H225 C246 0.949 1_655 S
H226 C248 0.950 . S
H227 C249 0.948 . S
H228 C251 0.951 . S
H229 C216 0.947 1_455 S
H230 C218 0.952 . S
H231 C219 0.950 . S
N232 C235 1.382 . S
N232 C237 1.363 . S
N233 C235 1.371 . S
N233 C236 1.372 . S
N234 C236 1.361 . S
N234 C237 1.377 . S
C235 N232 1.382 . S
C235 N233 1.371 . S
C235 C238 1.480 . S
C236 N233 1.372 . S
C236 N234 1.361 . S
C236 C244 1.457 . S
C237 N232 1.363 . S
C237 N234 1.377 . S
C237 C250 1.479 . S
C238 C235 1.480 . S
C238 C239 1.383 . S
C238 C243 1.385 . S
C239 H220 0.947 . S
C239 C238 1.383 . S
C239 C240 1.388 . S
C240 H221 0.946 . S
C240 C239 1.388 . S
C240 C241 1.384 . S
C241 C240 1.384 . S
C241 C242 1.377 . S
C242 H222 0.953 . S
C242 C241 1.377 . S
C242 C243 1.369 . S
C243 H223 0.945 . S
C243 C238 1.385 . S
C243 C242 1.369 . S
C244 C236 1.457 . S
C244 C245 1.372 . S
C244 C249 1.364 1_655 S
C245 H224 0.952 . S
C245 C244 1.372 . S
C245 C246 1.389 1_655 S
C246 H225 0.949 1_455 S
C246 C245 1.389 1_455 S
C246 C247 1.387 . S
C247 C246 1.387 . S
C247 C248 1.372 . S
C248 H226 0.950 . S
C248 C247 1.372 . S
C248 C249 1.379 . S
C249 H227 0.948 . S
C249 C244 1.364 1_455 S
C249 C248 1.379 . S
C250 C219 1.383 . S
C250 C237 1.479 . S
C250 C251 1.398 . S
C251 C216 1.382 . S
C251 H228 0.951 . S
C251 C250 1.398 . S
C252 C253 1.384 . S
C252 H265 0.947 . S
C252 C287 1.382 . S
C253 C252 1.384 . S
C253 C254 1.378 . S
C254 C253 1.378 . S
C254 C255 1.378 . S
C254 H266 0.952 . S
C255 C254 1.378 . S
C255 H267 0.950 . S
C255 C286 1.383 . S
H256 C275 0.947 . S
H257 C276 0.946 . S
H258 C278 0.953 . S
H259 C279 0.945 . S
H260 C281 0.952 . S
H261 C282 0.949 . S
H262 C284 0.950 . S
H263 C285 0.948 . S
H264 C287 0.951 . S
H265 C252 0.947 . S
H266 C254 0.952 . S
H267 C255 0.950 . S
N268 C271 1.382 . S
N268 C273 1.363 . S
N269 C271 1.371 . S
N269 C272 1.372 . S
N270 C272 1.361 . S
N270 C273 1.377 . S
C271 N268 1.382 . S
C271 N269 1.371 . S
C271 C274 1.480 . S
C272 N269 1.372 . S
C272 N270 1.361 . S
C272 C280 1.457 . S
C273 N268 1.363 . S
C273 N270 1.377 . S
C273 C286 1.479 . S
C274 C271 1.480 . S
C274 C275 1.383 . S
C274 C279 1.385 . S
C275 H256 0.947 . S
C275 C274 1.383 . S
C275 C276 1.388 . S
C276 H257 0.946 . S
C276 C275 1.388 . S
C276 C277 1.384 . S
C277 C276 1.384 . S
C277 C278 1.377 . S
C278 H258 0.953 . S
C278 C277 1.377 . S
C278 C279 1.369 . S
C279 H259 0.945 . S
C279 C274 1.385 . S
C279 C278 1.369 . S
C280 C272 1.457 . S
C280 C281 1.372 . S
C280 C285 1.364 . S
C281 H260 0.952 . S
C281 C280 1.372 . S
C281 C282 1.389 . S
C282 H261 0.949 . S
C282 C281 1.389 . S
C282 C283 1.387 . S
C283 C282 1.387 . S
C283 C284 1.372 . S
C284 H262 0.950 . S
C284 C283 1.372 . S
C284 C285 1.379 . S
C285 H263 0.948 . S
C285 C280 1.364 . S
C285 C284 1.379 . S
C286 C255 1.383 . S
C286 C273 1.479 . S
C286 C287 1.398 . S
C287 C252 1.382 . S
C287 H264 0.951 . S
C287 C286 1.398 . S
C288 C289 1.384 . S
C288 H301 0.947 . S
C288 C323 1.382 . S
C289 C288 1.384 . S
C289 C290 1.378 . S
C290 C289 1.378 . S
C290 C291 1.378 . S
C290 H302 0.952 . S
C291 C290 1.378 . S
C291 H303 0.950 . S
C291 C322 1.383 . S
H292 C311 0.947 . S
H293 C312 0.946 . S
H294 C314 0.953 . S
H295 C315 0.945 . S
H296 C317 0.952 . S
H297 C318 0.949 . S
H298 C320 0.950 . S
H299 C321 0.948 . S
H300 C323 0.951 . S
H301 C288 0.947 . S
H302 C290 0.952 . S
H303 C291 0.950 . S
N304 C307 1.382 . S
N304 C309 1.363 . S
N305 C307 1.371 . S
N305 C308 1.372 . S
N306 C308 1.361 . S
N306 C309 1.377 . S
C307 N304 1.382 . S
C307 N305 1.371 . S
C307 C310 1.480 . S
C308 N305 1.372 . S
C308 N306 1.361 . S
C308 C316 1.457 . S
C309 N304 1.363 . S
C309 N306 1.377 . S
C309 C322 1.479 . S
C310 C307 1.480 . S
C310 C311 1.383 . S
C310 C315 1.385 . S
C311 H292 0.947 . S
C311 C310 1.383 . S
C311 C312 1.388 . S
C312 H293 0.946 . S
C312 C311 1.388 . S
C312 C313 1.384 . S
C313 C312 1.384 . S
C313 C314 1.377 . S
C314 H294 0.953 . S
C314 C313 1.377 . S
C314 C315 1.369 . S
C315 H295 0.945 . S
C315 C310 1.385 . S
C315 C314 1.369 . S
C316 C308 1.457 . S
C316 C317 1.372 . S
C316 C321 1.364 . S
C317 H296 0.952 . S
C317 C316 1.372 . S
C317 C318 1.389 . S
C318 H297 0.949 . S
C318 C317 1.389 . S
C318 C319 1.387 . S
C319 C318 1.387 . S
C319 C320 1.372 . S
C320 H298 0.950 . S
C320 C319 1.372 . S
C320 C321 1.379 . S
C321 H299 0.948 . S
C321 C316 1.364 . S
C321 C320 1.379 . S
C322 C291 1.383 . S
C322 C309 1.479 . S
C322 C323 1.398 . S
C323 C288 1.382 . S
C323 H300 0.951 . S
C323 C322 1.398 . S
C324 C325 1.384 . S
C324 H337 0.947 . S
C324 C359 1.382 . S
C325 C324 1.384 . S
C325 C326 1.378 . S
C326 C325 1.378 . S
C326 C327 1.378 . S
C326 H338 0.952 . S
C327 C326 1.378 . S
C327 H339 0.950 . S
C327 C358 1.383 . S
H328 C347 0.947 . S
H329 C348 0.946 1_565 S
H330 C350 0.953 . S
H331 C351 0.945 . S
H332 C353 0.952 . S
H333 C354 0.949 . S
H334 C356 0.950 . S
H335 C357 0.948 . S
H336 C359 0.951 . S
H337 C324 0.947 . S
H338 C326 0.952 . S
H339 C327 0.950 . S
N340 C343 1.382 . S
N340 C345 1.363 . S
N341 C343 1.371 . S
N341 C344 1.372 . S
N342 C344 1.361 . S
N342 C345 1.377 . S
C343 N340 1.382 . S
C343 N341 1.371 . S
C343 C346 1.480 . S
C344 N341 1.372 . S
C344 N342 1.361 . S
C344 C352 1.457 . S
C345 N340 1.363 . S
C345 N342 1.377 . S
C345 C358 1.479 . S
C346 C343 1.480 . S
C346 C347 1.383 . S
C346 C351 1.385 1_565 S
C347 H328 0.947 . S
C347 C346 1.383 . S
C347 C348 1.388 1_565 S
C348 H329 0.946 1_545 S
C348 C347 1.388 1_545 S
C348 C349 1.384 . S
C349 C348 1.384 . S
C349 C350 1.377 . S
C350 H330 0.953 . S
C350 C349 1.377 . S
C350 C351 1.369 . S
C351 H331 0.945 . S
C351 C346 1.385 1_545 S
C351 C350 1.369 . S
C352 C344 1.457 . S
C352 C353 1.372 . S
C352 C357 1.364 . S
C353 H332 0.952 . S
C353 C352 1.372 . S
C353 C354 1.389 . S
C354 H333 0.949 . S
C354 C353 1.389 . S
C354 C355 1.387 . S
C355 C354 1.387 . S
C355 C356 1.372 . S
C356 H334 0.950 . S
C356 C355 1.372 . S
C356 C357 1.379 . S
C357 H335 0.948 . S
C357 C352 1.364 . S
C357 C356 1.379 . S
C358 C327 1.383 . S
C358 C345 1.479 . S
C358 C359 1.398 . S
C359 C324 1.382 . S
C359 H336 0.951 . S
C359 C358 1.398 . S
C360 C361 1.384 . S
C360 H373 0.947 . S
C360 C395 1.382 . S
C361 C360 1.384 . S
C361 C362 1.378 . S
C362 C361 1.378 . S
C362 C363 1.378 . S
C362 H374 0.952 . S
C363 C362 1.378 . S
C363 H375 0.950 . S
C363 C394 1.383 . S
H364 C383 0.947 . S
H365 C384 0.946 . S
H366 C386 0.953 . S
H367 C387 0.945 . S
H368 C389 0.952 . S
H369 C390 0.949 . S
H370 C392 0.950 . S
H371 C393 0.948 . S
H372 C395 0.951 . S
H373 C360 0.947 . S
H374 C362 0.952 . S
H375 C363 0.950 . S
N376 C379 1.382 . S
N376 C381 1.363 . S
N377 C379 1.371 . S
N377 C380 1.372 . S
N378 C380 1.361 . S
N378 C381 1.377 . S
C379 N376 1.382 . S
C379 N377 1.371 . S
C379 C382 1.480 . S
C380 N377 1.372 . S
C380 N378 1.361 . S
C380 C388 1.457 . S
C381 N376 1.363 . S
C381 N378 1.377 . S
C381 C394 1.479 . S
C382 C379 1.480 . S
C382 C383 1.383 . S
C382 C387 1.385 . S
C383 H364 0.947 . S
C383 C382 1.383 . S
C383 C384 1.388 . S
C384 H365 0.946 . S
C384 C383 1.388 . S
C384 C385 1.384 . S
C385 C384 1.384 . S
C385 C386 1.377 . S
C386 H366 0.953 . S
C386 C385 1.377 . S
C386 C387 1.369 . S
C387 H367 0.945 . S
C387 C382 1.385 . S
C387 C386 1.369 . S
C388 C380 1.457 . S
C388 C389 1.372 . S
C388 C393 1.364 . S
C389 H368 0.952 . S
C389 C388 1.372 . S
C389 C390 1.389 . S
C390 H369 0.949 . S
C390 C389 1.389 . S
C390 C391 1.387 . S
C391 C390 1.387 . S
C391 C392 1.372 . S
C392 H370 0.950 . S
C392 C391 1.372 . S
C392 C393 1.379 . S
C393 H371 0.948 . S
C393 C388 1.364 . S
C393 C392 1.379 . S
C394 C363 1.383 . S
C394 C381 1.479 . S
C394 C395 1.398 . S
C395 C360 1.382 . S
C395 H372 0.951 . S
C395 C394 1.398 . S
C396 C397 1.384 . S
C396 H409 0.947 . S
C396 C431 1.382 . S
C397 C396 1.384 . S
C397 C398 1.378 . S
C398 C397 1.378 . S
C398 C399 1.378 . S
C398 H410 0.952 . S
C399 C398 1.378 . S
C399 H411 0.950 . S
C399 C430 1.383 . S
H400 C419 0.947 . S
H401 C420 0.946 . S
H402 C422 0.953 . S
H403 C423 0.945 . S
H404 C425 0.952 . S
H405 C426 0.949 . S
H406 C428 0.950 . S
H407 C429 0.948 . S
H408 C431 0.951 . S
H409 C396 0.947 . S
H410 C398 0.952 . S
H411 C399 0.950 . S
N412 C415 1.382 . S
N412 C417 1.363 . S
N413 C415 1.371 . S
N413 C416 1.372 . S
N414 C416 1.361 . S
N414 C417 1.377 . S
C415 N412 1.382 . S
C415 N413 1.371 . S
C415 C418 1.480 . S
C416 N413 1.372 . S
C416 N414 1.361 . S
C416 C424 1.457 . S
C417 N412 1.363 . S
C417 N414 1.377 . S
C417 C430 1.479 . S
C418 C415 1.480 . S
C418 C419 1.383 . S
C418 C423 1.385 . S
C419 H400 0.947 . S
C419 C418 1.383 . S
C419 C420 1.388 . S
C420 H401 0.946 . S
C420 C419 1.388 . S
C420 C421 1.384 . S
C421 C420 1.384 . S
C421 C422 1.377 . S
C422 H402 0.953 . S
C422 C421 1.377 . S
C422 C423 1.369 . S
C423 H403 0.945 . S
C423 C418 1.385 . S
C423 C422 1.369 . S
C424 C416 1.457 . S
C424 C425 1.372 . S
C424 C429 1.364 . S
C425 H404 0.952 . S
C425 C424 1.372 . S
C425 C426 1.389 . S
C426 H405 0.949 . S
C426 C425 1.389 . S
C426 C427 1.387 . S
C427 C426 1.387 . S
C427 C428 1.372 . S
C428 H406 0.950 . S
C428 C427 1.372 . S
C428 C429 1.379 . S
C429 H407 0.948 . S
C429 C424 1.364 . S
C429 C428 1.379 . S
C430 C399 1.383 . S
C430 C417 1.479 . S
C430 C431 1.398 . S
C431 C396 1.382 . S
C431 H408 0.951 . S
C431 C430 1.398 . S
C432 C433 1.384 . S
C432 H445 0.947 . S
C432 C467 1.382 . S
C433 C432 1.384 . S
C433 C434 1.378 . S
C434 C433 1.378 . S
C434 C435 1.378 . S
C434 H446 0.952 . S
C435 C434 1.378 . S
C435 H447 0.950 . S
C435 C466 1.383 . S
H436 C455 0.947 . S
H437 C456 0.946 . S
H438 C458 0.953 . S
H439 C459 0.945 . S
H440 C461 0.952 . S
H441 C462 0.949 . S
H442 C464 0.950 . S
H443 C465 0.948 . S
H444 C467 0.951 . S
H445 C432 0.947 . S
H446 C434 0.952 . S
H447 C435 0.950 . S
N448 C451 1.382 . S
N448 C453 1.363 . S
N449 C451 1.371 . S
N449 C452 1.372 . S
N450 C452 1.361 . S
N450 C453 1.377 . S
C451 N448 1.382 . S
C451 N449 1.371 . S
C451 C454 1.480 . S
C452 N449 1.372 . S
C452 N450 1.361 . S
C452 C460 1.457 . S
C453 N448 1.363 . S
C453 N450 1.377 . S
C453 C466 1.479 . S
C454 C451 1.480 . S
C454 C455 1.383 . S
C454 C459 1.385 . S
C455 H436 0.947 . S
C455 C454 1.383 . S
C455 C456 1.388 . S
C456 H437 0.946 . S
C456 C455 1.388 . S
C456 C457 1.384 . S
C457 C456 1.384 . S
C457 C458 1.377 . S
C458 H438 0.953 . S
C458 C457 1.377 . S
C458 C459 1.369 . S
C459 H439 0.945 . S
C459 C454 1.385 . S
C459 C458 1.369 . S
C460 C452 1.457 . S
C460 C461 1.372 . S
C460 C465 1.364 . S
C461 H440 0.952 . S
C461 C460 1.372 . S
C461 C462 1.389 . S
C462 H441 0.949 . S
C462 C461 1.389 . S
C462 C463 1.387 . S
C463 C462 1.387 . S
C463 C464 1.372 . S
C464 H442 0.950 . S
C464 C463 1.372 . S
C464 C465 1.379 . S
C465 H443 0.948 . S
C465 C460 1.364 . S
C465 C464 1.379 . S
C466 C435 1.383 . S
C466 C453 1.479 . S
C466 C467 1.398 . S
C467 C432 1.382 . S
C467 H444 0.951 . S
C467 C466 1.398 . S
C468 C469 1.384 . S
C468 H481 0.947 . S
C468 C503 1.382 . S
C469 C468 1.384 . S
C469 C470 1.378 1_554 S
C470 C469 1.378 1_556 S
C470 C471 1.378 . S
C470 H482 0.952 . S
C471 C470 1.378 . S
C471 H483 0.950 . S
C471 C502 1.383 . S
H472 C491 0.947 . S
H473 C492 0.946 . S
H474 C494 0.953 . S
H475 C495 0.945 . S
H476 C497 0.952 . S
H477 C498 0.949 . S
H478 C500 0.950 . S
H479 C501 0.948 . S
H480 C503 0.951 . S
H481 C468 0.947 . S
H482 C470 0.952 . S
H483 C471 0.950 . S
N484 C487 1.382 . S
N484 C489 1.363 . S
N485 C487 1.371 . S
N485 C488 1.372 . S
N486 C488 1.361 . S
N486 C489 1.377 . S
C487 N484 1.382 . S
C487 N485 1.371 . S
C487 C490 1.480 . S
C488 N485 1.372 . S
C488 N486 1.361 . S
C488 C496 1.457 . S
C489 N484 1.363 . S
C489 N486 1.377 . S
C489 C502 1.479 . S
C490 C487 1.480 . S
C490 C491 1.383 . S
C490 C495 1.385 . S
C491 H472 0.947 . S
C491 C490 1.383 . S
C491 C492 1.388 . S
C492 H473 0.946 . S
C492 C491 1.388 . S
C492 C493 1.384 . S
C493 C492 1.384 . S
C493 C494 1.377 . S
C494 H474 0.953 . S
C494 C493 1.377 . S
C494 C495 1.369 . S
C495 H475 0.945 . S
C495 C490 1.385 . S
C495 C494 1.369 . S
C496 C488 1.457 . S
C496 C497 1.372 . S
C496 C501 1.364 . S
C497 H476 0.952 . S
C497 C496 1.372 . S
C497 C498 1.389 . S
C498 H477 0.949 . S
C498 C497 1.389 . S
C498 C499 1.387 . S
C499 C498 1.387 . S
C499 C500 1.372 . S
C500 H478 0.950 . S
C500 C499 1.372 . S
C500 C501 1.379 . S
C501 H479 0.948 . S
C501 C496 1.364 . S
C501 C500 1.379 . S
C502 C471 1.383 . S
C502 C489 1.479 . S
C502 C503 1.398 1_556 S
C503 C468 1.382 . S
C503 H480 0.951 . S
C503 C502 1.398 1_554 S
C504 C505 1.384 . S
C504 H517 0.947 . S
C504 C539 1.382 . S
C505 C504 1.384 . S
C505 C506 1.378 . S
C506 C505 1.378 . S
C506 C507 1.378 . S
C506 H518 0.952 . S
C507 C506 1.378 . S
C507 H519 0.950 . S
C507 C538 1.383 . S
H508 C527 0.947 . S
H509 C528 0.946 . S
H510 C530 0.953 . S
H511 C531 0.945 . S
H512 C533 0.952 . S
H513 C534 0.949 . S
H514 C536 0.950 . S
H515 C537 0.948 . S
H516 C539 0.951 . S
H517 C504 0.947 . S
H518 C506 0.952 . S
H519 C507 0.950 . S
N520 C523 1.382 . S
N520 C525 1.363 . S
N521 C523 1.371 . S
N521 C524 1.372 . S
N522 C524 1.361 . S
N522 C525 1.377 . S
C523 N520 1.382 . S
C523 N521 1.371 . S
C523 C526 1.480 . S
C524 N521 1.372 . S
C524 N522 1.361 . S
C524 C532 1.457 . S
C525 N520 1.363 . S
C525 N522 1.377 . S
C525 C538 1.479 . S
C526 C523 1.480 . S
C526 C527 1.383 . S
C526 C531 1.385 . S
C527 H508 0.947 . S
C527 C526 1.383 . S
C527 C528 1.388 . S
C528 H509 0.946 . S
C528 C527 1.388 . S
C528 C529 1.384 . S
C529 C528 1.384 . S
C529 C530 1.377 . S
C530 H510 0.953 . S
C530 C529 1.377 . S
C530 C531 1.369 . S
C531 H511 0.945 . S
C531 C526 1.385 . S
C531 C530 1.369 . S
C532 C524 1.457 . S
C532 C533 1.372 . S
C532 C537 1.364 . S
C533 H512 0.952 . S
C533 C532 1.372 . S
C533 C534 1.389 . S
C534 H513 0.949 . S
C534 C533 1.389 . S
C534 C535 1.387 . S
C535 C534 1.387 . S
C535 C536 1.372 . S
C536 H514 0.950 . S
C536 C535 1.372 . S
C536 C537 1.379 . S
C537 H515 0.948 . S
C537 C532 1.364 . S
C537 C536 1.379 . S
C538 C507 1.383 . S
C538 C525 1.479 . S
C538 C539 1.398 . S
C539 C504 1.382 . S
C539 H516 0.951 . S
C539 C538 1.398 . S
C540 C541 1.384 . S
C540 H553 0.947 . S
C540 C575 1.382 1_554 S
C541 C540 1.384 . S
C541 C542 1.378 . S
C542 C541 1.378 . S
C542 C543 1.378 . S
C542 H554 0.952 . S
C543 C542 1.378 . S
C543 H555 0.950 . S
C543 C574 1.383 1_554 S
H544 C563 0.947 1_554 S
H545 C564 0.961 1_554 S
H546 C566 0.953 . S
H547 C567 0.945 . S
H548 C569 0.952 . S
H549 C570 0.949 1_565 S
H550 C572 0.950 . S
H551 C573 0.948 . S
H552 C575 0.951 . S
H553 C540 0.947 . S
H554 C542 0.952 . S
H555 C543 0.950 . S
N556 C559 1.382 . S
N556 C561 1.363 . S
N557 C559 1.371 . S
N557 C560 1.372 . S
N558 C560 1.361 . S
N558 C561 1.377 . S
C559 N556 1.382 . S
C559 N557 1.371 . S
C559 C562 1.480 . S
C560 N557 1.372 . S
C560 N558 1.361 . S
C560 C568 1.457 . S
C561 N556 1.363 . S
C561 N558 1.377 . S
C561 C574 1.479 . S
C562 C559 1.480 . S
C562 C563 1.383 . S
C562 C567 1.385 1_545 S
C563 H544 0.947 1_556 S
C563 C562 1.383 . S
C563 C564 1.388 1_545 S
C564 H545 0.961 1_556 S
C564 C563 1.388 1_565 S
C564 C565 1.384 . S
C565 C564 1.384 . S
C565 C566 1.377 . S
C566 H546 0.953 . S
C566 C565 1.377 . S
C566 C567 1.369 . S
C567 H547 0.945 . S
C567 C562 1.385 1_565 S
C567 C566 1.369 . S
C568 C560 1.457 . S
C568 C569 1.372 . S
C568 C573 1.364 . S
C569 H548 0.952 . S
C569 C568 1.372 . S
C569 C570 1.389 . S
C570 H549 0.949 1_545 S
C570 C569 1.389 . S
C570 C571 1.387 . S
C571 C570 1.387 . S
C571 C572 1.372 . S
C572 H550 0.950 . S
C572 C571 1.372 . S
C572 C573 1.379 . S
C573 H551 0.948 . S
C573 C568 1.364 . S
C573 C572 1.379 . S
C574 C543 1.383 1_556 S
C574 C561 1.479 . S
C574 C575 1.398 . S
C575 C540 1.382 1_556 S
C575 H552 0.951 . S
C575 C574 1.398 . S
Mg576 O577 2.035 . S
Mg576 O583 1.986 1_554 S
Mg576 O585 2.114 . S
Mg576 O586 2.251 . S
Mg576 O589 2.010 . S
O577 Mg576 2.035 . S
O577 C580 1.245 1_554 S
O578 Mg579 2.028 . S
O578 C580 1.248 . S
Mg579 O578 2.028 . S
Mg579 O584 2.032 . S
Mg579 O586 2.079 1_556 S
C580 O577 1.245 1_556 S
C580 O578 1.248 . S
C581 O582 1.264 . S
C581 O589 1.249 . S
O582 C581 1.264 . S
O583 Mg576 1.986 1_556 S
O583 C587 1.246 . S
O584 Mg579 2.032 . S
O584 C587 1.259 . S
O585 Mg576 2.114 . S
O585 C588 1.252 . S
O586 Mg576 2.251 . S
O586 Mg579 2.079 1_554 S
O586 C588 1.273 . S
C587 O583 1.246 . S
C587 O584 1.259 . S
C588 O585 1.252 . S
C588 O586 1.273 . S
O589 Mg576 2.010 . S
O589 C581 1.249 . S
Mg590 O591 2.028 . S
Mg590 O597 1.986 . S
Mg590 O599 2.114 . S
Mg590 O600 2.251 . S
Mg590 O603 2.010 . S
O591 Mg590 2.028 . S
O591 C594 1.250 . S
O592 Mg593 2.028 . S
O592 C594 1.248 . S
Mg593 O592 2.028 . S
Mg593 O598 2.032 . S
Mg593 O600 2.079 . S
C594 O591 1.250 . S
C594 O592 1.248 . S
C595 O596 1.264 . S
C595 O603 1.249 . S
O596 C595 1.264 . S
O597 Mg590 1.986 . S
O597 C601 1.246 . S
O598 Mg593 2.032 . S
O598 C601 1.259 . S
O599 Mg590 2.114 . S
O599 C602 1.252 . S
O600 Mg590 2.251 . S
O600 Mg593 2.079 . S
O600 C602 1.273 . S
C601 O597 1.246 . S
C601 O598 1.259 . S
C602 O599 1.252 . S
C602 O600 1.273 . S
O603 Mg590 2.010 . S
O603 C595 1.249 . S
Mg604 O605 2.028 . S
Mg604 O611 1.986 1_554 S
Mg604 O613 2.114 . S
Mg604 O614 2.251 . S
Mg604 O617 2.010 . S
O605 Mg604 2.028 . S
O605 C608 1.252 . S
O606 Mg607 2.028 . S
O606 C608 1.247 1_556 S
Mg607 O606 2.028 . S
Mg607 O612 2.032 . S
Mg607 O614 2.079 1_556 S
C608 O605 1.252 . S
C608 O606 1.247 1_554 S
C609 O610 1.264 . S
C609 O617 1.249 . S
O610 C609 1.264 . S
O611 Mg604 1.986 1_556 S
O611 C615 1.246 . S
O612 Mg607 2.032 . S
O612 C615 1.259 . S
O613 Mg604 2.114 . S
O613 C616 1.252 . S
O614 Mg604 2.251 . S
O614 Mg607 2.079 1_554 S
O614 C616 1.273 . S
C615 O611 1.246 . S
C615 O612 1.259 . S
C616 O613 1.252 . S
C616 O614 1.273 . S
O617 Mg604 2.010 . S
O617 C609 1.249 . S
Mg618 O619 2.028 . S
Mg618 O625 1.986 . S
Mg618 O627 2.114 . S
Mg618 O628 2.251 . S
Mg618 O631 2.010 . S
O619 Mg618 2.028 . S
O619 C622 1.250 1_545 S
O620 Mg621 2.028 . S
O620 C622 1.248 . S
Mg621 O620 2.028 . S
Mg621 O626 2.032 . S
Mg621 O628 2.079 1_565 S
C622 O619 1.250 1_565 S
C622 O620 1.248 . S
C623 O624 1.264 . S
C623 O631 1.249 . S
O624 C623 1.264 . S
O625 Mg618 1.986 . S
O625 C629 1.246 . S
O626 Mg621 2.032 . S
O626 C629 1.259 1_565 S
O627 Mg618 2.114 . S
O627 C630 1.252 . S
O628 Mg618 2.251 . S
O628 Mg621 2.079 1_545 S
O628 C630 1.273 . S
C629 O625 1.246 . S
C629 O626 1.259 1_545 S
C630 O627 1.252 . S
C630 O628 1.273 . S
O631 Mg618 2.010 . S
O631 C623 1.249 . S
Mg632 O633 2.028 . S
Mg632 O639 1.986 . S
Mg632 O641 2.114 . S
Mg632 O642 2.251 . S
Mg632 O645 2.010 . S
O633 Mg632 2.028 . S
O633 C636 1.250 . S
O634 Mg635 2.028 . S
O634 C636 1.248 . S
Mg635 O634 2.028 . S
Mg635 O640 2.032 . S
Mg635 O642 2.079 . S
C636 O633 1.250 . S
C636 O634 1.248 . S
C637 O638 1.264 . S
C637 O645 1.249 . S
O638 C637 1.264 . S
O639 Mg632 1.986 . S
O639 C643 1.246 . S
O640 Mg635 2.032 . S
O640 C643 1.259 . S
O641 Mg632 2.114 . S
O641 C644 1.252 . S
O642 Mg632 2.251 . S
O642 Mg635 2.079 . S
O642 C644 1.273 . S
C643 O639 1.246 . S
C643 O640 1.259 . S
C644 O641 1.252 . S
C644 O642 1.273 . S
O645 Mg632 2.010 . S
O645 C637 1.249 . S
Mg646 O647 2.028 . S
Mg646 O653 1.986 . S
Mg646 O655 2.114 . S
Mg646 O656 2.251 . S
Mg646 O659 2.010 . S
O647 Mg646 2.028 . S
O647 C650 1.250 . S
O648 Mg649 2.028 . S
O648 C650 1.248 . S
Mg649 O648 2.028 . S
Mg649 O654 2.032 . S
Mg649 O656 2.079 . S
C650 O647 1.250 . S
C650 O648 1.248 . S
C651 O652 1.264 . S
C651 O659 1.249 . S
O652 C651 1.264 . S
O653 Mg646 1.986 . S
O653 C657 1.246 . S
O654 Mg649 2.032 . S
O654 C657 1.259 . S
O655 Mg646 2.114 . S
O655 C658 1.252 . S
O656 Mg646 2.251 . S
O656 Mg649 2.079 . S
O656 C658 1.273 . S
C657 O653 1.246 . S
C657 O654 1.259 . S
C658 O655 1.252 . S
C658 O656 1.273 . S
O659 Mg646 2.010 . S
O659 C651 1.249 . S
Mg660 O661 2.028 . S
Mg660 O667 1.986 . S
Mg660 O669 2.114 . S
Mg660 O670 2.251 . S
Mg660 O673 2.010 . S
O661 Mg660 2.028 . S
O661 C664 1.250 . S
O662 Mg663 2.028 . S
O662 C664 1.248 . S
Mg663 O662 2.028 . S
Mg663 O668 2.032 . S
Mg663 O670 2.079 . S
C664 O661 1.250 . S
C664 O662 1.248 . S
C665 O666 1.264 . S
C665 O673 1.249 . S
O666 C665 1.264 . S
O667 Mg660 1.986 . S
O667 C671 1.246 . S
O668 Mg663 2.032 . S
O668 C671 1.259 . S
O669 Mg660 2.114 . S
O669 C672 1.252 . S
O670 Mg660 2.251 . S
O670 Mg663 2.079 . S
O670 C672 1.273 . S
C671 O667 1.246 . S
C671 O668 1.259 . S
C672 O669 1.252 . S
C672 O670 1.273 . S
O673 Mg660 2.010 . S
O673 C665 1.249 . S
Mg674 O675 2.028 1_545 S
Mg674 O681 1.986 1_545 S
Mg674 O683 2.114 . S
Mg674 O684 2.251 . S
Mg674 O687 2.010 . S
O675 Mg674 2.028 1_565 S
O675 C678 1.250 . S
O676 Mg677 2.028 . S
O676 C678 1.248 . S
Mg677 O676 2.028 . S
Mg677 O682 2.032 . S
Mg677 O684 2.079 1_565 S
C678 O675 1.250 . S
C678 O676 1.248 . S
C679 O680 1.264 . S
C679 O687 1.249 . S
O680 C679 1.264 . S
O681 Mg674 1.986 1_565 S
O681 C685 1.246 . S
O682 Mg677 2.032 . S
O682 C685 1.259 . S
O683 Mg674 2.114 . S
O683 C686 1.252 . S
O684 Mg674 2.251 . S
O684 Mg677 2.079 1_545 S
O684 C686 1.273 . S
C685 O681 1.246 . S
C685 O682 1.259 . S
C686 O683 1.252 . S
C686 O684 1.273 . S
O687 Mg674 2.010 . S
O687 C679 1.249 . S
Mg688 O689 2.028 . S
Mg688 O695 1.986 . S
Mg688 O697 2.114 . S
Mg688 O698 2.251 . S
Mg688 O701 2.010 . S
O689 Mg688 2.028 . S
O689 C692 1.250 1_455 S
O690 Mg691 2.028 . S
O690 C692 1.248 . S
Mg691 O690 2.028 . S
Mg691 O696 2.032 . S
Mg691 O698 2.079 1_655 S
C692 O689 1.250 1_655 S
C692 O690 1.248 . S
C693 O694 1.264 . S
C693 O701 1.249 . S
O694 C693 1.264 . S
O695 Mg688 1.986 . S
O695 C699 1.246 . S
O696 Mg691 2.032 . S
O696 C699 1.259 1_655 S
O697 Mg688 2.114 . S
O697 C700 1.252 . S
O698 Mg688 2.251 . S
O698 Mg691 2.079 1_455 S
O698 C700 1.273 . S
C699 O695 1.246 . S
C699 O696 1.259 1_455 S
C700 O697 1.252 . S
C700 O698 1.273 . S
O701 Mg688 2.010 . S
O701 C693 1.249 . S
Mg702 O703 2.028 . S
Mg702 O709 1.986 . S
Mg702 O711 2.114 . S
Mg702 O712 2.251 . S
Mg702 O715 2.010 . S
O703 Mg702 2.028 . S
O703 C706 1.250 . S
O704 Mg705 2.028 . S
O704 C706 1.248 . S
Mg705 O704 2.028 . S
Mg705 O710 2.032 . S
Mg705 O712 2.079 . S
C706 O703 1.250 . S
C706 O704 1.248 . S
C707 O708 1.264 . S
C707 O715 1.249 . S
O708 C707 1.264 . S
O709 Mg702 1.986 . S
O709 C713 1.246 . S
O710 Mg705 2.032 . S
O710 C713 1.259 . S
O711 Mg702 2.114 . S
O711 C714 1.252 . S
O712 Mg702 2.251 . S
O712 Mg705 2.079 . S
O712 C714 1.273 . S
C713 O709 1.246 . S
C713 O710 1.259 . S
C714 O711 1.252 . S
C714 O712 1.273 . S
O715 Mg702 2.010 . S
O715 C707 1.249 . S
Mg716 O717 2.028 1_655 S
Mg716 O723 2.000 . S
Mg716 O725 2.114 . S
Mg716 O726 2.251 1_655 S
Mg716 O729 2.010 . S
O717 Mg716 2.028 1_455 S
O717 C720 1.250 . S
O718 Mg719 2.028 . S
O718 C720 1.248 . S
Mg719 O718 2.028 . S
Mg719 O724 2.032 . S
Mg719 O726 2.079 . S
C720 O717 1.250 . S
C720 O718 1.248 . S
C721 O722 1.264 . S
C721 O729 1.249 . S
O722 C721 1.264 . S
O723 Mg716 2.000 . S
O723 C727 1.207 1_655 S
O724 Mg719 2.032 . S
O724 C727 1.259 . S
O725 Mg716 2.114 . S
O725 C728 1.252 . S
O726 Mg716 2.251 1_455 S
O726 Mg719 2.079 . S
O726 C728 1.273 1_455 S
C727 O723 1.207 1_455 S
C727 O724 1.259 . S
C728 O725 1.252 . S
C728 O726 1.273 1_655 S
O729 Mg716 2.010 . S
O729 C721 1.249 . S
Mg730 O731 2.028 . S
Mg730 O737 1.986 . S
Mg730 O739 2.114 . S
Mg730 O740 2.251 . S
Mg730 O743 2.010 . S
O731 Mg730 2.028 . S
O731 C734 1.250 . S
O732 Mg733 2.028 . S
O732 C734 1.248 . S
Mg733 O732 2.028 . S
Mg733 O738 2.032 . S
Mg733 O740 2.079 . S
C734 O731 1.250 . S
C734 O732 1.248 . S
C735 O736 1.264 . S
C735 O743 1.249 . S
O736 C735 1.264 . S
O737 Mg730 1.986 . S
O737 C741 1.246 . S
O738 Mg733 2.032 . S
O738 C741 1.259 . S
O739 Mg730 2.114 . S
O739 C742 1.252 . S
O740 Mg730 2.251 . S
O740 Mg733 2.079 . S
O740 C742 1.273 . S
C741 O737 1.246 . S
C741 O738 1.259 . S
C742 O739 1.252 . S
C742 O740 1.273 . S
O743 Mg730 2.010 . S
O743 C735 1.249 . S
C744 C745 1.391 . S
C744 C746 1.394 . S
C744 H760 0.931 . S
C745 C744 1.391 . S
C745 C749 1.376 . S
C746 C744 1.394 . S
C746 C747 1.369 . S
C746 C750 1.531 . S
C747 C746 1.369 . S
C747 C748 1.410 . S
C747 C755 1.503 . S
C748 C747 1.410 . S
C748 C749 1.392 . S
C748 C751 1.511 . S
C749 C745 1.376 . S
C749 C748 1.392 . S
C749 H761 0.929 . S
C750 C746 1.531 . S
C750 H762 0.960 . S
C750 H763 0.962 . S
C750 H764 0.960 . S
C751 C748 1.511 . S
C751 H765 0.961 . S
C751 H766 0.961 . S
C751 H767 0.961 . S
C752 C753 1.370 . S
C752 C754 1.363 . S
C752 H768 0.931 . S
C753 C752 1.370 . S
C753 C757 1.408 . S
C754 C752 1.363 . S
C754 C755 1.370 . S
C754 C758 1.524 . S
C755 C747 1.503 . S
C755 C754 1.370 . S
C755 C756 1.403 . S
C756 C755 1.403 . S
C756 C757 1.404 . S
C756 C759 1.539 . S
C757 C753 1.408 . S
C757 C756 1.404 . S
C757 H769 0.930 . S
C758 C754 1.524 . S
C758 H770 0.956 . S
C758 H771 0.961 . S
C758 H772 0.961 . S
C759 C756 1.539 . S
C759 H773 0.958 . S
C759 H774 0.961 . S
C759 H775 0.960 . S
H760 C744 0.931 . S
H761 C749 0.929 . S
H762 C750 0.960 . S
H763 C750 0.962 . S
H764 C750 0.960 . S
H765 C751 0.961 . S
H766 C751 0.961 . S
H767 C751 0.961 . S
H768 C752 0.931 . S
H769 C757 0.930 . S
H770 C758 0.956 . S
H771 C758 0.961 . S
H772 C758 0.961 . S
H773 C759 0.958 . S
H774 C759 0.961 . S
H775 C759 0.960 . S
C776 C777 1.391 . S
C776 C778 1.394 . S
C776 H792 0.931 . S
C777 C776 1.391 . S
C777 C781 1.376 . S
C778 C776 1.394 . S
C778 C779 1.369 . S
C778 C782 1.531 . S
C779 C778 1.369 . S
C779 C780 1.410 . S
C779 C787 1.503 . S
C780 C779 1.410 . S
C780 C781 1.392 . S
C780 C783 1.511 . S
C781 C777 1.376 . S
C781 C780 1.392 . S
C781 H793 0.929 . S
C782 C778 1.531 . S
C782 H794 0.960 . S
C782 H795 0.962 . S
C782 H796 0.960 . S
C783 C780 1.511 . S
C783 H797 0.961 . S
C783 H798 0.961 . S
C783 H799 0.961 . S
C784 C785 1.370 . S
C784 C786 1.363 . S
C784 H800 0.931 . S
C785 C784 1.370 . S
C785 C789 1.408 . S
C786 C784 1.363 . S
C786 C787 1.370 . S
C786 C790 1.524 . S
C787 C779 1.503 . S
C787 C786 1.370 . S
C787 C788 1.403 . S
C788 C787 1.403 . S
C788 C789 1.404 . S
C788 C791 1.539 . S
C789 C785 1.408 . S
C789 C788 1.404 . S
C789 H801 0.930 . S
C790 C786 1.524 . S
C790 H802 0.956 . S
C790 H803 0.961 . S
C790 H804 0.961 . S
C791 C788 1.539 . S
C791 H805 0.958 . S
C791 H806 0.961 . S
C791 H807 0.960 . S
H792 C776 0.931 . S
H793 C781 0.929 . S
H794 C782 0.960 . S
H795 C782 0.962 . S
H796 C782 0.960 . S
H797 C783 0.961 . S
H798 C783 0.961 . S
H799 C783 0.961 . S
H800 C784 0.931 . S
H801 C789 0.930 . S
H802 C790 0.956 . S
H803 C790 0.961 . S
H804 C790 0.961 . S
H805 C791 0.958 . S
H806 C791 0.961 . S
H807 C791 0.960 . S
C808 C809 1.391 . S
C808 C810 1.394 . S
C808 H824 0.931 . S
C809 C808 1.391 . S
C809 C813 1.376 . S
C810 C808 1.394 . S
C810 C811 1.369 . S
C810 C814 1.531 . S
C811 C810 1.369 . S
C811 C812 1.410 . S
C811 C819 1.503 . S
C812 C811 1.410 . S
C812 C813 1.392 . S
C812 C815 1.511 . S
C813 C809 1.376 . S
C813 C812 1.392 . S
C813 H825 0.929 . S
C814 C810 1.531 . S
C814 H826 0.960 . S
C814 H827 0.962 . S
C814 H828 0.960 . S
C815 C812 1.511 . S
C815 H829 0.961 . S
C815 H830 0.961 . S
C815 H831 0.961 . S
C816 C817 1.370 . S
C816 C818 1.363 . S
C816 H832 0.931 . S
C817 C816 1.370 . S
C817 C821 1.408 . S
C818 C816 1.363 . S
C818 C819 1.370 . S
C818 C822 1.524 . S
C819 C811 1.503 . S
C819 C818 1.370 . S
C819 C820 1.403 . S
C820 C819 1.403 . S
C820 C821 1.404 . S
C820 C823 1.539 . S
C821 C817 1.408 . S
C821 C820 1.404 . S
C821 H833 0.930 . S
C822 C818 1.524 . S
C822 H834 0.956 . S
C822 H835 0.961 . S
C822 H836 0.961 . S
C823 C820 1.539 . S
C823 H837 0.958 . S
C823 H838 0.961 . S
C823 H839 0.960 . S
H824 C808 0.931 . S
H825 C813 0.929 . S
H826 C814 0.960 . S
H827 C814 0.962 . S
H828 C814 0.960 . S
H829 C815 0.961 . S
H830 C815 0.961 . S
H831 C815 0.961 . S
H832 C816 0.931 . S
H833 C821 0.930 . S
H834 C822 0.956 . S
H835 C822 0.961 . S
H836 C822 0.961 . S
H837 C823 0.958 . S
H838 C823 0.961 . S
H839 C823 0.960 . S
C840 C841 1.391 . S
C840 C842 1.394 . S
C840 H856 0.931 . S
C841 C840 1.391 . S
C841 C845 1.376 1_565 S
C842 C840 1.394 . S
C842 C843 1.369 . S
C842 C846 1.531 . S
C843 C842 1.369 . S
C843 C844 1.410 1_565 S
C843 C851 1.503 . S
C844 C843 1.410 1_545 S
C844 C845 1.392 . S
C844 C847 1.511 . S
C845 C841 1.376 1_545 S
C845 C844 1.392 . S
C845 H857 0.929 . S
C846 C842 1.531 . S
C846 H858 0.960 . S
C846 H859 0.962 . S
C846 H860 0.960 . S
C847 C844 1.511 . S
C847 H861 0.961 . S
C847 H862 0.961 . S
C847 H863 0.961 . S
C848 C849 1.370 . S
C848 C850 1.363 . S
C848 H864 0.931 . S
C849 C848 1.370 . S
C849 C853 1.408 1_545 S
C850 C848 1.363 . S
C850 C851 1.370 1_545 S
C850 C854 1.524 . S
C851 C843 1.503 . S
C851 C850 1.370 1_565 S
C851 C852 1.403 . S
C852 C851 1.403 . S
C852 C853 1.404 . S
C852 C855 1.539 . S
C853 C849 1.408 1_565 S
C853 C852 1.404 . S
C853 H865 0.930 . S
C854 C850 1.524 . S
C854 H866 0.956 . S
C854 H867 0.961 . S
C854 H868 0.961 . S
C855 C852 1.539 . S
C855 H869 0.958 . S
C855 H870 0.961 . S
C855 H871 0.960 . S
H856 C840 0.931 . S
H857 C845 0.929 . S
H858 C846 0.960 . S
H859 C846 0.962 . S
H860 C846 0.960 . S
H861 C847 0.961 . S
H862 C847 0.961 . S
H863 C847 0.961 . S
H864 C848 0.931 . S
H865 C853 0.930 . S
H866 C854 0.956 . S
H867 C854 0.961 . S
H868 C854 0.961 . S
H869 C855 0.958 . S
H870 C855 0.961 . S
H871 C855 0.960 . S
C872 C873 1.391 . S
C872 C874 1.394 . S
C872 H888 0.931 . S
C873 C872 1.391 . S
C873 C877 1.376 . S
C874 C872 1.394 . S
C874 C875 1.369 . S
C874 C878 1.531 . S
C875 C874 1.369 . S
C875 C876 1.410 . S
C875 C883 1.503 . S
C876 C875 1.410 . S
C876 C877 1.392 . S
C876 C879 1.511 . S
C877 C873 1.376 . S
C877 C876 1.392 . S
C877 H889 0.929 . S
C878 C874 1.531 . S
C878 H890 0.960 . S
C878 H891 0.962 . S
C878 H892 0.960 . S
C879 C876 1.511 . S
C879 H893 0.961 . S
C879 H894 0.961 . S
C879 H895 0.961 . S
C880 C881 1.370 . S
C880 C882 1.363 . S
C880 H896 0.931 . S
C881 C880 1.370 . S
C881 C885 1.408 . S
C882 C880 1.363 . S
C882 C883 1.370 . S
C882 C886 1.524 . S
C883 C875 1.503 . S
C883 C882 1.370 . S
C883 C884 1.403 . S
C884 C883 1.403 . S
C884 C885 1.404 . S
C884 C887 1.539 . S
C885 C881 1.408 . S
C885 C884 1.404 . S
C885 H897 0.930 . S
C886 C882 1.524 . S
C886 H898 0.956 . S
C886 H899 0.961 . S
C886 H900 0.961 . S
C887 C884 1.539 . S
C887 H901 0.958 . S
C887 H902 0.961 . S
C887 H903 0.960 . S
H888 C872 0.931 . S
H889 C877 0.929 . S
H890 C878 0.960 . S
H891 C878 0.962 . S
H892 C878 0.960 . S
H893 C879 0.961 . S
H894 C879 0.961 . S
H895 C879 0.961 . S
H896 C880 0.931 . S
H897 C885 0.930 . S
H898 C886 0.956 . S
H899 C886 0.961 . S
H900 C886 0.961 . S
H901 C887 0.958 . S
H902 C887 0.961 . S
H903 C887 0.960 . S
C904 C905 1.391 . S
C904 C906 1.394 . S
C904 H920 0.931 . S
C905 C904 1.391 . S
C905 C909 1.376 . S
C906 C904 1.394 . S
C906 C907 1.369 . S
C906 C910 1.531 . S
C907 C906 1.369 . S
C907 C908 1.410 . S
C907 C915 1.503 . S
C908 C907 1.410 . S
C908 C909 1.392 . S
C908 C911 1.511 . S
C909 C905 1.376 . S
C909 C908 1.392 . S
C909 H921 0.929 . S
C910 C906 1.531 . S
C910 H922 0.960 . S
C910 H923 0.962 . S
C910 H924 0.960 . S
C911 C908 1.511 . S
C911 H925 0.961 . S
C911 H926 0.961 . S
C911 H927 0.961 . S
C912 C913 1.370 . S
C912 C914 1.363 . S
C912 H928 0.931 . S
C913 C912 1.370 . S
C913 C917 1.408 . S
C914 C912 1.363 . S
C914 C915 1.370 . S
C914 C918 1.524 . S
C915 C907 1.503 . S
C915 C914 1.370 . S
C915 C916 1.403 . S
C916 C915 1.403 . S
C916 C917 1.404 . S
C916 C919 1.539 . S
C917 C913 1.408 . S
C917 C916 1.404 . S
C917 H929 0.930 . S
C918 C914 1.524 . S
C918 H930 0.956 . S
C918 H931 0.961 . S
C918 H932 0.961 . S
C919 C916 1.539 . S
C919 H933 0.958 . S
C919 H934 0.961 . S
C919 H935 0.960 . S
H920 C904 0.931 . S
H921 C909 0.929 . S
H922 C910 0.960 . S
H923 C910 0.962 . S
H924 C910 0.960 . S
H925 C911 0.961 . S
H926 C911 0.961 . S
H927 C911 0.961 . S
H928 C912 0.931 . S
H929 C917 0.930 . S
H930 C918 0.956 . S
H931 C918 0.961 . S
H932 C918 0.961 . S
H933 C919 0.958 . S
H934 C919 0.961 . S
H935 C919 0.960 . S
C936 C937 1.391 . S
C936 C938 1.394 . S
C936 H952 0.931 . S
C937 C936 1.391 . S
C937 C941 1.376 . S
C938 C936 1.394 . S
C938 C939 1.369 . S
C938 C942 1.531 . S
C939 C938 1.369 . S
C939 C940 1.410 . S
C939 C947 1.503 . S
C940 C939 1.410 . S
C940 C941 1.392 . S
C940 C943 1.511 . S
C941 C937 1.376 . S
C941 C940 1.392 . S
C941 H953 0.929 . S
C942 C938 1.531 . S
C942 H954 0.960 . S
C942 H955 0.962 . S
C942 H956 0.960 . S
C943 C940 1.511 . S
C943 H957 0.961 . S
C943 H958 0.961 . S
C943 H959 0.961 . S
C944 C945 1.370 . S
C944 C946 1.363 . S
C944 H960 0.931 . S
C945 C944 1.370 . S
C945 C949 1.408 . S
C946 C944 1.363 . S
C946 C947 1.370 . S
C946 C950 1.524 . S
C947 C939 1.503 . S
C947 C946 1.370 . S
C947 C948 1.403 . S
C948 C947 1.403 . S
C948 C949 1.404 . S
C948 C951 1.539 . S
C949 C945 1.408 . S
C949 C948 1.404 . S
C949 H961 0.930 . S
C950 C946 1.524 . S
C950 H962 0.956 . S
C950 H963 0.961 . S
C950 H964 0.961 . S
C951 C948 1.539 . S
C951 H965 0.958 . S
C951 H966 0.961 . S
C951 H967 0.960 . S
H952 C936 0.931 . S
H953 C941 0.929 . S
H954 C942 0.960 . S
H955 C942 0.962 . S
H956 C942 0.960 . S
H957 C943 0.961 . S
H958 C943 0.961 . S
H959 C943 0.961 . S
H960 C944 0.931 . S
H961 C949 0.930 . S
H962 C950 0.956 . S
H963 C950 0.961 . S
H964 C950 0.961 . S
H965 C951 0.958 . S
H966 C951 0.961 . S
H967 C951 0.960 . S
C968 C969 1.391 . S
C968 C970 1.394 . S
C968 H984 0.931 1_565 S
C969 C968 1.391 . S
C969 C973 1.376 . S
C970 C968 1.394 . S
C970 C971 1.369 . S
C970 C974 1.531 1_565 S
C971 C970 1.369 . S
C971 C972 1.410 . S
C971 C979 1.503 . S
C972 C971 1.410 . S
C972 C973 1.392 . S
C972 C975 1.511 . S
C973 C969 1.376 . S
C973 C972 1.392 . S
C973 H985 0.929 . S
C974 C970 1.531 1_545 S
C974 H986 0.960 . S
C974 H987 0.962 . S
C974 H988 0.960 . S
C975 C972 1.511 . S
C975 H989 0.961 . S
C975 H990 0.961 . S
C975 H991 0.961 . S
C976 C977 1.370 . S
C976 C978 1.363 . S
C976 H992 0.931 1_565 S
C977 C976 1.370 . S
C977 C981 1.408 . S
C978 C976 1.363 . S
C978 C979 1.370 . S
C978 C982 1.524 1_565 S
C979 C971 1.503 . S
C979 C978 1.370 . S
C979 C980 1.403 . S
C980 C979 1.403 . S
C980 C981 1.404 . S
C980 C983 1.539 . S
C981 C977 1.408 . S
C981 C980 1.404 . S
C981 H993 0.930 . S
C982 C978 1.524 1_545 S
C982 H994 0.956 . S
C982 H995 0.961 1_545 S
C982 H996 0.961 . S
C983 C980 1.539 . S
C983 H997 0.958 . S
C983 H998 0.961 . S
C983 H999 0.960 . S
H984 C968 0.931 1_545 S
H985 C973 0.929 . S
H986 C974 0.960 . S
H987 C974 0.962 . S
H988 C974 0.960 . S
H989 C975 0.961 . S
H990 C975 0.961 . S
H991 C975 0.961 . S
H992 C976 0.931 1_545 S
H993 C981 0.930 . S
H994 C982 0.956 . S
H995 C982 0.961 1_565 S
H996 C982 0.961 . S
H997 C983 0.958 . S
H998 C983 0.961 . S
H999 C983 0.960 . S
C1000 C1001 1.391 . S
C1000 C1002 1.394 . S
C1000 H1016 0.931 . S
C1001 C1000 1.391 . S
C1001 C1005 1.376 . S
C1002 C1000 1.394 . S
C1002 C1003 1.369 . S
C1002 C1006 1.531 . S
C1003 C1002 1.369 . S
C1003 C1004 1.410 . S
C1003 C1011 1.503 . S
C1004 C1003 1.410 . S
C1004 C1005 1.392 . S
C1004 C1007 1.511 . S
C1005 C1001 1.376 . S
C1005 C1004 1.392 . S
C1005 H1017 0.929 . S
C1006 C1002 1.531 . S
C1006 H1018 0.960 . S
C1006 H1019 0.962 . S
C1006 H1020 0.960 . S
C1007 C1004 1.511 . S
C1007 H1021 0.961 . S
C1007 H1022 0.961 . S
C1007 H1023 0.961 . S
C1008 C1009 1.370 . S
C1008 C1010 1.363 . S
C1008 H1024 0.931 . S
C1009 C1008 1.370 . S
C1009 C1013 1.408 . S
C1010 C1008 1.363 . S
C1010 C1011 1.370 . S
C1010 C1014 1.524 . S
C1011 C1003 1.503 . S
C1011 C1010 1.370 . S
C1011 C1012 1.403 . S
C1012 C1011 1.403 . S
C1012 C1013 1.404 . S
C1012 C1015 1.539 . S
C1013 C1009 1.408 . S
C1013 C1012 1.404 . S
C1013 H1025 0.930 . S
C1014 C1010 1.524 . S
C1014 H1026 0.956 . S
C1014 H1027 0.961 . S
C1014 H1028 0.961 . S
C1015 C1012 1.539 . S
C1015 H1029 0.958 . S
C1015 H1030 0.961 . S
C1015 H1031 0.960 . S
H1016 C1000 0.931 . S
H1017 C1005 0.929 . S
H1018 C1006 0.960 . S
H1019 C1006 0.962 . S
H1020 C1006 0.960 . S
H1021 C1007 0.961 . S
H1022 C1007 0.961 . S
H1023 C1007 0.961 . S
H1024 C1008 0.931 . S
H1025 C1013 0.930 . S
H1026 C1014 0.956 . S
H1027 C1014 0.961 . S
H1028 C1014 0.961 . S
H1029 C1015 0.958 . S
H1030 C1015 0.961 . S
H1031 C1015 0.960 . S
C1032 C1033 1.391 . S
C1032 C1034 1.394 . S
C1032 H1048 0.931 . S
C1033 C1032 1.391 . S
C1033 C1037 1.376 . S
C1034 C1032 1.394 . S
C1034 C1035 1.369 . S
C1034 C1038 1.531 . S
C1035 C1034 1.369 . S
C1035 C1036 1.410 . S
C1035 C1043 1.503 . S
C1036 C1035 1.410 . S
C1036 C1037 1.392 . S
C1036 C1039 1.511 . S
C1037 C1033 1.376 . S
C1037 C1036 1.392 . S
C1037 H1049 0.929 . S
C1038 C1034 1.531 . S
C1038 H1050 0.960 . S
C1038 H1051 0.962 . S
C1038 H1052 0.960 . S
C1039 C1036 1.511 . S
C1039 H1053 0.961 . S
C1039 H1054 0.961 . S
C1039 H1055 0.961 . S
C1040 C1041 1.370 . S
C1040 C1042 1.363 . S
C1040 H1056 0.931 . S
C1041 C1040 1.370 . S
C1041 C1045 1.408 . S
C1042 C1040 1.363 . S
C1042 C1043 1.370 . S
C1042 C1046 1.524 . S
C1043 C1035 1.503 . S
C1043 C1042 1.370 . S
C1043 C1044 1.403 . S
C1044 C1043 1.403 . S
C1044 C1045 1.404 . S
C1044 C1047 1.539 . S
C1045 C1041 1.408 . S
C1045 C1044 1.404 . S
C1045 H1057 0.930 . S
C1046 C1042 1.524 . S
C1046 H1058 0.956 . S
C1046 H1059 0.961 . S
C1046 H1060 0.961 . S
C1047 C1044 1.539 . S
C1047 H1061 0.958 . S
C1047 H1062 0.961 . S
C1047 H1063 0.960 . S
H1048 C1032 0.931 . S
H1049 C1037 0.929 . S
H1050 C1038 0.960 . S
H1051 C1038 0.962 . S
H1052 C1038 0.960 . S
H1053 C1039 0.961 . S
H1054 C1039 0.961 . S
H1055 C1039 0.961 . S
H1056 C1040 0.931 . S
H1057 C1045 0.930 . S
H1058 C1046 0.956 . S
H1059 C1046 0.961 . S
H1060 C1046 0.961 . S
H1061 C1047 0.958 . S
H1062 C1047 0.961 . S
H1063 C1047 0.960 . S
C1064 C1065 1.391 . S
C1064 C1066 1.394 . S
C1064 H1080 0.931 . S
C1065 C1064 1.391 . S
C1065 C1069 1.376 . S
C1066 C1064 1.394 . S
C1066 C1067 1.369 . S
C1066 C1070 1.531 . S
C1067 C1066 1.369 . S
C1067 C1068 1.410 . S
C1067 C1075 1.503 . S
C1068 C1067 1.410 . S
C1068 C1069 1.392 . S
C1068 C1071 1.511 . S
C1069 C1065 1.376 . S
C1069 C1068 1.392 . S
C1069 H1081 0.929 . S
C1070 C1066 1.531 . S
C1070 H1082 0.960 . S
C1070 H1083 0.962 . S
C1070 H1084 0.960 . S
C1071 C1068 1.511 . S
C1071 H1085 0.961 . S
C1071 H1086 0.961 . S
C1071 H1087 0.961 . S
C1072 C1073 1.370 . S
C1072 C1074 1.363 . S
C1072 H1088 0.931 . S
C1073 C1072 1.370 . S
C1073 C1077 1.408 . S
C1074 C1072 1.363 . S
C1074 C1075 1.370 . S
C1074 C1078 1.524 . S
C1075 C1067 1.503 . S
C1075 C1074 1.370 . S
C1075 C1076 1.403 . S
C1076 C1075 1.403 . S
C1076 C1077 1.404 . S
C1076 C1079 1.539 . S
C1077 C1073 1.408 . S
C1077 C1076 1.404 . S
C1077 H1089 0.930 . S
C1078 C1074 1.524 . S
C1078 H1090 0.956 . S
C1078 H1091 0.961 . S
C1078 H1092 0.961 . S
C1079 C1076 1.539 . S
C1079 H1093 0.958 . S
C1079 H1094 0.961 . S
C1079 H1095 0.960 . S
H1080 C1064 0.931 . S
H1081 C1069 0.929 . S
H1082 C1070 0.960 . S
H1083 C1070 0.962 . S
H1084 C1070 0.960 . S
H1085 C1071 0.961 . S
H1086 C1071 0.961 . S
H1087 C1071 0.961 . S
H1088 C1072 0.931 . S
H1089 C1077 0.930 . S
H1090 C1078 0.956 . S
H1091 C1078 0.961 . S
H1092 C1078 0.961 . S
H1093 C1079 0.958 . S
H1094 C1079 0.961 . S
H1095 C1079 0.960 . S
C1096 C1097 1.391 . S
C1096 C1098 1.394 . S
C1096 H1112 0.931 . S
C1097 C1096 1.391 . S
C1097 C1101 1.376 . S
C1098 C1096 1.394 . S
C1098 C1099 1.369 . S
C1098 C1102 1.531 . S
C1099 C1098 1.369 . S
C1099 C1100 1.410 . S
C1099 C1107 1.503 . S
C1100 C1099 1.410 . S
C1100 C1101 1.392 . S
C1100 C1103 1.511 . S
C1101 C1097 1.376 . S
C1101 C1100 1.392 . S
C1101 H1113 0.929 . S
C1102 C1098 1.531 . S
C1102 H1114 0.960 . S
C1102 H1115 0.962 . S
C1102 H1116 0.960 . S
C1103 C1100 1.511 . S
C1103 H1117 0.961 . S
C1103 H1118 0.961 . S
C1103 H1119 0.961 . S
C1104 C1105 1.370 . S
C1104 C1106 1.363 . S
C1104 H1120 0.931 . S
C1105 C1104 1.370 . S
C1105 C1109 1.408 . S
C1106 C1104 1.363 . S
C1106 C1107 1.370 . S
C1106 C1110 1.524 . S
C1107 C1099 1.503 . S
C1107 C1106 1.370 . S
C1107 C1108 1.403 . S
C1108 C1107 1.403 . S
C1108 C1109 1.404 . S
C1108 C1111 1.539 . S
C1109 C1105 1.408 . S
C1109 C1108 1.404 . S
C1109 H1121 0.930 . S
C1110 C1106 1.524 . S
C1110 H1122 0.956 . S
C1110 H1123 0.961 . S
C1110 H1124 0.961 . S
C1111 C1108 1.539 . S
C1111 H1125 0.958 . S
C1111 H1126 0.961 . S
C1111 H1127 0.960 . S
H1112 C1096 0.931 . S
H1113 C1101 0.929 . S
H1114 C1102 0.960 . S
H1115 C1102 0.962 . S
H1116 C1102 0.960 . S
H1117 C1103 0.961 . S
H1118 C1103 0.961 . S
H1119 C1103 0.961 . S
H1120 C1104 0.931 . S
H1121 C1109 0.930 . S
H1122 C1110 0.956 . S
H1123 C1110 0.961 . S
H1124 C1110 0.961 . S
H1125 C1111 0.958 . S
H1126 C1111 0.961 . S
H1127 C1111 0.960 . S
C1128 C1129 1.391 . S
C1128 C1130 1.394 . S
C1128 H1144 0.931 . S
C1129 C1128 1.391 . S
C1129 C1133 1.376 . S
C1130 C1128 1.394 . S
C1130 C1131 1.369 . S
C1130 C1134 1.531 . S
C1131 C1130 1.369 . S
C1131 C1132 1.410 . S
C1131 C1139 1.503 . S
C1132 C1131 1.410 . S
C1132 C1133 1.392 . S
C1132 C1135 1.511 . S
C1133 C1129 1.376 . S
C1133 C1132 1.392 . S
C1133 H1145 0.929 . S
C1134 C1130 1.531 . S
C1134 H1146 0.960 . S
C1134 H1147 0.962 . S
C1134 H1148 0.960 . S
C1135 C1132 1.511 . S
C1135 H1149 0.961 . S
C1135 H1150 0.961 . S
C1135 H1151 0.961 . S
C1136 C1137 1.370 . S
C1136 C1138 1.363 . S
C1136 H1152 0.931 . S
C1137 C1136 1.370 . S
C1137 C1141 1.408 . S
C1138 C1136 1.363 . S
C1138 C1139 1.370 . S
C1138 C1142 1.524 . S
C1139 C1131 1.503 . S
C1139 C1138 1.370 . S
C1139 C1140 1.403 . S
C1140 C1139 1.403 . S
C1140 C1141 1.404 . S
C1140 C1143 1.539 . S
C1141 C1137 1.408 . S
C1141 C1140 1.404 . S
C1141 H1153 0.930 . S
C1142 C1138 1.524 . S
C1142 H1154 0.956 . S
C1142 H1155 0.961 . S
C1142 H1156 0.961 . S
C1143 C1140 1.539 . S
C1143 H1157 0.958 . S
C1143 H1158 0.961 . S
C1143 H1159 0.960 . S
H1144 C1128 0.931 . S
H1145 C1133 0.929 . S
H1146 C1134 0.960 . S
H1147 C1134 0.962 . S
H1148 C1134 0.960 . S
H1149 C1135 0.961 . S
H1150 C1135 0.961 . S
H1151 C1135 0.961 . S
H1152 C1136 0.931 . S
H1153 C1141 0.930 . S
H1154 C1142 0.956 . S
H1155 C1142 0.961 . S
H1156 C1142 0.961 . S
H1157 C1143 0.958 . S
H1158 C1143 0.961 . S
H1159 C1143 0.960 . S
C1160 C1161 1.391 . S
C1160 C1162 1.394 . S
C1160 H1176 0.931 . S
C1161 C1160 1.391 . S
C1161 C1165 1.376 . S
C1162 C1160 1.394 . S
C1162 C1163 1.369 . S
C1162 C1166 1.531 . S
C1163 C1162 1.369 . S
C1163 C1164 1.410 . S
C1163 C1171 1.503 . S
C1164 C1163 1.410 . S
C1164 C1165 1.392 . S
C1164 C1167 1.511 . S
C1165 C1161 1.376 . S
C1165 C1164 1.392 . S
C1165 H1177 0.929 . S
C1166 C1162 1.531 . S
C1166 H1178 0.960 . S
C1166 H1179 0.962 . S
C1166 H1180 0.960 . S
C1167 C1164 1.511 . S
C1167 H1181 0.961 . S
C1167 H1182 0.961 . S
C1167 H1183 0.961 . S
C1168 C1169 1.358 1_655 S
C1168 C1170 1.359 1_655 S
C1168 H1184 0.948 . S
C1169 C1168 1.358 1_455 S
C1169 C1173 1.408 . S
C1170 C1168 1.359 1_455 S
C1170 C1171 1.370 . S
C1170 C1174 1.524 1_455 S
C1171 C1163 1.503 . S
C1171 C1170 1.370 . S
C1171 C1172 1.403 . S
C1172 C1171 1.403 . S
C1172 C1173 1.404 . S
C1172 C1175 1.539 . S
C1173 C1169 1.408 . S
C1173 C1172 1.404 . S
C1173 H1185 0.930 . S
C1174 C1170 1.524 1_655 S
C1174 H1186 0.956 . S
C1174 H1187 0.961 . S
C1174 H1188 0.961 . S
C1175 C1172 1.539 . S
C1175 H1189 0.958 . S
C1175 H1190 0.961 . S
C1175 H1191 0.960 . S
H1176 C1160 0.931 . S
H1177 C1165 0.929 . S
H1178 C1166 0.960 . S
H1179 C1166 0.962 . S
H1180 C1166 0.960 . S
H1181 C1167 0.961 . S
H1182 C1167 0.961 . S
H1183 C1167 0.961 . S
H1184 C1168 0.948 . S
H1185 C1173 0.930 . S
H1186 C1174 0.956 . S
H1187 C1174 0.961 . S
H1188 C1174 0.961 . S
H1189 C1175 0.958 . S
H1190 C1175 0.961 . S
H1191 C1175 0.960 . S
C1192 C1193 1.391 . S
C1192 C1194 1.394 . S
C1192 H1208 0.931 . S
C1193 C1192 1.391 . S
C1193 C1197 1.376 . S
C1194 C1192 1.394 . S
C1194 C1195 1.369 . S
C1194 C1198 1.531 . S
C1195 C1194 1.369 . S
C1195 C1196 1.410 . S
C1195 C1203 1.503 . S
C1196 C1195 1.410 . S
C1196 C1197 1.392 . S
C1196 C1199 1.511 . S
C1197 C1193 1.376 . S
C1197 C1196 1.392 . S
C1197 H1209 0.929 . S
C1198 C1194 1.531 . S
C1198 H1210 0.960 . S
C1198 H1211 0.962 . S
C1198 H1212 0.960 . S
C1199 C1196 1.511 . S
C1199 H1213 0.961 . S
C1199 H1214 0.961 . S
C1199 H1215 0.961 . S
C1200 C1201 1.370 . S
C1200 C1202 1.363 . S
C1200 H1216 0.931 . S
C1201 C1200 1.370 . S
C1201 C1205 1.408 . S
C1202 C1200 1.363 . S
C1202 C1203 1.370 . S
C1202 C1206 1.524 . S
C1203 C1195 1.503 . S
C1203 C1202 1.370 . S
C1203 C1204 1.403 . S
C1204 C1203 1.403 . S
C1204 C1205 1.404 . S
C1204 C1207 1.539 . S
C1205 C1201 1.408 . S
C1205 C1204 1.404 . S
C1205 H1217 0.930 . S
C1206 C1202 1.524 . S
C1206 H1218 0.956 . S
C1206 H1219 0.961 . S
C1206 H1220 0.961 . S
C1207 C1204 1.539 . S
C1207 H1221 0.958 . S
C1207 H1222 0.961 . S
C1207 H1223 0.960 . S
H1208 C1192 0.931 . S
H1209 C1197 0.929 . S
H1210 C1198 0.960 . S
H1211 C1198 0.962 . S
H1212 C1198 0.960 . S
H1213 C1199 0.961 . S
H1214 C1199 0.961 . S
H1215 C1199 0.961 . S
H1216 C1200 0.931 . S
H1217 C1205 0.930 . S
H1218 C1206 0.956 . S
H1219 C1206 0.961 . S
H1220 C1206 0.961 . S
H1221 C1207 0.958 . S
H1222 C1207 0.961 . S
H1223 C1207 0.960 . S
C1224 C1225 1.391 1_455 S
C1224 C1226 1.394 . S
C1224 H1240 0.931 . S
C1225 C1224 1.391 1_655 S
C1225 C1229 1.376 . S
C1226 C1224 1.394 . S
C1226 C1227 1.369 1_455 S
C1226 C1230 1.531 . S
C1227 C1226 1.369 1_655 S
C1227 C1228 1.410 . S
C1227 C1235 1.503 . S
C1228 C1227 1.410 . S
C1228 C1229 1.392 . S
C1228 C1231 1.511 . S
C1229 C1225 1.376 . S
C1229 C1228 1.392 . S
C1229 H1241 0.929 . S
C1230 C1226 1.531 . S
C1230 H1242 0.960 . S
C1230 H1243 0.962 . S
C1230 H1244 0.960 . S
C1231 C1228 1.511 . S
C1231 H1245 0.961 . S
C1231 H1246 0.961 . S
C1231 H1247 0.961 . S
C1232 C1233 1.370 . S
C1232 C1234 1.363 . S
C1232 H1248 0.931 . S
C1233 C1232 1.370 . S
C1233 C1237 1.408 . S
C1234 C1232 1.363 . S
C1234 C1235 1.370 . S
C1234 C1238 1.524 . S
C1235 C1227 1.503 . S
C1235 C1234 1.370 . S
C1235 C1236 1.403 . S
C1236 C1235 1.403 . S
C1236 C1237 1.404 . S
C1236 C1239 1.539 . S
C1237 C1233 1.408 . S
C1237 C1236 1.404 . S
C1237 H1249 0.930 . S
C1238 C1234 1.524 . S
C1238 H1250 0.956 1_655 S
C1238 H1251 0.961 . S
C1238 H1252 0.961 . S
C1239 C1236 1.539 . S
C1239 H1253 0.958 . S
C1239 H1254 0.961 . S
C1239 H1255 0.960 . S
H1240 C1224 0.931 . S
H1241 C1229 0.929 . S
H1242 C1230 0.960 . S
H1243 C1230 0.962 . S
H1244 C1230 0.960 . S
H1245 C1231 0.961 . S
H1246 C1231 0.961 . S
H1247 C1231 0.961 . S
H1248 C1232 0.931 . S
H1249 C1237 0.930 . S
H1250 C1238 0.956 1_455 S
H1251 C1238 0.961 . S
H1252 C1238 0.961 . S
H1253 C1239 0.958 . S
H1254 C1239 0.961 . S
H1255 C1239 0.960 . S
C1256 C1257 1.391 . S
C1256 C1258 1.394 . S
C1256 H1272 0.931 . S
C1257 C1256 1.391 . S
C1257 C1261 1.376 . S
C1258 C1256 1.394 . S
C1258 C1259 1.369 . S
C1258 C1262 1.531 . S
C1259 C1258 1.369 . S
C1259 C1260 1.410 . S
C1259 C1267 1.503 . S
C1260 C1259 1.410 . S
C1260 C1261 1.392 . S
C1260 C1263 1.511 . S
C1261 C1257 1.376 . S
C1261 C1260 1.392 . S
C1261 H1273 0.929 . S
C1262 C1258 1.531 . S
C1262 H1274 0.960 . S
C1262 H1275 0.962 . S
C1262 H1276 0.960 . S
C1263 C1260 1.511 . S
C1263 H1277 0.961 . S
C1263 H1278 0.961 . S
C1263 H1279 0.961 . S
C1264 C1265 1.370 . S
C1264 C1266 1.363 . S
C1264 H1280 0.931 . S
C1265 C1264 1.370 . S
C1265 C1269 1.408 . S
C1266 C1264 1.363 . S
C1266 C1267 1.370 . S
C1266 C1270 1.524 . S
C1267 C1259 1.503 . S
C1267 C1266 1.370 . S
C1267 C1268 1.403 . S
C1268 C1267 1.403 . S
C1268 C1269 1.404 . S
C1268 C1271 1.539 . S
C1269 C1265 1.408 . S
C1269 C1268 1.404 . S
C1269 H1281 0.930 . S
C1270 C1266 1.524 . S
C1270 H1282 0.956 . S
C1270 H1283 0.961 . S
C1270 H1284 0.961 . S
C1271 C1268 1.539 . S
C1271 H1285 0.958 . S
C1271 H1286 0.961 . S
C1271 H1287 0.960 . S
H1272 C1256 0.931 . S
H1273 C1261 0.929 . S
H1274 C1262 0.960 . S
H1275 C1262 0.962 . S
H1276 C1262 0.960 . S
H1277 C1263 0.961 . S
H1278 C1263 0.961 . S
H1279 C1263 0.961 . S
H1280 C1264 0.931 . S
H1281 C1269 0.930 . S
H1282 C1270 0.956 . S
H1283 C1270 0.961 . S
H1284 C1270 0.961 . S
H1285 C1271 0.958 . S
H1286 C1271 0.961 . S
H1287 C1271 0.960 . S
C1288 C1289 1.391 . S
C1288 C1290 1.394 . S
C1288 H1304 0.931 . S
C1289 C1288 1.391 . S
C1289 C1293 1.376 . S
C1290 C1288 1.394 . S
C1290 C1291 1.369 . S
C1290 C1294 1.531 . S
C1291 C1290 1.369 . S
C1291 C1292 1.410 . S
C1291 C1299 1.503 . S
C1292 C1291 1.410 . S
C1292 C1293 1.392 . S
C1292 C1295 1.511 . S
C1293 C1289 1.376 . S
C1293 C1292 1.392 . S
C1293 H1305 0.929 . S
C1294 C1290 1.531 . S
C1294 H1306 0.960 . S
C1294 H1307 0.962 . S
C1294 H1308 0.960 . S
C1295 C1292 1.511 . S
C1295 H1309 0.961 . S
C1295 H1310 0.961 . S
C1295 H1311 0.961 . S
C1296 C1297 1.370 . S
C1296 C1298 1.363 . S
C1296 H1312 0.931 . S
C1297 C1296 1.370 . S
C1297 C1301 1.408 . S
C1298 C1296 1.363 . S
C1298 C1299 1.370 . S
C1298 C1302 1.524 . S
C1299 C1291 1.503 . S
C1299 C1298 1.370 . S
C1299 C1300 1.403 . S
C1300 C1299 1.403 . S
C1300 C1301 1.404 . S
C1300 C1303 1.539 . S
C1301 C1297 1.408 . S
C1301 C1300 1.404 . S
C1301 H1313 0.930 . S
C1302 C1298 1.524 . S
C1302 H1314 0.956 . S
C1302 H1315 0.961 . S
C1302 H1316 0.961 . S
C1303 C1300 1.539 . S
C1303 H1317 0.958 . S
C1303 H1318 0.961 . S
C1303 H1319 0.960 . S
H1304 C1288 0.931 . S
H1305 C1293 0.929 . S
H1306 C1294 0.960 . S
H1307 C1294 0.962 . S
H1308 C1294 0.960 . S
H1309 C1295 0.961 . S
H1310 C1295 0.961 . S
H1311 C1295 0.961 . S
H1312 C1296 0.931 . S
H1313 C1301 0.930 . S
H1314 C1302 0.956 . S
H1315 C1302 0.961 . S
H1316 C1302 0.961 . S
H1317 C1303 0.958 . S
H1318 C1303 0.961 . S
H1319 C1303 0.960 . S
C1320 C1321 1.391 . S
C1320 C1322 1.394 . S
C1320 H1336 0.931 . S
C1321 C1320 1.391 . S
C1321 C1325 1.376 . S
C1322 C1320 1.394 . S
C1322 C1323 1.369 . S
C1322 C1326 1.531 . S
C1323 C1322 1.369 . S
C1323 C1324 1.410 . S
C1323 C1331 1.503 . S
C1324 C1323 1.410 . S
C1324 C1325 1.392 . S
C1324 C1327 1.511 1_556 S
C1325 C1321 1.376 . S
C1325 C1324 1.392 . S
C1325 H1337 0.929 1_556 S
C1326 C1322 1.531 . S
C1326 H1338 0.960 . S
C1326 H1339 0.962 . S
C1326 H1340 0.960 . S
C1327 C1324 1.511 1_554 S
C1327 H1341 0.961 . S
C1327 H1342 0.961 . S
C1327 H1343 0.961 . S
C1328 C1329 1.370 1_554 S
C1328 C1330 1.363 . S
C1328 H1344 0.931 . S
C1329 C1328 1.370 1_556 S
C1329 C1333 1.408 . S
C1330 C1328 1.363 . S
C1330 C1331 1.370 1_554 S
C1330 C1334 1.524 . S
C1331 C1323 1.503 . S
C1331 C1330 1.370 1_556 S
C1331 C1332 1.403 . S
C1332 C1331 1.403 . S
C1332 C1333 1.404 . S
C1332 C1335 1.539 . S
C1333 C1329 1.408 . S
C1333 C1332 1.404 . S
C1333 H1345 0.930 . S
C1334 C1330 1.524 . S
C1334 H1346 0.956 . S
C1334 H1347 0.961 . S
C1334 H1348 0.961 . S
C1335 C1332 1.539 . S
C1335 H1349 0.958 . S
C1335 H1350 0.961 . S
C1335 H1351 0.960 . S
H1336 C1320 0.931 . S
H1337 C1325 0.929 1_554 S
H1338 C1326 0.960 . S
H1339 C1326 0.962 . S
H1340 C1326 0.960 . S
H1341 C1327 0.961 . S
H1342 C1327 0.961 . S
H1343 C1327 0.961 . S
H1344 C1328 0.931 . S
H1345 C1333 0.930 . S
H1346 C1334 0.956 . S
H1347 C1334 0.961 . S
H1348 C1334 0.961 . S
H1349 C1335 0.958 . S
H1350 C1335 0.961 . S
H1351 C1335 0.960 . S
C1352 C1353 1.391 . S
C1352 C1354 1.394 . S
C1352 H1368 0.931 . S
C1353 C1352 1.391 . S
C1353 C1357 1.376 . S
C1354 C1352 1.394 . S
C1354 C1355 1.369 . S
C1354 C1358 1.531 . S
C1355 C1354 1.369 . S
C1355 C1356 1.410 . S
C1355 C1363 1.503 . S
C1356 C1355 1.410 . S
C1356 C1357 1.392 . S
C1356 C1359 1.511 . S
C1357 C1353 1.376 . S
C1357 C1356 1.392 . S
C1357 H1369 0.929 . S
C1358 C1354 1.531 . S
C1358 H1370 0.960 . S
C1358 H1371 0.962 . S
C1358 H1372 0.960 . S
C1359 C1356 1.511 . S
C1359 H1373 0.961 . S
C1359 H1374 0.961 . S
C1359 H1375 0.961 . S
C1360 C1361 1.370 . S
C1360 C1362 1.363 . S
C1360 H1376 0.931 . S
C1361 C1360 1.370 . S
C1361 C1365 1.408 . S
C1362 C1360 1.363 . S
C1362 C1363 1.370 . S
C1362 C1366 1.524 . S
C1363 C1355 1.503 . S
C1363 C1362 1.370 . S
C1363 C1364 1.403 . S
C1364 C1363 1.403 . S
C1364 C1365 1.404 . S
C1364 C1367 1.539 . S
C1365 C1361 1.408 . S
C1365 C1364 1.404 . S
C1365 H1377 0.930 . S
C1366 C1362 1.524 . S
C1366 H1378 0.956 . S
C1366 H1379 0.961 . S
C1366 H1380 0.961 . S
C1367 C1364 1.539 . S
C1367 H1381 0.958 . S
C1367 H1382 0.961 . S
C1367 H1383 0.960 . S
H1368 C1352 0.931 . S
H1369 C1357 0.929 . S
H1370 C1358 0.960 . S
H1371 C1358 0.962 . S
H1372 C1358 0.960 . S
H1373 C1359 0.961 . S
H1374 C1359 0.961 . S
H1375 C1359 0.961 . S
H1376 C1360 0.931 . S
H1377 C1365 0.930 . S
H1378 C1366 0.956 . S
H1379 C1366 0.961 . S
H1380 C1366 0.961 . S
H1381 C1367 0.958 . S
H1382 C1367 0.961 . S
H1383 C1367 0.960 . S
C1384 C1385 1.391 . S
C1384 C1386 1.394 . S
C1384 H1400 0.931 . S
C1385 C1384 1.391 . S
C1385 C1389 1.376 . S
C1386 C1384 1.394 . S
C1386 C1387 1.369 . S
C1386 C1390 1.531 . S
C1387 C1386 1.369 . S
C1387 C1388 1.410 . S
C1387 C1395 1.503 . S
C1388 C1387 1.410 . S
C1388 C1389 1.392 . S
C1388 C1391 1.511 . S
C1389 C1385 1.376 . S
C1389 C1388 1.392 . S
C1389 H1401 0.929 . S
C1390 C1386 1.531 . S
C1390 H1402 0.960 . S
C1390 H1403 0.962 . S
C1390 H1404 0.960 . S
C1391 C1388 1.511 . S
C1391 H1405 0.961 . S
C1391 H1406 0.961 . S
C1391 H1407 0.961 . S
C1392 C1393 1.370 . S
C1392 C1394 1.363 . S
C1392 H1408 0.931 . S
C1393 C1392 1.370 . S
C1393 C1397 1.408 . S
C1394 C1392 1.363 . S
C1394 C1395 1.370 . S
C1394 C1398 1.524 . S
C1395 C1387 1.503 . S
C1395 C1394 1.370 . S
C1395 C1396 1.403 . S
C1396 C1395 1.403 . S
C1396 C1397 1.404 . S
C1396 C1399 1.539 . S
C1397 C1393 1.408 . S
C1397 C1396 1.404 . S
C1397 H1409 0.930 . S
C1398 C1394 1.524 . S
C1398 H1410 0.956 . S
C1398 H1411 0.961 . S
C1398 H1412 0.961 . S
C1399 C1396 1.539 . S
C1399 H1413 0.958 . S
C1399 H1414 0.961 . S
C1399 H1415 0.960 . S
H1400 C1384 0.931 . S
H1401 C1389 0.929 . S
H1402 C1390 0.960 . S
H1403 C1390 0.962 . S
H1404 C1390 0.960 . S
H1405 C1391 0.961 . S
H1406 C1391 0.961 . S
H1407 C1391 0.961 . S
H1408 C1392 0.931 . S
H1409 C1397 0.930 . S
H1410 C1398 0.956 . S
H1411 C1398 0.961 . S
H1412 C1398 0.961 . S
H1413 C1399 0.958 . S
H1414 C1399 0.961 . S
H1415 C1399 0.960 . S
C1416 C1417 1.391 . S
C1416 C1418 1.394 . S
C1416 H1432 0.931 . S
C1417 C1416 1.391 . S
C1417 C1421 1.376 . S
C1418 C1416 1.394 . S
C1418 C1419 1.369 . S
C1418 C1422 1.531 . S
C1419 C1418 1.369 . S
C1419 C1420 1.410 . S
C1419 C1427 1.503 . S
C1420 C1419 1.410 . S
C1420 C1421 1.392 . S
C1420 C1423 1.511 . S
C1421 C1417 1.376 . S
C1421 C1420 1.392 . S
C1421 H1433 0.929 . S
C1422 C1418 1.531 . S
C1422 H1434 0.960 . S
C1422 H1435 0.962 . S
C1422 H1436 0.960 . S
C1423 C1420 1.511 . S
C1423 H1437 0.961 . S
C1423 H1438 0.961 . S
C1423 H1439 0.961 . S
C1424 C1425 1.370 . S
C1424 C1426 1.363 . S
C1424 H1440 0.931 . S
C1425 C1424 1.370 . S
C1425 C1429 1.408 . S
C1426 C1424 1.363 . S
C1426 C1427 1.370 . S
C1426 C1430 1.524 . S
C1427 C1419 1.503 . S
C1427 C1426 1.370 . S
C1427 C1428 1.403 . S
C1428 C1427 1.403 . S
C1428 C1429 1.404 . S
C1428 C1431 1.539 . S
C1429 C1425 1.408 . S
C1429 C1428 1.404 . S
C1429 H1441 0.930 . S
C1430 C1426 1.524 . S
C1430 H1442 0.956 . S
C1430 H1443 0.961 . S
C1430 H1444 0.961 . S
C1431 C1428 1.539 . S
C1431 H1445 0.958 . S
C1431 H1446 0.961 . S
C1431 H1447 0.960 . S
H1432 C1416 0.931 . S
H1433 C1421 0.929 . S
H1434 C1422 0.960 . S
H1435 C1422 0.962 . S
H1436 C1422 0.960 . S
H1437 C1423 0.961 . S
H1438 C1423 0.961 . S
H1439 C1423 0.961 . S
H1440 C1424 0.931 . S
H1441 C1429 0.930 . S
H1442 C1430 0.956 . S
H1443 C1430 0.961 . S
H1444 C1430 0.961 . S
H1445 C1431 0.958 . S
H1446 C1431 0.961 . S
H1447 C1431 0.960 . S
C1448 C1449 1.391 . S
C1448 C1450 1.394 . S
C1448 H1464 0.931 . S
C1449 C1448 1.391 . S
C1449 C1453 1.376 . S
C1450 C1448 1.394 . S
C1450 C1451 1.369 . S
C1450 C1454 1.531 . S
C1451 C1450 1.369 . S
C1451 C1452 1.410 . S
C1451 C1459 1.503 . S
C1452 C1451 1.410 . S
C1452 C1453 1.392 . S
C1452 C1455 1.511 . S
C1453 C1449 1.376 . S
C1453 C1452 1.392 . S
C1453 H1465 0.929 . S
C1454 C1450 1.531 . S
C1454 H1466 0.960 . S
C1454 H1467 0.962 . S
C1454 H1468 0.960 . S
C1455 C1452 1.511 . S
C1455 H1469 0.961 . S
C1455 H1470 0.961 . S
C1455 H1471 0.961 . S
C1456 C1457 1.370 . S
C1456 C1458 1.363 . S
C1456 H1472 0.931 . S
C1457 C1456 1.370 . S
C1457 C1461 1.408 . S
C1458 C1456 1.363 . S
C1458 C1459 1.370 . S
C1458 C1462 1.524 . S
C1459 C1451 1.503 . S
C1459 C1458 1.370 . S
C1459 C1460 1.403 . S
C1460 C1459 1.403 . S
C1460 C1461 1.404 . S
C1460 C1463 1.539 . S
C1461 C1457 1.408 . S
C1461 C1460 1.404 . S
C1461 H1473 0.930 . S
C1462 C1458 1.524 . S
C1462 H1474 0.956 . S
C1462 H1475 0.961 . S
C1462 H1476 0.961 . S
C1463 C1460 1.539 . S
C1463 H1477 0.958 . S
C1463 H1478 0.961 . S
C1463 H1479 0.960 . S
H1464 C1448 0.931 . S
H1465 C1453 0.929 . S
H1466 C1454 0.960 . S
H1467 C1454 0.962 . S
H1468 C1454 0.960 . S
H1469 C1455 0.961 . S
H1470 C1455 0.961 . S
H1471 C1455 0.961 . S
H1472 C1456 0.931 . S
H1473 C1461 0.930 . S
H1474 C1462 0.956 . S
H1475 C1462 0.961 . S
H1476 C1462 0.961 . S
H1477 C1463 0.958 . S
H1478 C1463 0.961 . S
H1479 C1463 0.960 . S
C1480 C1481 1.391 . S
C1480 C1482 1.394 . S
C1480 H1496 0.931 . S
C1481 C1480 1.391 . S
C1481 C1485 1.376 . S
C1482 C1480 1.394 . S
C1482 C1483 1.369 . S
C1482 C1486 1.531 . S
C1483 C1482 1.369 . S
C1483 C1484 1.410 . S
C1483 C1491 1.503 . S
C1484 C1483 1.410 . S
C1484 C1485 1.392 . S
C1484 C1487 1.511 . S
C1485 C1481 1.376 . S
C1485 C1484 1.392 . S
C1485 H1497 0.929 . S
C1486 C1482 1.531 . S
C1486 H1498 0.960 . S
C1486 H1499 0.962 . S
C1486 H1500 0.960 . S
C1487 C1484 1.511 . S
C1487 H1501 0.961 . S
C1487 H1502 0.961 . S
C1487 H1503 0.961 . S
C1488 C1489 1.370 . S
C1488 C1490 1.363 . S
C1488 H1504 0.931 . S
C1489 C1488 1.370 . S
C1489 C1493 1.408 . S
C1490 C1488 1.363 . S
C1490 C1491 1.370 . S
C1490 C1494 1.524 . S
C1491 C1483 1.503 . S
C1491 C1490 1.370 . S
C1491 C1492 1.403 . S
C1492 C1491 1.403 . S
C1492 C1493 1.404 . S
C1492 C1495 1.539 . S
C1493 C1489 1.408 . S
C1493 C1492 1.404 . S
C1493 H1505 0.930 . S
C1494 C1490 1.524 . S
C1494 H1506 0.956 . S
C1494 H1507 0.961 . S
C1494 H1508 0.961 . S
C1495 C1492 1.539 . S
C1495 H1509 0.958 . S
C1495 H1510 0.961 . S
C1495 H1511 0.960 . S
H1496 C1480 0.931 . S
H1497 C1485 0.929 . S
H1498 C1486 0.960 . S
H1499 C1486 0.962 . S
H1500 C1486 0.960 . S
H1501 C1487 0.961 . S
H1502 C1487 0.961 . S
H1503 C1487 0.961 . S
H1504 C1488 0.931 . S
H1505 C1493 0.930 . S
H1506 C1494 0.956 . S
H1507 C1494 0.961 . S
H1508 C1494 0.961 . S
H1509 C1495 0.958 . S
H1510 C1495 0.961 . S
H1511 C1495 0.960 . S
C1512 C1513 1.391 . S
C1512 C1514 1.394 . S
C1512 H1528 0.931 . S
C1513 C1512 1.391 . S
C1513 C1517 1.376 . S
C1514 C1512 1.394 . S
C1514 C1515 1.369 . S
C1514 C1518 1.531 . S
C1515 C1514 1.369 . S
C1515 C1516 1.410 . S
C1515 C1523 1.503 . S
C1516 C1515 1.410 . S
C1516 C1517 1.392 . S
C1516 C1519 1.511 . S
C1517 C1513 1.376 . S
C1517 C1516 1.392 . S
C1517 H1529 0.929 . S
C1518 C1514 1.531 . S
C1518 H1530 0.960 . S
C1518 H1531 0.962 . S
C1518 H1532 0.960 . S
C1519 C1516 1.511 . S
C1519 H1533 0.961 . S
C1519 H1534 0.961 . S
C1519 H1535 0.961 . S
C1520 C1521 1.370 . S
C1520 C1522 1.363 . S
C1520 H1536 0.931 . S
C1521 C1520 1.370 . S
C1521 C1525 1.408 . S
C1522 C1520 1.363 . S
C1522 C1523 1.370 . S
C1522 C1526 1.524 . S
C1523 C1515 1.503 . S
C1523 C1522 1.370 . S
C1523 C1524 1.403 . S
C1524 C1523 1.403 . S
C1524 C1525 1.404 . S
C1524 C1527 1.539 . S
C1525 C1521 1.408 . S
C1525 C1524 1.404 . S
C1525 H1537 0.930 . S
C1526 C1522 1.524 . S
C1526 H1538 0.956 . S
C1526 H1539 0.961 . S
C1526 H1540 0.961 . S
C1527 C1524 1.539 . S
C1527 H1541 0.958 . S
C1527 H1542 0.961 . S
C1527 H1543 0.960 . S
H1528 C1512 0.931 . S
H1529 C1517 0.929 . S
H1530 C1518 0.960 . S
H1531 C1518 0.962 . S
H1532 C1518 0.960 . S
H1533 C1519 0.961 . S
H1534 C1519 0.961 . S
H1535 C1519 0.961 . S
H1536 C1520 0.931 . S
H1537 C1525 0.930 . S
H1538 C1526 0.956 . S
H1539 C1526 0.961 . S
H1540 C1526 0.961 . S
H1541 C1527 0.958 . S
H1542 C1527 0.961 . S
H1543 C1527 0.960 . S
C1544 C1545 1.380 1_565 S
C1544 C1546 1.396 . S
C1544 H1560 0.939 . S
C1545 C1544 1.380 1_545 S
C1545 C1549 1.376 . S
C1546 C1544 1.396 . S
C1546 C1547 1.369 1_565 S
C1546 C1550 1.531 . S
C1547 C1546 1.369 1_545 S
C1547 C1548 1.410 . S
C1547 C1555 1.503 . S
C1548 C1547 1.410 . S
C1548 C1549 1.392 . S
C1548 C1551 1.511 . S
C1549 C1545 1.376 . S
C1549 C1548 1.392 . S
C1549 H1561 0.929 . S
C1550 C1546 1.531 . S
C1550 H1562 0.960 . S
C1550 H1563 0.962 . S
C1550 H1564 0.960 . S
C1551 C1548 1.511 . S
C1551 H1565 0.961 . S
C1551 H1566 0.961 . S
C1551 H1567 0.961 . S
C1552 C1553 1.370 . S
C1552 C1554 1.363 . S
C1552 H1568 0.931 . S
C1553 C1552 1.370 . S
C1553 C1557 1.408 1_545 S
C1554 C1552 1.363 . S
C1554 C1555 1.370 . S
C1554 C1558 1.524 . S
C1555 C1547 1.503 . S
C1555 C1554 1.370 . S
C1555 C1556 1.403 1_545 S
C1556 C1555 1.403 1_565 S
C1556 C1557 1.404 . S
C1556 C1559 1.539 . S
C1557 C1553 1.408 1_565 S
C1557 C1556 1.404 . S
C1557 H1569 0.930 . S
C1558 C1554 1.524 . S
C1558 H1570 0.956 . S
C1558 H1571 0.961 . S
C1558 H1572 0.961 . S
C1559 C1556 1.539 . S
C1559 H1573 0.958 . S
C1559 H1574 0.961 . S
C1559 H1575 0.960 . S
H1560 C1544 0.939 . S
H1561 C1549 0.929 . S
H1562 C1550 0.960 . S
H1563 C1550 0.962 . S
H1564 C1550 0.960 . S
H1565 C1551 0.961 . S
H1566 C1551 0.961 . S
H1567 C1551 0.961 . S
H1568 C1552 0.931 . S
H1569 C1557 0.930 . S
H1570 C1558 0.956 . S
H1571 C1558 0.961 . S
H1572 C1558 0.961 . S
H1573 C1559 0.958 . S
H1574 C1559 0.961 . S
H1575 C1559 0.960 . S
C1576 C1577 1.391 . S
C1576 C1578 1.394 . S
C1576 H1592 0.931 . S
C1577 C1576 1.391 . S
C1577 C1581 1.376 . S
C1578 C1576 1.394 . S
C1578 C1579 1.369 . S
C1578 C1582 1.531 . S
C1579 C1578 1.369 . S
C1579 C1580 1.410 . S
C1579 C1587 1.503 . S
C1580 C1579 1.410 . S
C1580 C1581 1.392 . S
C1580 C1583 1.511 . S
C1581 C1577 1.376 . S
C1581 C1580 1.392 . S
C1581 H1593 0.929 . S
C1582 C1578 1.531 . S
C1582 H1594 0.960 . S
C1582 H1595 0.962 . S
C1582 H1596 0.960 . S
C1583 C1580 1.511 . S
C1583 H1597 0.961 . S
C1583 H1598 0.961 . S
C1583 H1599 0.961 . S
C1584 C1585 1.370 . S
C1584 C1586 1.363 . S
C1584 H1600 0.931 . S
C1585 C1584 1.370 . S
C1585 C1589 1.408 . S
C1586 C1584 1.363 . S
C1586 C1587 1.370 . S
C1586 C1590 1.524 . S
C1587 C1579 1.503 . S
C1587 C1586 1.370 . S
C1587 C1588 1.403 . S
C1588 C1587 1.403 . S
C1588 C1589 1.404 . S
C1588 C1591 1.539 . S
C1589 C1585 1.408 . S
C1589 C1588 1.404 . S
C1589 H1601 0.930 . S
C1590 C1586 1.524 . S
C1590 H1602 0.956 . S
C1590 H1603 0.961 . S
C1590 H1604 0.961 . S
C1591 C1588 1.539 . S
C1591 H1605 0.958 . S
C1591 H1606 0.961 . S
C1591 H1607 0.960 . S
H1592 C1576 0.931 . S
H1593 C1581 0.929 . S
H1594 C1582 0.960 . S
H1595 C1582 0.962 . S
H1596 C1582 0.960 . S
H1597 C1583 0.961 . S
H1598 C1583 0.961 . S
H1599 C1583 0.961 . S
H1600 C1584 0.931 . S
H1601 C1589 0.930 . S
H1602 C1590 0.956 . S
H1603 C1590 0.961 . S
H1604 C1590 0.961 . S
H1605 C1591 0.958 . S
H1606 C1591 0.961 . S
H1607 C1591 0.960 . S
C1608 C1609 1.391 . S
C1608 C1610 1.394 . S
C1608 H1624 0.931 . S
C1609 C1608 1.391 . S
C1609 C1613 1.376 . S
C1610 C1608 1.394 . S
C1610 C1611 1.369 . S
C1610 C1614 1.531 . S
C1611 C1610 1.369 . S
C1611 C1612 1.410 . S
C1611 C1619 1.503 . S
C1612 C1611 1.410 . S
C1612 C1613 1.392 . S
C1612 C1615 1.511 . S
C1613 C1609 1.376 . S
C1613 C1612 1.392 . S
C1613 H1625 0.929 . S
C1614 C1610 1.531 . S
C1614 H1626 0.960 . S
C1614 H1627 0.962 . S
C1614 H1628 0.960 . S
C1615 C1612 1.511 . S
C1615 H1629 0.961 . S
C1615 H1630 0.961 . S
C1615 H1631 0.961 . S
C1616 C1617 1.370 . S
C1616 C1618 1.363 . S
C1616 H1632 0.931 . S
C1617 C1616 1.370 . S
C1617 C1621 1.408 . S
C1618 C1616 1.363 . S
C1618 C1619 1.370 . S
C1618 C1622 1.524 . S
C1619 C1611 1.503 . S
C1619 C1618 1.370 . S
C1619 C1620 1.403 . S
C1620 C1619 1.403 . S
C1620 C1621 1.404 . S
C1620 C1623 1.539 . S
C1621 C1617 1.408 . S
C1621 C1620 1.404 . S
C1621 H1633 0.930 . S
C1622 C1618 1.524 . S
C1622 H1634 0.956 . S
C1622 H1635 0.961 . S
C1622 H1636 0.961 . S
C1623 C1620 1.539 . S
C1623 H1637 0.958 . S
C1623 H1638 0.961 . S
C1623 H1639 0.960 . S
H1624 C1608 0.931 . S
H1625 C1613 0.929 . S
H1626 C1614 0.960 . S
H1627 C1614 0.962 . S
H1628 C1614 0.960 . S
H1629 C1615 0.961 . S
H1630 C1615 0.961 . S
H1631 C1615 0.961 . S
H1632 C1616 0.931 . S
H1633 C1621 0.930 . S
H1634 C1622 0.956 . S
H1635 C1622 0.961 . S
H1636 C1622 0.961 . S
H1637 C1623 0.958 . S
H1638 C1623 0.961 . S
H1639 C1623 0.960 . S
C1640 C1641 1.391 . S
C1640 C1642 1.394 . S
C1640 H1656 0.931 . S
C1641 C1640 1.391 . S
C1641 C1645 1.376 . S
C1642 C1640 1.394 . S
C1642 C1643 1.369 . S
C1642 C1646 1.531 . S
C1643 C1642 1.369 . S
C1643 C1644 1.410 . S
C1643 C1651 1.503 . S
C1644 C1643 1.410 . S
C1644 C1645 1.392 . S
C1644 C1647 1.511 . S
C1645 C1641 1.376 . S
C1645 C1644 1.392 . S
C1645 H1657 0.929 . S
C1646 C1642 1.531 . S
C1646 H1658 0.960 . S
C1646 H1659 0.962 . S
C1646 H1660 0.960 . S
C1647 C1644 1.511 . S
C1647 H1661 0.961 . S
C1647 H1662 0.961 . S
C1647 H1663 0.961 . S
C1648 C1649 1.370 . S
C1648 C1650 1.363 . S
C1648 H1664 0.931 . S
C1649 C1648 1.370 . S
C1649 C1653 1.408 . S
C1650 C1648 1.363 . S
C1650 C1651 1.370 . S
C1650 C1654 1.524 . S
C1651 C1643 1.503 . S
C1651 C1650 1.370 . S
C1651 C1652 1.403 . S
C1652 C1651 1.403 . S
C1652 C1653 1.404 . S
C1652 C1655 1.539 . S
C1653 C1649 1.408 . S
C1653 C1652 1.404 . S
C1653 H1665 0.930 . S
C1654 C1650 1.524 . S
C1654 H1666 0.956 . S
C1654 H1667 0.961 . S
C1654 H1668 0.961 . S
C1655 C1652 1.539 . S
C1655 H1669 0.958 . S
C1655 H1670 0.961 . S
C1655 H1671 0.960 . S
H1656 C1640 0.931 . S
H1657 C1645 0.929 . S
H1658 C1646 0.960 . S
H1659 C1646 0.962 . S
H1660 C1646 0.960 . S
H1661 C1647 0.961 . S
H1662 C1647 0.961 . S
H1663 C1647 0.961 . S
H1664 C1648 0.931 . S
H1665 C1653 0.930 . S
H1666 C1654 0.956 . S
H1667 C1654 0.961 . S
H1668 C1654 0.961 . S
H1669 C1655 0.958 . S
H1670 C1655 0.961 . S
H1671 C1655 0.960 . S
C1672 C1673 1.391 . S
C1672 C1674 1.394 . S
C1672 H1688 0.931 . S
C1673 C1672 1.391 . S
C1673 C1677 1.376 . S
C1674 C1672 1.394 . S
C1674 C1675 1.369 . S
C1674 C1678 1.531 . S
C1675 C1674 1.369 . S
C1675 C1676 1.410 . S
C1675 C1683 1.503 . S
C1676 C1675 1.410 . S
C1676 C1677 1.392 . S
C1676 C1679 1.511 . S
C1677 C1673 1.376 . S
C1677 C1676 1.392 . S
C1677 H1689 0.929 . S
C1678 C1674 1.531 . S
C1678 H1690 0.960 . S
C1678 H1691 0.962 . S
C1678 H1692 0.960 . S
C1679 C1676 1.511 . S
C1679 H1693 0.961 . S
C1679 H1694 0.961 . S
C1679 H1695 0.961 . S
C1680 C1681 1.370 . S
C1680 C1682 1.363 . S
C1680 H1696 0.931 1_545 S
C1681 C1680 1.370 . S
C1681 C1685 1.408 . S
C1682 C1680 1.363 . S
C1682 C1683 1.370 . S
C1682 C1686 1.524 1_545 S
C1683 C1675 1.503 . S
C1683 C1682 1.370 . S
C1683 C1684 1.403 . S
C1684 C1683 1.403 . S
C1684 C1685 1.404 . S
C1684 C1687 1.539 . S
C1685 C1681 1.408 . S
C1685 C1684 1.404 . S
C1685 H1697 0.930 . S
C1686 C1682 1.524 1_565 S
C1686 H1698 0.956 . S
C1686 H1699 0.961 . S
C1686 H1700 0.961 . S
C1687 C1684 1.539 . S
C1687 H1701 0.958 . S
C1687 H1702 0.961 . S
C1687 H1703 0.960 . S
H1688 C1672 0.931 . S
H1689 C1677 0.929 . S
H1690 C1678 0.960 . S
H1691 C1678 0.962 . S
H1692 C1678 0.960 . S
H1693 C1679 0.961 . S
H1694 C1679 0.961 . S
H1695 C1679 0.961 . S
H1696 C1680 0.931 1_565 S
H1697 C1685 0.930 . S
H1698 C1686 0.956 . S
H1699 C1686 0.961 . S
H1700 C1686 0.961 . S
H1701 C1687 0.958 . S
H1702 C1687 0.961 . S
H1703 C1687 0.960 . S
C1704 C1705 1.391 . S
C1704 C1706 1.394 . S
C1704 H1720 0.931 . S
C1705 C1704 1.391 . S
C1705 C1709 1.376 . S
C1706 C1704 1.394 . S
C1706 C1707 1.369 . S
C1706 C1710 1.531 . S
C1707 C1706 1.369 . S
C1707 C1708 1.410 . S
C1707 C1715 1.503 . S
C1708 C1707 1.410 . S
C1708 C1709 1.392 . S
C1708 C1711 1.511 . S
C1709 C1705 1.376 . S
C1709 C1708 1.392 . S
C1709 H1721 0.929 . S
C1710 C1706 1.531 . S
C1710 H1722 0.960 . S
C1710 H1723 0.962 . S
C1710 H1724 0.960 . S
C1711 C1708 1.511 . S
C1711 H1725 0.961 . S
C1711 H1726 0.961 . S
C1711 H1727 0.961 . S
C1712 C1713 1.370 . S
C1712 C1714 1.363 . S
C1712 H1728 0.931 . S
C1713 C1712 1.370 . S
C1713 C1717 1.408 . S
C1714 C1712 1.363 . S
C1714 C1715 1.370 . S
C1714 C1718 1.524 . S
C1715 C1707 1.503 . S
C1715 C1714 1.370 . S
C1715 C1716 1.403 . S
C1716 C1715 1.403 . S
C1716 C1717 1.404 . S
C1716 C1719 1.539 . S
C1717 C1713 1.408 . S
C1717 C1716 1.404 . S
C1717 H1729 0.930 . S
C1718 C1714 1.524 . S
C1718 H1730 0.956 . S
C1718 H1731 0.961 . S
C1718 H1732 0.961 . S
C1719 C1716 1.539 . S
C1719 H1733 0.958 . S
C1719 H1734 0.961 . S
C1719 H1735 0.960 . S
H1720 C1704 0.931 . S
H1721 C1709 0.929 . S
H1722 C1710 0.960 . S
H1723 C1710 0.962 . S
H1724 C1710 0.960 . S
H1725 C1711 0.961 . S
H1726 C1711 0.961 . S
H1727 C1711 0.961 . S
H1728 C1712 0.931 . S
H1729 C1717 0.930 . S
H1730 C1718 0.956 . S
H1731 C1718 0.961 . S
H1732 C1718 0.961 . S
H1733 C1719 0.958 . S
H1734 C1719 0.961 . S
H1735 C1719 0.960 . S
C1736 C1737 1.391 . S
C1736 C1738 1.394 . S
C1736 H1752 0.931 . S
C1737 C1736 1.391 . S
C1737 C1741 1.376 . S
C1738 C1736 1.394 . S
C1738 C1739 1.369 . S
C1738 C1742 1.531 . S
C1739 C1738 1.369 . S
C1739 C1740 1.410 . S
C1739 C1747 1.503 . S
C1740 C1739 1.410 . S
C1740 C1741 1.392 . S
C1740 C1743 1.511 . S
C1741 C1737 1.376 . S
C1741 C1740 1.392 . S
C1741 H1753 0.929 . S
C1742 C1738 1.531 . S
C1742 H1754 0.960 . S
C1742 H1755 0.962 . S
C1742 H1756 0.960 . S
C1743 C1740 1.511 . S
C1743 H1757 0.961 . S
C1743 H1758 0.961 . S
C1743 H1759 0.961 . S
C1744 C1745 1.370 . S
C1744 C1746 1.363 . S
C1744 H1760 0.931 . S
C1745 C1744 1.370 . S
C1745 C1749 1.408 . S
C1746 C1744 1.363 . S
C1746 C1747 1.370 . S
C1746 C1750 1.524 . S
C1747 C1739 1.503 . S
C1747 C1746 1.370 . S
C1747 C1748 1.403 . S
C1748 C1747 1.403 . S
C1748 C1749 1.404 . S
C1748 C1751 1.539 . S
C1749 C1745 1.408 . S
C1749 C1748 1.404 . S
C1749 H1761 0.930 . S
C1750 C1746 1.524 . S
C1750 H1762 0.956 . S
C1750 H1763 0.961 . S
C1750 H1764 0.961 . S
C1751 C1748 1.539 . S
C1751 H1765 0.958 . S
C1751 H1766 0.961 . S
C1751 H1767 0.960 . S
H1752 C1736 0.931 . S
H1753 C1741 0.929 . S
H1754 C1742 0.960 . S
H1755 C1742 0.962 . S
H1756 C1742 0.960 . S
H1757 C1743 0.961 . S
H1758 C1743 0.961 . S
H1759 C1743 0.961 . S
H1760 C1744 0.931 . S
H1761 C1749 0.930 . S
H1762 C1750 0.956 . S
H1763 C1750 0.961 . S
H1764 C1750 0.961 . S
H1765 C1751 0.958 . S
H1766 C1751 0.961 . S
H1767 C1751 0.960 . S
C1768 C1769 1.391 . S
C1768 C1770 1.394 . S
C1768 H1784 0.931 . S
C1769 C1768 1.391 . S
C1769 C1773 1.376 . S
C1770 C1768 1.394 . S
C1770 C1771 1.369 . S
C1770 C1774 1.531 . S
C1771 C1770 1.369 . S
C1771 C1772 1.410 . S
C1771 C1779 1.503 . S
C1772 C1771 1.410 . S
C1772 C1773 1.392 . S
C1772 C1775 1.511 . S
C1773 C1769 1.376 . S
C1773 C1772 1.392 . S
C1773 H1785 0.929 . S
C1774 C1770 1.531 . S
C1774 H1786 0.960 . S
C1774 H1787 0.962 . S
C1774 H1788 0.960 . S
C1775 C1772 1.511 . S
C1775 H1789 0.961 . S
C1775 H1790 0.961 . S
C1775 H1791 0.961 . S
C1776 C1777 1.370 . S
C1776 C1778 1.363 . S
C1776 H1792 0.931 . S
C1777 C1776 1.370 . S
C1777 C1781 1.408 . S
C1778 C1776 1.363 . S
C1778 C1779 1.370 . S
C1778 C1782 1.524 . S
C1779 C1771 1.503 . S
C1779 C1778 1.370 . S
C1779 C1780 1.403 . S
C1780 C1779 1.403 . S
C1780 C1781 1.404 . S
C1780 C1783 1.539 . S
C1781 C1777 1.408 . S
C1781 C1780 1.404 . S
C1781 H1793 0.930 . S
C1782 C1778 1.524 . S
C1782 H1794 0.956 . S
C1782 H1795 0.961 . S
C1782 H1796 0.961 . S
C1783 C1780 1.539 . S
C1783 H1797 0.958 . S
C1783 H1798 0.961 . S
C1783 H1799 0.960 . S
H1784 C1768 0.931 . S
H1785 C1773 0.929 . S
H1786 C1774 0.960 . S
H1787 C1774 0.962 . S
H1788 C1774 0.960 . S
H1789 C1775 0.961 . S
H1790 C1775 0.961 . S
H1791 C1775 0.961 . S
H1792 C1776 0.931 . S
H1793 C1781 0.930 . S
H1794 C1782 0.956 . S
H1795 C1782 0.961 . S
H1796 C1782 0.961 . S
H1797 C1783 0.958 . S
H1798 C1783 0.961 . S
H1799 C1783 0.960 . S
C1800 C1801 1.391 . S
C1800 C1802 1.394 . S
C1800 H1816 0.931 . S
C1801 C1800 1.391 . S
C1801 C1805 1.376 1_655 S
C1802 C1800 1.394 . S
C1802 C1803 1.369 1_655 S
C1802 C1806 1.531 . S
C1803 C1802 1.369 1_455 S
C1803 C1804 1.410 . S
C1803 C1811 1.503 . S
C1804 C1803 1.410 . S
C1804 C1805 1.392 . S
C1804 C1807 1.511 . S
C1805 C1801 1.376 1_455 S
C1805 C1804 1.392 . S
C1805 H1817 0.929 . S
C1806 C1802 1.531 . S
C1806 H1818 0.960 . S
C1806 H1819 0.962 . S
C1806 H1820 0.960 . S
C1807 C1804 1.511 . S
C1807 H1821 0.961 . S
C1807 H1822 0.961 . S
C1807 H1823 0.961 . S
C1808 C1809 1.370 1_655 S
C1808 C1810 1.363 . S
C1808 H1824 0.931 . S
C1809 C1808 1.370 1_455 S
C1809 C1813 1.408 . S
C1810 C1808 1.363 . S
C1810 C1811 1.370 1_655 S
C1810 C1814 1.524 . S
C1811 C1803 1.503 . S
C1811 C1810 1.370 1_455 S
C1811 C1812 1.403 . S
C1812 C1811 1.403 . S
C1812 C1813 1.404 . S
C1812 C1815 1.539 . S
C1813 C1809 1.408 . S
C1813 C1812 1.404 . S
C1813 H1825 0.930 . S
C1814 C1810 1.524 . S
C1814 H1826 0.956 . S
C1814 H1827 0.961 . S
C1814 H1828 0.961 . S
C1815 C1812 1.539 . S
C1815 H1829 0.958 . S
C1815 H1830 0.961 . S
C1815 H1831 0.960 . S
H1816 C1800 0.931 . S
H1817 C1805 0.929 . S
H1818 C1806 0.960 . S
H1819 C1806 0.962 . S
H1820 C1806 0.960 . S
H1821 C1807 0.961 . S
H1822 C1807 0.961 . S
H1823 C1807 0.961 . S
H1824 C1808 0.931 . S
H1825 C1813 0.930 . S
H1826 C1814 0.956 . S
H1827 C1814 0.961 . S
H1828 C1814 0.961 . S
H1829 C1815 0.958 . S
H1830 C1815 0.961 . S
H1831 C1815 0.960 . S
C1832 C1833 1.391 . S
C1832 C1834 1.394 . S
C1832 H1848 0.931 . S
C1833 C1832 1.391 . S
C1833 C1837 1.376 . S
C1834 C1832 1.394 . S
C1834 C1835 1.369 . S
C1834 C1838 1.531 . S
C1835 C1834 1.369 . S
C1835 C1836 1.410 . S
C1835 C1843 1.503 . S
C1836 C1835 1.410 . S
C1836 C1837 1.392 . S
C1836 C1839 1.511 . S
C1837 C1833 1.376 . S
C1837 C1836 1.392 . S
C1837 H1849 0.929 . S
C1838 C1834 1.531 . S
C1838 H1850 0.960 . S
C1838 H1851 0.962 . S
C1838 H1852 0.960 . S
C1839 C1836 1.511 . S
C1839 H1853 0.961 . S
C1839 H1854 0.961 . S
C1839 H1855 0.961 . S
C1840 C1841 1.370 . S
C1840 C1842 1.363 . S
C1840 H1856 0.931 . S
C1841 C1840 1.370 . S
C1841 C1845 1.408 . S
C1842 C1840 1.363 . S
C1842 C1843 1.370 . S
C1842 C1846 1.524 . S
C1843 C1835 1.503 . S
C1843 C1842 1.370 . S
C1843 C1844 1.403 . S
C1844 C1843 1.403 . S
C1844 C1845 1.404 . S
C1844 C1847 1.539 . S
C1845 C1841 1.408 . S
C1845 C1844 1.404 . S
C1845 H1857 0.930 . S
C1846 C1842 1.524 . S
C1846 H1858 0.956 . S
C1846 H1859 0.961 . S
C1846 H1860 0.961 . S
C1847 C1844 1.539 . S
C1847 H1861 0.958 . S
C1847 H1862 0.961 . S
C1847 H1863 0.960 . S
H1848 C1832 0.931 . S
H1849 C1837 0.929 . S
H1850 C1838 0.960 . S
H1851 C1838 0.962 . S
H1852 C1838 0.960 . S
H1853 C1839 0.961 . S
H1854 C1839 0.961 . S
H1855 C1839 0.961 . S
H1856 C1840 0.931 . S
H1857 C1845 0.930 . S
H1858 C1846 0.956 . S
H1859 C1846 0.961 . S
H1860 C1846 0.961 . S
H1861 C1847 0.958 . S
H1862 C1847 0.961 . S
H1863 C1847 0.960 . S
C1864 C1865 1.391 . S
C1864 C1866 1.394 . S
C1864 H1880 0.931 . S
C1865 C1864 1.391 . S
C1865 C1869 1.376 . S
C1866 C1864 1.394 . S
C1866 C1867 1.369 . S
C1866 C1870 1.531 . S
C1867 C1866 1.369 . S
C1867 C1868 1.410 . S
C1867 C1875 1.503 . S
C1868 C1867 1.410 . S
C1868 C1869 1.392 . S
C1868 C1871 1.511 1_455 S
C1869 C1865 1.376 . S
C1869 C1868 1.392 . S
C1869 H1881 0.929 1_455 S
C1870 C1866 1.531 . S
C1870 H1882 0.960 . S
C1870 H1883 0.962 . S
C1870 H1884 0.960 . S
C1871 C1868 1.511 1_655 S
C1871 H1885 0.961 . S
C1871 H1886 0.961 . S
C1871 H1887 0.961 . S
C1872 C1873 1.370 . S
C1872 C1874 1.363 . S
C1872 H1888 0.931 . S
C1873 C1872 1.370 . S
C1873 C1877 1.408 . S
C1874 C1872 1.363 . S
C1874 C1875 1.370 . S
C1874 C1878 1.524 . S
C1875 C1867 1.503 . S
C1875 C1874 1.370 . S
C1875 C1876 1.403 . S
C1876 C1875 1.403 . S
C1876 C1877 1.404 . S
C1876 C1879 1.539 . S
C1877 C1873 1.408 . S
C1877 C1876 1.404 . S
C1877 H1889 0.930 . S
C1878 C1874 1.524 . S
C1878 H1890 0.956 . S
C1878 H1891 0.961 . S
C1878 H1892 0.961 . S
C1879 C1876 1.539 . S
C1879 H1893 0.958 . S
C1879 H1894 0.963 . S
C1879 H1895 0.960 . S
H1880 C1864 0.931 . S
H1881 C1869 0.929 1_655 S
H1882 C1870 0.960 . S
H1883 C1870 0.962 . S
H1884 C1870 0.960 . S
H1885 C1871 0.961 . S
H1886 C1871 0.961 . S
H1887 C1871 0.961 . S
H1888 C1872 0.931 . S
H1889 C1877 0.930 . S
H1890 C1878 0.956 . S
H1891 C1878 0.961 . S
H1892 C1878 0.961 . S
H1893 C1879 0.958 . S
H1894 C1879 0.963 . S
H1895 C1879 0.960 . S
C1896 C1897 1.391 . S
C1896 C1898 1.394 . S
C1896 H1912 0.931 . S
C1897 C1896 1.391 . S
C1897 C1901 1.376 . S
C1898 C1896 1.394 . S
C1898 C1899 1.369 . S
C1898 C1902 1.531 . S
C1899 C1898 1.369 . S
C1899 C1900 1.410 . S
C1899 C1907 1.503 . S
C1900 C1899 1.410 . S
C1900 C1901 1.392 . S
C1900 C1903 1.511 . S
C1901 C1897 1.376 . S
C1901 C1900 1.392 . S
C1901 H1913 0.929 . S
C1902 C1898 1.531 . S
C1902 H1914 0.960 . S
C1902 H1915 0.962 . S
C1902 H1916 0.960 . S
C1903 C1900 1.511 . S
C1903 H1917 0.961 . S
C1903 H1918 0.961 . S
C1903 H1919 0.961 . S
C1904 C1905 1.370 . S
C1904 C1906 1.363 . S
C1904 H1920 0.931 . S
C1905 C1904 1.370 . S
C1905 C1909 1.408 . S
C1906 C1904 1.363 . S
C1906 C1907 1.370 . S
C1906 C1910 1.524 . S
C1907 C1899 1.503 . S
C1907 C1906 1.370 . S
C1907 C1908 1.403 . S
C1908 C1907 1.403 . S
C1908 C1909 1.404 . S
C1908 C1911 1.539 . S
C1909 C1905 1.408 . S
C1909 C1908 1.404 . S
C1909 H1921 0.930 . S
C1910 C1906 1.524 . S
C1910 H1922 0.956 . S
C1910 H1923 0.961 . S
C1910 H1924 0.961 . S
C1911 C1908 1.539 . S
C1911 H1925 0.958 . S
C1911 H1926 0.961 . S
C1911 H1927 0.960 . S
H1912 C1896 0.931 . S
H1913 C1901 0.929 . S
H1914 C1902 0.960 . S
H1915 C1902 0.962 . S
H1916 C1902 0.960 . S
H1917 C1903 0.961 . S
H1918 C1903 0.961 . S
H1919 C1903 0.961 . S
H1920 C1904 0.931 . S
H1921 C1909 0.930 . S
H1922 C1910 0.956 . S
H1923 C1910 0.961 . S
H1924 C1910 0.961 . S
H1925 C1911 0.958 . S
H1926 C1911 0.961 . S
H1927 C1911 0.960 . S
C1928 C1929 1.391 . S
C1928 C1930 1.394 . S
C1928 H1944 0.931 . S
C1929 C1928 1.391 . S
C1929 C1933 1.376 . S
C1930 C1928 1.394 . S
C1930 C1931 1.369 . S
C1930 C1934 1.531 . S
C1931 C1930 1.369 . S
C1931 C1932 1.410 . S
C1931 C1939 1.503 . S
C1932 C1931 1.410 . S
C1932 C1933 1.392 . S
C1932 C1935 1.511 . S
C1933 C1929 1.376 . S
C1933 C1932 1.392 . S
C1933 H1945 0.929 . S
C1934 C1930 1.531 . S
C1934 H1946 0.960 . S
C1934 H1947 0.962 . S
C1934 H1948 0.960 . S
C1935 C1932 1.511 . S
C1935 H1949 0.961 . S
C1935 H1950 0.961 . S
C1935 H1951 0.961 . S
C1936 C1937 1.370 . S
C1936 C1938 1.363 . S
C1936 H1952 0.931 . S
C1937 C1936 1.370 . S
C1937 C1941 1.408 . S
C1938 C1936 1.363 . S
C1938 C1939 1.370 . S
C1938 C1942 1.524 . S
C1939 C1931 1.503 . S
C1939 C1938 1.370 . S
C1939 C1940 1.403 . S
C1940 C1939 1.403 . S
C1940 C1941 1.404 . S
C1940 C1943 1.539 . S
C1941 C1937 1.408 . S
C1941 C1940 1.404 . S
C1941 H1953 0.930 . S
C1942 C1938 1.524 . S
C1942 H1954 0.956 . S
C1942 H1955 0.961 . S
C1942 H1956 0.961 . S
C1943 C1940 1.539 . S
C1943 H1957 0.958 . S
C1943 H1958 0.961 . S
C1943 H1959 0.960 . S
H1944 C1928 0.931 . S
H1945 C1933 0.929 . S
H1946 C1934 0.960 . S
H1947 C1934 0.962 . S
H1948 C1934 0.960 . S
H1949 C1935 0.961 . S
H1950 C1935 0.961 . S
H1951 C1935 0.961 . S
H1952 C1936 0.931 . S
H1953 C1941 0.930 . S
H1954 C1942 0.956 . S
H1955 C1942 0.961 . S
H1956 C1942 0.961 . S
H1957 C1943 0.958 . S
H1958 C1943 0.961 . S
H1959 C1943 0.960 . S
C1960 C1961 1.391 . S
C1960 C1962 1.394 . S
C1960 H1976 0.931 . S
C1961 C1960 1.391 . S
C1961 C1965 1.376 . S
C1962 C1960 1.394 . S
C1962 C1963 1.369 . S
C1962 C1966 1.531 . S
C1963 C1962 1.369 . S
C1963 C1964 1.410 . S
C1963 C1971 1.503 . S
C1964 C1963 1.410 . S
C1964 C1965 1.392 . S
C1964 C1967 1.511 . S
C1965 C1961 1.376 . S
C1965 C1964 1.392 . S
C1965 H1977 0.929 . S
C1966 C1962 1.531 . S
C1966 H1978 0.960 . S
C1966 H1979 0.962 . S
C1966 H1980 0.960 . S
C1967 C1964 1.511 . S
C1967 H1981 0.961 . S
C1967 H1982 0.961 . S
C1967 H1983 0.961 . S
C1968 C1969 1.370 . S
C1968 C1970 1.363 . S
C1968 H1984 0.931 . S
C1969 C1968 1.370 . S
C1969 C1973 1.408 . S
C1970 C1968 1.363 . S
C1970 C1971 1.370 . S
C1970 C1974 1.524 . S
C1971 C1963 1.503 . S
C1971 C1970 1.370 . S
C1971 C1972 1.403 . S
C1972 C1971 1.403 . S
C1972 C1973 1.404 . S
C1972 C1975 1.539 . S
C1973 C1969 1.408 . S
C1973 C1972 1.404 . S
C1973 H1985 0.930 . S
C1974 C1970 1.524 . S
C1974 H1986 0.956 . S
C1974 H1987 0.961 . S
C1974 H1988 0.961 . S
C1975 C1972 1.539 . S
C1975 H1989 0.958 . S
C1975 H1990 0.961 . S
C1975 H1991 0.960 . S
H1976 C1960 0.931 . S
H1977 C1965 0.929 . S
H1978 C1966 0.960 . S
H1979 C1966 0.962 . S
H1980 C1966 0.960 . S
H1981 C1967 0.961 . S
H1982 C1967 0.961 . S
H1983 C1967 0.961 . S
H1984 C1968 0.931 . S
H1985 C1973 0.930 . S
H1986 C1974 0.956 . S
H1987 C1974 0.961 . S
H1988 C1974 0.961 . S
H1989 C1975 0.958 . S
H1990 C1975 0.961 . S
H1991 C1975 0.960 . S
C1992 C1993 1.391 . S
C1992 C1994 1.394 . S
C1992 H2008 0.931 . S
C1993 C1992 1.391 . S
C1993 C1997 1.376 . S
C1994 C1992 1.394 . S
C1994 C1995 1.369 . S
C1994 C1998 1.531 . S
C1995 C1994 1.369 . S
C1995 C1996 1.410 . S
C1995 C2003 1.503 . S
C1996 C1995 1.410 . S
C1996 C1997 1.392 . S
C1996 C1999 1.511 . S
C1997 C1993 1.376 . S
C1997 C1996 1.392 . S
C1997 H2009 0.929 . S
C1998 C1994 1.531 . S
C1998 H2010 0.960 . S
C1998 H2011 0.962 . S
C1998 H2012 0.960 . S
C1999 C1996 1.511 . S
C1999 H2013 0.961 . S
C1999 H2014 0.961 . S
C1999 H2015 0.961 . S
C2000 C2001 1.370 . S
C2000 C2002 1.363 . S
C2000 H2016 0.931 . S
C2001 C2000 1.370 . S
C2001 C2005 1.408 . S
C2002 C2000 1.363 . S
C2002 C2003 1.370 . S
C2002 C2006 1.524 . S
C2003 C1995 1.503 . S
C2003 C2002 1.370 . S
C2003 C2004 1.403 . S
C2004 C2003 1.403 . S
C2004 C2005 1.404 . S
C2004 C2007 1.539 . S
C2005 C2001 1.408 . S
C2005 C2004 1.404 . S
C2005 H2017 0.930 . S
C2006 C2002 1.524 . S
C2006 H2018 0.956 . S
C2006 H2019 0.961 . S
C2006 H2020 0.961 . S
C2007 C2004 1.539 . S
C2007 H2021 0.958 . S
C2007 H2022 0.961 . S
C2007 H2023 0.960 . S
H2008 C1992 0.931 . S
H2009 C1997 0.929 . S
H2010 C1998 0.960 . S
H2011 C1998 0.962 . S
H2012 C1998 0.960 . S
H2013 C1999 0.961 . S
H2014 C1999 0.961 . S
H2015 C1999 0.961 . S
H2016 C2000 0.931 . S
H2017 C2005 0.930 . S
H2018 C2006 0.956 . S
H2019 C2006 0.961 . S
H2020 C2006 0.961 . S
H2021 C2007 0.958 . S
H2022 C2007 0.961 . S
H2023 C2007 0.960 . S
C2024 C2025 1.391 . S
C2024 C2026 1.394 . S
C2024 H2040 0.931 . S
C2025 C2024 1.391 . S
C2025 C2029 1.376 . S
C2026 C2024 1.394 . S
C2026 C2027 1.369 . S
C2026 C2030 1.531 . S
C2027 C2026 1.369 . S
C2027 C2028 1.410 . S
C2027 C2035 1.503 . S
C2028 C2027 1.410 . S
C2028 C2029 1.392 . S
C2028 C2031 1.511 . S
C2029 C2025 1.376 . S
C2029 C2028 1.392 . S
C2029 H2041 0.929 . S
C2030 C2026 1.531 . S
C2030 H2042 0.960 . S
C2030 H2043 0.962 . S
C2030 H2044 0.960 . S
C2031 C2028 1.511 . S
C2031 H2045 0.961 . S
C2031 H2046 0.961 . S
C2031 H2047 0.961 . S
C2032 C2033 1.370 . S
C2032 C2034 1.363 . S
C2032 H2048 0.931 . S
C2033 C2032 1.370 . S
C2033 C2037 1.408 . S
C2034 C2032 1.363 . S
C2034 C2035 1.370 . S
C2034 C2038 1.524 . S
C2035 C2027 1.503 . S
C2035 C2034 1.370 . S
C2035 C2036 1.403 . S
C2036 C2035 1.403 . S
C2036 C2037 1.404 . S
C2036 C2039 1.539 . S
C2037 C2033 1.408 . S
C2037 C2036 1.404 . S
C2037 H2049 0.930 . S
C2038 C2034 1.524 . S
C2038 H2050 0.956 . S
C2038 H2051 0.961 . S
C2038 H2052 0.961 . S
C2039 C2036 1.539 . S
C2039 H2053 0.958 . S
C2039 H2054 0.961 . S
C2039 H2055 0.960 . S
H2040 C2024 0.931 . S
H2041 C2029 0.929 . S
H2042 C2030 0.960 . S
H2043 C2030 0.962 . S
H2044 C2030 0.960 . S
H2045 C2031 0.961 . S
H2046 C2031 0.961 . S
H2047 C2031 0.961 . S
H2048 C2032 0.931 . S
H2049 C2037 0.930 . S
H2050 C2038 0.956 . S
H2051 C2038 0.961 . S
H2052 C2038 0.961 . S
H2053 C2039 0.958 . S
H2054 C2039 0.961 . S
H2055 C2039 0.960 . S
C2056 C2057 1.391 . S
C2056 C2058 1.394 . S
C2056 H2072 0.931 . S
C2057 C2056 1.391 . S
C2057 C2061 1.376 . S
C2058 C2056 1.394 . S
C2058 C2059 1.369 . S
C2058 C2062 1.531 . S
C2059 C2058 1.369 . S
C2059 C2060 1.410 . S
C2059 C2067 1.503 . S
C2060 C2059 1.410 . S
C2060 C2061 1.392 . S
C2060 C2063 1.511 . S
C2061 C2057 1.376 . S
C2061 C2060 1.392 . S
C2061 H2073 0.929 . S
C2062 C2058 1.531 . S
C2062 H2074 0.960 . S
C2062 H2075 0.962 . S
C2062 H2076 0.960 . S
C2063 C2060 1.511 . S
C2063 H2077 0.961 . S
C2063 H2078 0.961 . S
C2063 H2079 0.961 . S
C2064 C2065 1.370 . S
C2064 C2066 1.363 . S
C2064 H2080 0.931 . S
C2065 C2064 1.370 . S
C2065 C2069 1.408 . S
C2066 C2064 1.363 . S
C2066 C2067 1.370 . S
C2066 C2070 1.524 . S
C2067 C2059 1.503 . S
C2067 C2066 1.370 . S
C2067 C2068 1.403 . S
C2068 C2067 1.403 . S
C2068 C2069 1.404 . S
C2068 C2071 1.539 . S
C2069 C2065 1.408 . S
C2069 C2068 1.404 . S
C2069 H2081 0.930 . S
C2070 C2066 1.524 . S
C2070 H2082 0.956 . S
C2070 H2083 0.961 . S
C2070 H2084 0.961 . S
C2071 C2068 1.539 . S
C2071 H2085 0.958 . S
C2071 H2086 0.961 . S
C2071 H2087 0.960 . S
H2072 C2056 0.931 . S
H2073 C2061 0.929 . S
H2074 C2062 0.960 . S
H2075 C2062 0.962 . S
H2076 C2062 0.960 . S
H2077 C2063 0.961 . S
H2078 C2063 0.961 . S
H2079 C2063 0.961 . S
H2080 C2064 0.931 . S
H2081 C2069 0.930 . S
H2082 C2070 0.956 . S
H2083 C2070 0.961 . S
H2084 C2070 0.961 . S
H2085 C2071 0.958 . S
H2086 C2071 0.961 . S
H2087 C2071 0.960 . S
C2088 C2089 1.391 . S
C2088 C2090 1.394 . S
C2088 H2104 0.931 . S
C2089 C2088 1.391 . S
C2089 C2093 1.376 . S
C2090 C2088 1.394 . S
C2090 C2091 1.369 . S
C2090 C2094 1.531 . S
C2091 C2090 1.369 . S
C2091 C2092 1.410 . S
C2091 C2099 1.503 . S
C2092 C2091 1.410 . S
C2092 C2093 1.392 . S
C2092 C2095 1.511 . S
C2093 C2089 1.376 . S
C2093 C2092 1.392 . S
C2093 H2105 0.929 . S
C2094 C2090 1.531 . S
C2094 H2106 0.960 . S
C2094 H2107 0.962 . S
C2094 H2108 0.960 . S
C2095 C2092 1.511 . S
C2095 H2109 0.961 . S
C2095 H2110 0.961 . S
C2095 H2111 0.961 . S
C2096 C2097 1.370 . S
C2096 C2098 1.363 . S
C2096 H2112 0.931 . S
C2097 C2096 1.370 . S
C2097 C2101 1.408 . S
C2098 C2096 1.363 . S
C2098 C2099 1.370 . S
C2098 C2102 1.524 . S
C2099 C2091 1.503 . S
C2099 C2098 1.370 . S
C2099 C2100 1.403 . S
C2100 C2099 1.403 . S
C2100 C2101 1.404 . S
C2100 C2103 1.539 . S
C2101 C2097 1.408 . S
C2101 C2100 1.404 . S
C2101 H2113 0.930 . S
C2102 C2098 1.524 . S
C2102 H2114 0.956 . S
C2102 H2115 0.961 . S
C2102 H2116 0.961 . S
C2103 C2100 1.539 . S
C2103 H2117 0.958 . S
C2103 H2118 0.961 . S
C2103 H2119 0.960 . S
H2104 C2088 0.931 . S
H2105 C2093 0.929 . S
H2106 C2094 0.960 . S
H2107 C2094 0.962 . S
H2108 C2094 0.960 . S
H2109 C2095 0.961 . S
H2110 C2095 0.961 . S
H2111 C2095 0.961 . S
H2112 C2096 0.931 . S
H2113 C2101 0.930 . S
H2114 C2102 0.956 . S
H2115 C2102 0.961 . S
H2116 C2102 0.961 . S
H2117 C2103 0.958 . S
H2118 C2103 0.961 . S
H2119 C2103 0.960 . S
C2120 C2121 1.391 . S
C2120 C2122 1.394 . S
C2120 H2136 0.931 . S
C2121 C2120 1.391 . S
C2121 C2125 1.376 . S
C2122 C2120 1.394 . S
C2122 C2123 1.369 . S
C2122 C2126 1.531 . S
C2123 C2122 1.369 . S
C2123 C2124 1.410 . S
C2123 C2131 1.503 . S
C2124 C2123 1.410 . S
C2124 C2125 1.392 . S
C2124 C2127 1.511 . S
C2125 C2121 1.376 . S
C2125 C2124 1.392 . S
C2125 H2137 0.929 . S
C2126 C2122 1.531 . S
C2126 H2138 0.960 . S
C2126 H2139 0.962 . S
C2126 H2140 0.960 . S
C2127 C2124 1.511 . S
C2127 H2141 0.961 . S
C2127 H2142 0.961 . S
C2127 H2143 0.961 . S
C2128 C2129 1.370 . S
C2128 C2130 1.363 . S
C2128 H2144 0.931 . S
C2129 C2128 1.370 . S
C2129 C2133 1.408 . S
C2130 C2128 1.363 . S
C2130 C2131 1.370 . S
C2130 C2134 1.524 . S
C2131 C2123 1.503 . S
C2131 C2130 1.370 . S
C2131 C2132 1.403 . S
C2132 C2131 1.403 . S
C2132 C2133 1.404 . S
C2132 C2135 1.539 . S
C2133 C2129 1.408 . S
C2133 C2132 1.404 . S
C2133 H2145 0.930 . S
C2134 C2130 1.524 . S
C2134 H2146 0.956 . S
C2134 H2147 0.961 . S
C2134 H2148 0.961 . S
C2135 C2132 1.539 . S
C2135 H2149 0.958 . S
C2135 H2150 0.961 . S
C2135 H2151 0.960 . S
H2136 C2120 0.931 . S
H2137 C2125 0.929 . S
H2138 C2126 0.960 . S
H2139 C2126 0.962 . S
H2140 C2126 0.960 . S
H2141 C2127 0.961 . S
H2142 C2127 0.961 . S
H2143 C2127 0.961 . S
H2144 C2128 0.931 . S
H2145 C2133 0.930 . S
H2146 C2134 0.956 . S
H2147 C2134 0.961 . S
H2148 C2134 0.961 . S
H2149 C2135 0.958 . S
H2150 C2135 0.961 . S
H2151 C2135 0.960 . S
C2152 C2153 1.391 . S
C2152 C2154 1.394 . S
C2152 H2168 0.931 . S
C2153 C2152 1.391 . S
C2153 C2157 1.376 . S
C2154 C2152 1.394 . S
C2154 C2155 1.369 . S
C2154 C2158 1.531 . S
C2155 C2154 1.369 . S
C2155 C2156 1.410 . S
C2155 C2163 1.503 . S
C2156 C2155 1.410 . S
C2156 C2157 1.392 . S
C2156 C2159 1.511 1_556 S
C2157 C2153 1.376 . S
C2157 C2156 1.392 . S
C2157 H2169 0.929 1_556 S
C2158 C2154 1.531 . S
C2158 H2170 0.960 . S
C2158 H2171 0.962 . S
C2158 H2172 0.960 . S
C2159 C2156 1.511 1_554 S
C2159 H2173 0.961 . S
C2159 H2174 0.961 . S
C2159 H2175 0.961 . S
C2160 C2161 1.370 1_554 S
C2160 C2162 1.363 . S
C2160 H2176 0.931 . S
C2161 C2160 1.370 1_556 S
C2161 C2165 1.408 . S
C2162 C2160 1.363 . S
C2162 C2163 1.370 1_554 S
C2162 C2166 1.524 . S
C2163 C2155 1.503 . S
C2163 C2162 1.370 1_556 S
C2163 C2164 1.403 . S
C2164 C2163 1.403 . S
C2164 C2165 1.404 . S
C2164 C2167 1.539 . S
C2165 C2161 1.408 . S
C2165 C2164 1.404 . S
C2165 H2177 0.930 . S
C2166 C2162 1.524 . S
C2166 H2178 0.956 . S
C2166 H2179 0.961 . S
C2166 H2180 0.961 . S
C2167 C2164 1.539 . S
C2167 H2181 0.958 . S
C2167 H2182 0.961 . S
C2167 H2183 0.960 . S
H2168 C2152 0.931 . S
H2169 C2157 0.929 1_554 S
H2170 C2158 0.960 . S
H2171 C2158 0.962 . S
H2172 C2158 0.960 . S
H2173 C2159 0.961 . S
H2174 C2159 0.961 . S
H2175 C2159 0.961 . S
H2176 C2160 0.931 . S
H2177 C2165 0.930 . S
H2178 C2166 0.956 . S
H2179 C2166 0.961 . S
H2180 C2166 0.961 . S
H2181 C2167 0.958 . S
H2182 C2167 0.961 . S
H2183 C2167 0.960 . S
C2184 C2185 1.391 . S
C2184 C2186 1.394 . S
C2184 H2200 0.931 . S
C2185 C2184 1.391 . S
C2185 C2189 1.376 . S
C2186 C2184 1.394 . S
C2186 C2187 1.369 . S
C2186 C2190 1.531 . S
C2187 C2186 1.369 . S
C2187 C2188 1.410 . S
C2187 C2195 1.503 . S
C2188 C2187 1.410 . S
C2188 C2189 1.392 . S
C2188 C2191 1.511 . S
C2189 C2185 1.376 . S
C2189 C2188 1.392 . S
C2189 H2201 0.929 . S
C2190 C2186 1.531 . S
C2190 H2202 0.960 . S
C2190 H2203 0.962 . S
C2190 H2204 0.960 . S
C2191 C2188 1.511 . S
C2191 H2205 0.961 . S
C2191 H2206 0.961 . S
C2191 H2207 0.961 . S
C2192 C2193 1.370 . S
C2192 C2194 1.363 . S
C2192 H2208 0.931 . S
C2193 C2192 1.370 . S
C2193 C2197 1.408 . S
C2194 C2192 1.363 . S
C2194 C2195 1.370 . S
C2194 C2198 1.524 . S
C2195 C2187 1.503 . S
C2195 C2194 1.370 . S
C2195 C2196 1.403 . S
C2196 C2195 1.403 . S
C2196 C2197 1.404 . S
C2196 C2199 1.539 . S
C2197 C2193 1.408 . S
C2197 C2196 1.404 . S
C2197 H2209 0.930 . S
C2198 C2194 1.524 . S
C2198 H2210 0.956 . S
C2198 H2211 0.961 . S
C2198 H2212 0.961 . S
C2199 C2196 1.539 . S
C2199 H2213 0.958 . S
C2199 H2214 0.961 . S
C2199 H2215 0.960 . S
H2200 C2184 0.931 . S
H2201 C2189 0.929 . S
H2202 C2190 0.960 . S
H2203 C2190 0.962 . S
H2204 C2190 0.960 . S
H2205 C2191 0.961 . S
H2206 C2191 0.961 . S
H2207 C2191 0.961 . S
H2208 C2192 0.931 . S
H2209 C2197 0.930 . S
H2210 C2198 0.956 . S
H2211 C2198 0.961 . S
H2212 C2198 0.961 . S
H2213 C2199 0.958 . S
H2214 C2199 0.961 . S
H2215 C2199 0.960 . S
C2216 C2217 1.391 . S
C2216 C2218 1.394 . S
C2216 H2232 0.931 . S
C2217 C2216 1.391 . S
C2217 C2221 1.376 . S
C2218 C2216 1.394 . S
C2218 C2219 1.369 . S
C2218 C2222 1.531 . S
C2219 C2218 1.369 . S
C2219 C2220 1.410 . S
C2219 C2227 1.503 . S
C2220 C2219 1.410 . S
C2220 C2221 1.392 . S
C2220 C2223 1.511 . S
C2221 C2217 1.376 . S
C2221 C2220 1.392 . S
C2221 H2233 0.929 . S
C2222 C2218 1.531 . S
C2222 H2234 0.960 . S
C2222 H2235 0.962 . S
C2222 H2236 0.960 . S
C2223 C2220 1.511 . S
C2223 H2237 0.961 . S
C2223 H2238 0.961 . S
C2223 H2239 0.961 . S
C2224 C2225 1.370 . S
C2224 C2226 1.363 . S
C2224 H2240 0.931 . S
C2225 C2224 1.370 . S
C2225 C2229 1.408 1_554 S
C2226 C2224 1.363 . S
C2226 C2227 1.370 . S
C2226 C2230 1.524 . S
C2227 C2219 1.503 . S
C2227 C2226 1.370 . S
C2227 C2228 1.382 1_554 S
C2228 C2227 1.382 1_556 S
C2228 C2229 1.405 . S
C2228 C2231 1.559 . S
C2229 C2225 1.408 1_556 S
C2229 C2228 1.405 . S
C2229 H2241 0.930 . S
C2230 C2226 1.524 . S
C2230 H2242 0.956 . S
C2230 H2243 0.961 . S
C2230 H2244 0.961 . S
C2231 C2228 1.559 . S
C2231 H2245 0.958 . S
C2231 H2246 0.961 . S
C2231 H2247 0.960 . S
H2232 C2216 0.931 . S
H2233 C2221 0.929 . S
H2234 C2222 0.960 . S
H2235 C2222 0.962 . S
H2236 C2222 0.960 . S
H2237 C2223 0.961 . S
H2238 C2223 0.961 . S
H2239 C2223 0.961 . S
H2240 C2224 0.931 . S
H2241 C2229 0.930 . S
H2242 C2230 0.956 . S
H2243 C2230 0.961 . S
H2244 C2230 0.961 . S
H2245 C2231 0.958 . S
H2246 C2231 0.961 . S
H2247 C2231 0.960 . S
C2248 C2249 1.391 . S
C2248 C2250 1.394 . S
C2248 H2264 0.931 . S
C2249 C2248 1.391 . S
C2249 C2253 1.376 . S
C2250 C2248 1.394 . S
C2250 C2251 1.369 . S
C2250 C2254 1.531 . S
C2251 C2250 1.369 . S
C2251 C2252 1.410 . S
C2251 C2259 1.503 . S
C2252 C2251 1.410 . S
C2252 C2253 1.392 . S
C2252 C2255 1.511 . S
C2253 C2249 1.376 . S
C2253 C2252 1.392 . S
C2253 H2265 0.929 . S
C2254 C2250 1.531 . S
C2254 H2266 0.960 . S
C2254 H2267 1.014 . S
C2254 H2268 0.960 . S
C2255 C2252 1.511 . S
C2255 H2269 0.961 . S
C2255 H2270 0.961 . S
C2255 H2271 0.961 . S
C2256 C2257 1.370 1_556 S
C2256 C2258 1.363 . S
C2256 H2272 0.931 . S
C2257 C2256 1.370 1_554 S
C2257 C2261 1.408 . S
C2258 C2256 1.363 . S
C2258 C2259 1.370 1_556 S
C2258 C2262 1.524 . S
C2259 C2251 1.503 . S
C2259 C2258 1.370 1_554 S
C2259 C2260 1.403 . S
C2260 C2259 1.403 . S
C2260 C2261 1.404 . S
C2260 C2263 1.539 . S
C2261 C2257 1.408 . S
C2261 C2260 1.404 . S
C2261 H2273 0.930 . S
C2262 C2258 1.524 . S
C2262 H2274 0.956 . S
C2262 H2275 0.961 . S
C2262 H2276 0.961 . S
C2263 C2260 1.539 . S
C2263 H2277 0.958 . S
C2263 H2278 0.961 . S
C2263 H2279 0.960 . S
H2264 C2248 0.931 . S
H2265 C2253 0.929 . S
H2266 C2254 0.960 . S
H2267 C2254 1.014 . S
H2268 C2254 0.960 . S
H2269 C2255 0.961 . S
H2270 C2255 0.961 . S
H2271 C2255 0.961 . S
H2272 C2256 0.931 . S
H2273 C2261 0.930 . S
H2274 C2262 0.956 . S
H2275 C2262 0.961 . S
H2276 C2262 0.961 . S
H2277 C2263 0.958 . S
H2278 C2263 0.961 . S
H2279 C2263 0.960 . S
C753 C587 1.441 . S
C745 C181 1.448 . S
C785 C595 1.273 . S
C777 C247 1.537 . S
C809 C283 1.427 . S
C817 C615 1.412 . S
C849 C629 1.501 . S
C841 C169 1.518 1_655 S
C881 C644 1.532 . S
C873 C361 1.518 . S
C913 C658 1.515 . S
C905 C433 1.487 . S
C937 C421 1.556 . S
C945 C672 1.564 . S
C977 C678 1.459 . S
C969 C355 1.494 . S
C1001 C427 1.514 . S
C1009 C692 1.506 . S
C1041 C713 1.540 . S
C1033 C325 1.545 . S
C1065 C385 1.443 . S
C1073 C693 1.245 . S
C1105 C714 1.542 . S
C1097 C463 1.539 . S
C1129 C253 1.489 . S
C1137 C721 1.205 . S
C1161 C145 1.505 . S
C1169 C727 1.490 . S
C1193 C205 1.490 . S
C1201 C720 1.446 . S
C1225 C217 1.471 . S
C1233 C728 1.474 . S
C1257 C139 1.492 . S
C1265 C622 1.469 . S
C1289 C535 1.471 . S
C1297 C623 1.275 . S
C1329 C580 1.485 . S
C1321 C565 1.537 . S
C1361 C601 1.447 . S
C1353 C313 1.448 . S
C1385 C175 1.501 . S
C1393 C636 1.465 . S
C1425 C686 1.527 . S
C1417 C397 1.509 . S
C1457 C637 1.194 . S
C1449 C349 1.437 . S
C1489 C665 1.270 . S
C1481 C457 1.561 . S
C1521 C671 1.443 . S
C1513 C505 1.437 . S
C1545 C571 1.544 . S
C1553 C679 1.306 . S
C1577 C319 1.442 . S
C1585 C643 1.425 . S
C1617 C657 1.502 . S
C1609 C493 1.519 . S
C1641 C109 1.526 . S
C1649 C616 1.528 . S
C1681 C630 1.515 . S
C1673 C1 1.490 . S
C1713 C588 1.565 . S
C1705 C61 1.549 . S
C1745 C594 1.453 . S
C1737 C103 1.486 . S
C1769 C67 1.515 . S
C1777 C706 1.507 . S
C1801 C73 1.546 . S
C1809 C699 1.540 . S
C1833 C133 1.452 . S
C1841 C707 1.215 . S
C1865 C31 1.539 . S
C1873 C700 1.542 . S
C1905 C735 1.246 . S
C1897 C289 1.484 . S
C1937 C741 1.503 . S
C1929 C469 1.514 . S
C1969 C734 1.437 . S
C1961 C529 1.486 . S
C1993 C541 1.465 . S
C2001 C742 1.472 . S
C2025 C391 1.493 . S
C2033 C650 1.478 . S
C2065 C651 1.263 . S
C2057 C211 1.486 . S
C2097 C664 1.501 . S
C2089 C241 1.541 . S
C2129 C685 1.440 . S
C2121 C277 1.461 . S
C2153 C499 1.498 . S
C2161 C608 1.453 1_556 S
C2193 C602 1.525 . S
C2185 C37 1.526 . S
C2217 C97 1.448 . S
C2225 C609 1.229 . S
C2257 C581 1.281 . S
C2249 C25 1.537 . S
