# Generated by pormake.
# Topology zzz, (3,6)-cn, num edge types: 1
# Building blocks:
#     Node 0, Type 0, BuildingBlock: BELTOD_clean_linker_0, # of connection points: 3
#     Node 1, Type 0, BuildingBlock: BELTOD_clean_linker_0, # of connection points: 3
#     Node 2, Type 0, BuildingBlock: BELTOD_clean_linker_0, # of connection points: 3
#     Node 3, Type 0, BuildingBlock: BELTOD_clean_linker_0, # of connection points: 3
#     Node 4, Type 0, BuildingBlock: BELTOD_clean_linker_0, # of connection points: 3
#     Node 5, Type 0, BuildingBlock: BELTOD_clean_linker_0, # of connection points: 3
#     Node 6, Type 0, BuildingBlock: BELTOD_clean_linker_0, # of connection points: 3
#     Node 7, Type 0, BuildingBlock: BELTOD_clean_linker_0, # of connection points: 3
#     Node 8, Type 1, BuildingBlock: PAMTUU_clean_sbu_0, # of connection points: 6
#     Node 9, Type 1, BuildingBlock: PAMTUU_clean_sbu_0, # of connection points: 6
#     Node 10, Type 1, BuildingBlock: PAMTUU_clean_sbu_0, # of connection points: 6
#     Node 11, Type 1, BuildingBlock: PAMTUU_clean_sbu_0, # of connection points: 6
#     Edge 12, Type (0, 1), BuildingBlock: KIFKEQ_clean_linker_1, # of connection points: 2
#     Edge 13, Type (0, 1), BuildingBlock: KIFKEQ_clean_linker_1, # of connection points: 2
#     Edge 14, Type (0, 1), BuildingBlock: KIFKEQ_clean_linker_1, # of connection points: 2
#     Edge 15, Type (0, 1), BuildingBlock: KIFKEQ_clean_linker_1, # of connection points: 2
#     Edge 16, Type (0, 1), BuildingBlock: KIFKEQ_clean_linker_1, # of connection points: 2
#     Edge 17, Type (0, 1), BuildingBlock: KIFKEQ_clean_linker_1, # of connection points: 2
#     Edge 18, Type (0, 1), BuildingBlock: KIFKEQ_clean_linker_1, # of connection points: 2
#     Edge 19, Type (0, 1), BuildingBlock: KIFKEQ_clean_linker_1, # of connection points: 2
#     Edge 20, Type (0, 1), BuildingBlock: KIFKEQ_clean_linker_1, # of connection points: 2
#     Edge 21, Type (0, 1), BuildingBlock: KIFKEQ_clean_linker_1, # of connection points: 2
#     Edge 22, Type (0, 1), BuildingBlock: KIFKEQ_clean_linker_1, # of connection points: 2
#     Edge 23, Type (0, 1), BuildingBlock: KIFKEQ_clean_linker_1, # of connection points: 2
#     Edge 24, Type (0, 1), BuildingBlock: KIFKEQ_clean_linker_1, # of connection points: 2
#     Edge 25, Type (0, 1), BuildingBlock: KIFKEQ_clean_linker_1, # of connection points: 2
#     Edge 26, Type (0, 1), BuildingBlock: KIFKEQ_clean_linker_1, # of connection points: 2
#     Edge 27, Type (0, 1), BuildingBlock: KIFKEQ_clean_linker_1, # of connection points: 2
#     Edge 28, Type (0, 1), BuildingBlock: KIFKEQ_clean_linker_1, # of connection points: 2
#     Edge 29, Type (0, 1), BuildingBlock: KIFKEQ_clean_linker_1, # of connection points: 2
#     Edge 30, Type (0, 1), BuildingBlock: KIFKEQ_clean_linker_1, # of connection points: 2
#     Edge 31, Type (0, 1), BuildingBlock: KIFKEQ_clean_linker_1, # of connection points: 2
#     Edge 32, Type (0, 1), BuildingBlock: KIFKEQ_clean_linker_1, # of connection points: 2
#     Edge 33, Type (0, 1), BuildingBlock: KIFKEQ_clean_linker_1, # of connection points: 2
#     Edge 34, Type (0, 1), BuildingBlock: KIFKEQ_clean_linker_1, # of connection points: 2
#     Edge 35, Type (0, 1), BuildingBlock: KIFKEQ_clean_linker_1, # of connection points: 2
# Relax obj value: 0.366
# Max RMSD: 0.263
# Mean RMSD: 0.210
data_MOF--net-zzz--node1-PAMTUU_clean_sbu_0--node2-BELTOD_clean_linker_0--edge1-KIFKEQ_clean_linker_1
_symmetry_space_group_name_H-M    P1
_symmetry_Int_Tables_number       1
_symmetry_cell_setting            triclinic
loop_
_symmetry_equiv_pos_as_xyz
'x, y, z'
_cell_length_a     55.231206
_cell_length_b     58.445922
_cell_length_c     19.530333
_cell_angle_alpha  99.356428
_cell_angle_beta   89.96276
_cell_angle_gamma 89.86684
loop_
_atom_site_label
_atom_site_type_symbol
_atom_site_fract_x
_atom_site_fract_y
_atom_site_fract_z
_atom_type_partial_charge
P0 P 0.73832 0.4529 0.35373 0.0
H1 H 0.76441 0.43414 0.45907 0.0
H2 H 0.79853 0.44745 0.53184 0.0
H3 H 0.79379 0.51449 0.46592 0.0
H4 H 0.75974 0.50025 0.38964 0.0
H5 H 0.68699 0.46286 0.38016 0.0
H6 H 0.65531 0.47476 0.30618 0.0
H7 H 0.70969 0.49169 0.16375 0.0
H8 H 0.74142 0.47983 0.23838 0.0
H9 H 0.73158 0.40931 0.25713 0.0
H10 H 0.78533 0.46329 0.29765 0.0
O11 O 0.72267 0.43312 0.38806 0.0
H12 H 0.75802 0.3877 0.16751 0.0
H13 H 0.81157 0.44187 0.20976 0.0
C14 C 0.759 0.46635 0.42017 0.0
C15 C 0.77015 0.45197 0.46168 0.0
C16 C 0.78986 0.45971 0.5037 0.0
C17 C 0.79912 0.48224 0.50591 0.0
C18 C 0.78742 0.49698 0.46552 0.0
C19 C 0.76764 0.48903 0.42264 0.0
C20 C 0.71663 0.4701 0.3145 0.0
C21 C 0.69222 0.46979 0.33419 0.0
C22 C 0.67405 0.47638 0.29137 0.0
C23 C 0.67991 0.48362 0.22811 0.0
C24 C 0.70452 0.4861 0.21193 0.0
C25 C 0.72273 0.47937 0.25477 0.0
C26 C 0.75685 0.43751 0.28558 0.0
C27 C 0.74905 0.41644 0.24703 0.0
C28 C 0.76405 0.40418 0.19583 0.0
C29 C 0.787 0.4129 0.18309 0.0
C30 C 0.79422 0.43446 0.21995 0.0
C31 C 0.77921 0.44672 0.27031 0.0
P32 P 0.06029 0.73027 0.40518 0.0
H33 H 0.06918 0.75503 0.54396 0.0
H34 H 0.05054 0.78948 0.60749 0.0
H35 H 0.99098 0.78216 0.46174 0.0
H36 H 0.01088 0.74821 0.39562 0.0
H37 H 0.07996 0.69623 0.29675 0.0
H38 H 0.06456 0.66022 0.23101 0.0
H39 H 0.9973 0.66989 0.34523 0.0
H40 H 0.01305 0.70615 0.41173 0.0
H41 H 0.098 0.76518 0.4091 0.0
H42 H 0.03985 0.738 0.27273 0.0
O43 O 0.08498 0.723 0.44599 0.0
H44 H 0.1048 0.79578 0.33943 0.0
H45 H 0.04639 0.76858 0.20323 0.0
C46 C 0.04125 0.7487 0.46564 0.0
C47 C 0.05164 0.76024 0.527 0.0
C48 C 0.04082 0.78014 0.56358 0.0
C49 C 0.01922 0.78899 0.53976 0.0
C50 C 1.00783 0.77623 0.48111 0.0
C51 C 0.01893 0.75645 0.44391 0.0
C52 C 0.04759 0.70394 0.35855 0.0
C53 C 0.0619 0.6906 0.30783 0.0
C54 C 0.05313 0.66993 0.2706 0.0
C55 C 0.02977 0.66211 0.28327 0.0
C56 C 0.01533 0.67555 0.33417 0.0
C57 C 0.02429 0.69628 0.37207 0.0
C58 C 0.06888 0.74898 0.34497 0.0
C59 C 0.08718 0.7654 0.36298 0.0
C60 C 0.09085 0.78303 0.32363 0.0
C61 C 0.07611 0.7846 0.2659 0.0
C62 C 0.05829 0.76762 0.24672 0.0
C63 C 0.05458 0.75007 0.28632 0.0
P64 P 0.80121 0.0355 0.40865 0.0
H65 H 0.7911 0.03286 0.55432 0.0
H66 H 0.75495 0.02176 0.61201 0.0
H67 H 0.72374 0.99433 0.41294 0.0
H68 H 0.76047 0.0051 0.35529 0.0
H69 H 0.85314 0.02563 0.41556 0.0
H70 H 0.88275 0.01268 0.3251 0.0
H71 H 0.82484 0.9952 0.17742 0.0
H72 H 0.79518 0.00858 0.2686 0.0
H73 H 0.75247 0.05634 0.42029 0.0
H74 H 0.81663 0.06013 0.29643 0.0
O75 O 0.81756 0.05163 0.47022 0.0
H76 H 0.73003 0.07812 0.34606 0.0
H77 H 0.79444 0.08308 0.22321 0.0
C78 C 0.77861 0.01988 0.45023 0.0
C79 C 0.77688 0.02381 0.52287 0.0
C80 C 0.75594 0.01771 0.55596 0.0
C81 C 0.73607 0.00766 0.51724 0.0
C82 C 0.73862 0.00202 0.44459 0.0
C83 C 0.75973 0.00805 0.41144 0.0
C84 C 0.82186 0.01823 0.349 0.0
C85 C 0.84669 0.01837 0.36433 0.0
C86 C 0.86371 0.01093 0.31222 0.0
C87 C 0.85629 0.00324 0.2434 0.0
C88 C 0.83126 0.00142 0.22948 0.0
C89 C 0.81422 0.00875 0.28187 0.0
C90 C 0.78588 0.05537 0.36154 0.0
C91 C 0.76184 0.06192 0.37726 0.0
C92 C 0.74906 0.07488 0.33525 0.0
C93 C 0.76027 0.08209 0.27761 0.0
C94 C 0.78504 0.07727 0.26592 0.0
C95 C 0.79775 0.06412 0.30779 0.0
P96 P 0.48191 0.77145 0.20087 0.0
H97 H 0.47227 0.76707 0.3457 0.0
H98 H 0.48912 0.7409 0.41875 0.0
H99 H 0.54518 0.72055 0.26634 0.0
H100 H 0.52885 0.74745 0.1952 0.0
H101 H 0.45879 0.80868 0.14509 0.0
H102 H 0.47361 0.84398 0.10866 0.0
H103 H 0.54623 0.82758 0.16759 0.0
H104 H 0.5311 0.7919 0.20395 0.0
H105 H 0.4473 0.73439 0.1577 0.0
H106 H 0.51409 0.75887 0.08117 0.0
O107 O 0.45383 0.77692 0.23099 0.0
H108 H 0.44984 0.69925 0.07103 0.0
H109 H 0.51702 0.72339 0.99539 0.0
C110 C 0.49898 0.75891 0.26423 0.0
C111 C 0.48863 0.75755 0.32896 0.0
C112 C 0.49817 0.74236 0.37045 0.0
C113 C 0.51811 0.7281 0.34758 0.0
C114 C 0.52981 0.7312 0.28573 0.0
C115 C 0.52037 0.74656 0.24462 0.0
C116 C 0.49374 0.79792 0.17851 0.0
C117 C 0.47786 0.8128 0.15115 0.0
C118 C 0.48636 0.83305 0.13054 0.0
C119 C 0.51106 0.83878 0.13615 0.0
C120 C 0.52709 0.82365 0.16279 0.0
C121 C 0.51846 0.80333 0.18389 0.0
C122 C 0.48037 0.74934 0.12538 0.0
C123 C 0.46209 0.73258 0.12075 0.0
C124 C 0.46356 0.71248 0.07127 0.0
C125 C 0.48365 0.70864 0.02675 0.0
C126 C 0.50135 0.72598 0.0292 0.0
C127 C 0.49962 0.74628 0.07792 0.0
P128 P 0.27511 0.45626 0.21665 0.0
H129 H 0.25504 0.43089 0.08788 0.0
H130 H 0.22132 0.43963 0.0161 0.0
H131 H 0.22074 0.5104 0.1221 0.0
H132 H 0.25467 0.50146 0.19497 0.0
H133 H 0.32082 0.43093 0.21479 0.0
H134 H 0.35768 0.44107 0.28048 0.0
H135 H 0.33499 0.51268 0.32127 0.0
H136 H 0.29778 0.50239 0.25467 0.0
H137 H 0.22357 0.46208 0.25102 0.0
H138 H 0.29147 0.46864 0.36223 0.0
O139 O 0.27499 0.42731 0.20409 0.0
H140 H 0.20237 0.47837 0.35769 0.0
H141 H 0.27033 0.48567 0.4679 0.0
C142 C 0.25748 0.46547 0.14735 0.0
C143 C 0.24829 0.44851 0.09464 0.0
C144 C 0.22875 0.45346 0.05384 0.0
C145 C 0.21797 0.47558 0.06428 0.0
C146 C 0.22859 0.49318 0.11276 0.0
C147 C 0.24816 0.48813 0.15411 0.0
C148 C 0.30624 0.46583 0.23007 0.0
C149 C 0.32406 0.44901 0.23509 0.0
C150 C 0.34511 0.45478 0.27366 0.0
C151 C 0.34892 0.47754 0.30798 0.0
C152 C 0.33254 0.49495 0.2958 0.0
C153 C 0.31134 0.48912 0.25692 0.0
C154 C 0.2593 0.46545 0.29727 0.0
C155 C 0.23398 0.46715 0.29795 0.0
C156 C 0.22185 0.47625 0.35902 0.0
C157 C 0.23488 0.48364 0.42032 0.0
C158 C 0.26003 0.48053 0.42074 0.0
C159 C 0.2721 0.47102 0.35995 0.0
P160 P 0.09139 0.26608 0.23522 0.0
H161 H 0.11995 0.24233 0.11868 0.0
H162 H 0.11012 0.20914 0.03057 0.0
H163 H 0.03451 0.21714 0.08553 0.0
H164 H 0.04441 0.25039 0.17384 0.0
H165 H 0.11665 0.30668 0.30548 0.0
H166 H 0.10296 0.34563 0.35298 0.0
H167 H 0.03358 0.33121 0.25408 0.0
H168 H 0.04775 0.29222 0.20394 0.0
H169 H 0.10679 0.22702 0.30024 0.0
H170 H 0.0444 0.27196 0.30789 0.0
O171 O 0.12138 0.26425 0.24406 0.0
H172 H 0.08529 0.20282 0.37125 0.0
H173 H 0.02297 0.24791 0.37845 0.0
C174 C 0.08296 0.24891 0.15337 0.0
C175 C 0.10113 0.23757 0.11033 0.0
C176 C 0.09553 0.2184 0.06024 0.0
C177 C 0.07161 0.21024 0.05207 0.0
C178 C 0.05311 0.22302 0.09047 0.0
C179 C 0.05876 0.24217 0.14089 0.0
C180 C 0.08326 0.29643 0.25099 0.0
C181 C 0.0988 0.31207 0.29151 0.0
C182 C 0.09096 0.33441 0.31886 0.0
C183 C 0.06717 0.34139 0.30758 0.0
C184 C 0.05201 0.3262 0.2637 0.0
C185 C 0.06012 0.30396 0.23485 0.0
C186 C 0.07747 0.25161 0.29972 0.0
C187 C 0.08877 0.2321 0.31879 0.0
C188 C 0.07645 0.21825 0.35923 0.0
C189 C 0.05244 0.2235 0.38019 0.0
C190 C 0.04141 0.24341 0.36264 0.0
C191 C 0.05381 0.25732 0.32272 0.0
P192 P 0.25615 0.04675 0.25181 0.0
H193 H 0.26782 0.06302 0.12138 0.0
H194 H 0.30118 0.05334 0.03984 0.0
H195 H 0.31896 0.99438 0.13837 0.0
H196 H 0.28475 0.00355 0.21715 0.0
H197 H 0.21383 0.07472 0.29649 0.0
H198 H 0.17622 0.06485 0.34716 0.0
H199 H 0.19052 0.99211 0.27568 0.0
H200 H 0.22914 0.0024 0.22645 0.0
H201 H 0.30628 0.04998 0.2982 0.0
H202 H 0.23836 0.02777 0.37537 0.0
O203 O 0.25818 0.07551 0.2582 0.0
H204 H 0.32765 0.0345 0.39032 0.0
H205 H 0.25962 0.01218 0.46603 0.0
C206 C 0.27393 0.0343 0.17644 0.0
C207 C 0.27835 0.04753 0.12393 0.0
C208 C 0.29783 0.04216 0.07791 0.0
C209 C 0.31354 0.0235 0.08358 0.0
C210 C 0.30753 0.00895 0.13204 0.0
C211 C 0.28781 0.01419 0.17747 0.0
C212 C 0.22439 0.03937 0.2568 0.0
C213 C 0.20854 0.05666 0.28877 0.0
C214 C 0.18681 0.0509 0.31835 0.0
C215 C 0.1802 0.02758 0.31684 0.0
C216 C 0.19512 0.01026 0.27925 0.0
C217 C 0.21703 0.01611 0.24952 0.0
C218 C 0.27083 0.03924 0.32764 0.0
C219 C 0.29592 0.04204 0.33517 0.0
C220 C 0.30808 0.03332 0.38806 0.0
C221 C 0.29524 0.02182 0.43448 0.0
C222 C 0.26995 0.02055 0.42995 0.0
C223 C 0.25781 0.02938 0.37739 0.0
P224 P 0.44319 0.23077 0.40824 0.0
H225 H 0.41191 0.2421 0.29749 0.0
H226 H 0.4191 0.26661 0.21022 0.0
H227 H 0.49586 0.2654 0.25188 0.0
H228 H 0.48848 0.24124 0.34038 0.0
H229 H 0.41884 0.19379 0.46443 0.0
H230 H 0.43276 0.15729 0.49557 0.0
H231 H 0.50338 0.16807 0.41209 0.0
H232 H 0.48904 0.20432 0.37759 0.0
H233 H 0.42498 0.2747 0.48138 0.0
H234 H 0.49211 0.23637 0.47018 0.0
O235 O 0.41327 0.23223 0.4207 0.0
H236 H 0.44506 0.30816 0.54822 0.0
H237 H 0.51232 0.26991 0.53641 0.0
C238 C 0.44961 0.23986 0.32613 0.0
C239 C 0.43041 0.24637 0.28637 0.0
C240 C 0.43455 0.26047 0.23618 0.0
C241 C 0.45802 0.26839 0.22496 0.0
C242 C 0.4775 0.25999 0.26025 0.0
C243 C 0.47332 0.24586 0.31036 0.0
C244 C 0.45289 0.20199 0.4188 0.0
C245 C 0.43715 0.18815 0.45093 0.0
C246 C 0.4451 0.16722 0.46883 0.0
C247 C 0.46914 0.15994 0.45644 0.0
C248 C 0.48476 0.17339 0.42238 0.0
C249 C 0.47657 0.19412 0.40279 0.0
C250 C 0.45684 0.25278 0.47172 0.0
C251 C 0.44384 0.27318 0.49504 0.0
C252 C 0.45538 0.29236 0.53306 0.0
C253 C 0.48028 0.29164 0.54741 0.0
C254 C 0.49314 0.27097 0.52575 0.0
C255 C 0.48149 0.25168 0.48838 0.0
Tb256 Tb 0.99887 0.01152 0.72776 0.0
Tb257 Tb 0.04085 0.99401 0.82533 0.0
C258 C 0.98577 0.99828 0.87143 0.0
C259 C 0.97121 0.05164 0.63088 0.0
C260 C 0.97809 0.09439 0.58497 0.0
C261 C 0.95862 0.07991 0.55966 0.0
C262 C 0.95517 0.05863 0.58266 0.0
C263 C 0.99049 0.06612 0.65632 0.0
C264 C 0.99388 0.08724 0.63377 0.0
C265 C 0.96896 0.02908 0.65392 0.0
O266 O 0.00945 0.04105 0.80512 0.0
O267 O 0.04833 0.03041 0.8246 0.0
O268 O 0.05686 0.99232 0.72218 0.0
O269 O 0.03315 0.01943 0.682 0.0
O270 O 0.0587 0.99721 0.92143 0.0
O271 O 0.06974 0.97145 0.835 0.0
O272 O 0.01846 0.96393 0.79022 0.0
O273 O 1.00396 0.9746 0.68986 0.0
O274 O 0.97927 0.99649 0.80607 0.0
O275 O 1.00854 0.00183 0.89033 0.0
C276 C 0.03157 0.04642 0.82626 0.0
O277 O 0.98525 0.01384 0.62864 0.0
O278 O 0.96664 0.03013 0.72077 0.0
C279 C 0.05272 0.00649 0.67764 0.0
C280 C 0.07266 0.96121 0.94533 0.0
C281 C 0.07406 0.92397 0.02044 0.0
C282 C 0.09553 0.9352 0.00585 0.0
C283 C 0.0948 0.95366 0.96854 0.0
C284 C 0.05114 0.9504 0.96068 0.0
C285 C 0.05182 0.93197 0.99812 0.0
C286 C 0.07237 0.97916 0.90096 0.0
C287 C 0.00891 0.95865 0.7282 0.0
H288 H 0.94615 0.085 0.52204 0.0
H289 H 0.94025 0.04758 0.56234 0.0
H290 H 1.00325 0.06088 0.6929 0.0
H291 H 0.00938 0.09765 0.6531 0.0
H292 H 0.11297 0.92929 0.02144 0.0
H293 H 0.11159 0.9617 0.95644 0.0
H294 H 0.03387 0.95598 0.9427 0.0
H295 H 0.03495 0.92393 0.0093 0.0
Tb296 Tb 0.51767 0.98101 0.74594 0.0
Tb297 Tb 0.5354 0.02377 0.86317 0.0
C298 C 0.53696 0.97292 0.88678 0.0
C299 C 0.47563 0.94069 0.64895 0.0
C300 C 0.42537 0.94041 0.62648 0.0
C301 C 0.43456 0.93944 0.69289 0.0
C302 C 0.45948 0.93964 0.70412 0.0
C303 C 0.46652 0.93927 0.58148 0.0
C304 C 0.44155 0.93913 0.57026 0.0
C305 C 0.50108 0.94728 0.66299 0.0
O306 O 0.48728 0.9875 0.8184 0.0
O307 O 0.49597 0.02459 0.87205 0.0
O308 O 0.53366 0.03625 0.7644 0.0
O309 O 0.50286 0.01284 0.7181 0.0
O310 O 0.55378 0.03454 0.95641 0.0
O311 O 0.53656 0.05951 0.90205 0.0
O312 O 0.5686 0.00934 0.81195 0.0
O313 O 0.55305 0.99016 0.70905 0.0
O314 O 0.54078 0.96767 0.82003 0.0
O315 O 0.52904 0.99363 0.9129 0.0
C316 C 0.48085 0.00707 0.85763 0.0
O317 O 0.50759 0.96678 0.64406 0.0
O318 O 0.50896 0.94567 0.72491 0.0
C319 C 0.51564 0.03185 0.72065 0.0
C320 C 0.573 0.07021 0.96146 0.0
C321 C 0.61909 0.0897 0.99045 0.0
C322 C 0.60002 0.09484 0.03837 0.0
C323 C 0.57717 0.08509 0.02398 0.0
C324 C 0.59138 0.06636 0.91129 0.0
C325 C 0.61428 0.07608 0.92564 0.0
C326 C 0.55076 0.05645 0.9531 0.0
C327 C 0.57142 0.99931 0.74685 0.0
H328 H 0.4225 0.9401 0.73694 0.0
H329 H 0.46593 0.9406 0.75686 0.0
H330 H 0.47863 0.94008 0.53828 0.0
H331 H 0.43503 0.94005 0.51848 0.0
H332 H 0.60318 0.105 0.08908 0.0
H333 H 0.56316 0.08811 0.06332 0.0
H334 H 0.5884 0.05487 0.86264 0.0
H335 H 0.62854 0.07199 0.88746 0.0
Tb336 Tb 0.49425 0.4895 0.83 0.0
Tb337 Tb 0.53402 0.50486 0.7186 0.0
C338 C 0.4785 0.49823 0.68104 0.0
C339 C 0.46532 0.45409 0.9449 0.0
C340 C 0.46507 0.41216 0.99926 0.0
C341 C 0.44587 0.42818 0.01334 0.0
C342 C 0.446 0.44895 0.98623 0.0
C343 C 0.48457 0.43831 0.93111 0.0
C344 C 0.48443 0.41753 0.95778 0.0
C345 C 0.46523 0.47545 0.91413 0.0
O346 O 0.505 0.458 0.76302 0.0
O347 O 0.54075 0.46789 0.71339 0.0
O348 O 0.55277 0.50638 0.81775 0.0
O349 O 0.52955 0.48133 0.86881 0.0
O350 O 0.54905 0.50299 0.6188 0.0
O351 O 0.5624 0.52747 0.7048 0.0
O352 O 0.511 0.53461 0.75425 0.0
O353 O 0.50115 0.52625 0.86117 0.0
O354 O 0.47283 0.5008 0.74741 0.0
O355 O 0.50106 0.49565 0.65954 0.0
C356 C 0.52519 0.45248 0.72876 0.0
O357 O 0.46195 0.4724 0.84723 0.0
O358 O 0.48292 0.48982 0.93297 0.0
C359 C 0.54952 0.49324 0.86562 0.0
C360 C 0.55927 0.54046 0.59845 0.0
C361 C 0.55325 0.58049 0.53661 0.0
C362 C 0.5765 0.57136 0.5445 0.0
C363 C 0.57947 0.55149 0.57523 0.0
C364 C 0.53603 0.5493 0.58981 0.0
C365 C 0.53304 0.56908 0.55905 0.0
C366 C 0.56247 0.52125 0.63772 0.0
C367 C 0.50418 0.54123 0.8187 0.0
H368 H 0.43085 0.42479 0.04586 0.0
H369 H 0.43099 0.46095 0.99738 0.0
H370 H 0.49962 0.44203 0.89917 0.0
H371 H 0.49934 0.40553 0.94495 0.0
H372 H 0.5924 0.57964 0.52724 0.0
H373 H 0.59756 0.54502 0.58218 0.0
H374 H 0.52023 0.54124 0.6085 0.0
H375 H 0.51493 0.57584 0.55486 0.0
Tb376 Tb 0.01626 0.52248 0.76255 0.0
Tb377 Tb 0.99971 0.47784 0.83023 0.0
C378 C 0.99753 0.52764 0.91137 0.0
C379 C 0.05771 0.56505 0.71558 0.0
C380 C 0.10825 0.56603 0.69922 0.0
C381 C 0.09813 0.56566 0.76496 0.0
C382 C 0.07308 0.56509 0.77307 0.0
C383 C 0.06772 0.56797 0.65166 0.0
C384 C 0.09282 0.56846 0.64347 0.0
C385 C 0.03233 0.55766 0.71882 0.0
O386 O 0.04641 0.5157 0.82915 0.0
O387 O 0.03921 0.47738 0.83453 0.0
O388 O 1.00067 0.46776 0.71827 0.0
O389 O 0.03148 0.49168 0.69886 0.0
O390 O 0.98255 0.46446 0.91054 0.0
O391 O 0.99947 0.44158 0.8259 0.0
O392 O 0.96604 0.49287 0.79832 0.0
O393 O 0.98096 0.51324 0.71595 0.0
O394 O 0.99306 0.53379 0.85119 0.0
O395 O 1.00582 0.50677 0.91379 0.0
C396 C 0.05367 0.49548 0.84299 0.0
O397 O 0.02692 0.53837 0.6781 0.0
O398 O 0.02342 0.55818 0.78084 0.0
C399 C 0.01869 0.47283 0.67985 0.0
C400 C 0.96372 0.42854 0.87325 0.0
C401 C 0.92149 0.40203 0.88086 0.0
C402 C 0.94456 0.39166 0.88044 0.0
C403 C 0.96549 0.40488 0.87728 0.0
C404 C 0.94084 0.43845 0.86726 0.0
C405 C 0.91996 0.42542 0.87157 0.0
C406 C 0.98556 0.44304 0.88033 0.0
C407 C 0.96285 0.50354 0.74445 0.0
H408 H 0.10958 0.56408 0.80899 0.0
H409 H 0.06593 0.56294 0.82328 0.0
H410 H 0.05622 0.56794 0.60671 0.0
H411 H 0.10004 0.56859 0.59196 0.0
H412 H 0.94651 0.3736 0.88573 0.0
H413 H 0.98305 0.39685 0.88077 0.0
H414 H 0.93903 0.45663 0.86298 0.0
H415 H 0.90271 0.43428 0.87241 0.0
H416 H 0.13705 0.05112 0.34536 0.0
H417 H 0.17593 0.99093 0.38904 0.0
H418 H 0.10669 0.04549 0.43051 0.0
H419 H 0.1444 0.98406 0.47002 0.0
H420 H 0.10051 0.99334 0.67116 0.0
H421 H 0.12988 0.99698 0.58053 0.0
H422 H 0.07418 0.0256 0.46357 0.0
H423 H 0.04534 0.02315 0.55622 0.0
C424 C 0.13904 0.03646 0.37239 0.0
C425 C 0.15935 0.02172 0.36039 0.0
C426 C 0.12129 0.03299 0.42095 0.0
C427 C 0.12292 0.01438 0.45845 0.0
C428 C 0.1426 0.99894 0.44384 0.0
C429 C 0.16058 0.00262 0.39596 0.0
C430 C 0.09457 0.00043 0.62606 0.0
C431 C 0.07058 0.0081 0.62135 0.0
C432 C 0.11141 0.00235 0.57345 0.0
C433 C 0.10467 0.01162 0.51384 0.0
C434 C 0.08044 0.01885 0.50886 0.0
C435 C 0.06374 0.01732 0.56205 0.0
H436 H 0.50725 0.15809 0.54305 0.0
H437 H 0.45072 0.11602 0.43546 0.0
H438 H 0.51889 0.12631 0.60253 0.0
H439 H 0.46317 0.08344 0.49133 0.0
H440 H 0.47176 0.03984 0.66429 0.0
H441 H 0.46163 0.0697 0.59531 0.0
H442 H 0.53675 0.09081 0.59987 0.0
H443 H 0.54631 0.06199 0.67263 0.0
C444 C 0.49777 0.14173 0.53077 0.0
C445 C 0.47815 0.13946 0.48466 0.0
C446 C 0.50447 0.12338 0.56468 0.0
C447 C 0.492 0.10208 0.55228 0.0
C448 C 0.47291 0.09963 0.50377 0.0
C449 C 0.4659 0.11819 0.47101 0.0
C450 C 0.48606 0.05086 0.65021 0.0
C451 C 0.50976 0.04874 0.67434 0.0
C452 C 0.48033 0.06793 0.61011 0.0
C453 C 0.4983 0.08297 0.59183 0.0
C454 C 0.52221 0.08012 0.61414 0.0
C455 C 0.52779 0.06344 0.65554 0.0
H456 H 0.35863 0.45241 0.41038 0.0
H457 H 0.382 0.5134 0.33059 0.0
H458 H 0.38921 0.45935 0.50113 0.0
H459 H 0.41289 0.52042 0.42223 0.0
H460 H 0.48296 0.50413 0.54518 0.0
H461 H 0.45146 0.501 0.45633 0.0
H462 H 0.39832 0.4882 0.60764 0.0
H463 H 0.42978 0.49141 0.69672 0.0
C464 C 0.37046 0.46725 0.41191 0.0
C465 C 0.36804 0.4822 0.3626 0.0
C466 C 0.38782 0.47138 0.46454 0.0
C467 C 0.40349 0.49047 0.4692 0.0
C468 C 0.40117 0.50548 0.41988 0.0
C469 C 0.38345 0.50152 0.36758 0.0
C470 C 0.46453 0.50078 0.55972 0.0
C471 C 0.45897 0.49787 0.62819 0.0
C472 C 0.44644 0.49915 0.50878 0.0
C473 C 0.42238 0.49423 0.52468 0.0
C474 C 0.41673 0.49178 0.59345 0.0
C475 C 0.43475 0.49374 0.64465 0.0
H476 H 0.08659 0.38504 0.32355 0.0
H477 H 0.02676 0.3462 0.38763 0.0
H478 H 0.07359 0.41921 0.40453 0.0
H479 H 0.01445 0.37958 0.47109 0.0
H480 H 0.98788 0.44485 0.59648 0.0
H481 H 0.99777 0.41588 0.49632 0.0
H482 H 0.07352 0.43407 0.52187 0.0
H483 H 0.06313 0.46414 0.61932 0.0
C484 C 0.07051 0.38393 0.35465 0.0
C485 C 0.05757 0.36305 0.34902 0.0
C486 C 0.06317 0.40342 0.4017 0.0
C487 C 0.04301 0.40232 0.44532 0.0
C488 C 0.02974 0.38148 0.43783 0.0
C489 C 0.03681 0.3622 0.38992 0.0
C490 C 1.0066 0.44279 0.58001 0.0
C491 C 0.02476 0.45661 0.61588 0.0
C492 C 0.01236 0.42602 0.5228 0.0
C493 C 0.03656 0.42216 0.50103 0.0
C494 C 0.05464 0.43658 0.536 0.0
C495 C 0.04875 0.45378 0.59231 0.0
H496 H 0.90108 0.98224 0.24219 0.0
H497 H 0.85324 0.01595 0.11469 0.0
H498 H 0.93212 0.97923 0.15207 0.0
H499 H 0.8842 0.01313 0.02512 0.0
H500 H 0.93736 0.9892 0.8516 0.0
H501 H 0.90616 0.98787 0.93893 0.0
H502 H 0.95982 0.00304 0.10066 0.0
H503 H 0.99118 0.00376 0.01308 0.0
C504 C 0.89713 0.98897 0.19491 0.0
C505 C 0.87455 0.9993 0.18593 0.0
C506 C 0.915 0.98732 0.14321 0.0
C507 C 0.91084 0.99602 0.08107 0.0
C508 C 0.88805 0.00588 0.07157 0.0
C509 C 0.87018 0.00747 0.12312 0.0
C510 C 0.94259 0.99215 0.90575 0.0
C511 C 0.96687 0.9967 0.92506 0.0
C512 C 0.92459 0.99152 0.95604 0.0
C513 C 0.9303 0.99548 0.02724 0.0
C514 C 0.95468 0.99963 0.04648 0.0
C515 C 0.97271 0.0002 0.99611 0.0
H516 H 0.49024 0.88174 0.15838 0.0
H517 H 0.55138 0.84403 0.05815 0.0
H518 H 0.50071 0.91506 0.10452 0.0
H519 H 0.56253 0.87784 0.00616 0.0
H520 H 0.54796 0.92715 0.84579 0.0
H521 H 0.54583 0.8961 0.91455 0.0
H522 H 0.5285 0.946 0.0966 0.0
H523 H 0.52999 0.97711 0.02714 0.0
C524 C 0.50615 0.8807 0.12556 0.0
C525 C 0.51976 0.86012 0.11172 0.0
C526 C 0.51235 0.89994 0.0953 0.0
C527 C 0.53239 0.89913 0.05054 0.0
C528 C 0.54678 0.87894 0.03958 0.0
C529 C 0.54055 0.85964 0.06995 0.0
C530 C 0.54402 0.93159 0.90068 0.0
C531 C 0.53886 0.9546 0.93077 0.0
C532 C 0.54296 0.91375 0.94032 0.0
C533 C 0.53682 0.91849 0.01111 0.0
C534 C 0.53288 0.94169 0.04196 0.0
C535 C 0.53385 0.95954 1.00221 0.0
H536 H 0.67415 0.51802 0.14804 0.0
H537 H 0.64216 0.45445 0.18981 0.0
H538 H 0.64268 0.52107 0.06187 0.0
H539 H 0.61139 0.45689 0.10265 0.0
H540 H 0.5457 0.47665 0.98836 0.0
H541 H 0.57648 0.47579 0.0767 0.0
H542 H 0.62806 0.50593 0.95077 0.0
H543 H 0.59678 0.50776 0.86373 0.0
C544 C 0.66044 0.50467 0.13866 0.0
C545 C 0.66052 0.48616 0.17653 0.0
C546 C 0.64243 0.5063 0.08887 0.0
C547 C 0.62422 0.48928 0.07494 0.0
C548 C 0.62457 0.4707 0.11268 0.0
C549 C 0.64233 0.46924 0.16285 0.0
C550 C 0.56362 0.48308 0.97937 0.0
C551 C 0.56872 0.49221 0.91864 0.0
C552 C 0.58142 0.48247 0.03009 0.0
C553 C 0.60503 0.49066 0.02129 0.0
C554 C 0.6101 0.49978 0.96033 0.0
C555 C 0.59216 0.50067 0.90993 0.0
H556 H 0.98558 0.65399 0.22029 0.0
H557 H 0.05369 0.62088 0.25194 0.0
H558 H 0.97313 0.61956 0.13938 0.0
H559 H 0.04167 0.58691 0.17004 0.0
H560 H 0.01123 0.52315 0.04344 0.0
H561 H 0.01475 0.55393 0.14366 0.0
H562 H 0.98579 0.60316 0.02221 0.0
H563 H 0.98181 0.57244 0.92285 0.0
C564 C 0.9977 0.63921 0.21088 0.0
C565 C 0.02072 0.64023 0.24181 0.0
C566 C 0.99068 0.61958 0.16411 0.0
C567 C 1.00648 0.60053 0.14772 0.0
C568 C 0.02894 0.60113 0.18176 0.0
C569 C 0.03596 0.62073 0.22817 0.0
C570 C 1.00519 0.54045 0.03854 0.0
C571 C 0.99648 0.54536 0.97489 0.0
C572 C 1.00734 0.55813 0.09588 0.0
C573 C 1.00077 0.58108 0.09085 0.0
C574 C 0.9908 0.58567 0.02826 0.0
C575 C 0.98869 0.56804 0.971 0.0
H576 H 1.00681 0.20724 0.35013 0.0
H577 H 0.06668 0.20306 0.48975 0.0
H578 H 0.98474 0.17842 0.40328 0.0
H579 H 0.04475 0.17405 0.54232 0.0
H580 H 0.99217 0.136 0.6588 0.0
H581 H 1.0075 0.16957 0.61285 0.0
H582 H 0.991 0.13579 0.40479 0.0
H583 H 0.97601 0.10202 0.45053 0.0
C584 C 0.01508 0.2004 0.39287 0.0
C585 C 0.03845 0.20736 0.41594 0.0
C586 C 1.00254 0.1838 0.42283 0.0
C587 C 0.01303 0.17404 0.47687 0.0
C588 C 0.03611 0.18149 0.50123 0.0
C589 C 0.04875 0.19791 0.47082 0.0
C590 C 0.99163 0.13582 0.60327 0.0
C591 C 0.9832 0.11623 0.55818 0.0
C592 C 1.0004 0.15502 0.57707 0.0
C593 C 1.00071 0.15514 0.50528 0.0
C594 C 0.99084 0.13621 0.46044 0.0
C595 C 0.98219 0.1169 0.48664 0.0
H596 H 0.28792 0.9775 0.45575 0.0
H597 H 0.33261 0.03768 0.5203 0.0
H598 H 0.3139 0.95462 0.52021 0.0
H599 H 0.3587 0.0148 0.584 0.0
H600 H 0.39941 0.97339 0.71015 0.0
H601 H 0.36198 0.99155 0.68087 0.0
H602 H 0.35687 0.94191 0.49181 0.0
H603 H 0.39412 0.92333 0.52179 0.0
C604 C 0.30292 0.98597 0.48528 0.0
C605 C 0.30844 0.00929 0.48277 0.0
C606 C 0.31781 0.97285 0.52176 0.0
C607 C 0.3383 0.98291 0.55683 0.0
C608 C 0.34285 0.00664 0.55805 0.0
C609 C 0.32811 0.01969 0.52108 0.0
C610 C 0.38981 0.96571 0.66373 0.0
C611 C 0.39985 0.94709 0.61766 0.0
C612 C 0.36848 0.97628 0.64677 0.0
C613 C 0.35679 0.96837 0.58366 0.0
C614 C 0.36549 0.94834 0.54095 0.0
C615 C 0.3869 0.93781 0.55776 0.0
H616 H 0.52273 0.30968 0.50777 0.0
H617 H 0.46592 0.32182 0.66143 0.0
H618 H 0.54099 0.34702 0.55553 0.0
H619 H 0.48373 0.35912 0.7081 0.0
H620 H 0.53491 0.42988 0.59796 0.0
H621 H 0.52929 0.38826 0.5576 0.0
H622 H 0.51858 0.37774 0.76949 0.0
H623 H 0.52365 0.41918 0.8089 0.0
C624 C 0.51441 0.32015 0.55252 0.0
C625 C 0.49287 0.3129 0.58089 0.0
C626 C 0.52475 0.34158 0.57941 0.0
C627 C 0.51386 0.35601 0.63562 0.0
C628 C 0.49282 0.34829 0.66544 0.0
C629 C 0.48244 0.32702 0.63833 0.0
C630 C 0.53225 0.41845 0.63577 0.0
C631 C 0.52944 0.42758 0.70627 0.0
C632 C 0.52897 0.39466 0.61284 0.0
C633 C 0.52296 0.37981 0.66032 0.0
C634 C 0.52261 0.38881 0.73152 0.0
C635 C 0.52565 0.41248 0.75415 0.0
H636 H 0.19544 0.46911 0.48419 0.0
H637 H 0.2457 0.52598 0.49364 0.0
H638 H 0.17073 0.49199 0.57398 0.0
H639 H 0.22081 0.54909 0.58353 0.0
H640 H 0.14106 0.58416 0.61724 0.0
H641 H 0.17793 0.56499 0.56801 0.0
H642 H 0.16975 0.51277 0.69924 0.0
H643 H 0.13279 0.53153 0.74749 0.0
C644 C 0.2014 0.48635 0.50673 0.0
C645 C 0.22228 0.4959 0.4821 0.0
C646 C 0.18744 0.49937 0.55843 0.0
C647 C 0.19394 0.52229 0.58564 0.0
C648 C 0.21548 0.53146 0.56336 0.0
C649 C 0.22969 0.51825 0.5123 0.0
C650 C 0.14757 0.569 0.63704 0.0
C651 C 0.13382 0.55915 0.68527 0.0
C652 C 0.16876 0.55813 0.60931 0.0
C653 C 0.17638 0.53722 0.6292 0.0
C654 C 0.16406 0.52876 0.68267 0.0
C655 C 0.14299 0.53966 0.71062 0.0
H656 H 0.08093 0.83016 0.3229 0.0
H657 H 0.075 0.78474 0.12581 0.0
H658 H 0.08112 0.8637 0.26352 0.0
H659 H 0.07545 0.81833 0.06608 0.0
H660 H 0.04784 0.8839 0.99196 0.0
H661 H 0.04935 0.85035 0.05115 0.0
H662 H 0.10483 0.88367 0.18804 0.0
H663 H 0.1025 0.91771 0.1309 0.0
C664 C 0.08012 0.82733 0.26674 0.0
C665 C 0.07799 0.8048 0.22899 0.0
C666 C 0.0802 0.84656 0.23268 0.0
C667 C 0.07823 0.84372 0.16004 0.0
C668 C 0.07658 0.82115 0.12218 0.0
C669 C 0.07641 0.8019 0.15631 0.0
C670 C 0.06014 0.88421 0.03527 0.0
C671 C 0.07497 0.90355 0.05687 0.0
C672 C 0.06127 0.86482 0.06855 0.0
C673 C 0.0773 0.86426 0.12414 0.0
C674 C 0.09213 0.88361 0.14578 0.0
C675 C 0.09097 0.90303 0.11256 0.0
H676 H 0.7646 0.07425 0.1359 0.0
H677 H 0.72196 0.11242 0.30226 0.0
H678 H 0.73514 0.08331 0.05209 0.0
H679 H 0.69159 0.11992 0.21901 0.0
H680 H 0.63674 0.13022 0.06492 0.0
H681 H 0.67593 0.1355 0.12338 0.0
H682 H 0.69692 0.06635 0.02744 0.0
H683 H 0.65837 0.06139 0.9688 0.0
C684 C 0.74927 0.08506 0.15468 0.0
C685 C 0.74538 0.0921 0.22621 0.0
C686 C 0.73216 0.09 0.10649 0.0
C687 C 0.7106 0.10176 0.12874 0.0
C688 C 0.7079 0.11077 0.19965 0.0
C689 C 0.72519 0.10613 0.24774 0.0
C690 C 0.65004 0.11643 0.0552 0.0
C691 C 0.64436 0.09531 0.01284 0.0
C692 C 0.67245 0.11941 0.08879 0.0
C693 C 0.68952 0.10125 0.08106 0.0
C694 C 0.68449 0.08089 0.03416 0.0
C695 C 0.66223 0.07799 1.00037 0.0
H696 H 0.4522 0.68308 0.93677 0.0
H697 H 0.52371 0.68169 0.02527 0.0
H698 H 0.45732 0.6426 0.88018 0.0
H699 H 0.52856 0.6413 0.96998 0.0
H700 H 0.50549 0.56303 0.95277 0.0
H701 H 0.50126 0.60449 0.99573 0.0
H702 H 0.48995 0.61731 0.78673 0.0
H703 H 0.49479 0.57575 0.74295 0.0
C704 C 0.46909 0.6742 0.94318 0.0
C705 C 0.48761 0.68545 0.985 0.0
C706 C 0.47202 0.65117 0.91085 0.0
C707 C 0.49327 0.63897 0.92126 0.0
C708 C 0.512 0.65041 0.96148 0.0
C709 C 0.50928 0.67351 0.99258 0.0
C710 C 0.502 0.57464 0.91592 0.0
C711 C 0.50046 0.56616 0.84453 0.0
C712 C 0.49973 0.59833 0.9405 0.0
C713 C 0.49538 0.61394 0.89435 0.0
C714 C 0.49328 0.60552 0.82313 0.0
C715 C 0.49609 0.58181 0.79827 0.0
H716 H 0.83397 0.40313 0.20396 0.0
H717 H 0.77806 0.39361 0.04786 0.0
H718 H 0.86411 0.38951 0.11705 0.0
H719 H 0.80835 0.37898 0.95956 0.0
H720 H 0.87415 0.40598 0.8391 0.0
H721 H 0.83868 0.39874 0.90544 0.0
H722 H 0.88296 0.36177 0.03374 0.0
H723 H 0.91869 0.37096 0.97218 0.0
C724 C 0.8281 0.39749 0.15097 0.0
C725 C 0.80386 0.39988 0.13221 0.0
C726 C 0.84535 0.38932 0.10098 0.0
C727 C 0.83877 0.38325 0.03076 0.0
C728 C 0.81408 0.3838 0.01295 0.0
C729 C 0.79673 0.39203 0.06342 0.0
C730 C 0.87634 0.39609 0.881 0.0
C731 C 0.89954 0.39016 0.90232 0.0
C732 C 0.85583 0.39154 0.91843 0.0
C733 C 0.8581 0.38048 0.97691 0.0
C734 C 0.88072 0.37114 0.99065 0.0
C735 C 0.90129 0.37619 0.95441 0.0
H736 H 0.09649 0.17028 0.05497 0.0
H737 H 0.03486 0.19751 0.9586 0.0
H738 H 0.08693 0.13149 0.99682 0.0
H739 H 0.02562 0.15856 0.89759 0.0
H740 H 1.00035 0.08261 0.86589 0.0
H741 H 0.01031 0.12246 0.91512 0.0
H742 H 0.08654 0.10587 0.89253 0.0
H743 H 0.07649 0.06583 0.84663 0.0
C744 C 0.08118 0.16802 0.01986 0.0
C745 C 0.06654 0.18701 0.01096 0.0
C746 C 0.07568 0.1457 0.98623 0.0
C747 C 0.05551 0.14169 0.94195 0.0
C748 C 0.04108 0.16082 0.93203 0.0
C749 C 0.04644 0.18319 0.96657 0.0
C750 C 0.01924 0.0875 0.87146 0.0
C751 C 0.03762 0.07095 0.85316 0.0
C752 C 0.02498 0.11046 0.89921 0.0
C753 C 0.04928 0.11755 0.90847 0.0
C754 C 0.06763 0.10106 0.88795 0.0
C755 C 0.06187 0.07805 0.8612 0.0
H756 H 0.34316 0.05741 0.04753 0.0
H757 H 0.33794 0.98295 0.03029 0.0
H758 H 0.38201 0.05326 0.98908 0.0
H759 H 0.37772 0.97888 0.97532 0.0
H760 H 0.44192 0.97796 0.82554 0.0
H761 H 0.40122 0.98166 0.87486 0.0
H762 H 0.42262 0.04459 0.00892 0.0
H763 H 0.46292 0.04126 0.95797 0.0
C764 C 0.35009 0.04007 0.03079 0.0
C765 C 0.33703 0.02053 0.04385 0.0
C766 C 0.37278 0.0377 0.99812 0.0
C767 C 0.38342 0.01573 0.97779 0.0
C768 C 0.3702 0.99612 0.98958 0.0
C769 C 0.34738 0.99848 0.02203 0.0
C770 C 0.43794 0.99261 0.86545 0.0
C771 C 0.45584 0.00932 0.88753 0.0
C772 C 0.41454 0.99468 0.89417 0.0
C773 C 0.40835 0.01346 0.94617 0.0
C774 C 0.42635 0.0301 0.96818 0.0
C775 C 0.44965 0.02812 0.93914 0.0
H776 H 0.43665 0.27409 0.10155 0.0
H777 H 0.48692 0.30641 0.25692 0.0
H778 H 0.43928 0.3078 0.04251 0.0
H779 H 0.48944 0.33998 0.19854 0.0
H780 H 0.50341 0.39042 0.05089 0.0
H781 H 0.50335 0.35419 0.09719 0.0
H782 H 0.42628 0.34785 0.06151 0.0
H783 H 0.42655 0.38353 0.01201 0.0
C784 C 0.44838 0.2883 0.12284 0.0
C785 C 0.46164 0.28747 0.18385 0.0
C786 C 0.44981 0.30767 0.0892 0.0
C787 C 0.46449 0.3267 0.11588 0.0
C788 C 0.47825 0.32554 0.17578 0.0
C789 C 0.47685 0.30619 0.20926 0.0
C790 C 0.48649 0.38115 0.05192 0.0
C791 C 0.46497 0.38998 0.02772 0.0
C792 C 0.48642 0.36047 0.07923 0.0
C793 C 0.46481 0.34807 0.08332 0.0
C794 C 0.44332 0.35676 0.05846 0.0
C795 C 0.44341 0.37744 0.03099 0.0
H796 H 0.1779 0.44832 0.05593 0.0
H797 H 0.20452 0.51145 0.99584 0.0
H798 H 0.13922 0.45372 1.002 0.0
H799 H 0.16593 0.51651 0.93826 0.0
H800 H 0.08524 0.53003 0.89782 0.0
H801 H 0.12485 0.52593 0.9497 0.0
H802 H 0.11873 0.45135 0.89903 0.0
H803 H 0.07878 0.45556 0.85078 0.0
C804 C 0.17559 0.46322 0.03 0.0
C805 C 0.19445 0.47931 0.02964 0.0
C806 C 0.15333 0.4663 0.99848 0.0
C807 C 0.14919 0.48543 0.96438 0.0
C808 C 0.16811 0.50167 0.96438 0.0
C809 C 0.19036 0.49874 0.9971 0.0
C810 C 0.09238 0.51276 0.8978 0.0
C811 C 0.07858 0.49312 0.87078 0.0
C812 C 0.11528 0.51037 0.92728 0.0
C813 C 0.12522 0.48826 0.92982 0.0
C814 C 0.11164 0.46869 0.90039 0.0
C815 C 0.08866 0.47109 0.87198 0.0
H816 H 0.02192 0.81047 0.67604 0.0
H817 H 0.99713 0.82178 0.47424 0.0
H818 H 0.01609 0.85114 0.72062 0.0
H819 H 0.98873 0.86196 0.52082 0.0
H820 H 0.01135 0.93733 0.59355 0.0
H821 H 0.00934 0.89599 0.54998 0.0
H822 H 0.99298 0.88306 0.75714 0.0
H823 H 0.99687 0.92432 0.8008 0.0
C824 C 0.0148 0.82149 0.64129 0.0
C825 C 0.01059 0.81269 0.5709 0.0
C826 C 0.01101 0.84495 0.66736 0.0
C827 C 1.00224 0.86025 0.62431 0.0
C828 C 0.99619 0.85103 0.55532 0.0
C829 C 1.00055 0.82768 0.5288 0.0
C830 C 1.00708 0.92561 0.62945 0.0
C831 C 1.00449 0.93397 0.70054 0.0
C832 C 1.00574 0.90181 0.60449 0.0
C833 C 1.00115 0.88583 0.64986 0.0
C834 C 0.99724 0.89454 0.72062 0.0
C835 C 0.99924 0.91827 0.74575 0.0
H836 H 0.70314 0.97176 0.49147 0.0
H837 H 0.71472 0.03794 0.6215 0.0
H838 H 0.66402 0.96844 0.54779 0.0
H839 H 0.6758 0.0348 0.67696 0.0
H840 H 0.6144 0.01476 0.80827 0.0
H841 H 0.65415 0.0152 0.75457 0.0
H842 H 0.62387 0.98405 0.55754 0.0
H843 H 0.58423 0.98299 0.61173 0.0
C844 C 0.69736 0.98562 0.53191 0.0
C845 C 0.71231 0.005 0.55224 0.0
C846 C 0.67485 0.98376 0.5642 0.0
C847 C 0.66662 0.0013 0.61747 0.0
C848 C 0.68161 0.02066 0.63747 0.0
C849 C 0.70406 0.02246 0.60547 0.0
C850 C 0.61619 0.00785 0.75357 0.0
C851 C 0.59596 0.99885 0.71453 0.0
C852 C 0.63905 0.00825 0.7225 0.0
C853 C 0.64239 0.99977 0.65133 0.0
C854 C 0.6222 0.99047 0.61255 0.0
C855 C 0.59934 0.98999 0.64369 0.0
H856 H 0.48739 0.69957 0.40319 0.0
H857 H 0.5635 0.71095 0.36995 0.0
H858 H 0.49713 0.66473 0.45022 0.0
H859 H 0.57318 0.67527 0.41468 0.0
H860 H 0.58012 0.62039 0.56232 0.0
H861 H 0.57275 0.65692 0.51999 0.0
H862 H 0.51147 0.62615 0.4024 0.0
H863 H 0.5188 0.58979 0.44457 0.0
C864 C 0.50627 0.69487 0.40686 0.0
C865 C 0.52466 0.70818 0.38287 0.0
C866 C 0.51182 0.67462 0.43281 0.0
C867 C 0.5359 0.66701 0.43524 0.0
C868 C 0.55444 0.68067 0.41357 0.0
C869 C 0.54887 0.70103 0.38749 0.0
C870 C 0.56528 0.62136 0.52669 0.0
C871 C 0.54993 0.60222 0.50722 0.0
C872 C 0.56104 0.6423 0.50255 0.0
C873 C 0.54134 0.64455 0.45853 0.0
C874 C 0.52645 0.62519 0.43758 0.0
C875 C 0.53068 0.60432 0.46164 0.0
H876 H 0.81372 0.46968 0.62952 0.0
H877 H 0.8361 0.511 0.47634 0.0
H878 H 0.85244 0.47604 0.68648 0.0
H879 H 0.87414 0.51939 0.53767 0.0
H880 H 0.95112 0.50719 0.6106 0.0
H881 H 0.91133 0.50431 0.55678 0.0
H882 H 0.87893 0.49868 0.75515 0.0
H883 H 0.91899 0.49993 0.80724 0.0
C884 C 0.82678 0.48036 0.60811 0.0
C885 C 0.82166 0.48937 0.547 0.0
C886 C 0.84908 0.48442 0.64192 0.0
C887 C 0.86694 0.49817 0.61704 0.0
C888 C 0.86132 0.50822 0.55796 0.0
C889 C 0.83913 0.50376 0.52323 0.0
C890 C 0.93545 0.50545 0.64271 0.0
C891 C 0.93829 0.50369 0.71318 0.0
C892 C 0.91245 0.50396 0.61189 0.0
C893 C 0.89148 0.50115 0.65098 0.0
C894 C 0.89442 0.5002 0.72228 0.0
C895 C 0.91748 0.50114 0.75264 0.0
loop_
_geom_bond_atom_site_label_1
_geom_bond_atom_site_label_2
_geom_bond_distance
_geom_bond_site_symmetry_2
_ccdc_geom_bond_type
P0 O11 1.490 . S
P0 C14 1.812 . S
P0 C20 1.803 . S
P0 C26 1.819 . S
H1 C15 0.941 . S
H2 C16 0.939 . S
H3 C18 0.940 . S
H4 C19 0.940 . S
H5 C21 0.939 . S
H6 C22 0.942 . S
H7 C24 0.940 . S
H8 C25 0.939 . S
H9 C27 0.941 . S
H10 C31 0.939 . S
O11 P0 1.490 . S
H12 C28 0.939 . S
H13 C30 0.940 . S
C14 P0 1.812 . S
C14 C15 1.389 . S
C14 C19 1.391 . S
C15 H1 0.941 . S
C15 C14 1.389 . S
C15 C16 1.397 . S
C16 H2 0.939 . S
C16 C15 1.397 . S
C16 C17 1.378 . S
C17 C16 1.378 . S
C17 C18 1.378 . S
C18 H3 0.940 . S
C18 C17 1.378 . S
C18 C19 1.396 . S
C19 H4 0.940 . S
C19 C14 1.391 . S
C19 C18 1.396 . S
C20 P0 1.803 . S
C20 C21 1.378 . S
C20 C25 1.400 . S
C21 H5 0.939 . S
C21 C20 1.378 . S
C21 C22 1.361 . S
C22 H6 0.942 . S
C22 C21 1.361 . S
C22 C23 1.369 . S
C23 C22 1.369 . S
C23 C24 1.404 . S
C24 H7 0.940 . S
C24 C23 1.404 . S
C24 C25 1.389 . S
C25 H8 0.939 . S
C25 C20 1.400 . S
C25 C24 1.389 . S
C26 P0 1.819 . S
C26 C27 1.391 . S
C26 C31 1.391 . S
C27 H9 0.941 . S
C27 C26 1.391 . S
C27 C28 1.396 . S
C28 H12 0.939 . S
C28 C27 1.396 . S
C28 C29 1.397 . S
C29 C28 1.397 . S
C29 C30 1.385 . S
C30 H13 0.940 . S
C30 C29 1.385 . S
C30 C31 1.388 . S
C31 H10 0.939 . S
C31 C26 1.391 . S
C31 C30 1.388 . S
P32 O43 1.490 . S
P32 C46 1.812 . S
P32 C52 1.803 . S
P32 C58 1.819 . S
H33 C47 0.941 . S
H34 C48 0.939 . S
H35 C50 0.940 . S
H36 C51 0.940 . S
H37 C53 0.939 . S
H38 C54 0.942 . S
H39 C56 0.940 . S
H40 C57 0.939 . S
H41 C59 0.941 . S
H42 C63 0.939 . S
O43 P32 1.490 . S
H44 C60 0.939 . S
H45 C62 0.940 . S
C46 P32 1.812 . S
C46 C47 1.389 . S
C46 C51 1.391 1_455 S
C47 H33 0.941 . S
C47 C46 1.389 . S
C47 C48 1.397 . S
C48 H34 0.939 . S
C48 C47 1.397 . S
C48 C49 1.378 1_455 S
C49 C48 1.378 1_655 S
C49 C50 1.378 . S
C50 H35 0.940 . S
C50 C49 1.378 . S
C50 C51 1.396 . S
C51 H36 0.940 . S
C51 C46 1.391 1_655 S
C51 C50 1.396 . S
C52 P32 1.803 . S
C52 C53 1.378 . S
C52 C57 1.400 1_455 S
C53 H37 0.939 . S
C53 C52 1.378 . S
C53 C54 1.361 . S
C54 H38 0.942 . S
C54 C53 1.361 . S
C54 C55 1.369 1_455 S
C55 C54 1.369 1_655 S
C55 C56 1.404 . S
C56 H39 0.940 . S
C56 C55 1.404 . S
C56 C57 1.389 . S
C57 H40 0.939 . S
C57 C52 1.400 1_655 S
C57 C56 1.389 . S
C58 P32 1.819 . S
C58 C59 1.391 . S
C58 C63 1.391 1_455 S
C59 H41 0.941 . S
C59 C58 1.391 . S
C59 C60 1.396 . S
C60 H44 0.939 . S
C60 C59 1.396 . S
C60 C61 1.397 1_455 S
C61 C60 1.397 1_655 S
C61 C62 1.385 . S
C62 H45 0.940 . S
C62 C61 1.385 . S
C62 C63 1.388 . S
C63 H42 0.939 . S
C63 C58 1.391 1_655 S
C63 C62 1.388 . S
P64 O75 1.490 . S
P64 C78 1.812 . S
P64 C84 1.803 . S
P64 C90 1.819 . S
H65 C79 0.941 . S
H66 C80 0.939 . S
H67 C82 0.940 . S
H68 C83 0.948 . S
H69 C85 0.939 . S
H70 C86 0.942 . S
H71 C88 0.940 . S
H72 C89 0.962 . S
H73 C91 0.941 . S
H74 C95 0.929 1_565 S
O75 P64 1.490 . S
H76 C92 0.939 . S
H77 C94 0.940 . S
C78 P64 1.812 . S
C78 C79 1.389 . S
C78 C83 1.375 1_545 S
C79 H65 0.941 . S
C79 C78 1.389 . S
C79 C80 1.397 . S
C80 H66 0.939 . S
C80 C79 1.397 . S
C80 C81 1.378 . S
C81 C80 1.378 . S
C81 C82 1.378 1_545 S
C82 H67 0.940 . S
C82 C81 1.378 1_565 S
C82 C83 1.405 . S
C83 H68 0.948 . S
C83 C78 1.375 1_565 S
C83 C82 1.405 . S
C84 P64 1.803 . S
C84 C85 1.378 . S
C84 C89 1.367 1_545 S
C85 H69 0.939 . S
C85 C84 1.378 . S
C85 C86 1.361 . S
C86 H70 0.942 . S
C86 C85 1.361 . S
C86 C87 1.369 . S
C87 C86 1.369 . S
C87 C88 1.404 1_545 S
C88 H71 0.940 . S
C88 C87 1.404 1_565 S
C88 C89 1.400 . S
C89 H72 0.962 . S
C89 C84 1.367 1_565 S
C89 C88 1.400 . S
C90 P64 1.819 . S
C90 C91 1.391 . S
C90 C95 1.391 . S
C91 H73 0.941 . S
C91 C90 1.391 . S
C91 C92 1.396 . S
C92 H76 0.939 . S
C92 C91 1.396 . S
C92 C93 1.397 . S
C93 C92 1.397 . S
C93 C94 1.385 1_545 S
C94 H77 0.940 . S
C94 C93 1.385 1_565 S
C94 C95 1.388 1_565 S
C95 H74 0.929 1_545 S
C95 C90 1.391 . S
C95 C94 1.388 1_545 S
P96 O107 1.490 . S
P96 C110 1.812 . S
P96 C116 1.803 1_554 S
P96 C122 1.819 1_554 S
H97 C111 0.941 . S
H98 C112 0.939 . S
H99 C114 0.940 . S
H100 C115 0.940 . S
H101 C117 0.939 . S
H102 C118 0.942 . S
H103 C120 0.940 1_554 S
H104 C121 0.939 . S
H105 C123 0.941 . S
H106 C127 0.939 . S
O107 P96 1.490 . S
H108 C124 0.939 . S
H109 C126 0.940 . S
C110 P96 1.812 . S
C110 C111 1.389 . S
C110 C115 1.391 . S
C111 H97 0.941 . S
C111 C110 1.389 . S
C111 C112 1.397 . S
C112 H98 0.939 . S
C112 C111 1.397 . S
C112 C113 1.378 . S
C113 C112 1.378 . S
C113 C114 1.378 . S
C114 H99 0.940 . S
C114 C113 1.378 . S
C114 C115 1.396 . S
C115 H100 0.940 . S
C115 C110 1.391 . S
C115 C114 1.396 . S
C116 P96 1.803 1_556 S
C116 C117 1.378 . S
C116 C121 1.400 1_556 S
C117 H101 0.939 . S
C117 C116 1.378 . S
C117 C118 1.361 . S
C118 H102 0.942 . S
C118 C117 1.361 . S
C118 C119 1.369 . S
C119 C118 1.369 . S
C119 C120 1.404 . S
C120 H103 0.940 1_556 S
C120 C119 1.404 . S
C120 C121 1.389 1_556 S
C121 H104 0.939 . S
C121 C116 1.400 1_554 S
C121 C120 1.389 1_554 S
C122 P96 1.819 1_556 S
C122 C123 1.391 . S
C122 C127 1.391 . S
C123 H105 0.941 . S
C123 C122 1.391 . S
C123 C124 1.396 . S
C124 H108 0.939 . S
C124 C123 1.396 . S
C124 C125 1.397 . S
C125 C124 1.397 . S
C125 C126 1.385 . S
C126 H109 0.940 . S
C126 C125 1.385 . S
C126 C127 1.388 . S
C127 H106 0.939 . S
C127 C122 1.391 . S
C127 C126 1.388 . S
P128 O139 1.490 . S
P128 C142 1.812 . S
P128 C148 1.803 . S
P128 C154 1.819 . S
H129 C143 0.941 . S
H130 C144 0.939 . S
H131 C146 0.940 . S
H132 C147 0.940 . S
H133 C149 0.939 . S
H134 C150 0.942 . S
H135 C152 0.940 . S
H136 C153 0.939 . S
H137 C155 0.941 . S
H138 C159 0.939 . S
O139 P128 1.490 . S
H140 C156 0.939 . S
H141 C158 0.940 . S
C142 P128 1.812 . S
C142 C143 1.389 . S
C142 C147 1.391 . S
C143 H129 0.941 . S
C143 C142 1.389 . S
C143 C144 1.397 1_554 S
C144 H130 0.939 . S
C144 C143 1.397 1_556 S
C144 C145 1.378 . S
C145 C144 1.378 . S
C145 C146 1.378 1_556 S
C146 H131 0.940 . S
C146 C145 1.378 1_554 S
C146 C147 1.396 . S
C147 H132 0.940 . S
C147 C142 1.391 . S
C147 C146 1.396 . S
C148 P128 1.803 . S
C148 C149 1.378 . S
C148 C153 1.400 . S
C149 H133 0.939 . S
C149 C148 1.378 . S
C149 C150 1.361 . S
C150 H134 0.942 . S
C150 C149 1.361 . S
C150 C151 1.369 . S
C151 C150 1.369 . S
C151 C152 1.404 . S
C152 H135 0.940 . S
C152 C151 1.404 . S
C152 C153 1.389 . S
C153 H136 0.939 . S
C153 C148 1.400 . S
C153 C152 1.389 . S
C154 P128 1.819 . S
C154 C155 1.391 . S
C154 C159 1.391 . S
C155 H137 0.941 . S
C155 C154 1.391 . S
C155 C156 1.396 . S
C156 H140 0.939 . S
C156 C155 1.396 . S
C156 C157 1.397 . S
C157 C156 1.397 . S
C157 C158 1.385 . S
C158 H141 0.940 . S
C158 C157 1.385 . S
C158 C159 1.388 . S
C159 H138 0.939 . S
C159 C154 1.391 . S
C159 C158 1.388 . S
P160 O171 1.490 . S
P160 C174 1.812 . S
P160 C180 1.803 . S
P160 C186 1.819 . S
H161 C175 0.941 . S
H162 C176 0.939 1_556 S
H163 C178 0.940 . S
H164 C179 0.940 . S
H165 C181 0.939 . S
H166 C182 0.942 . S
H167 C184 0.940 . S
H168 C185 0.939 . S
H169 C187 0.941 . S
H170 C191 0.939 . S
O171 P160 1.490 . S
H172 C188 0.939 . S
H173 C190 0.940 . S
C174 P160 1.812 . S
C174 C175 1.389 . S
C174 C179 1.391 . S
C175 H161 0.941 . S
C175 C174 1.389 . S
C175 C176 1.397 . S
C176 H162 0.939 1_554 S
C176 C175 1.397 . S
C176 C177 1.378 . S
C177 C176 1.378 . S
C177 C178 1.378 . S
C178 H163 0.940 . S
C178 C177 1.378 . S
C178 C179 1.396 . S
C179 H164 0.940 . S
C179 C174 1.391 . S
C179 C178 1.396 . S
C180 P160 1.803 . S
C180 C181 1.378 . S
C180 C185 1.400 . S
C181 H165 0.939 . S
C181 C180 1.378 . S
C181 C182 1.361 . S
C182 H166 0.942 . S
C182 C181 1.361 . S
C182 C183 1.369 . S
C183 C182 1.369 . S
C183 C184 1.404 . S
C184 H167 0.940 . S
C184 C183 1.404 . S
C184 C185 1.389 . S
C185 H168 0.939 . S
C185 C180 1.400 . S
C185 C184 1.389 . S
C186 P160 1.819 . S
C186 C187 1.391 . S
C186 C191 1.391 . S
C187 H169 0.941 . S
C187 C186 1.391 . S
C187 C188 1.396 . S
C188 H172 0.939 . S
C188 C187 1.396 . S
C188 C189 1.397 . S
C189 C188 1.397 . S
C189 C190 1.385 . S
C190 H173 0.940 . S
C190 C189 1.385 . S
C190 C191 1.388 . S
C191 H170 0.939 . S
C191 C186 1.391 . S
C191 C190 1.388 . S
P192 O203 1.490 . S
P192 C206 1.812 . S
P192 C212 1.803 . S
P192 C218 1.819 . S
H193 C207 0.941 . S
H194 C208 0.939 . S
H195 C210 0.940 . S
H196 C211 0.944 . S
H197 C213 0.939 . S
H198 C214 0.942 . S
H199 C216 0.940 . S
H200 C217 0.950 . S
H201 C219 0.941 . S
H202 C223 0.933 1_565 S
O203 P192 1.490 . S
H204 C220 0.939 . S
H205 C222 0.940 . S
C206 P192 1.812 . S
C206 C207 1.389 . S
C206 C211 1.385 1_545 S
C207 H193 0.941 . S
C207 C206 1.389 . S
C207 C208 1.397 1_554 S
C208 H194 0.939 . S
C208 C207 1.397 1_556 S
C208 C209 1.378 . S
C209 C208 1.378 . S
C209 C210 1.378 1_546 S
C210 H195 0.940 . S
C210 C209 1.378 1_564 S
C210 C211 1.398 . S
C211 H196 0.944 . S
C211 C206 1.385 1_565 S
C211 C210 1.398 . S
C212 P192 1.803 . S
C212 C213 1.378 . S
C212 C217 1.380 1_545 S
C213 H197 0.939 . S
C213 C212 1.378 . S
C213 C214 1.361 . S
C214 H198 0.942 . S
C214 C213 1.361 . S
C214 C215 1.369 . S
C215 C214 1.369 . S
C215 C216 1.404 1_545 S
C216 H199 0.940 . S
C216 C215 1.404 1_565 S
C216 C217 1.399 . S
C217 H200 0.950 . S
C217 C212 1.380 1_565 S
C217 C216 1.399 . S
C218 P192 1.819 . S
C218 C219 1.391 . S
C218 C223 1.391 . S
C219 H201 0.941 . S
C219 C218 1.391 . S
C219 C220 1.396 . S
C220 H204 0.939 . S
C220 C219 1.396 . S
C220 C221 1.397 . S
C221 C220 1.397 . S
C221 C222 1.385 1_545 S
C222 H205 0.940 . S
C222 C221 1.385 1_565 S
C222 C223 1.388 1_565 S
C223 H202 0.933 1_545 S
C223 C218 1.391 . S
C223 C222 1.388 1_545 S
P224 O235 1.490 . S
P224 C238 1.812 . S
P224 C244 1.803 . S
P224 C250 1.819 . S
H225 C239 0.941 . S
H226 C240 0.939 . S
H227 C242 0.940 . S
H228 C243 0.940 . S
H229 C245 0.939 . S
H230 C246 0.942 . S
H231 C248 0.940 . S
H232 C249 0.939 . S
H233 C251 0.941 . S
H234 C255 0.939 . S
O235 P224 1.490 . S
H236 C252 0.939 . S
H237 C254 0.940 . S
C238 P224 1.812 . S
C238 C239 1.389 . S
C238 C243 1.391 . S
C239 H225 0.941 . S
C239 C238 1.389 . S
C239 C240 1.397 . S
C240 H226 0.939 . S
C240 C239 1.397 . S
C240 C241 1.378 . S
C241 C240 1.378 . S
C241 C242 1.378 . S
C242 H227 0.940 . S
C242 C241 1.378 . S
C242 C243 1.396 . S
C243 H228 0.940 . S
C243 C238 1.391 . S
C243 C242 1.396 . S
C244 P224 1.803 . S
C244 C245 1.378 . S
C244 C249 1.400 . S
C245 H229 0.939 . S
C245 C244 1.378 . S
C245 C246 1.361 . S
C246 H230 0.942 . S
C246 C245 1.361 . S
C246 C247 1.369 . S
C247 C246 1.369 . S
C247 C248 1.404 . S
C248 H231 0.940 . S
C248 C247 1.404 . S
C248 C249 1.389 . S
C249 H232 0.939 . S
C249 C244 1.400 . S
C249 C248 1.389 . S
C250 P224 1.819 . S
C250 C251 1.391 . S
C250 C255 1.391 . S
C251 H233 0.941 . S
C251 C250 1.391 . S
C251 C252 1.396 . S
C252 H236 0.939 . S
C252 C251 1.396 . S
C252 C253 1.397 . S
C253 C252 1.397 . S
C253 C254 1.385 . S
C254 H237 0.940 . S
C254 C253 1.385 . S
C254 C255 1.388 . S
C255 H234 0.939 . S
C255 C250 1.391 . S
C255 C254 1.388 . S
Tb256 C265 2.764 . S
Tb256 O266 2.325 1_655 S
Tb256 O269 2.303 1_655 S
Tb256 O273 2.322 1_545 S
Tb256 O274 2.349 . S
Tb256 O277 2.415 1_655 S
Tb256 O278 2.399 . S
Tb257 O267 2.322 1_565 S
Tb257 O268 2.349 . S
Tb257 O270 2.415 . S
Tb257 O271 2.399 . S
Tb257 O272 2.325 . S
Tb257 O275 2.303 1_455 S
Tb257 C286 2.764 . S
C258 O274 1.261 . S
C258 O275 1.257 1_545 S
C259 C262 1.358 . S
C259 C263 1.332 1_655 S
C259 C265 1.504 . S
C260 C261 1.373 . S
C260 C264 1.308 1_655 S
C261 C260 1.373 . S
C261 C262 1.429 . S
C261 H288 0.932 . S
C262 C259 1.358 . S
C262 C261 1.429 . S
C262 H289 0.930 . S
C263 C259 1.332 1_455 S
C263 C264 1.394 . S
C263 H290 0.932 . S
C264 C260 1.308 1_455 S
C264 C263 1.394 . S
C264 H291 0.929 . S
C265 Tb256 2.764 . S
C265 C259 1.504 . S
C265 O277 1.239 1_655 S
C265 O278 1.263 . S
O266 Tb256 2.325 1_455 S
O266 C276 1.236 . S
O267 Tb257 2.322 1_545 S
O267 C276 1.257 . S
O268 Tb257 2.349 . S
O268 C279 1.261 . S
O269 Tb256 2.303 1_455 S
O269 C279 1.257 1_545 S
O270 Tb257 2.415 . S
O270 C286 1.239 . S
O271 Tb257 2.399 . S
O271 C286 1.263 . S
O272 Tb257 2.325 . S
O272 C287 1.236 1_455 S
O273 Tb256 2.322 1_565 S
O273 C287 1.257 . S
O274 Tb256 2.349 . S
O274 C258 1.261 . S
O275 Tb257 2.303 1_655 S
O275 C258 1.257 1_565 S
C276 O266 1.236 . S
C276 O267 1.257 . S
O277 Tb256 2.415 1_455 S
O277 C265 1.239 1_455 S
O278 Tb256 2.399 . S
O278 C265 1.263 . S
C279 O268 1.261 . S
C279 O269 1.257 1_565 S
C280 C283 1.358 . S
C280 C284 1.332 . S
C280 C286 1.504 . S
C281 C282 1.372 1_554 S
C281 C285 1.307 1_554 S
C282 C281 1.372 1_556 S
C282 C283 1.429 . S
C282 H292 0.932 . S
C283 C280 1.358 . S
C283 C282 1.429 . S
C283 H293 0.930 . S
C284 C280 1.332 . S
C284 C285 1.394 . S
C284 H294 0.944 . S
C285 C281 1.307 1_556 S
C285 C284 1.394 . S
C285 H295 0.929 . S
C286 Tb257 2.764 . S
C286 O270 1.239 . S
C286 O271 1.263 . S
C286 C280 1.504 . S
C287 O272 1.236 1_655 S
C287 O273 1.257 . S
H288 C261 0.932 . S
H289 C262 0.930 . S
H290 C263 0.932 . S
H291 C264 0.929 . S
H292 C282 0.932 . S
H293 C283 0.930 . S
H294 C284 0.944 . S
H295 C285 0.929 . S
Tb296 C305 2.764 . S
Tb296 O306 2.325 . S
Tb296 O309 2.303 1_565 S
Tb296 O313 2.322 . S
Tb296 O314 2.349 . S
Tb296 O317 2.415 1_565 S
Tb296 O318 2.399 . S
Tb297 O307 2.322 . S
Tb297 O308 2.349 . S
Tb297 O310 2.415 1_545 S
Tb297 O311 2.399 . S
Tb297 O312 2.325 . S
Tb297 O315 2.303 1_545 S
Tb297 C326 2.764 . S
C298 O314 1.261 . S
C298 O315 1.257 . S
C299 C302 1.358 . S
C299 C303 1.306 1_565 S
C299 C305 1.504 . S
C300 C301 1.373 . S
C300 C304 1.342 . S
C301 C300 1.373 . S
C301 C302 1.429 . S
C301 H328 0.932 . S
C302 C299 1.358 . S
C302 C301 1.429 . S
C302 H329 0.930 . S
C303 C299 1.306 1_545 S
C303 C304 1.398 1_545 S
C303 H330 0.958 . S
C304 C300 1.342 . S
C304 C303 1.398 1_565 S
C304 H331 0.893 1_565 S
C305 Tb296 2.764 . S
C305 C299 1.504 . S
C305 O317 1.239 1_565 S
C305 O318 1.263 . S
O306 Tb296 2.325 . S
O306 C316 1.236 1_565 S
O307 Tb297 2.322 . S
O307 C316 1.257 . S
O308 Tb297 2.349 . S
O308 C319 1.261 . S
O309 Tb296 2.303 1_545 S
O309 C319 1.257 . S
O310 Tb297 2.415 1_565 S
O310 C326 1.239 1_565 S
O311 Tb297 2.399 . S
O311 C326 1.263 . S
O312 Tb297 2.325 . S
O312 C327 1.236 1_545 S
O313 Tb296 2.322 . S
O313 C327 1.257 . S
O314 Tb296 2.349 . S
O314 C298 1.261 . S
O315 Tb297 2.303 1_565 S
O315 C298 1.257 . S
C316 O306 1.236 1_545 S
C316 O307 1.257 . S
O317 Tb296 2.415 1_545 S
O317 C305 1.239 1_545 S
O318 Tb296 2.399 . S
O318 C305 1.263 . S
C319 O308 1.261 . S
C319 O309 1.257 . S
C320 C323 1.358 1_556 S
C320 C324 1.315 1_545 S
C320 C326 1.504 . S
C321 C322 1.373 . S
C321 C325 1.308 . S
C322 C321 1.373 . S
C322 C323 1.429 . S
C322 H332 0.932 . S
C323 C320 1.358 1_554 S
C323 C322 1.429 . S
C323 H333 0.930 . S
C324 C320 1.315 1_565 S
C324 C325 1.395 1_566 S
C324 H334 0.949 . S
C325 C321 1.308 . S
C325 C324 1.395 1_544 S
C325 H335 0.929 1_545 S
C326 Tb297 2.764 . S
C326 O310 1.239 1_545 S
C326 O311 1.263 . S
C326 C320 1.504 . S
C327 O312 1.236 1_565 S
C327 O313 1.257 . S
H328 C301 0.932 . S
H329 C302 0.930 . S
H330 C303 0.958 . S
H331 C304 0.893 1_545 S
H332 C322 0.932 . S
H333 C323 0.930 . S
H334 C324 0.949 . S
H335 C325 0.929 1_565 S
Tb336 C345 2.764 . S
Tb336 O346 2.325 . S
Tb336 O349 2.303 . S
Tb336 O353 2.322 . S
Tb336 O354 2.349 . S
Tb336 O357 2.415 . S
Tb336 O358 2.399 . S
Tb337 O347 2.322 . S
Tb337 O348 2.349 . S
Tb337 O350 2.415 . S
Tb337 O351 2.399 . S
Tb337 O352 2.325 . S
Tb337 O355 2.303 . S
Tb337 C366 2.764 . S
C338 O354 1.261 . S
C338 O355 1.257 . S
C339 C342 1.358 1_556 S
C339 C343 1.332 1_556 S
C339 C345 1.504 . S
C340 C341 1.373 . S
C340 C344 1.308 . S
C341 C340 1.373 . S
C341 C342 1.429 . S
C341 H368 0.932 . S
C342 C339 1.358 1_554 S
C342 C341 1.429 . S
C342 H369 0.930 1_554 S
C343 C339 1.332 1_554 S
C343 C344 1.394 . S
C343 H370 0.932 . S
C344 C340 1.308 . S
C344 C343 1.394 . S
C344 H371 0.929 . S
C345 Tb336 2.764 . S
C345 C339 1.504 . S
C345 O357 1.239 . S
C345 O358 1.263 . S
O346 Tb336 2.325 . S
O346 C356 1.236 . S
O347 Tb337 2.322 . S
O347 C356 1.257 . S
O348 Tb337 2.349 . S
O348 C359 1.261 . S
O349 Tb336 2.303 . S
O349 C359 1.257 . S
O350 Tb337 2.415 . S
O350 C366 1.239 . S
O351 Tb337 2.399 . S
O351 C366 1.263 . S
O352 Tb337 2.325 . S
O352 C367 1.236 . S
O353 Tb336 2.322 . S
O353 C367 1.257 . S
O354 Tb336 2.349 . S
O354 C338 1.261 . S
O355 Tb337 2.303 . S
O355 C338 1.257 . S
C356 O346 1.236 . S
C356 O347 1.257 . S
O357 Tb336 2.415 . S
O357 C345 1.239 . S
O358 Tb336 2.399 . S
O358 C345 1.263 . S
C359 O348 1.261 . S
C359 O349 1.257 . S
C360 C363 1.358 . S
C360 C364 1.332 . S
C360 C366 1.504 . S
C361 C362 1.373 . S
C361 C365 1.308 . S
C362 C361 1.373 . S
C362 C363 1.429 . S
C362 H372 0.932 . S
C363 C360 1.358 . S
C363 C362 1.429 . S
C363 H373 0.930 . S
C364 C360 1.332 . S
C364 C365 1.394 . S
C364 H374 0.932 . S
C365 C361 1.308 . S
C365 C364 1.394 . S
C365 H375 0.929 . S
C366 Tb337 2.764 . S
C366 O350 1.239 . S
C366 O351 1.263 . S
C366 C360 1.504 . S
C367 O352 1.236 . S
C367 O353 1.257 . S
H368 C341 0.932 . S
H369 C342 0.930 1_556 S
H370 C343 0.932 . S
H371 C344 0.929 . S
H372 C362 0.932 . S
H373 C363 0.930 . S
H374 C364 0.932 . S
H375 C365 0.929 . S
Tb376 C385 2.764 . S
Tb376 O386 2.325 . S
Tb376 O389 2.303 . S
Tb376 O393 2.322 1_455 S
Tb376 O394 2.349 . S
Tb376 O397 2.415 . S
Tb376 O398 2.399 . S
Tb377 O387 2.322 1_655 S
Tb377 O388 2.349 . S
Tb377 O390 2.415 . S
Tb377 O391 2.399 . S
Tb377 O392 2.325 . S
Tb377 O395 2.303 1_655 S
Tb377 C406 2.764 . S
C378 O394 1.261 . S
C378 O395 1.257 . S
C379 C382 1.358 . S
C379 C383 1.332 . S
C379 C385 1.504 . S
C380 C381 1.373 . S
C380 C384 1.308 . S
C381 C380 1.373 . S
C381 C382 1.429 . S
C381 H408 0.932 . S
C382 C379 1.358 . S
C382 C381 1.429 . S
C382 H409 0.930 . S
C383 C379 1.332 . S
C383 C384 1.394 . S
C383 H410 0.932 . S
C384 C380 1.308 . S
C384 C383 1.394 . S
C384 H411 0.929 . S
C385 Tb376 2.764 . S
C385 C379 1.504 . S
C385 O397 1.239 . S
C385 O398 1.263 . S
O386 Tb376 2.325 . S
O386 C396 1.236 . S
O387 Tb377 2.322 1_455 S
O387 C396 1.257 . S
O388 Tb377 2.349 . S
O388 C399 1.261 1_655 S
O389 Tb376 2.303 . S
O389 C399 1.257 . S
O390 Tb377 2.415 . S
O390 C406 1.239 . S
O391 Tb377 2.399 . S
O391 C406 1.263 . S
O392 Tb377 2.325 . S
O392 C407 1.236 . S
O393 Tb376 2.322 1_655 S
O393 C407 1.257 . S
O394 Tb376 2.349 . S
O394 C378 1.261 . S
O395 Tb377 2.303 1_455 S
O395 C378 1.257 . S
C396 O386 1.236 . S
C396 O387 1.257 . S
O397 Tb376 2.415 . S
O397 C385 1.239 . S
O398 Tb376 2.399 . S
O398 C385 1.263 . S
C399 O388 1.261 1_455 S
C399 O389 1.257 . S
C400 C403 1.358 . S
C400 C404 1.332 . S
C400 C406 1.504 . S
C401 C402 1.373 . S
C401 C405 1.308 . S
C402 C401 1.373 . S
C402 C403 1.429 1_554 S
C402 H412 0.932 . S
C403 C400 1.358 . S
C403 C402 1.429 1_556 S
C403 H413 0.930 . S
C404 C400 1.332 . S
C404 C405 1.394 1_556 S
C404 H414 0.932 . S
C405 C401 1.308 . S
C405 C404 1.394 1_554 S
C405 H415 0.929 . S
C406 Tb377 2.764 . S
C406 O390 1.239 . S
C406 O391 1.263 . S
C406 C400 1.504 . S
C407 O392 1.236 . S
C407 O393 1.257 . S
H408 C381 0.932 . S
H409 C382 0.930 . S
H410 C383 0.932 . S
H411 C384 0.929 . S
H412 C402 0.932 . S
H413 C403 0.930 . S
H414 C404 0.932 . S
H415 C405 0.929 . S
H416 C424 0.950 . S
H417 C429 0.950 . S
H418 C426 0.950 . S
H419 C428 0.950 . S
H420 C430 0.950 . S
H421 C432 0.950 . S
H422 C434 0.950 . S
H423 C435 0.950 . S
C424 H416 0.950 . S
C424 C425 1.376 1_545 S
C424 C426 1.391 . S
C425 C424 1.376 1_565 S
C425 C429 1.406 . S
C426 H418 0.950 . S
C426 C424 1.391 . S
C426 C427 1.406 . S
C427 C426 1.406 . S
C427 C428 1.394 1_545 S
C427 C433 1.490 . S
C428 H419 0.950 . S
C428 C427 1.394 1_565 S
C428 C429 1.391 . S
C429 H417 0.950 . S
C429 C425 1.406 . S
C429 C428 1.391 . S
C430 H420 0.950 . S
C430 C431 1.386 1_565 S
C430 C432 1.391 . S
C431 C430 1.386 1_545 S
C431 C435 1.393 . S
C432 H421 0.950 . S
C432 C430 1.391 . S
C432 C433 1.400 1_565 S
C433 C427 1.490 . S
C433 C432 1.400 1_545 S
C433 C434 1.398 . S
C434 H422 0.950 . S
C434 C433 1.398 . S
C434 C435 1.391 . S
C435 H423 0.950 . S
C435 C431 1.393 . S
C435 C434 1.391 . S
H436 C444 0.950 . S
H437 C449 0.950 . S
H438 C446 0.950 . S
H439 C448 0.950 . S
H440 C450 0.950 . S
H441 C452 0.950 . S
H442 C454 0.950 . S
H443 C455 0.950 . S
C444 H436 0.950 . S
C444 C445 1.386 . S
C444 C446 1.391 . S
C445 C444 1.386 . S
C445 C449 1.393 . S
C446 H438 0.950 . S
C446 C444 1.391 . S
C446 C447 1.400 . S
C447 C446 1.400 . S
C447 C448 1.398 . S
C447 C453 1.491 . S
C448 H439 0.950 . S
C448 C447 1.398 . S
C448 C449 1.391 . S
C449 H437 0.950 . S
C449 C445 1.393 . S
C449 C448 1.391 . S
C450 H440 0.950 . S
C450 C451 1.386 . S
C450 C452 1.391 . S
C451 C450 1.386 . S
C451 C455 1.393 . S
C452 H441 0.950 . S
C452 C450 1.391 . S
C452 C453 1.400 . S
C453 C447 1.491 . S
C453 C452 1.400 . S
C453 C454 1.398 . S
C454 H442 0.950 . S
C454 C453 1.398 . S
C454 C455 1.391 . S
C455 H443 0.950 . S
C455 C451 1.393 . S
C455 C454 1.391 . S
H456 C464 0.950 . S
H457 C469 0.950 . S
H458 C466 0.950 . S
H459 C468 0.950 . S
H460 C470 0.950 . S
H461 C472 0.950 . S
H462 C474 0.950 . S
H463 C475 0.950 . S
C464 H456 0.950 . S
C464 C465 1.386 . S
C464 C466 1.391 . S
C465 C464 1.386 . S
C465 C469 1.393 . S
C466 H458 0.950 . S
C466 C464 1.391 . S
C466 C467 1.400 . S
C467 C466 1.400 . S
C467 C468 1.398 . S
C467 C473 1.491 . S
C468 H459 0.950 . S
C468 C467 1.398 . S
C468 C469 1.391 . S
C469 H457 0.950 . S
C469 C465 1.393 . S
C469 C468 1.391 . S
C470 H460 0.950 . S
C470 C471 1.386 . S
C470 C472 1.391 . S
C471 C470 1.386 . S
C471 C475 1.393 . S
C472 H461 0.950 . S
C472 C470 1.391 . S
C472 C473 1.400 . S
C473 C467 1.491 . S
C473 C472 1.400 . S
C473 C474 1.398 . S
C474 H462 0.950 . S
C474 C473 1.398 . S
C474 C475 1.391 . S
C475 H463 0.950 . S
C475 C471 1.393 . S
C475 C474 1.391 . S
H476 C484 0.950 . S
H477 C489 0.950 1_655 S
H478 C486 0.950 . S
H479 C488 0.950 1_655 S
H480 C490 0.952 . S
H481 C492 0.950 1_655 S
H482 C494 0.950 . S
H483 C495 0.950 . S
C484 H476 0.950 . S
C484 C485 1.386 . S
C484 C486 1.391 . S
C485 C484 1.386 . S
C485 C489 1.393 . S
C486 H478 0.950 . S
C486 C484 1.391 . S
C486 C487 1.400 . S
C487 C486 1.400 . S
C487 C488 1.398 . S
C487 C493 1.491 . S
C488 H479 0.950 1_455 S
C488 C487 1.398 . S
C488 C489 1.391 . S
C489 H477 0.950 1_455 S
C489 C485 1.393 . S
C489 C488 1.391 . S
C490 H480 0.952 . S
C490 C491 1.383 1_655 S
C490 C492 1.391 1_655 S
C491 C490 1.383 1_455 S
C491 C495 1.393 . S
C492 H481 0.950 1_455 S
C492 C490 1.391 1_455 S
C492 C493 1.400 . S
C493 C487 1.491 . S
C493 C492 1.400 . S
C493 C494 1.398 . S
C494 H482 0.950 . S
C494 C493 1.398 . S
C494 C495 1.391 . S
C495 H483 0.950 . S
C495 C491 1.393 . S
C495 C494 1.391 . S
H496 C504 0.950 . S
H497 C509 0.950 . S
H498 C506 0.950 . S
H499 C508 0.950 . S
H500 C510 0.950 . S
H501 C512 0.950 . S
H502 C514 0.950 . S
H503 C515 0.950 . S
C504 H496 0.950 . S
C504 C505 1.403 . S
C504 C506 1.391 . S
C505 C504 1.403 . S
C505 C509 1.371 1_565 S
C506 H498 0.950 . S
C506 C504 1.391 . S
C506 C507 1.427 . S
C507 C506 1.427 . S
C507 C508 1.379 1_565 S
C507 C513 1.487 . S
C508 H499 0.950 . S
C508 C507 1.379 1_545 S
C508 C509 1.391 . S
C509 H497 0.950 . S
C509 C505 1.371 1_545 S
C509 C508 1.391 . S
C510 H500 0.950 . S
C510 C511 1.373 1_545 S
C510 C512 1.391 1_556 S
C511 C510 1.373 1_565 S
C511 C515 1.409 . S
C512 H501 0.950 . S
C512 C510 1.391 1_554 S
C512 C513 1.389 1_545 S
C513 C507 1.487 . S
C513 C512 1.389 1_565 S
C513 C514 1.407 . S
C514 H502 0.950 . S
C514 C513 1.407 . S
C514 C515 1.391 1_554 S
C515 H503 0.950 . S
C515 C511 1.409 . S
C515 C514 1.391 1_556 S
H516 C524 0.950 . S
H517 C529 0.950 . S
H518 C526 0.950 . S
H519 C528 0.950 . S
H520 C530 0.950 . S
H521 C532 0.950 . S
H522 C534 0.950 . S
H523 C535 0.950 . S
C524 H516 0.950 . S
C524 C525 1.386 . S
C524 C526 1.391 . S
C525 C524 1.386 . S
C525 C529 1.393 . S
C526 H518 0.950 . S
C526 C524 1.391 . S
C526 C527 1.400 . S
C527 C526 1.400 . S
C527 C528 1.398 . S
C527 C533 1.491 . S
C528 H519 0.950 . S
C528 C527 1.398 . S
C528 C529 1.391 . S
C529 H517 0.950 . S
C529 C525 1.393 . S
C529 C528 1.391 . S
C530 H520 0.950 . S
C530 C531 1.386 . S
C530 C532 1.391 . S
C531 C530 1.386 . S
C531 C535 1.393 . S
C532 H521 0.950 . S
C532 C530 1.391 . S
C532 C533 1.400 . S
C533 C527 1.491 . S
C533 C532 1.400 . S
C533 C534 1.398 . S
C534 H522 0.950 . S
C534 C533 1.398 . S
C534 C535 1.391 . S
C535 H523 0.950 . S
C535 C531 1.393 . S
C535 C534 1.391 . S
H536 C544 0.950 . S
H537 C549 0.950 . S
H538 C546 0.950 . S
H539 C548 0.950 . S
H540 C550 0.950 . S
H541 C552 0.950 . S
H542 C554 0.950 . S
H543 C555 0.950 . S
C544 H536 0.950 . S
C544 C545 1.386 . S
C544 C546 1.391 . S
C545 C544 1.386 . S
C545 C549 1.393 . S
C546 H538 0.950 . S
C546 C544 1.391 . S
C546 C547 1.400 . S
C547 C546 1.400 . S
C547 C548 1.398 . S
C547 C553 1.491 . S
C548 H539 0.950 . S
C548 C547 1.398 . S
C548 C549 1.391 . S
C549 H537 0.950 . S
C549 C545 1.393 . S
C549 C548 1.391 . S
C550 H540 0.950 . S
C550 C551 1.386 . S
C550 C552 1.391 1_556 S
C551 C550 1.386 . S
C551 C555 1.393 . S
C552 H541 0.950 . S
C552 C550 1.391 1_554 S
C552 C553 1.400 . S
C553 C547 1.491 . S
C553 C552 1.400 . S
C553 C554 1.398 . S
C554 H542 0.950 . S
C554 C553 1.398 . S
C554 C555 1.391 1_554 S
C555 H543 0.950 . S
C555 C551 1.393 . S
C555 C554 1.391 1_556 S
H556 C564 0.950 . S
H557 C569 0.950 . S
H558 C566 0.950 . S
H559 C568 0.950 1_455 S
H560 C570 0.950 . S
H561 C572 0.950 . S
H562 C574 0.950 . S
H563 C575 0.950 . S
C564 H556 0.950 . S
C564 C565 1.386 . S
C564 C566 1.391 . S
C565 C564 1.386 . S
C565 C569 1.393 . S
C566 H558 0.950 . S
C566 C564 1.391 . S
C566 C567 1.400 . S
C567 C566 1.400 . S
C567 C568 1.398 . S
C567 C573 1.491 . S
C568 H559 0.950 1_655 S
C568 C567 1.398 . S
C568 C569 1.391 . S
C569 H557 0.950 . S
C569 C565 1.393 . S
C569 C568 1.391 . S
C570 H560 0.950 . S
C570 C571 1.386 . S
C570 C572 1.391 1_556 S
C571 C570 1.386 . S
C571 C575 1.393 1_455 S
C572 H561 0.950 . S
C572 C570 1.391 1_554 S
C572 C573 1.400 1_455 S
C573 C567 1.491 . S
C573 C572 1.400 1_655 S
C573 C574 1.398 1_554 S
C574 H562 0.950 . S
C574 C573 1.398 1_556 S
C574 C575 1.391 . S
C575 H563 0.950 . S
C575 C571 1.393 1_655 S
C575 C574 1.391 . S
H576 C584 0.950 1_655 S
H577 C589 0.950 . S
H578 C586 0.950 . S
H579 C588 0.950 . S
H580 C590 0.950 1_455 S
H581 C592 0.950 . S
H582 C594 0.950 . S
H583 C595 0.950 . S
C584 H576 0.950 1_455 S
C584 C585 1.386 . S
C584 C586 1.391 1_455 S
C585 C584 1.386 . S
C585 C589 1.393 . S
C586 H578 0.950 . S
C586 C584 1.391 1_655 S
C586 C587 1.400 1_655 S
C587 C586 1.400 1_455 S
C587 C588 1.398 . S
C587 C593 1.491 1_455 S
C588 H579 0.950 . S
C588 C587 1.398 . S
C588 C589 1.391 . S
C589 H577 0.950 . S
C589 C585 1.393 . S
C589 C588 1.391 . S
C590 H580 0.950 1_655 S
C590 C591 1.384 . S
C590 C592 1.392 1_655 S
C591 C590 1.384 . S
C591 C595 1.393 . S
C592 H581 0.950 . S
C592 C590 1.392 1_455 S
C592 C593 1.400 1_455 S
C593 C587 1.491 1_655 S
C593 C592 1.400 1_655 S
C593 C594 1.398 . S
C594 H582 0.950 . S
C594 C593 1.398 . S
C594 C595 1.391 . S
C595 H583 0.950 . S
C595 C591 1.393 . S
C595 C594 1.391 . S
H596 C604 0.950 . S
H597 C609 0.950 . S
H598 C606 0.950 . S
H599 C608 0.950 . S
H600 C610 0.950 1_545 S
H601 C612 0.950 . S
H602 C614 0.950 . S
H603 C615 0.950 . S
C604 H596 0.950 . S
C604 C605 1.386 1_565 S
C604 C606 1.391 . S
C605 C604 1.386 1_545 S
C605 C609 1.393 . S
C606 H598 0.950 . S
C606 C604 1.391 . S
C606 C607 1.400 . S
C607 C606 1.400 . S
C607 C608 1.398 1_565 S
C607 C613 1.491 . S
C608 H599 0.950 . S
C608 C607 1.398 1_545 S
C608 C609 1.391 . S
C609 H597 0.950 . S
C609 C605 1.393 . S
C609 C608 1.391 . S
C610 H600 0.950 1_565 S
C610 C611 1.386 . S
C610 C612 1.391 1_565 S
C611 C610 1.386 . S
C611 C615 1.393 . S
C612 H601 0.950 . S
C612 C610 1.391 1_545 S
C612 C613 1.400 1_545 S
C613 C607 1.491 . S
C613 C612 1.400 1_565 S
C613 C614 1.398 . S
C614 H602 0.950 . S
C614 C613 1.398 . S
C614 C615 1.391 . S
C615 H603 0.950 . S
C615 C611 1.393 . S
C615 C614 1.391 . S
H616 C624 0.950 . S
H617 C629 0.950 . S
H618 C626 0.950 . S
H619 C628 0.950 . S
H620 C630 0.950 . S
H621 C632 0.950 . S
H622 C634 0.950 . S
H623 C635 0.950 . S
C624 H616 0.950 . S
C624 C625 1.386 . S
C624 C626 1.391 . S
C625 C624 1.386 . S
C625 C629 1.393 . S
C626 H618 0.950 . S
C626 C624 1.391 . S
C626 C627 1.400 . S
C627 C626 1.400 . S
C627 C628 1.398 . S
C627 C633 1.491 . S
C628 H619 0.950 . S
C628 C627 1.398 . S
C628 C629 1.391 . S
C629 H617 0.950 . S
C629 C625 1.393 . S
C629 C628 1.391 . S
C630 H620 0.950 . S
C630 C631 1.386 . S
C630 C632 1.391 . S
C631 C630 1.386 . S
C631 C635 1.393 . S
C632 H621 0.950 . S
C632 C630 1.391 . S
C632 C633 1.400 . S
C633 C627 1.491 . S
C633 C632 1.400 . S
C633 C634 1.398 . S
C634 H622 0.950 . S
C634 C633 1.398 . S
C634 C635 1.391 . S
C635 H623 0.950 . S
C635 C631 1.393 . S
C635 C634 1.391 . S
H636 C644 0.950 . S
H637 C649 0.950 . S
H638 C646 0.950 . S
H639 C648 0.950 . S
H640 C650 0.950 . S
H641 C652 0.950 . S
H642 C654 0.950 . S
H643 C655 0.950 . S
C644 H636 0.950 . S
C644 C645 1.386 . S
C644 C646 1.391 . S
C645 C644 1.386 . S
C645 C649 1.393 . S
C646 H638 0.950 . S
C646 C644 1.391 . S
C646 C647 1.400 . S
C647 C646 1.400 . S
C647 C648 1.398 . S
C647 C653 1.491 . S
C648 H639 0.950 . S
C648 C647 1.398 . S
C648 C649 1.391 . S
C649 H637 0.950 . S
C649 C645 1.393 . S
C649 C648 1.391 . S
C650 H640 0.950 . S
C650 C651 1.386 . S
C650 C652 1.391 . S
C651 C650 1.386 . S
C651 C655 1.393 . S
C652 H641 0.950 . S
C652 C650 1.391 . S
C652 C653 1.400 . S
C653 C647 1.491 . S
C653 C652 1.400 . S
C653 C654 1.398 . S
C654 H642 0.950 . S
C654 C653 1.398 . S
C654 C655 1.391 . S
C655 H643 0.950 . S
C655 C651 1.393 . S
C655 C654 1.391 . S
H656 C664 0.950 . S
H657 C669 0.950 . S
H658 C666 0.950 . S
H659 C668 0.950 . S
H660 C670 0.950 . S
H661 C672 0.950 1_556 S
H662 C674 0.950 . S
H663 C675 0.950 . S
C664 H656 0.950 . S
C664 C665 1.386 1_455 S
C664 C666 1.391 . S
C665 C664 1.386 1_655 S
C665 C669 1.393 . S
C666 H658 0.950 . S
C666 C664 1.391 . S
C666 C667 1.400 . S
C667 C666 1.400 . S
C667 C668 1.398 . S
C667 C673 1.491 . S
C668 H659 0.950 . S
C668 C667 1.398 . S
C668 C669 1.391 1_455 S
C669 H657 0.950 . S
C669 C665 1.393 . S
C669 C668 1.391 1_655 S
C670 H660 0.950 . S
C670 C671 1.386 1_556 S
C670 C672 1.391 1_556 S
C671 C670 1.386 1_554 S
C671 C675 1.393 . S
C672 H661 0.950 1_554 S
C672 C670 1.391 1_554 S
C672 C673 1.400 . S
C673 C667 1.491 . S
C673 C672 1.400 . S
C673 C674 1.398 . S
C674 H662 0.950 . S
C674 C673 1.398 . S
C674 C675 1.391 . S
C675 H663 0.950 . S
C675 C671 1.393 . S
C675 C674 1.391 . S
H676 C684 0.950 . S
H677 C689 0.950 . S
H678 C686 0.950 . S
H679 C688 0.950 . S
H680 C690 0.950 . S
H681 C692 0.950 . S
H682 C694 0.950 1_565 S
H683 C695 0.950 . S
C684 H676 0.950 . S
C684 C685 1.386 . S
C684 C686 1.391 . S
C685 C684 1.386 . S
C685 C689 1.393 1_565 S
C686 H678 0.950 . S
C686 C684 1.391 . S
C686 C687 1.400 1_565 S
C687 C686 1.400 1_545 S
C687 C688 1.398 . S
C687 C693 1.491 . S
C688 H679 0.950 . S
C688 C687 1.398 . S
C688 C689 1.391 . S
C689 H677 0.950 . S
C689 C685 1.393 1_545 S
C689 C688 1.391 . S
C690 H680 0.950 . S
C690 C691 1.386 . S
C690 C692 1.391 . S
C691 C690 1.386 . S
C691 C695 1.393 . S
C692 H681 0.950 . S
C692 C690 1.391 . S
C692 C693 1.400 . S
C693 C687 1.491 . S
C693 C692 1.400 . S
C693 C694 1.398 . S
C694 H682 0.950 1_545 S
C694 C693 1.398 . S
C694 C695 1.391 . S
C695 H683 0.950 . S
C695 C691 1.393 . S
C695 C694 1.391 . S
H696 C704 0.950 . S
H697 C709 0.950 . S
H698 C706 0.950 . S
H699 C708 0.950 . S
H700 C710 0.950 . S
H701 C712 0.950 . S
H702 C714 0.950 . S
H703 C715 0.950 . S
C704 H696 0.950 . S
C704 C705 1.386 . S
C704 C706 1.391 . S
C705 C704 1.386 . S
C705 C709 1.393 . S
C706 H698 0.950 . S
C706 C704 1.391 . S
C706 C707 1.400 . S
C707 C706 1.400 . S
C707 C708 1.398 . S
C707 C713 1.491 . S
C708 H699 0.950 . S
C708 C707 1.398 . S
C708 C709 1.391 . S
C709 H697 0.950 . S
C709 C705 1.393 . S
C709 C708 1.391 . S
C710 H700 0.950 . S
C710 C711 1.386 . S
C710 C712 1.391 . S
C711 C710 1.386 . S
C711 C715 1.393 . S
C712 H701 0.950 . S
C712 C710 1.391 . S
C712 C713 1.400 . S
C713 C707 1.491 . S
C713 C712 1.400 . S
C713 C714 1.398 . S
C714 H702 0.950 . S
C714 C713 1.398 . S
C714 C715 1.391 . S
C715 H703 0.950 . S
C715 C711 1.393 . S
C715 C714 1.391 . S
H716 C724 0.950 . S
H717 C729 0.950 . S
H718 C726 0.950 . S
H719 C728 0.950 . S
H720 C730 0.950 1_556 S
H721 C732 0.950 . S
H722 C734 0.950 . S
H723 C735 0.950 . S
C724 H716 0.950 . S
C724 C725 1.386 . S
C724 C726 1.391 . S
C725 C724 1.386 . S
C725 C729 1.393 . S
C726 H718 0.950 . S
C726 C724 1.391 . S
C726 C727 1.400 . S
C727 C726 1.400 . S
C727 C728 1.398 . S
C727 C733 1.491 . S
C728 H719 0.950 . S
C728 C727 1.398 . S
C728 C729 1.391 . S
C729 H717 0.950 . S
C729 C725 1.393 . S
C729 C728 1.391 . S
C730 H720 0.950 1_554 S
C730 C731 1.386 . S
C730 C732 1.391 . S
C731 C730 1.386 . S
C731 C735 1.393 . S
C732 H721 0.950 . S
C732 C730 1.391 . S
C732 C733 1.400 . S
C733 C727 1.491 . S
C733 C732 1.400 . S
C733 C734 1.398 . S
C734 H722 0.950 . S
C734 C733 1.398 . S
C734 C735 1.391 . S
C735 H723 0.950 . S
C735 C731 1.393 . S
C735 C734 1.391 . S
H736 C744 0.950 . S
H737 C749 0.950 1_655 S
H738 C746 0.950 . S
H739 C748 0.950 1_655 S
H740 C750 0.950 1_655 S
H741 C752 0.950 1_655 S
H742 C754 0.950 . S
H743 C755 0.950 . S
C744 H736 0.950 . S
C744 C745 1.386 . S
C744 C746 1.391 . S
C745 C744 1.386 . S
C745 C749 1.393 . S
C746 H738 0.950 . S
C746 C744 1.391 . S
C746 C747 1.400 . S
C747 C746 1.400 . S
C747 C748 1.398 . S
C747 C753 1.491 . S
C748 H739 0.950 1_455 S
C748 C747 1.398 . S
C748 C749 1.391 . S
C749 H737 0.950 1_455 S
C749 C745 1.393 . S
C749 C748 1.391 . S
C750 H740 0.950 1_455 S
C750 C751 1.386 . S
C750 C752 1.391 . S
C751 C750 1.386 . S
C751 C755 1.393 . S
C752 H741 0.950 1_455 S
C752 C750 1.391 . S
C752 C753 1.400 . S
C753 C747 1.491 . S
C753 C752 1.400 . S
C753 C754 1.398 . S
C754 H742 0.950 . S
C754 C753 1.398 . S
C754 C755 1.391 . S
C755 H743 0.950 . S
C755 C751 1.393 . S
C755 C754 1.391 . S
H756 C764 0.950 . S
H757 C769 0.950 . S
H758 C766 0.950 . S
H759 C768 0.950 . S
H760 C770 0.950 . S
H761 C772 0.950 . S
H762 C774 0.950 . S
H763 C775 0.950 . S
C764 H756 0.950 . S
C764 C765 1.386 . S
C764 C766 1.391 . S
C765 C764 1.386 . S
C765 C769 1.393 1_545 S
C766 H758 0.950 . S
C766 C764 1.391 . S
C766 C767 1.400 . S
C767 C766 1.400 . S
C767 C768 1.398 1_545 S
C767 C773 1.491 . S
C768 H759 0.950 . S
C768 C767 1.398 1_565 S
C768 C769 1.391 . S
C769 H757 0.950 . S
C769 C765 1.393 1_565 S
C769 C768 1.391 . S
C770 H760 0.950 . S
C770 C771 1.386 1_565 S
C770 C772 1.391 . S
C771 C770 1.386 1_545 S
C771 C775 1.393 . S
C772 H761 0.950 . S
C772 C770 1.391 . S
C772 C773 1.400 1_565 S
C773 C767 1.491 . S
C773 C772 1.400 1_545 S
C773 C774 1.398 . S
C774 H762 0.950 . S
C774 C773 1.398 . S
C774 C775 1.391 . S
C775 H763 0.950 . S
C775 C771 1.393 . S
C775 C774 1.391 . S
H776 C784 0.950 . S
H777 C789 0.950 . S
H778 C786 0.950 . S
H779 C788 0.950 . S
H780 C790 0.950 . S
H781 C792 0.950 . S
H782 C794 0.950 . S
H783 C795 0.950 . S
C784 H776 0.950 . S
C784 C785 1.386 . S
C784 C786 1.391 . S
C785 C784 1.386 . S
C785 C789 1.393 . S
C786 H778 0.950 . S
C786 C784 1.391 . S
C786 C787 1.400 . S
C787 C786 1.400 . S
C787 C788 1.398 . S
C787 C793 1.491 . S
C788 H779 0.950 . S
C788 C787 1.398 . S
C788 C789 1.391 . S
C789 H777 0.950 . S
C789 C785 1.393 . S
C789 C788 1.391 . S
C790 H780 0.950 . S
C790 C791 1.386 . S
C790 C792 1.391 . S
C791 C790 1.386 . S
C791 C795 1.393 . S
C792 H781 0.950 . S
C792 C790 1.391 . S
C792 C793 1.400 . S
C793 C787 1.491 . S
C793 C792 1.400 . S
C793 C794 1.398 . S
C794 H782 0.950 . S
C794 C793 1.398 . S
C794 C795 1.391 . S
C795 H783 0.950 . S
C795 C791 1.393 . S
C795 C794 1.391 . S
H796 C804 0.950 . S
H797 C809 0.950 . S
H798 C806 0.950 . S
H799 C808 0.950 . S
H800 C810 0.950 . S
H801 C812 0.950 . S
H802 C814 0.950 . S
H803 C815 0.950 . S
C804 H796 0.950 . S
C804 C805 1.386 . S
C804 C806 1.391 . S
C805 C804 1.386 . S
C805 C809 1.393 . S
C806 H798 0.950 . S
C806 C804 1.391 . S
C806 C807 1.400 . S
C807 C806 1.400 . S
C807 C808 1.398 . S
C807 C813 1.491 . S
C808 H799 0.950 . S
C808 C807 1.398 . S
C808 C809 1.391 . S
C809 H797 0.950 . S
C809 C805 1.393 . S
C809 C808 1.391 . S
C810 H800 0.950 . S
C810 C811 1.386 . S
C810 C812 1.391 . S
C811 C810 1.386 . S
C811 C815 1.393 . S
C812 H801 0.950 . S
C812 C810 1.391 . S
C812 C813 1.400 . S
C813 C807 1.491 . S
C813 C812 1.400 . S
C813 C814 1.398 . S
C814 H802 0.950 . S
C814 C813 1.398 . S
C814 C815 1.391 . S
C815 H803 0.950 . S
C815 C811 1.393 . S
C815 C814 1.391 . S
H816 C824 0.962 . S
H817 C829 0.950 . S
H818 C826 0.962 . S
H819 C828 0.950 . S
H820 C830 0.950 . S
H821 C832 0.950 . S
H822 C834 0.944 1_455 S
H823 C835 0.949 . S
C824 H816 0.962 . S
C824 C825 1.374 1_455 S
C824 C826 1.391 . S
C825 C824 1.374 1_655 S
C825 C829 1.393 . S
C826 H818 0.962 . S
C826 C824 1.391 . S
C826 C827 1.389 1_455 S
C827 C826 1.389 1_655 S
C827 C828 1.398 . S
C827 C833 1.491 . S
C828 H819 0.950 . S
C828 C827 1.398 . S
C828 C829 1.391 . S
C829 H817 0.950 . S
C829 C825 1.393 . S
C829 C828 1.391 . S
C830 H820 0.950 . S
C830 C831 1.386 . S
C830 C832 1.391 . S
C831 C830 1.386 . S
C831 C835 1.394 1_655 S
C832 H821 0.950 . S
C832 C830 1.391 . S
C832 C833 1.400 . S
C833 C827 1.491 . S
C833 C832 1.400 . S
C833 C834 1.405 . S
C834 H822 0.944 1_655 S
C834 C833 1.405 . S
C834 C835 1.390 1_655 S
C835 H823 0.949 . S
C835 C831 1.394 1_455 S
C835 C834 1.390 1_455 S
H836 C844 0.950 . S
H837 C849 0.950 . S
H838 C846 0.950 . S
H839 C848 0.950 . S
H840 C850 0.950 . S
H841 C852 0.950 . S
H842 C854 0.950 . S
H843 C855 0.950 . S
C844 H836 0.950 . S
C844 C845 1.428 . S
C844 C846 1.391 . S
C845 C844 1.428 . S
C845 C849 1.354 1_565 S
C846 H838 0.950 . S
C846 C844 1.391 . S
C846 C847 1.400 . S
C847 C846 1.400 . S
C847 C848 1.398 1_565 S
C847 C853 1.491 . S
C848 H839 0.950 . S
C848 C847 1.398 1_545 S
C848 C849 1.391 . S
C849 H837 0.950 . S
C849 C845 1.354 1_545 S
C849 C848 1.391 . S
C850 H840 0.950 . S
C850 C851 1.386 1_545 S
C850 C852 1.391 . S
C851 C850 1.386 1_565 S
C851 C855 1.393 . S
C852 H841 0.950 . S
C852 C850 1.391 . S
C852 C853 1.400 1_545 S
C853 C847 1.491 . S
C853 C852 1.400 1_565 S
C853 C854 1.398 . S
C854 H842 0.950 . S
C854 C853 1.398 . S
C854 C855 1.391 . S
C855 H843 0.950 . S
C855 C851 1.393 . S
C855 C854 1.391 . S
H856 C864 0.950 . S
H857 C869 0.950 . S
H858 C866 0.950 . S
H859 C868 0.950 . S
H860 C870 0.950 . S
H861 C872 0.950 . S
H862 C874 0.950 . S
H863 C875 0.950 . S
C864 H856 0.950 . S
C864 C865 1.386 . S
C864 C866 1.391 . S
C865 C864 1.386 . S
C865 C869 1.393 . S
C866 H858 0.950 . S
C866 C864 1.391 . S
C866 C867 1.400 . S
C867 C866 1.400 . S
C867 C868 1.398 . S
C867 C873 1.491 . S
C868 H859 0.950 . S
C868 C867 1.398 . S
C868 C869 1.391 . S
C869 H857 0.950 . S
C869 C865 1.393 . S
C869 C868 1.391 . S
C870 H860 0.950 . S
C870 C871 1.386 . S
C870 C872 1.391 . S
C871 C870 1.386 . S
C871 C875 1.393 . S
C872 H861 0.950 . S
C872 C870 1.391 . S
C872 C873 1.400 . S
C873 C867 1.491 . S
C873 C872 1.400 . S
C873 C874 1.398 . S
C874 H862 0.950 . S
C874 C873 1.398 . S
C874 C875 1.391 . S
C875 H863 0.950 . S
C875 C871 1.393 . S
C875 C874 1.391 . S
H876 C884 0.950 . S
H877 C889 0.950 . S
H878 C886 0.950 . S
H879 C888 0.950 . S
H880 C890 0.950 . S
H881 C892 0.950 . S
H882 C894 0.950 . S
H883 C895 0.950 . S
C884 H876 0.950 . S
C884 C885 1.386 . S
C884 C886 1.391 . S
C885 C884 1.386 . S
C885 C889 1.393 . S
C886 H878 0.950 . S
C886 C884 1.391 . S
C886 C887 1.400 . S
C887 C886 1.400 . S
C887 C888 1.398 . S
C887 C893 1.491 . S
C888 H879 0.950 . S
C888 C887 1.398 . S
C888 C889 1.391 . S
C889 H877 0.950 . S
C889 C885 1.393 . S
C889 C888 1.391 . S
C890 H880 0.950 . S
C890 C891 1.386 . S
C890 C892 1.391 . S
C891 C890 1.386 . S
C891 C895 1.393 . S
C892 H881 0.950 . S
C892 C890 1.391 . S
C892 C893 1.400 . S
C893 C887 1.491 . S
C893 C892 1.400 . S
C893 C894 1.398 . S
C894 H882 0.950 . S
C894 C893 1.398 . S
C894 C895 1.391 . S
C895 H883 0.950 . S
C895 C891 1.393 . S
C895 C894 1.391 . S
C425 C215 2.040 1_565 S
C431 C279 2.195 1_545 S
C451 C319 1.598 . S
C445 C247 1.592 . S
C471 C338 2.248 . S
C465 C151 2.113 . S
C491 C399 1.626 . S
C485 C183 1.542 . S
C511 C258 2.180 1_565 S
C505 C87 2.033 1_565 S
C525 C119 1.517 . S
C531 C298 1.602 . S
C545 C23 2.057 . S
C551 C359 2.242 . S
C565 C55 1.488 . S
C571 C378 1.625 . S
C591 C260 0.764 . S
C585 C189 0.739 . S
C611 C300 0.320 . S
C605 C221 0.168 . S
C631 C356 0.814 . S
C625 C253 0.795 . S
C645 C157 0.310 . S
C651 C380 0.402 . S
C665 C61 0.718 . S
C671 C281 0.728 . S
C691 C321 0.261 . S
C685 C93 0.400 1_565 S
C711 C367 0.848 . S
C705 C125 0.833 . S
C725 C29 0.487 . S
C731 C401 0.383 . S
C745 C177 1.926 1_556 S
C751 C276 2.144 . S
C765 C209 2.529 . S
C771 C316 2.803 . S
C791 C340 1.763 . S
C785 C241 1.721 . S
C811 C396 2.790 . S
C805 C145 2.528 . S
C825 C49 1.924 . S
C831 C287 2.163 . S
C851 C327 2.809 . S
C845 C81 2.553 1_565 S
C871 C361 1.762 . S
C865 C113 1.740 . S
C885 C17 2.529 . S
C891 C407 2.794 . S
