# Generated by pormake.
# Topology wbl, (4,4)-cn, num edge types: 1
# Building blocks:
#     Node 0, Type 0, BuildingBlock: MUDLON_clean_linker_0, # of connection points: 4
#     Node 1, Type 0, BuildingBlock: MUDLON_clean_linker_0, # of connection points: 4
#     Node 2, Type 0, BuildingBlock: MUDLON_clean_linker_0, # of connection points: 4
#     Node 3, Type 0, BuildingBlock: MUDLON_clean_linker_0, # of connection points: 4
#     Node 4, Type 0, BuildingBlock: MUDLON_clean_linker_0, # of connection points: 4
#     Node 5, Type 0, BuildingBlock: MUDLON_clean_linker_0, # of connection points: 4
#     Node 6, Type 0, BuildingBlock: MUDLON_clean_linker_0, # of connection points: 4
#     Node 7, Type 0, BuildingBlock: MUDLON_clean_linker_0, # of connection points: 4
#     Node 8, Type 1, BuildingBlock: QUQFOY_clean_sbu_1, # of connection points: 4
#     Node 9, Type 1, BuildingBlock: QUQFOY_clean_sbu_1, # of connection points: 4
#     Node 10, Type 1, BuildingBlock: QUQFOY_clean_sbu_1, # of connection points: 4
#     Node 11, Type 1, BuildingBlock: QUQFOY_clean_sbu_1, # of connection points: 4
#     Node 12, Type 1, BuildingBlock: QUQFOY_clean_sbu_1, # of connection points: 4
#     Node 13, Type 1, BuildingBlock: QUQFOY_clean_sbu_1, # of connection points: 4
#     Node 14, Type 1, BuildingBlock: QUQFOY_clean_sbu_1, # of connection points: 4
#     Node 15, Type 1, BuildingBlock: QUQFOY_clean_sbu_1, # of connection points: 4
#     Edge 16, Type (0, 1), BuildingBlock: UVAHIK_clean_linker_0, # of connection points: 2
#     Edge 17, Type (0, 1), BuildingBlock: UVAHIK_clean_linker_0, # of connection points: 2
#     Edge 18, Type (0, 1), BuildingBlock: UVAHIK_clean_linker_0, # of connection points: 2
#     Edge 19, Type (0, 1), BuildingBlock: UVAHIK_clean_linker_0, # of connection points: 2
#     Edge 20, Type (0, 1), BuildingBlock: UVAHIK_clean_linker_0, # of connection points: 2
#     Edge 21, Type (0, 1), BuildingBlock: UVAHIK_clean_linker_0, # of connection points: 2
#     Edge 22, Type (0, 1), BuildingBlock: UVAHIK_clean_linker_0, # of connection points: 2
#     Edge 23, Type (0, 1), BuildingBlock: UVAHIK_clean_linker_0, # of connection points: 2
#     Edge 24, Type (0, 1), BuildingBlock: UVAHIK_clean_linker_0, # of connection points: 2
#     Edge 25, Type (0, 1), BuildingBlock: UVAHIK_clean_linker_0, # of connection points: 2
#     Edge 26, Type (0, 1), BuildingBlock: UVAHIK_clean_linker_0, # of connection points: 2
#     Edge 27, Type (0, 1), BuildingBlock: UVAHIK_clean_linker_0, # of connection points: 2
#     Edge 28, Type (0, 1), BuildingBlock: UVAHIK_clean_linker_0, # of connection points: 2
#     Edge 29, Type (0, 1), BuildingBlock: UVAHIK_clean_linker_0, # of connection points: 2
#     Edge 30, Type (0, 1), BuildingBlock: UVAHIK_clean_linker_0, # of connection points: 2
#     Edge 31, Type (0, 1), BuildingBlock: UVAHIK_clean_linker_0, # of connection points: 2
#     Edge 32, Type (0, 1), BuildingBlock: UVAHIK_clean_linker_0, # of connection points: 2
#     Edge 33, Type (0, 1), BuildingBlock: UVAHIK_clean_linker_0, # of connection points: 2
#     Edge 34, Type (0, 1), BuildingBlock: UVAHIK_clean_linker_0, # of connection points: 2
#     Edge 35, Type (0, 1), BuildingBlock: UVAHIK_clean_linker_0, # of connection points: 2
#     Edge 36, Type (0, 1), BuildingBlock: UVAHIK_clean_linker_0, # of connection points: 2
#     Edge 37, Type (0, 1), BuildingBlock: UVAHIK_clean_linker_0, # of connection points: 2
#     Edge 38, Type (0, 1), BuildingBlock: UVAHIK_clean_linker_0, # of connection points: 2
#     Edge 39, Type (0, 1), BuildingBlock: UVAHIK_clean_linker_0, # of connection points: 2
#     Edge 40, Type (0, 1), BuildingBlock: UVAHIK_clean_linker_0, # of connection points: 2
#     Edge 41, Type (0, 1), BuildingBlock: UVAHIK_clean_linker_0, # of connection points: 2
#     Edge 42, Type (0, 1), BuildingBlock: UVAHIK_clean_linker_0, # of connection points: 2
#     Edge 43, Type (0, 1), BuildingBlock: UVAHIK_clean_linker_0, # of connection points: 2
#     Edge 44, Type (0, 1), BuildingBlock: UVAHIK_clean_linker_0, # of connection points: 2
#     Edge 45, Type (0, 1), BuildingBlock: UVAHIK_clean_linker_0, # of connection points: 2
#     Edge 46, Type (0, 1), BuildingBlock: UVAHIK_clean_linker_0, # of connection points: 2
#     Edge 47, Type (0, 1), BuildingBlock: UVAHIK_clean_linker_0, # of connection points: 2
# Relax obj value: 0.144
# Max RMSD: 0.208
# Mean RMSD: 0.160
data_MOF--net-wbl--node1-QUQFOY_clean_sbu_1--node2-MUDLON_clean_linker_0--edge1-UVAHIK_clean_linker_0
_symmetry_space_group_name_H-M    P1
_symmetry_Int_Tables_number       1
_symmetry_cell_setting            triclinic
loop_
_symmetry_equiv_pos_as_xyz
'x, y, z'
_cell_length_a     64.857691
_cell_length_b     64.842592
_cell_length_c     95.791807
_cell_angle_alpha  93.39741
_cell_angle_beta   93.392509
_cell_angle_gamma 90.188907
loop_
_atom_site_label
_atom_site_type_symbol
_atom_site_fract_x
_atom_site_fract_y
_atom_site_fract_z
_atom_type_partial_charge
H0 H 0.20216 0.00818 0.33836 0.0
N1 N 0.16334 0.9983 0.32705 0.0
H2 H 0.21541 0.00312 0.36237 0.0
H3 H 0.14307 0.98336 0.34756 0.0
H4 H 0.1562 0.97828 0.37163 0.0
H5 H 0.16719 0.95873 0.31938 0.0
H6 H 0.19227 0.94287 0.30425 0.0
H7 H 0.18931 0.01916 0.31067 0.0
H8 H 0.21351 0.00356 0.29488 0.0
H9 H 0.17939 0.03745 0.3317 0.0
H10 H 0.12409 0.00289 0.31853 0.0
H11 H 0.16032 0.06965 0.33044 0.0
H12 H 0.10449 0.03497 0.31795 0.0
H13 H 0.07863 0.16684 0.34081 0.0
H14 H 0.06687 0.1784 0.36371 0.0
H15 H 0.06198 0.1147 0.37434 0.0
H16 H 0.07223 0.10342 0.35115 0.0
H17 H 0.0469 0.10265 0.33098 0.0
H18 H 0.0128 0.10711 0.31957 0.0
H19 H 0.03615 0.15817 0.29791 0.0
H20 H 0.07008 0.15418 0.31005 0.0
H21 H 0.11526 0.11932 0.34497 0.0
H22 H 0.13618 0.08847 0.34304 0.0
H23 H 0.09787 0.06599 0.30686 0.0
N24 N 0.08033 0.12822 0.32981 0.0
H25 H 0.07641 0.0962 0.30913 0.0
C26 C 0.1716 0.99596 0.34117 0.0
C27 C 0.19204 0.00164 0.34555 0.0
C28 C 0.19962 0.99869 0.35925 0.0
C29 C 0.18684 0.99028 0.36885 0.0
C30 C 0.16634 0.98497 0.3645 0.0
C31 C 0.15884 0.98775 0.35078 0.0
C32 C 0.17621 0.99007 0.31626 0.0
C33 C 0.17707 0.96858 0.31388 0.0
C34 C 0.19139 0.95956 0.30511 0.0
C35 C 0.2051 0.97188 0.2983 0.0
C36 C 0.20353 0.99352 0.30015 0.0
C37 C 0.18942 0.00254 0.30914 0.0
C38 C 0.15314 0.01772 0.32503 0.0
C39 C 0.16316 0.0368 0.32837 0.0
C40 C 0.15213 0.05524 0.32782 0.0
C41 C 0.13076 0.05501 0.3242 0.0
C42 C 0.12095 0.03587 0.32056 0.0
C43 C 0.13208 0.01748 0.32093 0.0
C44 C 0.07651 0.13435 0.34423 0.0
C45 C 0.07528 0.15544 0.3482 0.0
C46 C 0.06861 0.16199 0.36134 0.0
C47 C 0.06327 0.14752 0.37094 0.0
C48 C 0.06543 0.12635 0.36716 0.0
C49 C 0.07163 0.11983 0.35391 0.0
C50 C 0.061 0.1283 0.32147 0.0
C51 C 0.04471 0.11471 0.32372 0.0
C52 C 0.02522 0.11718 0.31704 0.0
C53 C 0.02161 0.13314 0.30789 0.0
C54 C 0.03825 0.14598 0.30511 0.0
C55 C 0.0577 0.14362 0.3119 0.0
C56 C 0.09307 0.10983 0.32795 0.0
C57 C 0.11099 0.1076 0.33677 0.0
C58 C 0.12326 0.09001 0.3355 0.0
C59 C 0.11851 0.07442 0.32495 0.0
C60 C 0.10156 0.07727 0.31545 0.0
C61 C 0.08911 0.09475 0.31683 0.0
H62 H 0.0163 0.52587 0.60161 0.0
N63 N 0.0001 0.53574 0.57688 0.0
H64 H 0.99829 0.52113 0.62294 0.0
H65 H 0.95884 0.54174 0.58011 0.0
H66 H 0.9407 0.53737 0.60141 0.0
H67 H 0.96877 0.53683 0.5564 0.0
H68 H 0.95786 0.50826 0.53981 0.0
H69 H 0.01965 0.50056 0.57207 0.0
H70 H 0.00875 0.47177 0.55567 0.0
H71 H 0.0387 0.54924 0.57848 0.0
H72 H 0.97616 0.56818 0.5688 0.0
H73 H 0.05085 0.58452 0.57636 0.0
H74 H 0.98814 0.60334 0.56602 0.0
H75 H 0.07139 0.65493 0.59734 0.0
H76 H 0.08111 0.66395 0.622 0.0
H77 H 0.05267 0.72366 0.61829 0.0
H78 H 0.04279 0.71444 0.59358 0.0
H79 H 0.04758 0.71047 0.56158 0.0
H80 H 0.07502 0.73009 0.55205 0.0
H81 H 0.12004 0.68727 0.56847 0.0
H82 H 0.09264 0.66893 0.57887 0.0
H83 H 0.07027 0.6465 0.56484 0.0
H84 H 0.05654 0.61175 0.56161 0.0
H85 H 0.00084 0.63164 0.58092 0.0
N86 N 0.05184 0.68002 0.57877 0.0
H87 H 0.01443 0.66683 0.58373 0.0
C88 C 0.98899 0.53411 0.58933 0.0
C89 C 0.99982 0.52853 0.60158 0.0
C90 C 0.9895 0.52595 0.61374 0.0
C91 C 0.96804 0.52892 0.61388 0.0
C92 C 0.95719 0.53477 0.6016 0.0
C93 C 0.96758 0.5374 0.58943 0.0
C94 C 0.99504 0.52073 0.56553 0.0
C95 C 0.97782 0.52287 0.55613 0.0
C96 C 0.97154 0.50646 0.54667 0.0
C97 C 0.98235 0.48767 0.54646 0.0
C98 C 0.00021 0.48608 0.55538 0.0
C99 C 0.00643 0.50245 0.56482 0.0
C100 C 0.00665 0.55606 0.57375 0.0
C101 C 0.02768 0.56097 0.57554 0.0
C102 C 0.03457 0.58113 0.57423 0.0
C103 C 0.02049 0.59687 0.57101 0.0
C104 C 0.9994 0.5917 0.56869 0.0
C105 C 0.99252 0.57149 0.57012 0.0
C106 C 0.05617 0.68403 0.59364 0.0
C107 C 0.06693 0.66982 0.60187 0.0
C108 C 0.07245 0.67497 0.61597 0.0
C109 C 0.06764 0.6945 0.62203 0.0
C110 C 0.05667 0.70855 0.61385 0.0
C111 C 0.05092 0.70329 0.5998 0.0
C112 C 0.06788 0.68809 0.57074 0.0
C113 C 0.06334 0.70509 0.5628 0.0
C114 C 0.07914 0.71626 0.55733 0.0
C115 C 0.09995 0.71045 0.55954 0.0
C116 C 0.10433 0.69258 0.5668 0.0
C117 C 0.08856 0.68176 0.57256 0.0
C118 C 0.04351 0.65959 0.57481 0.0
C119 C 0.05506 0.64374 0.56832 0.0
C120 C 0.04716 0.62361 0.56648 0.0
C121 C 0.02768 0.61873 0.57117 0.0
C122 C 0.0158 0.63477 0.57702 0.0
C123 C 0.02359 0.65491 0.57872 0.0
H124 H 0.59404 0.52576 0.84739 0.0
N125 N 0.57985 0.50733 0.82323 0.0
H126 H 0.6041 0.50956 0.86924 0.0
H127 H 0.5776 0.466 0.82771 0.0
H128 H 0.58754 0.44974 0.84944 0.0
H129 H 0.57006 0.47582 0.80359 0.0
H130 H 0.59237 0.46222 0.78546 0.0
H131 H 0.61517 0.52315 0.81633 0.0
H132 H 0.63767 0.50966 0.79845 0.0
H133 H 0.56627 0.54436 0.81694 0.0
H134 H 0.5453 0.48281 0.82362 0.0
H135 H 0.53048 0.5561 0.81507 0.0
H136 H 0.50974 0.49452 0.82274 0.0
H137 H 0.437 0.59271 0.83888 0.0
H138 H 0.43121 0.6057 0.86266 0.0
H139 H 0.42144 0.54335 0.87452 0.0
H140 H 0.42715 0.53029 0.85044 0.0
H141 H 0.39426 0.546 0.82236 0.0
H142 H 0.37049 0.56828 0.80975 0.0
H143 H 0.422 0.60569 0.7992 0.0
H144 H 0.44554 0.5838 0.81238 0.0
H145 H 0.46977 0.5753 0.83402 0.0
H146 H 0.50463 0.56382 0.83036 0.0
H147 H 0.48056 0.50651 0.81025 0.0
N148 N 0.43415 0.55233 0.82854 0.0
H149 H 0.44548 0.51778 0.81482 0.0
C150 C 0.58505 0.4972 0.83596 0.0
C151 C 0.59255 0.50917 0.84782 0.0
C152 C 0.59836 0.49989 0.86023 0.0
C153 C 0.59664 0.47837 0.86103 0.0
C154 C 0.58885 0.46637 0.84917 0.0
C155 C 0.58321 0.47567 0.83672 0.0
C156 C 0.5911 0.50048 0.81133 0.0
C157 C 0.58464 0.48345 0.80235 0.0
C158 C 0.59744 0.47566 0.79203 0.0
C159 C 0.61684 0.48482 0.7905 0.0
C160 C 0.62273 0.50241 0.79914 0.0
C161 C 0.60997 0.5101 0.80943 0.0
C162 C 0.55853 0.5129 0.82068 0.0
C163 C 0.5539 0.53339 0.81795 0.0
C164 C 0.53344 0.54007 0.81703 0.0
C165 C 0.51711 0.52639 0.81903 0.0
C166 C 0.52179 0.50553 0.82105 0.0
C167 C 0.54226 0.4988 0.82172 0.0
C168 C 0.43226 0.56041 0.8428 0.0
C169 C 0.43363 0.58174 0.84652 0.0
C170 C 0.43026 0.5892 0.86014 0.0
C171 C 0.42566 0.57555 0.87038 0.0
C172 C 0.42501 0.55421 0.86682 0.0
C173 C 0.42821 0.54674 0.85311 0.0
C174 C 0.42163 0.56312 0.81838 0.0
C175 C 0.40044 0.55869 0.817 0.0
C176 C 0.38688 0.57148 0.80974 0.0
C177 C 0.39426 0.58898 0.80353 0.0
C178 C 0.41572 0.5926 0.80408 0.0
C179 C 0.42928 0.57988 0.81149 0.0
C180 C 0.45491 0.54715 0.82495 0.0
C181 C 0.47187 0.56027 0.82883 0.0
C182 C 0.49195 0.55373 0.82654 0.0
C183 C 0.49558 0.5341 0.82009 0.0
C184 C 0.47846 0.52151 0.81554 0.0
C185 C 0.45838 0.52797 0.81801 0.0
H186 H 0.53527 0.95681 0.10118 0.0
N187 N 0.51486 0.98493 0.08502 0.0
H188 H 0.53068 0.95153 0.1256 0.0
H189 H 0.49233 0.00745 0.10249 0.0
H190 H 0.48751 0.00205 0.12728 0.0
H191 H 0.47687 0.9798 0.07355 0.0
H192 H 0.46152 0.94823 0.06219 0.0
H193 H 0.536 0.94995 0.07722 0.0
H194 H 0.52061 0.91783 0.06709 0.0
H195 H 0.55643 0.97826 0.09069 0.0
H196 H 0.51277 0.01582 0.0681 0.0
H197 H 0.58473 0.99854 0.08322 0.0
H198 H 0.54128 0.03575 0.05987 0.0
H199 H 0.6757 0.06815 0.06914 0.0
H200 H 0.69406 0.07888 0.09158 0.0
H201 H 0.63596 0.09567 0.10875 0.0
H202 H 0.61786 0.08535 0.08648 0.0
H203 H 0.61953 0.10914 0.06651 0.0
H204 H 0.62473 0.13809 0.05204 0.0
H205 H 0.65692 0.09816 0.02303 0.0
H206 H 0.65148 0.06899 0.03763 0.0
H207 H 0.63408 0.02924 0.06114 0.0
H208 H 0.60452 0.00693 0.06451 0.0
H209 H 0.56584 0.06089 0.06858 0.0
N210 N 0.63538 0.07017 0.06251 0.0
H211 H 0.59501 0.08274 0.06453 0.0
C212 C 0.51429 0.9828 0.09992 0.0
C213 C 0.5252 0.96718 0.10674 0.0
C214 C 0.52255 0.96412 0.12081 0.0
C215 C 0.50878 0.9764 0.12839 0.0
C216 C 0.49817 0.99228 0.12168 0.0
C217 C 0.50099 0.99547 0.10759 0.0
C218 C 0.50738 0.96714 0.07648 0.0
C219 C 0.48654 0.96641 0.07182 0.0
C220 C 0.47777 0.94823 0.06551 0.0
C221 C 0.48962 0.93016 0.06403 0.0
C222 C 0.5109 0.93133 0.06797 0.0
C223 C 0.51974 0.94971 0.07397 0.0
C224 C 0.53228 0.99576 0.08018 0.0
C225 C 0.55283 0.99076 0.08404 0.0
C226 C 0.56916 0.00231 0.07956 0.0
C227 C 0.56539 0.01891 0.07095 0.0
C228 C 0.54482 0.02337 0.06671 0.0
C229 C 0.52849 0.01194 0.07132 0.0
C230 C 0.64542 0.07559 0.0761 0.0
C231 C 0.66697 0.074 0.0778 0.0
C232 C 0.6774 0.08022 0.09056 0.0
C233 C 0.66639 0.08798 0.1019 0.0
C234 C 0.6448 0.08944 0.10024 0.0
C235 C 0.63442 0.08349 0.08745 0.0
C236 C 0.63502 0.08674 0.05308 0.0
C237 C 0.62709 0.10635 0.05682 0.0
C238 C 0.6301 0.12297 0.04852 0.0
C239 C 0.64129 0.12042 0.03641 0.0
C240 C 0.64835 0.10061 0.03235 0.0
C241 C 0.64516 0.08394 0.0406 0.0
C242 C 0.61694 0.05764 0.06262 0.0
C243 C 0.61908 0.03614 0.06246 0.0
C244 C 0.60221 0.02346 0.06455 0.0
C245 C 0.58278 0.03208 0.06703 0.0
C246 C 0.58045 0.05361 0.06657 0.0
C247 C 0.59729 0.06625 0.06431 0.0
H248 H 0.12052 0.59866 0.95053 0.0
N249 N 0.08999 0.60317 0.96772 0.0
H250 H 0.1277 0.61954 0.93079 0.0
H251 H 0.06706 0.63602 0.95849 0.0
H252 H 0.07377 0.65624 0.93858 0.0
H253 H 0.09495 0.64111 0.98153 0.0
H254 H 0.12202 0.65061 -0.00032 0.0
H255 H 0.11367 0.57748 0.9819 0.0
H256 H 0.14017 0.58657 0.0005 0.0
H257 H 0.07545 0.56584 0.95981 0.0
H258 H 0.05852 0.62378 0.98011 0.0
H259 H 0.04034 0.55286 0.96108 0.0
H260 H 0.02281 0.6119 0.98024 0.0
H261 H 0.94143 0.52019 0.95117 0.0
H262 H 0.92517 0.51092 0.9282 0.0
H263 H 0.90773 0.57446 0.92365 0.0
H264 H 0.92377 0.58378 0.94715 0.0
H265 H 0.90706 0.56373 0.978 0.0
H266 H 0.88927 0.5382 0.9908 0.0
H267 H 0.94165 0.49757 0.98773 0.0
H268 H 0.95938 0.52325 0.97496 0.0
H269 H 0.97293 0.54495 0.94806 0.0
H270 H 0.00854 0.55553 0.95015 0.0
H271 H 0.99769 0.59158 0.98846 0.0
N272 N 0.94195 0.5585 0.96513 0.0
H273 H 0.96113 0.5822 0.98559 0.0
C274 C 0.0931 0.61539 0.95588 0.0
C275 C 0.11025 0.61119 0.94795 0.0
C276 C 0.11438 0.62315 0.93677 0.0
C277 C 0.10122 0.6394 0.93319 0.0
C278 C 0.08402 0.64366 0.94109 0.0
C279 C 0.08014 0.63196 0.95246 0.0
C280 C 0.10268 0.60861 0.98022 0.0
C281 C 0.10455 0.62911 0.98581 0.0
C282 C 0.11996 0.63448 0.99626 0.0
C283 C 0.13355 0.6194 0.00136 0.0
C284 C 0.13033 0.59864 0.99656 0.0
C285 C 0.11511 0.59337 0.98604 0.0
C286 C 0.06941 0.59585 0.96951 0.0
C287 C 0.06399 0.5758 0.96443 0.0
C288 C 0.04381 0.56854 0.96503 0.0
C289 C 0.02836 0.58144 0.97043 0.0
C290 C 0.03412 0.60137 0.97606 0.0
C291 C 0.05453 0.60837 0.97581 0.0
C292 C 0.9335 0.55276 0.95109 0.0
C293 C 0.93391 0.5322 0.94544 0.0
C294 C 0.92463 0.52687 0.93224 0.0
C295 C 0.91494 0.54192 0.92426 0.0
C296 C 0.91505 0.56257 0.92964 0.0
C297 C 0.92417 0.56789 0.94301 0.0
C298 C 0.93439 0.54539 0.97541 0.0
C299 C 0.91496 0.54962 0.98052 0.0
C300 C 0.90485 0.53501 0.98784 0.0
C301 C 0.91399 0.51578 0.99013 0.0
C302 C 0.93416 0.51217 0.98598 0.0
C303 C 0.94435 0.5269 0.97876 0.0
C304 C 0.96391 0.56303 0.9666 0.0
C305 C 0.97789 0.5552 0.95692 0.0
C306 C 0.99865 0.56111 0.95825 0.0
C307 C 0.00629 0.57449 0.9695 0.0
C308 C 0.99245 0.58165 0.97947 0.0
C309 C 0.97153 0.57613 0.97793 0.0
H310 H 0.61091 0.42547 0.20816 0.0
N311 N 0.62148 0.4625 0.22197 0.0
H312 H 0.61639 0.4154 0.18371 0.0
H313 H 0.6363 0.48583 0.20296 0.0
H314 H 0.64118 0.47621 0.1783 0.0
H315 H 0.66129 0.45817 0.22859 0.0
H316 H 0.678 0.43077 0.24125 0.0
H317 H 0.60159 0.43366 0.23677 0.0
H318 H 0.61807 0.40699 0.25014 0.0
H319 H 0.58231 0.44648 0.21743 0.0
H320 H 0.61706 0.5009 0.23236 0.0
H321 H 0.55017 0.46521 0.22001 0.0
H322 H 0.58504 0.52031 0.23414 0.0
H323 H 0.45285 0.54705 0.21311 0.0
H324 H 0.43999 0.55788 0.19022 0.0
H325 H 0.5029 0.56272 0.17797 0.0
H326 H 0.51547 0.55342 0.20111 0.0
H327 H 0.51871 0.57803 0.22136 0.0
H328 H 0.51517 0.61281 0.23197 0.0
H329 H 0.46358 0.59218 0.25428 0.0
H330 H 0.46667 0.55756 0.24296 0.0
H331 H 0.50022 0.51093 0.20744 0.0
H332 H 0.53091 0.48983 0.20867 0.0
H333 H 0.55433 0.52667 0.24529 0.0
N334 N 0.49199 0.54565 0.22319 0.0
H335 H 0.52426 0.5485 0.24363 0.0
C336 C 0.62345 0.45639 0.20739 0.0
C337 C 0.61749 0.43663 0.2017 0.0
C338 C 0.62051 0.43094 0.18767 0.0
C339 C 0.62936 0.44494 0.17903 0.0
C340 C 0.63472 0.46489 0.1847 0.0
C341 C 0.63183 0.47049 0.19875 0.0
C342 C 0.63023 0.44814 0.23163 0.0
C343 C 0.65179 0.44723 0.23349 0.0
C344 C 0.66131 0.43155 0.24083 0.0
C345 C 0.64945 0.41645 0.24673 0.0
C346 C 0.62776 0.41803 0.24551 0.0
C347 C 0.61824 0.43355 0.23792 0.0
C348 C 0.60215 0.47227 0.22493 0.0
C349 C 0.58303 0.46241 0.22148 0.0
C350 C 0.5646 0.4733 0.22276 0.0
C351 C 0.56487 0.49442 0.22716 0.0
C352 C 0.58407 0.50402 0.23094 0.0
C353 C 0.60245 0.493 0.22989 0.0
C354 C 0.48504 0.54921 0.20886 0.0
C355 C 0.46379 0.55023 0.20538 0.0
C356 C 0.45649 0.55636 0.19224 0.0
C357 C 0.47037 0.56136 0.18217 0.0
C358 C 0.4917 0.55952 0.18551 0.0
C359 C 0.49896 0.55388 0.19874 0.0
C360 C 0.49274 0.56523 0.23127 0.0
C361 C 0.50677 0.58095 0.22863 0.0
C362 C 0.50482 0.60084 0.23483 0.0
C363 C 0.48891 0.60543 0.24388 0.0
C364 C 0.47572 0.58933 0.24713 0.0
C365 C 0.47758 0.56949 0.24082 0.0
C366 C 0.51025 0.53263 0.22465 0.0
C367 C 0.51212 0.5149 0.21557 0.0
C368 C 0.52963 0.50247 0.21646 0.0
C369 C 0.54546 0.50674 0.22691 0.0
C370 C 0.54289 0.52337 0.23674 0.0
C371 C 0.52551 0.53603 0.23572 0.0
H372 H 0.47228 0.04103 0.45547 0.0
N373 N 0.50539 0.03727 0.47296 0.0
H374 H 0.46354 0.02074 0.43342 0.0
H375 H 0.52744 0.00493 0.46167 0.0
H376 H 0.51894 0.98489 0.43984 0.0
H377 H 0.50134 0.99689 0.48014 0.0
H378 H 0.48167 0.98534 0.49877 0.0
H379 H 0.49259 0.06031 0.49462 0.0
H380 H 0.47462 0.0488 0.51444 0.0
H381 H 0.51611 0.07314 0.46358 0.0
H382 H 0.54087 0.02081 0.48444 0.0
H383 H 0.55109 0.08591 0.46093 0.0
H384 H 0.57599 0.03296 0.48137 0.0
H385 H 0.63856 0.11365 0.4432 0.0
H386 H 0.64511 0.12509 0.42001 0.0
H387 H 0.67081 0.06526 0.409 0.0
H388 H 0.66359 0.05386 0.4321 0.0
H389 H 0.68667 0.06388 0.45935 0.0
H390 H 0.71428 0.08349 0.47248 0.0
H391 H 0.671 0.13206 0.48243 0.0
H392 H 0.64369 0.11256 0.46869 0.0
H393 H 0.61095 0.08036 0.43811 0.0
H394 H 0.57708 0.07361 0.44569 0.0
H395 H 0.60329 0.05856 0.48627 0.0
N396 N 0.6484 0.07605 0.45328 0.0
H397 H 0.63782 0.06503 0.47861 0.0
C398 C 0.50059 0.02481 0.46015 0.0
C399 C 0.48248 0.02879 0.45207 0.0
C400 C 0.47749 0.01714 0.43955 0.0
C401 C 0.49066 0.00134 0.43486 0.0
C402 C 0.50869 0.99721 0.44305 0.0
C403 C 0.51358 0.00874 0.45557 0.0
C404 C 0.49779 0.02966 0.48559 0.0
C405 C 0.4956 0.00843 0.48751 0.0
C406 C 0.48448 0.00175 0.49846 0.0
C407 C 0.4759 0.01607 0.50811 0.0
C408 C 0.48011 0.03723 0.50697 0.0
C409 C 0.49067 0.04391 0.49574 0.0
C410 C 0.52592 0.04602 0.47405 0.0
C411 C 0.52915 0.06464 0.46781 0.0
C412 C 0.54913 0.07177 0.46619 0.0
C413 C 0.56636 0.06025 0.47068 0.0
C414 C 0.5631 0.04226 0.47783 0.0
C415 C 0.54303 0.03524 0.47956 0.0
C416 C 0.65054 0.0828 0.43932 0.0
C417 C 0.64546 0.10298 0.43574 0.0
C418 C 0.64931 0.10952 0.42249 0.0
C419 C 0.65854 0.09613 0.41261 0.0
C420 C 0.66336 0.07589 0.41622 0.0
C421 C 0.65934 0.06933 0.42942 0.0
C422 C 0.6632 0.08667 0.46305 0.0
C423 C 0.68312 0.07858 0.4646 0.0
C424 C 0.69885 0.08983 0.47218 0.0
C425 C 0.69495 0.10945 0.47853 0.0
C426 C 0.67467 0.11717 0.47749 0.0
C427 C 0.65897 0.10597 0.46975 0.0
C428 C 0.62752 0.07425 0.45796 0.0
C429 C 0.60984 0.0763 0.44882 0.0
C430 C 0.59014 0.07236 0.45317 0.0
C431 C 0.58737 0.06589 0.46668 0.0
C432 C 0.60486 0.06362 0.47581 0.0
C433 C 0.62464 0.06756 0.47146 0.0
H434 H 0.10506 0.01859 0.70287 0.0
N435 N 0.11909 0.04186 0.72511 0.0
H436 H 0.12173 0.01178 0.6808 0.0
H437 H 0.15592 0.05811 0.71833 0.0
H438 H 0.17264 0.0516 0.69629 0.0
H439 H 0.1557 0.04497 0.74094 0.0
H440 H 0.16906 0.01997 0.75717 0.0
H441 H 0.09892 0.01023 0.73416 0.0
H442 H 0.11236 0.98466 0.75 0.0
H443 H 0.08056 0.05342 0.71966 0.0
H444 H 0.13957 0.07607 0.73726 0.0
H445 H 0.06661 0.08834 0.72168 0.0
H446 H 0.12571 0.11099 0.73965 0.0
H447 H 0.03902 0.15528 0.70487 0.0
H448 H 0.02752 0.1593 0.68044 0.0
H449 H 0.06176 0.21665 0.68113 0.0
H450 H 0.07318 0.21253 0.70566 0.0
H451 H 0.06973 0.2174 0.73774 0.0
H452 H 0.04435 0.24108 0.74726 0.0
H453 H 0.99592 0.19662 0.73454 0.0
H454 H 0.02112 0.17419 0.7239 0.0
H455 H 0.04229 0.15053 0.73319 0.0
H456 H 0.0566 0.11671 0.737 0.0
H457 H 0.11546 0.13706 0.72372 0.0
N458 N 0.06226 0.18304 0.72189 0.0
H459 H 0.10108 0.17127 0.72023 0.0
C460 C 0.1292 0.03877 0.7122 0.0
C461 C 0.11977 0.02587 0.70143 0.0
C462 C 0.12927 0.02211 0.68884 0.0
C463 C 0.1485 0.0312 0.68678 0.0
C464 C 0.15794 0.04421 0.69761 0.0
C465 C 0.14835 0.04801 0.71021 0.0
C466 C 0.1262 0.02947 0.73637 0.0
C467 C 0.1459 0.03222 0.74316 0.0
C468 C 0.15362 0.01774 0.75236 0.0
C469 C 0.14189 0.00015 0.75483 0.0
C470 C 0.12176 0.9981 0.74854 0.0
C471 C 0.11405 0.01264 0.73943 0.0
C472 C 0.11101 0.06211 0.72829 0.0
C473 C 0.09035 0.06591 0.72426 0.0
C474 C 0.0824 0.08586 0.7255 0.0
C475 C 0.09504 0.10253 0.73082 0.0
C476 C 0.11562 0.09855 0.73535 0.0
C477 C 0.12356 0.07852 0.73408 0.0
C478 C 0.05709 0.18363 0.70707 0.0
C479 C 0.04435 0.16854 0.69973 0.0
C480 C 0.03781 0.17083 0.68574 0.0
C481 C 0.04368 0.18834 0.67891 0.0
C482 C 0.05683 0.20311 0.68618 0.0
C483 C 0.06348 0.20073 0.70011 0.0
C484 C 0.04757 0.19384 0.73035 0.0
C485 C 0.05369 0.2126 0.73737 0.0
C486 C 0.03905 0.22612 0.74284 0.0
C487 C 0.01786 0.221 0.74159 0.0
C488 C 0.01195 0.20144 0.73544 0.0
C489 C 0.02654 0.18822 0.72962 0.0
C490 C 0.07061 0.16368 0.72632 0.0
C491 C 0.05833 0.14806 0.73129 0.0
C492 C 0.06655 0.12851 0.73342 0.0
C493 C 0.08713 0.12404 0.73054 0.0
C494 C 0.09962 0.13996 0.72621 0.0
C495 C 0.09141 0.15951 0.72416 0.0
O496 O 0.37583 0.68103 0.0087 0.0
Cd497 Cd 0.36765 0.69639 0.02709 0.0
Cd498 Cd 0.4037 0.68043 0.03683 0.0
O499 O 0.40339 0.6653 0.01733 0.0
O500 O 0.33795 0.70293 0.0236 0.0
O501 O 0.34924 0.68191 0.03968 0.0
C502 C 0.3339 0.69067 0.0332 0.0
C503 C 0.4099 0.66111 0.05637 0.0
C504 C 0.39068 0.66853 0.00711 0.0
C505 C 0.40085 0.7267 0.03712 0.0
O506 O 0.41245 0.71115 0.03865 0.0
O507 O 0.38188 0.72423 0.03326 0.0
O508 O 0.42463 0.66629 0.04878 0.0
O509 O 0.39136 0.66683 0.05279 0.0
O510 O 0.43308 0.87053 0.30245 0.0
Cd511 Cd 0.42239 0.85698 0.2833 0.0
Cd512 Cd 0.46071 0.86646 0.27603 0.0
O513 O 0.46334 0.88064 0.29588 0.0
O514 O 0.39182 0.85514 0.28403 0.0
O515 O 0.40735 0.87565 0.27016 0.0
C516 C 0.39049 0.86898 0.27491 0.0
C517 C 0.46672 0.88586 0.25697 0.0
C518 C 0.45018 0.88 0.30517 0.0
C519 C 0.4496 0.8216 0.27435 0.0
O520 O 0.46396 0.83483 0.27371 0.0
O521 O 0.43162 0.8274 0.2774 0.0
O522 O 0.48178 0.87908 0.26481 0.0
O523 O 0.44809 0.88166 0.26004 0.0
O524 O 0.25483 0.9204 0.51133 0.0
Cd525 Cd 0.26299 0.90979 0.53085 0.0
Cd526 Cd 0.22835 0.92862 0.53763 0.0
O527 O 0.23003 0.94091 0.51843 0.0
O528 O 0.29348 0.90569 0.53175 0.0
O529 O 0.27798 0.93004 0.54445 0.0
C530 C 0.29488 0.92155 0.54057 0.0
C531 C 0.22223 0.95005 0.5574 0.0
C532 C 0.2414 0.93416 0.50884 0.0
C533 C 0.2291 0.88235 0.53799 0.0
O534 O 0.21811 0.89853 0.53769 0.0
O535 O 0.24848 0.88347 0.53677 0.0
O536 O 0.20778 0.94546 0.54789 0.0
O537 O 0.24044 0.94277 0.55554 0.0
O538 O 0.18042 0.7541 0.75958 0.0
Cd539 Cd 0.19882 0.76198 0.77748 0.0
Cd540 Cd 0.17786 0.73025 0.78756 0.0
O541 O 0.1601 0.7324 0.76921 0.0
O542 O 0.21036 0.78959 0.77418 0.0
O543 O 0.18849 0.78465 0.79056 0.0
C544 C 0.19931 0.79724 0.78395 0.0
C545 C 0.16116 0.72592 0.8081 0.0
C546 C 0.16468 0.74226 0.75875 0.0
C547 C 0.22334 0.72467 0.78458 0.0
O548 O 0.20611 0.71606 0.78627 0.0
O549 O 0.22413 0.74369 0.7821 0.0
O550 O 0.16121 0.71154 0.79823 0.0
O551 O 0.17044 0.74313 0.80629 0.0
O552 O 0.93461 0.23662 0.54167 0.0
Cd553 Cd 0.91859 0.24526 0.52362 0.0
Cd554 Cd 0.93443 0.20918 0.51306 0.0
O555 O 0.94866 0.20824 0.53275 0.0
O556 O 0.91057 0.2744 0.52788 0.0
O557 O 0.93235 0.26531 0.51172 0.0
C558 C 0.92263 0.2797 0.51848 0.0
C559 C 0.9546 0.20353 0.49388 0.0
C560 C 0.94627 0.22105 0.54307 0.0
C561 C 0.88828 0.21213 0.51275 0.0
O562 O 0.90377 0.20071 0.51057 0.0
O563 O 0.89082 0.23077 0.51741 0.0
O564 O 0.94879 0.18853 0.50101 0.0
O565 O 0.949 0.22202 0.4977 0.0
O566 O 0.85316 0.43591 0.78467 0.0
Cd567 Cd 0.847 0.41999 0.76549 0.0
Cd568 Cd 0.87977 0.44212 0.75868 0.0
O569 O 0.87481 0.45846 0.77722 0.0
O570 O 0.81884 0.40823 0.76656 0.0
O571 O 0.82596 0.4325 0.75224 0.0
C572 C 0.81246 0.42083 0.75735 0.0
C573 C 0.88634 0.4604 0.73913 0.0
C574 C 0.86415 0.45218 0.78685 0.0
C575 C 0.88489 0.39625 0.7593 0.0
O576 O 0.89391 0.41372 0.75969 0.0
O577 O 0.86543 0.39518 0.76007 0.0
O578 O 0.89976 0.45941 0.74953 0.0
O579 O 0.86877 0.4512 0.73989 0.0
O580 O 0.70009 0.36814 0.03919 0.0
Cd581 Cd 0.7132 0.35752 0.02111 0.0
Cd582 Cd 0.69408 0.39102 0.01018 0.0
O583 O 0.68201 0.39303 0.02971 0.0
O584 O 0.72055 0.32818 0.02358 0.0
O585 O 0.69626 0.33776 0.00807 0.0
C586 C 0.70631 0.32314 0.01401 0.0
C587 C 0.67237 0.39794 0.99067 0.0
C588 C 0.68711 0.3827 0.04024 0.0
C589 C 0.74078 0.38981 0.01119 0.0
O590 O 0.72438 0.39993 0.0086 0.0
O591 O 0.73984 0.37194 0.01587 0.0
O592 O 0.67826 0.41225 -4e-05 0.0
O593 O 0.67836 0.3793 0.99261 0.0
O594 O 0.76379 0.1837 0.23767 0.0
Cd595 Cd 0.77369 0.19791 0.25678 0.0
Cd596 Cd 0.76304 0.16195 0.26684 0.0
O597 O 0.75051 0.15648 0.24668 0.0
O598 O 0.77359 0.22829 0.25479 0.0
O599 O 0.75229 0.21244 0.26799 0.0
C600 C 0.75854 0.22931 0.26302 0.0
C601 C 0.74284 0.15514 0.28541 0.0
C602 C 0.75361 0.16685 0.23614 0.0
C603 C 0.80799 0.17328 0.26955 0.0
O604 O 0.79459 0.15912 0.27039 0.0
O605 O 0.80262 0.19069 0.26517 0.0
O606 O 0.75057 0.14044 0.27775 0.0
O607 O 0.7464 0.17394 0.28242 0.0
C608 C 0.21905 0.94265 0.28311 0.0
C609 C 0.22196 0.96212 0.29031 0.0
C610 C 0.23568 0.93215 0.27742 0.0
C611 C 0.28817 0.93677 0.2659 0.0
H612 H 0.29844 0.88522 0.2835 0.0
C613 C 0.3687 0.89922 0.26894 0.0
C614 C 0.3703 0.87806 0.27106 0.0
C615 C 0.34932 0.9086 0.26792 0.0
C616 C 0.2957 0.89923 0.2781 0.0
H617 H 0.24475 0.98615 0.29642 0.0
H618 H 0.27343 0.96813 0.28599 0.0
H619 H 0.26653 0.90353 0.28717 0.0
H620 H 0.35309 0.84971 0.27256 0.0
H621 H 0.31929 0.86564 0.26978 0.0
H622 H 0.31719 0.93247 0.25667 0.0
C623 C 0.25823 0.96103 0.28488 0.0
C624 C 0.27736 0.9098 0.28031 0.0
C625 C 0.2417 0.97137 0.29082 0.0
C626 C 0.35223 0.86613 0.27109 0.0
C627 C 0.33286 0.87536 0.26966 0.0
C628 C 0.30636 0.92595 0.2634 0.0
C629 C 0.25548 0.94109 0.27852 0.0
C630 C 0.27364 0.92886 0.2745 0.0
C631 C 0.3311 0.89689 0.26867 0.0
C632 C 0.31064 0.90725 0.26975 0.0
H633 H 0.20402 0.93522 0.28216 0.0
H634 H 0.23319 0.91682 0.27246 0.0
H635 H 0.28555 0.95144 0.26125 0.0
H636 H 0.38245 0.90877 0.26898 0.0
H637 H 0.34879 0.9252 0.26734 0.0
C638 C 0.11435 0.73591 0.54362 0.0
C639 C 0.11697 0.72398 0.55539 0.0
C640 C 0.12928 0.75042 0.54078 0.0
C641 C 0.17305 0.78074 0.55878 0.0
H642 H 0.17927 0.79868 0.52135 0.0
C643 C 0.22969 0.84568 0.5451 0.0
C644 C 0.21895 0.86217 0.53921 0.0
C645 C 0.21962 0.82682 0.54647 0.0
C646 C 0.17777 0.79367 0.53184 0.0
H647 H 0.13815 0.71758 0.57304 0.0
H648 H 0.16462 0.74161 0.56751 0.0
H649 H 0.15804 0.76836 0.52454 0.0
H650 H 0.18956 0.87169 0.52975 0.0
H651 H 0.17227 0.83859 0.53175 0.0
H652 H 0.19314 0.80602 0.56593 0.0
C653 C 0.15064 0.74039 0.56076 0.0
C654 C 0.16545 0.77643 0.53371 0.0
C655 C 0.13551 0.72621 0.56378 0.0
C656 C 0.19818 0.85931 0.53442 0.0
C657 C 0.18832 0.84036 0.53546 0.0
C658 C 0.18572 0.79768 0.55685 0.0
C659 C 0.1475 0.75314 0.54946 0.0
C660 C 0.16248 0.77002 0.54725 0.0
C661 C 0.19889 0.82404 0.5416 0.0
C662 C 0.18778 0.80455 0.5434 0.0
H663 H 0.10053 0.73439 0.53672 0.0
H664 H 0.12609 0.76001 0.53205 0.0
H665 H 0.17094 0.77664 0.56939 0.0
H666 H 0.2457 0.8475 0.54889 0.0
H667 H 0.22801 0.8144 0.55127 0.0
C668 C 0.38337 0.62565 0.80021 0.0
C669 C 0.37944 0.60433 0.79783 0.0
C670 C 0.3683 0.64008 0.79664 0.0
C671 C 0.31694 0.64579 0.77735 0.0
H672 H 0.31111 0.69132 0.80495 0.0
C673 C 0.24118 0.69053 0.78384 0.0
C674 C 0.24243 0.71222 0.78508 0.0
C675 C 0.25909 0.67864 0.78398 0.0
C676 C 0.3127 0.67884 0.79707 0.0
H677 H 0.35695 0.58166 0.78892 0.0
H678 H 0.33041 0.60666 0.78331 0.0
H679 H 0.34048 0.66822 0.8073 0.0
H680 H 0.26347 0.73843 0.78754 0.0
H681 H 0.29485 0.7175 0.78812 0.0
H682 H 0.2885 0.65598 0.76757 0.0
C683 C 0.34524 0.61233 0.78774 0.0
C684 C 0.3296 0.66562 0.79835 0.0
C685 C 0.36041 0.59791 0.79116 0.0
C686 C 0.262 0.72175 0.78655 0.0
C687 C 0.27994 0.70981 0.78691 0.0
C688 C 0.2999 0.65885 0.7762 0.0
C689 C 0.34881 0.6336 0.79074 0.0
C690 C 0.33181 0.64874 0.78861 0.0
C691 C 0.27863 0.68814 0.78555 0.0
C692 C 0.29749 0.67533 0.78614 0.0
H693 H 0.39775 0.63124 0.80543 0.0
H694 H 0.3718 0.65633 0.79883 0.0
H695 H 0.31831 0.63325 0.76949 0.0
H696 H 0.22635 0.68269 0.78263 0.0
H697 H 0.25764 0.66195 0.78307 0.0
C698 C 0.49025 0.8944 0.05202 0.0
C699 C 0.47957 0.90993 0.05947 0.0
C700 C 0.48136 0.87485 0.04894 0.0
C701 C 0.43945 0.84117 0.06018 0.0
H702 H 0.45147 0.8078 0.02674 0.0
C703 C 0.39671 0.76478 0.04211 0.0
C704 C 0.40961 0.74778 0.0395 0.0
C705 C 0.40505 0.7847 0.04426 0.0
C706 C 0.44807 0.81697 0.03614 0.0
H707 H 0.45076 0.91686 0.06923 0.0
H708 H 0.43489 0.88356 0.06302 0.0
H709 H 0.46585 0.84267 0.03047 0.0
H710 H 0.44129 0.73835 0.03691 0.0
H711 H 0.45574 0.77329 0.04036 0.0
H712 H 0.42115 0.81555 0.06556 0.0
C713 C 0.45045 0.88617 0.05997 0.0
C714 C 0.45638 0.83691 0.03834 0.0
C715 C 0.45946 0.90554 0.06329 0.0
C716 C 0.43098 0.75113 0.03896 0.0
C717 C 0.43924 0.7711 0.04084 0.0
C718 C 0.43086 0.82141 0.05784 0.0
C719 C 0.46141 0.87039 0.05302 0.0
C720 C 0.45226 0.84927 0.05043 0.0
C721 C 0.42636 0.78803 0.04357 0.0
C722 C 0.43517 0.80911 0.04585 0.0
H723 H 0.50561 0.89722 0.04869 0.0
H724 H 0.49041 0.86311 0.04367 0.0
H725 H 0.43629 0.84991 0.06979 0.0
H726 H 0.3802 0.76267 0.0426 0.0
H727 H 0.39481 0.79756 0.0463 0.0
C728 C 0.15205 0.64155 0.02082 0.0
C729 C 0.15239 0.62549 0.0103 0.0
C730 C 0.1704 0.64853 0.02807 0.0
C731 C 0.21244 0.66992 0.03259 0.0
H732 H 0.25871 0.63317 0.03873 0.0
C733 C 0.29604 0.69542 0.02835 0.0
C734 C 0.31221 0.68593 0.03593 0.0
C735 C 0.2756 0.68933 0.02948 0.0
C736 C 0.24593 0.64372 0.0374 0.0
H737 H 0.17236 0.60411 0.99928 0.0
H738 H 0.204 0.61616 0.01178 0.0
H739 H 0.22426 0.61881 0.03351 0.0
H740 H 0.3195 0.66343 0.05131 0.0
H741 H 0.28363 0.65291 0.05345 0.0
H742 H 0.23416 0.69483 0.03636 0.0
C743 C 0.18962 0.62311 0.01473 0.0
C744 C 0.22618 0.63545 0.03422 0.0
C745 C 0.17138 0.61617 0.00752 0.0
C746 C 0.30739 0.67094 0.04526 0.0
C747 C 0.28685 0.66485 0.04643 0.0
C748 C 0.23218 0.67821 0.03588 0.0
C749 C 0.18945 0.63959 0.02493 0.0
C750 C 0.20936 0.64841 0.03118 0.0
C751 C 0.27074 0.67363 0.03829 0.0
C752 C 0.24931 0.66518 0.03774 0.0
H753 H 0.13766 0.64893 0.02331 0.0
H754 H 0.1697 0.66113 0.03597 0.0
H755 H 0.19988 0.68039 0.03032 0.0
H756 H 0.29919 0.70706 0.02109 0.0
H757 H 0.26372 0.69624 0.02288 0.0
C758 C 0.50167 0.64102 0.25242 0.0
C759 C 0.48515 0.62717 0.24899 0.0
C760 C 0.49797 0.66187 0.25595 0.0
C761 C 0.45743 0.7015 0.25164 0.0
H762 H 0.49192 0.73348 0.27951 0.0
C763 C 0.43758 0.78479 0.27062 0.0
C764 C 0.45383 0.79931 0.27169 0.0
C765 C 0.44155 0.76375 0.26819 0.0
C766 C 0.48226 0.72476 0.27162 0.0
H767 H 0.45171 0.62449 0.2469 0.0
H768 H 0.44531 0.66047 0.25361 0.0
H769 H 0.49843 0.69664 0.27518 0.0
H770 H 0.48704 0.80304 0.27113 0.0
H771 H 0.49392 0.76627 0.26693 0.0
H772 H 0.44115 0.72958 0.24819 0.0
C773 C 0.46116 0.65535 0.25326 0.0
C774 C 0.486 0.70366 0.26912 0.0
C775 C 0.46485 0.63458 0.24964 0.0
C776 C 0.47415 0.79228 0.27034 0.0
C777 C 0.47813 0.77121 0.26803 0.0
C778 C 0.45361 0.72252 0.25422 0.0
C779 C 0.47766 0.66936 0.25622 0.0
C780 C 0.47363 0.69176 0.25909 0.0
C781 C 0.46186 0.75673 0.26689 0.0
C782 C 0.46598 0.73439 0.26422 0.0
H783 H 0.5175 0.63582 0.25221 0.0
H784 H 0.51107 0.67221 0.25808 0.0
H785 H 0.44786 0.69296 0.24362 0.0
H786 H 0.42175 0.78965 0.27162 0.0
H787 H 0.42871 0.75293 0.26749 0.0
C788 C 0.44426 0.02182 0.52192 0.0
C789 C 0.46085 0.0091 0.51817 0.0
C790 C 0.42828 0.01425 0.52936 0.0
C791 C 0.41003 0.9675 0.54689 0.0
H792 H 0.35661 0.98683 0.53298 0.0
C793 C 0.33352 0.92065 0.54166 0.0
C794 C 0.31523 0.93113 0.5447 0.0
C795 C 0.35251 0.93105 0.54293 0.0
C796 C 0.3714 0.98151 0.53719 0.0
H797 H 0.47431 0.9788 0.52077 0.0
H798 H 0.44573 0.96513 0.53255 0.0
H799 H 0.38763 0.00379 0.52659 0.0
H800 H 0.3027 0.96032 0.55244 0.0
H801 H 0.33587 0.97857 0.55436 0.0
H802 H 0.39329 0.94405 0.55654 0.0
C803 C 0.44521 0.98117 0.53002 0.0
C804 C 0.38932 0.99132 0.53359 0.0
C805 C 0.46154 0.98895 0.52294 0.0
C806 C 0.3165 0.95182 0.54999 0.0
C807 C 0.33546 0.96229 0.55105 0.0
C808 C 0.39202 0.95738 0.55025 0.0
C809 C 0.42797 0.99351 0.5329 0.0
C810 C 0.40897 0.98432 0.5382 0.0
C811 C 0.35351 0.95218 0.54709 0.0
C812 C 0.37256 0.96417 0.54527 0.0
H813 H 0.44285 0.03738 0.5185 0.0
H814 H 0.41572 0.02454 0.53181 0.0
H815 H 0.42478 0.96185 0.55089 0.0
H816 H 0.33303 0.90468 0.53763 0.0
H817 H 0.36618 0.92292 0.53973 0.0
C818 C 0.13929 0.97106 0.77101 0.0
C819 C 0.15123 0.98292 0.76261 0.0
C820 C 0.14721 0.95297 0.77649 0.0
C821 C 0.18503 0.91306 0.76783 0.0
H822 H 0.17251 0.89179 0.80338 0.0
C823 C 0.21257 0.83282 0.7812 0.0
C824 C 0.19776 0.8199 0.78638 0.0
C825 C 0.20945 0.8541 0.78114 0.0
C826 C 0.17607 0.8975 0.7934 0.0
H827 H 0.18134 0.98552 0.75407 0.0
H828 H 0.19526 0.95446 0.76394 0.0
H829 H 0.16233 0.92697 0.79814 0.0
H830 H 0.16866 0.81925 0.79636 0.0
H831 H 0.1629 0.85643 0.79594 0.0
H832 H 0.19812 0.88364 0.7628 0.0
C833 C 0.17962 0.95892 0.76607 0.0
C834 C 0.17025 0.91765 0.79041 0.0
C835 C 0.1717 0.97692 0.76056 0.0
C836 C 0.18037 0.82884 0.79233 0.0
C837 C 0.1771 0.85018 0.79211 0.0
C838 C 0.19078 0.89302 0.77079 0.0
C839 C 0.16726 0.94636 0.7737 0.0
C840 C 0.17457 0.9256 0.77753 0.0
C841 C 0.19128 0.86295 0.78606 0.0
C842 C 0.18628 0.88489 0.78357 0.0
H843 H 0.12358 0.9754 0.773 0.0
H844 H 0.13724 0.94365 0.7823 0.0
H845 H 0.18817 0.91845 0.75768 0.0
H846 H 0.22627 0.8264 0.77672 0.0
H847 H 0.22096 0.86353 0.77675 0.0
C848 C 0.64505 0.48737 0.77375 0.0
C849 C 0.63186 0.47511 0.78101 0.0
C850 C 0.66165 0.47853 0.76695 0.0
C851 C 0.69628 0.43471 0.77079 0.0
H852 H 0.72023 0.45418 0.7378 0.0
C853 C 0.77634 0.40743 0.75706 0.0
C854 C 0.79008 0.4231 0.75401 0.0
C855 C 0.7551 0.41092 0.75658 0.0
C856 C 0.71375 0.4486 0.74704 0.0
H857 H 0.62495 0.44368 0.78593 0.0
H858 H 0.65358 0.42824 0.7738 0.0
H859 H 0.68572 0.46559 0.74372 0.0
H860 H 0.79229 0.45422 0.74714 0.0
H861 H 0.75522 0.46061 0.74672 0.0
H862 H 0.72439 0.41853 0.77458 0.0
C863 C 0.65131 0.44476 0.77359 0.0
C864 C 0.69397 0.45511 0.75042 0.0
C865 C 0.63474 0.4536 0.78042 0.0
C866 C 0.78206 0.44184 0.74952 0.0
C867 C 0.76076 0.44546 0.74924 0.0
C868 C 0.71598 0.4283 0.76747 0.0
C869 C 0.66541 0.45722 0.76724 0.0
C870 C 0.68516 0.44849 0.76247 0.0
C871 C 0.7471 0.4303 0.75329 0.0
C872 C 0.72515 0.4354 0.75569 0.0
H873 H 0.64305 0.50395 0.77381 0.0
H874 H 0.67222 0.4886 0.7622 0.0
H875 H 0.6902 0.42964 0.78032 0.0
H876 H 0.78208 0.39271 0.76037 0.0
H877 H 0.745 0.39868 0.75937 0.0
C878 C 0.63343 0.15473 0.02642 0.0
C879 C 0.6475 0.13877 0.02906 0.0
C880 C 0.64013 0.17322 0.0213 0.0
C881 C 0.68584 0.2056 0.02365 0.0
H882 H 0.65786 0.23652 0.99482 0.0
C883 C 0.71562 0.28587 0.01318 0.0
C884 C 0.70079 0.30119 0.01089 0.0
C885 C 0.7099 0.26504 0.01238 0.0
C886 C 0.66576 0.22819 0.00299 0.0
H887 H 0.67946 0.12942 0.02793 0.0
H888 H 0.69113 0.16171 0.01908 0.0
H889 H 0.64576 0.20175 0.99898 0.0
H890 H 0.66853 0.3068 0.00536 0.0
H891 H 0.65826 0.27051 0.00461 0.0
H892 H 0.70508 0.23205 0.02834 0.0
C893 C 0.67493 0.15988 0.02093 0.0
C894 C 0.65887 0.20824 0.0053 0.0
C895 C 0.6682 0.14134 0.02589 0.0
C896 C 0.68029 0.29526 0.00711 0.0
C897 C 0.67445 0.2744 0.00663 0.0
C898 C 0.69251 0.22556 0.02151 0.0
C899 C 0.66107 0.17618 0.0189 0.0
C900 C 0.66884 0.1968 0.01569 0.0
C901 C 0.68909 0.25905 0.00967 0.0
C902 C 0.68255 0.23723 0.01119 0.0
H903 H 0.61736 0.15312 0.02869 0.0
H904 H 0.62914 0.18559 0.0199 0.0
H905 H 0.69357 0.19729 0.03192 0.0
H906 H 0.7316 0.29003 0.01594 0.0
H907 H 0.72178 0.25369 0.01431 0.0
C908 C 0.99332 0.15763 0.30109 0.0
C909 C 0.0003 0.13722 0.30208 0.0
C910 C 0.97286 0.16159 0.29674 0.0
C911 C 0.92526 0.13704 0.27948 0.0
H912 H 0.89838 0.18269 0.29895 0.0
C913 C 0.83683 0.14911 0.27559 0.0
C914 C 0.83002 0.16928 0.27335 0.0
C915 C 0.85773 0.14525 0.27873 0.0
C916 C 0.90573 0.17001 0.29334 0.0
H917 H 0.99128 0.10497 0.29872 0.0
H918 H 0.95544 0.11188 0.29165 0.0
H919 H 0.93466 0.17579 0.30476 0.0
H920 H 0.83983 0.20125 0.27282 0.0
H921 H 0.87628 0.19448 0.27845 0.0
H922 H 0.89604 0.13105 0.26831 0.0
C923 C 0.96586 0.12485 0.29404 0.0
C924 C 0.92656 0.16608 0.29662 0.0
C925 C 0.98639 0.12088 0.29827 0.0
C926 C 0.84455 0.18553 0.27448 0.0
C927 C 0.86541 0.18168 0.27776 0.0
C928 C 0.90436 0.14086 0.2763 0.0
C929 C 0.95876 0.14527 0.2934 0.0
C930 C 0.93662 0.14956 0.28971 0.0
C931 C 0.87223 0.16149 0.27984 0.0
C932 C 0.8944 0.1574 0.28319 0.0
H933 H 0.00346 0.17064 0.30409 0.0
H934 H 0.96806 0.17751 0.29613 0.0
H935 H 0.93255 0.12439 0.2738 0.0
H936 H 0.82606 0.13624 0.27478 0.0
H937 H 0.86253 0.12956 0.28042 0.0
C938 C 0.98718 0.4547 0.5318 0.0
C939 C 0.97393 0.46905 0.53821 0.0
C940 C 0.97961 0.43556 0.52618 0.0
C941 C 0.9388 0.39918 0.53249 0.0
H942 H 0.9567 0.3684 0.49948 0.0
C943 C 0.91094 0.31624 0.52028 0.0
C944 C 0.92584 0.30179 0.51625 0.0
C945 C 0.91489 0.33737 0.52006 0.0
C946 C 0.95165 0.37676 0.50877 0.0
H947 H 0.94211 0.47495 0.54296 0.0
H948 H 0.92892 0.44179 0.53296 0.0
H949 H 0.96719 0.4046 0.5041 0.0
H950 H 0.95616 0.29801 0.50814 0.0
H951 H 0.96347 0.33503 0.50823 0.0
H952 H 0.92405 0.37145 0.53761 0.0
C953 C 0.9452 0.44524 0.53244 0.0
C954 C 0.95761 0.39749 0.51139 0.0
C955 C 0.95274 0.46436 0.53804 0.0
C956 C 0.94439 0.30885 0.51129 0.0
C957 C 0.94852 0.33007 0.5113 0.0
C958 C 0.933 0.37853 0.52996 0.0
C959 C 0.95866 0.43036 0.52689 0.0
C960 C 0.9513 0.40888 0.52332 0.0
C961 C 0.93403 0.34459 0.51608 0.0
C962 C 0.9394 0.36697 0.51811 0.0
H963 H 0.00354 0.45797 0.53159 0.0
H964 H 0.99038 0.42441 0.522 0.0
H965 H 0.93409 0.40734 0.54196 0.0
H966 H 0.89636 0.31122 0.52394 0.0
H967 H 0.90311 0.34806 0.52341 0.0
C968 C 0.72907 0.11301 0.49241 0.0
C969 C 0.71232 0.12228 0.48524 0.0
C970 C 0.74659 0.12456 0.4971 0.0
C971 C 0.77384 0.17288 0.49002 0.0
H972 H 0.80909 0.15832 0.52201 0.0
C973 C 0.84995 0.21635 0.5089 0.0
C974 C 0.86719 0.20338 0.51033 0.0
C975 C 0.83004 0.20793 0.50683 0.0
C976 C 0.79935 0.16254 0.51306 0.0
H977 H 0.70062 0.15138 0.47803 0.0
H978 H 0.73064 0.1717 0.48687 0.0
H979 H 0.77542 0.14159 0.51749 0.0
H980 H 0.87706 0.17148 0.51088 0.0
H981 H 0.84226 0.15688 0.50753 0.0
H982 H 0.79785 0.19404 0.48579 0.0
C983 C 0.73053 0.15531 0.48846 0.0
C984 C 0.7801 0.1529 0.5104 0.0
C985 C 0.71311 0.14368 0.48359 0.0
C986 C 0.86411 0.18188 0.50974 0.0
C987 C 0.8442 0.17351 0.50794 0.0
C988 C 0.79295 0.18276 0.49283 0.0
C989 C 0.74774 0.14581 0.49495 0.0
C990 C 0.76726 0.15761 0.49867 0.0
C991 C 0.827 0.18645 0.50644 0.0
C992 C 0.80603 0.17737 0.50421 0.0
H993 H 0.72888 0.09665 0.49413 0.0
H994 H 0.75954 0.11659 0.50192 0.0
H995 H 0.76462 0.17672 0.48076 0.0
H996 H 0.85185 0.23298 0.5093 0.0
H997 H 0.81698 0.21821 0.50571 0.0
C998 C 0.00609 0.25206 0.7562 0.0
C999 C 0.00197 0.23669 0.74538 0.0
C1000 C 0.99212 0.2681 0.75858 0.0
C1001 C 0.94778 0.29426 0.74049 0.0
H1002 H 0.94382 0.32261 0.77701 0.0
C1003 C 0.88812 0.35841 0.75287 0.0
C1004 C 0.89721 0.37714 0.75827 0.0
C1005 C 0.89994 0.34043 0.7518 0.0
C1006 C 0.9448 0.31477 0.76677 0.0
H1007 H 0.97919 0.22607 0.72891 0.0
H1008 H 0.95442 0.25284 0.73377 0.0
H1009 H 0.96547 0.29201 0.77464 0.0
H1010 H 0.92562 0.39165 0.7671 0.0
H1011 H 0.94608 0.36006 0.76559 0.0
H1012 H 0.92657 0.31683 0.7328 0.0
C1013 C 0.96884 0.25306 0.74008 0.0
C1014 C 0.95731 0.29733 0.76536 0.0
C1015 C 0.98298 0.23731 0.73749 0.0
C1016 C 0.91823 0.37747 0.76281 0.0
C1017 C 0.9299 0.35941 0.76204 0.0
C1018 C 0.93494 0.3114 0.74198 0.0
C1019 C 0.97341 0.26902 0.7504 0.0
C1020 C 0.95919 0.28694 0.75216 0.0
C1021 C 0.92089 0.34079 0.75644 0.0
C1022 C 0.93355 0.32194 0.75509 0.0
H1023 H 0.0203 0.25197 0.76271 0.0
H1024 H 0.99639 0.28012 0.76656 0.0
H1025 H 0.9491 0.28711 0.73009 0.0
H1026 H 0.87197 0.35771 0.74927 0.0
H1027 H 0.89269 0.32621 0.74745 0.0
C1028 C 0.90084 0.47939 0.98762 0.0
C1029 C 0.90138 0.49879 0.99502 0.0
C1030 C 0.88632 0.46446 0.99043 0.0
C1031 C 0.84295 0.4465 0.9902 0.0
H1032 H 0.82666 0.43361 0.02702 0.0
C1033 C 0.76223 0.41608 0.0005 0.0
C1034 C 0.76104 0.3993 0.00906 0.0
C1035 C 0.78116 0.4257 0.9989 0.0
C1036 C 0.83119 0.43692 0.01668 0.0
H1037 H 0.88811 0.51724 0.01179 0.0
H1038 H 0.86275 0.49106 0.01675 0.0
H1039 H 0.85763 0.45472 0.02486 0.0
H1040 H 0.77877 0.3794 0.02261 0.0
H1041 H 0.81191 0.3966 0.02 0.0
H1042 H 0.81619 0.42935 0.98202 0.0
C1043 C 0.87355 0.48744 0.00877 0.0
C1044 C 0.8488 0.44907 0.01545 0.0
C1045 C 0.88796 0.50247 0.00588 0.0
C1046 C 0.77922 0.39224 0.01591 0.0
C1047 C 0.79814 0.40213 0.01448 0.0
C1048 C 0.82524 0.43463 0.99143 0.0
C1049 C 0.87215 0.46856 0.00076 0.0
C1050 C 0.85471 0.45415 0.0022 0.0
C1051 C 0.79925 0.41896 0.00598 0.0
C1052 C 0.81904 0.42995 0.00468 0.0
H1053 H 0.91082 0.47615 0.9791 0.0
H1054 H 0.88569 0.44997 0.98418 0.0
H1055 H 0.84699 0.45036 0.97985 0.0
H1056 H 0.74852 0.42185 0.99506 0.0
H1057 H 0.78156 0.43877 0.99237 0.0
C1058 C 0.65055 0.37857 0.25133 0.0
C1059 C 0.6597 0.39837 0.2531 0.0
C1060 C 0.66123 0.3612 0.25577 0.0
C1061 C 0.71253 0.34165 0.25813 0.0
H1062 H 0.69171 0.29935 0.28066 0.0
C1063 C 0.75917 0.26779 0.26575 0.0
C1064 C 0.74816 0.24917 0.26595 0.0
C1065 C 0.749 0.28671 0.267 0.0
C1066 C 0.69768 0.31085 0.27419 0.0
H1067 H 0.68687 0.41533 0.26188 0.0
H1068 H 0.7058 0.38482 0.26893 0.0
H1069 H 0.67202 0.33102 0.27765 0.0
H1070 H 0.71802 0.23561 0.26795 0.0
H1071 H 0.69997 0.26847 0.2693 0.0
H1072 H 0.73735 0.32133 0.25374 0.0
C1073 C 0.6903 0.38293 0.26415 0.0
C1074 C 0.68645 0.32906 0.2726 0.0
C1075 C 0.67948 0.40035 0.25998 0.0
C1076 C 0.72689 0.24979 0.26786 0.0
C1077 C 0.71658 0.26871 0.26871 0.0
C1078 C 0.72351 0.32332 0.25944 0.0
C1079 C 0.68139 0.36318 0.26185 0.0
C1080 C 0.69377 0.34455 0.2645 0.0
C1081 C 0.72743 0.28747 0.26802 0.0
C1082 C 0.71622 0.30755 0.26743 0.0
H1083 H 0.63554 0.37624 0.2459 0.0
H1084 H 0.65413 0.34608 0.25376 0.0
H1085 H 0.71832 0.35326 0.25165 0.0
H1086 H 0.77566 0.26773 0.26447 0.0
H1087 H 0.7581 0.30071 0.2669 0.0
C1088 C 0.18306 0.99209 0.39478 0.0
C1089 C 0.1949 0.98672 0.38332 0.0
C1090 C 0.19025 0.98798 0.40836 0.0
C1091 C 0.22435 0.95324 0.42751 0.0
H1092 H 0.21818 0.99306 0.45878 0.0
C1093 C 0.25173 0.93581 0.48407 0.0
C1094 C 0.23846 0.94191 0.49462 0.0
C1095 C 0.24836 0.94254 0.47052 0.0
C1096 C 0.21985 0.98169 0.45018 0.0
H1097 H 0.22359 0.97292 0.37708 0.0
H1098 H 0.23617 0.9657 0.40086 0.0
H1099 H 0.20859 0.00255 0.43502 0.0
H1100 H 0.21136 0.96005 0.49922 0.0
H1101 H 0.20526 0.97138 0.47562 0.0
H1102 H 0.23504 0.93216 0.44264 0.0
C1103 C 0.22132 0.97309 0.39931 0.0
C1104 C 0.2144 0.98716 0.43657 0.0
C1105 C 0.2142 0.97737 0.38573 0.0
C1106 C 0.22194 0.95511 0.49137 0.0
C1107 C 0.21851 0.96174 0.47783 0.0
C1108 C 0.22967 0.94771 0.44113 0.0
C1109 C 0.20935 0.97826 0.41076 0.0
C1110 C 0.21638 0.97292 0.42511 0.0
C1111 C 0.23159 0.95544 0.46721 0.0
C1112 C 0.22726 0.96179 0.45265 0.0
H1113 H 0.1682 0.99947 0.39325 0.0
H1114 H 0.1806 0.99198 0.41696 0.0
H1115 H 0.22582 0.94185 0.41889 0.0
H1116 H 0.26468 0.92575 0.48624 0.0
H1117 H 0.25891 0.93764 0.46264 0.0
C1118 C 0.07246 0.68706 0.64738 0.0
C1119 C 0.07492 0.70053 0.63665 0.0
C1120 C 0.08021 0.6924 0.66104 0.0
C1121 C 0.10059 0.73685 0.68437 0.0
H1122 H 0.12599 0.69344 0.70548 0.0
C1123 C 0.15527 0.75154 0.73412 0.0
C1124 C 0.15215 0.73912 0.74537 0.0
C1125 C 0.14421 0.7477 0.72125 0.0
C1126 C 0.11876 0.70568 0.69976 0.0
H1127 H 0.08738 0.7301 0.63173 0.0
H1128 H 0.10138 0.73924 0.65546 0.0
H1129 H 0.10979 0.68499 0.68228 0.0
H1130 H 0.13464 0.71319 0.75197 0.0
H1131 H 0.11556 0.70642 0.72947 0.0
H1132 H 0.11029 0.7576 0.70181 0.0
C1133 C 0.093 0.72479 0.65348 0.0
C1134 C 0.10938 0.70085 0.68648 0.0
C1135 C 0.08505 0.71954 0.63986 0.0
C1136 C 0.13745 0.72304 0.74353 0.0
C1137 C 0.12658 0.71908 0.73063 0.0
C1138 C 0.11019 0.74171 0.69761 0.0
C1139 C 0.09082 0.71122 0.66423 0.0
C1140 C 0.1002 0.71637 0.67858 0.0
C1141 C 0.13 0.73123 0.71933 0.0
C1142 C 0.11938 0.72617 0.70542 0.0
H1143 H 0.06451 0.6724 0.6452 0.0
H1144 H 0.07787 0.68175 0.6691 0.0
H1145 H 0.0934 0.74915 0.6787 0.0
H1146 H 0.16644 0.76408 0.73521 0.0
H1147 H 0.14722 0.75723 0.71267 0.0
C1148 C 0.4302 0.5752 0.89659 0.0
C1149 C 0.42106 0.58377 0.88462 0.0
C1150 C 0.42639 0.58363 0.90996 0.0
C1151 C 0.40805 0.6318 0.92792 0.0
H1152 H 0.40288 0.59716 0.95918 0.0
C1153 C 0.38156 0.66369 0.98133 0.0
C1154 C 0.39335 0.65789 0.99323 0.0
C1155 C 0.3845 0.65407 0.96817 0.0
C1156 C 0.40443 0.60702 0.95056 0.0
H1157 H 0.40011 0.60726 0.87723 0.0
H1158 H 0.39309 0.6217 0.9005 0.0
H1159 H 0.40863 0.58126 0.93599 0.0
H1160 H 0.41719 0.63711 0.00067 0.0
H1161 H 0.42221 0.62025 0.97767 0.0
H1162 H 0.4036 0.65752 0.94246 0.0
C1163 C 0.4037 0.60889 0.89962 0.0
C1164 C 0.40779 0.59793 0.93728 0.0
C1165 C 0.40766 0.60059 0.88628 0.0
C1166 C 0.40789 0.64199 0.99171 0.0
C1167 C 0.4107 0.63224 0.97856 0.0
C1168 C 0.40453 0.64085 0.94114 0.0
C1169 C 0.41321 0.6007 0.91163 0.0
C1170 C 0.40963 0.61022 0.92579 0.0
C1171 C 0.39916 0.63831 0.96664 0.0
C1172 C 0.40269 0.62856 0.9526 0.0
H1173 H 0.4407 0.56231 0.89559 0.0
H1174 H 0.43416 0.57708 0.91897 0.0
H1175 H 0.40983 0.6418 0.9194 0.0
H1176 H 0.3702 0.67585 0.98213 0.0
H1177 H 0.37524 0.65891 0.95917 0.0
C1178 C 0.48428 0.97042 0.1471 0.0
C1179 C 0.50466 0.97161 0.14294 0.0
C1180 C 0.48027 0.96345 0.16022 0.0
C1181 C 0.50378 0.93113 0.18717 0.0
H1182 H 0.45992 0.95256 0.20961 0.0
C1183 C 0.49129 0.90196 0.24156 0.0
C1184 C 0.47085 0.89776 0.2447 0.0
C1185 C 0.49538 0.91247 0.22972 0.0
C1186 C 0.47211 0.94632 0.2034 0.0
H1187 H 0.53685 0.96763 0.14959 0.0
H1188 H 0.5299 0.95572 0.17253 0.0
H1189 H 0.46737 0.96892 0.1881 0.0
H1190 H 0.43865 0.90169 0.23798 0.0
H1191 H 0.44583 0.91994 0.21718 0.0
H1192 H 0.50846 0.90846 0.20234 0.0
C1193 C 0.51697 0.95968 0.16554 0.0
C1194 C 0.47639 0.95569 0.19108 0.0
C1195 C 0.52097 0.96657 0.15242 0.0
C1196 C 0.45457 0.90467 0.23585 0.0
C1197 C 0.45868 0.91524 0.22398 0.0
C1198 C 0.49954 0.92181 0.19946 0.0
C1199 C 0.49655 0.95757 0.16948 0.0
C1200 C 0.49228 0.94818 0.18282 0.0
C1201 C 0.47914 0.91905 0.2207 0.0
C1202 C 0.48366 0.92927 0.20772 0.0
H1203 H 0.47137 0.97398 0.13997 0.0
H1204 H 0.46436 0.96183 0.16285 0.0
H1205 H 0.51581 0.92464 0.18092 0.0
H1206 H 0.5042 0.89696 0.2482 0.0
H1207 H 0.51131 0.91545 0.22762 0.0
C1208 C 0.08998 0.65366 0.9103 0.0
C1209 C 0.1053 0.65168 0.92111 0.0
C1210 C 0.09421 0.66416 0.89847 0.0
C1211 C 0.12641 0.70329 0.88488 0.0
H1212 H 0.12064 0.67065 0.84964 0.0
C1213 C 0.16061 0.72957 0.83421 0.0
C1214 C 0.15152 0.72206 0.82125 0.0
C1215 C 0.1532 0.72313 0.8467 0.0
C1216 C 0.12189 0.68029 0.85927 0.0
H1217 H 0.13674 0.65969 0.92836 0.0
H1218 H 0.14399 0.67862 0.90773 0.0
H1219 H 0.11061 0.6559 0.87095 0.0
H1220 H 0.12671 0.7033 0.81105 0.0
H1221 H 0.11286 0.6932 0.83269 0.0
H1222 H 0.13718 0.72793 0.87325 0.0
C1223 C 0.12882 0.67185 0.9084 0.0
C1224 C 0.11627 0.67169 0.87152 0.0
C1225 C 0.12472 0.66095 0.9201 0.0
C1226 C 0.13414 0.7091 0.82095 0.0
C1227 C 0.12638 0.70313 0.83338 0.0
C1228 C 0.13162 0.71212 0.87256 0.0
C1229 C 0.1137 0.67325 0.89739 0.0
C1230 C 0.11866 0.68302 0.88443 0.0
C1231 C 0.13624 0.70942 0.84645 0.0
C1232 C 0.12962 0.70067 0.85957 0.0
H1233 H 0.07492 0.64655 0.91084 0.0
H1234 H 0.08234 0.66507 0.89009 0.0
H1235 H 0.12829 0.71234 0.89475 0.0
H1236 H 0.17415 0.73948 0.83469 0.0
H1237 H 0.1614 0.7282 0.85647 0.0
C1238 C 0.44384 0.56257 0.16178 0.0
C1239 C 0.46276 0.56939 0.16853 0.0
C1240 C 0.43663 0.57065 0.14918 0.0
C1241 C 0.45402 0.59369 0.11836 0.0
H1242 H 0.40137 0.62178 0.11567 0.0
C1243 C 0.43488 0.64766 0.07435 0.0
C1244 C 0.41443 0.64914 0.06884 0.0
C1245 C 0.43951 0.6364 0.08607 0.0
C1246 C 0.41592 0.61365 0.11611 0.0
H1247 H 0.48859 0.59054 0.16723 0.0
H1248 H 0.47645 0.6037 0.14501 0.0
H1249 H 0.41161 0.60415 0.13684 0.0
H1250 H 0.38277 0.63989 0.07124 0.0
H1251 H 0.39093 0.61955 0.09152 0.0
H1252 H 0.4584 0.60269 0.09767 0.0
C1253 C 0.46727 0.59211 0.14955 0.0
C1254 C 0.42178 0.60364 0.12826 0.0
C1255 C 0.47427 0.58439 0.16225 0.0
C1256 C 0.39867 0.63907 0.0753 0.0
C1257 C 0.40336 0.6275 0.08696 0.0
C1258 C 0.44804 0.60335 0.10614 0.0
C1259 C 0.44838 0.58538 0.14293 0.0
C1260 C 0.44108 0.59399 0.12959 0.0
C1261 C 0.42388 0.62599 0.09248 0.0
C1262 C 0.42916 0.61394 0.10498 0.0
H1263 H 0.43465 0.55085 0.16615 0.0
H1264 H 0.42203 0.56517 0.1442 0.0
H1265 H 0.46887 0.58611 0.11909 0.0
H1266 H 0.44735 0.65544 0.06971 0.0
H1267 H 0.45541 0.63613 0.0902 0.0
C1268 C 0.46577 0.98154 0.41794 0.0
C1269 C 0.48581 0.98922 0.42144 0.0
C1270 C 0.46147 0.96961 0.40546 0.0
C1271 C 0.48058 0.95834 0.3704 0.0
H1272 H 0.44875 0.90767 0.37075 0.0
C1273 C 0.47381 0.90036 0.32251 0.0
C1274 C 0.45442 0.89113 0.319 0.0
C1275 C 0.47747 0.91189 0.33521 0.0
C1276 C 0.45745 0.9219 0.37043 0.0
H1277 H 0.51695 0.99084 0.41447 0.0
H1278 H 0.50949 0.96997 0.39272 0.0
H1279 H 0.45497 0.92921 0.39238 0.0
H1280 H 0.42373 0.88653 0.32621 0.0
H1281 H 0.43002 0.90691 0.34825 0.0
H1282 H 0.48296 0.95123 0.34849 0.0
C1283 C 0.49708 0.97318 0.39961 0.0
C1284 C 0.46101 0.93423 0.38282 0.0
C1285 C 0.5014 0.98496 0.41212 0.0
C1286 C 0.43888 0.89337 0.3286 0.0
C1287 C 0.44251 0.90499 0.34128 0.0
C1288 C 0.47694 0.94609 0.35801 0.0
C1289 C 0.4771 0.9653 0.39617 0.0
C1290 C 0.47272 0.95252 0.38295 0.0
C1291 C 0.46179 0.91457 0.34467 0.0
C1292 C 0.46545 0.92765 0.35788 0.0
H1293 H 0.45349 0.98446 0.42498 0.0
H1294 H 0.44589 0.96387 0.40302 0.0
H1295 H 0.4894 0.97252 0.37013 0.0
H1296 H 0.48618 0.89883 0.31541 0.0
H1297 H 0.49263 0.9187 0.3376 0.0
C1298 C 0.14706 0.02609 0.66057 0.0
C1299 C 0.15869 0.02681 0.67344 0.0
C1300 C 0.15633 0.02084 0.64807 0.0
C1301 C 0.20053 0.99236 0.63456 0.0
H1302 H 0.18405 0.01809 0.60015 0.0
C1303 C 0.23265 0.96545 0.58147 0.0
C1304 C 0.21769 0.96251 0.57029 0.0
C1305 C 0.22768 0.97589 0.59403 0.0
C1306 C 0.18877 0.01071 0.60966 0.0
H1307 H 0.18932 0.02289 0.68325 0.0
H1308 H 0.20561 0.01394 0.66136 0.0
H1309 H 0.17128 0.03174 0.62227 0.0
H1310 H 0.18599 0.96878 0.56337 0.0
H1311 H 0.17733 0.9868 0.58521 0.0
H1312 H 0.21763 0.97103 0.62191 0.0
C1313 C 0.18924 0.01728 0.66097 0.0
C1314 C 0.18144 0.01852 0.62234 0.0
C1315 C 0.17995 0.02261 0.67349 0.0
C1316 C 0.19789 0.97076 0.57178 0.0
C1317 C 0.19295 0.98124 0.58428 0.0
C1318 C 0.20787 0.98455 0.62188 0.0
C1319 C 0.17749 0.01615 0.64813 0.0
C1320 C 0.18691 0.00918 0.63489 0.0
C1321 C 0.20769 0.98369 0.59562 0.0
C1322 C 0.20174 0.99338 0.60925 0.0
H1323 H 0.1307 0.02949 0.66016 0.0
H1324 H 0.14677 0.0199 0.63839 0.0
H1325 H 0.20486 0.98465 0.64401 0.0
H1326 H 0.24807 0.95932 0.58064 0.0
H1327 H 0.23944 0.97772 0.60253 0.0
C1328 C 0.59101 0.45326 0.87948 0.0
C1329 C 0.60329 0.46851 0.87414 0.0
C1330 C 0.59714 0.44441 0.89203 0.0
C1331 C 0.63152 0.45446 0.92402 0.0
H1332 H 0.6223 0.39643 0.92943 0.0
C1333 C 0.65003 0.42235 0.97759 0.0
C1334 C 0.66029 0.40334 0.97784 0.0
C1335 C 0.6409 0.42899 0.96511 0.0
C1336 C 0.62509 0.41264 0.92806 0.0
H1337 H 0.63196 0.48583 0.87743 0.0
H1338 H 0.64283 0.47022 0.89913 0.0
H1339 H 0.61172 0.41046 0.90702 0.0
H1340 H 0.66827 0.37591 0.96534 0.0
H1341 H 0.65278 0.38774 0.94335 0.0
H1342 H 0.64558 0.45661 0.94475 0.0
C1343 C 0.62818 0.46547 0.89389 0.0
C1344 C 0.61881 0.42074 0.91526 0.0
C1345 C 0.62199 0.47441 0.88144 0.0
C1346 C 0.66041 0.39062 0.96546 0.0
C1347 C 0.65148 0.3974 0.95287 0.0
C1348 C 0.63787 0.44638 0.93673 0.0
C1349 C 0.61575 0.45052 0.89945 0.0
C1350 C 0.62205 0.44175 0.91307 0.0
C1351 C 0.64209 0.41693 0.95249 0.0
C1352 C 0.63474 0.42537 0.93895 0.0
H1353 H 0.57644 0.44852 0.87413 0.0
H1354 H 0.58707 0.43312 0.89607 0.0
H1355 H 0.63398 0.47077 0.92282 0.0
H1356 H 0.64945 0.43238 0.98702 0.0
H1357 H 0.6333 0.44384 0.96531 0.0
C1358 C 0.67013 0.089 0.12809 0.0
C1359 C 0.67731 0.09498 0.11537 0.0
C1360 C 0.67985 0.09627 0.14083 0.0
C1361 C 0.71056 0.13948 0.15701 0.0
H1362 H 0.72279 0.10251 0.18672 0.0
C1363 C 0.75215 0.16754 0.20992 0.0
C1364 C 0.74552 0.15899 0.22204 0.0
C1365 C 0.74488 0.15959 0.19663 0.0
C1366 C 0.71925 0.11311 0.17861 0.0
H1367 H 0.7003 0.11318 0.10599 0.0
H1368 H 0.71726 0.12606 0.12835 0.0
H1369 H 0.70829 0.08862 0.16403 0.0
H1370 H 0.72568 0.1357 0.22972 0.0
H1371 H 0.71258 0.1223 0.20667 0.0
H1372 H 0.72092 0.16407 0.17165 0.0
C1373 C 0.70412 0.11571 0.12841 0.0
C1374 C 0.71103 0.10511 0.1656 0.0
C1375 C 0.69454 0.10822 0.11564 0.0
C1376 C 0.73126 0.14253 0.2206 0.0
C1377 C 0.72385 0.13474 0.20735 0.0
C1378 C 0.71859 0.14753 0.17008 0.0
C1379 C 0.69682 0.10986 0.14113 0.0
C1380 C 0.70647 0.11823 0.1547 0.0
C1381 C 0.73067 0.14304 0.19518 0.0
C1382 C 0.72288 0.13446 0.18109 0.0
H1383 H 0.65695 0.07871 0.12817 0.0
H1384 H 0.6738 0.09163 0.15048 0.0
H1385 H 0.70698 0.14998 0.14883 0.0
H1386 H 0.76322 0.18016 0.21067 0.0
H1387 H 0.75067 0.16622 0.1875 0.0
C1388 C 0.03907 0.1424 0.39004 0.0
C1389 C 0.05442 0.15436 0.38447 0.0
C1390 C 0.03039 0.14883 0.40253 0.0
C1391 C 0.01726 0.19376 0.42404 0.0
H1392 H 0.01497 0.15578 0.45369 0.0
C1393 C 0.97807 0.21524 0.4759 0.0
C1394 C 0.96723 0.19935 0.48169 0.0
C1395 C 0.99038 0.21085 0.46457 0.0
C1396 C 0.01521 0.16651 0.44547 0.0
H1397 H 0.07262 0.1826 0.38794 0.0
H1398 H 0.05667 0.19419 0.40952 0.0
H1399 H 0.03327 0.14599 0.43286 0.0
H1400 H 0.96029 0.16653 0.47992 0.0
H1401 H 0.98091 0.15901 0.45998 0.0
H1402 H 0.99836 0.21391 0.43627 0.0
C1403 C 0.05164 0.17972 0.40414 0.0
C1404 C 0.02585 0.16093 0.43359 0.0
C1405 C 0.06067 0.17308 0.39175 0.0
C1406 C 0.96865 0.17909 0.47581 0.0
C1407 C 0.98066 0.17475 0.46441 0.0
C1408 C 0.00629 0.19924 0.43584 0.0
C1409 C 0.0365 0.16758 0.40965 0.0
C1410 C 0.02674 0.17437 0.4227 0.0
C1411 C 0.99189 0.1905 0.45871 0.0
C1412 C 0.00483 0.18553 0.44661 0.0
H1413 H 0.03336 0.12821 0.38462 0.0
H1414 H 0.01851 0.13934 0.40649 0.0
H1415 H 0.01765 0.20433 0.41572 0.0
H1416 H 0.97732 0.231 0.48026 0.0
H1417 H 0.99894 0.22335 0.46056 0.0
C1418 C 0.96598 0.53171 0.64 0.0
C1419 C 0.95707 0.52529 0.62672 0.0
C1420 C 0.95662 0.52681 0.65214 0.0
C1421 C 0.90789 0.50928 0.66599 0.0
H1422 H 0.94486 0.48798 0.69492 0.0
C1423 C 0.87992 0.46769 0.71376 0.0
C1424 C 0.89162 0.47096 0.72653 0.0
C1425 C 0.88645 0.47602 0.70158 0.0
C1426 C 0.93431 0.49419 0.68707 0.0
H1427 H 0.93095 0.50917 0.61579 0.0
H1428 H 0.91455 0.50065 0.63704 0.0
H1429 H 0.95882 0.49967 0.67378 0.0
H1430 H 0.9186 0.48653 0.73673 0.0
H1431 H 0.92966 0.50137 0.71569 0.0
H1432 H 0.88334 0.50365 0.67936 0.0
C1433 C 0.92873 0.50962 0.63803 0.0
C1434 C 0.94234 0.50088 0.67492 0.0
C1435 C 0.93813 0.51451 0.62586 0.0
C1436 C 0.90938 0.48349 0.72702 0.0
C1437 C 0.9158 0.49191 0.71493 0.0
C1438 C 0.89983 0.50263 0.67822 0.0
C1439 C 0.93809 0.51537 0.65131 0.0
C1440 C 0.92926 0.50856 0.66425 0.0
C1441 C 0.90474 0.48785 0.70198 0.0
C1442 C 0.91298 0.49507 0.68893 0.0
H1443 H 0.98034 0.5404 0.64102 0.0
H1444 H 0.964 0.53183 0.66221 0.0
H1445 H 0.89744 0.51523 0.65797 0.0
H1446 H 0.86616 0.45809 0.71307 0.0
H1447 H 0.87762 0.47251 0.69177 0.0
C1448 C 0.66206 0.08999 0.38668 0.0
C1449 C 0.66388 0.10338 0.3988 0.0
C1450 C 0.6685 0.09629 0.37393 0.0
C1451 C 0.6805 0.14168 0.35447 0.0
H1452 H 0.7165 0.10391 0.33476 0.0
C1453 C 0.72746 0.16548 0.3082 0.0
C1454 C 0.73087 0.15035 0.29749 0.0
C1455 C 0.71763 0.1603 0.32015 0.0
C1456 C 0.70617 0.11453 0.33995 0.0
H1457 H 0.67357 0.13412 0.40685 0.0
H1458 H 0.68442 0.14519 0.38451 0.0
H1459 H 0.70188 0.09386 0.35615 0.0
H1460 H 0.72573 0.11822 0.29054 0.0
H1461 H 0.70803 0.10935 0.31105 0.0
H1462 H 0.68466 0.16231 0.33819 0.0
C1463 C 0.67793 0.12983 0.38492 0.0
C1464 C 0.69785 0.10876 0.35225 0.0
C1465 C 0.67166 0.12348 0.39772 0.0
C1466 C 0.72356 0.13017 0.2987 0.0
C1467 C 0.71353 0.12506 0.31052 0.0
C1468 C 0.68868 0.1474 0.34205 0.0
C1469 C 0.67674 0.11618 0.37296 0.0
C1470 C 0.68498 0.12228 0.35967 0.0
C1471 C 0.71081 0.13992 0.32155 0.0
C1472 C 0.70167 0.13389 0.33464 0.0
H1473 H 0.65575 0.07456 0.38704 0.0
H1474 H 0.66712 0.08554 0.36482 0.0
H1475 H 0.6705 0.15235 0.35993 0.0
H1476 H 0.73298 0.18117 0.30756 0.0
H1477 H 0.71599 0.17212 0.32847 0.0
C1478 C 0.02748 0.21113 0.66119 0.0
C1479 C 0.03528 0.19171 0.66449 0.0
C1480 C 0.01876 0.21422 0.64781 0.0
C1481 C 0.99547 0.18566 0.61612 0.0
H1482 H 0.00308 0.23781 0.59917 0.0
C1483 C 0.96759 0.19917 0.55901 0.0
C1484 C 0.95709 0.21774 0.55679 0.0
C1485 C 0.97768 0.19593 0.57198 0.0
C1486 C 0.00071 0.22323 0.60383 0.0
H1487 H 0.04048 0.16042 0.6563 0.0
H1488 H 0.02558 0.16587 0.6328 0.0
H1489 H 0.02026 0.23214 0.62195 0.0
H1490 H 0.9491 0.24754 0.56645 0.0
H1491 H 0.96682 0.24187 0.58909 0.0
H1492 H 0.97606 0.17673 0.59788 0.0
C1493 C 0.0258 0.17862 0.64064 0.0
C1494 C 0.01051 0.21997 0.61689 0.0
C1495 C 0.0344 0.1755 0.65408 0.0
C1496 C 0.95702 0.23305 0.56781 0.0
C1497 C 0.96727 0.22987 0.58075 0.0
C1498 C 0.9858 0.18887 0.60301 0.0
C1499 C 0.01774 0.19799 0.63737 0.0
C1500 C 0.00791 0.2012 0.62324 0.0
C1501 C 0.97763 0.21124 0.58298 0.0
C1502 C 0.98822 0.20772 0.59677 0.0
H1503 H 0.02763 0.22383 0.66907 0.0
H1504 H 0.01236 0.22922 0.64576 0.0
H1505 H 0.99282 0.17116 0.62079 0.0
H1506 H 0.96796 0.18704 0.55075 0.0
H1507 H 0.9857 0.1815 0.57336 0.0
C1508 C 0.90949 0.54617 0.89844 0.0
C1509 C 0.90493 0.53577 0.91034 0.0
C1510 C 0.90188 0.53869 0.88511 0.0
C1511 C 0.88343 0.48985 0.86671 0.0
H1512 H 0.86872 0.52482 0.83625 0.0
C1513 C 0.85555 0.45548 0.81207 0.0
C1514 C 0.8652 0.46348 0.80077 0.0
C1515 C 0.85774 0.46545 0.82542 0.0
C1516 C 0.87284 0.51488 0.84467 0.0
H1517 H 0.88775 0.51035 0.91781 0.0
H1518 H 0.87405 0.4976 0.89466 0.0
H1519 H 0.87702 0.5405 0.85977 0.0
H1520 H 0.88409 0.48868 0.79456 0.0
H1521 H 0.88795 0.50598 0.81785 0.0
H1522 H 0.87945 0.46428 0.85164 0.0
C1523 C 0.88401 0.5111 0.8955 0.0
C1524 C 0.87764 0.52385 0.85812 0.0
C1525 C 0.89177 0.51844 0.90876 0.0
C1526 C 0.87651 0.48204 0.80304 0.0
C1527 C 0.87861 0.49206 0.81637 0.0
C1528 C 0.87853 0.48091 0.85332 0.0
C1529 C 0.88942 0.52078 0.88347 0.0
C1530 C 0.88316 0.51144 0.86928 0.0
C1531 C 0.86953 0.4837 0.82775 0.0
C1532 C 0.87337 0.49331 0.84212 0.0
H1533 H 0.91969 0.5595 0.89938 0.0
H1534 H 0.90649 0.54644 0.87608 0.0
H1535 H 0.88803 0.47981 0.87497 0.0
H1536 H 0.84663 0.44127 0.81068 0.0
H1537 H 0.85036 0.45878 0.83396 0.0
C1538 C 0.65174 0.44511 0.15852 0.0
C1539 C 0.63352 0.43864 0.16428 0.0
C1540 C 0.65586 0.43906 0.14474 0.0
C1541 C 0.64386 0.39895 0.11684 0.0
H1542 H 0.66595 0.43884 0.09295 0.0
C1543 C 0.68281 0.3761 0.06545 0.0
C1544 C 0.67844 0.38818 0.05393 0.0
C1545 C 0.67552 0.38188 0.07855 0.0
C1546 C 0.65961 0.42756 0.09945 0.0
H1547 H 0.60522 0.42086 0.15991 0.0
H1548 H 0.61263 0.41004 0.13588 0.0
H1549 H 0.65651 0.45 0.11648 0.0
H1550 H 0.66258 0.41558 0.0471 0.0
H1551 H 0.64993 0.42565 0.06998 0.0
H1552 H 0.64709 0.37647 0.0998 0.0
C1553 C 0.62374 0.41973 0.14212 0.0
C1554 C 0.6544 0.43391 0.11296 0.0
C1555 C 0.61954 0.4259 0.15589 0.0
C1556 C 0.66628 0.40595 0.05575 0.0
C1557 C 0.65912 0.41179 0.06887 0.0
C1558 C 0.64922 0.39255 0.10335 0.0
C1559 C 0.64194 0.42628 0.1364 0.0
C1560 C 0.64661 0.41965 0.12184 0.0
C1561 C 0.66382 0.39993 0.08043 0.0
C1562 C 0.65726 0.40678 0.09454 0.0
H1563 H 0.66307 0.45456 0.16475 0.0
H1564 H 0.67018 0.44408 0.1407 0.0
H1565 H 0.63802 0.38759 0.12349 0.0
H1566 H 0.6921 0.36231 0.06441 0.0
H1567 H 0.67956 0.37253 0.08729 0.0
loop_
_geom_bond_atom_site_label_1
_geom_bond_atom_site_label_2
_geom_bond_distance
_geom_bond_site_symmetry_2
_ccdc_geom_bond_type
H0 C27 0.929 . S
N1 C26 1.433 . S
N1 C32 1.435 . S
N1 C38 1.423 1_565 S
H2 C28 0.930 . S
H3 C31 0.931 . S
H4 C30 0.929 . S
H5 C33 0.930 . S
H6 C34 0.932 . S
H7 C37 0.929 . S
H8 C36 0.931 . S
H9 C39 0.929 . S
H10 C43 0.932 . S
H11 C40 0.931 . S
H12 C42 0.929 . S
H13 C45 0.929 . S
H14 C46 0.930 1_655 S
H15 C48 0.929 . S
H16 C49 0.931 . S
H17 C51 0.930 . S
H18 C52 0.932 . S
H19 C54 0.931 . S
H20 C55 0.929 . S
H21 C57 0.929 . S
H22 C58 0.931 . S
H23 C60 0.929 . S
N24 C44 1.433 . S
N24 C50 1.435 . S
N24 C56 1.423 . S
H25 C61 0.932 . S
C26 N1 1.433 . S
C26 C27 1.363 . S
C26 C31 1.370 . S
C27 H0 0.929 . S
C27 C26 1.363 . S
C27 C28 1.385 . S
C28 H2 0.930 . S
C28 C27 1.385 . S
C28 C29 1.357 . S
C29 C28 1.357 . S
C29 C30 1.406 . S
C30 H4 0.929 . S
C30 C29 1.406 . S
C30 C31 1.391 . S
C31 H3 0.931 . S
C31 C26 1.370 . S
C31 C30 1.391 . S
C32 N1 1.435 . S
C32 C33 1.358 . S
C32 C37 1.371 . S
C33 H5 0.930 . S
C33 C32 1.358 . S
C33 C34 1.405 . S
C34 H6 0.932 . S
C34 C33 1.405 . S
C34 C35 1.383 . S
C35 C34 1.383 . S
C35 C36 1.393 . S
C36 H8 0.931 . S
C36 C35 1.393 . S
C36 C37 1.382 . S
C37 H7 0.929 . S
C37 C32 1.371 . S
C37 C36 1.382 . S
C38 N1 1.423 1_545 S
C38 C39 1.362 . S
C38 C43 1.388 1_545 S
C39 H9 0.929 . S
C39 C38 1.362 . S
C39 C40 1.376 . S
C40 H11 0.931 . S
C40 C39 1.376 . S
C40 C41 1.396 . S
C41 C40 1.396 . S
C41 C42 1.348 . S
C41 C59 1.472 . S
C42 H12 0.929 . S
C42 C41 1.348 . S
C42 C43 1.443 1_545 S
C43 H10 0.932 . S
C43 C38 1.388 1_565 S
C43 C42 1.443 1_565 S
C44 N24 1.433 . S
C44 C45 1.363 . S
C44 C49 1.370 . S
C45 H13 0.929 . S
C45 C44 1.363 . S
C45 C46 1.385 . S
C46 H14 0.930 1_455 S
C46 C45 1.385 . S
C46 C47 1.357 . S
C47 C46 1.357 . S
C47 C48 1.406 . S
C48 H15 0.929 . S
C48 C47 1.406 . S
C48 C49 1.391 . S
C49 H16 0.931 . S
C49 C44 1.370 . S
C49 C48 1.391 . S
C50 N24 1.435 . S
C50 C51 1.358 1_455 S
C50 C55 1.371 . S
C51 H17 0.930 . S
C51 C50 1.358 1_655 S
C51 C52 1.405 . S
C52 H18 0.932 . S
C52 C51 1.405 . S
C52 C53 1.383 . S
C53 C52 1.383 . S
C53 C54 1.393 1_655 S
C54 H19 0.931 . S
C54 C53 1.393 1_455 S
C54 C55 1.382 . S
C55 H20 0.929 . S
C55 C50 1.371 . S
C55 C54 1.382 . S
C56 N24 1.423 . S
C56 C57 1.362 . S
C56 C61 1.388 . S
C57 H21 0.929 . S
C57 C56 1.362 . S
C57 C58 1.376 . S
C58 H22 0.931 . S
C58 C57 1.376 . S
C58 C59 1.396 . S
C59 C41 1.472 . S
C59 C58 1.396 . S
C59 C60 1.348 . S
C60 H23 0.929 . S
C60 C59 1.348 . S
C60 C61 1.443 . S
C61 H25 0.932 . S
C61 C56 1.388 . S
C61 C60 1.443 . S
H62 C89 0.929 . S
N63 C88 1.446 . S
N63 C94 1.441 . S
N63 C100 1.405 1_655 S
H64 C90 0.930 . S
H65 C93 0.931 . S
H66 C92 0.929 . S
H67 C95 0.930 . S
H68 C96 0.932 . S
H69 C99 0.929 . S
H70 C98 0.931 1_455 S
H71 C101 0.929 . S
H72 C105 0.932 . S
H73 C102 0.931 . S
H74 C104 0.929 . S
H75 C107 0.929 . S
H76 C108 0.930 . S
H77 C110 0.929 . S
H78 C111 0.931 . S
H79 C113 0.930 . S
H80 C114 0.932 . S
H81 C116 0.931 . S
H82 C117 0.929 . S
H83 C119 0.929 . S
H84 C120 0.931 . S
H85 C122 0.929 . S
N86 C106 1.433 . S
N86 C112 1.435 . S
N86 C118 1.423 . S
H87 C123 0.932 . S
C88 N63 1.446 . S
C88 C89 1.363 . S
C88 C93 1.370 . S
C89 H62 0.929 . S
C89 C88 1.363 . S
C89 C90 1.385 . S
C90 H64 0.930 . S
C90 C89 1.385 . S
C90 C91 1.357 . S
C91 C90 1.357 . S
C91 C92 1.406 . S
C92 H66 0.929 . S
C92 C91 1.406 . S
C92 C93 1.391 . S
C93 H65 0.931 . S
C93 C88 1.370 . S
C93 C92 1.391 . S
C94 N63 1.441 . S
C94 C95 1.358 . S
C94 C99 1.371 1_655 S
C95 H67 0.930 . S
C95 C94 1.358 . S
C95 C96 1.405 . S
C96 H68 0.932 . S
C96 C95 1.405 . S
C96 C97 1.383 . S
C97 C96 1.383 . S
C97 C98 1.393 . S
C98 H70 0.931 1_655 S
C98 C97 1.393 . S
C98 C99 1.382 1_655 S
C99 H69 0.929 . S
C99 C94 1.371 1_455 S
C99 C98 1.382 1_455 S
C100 N63 1.405 1_455 S
C100 C101 1.362 . S
C100 C105 1.388 . S
C101 H71 0.929 . S
C101 C100 1.362 . S
C101 C102 1.376 . S
C102 H73 0.931 . S
C102 C101 1.376 . S
C102 C103 1.396 . S
C103 C102 1.396 . S
C103 C104 1.348 . S
C103 C121 1.472 . S
C104 H74 0.929 . S
C104 C103 1.348 . S
C104 C105 1.443 . S
C105 H72 0.932 . S
C105 C100 1.388 . S
C105 C104 1.443 . S
C106 N86 1.433 . S
C106 C107 1.363 . S
C106 C111 1.370 . S
C107 H75 0.929 . S
C107 C106 1.363 . S
C107 C108 1.385 . S
C108 H76 0.930 . S
C108 C107 1.385 . S
C108 C109 1.357 . S
C109 C108 1.357 . S
C109 C110 1.406 . S
C110 H77 0.929 . S
C110 C109 1.406 . S
C110 C111 1.391 . S
C111 H78 0.931 . S
C111 C106 1.370 . S
C111 C110 1.391 . S
C112 N86 1.435 . S
C112 C113 1.358 . S
C112 C117 1.371 . S
C113 H79 0.930 . S
C113 C112 1.358 . S
C113 C114 1.405 . S
C114 H80 0.932 . S
C114 C113 1.405 . S
C114 C115 1.383 . S
C115 C114 1.383 . S
C115 C116 1.393 . S
C116 H81 0.931 . S
C116 C115 1.393 . S
C116 C117 1.382 . S
C117 H82 0.929 . S
C117 C112 1.371 . S
C117 C116 1.382 . S
C118 N86 1.423 . S
C118 C119 1.362 . S
C118 C123 1.388 . S
C119 H83 0.929 . S
C119 C118 1.362 . S
C119 C120 1.376 . S
C120 H84 0.931 . S
C120 C119 1.376 . S
C120 C121 1.396 . S
C121 C103 1.472 . S
C121 C120 1.396 . S
C121 C122 1.348 . S
C122 H85 0.929 . S
C122 C121 1.348 . S
C122 C123 1.443 . S
C123 H87 0.932 . S
C123 C118 1.388 . S
C123 C122 1.443 . S
H124 C151 0.929 . S
N125 C150 1.433 . S
N125 C156 1.435 . S
N125 C162 1.423 . S
H126 C152 0.930 . S
H127 C155 0.931 . S
H128 C154 0.929 . S
H129 C157 0.930 . S
H130 C158 0.932 . S
H131 C161 0.929 . S
H132 C160 0.931 . S
H133 C163 0.929 . S
H134 C167 0.932 . S
H135 C164 0.931 . S
H136 C166 0.929 . S
H137 C169 0.929 . S
H138 C170 0.930 . S
H139 C172 0.929 . S
H140 C173 0.931 . S
H141 C175 0.930 . S
H142 C176 0.932 . S
H143 C178 0.931 . S
H144 C179 0.929 . S
H145 C181 0.929 . S
H146 C182 0.931 . S
H147 C184 0.929 . S
N148 C168 1.433 . S
N148 C174 1.435 . S
N148 C180 1.423 . S
H149 C185 0.932 . S
C150 N125 1.433 . S
C150 C151 1.363 . S
C150 C155 1.370 . S
C151 H124 0.929 . S
C151 C150 1.363 . S
C151 C152 1.385 . S
C152 H126 0.930 . S
C152 C151 1.385 . S
C152 C153 1.357 . S
C153 C152 1.357 . S
C153 C154 1.406 . S
C154 H128 0.929 . S
C154 C153 1.406 . S
C154 C155 1.391 . S
C155 H127 0.931 . S
C155 C150 1.370 . S
C155 C154 1.391 . S
C156 N125 1.435 . S
C156 C157 1.358 . S
C156 C161 1.371 . S
C157 H129 0.930 . S
C157 C156 1.358 . S
C157 C158 1.405 . S
C158 H130 0.932 . S
C158 C157 1.405 . S
C158 C159 1.383 . S
C159 C158 1.383 . S
C159 C160 1.393 . S
C160 H132 0.931 . S
C160 C159 1.393 . S
C160 C161 1.382 . S
C161 H131 0.929 . S
C161 C156 1.371 . S
C161 C160 1.382 . S
C162 N125 1.423 . S
C162 C163 1.362 . S
C162 C167 1.388 . S
C163 H133 0.929 . S
C163 C162 1.362 . S
C163 C164 1.376 . S
C164 H135 0.931 . S
C164 C163 1.376 . S
C164 C165 1.396 . S
C165 C164 1.396 . S
C165 C166 1.348 . S
C165 C183 1.472 . S
C166 H136 0.929 . S
C166 C165 1.348 . S
C166 C167 1.443 . S
C167 H134 0.932 . S
C167 C162 1.388 . S
C167 C166 1.443 . S
C168 N148 1.433 . S
C168 C169 1.363 . S
C168 C173 1.370 . S
C169 H137 0.929 . S
C169 C168 1.363 . S
C169 C170 1.385 . S
C170 H138 0.930 . S
C170 C169 1.385 . S
C170 C171 1.357 . S
C171 C170 1.357 . S
C171 C172 1.406 . S
C172 H139 0.929 . S
C172 C171 1.406 . S
C172 C173 1.391 . S
C173 H140 0.931 . S
C173 C168 1.370 . S
C173 C172 1.391 . S
C174 N148 1.435 . S
C174 C175 1.358 . S
C174 C179 1.371 . S
C175 H141 0.930 . S
C175 C174 1.358 . S
C175 C176 1.405 . S
C176 H142 0.932 . S
C176 C175 1.405 . S
C176 C177 1.383 . S
C177 C176 1.383 . S
C177 C178 1.393 . S
C178 H143 0.931 . S
C178 C177 1.393 . S
C178 C179 1.382 . S
C179 H144 0.929 . S
C179 C174 1.371 . S
C179 C178 1.382 . S
C180 N148 1.423 . S
C180 C181 1.362 . S
C180 C185 1.388 . S
C181 H145 0.929 . S
C181 C180 1.362 . S
C181 C182 1.376 . S
C182 H146 0.931 . S
C182 C181 1.376 . S
C182 C183 1.396 . S
C183 C165 1.472 . S
C183 C182 1.396 . S
C183 C184 1.348 . S
C184 H147 0.929 . S
C184 C183 1.348 . S
C184 C185 1.443 . S
C185 H149 0.932 . S
C185 C180 1.388 . S
C185 C184 1.443 . S
H186 C213 0.929 . S
N187 C212 1.433 . S
N187 C218 1.435 . S
N187 C224 1.423 . S
H188 C214 0.930 . S
H189 C217 0.931 . S
H190 C216 0.929 . S
H191 C219 0.930 . S
H192 C220 0.932 . S
H193 C223 0.929 . S
H194 C222 0.931 . S
H195 C225 0.929 . S
H196 C229 0.932 . S
H197 C226 0.931 . S
H198 C228 0.929 . S
H199 C231 0.929 . S
H200 C232 0.930 . S
H201 C234 0.929 . S
H202 C235 0.931 . S
H203 C237 0.930 . S
H204 C238 0.932 . S
H205 C240 0.931 . S
H206 C241 0.929 . S
H207 C243 0.929 . S
H208 C244 0.931 1_565 S
H209 C246 0.929 . S
N210 C230 1.433 . S
N210 C236 1.435 . S
N210 C242 1.423 . S
H211 C247 0.932 . S
C212 N187 1.433 . S
C212 C213 1.363 . S
C212 C217 1.370 . S
C213 H186 0.929 . S
C213 C212 1.363 . S
C213 C214 1.385 . S
C214 H188 0.930 . S
C214 C213 1.385 . S
C214 C215 1.357 . S
C215 C214 1.357 . S
C215 C216 1.406 . S
C216 H190 0.929 . S
C216 C215 1.406 . S
C216 C217 1.391 . S
C217 H189 0.931 . S
C217 C212 1.370 . S
C217 C216 1.391 . S
C218 N187 1.435 . S
C218 C219 1.358 . S
C218 C223 1.371 . S
C219 H191 0.930 . S
C219 C218 1.358 . S
C219 C220 1.405 . S
C220 H192 0.932 . S
C220 C219 1.405 . S
C220 C221 1.383 . S
C221 C220 1.383 . S
C221 C222 1.393 . S
C222 H194 0.931 . S
C222 C221 1.393 . S
C222 C223 1.382 . S
C223 H193 0.929 . S
C223 C218 1.371 . S
C223 C222 1.382 . S
C224 N187 1.423 . S
C224 C225 1.362 . S
C224 C229 1.388 . S
C225 H195 0.929 . S
C225 C224 1.362 . S
C225 C226 1.376 . S
C226 H197 0.931 . S
C226 C225 1.376 . S
C226 C227 1.396 . S
C227 C226 1.396 . S
C227 C228 1.348 . S
C227 C245 1.472 1_565 S
C228 H198 0.929 . S
C228 C227 1.348 . S
C228 C229 1.443 . S
C229 H196 0.932 . S
C229 C224 1.388 . S
C229 C228 1.443 . S
C230 N210 1.433 . S
C230 C231 1.363 . S
C230 C235 1.370 . S
C231 H199 0.929 . S
C231 C230 1.363 . S
C231 C232 1.385 . S
C232 H200 0.930 . S
C232 C231 1.385 . S
C232 C233 1.357 . S
C233 C232 1.357 . S
C233 C234 1.406 . S
C234 H201 0.929 . S
C234 C233 1.406 . S
C234 C235 1.391 . S
C235 H202 0.931 . S
C235 C230 1.370 . S
C235 C234 1.391 . S
C236 N210 1.435 . S
C236 C237 1.358 . S
C236 C241 1.371 . S
C237 H203 0.930 . S
C237 C236 1.358 . S
C237 C238 1.405 . S
C238 H204 0.932 . S
C238 C237 1.405 . S
C238 C239 1.383 . S
C239 C238 1.383 . S
C239 C240 1.393 . S
C240 H205 0.931 . S
C240 C239 1.393 . S
C240 C241 1.382 . S
C241 H206 0.929 . S
C241 C236 1.371 . S
C241 C240 1.382 . S
C242 N210 1.423 . S
C242 C243 1.362 . S
C242 C247 1.388 . S
C243 H207 0.929 . S
C243 C242 1.362 . S
C243 C244 1.376 . S
C244 H208 0.931 1_545 S
C244 C243 1.376 . S
C244 C245 1.396 . S
C245 C227 1.472 1_545 S
C245 C244 1.396 . S
C245 C246 1.348 . S
C246 H209 0.929 . S
C246 C245 1.348 . S
C246 C247 1.443 . S
C247 H211 0.932 . S
C247 C242 1.388 . S
C247 C246 1.443 . S
H248 C275 0.929 . S
N249 C274 1.433 . S
N249 C280 1.435 . S
N249 C286 1.423 . S
H250 C276 0.930 . S
H251 C279 0.931 . S
H252 C278 0.929 . S
H253 C281 0.930 . S
H254 C282 0.932 . S
H255 C285 0.929 . S
H256 C284 0.931 . S
H257 C287 0.929 . S
H258 C291 0.932 . S
H259 C288 0.931 . S
H260 C290 0.929 . S
H261 C293 0.929 . S
H262 C294 0.930 . S
H263 C296 0.929 . S
H264 C297 0.931 . S
H265 C299 0.930 . S
H266 C300 0.932 . S
H267 C302 0.931 . S
H268 C303 0.929 . S
H269 C305 0.929 . S
H270 C306 0.965 . S
H271 C308 0.929 . S
N272 C292 1.433 . S
N272 C298 1.435 . S
N272 C304 1.423 . S
H273 C309 0.932 . S
C274 N249 1.433 . S
C274 C275 1.363 . S
C274 C279 1.370 . S
C275 H248 0.929 . S
C275 C274 1.363 . S
C275 C276 1.385 . S
C276 H250 0.930 . S
C276 C275 1.385 . S
C276 C277 1.357 . S
C277 C276 1.357 . S
C277 C278 1.406 . S
C278 H252 0.929 . S
C278 C277 1.406 . S
C278 C279 1.391 . S
C279 H251 0.931 . S
C279 C274 1.370 . S
C279 C278 1.391 . S
C280 N249 1.435 . S
C280 C281 1.358 . S
C280 C285 1.371 . S
C281 H253 0.930 . S
C281 C280 1.358 . S
C281 C282 1.405 . S
C282 H254 0.932 . S
C282 C281 1.405 . S
C282 C283 1.383 1_556 S
C283 C282 1.383 1_554 S
C283 C284 1.393 . S
C284 H256 0.931 . S
C284 C283 1.393 . S
C284 C285 1.382 1_554 S
C285 H255 0.929 . S
C285 C280 1.371 . S
C285 C284 1.382 1_556 S
C286 N249 1.423 . S
C286 C287 1.362 . S
C286 C291 1.388 . S
C287 H257 0.929 . S
C287 C286 1.362 . S
C287 C288 1.376 . S
C288 H259 0.931 . S
C288 C287 1.376 . S
C288 C289 1.396 . S
C289 C288 1.396 . S
C289 C290 1.348 . S
C289 C307 1.472 . S
C290 H260 0.929 . S
C290 C289 1.348 . S
C290 C291 1.443 . S
C291 H258 0.932 . S
C291 C286 1.388 . S
C291 C290 1.443 . S
C292 N272 1.433 . S
C292 C293 1.363 . S
C292 C297 1.370 . S
C293 H261 0.929 . S
C293 C292 1.363 . S
C293 C294 1.385 . S
C294 H262 0.930 . S
C294 C293 1.385 . S
C294 C295 1.357 . S
C295 C294 1.357 . S
C295 C296 1.406 . S
C296 H263 0.929 . S
C296 C295 1.406 . S
C296 C297 1.391 . S
C297 H264 0.931 . S
C297 C292 1.370 . S
C297 C296 1.391 . S
C298 N272 1.435 . S
C298 C299 1.358 . S
C298 C303 1.371 . S
C299 H265 0.930 . S
C299 C298 1.358 . S
C299 C300 1.405 . S
C300 H266 0.932 . S
C300 C299 1.405 . S
C300 C301 1.383 . S
C301 C300 1.383 . S
C301 C302 1.393 . S
C302 H267 0.931 . S
C302 C301 1.393 . S
C302 C303 1.382 . S
C303 H268 0.929 . S
C303 C298 1.371 . S
C303 C302 1.382 . S
C304 N272 1.423 . S
C304 C305 1.362 . S
C304 C309 1.388 . S
C305 H269 0.929 . S
C305 C304 1.362 . S
C305 C306 1.340 1_655 S
C306 H270 0.965 . S
C306 C305 1.340 1_455 S
C306 C307 1.401 . S
C307 C289 1.472 . S
C307 C306 1.401 . S
C307 C308 1.348 1_455 S
C308 H271 0.929 . S
C308 C307 1.348 1_655 S
C308 C309 1.443 . S
C309 H273 0.932 . S
C309 C304 1.388 . S
C309 C308 1.443 . S
H310 C337 0.929 . S
N311 C336 1.433 . S
N311 C342 1.435 . S
N311 C348 1.423 . S
H312 C338 0.930 . S
H313 C341 0.931 . S
H314 C340 0.929 . S
H315 C343 0.930 . S
H316 C344 0.932 . S
H317 C347 0.929 . S
H318 C346 0.931 . S
H319 C349 0.929 . S
H320 C353 0.932 . S
H321 C350 0.931 . S
H322 C352 0.929 . S
H323 C355 0.929 . S
H324 C356 0.930 . S
H325 C358 0.929 . S
H326 C359 0.931 . S
H327 C361 0.930 . S
H328 C362 0.932 . S
H329 C364 0.931 . S
H330 C365 0.929 . S
H331 C367 0.929 . S
H332 C368 0.931 . S
H333 C370 0.929 . S
N334 C354 1.433 . S
N334 C360 1.435 . S
N334 C366 1.423 . S
H335 C371 0.932 . S
C336 N311 1.433 . S
C336 C337 1.363 . S
C336 C341 1.370 . S
C337 H310 0.929 . S
C337 C336 1.363 . S
C337 C338 1.385 . S
C338 H312 0.930 . S
C338 C337 1.385 . S
C338 C339 1.357 . S
C339 C338 1.357 . S
C339 C340 1.406 . S
C340 H314 0.929 . S
C340 C339 1.406 . S
C340 C341 1.391 . S
C341 H313 0.931 . S
C341 C336 1.370 . S
C341 C340 1.391 . S
C342 N311 1.435 . S
C342 C343 1.358 . S
C342 C347 1.371 . S
C343 H315 0.930 . S
C343 C342 1.358 . S
C343 C344 1.405 . S
C344 H316 0.932 . S
C344 C343 1.405 . S
C344 C345 1.383 . S
C345 C344 1.383 . S
C345 C346 1.393 . S
C346 H318 0.931 . S
C346 C345 1.393 . S
C346 C347 1.382 . S
C347 H317 0.929 . S
C347 C342 1.371 . S
C347 C346 1.382 . S
C348 N311 1.423 . S
C348 C349 1.362 . S
C348 C353 1.388 . S
C349 H319 0.929 . S
C349 C348 1.362 . S
C349 C350 1.376 . S
C350 H321 0.931 . S
C350 C349 1.376 . S
C350 C351 1.396 . S
C351 C350 1.396 . S
C351 C352 1.348 . S
C351 C369 1.472 . S
C352 H322 0.929 . S
C352 C351 1.348 . S
C352 C353 1.443 . S
C353 H320 0.932 . S
C353 C348 1.388 . S
C353 C352 1.443 . S
C354 N334 1.433 . S
C354 C355 1.363 . S
C354 C359 1.370 . S
C355 H323 0.929 . S
C355 C354 1.363 . S
C355 C356 1.385 . S
C356 H324 0.930 . S
C356 C355 1.385 . S
C356 C357 1.357 . S
C357 C356 1.357 . S
C357 C358 1.406 . S
C358 H325 0.929 . S
C358 C357 1.406 . S
C358 C359 1.391 . S
C359 H326 0.931 . S
C359 C354 1.370 . S
C359 C358 1.391 . S
C360 N334 1.435 . S
C360 C361 1.358 . S
C360 C365 1.371 . S
C361 H327 0.930 . S
C361 C360 1.358 . S
C361 C362 1.405 . S
C362 H328 0.932 . S
C362 C361 1.405 . S
C362 C363 1.383 . S
C363 C362 1.383 . S
C363 C364 1.393 . S
C364 H329 0.931 . S
C364 C363 1.393 . S
C364 C365 1.382 . S
C365 H330 0.929 . S
C365 C360 1.371 . S
C365 C364 1.382 . S
C366 N334 1.423 . S
C366 C367 1.362 . S
C366 C371 1.388 . S
C367 H331 0.929 . S
C367 C366 1.362 . S
C367 C368 1.376 . S
C368 H332 0.931 . S
C368 C367 1.376 . S
C368 C369 1.396 . S
C369 C351 1.472 . S
C369 C368 1.396 . S
C369 C370 1.348 . S
C370 H333 0.929 . S
C370 C369 1.348 . S
C370 C371 1.443 . S
C371 H335 0.932 . S
C371 C366 1.388 . S
C371 C370 1.443 . S
H372 C399 0.929 . S
N373 C398 1.433 . S
N373 C404 1.435 . S
N373 C410 1.423 1_565 S
H374 C400 0.930 . S
H375 C403 0.931 . S
H376 C402 0.929 . S
H377 C405 0.930 . S
H378 C406 0.932 . S
H379 C409 0.929 1_545 S
H380 C408 0.931 . S
H381 C411 0.929 . S
H382 C415 0.932 1_565 S
H383 C412 0.931 . S
H384 C414 0.929 . S
H385 C417 0.929 . S
H386 C418 0.930 . S
H387 C420 0.929 . S
H388 C421 0.931 . S
H389 C423 0.930 . S
H390 C424 0.932 . S
H391 C426 0.931 . S
H392 C427 0.929 . S
H393 C429 0.929 . S
H394 C430 0.931 . S
H395 C432 0.929 . S
N396 C416 1.433 . S
N396 C422 1.435 . S
N396 C428 1.423 . S
H397 C433 0.932 . S
C398 N373 1.433 . S
C398 C399 1.363 . S
C398 C403 1.370 . S
C399 H372 0.929 . S
C399 C398 1.363 . S
C399 C400 1.385 . S
C400 H374 0.930 . S
C400 C399 1.385 . S
C400 C401 1.357 . S
C401 C400 1.357 . S
C401 C402 1.406 . S
C402 H376 0.929 . S
C402 C401 1.406 . S
C402 C403 1.391 . S
C403 H375 0.931 . S
C403 C398 1.370 . S
C403 C402 1.391 . S
C404 N373 1.435 . S
C404 C405 1.358 . S
C404 C409 1.371 . S
C405 H377 0.930 . S
C405 C404 1.358 . S
C405 C406 1.405 . S
C406 H378 0.932 . S
C406 C405 1.405 . S
C406 C407 1.383 . S
C407 C406 1.383 . S
C407 C408 1.393 . S
C408 H380 0.931 . S
C408 C407 1.393 . S
C408 C409 1.382 . S
C409 H379 0.929 1_565 S
C409 C404 1.371 . S
C409 C408 1.382 . S
C410 N373 1.423 1_545 S
C410 C411 1.362 . S
C410 C415 1.388 . S
C411 H381 0.929 . S
C411 C410 1.362 . S
C411 C412 1.376 . S
C412 H383 0.931 . S
C412 C411 1.376 . S
C412 C413 1.396 . S
C413 C412 1.396 . S
C413 C414 1.348 . S
C413 C431 1.472 . S
C414 H384 0.929 . S
C414 C413 1.348 . S
C414 C415 1.443 . S
C415 H382 0.932 1_545 S
C415 C410 1.388 . S
C415 C414 1.443 . S
C416 N396 1.433 . S
C416 C417 1.363 . S
C416 C421 1.370 . S
C417 H385 0.929 . S
C417 C416 1.363 . S
C417 C418 1.385 . S
C418 H386 0.930 . S
C418 C417 1.385 . S
C418 C419 1.357 . S
C419 C418 1.357 . S
C419 C420 1.406 . S
C420 H387 0.929 . S
C420 C419 1.406 . S
C420 C421 1.391 . S
C421 H388 0.931 . S
C421 C416 1.370 . S
C421 C420 1.391 . S
C422 N396 1.435 . S
C422 C423 1.358 . S
C422 C427 1.371 . S
C423 H389 0.930 . S
C423 C422 1.358 . S
C423 C424 1.405 . S
C424 H390 0.932 . S
C424 C423 1.405 . S
C424 C425 1.383 . S
C425 C424 1.383 . S
C425 C426 1.393 . S
C426 H391 0.931 . S
C426 C425 1.393 . S
C426 C427 1.382 . S
C427 H392 0.929 . S
C427 C422 1.371 . S
C427 C426 1.382 . S
C428 N396 1.423 . S
C428 C429 1.362 . S
C428 C433 1.388 . S
C429 H393 0.929 . S
C429 C428 1.362 . S
C429 C430 1.376 . S
C430 H394 0.931 . S
C430 C429 1.376 . S
C430 C431 1.396 . S
C431 C413 1.472 . S
C431 C430 1.396 . S
C431 C432 1.348 . S
C432 H395 0.929 . S
C432 C431 1.348 . S
C432 C433 1.443 . S
C433 H397 0.932 . S
C433 C428 1.388 . S
C433 C432 1.443 . S
H434 C461 0.929 . S
N435 C460 1.433 . S
N435 C466 1.435 . S
N435 C472 1.423 . S
H436 C462 0.930 . S
H437 C465 0.931 . S
H438 C464 0.929 . S
H439 C467 0.930 . S
H440 C468 0.932 . S
H441 C471 0.929 . S
H442 C470 0.931 . S
H443 C473 0.929 . S
H444 C477 0.932 . S
H445 C474 0.931 . S
H446 C476 0.929 . S
H447 C479 0.929 1_655 S
H448 C480 0.930 1_655 S
H449 C482 0.929 . S
H450 C483 0.931 . S
H451 C485 0.930 . S
H452 C486 0.932 . S
H453 C488 0.931 . S
H454 C489 0.925 1_655 S
H455 C491 0.929 . S
H456 C492 0.931 . S
H457 C494 0.929 . S
N458 C478 1.433 . S
N458 C484 1.435 . S
N458 C490 1.423 . S
H459 C495 0.932 . S
C460 N435 1.433 . S
C460 C461 1.363 . S
C460 C465 1.370 . S
C461 H434 0.929 . S
C461 C460 1.363 . S
C461 C462 1.385 . S
C462 H436 0.930 . S
C462 C461 1.385 . S
C462 C463 1.357 . S
C463 C462 1.357 . S
C463 C464 1.406 . S
C464 H438 0.929 . S
C464 C463 1.406 . S
C464 C465 1.391 . S
C465 H437 0.931 . S
C465 C460 1.370 . S
C465 C464 1.391 . S
C466 N435 1.435 . S
C466 C467 1.358 . S
C466 C471 1.371 . S
C467 H439 0.930 . S
C467 C466 1.358 . S
C467 C468 1.405 . S
C468 H440 0.932 . S
C468 C467 1.405 . S
C468 C469 1.383 . S
C469 C468 1.383 . S
C469 C470 1.393 . S
C470 H442 0.931 . S
C470 C469 1.393 . S
C470 C471 1.382 . S
C471 H441 0.929 . S
C471 C466 1.371 . S
C471 C470 1.382 . S
C472 N435 1.423 . S
C472 C473 1.362 . S
C472 C477 1.388 . S
C473 H443 0.929 . S
C473 C472 1.362 . S
C473 C474 1.376 . S
C474 H445 0.931 . S
C474 C473 1.376 . S
C474 C475 1.396 . S
C475 C474 1.396 . S
C475 C476 1.348 . S
C475 C493 1.472 . S
C476 H446 0.929 . S
C476 C475 1.348 . S
C476 C477 1.443 . S
C477 H444 0.932 . S
C477 C472 1.388 . S
C477 C476 1.443 . S
C478 N458 1.433 . S
C478 C479 1.363 . S
C478 C483 1.370 . S
C479 H447 0.929 1_455 S
C479 C478 1.363 . S
C479 C480 1.385 . S
C480 H448 0.930 1_455 S
C480 C479 1.385 . S
C480 C481 1.357 . S
C481 C480 1.357 . S
C481 C482 1.406 . S
C482 H449 0.929 . S
C482 C481 1.406 . S
C482 C483 1.391 . S
C483 H450 0.931 . S
C483 C478 1.370 . S
C483 C482 1.391 . S
C484 N458 1.435 . S
C484 C485 1.358 . S
C484 C489 1.379 . S
C485 H451 0.930 . S
C485 C484 1.358 . S
C485 C486 1.405 . S
C486 H452 0.932 . S
C486 C485 1.405 . S
C486 C487 1.383 1_455 S
C487 C486 1.383 1_655 S
C487 C488 1.393 . S
C488 H453 0.931 . S
C488 C487 1.393 . S
C488 C489 1.376 1_655 S
C489 H454 0.925 1_455 S
C489 C484 1.379 . S
C489 C488 1.376 1_455 S
C490 N458 1.423 . S
C490 C491 1.362 . S
C490 C495 1.388 . S
C491 H455 0.929 . S
C491 C490 1.362 . S
C491 C492 1.376 . S
C492 H456 0.931 . S
C492 C491 1.376 . S
C492 C493 1.396 . S
C493 C475 1.472 . S
C493 C492 1.396 . S
C493 C494 1.348 . S
C494 H457 0.929 . S
C494 C493 1.348 . S
C494 C495 1.443 . S
C495 H459 0.932 . S
C495 C490 1.388 . S
C495 C494 1.443 . S
O496 Cd497 2.223 . S
O496 C504 1.315 . S
Cd497 O496 2.223 . S
Cd497 O500 2.297 . S
Cd497 O501 2.439 . S
Cd497 O507 2.240 . S
Cd498 O499 2.240 . S
Cd498 O506 2.223 . S
Cd498 O508 2.297 . S
Cd498 O509 2.439 . S
O499 Cd498 2.240 . S
O499 C504 1.279 . S
O500 Cd497 2.297 . S
O500 C502 1.247 . S
O501 Cd497 2.439 . S
O501 C502 1.208 . S
C502 O500 1.247 . S
C502 O501 1.208 . S
C503 O508 1.247 . S
C503 O509 1.208 . S
C504 O496 1.315 . S
C504 O499 1.279 . S
C505 O506 1.315 . S
C505 O507 1.279 . S
O506 Cd498 2.223 . S
O506 C505 1.315 . S
O507 Cd497 2.240 . S
O507 C505 1.279 . S
O508 Cd498 2.297 . S
O508 C503 1.247 . S
O509 Cd498 2.439 . S
O509 C503 1.208 . S
O510 Cd511 2.223 . S
O510 C518 1.315 . S
Cd511 O510 2.223 . S
Cd511 O514 2.297 . S
Cd511 O515 2.439 . S
Cd511 O521 2.240 . S
Cd512 O513 2.240 . S
Cd512 O520 2.223 . S
Cd512 O522 2.297 . S
Cd512 O523 2.439 . S
O513 Cd512 2.240 . S
O513 C518 1.279 . S
O514 Cd511 2.297 . S
O514 C516 1.247 . S
O515 Cd511 2.439 . S
O515 C516 1.208 . S
C516 O514 1.247 . S
C516 O515 1.208 . S
C517 O522 1.247 . S
C517 O523 1.208 . S
C518 O510 1.315 . S
C518 O513 1.279 . S
C519 O520 1.315 . S
C519 O521 1.279 . S
O520 Cd512 2.223 . S
O520 C519 1.315 . S
O521 Cd511 2.240 . S
O521 C519 1.279 . S
O522 Cd512 2.297 . S
O522 C517 1.247 . S
O523 Cd512 2.439 . S
O523 C517 1.208 . S
O524 Cd525 2.223 . S
O524 C532 1.315 . S
Cd525 O524 2.223 . S
Cd525 O528 2.297 . S
Cd525 O529 2.439 . S
Cd525 O535 2.240 . S
Cd526 O527 2.240 . S
Cd526 O534 2.223 . S
Cd526 O536 2.297 . S
Cd526 O537 2.439 . S
O527 Cd526 2.240 . S
O527 C532 1.279 . S
O528 Cd525 2.297 . S
O528 C530 1.247 . S
O529 Cd525 2.439 . S
O529 C530 1.208 . S
C530 O528 1.247 . S
C530 O529 1.208 . S
C531 O536 1.247 . S
C531 O537 1.208 . S
C532 O524 1.315 . S
C532 O527 1.279 . S
C533 O534 1.315 . S
C533 O535 1.279 . S
O534 Cd526 2.223 . S
O534 C533 1.315 . S
O535 Cd525 2.240 . S
O535 C533 1.279 . S
O536 Cd526 2.297 . S
O536 C531 1.247 . S
O537 Cd526 2.439 . S
O537 C531 1.208 . S
O538 Cd539 2.223 . S
O538 C546 1.315 . S
Cd539 O538 2.223 . S
Cd539 O542 2.297 . S
Cd539 O543 2.439 . S
Cd539 O549 2.240 . S
Cd540 O541 2.240 . S
Cd540 O548 2.223 . S
Cd540 O550 2.297 . S
Cd540 O551 2.439 . S
O541 Cd540 2.240 . S
O541 C546 1.279 . S
O542 Cd539 2.297 . S
O542 C544 1.247 . S
O543 Cd539 2.439 . S
O543 C544 1.208 . S
C544 O542 1.247 . S
C544 O543 1.208 . S
C545 O550 1.247 . S
C545 O551 1.208 . S
C546 O538 1.315 . S
C546 O541 1.279 . S
C547 O548 1.315 . S
C547 O549 1.279 . S
O548 Cd540 2.223 . S
O548 C547 1.315 . S
O549 Cd539 2.240 . S
O549 C547 1.279 . S
O550 Cd540 2.297 . S
O550 C545 1.247 . S
O551 Cd540 2.439 . S
O551 C545 1.208 . S
O552 Cd553 2.223 . S
O552 C560 1.315 . S
Cd553 O552 2.223 . S
Cd553 O556 2.297 . S
Cd553 O557 2.439 . S
Cd553 O563 2.240 . S
Cd554 O555 2.240 . S
Cd554 O562 2.223 . S
Cd554 O564 2.297 . S
Cd554 O565 2.439 . S
O555 Cd554 2.240 . S
O555 C560 1.279 . S
O556 Cd553 2.297 . S
O556 C558 1.247 . S
O557 Cd553 2.439 . S
O557 C558 1.208 . S
C558 O556 1.247 . S
C558 O557 1.208 . S
C559 O564 1.247 . S
C559 O565 1.208 . S
C560 O552 1.315 . S
C560 O555 1.279 . S
C561 O562 1.315 . S
C561 O563 1.279 . S
O562 Cd554 2.223 . S
O562 C561 1.315 . S
O563 Cd553 2.240 . S
O563 C561 1.279 . S
O564 Cd554 2.297 . S
O564 C559 1.247 . S
O565 Cd554 2.439 . S
O565 C559 1.208 . S
O566 Cd567 2.223 . S
O566 C574 1.315 . S
Cd567 O566 2.223 . S
Cd567 O570 2.297 . S
Cd567 O571 2.439 . S
Cd567 O577 2.240 . S
Cd568 O569 2.240 . S
Cd568 O576 2.223 . S
Cd568 O578 2.297 . S
Cd568 O579 2.439 . S
O569 Cd568 2.240 . S
O569 C574 1.279 . S
O570 Cd567 2.297 . S
O570 C572 1.247 . S
O571 Cd567 2.439 . S
O571 C572 1.208 . S
C572 O570 1.247 . S
C572 O571 1.208 . S
C573 O578 1.247 . S
C573 O579 1.208 . S
C574 O566 1.315 . S
C574 O569 1.279 . S
C575 O576 1.315 . S
C575 O577 1.279 . S
O576 Cd568 2.223 . S
O576 C575 1.315 . S
O577 Cd567 2.240 . S
O577 C575 1.279 . S
O578 Cd568 2.297 . S
O578 C573 1.247 . S
O579 Cd568 2.439 . S
O579 C573 1.208 . S
O580 Cd581 2.223 . S
O580 C588 1.315 . S
Cd581 O580 2.223 . S
Cd581 O584 2.297 . S
Cd581 O585 2.444 . S
Cd581 O591 2.240 1_554 S
Cd582 O583 2.240 1_556 S
Cd582 O590 2.227 . S
Cd582 O592 2.297 . S
Cd582 O593 2.439 . S
O583 Cd582 2.240 1_554 S
O583 C588 1.279 . S
O584 Cd581 2.297 . S
O584 C586 1.247 . S
O585 Cd581 2.444 . S
O585 C586 1.227 . S
C586 O584 1.247 . S
C586 O585 1.227 . S
C587 O592 1.247 . S
C587 O593 1.208 . S
C588 O580 1.315 . S
C588 O583 1.279 . S
C589 O590 1.325 . S
C589 O591 1.279 . S
O590 Cd582 2.227 . S
O590 C589 1.325 . S
O591 Cd581 2.240 1_556 S
O591 C589 1.279 . S
O592 Cd582 2.297 . S
O592 C587 1.247 . S
O593 Cd582 2.439 . S
O593 C587 1.208 . S
O594 Cd595 2.223 . S
O594 C602 1.315 . S
Cd595 O594 2.223 . S
Cd595 O598 2.297 . S
Cd595 O599 2.439 . S
Cd595 O605 2.240 . S
Cd596 O597 2.240 . S
Cd596 O604 2.223 . S
Cd596 O606 2.297 . S
Cd596 O607 2.439 . S
O597 Cd596 2.240 . S
O597 C602 1.279 . S
O598 Cd595 2.297 . S
O598 C600 1.247 . S
O599 Cd595 2.439 . S
O599 C600 1.208 . S
C600 O598 1.247 . S
C600 O599 1.208 . S
C601 O606 1.247 . S
C601 O607 1.208 . S
C602 O594 1.315 . S
C602 O597 1.279 . S
C603 O604 1.315 . S
C603 O605 1.279 . S
O604 Cd596 2.223 . S
O604 C603 1.315 . S
O605 Cd595 2.240 . S
O605 C603 1.279 . S
O606 Cd596 2.297 . S
O606 C601 1.247 . S
O607 Cd596 2.439 . S
O607 C601 1.208 . S
C608 C609 1.349 . S
C608 C610 1.327 . S
C608 H633 0.950 . S
C609 C608 1.349 . S
C609 C625 1.349 . S
C610 C608 1.327 . S
C610 C629 1.429 . S
C610 H634 0.950 . S
C611 C628 1.574 . S
C611 C630 1.368 . S
C611 H635 0.949 . S
H612 C616 0.949 . S
C613 C614 1.349 . S
C613 C615 1.327 . S
C613 H636 0.950 . S
C614 C613 1.349 . S
C614 C626 1.349 . S
C615 C613 1.327 . S
C615 C631 1.429 . S
C615 H637 0.950 . S
C616 H612 0.949 . S
C616 C624 1.574 . S
C616 C632 1.368 . S
H617 C625 0.950 . S
H618 C623 0.950 . S
H619 C624 0.949 . S
H620 C626 0.950 . S
H621 C627 0.950 . S
H622 C628 0.949 . S
C623 H618 0.950 . S
C623 C625 1.327 . S
C623 C629 1.429 . S
C624 C616 1.574 . S
C624 H619 0.949 . S
C624 C630 1.368 . S
C625 C609 1.349 . S
C625 H617 0.950 . S
C625 C623 1.327 . S
C626 C614 1.349 . S
C626 H620 0.950 . S
C626 C627 1.327 . S
C627 H621 0.950 . S
C627 C626 1.327 . S
C627 C631 1.429 . S
C628 C611 1.574 . S
C628 H622 0.949 . S
C628 C632 1.368 . S
C629 C610 1.429 . S
C629 C623 1.429 . S
C629 C630 1.523 . S
C630 C611 1.368 . S
C630 C624 1.368 . S
C630 C629 1.523 . S
C631 C615 1.429 . S
C631 C627 1.429 . S
C631 C632 1.523 . S
C632 C616 1.368 . S
C632 C628 1.368 . S
C632 C631 1.523 . S
H633 C608 0.950 . S
H634 C610 0.950 . S
H635 C611 0.949 . S
H636 C613 0.950 . S
H637 C615 0.950 . S
C638 C639 1.349 . S
C638 C640 1.327 . S
C638 H663 0.950 . S
C639 C638 1.349 . S
C639 C655 1.349 . S
C640 C638 1.327 . S
C640 C659 1.429 . S
C640 H664 0.950 . S
C641 C658 1.574 . S
C641 C660 1.368 . S
C641 H665 0.949 . S
H642 C646 0.949 . S
C643 C644 1.349 . S
C643 C645 1.327 . S
C643 H666 0.950 . S
C644 C643 1.349 . S
C644 C656 1.349 . S
C645 C643 1.327 . S
C645 C661 1.429 . S
C645 H667 0.950 . S
C646 H642 0.949 . S
C646 C654 1.574 . S
C646 C662 1.368 . S
H647 C655 0.950 . S
H648 C653 0.950 . S
H649 C654 0.949 . S
H650 C656 0.950 . S
H651 C657 0.950 . S
H652 C658 0.949 . S
C653 H648 0.950 . S
C653 C655 1.327 . S
C653 C659 1.429 . S
C654 C646 1.574 . S
C654 H649 0.949 . S
C654 C660 1.368 . S
C655 C639 1.349 . S
C655 H647 0.950 . S
C655 C653 1.327 . S
C656 C644 1.349 . S
C656 H650 0.950 . S
C656 C657 1.327 . S
C657 H651 0.950 . S
C657 C656 1.327 . S
C657 C661 1.429 . S
C658 C641 1.574 . S
C658 H652 0.949 . S
C658 C662 1.368 . S
C659 C640 1.429 . S
C659 C653 1.429 . S
C659 C660 1.523 . S
C660 C641 1.368 . S
C660 C654 1.368 . S
C660 C659 1.523 . S
C661 C645 1.429 . S
C661 C657 1.429 . S
C661 C662 1.523 . S
C662 C646 1.368 . S
C662 C658 1.368 . S
C662 C661 1.523 . S
H663 C638 0.950 . S
H664 C640 0.950 . S
H665 C641 0.949 . S
H666 C643 0.950 . S
H667 C645 0.950 . S
C668 C669 1.349 . S
C668 C670 1.327 . S
C668 H693 0.950 . S
C669 C668 1.349 . S
C669 C685 1.349 . S
C670 C668 1.327 . S
C670 C689 1.429 . S
C670 H694 0.950 . S
C671 C688 1.574 . S
C671 C690 1.368 . S
C671 H695 0.949 . S
H672 C676 0.949 . S
C673 C674 1.349 . S
C673 C675 1.327 . S
C673 H696 0.950 . S
C674 C673 1.349 . S
C674 C686 1.349 . S
C675 C673 1.327 . S
C675 C691 1.429 . S
C675 H697 0.950 . S
C676 H672 0.949 . S
C676 C684 1.574 . S
C676 C692 1.368 . S
H677 C685 0.950 . S
H678 C683 0.950 . S
H679 C684 0.949 . S
H680 C686 0.950 . S
H681 C687 0.950 . S
H682 C688 0.949 . S
C683 H678 0.950 . S
C683 C685 1.327 . S
C683 C689 1.429 . S
C684 C676 1.574 . S
C684 H679 0.949 . S
C684 C690 1.368 . S
C685 C669 1.349 . S
C685 H677 0.950 . S
C685 C683 1.327 . S
C686 C674 1.349 . S
C686 H680 0.950 . S
C686 C687 1.327 . S
C687 H681 0.950 . S
C687 C686 1.327 . S
C687 C691 1.429 . S
C688 C671 1.574 . S
C688 H682 0.949 . S
C688 C692 1.368 . S
C689 C670 1.429 . S
C689 C683 1.429 . S
C689 C690 1.523 . S
C690 C671 1.368 . S
C690 C684 1.368 . S
C690 C689 1.523 . S
C691 C675 1.429 . S
C691 C687 1.429 . S
C691 C692 1.523 . S
C692 C676 1.368 . S
C692 C688 1.368 . S
C692 C691 1.523 . S
H693 C668 0.950 . S
H694 C670 0.950 . S
H695 C671 0.949 . S
H696 C673 0.950 . S
H697 C675 0.950 . S
C698 C699 1.349 . S
C698 C700 1.327 . S
C698 H723 0.950 . S
C699 C698 1.349 . S
C699 C715 1.349 . S
C700 C698 1.327 . S
C700 C719 1.429 . S
C700 H724 0.950 . S
C701 C718 1.574 . S
C701 C720 1.368 . S
C701 H725 0.949 . S
H702 C706 0.949 . S
C703 C704 1.349 . S
C703 C705 1.327 . S
C703 H726 0.950 . S
C704 C703 1.349 . S
C704 C716 1.349 . S
C705 C703 1.327 . S
C705 C721 1.429 . S
C705 H727 0.950 . S
C706 H702 0.949 . S
C706 C714 1.574 . S
C706 C722 1.368 . S
H707 C715 0.950 . S
H708 C713 0.950 . S
H709 C714 0.949 . S
H710 C716 0.950 . S
H711 C717 0.950 . S
H712 C718 0.949 . S
C713 H708 0.950 . S
C713 C715 1.327 . S
C713 C719 1.429 . S
C714 C706 1.574 . S
C714 H709 0.949 . S
C714 C720 1.368 . S
C715 C699 1.349 . S
C715 H707 0.950 . S
C715 C713 1.327 . S
C716 C704 1.349 . S
C716 H710 0.950 . S
C716 C717 1.327 . S
C717 H711 0.950 . S
C717 C716 1.327 . S
C717 C721 1.429 . S
C718 C701 1.574 . S
C718 H712 0.949 . S
C718 C722 1.368 . S
C719 C700 1.429 . S
C719 C713 1.429 . S
C719 C720 1.523 . S
C720 C701 1.368 . S
C720 C714 1.368 . S
C720 C719 1.523 . S
C721 C705 1.429 . S
C721 C717 1.429 . S
C721 C722 1.523 . S
C722 C706 1.368 . S
C722 C718 1.368 . S
C722 C721 1.523 . S
H723 C698 0.950 . S
H724 C700 0.950 . S
H725 C701 0.949 . S
H726 C703 0.950 . S
H727 C705 0.950 . S
C728 C729 1.349 . S
C728 C730 1.327 . S
C728 H753 0.950 . S
C729 C728 1.349 . S
C729 C745 1.349 . S
C730 C728 1.327 . S
C730 C749 1.429 . S
C730 H754 0.950 . S
C731 C748 1.574 . S
C731 C750 1.368 . S
C731 H755 0.977 . S
H732 C736 0.949 . S
C733 C734 1.349 . S
C733 C735 1.327 . S
C733 H756 0.950 . S
C734 C733 1.349 . S
C734 C746 1.349 . S
C735 C733 1.327 . S
C735 C751 1.429 . S
C735 H757 0.950 . S
C736 H732 0.949 . S
C736 C744 1.574 . S
C736 C752 1.368 . S
H737 C745 0.950 1_556 S
H738 C743 0.950 1_556 S
H739 C744 0.949 . S
H740 C746 0.950 . S
H741 C747 0.950 . S
H742 C748 0.949 . S
C743 H738 0.950 1_554 S
C743 C745 1.327 . S
C743 C749 1.429 . S
C744 C736 1.574 . S
C744 H739 0.949 . S
C744 C750 1.368 . S
C745 C729 1.349 . S
C745 H737 0.950 1_554 S
C745 C743 1.327 . S
C746 C734 1.349 . S
C746 H740 0.950 . S
C746 C747 1.327 . S
C747 H741 0.950 . S
C747 C746 1.327 . S
C747 C751 1.429 . S
C748 C731 1.574 . S
C748 H742 0.949 . S
C748 C752 1.368 . S
C749 C730 1.429 . S
C749 C743 1.429 . S
C749 C750 1.523 . S
C750 C731 1.368 . S
C750 C744 1.368 . S
C750 C749 1.523 . S
C751 C735 1.429 . S
C751 C747 1.429 . S
C751 C752 1.523 . S
C752 C736 1.368 . S
C752 C748 1.368 . S
C752 C751 1.523 . S
H753 C728 0.950 . S
H754 C730 0.950 . S
H755 C731 0.977 . S
H756 C733 0.950 . S
H757 C735 0.950 . S
C758 C759 1.349 . S
C758 C760 1.327 . S
C758 H783 0.950 . S
C759 C758 1.349 . S
C759 C775 1.349 . S
C760 C758 1.327 . S
C760 C779 1.429 . S
C760 H784 0.950 . S
C761 C778 1.574 . S
C761 C780 1.368 . S
C761 H785 0.949 . S
H762 C766 0.949 . S
C763 C764 1.349 . S
C763 C765 1.327 . S
C763 H786 0.950 . S
C764 C763 1.349 . S
C764 C776 1.349 . S
C765 C763 1.327 . S
C765 C781 1.429 . S
C765 H787 0.950 . S
C766 H762 0.949 . S
C766 C774 1.574 . S
C766 C782 1.368 . S
H767 C775 0.950 . S
H768 C773 0.950 . S
H769 C774 0.949 . S
H770 C776 0.950 . S
H771 C777 0.950 . S
H772 C778 0.949 . S
C773 H768 0.950 . S
C773 C775 1.327 . S
C773 C779 1.429 . S
C774 C766 1.574 . S
C774 H769 0.949 . S
C774 C780 1.368 . S
C775 C759 1.349 . S
C775 H767 0.950 . S
C775 C773 1.327 . S
C776 C764 1.349 . S
C776 H770 0.950 . S
C776 C777 1.327 . S
C777 H771 0.950 . S
C777 C776 1.327 . S
C777 C781 1.429 . S
C778 C761 1.574 . S
C778 H772 0.949 . S
C778 C782 1.368 . S
C779 C760 1.429 . S
C779 C773 1.429 . S
C779 C780 1.523 . S
C780 C761 1.368 . S
C780 C774 1.368 . S
C780 C779 1.523 . S
C781 C765 1.429 . S
C781 C777 1.429 . S
C781 C782 1.523 . S
C782 C766 1.368 . S
C782 C778 1.368 . S
C782 C781 1.523 . S
H783 C758 0.950 . S
H784 C760 0.950 . S
H785 C761 0.949 . S
H786 C763 0.950 . S
H787 C765 0.950 . S
C788 C789 1.349 . S
C788 C790 1.327 . S
C788 H813 0.950 . S
C789 C788 1.349 . S
C789 C805 1.349 . S
C790 C788 1.327 . S
C790 C809 1.429 . S
C790 H814 0.950 . S
C791 C808 1.574 . S
C791 C810 1.368 . S
C791 H815 0.949 . S
H792 C796 0.949 . S
C793 C794 1.349 . S
C793 C795 1.327 . S
C793 H816 0.950 . S
C794 C793 1.349 . S
C794 C806 1.349 . S
C795 C793 1.327 . S
C795 C811 1.429 . S
C795 H817 0.950 . S
C796 H792 0.949 . S
C796 C804 1.574 . S
C796 C812 1.368 . S
H797 C805 0.950 . S
H798 C803 0.950 . S
H799 C804 0.949 . S
H800 C806 0.950 . S
H801 C807 0.950 . S
H802 C808 0.949 . S
C803 H798 0.950 . S
C803 C805 1.327 . S
C803 C809 1.429 . S
C804 C796 1.574 . S
C804 H799 0.949 . S
C804 C810 1.368 . S
C805 C789 1.349 . S
C805 H797 0.950 . S
C805 C803 1.327 . S
C806 C794 1.349 . S
C806 H800 0.950 . S
C806 C807 1.327 . S
C807 H801 0.950 . S
C807 C806 1.327 . S
C807 C811 1.429 . S
C808 C791 1.574 . S
C808 H802 0.949 . S
C808 C812 1.368 . S
C809 C790 1.429 . S
C809 C803 1.429 . S
C809 C810 1.523 . S
C810 C791 1.368 . S
C810 C804 1.368 . S
C810 C809 1.523 . S
C811 C795 1.429 . S
C811 C807 1.429 . S
C811 C812 1.523 . S
C812 C796 1.368 . S
C812 C808 1.368 . S
C812 C811 1.523 . S
H813 C788 0.950 . S
H814 C790 0.950 . S
H815 C791 0.949 . S
H816 C793 0.950 . S
H817 C795 0.950 . S
C818 C819 1.349 . S
C818 C820 1.327 1_545 S
C818 H843 0.950 . S
C819 C818 1.349 . S
C819 C835 1.349 . S
C820 C818 1.327 1_565 S
C820 C839 1.429 . S
C820 H844 0.950 . S
C821 C838 1.574 . S
C821 C840 1.368 . S
C821 H845 0.949 . S
H822 C826 0.949 . S
C823 C824 1.349 . S
C823 C825 1.327 . S
C823 H846 0.950 . S
C824 C823 1.349 . S
C824 C836 1.349 . S
C825 C823 1.327 . S
C825 C841 1.429 . S
C825 H847 0.950 . S
C826 H822 0.949 . S
C826 C834 1.574 . S
C826 C842 1.368 . S
H827 C835 0.950 . S
H828 C833 0.950 . S
H829 C834 0.949 . S
H830 C836 0.950 . S
H831 C837 0.950 . S
H832 C838 0.949 . S
C833 H828 0.950 . S
C833 C835 1.327 1_565 S
C833 C839 1.429 . S
C834 C826 1.574 . S
C834 H829 0.949 . S
C834 C840 1.368 . S
C835 C819 1.349 . S
C835 H827 0.950 . S
C835 C833 1.327 1_545 S
C836 C824 1.349 . S
C836 H830 0.950 . S
C836 C837 1.327 . S
C837 H831 0.950 . S
C837 C836 1.327 . S
C837 C841 1.429 . S
C838 C821 1.574 . S
C838 H832 0.949 . S
C838 C842 1.368 . S
C839 C820 1.429 . S
C839 C833 1.429 . S
C839 C840 1.523 . S
C840 C821 1.368 . S
C840 C834 1.368 . S
C840 C839 1.523 . S
C841 C825 1.429 . S
C841 C837 1.429 . S
C841 C842 1.523 . S
C842 C826 1.368 . S
C842 C838 1.368 . S
C842 C841 1.523 . S
H843 C818 0.950 . S
H844 C820 0.950 . S
H845 C821 0.949 . S
H846 C823 0.950 . S
H847 C825 0.950 . S
C848 C849 1.349 . S
C848 C850 1.327 . S
C848 H873 0.950 . S
C849 C848 1.349 . S
C849 C865 1.349 . S
C850 C848 1.327 . S
C850 C869 1.429 . S
C850 H874 0.950 . S
C851 C868 1.574 . S
C851 C870 1.368 . S
C851 H875 0.949 . S
H852 C856 0.949 . S
C853 C854 1.349 . S
C853 C855 1.327 . S
C853 H876 0.950 . S
C854 C853 1.349 . S
C854 C866 1.349 . S
C855 C853 1.327 . S
C855 C871 1.429 . S
C855 H877 0.950 . S
C856 H852 0.949 . S
C856 C864 1.574 . S
C856 C872 1.368 . S
H857 C865 0.950 . S
H858 C863 0.950 . S
H859 C864 0.949 . S
H860 C866 0.950 . S
H861 C867 0.950 . S
H862 C868 0.949 . S
C863 H858 0.950 . S
C863 C865 1.327 . S
C863 C869 1.429 . S
C864 C856 1.574 . S
C864 H859 0.949 . S
C864 C870 1.368 . S
C865 C849 1.349 . S
C865 H857 0.950 . S
C865 C863 1.327 . S
C866 C854 1.349 . S
C866 H860 0.950 . S
C866 C867 1.327 . S
C867 H861 0.950 . S
C867 C866 1.327 . S
C867 C871 1.429 . S
C868 C851 1.574 . S
C868 H862 0.949 . S
C868 C872 1.368 . S
C869 C850 1.429 . S
C869 C863 1.429 . S
C869 C870 1.523 . S
C870 C851 1.368 . S
C870 C864 1.368 . S
C870 C869 1.523 . S
C871 C855 1.429 . S
C871 C867 1.429 . S
C871 C872 1.523 . S
C872 C856 1.368 . S
C872 C868 1.368 . S
C872 C871 1.523 . S
H873 C848 0.950 . S
H874 C850 0.950 . S
H875 C851 0.949 . S
H876 C853 0.950 . S
H877 C855 0.950 . S
C878 C879 1.349 . S
C878 C880 1.327 . S
C878 H903 0.950 . S
C879 C878 1.349 . S
C879 C895 1.349 . S
C880 C878 1.327 . S
C880 C899 1.429 . S
C880 H904 0.950 . S
C881 C898 1.574 . S
C881 C900 1.368 . S
C881 H905 0.949 . S
H882 C886 0.968 . S
C883 C884 1.349 . S
C883 C885 1.327 . S
C883 H906 0.950 . S
C884 C883 1.349 . S
C884 C896 1.349 . S
C885 C883 1.327 . S
C885 C901 1.429 . S
C885 H907 0.950 . S
C886 H882 0.968 . S
C886 C894 1.574 . S
C886 C902 1.368 . S
H887 C895 0.950 . S
H888 C893 0.950 . S
H889 C894 0.949 . S
H890 C896 0.950 1_556 S
H891 C897 0.950 1_556 S
H892 C898 0.949 . S
C893 H888 0.950 . S
C893 C895 1.327 . S
C893 C899 1.429 . S
C894 C886 1.574 . S
C894 H889 0.949 . S
C894 C900 1.368 . S
C895 C879 1.349 . S
C895 H887 0.950 . S
C895 C893 1.327 . S
C896 C884 1.349 . S
C896 H890 0.950 1_554 S
C896 C897 1.327 . S
C897 H891 0.950 1_554 S
C897 C896 1.327 . S
C897 C901 1.429 . S
C898 C881 1.574 . S
C898 H892 0.949 . S
C898 C902 1.368 . S
C899 C880 1.429 . S
C899 C893 1.429 . S
C899 C900 1.523 . S
C900 C881 1.368 . S
C900 C894 1.368 . S
C900 C899 1.523 . S
C901 C885 1.429 . S
C901 C897 1.429 . S
C901 C902 1.523 . S
C902 C886 1.368 . S
C902 C898 1.368 . S
C902 C901 1.523 . S
H903 C878 0.950 . S
H904 C880 0.950 . S
H905 C881 0.949 . S
H906 C883 0.950 . S
H907 C885 0.950 . S
C908 C909 1.349 . S
C908 C910 1.327 . S
C908 H933 0.950 . S
C909 C908 1.349 . S
C909 C925 1.349 . S
C910 C908 1.327 . S
C910 C929 1.429 . S
C910 H934 0.950 . S
C911 C928 1.574 . S
C911 C930 1.368 . S
C911 H935 0.949 . S
H912 C916 0.949 . S
C913 C914 1.349 . S
C913 C915 1.327 . S
C913 H936 0.950 . S
C914 C913 1.349 . S
C914 C926 1.349 . S
C915 C913 1.327 . S
C915 C931 1.429 . S
C915 H937 0.950 . S
C916 H912 0.949 . S
C916 C924 1.574 . S
C916 C932 1.368 . S
H917 C925 0.950 . S
H918 C923 0.950 . S
H919 C924 0.949 . S
H920 C926 0.950 . S
H921 C927 0.950 . S
H922 C928 0.949 . S
C923 H918 0.950 . S
C923 C925 1.327 . S
C923 C929 1.429 . S
C924 C916 1.574 . S
C924 H919 0.949 . S
C924 C930 1.368 . S
C925 C909 1.349 . S
C925 H917 0.950 . S
C925 C923 1.327 . S
C926 C914 1.349 . S
C926 H920 0.950 . S
C926 C927 1.327 . S
C927 H921 0.950 . S
C927 C926 1.327 . S
C927 C931 1.429 . S
C928 C911 1.574 . S
C928 H922 0.949 . S
C928 C932 1.368 . S
C929 C910 1.429 . S
C929 C923 1.429 . S
C929 C930 1.523 . S
C930 C911 1.368 . S
C930 C924 1.368 . S
C930 C929 1.523 . S
C931 C915 1.429 . S
C931 C927 1.429 . S
C931 C932 1.523 . S
C932 C916 1.368 . S
C932 C928 1.368 . S
C932 C931 1.523 . S
H933 C908 0.950 . S
H934 C910 0.950 . S
H935 C911 0.949 . S
H936 C913 0.950 . S
H937 C915 0.950 . S
C938 C939 1.349 . S
C938 C940 1.327 . S
C938 H963 0.950 . S
C939 C938 1.349 . S
C939 C955 1.349 . S
C940 C938 1.327 . S
C940 C959 1.429 . S
C940 H964 0.950 . S
C941 C958 1.574 . S
C941 C960 1.368 . S
C941 H965 0.949 . S
H942 C946 0.949 . S
C943 C944 1.349 . S
C943 C945 1.327 . S
C943 H966 0.950 . S
C944 C943 1.349 . S
C944 C956 1.349 . S
C945 C943 1.327 . S
C945 C961 1.429 . S
C945 H967 0.950 . S
C946 H942 0.949 . S
C946 C954 1.574 . S
C946 C962 1.368 . S
H947 C955 0.950 . S
H948 C953 0.950 . S
H949 C954 0.949 . S
H950 C956 0.950 . S
H951 C957 0.950 . S
H952 C958 0.949 . S
C953 H948 0.950 . S
C953 C955 1.327 . S
C953 C959 1.429 . S
C954 C946 1.574 . S
C954 H949 0.949 . S
C954 C960 1.368 . S
C955 C939 1.349 . S
C955 H947 0.950 . S
C955 C953 1.327 . S
C956 C944 1.349 . S
C956 H950 0.950 . S
C956 C957 1.327 . S
C957 H951 0.950 . S
C957 C956 1.327 . S
C957 C961 1.429 . S
C958 C941 1.574 . S
C958 H952 0.949 . S
C958 C962 1.368 . S
C959 C940 1.429 . S
C959 C953 1.429 . S
C959 C960 1.523 . S
C960 C941 1.368 . S
C960 C954 1.368 . S
C960 C959 1.523 . S
C961 C945 1.429 . S
C961 C957 1.429 . S
C961 C962 1.523 . S
C962 C946 1.368 . S
C962 C958 1.368 . S
C962 C961 1.523 . S
H963 C938 0.950 . S
H964 C940 0.950 . S
H965 C941 0.949 . S
H966 C943 0.950 . S
H967 C945 0.950 . S
C968 C969 1.349 . S
C968 C970 1.327 . S
C968 H993 0.950 . S
C969 C968 1.349 . S
C969 C985 1.349 . S
C970 C968 1.327 . S
C970 C989 1.429 . S
C970 H994 0.950 . S
C971 C988 1.574 . S
C971 C990 1.368 . S
C971 H995 0.949 . S
H972 C976 0.949 . S
C973 C974 1.349 . S
C973 C975 1.327 . S
C973 H996 0.950 . S
C974 C973 1.349 . S
C974 C986 1.349 . S
C975 C973 1.327 . S
C975 C991 1.429 . S
C975 H997 0.950 . S
C976 H972 0.949 . S
C976 C984 1.574 . S
C976 C992 1.368 . S
H977 C985 0.950 . S
H978 C983 0.950 . S
H979 C984 0.949 . S
H980 C986 0.950 . S
H981 C987 0.950 . S
H982 C988 0.949 . S
C983 H978 0.950 . S
C983 C985 1.327 . S
C983 C989 1.429 . S
C984 C976 1.574 . S
C984 H979 0.949 . S
C984 C990 1.368 . S
C985 C969 1.349 . S
C985 H977 0.950 . S
C985 C983 1.327 . S
C986 C974 1.349 . S
C986 H980 0.950 . S
C986 C987 1.327 . S
C987 H981 0.950 . S
C987 C986 1.327 . S
C987 C991 1.429 . S
C988 C971 1.574 . S
C988 H982 0.949 . S
C988 C992 1.368 . S
C989 C970 1.429 . S
C989 C983 1.429 . S
C989 C990 1.523 . S
C990 C971 1.368 . S
C990 C984 1.368 . S
C990 C989 1.523 . S
C991 C975 1.429 . S
C991 C987 1.429 . S
C991 C992 1.523 . S
C992 C976 1.368 . S
C992 C988 1.368 . S
C992 C991 1.523 . S
H993 C968 0.950 . S
H994 C970 0.950 . S
H995 C971 0.949 . S
H996 C973 0.950 . S
H997 C975 0.950 . S
C998 C999 1.349 . S
C998 C1000 1.327 . S
C998 H1023 0.950 . S
C999 C998 1.349 . S
C999 C1015 1.349 . S
C1000 C998 1.327 . S
C1000 C1019 1.429 . S
C1000 H1024 0.950 . S
C1001 C1018 1.574 . S
C1001 C1020 1.368 . S
C1001 H1025 0.949 . S
H1002 C1006 0.949 . S
C1003 C1004 1.349 . S
C1003 C1005 1.327 . S
C1003 H1026 0.950 . S
C1004 C1003 1.349 . S
C1004 C1016 1.349 . S
C1005 C1003 1.327 . S
C1005 C1021 1.429 . S
C1005 H1027 0.950 . S
C1006 H1002 0.949 . S
C1006 C1014 1.574 . S
C1006 C1022 1.368 . S
H1007 C1015 0.950 . S
H1008 C1013 0.950 . S
H1009 C1014 0.949 . S
H1010 C1016 0.950 . S
H1011 C1017 0.950 . S
H1012 C1018 0.949 . S
C1013 H1008 0.950 . S
C1013 C1015 1.327 . S
C1013 C1019 1.429 . S
C1014 C1006 1.574 . S
C1014 H1009 0.949 . S
C1014 C1020 1.368 . S
C1015 C999 1.349 . S
C1015 H1007 0.950 . S
C1015 C1013 1.327 . S
C1016 C1004 1.349 . S
C1016 H1010 0.950 . S
C1016 C1017 1.327 . S
C1017 H1011 0.950 . S
C1017 C1016 1.327 . S
C1017 C1021 1.429 . S
C1018 C1001 1.574 . S
C1018 H1012 0.949 . S
C1018 C1022 1.368 . S
C1019 C1000 1.429 . S
C1019 C1013 1.429 . S
C1019 C1020 1.523 . S
C1020 C1001 1.368 . S
C1020 C1014 1.368 . S
C1020 C1019 1.523 . S
C1021 C1005 1.429 . S
C1021 C1017 1.429 . S
C1021 C1022 1.523 . S
C1022 C1006 1.368 . S
C1022 C1018 1.368 . S
C1022 C1021 1.523 . S
H1023 C998 0.950 . S
H1024 C1000 0.950 . S
H1025 C1001 0.949 . S
H1026 C1003 0.950 . S
H1027 C1005 0.950 . S
C1028 C1029 1.349 . S
C1028 C1030 1.327 . S
C1028 H1053 0.950 . S
C1029 C1028 1.349 . S
C1029 C1045 1.349 . S
C1030 C1028 1.327 . S
C1030 C1049 1.429 . S
C1030 H1054 0.950 . S
C1031 C1048 1.574 . S
C1031 C1050 1.368 . S
C1031 H1055 0.949 . S
H1032 C1036 0.949 . S
C1033 C1034 1.349 . S
C1033 C1035 1.327 . S
C1033 H1056 0.950 . S
C1034 C1033 1.349 . S
C1034 C1046 1.349 . S
C1035 C1033 1.327 . S
C1035 C1051 1.429 . S
C1035 H1057 0.950 . S
C1036 H1032 0.949 . S
C1036 C1044 1.574 . S
C1036 C1052 1.368 . S
H1037 C1045 0.950 . S
H1038 C1043 0.950 . S
H1039 C1044 0.949 . S
H1040 C1046 0.950 . S
H1041 C1047 0.950 . S
H1042 C1048 0.949 . S
C1043 H1038 0.950 . S
C1043 C1045 1.327 . S
C1043 C1049 1.429 . S
C1044 C1036 1.574 . S
C1044 H1039 0.949 . S
C1044 C1050 1.368 . S
C1045 C1029 1.349 . S
C1045 H1037 0.950 . S
C1045 C1043 1.327 . S
C1046 C1034 1.349 . S
C1046 H1040 0.950 . S
C1046 C1047 1.327 . S
C1047 H1041 0.950 . S
C1047 C1046 1.327 . S
C1047 C1051 1.429 . S
C1048 C1031 1.574 . S
C1048 H1042 0.949 . S
C1048 C1052 1.368 . S
C1049 C1030 1.429 . S
C1049 C1043 1.429 . S
C1049 C1050 1.523 . S
C1050 C1031 1.368 . S
C1050 C1044 1.368 . S
C1050 C1049 1.523 . S
C1051 C1035 1.429 . S
C1051 C1047 1.429 . S
C1051 C1052 1.523 . S
C1052 C1036 1.368 . S
C1052 C1048 1.368 . S
C1052 C1051 1.523 . S
H1053 C1028 0.950 . S
H1054 C1030 0.950 . S
H1055 C1031 0.949 . S
H1056 C1033 0.950 . S
H1057 C1035 0.950 . S
C1058 C1059 1.349 . S
C1058 C1060 1.327 . S
C1058 H1083 0.950 . S
C1059 C1058 1.349 . S
C1059 C1075 1.349 . S
C1060 C1058 1.327 . S
C1060 C1079 1.429 . S
C1060 H1084 0.950 . S
C1061 C1078 1.574 . S
C1061 C1080 1.368 . S
C1061 H1085 0.949 . S
H1062 C1066 0.949 . S
C1063 C1064 1.349 . S
C1063 C1065 1.327 . S
C1063 H1086 0.950 . S
C1064 C1063 1.349 . S
C1064 C1076 1.349 . S
C1065 C1063 1.327 . S
C1065 C1081 1.429 . S
C1065 H1087 0.950 . S
C1066 H1062 0.949 . S
C1066 C1074 1.574 . S
C1066 C1082 1.368 . S
H1067 C1075 0.950 . S
H1068 C1073 0.950 . S
H1069 C1074 0.949 . S
H1070 C1076 0.950 . S
H1071 C1077 0.950 . S
H1072 C1078 0.949 . S
C1073 H1068 0.950 . S
C1073 C1075 1.327 . S
C1073 C1079 1.429 . S
C1074 C1066 1.574 . S
C1074 H1069 0.949 . S
C1074 C1080 1.368 . S
C1075 C1059 1.349 . S
C1075 H1067 0.950 . S
C1075 C1073 1.327 . S
C1076 C1064 1.349 . S
C1076 H1070 0.950 . S
C1076 C1077 1.327 . S
C1077 H1071 0.950 . S
C1077 C1076 1.327 . S
C1077 C1081 1.429 . S
C1078 C1061 1.574 . S
C1078 H1072 0.949 . S
C1078 C1082 1.368 . S
C1079 C1060 1.429 . S
C1079 C1073 1.429 . S
C1079 C1080 1.523 . S
C1080 C1061 1.368 . S
C1080 C1074 1.368 . S
C1080 C1079 1.523 . S
C1081 C1065 1.429 . S
C1081 C1077 1.429 . S
C1081 C1082 1.523 . S
C1082 C1066 1.368 . S
C1082 C1078 1.368 . S
C1082 C1081 1.523 . S
H1083 C1058 0.950 . S
H1084 C1060 0.950 . S
H1085 C1061 0.949 . S
H1086 C1063 0.950 . S
H1087 C1065 0.950 . S
C1088 C1089 1.349 . S
C1088 C1090 1.327 . S
C1088 H1113 0.950 . S
C1089 C1088 1.349 . S
C1089 C1105 1.349 . S
C1090 C1088 1.327 . S
C1090 C1109 1.429 . S
C1090 H1114 0.950 . S
C1091 C1108 1.574 . S
C1091 C1110 1.368 . S
C1091 H1115 0.949 . S
H1092 C1096 0.949 . S
C1093 C1094 1.349 . S
C1093 C1095 1.327 . S
C1093 H1116 0.950 . S
C1094 C1093 1.349 . S
C1094 C1106 1.349 . S
C1095 C1093 1.327 . S
C1095 C1111 1.429 . S
C1095 H1117 0.950 . S
C1096 H1092 0.949 . S
C1096 C1104 1.574 . S
C1096 C1112 1.368 . S
H1097 C1105 0.950 . S
H1098 C1103 0.950 . S
H1099 C1104 0.949 . S
H1100 C1106 0.950 . S
H1101 C1107 0.950 . S
H1102 C1108 0.949 . S
C1103 H1098 0.950 . S
C1103 C1105 1.327 . S
C1103 C1109 1.429 . S
C1104 C1096 1.574 . S
C1104 H1099 0.949 . S
C1104 C1110 1.368 . S
C1105 C1089 1.349 . S
C1105 H1097 0.950 . S
C1105 C1103 1.327 . S
C1106 C1094 1.349 . S
C1106 H1100 0.950 . S
C1106 C1107 1.327 . S
C1107 H1101 0.950 . S
C1107 C1106 1.327 . S
C1107 C1111 1.429 . S
C1108 C1091 1.574 . S
C1108 H1102 0.949 . S
C1108 C1112 1.368 . S
C1109 C1090 1.429 . S
C1109 C1103 1.429 . S
C1109 C1110 1.523 . S
C1110 C1091 1.368 . S
C1110 C1104 1.368 . S
C1110 C1109 1.523 . S
C1111 C1095 1.429 . S
C1111 C1107 1.429 . S
C1111 C1112 1.523 . S
C1112 C1096 1.368 . S
C1112 C1108 1.368 . S
C1112 C1111 1.523 . S
H1113 C1088 0.950 . S
H1114 C1090 0.950 . S
H1115 C1091 0.949 . S
H1116 C1093 0.950 . S
H1117 C1095 0.950 . S
C1118 C1119 1.349 . S
C1118 C1120 1.327 . S
C1118 H1143 0.950 . S
C1119 C1118 1.349 . S
C1119 C1135 1.349 . S
C1120 C1118 1.327 . S
C1120 C1139 1.429 . S
C1120 H1144 0.950 . S
C1121 C1138 1.574 . S
C1121 C1140 1.368 . S
C1121 H1145 0.949 . S
H1122 C1126 0.949 . S
C1123 C1124 1.349 . S
C1123 C1125 1.327 . S
C1123 H1146 0.950 . S
C1124 C1123 1.349 . S
C1124 C1136 1.349 . S
C1125 C1123 1.327 . S
C1125 C1141 1.429 . S
C1125 H1147 0.950 . S
C1126 H1122 0.949 . S
C1126 C1134 1.574 . S
C1126 C1142 1.368 . S
H1127 C1135 0.950 . S
H1128 C1133 0.950 . S
H1129 C1134 0.949 . S
H1130 C1136 0.950 . S
H1131 C1137 0.950 . S
H1132 C1138 0.949 . S
C1133 H1128 0.950 . S
C1133 C1135 1.327 . S
C1133 C1139 1.429 . S
C1134 C1126 1.574 . S
C1134 H1129 0.949 . S
C1134 C1140 1.368 . S
C1135 C1119 1.349 . S
C1135 H1127 0.950 . S
C1135 C1133 1.327 . S
C1136 C1124 1.349 . S
C1136 H1130 0.950 . S
C1136 C1137 1.327 . S
C1137 H1131 0.950 . S
C1137 C1136 1.327 . S
C1137 C1141 1.429 . S
C1138 C1121 1.574 . S
C1138 H1132 0.949 . S
C1138 C1142 1.368 . S
C1139 C1120 1.429 . S
C1139 C1133 1.429 . S
C1139 C1140 1.523 . S
C1140 C1121 1.368 . S
C1140 C1134 1.368 . S
C1140 C1139 1.523 . S
C1141 C1125 1.429 . S
C1141 C1137 1.429 . S
C1141 C1142 1.523 . S
C1142 C1126 1.368 . S
C1142 C1138 1.368 . S
C1142 C1141 1.523 . S
H1143 C1118 0.950 . S
H1144 C1120 0.950 . S
H1145 C1121 0.949 . S
H1146 C1123 0.950 . S
H1147 C1125 0.950 . S
C1148 C1149 1.349 . S
C1148 C1150 1.327 . S
C1148 H1173 0.950 . S
C1149 C1148 1.349 . S
C1149 C1165 1.349 . S
C1150 C1148 1.327 . S
C1150 C1169 1.429 . S
C1150 H1174 0.950 . S
C1151 C1168 1.574 . S
C1151 C1170 1.368 . S
C1151 H1175 0.949 . S
H1152 C1156 0.949 . S
C1153 C1154 1.349 . S
C1153 C1155 1.327 . S
C1153 H1176 0.950 . S
C1154 C1153 1.349 . S
C1154 C1166 1.349 . S
C1155 C1153 1.327 . S
C1155 C1171 1.429 . S
C1155 H1177 0.950 . S
C1156 H1152 0.949 . S
C1156 C1164 1.574 . S
C1156 C1172 1.368 . S
H1157 C1165 0.950 . S
H1158 C1163 0.950 . S
H1159 C1164 0.949 . S
H1160 C1166 0.950 1_554 S
H1161 C1167 0.950 . S
H1162 C1168 0.949 . S
C1163 H1158 0.950 . S
C1163 C1165 1.327 . S
C1163 C1169 1.429 . S
C1164 C1156 1.574 . S
C1164 H1159 0.949 . S
C1164 C1170 1.368 . S
C1165 C1149 1.349 . S
C1165 H1157 0.950 . S
C1165 C1163 1.327 . S
C1166 C1154 1.349 . S
C1166 H1160 0.950 1_556 S
C1166 C1167 1.327 . S
C1167 H1161 0.950 . S
C1167 C1166 1.327 . S
C1167 C1171 1.429 . S
C1168 C1151 1.574 . S
C1168 H1162 0.949 . S
C1168 C1172 1.368 . S
C1169 C1150 1.429 . S
C1169 C1163 1.429 . S
C1169 C1170 1.523 . S
C1170 C1151 1.368 . S
C1170 C1164 1.368 . S
C1170 C1169 1.523 . S
C1171 C1155 1.429 . S
C1171 C1167 1.429 . S
C1171 C1172 1.523 . S
C1172 C1156 1.368 . S
C1172 C1168 1.368 . S
C1172 C1171 1.523 . S
H1173 C1148 0.950 . S
H1174 C1150 0.950 . S
H1175 C1151 0.949 . S
H1176 C1153 0.950 . S
H1177 C1155 0.950 . S
C1178 C1179 1.349 . S
C1178 C1180 1.327 . S
C1178 H1203 0.950 . S
C1179 C1178 1.349 . S
C1179 C1195 1.349 . S
C1180 C1178 1.327 . S
C1180 C1199 1.429 . S
C1180 H1204 0.950 . S
C1181 C1198 1.574 . S
C1181 C1200 1.368 . S
C1181 H1205 0.949 . S
H1182 C1186 0.949 . S
C1183 C1184 1.349 . S
C1183 C1185 1.327 . S
C1183 H1206 0.950 . S
C1184 C1183 1.349 . S
C1184 C1196 1.349 . S
C1185 C1183 1.327 . S
C1185 C1201 1.429 . S
C1185 H1207 0.950 . S
C1186 H1182 0.949 . S
C1186 C1194 1.574 . S
C1186 C1202 1.368 . S
H1187 C1195 0.950 . S
H1188 C1193 0.950 . S
H1189 C1194 0.949 . S
H1190 C1196 0.950 . S
H1191 C1197 0.950 . S
H1192 C1198 0.949 . S
C1193 H1188 0.950 . S
C1193 C1195 1.327 . S
C1193 C1199 1.429 . S
C1194 C1186 1.574 . S
C1194 H1189 0.949 . S
C1194 C1200 1.368 . S
C1195 C1179 1.349 . S
C1195 H1187 0.950 . S
C1195 C1193 1.327 . S
C1196 C1184 1.349 . S
C1196 H1190 0.950 . S
C1196 C1197 1.327 . S
C1197 H1191 0.950 . S
C1197 C1196 1.327 . S
C1197 C1201 1.429 . S
C1198 C1181 1.574 . S
C1198 H1192 0.949 . S
C1198 C1202 1.368 . S
C1199 C1180 1.429 . S
C1199 C1193 1.429 . S
C1199 C1200 1.523 . S
C1200 C1181 1.368 . S
C1200 C1194 1.368 . S
C1200 C1199 1.523 . S
C1201 C1185 1.429 . S
C1201 C1197 1.429 . S
C1201 C1202 1.523 . S
C1202 C1186 1.368 . S
C1202 C1198 1.368 . S
C1202 C1201 1.523 . S
H1203 C1178 0.950 . S
H1204 C1180 0.950 . S
H1205 C1181 0.949 . S
H1206 C1183 0.950 . S
H1207 C1185 0.950 . S
C1208 C1209 1.349 . S
C1208 C1210 1.327 . S
C1208 H1233 0.950 . S
C1209 C1208 1.349 . S
C1209 C1225 1.349 . S
C1210 C1208 1.327 . S
C1210 C1229 1.429 . S
C1210 H1234 0.950 . S
C1211 C1228 1.574 . S
C1211 C1230 1.368 . S
C1211 H1235 0.949 . S
H1212 C1216 0.949 . S
C1213 C1214 1.349 . S
C1213 C1215 1.327 . S
C1213 H1236 0.950 . S
C1214 C1213 1.349 . S
C1214 C1226 1.349 . S
C1215 C1213 1.327 . S
C1215 C1231 1.429 . S
C1215 H1237 0.950 . S
C1216 H1212 0.949 . S
C1216 C1224 1.574 . S
C1216 C1232 1.368 . S
H1217 C1225 0.950 . S
H1218 C1223 0.950 . S
H1219 C1224 0.949 . S
H1220 C1226 0.950 . S
H1221 C1227 0.950 . S
H1222 C1228 0.949 . S
C1223 H1218 0.950 . S
C1223 C1225 1.327 . S
C1223 C1229 1.429 . S
C1224 C1216 1.574 . S
C1224 H1219 0.949 . S
C1224 C1230 1.368 . S
C1225 C1209 1.349 . S
C1225 H1217 0.950 . S
C1225 C1223 1.327 . S
C1226 C1214 1.349 . S
C1226 H1220 0.950 . S
C1226 C1227 1.327 . S
C1227 H1221 0.950 . S
C1227 C1226 1.327 . S
C1227 C1231 1.429 . S
C1228 C1211 1.574 . S
C1228 H1222 0.949 . S
C1228 C1232 1.368 . S
C1229 C1210 1.429 . S
C1229 C1223 1.429 . S
C1229 C1230 1.523 . S
C1230 C1211 1.368 . S
C1230 C1224 1.368 . S
C1230 C1229 1.523 . S
C1231 C1215 1.429 . S
C1231 C1227 1.429 . S
C1231 C1232 1.523 . S
C1232 C1216 1.368 . S
C1232 C1228 1.368 . S
C1232 C1231 1.523 . S
H1233 C1208 0.950 . S
H1234 C1210 0.950 . S
H1235 C1211 0.949 . S
H1236 C1213 0.950 . S
H1237 C1215 0.950 . S
C1238 C1239 1.349 . S
C1238 C1240 1.327 . S
C1238 H1263 0.950 . S
C1239 C1238 1.349 . S
C1239 C1255 1.349 . S
C1240 C1238 1.327 . S
C1240 C1259 1.429 . S
C1240 H1264 0.950 . S
C1241 C1258 1.574 . S
C1241 C1260 1.368 . S
C1241 H1265 0.949 . S
H1242 C1246 0.949 . S
C1243 C1244 1.349 . S
C1243 C1245 1.327 . S
C1243 H1266 0.950 . S
C1244 C1243 1.349 . S
C1244 C1256 1.349 . S
C1245 C1243 1.327 . S
C1245 C1261 1.429 . S
C1245 H1267 0.950 . S
C1246 H1242 0.949 . S
C1246 C1254 1.574 . S
C1246 C1262 1.368 . S
H1247 C1255 0.950 . S
H1248 C1253 0.950 . S
H1249 C1254 0.949 . S
H1250 C1256 0.950 . S
H1251 C1257 0.950 . S
H1252 C1258 0.949 . S
C1253 H1248 0.950 . S
C1253 C1255 1.327 . S
C1253 C1259 1.429 . S
C1254 C1246 1.574 . S
C1254 H1249 0.949 . S
C1254 C1260 1.368 . S
C1255 C1239 1.349 . S
C1255 H1247 0.950 . S
C1255 C1253 1.327 . S
C1256 C1244 1.349 . S
C1256 H1250 0.950 . S
C1256 C1257 1.327 . S
C1257 H1251 0.950 . S
C1257 C1256 1.327 . S
C1257 C1261 1.429 . S
C1258 C1241 1.574 . S
C1258 H1252 0.949 . S
C1258 C1262 1.368 . S
C1259 C1240 1.429 . S
C1259 C1253 1.429 . S
C1259 C1260 1.523 . S
C1260 C1241 1.368 . S
C1260 C1254 1.368 . S
C1260 C1259 1.523 . S
C1261 C1245 1.429 . S
C1261 C1257 1.429 . S
C1261 C1262 1.523 . S
C1262 C1246 1.368 . S
C1262 C1258 1.368 . S
C1262 C1261 1.523 . S
H1263 C1238 0.950 . S
H1264 C1240 0.950 . S
H1265 C1241 0.949 . S
H1266 C1243 0.950 . S
H1267 C1245 0.950 . S
C1268 C1269 1.349 . S
C1268 C1270 1.327 . S
C1268 H1293 0.950 . S
C1269 C1268 1.349 . S
C1269 C1285 1.349 . S
C1270 C1268 1.327 . S
C1270 C1289 1.429 . S
C1270 H1294 0.950 . S
C1271 C1288 1.574 . S
C1271 C1290 1.368 . S
C1271 H1295 0.949 . S
H1272 C1276 0.949 . S
C1273 C1274 1.349 . S
C1273 C1275 1.327 . S
C1273 H1296 0.950 . S
C1274 C1273 1.349 . S
C1274 C1286 1.349 . S
C1275 C1273 1.327 . S
C1275 C1291 1.429 . S
C1275 H1297 0.950 . S
C1276 H1272 0.949 . S
C1276 C1284 1.574 . S
C1276 C1292 1.368 . S
H1277 C1285 0.950 . S
H1278 C1283 0.950 . S
H1279 C1284 0.949 . S
H1280 C1286 0.950 . S
H1281 C1287 0.950 . S
H1282 C1288 0.949 . S
C1283 H1278 0.950 . S
C1283 C1285 1.327 . S
C1283 C1289 1.429 . S
C1284 C1276 1.574 . S
C1284 H1279 0.949 . S
C1284 C1290 1.368 . S
C1285 C1269 1.349 . S
C1285 H1277 0.950 . S
C1285 C1283 1.327 . S
C1286 C1274 1.349 . S
C1286 H1280 0.950 . S
C1286 C1287 1.327 . S
C1287 H1281 0.950 . S
C1287 C1286 1.327 . S
C1287 C1291 1.429 . S
C1288 C1271 1.574 . S
C1288 H1282 0.949 . S
C1288 C1292 1.368 . S
C1289 C1270 1.429 . S
C1289 C1283 1.429 . S
C1289 C1290 1.523 . S
C1290 C1271 1.368 . S
C1290 C1284 1.368 . S
C1290 C1289 1.523 . S
C1291 C1275 1.429 . S
C1291 C1287 1.429 . S
C1291 C1292 1.523 . S
C1292 C1276 1.368 . S
C1292 C1288 1.368 . S
C1292 C1291 1.523 . S
H1293 C1268 0.950 . S
H1294 C1270 0.950 . S
H1295 C1271 0.949 . S
H1296 C1273 0.950 . S
H1297 C1275 0.950 . S
C1298 C1299 1.349 . S
C1298 C1300 1.327 . S
C1298 H1323 0.950 . S
C1299 C1298 1.349 . S
C1299 C1315 1.349 . S
C1300 C1298 1.327 . S
C1300 C1319 1.429 . S
C1300 H1324 0.950 1_545 S
C1301 C1318 1.574 1_545 S
C1301 C1320 1.368 1_545 S
C1301 H1325 0.949 . S
H1302 C1306 0.949 . S
C1303 C1304 1.349 . S
C1303 C1305 1.327 . S
C1303 H1326 0.950 . S
C1304 C1303 1.349 . S
C1304 C1316 1.349 . S
C1305 C1303 1.327 . S
C1305 C1321 1.429 . S
C1305 H1327 0.950 . S
C1306 H1302 0.949 . S
C1306 C1314 1.574 . S
C1306 C1322 1.368 . S
H1307 C1315 0.950 . S
H1308 C1313 0.950 . S
H1309 C1314 0.949 . S
H1310 C1316 0.950 . S
H1311 C1317 0.950 . S
H1312 C1318 0.949 . S
C1313 H1308 0.950 . S
C1313 C1315 1.327 . S
C1313 C1319 1.429 . S
C1314 C1306 1.574 . S
C1314 H1309 0.949 . S
C1314 C1320 1.368 . S
C1315 C1299 1.349 . S
C1315 H1307 0.950 . S
C1315 C1313 1.327 . S
C1316 C1304 1.349 . S
C1316 H1310 0.950 . S
C1316 C1317 1.327 . S
C1317 H1311 0.950 . S
C1317 C1316 1.327 . S
C1317 C1321 1.429 . S
C1318 C1301 1.574 1_565 S
C1318 H1312 0.949 . S
C1318 C1322 1.368 . S
C1319 C1300 1.429 . S
C1319 C1313 1.429 . S
C1319 C1320 1.523 1_545 S
C1320 C1301 1.368 1_565 S
C1320 C1314 1.368 . S
C1320 C1319 1.523 1_565 S
C1321 C1305 1.429 . S
C1321 C1317 1.429 . S
C1321 C1322 1.523 . S
C1322 C1306 1.368 . S
C1322 C1318 1.368 . S
C1322 C1321 1.523 . S
H1323 C1298 0.950 . S
H1324 C1300 0.950 1_565 S
H1325 C1301 0.949 . S
H1326 C1303 0.950 . S
H1327 C1305 0.950 . S
C1328 C1329 1.349 . S
C1328 C1330 1.327 . S
C1328 H1353 0.950 . S
C1329 C1328 1.349 . S
C1329 C1345 1.349 . S
C1330 C1328 1.327 . S
C1330 C1349 1.429 . S
C1330 H1354 0.950 . S
C1331 C1348 1.574 . S
C1331 C1350 1.368 . S
C1331 H1355 0.949 . S
H1332 C1336 0.949 . S
C1333 C1334 1.349 . S
C1333 C1335 1.327 . S
C1333 H1356 0.950 . S
C1334 C1333 1.349 . S
C1334 C1346 1.349 . S
C1335 C1333 1.327 . S
C1335 C1351 1.429 . S
C1335 H1357 0.950 . S
C1336 H1332 0.949 . S
C1336 C1344 1.574 . S
C1336 C1352 1.368 . S
H1337 C1345 0.950 . S
H1338 C1343 0.950 . S
H1339 C1344 0.949 . S
H1340 C1346 0.950 . S
H1341 C1347 0.950 . S
H1342 C1348 0.949 . S
C1343 H1338 0.950 . S
C1343 C1345 1.327 . S
C1343 C1349 1.429 . S
C1344 C1336 1.574 . S
C1344 H1339 0.949 . S
C1344 C1350 1.368 . S
C1345 C1329 1.349 . S
C1345 H1337 0.950 . S
C1345 C1343 1.327 . S
C1346 C1334 1.349 . S
C1346 H1340 0.950 . S
C1346 C1347 1.327 . S
C1347 H1341 0.950 . S
C1347 C1346 1.327 . S
C1347 C1351 1.429 . S
C1348 C1331 1.574 . S
C1348 H1342 0.949 . S
C1348 C1352 1.368 . S
C1349 C1330 1.429 . S
C1349 C1343 1.429 . S
C1349 C1350 1.523 . S
C1350 C1331 1.368 . S
C1350 C1344 1.368 . S
C1350 C1349 1.523 . S
C1351 C1335 1.429 . S
C1351 C1347 1.429 . S
C1351 C1352 1.523 . S
C1352 C1336 1.368 . S
C1352 C1348 1.368 . S
C1352 C1351 1.523 . S
H1353 C1328 0.950 . S
H1354 C1330 0.950 . S
H1355 C1331 0.949 . S
H1356 C1333 0.950 . S
H1357 C1335 0.950 . S
C1358 C1359 1.349 . S
C1358 C1360 1.327 . S
C1358 H1383 0.950 . S
C1359 C1358 1.349 . S
C1359 C1375 1.349 . S
C1360 C1358 1.327 . S
C1360 C1379 1.429 . S
C1360 H1384 0.950 . S
C1361 C1378 1.574 . S
C1361 C1380 1.368 . S
C1361 H1385 0.949 . S
H1362 C1366 0.949 . S
C1363 C1364 1.349 . S
C1363 C1365 1.327 . S
C1363 H1386 0.950 . S
C1364 C1363 1.349 . S
C1364 C1376 1.349 . S
C1365 C1363 1.327 . S
C1365 C1381 1.429 . S
C1365 H1387 0.950 . S
C1366 H1362 0.949 . S
C1366 C1374 1.574 . S
C1366 C1382 1.368 . S
H1367 C1375 0.950 . S
H1368 C1373 0.950 . S
H1369 C1374 0.949 . S
H1370 C1376 0.950 . S
H1371 C1377 0.950 . S
H1372 C1378 0.949 . S
C1373 H1368 0.950 . S
C1373 C1375 1.327 . S
C1373 C1379 1.429 . S
C1374 C1366 1.574 . S
C1374 H1369 0.949 . S
C1374 C1380 1.368 . S
C1375 C1359 1.349 . S
C1375 H1367 0.950 . S
C1375 C1373 1.327 . S
C1376 C1364 1.349 . S
C1376 H1370 0.950 . S
C1376 C1377 1.327 . S
C1377 H1371 0.950 . S
C1377 C1376 1.327 . S
C1377 C1381 1.429 . S
C1378 C1361 1.574 . S
C1378 H1372 0.949 . S
C1378 C1382 1.368 . S
C1379 C1360 1.429 . S
C1379 C1373 1.429 . S
C1379 C1380 1.523 . S
C1380 C1361 1.368 . S
C1380 C1374 1.368 . S
C1380 C1379 1.523 . S
C1381 C1365 1.429 . S
C1381 C1377 1.429 . S
C1381 C1382 1.523 . S
C1382 C1366 1.368 . S
C1382 C1378 1.368 . S
C1382 C1381 1.523 . S
H1383 C1358 0.950 . S
H1384 C1360 0.950 . S
H1385 C1361 0.949 . S
H1386 C1363 0.950 . S
H1387 C1365 0.950 . S
C1388 C1389 1.349 . S
C1388 C1390 1.327 . S
C1388 H1413 0.950 . S
C1389 C1388 1.349 . S
C1389 C1405 1.349 1_655 S
C1390 C1388 1.327 . S
C1390 C1409 1.429 . S
C1390 H1414 0.950 . S
C1391 C1408 1.574 . S
C1391 C1410 1.368 . S
C1391 H1415 0.949 . S
H1392 C1396 0.949 . S
C1393 C1394 1.349 . S
C1393 C1395 1.327 . S
C1393 H1416 0.950 . S
C1394 C1393 1.349 . S
C1394 C1406 1.349 . S
C1395 C1393 1.327 . S
C1395 C1411 1.429 . S
C1395 H1417 0.950 . S
C1396 H1392 0.949 . S
C1396 C1404 1.574 . S
C1396 C1412 1.368 . S
H1397 C1405 0.950 . S
H1398 C1403 0.944 1_455 S
H1399 C1404 0.949 . S
H1400 C1406 0.950 . S
H1401 C1407 0.950 . S
H1402 C1408 0.949 . S
C1403 H1398 0.944 1_655 S
C1403 C1405 1.327 1_655 S
C1403 C1409 1.429 . S
C1404 C1396 1.574 . S
C1404 H1399 0.949 . S
C1404 C1410 1.368 . S
C1405 C1389 1.349 1_455 S
C1405 H1397 0.950 . S
C1405 C1403 1.327 1_455 S
C1406 C1394 1.349 . S
C1406 H1400 0.950 . S
C1406 C1407 1.327 . S
C1407 H1401 0.950 . S
C1407 C1406 1.327 . S
C1407 C1411 1.429 . S
C1408 C1391 1.574 . S
C1408 H1402 0.949 . S
C1408 C1412 1.368 . S
C1409 C1390 1.429 . S
C1409 C1403 1.429 . S
C1409 C1410 1.523 . S
C1410 C1391 1.368 . S
C1410 C1404 1.368 . S
C1410 C1409 1.523 . S
C1411 C1395 1.429 . S
C1411 C1407 1.429 . S
C1411 C1412 1.523 . S
C1412 C1396 1.368 . S
C1412 C1408 1.368 . S
C1412 C1411 1.523 . S
H1413 C1388 0.950 . S
H1414 C1390 0.950 . S
H1415 C1391 0.949 . S
H1416 C1393 0.950 . S
H1417 C1395 0.950 . S
C1418 C1419 1.349 . S
C1418 C1420 1.327 . S
C1418 H1443 0.950 . S
C1419 C1418 1.349 . S
C1419 C1435 1.349 . S
C1420 C1418 1.327 . S
C1420 C1439 1.429 . S
C1420 H1444 0.950 . S
C1421 C1438 1.574 . S
C1421 C1440 1.368 . S
C1421 H1445 0.949 . S
H1422 C1426 0.949 . S
C1423 C1424 1.349 . S
C1423 C1425 1.327 . S
C1423 H1446 0.950 . S
C1424 C1423 1.349 . S
C1424 C1436 1.349 . S
C1425 C1423 1.327 . S
C1425 C1441 1.429 . S
C1425 H1447 0.950 . S
C1426 H1422 0.949 . S
C1426 C1434 1.574 . S
C1426 C1442 1.368 . S
H1427 C1435 0.950 . S
H1428 C1433 0.950 . S
H1429 C1434 0.949 . S
H1430 C1436 0.950 . S
H1431 C1437 0.950 . S
H1432 C1438 0.949 . S
C1433 H1428 0.950 . S
C1433 C1435 1.327 . S
C1433 C1439 1.429 . S
C1434 C1426 1.574 . S
C1434 H1429 0.949 . S
C1434 C1440 1.368 . S
C1435 C1419 1.349 . S
C1435 H1427 0.950 . S
C1435 C1433 1.327 . S
C1436 C1424 1.349 . S
C1436 H1430 0.950 . S
C1436 C1437 1.327 . S
C1437 H1431 0.950 . S
C1437 C1436 1.327 . S
C1437 C1441 1.429 . S
C1438 C1421 1.574 . S
C1438 H1432 0.949 . S
C1438 C1442 1.368 . S
C1439 C1420 1.429 . S
C1439 C1433 1.429 . S
C1439 C1440 1.523 . S
C1440 C1421 1.368 . S
C1440 C1434 1.368 . S
C1440 C1439 1.523 . S
C1441 C1425 1.429 . S
C1441 C1437 1.429 . S
C1441 C1442 1.523 . S
C1442 C1426 1.368 . S
C1442 C1438 1.368 . S
C1442 C1441 1.523 . S
H1443 C1418 0.950 . S
H1444 C1420 0.950 . S
H1445 C1421 0.949 . S
H1446 C1423 0.950 . S
H1447 C1425 0.950 . S
C1448 C1449 1.349 . S
C1448 C1450 1.327 . S
C1448 H1473 0.950 . S
C1449 C1448 1.349 . S
C1449 C1465 1.349 . S
C1450 C1448 1.327 . S
C1450 C1469 1.429 . S
C1450 H1474 0.950 . S
C1451 C1468 1.574 . S
C1451 C1470 1.368 . S
C1451 H1475 0.949 . S
H1452 C1456 0.949 . S
C1453 C1454 1.349 . S
C1453 C1455 1.327 . S
C1453 H1476 0.950 . S
C1454 C1453 1.349 . S
C1454 C1466 1.349 . S
C1455 C1453 1.327 . S
C1455 C1471 1.429 . S
C1455 H1477 0.950 . S
C1456 H1452 0.949 . S
C1456 C1464 1.574 . S
C1456 C1472 1.368 . S
H1457 C1465 0.950 . S
H1458 C1463 0.950 . S
H1459 C1464 0.949 . S
H1460 C1466 0.950 . S
H1461 C1467 0.950 . S
H1462 C1468 0.949 . S
C1463 H1458 0.950 . S
C1463 C1465 1.327 . S
C1463 C1469 1.429 . S
C1464 C1456 1.574 . S
C1464 H1459 0.949 . S
C1464 C1470 1.368 . S
C1465 C1449 1.349 . S
C1465 H1457 0.950 . S
C1465 C1463 1.327 . S
C1466 C1454 1.349 . S
C1466 H1460 0.950 . S
C1466 C1467 1.327 . S
C1467 H1461 0.950 . S
C1467 C1466 1.327 . S
C1467 C1471 1.429 . S
C1468 C1451 1.574 . S
C1468 H1462 0.949 . S
C1468 C1472 1.368 . S
C1469 C1450 1.429 . S
C1469 C1463 1.429 . S
C1469 C1470 1.523 . S
C1470 C1451 1.368 . S
C1470 C1464 1.368 . S
C1470 C1469 1.523 . S
C1471 C1455 1.429 . S
C1471 C1467 1.429 . S
C1471 C1472 1.523 . S
C1472 C1456 1.368 . S
C1472 C1468 1.368 . S
C1472 C1471 1.523 . S
H1473 C1448 0.950 . S
H1474 C1450 0.950 . S
H1475 C1451 0.949 . S
H1476 C1453 0.950 . S
H1477 C1455 0.950 . S
C1478 C1479 1.349 . S
C1478 C1480 1.327 . S
C1478 H1503 0.950 . S
C1479 C1478 1.349 . S
C1479 C1495 1.349 1_455 S
C1480 C1478 1.327 . S
C1480 C1499 1.429 1_455 S
C1480 H1504 0.950 . S
C1481 C1498 1.574 . S
C1481 C1500 1.368 . S
C1481 H1505 0.949 . S
H1482 C1486 0.949 . S
C1483 C1484 1.349 . S
C1483 C1485 1.327 . S
C1483 H1506 0.950 . S
C1484 C1483 1.349 . S
C1484 C1496 1.349 . S
C1485 C1483 1.327 . S
C1485 C1501 1.429 . S
C1485 H1507 0.950 . S
C1486 H1482 0.949 . S
C1486 C1494 1.574 . S
C1486 C1502 1.368 . S
H1487 C1495 0.950 . S
H1488 C1493 0.950 . S
H1489 C1494 0.949 . S
H1490 C1496 0.950 . S
H1491 C1497 0.950 . S
H1492 C1498 0.949 . S
C1493 H1488 0.950 . S
C1493 C1495 1.327 . S
C1493 C1499 1.429 . S
C1494 C1486 1.574 . S
C1494 H1489 0.949 . S
C1494 C1500 1.368 . S
C1495 C1479 1.349 1_655 S
C1495 H1487 0.950 . S
C1495 C1493 1.327 . S
C1496 C1484 1.349 . S
C1496 H1490 0.950 . S
C1496 C1497 1.327 . S
C1497 H1491 0.950 . S
C1497 C1496 1.327 . S
C1497 C1501 1.429 . S
C1498 C1481 1.574 . S
C1498 H1492 0.949 . S
C1498 C1502 1.368 . S
C1499 C1480 1.429 1_655 S
C1499 C1493 1.429 . S
C1499 C1500 1.523 . S
C1500 C1481 1.368 . S
C1500 C1494 1.368 . S
C1500 C1499 1.523 . S
C1501 C1485 1.429 . S
C1501 C1497 1.429 . S
C1501 C1502 1.523 . S
C1502 C1486 1.368 . S
C1502 C1498 1.368 . S
C1502 C1501 1.523 . S
H1503 C1478 0.950 . S
H1504 C1480 0.950 . S
H1505 C1481 0.949 . S
H1506 C1483 0.950 . S
H1507 C1485 0.950 . S
C1508 C1509 1.349 . S
C1508 C1510 1.327 . S
C1508 H1533 0.950 . S
C1509 C1508 1.349 . S
C1509 C1525 1.349 . S
C1510 C1508 1.327 . S
C1510 C1529 1.429 . S
C1510 H1534 0.950 . S
C1511 C1528 1.574 . S
C1511 C1530 1.368 . S
C1511 H1535 0.949 . S
H1512 C1516 0.949 . S
C1513 C1514 1.349 . S
C1513 C1515 1.327 . S
C1513 H1536 0.950 . S
C1514 C1513 1.349 . S
C1514 C1526 1.349 . S
C1515 C1513 1.327 . S
C1515 C1531 1.429 . S
C1515 H1537 0.950 . S
C1516 H1512 0.949 . S
C1516 C1524 1.574 . S
C1516 C1532 1.368 . S
H1517 C1525 0.950 . S
H1518 C1523 0.950 . S
H1519 C1524 0.949 . S
H1520 C1526 0.950 . S
H1521 C1527 0.950 . S
H1522 C1528 0.949 . S
C1523 H1518 0.950 . S
C1523 C1525 1.327 . S
C1523 C1529 1.429 . S
C1524 C1516 1.574 . S
C1524 H1519 0.949 . S
C1524 C1530 1.368 . S
C1525 C1509 1.349 . S
C1525 H1517 0.950 . S
C1525 C1523 1.327 . S
C1526 C1514 1.349 . S
C1526 H1520 0.950 . S
C1526 C1527 1.327 . S
C1527 H1521 0.950 . S
C1527 C1526 1.327 . S
C1527 C1531 1.429 . S
C1528 C1511 1.574 . S
C1528 H1522 0.949 . S
C1528 C1532 1.368 . S
C1529 C1510 1.429 . S
C1529 C1523 1.429 . S
C1529 C1530 1.523 . S
C1530 C1511 1.368 . S
C1530 C1524 1.368 . S
C1530 C1529 1.523 . S
C1531 C1515 1.429 . S
C1531 C1527 1.429 . S
C1531 C1532 1.523 . S
C1532 C1516 1.368 . S
C1532 C1528 1.368 . S
C1532 C1531 1.523 . S
H1533 C1508 0.950 . S
H1534 C1510 0.950 . S
H1535 C1511 0.949 . S
H1536 C1513 0.950 . S
H1537 C1515 0.950 . S
C1538 C1539 1.349 . S
C1538 C1540 1.327 . S
C1538 H1563 0.950 . S
C1539 C1538 1.349 . S
C1539 C1555 1.349 . S
C1540 C1538 1.327 . S
C1540 C1559 1.429 . S
C1540 H1564 0.950 . S
C1541 C1558 1.574 . S
C1541 C1560 1.368 . S
C1541 H1565 0.949 . S
H1542 C1546 0.949 . S
C1543 C1544 1.349 . S
C1543 C1545 1.327 . S
C1543 H1566 0.950 . S
C1544 C1543 1.349 . S
C1544 C1556 1.349 . S
C1545 C1543 1.327 . S
C1545 C1561 1.429 . S
C1545 H1567 0.950 . S
C1546 H1542 0.949 . S
C1546 C1554 1.574 . S
C1546 C1562 1.368 . S
H1547 C1555 0.950 . S
H1548 C1553 0.950 . S
H1549 C1554 0.949 . S
H1550 C1556 0.950 . S
H1551 C1557 0.950 . S
H1552 C1558 0.949 . S
C1553 H1548 0.950 . S
C1553 C1555 1.327 . S
C1553 C1559 1.429 . S
C1554 C1546 1.574 . S
C1554 H1549 0.949 . S
C1554 C1560 1.368 . S
C1555 C1539 1.349 . S
C1555 H1547 0.950 . S
C1555 C1553 1.327 . S
C1556 C1544 1.349 . S
C1556 H1550 0.950 . S
C1556 C1557 1.327 . S
C1557 H1551 0.950 . S
C1557 C1556 1.327 . S
C1557 C1561 1.429 . S
C1558 C1541 1.574 . S
C1558 H1552 0.949 . S
C1558 C1562 1.368 . S
C1559 C1540 1.429 . S
C1559 C1553 1.429 . S
C1559 C1560 1.523 . S
C1560 C1541 1.368 . S
C1560 C1554 1.368 . S
C1560 C1559 1.523 . S
C1561 C1545 1.429 . S
C1561 C1557 1.429 . S
C1561 C1562 1.523 . S
C1562 C1546 1.368 . S
C1562 C1558 1.368 . S
C1562 C1561 1.523 . S
H1563 C1538 0.950 . S
H1564 C1540 0.950 . S
H1565 C1541 0.949 . S
H1566 C1543 0.950 . S
H1567 C1545 0.950 . S
C614 C516 1.348 . S
C609 C35 1.251 . S
C644 C533 1.378 . S
C639 C115 1.310 . S
C674 C547 1.517 . S
C669 C177 1.426 . S
C699 C221 1.239 . S
C704 C505 1.333 . S
C729 C283 1.283 . S
C734 C502 1.414 . S
C759 C363 1.147 . S
C764 C519 1.233 . S
C794 C530 1.604 . S
C789 C407 1.493 . S
C824 C544 1.488 . S
C819 C469 1.365 . S
C849 C159 1.365 . S
C854 C572 1.488 . S
C884 C586 1.604 . S
C879 C239 1.516 . S
C909 C53 1.147 . S
C914 C603 1.233 . S
C944 C558 1.415 . S
C939 C97 1.283 . S
C969 C425 1.234 . S
C974 C561 1.333 . S
C999 C487 1.426 . S
C1004 C575 1.517 . S
C1034 C589 1.378 . S
C1029 C301 1.315 . S
C1059 C345 1.251 . S
C1064 C600 1.347 . S
C1094 C532 2.228 . S
C1089 C29 2.222 . S
C1124 C546 2.279 . S
C1119 C109 2.210 . S
C1149 C171 2.100 . S
C1154 C504 2.176 1_556 S
C1179 C215 2.008 . S
C1184 C517 1.930 . S
C1209 C277 1.818 . S
C1214 C545 1.731 . S
C1244 C503 1.678 . S
C1239 C357 1.735 . S
C1274 C518 2.075 . S
C1269 C401 2.063 . S
C1304 C531 1.862 . S
C1299 C463 1.946 . S
C1334 C587 1.862 . S
C1329 C153 1.953 . S
C1364 C602 2.075 . S
C1359 C233 2.065 . S
C1389 C47 1.736 1_655 S
C1394 C559 1.678 . S
C1424 C573 1.731 . S
C1419 C91 1.818 . S
C1454 C601 1.930 . S
C1449 C419 1.946 . S
C1479 C481 2.099 . S
C1484 C560 2.176 . S
C1514 C574 2.279 . S
C1509 C295 2.209 . S
C1544 C588 2.228 . S
C1539 C339 2.214 . S
