# Generated by pormake.
# Topology eea, (3,6)-cn, num edge types: 1
# Building blocks:
#     Node 0, Type 0, BuildingBlock: BETDIP_clean_linker_0, # of connection points: 3
#     Node 1, Type 0, BuildingBlock: BETDIP_clean_linker_0, # of connection points: 3
#     Node 2, Type 0, BuildingBlock: BETDIP_clean_linker_0, # of connection points: 3
#     Node 3, Type 0, BuildingBlock: BETDIP_clean_linker_0, # of connection points: 3
#     Node 4, Type 0, BuildingBlock: BETDIP_clean_linker_0, # of connection points: 3
#     Node 5, Type 0, BuildingBlock: BETDIP_clean_linker_0, # of connection points: 3
#     Node 6, Type 0, BuildingBlock: BETDIP_clean_linker_0, # of connection points: 3
#     Node 7, Type 0, BuildingBlock: BETDIP_clean_linker_0, # of connection points: 3
#     Node 8, Type 0, BuildingBlock: BETDIP_clean_linker_0, # of connection points: 3
#     Node 9, Type 0, BuildingBlock: BETDIP_clean_linker_0, # of connection points: 3
#     Node 10, Type 0, BuildingBlock: BETDIP_clean_linker_0, # of connection points: 3
#     Node 11, Type 0, BuildingBlock: BETDIP_clean_linker_0, # of connection points: 3
#     Node 12, Type 0, BuildingBlock: BETDIP_clean_linker_0, # of connection points: 3
#     Node 13, Type 0, BuildingBlock: BETDIP_clean_linker_0, # of connection points: 3
#     Node 14, Type 0, BuildingBlock: BETDIP_clean_linker_0, # of connection points: 3
#     Node 15, Type 0, BuildingBlock: BETDIP_clean_linker_0, # of connection points: 3
#     Node 16, Type 0, BuildingBlock: BETDIP_clean_linker_0, # of connection points: 3
#     Node 17, Type 0, BuildingBlock: BETDIP_clean_linker_0, # of connection points: 3
#     Node 18, Type 1, BuildingBlock: CUKXOW_clean_sbu_0, # of connection points: 6
#     Node 19, Type 1, BuildingBlock: CUKXOW_clean_sbu_0, # of connection points: 6
#     Node 20, Type 1, BuildingBlock: CUKXOW_clean_sbu_0, # of connection points: 6
#     Node 21, Type 1, BuildingBlock: CUKXOW_clean_sbu_0, # of connection points: 6
#     Node 22, Type 1, BuildingBlock: CUKXOW_clean_sbu_0, # of connection points: 6
#     Node 23, Type 1, BuildingBlock: CUKXOW_clean_sbu_0, # of connection points: 6
#     Node 24, Type 1, BuildingBlock: CUKXOW_clean_sbu_0, # of connection points: 6
#     Node 25, Type 1, BuildingBlock: CUKXOW_clean_sbu_0, # of connection points: 6
#     Node 26, Type 1, BuildingBlock: CUKXOW_clean_sbu_0, # of connection points: 6
#     Edge 27, Type (0, 1), BuildingBlock: EZIPEK_clean_linker_0, # of connection points: 2
#     Edge 28, Type (0, 1), BuildingBlock: EZIPEK_clean_linker_0, # of connection points: 2
#     Edge 29, Type (0, 1), BuildingBlock: EZIPEK_clean_linker_0, # of connection points: 2
#     Edge 30, Type (0, 1), BuildingBlock: EZIPEK_clean_linker_0, # of connection points: 2
#     Edge 31, Type (0, 1), BuildingBlock: EZIPEK_clean_linker_0, # of connection points: 2
#     Edge 32, Type (0, 1), BuildingBlock: EZIPEK_clean_linker_0, # of connection points: 2
#     Edge 33, Type (0, 1), BuildingBlock: EZIPEK_clean_linker_0, # of connection points: 2
#     Edge 34, Type (0, 1), BuildingBlock: EZIPEK_clean_linker_0, # of connection points: 2
#     Edge 35, Type (0, 1), BuildingBlock: EZIPEK_clean_linker_0, # of connection points: 2
#     Edge 36, Type (0, 1), BuildingBlock: EZIPEK_clean_linker_0, # of connection points: 2
#     Edge 37, Type (0, 1), BuildingBlock: EZIPEK_clean_linker_0, # of connection points: 2
#     Edge 38, Type (0, 1), BuildingBlock: EZIPEK_clean_linker_0, # of connection points: 2
#     Edge 39, Type (0, 1), BuildingBlock: EZIPEK_clean_linker_0, # of connection points: 2
#     Edge 40, Type (0, 1), BuildingBlock: EZIPEK_clean_linker_0, # of connection points: 2
#     Edge 41, Type (0, 1), BuildingBlock: EZIPEK_clean_linker_0, # of connection points: 2
#     Edge 42, Type (0, 1), BuildingBlock: EZIPEK_clean_linker_0, # of connection points: 2
#     Edge 43, Type (0, 1), BuildingBlock: EZIPEK_clean_linker_0, # of connection points: 2
#     Edge 44, Type (0, 1), BuildingBlock: EZIPEK_clean_linker_0, # of connection points: 2
#     Edge 45, Type (0, 1), BuildingBlock: EZIPEK_clean_linker_0, # of connection points: 2
#     Edge 46, Type (0, 1), BuildingBlock: EZIPEK_clean_linker_0, # of connection points: 2
#     Edge 47, Type (0, 1), BuildingBlock: EZIPEK_clean_linker_0, # of connection points: 2
#     Edge 48, Type (0, 1), BuildingBlock: EZIPEK_clean_linker_0, # of connection points: 2
#     Edge 49, Type (0, 1), BuildingBlock: EZIPEK_clean_linker_0, # of connection points: 2
#     Edge 50, Type (0, 1), BuildingBlock: EZIPEK_clean_linker_0, # of connection points: 2
#     Edge 51, Type (0, 1), BuildingBlock: EZIPEK_clean_linker_0, # of connection points: 2
#     Edge 52, Type (0, 1), BuildingBlock: EZIPEK_clean_linker_0, # of connection points: 2
#     Edge 53, Type (0, 1), BuildingBlock: EZIPEK_clean_linker_0, # of connection points: 2
#     Edge 54, Type (0, 1), BuildingBlock: EZIPEK_clean_linker_0, # of connection points: 2
#     Edge 55, Type (0, 1), BuildingBlock: EZIPEK_clean_linker_0, # of connection points: 2
#     Edge 56, Type (0, 1), BuildingBlock: EZIPEK_clean_linker_0, # of connection points: 2
#     Edge 57, Type (0, 1), BuildingBlock: EZIPEK_clean_linker_0, # of connection points: 2
#     Edge 58, Type (0, 1), BuildingBlock: EZIPEK_clean_linker_0, # of connection points: 2
#     Edge 59, Type (0, 1), BuildingBlock: EZIPEK_clean_linker_0, # of connection points: 2
#     Edge 60, Type (0, 1), BuildingBlock: EZIPEK_clean_linker_0, # of connection points: 2
#     Edge 61, Type (0, 1), BuildingBlock: EZIPEK_clean_linker_0, # of connection points: 2
#     Edge 62, Type (0, 1), BuildingBlock: EZIPEK_clean_linker_0, # of connection points: 2
#     Edge 63, Type (0, 1), BuildingBlock: EZIPEK_clean_linker_0, # of connection points: 2
#     Edge 64, Type (0, 1), BuildingBlock: EZIPEK_clean_linker_0, # of connection points: 2
#     Edge 65, Type (0, 1), BuildingBlock: EZIPEK_clean_linker_0, # of connection points: 2
#     Edge 66, Type (0, 1), BuildingBlock: EZIPEK_clean_linker_0, # of connection points: 2
#     Edge 67, Type (0, 1), BuildingBlock: EZIPEK_clean_linker_0, # of connection points: 2
#     Edge 68, Type (0, 1), BuildingBlock: EZIPEK_clean_linker_0, # of connection points: 2
#     Edge 69, Type (0, 1), BuildingBlock: EZIPEK_clean_linker_0, # of connection points: 2
#     Edge 70, Type (0, 1), BuildingBlock: EZIPEK_clean_linker_0, # of connection points: 2
#     Edge 71, Type (0, 1), BuildingBlock: EZIPEK_clean_linker_0, # of connection points: 2
#     Edge 72, Type (0, 1), BuildingBlock: EZIPEK_clean_linker_0, # of connection points: 2
#     Edge 73, Type (0, 1), BuildingBlock: EZIPEK_clean_linker_0, # of connection points: 2
#     Edge 74, Type (0, 1), BuildingBlock: EZIPEK_clean_linker_0, # of connection points: 2
#     Edge 75, Type (0, 1), BuildingBlock: EZIPEK_clean_linker_0, # of connection points: 2
#     Edge 76, Type (0, 1), BuildingBlock: EZIPEK_clean_linker_0, # of connection points: 2
#     Edge 77, Type (0, 1), BuildingBlock: EZIPEK_clean_linker_0, # of connection points: 2
#     Edge 78, Type (0, 1), BuildingBlock: EZIPEK_clean_linker_0, # of connection points: 2
#     Edge 79, Type (0, 1), BuildingBlock: EZIPEK_clean_linker_0, # of connection points: 2
#     Edge 80, Type (0, 1), BuildingBlock: EZIPEK_clean_linker_0, # of connection points: 2
# Relax obj value: 0.036
# Max RMSD: 0.166
# Mean RMSD: 0.090
data_MOF--net-eea--node1-CUKXOW_clean_sbu_0--node2-BETDIP_clean_linker_0--edge1-EZIPEK_clean_linker_0
_symmetry_space_group_name_H-M    P1
_symmetry_Int_Tables_number       1
_symmetry_cell_setting            triclinic
loop_
_symmetry_equiv_pos_as_xyz
'x, y, z'
_cell_length_a     44.876364
_cell_length_b     41.256007
_cell_length_c     35.598448
_cell_angle_alpha  93.57808
_cell_angle_beta   93.615533
_cell_angle_gamma 119.96069
loop_
_atom_site_label
_atom_site_type_symbol
_atom_site_fract_x
_atom_site_fract_y
_atom_site_fract_z
_atom_type_partial_charge
H0 H 0.21246 0.10179 0.37993 0.0
H1 H 0.26374 0.17764 0.48196 0.0
H2 H 0.2715 0.07853 0.46223 0.0
H3 H 0.26255 0.22072 0.44738 0.0
C4 C 0.24078 0.20621 0.42559 0.0
C5 C 0.22924 0.10997 0.40622 0.0
C6 C 0.24096 0.08626 0.41859 0.0
C7 C 0.23863 0.14397 0.42786 0.0
C8 C 0.25839 0.15309 0.46349 0.0
C9 C 0.27065 0.1297 0.47593 0.0
C10 C 0.2626 0.09702 0.45264 0.0
N11 N 0.22657 0.16733 0.41348 0.0
H12 H 0.90506 0.13965 0.37153 0.0
H13 H 0.83375 0.12175 0.45406 0.0
H14 H 0.93896 0.21242 0.47626 0.0
H15 H 0.81554 0.06181 0.43543 0.0
C16 C 0.81586 0.06033 0.40492 0.0
C17 C 0.89938 0.1479 0.39844 0.0
C18 C 0.92531 0.17968 0.42169 0.0
C19 C 0.86662 0.12585 0.41046 0.0
C20 C 0.85933 0.13736 0.445 0.0
C21 C 0.88543 0.16786 0.46941 0.0
C22 C 0.91852 0.189 0.45756 0.0
N23 N 0.84233 0.09113 0.38872 0.0
H24 H 0.87424 0.77507 0.37592 0.0
H25 H 0.90043 0.71774 0.45729 0.0
H26 H 0.81352 0.73348 0.46861 0.0
H27 H 0.93549 0.71728 0.41508 0.0
C28 C 0.944 0.74325 0.40224 0.0
C29 C 0.86924 0.76059 0.4012 0.0
C30 C 0.84078 0.75463 0.42015 0.0
C31 C 0.89124 0.7479 0.41445 0.0
C32 C 0.88408 0.72826 0.44683 0.0
C33 C 0.85627 0.72328 0.46692 0.0
C34 C 0.83511 0.73718 0.45357 0.0
N35 N 0.9211 0.75719 0.39557 0.0
H36 H 0.103 0.22816 0.63442 0.0
H37 H 0.17187 0.27837 0.54948 0.0
H38 H 0.09269 0.30557 0.56705 0.0
H39 H 0.18863 0.2377 0.56029 0.0
C40 C 0.1849 0.23173 0.58939 0.0
C41 C 0.11183 0.247 0.61253 0.0
C42 C 0.09432 0.26581 0.60226 0.0
C43 C 0.14013 0.25154 0.59415 0.0
C44 C 0.15049 0.27484 0.56461 0.0
C45 C 0.13363 0.29465 0.5547 0.0
C46 C 0.10608 0.29069 0.5745 0.0
N47 N 0.15784 0.23302 0.60689 0.0
H48 H 0.80093 0.87521 0.66299 0.0
H49 H 0.74373 0.90068 0.58022 0.0
H50 H 0.75066 0.80105 0.55996 0.0
H51 H 0.78867 0.95943 0.59711 0.0
C52 C 0.79181 0.96087 0.62779 0.0
C53 C 0.78496 0.86795 0.63622 0.0
C54 C 0.77555 0.83421 0.61382 0.0
C55 C 0.77483 0.89292 0.62366 0.0
C56 C 0.75329 0.8827 0.58939 0.0
C57 C 0.74519 0.85023 0.5656 0.0
C58 C 0.75658 0.82612 0.57805 0.0
N59 N 0.78786 0.92878 0.64482 0.0
H60 H 0.15745 0.91907 0.66935 0.0
H61 H 0.11424 0.83682 0.57109 0.0
H62 H 0.21247 0.93718 0.57075 0.0
H63 H 0.07791 0.79952 0.61013 0.0
C64 C 0.07381 0.81841 0.62881 0.0
C65 C 0.15936 0.90952 0.64102 0.0
C66 C 0.18841 0.93222 0.62242 0.0
C67 C 0.13219 0.87517 0.6229 0.0
C68 C 0.13495 0.86278 0.58612 0.0
C69 C 0.16404 0.88498 0.56746 0.0
C70 C 0.19039 0.91974 0.58552 0.0
N71 N 0.10171 0.85532 0.6414 0.0
H72 H 0.89918 0.43825 0.69832 0.0
H73 H 0.93921 0.51374 0.8017 0.0
H74 H 0.94098 0.41041 0.79483 0.0
H75 H 0.89974 0.53009 0.779 0.0
C76 C 0.90051 0.52861 0.74855 0.0
C77 C 0.91102 0.44513 0.72736 0.0
C78 C 0.91859 0.41988 0.74437 0.0
C79 C 0.91725 0.47845 0.748 0.0
C80 C 0.93328 0.48771 0.78562 0.0
C81 C 0.94264 0.46354 0.80228 0.0
C82 C 0.93459 0.42952 0.78169 0.0
N83 N 0.90723 0.50185 0.72978 0.0
H84 H 0.58003 0.47126 0.70248 0.0
H85 H 0.50946 0.44615 0.78701 0.0
H86 H 0.60981 0.54606 0.80527 0.0
H87 H 0.47009 0.40873 0.73794 0.0
C88 C 0.48357 0.39665 0.7237 0.0
C89 C 0.57379 0.47882 0.72936 0.0
C90 C 0.59809 0.5122 0.75164 0.0
C91 C 0.54172 0.45481 0.74161 0.0
C92 C 0.53384 0.46464 0.77664 0.0
C93 C 0.55829 0.49723 0.8001 0.0
C94 C 0.59056 0.52106 0.78737 0.0
N95 N 0.51933 0.41956 0.71981 0.0
H96 H 0.56205 0.10883 0.72817 0.0
H97 H 0.57446 0.0386 0.80471 0.0
H98 H 0.48999 0.05938 0.80994 0.0
H99 H 0.63034 0.07368 0.79741 0.0
C100 C 0.63221 0.08319 0.76947 0.0
C101 C 0.5533 0.09124 0.75107 0.0
C102 C 0.52269 0.08404 0.766 0.0
C103 C 0.57288 0.07616 0.76568 0.0
C104 C 0.56077 0.05228 0.79459 0.0
C105 C 0.53147 0.04704 0.81176 0.0
C106 C 0.51271 0.06323 0.79719 0.0
N107 N 0.60487 0.08641 0.75117 0.0
H108 H 0.78388 0.58428 0.98622 0.0
H109 H 0.85259 0.63765 0.90195 0.0
H110 H 0.75348 0.62997 0.89592 0.0
H111 H 0.86704 0.59446 0.91174 0.0
C112 C 0.86669 0.59168 0.94184 0.0
C113 C 0.78996 0.59972 0.96159 0.0
C114 C 0.76571 0.60751 0.94388 0.0
C115 C 0.82106 0.60962 0.94631 0.0
C116 C 0.82865 0.62939 0.91414 0.0
C117 C 0.80425 0.63643 0.89569 0.0
C118 C 0.7729 0.62576 0.91082 0.0
N119 N 0.84289 0.59701 0.9622 0.0
H120 H 0.44973 0.19492 0.01198 0.0
H121 H 0.40851 0.23096 0.92185 0.0
H122 H 0.40869 0.12744 0.90384 0.0
H123 H 0.41108 0.27261 0.96936 0.0
C124 C 0.43631 0.28075 0.98362 0.0
C125 C 0.43692 0.18972 0.98358 0.0
C126 C 0.42944 0.15716 0.96004 0.0
C127 C 0.43028 0.21699 0.97003 0.0
C128 C 0.41332 0.21011 0.93331 0.0
C129 C 0.40481 0.1775 0.9097 0.0
C130 C 0.41362 0.15159 0.92282 0.0
N131 N 0.4444 0.25256 0.99211 0.0
H132 H 0.81793 0.24563 0.99865 0.0
H133 H 0.78451 0.17244 0.8939 0.0
H134 H 0.88461 0.27218 0.90989 0.0
H135 H 0.73177 0.15437 0.90948 0.0
C136 C 0.73302 0.15828 0.94007 0.0
C137 C 0.82285 0.23879 0.97067 0.0
C138 C 0.85426 0.26316 0.95686 0.0
C139 C 0.79688 0.2068 0.94784 0.0
C140 C 0.8036 0.19749 0.91171 0.0
C141 C 0.83563 0.22063 0.89842 0.0
C142 C 0.86039 0.25364 0.92079 0.0
N143 N 0.76438 0.18532 0.96206 0.0
H144 H 0.56162 0.75914 0.02258 0.0
H145 H 0.6037 0.84307 0.119 0.0
H146 H 0.60505 0.74009 0.12461 0.0
H147 H 0.61613 0.87972 0.06282 0.0
C148 C 0.58902 0.8651 0.05153 0.0
C149 C 0.5743 0.76858 0.05128 0.0
C150 C 0.58283 0.74537 0.07121 0.0
C151 C 0.5817 0.80378 0.06824 0.0
C152 C 0.59846 0.81626 0.10534 0.0
C153 C 0.60699 0.79343 0.1257 0.0
C154 C 0.59888 0.75793 0.10868 0.0
N155 N 0.5701 0.82511 0.04858 0.0
H156 H 0.24739 0.79909 0.04246 0.0
H157 H 0.1727 0.78221 0.12033 0.0
H158 H 0.27641 0.87617 0.1434 0.0
H159 H 0.15745 0.72164 0.10469 0.0
C160 C 0.15806 0.71975 0.07421 0.0
C161 C 0.24058 0.80806 0.06819 0.0
C162 C 0.2654 0.84094 0.09091 0.0
C163 C 0.20747 0.78592 0.0792 0.0
C164 C 0.19862 0.79818 0.11217 0.0
C165 C 0.22343 0.83024 0.13593 0.0
C166 C 0.25696 0.85155 0.12518 0.0
N167 N 0.18427 0.7506 0.0579 0.0
H168 H 0.22124 0.43376 0.05368 0.0
H169 H 0.24764 0.39002 0.14916 0.0
H170 H 0.14814 0.38145 0.13366 0.0
H171 H 0.28922 0.39263 0.11572 0.0
C172 C 0.29476 0.41306 0.09556 0.0
C173 C 0.21411 0.41876 0.07854 0.0
C174 C 0.18198 0.40829 0.09142 0.0
C175 C 0.23771 0.41136 0.09833 0.0
C176 C 0.22908 0.39382 0.132 0.0
C177 C 0.19653 0.38251 0.14462 0.0
C178 C 0.1729 0.38912 0.12358 0.0
N179 N 0.27043 0.42411 0.08454 0.0
H180 H 0.43699 0.92804 0.32255 0.0
H181 H 0.50977 0.97566 0.24091 0.0
H182 H 0.41136 0.96971 0.22492 0.0
H183 H 0.52014 0.9291 0.25529 0.0
C184 C 0.52056 0.93067 0.2859 0.0
C185 C 0.44419 0.94177 0.29694 0.0
C186 C 0.42099 0.94916 0.27607 0.0
C187 C 0.47582 0.95018 0.28399 0.0
C188 C 0.48506 0.96817 0.25089 0.0
C189 C 0.4619 0.97503 0.22916 0.0
C190 C 0.42978 0.96548 0.24192 0.0
N191 N 0.49696 0.93855 0.30361 0.0
H192 H 0.11869 0.5429 0.34395 0.0
H193 H 0.072 0.56748 0.24911 0.0
H194 H 0.08143 0.4688 0.23976 0.0
H195 H 0.11744 0.62615 0.26759 0.0
C196 C 0.11721 0.62849 0.29813 0.0
C197 C 0.10616 0.53547 0.31518 0.0
C198 C 0.10009 0.50218 0.29432 0.0
C199 C 0.09804 0.56031 0.29833 0.0
C200 C 0.08036 0.5497 0.26165 0.0
C201 C 0.07453 0.51696 0.24009 0.0
C202 C 0.08518 0.49373 0.25639 0.0
N203 N 0.10965 0.5966 0.3177 0.0
H204 H 0.47154 0.5942 0.3087 0.0
H205 H 0.44328 0.50636 0.21779 0.0
H206 H 0.54619 0.60155 0.23466 0.0
H207 H 0.39345 0.47672 0.24023 0.0
C208 C 0.39249 0.49186 0.26566 0.0
C209 C 0.47851 0.58207 0.28537 0.0
C210 C 0.51203 0.60184 0.27438 0.0
C211 C 0.45368 0.54697 0.26626 0.0
C212 C 0.46225 0.53223 0.23448 0.0
C213 C 0.49564 0.55202 0.22303 0.0
C214 C 0.52058 0.58603 0.24386 0.0
N215 N 0.42044 0.52827 0.27959 0.0
Tb216 Tb 0.53703 0.03884 0.01899 0.0
C217 C 0.52607 0.9567 0.02411 0.0
Tb218 Tb 0.46326 0.97074 0.01682 0.0
O219 O 0.53305 0.05843 0.07681 0.0
O220 O 0.50644 1.0018 0.05678 0.0
O221 O 0.54582 0.99107 0.01428 0.0
C222 C 0.40134 0.92722 0.04019 0.0
O223 O 0.49344 0.94384 0.03127 0.0
C224 C 0.48898 0.98161 0.95149 0.0
C225 C 0.47529 0.05386 0.0065 0.0
O226 O 0.41064 0.92165 0.00765 0.0
O227 O 0.42684 0.95697 0.05944 0.0
O228 O 0.4645 0.94909 0.95931 0.0
O229 O 0.49395 0.00615 0.97794 0.0
O230 O 0.4541 0.01884 0.01457 0.0
O231 O 0.50872 0.06695 1.00389 0.0
C232 C 0.60058 0.08501 1.00054 0.0
O233 O 0.59296 0.07655 0.03453 0.0
O234 O 0.57239 0.06854 0.97756 0.0
C235 C 0.51029 0.02475 0.0841 0.0
Tb236 Tb 0.98696 0.49961 0.01969 0.0
C237 C 0.06748 0.56314 0.02257 0.0
Tb238 Tb 0.04135 0.47645 0.01644 0.0
O239 O 0.97989 0.48731 0.07833 0.0
O240 O 0.02755 0.50457 0.05776 0.0
O241 O 0.03455 0.55469 0.02044 0.0
C242 C 0.0849 0.45219 0.03541 0.0
O243 O 0.07638 0.53694 0.02197 0.0
C244 C 0.01521 0.48245 0.95033 0.0
C245 C 0.96268 0.41337 0.01498 0.0
O246 O 0.07605 0.45576 1.00118 0.0
O247 O 0.06917 0.46215 0.05878 0.0
O248 O 0.04593 0.4868 0.95637 0.0
O249 O 1.00016 0.47111 0.97933 0.0
O250 O 0.99525 0.42337 0.02584 0.0
O251 O 0.9542 0.43874 0.00578 0.0
C252 C 0.94662 0.52691 0.99853 0.0
O253 O 0.94415 0.50958 0.02845 0.0
O254 O 0.97159 0.52871 0.98058 0.0
C255 C 0.01069 0.49212 0.08569 0.0
Tb256 Tb 0.49094 0.50803 0.01348 0.0
C257 C 0.51009 0.44235 0.01456 0.0
Tb258 Tb 0.56702 0.52826 0.01698 0.0
O259 O 0.48983 0.51878 0.95385 0.0
O260 O 0.52296 0.50156 0.97654 0.0
O261 O 0.48617 0.45249 0.01423 0.0
C262 C 0.63031 0.55163 0.9963 0.0
O263 O 0.5437 0.46714 0.0152 0.0
C264 C 0.54194 0.52387 0.08272 0.0
C265 C 0.54787 0.59321 0.01769 0.0
O266 O 0.62351 0.5575 0.03016 0.0
O267 O 0.60152 0.53221 0.97436 0.0
O268 O 0.56776 0.51863 0.07736 0.0
O269 O 0.53497 0.53507 0.05324 0.0
O270 O 0.5693 0.58186 0.00654 0.0
O271 O 0.51676 0.56883 0.02706 0.0
C272 C 0.42865 0.48137 0.03765 0.0
O273 O 0.43808 0.4986 0.00738 0.0
O274 O 0.45427 0.47947 0.05407 0.0
C275 C 0.51565 0.51372 0.94786 0.0
Tb276 Tb 0.20063 0.37935 0.35548 0.0
C277 C 0.18474 0.29559 0.36767 0.0
Tb278 Tb 0.12491 0.3141 0.3531 0.0
O279 O 0.20007 0.40201 0.4129 0.0
O280 O 0.16827 0.34532 0.39392 0.0
O281 O 0.20798 0.33111 0.3634 0.0
C282 C 0.06127 0.26876 0.37182 0.0
O283 O 0.15086 0.28255 0.36524 0.0
C284 C 0.15169 0.32588 0.28799 0.0
C285 C 0.14126 0.39813 0.34654 0.0
O286 O 0.08994 0.27908 0.3926 0.0
O287 O 0.06832 0.28355 0.34007 0.0
O288 O 0.12667 0.29326 0.29491 0.0
O289 O 0.15708 0.34931 0.3155 0.0
O290 O 0.1206 0.36521 0.35913 0.0
O291 O 0.1728 0.40747 0.33796 0.0
C292 C 0.26223 0.41886 0.33038 0.0
O293 O 0.25318 0.42843 0.36132 0.0
O294 O 0.23674 0.38731 0.31382 0.0
C295 C 0.17455 0.37003 0.42064 0.0
Tb296 Tb 0.64326 0.84022 0.35545 0.0
C297 C 0.72325 0.90387 0.35557 0.0
Tb298 Tb 0.69663 0.81715 0.34318 0.0
O299 O 0.63985 0.8254 0.41385 0.0
O300 O 0.68514 0.84284 0.38896 0.0
O301 O 0.6905 0.89554 0.35587 0.0
C302 C 0.74017 0.79323 0.3626 0.0
O303 O 0.7319 0.87755 0.35227 0.0
C304 C 0.67083 0.83041 0.28061 0.0
C305 C 0.61758 0.75308 0.33697 0.0
O306 O 0.73813 0.80595 0.33059 0.0
O307 O 0.71723 0.79315 0.38303 0.0
O308 O 0.70068 0.8321 0.28502 0.0
O309 O 0.65558 0.81626 0.30904 0.0
O310 O 0.65028 0.76113 0.34105 0.0
O311 O 0.60907 0.77971 0.33753 0.0
C312 C 0.6029 0.87014 0.34445 0.0
O313 O 0.59808 0.84509 0.36742 0.0
O314 O 0.6305 0.8786 0.32812 0.0
C315 C 0.67044 0.82918 0.41769 0.0
Tb316 Tb 0.14752 0.84691 0.34048 0.0
C317 C 0.17217 0.7857 0.34346 0.0
Tb318 Tb 0.22441 0.87296 0.35353 0.0
O319 O 0.15101 0.85932 0.28129 0.0
O320 O 0.18451 0.84519 0.30811 0.0
O321 O 0.14637 0.79301 0.34239 0.0
C322 C 0.28782 0.90047 0.33202 0.0
O323 O 0.20509 0.81275 0.34616 0.0
C324 C 0.19196 0.8592 0.41555 0.0
C325 C 0.20231 0.9351 0.35817 0.0
O326 O 0.27869 0.88746 0.36436 0.0
O327 O 0.26153 0.89855 0.31245 0.0
O328 O 0.22105 0.85969 0.41245 0.0
O329 O 0.18642 0.87237 0.38659 0.0
O330 O 0.22788 0.92802 0.3549 0.0
O331 O 0.16943 0.90767 0.35734 0.0
C332 C 0.08046 0.81294 0.35128 0.0
O333 O 0.10299 0.8055 0.36667 0.0
O334 O 0.09551 0.83937 0.32936 0.0
C335 C 0.17869 0.85711 0.27845 0.0
Tb336 Tb 0.86844 0.70081 0.68371 0.0
C337 C 0.847 0.61427 0.68004 0.0
Tb338 Tb 0.79245 0.64129 0.67067 0.0
O339 O 0.86357 0.71495 0.74307 0.0
O340 O 0.83154 0.66213 0.71648 0.0
O341 O 0.87175 0.64944 0.6775 0.0
C342 C 0.7274 0.60232 0.68849 0.0
O343 O 0.81471 0.60602 0.68286 0.0
C344 C 0.82269 0.65528 0.60779 0.0
C345 C 0.81485 0.72727 0.66295 0.0
O346 O 0.73987 0.59194 0.66122 0.0
O347 O 0.75123 0.63495 0.70482 0.0
O348 O 0.79553 0.62343 0.61267 0.0
O349 O 0.82932 0.67823 0.63662 0.0
O350 O 0.78945 0.69287 0.66735 0.0
O351 O 0.84762 0.73559 0.66395 0.0
C352 C 0.93625 0.74329 0.67659 0.0
O353 O 0.91757 0.7552 0.69209 0.0
O354 O 0.917 0.70766 0.66609 0.0
C355 C 0.83592 0.68295 0.74593 0.0
Tb356 Tb 0.32259 0.16965 0.68632 0.0
C357 C 0.40007 0.23496 0.69535 0.0
Tb358 Tb 0.37914 0.14742 0.68602 0.0
O359 O 0.33479 0.18873 0.74748 0.0
O360 O 0.34607 0.14928 0.72468 0.0
O361 O 0.36724 0.22586 0.68955 0.0
C362 C 0.42708 0.13055 0.71035 0.0
O363 O 0.41029 0.20972 0.69582 0.0
C364 C 0.34908 0.14447 0.61913 0.0
C365 C 0.30067 0.08329 0.67592 0.0
O366 O 0.42939 0.15061 0.6827 0.0
O367 O 0.39788 0.12004 0.72382 0.0
O368 O 0.36386 0.12477 0.62585 0.0
O369 O 0.35554 0.16707 0.64809 0.0
O370 O 0.33274 0.09268 0.68846 0.0
O371 O 0.2922 0.10909 0.66877 0.0
C372 C 0.27407 0.18428 0.6603 0.0
O373 O 0.27249 0.16652 0.68978 0.0
O374 O 0.30267 0.19354 0.6458 0.0
C375 C 0.35139 0.1709 0.75413 0.0
Tb376 Tb 0.82757 0.18162 0.68623 0.0
C377 C 0.84906 0.11763 0.68038 0.0
Tb378 Tb 0.90377 0.20461 0.68717 0.0
O379 O 0.82454 0.19312 0.62733 0.0
O380 O 0.85908 0.17651 0.6475 0.0
O381 O 0.82435 0.12626 0.68415 0.0
C382 C 0.96594 0.22881 0.66347 0.0
O383 O 0.88192 0.14387 0.67975 0.0
C384 C 0.88063 0.20045 0.75409 0.0
C385 C 0.88334 0.26826 0.69035 0.0
O386 O 0.9571 0.21591 0.69578 0.0
O387 O 0.94003 0.22856 0.64493 0.0
O388 O 0.9076 0.19765 0.74819 0.0
O389 O 0.8721 0.21038 0.72478 0.0
O390 O 0.90581 0.25829 0.6799 0.0
O391 O 0.85222 0.24284 0.69913 0.0
C392 C 0.76604 0.15367 0.71206 0.0
O393 O 0.77411 0.17004 0.68118 0.0
O394 O 0.79246 0.15303 0.72814 0.0
C395 C 0.85049 0.18883 0.61979 0.0
C396 C 0.30504 0.88593 0.04827 0.0
C397 C 0.30055 0.86383 0.07873 0.0
C398 C 0.36264 0.88523 0.08546 0.0
C399 C 0.36653 0.90469 0.05291 0.0
N400 N 0.34137 0.92154 1.00119 0.0
N401 N 0.32357 0.83821 0.12345 0.0
C402 C 0.33764 0.90425 0.03355 0.0
C403 C 0.329 0.86249 0.09672 0.0
N404 N 0.27846 0.89069 0.03453 0.0
N405 N 0.39114 0.88849 0.10566 0.0
H406 H 0.29936 0.82118 0.1325 0.0
H407 H 0.34237 0.83272 0.1347 0.0
H408 H 0.41585 0.90253 0.0969 0.0
H409 H 0.39073 0.87915 0.13222 0.0
H410 H 0.281 0.90962 0.01524 0.0
H411 H 0.25433 0.87796 0.0448 0.0
H412 H 0.32064 0.91827 0.98319 0.0
H413 H 0.36517 0.93761 0.99091 0.0
C414 C 0.16481 0.45715 0.08581 0.0
C415 C 0.15896 0.42075 0.07385 0.0
C416 C 0.10688 0.40669 0.03279 0.0
C417 C 0.11138 0.44208 0.04676 0.0
N418 N 0.14453 0.50183 0.08525 0.0
N419 N 0.12487 0.36019 0.03753 0.0
C420 C 0.14041 0.46758 0.07286 0.0
C421 C 0.13026 0.39545 0.04745 0.0
N422 N 0.19406 0.48186 0.10923 0.0
N423 N 0.08007 0.38374 0.00576 0.0
H424 H 0.14227 0.35172 0.04652 0.0
H425 H 0.10268 0.33859 0.02178 0.0
H426 H 0.061 0.38962 0.99629 0.0
H427 H 0.07721 0.35952 0.99124 0.0
H428 H 0.20205 0.51003 0.11638 0.0
H429 H 0.21183 0.47481 0.1205 0.0
H430 H 0.16211 0.5199 0.1078 0.0
H431 H 0.12974 0.51238 0.07333 0.0
C432 C 0.60196 0.69942 0.05092 0.0
C433 C 0.575 0.70779 0.05304 0.0
C434 C 0.53466 0.64559 0.01931 0.0
C435 C 0.55964 0.6343 0.02498 0.0
N436 N 0.617 0.65116 0.05377 0.0
N437 N 0.51351 0.68493 0.04486 0.0
C438 C 0.5935 0.66142 0.04244 0.0
C439 C 0.5407 0.67988 0.03857 0.0
N440 N 0.63573 0.72775 0.0566 0.0
N441 N 0.50535 0.62393 0.99497 0.0
H442 H 0.51635 0.70857 0.06076 0.0
H443 H 0.48781 0.66372 0.03776 0.0
H444 H 0.50105 0.59982 0.97856 0.0
H445 H 0.48763 0.63247 0.98778 0.0
H446 H 0.65625 0.72341 0.05191 0.0
H447 H 0.64296 0.75603 0.06174 0.0
H448 H 0.64042 0.66971 0.06993 0.0
H449 H 0.6121 0.62369 0.05129 0.0
C450 C 0.87364 0.32747 0.9917 0.0
C451 C 0.88115 0.29919 0.9792 0.0
C452 C 0.94301 0.34505 0.99164 0.0
C453 C 0.93556 0.37264 0.00722 0.0
N454 N 0.89302 0.38381 0.03437 0.0
N455 N 0.92282 0.27849 0.98116 0.0
C456 C 0.9006 0.36176 0.01139 0.0
C457 C 0.9158 0.3071 0.9842 0.0
N458 N 0.84171 0.32312 0.98284 0.0
N459 N 0.97472 0.35473 0.98043 0.0
H460 H 0.90331 0.25025 0.97663 0.0
H461 H 0.94765 0.28281 0.98743 0.0
H462 H 0.99475 0.38225 0.98027 0.0
H463 H 0.9796 0.33528 0.96619 0.0
H464 H 0.83645 0.34475 0.9886 0.0
H465 H 0.82165 0.29973 0.96626 0.0
H466 H 0.86786 0.37552 0.04019 0.0
H467 H 0.91213 0.40788 0.05114 0.0
C468 C 0.70495 0.55516 0.94757 0.0
C469 C 0.73123 0.5932 0.9579 0.0
C470 C 0.69071 0.60476 0.99131 0.0
C471 C 0.66538 0.56588 0.98397 0.0
N472 N 0.65058 0.50274 0.96111 0.0
N473 N 0.75125 0.65298 0.99419 0.0
C474 C 0.67305 0.54069 0.96363 0.0
C475 C 0.72475 0.61762 0.98124 0.0
N476 N 0.71016 0.53305 0.92169 0.0
N477 N 0.68178 0.62982 0.00586 0.0
H478 H 0.77631 0.66362 0.98666 0.0
H479 H 0.74909 0.6706 0.01471 0.0
H480 H 0.65688 0.62189 0.01232 0.0
H481 H 0.69808 0.65888 0.00807 0.0
H482 H 0.6906 0.50654 0.9097 0.0
H483 H 0.73336 0.54238 0.90976 0.0
H484 H 0.65637 0.4828 0.95009 0.0
H485 H 0.62742 0.49086 0.9734 0.0
C486 C 0.41626 0.09079 0.96994 0.0
C487 C 0.44014 0.1302 0.97359 0.0
C488 C 0.48259 0.1187 0.00779 0.0
C489 C 0.46133 0.07925 0.99764 0.0
N490 N 0.41018 0.02934 0.95929 0.0
N491 N 0.50015 0.17961 0.98706 0.0
C492 C 0.42862 0.06553 0.97614 0.0
C493 C 0.47452 0.14366 0.99003 0.0
N494 N 0.38171 0.07729 0.96144 0.0
N495 N 0.50997 0.13261 0.03517 0.0
H496 H 0.4963 0.19801 0.97145 0.0
H497 H 0.52606 0.18936 0.99615 0.0
H498 H 0.51521 0.11533 0.05113 0.0
H499 H 0.52455 0.16112 0.04517 0.0
H500 H 0.36318 0.04897 0.96158 0.0
H501 H 0.37137 0.09483 0.95859 0.0
H502 H 0.38768 0.01953 0.94089 0.0
H503 H 0.41928 0.01058 0.95953 0.0
C504 C 0.69431 0.11606 0.9854 0.0
C505 C 0.69998 0.14115 0.95756 0.0
C506 C 0.64297 0.13431 0.96359 0.0
C507 C 0.6358 0.10619 0.98831 0.0
N508 N 0.65225 0.06503 0.01706 0.0
N509 N 0.67847 0.17122 0.9167 0.0
C510 C 0.66094 0.0959 0.99813 0.0
C511 C 0.67387 0.14928 0.94552 0.0
N512 N 0.72053 0.11078 0.99916 0.0
N513 N 0.62088 0.14786 0.95858 0.0
H514 H 0.70153 0.18487 0.90435 0.0
H515 H 0.65867 0.17401 0.90335 0.0
H516 H 0.59856 0.13846 0.97227 0.0
H517 H 0.62628 0.17093 0.94394 0.0
H518 H 0.71933 0.09671 0.02282 0.0
H519 H 0.74447 0.12248 0.98851 0.0
H520 H 0.66817 0.05363 0.02113 0.0
H521 H 0.62781 0.0483 0.0256 0.0
C522 C 0.90736 0.5898 0.99266 0.0
C523 C 0.88509 0.57347 0.95836 0.0
C524 C 0.90312 0.52645 0.95055 0.0
C525 C 0.92398 0.54154 0.98585 0.0
N526 N 0.94214 0.58363 0.04355 0.0
N527 N 0.85605 0.52181 0.90878 0.0
C528 C 0.92462 0.57175 0.00803 0.0
C529 C 0.88144 0.54059 0.93837 0.0
N530 N 0.91389 0.62385 0.00922 0.0
N531 N 0.90402 0.49859 0.92857 0.0
H532 H 0.83894 0.53059 0.89966 0.0
H533 H 0.84967 0.49561 0.89552 0.0
H534 H 0.91722 0.48517 0.93765 0.0
H535 H 0.89319 0.49007 0.90046 0.0
H536 H 0.93284 0.63929 0.03181 0.0
H537 H 0.90259 0.63855 0.99835 0.0
H538 H 0.94011 0.60235 0.06276 0.0
H539 H 0.95694 0.57289 0.055 0.0
C540 C 0.49091 0.34259 0.98067 0.0
C541 C 0.45998 0.32122 0.99753 0.0
C542 C 0.47016 0.37871 0.03441 0.0
C543 C 0.49722 0.40093 0.01241 0.0
N544 N 0.53234 0.40319 0.96231 0.0
N545 N 0.41922 0.31852 0.03986 0.0
C546 C 0.50792 0.38274 0.98548 0.0
C547 C 0.44946 0.33918 0.02439 0.0
N548 N 0.50365 0.32458 0.95924 0.0
N549 N 0.46482 0.39538 0.06565 0.0
H550 H 0.40446 0.28922 0.03505 0.0
H551 H 0.40778 0.33055 0.05574 0.0
H552 H 0.48005 0.42406 0.07451 0.0
H553 H 0.44783 0.38038 0.08495 0.0
H554 H 0.52816 0.33827 0.95003 0.0
H555 H 0.49099 0.29543 0.95321 0.0
H556 H 0.53763 0.39112 0.93902 0.0
H557 H 0.54561 0.43236 0.96385 0.0
C558 C 0.14796 0.65464 0.0673 0.0
C559 C 0.13989 0.6812 0.05409 0.0
C560 C 0.09154 0.63111 0.01145 0.0
C561 C 0.0951 0.60366 0.03048 0.0
N562 N 0.12609 0.59066 0.08062 0.0
N563 N 0.10381 0.69562 0.01403 0.0
C564 C 0.12352 0.61564 0.05903 0.0
C565 C 0.11188 0.6698 0.02589 0.0
N566 N 0.1791 0.66685 0.088 0.0
N567 N 0.06942 0.62035 0.97902 0.0
H568 H 0.11885 0.7243 0.02319 0.0
H569 H 0.08117 0.6883 0.99698 0.0
H570 H 0.05508 0.59251 0.96682 0.0
H571 H 0.06803 0.63935 0.9621 0.0
H572 H 0.18823 0.64897 0.09498 0.0
H573 H 0.19745 0.69535 0.09456 0.0
H574 H 0.1445 0.59891 0.10392 0.0
H575 H 0.108 0.56215 0.07877 0.0
C576 C 0.35959 0.45196 0.10545 0.0
C577 C 0.32889 0.4305 0.08027 0.0
C578 C 0.3636 0.44089 0.02681 0.0
C579 C 0.39402 0.46541 0.05153 0.0
N580 N 0.42016 0.50035 0.11297 0.0
N581 N 0.30095 0.40668 0.01643 0.0
C582 C 0.39182 0.47254 0.09052 0.0
C583 C 0.33068 0.42598 0.04072 0.0
N584 N 0.35807 0.45261 0.1437 0.0
N585 N 0.36618 0.4296 0.9908 0.0
H586 H 0.27643 0.39183 0.02549 0.0
H587 H 0.30045 0.4069 0.98716 0.0
H588 H 0.38969 0.4386 0.97974 0.0
H589 H 0.34528 0.40852 0.97288 0.0
H590 H 0.37994 0.46409 0.16337 0.0
H591 H 0.33491 0.43902 0.15584 0.0
H592 H 0.41935 0.50936 0.14068 0.0
H593 H 0.44382 0.5173 0.10276 0.0
C594 C 0.54727 0.87773 0.01205 0.0
C595 C 0.57196 0.88763 0.04405 0.0
C596 C 0.57058 0.94572 0.05881 0.0
C597 C 0.54227 0.93321 0.0303 0.0
N598 N 0.50146 0.88517 0.98163 0.0
N599 N 0.60078 0.92701 0.10294 0.0
C600 C 0.52967 0.89832 0.00778 0.0
C601 C 0.58189 0.92052 0.06877 0.0
N602 N 0.54237 0.85062 0.98426 0.0
N603 N 0.58726 0.98171 0.07633 0.0
H604 H 0.60846 0.90864 0.11246 0.0
H605 H 0.60542 0.94844 0.1237 0.0
H606 H 0.58001 1.00149 0.0712 0.0
H607 H 0.61047 0.99306 0.09381 0.0
H608 H 0.52721 0.84479 0.95862 0.0
H609 H 0.55652 0.83687 0.98475 0.0
H610 H 0.48869 0.85797 0.96772 0.0
H611 H 0.48949 0.9006 0.97544 0.0
C612 C 0.96864 0.23621 0.3926 0.0
C613 C 0.96017 0.20254 0.40891 0.0
C614 C 0.01663 0.21043 0.39733 0.0
C615 C 0.02619 0.24566 0.38382 0.0
N616 N 0.01399 0.29575 0.37589 0.0
N617 N 0.97769 0.16049 0.43268 0.0
C618 C 1.00288 0.25953 0.38325 0.0
C619 C 0.98467 0.1905 0.41302 0.0
N620 N 0.94376 0.2456 0.38545 0.0
N621 N 0.03738 0.19517 0.39362 0.0
H622 H 0.95433 0.14482 0.44402 0.0
H623 H 0.99601 0.15298 0.44043 0.0
H624 H 0.06059 0.20842 0.38151 0.0
H625 H 0.03012 0.16788 0.39925 0.0
H626 H 0.94722 0.26743 0.36968 0.0
H627 H 0.91863 0.22973 0.39274 0.0
H628 H 0.99935 0.30873 0.37909 0.0
H629 H 0.03913 0.31424 0.37012 0.0
C630 C 0.79161 0.7431 0.37289 0.0
C631 C 0.81603 0.7656 0.40436 0.0
C632 C 0.7904 0.80595 0.40876 0.0
C633 C 0.76712 0.78458 0.376 0.0
N634 N 0.74832 0.73623 0.32366 0.0
N635 N 0.84254 0.82137 0.44892 0.0
C636 C 0.76875 0.75436 0.35693 0.0
C637 C 0.81644 0.79782 0.42145 0.0
N638 N 0.78914 0.70995 0.35945 0.0
N639 N 0.78768 0.83408 0.42774 0.0
H640 H 0.86199 0.81623 0.45893 0.0
H641 H 0.84665 0.84744 0.45984 0.0
H642 H 0.7714 0.84355 0.41761 0.0
H643 H 0.80042 0.84708 0.45451 0.0
H644 H 0.76937 0.69009 0.33954 0.0
H645 H 0.80535 0.70066 0.37036 0.0
H646 H 0.75125 0.71714 0.30604 0.0
H647 H 0.72973 0.742 0.3122 0.0
C648 C 0.23944 0.04202 0.36451 0.0
C649 C 0.22761 0.0478 0.39902 0.0
C650 C 0.20372 0.98164 0.4079 0.0
C651 C 0.21164 0.97434 0.37157 0.0
N652 N 0.2345 0.99724 0.31323 0.0
N653 N 0.18972 0.02069 0.44738 0.0
C654 C 0.22871 1.00448 0.34913 0.0
C655 C 0.20667 0.01671 0.41849 0.0
N656 N 0.26193 0.07229 0.34736 0.0
N657 N 0.19675 0.95657 0.43387 0.0
H658 H 0.19028 0.04585 0.45493 0.0
H659 H 0.17215 0.99796 0.46063 0.0
H660 H 0.19966 0.93326 0.42884 0.0
H661 H 0.19341 0.96189 0.46185 0.0
H662 H 0.27441 0.07017 0.32445 0.0
H663 H 0.26989 0.09994 0.35767 0.0
H664 H 0.24354 0.01724 0.29402 0.0
H665 H 0.22807 0.97038 0.30192 0.0
C666 C 0.55112 0.67048 0.26861 0.0
C667 C 0.5375 0.64082 0.29203 0.0
C668 C 0.57315 0.68628 0.34684 0.0
C669 C 0.59045 0.71405 0.32216 0.0
N670 N 0.60154 0.72835 0.258 0.0
N671 N 0.54018 0.61952 0.35323 0.0
C672 C 0.58111 0.70494 0.28256 0.0
C673 C 0.54971 0.64839 0.33124 0.0
N674 N 0.5348 0.66634 0.23345 0.0
N675 N 0.57848 0.69615 0.38498 0.0
H676 H 0.52393 0.59138 0.34264 0.0
H677 H 0.55097 0.62329 0.38107 0.0
H678 H 0.59464 0.72384 0.39687 0.0
H679 H 0.56429 0.67771 0.40416 0.0
H680 H 0.54238 0.6884 0.21662 0.0
H681 H 0.51129 0.64242 0.2233 0.0
H682 H 0.59709 0.72133 0.22874 0.0
H683 H 0.62511 0.75253 0.26709 0.0
C684 C 0.35664 0.90465 0.27136 0.0
C685 C 0.38655 0.93754 0.28933 0.0
C686 C 0.35227 0.94434 0.33717 0.0
C687 C 0.32196 0.9128 0.31788 0.0
N688 N 0.29419 0.86484 0.26447 0.0
N689 N 0.41244 0.99217 0.33535 0.0
C690 C 0.32381 0.8937 0.28417 0.0
C691 C 0.38426 0.9583 0.32123 0.0
N692 N 0.35991 0.88281 0.24323 0.0
N693 N 0.3505 0.96107 0.37069 0.0
H694 H 0.43617 1.00332 0.32424 0.0
H695 H 0.41174 0.01077 0.35592 0.0
H696 H 0.32733 0.95343 0.38205 0.0
H697 H 0.37216 0.98107 0.38849 0.0
H698 H 0.33994 0.85631 0.23185 0.0
H699 H 0.38342 0.88983 0.23297 0.0
H700 H 0.29314 0.85352 0.23712 0.0
H701 H 0.27002 0.85312 0.27457 0.0
C702 C 0.08396 0.43806 0.31337 0.0
C703 C 0.10969 0.47614 0.31177 0.0
C704 C 0.1522 0.46389 0.34432 0.0
C705 C 0.12839 0.42449 0.33848 0.0
N706 N 0.07178 0.37408 0.31003 0.0
N707 N 0.17044 0.52361 0.32001 0.0
C708 C 0.09414 0.4114 0.32132 0.0
C709 C 0.14444 0.48872 0.32581 0.0
N710 N 0.04974 0.42734 0.30787 0.0
N711 N 0.18183 0.47785 0.36844 0.0
H712 H 0.16627 0.54214 0.30499 0.0
H713 H 0.19652 0.53243 0.32668 0.0
H714 H 0.18727 0.46085 0.38463 0.0
H715 H 0.19862 0.5066 0.3758 0.0
H716 H 0.03 0.40061 0.31221 0.0
H717 H 0.04132 0.44634 0.30327 0.0
H718 H 0.04808 0.36435 0.29401 0.0
H719 H 0.07788 0.35306 0.31255 0.0
C720 C 0.35907 0.46679 0.3215 0.0
C721 C 0.35958 0.47554 0.28346 0.0
C722 C 0.29709 0.45212 0.2786 0.0
C723 C 0.29611 0.44048 0.31542 0.0
N724 N 0.3248 0.43242 0.37056 0.0
N725 N 0.32949 0.47532 0.2248 0.0
C726 C 0.3268 0.44712 0.33677 0.0
C727 C 0.32864 0.46771 0.26169 0.0
N728 N 0.38936 0.47669 0.34289 0.0
N729 N 0.26811 0.44976 0.26053 0.0
H730 H 0.35245 0.48981 0.21243 0.0
H731 H 0.30749 0.46583 0.20577 0.0
H732 H 0.2448 0.43937 0.27242 0.0
H733 H 0.26765 0.46088 0.23521 0.0
H734 H 0.39139 0.4758 0.37204 0.0
H735 H 0.41313 0.48775 0.33196 0.0
H736 H 0.34539 0.43222 0.38549 0.0
H737 H 0.30173 0.41768 0.38265 0.0
C738 C 0.56889 0.93733 0.33132 0.0
C739 C 0.53853 0.91386 0.30629 0.0
C740 C 0.54657 0.8598 0.31362 0.0
C741 C 0.5791 0.88429 0.33489 0.0
N742 N 0.62229 0.94625 0.36348 0.0
N743 N 0.4982 0.85332 0.27242 0.0
C744 C 0.59045 0.92302 0.34383 0.0
C745 C 0.52714 0.87514 0.29737 0.0
N746 N 0.57707 0.97331 0.34299 0.0
N747 N 0.53437 0.82191 0.30876 0.0
H748 H 0.48215 0.86295 0.26183 0.0
H749 H 0.49077 0.82628 0.26074 0.0
H750 H 0.54838 0.80972 0.31877 0.0
H751 H 0.5094 0.80203 0.29705 0.0
H752 H 0.59692 0.99089 0.36402 0.0
H753 H 0.56232 0.98488 0.33352 0.0
H754 H 0.63411 0.97544 0.36707 0.0
H755 H 0.63786 0.93638 0.37493 0.0
C756 C 0.11842 0.67955 0.34248 0.0
C757 C 0.13524 0.66737 0.31777 0.0
C758 C 0.17982 0.73275 0.31347 0.0
C759 C 0.16293 0.74534 0.33826 0.0
N760 N 0.12388 0.72986 0.38657 0.0
N761 N 0.18752 0.68093 0.2909 0.0
C762 C 0.13463 0.71841 0.35603 0.0
C763 C 0.16791 0.6936 0.30716 0.0
N764 N 0.0863 0.65449 0.3516 0.0
N765 N 0.20541 0.7572 0.29362 0.0
H766 H 0.17942 0.65235 0.28616 0.0
H767 H 0.21315 0.69857 0.28614 0.0
H768 H 0.2138 0.78568 0.29413 0.0
H769 H 0.21623 0.74852 0.2731 0.0
H770 H 0.0711 0.66264 0.36582 0.0
H771 H 0.07386 0.62576 0.34267 0.0
H772 H 0.10523 0.71119 0.40249 0.0
H773 H 0.13647 0.7578 0.39865 0.0
C774 C 0.80568 0.99523 0.39665 0.0
C775 C 0.7971 0.02183 0.38465 0.0
C776 C 0.74689 0.97162 0.34425 0.0
C777 C 0.75118 0.94428 0.36255 0.0
N778 N 0.78473 0.93114 0.40931 0.0
N779 N 0.75956 0.03628 0.34727 0.0
C780 C 0.78095 0.95622 0.38907 0.0
C781 C 0.76793 0.01039 0.35811 0.0
N782 N 0.83757 0.00746 0.41554 0.0
N783 N 0.72351 0.96062 0.31287 0.0
H784 H 0.77515 0.06502 0.35591 0.0
H785 H 0.73629 0.02901 0.33158 0.0
H786 H 0.70904 0.93272 0.30073 0.0
H787 H 0.72125 0.97951 0.2965 0.0
H788 H 0.847 0.98962 0.42151 0.0
H789 H 0.8561 0.03597 0.42158 0.0
H790 H 0.80434 0.93922 0.43124 0.0
H791 H 0.76676 0.90259 0.40754 0.0
C792 C 0.98767 0.73959 0.364 0.0
C793 C 0.97829 0.76153 0.38729 0.0
C794 C 0.03341 0.81839 0.38043 0.0
C795 C 0.04425 0.79584 0.36052 0.0
N796 N 0.03329 0.73456 0.33601 0.0
N797 N 0.99491 0.82033 0.42406 0.0
C798 C 0.02184 0.75628 0.35318 0.0
C799 C 1.00172 0.80063 0.39695 0.0
N800 N 0.96346 0.70322 0.35088 0.0
N801 N 0.05358 0.85675 0.38421 0.0
H802 H 0.97285 0.80811 0.43827 0.0
H803 H 0.01272 0.8478 0.43541 0.0
H804 H 0.0778 0.87103 0.37442 0.0
H805 H 0.04513 0.87462 0.39451 0.0
H806 H 0.96753 0.68698 0.33056 0.0
H807 H 0.93805 0.69013 0.35774 0.0
H808 H 0.02004 0.7053 0.33442 0.0
H809 H 0.05706 0.74583 0.325 0.0
C810 C 0.20969 0.24203 0.43446 0.0
C811 C 0.22503 0.22754 0.40995 0.0
C812 C 0.21491 0.25856 0.3578 0.0
C813 C 0.19776 0.27121 0.38167 0.0
N814 N 0.17605 0.2728 0.44185 0.0
N815 N 0.24018 0.21898 0.34778 0.0
C816 C 0.19424 0.26217 0.41972 0.0
C817 C 0.22685 0.23475 0.37138 0.0
N818 N 0.21053 0.23712 0.47212 0.0
N819 N 0.22057 0.27015 0.32245 0.0
H820 H 0.25153 0.20381 0.35714 0.0
H821 H 0.23851 0.21917 0.31852 0.0
H822 H 0.21126 0.28653 0.31119 0.0
H823 H 0.2362 0.26568 0.30501 0.0
H824 H 0.20399 0.25091 0.49258 0.0
H825 H 0.21974 0.22073 0.48364 0.0
H826 H 0.16875 0.26325 0.46797 0.0
H827 H 0.1664 0.28981 0.43343 0.0
C828 C 0.6379 0.5694 0.72054 0.0
C829 C 0.63203 0.53675 0.73747 0.0
C830 C 0.68676 0.5447 0.71839 0.0
C831 C 0.6937 0.57867 0.70337 0.0
N832 N 0.67821 0.62604 0.69401 0.0
N833 N 0.65308 0.4969 0.75884 0.0
C834 C 0.67001 0.5919 0.70579 0.0
C835 C 0.65709 0.52539 0.7381 0.0
N836 N 0.6122 0.57806 0.71722 0.0
N837 N 0.70845 0.53075 0.71391 0.0
H838 H 0.63175 0.48227 0.77375 0.0
H839 H 0.67212 0.48989 0.76417 0.0
H840 H 0.73157 0.54479 0.70189 0.0
H841 H 0.70253 0.50394 0.71996 0.0
H842 H 0.6131 0.5988 0.70131 0.0
H843 H 0.58869 0.56275 0.72835 0.0
H844 H 0.66429 0.63951 0.69937 0.0
H845 H 0.70014 0.64208 0.68047 0.0
C846 C 0.49474 0.12313 0.77355 0.0
C847 C 0.50102 0.09886 0.74986 0.0
C848 C 0.46266 0.09994 0.69818 0.0
C849 C 0.45277 0.11987 0.72374 0.0
N850 N 0.45355 0.14154 0.78894 0.0
N851 N 0.48618 0.05854 0.69135 0.0
C852 C 0.46704 0.12888 0.76236 0.0
C853 C 0.48397 0.08597 0.71243 0.0
N854 N 0.51559 0.14121 0.80657 0.0
N855 N 0.45091 0.09318 0.66055 0.0
H856 H 0.50052 0.04659 0.70104 0.0
H857 H 0.47125 0.04506 0.66561 0.0
H858 H 0.43272 0.09959 0.64925 0.0
H859 H 0.46075 0.08305 0.64012 0.0
H860 H 0.5141 0.162 0.82313 0.0
H861 H 0.5368 0.13844 0.81519 0.0
H862 H 0.46115 0.14508 0.81789 0.0
H863 H 0.432 0.14409 0.78285 0.0
C864 C 0.93722 0.3749 0.7206 0.0
C865 C 0.91037 0.3832 0.72366 0.0
C866 C 0.86929 0.32022 0.69208 0.0
C867 C 0.89446 0.30914 0.69765 0.0
N868 N 0.95262 0.32719 0.72523 0.0
N869 N 0.84888 0.36057 0.71684 0.0
C870 C 0.92872 0.33682 0.7136 0.0
C871 C 0.87581 0.35512 0.71035 0.0
N872 N 0.97093 0.40337 0.72469 0.0
N873 N 0.83948 0.29791 0.66868 0.0
H874 H 0.8521 0.38493 0.73157 0.0
H875 H 0.82309 0.33926 0.71081 0.0
H876 H 0.83486 0.27344 0.65274 0.0
H877 H 0.82159 0.30624 0.66158 0.0
H878 H 0.99132 0.39898 0.71943 0.0
H879 H 0.97798 0.43166 0.72909 0.0
H880 H 0.97647 0.34651 0.74018 0.0
H881 H 0.9478 0.29979 0.72472 0.0
C882 C 0.25137 0.97626 0.64545 0.0
C883 C 0.21699 0.96936 0.64114 0.0
C884 C 0.23806 0.03266 0.67232 0.0
C885 C 0.27285 0.04255 0.66822 0.0
N886 N 0.31147 0.02222 0.64445 0.0
N887 N 0.17865 0.99452 0.64503 0.0
C888 C 0.27942 0.0139 0.6535 0.0
C889 C 0.21052 0.99847 0.6532 0.0
N890 N 0.25732 0.94685 0.64218 0.0
N891 N 0.23114 0.05514 0.69555 0.0
H892 H 0.15805 0.97074 0.62946 0.0
H893 H 0.17392 0.0166 0.65035 0.0
H894 H 0.25051 0.07861 0.71284 0.0
H895 H 0.20613 0.04757 0.70137 0.0
H896 H 0.2817 0.95009 0.64865 0.0
H897 H 0.23736 0.91885 0.63721 0.0
H898 H 0.31586 1.00249 0.63 0.0
H899 H 0.33292 0.04912 0.64692 0.0
C900 C 0.06222 0.2777 0.65154 0.0
C901 C 0.06156 0.25668 0.61811 0.0
C902 C 0.99823 0.21833 0.61371 0.0
C903 C 0.99895 0.23826 0.64817 0.0
N904 N 0.03092 0.28493 0.70159 0.0
N905 N 0.03037 0.20515 0.5688 0.0
C906 C 0.03079 0.26729 0.66768 0.0
C907 C 0.02991 0.22661 0.59946 0.0
N908 N 0.09284 0.30828 0.66711 0.0
N909 N 0.96723 0.19128 0.59468 0.0
H910 H 0.05289 0.211 0.55673 0.0
H911 H 0.00894 0.18019 0.55636 0.0
H912 H 0.94367 0.18098 0.60597 0.0
H913 H 0.96437 0.17969 0.56697 0.0
H914 H 0.09499 0.32739 0.6891 0.0
H915 H 0.11637 0.31605 0.65646 0.0
H916 H 0.05321 0.30314 0.71953 0.0
H917 H 0.0084 0.28019 0.71295 0.0
C918 C 0.81051 0.80197 0.60811 0.0
C919 C 0.78649 0.80772 0.6273 0.0
C920 C 0.78476 0.76452 0.67287 0.0
C921 C 0.8056 0.7555 0.65108 0.0
N922 N 0.83161 0.7597 0.59268 0.0
N923 N 0.74588 0.7893 0.67405 0.0
C924 C 0.81677 0.77267 0.61728 0.0
C925 C 0.77227 0.78757 0.65867 0.0
N926 N 0.82807 0.82509 0.58172 0.0
N927 N 0.77787 0.75218 0.70777 0.0
H928 H 0.73569 0.80543 0.66422 0.0
H929 H 0.732 0.77209 0.69421 0.0
H930 H 0.78714 0.73594 0.71952 0.0
H931 H 0.76585 0.76105 0.72656 0.0
H932 H 0.84845 0.82463 0.56969 0.0
H933 H 0.82462 0.84723 0.57457 0.0
H934 H 0.83673 0.76844 0.56581 0.0
H935 H 0.83542 0.7373 0.59722 0.0
C936 C 0.02963 0.77122 0.66642 0.0
C937 C 0.04028 0.80268 0.64546 0.0
C938 C 0.98311 0.79692 0.64678 0.0
C939 C 0.97293 0.76633 0.66899 0.0
N940 N 0.98841 0.72927 0.70649 0.0
N941 N 0.02953 0.84946 0.62067 0.0
C942 C 0.99679 0.7549 0.68068 0.0
C943 C 0.01789 0.81704 0.63763 0.0
N944 N 0.05079 0.75663 0.67235 0.0
N945 N 0.95899 0.80498 0.63193 0.0
H946 H 0.05384 0.86362 0.61101 0.0
H947 H 0.016 0.86381 0.61845 0.0
H948 H 0.93314 0.79064 0.63715 0.0
H949 H 0.96373 0.82373 0.61175 0.0
H950 H 0.04287 0.73094 0.683 0.0
H951 H 0.07594 0.76924 0.6647 0.0
H952 H 1.00576 0.72236 0.7191 0.0
H953 H 0.9649 0.71738 0.71814 0.0
C954 C 0.22226 0.23309 0.64611 0.0
C955 C 0.2055 0.21732 0.60892 0.0
C956 C 0.23228 0.17802 0.60635 0.0
C957 C 0.24745 0.19232 0.64428 0.0
N958 N 0.25192 0.22807 0.70279 0.0
N959 N 0.18928 0.17001 0.55613 0.0
C960 C 0.24051 0.2178 0.66509 0.0
C961 C 0.2091 0.18848 0.58967 0.0
N962 N 0.22313 0.26457 0.66223 0.0
N963 N 0.24016 0.15449 0.58618 0.0
H964 H 0.17154 0.17634 0.54329 0.0
H965 H 0.18806 0.14622 0.54255 0.0
H966 H 0.25427 0.14326 0.59835 0.0
H967 H 0.23406 0.14744 0.55702 0.0
H968 H 0.23807 0.27973 0.68749 0.0
H969 H 0.21188 0.2781 0.64859 0.0
H970 H 0.24424 0.24309 0.72033 0.0
H971 H 0.26684 0.21905 0.71738 0.0
C972 C 0.84176 0.02637 0.6354 0.0
C973 C 0.81069 0.99938 0.64843 0.0
C974 C 0.81197 0.04923 0.691 0.0
C975 C 0.83855 0.077 0.67191 0.0
N976 N 0.87604 0.09029 0.62131 0.0
N977 N 0.76487 0.98463 0.68788 0.0
C978 C 0.85324 0.06527 0.64329 0.0
C979 C 0.79559 0.01056 0.6764 0.0
N980 N 0.86023 0.01468 0.61518 0.0
N981 N 0.80308 0.05962 0.72372 0.0
H982 H 0.75263 0.95601 0.67846 0.0
H983 H 0.75051 0.99188 0.70479 0.0
H984 H 0.81564 0.08734 0.73631 0.0
H985 H 0.78606 0.04034 0.74053 0.0
H986 H 0.88502 0.03296 0.60831 0.0
H987 H 0.85237 0.98628 0.60907 0.0
H988 H 0.88502 0.08217 0.59837 0.0
H989 H 0.88323 0.11849 0.6224 0.0
C990 C 0.45172 0.33375 0.74758 0.0
C991 C 0.46631 0.35498 0.71713 0.0
C992 C 0.44562 0.29642 0.67548 0.0
C993 C 0.42626 0.27561 0.70415 0.0
N994 N 0.40998 0.27434 0.7676 0.0
N995 N 0.47524 0.35711 0.651 0.0
C996 C 0.42919 0.29426 0.74029 0.0
C997 C 0.46318 0.33652 0.68082 0.0
N998 N 0.46048 0.35116 0.78381 0.0
N999 N 0.4474 0.27786 0.64335 0.0
H1000 H 0.48785 0.38642 0.6537 0.0
H1001 H 0.47037 0.34514 0.62306 0.0
H1002 H 0.43537 0.24861 0.63916 0.0
H1003 H 0.46349 0.29134 0.62277 0.0
H1004 H 0.45372 0.33671 0.80767 0.0
H1005 H 0.47755 0.37994 0.79044 0.0
H1006 H 0.40723 0.28674 0.79253 0.0
H1007 H 0.39533 0.2452 0.76442 0.0
C1008 C 0.66955 0.08919 0.71756 0.0
C1009 C 0.66653 0.1011 0.75473 0.0
C1010 C 0.72861 0.1483 0.76346 0.0
C1011 C 0.73156 0.13654 0.72618 0.0
N1012 N 0.70701 0.09238 0.66981 0.0
N1013 N 0.69127 0.1446 0.81159 0.0
C1014 C 0.7025 0.1064 0.70353 0.0
C1015 C 0.69565 0.13106 0.77751 0.0
N1016 N 0.6408 0.06124 0.69573 0.0
N1017 N 0.75748 0.17585 0.78551 0.0
H1018 H 0.66755 0.13324 0.8227 0.0
H1019 H 0.71038 0.16868 0.82811 0.0
H1020 H 0.78132 0.1917 0.77522 0.0
H1021 H 0.75853 0.18231 0.81446 0.0
H1022 H 0.63978 0.05462 0.66683 0.0
H1023 H 0.61709 0.04518 0.70619 0.0
H1024 H 0.68799 0.068 0.65361 0.0
H1025 H 0.73076 0.10352 0.65884 0.0
C1026 C 0.90613 0.57546 0.70326 0.0
C1027 C 0.88536 0.54709 0.72597 0.0
C1028 C 0.83516 0.55241 0.70406 0.0
C1029 C 0.85728 0.58527 0.68709 0.0
N1030 N 0.90811 0.61478 0.65436 0.0
N1031 N 0.83024 0.50905 0.74941 0.0
C1032 C 0.89127 0.59302 0.68192 0.0
C1033 C 0.84989 0.53567 0.72673 0.0
N1034 N 0.94051 0.58703 0.7037 0.0
N1035 N 0.80012 0.53488 0.69542 0.0
H1036 H 0.83937 0.4945 0.76484 0.0
H1037 H 0.80562 0.50325 0.75492 0.0
H1038 H 0.78875 0.54194 0.67342 0.0
H1039 H 0.78276 0.50958 0.70518 0.0
H1040 H 0.95802 0.6106 0.69151 0.0
H1041 H 0.9522 0.57464 0.7187 0.0
H1042 H 0.93192 0.61952 0.64698 0.0
H1043 H 0.89596 0.62391 0.63533 0.0
C1044 C 0.4758 0.96405 0.16462 0.0
C1045 C 0.47014 0.98721 0.19065 0.0
C1046 C 0.48638 0.03384 0.14459 0.0
C1047 C 0.49761 0.01329 0.12174 0.0
N1048 N 0.5127 0.96452 0.11871 0.0
N1049 N 0.47407 0.04689 0.20745 0.0
C1050 C 0.49477 0.97977 0.13397 0.0
C1051 C 0.47641 0.02291 0.18121 0.0
N1052 N 0.46336 0.927 0.16932 0.0
N1053 N 0.48404 0.06281 0.13104 0.0
H1054 H 0.46686 0.03984 0.23437 0.0
H1055 H 0.48186 0.07471 0.20348 0.0
H1056 H 0.49017 0.07096 0.10415 0.0
H1057 H 0.4729 0.07634 0.14505 0.0
H1058 H 0.46467 0.90836 0.14923 0.0
H1059 H 0.44834 0.91409 0.19096 0.0
H1060 H 0.51337 0.94165 0.12872 0.0
H1061 H 0.53107 0.97831 0.1004 0.0
C1062 C 0.07408 0.53679 0.17474 0.0
C1063 C 0.05891 0.50869 0.19973 0.0
C1064 C 0.01411 0.46754 0.14794 0.0
C1065 C 0.027 0.49764 0.12499 0.0
N1066 N 0.06205 0.56471 0.12278 0.0
N1067 N 0.00976 0.44981 0.21184 0.0
C1068 C 0.05504 0.53338 0.14002 0.0
C1069 C 0.02764 0.47455 0.18681 0.0
N1070 N 0.10696 0.56648 0.1837 0.0
N1071 N 0.9892 0.43223 0.13264 0.0
H1072 H 0.0178 0.45465 0.24076 0.0
H1073 H 0.9852 0.42637 0.20456 0.0
H1074 H 0.97835 0.42622 0.10451 0.0
H1075 H 0.98144 0.40849 0.147 0.0
H1076 H 0.11979 0.58626 0.16502 0.0
H1077 H 0.12265 0.56899 0.20791 0.0
H1078 H 0.08022 0.59184 0.1349 0.0
H1079 H 0.04706 0.56399 0.09882 0.0
C1080 C 0.51048 0.51057 0.18174 0.0
C1081 C 0.50395 0.54086 0.18624 0.0
C1082 C 0.52966 0.56326 0.12826 0.0
C1083 C 0.53189 0.5305 0.1204 0.0
N1084 N 0.5222 0.471 0.13889 0.0
N1085 N 0.49812 0.58914 0.15763 0.0
C1086 C 0.52168 0.50348 0.14697 0.0
C1087 C 0.51045 0.56485 0.15739 0.0
N1088 N 0.50706 0.48946 0.21096 0.0
N1089 N 0.54841 0.59431 0.11017 0.0
H1090 H 0.48225 0.58956 0.17761 0.0
H1091 H 0.50026 0.60532 0.13548 0.0
H1092 H 0.56693 0.596 0.09295 0.0
H1093 H 0.54939 0.61983 0.1168 0.0
H1094 H 0.51492 0.4696 0.21101 0.0
H1095 H 0.49836 0.49358 0.23633 0.0
H1096 H 0.51141 0.44842 0.15504 0.0
H1097 H 0.53166 0.46574 0.11466 0.0
C1098 C 0.94362 0.44749 0.8688 0.0
C1099 C 0.96035 0.4725 0.84166 0.0
C1100 C 0.0124 0.50722 0.88755 0.0
C1101 C 0.99706 0.47884 0.91229 0.0
N1102 N 0.95194 0.41551 0.91906 0.0
N1103 N 0.013 0.5233 0.8231 0.0
C1104 C 0.96357 0.44728 0.90111 0.0
C1105 C 0.99538 0.50181 0.85048 0.0
N1106 N 0.90864 0.42357 0.86353 0.0
N1107 N 0.04285 0.53959 0.89951 0.0
H1108 H 1.00169 0.52016 0.79564 0.0
H1109 H 0.03957 0.54216 0.82677 0.0
H1110 H 0.05638 0.54433 0.92606 0.0
H1111 H 0.0532 0.56291 0.88429 0.0
H1112 H 0.89489 0.407 0.88418 0.0
H1113 H 0.89312 0.42339 0.84031 0.0
H1114 H 0.92862 0.39078 0.91021 0.0
H1115 H 0.96791 0.41204 0.93887 0.0
C1116 C 0.54141 0.47558 0.86382 0.0
C1117 C 0.55025 0.50397 0.83908 0.0
C1118 C 0.53947 0.54107 0.88754 0.0
C1119 C 0.52652 0.51036 0.90979 0.0
N1120 N 0.50493 0.44398 0.91184 0.0
N1121 N 0.55186 0.56131 0.82497 0.0
C1122 C 0.5247 0.47638 0.89601 0.0
C1123 C 0.54783 0.53623 0.85029 0.0
N1124 N 0.54951 0.44808 0.85709 0.0
N1125 N 0.54448 0.57505 0.90216 0.0
H1126 H 0.55724 0.5584 0.79732 0.0
H1127 H 0.54684 0.58315 0.83035 0.0
H1128 H 0.53831 0.57949 0.92904 0.0
H1129 H 0.55727 0.59948 0.88887 0.0
H1130 H 0.54607 0.42863 0.87618 0.0
H1131 H 0.56312 0.44734 0.83465 0.0
H1132 H 0.49993 0.41776 0.89998 0.0
H1133 H 0.49012 0.44256 0.93376 0.0
C1134 C 0.48513 0.99834 0.84729 0.0
C1135 C 0.52058 0.02551 0.84558 0.0
C1136 C 0.53395 0.00962 0.90687 0.0
C1137 C 0.49864 0.99097 0.91275 0.0
N1138 N 0.43972 0.9707 0.88826 0.0
N1139 N 0.57798 0.06258 0.88014 0.0
C1140 C 0.47378 0.98589 0.88281 0.0
C1141 C 0.54499 0.03267 0.87706 0.0
N1142 N 0.46255 0.98354 0.81506 0.0
N1143 N 0.55675 1.00415 0.92865 0.0
H1144 H 0.58645 0.08307 0.86142 0.0
H1145 H 0.59553 0.06934 0.90403 0.0
H1146 H 0.54824 0.98371 0.94741 0.0
H1147 H 0.58269 0.01582 0.92396 0.0
H1148 H 0.43711 0.96164 0.81474 0.0
H1149 H 0.47043 0.99 0.78823 0.0
H1150 H 0.4215 0.9701 0.86811 0.0
H1151 H 0.43019 0.96165 0.91386 0.0
C1152 C 0.11967 0.31396 0.49279 0.0
C1153 C 0.14441 0.31876 0.52286 0.0
C1154 C 0.19082 0.36259 0.48777 0.0
C1155 C 0.16569 0.35974 0.45932 0.0
N1156 N 0.107 0.34495 0.44425 0.0
N1157 N 0.20263 0.35785 0.55382 0.0
C1158 C 0.13033 0.33942 0.46497 0.0
C1159 C 0.17976 0.3464 0.52197 0.0
N1160 N 0.08666 0.284 0.48913 0.0
N1161 N 0.22485 0.37869 0.48178 0.0
H1162 H 0.19513 0.34804 0.57989 0.0
H1163 H 0.22804 0.3801 0.55521 0.0
H1164 H 0.23442 0.39063 0.4572 0.0
H1165 H 0.24312 0.37738 0.50021 0.0
H1166 H 0.06877 0.27842 0.46594 0.0
H1167 H 0.07838 0.26244 0.50663 0.0
H1168 H 0.08099 0.33223 0.44885 0.0
H1169 H 0.11496 0.36612 0.42633 0.0
C1170 C 0.69543 0.80883 0.51443 0.0
C1171 C 0.72653 0.84328 0.52682 0.0
C1172 C 0.71737 0.86972 0.47043 0.0
C1173 C 0.6895 0.83388 0.45535 0.0
N1174 N 0.65612 0.76738 0.46049 0.0
N1175 N 0.77182 0.9027 0.51001 0.0
C1176 C 0.67976 0.80279 0.47661 0.0
C1177 C 0.73899 0.87256 0.50274 0.0
N1178 N 0.67975 0.78269 0.53906 0.0
N1179 N 0.7221 0.90143 0.45552 0.0
H1180 H 0.78953 0.90461 0.53174 0.0
H1181 H 0.78255 0.92356 0.49185 0.0
H1182 H 0.70542 0.90089 0.43344 0.0
H1183 H 0.74026 0.92844 0.46798 0.0
H1184 H 0.65543 0.75874 0.53222 0.0
H1185 H 0.68921 0.78681 0.5675 0.0
H1186 H 0.65039 0.74325 0.47345 0.0
H1187 H 0.64501 0.76215 0.43261 0.0
C1188 C 0.14792 0.87805 0.49725 0.0
C1189 C 0.16624 0.87279 0.52792 0.0
C1190 C 0.18816 0.84409 0.48327 0.0
C1191 C 0.17636 0.85673 0.45261 0.0
N1192 N 0.13665 0.87656 0.42974 0.0
N1193 N 0.20389 0.8507 0.55085 0.0
C1194 C 0.15327 0.87043 0.45935 0.0
C1195 C 0.18623 0.85558 0.52113 0.0
N1196 N 0.12529 0.89022 0.50451 0.0
N1197 N 0.1991 0.81902 0.47608 0.0
H1198 H 0.20187 0.8571 0.57906 0.0
H1199 H 0.22221 0.84258 0.54745 0.0
H1200 H 0.19711 0.80685 0.44877 0.0
H1201 H 0.20546 0.8064 0.49713 0.0
H1202 H 0.10806 0.89091 0.48412 0.0
H1203 H 0.12227 0.89818 0.53174 0.0
H1204 H 0.12429 0.89211 0.43198 0.0
H1205 H 0.1351 0.86588 0.40229 0.0
C1206 C 0.60135 0.79819 0.19544 0.0
C1207 C 0.62291 0.80614 0.16578 0.0
C1208 C 0.67429 0.84227 0.21197 0.0
C1209 C 0.65345 0.82872 0.24209 0.0
N1210 N 0.59649 0.80314 0.26268 0.0
N1211 N 0.67991 0.83453 0.14519 0.0
C1212 C 0.61668 0.80964 0.23387 0.0
C1213 C 0.65939 0.82804 0.17387 0.0
N1214 N 0.56621 0.78033 0.1866 0.0
N1215 N 0.70793 0.87061 0.21977 0.0
H1216 H 0.66997 0.82538 0.11682 0.0
H1217 H 0.70666 0.8465 0.14978 0.0
H1218 H 0.7185 0.88416 0.24704 0.0
H1219 H 0.72381 0.88398 0.19899 0.0
H1220 H 0.54852 0.77557 0.20605 0.0
H1221 H 0.55423 0.7709 0.15892 0.0
H1222 H 0.56998 0.78446 0.26036 0.0
H1223 H 0.60638 0.81831 0.28912 0.0
C1224 C 0.21439 0.87335 0.18212 0.0
C1225 C 0.21426 0.83916 0.17333 0.0
C1226 C 0.18493 0.81504 0.22946 0.0
C1227 C 0.18957 0.85084 0.24132 0.0
N1228 N 0.21096 0.9154 0.23024 0.0
N1229 N 0.20677 0.7811 0.19396 0.0
C1230 C 0.20505 0.88046 0.21802 0.0
C1231 C 0.20188 0.81118 0.19875 0.0
N1232 N 0.22159 0.89807 0.15558 0.0
N1233 N 0.16238 0.78408 0.2457 0.0
H1234 H 0.22084 0.77827 0.17305 0.0
H1235 H 0.19993 0.76107 0.21307 0.0
H1236 H 0.14721 0.7852 0.26615 0.0
H1237 H 0.15564 0.75677 0.23551 0.0
H1238 H 0.21862 0.92152 0.15895 0.0
H1239 H 0.22763 0.89346 0.12871 0.0
H1240 H 0.22581 0.93923 0.21677 0.0
H1241 H 0.20264 0.92086 0.25528 0.0
C1242 C 0.17949 0.38803 0.20898 0.0
C1243 C 0.18791 0.36793 0.18214 0.0
C1244 C 0.17356 0.31906 0.2254 0.0
C1245 C 0.16116 0.3373 0.2496 0.0
N1246 N 0.14015 0.38086 0.2547 0.0
N1247 N 0.18784 0.31087 0.16211 0.0
C1248 C 0.16074 0.36954 0.23873 0.0
C1249 C 0.18368 0.33245 0.18959 0.0
N1250 N 0.18946 0.42489 0.20626 0.0
N1251 N 0.17623 0.28952 0.23672 0.0
H1252 H 0.19483 0.31952 0.13556 0.0
H1253 H 0.18169 0.28323 0.16459 0.0
H1254 H 0.16786 0.27826 0.26199 0.0
H1255 H 0.18867 0.27784 0.22222 0.0
H1256 H 0.186 0.44126 0.22711 0.0
H1257 H 0.2046 0.44004 0.18561 0.0
H1258 H 0.1373 0.40288 0.24581 0.0
H1259 H 0.12217 0.36463 0.2726 0.0
C1260 C 0.82121 0.68629 0.85058 0.0
C1261 C 0.80888 0.64824 0.85686 0.0
C1262 C 0.80456 0.63105 0.78886 0.0
C1263 C 0.82112 0.66984 0.78268 0.0
N1264 N 0.8324 0.73163 0.80512 0.0
N1265 N 0.7914 0.58456 0.8329 0.0
C1266 C 0.82592 0.69681 0.81295 0.0
C1267 C 0.80135 0.62076 0.82626 0.0
N1268 N 0.82973 0.71253 0.88086 0.0
N1269 N 0.7887 0.60361 0.75922 0.0
H1270 H 0.78554 0.57456 0.8592 0.0
H1271 H 0.79127 0.56496 0.81288 0.0
H1272 H 0.78419 0.60941 0.73243 0.0
H1273 H 0.7744 0.57496 0.76199 0.0
H1274 H 0.8426 0.74141 0.8792 0.0
H1275 H 0.82581 0.70549 0.90848 0.0
H1276 H 0.8336 0.75187 0.82509 0.0
H1277 H 0.83253 0.73884 0.77755 0.0
C1278 C 0.35468 0.15033 0.85785 0.0
C1279 C 0.39074 0.17332 0.86943 0.0
C1280 C 0.40094 0.18784 0.80425 0.0
C1281 C 0.36473 0.16823 0.79302 0.0
N1282 N 0.30657 0.13202 0.80952 0.0
N1283 N 0.44809 0.21742 0.85479 0.0
C1284 C 0.3414 0.14975 0.82 0.0
C1285 C 0.41376 0.19338 0.84298 0.0
N1286 N 0.33326 0.12883 0.883 0.0
N1287 N 0.42321 0.19901 0.77735 0.0
H1288 H 0.4592 0.2201 0.88227 0.0
H1289 H 0.46529 0.23664 0.83811 0.0
H1290 H 0.41421 0.18689 0.74982 0.0
H1291 H 0.45005 0.21306 0.78265 0.0
H1292 H 0.30736 0.10855 0.87566 0.0
H1293 H 0.34201 0.1296 0.91108 0.0
H1294 H 0.28805 0.12177 0.82851 0.0
H1295 H 0.29608 0.12895 0.78164 0.0
C1296 C 0.85008 0.23826 0.83341 0.0
C1297 C 0.84351 0.21215 0.8602 0.0
C1298 C 0.85911 0.17604 0.81618 0.0
C1299 C 0.86986 0.20499 0.79186 0.0
N1300 N 0.88575 0.26925 0.78472 0.0
N1301 N 0.84665 0.1588 0.87966 0.0
C1302 C 0.868 0.23761 0.80237 0.0
C1303 C 0.84919 0.18155 0.85228 0.0
N1304 N 0.8392 0.26372 0.83756 0.0
N1305 N 0.85768 0.14306 0.80458 0.0
H1306 H 0.83963 0.16198 0.90641 0.0
H1307 H 0.85413 0.13866 0.87687 0.0
H1308 H 0.86551 0.13844 0.77881 0.0
H1309 H 0.84639 0.1194 0.81924 0.0
H1310 H 0.84081 0.28119 0.8169 0.0
H1311 H 0.82528 0.26448 0.85968 0.0
H1312 H 0.88731 0.29476 0.79318 0.0
H1313 H 0.90293 0.27136 0.7654 0.0
C1314 C 0.27628 0.1077 0.53862 0.0
C1315 C 0.28953 0.13676 0.51454 0.0
C1316 C 0.33985 0.17385 0.56214 0.0
C1317 C 0.32914 0.14194 0.58266 0.0
N1318 N 0.29079 0.07495 0.58302 0.0
N1319 N 0.33733 0.19588 0.50104 0.0
C1320 C 0.29847 0.10779 0.56872 0.0
C1321 C 0.32214 0.16968 0.52577 0.0
N1322 N 0.24216 0.08036 0.53335 0.0
N1323 N 0.36739 0.20789 0.57668 0.0
H1324 H 0.32588 0.19338 0.47382 0.0
H1325 H 0.36265 0.21837 0.50626 0.0
H1326 H 0.38257 0.21163 0.60169 0.0
H1327 H 0.37375 0.23284 0.56508 0.0
H1328 H 0.23064 0.06027 0.55215 0.0
H1329 H 0.22466 0.08087 0.51301 0.0
H1330 H 0.26991 0.04892 0.57165 0.0
H1331 H 0.30767 0.07303 0.60276 0.0
C1332 C 0.88085 0.20963 0.52162 0.0
C1333 C 0.87823 0.1749 0.5086 0.0
C1334 C 0.85146 0.14818 0.56527 0.0
C1335 C 0.85858 0.18408 0.58076 0.0
N1336 N 0.88352 0.25043 0.57557 0.0
N1337 N 0.86887 0.1142 0.523 0.0
C1338 C 0.87432 0.21531 0.55949 0.0
C1339 C 0.86593 0.14511 0.53199 0.0
N1340 N 0.88787 0.23642 0.49745 0.0
N1341 N 0.82935 0.11667 0.58111 0.0
H1342 H 0.8814 0.11185 0.50017 0.0
H1343 H 0.86213 0.09277 0.54045 0.0
H1344 H 0.81667 0.11755 0.60436 0.0
H1345 H 0.82076 0.0895 0.56863 0.0
H1346 H 0.88666 0.26062 0.50429 0.0
H1347 H 0.89183 0.23292 0.4693 0.0
H1348 H 0.89851 0.27484 0.56298 0.0
H1349 H 0.87827 0.25539 0.60278 0.0
C1350 C 0.81418 0.67343 0.50454 0.0
C1351 C 0.84842 0.70287 0.50159 0.0
C1352 C 0.86606 0.69131 0.5634 0.0
C1353 C 0.83102 0.6683 0.56964 0.0
N1354 N 0.77084 0.64565 0.54737 0.0
N1355 N 0.90582 0.74523 0.53378 0.0
C1356 C 0.80465 0.66132 0.54054 0.0
C1357 C 0.87422 0.71337 0.53255 0.0
N1358 N 0.79085 0.65649 0.47305 0.0
N1359 N 0.89149 0.69102 0.58605 0.0
H1360 H 0.91216 0.76392 0.51327 0.0
H1361 H 0.92416 0.7551 0.55744 0.0
H1362 H 0.88553 0.67179 0.60596 0.0
H1363 H 0.91748 0.70573 0.58131 0.0
H1364 H 0.7664 0.63301 0.47378 0.0
H1365 H 0.79739 0.66304 0.44581 0.0
H1366 H 0.75166 0.64323 0.52732 0.0
H1367 H 0.76251 0.63956 0.57399 0.0
loop_
_geom_bond_atom_site_label_1
_geom_bond_atom_site_label_2
_geom_bond_distance
_geom_bond_site_symmetry_2
_ccdc_geom_bond_type
H0 C5 0.930 . S
H1 C8 0.930 . S
H2 C10 0.930 . S
H3 C4 1.016 . S
C4 H3 1.016 . S
C4 N11 1.286 . S
C5 H0 0.930 . S
C5 C6 1.397 . S
C5 C7 1.361 . S
C6 C5 1.397 . S
C6 C10 1.390 . S
C7 C5 1.361 . S
C7 C8 1.393 . S
C7 N11 1.413 . S
C8 H1 0.930 . S
C8 C7 1.393 . S
C8 C9 1.399 . S
C9 C8 1.399 . S
C9 C10 1.381 . S
C10 H2 0.930 . S
C10 C6 1.390 . S
C10 C9 1.381 . S
N11 C4 1.286 . S
N11 C7 1.413 . S
H12 C17 0.930 . S
H13 C20 0.930 . S
H14 C22 0.930 . S
H15 C16 1.016 . S
C16 H15 1.016 . S
C16 N23 1.286 . S
C17 H12 0.930 . S
C17 C18 1.397 . S
C17 C19 1.361 . S
C18 C17 1.397 . S
C18 C22 1.390 . S
C19 C17 1.361 . S
C19 C20 1.393 . S
C19 N23 1.413 . S
C20 H13 0.930 . S
C20 C19 1.393 . S
C20 C21 1.399 . S
C21 C20 1.399 . S
C21 C22 1.381 . S
C22 H14 0.930 . S
C22 C18 1.390 . S
C22 C21 1.381 . S
N23 C16 1.286 . S
N23 C19 1.413 . S
H24 C29 0.930 . S
H25 C32 0.930 . S
H26 C34 0.930 . S
H27 C28 1.016 . S
C28 H27 1.016 . S
C28 N35 1.286 . S
C29 H24 0.930 . S
C29 C30 1.397 . S
C29 C31 1.361 . S
C30 C29 1.397 . S
C30 C34 1.390 . S
C31 C29 1.361 . S
C31 C32 1.393 . S
C31 N35 1.413 . S
C32 H25 0.930 . S
C32 C31 1.393 . S
C32 C33 1.399 . S
C33 C32 1.399 . S
C33 C34 1.381 . S
C34 H26 0.930 . S
C34 C30 1.390 . S
C34 C33 1.381 . S
N35 C28 1.286 . S
N35 C31 1.413 . S
H36 C41 0.930 . S
H37 C44 0.930 . S
H38 C46 0.930 . S
H39 C40 1.016 . S
C40 H39 1.016 . S
C40 N47 1.286 . S
C41 H36 0.930 . S
C41 C42 1.397 . S
C41 C43 1.361 . S
C42 C41 1.397 . S
C42 C46 1.390 . S
C43 C41 1.361 . S
C43 C44 1.393 . S
C43 N47 1.413 . S
C44 H37 0.930 . S
C44 C43 1.393 . S
C44 C45 1.399 . S
C45 C44 1.399 . S
C45 C46 1.381 . S
C46 H38 0.930 . S
C46 C42 1.390 . S
C46 C45 1.381 . S
N47 C40 1.286 . S
N47 C43 1.413 . S
H48 C53 0.930 . S
H49 C56 0.930 . S
H50 C58 0.930 . S
H51 C52 1.016 . S
C52 H51 1.016 . S
C52 N59 1.286 . S
C53 H48 0.930 . S
C53 C54 1.397 . S
C53 C55 1.361 . S
C54 C53 1.397 . S
C54 C58 1.390 . S
C55 C53 1.361 . S
C55 C56 1.393 . S
C55 N59 1.413 . S
C56 H49 0.930 . S
C56 C55 1.393 . S
C56 C57 1.399 . S
C57 C56 1.399 . S
C57 C58 1.381 . S
C58 H50 0.930 . S
C58 C54 1.390 . S
C58 C57 1.381 . S
N59 C52 1.286 . S
N59 C55 1.413 . S
H60 C65 0.930 . S
H61 C68 0.930 . S
H62 C70 0.930 . S
H63 C64 1.016 . S
C64 H63 1.016 . S
C64 N71 1.286 . S
C65 H60 0.930 . S
C65 C66 1.397 . S
C65 C67 1.361 . S
C66 C65 1.397 . S
C66 C70 1.390 . S
C67 C65 1.361 . S
C67 C68 1.393 . S
C67 N71 1.413 . S
C68 H61 0.930 . S
C68 C67 1.393 . S
C68 C69 1.399 . S
C69 C68 1.399 . S
C69 C70 1.381 . S
C70 H62 0.930 . S
C70 C66 1.390 . S
C70 C69 1.381 . S
N71 C64 1.286 . S
N71 C67 1.413 . S
H72 C77 0.930 . S
H73 C80 0.930 . S
H74 C82 0.930 . S
H75 C76 1.016 . S
C76 H75 1.016 . S
C76 N83 1.286 . S
C77 H72 0.930 . S
C77 C78 1.397 . S
C77 C79 1.361 . S
C78 C77 1.397 . S
C78 C82 1.390 . S
C79 C77 1.361 . S
C79 C80 1.393 . S
C79 N83 1.413 . S
C80 H73 0.930 . S
C80 C79 1.393 . S
C80 C81 1.399 . S
C81 C80 1.399 . S
C81 C82 1.381 . S
C82 H74 0.930 . S
C82 C78 1.390 . S
C82 C81 1.381 . S
N83 C76 1.286 . S
N83 C79 1.413 . S
H84 C89 0.930 . S
H85 C92 0.930 . S
H86 C94 0.930 . S
H87 C88 1.016 . S
C88 H87 1.016 . S
C88 N95 1.286 . S
C89 H84 0.930 . S
C89 C90 1.397 . S
C89 C91 1.361 . S
C90 C89 1.397 . S
C90 C94 1.390 . S
C91 C89 1.361 . S
C91 C92 1.393 . S
C91 N95 1.413 . S
C92 H85 0.930 . S
C92 C91 1.393 . S
C92 C93 1.399 . S
C93 C92 1.399 . S
C93 C94 1.381 . S
C94 H86 0.930 . S
C94 C90 1.390 . S
C94 C93 1.381 . S
N95 C88 1.286 . S
N95 C91 1.413 . S
H96 C101 0.930 . S
H97 C104 0.930 . S
H98 C106 0.930 . S
H99 C100 1.016 . S
C100 H99 1.016 . S
C100 N107 1.286 . S
C101 H96 0.930 . S
C101 C102 1.397 . S
C101 C103 1.361 . S
C102 C101 1.397 . S
C102 C106 1.390 . S
C103 C101 1.361 . S
C103 C104 1.393 . S
C103 N107 1.413 . S
C104 H97 0.930 . S
C104 C103 1.393 . S
C104 C105 1.399 . S
C105 C104 1.399 . S
C105 C106 1.381 . S
C106 H98 0.930 . S
C106 C102 1.390 . S
C106 C105 1.381 . S
N107 C100 1.286 . S
N107 C103 1.413 . S
H108 C113 0.930 . S
H109 C116 0.930 . S
H110 C118 0.930 . S
H111 C112 1.016 . S
C112 H111 1.016 . S
C112 N119 1.286 . S
C113 H108 0.930 . S
C113 C114 1.397 . S
C113 C115 1.361 . S
C114 C113 1.397 . S
C114 C118 1.390 . S
C115 C113 1.361 . S
C115 C116 1.393 . S
C115 N119 1.413 . S
C116 H109 0.930 . S
C116 C115 1.393 . S
C116 C117 1.399 . S
C117 C116 1.399 . S
C117 C118 1.381 . S
C118 H110 0.930 . S
C118 C114 1.390 . S
C118 C117 1.381 . S
N119 C112 1.286 . S
N119 C115 1.413 . S
H120 C125 0.930 1_554 S
H121 C128 0.930 . S
H122 C130 0.930 . S
H123 C124 1.016 . S
C124 H123 1.016 . S
C124 N131 1.286 . S
C125 H120 0.930 1_556 S
C125 C126 1.397 . S
C125 C127 1.361 . S
C126 C125 1.397 . S
C126 C130 1.390 . S
C127 C125 1.361 . S
C127 C128 1.393 . S
C127 N131 1.413 . S
C128 H121 0.930 . S
C128 C127 1.393 . S
C128 C129 1.399 . S
C129 C128 1.399 . S
C129 C130 1.381 . S
C130 H122 0.930 . S
C130 C126 1.390 . S
C130 C129 1.381 . S
N131 C124 1.286 . S
N131 C127 1.413 . S
H132 C137 0.930 . S
H133 C140 0.930 . S
H134 C142 0.930 . S
H135 C136 1.016 . S
C136 H135 1.016 . S
C136 N143 1.286 . S
C137 H132 0.930 . S
C137 C138 1.397 . S
C137 C139 1.361 . S
C138 C137 1.397 . S
C138 C142 1.390 . S
C139 C137 1.361 . S
C139 C140 1.393 . S
C139 N143 1.413 . S
C140 H133 0.930 . S
C140 C139 1.393 . S
C140 C141 1.399 . S
C141 C140 1.399 . S
C141 C142 1.381 . S
C142 H134 0.930 . S
C142 C138 1.390 . S
C142 C141 1.381 . S
N143 C136 1.286 . S
N143 C139 1.413 . S
H144 C149 0.930 . S
H145 C152 0.930 . S
H146 C154 0.930 . S
H147 C148 1.016 . S
C148 H147 1.016 . S
C148 N155 1.286 . S
C149 H144 0.930 . S
C149 C150 1.397 . S
C149 C151 1.361 . S
C150 C149 1.397 . S
C150 C154 1.390 . S
C151 C149 1.361 . S
C151 C152 1.393 . S
C151 N155 1.413 . S
C152 H145 0.930 . S
C152 C151 1.393 . S
C152 C153 1.399 . S
C153 C152 1.399 . S
C153 C154 1.381 . S
C154 H146 0.930 . S
C154 C150 1.390 . S
C154 C153 1.381 . S
N155 C148 1.286 . S
N155 C151 1.413 . S
H156 C161 0.930 . S
H157 C164 0.930 . S
H158 C166 0.930 . S
H159 C160 1.016 . S
C160 H159 1.016 . S
C160 N167 1.286 . S
C161 H156 0.930 . S
C161 C162 1.397 . S
C161 C163 1.361 . S
C162 C161 1.397 . S
C162 C166 1.390 . S
C163 C161 1.361 . S
C163 C164 1.393 . S
C163 N167 1.413 . S
C164 H157 0.930 . S
C164 C163 1.393 . S
C164 C165 1.399 . S
C165 C164 1.399 . S
C165 C166 1.381 . S
C166 H158 0.930 . S
C166 C162 1.390 . S
C166 C165 1.381 . S
N167 C160 1.286 . S
N167 C163 1.413 . S
H168 C173 0.930 . S
H169 C176 0.930 . S
H170 C178 0.930 . S
H171 C172 1.016 . S
C172 H171 1.016 . S
C172 N179 1.286 . S
C173 H168 0.930 . S
C173 C174 1.397 . S
C173 C175 1.361 . S
C174 C173 1.397 . S
C174 C178 1.390 . S
C175 C173 1.361 . S
C175 C176 1.393 . S
C175 N179 1.413 . S
C176 H169 0.930 . S
C176 C175 1.393 . S
C176 C177 1.399 . S
C177 C176 1.399 . S
C177 C178 1.381 . S
C178 H170 0.930 . S
C178 C174 1.390 . S
C178 C177 1.381 . S
N179 C172 1.286 . S
N179 C175 1.413 . S
H180 C185 0.930 . S
H181 C188 0.930 . S
H182 C190 0.930 . S
H183 C184 1.016 . S
C184 H183 1.016 . S
C184 N191 1.286 . S
C185 H180 0.930 . S
C185 C186 1.397 . S
C185 C187 1.361 . S
C186 C185 1.397 . S
C186 C190 1.390 . S
C187 C185 1.361 . S
C187 C188 1.393 . S
C187 N191 1.413 . S
C188 H181 0.930 . S
C188 C187 1.393 . S
C188 C189 1.399 . S
C189 C188 1.399 . S
C189 C190 1.381 . S
C190 H182 0.930 . S
C190 C186 1.390 . S
C190 C189 1.381 . S
N191 C184 1.286 . S
N191 C187 1.413 . S
H192 C197 0.930 . S
H193 C200 0.930 . S
H194 C202 0.930 . S
H195 C196 1.016 . S
C196 H195 1.016 . S
C196 N203 1.286 . S
C197 H192 0.930 . S
C197 C198 1.397 . S
C197 C199 1.361 . S
C198 C197 1.397 . S
C198 C202 1.390 . S
C199 C197 1.361 . S
C199 C200 1.393 . S
C199 N203 1.413 . S
C200 H193 0.930 . S
C200 C199 1.393 . S
C200 C201 1.399 . S
C201 C200 1.399 . S
C201 C202 1.381 . S
C202 H194 0.930 . S
C202 C198 1.390 . S
C202 C201 1.381 . S
N203 C196 1.286 . S
N203 C199 1.413 . S
H204 C209 0.930 . S
H205 C212 0.930 . S
H206 C214 0.930 . S
H207 C208 1.016 . S
C208 H207 1.016 . S
C208 N215 1.286 . S
C209 H204 0.930 . S
C209 C210 1.397 . S
C209 C211 1.361 . S
C210 C209 1.397 . S
C210 C214 1.390 . S
C211 C209 1.361 . S
C211 C212 1.393 . S
C211 N215 1.413 . S
C212 H205 0.930 . S
C212 C211 1.393 . S
C212 C213 1.399 . S
C213 C212 1.399 . S
C213 C214 1.381 . S
C214 H206 0.930 . S
C214 C210 1.390 . S
C214 C213 1.381 . S
N215 C208 1.286 . S
N215 C211 1.413 . S
Tb216 O219 2.453 . S
Tb216 O220 2.596 1_545 S
Tb216 O221 2.374 1_545 S
Tb216 O229 2.343 1_554 S
Tb216 O231 2.353 . S
Tb216 O233 2.427 . S
Tb216 O234 2.513 1_554 S
C217 O221 1.251 . S
C217 O223 1.263 1_554 S
Tb218 O220 2.343 1_556 S
Tb218 O223 2.353 . S
Tb218 O226 2.427 1_556 S
Tb218 O227 2.513 1_556 S
Tb218 O228 2.453 . S
Tb218 O229 2.596 1_565 S
Tb218 O230 2.374 1_565 S
O219 Tb216 2.453 . S
O219 C235 1.245 1_545 S
O220 Tb216 2.596 1_565 S
O220 Tb218 2.343 1_554 S
O220 C235 1.259 . S
O221 Tb216 2.374 1_565 S
O221 C217 1.251 . S
C222 O226 1.275 . S
C222 O227 1.246 . S
O223 C217 1.263 1_556 S
O223 Tb218 2.353 . S
C224 O228 1.245 1_545 S
C224 O229 1.259 . S
C225 O230 1.250 1_554 S
C225 O231 1.263 . S
O226 Tb218 2.427 1_554 S
O226 C222 1.275 . S
O227 Tb218 2.513 1_554 S
O227 C222 1.246 . S
O228 Tb218 2.453 . S
O228 C224 1.245 1_565 S
O229 Tb216 2.343 1_556 S
O229 Tb218 2.596 1_545 S
O229 C224 1.259 . S
O230 Tb218 2.374 1_545 S
O230 C225 1.250 1_556 S
O231 Tb216 2.353 . S
O231 C225 1.263 . S
C232 O233 1.275 1_556 S
C232 O234 1.246 . S
O233 Tb216 2.427 . S
O233 C232 1.275 1_554 S
O234 Tb216 2.513 1_556 S
O234 C232 1.246 . S
C235 O219 1.245 1_565 S
C235 O220 1.259 . S
Tb236 O239 2.453 . S
Tb236 O240 2.596 1_655 S
Tb236 O241 2.374 1_655 S
Tb236 O249 2.343 1_554 S
Tb236 O251 2.353 . S
Tb236 O253 2.427 1_554 S
Tb236 O254 2.513 1_554 S
C237 O241 1.251 . S
C237 O243 1.263 . S
Tb238 O240 2.343 1_556 S
Tb238 O243 2.353 1_556 S
Tb238 O246 2.427 1_556 S
Tb238 O247 2.513 1_556 S
Tb238 O248 2.453 . S
Tb238 O249 2.596 1_455 S
Tb238 O250 2.374 1_455 S
O239 Tb236 2.453 . S
O239 C255 1.245 1_655 S
O240 Tb236 2.596 1_455 S
O240 Tb238 2.343 1_554 S
O240 C255 1.259 . S
O241 Tb236 2.374 1_455 S
O241 C237 1.251 . S
C242 O246 1.275 . S
C242 O247 1.246 . S
O243 C237 1.263 . S
O243 Tb238 2.353 1_554 S
C244 O248 1.245 1_655 S
C244 O249 1.259 . S
C245 O250 1.250 1_554 S
C245 O251 1.263 . S
O246 Tb238 2.427 1_554 S
O246 C242 1.275 . S
O247 Tb238 2.513 1_554 S
O247 C242 1.246 . S
O248 Tb238 2.453 . S
O248 C244 1.245 1_455 S
O249 Tb236 2.343 1_556 S
O249 Tb238 2.596 1_655 S
O249 C244 1.259 . S
O250 Tb238 2.374 1_655 S
O250 C245 1.250 1_556 S
O251 Tb236 2.353 . S
O251 C245 1.263 . S
C252 O253 1.275 . S
C252 O254 1.246 . S
O253 Tb236 2.427 1_556 S
O253 C252 1.275 . S
O254 Tb236 2.513 1_556 S
O254 C252 1.246 . S
C255 O239 1.245 1_455 S
C255 O240 1.259 . S
Tb256 O259 2.453 . S
Tb256 O260 2.596 . S
Tb256 O261 2.378 . S
Tb256 O269 2.343 1_556 S
Tb256 O271 2.353 1_556 S
Tb256 O273 2.427 1_556 S
Tb256 O274 2.513 1_556 S
C257 O261 1.246 1_554 S
C257 O263 1.263 . S
Tb258 O260 2.343 1_554 S
Tb258 O263 2.353 . S
Tb258 O266 2.427 . S
Tb258 O267 2.513 1_554 S
Tb258 O268 2.453 . S
Tb258 O269 2.596 . S
Tb258 O270 2.374 . S
O259 Tb256 2.453 . S
O259 C275 1.245 . S
O260 Tb256 2.596 . S
O260 Tb258 2.343 1_556 S
O260 C275 1.259 . S
O261 Tb256 2.378 . S
O261 C257 1.246 1_556 S
C262 O266 1.275 1_556 S
C262 O267 1.246 . S
O263 C257 1.263 . S
O263 Tb258 2.353 . S
C264 O268 1.245 . S
C264 O269 1.259 . S
C265 O270 1.250 . S
C265 O271 1.263 . S
O266 Tb258 2.427 . S
O266 C262 1.275 1_554 S
O267 Tb258 2.513 1_556 S
O267 C262 1.246 . S
O268 Tb258 2.453 . S
O268 C264 1.245 . S
O269 Tb256 2.343 1_554 S
O269 Tb258 2.596 . S
O269 C264 1.259 . S
O270 Tb258 2.374 . S
O270 C265 1.250 . S
O271 Tb256 2.353 1_554 S
O271 C265 1.263 . S
C272 O273 1.275 . S
C272 O274 1.246 . S
O273 Tb256 2.427 1_554 S
O273 C272 1.275 . S
O274 Tb256 2.513 1_554 S
O274 C272 1.246 . S
C275 O259 1.245 . S
C275 O260 1.259 . S
Tb276 O279 2.453 . S
Tb276 O280 2.596 . S
Tb276 O281 2.374 . S
Tb276 O289 2.343 . S
Tb276 O291 2.353 . S
Tb276 O293 2.427 . S
Tb276 O294 2.513 . S
C277 O281 1.251 . S
C277 O283 1.263 . S
Tb278 O280 2.343 . S
Tb278 O283 2.353 . S
Tb278 O286 2.427 . S
Tb278 O287 2.513 . S
Tb278 O288 2.453 . S
Tb278 O289 2.596 . S
Tb278 O290 2.374 . S
O279 Tb276 2.453 . S
O279 C295 1.245 . S
O280 Tb276 2.596 . S
O280 Tb278 2.343 . S
O280 C295 1.259 . S
O281 Tb276 2.374 . S
O281 C277 1.251 . S
C282 O286 1.275 . S
C282 O287 1.246 . S
O283 C277 1.263 . S
O283 Tb278 2.353 . S
C284 O288 1.245 . S
C284 O289 1.259 . S
C285 O290 1.250 . S
C285 O291 1.263 . S
O286 Tb278 2.427 . S
O286 C282 1.275 . S
O287 Tb278 2.513 . S
O287 C282 1.246 . S
O288 Tb278 2.453 . S
O288 C284 1.245 . S
O289 Tb276 2.343 . S
O289 Tb278 2.596 . S
O289 C284 1.259 . S
O290 Tb278 2.374 . S
O290 C285 1.250 . S
O291 Tb276 2.353 . S
O291 C285 1.263 . S
C292 O293 1.275 . S
C292 O294 1.246 . S
O293 Tb276 2.427 . S
O293 C292 1.275 . S
O294 Tb276 2.513 . S
O294 C292 1.246 . S
C295 O279 1.245 . S
C295 O280 1.259 . S
Tb296 O299 2.453 . S
Tb296 O300 2.596 . S
Tb296 O301 2.374 . S
Tb296 O309 2.343 . S
Tb296 O311 2.353 . S
Tb296 O313 2.427 . S
Tb296 O314 2.513 . S
C297 O301 1.251 . S
C297 O303 1.263 . S
Tb298 O300 2.343 . S
Tb298 O303 2.353 . S
Tb298 O306 2.427 . S
Tb298 O307 2.513 . S
Tb298 O308 2.453 . S
Tb298 O309 2.596 . S
Tb298 O310 2.374 . S
O299 Tb296 2.453 . S
O299 C315 1.245 . S
O300 Tb296 2.596 . S
O300 Tb298 2.343 . S
O300 C315 1.259 . S
O301 Tb296 2.374 . S
O301 C297 1.251 . S
C302 O306 1.275 . S
C302 O307 1.246 . S
O303 C297 1.263 . S
O303 Tb298 2.353 . S
C304 O308 1.245 . S
C304 O309 1.259 . S
C305 O310 1.250 . S
C305 O311 1.263 . S
O306 Tb298 2.427 . S
O306 C302 1.275 . S
O307 Tb298 2.513 . S
O307 C302 1.246 . S
O308 Tb298 2.453 . S
O308 C304 1.245 . S
O309 Tb296 2.343 . S
O309 Tb298 2.596 . S
O309 C304 1.259 . S
O310 Tb298 2.374 . S
O310 C305 1.250 . S
O311 Tb296 2.353 . S
O311 C305 1.263 . S
C312 O313 1.275 . S
C312 O314 1.246 . S
O313 Tb296 2.427 . S
O313 C312 1.275 . S
O314 Tb296 2.513 . S
O314 C312 1.246 . S
C315 O299 1.245 . S
C315 O300 1.259 . S
Tb316 O319 2.453 . S
Tb316 O320 2.596 . S
Tb316 O321 2.374 . S
Tb316 O329 2.343 . S
Tb316 O331 2.353 . S
Tb316 O333 2.427 . S
Tb316 O334 2.513 . S
C317 O321 1.251 . S
C317 O323 1.263 . S
Tb318 O320 2.343 . S
Tb318 O323 2.353 . S
Tb318 O326 2.427 . S
Tb318 O327 2.513 . S
Tb318 O328 2.453 . S
Tb318 O329 2.596 . S
Tb318 O330 2.374 . S
O319 Tb316 2.453 . S
O319 C335 1.245 . S
O320 Tb316 2.596 . S
O320 Tb318 2.343 . S
O320 C335 1.259 . S
O321 Tb316 2.374 . S
O321 C317 1.251 . S
C322 O326 1.275 . S
C322 O327 1.246 . S
O323 C317 1.263 . S
O323 Tb318 2.353 . S
C324 O328 1.245 . S
C324 O329 1.259 . S
C325 O330 1.250 . S
C325 O331 1.263 . S
O326 Tb318 2.427 . S
O326 C322 1.275 . S
O327 Tb318 2.513 . S
O327 C322 1.246 . S
O328 Tb318 2.453 . S
O328 C324 1.245 . S
O329 Tb316 2.343 . S
O329 Tb318 2.596 . S
O329 C324 1.259 . S
O330 Tb318 2.374 . S
O330 C325 1.250 . S
O331 Tb316 2.353 . S
O331 C325 1.263 . S
C332 O333 1.275 . S
C332 O334 1.246 . S
O333 Tb316 2.427 . S
O333 C332 1.275 . S
O334 Tb316 2.513 . S
O334 C332 1.246 . S
C335 O319 1.245 . S
C335 O320 1.259 . S
Tb336 O339 2.453 . S
Tb336 O340 2.596 . S
Tb336 O341 2.374 . S
Tb336 O349 2.343 . S
Tb336 O351 2.353 . S
Tb336 O353 2.427 . S
Tb336 O354 2.513 . S
C337 O341 1.251 . S
C337 O343 1.263 . S
Tb338 O340 2.343 . S
Tb338 O343 2.353 . S
Tb338 O346 2.427 . S
Tb338 O347 2.513 . S
Tb338 O348 2.453 . S
Tb338 O349 2.596 . S
Tb338 O350 2.374 . S
O339 Tb336 2.453 . S
O339 C355 1.245 . S
O340 Tb336 2.596 . S
O340 Tb338 2.343 . S
O340 C355 1.259 . S
O341 Tb336 2.374 . S
O341 C337 1.251 . S
C342 O346 1.275 . S
C342 O347 1.246 . S
O343 C337 1.263 . S
O343 Tb338 2.353 . S
C344 O348 1.245 . S
C344 O349 1.259 . S
C345 O350 1.250 . S
C345 O351 1.263 . S
O346 Tb338 2.427 . S
O346 C342 1.275 . S
O347 Tb338 2.513 . S
O347 C342 1.246 . S
O348 Tb338 2.453 . S
O348 C344 1.245 . S
O349 Tb336 2.343 . S
O349 Tb338 2.596 . S
O349 C344 1.259 . S
O350 Tb338 2.374 . S
O350 C345 1.250 . S
O351 Tb336 2.353 . S
O351 C345 1.263 . S
C352 O353 1.275 . S
C352 O354 1.246 . S
O353 Tb336 2.427 . S
O353 C352 1.275 . S
O354 Tb336 2.513 . S
O354 C352 1.246 . S
C355 O339 1.245 . S
C355 O340 1.259 . S
Tb356 O359 2.453 . S
Tb356 O360 2.596 . S
Tb356 O361 2.374 . S
Tb356 O369 2.343 . S
Tb356 O371 2.353 . S
Tb356 O373 2.427 . S
Tb356 O374 2.513 . S
C357 O361 1.251 . S
C357 O363 1.263 . S
Tb358 O360 2.343 . S
Tb358 O363 2.353 . S
Tb358 O366 2.427 . S
Tb358 O367 2.513 . S
Tb358 O368 2.453 . S
Tb358 O369 2.596 . S
Tb358 O370 2.374 . S
O359 Tb356 2.453 . S
O359 C375 1.245 . S
O360 Tb356 2.596 . S
O360 Tb358 2.343 . S
O360 C375 1.259 . S
O361 Tb356 2.374 . S
O361 C357 1.251 . S
C362 O366 1.275 . S
C362 O367 1.246 . S
O363 C357 1.263 . S
O363 Tb358 2.353 . S
C364 O368 1.245 . S
C364 O369 1.259 . S
C365 O370 1.250 . S
C365 O371 1.263 . S
O366 Tb358 2.427 . S
O366 C362 1.275 . S
O367 Tb358 2.513 . S
O367 C362 1.246 . S
O368 Tb358 2.453 . S
O368 C364 1.245 . S
O369 Tb356 2.343 . S
O369 Tb358 2.596 . S
O369 C364 1.259 . S
O370 Tb358 2.374 . S
O370 C365 1.250 . S
O371 Tb356 2.353 . S
O371 C365 1.263 . S
C372 O373 1.275 . S
C372 O374 1.246 . S
O373 Tb356 2.427 . S
O373 C372 1.275 . S
O374 Tb356 2.513 . S
O374 C372 1.246 . S
C375 O359 1.245 . S
C375 O360 1.259 . S
Tb376 O379 2.453 . S
Tb376 O380 2.596 . S
Tb376 O381 2.374 . S
Tb376 O389 2.343 . S
Tb376 O391 2.353 . S
Tb376 O393 2.427 . S
Tb376 O394 2.513 . S
C377 O381 1.251 . S
C377 O383 1.263 . S
Tb378 O380 2.343 . S
Tb378 O383 2.353 . S
Tb378 O386 2.427 . S
Tb378 O387 2.513 . S
Tb378 O388 2.453 . S
Tb378 O389 2.596 . S
Tb378 O390 2.374 . S
O379 Tb376 2.453 . S
O379 C395 1.245 . S
O380 Tb376 2.596 . S
O380 Tb378 2.343 . S
O380 C395 1.259 . S
O381 Tb376 2.374 . S
O381 C377 1.251 . S
C382 O386 1.275 . S
C382 O387 1.246 . S
O383 C377 1.263 . S
O383 Tb378 2.353 . S
C384 O388 1.245 . S
C384 O389 1.259 . S
C385 O390 1.250 . S
C385 O391 1.263 . S
O386 Tb378 2.427 . S
O386 C382 1.275 . S
O387 Tb378 2.513 . S
O387 C382 1.246 . S
O388 Tb378 2.453 . S
O388 C384 1.245 . S
O389 Tb376 2.343 . S
O389 Tb378 2.596 . S
O389 C384 1.259 . S
O390 Tb378 2.374 . S
O390 C385 1.250 . S
O391 Tb376 2.353 . S
O391 C385 1.263 . S
C392 O393 1.275 . S
C392 O394 1.246 . S
O393 Tb376 2.427 . S
O393 C392 1.275 . S
O394 Tb376 2.513 . S
O394 C392 1.246 . S
C395 O379 1.245 . S
C395 O380 1.259 . S
C396 C397 1.363 . S
C396 C402 1.379 . S
C396 N404 1.356 . S
C397 C396 1.363 . S
C397 C403 1.363 . S
C398 C399 1.363 . S
C398 C403 1.379 . S
C398 N405 1.356 . S
C399 C398 1.363 . S
C399 C402 1.363 . S
N400 C402 1.356 . S
N400 H412 0.984 1_554 S
N400 H413 0.985 . S
N401 C403 1.356 . S
N401 H406 0.984 . S
N401 H407 0.985 . S
C402 C396 1.379 . S
C402 C399 1.363 . S
C402 N400 1.356 . S
C403 C397 1.363 . S
C403 C398 1.379 . S
C403 N401 1.356 . S
N404 C396 1.356 . S
N404 H410 0.984 . S
N404 H411 0.984 . S
N405 C398 1.356 . S
N405 H408 0.984 . S
N405 H409 0.985 . S
H406 N401 0.984 . S
H407 N401 0.985 . S
H408 N405 0.984 . S
H409 N405 0.985 . S
H410 N404 0.984 . S
H411 N404 0.984 . S
H412 N400 0.984 1_556 S
H413 N400 0.985 . S
C414 C415 1.363 . S
C414 C420 1.379 . S
C414 N422 1.356 . S
C415 C414 1.363 . S
C415 C421 1.363 . S
C416 C417 1.363 . S
C416 C421 1.379 . S
C416 N423 1.356 . S
C417 C416 1.363 . S
C417 C420 1.363 . S
N418 C420 1.356 . S
N418 H430 0.984 . S
N418 H431 0.985 . S
N419 C421 1.356 . S
N419 H424 0.984 . S
N419 H425 0.985 . S
C420 C414 1.379 . S
C420 C417 1.363 . S
C420 N418 1.356 . S
C421 C415 1.363 . S
C421 C416 1.379 . S
C421 N419 1.356 . S
N422 C414 1.356 . S
N422 H428 0.984 . S
N422 H429 0.984 . S
N423 C416 1.356 . S
N423 H426 0.984 . S
N423 H427 0.985 1_554 S
H424 N419 0.984 . S
H425 N419 0.985 . S
H426 N423 0.984 . S
H427 N423 0.985 1_556 S
H428 N422 0.984 . S
H429 N422 0.984 . S
H430 N418 0.984 . S
H431 N418 0.985 . S
C432 C433 1.363 . S
C432 C438 1.379 . S
C432 N440 1.356 . S
C433 C432 1.363 . S
C433 C439 1.363 . S
C434 C435 1.363 . S
C434 C439 1.379 . S
C434 N441 1.356 1_554 S
C435 C434 1.363 . S
C435 C438 1.363 . S
N436 C438 1.356 . S
N436 H448 0.984 . S
N436 H449 0.985 . S
N437 C439 1.356 1_556 S
N437 H442 0.984 1_556 S
N437 H443 0.985 . S
C438 C432 1.379 . S
C438 C435 1.363 . S
C438 N436 1.356 . S
C439 C433 1.363 . S
C439 C434 1.379 . S
C439 N437 1.356 1_554 S
N440 C432 1.356 . S
N440 H446 0.984 . S
N440 H447 0.984 . S
N441 C434 1.356 1_556 S
N441 H444 0.984 . S
N441 H445 0.985 . S
H442 N437 0.984 1_554 S
H443 N437 0.985 . S
H444 N441 0.984 . S
H445 N441 0.985 . S
H446 N440 0.984 . S
H447 N440 0.984 . S
H448 N436 0.984 . S
H449 N436 0.985 . S
C450 C451 1.363 . S
C450 C456 1.379 1_556 S
C450 N458 1.356 1_556 S
C451 C450 1.363 . S
C451 C457 1.363 . S
C452 C453 1.363 . S
C452 C457 1.379 . S
C452 N459 1.356 . S
C453 C452 1.363 . S
C453 C456 1.363 1_556 S
N454 C456 1.356 . S
N454 H466 0.984 . S
N454 H467 0.985 . S
N455 C457 1.356 . S
N455 H460 0.984 . S
N455 H461 0.985 . S
C456 C450 1.379 1_554 S
C456 C453 1.363 1_554 S
C456 N454 1.356 . S
C457 C451 1.363 . S
C457 C452 1.379 . S
C457 N455 1.356 . S
N458 C450 1.356 1_554 S
N458 H464 0.984 . S
N458 H465 0.984 1_554 S
N459 C452 1.356 . S
N459 H462 0.984 . S
N459 H463 0.985 . S
H460 N455 0.984 . S
H461 N455 0.985 . S
H462 N459 0.984 . S
H463 N459 0.985 . S
H464 N458 0.984 . S
H465 N458 0.984 1_556 S
H466 N454 0.984 . S
H467 N454 0.985 . S
C468 C469 1.363 . S
C468 C474 1.379 . S
C468 N476 1.356 . S
C469 C468 1.363 . S
C469 C475 1.363 . S
C470 C471 1.363 . S
C470 C475 1.379 . S
C470 N477 1.356 . S
C471 C470 1.363 . S
C471 C474 1.363 . S
N472 C474 1.356 . S
N472 H484 0.984 . S
N472 H485 0.985 . S
N473 C475 1.356 . S
N473 H478 0.984 . S
N473 H479 0.985 . S
C474 C468 1.379 . S
C474 C471 1.363 . S
C474 N472 1.356 . S
C475 C469 1.363 . S
C475 C470 1.379 . S
C475 N473 1.356 . S
N476 C468 1.356 . S
N476 H482 0.984 . S
N476 H483 0.984 . S
N477 C470 1.356 . S
N477 H480 0.984 . S
N477 H481 0.985 . S
H478 N473 0.984 . S
H479 N473 0.985 . S
H480 N477 0.984 . S
H481 N477 0.985 . S
H482 N476 0.984 . S
H483 N476 0.984 . S
H484 N472 0.984 . S
H485 N472 0.985 . S
C486 C487 1.363 . S
C486 C492 1.379 . S
C486 N494 1.356 . S
C487 C486 1.363 . S
C487 C493 1.363 1_556 S
C488 C489 1.363 1_554 S
C488 C493 1.379 . S
C488 N495 1.356 . S
C489 C488 1.363 1_556 S
C489 C492 1.363 . S
N490 C492 1.356 . S
N490 H502 0.984 . S
N490 H503 0.985 . S
N491 C493 1.356 . S
N491 H496 0.984 . S
N491 H497 0.985 . S
C492 C486 1.379 . S
C492 C489 1.363 . S
C492 N490 1.356 . S
C493 C487 1.363 1_554 S
C493 C488 1.379 . S
C493 N491 1.356 . S
N494 C486 1.356 . S
N494 H500 0.984 . S
N494 H501 0.984 . S
N495 C488 1.356 . S
N495 H498 0.984 . S
N495 H499 0.985 . S
H496 N491 0.984 . S
H497 N491 0.985 . S
H498 N495 0.984 . S
H499 N495 0.985 . S
H500 N494 0.984 . S
H501 N494 0.984 . S
H502 N490 0.984 . S
H503 N490 0.985 . S
C504 C505 1.363 1_554 S
C504 C510 1.379 . S
C504 N512 1.356 . S
C505 C504 1.363 1_556 S
C505 C511 1.363 . S
C506 C507 1.363 . S
C506 C511 1.379 . S
C506 N513 1.356 . S
C507 C506 1.363 . S
C507 C510 1.363 1_556 S
N508 C510 1.356 . S
N508 H520 0.984 . S
N508 H521 0.985 . S
N509 C511 1.356 . S
N509 H514 0.984 . S
N509 H515 0.985 . S
C510 C504 1.379 . S
C510 C507 1.363 1_554 S
C510 N508 1.356 . S
C511 C505 1.363 . S
C511 C506 1.379 . S
C511 N509 1.356 . S
N512 C504 1.356 . S
N512 H518 0.984 . S
N512 H519 0.984 . S
N513 C506 1.356 . S
N513 H516 0.984 . S
N513 H517 0.985 . S
H514 N509 0.984 . S
H515 N509 0.985 . S
H516 N513 0.984 . S
H517 N513 0.985 . S
H518 N512 0.984 . S
H519 N512 0.984 . S
H520 N508 0.984 . S
H521 N508 0.985 . S
C522 C523 1.363 . S
C522 C528 1.379 . S
C522 N530 1.349 1_556 S
C523 C522 1.363 . S
C523 C529 1.363 . S
C524 C525 1.363 . S
C524 C529 1.379 . S
C524 N531 1.356 . S
C525 C524 1.363 . S
C525 C528 1.363 . S
N526 C528 1.356 1_554 S
N526 H538 0.984 . S
N526 H539 0.985 . S
N527 C529 1.356 . S
N527 H532 0.984 . S
N527 H533 0.985 . S
C528 C522 1.379 . S
C528 C525 1.363 . S
C528 N526 1.356 1_556 S
C529 C523 1.363 . S
C529 C524 1.379 . S
C529 N527 1.356 . S
N530 C522 1.349 1_554 S
N530 H536 0.998 . S
N530 H537 0.979 1_554 S
N531 C524 1.356 . S
N531 H534 0.984 . S
N531 H535 0.985 . S
H532 N527 0.984 . S
H533 N527 0.985 . S
H534 N531 0.984 . S
H535 N531 0.985 . S
H536 N530 0.998 . S
H537 N530 0.979 1_556 S
H538 N526 0.984 . S
H539 N526 0.985 . S
C540 C541 1.363 . S
C540 C546 1.379 . S
C540 N548 1.356 . S
C541 C540 1.363 . S
C541 C547 1.363 1_556 S
C542 C543 1.363 1_554 S
C542 C547 1.379 . S
C542 N549 1.356 . S
C543 C542 1.363 1_556 S
C543 C546 1.363 . S
N544 C546 1.356 . S
N544 H556 0.984 . S
N544 H557 0.985 . S
N545 C547 1.356 . S
N545 H550 0.984 . S
N545 H551 0.985 . S
C546 C540 1.379 . S
C546 C543 1.363 . S
C546 N544 1.356 . S
C547 C541 1.363 1_554 S
C547 C542 1.379 . S
C547 N545 1.356 . S
N548 C540 1.356 . S
N548 H554 0.984 . S
N548 H555 0.984 . S
N549 C542 1.356 . S
N549 H552 0.984 . S
N549 H553 0.985 . S
H550 N545 0.984 . S
H551 N545 0.985 . S
H552 N549 0.984 . S
H553 N549 0.985 . S
H554 N548 0.984 . S
H555 N548 0.984 . S
H556 N544 0.984 . S
H557 N544 0.985 . S
C558 C559 1.363 . S
C558 C564 1.379 . S
C558 N566 1.356 . S
C559 C558 1.363 . S
C559 C565 1.363 . S
C560 C561 1.363 . S
C560 C565 1.379 . S
C560 N567 1.356 1_554 S
C561 C560 1.363 . S
C561 C564 1.363 . S
N562 C564 1.356 . S
N562 H574 0.984 . S
N562 H575 0.985 . S
N563 C565 1.356 1_556 S
N563 H568 0.984 1_556 S
N563 H569 0.985 . S
C564 C558 1.379 . S
C564 C561 1.363 . S
C564 N562 1.356 . S
C565 C559 1.363 . S
C565 C560 1.379 . S
C565 N563 1.356 1_554 S
N566 C558 1.356 . S
N566 H572 0.984 . S
N566 H573 0.984 . S
N567 C560 1.356 1_556 S
N567 H570 0.984 . S
N567 H571 0.985 . S
H568 N563 0.984 1_554 S
H569 N563 0.985 . S
H570 N567 0.984 . S
H571 N567 0.985 . S
H572 N566 0.984 . S
H573 N566 0.984 . S
H574 N562 0.984 . S
H575 N562 0.985 . S
C576 C577 1.363 . S
C576 C582 1.379 . S
C576 N584 1.356 . S
C577 C576 1.363 . S
C577 C583 1.363 . S
C578 C579 1.363 . S
C578 C583 1.379 . S
C578 N585 1.356 . S
C579 C578 1.363 . S
C579 C582 1.363 . S
N580 C582 1.356 . S
N580 H592 0.984 . S
N580 H593 0.985 . S
N581 C583 1.356 . S
N581 H586 0.984 . S
N581 H587 1.003 . S
C582 C576 1.379 . S
C582 C579 1.363 . S
C582 N580 1.356 . S
C583 C577 1.363 . S
C583 C578 1.379 . S
C583 N581 1.356 . S
N584 C576 1.356 . S
N584 H590 0.984 . S
N584 H591 0.984 . S
N585 C578 1.356 . S
N585 H588 0.984 . S
N585 H589 0.985 1_554 S
H586 N581 0.984 . S
H587 N581 1.003 . S
H588 N585 0.984 . S
H589 N585 0.985 1_556 S
H590 N584 0.984 . S
H591 N584 0.984 . S
H592 N580 0.984 . S
H593 N580 0.985 . S
C594 C595 1.363 . S
C594 C600 1.379 1_554 S
C594 N602 1.356 1_554 S
C595 C594 1.363 . S
C595 C601 1.363 . S
C596 C597 1.363 . S
C596 C601 1.379 . S
C596 N603 1.356 . S
C597 C596 1.363 . S
C597 C600 1.363 1_554 S
N598 C600 1.356 . S
N598 H610 0.984 . S
N598 H611 0.985 . S
N599 C601 1.356 . S
N599 H604 0.984 . S
N599 H605 0.985 . S
C600 C594 1.379 1_556 S
C600 C597 1.363 1_556 S
C600 N598 1.356 . S
C601 C595 1.363 . S
C601 C596 1.379 . S
C601 N599 1.356 . S
N602 C594 1.356 1_556 S
N602 H608 0.984 . S
N602 H609 0.984 . S
N603 C596 1.356 . S
N603 H606 0.984 . S
N603 H607 0.985 . S
H604 N599 0.984 . S
H605 N599 0.985 . S
H606 N603 0.984 . S
H607 N603 0.985 . S
H608 N602 0.984 . S
H609 N602 0.984 . S
H610 N598 0.984 . S
H611 N598 0.985 . S
C612 C613 1.363 . S
C612 C618 1.379 1_655 S
C612 N620 1.356 . S
C613 C612 1.363 . S
C613 C619 1.363 . S
C614 C615 1.363 1_655 S
C614 C619 1.379 . S
C614 N621 1.356 1_655 S
C615 C614 1.363 1_455 S
C615 C618 1.363 . S
N616 C618 1.356 . S
N616 H628 0.984 . S
N616 H629 0.985 . S
N617 C619 1.356 . S
N617 H622 0.984 . S
N617 H623 0.985 . S
C618 C612 1.379 1_455 S
C618 C615 1.363 . S
C618 N616 1.356 . S
C619 C613 1.363 . S
C619 C614 1.379 . S
C619 N617 1.356 . S
N620 C612 1.356 . S
N620 H626 0.984 . S
N620 H627 0.984 . S
N621 C614 1.356 1_455 S
N621 H624 0.984 . S
N621 H625 0.985 . S
H622 N617 0.984 . S
H623 N617 0.985 . S
H624 N621 0.984 . S
H625 N621 0.985 . S
H626 N620 0.984 . S
H627 N620 0.984 . S
H628 N616 0.984 . S
H629 N616 0.985 . S
C630 C631 1.363 . S
C630 C636 1.379 . S
C630 N638 1.356 . S
C631 C630 1.363 . S
C631 C637 1.363 . S
C632 C633 1.363 . S
C632 C637 1.379 . S
C632 N639 1.356 . S
C633 C632 1.363 . S
C633 C636 1.363 . S
N634 C636 1.356 . S
N634 H646 0.984 . S
N634 H647 0.985 . S
N635 C637 1.356 . S
N635 H640 0.984 . S
N635 H641 0.985 . S
C636 C630 1.379 . S
C636 C633 1.363 . S
C636 N634 1.356 . S
C637 C631 1.363 . S
C637 C632 1.379 . S
C637 N635 1.356 . S
N638 C630 1.356 . S
N638 H644 0.984 . S
N638 H645 0.984 . S
N639 C632 1.356 . S
N639 H642 0.984 . S
N639 H643 0.985 . S
H640 N635 0.984 . S
H641 N635 0.985 . S
H642 N639 0.984 . S
H643 N639 0.985 . S
H644 N638 0.984 . S
H645 N638 0.984 . S
H646 N634 0.984 . S
H647 N634 0.985 . S
C648 C649 1.363 . S
C648 C654 1.379 1_545 S
C648 N656 1.356 . S
C649 C648 1.363 . S
C649 C655 1.363 . S
C650 C651 1.363 . S
C650 C655 1.379 1_565 S
C650 N657 1.356 . S
C651 C650 1.363 . S
C651 C654 1.363 . S
N652 C654 1.356 . S
N652 H664 0.984 . S
N652 H665 0.985 . S
N653 C655 1.356 . S
N653 H658 0.984 . S
N653 H659 0.985 . S
C654 C648 1.379 1_565 S
C654 C651 1.363 . S
C654 N652 1.356 . S
C655 C649 1.363 . S
C655 C650 1.379 1_545 S
C655 N653 1.356 . S
N656 C648 1.356 . S
N656 H662 0.984 . S
N656 H663 0.984 . S
N657 C650 1.356 . S
N657 H660 0.984 . S
N657 H661 0.985 . S
H658 N653 0.984 . S
H659 N653 0.985 . S
H660 N657 0.984 . S
H661 N657 0.985 . S
H662 N656 0.984 . S
H663 N656 0.984 . S
H664 N652 0.984 . S
H665 N652 0.985 . S
C666 C667 1.363 . S
C666 C672 1.379 . S
C666 N674 1.356 . S
C667 C666 1.363 . S
C667 C673 1.363 . S
C668 C669 1.363 . S
C668 C673 1.379 . S
C668 N675 1.356 . S
C669 C668 1.363 . S
C669 C672 1.363 . S
N670 C672 1.356 . S
N670 H682 0.984 . S
N670 H683 0.985 . S
N671 C673 1.356 . S
N671 H676 0.984 . S
N671 H677 0.985 . S
C672 C666 1.379 . S
C672 C669 1.363 . S
C672 N670 1.356 . S
C673 C667 1.363 . S
C673 C668 1.379 . S
C673 N671 1.356 . S
N674 C666 1.356 . S
N674 H680 0.984 . S
N674 H681 0.984 . S
N675 C668 1.356 . S
N675 H678 0.984 . S
N675 H679 0.985 . S
H676 N671 0.984 . S
H677 N671 0.985 . S
H678 N675 0.984 . S
H679 N675 0.985 . S
H680 N674 0.984 . S
H681 N674 0.984 . S
H682 N670 0.984 . S
H683 N670 0.985 . S
C684 C685 1.363 . S
C684 C690 1.379 . S
C684 N692 1.356 . S
C685 C684 1.363 . S
C685 C691 1.363 . S
C686 C687 1.363 . S
C686 C691 1.379 . S
C686 N693 1.356 . S
C687 C686 1.363 . S
C687 C690 1.363 . S
N688 C690 1.356 . S
N688 H700 0.984 . S
N688 H701 0.985 . S
N689 C691 1.356 . S
N689 H694 0.984 . S
N689 H695 0.985 . S
C690 C684 1.379 . S
C690 C687 1.363 . S
C690 N688 1.356 . S
C691 C685 1.363 . S
C691 C686 1.379 . S
C691 N689 1.356 . S
N692 C684 1.356 . S
N692 H698 0.984 . S
N692 H699 0.984 . S
N693 C686 1.356 . S
N693 H696 0.984 . S
N693 H697 0.985 . S
H694 N689 0.984 . S
H695 N689 0.985 . S
H696 N693 0.984 . S
H697 N693 0.985 . S
H698 N692 0.984 . S
H699 N692 0.984 . S
H700 N688 0.984 . S
H701 N688 0.985 . S
C702 C703 1.363 . S
C702 C708 1.379 . S
C702 N710 1.356 . S
C703 C702 1.363 . S
C703 C709 1.363 . S
C704 C705 1.363 . S
C704 C709 1.379 . S
C704 N711 1.356 . S
C705 C704 1.363 . S
C705 C708 1.363 . S
N706 C708 1.356 . S
N706 H718 0.984 . S
N706 H719 0.985 . S
N707 C709 1.356 . S
N707 H712 0.984 . S
N707 H713 0.985 . S
C708 C702 1.379 . S
C708 C705 1.363 . S
C708 N706 1.356 . S
C709 C703 1.363 . S
C709 C704 1.379 . S
C709 N707 1.356 . S
N710 C702 1.356 . S
N710 H716 0.984 . S
N710 H717 0.984 . S
N711 C704 1.356 . S
N711 H714 0.984 . S
N711 H715 0.985 . S
H712 N707 0.984 . S
H713 N707 0.985 . S
H714 N711 0.984 . S
H715 N711 0.985 . S
H716 N710 0.984 . S
H717 N710 0.984 . S
H718 N706 0.984 . S
H719 N706 0.985 . S
C720 C721 1.363 . S
C720 C726 1.379 . S
C720 N728 1.356 . S
C721 C720 1.363 . S
C721 C727 1.363 . S
C722 C723 1.363 . S
C722 C727 1.379 . S
C722 N729 1.356 . S
C723 C722 1.363 . S
C723 C726 1.363 . S
N724 C726 1.356 . S
N724 H736 0.984 . S
N724 H737 0.985 . S
N725 C727 1.356 . S
N725 H730 0.984 . S
N725 H731 0.985 . S
C726 C720 1.379 . S
C726 C723 1.363 . S
C726 N724 1.356 . S
C727 C721 1.363 . S
C727 C722 1.379 . S
C727 N725 1.356 . S
N728 C720 1.356 . S
N728 H734 0.984 . S
N728 H735 0.984 . S
N729 C722 1.356 . S
N729 H732 0.984 . S
N729 H733 0.985 . S
H730 N725 0.984 . S
H731 N725 0.985 . S
H732 N729 0.984 . S
H733 N729 0.985 . S
H734 N728 0.984 . S
H735 N728 0.984 . S
H736 N724 0.984 . S
H737 N724 0.985 . S
C738 C739 1.363 . S
C738 C744 1.379 . S
C738 N746 1.356 . S
C739 C738 1.363 . S
C739 C745 1.363 . S
C740 C741 1.363 . S
C740 C745 1.379 . S
C740 N747 1.356 . S
C741 C740 1.363 . S
C741 C744 1.363 . S
N742 C744 1.356 . S
N742 H754 0.984 . S
N742 H755 0.985 . S
N743 C745 1.356 . S
N743 H748 0.984 . S
N743 H749 0.985 . S
C744 C738 1.379 . S
C744 C741 1.363 . S
C744 N742 1.356 . S
C745 C739 1.363 . S
C745 C740 1.379 . S
C745 N743 1.356 . S
N746 C738 1.356 . S
N746 H752 0.984 . S
N746 H753 0.984 . S
N747 C740 1.356 . S
N747 H750 0.984 . S
N747 H751 0.985 . S
H748 N743 0.984 . S
H749 N743 0.985 . S
H750 N747 0.984 . S
H751 N747 0.985 . S
H752 N746 0.984 . S
H753 N746 0.984 . S
H754 N742 0.984 . S
H755 N742 0.985 . S
C756 C757 1.363 . S
C756 C762 1.379 . S
C756 N764 1.356 . S
C757 C756 1.363 . S
C757 C763 1.363 . S
C758 C759 1.363 . S
C758 C763 1.379 . S
C758 N765 1.356 . S
C759 C758 1.363 . S
C759 C762 1.363 . S
N760 C762 1.356 . S
N760 H772 0.984 . S
N760 H773 0.985 . S
N761 C763 1.356 . S
N761 H766 0.984 . S
N761 H767 0.985 . S
C762 C756 1.379 . S
C762 C759 1.363 . S
C762 N760 1.356 . S
C763 C757 1.363 . S
C763 C758 1.379 . S
C763 N761 1.356 . S
N764 C756 1.356 . S
N764 H770 0.984 . S
N764 H771 0.984 . S
N765 C758 1.356 . S
N765 H768 0.984 . S
N765 H769 0.985 . S
H766 N761 0.984 . S
H767 N761 0.985 . S
H768 N765 0.984 . S
H769 N765 0.985 . S
H770 N764 0.984 . S
H771 N764 0.984 . S
H772 N760 0.984 . S
H773 N760 0.985 . S
C774 C775 1.373 . S
C774 C780 1.379 . S
C774 N782 1.348 1_565 S
C775 C774 1.373 . S
C775 C781 1.363 . S
C776 C777 1.363 . S
C776 C781 1.379 . S
C776 N783 1.356 . S
C777 C776 1.363 . S
C777 C780 1.363 . S
N778 C780 1.356 . S
N778 H790 0.984 . S
N778 H791 0.985 . S
N779 C781 1.356 1_545 S
N779 H784 0.984 . S
N779 H785 0.985 . S
C780 C774 1.379 . S
C780 C777 1.363 . S
C780 N778 1.356 . S
C781 C775 1.363 . S
C781 C776 1.379 . S
C781 N779 1.356 1_565 S
N782 C774 1.348 1_545 S
N782 H788 0.963 1_545 S
N782 H789 1.015 . S
N783 C776 1.356 . S
N783 H786 0.984 . S
N783 H787 0.985 . S
H784 N779 0.984 . S
H785 N779 0.985 . S
H786 N783 0.984 . S
H787 N783 0.985 . S
H788 N782 0.963 1_565 S
H789 N782 1.015 . S
H790 N778 0.984 . S
H791 N778 0.985 . S
C792 C793 1.363 1_455 S
C792 C798 1.379 . S
C792 N800 1.356 1_455 S
C793 C792 1.363 1_655 S
C793 C799 1.363 1_655 S
C794 C795 1.363 . S
C794 C799 1.379 . S
C794 N801 1.356 . S
C795 C794 1.363 . S
C795 C798 1.363 . S
N796 C798 1.356 . S
N796 H808 0.984 . S
N796 H809 0.985 . S
N797 C799 1.356 1_655 S
N797 H802 0.984 . S
N797 H803 0.985 . S
C798 C792 1.379 . S
C798 C795 1.363 . S
C798 N796 1.356 . S
C799 C793 1.363 1_455 S
C799 C794 1.379 . S
C799 N797 1.356 1_455 S
N800 C792 1.356 1_655 S
N800 H806 0.984 . S
N800 H807 0.984 . S
N801 C794 1.356 . S
N801 H804 0.984 . S
N801 H805 0.985 . S
H802 N797 0.984 . S
H803 N797 0.985 . S
H804 N801 0.984 . S
H805 N801 0.985 . S
H806 N800 0.984 . S
H807 N800 0.984 . S
H808 N796 0.984 . S
H809 N796 0.985 . S
C810 C811 1.363 . S
C810 C816 1.379 . S
C810 N818 1.356 . S
C811 C810 1.363 . S
C811 C817 1.363 . S
C812 C813 1.363 . S
C812 C817 1.379 . S
C812 N819 1.356 . S
C813 C812 1.363 . S
C813 C816 1.363 . S
N814 C816 1.356 . S
N814 H826 0.984 . S
N814 H827 0.985 . S
N815 C817 1.356 . S
N815 H820 0.984 . S
N815 H821 0.985 . S
C816 C810 1.379 . S
C816 C813 1.363 . S
C816 N814 1.356 . S
C817 C811 1.363 . S
C817 C812 1.379 . S
C817 N815 1.356 . S
N818 C810 1.356 . S
N818 H824 0.984 . S
N818 H825 0.984 . S
N819 C812 1.356 . S
N819 H822 0.984 . S
N819 H823 0.985 . S
H820 N815 0.984 . S
H821 N815 0.985 . S
H822 N819 0.984 . S
H823 N819 0.985 . S
H824 N818 0.984 . S
H825 N818 0.984 . S
H826 N814 0.984 . S
H827 N814 0.985 . S
C828 C829 1.363 . S
C828 C834 1.379 . S
C828 N836 1.356 . S
C829 C828 1.363 . S
C829 C835 1.363 . S
C830 C831 1.363 . S
C830 C835 1.379 . S
C830 N837 1.356 . S
C831 C830 1.363 . S
C831 C834 1.363 . S
N832 C834 1.356 . S
N832 H844 0.984 . S
N832 H845 0.985 . S
N833 C835 1.356 . S
N833 H838 0.984 . S
N833 H839 0.985 . S
C834 C828 1.379 . S
C834 C831 1.363 . S
C834 N832 1.356 . S
C835 C829 1.363 . S
C835 C830 1.379 . S
C835 N833 1.356 . S
N836 C828 1.356 . S
N836 H842 0.984 . S
N836 H843 0.984 . S
N837 C830 1.356 . S
N837 H840 0.984 . S
N837 H841 0.985 . S
H838 N833 0.984 . S
H839 N833 0.985 . S
H840 N837 0.984 . S
H841 N837 0.985 . S
H842 N836 0.984 . S
H843 N836 0.984 . S
H844 N832 0.984 . S
H845 N832 0.985 . S
C846 C847 1.363 . S
C846 C852 1.379 . S
C846 N854 1.356 . S
C847 C846 1.363 . S
C847 C853 1.363 . S
C848 C849 1.363 . S
C848 C853 1.379 . S
C848 N855 1.356 . S
C849 C848 1.363 . S
C849 C852 1.363 . S
N850 C852 1.356 . S
N850 H862 0.984 . S
N850 H863 0.985 . S
N851 C853 1.356 . S
N851 H856 0.984 . S
N851 H857 0.985 . S
C852 C846 1.379 . S
C852 C849 1.363 . S
C852 N850 1.356 . S
C853 C847 1.363 . S
C853 C848 1.379 . S
C853 N851 1.356 . S
N854 C846 1.356 . S
N854 H860 0.984 . S
N854 H861 0.984 . S
N855 C848 1.356 . S
N855 H858 0.984 . S
N855 H859 0.985 . S
H856 N851 0.984 . S
H857 N851 0.985 . S
H858 N855 0.984 . S
H859 N855 0.985 . S
H860 N854 0.984 . S
H861 N854 0.984 . S
H862 N850 0.984 . S
H863 N850 0.985 . S
C864 C865 1.363 . S
C864 C870 1.379 . S
C864 N872 1.356 . S
C865 C864 1.363 . S
C865 C871 1.363 . S
C866 C867 1.363 . S
C866 C871 1.379 . S
C866 N873 1.356 . S
C867 C866 1.363 . S
C867 C870 1.363 . S
N868 C870 1.356 . S
N868 H880 0.984 . S
N868 H881 0.985 . S
N869 C871 1.356 . S
N869 H874 0.984 . S
N869 H875 0.985 . S
C870 C864 1.379 . S
C870 C867 1.363 . S
C870 N868 1.356 . S
C871 C865 1.363 . S
C871 C866 1.379 . S
C871 N869 1.356 . S
N872 C864 1.356 . S
N872 H878 0.984 . S
N872 H879 0.984 . S
N873 C866 1.356 . S
N873 H876 0.984 . S
N873 H877 0.985 . S
H874 N869 0.984 . S
H875 N869 0.985 . S
H876 N873 0.984 . S
H877 N873 0.985 . S
H878 N872 0.984 . S
H879 N872 0.984 . S
H880 N868 0.984 . S
H881 N868 0.985 . S
C882 C883 1.363 . S
C882 C888 1.379 1_565 S
C882 N890 1.356 . S
C883 C882 1.363 . S
C883 C889 1.363 . S
C884 C885 1.363 . S
C884 C889 1.379 1_545 S
C884 N891 1.356 . S
C885 C884 1.363 . S
C885 C888 1.363 . S
N886 C888 1.356 . S
N886 H898 0.984 . S
N886 H899 0.985 . S
N887 C889 1.356 . S
N887 H892 0.984 . S
N887 H893 0.985 . S
C888 C882 1.379 1_545 S
C888 C885 1.363 . S
C888 N886 1.356 . S
C889 C883 1.363 . S
C889 C884 1.379 1_565 S
C889 N887 1.356 . S
N890 C882 1.356 . S
N890 H896 0.984 . S
N890 H897 0.984 . S
N891 C884 1.356 . S
N891 H894 0.984 . S
N891 H895 0.985 . S
H892 N887 0.984 . S
H893 N887 0.985 . S
H894 N891 0.984 . S
H895 N891 0.985 . S
H896 N890 0.984 . S
H897 N890 0.984 . S
H898 N886 0.984 . S
H899 N886 0.985 . S
C900 C901 1.363 . S
C900 C906 1.379 . S
C900 N908 1.356 . S
C901 C900 1.363 . S
C901 C907 1.363 . S
C902 C903 1.363 . S
C902 C907 1.379 1_655 S
C902 N909 1.356 . S
C903 C902 1.363 . S
C903 C906 1.363 1_655 S
N904 C906 1.356 . S
N904 H916 0.984 . S
N904 H917 0.985 1_455 S
N905 C907 1.356 . S
N905 H910 0.984 . S
N905 H911 0.985 . S
C906 C900 1.379 . S
C906 C903 1.363 1_455 S
C906 N904 1.356 . S
C907 C901 1.363 . S
C907 C902 1.379 1_455 S
C907 N905 1.356 . S
N908 C900 1.356 . S
N908 H914 0.984 . S
N908 H915 0.984 . S
N909 C902 1.356 . S
N909 H912 0.984 . S
N909 H913 0.985 . S
H910 N905 0.984 . S
H911 N905 0.985 . S
H912 N909 0.984 . S
H913 N909 0.985 . S
H914 N908 0.984 . S
H915 N908 0.984 . S
H916 N904 0.984 . S
H917 N904 0.985 1_655 S
C918 C919 1.363 . S
C918 C924 1.379 . S
C918 N926 1.356 . S
C919 C918 1.363 . S
C919 C925 1.363 . S
C920 C921 1.363 . S
C920 C925 1.379 . S
C920 N927 1.356 . S
C921 C920 1.363 . S
C921 C924 1.363 . S
N922 C924 1.356 . S
N922 H934 0.984 . S
N922 H935 0.985 . S
N923 C925 1.356 . S
N923 H928 0.984 . S
N923 H929 0.985 . S
C924 C918 1.379 . S
C924 C921 1.363 . S
C924 N922 1.356 . S
C925 C919 1.363 . S
C925 C920 1.379 . S
C925 N923 1.356 . S
N926 C918 1.356 . S
N926 H932 0.984 . S
N926 H933 0.984 . S
N927 C920 1.356 . S
N927 H930 0.984 . S
N927 H931 0.985 . S
H928 N923 0.984 . S
H929 N923 0.985 . S
H930 N927 0.984 . S
H931 N927 0.985 . S
H932 N926 0.984 . S
H933 N926 0.984 . S
H934 N922 0.984 . S
H935 N922 0.985 . S
C936 C937 1.363 . S
C936 C942 1.379 1_455 S
C936 N944 1.356 . S
C937 C936 1.363 . S
C937 C943 1.363 . S
C938 C939 1.363 . S
C938 C943 1.379 1_655 S
C938 N945 1.356 . S
C939 C938 1.363 . S
C939 C942 1.363 . S
N940 C942 1.356 . S
N940 H952 0.984 . S
N940 H953 0.985 . S
N941 C943 1.356 . S
N941 H946 0.984 . S
N941 H947 0.985 . S
C942 C936 1.379 1_655 S
C942 C939 1.363 . S
C942 N940 1.356 . S
C943 C937 1.363 . S
C943 C938 1.379 1_455 S
C943 N941 1.356 . S
N944 C936 1.356 . S
N944 H950 0.984 . S
N944 H951 0.984 . S
N945 C938 1.356 . S
N945 H948 0.984 . S
N945 H949 0.985 . S
H946 N941 0.984 . S
H947 N941 0.985 . S
H948 N945 0.984 . S
H949 N945 0.985 . S
H950 N944 0.984 . S
H951 N944 0.984 . S
H952 N940 0.984 . S
H953 N940 0.985 . S
C954 C955 1.363 . S
C954 C960 1.379 . S
C954 N962 1.356 . S
C955 C954 1.363 . S
C955 C961 1.363 . S
C956 C957 1.363 . S
C956 C961 1.379 . S
C956 N963 1.356 . S
C957 C956 1.363 . S
C957 C960 1.363 . S
N958 C960 1.356 . S
N958 H970 0.984 . S
N958 H971 0.985 . S
N959 C961 1.356 . S
N959 H964 0.984 . S
N959 H965 0.985 . S
C960 C954 1.379 . S
C960 C957 1.363 . S
C960 N958 1.356 . S
C961 C955 1.363 . S
C961 C956 1.379 . S
C961 N959 1.356 . S
N962 C954 1.356 . S
N962 H968 0.984 . S
N962 H969 0.984 . S
N963 C956 1.356 . S
N963 H966 0.984 . S
N963 H967 0.985 . S
H964 N959 0.984 . S
H965 N959 0.985 . S
H966 N963 0.984 . S
H967 N963 0.985 . S
H968 N962 0.984 . S
H969 N962 0.984 . S
H970 N958 0.984 . S
H971 N958 0.985 . S
C972 C973 1.376 . S
C972 C978 1.379 . S
C972 N980 1.356 1_545 S
C973 C972 1.376 . S
C973 C979 1.386 . S
C974 C975 1.363 . S
C974 C979 1.379 . S
C974 N981 1.356 . S
C975 C974 1.363 . S
C975 C978 1.363 . S
N976 C978 1.356 . S
N976 H988 0.984 . S
N976 H989 0.985 . S
N977 C979 1.356 1_565 S
N977 H982 0.984 . S
N977 H983 0.985 . S
C978 C972 1.379 . S
C978 C975 1.363 . S
C978 N976 1.356 . S
C979 C973 1.386 . S
C979 C974 1.379 . S
C979 N977 1.356 1_545 S
N980 C972 1.356 1_565 S
N980 H986 0.984 1_565 S
N980 H987 0.984 . S
N981 C974 1.356 . S
N981 H984 0.984 . S
N981 H985 0.985 . S
H982 N977 0.984 . S
H983 N977 0.985 . S
H984 N981 0.984 . S
H985 N981 0.985 . S
H986 N980 0.984 1_545 S
H987 N980 0.984 . S
H988 N976 0.984 . S
H989 N976 0.985 . S
C990 C991 1.363 . S
C990 C996 1.379 . S
C990 N998 1.356 . S
C991 C990 1.363 . S
C991 C997 1.363 . S
C992 C993 1.363 . S
C992 C997 1.379 . S
C992 N999 1.356 . S
C993 C992 1.363 . S
C993 C996 1.363 . S
N994 C996 1.356 . S
N994 H1006 0.984 . S
N994 H1007 0.985 . S
N995 C997 1.356 . S
N995 H1000 0.984 . S
N995 H1001 0.985 . S
C996 C990 1.379 . S
C996 C993 1.363 . S
C996 N994 1.356 . S
C997 C991 1.363 . S
C997 C992 1.379 . S
C997 N995 1.356 . S
N998 C990 1.356 . S
N998 H1004 0.984 . S
N998 H1005 0.984 . S
N999 C992 1.356 . S
N999 H1002 0.984 . S
N999 H1003 0.985 . S
H1000 N995 0.984 . S
H1001 N995 0.985 . S
H1002 N999 0.984 . S
H1003 N999 0.985 . S
H1004 N998 0.984 . S
H1005 N998 0.984 . S
H1006 N994 0.984 . S
H1007 N994 0.985 . S
C1008 C1009 1.363 . S
C1008 C1014 1.379 . S
C1008 N1016 1.356 . S
C1009 C1008 1.363 . S
C1009 C1015 1.363 . S
C1010 C1011 1.363 . S
C1010 C1015 1.379 . S
C1010 N1017 1.356 . S
C1011 C1010 1.363 . S
C1011 C1014 1.363 . S
N1012 C1014 1.356 . S
N1012 H1024 0.984 . S
N1012 H1025 0.985 . S
N1013 C1015 1.356 . S
N1013 H1018 0.984 . S
N1013 H1019 0.985 . S
C1014 C1008 1.379 . S
C1014 C1011 1.363 . S
C1014 N1012 1.356 . S
C1015 C1009 1.363 . S
C1015 C1010 1.379 . S
C1015 N1013 1.356 . S
N1016 C1008 1.356 . S
N1016 H1022 0.984 . S
N1016 H1023 0.984 . S
N1017 C1010 1.356 . S
N1017 H1020 0.984 . S
N1017 H1021 0.985 . S
H1018 N1013 0.984 . S
H1019 N1013 0.985 . S
H1020 N1017 0.984 . S
H1021 N1017 0.985 . S
H1022 N1016 0.984 . S
H1023 N1016 0.984 . S
H1024 N1012 0.984 . S
H1025 N1012 0.985 . S
C1026 C1027 1.363 . S
C1026 C1032 1.379 . S
C1026 N1034 1.356 . S
C1027 C1026 1.363 . S
C1027 C1033 1.363 . S
C1028 C1029 1.363 . S
C1028 C1033 1.379 . S
C1028 N1035 1.356 . S
C1029 C1028 1.363 . S
C1029 C1032 1.363 . S
N1030 C1032 1.356 . S
N1030 H1042 0.984 . S
N1030 H1043 0.985 . S
N1031 C1033 1.356 . S
N1031 H1036 0.984 . S
N1031 H1037 0.985 . S
C1032 C1026 1.379 . S
C1032 C1029 1.363 . S
C1032 N1030 1.356 . S
C1033 C1027 1.363 . S
C1033 C1028 1.379 . S
C1033 N1031 1.356 . S
N1034 C1026 1.356 . S
N1034 H1040 0.984 . S
N1034 H1041 0.984 . S
N1035 C1028 1.356 . S
N1035 H1038 0.984 . S
N1035 H1039 0.985 . S
H1036 N1031 0.984 . S
H1037 N1031 0.985 . S
H1038 N1035 0.984 . S
H1039 N1035 0.985 . S
H1040 N1034 0.984 . S
H1041 N1034 0.984 . S
H1042 N1030 0.984 . S
H1043 N1030 0.985 . S
C1044 C1045 1.363 . S
C1044 C1050 1.379 . S
C1044 N1052 1.356 . S
C1045 C1044 1.363 . S
C1045 C1051 1.363 . S
C1046 C1047 1.363 . S
C1046 C1051 1.379 . S
C1046 N1053 1.356 1_565 S
C1047 C1046 1.363 . S
C1047 C1050 1.363 . S
N1048 C1050 1.356 . S
N1048 H1060 0.984 . S
N1048 H1061 0.985 . S
N1049 C1051 1.356 . S
N1049 H1054 0.984 . S
N1049 H1055 0.985 1_565 S
C1050 C1044 1.379 . S
C1050 C1047 1.363 . S
C1050 N1048 1.356 . S
C1051 C1045 1.363 . S
C1051 C1046 1.379 . S
C1051 N1049 1.356 . S
N1052 C1044 1.356 . S
N1052 H1058 0.984 . S
N1052 H1059 0.984 . S
N1053 C1046 1.356 1_545 S
N1053 H1056 0.984 . S
N1053 H1057 0.985 . S
H1054 N1049 0.984 . S
H1055 N1049 0.985 1_545 S
H1056 N1053 0.984 . S
H1057 N1053 0.985 . S
H1058 N1052 0.984 . S
H1059 N1052 0.984 . S
H1060 N1048 0.984 . S
H1061 N1048 0.985 . S
C1062 C1063 1.363 . S
C1062 C1068 1.379 . S
C1062 N1070 1.356 . S
C1063 C1062 1.363 . S
C1063 C1069 1.363 . S
C1064 C1065 1.363 . S
C1064 C1069 1.379 . S
C1064 N1071 1.356 . S
C1065 C1064 1.363 . S
C1065 C1068 1.363 . S
N1066 C1068 1.356 . S
N1066 H1078 0.984 . S
N1066 H1079 0.985 . S
N1067 C1069 1.356 . S
N1067 H1072 0.984 . S
N1067 H1073 0.985 . S
C1068 C1062 1.379 . S
C1068 C1065 1.363 . S
C1068 N1066 1.356 . S
C1069 C1063 1.363 . S
C1069 C1064 1.379 . S
C1069 N1067 1.356 . S
N1070 C1062 1.356 . S
N1070 H1076 0.984 . S
N1070 H1077 0.984 . S
N1071 C1064 1.356 . S
N1071 H1074 0.984 . S
N1071 H1075 0.985 . S
H1072 N1067 0.984 . S
H1073 N1067 0.985 . S
H1074 N1071 0.984 . S
H1075 N1071 0.985 . S
H1076 N1070 0.984 . S
H1077 N1070 0.984 . S
H1078 N1066 0.984 . S
H1079 N1066 0.985 . S
C1080 C1081 1.363 . S
C1080 C1086 1.379 . S
C1080 N1088 1.356 . S
C1081 C1080 1.363 . S
C1081 C1087 1.363 . S
C1082 C1083 1.363 . S
C1082 C1087 1.379 . S
C1082 N1089 1.356 . S
C1083 C1082 1.363 . S
C1083 C1086 1.363 . S
N1084 C1086 1.356 . S
N1084 H1096 0.984 . S
N1084 H1097 0.985 . S
N1085 C1087 1.356 . S
N1085 H1090 0.984 . S
N1085 H1091 0.985 . S
C1086 C1080 1.379 . S
C1086 C1083 1.363 . S
C1086 N1084 1.356 . S
C1087 C1081 1.363 . S
C1087 C1082 1.379 . S
C1087 N1085 1.356 . S
N1088 C1080 1.356 . S
N1088 H1094 0.984 . S
N1088 H1095 0.984 . S
N1089 C1082 1.356 . S
N1089 H1092 0.984 . S
N1089 H1093 0.985 . S
H1090 N1085 0.984 . S
H1091 N1085 0.985 . S
H1092 N1089 0.984 . S
H1093 N1089 0.985 . S
H1094 N1088 0.984 . S
H1095 N1088 0.984 . S
H1096 N1084 0.984 . S
H1097 N1084 0.985 . S
C1098 C1099 1.363 . S
C1098 C1104 1.379 . S
C1098 N1106 1.356 . S
C1099 C1098 1.363 . S
C1099 C1105 1.363 . S
C1100 C1101 1.363 . S
C1100 C1105 1.379 . S
C1100 N1107 1.356 1_655 S
C1101 C1100 1.363 . S
C1101 C1104 1.363 . S
N1102 C1104 1.356 . S
N1102 H1114 0.984 . S
N1102 H1115 0.985 . S
N1103 C1105 1.356 . S
N1103 H1108 0.984 . S
N1103 H1109 0.985 1_655 S
C1104 C1098 1.379 . S
C1104 C1101 1.363 . S
C1104 N1102 1.356 . S
C1105 C1099 1.363 . S
C1105 C1100 1.379 . S
C1105 N1103 1.356 . S
N1106 C1098 1.356 . S
N1106 H1112 0.984 . S
N1106 H1113 0.984 . S
N1107 C1100 1.356 1_455 S
N1107 H1110 0.984 . S
N1107 H1111 0.985 . S
H1108 N1103 0.984 . S
H1109 N1103 0.985 1_455 S
H1110 N1107 0.984 . S
H1111 N1107 0.985 . S
H1112 N1106 0.984 . S
H1113 N1106 0.984 . S
H1114 N1102 0.984 . S
H1115 N1102 0.985 . S
C1116 C1117 1.363 . S
C1116 C1122 1.379 . S
C1116 N1124 1.356 . S
C1117 C1116 1.363 . S
C1117 C1123 1.363 . S
C1118 C1119 1.363 . S
C1118 C1123 1.379 . S
C1118 N1125 1.356 . S
C1119 C1118 1.363 . S
C1119 C1122 1.363 . S
N1120 C1122 1.356 . S
N1120 H1132 0.984 . S
N1120 H1133 0.985 . S
N1121 C1123 1.356 . S
N1121 H1126 0.984 . S
N1121 H1127 0.985 . S
C1122 C1116 1.379 . S
C1122 C1119 1.363 . S
C1122 N1120 1.356 . S
C1123 C1117 1.363 . S
C1123 C1118 1.379 . S
C1123 N1121 1.356 . S
N1124 C1116 1.356 . S
N1124 H1130 0.984 . S
N1124 H1131 0.984 . S
N1125 C1118 1.356 . S
N1125 H1128 0.984 . S
N1125 H1129 0.985 . S
H1126 N1121 0.984 . S
H1127 N1121 0.985 . S
H1128 N1125 0.984 . S
H1129 N1125 0.985 . S
H1130 N1124 0.984 . S
H1131 N1124 0.984 . S
H1132 N1120 0.984 . S
H1133 N1120 0.985 . S
C1134 C1135 1.363 . S
C1134 C1140 1.379 . S
C1134 N1142 1.356 . S
C1135 C1134 1.363 . S
C1135 C1141 1.363 . S
C1136 C1137 1.363 . S
C1136 C1141 1.379 . S
C1136 N1143 1.356 . S
C1137 C1136 1.363 . S
C1137 C1140 1.363 . S
N1138 C1140 1.356 . S
N1138 H1150 0.984 . S
N1138 H1151 0.985 . S
N1139 C1141 1.356 . S
N1139 H1144 0.984 . S
N1139 H1145 0.985 . S
C1140 C1134 1.379 . S
C1140 C1137 1.363 . S
C1140 N1138 1.356 . S
C1141 C1135 1.363 . S
C1141 C1136 1.379 . S
C1141 N1139 1.356 . S
N1142 C1134 1.356 . S
N1142 H1148 0.984 . S
N1142 H1149 0.984 . S
N1143 C1136 1.356 . S
N1143 H1146 0.984 . S
N1143 H1147 0.985 . S
H1144 N1139 0.984 . S
H1145 N1139 0.985 . S
H1146 N1143 0.984 . S
H1147 N1143 0.985 . S
H1148 N1142 0.984 . S
H1149 N1142 0.984 . S
H1150 N1138 0.984 . S
H1151 N1138 0.985 . S
C1152 C1153 1.363 . S
C1152 C1158 1.379 . S
C1152 N1160 1.356 . S
C1153 C1152 1.363 . S
C1153 C1159 1.363 . S
C1154 C1155 1.363 . S
C1154 C1159 1.379 . S
C1154 N1161 1.356 . S
C1155 C1154 1.363 . S
C1155 C1158 1.363 . S
N1156 C1158 1.356 . S
N1156 H1168 0.984 . S
N1156 H1169 0.985 . S
N1157 C1159 1.356 . S
N1157 H1162 0.984 . S
N1157 H1163 0.985 . S
C1158 C1152 1.379 . S
C1158 C1155 1.363 . S
C1158 N1156 1.356 . S
C1159 C1153 1.363 . S
C1159 C1154 1.379 . S
C1159 N1157 1.356 . S
N1160 C1152 1.356 . S
N1160 H1166 0.984 . S
N1160 H1167 0.984 . S
N1161 C1154 1.356 . S
N1161 H1164 0.984 . S
N1161 H1165 0.985 . S
H1162 N1157 0.984 . S
H1163 N1157 0.985 . S
H1164 N1161 0.984 . S
H1165 N1161 0.985 . S
H1166 N1160 0.984 . S
H1167 N1160 0.984 . S
H1168 N1156 0.984 . S
H1169 N1156 0.985 . S
C1170 C1171 1.363 . S
C1170 C1176 1.379 . S
C1170 N1178 1.356 . S
C1171 C1170 1.363 . S
C1171 C1177 1.363 . S
C1172 C1173 1.363 . S
C1172 C1177 1.379 . S
C1172 N1179 1.356 . S
C1173 C1172 1.363 . S
C1173 C1176 1.363 . S
N1174 C1176 1.356 . S
N1174 H1186 0.984 . S
N1174 H1187 0.985 . S
N1175 C1177 1.356 . S
N1175 H1180 0.984 . S
N1175 H1181 0.985 . S
C1176 C1170 1.379 . S
C1176 C1173 1.363 . S
C1176 N1174 1.356 . S
C1177 C1171 1.363 . S
C1177 C1172 1.379 . S
C1177 N1175 1.356 . S
N1178 C1170 1.356 . S
N1178 H1184 0.984 . S
N1178 H1185 0.984 . S
N1179 C1172 1.356 . S
N1179 H1182 0.984 . S
N1179 H1183 0.985 . S
H1180 N1175 0.984 . S
H1181 N1175 0.985 . S
H1182 N1179 0.984 . S
H1183 N1179 0.985 . S
H1184 N1178 0.984 . S
H1185 N1178 0.984 . S
H1186 N1174 0.984 . S
H1187 N1174 0.985 . S
C1188 C1189 1.363 . S
C1188 C1194 1.379 . S
C1188 N1196 1.356 . S
C1189 C1188 1.363 . S
C1189 C1195 1.363 . S
C1190 C1191 1.363 . S
C1190 C1195 1.379 . S
C1190 N1197 1.356 . S
C1191 C1190 1.363 . S
C1191 C1194 1.363 . S
N1192 C1194 1.356 . S
N1192 H1204 0.984 . S
N1192 H1205 0.985 . S
N1193 C1195 1.356 . S
N1193 H1198 0.984 . S
N1193 H1199 0.985 . S
C1194 C1188 1.379 . S
C1194 C1191 1.363 . S
C1194 N1192 1.356 . S
C1195 C1189 1.363 . S
C1195 C1190 1.379 . S
C1195 N1193 1.356 . S
N1196 C1188 1.356 . S
N1196 H1202 0.984 . S
N1196 H1203 0.984 . S
N1197 C1190 1.356 . S
N1197 H1200 0.984 . S
N1197 H1201 0.985 . S
H1198 N1193 0.984 . S
H1199 N1193 0.985 . S
H1200 N1197 0.984 . S
H1201 N1197 0.985 . S
H1202 N1196 0.984 . S
H1203 N1196 0.984 . S
H1204 N1192 0.984 . S
H1205 N1192 0.985 . S
C1206 C1207 1.363 . S
C1206 C1212 1.379 . S
C1206 N1214 1.356 . S
C1207 C1206 1.363 . S
C1207 C1213 1.363 . S
C1208 C1209 1.363 . S
C1208 C1213 1.379 . S
C1208 N1215 1.356 . S
C1209 C1208 1.363 . S
C1209 C1212 1.363 . S
N1210 C1212 1.356 . S
N1210 H1222 0.984 . S
N1210 H1223 0.985 . S
N1211 C1213 1.356 . S
N1211 H1216 0.984 . S
N1211 H1217 0.985 . S
C1212 C1206 1.379 . S
C1212 C1209 1.363 . S
C1212 N1210 1.356 . S
C1213 C1207 1.363 . S
C1213 C1208 1.379 . S
C1213 N1211 1.356 . S
N1214 C1206 1.356 . S
N1214 H1220 0.984 . S
N1214 H1221 0.984 . S
N1215 C1208 1.356 . S
N1215 H1218 0.984 . S
N1215 H1219 0.985 . S
H1216 N1211 0.984 . S
H1217 N1211 0.985 . S
H1218 N1215 0.984 . S
H1219 N1215 0.985 . S
H1220 N1214 0.984 . S
H1221 N1214 0.984 . S
H1222 N1210 0.984 . S
H1223 N1210 0.985 . S
C1224 C1225 1.363 . S
C1224 C1230 1.379 . S
C1224 N1232 1.356 . S
C1225 C1224 1.363 . S
C1225 C1231 1.363 . S
C1226 C1227 1.363 . S
C1226 C1231 1.379 . S
C1226 N1233 1.356 . S
C1227 C1226 1.363 . S
C1227 C1230 1.363 . S
N1228 C1230 1.356 . S
N1228 H1240 0.984 . S
N1228 H1241 0.985 . S
N1229 C1231 1.356 . S
N1229 H1234 0.984 . S
N1229 H1235 0.985 . S
C1230 C1224 1.379 . S
C1230 C1227 1.363 . S
C1230 N1228 1.356 . S
C1231 C1225 1.363 . S
C1231 C1226 1.379 . S
C1231 N1229 1.356 . S
N1232 C1224 1.356 . S
N1232 H1238 0.984 . S
N1232 H1239 0.984 . S
N1233 C1226 1.356 . S
N1233 H1236 0.984 . S
N1233 H1237 0.985 . S
H1234 N1229 0.984 . S
H1235 N1229 0.985 . S
H1236 N1233 0.984 . S
H1237 N1233 0.985 . S
H1238 N1232 0.984 . S
H1239 N1232 0.984 . S
H1240 N1228 0.984 . S
H1241 N1228 0.985 . S
C1242 C1243 1.363 . S
C1242 C1248 1.379 . S
C1242 N1250 1.356 . S
C1243 C1242 1.363 . S
C1243 C1249 1.363 . S
C1244 C1245 1.363 . S
C1244 C1249 1.379 . S
C1244 N1251 1.356 . S
C1245 C1244 1.363 . S
C1245 C1248 1.363 . S
N1246 C1248 1.356 . S
N1246 H1258 0.984 . S
N1246 H1259 0.985 . S
N1247 C1249 1.356 . S
N1247 H1252 0.984 . S
N1247 H1253 0.985 . S
C1248 C1242 1.379 . S
C1248 C1245 1.363 . S
C1248 N1246 1.356 . S
C1249 C1243 1.363 . S
C1249 C1244 1.379 . S
C1249 N1247 1.356 . S
N1250 C1242 1.356 . S
N1250 H1256 0.984 . S
N1250 H1257 0.984 . S
N1251 C1244 1.356 . S
N1251 H1254 0.984 . S
N1251 H1255 0.985 . S
H1252 N1247 0.984 . S
H1253 N1247 0.985 . S
H1254 N1251 0.984 . S
H1255 N1251 0.985 . S
H1256 N1250 0.984 . S
H1257 N1250 0.984 . S
H1258 N1246 0.984 . S
H1259 N1246 0.985 . S
C1260 C1261 1.363 . S
C1260 C1266 1.379 . S
C1260 N1268 1.356 . S
C1261 C1260 1.363 . S
C1261 C1267 1.363 . S
C1262 C1263 1.363 . S
C1262 C1267 1.379 . S
C1262 N1269 1.356 . S
C1263 C1262 1.363 . S
C1263 C1266 1.363 . S
N1264 C1266 1.356 . S
N1264 H1276 0.984 . S
N1264 H1277 0.985 . S
N1265 C1267 1.356 . S
N1265 H1270 0.984 . S
N1265 H1271 0.985 . S
C1266 C1260 1.379 . S
C1266 C1263 1.363 . S
C1266 N1264 1.356 . S
C1267 C1261 1.363 . S
C1267 C1262 1.379 . S
C1267 N1265 1.356 . S
N1268 C1260 1.356 . S
N1268 H1274 0.984 . S
N1268 H1275 0.984 . S
N1269 C1262 1.356 . S
N1269 H1272 0.984 . S
N1269 H1273 0.985 . S
H1270 N1265 0.984 . S
H1271 N1265 0.985 . S
H1272 N1269 0.984 . S
H1273 N1269 0.985 . S
H1274 N1268 0.984 . S
H1275 N1268 0.984 . S
H1276 N1264 0.984 . S
H1277 N1264 0.985 . S
C1278 C1279 1.363 . S
C1278 C1284 1.379 . S
C1278 N1286 1.356 . S
C1279 C1278 1.363 . S
C1279 C1285 1.363 . S
C1280 C1281 1.363 . S
C1280 C1285 1.379 . S
C1280 N1287 1.356 . S
C1281 C1280 1.363 . S
C1281 C1284 1.363 . S
N1282 C1284 1.356 . S
N1282 H1294 0.984 . S
N1282 H1295 0.985 . S
N1283 C1285 1.356 . S
N1283 H1288 0.984 . S
N1283 H1289 0.985 . S
C1284 C1278 1.379 . S
C1284 C1281 1.363 . S
C1284 N1282 1.356 . S
C1285 C1279 1.363 . S
C1285 C1280 1.379 . S
C1285 N1283 1.356 . S
N1286 C1278 1.356 . S
N1286 H1292 0.984 . S
N1286 H1293 0.984 . S
N1287 C1280 1.356 . S
N1287 H1290 0.984 . S
N1287 H1291 0.985 . S
H1288 N1283 0.984 . S
H1289 N1283 0.985 . S
H1290 N1287 0.984 . S
H1291 N1287 0.985 . S
H1292 N1286 0.984 . S
H1293 N1286 0.984 . S
H1294 N1282 0.984 . S
H1295 N1282 0.985 . S
C1296 C1297 1.363 . S
C1296 C1302 1.379 . S
C1296 N1304 1.356 . S
C1297 C1296 1.363 . S
C1297 C1303 1.363 . S
C1298 C1299 1.363 . S
C1298 C1303 1.379 . S
C1298 N1305 1.356 . S
C1299 C1298 1.363 . S
C1299 C1302 1.363 . S
N1300 C1302 1.356 . S
N1300 H1312 0.984 . S
N1300 H1313 0.985 . S
N1301 C1303 1.356 . S
N1301 H1306 0.984 . S
N1301 H1307 0.985 . S
C1302 C1296 1.379 . S
C1302 C1299 1.363 . S
C1302 N1300 1.356 . S
C1303 C1297 1.363 . S
C1303 C1298 1.379 . S
C1303 N1301 1.356 . S
N1304 C1296 1.356 . S
N1304 H1310 0.984 . S
N1304 H1311 0.984 . S
N1305 C1298 1.356 . S
N1305 H1308 0.984 . S
N1305 H1309 0.985 . S
H1306 N1301 0.984 . S
H1307 N1301 0.985 . S
H1308 N1305 0.984 . S
H1309 N1305 0.985 . S
H1310 N1304 0.984 . S
H1311 N1304 0.984 . S
H1312 N1300 0.984 . S
H1313 N1300 0.985 . S
C1314 C1315 1.363 . S
C1314 C1320 1.379 . S
C1314 N1322 1.356 . S
C1315 C1314 1.363 . S
C1315 C1321 1.363 . S
C1316 C1317 1.363 . S
C1316 C1321 1.379 . S
C1316 N1323 1.356 . S
C1317 C1316 1.363 . S
C1317 C1320 1.363 . S
N1318 C1320 1.356 . S
N1318 H1330 0.984 . S
N1318 H1331 0.985 . S
N1319 C1321 1.356 . S
N1319 H1324 0.984 . S
N1319 H1325 0.985 . S
C1320 C1314 1.379 . S
C1320 C1317 1.363 . S
C1320 N1318 1.356 . S
C1321 C1315 1.363 . S
C1321 C1316 1.379 . S
C1321 N1319 1.356 . S
N1322 C1314 1.356 . S
N1322 H1328 0.984 . S
N1322 H1329 0.984 . S
N1323 C1316 1.356 . S
N1323 H1326 0.984 . S
N1323 H1327 0.985 . S
H1324 N1319 0.984 . S
H1325 N1319 0.985 . S
H1326 N1323 0.984 . S
H1327 N1323 0.985 . S
H1328 N1322 0.984 . S
H1329 N1322 0.984 . S
H1330 N1318 0.984 . S
H1331 N1318 0.985 . S
C1332 C1333 1.363 . S
C1332 C1338 1.379 . S
C1332 N1340 1.356 . S
C1333 C1332 1.363 . S
C1333 C1339 1.363 . S
C1334 C1335 1.363 . S
C1334 C1339 1.379 . S
C1334 N1341 1.356 . S
C1335 C1334 1.363 . S
C1335 C1338 1.363 . S
N1336 C1338 1.356 . S
N1336 H1348 0.984 . S
N1336 H1349 0.985 . S
N1337 C1339 1.356 . S
N1337 H1342 0.984 . S
N1337 H1343 0.985 . S
C1338 C1332 1.379 . S
C1338 C1335 1.363 . S
C1338 N1336 1.356 . S
C1339 C1333 1.363 . S
C1339 C1334 1.379 . S
C1339 N1337 1.356 . S
N1340 C1332 1.356 . S
N1340 H1346 0.984 . S
N1340 H1347 0.984 . S
N1341 C1334 1.356 . S
N1341 H1344 0.984 . S
N1341 H1345 0.985 . S
H1342 N1337 0.984 . S
H1343 N1337 0.985 . S
H1344 N1341 0.984 . S
H1345 N1341 0.985 . S
H1346 N1340 0.984 . S
H1347 N1340 0.984 . S
H1348 N1336 0.984 . S
H1349 N1336 0.985 . S
C1350 C1351 1.363 . S
C1350 C1356 1.379 . S
C1350 N1358 1.356 . S
C1351 C1350 1.363 . S
C1351 C1357 1.363 . S
C1352 C1353 1.363 . S
C1352 C1357 1.379 . S
C1352 N1359 1.356 . S
C1353 C1352 1.363 . S
C1353 C1356 1.363 . S
N1354 C1356 1.356 . S
N1354 H1366 0.984 . S
N1354 H1367 0.985 . S
N1355 C1357 1.356 . S
N1355 H1360 0.984 . S
N1355 H1361 0.985 . S
C1356 C1350 1.379 . S
C1356 C1353 1.363 . S
C1356 N1354 1.356 . S
C1357 C1351 1.363 . S
C1357 C1352 1.379 . S
C1357 N1355 1.356 . S
N1358 C1350 1.356 . S
N1358 H1364 0.984 . S
N1358 H1365 0.984 . S
N1359 C1352 1.356 . S
N1359 H1362 0.984 . S
N1359 H1363 0.985 . S
H1360 N1355 0.984 . S
H1361 N1355 0.985 . S
H1362 N1359 0.984 . S
H1363 N1359 0.985 . S
H1364 N1358 0.984 . S
H1365 N1358 0.984 . S
H1366 N1354 0.984 . S
H1367 N1354 0.985 . S
C397 C162 1.552 . S
C399 C222 1.531 . S
C415 C174 1.493 . S
C417 C242 1.470 . S
C433 C150 1.507 . S
C435 C265 1.512 . S
C451 C138 1.445 . S
C453 C245 1.447 1_556 S
C471 C262 1.452 . S
C469 C114 1.468 . S
C487 C126 1.505 . S
C489 C225 1.503 1_556 S
C507 C232 1.541 . S
C505 C136 1.564 . S
C525 C252 1.423 . S
C523 C112 1.442 . S
C541 C124 1.521 . S
C543 C257 1.548 1_556 S
C559 C160 1.454 . S
C561 C237 1.476 . S
C577 C172 1.472 . S
C579 C272 1.447 . S
C597 C217 1.558 . S
C595 C148 1.550 . S
C615 C282 1.531 . S
C613 C18 1.552 . S
C631 C30 1.493 . S
C633 C302 1.470 . S
C649 C6 1.507 . S
C651 C325 1.512 . S
C667 C210 1.444 . S
C669 C305 1.447 . S
C685 C186 1.468 . S
C687 C322 1.452 . S
C703 C198 1.505 . S
C705 C285 1.503 . S
C721 C208 1.564 . S
C723 C292 1.541 . S
C739 C184 1.442 . S
C741 C312 1.423 . S
C759 C317 1.548 . S
C757 C196 1.520 . S
C775 C16 1.445 1_565 S
C777 C297 1.476 . S
C795 C332 1.447 . S
C793 C28 1.472 . S
C811 C4 1.550 . S
C813 C277 1.558 . S
C831 C342 1.531 . S
C829 C90 1.552 . S
C847 C102 1.493 . S
C849 C362 1.470 . S
C867 C385 1.512 . S
C865 C78 1.507 . S
C885 C365 1.447 . S
C883 C66 1.444 . S
C903 C382 1.452 . S
C901 C42 1.468 . S
C919 C54 1.505 . S
C921 C345 1.503 . S
C937 C64 1.564 . S
C939 C352 1.541 . S
C955 C40 1.442 . S
C957 C372 1.423 . S
C975 C377 1.548 . S
C973 C52 1.489 1_545 S
C991 C88 1.454 . S
C993 C357 1.476 . S
C1009 C100 1.472 . S
C1011 C392 1.447 . S
C1027 C76 1.550 . S
C1029 C337 1.558 . S
C1045 C189 1.411 . S
C1047 C235 1.356 . S
C1065 C255 1.590 . S
C1063 C201 1.674 . S
C1081 C213 1.517 . S
C1083 C264 1.481 . S
C1099 C81 1.635 . S
C1101 C244 1.586 . S
C1117 C93 1.579 . S
C1119 C275 1.508 . S
C1137 C224 1.358 . S
C1135 C105 1.381 . S
C1153 C45 1.411 . S
C1155 C295 1.356 . S
C1171 C57 1.674 . S
C1173 C315 1.590 . S
C1189 C69 1.517 . S
C1191 C324 1.481 . S
C1207 C153 1.635 . S
C1209 C304 1.586 . S
C1227 C335 1.508 . S
C1225 C165 1.579 . S
C1243 C177 1.381 . S
C1245 C284 1.358 . S
C1261 C117 1.411 . S
C1263 C355 1.356 . S
C1279 C129 1.674 . S
C1281 C375 1.590 . S
C1299 C384 1.481 . S
C1297 C141 1.517 . S
C1315 C9 1.635 . S
C1317 C364 1.586 . S
C1333 C21 1.579 . S
C1335 C395 1.508 . S
C1351 C33 1.381 . S
C1353 C344 1.358 . S
