# Generated by pormake.
# Topology anh, (6,3)-cn, num edge types: 1
# Building blocks:
#     Node 0, Type 0, BuildingBlock: VOLQOD_clean_sbu_1, # of connection points: 6
#     Node 1, Type 0, BuildingBlock: VOLQOD_clean_sbu_1, # of connection points: 6
#     Node 2, Type 0, BuildingBlock: VOLQOD_clean_sbu_1, # of connection points: 6
#     Node 3, Type 1, BuildingBlock: BETDAH_clean_linker_0, # of connection points: 3
#     Node 4, Type 1, BuildingBlock: BETDAH_clean_linker_0, # of connection points: 3
#     Node 5, Type 1, BuildingBlock: BETDAH_clean_linker_0, # of connection points: 3
#     Node 6, Type 1, BuildingBlock: BETDAH_clean_linker_0, # of connection points: 3
#     Node 7, Type 1, BuildingBlock: BETDAH_clean_linker_0, # of connection points: 3
#     Node 8, Type 1, BuildingBlock: BETDAH_clean_linker_0, # of connection points: 3
#     Edge 9, Type (0, 1), BuildingBlock: XUDNAN_clean_linker_2, # of connection points: 2
#     Edge 10, Type (0, 1), BuildingBlock: XUDNAN_clean_linker_2, # of connection points: 2
#     Edge 11, Type (0, 1), BuildingBlock: XUDNAN_clean_linker_2, # of connection points: 2
#     Edge 12, Type (0, 1), BuildingBlock: XUDNAN_clean_linker_2, # of connection points: 2
#     Edge 13, Type (0, 1), BuildingBlock: XUDNAN_clean_linker_2, # of connection points: 2
#     Edge 14, Type (0, 1), BuildingBlock: XUDNAN_clean_linker_2, # of connection points: 2
#     Edge 15, Type (0, 1), BuildingBlock: XUDNAN_clean_linker_2, # of connection points: 2
#     Edge 16, Type (0, 1), BuildingBlock: XUDNAN_clean_linker_2, # of connection points: 2
#     Edge 17, Type (0, 1), BuildingBlock: XUDNAN_clean_linker_2, # of connection points: 2
#     Edge 18, Type (0, 1), BuildingBlock: XUDNAN_clean_linker_2, # of connection points: 2
#     Edge 19, Type (0, 1), BuildingBlock: XUDNAN_clean_linker_2, # of connection points: 2
#     Edge 20, Type (0, 1), BuildingBlock: XUDNAN_clean_linker_2, # of connection points: 2
#     Edge 21, Type (0, 1), BuildingBlock: XUDNAN_clean_linker_2, # of connection points: 2
#     Edge 22, Type (0, 1), BuildingBlock: XUDNAN_clean_linker_2, # of connection points: 2
#     Edge 23, Type (0, 1), BuildingBlock: XUDNAN_clean_linker_2, # of connection points: 2
#     Edge 24, Type (0, 1), BuildingBlock: XUDNAN_clean_linker_2, # of connection points: 2
#     Edge 25, Type (0, 1), BuildingBlock: XUDNAN_clean_linker_2, # of connection points: 2
#     Edge 26, Type (0, 1), BuildingBlock: XUDNAN_clean_linker_2, # of connection points: 2
# Relax obj value: 0.158
# Max RMSD: 0.216
# Mean RMSD: 0.136
data_MOF--net-anh--node1-VOLQOD_clean_sbu_1--node2-BETDAH_clean_linker_0--edge1-XUDNAN_clean_linker_2
_symmetry_space_group_name_H-M    P1
_symmetry_Int_Tables_number       1
_symmetry_cell_setting            triclinic
loop_
_symmetry_equiv_pos_as_xyz
'x, y, z'
_cell_length_a     29.475556
_cell_length_b     29.267049
_cell_length_c     56.540157
_cell_angle_alpha  92.694443
_cell_angle_beta   92.459491
_cell_angle_gamma 120.39555
loop_
_atom_site_label
_atom_site_type_symbol
_atom_site_fract_x
_atom_site_fract_y
_atom_site_fract_z
_atom_type_partial_charge
O0 O 0.03534 0.61356 0.21238 0.0
Zn1 Zn 0.02747 0.61896 0.17739 0.0
O2 O 0.03722 0.56546 0.1603 0.0
Zn3 Zn 0.9725 0.51299 0.1423 0.0
Zn4 Zn 0.05918 0.52918 0.18215 0.0
Zn5 Zn 0.09041 0.60126 0.13845 0.0
O6 O 0.98256 0.50839 0.10721 0.0
O7 O 0.05947 0.58246 0.10469 0.0
O8 O 0.95615 0.61024 0.16833 0.0
O9 O 0.91912 0.53498 0.14505 0.0
O10 O 0.93987 0.44185 0.15615 0.0
O11 O -0.00103 0.45466 0.18526 0.0
O12 O 0.12251 0.52583 0.171 0.0
O13 O 0.08523 0.69335 0.17239 0.0
O14 O 0.14154 0.57659 0.14073 0.0
O15 O 0.13258 0.68027 0.14643 0.0
C16 C 0.0582 0.59455 0.22471 0.0
C17 C 0.01796 0.54188 0.09487 0.0
C18 C 0.95422 0.42543 0.17382 0.0
C19 C 0.91699 0.57324 0.15545 0.0
C20 C 0.15073 0.5477 0.15386 0.0
C21 C 0.12532 0.71121 0.16024 0.0
O22 O 0.07421 0.5654 0.21515 0.0
O23 O 0.47484 0.04438 0.4539 0.0
Zn24 Zn 0.46522 0.03978 0.48915 0.0
O25 O 0.52684 0.04156 0.5054 0.0
Zn26 Zn 0.5652 0.10426 0.52772 0.0
Zn27 Zn 0.57485 0.0411 0.48227 0.0
Zn28 Zn 0.50232 0.98035 0.52371 0.0
O29 O 0.56477 0.08718 0.56202 0.0
O30 O 0.5205 0.99921 0.55864 0.0
O31 O 0.46031 0.1043 0.50027 0.0
O32 O 0.53305 0.14918 0.52465 0.0
O33 O 0.6402 0.15014 0.51996 0.0
O34 O 0.64621 0.10859 0.48747 0.0
O35 O 0.58598 0.97817 0.48525 0.0
O36 O 0.39623 0.97119 0.49393 0.0
O37 O 0.53446 0.93783 0.51402 0.0
O38 O 0.42477 0.93287 0.51864 0.0
C39 C 0.50814 0.04377 0.44038 0.0
C40 C 0.54534 0.04299 0.57136 0.0
C41 C 0.66649 0.14775 0.50318 0.0
C42 C 0.49239 0.14531 0.51383 0.0
C43 C 0.56643 0.94053 0.49901 0.0
C44 C 0.38741 0.93293 0.50659 0.0
O45 O 0.54722 0.04047 0.4487 0.0
O46 O 0.48156 0.50972 0.77596 0.0
Zn47 Zn 0.47392 0.49182 0.81012 0.0
O48 O 0.52954 0.55149 0.83062 0.0
Zn49 Zn 0.4999 0.58604 0.84896 0.0
Zn50 Zn 0.58301 0.60241 0.81119 0.0
Zn51 Zn 0.56115 0.52554 0.85295 0.0
O52 O 0.50101 0.57483 0.88396 0.0
O53 O 0.54337 0.5305 0.88651 0.0
O54 O 0.40117 0.47715 0.81787 0.0
O55 O 0.42456 0.55426 0.83792 0.0
O56 O 0.53672 0.66417 0.84494 0.0
O57 O 0.59315 0.67568 0.81783 0.0
O58 O 0.65343 0.6082 0.81881 0.0
O59 O 0.48054 0.42642 0.8123 0.0
O60 O 0.63939 0.56645 0.85201 0.0
O61 O 0.5381 0.4496 0.84369 0.0
C62 C 0.51842 0.54543 0.76504 0.0
C63 C 0.51933 0.55146 0.89616 0.0
C64 C 0.57232 0.69408 0.83177 0.0
C65 C 0.38968 0.50995 0.82743 0.0
C66 C 0.67013 0.59472 0.83681 0.0
C67 C 0.5073 0.41586 0.82703 0.0
O68 O 0.5609 0.58208 0.77617 0.0
H69 H 0.42271 0.01239 0.26272 0.0
H70 H 0.59219 0.08973 0.26527 0.0
H71 H 0.49906 0.0107 0.1999 0.0
C72 C 0.45848 0.02497 0.25376 0.0
C73 C 0.45464 0.00928 0.22956 0.0
C74 C 0.50773 0.05388 0.2669 0.0
C75 C 0.55398 0.06798 0.25537 0.0
C76 C 0.55051 0.05226 0.23112 0.0
C77 C 0.50105 0.02269 0.21853 0.0
N78 N 0.59553 0.06215 0.21916 0.0
C79 C 0.64358 0.10959 0.22184 0.0
H80 H 0.48972 0.46372 0.58791 0.0
H81 H 0.60487 0.63133 0.59351 0.0
H82 H 0.59735 0.53158 0.53362 0.0
C83 C 0.52037 0.49844 0.58036 0.0
C84 C 0.5393 0.49191 0.55889 0.0
C85 C 0.54403 0.5484 0.59324 0.0
C86 C 0.58581 0.59257 0.5838 0.0
C87 C 0.60449 0.58632 0.56218 0.0
C88 C 0.58161 0.53614 0.54997 0.0
N89 N 0.64896 0.62942 0.55341 0.0
C90 C 0.64545 0.67023 0.54373 0.0
H91 H 0.94896 0.56988 0.91918 0.0
H92 H 0.10619 0.59515 0.92302 0.0
H93 H 0.05566 0.65489 0.86631 0.0
C94 C 0.98699 0.58573 0.91191 0.0
C95 C 0.99659 0.61216 0.89089 0.0
C96 C 0.02666 0.58061 0.92402 0.0
C97 C 0.07541 0.59958 0.91419 0.0
C98 C 0.0851 0.6256 0.89322 0.0
C99 C 0.04653 0.63313 0.88208 0.0
N100 N 0.13388 0.64505 0.88315 0.0
C101 C 0.15132 0.61101 0.87604 0.0
H102 H 0.11694 0.66177 0.41165 0.0
H103 H 0.03083 0.49644 0.38821 0.0
H104 H 0.06053 0.54286 0.46275 0.0
C105 C 0.09454 0.62094 0.41607 0.0
C106 C 0.09137 0.60841 0.43996 0.0
C107 C 0.07177 0.5811 0.39735 0.0
C108 C 0.0476 0.52784 0.40247 0.0
C109 C 0.04358 0.51419 0.42591 0.0
C110 C 0.06405 0.55422 0.44469 0.0
N111 N 0.02267 0.46 0.42988 0.0
C112 C 0.98739 0.4341 0.44675 0.0
H113 H 0.56467 0.14083 0.74458 0.0
H114 H 0.66596 0.07521 0.75112 0.0
H115 H 0.65933 0.16876 0.80992 0.0
C116 C 0.59353 0.13613 0.75502 0.0
C117 C 0.60852 0.15809 0.7787 0.0
C118 C 0.61443 0.10669 0.74482 0.0
C119 C 0.6496 0.09796 0.75869 0.0
C120 C 0.66552 0.12041 0.78212 0.0
C121 C 0.64581 0.15103 0.79188 0.0
N122 N 0.70157 0.11253 0.79605 0.0
C123 C 0.68729 0.06234 0.80283 0.0
H124 H 0.59329 0.53416 0.0673 0.0
H125 H 0.42487 0.43628 0.06939 0.0
H126 H 0.52794 0.44653 0.1281 0.0
C127 C 0.55919 0.50704 0.07634 0.0
C128 C 0.5665 0.49313 0.09898 0.0
C129 C 0.50828 0.48598 0.06526 0.0
C130 C 0.46446 0.45227 0.07755 0.0
C131 C 0.47165 0.43788 0.10019 0.0
C132 C 0.52262 0.45726 0.11053 0.0
N133 N 0.42801 0.40641 0.11334 0.0
C134 C 0.39027 0.42065 0.11636 0.0
H135 H 0.17003 0.46962 0.16833 0.0
H136 H 0.22921 0.60525 0.12559 0.0
H137 H 0.29643 0.58666 0.11179 0.0
H138 H 0.29972 0.48562 0.18516 0.0
H139 H 0.27448 0.41504 0.18343 0.0
H140 H 0.23237 0.44056 0.19124 0.0
H141 H 0.16439 0.38008 0.15671 0.0
H142 H 0.20654 0.35486 0.1486 0.0
H143 H 0.18501 0.38453 0.12692 0.0
H144 H 0.35355 0.5518 0.10057 0.0
H145 H 0.40247 0.50462 0.09466 0.0
H146 H 0.30864 0.3917 0.14446 0.0
C147 C 0.19771 0.49585 0.15639 0.0
C148 C 0.19414 0.53875 0.14799 0.0
C149 C 0.23082 0.5719 0.13218 0.0
C150 C 0.26928 0.56177 0.12421 0.0
C151 C 0.27086 0.51847 0.13227 0.0
C152 C 0.23661 0.48627 0.14818 0.0
C153 C 0.24662 0.44167 0.15351 0.0
C154 C 0.26436 0.44601 0.17991 0.0
C155 C 0.19772 0.38706 0.14598 0.0
C156 C 0.29125 0.45363 0.13785 0.0
C157 C 0.30446 0.49818 0.12578 0.0
C158 C 0.34386 0.51701 0.10997 0.0
C159 C 0.37115 0.48994 0.10663 0.0
C160 C 0.35868 0.44479 0.119 0.0
C161 C 0.3183 0.42613 0.13474 0.0
H162 H 0.72914 0.16424 0.46627 0.0
H163 H 0.72427 0.23583 0.53444 0.0
H164 H 0.80913 0.31617 0.52851 0.0
H165 H 0.87241 0.22016 0.46902 0.0
H166 H 0.8753 0.22993 0.43776 0.0
H167 H 0.81671 0.17641 0.4485 0.0
H168 H 0.76073 0.21174 0.42872 0.0
H169 H 0.81909 0.26555 0.41809 0.0
H170 H 0.77771 0.27947 0.436 0.0
H171 H 0.89179 0.39184 0.51362 0.0
H172 H 0.966 0.45489 0.49104 0.0
H173 H 0.91542 0.33331 0.43306 0.0
C174 C 0.74631 0.1963 0.4802 0.0
C175 C 0.72003 0.1935 0.50086 0.0
C176 C 0.74366 0.23686 0.51847 0.0
C177 C 0.79191 0.28273 0.51528 0.0
C178 C 0.81613 0.2846 0.49444 0.0
C179 C 0.79424 0.24235 0.47728 0.0
C180 C 0.82658 0.25521 0.45593 0.0
C181 C 0.84909 0.21823 0.45262 0.0
C182 C 0.79408 0.25286 0.43336 0.0
C183 C 0.86966 0.31156 0.46357 0.0
C184 C 0.86326 0.32789 0.48589 0.0
C185 C 0.89748 0.37929 0.49624 0.0
C186 C 0.93929 0.41477 0.48338 0.0
C187 C 0.94592 0.39831 0.46058 0.0
C188 C 0.91099 0.3463 0.45063 0.0
H189 H 0.63316 0.76711 0.80088 0.0
H190 H 0.54726 0.74963 0.8636 0.0
H191 H 0.57038 0.84316 0.86357 0.0
H192 H 0.73931 0.9033 0.8167 0.0
H193 H 0.74288 0.92192 0.7866 0.0
H194 H 0.72195 0.85422 0.79221 0.0
H195 H 0.63556 0.82165 0.76576 0.0
H196 H 0.65609 0.8892 0.76012 0.0
H197 H 0.59364 0.84822 0.77225 0.0
H198 H 0.59973 0.93715 0.8561 0.0
H199 H 0.63371 0.02627 0.84133 0.0
H200 H 0.69963 0.98306 0.78333 0.0
C201 C 0.6197 0.78308 0.81477 0.0
C202 C 0.5885 0.75098 0.83229 0.0
C203 C 0.57118 0.77334 0.84998 0.0
C204 C 0.58418 0.82648 0.85015 0.0
C205 C 0.61447 0.8568 0.83251 0.0
C206 C 0.63207 0.83604 0.81514 0.0
C207 C 0.6625 0.87675 0.79773 0.0
C208 C 0.72008 0.88982 0.79836 0.0
C209 C 0.63531 0.85781 0.77247 0.0
C210 C 0.65884 0.92347 0.80793 0.0
C211 C 0.63116 0.91111 0.82808 0.0
C212 C 0.6217 0.94742 0.84044 0.0
C213 C 0.64102 0.99773 0.83197 0.0
C214 C 0.66917 0.01087 0.81141 0.0
C215 C 0.67835 0.97357 0.79922 0.0
H216 H 0.81844 0.48749 0.14859 0.0
H217 H 0.9043 0.65981 0.15416 0.0
H218 H 0.82128 0.65853 0.14308 0.0
H219 H 0.73734 0.46742 0.09878 0.0
H220 H 0.67957 0.41052 0.1082 0.0
H221 H 0.74412 0.42524 0.11913 0.0
H222 H 0.71979 0.4275 0.16247 0.0
H223 H 0.65479 0.41226 0.15174 0.0
H224 H 0.69543 0.47044 0.17171 0.0
H225 H 0.73151 0.63736 0.12585 0.0
H226 H 0.6402 0.5983 0.10768 0.0
H227 H 0.61333 0.44016 0.11569 0.0
C228 C 0.81959 0.52499 0.14788 0.0
C229 C 0.86751 0.57378 0.15208 0.0
C230 C 0.86772 0.62207 0.15111 0.0
C231 C 0.82089 0.62166 0.1448 0.0
C232 C 0.77442 0.57265 0.14008 0.0
C233 C 0.77335 0.52523 0.14204 0.0
C234 C 0.71907 0.47786 0.13517 0.0
C235 C 0.72013 0.44326 0.11406 0.0
C236 C 0.69591 0.4451 0.15655 0.0
C237 C 0.69 0.5059 0.12815 0.0
C238 C 0.72248 0.56057 0.13111 0.0
C239 C 0.70543 0.59469 0.12394 0.0
C240 C 0.65383 0.57227 0.11354 0.0
C241 C 0.62008 0.51644 0.11061 0.0
C242 C 0.63825 0.48299 0.11822 0.0
H243 H 0.29858 0.90652 0.47738 0.0
H244 H 0.35635 0.84938 0.53399 0.0
H245 H 0.27517 0.76235 0.52825 0.0
H246 H 0.15183 0.82176 0.4896 0.0
H247 H 0.1323 0.81142 0.45826 0.0
H248 H 0.18936 0.87296 0.47023 0.0
H249 H 0.24622 0.85901 0.44031 0.0
H250 H 0.18975 0.79748 0.42843 0.0
H251 H 0.24851 0.79854 0.4396 0.0
H252 H 0.20151 0.67765 0.51008 0.0
H253 H 0.13746 0.60332 0.48264 0.0
H254 H 0.117 0.71383 0.441 0.0
C255 C 0.2932 0.87634 0.48917 0.0
C256 C 0.33412 0.88489 0.50601 0.0
C257 C 0.32586 0.84397 0.52084 0.0
C258 C 0.27959 0.79428 0.51785 0.0
C259 C 0.24113 0.7862 0.50033 0.0
C260 C 0.24669 0.82639 0.48659 0.0
C261 C 0.2019 0.80539 0.46733 0.0
C262 C 0.16676 0.8293 0.47162 0.0
C263 C 0.22288 0.81571 0.44247 0.0
C264 C 0.17306 0.74662 0.47125 0.0
C265 C 0.19588 0.73656 0.49059 0.0
C266 C 0.18179 0.68496 0.49543 0.0
C267 C 0.14479 0.64264 0.47966 0.0
C268 C 0.12161 0.65187 0.45929 0.0
C269 C 0.13422 0.7047 0.45599 0.0
H270 H 0.5142 0.37014 0.78538 0.0
H271 H 0.50612 0.35258 0.861 0.0
H272 H 0.52215 0.2776 0.85601 0.0
H273 H 0.45868 0.22728 0.76468 0.0
H274 H 0.50483 0.24386 0.74215 0.0
H275 H 0.48269 0.28893 0.75091 0.0
H276 H 0.57986 0.36427 0.76031 0.0
H277 H 0.60225 0.31941 0.75183 0.0
H278 H 0.62203 0.35445 0.78091 0.0
H279 H 0.54687 0.21054 0.84343 0.0
H280 H 0.58154 0.15803 0.82463 0.0
H281 H 0.58213 0.22567 0.75778 0.0
C282 C 0.51376 0.34902 0.80068 0.0
C283 C 0.50765 0.36594 0.82348 0.0
C284 C 0.50982 0.33933 0.84335 0.0
C285 C 0.51887 0.2968 0.84067 0.0
C286 C 0.52639 0.28201 0.81804 0.0
C287 C 0.52406 0.30736 0.79837 0.0
C288 C 0.54004 0.28831 0.77662 0.0
C289 C 0.49379 0.26043 0.75746 0.0
C290 C 0.58895 0.33435 0.76686 0.0
C291 C 0.55273 0.24916 0.78724 0.0
C292 C 0.54368 0.24543 0.81103 0.0
C293 C 0.55399 0.21302 0.82479 0.0
C294 C 0.57431 0.18381 0.81398 0.0
C295 C 0.58509 0.18786 0.78971 0.0
C296 C 0.57367 0.22085 0.77623 0.0
H297 H 0.52033 0.84826 0.52081 0.0
H298 H 0.65007 0.94242 0.47795 0.0
H299 H 0.68231 0.87967 0.48286 0.0
H300 H 0.59157 0.82244 0.56285 0.0
H301 H 0.53957 0.75567 0.56661 0.0
H302 H 0.5235 0.80411 0.55737 0.0
H303 H 0.46899 0.74237 0.52003 0.0
H304 H 0.48433 0.69331 0.52928 0.0
H305 H 0.49935 0.71753 0.50024 0.0
H306 H 0.7045 0.81072 0.49588 0.0
H307 H 0.71239 0.73953 0.51444 0.0
H308 H 0.56829 0.69262 0.54875 0.0
C309 C 0.5551 0.85544 0.51208 0.0
C310 C 0.58277 0.90035 0.49901 0.0
C311 C 0.62808 0.90812 0.48793 0.0
C312 C 0.64671 0.87277 0.49068 0.0
C313 C 0.61922 0.82978 0.50434 0.0
C314 C 0.57403 0.82079 0.51462 0.0
C315 C 0.55296 0.77355 0.52946 0.0
C316 C 0.55188 0.78996 0.55561 0.0
C317 C 0.49817 0.72906 0.51913 0.0
C318 C 0.59412 0.75797 0.5265 0.0
C319 C 0.63186 0.79053 0.51181 0.0
C320 C 0.67488 0.78474 0.50719 0.0
C321 C 0.67919 0.74454 0.51782 0.0
C322 C 0.64089 0.71128 0.53287 0.0
C323 C 0.59787 0.71782 0.5372 0.0
H324 H 0.72832 0.61365 0.87844 0.0
H325 H 0.73646 0.60736 0.80205 0.0
H326 H 0.82557 0.61885 0.80757 0.0
H327 H 0.87091 0.71343 0.89313 0.0
H328 H 0.87294 0.68202 0.9195 0.0
H329 H 0.81291 0.67961 0.90934 0.0
H330 H 0.76283 0.57681 0.9086 0.0
H331 H 0.82268 0.57878 0.91838 0.0
H332 H 0.78583 0.54025 0.89132 0.0
H333 H 0.90642 0.61629 0.8215 0.0
H334 H 0.9773 0.60948 0.8426 0.0
H335 H 0.91972 0.6262 0.91008 0.0
C336 C 0.74939 0.61586 0.8629 0.0
C337 C 0.72582 0.60953 0.83983 0.0
C338 C 0.75427 0.61258 0.81987 0.0
C339 C 0.80471 0.61894 0.82284 0.0
C340 C 0.82623 0.62342 0.84588 0.0
C341 C 0.79993 0.62319 0.86557 0.0
C342 C 0.83051 0.62643 0.88837 0.0
C343 C 0.84786 0.67848 0.90347 0.0
C344 C 0.79855 0.57766 0.90248 0.0
C345 C 0.8771 0.62615 0.87841 0.0
C346 C 0.87404 0.62451 0.8539 0.0
C347 C 0.91013 0.61918 0.84072 0.0
C348 C 0.95045 0.61557 0.85293 0.0
C349 C 0.95472 0.61781 0.87812 0.0
C350 C 0.9177 0.6239 0.89088 0.0
H351 H 0.22977 0.75232 0.15413 0.0
H352 H 0.11824 0.79489 0.17958 0.0
H353 H 0.19229 0.88266 0.19544 0.0
H354 H 0.31347 0.80129 0.2038 0.0
H355 H 0.37383 0.82494 0.1893 0.0
H356 H 0.31315 0.771 0.17523 0.0
H357 H 0.32572 0.82296 0.13786 0.0
H358 H 0.38699 0.87705 0.15172 0.0
H359 H 0.33592 0.88918 0.14089 0.0
H360 H 0.27783 0.95985 0.21348 0.0
H361 H 0.36747 0.01981 0.23242 0.0
H362 H 0.42222 0.92371 0.19712 0.0
C363 C 0.22082 0.78091 0.16214 0.0
C364 C 0.16821 0.76711 0.1653 0.0
C365 C 0.15824 0.80489 0.17674 0.0
C366 C 0.20007 0.85486 0.18577 0.0
C367 C 0.25158 0.86633 0.18326 0.0
C368 C 0.26207 0.8305 0.17159 0.0
C369 C 0.32042 0.84931 0.17398 0.0
C370 C 0.33078 0.80927 0.18632 0.0
C371 C 0.34363 0.86029 0.14966 0.0
C372 C 0.3409 0.90032 0.18957 0.0
C373 C 0.3008 0.91002 0.19434 0.0
C374 C 0.30963 0.95299 0.20961 0.0
C375 C 0.36059 0.98654 0.22047 0.0
C376 C 0.40201 0.97655 0.21628 0.0
C377 C 0.39187 0.93323 0.20031 0.0
H378 H 0.57026 0.24779 0.51992 0.0
H379 H 0.39986 0.14777 0.51292 0.0
H380 H 0.39193 0.22783 0.52033 0.0
H381 H 0.58012 0.33346 0.56669 0.0
H382 H 0.63441 0.39191 0.55615 0.0
H383 H 0.62549 0.32755 0.54818 0.0
H384 H 0.62339 0.34387 0.50355 0.0
H385 H 0.63234 0.40847 0.5114 0.0
H386 H 0.57687 0.3612 0.4916 0.0
H387 H 0.40463 0.31894 0.53349 0.0
H388 H 0.4362 0.41195 0.54866 0.0
H389 H 0.59793 0.4496 0.54486 0.0
C390 C 0.53117 0.24267 0.51972 0.0
C391 C 0.48561 0.1918 0.51611 0.0
C392 C 0.43519 0.18663 0.51566 0.0
C393 C 0.43042 0.23178 0.51984 0.0
C394 C 0.47648 0.28147 0.52385 0.0
C395 C 0.52584 0.28697 0.52342 0.0
C396 C 0.56947 0.34387 0.52904 0.0
C397 C 0.60438 0.34949 0.55134 0.0
C398 C 0.60245 0.36562 0.50762 0.0
C399 C 0.5372 0.3697 0.53355 0.0
C400 C 0.48362 0.33338 0.53042 0.0
C401 C 0.44644 0.34781 0.53551 0.0
C402 C 0.46465 0.40052 0.54418 0.0
C403 C 0.51943 0.43794 0.54751 0.0
C404 C 0.55585 0.42224 0.5418 0.0
H405 H 0.35168 0.56679 0.80843 0.0
H406 H 0.30878 0.43043 0.84861 0.0
H407 H 0.22972 0.43212 0.8606 0.0
H408 H 0.33159 0.63636 0.8484 0.0
H409 H 0.30486 0.66638 0.82951 0.0
H410 H 0.34709 0.64479 0.81782 0.0
H411 H 0.27537 0.58456 0.78449 0.0
H412 H 0.23305 0.60721 0.79556 0.0
H413 H 0.20989 0.53709 0.79203 0.0
H414 H 0.17076 0.46352 0.8763 0.0
H415 H 0.13198 0.5166 0.89109 0.0
H416 H 0.21421 0.63241 0.84056 0.0
C417 C 0.32368 0.53541 0.81854 0.0
C418 C 0.33507 0.4978 0.82723 0.0
C419 C 0.29942 0.45847 0.84127 0.0
C420 C 0.25473 0.45946 0.84825 0.0
C421 C 0.24633 0.49952 0.84065 0.0
C422 C 0.27919 0.53597 0.82553 0.0
C423 C 0.26691 0.57979 0.8227 0.0
C424 C 0.31548 0.63502 0.83006 0.0
C425 C 0.24498 0.57696 0.79718 0.0
C426 C 0.22475 0.56471 0.83992 0.0
C427 C 0.21246 0.51774 0.84978 0.0
C428 C 0.17885 0.49936 0.86815 0.0
C429 C 0.15739 0.52977 0.87657 0.0
C430 C 0.17028 0.57789 0.86669 0.0
C431 C 0.2035 0.59512 0.84801 0.0
H432 H 0.84929 0.36122 0.15918 0.0
H433 H 0.97109 0.37511 0.21008 0.0
H434 H 0.90424 0.29641 0.22865 0.0
H435 H 0.75027 0.3256 0.19942 0.0
H436 H 0.69686 0.27957 0.17839 0.0
H437 H 0.75461 0.33494 0.16813 0.0
H438 H 0.76838 0.27083 0.14026 0.0
H439 H 0.71017 0.21529 0.15013 0.0
H440 H 0.77213 0.21684 0.15238 0.0
H441 H 0.82285 0.2175 0.24261 0.0
H442 H 0.73413 0.1418 0.24908 0.0
H443 H 0.66649 0.18134 0.1896 0.0
C444 C 0.86224 0.34729 0.17397 0.0
C445 C 0.91566 0.37434 0.18306 0.0
C446 C 0.93053 0.35501 0.20268 0.0
C447 C 0.89278 0.31043 0.21343 0.0
C448 C 0.84029 0.28563 0.20439 0.0
C449 C 0.82512 0.30314 0.18497 0.0
C450 C 0.76611 0.27027 0.17894 0.0
C451 C 0.74048 0.30466 0.18137 0.0
C452 C 0.75347 0.2416 0.15395 0.0
C453 C 0.75035 0.23147 0.198 0.0
C454 C 0.79363 0.24097 0.21257 0.0
C455 C 0.78871 0.20978 0.23133 0.0
C456 C 0.73836 0.1672 0.23498 0.0
C457 C 0.69406 0.15672 0.22 0.0
C458 C 0.7 0.18935 0.20146 0.0
H459 H 0.08804 0.60226 0.0633 0.0
H460 H 0.93195 0.46437 0.06689 0.0
H461 H 0.91979 0.45434 0.02303 0.0
H462 H 0.05518 0.65651 0.01618 0.0
H463 H 0.11673 0.67994 0.00272 0.0
H464 H 0.11435 0.67341 0.03418 0.0
H465 H 0.15411 0.61228 0.03057 0.0
H466 H 0.1564 0.61846 0.99902 0.0
H467 H 0.12209 0.5536 0.01018 0.0
H468 H 0.92251 0.46359 0.97876 0.0
H469 H 0.93974 0.49186 0.93793 0.0
H470 H 0.09404 0.62307 0.96392 0.0
C471 C 0.05142 0.56956 0.05494 0.0
C472 C 0.01095 0.53408 0.06859 0.0
C473 C 0.96361 0.492 0.05684 0.0
C474 C 0.95638 0.4859 0.03193 0.0
C475 C -0.003 0.52192 0.01906 0.0
C476 C 0.04365 0.56281 0.0302 0.0
C477 C 0.08025 0.59771 0.01245 0.0
C478 C 0.0923 0.65528 0.01664 0.0
C479 C 0.13122 0.59535 0.0131 0.0
C480 C 0.04648 0.57083 0.98957 0.0
C481 C -0.00126 0.52695 0.99368 0.0
C482 C 0.95997 0.49754 0.97532 0.0
C483 C 0.97 0.51397 0.95223 0.0
C484 C 0.01836 0.55939 0.94776 0.0
C485 C 0.05723 0.58749 0.96669 0.0
H486 H 0.56055 0.02882 0.40422 0.0
H487 H 0.44433 0.07419 0.41833 0.0
H488 H 0.43805 0.08923 0.37611 0.0
H489 H 0.62645 0.12228 0.35994 0.0
H490 H 0.63577 0.07613 0.34155 0.0
H491 H 0.63335 0.07105 0.37317 0.0
H492 H 0.55733 0.97304 0.3663 0.0
H493 H 0.55996 0.97767 0.3347 0.0
H494 H 0.49877 0.95722 0.34806 0.0
H495 H 0.44326 0.09857 0.33252 0.0
H496 H 0.45311 0.09308 0.28954 0.0
H497 H 0.5639 0.03926 0.30298 0.0
C498 C 0.53388 0.04207 0.39846 0.0
C499 C 0.50302 0.05043 0.4147 0.0
C500 C 0.46828 0.06731 0.40631 0.0
C501 C 0.46469 0.07635 0.38235 0.0
C502 C 0.4959 0.06817 0.3669 0.0
C503 C 0.52942 0.05087 0.37451 0.0
C504 C 0.55653 0.04251 0.35392 0.0
C505 C 0.61659 0.08025 0.35736 0.0
C506 C 0.54227 0.98414 0.35055 0.0
C507 C 0.53249 0.05722 0.33352 0.0
C508 C 0.49817 0.07259 0.34152 0.0
C509 C 0.47003 0.08662 0.32604 0.0
C510 C 0.47586 0.08334 0.30167 0.0
C511 C 0.50919 0.06569 0.2929 0.0
C512 C 0.53879 0.05369 0.30916 0.0
H513 H 0.59469 0.59586 0.73392 0.0
H514 H 0.42576 0.49282 0.73705 0.0
H515 H 0.41328 0.49074 0.6935 0.0
H516 H 0.58942 0.67113 0.68494 0.0
H517 H 0.64512 0.67343 0.6718 0.0
H518 H 0.64062 0.67086 0.70345 0.0
H519 H 0.64924 0.58692 0.70188 0.0
H520 H 0.65425 0.58956 0.67032 0.0
H521 H 0.60419 0.52999 0.68208 0.0
H522 H 0.41929 0.4963 0.64961 0.0
H523 H 0.44417 0.50309 0.60821 0.0
H524 H 0.60929 0.6001 0.63348 0.0
C525 C 0.555 0.57342 0.72548 0.0
C526 C 0.51116 0.54475 0.73892 0.0
C527 C 0.45996 0.51507 0.72714 0.0
C528 C 0.45241 0.51394 0.70242 0.0
C529 C 0.49645 0.54253 0.6897 0.0
C530 C 0.5468 0.57139 0.70078 0.0
C531 C 0.58776 0.59527 0.68281 0.0
C532 C 0.61748 0.6563 0.68594 0.0
C533 C 0.6261 0.57415 0.68437 0.0
C534 C 0.55263 0.57457 0.65989 0.0
C535 C 0.50005 0.5449 0.66428 0.0
C536 C 0.46032 0.51969 0.64594 0.0
C537 C 0.47482 0.52368 0.6225 0.0
C538 C 0.52862 0.55224 0.6176 0.0
C539 C 0.5678 0.57897 0.63659 0.0
H540 H 0.57663 0.12519 0.60569 0.0
H541 H 0.52937 0.95844 0.59592 0.0
H542 H 0.54141 0.95635 0.6392 0.0
H543 H 0.67616 0.16177 0.65324 0.0
H544 H 0.66083 0.20661 0.66904 0.0
H545 H 0.64867 0.19512 0.63723 0.0
H546 H 0.55081 0.1673 0.64092 0.0
H547 H 0.56266 0.17865 0.67276 0.0
H548 H 0.5114 0.1149 0.65944 0.0
H549 H 0.56103 0.9729 0.68346 0.0
H550 H 0.58324 0.00641 0.72585 0.0
H551 H 0.61482 0.16118 0.70683 0.0
C552 C 0.56888 0.08826 0.61264 0.0
C553 C 0.55218 0.04203 0.59739 0.0
C554 C 0.54206 0.99437 0.60724 0.0
C555 C 0.54888 0.99276 0.63181 0.0
C556 C 0.56539 0.03901 0.64633 0.0
C557 C 0.57493 0.08577 0.63716 0.0
C558 C 0.59168 0.12967 0.6567 0.0
C559 C 0.64766 0.17602 0.65388 0.0
C560 C 0.55174 0.14873 0.6575 0.0
C561 C 0.59037 0.10033 0.67824 0.0
C562 C 0.57537 0.04815 0.67188 0.0
C563 C 0.57256 0.01361 0.68869 0.0
C564 C 0.58539 0.03297 0.71266 0.0
C565 C 0.60036 0.08617 0.71954 0.0
C566 C 0.60272 0.12009 0.70206 0.0
H567 H 0.56765 0.52112 0.92916 0.0
H568 H 0.45263 0.57147 0.92125 0.0
H569 H 0.43669 0.5601 0.96373 0.0
H570 H 0.49971 0.42151 0.96905 0.0
H571 H 0.55881 0.43567 0.98635 0.0
H572 H 0.56147 0.44841 0.95545 0.0
H573 H 0.63435 0.5465 0.96645 0.0
H574 H 0.63205 0.53402 0.99739 0.0
H575 H 0.62253 0.58656 0.98765 0.0
H576 H 0.43103 0.53963 0.00704 0.0
H577 H 0.44047 0.51719 0.04801 0.0
H578 H 0.56055 0.48262 0.02718 0.0
C579 C 0.53917 0.52992 0.93632 0.0
C580 C 0.5113 0.54707 0.92183 0.0
C581 C 0.4746 0.55843 0.932 0.0
C582 C 0.46515 0.55194 0.9561 0.0
C583 C 0.49303 0.5345 0.96981 0.0
C584 C 0.52963 0.52413 0.96031 0.0
C585 C 0.55474 0.50631 0.97881 0.0
C586 C 0.54295 0.44961 0.972 0.0
C587 C 0.61445 0.54571 0.98281 0.0
C588 C 0.52634 0.50793 0.00019 0.0
C589 C 0.49066 0.52399 0.99468 0.0
C590 C 0.45907 0.52731 0.01157 0.0
C591 C 0.46447 0.51426 0.03472 0.0
C592 C 0.50146 0.49857 0.04074 0.0
C593 C 0.53251 0.49527 0.02316 0.0
H594 H 0.08522 0.54511 0.25781 0.0
H595 H 0.04446 0.66743 0.25062 0.0
H596 H 0.04936 0.68132 0.29422 0.0
H597 H 0.00852 0.48783 0.30544 0.0
H598 H 0.05471 0.47355 0.32034 0.0
H599 H 0.05305 0.47658 0.28862 0.0
H600 H 0.1526 0.5479 0.29196 0.0
H601 H 0.15467 0.54489 0.32373 0.0
H602 H 0.17621 0.60759 0.31125 0.0
H603 H 0.05292 0.67795 0.33832 0.0
H604 H 0.05404 0.65676 0.38001 0.0
H605 H 0.09276 0.53697 0.35842 0.0
C606 C 0.07818 0.57545 0.26537 0.0
C607 C 0.06461 0.60528 0.25079 0.0
C608 C 0.0549 0.64404 0.26143 0.0
C609 C 0.05775 0.65238 0.28618 0.0
C610 C 0.0704 0.62169 0.30001 0.0
C611 C 0.08058 0.5841 0.29003 0.0
C612 C 0.09034 0.55432 0.30885 0.0
C613 C 0.04919 0.49454 0.30561 0.0
C614 C 0.14682 0.5643 0.30895 0.0
C615 C 0.08303 0.58036 0.33095 0.0
C616 C 0.07207 0.61947 0.32548 0.0
C617 C 0.06206 0.64783 0.34287 0.0
C618 C 0.06296 0.63565 0.36648 0.0
C619 C 0.07357 0.5953 0.37245 0.0
C620 C 0.08416 0.56774 0.3544 0.0
loop_
_geom_bond_atom_site_label_1
_geom_bond_atom_site_label_2
_geom_bond_distance
_geom_bond_site_symmetry_2
_ccdc_geom_bond_type
O0 Zn1 1.953 . S
O0 C16 1.225 . S
Zn1 O0 1.953 . S
Zn1 O2 1.949 . S
Zn1 O8 1.919 1_455 S
Zn1 O13 1.924 . S
O2 Zn1 1.949 . S
O2 Zn3 1.923 1_455 S
O2 Zn4 1.950 . S
O2 Zn5 1.945 . S
Zn3 O2 1.923 1_655 S
Zn3 O6 1.933 1_655 S
Zn3 O9 1.941 . S
Zn3 O10 1.965 . S
Zn4 O2 1.950 . S
Zn4 O11 1.938 1_455 S
Zn4 O12 1.906 . S
Zn4 O22 1.953 . S
Zn5 O2 1.945 . S
Zn5 O7 1.932 . S
Zn5 O14 1.977 . S
Zn5 O15 1.910 . S
O6 Zn3 1.933 1_455 S
O6 C17 1.226 . S
O7 Zn5 1.932 . S
O7 C17 1.307 . S
O8 Zn1 1.919 1_655 S
O8 C19 1.253 . S
O9 Zn3 1.941 . S
O9 C19 1.283 . S
O10 Zn3 1.965 . S
O10 C18 1.303 . S
O11 Zn4 1.938 1_655 S
O11 C18 1.247 . S
O12 Zn4 1.906 . S
O12 C20 1.304 . S
O13 Zn1 1.924 . S
O13 C21 1.311 . S
O14 Zn5 1.977 . S
O14 C20 1.272 . S
O15 Zn5 1.910 . S
O15 C21 1.231 . S
C16 O0 1.225 . S
C16 O22 1.298 . S
C17 O6 1.226 . S
C17 O7 1.307 . S
C18 O10 1.303 . S
C18 O11 1.247 . S
C19 O8 1.253 . S
C19 O9 1.283 . S
C20 O12 1.304 . S
C20 O14 1.272 . S
C21 O13 1.311 . S
C21 O15 1.231 . S
O22 Zn4 1.953 . S
O22 C16 1.298 . S
O23 Zn24 1.953 . S
O23 C39 1.225 . S
Zn24 O23 1.953 . S
Zn24 O25 1.949 . S
Zn24 O31 1.919 . S
Zn24 O36 1.924 . S
O25 Zn24 1.949 . S
O25 Zn26 1.923 . S
O25 Zn27 1.950 . S
O25 Zn28 1.945 1_545 S
Zn26 O25 1.923 . S
Zn26 O29 1.933 . S
Zn26 O32 1.941 . S
Zn26 O33 1.965 . S
Zn27 O25 1.950 . S
Zn27 O34 1.938 . S
Zn27 O35 1.906 1_545 S
Zn27 O45 1.953 . S
Zn28 O25 1.945 1_565 S
Zn28 O30 1.932 1_565 S
Zn28 O37 1.977 . S
Zn28 O38 1.910 . S
O29 Zn26 1.933 . S
O29 C40 1.226 . S
O30 Zn28 1.932 1_545 S
O30 C40 1.307 . S
O31 Zn24 1.919 . S
O31 C42 1.253 . S
O32 Zn26 1.941 . S
O32 C42 1.283 . S
O33 Zn26 1.965 . S
O33 C41 1.303 . S
O34 Zn27 1.938 . S
O34 C41 1.247 . S
O35 Zn27 1.906 1_565 S
O35 C43 1.304 . S
O36 Zn24 1.924 . S
O36 C44 1.311 1_545 S
O37 Zn28 1.977 . S
O37 C43 1.272 . S
O38 Zn28 1.910 . S
O38 C44 1.231 . S
C39 O23 1.225 . S
C39 O45 1.298 . S
C40 O29 1.226 . S
C40 O30 1.307 . S
C41 O33 1.303 . S
C41 O34 1.247 . S
C42 O31 1.253 . S
C42 O32 1.283 . S
C43 O35 1.304 . S
C43 O37 1.272 . S
C44 O36 1.311 1_565 S
C44 O38 1.231 . S
O45 Zn27 1.953 . S
O45 C39 1.298 . S
O46 Zn47 1.953 . S
O46 C62 1.225 . S
Zn47 O46 1.953 . S
Zn47 O48 1.949 . S
Zn47 O54 1.919 . S
Zn47 O59 1.924 . S
O48 Zn47 1.949 . S
O48 Zn49 1.923 . S
O48 Zn50 1.950 . S
O48 Zn51 1.945 . S
Zn49 O48 1.923 . S
Zn49 O52 1.933 . S
Zn49 O55 1.941 . S
Zn49 O56 1.965 . S
Zn50 O48 1.950 . S
Zn50 O57 1.938 . S
Zn50 O58 1.906 . S
Zn50 O68 1.953 . S
Zn51 O48 1.945 . S
Zn51 O53 1.932 . S
Zn51 O60 1.977 . S
Zn51 O61 1.910 . S
O52 Zn49 1.933 . S
O52 C63 1.226 . S
O53 Zn51 1.932 . S
O53 C63 1.307 . S
O54 Zn47 1.919 . S
O54 C65 1.253 . S
O55 Zn49 1.941 . S
O55 C65 1.283 . S
O56 Zn49 1.965 . S
O56 C64 1.303 . S
O57 Zn50 1.938 . S
O57 C64 1.247 . S
O58 Zn50 1.906 . S
O58 C66 1.304 . S
O59 Zn47 1.924 . S
O59 C67 1.311 . S
O60 Zn51 1.977 . S
O60 C66 1.272 . S
O61 Zn51 1.910 . S
O61 C67 1.231 . S
C62 O46 1.225 . S
C62 O68 1.298 . S
C63 O52 1.226 . S
C63 O53 1.307 . S
C64 O56 1.303 . S
C64 O57 1.247 . S
C65 O54 1.253 . S
C65 O55 1.283 . S
C66 O58 1.304 . S
C66 O60 1.272 . S
C67 O59 1.311 . S
C67 O61 1.231 . S
O68 Zn50 1.953 . S
O68 C62 1.298 . S
H69 C72 0.925 1_565 S
H70 C75 0.929 . S
H71 C77 0.930 . S
C72 H69 0.925 1_545 S
C72 C73 1.398 . S
C72 C74 1.396 . S
C73 C72 1.398 . S
C73 C77 1.407 . S
C74 C72 1.396 . S
C74 C75 1.394 . S
C75 H70 0.929 . S
C75 C74 1.394 . S
C75 C76 1.382 . S
C76 C75 1.382 . S
C76 C77 1.392 . S
C76 N78 1.420 . S
C77 H71 0.930 . S
C77 C73 1.407 . S
C77 C76 1.392 . S
N78 C76 1.420 . S
N78 C79 1.244 . S
C79 N78 1.244 . S
H80 C83 0.929 . S
H81 C86 0.929 . S
H82 C88 0.930 . S
C83 H80 0.929 . S
C83 C84 1.398 . S
C83 C85 1.396 . S
C84 C83 1.398 . S
C84 C88 1.407 . S
C85 C83 1.396 . S
C85 C86 1.394 . S
C86 H81 0.929 . S
C86 C85 1.394 . S
C86 C87 1.382 . S
C87 C86 1.382 . S
C87 C88 1.392 . S
C87 N89 1.420 . S
C88 H82 0.930 . S
C88 C84 1.407 . S
C88 C87 1.392 . S
N89 C87 1.420 . S
N89 C90 1.244 . S
C90 N89 1.244 . S
H91 C94 0.929 1_655 S
H92 C97 0.929 . S
H93 C99 0.930 . S
C94 H91 0.929 1_455 S
C94 C95 1.398 . S
C94 C96 1.396 . S
C95 C94 1.398 . S
C95 C99 1.407 . S
C96 C94 1.396 . S
C96 C97 1.394 . S
C97 H92 0.929 . S
C97 C96 1.394 . S
C97 C98 1.382 . S
C98 C97 1.382 . S
C98 C99 1.392 . S
C98 N100 1.420 . S
C99 H93 0.930 . S
C99 C95 1.407 . S
C99 C98 1.392 . S
N100 C98 1.420 . S
N100 C101 1.244 . S
C101 N100 1.244 . S
H102 C105 0.929 . S
H103 C108 0.929 1_655 S
H104 C110 0.930 . S
C105 H102 0.929 . S
C105 C106 1.398 . S
C105 C107 1.396 . S
C106 C105 1.398 . S
C106 C110 1.407 . S
C107 C105 1.396 . S
C107 C108 1.394 . S
C108 H103 0.929 1_455 S
C108 C107 1.394 . S
C108 C109 1.382 . S
C109 C108 1.382 . S
C109 C110 1.392 . S
C109 N111 1.420 1_455 S
C110 H104 0.930 . S
C110 C106 1.407 . S
C110 C109 1.392 . S
N111 C109 1.420 1_655 S
N111 C112 1.244 . S
C112 N111 1.244 . S
H113 C116 0.929 . S
H114 C119 0.929 1_565 S
H115 C121 0.930 . S
C116 H113 0.929 . S
C116 C117 1.398 . S
C116 C118 1.396 . S
C117 C116 1.398 . S
C117 C121 1.407 . S
C118 C116 1.396 . S
C118 C119 1.394 . S
C119 H114 0.929 1_545 S
C119 C118 1.394 . S
C119 C120 1.382 . S
C120 C119 1.382 . S
C120 C121 1.392 . S
C120 N122 1.420 1_545 S
C121 H115 0.930 . S
C121 C117 1.407 . S
C121 C120 1.392 . S
N122 C120 1.420 1_565 S
N122 C123 1.244 . S
C123 N122 1.244 . S
H124 C127 0.929 . S
H125 C130 0.929 . S
H126 C132 0.930 . S
C127 H124 0.929 . S
C127 C128 1.398 . S
C127 C129 1.396 . S
C128 C127 1.398 . S
C128 C132 1.407 . S
C129 C127 1.396 . S
C129 C130 1.394 . S
C130 H125 0.929 . S
C130 C129 1.394 . S
C130 C131 1.382 . S
C131 C130 1.382 . S
C131 C132 1.392 . S
C131 N133 1.420 . S
C132 H126 0.930 . S
C132 C128 1.407 . S
C132 C131 1.392 . S
N133 C131 1.420 . S
N133 C134 1.244 . S
C134 N133 1.244 . S
H135 C147 0.930 . S
H136 C149 0.930 . S
H137 C150 0.930 . S
H138 C154 0.959 . S
H139 C154 0.959 . S
H140 C154 0.961 . S
H141 C155 0.960 . S
H142 C155 0.961 . S
H143 C155 0.959 . S
H144 C158 0.929 . S
H145 C159 0.931 . S
H146 C161 0.930 . S
C147 H135 0.930 . S
C147 C148 1.399 . S
C147 C152 1.399 . S
C148 C147 1.399 . S
C148 C149 1.376 . S
C149 H136 0.930 . S
C149 C148 1.376 . S
C149 C150 1.388 . S
C150 H137 0.930 . S
C150 C149 1.388 . S
C150 C151 1.390 . S
C151 C150 1.390 . S
C151 C152 1.394 . S
C151 C157 1.465 . S
C152 C147 1.399 . S
C152 C151 1.394 . S
C152 C153 1.516 . S
C153 C152 1.516 . S
C153 C154 1.502 . S
C153 C155 1.561 . S
C153 C156 1.526 . S
C154 H138 0.959 . S
C154 H139 0.959 . S
C154 H140 0.961 . S
C154 C153 1.502 . S
C155 H141 0.960 . S
C155 H142 0.961 . S
C155 H143 0.959 . S
C155 C153 1.561 . S
C156 C153 1.526 . S
C156 C157 1.396 . S
C156 C161 1.390 . S
C157 C151 1.465 . S
C157 C156 1.396 . S
C157 C158 1.399 . S
C158 H144 0.929 . S
C158 C157 1.399 . S
C158 C159 1.385 . S
C159 H145 0.931 . S
C159 C158 1.385 . S
C159 C160 1.389 . S
C160 C159 1.389 . S
C160 C161 1.387 . S
C161 H146 0.930 . S
C161 C156 1.390 . S
C161 C160 1.387 . S
H162 C174 0.930 . S
H163 C176 0.930 . S
H164 C177 0.930 . S
H165 C181 0.959 . S
H166 C181 0.959 . S
H167 C181 0.961 . S
H168 C182 0.960 . S
H169 C182 0.961 . S
H170 C182 0.959 . S
H171 C185 0.929 . S
H172 C186 0.931 . S
H173 C188 0.930 . S
C174 H162 0.930 . S
C174 C175 1.399 . S
C174 C179 1.399 . S
C175 C174 1.399 . S
C175 C176 1.376 . S
C176 H163 0.930 . S
C176 C175 1.376 . S
C176 C177 1.388 . S
C177 H164 0.930 . S
C177 C176 1.388 . S
C177 C178 1.390 . S
C178 C177 1.390 . S
C178 C179 1.394 . S
C178 C184 1.465 . S
C179 C174 1.399 . S
C179 C178 1.394 . S
C179 C180 1.516 . S
C180 C179 1.516 . S
C180 C181 1.502 . S
C180 C182 1.561 . S
C180 C183 1.526 . S
C181 H165 0.959 . S
C181 H166 0.959 . S
C181 H167 0.961 . S
C181 C180 1.502 . S
C182 H168 0.960 . S
C182 H169 0.961 . S
C182 H170 0.959 . S
C182 C180 1.561 . S
C183 C180 1.526 . S
C183 C184 1.396 . S
C183 C188 1.390 . S
C184 C178 1.465 . S
C184 C183 1.396 . S
C184 C185 1.399 . S
C185 H171 0.929 . S
C185 C184 1.399 . S
C185 C186 1.385 . S
C186 H172 0.931 . S
C186 C185 1.385 . S
C186 C187 1.389 . S
C187 C186 1.389 . S
C187 C188 1.387 . S
C188 H173 0.930 . S
C188 C183 1.390 . S
C188 C187 1.387 . S
H189 C201 0.930 . S
H190 C203 0.930 . S
H191 C204 0.930 . S
H192 C208 0.959 . S
H193 C208 0.959 . S
H194 C208 0.961 . S
H195 C209 0.960 . S
H196 C209 0.961 . S
H197 C209 0.959 . S
H198 C212 0.929 . S
H199 C213 0.931 . S
H200 C215 0.930 . S
C201 H189 0.930 . S
C201 C202 1.399 . S
C201 C206 1.399 . S
C202 C201 1.399 . S
C202 C203 1.376 . S
C203 H190 0.930 . S
C203 C202 1.376 . S
C203 C204 1.388 . S
C204 H191 0.930 . S
C204 C203 1.388 . S
C204 C205 1.390 . S
C205 C204 1.390 . S
C205 C206 1.394 . S
C205 C211 1.465 . S
C206 C201 1.399 . S
C206 C205 1.394 . S
C206 C207 1.516 . S
C207 C206 1.516 . S
C207 C208 1.502 . S
C207 C209 1.561 . S
C207 C210 1.526 . S
C208 H192 0.959 . S
C208 H193 0.959 . S
C208 H194 0.961 . S
C208 C207 1.502 . S
C209 H195 0.960 . S
C209 H196 0.961 . S
C209 H197 0.959 . S
C209 C207 1.561 . S
C210 C207 1.526 . S
C210 C211 1.396 . S
C210 C215 1.390 . S
C211 C205 1.465 . S
C211 C210 1.396 . S
C211 C212 1.399 . S
C212 H198 0.929 . S
C212 C211 1.399 . S
C212 C213 1.385 . S
C213 H199 0.931 . S
C213 C212 1.385 . S
C213 C214 1.389 . S
C214 C213 1.389 . S
C214 C215 1.387 . S
C215 H200 0.930 . S
C215 C210 1.390 . S
C215 C214 1.387 . S
H216 C228 0.930 . S
H217 C230 0.930 . S
H218 C231 0.930 . S
H219 C235 0.959 . S
H220 C235 0.959 . S
H221 C235 0.961 . S
H222 C236 0.960 . S
H223 C236 0.961 . S
H224 C236 0.959 . S
H225 C239 0.929 . S
H226 C240 0.931 . S
H227 C242 0.930 . S
C228 H216 0.930 . S
C228 C229 1.399 . S
C228 C233 1.399 . S
C229 C228 1.399 . S
C229 C230 1.376 . S
C230 H217 0.930 . S
C230 C229 1.376 . S
C230 C231 1.388 . S
C231 H218 0.930 . S
C231 C230 1.388 . S
C231 C232 1.390 . S
C232 C231 1.390 . S
C232 C233 1.394 . S
C232 C238 1.465 . S
C233 C228 1.399 . S
C233 C232 1.394 . S
C233 C234 1.516 . S
C234 C233 1.516 . S
C234 C235 1.502 . S
C234 C236 1.561 . S
C234 C237 1.526 . S
C235 H219 0.959 . S
C235 H220 0.959 . S
C235 H221 0.961 . S
C235 C234 1.502 . S
C236 H222 0.960 . S
C236 H223 0.961 . S
C236 H224 0.959 . S
C236 C234 1.561 . S
C237 C234 1.526 . S
C237 C238 1.396 . S
C237 C242 1.390 . S
C238 C232 1.465 . S
C238 C237 1.396 . S
C238 C239 1.399 . S
C239 H225 0.929 . S
C239 C238 1.399 . S
C239 C240 1.385 . S
C240 H226 0.931 . S
C240 C239 1.385 . S
C240 C241 1.389 . S
C241 C240 1.389 . S
C241 C242 1.387 . S
C242 H227 0.930 . S
C242 C237 1.390 . S
C242 C241 1.387 . S
H243 C255 0.930 . S
H244 C257 0.930 . S
H245 C258 0.930 . S
H246 C262 0.959 . S
H247 C262 0.959 . S
H248 C262 0.961 . S
H249 C263 0.960 . S
H250 C263 0.961 . S
H251 C263 0.959 . S
H252 C266 0.929 . S
H253 C267 0.931 . S
H254 C269 0.930 . S
C255 H243 0.930 . S
C255 C256 1.399 . S
C255 C260 1.399 . S
C256 C255 1.399 . S
C256 C257 1.376 . S
C257 H244 0.930 . S
C257 C256 1.376 . S
C257 C258 1.388 . S
C258 H245 0.930 . S
C258 C257 1.388 . S
C258 C259 1.390 . S
C259 C258 1.390 . S
C259 C260 1.394 . S
C259 C265 1.465 . S
C260 C255 1.399 . S
C260 C259 1.394 . S
C260 C261 1.516 . S
C261 C260 1.516 . S
C261 C262 1.502 . S
C261 C263 1.561 . S
C261 C264 1.526 . S
C262 H246 0.959 . S
C262 H247 0.959 . S
C262 H248 0.961 . S
C262 C261 1.502 . S
C263 H249 0.960 . S
C263 H250 0.961 . S
C263 H251 0.959 . S
C263 C261 1.561 . S
C264 C261 1.526 . S
C264 C265 1.396 . S
C264 C269 1.390 . S
C265 C259 1.465 . S
C265 C264 1.396 . S
C265 C266 1.399 . S
C266 H252 0.929 . S
C266 C265 1.399 . S
C266 C267 1.385 . S
C267 H253 0.931 . S
C267 C266 1.385 . S
C267 C268 1.389 . S
C268 C267 1.389 . S
C268 C269 1.387 . S
C269 H254 0.930 . S
C269 C264 1.390 . S
C269 C268 1.387 . S
H270 C282 0.930 . S
H271 C284 0.930 . S
H272 C285 0.930 . S
H273 C289 0.959 . S
H274 C289 0.959 . S
H275 C289 0.961 . S
H276 C290 0.960 . S
H277 C290 0.961 . S
H278 C290 0.959 . S
H279 C293 0.929 . S
H280 C294 0.931 . S
H281 C296 0.930 . S
C282 H270 0.930 . S
C282 C283 1.399 . S
C282 C287 1.399 . S
C283 C282 1.399 . S
C283 C284 1.376 . S
C284 H271 0.930 . S
C284 C283 1.376 . S
C284 C285 1.388 . S
C285 H272 0.930 . S
C285 C284 1.388 . S
C285 C286 1.390 . S
C286 C285 1.390 . S
C286 C287 1.394 . S
C286 C292 1.465 . S
C287 C282 1.399 . S
C287 C286 1.394 . S
C287 C288 1.516 . S
C288 C287 1.516 . S
C288 C289 1.502 . S
C288 C290 1.561 . S
C288 C291 1.526 . S
C289 H273 0.959 . S
C289 H274 0.959 . S
C289 H275 0.961 . S
C289 C288 1.502 . S
C290 H276 0.960 . S
C290 H277 0.961 . S
C290 H278 0.959 . S
C290 C288 1.561 . S
C291 C288 1.526 . S
C291 C292 1.396 . S
C291 C296 1.390 . S
C292 C286 1.465 . S
C292 C291 1.396 . S
C292 C293 1.399 . S
C293 H279 0.929 . S
C293 C292 1.399 . S
C293 C294 1.385 . S
C294 H280 0.931 . S
C294 C293 1.385 . S
C294 C295 1.389 . S
C295 C294 1.389 . S
C295 C296 1.387 . S
C296 H281 0.930 . S
C296 C291 1.390 . S
C296 C295 1.387 . S
H297 C309 0.930 . S
H298 C311 0.930 . S
H299 C312 0.930 . S
H300 C316 0.959 . S
H301 C316 0.959 . S
H302 C316 0.961 . S
H303 C317 0.960 . S
H304 C317 0.961 . S
H305 C317 0.959 . S
H306 C320 0.929 . S
H307 C321 0.931 . S
H308 C323 0.930 . S
C309 H297 0.930 . S
C309 C310 1.399 . S
C309 C314 1.399 . S
C310 C309 1.399 . S
C310 C311 1.376 . S
C311 H298 0.930 . S
C311 C310 1.376 . S
C311 C312 1.388 . S
C312 H299 0.930 . S
C312 C311 1.388 . S
C312 C313 1.390 . S
C313 C312 1.390 . S
C313 C314 1.394 . S
C313 C319 1.465 . S
C314 C309 1.399 . S
C314 C313 1.394 . S
C314 C315 1.516 . S
C315 C314 1.516 . S
C315 C316 1.502 . S
C315 C317 1.561 . S
C315 C318 1.526 . S
C316 H300 0.959 . S
C316 H301 0.959 . S
C316 H302 0.961 . S
C316 C315 1.502 . S
C317 H303 0.960 . S
C317 H304 0.961 . S
C317 H305 0.959 . S
C317 C315 1.561 . S
C318 C315 1.526 . S
C318 C319 1.396 . S
C318 C323 1.390 . S
C319 C313 1.465 . S
C319 C318 1.396 . S
C319 C320 1.399 . S
C320 H306 0.929 . S
C320 C319 1.399 . S
C320 C321 1.385 . S
C321 H307 0.931 . S
C321 C320 1.385 . S
C321 C322 1.389 . S
C322 C321 1.389 . S
C322 C323 1.387 . S
C323 H308 0.930 . S
C323 C318 1.390 . S
C323 C322 1.387 . S
H324 C336 0.930 . S
H325 C338 0.930 . S
H326 C339 0.930 . S
H327 C343 0.959 . S
H328 C343 0.959 . S
H329 C343 0.961 . S
H330 C344 0.960 . S
H331 C344 0.961 . S
H332 C344 0.959 . S
H333 C347 0.929 . S
H334 C348 0.931 . S
H335 C350 0.930 . S
C336 H324 0.930 . S
C336 C337 1.399 . S
C336 C341 1.399 . S
C337 C336 1.399 . S
C337 C338 1.376 . S
C338 H325 0.930 . S
C338 C337 1.376 . S
C338 C339 1.388 . S
C339 H326 0.930 . S
C339 C338 1.388 . S
C339 C340 1.390 . S
C340 C339 1.390 . S
C340 C341 1.394 . S
C340 C346 1.465 . S
C341 C336 1.399 . S
C341 C340 1.394 . S
C341 C342 1.516 . S
C342 C341 1.516 . S
C342 C343 1.502 . S
C342 C344 1.561 . S
C342 C345 1.526 . S
C343 H327 0.959 . S
C343 H328 0.959 . S
C343 H329 0.961 . S
C343 C342 1.502 . S
C344 H330 0.960 . S
C344 H331 0.961 . S
C344 H332 0.959 . S
C344 C342 1.561 . S
C345 C342 1.526 . S
C345 C346 1.396 . S
C345 C350 1.390 . S
C346 C340 1.465 . S
C346 C345 1.396 . S
C346 C347 1.399 . S
C347 H333 0.929 . S
C347 C346 1.399 . S
C347 C348 1.385 . S
C348 H334 0.931 . S
C348 C347 1.385 . S
C348 C349 1.389 . S
C349 C348 1.389 . S
C349 C350 1.387 . S
C350 H335 0.930 . S
C350 C345 1.390 . S
C350 C349 1.387 . S
H351 C363 0.930 . S
H352 C365 0.930 . S
H353 C366 0.930 . S
H354 C370 0.959 . S
H355 C370 0.959 . S
H356 C370 0.961 . S
H357 C371 0.960 . S
H358 C371 0.961 . S
H359 C371 0.959 . S
H360 C374 0.929 . S
H361 C375 0.931 . S
H362 C377 0.930 . S
C363 H351 0.930 . S
C363 C364 1.399 . S
C363 C368 1.399 . S
C364 C363 1.399 . S
C364 C365 1.376 . S
C365 H352 0.930 . S
C365 C364 1.376 . S
C365 C366 1.388 . S
C366 H353 0.930 . S
C366 C365 1.388 . S
C366 C367 1.390 . S
C367 C366 1.390 . S
C367 C368 1.394 . S
C367 C373 1.465 . S
C368 C363 1.399 . S
C368 C367 1.394 . S
C368 C369 1.516 . S
C369 C368 1.516 . S
C369 C370 1.502 . S
C369 C371 1.561 . S
C369 C372 1.526 . S
C370 H354 0.959 . S
C370 H355 0.959 . S
C370 H356 0.961 . S
C370 C369 1.502 . S
C371 H357 0.960 . S
C371 H358 0.961 . S
C371 H359 0.959 . S
C371 C369 1.561 . S
C372 C369 1.526 . S
C372 C373 1.396 . S
C372 C377 1.390 . S
C373 C367 1.465 . S
C373 C372 1.396 . S
C373 C374 1.399 . S
C374 H360 0.929 . S
C374 C373 1.399 . S
C374 C375 1.385 . S
C375 H361 0.931 . S
C375 C374 1.385 . S
C375 C376 1.389 . S
C376 C375 1.389 . S
C376 C377 1.387 . S
C377 H362 0.930 . S
C377 C372 1.390 . S
C377 C376 1.387 . S
H378 C390 0.930 . S
H379 C392 0.930 . S
H380 C393 0.930 . S
H381 C397 0.959 . S
H382 C397 0.959 . S
H383 C397 0.961 . S
H384 C398 0.960 . S
H385 C398 0.961 . S
H386 C398 0.959 . S
H387 C401 0.929 . S
H388 C402 0.931 . S
H389 C404 0.930 . S
C390 H378 0.930 . S
C390 C391 1.399 . S
C390 C395 1.399 . S
C391 C390 1.399 . S
C391 C392 1.376 . S
C392 H379 0.930 . S
C392 C391 1.376 . S
C392 C393 1.388 . S
C393 H380 0.930 . S
C393 C392 1.388 . S
C393 C394 1.390 . S
C394 C393 1.390 . S
C394 C395 1.394 . S
C394 C400 1.465 . S
C395 C390 1.399 . S
C395 C394 1.394 . S
C395 C396 1.516 . S
C396 C395 1.516 . S
C396 C397 1.502 . S
C396 C398 1.561 . S
C396 C399 1.526 . S
C397 H381 0.959 . S
C397 H382 0.959 . S
C397 H383 0.961 . S
C397 C396 1.502 . S
C398 H384 0.960 . S
C398 H385 0.961 . S
C398 H386 0.959 . S
C398 C396 1.561 . S
C399 C396 1.526 . S
C399 C400 1.396 . S
C399 C404 1.390 . S
C400 C394 1.465 . S
C400 C399 1.396 . S
C400 C401 1.399 . S
C401 H387 0.929 . S
C401 C400 1.399 . S
C401 C402 1.385 . S
C402 H388 0.931 . S
C402 C401 1.385 . S
C402 C403 1.389 . S
C403 C402 1.389 . S
C403 C404 1.387 . S
C404 H389 0.930 . S
C404 C399 1.390 . S
C404 C403 1.387 . S
H405 C417 0.930 . S
H406 C419 0.930 . S
H407 C420 0.930 . S
H408 C424 0.959 . S
H409 C424 0.959 . S
H410 C424 0.961 . S
H411 C425 0.960 . S
H412 C425 0.961 . S
H413 C425 0.959 . S
H414 C428 0.929 . S
H415 C429 0.931 . S
H416 C431 0.930 . S
C417 H405 0.930 . S
C417 C418 1.399 . S
C417 C422 1.399 . S
C418 C417 1.399 . S
C418 C419 1.376 . S
C419 H406 0.930 . S
C419 C418 1.376 . S
C419 C420 1.388 . S
C420 H407 0.930 . S
C420 C419 1.388 . S
C420 C421 1.390 . S
C421 C420 1.390 . S
C421 C422 1.394 . S
C421 C427 1.465 . S
C422 C417 1.399 . S
C422 C421 1.394 . S
C422 C423 1.516 . S
C423 C422 1.516 . S
C423 C424 1.502 . S
C423 C425 1.561 . S
C423 C426 1.526 . S
C424 H408 0.959 . S
C424 H409 0.959 . S
C424 H410 0.961 . S
C424 C423 1.502 . S
C425 H411 0.960 . S
C425 H412 0.961 . S
C425 H413 0.959 . S
C425 C423 1.561 . S
C426 C423 1.526 . S
C426 C427 1.396 . S
C426 C431 1.390 . S
C427 C421 1.465 . S
C427 C426 1.396 . S
C427 C428 1.399 . S
C428 H414 0.929 . S
C428 C427 1.399 . S
C428 C429 1.385 . S
C429 H415 0.931 . S
C429 C428 1.385 . S
C429 C430 1.389 . S
C430 C429 1.389 . S
C430 C431 1.387 . S
C431 H416 0.930 . S
C431 C426 1.390 . S
C431 C430 1.387 . S
H432 C444 0.930 . S
H433 C446 0.930 . S
H434 C447 0.930 . S
H435 C451 0.959 . S
H436 C451 0.959 . S
H437 C451 0.961 . S
H438 C452 0.960 . S
H439 C452 0.961 . S
H440 C452 0.959 . S
H441 C455 0.929 . S
H442 C456 0.931 . S
H443 C458 0.930 . S
C444 H432 0.930 . S
C444 C445 1.399 . S
C444 C449 1.399 . S
C445 C444 1.399 . S
C445 C446 1.376 . S
C446 H433 0.930 . S
C446 C445 1.376 . S
C446 C447 1.388 . S
C447 H434 0.930 . S
C447 C446 1.388 . S
C447 C448 1.390 . S
C448 C447 1.390 . S
C448 C449 1.394 . S
C448 C454 1.465 . S
C449 C444 1.399 . S
C449 C448 1.394 . S
C449 C450 1.516 . S
C450 C449 1.516 . S
C450 C451 1.502 . S
C450 C452 1.561 . S
C450 C453 1.526 . S
C451 H435 0.959 . S
C451 H436 0.959 . S
C451 H437 0.961 . S
C451 C450 1.502 . S
C452 H438 0.960 . S
C452 H439 0.961 . S
C452 H440 0.959 . S
C452 C450 1.561 . S
C453 C450 1.526 . S
C453 C454 1.396 . S
C453 C458 1.390 . S
C454 C448 1.465 . S
C454 C453 1.396 . S
C454 C455 1.399 . S
C455 H441 0.929 . S
C455 C454 1.399 . S
C455 C456 1.385 . S
C456 H442 0.931 . S
C456 C455 1.385 . S
C456 C457 1.389 . S
C457 C456 1.389 . S
C457 C458 1.387 . S
C458 H443 0.930 . S
C458 C453 1.390 . S
C458 C457 1.387 . S
H459 C471 0.930 . S
H460 C473 0.930 . S
H461 C474 0.930 . S
H462 C478 0.959 . S
H463 C478 0.959 . S
H464 C478 0.961 . S
H465 C479 0.960 . S
H466 C479 0.961 . S
H467 C479 0.959 . S
H468 C482 0.929 . S
H469 C483 0.931 1_655 S
H470 C485 0.930 . S
C471 H459 0.930 . S
C471 C472 1.399 . S
C471 C476 1.399 . S
C472 C471 1.399 . S
C472 C473 1.376 1_455 S
C473 H460 0.930 . S
C473 C472 1.376 1_655 S
C473 C474 1.388 . S
C474 H461 0.930 . S
C474 C473 1.388 . S
C474 C475 1.390 1_655 S
C475 C474 1.390 1_455 S
C475 C476 1.394 . S
C475 C481 1.465 . S
C476 C471 1.399 . S
C476 C475 1.394 . S
C476 C477 1.516 . S
C477 C476 1.516 . S
C477 C478 1.502 . S
C477 C479 1.561 . S
C477 C480 1.526 1_554 S
C478 H462 0.959 . S
C478 H463 0.959 . S
C478 H464 0.961 . S
C478 C477 1.502 . S
C479 H465 0.960 . S
C479 H466 0.961 . S
C479 H467 0.959 . S
C479 C477 1.561 . S
C480 C477 1.526 1_556 S
C480 C481 1.396 1_556 S
C480 C485 1.390 . S
C481 C475 1.465 . S
C481 C480 1.396 1_554 S
C481 C482 1.399 1_454 S
C482 H468 0.929 . S
C482 C481 1.399 1_656 S
C482 C483 1.385 1_655 S
C483 H469 0.931 1_455 S
C483 C482 1.385 1_455 S
C483 C484 1.389 . S
C484 C483 1.389 . S
C484 C485 1.387 . S
C485 H470 0.930 . S
C485 C480 1.390 . S
C485 C484 1.387 . S
H486 C498 0.930 1_565 S
H487 C500 0.930 . S
H488 C501 0.930 . S
H489 C505 0.959 1_545 S
H490 C505 0.959 . S
H491 C505 0.961 . S
H492 C506 0.960 . S
H493 C506 0.961 . S
H494 C506 0.959 . S
H495 C509 0.929 . S
H496 C510 0.931 . S
H497 C512 0.930 1_565 S
C498 H486 0.930 1_545 S
C498 C499 1.399 . S
C498 C503 1.399 . S
C499 C498 1.399 . S
C499 C500 1.376 . S
C500 H487 0.930 . S
C500 C499 1.376 . S
C500 C501 1.388 . S
C501 H488 0.930 . S
C501 C500 1.388 . S
C501 C502 1.390 . S
C502 C501 1.390 . S
C502 C503 1.394 . S
C502 C508 1.465 . S
C503 C498 1.399 . S
C503 C502 1.394 . S
C503 C504 1.501 1_545 S
C504 C503 1.501 1_565 S
C504 C505 1.522 . S
C504 C506 1.570 . S
C504 C507 1.509 1_565 S
C505 H489 0.959 1_565 S
C505 H490 0.959 . S
C505 H491 0.961 . S
C505 C504 1.522 . S
C506 H492 0.960 . S
C506 H493 0.961 . S
C506 H494 0.959 . S
C506 C504 1.570 . S
C507 C504 1.509 1_545 S
C507 C508 1.396 . S
C507 C512 1.390 . S
C508 C502 1.465 . S
C508 C507 1.396 . S
C508 C509 1.399 . S
C509 H495 0.929 . S
C509 C508 1.399 . S
C509 C510 1.385 . S
C510 H496 0.931 . S
C510 C509 1.385 . S
C510 C511 1.389 . S
C511 C510 1.389 . S
C511 C512 1.387 . S
C512 H497 0.930 1_545 S
C512 C507 1.390 . S
C512 C511 1.387 . S
H513 C525 0.930 . S
H514 C527 0.930 . S
H515 C528 0.930 . S
H516 C532 0.959 . S
H517 C532 0.959 . S
H518 C532 0.961 . S
H519 C533 0.960 . S
H520 C533 0.961 . S
H521 C533 0.959 . S
H522 C536 0.929 . S
H523 C537 0.931 . S
H524 C539 0.930 . S
C525 H513 0.930 . S
C525 C526 1.399 . S
C525 C530 1.399 . S
C526 C525 1.399 . S
C526 C527 1.376 . S
C527 H514 0.930 . S
C527 C526 1.376 . S
C527 C528 1.388 . S
C528 H515 0.930 . S
C528 C527 1.388 . S
C528 C529 1.390 . S
C529 C528 1.390 . S
C529 C530 1.394 . S
C529 C535 1.465 . S
C530 C525 1.399 . S
C530 C529 1.394 . S
C530 C531 1.516 . S
C531 C530 1.516 . S
C531 C532 1.502 . S
C531 C533 1.561 . S
C531 C534 1.526 . S
C532 H516 0.959 . S
C532 H517 0.959 . S
C532 H518 0.961 . S
C532 C531 1.502 . S
C533 H519 0.960 . S
C533 H520 0.961 . S
C533 H521 0.959 . S
C533 C531 1.561 . S
C534 C531 1.526 . S
C534 C535 1.396 . S
C534 C539 1.390 . S
C535 C529 1.465 . S
C535 C534 1.396 . S
C535 C536 1.399 . S
C536 H522 0.929 . S
C536 C535 1.399 . S
C536 C537 1.385 . S
C537 H523 0.931 . S
C537 C536 1.385 . S
C537 C538 1.389 . S
C538 C537 1.389 . S
C538 C539 1.387 . S
C539 H524 0.930 . S
C539 C534 1.390 . S
C539 C538 1.387 . S
H540 C552 0.930 . S
H541 C554 0.930 1_565 S
H542 C555 0.930 . S
H543 C559 0.959 . S
H544 C559 0.959 . S
H545 C559 0.961 . S
H546 C560 0.960 . S
H547 C560 0.961 . S
H548 C560 0.959 . S
H549 C563 0.929 . S
H550 C564 0.931 . S
H551 C566 0.930 . S
C552 H540 0.930 . S
C552 C553 1.399 . S
C552 C557 1.399 . S
C553 C552 1.399 . S
C553 C554 1.376 . S
C554 H541 0.930 1_545 S
C554 C553 1.376 . S
C554 C555 1.388 1_545 S
C555 H542 0.930 . S
C555 C554 1.388 1_565 S
C555 C556 1.390 1_565 S
C556 C555 1.390 1_545 S
C556 C557 1.394 . S
C556 C562 1.465 . S
C557 C552 1.399 . S
C557 C556 1.394 . S
C557 C558 1.516 . S
C558 C557 1.516 . S
C558 C559 1.502 . S
C558 C560 1.561 . S
C558 C561 1.526 . S
C559 H543 0.959 . S
C559 H544 0.959 . S
C559 H545 0.961 . S
C559 C558 1.502 . S
C560 H546 0.960 . S
C560 H547 0.961 . S
C560 H548 0.959 . S
C560 C558 1.561 . S
C561 C558 1.526 . S
C561 C562 1.396 . S
C561 C566 1.390 . S
C562 C556 1.465 . S
C562 C561 1.396 . S
C562 C563 1.399 1_545 S
C563 H549 0.929 . S
C563 C562 1.399 1_565 S
C563 C564 1.385 . S
C564 H550 0.931 . S
C564 C563 1.385 . S
C564 C565 1.389 1_565 S
C565 C564 1.389 1_545 S
C565 C566 1.387 . S
C566 H551 0.930 . S
C566 C561 1.390 . S
C566 C565 1.387 . S
H567 C579 0.930 . S
H568 C581 0.930 . S
H569 C582 0.930 . S
H570 C586 0.959 . S
H571 C586 0.959 . S
H572 C586 0.961 . S
H573 C587 0.960 . S
H574 C587 0.961 . S
H575 C587 0.959 . S
H576 C590 0.929 . S
H577 C591 0.931 . S
H578 C593 0.930 . S
C579 H567 0.930 . S
C579 C580 1.399 . S
C579 C584 1.399 . S
C580 C579 1.399 . S
C580 C581 1.376 . S
C581 H568 0.930 . S
C581 C580 1.376 . S
C581 C582 1.388 . S
C582 H569 0.930 . S
C582 C581 1.388 . S
C582 C583 1.390 . S
C583 C582 1.390 . S
C583 C584 1.394 . S
C583 C589 1.465 . S
C584 C579 1.399 . S
C584 C583 1.394 . S
C584 C585 1.516 . S
C585 C584 1.516 . S
C585 C586 1.502 . S
C585 C587 1.561 . S
C585 C588 1.526 1_556 S
C586 H570 0.959 . S
C586 H571 0.959 . S
C586 H572 0.961 . S
C586 C585 1.502 . S
C587 H573 0.960 . S
C587 H574 0.961 . S
C587 H575 0.959 . S
C587 C585 1.561 . S
C588 C585 1.526 1_554 S
C588 C589 1.396 1_554 S
C588 C593 1.390 . S
C589 C583 1.465 . S
C589 C588 1.396 1_556 S
C589 C590 1.399 1_556 S
C590 H576 0.929 . S
C590 C589 1.399 1_554 S
C590 C591 1.385 . S
C591 H577 0.931 . S
C591 C590 1.385 . S
C591 C592 1.389 . S
C592 C591 1.389 . S
C592 C593 1.387 . S
C593 H578 0.930 . S
C593 C588 1.390 . S
C593 C592 1.387 . S
H594 C606 0.930 1_655 S
H595 C608 0.930 . S
H596 C609 0.930 . S
H597 C613 0.959 . S
H598 C613 0.959 . S
H599 C613 0.961 . S
H600 C614 0.960 . S
H601 C614 0.961 . S
H602 C614 0.959 . S
H603 C617 0.929 . S
H604 C618 0.931 . S
H605 C620 0.930 1_655 S
C606 H594 0.930 1_455 S
C606 C607 1.399 . S
C606 C611 1.399 . S
C607 C606 1.399 . S
C607 C608 1.376 . S
C608 H595 0.930 . S
C608 C607 1.376 . S
C608 C609 1.388 . S
C609 H596 0.930 . S
C609 C608 1.388 . S
C609 C610 1.390 . S
C610 C609 1.390 . S
C610 C611 1.394 . S
C610 C616 1.465 . S
C611 C606 1.399 . S
C611 C610 1.394 . S
C611 C612 1.516 . S
C612 C611 1.516 . S
C612 C613 1.502 1_455 S
C612 C614 1.561 . S
C612 C615 1.526 . S
C613 H597 0.959 . S
C613 H598 0.959 . S
C613 H599 0.961 . S
C613 C612 1.502 1_655 S
C614 H600 0.960 . S
C614 H601 0.961 . S
C614 H602 0.959 . S
C614 C612 1.561 . S
C615 C612 1.526 . S
C615 C616 1.396 . S
C615 C620 1.390 . S
C616 C610 1.465 . S
C616 C615 1.396 . S
C616 C617 1.399 . S
C617 H603 0.929 . S
C617 C616 1.399 . S
C617 C618 1.385 . S
C618 H604 0.931 . S
C618 C617 1.385 . S
C618 C619 1.389 . S
C619 C618 1.389 . S
C619 C620 1.387 . S
C620 H605 0.930 1_455 S
C620 C615 1.390 . S
C620 C619 1.387 . S
C148 C20 1.296 . S
C160 C134 1.264 . S
C175 C41 1.307 . S
C187 C112 1.320 . S
C202 C64 1.324 . S
C214 C123 1.343 . S
C229 C19 1.315 . S
C241 C128 1.301 . S
C268 C106 1.308 . S
C256 C44 1.245 . S
C295 C117 1.265 . S
C283 C67 1.214 . S
C310 C43 1.297 . S
C322 C90 1.295 . S
C337 C66 1.140 . S
C349 C95 1.247 1_655 S
C364 C21 1.304 . S
C376 C73 1.261 1_565 S
C403 C84 1.282 . S
C391 C42 1.300 . S
C430 C101 1.311 . S
C418 C65 1.322 . S
C445 C18 1.316 . S
C457 C79 1.270 . S
C484 C96 1.501 . S
C472 C17 1.509 . S
C499 C39 1.526 . S
C511 C74 1.523 . S
C526 C62 1.535 . S
C538 C85 1.504 . S
C565 C118 1.512 . S
C553 C40 1.513 . S
C592 C129 1.499 . S
C580 C63 1.517 . S
C607 C16 1.529 . S
C619 C107 1.498 . S
