# Generated by pormake.
# Topology anh, (6,3)-cn, num edge types: 1
# Building blocks:
#     Node 0, Type 0, BuildingBlock: PAMTUU_clean_sbu_0, # of connection points: 6
#     Node 1, Type 0, BuildingBlock: PAMTUU_clean_sbu_0, # of connection points: 6
#     Node 2, Type 0, BuildingBlock: PAMTUU_clean_sbu_0, # of connection points: 6
#     Node 3, Type 1, BuildingBlock: MIDCAF_clean_linker_0, # of connection points: 3
#     Node 4, Type 1, BuildingBlock: MIDCAF_clean_linker_0, # of connection points: 3
#     Node 5, Type 1, BuildingBlock: MIDCAF_clean_linker_0, # of connection points: 3
#     Node 6, Type 1, BuildingBlock: MIDCAF_clean_linker_0, # of connection points: 3
#     Node 7, Type 1, BuildingBlock: MIDCAF_clean_linker_0, # of connection points: 3
#     Node 8, Type 1, BuildingBlock: MIDCAF_clean_linker_0, # of connection points: 3
#     Edge 9, Type (0, 1), BuildingBlock: AJUNOK_clean_linker_0, # of connection points: 2
#     Edge 10, Type (0, 1), BuildingBlock: AJUNOK_clean_linker_0, # of connection points: 2
#     Edge 11, Type (0, 1), BuildingBlock: AJUNOK_clean_linker_0, # of connection points: 2
#     Edge 12, Type (0, 1), BuildingBlock: AJUNOK_clean_linker_0, # of connection points: 2
#     Edge 13, Type (0, 1), BuildingBlock: AJUNOK_clean_linker_0, # of connection points: 2
#     Edge 14, Type (0, 1), BuildingBlock: AJUNOK_clean_linker_0, # of connection points: 2
#     Edge 15, Type (0, 1), BuildingBlock: AJUNOK_clean_linker_0, # of connection points: 2
#     Edge 16, Type (0, 1), BuildingBlock: AJUNOK_clean_linker_0, # of connection points: 2
#     Edge 17, Type (0, 1), BuildingBlock: AJUNOK_clean_linker_0, # of connection points: 2
#     Edge 18, Type (0, 1), BuildingBlock: AJUNOK_clean_linker_0, # of connection points: 2
#     Edge 19, Type (0, 1), BuildingBlock: AJUNOK_clean_linker_0, # of connection points: 2
#     Edge 20, Type (0, 1), BuildingBlock: AJUNOK_clean_linker_0, # of connection points: 2
#     Edge 21, Type (0, 1), BuildingBlock: AJUNOK_clean_linker_0, # of connection points: 2
#     Edge 22, Type (0, 1), BuildingBlock: AJUNOK_clean_linker_0, # of connection points: 2
#     Edge 23, Type (0, 1), BuildingBlock: AJUNOK_clean_linker_0, # of connection points: 2
#     Edge 24, Type (0, 1), BuildingBlock: AJUNOK_clean_linker_0, # of connection points: 2
#     Edge 25, Type (0, 1), BuildingBlock: AJUNOK_clean_linker_0, # of connection points: 2
#     Edge 26, Type (0, 1), BuildingBlock: AJUNOK_clean_linker_0, # of connection points: 2
# Relax obj value: 0.304
# Max RMSD: 0.199
# Mean RMSD: 0.164
data_MOF--net-anh--node1-PAMTUU_clean_sbu_0--node2-MIDCAF_clean_linker_0--edge1-AJUNOK_clean_linker_0
_symmetry_space_group_name_H-M    P1
_symmetry_Int_Tables_number       1
_symmetry_cell_setting            triclinic
loop_
_symmetry_equiv_pos_as_xyz
'x, y, z'
_cell_length_a     27.616477
_cell_length_b     27.653219
_cell_length_c     52.359914
_cell_angle_alpha  92.305466
_cell_angle_beta   91.114996
_cell_angle_gamma 119.77385
loop_
_atom_site_label
_atom_site_type_symbol
_atom_site_fract_x
_atom_site_fract_y
_atom_site_fract_z
_atom_type_partial_charge
Tb0 Tb 0.22972 0.76104 0.15836 0.0
Tb1 Tb 0.29937 0.69938 0.1733 0.0
C2 C 0.27425 0.71364 0.1167 0.0
C3 C 1.11044 0.7818 0.15401 0.0
C4 C 0.99607 0.71643 0.16312 0.0
C5 C 1.01366 0.73454 0.1385 0.0
C6 C 1.07032 0.76711 0.13403 0.0
C7 C 1.09272 0.76774 0.17902 0.0
C8 C 1.03597 0.7358 0.18357 0.0
C9 C 0.16907 0.80213 0.14785 0.0
O10 O 0.16506 0.67123 0.15744 0.0
O11 O 0.21312 0.63593 0.17862 0.0
O12 O 0.29371 0.7389 0.20918 0.0
O13 O 0.21399 0.74022 0.19764 0.0
O14 O 0.31184 0.64486 0.1958 0.0
O15 O 0.36471 0.68449 0.16456 0.0
O16 O 0.36476 0.78638 0.16979 0.0
O17 O 0.31353 0.83133 0.16955 0.0
O18 O 0.27376 0.75862 0.12496 0.0
O19 O 0.27057 0.67742 0.13307 0.0
C20 C 0.16593 0.63033 0.16936 0.0
O21 O 0.20561 0.82065 0.16713 0.0
O22 O 0.17651 0.76913 0.13188 0.0
C23 C 0.25023 0.74376 0.21512 0.0
C24 C 0.33877 0.59131 0.17033 0.0
C25 C 0.32615 0.49191 0.14733 0.0
C26 C 0.35675 0.51405 0.17075 0.0
C27 C 0.36312 0.56358 0.18215 0.0
C28 C 0.30557 0.56762 0.14769 0.0
C29 C 0.29971 0.5185 0.13615 0.0
C30 C 0.34957 0.64582 0.18097 0.0
C31 C 0.36207 0.83271 0.17092 0.0
H32 H 0.98397 0.72018 0.12228 0.0
H33 H 1.08295 0.77728 0.11461 0.0
H34 H 1.12264 0.77837 0.19485 0.0
H35 H 1.0236 0.7238 0.20284 0.0
H36 H 0.3784 0.49483 0.17948 0.0
H37 H 0.38859 0.58119 0.19969 0.0
H38 H 0.28584 0.58816 0.13846 0.0
H39 H 0.27624 0.50236 0.11803 0.0
Tb40 Tb 0.66227 0.13303 0.49352 0.0
Tb41 Tb 0.7899 0.19017 0.51222 0.0
C42 C 0.75235 0.17909 0.4533 0.0
C43 C 0.51054 1.05524 0.49931 0.0
C44 C 0.4153 0.98736 0.52627 0.0
C45 C 0.41246 1.01815 0.50606 0.0
C46 C 0.4597 1.05183 0.49276 0.0
C47 C 0.51475 1.02737 0.52037 0.0
C48 C 0.46725 0.99334 0.53372 0.0
C49 C 0.55879 1.08843 0.48411 0.0
O50 O 0.67528 1.06392 0.50545 0.0
O51 O 0.76993 0.10492 0.50166 0.0
O52 O 0.74203 0.14222 0.54414 0.0
O53 O 0.66928 0.1543 0.53388 0.0
O54 O 0.87433 0.21804 0.50525 0.0
O55 O 0.85014 0.2347 0.54194 0.0
O56 O 0.76355 0.25221 0.5192 0.0
O57 O 0.6969 0.22243 0.48718 0.0
O58 O 0.7034 0.13792 0.4585 0.0
O59 O 0.78876 0.21062 0.47188 0.0
C60 C 0.72103 1.05994 0.50385 0.0
O61 O 0.59006 0.13994 0.49266 0.0
O62 O 0.58821 1.06542 0.47732 0.0
C63 C 0.6952 0.14007 0.55032 0.0
C64 C 0.91692 0.31203 0.52117 0.0
C65 C 0.90996 0.40332 0.50397 0.0
C66 C 0.90516 0.39264 0.53 0.0
C67 C 0.90927 0.34759 0.53863 0.0
C68 C 0.93089 0.32876 0.49608 0.0
C69 C 0.92652 0.37351 0.48746 0.0
C70 C 0.88996 0.25177 0.52576 0.0
C71 C 0.73215 0.26233 0.50367 0.0
H72 H 0.37293 1.01329 0.49923 0.0
H73 H 0.45606 1.07364 0.47675 0.0
H74 H 0.5543 1.03063 0.52597 0.0
H75 H 0.47054 0.9698 0.54904 0.0
H76 H 0.89347 0.41589 0.54319 0.0
H77 H 0.89938 0.33659 0.55823 0.0
H78 H 0.93835 0.30329 0.48222 0.0
H79 H 0.93239 0.38247 0.46743 0.0
Tb80 Tb 0.71841 0.5283 0.81806 0.0
Tb81 Tb 0.78263 0.65644 0.84073 0.0
C82 C 0.75979 0.62365 0.78202 0.0
C83 C 0.62019 0.37507 0.8043 0.0
C84 C 0.52463 0.27076 0.80967 0.0
C85 C 0.57412 0.27439 0.80098 0.0
C86 C 0.62133 0.32598 0.79834 0.0
C87 C 0.57137 0.3722 0.81346 0.0
C88 C 0.52357 0.32012 0.81602 0.0
C89 C 0.67108 0.42813 0.80096 0.0
O90 O 0.80333 0.54642 0.82993 0.0
O91 O 0.85169 0.64217 0.83214 0.0
O92 O 0.77734 0.6039 0.87208 0.0
O93 O 0.69651 0.52729 0.85717 0.0
O94 O 0.83784 0.74157 0.83603 0.0
O95 O 0.79611 0.71398 0.87127 0.0
O96 O 0.69481 0.63044 0.84463 0.0
O97 O 0.65104 0.5499 0.81878 0.0
O98 O 0.76302 0.57968 0.78738 0.0
O99 O 0.75654 0.65516 0.8006 0.0
C100 C 0.85102 0.59421 0.83177 0.0
O101 O 0.66561 0.46693 0.79012 0.0
O102 O 0.70665 0.44781 0.82053 0.0
C103 C 0.73325 0.55528 0.87579 0.0
C104 C 0.79073 0.78706 0.85247 0.0
C105 C 0.70294 0.8042 0.83665 0.0
C106 C 0.7071 0.79179 0.86198 0.0
C107 C 0.75094 0.78347 0.86991 0.0
C108 C 0.79022 0.80693 0.82821 0.0
C109 C 0.74628 0.81477 0.82029 0.0
C110 C 0.82068 0.75581 0.85659 0.0
C111 C 0.64954 0.59024 0.83263 0.0
H112 H 0.57589 0.2371 0.79553 0.0
H113 H 0.65875 0.32755 0.79135 0.0
H114 H 0.57015 0.41 0.8184 0.0
H115 H 0.48598 0.31838 0.82281 0.0
H116 H 0.67417 0.78398 0.87493 0.0
H117 H 0.75045 0.76883 0.88884 0.0
H118 H 0.82057 0.81107 0.8144 0.0
H119 H 0.74419 0.82552 0.80078 0.0
C120 C 0.57181 1.0819 0.21391 0.0
C121 C 0.57025 1.05103 0.19159 0.0
C122 C 0.61939 1.07273 0.17752 0.0
C123 C 0.66885 0.12232 0.18616 0.0
H124 H 0.83928 0.30479 0.17265 0.0
H125 H 0.92197 0.38657 0.15663 0.0
H126 H 0.97124 0.45843 0.23371 0.0
H127 H 0.89074 0.37874 0.24957 0.0
H128 H 0.83372 0.31761 0.29952 0.0
H129 H 0.8339 0.30834 0.3459 0.0
H130 H 0.73005 0.12963 0.33371 0.0
H131 H 0.72762 0.13917 0.28787 0.0
H132 H 0.62035 0.15146 0.24047 0.0
H133 H 0.53546 1.06708 0.22541 0.0
H134 H 0.6199 1.05098 0.15996 0.0
H135 H 0.70622 0.13633 0.17545 0.0
N136 N 0.76535 0.24126 0.21009 0.0
N137 N 0.81505 0.27823 0.24986 0.0
N138 N 0.73033 0.19438 0.24788 0.0
C139 C 0.81123 0.2827 0.2241 0.0
C140 C 0.77534 0.23421 0.26183 0.0
C141 C 0.72417 0.19695 0.22224 0.0
C142 C 0.85799 0.33375 0.2126 0.0
C143 C 0.86752 0.33822 0.18615 0.0
C144 C 0.91502 0.38526 0.17693 0.0
C145 C 0.95436 0.4289 0.19391 0.0
C146 C 0.94307 0.42533 0.22004 0.0
C147 C 0.89627 0.37903 0.22915 0.0
C148 C 0.78011 0.22921 0.28992 0.0
C149 C 0.81132 0.27635 0.3068 0.0
C150 C 0.81181 0.27096 0.33342 0.0
C151 C 0.78196 0.21817 0.34373 0.0
C152 C 0.75277 0.17107 0.32663 0.0
C153 C 0.75145 0.17653 0.30023 0.0
C154 C 0.67067 0.15132 0.20924 0.0
C155 C 0.62092 0.13064 0.22259 0.0
C156 C 0.70075 0.49159 0.51313 0.0
C157 C 0.74662 0.48345 0.51828 0.0
C158 C 0.79481 0.52852 0.53051 0.0
C159 C 0.79586 0.57811 0.53877 0.0
H160 H 0.75009 0.75024 0.50475 0.0
H161 H 0.74357 0.83029 0.48999 0.0
H162 H 0.69297 0.85482 0.56453 0.0
H163 H 0.69876 0.77546 0.5791 0.0
H164 H 0.72524 0.72911 0.62819 0.0
H165 H 0.72771 0.72122 0.67466 0.0
H166 H 0.78955 0.60631 0.66409 0.0
H167 H 0.78603 0.6129 0.61802 0.0
H168 H 0.665 0.5451 0.51824 0.0
H169 H 0.66234 0.45795 0.50429 0.0
H170 H 0.83138 0.52479 0.53458 0.0
H171 H 0.83257 0.61022 0.54946 0.0
N172 N 0.73672 0.67017 0.53865 0.0
N173 N 0.73961 0.70998 0.5798 0.0
N174 N 0.75277 0.63286 0.57547 0.0
C175 C 0.73375 0.71039 0.55388 0.0
C176 C 0.74922 0.67167 0.59076 0.0
C177 C 0.74627 0.63108 0.54961 0.0
C178 C 0.72537 0.75593 0.54325 0.0
C179 C 0.73702 0.77231 0.51791 0.0
C180 C 0.7338 0.81875 0.50952 0.0
C181 C 0.71836 0.84998 0.52613 0.0
C182 C 0.70488 0.8322 0.55109 0.0
C183 C 0.70856 0.78644 0.5595 0.0
C184 C 0.75455 0.67093 0.61917 0.0
C185 C 0.7396 0.70233 0.63578 0.0
C186 C 0.74116 0.69802 0.66243 0.0
C187 C 0.75768 0.66223 0.67304 0.0
C188 C 0.7751 0.63304 0.65651 0.0
C189 C 0.77324 0.63702 0.63001 0.0
C190 C 0.74932 0.58528 0.53463 0.0
C191 C 0.7022 0.54184 0.5211 0.0
C192 C 1.1039 0.64764 0.87061 0.0
C193 C 1.06878 0.60605 0.85201 0.0
C194 C 1.08719 0.56998 0.84188 0.0
C195 C 1.13801 0.57423 0.8509 0.0
H196 H 0.32162 0.58974 0.83629 0.0
H197 H 0.40186 0.58376 0.81987 0.0
H198 H 0.46947 0.605 0.89699 0.0
H199 H 0.39117 0.6108 0.91326 0.0
H200 H 0.33995 0.62802 0.96152 0.0
H201 H 0.34434 0.64961 0.00771 0.0
H202 H 0.20098 0.67148 0.99857 0.0
H203 H 0.19656 0.65066 0.95277 0.0
H204 H 0.17828 0.68312 0.89469 0.0
H205 H 1.09167 0.67616 0.87905 0.0
H206 H 1.06203 0.53801 0.82717 0.0
H207 H 0.14969 0.54452 0.84347 0.0
N208 N 0.25892 0.60527 0.87293 0.0
N209 N 0.30432 0.6177 0.91336 0.0
N210 N 0.22348 0.62426 0.91026 0.0
C211 C 0.30225 0.6075 0.8875 0.0
C212 C 0.26524 0.62595 0.92492 0.0
C213 C 0.21926 0.61395 0.8845 0.0
C214 C 0.34909 0.60104 0.87624 0.0
C215 C 0.35338 0.59275 0.84975 0.0
C216 C 0.39941 0.58906 0.84032 0.0
C217 C 0.44262 0.594 0.85708 0.0
C218 C 0.43765 0.60152 0.8834 0.0
C219 C 0.39206 0.60474 0.89275 0.0
C220 C 0.26814 0.63789 0.95319 0.0
C221 C 0.30938 0.6375 0.96933 0.0
C222 C 0.31183 0.64966 0.99582 0.0
C223 C 0.2735 0.66303 0.00674 0.0
C224 C 0.23185 0.66251 0.9907 0.0
C225 C 0.22921 0.65019 0.96436 0.0
C226 C 0.17146 0.6144 0.87042 0.0
C227 C 0.15391 0.65157 0.87966 0.0
C228 C 0.23416 0.8147 0.47518 0.0
C229 C 0.21406 0.81782 0.49928 0.0
C230 C 0.15667 0.79741 0.50156 0.0
C231 C 1.12025 0.77505 0.47988 0.0
H232 H 0.94256 0.70075 0.44797 0.0
H233 H 0.87905 0.62068 0.47157 0.0
H234 H 0.89378 0.51105 0.41508 0.0
H235 H 0.95371 0.5901 0.39094 0.0
H236 H 1.0401 0.69939 0.34007 0.0
H237 H 1.08376 0.70568 0.29918 0.0
H238 H 0.24282 0.76291 0.33891 0.0
H239 H 0.19982 0.75701 0.37979 0.0
H240 H 0.21568 0.79202 0.43545 0.0
H241 H 0.27844 0.83134 0.4727 0.0
H242 H 1.1403 0.79976 0.5199 0.0
H243 H 1.07616 0.75988 0.48207 0.0
N244 N 1.04737 0.72103 0.43454 0.0
N245 N 1.03488 0.69639 0.39047 0.0
N246 N 1.12485 0.7527 0.40919 0.0
C247 C 1.01276 0.69419 0.41372 0.0
C248 C 1.09114 0.72658 0.38807 0.0
C249 C 1.10336 0.75015 0.43248 0.0
C250 C 0.95498 0.65151 0.41834 0.0
C251 C 0.92915 0.65916 0.43979 0.0
C252 C 0.89335 0.61336 0.45348 0.0
C253 C 0.88492 0.5602 0.44617 0.0
C254 C 0.90073 0.5517 0.42172 0.0
C255 C 0.93531 0.5973 0.40772 0.0
C256 C 1.11648 0.72824 0.3632 0.0
C257 C 1.0843 0.71311 0.34013 0.0
C258 C 1.10923 0.71683 0.31676 0.0
C259 C 0.16664 0.73521 0.31605 0.0
C260 C 0.1985 0.74867 0.33904 0.0
C261 C 0.1738 0.7456 0.36238 0.0
C262 C 1.14092 0.77352 0.45563 0.0
C263 C 0.1982 0.79298 0.45367 0.0
C264 C 0.38027 1.05198 0.75117 0.0
C265 C 0.37783 1.04892 0.77791 0.0
C266 C 0.37098 1.00014 0.78862 0.0
C267 C 0.37543 0.95975 0.77349 0.0
H268 H 0.42191 0.84416 0.78294 0.0
H269 H 0.46854 0.80979 0.81087 0.0
H270 H 0.56532 0.80496 0.74806 0.0
H271 H 0.51807 0.83751 0.71999 0.0
H272 H 0.51884 0.90188 0.6661 0.0
H273 H 0.5773 0.95234 0.63091 0.0
H274 H 0.56198 1.09589 0.65346 0.0
H275 H 0.50207 1.0453 0.68747 0.0
H276 H 0.39071 1.01791 0.71588 0.0
H277 H 0.38617 1.08885 0.74204 0.0
H278 H 0.36795 0.99597 0.80908 0.0
H279 H 0.37574 0.92561 0.78279 0.0
N280 N 0.41872 0.8988 0.74492 0.0
N281 N 0.47652 0.9004 0.71228 0.0
N282 N 0.43744 0.95845 0.71149 0.0
C283 C 0.45082 0.87935 0.73435 0.0
C284 C 0.46992 0.93989 0.70073 0.0
C285 C 0.41117 0.93788 0.73342 0.0
C286 C 0.46741 0.84519 0.74935 0.0
C287 C 0.45207 0.83437 0.77487 0.0
C288 C 0.479 0.81508 0.79098 0.0
C289 C 0.52169 0.8064 0.78183 0.0
C290 C 0.53278 0.81163 0.75572 0.0
C291 C 0.50582 0.83064 0.73961 0.0
C292 C 0.50468 0.96906 0.67917 0.0
C293 C 0.52765 0.94404 0.66332 0.0
C294 C 0.56147 0.97303 0.64338 0.0
C295 C 0.57332 1.02766 0.63917 0.0
C296 C 0.55216 1.05323 0.65571 0.0
C297 C 0.51771 1.02411 0.67521 0.0
C298 C 0.38628 0.96736 0.74737 0.0
C299 C 0.38388 1.01138 0.73605 0.0
C300 C 0.79209 0.49076 0.12919 0.0
C301 C 0.78242 0.5233 0.14742 0.0
C302 C 0.72783 0.51249 0.15083 0.0
C303 C 0.68382 0.47186 0.13505 0.0
H304 H 0.51259 0.34813 0.12719 0.0
H305 H 0.43167 0.35305 0.13962 0.0
H306 H 0.3854 0.35177 0.06016 0.0
H307 H 0.46916 0.35011 0.0476 0.0
H308 H 0.56191 0.37937 0.00661 0.0
H309 H 0.59127 0.41537 0.96459 0.0
H310 H 0.76379 0.49772 0.99181 0.0
H311 H 0.73491 0.46238 0.03404 0.0
H312 H 0.75752 0.42961 0.09777 0.0
H313 H 0.83417 0.49911 0.1261 0.0
H314 H 0.71983 0.5377 0.1646 0.0
H315 H 0.64252 0.46663 0.13701 0.0
N316 N 0.59687 0.38777 0.09942 0.0
N317 N 0.57302 0.3767 0.05554 0.0
N318 N 0.66703 0.41984 0.06979 0.0
C319 C 0.55707 0.36875 0.08015 0.0
C320 C 0.62806 0.40188 0.05019 0.0
C321 C 0.65173 0.41274 0.09442 0.0
C322 C 0.49873 0.35114 0.08645 0.0
C323 C 0.4845 0.34723 0.1122 0.0
C324 C 0.43715 0.3491 0.11939 0.0
C325 C 0.40224 0.35368 0.10091 0.0
C326 C 0.41209 0.34929 0.07488 0.0
C327 C 0.46011 0.34825 0.06768 0.0
C328 C 0.64592 0.41787 0.02383 0.0
C329 C 0.60616 0.40448 0.00366 0.0
C330 C 0.62296 0.42502 0.97954 0.0
C331 C 0.67982 0.45918 0.97499 0.0
C332 C 0.7197 0.47171 0.99489 0.0
C333 C 0.70298 0.45104 0.01902 0.0
C334 C 0.69434 0.443 0.11517 0.0
C335 C 0.74843 0.45129 0.11297 0.0
C336 C 0.35342 0.45818 0.10863 0.0
C337 C 0.33009 0.4472 0.13276 0.0
C338 C 0.37128 0.42372 0.097 0.0
C339 C 0.3661 0.37678 0.10902 0.0
H340 H 0.36236 0.49622 0.09967 0.0
H341 H 0.39392 0.43715 0.07965 0.0
S342 S 0.29457 0.3227 0.16923 0.0
N343 N 0.2938 0.38157 0.16625 0.0
N344 N 0.32568 0.31531 0.14394 0.0
C345 C 0.33673 0.36187 0.1317 0.0
C346 C 0.31929 0.39755 0.14373 0.0
C347 C 0.85526 0.42416 0.47233 0.0
C348 C 0.89394 0.44229 0.49332 0.0
C349 C 0.8465 0.46208 0.45889 0.0
C350 C 0.87692 0.51959 0.46571 0.0
H351 H 0.83362 0.38067 0.4655 0.0
H352 H 0.81909 0.44684 0.44185 0.0
S353 S 0.97669 0.58633 0.52192 0.0
N354 N 0.95689 0.51944 0.52257 0.0
N355 N 0.94224 0.59154 0.49707 0.0
C356 C 0.91157 0.53725 0.48831 0.0
C357 C 0.91984 0.49836 0.50213 0.0
C358 C 0.62117 0.76013 0.80584 0.0
C359 C 0.65098 0.79975 0.82606 0.0
C360 C 0.5762 0.75961 0.79283 0.0
C361 C 0.55974 0.79892 0.79951 0.0
H362 H 0.63403 0.7306 0.79948 0.0
H363 H 0.55582 0.7299 0.77667 0.0
S364 S 0.62184 0.90814 0.85265 0.0
N365 N 0.6587 0.87602 0.85363 0.0
N366 N 0.57476 0.87626 0.82887 0.0
C367 C 0.58715 0.83652 0.8208 0.0
C368 C 0.63276 0.83665 0.83415 0.0
C369 C 0.89365 0.67374 0.15321 0.0
C370 C 0.93765 0.67164 0.16615 0.0
C371 C 0.84091 0.6261 0.14951 0.0
C372 C 0.83054 0.57491 0.15863 0.0
H373 H 0.90112 0.71145 0.14435 0.0
H374 H 0.80954 0.62826 0.13763 0.0
S375 S 0.92677 0.54975 0.19859 0.0
N376 N 0.96416 0.61578 0.19164 0.0
N377 N 0.86446 0.52643 0.18459 0.0
C378 C 0.87197 0.57345 0.17384 0.0
C379 C 0.92571 0.62193 0.17773 0.0
C380 C 0.35423 0.88631 0.53097 0.0
C381 C 0.36247 0.94059 0.53473 0.0
C382 C 0.30114 0.84151 0.52399 0.0
C383 C 0.25552 0.85027 0.52037 0.0
H384 H 0.38957 0.87965 0.52945 0.0
H385 H 0.29766 0.80213 0.51753 0.0
S386 S 0.25227 0.97923 0.53893 0.0
N387 N 0.31843 0.99645 0.54329 0.0
N388 N 0.21869 0.9126 0.52909 0.0
C389 C 0.26126 0.9013 0.52963 0.0
C390 C 0.31517 0.94667 0.53713 0.0
C391 C 0.47928 0.17128 0.82023 0.0
C392 C 0.47427 0.21479 0.8099 0.0
C393 C 0.44212 0.11561 0.81247 0.0
C394 C 0.39843 0.1015 0.79414 0.0
H395 H 0.51554 0.1806 0.83232 0.0
H396 H 0.45206 1.08449 0.81861 0.0
S397 S 0.35704 0.199 0.76798 0.0
N398 N 0.41544 0.2397 0.78507 0.0
N399 N 0.34383 0.13446 0.7713 0.0
C400 C 0.38765 0.144 0.78712 0.0
C401 C 0.42605 0.20094 0.7948 0.0
C402 C 0.67341 0.96079 0.51881 0.0
C403 C 0.71889 1.0048 0.50727 0.0
C404 C 0.67303 0.91086 0.52429 0.0
C405 C 0.71769 0.90182 0.51818 0.0
H406 H 0.63833 0.96547 0.52439 0.0
H407 H 0.63742 0.87909 0.53362 0.0
S408 S 0.84621 1.00259 0.48698 0.0
N409 N 0.80939 1.03464 0.48928 0.0
N410 N 0.80844 0.94164 0.49947 0.0
C411 C 0.76271 0.94485 0.50603 0.0
C412 C 0.76339 0.99589 0.50066 0.0
C413 C 0.95697 0.64582 0.83569 0.0
C414 C 0.90597 0.59478 0.83488 0.0
C415 C 1.00887 0.64861 0.84026 0.0
C416 C 1.01299 0.60056 0.84427 0.0
H417 H 0.95703 0.68451 0.83313 0.0
H418 H 1.04629 0.68922 0.84095 0.0
S419 S 0.89279 0.45602 0.84387 0.0
N420 N 0.8637 0.49439 0.83806 0.0
N421 N 0.9607 0.49987 0.84687 0.0
C422 C 0.96256 0.54901 0.84292 0.0
C423 C 0.90947 0.54609 0.83825 0.0
C424 C 0.41477 0.93817 0.18064 0.0
C425 C 0.41586 0.88849 0.17453 0.0
C426 C 0.46434 0.99016 0.18544 0.0
C427 C 0.51797 0.99573 0.1841 0.0
H428 H 0.37513 0.93692 0.18226 0.0
H429 H 0.4605 1.02647 0.19041 0.0
S430 S 0.54532 0.87947 0.16839 0.0
N431 N 0.47654 0.84934 0.16697 0.0
N432 N 0.56857 0.94615 0.17596 0.0
C433 C 0.51979 0.9467 0.17749 0.0
C434 C 0.46932 0.89361 0.17278 0.0
C435 C 0.76192 0.35426 0.52816 0.0
C436 C 0.73543 0.3186 0.50616 0.0
C437 C 0.76561 0.40686 0.5316 0.0
C438 C 0.74316 0.42726 0.51323 0.0
H439 H 0.77958 0.34121 0.54322 0.0
H440 H 0.78548 0.43132 0.54923 0.0
S441 S 0.67408 0.35321 0.45091 0.0
N442 N 0.68891 0.30937 0.46492 0.0
N443 N 0.69651 0.40817 0.47116 0.0
C444 C 0.71745 0.39256 0.49085 0.0
C445 C 0.71348 0.33858 0.48738 0.0
C446 C 0.59641 0.6343 0.85202 0.0
C447 C 0.59553 0.59095 0.83636 0.0
C448 C 0.5474 0.63559 0.85769 0.0
C449 C 0.49428 0.59382 0.84796 0.0
H450 H 0.63543 0.66751 0.86059 0.0
H451 H 0.55121 0.66959 0.8702 0.0
S452 S 0.46743 0.47219 0.80486 0.0
N453 N 0.53589 0.50591 0.81027 0.0
N454 N 0.444 0.50852 0.8209 0.0
C455 C 0.49252 0.55115 0.83151 0.0
C456 C 0.54279 0.5496 0.82579 0.0
C457 C 1.06062 0.56218 0.16137 0.0
C458 C 1.11221 0.5768 0.17409 0.0
C459 C 1.01024 0.51301 0.16663 0.0
C460 C 1.00864 0.47702 0.18545 0.0
H461 H 1.05896 0.58908 0.14733 0.0
H462 H 0.97188 0.50429 0.15656 0.0
S463 S 1.1316 0.49292 0.22307 0.0
N464 N 0.15762 0.54773 0.20545 0.0
N465 N 1.06411 0.45776 0.2154 0.0
C466 C 1.05998 0.49031 0.19768 0.0
C467 C 1.11115 0.5394 0.19208 0.0
C468 C 0.27833 0.65497 0.07943 0.0
C469 C 0.27663 0.70276 0.08863 0.0
C470 C 0.27865 0.64298 0.05304 0.0
C471 C 0.27676 0.67799 0.03472 0.0
H472 H 0.27891 0.62616 0.09268 0.0
H473 H 0.27902 0.60529 0.04691 0.0
S474 S 0.27584 0.81023 0.04836 0.0
N475 N 0.27575 0.78672 0.07684 0.0
N476 N 0.27641 0.76401 0.02761 0.0
C477 C 0.27634 0.72645 0.0436 0.0
C478 C 0.27629 0.73887 0.0704 0.0
C479 C 0.71788 0.16486 0.40755 0.0
C480 C 0.76293 0.19181 0.42577 0.0
C481 C 0.72474 0.17456 0.38149 0.0
C482 C 0.77712 0.21139 0.37204 0.0
H483 H 0.67629 0.1359 0.41335 0.0
H484 H 0.68817 0.15297 0.36861 0.0
S485 S 0.90912 0.2935 0.41148 0.0
N486 N 0.86207 0.25829 0.43246 0.0
N487 N 0.87537 0.27558 0.38322 0.0
C488 C 0.82272 0.23941 0.38999 0.0
C489 C 0.81556 0.22978 0.41681 0.0
C490 C 0.77883 0.68854 0.74601 0.0
C491 C 0.75567 0.63411 0.75457 0.0
C492 C 0.77845 0.69774 0.71967 0.0
C493 C 0.75455 0.65282 0.70104 0.0
H494 H 0.79888 0.72419 0.75963 0.0
H495 H 0.79834 0.74027 0.7138 0.0
S496 S 0.67989 0.50238 0.71394 0.0
N497 N 0.70275 0.53485 0.74242 0.0
N498 N 0.70111 0.55209 0.69349 0.0
C499 C 0.72861 0.59837 0.7096 0.0
C500 C 0.7294 0.58905 0.73618 0.0
C501 C 0.68657 1.08907 0.59035 0.0
C502 C 0.66658 0.11532 0.57411 0.0
C503 C 0.65634 1.06056 0.61137 0.0
C504 C 0.60512 1.05735 0.61688 0.0
H505 H 0.72524 1.08962 0.58655 0.0
H506 H 0.6732 1.04103 0.62344 0.0
S507 S 0.53322 0.11715 0.58004 0.0
N508 N 0.59172 0.13602 0.56536 0.0
N509 N 0.5347 1.08073 0.6039 0.0
C510 C 0.58464 1.08315 0.60078 0.0
C511 C 0.61543 0.11261 0.57969 0.0
C512 C 0.74576 0.56395 0.92374 0.0
C513 C 0.7238 0.5303 0.90098 0.0
C514 C 0.73258 0.54053 0.94771 0.0
C515 C 0.69717 0.48273 0.94965 0.0
H516 H 0.77174 0.60878 0.92308 0.0
H517 H 0.74876 0.56802 0.96483 0.0
S518 S 0.63559 0.37564 0.89584 0.0
N519 N 0.66948 0.43544 0.88199 0.0
N520 N 0.64518 0.39197 0.9269 0.0
C521 C 0.67722 0.44847 0.92706 0.0
C522 C 0.69045 0.4721 0.90276 0.0
C523 C 0.24482 0.71758 0.26069 0.0
C524 C 0.23774 0.74897 0.24202 0.0
C525 C 0.22306 0.71441 0.28503 0.0
C526 C 0.19348 0.7423 0.29124 0.0
H527 H 0.26468 0.6932 0.25608 0.0
H528 H 0.22745 0.68829 0.29869 0.0
S529 S 0.17198 0.83707 0.25049 0.0
N530 N 0.20536 0.81382 0.23249 0.0
N531 N 0.16407 0.80719 0.27794 0.0
C532 C 0.18914 0.77628 0.27324 0.0
C533 C 0.21144 0.7798 0.24869 0.0
loop_
_geom_bond_atom_site_label_1
_geom_bond_atom_site_label_2
_geom_bond_distance
_geom_bond_site_symmetry_2
_ccdc_geom_bond_type
Tb0 C9 2.764 1_455 S
Tb0 O10 2.325 1_455 S
Tb0 O13 2.303 . S
Tb0 O17 2.322 . S
Tb0 O18 2.349 . S
Tb0 O21 2.415 1_455 S
Tb0 O22 2.399 1_455 S
Tb1 O11 2.322 1_455 S
Tb1 O12 2.349 . S
Tb1 O14 2.415 . S
Tb1 O15 2.399 . S
Tb1 O16 2.325 . S
Tb1 O19 2.303 . S
Tb1 C30 2.764 . S
C2 O18 1.261 . S
C2 O19 1.257 . S
C3 C6 1.358 . S
C3 C7 1.332 . S
C3 C9 1.504 . S
C4 C5 1.373 . S
C4 C8 1.308 . S
C5 C4 1.373 . S
C5 C6 1.429 . S
C5 H32 0.932 . S
C6 C3 1.358 . S
C6 C5 1.429 . S
C6 H33 0.930 . S
C7 C3 1.332 . S
C7 C8 1.394 . S
C7 H34 0.932 . S
C8 C4 1.308 . S
C8 C7 1.394 . S
C8 H35 0.929 . S
C9 Tb0 2.764 1_655 S
C9 C3 1.504 . S
C9 O21 1.239 . S
C9 O22 1.263 . S
O10 Tb0 2.325 1_655 S
O10 C20 1.236 . S
O11 Tb1 2.322 1_655 S
O11 C20 1.257 . S
O12 Tb1 2.349 . S
O12 C23 1.261 . S
O13 Tb0 2.303 . S
O13 C23 1.257 . S
O14 Tb1 2.415 . S
O14 C30 1.239 . S
O15 Tb1 2.399 . S
O15 C30 1.263 . S
O16 Tb1 2.325 . S
O16 C31 1.236 . S
O17 Tb0 2.322 . S
O17 C31 1.257 . S
O18 Tb0 2.349 . S
O18 C2 1.261 . S
O19 Tb1 2.303 . S
O19 C2 1.257 . S
C20 O10 1.236 . S
C20 O11 1.257 . S
O21 Tb0 2.415 1_655 S
O21 C9 1.239 . S
O22 Tb0 2.399 1_655 S
O22 C9 1.263 . S
C23 O12 1.261 . S
C23 O13 1.257 . S
C24 C27 1.358 . S
C24 C28 1.332 . S
C24 C30 1.504 . S
C25 C26 1.373 . S
C25 C29 1.308 . S
C26 C25 1.373 . S
C26 C27 1.429 . S
C26 H36 0.932 . S
C27 C24 1.358 . S
C27 C26 1.429 . S
C27 H37 0.930 . S
C28 C24 1.332 . S
C28 C29 1.394 . S
C28 H38 0.932 . S
C29 C25 1.308 . S
C29 C28 1.394 . S
C29 H39 0.929 . S
C30 Tb1 2.764 . S
C30 O14 1.239 . S
C30 O15 1.263 . S
C30 C24 1.504 . S
C31 O16 1.236 . S
C31 O17 1.257 . S
H32 C5 0.932 . S
H33 C6 0.930 . S
H34 C7 0.932 . S
H35 C8 0.929 . S
H36 C26 0.932 . S
H37 C27 0.930 . S
H38 C28 0.932 . S
H39 C29 0.929 . S
Tb40 C49 2.764 . S
Tb40 O50 2.325 . S
Tb40 O53 2.303 1_565 S
Tb40 O57 2.322 1_565 S
Tb40 O58 2.349 1_565 S
Tb40 O61 2.415 . S
Tb40 O62 2.399 . S
Tb41 O51 2.322 1_545 S
Tb41 O52 2.349 . S
Tb41 O54 2.415 . S
Tb41 O55 2.399 . S
Tb41 O56 2.325 . S
Tb41 O59 2.303 . S
Tb41 C70 2.764 . S
C42 O58 1.261 . S
C42 O59 1.257 . S
C43 C46 1.358 . S
C43 C47 1.332 . S
C43 C49 1.504 . S
C44 C45 1.373 . S
C44 C48 1.308 . S
C45 C44 1.373 . S
C45 C46 1.429 . S
C45 H72 0.932 . S
C46 C43 1.358 . S
C46 C45 1.429 . S
C46 H73 0.930 . S
C47 C43 1.332 . S
C47 C48 1.394 . S
C47 H74 0.932 . S
C48 C44 1.308 . S
C48 C47 1.394 . S
C48 H75 0.929 . S
C49 Tb40 2.764 . S
C49 C43 1.504 . S
C49 O61 1.239 . S
C49 O62 1.263 . S
O50 Tb40 2.325 . S
O50 C60 1.236 . S
O51 Tb41 2.322 1_565 S
O51 C60 1.257 . S
O52 Tb41 2.349 . S
O52 C63 1.261 . S
O53 Tb40 2.303 1_545 S
O53 C63 1.257 . S
O54 Tb41 2.415 . S
O54 C70 1.239 . S
O55 Tb41 2.399 . S
O55 C70 1.263 . S
O56 Tb41 2.325 . S
O56 C71 1.236 . S
O57 Tb40 2.322 1_545 S
O57 C71 1.257 . S
O58 Tb40 2.349 1_545 S
O58 C42 1.261 . S
O59 Tb41 2.303 . S
O59 C42 1.257 . S
C60 O50 1.236 . S
C60 O51 1.257 . S
O61 Tb40 2.415 . S
O61 C49 1.239 . S
O62 Tb40 2.399 . S
O62 C49 1.263 . S
C63 O52 1.261 . S
C63 O53 1.257 . S
C64 C67 1.358 . S
C64 C68 1.332 . S
C64 C70 1.504 . S
C65 C66 1.373 . S
C65 C69 1.308 . S
C66 C65 1.373 . S
C66 C67 1.429 . S
C66 H76 0.932 . S
C67 C64 1.358 . S
C67 C66 1.429 . S
C67 H77 0.930 . S
C68 C64 1.332 . S
C68 C69 1.394 . S
C68 H78 0.932 . S
C69 C65 1.308 . S
C69 C68 1.394 . S
C69 H79 0.929 . S
C70 Tb41 2.764 . S
C70 O54 1.239 . S
C70 O55 1.263 . S
C70 C64 1.504 . S
C71 O56 1.236 . S
C71 O57 1.257 . S
H72 C45 0.932 . S
H73 C46 0.930 . S
H74 C47 0.932 . S
H75 C48 0.929 . S
H76 C66 0.932 . S
H77 C67 0.930 . S
H78 C68 0.932 . S
H79 C69 0.929 . S
Tb80 C89 2.764 . S
Tb80 O90 2.325 . S
Tb80 O93 2.303 . S
Tb80 O97 2.322 . S
Tb80 O98 2.349 . S
Tb80 O101 2.415 . S
Tb80 O102 2.399 . S
Tb81 O91 2.322 . S
Tb81 O92 2.349 . S
Tb81 O94 2.415 . S
Tb81 O95 2.399 . S
Tb81 O96 2.325 . S
Tb81 O99 2.303 . S
Tb81 C110 2.764 . S
C82 O98 1.261 . S
C82 O99 1.257 . S
C83 C86 1.358 . S
C83 C87 1.332 . S
C83 C89 1.504 . S
C84 C85 1.373 . S
C84 C88 1.308 . S
C85 C84 1.373 . S
C85 C86 1.429 . S
C85 H112 0.932 . S
C86 C83 1.358 . S
C86 C85 1.429 . S
C86 H113 0.930 . S
C87 C83 1.332 . S
C87 C88 1.394 . S
C87 H114 0.932 . S
C88 C84 1.308 . S
C88 C87 1.394 . S
C88 H115 0.929 . S
C89 Tb80 2.764 . S
C89 C83 1.504 . S
C89 O101 1.239 . S
C89 O102 1.263 . S
O90 Tb80 2.325 . S
O90 C100 1.236 . S
O91 Tb81 2.322 . S
O91 C100 1.257 . S
O92 Tb81 2.349 . S
O92 C103 1.261 . S
O93 Tb80 2.303 . S
O93 C103 1.257 . S
O94 Tb81 2.415 . S
O94 C110 1.239 . S
O95 Tb81 2.399 . S
O95 C110 1.263 . S
O96 Tb81 2.325 . S
O96 C111 1.236 . S
O97 Tb80 2.322 . S
O97 C111 1.257 . S
O98 Tb80 2.349 . S
O98 C82 1.261 . S
O99 Tb81 2.303 . S
O99 C82 1.257 . S
C100 O90 1.236 . S
C100 O91 1.257 . S
O101 Tb80 2.415 . S
O101 C89 1.239 . S
O102 Tb80 2.399 . S
O102 C89 1.263 . S
C103 O92 1.261 . S
C103 O93 1.257 . S
C104 C107 1.358 . S
C104 C108 1.332 . S
C104 C110 1.504 . S
C105 C106 1.373 . S
C105 C109 1.308 . S
C106 C105 1.373 . S
C106 C107 1.429 . S
C106 H116 0.932 . S
C107 C104 1.358 . S
C107 C106 1.429 . S
C107 H117 0.930 . S
C108 C104 1.332 . S
C108 C109 1.394 . S
C108 H118 0.932 . S
C109 C105 1.308 . S
C109 C108 1.394 . S
C109 H119 0.929 . S
C110 Tb81 2.764 . S
C110 O94 1.239 . S
C110 O95 1.263 . S
C110 C104 1.504 . S
C111 O96 1.236 . S
C111 O97 1.257 . S
H112 C85 0.932 . S
H113 C86 0.930 . S
H114 C87 0.932 . S
H115 C88 0.929 . S
H116 C106 0.932 . S
H117 C107 0.930 . S
H118 C108 0.932 . S
H119 C109 0.929 . S
C120 C121 1.384 . S
C120 H133 0.947 . S
C120 C155 1.382 . S
C121 C120 1.384 . S
C121 C122 1.378 . S
C122 C121 1.378 . S
C122 C123 1.378 . S
C122 H134 0.952 . S
C123 C122 1.378 . S
C123 H135 0.950 . S
C123 C154 1.383 . S
H124 C143 0.947 . S
H125 C144 0.946 . S
H126 C146 0.953 . S
H127 C147 0.945 . S
H128 C149 0.952 . S
H129 C150 0.949 . S
H130 C152 0.940 1_565 S
H131 C153 0.948 . S
H132 C155 0.951 . S
H133 C120 0.947 . S
H134 C122 0.952 . S
H135 C123 0.950 . S
N136 C139 1.382 . S
N136 C141 1.363 1_545 S
N137 C139 1.371 . S
N137 C140 1.372 . S
N138 C140 1.361 1_565 S
N138 C141 1.377 . S
C139 N136 1.382 . S
C139 N137 1.371 . S
C139 C142 1.480 . S
C140 N137 1.372 . S
C140 N138 1.361 1_545 S
C140 C148 1.457 . S
C141 N136 1.363 1_565 S
C141 N138 1.377 . S
C141 C154 1.479 . S
C142 C139 1.480 . S
C142 C143 1.383 . S
C142 C147 1.385 . S
C143 H124 0.947 . S
C143 C142 1.383 . S
C143 C144 1.388 . S
C144 H125 0.946 . S
C144 C143 1.388 . S
C144 C145 1.384 . S
C145 C144 1.384 . S
C145 C146 1.377 . S
C146 H126 0.953 . S
C146 C145 1.377 . S
C146 C147 1.369 . S
C147 H127 0.945 . S
C147 C142 1.385 . S
C147 C146 1.369 . S
C148 C140 1.457 . S
C148 C149 1.372 . S
C148 C153 1.364 1_545 S
C149 H128 0.952 . S
C149 C148 1.372 . S
C149 C150 1.389 . S
C150 H129 0.949 . S
C150 C149 1.389 . S
C150 C151 1.387 . S
C151 C150 1.387 . S
C151 C152 1.383 . S
C152 H130 0.940 1_545 S
C152 C151 1.383 . S
C152 C153 1.378 1_545 S
C153 H131 0.948 . S
C153 C148 1.364 1_565 S
C153 C152 1.378 1_565 S
C154 C123 1.383 . S
C154 C141 1.479 . S
C154 C155 1.398 . S
C155 C120 1.382 . S
C155 H132 0.951 . S
C155 C154 1.398 . S
C156 C157 1.384 . S
C156 H169 0.947 . S
C156 C191 1.382 . S
C157 C156 1.384 . S
C157 C158 1.378 . S
C158 C157 1.378 . S
C158 C159 1.378 . S
C158 H170 0.952 . S
C159 C158 1.378 . S
C159 H171 0.950 . S
C159 C190 1.383 . S
H160 C179 0.947 . S
H161 C180 0.946 . S
H162 C182 0.953 . S
H163 C183 0.945 . S
H164 C185 0.952 . S
H165 C186 0.949 . S
H166 C188 0.950 . S
H167 C189 0.948 . S
H168 C191 0.951 . S
H169 C156 0.947 . S
H170 C158 0.952 . S
H171 C159 0.950 . S
N172 C175 1.382 . S
N172 C177 1.363 . S
N173 C175 1.371 . S
N173 C176 1.372 . S
N174 C176 1.361 . S
N174 C177 1.377 . S
C175 N172 1.382 . S
C175 N173 1.371 . S
C175 C178 1.480 . S
C176 N173 1.372 . S
C176 N174 1.361 . S
C176 C184 1.457 . S
C177 N172 1.363 . S
C177 N174 1.377 . S
C177 C190 1.479 . S
C178 C175 1.480 . S
C178 C179 1.383 . S
C178 C183 1.385 . S
C179 H160 0.947 . S
C179 C178 1.383 . S
C179 C180 1.388 . S
C180 H161 0.946 . S
C180 C179 1.388 . S
C180 C181 1.384 . S
C181 C180 1.384 . S
C181 C182 1.377 . S
C182 H162 0.953 . S
C182 C181 1.377 . S
C182 C183 1.369 . S
C183 H163 0.945 . S
C183 C178 1.385 . S
C183 C182 1.369 . S
C184 C176 1.457 . S
C184 C185 1.372 . S
C184 C189 1.364 . S
C185 H164 0.952 . S
C185 C184 1.372 . S
C185 C186 1.389 . S
C186 H165 0.949 . S
C186 C185 1.389 . S
C186 C187 1.387 . S
C187 C186 1.387 . S
C187 C188 1.372 . S
C188 H166 0.950 . S
C188 C187 1.372 . S
C188 C189 1.379 . S
C189 H167 0.948 . S
C189 C184 1.364 . S
C189 C188 1.379 . S
C190 C159 1.383 . S
C190 C177 1.479 . S
C190 C191 1.398 . S
C191 C156 1.382 . S
C191 H168 0.951 . S
C191 C190 1.398 . S
C192 C193 1.384 . S
C192 H205 0.947 . S
C192 C227 1.382 . S
C193 C192 1.384 . S
C193 C194 1.378 . S
C194 C193 1.378 . S
C194 C195 1.378 . S
C194 H206 0.952 . S
C195 C194 1.378 . S
C195 H207 0.950 1_655 S
C195 C226 1.383 . S
H196 C215 0.947 . S
H197 C216 0.946 . S
H198 C218 0.953 . S
H199 C219 0.945 . S
H200 C221 0.952 . S
H201 C222 0.949 . S
H202 C224 0.950 1_655 S
H203 C225 0.948 1_655 S
H204 C227 0.951 . S
H205 C192 0.947 . S
H206 C194 0.952 . S
H207 C195 0.950 1_455 S
N208 C211 1.382 . S
N208 C213 1.363 . S
N209 C211 1.371 . S
N209 C212 1.372 . S
N210 C212 1.361 . S
N210 C213 1.377 . S
C211 N208 1.382 . S
C211 N209 1.371 . S
C211 C214 1.480 . S
C212 N209 1.372 . S
C212 N210 1.361 . S
C212 C220 1.457 . S
C213 N208 1.363 . S
C213 N210 1.377 . S
C213 C226 1.479 1_455 S
C214 C211 1.480 . S
C214 C215 1.383 . S
C214 C219 1.385 . S
C215 H196 0.947 . S
C215 C214 1.383 . S
C215 C216 1.388 . S
C216 H197 0.946 . S
C216 C215 1.388 . S
C216 C217 1.384 . S
C217 C216 1.384 . S
C217 C218 1.377 . S
C218 H198 0.953 . S
C218 C217 1.377 . S
C218 C219 1.369 . S
C219 H199 0.945 . S
C219 C214 1.385 . S
C219 C218 1.369 . S
C220 C212 1.457 . S
C220 C221 1.372 . S
C220 C225 1.364 . S
C221 H200 0.952 . S
C221 C220 1.372 . S
C221 C222 1.389 . S
C222 H201 0.949 . S
C222 C221 1.389 . S
C222 C223 1.391 . S
C223 C222 1.391 . S
C223 C224 1.376 . S
C224 H202 0.950 1_455 S
C224 C223 1.376 . S
C224 C225 1.379 . S
C225 H203 0.948 1_455 S
C225 C220 1.364 . S
C225 C224 1.379 . S
C226 C195 1.383 . S
C226 C213 1.479 1_655 S
C226 C227 1.398 . S
C227 C192 1.382 . S
C227 H204 0.951 . S
C227 C226 1.398 . S
C228 C229 1.384 . S
C228 H241 0.947 . S
C228 C263 1.382 . S
C229 C228 1.384 . S
C229 C230 1.378 . S
C230 C229 1.378 . S
C230 C231 1.378 . S
C230 H242 0.952 . S
C231 C230 1.378 . S
C231 H243 0.950 . S
C231 C262 1.383 . S
H232 C251 0.947 . S
H233 C252 0.946 . S
H234 C254 0.953 . S
H235 C255 0.945 . S
H236 C257 0.952 . S
H237 C258 0.949 . S
H238 C260 0.950 . S
H239 C261 0.948 . S
H240 C263 0.951 . S
H241 C228 0.947 . S
H242 C230 0.952 . S
H243 C231 0.950 . S
N244 C247 1.382 1_455 S
N244 C249 1.363 . S
N245 C247 1.371 . S
N245 C248 1.372 1_655 S
N246 C248 1.361 . S
N246 C249 1.377 . S
C247 N244 1.382 1_655 S
C247 N245 1.371 . S
C247 C250 1.480 . S
C248 N245 1.372 1_455 S
C248 N246 1.361 . S
C248 C256 1.457 . S
C249 N244 1.363 . S
C249 N246 1.377 . S
C249 C262 1.479 . S
C250 C247 1.480 . S
C250 C251 1.383 . S
C250 C255 1.385 . S
C251 H232 0.947 . S
C251 C250 1.383 . S
C251 C252 1.388 . S
C252 H233 0.946 . S
C252 C251 1.388 . S
C252 C253 1.384 . S
C253 C252 1.384 . S
C253 C254 1.377 . S
C254 H234 0.953 . S
C254 C253 1.377 . S
C254 C255 1.369 . S
C255 H235 0.945 . S
C255 C250 1.385 . S
C255 C254 1.369 . S
C256 C248 1.457 . S
C256 C257 1.372 1_455 S
C256 C261 1.364 . S
C257 H236 0.952 . S
C257 C256 1.372 1_655 S
C257 C258 1.389 . S
C258 H237 0.949 . S
C258 C257 1.389 . S
C258 C259 1.374 1_655 S
C259 C258 1.374 1_455 S
C259 C260 1.384 . S
C260 H238 0.950 . S
C260 C259 1.384 . S
C260 C261 1.379 . S
C261 H239 0.948 . S
C261 C256 1.364 . S
C261 C260 1.379 . S
C262 C231 1.383 . S
C262 C249 1.479 . S
C262 C263 1.398 . S
C263 C228 1.382 . S
C263 H240 0.951 . S
C263 C262 1.398 . S
C264 C265 1.384 . S
C264 H277 0.947 . S
C264 C299 1.382 . S
C265 C264 1.384 . S
C265 C266 1.378 . S
C266 C265 1.378 . S
C266 C267 1.378 . S
C266 H278 0.952 . S
C267 C266 1.378 . S
C267 H279 0.950 . S
C267 C298 1.383 . S
H268 C287 0.947 . S
H269 C288 0.946 . S
H270 C290 0.953 . S
H271 C291 0.945 . S
H272 C293 0.952 . S
H273 C294 0.949 . S
H274 C296 0.950 . S
H275 C297 0.948 . S
H276 C299 0.951 . S
H277 C264 0.947 . S
H278 C266 0.952 . S
H279 C267 0.950 . S
N280 C283 1.382 1_545 S
N280 C285 1.363 . S
N281 C283 1.371 . S
N281 C284 1.372 1_565 S
N282 C284 1.361 . S
N282 C285 1.377 . S
C283 N280 1.382 1_565 S
C283 N281 1.371 . S
C283 C286 1.480 . S
C284 N281 1.372 1_545 S
C284 N282 1.361 . S
C284 C292 1.457 . S
C285 N280 1.363 . S
C285 N282 1.377 . S
C285 C298 1.479 . S
C286 C283 1.480 . S
C286 C287 1.383 . S
C286 C291 1.385 . S
C287 H268 0.947 . S
C287 C286 1.383 . S
C287 C288 1.388 . S
C288 H269 0.946 . S
C288 C287 1.388 . S
C288 C289 1.384 . S
C289 C288 1.384 . S
C289 C290 1.377 . S
C290 H270 0.953 . S
C290 C289 1.377 . S
C290 C291 1.369 . S
C291 H271 0.945 . S
C291 C286 1.385 . S
C291 C290 1.369 . S
C292 C284 1.457 . S
C292 C293 1.372 1_545 S
C292 C297 1.364 . S
C293 H272 0.952 . S
C293 C292 1.372 1_565 S
C293 C294 1.389 . S
C294 H273 0.949 . S
C294 C293 1.389 . S
C294 C295 1.387 . S
C295 C294 1.387 . S
C295 C296 1.372 1_565 S
C296 H274 0.950 . S
C296 C295 1.372 1_545 S
C296 C297 1.379 . S
C297 H275 0.948 . S
C297 C292 1.364 . S
C297 C296 1.379 . S
C298 C267 1.383 . S
C298 C285 1.479 . S
C298 C299 1.398 . S
C299 C264 1.382 . S
C299 H276 0.951 . S
C299 C298 1.398 . S
C300 C301 1.384 . S
C300 H313 0.947 . S
C300 C335 1.382 . S
C301 C300 1.384 . S
C301 C302 1.378 . S
C302 C301 1.378 . S
C302 C303 1.378 . S
C302 H314 0.952 . S
C303 C302 1.378 . S
C303 H315 0.950 . S
C303 C334 1.383 . S
H304 C323 0.947 . S
H305 C324 0.946 . S
H306 C326 0.953 . S
H307 C327 0.945 . S
H308 C329 0.952 . S
H309 C330 0.949 . S
H310 C332 0.950 . S
H311 C333 0.948 . S
H312 C335 0.951 . S
H313 C300 0.947 . S
H314 C302 0.952 . S
H315 C303 0.950 . S
N316 C319 1.382 . S
N316 C321 1.363 . S
N317 C319 1.371 . S
N317 C320 1.372 . S
N318 C320 1.361 . S
N318 C321 1.377 . S
C319 N316 1.382 . S
C319 N317 1.371 . S
C319 C322 1.480 . S
C320 N317 1.372 . S
C320 N318 1.361 . S
C320 C328 1.457 . S
C321 N316 1.363 . S
C321 N318 1.377 . S
C321 C334 1.479 . S
C322 C319 1.480 . S
C322 C323 1.383 . S
C322 C327 1.385 . S
C323 H304 0.947 . S
C323 C322 1.383 . S
C323 C324 1.388 . S
C324 H305 0.946 . S
C324 C323 1.388 . S
C324 C325 1.384 . S
C325 C324 1.384 . S
C325 C326 1.377 . S
C326 H306 0.953 . S
C326 C325 1.377 . S
C326 C327 1.369 . S
C327 H307 0.945 . S
C327 C322 1.385 . S
C327 C326 1.369 . S
C328 C320 1.457 . S
C328 C329 1.372 . S
C328 C333 1.364 . S
C329 H308 0.952 . S
C329 C328 1.372 . S
C329 C330 1.389 1_554 S
C330 H309 0.949 . S
C330 C329 1.389 1_556 S
C330 C331 1.387 . S
C331 C330 1.387 . S
C331 C332 1.372 . S
C332 H310 0.950 . S
C332 C331 1.372 . S
C332 C333 1.379 1_556 S
C333 H311 0.948 . S
C333 C328 1.364 . S
C333 C332 1.379 1_554 S
C334 C303 1.383 . S
C334 C321 1.479 . S
C334 C335 1.398 . S
C335 C300 1.382 . S
C335 H312 0.951 . S
C335 C334 1.398 . S
C336 C337 1.369 . S
C336 C338 1.419 . S
C336 H340 0.930 . S
C337 C336 1.369 . S
C337 C346 1.429 . S
C338 C336 1.419 . S
C338 C339 1.363 . S
C338 H341 0.929 . S
C339 C338 1.363 . S
C339 C345 1.428 . S
H340 C336 0.930 . S
H341 C338 0.929 . S
S342 N343 1.613 . S
S342 N344 1.610 . S
N343 S342 1.613 . S
N343 C346 1.350 . S
N344 S342 1.610 . S
N344 C345 1.351 . S
C345 C339 1.428 . S
C345 N344 1.351 . S
C345 C346 1.434 . S
C346 C337 1.429 . S
C346 N343 1.350 . S
C346 C345 1.434 . S
C347 C348 1.369 . S
C347 C349 1.419 . S
C347 H351 0.930 . S
C348 C347 1.369 . S
C348 C357 1.429 . S
C349 C347 1.419 . S
C349 C350 1.363 . S
C349 H352 0.929 . S
C350 C349 1.363 . S
C350 C356 1.428 . S
H351 C347 0.930 . S
H352 C349 0.929 . S
S353 N354 1.613 . S
S353 N355 1.610 . S
N354 S353 1.613 . S
N354 C357 1.350 . S
N355 S353 1.610 . S
N355 C356 1.351 . S
C356 C350 1.428 . S
C356 N355 1.351 . S
C356 C357 1.434 . S
C357 C348 1.429 . S
C357 N354 1.350 . S
C357 C356 1.434 . S
C358 C359 1.369 . S
C358 C360 1.419 . S
C358 H362 0.930 . S
C359 C358 1.369 . S
C359 C368 1.429 . S
C360 C358 1.419 . S
C360 C361 1.363 . S
C360 H363 0.929 . S
C361 C360 1.363 . S
C361 C367 1.428 . S
H362 C358 0.930 . S
H363 C360 0.929 . S
S364 N365 1.613 . S
S364 N366 1.610 . S
N365 S364 1.613 . S
N365 C368 1.350 . S
N366 S364 1.610 . S
N366 C367 1.351 . S
C367 C361 1.428 . S
C367 N366 1.351 . S
C367 C368 1.434 . S
C368 C359 1.429 . S
C368 N365 1.350 . S
C368 C367 1.434 . S
C369 C370 1.369 . S
C369 C371 1.419 . S
C369 H373 0.930 . S
C370 C369 1.369 . S
C370 C379 1.429 . S
C371 C369 1.419 . S
C371 C372 1.363 . S
C371 H374 0.929 . S
C372 C371 1.363 . S
C372 C378 1.428 . S
H373 C369 0.930 . S
H374 C371 0.929 . S
S375 N376 1.613 . S
S375 N377 1.610 . S
N376 S375 1.613 . S
N376 C379 1.350 . S
N377 S375 1.610 . S
N377 C378 1.351 . S
C378 C372 1.428 . S
C378 N377 1.351 . S
C378 C379 1.434 . S
C379 C370 1.429 . S
C379 N376 1.350 . S
C379 C378 1.434 . S
C380 C381 1.369 . S
C380 C382 1.419 . S
C380 H384 0.930 . S
C381 C380 1.369 . S
C381 C390 1.429 . S
C382 C380 1.419 . S
C382 C383 1.363 . S
C382 H385 0.929 . S
C383 C382 1.363 . S
C383 C389 1.428 . S
H384 C380 0.930 . S
H385 C382 0.929 . S
S386 N387 1.613 . S
S386 N388 1.610 . S
N387 S386 1.613 . S
N387 C390 1.350 . S
N388 S386 1.610 . S
N388 C389 1.351 . S
C389 C383 1.428 . S
C389 N388 1.351 . S
C389 C390 1.434 . S
C390 C381 1.429 . S
C390 N387 1.350 . S
C390 C389 1.434 . S
C391 C392 1.369 . S
C391 C393 1.419 . S
C391 H395 0.930 . S
C392 C391 1.369 . S
C392 C401 1.429 . S
C393 C391 1.419 . S
C393 C394 1.363 . S
C393 H396 0.929 . S
C394 C393 1.363 . S
C394 C400 1.428 . S
H395 C391 0.930 . S
H396 C393 0.929 . S
S397 N398 1.613 . S
S397 N399 1.610 . S
N398 S397 1.613 . S
N398 C401 1.350 . S
N399 S397 1.610 . S
N399 C400 1.351 . S
C400 C394 1.428 . S
C400 N399 1.351 . S
C400 C401 1.434 . S
C401 C392 1.429 . S
C401 N398 1.350 . S
C401 C400 1.434 . S
C402 C403 1.369 . S
C402 C404 1.419 . S
C402 H406 0.930 . S
C403 C402 1.369 . S
C403 C412 1.429 . S
C404 C402 1.419 . S
C404 C405 1.363 . S
C404 H407 0.929 . S
C405 C404 1.363 . S
C405 C411 1.428 . S
H406 C402 0.930 . S
H407 C404 0.929 . S
S408 N409 1.613 . S
S408 N410 1.610 . S
N409 S408 1.613 . S
N409 C412 1.350 . S
N410 S408 1.610 . S
N410 C411 1.351 . S
C411 C405 1.428 . S
C411 N410 1.351 . S
C411 C412 1.434 . S
C412 C403 1.429 . S
C412 N409 1.350 . S
C412 C411 1.434 . S
C413 C414 1.369 . S
C413 C415 1.419 . S
C413 H417 0.930 . S
C414 C413 1.369 . S
C414 C423 1.429 . S
C415 C413 1.419 . S
C415 C416 1.363 . S
C415 H418 0.929 . S
C416 C415 1.363 . S
C416 C422 1.428 . S
H417 C413 0.930 . S
H418 C415 0.929 . S
S419 N420 1.613 . S
S419 N421 1.610 . S
N420 S419 1.613 . S
N420 C423 1.350 . S
N421 S419 1.610 . S
N421 C422 1.351 . S
C422 C416 1.428 . S
C422 N421 1.351 . S
C422 C423 1.434 . S
C423 C414 1.429 . S
C423 N420 1.350 . S
C423 C422 1.434 . S
C424 C425 1.369 . S
C424 C426 1.419 . S
C424 H428 0.930 . S
C425 C424 1.369 . S
C425 C434 1.429 . S
C426 C424 1.419 . S
C426 C427 1.363 . S
C426 H429 0.929 . S
C427 C426 1.363 . S
C427 C433 1.428 . S
H428 C424 0.930 . S
H429 C426 0.929 . S
S430 N431 1.613 . S
S430 N432 1.610 . S
N431 S430 1.613 . S
N431 C434 1.350 . S
N432 S430 1.610 . S
N432 C433 1.351 . S
C433 C427 1.428 . S
C433 N432 1.351 . S
C433 C434 1.434 . S
C434 C425 1.429 . S
C434 N431 1.350 . S
C434 C433 1.434 . S
C435 C436 1.369 . S
C435 C437 1.419 . S
C435 H439 0.930 . S
C436 C435 1.369 . S
C436 C445 1.429 . S
C437 C435 1.419 . S
C437 C438 1.363 . S
C437 H440 0.929 . S
C438 C437 1.363 . S
C438 C444 1.428 . S
H439 C435 0.930 . S
H440 C437 0.929 . S
S441 N442 1.613 . S
S441 N443 1.610 . S
N442 S441 1.613 . S
N442 C445 1.350 . S
N443 S441 1.610 . S
N443 C444 1.351 . S
C444 C438 1.428 . S
C444 N443 1.351 . S
C444 C445 1.434 . S
C445 C436 1.429 . S
C445 N442 1.350 . S
C445 C444 1.434 . S
C446 C447 1.369 . S
C446 C448 1.419 . S
C446 H450 0.930 . S
C447 C446 1.369 . S
C447 C456 1.429 . S
C448 C446 1.419 . S
C448 C449 1.363 . S
C448 H451 0.929 . S
C449 C448 1.363 . S
C449 C455 1.428 . S
H450 C446 0.930 . S
H451 C448 0.929 . S
S452 N453 1.613 . S
S452 N454 1.610 . S
N453 S452 1.613 . S
N453 C456 1.350 . S
N454 S452 1.610 . S
N454 C455 1.351 . S
C455 C449 1.428 . S
C455 N454 1.351 . S
C455 C456 1.434 . S
C456 C447 1.429 . S
C456 N453 1.350 . S
C456 C455 1.434 . S
C457 C458 1.369 . S
C457 C459 1.419 . S
C457 H461 0.930 . S
C458 C457 1.369 . S
C458 C467 1.429 . S
C459 C457 1.419 . S
C459 C460 1.363 . S
C459 H462 0.929 . S
C460 C459 1.363 . S
C460 C466 1.428 . S
H461 C457 0.930 . S
H462 C459 0.929 . S
S463 N464 1.613 . S
S463 N465 1.610 . S
N464 S463 1.613 . S
N464 C467 1.350 . S
N465 S463 1.610 . S
N465 C466 1.351 . S
C466 C460 1.428 . S
C466 N465 1.351 . S
C466 C467 1.434 . S
C467 C458 1.429 . S
C467 N464 1.350 . S
C467 C466 1.434 . S
C468 C469 1.369 . S
C468 C470 1.419 . S
C468 H472 0.930 . S
C469 C468 1.369 . S
C469 C478 1.429 . S
C470 C468 1.419 . S
C470 C471 1.363 . S
C470 H473 0.929 . S
C471 C470 1.363 . S
C471 C477 1.428 . S
H472 C468 0.930 . S
H473 C470 0.929 . S
S474 N475 1.613 . S
S474 N476 1.610 . S
N475 S474 1.613 . S
N475 C478 1.350 . S
N476 S474 1.610 . S
N476 C477 1.351 . S
C477 C471 1.428 . S
C477 N476 1.351 . S
C477 C478 1.434 . S
C478 C469 1.429 . S
C478 N475 1.350 . S
C478 C477 1.434 . S
C479 C480 1.369 . S
C479 C481 1.419 . S
C479 H483 0.930 . S
C480 C479 1.369 . S
C480 C489 1.429 . S
C481 C479 1.419 . S
C481 C482 1.363 . S
C481 H484 0.929 . S
C482 C481 1.363 . S
C482 C488 1.428 . S
H483 C479 0.930 . S
H484 C481 0.929 . S
S485 N486 1.613 . S
S485 N487 1.610 . S
N486 S485 1.613 . S
N486 C489 1.350 1_565 S
N487 S485 1.610 . S
N487 C488 1.351 1_565 S
C488 C482 1.428 . S
C488 N487 1.351 1_545 S
C488 C489 1.434 . S
C489 C480 1.429 . S
C489 N486 1.350 1_545 S
C489 C488 1.434 . S
C490 C491 1.369 . S
C490 C492 1.419 . S
C490 H494 0.930 . S
C491 C490 1.369 . S
C491 C500 1.429 . S
C492 C490 1.419 . S
C492 C493 1.363 . S
C492 H495 0.929 . S
C493 C492 1.363 . S
C493 C499 1.428 . S
H494 C490 0.930 . S
H495 C492 0.929 . S
S496 N497 1.613 . S
S496 N498 1.610 . S
N497 S496 1.613 . S
N497 C500 1.350 . S
N498 S496 1.610 . S
N498 C499 1.351 . S
C499 C493 1.428 . S
C499 N498 1.351 . S
C499 C500 1.434 . S
C500 C491 1.429 . S
C500 N497 1.350 . S
C500 C499 1.434 . S
C501 C502 1.369 1_565 S
C501 C503 1.419 . S
C501 H505 0.930 . S
C502 C501 1.369 1_545 S
C502 C511 1.429 . S
C503 C501 1.419 . S
C503 C504 1.363 . S
C503 H506 0.929 . S
C504 C503 1.363 . S
C504 C510 1.428 1_565 S
H505 C501 0.930 . S
H506 C503 0.929 . S
S507 N508 1.613 . S
S507 N509 1.610 . S
N508 S507 1.613 . S
N508 C511 1.350 . S
N509 S507 1.610 . S
N509 C510 1.351 . S
C510 C504 1.428 1_545 S
C510 N509 1.351 . S
C510 C511 1.434 . S
C511 C502 1.429 . S
C511 N508 1.350 . S
C511 C510 1.434 . S
C512 C513 1.369 . S
C512 C514 1.419 . S
C512 H516 0.930 . S
C513 C512 1.369 . S
C513 C522 1.429 . S
C514 C512 1.419 . S
C514 C515 1.363 . S
C514 H517 0.929 . S
C515 C514 1.363 . S
C515 C521 1.428 . S
H516 C512 0.930 . S
H517 C514 0.929 . S
S518 N519 1.613 . S
S518 N520 1.610 . S
N519 S518 1.613 . S
N519 C522 1.350 . S
N520 S518 1.610 . S
N520 C521 1.351 . S
C521 C515 1.428 . S
C521 N520 1.351 . S
C521 C522 1.434 . S
C522 C513 1.429 . S
C522 N519 1.350 . S
C522 C521 1.434 . S
C523 C524 1.369 . S
C523 C525 1.419 . S
C523 H527 0.930 . S
C524 C523 1.369 . S
C524 C533 1.429 . S
C525 C523 1.419 . S
C525 C526 1.367 . S
C525 H528 0.929 1_455 S
C526 C525 1.367 . S
C526 C532 1.427 . S
H527 C523 0.930 . S
H528 C525 0.929 1_655 S
S529 N530 1.613 . S
S529 N531 1.610 . S
N530 S529 1.613 . S
N530 C533 1.350 . S
N531 S529 1.610 . S
N531 C532 1.351 . S
C532 C526 1.427 . S
C532 N531 1.351 . S
C532 C533 1.434 . S
C533 C524 1.429 . S
C533 N530 1.350 . S
C533 C532 1.434 . S
C337 C25 0.663 . S
C339 C325 0.657 . S
C348 C65 0.640 . S
C350 C253 0.576 . S
C359 C105 0.738 . S
C361 C289 0.723 . S
C370 C4 0.728 . S
C372 C301 0.735 . S
C383 C229 0.589 . S
C381 C44 0.635 . S
C394 C265 0.691 . S
C392 C84 0.675 . S
C403 C60 3.019 . S
C405 C181 2.928 . S
C414 C100 3.178 . S
C416 C193 3.113 . S
C425 C31 3.205 . S
C427 C121 3.125 . S
C438 C157 3.132 . S
C436 C71 3.203 . S
C449 C217 2.955 . S
C447 C111 3.046 . S
C458 C20 3.026 . S
C460 C145 2.934 . S
C471 C223 1.809 1_554 S
C469 C2 1.751 . S
C480 C42 1.779 . S
C482 C151 1.810 . S
C491 C82 1.766 . S
C493 C187 1.815 . S
C504 C295 1.039 . S
C502 C63 1.072 . S
C515 C331 1.124 . S
C513 C103 1.126 . S
C524 C23 1.033 . S
C526 C259 1.016 . S
