# Generated by pormake.
# Topology eea, (3,6)-cn, num edge types: 1
# Building blocks:
#     Node 0, Type 0, BuildingBlock: CUQRIR_clean_linker_1, # of connection points: 3
#     Node 1, Type 0, BuildingBlock: CUQRIR_clean_linker_1, # of connection points: 3
#     Node 2, Type 0, BuildingBlock: CUQRIR_clean_linker_1, # of connection points: 3
#     Node 3, Type 0, BuildingBlock: CUQRIR_clean_linker_1, # of connection points: 3
#     Node 4, Type 0, BuildingBlock: CUQRIR_clean_linker_1, # of connection points: 3
#     Node 5, Type 0, BuildingBlock: CUQRIR_clean_linker_1, # of connection points: 3
#     Node 6, Type 0, BuildingBlock: CUQRIR_clean_linker_1, # of connection points: 3
#     Node 7, Type 0, BuildingBlock: CUQRIR_clean_linker_1, # of connection points: 3
#     Node 8, Type 0, BuildingBlock: CUQRIR_clean_linker_1, # of connection points: 3
#     Node 9, Type 0, BuildingBlock: CUQRIR_clean_linker_1, # of connection points: 3
#     Node 10, Type 0, BuildingBlock: CUQRIR_clean_linker_1, # of connection points: 3
#     Node 11, Type 0, BuildingBlock: CUQRIR_clean_linker_1, # of connection points: 3
#     Node 12, Type 0, BuildingBlock: CUQRIR_clean_linker_1, # of connection points: 3
#     Node 13, Type 0, BuildingBlock: CUQRIR_clean_linker_1, # of connection points: 3
#     Node 14, Type 0, BuildingBlock: CUQRIR_clean_linker_1, # of connection points: 3
#     Node 15, Type 0, BuildingBlock: CUQRIR_clean_linker_1, # of connection points: 3
#     Node 16, Type 0, BuildingBlock: CUQRIR_clean_linker_1, # of connection points: 3
#     Node 17, Type 0, BuildingBlock: CUQRIR_clean_linker_1, # of connection points: 3
#     Node 18, Type 1, BuildingBlock: CUWYAW_clean_sbu_0, # of connection points: 6
#     Node 19, Type 1, BuildingBlock: CUWYAW_clean_sbu_0, # of connection points: 6
#     Node 20, Type 1, BuildingBlock: CUWYAW_clean_sbu_0, # of connection points: 6
#     Node 21, Type 1, BuildingBlock: CUWYAW_clean_sbu_0, # of connection points: 6
#     Node 22, Type 1, BuildingBlock: CUWYAW_clean_sbu_0, # of connection points: 6
#     Node 23, Type 1, BuildingBlock: CUWYAW_clean_sbu_0, # of connection points: 6
#     Node 24, Type 1, BuildingBlock: CUWYAW_clean_sbu_0, # of connection points: 6
#     Node 25, Type 1, BuildingBlock: CUWYAW_clean_sbu_0, # of connection points: 6
#     Node 26, Type 1, BuildingBlock: CUWYAW_clean_sbu_0, # of connection points: 6
#     Edge 27, Type (0, 1), BuildingBlock: AJUNOK_clean_linker_0, # of connection points: 2
#     Edge 28, Type (0, 1), BuildingBlock: AJUNOK_clean_linker_0, # of connection points: 2
#     Edge 29, Type (0, 1), BuildingBlock: AJUNOK_clean_linker_0, # of connection points: 2
#     Edge 30, Type (0, 1), BuildingBlock: AJUNOK_clean_linker_0, # of connection points: 2
#     Edge 31, Type (0, 1), BuildingBlock: AJUNOK_clean_linker_0, # of connection points: 2
#     Edge 32, Type (0, 1), BuildingBlock: AJUNOK_clean_linker_0, # of connection points: 2
#     Edge 33, Type (0, 1), BuildingBlock: AJUNOK_clean_linker_0, # of connection points: 2
#     Edge 34, Type (0, 1), BuildingBlock: AJUNOK_clean_linker_0, # of connection points: 2
#     Edge 35, Type (0, 1), BuildingBlock: AJUNOK_clean_linker_0, # of connection points: 2
#     Edge 36, Type (0, 1), BuildingBlock: AJUNOK_clean_linker_0, # of connection points: 2
#     Edge 37, Type (0, 1), BuildingBlock: AJUNOK_clean_linker_0, # of connection points: 2
#     Edge 38, Type (0, 1), BuildingBlock: AJUNOK_clean_linker_0, # of connection points: 2
#     Edge 39, Type (0, 1), BuildingBlock: AJUNOK_clean_linker_0, # of connection points: 2
#     Edge 40, Type (0, 1), BuildingBlock: AJUNOK_clean_linker_0, # of connection points: 2
#     Edge 41, Type (0, 1), BuildingBlock: AJUNOK_clean_linker_0, # of connection points: 2
#     Edge 42, Type (0, 1), BuildingBlock: AJUNOK_clean_linker_0, # of connection points: 2
#     Edge 43, Type (0, 1), BuildingBlock: AJUNOK_clean_linker_0, # of connection points: 2
#     Edge 44, Type (0, 1), BuildingBlock: AJUNOK_clean_linker_0, # of connection points: 2
#     Edge 45, Type (0, 1), BuildingBlock: AJUNOK_clean_linker_0, # of connection points: 2
#     Edge 46, Type (0, 1), BuildingBlock: AJUNOK_clean_linker_0, # of connection points: 2
#     Edge 47, Type (0, 1), BuildingBlock: AJUNOK_clean_linker_0, # of connection points: 2
#     Edge 48, Type (0, 1), BuildingBlock: AJUNOK_clean_linker_0, # of connection points: 2
#     Edge 49, Type (0, 1), BuildingBlock: AJUNOK_clean_linker_0, # of connection points: 2
#     Edge 50, Type (0, 1), BuildingBlock: AJUNOK_clean_linker_0, # of connection points: 2
#     Edge 51, Type (0, 1), BuildingBlock: AJUNOK_clean_linker_0, # of connection points: 2
#     Edge 52, Type (0, 1), BuildingBlock: AJUNOK_clean_linker_0, # of connection points: 2
#     Edge 53, Type (0, 1), BuildingBlock: AJUNOK_clean_linker_0, # of connection points: 2
#     Edge 54, Type (0, 1), BuildingBlock: AJUNOK_clean_linker_0, # of connection points: 2
#     Edge 55, Type (0, 1), BuildingBlock: AJUNOK_clean_linker_0, # of connection points: 2
#     Edge 56, Type (0, 1), BuildingBlock: AJUNOK_clean_linker_0, # of connection points: 2
#     Edge 57, Type (0, 1), BuildingBlock: AJUNOK_clean_linker_0, # of connection points: 2
#     Edge 58, Type (0, 1), BuildingBlock: AJUNOK_clean_linker_0, # of connection points: 2
#     Edge 59, Type (0, 1), BuildingBlock: AJUNOK_clean_linker_0, # of connection points: 2
#     Edge 60, Type (0, 1), BuildingBlock: AJUNOK_clean_linker_0, # of connection points: 2
#     Edge 61, Type (0, 1), BuildingBlock: AJUNOK_clean_linker_0, # of connection points: 2
#     Edge 62, Type (0, 1), BuildingBlock: AJUNOK_clean_linker_0, # of connection points: 2
#     Edge 63, Type (0, 1), BuildingBlock: AJUNOK_clean_linker_0, # of connection points: 2
#     Edge 64, Type (0, 1), BuildingBlock: AJUNOK_clean_linker_0, # of connection points: 2
#     Edge 65, Type (0, 1), BuildingBlock: AJUNOK_clean_linker_0, # of connection points: 2
#     Edge 66, Type (0, 1), BuildingBlock: AJUNOK_clean_linker_0, # of connection points: 2
#     Edge 67, Type (0, 1), BuildingBlock: AJUNOK_clean_linker_0, # of connection points: 2
#     Edge 68, Type (0, 1), BuildingBlock: AJUNOK_clean_linker_0, # of connection points: 2
#     Edge 69, Type (0, 1), BuildingBlock: AJUNOK_clean_linker_0, # of connection points: 2
#     Edge 70, Type (0, 1), BuildingBlock: AJUNOK_clean_linker_0, # of connection points: 2
#     Edge 71, Type (0, 1), BuildingBlock: AJUNOK_clean_linker_0, # of connection points: 2
#     Edge 72, Type (0, 1), BuildingBlock: AJUNOK_clean_linker_0, # of connection points: 2
#     Edge 73, Type (0, 1), BuildingBlock: AJUNOK_clean_linker_0, # of connection points: 2
#     Edge 74, Type (0, 1), BuildingBlock: AJUNOK_clean_linker_0, # of connection points: 2
#     Edge 75, Type (0, 1), BuildingBlock: AJUNOK_clean_linker_0, # of connection points: 2
#     Edge 76, Type (0, 1), BuildingBlock: AJUNOK_clean_linker_0, # of connection points: 2
#     Edge 77, Type (0, 1), BuildingBlock: AJUNOK_clean_linker_0, # of connection points: 2
#     Edge 78, Type (0, 1), BuildingBlock: AJUNOK_clean_linker_0, # of connection points: 2
#     Edge 79, Type (0, 1), BuildingBlock: AJUNOK_clean_linker_0, # of connection points: 2
#     Edge 80, Type (0, 1), BuildingBlock: AJUNOK_clean_linker_0, # of connection points: 2
# Relax obj value: 0.108
# Max RMSD: 0.271
# Mean RMSD: 0.197
data_MOF--net-eea--node1-CUWYAW_clean_sbu_0--node2-CUQRIR_clean_linker_1--edge1-AJUNOK_clean_linker_0
_symmetry_space_group_name_H-M    P1
_symmetry_Int_Tables_number       1
_symmetry_cell_setting            triclinic
loop_
_symmetry_equiv_pos_as_xyz
'x, y, z'
_cell_length_a     34.669674
_cell_length_b     34.659823
_cell_length_c     50.87388
_cell_angle_alpha  86.625367
_cell_angle_beta   92.731857
_cell_angle_gamma 119.08749
loop_
_atom_site_label
_atom_site_type_symbol
_atom_site_fract_x
_atom_site_fract_y
_atom_site_fract_z
_atom_type_partial_charge
C0 C 0.20091 0.11418 0.40242 0.0
N1 N 0.21483 0.14759 0.41931 0.0
N2 N 0.20918 0.08174 0.41257 0.0
C3 C 0.18068 0.114 0.3756 0.0
C4 C 0.22828 0.09654 0.4364 0.0
N5 N 0.23203 0.13654 0.44037 0.0
C6 C 0.24043 0.07067 0.45674 0.0
H7 H 0.14436 0.09865 0.37739 0.0
H8 H 0.18783 0.09454 0.36196 0.0
H9 H 0.1932 0.14819 0.36724 0.0
H10 H 0.27649 0.08286 0.45623 0.0
H11 H 0.22266 0.03483 0.45303 0.0
H12 H 0.23275 0.0757 0.47676 0.0
C13 C 0.9125 0.12867 0.40704 0.0
N14 N 0.93167 0.16103 0.42477 0.0
N15 N 0.87766 0.09238 0.41759 0.0
C16 C 0.92763 0.13271 0.37924 0.0
C17 C 0.87628 0.1035 0.44242 0.0
N18 N 0.90932 0.14489 0.44705 0.0
C19 C 0.84201 0.07432 0.46214 0.0
H20 H 0.9172 0.15386 0.36714 0.0
H21 H 0.91326 0.10032 0.37001 0.0
H22 H 0.96418 0.14864 0.37892 0.0
H23 H 0.85837 0.07175 0.48092 0.0
H24 H 0.82052 0.04063 0.455 0.0
H25 H 0.82135 0.08954 0.46633 0.0
C26 C 0.88681 0.76502 0.40374 0.0
N27 N 0.90937 0.75185 0.4211 0.0
N28 N 0.84918 0.75882 0.4144 0.0
C29 C 0.90413 0.78864 0.3776 0.0
C30 C 0.84957 0.74167 0.43883 0.0
N31 N 0.88629 0.73774 0.4431 0.0
C32 C 0.81516 0.73099 0.45911 0.0
H33 H 0.88478 0.80429 0.36913 0.0
H34 H 0.90259 0.76454 0.36361 0.0
H35 H 0.93924 0.81433 0.37984 0.0
H36 H 0.8083 0.70011 0.47051 0.0
H37 H 0.78402 0.7273 0.44977 0.0
H38 H 0.82782 0.7581 0.47311 0.0
C39 C 0.13657 0.28295 0.66407 0.0
N40 N 0.16789 0.29021 0.6466 0.0
N41 N 0.10514 0.29104 0.65248 0.0
C42 C 0.13386 0.26266 0.69142 0.0
C43 C 0.1182 0.30292 0.6273 0.0
N44 N 0.156 0.30181 0.62357 0.0
C45 C 0.09382 0.31578 0.60643 0.0
H46 H 0.14755 0.23957 0.69215 0.0
H47 H 0.09941 0.24457 0.69833 0.0
H48 H 0.15373 0.28939 0.70515 0.0
H49 H 0.07589 0.33068 0.61547 0.0
H50 H 0.0692 0.28592 0.59626 0.0
H51 H 0.11691 0.33951 0.59159 0.0
C52 C 0.82149 0.92185 0.661 0.0
N53 N 0.80897 0.88996 0.64312 0.0
N54 N 0.82335 0.95901 0.64963 0.0
C55 C 0.83131 0.91656 0.68976 0.0
C56 C 0.81221 0.94902 0.62409 0.0
N57 N 0.80399 0.90733 0.61995 0.0
C58 C 0.80769 0.97937 0.60326 0.0
H59 H 0.79988 0.90038 0.70056 0.0
H60 H 0.85297 0.94877 0.6986 0.0
H61 H 0.84739 0.89562 0.6925 0.0
H62 H 0.83023 0.98528 0.58693 0.0
H63 H 0.81572 1.01172 0.61103 0.0
H64 H 0.77347 0.96332 0.595 0.0
C65 C 0.11837 0.9344 0.65884 0.0
N66 N 0.10054 0.90027 0.64235 0.0
N67 N 0.15712 0.9675 0.64955 0.0
C68 C 0.09919 0.93403 0.68481 0.0
C69 C 0.16227 0.95207 0.62687 0.0
N70 N 0.12812 0.9112 0.62252 0.0
C71 C 0.19955 0.97795 0.60821 0.0
H72 H 0.07302 0.94352 0.68131 0.0
H73 H 0.12476 0.95758 0.69834 0.0
H74 H 0.08378 0.90034 0.69426 0.0
H75 H 0.22597 0.96908 0.61269 0.0
H76 H 0.21362 1.01403 0.61033 0.0
H77 H 0.18819 0.96987 0.5875 0.0
C78 C 0.87803 0.44793 0.73174 0.0
N79 N 0.89116 0.48127 0.74855 0.0
N80 N 0.88203 0.41364 0.74325 0.0
C81 C 0.8592 0.44808 0.7045 0.0
C82 C 0.89821 0.42757 0.76775 0.0
N83 N 0.90304 0.46823 0.77111 0.0
C84 C 0.91419 0.404 0.78744 0.0
H85 H 0.84282 0.46882 0.70324 0.0
H86 H 0.83505 0.41402 0.6989 0.0
H87 H 0.88638 0.46211 0.69021 0.0
H88 H 0.9213 0.3803 0.77783 0.0
H89 H 0.88854 0.38581 0.8024 0.0
H90 H 0.94455 0.42816 0.79786 0.0
C91 C 0.58469 0.46021 0.74188 0.0
N92 N 0.60471 0.49249 0.75962 0.0
N93 N 0.54876 0.42488 0.75228 0.0
C94 C 0.59962 0.46353 0.71409 0.0
C95 C 0.54795 0.4363 0.77713 0.0
N96 N 0.58197 0.47714 0.7818 0.0
C97 C 0.51363 0.40762 0.79696 0.0
H98 H 0.59047 0.43067 0.70676 0.0
H99 H 0.63589 0.48479 0.7127 0.0
H100 H 0.58324 0.47819 0.70098 0.0
H101 H 0.4951 0.37277 0.79109 0.0
H102 H 0.49011 0.4204 0.79866 0.0
H103 H 0.52936 0.40894 0.81663 0.0
C104 C 0.5549 0.09903 0.7383 0.0
N105 N 0.57827 0.08591 0.75509 0.0
N106 N 0.51959 0.09593 0.75038 0.0
C107 C 0.56932 0.11978 0.71116 0.0
C108 C 0.52234 0.08104 0.7751 0.0
N109 N 0.55829 0.07554 0.77814 0.0
C110 C 0.49045 0.07289 0.79654 0.0
H111 H 0.60582 0.13933 0.71032 0.0
H112 H 0.55508 0.14156 0.70507 0.0
H113 H 0.55778 0.09322 0.69686 0.0
H114 H 0.45895 0.06991 0.7883 0.0
H115 H 0.50551 0.10085 0.80999 0.0
H116 H 0.48359 0.04234 0.80833 0.0
C117 C 0.80216 0.6218 0.9943 0.0
N118 N 0.83515 0.63349 0.97717 0.0
N119 N 0.76796 0.6247 0.98228 0.0
C120 C 0.80075 0.60174 1.0216 0.0
C121 C 0.78088 0.6377 0.95718 0.0
N122 N 0.82152 0.6427 0.95401 0.0
C123 C 0.75327 0.64431 0.93555 0.0
H124 H 0.81963 0.58343 1.02284 0.0
H125 H 0.76635 0.57887 0.02757 0.0
H126 H 0.81584 0.62859 0.03579 0.0
H127 H 0.72896 0.65223 0.94374 0.0
H128 H 0.73508 0.61345 0.92463 0.0
H129 H 0.77452 0.6712 0.92143 0.0
C130 C 0.48322 0.25342 0.99577 0.0
N131 N 0.47537 0.22396 0.97708 0.0
N132 N 0.47988 0.28862 0.98547 0.0
C133 C 0.49494 0.24802 0.0241 0.0
C134 C 0.46976 0.27967 0.95973 0.0
N135 N 0.46757 0.2407 0.95449 0.0
C136 C 0.46318 0.30943 0.93939 0.0
H137 H 0.48735 0.26806 0.037 0.0
H138 H 0.53078 0.25896 0.02585 0.0
H139 H 0.47677 0.21275 0.03086 0.0
H140 H 0.46258 0.33761 0.94819 0.0
H141 H 0.43191 0.29008 0.92813 0.0
H142 H 0.49053 0.32277 0.92525 0.0
C143 C 0.78396 0.27672 0.99096 0.0
N144 N 0.76414 0.24314 0.97397 0.0
N145 N 0.81771 0.3129 0.97931 0.0
C146 C 0.77094 0.27406 1.01907 0.0
C147 C 0.81725 0.30044 0.95451 0.0
N148 N 0.78472 0.25835 0.95116 0.0
C149 C 0.84972 0.32875 0.93369 0.0
H150 H 0.73486 0.25231 1.02121 0.0
H151 H 0.78016 0.3071 0.02617 0.0
H152 H 0.78845 0.26009 0.03175 0.0
H153 H 0.86974 0.31322 0.92872 0.0
H154 H 0.8719 0.36279 0.94008 0.0
H155 H 0.83172 0.33075 0.91551 0.0
C156 C 0.54102 0.78119 0.06597 0.0
N157 N 0.55386 0.81354 0.08352 0.0
N158 N 0.53903 0.74419 0.0778 0.0
C159 C 0.53004 0.78567 0.03739 0.0
C160 C 0.55084 0.75501 0.10318 0.0
N161 N 0.5592 0.7969 0.10677 0.0
C162 C 0.55444 0.7248 0.12448 0.0
H163 H 0.50888 0.80157 0.03536 0.0
H164 H 0.51316 0.75336 0.02793 0.0
H165 H 0.56103 0.80725 0.02679 0.0
H166 H 0.55468 0.69592 0.11642 0.0
H167 H 0.52572 0.71238 0.13754 0.0
H168 H 0.58483 0.74325 0.13665 0.0
C169 C 0.25453 0.8051 0.07504 0.0
N170 N 0.27359 0.83672 0.09329 0.0
N171 N 0.21794 0.76936 0.08461 0.0
C172 C 0.27102 0.80963 0.04755 0.0
C173 C 0.21553 0.78004 0.1094 0.0
N174 N 0.24941 0.82061 0.11491 0.0
C175 C 0.17911 0.75126 0.12804 0.0
H176 H 0.25952 0.77712 0.03896 0.0
H177 H 0.30762 0.82836 0.04743 0.0
H178 H 0.25812 0.82793 0.0347 0.0
H179 H 0.16233 0.71621 0.1225 0.0
H180 H 0.15448 0.76302 0.12743 0.0
H181 H 0.19217 0.75347 0.14854 0.0
C182 C 0.21907 0.43937 0.06855 0.0
N183 N 0.24147 0.42535 0.0855 0.0
N184 N 0.18337 0.43621 0.08019 0.0
C185 C 0.23476 0.46095 0.04173 0.0
C186 C 0.18482 0.42012 0.10479 0.0
N187 N 0.22042 0.4141 0.10821 0.0
C188 C 0.15218 0.41154 0.12586 0.0
H189 H 0.22211 0.4842 0.03599 0.0
H190 H 0.22237 0.43495 0.027 0.0
H191 H 0.27134 0.47912 0.04118 0.0
H192 H 0.1442 0.38023 0.13708 0.0
H193 H 0.1213 0.40969 0.11733 0.0
H194 H 0.16714 0.43861 0.13992 0.0
C195 C 0.46915 0.94885 0.3301 0.0
N196 N 0.50331 0.96099 0.31385 0.0
N197 N 0.43719 0.95532 0.3178 0.0
C198 C 0.46458 0.92588 0.35677 0.0
C199 C 0.4529 0.97147 0.2935 0.0
N200 N 0.49285 0.97453 0.29102 0.0
C201 C 0.42885 0.98323 0.27187 0.0
H202 H 0.48383 0.90795 0.35833 0.0
H203 H 0.42952 0.90216 0.3609 0.0
H204 H 0.47722 0.95103 0.37203 0.0
H205 H 0.45219 1.01447 0.26141 0.0
H206 H 0.40152 0.98687 0.27972 0.0
H207 H 0.41517 0.95691 0.25732 0.0
C208 C 0.15796 0.59248 0.32514 0.0
N209 N 0.14401 0.55991 0.30758 0.0
N210 N 0.15667 0.62844 0.31419 0.0
C211 C 0.17127 0.58871 0.3534 0.0
C212 C 0.14228 0.61704 0.28918 0.0
N213 N 0.13476 0.57562 0.28502 0.0
C214 C 0.1349 0.64618 0.26879 0.0
H215 H 0.14263 0.57927 0.3661 0.0
H216 H 0.19838 0.62073 0.35995 0.0
H217 H 0.18225 0.56353 0.35623 0.0
H218 H 0.1467 0.64374 0.24938 0.0
H219 H 0.15208 0.68119 0.27442 0.0
H220 H 0.09898 0.6347 0.26667 0.0
C221 C 0.44684 0.60246 0.32526 0.0
N222 N 0.42563 0.56949 0.30807 0.0
N223 N 0.48435 0.63573 0.31479 0.0
C224 C 0.4334 0.60028 0.35325 0.0
C225 C 0.48564 0.62158 0.29079 0.0
N226 N 0.45017 0.58143 0.28669 0.0
C227 C 0.52147 0.64717 0.2712 0.0
H228 H 0.41185 0.61552 0.3541 0.0
H229 H 0.46282 0.61878 0.36614 0.0
H230 H 0.41483 0.56551 0.36086 0.0
H231 H 0.54746 0.63734 0.2743 0.0
H232 H 0.53666 0.68324 0.27382 0.0
H233 H 0.50843 0.63984 0.25071 0.0
C234 C 0.57575 0.07161 0.10554 0.0
Eu235 Eu 0.54516 0.04918 0.05781 0.0
C236 C 0.56733 0.0539 0.13282 0.0
C237 C 0.60302 0.06669 0.15074 0.0
C238 C 0.59593 0.05147 0.17704 0.0
C239 C 0.55291 0.02346 0.18584 0.0
C240 C 0.5173 1.00968 0.1676 0.0
C241 C 0.52446 0.02467 0.14126 0.0
C242 C 0.52305 0.0986 1.02297 0.0
C243 C 0.44038 0.97587 0.05638 0.0
C244 C 0.4833 0.98076 0.96012 0.0
Eu245 Eu 0.50592 1.0054 1.00862 0.0
C246 C 0.50332 0.99415 0.93394 0.0
C247 C 0.47677 0.97673 0.91147 0.0
C248 C 0.49514 0.98829 0.88645 0.0
C249 C 0.54055 1.01749 0.8834 0.0
C250 C 0.56715 0.03506 0.90599 0.0
C251 C 0.54874 0.02317 0.93107 0.0
C252 C 0.52741 0.95667 0.0441 0.0
C253 C 0.60896 0.08462 1.00961 0.0
O254 O 0.59004 0.0526 0.09017 0.0
O255 O 0.54665 0.08091 0.09383 0.0
O256 O 0.55811 0.11444 0.03801 0.0
O257 O 0.49961 0.0576 0.02785 0.0
O258 O 0.47724 0.99373 0.07091 0.0
O259 O 0.44208 0.98105 0.03039 0.0
O260 O 0.47353 1.00806 0.97106 0.0
O261 O 0.50122 0.96383 0.97686 0.0
O262 O 0.49094 0.94105 0.03039 0.0
O263 O 0.55163 0.99727 0.03831 0.0
O264 O 0.57232 0.0631 0.99543 0.0
O265 O 0.60825 0.07914 0.03542 0.0
H266 H 0.63641 0.08881 0.14442 0.0
H267 H 0.62403 0.06182 0.1905 0.0
H268 H 0.48375 0.98822 0.17384 0.0
H269 H 0.49652 1.01401 0.12763 0.0
H270 H 0.4417 0.9543 0.91325 0.0
H271 H 0.47351 0.97525 0.8694 0.0
H272 H 0.6021 0.05797 0.90423 0.0
H273 H 0.56996 0.0366 0.94818 0.0
C274 C 1.00252 0.55056 0.10583 0.0
Eu275 Eu 1.00505 0.54567 0.05479 0.0
C276 C 0.02467 0.54564 0.13071 0.0
C277 C 1.00137 0.50963 0.14844 0.0
C278 C 0.01997 0.50646 0.17304 0.0
C279 C 0.0624 0.53929 0.18068 0.0
C280 C 0.08609 0.57489 0.16269 0.0
C281 C 0.06756 0.57798 0.13803 0.0
C282 C 0.94603 0.47699 0.02581 0.0
C283 C 0.07254 0.50868 0.04274 0.0
C284 C 0.04086 0.54211 0.94861 0.0
Eu285 Eu 0.03317 0.54749 0.99898 0.0
C286 C 0.01985 0.54076 0.92254 0.0
C287 C 0.04162 0.54037 0.90015 0.0
C288 C 0.02184 0.53645 0.87516 0.0
C289 C 0.97984 0.53319 0.87193 0.0
C290 C 0.95829 0.53434 0.89445 0.0
C291 C 0.97819 0.53817 0.91958 0.0
C292 C 0.09243 0.61483 0.02887 0.0
C293 C 0.9656 0.58413 1.01012 0.0
O294 O 0.02495 0.58482 0.08997 0.0
O295 O 0.97744 0.51479 0.09304 0.0
O296 O 0.93492 0.49684 0.04236 0.0
O297 O 0.98751 0.49332 0.02588 0.0
O298 O 0.05961 0.52752 0.05951 0.0
O299 O 0.06086 0.50616 1.01766 0.0
O300 O 0.02044 0.50773 0.96469 0.0
O301 O 0.05851 0.57945 0.9606 0.0
O302 O 0.10341 0.59517 1.01217 0.0
O303 O 0.05115 0.59952 0.02817 0.0
O304 O 0.97741 0.56373 0.99375 0.0
O305 O 0.97734 0.58704 0.03533 0.0
H306 H 0.96816 0.48433 0.14354 0.0
H307 H 1.00071 0.47864 0.18633 0.0
H308 H 0.11831 0.60151 0.16806 0.0
H309 H 0.08644 0.60642 0.12505 0.0
H310 H 0.07364 0.54198 0.90206 0.0
H311 H 0.03879 0.53419 0.85847 0.0
H312 H 0.92581 0.5316 0.89266 0.0
H313 H 0.9608 0.53833 0.93668 0.0
C314 C 0.47616 0.49445 0.95594 0.0
Eu315 Eu 0.48658 0.50773 1.00666 0.0
C316 C 0.50278 0.5006 0.93213 0.0
C317 C 0.51727 0.53882 0.91547 0.0
C318 C 0.53868 0.54284 0.89184 0.0
C319 C 0.54628 0.50879 0.88412 0.0
C320 C 0.53224 0.4708 0.90096 0.0
C321 C 0.51088 0.46678 0.92457 0.0
C322 C 0.49807 0.58009 0.03116 0.0
C323 C 0.59253 0.55015 1.02171 0.0
C324 C 0.53221 0.52746 0.11503 0.0
Eu325 Eu 0.51954 0.51449 0.06454 0.0
C326 C 0.5079 0.52686 0.13857 0.0
C327 C 0.48988 0.48963 0.15607 0.0
C328 C 0.47128 0.4906 0.17974 0.0
C329 C 0.47064 0.52898 0.18664 0.0
C330 C 0.48704 0.56558 0.16867 0.0
C331 C 0.50556 0.56462 0.14499 0.0
C332 C 0.50928 0.44311 0.03942 0.0
C333 C 0.4144 0.47446 0.05064 0.0
O334 O 0.47259 0.46426 0.9739 0.0
O335 O 0.47973 0.52975 0.96633 0.0
O336 O 0.46639 0.55942 1.01408 0.0
O337 O 0.52309 0.56314 0.03337 0.0
O338 O 0.55969 0.52928 1.00464 0.0
O339 O 0.58567 0.55394 0.04646 0.0
O340 O 0.5415 0.55925 0.09707 0.0
O341 O 0.52115 0.48958 0.10479 0.0
O342 O 0.541 0.46404 0.05641 0.0
O343 O 0.48359 0.45927 0.03764 0.0
O344 O 0.44791 0.49684 0.06692 0.0
O345 O 0.42041 0.46865 0.02596 0.0
H346 H 0.5112 0.56536 0.92037 0.0
H347 H 0.54875 0.57245 0.87939 0.0
H348 H 0.53613 0.44322 0.89542 0.0
H349 H 0.4996 0.4365 0.93655 0.0
H350 H 0.49123 0.46005 0.15184 0.0
H351 H 0.45834 0.46162 0.19294 0.0
H352 H 0.48739 0.5958 0.17345 0.0
H353 H 0.51931 0.59404 0.13213 0.0
C354 C 0.23452 0.40206 0.4392 0.0
Eu355 Eu 0.19895 0.38014 0.39242 0.0
C356 C 0.2318 0.38398 0.46634 0.0
C357 C 0.2367 0.41105 0.48702 0.0
C358 C 0.23086 0.39438 0.513 0.0
C359 C 0.22013 0.35021 0.51889 0.0
C360 C 0.21713 0.32354 0.49817 0.0
C361 C 0.2226 0.34022 0.47203 0.0
C362 C 0.16548 0.42333 0.35941 0.0
C363 C 0.09714 0.3026 0.38728 0.0
C364 C 0.1479 0.30854 0.29058 0.0
Eu365 Eu 0.16451 0.3318 0.33924 0.0
C366 C 0.16814 0.32682 0.2646 0.0
C367 C 0.18919 0.30726 0.25199 0.0
C368 C 0.20822 0.32367 0.22736 0.0
C369 C 0.20651 0.35995 0.21473 0.0
C370 C 0.18525 0.37937 0.22732 0.0
C371 C 0.16651 0.3632 0.25201 0.0
C372 C 0.18104 0.28511 0.37851 0.0
C373 C 0.26375 0.41989 0.34324 0.0
O374 O 0.25057 0.38827 0.42136 0.0
O375 O 0.20055 0.40625 0.43052 0.0
O376 O 0.18104 0.43553 0.38295 0.0
O377 O 0.16807 0.38935 0.35553 0.0
O378 O 0.1323 0.32246 0.40299 0.0
O379 O 0.10005 0.30756 0.36112 0.0
O380 O 0.129 0.32793 0.30202 0.0
O381 O 0.17065 0.29664 0.30716 0.0
O382 O 0.14876 0.26833 0.36146 0.0
O383 O 0.20496 0.32631 0.37349 0.0
O384 O 0.23289 0.3888 0.32859 0.0
O385 O 0.259 0.42277 0.3685 0.0
H386 H 0.24379 0.4449 0.48299 0.0
H387 H 0.23293 0.41566 0.52839 0.0
H388 H 0.20969 0.2896 0.50211 0.0
H389 H 0.21877 0.31875 0.45631 0.0
H390 H 0.19072 0.279 0.26115 0.0
H391 H 0.22399 0.30776 0.21809 0.0
H392 H 0.18189 0.40636 0.21774 0.0
H393 H 0.1503 0.37888 0.26103 0.0
C394 C 0.66708 0.87569 0.44168 0.0
Eu395 Eu 0.66999 0.86765 0.39097 0.0
C396 C 0.68687 0.87181 0.46748 0.0
C397 C 0.67113 0.87956 0.49035 0.0
C398 C 0.68928 0.87691 0.51513 0.0
C399 C 0.72361 0.86617 0.51773 0.0
C400 C 0.73944 0.85839 0.49469 0.0
C401 C 0.72105 0.86094 0.4698 0.0
C402 C 0.61018 0.79868 0.36273 0.0
C403 C 0.7371 0.83044 0.37816 0.0
C404 C 0.70051 0.8595 0.28391 0.0
Eu405 Eu 0.69569 0.86745 0.33429 0.0
C406 C 0.67965 0.85989 0.25802 0.0
C407 C 0.69941 0.85687 0.23542 0.0
C408 C 0.67962 0.85476 0.21059 0.0
C409 C 0.63965 0.85598 0.20771 0.0
C410 C 0.62013 0.85964 0.23046 0.0
C411 C 0.64003 0.86167 0.25543 0.0
C412 C 0.75504 0.93604 0.36307 0.0
C413 C 0.6297 0.90573 0.34624 0.0
O414 O 0.69193 0.90842 0.42552 0.0
O415 O 0.64219 0.83918 0.42952 0.0
O416 O 0.5996 0.81858 0.37953 0.0
O417 O 0.65157 0.81476 0.36237 0.0
O418 O 0.72462 0.84943 0.39515 0.0
O419 O 0.72439 0.82713 0.35321 0.0
O420 O 0.67798 0.82612 0.30029 0.0
O421 O 0.72188 0.89704 0.29563 0.0
O422 O 0.76617 0.91649 0.34635 0.0
O423 O 0.71375 0.91995 0.36291 0.0
O424 O 0.64078 0.88505 0.32962 0.0
O425 O 0.64224 0.90885 0.37132 0.0
H426 H 0.64497 0.88824 0.48904 0.0
H427 H 0.67718 0.88456 0.53222 0.0
H428 H 0.76606 0.8504 0.49593 0.0
H429 H 0.73363 0.85471 0.4524 0.0
H430 H 0.72981 0.85512 0.23704 0.0
H431 H 0.69488 0.85047 0.19372 0.0
H432 H 0.58922 0.86036 0.22895 0.0
H433 H 0.62421 0.86391 0.27269 0.0
C434 C 0.14308 0.83347 0.29037 0.0
Eu435 Eu 0.15457 0.84404 0.34135 0.0
C436 C 0.16944 0.84001 0.26636 0.0
C437 C 0.18688 0.87994 0.25111 0.0
C438 C 0.2079 0.88457 0.22724 0.0
C439 C 0.2118 0.84929 0.21773 0.0
C440 C 0.1956 0.80986 0.2334 0.0
C441 C 0.17462 0.80522 0.25727 0.0
C442 C 0.16792 0.91573 0.36755 0.0
C443 C 0.26082 0.88431 0.35464 0.0
C444 C 0.20447 0.85715 0.44897 0.0
Eu445 Eu 0.18977 0.84775 0.3983 0.0
C446 C 0.18126 0.85528 0.47324 0.0
C447 C 0.17603 0.82393 0.49354 0.0
C448 C 0.15839 0.82427 0.51768 0.0
C449 C 0.14567 0.85612 0.5222 0.0
C450 C 0.14954 0.8866 0.50153 0.0
C451 C 0.16699 0.88612 0.47732 0.0
C452 C 0.17878 0.77794 0.37103 0.0
C453 C 0.08431 0.80933 0.38641 0.0
O454 O 0.13841 0.80198 0.30761 0.0
O455 O 0.14801 0.86861 0.30167 0.0
O456 O 0.13532 0.89559 0.3509 0.0
O457 O 0.19265 0.89838 0.36865 0.0
O458 O 0.22717 0.86487 0.33791 0.0
O459 O 0.25528 0.88761 0.37969 0.0
O460 O 0.2138 0.89019 0.43192 0.0
O461 O 0.19203 0.81984 0.43764 0.0
O462 O 0.21125 0.79835 0.38765 0.0
O463 O 0.15285 0.79383 0.37063 0.0
O464 O 0.11858 0.83043 0.4024 0.0
O465 O 0.08906 0.80449 0.36133 0.0
H466 H 0.18351 0.90749 0.25733 0.0
H467 H 0.22064 0.91571 0.21605 0.0
H468 H 0.19765 0.78181 0.22673 0.0
H469 H 0.16141 0.77384 0.26826 0.0
H470 H 0.18682 0.79984 0.49101 0.0
H471 H 0.15584 0.8003 0.53312 0.0
H472 H 0.14113 0.9123 0.50444 0.0
H473 H 0.17059 0.91085 0.46214 0.0
C474 C 0.90505 0.74113 0.76815 0.0
Eu475 Eu 0.86783 0.71036 0.72278 0.0
C476 C 0.89652 0.72436 0.79568 0.0
C477 C 0.93176 0.73647 0.8139 0.0
C478 C 0.92389 0.72035 0.84009 0.0
C479 C 0.88062 0.69175 0.84839 0.0
C480 C 0.84544 0.6798 0.83 0.0
C481 C 0.85334 0.6956 0.80386 0.0
C482 C 0.82756 0.74563 0.68928 0.0
C483 C 0.77067 0.63118 0.72124 0.0
C484 C 0.81021 0.63707 0.6265 0.0
Eu485 Eu 0.84056 0.66821 0.67284 0.0
C486 C 0.82816 0.65116 0.59957 0.0
C487 C 0.85162 0.63257 0.58856 0.0
C488 C 0.87015 0.64709 0.56362 0.0
C489 C 0.86533 0.68025 0.54906 0.0
C490 C 0.84157 0.69852 0.56 0.0
C491 C 0.82321 0.68417 0.5849 0.0
C492 C 0.88115 0.63346 0.70605 0.0
C493 C 0.9377 0.74948 0.67496 0.0
O494 O 0.91813 0.7205 0.75317 0.0
O495 O 0.87567 0.74989 0.75636 0.0
O496 O 0.82082 0.73815 0.71437 0.0
O497 O 0.85597 0.73523 0.68315 0.0
O498 O 0.80544 0.65133 0.73689 0.0
O499 O 0.77501 0.63694 0.69527 0.0
O500 O 0.79893 0.66273 0.63811 0.0
O501 O 0.83071 0.62203 0.64262 0.0
O502 O 0.88991 0.64383 0.68136 0.0
O503 O 0.85214 0.64302 0.71232 0.0
O504 O 0.90365 0.72757 0.6591 0.0
O505 O 0.93302 0.74446 0.70074 0.0
H506 H 0.96534 0.75844 0.80787 0.0
H507 H 0.95158 0.73021 0.85384 0.0
H508 H 0.8116 0.65892 0.83591 0.0
H509 H 0.82563 0.68565 0.7901 0.0
H510 H 0.856 0.60701 0.59931 0.0
H511 H 0.88855 0.63262 0.55585 0.0
H512 H 0.83661 0.72362 0.5491 0.0
H513 H 0.80523 0.69912 0.59264 0.0
C514 C 0.33573 0.21183 0.77572 0.0
Eu515 Eu 0.33783 0.20206 0.72519 0.0
C516 C 0.3557 0.20739 0.80131 0.0
C517 C 0.33677 0.20926 0.82459 0.0
C518 C 0.35545 0.20656 0.84917 0.0
C519 C 0.39348 0.20161 0.85111 0.0
C520 C 0.41239 0.19956 0.82767 0.0
C521 C 0.39352 0.20222 0.80299 0.0
C522 C 0.27913 0.13154 0.69771 0.0
C523 C 0.40577 0.16499 0.71313 0.0
C524 C 0.36705 0.19363 0.61849 0.0
Eu525 Eu 0.36407 0.20081 0.66903 0.0
C526 C 0.34321 0.1942 0.59356 0.0
C527 C 0.3633 0.22997 0.57525 0.0
C528 C 0.34392 0.22885 0.55033 0.0
C529 C 0.30426 0.19164 0.54302 0.0
C530 C 0.28301 0.15681 0.5618 0.0
C531 C 0.30228 0.15801 0.58678 0.0
C532 C 0.42245 0.27077 0.69712 0.0
C533 C 0.29491 0.23571 0.67985 0.0
O534 O 0.36117 0.24372 0.75928 0.0
O535 O 0.3094 0.17539 0.76386 0.0
O536 O 0.26775 0.1514 0.71408 0.0
O537 O 0.32059 0.14841 0.69744 0.0
O538 O 0.3926 0.18383 0.72986 0.0
O539 O 0.39355 0.16142 0.6881 0.0
O540 O 0.34736 0.15969 0.63504 0.0
O541 O 0.38926 0.23098 0.63035 0.0
O542 O 0.43414 0.2508 0.68102 0.0
O543 O 0.38106 0.25412 0.69685 0.0
O544 O 0.30718 0.21522 0.66389 0.0
O545 O 0.30815 0.24112 0.70481 0.0
H546 H 0.30778 0.21355 0.82378 0.0
H547 H 0.34077 0.20972 0.86667 0.0
H548 H 0.44184 0.1961 0.82843 0.0
H549 H 0.4086 0.20067 0.78525 0.0
H550 H 0.39481 0.25833 0.57989 0.0
H551 H 0.36068 0.25655 0.53648 0.0
H552 H 0.25253 0.12758 0.55674 0.0
H553 H 0.28579 0.12986 0.60038 0.0
C554 C 0.80912 0.14845 0.62458 0.0
Eu555 Eu 0.82323 0.17279 0.67336 0.0
C556 C 0.83095 0.16188 0.59855 0.0
C557 C 0.80498 0.15245 0.57533 0.0
C558 C 0.82422 0.15972 0.55058 0.0
C559 C 0.8701 0.17673 0.54832 0.0
C560 C 0.89624 0.18716 0.57162 0.0
C561 C 0.87695 0.18001 0.59641 0.0
C562 C 0.84571 0.25193 0.69492 0.0
C563 C 0.9288 0.21939 0.69006 0.0
C564 C 0.87154 0.18741 0.78538 0.0
Eu565 Eu 0.85698 0.17718 0.73484 0.0
C566 C 0.85163 0.19103 0.80949 0.0
C567 C 0.87781 0.20452 0.83248 0.0
C568 C 0.86009 0.20793 0.85579 0.0
C569 C 0.81563 0.19778 0.85667 0.0
C570 C 0.7894 0.18451 0.83349 0.0
C571 C 0.8072 0.18087 0.81011 0.0
C572 C 0.84767 0.10909 0.70647 0.0
C573 C 0.75204 0.13994 0.7196 0.0
O574 O 0.82754 0.13396 0.6428 0.0
O575 O 0.79392 0.17283 0.63405 0.0
O576 O 0.83237 0.24363 0.67053 0.0
O577 O 0.84658 0.21861 0.70508 0.0
O578 O 0.89688 0.19882 0.67236 0.0
O579 O 0.92153 0.22069 0.71522 0.0
O580 O 0.88496 0.22059 0.76797 0.0
O581 O 0.85254 0.1488 0.77462 0.0
O582 O 0.87816 0.12721 0.72462 0.0
O583 O 0.82287 0.12625 0.70525 0.0
O584 O 0.78504 0.15823 0.73697 0.0
O585 O 0.75779 0.13738 0.69419 0.0
H586 H 0.76945 0.13793 0.57637 0.0
H587 H 0.80277 0.15009 0.53326 0.0
H588 H 0.93159 0.20016 0.57071 0.0
H589 H 0.89788 0.18751 0.61394 0.0
H590 H 0.91221 0.21267 0.83239 0.0
H591 H 0.88158 0.21953 0.87302 0.0
H592 H 0.75516 0.17688 0.83348 0.0
H593 H 0.78643 0.1703 0.79256 0.0
C594 C 0.35343 0.88671 0.10179 0.0
C595 C 0.31332 0.87893 0.08933 0.0
C596 C 0.39438 0.92038 0.09223 0.0
C597 C 0.39689 0.9463 0.06919 0.0
H598 H 0.35323 0.86486 0.11796 0.0
H599 H 0.42429 0.92439 0.10213 0.0
S600 S 0.30087 0.94474 0.03276 0.0
N601 N 0.2785 0.90514 0.05587 0.0
N602 N 0.35486 0.966 0.03687 0.0
C603 C 0.35681 0.94101 0.05795 0.0
C604 C 0.3153 0.90799 0.06827 0.0
C605 C 0.12814 0.43787 0.04884 0.0
C606 C 0.15637 0.455 0.07075 0.0
C607 C 0.10121 0.45572 0.03965 0.0
C608 C 0.1017 0.49099 0.05232 0.0
H609 H 0.12678 0.41036 0.03899 0.0
H610 H 0.07939 0.44136 1.02284 0.0
S611 S 0.17349 0.54977 0.10913 0.0
N612 N 0.1861 0.51075 0.10368 0.0
N613 N 0.13485 0.54397 0.08697 0.0
C614 C 0.13061 0.50886 0.07401 0.0
C615 C 0.15821 0.49095 0.08308 0.0
C616 C 0.5609 0.69109 0.06317 0.0
C617 C 0.52812 0.70312 0.0661 0.0
C618 C 0.55074 0.65086 0.05222 0.0
C619 C 0.50752 0.62164 0.04342 0.0
H620 H 0.59456 0.713 0.06947 0.0
H621 H 0.57707 0.64294 0.05027 0.0
S622 S 0.40956 0.63715 0.04829 0.0
N623 N 0.45066 0.68212 0.06073 0.0
N624 N 0.43146 0.60699 0.03942 0.0
C625 C 0.47443 0.63328 0.04647 0.0
C626 C 0.48475 0.67394 0.05798 0.0
C627 C 0.83763 0.38365 0.99972 0.0
C628 C 0.84995 0.35341 0.9912 0.0
C629 C 0.86897 0.42359 1.01078 0.0
C630 C 0.91395 0.43514 1.01327 0.0
H631 H 0.80353 0.37634 0.99772 0.0
H632 H 0.8579 0.44574 1.01725 0.0
S633 S 0.96281 0.36687 0.99381 0.0
N634 N 0.90973 0.33717 0.98629 0.0
N635 N 0.9689 0.4126 1.00615 0.0
C636 C 0.92665 0.40526 1.00449 0.0
C637 C 0.8946 0.36434 0.9937 0.0
C638 C 0.68879 0.5718 0.97999 0.0
C639 C 0.72436 0.60748 0.99211 0.0
C640 C 0.64626 0.55344 0.98982 0.0
C641 C 0.63803 0.5699 1.0123 0.0
H642 H 0.69414 0.55771 0.96301 0.0
H643 H 0.61977 0.5258 0.97987 0.0
S644 S 0.72072 0.66399 0.05061 0.0
N645 N 0.74929 0.65939 0.02707 0.0
N646 N 0.66921 0.62469 0.04608 0.0
C647 C 0.67357 0.60566 0.02462 0.0
C648 C 0.71682 0.62452 1.01438 0.0
C649 C 0.45336 0.14609 0.98962 0.0
C650 C 0.48565 0.18829 0.98055 0.0
C651 C 0.46527 0.11554 1.00171 0.0
C652 C 0.50997 0.1269 1.0059 0.0
H653 H 0.41898 0.13794 0.98905 0.0
H654 H 0.43952 0.08421 1.0095 0.0
S655 S 0.6066 0.23219 0.98403 0.0
N656 N 0.56353 0.2383 0.9747 0.0
N657 N 0.58627 0.18221 0.99814 0.0
C658 C 0.54226 0.16808 0.99559 0.0
C659 C 0.53001 0.19841 0.98274 0.0
C660 C 0.7287 0.17468 1.00231 0.0
C661 C 0.72742 0.19937 0.97964 0.0
C662 C 0.69083 0.13636 1.01107 0.0
C663 C 0.65012 0.12034 0.9972 0.0
H664 H 0.75891 0.18617 1.01398 0.0
H665 H 0.69321 0.11994 0.02937 0.0
S666 S 0.63074 0.16983 0.93458 0.0
N667 N 0.68303 0.20329 0.94235 0.0
N668 N 0.61236 0.13025 0.95793 0.0
C669 C 0.64934 0.14283 0.97329 0.0
C670 C 0.68783 0.18248 0.96469 0.0
C671 C 0.87678 0.59487 0.96948 0.0
C672 C 0.87331 0.62794 0.98203 0.0
C673 C 0.908 0.58209 0.97812 0.0
C674 C 0.93619 0.60147 0.99995 0.0
H675 H 0.85353 0.57699 0.95395 0.0
H676 H 0.90846 0.55531 0.96844 0.0
S677 S 0.94285 0.6931 0.03752 0.0
N678 N 0.90276 0.68267 1.01548 0.0
N679 N 0.96109 0.65819 0.03235 0.0
C680 C 0.93436 0.63612 1.01183 0.0
C681 C 0.90302 0.64951 1.00268 0.0
C682 C 0.45368 0.33782 1.00116 0.0
C683 C 0.48791 0.3277 0.99857 0.0
C684 C 0.461 0.37559 1.0141 0.0
C685 C 0.50266 0.40412 0.02524 0.0
H686 H 0.42108 0.3162 0.99318 0.0
H687 H 0.43367 0.38211 1.01573 0.0
S688 S 0.60355 0.39304 1.02235 0.0
N689 N 0.56515 0.34989 1.00691 0.0
N690 N 0.57893 0.42028 0.03186 0.0
C691 C 0.53719 0.39438 1.02255 0.0
C692 C 0.52978 0.35627 1.0091 0.0
C693 C 0.14316 0.72175 0.06594 0.0
C694 C 0.18677 0.73026 0.0711 0.0
C695 C 0.11243 0.68385 0.05278 0.0
C696 C 0.12444 0.6534 0.04405 0.0
H697 H 0.13298 0.74482 0.07199 0.0
H698 H 0.07934 0.67886 0.04895 0.0
S699 S 0.23326 0.65834 0.05544 0.0
N700 N 0.23918 0.70333 0.06874 0.0
N701 N 0.18229 0.63301 0.04323 0.0
C702 C 0.16769 0.6611 0.04973 0.0
C703 C 0.19863 0.69927 0.06347 0.0
C704 C 0.3217 0.46296 0.0927 0.0
C705 C 0.28391 0.42969 0.08066 0.0
C706 C 0.36372 0.47626 0.08317 0.0
C707 C 0.36944 0.45722 0.06092 0.0
H708 H 0.31861 0.48084 0.10842 0.0
H709 H 0.39175 0.50315 0.09267 0.0
S710 S 0.28043 0.36568 0.02399 0.0
N711 N 0.25442 0.37553 0.04686 0.0
N712 N 0.33347 0.40076 0.02849 0.0
C713 C 0.33187 0.42244 0.04945 0.0
C714 C 0.28913 0.40857 0.05947 0.0
C715 C 0.58124 0.88498 0.05825 0.0
C716 C 0.55485 0.85552 0.07837 0.0
C717 C 0.57495 0.92051 0.04858 0.0
C718 C 0.54182 0.92742 0.05865 0.0
H719 H 0.60523 0.87901 0.04901 0.0
H720 H 0.59399 0.94073 0.03199 0.0
S721 S 0.46775 0.86293 0.11343 0.0
N722 N 0.49744 0.83821 0.10956 0.0
N723 N 0.48544 0.90458 0.0914 0.0
C724 C 0.51741 0.89999 0.07988 0.0
C725 C 0.52408 0.86421 0.08985 0.0
C726 C 0.97322 0.23031 0.39811 0.0
C727 C 0.97139 0.20286 0.42017 0.0
C728 C 0.01376 0.26306 0.38781 0.0
C729 C 0.05422 0.27061 0.39964 0.0
H730 H 0.94296 0.22443 0.38775 0.0
H731 H 0.01339 0.28191 0.37014 0.0
S732 S 0.06745 0.21008 0.45915 0.0
N733 N 0.01349 0.18675 0.45407 0.0
N734 N 0.08952 0.24954 0.43594 0.0
C735 C 0.05268 0.24541 0.42285 0.0
C736 C 0.01137 0.21142 0.43289 0.0
C737 C 0.79245 0.75934 0.38388 0.0
C738 C 0.82208 0.77754 0.40508 0.0
C739 C 0.76517 0.77698 0.37503 0.0
C740 C 0.76676 0.81309 0.38732 0.0
H741 H 0.79024 0.73117 0.37437 0.0
H742 H 0.74221 0.76179 0.3588 0.0
S743 S 0.84245 0.87465 0.44211 0.0
N744 N 0.85407 0.83483 0.43698 0.0
N745 N 0.80274 0.86817 0.42061 0.0
C746 C 0.79719 0.83208 0.4082 0.0
C747 C 0.82496 0.81424 0.41702 0.0
C748 C 0.15627 1.01097 0.39262 0.0
C749 C 0.19948 0.04072 0.40101 0.0
C750 C 0.14629 0.97055 0.38187 0.0
C751 C 0.17908 0.95819 0.37944 0.0
H752 H 0.12999 1.0189 0.39463 0.0
H753 H 0.11257 0.94865 0.37565 0.0
S754 S 0.29784 0.02567 0.39731 0.0
N755 N 0.27562 0.05616 0.40491 0.0
N756 N 0.25686 0.9798 0.38574 0.0
C757 C 0.22243 0.98777 0.38776 0.0
C758 C 0.23264 0.02913 0.39826 0.0
C759 C 0.56048 0.68863 0.32927 0.0
C760 C 0.51558 0.67686 0.32637 0.0
C761 C 0.59117 0.72857 0.34052 0.0
C762 C 0.5779 0.75789 0.34954 0.0
H763 H 0.57174 0.66652 0.32303 0.0
H764 H 0.62534 0.73609 0.34265 0.0
S765 S 0.46478 0.74402 0.3441 0.0
N766 N 0.46004 0.69902 0.33149 0.0
N767 N 0.51714 0.77337 0.35331 0.0
C768 C 0.53321 0.74677 0.34625 0.0
C769 C 0.50218 0.70641 0.33454 0.0
C770 C 0.38463 0.95441 0.34881 0.0
C771 C 0.39291 0.93836 0.32631 0.0
C772 C 0.34164 0.93665 0.35799 0.0
C773 C 0.30581 0.90242 0.34482 0.0
H774 H 0.41166 0.9807 0.3593 0.0
H775 H 0.33644 0.95005 0.37536 0.0
S776 S 0.31165 0.84713 0.28594 0.0
N777 N 0.36317 0.88511 0.29196 0.0
N778 N 0.28204 0.852 0.30868 0.0
C779 C 0.31401 0.88593 0.32234 0.0
C780 C 0.35773 0.90383 0.31322 0.0
C781 C 0.16741 0.50322 0.3046 0.0
C782 C 0.1376 0.51586 0.31368 0.0
C783 C 0.17266 0.46886 0.31767 0.0
C784 C 0.14959 0.44751 0.34082 0.0
H785 H 0.18938 0.5224 0.2888 0.0
H786 H 0.19763 0.46174 0.31098 0.0
S787 S 0.06207 0.4629 0.3695 0.0
N788 N 0.07922 0.49875 0.34413 0.0
N789 N 0.0916 0.43715 0.36987 0.0
C790 C 0.11697 0.45712 0.34849 0.0
C791 C 0.11028 0.49048 0.33456 0.0
C792 C 0.37776 0.48795 0.31316 0.0
C793 C 0.3828 0.53087 0.31181 0.0
C794 C 0.33822 0.45125 0.32213 0.0
C795 C 0.30301 0.45668 0.33044 0.0
H796 H 0.40521 0.48309 0.30854 0.0
H797 H 0.336 0.41893 0.32377 0.0
S798 S 0.2985 0.56148 0.32835 0.0
N799 N 0.34756 0.57559 0.31684 0.0
N800 N 0.27518 0.50784 0.33543 0.0
C801 C 0.30729 0.49912 0.3282 0.0
C802 C 0.34664 0.53588 0.31838 0.0
C803 C 0.54278 0.92034 0.30589 0.0
C804 C 0.54012 0.95339 0.31898 0.0
C805 C 0.57302 0.90616 0.31434 0.0
C806 C 0.60104 0.92417 0.33644 0.0
H807 H 0.51973 0.90375 0.28997 0.0
H808 H 0.57296 0.87949 0.30421 0.0
S809 S 0.60905 1.01481 0.37566 0.0
N810 N 0.5696 1.0062 0.35347 0.0
N811 N 0.62638 0.97942 0.36983 0.0
C812 C 0.59983 0.95867 0.34895 0.0
C813 C 0.56938 0.97334 0.34007 0.0
C814 C 0.20338 0.69683 0.33799 0.0
C815 C 0.16209 0.6666 0.32738 0.0
C816 C 0.20851 0.73291 0.35197 0.0
C817 C 0.17263 0.74037 0.35547 0.0
H818 H 0.23176 0.6923 0.33557 0.0
H819 H 0.24085 0.75517 0.36004 0.0
S820 S 0.05778 0.67086 0.33098 0.0
N821 N 0.08486 0.64627 0.32117 0.0
N822 N 0.09449 0.71461 0.34671 0.0
C823 C 0.13138 0.71083 0.34438 0.0
C824 C 0.12612 0.67384 0.33049 0.0
C825 C 0.80318 0.04276 0.3997 0.0
C826 C 0.84709 0.05242 0.40478 0.0
C827 C 0.77325 1.00448 0.38668 0.0
C828 C 0.78649 0.97494 0.37799 0.0
H829 H 0.7922 0.06526 0.40564 0.0
H830 H 0.73982 0.99851 0.38288 0.0
S831 S 0.8969 0.98354 0.38893 0.0
N832 N 0.90145 0.02802 0.40218 0.0
N833 N 0.84585 0.95672 0.37699 0.0
C834 C 0.83011 0.98383 0.38356 0.0
C835 C 0.86026 0.02242 0.39716 0.0
C836 C 0.96079 0.73918 0.39628 0.0
C837 C 0.95331 0.75942 0.41716 0.0
C838 C 1.00328 0.75511 0.38648 0.0
C839 C 0.0398 0.79165 0.39744 0.0
H840 H 0.93304 0.71245 0.38651 0.0
H841 H 1.00738 0.73921 0.36994 0.0
S842 S 0.0374 0.85594 0.45272 0.0
N843 N 0.98548 0.81766 0.44834 0.0
N844 N 0.06564 0.84684 0.43099 0.0
C845 C 0.03289 0.81097 0.41913 0.0
C846 C 0.98956 0.79499 0.42877 0.0
C847 C 0.16561 0.1799 0.41344 0.0
C848 C 0.20863 0.18589 0.41577 0.0
C849 C 0.15767 0.21406 0.40356 0.0
C850 C 0.19246 0.25568 0.39559 0.0
H851 H 0.13777 0.1476 0.41773 0.0
H852 H 0.1237 0.20688 0.40058 0.0
S853 S 0.31162 0.28951 0.40058 0.0
N854 N 0.28676 0.23737 0.41156 0.0
N855 N 0.272 0.30211 0.39314 0.0
C856 C 0.23593 0.26327 0.39985 0.0
C857 C 0.24397 0.22815 0.40986 0.0
C858 C 0.68499 0.54083 0.76626 0.0
C859 C 0.64457 0.53406 0.75483 0.0
C860 C 0.7256 0.57347 0.75588 0.0
C861 C 0.7273 0.59974 0.73319 0.0
H862 H 0.68521 0.51883 0.7822 0.0
H863 H 0.75586 0.57646 0.76485 0.0
S864 S 0.63066 0.59869 0.69807 0.0
N865 N 0.60888 0.5598 0.72163 0.0
N866 N 0.68472 0.61952 0.70139 0.0
C867 C 0.68712 0.59485 0.72251 0.0
C868 C 0.64597 0.56258 0.73357 0.0
C869 C 0.46148 0.09432 0.72024 0.0
C870 C 0.49165 0.1137 0.74105 0.0
C871 C 0.43381 0.11134 0.71111 0.0
C872 C 0.4356 0.14809 0.72268 0.0
H873 H 0.45921 0.06574 0.71121 0.0
H874 H 0.41046 0.09526 0.69519 0.0
S875 S 0.51291 0.21307 0.77596 0.0
N876 N 0.52442 0.1729 0.77171 0.0
N877 N 0.47252 0.20523 0.75468 0.0
C878 C 0.46658 0.1683 0.74313 0.0
C879 C 0.49468 0.15101 0.75229 0.0
C880 C 0.89012 0.37353 0.70695 0.0
C881 C 0.87313 0.37282 0.73167 0.0
C882 C 0.88118 0.33422 0.69521 0.0
C883 C 0.85624 0.29286 0.70819 0.0
H884 H 0.91051 0.40474 0.69662 0.0
H885 H 0.89429 0.33621 0.67597 0.0
S886 S 0.80254 0.27252 0.77258 0.0
N887 N 0.82775 0.32681 0.76789 0.0
N888 N 0.81387 0.25331 0.74676 0.0
C889 C 0.83956 0.29161 0.73302 0.0
C890 C 0.84731 0.33149 0.74454 0.0
C891 C 0.23154 1.02004 0.66644 0.0
C892 C 0.18715 1.00884 0.66134 0.0
C893 C 0.26139 0.06024 0.67769 0.0
C894 C 0.2477 0.09038 0.6846 0.0
H895 H 0.24307 0.9973 0.66187 0.0
H896 H 0.29517 0.06733 0.68149 0.0
S897 S 0.13604 0.07838 0.67295 0.0
N898 N 0.13189 0.03249 0.66209 0.0
N899 N 0.18739 0.10736 0.68405 0.0
C900 C 0.20358 0.07986 0.67918 0.0
C901 C 0.17343 0.03923 0.66738 0.0
C902 C 0.02565 0.24102 0.64902 0.0
C903 C 0.06145 0.27554 0.66175 0.0
C904 C 0.98297 0.22346 0.65835 0.0
C905 C 0.97457 0.23956 0.68094 0.0
H906 H 0.03095 0.22693 0.63202 0.0
H907 H 0.95654 0.19636 0.64804 0.0
S908 S 0.05785 0.33049 0.721 0.0
N909 N 0.08661 0.32588 0.69757 0.0
N910 N 1.00596 0.29268 0.71561 0.0
C911 C 0.01031 0.27425 0.69389 0.0
C912 C 0.05389 0.29232 0.68415 0.0
C913 C 0.7785 0.82065 0.67036 0.0
C914 C 0.8039 0.8463 0.64881 0.0
C915 C 0.78465 0.78648 0.68246 0.0
C916 C 0.81548 0.77561 0.67298 0.0
H917 H 0.75624 0.82949 0.67921 0.0
H918 H 0.76664 0.76996 0.70016 0.0
S919 S 0.88157 0.82506 0.61277 0.0
N920 N 0.85583 0.85399 0.61597 0.0
N921 N 0.86504 0.78756 0.63733 0.0
C922 C 0.83682 0.79721 0.64936 0.0
C923 C 0.83145 0.83297 0.63752 0.0
C924 C 0.01958 0.86131 0.64526 0.0
C925 C 0.05942 0.85986 0.6461 0.0
C926 C 0.98012 0.82481 0.6539 0.0
C927 C 0.97916 0.78569 0.66394 0.0
H928 H 0.01945 0.8916 0.63886 0.0
H929 H 0.9506 0.82798 0.65385 0.0
S930 S 0.07453 0.76503 0.67001 0.0
N931 N 0.09551 0.81605 0.65729 0.0
N932 N 0.02133 0.74737 0.67376 0.0
C933 C 0.01859 0.78349 0.66441 0.0
C934 C 0.05873 0.82058 0.65535 0.0
C935 C 0.23487 0.3024 0.67153 0.0
C936 C 0.20355 0.28067 0.65152 0.0
C937 C 0.26479 0.28803 0.68045 0.0
C938 C 0.26451 0.25165 0.66943 0.0
H939 H 0.23494 0.32964 0.68097 0.0
H940 H 0.28791 0.30519 0.69626 0.0
S941 S 0.18811 0.18319 0.61673 0.0
N942 N 0.17316 0.22078 0.62136 0.0
N943 N 0.23028 0.19437 0.63723 0.0
C944 C 0.23404 0.23043 0.64883 0.0
C945 C 0.2033 0.24482 0.64006 0.0
C946 C 0.87067 0.02643 0.67406 0.0
C947 C 0.82957 0.99762 0.66259 0.0
C948 C 0.87637 0.06266 0.6881 0.0
C949 C 0.84133 0.0717 0.69072 0.0
H950 H 0.89831 1.02042 0.67244 0.0
H951 H 0.90843 0.08371 0.69697 0.0
S952 S 0.72736 1.00627 0.66375 0.0
N953 N 0.75347 0.98027 0.65462 0.0
N954 N 0.76419 0.04893 0.68024 0.0
C955 C 0.80032 0.04356 0.67877 0.0
C956 C 0.79445 1.0064 0.66487 0.0
C957 C 0.52831 0.35557 0.73022 0.0
C958 C 0.51654 0.38592 0.7392 0.0
C959 C 0.49757 0.31827 0.71671 0.0
C960 C 0.45374 0.3096 0.71218 0.0
H961 H 0.56162 0.36097 0.73356 0.0
H962 H 0.50816 0.29597 0.70985 0.0
S963 S 0.40637 0.37861 0.73256 0.0
N964 N 0.45841 0.40494 0.74291 0.0
N965 N 0.40006 0.33419 0.71835 0.0
C966 C 0.44134 0.3392 0.72171 0.0
C967 C 0.47287 0.37749 0.73505 0.0
C968 C 0.65849 0.12563 0.76203 0.0
C969 C 0.62118 0.09171 0.74999 0.0
C970 C 0.70068 0.14043 0.75222 0.0
C971 C 0.70698 0.12208 0.72983 0.0
H972 H 0.65466 0.14266 0.77804 0.0
H973 H 0.72832 0.16781 0.76159 0.0
S974 S 0.61962 0.02893 0.69315 0.0
N975 N 0.59294 0.03754 0.71619 0.0
N976 N 0.67228 0.06544 0.69743 0.0
C977 C 0.66997 0.08664 0.71843 0.0
C978 C 0.6271 0.07133 0.72866 0.0
C979 C 0.86481 0.53563 0.75182 0.0
C980 C 0.8949 0.52406 0.74208 0.0
C981 C 0.86222 0.57287 0.74122 0.0
C982 C 0.88951 0.59946 0.72044 0.0
H983 H 0.84162 0.5144 0.76662 0.0
H984 H 0.83711 0.57941 0.74837 0.0
S985 S 0.97768 0.5858 0.69084 0.0
N986 N 0.9552 0.54408 0.71266 0.0
N987 N 0.95073 0.61383 0.69275 0.0
C988 C 0.92163 0.58961 0.71191 0.0
C989 C 0.92418 0.55193 0.7227 0.0
C990 C 0.50052 0.95345 0.24735 0.0
C991 C 0.5162 0.98477 0.26691 0.0
C992 C 0.51462 0.96572 0.22138 0.0
C993 C 0.54443 1.00992 0.21411 0.0
H994 H 0.4753 0.91986 0.25196 0.0
H995 H 0.50064 0.94084 0.20667 0.0
S996 S 0.59563 0.10377 0.25886 0.0
N997 N 0.56387 0.06071 0.27808 0.0
N998 N 0.59021 0.0847 0.22912 0.0
C999 C 0.56188 0.04109 0.23395 0.0
C1000 C 0.54768 0.02827 0.26041 0.0
C1001 C 0.07012 0.53749 0.2558 0.0
C1002 C 0.11524 0.55263 0.26114 0.0
C1003 C 0.05278 0.53053 0.22988 0.0
C1004 C 0.08002 0.5388 0.20818 0.0
H1005 H 0.04892 0.53465 0.2716 0.0
H1006 H 0.01839 0.52169 0.22674 0.0
S1007 S 0.19958 0.57322 0.21228 0.0
N1008 N 0.18602 0.57197 0.24314 0.0
N1009 N 0.15368 0.55774 0.19447 0.0
C1010 C 0.12461 0.55067 0.21358 0.0
C1011 C 0.14211 0.55778 0.24002 0.0
C1012 C 0.42301 0.56333 0.24111 0.0
C1013 C 0.44343 0.55597 0.2639 0.0
C1014 C 0.42957 0.55192 0.21624 0.0
C1015 C 0.45686 0.53278 0.21335 0.0
H1016 H 0.40476 0.58113 0.24232 0.0
H1017 H 0.41501 0.56016 0.19901 0.0
S1018 S 0.51599 0.50526 0.26761 0.0
N1019 N 0.49002 0.52688 0.28241 0.0
N1020 N 0.50259 0.50522 0.23602 0.0
C1021 C 0.47513 0.52284 0.23636 0.0
C1022 C 0.46837 0.53451 0.26154 0.0
C1023 C 0.89484 0.47263 0.81836 0.0
C1024 C 0.91812 0.49201 0.79508 0.0
C1025 C 0.91386 0.48821 0.84313 0.0
C1026 C 0.95708 0.52375 0.84553 0.0
H1027 H 0.86274 0.44337 0.8174 0.0
H1028 H 0.89569 0.47032 0.86052 0.0
S1029 S 0.02928 0.58963 0.79008 0.0
N1030 N 0.98464 0.5508 0.77563 0.0
N1031 N 0.02031 0.58133 0.82205 0.0
C1032 C 0.97929 0.54555 0.82217 0.0
C1033 C 0.95982 0.52944 0.79697 0.0
C1034 C 0.55894 0.51782 0.80936 0.0
C1035 C 0.58699 0.49998 0.80566 0.0
C1036 C 0.54827 0.52338 0.83476 0.0
C1037 C 0.56498 0.51093 0.85761 0.0
H1038 H 0.54194 0.52365 0.79247 0.0
H1039 H 0.52414 0.53437 0.83642 0.0
S1040 S 0.64498 0.46856 0.85843 0.0
N1041 N 0.63457 0.47398 0.8268 0.0
N1042 N 0.6159 0.4854 0.87448 0.0
C1043 C 0.59602 0.49653 0.85406 0.0
C1044 C 0.60676 0.49095 0.82817 0.0
C1045 C 0.58746 0.09278 0.82305 0.0
C1046 C 0.57196 0.06275 0.80268 0.0
C1047 C 0.58104 0.07794 0.84958 0.0
C1048 C 0.55861 0.03247 0.8565 0.0
H1049 H 0.59995 0.12765 0.81831 0.0
H1050 H 0.58981 0.10207 0.8645 0.0
S1051 S 0.52008 0.94118 0.81045 0.0
N1052 N 0.53968 0.98639 0.79113 0.0
N1053 N 0.52798 0.95797 0.84094 0.0
C1054 C 0.54779 1.00245 0.83637 0.0
C1055 C 0.55458 1.01775 0.80944 0.0
C1056 C 0.21776 0.34472 0.59366 0.0
C1057 C 0.17659 0.30775 0.59867 0.0
C1058 C 0.23335 0.3566 0.56786 0.0
C1059 C 0.20816 0.33181 0.5463 0.0
H1060 H 0.23655 0.36599 0.60953 0.0
H1061 H 0.26431 0.38663 0.56459 0.0
S1062 S 0.10032 0.22871 0.55023 0.0
N1063 N 0.11323 0.24365 0.58102 0.0
N1064 N 0.14145 0.26627 0.53244 0.0
C1065 C 0.16835 0.29285 0.55155 0.0
C1066 C 0.1528 0.28079 0.57778 0.0
C1067 C 0.81107 0.90053 0.57274 0.0
C1068 C 0.78581 0.88504 0.59566 0.0
C1069 C 0.79102 0.89152 0.5475 0.0
C1070 C 0.7448 0.86685 0.54423 0.0
H1071 H 0.84625 0.92274 0.57443 0.0
H1072 H 0.81163 0.90678 0.53053 0.0
S1073 S 0.66484 0.81296 0.59819 0.0
N1074 N 0.71312 0.83994 0.61359 0.0
N1075 N 0.67511 0.82191 0.56637 0.0
C1076 C 0.71967 0.84794 0.56708 0.0
C1077 C 0.74025 0.85719 0.59272 0.0
C1078 C 0.15529 0.87311 0.59587 0.0
C1079 C 0.12326 0.88567 0.60003 0.0
C1080 C 0.1604 0.86089 0.57101 0.0
C1081 C 0.13372 0.86098 0.54923 0.0
H1082 H 0.17862 0.87589 0.61157 0.0
H1083 H 0.18746 0.85428 0.56849 0.0
S1084 S 0.04075 0.8853 0.55103 0.0
N1085 N 0.06176 0.89347 0.58134 0.0
N1086 N 0.07033 0.86956 0.53455 0.0
C1087 C 0.0993 0.87028 0.55372 0.0
C1088 C 0.09422 0.88273 0.57915 0.0
C1089 C 0.55192 0.80237 0.15419 0.0
C1090 C 0.5758 0.82002 0.13093 0.0
C1091 C 0.57193 0.81647 0.17899 0.0
C1092 C 0.61665 0.84883 0.18141 0.0
H1093 H 0.51832 0.77549 0.1532 0.0
H1094 H 0.55306 0.79972 0.19638 0.0
S1095 S 0.69106 0.91047 0.126 0.0
N1096 N 0.64456 0.87471 0.11152 0.0
N1097 N 0.68216 0.9025 0.15798 0.0
C1098 C 0.63961 0.86944 0.15808 0.0
C1099 C 0.61915 0.85483 0.13286 0.0
C1100 C 0.27049 0.8304 0.1619 0.0
C1101 C 0.25354 0.84239 0.13909 0.0
C1102 C 0.25903 0.83514 0.1873 0.0
C1103 C 0.23005 0.85209 0.19096 0.0
H1104 H 0.28961 0.81365 0.15999 0.0
H1105 H 0.27122 0.82335 0.20416 0.0
S1106 S 0.17887 0.89068 0.1373 0.0
N1107 N 0.20857 0.87408 0.12172 0.0
N1108 N 0.18686 0.88325 0.16904 0.0
C1109 C 0.21537 0.86698 0.16822 0.0
C1110 C 0.22718 0.86212 0.14245 0.0
C1111 C 0.21581 0.35772 0.14093 0.0
C1112 C 0.23407 0.40257 0.13315 0.0
C1113 C 0.21034 0.34412 0.16768 0.0
C1114 C 0.223 0.3751 0.18749 0.0
H1115 H 0.20132 0.33292 0.1262 0.0
H1116 H 0.19252 0.30903 0.17269 0.0
S1117 S 0.2798 0.49696 0.17712 0.0
N1118 N 0.26946 0.47801 0.14712 0.0
N1119 N 0.26141 0.45298 0.19741 0.0
C1120 C 0.24583 0.42025 0.17992 0.0
C1121 C 0.25096 0.43388 0.15273 0.0
C1122 C 0.87625 0.69486 0.92266 0.0
C1123 C 0.84341 0.65183 0.92937 0.0
C1124 C 0.89018 0.70704 0.89655 0.0
C1125 C 0.87151 0.67641 0.87645 0.0
H1126 H 0.88904 0.71978 0.93734 0.0
H1127 H 0.91368 0.74125 0.89184 0.0
S1128 S 0.78853 0.55788 0.8853 0.0
N1129 N 0.79531 0.57772 0.91491 0.0
N1130 N 0.82231 0.59972 0.866 0.0
C1131 C 0.84089 0.6324 0.88353 0.0
C1132 C 0.8266 0.62032 0.90997 0.0
C1133 C 0.47905 0.24038 0.90715 0.0
C1134 C 0.45342 0.21979 0.92953 0.0
C1135 C 0.46023 0.23177 0.88159 0.0
C1136 C 0.41492 0.20238 0.8775 0.0
H1137 H 0.51298 0.26608 0.9096 0.0
H1138 H 0.48056 0.25085 0.86513 0.0
S1139 S 0.33548 0.1349 0.9296 0.0
N1140 N 0.38203 0.16541 0.94592 0.0
N1141 N 0.34659 0.14801 0.89807 0.0
C1142 C 0.39004 0.17861 0.89969 0.0
C1143 C 0.40933 0.18751 0.92563 0.0
C1144 C 0.76903 0.24496 0.90383 0.0
C1145 C 0.78056 0.23304 0.92866 0.0
C1146 C 0.77752 0.23075 0.88055 0.0
C1147 C 0.7982 0.20436 0.88132 0.0
H1148 H 0.75615 0.26791 0.90244 0.0
H1149 H 0.7707 0.24309 0.86184 0.0
S1150 S 0.8287 0.159 0.94176 0.0
N1151 N 0.80918 0.18983 0.95286 0.0
N1152 N 0.82462 0.16227 0.9093 0.0
C1153 C 0.8065 0.18934 0.90619 0.0
C1154 C 0.79772 0.2038 0.92981 0.0
C1155 C 0.22418 0.15829 0.48411 0.0
C1156 C 0.25125 0.16165 0.46348 0.0
C1157 C 0.24189 0.17061 0.50963 0.0
C1158 C 0.28727 0.18672 0.51525 0.0
H1159 H 0.1888 0.14313 0.48086 0.0
H1160 H 0.21965 0.16556 0.52532 0.0
S1161 S 0.37175 0.20345 0.46706 0.0
N1162 N 0.32514 0.1839 0.44964 0.0
N1163 N 0.35888 0.20706 0.49733 0.0
C1164 C 0.31486 0.19257 0.49421 0.0
C1165 C 0.29671 0.18 0.4684 0.0
C1166 C 0.92877 0.1545 0.49425 0.0
C1167 C 0.91369 0.16739 0.47097 0.0
C1168 C 0.91725 0.1606 0.51927 0.0
C1169 C 0.8896 0.17936 0.52204 0.0
H1170 H 0.94619 0.1359 0.49299 0.0
H1171 H 0.92725 0.14734 0.53644 0.0
S1172 S 0.84657 0.22416 0.46712 0.0
N1173 N 0.87366 0.20372 0.4523 0.0
N1174 N 0.85231 0.21591 0.49905 0.0
C1175 C 0.87739 0.19565 0.4989 0.0
C1176 C 0.88944 0.1896 0.47349 0.0
C1177 C 0.91169 0.75534 0.48852 0.0
C1178 C 0.89867 0.72539 0.46822 0.0
C1179 C 0.90449 0.74062 0.51498 0.0
C1180 C 0.88322 0.69522 0.5221 0.0
H1181 H 0.9228 0.78995 0.48376 0.0
H1182 H 0.91248 0.76478 0.52978 0.0
S1183 S 0.84704 0.60385 0.47627 0.0
N1184 N 0.86787 0.64907 0.45696 0.0
N1185 N 0.85325 0.62067 0.50666 0.0
C1186 C 0.87378 0.66517 0.50214 0.0
C1187 C 0.88179 0.68047 0.47519 0.0
loop_
_geom_bond_atom_site_label_1
_geom_bond_atom_site_label_2
_geom_bond_distance
_geom_bond_site_symmetry_2
_ccdc_geom_bond_type
C0 N1 1.317 . S
C0 N2 1.348 . S
C0 C3 1.485 . S
N1 C0 1.317 . S
N1 N5 1.370 . S
N2 C0 1.348 . S
N2 C4 1.346 . S
C3 C0 1.485 . S
C3 H7 0.960 . S
C3 H8 0.961 . S
C3 H9 0.960 . S
C4 N2 1.346 . S
C4 N5 1.307 . S
C4 C6 1.486 . S
N5 N1 1.370 . S
N5 C4 1.307 . S
C6 C4 1.486 . S
C6 H10 0.960 . S
C6 H11 0.960 . S
C6 H12 0.959 . S
H7 C3 0.960 . S
H8 C3 0.961 . S
H9 C3 0.960 . S
H10 C6 0.960 . S
H11 C6 0.960 . S
H12 C6 0.959 . S
C13 N14 1.317 . S
C13 N15 1.348 . S
C13 C16 1.485 . S
N14 C13 1.317 . S
N14 N18 1.370 . S
N15 C13 1.348 . S
N15 C17 1.346 . S
C16 C13 1.485 . S
C16 H20 0.960 . S
C16 H21 0.961 . S
C16 H22 0.960 . S
C17 N15 1.346 . S
C17 N18 1.307 . S
C17 C19 1.486 . S
N18 N14 1.370 . S
N18 C17 1.307 . S
C19 C17 1.486 . S
C19 H23 0.960 . S
C19 H24 0.960 . S
C19 H25 0.959 . S
H20 C16 0.960 . S
H21 C16 0.961 . S
H22 C16 0.960 . S
H23 C19 0.960 . S
H24 C19 0.960 . S
H25 C19 0.959 . S
C26 N27 1.317 . S
C26 N28 1.348 . S
C26 C29 1.485 . S
N27 C26 1.317 . S
N27 N31 1.370 . S
N28 C26 1.348 . S
N28 C30 1.346 . S
C29 C26 1.485 . S
C29 H33 0.960 . S
C29 H34 0.961 . S
C29 H35 0.960 . S
C30 N28 1.346 . S
C30 N31 1.307 . S
C30 C32 1.486 . S
N31 N27 1.370 . S
N31 C30 1.307 . S
C32 C30 1.486 . S
C32 H36 0.960 . S
C32 H37 0.960 . S
C32 H38 0.959 . S
H33 C29 0.960 . S
H34 C29 0.961 . S
H35 C29 0.960 . S
H36 C32 0.960 . S
H37 C32 0.960 . S
H38 C32 0.959 . S
C39 N40 1.317 . S
C39 N41 1.348 . S
C39 C42 1.485 . S
N40 C39 1.317 . S
N40 N44 1.370 . S
N41 C39 1.348 . S
N41 C43 1.346 . S
C42 C39 1.485 . S
C42 H46 0.960 . S
C42 H47 0.961 . S
C42 H48 0.960 . S
C43 N41 1.346 . S
C43 N44 1.307 . S
C43 C45 1.486 . S
N44 N40 1.370 . S
N44 C43 1.307 . S
C45 C43 1.486 . S
C45 H49 0.960 . S
C45 H50 0.960 1_455 S
C45 H51 0.959 . S
H46 C42 0.960 . S
H47 C42 0.961 . S
H48 C42 0.960 . S
H49 C45 0.960 . S
H50 C45 0.960 1_655 S
H51 C45 0.959 . S
C52 N53 1.317 . S
C52 N54 1.348 . S
C52 C55 1.485 . S
N53 C52 1.317 . S
N53 N57 1.370 . S
N54 C52 1.348 . S
N54 C56 1.346 . S
C55 C52 1.485 . S
C55 H59 0.960 . S
C55 H60 0.961 . S
C55 H61 0.960 . S
C56 N54 1.346 . S
C56 N57 1.307 . S
C56 C58 1.486 . S
N57 N53 1.370 . S
N57 C56 1.307 . S
C58 C56 1.486 . S
C58 H62 0.960 . S
C58 H63 0.960 . S
C58 H64 0.959 . S
H59 C55 0.960 . S
H60 C55 0.961 . S
H61 C55 0.960 . S
H62 C58 0.960 . S
H63 C58 0.960 . S
H64 C58 0.959 . S
C65 N66 1.317 . S
C65 N67 1.348 . S
C65 C68 1.485 . S
N66 C65 1.317 . S
N66 N70 1.370 . S
N67 C65 1.348 . S
N67 C69 1.346 . S
C68 C65 1.485 . S
C68 H72 0.960 . S
C68 H73 0.961 . S
C68 H74 0.960 . S
C69 N67 1.346 . S
C69 N70 1.307 . S
C69 C71 1.486 . S
N70 N66 1.370 . S
N70 C69 1.307 . S
C71 C69 1.486 . S
C71 H75 0.960 . S
C71 H76 0.960 . S
C71 H77 0.959 . S
H72 C68 0.960 . S
H73 C68 0.961 . S
H74 C68 0.960 . S
H75 C71 0.960 . S
H76 C71 0.960 . S
H77 C71 0.959 . S
C78 N79 1.317 . S
C78 N80 1.348 . S
C78 C81 1.485 . S
N79 C78 1.317 . S
N79 N83 1.370 . S
N80 C78 1.348 . S
N80 C82 1.346 . S
C81 C78 1.485 . S
C81 H85 0.960 . S
C81 H86 0.961 . S
C81 H87 0.960 . S
C82 N80 1.346 . S
C82 N83 1.307 . S
C82 C84 1.486 . S
N83 N79 1.370 . S
N83 C82 1.307 . S
C84 C82 1.486 . S
C84 H88 0.960 . S
C84 H89 0.960 . S
C84 H90 0.959 . S
H85 C81 0.960 . S
H86 C81 0.961 . S
H87 C81 0.960 . S
H88 C84 0.960 . S
H89 C84 0.960 . S
H90 C84 0.959 . S
C91 N92 1.317 . S
C91 N93 1.348 . S
C91 C94 1.485 . S
N92 C91 1.317 . S
N92 N96 1.370 . S
N93 C91 1.348 . S
N93 C95 1.346 . S
C94 C91 1.485 . S
C94 H98 0.960 . S
C94 H99 0.961 . S
C94 H100 0.960 . S
C95 N93 1.346 . S
C95 N96 1.307 . S
C95 C97 1.486 . S
N96 N92 1.370 . S
N96 C95 1.307 . S
C97 C95 1.486 . S
C97 H101 0.960 . S
C97 H102 0.960 . S
C97 H103 0.959 . S
H98 C94 0.960 . S
H99 C94 0.961 . S
H100 C94 0.960 . S
H101 C97 0.960 . S
H102 C97 0.960 . S
H103 C97 0.959 . S
C104 N105 1.317 . S
C104 N106 1.348 . S
C104 C107 1.485 . S
N105 C104 1.317 . S
N105 N109 1.370 . S
N106 C104 1.348 . S
N106 C108 1.346 . S
C107 C104 1.485 . S
C107 H111 0.960 . S
C107 H112 0.961 . S
C107 H113 0.960 . S
C108 N106 1.346 . S
C108 N109 1.307 . S
C108 C110 1.486 . S
N109 N105 1.370 . S
N109 C108 1.307 . S
C110 C108 1.486 . S
C110 H114 0.960 . S
C110 H115 0.960 . S
C110 H116 0.959 . S
H111 C107 0.960 . S
H112 C107 0.961 . S
H113 C107 0.960 . S
H114 C110 0.960 . S
H115 C110 0.960 . S
H116 C110 0.959 . S
C117 N118 1.317 . S
C117 N119 1.348 . S
C117 C120 1.485 . S
N118 C117 1.317 . S
N118 N122 1.370 . S
N119 C117 1.348 . S
N119 C121 1.346 . S
C120 C117 1.485 . S
C120 H124 0.960 . S
C120 H125 0.961 1_556 S
C120 H126 0.960 . S
C121 N119 1.346 . S
C121 N122 1.307 . S
C121 C123 1.486 . S
N122 N118 1.370 . S
N122 C121 1.307 . S
C123 C121 1.486 . S
C123 H127 0.960 . S
C123 H128 0.960 . S
C123 H129 0.959 . S
H124 C120 0.960 . S
H125 C120 0.961 1_554 S
H126 C120 0.960 . S
H127 C123 0.960 . S
H128 C123 0.960 . S
H129 C123 0.959 . S
C130 N131 1.317 . S
C130 N132 1.348 . S
C130 C133 1.485 1_556 S
N131 C130 1.317 . S
N131 N135 1.370 . S
N132 C130 1.348 . S
N132 C134 1.346 . S
C133 C130 1.485 1_554 S
C133 H137 0.960 . S
C133 H138 0.961 . S
C133 H139 0.960 . S
C134 N132 1.346 . S
C134 N135 1.307 . S
C134 C136 1.486 . S
N135 N131 1.370 . S
N135 C134 1.307 . S
C136 C134 1.486 . S
C136 H140 0.960 . S
C136 H141 0.960 . S
C136 H142 0.959 . S
H137 C133 0.960 . S
H138 C133 0.961 . S
H139 C133 0.960 . S
H140 C136 0.960 . S
H141 C136 0.960 . S
H142 C136 0.959 . S
C143 N144 1.317 . S
C143 N145 1.348 . S
C143 C146 1.485 1_556 S
N144 C143 1.317 . S
N144 N148 1.370 . S
N145 C143 1.348 . S
N145 C147 1.346 . S
C146 C143 1.485 1_554 S
C146 H150 0.960 . S
C146 H151 0.961 . S
C146 H152 0.960 . S
C147 N145 1.346 . S
C147 N148 1.307 . S
C147 C149 1.486 . S
N148 N144 1.370 . S
N148 C147 1.307 . S
C149 C147 1.486 . S
C149 H153 0.960 . S
C149 H154 0.960 . S
C149 H155 0.959 . S
H150 C146 0.960 . S
H151 C146 0.961 . S
H152 C146 0.960 . S
H153 C149 0.960 . S
H154 C149 0.960 . S
H155 C149 0.959 . S
C156 N157 1.317 . S
C156 N158 1.348 . S
C156 C159 1.485 1_554 S
N157 C156 1.317 . S
N157 N161 1.370 . S
N158 C156 1.348 . S
N158 C160 1.346 . S
C159 C156 1.485 1_556 S
C159 H163 0.960 . S
C159 H164 0.961 . S
C159 H165 0.960 . S
C160 N158 1.346 . S
C160 N161 1.307 . S
C160 C162 1.486 . S
N161 N157 1.370 . S
N161 C160 1.307 . S
C162 C160 1.486 . S
C162 H166 0.960 . S
C162 H167 0.960 . S
C162 H168 0.959 . S
H163 C159 0.960 . S
H164 C159 0.961 . S
H165 C159 0.960 . S
H166 C162 0.960 . S
H167 C162 0.960 . S
H168 C162 0.959 . S
C169 N170 1.317 . S
C169 N171 1.348 . S
C169 C172 1.485 . S
N170 C169 1.317 . S
N170 N174 1.370 . S
N171 C169 1.348 . S
N171 C173 1.346 . S
C172 C169 1.485 . S
C172 H176 0.960 1_554 S
C172 H177 0.961 . S
C172 H178 0.960 . S
C173 N171 1.346 . S
C173 N174 1.307 . S
C173 C175 1.486 . S
N174 N170 1.370 . S
N174 C173 1.307 . S
C175 C173 1.486 . S
C175 H179 0.960 . S
C175 H180 0.960 . S
C175 H181 0.959 . S
H176 C172 0.960 1_556 S
H177 C172 0.961 . S
H178 C172 0.960 . S
H179 C175 0.960 . S
H180 C175 0.960 . S
H181 C175 0.959 . S
C182 N183 1.317 . S
C182 N184 1.348 . S
C182 C185 1.485 . S
N183 C182 1.317 . S
N183 N187 1.370 . S
N184 C182 1.348 . S
N184 C186 1.346 . S
C185 C182 1.485 . S
C185 H189 0.960 . S
C185 H190 0.961 . S
C185 H191 0.960 . S
C186 N184 1.346 . S
C186 N187 1.307 . S
C186 C188 1.486 . S
N187 N183 1.370 . S
N187 C186 1.307 . S
C188 C186 1.486 . S
C188 H192 0.960 . S
C188 H193 0.960 . S
C188 H194 0.959 . S
H189 C185 0.960 . S
H190 C185 0.961 . S
H191 C185 0.960 . S
H192 C188 0.960 . S
H193 C188 0.960 . S
H194 C188 0.959 . S
C195 N196 1.317 . S
C195 N197 1.348 . S
C195 C198 1.485 . S
N196 C195 1.317 . S
N196 N200 1.370 . S
N197 C195 1.348 . S
N197 C199 1.346 . S
C198 C195 1.485 . S
C198 H202 0.960 . S
C198 H203 0.961 . S
C198 H204 0.960 . S
C199 N197 1.346 . S
C199 N200 1.307 . S
C199 C201 1.486 . S
N200 N196 1.370 . S
N200 C199 1.307 . S
C201 C199 1.486 . S
C201 H205 0.960 . S
C201 H206 0.960 . S
C201 H207 0.959 . S
H202 C198 0.960 . S
H203 C198 0.961 . S
H204 C198 0.960 . S
H205 C201 0.960 . S
H206 C201 0.960 . S
H207 C201 0.959 . S
C208 N209 1.317 . S
C208 N210 1.348 . S
C208 C211 1.485 . S
N209 C208 1.317 . S
N209 N213 1.370 . S
N210 C208 1.348 . S
N210 C212 1.346 . S
C211 C208 1.485 . S
C211 H215 0.960 . S
C211 H216 0.961 . S
C211 H217 0.960 . S
C212 N210 1.346 . S
C212 N213 1.307 . S
C212 C214 1.486 . S
N213 N209 1.370 . S
N213 C212 1.307 . S
C214 C212 1.486 . S
C214 H218 0.960 . S
C214 H219 0.960 . S
C214 H220 0.959 . S
H215 C211 0.960 . S
H216 C211 0.961 . S
H217 C211 0.960 . S
H218 C214 0.960 . S
H219 C214 0.960 . S
H220 C214 0.959 . S
C221 N222 1.317 . S
C221 N223 1.348 . S
C221 C224 1.485 . S
N222 C221 1.317 . S
N222 N226 1.370 . S
N223 C221 1.348 . S
N223 C225 1.346 . S
C224 C221 1.485 . S
C224 H228 0.960 . S
C224 H229 0.961 . S
C224 H230 0.960 . S
C225 N223 1.346 . S
C225 N226 1.307 . S
C225 C227 1.486 . S
N226 N222 1.370 . S
N226 C225 1.307 . S
C227 C225 1.486 . S
C227 H231 0.960 . S
C227 H232 0.960 . S
C227 H233 0.959 . S
H228 C224 0.960 . S
H229 C224 0.961 . S
H230 C224 0.960 . S
H231 C227 0.960 . S
H232 C227 0.960 . S
H233 C227 0.959 . S
C234 Eu235 2.835 1_565 S
C234 C236 1.500 . S
C234 O254 1.257 . S
C234 O255 1.260 1_565 S
Eu235 C234 2.835 1_545 S
Eu235 O254 2.473 1_545 S
Eu235 O255 2.480 . S
Eu235 O256 2.430 . S
Eu235 O257 2.670 1_554 S
Eu235 O258 2.394 1_545 S
Eu235 O263 2.355 1_545 S
Eu235 O265 2.374 . S
C236 C234 1.500 . S
C236 C237 1.377 . S
C236 C241 1.377 . S
C237 C236 1.377 . S
C237 C238 1.395 . S
C237 H266 0.931 1_565 S
C238 C237 1.395 . S
C238 C239 1.383 . S
C238 H267 0.931 . S
C239 C238 1.383 . S
C239 C240 1.394 . S
C240 C239 1.394 . S
C240 C241 1.378 . S
C240 H268 0.931 . S
C241 C236 1.377 . S
C241 C240 1.378 . S
C241 H269 0.931 . S
C242 O256 1.259 . S
C242 O257 1.270 1_554 S
C243 O258 1.251 . S
C243 O259 1.268 . S
C244 Eu245 2.835 1_545 S
C244 C246 1.500 . S
C244 O260 1.257 . S
C244 O261 1.260 1_545 S
Eu245 C244 2.835 1_565 S
Eu245 O257 2.355 1_565 S
Eu245 O259 2.363 1_556 S
Eu245 O260 2.473 1_565 S
Eu245 O261 2.480 . S
Eu245 O262 2.430 . S
Eu245 O263 2.670 1_556 S
Eu245 O264 2.394 1_565 S
C246 C244 1.500 . S
C246 C247 1.377 . S
C246 C251 1.377 . S
C247 C246 1.377 . S
C247 C248 1.395 . S
C247 H270 0.931 1_545 S
C248 C247 1.395 . S
C248 C249 1.383 . S
C248 H271 0.931 . S
C249 C248 1.383 . S
C249 C250 1.394 . S
C250 C249 1.394 . S
C250 C251 1.378 . S
C250 H272 0.931 . S
C251 C246 1.377 . S
C251 C250 1.378 . S
C251 H273 0.931 . S
C252 O262 1.259 1_554 S
C252 O263 1.270 . S
C253 O264 1.251 . S
C253 O265 1.251 1_556 S
O254 C234 1.257 . S
O254 Eu235 2.473 1_565 S
O255 C234 1.260 1_545 S
O255 Eu235 2.480 . S
O256 Eu235 2.430 . S
O256 C242 1.259 . S
O257 Eu235 2.670 1_556 S
O257 C242 1.270 1_556 S
O257 Eu245 2.355 1_545 S
O258 Eu235 2.394 1_565 S
O258 C243 1.251 . S
O259 C243 1.268 . S
O259 Eu245 2.363 1_554 S
O260 C244 1.257 . S
O260 Eu245 2.473 1_545 S
O261 C244 1.260 1_565 S
O261 Eu245 2.480 . S
O262 Eu245 2.430 . S
O262 C252 1.259 1_556 S
O263 Eu235 2.355 1_565 S
O263 Eu245 2.670 1_554 S
O263 C252 1.270 . S
O264 Eu245 2.394 1_545 S
O264 C253 1.251 . S
O265 Eu235 2.374 . S
O265 C253 1.251 1_554 S
H266 C237 0.931 1_545 S
H267 C238 0.931 . S
H268 C240 0.931 . S
H269 C241 0.931 . S
H270 C247 0.931 1_565 S
H271 C248 0.931 . S
H272 C250 0.931 . S
H273 C251 0.931 . S
C274 Eu275 2.835 1_455 S
C274 C276 1.500 . S
C274 O294 1.257 . S
C274 O295 1.260 1_455 S
Eu275 C274 2.835 1_655 S
Eu275 O294 2.473 1_655 S
Eu275 O295 2.480 . S
Eu275 O296 2.430 . S
Eu275 O297 2.670 1_554 S
Eu275 O298 2.394 1_655 S
Eu275 O303 2.355 1_655 S
Eu275 O305 2.374 . S
C276 C274 1.500 . S
C276 C277 1.377 . S
C276 C281 1.377 . S
C277 C276 1.377 . S
C277 C278 1.395 . S
C277 H306 0.931 1_455 S
C278 C277 1.395 . S
C278 C279 1.383 . S
C278 H307 0.931 1_455 S
C279 C278 1.383 . S
C279 C280 1.394 . S
C280 C279 1.394 . S
C280 C281 1.378 . S
C280 H308 0.931 . S
C281 C276 1.377 . S
C281 C280 1.378 . S
C281 H309 0.931 . S
C282 O296 1.279 . S
C282 O297 1.262 1_554 S
C283 O298 1.251 . S
C283 O299 1.277 . S
C284 Eu285 2.835 . S
C284 C286 1.500 1_455 S
C284 O300 1.257 1_455 S
C284 O301 1.260 . S
Eu285 C284 2.835 . S
Eu285 O297 2.355 1_455 S
Eu285 O299 2.356 1_556 S
Eu285 O300 2.473 1_455 S
Eu285 O301 2.480 . S
Eu285 O302 2.430 . S
Eu285 O303 2.670 1_556 S
Eu285 O304 2.394 1_455 S
C286 C284 1.500 1_655 S
C286 C287 1.377 1_655 S
C286 C291 1.377 . S
C287 C286 1.377 1_455 S
C287 C288 1.395 . S
C287 H310 0.931 . S
C288 C287 1.395 . S
C288 C289 1.383 1_455 S
C288 H311 0.931 . S
C289 C288 1.383 1_655 S
C289 C290 1.394 . S
C290 C289 1.394 . S
C290 C291 1.378 . S
C290 H312 0.931 . S
C291 C286 1.377 . S
C291 C290 1.378 . S
C291 H313 0.931 . S
C292 O302 1.259 1_554 S
C292 O303 1.270 . S
C293 O304 1.251 . S
C293 O305 1.251 1_556 S
O294 C274 1.257 . S
O294 Eu275 2.473 1_455 S
O295 C274 1.260 1_655 S
O295 Eu275 2.480 . S
O296 Eu275 2.430 . S
O296 C282 1.279 . S
O297 Eu275 2.670 1_556 S
O297 C282 1.262 1_556 S
O297 Eu285 2.355 1_655 S
O298 Eu275 2.394 1_455 S
O298 C283 1.251 . S
O299 C283 1.277 . S
O299 Eu285 2.356 1_554 S
O300 C284 1.257 1_655 S
O300 Eu285 2.473 1_655 S
O301 C284 1.260 . S
O301 Eu285 2.480 . S
O302 Eu285 2.430 . S
O302 C292 1.259 1_556 S
O303 Eu275 2.355 1_455 S
O303 Eu285 2.670 1_554 S
O303 C292 1.270 . S
O304 Eu285 2.394 1_655 S
O304 C293 1.251 . S
O305 Eu275 2.374 . S
O305 C293 1.251 1_554 S
H306 C277 0.931 1_655 S
H307 C278 0.931 1_655 S
H308 C280 0.931 . S
H309 C281 0.931 . S
H310 C287 0.931 . S
H311 C288 0.931 . S
H312 C290 0.931 . S
H313 C291 0.931 . S
C314 Eu315 2.835 . S
C314 C316 1.500 . S
C314 O334 1.257 . S
C314 O335 1.260 . S
Eu315 C314 2.835 . S
Eu315 O334 2.473 . S
Eu315 O335 2.480 . S
Eu315 O336 2.430 . S
Eu315 O337 2.670 1_556 S
Eu315 O338 2.394 . S
Eu315 O343 2.355 1_556 S
Eu315 O345 2.374 1_556 S
C316 C314 1.500 . S
C316 C317 1.377 . S
C316 C321 1.377 . S
C317 C316 1.377 . S
C317 C318 1.395 . S
C317 H346 0.931 . S
C318 C317 1.395 . S
C318 C319 1.383 . S
C318 H347 0.931 . S
C319 C318 1.383 . S
C319 C320 1.394 . S
C320 C319 1.394 . S
C320 C321 1.378 . S
C320 H348 0.931 . S
C321 C316 1.377 . S
C321 C320 1.378 . S
C321 H349 0.931 . S
C322 O336 1.259 1_554 S
C322 O337 1.270 . S
C323 O338 1.251 . S
C323 O339 1.251 1_556 S
C324 Eu325 2.835 . S
C324 C326 1.500 . S
C324 O340 1.257 . S
C324 O341 1.260 . S
Eu325 C324 2.835 . S
Eu325 O337 2.355 . S
Eu325 O339 2.374 . S
Eu325 O340 2.473 . S
Eu325 O341 2.480 . S
Eu325 O342 2.430 . S
Eu325 O343 2.670 . S
Eu325 O344 2.394 . S
C326 C324 1.500 . S
C326 C327 1.377 . S
C326 C331 1.377 . S
C327 C326 1.377 . S
C327 C328 1.395 . S
C327 H350 0.931 . S
C328 C327 1.395 . S
C328 C329 1.383 . S
C328 H351 0.931 . S
C329 C328 1.383 . S
C329 C330 1.394 . S
C330 C329 1.394 . S
C330 C331 1.378 . S
C330 H352 0.931 . S
C331 C326 1.377 . S
C331 C330 1.378 . S
C331 H353 0.931 . S
C332 O342 1.259 . S
C332 O343 1.270 . S
C333 O344 1.251 . S
C333 O345 1.251 . S
O334 C314 1.257 . S
O334 Eu315 2.473 . S
O335 C314 1.260 . S
O335 Eu315 2.480 . S
O336 Eu315 2.430 . S
O336 C322 1.259 1_556 S
O337 Eu315 2.670 1_554 S
O337 C322 1.270 . S
O337 Eu325 2.355 . S
O338 Eu315 2.394 . S
O338 C323 1.251 . S
O339 C323 1.251 1_554 S
O339 Eu325 2.374 . S
O340 C324 1.257 . S
O340 Eu325 2.473 . S
O341 C324 1.260 . S
O341 Eu325 2.480 . S
O342 Eu325 2.430 . S
O342 C332 1.259 . S
O343 Eu315 2.355 1_554 S
O343 Eu325 2.670 . S
O343 C332 1.270 . S
O344 Eu325 2.394 . S
O344 C333 1.251 . S
O345 Eu315 2.374 1_554 S
O345 C333 1.251 . S
H346 C317 0.931 . S
H347 C318 0.931 . S
H348 C320 0.931 . S
H349 C321 0.931 . S
H350 C327 0.931 . S
H351 C328 0.931 . S
H352 C330 0.931 . S
H353 C331 0.931 . S
C354 Eu355 2.835 . S
C354 C356 1.500 . S
C354 O374 1.257 . S
C354 O375 1.260 . S
Eu355 C354 2.835 . S
Eu355 O374 2.473 . S
Eu355 O375 2.480 . S
Eu355 O376 2.430 . S
Eu355 O377 2.670 . S
Eu355 O378 2.394 . S
Eu355 O383 2.355 . S
Eu355 O385 2.374 . S
C356 C354 1.500 . S
C356 C357 1.377 . S
C356 C361 1.377 . S
C357 C356 1.377 . S
C357 C358 1.395 . S
C357 H386 0.931 . S
C358 C357 1.395 . S
C358 C359 1.383 . S
C358 H387 0.931 . S
C359 C358 1.383 . S
C359 C360 1.394 . S
C360 C359 1.394 . S
C360 C361 1.378 . S
C360 H388 0.931 . S
C361 C356 1.377 . S
C361 C360 1.378 . S
C361 H389 0.931 . S
C362 O376 1.259 . S
C362 O377 1.270 . S
C363 O378 1.251 . S
C363 O379 1.251 . S
C364 Eu365 2.835 . S
C364 C366 1.500 . S
C364 O380 1.257 . S
C364 O381 1.260 . S
Eu365 C364 2.835 . S
Eu365 O377 2.355 . S
Eu365 O379 2.374 . S
Eu365 O380 2.473 . S
Eu365 O381 2.480 . S
Eu365 O382 2.430 . S
Eu365 O383 2.670 . S
Eu365 O384 2.394 . S
C366 C364 1.500 . S
C366 C367 1.377 . S
C366 C371 1.377 . S
C367 C366 1.377 . S
C367 C368 1.395 . S
C367 H390 0.931 . S
C368 C367 1.395 . S
C368 C369 1.383 . S
C368 H391 0.931 . S
C369 C368 1.383 . S
C369 C370 1.394 . S
C370 C369 1.394 . S
C370 C371 1.378 . S
C370 H392 0.931 . S
C371 C366 1.377 . S
C371 C370 1.378 . S
C371 H393 0.931 . S
C372 O382 1.259 . S
C372 O383 1.270 . S
C373 O384 1.251 . S
C373 O385 1.251 . S
O374 C354 1.257 . S
O374 Eu355 2.473 . S
O375 C354 1.260 . S
O375 Eu355 2.480 . S
O376 Eu355 2.430 . S
O376 C362 1.259 . S
O377 Eu355 2.670 . S
O377 C362 1.270 . S
O377 Eu365 2.355 . S
O378 Eu355 2.394 . S
O378 C363 1.251 . S
O379 C363 1.251 . S
O379 Eu365 2.374 . S
O380 C364 1.257 . S
O380 Eu365 2.473 . S
O381 C364 1.260 . S
O381 Eu365 2.480 . S
O382 Eu365 2.430 . S
O382 C372 1.259 . S
O383 Eu355 2.355 . S
O383 Eu365 2.670 . S
O383 C372 1.270 . S
O384 Eu365 2.394 . S
O384 C373 1.251 . S
O385 Eu355 2.374 . S
O385 C373 1.251 . S
H386 C357 0.931 . S
H387 C358 0.931 . S
H388 C360 0.931 . S
H389 C361 0.931 . S
H390 C367 0.931 . S
H391 C368 0.931 . S
H392 C370 0.931 . S
H393 C371 0.931 . S
C394 Eu395 2.835 . S
C394 C396 1.500 . S
C394 O414 1.257 . S
C394 O415 1.260 . S
Eu395 C394 2.835 . S
Eu395 O414 2.473 . S
Eu395 O415 2.480 . S
Eu395 O416 2.430 . S
Eu395 O417 2.670 . S
Eu395 O418 2.394 . S
Eu395 O423 2.355 . S
Eu395 O425 2.374 . S
C396 C394 1.500 . S
C396 C397 1.377 . S
C396 C401 1.377 . S
C397 C396 1.377 . S
C397 C398 1.395 . S
C397 H426 0.931 . S
C398 C397 1.395 . S
C398 C399 1.383 . S
C398 H427 0.931 . S
C399 C398 1.383 . S
C399 C400 1.394 . S
C400 C399 1.394 . S
C400 C401 1.378 . S
C400 H428 0.931 . S
C401 C396 1.377 . S
C401 C400 1.378 . S
C401 H429 0.931 . S
C402 O416 1.259 . S
C402 O417 1.270 . S
C403 O418 1.251 . S
C403 O419 1.251 . S
C404 Eu405 2.835 . S
C404 C406 1.500 . S
C404 O420 1.257 . S
C404 O421 1.260 . S
Eu405 C404 2.835 . S
Eu405 O417 2.355 . S
Eu405 O419 2.374 . S
Eu405 O420 2.473 . S
Eu405 O421 2.480 . S
Eu405 O422 2.430 . S
Eu405 O423 2.670 . S
Eu405 O424 2.394 . S
C406 C404 1.500 . S
C406 C407 1.377 . S
C406 C411 1.377 . S
C407 C406 1.377 . S
C407 C408 1.395 . S
C407 H430 0.931 . S
C408 C407 1.395 . S
C408 C409 1.383 . S
C408 H431 0.931 . S
C409 C408 1.383 . S
C409 C410 1.394 . S
C410 C409 1.394 . S
C410 C411 1.378 . S
C410 H432 0.931 . S
C411 C406 1.377 . S
C411 C410 1.378 . S
C411 H433 0.931 . S
C412 O422 1.259 . S
C412 O423 1.270 . S
C413 O424 1.251 . S
C413 O425 1.251 . S
O414 C394 1.257 . S
O414 Eu395 2.473 . S
O415 C394 1.260 . S
O415 Eu395 2.480 . S
O416 Eu395 2.430 . S
O416 C402 1.259 . S
O417 Eu395 2.670 . S
O417 C402 1.270 . S
O417 Eu405 2.355 . S
O418 Eu395 2.394 . S
O418 C403 1.251 . S
O419 C403 1.251 . S
O419 Eu405 2.374 . S
O420 C404 1.257 . S
O420 Eu405 2.473 . S
O421 C404 1.260 . S
O421 Eu405 2.480 . S
O422 Eu405 2.430 . S
O422 C412 1.259 . S
O423 Eu395 2.355 . S
O423 Eu405 2.670 . S
O423 C412 1.270 . S
O424 Eu405 2.394 . S
O424 C413 1.251 . S
O425 Eu395 2.374 . S
O425 C413 1.251 . S
H426 C397 0.931 . S
H427 C398 0.931 . S
H428 C400 0.931 . S
H429 C401 0.931 . S
H430 C407 0.931 . S
H431 C408 0.931 . S
H432 C410 0.931 . S
H433 C411 0.931 . S
C434 Eu435 2.835 . S
C434 C436 1.500 . S
C434 O454 1.257 . S
C434 O455 1.260 . S
Eu435 C434 2.835 . S
Eu435 O454 2.473 . S
Eu435 O455 2.480 . S
Eu435 O456 2.430 . S
Eu435 O457 2.670 . S
Eu435 O458 2.394 . S
Eu435 O463 2.355 . S
Eu435 O465 2.374 . S
C436 C434 1.500 . S
C436 C437 1.377 . S
C436 C441 1.377 . S
C437 C436 1.377 . S
C437 C438 1.395 . S
C437 H466 0.931 . S
C438 C437 1.395 . S
C438 C439 1.383 . S
C438 H467 0.931 . S
C439 C438 1.383 . S
C439 C440 1.394 . S
C440 C439 1.394 . S
C440 C441 1.378 . S
C440 H468 0.931 . S
C441 C436 1.377 . S
C441 C440 1.378 . S
C441 H469 0.931 . S
C442 O456 1.259 . S
C442 O457 1.270 . S
C443 O458 1.251 . S
C443 O459 1.251 . S
C444 Eu445 2.835 . S
C444 C446 1.500 . S
C444 O460 1.257 . S
C444 O461 1.260 . S
Eu445 C444 2.835 . S
Eu445 O457 2.355 . S
Eu445 O459 2.374 . S
Eu445 O460 2.473 . S
Eu445 O461 2.480 . S
Eu445 O462 2.430 . S
Eu445 O463 2.670 . S
Eu445 O464 2.394 . S
C446 C444 1.500 . S
C446 C447 1.377 . S
C446 C451 1.377 . S
C447 C446 1.377 . S
C447 C448 1.395 . S
C447 H470 0.931 . S
C448 C447 1.395 . S
C448 C449 1.383 . S
C448 H471 0.931 . S
C449 C448 1.383 . S
C449 C450 1.394 . S
C450 C449 1.394 . S
C450 C451 1.378 . S
C450 H472 0.931 . S
C451 C446 1.377 . S
C451 C450 1.378 . S
C451 H473 0.931 . S
C452 O462 1.259 . S
C452 O463 1.270 . S
C453 O464 1.251 . S
C453 O465 1.251 . S
O454 C434 1.257 . S
O454 Eu435 2.473 . S
O455 C434 1.260 . S
O455 Eu435 2.480 . S
O456 Eu435 2.430 . S
O456 C442 1.259 . S
O457 Eu435 2.670 . S
O457 C442 1.270 . S
O457 Eu445 2.355 . S
O458 Eu435 2.394 . S
O458 C443 1.251 . S
O459 C443 1.251 . S
O459 Eu445 2.374 . S
O460 C444 1.257 . S
O460 Eu445 2.473 . S
O461 C444 1.260 . S
O461 Eu445 2.480 . S
O462 Eu445 2.430 . S
O462 C452 1.259 . S
O463 Eu435 2.355 . S
O463 Eu445 2.670 . S
O463 C452 1.270 . S
O464 Eu445 2.394 . S
O464 C453 1.251 . S
O465 Eu435 2.374 . S
O465 C453 1.251 . S
H466 C437 0.931 . S
H467 C438 0.931 . S
H468 C440 0.931 . S
H469 C441 0.931 . S
H470 C447 0.931 . S
H471 C448 0.931 . S
H472 C450 0.931 . S
H473 C451 0.931 . S
C474 Eu475 2.835 . S
C474 C476 1.500 . S
C474 O494 1.257 . S
C474 O495 1.260 . S
Eu475 C474 2.835 . S
Eu475 O494 2.473 . S
Eu475 O495 2.480 . S
Eu475 O496 2.430 . S
Eu475 O497 2.670 . S
Eu475 O498 2.394 . S
Eu475 O503 2.355 . S
Eu475 O505 2.374 . S
C476 C474 1.500 . S
C476 C477 1.377 . S
C476 C481 1.377 . S
C477 C476 1.377 . S
C477 C478 1.395 . S
C477 H506 0.931 . S
C478 C477 1.395 . S
C478 C479 1.383 . S
C478 H507 0.931 . S
C479 C478 1.383 . S
C479 C480 1.394 . S
C480 C479 1.394 . S
C480 C481 1.378 . S
C480 H508 0.931 . S
C481 C476 1.377 . S
C481 C480 1.378 . S
C481 H509 0.931 . S
C482 O496 1.259 . S
C482 O497 1.270 . S
C483 O498 1.251 . S
C483 O499 1.251 . S
C484 Eu485 2.835 . S
C484 C486 1.500 . S
C484 O500 1.257 . S
C484 O501 1.260 . S
Eu485 C484 2.835 . S
Eu485 O497 2.355 . S
Eu485 O499 2.374 . S
Eu485 O500 2.473 . S
Eu485 O501 2.480 . S
Eu485 O502 2.430 . S
Eu485 O503 2.670 . S
Eu485 O504 2.394 . S
C486 C484 1.500 . S
C486 C487 1.377 . S
C486 C491 1.377 . S
C487 C486 1.377 . S
C487 C488 1.395 . S
C487 H510 0.931 . S
C488 C487 1.395 . S
C488 C489 1.383 . S
C488 H511 0.931 . S
C489 C488 1.383 . S
C489 C490 1.394 . S
C490 C489 1.394 . S
C490 C491 1.378 . S
C490 H512 0.931 . S
C491 C486 1.377 . S
C491 C490 1.378 . S
C491 H513 0.931 . S
C492 O502 1.259 . S
C492 O503 1.270 . S
C493 O504 1.251 . S
C493 O505 1.251 . S
O494 C474 1.257 . S
O494 Eu475 2.473 . S
O495 C474 1.260 . S
O495 Eu475 2.480 . S
O496 Eu475 2.430 . S
O496 C482 1.259 . S
O497 Eu475 2.670 . S
O497 C482 1.270 . S
O497 Eu485 2.355 . S
O498 Eu475 2.394 . S
O498 C483 1.251 . S
O499 C483 1.251 . S
O499 Eu485 2.374 . S
O500 C484 1.257 . S
O500 Eu485 2.473 . S
O501 C484 1.260 . S
O501 Eu485 2.480 . S
O502 Eu485 2.430 . S
O502 C492 1.259 . S
O503 Eu475 2.355 . S
O503 Eu485 2.670 . S
O503 C492 1.270 . S
O504 Eu485 2.394 . S
O504 C493 1.251 . S
O505 Eu475 2.374 . S
O505 C493 1.251 . S
H506 C477 0.931 . S
H507 C478 0.931 . S
H508 C480 0.931 . S
H509 C481 0.931 . S
H510 C487 0.931 . S
H511 C488 0.931 . S
H512 C490 0.931 . S
H513 C491 0.931 . S
C514 Eu515 2.835 . S
C514 C516 1.500 . S
C514 O534 1.257 . S
C514 O535 1.260 . S
Eu515 C514 2.835 . S
Eu515 O534 2.473 . S
Eu515 O535 2.480 . S
Eu515 O536 2.430 . S
Eu515 O537 2.670 . S
Eu515 O538 2.394 . S
Eu515 O543 2.355 . S
Eu515 O545 2.374 . S
C516 C514 1.500 . S
C516 C517 1.377 . S
C516 C521 1.377 . S
C517 C516 1.377 . S
C517 C518 1.395 . S
C517 H546 0.931 . S
C518 C517 1.395 . S
C518 C519 1.383 . S
C518 H547 0.931 . S
C519 C518 1.383 . S
C519 C520 1.394 . S
C520 C519 1.394 . S
C520 C521 1.378 . S
C520 H548 0.931 . S
C521 C516 1.377 . S
C521 C520 1.378 . S
C521 H549 0.931 . S
C522 O536 1.259 . S
C522 O537 1.270 . S
C523 O538 1.251 . S
C523 O539 1.251 . S
C524 Eu525 2.835 . S
C524 C526 1.500 . S
C524 O540 1.257 . S
C524 O541 1.260 . S
Eu525 C524 2.835 . S
Eu525 O537 2.355 . S
Eu525 O539 2.374 . S
Eu525 O540 2.473 . S
Eu525 O541 2.480 . S
Eu525 O542 2.430 . S
Eu525 O543 2.670 . S
Eu525 O544 2.394 . S
C526 C524 1.500 . S
C526 C527 1.377 . S
C526 C531 1.377 . S
C527 C526 1.377 . S
C527 C528 1.395 . S
C527 H550 0.931 . S
C528 C527 1.395 . S
C528 C529 1.383 . S
C528 H551 0.931 . S
C529 C528 1.383 . S
C529 C530 1.394 . S
C530 C529 1.394 . S
C530 C531 1.378 . S
C530 H552 0.931 . S
C531 C526 1.377 . S
C531 C530 1.378 . S
C531 H553 0.931 . S
C532 O542 1.259 . S
C532 O543 1.270 . S
C533 O544 1.251 . S
C533 O545 1.251 . S
O534 C514 1.257 . S
O534 Eu515 2.473 . S
O535 C514 1.260 . S
O535 Eu515 2.480 . S
O536 Eu515 2.430 . S
O536 C522 1.259 . S
O537 Eu515 2.670 . S
O537 C522 1.270 . S
O537 Eu525 2.355 . S
O538 Eu515 2.394 . S
O538 C523 1.251 . S
O539 C523 1.251 . S
O539 Eu525 2.374 . S
O540 C524 1.257 . S
O540 Eu525 2.473 . S
O541 C524 1.260 . S
O541 Eu525 2.480 . S
O542 Eu525 2.430 . S
O542 C532 1.259 . S
O543 Eu515 2.355 . S
O543 Eu525 2.670 . S
O543 C532 1.270 . S
O544 Eu525 2.394 . S
O544 C533 1.251 . S
O545 Eu515 2.374 . S
O545 C533 1.251 . S
H546 C517 0.931 . S
H547 C518 0.931 . S
H548 C520 0.931 . S
H549 C521 0.931 . S
H550 C527 0.931 . S
H551 C528 0.931 . S
H552 C530 0.931 . S
H553 C531 0.931 . S
C554 Eu555 2.835 . S
C554 C556 1.500 . S
C554 O574 1.257 . S
C554 O575 1.260 . S
Eu555 C554 2.835 . S
Eu555 O574 2.473 . S
Eu555 O575 2.480 . S
Eu555 O576 2.430 . S
Eu555 O577 2.670 . S
Eu555 O578 2.394 . S
Eu555 O583 2.355 . S
Eu555 O585 2.374 . S
C556 C554 1.500 . S
C556 C557 1.377 . S
C556 C561 1.377 . S
C557 C556 1.377 . S
C557 C558 1.395 . S
C557 H586 0.931 . S
C558 C557 1.395 . S
C558 C559 1.383 . S
C558 H587 0.931 . S
C559 C558 1.383 . S
C559 C560 1.394 . S
C560 C559 1.394 . S
C560 C561 1.378 . S
C560 H588 0.931 . S
C561 C556 1.377 . S
C561 C560 1.378 . S
C561 H589 0.931 . S
C562 O576 1.259 . S
C562 O577 1.270 . S
C563 O578 1.251 . S
C563 O579 1.251 . S
C564 Eu565 2.835 . S
C564 C566 1.500 . S
C564 O580 1.257 . S
C564 O581 1.260 . S
Eu565 C564 2.835 . S
Eu565 O577 2.355 . S
Eu565 O579 2.374 . S
Eu565 O580 2.473 . S
Eu565 O581 2.480 . S
Eu565 O582 2.430 . S
Eu565 O583 2.670 . S
Eu565 O584 2.394 . S
C566 C564 1.500 . S
C566 C567 1.377 . S
C566 C571 1.377 . S
C567 C566 1.377 . S
C567 C568 1.395 . S
C567 H590 0.931 . S
C568 C567 1.395 . S
C568 C569 1.383 . S
C568 H591 0.931 . S
C569 C568 1.383 . S
C569 C570 1.394 . S
C570 C569 1.394 . S
C570 C571 1.378 . S
C570 H592 0.931 . S
C571 C566 1.377 . S
C571 C570 1.378 . S
C571 H593 0.931 . S
C572 O582 1.259 . S
C572 O583 1.270 . S
C573 O584 1.251 . S
C573 O585 1.251 . S
O574 C554 1.257 . S
O574 Eu555 2.473 . S
O575 C554 1.260 . S
O575 Eu555 2.480 . S
O576 Eu555 2.430 . S
O576 C562 1.259 . S
O577 Eu555 2.670 . S
O577 C562 1.270 . S
O577 Eu565 2.355 . S
O578 Eu555 2.394 . S
O578 C563 1.251 . S
O579 C563 1.251 . S
O579 Eu565 2.374 . S
O580 C564 1.257 . S
O580 Eu565 2.473 . S
O581 C564 1.260 . S
O581 Eu565 2.480 . S
O582 Eu565 2.430 . S
O582 C572 1.259 . S
O583 Eu555 2.355 . S
O583 Eu565 2.670 . S
O583 C572 1.270 . S
O584 Eu565 2.394 . S
O584 C573 1.251 . S
O585 Eu555 2.374 . S
O585 C573 1.251 . S
H586 C557 0.931 . S
H587 C558 0.931 . S
H588 C560 0.931 . S
H589 C561 0.931 . S
H590 C567 0.931 . S
H591 C568 0.931 . S
H592 C570 0.931 . S
H593 C571 0.931 . S
C594 C595 1.369 . S
C594 C596 1.419 . S
C594 H598 0.930 . S
C595 C594 1.369 . S
C595 C604 1.429 . S
C596 C594 1.419 . S
C596 C597 1.363 . S
C596 H599 0.929 . S
C597 C596 1.363 . S
C597 C603 1.428 . S
H598 C594 0.930 . S
H599 C596 0.929 . S
S600 N601 1.613 . S
S600 N602 1.610 . S
N601 S600 1.613 . S
N601 C604 1.350 . S
N602 S600 1.610 . S
N602 C603 1.351 . S
C603 C597 1.428 . S
C603 N602 1.351 . S
C603 C604 1.434 . S
C604 C595 1.429 . S
C604 N601 1.350 . S
C604 C603 1.434 . S
C605 C606 1.369 . S
C605 C607 1.419 . S
C605 H609 0.930 . S
C606 C605 1.369 . S
C606 C615 1.429 . S
C607 C605 1.419 . S
C607 C608 1.363 . S
C607 H610 0.929 . S
C608 C607 1.363 . S
C608 C614 1.428 . S
H609 C605 0.930 . S
H610 C607 0.929 . S
S611 N612 1.613 . S
S611 N613 1.610 . S
N612 S611 1.613 . S
N612 C615 1.350 . S
N613 S611 1.610 . S
N613 C614 1.351 . S
C614 C608 1.428 . S
C614 N613 1.351 . S
C614 C615 1.434 . S
C615 C606 1.429 . S
C615 N612 1.350 . S
C615 C614 1.434 . S
C616 C617 1.369 . S
C616 C618 1.419 . S
C616 H620 0.930 . S
C617 C616 1.369 . S
C617 C626 1.429 . S
C618 C616 1.419 . S
C618 C619 1.363 . S
C618 H621 0.929 . S
C619 C618 1.363 . S
C619 C625 1.428 . S
H620 C616 0.930 . S
H621 C618 0.929 . S
S622 N623 1.613 . S
S622 N624 1.610 . S
N623 S622 1.613 . S
N623 C626 1.350 . S
N624 S622 1.610 . S
N624 C625 1.351 . S
C625 C619 1.428 . S
C625 N624 1.351 . S
C625 C626 1.434 . S
C626 C617 1.429 . S
C626 N623 1.350 . S
C626 C625 1.434 . S
C627 C628 1.354 1_554 S
C627 C629 1.422 . S
C627 H631 0.943 . S
C628 C627 1.354 1_556 S
C628 C637 1.429 . S
C629 C627 1.422 . S
C629 C630 1.363 1_554 S
C629 H632 0.929 . S
C630 C629 1.363 1_556 S
C630 C636 1.428 . S
H631 C627 0.943 . S
H632 C629 0.929 . S
S633 N634 1.613 . S
S633 N635 1.610 . S
N634 S633 1.613 . S
N634 C637 1.350 . S
N635 S633 1.610 . S
N635 C636 1.351 . S
C636 C630 1.428 . S
C636 N635 1.351 . S
C636 C637 1.434 . S
C637 C628 1.429 . S
C637 N634 1.350 . S
C637 C636 1.434 . S
C638 C639 1.369 . S
C638 C640 1.419 . S
C638 H642 0.930 . S
C639 C638 1.369 . S
C639 C648 1.429 . S
C640 C638 1.419 . S
C640 C641 1.363 . S
C640 H643 0.929 1_556 S
C641 C640 1.363 . S
C641 C647 1.428 . S
H642 C638 0.930 . S
H643 C640 0.929 1_554 S
S644 N645 1.613 . S
S644 N646 1.610 . S
N645 S644 1.613 . S
N645 C648 1.350 . S
N646 S644 1.610 . S
N646 C647 1.351 . S
C647 C641 1.428 . S
C647 N646 1.351 . S
C647 C648 1.434 . S
C648 C639 1.429 . S
C648 N645 1.350 . S
C648 C647 1.434 . S
C649 C650 1.369 . S
C649 C651 1.419 . S
C649 H653 0.930 . S
C650 C649 1.369 . S
C650 C659 1.407 1_556 S
C651 C649 1.419 . S
C651 C652 1.363 . S
C651 H654 0.929 . S
C652 C651 1.363 . S
C652 C658 1.428 1_556 S
H653 C649 0.930 . S
H654 C651 0.929 . S
S655 N656 1.613 . S
S655 N657 1.610 . S
N656 S655 1.613 . S
N656 C659 1.367 . S
N657 S655 1.610 . S
N657 C658 1.351 . S
C658 C652 1.428 1_554 S
C658 N657 1.351 . S
C658 C659 1.440 . S
C659 C650 1.407 1_554 S
C659 N656 1.367 . S
C659 C658 1.440 . S
C660 C661 1.369 . S
C660 C662 1.419 . S
C660 H664 0.930 . S
C661 C660 1.369 . S
C661 C670 1.429 . S
C662 C660 1.419 . S
C662 C663 1.363 . S
C662 H665 0.929 1_556 S
C663 C662 1.363 . S
C663 C669 1.428 . S
H664 C660 0.930 . S
H665 C662 0.929 1_554 S
S666 N667 1.613 . S
S666 N668 1.610 . S
N667 S666 1.613 . S
N667 C670 1.350 . S
N668 S666 1.610 . S
N668 C669 1.351 . S
C669 C663 1.428 . S
C669 N668 1.351 . S
C669 C670 1.434 . S
C670 C661 1.429 . S
C670 N667 1.350 . S
C670 C669 1.434 . S
C671 C672 1.369 . S
C671 C673 1.419 . S
C671 H675 0.930 . S
C672 C671 1.369 . S
C672 C681 1.429 . S
C673 C671 1.419 . S
C673 C674 1.363 . S
C673 H676 0.929 . S
C674 C673 1.363 . S
C674 C680 1.428 . S
H675 C671 0.930 . S
H676 C673 0.929 . S
S677 N678 1.613 . S
S677 N679 1.610 . S
N678 S677 1.613 . S
N678 C681 1.350 . S
N679 S677 1.610 . S
N679 C680 1.351 . S
C680 C674 1.428 . S
C680 N679 1.351 . S
C680 C681 1.434 . S
C681 C672 1.429 . S
C681 N678 1.350 . S
C681 C680 1.434 . S
C682 C683 1.369 . S
C682 C684 1.419 . S
C682 H686 0.930 . S
C683 C682 1.369 . S
C683 C692 1.429 1_556 S
C684 C682 1.419 . S
C684 C685 1.363 1_556 S
C684 H687 0.929 . S
C685 C684 1.363 1_554 S
C685 C691 1.428 . S
H686 C682 0.930 . S
H687 C684 0.929 . S
S688 N689 1.613 . S
S688 N690 1.610 . S
N689 S688 1.613 . S
N689 C692 1.350 . S
N690 S688 1.610 . S
N690 C691 1.351 . S
C691 C685 1.428 . S
C691 N690 1.351 . S
C691 C692 1.434 . S
C692 C683 1.429 1_554 S
C692 N689 1.350 . S
C692 C691 1.434 . S
C693 C694 1.369 . S
C693 C695 1.419 . S
C693 H697 0.930 . S
C694 C693 1.369 . S
C694 C703 1.429 . S
C695 C693 1.419 . S
C695 C696 1.363 . S
C695 H698 0.929 . S
C696 C695 1.363 . S
C696 C702 1.428 . S
H697 C693 0.930 . S
H698 C695 0.929 . S
S699 N700 1.613 . S
S699 N701 1.610 . S
N700 S699 1.613 . S
N700 C703 1.350 1_556 S
N701 S699 1.610 . S
N701 C702 1.351 1_556 S
C702 C696 1.428 . S
C702 N701 1.351 1_554 S
C702 C703 1.434 . S
C703 C694 1.429 . S
C703 N700 1.350 1_554 S
C703 C702 1.434 . S
C704 C705 1.369 . S
C704 C706 1.419 . S
C704 H708 0.930 . S
C705 C704 1.369 . S
C705 C714 1.429 . S
C706 C704 1.419 . S
C706 C707 1.363 . S
C706 H709 0.929 . S
C707 C706 1.363 . S
C707 C713 1.428 . S
H708 C704 0.930 . S
H709 C706 0.929 . S
S710 N711 1.613 1_556 S
S710 N712 1.610 1_556 S
N711 S710 1.613 1_554 S
N711 C714 1.350 . S
N712 S710 1.610 1_554 S
N712 C713 1.351 . S
C713 C707 1.428 . S
C713 N712 1.351 . S
C713 C714 1.434 . S
C714 C705 1.429 . S
C714 N711 1.350 . S
C714 C713 1.434 . S
C715 C716 1.369 . S
C715 C717 1.419 . S
C715 H719 0.930 . S
C716 C715 1.369 . S
C716 C725 1.429 . S
C717 C715 1.419 . S
C717 C718 1.363 . S
C717 H720 0.929 . S
C718 C717 1.363 . S
C718 C724 1.428 . S
H719 C715 0.930 . S
H720 C717 0.929 . S
S721 N722 1.613 . S
S721 N723 1.610 . S
N722 S721 1.613 . S
N722 C725 1.350 . S
N723 S721 1.610 . S
N723 C724 1.351 . S
C724 C718 1.428 . S
C724 N723 1.351 . S
C724 C725 1.434 . S
C725 C716 1.429 . S
C725 N722 1.350 . S
C725 C724 1.434 . S
C726 C727 1.369 . S
C726 C728 1.419 1_655 S
C726 H730 0.930 . S
C727 C726 1.369 . S
C727 C736 1.429 . S
C728 C726 1.419 1_455 S
C728 C729 1.363 . S
C728 H731 0.929 . S
C729 C728 1.363 . S
C729 C735 1.428 . S
H730 C726 0.930 . S
H731 C728 0.929 . S
S732 N733 1.613 1_455 S
S732 N734 1.610 . S
N733 S732 1.613 1_655 S
N733 C736 1.350 . S
N734 S732 1.610 . S
N734 C735 1.351 . S
C735 C729 1.428 . S
C735 N734 1.351 . S
C735 C736 1.434 1_455 S
C736 C727 1.429 . S
C736 N733 1.350 . S
C736 C735 1.434 1_655 S
C737 C738 1.369 . S
C737 C739 1.419 . S
C737 H741 0.930 . S
C738 C737 1.369 . S
C738 C747 1.429 . S
C739 C737 1.419 . S
C739 C740 1.363 . S
C739 H742 0.929 . S
C740 C739 1.363 . S
C740 C746 1.428 . S
H741 C737 0.930 . S
H742 C739 0.929 . S
S743 N744 1.613 . S
S743 N745 1.610 . S
N744 S743 1.613 . S
N744 C747 1.350 . S
N745 S743 1.610 . S
N745 C746 1.351 . S
C746 C740 1.428 . S
C746 N745 1.351 . S
C746 C747 1.434 . S
C747 C738 1.429 . S
C747 N744 1.350 . S
C747 C746 1.434 . S
C748 C749 1.369 . S
C748 C750 1.419 1_545 S
C748 H752 0.930 . S
C749 C748 1.369 . S
C749 C758 1.429 . S
C750 C748 1.419 1_565 S
C750 C751 1.363 . S
C750 H753 0.929 . S
C751 C750 1.363 . S
C751 C757 1.428 . S
H752 C748 0.930 . S
H753 C750 0.929 . S
S754 N755 1.613 . S
S754 N756 1.610 1_545 S
N755 S754 1.613 . S
N755 C758 1.350 . S
N756 S754 1.610 1_565 S
N756 C757 1.351 . S
C757 C751 1.428 . S
C757 N756 1.351 . S
C757 C758 1.434 1_565 S
C758 C749 1.429 . S
C758 N755 1.350 . S
C758 C757 1.434 1_545 S
C759 C760 1.369 . S
C759 C761 1.419 . S
C759 H763 0.930 . S
C760 C759 1.369 . S
C760 C769 1.429 . S
C761 C759 1.419 . S
C761 C762 1.363 . S
C761 H764 0.929 . S
C762 C761 1.363 . S
C762 C768 1.428 . S
H763 C759 0.930 . S
H764 C761 0.929 . S
S765 N766 1.613 . S
S765 N767 1.610 . S
N766 S765 1.613 . S
N766 C769 1.350 . S
N767 S765 1.610 . S
N767 C768 1.351 . S
C768 C762 1.428 . S
C768 N767 1.351 . S
C768 C769 1.434 . S
C769 C760 1.429 . S
C769 N766 1.350 . S
C769 C768 1.434 . S
C770 C771 1.369 . S
C770 C772 1.419 . S
C770 H774 0.930 . S
C771 C770 1.369 . S
C771 C780 1.429 . S
C772 C770 1.419 . S
C772 C773 1.363 . S
C772 H775 0.929 . S
C773 C772 1.363 . S
C773 C779 1.428 . S
H774 C770 0.930 . S
H775 C772 0.929 . S
S776 N777 1.613 . S
S776 N778 1.610 . S
N777 S776 1.613 . S
N777 C780 1.350 . S
N778 S776 1.610 . S
N778 C779 1.351 . S
C779 C773 1.428 . S
C779 N778 1.351 . S
C779 C780 1.434 . S
C780 C771 1.429 . S
C780 N777 1.350 . S
C780 C779 1.434 . S
C781 C782 1.369 . S
C781 C783 1.419 . S
C781 H785 0.930 . S
C782 C781 1.369 . S
C782 C791 1.429 . S
C783 C781 1.419 . S
C783 C784 1.363 . S
C783 H786 0.929 . S
C784 C783 1.363 . S
C784 C790 1.428 . S
H785 C781 0.930 . S
H786 C783 0.929 . S
S787 N788 1.613 . S
S787 N789 1.610 . S
N788 S787 1.613 . S
N788 C791 1.350 . S
N789 S787 1.610 . S
N789 C790 1.351 . S
C790 C784 1.428 . S
C790 N789 1.351 . S
C790 C791 1.434 . S
C791 C782 1.429 . S
C791 N788 1.350 . S
C791 C790 1.434 . S
C792 C793 1.369 . S
C792 C794 1.419 . S
C792 H796 0.930 . S
C793 C792 1.369 . S
C793 C802 1.429 . S
C794 C792 1.419 . S
C794 C795 1.363 . S
C794 H797 0.929 . S
C795 C794 1.363 . S
C795 C801 1.428 . S
H796 C792 0.930 . S
H797 C794 0.929 . S
S798 N799 1.613 . S
S798 N800 1.610 . S
N799 S798 1.613 . S
N799 C802 1.350 . S
N800 S798 1.610 . S
N800 C801 1.351 . S
C801 C795 1.428 . S
C801 N800 1.351 . S
C801 C802 1.434 . S
C802 C793 1.429 . S
C802 N799 1.350 . S
C802 C801 1.434 . S
C803 C804 1.369 . S
C803 C805 1.419 . S
C803 H807 0.930 . S
C804 C803 1.369 . S
C804 C813 1.429 . S
C805 C803 1.419 . S
C805 C806 1.363 . S
C805 H808 0.929 . S
C806 C805 1.363 . S
C806 C812 1.428 . S
H807 C803 0.930 . S
H808 C805 0.929 . S
S809 N810 1.613 . S
S809 N811 1.610 . S
N810 S809 1.613 . S
N810 C813 1.350 . S
N811 S809 1.610 . S
N811 C812 1.351 . S
C812 C806 1.428 . S
C812 N811 1.351 . S
C812 C813 1.434 . S
C813 C804 1.429 . S
C813 N810 1.350 . S
C813 C812 1.434 . S
C814 C815 1.369 . S
C814 C816 1.419 . S
C814 H818 0.930 . S
C815 C814 1.369 . S
C815 C824 1.429 . S
C816 C814 1.419 . S
C816 C817 1.363 . S
C816 H819 0.929 . S
C817 C816 1.363 . S
C817 C823 1.428 . S
H818 C814 0.930 . S
H819 C816 0.929 . S
S820 N821 1.613 . S
S820 N822 1.610 . S
N821 S820 1.613 . S
N821 C824 1.350 . S
N822 S820 1.610 . S
N822 C823 1.351 . S
C823 C817 1.428 . S
C823 N822 1.351 . S
C823 C824 1.434 . S
C824 C815 1.429 . S
C824 N821 1.350 . S
C824 C823 1.434 . S
C825 C826 1.369 . S
C825 C827 1.419 1_545 S
C825 H829 0.930 . S
C826 C825 1.369 . S
C826 C835 1.429 . S
C827 C825 1.419 1_565 S
C827 C828 1.363 . S
C827 H830 0.929 . S
C828 C827 1.363 . S
C828 C834 1.428 . S
H829 C825 0.930 . S
H830 C827 0.929 . S
S831 N832 1.613 . S
S831 N833 1.610 1_545 S
N832 S831 1.613 . S
N832 C835 1.350 . S
N833 S831 1.610 1_565 S
N833 C834 1.351 . S
C834 C828 1.428 . S
C834 N833 1.351 . S
C834 C835 1.434 1_565 S
C835 C826 1.429 . S
C835 N832 1.350 . S
C835 C834 1.434 1_545 S
C836 C837 1.369 . S
C836 C838 1.419 1_655 S
C836 H840 0.930 . S
C837 C836 1.369 . S
C837 C846 1.429 1_655 S
C838 C836 1.419 1_455 S
C838 C839 1.363 . S
C838 H841 0.929 . S
C839 C838 1.363 . S
C839 C845 1.428 . S
H840 C836 0.930 . S
H841 C838 0.929 . S
S842 N843 1.613 . S
S842 N844 1.610 . S
N843 S842 1.613 . S
N843 C846 1.350 . S
N844 S842 1.610 . S
N844 C845 1.351 . S
C845 C839 1.428 . S
C845 N844 1.351 . S
C845 C846 1.434 . S
C846 C837 1.429 1_455 S
C846 N843 1.350 . S
C846 C845 1.434 . S
C847 C848 1.369 . S
C847 C849 1.419 . S
C847 H851 0.930 . S
C848 C847 1.369 . S
C848 C857 1.429 . S
C849 C847 1.419 . S
C849 C850 1.363 . S
C849 H852 0.929 . S
C850 C849 1.363 . S
C850 C856 1.428 . S
H851 C847 0.930 . S
H852 C849 0.929 . S
S853 N854 1.613 . S
S853 N855 1.610 . S
N854 S853 1.613 . S
N854 C857 1.350 . S
N855 S853 1.610 . S
N855 C856 1.351 . S
C856 C850 1.428 . S
C856 N855 1.351 . S
C856 C857 1.434 . S
C857 C848 1.429 . S
C857 N854 1.350 . S
C857 C856 1.434 . S
C858 C859 1.369 . S
C858 C860 1.419 . S
C858 H862 0.930 . S
C859 C858 1.369 . S
C859 C868 1.429 . S
C860 C858 1.419 . S
C860 C861 1.363 . S
C860 H863 0.929 . S
C861 C860 1.363 . S
C861 C867 1.428 . S
H862 C858 0.930 . S
H863 C860 0.929 . S
S864 N865 1.613 . S
S864 N866 1.610 . S
N865 S864 1.613 . S
N865 C868 1.350 . S
N866 S864 1.610 . S
N866 C867 1.351 . S
C867 C861 1.428 . S
C867 N866 1.351 . S
C867 C868 1.434 . S
C868 C859 1.429 . S
C868 N865 1.350 . S
C868 C867 1.434 . S
C869 C870 1.369 . S
C869 C871 1.419 . S
C869 H873 0.930 . S
C870 C869 1.369 . S
C870 C879 1.429 . S
C871 C869 1.419 . S
C871 C872 1.363 . S
C871 H874 0.929 . S
C872 C871 1.363 . S
C872 C878 1.428 . S
H873 C869 0.930 . S
H874 C871 0.929 . S
S875 N876 1.613 . S
S875 N877 1.610 . S
N876 S875 1.613 . S
N876 C879 1.350 . S
N877 S875 1.610 . S
N877 C878 1.351 . S
C878 C872 1.428 . S
C878 N877 1.351 . S
C878 C879 1.434 . S
C879 C870 1.429 . S
C879 N876 1.350 . S
C879 C878 1.434 . S
C880 C881 1.369 . S
C880 C882 1.419 . S
C880 H884 0.930 . S
C881 C880 1.369 . S
C881 C890 1.429 . S
C882 C880 1.419 . S
C882 C883 1.363 . S
C882 H885 0.929 . S
C883 C882 1.363 . S
C883 C889 1.428 . S
H884 C880 0.930 . S
H885 C882 0.929 . S
S886 N887 1.613 . S
S886 N888 1.610 . S
N887 S886 1.613 . S
N887 C890 1.350 . S
N888 S886 1.610 . S
N888 C889 1.351 . S
C889 C883 1.428 . S
C889 N888 1.351 . S
C889 C890 1.434 . S
C890 C881 1.429 . S
C890 N887 1.350 . S
C890 C889 1.434 . S
C891 C892 1.369 . S
C891 C893 1.419 1_565 S
C891 H895 0.930 . S
C892 C891 1.369 . S
C892 C901 1.429 . S
C893 C891 1.419 1_545 S
C893 C894 1.363 . S
C893 H896 0.929 . S
C894 C893 1.363 . S
C894 C900 1.428 . S
H895 C891 0.930 . S
H896 C893 0.929 . S
S897 N898 1.613 1_545 S
S897 N899 1.610 . S
N898 S897 1.613 1_565 S
N898 C901 1.350 . S
N899 S897 1.610 . S
N899 C900 1.351 . S
C900 C894 1.428 . S
C900 N899 1.351 . S
C900 C901 1.434 1_545 S
C901 C892 1.429 . S
C901 N898 1.350 . S
C901 C900 1.434 1_565 S
C902 C903 1.369 1_655 S
C902 C904 1.419 . S
C902 H906 0.930 . S
C903 C902 1.369 1_455 S
C903 C912 1.429 . S
C904 C902 1.419 . S
C904 C905 1.363 . S
C904 H907 0.929 . S
C905 C904 1.363 . S
C905 C911 1.428 . S
H906 C902 0.930 . S
H907 C904 0.929 . S
S908 N909 1.613 . S
S908 N910 1.610 1_455 S
N909 S908 1.613 . S
N909 C912 1.350 . S
N910 S908 1.610 1_655 S
N910 C911 1.351 . S
C911 C905 1.428 . S
C911 N910 1.351 . S
C911 C912 1.434 1_655 S
C912 C903 1.429 . S
C912 N909 1.350 . S
C912 C911 1.434 1_455 S
C913 C914 1.369 . S
C913 C915 1.419 . S
C913 H917 0.930 . S
C914 C913 1.369 . S
C914 C923 1.429 . S
C915 C913 1.419 . S
C915 C916 1.363 . S
C915 H918 0.929 . S
C916 C915 1.363 . S
C916 C922 1.428 . S
H917 C913 0.930 . S
H918 C915 0.929 . S
S919 N920 1.613 . S
S919 N921 1.610 . S
N920 S919 1.613 . S
N920 C923 1.350 . S
N921 S919 1.610 . S
N921 C922 1.351 . S
C922 C916 1.428 . S
C922 N921 1.351 . S
C922 C923 1.434 . S
C923 C914 1.429 . S
C923 N920 1.350 . S
C923 C922 1.434 . S
C924 C925 1.369 . S
C924 C926 1.419 . S
C924 H928 0.930 . S
C925 C924 1.369 . S
C925 C934 1.429 . S
C926 C924 1.419 . S
C926 C927 1.363 1_455 S
C926 H929 0.929 1_455 S
C927 C926 1.363 1_655 S
C927 C933 1.428 1_655 S
H928 C924 0.930 . S
H929 C926 0.929 1_655 S
S930 N931 1.613 . S
S930 N932 1.610 . S
N931 S930 1.613 . S
N931 C934 1.350 . S
N932 S930 1.610 . S
N932 C933 1.351 . S
C933 C927 1.428 1_455 S
C933 N932 1.351 . S
C933 C934 1.434 . S
C934 C925 1.429 . S
C934 N931 1.350 . S
C934 C933 1.434 . S
C935 C936 1.369 . S
C935 C937 1.419 . S
C935 H939 0.930 . S
C936 C935 1.369 . S
C936 C945 1.429 . S
C937 C935 1.419 . S
C937 C938 1.363 . S
C937 H940 0.929 . S
C938 C937 1.363 . S
C938 C944 1.428 . S
H939 C935 0.930 . S
H940 C937 0.929 . S
S941 N942 1.613 . S
S941 N943 1.610 . S
N942 S941 1.613 . S
N942 C945 1.350 . S
N943 S941 1.610 . S
N943 C944 1.351 . S
C944 C938 1.428 . S
C944 N943 1.351 . S
C944 C945 1.434 . S
C945 C936 1.429 . S
C945 N942 1.350 . S
C945 C944 1.434 . S
C946 C947 1.369 . S
C946 C948 1.419 1_565 S
C946 H950 0.930 . S
C947 C946 1.369 . S
C947 C956 1.429 . S
C948 C946 1.419 1_545 S
C948 C949 1.363 . S
C948 H951 0.929 . S
C949 C948 1.363 . S
C949 C955 1.428 . S
H950 C946 0.930 . S
H951 C948 0.929 . S
S952 N953 1.613 . S
S952 N954 1.610 1_565 S
N953 S952 1.613 . S
N953 C956 1.350 . S
N954 S952 1.610 1_545 S
N954 C955 1.351 . S
C955 C949 1.428 . S
C955 N954 1.351 . S
C955 C956 1.434 1_545 S
C956 C947 1.429 . S
C956 N953 1.350 . S
C956 C955 1.434 1_565 S
C957 C958 1.369 . S
C957 C959 1.419 . S
C957 H961 0.930 . S
C958 C957 1.369 . S
C958 C967 1.429 . S
C959 C957 1.419 . S
C959 C960 1.363 . S
C959 H962 0.929 . S
C960 C959 1.363 . S
C960 C966 1.428 . S
H961 C957 0.930 . S
H962 C959 0.929 . S
S963 N964 1.613 . S
S963 N965 1.610 . S
N964 S963 1.613 . S
N964 C967 1.350 . S
N965 S963 1.610 . S
N965 C966 1.351 . S
C966 C960 1.428 . S
C966 N965 1.351 . S
C966 C967 1.434 . S
C967 C958 1.429 . S
C967 N964 1.350 . S
C967 C966 1.434 . S
C968 C969 1.369 . S
C968 C970 1.419 . S
C968 H972 0.930 . S
C969 C968 1.369 . S
C969 C978 1.429 . S
C970 C968 1.419 . S
C970 C971 1.363 . S
C970 H973 0.929 . S
C971 C970 1.363 . S
C971 C977 1.428 . S
H972 C968 0.930 . S
H973 C970 0.929 . S
S974 N975 1.613 . S
S974 N976 1.610 . S
N975 S974 1.613 . S
N975 C978 1.350 . S
N976 S974 1.610 . S
N976 C977 1.351 . S
C977 C971 1.428 . S
C977 N976 1.351 . S
C977 C978 1.434 . S
C978 C969 1.429 . S
C978 N975 1.350 . S
C978 C977 1.434 . S
C979 C980 1.369 . S
C979 C981 1.419 . S
C979 H983 0.930 . S
C980 C979 1.369 . S
C980 C989 1.429 . S
C981 C979 1.419 . S
C981 C982 1.363 . S
C981 H984 0.929 . S
C982 C981 1.363 . S
C982 C988 1.428 . S
H983 C979 0.930 . S
H984 C981 0.929 . S
S985 N986 1.613 . S
S985 N987 1.610 1_455 S
N986 S985 1.613 . S
N986 C989 1.350 1_455 S
N987 S985 1.610 1_655 S
N987 C988 1.351 . S
C988 C982 1.428 . S
C988 N987 1.351 . S
C988 C989 1.434 . S
C989 C980 1.429 . S
C989 N986 1.350 1_655 S
C989 C988 1.434 . S
C990 C991 1.369 . S
C990 C992 1.419 . S
C990 H994 0.930 . S
C991 C990 1.369 . S
C991 C1000 1.429 . S
C992 C990 1.419 . S
C992 C993 1.363 . S
C992 H995 0.929 . S
C993 C992 1.363 . S
C993 C999 1.428 . S
H994 C990 0.930 . S
H995 C992 0.929 . S
S996 N997 1.613 . S
S996 N998 1.610 . S
N997 S996 1.613 . S
N997 C1000 1.350 . S
N998 S996 1.610 . S
N998 C999 1.351 . S
C999 C993 1.428 . S
C999 N998 1.351 . S
C999 C1000 1.434 . S
C1000 C991 1.429 . S
C1000 N997 1.350 . S
C1000 C999 1.434 . S
C1001 C1002 1.369 . S
C1001 C1003 1.419 . S
C1001 H1005 0.930 1_455 S
C1002 C1001 1.369 . S
C1002 C1011 1.429 . S
C1003 C1001 1.419 . S
C1003 C1004 1.363 . S
C1003 H1006 0.929 1_455 S
C1004 C1003 1.363 . S
C1004 C1010 1.428 . S
H1005 C1001 0.930 1_655 S
H1006 C1003 0.929 1_655 S
S1007 N1008 1.613 . S
S1007 N1009 1.610 . S
N1008 S1007 1.613 . S
N1008 C1011 1.350 . S
N1009 S1007 1.610 . S
N1009 C1010 1.351 . S
C1010 C1004 1.428 . S
C1010 N1009 1.351 . S
C1010 C1011 1.434 . S
C1011 C1002 1.429 . S
C1011 N1008 1.350 . S
C1011 C1010 1.434 . S
C1012 C1013 1.369 . S
C1012 C1014 1.419 . S
C1012 H1016 0.930 . S
C1013 C1012 1.369 . S
C1013 C1022 1.429 . S
C1014 C1012 1.419 . S
C1014 C1015 1.363 . S
C1014 H1017 0.929 . S
C1015 C1014 1.363 . S
C1015 C1021 1.428 . S
H1016 C1012 0.930 . S
H1017 C1014 0.929 . S
S1018 N1019 1.613 . S
S1018 N1020 1.610 . S
N1019 S1018 1.613 . S
N1019 C1022 1.350 . S
N1020 S1018 1.610 . S
N1020 C1021 1.351 . S
C1021 C1015 1.428 . S
C1021 N1020 1.351 . S
C1021 C1022 1.434 . S
C1022 C1013 1.429 . S
C1022 N1019 1.350 . S
C1022 C1021 1.434 . S
C1023 C1024 1.369 . S
C1023 C1025 1.419 . S
C1023 H1027 0.930 . S
C1024 C1023 1.369 . S
C1024 C1033 1.429 . S
C1025 C1023 1.419 . S
C1025 C1026 1.363 . S
C1025 H1028 0.929 . S
C1026 C1025 1.363 . S
C1026 C1032 1.428 . S
H1027 C1023 0.930 . S
H1028 C1025 0.929 . S
S1029 N1030 1.614 1_455 S
S1029 N1031 1.610 1_455 S
N1030 S1029 1.614 1_655 S
N1030 C1033 1.350 . S
N1031 S1029 1.610 1_655 S
N1031 C1032 1.351 . S
C1032 C1026 1.428 . S
C1032 N1031 1.351 . S
C1032 C1033 1.434 . S
C1033 C1024 1.429 . S
C1033 N1030 1.350 . S
C1033 C1032 1.434 . S
C1034 C1035 1.369 . S
C1034 C1036 1.419 . S
C1034 H1038 0.930 . S
C1035 C1034 1.369 . S
C1035 C1044 1.429 . S
C1036 C1034 1.419 . S
C1036 C1037 1.363 . S
C1036 H1039 0.929 . S
C1037 C1036 1.363 . S
C1037 C1043 1.428 . S
H1038 C1034 0.930 . S
H1039 C1036 0.929 . S
S1040 N1041 1.613 . S
S1040 N1042 1.610 . S
N1041 S1040 1.613 . S
N1041 C1044 1.350 . S
N1042 S1040 1.610 . S
N1042 C1043 1.351 . S
C1043 C1037 1.428 . S
C1043 N1042 1.351 . S
C1043 C1044 1.434 . S
C1044 C1035 1.429 . S
C1044 N1041 1.350 . S
C1044 C1043 1.434 . S
C1045 C1046 1.369 . S
C1045 C1047 1.419 . S
C1045 H1049 0.930 . S
C1046 C1045 1.369 . S
C1046 C1055 1.429 . S
C1047 C1045 1.419 . S
C1047 C1048 1.363 . S
C1047 H1050 0.929 . S
C1048 C1047 1.363 . S
C1048 C1054 1.428 . S
H1049 C1045 0.930 . S
H1050 C1047 0.929 . S
S1051 N1052 1.613 . S
S1051 N1053 1.610 . S
N1052 S1051 1.613 . S
N1052 C1055 1.350 . S
N1053 S1051 1.610 . S
N1053 C1054 1.351 . S
C1054 C1048 1.428 . S
C1054 N1053 1.351 . S
C1054 C1055 1.434 . S
C1055 C1046 1.429 . S
C1055 N1052 1.350 . S
C1055 C1054 1.434 . S
C1056 C1057 1.369 . S
C1056 C1058 1.419 . S
C1056 H1060 0.930 . S
C1057 C1056 1.369 . S
C1057 C1066 1.429 . S
C1058 C1056 1.419 . S
C1058 C1059 1.363 . S
C1058 H1061 0.929 . S
C1059 C1058 1.363 . S
C1059 C1065 1.428 . S
H1060 C1056 0.930 . S
H1061 C1058 0.929 . S
S1062 N1063 1.613 . S
S1062 N1064 1.610 . S
N1063 S1062 1.613 . S
N1063 C1066 1.350 . S
N1064 S1062 1.610 . S
N1064 C1065 1.351 . S
C1065 C1059 1.428 . S
C1065 N1064 1.351 . S
C1065 C1066 1.434 . S
C1066 C1057 1.429 . S
C1066 N1063 1.350 . S
C1066 C1065 1.434 . S
C1067 C1068 1.369 . S
C1067 C1069 1.419 . S
C1067 H1071 0.930 . S
C1068 C1067 1.369 . S
C1068 C1077 1.429 . S
C1069 C1067 1.419 . S
C1069 C1070 1.363 . S
C1069 H1072 0.929 . S
C1070 C1069 1.363 . S
C1070 C1076 1.428 . S
H1071 C1067 0.930 . S
H1072 C1069 0.929 . S
S1073 N1074 1.613 . S
S1073 N1075 1.610 . S
N1074 S1073 1.613 . S
N1074 C1077 1.350 . S
N1075 S1073 1.610 . S
N1075 C1076 1.351 . S
C1076 C1070 1.428 . S
C1076 N1075 1.351 . S
C1076 C1077 1.434 . S
C1077 C1068 1.429 . S
C1077 N1074 1.350 . S
C1077 C1076 1.434 . S
C1078 C1079 1.369 . S
C1078 C1080 1.419 . S
C1078 H1082 0.930 . S
C1079 C1078 1.369 . S
C1079 C1088 1.429 . S
C1080 C1078 1.419 . S
C1080 C1081 1.363 . S
C1080 H1083 0.929 . S
C1081 C1080 1.363 . S
C1081 C1087 1.428 . S
H1082 C1078 0.930 . S
H1083 C1080 0.929 . S
S1084 N1085 1.613 . S
S1084 N1086 1.610 . S
N1085 S1084 1.613 . S
N1085 C1088 1.350 . S
N1086 S1084 1.610 . S
N1086 C1087 1.351 . S
C1087 C1081 1.428 . S
C1087 N1086 1.351 . S
C1087 C1088 1.434 . S
C1088 C1079 1.429 . S
C1088 N1085 1.350 . S
C1088 C1087 1.434 . S
C1089 C1090 1.369 . S
C1089 C1091 1.419 . S
C1089 H1093 0.930 . S
C1090 C1089 1.369 . S
C1090 C1099 1.429 . S
C1091 C1089 1.419 . S
C1091 C1092 1.363 . S
C1091 H1094 0.929 . S
C1092 C1091 1.363 . S
C1092 C1098 1.428 . S
H1093 C1089 0.930 . S
H1094 C1091 0.929 . S
S1095 N1096 1.613 . S
S1095 N1097 1.610 . S
N1096 S1095 1.613 . S
N1096 C1099 1.350 . S
N1097 S1095 1.610 . S
N1097 C1098 1.351 . S
C1098 C1092 1.428 . S
C1098 N1097 1.351 . S
C1098 C1099 1.434 . S
C1099 C1090 1.429 . S
C1099 N1096 1.350 . S
C1099 C1098 1.434 . S
C1100 C1101 1.369 . S
C1100 C1102 1.419 . S
C1100 H1104 0.930 . S
C1101 C1100 1.369 . S
C1101 C1110 1.429 . S
C1102 C1100 1.419 . S
C1102 C1103 1.363 . S
C1102 H1105 0.929 . S
C1103 C1102 1.363 . S
C1103 C1109 1.428 . S
H1104 C1100 0.930 . S
H1105 C1102 0.929 . S
S1106 N1107 1.613 . S
S1106 N1108 1.610 . S
N1107 S1106 1.613 . S
N1107 C1110 1.350 . S
N1108 S1106 1.610 . S
N1108 C1109 1.351 . S
C1109 C1103 1.428 . S
C1109 N1108 1.351 . S
C1109 C1110 1.434 . S
C1110 C1101 1.429 . S
C1110 N1107 1.350 . S
C1110 C1109 1.434 . S
C1111 C1112 1.369 . S
C1111 C1113 1.419 . S
C1111 H1115 0.930 . S
C1112 C1111 1.369 . S
C1112 C1121 1.429 . S
C1113 C1111 1.419 . S
C1113 C1114 1.363 . S
C1113 H1116 0.929 . S
C1114 C1113 1.363 . S
C1114 C1120 1.428 . S
H1115 C1111 0.930 . S
H1116 C1113 0.929 . S
S1117 N1118 1.613 . S
S1117 N1119 1.610 . S
N1118 S1117 1.613 . S
N1118 C1121 1.350 . S
N1119 S1117 1.610 . S
N1119 C1120 1.351 . S
C1120 C1114 1.428 . S
C1120 N1119 1.351 . S
C1120 C1121 1.434 . S
C1121 C1112 1.429 . S
C1121 N1118 1.350 . S
C1121 C1120 1.434 . S
C1122 C1123 1.369 . S
C1122 C1124 1.419 . S
C1122 H1126 0.930 . S
C1123 C1122 1.369 . S
C1123 C1132 1.429 . S
C1124 C1122 1.419 . S
C1124 C1125 1.363 . S
C1124 H1127 0.929 . S
C1125 C1124 1.363 . S
C1125 C1131 1.428 . S
H1126 C1122 0.930 . S
H1127 C1124 0.929 . S
S1128 N1129 1.613 . S
S1128 N1130 1.610 . S
N1129 S1128 1.613 . S
N1129 C1132 1.350 . S
N1130 S1128 1.610 . S
N1130 C1131 1.351 . S
C1131 C1125 1.428 . S
C1131 N1130 1.351 . S
C1131 C1132 1.434 . S
C1132 C1123 1.429 . S
C1132 N1129 1.350 . S
C1132 C1131 1.434 . S
C1133 C1134 1.369 . S
C1133 C1135 1.419 . S
C1133 H1137 0.930 . S
C1134 C1133 1.369 . S
C1134 C1143 1.429 . S
C1135 C1133 1.419 . S
C1135 C1136 1.363 . S
C1135 H1138 0.929 . S
C1136 C1135 1.363 . S
C1136 C1142 1.428 . S
H1137 C1133 0.930 . S
H1138 C1135 0.929 . S
S1139 N1140 1.613 . S
S1139 N1141 1.610 . S
N1140 S1139 1.613 . S
N1140 C1143 1.350 . S
N1141 S1139 1.610 . S
N1141 C1142 1.351 . S
C1142 C1136 1.428 . S
C1142 N1141 1.351 . S
C1142 C1143 1.434 . S
C1143 C1134 1.429 . S
C1143 N1140 1.350 . S
C1143 C1142 1.434 . S
C1144 C1145 1.369 . S
C1144 C1146 1.419 . S
C1144 H1148 0.930 . S
C1145 C1144 1.369 . S
C1145 C1154 1.429 . S
C1146 C1144 1.419 . S
C1146 C1147 1.363 . S
C1146 H1149 0.929 . S
C1147 C1146 1.363 . S
C1147 C1153 1.428 . S
H1148 C1144 0.930 . S
H1149 C1146 0.929 . S
S1150 N1151 1.613 . S
S1150 N1152 1.610 . S
N1151 S1150 1.613 . S
N1151 C1154 1.350 . S
N1152 S1150 1.610 . S
N1152 C1153 1.351 . S
C1153 C1147 1.428 . S
C1153 N1152 1.351 . S
C1153 C1154 1.434 . S
C1154 C1145 1.429 . S
C1154 N1151 1.350 . S
C1154 C1153 1.434 . S
C1155 C1156 1.369 . S
C1155 C1157 1.419 . S
C1155 H1159 0.930 . S
C1156 C1155 1.369 . S
C1156 C1165 1.429 . S
C1157 C1155 1.419 . S
C1157 C1158 1.363 . S
C1157 H1160 0.929 . S
C1158 C1157 1.363 . S
C1158 C1164 1.428 . S
H1159 C1155 0.930 . S
H1160 C1157 0.929 . S
S1161 N1162 1.613 . S
S1161 N1163 1.610 . S
N1162 S1161 1.613 . S
N1162 C1165 1.350 . S
N1163 S1161 1.610 . S
N1163 C1164 1.351 . S
C1164 C1158 1.428 . S
C1164 N1163 1.351 . S
C1164 C1165 1.434 . S
C1165 C1156 1.429 . S
C1165 N1162 1.350 . S
C1165 C1164 1.434 . S
C1166 C1167 1.369 . S
C1166 C1168 1.419 . S
C1166 H1170 0.930 . S
C1167 C1166 1.369 . S
C1167 C1176 1.429 . S
C1168 C1166 1.419 . S
C1168 C1169 1.363 . S
C1168 H1171 0.929 . S
C1169 C1168 1.363 . S
C1169 C1175 1.428 . S
H1170 C1166 0.930 . S
H1171 C1168 0.929 . S
S1172 N1173 1.613 . S
S1172 N1174 1.610 . S
N1173 S1172 1.613 . S
N1173 C1176 1.350 . S
N1174 S1172 1.610 . S
N1174 C1175 1.351 . S
C1175 C1169 1.428 . S
C1175 N1174 1.351 . S
C1175 C1176 1.434 . S
C1176 C1167 1.429 . S
C1176 N1173 1.350 . S
C1176 C1175 1.434 . S
C1177 C1178 1.369 . S
C1177 C1179 1.419 . S
C1177 H1181 0.930 . S
C1178 C1177 1.369 . S
C1178 C1187 1.429 . S
C1179 C1177 1.419 . S
C1179 C1180 1.363 . S
C1179 H1182 0.929 . S
C1180 C1179 1.363 . S
C1180 C1186 1.428 . S
H1181 C1177 0.930 . S
H1182 C1179 0.929 . S
S1183 N1184 1.613 . S
S1183 N1185 1.610 . S
N1184 S1183 1.613 . S
N1184 C1187 1.350 . S
N1185 S1183 1.610 . S
N1185 C1186 1.351 . S
C1186 C1180 1.428 . S
C1186 N1185 1.351 . S
C1186 C1187 1.434 . S
C1187 C1178 1.429 . S
C1187 N1184 1.350 . S
C1187 C1186 1.434 . S
C595 N170 1.973 . S
C597 C243 1.983 . S
C606 N184 1.220 . S
C608 C283 1.206 . S
C617 N158 1.649 . S
C619 C322 1.630 . S
C628 N145 1.561 . S
C630 C282 1.529 1_556 S
C641 C323 0.961 . S
C639 N119 0.974 . S
C650 N131 1.782 . S
C652 C242 1.832 1_556 S
C663 C253 1.711 . S
C661 N144 1.717 . S
C674 C293 1.626 . S
C672 N118 1.646 . S
C683 N132 1.556 . S
C685 C332 1.553 . S
C694 N171 1.491 . S
C696 C292 1.476 . S
C705 N183 1.367 . S
C707 C333 1.370 . S
C718 C252 1.469 . S
C716 N157 1.490 . S
C729 C363 1.985 . S
C727 N14 1.971 . S
C738 N28 1.217 . S
C740 C403 1.207 . S
C749 N2 1.655 . S
C751 C442 1.630 . S
C760 N223 1.560 . S
C762 C402 1.531 . S
C771 N197 0.973 . S
C773 C443 0.967 . S
C782 N209 1.789 . S
C784 C362 1.832 . S
C793 N222 1.717 . S
C795 C373 1.710 . S
C804 N196 1.646 . S
C806 C413 1.626 . S
C817 C452 1.556 . S
C815 N210 1.557 . S
C826 N15 1.490 . S
C828 C412 1.477 . S
C839 C453 1.373 . S
C837 N27 1.370 . S
C848 N1 1.495 . S
C850 C372 1.473 . S
C861 C483 1.982 . S
C859 N92 1.972 . S
C870 N106 1.217 . S
C872 C523 1.207 . S
C883 C562 1.633 . S
C881 N80 1.649 . S
C894 C522 1.536 . S
C892 N67 1.558 . S
C905 C563 0.960 . S
C903 N41 0.974 . S
C914 N53 1.785 . S
C916 C482 1.834 . S
C925 N66 1.722 . S
C927 C493 1.708 . S
C936 N40 1.644 . S
C938 C533 1.622 . S
C949 C572 1.554 . S
C947 N54 1.556 . S
C958 N93 1.489 . S
C960 C532 1.482 . S
C969 N105 1.372 . S
C971 C573 1.373 . S
C980 N79 1.494 . S
C982 C492 1.473 . S
C991 N200 1.170 . S
C993 C239 1.196 . S
C1004 C279 1.898 . S
C1002 N213 1.867 . S
C1013 N226 1.604 . S
C1015 C329 1.599 . S
C1024 N83 1.799 . S
C1026 C289 1.775 . S
C1035 N96 1.722 . S
C1037 C319 1.765 . S
C1048 C249 1.340 . S
C1046 N109 1.369 . S
C1057 N44 1.177 . S
C1059 C359 1.195 . S
C1068 N57 1.872 . S
C1070 C399 1.898 . S
C1079 N70 1.604 . S
C1081 C449 1.600 . S
C1090 N161 1.800 . S
C1092 C409 1.774 . S
C1103 C439 1.765 . S
C1101 N174 1.726 . S
C1112 N187 1.369 . S
C1114 C369 1.337 . S
C1123 N122 1.179 . S
C1125 C479 1.194 . S
C1134 N135 1.872 . S
C1136 C519 1.897 . S
C1147 C569 1.600 . S
C1145 N148 1.605 . S
C1156 N5 1.797 . S
C1158 C529 1.772 . S
C1167 N18 1.726 . S
C1169 C559 1.765 . S
C1178 N31 1.367 . S
C1180 C489 1.335 . S
