# Generated by pormake.
# Topology zzz, (3,6)-cn, num edge types: 1
# Building blocks:
#     Node 0, Type 0, BuildingBlock: VETTIZ_charged_linker_0, # of connection points: 3
#     Node 1, Type 0, BuildingBlock: VETTIZ_charged_linker_0, # of connection points: 3
#     Node 2, Type 0, BuildingBlock: VETTIZ_charged_linker_0, # of connection points: 3
#     Node 3, Type 0, BuildingBlock: VETTIZ_charged_linker_0, # of connection points: 3
#     Node 4, Type 0, BuildingBlock: VETTIZ_charged_linker_0, # of connection points: 3
#     Node 5, Type 0, BuildingBlock: VETTIZ_charged_linker_0, # of connection points: 3
#     Node 6, Type 0, BuildingBlock: VETTIZ_charged_linker_0, # of connection points: 3
#     Node 7, Type 0, BuildingBlock: VETTIZ_charged_linker_0, # of connection points: 3
#     Node 8, Type 1, BuildingBlock: BETDAH_clean_sbu_0, # of connection points: 6
#     Node 9, Type 1, BuildingBlock: BETDAH_clean_sbu_0, # of connection points: 6
#     Node 10, Type 1, BuildingBlock: BETDAH_clean_sbu_0, # of connection points: 6
#     Node 11, Type 1, BuildingBlock: BETDAH_clean_sbu_0, # of connection points: 6
#     Edge 12, Type (0, 1), BuildingBlock: CIFDUS_clean_linker_0, # of connection points: 2
#     Edge 13, Type (0, 1), BuildingBlock: CIFDUS_clean_linker_0, # of connection points: 2
#     Edge 14, Type (0, 1), BuildingBlock: CIFDUS_clean_linker_0, # of connection points: 2
#     Edge 15, Type (0, 1), BuildingBlock: CIFDUS_clean_linker_0, # of connection points: 2
#     Edge 16, Type (0, 1), BuildingBlock: CIFDUS_clean_linker_0, # of connection points: 2
#     Edge 17, Type (0, 1), BuildingBlock: CIFDUS_clean_linker_0, # of connection points: 2
#     Edge 18, Type (0, 1), BuildingBlock: CIFDUS_clean_linker_0, # of connection points: 2
#     Edge 19, Type (0, 1), BuildingBlock: CIFDUS_clean_linker_0, # of connection points: 2
#     Edge 20, Type (0, 1), BuildingBlock: CIFDUS_clean_linker_0, # of connection points: 2
#     Edge 21, Type (0, 1), BuildingBlock: CIFDUS_clean_linker_0, # of connection points: 2
#     Edge 22, Type (0, 1), BuildingBlock: CIFDUS_clean_linker_0, # of connection points: 2
#     Edge 23, Type (0, 1), BuildingBlock: CIFDUS_clean_linker_0, # of connection points: 2
#     Edge 24, Type (0, 1), BuildingBlock: CIFDUS_clean_linker_0, # of connection points: 2
#     Edge 25, Type (0, 1), BuildingBlock: CIFDUS_clean_linker_0, # of connection points: 2
#     Edge 26, Type (0, 1), BuildingBlock: CIFDUS_clean_linker_0, # of connection points: 2
#     Edge 27, Type (0, 1), BuildingBlock: CIFDUS_clean_linker_0, # of connection points: 2
#     Edge 28, Type (0, 1), BuildingBlock: CIFDUS_clean_linker_0, # of connection points: 2
#     Edge 29, Type (0, 1), BuildingBlock: CIFDUS_clean_linker_0, # of connection points: 2
#     Edge 30, Type (0, 1), BuildingBlock: CIFDUS_clean_linker_0, # of connection points: 2
#     Edge 31, Type (0, 1), BuildingBlock: CIFDUS_clean_linker_0, # of connection points: 2
#     Edge 32, Type (0, 1), BuildingBlock: CIFDUS_clean_linker_0, # of connection points: 2
#     Edge 33, Type (0, 1), BuildingBlock: CIFDUS_clean_linker_0, # of connection points: 2
#     Edge 34, Type (0, 1), BuildingBlock: CIFDUS_clean_linker_0, # of connection points: 2
#     Edge 35, Type (0, 1), BuildingBlock: CIFDUS_clean_linker_0, # of connection points: 2
# Relax obj value: 0.474
# Max RMSD: 0.274
# Mean RMSD: 0.259
data_MOF--net-zzz--node1-BETDAH_clean_sbu_0--node2-VETTIZ_charged_linker_0--edge1-CIFDUS_clean_linker_0
_symmetry_space_group_name_H-M    P1
_symmetry_Int_Tables_number       1
_symmetry_cell_setting            triclinic
loop_
_symmetry_equiv_pos_as_xyz
'x, y, z'
_cell_length_a     52.093396
_cell_length_b     52.203227
_cell_length_c     16.172154
_cell_angle_alpha  89.646108
_cell_angle_beta   90.044901
_cell_angle_gamma 90.010722
loop_
_atom_site_label
_atom_site_type_symbol
_atom_site_fract_x
_atom_site_fract_y
_atom_site_fract_z
_atom_type_partial_charge
C0 C 0.80024 0.5231 0.50865 0.0
C1 C 0.82234 0.50786 0.53008 0.0
C2 C 0.82354 0.48253 0.50106 0.0
C3 C 0.78676 0.48998 0.41487 0.0
C4 C 0.7817 0.51292 0.45201 0.0
C5 C 0.75543 0.52287 0.41985 0.0
H6 H 0.65939 0.49488 0.12716 0.0
C7 C 0.76889 0.48563 0.34808 0.0
C8 C 0.74843 0.50303 0.35234 0.0
H9 H 0.65515 0.55855 0.29424 0.0
H10 H 0.69693 0.54553 0.35674 0.0
H11 H 0.70413 0.5125 0.07008 0.0
H12 H 0.68669 0.45029 0.22446 0.0
H13 H 0.7113 0.43981 0.15757 0.0
H14 H 0.68244 0.45351 0.11452 0.0
H15 H 0.70886 0.48141 0.03064 0.0
H16 H 0.73506 0.49963 0.0752 0.0
C17 C 0.75845 0.54987 0.3829 0.0
C18 C 0.73583 0.52241 0.4908 0.0
C19 C 0.80803 0.4642 0.07729 0.0
C20 C 0.79686 0.46188 0.99864 0.0
C21 C 0.7709 0.45549 0.99093 0.0
C22 C 0.75558 0.45414 0.06198 0.0
C23 C 0.76626 0.46098 0.13878 0.0
C24 C 0.79237 0.46384 0.14673 0.0
C25 C 0.80044 0.46953 0.23381 0.0
C26 C 0.77408 0.47238 0.27459 0.0
C27 C 0.75453 0.46941 0.21657 0.0
C28 C 0.816 0.49482 0.23593 0.0
C29 C 0.81645 0.4467 0.26649 0.0
C30 C 0.66648 0.50549 0.17991 0.0
C31 C 0.65323 0.5269 0.20771 0.0
C32 C 0.66462 0.54142 0.27249 0.0
C33 C 0.68869 0.53397 0.30852 0.0
C34 C 0.70193 0.51258 0.27674 0.0
C35 C 0.69065 0.49955 0.21154 0.0
C36 C 0.70863 0.48212 0.16863 0.0
C37 C 0.73126 0.48293 0.2266 0.0
C38 C 0.72808 0.50087 0.29136 0.0
C39 C 0.71456 0.49425 0.08191 0.0
C40 C 0.69667 0.45496 0.16545 0.0
H41 H 0.80614 0.45367 0.42594 0.0
H42 H 0.79783 0.54209 0.5339 0.0
H43 H 0.73427 0.5028 0.51757 0.0
H44 H 0.71655 0.52824 0.46896 0.0
H45 H 0.74182 0.53567 0.54076 0.0
H46 H 0.7732 0.54989 0.33326 0.0
H47 H 0.76447 0.56365 0.43129 0.0
H48 H 0.74012 0.55668 0.35574 0.0
H49 H 0.8284 0.46797 0.08364 0.0
H50 H 0.76242 0.45251 0.93058 0.0
H51 H 0.7358 0.44902 0.05448 0.0
H52 H 0.80446 0.51099 0.21061 0.0
H53 H 0.83394 0.49324 0.1993 0.0
H54 H 0.82191 0.49974 0.29969 0.0
H55 H 0.82863 0.43842 0.21695 0.0
H56 H 0.80386 0.43119 0.29065 0.0
H57 H 0.83018 0.4527 0.315 0.0
H58 H 0.83907 0.46996 0.51995 0.0
C59 C 0.80551 0.47341 0.44494 0.0
C60 C 0.98428 0.79279 0.98049 0.0
C61 C 0.98173 0.81951 0.97626 0.0
C62 C 0.96728 0.83229 0.03707 0.0
C63 C 0.96702 0.79369 0.11869 0.0
C64 C 0.97627 0.7801 0.05236 0.0
C65 C 0.97969 0.75231 0.07338 0.0
H66 H 0.0293 0.66489 0.27582 0.0
C67 C 0.96942 0.77769 0.19302 0.0
C68 C 0.97356 0.75274 0.16622 0.0
H69 H 0.96699 0.65568 0.09982 0.0
H70 H 0.95216 0.699 0.13121 0.0
H71 H 0.04536 0.72967 0.25194 0.0
H72 H 0.98301 0.70308 0.40998 0.0
H73 H 1.00704 0.72273 0.45664 0.0
H74 H 1.01498 0.69078 0.42519 0.0
H75 H 0.05172 0.7065 0.33247 0.0
H76 H 0.04589 0.73944 0.35801 0.0
C77 C 1.00772 0.744 0.05673 0.0
C78 C 0.96061 0.73667 0.02095 0.0
C79 C 0.99793 0.82637 0.44475 0.0
C80 C 1.01417 0.8216 0.51192 0.0
C81 C 0.02523 0.79682 0.51914 0.0
C82 C 1.01933 0.77722 0.46097 0.0
C83 C 1.00275 0.78269 0.39406 0.0
C84 C 0.99303 0.80731 0.38668 0.0
C85 C 0.97844 0.81172 0.30843 0.0
C86 C 0.97898 0.78511 0.27172 0.0
C87 C 0.99309 0.7676 0.32171 0.0
C88 C 0.99319 0.83206 0.25567 0.0
C89 C 0.95072 0.81981 0.3302 0.0
C90 C 1.01293 0.67243 0.24241 0.0
C91 C 1.0002 0.65744 0.18089 0.0
C92 C 0.9778 0.66715 0.14335 0.0
C93 C 0.96978 0.69203 0.15829 0.0
C94 C 0.98476 0.70748 0.20847 0.0
C95 C 1.00385 0.69773 0.25762 0.0
C96 C 1.01139 0.718 0.32226 0.0
C97 C 0.99496 0.74132 0.29521 0.0
C98 C 0.98156 0.73431 0.22396 0.0
C99 C 0.04026 0.72376 0.31603 0.0
C100 C 1.00374 0.70817 0.40859 0.0
H101 H 0.94938 0.82951 0.15556 0.0
H102 H 0.99455 0.7826 0.9327 0.0
H103 H 0.95955 0.74426 0.95663 0.0
H104 H 0.94098 0.73738 0.04773 0.0
H105 H 0.96685 0.7165 1.01452 0.0
H106 H 0.02139 0.75598 0.09253 0.0
H107 H 1.01252 0.74572 0.99006 0.0
H108 H 1.01084 0.72367 0.07433 0.0
H109 H 0.98994 0.84532 0.43488 0.0
H110 H 0.03823 0.79262 0.56968 0.0
H111 H 0.02817 0.75874 0.46838 0.0
H112 H 1.00793 0.84264 0.29157 0.0
H113 H 0.98024 0.84717 0.23132 0.0
H114 H 1.00377 0.82313 0.20367 0.0
H115 H 0.94294 0.80769 0.38118 0.0
H116 H 0.93744 0.81744 0.27744 0.0
H117 H 0.9501 0.84011 0.35036 0.0
H118 H 0.96447 0.85284 0.03376 0.0
C119 C 0.95949 0.8192 0.10846 0.0
C120 C 0.87411 1.01 0.28494 0.0
C121 C 0.88673 0.02392 0.22041 0.0
C122 C 0.87511 0.04659 0.19052 0.0
C123 C 0.83665 0.03635 0.26547 0.0
C124 C 0.84917 1.01779 0.31009 0.0
C125 C 0.83054 1.00608 0.37272 0.0
H126 H 0.70002 0.99462 0.45267 0.0
C127 C 0.80906 0.0329 0.27577 0.0
C128 C 0.80497 0.01924 0.34985 0.0
H129 H 0.74785 0.03577 0.62429 0.0
H130 H 0.78508 0.03102 0.52872 0.0
H131 H 0.7206 0.0286 0.27351 0.0
H132 H 0.74892 0.9545 0.36374 0.0
H133 H 0.73817 0.9566 0.25986 0.0
H134 H 0.71523 0.95849 0.34242 0.0
H135 H 0.6977 1.00747 0.3206 0.0
H136 H 0.70997 0.99957 0.22422 0.0
C137 C 0.83866 1.01298 0.46109 0.0
C138 C 0.82906 0.97679 0.36216 0.0
C139 C 0.75915 0.03117 1.00688 0.0
C140 C 0.73656 1.01816 0.98509 0.0
C141 C 0.72892 0.99668 0.03266 0.0
C142 C 0.74107 0.99121 0.10784 0.0
C143 C 0.75974 1.00817 0.13655 0.0
C144 C 0.7703 0.02603 0.08364 0.0
C145 C 0.79277 0.03965 0.12129 0.0
C146 C 0.7923 0.0282 0.20838 0.0
C147 C 0.77214 1.01056 0.21705 0.0
C148 C 0.78732 0.06872 0.12274 0.0
C149 C 0.81706 0.03277 0.07056 0.0
C150 C 0.71852 1.00219 0.47087 0.0
C151 C 0.72104 1.01504 0.54649 0.0
C152 C 0.74543 0.02534 0.56715 0.0
C153 C 0.7668 0.02246 0.51323 0.0
C154 C 0.76346 1.00977 0.43757 0.0
C155 C 0.73931 1.00101 0.4159 0.0
C156 C 0.73798 0.99353 0.32618 0.0
C157 C 0.7645 1.00217 0.29673 0.0
C158 C 0.7803 1.00827 0.3639 0.0
C159 C 0.71557 1.00812 0.28356 0.0
C160 C 0.73483 0.96419 0.32237 0.0
H161 H 0.841 0.06939 0.18551 0.0
H162 H 0.88285 0.99304 0.31149 0.0
H163 H 0.82335 0.97188 0.2979 0.0
H164 H 0.8147 0.96839 0.40529 0.0
H165 H 0.84792 0.96774 0.37551 0.0
H166 H 0.83928 0.03412 0.46899 0.0
H167 H 0.85805 1.00515 0.47495 0.0
H168 H 0.82489 1.00487 0.50666 0.0
H169 H 0.76633 0.04682 0.96915 0.0
H170 H 0.71207 0.98564 0.01638 0.0
H171 H 0.73462 0.97512 0.14366 0.0
H172 H 0.76771 0.07255 0.14689 0.0
H173 H 0.78875 0.07712 0.05963 0.0
H174 H 0.80088 0.07897 0.16343 0.0
H175 H 0.82703 1.01578 0.09706 0.0
H176 H 0.83062 0.04903 0.0661 0.0
H177 H 0.81236 0.02819 1.00523 0.0
H178 H 0.88436 0.05813 0.1433 0.0
C179 C 0.85003 0.05288 0.2131 0.0
C180 C 0.51762 0.73907 0.55138 0.0
C181 C 0.50175 0.71679 0.56271 0.0
C182 C 0.47707 0.71691 0.52698 0.0
C183 C 0.4874 0.75511 0.4503 0.0
C184 C 0.50917 0.75896 0.49626 0.0
C185 C 0.52116 0.78487 0.47043 0.0
H186 H 0.5341 0.87055 0.14988 0.0
C187 C 0.48679 0.77306 0.38101 0.0
C188 C 0.5039 0.79331 0.39716 0.0
H189 H 0.52181 0.90037 0.39392 0.0
H190 H 0.51387 0.856 0.44637 0.0
H191 H 0.55315 0.81443 0.16493 0.0
H192 H 0.48191 0.85429 0.17688 0.0
H193 H 0.47343 0.82556 0.12984 0.0
H194 H 0.49699 0.84606 0.08101 0.0
H195 H 0.53522 0.82258 0.07411 0.0
H196 H 0.53154 0.79197 0.12527 0.0
C197 C 0.54909 0.78108 0.44232 0.0
C198 C 0.51966 0.80387 0.5423 0.0
C199 C 0.47193 0.72909 0.10789 0.0
C200 C 0.47933 0.73616 0.02755 0.0
C201 C 0.48591 0.7614 1.00902 0.0
C202 C 0.48688 0.77933 0.07227 0.0
C203 C 0.48213 0.77148 0.1546 0.0
C204 C 0.47394 0.74692 0.17117 0.0
C205 C 0.47232 0.74113 0.26239 0.0
C206 C 0.48017 0.76706 0.2982 0.0
C207 C 0.48726 0.78377 0.23432 0.0
C208 C 0.49221 0.7199 0.28299 0.0
C209 C 0.44454 0.73299 0.2843 0.0
C210 C 0.53172 0.86773 0.21598 0.0
C211 C 0.5302 0.88883 0.2679 0.0
C212 C 0.52421 0.88431 0.35262 0.0
C213 C 0.52003 0.85881 0.3832 0.0
C214 C 0.52078 0.83798 0.32791 0.0
C215 C 0.52453 0.84362 0.24482 0.0
C216 C 0.51236 0.82454 0.18938 0.0
C217 C 0.50165 0.80587 0.2515 0.0
C218 C 0.50849 0.81203 0.33287 0.0
C219 C 0.53396 0.81277 0.13509 0.0
C220 C 0.49017 0.83814 0.14098 0.0
H221 H 0.45067 0.7361 0.44599 0.0
H222 H 0.53615 0.74034 0.5813 0.0
H223 H 0.49933 0.80782 0.55886 0.0
H224 H 0.52913 0.8222 0.52557 0.0
H225 H 0.52955 0.79595 0.59775 0.0
H226 H 0.55005 0.76704 0.39101 0.0
H227 H 0.56112 0.77389 0.49426 0.0
H228 H 0.55736 0.7995 0.42007 0.0
H229 H 0.46713 0.70935 0.1222 0.0
H230 H 0.49184 0.76678 0.9471 0.0
H231 H 0.4932 0.79803 0.05453 0.0
H232 H 0.51192 0.72623 0.26611 0.0
H233 H 0.4879 0.70202 0.24884 0.0
H234 H 0.49234 0.71458 0.34908 0.0
H235 H 0.43371 0.72627 0.22931 0.0
H236 H 0.43354 0.74917 0.31107 0.0
H237 H 0.44429 0.71658 0.32822 0.0
H238 H 0.46395 0.70115 0.53825 0.0
C239 C 0.46965 0.73629 0.47211 0.0
C240 C 0.37707 0.50114 0.17652 0.0
C241 C 0.38441 0.4868 0.24837 0.0
C242 C 0.36559 0.47164 0.2882 0.0
C243 C 0.33281 0.49049 0.20351 0.0
C244 C 0.35073 0.50141 0.15253 0.0
C245 C 0.33665 0.51538 0.08252 0.0
H246 H 0.21193 0.56037 1.00004 0.0
C247 C 0.30806 0.50248 0.18825 0.0
C248 C 0.30804 0.512 0.10647 0.0
H249 H 0.23999 0.49694 0.85616 0.0
H250 H 0.2798 0.49579 0.94212 0.0
H251 H 0.22867 0.53703 0.1944 0.0
H252 H 0.27596 0.58919 0.04635 0.0
H253 H 0.26328 0.59983 0.14304 0.0
H254 H 0.24228 0.5962 0.05699 0.0
H255 H 0.2126 0.5628 0.14124 0.0
H256 H 0.23245 0.56986 0.22602 0.0
C257 C 0.34214 0.5025 0.99934 0.0
C258 C 0.34463 0.54383 0.07994 0.0
C259 C 0.27052 0.54312 0.4457 0.0
C260 C 0.25723 0.56635 0.45439 0.0
C261 C 0.26077 0.58579 0.39441 0.0
C262 C 0.27127 0.57966 0.31746 0.0
C263 C 0.27808 0.55424 0.30315 0.0
C264 C 0.2808 0.53738 0.36829 0.0
C265 C 0.29415 0.51319 0.34301 0.0
C266 C 0.29643 0.51786 0.24974 0.0
C267 C 0.28535 0.54135 0.22747 0.0
C268 C 0.27695 0.48982 0.36159 0.0
C269 C 0.3201 0.512 0.38993 0.0
C270 C 0.2266 0.5464 0.98572 0.0
C271 C 0.22279 0.52912 0.92024 0.0
C272 C 0.24235 0.5107 0.9054 0.0
C273 C 0.26522 0.51008 0.95384 0.0
C274 C 0.26838 0.52775 0.0183 0.0
C275 C 0.24886 0.54494 0.03499 0.0
C276 C 0.25401 0.55969 0.11302 0.0
C277 C 0.27821 0.54605 0.14437 0.0
C278 C 0.28841 0.52986 0.08377 0.0
C279 C 0.23076 0.55712 0.17213 0.0
C280 C 0.25924 0.58779 0.08887 0.0
H281 H 0.32552 0.46271 0.29986 0.0
H282 H 0.39116 0.51209 0.14212 0.0
H283 H 0.34067 0.55313 0.14029 0.0
H284 H 0.33382 0.55431 0.03104 0.0
H285 H 0.36544 0.54578 0.06631 0.0
H286 H 0.33661 0.48193 1.00149 0.0
H287 H 0.36291 0.50377 0.9841 0.0
H288 H 0.33104 0.51199 0.94907 0.0
H289 H 0.26907 0.52832 0.4927 0.0
H290 H 0.25153 0.60425 0.40145 0.0
H291 H 0.27234 0.59403 0.26984 0.0
H292 H 0.25734 0.49277 0.33592 0.0
H293 H 0.27529 0.48649 0.42929 0.0
H294 H 0.28483 0.47223 0.33335 0.0
H295 H 0.31899 0.52147 0.45122 0.0
H296 H 0.33558 0.52174 0.35443 0.0
H297 H 0.32581 0.49209 0.40478 0.0
H298 H 0.37056 0.45979 0.34107 0.0
C299 C 0.33978 0.47332 0.26553 0.0
C300 C 0.04972 0.2508 0.50673 0.0
C301 C 0.0555 0.22468 0.51566 0.0
C302 C 0.06643 0.21195 0.44687 0.0
C303 C 0.05468 0.24738 0.35828 0.0
C304 C 0.04772 0.26117 0.4272 0.0
C305 C 0.03258 0.28466 0.40565 0.0
H306 H 0.02621 0.3796 0.14523 0.0
C307 C 0.04463 0.26089 0.28462 0.0
C308 C 0.03221 0.28294 0.31178 0.0
H309 H 1.00259 0.37488 0.40185 0.0
H310 H 1.00123 0.32929 0.39334 0.0
H311 H 0.06621 0.32655 0.12853 0.0
H312 H 0.98426 0.31677 0.08648 0.0
H313 H 1.00707 0.31617 1.00205 0.0
H314 H 0.99857 0.34586 0.04761 0.0
H315 H 0.05066 0.34709 0.05364 0.0
H316 H 0.05414 0.31336 0.03342 0.0
C317 C 0.04726 0.30848 0.43883 0.0
C318 C 1.00504 0.28128 0.4414 0.0
C319 C 0.04284 0.21366 0.01503 0.0
C320 C 0.02623 0.21532 0.94684 0.0
C321 C 1.01197 0.23837 0.93685 0.0
C322 C 1.01435 0.25893 0.99404 0.0
C323 C 0.03115 0.25662 0.06203 0.0
C324 C 0.04398 0.23353 0.07298 0.0
C325 C 0.05322 0.22991 0.16007 0.0
C326 C 0.0439 0.25435 0.19978 0.0
C327 C 0.03265 0.27116 0.14156 0.0
C328 C 0.08289 0.22862 0.15855 0.0
C329 C 0.03994 0.20567 0.19739 0.0
C330 C 0.02109 0.36849 0.19947 0.0
C331 C 1.01582 0.38088 0.27632 0.0
C332 C 1.00781 0.36594 0.34385 0.0
C333 C 1.00752 0.33946 0.3396 0.0
C334 C 1.01583 0.32738 0.26772 0.0
C335 C 0.02012 0.34113 0.19618 0.0
C336 C 0.02436 0.32249 0.12396 0.0
C337 C 0.02437 0.29614 0.16845 0.0
C338 C 0.0219 0.30047 0.25372 0.0
C339 C 0.05039 0.32771 0.08244 0.0
C340 C 1.00223 0.32531 0.0616 0.0
H341 H 0.07329 0.21218 0.31778 0.0
H342 H 0.04273 0.26184 0.55847 0.0
H343 H 0.99928 0.26074 0.44336 0.0
H344 H 0.99014 0.29049 0.40249 0.0
H345 H 1.00375 0.28877 0.5054 0.0
H346 H 0.06327 0.30318 0.48111 0.0
H347 H 0.03469 0.32122 0.47555 0.0
H348 H 0.05604 0.31982 0.38784 0.0
H349 H 0.05264 0.19584 0.02895 0.0
H350 H 0.99831 0.24012 0.88665 0.0
H351 H 1.00167 0.27509 0.98813 0.0
H352 H 0.09086 0.24315 0.11497 0.0
H353 H 0.08956 0.20948 0.13797 0.0
H354 H 0.0916 0.23296 0.21919 0.0
H355 H 0.05273 0.18868 0.19484 0.0
H356 H 0.02197 0.2007 0.16386 0.0
H357 H 0.03339 0.20833 0.2617 0.0
H358 H 0.07214 0.19207 0.4502 0.0
C359 C 0.06649 0.22345 0.36847 0.0
C360 C 0.29903 0.02123 0.94942 0.0
C361 C 0.32242 1.00696 0.95448 0.0
C362 C 0.32394 0.98691 1.01336 0.0
C363 C 0.28421 1.00075 0.07478 0.0
C364 C 0.27931 1.01654 1.00868 0.0
C365 C 0.25306 0.02907 0.02081 0.0
H366 H 0.16566 0.05348 0.3382 0.0
C367 C 0.26663 1.00718 0.1422 0.0
C368 C 0.24507 0.01958 0.10779 0.0
H369 H 0.14468 0.99754 0.15514 0.0
H370 H 0.18763 1.00262 0.08892 0.0
H371 H 0.2232 0.02676 0.38607 0.0
H372 H 0.21343 0.09047 0.21131 0.0
H373 H 0.23324 0.09488 0.30017 0.0
H374 H 0.19918 0.09272 0.31246 0.0
H375 H 0.20075 0.05139 0.4134 0.0
H376 H 0.23329 0.05855 0.41508 0.0
C377 C 0.23398 0.01951 0.95549 0.0
C378 C 0.25552 0.05849 0.01695 0.0
C379 C 0.31398 0.02618 0.40821 0.0
C380 C 0.3149 0.04865 0.45564 0.0
C381 C 0.29782 0.06881 0.43854 0.0
C382 C 0.27937 0.06604 0.3761 0.0
C383 C 0.27801 0.0429 0.33267 0.0
C384 C 0.29642 0.02437 0.34401 0.0
C385 C 0.29819 1.00637 0.27179 0.0
C386 C 0.27541 1.01561 0.22059 0.0
C387 C 0.26325 0.03624 0.25963 0.0
C388 C 0.29431 0.97861 0.30213 0.0
C389 C 0.32454 1.01037 0.22832 0.0
C390 C 0.1698 0.04275 0.2828 0.0
C391 C 0.15151 0.02558 0.25158 0.0
C392 C 0.15814 1.01128 0.18011 0.0
C393 C 0.18256 1.01424 0.14163 0.0
C394 C 0.20061 0.03107 0.17628 0.0
C395 C 0.19436 0.04414 0.24779 0.0
C396 C 0.21757 0.0558 0.28786 0.0
C397 C 0.23869 0.0443 0.23419 0.0
C398 C 0.22865 0.03371 0.16167 0.0
C399 C 0.21892 0.04756 0.38018 0.0
C400 C 0.21586 0.08511 0.27754 0.0
H401 H 0.30698 0.9691 0.12028 0.0
H402 H 0.29669 0.03607 0.90302 0.0
H403 H 0.26937 0.06535 0.06428 0.0
H404 H 0.23665 0.06772 0.02858 0.0
H405 H 0.26233 0.06486 0.95508 0.0
H406 H 0.23233 0.99828 0.95805 0.0
H407 H 0.24042 0.02513 0.89243 0.0
H408 H 0.21465 0.02782 0.96637 0.0
H409 H 0.32862 1.01154 0.4149 0.0
H410 H 0.29961 0.08691 0.47041 0.0
H411 H 0.2675 0.08213 0.36018 0.0
H412 H 0.31086 0.97228 0.34053 0.0
H413 H 0.29235 0.96526 0.24957 0.0
H414 H 0.27657 0.97698 0.33999 0.0
H415 H 0.32315 0.02472 0.17745 0.0
H416 H 0.33243 0.99221 0.2042 0.0
H417 H 0.33964 1.01738 0.27103 0.0
H418 H 0.34097 0.97506 0.01743 0.0
C419 C 0.30481 0.98371 0.07342 0.0
C420 C 0.52047 0.29473 0.96642 0.0
C421 C 0.507 0.31803 0.94693 0.0
C422 C 0.48274 0.32198 0.98408 0.0
C423 C 0.48965 0.28588 0.07353 0.0
C424 C 0.51024 0.2779 0.02815 0.0
C425 C 0.51943 0.25196 0.06334 0.0
H426 H 0.51767 0.17304 0.4086 0.0
C427 C 0.48836 0.27141 0.15006 0.0
C428 C 0.50184 0.24835 0.13994 0.0
H429 H 0.50683 0.1413 0.16607 0.0
H430 H 0.50425 0.18528 0.10664 0.0
H431 H 0.55004 0.22091 0.38062 0.0
H432 H 0.47061 0.20407 0.38231 0.0
H433 H 0.47275 0.23437 0.428 0.0
H434 H 0.49028 0.20784 0.47259 0.0
H435 H 0.5314 0.22603 0.47157 0.0
H436 H 0.53718 0.25148 0.39788 0.0
C437 C 0.54781 0.25368 0.08907 0.0
C438 C 0.51542 0.23086 0.99891 0.0
C439 C 0.50187 0.32927 0.39304 0.0
C440 C 0.51172 0.32355 0.47156 0.0
C441 C 0.50907 0.29885 0.50458 0.0
C442 C 0.49985 0.2791 0.45493 0.0
C443 C 0.49395 0.28428 0.37156 0.0
C444 C 0.49332 0.30925 0.34309 0.0
C445 C 0.48814 0.31097 0.25164 0.0
C446 C 0.48669 0.28243 0.22974 0.0
C447 C 0.49187 0.26735 0.29958 0.0
C448 C 0.51116 0.32468 0.20939 0.0
C449 C 0.46267 0.32554 0.23764 0.0
C450 C 0.51635 0.17526 0.34202 0.0
C451 C 0.51388 0.15369 0.292 0.0
C452 C 0.50996 0.15762 0.20582 0.0
C453 C 0.50894 0.18283 0.17119 0.0
C454 C 0.51149 0.20419 0.22338 0.0
C455 C 0.51373 0.19981 0.30781 0.0
C456 C 0.50784 0.22308 0.35758 0.0
C457 C 0.50071 0.24194 0.29006 0.0
C458 C 0.5049 0.23184 0.21085 0.0
C459 C 0.53271 0.23083 0.40473 0.0
C460 C 0.4843 0.21717 0.41376 0.0
H461 H 0.45572 0.3094 0.07638 0.0
H462 H 0.53847 0.29029 0.93643 0.0
H463 H 0.49463 0.22774 0.98719 0.0
H464 H 0.52419 0.21262 0.01996 0.0
H465 H 0.52474 0.23627 0.93951 0.0
H466 H 0.55068 0.26939 0.13428 0.0
H467 H 0.56019 0.25747 0.03441 0.0
H468 H 0.55416 0.23544 0.11837 0.0
H469 H 0.50356 0.34851 0.36827 0.0
H470 H 0.51644 0.29434 0.56565 0.0
H471 H 0.49976 0.26028 0.48156 0.0
H472 H 0.52924 0.31381 0.21999 0.0
H473 H 0.51375 0.34437 0.23336 0.0
H474 H 0.50854 0.32708 0.14217 0.0
H475 H 0.45966 0.34044 0.28548 0.0
H476 H 0.44597 0.31229 0.23982 0.0
H477 H 0.46262 0.3361 0.17808 0.0
H478 H 0.47137 0.33876 0.9693 0.0
C479 C 0.47394 0.3058 0.04693 0.0
Ho480 Ho 0.04458 1.0127 0.78322 0.0
Ho481 Ho 0.99725 0.01998 0.70076 0.0
C482 C 1.01645 0.96285 0.69944 0.0
C483 C 0.08179 0.99589 0.8739 0.0
C484 C 0.09229 0.9698 0.8777 0.0
C485 C 0.09295 0.95701 0.95418 0.0
C486 C 0.092 0.93029 0.95695 0.0
C487 C 0.09038 0.91634 0.88322 0.0
C488 C 0.09392 0.92896 0.80739 0.0
C489 C 0.09475 0.95561 0.80448 0.0
C490 C 0.05199 0.02779 0.62442 0.0
C491 C 0.02567 0.07015 0.78063 0.0
C492 C 0.95895 0.03545 0.61184 0.0
C493 C 0.95116 0.06208 0.59529 0.0
C494 C 0.95893 0.07311 0.52002 0.0
C495 C 0.96816 0.09811 0.51931 0.0
C496 C 0.96845 0.1122 0.59287 0.0
C497 C 0.95426 0.10354 0.66085 0.0
C498 C 0.94566 0.07826 0.6624 0.0
C499 C 0.9905 1.0077 0.86351 0.0
O500 O 0.03429 0.97107 0.75133 0.0
O501 O 1.00031 0.97904 0.66528 0.0
O502 O 0.0854 1.00848 0.8049 0.0
O503 O 0.05812 0.99764 0.90011 0.0
O504 O 0.06401 0.03691 0.68773 0.0
O505 O 0.03582 1.01104 0.64816 0.0
O506 O 1.00893 0.06186 0.72483 0.0
O507 O 0.04036 0.05368 0.82061 0.0
O508 O 0.9565 0.02741 0.68796 0.0
O509 O 0.98134 0.02937 0.58118 0.0
O510 O 0.97861 0.99688 0.80268 0.0
O511 O 1.00669 0.02337 0.83401 0.0
H512 H 0.09099 0.96762 1.01124 0.0
H513 H 0.08904 0.92087 0.01608 0.0
H514 H 0.09274 0.91841 0.75003 0.0
H515 H 0.09425 0.96495 0.74449 0.0
H516 H 0.96242 0.06122 0.46647 0.0
H517 H 0.97836 0.10499 0.46517 0.0
H518 H 0.95316 0.11482 0.71668 0.0
H519 H 0.93852 0.07057 0.72034 0.0
Ho520 Ho 0.52371 0.0342 0.8051 0.0
Ho521 Ho 0.52102 0.98907 0.71549 0.0
C522 C 0.57685 1.011 0.72234 0.0
C523 C 0.53657 0.07116 0.90174 0.0
C524 C 0.56041 0.08598 0.89948 0.0
C525 C 0.57401 0.08981 0.97315 0.0
C526 C 0.60043 0.0942 0.97056 0.0
C527 C 0.61327 0.09464 0.89428 0.0
C528 C 0.59913 0.09414 0.82067 0.0
C529 C 0.57278 0.08985 0.82316 0.0
C530 C 0.51276 0.04454 0.64207 0.0
C531 C 0.46802 1.01247 0.78665 0.0
C532 C 0.50817 0.95457 0.61093 0.0
C533 C 0.48738 0.95912 0.55161 0.0
C534 C 0.48565 0.98376 0.51667 0.0
C535 C 0.46187 0.99509 0.50525 0.0
C536 C 0.4393 0.98145 0.52393 0.0
C537 C 0.44129 0.955 0.54138 0.0
C538 C 0.46527 0.94396 0.55645 0.0
C539 C 0.53494 0.97932 0.87511 0.0
O540 O 0.56675 0.02788 0.77432 0.0
O541 O 0.56205 0.99427 0.6858 0.0
O542 O 0.52117 0.07422 0.83884 0.0
O543 O 0.53997 0.04703 0.92056 0.0
O544 O 0.5011 0.05444 0.70484 0.0
O545 O 0.52897 0.02855 0.66987 0.0
O546 O 0.47886 1.00058 0.72371 0.0
O547 O 0.48265 0.02529 0.83828 0.0
O548 O 0.50057 0.954 0.68787 0.0
O549 O 0.52838 0.96901 0.60103 0.0
O550 O 0.54502 0.96897 0.81053 0.0
O551 O 0.51732 0.9946 0.85247 0.0
H552 H 0.56483 0.08657 0.03241 0.0
H553 H 0.61116 0.09415 0.02799 0.0
H554 H 0.60883 0.09424 0.76142 0.0
H555 H 0.56275 0.0867 0.76537 0.0
H556 H 0.50243 0.99591 0.51044 0.0
H557 H 0.46176 1.0153 0.49062 0.0
H558 H 0.42439 0.94328 0.55074 0.0
H559 H 0.46619 0.92474 0.58192 0.0
Ho560 Ho 0.49836 0.51311 0.75826 0.0
Ho561 Ho 0.54526 0.51228 0.67662 0.0
C562 C 0.51943 0.56672 0.68194 0.0
C563 C 0.46042 0.52097 0.85651 0.0
C564 C 0.45885 0.54289 0.91075 0.0
C565 C 0.48211 0.55474 0.93069 0.0
C566 C 0.48296 0.58085 0.94211 0.0
C567 C 0.46028 0.59549 0.93915 0.0
C568 C 0.43651 0.58258 0.93432 0.0
C569 C 0.43583 0.55639 0.9179 0.0
C570 C 0.4916 0.50129 0.59481 0.0
C571 C 0.52259 0.45783 0.74912 0.0
C572 C 0.58529 0.50483 0.58511 0.0
C573 C 0.60221 0.48267 0.57551 0.0
C574 C 0.60618 0.47318 0.49576 0.0
C575 C 0.61123 0.44722 0.48481 0.0
C576 C 0.61227 0.43072 0.55384 0.0
C577 C 0.61376 0.44139 0.63328 0.0
C578 C 0.6082 0.46725 0.6443 0.0
C579 C 0.55151 0.52544 0.83899 0.0
O580 O 0.5069 0.55662 0.74589 0.0
O581 O 0.53322 0.55142 0.63546 0.0
O582 O 0.45988 0.52725 0.77826 0.0
O583 O 0.47906 0.50518 0.87393 0.0
O584 O 0.48119 0.48932 0.65633 0.0
O585 O 0.50619 0.51845 0.62382 0.0
O586 O 0.5401 0.46889 0.70107 0.0
O587 O 0.50438 0.47161 0.78234 0.0
O588 O 0.58613 0.5166 0.65592 0.0
O589 O 0.56177 0.5008 0.56036 0.0
O590 O 0.56178 0.53734 0.77692 0.0
O591 O 0.53733 0.5077 0.81117 0.0
H592 H 0.50021 0.54462 0.92545 0.0
H593 H 0.50186 0.58926 0.94476 0.0
H594 H 0.41847 0.59278 0.9369 0.0
H595 H 0.41769 0.54735 0.90307 0.0
H596 H 0.6019 0.48494 0.44202 0.0
H597 H 0.61032 0.43969 0.42261 0.0
H598 H 0.61524 0.42914 0.68739 0.0
H599 H 0.60555 0.47424 0.70665 0.0
Ho600 Ho 1.01999 0.50121 0.7655 0.0
Ho601 Ho 0.02655 0.54765 0.66582 0.0
C602 C 0.9702 0.52385 0.66923 0.0
C603 C 1.01206 0.47448 0.89693 0.0
C604 C 0.98892 0.47579 0.94648 0.0
C605 C 0.97312 0.49714 0.93345 0.0
C606 C 0.94672 0.49441 0.93669 0.0
C607 C 0.93582 0.47056 0.95719 0.0
C608 C 0.95205 0.45085 0.98661 0.0
C609 C 0.9786 0.45326 0.97933 0.0
C610 C 0.02916 0.48377 0.61033 0.0
C611 C 0.07831 0.51908 0.7374 0.0
C612 C 0.03741 0.58337 0.56153 0.0
C613 C 0.05826 0.58297 0.50186 0.0
C614 C 0.06562 0.55924 0.46899 0.0
C615 C 0.09061 0.55554 0.44256 0.0
C616 C 0.10845 0.57556 0.44816 0.0
C617 C 0.10005 0.60022 0.46994 0.0
C618 C 0.07499 0.60387 0.49731 0.0
C619 C 1.01151 0.5574 0.82516 0.0
O620 O 0.97778 0.51147 0.73702 0.0
O621 O 0.98725 0.53626 0.62435 0.0
O622 O 1.00768 0.46588 0.82255 0.0
O623 O 0.0261 0.49522 0.89661 0.0
O624 O 0.02622 0.46946 0.67504 0.0
O625 O 0.02822 0.50723 0.63047 0.0
O626 O 0.069 0.53789 0.69018 0.0
O627 O 0.06288 0.5021 0.7719 0.0
O628 O 0.04521 0.58364 0.6383 0.0
O629 O 1.01928 0.56659 0.54903 0.0
O630 O 1.00167 0.56768 0.75947 0.0
O631 O 0.02792 0.54146 0.80016 0.0
H632 H 0.98085 0.5148 0.9083 0.0
H633 H 0.93535 0.51031 0.91422 0.0
H634 H 0.94438 0.43275 1.00817 0.0
H635 H 0.99067 0.43668 0.99039 0.0
H636 H 0.05307 0.54271 0.47252 0.0
H637 H 0.09646 0.53631 0.42625 0.0
H638 H 0.11337 0.61612 0.47249 0.0
H639 H 0.06957 0.62224 0.52282 0.0
H640 H 0.12044 0.0614 0.32315 0.0
H641 H 0.12874 0.97976 0.2961 0.0
H642 H 0.0957 0.97273 0.40191 0.0
H643 H 0.06852 0.99003 0.5168 0.0
H644 H 0.06333 0.07183 0.54693 0.0
H645 H 0.09081 0.07849 0.42655 0.0
C646 C 0.11479 0.04201 0.33933 0.0
C647 C 0.12738 0.02117 0.3014 0.0
C648 C 0.09632 0.03813 0.40209 0.0
C649 C 0.1194 0.99624 0.32312 0.0
C650 C 0.10062 0.9922 0.38462 0.0
C651 C 0.07275 1.00927 0.49515 0.0
C652 C 0.06349 0.03048 0.5403 0.0
C653 C 0.08946 1.013 0.42652 0.0
C654 C 0.06987 0.05525 0.51285 0.0
C655 C 0.08578 0.05906 0.4442 0.0
H656 H 0.55025 0.12777 0.38156 0.0
H657 H 0.47111 0.12382 0.30608 0.0
H658 H 0.46353 0.08892 0.40546 0.0
H659 H 0.47853 0.06237 0.52519 0.0
H660 H 0.55844 0.06472 0.59372 0.0
H661 H 0.56661 0.09702 0.48664 0.0
C662 C 0.53157 0.11865 0.38489 0.0
C663 C 0.51138 0.12821 0.33503 0.0
C664 C 0.52738 0.09846 0.44236 0.0
C665 C 0.48713 0.11652 0.34189 0.0
C666 C 0.48272 0.09674 0.39972 0.0
C667 C 0.49782 0.06956 0.51532 0.0
C668 C 0.51787 0.06096 0.56754 0.0
C669 C 0.50254 0.08794 0.45191 0.0
C670 C 0.54272 0.07068 0.55411 0.0
C671 C 0.54738 0.08932 0.49299 0.0
H672 H 0.41093 0.528 0.31304 0.0
H673 H 0.41572 0.44637 0.27849 0.0
H674 H 0.45057 0.44371 0.37903 0.0
H675 H 0.47568 0.46353 0.49141 0.0
H676 H 0.4732 0.5453 0.52294 0.0
H677 H 0.44188 0.54902 0.40999 0.0
C678 C 0.42031 0.50981 0.32506 0.0
C679 C 0.4106 0.48738 0.28755 0.0
C680 C 0.44051 0.50836 0.38423 0.0
C681 C 0.42279 0.46393 0.30567 0.0
C682 C 0.44261 0.46235 0.36406 0.0
C683 C 0.46879 0.48223 0.47205 0.0
C684 C 0.47686 0.50408 0.51573 0.0
C685 C 0.45101 0.48425 0.40602 0.0
C686 C 0.46756 0.52817 0.49006 0.0
C687 C 0.44947 0.53028 0.42561 0.0
H688 H 0.05772 0.40465 0.33816 0.0
H689 H 0.9792 0.41802 0.268 0.0
H690 H 0.97733 0.45514 0.35965 0.0
H691 H 0.99533 0.4779 0.4818 0.0
H692 H 0.07315 0.4624 0.55647 0.0
H693 H 0.0782 0.43259 0.44153 0.0
C694 C 0.0407 0.41662 0.33922 0.0
C695 C 1.01881 0.40878 0.29437 0.0
C696 C 0.03945 0.4373 0.39532 0.0
C697 C 0.99655 0.42396 0.29951 0.0
C698 C 0.99533 0.44493 0.35359 0.0
C699 C 1.01372 0.46882 0.47053 0.0
C700 C 0.03404 0.47278 0.52694 0.0
C701 C 1.01624 0.451 0.40501 0.0
C702 C 0.05742 0.46012 0.51321 0.0
C703 C 0.06023 0.44284 0.44775 0.0
H704 H 0.93093 0.04906 0.17622 0.0
H705 H 0.89227 0.97651 0.15253 0.0
H706 H 0.9222 0.96403 0.04324 0.0
H707 H 0.95593 0.97612 0.94149 0.0
H708 H 0.99493 0.04849 0.96768 0.0
H709 H 0.96848 0.05859 0.08786 0.0
C710 C 0.92951 0.03021 0.14876 0.0
C711 C 0.90929 1.01375 0.17312 0.0
C712 C 0.94663 0.0233 0.08486 0.0
C713 C 0.90777 0.98944 0.13636 0.0
C714 C 0.92471 0.98243 0.07278 0.0
C715 C 0.95898 0.99388 0.97454 0.0
C716 C 0.97738 1.01157 0.94483 0.0
C717 C 0.9437 0.99955 0.04454 0.0
C718 C 0.98105 0.03446 0.9888 0.0
C719 C 0.9658 0.04032 0.05758 0.0
H720 H 0.56828 0.90932 0.1749 0.0
H721 H 0.49107 0.92403 0.25561 0.0
H722 H 0.48579 0.95598 0.14463 0.0
H723 H 0.50125 0.97484 1.00975 0.0
H724 H 0.57807 0.95701 0.92902 0.0
H725 H 0.58526 0.93151 0.0532 0.0
C726 C 0.55066 0.92033 0.17048 0.0
C727 C 0.53031 0.91448 0.22498 0.0
C728 C 0.54741 0.93777 0.10416 0.0
C729 C 0.50734 0.92849 0.21641 0.0
C730 C 0.50415 0.94646 0.15156 0.0
C731 C 0.51973 0.96587 0.02052 0.0
C732 C 0.53909 0.96785 0.95931 0.0
C733 C 0.52373 0.95057 0.09277 0.0
C734 C 0.56279 0.95579 0.97433 0.0
C735 C 0.56697 0.94113 0.04564 0.0
H736 H 0.61117 0.49786 0.16993 0.0
H737 H 0.64431 0.57229 0.12603 0.0
H738 H 0.61446 0.57931 1.01061 0.0
H739 H 0.58276 0.56174 0.91002 0.0
H740 H 0.54991 0.48715 0.9553 0.0
H741 H 0.57571 0.48272 0.081 0.0
C742 C 0.61129 0.51601 0.13691 0.0
C743 C 0.62999 0.53463 0.15775 0.0
C744 C 0.59444 0.5196 0.06903 0.0
C745 C 0.62996 0.55783 0.11308 0.0
C746 C 0.61311 0.56165 0.04589 0.0
C747 C 0.58091 0.5447 0.94819 0.0
C748 C 0.56441 0.5247 0.92223 0.0
C749 C 0.59586 0.5423 0.02136 0.0
C750 C 0.5623 0.50284 0.97309 0.0
C751 C 0.57718 0.50027 0.04518 0.0
H752 H 0.03505 0.65028 0.06007 0.0
H753 H 0.98266 0.60968 0.21897 0.0
H754 H 0.98278 0.57315 0.1245 0.0
H755 H 0.99216 0.55592 0.98413 0.0
H756 H 0.04349 0.59782 0.82427 0.0
H757 H 0.04946 0.6304 0.93044 0.0
C758 C 0.02477 0.63287 0.07613 0.0
C759 C 1.0094 0.63251 0.14777 0.0
C760 C 0.02405 0.61241 0.01935 0.0
C761 C 0.99528 0.61017 0.16577 0.0
C762 C 0.99492 0.58948 0.11063 0.0
C763 C 1.00502 0.57193 0.97346 0.0
C764 C 1.01721 0.57457 0.89607 0.0
C765 C 1.0083 0.59083 0.03525 0.0
C766 C 0.03379 0.59545 0.88309 0.0
C767 C 0.03723 0.6141 0.94389 0.0
H768 H 0.06812 0.17713 0.57834 0.0
H769 H 1.01173 0.23734 0.60529 0.0
H770 H 0.98018 0.2066 0.64882 0.0
H771 H 0.96461 0.16228 0.63547 0.0
H772 H 1.01892 0.10221 0.58445 0.0
H773 H 0.05435 0.13271 0.58966 0.0
C774 C 0.049 0.18366 0.59417 0.0
C775 C 0.04218 0.20941 0.5814 0.0
C776 C 0.02985 0.16556 0.61078 0.0
C777 C 1.01791 0.21764 0.61037 0.0
C778 C 0.99933 0.1999 0.63415 0.0
C779 C 0.98426 0.15603 0.62648 0.0
C780 C 0.98928 0.13059 0.60587 0.0
C781 C 1.00444 0.17378 0.62676 0.0
C782 C 1.01475 0.12217 0.59684 0.0
C783 C 0.03499 0.13947 0.60077 0.0
H784 H 0.32844 0.02301 0.59367 0.0
H785 H 0.35386 0.0809 0.4219 0.0
H786 H 0.39757 0.06451 0.42951 0.0
H787 H 0.42386 0.02678 0.45199 0.0
H788 H 0.39904 0.96848 0.62616 0.0
H789 H 0.3589 0.991 0.64537 0.0
C790 C 0.34398 0.03297 0.56239 0.0
C791 C 0.3381 0.05235 0.50505 0.0
C792 C 0.3685 0.02215 0.56206 0.0
C793 C 0.35808 0.06564 0.46558 0.0
C794 C 0.38289 0.05572 0.46777 0.0
C795 C 0.41032 0.01918 0.49655 0.0
C796 C 0.41468 0.99542 0.53584 0.0
C797 C 0.38764 0.03273 0.5103 0.0
C798 C 0.3961 0.98605 0.59173 0.0
C799 C 0.37323 0.99922 0.60451 0.0
H800 H 0.55755 0.33521 0.409 0.0
H801 H 0.50741 0.35031 0.6149 0.0
H802 H 0.53804 0.38206 0.66692 0.0
H803 H 0.57551 0.40838 0.64569 0.0
H804 H 0.62521 0.39497 0.43676 0.0
H805 H 0.59841 0.35864 0.39567 0.0
C806 C 0.55358 0.34536 0.46598 0.0
C807 C 0.53034 0.3411 0.50786 0.0
C808 C 0.57113 0.36334 0.49555 0.0
C809 C 0.52519 0.35371 0.58189 0.0
C810 C 0.54265 0.37162 0.61175 0.0
C811 C 0.58127 0.39693 0.59312 0.0
C812 C 0.60239 0.40436 0.54429 0.0
C813 C 0.56533 0.37693 0.56829 0.0
C814 C 0.60906 0.38958 0.47525 0.0
C815 C 0.59361 0.36904 0.45136 0.0
H816 H 0.22072 0.53728 0.39508 0.0
H817 H 0.2359 0.59381 0.58199 0.0
H818 H 0.18946 0.60007 0.6012 0.0
H819 H 0.1456 0.59352 0.54954 0.0
H820 H 0.13276 0.54322 0.3421 0.0
H821 H 0.17772 0.53054 0.3449 0.0
C822 C 0.21381 0.55031 0.44226 0.0
C823 C 0.23133 0.56476 0.48849 0.0
C824 C 0.18773 0.55551 0.44659 0.0
C825 C 0.22248 0.58221 0.54732 0.0
C826 C 0.1961 0.58606 0.55691 0.0
C827 C 0.15273 0.58016 0.50388 0.0
C828 C 0.136 0.56959 0.44482 0.0
C829 C 0.17872 0.5737 0.50388 0.0
C830 C 0.14529 0.55162 0.38803 0.0
C831 C 0.17091 0.5443 0.38979 0.0
H832 H 0.03287 0.81564 0.97793 0.0
H833 H 0.97052 0.85812 0.86769 0.0
H834 H 1.00082 0.89048 0.81752 0.0
H835 H 0.04323 0.90988 0.8275 0.0
H836 H 0.10492 0.87005 0.94968 0.0
H837 H 0.07664 0.83304 0.97384 0.0
C838 C 0.02613 0.83143 0.93973 0.0
C839 C 0.99966 0.83454 0.92536 0.0
C840 C 0.04346 0.85042 0.91474 0.0
C841 C 0.99087 0.85538 0.87833 0.0
C842 C 1.00815 0.87387 0.85026 0.0
C843 C 0.05077 0.89252 0.85534 0.0
C844 C 0.07615 0.89207 0.88432 0.0
C845 C 0.03425 0.87204 0.87101 0.0
C846 C 0.08551 0.87035 0.9256 0.0
C847 C 0.06933 0.84938 0.93954 0.0
H848 H 0.72637 0.06873 0.97886 0.0
H849 H 0.70313 0.99634 0.87449 0.0
H850 H 0.66292 1.0156 0.82841 0.0
H851 H 0.63198 0.05068 0.84072 0.0
H852 H 0.65432 0.122 0.95138 0.0
H853 H 0.69804 0.10555 0.97165 0.0
C854 C 0.71321 0.05738 0.94222 0.0
C855 C 0.71761 0.03099 0.93093 0.0
C856 C 0.69001 0.06843 0.91777 0.0
C857 C 0.70001 1.01659 0.88473 0.0
C858 C 0.67703 0.02761 0.85843 0.0
C859 C 0.64687 0.06301 0.86493 0.0
C860 C 0.6405 0.08764 0.89227 0.0
C861 C 0.67144 0.05316 0.87789 0.0
C862 C 0.6592 0.10312 0.92886 0.0
C863 C 0.68402 0.09368 0.94048 0.0
H864 H 0.44733 0.71471 0.91788 0.0
H865 H 0.52386 0.71121 0.01794 0.0
H866 H 0.5249 0.66501 0.9985 0.0
H867 H 0.4994 0.62678 0.99063 0.0
H868 H 0.42524 0.62894 0.86866 0.0
H869 H 0.42717 0.6753 0.8654 0.0
C870 C 0.46473 0.70391 0.93028 0.0
C871 C 0.4852 0.71565 0.97078 0.0
C872 C 0.46489 0.67738 0.92095 0.0
C873 C 0.5079 0.70207 0.9867 0.0
C874 C 0.50822 0.67568 0.97773 0.0
C875 C 0.48398 0.63675 0.95936 0.0
C876 C 0.46183 0.62381 0.93253 0.0
C877 C 0.48602 0.66314 0.95091 0.0
C878 C 0.44199 0.63808 0.89472 0.0
C879 C 0.44329 0.66468 0.89055 0.0
H880 H 0.82449 0.42892 0.9087 0.0
H881 H 0.80698 0.50884 0.93603 0.0
H882 H 0.85229 0.51977 0.92372 0.0
H883 H 0.89573 0.50471 0.95065 0.0
H884 H 0.91406 0.42467 0.91303 0.0
H885 H 0.8691 0.41539 0.89006 0.0
C886 C 0.83053 0.44881 0.90608 0.0
C887 C 0.81311 0.46796 0.92782 0.0
C888 C 0.85668 0.45465 0.9044 0.0
C889 C 0.82052 0.49377 0.92141 0.0
C890 C 0.84649 0.49993 0.91743 0.0
C891 C 0.89039 0.48532 0.93472 0.0
C892 C 0.90848 0.46531 0.93771 0.0
C893 C 0.86471 0.48021 0.91665 0.0
C894 C 0.90055 0.44035 0.91678 0.0
C895 C 0.87485 0.43502 0.90125 0.0
H896 H 0.0619 0.18064 0.89218 0.0
H897 H 0.9805 0.19536 0.88803 0.0
H898 H 0.9729 0.15261 0.83081 0.0
H899 H 0.98923 0.10856 0.79796 0.0
H900 H 0.07063 0.09467 0.80608 0.0
H901 H 0.07822 0.13887 0.84754 0.0
C902 C 0.04244 0.17469 0.87816 0.0
C903 C 0.02183 0.19146 0.89577 0.0
C904 C 0.03814 0.14976 0.84723 0.0
C905 C 0.99686 0.18323 0.87522 0.0
C906 C 0.99245 0.15852 0.84333 0.0
C907 C 1.00859 0.11548 0.80648 0.0
C908 C 0.0293 0.09817 0.79797 0.0
C909 C 1.01288 0.14126 0.83123 0.0
C910 C 0.05429 0.10735 0.81225 0.0
C911 C 0.05868 0.13275 0.83587 0.0
H912 H 0.35349 0.97632 0.85947 0.0
H913 H 0.34696 0.05327 0.95148 0.0
H914 H 0.39114 0.06233 0.90774 0.0
H915 H 0.4335 0.04693 0.85468 0.0
H916 H 0.4385 0.97081 0.75415 0.0
H917 H 0.39365 0.96289 0.79035 0.0
C918 C 0.3615 0.9953 0.86809 0.0
C919 C 0.34663 1.01411 0.90859 0.0
C920 C 0.38707 1.00038 0.84264 0.0
C921 C 0.35759 0.03852 0.91945 0.0
C922 C 0.38309 0.0436 0.89533 0.0
C923 C 0.42468 0.02871 0.83993 0.0
C924 C 0.4397 1.00937 0.80246 0.0
C925 C 0.39832 0.02448 0.85873 0.0
C926 C 0.42767 0.98603 0.78309 0.0
C927 C 0.40191 0.98145 0.80395 0.0
H928 H 0.48314 0.34591 0.82532 0.0
H929 H 0.55476 0.34066 0.95735 0.0
H930 H 0.56768 0.38267 0.90182 0.0
H931 H 0.55601 0.42385 0.82857 0.0
H932 H 0.48322 0.42826 0.70245 0.0
H933 H 0.47335 0.3843 0.74329 0.0
C934 C 0.50181 0.35369 0.84098 0.0
C935 C 0.51787 0.33986 0.89593 0.0
C936 C 0.50871 0.37825 0.81101 0.0
C937 C 0.54206 0.35045 0.91457 0.0
C938 C 0.54929 0.37479 0.88371 0.0
C939 C 0.53835 0.41489 0.80824 0.0
C940 C 0.52055 0.42938 0.76095 0.0
C941 C 0.53245 0.38932 0.83373 0.0
C942 C 0.49742 0.41757 0.73744 0.0
C943 C 0.49165 0.3924 0.76144 0.0
H944 H 0.1892 0.49022 0.87716 0.0
H945 H 0.20001 0.57175 0.85321 0.0
H946 H 0.15782 0.576 0.78818 0.0
H947 H 0.11578 0.55707 0.74696 0.0
H948 H 0.10466 0.47569 0.77666 0.0
H949 H 0.14834 0.47103 0.82873 0.0
C950 C 0.18255 0.50886 0.8564 0.0
C951 C 0.19809 0.53061 0.87066 0.0
C952 C 0.15776 0.51131 0.82007 0.0
C953 C 0.18865 0.55462 0.84395 0.0
C954 C 0.16438 0.5571 0.80655 0.0
C955 C 0.12306 0.53825 0.76325 0.0
C956 C 0.10658 0.51678 0.75723 0.0
C957 C 0.14843 0.53567 0.79549 0.0
C958 C 0.11658 0.49265 0.78035 0.0
C959 C 0.14172 0.48992 0.81056 0.0
H960 H 0.97978 0.85353 0.58334 0.0
H961 H 0.06112 0.84018 0.56484 0.0
H962 H 0.06956 0.88221 0.62745 0.0
H963 H 0.05334 0.9255 0.67042 0.0
H964 H 0.97161 0.93785 0.68211 0.0
H965 H 0.96386 0.89411 0.63711 0.0
C966 C 0.99941 0.85959 0.59422 0.0
C967 C 1.01976 0.84364 0.56872 0.0
C968 C 1.00405 0.88409 0.62709 0.0
C969 C 0.04505 0.85183 0.58422 0.0
C970 C 0.04986 0.8761 0.61896 0.0
C971 C 0.03391 0.91836 0.66474 0.0
C972 C 1.01309 0.93505 0.68019 0.0
C973 C 0.02949 0.89283 0.63807 0.0
C974 C 0.98799 0.92559 0.67063 0.0
C975 C 0.98351 0.90048 0.645 0.0
H976 H 0.68755 0.97884 0.60134 0.0
H977 H 0.70038 0.06026 0.60354 0.0
H978 H 0.65729 0.06697 0.66175 0.0
H979 H 0.61373 0.04941 0.69948 0.0
H980 H 0.60332 0.96745 0.70152 0.0
H981 H 0.64705 0.96136 0.65361 0.0
C982 C 0.68111 0.99805 0.61594 0.0
C983 C 0.69729 0.01898 0.5978 0.0
C984 C 0.65631 1.00173 0.64893 0.0
C985 C 0.68853 0.04374 0.61738 0.0
C986 C 0.66369 0.0476 0.64976 0.0
C987 C 0.6213 0.03026 0.69148 0.0
C988 C 0.60505 1.00893 0.70487 0.0
C989 C 0.64706 0.02674 0.66407 0.0
C990 C 0.61518 0.98427 0.69197 0.0
C991 C 0.64031 0.9807 0.66442 0.0
H992 H 0.51406 0.67278 0.48614 0.0
H993 H 0.50503 0.70411 0.72957 0.0
H994 H 0.50866 0.66079 0.79012 0.0
H995 H 0.51208 0.61264 0.7725 0.0
H996 H 0.52088 0.58345 0.52478 0.0
H997 H 0.5192 0.62654 0.46871 0.0
C998 C 0.51361 0.67025 0.55277 0.0
C999 C 0.5101 0.69198 0.60303 0.0
C1000 C 0.515 0.64522 0.58683 0.0
C1001 C 0.5086 0.68803 0.68918 0.0
C1002 C 0.51022 0.66308 0.7238 0.0
C1003 C 0.51353 0.61573 0.70633 0.0
C1004 C 0.51663 0.59429 0.65336 0.0
C1005 C 0.51297 0.64128 0.67319 0.0
C1006 C 0.51865 0.59914 0.56774 0.0
C1007 C 0.51774 0.62398 0.53511 0.0
H1008 H 0.86437 0.53277 0.4715 0.0
H1009 H 0.83387 0.49879 0.69335 0.0
H1010 H 0.87659 0.50017 0.75763 0.0
H1011 H 0.92413 0.508 0.74711 0.0
H1012 H 0.9533 0.5411 0.52032 0.0
H1013 H 0.91039 0.54296 0.46363 0.0
C1014 C 0.8668 0.52672 0.53531 0.0
C1015 C 0.84544 0.51671 0.57833 0.0
C1016 C 0.89171 0.52678 0.57112 0.0
C1017 C 0.84953 0.50763 0.65961 0.0
C1018 C 0.87418 0.50799 0.69606 0.0
C1019 C 0.92113 0.5157 0.68546 0.0
C1020 C 0.94259 0.52431 0.6388 0.0
C1021 C 0.89571 0.51696 0.65186 0.0
C1022 C 0.93772 0.53428 0.55885 0.0
C1023 C 0.91291 0.53545 0.52574 0.0
loop_
_geom_bond_atom_site_label_1
_geom_bond_atom_site_label_2
_geom_bond_distance
_geom_bond_site_symmetry_2
_ccdc_geom_bond_type
C0 C1 1.391 . S
C0 C4 1.391 . S
C0 H42 0.948 . S
C1 C0 1.391 . S
C1 C2 1.391 . S
C2 C1 1.391 . S
C2 H58 0.947 . S
C2 C59 1.392 . S
C3 C4 1.391 . S
C3 C7 1.397 . S
C3 C59 1.419 . S
C4 C0 1.391 . S
C4 C3 1.391 . S
C4 C5 1.399 . S
C5 C4 1.399 . S
C5 C8 1.396 . S
C5 C17 1.453 . S
C5 C18 1.684 . S
H6 C30 0.948 . S
C7 C3 1.397 . S
C7 C8 1.394 . S
C7 C26 1.723 . S
C8 C5 1.396 . S
C8 C7 1.394 . S
C8 C38 1.723 . S
H9 C32 0.947 . S
H10 C33 0.948 . S
H11 C39 0.982 . S
H12 C40 0.979 . S
H13 C40 0.980 . S
H14 C40 0.983 . S
H15 C39 0.979 . S
H16 C39 0.977 . S
C17 C5 1.453 . S
C17 H46 0.982 . S
C17 H47 0.979 . S
C17 H48 0.977 . S
C18 C5 1.684 . S
C18 H43 0.979 . S
C18 H44 0.980 . S
C18 H45 0.983 . S
C19 C20 1.391 . S
C19 C24 1.391 . S
C19 H49 0.948 . S
C20 C19 1.391 . S
C20 C21 1.391 . S
C21 C20 1.391 . S
C21 C22 1.392 . S
C21 H50 0.947 . S
C22 C21 1.392 . S
C22 C23 1.419 . S
C22 H51 0.948 . S
C23 C22 1.419 . S
C23 C24 1.391 . S
C23 C27 1.397 . S
C24 C19 1.391 . S
C24 C23 1.391 . S
C24 C25 1.399 . S
C25 C24 1.399 . S
C25 C26 1.396 . S
C25 C28 1.453 . S
C25 C29 1.684 . S
C26 C7 1.723 . S
C26 C25 1.396 . S
C26 C27 1.394 . S
C27 C23 1.397 . S
C27 C26 1.394 . S
C27 C37 1.723 . S
C28 C25 1.453 . S
C28 H52 0.982 . S
C28 H53 0.979 . S
C28 H54 0.977 . S
C29 C25 1.684 . S
C29 H55 0.979 . S
C29 H56 0.980 . S
C29 H57 0.983 . S
C30 H6 0.948 . S
C30 C31 1.391 . S
C30 C35 1.391 . S
C31 C30 1.391 . S
C31 C32 1.391 . S
C32 H9 0.947 . S
C32 C31 1.391 . S
C32 C33 1.392 . S
C33 H10 0.948 . S
C33 C32 1.392 . S
C33 C34 1.419 . S
C34 C33 1.419 . S
C34 C35 1.391 . S
C34 C38 1.397 . S
C35 C30 1.391 . S
C35 C34 1.391 . S
C35 C36 1.399 . S
C36 C35 1.399 . S
C36 C37 1.396 . S
C36 C39 1.453 . S
C36 C40 1.684 . S
C37 C27 1.723 . S
C37 C36 1.396 . S
C37 C38 1.394 . S
C38 C8 1.723 . S
C38 C34 1.397 . S
C38 C37 1.394 . S
C39 H11 0.982 . S
C39 H15 0.979 . S
C39 H16 0.977 . S
C39 C36 1.453 . S
C40 H12 0.979 . S
C40 H13 0.980 . S
C40 H14 0.983 . S
C40 C36 1.684 . S
H41 C59 0.948 . S
H42 C0 0.948 . S
H43 C18 0.979 . S
H44 C18 0.980 . S
H45 C18 0.983 . S
H46 C17 0.982 . S
H47 C17 0.979 . S
H48 C17 0.977 . S
H49 C19 0.948 . S
H50 C21 0.947 . S
H51 C22 0.948 . S
H52 C28 0.982 . S
H53 C28 0.979 . S
H54 C28 0.977 . S
H55 C29 0.979 . S
H56 C29 0.980 . S
H57 C29 0.983 . S
H58 C2 0.947 . S
C59 C2 1.392 . S
C59 C3 1.419 . S
C59 H41 0.948 . S
C60 C61 1.391 . S
C60 C64 1.391 . S
C60 H102 0.948 . S
C61 C60 1.391 . S
C61 C62 1.391 . S
C62 C61 1.391 . S
C62 H118 0.947 . S
C62 C119 1.392 . S
C63 C64 1.391 . S
C63 C67 1.397 1_655 S
C63 C119 1.419 . S
C64 C60 1.391 . S
C64 C63 1.391 . S
C64 C65 1.399 . S
C65 C64 1.399 . S
C65 C68 1.396 1_655 S
C65 C77 1.453 1_655 S
C65 C78 1.684 . S
H66 C90 0.948 . S
C67 C63 1.397 1_455 S
C67 C68 1.394 . S
C67 C86 1.723 . S
C68 C65 1.396 1_455 S
C68 C67 1.394 . S
C68 C98 1.723 . S
H69 C92 0.947 . S
H70 C93 0.948 . S
H71 C99 0.982 . S
H72 C100 0.979 . S
H73 C100 0.980 . S
H74 C100 0.983 . S
H75 C99 0.979 . S
H76 C99 0.977 . S
C77 C65 1.453 1_455 S
C77 H106 0.982 . S
C77 H107 0.979 . S
C77 H108 0.977 . S
C78 C65 1.684 . S
C78 H103 0.979 . S
C78 H104 0.980 . S
C78 H105 0.983 . S
C79 C80 1.391 . S
C79 C84 1.391 . S
C79 H109 0.948 . S
C80 C79 1.391 . S
C80 C81 1.391 . S
C81 C80 1.391 . S
C81 C82 1.392 . S
C81 H110 0.947 . S
C82 C81 1.392 . S
C82 C83 1.419 . S
C82 H111 0.948 . S
C83 C82 1.419 . S
C83 C84 1.391 . S
C83 C87 1.397 1_655 S
C84 C79 1.391 . S
C84 C83 1.391 . S
C84 C85 1.399 . S
C85 C84 1.399 . S
C85 C86 1.396 1_655 S
C85 C88 1.453 1_655 S
C85 C89 1.684 . S
C86 C67 1.723 . S
C86 C85 1.396 1_455 S
C86 C87 1.394 . S
C87 C83 1.397 1_455 S
C87 C86 1.394 . S
C87 C97 1.723 . S
C88 C85 1.453 1_455 S
C88 H112 0.982 . S
C88 H113 0.979 . S
C88 H114 0.977 . S
C89 C85 1.684 . S
C89 H115 0.979 . S
C89 H116 0.980 . S
C89 H117 0.983 . S
C90 H66 0.948 . S
C90 C91 1.391 . S
C90 C95 1.391 . S
C91 C90 1.391 . S
C91 C92 1.391 . S
C92 H69 0.947 . S
C92 C91 1.391 . S
C92 C93 1.392 . S
C93 H70 0.948 . S
C93 C92 1.392 . S
C93 C94 1.419 . S
C94 C93 1.419 . S
C94 C95 1.391 . S
C94 C98 1.397 1_655 S
C95 C90 1.391 . S
C95 C94 1.391 . S
C95 C96 1.399 . S
C96 C95 1.399 . S
C96 C97 1.396 1_655 S
C96 C99 1.453 1_655 S
C96 C100 1.684 . S
C97 C87 1.723 . S
C97 C96 1.396 1_455 S
C97 C98 1.394 . S
C98 C68 1.723 . S
C98 C94 1.397 1_455 S
C98 C97 1.394 . S
C99 H71 0.982 . S
C99 H75 0.979 . S
C99 H76 0.977 . S
C99 C96 1.453 1_455 S
C100 H72 0.979 . S
C100 H73 0.980 . S
C100 H74 0.983 . S
C100 C96 1.684 . S
H101 C119 0.948 . S
H102 C60 0.948 . S
H103 C78 0.979 . S
H104 C78 0.980 . S
H105 C78 0.983 . S
H106 C77 0.982 . S
H107 C77 0.979 . S
H108 C77 0.977 . S
H109 C79 0.948 . S
H110 C81 0.947 . S
H111 C82 0.948 . S
H112 C88 0.982 . S
H113 C88 0.979 . S
H114 C88 0.977 . S
H115 C89 0.979 . S
H116 C89 0.980 . S
H117 C89 0.983 . S
H118 C62 0.947 . S
C119 C62 1.392 . S
C119 C63 1.419 . S
C119 H101 0.948 . S
C120 C121 1.391 . S
C120 C124 1.391 . S
C120 H162 0.948 . S
C121 C120 1.391 . S
C121 C122 1.391 . S
C122 C121 1.391 . S
C122 H178 0.947 . S
C122 C179 1.392 . S
C123 C124 1.391 . S
C123 C127 1.397 1_565 S
C123 C179 1.419 . S
C124 C120 1.391 . S
C124 C123 1.391 . S
C124 C125 1.399 . S
C125 C124 1.399 . S
C125 C128 1.396 1_565 S
C125 C137 1.453 1_565 S
C125 C138 1.684 . S
H126 C150 0.948 . S
C127 C123 1.397 1_545 S
C127 C128 1.394 . S
C127 C146 1.723 . S
C128 C125 1.396 1_545 S
C128 C127 1.394 . S
C128 C158 1.723 . S
H129 C152 0.947 . S
H130 C153 0.948 . S
H131 C159 0.982 . S
H132 C160 0.979 . S
H133 C160 0.980 . S
H134 C160 0.983 . S
H135 C159 0.979 . S
H136 C159 0.977 . S
C137 C125 1.453 1_545 S
C137 H166 0.982 . S
C137 H167 0.979 . S
C137 H168 0.977 . S
C138 C125 1.684 . S
C138 H163 0.979 . S
C138 H164 0.980 . S
C138 H165 0.983 . S
C139 C140 1.391 . S
C139 C144 1.391 . S
C139 H169 0.948 . S
C140 C139 1.391 . S
C140 C141 1.391 . S
C141 C140 1.391 . S
C141 C142 1.392 . S
C141 H170 0.947 . S
C142 C141 1.392 . S
C142 C143 1.419 . S
C142 H171 0.948 . S
C143 C142 1.419 . S
C143 C144 1.391 . S
C143 C147 1.397 1_565 S
C144 C139 1.391 . S
C144 C143 1.391 . S
C144 C145 1.399 . S
C145 C144 1.399 . S
C145 C146 1.396 1_565 S
C145 C148 1.453 1_565 S
C145 C149 1.684 . S
C146 C127 1.723 . S
C146 C145 1.396 1_545 S
C146 C147 1.394 . S
C147 C143 1.397 1_545 S
C147 C146 1.394 . S
C147 C157 1.723 . S
C148 C145 1.453 1_545 S
C148 H172 0.982 . S
C148 H173 0.979 . S
C148 H174 0.977 . S
C149 C145 1.684 . S
C149 H175 0.979 . S
C149 H176 0.980 . S
C149 H177 0.983 . S
C150 H126 0.948 . S
C150 C151 1.391 . S
C150 C155 1.391 . S
C151 C150 1.391 . S
C151 C152 1.391 . S
C152 H129 0.947 . S
C152 C151 1.391 . S
C152 C153 1.392 . S
C153 H130 0.948 . S
C153 C152 1.392 . S
C153 C154 1.419 . S
C154 C153 1.419 . S
C154 C155 1.391 . S
C154 C158 1.397 1_565 S
C155 C150 1.391 . S
C155 C154 1.391 . S
C155 C156 1.399 . S
C156 C155 1.399 . S
C156 C157 1.396 1_565 S
C156 C159 1.453 1_565 S
C156 C160 1.684 . S
C157 C147 1.723 . S
C157 C156 1.396 1_545 S
C157 C158 1.394 . S
C158 C128 1.723 . S
C158 C154 1.397 1_545 S
C158 C157 1.394 . S
C159 H131 0.982 . S
C159 H135 0.979 . S
C159 H136 0.977 . S
C159 C156 1.453 1_545 S
C160 H132 0.979 . S
C160 H133 0.980 . S
C160 H134 0.983 . S
C160 C156 1.684 . S
H161 C179 0.948 . S
H162 C120 0.948 . S
H163 C138 0.979 . S
H164 C138 0.980 . S
H165 C138 0.983 . S
H166 C137 0.982 . S
H167 C137 0.979 . S
H168 C137 0.977 . S
H169 C139 0.948 . S
H170 C141 0.947 . S
H171 C142 0.948 . S
H172 C148 0.982 . S
H173 C148 0.979 . S
H174 C148 0.977 . S
H175 C149 0.979 . S
H176 C149 0.980 . S
H177 C149 0.983 . S
H178 C122 0.947 . S
C179 C122 1.392 . S
C179 C123 1.419 . S
C179 H161 0.948 . S
C180 C181 1.391 . S
C180 C184 1.391 . S
C180 H222 0.948 . S
C181 C180 1.391 . S
C181 C182 1.391 . S
C182 C181 1.391 . S
C182 H238 0.947 . S
C182 C239 1.392 . S
C183 C184 1.391 . S
C183 C187 1.397 . S
C183 C239 1.419 . S
C184 C180 1.391 . S
C184 C183 1.391 . S
C184 C185 1.399 . S
C185 C184 1.399 . S
C185 C188 1.396 . S
C185 C197 1.453 . S
C185 C198 1.684 . S
H186 C210 0.948 . S
C187 C183 1.397 . S
C187 C188 1.394 . S
C187 C206 1.723 . S
C188 C185 1.396 . S
C188 C187 1.394 . S
C188 C218 1.723 . S
H189 C212 0.947 . S
H190 C213 0.948 . S
H191 C219 0.982 . S
H192 C220 0.979 . S
H193 C220 0.980 . S
H194 C220 0.983 . S
H195 C219 0.979 . S
H196 C219 0.977 . S
C197 C185 1.453 . S
C197 H226 0.982 . S
C197 H227 0.979 . S
C197 H228 0.977 . S
C198 C185 1.684 . S
C198 H223 0.979 . S
C198 H224 0.980 . S
C198 H225 0.983 . S
C199 C200 1.391 . S
C199 C204 1.391 . S
C199 H229 0.948 . S
C200 C199 1.391 . S
C200 C201 1.391 . S
C201 C200 1.391 . S
C201 C202 1.392 . S
C201 H230 0.947 . S
C202 C201 1.392 . S
C202 C203 1.419 . S
C202 H231 0.948 . S
C203 C202 1.419 . S
C203 C204 1.391 . S
C203 C207 1.397 . S
C204 C199 1.391 . S
C204 C203 1.391 . S
C204 C205 1.399 . S
C205 C204 1.399 . S
C205 C206 1.396 . S
C205 C208 1.453 . S
C205 C209 1.684 . S
C206 C187 1.723 . S
C206 C205 1.396 . S
C206 C207 1.394 . S
C207 C203 1.397 . S
C207 C206 1.394 . S
C207 C217 1.723 . S
C208 C205 1.453 . S
C208 H232 0.982 . S
C208 H233 0.979 . S
C208 H234 0.977 . S
C209 C205 1.684 . S
C209 H235 0.979 . S
C209 H236 0.980 . S
C209 H237 0.983 . S
C210 H186 0.948 . S
C210 C211 1.391 . S
C210 C215 1.391 . S
C211 C210 1.391 . S
C211 C212 1.391 . S
C212 H189 0.947 . S
C212 C211 1.391 . S
C212 C213 1.392 . S
C213 H190 0.948 . S
C213 C212 1.392 . S
C213 C214 1.419 . S
C214 C213 1.419 . S
C214 C215 1.391 . S
C214 C218 1.397 . S
C215 C210 1.391 . S
C215 C214 1.391 . S
C215 C216 1.399 . S
C216 C215 1.399 . S
C216 C217 1.396 . S
C216 C219 1.453 . S
C216 C220 1.684 . S
C217 C207 1.723 . S
C217 C216 1.396 . S
C217 C218 1.394 . S
C218 C188 1.723 . S
C218 C214 1.397 . S
C218 C217 1.394 . S
C219 H191 0.982 . S
C219 H195 0.979 . S
C219 H196 0.977 . S
C219 C216 1.453 . S
C220 H192 0.979 . S
C220 H193 0.980 . S
C220 H194 0.983 . S
C220 C216 1.684 . S
H221 C239 0.948 . S
H222 C180 0.948 . S
H223 C198 0.979 . S
H224 C198 0.980 . S
H225 C198 0.983 . S
H226 C197 0.982 . S
H227 C197 0.979 . S
H228 C197 0.977 . S
H229 C199 0.948 . S
H230 C201 0.947 . S
H231 C202 0.948 . S
H232 C208 0.982 . S
H233 C208 0.979 . S
H234 C208 0.977 . S
H235 C209 0.979 . S
H236 C209 0.980 . S
H237 C209 0.983 . S
H238 C182 0.947 . S
C239 C182 1.392 . S
C239 C183 1.419 . S
C239 H221 0.948 . S
C240 C241 1.391 . S
C240 C244 1.391 . S
C240 H282 0.948 . S
C241 C240 1.391 . S
C241 C242 1.391 . S
C242 C241 1.391 . S
C242 H298 0.947 . S
C242 C299 1.392 . S
C243 C244 1.391 . S
C243 C247 1.397 . S
C243 C299 1.419 . S
C244 C240 1.391 . S
C244 C243 1.391 . S
C244 C245 1.399 1_554 S
C245 C244 1.399 1_556 S
C245 C248 1.396 . S
C245 C257 1.453 . S
C245 C258 1.684 . S
H246 C270 0.948 . S
C247 C243 1.397 . S
C247 C248 1.394 1_554 S
C247 C266 1.723 . S
C248 C245 1.396 . S
C248 C247 1.394 1_556 S
C248 C278 1.723 . S
H249 C272 0.947 . S
H250 C273 0.948 . S
H251 C279 0.982 . S
H252 C280 0.979 . S
H253 C280 0.980 1_554 S
H254 C280 0.983 . S
H255 C279 0.979 . S
H256 C279 0.977 1_554 S
C257 C245 1.453 . S
C257 H286 0.982 . S
C257 H287 0.979 . S
C257 H288 0.977 . S
C258 C245 1.684 . S
C258 H283 0.979 . S
C258 H284 0.980 . S
C258 H285 0.983 . S
C259 C260 1.391 . S
C259 C264 1.391 . S
C259 H289 0.948 . S
C260 C259 1.391 . S
C260 C261 1.391 . S
C261 C260 1.391 . S
C261 C262 1.392 . S
C261 H290 0.947 . S
C262 C261 1.392 . S
C262 C263 1.419 . S
C262 H291 0.948 . S
C263 C262 1.419 . S
C263 C264 1.391 . S
C263 C267 1.397 . S
C264 C259 1.391 . S
C264 C263 1.391 . S
C264 C265 1.399 . S
C265 C264 1.399 . S
C265 C266 1.396 . S
C265 C268 1.453 . S
C265 C269 1.684 . S
C266 C247 1.723 . S
C266 C265 1.396 . S
C266 C267 1.394 . S
C267 C263 1.397 . S
C267 C266 1.394 . S
C267 C277 1.723 1_554 S
C268 C265 1.453 . S
C268 H292 0.982 . S
C268 H293 0.979 . S
C268 H294 0.977 . S
C269 C265 1.684 . S
C269 H295 0.979 . S
C269 H296 0.980 . S
C269 H297 0.983 . S
C270 H246 0.948 . S
C270 C271 1.391 . S
C270 C275 1.391 . S
C271 C270 1.391 . S
C271 C272 1.391 . S
C272 H249 0.947 . S
C272 C271 1.391 . S
C272 C273 1.392 . S
C273 H250 0.948 . S
C273 C272 1.392 . S
C273 C274 1.419 . S
C274 C273 1.419 . S
C274 C275 1.391 . S
C274 C278 1.397 . S
C275 C270 1.391 . S
C275 C274 1.391 . S
C275 C276 1.399 . S
C276 C275 1.399 . S
C276 C277 1.396 . S
C276 C279 1.453 . S
C276 C280 1.684 . S
C277 C267 1.723 1_556 S
C277 C276 1.396 . S
C277 C278 1.394 . S
C278 C248 1.723 . S
C278 C274 1.397 . S
C278 C277 1.394 . S
C279 H251 0.982 . S
C279 H255 0.979 . S
C279 H256 0.977 1_556 S
C279 C276 1.453 . S
C280 H252 0.979 . S
C280 H253 0.980 1_556 S
C280 H254 0.983 . S
C280 C276 1.684 . S
H281 C299 0.948 . S
H282 C240 0.948 . S
H283 C258 0.979 . S
H284 C258 0.980 . S
H285 C258 0.983 . S
H286 C257 0.982 . S
H287 C257 0.979 . S
H288 C257 0.977 . S
H289 C259 0.948 . S
H290 C261 0.947 . S
H291 C262 0.948 . S
H292 C268 0.982 . S
H293 C268 0.979 . S
H294 C268 0.977 . S
H295 C269 0.979 . S
H296 C269 0.980 . S
H297 C269 0.983 . S
H298 C242 0.947 . S
C299 C242 1.392 . S
C299 C243 1.419 . S
C299 H281 0.948 . S
C300 C301 1.391 . S
C300 C304 1.391 . S
C300 H342 0.948 . S
C301 C300 1.391 . S
C301 C302 1.391 . S
C302 C301 1.391 . S
C302 H358 0.947 . S
C302 C359 1.392 . S
C303 C304 1.391 . S
C303 C307 1.396 1_655 S
C303 C359 1.419 . S
C304 C300 1.391 . S
C304 C303 1.391 . S
C304 C305 1.399 . S
C305 C304 1.399 . S
C305 C308 1.396 1_655 S
C305 C317 1.453 1_655 S
C305 C318 1.684 . S
H306 C330 0.948 . S
C307 C303 1.396 1_455 S
C307 C308 1.395 . S
C307 C326 1.723 1_554 S
C308 C305 1.396 1_455 S
C308 C307 1.395 . S
C308 C338 1.723 . S
H309 C332 0.947 . S
H310 C333 0.948 . S
H311 C339 0.982 . S
H312 C340 0.979 . S
H313 C340 0.980 . S
H314 C340 0.983 . S
H315 C339 0.979 . S
H316 C339 0.977 . S
C317 C305 1.453 1_455 S
C317 H346 0.982 . S
C317 H347 0.979 . S
C317 H348 0.977 . S
C318 C305 1.684 . S
C318 H343 0.979 . S
C318 H344 0.980 . S
C318 H345 0.983 . S
C319 C320 1.391 . S
C319 C324 1.391 . S
C319 H349 0.948 . S
C320 C319 1.391 . S
C320 C321 1.391 . S
C321 C320 1.391 . S
C321 C322 1.392 . S
C321 H350 0.947 . S
C322 C321 1.392 . S
C322 C323 1.419 . S
C322 H351 0.948 . S
C323 C322 1.419 . S
C323 C324 1.391 . S
C323 C327 1.396 1_655 S
C324 C319 1.391 . S
C324 C323 1.391 . S
C324 C325 1.399 . S
C325 C324 1.399 . S
C325 C326 1.396 1_655 S
C325 C328 1.453 1_655 S
C325 C329 1.684 . S
C326 C307 1.723 1_556 S
C326 C325 1.396 1_455 S
C326 C327 1.395 . S
C327 C323 1.396 1_455 S
C327 C326 1.395 . S
C327 C337 1.723 . S
C328 C325 1.453 1_455 S
C328 H352 0.982 . S
C328 H353 0.979 . S
C328 H354 0.977 1_556 S
C329 C325 1.684 . S
C329 H355 0.979 . S
C329 H356 0.980 1_556 S
C329 H357 0.983 . S
C330 H306 0.948 . S
C330 C331 1.391 . S
C330 C335 1.391 . S
C331 C330 1.391 . S
C331 C332 1.391 . S
C332 H309 0.947 . S
C332 C331 1.391 . S
C332 C333 1.392 . S
C333 H310 0.948 . S
C333 C332 1.392 . S
C333 C334 1.419 . S
C334 C333 1.419 . S
C334 C335 1.391 . S
C334 C338 1.396 1_655 S
C335 C330 1.391 . S
C335 C334 1.391 . S
C335 C336 1.399 1_554 S
C336 C335 1.399 1_556 S
C336 C337 1.396 1_655 S
C336 C339 1.453 1_655 S
C336 C340 1.684 . S
C337 C327 1.723 . S
C337 C336 1.396 1_455 S
C337 C338 1.395 1_556 S
C338 C308 1.723 . S
C338 C334 1.396 1_455 S
C338 C337 1.395 1_554 S
C339 H311 0.982 . S
C339 H315 0.979 . S
C339 H316 0.977 . S
C339 C336 1.453 1_455 S
C340 H312 0.979 . S
C340 H313 0.980 . S
C340 H314 0.983 . S
C340 C336 1.684 . S
H341 C359 0.948 . S
H342 C300 0.948 . S
H343 C318 0.979 . S
H344 C318 0.980 . S
H345 C318 0.983 . S
H346 C317 0.982 . S
H347 C317 0.979 . S
H348 C317 0.977 . S
H349 C319 0.948 . S
H350 C321 0.947 . S
H351 C322 0.948 . S
H352 C328 0.982 . S
H353 C328 0.979 . S
H354 C328 0.977 1_554 S
H355 C329 0.979 . S
H356 C329 0.980 1_554 S
H357 C329 0.983 . S
H358 C302 0.947 . S
C359 C302 1.392 . S
C359 C303 1.419 . S
C359 H341 0.948 . S
C360 C361 1.391 . S
C360 C364 1.391 . S
C360 H402 0.948 . S
C361 C360 1.391 . S
C361 C362 1.391 . S
C362 C361 1.391 . S
C362 H418 0.947 . S
C362 C419 1.392 . S
C363 C364 1.391 . S
C363 C367 1.397 1_545 S
C363 C419 1.419 . S
C364 C360 1.391 . S
C364 C363 1.391 . S
C364 C365 1.399 . S
C365 C364 1.399 . S
C365 C368 1.396 1_545 S
C365 C377 1.453 1_545 S
C365 C378 1.684 . S
H366 C390 0.948 . S
C367 C363 1.397 1_565 S
C367 C368 1.394 . S
C367 C386 1.723 1_556 S
C368 C365 1.396 1_565 S
C368 C367 1.394 . S
C368 C398 1.723 1_556 S
H369 C392 0.947 1_556 S
H370 C393 0.948 . S
H371 C399 0.982 . S
H372 C400 0.979 . S
H373 C400 0.980 . S
H374 C400 0.983 . S
H375 C399 0.979 . S
H376 C399 0.977 . S
C377 C365 1.453 1_565 S
C377 H406 0.982 . S
C377 H407 0.979 . S
C377 H408 0.977 . S
C378 C365 1.684 . S
C378 H403 0.979 . S
C378 H404 0.980 . S
C378 H405 0.983 . S
C379 C380 1.391 . S
C379 C384 1.391 . S
C379 H409 0.948 . S
C380 C379 1.391 . S
C380 C381 1.391 . S
C381 C380 1.391 . S
C381 C382 1.392 . S
C381 H410 0.947 . S
C382 C381 1.392 . S
C382 C383 1.419 . S
C382 H411 0.948 . S
C383 C382 1.419 . S
C383 C384 1.391 . S
C383 C387 1.397 1_545 S
C384 C379 1.391 . S
C384 C383 1.391 . S
C384 C385 1.399 . S
C385 C384 1.399 . S
C385 C386 1.396 1_545 S
C385 C388 1.453 1_545 S
C385 C389 1.684 . S
C386 C367 1.723 1_554 S
C386 C385 1.396 1_565 S
C386 C387 1.394 . S
C387 C383 1.397 1_565 S
C387 C386 1.394 . S
C387 C397 1.723 . S
C388 C385 1.453 1_565 S
C388 H412 0.982 . S
C388 H413 0.979 . S
C388 H414 0.977 1_554 S
C389 C385 1.684 . S
C389 H415 0.979 . S
C389 H416 0.980 1_554 S
C389 H417 0.983 . S
C390 H366 0.948 . S
C390 C391 1.391 . S
C390 C395 1.391 . S
C391 C390 1.391 . S
C391 C392 1.391 . S
C392 H369 0.947 1_554 S
C392 C391 1.391 . S
C392 C393 1.392 1_554 S
C393 H370 0.948 . S
C393 C392 1.392 1_556 S
C393 C394 1.419 1_556 S
C394 C393 1.419 1_554 S
C394 C395 1.391 . S
C394 C398 1.397 1_545 S
C395 C390 1.391 . S
C395 C394 1.391 . S
C395 C396 1.399 . S
C396 C395 1.399 . S
C396 C397 1.396 1_545 S
C396 C399 1.453 1_545 S
C396 C400 1.684 . S
C397 C387 1.723 . S
C397 C396 1.396 1_565 S
C397 C398 1.394 . S
C398 C368 1.723 1_554 S
C398 C394 1.397 1_565 S
C398 C397 1.394 . S
C399 H371 0.982 . S
C399 H375 0.979 . S
C399 H376 0.977 . S
C399 C396 1.453 1_565 S
C400 H372 0.979 . S
C400 H373 0.980 . S
C400 H374 0.983 . S
C400 C396 1.684 . S
H401 C419 0.948 . S
H402 C360 0.948 . S
H403 C378 0.979 . S
H404 C378 0.980 . S
H405 C378 0.983 . S
H406 C377 0.982 . S
H407 C377 0.979 . S
H408 C377 0.977 . S
H409 C379 0.948 . S
H410 C381 0.947 . S
H411 C382 0.948 . S
H412 C388 0.982 . S
H413 C388 0.979 . S
H414 C388 0.977 1_556 S
H415 C389 0.979 . S
H416 C389 0.980 1_556 S
H417 C389 0.983 . S
H418 C362 0.947 . S
C419 C362 1.392 . S
C419 C363 1.419 . S
C419 H401 0.948 . S
C420 C421 1.391 . S
C420 C424 1.391 . S
C420 H462 0.948 . S
C421 C420 1.391 . S
C421 C422 1.391 . S
C422 C421 1.391 . S
C422 H478 0.947 . S
C422 C479 1.392 . S
C423 C424 1.391 . S
C423 C427 1.397 . S
C423 C479 1.419 . S
C424 C420 1.391 . S
C424 C423 1.391 . S
C424 C425 1.399 . S
C425 C424 1.399 . S
C425 C428 1.396 . S
C425 C437 1.453 . S
C425 C438 1.684 . S
H426 C450 0.948 . S
C427 C423 1.397 . S
C427 C428 1.394 . S
C427 C446 1.723 1_556 S
C428 C425 1.396 . S
C428 C427 1.394 . S
C428 C458 1.723 1_556 S
H429 C452 0.947 1_556 S
H430 C453 0.948 . S
H431 C459 0.982 . S
H432 C460 0.979 . S
H433 C460 0.980 . S
H434 C460 0.983 . S
H435 C459 0.979 . S
H436 C459 0.977 . S
C437 C425 1.453 . S
C437 H466 0.982 . S
C437 H467 0.979 . S
C437 H468 0.977 . S
C438 C425 1.684 . S
C438 H463 0.979 . S
C438 H464 0.980 . S
C438 H465 0.983 . S
C439 C440 1.391 . S
C439 C444 1.391 . S
C439 H469 0.948 . S
C440 C439 1.391 . S
C440 C441 1.391 . S
C441 C440 1.391 . S
C441 C442 1.392 . S
C441 H470 0.947 . S
C442 C441 1.392 . S
C442 C443 1.419 . S
C442 H471 0.948 . S
C443 C442 1.419 . S
C443 C444 1.391 . S
C443 C447 1.397 . S
C444 C439 1.391 . S
C444 C443 1.391 . S
C444 C445 1.399 . S
C445 C444 1.399 . S
C445 C446 1.396 . S
C445 C448 1.453 . S
C445 C449 1.684 . S
C446 C427 1.723 1_554 S
C446 C445 1.396 . S
C446 C447 1.394 . S
C447 C443 1.397 . S
C447 C446 1.394 . S
C447 C457 1.723 . S
C448 C445 1.453 . S
C448 H472 0.982 . S
C448 H473 0.979 . S
C448 H474 0.977 1_554 S
C449 C445 1.684 . S
C449 H475 0.979 . S
C449 H476 0.980 1_554 S
C449 H477 0.983 . S
C450 H426 0.948 . S
C450 C451 1.391 . S
C450 C455 1.391 . S
C451 C450 1.391 . S
C451 C452 1.391 . S
C452 H429 0.947 1_554 S
C452 C451 1.391 . S
C452 C453 1.392 1_554 S
C453 H430 0.948 . S
C453 C452 1.392 1_556 S
C453 C454 1.419 1_556 S
C454 C453 1.419 1_554 S
C454 C455 1.391 . S
C454 C458 1.397 . S
C455 C450 1.391 . S
C455 C454 1.391 . S
C455 C456 1.399 . S
C456 C455 1.399 . S
C456 C457 1.396 . S
C456 C459 1.453 . S
C456 C460 1.684 . S
C457 C447 1.723 . S
C457 C456 1.396 . S
C457 C458 1.394 . S
C458 C428 1.723 1_554 S
C458 C454 1.397 . S
C458 C457 1.394 . S
C459 H431 0.982 . S
C459 H435 0.979 . S
C459 H436 0.977 . S
C459 C456 1.453 . S
C460 H432 0.979 . S
C460 H433 0.980 . S
C460 H434 0.983 . S
C460 C456 1.684 . S
H461 C479 0.948 . S
H462 C420 0.948 . S
H463 C438 0.979 . S
H464 C438 0.980 . S
H465 C438 0.983 . S
H466 C437 0.982 . S
H467 C437 0.979 . S
H468 C437 0.977 . S
H469 C439 0.948 . S
H470 C441 0.947 . S
H471 C442 0.948 . S
H472 C448 0.982 . S
H473 C448 0.979 . S
H474 C448 0.977 1_556 S
H475 C449 0.979 . S
H476 C449 0.980 1_556 S
H477 C449 0.983 . S
H478 C422 0.947 . S
C479 C422 1.392 . S
C479 C423 1.419 . S
C479 H461 0.948 . S
Ho480 C483 2.811 . S
Ho480 O500 2.322 . S
Ho480 O502 2.378 . S
Ho480 O503 2.524 . S
Ho480 O504 2.381 . S
Ho480 O505 2.669 1_565 S
Ho480 O507 2.346 1_565 S
Ho480 O511 2.305 1_455 S
Ho481 C492 2.811 . S
Ho481 O501 2.346 1_545 S
Ho481 O505 2.305 1_655 S
Ho481 O506 2.322 . S
Ho481 O508 2.378 . S
Ho481 O509 2.524 . S
Ho481 O510 2.381 . S
Ho481 O511 2.669 1_545 S
C482 O500 1.259 1_655 S
C482 O501 1.268 . S
C483 Ho480 2.811 . S
C483 C484 1.488 . S
C483 O502 1.215 . S
C483 O503 1.289 . S
C484 C483 1.488 . S
C484 C485 1.348 . S
C484 C489 1.413 . S
C485 C484 1.348 . S
C485 C486 1.442 . S
C485 H512 0.930 1_455 S
C486 C485 1.442 . S
C486 C487 1.381 . S
C486 H513 0.946 1_556 S
C487 C486 1.381 . S
C487 C488 1.321 . S
C488 C487 1.321 . S
C488 C489 1.403 . S
C488 H514 0.934 . S
C489 C484 1.413 . S
C489 C488 1.403 . S
C489 H515 0.930 . S
C490 O504 1.275 . S
C490 O505 1.256 1_565 S
C491 O506 1.259 1_455 S
C491 O507 1.268 . S
C492 Ho481 2.811 . S
C492 C493 1.488 . S
C492 O508 1.215 . S
C492 O509 1.289 . S
C493 C492 1.488 . S
C493 C494 1.348 . S
C493 C498 1.413 . S
C494 C493 1.348 . S
C494 C495 1.442 . S
C494 H516 0.930 1_655 S
C495 C494 1.442 . S
C495 C496 1.381 . S
C495 H517 0.938 . S
C496 C495 1.381 . S
C496 C497 1.321 . S
C497 C496 1.321 . S
C497 C498 1.403 . S
C497 H518 0.934 . S
C498 C493 1.413 . S
C498 C497 1.403 . S
C498 H519 0.930 . S
C499 O510 1.275 . S
C499 O511 1.256 1_545 S
O500 Ho480 2.322 . S
O500 C482 1.259 1_455 S
O501 Ho481 2.346 1_565 S
O501 C482 1.268 . S
O502 Ho480 2.378 . S
O502 C483 1.215 . S
O503 Ho480 2.524 . S
O503 C483 1.289 . S
O504 Ho480 2.381 . S
O504 C490 1.275 . S
O505 Ho480 2.669 1_545 S
O505 Ho481 2.305 1_455 S
O505 C490 1.256 1_545 S
O506 Ho481 2.322 . S
O506 C491 1.259 1_655 S
O507 Ho480 2.346 1_545 S
O507 C491 1.268 . S
O508 Ho481 2.378 . S
O508 C492 1.215 . S
O509 Ho481 2.524 . S
O509 C492 1.289 . S
O510 Ho481 2.381 . S
O510 C499 1.275 . S
O511 Ho480 2.305 1_655 S
O511 Ho481 2.669 1_565 S
O511 C499 1.256 1_565 S
H512 C485 0.930 1_655 S
H513 C486 0.946 1_554 S
H514 C488 0.934 . S
H515 C489 0.930 . S
H516 C494 0.930 1_455 S
H517 C495 0.938 . S
H518 C497 0.934 . S
H519 C498 0.930 . S
Ho520 C523 2.811 . S
Ho520 O540 2.322 . S
Ho520 O542 2.378 . S
Ho520 O543 2.524 . S
Ho520 O544 2.381 . S
Ho520 O545 2.669 . S
Ho520 O547 2.346 . S
Ho520 O551 2.305 1_545 S
Ho521 C532 2.811 . S
Ho521 O541 2.346 . S
Ho521 O545 2.305 1_565 S
Ho521 O546 2.322 . S
Ho521 O548 2.378 . S
Ho521 O549 2.524 . S
Ho521 O550 2.381 . S
Ho521 O551 2.669 . S
C522 O540 1.259 1_565 S
C522 O541 1.268 . S
C523 Ho520 2.811 . S
C523 C524 1.488 . S
C523 O542 1.215 . S
C523 O543 1.289 . S
C524 C523 1.488 . S
C524 C525 1.348 . S
C524 C529 1.413 . S
C525 C524 1.348 . S
C525 C526 1.442 . S
C525 H552 0.930 1_545 S
C526 C525 1.442 . S
C526 C527 1.381 . S
C526 H553 0.929 1_546 S
C527 C526 1.381 . S
C527 C528 1.321 . S
C528 C527 1.321 . S
C528 C529 1.403 . S
C528 H554 0.934 . S
C529 C524 1.413 . S
C529 C528 1.403 . S
C529 H555 0.930 . S
C530 O544 1.275 . S
C530 O545 1.256 . S
C531 O546 1.259 1_545 S
C531 O547 1.268 . S
C532 Ho521 2.811 . S
C532 C533 1.488 . S
C532 O548 1.215 . S
C532 O549 1.289 . S
C533 C532 1.488 . S
C533 C534 1.348 . S
C533 C538 1.413 . S
C534 C533 1.348 . S
C534 C535 1.442 . S
C534 H556 0.930 1_565 S
C535 C534 1.442 . S
C535 C536 1.381 . S
C535 H557 0.921 1_565 S
C536 C535 1.381 . S
C536 C537 1.321 . S
C537 C536 1.321 . S
C537 C538 1.403 . S
C537 H558 0.934 . S
C538 C533 1.413 . S
C538 C537 1.403 . S
C538 H559 0.930 . S
C539 O550 1.275 . S
C539 O551 1.256 . S
O540 Ho520 2.322 . S
O540 C522 1.259 1_545 S
O541 Ho521 2.346 . S
O541 C522 1.268 . S
O542 Ho520 2.378 . S
O542 C523 1.215 . S
O543 Ho520 2.524 . S
O543 C523 1.289 . S
O544 Ho520 2.381 . S
O544 C530 1.275 . S
O545 Ho520 2.669 . S
O545 Ho521 2.305 1_545 S
O545 C530 1.256 . S
O546 Ho521 2.322 . S
O546 C531 1.259 1_565 S
O547 Ho520 2.346 . S
O547 C531 1.268 . S
O548 Ho521 2.378 . S
O548 C532 1.215 . S
O549 Ho521 2.524 . S
O549 C532 1.289 . S
O550 Ho521 2.381 . S
O550 C539 1.275 . S
O551 Ho520 2.305 1_565 S
O551 Ho521 2.669 . S
O551 C539 1.256 . S
H552 C525 0.930 1_565 S
H553 C526 0.929 1_564 S
H554 C528 0.934 . S
H555 C529 0.930 . S
H556 C534 0.930 1_545 S
H557 C535 0.921 1_545 S
H558 C537 0.934 . S
H559 C538 0.930 . S
Ho560 C563 2.811 . S
Ho560 O580 2.322 . S
Ho560 O582 2.378 . S
Ho560 O583 2.524 . S
Ho560 O584 2.381 . S
Ho560 O585 2.669 . S
Ho560 O587 2.346 . S
Ho560 O591 2.305 . S
Ho561 C572 2.811 . S
Ho561 O581 2.346 . S
Ho561 O585 2.305 . S
Ho561 O586 2.322 . S
Ho561 O588 2.378 . S
Ho561 O589 2.524 . S
Ho561 O590 2.381 . S
Ho561 O591 2.669 . S
C562 O580 1.259 . S
C562 O581 1.268 . S
C563 Ho560 2.811 . S
C563 C564 1.488 . S
C563 O582 1.215 . S
C563 O583 1.289 . S
C564 C563 1.488 . S
C564 C565 1.348 . S
C564 C569 1.413 . S
C565 C564 1.348 . S
C565 C566 1.442 . S
C565 H592 0.930 . S
C566 C565 1.442 . S
C566 C567 1.381 . S
C566 H593 0.931 1_556 S
C567 C566 1.381 . S
C567 C568 1.321 . S
C568 C567 1.321 . S
C568 C569 1.403 . S
C568 H594 0.934 . S
C569 C564 1.413 . S
C569 C568 1.403 . S
C569 H595 0.930 . S
C570 O584 1.275 . S
C570 O585 1.256 . S
C571 O586 1.259 . S
C571 O587 1.268 . S
C572 Ho561 2.811 . S
C572 C573 1.488 . S
C572 O588 1.215 . S
C572 O589 1.289 . S
C573 C572 1.488 . S
C573 C574 1.348 . S
C573 C578 1.413 . S
C574 C573 1.348 . S
C574 C575 1.442 . S
C574 H596 0.930 . S
C575 C574 1.442 . S
C575 C576 1.381 . S
C575 H597 0.931 . S
C576 C575 1.381 . S
C576 C577 1.321 . S
C577 C576 1.321 . S
C577 C578 1.403 . S
C577 H598 0.934 . S
C578 C573 1.413 . S
C578 C577 1.403 . S
C578 H599 0.930 . S
C579 O590 1.275 . S
C579 O591 1.256 . S
O580 Ho560 2.322 . S
O580 C562 1.259 . S
O581 Ho561 2.346 . S
O581 C562 1.268 . S
O582 Ho560 2.378 . S
O582 C563 1.215 . S
O583 Ho560 2.524 . S
O583 C563 1.289 . S
O584 Ho560 2.381 . S
O584 C570 1.275 . S
O585 Ho560 2.669 . S
O585 Ho561 2.305 . S
O585 C570 1.256 . S
O586 Ho561 2.322 . S
O586 C571 1.259 . S
O587 Ho560 2.346 . S
O587 C571 1.268 . S
O588 Ho561 2.378 . S
O588 C572 1.215 . S
O589 Ho561 2.524 . S
O589 C572 1.289 . S
O590 Ho561 2.381 . S
O590 C579 1.275 . S
O591 Ho560 2.305 . S
O591 Ho561 2.669 . S
O591 C579 1.256 . S
H592 C565 0.930 . S
H593 C566 0.931 1_554 S
H594 C568 0.934 . S
H595 C569 0.930 . S
H596 C574 0.930 . S
H597 C575 0.931 . S
H598 C577 0.934 . S
H599 C578 0.930 . S
Ho600 C603 2.811 . S
Ho600 O620 2.322 . S
Ho600 O622 2.378 . S
Ho600 O623 2.524 . S
Ho600 O624 2.381 . S
Ho600 O625 2.669 1_655 S
Ho600 O627 2.346 1_655 S
Ho600 O631 2.305 . S
Ho601 C612 2.811 . S
Ho601 O621 2.346 1_455 S
Ho601 O625 2.305 . S
Ho601 O626 2.322 . S
Ho601 O628 2.378 . S
Ho601 O629 2.524 . S
Ho601 O630 2.381 . S
Ho601 O631 2.669 1_455 S
C602 O620 1.259 . S
C602 O621 1.268 . S
C603 Ho600 2.811 . S
C603 C604 1.488 . S
C603 O622 1.215 . S
C603 O623 1.289 . S
C604 C603 1.488 . S
C604 C605 1.348 . S
C604 C609 1.413 . S
C605 C604 1.348 . S
C605 C606 1.442 . S
C605 H632 0.930 . S
C606 C605 1.442 . S
C606 C607 1.381 . S
C606 H633 0.931 1_556 S
C607 C606 1.381 . S
C607 C608 1.321 . S
C608 C607 1.321 . S
C608 C609 1.403 . S
C608 H634 0.934 . S
C609 C604 1.413 . S
C609 C608 1.403 . S
C609 H635 0.930 . S
C610 O624 1.287 . S
C610 O625 1.249 1_655 S
C611 O626 1.259 . S
C611 O627 1.268 . S
C612 Ho601 2.811 . S
C612 C613 1.488 . S
C612 O628 1.215 . S
C612 O629 1.289 . S
C613 C612 1.488 . S
C613 C614 1.348 . S
C613 C618 1.413 . S
C614 C613 1.348 . S
C614 C615 1.442 . S
C614 H636 0.930 . S
C615 C614 1.442 . S
C615 C616 1.381 . S
C615 H637 0.931 . S
C616 C615 1.381 . S
C616 C617 1.321 . S
C617 C616 1.321 . S
C617 C618 1.403 . S
C617 H638 0.934 . S
C618 C613 1.413 . S
C618 C617 1.403 . S
C618 H639 0.930 . S
C619 O630 1.292 . S
C619 O631 1.247 1_455 S
O620 Ho600 2.322 . S
O620 C602 1.259 . S
O621 Ho601 2.346 1_655 S
O621 C602 1.268 . S
O622 Ho600 2.378 . S
O622 C603 1.215 . S
O623 Ho600 2.524 . S
O623 C603 1.289 . S
O624 Ho600 2.381 . S
O624 C610 1.287 . S
O625 Ho600 2.669 1_455 S
O625 Ho601 2.305 . S
O625 C610 1.249 1_455 S
O626 Ho601 2.322 . S
O626 C611 1.259 . S
O627 Ho600 2.346 1_455 S
O627 C611 1.268 . S
O628 Ho601 2.378 . S
O628 C612 1.215 . S
O629 Ho601 2.524 . S
O629 C612 1.289 . S
O630 Ho601 2.381 . S
O630 C619 1.292 . S
O631 Ho600 2.305 . S
O631 Ho601 2.669 1_655 S
O631 C619 1.247 1_655 S
H632 C605 0.930 . S
H633 C606 0.931 1_554 S
H634 C608 0.934 . S
H635 C609 0.930 . S
H636 C614 0.930 . S
H637 C615 0.931 . S
H638 C617 0.934 . S
H639 C618 0.930 . S
H640 C646 0.930 . S
H641 C649 0.930 . S
H642 C650 0.930 . S
H643 C651 0.930 . S
H644 C654 0.930 . S
H645 C655 0.930 . S
C646 H640 0.930 . S
C646 C647 1.357 . S
C646 C648 1.415 . S
C647 C646 1.357 . S
C647 C649 1.416 1_545 S
C648 C646 1.415 . S
C648 C653 1.425 1_545 S
C648 C655 1.409 . S
C649 H641 0.930 . S
C649 C647 1.416 1_565 S
C649 C650 1.362 . S
C650 H642 0.930 . S
C650 C649 1.362 . S
C650 C653 1.409 . S
C651 H643 0.930 . S
C651 C652 1.355 1_565 S
C651 C653 1.415 . S
C652 C651 1.355 1_545 S
C652 C654 1.419 . S
C653 C648 1.425 1_565 S
C653 C650 1.409 . S
C653 C651 1.415 . S
C654 H644 0.930 . S
C654 C652 1.419 . S
C654 C655 1.362 . S
C655 H645 0.930 . S
C655 C648 1.409 . S
C655 C654 1.362 . S
H656 C662 0.930 . S
H657 C665 0.930 . S
H658 C666 0.930 . S
H659 C667 0.930 . S
H660 C670 0.930 . S
H661 C671 0.930 . S
C662 H656 0.930 . S
C662 C663 1.355 . S
C662 C664 1.415 . S
C663 C662 1.355 . S
C663 C665 1.419 . S
C664 C662 1.415 . S
C664 C669 1.425 . S
C664 C671 1.409 . S
C665 H657 0.930 . S
C665 C663 1.419 . S
C665 C666 1.362 . S
C666 H658 0.930 . S
C666 C665 1.362 . S
C666 C669 1.409 . S
C667 H659 0.930 . S
C667 C668 1.355 . S
C667 C669 1.415 . S
C668 C667 1.355 . S
C668 C670 1.419 . S
C669 C664 1.425 . S
C669 C666 1.409 . S
C669 C667 1.415 . S
C670 H660 0.930 . S
C670 C668 1.419 . S
C670 C671 1.362 . S
C671 H661 0.930 . S
C671 C664 1.409 . S
C671 C670 1.362 . S
H672 C678 0.930 . S
H673 C681 0.930 . S
H674 C682 0.930 . S
H675 C683 0.930 . S
H676 C686 0.930 . S
H677 C687 0.930 . S
C678 H672 0.930 . S
C678 C679 1.355 . S
C678 C680 1.415 . S
C679 C678 1.355 . S
C679 C681 1.419 . S
C680 C678 1.415 . S
C680 C685 1.425 . S
C680 C687 1.409 . S
C681 H673 0.930 . S
C681 C679 1.419 . S
C681 C682 1.362 . S
C682 H674 0.930 . S
C682 C681 1.362 . S
C682 C685 1.409 . S
C683 H675 0.930 . S
C683 C684 1.355 . S
C683 C685 1.415 . S
C684 C683 1.355 . S
C684 C686 1.419 . S
C685 C680 1.425 . S
C685 C682 1.409 . S
C685 C683 1.415 . S
C686 H676 0.930 . S
C686 C684 1.419 . S
C686 C687 1.362 . S
C687 H677 0.930 . S
C687 C680 1.409 . S
C687 C686 1.362 . S
H688 C694 0.930 . S
H689 C697 0.930 . S
H690 C698 0.930 . S
H691 C699 0.930 . S
H692 C702 0.930 . S
H693 C703 0.930 . S
C694 H688 0.930 . S
C694 C695 1.355 1_455 S
C694 C696 1.415 . S
C695 C694 1.355 1_655 S
C695 C697 1.419 . S
C696 C694 1.415 . S
C696 C701 1.425 1_455 S
C696 C703 1.409 . S
C697 H689 0.930 . S
C697 C695 1.419 . S
C697 C698 1.362 . S
C698 H690 0.930 . S
C698 C697 1.362 . S
C698 C701 1.409 . S
C699 H691 0.930 . S
C699 C700 1.355 1_655 S
C699 C701 1.415 . S
C700 C699 1.355 1_455 S
C700 C702 1.419 . S
C701 C696 1.425 1_655 S
C701 C698 1.409 . S
C701 C699 1.415 . S
C702 H692 0.930 . S
C702 C700 1.419 . S
C702 C703 1.362 . S
C703 H693 0.930 . S
C703 C696 1.409 . S
C703 C702 1.362 . S
H704 C710 0.930 . S
H705 C713 0.930 . S
H706 C714 0.930 . S
H707 C715 0.930 . S
H708 C718 0.930 . S
H709 C719 0.930 . S
C710 H704 0.930 . S
C710 C711 1.355 1_545 S
C710 C712 1.415 . S
C711 C710 1.355 1_565 S
C711 C713 1.419 . S
C712 C710 1.415 . S
C712 C717 1.425 1_545 S
C712 C719 1.409 . S
C713 H705 0.930 . S
C713 C711 1.419 . S
C713 C714 1.362 . S
C714 H706 0.930 . S
C714 C713 1.362 . S
C714 C717 1.409 . S
C715 H707 0.930 . S
C715 C716 1.344 1_565 S
C715 C717 1.415 1_556 S
C716 C715 1.344 1_545 S
C716 C718 1.433 . S
C717 C712 1.425 1_565 S
C717 C714 1.409 . S
C717 C715 1.415 1_554 S
C718 H708 0.930 . S
C718 C716 1.433 . S
C718 C719 1.362 1_556 S
C719 H709 0.930 . S
C719 C712 1.409 . S
C719 C718 1.362 1_554 S
H720 C726 0.930 . S
H721 C729 0.930 . S
H722 C730 0.930 . S
H723 C731 0.930 . S
H724 C734 0.930 . S
H725 C735 0.930 . S
C726 H720 0.930 . S
C726 C727 1.355 . S
C726 C728 1.415 . S
C727 C726 1.355 . S
C727 C729 1.419 . S
C728 C726 1.415 . S
C728 C733 1.425 . S
C728 C735 1.409 1_554 S
C729 H721 0.930 . S
C729 C727 1.419 . S
C729 C730 1.362 . S
C730 H722 0.930 . S
C730 C729 1.362 . S
C730 C733 1.409 . S
C731 H723 0.930 . S
C731 C732 1.355 . S
C731 C733 1.415 1_556 S
C732 C731 1.355 . S
C732 C734 1.419 . S
C733 C728 1.425 . S
C733 C730 1.409 . S
C733 C731 1.415 1_554 S
C734 H724 0.930 . S
C734 C732 1.419 . S
C734 C735 1.362 . S
C735 H725 0.930 . S
C735 C728 1.409 1_556 S
C735 C734 1.362 . S
H736 C742 0.930 . S
H737 C745 0.930 . S
H738 C746 0.930 . S
H739 C747 0.930 . S
H740 C750 0.930 . S
H741 C751 0.930 . S
C742 H736 0.930 . S
C742 C743 1.355 . S
C742 C744 1.415 . S
C743 C742 1.355 . S
C743 C745 1.419 . S
C744 C742 1.415 . S
C744 C749 1.425 . S
C744 C751 1.409 . S
C745 H737 0.930 . S
C745 C743 1.419 . S
C745 C746 1.362 . S
C746 H738 0.930 . S
C746 C745 1.362 . S
C746 C749 1.409 . S
C747 H739 0.930 . S
C747 C748 1.355 . S
C747 C749 1.415 1_556 S
C748 C747 1.355 . S
C748 C750 1.419 . S
C749 C744 1.425 . S
C749 C746 1.409 . S
C749 C747 1.415 1_554 S
C750 H740 0.930 . S
C750 C748 1.419 . S
C750 C751 1.362 1_556 S
C751 H741 0.930 . S
C751 C744 1.409 . S
C751 C750 1.362 1_554 S
H752 C758 0.928 1_455 S
H753 C761 0.930 . S
H754 C762 0.930 . S
H755 C763 0.930 . S
H756 C766 0.930 . S
H757 C767 0.930 . S
C758 H752 0.928 1_655 S
C758 C759 1.355 . S
C758 C760 1.415 . S
C759 C758 1.355 . S
C759 C761 1.419 . S
C760 C758 1.415 . S
C760 C765 1.425 . S
C760 C767 1.410 1_654 S
C761 H753 0.930 . S
C761 C759 1.419 . S
C761 C762 1.362 . S
C762 H754 0.930 . S
C762 C761 1.362 . S
C762 C765 1.409 . S
C763 H755 0.930 . S
C763 C764 1.357 . S
C763 C765 1.415 1_556 S
C764 C763 1.357 . S
C764 C766 1.417 1_655 S
C765 C760 1.425 . S
C765 C762 1.409 . S
C765 C763 1.415 1_554 S
C766 H756 0.930 . S
C766 C764 1.417 1_455 S
C766 C767 1.362 . S
C767 H757 0.930 . S
C767 C760 1.410 1_456 S
C767 C766 1.362 . S
H768 C774 0.930 . S
H769 C777 0.930 . S
H770 C778 0.930 . S
H771 C779 0.930 . S
H772 C782 0.930 . S
H773 C783 0.930 1_455 S
C774 H768 0.930 . S
C774 C775 1.355 . S
C774 C776 1.415 1_455 S
C775 C774 1.355 . S
C775 C777 1.419 1_455 S
C776 C774 1.415 1_655 S
C776 C781 1.425 . S
C776 C783 1.409 . S
C777 H769 0.930 . S
C777 C775 1.419 1_655 S
C777 C778 1.362 . S
C778 H770 0.930 . S
C778 C777 1.362 . S
C778 C781 1.409 . S
C779 H771 0.930 . S
C779 C780 1.355 . S
C779 C781 1.415 . S
C780 C779 1.355 . S
C780 C782 1.419 . S
C781 C776 1.425 . S
C781 C778 1.409 . S
C781 C779 1.415 . S
C782 H772 0.930 . S
C782 C780 1.419 . S
C782 C783 1.362 . S
C783 H773 0.930 1_655 S
C783 C776 1.409 . S
C783 C782 1.362 . S
H784 C790 0.930 . S
H785 C793 0.934 . S
H786 C794 0.930 . S
H787 C795 0.930 . S
H788 C798 0.930 . S
H789 C799 0.930 . S
C790 H784 0.930 . S
C790 C791 1.355 1_565 S
C790 C792 1.415 . S
C791 C790 1.355 1_545 S
C791 C793 1.420 . S
C792 C790 1.415 . S
C792 C797 1.425 . S
C792 C799 1.409 . S
C793 H785 0.934 . S
C793 C791 1.420 . S
C793 C794 1.357 1_545 S
C794 H786 0.930 . S
C794 C793 1.357 1_565 S
C794 C797 1.409 . S
C795 H787 0.930 . S
C795 C796 1.355 . S
C795 C797 1.415 . S
C796 C795 1.355 . S
C796 C798 1.419 . S
C797 C792 1.425 . S
C797 C794 1.409 . S
C797 C795 1.415 . S
C798 H788 0.930 . S
C798 C796 1.419 . S
C798 C799 1.362 . S
C799 H789 0.930 . S
C799 C792 1.409 . S
C799 C798 1.362 . S
H800 C806 0.930 . S
H801 C809 0.930 . S
H802 C810 0.930 . S
H803 C811 0.930 . S
H804 C814 0.930 . S
H805 C815 0.930 . S
C806 H800 0.930 . S
C806 C807 1.355 . S
C806 C808 1.415 . S
C807 C806 1.355 . S
C807 C809 1.419 . S
C808 C806 1.415 . S
C808 C813 1.425 . S
C808 C815 1.409 . S
C809 H801 0.930 . S
C809 C807 1.419 . S
C809 C810 1.362 . S
C810 H802 0.930 . S
C810 C809 1.362 . S
C810 C813 1.409 . S
C811 H803 0.930 . S
C811 C812 1.355 . S
C811 C813 1.415 . S
C812 C811 1.355 . S
C812 C814 1.419 . S
C813 C808 1.425 . S
C813 C810 1.409 . S
C813 C811 1.415 . S
C814 H804 0.930 . S
C814 C812 1.419 . S
C814 C815 1.362 . S
C815 H805 0.930 . S
C815 C808 1.409 . S
C815 C814 1.362 . S
H816 C822 0.930 . S
H817 C825 0.930 . S
H818 C826 0.930 . S
H819 C827 0.930 . S
H820 C830 0.930 . S
H821 C831 0.930 . S
C822 H816 0.930 . S
C822 C823 1.355 . S
C822 C824 1.415 . S
C823 C822 1.355 . S
C823 C825 1.419 . S
C824 C822 1.415 . S
C824 C829 1.425 . S
C824 C831 1.409 . S
C825 H817 0.930 . S
C825 C823 1.419 . S
C825 C826 1.362 . S
C826 H818 0.930 . S
C826 C825 1.362 . S
C826 C829 1.409 . S
C827 H819 0.930 . S
C827 C828 1.355 . S
C827 C829 1.415 . S
C828 C827 1.355 . S
C828 C830 1.419 . S
C829 C824 1.425 . S
C829 C826 1.409 . S
C829 C827 1.415 . S
C830 H820 0.930 . S
C830 C828 1.419 . S
C830 C831 1.362 . S
C831 H821 0.930 . S
C831 C824 1.409 . S
C831 C830 1.362 . S
H832 C838 0.930 . S
H833 C841 0.930 . S
H834 C842 0.930 1_556 S
H835 C843 0.930 . S
H836 C846 0.930 . S
H837 C847 0.930 . S
C838 H832 0.930 . S
C838 C839 1.355 1_455 S
C838 C840 1.415 . S
C839 C838 1.355 1_655 S
C839 C841 1.419 . S
C840 C838 1.415 . S
C840 C845 1.425 . S
C840 C847 1.409 . S
C841 H833 0.930 . S
C841 C839 1.419 . S
C841 C842 1.362 . S
C842 H834 0.930 1_554 S
C842 C841 1.362 . S
C842 C845 1.409 1_655 S
C843 H835 0.930 . S
C843 C844 1.355 1_556 S
C843 C845 1.415 1_556 S
C844 C843 1.355 1_554 S
C844 C846 1.419 . S
C845 C840 1.425 . S
C845 C842 1.409 1_455 S
C845 C843 1.415 1_554 S
C846 H836 0.930 . S
C846 C844 1.419 . S
C846 C847 1.362 . S
C847 H837 0.930 . S
C847 C840 1.409 . S
C847 C846 1.362 . S
H848 C854 0.930 . S
H849 C857 0.930 . S
H850 C858 0.932 1_565 S
H851 C859 0.930 . S
H852 C862 0.930 . S
H853 C863 0.930 . S
C854 H848 0.930 . S
C854 C855 1.355 1_545 S
C854 C856 1.415 . S
C855 C854 1.355 1_565 S
C855 C857 1.419 . S
C856 C854 1.415 . S
C856 C861 1.425 . S
C856 C863 1.409 . S
C857 H849 0.930 . S
C857 C855 1.419 . S
C857 C858 1.364 1_564 S
C858 H850 0.932 1_545 S
C858 C857 1.364 1_546 S
C858 C861 1.406 1_556 S
C859 H851 0.930 . S
C859 C860 1.355 1_556 S
C859 C861 1.415 1_556 S
C860 C859 1.355 1_554 S
C860 C862 1.419 . S
C861 C856 1.425 . S
C861 C858 1.406 1_554 S
C861 C859 1.415 1_554 S
C862 H852 0.930 . S
C862 C860 1.419 . S
C862 C863 1.362 . S
C863 H853 0.930 . S
C863 C856 1.409 . S
C863 C862 1.362 . S
H864 C870 0.930 . S
H865 C873 0.930 . S
H866 C874 0.930 . S
H867 C875 0.930 . S
H868 C878 0.930 . S
H869 C879 0.930 . S
C870 H864 0.930 . S
C870 C871 1.355 . S
C870 C872 1.415 . S
C871 C870 1.355 . S
C871 C873 1.419 . S
C872 C870 1.415 . S
C872 C877 1.425 . S
C872 C879 1.409 1_554 S
C873 H865 0.930 . S
C873 C871 1.419 . S
C873 C874 1.362 . S
C874 H866 0.930 . S
C874 C873 1.362 . S
C874 C877 1.409 . S
C875 H867 0.930 . S
C875 C876 1.355 . S
C875 C877 1.415 . S
C876 C875 1.355 . S
C876 C878 1.419 1_554 S
C877 C872 1.425 . S
C877 C874 1.409 . S
C877 C875 1.415 . S
C878 H868 0.930 . S
C878 C876 1.419 1_556 S
C878 C879 1.362 . S
C879 H869 0.930 . S
C879 C872 1.409 1_556 S
C879 C878 1.362 . S
H880 C886 0.930 . S
H881 C889 0.930 . S
H882 C890 0.930 . S
H883 C891 0.930 . S
H884 C894 0.930 . S
H885 C895 0.930 . S
C886 H880 0.930 . S
C886 C887 1.355 . S
C886 C888 1.415 . S
C887 C886 1.355 . S
C887 C889 1.419 . S
C888 C886 1.415 . S
C888 C893 1.425 . S
C888 C895 1.409 . S
C889 H881 0.930 . S
C889 C887 1.419 . S
C889 C890 1.362 . S
C890 H882 0.930 . S
C890 C889 1.362 . S
C890 C893 1.409 . S
C891 H883 0.930 . S
C891 C892 1.355 . S
C891 C893 1.415 . S
C892 C891 1.355 . S
C892 C894 1.419 . S
C893 C888 1.425 . S
C893 C890 1.409 . S
C893 C891 1.415 . S
C894 H884 0.930 . S
C894 C892 1.419 . S
C894 C895 1.362 . S
C895 H885 0.930 . S
C895 C888 1.409 . S
C895 C894 1.362 . S
H896 C902 0.930 . S
H897 C905 0.930 . S
H898 C906 0.930 . S
H899 C907 0.930 . S
H900 C910 0.930 . S
H901 C911 0.930 . S
C902 H896 0.930 . S
C902 C903 1.355 . S
C902 C904 1.415 . S
C903 C902 1.355 . S
C903 C905 1.419 1_455 S
C904 C902 1.415 . S
C904 C909 1.425 1_455 S
C904 C911 1.409 . S
C905 H897 0.930 . S
C905 C903 1.419 1_655 S
C905 C906 1.362 . S
C906 H898 0.930 . S
C906 C905 1.362 . S
C906 C909 1.409 . S
C907 H899 0.930 . S
C907 C908 1.355 1_655 S
C907 C909 1.415 . S
C908 C907 1.355 1_455 S
C908 C910 1.419 . S
C909 C904 1.425 1_655 S
C909 C906 1.409 . S
C909 C907 1.415 . S
C910 H900 0.930 . S
C910 C908 1.419 . S
C910 C911 1.362 . S
C911 H901 0.930 . S
C911 C904 1.409 . S
C911 C910 1.362 . S
H912 C918 0.930 . S
H913 C921 0.930 . S
H914 C922 0.930 . S
H915 C923 0.930 . S
H916 C926 0.930 . S
H917 C927 0.930 . S
C918 H912 0.930 . S
C918 C919 1.355 1_565 S
C918 C920 1.415 . S
C919 C918 1.355 1_545 S
C919 C921 1.419 . S
C920 C918 1.415 . S
C920 C925 1.425 1_565 S
C920 C927 1.409 . S
C921 H913 0.930 . S
C921 C919 1.419 . S
C921 C922 1.362 . S
C922 H914 0.930 . S
C922 C921 1.362 . S
C922 C925 1.409 . S
C923 H915 0.930 . S
C923 C924 1.355 . S
C923 C925 1.415 . S
C924 C923 1.355 . S
C924 C926 1.419 1_545 S
C925 C920 1.425 1_545 S
C925 C922 1.409 . S
C925 C923 1.415 . S
C926 H916 0.930 . S
C926 C924 1.419 1_565 S
C926 C927 1.362 . S
C927 H917 0.930 . S
C927 C920 1.409 . S
C927 C926 1.362 . S
H928 C934 0.930 . S
H929 C937 0.930 . S
H930 C938 0.930 . S
H931 C939 0.930 . S
H932 C942 0.930 . S
H933 C943 0.930 . S
C934 H928 0.930 . S
C934 C935 1.355 . S
C934 C936 1.415 . S
C935 C934 1.355 . S
C935 C937 1.419 . S
C936 C934 1.415 . S
C936 C941 1.425 . S
C936 C943 1.409 . S
C937 H929 0.930 . S
C937 C935 1.419 . S
C937 C938 1.362 . S
C938 H930 0.930 . S
C938 C937 1.362 . S
C938 C941 1.409 . S
C939 H931 0.930 . S
C939 C940 1.355 . S
C939 C941 1.415 . S
C940 C939 1.355 . S
C940 C942 1.419 . S
C941 C936 1.425 . S
C941 C938 1.409 . S
C941 C939 1.415 . S
C942 H932 0.930 . S
C942 C940 1.419 . S
C942 C943 1.362 . S
C943 H933 0.930 . S
C943 C936 1.409 . S
C943 C942 1.362 . S
H944 C950 0.930 . S
H945 C953 0.930 . S
H946 C954 0.930 . S
H947 C955 0.930 . S
H948 C958 0.930 . S
H949 C959 0.930 . S
C950 H944 0.930 . S
C950 C951 1.355 . S
C950 C952 1.415 . S
C951 C950 1.355 . S
C951 C953 1.419 . S
C952 C950 1.415 . S
C952 C957 1.425 . S
C952 C959 1.409 . S
C953 H945 0.930 . S
C953 C951 1.419 . S
C953 C954 1.362 . S
C954 H946 0.930 . S
C954 C953 1.362 . S
C954 C957 1.409 . S
C955 H947 0.930 . S
C955 C956 1.355 . S
C955 C957 1.415 . S
C956 C955 1.355 . S
C956 C958 1.419 . S
C957 C952 1.425 . S
C957 C954 1.409 . S
C957 C955 1.415 . S
C958 H948 0.930 . S
C958 C956 1.419 . S
C958 C959 1.362 . S
C959 H949 0.930 . S
C959 C952 1.409 . S
C959 C958 1.362 . S
H960 C966 0.930 . S
H961 C969 0.930 . S
H962 C970 0.930 . S
H963 C971 0.930 . S
H964 C974 0.930 . S
H965 C975 0.930 . S
C966 H960 0.930 . S
C966 C967 1.355 . S
C966 C968 1.415 . S
C967 C966 1.355 . S
C967 C969 1.419 1_655 S
C968 C966 1.415 . S
C968 C973 1.425 1_655 S
C968 C975 1.409 . S
C969 H961 0.930 . S
C969 C967 1.419 1_455 S
C969 C970 1.362 . S
C970 H962 0.930 . S
C970 C969 1.362 . S
C970 C973 1.409 . S
C971 H963 0.930 . S
C971 C972 1.355 1_455 S
C971 C973 1.415 . S
C972 C971 1.355 1_655 S
C972 C974 1.419 . S
C973 C968 1.425 1_455 S
C973 C970 1.409 . S
C973 C971 1.415 . S
C974 H964 0.930 . S
C974 C972 1.419 . S
C974 C975 1.362 . S
C975 H965 0.930 . S
C975 C968 1.409 . S
C975 C974 1.362 . S
H976 C982 0.930 . S
H977 C985 0.930 . S
H978 C986 0.930 . S
H979 C987 0.930 . S
H980 C990 0.930 . S
H981 C991 0.930 . S
C982 H976 0.930 . S
C982 C983 1.355 . S
C982 C984 1.415 . S
C983 C982 1.355 . S
C983 C985 1.419 1_565 S
C984 C982 1.415 . S
C984 C989 1.425 1_565 S
C984 C991 1.409 . S
C985 H977 0.930 . S
C985 C983 1.419 1_545 S
C985 C986 1.362 . S
C986 H978 0.930 . S
C986 C985 1.362 . S
C986 C989 1.409 . S
C987 H979 0.930 . S
C987 C988 1.355 1_545 S
C987 C989 1.415 . S
C988 C987 1.355 1_565 S
C988 C990 1.419 . S
C989 C984 1.425 1_545 S
C989 C986 1.409 . S
C989 C987 1.415 . S
C990 H980 0.930 . S
C990 C988 1.419 . S
C990 C991 1.362 . S
C991 H981 0.930 . S
C991 C984 1.409 . S
C991 C990 1.362 . S
H992 C998 0.930 . S
H993 C1001 0.930 . S
H994 C1002 0.930 . S
H995 C1003 0.930 . S
H996 C1006 0.930 . S
H997 C1007 0.930 . S
C998 H992 0.930 . S
C998 C999 1.355 . S
C998 C1000 1.415 . S
C999 C998 1.355 . S
C999 C1001 1.419 . S
C1000 C998 1.415 . S
C1000 C1005 1.425 . S
C1000 C1007 1.409 . S
C1001 H993 0.930 . S
C1001 C999 1.419 . S
C1001 C1002 1.362 . S
C1002 H994 0.930 . S
C1002 C1001 1.362 . S
C1002 C1005 1.409 . S
C1003 H995 0.930 . S
C1003 C1004 1.355 . S
C1003 C1005 1.415 . S
C1004 C1003 1.355 . S
C1004 C1006 1.419 . S
C1005 C1000 1.425 . S
C1005 C1002 1.409 . S
C1005 C1003 1.415 . S
C1006 H996 0.930 . S
C1006 C1004 1.419 . S
C1006 C1007 1.362 . S
C1007 H997 0.930 . S
C1007 C1000 1.409 . S
C1007 C1006 1.362 . S
H1008 C1014 0.930 . S
H1009 C1017 0.930 . S
H1010 C1018 0.930 . S
H1011 C1019 0.930 . S
H1012 C1022 0.930 . S
H1013 C1023 0.930 . S
C1014 H1008 0.930 . S
C1014 C1015 1.355 . S
C1014 C1016 1.415 . S
C1015 C1014 1.355 . S
C1015 C1017 1.419 . S
C1016 C1014 1.415 . S
C1016 C1021 1.425 . S
C1016 C1023 1.409 . S
C1017 H1009 0.930 . S
C1017 C1015 1.419 . S
C1017 C1018 1.362 . S
C1018 H1010 0.930 . S
C1018 C1017 1.362 . S
C1018 C1021 1.409 . S
C1019 H1011 0.930 . S
C1019 C1020 1.355 . S
C1019 C1021 1.415 . S
C1020 C1019 1.355 . S
C1020 C1022 1.419 . S
C1021 C1016 1.425 . S
C1021 C1018 1.409 . S
C1021 C1019 1.415 . S
C1022 H1012 0.930 . S
C1022 C1020 1.419 . S
C1022 C1023 1.362 . S
C1023 H1013 0.930 . S
C1023 C1016 1.409 . S
C1023 C1022 1.362 . S
C647 C391 2.387 . S
C652 C490 2.521 1_545 S
C668 C530 2.550 . S
C663 C451 2.443 . S
C684 C570 2.549 . S
C679 C241 2.166 . S
C700 C610 2.537 1_455 S
C695 C331 2.084 . S
C716 C499 2.520 . S
C711 C121 2.063 . S
C727 C211 2.456 . S
C732 C539 2.549 . S
C743 C31 2.417 . S
C748 C579 2.530 . S
C759 C91 2.144 . S
C764 C619 2.540 1_655 S
C780 C496 0.546 . S
C775 C301 0.523 1_455 S
C796 C536 0.624 . S
C791 C380 0.551 . S
C812 C576 0.606 . S
C807 C440 0.549 . S
C823 C260 0.552 . S
C828 C616 0.464 . S
C839 C61 0.669 . S
C844 C487 0.694 1_554 S
C860 C527 0.680 1_554 S
C855 C140 0.697 . S
C876 C567 0.564 1_554 S
C871 C200 0.564 . S
C887 C20 0.662 . S
C892 C607 0.669 1_554 S
C903 C320 3.192 1_455 S
C908 C491 3.452 . S
C919 C361 2.707 . S
C924 C531 3.414 . S
C940 C571 3.431 . S
C935 C421 2.716 . S
C956 C611 3.446 . S
C951 C271 3.197 . S
C967 C80 3.167 . S
C972 C482 3.462 . S
C988 C522 3.439 . S
C983 C151 3.149 . S
C1004 C562 3.429 . S
C999 C181 2.784 . S
C1015 C1 2.802 . S
C1020 C602 3.450 . S
