# Generated by pormake.
# Topology ptr, (4,4)-cn, num edge types: 1
# Building blocks:
#     Node 0, Type 0, BuildingBlock: AZAVOO_clean_sbu_0, # of connection points: 4
#     Node 1, Type 0, BuildingBlock: AZAVOO_clean_sbu_0, # of connection points: 4
#     Node 2, Type 0, BuildingBlock: AZAVOO_clean_sbu_0, # of connection points: 4
#     Node 3, Type 0, BuildingBlock: AZAVOO_clean_sbu_0, # of connection points: 4
#     Node 4, Type 0, BuildingBlock: AZAVOO_clean_sbu_0, # of connection points: 4
#     Node 5, Type 0, BuildingBlock: AZAVOO_clean_sbu_0, # of connection points: 4
#     Node 6, Type 0, BuildingBlock: AZAVOO_clean_sbu_0, # of connection points: 4
#     Node 7, Type 0, BuildingBlock: AZAVOO_clean_sbu_0, # of connection points: 4
#     Node 8, Type 0, BuildingBlock: AZAVOO_clean_sbu_0, # of connection points: 4
#     Node 9, Type 0, BuildingBlock: AZAVOO_clean_sbu_0, # of connection points: 4
#     Node 10, Type 0, BuildingBlock: AZAVOO_clean_sbu_0, # of connection points: 4
#     Node 11, Type 0, BuildingBlock: AZAVOO_clean_sbu_0, # of connection points: 4
#     Node 12, Type 0, BuildingBlock: AZAVOO_clean_sbu_0, # of connection points: 4
#     Node 13, Type 0, BuildingBlock: AZAVOO_clean_sbu_0, # of connection points: 4
#     Node 14, Type 0, BuildingBlock: AZAVOO_clean_sbu_0, # of connection points: 4
#     Node 15, Type 0, BuildingBlock: AZAVOO_clean_sbu_0, # of connection points: 4
#     Node 16, Type 0, BuildingBlock: AZAVOO_clean_sbu_0, # of connection points: 4
#     Node 17, Type 0, BuildingBlock: AZAVOO_clean_sbu_0, # of connection points: 4
#     Node 18, Type 1, BuildingBlock: MUDLON_clean_linker_0, # of connection points: 4
#     Node 19, Type 1, BuildingBlock: MUDLON_clean_linker_0, # of connection points: 4
#     Node 20, Type 1, BuildingBlock: MUDLON_clean_linker_0, # of connection points: 4
#     Node 21, Type 1, BuildingBlock: MUDLON_clean_linker_0, # of connection points: 4
#     Node 22, Type 1, BuildingBlock: MUDLON_clean_linker_0, # of connection points: 4
#     Node 23, Type 1, BuildingBlock: MUDLON_clean_linker_0, # of connection points: 4
#     Node 24, Type 1, BuildingBlock: MUDLON_clean_linker_0, # of connection points: 4
#     Node 25, Type 1, BuildingBlock: MUDLON_clean_linker_0, # of connection points: 4
#     Node 26, Type 1, BuildingBlock: MUDLON_clean_linker_0, # of connection points: 4
#     Node 27, Type 1, BuildingBlock: MUDLON_clean_linker_0, # of connection points: 4
#     Node 28, Type 1, BuildingBlock: MUDLON_clean_linker_0, # of connection points: 4
#     Node 29, Type 1, BuildingBlock: MUDLON_clean_linker_0, # of connection points: 4
#     Node 30, Type 1, BuildingBlock: MUDLON_clean_linker_0, # of connection points: 4
#     Node 31, Type 1, BuildingBlock: MUDLON_clean_linker_0, # of connection points: 4
#     Node 32, Type 1, BuildingBlock: MUDLON_clean_linker_0, # of connection points: 4
#     Node 33, Type 1, BuildingBlock: MUDLON_clean_linker_0, # of connection points: 4
#     Node 34, Type 1, BuildingBlock: MUDLON_clean_linker_0, # of connection points: 4
#     Node 35, Type 1, BuildingBlock: MUDLON_clean_linker_0, # of connection points: 4
#     Edge 36, Type (0, 1), BuildingBlock: TEMPAE_clean_linker_10, # of connection points: 2
#     Edge 37, Type (0, 1), BuildingBlock: TEMPAE_clean_linker_10, # of connection points: 2
#     Edge 38, Type (0, 1), BuildingBlock: TEMPAE_clean_linker_10, # of connection points: 2
#     Edge 39, Type (0, 1), BuildingBlock: TEMPAE_clean_linker_10, # of connection points: 2
#     Edge 40, Type (0, 1), BuildingBlock: TEMPAE_clean_linker_10, # of connection points: 2
#     Edge 41, Type (0, 1), BuildingBlock: TEMPAE_clean_linker_10, # of connection points: 2
#     Edge 42, Type (0, 1), BuildingBlock: TEMPAE_clean_linker_10, # of connection points: 2
#     Edge 43, Type (0, 1), BuildingBlock: TEMPAE_clean_linker_10, # of connection points: 2
#     Edge 44, Type (0, 1), BuildingBlock: TEMPAE_clean_linker_10, # of connection points: 2
#     Edge 45, Type (0, 1), BuildingBlock: TEMPAE_clean_linker_10, # of connection points: 2
#     Edge 46, Type (0, 1), BuildingBlock: TEMPAE_clean_linker_10, # of connection points: 2
#     Edge 47, Type (0, 1), BuildingBlock: TEMPAE_clean_linker_10, # of connection points: 2
#     Edge 48, Type (0, 1), BuildingBlock: TEMPAE_clean_linker_10, # of connection points: 2
#     Edge 49, Type (0, 1), BuildingBlock: TEMPAE_clean_linker_10, # of connection points: 2
#     Edge 50, Type (0, 1), BuildingBlock: TEMPAE_clean_linker_10, # of connection points: 2
#     Edge 51, Type (0, 1), BuildingBlock: TEMPAE_clean_linker_10, # of connection points: 2
#     Edge 52, Type (0, 1), BuildingBlock: TEMPAE_clean_linker_10, # of connection points: 2
#     Edge 53, Type (0, 1), BuildingBlock: TEMPAE_clean_linker_10, # of connection points: 2
#     Edge 54, Type (0, 1), BuildingBlock: TEMPAE_clean_linker_10, # of connection points: 2
#     Edge 55, Type (0, 1), BuildingBlock: TEMPAE_clean_linker_10, # of connection points: 2
#     Edge 56, Type (0, 1), BuildingBlock: TEMPAE_clean_linker_10, # of connection points: 2
#     Edge 57, Type (0, 1), BuildingBlock: TEMPAE_clean_linker_10, # of connection points: 2
#     Edge 58, Type (0, 1), BuildingBlock: TEMPAE_clean_linker_10, # of connection points: 2
#     Edge 59, Type (0, 1), BuildingBlock: TEMPAE_clean_linker_10, # of connection points: 2
#     Edge 60, Type (0, 1), BuildingBlock: TEMPAE_clean_linker_10, # of connection points: 2
#     Edge 61, Type (0, 1), BuildingBlock: TEMPAE_clean_linker_10, # of connection points: 2
#     Edge 62, Type (0, 1), BuildingBlock: TEMPAE_clean_linker_10, # of connection points: 2
#     Edge 63, Type (0, 1), BuildingBlock: TEMPAE_clean_linker_10, # of connection points: 2
#     Edge 64, Type (0, 1), BuildingBlock: TEMPAE_clean_linker_10, # of connection points: 2
#     Edge 65, Type (0, 1), BuildingBlock: TEMPAE_clean_linker_10, # of connection points: 2
#     Edge 66, Type (0, 1), BuildingBlock: TEMPAE_clean_linker_10, # of connection points: 2
#     Edge 67, Type (0, 1), BuildingBlock: TEMPAE_clean_linker_10, # of connection points: 2
#     Edge 68, Type (0, 1), BuildingBlock: TEMPAE_clean_linker_10, # of connection points: 2
#     Edge 69, Type (0, 1), BuildingBlock: TEMPAE_clean_linker_10, # of connection points: 2
#     Edge 70, Type (0, 1), BuildingBlock: TEMPAE_clean_linker_10, # of connection points: 2
#     Edge 71, Type (0, 1), BuildingBlock: TEMPAE_clean_linker_10, # of connection points: 2
#     Edge 72, Type (0, 1), BuildingBlock: TEMPAE_clean_linker_10, # of connection points: 2
#     Edge 73, Type (0, 1), BuildingBlock: TEMPAE_clean_linker_10, # of connection points: 2
#     Edge 74, Type (0, 1), BuildingBlock: TEMPAE_clean_linker_10, # of connection points: 2
#     Edge 75, Type (0, 1), BuildingBlock: TEMPAE_clean_linker_10, # of connection points: 2
#     Edge 76, Type (0, 1), BuildingBlock: TEMPAE_clean_linker_10, # of connection points: 2
#     Edge 77, Type (0, 1), BuildingBlock: TEMPAE_clean_linker_10, # of connection points: 2
#     Edge 78, Type (0, 1), BuildingBlock: TEMPAE_clean_linker_10, # of connection points: 2
#     Edge 79, Type (0, 1), BuildingBlock: TEMPAE_clean_linker_10, # of connection points: 2
#     Edge 80, Type (0, 1), BuildingBlock: TEMPAE_clean_linker_10, # of connection points: 2
#     Edge 81, Type (0, 1), BuildingBlock: TEMPAE_clean_linker_10, # of connection points: 2
#     Edge 82, Type (0, 1), BuildingBlock: TEMPAE_clean_linker_10, # of connection points: 2
#     Edge 83, Type (0, 1), BuildingBlock: TEMPAE_clean_linker_10, # of connection points: 2
#     Edge 84, Type (0, 1), BuildingBlock: TEMPAE_clean_linker_10, # of connection points: 2
#     Edge 85, Type (0, 1), BuildingBlock: TEMPAE_clean_linker_10, # of connection points: 2
#     Edge 86, Type (0, 1), BuildingBlock: TEMPAE_clean_linker_10, # of connection points: 2
#     Edge 87, Type (0, 1), BuildingBlock: TEMPAE_clean_linker_10, # of connection points: 2
#     Edge 88, Type (0, 1), BuildingBlock: TEMPAE_clean_linker_10, # of connection points: 2
#     Edge 89, Type (0, 1), BuildingBlock: TEMPAE_clean_linker_10, # of connection points: 2
#     Edge 90, Type (0, 1), BuildingBlock: TEMPAE_clean_linker_10, # of connection points: 2
#     Edge 91, Type (0, 1), BuildingBlock: TEMPAE_clean_linker_10, # of connection points: 2
#     Edge 92, Type (0, 1), BuildingBlock: TEMPAE_clean_linker_10, # of connection points: 2
#     Edge 93, Type (0, 1), BuildingBlock: TEMPAE_clean_linker_10, # of connection points: 2
#     Edge 94, Type (0, 1), BuildingBlock: TEMPAE_clean_linker_10, # of connection points: 2
#     Edge 95, Type (0, 1), BuildingBlock: TEMPAE_clean_linker_10, # of connection points: 2
#     Edge 96, Type (0, 1), BuildingBlock: TEMPAE_clean_linker_10, # of connection points: 2
#     Edge 97, Type (0, 1), BuildingBlock: TEMPAE_clean_linker_10, # of connection points: 2
#     Edge 98, Type (0, 1), BuildingBlock: TEMPAE_clean_linker_10, # of connection points: 2
#     Edge 99, Type (0, 1), BuildingBlock: TEMPAE_clean_linker_10, # of connection points: 2
#     Edge 100, Type (0, 1), BuildingBlock: TEMPAE_clean_linker_10, # of connection points: 2
#     Edge 101, Type (0, 1), BuildingBlock: TEMPAE_clean_linker_10, # of connection points: 2
#     Edge 102, Type (0, 1), BuildingBlock: TEMPAE_clean_linker_10, # of connection points: 2
#     Edge 103, Type (0, 1), BuildingBlock: TEMPAE_clean_linker_10, # of connection points: 2
#     Edge 104, Type (0, 1), BuildingBlock: TEMPAE_clean_linker_10, # of connection points: 2
#     Edge 105, Type (0, 1), BuildingBlock: TEMPAE_clean_linker_10, # of connection points: 2
#     Edge 106, Type (0, 1), BuildingBlock: TEMPAE_clean_linker_10, # of connection points: 2
#     Edge 107, Type (0, 1), BuildingBlock: TEMPAE_clean_linker_10, # of connection points: 2
# Relax obj value: 0.069
# Max RMSD: 0.226
# Mean RMSD: 0.110
data_MOF--net-ptr--node1-AZAVOO_clean_sbu_0--node2-MUDLON_clean_linker_0--edge1-TEMPAE_clean_linker_10
_symmetry_space_group_name_H-M    P1
_symmetry_Int_Tables_number       1
_symmetry_cell_setting            triclinic
loop_
_symmetry_equiv_pos_as_xyz
'x, y, z'
_cell_length_a     107.26076
_cell_length_b     105.76739
_cell_length_c     60.231295
_cell_angle_alpha  90.973426
_cell_angle_beta   90.983174
_cell_angle_gamma 120.00786
loop_
_atom_site_label
_atom_site_type_symbol
_atom_site_fract_x
_atom_site_fract_y
_atom_site_fract_z
_atom_type_partial_charge
Mg0 Mg 0.00434 0.36354 0.98696 0.0
O1 O 0.00045 0.37481 0.01695 0.0
O2 O 0.98269 0.37894 0.00675 0.0
Mg3 Mg 0.97551 0.37079 0.97084 0.0
C4 C 0.99198 0.37973 0.02111 0.0
C5 C 0.02787 0.3656 0.02148 0.0
O6 O 0.02983 0.37877 0.02511 0.0
O7 O 0.98371 0.3421 0.99341 0.0
O8 O 0.96692 0.34691 0.98048 0.0
O9 O 0.02033 0.38517 0.9738 0.0
O10 O 0.99706 0.37388 0.96542 0.0
C11 C 0.97059 0.3381 0.98853 0.0
C12 C 0.00962 0.38524 0.96367 0.0
O13 O 0.01796 0.3569 0.00785 0.0
Mg14 Mg 0.64211 0.63816 0.05495 0.0
O15 O 0.62648 0.62711 0.02522 0.0
O16 O 0.60464 0.62237 0.03523 0.0
Mg17 Mg 0.60633 0.63038 0.07126 0.0
C18 C 0.61307 0.62197 0.02089 0.0
C19 C 0.66653 0.63702 0.02894 0.0
O20 O 0.66047 0.62406 0.03769 0.0
O21 O 0.64214 0.65934 0.04961 0.0
O22 O 0.62055 0.65443 0.0613 0.0
O23 O 0.6371 0.61643 0.06693 0.0
O24 O 0.62527 0.62767 0.07674 0.0
C25 C 0.63291 0.66326 0.05371 0.0
C26 C 0.62661 0.61624 0.07754 0.0
O27 O 0.66126 0.64526 0.03257 0.0
Mg28 Mg 0.36082 0.99013 0.98922 0.0
O29 O 0.37829 0.99805 0.0165 0.0
O30 O 0.3988 0.01594 0.00352 0.0
Mg31 Mg 0.39406 0.0196 0.96761 0.0
C32 C 0.39164 0.00749 0.01904 0.0
C33 C 0.33356 0.96509 0.00795 0.0
O34 O 0.33373 0.96022 0.98781 0.0
O35 O 0.35864 0.01021 0.99442 0.0
O36 O 0.37857 0.02749 0.97898 0.0
O37 O 0.3675 0.9745 0.97698 0.0
O38 O 0.37605 0.99691 0.96472 0.0
C39 C 0.36659 0.02334 0.98841 0.0
C40 C 0.37621 0.98482 0.96434 0.0
O41 O 0.34372 0.97762 0.0143 0.0
Mg42 Mg 0.99444 0.64502 0.0349 0.0
O43 O 0.99742 0.63419 0.0035 0.0
O44 O 0.0165 0.63149 0.0103 0.0
Mg45 Mg 0.02517 0.63974 0.04564 0.0
C46 C 0.00621 0.63004 0.9975 0.0
C47 C 0.96769 0.64792 0.02469 0.0
O48 O 0.9642 0.6408 0.04331 0.0
O49 O 0.01402 0.66693 0.02742 0.0
O50 O 0.03232 0.66344 0.03652 0.0
O51 O 0.97996 0.62314 0.0486 0.0
O52 O 0.00355 0.63545 0.05436 0.0
C53 C 0.0275 0.67168 0.03007 0.0
C54 C 0.99141 0.6237 0.05707 0.0
O55 O 0.97962 0.65108 0.01613 0.0
Mg56 Mg 0.36676 0.36534 0.97712 0.0
O57 O 0.38316 0.37524 0.00635 0.0
O58 O 0.40478 0.38106 0.99353 0.0
Mg59 Mg 0.40211 0.37459 0.95659 0.0
C60 C 0.39671 0.38049 0.00929 0.0
C61 C 0.34735 0.36649 0.01353 0.0
O62 O 0.358 0.38009 0.0142 0.0
O63 O 0.36724 0.34419 0.97945 0.0
O64 O 0.38841 0.35016 0.96478 0.0
O65 O 0.37089 0.38735 0.96759 0.0
O66 O 0.3829 0.377 0.95473 0.0
C67 C 0.37649 0.34078 0.97305 0.0
C68 C 0.38111 0.38818 0.95548 0.0
O69 O 0.34803 0.35732 0.00046 0.0
Mg70 Mg 0.6328 0.00684 0.03586 0.0
O71 O 0.6156 0.99739 0.00762 0.0
O72 O 0.59526 0.97988 0.0219 0.0
Mg73 Mg 0.59961 0.97764 0.05843 0.0
C74 C 0.60231 0.98758 0.00565 0.0
C75 C 0.66101 0.03105 0.01804 0.0
O76 O 0.66039 0.0363 0.03766 0.0
O77 O 0.63541 0.98691 0.0336 0.0
O78 O 0.61531 0.96964 0.04869 0.0
O79 O 0.62581 0.0227 0.04603 0.0
O80 O 0.61701 0.00059 0.05927 0.0
C81 C 0.6275 0.97386 0.03991 0.0
C82 C 0.61681 0.01265 0.05877 0.0
O83 O 0.65064 0.0187 0.01145 0.0
Mg84 Mg 0.67595 0.69201 0.31999 0.0
O85 O 0.66905 0.70152 0.34913 0.0
O86 O 0.65202 0.70563 0.33493 0.0
Mg87 Mg 0.64785 0.69878 0.29828 0.0
C88 C 0.66 0.70598 0.3512 0.0
C89 C 0.69303 0.67764 0.33204 0.0
O90 O 0.69031 0.67548 0.31052 0.0
O91 O 0.65532 0.67014 0.32216 0.0
O92 O 0.63867 0.67468 0.30771 0.0
O93 O 0.69248 0.71437 0.31042 0.0
O94 O 0.67002 0.70282 0.29735 0.0
C95 C 0.64233 0.66596 0.31616 0.0
C96 C 0.6825 0.7145 0.2982 0.0
O97 O 0.68809 0.68457 0.34277 0.0
Mg98 Mg 0.3105 0.9759 0.38758 0.0
O99 O 0.29261 0.96578 0.36073 0.0
O100 O 0.27194 0.96141 0.37554 0.0
Mg101 Mg 0.2769 0.96916 0.41211 0.0
C102 C 0.27909 0.96099 0.35907 0.0
C103 C 0.32669 0.97224 0.34805 0.0
O104 O 0.31535 0.95908 0.34836 0.0
O105 O 0.31117 0.99766 0.38517 0.0
O106 O 0.29106 0.9932 0.40212 0.0
O107 O 0.30534 0.95365 0.39691 0.0
O108 O 0.29556 0.96571 0.41223 0.0
C109 C 0.30271 0.00188 0.39249 0.0
C110 C 0.29618 0.95388 0.4104 0.0
O111 O 0.32759 0.98202 0.36162 0.0
Mg112 Mg 0.03209 0.32666 0.31614 0.0
O113 O 0.04789 0.33127 0.34527 0.0
O114 O 0.07 0.3475 0.33481 0.0
Mg115 Mg 0.06823 0.35335 0.29889 0.0
C116 C 0.06141 0.33914 0.3493 0.0
C117 C 0.00288 0.30291 0.33172 0.0
O118 O 0.00375 0.29794 0.312 0.0
O119 O 0.03326 0.34855 0.32229 0.0
O120 O 0.05499 0.364 0.30949 0.0
O121 O 0.03618 0.30914 0.30325 0.0
O122 O 0.04832 0.33224 0.29373 0.0
C123 C 0.04305 0.36145 0.31766 0.0
C124 C 0.04654 0.31929 0.29232 0.0
O125 O 0.01322 0.31511 0.3389 0.0
Mg126 Mg 0.66804 0.97498 0.36996 0.0
O127 O 0.67495 0.96576 0.34063 0.0
O128 O 0.69336 0.96335 0.35358 0.0
Mg129 Mg 0.69849 0.9711 0.38993 0.0
C130 C 0.68453 0.96206 0.33799 0.0
C131 C 0.64056 0.97167 0.34585 0.0
O132 O 0.63517 0.95914 0.35586 0.0
O133 O 0.68772 0.99756 0.36571 0.0
O134 O 0.70532 0.99462 0.38055 0.0
O135 O 0.6531 0.95238 0.38184 0.0
O136 O 0.67602 0.96563 0.39207 0.0
C137 C 0.70087 0.00265 0.3719 0.0
C138 C 0.66411 0.95344 0.39267 0.0
O139 O 0.65407 0.98049 0.34747 0.0
Mg140 Mg 0.02765 0.70392 0.31518 0.0
O141 O 0.04561 0.71275 0.34212 0.0
O142 O 0.06557 0.71606 0.32572 0.0
Mg143 Mg 0.06037 0.70952 0.28877 0.0
C144 C 0.05897 0.71662 0.34285 0.0
C145 C 0.99766 0.6908 0.33172 0.0
O146 O 0.9963 0.68854 0.31006 0.0
O147 O 0.02615 0.68174 0.31644 0.0
O148 O 0.0452 0.6853 0.29698 0.0
O149 O 0.03327 0.72652 0.30626 0.0
O150 O 0.04267 0.71422 0.29088 0.0
C151 C 0.03377 0.67702 0.3074 0.0
C152 C 0.04228 0.72617 0.29257 0.0
O153 O 0.01024 0.69731 0.34059 0.0
Mg154 Mg 0.30527 0.35268 0.37652 0.0
O155 O 0.29068 0.34861 0.34599 0.0
O156 O 0.26897 0.32948 0.35209 0.0
Mg157 Mg 0.2695 0.32219 0.38752 0.0
C158 C 0.27773 0.3396 0.33971 0.0
C159 C 0.33722 0.37332 0.36581 0.0
O160 O 0.33819 0.37233 0.38741 0.0
O161 O 0.30676 0.3324 0.36845 0.0
O162 O 0.28512 0.31421 0.37741 0.0
O163 O 0.29865 0.3679 0.39082 0.0
O164 O 0.28761 0.34419 0.3967 0.0
C165 C 0.2979 0.31883 0.37075 0.0
C166 C 0.28819 0.35656 0.39971 0.0
O167 O 0.32488 0.36657 0.35614 0.0
Mg168 Mg 0.33977 0.02884 0.65093 0.0
O169 O 0.33199 0.03667 0.68085 0.0
O170 O 0.31352 0.03904 0.66825 0.0
Mg171 Mg 0.31018 0.03386 0.63093 0.0
C172 C 0.32199 0.0397 0.68395 0.0
C173 C 0.36057 0.01838 0.66205 0.0
O174 O 0.35995 0.01857 0.64025 0.0
O175 O 0.3199 0.00606 0.65195 0.0
O176 O 0.30257 0.00979 0.63811 0.0
O177 O 0.3551 0.05198 0.6428 0.0
O178 O 0.33276 0.03925 0.62934 0.0
C179 C 0.30682 0.00133 0.64574 0.0
C180 C 0.34471 0.05149 0.63084 0.0
O181 O 0.35292 0.0222 0.67306 0.0
Mg182 Mg 0.97287 0.30949 0.7197 0.0
O183 O 0.95706 0.29856 0.69026 0.0
O184 O 0.93597 0.29658 0.69854 0.0
Mg185 Mg 0.93845 0.30655 0.73357 0.0
C186 C 0.94397 0.29453 0.68522 0.0
C187 C 0.99064 0.30222 0.68684 0.0
O188 O 0.9788 0.28944 0.68725 0.0
O189 O 0.97571 0.33161 0.71089 0.0
O190 O 0.95495 0.32948 0.72185 0.0
O191 O 0.96509 0.28769 0.73445 0.0
O192 O 0.95585 0.30188 0.7413 0.0
C193 C 0.96752 0.33699 0.71398 0.0
C194 C 0.9554 0.28961 0.74397 0.0
O195 O 0.99147 0.31286 0.69821 0.0
Mg196 Mg 0.70388 0.66226 0.65798 0.0
O197 O 0.7206 0.6715 0.68668 0.0
O198 O 0.74125 0.68896 0.67311 0.0
Mg199 Mg 0.73758 0.69104 0.63613 0.0
C200 C 0.73386 0.68128 0.68916 0.0
C201 C 0.67558 0.63807 0.67406 0.0
O202 O 0.67663 0.63376 0.65393 0.0
O203 O 0.70159 0.68239 0.65992 0.0
O204 O 0.72171 0.69916 0.64421 0.0
O205 O 0.7106 0.64614 0.64869 0.0
O206 O 0.71998 0.66822 0.6351 0.0
C207 C 0.70956 0.69525 0.65291 0.0
C208 C 0.7199 0.65602 0.63605 0.0
O209 O 0.68569 0.65025 0.68175 0.0
Mg210 Mg 0.33568 0.31057 0.70053 0.0
O211 O 0.34066 0.30102 0.66931 0.0
O212 O 0.35998 0.29904 0.67823 0.0
Mg213 Mg 0.36798 0.30812 0.71335 0.0
C214 C 0.35 0.29731 0.66452 0.0
C215 C 0.30672 0.30548 0.67848 0.0
O216 O 0.30228 0.2924 0.68614 0.0
O217 O 0.35434 0.3332 0.69363 0.0
O218 O 0.37356 0.33111 0.70243 0.0
O219 O 0.32229 0.28822 0.71405 0.0
O220 O 0.34573 0.30216 0.72035 0.0
C221 C 0.36795 0.33861 0.69578 0.0
C222 C 0.33415 0.28981 0.72263 0.0
O223 O 0.31995 0.31515 0.681 0.0
Mg224 Mg 0.68917 0.0313 0.64696 0.0
O225 O 0.70685 0.04015 0.67447 0.0
O226 O 0.72699 0.04313 0.65931 0.0
Mg227 Mg 0.72211 0.03597 0.62261 0.0
C228 C 0.72018 0.04395 0.67597 0.0
C229 C 0.65952 0.02201 0.6629 0.0
O230 O 0.65849 0.0219 0.64111 0.0
O231 O 0.68688 0.00873 0.64904 0.0
O232 O 0.70677 0.01219 0.63244 0.0
O233 O 0.69578 0.05405 0.63741 0.0
O234 O 0.70448 0.04083 0.62287 0.0
C235 C 0.69488 0.0039 0.6418 0.0
C236 C 0.70465 0.05308 0.62411 0.0
O237 O 0.67168 0.02564 0.67197 0.0
Mg238 Mg 0.97227 0.68813 0.7067 0.0
O239 O 0.95481 0.67952 0.67889 0.0
O240 O 0.93379 0.66449 0.69441 0.0
Mg241 Mg 0.93772 0.66347 0.73161 0.0
C242 C 0.94118 0.67085 0.67752 0.0
C243 C 0.99892 0.71048 0.68134 0.0
O244 O 0.99685 0.71924 0.69452 0.0
O245 O 0.97125 0.66612 0.70638 0.0
O246 O 0.9508 0.65215 0.72388 0.0
O247 O 0.96874 0.70687 0.71508 0.0
O248 O 0.95693 0.68509 0.72967 0.0
C249 C 0.9622 0.65398 0.71462 0.0
C250 C 0.95876 0.698 0.72794 0.0
O251 O 0.99022 0.6968 0.68178 0.0
H252 H 0.25333 0.37734 0.14937 0.0
N253 N 0.22976 0.3586 0.12622 0.0
H254 H 0.26113 0.37423 0.18646 0.0
H255 H 0.21388 0.33611 0.15459 0.0
H256 H 0.22145 0.33338 0.19172 0.0
H257 H 0.23146 0.33368 0.12251 0.0
H258 H 0.24832 0.33036 0.0997 0.0
H259 H 0.24615 0.37601 0.09495 0.0
H260 H 0.26317 0.37289 0.07228 0.0
H261 H 0.21817 0.37558 0.12417 0.0
H262 H 0.20804 0.33095 0.11449 0.0
H263 H 0.19296 0.36826 0.11662 0.0
H264 H 0.18274 0.32333 0.1083 0.0
H265 H 0.12325 0.34123 0.14422 0.0
H266 H 0.11267 0.33484 0.18058 0.0
H267 H 0.10171 0.2901 0.1684 0.0
H268 H 0.11321 0.29675 0.13207 0.0
H269 H 0.09956 0.30632 0.09201 0.0
H270 H 0.08387 0.31435 0.07506 0.0
H271 H 0.11665 0.35929 0.08793 0.0
H272 H 0.13223 0.35125 0.10508 0.0
H273 H 0.14588 0.34753 0.1351 0.0
H274 H 0.17139 0.35636 0.13508 0.0
H275 H 0.16434 0.32293 0.08599 0.0
N276 N 0.12458 0.32269 0.11325 0.0
H277 H 0.13835 0.31349 0.08719 0.0
C278 C 0.23298 0.35714 0.14911 0.0
C279 C 0.24623 0.36782 0.15865 0.0
C280 C 0.25069 0.36602 0.17969 0.0
C281 C 0.24183 0.3536 0.19174 0.0
C282 C 0.22838 0.34309 0.18266 0.0
C283 C 0.22404 0.34472 0.16139 0.0
C284 C 0.23761 0.35516 0.11039 0.0
C285 C 0.23807 0.34211 0.11115 0.0
C286 C 0.2478 0.34028 0.09826 0.0
C287 C 0.25715 0.35141 0.08434 0.0
C288 C 0.25602 0.36404 0.08266 0.0
C289 C 0.24634 0.36588 0.0956 0.0
C290 C 0.21496 0.35385 0.12022 0.0
C291 C 0.21047 0.36419 0.12041 0.0
C292 C 0.19603 0.35994 0.11626 0.0
C293 C 0.18568 0.34514 0.11217 0.0
C294 C 0.19035 0.33484 0.11114 0.0
C295 C 0.20486 0.33917 0.11491 0.0
C296 C 0.11937 0.3195 0.13555 0.0
C297 C 0.11916 0.33017 0.14957 0.0
C298 C 0.11305 0.32651 0.17035 0.0
C299 C 0.10663 0.31206 0.17729 0.0
C300 C 0.10683 0.30136 0.16344 0.0
C301 C 0.11333 0.30513 0.1428 0.0
C302 C 0.11708 0.32808 0.09974 0.0
C303 C 0.10349 0.3179 0.09069 0.0
C304 C 0.0945 0.32249 0.08124 0.0
C305 C 0.09902 0.33742 0.08041 0.0
C306 C 0.11295 0.34771 0.08832 0.0
C307 C 0.12188 0.34309 0.09808 0.0
C308 C 0.14001 0.32957 0.11137 0.0
C309 C 0.14965 0.34201 0.12427 0.0
C310 C 0.16444 0.34724 0.12402 0.0
C311 C 0.17004 0.34034 0.11062 0.0
C312 C 0.16043 0.32836 0.09687 0.0
C313 C 0.14559 0.32302 0.09735 0.0
H314 H 0.71638 0.80205 0.13671 0.0
N315 N 0.6958 0.80795 0.12571 0.0
H316 H 0.71854 0.79089 0.17077 0.0
H317 H 0.68064 0.80446 0.16377 0.0
H318 H 0.68232 0.79288 0.19716 0.0
H319 H 0.66745 0.78799 0.13298 0.0
H320 H 0.65317 0.76463 0.11329 0.0
H321 H 0.70191 0.79969 0.08745 0.0
H322 H 0.68754 0.7761 0.06758 0.0
H323 H 0.71711 0.83377 0.11466 0.0
H324 H 0.6727 0.81189 0.13341 0.0
H325 H 0.71717 0.85687 0.11323 0.0
H326 H 0.67291 0.83491 0.13375 0.0
H327 H 0.71077 0.93069 0.14236 0.0
H328 H 0.70886 0.94074 0.17804 0.0
H329 H 0.68019 0.89696 0.19985 0.0
H330 H 0.68138 0.88717 0.16358 0.0
H331 H 0.66788 0.8946 0.13259 0.0
H332 H 0.65405 0.9027 0.11045 0.0
H333 H 0.68991 0.92501 0.06716 0.0
H334 H 0.70384 0.91693 0.08962 0.0
H335 H 0.71789 0.89828 0.13668 0.0
H336 H 0.71762 0.87508 0.1358 0.0
H337 H 0.67304 0.85309 0.11288 0.0
N338 N 0.69631 0.90305 0.12785 0.0
H339 H 0.67313 0.87598 0.11533 0.0
C340 C 0.69835 0.80404 0.14748 0.0
C341 C 0.70919 0.80044 0.15015 0.0
C342 C 0.7103 0.79394 0.16952 0.0
C343 C 0.70045 0.79077 0.18658 0.0
C344 C 0.69016 0.79524 0.18447 0.0
C345 C 0.68914 0.80184 0.16516 0.0
C346 C 0.68588 0.79565 0.11174 0.0
C347 C 0.67182 0.7858 0.11835 0.0
C348 C 0.66365 0.77235 0.10714 0.0
C349 C 0.66932 0.7685 0.08908 0.0
C350 C 0.68287 0.77882 0.08137 0.0
C351 C 0.69109 0.79227 0.09269 0.0
C352 C 0.69504 0.82113 0.12438 0.0
C353 C 0.70741 0.834 0.11863 0.0
C354 C 0.70744 0.84721 0.11806 0.0
C355 C 0.69509 0.84789 0.12364 0.0
C356 C 0.68259 0.83487 0.12908 0.0
C357 C 0.68251 0.82162 0.1292 0.0
C358 C 0.6964 0.90823 0.15027 0.0
C359 C 0.70423 0.92329 0.15499 0.0
C360 C 0.70314 0.92899 0.17548 0.0
C361 C 0.69434 0.9197 0.19197 0.0
C362 C 0.68686 0.90451 0.18748 0.0
C363 C 0.68772 0.89884 0.16679 0.0
C364 C 0.68701 0.90534 0.11286 0.0
C365 C 0.67271 0.901 0.11813 0.0
C366 C 0.66481 0.90562 0.10548 0.0
C367 C 0.67099 0.91458 0.08728 0.0
C368 C 0.68488 0.91804 0.08106 0.0
C369 C 0.69284 0.91348 0.09385 0.0
C370 C 0.69567 0.88908 0.12597 0.0
C371 C 0.70808 0.88843 0.13146 0.0
C372 C 0.70791 0.87514 0.13075 0.0
C373 C 0.69531 0.86211 0.12414 0.0
C374 C 0.68289 0.8628 0.11841 0.0
C375 C 0.68299 0.87605 0.11957 0.0
H376 H 0.12733 0.80767 0.15166 0.0
N377 N 0.11618 0.81434 0.11526 0.0
H378 H 0.11521 0.79783 0.18608 0.0
H379 H 0.09149 0.81204 0.12816 0.0
H380 H 0.07932 0.80242 0.16314 0.0
H381 H 0.10193 0.81028 0.07663 0.0
H382 H 0.08835 0.78728 0.0548 0.0
H383 H 0.11735 0.78923 0.12112 0.0
H384 H 0.10413 0.76659 0.09945 0.0
H385 H 0.13867 0.80904 0.10695 0.0
H386 H 0.12881 0.84271 0.12502 0.0
H387 H 0.16394 0.82581 0.11473 0.0
H388 H 0.15436 0.85958 0.13335 0.0
H389 H 0.23603 0.87831 0.18801 0.0
H390 H 0.24322 0.89172 0.2237 0.0
H391 H 0.21721 0.91124 0.2079 0.0
H392 H 0.2103 0.89796 0.17207 0.0
H393 H 0.22822 0.90772 0.14232 0.0
H394 H 0.24699 0.92178 0.11616 0.0
H395 H 0.25344 0.88497 0.10537 0.0
H396 H 0.23484 0.87108 0.13216 0.0
H397 H 0.20314 0.85174 0.16144 0.0
H398 H 0.17814 0.83614 0.14855 0.0
H399 H 0.17857 0.87345 0.11951 0.0
N400 N 0.21994 0.88006 0.15579 0.0
H401 H 0.20343 0.88899 0.13299 0.0
C402 C 0.11028 0.81059 0.13716 0.0
C403 C 0.117 0.80687 0.15409 0.0
C404 C 0.11006 0.80129 0.17393 0.0
C405 C 0.09627 0.79929 0.17735 0.0
C406 C 0.08987 0.80368 0.16089 0.0
C407 C 0.09683 0.80925 0.14099 0.0
C408 C 0.11066 0.80159 0.10054 0.0
C409 C 0.10271 0.80086 0.08133 0.0
C410 C 0.09498 0.78774 0.06891 0.0
C411 C 0.09503 0.7751 0.07564 0.0
C412 C 0.10368 0.77608 0.09409 0.0
C413 C 0.11134 0.78911 0.10645 0.0
C414 C 0.13156 0.82449 0.11564 0.0
C415 C 0.14179 0.82002 0.11237 0.0
C416 C 0.1564 0.82967 0.11699 0.0
C417 C 0.16116 0.84395 0.12509 0.0
C418 C 0.15109 0.84868 0.12707 0.0
C419 C 0.13648 0.83905 0.12232 0.0
C420 C 0.22264 0.88707 0.17744 0.0
C421 C 0.23174 0.88533 0.19244 0.0
C422 C 0.23578 0.89297 0.21283 0.0
C423 C 0.23077 0.90255 0.21867 0.0
C424 C 0.22136 0.90405 0.2038 0.0
C425 C 0.21732 0.89637 0.18336 0.0
C426 C 0.23022 0.88834 0.13929 0.0
C427 C 0.2336 0.90263 0.13429 0.0
C428 C 0.2443 0.91065 0.1192 0.0
C429 C 0.25177 0.90452 0.10877 0.0
C430 C 0.24806 0.89009 0.1134 0.0
C431 C 0.2374 0.88211 0.12853 0.0
C432 C 0.20514 0.87145 0.1482 0.0
C433 C 0.19778 0.85651 0.15233 0.0
C434 C 0.18357 0.84762 0.14474 0.0
C435 C 0.17639 0.85351 0.13275 0.0
C436 C 0.18376 0.86858 0.12877 0.0
C437 C 0.19801 0.87748 0.13643 0.0
H438 H 0.36977 0.22819 0.87004 0.0
N439 N 0.3487 0.20666 0.89153 0.0
H440 H 0.36754 0.24 0.83672 0.0
H441 H 0.32438 0.1966 0.86444 0.0
H442 H 0.32221 0.20817 0.83116 0.0
H443 H 0.32574 0.21016 0.9013 0.0
H444 H 0.32666 0.22926 0.92572 0.0
H445 H 0.36925 0.22276 0.9215 0.0
H446 H 0.3704 0.24216 0.94566 0.0
H447 H 0.36321 0.19254 0.89085 0.0
H448 H 0.32057 0.18597 0.899 0.0
H449 H 0.35378 0.16632 0.89322 0.0
H450 H 0.31079 0.15972 0.89942 0.0
H451 H 0.32854 0.09143 0.88097 0.0
H452 H 0.32997 0.08056 0.84588 0.0
H453 H 0.2924 0.08112 0.82061 0.0
H454 H 0.2905 0.09151 0.85644 0.0
H455 H 0.29038 0.07316 0.91167 0.0
H456 H 0.2971 0.06087 0.93964 0.0
H457 H 0.34004 0.09829 0.94433 0.0
H458 H 0.33339 0.11041 0.91645 0.0
H459 H 0.33177 0.11898 0.87153 0.0
H460 H 0.34118 0.14506 0.87253 0.0
H461 H 0.30802 0.13956 0.91778 0.0
N462 N 0.30771 0.09824 0.89249 0.0
H463 H 0.29789 0.11311 0.91512 0.0
C464 C 0.34735 0.21147 0.8698 0.0
C465 C 0.35944 0.22356 0.86131 0.0
C466 C 0.35813 0.23032 0.84241 0.0
C467 C 0.34469 0.225 0.83149 0.0
C468 C 0.33272 0.2124 0.8392 0.0
C469 C 0.33398 0.20576 0.8583 0.0
C470 C 0.3475 0.21506 0.90958 0.0
C471 C 0.33532 0.21667 0.91158 0.0
C472 C 0.33591 0.22772 0.9254 0.0
C473 C 0.34868 0.23736 0.93736 0.0
C474 C 0.36037 0.23487 0.9368 0.0
C475 C 0.35976 0.22381 0.923 0.0
C476 C 0.34263 0.19121 0.8943 0.0
C477 C 0.35178 0.18538 0.89298 0.0
C478 C 0.3463 0.17035 0.89408 0.0
C479 C 0.33142 0.16073 0.89605 0.0
C480 C 0.32231 0.16669 0.89805 0.0
C481 C 0.32788 0.18179 0.89751 0.0
C482 C 0.30912 0.09202 0.87167 0.0
C483 C 0.3204 0.08904 0.8682 0.0
C484 C 0.32129 0.08287 0.84806 0.0
C485 C 0.31124 0.07994 0.83074 0.0
C486 C 0.30024 0.08327 0.83384 0.0
C487 C 0.29913 0.08915 0.85422 0.0
C488 C 0.31129 0.09265 0.91187 0.0
C489 C 0.30111 0.07884 0.91921 0.0
C490 C 0.30497 0.07185 0.9351 0.0
C491 C 0.3191 0.07863 0.94406 0.0
C492 C 0.32902 0.09289 0.93791 0.0
C493 C 0.32521 0.09982 0.92188 0.0
C494 C 0.31382 0.11393 0.89291 0.0
C495 C 0.32632 0.12327 0.88139 0.0
C496 C 0.33189 0.13835 0.88231 0.0
C497 C 0.32544 0.14459 0.89529 0.0
C498 C 0.31314 0.13523 0.9072 0.0
C499 C 0.30737 0.12009 0.90585 0.0
H500 H 0.76829 0.10469 0.86719 0.0
N501 N 0.78843 0.10062 0.88978 0.0
H502 H 0.75873 0.09588 0.8297 0.0
H503 H 0.79674 0.08711 0.86097 0.0
H504 H 0.7871 0.07818 0.82308 0.0
H505 H 0.77615 0.07428 0.907 0.0
H506 H 0.75488 0.06295 0.93002 0.0
H507 H 0.77437 0.11412 0.90716 0.0
H508 H 0.75348 0.10309 0.9306 0.0
H509 H 0.7911 0.12603 0.87324 0.0
H510 H 0.8113 0.10909 0.91672 0.0
H511 H 0.81005 0.15069 0.88229 0.0
H512 H 0.8303 0.13411 0.92657 0.0
H513 H 0.8598 0.21857 0.88412 0.0
H514 H 0.87325 0.22932 0.85043 0.0
H515 H 0.90086 0.21156 0.86548 0.0
H516 H 0.88741 0.20084 0.89879 0.0
H517 H 0.88724 0.20259 0.93688 0.0
H518 H 0.90547 0.22178 0.96166 0.0
H519 H 0.88081 0.24386 0.9617 0.0
H520 H 0.86296 0.22497 0.93621 0.0
H521 H 0.83751 0.19385 0.91626 0.0
H522 H 0.81849 0.16829 0.9123 0.0
H523 H 0.85078 0.15523 0.91141 0.0
N524 N 0.86559 0.20439 0.9149 0.0
H525 H 0.86963 0.18078 0.91638 0.0
C526 C 0.78338 0.09665 0.86694 0.0
C527 C 0.77266 0.09913 0.85768 0.0
C528 C 0.76719 0.0941 0.83615 0.0
C529 C 0.77217 0.08635 0.82344 0.0
C530 C 0.783 0.08404 0.83256 0.0
C531 C 0.78858 0.0892 0.85408 0.0
C532 C 0.77694 0.09502 0.90542 0.0
C533 C 0.77134 0.08066 0.91239 0.0
C534 C 0.75922 0.07424 0.92557 0.0
C535 C 0.75245 0.08211 0.93207 0.0
C536 C 0.75832 0.09666 0.92561 0.0
C537 C 0.7704 0.10305 0.91236 0.0
C538 C 0.79979 0.11553 0.89413 0.0
C539 C 0.7996 0.12752 0.8847 0.0
C540 C 0.81043 0.14176 0.89016 0.0
C541 C 0.82166 0.14444 0.90535 0.0
C542 C 0.82189 0.13245 0.91469 0.0
C543 C 0.81104 0.11817 0.90912 0.0
C544 C 0.87264 0.20904 0.89406 0.0
C545 C 0.8686 0.21681 0.87987 0.0
C546 C 0.87623 0.22287 0.86066 0.0
C547 C 0.88813 0.22132 0.85548 0.0
C548 C 0.89181 0.21302 0.86924 0.0
C549 C 0.88409 0.20687 0.88831 0.0
C550 C 0.87388 0.21256 0.93433 0.0
C551 C 0.88557 0.21136 0.94257 0.0
C552 C 0.89597 0.22231 0.95681 0.0
C553 C 0.89461 0.23436 0.96342 0.0
C554 C 0.8821 0.23466 0.95702 0.0
C555 C 0.87189 0.22388 0.94248 0.0
C556 C 0.85492 0.18923 0.91641 0.0
C557 C 0.84041 0.18541 0.91574 0.0
C558 C 0.8296 0.17082 0.91318 0.0
C559 C 0.83311 0.15971 0.91101 0.0
C560 C 0.84768 0.16349 0.91302 0.0
C561 C 0.85851 0.17815 0.91576 0.0
H562 H 0.7838 0.71647 0.89051 0.0
N563 N 0.79653 0.70308 0.90888 0.0
H564 H 0.77391 0.71322 0.85272 0.0
H565 H 0.79885 0.68647 0.87521 0.0
H566 H 0.78999 0.68397 0.8371 0.0
H567 H 0.77682 0.67386 0.90463 0.0
H568 H 0.75541 0.66043 0.92674 0.0
H569 H 0.78971 0.7127 0.94506 0.0
H570 H 0.76818 0.6994 0.96713 0.0
H571 H 0.82233 0.72687 0.91057 0.0
H572 H 0.80113 0.68016 0.91694 0.0
H573 H 0.84575 0.72846 0.91555 0.0
H574 H 0.8244 0.68167 0.92258 0.0
H575 H 0.90656 0.73461 0.89325 0.0
H576 H 0.91665 0.73502 0.85667 0.0
H577 H 0.9011 0.68879 0.86008 0.0
H578 H 0.89092 0.68834 0.89605 0.0
H579 H 0.87893 0.68369 0.9343 0.0
H580 H 0.88925 0.67187 0.95634 0.0
H581 H 0.92947 0.71274 0.96261 0.0
H582 H 0.91893 0.72457 0.94093 0.0
H583 H 0.88543 0.72852 0.94162 0.0
H584 H 0.86138 0.72582 0.94204 0.0
H585 H 0.84491 0.68663 0.90068 0.0
N586 N 0.89353 0.71196 0.91981 0.0
H587 H 0.86874 0.68917 0.90093 0.0
C588 C 0.79221 0.70191 0.88575 0.0
C589 C 0.78527 0.70946 0.87882 0.0
C590 C 0.7797 0.70763 0.85713 0.0
C591 C 0.78115 0.69834 0.84169 0.0
C592 C 0.78842 0.69102 0.84855 0.0
C593 C 0.79372 0.69262 0.87039 0.0
C594 C 0.78485 0.69434 0.92324 0.0
C595 C 0.77515 0.67945 0.91849 0.0
C596 C 0.76286 0.67181 0.93103 0.0
C597 C 0.76005 0.67889 0.94856 0.0
C598 C 0.7701 0.69359 0.95387 0.0
C599 C 0.78237 0.70122 0.94129 0.0
C600 C 0.80999 0.70349 0.91347 0.0
C601 C 0.82274 0.717 0.9134 0.0
C602 C 0.83609 0.71787 0.91638 0.0
C603 C 0.83696 0.70518 0.91952 0.0
C604 C 0.82412 0.69163 0.91999 0.0
C605 C 0.81076 0.69077 0.91695 0.0
C606 C 0.89819 0.71156 0.89758 0.0
C607 C 0.9052 0.72456 0.88591 0.0
C608 C 0.91089 0.72477 0.86509 0.0
C609 C 0.90976 0.71196 0.8558 0.0
C610 C 0.90226 0.69884 0.86708 0.0
C611 C 0.89644 0.6986 0.88768 0.0
C612 C 0.89819 0.70513 0.93597 0.0
C613 C 0.88983 0.69024 0.94086 0.0
C614 C 0.89581 0.68342 0.95331 0.0
C615 C 0.91023 0.69132 0.96107 0.0
C616 C 0.91829 0.70635 0.95712 0.0
C617 C 0.9123 0.71315 0.94473 0.0
C618 C 0.87896 0.70918 0.92118 0.0
C619 C 0.87655 0.71926 0.93293 0.0
C620 C 0.86284 0.71775 0.93299 0.0
C621 C 0.85123 0.70608 0.92122 0.0
C622 C 0.85356 0.69567 0.91009 0.0
C623 C 0.86727 0.69718 0.91009 0.0
H624 H 0.75006 0.60575 0.46572 0.0
N625 N 0.77413 0.62346 0.4452 0.0
H626 H 0.74281 0.60949 0.50248 0.0
H627 H 0.79068 0.64571 0.47502 0.0
H628 H 0.7834 0.64975 0.51148 0.0
H629 H 0.78219 0.65242 0.44214 0.0
H630 H 0.76964 0.66207 0.42037 0.0
H631 H 0.75468 0.60957 0.41268 0.0
H632 H 0.74226 0.61924 0.39023 0.0
H633 H 0.7814 0.60469 0.46029 0.0
H634 H 0.79869 0.6452 0.42578 0.0
H635 H 0.8051 0.60714 0.46233 0.0
H636 H 0.82223 0.64719 0.42614 0.0
H637 H 0.884 0.62097 0.48322 0.0
H638 H 0.89518 0.62713 0.5204 0.0
H639 H 0.88062 0.65828 0.52953 0.0
H640 H 0.87039 0.65277 0.49211 0.0
H641 H 0.89124 0.6626 0.45997 0.0
H642 H 0.91252 0.67352 0.43701 0.0
H643 H 0.89833 0.63136 0.40521 0.0
H644 H 0.87733 0.62049 0.4288 0.0
H645 H 0.84682 0.60889 0.45425 0.0
H646 H 0.82322 0.60595 0.44552 0.0
H647 H 0.84202 0.65297 0.44841 0.0
N648 N 0.87148 0.63349 0.46167 0.0
H649 H 0.86569 0.65564 0.45487 0.0
C650 C 0.7708 0.62545 0.46763 0.0
C651 C 0.75743 0.61526 0.47581 0.0
C652 C 0.7533 0.61746 0.49671 0.0
C653 C 0.7625 0.62998 0.50979 0.0
C654 C 0.77614 0.63994 0.50189 0.0
C655 C 0.78027 0.63771 0.48098 0.0
C656 C 0.76935 0.63018 0.42907 0.0
C657 C 0.77372 0.64515 0.43052 0.0
C658 C 0.76652 0.65068 0.41799 0.0
C659 C 0.7548 0.64138 0.40378 0.0
C660 C 0.75107 0.62664 0.40133 0.0
C661 C 0.75826 0.62112 0.4139 0.0
C662 C 0.7881 0.62469 0.44306 0.0
C663 C 0.79027 0.61394 0.45264 0.0
C664 C 0.80389 0.61533 0.4536 0.0
C665 C 0.81577 0.62739 0.44438 0.0
C666 C 0.81348 0.63791 0.43388 0.0
C667 C 0.79986 0.63669 0.43345 0.0
C668 C 0.87621 0.63622 0.48474 0.0
C669 C 0.8831 0.629 0.4934 0.0
C670 C 0.88943 0.63252 0.51472 0.0
C671 C 0.88886 0.64326 0.52807 0.0
C672 C 0.88154 0.65016 0.51962 0.0
C673 C 0.87544 0.64683 0.49813 0.0
C674 C 0.8828 0.64068 0.44614 0.0
C675 C 0.89261 0.65578 0.44781 0.0
C676 C 0.90476 0.662 0.43464 0.0
C677 C 0.90723 0.65326 0.41952 0.0
C678 C 0.89691 0.63833 0.41705 0.0
C679 C 0.88485 0.63212 0.4303 0.0
C680 C 0.85789 0.63241 0.45585 0.0
C681 C 0.84578 0.61852 0.45278 0.0
C682 C 0.83227 0.6169 0.448 0.0
C683 C 0.83048 0.6292 0.44676 0.0
C684 C 0.84283 0.64319 0.44906 0.0
C685 C 0.85643 0.64477 0.45316 0.0
H686 H 0.38533 0.15293 0.48812 0.0
N687 N 0.36325 0.14794 0.46147 0.0
H688 H 0.38433 0.14117 0.52339 0.0
H689 H 0.33894 0.13113 0.48492 0.0
H690 H 0.33793 0.11983 0.52018 0.0
H691 H 0.33549 0.13219 0.44481 0.0
H692 H 0.32522 0.10879 0.42425 0.0
H693 H 0.3777 0.13686 0.44188 0.0
H694 H 0.36755 0.11358 0.42106 0.0
H695 H 0.38164 0.17187 0.44106 0.0
H696 H 0.34067 0.15199 0.47284 0.0
H697 H 0.38017 0.19395 0.43548 0.0
H698 H 0.33941 0.17409 0.46837 0.0
H699 H 0.3728 0.26745 0.46597 0.0
H700 H 0.37053 0.2773 0.50161 0.0
H701 H 0.34169 0.23338 0.52271 0.0
H702 H 0.34322 0.2238 0.48653 0.0
H703 H 0.33005 0.23069 0.45373 0.0
H704 H 0.31696 0.2396 0.4315 0.0
H705 H 0.35435 0.26361 0.39166 0.0
H706 H 0.36742 0.25454 0.41399 0.0
H707 H 0.38159 0.23662 0.45625 0.0
H708 H 0.3823 0.21392 0.45706 0.0
H709 H 0.33638 0.1894 0.44315 0.0
N710 N 0.35878 0.23984 0.45129 0.0
H711 H 0.3357 0.21204 0.44333 0.0
C712 C 0.3623 0.14316 0.48398 0.0
C713 C 0.37499 0.14604 0.49539 0.0
C714 C 0.37439 0.13928 0.5154 0.0
C715 C 0.36105 0.12964 0.52448 0.0
C716 C 0.34836 0.1274 0.51372 0.0
C717 C 0.34895 0.13396 0.49354 0.0
C718 C 0.35739 0.13621 0.44501 0.0
C719 C 0.34262 0.12842 0.43916 0.0
C720 C 0.33676 0.11506 0.42735 0.0
C721 C 0.34558 0.10929 0.42135 0.0
C722 C 0.36049 0.11768 0.42573 0.0
C723 C 0.36631 0.13101 0.43744 0.0
C724 C 0.36144 0.16034 0.45759 0.0
C725 C 0.37234 0.17229 0.44684 0.0
C726 C 0.37151 0.18492 0.44384 0.0
C727 C 0.35974 0.1859 0.4517 0.0
C728 C 0.34858 0.17371 0.46191 0.0
C729 C 0.34937 0.16103 0.46472 0.0
C730 C 0.35839 0.24493 0.47356 0.0
C731 C 0.36611 0.25998 0.47842 0.0
C732 C 0.36482 0.26557 0.49888 0.0
C733 C 0.35592 0.25617 0.51521 0.0
C734 C 0.34844 0.24101 0.51049 0.0
C735 C 0.3495 0.23546 0.48982 0.0
C736 C 0.3498 0.24204 0.43555 0.0
C737 C 0.33531 0.23747 0.43979 0.0
C738 C 0.32785 0.24264 0.42715 0.0
C739 C 0.33471 0.25244 0.41005 0.0
C740 C 0.34878 0.25601 0.40465 0.0
C741 C 0.35625 0.25087 0.41738 0.0
C742 C 0.3587 0.22616 0.44959 0.0
C743 C 0.37172 0.22633 0.45316 0.0
C744 C 0.3721 0.21333 0.45349 0.0
C745 C 0.35939 0.19977 0.45012 0.0
C746 C 0.34635 0.19961 0.44609 0.0
C747 C 0.34597 0.21264 0.44596 0.0
H748 H 0.78224 0.11987 0.47188 0.0
N749 N 0.78505 0.1444 0.45238 0.0
H750 H 0.77038 0.10952 0.50642 0.0
H751 H 0.77238 0.15456 0.47943 0.0
H752 H 0.75982 0.14368 0.51395 0.0
H753 H 0.76102 0.13735 0.42949 0.0
H754 H 0.74721 0.11587 0.40487 0.0
H755 H 0.79527 0.1273 0.43455 0.0
H756 H 0.78157 0.10593 0.40986 0.0
H757 H 0.80531 0.14037 0.47547 0.0
H758 H 0.80019 0.16932 0.43143 0.0
H759 H 0.83058 0.15751 0.47984 0.0
H760 H 0.82617 0.18629 0.43418 0.0
H761 H 0.90561 0.21114 0.50998 0.0
H762 H 0.91352 0.22417 0.54606 0.0
H763 H 0.89 0.24648 0.53134 0.0
H764 H 0.88241 0.2337 0.49544 0.0
H765 H 0.89456 0.24031 0.46161 0.0
H766 H 0.91274 0.25533 0.43522 0.0
H767 H 0.92496 0.22222 0.42857 0.0
H768 H 0.90715 0.2076 0.45587 0.0
H769 H 0.87788 0.18574 0.47546 0.0
H770 H 0.85288 0.16807 0.46544 0.0
H771 H 0.84416 0.20355 0.45739 0.0
N772 N 0.89023 0.21451 0.47814 0.0
H773 H 0.86946 0.221 0.46515 0.0
C774 C 0.77844 0.13823 0.47317 0.0
C775 C 0.77767 0.12538 0.48103 0.0
C776 C 0.7709 0.11945 0.50081 0.0
C777 C 0.7644 0.12595 0.51282 0.0
C778 C 0.76493 0.13862 0.50497 0.0
C779 C 0.77206 0.1448 0.48537 0.0
C780 C 0.77912 0.13396 0.43397 0.0
C781 C 0.76577 0.13081 0.42467 0.0
C782 C 0.75788 0.11853 0.41073 0.0
C783 C 0.7633 0.10921 0.40564 0.0
C784 C 0.77721 0.11301 0.41339 0.0
C785 C 0.78504 0.12524 0.42755 0.0
C786 C 0.80056 0.15366 0.45348 0.0
C787 C 0.80954 0.15034 0.46647 0.0
C788 C 0.82427 0.16019 0.4687 0.0
C789 C 0.8306 0.17345 0.45747 0.0
C790 C 0.82172 0.17641 0.44358 0.0
C791 C 0.80686 0.16665 0.44177 0.0
C792 C 0.89341 0.22135 0.49998 0.0
C793 C 0.90204 0.21872 0.51473 0.0
C794 C 0.9065 0.22613 0.53531 0.0
C795 C 0.90242 0.23641 0.54151 0.0
C796 C 0.89347 0.23878 0.52692 0.0
C797 C 0.88902 0.23134 0.50635 0.0
C798 C 0.89969 0.22291 0.4609 0.0
C799 C 0.90111 0.23626 0.45445 0.0
C800 C 0.91146 0.24481 0.43919 0.0
C801 C 0.92044 0.24007 0.42995 0.0
C802 C 0.91847 0.22637 0.43574 0.0
C803 C 0.90824 0.21794 0.45115 0.0
C804 C 0.87543 0.20461 0.47181 0.0
C805 C 0.87052 0.18963 0.47139 0.0
C806 C 0.85617 0.17956 0.46583 0.0
C807 C 0.84626 0.18427 0.46107 0.0
C808 C 0.85137 0.19941 0.46084 0.0
C809 C 0.86586 0.20948 0.46581 0.0
H810 H 0.00541 0.55947 0.22334 0.0
N811 N 0.98142 0.53443 0.2355 0.0
H812 H 0.00825 0.57228 0.18882 0.0
H813 H 0.9639 0.52476 0.19961 0.0
H814 H 0.96673 0.53761 0.16479 0.0
H815 H 0.96733 0.54886 0.24083 0.0
H816 H 0.97461 0.57058 0.26356 0.0
H817 H 0.00078 0.54337 0.27214 0.0
H818 H 0.00743 0.56448 0.29611 0.0
H819 H 0.00958 0.5408 0.23607 0.0
H820 H 0.96566 0.50565 0.23833 0.0
H821 H 0.01798 0.52332 0.23551 0.0
H822 H 0.97384 0.48789 0.23619 0.0
H823 H 0.03588 0.46223 0.19757 0.0
H824 H 0.03112 0.44811 0.16267 0.0
H825 H 0.9857 0.433 0.16764 0.0
H826 H 0.99059 0.44725 0.20248 0.0
H827 H 0.99403 0.43705 0.23626 0.0
H828 H 0.99507 0.42043 0.2628 0.0
H829 H 0.03935 0.45234 0.27951 0.0
H830 H 0.03824 0.469 0.25275 0.0
H831 H 0.02785 0.48951 0.20748 0.0
H832 H 0.01934 0.50688 0.21148 0.0
H833 H 0.98526 0.47667 0.25299 0.0
N834 N 0.01682 0.46317 0.22403 0.0
H835 H 0.99322 0.45905 0.24752 0.0
C836 C 0.98433 0.54116 0.2141 0.0
C837 C 0.99705 0.55443 0.21049 0.0
C838 C 0.99863 0.56179 0.19083 0.0
C839 C 0.98765 0.55598 0.17429 0.0
C840 C 0.97537 0.54228 0.17727 0.0
C841 C 0.97372 0.53497 0.19709 0.0
C842 C 0.98383 0.54472 0.25366 0.0
C843 C 0.97598 0.55208 0.25309 0.0
C844 C 0.98014 0.56454 0.26638 0.0
C845 C 0.99196 0.56972 0.28147 0.0
C846 C 0.99872 0.56131 0.284 0.0
C847 C 0.99482 0.54904 0.27015 0.0
C848 C 0.98693 0.52453 0.23768 0.0
C849 C 0.00172 0.52929 0.23662 0.0
C850 C 0.00651 0.51921 0.23597 0.0
C851 C 0.99662 0.50409 0.23555 0.0
C852 C 0.98184 0.49939 0.23687 0.0
C853 C 0.9771 0.50952 0.23804 0.0
C854 C 0.01365 0.45578 0.20258 0.0
C855 C 0.02494 0.45602 0.19092 0.0
C856 C 0.0222 0.44797 0.17103 0.0
C857 C 0.00803 0.4394 0.16248 0.0
C858 C 0.9967 0.43937 0.17397 0.0
C859 C 0.99949 0.44756 0.1938 0.0
C860 C 0.01619 0.45425 0.24231 0.0
C861 C 0.00389 0.44063 0.24589 0.0
C862 C 0.00447 0.43113 0.2611 0.0
C863 C 0.01732 0.43505 0.27305 0.0
C864 C 0.02927 0.44908 0.27065 0.0
C865 C 0.02868 0.45857 0.25534 0.0
C866 C 0.01137 0.47305 0.2273 0.0
C867 C 0.01852 0.48667 0.21739 0.0
C868 C 0.01371 0.49665 0.21994 0.0
C869 C 0.00168 0.49334 0.23285 0.0
C870 C 0.99446 0.4796 0.24275 0.0
C871 C 0.99913 0.4695 0.23979 0.0
H872 H 0.58212 0.52883 0.23814 0.0
N873 N 0.55572 0.5204 0.25184 0.0
H874 H 0.59307 0.54161 0.20412 0.0
H875 H 0.54158 0.52462 0.21702 0.0
H876 H 0.55251 0.53779 0.1834 0.0
H877 H 0.54506 0.5392 0.2502 0.0
H878 H 0.55599 0.56308 0.26908 0.0
H879 H 0.57332 0.52885 0.28744 0.0
H880 H 0.58417 0.55278 0.30674 0.0
H881 H 0.54983 0.49489 0.23402 0.0
H882 H 0.52968 0.51585 0.26837 0.0
H883 H 0.52656 0.47284 0.2288 0.0
H884 H 0.50657 0.49359 0.26435 0.0
H885 H 0.44732 0.4023 0.21096 0.0
H886 H 0.43664 0.39418 0.17369 0.0
H887 H 0.45105 0.43899 0.15734 0.0
H888 H 0.46077 0.44681 0.19487 0.0
H889 H 0.4397 0.4376 0.22724 0.0
H890 H 0.41971 0.43017 0.25245 0.0
H891 H 0.43536 0.40645 0.29066 0.0
H892 H 0.45512 0.41367 0.26501 0.0
H893 H 0.48513 0.43086 0.23676 0.0
H894 H 0.5083 0.45274 0.24527 0.0
H895 H 0.48816 0.47922 0.23853 0.0
N896 N 0.45994 0.42909 0.22871 0.0
H897 H 0.46496 0.45717 0.23166 0.0
C898 C 0.56113 0.52587 0.23019 0.0
C899 C 0.57555 0.53048 0.22598 0.0
C900 C 0.58179 0.53788 0.20666 0.0
C901 C 0.5737 0.54089 0.19121 0.0
C902 C 0.55901 0.53557 0.19488 0.0
C903 C 0.55277 0.52811 0.21417 0.0
C904 C 0.55847 0.5322 0.26728 0.0
C905 C 0.55325 0.54181 0.263 0.0
C906 C 0.55953 0.5555 0.27376 0.0
C907 C 0.57103 0.55981 0.28913 0.0
C908 C 0.57526 0.54968 0.29503 0.0
C909 C 0.56905 0.53601 0.28409 0.0
C910 C 0.5417 0.50725 0.25118 0.0
C911 C 0.54042 0.49469 0.2407 0.0
C912 C 0.52706 0.482 0.23791 0.0
C913 C 0.51456 0.48135 0.24607 0.0
C914 C 0.51587 0.49376 0.25734 0.0
C915 C 0.52925 0.5066 0.25977 0.0
C916 C 0.455 0.42513 0.20584 0.0
C917 C 0.44824 0.41035 0.19923 0.0
C918 C 0.44221 0.40575 0.17784 0.0
C919 C 0.44298 0.41591 0.16233 0.0
C920 C 0.45001 0.4308 0.16887 0.0
C921 C 0.4558 0.43535 0.19043 0.0
C922 C 0.44881 0.42604 0.24425 0.0
C923 C 0.4389 0.43092 0.24117 0.0
C924 C 0.42751 0.42672 0.25564 0.0
C925 C 0.42589 0.41761 0.27344 0.0
C926 C 0.43617 0.41324 0.27689 0.0
C927 C 0.44749 0.41742 0.26239 0.0
C928 C 0.47341 0.44237 0.23317 0.0
C929 C 0.48579 0.44142 0.23717 0.0
C930 C 0.49903 0.45398 0.24189 0.0
C931 C 0.50024 0.46787 0.24236 0.0
C932 C 0.4877 0.46876 0.2386 0.0
C933 C 0.4744 0.45614 0.23433 0.0
H934 H 0.5361 0.00137 0.21266 0.0
N935 N 0.54846 0.01935 0.24943 0.0
H936 H 0.54642 0.00481 0.17606 0.0
H937 H 0.57164 0.04297 0.23532 0.0
H938 H 0.58193 0.04669 0.19834 0.0
H939 H 0.56528 0.03036 0.28573 0.0
H940 H 0.58014 0.02154 0.30339 0.0
H941 H 0.54688 0.99298 0.24053 0.0
H942 H 0.5612 0.98389 0.25842 0.0
H943 H 0.52626 0.9912 0.25718 0.0
H944 H 0.5359 0.03533 0.24584 0.0
H945 H 0.50074 0.98283 0.2546 0.0
H946 H 0.51021 0.02687 0.24233 0.0
H947 H 0.42644 0.96604 0.19189 0.0
H948 H 0.42092 0.97226 0.15547 0.0
H949 H 0.4525 0.01762 0.16896 0.0
H950 H 0.45788 0.0113 0.20538 0.0
H951 H 0.44055 0.00749 0.23416 0.0
H952 H 0.42172 0.0069 0.25692 0.0
H953 H 0.40664 0.96164 0.27071 0.0
H954 H 0.42565 0.96233 0.24783 0.0
H955 H 0.45874 0.97056 0.21587 0.0
H956 H 0.48387 0.97881 0.22572 0.0
H957 H 0.4875 0.01719 0.25875 0.0
N958 N 0.44415 0.98418 0.22352 0.0
H959 H 0.46261 0.00916 0.24791 0.0
C960 C 0.5532 0.02193 0.22682 0.0
C961 C 0.54598 0.01141 0.20963 0.0
C962 C 0.55185 0.01344 0.18861 0.0
C963 C 0.56503 0.026 0.18432 0.0
C964 C 0.57184 0.03682 0.20122 0.0
C965 C 0.56597 0.03477 0.22227 0.0
C966 C 0.55487 0.01238 0.26193 0.0
C967 C 0.56413 0.02005 0.28006 0.0
C968 C 0.57261 0.01498 0.2901 0.0
C969 C 0.57198 0.00208 0.28216 0.0
C970 C 0.56217 0.99402 0.26468 0.0
C971 C 0.5538 0.99914 0.25457 0.0
C972 C 0.53321 0.01404 0.25156 0.0
C973 C 0.52302 0.9992 0.25432 0.0
C974 C 0.50828 0.99434 0.25266 0.0
C975 C 0.50334 0.0041 0.24791 0.0
C976 C 0.51353 0.01902 0.24623 0.0
C977 C 0.52826 0.02389 0.24816 0.0
C978 C 0.44251 0.98814 0.20132 0.0
C979 C 0.43232 0.97727 0.18678 0.0
C980 C 0.42923 0.98085 0.166 0.0
C981 C 0.43627 0.99544 0.15938 0.0
C982 C 0.44681 0.00631 0.17371 0.0
C983 C 0.44995 0.00269 0.19448 0.0
C984 C 0.43448 0.98486 0.23921 0.0
C985 C 0.43337 0.99748 0.24227 0.0
C986 C 0.42252 0.99712 0.2552 0.0
C987 C 0.41263 0.98419 0.26541 0.0
C988 C 0.41417 0.97179 0.26316 0.0
C989 C 0.42499 0.97215 0.25012 0.0
C990 C 0.45872 0.98912 0.23117 0.0
C991 C 0.46496 0.98069 0.22539 0.0
C992 C 0.47931 0.98539 0.23122 0.0
C993 C 0.48776 0.99866 0.24317 0.0
C994 C 0.48139 0.007 0.24935 0.0
C995 C 0.46705 0.00234 0.24329 0.0
H996 H 0.41161 0.94774 0.78974 0.0
N997 N 0.43831 0.96081 0.77528 0.0
H998 H 0.40352 0.9507 0.82583 0.0
H999 H 0.45572 0.97665 0.81119 0.0
H1000 H 0.44793 0.97841 0.84815 0.0
H1001 H 0.44569 0.98957 0.77808 0.0
H1002 H 0.43447 0.00082 0.75656 0.0
H1003 H 0.42248 0.95001 0.73805 0.0
H1004 H 0.41161 0.96133 0.71577 0.0
H1005 H 0.44345 0.9397 0.78605 0.0
H1006 H 0.46421 0.98335 0.76117 0.0
H1007 H 0.46647 0.9406 0.78852 0.0
H1008 H 0.48716 0.98393 0.76164 0.0
H1009 H 0.54557 0.9501 0.80784 0.0
H1010 H 0.55674 0.95357 0.8447 0.0
H1011 H 0.54097 0.98264 0.86316 0.0
H1012 H 0.53078 0.97992 0.82609 0.0
H1013 H 0.55402 0.99234 0.79432 0.0
H1014 H 0.57552 0.00389 0.77188 0.0
H1015 H 0.55854 0.96439 0.73106 0.0
H1016 H 0.53739 0.9528 0.75423 0.0
H1017 H 0.50746 0.94063 0.77995 0.0
H1018 H 0.48473 0.93979 0.77176 0.0
H1019 H 0.50571 0.98656 0.78406 0.0
N1020 N 0.53268 0.96373 0.79096 0.0
H1021 H 0.52858 0.98729 0.7899 0.0
C1022 C 0.4342 0.96179 0.7977 0.0
C1023 C 0.41956 0.9544 0.80251 0.0
C1024 C 0.41499 0.956 0.82336 0.0
C1025 C 0.42503 0.96472 0.84029 0.0
C1026 C 0.4398 0.97181 0.8356 0.0
C1027 C 0.44433 0.97062 0.81443 0.0
C1028 C 0.43479 0.96887 0.75972 0.0
C1029 C 0.43852 0.98348 0.76417 0.0
C1030 C 0.43209 0.98989 0.75181 0.0
C1031 C 0.42191 0.98188 0.73469 0.0
C1032 C 0.41913 0.96769 0.7292 0.0
C1033 C 0.42547 0.96126 0.74167 0.0
C1034 C 0.45197 0.96133 0.77334 0.0
C1035 C 0.45296 0.94933 0.78048 0.0
C1036 C 0.4662 0.94986 0.78171 0.0
C1037 C 0.47888 0.96234 0.77521 0.0
C1038 C 0.47778 0.97422 0.76724 0.0
C1039 C 0.46453 0.97383 0.76662 0.0
C1040 C 0.53726 0.96462 0.81395 0.0
C1041 C 0.54441 0.95709 0.81997 0.0
C1042 C 0.55074 0.95905 0.84113 0.0
C1043 C 0.54985 0.96846 0.85703 0.0
C1044 C 0.54218 0.97557 0.85126 0.0
C1045 C 0.53612 0.97384 0.82992 0.0
C1046 C 0.54422 0.97163 0.77601 0.0
C1047 C 0.55486 0.98627 0.78035 0.0
C1048 C 0.56713 0.99287 0.76745 0.0
C1049 C 0.56887 0.98498 0.7499 0.0
C1050 C 0.55772 0.97065 0.7448 0.0
C1051 C 0.54556 0.96405 0.75782 0.0
C1052 C 0.51956 0.96389 0.78614 0.0
C1053 C 0.50708 0.95067 0.78071 0.0
C1054 C 0.49406 0.95024 0.77625 0.0
C1055 C 0.49313 0.96306 0.7777 0.0
C1056 C 0.50586 0.97643 0.78254 0.0
C1057 C 0.51898 0.97687 0.78629 0.0
H1058 H 0.96579 0.53874 0.82938 0.0
N1059 N 0.98329 0.54631 0.7953 0.0
H1060 H 0.9691 0.55287 0.86385 0.0
H1061 H 0.00752 0.57201 0.80848 0.0
H1062 H 0.01108 0.58584 0.84286 0.0
H1063 H 0.0058 0.56555 0.7704 0.0
H1064 H 0.00502 0.58278 0.74456 0.0
H1065 H 0.95994 0.5453 0.77807 0.0
H1066 H 0.95901 0.56221 0.75179 0.0
H1067 H 0.96864 0.51838 0.78278 0.0
H1068 H 0.01159 0.55311 0.80009 0.0
H1069 H 0.9777 0.50141 0.77812 0.0
H1070 H 0.02062 0.53621 0.79644 0.0
H1071 H 0.99953 0.45151 0.79927 0.0
H1072 H 0.99868 0.43842 0.83251 0.0
H1073 H 0.03985 0.47436 0.85503 0.0
H1074 H 0.04085 0.48751 0.82113 0.0
H1075 H 0.04043 0.47074 0.76949 0.0
H1076 H 0.03447 0.44976 0.74471 0.0
H1077 H 0.99105 0.44181 0.73653 0.0
H1078 H 0.99699 0.46265 0.76114 0.0
H1079 H 0.99538 0.47216 0.80018 0.0
H1080 H 0.98641 0.48914 0.80075 0.0
H1081 H 0.02553 0.52174 0.77105 0.0
N1082 N 0.02205 0.4778 0.7867 0.0
H1083 H 0.03475 0.50471 0.77144 0.0
C1084 C 0.98636 0.55417 0.81635 0.0
C1085 C 0.97576 0.54893 0.83242 0.0
C1086 C 0.97769 0.55702 0.85208 0.0
C1087 C 0.99033 0.57055 0.85605 0.0
C1088 C 0.00112 0.57559 0.84018 0.0
C1089 C 0.99915 0.56754 0.82052 0.0
C1090 C 0.9829 0.55431 0.77646 0.0
C1091 C 0.99552 0.56456 0.76613 0.0
C1092 C 0.99506 0.57437 0.75131 0.0
C1093 C 0.98197 0.57386 0.74629 0.0
C1094 C 0.96923 0.56277 0.75518 0.0
C1095 C 0.96973 0.55314 0.77023 0.0
C1096 C 0.98931 0.53694 0.79204 0.0
C1097 C 0.98001 0.52232 0.78562 0.0
C1098 C 0.98521 0.51264 0.78312 0.0
C1099 C -0.00012 0.51739 0.78712 0.0
C1100 C 0.00928 0.53218 0.79301 0.0
C1101 C 0.00407 0.54188 0.79534 0.0
C1102 C 0.02043 0.47051 0.80746 0.0
C1103 C 0.00839 0.45671 0.81126 0.0
C1104 C 0.00789 0.44919 0.83031 0.0
C1105 C 0.01927 0.45534 0.84614 0.0
C1106 C 0.03094 0.46941 0.84302 0.0
C1107 C 0.03154 0.47689 0.82373 0.0
C1108 C 0.01922 0.46827 0.76747 0.0
C1109 C 0.02979 0.46481 0.76166 0.0
C1110 C 0.02635 0.45279 0.74763 0.0
C1111 C 0.01225 0.44407 0.73897 0.0
C1112 C 0.00203 0.44839 0.74289 0.0
C1113 C 0.00545 0.46036 0.75707 0.0
C1114 C 0.01592 0.48723 0.786 0.0
C1115 C 0.00211 0.48294 0.79384 0.0
C1116 C 0.99688 0.49266 0.79393 0.0
C1117 C 0.00525 0.50686 0.786 0.0
C1118 C 0.01889 0.51099 0.77764 0.0
C1119 C 0.02415 0.50126 0.77768 0.0
H1120 H 0.44684 0.45059 0.79276 0.0
N1121 N 0.45444 0.47796 0.77756 0.0
H1122 H 0.43332 0.4393 0.82539 0.0
H1123 H 0.44475 0.48958 0.80779 0.0
H1124 H 0.43147 0.47818 0.8416 0.0
H1125 H 0.43206 0.4709 0.75013 0.0
H1126 H 0.42028 0.4495 0.72472 0.0
H1127 H 0.46674 0.46212 0.76229 0.0
H1128 H 0.45489 0.44073 0.73733 0.0
H1129 H 0.47241 0.47345 0.80555 0.0
H1130 H 0.47149 0.50289 0.75769 0.0
H1131 H 0.49778 0.48988 0.8128 0.0
H1132 H 0.49745 0.51903 0.76355 0.0
H1133 H 0.57605 0.54175 0.84274 0.0
H1134 H 0.58394 0.55445 0.87904 0.0
H1135 H 0.55818 0.57473 0.86706 0.0
H1136 H 0.55058 0.56225 0.8309 0.0
H1137 H 0.56517 0.5714 0.79858 0.0
H1138 H 0.58393 0.58721 0.77355 0.0
H1139 H 0.59464 0.55332 0.76219 0.0
H1140 H 0.5761 0.53775 0.78797 0.0
H1141 H 0.54576 0.51563 0.81082 0.0
H1142 H 0.52061 0.49895 0.8001 0.0
H1143 H 0.51487 0.536 0.78807 0.0
N1144 N 0.55968 0.5445 0.81198 0.0
H1145 H 0.54029 0.55239 0.79688 0.0
C1146 C 0.44657 0.47096 0.79725 0.0
C1147 C 0.44339 0.45676 0.80281 0.0
C1148 C 0.43569 0.45025 0.82165 0.0
C1149 C 0.43125 0.45783 0.83574 0.0
C1150 C 0.43474 0.47213 0.8308 0.0
C1151 C 0.44226 0.4786 0.81157 0.0
C1152 C 0.45016 0.46809 0.75837 0.0
C1153 C 0.4374 0.46473 0.74666 0.0
C1154 C 0.4307 0.45254 0.73217 0.0
C1155 C 0.43666 0.44347 0.72933 0.0
C1156 C 0.45012 0.44759 0.73933 0.0
C1157 C 0.45691 0.45988 0.75357 0.0
C1158 C 0.46984 0.48708 0.78134 0.0
C1159 C 0.47764 0.48342 0.79643 0.0
C1160 C 0.49236 0.49281 0.80034 0.0
C1161 C 0.49982 0.5059 0.78882 0.0
C1162 C 0.49208 0.50926 0.77316 0.0
C1163 C 0.47726 0.49999 0.76961 0.0
C1164 C 0.56272 0.55095 0.83408 0.0
C1165 C 0.57197 0.54878 0.84815 0.0
C1166 C 0.57643 0.55602 0.86885 0.0
C1167 C 0.57172 0.56565 0.87587 0.0
C1168 C 0.56214 0.56753 0.86199 0.0
C1169 C 0.55768 0.56027 0.8413 0.0
C1170 C 0.56935 0.55341 0.79527 0.0
C1171 C 0.57143 0.5673 0.79057 0.0
C1172 C 0.58215 0.57632 0.77613 0.0
C1173 C 0.5909 0.57159 0.76605 0.0
C1174 C 0.58829 0.55742 0.77004 0.0
C1175 C 0.57765 0.54846 0.78456 0.0
C1176 C 0.54482 0.5352 0.80521 0.0
C1177 C 0.53903 0.52007 0.80574 0.0
C1178 C 0.52459 0.51058 0.79978 0.0
C1179 C 0.5155 0.51605 0.79356 0.0
C1180 C 0.52147 0.5313 0.79259 0.0
C1181 C 0.53603 0.54077 0.79806 0.0
H1182 H 0.692 0.89411 0.55112 0.0
N1183 N 0.67087 0.87147 0.57073 0.0
H1184 H 0.69033 0.90555 0.51698 0.0
H1185 H 0.64742 0.86071 0.5419 0.0
H1186 H 0.64577 0.87196 0.50777 0.0
H1187 H 0.64589 0.87157 0.5789 0.0
H1188 H 0.64416 0.88962 0.6025 0.0
H1189 H 0.68964 0.88817 0.60238 0.0
H1190 H 0.6881 0.90636 0.62584 0.0
H1191 H 0.68845 0.8608 0.57014 0.0
H1192 H 0.64369 0.848 0.57513 0.0
H1193 H 0.6821 0.83519 0.5687 0.0
H1194 H 0.63704 0.82232 0.57218 0.0
H1195 H 0.66947 0.76964 0.54109 0.0
H1196 H 0.67224 0.75939 0.50631 0.0
H1197 H 0.62699 0.74151 0.49044 0.0
H1198 H 0.62423 0.75182 0.52564 0.0
H1199 H 0.62933 0.74075 0.57611 0.0
H1200 H 0.63842 0.72958 0.60234 0.0
H1201 H 0.67971 0.76935 0.60546 0.0
H1202 H 0.67058 0.78045 0.57945 0.0
H1203 H 0.66626 0.79073 0.53773 0.0
H1204 H 0.67194 0.81572 0.54287 0.0
H1205 H 0.63707 0.80214 0.58844 0.0
N1206 N 0.64428 0.76646 0.55735 0.0
H1207 H 0.63085 0.77669 0.58216 0.0
C1208 C 0.66994 0.87653 0.54904 0.0
C1209 C 0.68197 0.88908 0.54148 0.0
C1210 C 0.68097 0.89562 0.52212 0.0
C1211 C 0.6679 0.88963 0.50985 0.0
C1212 C 0.656 0.8767 0.51685 0.0
C1213 C 0.65695 0.87025 0.5364 0.0
C1214 C 0.66799 0.87862 0.58881 0.0
C1215 C 0.65494 0.87871 0.58977 0.0
C1216 C 0.654 0.88913 0.60315 0.0
C1217 C 0.66607 0.89958 0.61577 0.0
C1218 C 0.67857 0.89843 0.61647 0.0
C1219 C 0.6795 0.88805 0.60306 0.0
C1220 C 0.66659 0.8563 0.5724 0.0
C1221 C 0.67724 0.85241 0.57096 0.0
C1222 C 0.67354 0.83776 0.56985 0.0
C1223 C 0.65901 0.82661 0.56978 0.0
C1224 C 0.64834 0.83056 0.57222 0.0
C1225 C 0.65211 0.84529 0.57371 0.0
C1226 C 0.64657 0.76157 0.536 0.0
C1227 C 0.66012 0.76364 0.53014 0.0
C1228 C 0.66173 0.75781 0.51016 0.0
C1229 C 0.64983 0.74963 0.49566 0.0
C1230 C 0.63633 0.74766 0.50139 0.0
C1231 C 0.63475 0.75362 0.52135 0.0
C1232 C 0.64922 0.76135 0.57573 0.0
C1233 C 0.64021 0.74716 0.58294 0.0
C1234 C 0.64543 0.7408 0.5978 0.0
C1235 C 0.6598 0.74858 0.60578 0.0
C1236 C 0.66855 0.76315 0.59975 0.0
C1237 C 0.66334 0.76949 0.58479 0.0
C1238 C 0.6479 0.78159 0.5594 0.0
C1239 C 0.65963 0.7929 0.54864 0.0
C1240 C 0.66305 0.80739 0.55187 0.0
C1241 C 0.65508 0.81106 0.56626 0.0
C1242 C 0.64336 0.79975 0.57702 0.0
C1243 C 0.63982 0.7852 0.57353 0.0
H1244 H 0.2516 0.8696 0.56976 0.0
N1245 N 0.22361 0.85459 0.57731 0.0
H1246 H 0.26297 0.88233 0.53642 0.0
H1247 H 0.21011 0.84946 0.5355 0.0
H1248 H 0.22151 0.86101 0.50168 0.0
H1249 H 0.21705 0.87575 0.56703 0.0
H1250 H 0.22736 0.8997 0.58541 0.0
H1251 H 0.23661 0.86215 0.61728 0.0
H1252 H 0.24732 0.88636 0.63556 0.0
H1253 H 0.21783 0.8277 0.58575 0.0
H1254 H 0.19731 0.85268 0.56992 0.0
H1255 H 0.19442 0.80525 0.58382 0.0
H1256 H 0.17413 0.83043 0.56656 0.0
H1257 H 0.11587 0.73653 0.53859 0.0
H1258 H 0.10577 0.72959 0.50087 0.0
H1259 H 0.1209 0.77501 0.48756 0.0
H1260 H 0.13006 0.78163 0.52583 0.0
H1261 H 0.10914 0.77303 0.55514 0.0
H1262 H 0.08771 0.76541 0.57696 0.0
H1263 H 0.0979 0.73687 0.61388 0.0
H1264 H 0.11964 0.74498 0.59233 0.0
H1265 H 0.15419 0.76703 0.55161 0.0
H1266 H 0.17728 0.78938 0.55781 0.0
H1267 H 0.15514 0.81106 0.58333 0.0
N1268 N 0.12801 0.76278 0.55825 0.0
H1269 H 0.13226 0.78916 0.57566 0.0
C1270 C 0.22997 0.85877 0.55568 0.0
C1271 C 0.24499 0.86749 0.55484 0.0
C1272 C 0.2515 0.87472 0.53556 0.0
C1273 C 0.24318 0.87301 0.5162 0.0
C1274 C 0.22826 0.86311 0.51641 0.0
C1275 C 0.22168 0.85627 0.53595 0.0
C1276 C 0.226 0.86706 0.59088 0.0
C1277 C 0.22303 0.87767 0.58257 0.0
C1278 C 0.22914 0.89148 0.5929 0.0
C1279 C 0.23836 0.89499 0.61169 0.0
C1280 C 0.24023 0.88397 0.62115 0.0
C1281 C 0.23409 0.87012 0.61078 0.0
C1282 C 0.20941 0.84186 0.57794 0.0
C1283 C 0.20825 0.82833 0.58194 0.0
C1284 C 0.19486 0.8155 0.58054 0.0
C1285 C 0.1823 0.8159 0.57471 0.0
C1286 C 0.18345 0.8296 0.5714 0.0
C1287 C 0.19681 0.84244 0.57324 0.0
C1288 C 0.12383 0.75954 0.53501 0.0
C1289 C 0.11713 0.74497 0.52739 0.0
C1290 C 0.11143 0.74106 0.50574 0.0
C1291 C 0.1125 0.75172 0.49098 0.0
C1292 C 0.11963 0.76644 0.49848 0.0
C1293 C 0.12509 0.7703 0.52033 0.0
C1294 C 0.11604 0.75958 0.57223 0.0
C1295 C 0.10688 0.76529 0.56813 0.0
C1296 C 0.09455 0.76082 0.5805 0.0
C1297 C 0.09101 0.75044 0.59706 0.0
C1298 C 0.10038 0.74501 0.60145 0.0
C1299 C 0.11278 0.74958 0.58915 0.0
C1300 C 0.1414 0.77619 0.56318 0.0
C1301 C 0.15436 0.77663 0.55854 0.0
C1302 C 0.16758 0.78942 0.56233 0.0
C1303 C 0.16819 0.80212 0.57124 0.0
C1304 C 0.15517 0.80163 0.57614 0.0
C1305 C 0.14194 0.78891 0.57192 0.0
H1306 H 0.20056 0.33487 0.5487 0.0
N1307 N 0.21154 0.35083 0.58762 0.0
H1308 H 0.21227 0.34032 0.51302 0.0
H1309 H 0.2352 0.37523 0.57693 0.0
H1310 H 0.24696 0.38088 0.54101 0.0
H1311 H 0.22708 0.36033 0.62536 0.0
H1312 H 0.24192 0.35127 0.64238 0.0
H1313 H 0.2111 0.32537 0.57594 0.0
H1314 H 0.22542 0.31602 0.59313 0.0
H1315 H 0.18982 0.3221 0.5933 0.0
H1316 H 0.19811 0.36598 0.58377 0.0
H1317 H 0.1642 0.3129 0.58971 0.0
H1318 H 0.17231 0.35668 0.57916 0.0
H1319 H 0.08866 0.29376 0.5282 0.0
H1320 H 0.0831 0.29957 0.49147 0.0
H1321 H 0.1145 0.34509 0.50412 0.0
H1322 H 0.11988 0.33919 0.54085 0.0
H1323 H 0.10204 0.33505 0.56928 0.0
H1324 H 0.08352 0.3343 0.59297 0.0
H1325 H 0.07031 0.28974 0.60888 0.0
H1326 H 0.08901 0.29058 0.58503 0.0
H1327 H 0.12202 0.29962 0.55113 0.0
H1328 H 0.14733 0.30869 0.56089 0.0
H1329 H 0.14943 0.34608 0.5949 0.0
N1330 N 0.10653 0.3122 0.55944 0.0
H1331 H 0.12441 0.3373 0.58408 0.0
C1332 C 0.21707 0.35468 0.56557 0.0
C1333 C 0.21053 0.34508 0.5471 0.0
C1334 C 0.2172 0.34825 0.52664 0.0
C1335 C 0.23056 0.36101 0.52425 0.0
C1336 C 0.23673 0.37091 0.54243 0.0
C1337 C 0.23002 0.36775 0.56288 0.0
C1338 C 0.21789 0.34356 0.59951 0.0
C1339 C 0.22644 0.35046 0.6186 0.0
C1340 C 0.23492 0.34526 0.62827 0.0
C1341 C 0.23498 0.33299 0.61898 0.0
C1342 C 0.22585 0.32566 0.60047 0.0
C1343 C 0.21749 0.33092 0.59074 0.0
C1344 C 0.19613 0.3449 0.58866 0.0
C1345 C 0.18627 0.32987 0.59055 0.0
C1346 C 0.17146 0.32452 0.5883 0.0
C1347 C 0.16611 0.33398 0.58381 0.0
C1348 C 0.17594 0.34904 0.58285 0.0
C1349 C 0.19073 0.3544 0.5854 0.0
C1350 C 0.10464 0.31596 0.53722 0.0
C1351 C 0.09446 0.30494 0.52287 0.0
C1352 C 0.09134 0.30829 0.50191 0.0
C1353 C 0.09835 0.3228 0.49493 0.0
C1354 C 0.10882 0.33383 0.50914 0.0
C1355 C 0.11197 0.33045 0.53009 0.0
C1356 C 0.09686 0.31277 0.57527 0.0
C1357 C 0.0953 0.32515 0.57798 0.0
C1358 C 0.08465 0.3247 0.59148 0.0
C1359 C 0.07538 0.31192 0.6026 0.0
C1360 C 0.07735 0.29977 0.60061 0.0
C1361 C 0.08798 0.30021 0.58701 0.0
C1362 C 0.12123 0.31764 0.56692 0.0
C1363 C 0.12796 0.30972 0.56081 0.0
C1364 C 0.1424 0.31489 0.56659 0.0
C1365 C 0.15048 0.32811 0.57883 0.0
C1366 C 0.14364 0.33595 0.58526 0.0
C1367 C 0.12921 0.33084 0.57923 0.0
C1368 C 0.0029 0.38782 0.05962 0.0
C1369 C 0.99345 0.38735 0.04279 0.0
C1370 C 0.00496 0.39574 0.07963 0.0
C1371 C 0.99747 0.40346 0.08284 0.0
C1372 C 0.98773 0.40283 0.06612 0.0
C1373 C 0.9858 0.39474 0.04637 0.0
C1374 C 0.01534 0.39605 0.09719 0.0
C1375 C 0.97961 0.41098 0.06884 0.0
C1376 C 0.99405 0.41562 0.14112 0.0
C1377 C 0.00511 0.43027 0.14194 0.0
C1378 C 0.99152 0.40671 0.12208 0.0
C1379 C 0.00017 0.41264 0.10335 0.0
C1380 C 0.01128 0.42746 0.10403 0.0
C1381 C 0.01366 0.43607 0.12335 0.0
C1382 C 0.97965 0.39094 0.12204 0.0
C1383 C 0.02062 0.43424 0.08431 0.0
H1384 H 0.00883 0.38211 0.05709 0.0
H1385 H 0.97849 0.3945 0.03351 0.0
H1386 H 0.0244 0.40739 0.09986 0.0
H1387 H 0.00987 0.39249 0.11324 0.0
H1388 H 0.0198 0.38892 0.09258 0.0
H1389 H 0.97212 0.40902 0.05454 0.0
H1390 H 0.97333 0.40766 0.08422 0.0
H1391 H 0.98733 0.42288 0.07058 0.0
H1392 H 0.98755 0.41104 0.15556 0.0
H1393 H 0.02213 0.44742 0.12386 0.0
H1394 H 0.98416 0.38368 0.11881 0.0
H1395 H 0.97164 0.38879 0.10848 0.0
H1396 H 0.97399 0.38796 0.13804 0.0
H1397 H 0.02626 0.4282 0.07992 0.0
H1398 H 0.02881 0.44591 0.08754 0.0
H1399 H 0.01383 0.43345 0.06967 0.0
C1400 C 0.60636 0.60397 0.1037 0.0
C1401 C 0.61685 0.60352 0.09067 0.0
C1402 C 0.59822 0.59273 0.11825 0.0
C1403 C 0.60067 0.58081 0.11985 0.0
C1404 C 0.61071 0.57993 0.10592 0.0
C1405 C 0.61869 0.5913 0.09148 0.0
C1406 C 0.58754 0.59402 0.13277 0.0
C1407 C 0.6136 0.56737 0.10711 0.0
C1408 C 0.59426 0.56325 0.17591 0.0
C1409 C 0.58083 0.55057 0.17239 0.0
C1410 C 0.60088 0.57303 0.15883 0.0
C1411 C 0.59388 0.57013 0.13769 0.0
C1412 C 0.5804 0.55727 0.13388 0.0
C1413 C 0.57402 0.54763 0.15131 0.0
C1414 C 0.61527 0.58664 0.16356 0.0
C1415 C 0.57265 0.55384 0.11153 0.0
H1416 H 0.60486 0.61335 0.10316 0.0
H1417 H 0.62672 0.59084 0.08137 0.0
H1418 H 0.57703 0.5837 0.13198 0.0
H1419 H 0.59153 0.59596 0.15032 0.0
H1420 H 0.5858 0.60311 0.12788 0.0
H1421 H 0.62055 0.56749 0.09356 0.0
H1422 H 0.61904 0.56798 0.12327 0.0
H1423 H 0.60335 0.55679 0.10621 0.0
H1424 H 0.59945 0.56576 0.19225 0.0
H1425 H 0.56369 0.53779 0.14845 0.0
H1426 H 0.61426 0.59648 0.16125 0.0
H1427 H 0.6233 0.58718 0.15168 0.0
H1428 H 0.61946 0.58707 0.18072 0.0
H1429 H 0.57018 0.56254 0.10737 0.0
H1430 H 0.56243 0.54319 0.11111 0.0
H1431 H 0.57966 0.55359 0.09841 0.0
C1432 C 0.39125 0.99945 0.05798 0.0
C1433 C 0.39915 0.00792 0.04022 0.0
C1434 C 0.39818 0.99869 0.07744 0.0
C1435 C 0.41341 0.00657 0.0792 0.0
C1436 C 0.42146 0.01551 0.06167 0.0
C1437 C 0.41423 0.0161 0.04239 0.0
C1438 C 0.3892 0.98911 0.09584 0.0
C1439 C 0.43771 0.02407 0.063 0.0
C1440 C 0.42941 0.01109 0.1375 0.0
C1441 C 0.43194 0.99931 0.13815 0.0
C1442 C 0.42387 0.01395 0.11814 0.0
C1443 C 0.42081 0.0048 0.09901 0.0
C1444 C 0.42389 0.99326 0.0993 0.0
C1445 C 0.4294 0.99064 0.11888 0.0
C1446 C 0.4207 0.02634 0.11848 0.0
C1447 C 0.42088 0.98332 0.07917 0.0
H1448 H 0.37959 0.99317 0.05658 0.0
H1449 H 0.42045 0.02268 0.02878 0.0
H1450 H 0.39151 0.98009 0.09813 0.0
H1451 H 0.39203 0.9955 0.11176 0.0
H1452 H 0.37746 0.9843 0.09235 0.0
H1453 H 0.44235 0.03125 0.04862 0.0
H1454 H 0.4415 0.03091 0.07851 0.0
H1455 H 0.44196 0.01643 0.06354 0.0
H1456 H 0.4312 0.01774 0.15241 0.0
H1457 H 0.43153 0.98164 0.11922 0.0
H1458 H 0.40889 0.02187 0.11716 0.0
H1459 H 0.4255 0.03336 0.10402 0.0
H1460 H 0.42489 0.03323 0.13394 0.0
H1461 H 0.40911 0.97702 0.07547 0.0
H1462 H 0.4248 0.9755 0.08163 0.0
H1463 H 0.42606 0.98986 0.06442 0.0
C1464 C 0.39278 0.97542 0.95521 0.0
C1465 C 0.38535 0.98256 0.94879 0.0
C1466 C 0.40099 0.97276 0.93985 0.0
C1467 C 0.40105 0.97667 0.91746 0.0
C1468 C 0.39352 0.98391 0.91103 0.0
C1469 C 0.38603 0.98706 0.92694 0.0
C1470 C 0.40948 0.9657 0.94753 0.0
C1471 C 0.3929 0.98784 0.88719 0.0
C1472 C 0.42768 0.98039 0.87409 0.0
C1473 C 0.41997 0.967 0.86217 0.0
C1474 C 0.42219 0.98321 0.89335 0.0
C1475 C 0.40837 0.97269 0.90031 0.0
C1476 C 0.4008 0.95895 0.88904 0.0
C1477 C 0.40687 0.95615 0.87051 0.0
C1478 C 0.43088 0.99777 0.90554 0.0
C1479 C 0.38585 0.94756 0.89556 0.0
H1480 H 0.3923 0.97207 0.97223 0.0
H1481 H 0.38014 0.99249 0.92204 0.0
H1482 H 0.40468 0.95452 0.94011 0.0
H1483 H 0.42072 0.97199 0.94187 0.0
H1484 H 0.40969 0.96497 0.9659 0.0
H1485 H 0.38618 0.99302 0.88488 0.0
H1486 H 0.4039 0.99548 0.88157 0.0
H1487 H 0.38841 0.97788 0.87627 0.0
H1488 H 0.43775 0.989 0.86798 0.0
H1489 H 0.40103 0.94554 0.86212 0.0
H1490 H 0.43033 0.99635 0.92378 0.0
H1491 H 0.42638 0.00491 0.9015 0.0
H1492 H 0.44236 0.00343 0.90086 0.0
H1493 H 0.38576 0.94519 0.91343 0.0
H1494 H 0.38169 0.93717 0.88574 0.0
H1495 H 0.37835 0.9518 0.89297 0.0
C1496 C 0.02574 0.40803 0.94367 0.0
C1497 C 0.01184 0.39765 0.94995 0.0
C1498 C 0.02789 0.41879 0.92842 0.0
C1499 C 0.01585 0.4193 0.91951 0.0
C1500 C 0.00188 0.40939 0.9268 0.0
C1501 C 3e-05 0.39861 0.94176 0.0
C1502 C 0.04294 0.42905 0.92087 0.0
C1503 C 0.98878 0.40972 0.91797 0.0
C1504 C 0.02103 0.45207 0.88701 0.0
C1505 C 0.01919 0.4466 0.86512 0.0
C1506 C 0.02014 0.44338 0.90501 0.0
C1507 C 0.01761 0.42905 0.90087 0.0
C1508 C 0.0162 0.4237 0.87872 0.0
C1509 C 0.0169 0.4325 0.86114 0.0
C1510 C 0.02149 0.44937 0.9284 0.0
C1511 C 0.01373 0.40857 0.87357 0.0
H1512 H 0.03493 0.40737 0.9499 0.0
H1513 H 0.98927 0.39072 0.94657 0.0
H1514 H 0.04385 0.42643 0.90327 0.0
H1515 H 0.04524 0.44051 0.92174 0.0
H1516 H 0.05125 0.42825 0.931 0.0
H1517 H 0.97896 0.40245 0.92719 0.0
H1518 H 0.9906 0.421 0.91899 0.0
H1519 H 0.98681 0.40615 0.9002 0.0
H1520 H 0.02275 0.46297 0.89003 0.0
H1521 H 0.01567 0.42836 0.84417 0.0
H1522 H 0.03001 0.44859 0.93793 0.0
H1523 H 0.01124 0.44273 0.93701 0.0
H1524 H 0.02408 0.46094 0.92879 0.0
H1525 H 0.02227 0.40715 0.8818 0.0
H1526 H 0.01363 0.40637 0.85545 0.0
H1527 H 0.00327 0.40026 0.8802 0.0
C1528 C 0.59214 0.6082 0.9941 0.0
C1529 C 0.60697 0.61465 0.99894 0.0
C1530 C 0.58609 0.60049 0.97396 0.0
C1531 C 0.59507 0.5992 0.95823 0.0
C1532 C 0.61008 0.60593 0.96277 0.0
C1533 C 0.61585 0.61357 0.98306 0.0
C1534 C 0.57004 0.59349 0.96966 0.0
C1535 C 0.62 0.60483 0.94635 0.0
C1536 C 0.57848 0.56741 0.91632 0.0
C1537 C 0.57725 0.57412 0.89718 0.0
C1538 C 0.58416 0.57543 0.93635 0.0
C1539 C 0.58873 0.59052 0.93724 0.0
C1540 C 0.5874 0.59733 0.91804 0.0
C1541 C 0.58167 0.58905 0.89824 0.0
C1542 C 0.58535 0.56777 0.95652 0.0
C1543 C 0.5922 0.61341 0.91834 0.0
H1544 H 0.58517 0.60897 0.00621 0.0
H1545 H 0.62731 0.61852 0.98657 0.0
H1546 H 0.56784 0.5974 0.95391 0.0
H1547 H 0.56519 0.58147 0.96775 0.0
H1548 H 0.56461 0.59588 0.9833 0.0
H1549 H 0.63148 0.61108 0.95208 0.0
H1550 H 0.61695 0.59322 0.94363 0.0
H1551 H 0.61891 0.60898 0.93006 0.0
H1552 H 0.57493 0.55584 0.91565 0.0
H1553 H 0.58094 0.59434 0.88342 0.0
H1554 H 0.57929 0.56899 0.97034 0.0
H1555 H 0.59678 0.57287 0.96226 0.0
H1556 H 0.58115 0.55594 0.95313 0.0
H1557 H 0.58651 0.61594 0.93137 0.0
H1558 H 0.59013 0.61697 0.90212 0.0
H1559 H 0.60389 0.61993 0.92253 0.0
C1560 C 0.01444 0.61935 0.96767 0.0
C1561 C 0.00401 0.62248 0.97557 0.0
C1562 C 0.01213 0.61127 0.9478 0.0
C1563 C 0.99903 0.6061 0.93553 0.0
C1564 C 0.98856 0.60946 0.94312 0.0
C1565 C 0.99119 0.61765 0.96301 0.0
C1566 C 0.02362 0.60805 0.94014 0.0
C1567 C 0.97444 0.60409 0.93049 0.0
C1568 C 0.99828 0.59479 0.87512 0.0
C1569 C 0.99216 0.57959 0.87638 0.0
C1570 C 0.0004 0.60353 0.89417 0.0
C1571 C 0.99621 0.59692 0.91501 0.0
C1572 C 0.98979 0.58156 0.91638 0.0
C1573 C 0.98787 0.57309 0.89706 0.0
C1574 C 0.00729 0.61986 0.89204 0.0
C1575 C 0.98516 0.57411 0.93832 0.0
H1576 H 0.02441 0.62309 0.97714 0.0
H1577 H 0.98304 0.61996 0.96898 0.0
H1578 H 0.01933 0.59608 0.93964 0.0
H1579 H 0.02675 0.61193 0.92304 0.0
H1580 H 0.03341 0.61329 0.95119 0.0
H1581 H 0.96765 0.60806 0.93819 0.0
H1582 H 0.97644 0.60773 0.9131 0.0
H1583 H 0.96834 0.59197 0.92985 0.0
H1584 H 0.00137 0.59987 0.85915 0.0
H1585 H 0.98326 0.56138 0.89823 0.0
H1586 H 0.01752 0.62546 0.90202 0.0
H1587 H 0.00013 0.62368 0.89871 0.0
H1588 H 0.00963 0.62326 0.87455 0.0
H1589 H 0.99468 0.57795 0.94972 0.0
H1590 H 0.97977 0.56203 0.93642 0.0
H1591 H 0.97766 0.57702 0.94632 0.0
C1592 C 0.4015 0.40227 0.93022 0.0
C1593 C 0.38987 0.40114 0.94204 0.0
C1594 C 0.40869 0.41343 0.91513 0.0
C1595 C 0.404 0.42362 0.91154 0.0
C1596 C 0.39276 0.42302 0.92426 0.0
C1597 C 0.38586 0.41181 0.93946 0.0
C1598 C 0.42078 0.41381 0.90211 0.0
C1599 C 0.38743 0.43364 0.92085 0.0
C1600 C 0.42872 0.45596 0.87689 0.0
C1601 C 0.42304 0.4505 0.8555 0.0
C1602 C 0.42224 0.44763 0.89561 0.0
C1603 C 0.40977 0.43367 0.89268 0.0
C1604 C 0.40351 0.42861 0.87115 0.0
C1605 C 0.4103 0.43705 0.85281 0.0
C1606 C 0.42925 0.45336 0.91827 0.0
C1607 C 0.3901 0.41389 0.86732 0.0
H1608 H 0.40472 0.39414 0.93214 0.0
H1609 H 0.37689 0.41104 0.94856 0.0
H1610 H 0.41724 0.41077 0.88445 0.0
H1611 H 0.43026 0.42501 0.90259 0.0
H1612 H 0.42416 0.40617 0.90856 0.0
H1613 H 0.38002 0.43298 0.93401 0.0
H1614 H 0.39659 0.445 0.92055 0.0
H1615 H 0.3816 0.43121 0.90454 0.0
H1616 H 0.43865 0.46633 0.87887 0.0
H1617 H 0.40593 0.43291 0.83619 0.0
H1618 H 0.43437 0.44705 0.92394 0.0
H1619 H 0.42109 0.4519 0.93058 0.0
H1620 H 0.43763 0.4651 0.91814 0.0
H1621 H 0.39256 0.40511 0.871 0.0
H1622 H 0.38583 0.41224 0.84993 0.0
H1623 H 0.38156 0.41269 0.87866 0.0
C1624 C 0.5798 0.97944 0.98282 0.0
C1625 C 0.59473 0.98503 0.98388 0.0
C1626 C 0.57239 0.97692 0.96235 0.0
C1627 C 0.58004 0.97971 0.94243 0.0
C1628 C 0.59511 0.98526 0.94338 0.0
C1629 C 0.60231 0.98803 0.96413 0.0
C1630 C 0.55638 0.97134 0.96204 0.0
C1631 C 0.60358 0.98808 0.92248 0.0
C1632 C 0.55838 0.96008 0.88988 0.0
C1633 C 0.55734 0.97124 0.8792 0.0
C1634 C 0.56591 0.96274 0.91029 0.0
C1635 C 0.57225 0.9768 0.92061 0.0
C1636 C 0.57105 0.98805 0.91019 0.0
C1637 C 0.56379 0.98519 0.88951 0.0
C1638 C 0.56713 0.95052 0.92077 0.0
C1639 C 0.57746 0.00312 0.92088 0.0
H1640 H 0.57392 0.97724 0.99807 0.0
H1641 H 0.61384 0.99225 0.96488 0.0
H1642 H 0.55399 0.97896 0.95294 0.0
H1643 H 0.55054 0.9606 0.95309 0.0
H1644 H 0.55211 0.97011 0.97902 0.0
H1645 H 0.61519 0.99216 0.92608 0.0
H1646 H 0.59914 0.97786 0.91217 0.0
H1647 H 0.60257 0.99622 0.91243 0.0
H1648 H 0.55325 0.9492 0.88234 0.0
H1649 H 0.56336 0.994 0.8813 0.0
H1650 H 0.56191 0.94803 0.9371 0.0
H1651 H 0.57864 0.95394 0.92383 0.0
H1652 H 0.56205 0.94037 0.9102 0.0
H1653 H 0.57316 0.00238 0.93772 0.0
H1654 H 0.57513 0.01051 0.91099 0.0
H1655 H 0.58931 0.00809 0.92287 0.0
C1656 C 0.59846 0.00439 0.08811 0.0
C1657 C 0.60716 0.0151 0.07322 0.0
C1658 C 0.59073 0.00716 0.10407 0.0
C1659 C 0.5917 0.021 0.1052 0.0
C1660 C 0.59981 0.0316 0.08944 0.0
C1661 C 0.60749 0.02854 0.07362 0.0
C1662 C 0.58217 0.99553 0.12055 0.0
C1663 C 0.60098 0.04643 0.09001 0.0
C1664 C 0.56443 0.02234 0.14292 0.0
C1665 C 0.57231 0.02699 0.16315 0.0
C1666 C 0.57084 0.02119 0.12343 0.0
C1667 C 0.58543 0.02471 0.1243 0.0
C1668 C 0.59364 0.03022 0.14438 0.0
C1669 C 0.58697 0.03128 0.16355 0.0
C1670 C 0.5618 0.01544 0.10226 0.0
C1671 C 0.60922 0.03407 0.14601 0.0
H1672 H 0.59814 0.99399 0.08798 0.0
H1673 H 0.61414 0.03686 0.0621 0.0
H1674 H 0.58723 0.99923 0.13739 0.0
H1675 H 0.57105 0.99366 0.12131 0.0
H1676 H 0.58158 0.98497 0.11632 0.0
H1677 H 0.60599 0.05265 0.07489 0.0
H1678 H 0.5902 0.04533 0.09165 0.0
H1679 H 0.60765 0.05286 0.10473 0.0
H1680 H 0.55314 0.01921 0.14246 0.0
H1681 H 0.59309 0.03471 0.17915 0.0
H1682 H 0.55952 0.00415 0.09857 0.0
H1683 H 0.56769 0.02219 0.08804 0.0
H1684 H 0.55137 0.01523 0.1035 0.0
H1685 H 0.60991 0.02398 0.1441 0.0
H1686 H 0.61445 0.03953 0.16218 0.0
H1687 H 0.61539 0.04138 0.13246 0.0
C1688 C 0.00296 0.61112 0.07607 0.0
C1689 C 0.9905 0.61162 0.07029 0.0
C1690 C 0.00246 0.60077 0.09084 0.0
C1691 C 0.98922 0.59089 0.10039 0.0
C1692 C 0.97648 0.59088 0.09381 0.0
C1693 C 0.97726 0.60118 0.07867 0.0
C1694 C 0.01623 0.60094 0.09711 0.0
C1695 C 0.96219 0.58064 0.10382 0.0
C1696 C 0.98573 0.55894 0.13334 0.0
C1697 C 0.98842 0.56484 0.15507 0.0
C1698 C 0.98615 0.56734 0.11523 0.0
C1699 C 0.98902 0.58181 0.1191 0.0
C1700 C 0.99164 0.58774 0.14106 0.0
C1701 C 0.99141 0.57921 0.15874 0.0
C1702 C 0.98355 0.56077 0.092 0.0
C1703 C 0.99452 0.60305 0.14594 0.0
H1704 H 0.0132 0.61904 0.06954 0.0
H1705 H 0.96758 0.6015 0.07429 0.0
H1706 H 0.01955 0.60521 0.11444 0.0
H1707 H 0.01455 0.5897 0.0964 0.0
H1708 H 0.02516 0.60789 0.08607 0.0
H1709 H 0.9531 0.58101 0.09537 0.0
H1710 H 0.96007 0.56924 0.10294 0.0
H1711 H 0.96251 0.58366 0.12164 0.0
H1712 H 0.98345 0.54782 0.13054 0.0
H1713 H 0.99325 0.58369 0.17559 0.0
H1714 H 0.99289 0.56765 0.08163 0.0
H1715 H 0.97399 0.56051 0.08417 0.0
H1716 H 0.9818 0.54949 0.09178 0.0
H1717 H 0.00428 0.61107 0.1373 0.0
H1718 H 0.99613 0.60592 0.16399 0.0
H1719 H 0.98538 0.60419 0.13957 0.0
C1720 C 0.41803 0.39637 0.03417 0.0
C1721 C 0.40332 0.38603 0.03169 0.0
C1722 C 0.42452 0.40162 0.05529 0.0
C1723 C 0.41617 0.39615 0.07441 0.0
C1724 C 0.40131 0.3857 0.07203 0.0
C1725 C 0.39503 0.38088 0.05068 0.0
C1726 C 0.44031 0.41302 0.05712 0.0
C1727 C 0.39212 0.37941 0.09205 0.0
C1728 C 0.43628 0.39917 0.12858 0.0
C1729 C 0.43624 0.41096 0.13964 0.0
C1730 C 0.42962 0.39413 0.10752 0.0
C1731 C 0.42304 0.40124 0.09692 0.0
C1732 C 0.42313 0.41326 0.10776 0.0
C1733 C 0.42956 0.41786 0.12906 0.0
C1734 C 0.4296 0.38115 0.09661 0.0
C1735 C 0.41642 0.42127 0.09684 0.0
H1736 H 0.42447 0.40049 0.01955 0.0
H1737 H 0.38367 0.37283 0.04887 0.0
H1738 H 0.44176 0.42274 0.0667 0.0
H1739 H 0.44632 0.40865 0.06629 0.0
H1740 H 0.44515 0.41654 0.04061 0.0
H1741 H 0.38075 0.37134 0.08736 0.0
H1742 H 0.39657 0.37396 0.1025 0.0
H1743 H 0.39231 0.38827 0.10241 0.0
H1744 H 0.44162 0.39391 0.13632 0.0
H1745 H 0.42918 0.42678 0.13751 0.0
H1746 H 0.43545 0.3844 0.08084 0.0
H1747 H 0.41838 0.37248 0.0924 0.0
H1748 H 0.43471 0.3765 0.10741 0.0
H1749 H 0.42133 0.42531 0.08053 0.0
H1750 H 0.41779 0.43071 0.10719 0.0
H1751 H 0.40474 0.41372 0.09364 0.0
C1752 C 0.6506 0.71909 0.37433 0.0
C1753 C 0.65875 0.71206 0.37294 0.0
C1754 C 0.6493 0.72506 0.39452 0.0
C1755 C 0.65623 0.72391 0.41394 0.0
C1756 C 0.66442 0.71678 0.41277 0.0
C1757 C 0.66563 0.71099 0.39225 0.0
C1758 C 0.64057 0.73268 0.39502 0.0
C1759 C 0.67187 0.71527 0.43319 0.0
C1760 C 0.6632 0.75115 0.46116 0.0
C1761 C 0.65153 0.74299 0.47482 0.0
C1762 C 0.66499 0.745 0.44149 0.0
C1763 C 0.65492 0.73031 0.43539 0.0
C1764 C 0.64321 0.72196 0.44925 0.0
C1765 C 0.64162 0.72842 0.46875 0.0
C1766 C 0.67752 0.75432 0.42702 0.0
C1767 C 0.6323 0.70623 0.44339 0.0
H1768 H 0.64528 0.72007 0.35954 0.0
H1769 H 0.67192 0.70556 0.39139 0.0
H1770 H 0.63165 0.72725 0.40674 0.0
H1771 H 0.64743 0.74416 0.40109 0.0
H1772 H 0.6359 0.73269 0.37842 0.0
H1773 H 0.67766 0.70926 0.42957 0.0
H1774 H 0.67971 0.72624 0.44029 0.0
H1775 H 0.66387 0.70943 0.4461 0.0
H1776 H 0.67082 0.76245 0.46569 0.0
H1777 H 0.6327 0.72202 0.47942 0.0
H1778 H 0.67346 0.75546 0.41055 0.0
H1779 H 0.68402 0.74898 0.42416 0.0
H1780 H 0.68465 0.7654 0.43448 0.0
H1781 H 0.62662 0.70559 0.42748 0.0
H1782 H 0.62417 0.70107 0.45639 0.0
H1783 H 0.63782 0.69983 0.44098 0.0
C1784 C 0.28369 0.94297 0.44524 0.0
C1785 C 0.28691 0.94104 0.42346 0.0
C1786 C 0.27608 0.93096 0.45876 0.0
C1787 C 0.27109 0.91666 0.44994 0.0
C1788 C 0.27374 0.91464 0.42758 0.0
C1789 C 0.28191 0.92691 0.41472 0.0
C1790 C 0.27381 0.93361 0.48269 0.0
C1791 C 0.26805 0.89956 0.41733 0.0
C1792 C 0.26439 0.88789 0.49215 0.0
C1793 C 0.24983 0.88255 0.49684 0.0
C1794 C 0.27137 0.89875 0.4765 0.0
C1795 C 0.26348 0.90394 0.46447 0.0
C1796 C 0.24856 0.8978 0.46777 0.0
C1797 C 0.24199 0.88742 0.48419 0.0
C1798 C 0.28738 0.90523 0.47378 0.0
C1799 C 0.23965 0.90268 0.45468 0.0
H1800 H 0.28768 0.95394 0.452 0.0
H1801 H 0.28432 0.92545 0.39777 0.0
H1802 H 0.26213 0.92807 0.48599 0.0
H1803 H 0.27867 0.92889 0.49385 0.0
H1804 H 0.27863 0.94541 0.48706 0.0
H1805 H 0.26999 0.89985 0.39924 0.0
H1806 H 0.2733 0.89405 0.42555 0.0
H1807 H 0.25631 0.8928 0.4199 0.0
H1808 H 0.27051 0.88395 0.5012 0.0
H1809 H 0.23081 0.88365 0.48766 0.0
H1810 H 0.29304 0.91695 0.47898 0.0
H1811 H 0.28978 0.90462 0.45609 0.0
H1812 H 0.29186 0.89962 0.4838 0.0
H1813 H 0.24237 0.9138 0.46048 0.0
H1814 H 0.22791 0.89525 0.45659 0.0
H1815 H 0.24207 0.90323 0.43677 0.0
C1816 C 0.05815 0.32927 0.38762 0.0
C1817 C 0.06738 0.33805 0.37115 0.0
C1818 C 0.06364 0.32748 0.4079 0.0
C1819 C 0.07872 0.33462 0.41184 0.0
C1820 C 0.0881 0.34371 0.39551 0.0
C1821 C 0.08233 0.34534 0.37538 0.0
C1822 C 0.05328 0.31774 0.42496 0.0
C1823 C 0.10425 0.3515 0.39914 0.0
C1824 C 0.09198 0.33834 0.47179 0.0
C1825 C 0.09426 0.32643 0.47327 0.0
C1826 C 0.08719 0.34132 0.45178 0.0
C1827 C 0.08464 0.33218 0.4328 0.0
C1828 C 0.08726 0.32034 0.43406 0.0
C1829 C 0.09202 0.3176 0.45429 0.0
C1830 C 0.08447 0.35401 0.4511 0.0
C1831 C 0.08476 0.31041 0.41414 0.0
H1832 H 0.04659 0.32362 0.3846 0.0
H1833 H 0.08957 0.35215 0.36281 0.0
H1834 H 0.05499 0.3084 0.42797 0.0
H1835 H 0.05531 0.32386 0.441 0.0
H1836 H 0.04185 0.3134 0.41966 0.0
H1837 H 0.11006 0.35859 0.38514 0.0
H1838 H 0.10741 0.35832 0.41466 0.0
H1839 H 0.10783 0.34338 0.40115 0.0
H1840 H 0.09353 0.34509 0.48648 0.0
H1841 H 0.09394 0.30849 0.45528 0.0
H1842 H 0.07286 0.34991 0.44758 0.0
H1843 H 0.09052 0.36134 0.43749 0.0
H1844 H 0.08765 0.3605 0.46698 0.0
H1845 H 0.07322 0.30475 0.40885 0.0
H1846 H 0.08784 0.30204 0.41764 0.0
H1847 H 0.09104 0.3169 0.39997 0.0
C1848 C 0.05727 0.30386 0.28128 0.0
C1849 C 0.05598 0.31629 0.27836 0.0
C1850 C 0.06592 0.30088 0.2673 0.0
C1851 C 0.07304 0.31035 0.24973 0.0
C1852 C 0.07178 0.32293 0.24684 0.0
C1853 C 0.06342 0.32582 0.26136 0.0
C1854 C 0.06738 0.28762 0.27121 0.0
C1855 C 0.07899 0.3332 0.22808 0.0
C1856 C 0.10495 0.31503 0.218 0.0
C1857 C 0.09827 0.30815 0.19768 0.0
C1858 C 0.09671 0.3144 0.23623 0.0
C1859 C 0.08151 0.30714 0.23367 0.0
C1860 C 0.07474 0.29916 0.21371 0.0
C1861 C 0.08325 0.29967 0.19596 0.0
C1862 C 0.10432 0.32267 0.25745 0.0
C1863 C 0.0586 0.29149 0.21014 0.0
H1864 H 0.05159 0.29652 0.29453 0.0
H1865 H 0.06237 0.33539 0.25895 0.0
H1866 H 0.06255 0.27978 0.2569 0.0
H1867 H 0.07893 0.29083 0.27252 0.0
H1868 H 0.06202 0.28198 0.28656 0.0
H1869 H 0.07666 0.34232 0.22793 0.0
H1870 H 0.09083 0.33792 0.22952 0.0
H1871 H 0.07531 0.32712 0.21189 0.0
H1872 H 0.1166 0.32157 0.21923 0.0
H1873 H 0.07814 0.29448 0.18011 0.0
H1874 H 0.09858 0.31645 0.27217 0.0
H1875 H 0.10447 0.33323 0.25816 0.0
H1876 H 0.11563 0.32499 0.25847 0.0
H1877 H 0.05303 0.28516 0.22486 0.0
H1878 H 0.05494 0.28398 0.19531 0.0
H1879 H 0.05524 0.29975 0.20772 0.0
C1880 C 0.6994 0.73961 0.28511 0.0
C1881 C 0.68546 0.72742 0.28516 0.0
C1882 C 0.70275 0.75124 0.27096 0.0
C1883 C 0.69188 0.75067 0.2566 0.0
C1884 C 0.67765 0.7387 0.25731 0.0
C1885 C 0.67463 0.7272 0.27151 0.0
C1886 C 0.71805 0.7638 0.27065 0.0
C1887 C 0.66574 0.73774 0.24236 0.0
C1888 C 0.69663 0.78414 0.22682 0.0
C1889 C 0.69989 0.78154 0.20534 0.0
C1890 C 0.69442 0.77443 0.24394 0.0
C1891 C 0.69557 0.76188 0.23948 0.0
C1892 C 0.69942 0.75951 0.2181 0.0
C1893 C 0.70147 0.76932 0.2013 0.0
C1894 C 0.69035 0.77733 0.26655 0.0
C1895 C 0.70081 0.74627 0.21268 0.0
H1896 H 0.70784 0.73988 0.29563 0.0
H1897 H 0.66385 0.71784 0.27139 0.0
H1898 H 0.72285 0.76358 0.25458 0.0
H1899 H 0.71826 0.77438 0.27206 0.0
H1900 H 0.72488 0.76333 0.28431 0.0
H1901 H 0.65504 0.72836 0.24626 0.0
H1902 H 0.66523 0.74793 0.24388 0.0
H1903 H 0.668 0.7365 0.22479 0.0
H1904 H 0.69556 0.79365 0.23016 0.0
H1905 H 0.70373 0.76704 0.1847 0.0
H1906 H 0.69752 0.77689 0.27964 0.0
H1907 H 0.67919 0.76871 0.27001 0.0
H1908 H 0.69097 0.78812 0.26781 0.0
H1909 H 0.70824 0.74548 0.22488 0.0
H1910 H 0.70486 0.74657 0.19574 0.0
H1911 H 0.69016 0.73622 0.21383 0.0
C1912 C 0.25642 0.94812 0.33533 0.0
C1913 C 0.27136 0.95389 0.33777 0.0
C1914 C 0.24886 0.94031 0.3159 0.0
C1915 C 0.25641 0.93816 0.29855 0.0
C1916 C 0.27153 0.94434 0.30061 0.0
C1917 C 0.27881 0.95215 0.32014 0.0
C1918 C 0.23275 0.93399 0.3142 0.0
C1919 C 0.27997 0.94229 0.28248 0.0
C1920 C 0.23744 0.90515 0.25925 0.0
C1921 C 0.23597 0.9114 0.23974 0.0
C1922 C 0.24367 0.91366 0.2787 0.0
C1923 C 0.24848 0.92881 0.27871 0.0
C1924 C 0.24649 0.93508 0.25936 0.0
C1925 C 0.24029 0.92631 0.24008 0.0
C1926 C 0.24555 0.90654 0.29903 0.0
C1927 C 0.25142 0.95117 0.25877 0.0
H1928 H 0.25055 0.94944 0.34878 0.0
H1929 H 0.29035 0.95658 0.32176 0.0
H1930 H 0.22971 0.93728 0.29855 0.0
H1931 H 0.22729 0.92189 0.31373 0.0
H1932 H 0.22864 0.93753 0.3284 0.0
H1933 H 0.29175 0.94833 0.28625 0.0
H1934 H 0.2764 0.93051 0.28023 0.0
H1935 H 0.27791 0.94604 0.26647 0.0
H1936 H 0.2339 0.89358 0.25921 0.0
H1937 H 0.23932 0.93125 0.22502 0.0
H1938 H 0.2407 0.90883 0.31357 0.0
H1939 H 0.25719 0.9112 0.30305 0.0
H1940 H 0.24056 0.89452 0.29665 0.0
H1941 H 0.24716 0.95445 0.27304 0.0
H1942 H 0.24794 0.9541 0.24314 0.0
H1943 H 0.26335 0.95761 0.26027 0.0
C1944 C 0.68131 0.9596 0.29652 0.0
C1945 C 0.68533 0.95569 0.31638 0.0
C1946 C 0.68258 0.95393 0.27594 0.0
C1947 C 0.68762 0.94384 0.27533 0.0
C1948 C 0.69135 0.9396 0.2954 0.0
C1949 C 0.69033 0.94572 0.31564 0.0
C1950 C 0.6788 0.95894 0.25485 0.0
C1951 C 0.69641 0.9286 0.2955 0.0
C1952 C 0.6793 0.91928 0.22392 0.0
C1953 C 0.69263 0.92586 0.21344 0.0
C1954 C 0.67752 0.925 0.24405 0.0
C1955 C 0.68922 0.93783 0.25373 0.0
C1956 C 0.70262 0.94468 0.24314 0.0
C1957 C 0.70421 0.93852 0.22332 0.0
C1958 C 0.66314 0.91722 0.25507 0.0
C1959 C 0.71531 0.9585 0.2528 0.0
H1960 H 0.67751 0.96736 0.29704 0.0
H1961 H 0.69329 0.94254 0.33098 0.0
H1962 H 0.68836 0.96417 0.24424 0.0
H1963 H 0.67023 0.94943 0.24523 0.0
H1964 H 0.67506 0.96685 0.25817 0.0
H1965 H 0.69829 0.92601 0.3126 0.0
H1966 H 0.68831 0.91833 0.28679 0.0
H1967 H 0.70658 0.93286 0.2864 0.0
H1968 H 0.67017 0.9097 0.2163 0.0
H1969 H 0.71463 0.94359 0.21569 0.0
H1970 H 0.65868 0.92463 0.25687 0.0
H1971 H 0.66453 0.91408 0.27203 0.0
H1972 H 0.65517 0.90723 0.24555 0.0
H1973 H 0.71223 0.96696 0.25559 0.0
H1974 H 0.72472 0.96296 0.24183 0.0
H1975 H 0.71863 0.95631 0.26916 0.0
C1976 C 0.06061 0.73787 0.26345 0.0
C1977 C 0.05147 0.73884 0.2789 0.0
C1978 C 0.06834 0.74917 0.24881 0.0
C1979 C 0.06684 0.76172 0.24953 0.0
C1980 C 0.05806 0.76303 0.26562 0.0
C1981 C 0.05047 0.75156 0.28015 0.0
C1982 C 0.07767 0.74739 0.23197 0.0
C1983 C 0.05623 0.77628 0.26689 0.0
C1984 C 0.09505 0.79361 0.21784 0.0
C1985 C 0.08811 0.79128 0.19696 0.0
C1986 C 0.08801 0.78453 0.23558 0.0
C1987 C 0.07369 0.77289 0.23234 0.0
C1988 C 0.06636 0.77103 0.21172 0.0
C1989 C 0.07366 0.78022 0.19427 0.0
C1990 C 0.09615 0.78691 0.25737 0.0
C1991 C 0.05106 0.75877 0.20762 0.0
H1992 H 0.06143 0.72808 0.26228 0.0
H1993 H 0.04344 0.7524 0.29206 0.0
H1994 H 0.07317 0.74671 0.21497 0.0
H1995 H 0.0887 0.75702 0.23279 0.0
H1996 H 0.07842 0.73741 0.23456 0.0
H1997 H 0.05017 0.77627 0.28167 0.0
H1998 H 0.06688 0.78643 0.26745 0.0
H1999 H 0.05032 0.77654 0.25176 0.0
H2000 H 0.10615 0.80228 0.22012 0.0
H2001 H 0.06826 0.77822 0.17815 0.0
H2002 H 0.09846 0.77789 0.25968 0.0
H2003 H 0.08955 0.78677 0.27146 0.0
H2004 H 0.10652 0.79742 0.25809 0.0
H2005 H 0.05079 0.74815 0.20756 0.0
H2006 H 0.04643 0.75971 0.1915 0.0
H2007 H 0.0441 0.75863 0.22113 0.0
C2008 C 0.27871 0.35513 0.30832 0.0
C2009 C 0.27255 0.34131 0.31768 0.0
C2010 C 0.27357 0.35711 0.28786 0.0
C2011 C 0.26225 0.3449 0.27623 0.0
C2012 C 0.25618 0.33087 0.28539 0.0
C2013 C 0.26128 0.32927 0.30618 0.0
C2014 C 0.2801 0.3723 0.27886 0.0
C2015 C 0.24436 0.31754 0.27319 0.0
C2016 C 0.24005 0.35134 0.23283 0.0
C2017 C 0.24691 0.35128 0.21333 0.0
C2018 C 0.24498 0.34935 0.25349 0.0
C2019 C 0.25679 0.34686 0.25446 0.0
C2020 C 0.26355 0.34651 0.23465 0.0
C2021 C 0.25863 0.34891 0.21431 0.0
C2022 C 0.23771 0.35013 0.27429 0.0
C2023 C 0.27595 0.34355 0.23494 0.0
H2024 H 0.28733 0.3645 0.31727 0.0
H2025 H 0.25656 0.31856 0.31332 0.0
H2026 H 0.28488 0.37267 0.26253 0.0
H2027 H 0.2716 0.37521 0.27616 0.0
H2028 H 0.2886 0.38067 0.29022 0.0
H2029 H 0.24112 0.30735 0.28227 0.0
H2030 H 0.23475 0.31877 0.27069 0.0
H2031 H 0.24797 0.31642 0.25649 0.0
H2032 H 0.231 0.35321 0.2319 0.0
H2033 H 0.26381 0.34876 0.19908 0.0
H2034 H 0.2457 0.3589 0.28573 0.0
H2035 H 0.23332 0.33971 0.28315 0.0
H2036 H 0.22879 0.35234 0.27069 0.0
H2037 H 0.28519 0.35226 0.24478 0.0
H2038 H 0.27959 0.34301 0.21798 0.0
H2039 H 0.27273 0.33307 0.24311 0.0
C2040 C 0.27831 0.3713 0.41702 0.0
C2041 C 0.27774 0.35784 0.4139 0.0
C2042 C 0.26976 0.37304 0.43282 0.0
C2043 C 0.26058 0.36108 0.44588 0.0
C2044 C 0.25939 0.34728 0.44192 0.0
C2045 C 0.26795 0.34582 0.42593 0.0
C2046 C 0.27113 0.38785 0.43635 0.0
C2047 C 0.24974 0.33425 0.45553 0.0
C2048 C 0.25321 0.36686 0.50525 0.0
C2049 C 0.2387 0.3631 0.50369 0.0
C2050 C 0.26065 0.36694 0.48634 0.0
C2051 C 0.25342 0.36322 0.46531 0.0
C2052 C 0.239 0.36018 0.46343 0.0
C2053 C 0.23177 0.36007 0.48271 0.0
C2054 C 0.276 0.37015 0.48907 0.0
C2055 C 0.23103 0.35639 0.44125 0.0
H2056 H 0.28578 0.38061 0.40767 0.0
H2057 H 0.26742 0.33538 0.42362 0.0
H2058 H 0.26034 0.38681 0.43739 0.0
H2059 H 0.27701 0.39283 0.45233 0.0
H2060 H 0.27706 0.39537 0.42284 0.0
H2061 H 0.24916 0.32404 0.44916 0.0
H2062 H 0.25387 0.33626 0.473 0.0
H2063 H 0.23868 0.33259 0.45561 0.0
H2064 H 0.25856 0.36902 0.52144 0.0
H2065 H 0.22058 0.3573 0.48143 0.0
H2066 H 0.28304 0.37867 0.47746 0.0
H2067 H 0.27651 0.36015 0.48495 0.0
H2068 H 0.28039 0.37389 0.50627 0.0
H2069 H 0.23771 0.3643 0.42864 0.0
H2070 H 0.22063 0.35626 0.44219 0.0
H2071 H 0.22878 0.34543 0.43539 0.0
C2072 C 0.65062 0.93259 0.41757 0.0
C2073 C 0.66306 0.94131 0.40576 0.0
C2074 C 0.65033 0.92263 0.43297 0.0
C2075 C 0.66269 0.92122 0.4362 0.0
C2076 C 0.67486 0.92922 0.42303 0.0
C2077 C 0.67493 0.93926 0.40808 0.0
C2078 C 0.63719 0.91439 0.44683 0.0
C2079 C 0.68813 0.92779 0.4256 0.0
C2080 C 0.67086 0.91236 0.49339 0.0
C2081 C 0.66644 0.8975 0.49082 0.0
C2082 C 0.66943 0.92008 0.47582 0.0
C2083 C 0.6636 0.91282 0.45506 0.0
C2084 C 0.65908 0.89779 0.45235 0.0
C2085 C 0.66043 0.89025 0.47038 0.0
C2086 C 0.6742 0.93606 0.4795 0.0
C2087 C 0.65302 0.88976 0.43036 0.0
H2088 H 0.64142 0.93417 0.41576 0.0
H2089 H 0.6844 0.94569 0.39849 0.0
H2090 H 0.63391 0.90265 0.44716 0.0
H2091 H 0.6398 0.91875 0.46421 0.0
H2092 H 0.62793 0.91538 0.44055 0.0
H2093 H 0.69588 0.9333 0.41223 0.0
H2094 H 0.69363 0.93274 0.44183 0.0
H2095 H 0.68512 0.91611 0.42549 0.0
H2096 H 0.67529 0.9179 0.50932 0.0
H2097 H 0.65704 0.87876 0.46842 0.0
H2098 H 0.66518 0.93799 0.47542 0.0
H2099 H 0.68309 0.94277 0.46829 0.0
H2100 H 0.67798 0.93991 0.4969 0.0
H2101 H 0.64354 0.89064 0.42503 0.0
H2102 H 0.64973 0.87801 0.43112 0.0
H2103 H 0.66119 0.89483 0.41742 0.0
C2104 C 0.08202 0.73196 0.3645 0.0
C2105 C 0.06716 0.72207 0.36422 0.0
C2106 C 0.08991 0.73738 0.38464 0.0
C2107 C 0.08281 0.73249 0.40496 0.0
C2108 C 0.06783 0.72237 0.40477 0.0
C2109 C 0.06014 0.71743 0.38439 0.0
C2110 C 0.10579 0.74843 0.38418 0.0
C2111 C 0.05995 0.71665 0.42608 0.0
C2112 C 0.10517 0.73553 0.4565 0.0
C2113 C 0.10565 0.74736 0.46827 0.0
C2114 C 0.0978 0.73059 0.43589 0.0
C2115 C 0.09106 0.73789 0.42645 0.0
C2116 C 0.0919 0.75014 0.43779 0.0
C2117 C 0.09902 0.7546 0.45866 0.0
C2118 C 0.09698 0.71737 0.42444 0.0
C2119 C 0.08509 0.75839 0.42806 0.0
H2120 H 0.08746 0.73568 0.34894 0.0
H2121 H 0.04867 0.7097 0.38424 0.0
H2122 H 0.10808 0.75851 0.39361 0.0
H2123 H 0.11211 0.74404 0.39238 0.0
H2124 H 0.10961 0.75139 0.36699 0.0
H2125 H 0.04835 0.70858 0.42304 0.0
H2126 H 0.06495 0.7114 0.43571 0.0
H2127 H 0.06084 0.72582 0.43654 0.0
H2128 H 0.1105 0.73002 0.46345 0.0
H2129 H 0.09906 0.76359 0.46764 0.0
H2130 H 0.10168 0.72023 0.40776 0.0
H2131 H 0.08555 0.70869 0.42199 0.0
H2132 H 0.10275 0.71288 0.43405 0.0
H2133 H 0.08888 0.76174 0.41098 0.0
H2134 H 0.08758 0.76828 0.43821 0.0
H2135 H 0.07322 0.75119 0.42683 0.0
C2136 C 0.30669 0.04174 0.71293 0.0
C2137 C 0.32029 0.04454 0.70631 0.0
C2138 C 0.30492 0.04688 0.73359 0.0
C2139 C 0.31712 0.05537 0.74772 0.0
C2140 C 0.33088 0.05815 0.74119 0.0
C2141 C 0.33227 0.05252 0.72067 0.0
C2142 C 0.29002 0.04333 0.7402 0.0
C2143 C 0.34418 0.06742 0.7556 0.0
C2144 C 0.31422 0.08096 0.7897 0.0
C2145 C 0.31237 0.0735 0.80944 0.0
C2146 C 0.31599 0.07527 0.76952 0.0
C2147 C 0.31551 0.06163 0.76907 0.0
C2148 C 0.31338 0.05395 0.78897 0.0
C2149 C 0.31202 0.06008 0.80899 0.0
C2150 C 0.31854 0.08393 0.74875 0.0
C2151 C 0.31243 0.03922 0.78908 0.0
H2152 H 0.29738 0.03546 0.70193 0.0
H2153 H 0.34281 0.05481 0.71551 0.0
H2154 H 0.28756 0.03818 0.75665 0.0
H2155 H 0.28952 0.05353 0.74181 0.0
H2156 H 0.28156 0.03586 0.72793 0.0
H2157 H 0.35407 0.06847 0.74821 0.0
H2158 H 0.34564 0.0785 0.75811 0.0
H2159 H 0.34293 0.06264 0.77223 0.0
H2160 H 0.31461 0.0914 0.79017 0.0
H2161 H 0.31053 0.05432 0.82433 0.0
H2162 H 0.30979 0.07756 0.73622 0.0
H2163 H 0.32879 0.08607 0.74133 0.0
H2164 H 0.31905 0.09455 0.75206 0.0
H2165 H 0.30366 0.03149 0.77745 0.0
H2166 H 0.31036 0.0345 0.80586 0.0
H2167 H 0.32261 0.04019 0.7832 0.0
C2168 C 0.94205 0.26397 0.75725 0.0
C2169 C 0.94419 0.27819 0.7575 0.0
C2170 C 0.93212 0.25339 0.7713 0.0
C2171 C 0.92437 0.25723 0.78613 0.0
C2172 C 0.92622 0.27145 0.78599 0.0
C2173 C 0.93603 0.28172 0.77156 0.0
C2174 C 0.93024 0.23826 0.77074 0.0
C2175 C 0.91828 0.27602 0.80175 0.0
C2176 C 0.89143 0.22921 0.81597 0.0
C2177 C 0.89743 0.22939 0.83691 0.0
C2178 C 0.90017 0.23774 0.79886 0.0
C2179 C 0.91516 0.24684 0.80302 0.0
C2180 C 0.92128 0.24679 0.82401 0.0
C2181 C 0.91234 0.23799 0.84065 0.0
C2182 C 0.89331 0.23734 0.77656 0.0
C2183 C 0.93719 0.25649 0.82921 0.0
H2184 H 0.94826 0.26116 0.74628 0.0
H2185 H 0.93767 0.2927 0.77189 0.0
H2186 H 0.93447 0.23641 0.78654 0.0
H2187 H 0.91864 0.2299 0.7692 0.0
H2188 H 0.93595 0.2366 0.75677 0.0
H2189 H 0.92042 0.28727 0.79879 0.0
H2190 H 0.90651 0.26838 0.80006 0.0
H2191 H 0.92161 0.27558 0.81913 0.0
H2192 H 0.8799 0.22247 0.81304 0.0
H2193 H 0.91697 0.23829 0.85694 0.0
H2194 H 0.89913 0.23542 0.76306 0.0
H2195 H 0.89409 0.24804 0.77372 0.0
H2196 H 0.88178 0.2287 0.77536 0.0
H2197 H 0.94359 0.25453 0.81677 0.0
H2198 H 0.94033 0.25466 0.84601 0.0
H2199 H 0.94012 0.26812 0.82829 0.0
C2200 C 0.75583 0.68923 0.71335 0.0
C2201 C 0.74094 0.68378 0.71134 0.0
C2202 C 0.76268 0.69152 0.73429 0.0
C2203 C 0.7545 0.68864 0.75366 0.0
C2204 C 0.73949 0.68329 0.75173 0.0
C2205 C 0.73286 0.68074 0.73057 0.0
C2206 C 0.77864 0.69689 0.73567 0.0
C2207 C 0.73047 0.68039 0.77203 0.0
C2208 C 0.76857 0.68218 0.80805 0.0
C2209 C 0.77472 0.69598 0.81878 0.0
C2210 C 0.76222 0.67972 0.78669 0.0
C2211 C 0.76164 0.69122 0.77597 0.0
C2212 C 0.76776 0.70515 0.78665 0.0
C2213 C 0.77439 0.70742 0.80777 0.0
C2214 C 0.75603 0.66477 0.77566 0.0
C2215 C 0.76717 0.71764 0.77586 0.0
H2216 H 0.76209 0.69146 0.69851 0.0
H2217 H 0.72137 0.67663 0.72908 0.0
H2218 H 0.78435 0.70751 0.74498 0.0
H2219 H 0.78063 0.68905 0.74492 0.0
H2220 H 0.78338 0.69828 0.71901 0.0
H2221 H 0.719 0.67657 0.76767 0.0
H2222 H 0.731 0.67201 0.78217 0.0
H2223 H 0.73481 0.6905 0.78257 0.0
H2224 H 0.76849 0.67317 0.81647 0.0
H2225 H 0.77933 0.71819 0.81563 0.0
H2226 H 0.76079 0.66568 0.75913 0.0
H2227 H 0.74424 0.65988 0.7729 0.0
H2228 H 0.75803 0.65722 0.78573 0.0
H2229 H 0.77281 0.72014 0.7599 0.0
H2230 H 0.77215 0.72772 0.78659 0.0
H2231 H 0.7558 0.71449 0.77204 0.0
C2232 C 0.73812 0.66333 0.60655 0.0
C2233 C 0.72929 0.65302 0.62185 0.0
C2234 C 0.74516 0.65977 0.59034 0.0
C2235 C 0.74331 0.64555 0.58943 0.0
C2236 C 0.73527 0.63544 0.60581 0.0
C2237 C 0.72833 0.6393 0.62185 0.0
C2238 C 0.7537 0.67088 0.57322 0.0
C2239 C 0.73315 0.62022 0.60547 0.0
C2240 C 0.74352 0.63113 0.53161 0.0
C2241 C 0.75745 0.63314 0.53082 0.0
C2242 C 0.73873 0.63482 0.5508 0.0
C2243 C 0.7481 0.64071 0.56969 0.0
C2244 C 0.76209 0.64251 0.5692 0.0
C2245 C 0.76662 0.63873 0.54971 0.0
C2246 C 0.72374 0.63278 0.55061 0.0
C2247 C 0.77232 0.6487 0.58909 0.0
H2248 H 0.73897 0.67398 0.60646 0.0
H2249 H 0.7216 0.63131 0.63372 0.0
H2250 H 0.76426 0.67157 0.57098 0.0
H2251 H 0.74776 0.66745 0.55697 0.0
H2252 H 0.7556 0.68194 0.57785 0.0
H2253 H 0.72848 0.61447 0.62107 0.0
H2254 H 0.72576 0.61375 0.59138 0.0
H2255 H 0.74353 0.62054 0.60293 0.0
H2256 H 0.73647 0.62705 0.51695 0.0
H2257 H 0.77736 0.64019 0.54922 0.0
H2258 H 0.72439 0.64352 0.55292 0.0
H2259 H 0.7176 0.62592 0.56459 0.0
H2260 H 0.71762 0.62756 0.53485 0.0
H2261 H 0.77499 0.66012 0.59262 0.0
H2262 H 0.7825 0.64859 0.58649 0.0
H2263 H 0.76715 0.64237 0.60403 0.0
C2264 C 0.35828 0.07831 0.62385 0.0
C2265 C 0.34662 0.06434 0.61867 0.0
C2266 C 0.36094 0.0903 0.61095 0.0
C2267 C 0.35192 0.08817 0.59214 0.0
C2268 C 0.33987 0.07417 0.58728 0.0
C2269 C 0.33729 0.06247 0.60075 0.0
C2270 C 0.37367 0.10513 0.61698 0.0
C2271 C 0.33011 0.07138 0.56719 0.0
C2272 C 0.35147 0.11905 0.56147 0.0
C2273 C 0.36017 0.12055 0.54347 0.0
C2274 C 0.34928 0.10909 0.57818 0.0
C2275 C 0.35565 0.10019 0.57645 0.0
C2276 C 0.36479 0.10199 0.55862 0.0
C2277 C 0.36704 0.11225 0.54246 0.0
C2278 C 0.33976 0.10772 0.59722 0.0
C2279 C 0.37159 0.09255 0.55595 0.0
H2280 H 0.36546 0.07983 0.63781 0.0
H2281 H 0.32829 0.05169 0.59661 0.0
H2282 H 0.38201 0.10823 0.60429 0.0
H2283 H 0.37037 0.11354 0.61714 0.0
H2284 H 0.37857 0.10533 0.63346 0.0
H2285 H 0.32085 0.06003 0.5663 0.0
H2286 H 0.3259 0.07905 0.56743 0.0
H2287 H 0.33633 0.07333 0.55185 0.0
H2288 H 0.34621 0.12552 0.56227 0.0
H2289 H 0.3736 0.11325 0.52837 0.0
H2290 H 0.34511 0.10797 0.61329 0.0
H2291 H 0.32959 0.09707 0.59575 0.0
H2292 H 0.33705 0.11657 0.59756 0.0
H2293 H 0.37778 0.09319 0.57127 0.0
H2294 H 0.37893 0.09579 0.54172 0.0
H2295 H 0.36304 0.08097 0.55326 0.0
C2296 C 0.94643 0.2846 0.6485 0.0
C2297 C 0.93775 0.28667 0.66365 0.0
C2298 C 0.94059 0.27659 0.62852 0.0
C2299 C 0.9257 0.27047 0.62352 0.0
C2300 C 0.9169 0.27265 0.63854 0.0
C2301 C 0.92303 0.28074 0.65841 0.0
C2302 C 0.95034 0.27454 0.61287 0.0
C2303 C 0.90097 0.26628 0.63376 0.0
C2304 C 0.91305 0.2601 0.56327 0.0
C2305 C 0.90794 0.24501 0.56272 0.0
C2306 C 0.91873 0.26849 0.58298 0.0
C2307 C 0.91932 0.26164 0.60264 0.0
C2308 C 0.91405 0.2464 0.60227 0.0
C2309 C 0.90844 0.23827 0.5823 0.0
C2310 C 0.92431 0.28473 0.5827 0.0
C2311 C 0.91445 0.23871 0.62293 0.0
H2312 H 0.95781 0.28914 0.65232 0.0
H2313 H 0.91621 0.28224 0.66997 0.0
H2314 H 0.9466 0.26274 0.61052 0.0
H2315 H 0.94987 0.27876 0.59632 0.0
H2316 H 0.96173 0.28021 0.61905 0.0
H2317 H 0.89566 0.26917 0.64698 0.0
H2318 H 0.89922 0.27023 0.61771 0.0
H2319 H 0.89564 0.2542 0.63217 0.0
H2320 H 0.91289 0.26541 0.54812 0.0
H2321 H 0.90436 0.2266 0.58203 0.0
H2322 H 0.93596 0.29079 0.58727 0.0
H2323 H 0.91875 0.2878 0.59522 0.0
H2324 H 0.92274 0.28831 0.56617 0.0
H2325 H 0.92574 0.2433 0.62909 0.0
H2326 H 0.90969 0.22676 0.61994 0.0
H2327 H 0.90847 0.24053 0.63629 0.0
C2328 C 0.34476 0.29485 0.62349 0.0
C2329 C 0.34933 0.29064 0.64248 0.0
C2330 C 0.34521 0.28929 0.60233 0.0
C2331 C 0.34995 0.27901 0.60029 0.0
C2332 C 0.35403 0.27432 0.61955 0.0
C2333 C 0.35385 0.28034 0.64036 0.0
C2334 C 0.34107 0.29478 0.58212 0.0
C2335 C 0.35879 0.26309 0.61816 0.0
C2336 C 0.34101 0.25551 0.54752 0.0
C2337 C 0.35428 0.26218 0.53687 0.0
C2338 C 0.3394 0.26091 0.56807 0.0
C2339 C 0.35123 0.27352 0.57802 0.0
C2340 C 0.36453 0.28052 0.56719 0.0
C2341 C 0.36595 0.27467 0.54694 0.0
C2342 C 0.32512 0.25297 0.57934 0.0
C2343 C 0.37736 0.29411 0.57713 0.0
H2344 H 0.34134 0.30288 0.6251 0.0
H2345 H 0.35723 0.27693 0.65507 0.0
H2346 H 0.35052 0.3005 0.57141 0.0
H2347 H 0.33252 0.28549 0.57211 0.0
H2348 H 0.33718 0.30243 0.58657 0.0
H2349 H 0.36066 0.25989 0.63482 0.0
H2350 H 0.35055 0.25315 0.60889 0.0
H2351 H 0.36892 0.2675 0.60891 0.0
H2352 H 0.33181 0.24606 0.53976 0.0
H2353 H 0.37633 0.27981 0.53918 0.0
H2354 H 0.32088 0.26048 0.58241 0.0
H2355 H 0.32659 0.2492 0.59574 0.0
H2356 H 0.31695 0.24336 0.56934 0.0
H2357 H 0.37433 0.3025 0.58109 0.0
H2358 H 0.38659 0.29888 0.56582 0.0
H2359 H 0.38093 0.2915 0.59293 0.0
C2360 C 0.71753 0.0797 0.61566 0.0
C2361 C 0.71447 0.06543 0.6105 0.0
C2362 C 0.72627 0.09131 0.60198 0.0
C2363 C 0.73174 0.08846 0.58247 0.0
C2364 C 0.72877 0.07409 0.57733 0.0
C2365 C 0.72031 0.06279 0.59155 0.0
C2366 C 0.72955 0.10657 0.60826 0.0
C2367 C 0.7342 0.07054 0.55649 0.0
C2368 C 0.74132 0.11239 0.53234 0.0
C2369 C 0.75632 0.11874 0.5327 0.0
C2370 C 0.73316 0.10306 0.54916 0.0
C2371 C 0.74025 0.10031 0.56689 0.0
C2372 C 0.75549 0.1076 0.56811 0.0
C2373 C 0.76335 0.11658 0.55077 0.0
C2374 C 0.71693 0.09531 0.54705 0.0
C2375 C 0.76346 0.10523 0.587 0.0
H2376 H 0.71309 0.08178 0.63038 0.0
H2377 H 0.7179 0.05176 0.58741 0.0
H2378 H 0.74136 0.11417 0.6087 0.0
H2379 H 0.72479 0.1105 0.59556 0.0
H2380 H 0.72526 0.1071 0.6247 0.0
H2381 H 0.73082 0.05877 0.55486 0.0
H2382 H 0.73009 0.07357 0.54166 0.0
H2383 H 0.74613 0.077 0.55645 0.0
H2384 H 0.73594 0.114 0.51817 0.0
H2385 H 0.77498 0.12154 0.55093 0.0
H2386 H 0.71228 0.09626 0.56286 0.0
H2387 H 0.71269 0.0835 0.54347 0.0
H2388 H 0.71313 0.09969 0.53353 0.0
H2389 H 0.75899 0.10589 0.60317 0.0
H2390 H 0.77517 0.11334 0.58729 0.0
H2391 H 0.7621 0.09414 0.58526 0.0
C2392 C 0.91894 0.66306 0.65411 0.0
C2393 C 0.93368 0.66771 0.65557 0.0
C2394 C 0.91153 0.65952 0.63348 0.0
C2395 C 0.91898 0.66035 0.6139 0.0
C2396 C 0.93389 0.6651 0.61526 0.0
C2397 C 0.9411 0.66889 0.63607 0.0
C2398 C 0.89571 0.65483 0.63265 0.0
C2399 C 0.94214 0.66586 0.59478 0.0
C2400 C 0.89676 0.63714 0.56392 0.0
C2401 C 0.89628 0.64757 0.55037 0.0
C2402 C 0.90422 0.64118 0.58453 0.0
C2403 C 0.9111 0.65595 0.59205 0.0
C2404 C 0.91047 0.6665 0.57871 0.0
C2405 C 0.90322 0.66223 0.55794 0.0
C2406 C 0.90481 0.62963 0.59819 0.0
C2407 C 0.91749 0.68233 0.58633 0.0
H2408 H 0.91318 0.66225 0.66912 0.0
H2409 H 0.95248 0.67238 0.63714 0.0
H2410 H 0.89376 0.66185 0.62129 0.0
H2411 H 0.88934 0.64345 0.62595 0.0
H2412 H 0.89166 0.65541 0.64928 0.0
H2413 H 0.9537 0.66987 0.59866 0.0
H2414 H 0.93734 0.65487 0.58662 0.0
H2415 H 0.94134 0.67321 0.58262 0.0
H2416 H 0.89125 0.62576 0.55848 0.0
H2417 H 0.9032 0.67045 0.5475 0.0
H2418 H 0.89975 0.62883 0.6144 0.0
H2419 H 0.91619 0.63272 0.60172 0.0
H2420 H 0.89923 0.6187 0.58969 0.0
H2421 H 0.91337 0.68321 0.60271 0.0
H2422 H 0.91551 0.68907 0.57439 0.0
H2423 H 0.92929 0.68696 0.5885 0.0
C2424 C 0.957 0.71658 0.75146 0.0
C2425 C 0.9503 0.70263 0.74132 0.0
C2426 C 0.95011 0.72003 0.76817 0.0
C2427 C 0.93615 0.70931 0.77445 0.0
C2428 C 0.92885 0.69573 0.76265 0.0
C2429 C 0.93608 0.69251 0.74633 0.0
C2430 C 0.95828 0.73461 0.7804 0.0
C2431 C 0.91383 0.68412 0.76846 0.0
C2432 C 0.92636 0.70654 0.83488 0.0
C2433 C 0.91711 0.71229 0.8351 0.0
C2434 C 0.93299 0.70602 0.81537 0.0
C2435 C 0.93016 0.71122 0.79549 0.0
C2436 C 0.92108 0.71737 0.7957 0.0
C2437 C 0.91471 0.71794 0.81564 0.0
C2438 C 0.94278 0.69957 0.81596 0.0
C2439 C 0.9177 0.72286 0.77478 0.0
H2440 H 0.96802 0.72443 0.74755 0.0
H2441 H 0.93076 0.68186 0.73805 0.0
H2442 H 0.95124 0.73935 0.78325 0.0
H2443 H 0.962 0.73308 0.79691 0.0
H2444 H 0.96785 0.74253 0.77123 0.0
H2445 H 0.90887 0.67519 0.75559 0.0
H2446 H 0.91426 0.67931 0.78449 0.0
H2447 H 0.90678 0.68893 0.77054 0.0
H2448 H 0.92835 0.70237 0.85005 0.0
H2449 H 0.90753 0.72236 0.81588 0.0
H2450 H 0.95339 0.70733 0.80912 0.0
H2451 H 0.93802 0.68944 0.80542 0.0
H2452 H 0.94455 0.69688 0.83305 0.0
H2453 H 0.92777 0.73049 0.76644 0.0
H2454 H 0.91152 0.72851 0.77812 0.0
H2455 H 0.91128 0.71353 0.763 0.0
C2456 C 0.32295 0.26914 0.74848 0.0
C2457 C 0.33441 0.27801 0.73496 0.0
C2458 C 0.3239 0.25927 0.76275 0.0
C2459 C 0.33648 0.25807 0.76306 0.0
C2460 C 0.34765 0.26631 0.7483 0.0
C2461 C 0.34653 0.2763 0.73457 0.0
C2462 C 0.31185 0.25083 0.77845 0.0
C2463 C 0.36106 0.26507 0.74771 0.0
C2464 C 0.3478 0.24826 0.81702 0.0
C2465 C 0.3429 0.23336 0.8135 0.0
C2466 C 0.34565 0.25635 0.80078 0.0
C2467 C 0.33863 0.24942 0.78034 0.0
C2468 C 0.33379 0.23439 0.77657 0.0
C2469 C 0.33585 0.22648 0.79334 0.0
C2470 C 0.35077 0.2723 0.80561 0.0
C2471 C 0.32651 0.22672 0.75483 0.0
H2472 H 0.31357 0.27048 0.74878 0.0
H2473 H 0.35523 0.28287 0.72371 0.0
H2474 H 0.3085 0.23907 0.77762 0.0
H2475 H 0.3157 0.25484 0.79576 0.0
H2476 H 0.30229 0.252 0.77477 0.0
H2477 H 0.36789 0.27084 0.7335 0.0
H2478 H 0.36753 0.26983 0.76332 0.0
H2479 H 0.35817 0.25343 0.74659 0.0
H2480 H 0.35304 0.25352 0.83277 0.0
H2481 H 0.33208 0.21494 0.79065 0.0
H2482 H 0.34159 0.27432 0.80398 0.0
H2483 H 0.35882 0.27914 0.79334 0.0
H2484 H 0.35572 0.27593 0.82254 0.0
H2485 H 0.31656 0.22729 0.75199 0.0
H2486 H 0.32364 0.21506 0.75437 0.0
H2487 H 0.3337 0.23229 0.74089 0.0
C2488 C 0.72074 0.0493 0.71684 0.0
C2489 C 0.72811 0.04976 0.69757 0.0
C2490 C 0.72817 0.05504 0.73726 0.0
C2491 C 0.74335 0.06149 0.73843 0.0
C2492 C 0.75085 0.06191 0.71911 0.0
C2493 C 0.74315 0.056 0.69895 0.0
C2494 C 0.71977 0.05429 0.75755 0.0
C2495 C 0.76705 0.06878 0.71968 0.0
C2496 C 0.76306 0.08874 0.78607 0.0
C2497 C 0.76561 0.08024 0.80111 0.0
C2498 C 0.75605 0.08284 0.76546 0.0
C2499 C 0.75138 0.06805 0.7598 0.0
C2500 C 0.75413 0.05949 0.77476 0.0
C2501 C 0.76126 0.0657 0.79521 0.0
C2502 C 0.75347 0.09238 0.74985 0.0
C2503 C 0.74924 0.04366 0.76938 0.0
H2504 H 0.70913 0.04445 0.71601 0.0
H2505 H 0.74898 0.05646 0.68418 0.0
H2506 H 0.722 0.04853 0.77091 0.0
H2507 H 0.72325 0.06549 0.76402 0.0
H2508 H 0.70797 0.04856 0.75399 0.0
H2509 H 0.77125 0.06804 0.70327 0.0
H2510 H 0.77212 0.08046 0.72494 0.0
H2511 H 0.77043 0.06335 0.73206 0.0
H2512 H 0.76655 0.10003 0.79048 0.0
H2513 H 0.76306 0.05905 0.8069 0.0
H2514 H 0.74173 0.08781 0.74695 0.0
H2515 H 0.75816 0.09255 0.7335 0.0
H2516 H 0.75821 0.10378 0.75642 0.0
H2517 H 0.73733 0.03736 0.76738 0.0
H2518 H 0.75259 0.03862 0.7825 0.0
H2519 H 0.75371 0.04267 0.75339 0.0
C2520 C 0.04733 0.36965 0.04918 0.0
C2521 C 0.03797 0.36141 0.03143 0.0
C2522 C 0.05741 0.36615 0.05799 0.0
C2523 C 0.0583 0.35427 0.04856 0.0
C2524 C 0.04884 0.34589 0.0307 0.0
C2525 C 0.03872 0.34948 0.02248 0.0
C2526 C 0.06713 0.37516 0.07733 0.0
C2527 C 0.04956 0.33325 0.02003 0.0
C2528 C 0.09283 0.35282 0.05655 0.0
C2529 C 0.08883 0.34213 0.07258 0.0
C2530 C 0.08304 0.35699 0.04869 0.0
C2531 C 0.06904 0.3505 0.05741 0.0
C2532 C 0.06511 0.33997 0.07403 0.0
C2533 C 0.07502 0.33583 0.08128 0.0
C2534 C 0.08755 0.36811 0.03072 0.0
C2535 C 0.05039 0.33298 0.08403 0.0
H2536 H 0.04678 0.37885 0.05622 0.0
H2537 H 0.0316 0.34311 0.00866 0.0
H2538 H 0.06584 0.36801 0.09141 0.0
H2539 H 0.07855 0.38043 0.07253 0.0
H2540 H 0.06483 0.3838 0.08313 0.0
H2541 H 0.04158 0.32796 0.00606 0.0
H2542 H 0.06049 0.3371 0.01367 0.0
H2543 H 0.04756 0.32491 0.03254 0.0
H2544 H 0.10351 0.35767 0.04979 0.0
H2545 H 0.072 0.32772 0.09394 0.0
H2546 H 0.08631 0.37745 0.03634 0.0
H2547 H 0.08046 0.36311 0.01573 0.0
H2548 H 0.0989 0.37233 0.02601 0.0
H2549 H 0.04825 0.34152 0.09073 0.0
H2550 H 0.0493 0.32554 0.09761 0.0
H2551 H 0.04199 0.32664 0.07101 0.0
C2552 C 0.65194 0.68955 0.05186 0.0
C2553 C 0.63728 0.67892 0.05215 0.0
C2554 C 0.65648 0.70444 0.05458 0.0
C2555 C 0.64609 0.70884 0.05726 0.0
C2556 C 0.63125 0.69828 0.05566 0.0
C2557 C 0.62701 0.68341 0.05334 0.0
C2558 C 0.67242 0.71533 0.05641 0.0
C2559 C 0.61985 0.70258 0.05784 0.0
C2560 C 0.65785 0.74188 0.09552 0.0
C2561 C 0.66209 0.75318 0.08048 0.0
C2562 C 0.65233 0.72739 0.08809 0.0
C2563 C 0.65081 0.72405 0.06499 0.0
C2564 C 0.65457 0.73533 0.04966 0.0
C2565 C 0.66035 0.74984 0.0576 0.0
C2566 C 0.64867 0.71575 0.10502 0.0
C2567 C 0.6528 0.73213 0.02494 0.0
H2568 H 0.65997 0.68621 0.05089 0.0
H2569 H 0.61566 0.67529 0.05326 0.0
H2570 H 0.67518 0.72479 0.04582 0.0
H2571 H 0.67538 0.71955 0.07383 0.0
H2572 H 0.67905 0.7104 0.05156 0.0
H2573 H 0.60901 0.69355 0.05245 0.0
H2574 H 0.6194 0.70554 0.07544 0.0
H2575 H 0.62252 0.71229 0.04786 0.0
H2576 H 0.65941 0.74446 0.1132 0.0
H2577 H 0.6636 0.75857 0.04597 0.0
H2578 H 0.65556 0.71076 0.1028 0.0
H2579 H 0.63731 0.70691 0.10257 0.0
H2580 H 0.65023 0.72014 0.12236 0.0
H2581 H 0.66049 0.72864 0.01957 0.0
H2582 H 0.65475 0.7418 0.01536 0.0
H2583 H 0.6418 0.72301 0.02072 0.0
C2584 C 0.32082 0.96181 0.04366 0.0
C2585 C 0.32159 0.95621 0.02278 0.0
C2586 C 0.30942 0.95353 0.05772 0.0
C2587 C 0.29858 0.9393 0.05074 0.0
C2588 C 0.29932 0.93358 0.02972 0.0
C2589 C 0.3108 0.94212 0.01597 0.0
C2590 C 0.30895 0.96 0.08002 0.0
C2591 C 0.28799 0.91842 0.02177 0.0
C2592 C 0.27645 0.91273 0.09483 0.0
C2593 C 0.26366 0.9133 0.09363 0.0
C2594 C 0.28788 0.92111 0.08092 0.0
C2595 C 0.28653 0.93034 0.06553 0.0
C2596 C 0.27367 0.93098 0.06421 0.0
C2597 C 0.26237 0.92242 0.07826 0.0
C2598 C 0.30144 0.92015 0.08278 0.0
C2599 C 0.27185 0.9407 0.04797 0.0
H2600 H 0.32909 0.97271 0.04903 0.0
H2601 H 0.31132 0.9377 -0.00014 0.0
H2602 H 0.29878 0.96029 0.08124 0.0
H2603 H 0.30909 0.95305 0.09351 0.0
H2604 H 0.31816 0.97126 0.0829 0.0
H2605 H 0.29012 0.9156 0.00494 0.0
H2606 H 0.28753 0.91024 0.03351 0.0
H2607 H 0.27723 0.91752 0.02137 0.0
H2608 H 0.27761 0.90589 0.10692 0.0
H2609 H 0.25246 0.92278 0.07708 0.0
H2610 H 0.31078 0.93105 0.08726 0.0
H2611 H 0.30365 0.9167 0.06652 0.0
H2612 H 0.30071 0.91231 0.09545 0.0
H2613 H 0.28042 0.95222 0.05104 0.0
H2614 H 0.26121 0.94002 0.04915 0.0
H2615 H 0.27298 0.9376 0.03075 0.0
C2616 C 0.34828 0.02984 0.0011 0.0
C2617 C 0.36084 0.03349 0.98952 0.0
C2618 C 0.3412 0.03791 0.99863 0.0
C2619 C 0.34668 0.04967 0.98391 0.0
C2620 C 0.35993 0.05407 0.97357 0.0
C2621 C 0.36692 0.04602 0.97668 0.0
C2622 C 0.32736 0.0332 0.01055 0.0
C2623 C 0.36613 0.06652 0.95765 0.0
C2624 C 0.3214 0.05657 0.9485 0.0
C2625 C 0.32415 0.07017 0.95697 0.0
C2626 C 0.32811 0.04942 0.95794 0.0
C2627 C 0.33766 0.05593 0.97653 0.0
C2628 C 0.33968 0.06915 0.98616 0.0
C2629 C 0.33303 0.07624 0.97606 0.0
C2630 C 0.32576 0.0354 0.94698 0.0
C2631 C 0.34943 0.07621 0.00636 0.0
H2632 H 0.34361 0.02031 0.01135 0.0
H2633 H 0.37667 0.04901 0.96778 0.0
H2634 H 0.3269 0.04283 0.01707 0.0
H2635 H 0.31809 0.02713 0.99872 0.0
H2636 H 0.32611 0.02597 0.02453 0.0
H2637 H 0.37713 0.06942 0.95259 0.0
H2638 H 0.35905 0.06339 0.9425 0.0
H2639 H 0.36656 0.07636 0.96523 0.0
H2640 H 0.3147 0.05194 0.93358 0.0
H2641 H 0.33508 0.08672 0.98271 0.0
H2642 H 0.32254 0.02677 0.9594 0.0
H2643 H 0.33598 0.03721 0.93982 0.0
H2644 H 0.31735 0.03134 0.93348 0.0
H2645 H 0.34775 0.06792 0.0188 0.0
H2646 H 0.34764 0.08471 0.01428 0.0
H2647 H 0.36083 0.08144 0.00143 0.0
C2648 C 0.94648 0.31697 0.97759 0.0
C2649 C 0.95939 0.32248 0.99013 0.0
C2650 C 0.93637 0.302 0.97663 0.0
C2651 C 0.93902 0.29226 0.98894 0.0
C2652 C 0.95167 0.2978 0.00256 0.0
C2653 C 0.96181 0.31284 0.00277 0.0
C2654 C 0.92315 0.29656 0.96159 0.0
C2655 C 0.95466 0.28781 0.01641 0.0
C2656 C 0.90523 0.25515 0.99153 0.0
C2657 C 0.90703 0.24772 0.9735 0.0
C2658 C 0.91616 0.26927 0.99814 0.0
C2659 C 0.92897 0.27624 0.98599 0.0
C2660 C 0.93117 0.26839 0.96868 0.0
C2661 C 0.92022 0.25418 0.96279 0.0
C2662 C 0.91358 0.27709 0.01714 0.0
C2663 C 0.94454 0.27545 0.95502 0.0
H2664 H 0.94451 0.32429 0.96767 0.0
H2665 H 0.97171 0.31702 0.01264 0.0
H2666 H 0.92319 0.28909 0.94847 0.0
H2667 H 0.91326 0.29026 0.97118 0.0
H2668 H 0.92256 0.3056 0.95345 0.0
H2669 H 0.96392 0.29398 0.02828 0.0
H2670 H 0.94502 0.28039 0.02585 0.0
H2671 H 0.95712 0.28087 0.00539 0.0
H2672 H 0.89505 0.25013 -0.00011 0.0
H2673 H 0.92158 0.24853 0.94866 0.0
H2674 H 0.91096 0.28522 0.01048 0.0
H2675 H 0.9234 0.28308 0.02796 0.0
H2676 H 0.90451 0.26941 0.02739 0.0
H2677 H 0.94444 0.28404 0.94482 0.0
H2678 H 0.94528 0.26744 0.94372 0.0
H2679 H 0.95436 0.28081 0.96594 0.0
C2680 C 0.68616 0.63358 0.0134 0.0
C2681 C 0.6798 0.64229 0.0161 0.0
C2682 C 0.69911 0.63871 0.00219 0.0
C2683 C 0.70584 0.65289 0.99346 0.0
C2684 C 0.69936 0.66164 0.9958 0.0
C2685 C 0.68642 0.65624 0.0071 0.0
C2686 C 0.7057 0.62906 -3e-05 0.0
C2687 C 0.70619 0.6768 0.98662 0.0
C2688 C 0.746 0.67299 0.98345 0.0
C2689 C 0.74625 0.67131 0.96035 0.0
C2690 C 0.73292 0.66676 0.99451 0.0
C2691 C 0.71979 0.6587 0.98216 0.0
C2692 C 0.71999 0.65668 0.95891 0.0
C2693 C 0.73322 0.663 0.94829 0.0
C2694 C 0.73314 0.66907 0.01936 0.0
C2695 C 0.70621 0.64818 0.94518 0.0
H2696 H 0.68112 0.62278 0.02027 0.0
H2697 H 0.68157 0.66304 0.00906 0.0
H2698 H 0.70726 0.62746 0.9822 0.0
H2699 H 0.71648 0.63442 0.00841 0.0
H2700 H 0.69895 0.61819 0.00724 0.0
H2701 H 0.6996 0.68208 0.98939 0.0
H2702 H 0.71699 0.68379 0.99457 0.0
H2703 H 0.70772 0.67632 0.96852 0.0
H2704 H 0.75605 0.67926 0.99287 0.0
H2705 H 0.73333 0.66184 0.93039 0.0
H2706 H 0.72714 0.6584 0.02748 0.0
H2707 H 0.72765 0.67534 0.02331 0.0
H2708 H 0.74426 0.67509 0.02664 0.0
H2709 H 0.6995 0.63715 0.95193 0.0
H2710 H 0.70824 0.64696 0.92746 0.0
H2711 H 0.69985 0.65382 0.94604 0.0
C2712 C 0.94494 0.64908 0.02391 0.0
C2713 C 0.95832 0.65305 0.01478 0.0
C2714 C 0.9363 0.65452 0.01555 0.0
C2715 C 0.94117 0.66421 0.99769 0.0
C2716 C 0.95453 0.66805 0.98812 0.0
C2717 C 0.96293 0.6624 0.99674 0.0
C2718 C 0.92205 0.65007 0.02606 0.0
C2719 C 0.9601 0.67837 0.96906 0.0
C2720 C 0.91481 0.67031 0.96302 0.0
C2721 C 0.91724 0.68378 0.97173 0.0
C2722 C 0.92228 0.66364 0.97163 0.0
C2723 C 0.93248 0.67064 0.98932 0.0
C2724 C 0.93472 0.68404 0.99856 0.0
C2725 C 0.92706 0.69043 0.98969 0.0
C2726 C 0.91955 0.64932 0.96138 0.0
C2727 C 0.94548 0.69181 0.01749 0.0
H2728 H 0.94126 0.64183 0.0378 0.0
H2729 H 0.97325 0.66553 0.98958 0.0
H2730 H 0.9222 0.65984 0.03342 0.0
H2731 H 0.91322 0.64526 0.01325 0.0
H2732 H 0.91957 0.64202 0.03928 0.0
H2733 H 0.97053 0.67998 0.96312 0.0
H2734 H 0.95214 0.67414 0.95496 0.0
H2735 H 0.96158 0.68916 0.9743 0.0
H2736 H 0.90742 0.66519 0.94892 0.0
H2737 H 0.92886 0.70074 0.9967 0.0
H2738 H 0.91683 0.64112 0.9744 0.0
H2739 H 0.92946 0.65085 0.95348 0.0
H2740 H 0.91067 0.64487 0.94862 0.0
H2741 H 0.94294 0.68447 0.03172 0.0
H2742 H 0.94562 0.70192 0.02327 0.0
H2743 H 0.95644 0.69477 0.01217 0.0
C2744 C 0.3815 0.32077 0.96267 0.0
C2745 C 0.37279 0.32525 0.9734 0.0
C2746 C 0.37719 0.30592 0.96009 0.0
C2747 C 0.36391 0.29527 0.96865 0.0
C2748 C 0.3555 0.29973 0.98076 0.0
C2749 C 0.36 0.31467 0.9829 0.0
C2750 C 0.38646 0.30163 0.94702 0.0
C2751 C 0.3414 0.2887 0.99045 0.0
C2752 C 0.34629 0.25959 0.93535 0.0
C2753 C 0.35062 0.25117 0.94748 0.0
C2754 C 0.34998 0.27371 0.94266 0.0
C2755 C 0.35818 0.27958 0.96267 0.0
C2756 C 0.36192 0.27087 0.97565 0.0
C2757 C 0.35816 0.25677 0.96783 0.0
C2758 C 0.34584 0.28266 0.92823 0.0
C2759 C 0.37045 0.27667 0.99725 0.0
H2760 H 0.39143 0.32882 0.95537 0.0
H2761 H 0.35326 0.318 0.99145 0.0
H2762 H 0.38847 0.29387 0.95644 0.0
H2763 H 0.38075 0.29599 0.93122 0.0
H2764 H 0.397 0.31121 0.94301 0.0
H2765 H 0.33721 0.2939 0.002 0.0
H2766 H 0.33326 0.28297 0.97684 0.0
H2767 H 0.34265 0.28033 -0.00053 0.0
H2768 H 0.34068 0.25546 0.91943 0.0
H2769 H 0.36145 0.25026 0.97734 0.0
H2770 H 0.35569 0.29197 0.92162 0.0
H2771 H 0.34036 0.28727 0.93816 0.0
H2772 H 0.33861 0.27614 0.91399 0.0
H2773 H 0.38167 0.28514 0.99378 0.0
H2774 H 0.37077 0.26794 0.00679 0.0
H2775 H 0.3658 0.28192 0.00774 0.0
C2776 C 0.68515 0.05281 0.01176 0.0
C2777 C 0.674 0.03897 0.00461 0.0
C2778 C 0.69787 0.06016 -0.0001 0.0
C2779 C 0.69951 0.05348 0.98048 0.0
C2780 C 0.68822 0.0396 0.97298 0.0
C2781 C 0.67558 0.03252 0.98511 0.0
C2782 C 0.70964 0.07499 0.00832 0.0
C2783 C 0.68961 0.03214 0.95234 0.0
C2784 C 0.72753 0.07729 0.93934 0.0
C2785 C 0.739 0.07499 0.94481 0.0
C2786 C 0.71463 0.0704 0.95086 0.0
C2787 C 0.71314 0.06092 0.96819 0.0
C2788 C 0.72466 0.05855 0.97384 0.0
C2789 C 0.73747 0.06564 0.96211 0.0
C2790 C 0.70258 0.07321 0.9444 0.0
C2791 C 0.72346 0.04851 0.99224 0.0
H2792 H 0.68401 0.05789 0.02678 0.0
H2793 H 0.66703 0.02182 0.97949 0.0
H2794 H 0.71955 0.07456 0.01238 0.0
H2795 H 0.71235 0.08313 0.99521 0.0
H2796 H 0.70652 0.07885 0.02337 0.0
H2797 H 0.67972 0.02149 0.94847 0.0
H2798 H 0.69186 0.03925 0.93789 0.0
H2799 H 0.69882 0.03022 0.95452 0.0
H2800 H 0.72853 0.08429 0.92575 0.0
H2801 H 0.74634 0.06394 0.9666 0.0
H2802 H 0.6996 0.07759 0.95897 0.0
H2803 H 0.69288 0.06281 0.93899 0.0
H2804 H 0.70555 0.08106 0.93076 0.0
H2805 H 0.72134 0.05246 0.00814 0.0
H2806 H 0.73337 0.04776 0.99446 0.0
H2807 H 0.71422 0.03739 0.98863 0.0
C2808 C 0.64826 0.96941 0.03913 0.0
C2809 C 0.63333 0.96379 0.03959 0.0
C2810 C 0.65421 0.96048 0.04332 0.0
C2811 C 0.64497 0.94553 0.04764 0.0
C2812 C 0.62986 0.93953 0.04604 0.0
C2813 C 0.62421 0.94877 0.04225 0.0
C2814 C 0.67039 0.96736 0.0451 0.0
C2815 C 0.61966 0.92357 0.04997 0.0
C2816 C 0.66205 0.92166 0.05354 0.0
C2817 C 0.66368 0.92173 0.07669 0.0
C2818 C 0.65561 0.92904 0.0437 0.0
C2819 C 0.65107 0.93691 0.05739 0.0
C2820 C 0.65271 0.93697 0.08077 0.0
C2821 C 0.65889 0.92929 0.09011 0.0
C2822 C 0.65377 0.92851 0.01875 0.0
C2823 C 0.64824 0.94542 0.09598 0.0
H2824 H 0.6554 0.981 0.03701 0.0
H2825 H 0.61264 0.94431 0.04228 0.0
H2826 H 0.67376 0.96811 0.06282 0.0
H2827 H 0.67397 0.96054 0.03615 0.0
H2828 H 0.676 0.97851 0.03834 0.0
H2829 H 0.60847 0.92011 0.04429 0.0
H2830 H 0.62323 0.91664 0.04128 0.0
H2831 H 0.61959 0.92154 0.068 0.0
H2832 H 0.66576 0.91578 0.04319 0.0
H2833 H 0.66037 0.92955 0.108 0.0
H2834 H 0.6603 0.93964 0.01223 0.0
H2835 H 0.64235 0.92467 0.01404 0.0
H2836 H 0.65708 0.9212 0.01056 0.0
H2837 H 0.65416 0.95717 0.09195 0.0
H2838 H 0.65035 0.9444 0.11379 0.0
H2839 H 0.63658 0.94148 0.09347 0.0
C2840 C 0.03273 0.69755 0.02835 0.0
C2841 C 0.03776 0.68759 0.02864 0.0
C2842 C 0.04221 0.71258 0.03196 0.0
C2843 C 0.05707 0.71777 0.0358 0.0
C2844 C 0.06238 0.70794 0.03397 0.0
C2845 C 0.05266 0.69297 0.03046 0.0
C2846 C 0.03612 0.72269 0.03365 0.0
C2847 C 0.07817 0.71304 0.03763 0.0
C2848 C 0.08386 0.75863 0.04173 0.0
C2849 C 0.08518 0.76062 0.06491 0.0
C2850 C 0.07467 0.74476 0.03183 0.0
C2851 C 0.06656 0.73272 0.0455 0.0
C2852 C 0.06767 0.73479 0.06889 0.0
C2853 C 0.07695 0.74868 0.07826 0.0
C2854 C 0.07379 0.74293 0.00686 0.0
C2855 C 0.05912 0.7223 0.08411 0.0
H2856 H 0.02126 0.69355 0.02676 0.0
H2857 H 0.0567 0.68541 0.03035 0.0
H2858 H 0.03592 0.72558 0.05139 0.0
H2859 H 0.04296 0.733 0.02501 0.0
H2860 H 0.02497 0.71756 0.02653 0.0
H2861 H 0.08087 0.70464 0.03209 0.0
H2862 H 0.08492 0.72323 0.02865 0.0
H2863 H 0.08105 0.71549 0.05559 0.0
H2864 H 0.09023 0.76785 0.03137 0.0
H2865 H 0.07769 0.75024 0.09617 0.0
H2866 H 0.06243 0.73786 0.00079 0.0
H2867 H 0.07776 0.73546 0.0018 0.0
H2868 H 0.08024 0.75349 0.99856 0.0
H2869 H 0.04744 0.71727 0.08003 0.0
H2870 H 0.06099 0.72584 0.10191 0.0
H2871 H 0.06207 0.71372 0.08166 0.0
C2872 C 0.3332 0.37274 0.03951 0.0
C2873 C 0.33405 0.36239 0.02576 0.0
C2874 C 0.32026 0.36956 0.04942 0.0
C2875 C 0.30785 0.35568 0.04548 0.0
C2876 C 0.30876 0.34499 0.0323 0.0
C2877 C 0.32186 0.34846 0.0226 0.0
C2878 C 0.31974 0.38123 0.06352 0.0
C2879 C 0.29577 0.33005 0.02784 0.0
C2880 C 0.27747 0.34618 0.08507 0.0
C2881 C 0.26898 0.35058 0.07321 0.0
C2882 C 0.28986 0.34718 0.07588 0.0
C2883 C 0.29383 0.35273 0.05435 0.0
C2884 C 0.28492 0.35652 0.0419 0.0
C2885 C 0.2726 0.35541 0.05149 0.0
C2886 C 0.29907 0.343 0.08965 0.0
C2887 C 0.28874 0.36237 0.01881 0.0
H2888 H 0.34258 0.3835 0.04215 0.0
H2889 H 0.32243 0.34038 0.01203 0.0
H2890 H 0.31231 0.38436 0.05558 0.0
H2891 H 0.3155 0.37698 0.08008 0.0
H2892 H 0.3305 0.39119 0.06587 0.0
H2893 H 0.29851 0.32263 0.0186 0.0
H2894 H 0.29083 0.32497 0.04369 0.0
H2895 H 0.28751 0.3311 0.01798 0.0
H2896 H 0.27483 0.3426 0.10197 0.0
H2897 H 0.26596 0.35864 0.04218 0.0
H2898 H 0.30942 0.35296 0.09437 0.0
H2899 H 0.30166 0.33568 0.07988 0.0
H2900 H 0.29372 0.33746 0.10506 0.0
H2901 H 0.29884 0.37311 0.01963 0.0
H2902 H 0.28014 0.36378 0.01073 0.0
H2903 H 0.29072 0.35491 0.0082 0.0
C2904 C 0.70693 0.66449 0.33065 0.0
C2905 C 0.702 0.67239 0.34306 0.0
C2906 C 0.71564 0.6596 0.34047 0.0
C2907 C 0.71955 0.66266 0.3633 0.0
C2908 C 0.71461 0.67061 0.37598 0.0
C2909 C 0.70587 0.67537 0.36571 0.0
C2910 C 0.72063 0.6511 0.32639 0.0
C2911 C 0.71858 0.67408 0.40037 0.0
C2912 C 0.73078 0.63824 0.39258 0.0
C2913 C 0.74587 0.64679 0.39288 0.0
C2914 C 0.72211 0.64332 0.38318 0.0
C2915 C 0.72865 0.65733 0.37388 0.0
C2916 C 0.74386 0.66604 0.37414 0.0
C2917 C 0.75229 0.66066 0.38363 0.0
C2918 C 0.70593 0.6337 0.38322 0.0
C2919 C 0.75123 0.68101 0.3643 0.0
H2920 H 0.704 0.66212 0.31314 0.0
H2921 H 0.70213 0.68148 0.37541 0.0
H2922 H 0.73257 0.65677 0.32672 0.0
H2923 H 0.71675 0.64013 0.33328 0.0
H2924 H 0.71671 0.64972 0.30883 0.0
H2925 H 0.71395 0.68045 0.40786 0.0
H2926 H 0.71469 0.66382 0.40951 0.0
H2927 H 0.73046 0.68043 0.40274 0.0
H2928 H 0.72572 0.62763 0.4001 0.0
H2929 H 0.76393 0.66729 0.38366 0.0
H2930 H 0.70147 0.63142 0.36593 0.0
H2931 H 0.70109 0.63941 0.39209 0.0
H2932 H 0.70253 0.62314 0.39128 0.0
H2933 H 0.74834 0.68012 0.34634 0.0
H2934 H 0.76314 0.68655 0.36627 0.0
H2935 H 0.74748 0.68798 0.37236 0.0
C2936 C 0.3188 0.02713 0.37884 0.0
C2937 C 0.30718 0.0176 0.39169 0.0
C2938 C 0.32435 0.0423 0.38035 0.0
C2939 C 0.31829 0.04807 0.3953 0.0
C2940 C 0.30606 0.03846 0.40734 0.0
C2941 C 0.30059 0.02335 0.40526 0.0
C2942 C 0.33722 0.05218 0.36689 0.0
C2943 C 0.29936 0.04417 0.42363 0.0
C2944 C 0.3432 0.08472 0.42368 0.0
C2945 C 0.33913 0.0939 0.41327 0.0
C2946 C 0.33665 0.06987 0.41768 0.0
C2947 C 0.32582 0.06403 0.40064 0.0
C2948 C 0.32188 0.07331 0.38963 0.0
C2949 C 0.32849 0.08815 0.39625 0.0
C2950 C 0.34103 0.06033 0.43009 0.0
C2951 C 0.31056 0.06751 0.37115 0.0
H2952 H 0.32385 0.02279 0.36809 0.0
H2953 H 0.29159 0.0161 0.41522 0.0
H2954 H 0.33565 0.06072 0.35905 0.0
H2955 H 0.34694 0.05781 0.378 0.0
H2956 H 0.33927 0.04602 0.35371 0.0
H2957 H 0.28905 0.03531 0.42995 0.0
H2958 H 0.30693 0.04966 0.43799 0.0
H2959 H 0.29731 0.0524 0.41582 0.0
H2960 H 0.35123 0.08907 0.43712 0.0
H2961 H 0.32536 0.09525 0.38815 0.0
H2962 H 0.34474 0.05483 0.41829 0.0
H2963 H 0.33161 0.05167 0.43862 0.0
H2964 H 0.34979 0.06663 0.44269 0.0
H2965 H 0.31322 0.06168 0.35827 0.0
H2966 H 0.30949 0.07634 0.36318 0.0
H2967 H 0.29997 0.0595 0.37777 0.0
C2968 C 0.97988 0.27995 0.33868 0.0
C2969 C 0.99025 0.29422 0.3455 0.0
C2970 C 0.96813 0.27132 0.35192 0.0
C2971 C 0.96666 0.27714 0.37239 0.0
C2972 C 0.97689 0.29165 0.37914 0.0
C2973 C 0.98862 0.30001 0.36565 0.0
C2974 C 0.95748 0.25585 0.34426 0.0
C2975 C 0.97559 0.29826 0.40078 0.0
C2976 C 0.93012 0.25793 0.3991 0.0
C2977 C 0.93221 0.24959 0.41505 0.0
C2978 C 0.94128 0.26708 0.38523 0.0
C2979 C 0.95479 0.26779 0.38722 0.0
C2980 C 0.95696 0.2594 0.40323 0.0
C2981 C 0.94569 0.25049 0.41704 0.0
C2982 C 0.93862 0.27595 0.3684 0.0
C2983 C 0.9712 0.25982 0.40579 0.0
H2984 H 0.98106 0.27539 0.32314 0.0
H2985 H 0.99654 0.31105 0.37097 0.0
H2986 H 0.95766 0.24807 0.35622 0.0
H2987 H 0.9464 0.25414 0.34379 0.0
H2988 H 0.95987 0.25315 0.32753 0.0
H2989 H 0.98401 0.30994 0.40304 0.0
H2990 H 0.96485 0.29737 0.40151 0.0
H2991 H 0.97652 0.29215 0.41489 0.0
H2992 H 0.91971 0.25719 0.3973 0.0
H2993 H 0.94751 0.24433 0.42961 0.0
H2994 H 0.94002 0.27277 0.35138 0.0
H2995 H 0.94662 0.28772 0.37103 0.0
H2996 H 0.92763 0.27447 0.36936 0.0
H2997 H 0.97392 0.25649 0.38985 0.0
H2998 H 0.97109 0.25252 0.41892 0.0
H2999 H 0.97991 0.27112 0.40998 0.0
C3000 C 0.02687 0.3714 0.32756 0.0
C3001 C 0.03986 0.37356 0.31897 0.0
C3002 C 0.02262 0.38191 0.32495 0.0
C3003 C 0.03145 0.39468 0.31316 0.0
C3004 C 0.04506 0.39742 0.30603 0.0
C3005 C 0.04915 0.3869 0.30921 0.0
C3006 C 0.00825 0.37884 0.33346 0.0
C3007 C 0.05479 0.41088 0.29328 0.0
C3008 C 0.01484 0.41044 0.27475 0.0
C3009 C 0.01895 0.42392 0.28533 0.0
C3010 C 0.0182 0.4005 0.28428 0.0
C3011 C 0.02569 0.40403 0.30509 0.0
C3012 C 0.02904 0.4172 0.31656 0.0
C3013 C 0.02579 0.42711 0.30638 0.0
C3014 C 0.01459 0.38667 0.27131 0.0
C3015 C 0.03665 0.42114 0.33904 0.0
H3016 H 0.0197 0.36124 0.33544 0.0
H3017 H 0.05929 0.38879 0.30273 0.0
H3018 H 0.00905 0.38887 0.34104 0.0
H3019 H 0.00028 0.37522 0.3194 0.0
H3020 H 0.00411 0.37015 0.34594 0.0
H3021 H 0.06555 0.41205 0.29074 0.0
H3022 H 0.04974 0.41024 0.27675 0.0
H3023 H 0.05629 0.42085 0.30209 0.0
H3024 H 0.00972 0.40802 0.25835 0.0
H3025 H 0.02888 0.43749 0.31465 0.0
H3026 H 0.00858 0.37701 0.28171 0.0
H3027 H 0.02468 0.38698 0.26649 0.0
H3028 H 0.00802 0.38517 0.25599 0.0
H3029 H 0.03207 0.41152 0.34983 0.0
H3030 H 0.03591 0.43014 0.34754 0.0
H3031 H 0.0482 0.42472 0.33703 0.0
C3032 C 0.61665 0.64587 0.31773 0.0
C3033 C 0.63135 0.65029 0.31733 0.0
C3034 C 0.60608 0.63101 0.3163 0.0
C3035 C 0.6103 0.62036 0.31381 0.0
C3036 C 0.62513 0.62473 0.31433 0.0
C3037 C 0.63547 0.63964 0.31635 0.0
C3038 C 0.59039 0.62677 0.31641 0.0
C3039 C 0.6301 0.61376 0.31131 0.0
C3040 C 0.58395 0.57962 0.31849 0.0
C3041 C 0.58003 0.57539 0.29612 0.0
C3042 C 0.59342 0.59434 0.32468 0.0
C3043 C 0.59936 0.60491 0.30803 0.0
C3044 C 0.5953 0.60065 0.28546 0.0
C3045 C 0.58559 0.58598 0.27982 0.0
C3046 C 0.59723 0.59855 0.34895 0.0
C3047 C 0.60158 0.61149 0.26712 0.0
H3048 H 0.6134 0.65406 0.31875 0.0
H3049 H 0.64681 0.64298 0.31596 0.0
H3050 H 0.58551 0.62296 0.29949 0.0
H3051 H 0.5844 0.61761 0.32773 0.0
H3052 H 0.58891 0.63605 0.32162 0.0
H3053 H 0.64194 0.61877 0.31389 0.0
H3054 H 0.62467 0.60473 0.32303 0.0
H3055 H 0.62714 0.60887 0.29424 0.0
H3056 H 0.57965 0.57141 0.33107 0.0
H3057 H 0.58276 0.58267 0.26248 0.0
H3058 H 0.59547 0.60774 0.35351 0.0
H3059 H 0.60881 0.60238 0.35214 0.0
H3060 H 0.59079 0.58929 0.35992 0.0
H3061 H 0.59927 0.6205 0.2698 0.0
H3062 H 0.59724 0.60639 0.25042 0.0
H3063 H 0.61347 0.6164 0.26736 0.0
C3064 C 0.33771 0.96455 0.31832 0.0
C3065 C 0.33898 0.97512 0.334 0.0
C3066 C 0.34964 0.9665 0.30639 0.0
C3067 C 0.36317 0.97927 0.31035 0.0
C3068 C 0.36442 0.99018 0.32564 0.0
C3069 C 0.35229 0.988 0.33722 0.0
C3070 C 0.34784 0.9547 0.29 0.0
C3071 C 0.37868 0.00393 0.33032 0.0
C3072 C 0.39639 0.97663 0.29789 0.0
C3073 C 0.4003 0.98341 0.27738 0.0
C3074 C 0.38442 0.97537 0.30893 0.0
C3075 C 0.37612 0.98094 0.29911 0.0
C3076 C 0.38007 0.98788 0.27847 0.0
C3077 C 0.39214 0.98907 0.26788 0.0
C3078 C 0.3806 0.968 0.33102 0.0
C3079 C 0.37141 0.99383 0.26742 0.0
H3080 H 0.32744 0.95461 0.31563 0.0
H3081 H 0.35337 0.99622 0.34931 0.0
H3082 H 0.35185 0.95942 0.27356 0.0
H3083 H 0.35436 0.94983 0.29574 0.0
H3084 H 0.33644 0.94585 0.28787 0.0
H3085 H 0.37771 0.01165 0.34192 0.0
H3086 H 0.38649 0.00109 0.33768 0.0
H3087 H 0.38323 0.00956 0.31463 0.0
H3088 H 0.40275 0.97236 0.30535 0.0
H3089 H 0.39501 0.99413 0.25186 0.0
H3090 H 0.36968 0.95823 0.32981 0.0
H3091 H 0.38037 0.97552 0.34387 0.0
H3092 H 0.38836 0.96457 0.33662 0.0
H3093 H 0.36022 0.98484 0.26393 0.0
H3094 H 0.3761 0.99919 0.25157 0.0
H3095 H 0.37078 0.00188 0.27869 0.0
C3096 C 0.616 0.96588 0.33251 0.0
C3097 C 0.63081 0.97592 0.33476 0.0
C3098 C 0.60641 0.96997 0.32355 0.0
C3099 C 0.61173 0.98448 0.31673 0.0
C3100 C 0.62669 0.99461 0.31856 0.0
C3101 C 0.63606 0.9902 0.32749 0.0
C3102 C 0.59055 0.9588 0.32168 0.0
C3103 C 0.63277 0.01018 0.31148 0.0
C3104 C 0.58854 0.992 0.27679 0.0
C3105 C 0.58204 0.99743 0.29119 0.0
C3106 C 0.59821 0.98775 0.28487 0.0
C3107 C 0.60159 0.98907 0.3079 0.0
C3108 C 0.59514 0.99461 0.32254 0.0
C3109 C 0.58543 0.99869 0.31402 0.0
C3110 C 0.60483 0.98187 0.26872 0.0
C3111 C 0.59848 0.99618 0.34722 0.0
H3112 H 0.61183 0.95481 0.33801 0.0
H3113 H 0.64748 0.99805 0.3292 0.0
H3114 H 0.58437 0.96245 0.33194 0.0
H3115 H 0.58658 0.95775 0.30423 0.0
H3116 H 0.58819 0.94787 0.32717 0.0
H3117 H 0.64469 0.01663 0.31352 0.0
H3118 H 0.62978 0.01037 0.29381 0.0
H3119 H 0.62808 0.01561 0.32145 0.0
H3120 H 0.58624 0.99126 0.25908 0.0
H3121 H 0.58037 0.00274 0.32529 0.0
H3122 H 0.60219 0.9707 0.27331 0.0
H3123 H 0.61673 0.9888 0.26956 0.0
H3124 H 0.60101 0.98144 0.25132 0.0
H3125 H 0.59534 0.98535 0.35407 0.0
H3126 H 0.59277 0.00091 0.35631 0.0
H3127 H 0.61023 0.00328 0.35043 0.0
C3128 C 0.02438 0.65337 0.32676 0.0
C3129 C 0.02848 0.66122 0.30717 0.0
C3130 C 0.01892 0.63819 0.32631 0.0
C3131 C 0.01691 0.6307 0.30564 0.0
C3132 C 0.02094 0.63866 0.28582 0.0
C3133 C 0.02696 0.65387 0.2869 0.0
C3134 C 0.01538 0.63019 0.34786 0.0
C3135 C 0.01857 0.63109 0.26336 0.0
C3136 C 0.01304 0.59343 0.29617 0.0
C3137 C 0.99808 0.58456 0.29239 0.0
C3138 C 0.01921 0.60823 0.30256 0.0
C3139 C 0.01032 0.61453 0.30435 0.0
C3140 C 0.99519 0.60553 0.30198 0.0
C3141 C 0.98926 0.59061 0.29662 0.0
C3142 C 0.03535 0.61732 0.30593 0.0
C3143 C 0.98532 0.61184 0.30329 0.0
H3144 H 0.02564 0.65915 0.34244 0.0
H3145 H 0.03001 0.65998 0.27176 0.0
H3146 H 0.00365 0.62237 0.34835 0.0
H3147 H 0.02094 0.62374 0.34907 0.0
H3148 H 0.01859 0.63776 0.36257 0.0
H3149 H 0.02168 0.63881 0.24951 0.0
H3150 H 0.02494 0.62547 0.26248 0.0
H3151 H 0.00705 0.62263 0.26089 0.0
H3152 H 0.02013 0.58912 0.29295 0.0
H3153 H 0.97767 0.58385 0.29471 0.0
H3154 H 0.03821 0.62493 0.32049 0.0
H3155 H 0.04009 0.62399 0.29111 0.0
H3156 H 0.04034 0.61041 0.3084 0.0
H3157 H 0.9877 0.61871 0.3186 0.0
H3158 H 0.97377 0.60323 0.30299 0.0
H3159 H 0.98716 0.61898 0.28896 0.0
C3160 C 0.36402 0.38807 0.36324 0.0
C3161 C 0.35035 0.38143 0.35273 0.0
C3162 C 0.37658 0.39494 0.35088 0.0
C3163 C 0.37541 0.39518 0.32747 0.0
C3164 C 0.36166 0.38891 0.31682 0.0
C3165 C 0.34929 0.3821 0.32958 0.0
C3166 C 0.39107 0.40152 0.36281 0.0
C3167 C 0.35999 0.38898 0.29188 0.0
C3168 C 0.40812 0.42132 0.29515 0.0
C3169 C 0.41315 0.41208 0.28772 0.0
C3170 C 0.39588 0.41601 0.30825 0.0
C3171 C 0.38854 0.40113 0.31399 0.0
C3172 C 0.39362 0.39179 0.30661 0.0
C3173 C 0.40583 0.39737 0.29355 0.0
C3174 C 0.39078 0.42629 0.31587 0.0
C3175 C 0.38605 0.37584 0.31233 0.0
H3176 H 0.36495 0.38765 0.38113 0.0
H3177 H 0.33876 0.37706 0.32133 0.0
H3178 H 0.39656 0.39541 0.35793 0.0
H3179 H 0.39804 0.413 0.35795 0.0
H3180 H 0.39016 0.40129 0.38116 0.0
H3181 H 0.34858 0.38446 0.2863 0.0
H3182 H 0.36639 0.40027 0.2859 0.0
H3183 H 0.3642 0.38239 0.2839 0.0
H3184 H 0.41381 0.43273 0.29086 0.0
H3185 H 0.40951 0.39011 0.28753 0.0
H3186 H 0.39055 0.42661 0.33427 0.0
H3187 H 0.37962 0.42229 0.30949 0.0
H3188 H 0.39777 0.43758 0.31015 0.0
H3189 H 0.38553 0.37474 0.33062 0.0
H3190 H 0.39153 0.37011 0.3056 0.0
H3191 H 0.37481 0.37027 0.30558 0.0
C3192 C 0.29331 0.2932 0.36759 0.0
C3193 C 0.30311 0.30828 0.3686 0.0
C3194 C 0.29802 0.28307 0.3701 0.0
C3195 C 0.31285 0.28817 0.3741 0.0
C3196 C 0.32289 0.30331 0.37335 0.0
C3197 C 0.31791 0.31318 0.37041 0.0
C3198 C 0.28701 0.267 0.3702 0.0
C3199 C 0.33879 0.30921 0.37768 0.0
C3200 C 0.32258 0.2671 0.41425 0.0
C3201 C 0.32804 0.26047 0.40017 0.0
C3202 C 0.31742 0.27593 0.40584 0.0
C3203 C 0.31756 0.27807 0.38269 0.0
C3204 C 0.32268 0.27107 0.36825 0.0
C3205 C 0.32803 0.26246 0.37721 0.0
C3206 C 0.31224 0.28334 0.42189 0.0
C3207 C 0.32273 0.2729 0.34345 0.0
H3208 H 0.28186 0.28931 0.36585 0.0
H3209 H 0.32558 0.3248 0.37112 0.0
H3210 H 0.29082 0.26052 0.36081 0.0
H3211 H 0.28538 0.26325 0.38756 0.0
H3212 H 0.27645 0.26466 0.36293 0.0
H3213 H 0.34533 0.32092 0.37357 0.0
H3214 H 0.34073 0.3081 0.39552 0.0
H3215 H 0.34261 0.3029 0.36791 0.0
H3216 H 0.32283 0.26582 0.43205 0.0
H3217 H 0.33225 0.25732 0.36631 0.0
H3218 H 0.30096 0.28026 0.41758 0.0
H3219 H 0.31893 0.29537 0.42067 0.0
H3220 H 0.31275 0.28043 0.43939 0.0
H3221 H 0.31192 0.27041 0.33724 0.0
H3222 H 0.32586 0.26572 0.33438 0.0
H3223 H 0.33041 0.2844 0.3395 0.0
C3224 C 0.72357 0.02493 0.38483 0.0
C3225 C 0.71103 0.01861 0.37126 0.0
C3226 C 0.73236 0.04012 0.38709 0.0
C3227 C 0.72872 0.04927 0.37509 0.0
C3228 C 0.71663 0.04298 0.36019 0.0
C3229 C 0.7078 0.0277 0.35866 0.0
C3230 C 0.74501 0.04636 0.40345 0.0
C3231 C 0.71266 0.05238 0.34663 0.0
C3232 C 0.74034 0.08548 0.40469 0.0
C3233 C 0.7537 0.09457 0.39533 0.0
C3234 C 0.73181 0.07087 0.39752 0.0
C3235 C 0.73663 0.06526 0.38025 0.0
C3236 C 0.74973 0.07462 0.36983 0.0
C3237 C 0.75825 0.08915 0.37775 0.0
C3238 C 0.71808 0.06121 0.40942 0.0
C3239 C 0.75503 0.06914 0.35098 0.0
H3240 H 0.72618 0.01803 0.39466 0.0
H3241 H 0.69821 0.0229 0.34795 0.0
H3242 H 0.75496 0.05446 0.39537 0.0
H3243 H 0.74306 0.05214 0.41732 0.0
H3244 H 0.74687 0.03778 0.41051 0.0
H3245 H 0.70443 0.04593 0.3334 0.0
H3246 H 0.70827 0.05764 0.35763 0.0
H3247 H 0.72233 0.06123 0.33885 0.0
H3248 H 0.73691 0.08959 0.41851 0.0
H3249 H 0.76856 0.09621 0.37046 0.0
H3250 H 0.71916 0.05269 0.41832 0.0
H3251 H 0.7089 0.05554 0.39732 0.0
H3252 H 0.71546 0.06745 0.42167 0.0
H3253 H 0.75874 0.0618 0.35748 0.0
H3254 H 0.76411 0.07823 0.34245 0.0
H3255 H 0.74617 0.06271 0.33862 0.0
C3256 C 0.98597 0.68931 0.36805 0.0
C3257 C 0.98471 0.68591 0.34521 0.0
C3258 C 0.97368 0.6847 0.38082 0.0
C3259 C 0.95984 0.67644 0.37051 0.0
C3260 C 0.95851 0.67305 0.34746 0.0
C3261 C 0.97096 0.67785 0.3351 0.0
C3262 C 0.97548 0.68856 0.40536 0.0
C3263 C 0.94394 0.66417 0.33589 0.0
C3264 C 0.92803 0.65147 0.40504 0.0
C3265 C 0.92085 0.65943 0.40723 0.0
C3266 C 0.94083 0.65698 0.39341 0.0
C3267 C 0.94669 0.67087 0.38386 0.0
C3268 C 0.93966 0.6791 0.38632 0.0
C3269 C 0.92679 0.67327 0.39795 0.0
C3270 C 0.948 0.64786 0.39113 0.0
C3271 C 0.94562 0.69397 0.37638 0.0
H3272 H 0.99657 0.69559 0.37596 0.0
H3273 H 0.96988 0.67517 0.31746 0.0
H3274 H 0.9697 0.6945 0.40955 0.0
H3275 H 0.97064 0.67845 0.41505 0.0
H3276 H 0.98697 0.69545 0.41071 0.0
H3277 H 0.94477 0.66274 0.31777 0.0
H3278 H 0.93801 0.65322 0.34322 0.0
H3279 H 0.93743 0.66955 0.33839 0.0
H3280 H 0.92368 0.64091 0.41258 0.0
H3281 H 0.92126 0.67945 0.39947 0.0
H3282 H 0.95925 0.65406 0.39782 0.0
H3283 H 0.94849 0.64534 0.37331 0.0
H3284 H 0.94222 0.63741 0.39995 0.0
H3285 H 0.95693 0.70121 0.38226 0.0
H3286 H 0.93924 0.69927 0.38067 0.0
H3287 H 0.94569 0.69295 0.35802 0.0
C3288 C 0.37745 0.00857 0.66042 0.0
C3289 C 0.37 0.01373 0.6732 0.0
C3290 C 0.38629 0.00391 0.67045 0.0
C3291 C 0.38782 0.00447 0.69388 0.0
C3292 C 0.38051 0.00985 0.70692 0.0
C3293 C 0.37164 0.01438 0.69642 0.0
C3294 C 0.39382 0.99815 0.65596 0.0
C3295 C 0.38193 0.01067 0.73195 0.0
C3296 C 0.39851 0.97861 0.71964 0.0
C3297 C 0.41335 0.98777 0.72385 0.0
C3298 C 0.3901 0.98394 0.71005 0.0
C3299 C 0.39662 0.99884 0.70467 0.0
C3300 C 0.41156 0.0082 0.70901 0.0
C3301 C 0.41976 0.00255 0.7185 0.0
C3302 C 0.37421 0.97358 0.70565 0.0
C3303 C 0.4189 0.02417 0.70351 0.0
H3304 H 0.37627 0.00802 0.64246 0.0
H3305 H 0.36598 0.01841 0.70641 0.0
H3306 H 0.40561 0.00441 0.65952 0.0
H3307 H 0.39007 0.98658 0.65974 0.0
H3308 H 0.39183 0.99881 0.63797 0.0
H3309 H 0.376 0.01565 0.73965 0.0
H3310 H 0.37773 0.99955 0.73844 0.0
H3311 H 0.39345 0.01719 0.73726 0.0
H3312 H 0.39337 0.96726 0.72418 0.0
H3313 H 0.43122 0.00969 0.72157 0.0
H3314 H 0.37158 0.97319 0.68766 0.0
H3315 H 0.36781 0.97755 0.7146 0.0
H3316 H 0.37077 0.96231 0.7109 0.0
H3317 H 0.41791 0.0253 0.68539 0.0
H3318 H 0.4305 0.03009 0.70854 0.0
H3319 H 0.41354 0.02949 0.71197 0.0
C3320 C 0.96678 0.35991 0.72123 0.0
C3321 C 0.97332 0.35283 0.71086 0.0
C3322 C 0.97337 0.37517 0.72189 0.0
C3323 C 0.98669 0.38359 0.7115 0.0
C3324 C 0.99277 0.37649 0.69943 0.0
C3325 C 0.9861 0.36117 0.69947 0.0
C3326 C 0.96659 0.38229 0.73518 0.0
C3327 C 0.00673 0.38508 0.68756 0.0
C3328 C 0.99867 0.424 0.71018 0.0
C3329 C 0.00755 0.4293 0.7294 0.0
C3330 C 0.99255 0.40929 0.70314 0.0
C3331 C 0.99505 0.39964 0.716 0.0
C3332 C 0.00449 0.40512 0.73488 0.0
C3333 C 0.0107 0.41989 0.74122 0.0
C3334 C 0.98288 0.40394 0.68257 0.0
C3335 C 0.00729 0.3952 0.74931 0.0
H3336 H 0.95689 0.35358 0.73004 0.0
H3337 H 0.99113 0.35579 0.69115 0.0
H3338 H 0.97351 0.38805 0.75006 0.0
H3339 H 0.96572 0.39055 0.72522 0.0
H3340 H 0.95568 0.37423 0.74078 0.0
H3341 H 0.00865 0.37806 0.6758 0.0
H3342 H 0.00676 0.39407 0.67827 0.0
H3343 H 0.01583 0.3901 0.69991 0.0
H3344 H 0.99627 0.43128 0.70098 0.0
H3345 H 0.01736 0.42388 0.75629 0.0
H3346 H 0.97148 0.39743 0.68742 0.0
H3347 H 0.98529 0.39671 0.67216 0.0
H3348 H 0.98403 0.41312 0.67241 0.0
H3349 H 0.99714 0.38717 0.75709 0.0
H3350 H 0.0155 0.40132 0.76271 0.0
H3351 H 0.01099 0.38894 0.73912 0.0
C3352 C 0.66106 0.63375 0.70814 0.0
C3353 C 0.66291 0.62877 0.68742 0.0
C3354 C 0.64913 0.62488 0.72097 0.0
C3355 C 0.63891 0.61067 0.71292 0.0
C3356 C 0.64066 0.60563 0.69195 0.0
C3357 C 0.65262 0.61476 0.67942 0.0
C3358 C 0.64755 0.63064 0.74323 0.0
C3359 C 0.63003 0.59051 0.68288 0.0
C3360 C 0.61641 0.5821 0.75443 0.0
C3361 C 0.60313 0.58161 0.75228 0.0
C3362 C 0.62815 0.59156 0.74178 0.0
C3363 C 0.62661 0.60085 0.72673 0.0
C3364 C 0.61329 0.60052 0.72458 0.0
C3365 C 0.60168 0.59086 0.73734 0.0
C3366 C 0.64218 0.59157 0.7445 0.0
C3367 C 0.61128 0.61029 0.70871 0.0
H3368 H 0.66894 0.64459 0.71438 0.0
H3369 H 0.65396 0.61081 0.66343 0.0
H3370 H 0.63695 0.63007 0.74383 0.0
H3371 H 0.64789 0.62374 0.75663 0.0
H3372 H 0.65617 0.64211 0.74674 0.0
H3373 H 0.63276 0.58838 0.66604 0.0
H3374 H 0.62974 0.58219 0.69417 0.0
H3375 H 0.61903 0.58902 0.68205 0.0
H3376 H 0.61772 0.57521 0.76625 0.0
H3377 H 0.59142 0.59045 0.73545 0.0
H3378 H 0.65095 0.60264 0.74973 0.0
H3379 H 0.64517 0.58878 0.72836 0.0
H3380 H 0.6416 0.58368 0.75694 0.0
H3381 H 0.61938 0.62189 0.71255 0.0
H3382 H 0.60035 0.609 0.70945 0.0
H3383 H 0.61301 0.6078 0.69145 0.0
C3384 C 0.69118 0.70209 0.66371 0.0
C3385 C 0.70376 0.70536 0.65246 0.0
C3386 C 0.68418 0.71013 0.66022 0.0
C3387 C 0.68978 0.72154 0.64489 0.0
C3388 C 0.70302 0.72557 0.63476 0.0
C3389 C 0.70991 0.71751 0.6388 0.0
C3390 C 0.67027 0.70574 0.67176 0.0
C3391 C 0.70933 0.73764 0.61822 0.0
C3392 C 0.66395 0.72756 0.60929 0.0
C3393 C 0.66618 0.74097 0.61781 0.0
C3394 C 0.67122 0.72092 0.6185 0.0
C3395 C 0.68088 0.72778 0.63687 0.0
C3396 C 0.68269 0.74098 0.64624 0.0
C3397 C 0.67541 0.74752 0.63643 0.0
C3398 C 0.66908 0.7069 0.60785 0.0
C3399 C 0.69267 0.74843 0.66609 0.0
H3400 H 0.68646 0.69286 0.67456 0.0
H3401 H 0.71967 0.72019 0.63013 0.0
H3402 H 0.66998 0.71552 0.67798 0.0
H3403 H 0.66108 0.69977 0.65976 0.0
H3404 H 0.66873 0.69854 0.68591 0.0
H3405 H 0.72041 0.74047 0.61368 0.0
H3406 H 0.70242 0.73413 0.60287 0.0
H3407 H 0.70962 0.7476 0.62496 0.0
H3408 H 0.65701 0.72259 0.59468 0.0
H3409 H 0.67708 0.75785 0.64311 0.0
H3410 H 0.66584 0.69836 0.62043 0.0
H3411 H 0.67938 0.70876 0.60097 0.0
H3412 H 0.66076 0.7027 0.59421 0.0
H3413 H 0.69065 0.74047 0.67926 0.0
H3414 H 0.69143 0.75751 0.67312 0.0
H3415 H 0.704 0.75294 0.66114 0.0
C3416 C 0.30109 0.97526 0.64657 0.0
C3417 C 0.29633 0.98543 0.64592 0.0
C3418 C 0.29133 0.96022 0.64366 0.0
C3419 C 0.27646 0.95524 0.64029 0.0
C3420 C 0.27151 0.96538 0.64106 0.0
C3421 C 0.28151 0.98034 0.64372 0.0
C3422 C 0.29705 0.94977 0.64282 0.0
C3423 C 0.25573 0.9605 0.63787 0.0
C3424 C 0.25472 0.92124 0.60378 0.0
C3425 C 0.24746 0.91046 0.61942 0.0
C3426 C 0.26415 0.9358 0.61043 0.0
C3427 C 0.26636 0.93976 0.63333 0.0
C3428 C 0.25896 0.92898 0.64925 0.0
C3429 C 0.24966 0.9144 0.6421 0.0
C3430 C 0.27193 0.94691 0.5929 0.0
C3431 C 0.26093 0.93283 0.67379 0.0
H3432 H 0.31252 0.97908 0.64828 0.0
H3433 H 0.2777 0.98811 0.6435 0.0
H3434 H 0.29077 0.94038 0.6536 0.0
H3435 H 0.29587 0.94534 0.62559 0.0
H3436 H 0.3086 0.95512 0.64808 0.0
H3437 H 0.25344 0.96944 0.64169 0.0
H3438 H 0.25228 0.95671 0.62038 0.0
H3439 H 0.24912 0.95117 0.64858 0.0
H3440 H 0.25333 0.91821 0.58625 0.0
H3441 H 0.24407 0.9061 0.65423 0.0
H3442 H 0.28374 0.95198 0.59564 0.0
H3443 H 0.26928 0.95578 0.59412 0.0
H3444 H 0.26907 0.94202 0.5758 0.0
H3445 H 0.27238 0.93734 0.67899 0.0
H3446 H 0.25416 0.92325 0.68401 0.0
H3447 H 0.25814 0.94144 0.67733 0.0
C3448 C 0.01651 0.31684 0.67663 0.0
C3449 C 0.00307 0.30403 0.67407 0.0
C3450 C 0.0285 0.31847 0.66524 0.0
C3451 C 0.027 0.30706 0.65081 0.0
C3452 C 0.01343 0.29418 0.64791 0.0
C3453 C 0.00164 0.2928 0.65964 0.0
C3454 C 0.04282 0.33234 0.6688 0.0
C3455 C 0.01138 0.28184 0.63248 0.0
C3456 C 0.05452 0.31609 0.60614 0.0
C3457 C 0.06327 0.31104 0.61533 0.0
C3458 C 0.0427 0.31491 0.61754 0.0
C3459 C 0.03962 0.30859 0.6387 0.0
C3460 C 0.0485 0.3036 0.64818 0.0
C3461 C 0.06019 0.30483 0.63632 0.0
C3462 C 0.03341 0.32024 0.60681 0.0
C3463 C 0.04561 0.29692 0.6708 0.0
H3464 H 0.01771 0.32556 0.68779 0.0
H3465 H 0.99129 0.28289 0.65749 0.0
H3466 H 0.05097 0.32972 0.67534 0.0
H3467 H 0.0467 0.33776 0.65275 0.0
H3468 H 0.04219 0.34018 0.6806 0.0
H3469 H 8e-05 0.27266 0.6318 0.0
H3470 H 0.01449 0.28588 0.61544 0.0
H3471 H 0.01851 0.27762 0.63799 0.0
H3472 H 0.05673 0.3207 0.58976 0.0
H3473 H 0.06701 0.30102 0.64354 0.0
H3474 H 0.03308 0.32861 0.61773 0.0
H3475 H 0.02219 0.31105 0.60457 0.0
H3476 H 0.03737 0.32503 0.59036 0.0
H3477 H 0.04568 0.30473 0.68339 0.0
H3478 H 0.05369 0.29383 0.67599 0.0
H3479 H 0.03476 0.28702 0.67069 0.0
C3480 C 0.28171 0.29846 0.66548 0.0
C3481 C 0.29625 0.30922 0.6686 0.0
C3482 C 0.27151 0.30196 0.65725 0.0
C3483 C 0.27593 0.31659 0.65209 0.0
C3484 C 0.29061 0.32748 0.65495 0.0
C3485 C 0.3006 0.32366 0.66312 0.0
C3486 C 0.25598 0.29002 0.65424 0.0
C3487 C 0.29574 0.34321 0.64965 0.0
C3488 C 0.25249 0.32418 0.61285 0.0
C3489 C 0.24515 0.32839 0.62764 0.0
C3490 C 0.26242 0.32019 0.62058 0.0
C3491 C 0.2652 0.32052 0.64369 0.0
C3492 C 0.25783 0.32472 0.65874 0.0
C3493 C 0.24788 0.32857 0.65055 0.0
C3494 C 0.27005 0.31577 0.60399 0.0
C3495 C 0.26052 0.32521 0.68352 0.0
H3496 H 0.27824 0.28727 0.66963 0.0
H3497 H 0.31179 0.33207 0.66551 0.0
H3498 H 0.24905 0.29255 0.66471 0.0
H3499 H 0.2523 0.28941 0.63672 0.0
H3500 H 0.25433 0.27915 0.6587 0.0
H3501 H 0.30753 0.35034 0.65263 0.0
H3502 H 0.29311 0.344 0.63203 0.0
H3503 H 0.29009 0.34744 0.66 0.0
H3504 H 0.25068 0.32427 0.59511 0.0
H3505 H 0.24216 0.33167 0.6621 0.0
H3506 H 0.26816 0.3047 0.60755 0.0
H3507 H 0.28183 0.3234 0.60546 0.0
H3508 H 0.2664 0.31573 0.5866 0.0
H3509 H 0.25808 0.31428 0.68908 0.0
H3510 H 0.2539 0.32868 0.693 0.0
H3511 H 0.27206 0.3329 0.68767 0.0
C3512 C 0.69791 0.98241 0.63299 0.0
C3513 C 0.68989 0.98805 0.64292 0.0
C3514 C 0.69278 0.96735 0.63181 0.0
C3515 C 0.67933 0.95761 0.64095 0.0
C3516 C 0.67148 0.96322 0.65194 0.0
C3517 C 0.67682 0.97838 0.65271 0.0
C3518 C 0.70149 0.96184 0.61988 0.0
C3519 C 0.65722 0.95319 0.66217 0.0
C3520 C 0.66186 0.92059 0.61155 0.0
C3521 C 0.66662 0.91301 0.62491 0.0
C3522 C 0.66505 0.9348 0.61744 0.0
C3523 C 0.67315 0.9416 0.63723 0.0
C3524 C 0.67697 0.93358 0.65169 0.0
C3525 C 0.67372 0.91939 0.6453 0.0
C3526 C 0.66079 0.94296 0.60149 0.0
C3527 C 0.68537 0.94034 0.67315 0.0
H3528 H 0.70805 0.98974 0.62546 0.0
H3529 H 0.67058 0.9826 0.66057 0.0
H3530 H 0.70348 0.95464 0.63077 0.0
H3531 H 0.69537 0.95523 0.60491 0.0
H3532 H 0.71204 0.97087 0.6146 0.0
H3533 H 0.65336 0.95928 0.67248 0.0
H3534 H 0.64901 0.94698 0.64883 0.0
H3535 H 0.65807 0.94511 0.67264 0.0
H3536 H 0.65653 0.91585 0.59564 0.0
H3537 H 0.67729 0.91352 0.65581 0.0
H3538 H 0.67056 0.95155 0.59354 0.0
H3539 H 0.6558 0.94847 0.61045 0.0
H3540 H 0.65312 0.93564 0.58822 0.0
H3541 H 0.69671 0.94831 0.66944 0.0
H3542 H 0.6853 0.93201 0.68421 0.0
H3543 H 0.68092 0.94637 0.68216 0.0
C3544 C 0.01556 0.70695 0.65669 0.0
C3545 C 0.01183 0.71638 0.66753 0.0
C3546 C 0.02829 0.71245 0.6448 0.0
C3547 C 0.03744 0.72775 0.64356 0.0
C3548 C 0.03356 0.73732 0.654 0.0
C3549 C 0.02083 0.73152 0.66593 0.0
C3550 C 0.03211 0.7019 0.63395 0.0
C3551 C 0.04297 0.7537 0.65284 0.0
C3552 C 0.07693 0.74228 0.63194 0.0
C3553 C 0.07735 0.7449 0.60913 0.0
C3554 C 0.06401 0.73668 0.64334 0.0
C3555 C 0.05121 0.73374 0.6317 0.0
C3556 C 0.05157 0.73647 0.60874 0.0
C3557 C 0.06461 0.74195 0.59772 0.0
C3558 C 0.06404 0.73387 0.66783 0.0
C3559 C 0.03815 0.73352 0.59579 0.0
H3560 H 0.00869 0.69523 0.65789 0.0
H3561 H 0.01799 0.73889 0.67417 0.0
H3562 H 0.03368 0.70396 0.61593 0.0
H3563 H 0.04243 0.70361 0.64122 0.0
H3564 H 0.02369 0.69033 0.63604 0.0
H3565 H 0.03817 0.75963 0.66121 0.0
H3566 H 0.05366 0.75723 0.66078 0.0
H3567 H 0.0448 0.75695 0.63525 0.0
H3568 H 0.08675 0.74469 0.64094 0.0
H3569 H 0.06477 0.7437 0.58003 0.0
H3570 H 0.05639 0.72219 0.67091 0.0
H3571 H 0.06033 0.74041 0.67732 0.0
H3572 H 0.07487 0.73663 0.6744 0.0
H3573 H 0.02994 0.72176 0.59636 0.0
H3574 H 0.04031 0.73655 0.57813 0.0
H3575 H 0.03343 0.73973 0.60344 0.0
C3576 C 0.97544 0.64164 0.7004 0.0
C3577 C 0.96535 0.64185 0.71471 0.0
C3578 C 0.97901 0.63055 0.70145 0.0
C3579 C 0.97257 0.61966 0.71751 0.0
C3580 C 0.96218 0.61968 0.73167 0.0
C3581 C 0.9586 0.63068 0.72994 0.0
C3582 C 0.98986 0.63064 0.68572 0.0
C3583 C 0.9552 0.60839 0.74925 0.0
C3584 C 0.97124 0.58325 0.71838 0.0
C3585 C 0.98172 0.58603 0.73491 0.0
C3586 C 0.96898 0.59448 0.71095 0.0
C3587 C 0.97718 0.60868 0.72072 0.0
C3588 C 0.98846 0.61172 0.73627 0.0
C3589 C 0.99066 0.60036 0.74305 0.0
C3590 C 0.95713 0.5909 0.69388 0.0
C3591 C 0.99733 0.62665 0.74732 0.0
H3592 H 0.9806 0.65017 0.68846 0.0
H3593 H 0.95084 0.63078 0.74112 0.0
H3594 H -0.00017 0.63307 0.69514 0.0
H3595 H 0.98558 0.61973 0.67752 0.0
H3596 H 0.99273 0.63892 0.67274 0.0
H3597 H 0.94719 0.60985 0.75874 0.0
H3598 H 0.9497 0.59725 0.74151 0.0
H3599 H 0.96357 0.60906 0.76111 0.0
H3600 H 0.96439 0.57217 0.71196 0.0
H3601 H 0.99867 0.60251 0.75601 0.0
H3602 H 0.96067 0.59962 0.68152 0.0
H3603 H 0.94767 0.5902 0.70222 0.0
H3604 H 0.95365 0.58031 0.68501 0.0
H3605 H 0.00129 0.63529 0.73481 0.0
H3606 H 0.00672 0.62767 0.75699 0.0
H3607 H 0.99049 0.62869 0.7588 0.0
C3608 C 0.37287 0.36423 0.69931 0.0
C3609 C 0.37754 0.35447 0.69319 0.0
C3610 C 0.38264 0.37928 0.70153 0.0
C3611 C 0.39734 0.38469 0.69691 0.0
C3612 C 0.4018 0.37501 0.68868 0.0
C3613 C 0.39189 0.35996 0.68727 0.0
C3614 C 0.37747 0.38916 0.71078 0.0
C3615 C 0.41725 0.3804 0.68284 0.0
C3616 C 0.42151 0.42608 0.69825 0.0
C3617 C 0.42768 0.42855 0.71971 0.0
C3618 C 0.41201 0.41178 0.69012 0.0
C3619 C 0.40828 0.39984 0.70413 0.0
C3620 C 0.4146 0.40237 0.72576 0.0
C3621 C 0.42435 0.41666 0.73315 0.0
C3622 C 0.40581 0.40947 0.66675 0.0
C3623 C 0.4107 0.39001 0.74146 0.0
H3624 H 0.36179 0.36002 0.70398 0.0
H3625 H 0.39549 0.35244 0.68227 0.0
H3626 H 0.38181 0.39269 0.72803 0.0
H3627 H 0.38147 0.39914 0.70091 0.0
H3628 H 0.36553 0.38363 0.71104 0.0
H3629 H 0.4184 0.37211 0.67291 0.0
H3630 H 0.42158 0.39058 0.67335 0.0
H3631 H 0.42395 0.38297 0.69831 0.0
H3632 H 0.42408 0.43533 0.68793 0.0
H3633 H 0.42895 0.41863 0.74989 0.0
H3634 H 0.39408 0.40542 0.66721 0.0
H3635 H 0.40721 0.40104 0.65774 0.0
H3636 H 0.41095 0.41969 0.65726 0.0
H3637 H 0.39894 0.38421 0.74423 0.0
H3638 H 0.41648 0.39388 0.75782 0.0
H3639 H 0.41331 0.38196 0.73408 0.0
C3640 C 0.64776 0.01895 0.69959 0.0
C3641 C 0.64665 0.01771 0.67632 0.0
C3642 C 0.63549 0.01455 0.71234 0.0
C3643 C 0.6218 0.00868 0.70154 0.0
C3644 C 0.62065 0.00761 0.67807 0.0
C3645 C 0.63308 0.01218 0.66576 0.0
C3646 C 0.63713 0.01596 0.73735 0.0
C3647 C 0.60623 0.00129 0.66595 0.0
C3648 C 0.58853 0.98249 0.73231 0.0
C3649 C 0.58256 0.99127 0.73775 0.0
C3650 C 0.60137 0.98809 0.72077 0.0
C3651 C 0.60855 0.00289 0.71471 0.0
C3652 C 0.60277 0.01192 0.72049 0.0
C3653 C 0.58981 0.00598 0.73189 0.0
C3654 C 0.60717 0.97809 0.71484 0.0
C3655 C 0.61019 0.02778 0.71439 0.0
H3656 H 0.65822 0.02329 0.70786 0.0
H3657 H 0.63212 0.01119 0.64778 0.0
H3658 H 0.63211 0.02218 0.74391 0.0
H3659 H 0.63143 0.00497 0.74458 0.0
H3660 H 0.64859 0.02153 0.74313 0.0
H3661 H 0.60724 0.00172 0.64762 0.0
H3662 H 0.59925 0.98973 0.67047 0.0
H3663 H 0.60068 0.00731 0.67101 0.0
H3664 H 0.5832 0.97121 0.73724 0.0
H3665 H 0.58523 0.01281 0.73592 0.0
H3666 H 0.61826 0.98262 0.72188 0.0
H3667 H 0.60777 0.97734 0.69653 0.0
H3668 H 0.60037 0.9669 0.72105 0.0
H3669 H 0.62151 0.0335 0.7208 0.0
H3670 H 0.6047 0.03351 0.72107 0.0
H3671 H 0.61049 0.02863 0.69605 0.0
loop_
_geom_bond_atom_site_label_1
_geom_bond_atom_site_label_2
_geom_bond_distance
_geom_bond_site_symmetry_2
_ccdc_geom_bond_type
Mg0 O1 2.019 1_556 S
Mg0 O7 1.985 1_456 S
Mg0 O9 2.118 . S
Mg0 O10 2.257 1_455 S
Mg0 O13 2.007 1_556 S
O1 Mg0 2.019 1_554 S
O1 C4 1.250 1_455 S
O2 Mg3 2.028 1_554 S
O2 C4 1.248 . S
Mg3 O2 2.028 1_556 S
Mg3 O8 2.032 . S
Mg3 O10 2.079 . S
C4 O1 1.250 1_655 S
C4 O2 1.248 . S
C5 O6 1.264 . S
C5 O13 1.249 . S
O6 C5 1.264 . S
O7 Mg0 1.985 1_654 S
O7 C11 1.239 1_554 S
O8 Mg3 2.032 . S
O8 C11 1.263 . S
O9 Mg0 2.118 . S
O9 C12 1.252 . S
O10 Mg0 2.257 1_655 S
O10 Mg3 2.079 . S
O10 C12 1.273 1_655 S
C11 O7 1.239 1_556 S
C11 O8 1.263 . S
C12 O9 1.252 . S
C12 O10 1.273 1_455 S
O13 Mg0 2.007 1_554 S
O13 C5 1.249 . S
Mg14 O15 2.028 1_554 S
Mg14 O21 1.986 . S
Mg14 O23 2.114 . S
Mg14 O24 2.251 . S
Mg14 O27 2.010 . S
O15 Mg14 2.028 1_556 S
O15 C18 1.250 . S
O16 Mg17 2.031 . S
O16 C18 1.246 1_554 S
Mg17 O16 2.031 . S
Mg17 O22 2.032 . S
Mg17 O24 2.079 . S
C18 O15 1.250 . S
C18 O16 1.246 1_556 S
C19 O20 1.264 . S
C19 O27 1.249 . S
O20 C19 1.264 . S
O21 Mg14 1.986 . S
O21 C25 1.246 . S
O22 Mg17 2.032 . S
O22 C25 1.259 . S
O23 Mg14 2.114 . S
O23 C26 1.252 . S
O24 Mg14 2.251 . S
O24 Mg17 2.079 . S
O24 C26 1.273 . S
C25 O21 1.246 . S
C25 O22 1.259 . S
C26 O23 1.252 . S
C26 O24 1.273 . S
O27 Mg14 2.010 . S
O27 C19 1.249 . S
Mg28 O29 2.052 . S
Mg28 O35 1.990 1_565 S
Mg28 O37 2.099 1_554 S
Mg28 O38 2.233 1_564 S
Mg28 O41 2.021 . S
O29 Mg28 2.052 . S
O29 C32 1.242 1_565 S
O30 Mg31 2.028 1_554 S
O30 C32 1.248 . S
Mg31 O30 2.028 1_556 S
Mg31 O36 2.030 1_556 S
Mg31 O38 2.079 . S
C32 O29 1.242 1_545 S
C32 O30 1.248 . S
C33 O34 1.264 . S
C33 O41 1.249 . S
O34 C33 1.264 . S
O35 Mg28 1.990 1_545 S
O35 C39 1.246 . S
O36 Mg31 2.030 1_554 S
O36 C39 1.261 . S
O37 Mg28 2.099 1_556 S
O37 C40 1.252 . S
O38 Mg28 2.233 1_546 S
O38 Mg31 2.079 . S
O38 C40 1.273 1_545 S
C39 O35 1.246 . S
C39 O36 1.261 . S
C40 O37 1.252 . S
C40 O38 1.273 1_565 S
O41 Mg28 2.021 . S
O41 C33 1.249 . S
Mg42 O43 2.059 1_554 S
Mg42 O49 1.986 1_655 S
Mg42 O51 2.114 . S
Mg42 O52 2.251 1_655 S
Mg42 O55 2.010 . S
O43 Mg42 2.059 1_556 S
O43 C46 1.168 1_655 S
O44 Mg45 2.054 . S
O44 C46 1.233 1_554 S
Mg45 O44 2.054 . S
Mg45 O50 2.032 . S
Mg45 O52 2.079 . S
C46 O43 1.168 1_455 S
C46 O44 1.233 1_556 S
C47 O48 1.264 . S
C47 O55 1.249 . S
O48 C47 1.264 . S
O49 Mg42 1.986 1_455 S
O49 C53 1.246 . S
O50 Mg45 2.032 . S
O50 C53 1.259 . S
O51 Mg42 2.114 . S
O51 C54 1.252 . S
O52 Mg42 2.251 1_455 S
O52 Mg45 2.079 . S
O52 C54 1.273 1_455 S
C53 O49 1.246 . S
C53 O50 1.259 . S
C54 O51 1.252 . S
C54 O52 1.273 1_655 S
O55 Mg42 2.010 . S
O55 C47 1.249 . S
Mg56 O57 2.028 . S
Mg56 O63 1.986 . S
Mg56 O65 2.114 1_554 S
Mg56 O66 2.251 1_554 S
Mg56 O69 2.010 . S
O57 Mg56 2.028 . S
O57 C60 1.250 . S
O58 Mg59 2.028 1_554 S
O58 C60 1.248 . S
Mg59 O58 2.028 1_556 S
Mg59 O64 2.032 . S
Mg59 O66 2.079 . S
C60 O57 1.250 . S
C60 O58 1.248 . S
C61 O62 1.264 . S
C61 O69 1.249 . S
O62 C61 1.264 . S
O63 Mg56 1.986 . S
O63 C67 1.246 . S
O64 Mg59 2.032 . S
O64 C67 1.260 1_556 S
O65 Mg56 2.114 1_556 S
O65 C68 1.252 . S
O66 Mg56 2.251 1_556 S
O66 Mg59 2.079 . S
O66 C68 1.273 . S
C67 O63 1.246 . S
C67 O64 1.260 1_554 S
C68 O65 1.252 . S
C68 O66 1.273 . S
O69 Mg56 2.010 . S
O69 C61 1.249 . S
Mg70 O71 1.987 1_554 S
Mg70 O77 1.986 1_545 S
Mg70 O79 2.114 . S
Mg70 O80 2.251 1_545 S
Mg70 O83 2.010 . S
O71 Mg70 1.987 1_556 S
O71 C74 1.266 1_545 S
O72 Mg73 2.028 . S
O72 C74 1.248 1_554 S
Mg73 O72 2.028 . S
Mg73 O78 2.032 . S
Mg73 O80 2.079 . S
C74 O71 1.266 1_565 S
C74 O72 1.248 1_556 S
C75 O76 1.264 . S
C75 O83 1.249 . S
O76 C75 1.264 . S
O77 Mg70 1.986 1_565 S
O77 C81 1.246 . S
O78 Mg73 2.032 . S
O78 C81 1.259 . S
O79 Mg70 2.114 . S
O79 C82 1.252 . S
O80 Mg70 2.251 1_565 S
O80 Mg73 2.079 . S
O80 C82 1.273 1_565 S
C81 O77 1.246 . S
C81 O78 1.259 . S
C82 O79 1.252 . S
C82 O80 1.273 1_545 S
O83 Mg70 2.010 . S
O83 C75 1.249 . S
Mg84 O85 2.028 . S
Mg84 O91 1.986 . S
Mg84 O93 2.114 . S
Mg84 O94 2.251 . S
Mg84 O97 2.010 . S
O85 Mg84 2.028 . S
O85 C88 1.250 . S
O86 Mg87 2.028 . S
O86 C88 1.248 . S
Mg87 O86 2.028 . S
Mg87 O92 2.032 . S
Mg87 O94 2.079 . S
C88 O85 1.250 . S
C88 O86 1.248 . S
C89 O90 1.264 . S
C89 O97 1.249 . S
O90 C89 1.264 . S
O91 Mg84 1.986 . S
O91 C95 1.246 . S
O92 Mg87 2.032 . S
O92 C95 1.259 . S
O93 Mg84 2.114 . S
O93 C96 1.252 . S
O94 Mg84 2.251 . S
O94 Mg87 2.079 . S
O94 C96 1.273 . S
C95 O91 1.246 . S
C95 O92 1.259 . S
C96 O93 1.252 . S
C96 O94 1.273 . S
O97 Mg84 2.010 . S
O97 C89 1.249 . S
Mg98 O99 2.028 . S
Mg98 O105 1.986 . S
Mg98 O107 2.114 . S
Mg98 O108 2.251 . S
Mg98 O111 2.010 . S
O99 Mg98 2.028 . S
O99 C102 1.250 . S
O100 Mg101 2.028 . S
O100 C102 1.248 . S
Mg101 O100 2.028 . S
Mg101 O106 2.032 . S
Mg101 O108 2.079 . S
C102 O99 1.250 . S
C102 O100 1.248 . S
C103 O104 1.264 . S
C103 O111 1.249 . S
O104 C103 1.264 . S
O105 Mg98 1.986 . S
O105 C109 1.246 1_565 S
O106 Mg101 2.032 . S
O106 C109 1.259 1_565 S
O107 Mg98 2.114 . S
O107 C110 1.252 . S
O108 Mg98 2.251 . S
O108 Mg101 2.079 . S
O108 C110 1.273 . S
C109 O105 1.246 1_545 S
C109 O106 1.259 1_545 S
C110 O107 1.252 . S
C110 O108 1.273 . S
O111 Mg98 2.010 . S
O111 C103 1.249 . S
Mg112 O113 2.028 . S
Mg112 O119 1.986 . S
Mg112 O121 2.114 . S
Mg112 O122 2.251 . S
Mg112 O125 2.010 . S
O113 Mg112 2.028 . S
O113 C116 1.250 . S
O114 Mg115 2.028 . S
O114 C116 1.248 . S
Mg115 O114 2.028 . S
Mg115 O120 2.032 . S
Mg115 O122 2.079 . S
C116 O113 1.250 . S
C116 O114 1.248 . S
C117 O118 1.264 . S
C117 O125 1.249 1_655 S
O118 C117 1.264 . S
O119 Mg112 1.986 . S
O119 C123 1.246 . S
O120 Mg115 2.032 . S
O120 C123 1.259 . S
O121 Mg112 2.114 . S
O121 C124 1.252 . S
O122 Mg112 2.251 . S
O122 Mg115 2.079 . S
O122 C124 1.273 . S
C123 O119 1.246 . S
C123 O120 1.259 . S
C124 O121 1.252 . S
C124 O122 1.273 . S
O125 Mg112 2.010 . S
O125 C117 1.249 1_455 S
Mg126 O127 2.028 . S
Mg126 O133 1.986 . S
Mg126 O135 2.114 . S
Mg126 O136 2.251 . S
Mg126 O139 2.010 . S
O127 Mg126 2.028 . S
O127 C130 1.250 . S
O128 Mg129 2.028 . S
O128 C130 1.248 . S
Mg129 O128 2.028 . S
Mg129 O134 2.032 . S
Mg129 O136 2.079 . S
C130 O127 1.250 . S
C130 O128 1.248 . S
C131 O132 1.264 . S
C131 O139 1.249 . S
O132 C131 1.264 . S
O133 Mg126 1.986 . S
O133 C137 1.240 . S
O134 Mg129 2.032 . S
O134 C137 1.295 . S
O135 Mg126 2.114 . S
O135 C138 1.252 . S
O136 Mg126 2.251 . S
O136 Mg129 2.079 . S
O136 C138 1.273 . S
C137 O133 1.240 . S
C137 O134 1.295 . S
C138 O135 1.252 . S
C138 O136 1.273 . S
O139 Mg126 2.010 . S
O139 C131 1.249 . S
Mg140 O141 2.028 . S
Mg140 O147 1.986 . S
Mg140 O149 2.114 . S
Mg140 O150 2.251 . S
Mg140 O153 2.010 . S
O141 Mg140 2.028 . S
O141 C144 1.250 . S
O142 Mg143 2.028 . S
O142 C144 1.248 . S
Mg143 O142 2.028 . S
Mg143 O148 2.032 . S
Mg143 O150 2.079 . S
C144 O141 1.250 . S
C144 O142 1.248 . S
C145 O146 1.264 . S
C145 O153 1.249 1_655 S
O146 C145 1.264 . S
O147 Mg140 1.986 . S
O147 C151 1.246 . S
O148 Mg143 2.032 . S
O148 C151 1.259 . S
O149 Mg140 2.114 . S
O149 C152 1.252 . S
O150 Mg140 2.251 . S
O150 Mg143 2.079 . S
O150 C152 1.273 . S
C151 O147 1.246 . S
C151 O148 1.259 . S
C152 O149 1.252 . S
C152 O150 1.273 . S
O153 Mg140 2.010 . S
O153 C145 1.249 1_455 S
Mg154 O155 2.028 . S
Mg154 O161 1.986 . S
Mg154 O163 2.114 . S
Mg154 O164 2.251 . S
Mg154 O167 2.010 . S
O155 Mg154 2.028 . S
O155 C158 1.250 . S
O156 Mg157 2.028 . S
O156 C158 1.248 . S
Mg157 O156 2.028 . S
Mg157 O162 2.032 . S
Mg157 O164 2.079 . S
C158 O155 1.250 . S
C158 O156 1.248 . S
C159 O160 1.264 . S
C159 O167 1.249 . S
O160 C159 1.264 . S
O161 Mg154 1.986 . S
O161 C165 1.246 . S
O162 Mg157 2.032 . S
O162 C165 1.259 . S
O163 Mg154 2.114 . S
O163 C166 1.252 . S
O164 Mg154 2.251 . S
O164 Mg157 2.079 . S
O164 C166 1.273 . S
C165 O161 1.246 . S
C165 O162 1.259 . S
C166 O163 1.252 . S
C166 O164 1.273 . S
O167 Mg154 2.010 . S
O167 C159 1.249 . S
Mg168 O169 2.028 . S
Mg168 O175 1.986 . S
Mg168 O177 2.114 . S
Mg168 O178 2.251 . S
Mg168 O181 2.010 . S
O169 Mg168 2.028 . S
O169 C172 1.250 . S
O170 Mg171 2.028 . S
O170 C172 1.248 . S
Mg171 O170 2.028 . S
Mg171 O176 2.032 . S
Mg171 O178 2.079 . S
C172 O169 1.250 . S
C172 O170 1.248 . S
C173 O174 1.264 . S
C173 O181 1.249 . S
O174 C173 1.264 . S
O175 Mg168 1.986 . S
O175 C179 1.246 . S
O176 Mg171 2.032 . S
O176 C179 1.259 . S
O177 Mg168 2.114 . S
O177 C180 1.252 . S
O178 Mg168 2.251 . S
O178 Mg171 2.079 . S
O178 C180 1.273 . S
C179 O175 1.246 . S
C179 O176 1.259 . S
C180 O177 1.252 . S
C180 O178 1.273 . S
O181 Mg168 2.010 . S
O181 C173 1.249 . S
Mg182 O183 2.028 . S
Mg182 O189 1.986 . S
Mg182 O191 2.114 . S
Mg182 O192 2.251 . S
Mg182 O195 2.090 . S
O183 Mg182 2.028 . S
O183 C186 1.250 . S
O184 Mg185 2.028 . S
O184 C186 1.248 . S
Mg185 O184 2.028 . S
Mg185 O190 2.032 . S
Mg185 O192 2.079 . S
C186 O183 1.250 . S
C186 O184 1.248 . S
C187 O188 1.264 . S
C187 O195 1.168 1_455 S
O188 C187 1.264 . S
O189 Mg182 1.986 . S
O189 C193 1.246 . S
O190 Mg185 2.032 . S
O190 C193 1.259 . S
O191 Mg182 2.114 . S
O191 C194 1.252 . S
O192 Mg182 2.251 . S
O192 Mg185 2.079 . S
O192 C194 1.273 . S
C193 O189 1.246 . S
C193 O190 1.259 . S
C194 O191 1.252 . S
C194 O192 1.273 . S
O195 Mg182 2.090 . S
O195 C187 1.168 1_655 S
Mg196 O197 2.028 . S
Mg196 O203 1.986 . S
Mg196 O205 2.114 . S
Mg196 O206 2.251 . S
Mg196 O209 2.010 . S
O197 Mg196 2.028 . S
O197 C200 1.250 . S
O198 Mg199 2.028 . S
O198 C200 1.248 . S
Mg199 O198 2.028 . S
Mg199 O204 2.032 . S
Mg199 O206 2.079 . S
C200 O197 1.250 . S
C200 O198 1.248 . S
C201 O202 1.264 . S
C201 O209 1.249 . S
O202 C201 1.264 . S
O203 Mg196 1.986 . S
O203 C207 1.246 . S
O204 Mg199 2.032 . S
O204 C207 1.259 . S
O205 Mg196 2.114 . S
O205 C208 1.252 . S
O206 Mg196 2.251 . S
O206 Mg199 2.079 . S
O206 C208 1.273 . S
C207 O203 1.246 . S
C207 O204 1.259 . S
C208 O205 1.252 . S
C208 O206 1.273 . S
O209 Mg196 2.010 . S
O209 C201 1.249 . S
Mg210 O211 2.028 . S
Mg210 O217 1.986 . S
Mg210 O219 2.114 . S
Mg210 O220 2.251 . S
Mg210 O223 2.010 . S
O211 Mg210 2.028 . S
O211 C214 1.250 . S
O212 Mg213 2.028 . S
O212 C214 1.248 . S
Mg213 O212 2.028 . S
Mg213 O218 2.032 . S
Mg213 O220 2.079 . S
C214 O211 1.250 . S
C214 O212 1.248 . S
C215 O216 1.264 . S
C215 O223 1.249 . S
O216 C215 1.264 . S
O217 Mg210 1.986 . S
O217 C221 1.246 . S
O218 Mg213 2.032 . S
O218 C221 1.259 . S
O219 Mg210 2.114 . S
O219 C222 1.252 . S
O220 Mg210 2.251 . S
O220 Mg213 2.079 . S
O220 C222 1.273 . S
C221 O217 1.246 . S
C221 O218 1.259 . S
C222 O219 1.252 . S
C222 O220 1.273 . S
O223 Mg210 2.010 . S
O223 C215 1.249 . S
Mg224 O225 2.028 . S
Mg224 O231 1.986 . S
Mg224 O233 2.114 . S
Mg224 O234 2.251 . S
Mg224 O237 2.010 . S
O225 Mg224 2.028 . S
O225 C228 1.250 . S
O226 Mg227 2.028 . S
O226 C228 1.248 . S
Mg227 O226 2.028 . S
Mg227 O232 2.032 . S
Mg227 O234 2.079 . S
C228 O225 1.250 . S
C228 O226 1.248 . S
C229 O230 1.264 . S
C229 O237 1.249 . S
O230 C229 1.264 . S
O231 Mg224 1.986 . S
O231 C235 1.292 . S
O232 Mg227 2.032 . S
O232 C235 1.265 . S
O233 Mg224 2.114 . S
O233 C236 1.252 . S
O234 Mg224 2.251 . S
O234 Mg227 2.079 . S
O234 C236 1.273 . S
C235 O231 1.292 . S
C235 O232 1.265 . S
C236 O233 1.252 . S
C236 O234 1.273 . S
O237 Mg224 2.010 . S
O237 C229 1.249 . S
Mg238 O239 2.028 . S
Mg238 O245 1.986 . S
Mg238 O247 2.114 . S
Mg238 O248 2.251 . S
Mg238 O251 2.010 1_655 S
O239 Mg238 2.028 . S
O239 C242 1.250 . S
O240 Mg241 2.028 . S
O240 C242 1.248 . S
Mg241 O240 2.028 . S
Mg241 O246 2.032 . S
Mg241 O248 2.079 . S
C242 O239 1.250 . S
C242 O240 1.248 . S
C243 O244 1.264 . S
C243 O251 1.249 . S
O244 C243 1.264 . S
O245 Mg238 1.986 . S
O245 C249 1.246 . S
O246 Mg241 2.032 . S
O246 C249 1.259 . S
O247 Mg238 2.114 . S
O247 C250 1.252 . S
O248 Mg238 2.251 . S
O248 Mg241 2.079 . S
O248 C250 1.273 . S
C249 O245 1.246 . S
C249 O246 1.259 . S
C250 O247 1.252 . S
C250 O248 1.273 . S
O251 Mg238 2.010 1_455 S
O251 C243 1.249 . S
H252 C279 0.929 . S
N253 C278 1.433 . S
N253 C284 1.435 . S
N253 C290 1.423 . S
H254 C280 0.930 . S
H255 C283 0.931 . S
H256 C282 0.929 . S
H257 C285 0.930 . S
H258 C286 0.932 . S
H259 C289 0.929 . S
H260 C288 0.931 . S
H261 C291 0.929 . S
H262 C295 0.932 . S
H263 C292 0.931 . S
H264 C294 0.929 . S
H265 C297 0.929 . S
H266 C298 0.930 . S
H267 C300 0.929 . S
H268 C301 0.931 . S
H269 C303 0.930 . S
H270 C304 0.932 . S
H271 C306 0.931 . S
H272 C307 0.929 . S
H273 C309 0.929 . S
H274 C310 0.931 . S
H275 C312 0.929 . S
N276 C296 1.433 . S
N276 C302 1.435 . S
N276 C308 1.423 . S
H277 C313 0.932 . S
C278 N253 1.433 . S
C278 C279 1.363 . S
C278 C283 1.370 . S
C279 H252 0.929 . S
C279 C278 1.363 . S
C279 C280 1.385 . S
C280 H254 0.930 . S
C280 C279 1.385 . S
C280 C281 1.357 . S
C281 C280 1.357 . S
C281 C282 1.406 . S
C282 H256 0.929 . S
C282 C281 1.406 . S
C282 C283 1.391 . S
C283 H255 0.931 . S
C283 C278 1.370 . S
C283 C282 1.391 . S
C284 N253 1.435 . S
C284 C285 1.358 . S
C284 C289 1.371 . S
C285 H257 0.930 . S
C285 C284 1.358 . S
C285 C286 1.405 . S
C286 H258 0.932 . S
C286 C285 1.405 . S
C286 C287 1.383 . S
C287 C286 1.383 . S
C287 C288 1.393 . S
C288 H260 0.931 . S
C288 C287 1.393 . S
C288 C289 1.382 . S
C289 H259 0.929 . S
C289 C284 1.371 . S
C289 C288 1.382 . S
C290 N253 1.423 . S
C290 C291 1.362 . S
C290 C295 1.388 . S
C291 H261 0.929 . S
C291 C290 1.362 . S
C291 C292 1.376 . S
C292 H263 0.931 . S
C292 C291 1.376 . S
C292 C293 1.396 . S
C293 C292 1.396 . S
C293 C294 1.348 . S
C293 C311 1.472 . S
C294 H264 0.929 . S
C294 C293 1.348 . S
C294 C295 1.443 . S
C295 H262 0.932 . S
C295 C290 1.388 . S
C295 C294 1.443 . S
C296 N276 1.433 . S
C296 C297 1.363 . S
C296 C301 1.370 . S
C297 H265 0.929 . S
C297 C296 1.363 . S
C297 C298 1.385 . S
C298 H266 0.930 . S
C298 C297 1.385 . S
C298 C299 1.357 . S
C299 C298 1.357 . S
C299 C300 1.406 . S
C300 H267 0.929 . S
C300 C299 1.406 . S
C300 C301 1.391 . S
C301 H268 0.931 . S
C301 C296 1.370 . S
C301 C300 1.391 . S
C302 N276 1.435 . S
C302 C303 1.358 . S
C302 C307 1.371 . S
C303 H269 0.930 . S
C303 C302 1.358 . S
C303 C304 1.405 . S
C304 H270 0.932 . S
C304 C303 1.405 . S
C304 C305 1.383 . S
C305 C304 1.383 . S
C305 C306 1.393 . S
C306 H271 0.931 . S
C306 C305 1.393 . S
C306 C307 1.382 . S
C307 H272 0.929 . S
C307 C302 1.371 . S
C307 C306 1.382 . S
C308 N276 1.423 . S
C308 C309 1.362 . S
C308 C313 1.388 . S
C309 H273 0.929 . S
C309 C308 1.362 . S
C309 C310 1.376 . S
C310 H274 0.931 . S
C310 C309 1.376 . S
C310 C311 1.396 . S
C311 C293 1.472 . S
C311 C310 1.396 . S
C311 C312 1.348 . S
C312 H275 0.929 . S
C312 C311 1.348 . S
C312 C313 1.443 . S
C313 H277 0.932 . S
C313 C308 1.388 . S
C313 C312 1.443 . S
H314 C341 0.929 . S
N315 C340 1.433 . S
N315 C346 1.435 . S
N315 C352 1.423 . S
H316 C342 0.930 . S
H317 C345 0.931 . S
H318 C344 0.929 . S
H319 C347 0.930 . S
H320 C348 0.932 . S
H321 C351 0.929 . S
H322 C350 0.931 . S
H323 C353 0.929 . S
H324 C357 0.932 . S
H325 C354 0.931 . S
H326 C356 0.929 . S
H327 C359 0.929 . S
H328 C360 0.930 . S
H329 C362 0.929 . S
H330 C363 0.931 . S
H331 C365 0.930 . S
H332 C366 0.932 . S
H333 C368 0.931 . S
H334 C369 0.929 . S
H335 C371 0.929 . S
H336 C372 0.931 . S
H337 C374 0.929 . S
N338 C358 1.433 . S
N338 C364 1.435 . S
N338 C370 1.423 . S
H339 C375 0.932 . S
C340 N315 1.433 . S
C340 C341 1.363 . S
C340 C345 1.370 . S
C341 H314 0.929 . S
C341 C340 1.363 . S
C341 C342 1.385 . S
C342 H316 0.930 . S
C342 C341 1.385 . S
C342 C343 1.357 . S
C343 C342 1.357 . S
C343 C344 1.406 . S
C344 H318 0.929 . S
C344 C343 1.406 . S
C344 C345 1.391 . S
C345 H317 0.931 . S
C345 C340 1.370 . S
C345 C344 1.391 . S
C346 N315 1.435 . S
C346 C347 1.358 . S
C346 C351 1.371 . S
C347 H319 0.930 . S
C347 C346 1.358 . S
C347 C348 1.405 . S
C348 H320 0.932 . S
C348 C347 1.405 . S
C348 C349 1.383 . S
C349 C348 1.383 . S
C349 C350 1.393 . S
C350 H322 0.931 . S
C350 C349 1.393 . S
C350 C351 1.382 . S
C351 H321 0.929 . S
C351 C346 1.371 . S
C351 C350 1.382 . S
C352 N315 1.423 . S
C352 C353 1.362 . S
C352 C357 1.388 . S
C353 H323 0.929 . S
C353 C352 1.362 . S
C353 C354 1.376 . S
C354 H325 0.931 . S
C354 C353 1.376 . S
C354 C355 1.396 . S
C355 C354 1.396 . S
C355 C356 1.348 . S
C355 C373 1.472 . S
C356 H326 0.929 . S
C356 C355 1.348 . S
C356 C357 1.443 . S
C357 H324 0.932 . S
C357 C352 1.388 . S
C357 C356 1.443 . S
C358 N338 1.433 . S
C358 C359 1.363 . S
C358 C363 1.370 . S
C359 H327 0.929 . S
C359 C358 1.363 . S
C359 C360 1.385 . S
C360 H328 0.930 . S
C360 C359 1.385 . S
C360 C361 1.357 . S
C361 C360 1.357 . S
C361 C362 1.406 . S
C362 H329 0.929 . S
C362 C361 1.406 . S
C362 C363 1.391 . S
C363 H330 0.931 . S
C363 C358 1.370 . S
C363 C362 1.391 . S
C364 N338 1.435 . S
C364 C365 1.358 . S
C364 C369 1.371 . S
C365 H331 0.930 . S
C365 C364 1.358 . S
C365 C366 1.405 . S
C366 H332 0.932 . S
C366 C365 1.405 . S
C366 C367 1.383 . S
C367 C366 1.383 . S
C367 C368 1.393 . S
C368 H333 0.931 . S
C368 C367 1.393 . S
C368 C369 1.382 . S
C369 H334 0.929 . S
C369 C364 1.371 . S
C369 C368 1.382 . S
C370 N338 1.423 . S
C370 C371 1.362 . S
C370 C375 1.388 . S
C371 H335 0.929 . S
C371 C370 1.362 . S
C371 C372 1.376 . S
C372 H336 0.931 . S
C372 C371 1.376 . S
C372 C373 1.396 . S
C373 C355 1.472 . S
C373 C372 1.396 . S
C373 C374 1.348 . S
C374 H337 0.929 . S
C374 C373 1.348 . S
C374 C375 1.443 . S
C375 H339 0.932 . S
C375 C370 1.388 . S
C375 C374 1.443 . S
H376 C403 0.929 . S
N377 C402 1.433 . S
N377 C408 1.435 . S
N377 C414 1.423 . S
H378 C404 0.930 . S
H379 C407 0.931 . S
H380 C406 0.929 . S
H381 C409 0.930 . S
H382 C410 0.932 . S
H383 C413 0.929 . S
H384 C412 0.931 . S
H385 C415 0.929 . S
H386 C419 0.932 . S
H387 C416 0.931 . S
H388 C418 0.929 . S
H389 C421 0.929 . S
H390 C422 0.930 . S
H391 C424 0.929 . S
H392 C425 0.931 . S
H393 C427 0.930 . S
H394 C428 0.932 . S
H395 C430 0.931 . S
H396 C431 0.929 . S
H397 C433 0.929 . S
H398 C434 0.931 . S
H399 C436 0.929 . S
N400 C420 1.433 . S
N400 C426 1.435 . S
N400 C432 1.423 . S
H401 C437 0.932 . S
C402 N377 1.433 . S
C402 C403 1.363 . S
C402 C407 1.370 . S
C403 H376 0.929 . S
C403 C402 1.363 . S
C403 C404 1.385 . S
C404 H378 0.930 . S
C404 C403 1.385 . S
C404 C405 1.357 . S
C405 C404 1.357 . S
C405 C406 1.406 . S
C406 H380 0.929 . S
C406 C405 1.406 . S
C406 C407 1.391 . S
C407 H379 0.931 . S
C407 C402 1.370 . S
C407 C406 1.391 . S
C408 N377 1.435 . S
C408 C409 1.358 . S
C408 C413 1.371 . S
C409 H381 0.930 . S
C409 C408 1.358 . S
C409 C410 1.405 . S
C410 H382 0.932 . S
C410 C409 1.405 . S
C410 C411 1.383 . S
C411 C410 1.383 . S
C411 C412 1.393 . S
C412 H384 0.931 . S
C412 C411 1.393 . S
C412 C413 1.382 . S
C413 H383 0.929 . S
C413 C408 1.371 . S
C413 C412 1.382 . S
C414 N377 1.423 . S
C414 C415 1.362 . S
C414 C419 1.388 . S
C415 H385 0.929 . S
C415 C414 1.362 . S
C415 C416 1.376 . S
C416 H387 0.931 . S
C416 C415 1.376 . S
C416 C417 1.396 . S
C417 C416 1.396 . S
C417 C418 1.348 . S
C417 C435 1.472 . S
C418 H388 0.929 . S
C418 C417 1.348 . S
C418 C419 1.443 . S
C419 H386 0.932 . S
C419 C414 1.388 . S
C419 C418 1.443 . S
C420 N400 1.433 . S
C420 C421 1.363 . S
C420 C425 1.370 . S
C421 H389 0.929 . S
C421 C420 1.363 . S
C421 C422 1.385 . S
C422 H390 0.930 . S
C422 C421 1.385 . S
C422 C423 1.357 . S
C423 C422 1.357 . S
C423 C424 1.406 . S
C424 H391 0.929 . S
C424 C423 1.406 . S
C424 C425 1.391 . S
C425 H392 0.931 . S
C425 C420 1.370 . S
C425 C424 1.391 . S
C426 N400 1.435 . S
C426 C427 1.358 . S
C426 C431 1.371 . S
C427 H393 0.930 . S
C427 C426 1.358 . S
C427 C428 1.405 . S
C428 H394 0.932 . S
C428 C427 1.405 . S
C428 C429 1.383 . S
C429 C428 1.383 . S
C429 C430 1.393 . S
C430 H395 0.931 . S
C430 C429 1.393 . S
C430 C431 1.382 . S
C431 H396 0.929 . S
C431 C426 1.371 . S
C431 C430 1.382 . S
C432 N400 1.423 . S
C432 C433 1.362 . S
C432 C437 1.388 . S
C433 H397 0.929 . S
C433 C432 1.362 . S
C433 C434 1.376 . S
C434 H398 0.931 . S
C434 C433 1.376 . S
C434 C435 1.396 . S
C435 C417 1.472 . S
C435 C434 1.396 . S
C435 C436 1.348 . S
C436 H399 0.929 . S
C436 C435 1.348 . S
C436 C437 1.443 . S
C437 H401 0.932 . S
C437 C432 1.388 . S
C437 C436 1.443 . S
H438 C465 0.929 . S
N439 C464 1.433 . S
N439 C470 1.435 . S
N439 C476 1.423 . S
H440 C466 0.930 . S
H441 C469 0.931 . S
H442 C468 0.929 . S
H443 C471 0.930 . S
H444 C472 0.932 . S
H445 C475 0.929 . S
H446 C474 0.931 . S
H447 C477 0.929 . S
H448 C481 0.932 . S
H449 C478 0.931 . S
H450 C480 0.929 . S
H451 C483 0.929 . S
H452 C484 0.930 . S
H453 C486 0.929 . S
H454 C487 0.931 . S
H455 C489 0.930 . S
H456 C490 0.932 . S
H457 C492 0.931 . S
H458 C493 0.929 . S
H459 C495 0.929 . S
H460 C496 0.931 . S
H461 C498 0.929 . S
N462 C482 1.433 . S
N462 C488 1.435 . S
N462 C494 1.423 . S
H463 C499 0.932 . S
C464 N439 1.433 . S
C464 C465 1.363 . S
C464 C469 1.370 . S
C465 H438 0.929 . S
C465 C464 1.363 . S
C465 C466 1.385 . S
C466 H440 0.930 . S
C466 C465 1.385 . S
C466 C467 1.357 . S
C467 C466 1.357 . S
C467 C468 1.406 . S
C468 H442 0.929 . S
C468 C467 1.406 . S
C468 C469 1.391 . S
C469 H441 0.931 . S
C469 C464 1.370 . S
C469 C468 1.391 . S
C470 N439 1.435 . S
C470 C471 1.358 . S
C470 C475 1.371 . S
C471 H443 0.930 . S
C471 C470 1.358 . S
C471 C472 1.405 . S
C472 H444 0.932 . S
C472 C471 1.405 . S
C472 C473 1.383 . S
C473 C472 1.383 . S
C473 C474 1.393 . S
C474 H446 0.931 . S
C474 C473 1.393 . S
C474 C475 1.382 . S
C475 H445 0.929 . S
C475 C470 1.371 . S
C475 C474 1.382 . S
C476 N439 1.423 . S
C476 C477 1.362 . S
C476 C481 1.388 . S
C477 H447 0.929 . S
C477 C476 1.362 . S
C477 C478 1.376 . S
C478 H449 0.931 . S
C478 C477 1.376 . S
C478 C479 1.396 . S
C479 C478 1.396 . S
C479 C480 1.348 . S
C479 C497 1.472 . S
C480 H450 0.929 . S
C480 C479 1.348 . S
C480 C481 1.443 . S
C481 H448 0.932 . S
C481 C476 1.388 . S
C481 C480 1.443 . S
C482 N462 1.433 . S
C482 C483 1.363 . S
C482 C487 1.370 . S
C483 H451 0.929 . S
C483 C482 1.363 . S
C483 C484 1.385 . S
C484 H452 0.930 . S
C484 C483 1.385 . S
C484 C485 1.357 . S
C485 C484 1.357 . S
C485 C486 1.406 . S
C486 H453 0.929 . S
C486 C485 1.406 . S
C486 C487 1.391 . S
C487 H454 0.931 . S
C487 C482 1.370 . S
C487 C486 1.391 . S
C488 N462 1.435 . S
C488 C489 1.358 . S
C488 C493 1.371 . S
C489 H455 0.930 . S
C489 C488 1.358 . S
C489 C490 1.405 . S
C490 H456 0.932 . S
C490 C489 1.405 . S
C490 C491 1.383 . S
C491 C490 1.383 . S
C491 C492 1.393 . S
C492 H457 0.931 . S
C492 C491 1.393 . S
C492 C493 1.382 . S
C493 H458 0.929 . S
C493 C488 1.371 . S
C493 C492 1.382 . S
C494 N462 1.423 . S
C494 C495 1.362 . S
C494 C499 1.388 . S
C495 H459 0.929 . S
C495 C494 1.362 . S
C495 C496 1.376 . S
C496 H460 0.931 . S
C496 C495 1.376 . S
C496 C497 1.396 . S
C497 C479 1.472 . S
C497 C496 1.396 . S
C497 C498 1.348 . S
C498 H461 0.929 . S
C498 C497 1.348 . S
C498 C499 1.443 . S
C499 H463 0.932 . S
C499 C494 1.388 . S
C499 C498 1.443 . S
H500 C527 0.929 . S
N501 C526 1.433 . S
N501 C532 1.435 . S
N501 C538 1.423 . S
H502 C528 0.930 . S
H503 C531 0.931 . S
H504 C530 0.929 . S
H505 C533 0.930 . S
H506 C534 0.932 . S
H507 C537 0.929 . S
H508 C536 0.931 . S
H509 C539 0.929 . S
H510 C543 0.932 . S
H511 C540 0.931 . S
H512 C542 0.929 . S
H513 C545 0.929 . S
H514 C546 0.930 . S
H515 C548 0.929 . S
H516 C549 0.931 . S
H517 C551 0.930 . S
H518 C552 0.932 . S
H519 C554 0.931 . S
H520 C555 0.929 . S
H521 C557 0.929 . S
H522 C558 0.931 . S
H523 C560 0.929 . S
N524 C544 1.433 . S
N524 C550 1.435 . S
N524 C556 1.423 . S
H525 C561 0.932 . S
C526 N501 1.433 . S
C526 C527 1.363 . S
C526 C531 1.370 . S
C527 H500 0.929 . S
C527 C526 1.363 . S
C527 C528 1.385 . S
C528 H502 0.930 . S
C528 C527 1.385 . S
C528 C529 1.357 . S
C529 C528 1.357 . S
C529 C530 1.406 . S
C530 H504 0.929 . S
C530 C529 1.406 . S
C530 C531 1.391 . S
C531 H503 0.931 . S
C531 C526 1.370 . S
C531 C530 1.391 . S
C532 N501 1.435 . S
C532 C533 1.358 . S
C532 C537 1.371 . S
C533 H505 0.930 . S
C533 C532 1.358 . S
C533 C534 1.405 . S
C534 H506 0.932 . S
C534 C533 1.405 . S
C534 C535 1.383 . S
C535 C534 1.383 . S
C535 C536 1.393 . S
C536 H508 0.931 . S
C536 C535 1.393 . S
C536 C537 1.382 . S
C537 H507 0.929 . S
C537 C532 1.371 . S
C537 C536 1.382 . S
C538 N501 1.423 . S
C538 C539 1.362 . S
C538 C543 1.388 . S
C539 H509 0.929 . S
C539 C538 1.362 . S
C539 C540 1.376 . S
C540 H511 0.931 . S
C540 C539 1.376 . S
C540 C541 1.396 . S
C541 C540 1.396 . S
C541 C542 1.348 . S
C541 C559 1.472 . S
C542 H512 0.929 . S
C542 C541 1.348 . S
C542 C543 1.443 . S
C543 H510 0.932 . S
C543 C538 1.388 . S
C543 C542 1.443 . S
C544 N524 1.433 . S
C544 C545 1.363 . S
C544 C549 1.370 . S
C545 H513 0.929 . S
C545 C544 1.363 . S
C545 C546 1.385 . S
C546 H514 0.930 . S
C546 C545 1.385 . S
C546 C547 1.357 . S
C547 C546 1.357 . S
C547 C548 1.406 . S
C548 H515 0.929 . S
C548 C547 1.406 . S
C548 C549 1.391 . S
C549 H516 0.931 . S
C549 C544 1.370 . S
C549 C548 1.391 . S
C550 N524 1.435 . S
C550 C551 1.358 . S
C550 C555 1.371 . S
C551 H517 0.930 . S
C551 C550 1.358 . S
C551 C552 1.405 . S
C552 H518 0.932 . S
C552 C551 1.405 . S
C552 C553 1.383 . S
C553 C552 1.383 . S
C553 C554 1.393 . S
C554 H519 0.931 . S
C554 C553 1.393 . S
C554 C555 1.382 . S
C555 H520 0.929 . S
C555 C550 1.371 . S
C555 C554 1.382 . S
C556 N524 1.423 . S
C556 C557 1.362 . S
C556 C561 1.388 . S
C557 H521 0.929 . S
C557 C556 1.362 . S
C557 C558 1.376 . S
C558 H522 0.931 . S
C558 C557 1.376 . S
C558 C559 1.396 . S
C559 C541 1.472 . S
C559 C558 1.396 . S
C559 C560 1.348 . S
C560 H523 0.929 . S
C560 C559 1.348 . S
C560 C561 1.443 . S
C561 H525 0.932 . S
C561 C556 1.388 . S
C561 C560 1.443 . S
H562 C589 0.929 . S
N563 C588 1.433 . S
N563 C594 1.435 . S
N563 C600 1.423 . S
H564 C590 0.930 . S
H565 C593 0.931 . S
H566 C592 0.929 . S
H567 C595 0.930 . S
H568 C596 0.932 . S
H569 C599 0.929 . S
H570 C598 0.931 . S
H571 C601 0.929 . S
H572 C605 0.932 . S
H573 C602 0.931 . S
H574 C604 0.929 . S
H575 C607 0.929 . S
H576 C608 0.930 . S
H577 C610 0.929 . S
H578 C611 0.931 . S
H579 C613 0.930 . S
H580 C614 0.932 . S
H581 C616 0.931 . S
H582 C617 0.929 . S
H583 C619 0.929 . S
H584 C620 0.931 . S
H585 C622 0.929 . S
N586 C606 1.433 . S
N586 C612 1.435 . S
N586 C618 1.423 . S
H587 C623 0.932 . S
C588 N563 1.433 . S
C588 C589 1.363 . S
C588 C593 1.370 . S
C589 H562 0.929 . S
C589 C588 1.363 . S
C589 C590 1.385 . S
C590 H564 0.930 . S
C590 C589 1.385 . S
C590 C591 1.357 . S
C591 C590 1.357 . S
C591 C592 1.406 . S
C592 H566 0.929 . S
C592 C591 1.406 . S
C592 C593 1.391 . S
C593 H565 0.931 . S
C593 C588 1.370 . S
C593 C592 1.391 . S
C594 N563 1.435 . S
C594 C595 1.358 . S
C594 C599 1.371 . S
C595 H567 0.930 . S
C595 C594 1.358 . S
C595 C596 1.405 . S
C596 H568 0.932 . S
C596 C595 1.405 . S
C596 C597 1.383 . S
C597 C596 1.383 . S
C597 C598 1.393 . S
C598 H570 0.931 . S
C598 C597 1.393 . S
C598 C599 1.382 . S
C599 H569 0.929 . S
C599 C594 1.371 . S
C599 C598 1.382 . S
C600 N563 1.423 . S
C600 C601 1.362 . S
C600 C605 1.388 . S
C601 H571 0.929 . S
C601 C600 1.362 . S
C601 C602 1.376 . S
C602 H573 0.931 . S
C602 C601 1.376 . S
C602 C603 1.396 . S
C603 C602 1.396 . S
C603 C604 1.348 . S
C603 C621 1.472 . S
C604 H574 0.929 . S
C604 C603 1.348 . S
C604 C605 1.443 . S
C605 H572 0.932 . S
C605 C600 1.388 . S
C605 C604 1.443 . S
C606 N586 1.433 . S
C606 C607 1.363 . S
C606 C611 1.370 . S
C607 H575 0.929 . S
C607 C606 1.363 . S
C607 C608 1.385 . S
C608 H576 0.930 . S
C608 C607 1.385 . S
C608 C609 1.357 . S
C609 C608 1.357 . S
C609 C610 1.406 . S
C610 H577 0.929 . S
C610 C609 1.406 . S
C610 C611 1.391 . S
C611 H578 0.931 . S
C611 C606 1.370 . S
C611 C610 1.391 . S
C612 N586 1.435 . S
C612 C613 1.358 . S
C612 C617 1.371 . S
C613 H579 0.930 . S
C613 C612 1.358 . S
C613 C614 1.405 . S
C614 H580 0.932 . S
C614 C613 1.405 . S
C614 C615 1.383 . S
C615 C614 1.383 . S
C615 C616 1.393 . S
C616 H581 0.931 . S
C616 C615 1.393 . S
C616 C617 1.382 . S
C617 H582 0.929 . S
C617 C612 1.371 . S
C617 C616 1.382 . S
C618 N586 1.423 . S
C618 C619 1.362 . S
C618 C623 1.388 . S
C619 H583 0.929 . S
C619 C618 1.362 . S
C619 C620 1.376 . S
C620 H584 0.931 . S
C620 C619 1.376 . S
C620 C621 1.396 . S
C621 C603 1.472 . S
C621 C620 1.396 . S
C621 C622 1.348 . S
C622 H585 0.929 . S
C622 C621 1.348 . S
C622 C623 1.443 . S
C623 H587 0.932 . S
C623 C618 1.388 . S
C623 C622 1.443 . S
H624 C651 0.929 . S
N625 C650 1.433 . S
N625 C656 1.435 . S
N625 C662 1.423 . S
H626 C652 0.930 . S
H627 C655 0.931 . S
H628 C654 0.929 . S
H629 C657 0.930 . S
H630 C658 0.932 . S
H631 C661 0.929 . S
H632 C660 0.931 . S
H633 C663 0.929 . S
H634 C667 0.932 . S
H635 C664 0.931 . S
H636 C666 0.929 . S
H637 C669 0.929 . S
H638 C670 0.930 . S
H639 C672 0.929 . S
H640 C673 0.931 . S
H641 C675 0.930 . S
H642 C676 0.932 . S
H643 C678 0.931 . S
H644 C679 0.929 . S
H645 C681 0.929 . S
H646 C682 0.931 . S
H647 C684 0.929 . S
N648 C668 1.433 . S
N648 C674 1.435 . S
N648 C680 1.423 . S
H649 C685 0.932 . S
C650 N625 1.433 . S
C650 C651 1.363 . S
C650 C655 1.370 . S
C651 H624 0.929 . S
C651 C650 1.363 . S
C651 C652 1.385 . S
C652 H626 0.930 . S
C652 C651 1.385 . S
C652 C653 1.357 . S
C653 C652 1.357 . S
C653 C654 1.406 . S
C654 H628 0.929 . S
C654 C653 1.406 . S
C654 C655 1.391 . S
C655 H627 0.931 . S
C655 C650 1.370 . S
C655 C654 1.391 . S
C656 N625 1.435 . S
C656 C657 1.358 . S
C656 C661 1.371 . S
C657 H629 0.930 . S
C657 C656 1.358 . S
C657 C658 1.405 . S
C658 H630 0.932 . S
C658 C657 1.405 . S
C658 C659 1.383 . S
C659 C658 1.383 . S
C659 C660 1.393 . S
C660 H632 0.931 . S
C660 C659 1.393 . S
C660 C661 1.382 . S
C661 H631 0.929 . S
C661 C656 1.371 . S
C661 C660 1.382 . S
C662 N625 1.423 . S
C662 C663 1.362 . S
C662 C667 1.388 . S
C663 H633 0.929 . S
C663 C662 1.362 . S
C663 C664 1.376 . S
C664 H635 0.931 . S
C664 C663 1.376 . S
C664 C665 1.396 . S
C665 C664 1.396 . S
C665 C666 1.348 . S
C665 C683 1.472 . S
C666 H636 0.929 . S
C666 C665 1.348 . S
C666 C667 1.443 . S
C667 H634 0.932 . S
C667 C662 1.388 . S
C667 C666 1.443 . S
C668 N648 1.433 . S
C668 C669 1.363 . S
C668 C673 1.370 . S
C669 H637 0.929 . S
C669 C668 1.363 . S
C669 C670 1.385 . S
C670 H638 0.930 . S
C670 C669 1.385 . S
C670 C671 1.357 . S
C671 C670 1.357 . S
C671 C672 1.406 . S
C672 H639 0.929 . S
C672 C671 1.406 . S
C672 C673 1.391 . S
C673 H640 0.931 . S
C673 C668 1.370 . S
C673 C672 1.391 . S
C674 N648 1.435 . S
C674 C675 1.358 . S
C674 C679 1.371 . S
C675 H641 0.930 . S
C675 C674 1.358 . S
C675 C676 1.405 . S
C676 H642 0.932 . S
C676 C675 1.405 . S
C676 C677 1.383 . S
C677 C676 1.383 . S
C677 C678 1.393 . S
C678 H643 0.931 . S
C678 C677 1.393 . S
C678 C679 1.382 . S
C679 H644 0.929 . S
C679 C674 1.371 . S
C679 C678 1.382 . S
C680 N648 1.423 . S
C680 C681 1.362 . S
C680 C685 1.388 . S
C681 H645 0.929 . S
C681 C680 1.362 . S
C681 C682 1.376 . S
C682 H646 0.931 . S
C682 C681 1.376 . S
C682 C683 1.396 . S
C683 C665 1.472 . S
C683 C682 1.396 . S
C683 C684 1.348 . S
C684 H647 0.929 . S
C684 C683 1.348 . S
C684 C685 1.443 . S
C685 H649 0.932 . S
C685 C680 1.388 . S
C685 C684 1.443 . S
H686 C713 0.929 . S
N687 C712 1.433 . S
N687 C718 1.435 . S
N687 C724 1.423 . S
H688 C714 0.930 . S
H689 C717 0.931 . S
H690 C716 0.929 . S
H691 C719 0.930 . S
H692 C720 0.932 . S
H693 C723 0.929 . S
H694 C722 0.931 . S
H695 C725 0.929 . S
H696 C729 0.932 . S
H697 C726 0.931 . S
H698 C728 0.929 . S
H699 C731 0.929 . S
H700 C732 0.930 . S
H701 C734 0.929 . S
H702 C735 0.931 . S
H703 C737 0.930 . S
H704 C738 0.932 . S
H705 C740 0.931 . S
H706 C741 0.929 . S
H707 C743 0.929 . S
H708 C744 0.931 . S
H709 C746 0.929 . S
N710 C730 1.433 . S
N710 C736 1.435 . S
N710 C742 1.423 . S
H711 C747 0.932 . S
C712 N687 1.433 . S
C712 C713 1.363 . S
C712 C717 1.370 . S
C713 H686 0.929 . S
C713 C712 1.363 . S
C713 C714 1.385 . S
C714 H688 0.930 . S
C714 C713 1.385 . S
C714 C715 1.357 . S
C715 C714 1.357 . S
C715 C716 1.406 . S
C716 H690 0.929 . S
C716 C715 1.406 . S
C716 C717 1.391 . S
C717 H689 0.931 . S
C717 C712 1.370 . S
C717 C716 1.391 . S
C718 N687 1.435 . S
C718 C719 1.358 . S
C718 C723 1.371 . S
C719 H691 0.930 . S
C719 C718 1.358 . S
C719 C720 1.405 . S
C720 H692 0.932 . S
C720 C719 1.405 . S
C720 C721 1.383 . S
C721 C720 1.383 . S
C721 C722 1.393 . S
C722 H694 0.931 . S
C722 C721 1.393 . S
C722 C723 1.382 . S
C723 H693 0.929 . S
C723 C718 1.371 . S
C723 C722 1.382 . S
C724 N687 1.423 . S
C724 C725 1.362 . S
C724 C729 1.388 . S
C725 H695 0.929 . S
C725 C724 1.362 . S
C725 C726 1.376 . S
C726 H697 0.931 . S
C726 C725 1.376 . S
C726 C727 1.396 . S
C727 C726 1.396 . S
C727 C728 1.348 . S
C727 C745 1.472 . S
C728 H698 0.929 . S
C728 C727 1.348 . S
C728 C729 1.443 . S
C729 H696 0.932 . S
C729 C724 1.388 . S
C729 C728 1.443 . S
C730 N710 1.433 . S
C730 C731 1.363 . S
C730 C735 1.370 . S
C731 H699 0.929 . S
C731 C730 1.363 . S
C731 C732 1.385 . S
C732 H700 0.930 . S
C732 C731 1.385 . S
C732 C733 1.357 . S
C733 C732 1.357 . S
C733 C734 1.406 . S
C734 H701 0.929 . S
C734 C733 1.406 . S
C734 C735 1.391 . S
C735 H702 0.931 . S
C735 C730 1.370 . S
C735 C734 1.391 . S
C736 N710 1.435 . S
C736 C737 1.358 . S
C736 C741 1.371 . S
C737 H703 0.930 . S
C737 C736 1.358 . S
C737 C738 1.405 . S
C738 H704 0.932 . S
C738 C737 1.405 . S
C738 C739 1.383 . S
C739 C738 1.383 . S
C739 C740 1.393 . S
C740 H705 0.931 . S
C740 C739 1.393 . S
C740 C741 1.382 . S
C741 H706 0.929 . S
C741 C736 1.371 . S
C741 C740 1.382 . S
C742 N710 1.423 . S
C742 C743 1.362 . S
C742 C747 1.388 . S
C743 H707 0.929 . S
C743 C742 1.362 . S
C743 C744 1.376 . S
C744 H708 0.931 . S
C744 C743 1.376 . S
C744 C745 1.396 . S
C745 C727 1.472 . S
C745 C744 1.396 . S
C745 C746 1.348 . S
C746 H709 0.929 . S
C746 C745 1.348 . S
C746 C747 1.443 . S
C747 H711 0.932 . S
C747 C742 1.388 . S
C747 C746 1.443 . S
H748 C775 0.929 . S
N749 C774 1.433 . S
N749 C780 1.435 . S
N749 C786 1.423 . S
H750 C776 0.930 . S
H751 C779 0.931 . S
H752 C778 0.929 . S
H753 C781 0.930 . S
H754 C782 0.932 . S
H755 C785 0.929 . S
H756 C784 0.931 . S
H757 C787 0.929 . S
H758 C791 0.932 . S
H759 C788 0.931 . S
H760 C790 0.929 . S
H761 C793 0.929 . S
H762 C794 0.930 . S
H763 C796 0.929 . S
H764 C797 0.931 . S
H765 C799 0.930 . S
H766 C800 0.932 . S
H767 C802 0.931 . S
H768 C803 0.929 . S
H769 C805 0.929 . S
H770 C806 0.931 . S
H771 C808 0.929 . S
N772 C792 1.433 . S
N772 C798 1.435 . S
N772 C804 1.423 . S
H773 C809 0.932 . S
C774 N749 1.433 . S
C774 C775 1.363 . S
C774 C779 1.370 . S
C775 H748 0.929 . S
C775 C774 1.363 . S
C775 C776 1.385 . S
C776 H750 0.930 . S
C776 C775 1.385 . S
C776 C777 1.357 . S
C777 C776 1.357 . S
C777 C778 1.406 . S
C778 H752 0.929 . S
C778 C777 1.406 . S
C778 C779 1.391 . S
C779 H751 0.931 . S
C779 C774 1.370 . S
C779 C778 1.391 . S
C780 N749 1.435 . S
C780 C781 1.358 . S
C780 C785 1.371 . S
C781 H753 0.930 . S
C781 C780 1.358 . S
C781 C782 1.405 . S
C782 H754 0.932 . S
C782 C781 1.405 . S
C782 C783 1.383 . S
C783 C782 1.383 . S
C783 C784 1.393 . S
C784 H756 0.931 . S
C784 C783 1.393 . S
C784 C785 1.382 . S
C785 H755 0.929 . S
C785 C780 1.371 . S
C785 C784 1.382 . S
C786 N749 1.423 . S
C786 C787 1.362 . S
C786 C791 1.388 . S
C787 H757 0.929 . S
C787 C786 1.362 . S
C787 C788 1.376 . S
C788 H759 0.931 . S
C788 C787 1.376 . S
C788 C789 1.396 . S
C789 C788 1.396 . S
C789 C790 1.348 . S
C789 C807 1.472 . S
C790 H760 0.929 . S
C790 C789 1.348 . S
C790 C791 1.443 . S
C791 H758 0.932 . S
C791 C786 1.388 . S
C791 C790 1.443 . S
C792 N772 1.433 . S
C792 C793 1.363 . S
C792 C797 1.370 . S
C793 H761 0.929 . S
C793 C792 1.363 . S
C793 C794 1.385 . S
C794 H762 0.930 . S
C794 C793 1.385 . S
C794 C795 1.357 . S
C795 C794 1.357 . S
C795 C796 1.406 . S
C796 H763 0.929 . S
C796 C795 1.406 . S
C796 C797 1.391 . S
C797 H764 0.931 . S
C797 C792 1.370 . S
C797 C796 1.391 . S
C798 N772 1.435 . S
C798 C799 1.358 . S
C798 C803 1.371 . S
C799 H765 0.930 . S
C799 C798 1.358 . S
C799 C800 1.405 . S
C800 H766 0.932 . S
C800 C799 1.405 . S
C800 C801 1.383 . S
C801 C800 1.383 . S
C801 C802 1.393 . S
C802 H767 0.931 . S
C802 C801 1.393 . S
C802 C803 1.382 . S
C803 H768 0.929 . S
C803 C798 1.371 . S
C803 C802 1.382 . S
C804 N772 1.423 . S
C804 C805 1.362 . S
C804 C809 1.388 . S
C805 H769 0.929 . S
C805 C804 1.362 . S
C805 C806 1.376 . S
C806 H770 0.931 . S
C806 C805 1.376 . S
C806 C807 1.396 . S
C807 C789 1.472 . S
C807 C806 1.396 . S
C807 C808 1.348 . S
C808 H771 0.929 . S
C808 C807 1.348 . S
C808 C809 1.443 . S
C809 H773 0.932 . S
C809 C804 1.388 . S
C809 C808 1.443 . S
H810 C837 0.929 . S
N811 C836 1.433 . S
N811 C842 1.435 . S
N811 C848 1.423 . S
H812 C838 0.930 . S
H813 C841 0.931 . S
H814 C840 0.929 . S
H815 C843 0.930 . S
H816 C844 0.932 . S
H817 C847 0.929 . S
H818 C846 0.931 . S
H819 C849 0.929 . S
H820 C853 0.932 1_655 S
H821 C850 0.931 . S
H822 C852 0.942 . S
H823 C855 0.929 . S
H824 C856 0.930 . S
H825 C858 0.929 . S
H826 C859 0.931 . S
H827 C861 0.930 . S
H828 C862 0.932 . S
H829 C864 0.931 . S
H830 C865 0.929 . S
H831 C867 0.929 . S
H832 C868 0.931 . S
H833 C870 0.929 . S
N834 C854 1.433 . S
N834 C860 1.435 . S
N834 C866 1.423 . S
H835 C871 0.932 1_655 S
C836 N811 1.433 . S
C836 C837 1.363 . S
C836 C841 1.370 1_455 S
C837 H810 0.929 . S
C837 C836 1.363 . S
C837 C838 1.385 . S
C838 H812 0.930 . S
C838 C837 1.385 . S
C838 C839 1.357 1_455 S
C839 C838 1.357 1_655 S
C839 C840 1.406 . S
C840 H814 0.929 . S
C840 C839 1.406 . S
C840 C841 1.391 . S
C841 H813 0.931 . S
C841 C836 1.370 1_655 S
C841 C840 1.391 . S
C842 N811 1.435 . S
C842 C843 1.358 1_455 S
C842 C847 1.371 . S
C843 H815 0.930 . S
C843 C842 1.358 1_655 S
C843 C844 1.405 . S
C844 H816 0.932 . S
C844 C843 1.405 . S
C844 C845 1.383 1_655 S
C845 C844 1.383 1_455 S
C845 C846 1.393 . S
C846 H818 0.931 . S
C846 C845 1.393 . S
C846 C847 1.382 . S
C847 H817 0.929 . S
C847 C842 1.371 . S
C847 C846 1.382 . S
C848 N811 1.423 . S
C848 C849 1.362 . S
C848 C853 1.388 . S
C849 H819 0.929 . S
C849 C848 1.362 . S
C849 C850 1.376 . S
C850 H821 0.931 . S
C850 C849 1.376 . S
C850 C851 1.396 . S
C851 C850 1.396 . S
C851 C852 1.348 . S
C851 C869 1.472 . S
C852 H822 0.942 . S
C852 C851 1.348 . S
C852 C853 1.443 . S
C853 H820 0.932 1_455 S
C853 C848 1.388 . S
C853 C852 1.443 . S
C854 N834 1.433 . S
C854 C855 1.363 . S
C854 C859 1.370 1_455 S
C855 H823 0.929 . S
C855 C854 1.363 . S
C855 C856 1.385 . S
C856 H824 0.930 . S
C856 C855 1.385 . S
C856 C857 1.357 1_455 S
C857 C856 1.357 1_655 S
C857 C858 1.406 . S
C858 H825 0.929 . S
C858 C857 1.406 . S
C858 C859 1.391 . S
C859 H826 0.931 . S
C859 C854 1.370 1_655 S
C859 C858 1.391 . S
C860 N834 1.435 . S
C860 C861 1.358 1_455 S
C860 C865 1.371 . S
C861 H827 0.930 . S
C861 C860 1.358 1_655 S
C861 C862 1.405 . S
C862 H828 0.932 . S
C862 C861 1.405 . S
C862 C863 1.383 1_655 S
C863 C862 1.383 1_455 S
C863 C864 1.393 . S
C864 H829 0.931 . S
C864 C863 1.393 . S
C864 C865 1.382 . S
C865 H830 0.929 . S
C865 C860 1.371 . S
C865 C864 1.382 . S
C866 N834 1.423 . S
C866 C867 1.362 . S
C866 C871 1.388 . S
C867 H831 0.929 . S
C867 C866 1.362 . S
C867 C868 1.376 . S
C868 H832 0.931 . S
C868 C867 1.376 . S
C868 C869 1.396 . S
C869 C851 1.472 . S
C869 C868 1.396 . S
C869 C870 1.348 . S
C870 H833 0.929 . S
C870 C869 1.348 . S
C870 C871 1.443 . S
C871 H835 0.932 1_455 S
C871 C866 1.388 . S
C871 C870 1.443 . S
H872 C899 0.929 . S
N873 C898 1.433 . S
N873 C904 1.435 . S
N873 C910 1.423 . S
H874 C900 0.930 . S
H875 C903 0.931 . S
H876 C902 0.929 . S
H877 C905 0.930 . S
H878 C906 0.932 . S
H879 C909 0.929 . S
H880 C908 0.931 . S
H881 C911 0.929 . S
H882 C915 0.932 . S
H883 C912 0.931 . S
H884 C914 0.929 . S
H885 C917 0.929 . S
H886 C918 0.930 . S
H887 C920 0.929 . S
H888 C921 0.931 . S
H889 C923 0.930 . S
H890 C924 0.932 . S
H891 C926 0.931 . S
H892 C927 0.929 . S
H893 C929 0.929 . S
H894 C930 0.931 . S
H895 C932 0.929 . S
N896 C916 1.433 . S
N896 C922 1.435 . S
N896 C928 1.423 . S
H897 C933 0.932 . S
C898 N873 1.433 . S
C898 C899 1.363 . S
C898 C903 1.370 . S
C899 H872 0.929 . S
C899 C898 1.363 . S
C899 C900 1.385 . S
C900 H874 0.930 . S
C900 C899 1.385 . S
C900 C901 1.357 . S
C901 C900 1.357 . S
C901 C902 1.406 . S
C902 H876 0.929 . S
C902 C901 1.406 . S
C902 C903 1.391 . S
C903 H875 0.931 . S
C903 C898 1.370 . S
C903 C902 1.391 . S
C904 N873 1.435 . S
C904 C905 1.358 . S
C904 C909 1.371 . S
C905 H877 0.930 . S
C905 C904 1.358 . S
C905 C906 1.405 . S
C906 H878 0.932 . S
C906 C905 1.405 . S
C906 C907 1.383 . S
C907 C906 1.383 . S
C907 C908 1.393 . S
C908 H880 0.931 . S
C908 C907 1.393 . S
C908 C909 1.382 . S
C909 H879 0.929 . S
C909 C904 1.371 . S
C909 C908 1.382 . S
C910 N873 1.423 . S
C910 C911 1.362 . S
C910 C915 1.388 . S
C911 H881 0.929 . S
C911 C910 1.362 . S
C911 C912 1.376 . S
C912 H883 0.931 . S
C912 C911 1.376 . S
C912 C913 1.396 . S
C913 C912 1.396 . S
C913 C914 1.348 . S
C913 C931 1.472 . S
C914 H884 0.929 . S
C914 C913 1.348 . S
C914 C915 1.443 . S
C915 H882 0.932 . S
C915 C910 1.388 . S
C915 C914 1.443 . S
C916 N896 1.433 . S
C916 C917 1.363 . S
C916 C921 1.370 . S
C917 H885 0.929 . S
C917 C916 1.363 . S
C917 C918 1.385 . S
C918 H886 0.930 . S
C918 C917 1.385 . S
C918 C919 1.357 . S
C919 C918 1.357 . S
C919 C920 1.406 . S
C920 H887 0.929 . S
C920 C919 1.406 . S
C920 C921 1.391 . S
C921 H888 0.931 . S
C921 C916 1.370 . S
C921 C920 1.391 . S
C922 N896 1.435 . S
C922 C923 1.358 . S
C922 C927 1.371 . S
C923 H889 0.930 . S
C923 C922 1.358 . S
C923 C924 1.405 . S
C924 H890 0.932 . S
C924 C923 1.405 . S
C924 C925 1.383 . S
C925 C924 1.383 . S
C925 C926 1.393 . S
C926 H891 0.931 . S
C926 C925 1.393 . S
C926 C927 1.382 . S
C927 H892 0.929 . S
C927 C922 1.371 . S
C927 C926 1.382 . S
C928 N896 1.423 . S
C928 C929 1.362 . S
C928 C933 1.388 . S
C929 H893 0.929 . S
C929 C928 1.362 . S
C929 C930 1.376 . S
C930 H894 0.931 . S
C930 C929 1.376 . S
C930 C931 1.396 . S
C931 C913 1.472 . S
C931 C930 1.396 . S
C931 C932 1.348 . S
C932 H895 0.929 . S
C932 C931 1.348 . S
C932 C933 1.443 . S
C933 H897 0.932 . S
C933 C928 1.388 . S
C933 C932 1.443 . S
H934 C961 0.929 . S
N935 C960 1.433 . S
N935 C966 1.435 . S
N935 C972 1.423 . S
H936 C962 0.930 . S
H937 C965 0.931 . S
H938 C964 0.929 . S
H939 C967 0.930 . S
H940 C968 0.932 . S
H941 C971 0.929 . S
H942 C970 0.931 . S
H943 C973 0.929 . S
H944 C977 0.932 1_545 S
H945 C974 0.931 . S
H946 C976 0.929 . S
H947 C979 0.929 . S
H948 C980 0.930 . S
H949 C982 0.929 . S
H950 C983 0.931 . S
H951 C985 0.930 . S
H952 C986 0.932 . S
H953 C988 0.931 . S
H954 C989 0.929 . S
H955 C991 0.929 . S
H956 C992 0.931 . S
H957 C994 0.929 . S
N958 C978 1.433 . S
N958 C984 1.435 . S
N958 C990 1.423 . S
H959 C995 0.932 1_545 S
C960 N935 1.433 . S
C960 C961 1.363 . S
C960 C965 1.370 1_565 S
C961 H934 0.929 . S
C961 C960 1.363 . S
C961 C962 1.385 . S
C962 H936 0.930 . S
C962 C961 1.385 . S
C962 C963 1.357 1_565 S
C963 C962 1.357 1_545 S
C963 C964 1.406 . S
C964 H938 0.929 . S
C964 C963 1.406 . S
C964 C965 1.391 . S
C965 H937 0.931 . S
C965 C960 1.370 1_545 S
C965 C964 1.391 . S
C966 N935 1.435 . S
C966 C967 1.358 1_565 S
C966 C971 1.371 . S
C967 H939 0.930 . S
C967 C966 1.358 1_545 S
C967 C968 1.405 . S
C968 H940 0.932 . S
C968 C967 1.405 . S
C968 C969 1.383 1_545 S
C969 C968 1.383 1_565 S
C969 C970 1.393 . S
C970 H942 0.931 . S
C970 C969 1.393 . S
C970 C971 1.382 . S
C971 H941 0.929 . S
C971 C966 1.371 . S
C971 C970 1.382 . S
C972 N935 1.423 . S
C972 C973 1.362 . S
C972 C977 1.388 . S
C973 H943 0.929 . S
C973 C972 1.362 . S
C973 C974 1.376 . S
C974 H945 0.931 . S
C974 C973 1.376 . S
C974 C975 1.396 . S
C975 C974 1.396 . S
C975 C976 1.348 . S
C975 C993 1.472 . S
C976 H946 0.929 . S
C976 C975 1.348 . S
C976 C977 1.443 . S
C977 H944 0.932 1_565 S
C977 C972 1.388 . S
C977 C976 1.443 . S
C978 N958 1.433 . S
C978 C979 1.363 . S
C978 C983 1.370 1_565 S
C979 H947 0.929 . S
C979 C978 1.363 . S
C979 C980 1.385 . S
C980 H948 0.930 . S
C980 C979 1.385 . S
C980 C981 1.357 1_565 S
C981 C980 1.357 1_545 S
C981 C982 1.406 . S
C982 H949 0.929 . S
C982 C981 1.406 . S
C982 C983 1.391 . S
C983 H950 0.931 . S
C983 C978 1.370 1_545 S
C983 C982 1.391 . S
C984 N958 1.435 . S
C984 C985 1.358 1_565 S
C984 C989 1.371 . S
C985 H951 0.930 . S
C985 C984 1.358 1_545 S
C985 C986 1.405 . S
C986 H952 0.932 . S
C986 C985 1.405 . S
C986 C987 1.383 1_545 S
C987 C986 1.383 1_565 S
C987 C988 1.393 . S
C988 H953 0.931 . S
C988 C987 1.393 . S
C988 C989 1.382 . S
C989 H954 0.929 . S
C989 C984 1.371 . S
C989 C988 1.382 . S
C990 N958 1.423 . S
C990 C991 1.362 . S
C990 C995 1.388 . S
C991 H955 0.929 . S
C991 C990 1.362 . S
C991 C992 1.376 . S
C992 H956 0.931 . S
C992 C991 1.376 . S
C992 C993 1.396 . S
C993 C975 1.472 . S
C993 C992 1.396 . S
C993 C994 1.348 . S
C994 H957 0.929 . S
C994 C993 1.348 . S
C994 C995 1.443 . S
C995 H959 0.932 1_565 S
C995 C990 1.388 . S
C995 C994 1.443 . S
H996 C1023 0.929 . S
N997 C1022 1.433 . S
N997 C1028 1.435 . S
N997 C1034 1.423 . S
H998 C1024 0.930 . S
H999 C1027 0.930 . S
H1000 C1026 0.945 . S
H1001 C1029 0.930 . S
H1002 C1030 0.932 . S
H1003 C1033 0.929 . S
H1004 C1032 0.931 . S
H1005 C1035 0.929 . S
H1006 C1039 1.009 . S
H1007 C1036 0.931 . S
H1008 C1038 0.918 1_545 S
H1009 C1041 0.929 . S
H1010 C1042 0.930 . S
H1011 C1044 0.929 . S
H1012 C1045 1.005 . S
H1013 C1047 0.930 . S
H1014 C1048 0.932 . S
H1015 C1050 0.931 . S
H1016 C1051 0.929 . S
H1017 C1053 0.929 . S
H1018 C1054 0.931 . S
H1019 C1056 0.897 1_545 S
N1020 C1040 1.433 . S
N1020 C1046 1.435 . S
N1020 C1052 1.423 . S
H1021 C1057 0.932 . S
C1022 N997 1.433 . S
C1022 C1023 1.363 . S
C1022 C1027 1.364 1_565 S
C1023 H996 0.929 . S
C1023 C1022 1.363 . S
C1023 C1024 1.385 . S
C1024 H998 0.930 . S
C1024 C1023 1.385 . S
C1024 C1025 1.357 . S
C1025 C1024 1.357 . S
C1025 C1026 1.412 1_565 S
C1026 H1000 0.945 . S
C1026 C1025 1.412 1_545 S
C1026 C1027 1.387 . S
C1027 H999 0.930 . S
C1027 C1022 1.364 1_545 S
C1027 C1026 1.387 . S
C1028 N997 1.435 . S
C1028 C1029 1.358 1_565 S
C1028 C1033 1.371 . S
C1029 H1001 0.930 . S
C1029 C1028 1.358 1_545 S
C1029 C1030 1.405 . S
C1030 H1002 0.932 . S
C1030 C1029 1.405 . S
C1030 C1031 1.383 . S
C1031 C1030 1.383 . S
C1031 C1032 1.393 1_545 S
C1032 H1004 0.931 . S
C1032 C1031 1.393 1_565 S
C1032 C1033 1.382 . S
C1033 H1003 0.929 . S
C1033 C1028 1.371 . S
C1033 C1032 1.382 . S
C1034 N997 1.423 . S
C1034 C1035 1.362 . S
C1034 C1039 1.365 1_565 S
C1035 H1005 0.929 . S
C1035 C1034 1.362 . S
C1035 C1036 1.376 . S
C1036 H1007 0.931 . S
C1036 C1035 1.376 . S
C1036 C1037 1.396 . S
C1037 C1036 1.396 . S
C1037 C1038 1.392 . S
C1037 C1055 1.472 . S
C1038 H1008 0.918 1_565 S
C1038 C1037 1.392 . S
C1038 C1039 1.364 1_565 S
C1039 H1006 1.009 . S
C1039 C1034 1.365 1_545 S
C1039 C1038 1.364 1_545 S
C1040 N1020 1.433 . S
C1040 C1041 1.363 . S
C1040 C1045 1.315 1_565 S
C1041 H1009 0.929 . S
C1041 C1040 1.363 . S
C1041 C1042 1.385 . S
C1042 H1010 0.930 . S
C1042 C1041 1.385 . S
C1042 C1043 1.357 . S
C1043 C1042 1.357 . S
C1043 C1044 1.406 1_565 S
C1044 H1011 0.929 . S
C1044 C1043 1.406 1_545 S
C1044 C1045 1.379 . S
C1045 H1012 1.005 . S
C1045 C1040 1.315 1_545 S
C1045 C1044 1.379 . S
C1046 N1020 1.435 . S
C1046 C1047 1.358 1_565 S
C1046 C1051 1.371 . S
C1047 H1013 0.930 . S
C1047 C1046 1.358 1_545 S
C1047 C1048 1.405 . S
C1048 H1014 0.932 . S
C1048 C1047 1.405 . S
C1048 C1049 1.383 . S
C1049 C1048 1.383 . S
C1049 C1050 1.393 1_545 S
C1050 H1015 0.931 . S
C1050 C1049 1.393 1_565 S
C1050 C1051 1.382 . S
C1051 H1016 0.929 . S
C1051 C1046 1.371 . S
C1051 C1050 1.382 . S
C1052 N1020 1.423 . S
C1052 C1053 1.362 . S
C1052 C1057 1.388 1_565 S
C1053 H1017 0.929 . S
C1053 C1052 1.362 . S
C1053 C1054 1.376 . S
C1054 H1018 0.931 . S
C1054 C1053 1.376 . S
C1054 C1055 1.396 . S
C1055 C1037 1.472 . S
C1055 C1054 1.396 . S
C1055 C1056 1.361 . S
C1056 H1019 0.897 1_565 S
C1056 C1055 1.361 . S
C1056 C1057 1.462 1_565 S
C1057 H1021 0.932 . S
C1057 C1052 1.388 1_545 S
C1057 C1056 1.462 1_545 S
H1058 C1085 0.929 . S
N1059 C1084 1.433 . S
N1059 C1090 1.435 . S
N1059 C1096 1.423 . S
H1060 C1086 0.930 . S
H1061 C1089 0.931 . S
H1062 C1088 0.929 . S
H1063 C1091 0.930 . S
H1064 C1092 0.932 . S
H1065 C1095 0.929 . S
H1066 C1094 0.931 . S
H1067 C1097 0.929 . S
H1068 C1101 0.932 1_455 S
H1069 C1098 0.931 . S
H1070 C1100 0.929 . S
H1071 C1103 0.929 . S
H1072 C1104 0.930 . S
H1073 C1106 0.929 . S
H1074 C1107 0.931 . S
H1075 C1109 0.930 . S
H1076 C1110 0.932 . S
H1077 C1112 0.931 . S
H1078 C1113 0.929 . S
H1079 C1115 0.929 . S
H1080 C1116 0.931 . S
H1081 C1118 0.929 . S
N1082 C1102 1.433 . S
N1082 C1108 1.435 . S
N1082 C1114 1.423 . S
H1083 C1119 0.932 1_455 S
C1084 N1059 1.433 . S
C1084 C1085 1.363 . S
C1084 C1089 1.370 1_655 S
C1085 H1058 0.929 . S
C1085 C1084 1.363 . S
C1085 C1086 1.385 . S
C1086 H1060 0.930 . S
C1086 C1085 1.385 . S
C1086 C1087 1.357 1_655 S
C1087 C1086 1.357 1_455 S
C1087 C1088 1.406 . S
C1088 H1062 0.929 . S
C1088 C1087 1.406 . S
C1088 C1089 1.391 . S
C1089 H1061 0.931 . S
C1089 C1084 1.370 1_455 S
C1089 C1088 1.391 . S
C1090 N1059 1.435 . S
C1090 C1091 1.358 1_655 S
C1090 C1095 1.371 . S
C1091 H1063 0.930 . S
C1091 C1090 1.358 1_455 S
C1091 C1092 1.405 . S
C1092 H1064 0.932 . S
C1092 C1091 1.405 . S
C1092 C1093 1.383 1_455 S
C1093 C1092 1.383 1_655 S
C1093 C1094 1.393 . S
C1094 H1066 0.931 . S
C1094 C1093 1.393 . S
C1094 C1095 1.382 . S
C1095 H1065 0.929 . S
C1095 C1090 1.371 . S
C1095 C1094 1.382 . S
C1096 N1059 1.423 . S
C1096 C1097 1.362 . S
C1096 C1101 1.388 . S
C1097 H1067 0.929 . S
C1097 C1096 1.362 . S
C1097 C1098 1.376 . S
C1098 H1069 0.931 . S
C1098 C1097 1.376 . S
C1098 C1099 1.396 . S
C1099 C1098 1.396 . S
C1099 C1100 1.348 . S
C1099 C1117 1.472 . S
C1100 H1070 0.929 . S
C1100 C1099 1.348 . S
C1100 C1101 1.443 . S
C1101 H1068 0.932 1_655 S
C1101 C1096 1.388 . S
C1101 C1100 1.443 . S
C1102 N1082 1.433 . S
C1102 C1103 1.363 . S
C1102 C1107 1.370 1_655 S
C1103 H1071 0.929 . S
C1103 C1102 1.363 . S
C1103 C1104 1.385 . S
C1104 H1072 0.930 . S
C1104 C1103 1.385 . S
C1104 C1105 1.357 1_655 S
C1105 C1104 1.357 1_455 S
C1105 C1106 1.406 . S
C1106 H1073 0.929 . S
C1106 C1105 1.406 . S
C1106 C1107 1.391 . S
C1107 H1074 0.931 . S
C1107 C1102 1.370 1_455 S
C1107 C1106 1.391 . S
C1108 N1082 1.435 . S
C1108 C1109 1.358 1_655 S
C1108 C1113 1.371 . S
C1109 H1075 0.930 . S
C1109 C1108 1.358 1_455 S
C1109 C1110 1.405 . S
C1110 H1076 0.932 . S
C1110 C1109 1.405 . S
C1110 C1111 1.383 1_455 S
C1111 C1110 1.383 1_655 S
C1111 C1112 1.393 . S
C1112 H1077 0.931 . S
C1112 C1111 1.393 . S
C1112 C1113 1.382 . S
C1113 H1078 0.929 . S
C1113 C1108 1.371 . S
C1113 C1112 1.382 . S
C1114 N1082 1.423 . S
C1114 C1115 1.362 . S
C1114 C1119 1.388 . S
C1115 H1079 0.929 . S
C1115 C1114 1.362 . S
C1115 C1116 1.376 . S
C1116 H1080 0.931 . S
C1116 C1115 1.376 . S
C1116 C1117 1.396 . S
C1117 C1099 1.472 . S
C1117 C1116 1.396 . S
C1117 C1118 1.348 . S
C1118 H1081 0.929 . S
C1118 C1117 1.348 . S
C1118 C1119 1.443 . S
C1119 H1083 0.932 1_655 S
C1119 C1114 1.388 . S
C1119 C1118 1.443 . S
H1120 C1147 0.929 . S
N1121 C1146 1.433 . S
N1121 C1152 1.435 . S
N1121 C1158 1.423 . S
H1122 C1148 0.930 . S
H1123 C1151 0.931 . S
H1124 C1150 0.929 . S
H1125 C1153 0.930 . S
H1126 C1154 0.932 . S
H1127 C1157 0.929 . S
H1128 C1156 0.931 . S
H1129 C1159 0.929 . S
H1130 C1163 0.932 . S
H1131 C1160 0.931 . S
H1132 C1162 0.929 . S
H1133 C1165 0.929 . S
H1134 C1166 0.930 . S
H1135 C1168 0.929 . S
H1136 C1169 0.931 . S
H1137 C1171 0.930 . S
H1138 C1172 0.932 . S
H1139 C1174 0.931 . S
H1140 C1175 0.929 . S
H1141 C1177 0.929 . S
H1142 C1178 0.931 . S
H1143 C1180 0.929 . S
N1144 C1164 1.433 . S
N1144 C1170 1.435 . S
N1144 C1176 1.423 . S
H1145 C1181 0.932 . S
C1146 N1121 1.433 . S
C1146 C1147 1.363 . S
C1146 C1151 1.370 . S
C1147 H1120 0.929 . S
C1147 C1146 1.363 . S
C1147 C1148 1.385 . S
C1148 H1122 0.930 . S
C1148 C1147 1.385 . S
C1148 C1149 1.357 . S
C1149 C1148 1.357 . S
C1149 C1150 1.406 . S
C1150 H1124 0.929 . S
C1150 C1149 1.406 . S
C1150 C1151 1.391 . S
C1151 H1123 0.931 . S
C1151 C1146 1.370 . S
C1151 C1150 1.391 . S
C1152 N1121 1.435 . S
C1152 C1153 1.358 . S
C1152 C1157 1.371 . S
C1153 H1125 0.930 . S
C1153 C1152 1.358 . S
C1153 C1154 1.405 . S
C1154 H1126 0.932 . S
C1154 C1153 1.405 . S
C1154 C1155 1.383 . S
C1155 C1154 1.383 . S
C1155 C1156 1.393 . S
C1156 H1128 0.931 . S
C1156 C1155 1.393 . S
C1156 C1157 1.382 . S
C1157 H1127 0.929 . S
C1157 C1152 1.371 . S
C1157 C1156 1.382 . S
C1158 N1121 1.423 . S
C1158 C1159 1.362 . S
C1158 C1163 1.388 . S
C1159 H1129 0.929 . S
C1159 C1158 1.362 . S
C1159 C1160 1.376 . S
C1160 H1131 0.931 . S
C1160 C1159 1.376 . S
C1160 C1161 1.396 . S
C1161 C1160 1.396 . S
C1161 C1162 1.348 . S
C1161 C1179 1.472 . S
C1162 H1132 0.929 . S
C1162 C1161 1.348 . S
C1162 C1163 1.443 . S
C1163 H1130 0.932 . S
C1163 C1158 1.388 . S
C1163 C1162 1.443 . S
C1164 N1144 1.433 . S
C1164 C1165 1.363 . S
C1164 C1169 1.370 . S
C1165 H1133 0.929 . S
C1165 C1164 1.363 . S
C1165 C1166 1.385 . S
C1166 H1134 0.930 . S
C1166 C1165 1.385 . S
C1166 C1167 1.357 . S
C1167 C1166 1.357 . S
C1167 C1168 1.406 . S
C1168 H1135 0.929 . S
C1168 C1167 1.406 . S
C1168 C1169 1.391 . S
C1169 H1136 0.931 . S
C1169 C1164 1.370 . S
C1169 C1168 1.391 . S
C1170 N1144 1.435 . S
C1170 C1171 1.358 . S
C1170 C1175 1.371 . S
C1171 H1137 0.930 . S
C1171 C1170 1.358 . S
C1171 C1172 1.405 . S
C1172 H1138 0.932 . S
C1172 C1171 1.405 . S
C1172 C1173 1.383 . S
C1173 C1172 1.383 . S
C1173 C1174 1.393 . S
C1174 H1139 0.931 . S
C1174 C1173 1.393 . S
C1174 C1175 1.382 . S
C1175 H1140 0.929 . S
C1175 C1170 1.371 . S
C1175 C1174 1.382 . S
C1176 N1144 1.423 . S
C1176 C1177 1.362 . S
C1176 C1181 1.388 . S
C1177 H1141 0.929 . S
C1177 C1176 1.362 . S
C1177 C1178 1.376 . S
C1178 H1142 0.931 . S
C1178 C1177 1.376 . S
C1178 C1179 1.396 . S
C1179 C1161 1.472 . S
C1179 C1178 1.396 . S
C1179 C1180 1.348 . S
C1180 H1143 0.929 . S
C1180 C1179 1.348 . S
C1180 C1181 1.443 . S
C1181 H1145 0.932 . S
C1181 C1176 1.388 . S
C1181 C1180 1.443 . S
H1182 C1209 0.929 . S
N1183 C1208 1.433 . S
N1183 C1214 1.435 . S
N1183 C1220 1.423 . S
H1184 C1210 0.930 . S
H1185 C1213 0.931 . S
H1186 C1212 0.929 . S
H1187 C1215 0.930 . S
H1188 C1216 0.932 . S
H1189 C1219 0.929 . S
H1190 C1218 0.931 . S
H1191 C1221 0.929 . S
H1192 C1225 0.932 . S
H1193 C1222 0.931 . S
H1194 C1224 0.929 . S
H1195 C1227 0.929 . S
H1196 C1228 0.930 . S
H1197 C1230 0.929 . S
H1198 C1231 0.931 . S
H1199 C1233 0.930 . S
H1200 C1234 0.932 . S
H1201 C1236 0.931 . S
H1202 C1237 0.929 . S
H1203 C1239 0.929 . S
H1204 C1240 0.931 . S
H1205 C1242 0.929 . S
N1206 C1226 1.433 . S
N1206 C1232 1.435 . S
N1206 C1238 1.423 . S
H1207 C1243 0.932 . S
C1208 N1183 1.433 . S
C1208 C1209 1.363 . S
C1208 C1213 1.370 . S
C1209 H1182 0.929 . S
C1209 C1208 1.363 . S
C1209 C1210 1.385 . S
C1210 H1184 0.930 . S
C1210 C1209 1.385 . S
C1210 C1211 1.357 . S
C1211 C1210 1.357 . S
C1211 C1212 1.406 . S
C1212 H1186 0.929 . S
C1212 C1211 1.406 . S
C1212 C1213 1.391 . S
C1213 H1185 0.931 . S
C1213 C1208 1.370 . S
C1213 C1212 1.391 . S
C1214 N1183 1.435 . S
C1214 C1215 1.358 . S
C1214 C1219 1.371 . S
C1215 H1187 0.930 . S
C1215 C1214 1.358 . S
C1215 C1216 1.405 . S
C1216 H1188 0.932 . S
C1216 C1215 1.405 . S
C1216 C1217 1.383 . S
C1217 C1216 1.383 . S
C1217 C1218 1.393 . S
C1218 H1190 0.931 . S
C1218 C1217 1.393 . S
C1218 C1219 1.382 . S
C1219 H1189 0.929 . S
C1219 C1214 1.371 . S
C1219 C1218 1.382 . S
C1220 N1183 1.423 . S
C1220 C1221 1.362 . S
C1220 C1225 1.388 . S
C1221 H1191 0.929 . S
C1221 C1220 1.362 . S
C1221 C1222 1.376 . S
C1222 H1193 0.931 . S
C1222 C1221 1.376 . S
C1222 C1223 1.396 . S
C1223 C1222 1.396 . S
C1223 C1224 1.348 . S
C1223 C1241 1.472 . S
C1224 H1194 0.929 . S
C1224 C1223 1.348 . S
C1224 C1225 1.443 . S
C1225 H1192 0.932 . S
C1225 C1220 1.388 . S
C1225 C1224 1.443 . S
C1226 N1206 1.433 . S
C1226 C1227 1.363 . S
C1226 C1231 1.370 . S
C1227 H1195 0.929 . S
C1227 C1226 1.363 . S
C1227 C1228 1.385 . S
C1228 H1196 0.930 . S
C1228 C1227 1.385 . S
C1228 C1229 1.357 . S
C1229 C1228 1.357 . S
C1229 C1230 1.406 . S
C1230 H1197 0.929 . S
C1230 C1229 1.406 . S
C1230 C1231 1.391 . S
C1231 H1198 0.931 . S
C1231 C1226 1.370 . S
C1231 C1230 1.391 . S
C1232 N1206 1.435 . S
C1232 C1233 1.358 . S
C1232 C1237 1.371 . S
C1233 H1199 0.930 . S
C1233 C1232 1.358 . S
C1233 C1234 1.405 . S
C1234 H1200 0.932 . S
C1234 C1233 1.405 . S
C1234 C1235 1.383 . S
C1235 C1234 1.383 . S
C1235 C1236 1.393 . S
C1236 H1201 0.931 . S
C1236 C1235 1.393 . S
C1236 C1237 1.382 . S
C1237 H1202 0.929 . S
C1237 C1232 1.371 . S
C1237 C1236 1.382 . S
C1238 N1206 1.423 . S
C1238 C1239 1.362 . S
C1238 C1243 1.388 . S
C1239 H1203 0.929 . S
C1239 C1238 1.362 . S
C1239 C1240 1.376 . S
C1240 H1204 0.931 . S
C1240 C1239 1.376 . S
C1240 C1241 1.396 . S
C1241 C1223 1.472 . S
C1241 C1240 1.396 . S
C1241 C1242 1.348 . S
C1242 H1205 0.929 . S
C1242 C1241 1.348 . S
C1242 C1243 1.443 . S
C1243 H1207 0.932 . S
C1243 C1238 1.388 . S
C1243 C1242 1.443 . S
H1244 C1271 0.929 . S
N1245 C1270 1.433 . S
N1245 C1276 1.435 . S
N1245 C1282 1.423 . S
H1246 C1272 0.930 . S
H1247 C1275 0.931 . S
H1248 C1274 0.929 . S
H1249 C1277 0.930 . S
H1250 C1278 0.932 . S
H1251 C1281 0.929 . S
H1252 C1280 0.931 . S
H1253 C1283 0.929 . S
H1254 C1287 0.932 . S
H1255 C1284 0.931 . S
H1256 C1286 0.929 . S
H1257 C1289 0.929 . S
H1258 C1290 0.930 . S
H1259 C1292 0.929 . S
H1260 C1293 0.931 . S
H1261 C1295 0.930 . S
H1262 C1296 0.932 . S
H1263 C1298 0.931 . S
H1264 C1299 0.929 . S
H1265 C1301 0.929 . S
H1266 C1302 0.931 . S
H1267 C1304 0.929 . S
N1268 C1288 1.433 . S
N1268 C1294 1.435 . S
N1268 C1300 1.423 . S
H1269 C1305 0.932 . S
C1270 N1245 1.433 . S
C1270 C1271 1.363 . S
C1270 C1275 1.370 . S
C1271 H1244 0.929 . S
C1271 C1270 1.363 . S
C1271 C1272 1.385 . S
C1272 H1246 0.930 . S
C1272 C1271 1.385 . S
C1272 C1273 1.357 . S
C1273 C1272 1.357 . S
C1273 C1274 1.406 . S
C1274 H1248 0.929 . S
C1274 C1273 1.406 . S
C1274 C1275 1.391 . S
C1275 H1247 0.931 . S
C1275 C1270 1.370 . S
C1275 C1274 1.391 . S
C1276 N1245 1.435 . S
C1276 C1277 1.358 . S
C1276 C1281 1.371 . S
C1277 H1249 0.930 . S
C1277 C1276 1.358 . S
C1277 C1278 1.405 . S
C1278 H1250 0.932 . S
C1278 C1277 1.405 . S
C1278 C1279 1.383 . S
C1279 C1278 1.383 . S
C1279 C1280 1.393 . S
C1280 H1252 0.931 . S
C1280 C1279 1.393 . S
C1280 C1281 1.382 . S
C1281 H1251 0.929 . S
C1281 C1276 1.371 . S
C1281 C1280 1.382 . S
C1282 N1245 1.423 . S
C1282 C1283 1.362 . S
C1282 C1287 1.388 . S
C1283 H1253 0.929 . S
C1283 C1282 1.362 . S
C1283 C1284 1.376 . S
C1284 H1255 0.931 . S
C1284 C1283 1.376 . S
C1284 C1285 1.396 . S
C1285 C1284 1.396 . S
C1285 C1286 1.348 . S
C1285 C1303 1.472 . S
C1286 H1256 0.929 . S
C1286 C1285 1.348 . S
C1286 C1287 1.443 . S
C1287 H1254 0.932 . S
C1287 C1282 1.388 . S
C1287 C1286 1.443 . S
C1288 N1268 1.433 . S
C1288 C1289 1.363 . S
C1288 C1293 1.370 . S
C1289 H1257 0.929 . S
C1289 C1288 1.363 . S
C1289 C1290 1.385 . S
C1290 H1258 0.930 . S
C1290 C1289 1.385 . S
C1290 C1291 1.357 . S
C1291 C1290 1.357 . S
C1291 C1292 1.406 . S
C1292 H1259 0.929 . S
C1292 C1291 1.406 . S
C1292 C1293 1.391 . S
C1293 H1260 0.931 . S
C1293 C1288 1.370 . S
C1293 C1292 1.391 . S
C1294 N1268 1.435 . S
C1294 C1295 1.358 . S
C1294 C1299 1.371 . S
C1295 H1261 0.930 . S
C1295 C1294 1.358 . S
C1295 C1296 1.405 . S
C1296 H1262 0.932 . S
C1296 C1295 1.405 . S
C1296 C1297 1.383 . S
C1297 C1296 1.383 . S
C1297 C1298 1.393 . S
C1298 H1263 0.931 . S
C1298 C1297 1.393 . S
C1298 C1299 1.382 . S
C1299 H1264 0.929 . S
C1299 C1294 1.371 . S
C1299 C1298 1.382 . S
C1300 N1268 1.423 . S
C1300 C1301 1.362 . S
C1300 C1305 1.388 . S
C1301 H1265 0.929 . S
C1301 C1300 1.362 . S
C1301 C1302 1.376 . S
C1302 H1266 0.931 . S
C1302 C1301 1.376 . S
C1302 C1303 1.396 . S
C1303 C1285 1.472 . S
C1303 C1302 1.396 . S
C1303 C1304 1.348 . S
C1304 H1267 0.929 . S
C1304 C1303 1.348 . S
C1304 C1305 1.443 . S
C1305 H1269 0.932 . S
C1305 C1300 1.388 . S
C1305 C1304 1.443 . S
H1306 C1333 0.929 . S
N1307 C1332 1.433 . S
N1307 C1338 1.435 . S
N1307 C1344 1.423 . S
H1308 C1334 0.930 . S
H1309 C1337 0.931 . S
H1310 C1336 0.929 . S
H1311 C1339 0.930 . S
H1312 C1340 0.932 . S
H1313 C1343 0.929 . S
H1314 C1342 0.931 . S
H1315 C1345 0.929 . S
H1316 C1349 0.932 . S
H1317 C1346 0.931 . S
H1318 C1348 0.929 . S
H1319 C1351 0.929 . S
H1320 C1352 0.930 . S
H1321 C1354 0.929 . S
H1322 C1355 0.931 . S
H1323 C1357 0.930 . S
H1324 C1358 0.932 . S
H1325 C1360 0.931 . S
H1326 C1361 0.929 . S
H1327 C1363 0.929 . S
H1328 C1364 0.931 . S
H1329 C1366 0.929 . S
N1330 C1350 1.433 . S
N1330 C1356 1.435 . S
N1330 C1362 1.423 . S
H1331 C1367 0.932 . S
C1332 N1307 1.433 . S
C1332 C1333 1.363 . S
C1332 C1337 1.370 . S
C1333 H1306 0.929 . S
C1333 C1332 1.363 . S
C1333 C1334 1.385 . S
C1334 H1308 0.930 . S
C1334 C1333 1.385 . S
C1334 C1335 1.357 . S
C1335 C1334 1.357 . S
C1335 C1336 1.406 . S
C1336 H1310 0.929 . S
C1336 C1335 1.406 . S
C1336 C1337 1.391 . S
C1337 H1309 0.931 . S
C1337 C1332 1.370 . S
C1337 C1336 1.391 . S
C1338 N1307 1.435 . S
C1338 C1339 1.358 . S
C1338 C1343 1.371 . S
C1339 H1311 0.930 . S
C1339 C1338 1.358 . S
C1339 C1340 1.405 . S
C1340 H1312 0.932 . S
C1340 C1339 1.405 . S
C1340 C1341 1.383 . S
C1341 C1340 1.383 . S
C1341 C1342 1.393 . S
C1342 H1314 0.931 . S
C1342 C1341 1.393 . S
C1342 C1343 1.382 . S
C1343 H1313 0.929 . S
C1343 C1338 1.371 . S
C1343 C1342 1.382 . S
C1344 N1307 1.423 . S
C1344 C1345 1.362 . S
C1344 C1349 1.388 . S
C1345 H1315 0.929 . S
C1345 C1344 1.362 . S
C1345 C1346 1.376 . S
C1346 H1317 0.931 . S
C1346 C1345 1.376 . S
C1346 C1347 1.396 . S
C1347 C1346 1.396 . S
C1347 C1348 1.348 . S
C1347 C1365 1.472 . S
C1348 H1318 0.929 . S
C1348 C1347 1.348 . S
C1348 C1349 1.443 . S
C1349 H1316 0.932 . S
C1349 C1344 1.388 . S
C1349 C1348 1.443 . S
C1350 N1330 1.433 . S
C1350 C1351 1.363 . S
C1350 C1355 1.370 . S
C1351 H1319 0.929 . S
C1351 C1350 1.363 . S
C1351 C1352 1.385 . S
C1352 H1320 0.930 . S
C1352 C1351 1.385 . S
C1352 C1353 1.357 . S
C1353 C1352 1.357 . S
C1353 C1354 1.406 . S
C1354 H1321 0.929 . S
C1354 C1353 1.406 . S
C1354 C1355 1.391 . S
C1355 H1322 0.931 . S
C1355 C1350 1.370 . S
C1355 C1354 1.391 . S
C1356 N1330 1.435 . S
C1356 C1357 1.358 . S
C1356 C1361 1.371 . S
C1357 H1323 0.930 . S
C1357 C1356 1.358 . S
C1357 C1358 1.405 . S
C1358 H1324 0.932 . S
C1358 C1357 1.405 . S
C1358 C1359 1.383 . S
C1359 C1358 1.383 . S
C1359 C1360 1.393 . S
C1360 H1325 0.931 . S
C1360 C1359 1.393 . S
C1360 C1361 1.382 . S
C1361 H1326 0.929 . S
C1361 C1356 1.371 . S
C1361 C1360 1.382 . S
C1362 N1330 1.423 . S
C1362 C1363 1.362 . S
C1362 C1367 1.388 . S
C1363 H1327 0.929 . S
C1363 C1362 1.362 . S
C1363 C1364 1.376 . S
C1364 H1328 0.931 . S
C1364 C1363 1.376 . S
C1364 C1365 1.396 . S
C1365 C1347 1.472 . S
C1365 C1364 1.396 . S
C1365 C1366 1.348 . S
C1366 H1329 0.929 . S
C1366 C1365 1.348 . S
C1366 C1367 1.443 . S
C1367 H1331 0.932 . S
C1367 C1362 1.388 . S
C1367 C1366 1.443 . S
C1368 C1369 1.391 1_455 S
C1368 C1370 1.394 . S
C1368 H1384 0.931 . S
C1369 C1368 1.391 1_655 S
C1369 C1373 1.376 . S
C1370 C1368 1.394 . S
C1370 C1371 1.369 1_455 S
C1370 C1374 1.531 . S
C1371 C1370 1.369 1_655 S
C1371 C1372 1.410 . S
C1371 C1379 1.503 . S
C1372 C1371 1.410 . S
C1372 C1373 1.392 . S
C1372 C1375 1.511 . S
C1373 C1369 1.376 . S
C1373 C1372 1.392 . S
C1373 H1385 0.929 . S
C1374 C1370 1.531 . S
C1374 H1386 0.960 . S
C1374 H1387 0.962 . S
C1374 H1388 0.960 . S
C1375 C1372 1.511 . S
C1375 H1389 0.961 . S
C1375 H1390 0.961 . S
C1375 H1391 0.961 . S
C1376 C1377 1.370 . S
C1376 C1378 1.363 . S
C1376 H1392 0.931 . S
C1377 C1376 1.370 . S
C1377 C1381 1.408 . S
C1378 C1376 1.363 . S
C1378 C1379 1.370 . S
C1378 C1382 1.524 . S
C1379 C1371 1.503 . S
C1379 C1378 1.370 . S
C1379 C1380 1.403 . S
C1380 C1379 1.403 . S
C1380 C1381 1.404 . S
C1380 C1383 1.539 . S
C1381 C1377 1.408 . S
C1381 C1380 1.404 . S
C1381 H1393 0.930 . S
C1382 C1378 1.524 . S
C1382 H1394 0.956 1_655 S
C1382 H1395 0.961 . S
C1382 H1396 0.961 . S
C1383 C1380 1.539 . S
C1383 H1397 0.958 1_655 S
C1383 H1398 0.961 . S
C1383 H1399 0.960 . S
H1384 C1368 0.931 . S
H1385 C1373 0.929 . S
H1386 C1374 0.960 . S
H1387 C1374 0.962 . S
H1388 C1374 0.960 . S
H1389 C1375 0.961 . S
H1390 C1375 0.961 . S
H1391 C1375 0.961 . S
H1392 C1376 0.931 . S
H1393 C1381 0.930 . S
H1394 C1382 0.956 1_455 S
H1395 C1382 0.961 . S
H1396 C1382 0.961 . S
H1397 C1383 0.958 1_455 S
H1398 C1383 0.961 . S
H1399 C1383 0.960 . S
C1400 C1401 1.391 . S
C1400 C1402 1.394 . S
C1400 H1416 0.931 . S
C1401 C1400 1.391 . S
C1401 C1405 1.376 . S
C1402 C1400 1.394 . S
C1402 C1403 1.369 . S
C1402 C1406 1.531 . S
C1403 C1402 1.369 . S
C1403 C1404 1.410 . S
C1403 C1411 1.503 . S
C1404 C1403 1.410 . S
C1404 C1405 1.392 . S
C1404 C1407 1.511 . S
C1405 C1401 1.376 . S
C1405 C1404 1.392 . S
C1405 H1417 0.929 . S
C1406 C1402 1.531 . S
C1406 H1418 0.960 . S
C1406 H1419 0.962 . S
C1406 H1420 0.960 . S
C1407 C1404 1.511 . S
C1407 H1421 0.961 . S
C1407 H1422 0.961 . S
C1407 H1423 0.961 . S
C1408 C1409 1.370 . S
C1408 C1410 1.363 . S
C1408 H1424 0.931 . S
C1409 C1408 1.370 . S
C1409 C1413 1.408 . S
C1410 C1408 1.363 . S
C1410 C1411 1.370 . S
C1410 C1414 1.524 . S
C1411 C1403 1.503 . S
C1411 C1410 1.370 . S
C1411 C1412 1.403 . S
C1412 C1411 1.403 . S
C1412 C1413 1.404 . S
C1412 C1415 1.539 . S
C1413 C1409 1.408 . S
C1413 C1412 1.404 . S
C1413 H1425 0.930 . S
C1414 C1410 1.524 . S
C1414 H1426 0.956 . S
C1414 H1427 0.961 . S
C1414 H1428 0.961 . S
C1415 C1412 1.539 . S
C1415 H1429 0.958 . S
C1415 H1430 0.961 . S
C1415 H1431 0.960 . S
H1416 C1400 0.931 . S
H1417 C1405 0.929 . S
H1418 C1406 0.960 . S
H1419 C1406 0.962 . S
H1420 C1406 0.960 . S
H1421 C1407 0.961 . S
H1422 C1407 0.961 . S
H1423 C1407 0.961 . S
H1424 C1408 0.931 . S
H1425 C1413 0.930 . S
H1426 C1414 0.956 . S
H1427 C1414 0.961 . S
H1428 C1414 0.961 . S
H1429 C1415 0.958 . S
H1430 C1415 0.961 . S
H1431 C1415 0.960 . S
C1432 C1433 1.391 . S
C1432 C1434 1.394 . S
C1432 H1448 0.931 . S
C1433 C1432 1.391 . S
C1433 C1437 1.376 1_545 S
C1434 C1432 1.394 . S
C1434 C1435 1.369 . S
C1434 C1438 1.531 . S
C1435 C1434 1.369 . S
C1435 C1436 1.410 1_545 S
C1435 C1443 1.503 . S
C1436 C1435 1.410 1_565 S
C1436 C1437 1.392 . S
C1436 C1439 1.511 . S
C1437 C1433 1.376 1_565 S
C1437 C1436 1.392 . S
C1437 H1449 0.929 . S
C1438 C1434 1.531 . S
C1438 H1450 0.960 . S
C1438 H1451 0.962 . S
C1438 H1452 0.960 . S
C1439 C1436 1.511 . S
C1439 H1453 0.961 . S
C1439 H1454 0.961 . S
C1439 H1455 0.961 . S
C1440 C1441 1.370 . S
C1440 C1442 1.363 . S
C1440 H1456 0.931 . S
C1441 C1440 1.370 . S
C1441 C1445 1.408 1_545 S
C1442 C1440 1.363 . S
C1442 C1443 1.370 . S
C1442 C1446 1.524 . S
C1443 C1435 1.503 . S
C1443 C1442 1.370 . S
C1443 C1444 1.403 1_545 S
C1444 C1443 1.403 1_565 S
C1444 C1445 1.404 . S
C1444 C1447 1.539 . S
C1445 C1441 1.408 1_565 S
C1445 C1444 1.404 . S
C1445 H1457 0.930 . S
C1446 C1442 1.524 . S
C1446 H1458 0.956 . S
C1446 H1459 0.961 . S
C1446 H1460 0.961 . S
C1447 C1444 1.539 . S
C1447 H1461 0.958 . S
C1447 H1462 0.961 . S
C1447 H1463 0.960 . S
H1448 C1432 0.931 . S
H1449 C1437 0.929 . S
H1450 C1438 0.960 . S
H1451 C1438 0.962 . S
H1452 C1438 0.960 . S
H1453 C1439 0.961 . S
H1454 C1439 0.961 . S
H1455 C1439 0.961 . S
H1456 C1440 0.931 . S
H1457 C1445 0.930 . S
H1458 C1446 0.956 . S
H1459 C1446 0.961 . S
H1460 C1446 0.961 . S
H1461 C1447 0.958 . S
H1462 C1447 0.961 . S
H1463 C1447 0.960 . S
C1464 C1465 1.391 . S
C1464 C1466 1.394 . S
C1464 H1480 0.931 . S
C1465 C1464 1.391 . S
C1465 C1469 1.376 . S
C1466 C1464 1.394 . S
C1466 C1467 1.369 . S
C1466 C1470 1.531 . S
C1467 C1466 1.369 . S
C1467 C1468 1.410 . S
C1467 C1475 1.503 . S
C1468 C1467 1.410 . S
C1468 C1469 1.392 . S
C1468 C1471 1.511 1_565 S
C1469 C1465 1.376 . S
C1469 C1468 1.392 . S
C1469 H1481 0.881 1_565 S
C1470 C1466 1.531 . S
C1470 H1482 0.960 . S
C1470 H1483 0.962 . S
C1470 H1484 0.960 . S
C1471 C1468 1.511 1_545 S
C1471 H1485 0.961 . S
C1471 H1486 0.961 . S
C1471 H1487 0.961 1_545 S
C1472 C1473 1.370 1_545 S
C1472 C1474 1.363 . S
C1472 H1488 0.931 . S
C1473 C1472 1.370 1_565 S
C1473 C1477 1.408 . S
C1474 C1472 1.363 . S
C1474 C1475 1.370 1_545 S
C1474 C1478 1.524 . S
C1475 C1467 1.503 . S
C1475 C1474 1.370 1_565 S
C1475 C1476 1.403 . S
C1476 C1475 1.403 . S
C1476 C1477 1.404 . S
C1476 C1479 1.539 . S
C1477 C1473 1.408 . S
C1477 C1476 1.404 . S
C1477 H1489 0.930 . S
C1478 C1474 1.524 . S
C1478 H1490 0.956 . S
C1478 H1491 0.961 . S
C1478 H1492 0.961 . S
C1479 C1476 1.539 . S
C1479 H1493 0.958 . S
C1479 H1494 0.961 . S
C1479 H1495 0.960 . S
H1480 C1464 0.931 . S
H1481 C1469 0.881 1_545 S
H1482 C1470 0.960 . S
H1483 C1470 0.962 . S
H1484 C1470 0.960 . S
H1485 C1471 0.961 . S
H1486 C1471 0.961 . S
H1487 C1471 0.961 1_565 S
H1488 C1472 0.931 . S
H1489 C1477 0.930 . S
H1490 C1478 0.956 . S
H1491 C1478 0.961 . S
H1492 C1478 0.961 . S
H1493 C1479 0.958 . S
H1494 C1479 0.961 . S
H1495 C1479 0.960 . S
C1496 C1497 1.391 . S
C1496 C1498 1.394 . S
C1496 H1512 0.931 . S
C1497 C1496 1.391 . S
C1497 C1501 1.376 1_455 S
C1498 C1496 1.394 . S
C1498 C1499 1.369 . S
C1498 C1502 1.531 . S
C1499 C1498 1.369 . S
C1499 C1500 1.410 1_455 S
C1499 C1507 1.503 . S
C1500 C1499 1.410 1_655 S
C1500 C1501 1.392 . S
C1500 C1503 1.511 . S
C1501 C1497 1.376 1_655 S
C1501 C1500 1.392 . S
C1501 H1513 0.929 . S
C1502 C1498 1.531 . S
C1502 H1514 0.960 . S
C1502 H1515 0.962 . S
C1502 H1516 0.960 . S
C1503 C1500 1.511 . S
C1503 H1517 0.961 . S
C1503 H1518 0.961 . S
C1503 H1519 0.961 . S
C1504 C1505 1.370 . S
C1504 C1506 1.363 . S
C1504 H1520 0.931 . S
C1505 C1504 1.370 . S
C1505 C1509 1.408 1_455 S
C1506 C1504 1.363 . S
C1506 C1507 1.370 . S
C1506 C1510 1.524 . S
C1507 C1499 1.503 . S
C1507 C1506 1.370 . S
C1507 C1508 1.403 1_455 S
C1508 C1507 1.403 1_655 S
C1508 C1509 1.404 . S
C1508 C1511 1.539 . S
C1509 C1505 1.408 1_655 S
C1509 C1508 1.404 . S
C1509 H1521 0.930 . S
C1510 C1506 1.524 . S
C1510 H1522 0.956 . S
C1510 H1523 0.961 . S
C1510 H1524 0.961 . S
C1511 C1508 1.539 . S
C1511 H1525 0.958 . S
C1511 H1526 0.961 . S
C1511 H1527 0.960 . S
H1512 C1496 0.931 . S
H1513 C1501 0.929 . S
H1514 C1502 0.960 . S
H1515 C1502 0.962 . S
H1516 C1502 0.960 . S
H1517 C1503 0.961 . S
H1518 C1503 0.961 . S
H1519 C1503 0.961 . S
H1520 C1504 0.931 . S
H1521 C1509 0.930 . S
H1522 C1510 0.956 . S
H1523 C1510 0.961 . S
H1524 C1510 0.961 . S
H1525 C1511 0.958 . S
H1526 C1511 0.961 . S
H1527 C1511 0.960 . S
C1528 C1529 1.391 . S
C1528 C1530 1.394 . S
C1528 H1544 0.931 . S
C1529 C1528 1.391 . S
C1529 C1533 1.376 . S
C1530 C1528 1.394 . S
C1530 C1531 1.369 . S
C1530 C1534 1.531 . S
C1531 C1530 1.369 . S
C1531 C1532 1.410 . S
C1531 C1539 1.503 . S
C1532 C1531 1.410 . S
C1532 C1533 1.392 . S
C1532 C1535 1.511 . S
C1533 C1529 1.376 . S
C1533 C1532 1.392 . S
C1533 H1545 0.929 . S
C1534 C1530 1.531 . S
C1534 H1546 0.960 . S
C1534 H1547 0.962 . S
C1534 H1548 0.960 . S
C1535 C1532 1.511 . S
C1535 H1549 0.961 . S
C1535 H1550 0.961 . S
C1535 H1551 0.961 . S
C1536 C1537 1.370 . S
C1536 C1538 1.363 . S
C1536 H1552 0.931 . S
C1537 C1536 1.370 . S
C1537 C1541 1.408 . S
C1538 C1536 1.363 . S
C1538 C1539 1.370 . S
C1538 C1542 1.524 . S
C1539 C1531 1.503 . S
C1539 C1538 1.370 . S
C1539 C1540 1.403 . S
C1540 C1539 1.403 . S
C1540 C1541 1.404 . S
C1540 C1543 1.539 . S
C1541 C1537 1.408 . S
C1541 C1540 1.404 . S
C1541 H1553 0.930 . S
C1542 C1538 1.524 . S
C1542 H1554 0.956 . S
C1542 H1555 0.961 . S
C1542 H1556 0.961 . S
C1543 C1540 1.539 . S
C1543 H1557 0.958 . S
C1543 H1558 0.961 . S
C1543 H1559 0.960 . S
H1544 C1528 0.931 . S
H1545 C1533 0.929 . S
H1546 C1534 0.960 . S
H1547 C1534 0.962 . S
H1548 C1534 0.960 . S
H1549 C1535 0.961 . S
H1550 C1535 0.961 . S
H1551 C1535 0.961 . S
H1552 C1536 0.931 . S
H1553 C1541 0.930 . S
H1554 C1542 0.956 . S
H1555 C1542 0.961 . S
H1556 C1542 0.961 . S
H1557 C1543 0.958 . S
H1558 C1543 0.961 . S
H1559 C1543 0.960 . S
C1560 C1561 1.391 . S
C1560 C1562 1.394 . S
C1560 H1576 0.931 . S
C1561 C1560 1.391 . S
C1561 C1565 1.376 1_455 S
C1562 C1560 1.394 . S
C1562 C1563 1.369 . S
C1562 C1566 1.531 . S
C1563 C1562 1.369 . S
C1563 C1564 1.410 1_455 S
C1563 C1571 1.503 . S
C1564 C1563 1.410 1_655 S
C1564 C1565 1.392 . S
C1564 C1567 1.511 . S
C1565 C1561 1.376 1_655 S
C1565 C1564 1.392 . S
C1565 H1577 0.929 . S
C1566 C1562 1.531 . S
C1566 H1578 0.960 . S
C1566 H1579 0.962 . S
C1566 H1580 0.960 . S
C1567 C1564 1.511 . S
C1567 H1581 0.961 . S
C1567 H1582 0.961 . S
C1567 H1583 0.961 . S
C1568 C1569 1.370 . S
C1568 C1570 1.363 . S
C1568 H1584 0.931 . S
C1569 C1568 1.370 . S
C1569 C1573 1.412 . S
C1570 C1568 1.363 . S
C1570 C1571 1.370 . S
C1570 C1574 1.524 . S
C1571 C1563 1.503 . S
C1571 C1570 1.370 . S
C1571 C1572 1.401 . S
C1572 C1571 1.401 . S
C1572 C1573 1.400 . S
C1572 C1575 1.537 1_455 S
C1573 C1569 1.412 . S
C1573 C1572 1.400 . S
C1573 H1585 0.934 1_455 S
C1574 C1570 1.524 . S
C1574 H1586 0.956 . S
C1574 H1587 0.961 . S
C1574 H1588 0.961 . S
C1575 C1572 1.537 1_655 S
C1575 H1589 0.958 1_655 S
C1575 H1590 0.961 . S
C1575 H1591 0.960 . S
H1576 C1560 0.931 . S
H1577 C1565 0.929 . S
H1578 C1566 0.960 . S
H1579 C1566 0.962 . S
H1580 C1566 0.960 . S
H1581 C1567 0.961 . S
H1582 C1567 0.961 . S
H1583 C1567 0.961 . S
H1584 C1568 0.931 . S
H1585 C1573 0.934 1_655 S
H1586 C1574 0.956 . S
H1587 C1574 0.961 . S
H1588 C1574 0.961 . S
H1589 C1575 0.958 1_455 S
H1590 C1575 0.961 . S
H1591 C1575 0.960 . S
C1592 C1593 1.391 . S
C1592 C1594 1.394 . S
C1592 H1608 0.931 . S
C1593 C1592 1.391 . S
C1593 C1597 1.376 . S
C1594 C1592 1.394 . S
C1594 C1595 1.369 . S
C1594 C1598 1.531 . S
C1595 C1594 1.369 . S
C1595 C1596 1.410 . S
C1595 C1603 1.503 . S
C1596 C1595 1.410 . S
C1596 C1597 1.392 . S
C1596 C1599 1.511 . S
C1597 C1593 1.376 . S
C1597 C1596 1.392 . S
C1597 H1609 0.929 . S
C1598 C1594 1.531 . S
C1598 H1610 0.960 . S
C1598 H1611 0.962 . S
C1598 H1612 0.960 . S
C1599 C1596 1.511 . S
C1599 H1613 0.961 . S
C1599 H1614 0.961 . S
C1599 H1615 0.961 . S
C1600 C1601 1.370 . S
C1600 C1602 1.363 . S
C1600 H1616 0.931 . S
C1601 C1600 1.370 . S
C1601 C1605 1.408 . S
C1602 C1600 1.363 . S
C1602 C1603 1.370 . S
C1602 C1606 1.524 . S
C1603 C1595 1.503 . S
C1603 C1602 1.370 . S
C1603 C1604 1.403 . S
C1604 C1603 1.403 . S
C1604 C1605 1.404 . S
C1604 C1607 1.539 . S
C1605 C1601 1.408 . S
C1605 C1604 1.404 . S
C1605 H1617 0.930 . S
C1606 C1602 1.524 . S
C1606 H1618 0.956 . S
C1606 H1619 0.961 . S
C1606 H1620 0.961 . S
C1607 C1604 1.539 . S
C1607 H1621 0.958 . S
C1607 H1622 0.961 . S
C1607 H1623 0.960 . S
H1608 C1592 0.931 . S
H1609 C1597 0.929 . S
H1610 C1598 0.960 . S
H1611 C1598 0.962 . S
H1612 C1598 0.960 . S
H1613 C1599 0.961 . S
H1614 C1599 0.961 . S
H1615 C1599 0.961 . S
H1616 C1600 0.931 . S
H1617 C1605 0.930 . S
H1618 C1606 0.956 . S
H1619 C1606 0.961 . S
H1620 C1606 0.961 . S
H1621 C1607 0.958 . S
H1622 C1607 0.961 . S
H1623 C1607 0.960 . S
C1624 C1625 1.391 . S
C1624 C1626 1.394 . S
C1624 H1640 0.931 . S
C1625 C1624 1.391 . S
C1625 C1629 1.376 1_565 S
C1626 C1624 1.394 . S
C1626 C1627 1.369 . S
C1626 C1630 1.531 . S
C1627 C1626 1.369 . S
C1627 C1628 1.407 1_565 S
C1627 C1635 1.505 . S
C1628 C1627 1.407 1_545 S
C1628 C1629 1.392 . S
C1628 C1631 1.511 . S
C1629 C1625 1.376 1_545 S
C1629 C1628 1.392 . S
C1629 H1641 0.929 . S
C1630 C1626 1.531 . S
C1630 H1642 0.960 1_565 S
C1630 H1643 0.962 . S
C1630 H1644 0.974 . S
C1631 C1628 1.511 . S
C1631 H1645 0.961 . S
C1631 H1646 0.961 1_545 S
C1631 H1647 0.961 . S
C1632 C1633 1.370 . S
C1632 C1634 1.363 . S
C1632 H1648 0.931 . S
C1633 C1632 1.370 . S
C1633 C1637 1.408 1_565 S
C1634 C1632 1.363 . S
C1634 C1635 1.370 . S
C1634 C1638 1.524 . S
C1635 C1627 1.505 . S
C1635 C1634 1.370 . S
C1635 C1636 1.403 1_565 S
C1636 C1635 1.403 1_545 S
C1636 C1637 1.404 . S
C1636 C1639 1.539 . S
C1637 C1633 1.408 1_545 S
C1637 C1636 1.404 . S
C1637 H1649 0.930 . S
C1638 C1634 1.524 . S
C1638 H1650 0.956 . S
C1638 H1651 0.961 . S
C1638 H1652 0.961 . S
C1639 C1636 1.539 . S
C1639 H1653 0.958 . S
C1639 H1654 0.961 . S
C1639 H1655 0.960 . S
H1640 C1624 0.931 . S
H1641 C1629 0.929 . S
H1642 C1630 0.960 1_545 S
H1643 C1630 0.962 . S
H1644 C1630 0.974 . S
H1645 C1631 0.961 . S
H1646 C1631 0.961 1_565 S
H1647 C1631 0.961 . S
H1648 C1632 0.931 . S
H1649 C1637 0.930 . S
H1650 C1638 0.956 . S
H1651 C1638 0.961 . S
H1652 C1638 0.961 . S
H1653 C1639 0.958 . S
H1654 C1639 0.961 . S
H1655 C1639 0.960 . S
C1656 C1657 1.391 . S
C1656 C1658 1.394 . S
C1656 H1672 0.931 . S
C1657 C1656 1.391 . S
C1657 C1661 1.376 . S
C1658 C1656 1.394 . S
C1658 C1659 1.369 . S
C1658 C1662 1.564 . S
C1659 C1658 1.369 . S
C1659 C1660 1.410 . S
C1659 C1667 1.503 . S
C1660 C1659 1.410 . S
C1660 C1661 1.392 . S
C1660 C1663 1.511 . S
C1661 C1657 1.376 . S
C1661 C1660 1.392 . S
C1661 H1673 0.929 . S
C1662 C1658 1.564 . S
C1662 H1674 1.018 . S
C1662 H1675 0.904 1_545 S
C1662 H1676 0.936 . S
C1663 C1660 1.511 . S
C1663 H1677 0.961 . S
C1663 H1678 0.961 . S
C1663 H1679 0.961 . S
C1664 C1665 1.370 1_565 S
C1664 C1666 1.363 . S
C1664 H1680 0.931 . S
C1665 C1664 1.370 1_545 S
C1665 C1669 1.408 . S
C1666 C1664 1.363 . S
C1666 C1667 1.370 1_565 S
C1666 C1670 1.524 . S
C1667 C1659 1.503 . S
C1667 C1666 1.370 1_545 S
C1667 C1668 1.403 . S
C1668 C1667 1.403 . S
C1668 C1669 1.404 . S
C1668 C1671 1.539 . S
C1669 C1665 1.408 . S
C1669 C1668 1.404 . S
C1669 H1681 0.930 . S
C1670 C1666 1.524 . S
C1670 H1682 0.956 . S
C1670 H1683 0.961 . S
C1670 H1684 0.961 . S
C1671 C1668 1.539 . S
C1671 H1685 0.958 . S
C1671 H1686 0.961 . S
C1671 H1687 0.960 . S
H1672 C1656 0.931 . S
H1673 C1661 0.929 . S
H1674 C1662 1.018 . S
H1675 C1662 0.904 1_565 S
H1676 C1662 0.936 . S
H1677 C1663 0.961 . S
H1678 C1663 0.961 . S
H1679 C1663 0.961 . S
H1680 C1664 0.931 . S
H1681 C1669 0.930 . S
H1682 C1670 0.956 . S
H1683 C1670 0.961 . S
H1684 C1670 0.961 . S
H1685 C1671 0.958 . S
H1686 C1671 0.961 . S
H1687 C1671 0.960 . S
C1688 C1689 1.391 1_455 S
C1688 C1690 1.394 . S
C1688 H1704 0.931 . S
C1689 C1688 1.391 1_655 S
C1689 C1693 1.376 . S
C1690 C1688 1.394 . S
C1690 C1691 1.369 1_455 S
C1690 C1694 1.531 . S
C1691 C1690 1.369 1_655 S
C1691 C1692 1.410 . S
C1691 C1699 1.503 . S
C1692 C1691 1.410 . S
C1692 C1693 1.392 . S
C1692 C1695 1.511 . S
C1693 C1689 1.376 . S
C1693 C1692 1.392 . S
C1693 H1705 0.929 . S
C1694 C1690 1.531 . S
C1694 H1706 0.960 . S
C1694 H1707 0.962 . S
C1694 H1708 0.960 . S
C1695 C1692 1.511 . S
C1695 H1709 0.961 . S
C1695 H1710 0.961 . S
C1695 H1711 0.961 . S
C1696 C1697 1.370 . S
C1696 C1698 1.363 . S
C1696 H1712 0.931 . S
C1697 C1696 1.370 . S
C1697 C1701 1.408 . S
C1698 C1696 1.363 . S
C1698 C1699 1.370 . S
C1698 C1702 1.524 . S
C1699 C1691 1.503 . S
C1699 C1698 1.370 . S
C1699 C1700 1.403 . S
C1700 C1699 1.403 . S
C1700 C1701 1.404 . S
C1700 C1703 1.539 . S
C1701 C1697 1.408 . S
C1701 C1700 1.404 . S
C1701 H1713 0.930 . S
C1702 C1698 1.524 . S
C1702 H1714 0.956 1_655 S
C1702 H1715 0.961 . S
C1702 H1716 0.961 . S
C1703 C1700 1.539 . S
C1703 H1717 0.958 1_655 S
C1703 H1718 0.961 . S
C1703 H1719 0.960 . S
H1704 C1688 0.931 . S
H1705 C1693 0.929 . S
H1706 C1694 0.960 . S
H1707 C1694 0.962 . S
H1708 C1694 0.960 . S
H1709 C1695 0.961 . S
H1710 C1695 0.961 . S
H1711 C1695 0.961 . S
H1712 C1696 0.931 . S
H1713 C1701 0.930 . S
H1714 C1702 0.956 1_455 S
H1715 C1702 0.961 . S
H1716 C1702 0.961 . S
H1717 C1703 0.958 1_455 S
H1718 C1703 0.961 . S
H1719 C1703 0.960 . S
C1720 C1721 1.391 . S
C1720 C1722 1.394 . S
C1720 H1736 0.931 . S
C1721 C1720 1.391 . S
C1721 C1725 1.376 . S
C1722 C1720 1.394 . S
C1722 C1723 1.369 . S
C1722 C1726 1.531 . S
C1723 C1722 1.369 . S
C1723 C1724 1.410 . S
C1723 C1731 1.503 . S
C1724 C1723 1.410 . S
C1724 C1725 1.392 . S
C1724 C1727 1.511 . S
C1725 C1721 1.376 . S
C1725 C1724 1.392 . S
C1725 H1737 0.929 . S
C1726 C1722 1.531 . S
C1726 H1738 0.960 . S
C1726 H1739 0.962 . S
C1726 H1740 0.960 . S
C1727 C1724 1.511 . S
C1727 H1741 0.961 . S
C1727 H1742 0.961 . S
C1727 H1743 0.961 . S
C1728 C1729 1.370 . S
C1728 C1730 1.363 . S
C1728 H1744 0.931 . S
C1729 C1728 1.370 . S
C1729 C1733 1.408 . S
C1730 C1728 1.363 . S
C1730 C1731 1.370 . S
C1730 C1734 1.524 . S
C1731 C1723 1.503 . S
C1731 C1730 1.370 . S
C1731 C1732 1.403 . S
C1732 C1731 1.403 . S
C1732 C1733 1.404 . S
C1732 C1735 1.539 . S
C1733 C1729 1.408 . S
C1733 C1732 1.404 . S
C1733 H1745 0.930 . S
C1734 C1730 1.524 . S
C1734 H1746 0.956 . S
C1734 H1747 0.961 . S
C1734 H1748 0.961 . S
C1735 C1732 1.539 . S
C1735 H1749 0.958 . S
C1735 H1750 0.961 . S
C1735 H1751 0.960 . S
H1736 C1720 0.931 . S
H1737 C1725 0.929 . S
H1738 C1726 0.960 . S
H1739 C1726 0.962 . S
H1740 C1726 0.960 . S
H1741 C1727 0.961 . S
H1742 C1727 0.961 . S
H1743 C1727 0.961 . S
H1744 C1728 0.931 . S
H1745 C1733 0.930 . S
H1746 C1734 0.956 . S
H1747 C1734 0.961 . S
H1748 C1734 0.961 . S
H1749 C1735 0.958 . S
H1750 C1735 0.961 . S
H1751 C1735 0.960 . S
C1752 C1753 1.391 . S
C1752 C1754 1.394 . S
C1752 H1768 0.931 . S
C1753 C1752 1.391 . S
C1753 C1757 1.376 . S
C1754 C1752 1.394 . S
C1754 C1755 1.369 . S
C1754 C1758 1.531 . S
C1755 C1754 1.369 . S
C1755 C1756 1.410 . S
C1755 C1763 1.503 . S
C1756 C1755 1.410 . S
C1756 C1757 1.392 . S
C1756 C1759 1.511 . S
C1757 C1753 1.376 . S
C1757 C1756 1.392 . S
C1757 H1769 0.929 . S
C1758 C1754 1.531 . S
C1758 H1770 0.960 . S
C1758 H1771 0.962 . S
C1758 H1772 0.960 . S
C1759 C1756 1.511 . S
C1759 H1773 0.961 . S
C1759 H1774 0.961 . S
C1759 H1775 0.961 . S
C1760 C1761 1.370 . S
C1760 C1762 1.363 . S
C1760 H1776 0.931 . S
C1761 C1760 1.370 . S
C1761 C1765 1.408 . S
C1762 C1760 1.363 . S
C1762 C1763 1.370 . S
C1762 C1766 1.524 . S
C1763 C1755 1.503 . S
C1763 C1762 1.370 . S
C1763 C1764 1.403 . S
C1764 C1763 1.403 . S
C1764 C1765 1.404 . S
C1764 C1767 1.539 . S
C1765 C1761 1.408 . S
C1765 C1764 1.404 . S
C1765 H1777 0.930 . S
C1766 C1762 1.524 . S
C1766 H1778 0.956 . S
C1766 H1779 0.961 . S
C1766 H1780 0.961 . S
C1767 C1764 1.539 . S
C1767 H1781 0.958 . S
C1767 H1782 0.961 . S
C1767 H1783 0.960 . S
H1768 C1752 0.931 . S
H1769 C1757 0.929 . S
H1770 C1758 0.960 . S
H1771 C1758 0.962 . S
H1772 C1758 0.960 . S
H1773 C1759 0.961 . S
H1774 C1759 0.961 . S
H1775 C1759 0.961 . S
H1776 C1760 0.931 . S
H1777 C1765 0.930 . S
H1778 C1766 0.956 . S
H1779 C1766 0.961 . S
H1780 C1766 0.961 . S
H1781 C1767 0.958 . S
H1782 C1767 0.961 . S
H1783 C1767 0.960 . S
C1784 C1785 1.391 . S
C1784 C1786 1.394 . S
C1784 H1800 0.931 . S
C1785 C1784 1.391 . S
C1785 C1789 1.376 . S
C1786 C1784 1.394 . S
C1786 C1787 1.369 . S
C1786 C1790 1.531 . S
C1787 C1786 1.369 . S
C1787 C1788 1.410 . S
C1787 C1795 1.503 . S
C1788 C1787 1.410 . S
C1788 C1789 1.392 . S
C1788 C1791 1.511 . S
C1789 C1785 1.376 . S
C1789 C1788 1.392 . S
C1789 H1801 0.929 . S
C1790 C1786 1.531 . S
C1790 H1802 0.960 . S
C1790 H1803 0.962 . S
C1790 H1804 0.960 . S
C1791 C1788 1.511 . S
C1791 H1805 0.961 . S
C1791 H1806 0.961 . S
C1791 H1807 0.961 . S
C1792 C1793 1.370 . S
C1792 C1794 1.363 . S
C1792 H1808 0.931 . S
C1793 C1792 1.370 . S
C1793 C1797 1.408 . S
C1794 C1792 1.363 . S
C1794 C1795 1.370 . S
C1794 C1798 1.524 . S
C1795 C1787 1.503 . S
C1795 C1794 1.370 . S
C1795 C1796 1.403 . S
C1796 C1795 1.403 . S
C1796 C1797 1.404 . S
C1796 C1799 1.539 . S
C1797 C1793 1.408 . S
C1797 C1796 1.404 . S
C1797 H1809 0.930 . S
C1798 C1794 1.524 . S
C1798 H1810 0.956 . S
C1798 H1811 0.961 . S
C1798 H1812 0.961 . S
C1799 C1796 1.539 . S
C1799 H1813 0.958 . S
C1799 H1814 0.961 . S
C1799 H1815 0.960 . S
H1800 C1784 0.931 . S
H1801 C1789 0.929 . S
H1802 C1790 0.960 . S
H1803 C1790 0.962 . S
H1804 C1790 0.960 . S
H1805 C1791 0.961 . S
H1806 C1791 0.961 . S
H1807 C1791 0.961 . S
H1808 C1792 0.931 . S
H1809 C1797 0.930 . S
H1810 C1798 0.956 . S
H1811 C1798 0.961 . S
H1812 C1798 0.961 . S
H1813 C1799 0.958 . S
H1814 C1799 0.961 . S
H1815 C1799 0.960 . S
C1816 C1817 1.391 . S
C1816 C1818 1.394 . S
C1816 H1832 0.931 . S
C1817 C1816 1.391 . S
C1817 C1821 1.376 . S
C1818 C1816 1.394 . S
C1818 C1819 1.369 . S
C1818 C1822 1.531 . S
C1819 C1818 1.369 . S
C1819 C1820 1.410 . S
C1819 C1827 1.503 . S
C1820 C1819 1.410 . S
C1820 C1821 1.392 . S
C1820 C1823 1.511 . S
C1821 C1817 1.376 . S
C1821 C1820 1.392 . S
C1821 H1833 0.929 . S
C1822 C1818 1.531 . S
C1822 H1834 0.960 . S
C1822 H1835 0.962 . S
C1822 H1836 0.960 . S
C1823 C1820 1.511 . S
C1823 H1837 0.961 . S
C1823 H1838 0.961 . S
C1823 H1839 0.961 . S
C1824 C1825 1.370 . S
C1824 C1826 1.363 . S
C1824 H1840 0.931 . S
C1825 C1824 1.370 . S
C1825 C1829 1.408 . S
C1826 C1824 1.363 . S
C1826 C1827 1.370 . S
C1826 C1830 1.524 . S
C1827 C1819 1.503 . S
C1827 C1826 1.370 . S
C1827 C1828 1.403 . S
C1828 C1827 1.403 . S
C1828 C1829 1.404 . S
C1828 C1831 1.539 . S
C1829 C1825 1.408 . S
C1829 C1828 1.404 . S
C1829 H1841 0.930 . S
C1830 C1826 1.524 . S
C1830 H1842 0.956 . S
C1830 H1843 0.961 . S
C1830 H1844 0.961 . S
C1831 C1828 1.539 . S
C1831 H1845 0.958 . S
C1831 H1846 0.961 . S
C1831 H1847 0.960 . S
H1832 C1816 0.931 . S
H1833 C1821 0.929 . S
H1834 C1822 0.960 . S
H1835 C1822 0.962 . S
H1836 C1822 0.960 . S
H1837 C1823 0.961 . S
H1838 C1823 0.961 . S
H1839 C1823 0.961 . S
H1840 C1824 0.931 . S
H1841 C1829 0.930 . S
H1842 C1830 0.956 . S
H1843 C1830 0.961 . S
H1844 C1830 0.961 . S
H1845 C1831 0.958 . S
H1846 C1831 0.961 . S
H1847 C1831 0.960 . S
C1848 C1849 1.391 . S
C1848 C1850 1.394 . S
C1848 H1864 0.931 . S
C1849 C1848 1.391 . S
C1849 C1853 1.376 . S
C1850 C1848 1.394 . S
C1850 C1851 1.369 . S
C1850 C1854 1.531 . S
C1851 C1850 1.369 . S
C1851 C1852 1.410 . S
C1851 C1859 1.503 . S
C1852 C1851 1.410 . S
C1852 C1853 1.392 . S
C1852 C1855 1.511 . S
C1853 C1849 1.376 . S
C1853 C1852 1.392 . S
C1853 H1865 0.929 . S
C1854 C1850 1.531 . S
C1854 H1866 0.960 . S
C1854 H1867 0.962 . S
C1854 H1868 0.960 . S
C1855 C1852 1.511 . S
C1855 H1869 0.961 . S
C1855 H1870 0.961 . S
C1855 H1871 0.961 . S
C1856 C1857 1.370 . S
C1856 C1858 1.363 . S
C1856 H1872 0.931 . S
C1857 C1856 1.370 . S
C1857 C1861 1.408 . S
C1858 C1856 1.363 . S
C1858 C1859 1.370 . S
C1858 C1862 1.524 . S
C1859 C1851 1.503 . S
C1859 C1858 1.370 . S
C1859 C1860 1.403 . S
C1860 C1859 1.403 . S
C1860 C1861 1.404 . S
C1860 C1863 1.539 . S
C1861 C1857 1.408 . S
C1861 C1860 1.404 . S
C1861 H1873 0.930 . S
C1862 C1858 1.524 . S
C1862 H1874 0.956 . S
C1862 H1875 0.961 . S
C1862 H1876 0.961 . S
C1863 C1860 1.539 . S
C1863 H1877 0.958 . S
C1863 H1878 0.961 . S
C1863 H1879 0.960 . S
H1864 C1848 0.931 . S
H1865 C1853 0.929 . S
H1866 C1854 0.960 . S
H1867 C1854 0.962 . S
H1868 C1854 0.960 . S
H1869 C1855 0.961 . S
H1870 C1855 0.961 . S
H1871 C1855 0.961 . S
H1872 C1856 0.931 . S
H1873 C1861 0.930 . S
H1874 C1862 0.956 . S
H1875 C1862 0.961 . S
H1876 C1862 0.961 . S
H1877 C1863 0.958 . S
H1878 C1863 0.961 . S
H1879 C1863 0.960 . S
C1880 C1881 1.391 . S
C1880 C1882 1.394 . S
C1880 H1896 0.931 . S
C1881 C1880 1.391 . S
C1881 C1885 1.376 . S
C1882 C1880 1.394 . S
C1882 C1883 1.369 . S
C1882 C1886 1.531 . S
C1883 C1882 1.369 . S
C1883 C1884 1.410 . S
C1883 C1891 1.503 . S
C1884 C1883 1.410 . S
C1884 C1885 1.392 . S
C1884 C1887 1.511 . S
C1885 C1881 1.376 . S
C1885 C1884 1.392 . S
C1885 H1897 0.929 . S
C1886 C1882 1.531 . S
C1886 H1898 0.960 . S
C1886 H1899 0.962 . S
C1886 H1900 0.960 . S
C1887 C1884 1.511 . S
C1887 H1901 0.961 . S
C1887 H1902 0.961 . S
C1887 H1903 0.961 . S
C1888 C1889 1.370 . S
C1888 C1890 1.363 . S
C1888 H1904 0.931 . S
C1889 C1888 1.370 . S
C1889 C1893 1.408 . S
C1890 C1888 1.363 . S
C1890 C1891 1.370 . S
C1890 C1894 1.524 . S
C1891 C1883 1.503 . S
C1891 C1890 1.370 . S
C1891 C1892 1.403 . S
C1892 C1891 1.403 . S
C1892 C1893 1.404 . S
C1892 C1895 1.539 . S
C1893 C1889 1.408 . S
C1893 C1892 1.404 . S
C1893 H1905 0.930 . S
C1894 C1890 1.524 . S
C1894 H1906 0.956 . S
C1894 H1907 0.961 . S
C1894 H1908 0.961 . S
C1895 C1892 1.539 . S
C1895 H1909 0.958 . S
C1895 H1910 0.961 . S
C1895 H1911 0.960 . S
H1896 C1880 0.931 . S
H1897 C1885 0.929 . S
H1898 C1886 0.960 . S
H1899 C1886 0.962 . S
H1900 C1886 0.960 . S
H1901 C1887 0.961 . S
H1902 C1887 0.961 . S
H1903 C1887 0.961 . S
H1904 C1888 0.931 . S
H1905 C1893 0.930 . S
H1906 C1894 0.956 . S
H1907 C1894 0.961 . S
H1908 C1894 0.961 . S
H1909 C1895 0.958 . S
H1910 C1895 0.961 . S
H1911 C1895 0.960 . S
C1912 C1913 1.391 . S
C1912 C1914 1.394 . S
C1912 H1928 0.931 . S
C1913 C1912 1.391 . S
C1913 C1917 1.376 . S
C1914 C1912 1.394 . S
C1914 C1915 1.369 . S
C1914 C1918 1.531 . S
C1915 C1914 1.369 . S
C1915 C1916 1.410 . S
C1915 C1923 1.503 . S
C1916 C1915 1.410 . S
C1916 C1917 1.392 . S
C1916 C1919 1.511 . S
C1917 C1913 1.376 . S
C1917 C1916 1.392 . S
C1917 H1929 0.929 . S
C1918 C1914 1.531 . S
C1918 H1930 0.960 . S
C1918 H1931 0.962 . S
C1918 H1932 0.960 . S
C1919 C1916 1.511 . S
C1919 H1933 0.961 . S
C1919 H1934 0.961 . S
C1919 H1935 0.961 . S
C1920 C1921 1.370 . S
C1920 C1922 1.363 . S
C1920 H1936 0.931 . S
C1921 C1920 1.370 . S
C1921 C1925 1.408 . S
C1922 C1920 1.363 . S
C1922 C1923 1.370 . S
C1922 C1926 1.524 . S
C1923 C1915 1.503 . S
C1923 C1922 1.370 . S
C1923 C1924 1.403 . S
C1924 C1923 1.403 . S
C1924 C1925 1.404 . S
C1924 C1927 1.539 . S
C1925 C1921 1.408 . S
C1925 C1924 1.404 . S
C1925 H1937 0.930 . S
C1926 C1922 1.524 . S
C1926 H1938 0.956 . S
C1926 H1939 0.961 . S
C1926 H1940 0.961 . S
C1927 C1924 1.539 . S
C1927 H1941 0.958 . S
C1927 H1942 0.961 . S
C1927 H1943 0.960 . S
H1928 C1912 0.931 . S
H1929 C1917 0.929 . S
H1930 C1918 0.960 . S
H1931 C1918 0.962 . S
H1932 C1918 0.960 . S
H1933 C1919 0.961 . S
H1934 C1919 0.961 . S
H1935 C1919 0.961 . S
H1936 C1920 0.931 . S
H1937 C1925 0.930 . S
H1938 C1926 0.956 . S
H1939 C1926 0.961 . S
H1940 C1926 0.961 . S
H1941 C1927 0.958 . S
H1942 C1927 0.961 . S
H1943 C1927 0.960 . S
C1944 C1945 1.391 . S
C1944 C1946 1.394 . S
C1944 H1960 0.931 . S
C1945 C1944 1.391 . S
C1945 C1949 1.376 . S
C1946 C1944 1.394 . S
C1946 C1947 1.369 . S
C1946 C1950 1.531 . S
C1947 C1946 1.369 . S
C1947 C1948 1.410 . S
C1947 C1955 1.503 . S
C1948 C1947 1.410 . S
C1948 C1949 1.392 . S
C1948 C1951 1.511 . S
C1949 C1945 1.376 . S
C1949 C1948 1.392 . S
C1949 H1961 0.929 . S
C1950 C1946 1.531 . S
C1950 H1962 0.960 . S
C1950 H1963 0.962 . S
C1950 H1964 0.960 . S
C1951 C1948 1.511 . S
C1951 H1965 0.961 . S
C1951 H1966 0.961 . S
C1951 H1967 0.961 . S
C1952 C1953 1.370 . S
C1952 C1954 1.363 . S
C1952 H1968 0.931 . S
C1953 C1952 1.370 . S
C1953 C1957 1.408 . S
C1954 C1952 1.363 . S
C1954 C1955 1.370 . S
C1954 C1958 1.524 . S
C1955 C1947 1.503 . S
C1955 C1954 1.370 . S
C1955 C1956 1.403 . S
C1956 C1955 1.403 . S
C1956 C1957 1.404 . S
C1956 C1959 1.539 . S
C1957 C1953 1.408 . S
C1957 C1956 1.404 . S
C1957 H1969 0.930 . S
C1958 C1954 1.524 . S
C1958 H1970 0.956 . S
C1958 H1971 0.961 . S
C1958 H1972 0.961 . S
C1959 C1956 1.539 . S
C1959 H1973 0.958 . S
C1959 H1974 0.961 . S
C1959 H1975 0.960 . S
H1960 C1944 0.931 . S
H1961 C1949 0.929 . S
H1962 C1950 0.960 . S
H1963 C1950 0.962 . S
H1964 C1950 0.960 . S
H1965 C1951 0.961 . S
H1966 C1951 0.961 . S
H1967 C1951 0.961 . S
H1968 C1952 0.931 . S
H1969 C1957 0.930 . S
H1970 C1958 0.956 . S
H1971 C1958 0.961 . S
H1972 C1958 0.961 . S
H1973 C1959 0.958 . S
H1974 C1959 0.961 . S
H1975 C1959 0.960 . S
C1976 C1977 1.391 . S
C1976 C1978 1.394 . S
C1976 H1992 0.931 . S
C1977 C1976 1.391 . S
C1977 C1981 1.376 . S
C1978 C1976 1.394 . S
C1978 C1979 1.369 . S
C1978 C1982 1.531 . S
C1979 C1978 1.369 . S
C1979 C1980 1.410 . S
C1979 C1987 1.503 . S
C1980 C1979 1.410 . S
C1980 C1981 1.392 . S
C1980 C1983 1.511 . S
C1981 C1977 1.376 . S
C1981 C1980 1.392 . S
C1981 H1993 0.929 . S
C1982 C1978 1.531 . S
C1982 H1994 0.960 . S
C1982 H1995 0.962 . S
C1982 H1996 0.960 . S
C1983 C1980 1.511 . S
C1983 H1997 0.961 . S
C1983 H1998 0.961 . S
C1983 H1999 0.961 . S
C1984 C1985 1.370 . S
C1984 C1986 1.363 . S
C1984 H2000 0.931 . S
C1985 C1984 1.370 . S
C1985 C1989 1.408 . S
C1986 C1984 1.363 . S
C1986 C1987 1.370 . S
C1986 C1990 1.524 . S
C1987 C1979 1.503 . S
C1987 C1986 1.370 . S
C1987 C1988 1.403 . S
C1988 C1987 1.403 . S
C1988 C1989 1.404 . S
C1988 C1991 1.539 . S
C1989 C1985 1.408 . S
C1989 C1988 1.404 . S
C1989 H2001 0.930 . S
C1990 C1986 1.524 . S
C1990 H2002 0.956 . S
C1990 H2003 0.961 . S
C1990 H2004 0.961 . S
C1991 C1988 1.539 . S
C1991 H2005 0.958 . S
C1991 H2006 0.961 . S
C1991 H2007 0.960 . S
H1992 C1976 0.931 . S
H1993 C1981 0.929 . S
H1994 C1982 0.960 . S
H1995 C1982 0.962 . S
H1996 C1982 0.960 . S
H1997 C1983 0.961 . S
H1998 C1983 0.961 . S
H1999 C1983 0.961 . S
H2000 C1984 0.931 . S
H2001 C1989 0.930 . S
H2002 C1990 0.956 . S
H2003 C1990 0.961 . S
H2004 C1990 0.961 . S
H2005 C1991 0.958 . S
H2006 C1991 0.961 . S
H2007 C1991 0.960 . S
C2008 C2009 1.391 . S
C2008 C2010 1.394 . S
C2008 H2024 0.931 . S
C2009 C2008 1.391 . S
C2009 C2013 1.376 . S
C2010 C2008 1.394 . S
C2010 C2011 1.369 . S
C2010 C2014 1.531 . S
C2011 C2010 1.369 . S
C2011 C2012 1.410 . S
C2011 C2019 1.503 . S
C2012 C2011 1.410 . S
C2012 C2013 1.392 . S
C2012 C2015 1.511 . S
C2013 C2009 1.376 . S
C2013 C2012 1.392 . S
C2013 H2025 0.929 . S
C2014 C2010 1.531 . S
C2014 H2026 0.960 . S
C2014 H2027 0.962 . S
C2014 H2028 0.960 . S
C2015 C2012 1.511 . S
C2015 H2029 0.961 . S
C2015 H2030 0.961 . S
C2015 H2031 0.961 . S
C2016 C2017 1.370 . S
C2016 C2018 1.363 . S
C2016 H2032 0.931 . S
C2017 C2016 1.370 . S
C2017 C2021 1.408 . S
C2018 C2016 1.363 . S
C2018 C2019 1.370 . S
C2018 C2022 1.524 . S
C2019 C2011 1.503 . S
C2019 C2018 1.370 . S
C2019 C2020 1.403 . S
C2020 C2019 1.403 . S
C2020 C2021 1.404 . S
C2020 C2023 1.539 . S
C2021 C2017 1.408 . S
C2021 C2020 1.404 . S
C2021 H2033 0.930 . S
C2022 C2018 1.524 . S
C2022 H2034 0.956 . S
C2022 H2035 0.961 . S
C2022 H2036 0.961 . S
C2023 C2020 1.539 . S
C2023 H2037 0.958 . S
C2023 H2038 0.961 . S
C2023 H2039 0.960 . S
H2024 C2008 0.931 . S
H2025 C2013 0.929 . S
H2026 C2014 0.960 . S
H2027 C2014 0.962 . S
H2028 C2014 0.960 . S
H2029 C2015 0.961 . S
H2030 C2015 0.961 . S
H2031 C2015 0.961 . S
H2032 C2016 0.931 . S
H2033 C2021 0.930 . S
H2034 C2022 0.956 . S
H2035 C2022 0.961 . S
H2036 C2022 0.961 . S
H2037 C2023 0.958 . S
H2038 C2023 0.961 . S
H2039 C2023 0.960 . S
C2040 C2041 1.391 . S
C2040 C2042 1.394 . S
C2040 H2056 0.931 . S
C2041 C2040 1.391 . S
C2041 C2045 1.376 . S
C2042 C2040 1.394 . S
C2042 C2043 1.369 . S
C2042 C2046 1.531 . S
C2043 C2042 1.369 . S
C2043 C2044 1.410 . S
C2043 C2051 1.503 . S
C2044 C2043 1.410 . S
C2044 C2045 1.392 . S
C2044 C2047 1.511 . S
C2045 C2041 1.376 . S
C2045 C2044 1.392 . S
C2045 H2057 0.929 . S
C2046 C2042 1.531 . S
C2046 H2058 0.960 . S
C2046 H2059 0.962 . S
C2046 H2060 0.960 . S
C2047 C2044 1.511 . S
C2047 H2061 0.961 . S
C2047 H2062 0.961 . S
C2047 H2063 0.961 . S
C2048 C2049 1.370 . S
C2048 C2050 1.363 . S
C2048 H2064 0.931 . S
C2049 C2048 1.370 . S
C2049 C2053 1.408 . S
C2050 C2048 1.363 . S
C2050 C2051 1.370 . S
C2050 C2054 1.524 . S
C2051 C2043 1.503 . S
C2051 C2050 1.370 . S
C2051 C2052 1.403 . S
C2052 C2051 1.403 . S
C2052 C2053 1.404 . S
C2052 C2055 1.539 . S
C2053 C2049 1.408 . S
C2053 C2052 1.404 . S
C2053 H2065 0.930 . S
C2054 C2050 1.524 . S
C2054 H2066 0.956 . S
C2054 H2067 0.961 . S
C2054 H2068 0.961 . S
C2055 C2052 1.539 . S
C2055 H2069 0.958 . S
C2055 H2070 0.961 . S
C2055 H2071 0.960 . S
H2056 C2040 0.931 . S
H2057 C2045 0.929 . S
H2058 C2046 0.960 . S
H2059 C2046 0.962 . S
H2060 C2046 0.960 . S
H2061 C2047 0.961 . S
H2062 C2047 0.961 . S
H2063 C2047 0.961 . S
H2064 C2048 0.931 . S
H2065 C2053 0.930 . S
H2066 C2054 0.956 . S
H2067 C2054 0.961 . S
H2068 C2054 0.961 . S
H2069 C2055 0.958 . S
H2070 C2055 0.961 . S
H2071 C2055 0.960 . S
C2072 C2073 1.391 . S
C2072 C2074 1.394 . S
C2072 H2088 0.931 . S
C2073 C2072 1.391 . S
C2073 C2077 1.376 . S
C2074 C2072 1.394 . S
C2074 C2075 1.369 . S
C2074 C2078 1.531 . S
C2075 C2074 1.369 . S
C2075 C2076 1.410 . S
C2075 C2083 1.503 . S
C2076 C2075 1.410 . S
C2076 C2077 1.392 . S
C2076 C2079 1.511 . S
C2077 C2073 1.376 . S
C2077 C2076 1.392 . S
C2077 H2089 0.929 . S
C2078 C2074 1.531 . S
C2078 H2090 0.960 . S
C2078 H2091 0.962 . S
C2078 H2092 0.960 . S
C2079 C2076 1.511 . S
C2079 H2093 0.961 . S
C2079 H2094 0.961 . S
C2079 H2095 0.961 . S
C2080 C2081 1.370 . S
C2080 C2082 1.363 . S
C2080 H2096 0.931 . S
C2081 C2080 1.370 . S
C2081 C2085 1.408 . S
C2082 C2080 1.363 . S
C2082 C2083 1.370 . S
C2082 C2086 1.524 . S
C2083 C2075 1.503 . S
C2083 C2082 1.370 . S
C2083 C2084 1.403 . S
C2084 C2083 1.403 . S
C2084 C2085 1.404 . S
C2084 C2087 1.539 . S
C2085 C2081 1.408 . S
C2085 C2084 1.404 . S
C2085 H2097 0.930 . S
C2086 C2082 1.524 . S
C2086 H2098 0.956 . S
C2086 H2099 0.961 . S
C2086 H2100 0.961 . S
C2087 C2084 1.539 . S
C2087 H2101 0.958 . S
C2087 H2102 0.961 . S
C2087 H2103 0.960 . S
H2088 C2072 0.931 . S
H2089 C2077 0.929 . S
H2090 C2078 0.960 . S
H2091 C2078 0.962 . S
H2092 C2078 0.960 . S
H2093 C2079 0.961 . S
H2094 C2079 0.961 . S
H2095 C2079 0.961 . S
H2096 C2080 0.931 . S
H2097 C2085 0.930 . S
H2098 C2086 0.956 . S
H2099 C2086 0.961 . S
H2100 C2086 0.961 . S
H2101 C2087 0.958 . S
H2102 C2087 0.961 . S
H2103 C2087 0.960 . S
C2104 C2105 1.391 . S
C2104 C2106 1.394 . S
C2104 H2120 0.931 . S
C2105 C2104 1.391 . S
C2105 C2109 1.376 . S
C2106 C2104 1.394 . S
C2106 C2107 1.369 . S
C2106 C2110 1.531 . S
C2107 C2106 1.369 . S
C2107 C2108 1.410 . S
C2107 C2115 1.503 . S
C2108 C2107 1.410 . S
C2108 C2109 1.392 . S
C2108 C2111 1.511 . S
C2109 C2105 1.376 . S
C2109 C2108 1.392 . S
C2109 H2121 0.929 . S
C2110 C2106 1.531 . S
C2110 H2122 0.960 . S
C2110 H2123 0.962 . S
C2110 H2124 0.960 . S
C2111 C2108 1.511 . S
C2111 H2125 0.961 . S
C2111 H2126 0.961 . S
C2111 H2127 0.961 . S
C2112 C2113 1.370 . S
C2112 C2114 1.363 . S
C2112 H2128 0.931 . S
C2113 C2112 1.370 . S
C2113 C2117 1.408 . S
C2114 C2112 1.363 . S
C2114 C2115 1.370 . S
C2114 C2118 1.524 . S
C2115 C2107 1.503 . S
C2115 C2114 1.370 . S
C2115 C2116 1.403 . S
C2116 C2115 1.403 . S
C2116 C2117 1.404 . S
C2116 C2119 1.539 . S
C2117 C2113 1.408 . S
C2117 C2116 1.404 . S
C2117 H2129 0.930 . S
C2118 C2114 1.524 . S
C2118 H2130 0.956 . S
C2118 H2131 0.961 . S
C2118 H2132 0.961 . S
C2119 C2116 1.539 . S
C2119 H2133 0.958 . S
C2119 H2134 0.961 . S
C2119 H2135 0.960 . S
H2120 C2104 0.931 . S
H2121 C2109 0.929 . S
H2122 C2110 0.960 . S
H2123 C2110 0.962 . S
H2124 C2110 0.960 . S
H2125 C2111 0.961 . S
H2126 C2111 0.961 . S
H2127 C2111 0.961 . S
H2128 C2112 0.931 . S
H2129 C2117 0.930 . S
H2130 C2118 0.956 . S
H2131 C2118 0.961 . S
H2132 C2118 0.961 . S
H2133 C2119 0.958 . S
H2134 C2119 0.961 . S
H2135 C2119 0.960 . S
C2136 C2137 1.391 . S
C2136 C2138 1.394 . S
C2136 H2152 0.931 . S
C2137 C2136 1.391 . S
C2137 C2141 1.376 . S
C2138 C2136 1.394 . S
C2138 C2139 1.369 . S
C2138 C2142 1.531 . S
C2139 C2138 1.369 . S
C2139 C2140 1.410 . S
C2139 C2147 1.503 . S
C2140 C2139 1.410 . S
C2140 C2141 1.392 . S
C2140 C2143 1.511 . S
C2141 C2137 1.376 . S
C2141 C2140 1.392 . S
C2141 H2153 0.929 . S
C2142 C2138 1.531 . S
C2142 H2154 0.960 . S
C2142 H2155 0.962 . S
C2142 H2156 0.960 . S
C2143 C2140 1.511 . S
C2143 H2157 0.961 . S
C2143 H2158 0.961 . S
C2143 H2159 0.961 . S
C2144 C2145 1.370 . S
C2144 C2146 1.363 . S
C2144 H2160 0.931 . S
C2145 C2144 1.370 . S
C2145 C2149 1.408 . S
C2146 C2144 1.363 . S
C2146 C2147 1.370 . S
C2146 C2150 1.524 . S
C2147 C2139 1.503 . S
C2147 C2146 1.370 . S
C2147 C2148 1.403 . S
C2148 C2147 1.403 . S
C2148 C2149 1.404 . S
C2148 C2151 1.539 . S
C2149 C2145 1.408 . S
C2149 C2148 1.404 . S
C2149 H2161 0.930 . S
C2150 C2146 1.524 . S
C2150 H2162 0.956 . S
C2150 H2163 0.961 . S
C2150 H2164 0.961 . S
C2151 C2148 1.539 . S
C2151 H2165 0.958 . S
C2151 H2166 0.961 . S
C2151 H2167 0.960 . S
H2152 C2136 0.931 . S
H2153 C2141 0.929 . S
H2154 C2142 0.960 . S
H2155 C2142 0.962 . S
H2156 C2142 0.960 . S
H2157 C2143 0.961 . S
H2158 C2143 0.961 . S
H2159 C2143 0.961 . S
H2160 C2144 0.931 . S
H2161 C2149 0.930 . S
H2162 C2150 0.956 . S
H2163 C2150 0.961 . S
H2164 C2150 0.961 . S
H2165 C2151 0.958 . S
H2166 C2151 0.961 . S
H2167 C2151 0.960 . S
C2168 C2169 1.391 . S
C2168 C2170 1.394 . S
C2168 H2184 0.931 . S
C2169 C2168 1.391 . S
C2169 C2173 1.376 . S
C2170 C2168 1.394 . S
C2170 C2171 1.369 . S
C2170 C2174 1.531 . S
C2171 C2170 1.369 . S
C2171 C2172 1.410 . S
C2171 C2179 1.503 . S
C2172 C2171 1.410 . S
C2172 C2173 1.392 . S
C2172 C2175 1.511 . S
C2173 C2169 1.376 . S
C2173 C2172 1.392 . S
C2173 H2185 0.929 . S
C2174 C2170 1.531 . S
C2174 H2186 0.960 . S
C2174 H2187 0.962 . S
C2174 H2188 0.960 . S
C2175 C2172 1.511 . S
C2175 H2189 0.961 . S
C2175 H2190 0.961 . S
C2175 H2191 0.961 . S
C2176 C2177 1.370 . S
C2176 C2178 1.363 . S
C2176 H2192 0.931 . S
C2177 C2176 1.370 . S
C2177 C2181 1.408 . S
C2178 C2176 1.363 . S
C2178 C2179 1.370 . S
C2178 C2182 1.524 . S
C2179 C2171 1.503 . S
C2179 C2178 1.370 . S
C2179 C2180 1.403 . S
C2180 C2179 1.403 . S
C2180 C2181 1.404 . S
C2180 C2183 1.539 . S
C2181 C2177 1.408 . S
C2181 C2180 1.404 . S
C2181 H2193 0.930 . S
C2182 C2178 1.524 . S
C2182 H2194 0.956 . S
C2182 H2195 0.961 . S
C2182 H2196 0.961 . S
C2183 C2180 1.539 . S
C2183 H2197 0.958 . S
C2183 H2198 0.961 . S
C2183 H2199 0.960 . S
H2184 C2168 0.931 . S
H2185 C2173 0.929 . S
H2186 C2174 0.960 . S
H2187 C2174 0.962 . S
H2188 C2174 0.960 . S
H2189 C2175 0.961 . S
H2190 C2175 0.961 . S
H2191 C2175 0.961 . S
H2192 C2176 0.931 . S
H2193 C2181 0.930 . S
H2194 C2182 0.956 . S
H2195 C2182 0.961 . S
H2196 C2182 0.961 . S
H2197 C2183 0.958 . S
H2198 C2183 0.961 . S
H2199 C2183 0.960 . S
C2200 C2201 1.391 . S
C2200 C2202 1.394 . S
C2200 H2216 0.931 . S
C2201 C2200 1.391 . S
C2201 C2205 1.376 . S
C2202 C2200 1.394 . S
C2202 C2203 1.369 . S
C2202 C2206 1.531 . S
C2203 C2202 1.369 . S
C2203 C2204 1.410 . S
C2203 C2211 1.503 . S
C2204 C2203 1.410 . S
C2204 C2205 1.392 . S
C2204 C2207 1.511 . S
C2205 C2201 1.376 . S
C2205 C2204 1.392 . S
C2205 H2217 0.929 . S
C2206 C2202 1.531 . S
C2206 H2218 0.960 . S
C2206 H2219 0.962 . S
C2206 H2220 0.960 . S
C2207 C2204 1.511 . S
C2207 H2221 0.961 . S
C2207 H2222 0.961 . S
C2207 H2223 0.961 . S
C2208 C2209 1.370 . S
C2208 C2210 1.363 . S
C2208 H2224 0.931 . S
C2209 C2208 1.370 . S
C2209 C2213 1.408 . S
C2210 C2208 1.363 . S
C2210 C2211 1.370 . S
C2210 C2214 1.524 . S
C2211 C2203 1.503 . S
C2211 C2210 1.370 . S
C2211 C2212 1.403 . S
C2212 C2211 1.403 . S
C2212 C2213 1.404 . S
C2212 C2215 1.539 . S
C2213 C2209 1.408 . S
C2213 C2212 1.404 . S
C2213 H2225 0.930 . S
C2214 C2210 1.524 . S
C2214 H2226 0.956 . S
C2214 H2227 0.961 . S
C2214 H2228 0.961 . S
C2215 C2212 1.539 . S
C2215 H2229 0.958 . S
C2215 H2230 0.961 . S
C2215 H2231 0.960 . S
H2216 C2200 0.931 . S
H2217 C2205 0.929 . S
H2218 C2206 0.960 . S
H2219 C2206 0.962 . S
H2220 C2206 0.960 . S
H2221 C2207 0.961 . S
H2222 C2207 0.961 . S
H2223 C2207 0.961 . S
H2224 C2208 0.931 . S
H2225 C2213 0.930 . S
H2226 C2214 0.956 . S
H2227 C2214 0.961 . S
H2228 C2214 0.961 . S
H2229 C2215 0.958 . S
H2230 C2215 0.961 . S
H2231 C2215 0.960 . S
C2232 C2233 1.391 . S
C2232 C2234 1.394 . S
C2232 H2248 0.931 . S
C2233 C2232 1.391 . S
C2233 C2237 1.376 . S
C2234 C2232 1.394 . S
C2234 C2235 1.369 . S
C2234 C2238 1.531 . S
C2235 C2234 1.369 . S
C2235 C2236 1.410 . S
C2235 C2243 1.503 . S
C2236 C2235 1.410 . S
C2236 C2237 1.392 . S
C2236 C2239 1.511 . S
C2237 C2233 1.376 . S
C2237 C2236 1.392 . S
C2237 H2249 0.929 . S
C2238 C2234 1.531 . S
C2238 H2250 0.960 . S
C2238 H2251 0.962 . S
C2238 H2252 0.960 . S
C2239 C2236 1.511 . S
C2239 H2253 0.961 . S
C2239 H2254 0.961 . S
C2239 H2255 0.961 . S
C2240 C2241 1.370 . S
C2240 C2242 1.363 . S
C2240 H2256 0.931 . S
C2241 C2240 1.370 . S
C2241 C2245 1.408 . S
C2242 C2240 1.363 . S
C2242 C2243 1.370 . S
C2242 C2246 1.524 . S
C2243 C2235 1.503 . S
C2243 C2242 1.370 . S
C2243 C2244 1.403 . S
C2244 C2243 1.403 . S
C2244 C2245 1.404 . S
C2244 C2247 1.539 . S
C2245 C2241 1.408 . S
C2245 C2244 1.404 . S
C2245 H2257 0.930 . S
C2246 C2242 1.524 . S
C2246 H2258 0.956 . S
C2246 H2259 0.961 . S
C2246 H2260 0.961 . S
C2247 C2244 1.539 . S
C2247 H2261 0.958 . S
C2247 H2262 0.961 . S
C2247 H2263 0.960 . S
H2248 C2232 0.931 . S
H2249 C2237 0.929 . S
H2250 C2238 0.960 . S
H2251 C2238 0.962 . S
H2252 C2238 0.960 . S
H2253 C2239 0.961 . S
H2254 C2239 0.961 . S
H2255 C2239 0.961 . S
H2256 C2240 0.931 . S
H2257 C2245 0.930 . S
H2258 C2246 0.956 . S
H2259 C2246 0.961 . S
H2260 C2246 0.961 . S
H2261 C2247 0.958 . S
H2262 C2247 0.961 . S
H2263 C2247 0.960 . S
C2264 C2265 1.391 . S
C2264 C2266 1.394 . S
C2264 H2280 0.931 . S
C2265 C2264 1.391 . S
C2265 C2269 1.376 . S
C2266 C2264 1.394 . S
C2266 C2267 1.369 . S
C2266 C2270 1.531 . S
C2267 C2266 1.369 . S
C2267 C2268 1.410 . S
C2267 C2275 1.503 . S
C2268 C2267 1.410 . S
C2268 C2269 1.392 . S
C2268 C2271 1.511 . S
C2269 C2265 1.376 . S
C2269 C2268 1.392 . S
C2269 H2281 0.929 . S
C2270 C2266 1.531 . S
C2270 H2282 0.960 . S
C2270 H2283 0.962 . S
C2270 H2284 0.960 . S
C2271 C2268 1.511 . S
C2271 H2285 0.961 . S
C2271 H2286 0.961 . S
C2271 H2287 0.961 . S
C2272 C2273 1.370 . S
C2272 C2274 1.363 . S
C2272 H2288 0.931 . S
C2273 C2272 1.370 . S
C2273 C2277 1.408 . S
C2274 C2272 1.363 . S
C2274 C2275 1.370 . S
C2274 C2278 1.524 . S
C2275 C2267 1.503 . S
C2275 C2274 1.370 . S
C2275 C2276 1.403 . S
C2276 C2275 1.403 . S
C2276 C2277 1.404 . S
C2276 C2279 1.539 . S
C2277 C2273 1.408 . S
C2277 C2276 1.404 . S
C2277 H2289 0.930 . S
C2278 C2274 1.524 . S
C2278 H2290 0.956 . S
C2278 H2291 0.961 . S
C2278 H2292 0.961 . S
C2279 C2276 1.539 . S
C2279 H2293 0.958 . S
C2279 H2294 0.961 . S
C2279 H2295 0.960 . S
H2280 C2264 0.931 . S
H2281 C2269 0.929 . S
H2282 C2270 0.960 . S
H2283 C2270 0.962 . S
H2284 C2270 0.960 . S
H2285 C2271 0.961 . S
H2286 C2271 0.961 . S
H2287 C2271 0.961 . S
H2288 C2272 0.931 . S
H2289 C2277 0.930 . S
H2290 C2278 0.956 . S
H2291 C2278 0.961 . S
H2292 C2278 0.961 . S
H2293 C2279 0.958 . S
H2294 C2279 0.961 . S
H2295 C2279 0.960 . S
C2296 C2297 1.391 . S
C2296 C2298 1.394 . S
C2296 H2312 0.931 . S
C2297 C2296 1.391 . S
C2297 C2301 1.376 . S
C2298 C2296 1.394 . S
C2298 C2299 1.369 . S
C2298 C2302 1.531 . S
C2299 C2298 1.369 . S
C2299 C2300 1.410 . S
C2299 C2307 1.503 . S
C2300 C2299 1.410 . S
C2300 C2301 1.392 . S
C2300 C2303 1.511 . S
C2301 C2297 1.376 . S
C2301 C2300 1.392 . S
C2301 H2313 0.929 . S
C2302 C2298 1.531 . S
C2302 H2314 0.960 . S
C2302 H2315 0.962 . S
C2302 H2316 0.960 . S
C2303 C2300 1.511 . S
C2303 H2317 0.961 . S
C2303 H2318 0.961 . S
C2303 H2319 0.961 . S
C2304 C2305 1.370 . S
C2304 C2306 1.363 . S
C2304 H2320 0.931 . S
C2305 C2304 1.370 . S
C2305 C2309 1.408 . S
C2306 C2304 1.363 . S
C2306 C2307 1.370 . S
C2306 C2310 1.524 . S
C2307 C2299 1.503 . S
C2307 C2306 1.370 . S
C2307 C2308 1.403 . S
C2308 C2307 1.403 . S
C2308 C2309 1.404 . S
C2308 C2311 1.539 . S
C2309 C2305 1.408 . S
C2309 C2308 1.404 . S
C2309 H2321 0.930 . S
C2310 C2306 1.524 . S
C2310 H2322 0.956 . S
C2310 H2323 0.961 . S
C2310 H2324 0.961 . S
C2311 C2308 1.539 . S
C2311 H2325 0.958 . S
C2311 H2326 0.961 . S
C2311 H2327 0.960 . S
H2312 C2296 0.931 . S
H2313 C2301 0.929 . S
H2314 C2302 0.960 . S
H2315 C2302 0.962 . S
H2316 C2302 0.960 . S
H2317 C2303 0.961 . S
H2318 C2303 0.961 . S
H2319 C2303 0.961 . S
H2320 C2304 0.931 . S
H2321 C2309 0.930 . S
H2322 C2310 0.956 . S
H2323 C2310 0.961 . S
H2324 C2310 0.961 . S
H2325 C2311 0.958 . S
H2326 C2311 0.961 . S
H2327 C2311 0.960 . S
C2328 C2329 1.391 . S
C2328 C2330 1.394 . S
C2328 H2344 0.931 . S
C2329 C2328 1.391 . S
C2329 C2333 1.376 . S
C2330 C2328 1.394 . S
C2330 C2331 1.369 . S
C2330 C2334 1.531 . S
C2331 C2330 1.369 . S
C2331 C2332 1.410 . S
C2331 C2339 1.503 . S
C2332 C2331 1.410 . S
C2332 C2333 1.392 . S
C2332 C2335 1.511 . S
C2333 C2329 1.376 . S
C2333 C2332 1.392 . S
C2333 H2345 0.929 . S
C2334 C2330 1.531 . S
C2334 H2346 0.960 . S
C2334 H2347 0.962 . S
C2334 H2348 0.960 . S
C2335 C2332 1.511 . S
C2335 H2349 0.961 . S
C2335 H2350 0.961 . S
C2335 H2351 0.961 . S
C2336 C2337 1.370 . S
C2336 C2338 1.363 . S
C2336 H2352 0.931 . S
C2337 C2336 1.370 . S
C2337 C2341 1.408 . S
C2338 C2336 1.363 . S
C2338 C2339 1.370 . S
C2338 C2342 1.524 . S
C2339 C2331 1.503 . S
C2339 C2338 1.370 . S
C2339 C2340 1.403 . S
C2340 C2339 1.403 . S
C2340 C2341 1.404 . S
C2340 C2343 1.539 . S
C2341 C2337 1.408 . S
C2341 C2340 1.404 . S
C2341 H2353 0.930 . S
C2342 C2338 1.524 . S
C2342 H2354 0.956 . S
C2342 H2355 0.961 . S
C2342 H2356 0.961 . S
C2343 C2340 1.539 . S
C2343 H2357 0.958 . S
C2343 H2358 0.961 . S
C2343 H2359 0.960 . S
H2344 C2328 0.931 . S
H2345 C2333 0.929 . S
H2346 C2334 0.960 . S
H2347 C2334 0.962 . S
H2348 C2334 0.960 . S
H2349 C2335 0.961 . S
H2350 C2335 0.961 . S
H2351 C2335 0.961 . S
H2352 C2336 0.931 . S
H2353 C2341 0.930 . S
H2354 C2342 0.956 . S
H2355 C2342 0.961 . S
H2356 C2342 0.961 . S
H2357 C2343 0.958 . S
H2358 C2343 0.961 . S
H2359 C2343 0.960 . S
C2360 C2361 1.391 . S
C2360 C2362 1.394 . S
C2360 H2376 0.931 . S
C2361 C2360 1.391 . S
C2361 C2365 1.376 . S
C2362 C2360 1.394 . S
C2362 C2363 1.369 . S
C2362 C2366 1.531 . S
C2363 C2362 1.369 . S
C2363 C2364 1.410 . S
C2363 C2371 1.503 . S
C2364 C2363 1.410 . S
C2364 C2365 1.392 . S
C2364 C2367 1.511 . S
C2365 C2361 1.376 . S
C2365 C2364 1.392 . S
C2365 H2377 0.929 . S
C2366 C2362 1.531 . S
C2366 H2378 0.960 . S
C2366 H2379 0.962 . S
C2366 H2380 0.960 . S
C2367 C2364 1.511 . S
C2367 H2381 0.961 . S
C2367 H2382 0.961 . S
C2367 H2383 0.961 . S
C2368 C2369 1.370 . S
C2368 C2370 1.363 . S
C2368 H2384 0.931 . S
C2369 C2368 1.370 . S
C2369 C2373 1.408 . S
C2370 C2368 1.363 . S
C2370 C2371 1.370 . S
C2370 C2374 1.524 . S
C2371 C2363 1.503 . S
C2371 C2370 1.370 . S
C2371 C2372 1.403 . S
C2372 C2371 1.403 . S
C2372 C2373 1.404 . S
C2372 C2375 1.539 . S
C2373 C2369 1.408 . S
C2373 C2372 1.404 . S
C2373 H2385 0.930 . S
C2374 C2370 1.524 . S
C2374 H2386 0.956 . S
C2374 H2387 0.961 . S
C2374 H2388 0.961 . S
C2375 C2372 1.539 . S
C2375 H2389 0.958 . S
C2375 H2390 0.961 . S
C2375 H2391 0.960 . S
H2376 C2360 0.931 . S
H2377 C2365 0.929 . S
H2378 C2366 0.960 . S
H2379 C2366 0.962 . S
H2380 C2366 0.960 . S
H2381 C2367 0.961 . S
H2382 C2367 0.961 . S
H2383 C2367 0.961 . S
H2384 C2368 0.931 . S
H2385 C2373 0.930 . S
H2386 C2374 0.956 . S
H2387 C2374 0.961 . S
H2388 C2374 0.961 . S
H2389 C2375 0.958 . S
H2390 C2375 0.961 . S
H2391 C2375 0.960 . S
C2392 C2393 1.391 . S
C2392 C2394 1.394 . S
C2392 H2408 0.931 . S
C2393 C2392 1.391 . S
C2393 C2397 1.376 . S
C2394 C2392 1.394 . S
C2394 C2395 1.369 . S
C2394 C2398 1.531 . S
C2395 C2394 1.369 . S
C2395 C2396 1.410 . S
C2395 C2403 1.503 . S
C2396 C2395 1.410 . S
C2396 C2397 1.392 . S
C2396 C2399 1.511 . S
C2397 C2393 1.376 . S
C2397 C2396 1.392 . S
C2397 H2409 0.929 . S
C2398 C2394 1.531 . S
C2398 H2410 0.960 . S
C2398 H2411 0.962 . S
C2398 H2412 0.960 . S
C2399 C2396 1.511 . S
C2399 H2413 0.961 . S
C2399 H2414 0.961 . S
C2399 H2415 0.961 . S
C2400 C2401 1.370 . S
C2400 C2402 1.363 . S
C2400 H2416 0.931 . S
C2401 C2400 1.370 . S
C2401 C2405 1.408 . S
C2402 C2400 1.363 . S
C2402 C2403 1.370 . S
C2402 C2406 1.524 . S
C2403 C2395 1.503 . S
C2403 C2402 1.370 . S
C2403 C2404 1.403 . S
C2404 C2403 1.403 . S
C2404 C2405 1.404 . S
C2404 C2407 1.539 . S
C2405 C2401 1.408 . S
C2405 C2404 1.404 . S
C2405 H2417 0.930 . S
C2406 C2402 1.524 . S
C2406 H2418 0.956 . S
C2406 H2419 0.961 . S
C2406 H2420 0.961 . S
C2407 C2404 1.539 . S
C2407 H2421 0.958 . S
C2407 H2422 0.961 . S
C2407 H2423 0.960 . S
H2408 C2392 0.931 . S
H2409 C2397 0.929 . S
H2410 C2398 0.960 . S
H2411 C2398 0.962 . S
H2412 C2398 0.960 . S
H2413 C2399 0.961 . S
H2414 C2399 0.961 . S
H2415 C2399 0.961 . S
H2416 C2400 0.931 . S
H2417 C2405 0.930 . S
H2418 C2406 0.956 . S
H2419 C2406 0.961 . S
H2420 C2406 0.961 . S
H2421 C2407 0.958 . S
H2422 C2407 0.961 . S
H2423 C2407 0.960 . S
C2424 C2425 1.391 . S
C2424 C2426 1.394 . S
C2424 H2440 0.931 . S
C2425 C2424 1.391 . S
C2425 C2429 1.376 . S
C2426 C2424 1.394 . S
C2426 C2427 1.369 . S
C2426 C2430 1.531 . S
C2427 C2426 1.369 . S
C2427 C2428 1.410 . S
C2427 C2435 1.503 . S
C2428 C2427 1.410 . S
C2428 C2429 1.392 . S
C2428 C2431 1.511 . S
C2429 C2425 1.376 . S
C2429 C2428 1.392 . S
C2429 H2441 0.929 . S
C2430 C2426 1.531 . S
C2430 H2442 0.960 . S
C2430 H2443 0.962 . S
C2430 H2444 0.960 . S
C2431 C2428 1.511 . S
C2431 H2445 0.961 . S
C2431 H2446 0.961 . S
C2431 H2447 0.961 . S
C2432 C2433 1.370 . S
C2432 C2434 1.363 . S
C2432 H2448 0.931 . S
C2433 C2432 1.370 . S
C2433 C2437 1.408 . S
C2434 C2432 1.363 . S
C2434 C2435 1.370 . S
C2434 C2438 1.524 . S
C2435 C2427 1.503 . S
C2435 C2434 1.370 . S
C2435 C2436 1.403 . S
C2436 C2435 1.403 . S
C2436 C2437 1.404 . S
C2436 C2439 1.539 . S
C2437 C2433 1.408 . S
C2437 C2436 1.404 . S
C2437 H2449 0.930 . S
C2438 C2434 1.524 . S
C2438 H2450 0.956 . S
C2438 H2451 0.961 . S
C2438 H2452 0.961 . S
C2439 C2436 1.539 . S
C2439 H2453 0.958 . S
C2439 H2454 0.961 . S
C2439 H2455 0.960 . S
H2440 C2424 0.931 . S
H2441 C2429 0.929 . S
H2442 C2430 0.960 . S
H2443 C2430 0.962 . S
H2444 C2430 0.960 . S
H2445 C2431 0.961 . S
H2446 C2431 0.961 . S
H2447 C2431 0.961 . S
H2448 C2432 0.931 . S
H2449 C2437 0.930 . S
H2450 C2438 0.956 . S
H2451 C2438 0.961 . S
H2452 C2438 0.961 . S
H2453 C2439 0.958 . S
H2454 C2439 0.961 . S
H2455 C2439 0.960 . S
C2456 C2457 1.391 . S
C2456 C2458 1.394 . S
C2456 H2472 0.931 . S
C2457 C2456 1.391 . S
C2457 C2461 1.376 . S
C2458 C2456 1.394 . S
C2458 C2459 1.369 . S
C2458 C2462 1.531 . S
C2459 C2458 1.369 . S
C2459 C2460 1.410 . S
C2459 C2467 1.503 . S
C2460 C2459 1.410 . S
C2460 C2461 1.392 . S
C2460 C2463 1.511 . S
C2461 C2457 1.376 . S
C2461 C2460 1.392 . S
C2461 H2473 0.929 . S
C2462 C2458 1.531 . S
C2462 H2474 0.960 . S
C2462 H2475 0.962 . S
C2462 H2476 0.960 . S
C2463 C2460 1.511 . S
C2463 H2477 0.961 . S
C2463 H2478 0.961 . S
C2463 H2479 0.961 . S
C2464 C2465 1.370 . S
C2464 C2466 1.363 . S
C2464 H2480 0.931 . S
C2465 C2464 1.370 . S
C2465 C2469 1.408 . S
C2466 C2464 1.363 . S
C2466 C2467 1.370 . S
C2466 C2470 1.524 . S
C2467 C2459 1.503 . S
C2467 C2466 1.370 . S
C2467 C2468 1.403 . S
C2468 C2467 1.403 . S
C2468 C2469 1.404 . S
C2468 C2471 1.539 . S
C2469 C2465 1.408 . S
C2469 C2468 1.404 . S
C2469 H2481 0.930 . S
C2470 C2466 1.524 . S
C2470 H2482 0.956 . S
C2470 H2483 0.961 . S
C2470 H2484 0.961 . S
C2471 C2468 1.539 . S
C2471 H2485 0.958 . S
C2471 H2486 0.961 . S
C2471 H2487 0.960 . S
H2472 C2456 0.931 . S
H2473 C2461 0.929 . S
H2474 C2462 0.960 . S
H2475 C2462 0.962 . S
H2476 C2462 0.960 . S
H2477 C2463 0.961 . S
H2478 C2463 0.961 . S
H2479 C2463 0.961 . S
H2480 C2464 0.931 . S
H2481 C2469 0.930 . S
H2482 C2470 0.956 . S
H2483 C2470 0.961 . S
H2484 C2470 0.961 . S
H2485 C2471 0.958 . S
H2486 C2471 0.961 . S
H2487 C2471 0.960 . S
C2488 C2489 1.391 . S
C2488 C2490 1.394 . S
C2488 H2504 0.931 . S
C2489 C2488 1.391 . S
C2489 C2493 1.376 . S
C2490 C2488 1.394 . S
C2490 C2491 1.369 . S
C2490 C2494 1.531 . S
C2491 C2490 1.369 . S
C2491 C2492 1.410 . S
C2491 C2499 1.503 . S
C2492 C2491 1.410 . S
C2492 C2493 1.392 . S
C2492 C2495 1.511 . S
C2493 C2489 1.376 . S
C2493 C2492 1.392 . S
C2493 H2505 0.929 . S
C2494 C2490 1.531 . S
C2494 H2506 0.960 . S
C2494 H2507 0.962 . S
C2494 H2508 0.960 . S
C2495 C2492 1.511 . S
C2495 H2509 0.961 . S
C2495 H2510 0.961 . S
C2495 H2511 0.961 . S
C2496 C2497 1.370 . S
C2496 C2498 1.363 . S
C2496 H2512 0.931 . S
C2497 C2496 1.370 . S
C2497 C2501 1.408 . S
C2498 C2496 1.363 . S
C2498 C2499 1.370 . S
C2498 C2502 1.524 . S
C2499 C2491 1.503 . S
C2499 C2498 1.370 . S
C2499 C2500 1.403 . S
C2500 C2499 1.403 . S
C2500 C2501 1.404 . S
C2500 C2503 1.539 . S
C2501 C2497 1.408 . S
C2501 C2500 1.404 . S
C2501 H2513 0.930 . S
C2502 C2498 1.524 . S
C2502 H2514 0.956 . S
C2502 H2515 0.961 . S
C2502 H2516 0.961 . S
C2503 C2500 1.539 . S
C2503 H2517 0.958 . S
C2503 H2518 0.961 . S
C2503 H2519 0.960 . S
H2504 C2488 0.931 . S
H2505 C2493 0.929 . S
H2506 C2494 0.960 . S
H2507 C2494 0.962 . S
H2508 C2494 0.960 . S
H2509 C2495 0.961 . S
H2510 C2495 0.961 . S
H2511 C2495 0.961 . S
H2512 C2496 0.931 . S
H2513 C2501 0.930 . S
H2514 C2502 0.956 . S
H2515 C2502 0.961 . S
H2516 C2502 0.961 . S
H2517 C2503 0.958 . S
H2518 C2503 0.961 . S
H2519 C2503 0.960 . S
C2520 C2521 1.391 . S
C2520 C2522 1.394 . S
C2520 H2536 0.931 . S
C2521 C2520 1.391 . S
C2521 C2525 1.376 . S
C2522 C2520 1.394 . S
C2522 C2523 1.369 . S
C2522 C2526 1.531 . S
C2523 C2522 1.369 . S
C2523 C2524 1.410 . S
C2523 C2531 1.503 . S
C2524 C2523 1.410 . S
C2524 C2525 1.392 . S
C2524 C2527 1.511 . S
C2525 C2521 1.376 . S
C2525 C2524 1.392 . S
C2525 H2537 0.929 . S
C2526 C2522 1.531 . S
C2526 H2538 0.960 . S
C2526 H2539 0.962 . S
C2526 H2540 0.960 . S
C2527 C2524 1.511 . S
C2527 H2541 0.961 . S
C2527 H2542 0.961 . S
C2527 H2543 0.961 . S
C2528 C2529 1.370 . S
C2528 C2530 1.363 . S
C2528 H2544 0.931 . S
C2529 C2528 1.370 . S
C2529 C2533 1.408 . S
C2530 C2528 1.363 . S
C2530 C2531 1.370 . S
C2530 C2534 1.524 . S
C2531 C2523 1.503 . S
C2531 C2530 1.370 . S
C2531 C2532 1.403 . S
C2532 C2531 1.403 . S
C2532 C2533 1.404 . S
C2532 C2535 1.539 . S
C2533 C2529 1.408 . S
C2533 C2532 1.404 . S
C2533 H2545 0.930 . S
C2534 C2530 1.524 . S
C2534 H2546 0.956 . S
C2534 H2547 0.961 . S
C2534 H2548 0.961 . S
C2535 C2532 1.539 . S
C2535 H2549 0.958 . S
C2535 H2550 0.961 . S
C2535 H2551 0.960 . S
H2536 C2520 0.931 . S
H2537 C2525 0.929 . S
H2538 C2526 0.960 . S
H2539 C2526 0.962 . S
H2540 C2526 0.960 . S
H2541 C2527 0.961 . S
H2542 C2527 0.961 . S
H2543 C2527 0.961 . S
H2544 C2528 0.931 . S
H2545 C2533 0.930 . S
H2546 C2534 0.956 . S
H2547 C2534 0.961 . S
H2548 C2534 0.961 . S
H2549 C2535 0.958 . S
H2550 C2535 0.961 . S
H2551 C2535 0.960 . S
C2552 C2553 1.391 . S
C2552 C2554 1.394 . S
C2552 H2568 0.931 . S
C2553 C2552 1.391 . S
C2553 C2557 1.376 . S
C2554 C2552 1.394 . S
C2554 C2555 1.369 . S
C2554 C2558 1.531 . S
C2555 C2554 1.369 . S
C2555 C2556 1.410 . S
C2555 C2563 1.503 . S
C2556 C2555 1.410 . S
C2556 C2557 1.392 . S
C2556 C2559 1.511 . S
C2557 C2553 1.376 . S
C2557 C2556 1.392 . S
C2557 H2569 0.929 . S
C2558 C2554 1.531 . S
C2558 H2570 0.960 . S
C2558 H2571 0.962 . S
C2558 H2572 0.960 . S
C2559 C2556 1.511 . S
C2559 H2573 0.961 . S
C2559 H2574 0.961 . S
C2559 H2575 0.961 . S
C2560 C2561 1.370 . S
C2560 C2562 1.363 . S
C2560 H2576 0.931 . S
C2561 C2560 1.370 . S
C2561 C2565 1.408 . S
C2562 C2560 1.363 . S
C2562 C2563 1.370 . S
C2562 C2566 1.524 . S
C2563 C2555 1.503 . S
C2563 C2562 1.370 . S
C2563 C2564 1.403 . S
C2564 C2563 1.403 . S
C2564 C2565 1.404 . S
C2564 C2567 1.539 . S
C2565 C2561 1.408 . S
C2565 C2564 1.404 . S
C2565 H2577 0.930 . S
C2566 C2562 1.524 . S
C2566 H2578 0.956 . S
C2566 H2579 0.961 . S
C2566 H2580 0.961 . S
C2567 C2564 1.539 . S
C2567 H2581 0.958 1_554 S
C2567 H2582 0.961 . S
C2567 H2583 0.960 . S
H2568 C2552 0.931 . S
H2569 C2557 0.929 . S
H2570 C2558 0.960 . S
H2571 C2558 0.962 . S
H2572 C2558 0.960 . S
H2573 C2559 0.961 . S
H2574 C2559 0.961 . S
H2575 C2559 0.961 . S
H2576 C2560 0.931 . S
H2577 C2565 0.930 . S
H2578 C2566 0.956 . S
H2579 C2566 0.961 . S
H2580 C2566 0.961 . S
H2581 C2567 0.958 1_556 S
H2582 C2567 0.961 . S
H2583 C2567 0.960 . S
C2584 C2585 1.391 . S
C2584 C2586 1.394 . S
C2584 H2600 0.931 . S
C2585 C2584 1.391 . S
C2585 C2589 1.376 . S
C2586 C2584 1.394 . S
C2586 C2587 1.369 . S
C2586 C2590 1.531 . S
C2587 C2586 1.369 . S
C2587 C2588 1.410 . S
C2587 C2595 1.503 . S
C2588 C2587 1.410 . S
C2588 C2589 1.392 . S
C2588 C2591 1.511 . S
C2589 C2585 1.376 . S
C2589 C2588 1.392 . S
C2589 H2601 0.941 . S
C2590 C2586 1.531 . S
C2590 H2602 0.960 . S
C2590 H2603 0.962 . S
C2590 H2604 0.960 . S
C2591 C2588 1.511 . S
C2591 H2605 0.961 1_554 S
C2591 H2606 0.961 . S
C2591 H2607 0.961 . S
C2592 C2593 1.370 . S
C2592 C2594 1.363 . S
C2592 H2608 0.931 . S
C2593 C2592 1.370 . S
C2593 C2597 1.408 . S
C2594 C2592 1.363 . S
C2594 C2595 1.370 . S
C2594 C2598 1.524 . S
C2595 C2587 1.503 . S
C2595 C2594 1.370 . S
C2595 C2596 1.403 . S
C2596 C2595 1.403 . S
C2596 C2597 1.404 . S
C2596 C2599 1.539 . S
C2597 C2593 1.408 . S
C2597 C2596 1.404 . S
C2597 H2609 0.930 . S
C2598 C2594 1.524 . S
C2598 H2610 0.956 . S
C2598 H2611 0.961 . S
C2598 H2612 0.961 . S
C2599 C2596 1.539 . S
C2599 H2613 0.958 . S
C2599 H2614 0.961 . S
C2599 H2615 0.960 . S
H2600 C2584 0.931 . S
H2601 C2589 0.941 . S
H2602 C2590 0.960 . S
H2603 C2590 0.962 . S
H2604 C2590 0.960 . S
H2605 C2591 0.961 1_556 S
H2606 C2591 0.961 . S
H2607 C2591 0.961 . S
H2608 C2592 0.931 . S
H2609 C2597 0.930 . S
H2610 C2598 0.956 . S
H2611 C2598 0.961 . S
H2612 C2598 0.961 . S
H2613 C2599 0.958 . S
H2614 C2599 0.961 . S
H2615 C2599 0.960 . S
C2616 C2617 1.391 1_554 S
C2616 C2618 1.394 . S
C2616 H2632 0.931 . S
C2617 C2616 1.391 1_556 S
C2617 C2621 1.376 . S
C2618 C2616 1.394 . S
C2618 C2619 1.369 1_554 S
C2618 C2622 1.531 . S
C2619 C2618 1.369 1_556 S
C2619 C2620 1.410 . S
C2619 C2627 1.503 . S
C2620 C2619 1.410 . S
C2620 C2621 1.392 . S
C2620 C2623 1.511 . S
C2621 C2617 1.376 . S
C2621 C2620 1.392 . S
C2621 H2633 0.929 . S
C2622 C2618 1.531 . S
C2622 H2634 0.960 . S
C2622 H2635 0.962 . S
C2622 H2636 0.960 . S
C2623 C2620 1.511 . S
C2623 H2637 0.961 . S
C2623 H2638 0.961 . S
C2623 H2639 0.961 . S
C2624 C2625 1.370 . S
C2624 C2626 1.363 . S
C2624 H2640 0.931 . S
C2625 C2624 1.370 . S
C2625 C2629 1.408 . S
C2626 C2624 1.363 . S
C2626 C2627 1.370 . S
C2626 C2630 1.524 . S
C2627 C2619 1.503 . S
C2627 C2626 1.370 . S
C2627 C2628 1.403 . S
C2628 C2627 1.403 . S
C2628 C2629 1.404 . S
C2628 C2631 1.539 1_556 S
C2629 C2625 1.408 . S
C2629 C2628 1.404 . S
C2629 H2641 0.930 . S
C2630 C2626 1.524 . S
C2630 H2642 0.956 . S
C2630 H2643 0.961 . S
C2630 H2644 0.961 . S
C2631 C2628 1.539 1_554 S
C2631 H2645 0.958 . S
C2631 H2646 0.961 . S
C2631 H2647 0.960 . S
H2632 C2616 0.931 . S
H2633 C2621 0.929 . S
H2634 C2622 0.960 . S
H2635 C2622 0.962 . S
H2636 C2622 0.960 . S
H2637 C2623 0.961 . S
H2638 C2623 0.961 . S
H2639 C2623 0.961 . S
H2640 C2624 0.931 . S
H2641 C2629 0.930 . S
H2642 C2630 0.956 . S
H2643 C2630 0.961 . S
H2644 C2630 0.961 . S
H2645 C2631 0.958 . S
H2646 C2631 0.961 . S
H2647 C2631 0.960 . S
C2648 C2649 1.391 . S
C2648 C2650 1.394 . S
C2648 H2664 0.931 . S
C2649 C2648 1.391 . S
C2649 C2653 1.377 . S
C2650 C2648 1.394 . S
C2650 C2651 1.369 . S
C2650 C2654 1.531 . S
C2651 C2650 1.369 . S
C2651 C2652 1.410 . S
C2651 C2659 1.503 . S
C2652 C2651 1.410 . S
C2652 C2653 1.393 . S
C2652 C2655 1.502 1_556 S
C2653 C2649 1.377 . S
C2653 C2652 1.393 . S
C2653 H2665 0.927 1_556 S
C2654 C2650 1.531 . S
C2654 H2666 0.960 . S
C2654 H2667 0.962 . S
C2654 H2668 0.960 . S
C2655 C2652 1.502 1_554 S
C2655 H2669 0.986 . S
C2655 H2670 0.965 . S
C2655 H2671 0.941 1_554 S
C2656 C2657 1.370 . S
C2656 C2658 1.363 . S
C2656 H2672 0.931 . S
C2657 C2656 1.370 . S
C2657 C2661 1.408 . S
C2658 C2656 1.363 . S
C2658 C2659 1.370 . S
C2658 C2662 1.524 1_556 S
C2659 C2651 1.503 . S
C2659 C2658 1.370 . S
C2659 C2660 1.403 . S
C2660 C2659 1.403 . S
C2660 C2661 1.404 . S
C2660 C2663 1.539 . S
C2661 C2657 1.408 . S
C2661 C2660 1.404 . S
C2661 H2673 0.930 . S
C2662 C2658 1.524 1_554 S
C2662 H2674 0.956 . S
C2662 H2675 0.961 . S
C2662 H2676 0.961 . S
C2663 C2660 1.539 . S
C2663 H2677 0.958 . S
C2663 H2678 0.961 . S
C2663 H2679 0.960 . S
H2664 C2648 0.931 . S
H2665 C2653 0.927 1_554 S
H2666 C2654 0.960 . S
H2667 C2654 0.962 . S
H2668 C2654 0.960 . S
H2669 C2655 0.986 . S
H2670 C2655 0.965 . S
H2671 C2655 0.941 1_556 S
H2672 C2656 0.931 . S
H2673 C2661 0.930 . S
H2674 C2662 0.956 . S
H2675 C2662 0.961 . S
H2676 C2662 0.961 . S
H2677 C2663 0.958 . S
H2678 C2663 0.961 . S
H2679 C2663 0.960 . S
C2680 C2681 1.391 . S
C2680 C2682 1.394 . S
C2680 H2696 0.931 . S
C2681 C2680 1.391 . S
C2681 C2685 1.376 . S
C2682 C2680 1.394 . S
C2682 C2683 1.369 . S
C2682 C2686 1.531 . S
C2683 C2682 1.369 . S
C2683 C2684 1.410 . S
C2683 C2691 1.503 . S
C2684 C2683 1.410 . S
C2684 C2685 1.392 . S
C2684 C2687 1.511 . S
C2685 C2681 1.376 . S
C2685 C2684 1.392 . S
C2685 H2697 0.929 . S
C2686 C2682 1.531 . S
C2686 H2698 0.960 . S
C2686 H2699 0.962 . S
C2686 H2700 0.960 . S
C2687 C2684 1.511 . S
C2687 H2701 0.961 . S
C2687 H2702 0.961 . S
C2687 H2703 0.961 . S
C2688 C2689 1.370 . S
C2688 C2690 1.363 . S
C2688 H2704 0.931 . S
C2689 C2688 1.370 . S
C2689 C2693 1.408 . S
C2690 C2688 1.363 . S
C2690 C2691 1.370 . S
C2690 C2694 1.524 1_556 S
C2691 C2683 1.503 . S
C2691 C2690 1.370 . S
C2691 C2692 1.403 . S
C2692 C2691 1.403 . S
C2692 C2693 1.404 . S
C2692 C2695 1.539 . S
C2693 C2689 1.408 . S
C2693 C2692 1.404 . S
C2693 H2705 0.930 . S
C2694 C2690 1.524 1_554 S
C2694 H2706 0.956 . S
C2694 H2707 0.961 . S
C2694 H2708 0.961 . S
C2695 C2692 1.539 . S
C2695 H2709 0.958 . S
C2695 H2710 0.961 . S
C2695 H2711 0.960 . S
H2696 C2680 0.931 . S
H2697 C2685 0.929 . S
H2698 C2686 0.960 . S
H2699 C2686 0.962 . S
H2700 C2686 0.960 . S
H2701 C2687 0.961 . S
H2702 C2687 0.961 . S
H2703 C2687 0.961 . S
H2704 C2688 0.931 . S
H2705 C2693 0.930 . S
H2706 C2694 0.956 . S
H2707 C2694 0.961 . S
H2708 C2694 0.961 . S
H2709 C2695 0.958 . S
H2710 C2695 0.961 . S
H2711 C2695 0.960 . S
C2712 C2713 1.391 . S
C2712 C2714 1.394 . S
C2712 H2728 0.931 . S
C2713 C2712 1.391 . S
C2713 C2717 1.377 . S
C2714 C2712 1.394 . S
C2714 C2715 1.369 . S
C2714 C2718 1.531 . S
C2715 C2714 1.369 . S
C2715 C2716 1.410 . S
C2715 C2723 1.503 . S
C2716 C2715 1.410 . S
C2716 C2717 1.403 . S
C2716 C2719 1.511 . S
C2717 C2713 1.377 . S
C2717 C2716 1.403 . S
C2717 H2729 0.920 1_556 S
C2718 C2714 1.531 . S
C2718 H2730 0.960 . S
C2718 H2731 0.962 . S
C2718 H2732 0.960 . S
C2719 C2716 1.511 . S
C2719 H2733 0.961 . S
C2719 H2734 0.961 . S
C2719 H2735 0.961 1_556 S
C2720 C2721 1.370 . S
C2720 C2722 1.363 . S
C2720 H2736 0.931 . S
C2721 C2720 1.370 . S
C2721 C2725 1.408 . S
C2722 C2720 1.363 . S
C2722 C2723 1.370 . S
C2722 C2726 1.524 . S
C2723 C2715 1.503 . S
C2723 C2722 1.370 . S
C2723 C2724 1.403 . S
C2724 C2723 1.403 . S
C2724 C2725 1.404 . S
C2724 C2727 1.539 1_556 S
C2725 C2721 1.408 . S
C2725 C2724 1.404 . S
C2725 H2737 0.930 . S
C2726 C2722 1.524 . S
C2726 H2738 0.956 . S
C2726 H2739 0.961 . S
C2726 H2740 0.961 . S
C2727 C2724 1.539 1_554 S
C2727 H2741 0.958 . S
C2727 H2742 0.961 . S
C2727 H2743 0.960 . S
H2728 C2712 0.931 . S
H2729 C2717 0.920 1_554 S
H2730 C2718 0.960 . S
H2731 C2718 0.962 . S
H2732 C2718 0.960 . S
H2733 C2719 0.961 . S
H2734 C2719 0.961 . S
H2735 C2719 0.961 1_554 S
H2736 C2720 0.931 . S
H2737 C2725 0.930 . S
H2738 C2726 0.956 . S
H2739 C2726 0.961 . S
H2740 C2726 0.961 . S
H2741 C2727 0.958 . S
H2742 C2727 0.961 . S
H2743 C2727 0.960 . S
C2744 C2745 1.391 . S
C2744 C2746 1.393 . S
C2744 H2760 0.931 1_556 S
C2745 C2744 1.391 . S
C2745 C2749 1.376 . S
C2746 C2744 1.393 . S
C2746 C2747 1.369 . S
C2746 C2750 1.531 . S
C2747 C2746 1.369 . S
C2747 C2748 1.410 . S
C2747 C2755 1.503 . S
C2748 C2747 1.410 . S
C2748 C2749 1.392 . S
C2748 C2751 1.511 . S
C2749 C2745 1.376 . S
C2749 C2748 1.392 . S
C2749 H2761 0.929 . S
C2750 C2746 1.531 . S
C2750 H2762 0.960 1_556 S
C2750 H2763 0.962 . S
C2750 H2764 0.960 1_556 S
C2751 C2748 1.511 . S
C2751 H2765 0.961 . S
C2751 H2766 0.961 . S
C2751 H2767 0.961 . S
C2752 C2753 1.370 . S
C2752 C2754 1.363 . S
C2752 H2768 0.931 . S
C2753 C2752 1.370 . S
C2753 C2757 1.408 . S
C2754 C2752 1.363 . S
C2754 C2755 1.370 . S
C2754 C2758 1.524 . S
C2755 C2747 1.503 . S
C2755 C2754 1.370 . S
C2755 C2756 1.403 . S
C2756 C2755 1.403 . S
C2756 C2757 1.404 . S
C2756 C2759 1.539 1_556 S
C2757 C2753 1.408 . S
C2757 C2756 1.404 . S
C2757 H2769 0.912 1_556 S
C2758 C2754 1.524 . S
C2758 H2770 0.956 . S
C2758 H2771 0.961 . S
C2758 H2772 0.961 . S
C2759 C2756 1.539 1_554 S
C2759 H2773 0.958 . S
C2759 H2774 0.961 . S
C2759 H2775 0.960 . S
H2760 C2744 0.931 1_554 S
H2761 C2749 0.929 . S
H2762 C2750 0.960 1_554 S
H2763 C2750 0.962 . S
H2764 C2750 0.960 1_554 S
H2765 C2751 0.961 . S
H2766 C2751 0.961 . S
H2767 C2751 0.961 . S
H2768 C2752 0.931 . S
H2769 C2757 0.912 1_554 S
H2770 C2758 0.956 . S
H2771 C2758 0.961 . S
H2772 C2758 0.961 . S
H2773 C2759 0.958 . S
H2774 C2759 0.961 . S
H2775 C2759 0.960 . S
C2776 C2777 1.400 . S
C2776 C2778 1.394 . S
C2776 H2792 0.931 . S
C2777 C2776 1.400 . S
C2777 C2781 1.363 1_554 S
C2778 C2776 1.394 . S
C2778 C2779 1.369 1_554 S
C2778 C2782 1.531 . S
C2779 C2778 1.369 1_556 S
C2779 C2780 1.410 . S
C2779 C2787 1.503 . S
C2780 C2779 1.410 . S
C2780 C2781 1.392 . S
C2780 C2783 1.511 . S
C2781 C2777 1.363 1_556 S
C2781 C2780 1.392 . S
C2781 H2793 0.929 . S
C2782 C2778 1.531 . S
C2782 H2794 0.960 . S
C2782 H2795 0.962 . S
C2782 H2796 0.960 . S
C2783 C2780 1.511 . S
C2783 H2797 0.961 . S
C2783 H2798 0.961 . S
C2783 H2799 0.961 . S
C2784 C2785 1.370 . S
C2784 C2786 1.363 . S
C2784 H2800 0.931 . S
C2785 C2784 1.370 . S
C2785 C2789 1.408 . S
C2786 C2784 1.363 . S
C2786 C2787 1.370 . S
C2786 C2790 1.524 . S
C2787 C2779 1.503 . S
C2787 C2786 1.370 . S
C2787 C2788 1.403 . S
C2788 C2787 1.403 . S
C2788 C2789 1.404 . S
C2788 C2791 1.539 . S
C2789 C2785 1.408 . S
C2789 C2788 1.404 . S
C2789 H2801 0.930 . S
C2790 C2786 1.524 . S
C2790 H2802 0.956 . S
C2790 H2803 0.961 . S
C2790 H2804 0.961 . S
C2791 C2788 1.539 . S
C2791 H2805 0.958 . S
C2791 H2806 0.961 . S
C2791 H2807 0.960 . S
H2792 C2776 0.931 . S
H2793 C2781 0.929 . S
H2794 C2782 0.960 . S
H2795 C2782 0.962 . S
H2796 C2782 0.960 . S
H2797 C2783 0.961 . S
H2798 C2783 0.961 . S
H2799 C2783 0.961 . S
H2800 C2784 0.931 . S
H2801 C2789 0.930 . S
H2802 C2790 0.956 . S
H2803 C2790 0.961 . S
H2804 C2790 0.961 . S
H2805 C2791 0.958 . S
H2806 C2791 0.961 . S
H2807 C2791 0.960 . S
C2808 C2809 1.391 . S
C2808 C2810 1.394 . S
C2808 H2824 0.931 . S
C2809 C2808 1.391 . S
C2809 C2813 1.376 . S
C2810 C2808 1.394 . S
C2810 C2811 1.369 . S
C2810 C2814 1.531 . S
C2811 C2810 1.369 . S
C2811 C2812 1.410 . S
C2811 C2819 1.503 . S
C2812 C2811 1.410 . S
C2812 C2813 1.392 . S
C2812 C2815 1.511 . S
C2813 C2809 1.376 . S
C2813 C2812 1.392 . S
C2813 H2825 0.929 . S
C2814 C2810 1.531 . S
C2814 H2826 0.960 . S
C2814 H2827 0.962 . S
C2814 H2828 0.960 . S
C2815 C2812 1.511 . S
C2815 H2829 0.961 . S
C2815 H2830 0.961 . S
C2815 H2831 0.961 . S
C2816 C2817 1.370 . S
C2816 C2818 1.363 . S
C2816 H2832 0.931 . S
C2817 C2816 1.370 . S
C2817 C2821 1.408 . S
C2818 C2816 1.363 . S
C2818 C2819 1.370 . S
C2818 C2822 1.524 . S
C2819 C2811 1.503 . S
C2819 C2818 1.370 . S
C2819 C2820 1.403 . S
C2820 C2819 1.403 . S
C2820 C2821 1.404 . S
C2820 C2823 1.539 . S
C2821 C2817 1.408 . S
C2821 C2820 1.404 . S
C2821 H2833 0.930 . S
C2822 C2818 1.524 . S
C2822 H2834 0.956 . S
C2822 H2835 0.961 . S
C2822 H2836 0.961 . S
C2823 C2820 1.539 . S
C2823 H2837 0.958 . S
C2823 H2838 0.961 . S
C2823 H2839 0.960 . S
H2824 C2808 0.931 . S
H2825 C2813 0.929 . S
H2826 C2814 0.960 . S
H2827 C2814 0.962 . S
H2828 C2814 0.960 . S
H2829 C2815 0.961 . S
H2830 C2815 0.961 . S
H2831 C2815 0.961 . S
H2832 C2816 0.931 . S
H2833 C2821 0.930 . S
H2834 C2822 0.956 . S
H2835 C2822 0.961 . S
H2836 C2822 0.961 . S
H2837 C2823 0.958 . S
H2838 C2823 0.961 . S
H2839 C2823 0.960 . S
C2840 C2841 1.391 . S
C2840 C2842 1.394 . S
C2840 H2856 0.931 . S
C2841 C2840 1.391 . S
C2841 C2845 1.376 . S
C2842 C2840 1.394 . S
C2842 C2843 1.369 . S
C2842 C2846 1.531 . S
C2843 C2842 1.369 . S
C2843 C2844 1.410 . S
C2843 C2851 1.503 . S
C2844 C2843 1.410 . S
C2844 C2845 1.392 . S
C2844 C2847 1.511 . S
C2845 C2841 1.376 . S
C2845 C2844 1.392 . S
C2845 H2857 0.929 . S
C2846 C2842 1.531 . S
C2846 H2858 0.960 . S
C2846 H2859 0.962 . S
C2846 H2860 0.960 . S
C2847 C2844 1.511 . S
C2847 H2861 0.961 . S
C2847 H2862 0.961 . S
C2847 H2863 0.961 . S
C2848 C2849 1.370 . S
C2848 C2850 1.363 . S
C2848 H2864 0.931 . S
C2849 C2848 1.370 . S
C2849 C2853 1.408 . S
C2850 C2848 1.363 . S
C2850 C2851 1.370 . S
C2850 C2854 1.524 . S
C2851 C2843 1.503 . S
C2851 C2850 1.370 . S
C2851 C2852 1.403 . S
C2852 C2851 1.403 . S
C2852 C2853 1.404 . S
C2852 C2855 1.539 . S
C2853 C2849 1.408 . S
C2853 C2852 1.404 . S
C2853 H2865 0.930 . S
C2854 C2850 1.524 . S
C2854 H2866 0.956 . S
C2854 H2867 0.961 . S
C2854 H2868 0.961 . S
C2855 C2852 1.539 . S
C2855 H2869 0.958 . S
C2855 H2870 0.961 . S
C2855 H2871 0.960 . S
H2856 C2840 0.931 . S
H2857 C2845 0.929 . S
H2858 C2846 0.960 . S
H2859 C2846 0.962 . S
H2860 C2846 0.960 . S
H2861 C2847 0.961 . S
H2862 C2847 0.961 . S
H2863 C2847 0.961 . S
H2864 C2848 0.931 . S
H2865 C2853 0.930 . S
H2866 C2854 0.956 . S
H2867 C2854 0.961 . S
H2868 C2854 0.961 . S
H2869 C2855 0.958 . S
H2870 C2855 0.961 . S
H2871 C2855 0.960 . S
C2872 C2873 1.391 . S
C2872 C2874 1.394 . S
C2872 H2888 0.931 . S
C2873 C2872 1.391 . S
C2873 C2877 1.376 . S
C2874 C2872 1.394 . S
C2874 C2875 1.369 . S
C2874 C2878 1.531 . S
C2875 C2874 1.369 . S
C2875 C2876 1.410 . S
C2875 C2883 1.503 . S
C2876 C2875 1.410 . S
C2876 C2877 1.392 . S
C2876 C2879 1.511 . S
C2877 C2873 1.376 . S
C2877 C2876 1.392 . S
C2877 H2889 0.929 . S
C2878 C2874 1.531 . S
C2878 H2890 0.960 . S
C2878 H2891 0.962 . S
C2878 H2892 0.960 . S
C2879 C2876 1.511 . S
C2879 H2893 0.961 . S
C2879 H2894 0.961 . S
C2879 H2895 0.961 . S
C2880 C2881 1.370 . S
C2880 C2882 1.363 . S
C2880 H2896 0.931 . S
C2881 C2880 1.370 . S
C2881 C2885 1.408 . S
C2882 C2880 1.363 . S
C2882 C2883 1.370 . S
C2882 C2886 1.524 . S
C2883 C2875 1.503 . S
C2883 C2882 1.370 . S
C2883 C2884 1.403 . S
C2884 C2883 1.403 . S
C2884 C2885 1.404 . S
C2884 C2887 1.539 . S
C2885 C2881 1.408 . S
C2885 C2884 1.404 . S
C2885 H2897 0.930 . S
C2886 C2882 1.524 . S
C2886 H2898 0.956 . S
C2886 H2899 0.961 . S
C2886 H2900 0.961 . S
C2887 C2884 1.539 . S
C2887 H2901 0.958 . S
C2887 H2902 0.961 . S
C2887 H2903 0.960 . S
H2888 C2872 0.931 . S
H2889 C2877 0.929 . S
H2890 C2878 0.960 . S
H2891 C2878 0.962 . S
H2892 C2878 0.960 . S
H2893 C2879 0.961 . S
H2894 C2879 0.961 . S
H2895 C2879 0.961 . S
H2896 C2880 0.931 . S
H2897 C2885 0.930 . S
H2898 C2886 0.956 . S
H2899 C2886 0.961 . S
H2900 C2886 0.961 . S
H2901 C2887 0.958 . S
H2902 C2887 0.961 . S
H2903 C2887 0.960 . S
C2904 C2905 1.391 . S
C2904 C2906 1.394 . S
C2904 H2920 0.931 . S
C2905 C2904 1.391 . S
C2905 C2909 1.376 . S
C2906 C2904 1.394 . S
C2906 C2907 1.369 . S
C2906 C2910 1.531 . S
C2907 C2906 1.369 . S
C2907 C2908 1.410 . S
C2907 C2915 1.503 . S
C2908 C2907 1.410 . S
C2908 C2909 1.392 . S
C2908 C2911 1.511 . S
C2909 C2905 1.376 . S
C2909 C2908 1.392 . S
C2909 H2921 0.929 . S
C2910 C2906 1.531 . S
C2910 H2922 0.960 . S
C2910 H2923 0.962 . S
C2910 H2924 0.960 . S
C2911 C2908 1.511 . S
C2911 H2925 0.961 . S
C2911 H2926 0.961 . S
C2911 H2927 0.961 . S
C2912 C2913 1.370 . S
C2912 C2914 1.363 . S
C2912 H2928 0.931 . S
C2913 C2912 1.370 . S
C2913 C2917 1.408 . S
C2914 C2912 1.363 . S
C2914 C2915 1.370 . S
C2914 C2918 1.524 . S
C2915 C2907 1.503 . S
C2915 C2914 1.370 . S
C2915 C2916 1.403 . S
C2916 C2915 1.403 . S
C2916 C2917 1.404 . S
C2916 C2919 1.539 . S
C2917 C2913 1.408 . S
C2917 C2916 1.404 . S
C2917 H2929 0.930 . S
C2918 C2914 1.524 . S
C2918 H2930 0.956 . S
C2918 H2931 0.961 . S
C2918 H2932 0.961 . S
C2919 C2916 1.539 . S
C2919 H2933 0.958 . S
C2919 H2934 0.961 . S
C2919 H2935 0.960 . S
H2920 C2904 0.931 . S
H2921 C2909 0.929 . S
H2922 C2910 0.960 . S
H2923 C2910 0.962 . S
H2924 C2910 0.960 . S
H2925 C2911 0.961 . S
H2926 C2911 0.961 . S
H2927 C2911 0.961 . S
H2928 C2912 0.931 . S
H2929 C2917 0.930 . S
H2930 C2918 0.956 . S
H2931 C2918 0.961 . S
H2932 C2918 0.961 . S
H2933 C2919 0.958 . S
H2934 C2919 0.961 . S
H2935 C2919 0.960 . S
C2936 C2937 1.391 . S
C2936 C2938 1.394 . S
C2936 H2952 0.931 . S
C2937 C2936 1.391 . S
C2937 C2941 1.376 . S
C2938 C2936 1.394 . S
C2938 C2939 1.369 . S
C2938 C2942 1.531 . S
C2939 C2938 1.369 . S
C2939 C2940 1.410 . S
C2939 C2947 1.503 . S
C2940 C2939 1.410 . S
C2940 C2941 1.392 . S
C2940 C2943 1.511 . S
C2941 C2937 1.376 . S
C2941 C2940 1.392 . S
C2941 H2953 0.929 . S
C2942 C2938 1.531 . S
C2942 H2954 0.960 . S
C2942 H2955 0.962 . S
C2942 H2956 0.960 . S
C2943 C2940 1.511 . S
C2943 H2957 0.961 . S
C2943 H2958 0.961 . S
C2943 H2959 0.961 . S
C2944 C2945 1.370 . S
C2944 C2946 1.363 . S
C2944 H2960 0.931 . S
C2945 C2944 1.370 . S
C2945 C2949 1.408 . S
C2946 C2944 1.363 . S
C2946 C2947 1.370 . S
C2946 C2950 1.524 . S
C2947 C2939 1.503 . S
C2947 C2946 1.370 . S
C2947 C2948 1.403 . S
C2948 C2947 1.403 . S
C2948 C2949 1.404 . S
C2948 C2951 1.539 . S
C2949 C2945 1.408 . S
C2949 C2948 1.404 . S
C2949 H2961 0.930 . S
C2950 C2946 1.524 . S
C2950 H2962 0.956 . S
C2950 H2963 0.961 . S
C2950 H2964 0.961 . S
C2951 C2948 1.539 . S
C2951 H2965 0.958 . S
C2951 H2966 0.961 . S
C2951 H2967 0.960 . S
H2952 C2936 0.931 . S
H2953 C2941 0.929 . S
H2954 C2942 0.960 . S
H2955 C2942 0.962 . S
H2956 C2942 0.960 . S
H2957 C2943 0.961 . S
H2958 C2943 0.961 . S
H2959 C2943 0.961 . S
H2960 C2944 0.931 . S
H2961 C2949 0.930 . S
H2962 C2950 0.956 . S
H2963 C2950 0.961 . S
H2964 C2950 0.961 . S
H2965 C2951 0.958 . S
H2966 C2951 0.961 . S
H2967 C2951 0.960 . S
C2968 C2969 1.391 . S
C2968 C2970 1.394 . S
C2968 H2984 0.931 . S
C2969 C2968 1.391 . S
C2969 C2973 1.376 . S
C2970 C2968 1.394 . S
C2970 C2971 1.369 . S
C2970 C2974 1.531 . S
C2971 C2970 1.369 . S
C2971 C2972 1.410 . S
C2971 C2979 1.503 . S
C2972 C2971 1.410 . S
C2972 C2973 1.392 . S
C2972 C2975 1.511 . S
C2973 C2969 1.376 . S
C2973 C2972 1.392 . S
C2973 H2985 0.929 . S
C2974 C2970 1.531 . S
C2974 H2986 0.960 . S
C2974 H2987 0.962 . S
C2974 H2988 0.960 . S
C2975 C2972 1.511 . S
C2975 H2989 0.961 . S
C2975 H2990 0.961 . S
C2975 H2991 0.961 . S
C2976 C2977 1.370 . S
C2976 C2978 1.363 . S
C2976 H2992 0.931 . S
C2977 C2976 1.370 . S
C2977 C2981 1.408 . S
C2978 C2976 1.363 . S
C2978 C2979 1.370 . S
C2978 C2982 1.524 . S
C2979 C2971 1.503 . S
C2979 C2978 1.370 . S
C2979 C2980 1.403 . S
C2980 C2979 1.403 . S
C2980 C2981 1.404 . S
C2980 C2983 1.539 . S
C2981 C2977 1.408 . S
C2981 C2980 1.404 . S
C2981 H2993 0.930 . S
C2982 C2978 1.524 . S
C2982 H2994 0.956 . S
C2982 H2995 0.961 . S
C2982 H2996 0.961 . S
C2983 C2980 1.539 . S
C2983 H2997 0.958 . S
C2983 H2998 0.961 . S
C2983 H2999 0.960 . S
H2984 C2968 0.931 . S
H2985 C2973 0.929 . S
H2986 C2974 0.960 . S
H2987 C2974 0.962 . S
H2988 C2974 0.960 . S
H2989 C2975 0.961 . S
H2990 C2975 0.961 . S
H2991 C2975 0.961 . S
H2992 C2976 0.931 . S
H2993 C2981 0.930 . S
H2994 C2982 0.956 . S
H2995 C2982 0.961 . S
H2996 C2982 0.961 . S
H2997 C2983 0.958 . S
H2998 C2983 0.961 . S
H2999 C2983 0.960 . S
C3000 C3001 1.391 . S
C3000 C3002 1.394 . S
C3000 H3016 0.931 . S
C3001 C3000 1.391 . S
C3001 C3005 1.376 . S
C3002 C3000 1.394 . S
C3002 C3003 1.369 . S
C3002 C3006 1.531 1_455 S
C3003 C3002 1.369 . S
C3003 C3004 1.410 . S
C3003 C3011 1.503 . S
C3004 C3003 1.410 . S
C3004 C3005 1.392 . S
C3004 C3007 1.511 . S
C3005 C3001 1.376 . S
C3005 C3004 1.392 . S
C3005 H3017 0.929 . S
C3006 C3002 1.531 1_655 S
C3006 H3018 0.960 . S
C3006 H3019 0.962 . S
C3006 H3020 0.960 . S
C3007 C3004 1.511 . S
C3007 H3021 0.961 . S
C3007 H3022 0.961 . S
C3007 H3023 0.961 . S
C3008 C3009 1.370 . S
C3008 C3010 1.363 . S
C3008 H3024 0.931 1_455 S
C3009 C3008 1.370 . S
C3009 C3013 1.408 . S
C3010 C3008 1.363 . S
C3010 C3011 1.370 . S
C3010 C3014 1.524 . S
C3011 C3003 1.503 . S
C3011 C3010 1.370 . S
C3011 C3012 1.403 . S
C3012 C3011 1.403 . S
C3012 C3013 1.404 . S
C3012 C3015 1.539 . S
C3013 C3009 1.408 . S
C3013 C3012 1.404 . S
C3013 H3025 0.930 . S
C3014 C3010 1.524 . S
C3014 H3026 0.956 1_455 S
C3014 H3027 0.961 . S
C3014 H3028 0.961 1_455 S
C3015 C3012 1.539 . S
C3015 H3029 0.958 . S
C3015 H3030 0.961 . S
C3015 H3031 0.960 . S
H3016 C3000 0.931 . S
H3017 C3005 0.929 . S
H3018 C3006 0.960 . S
H3019 C3006 0.962 . S
H3020 C3006 0.960 . S
H3021 C3007 0.961 . S
H3022 C3007 0.961 . S
H3023 C3007 0.961 . S
H3024 C3008 0.931 1_655 S
H3025 C3013 0.930 . S
H3026 C3014 0.956 1_655 S
H3027 C3014 0.961 . S
H3028 C3014 0.961 1_655 S
H3029 C3015 0.958 . S
H3030 C3015 0.961 . S
H3031 C3015 0.960 . S
C3032 C3033 1.391 . S
C3032 C3034 1.394 . S
C3032 H3048 0.931 . S
C3033 C3032 1.391 . S
C3033 C3037 1.376 . S
C3034 C3032 1.394 . S
C3034 C3035 1.369 . S
C3034 C3038 1.531 . S
C3035 C3034 1.369 . S
C3035 C3036 1.410 . S
C3035 C3043 1.503 . S
C3036 C3035 1.410 . S
C3036 C3037 1.392 . S
C3036 C3039 1.511 . S
C3037 C3033 1.376 . S
C3037 C3036 1.392 . S
C3037 H3049 0.929 . S
C3038 C3034 1.531 . S
C3038 H3050 0.960 . S
C3038 H3051 0.962 . S
C3038 H3052 0.960 . S
C3039 C3036 1.511 . S
C3039 H3053 0.961 . S
C3039 H3054 0.961 . S
C3039 H3055 0.961 . S
C3040 C3041 1.370 . S
C3040 C3042 1.363 . S
C3040 H3056 0.931 . S
C3041 C3040 1.370 . S
C3041 C3045 1.408 . S
C3042 C3040 1.363 . S
C3042 C3043 1.370 . S
C3042 C3046 1.524 . S
C3043 C3035 1.503 . S
C3043 C3042 1.370 . S
C3043 C3044 1.403 . S
C3044 C3043 1.403 . S
C3044 C3045 1.404 . S
C3044 C3047 1.539 . S
C3045 C3041 1.408 . S
C3045 C3044 1.404 . S
C3045 H3057 0.930 . S
C3046 C3042 1.524 . S
C3046 H3058 0.956 . S
C3046 H3059 0.961 . S
C3046 H3060 0.961 . S
C3047 C3044 1.539 . S
C3047 H3061 0.958 . S
C3047 H3062 0.961 . S
C3047 H3063 0.960 . S
H3048 C3032 0.931 . S
H3049 C3037 0.929 . S
H3050 C3038 0.960 . S
H3051 C3038 0.962 . S
H3052 C3038 0.960 . S
H3053 C3039 0.961 . S
H3054 C3039 0.961 . S
H3055 C3039 0.961 . S
H3056 C3040 0.931 . S
H3057 C3045 0.930 . S
H3058 C3046 0.956 . S
H3059 C3046 0.961 . S
H3060 C3046 0.961 . S
H3061 C3047 0.958 . S
H3062 C3047 0.961 . S
H3063 C3047 0.960 . S
C3064 C3065 1.391 . S
C3064 C3066 1.394 . S
C3064 H3080 0.931 . S
C3065 C3064 1.391 . S
C3065 C3069 1.376 . S
C3066 C3064 1.394 . S
C3066 C3067 1.369 . S
C3066 C3070 1.531 . S
C3067 C3066 1.369 . S
C3067 C3068 1.410 . S
C3067 C3075 1.503 . S
C3068 C3067 1.410 . S
C3068 C3069 1.392 . S
C3068 C3071 1.511 1_565 S
C3069 C3065 1.376 . S
C3069 C3068 1.392 . S
C3069 H3081 0.940 . S
C3070 C3066 1.531 . S
C3070 H3082 0.960 . S
C3070 H3083 0.962 . S
C3070 H3084 0.960 . S
C3071 C3068 1.511 1_545 S
C3071 H3085 0.961 . S
C3071 H3086 0.961 . S
C3071 H3087 0.961 . S
C3072 C3073 1.370 . S
C3072 C3074 1.363 . S
C3072 H3088 0.931 . S
C3073 C3072 1.370 . S
C3073 C3077 1.408 . S
C3074 C3072 1.363 . S
C3074 C3075 1.370 . S
C3074 C3078 1.524 . S
C3075 C3067 1.503 . S
C3075 C3074 1.370 . S
C3075 C3076 1.403 . S
C3076 C3075 1.403 . S
C3076 C3077 1.404 . S
C3076 C3079 1.539 . S
C3077 C3073 1.408 . S
C3077 C3076 1.404 . S
C3077 H3089 0.930 . S
C3078 C3074 1.524 . S
C3078 H3090 0.956 . S
C3078 H3091 0.961 . S
C3078 H3092 0.961 . S
C3079 C3076 1.539 . S
C3079 H3093 0.958 . S
C3079 H3094 0.961 . S
C3079 H3095 0.960 . S
H3080 C3064 0.931 . S
H3081 C3069 0.940 . S
H3082 C3070 0.960 . S
H3083 C3070 0.962 . S
H3084 C3070 0.960 . S
H3085 C3071 0.961 . S
H3086 C3071 0.961 . S
H3087 C3071 0.961 . S
H3088 C3072 0.931 . S
H3089 C3077 0.930 . S
H3090 C3078 0.956 . S
H3091 C3078 0.961 . S
H3092 C3078 0.961 . S
H3093 C3079 0.958 . S
H3094 C3079 0.961 . S
H3095 C3079 0.960 . S
C3096 C3097 1.391 . S
C3096 C3098 1.394 . S
C3096 H3112 0.931 . S
C3097 C3096 1.391 . S
C3097 C3101 1.376 . S
C3098 C3096 1.394 . S
C3098 C3099 1.369 . S
C3098 C3102 1.531 . S
C3099 C3098 1.369 . S
C3099 C3100 1.410 . S
C3099 C3107 1.503 . S
C3100 C3099 1.410 . S
C3100 C3101 1.392 . S
C3100 C3103 1.511 1_565 S
C3101 C3097 1.376 . S
C3101 C3100 1.392 . S
C3101 H3113 0.929 . S
C3102 C3098 1.531 . S
C3102 H3114 0.960 . S
C3102 H3115 0.962 . S
C3102 H3116 0.960 . S
C3103 C3100 1.511 1_545 S
C3103 H3117 0.961 . S
C3103 H3118 0.948 . S
C3103 H3119 0.961 . S
C3104 C3105 1.370 . S
C3104 C3106 1.363 . S
C3104 H3120 0.931 . S
C3105 C3104 1.370 . S
C3105 C3109 1.408 1_565 S
C3106 C3104 1.363 . S
C3106 C3107 1.370 . S
C3106 C3110 1.524 . S
C3107 C3099 1.503 . S
C3107 C3106 1.370 . S
C3107 C3108 1.397 1_565 S
C3108 C3107 1.397 1_545 S
C3108 C3109 1.407 . S
C3108 C3111 1.541 . S
C3109 C3105 1.408 1_545 S
C3109 C3108 1.407 . S
C3109 H3121 0.930 . S
C3110 C3106 1.524 . S
C3110 H3122 0.956 . S
C3110 H3123 0.961 . S
C3110 H3124 0.961 . S
C3111 C3108 1.541 . S
C3111 H3125 0.958 . S
C3111 H3126 0.961 . S
C3111 H3127 0.960 . S
H3112 C3096 0.931 . S
H3113 C3101 0.929 . S
H3114 C3102 0.960 . S
H3115 C3102 0.962 . S
H3116 C3102 0.960 . S
H3117 C3103 0.961 . S
H3118 C3103 0.948 . S
H3119 C3103 0.961 . S
H3120 C3104 0.931 . S
H3121 C3109 0.930 . S
H3122 C3110 0.956 . S
H3123 C3110 0.961 . S
H3124 C3110 0.961 . S
H3125 C3111 0.958 . S
H3126 C3111 0.961 . S
H3127 C3111 0.960 . S
C3128 C3129 1.391 . S
C3128 C3130 1.394 . S
C3128 H3144 0.931 . S
C3129 C3128 1.391 . S
C3129 C3133 1.376 . S
C3130 C3128 1.394 . S
C3130 C3131 1.369 . S
C3130 C3134 1.531 . S
C3131 C3130 1.369 . S
C3131 C3132 1.410 . S
C3131 C3139 1.503 . S
C3132 C3131 1.410 . S
C3132 C3133 1.392 . S
C3132 C3135 1.511 . S
C3133 C3129 1.376 . S
C3133 C3132 1.392 . S
C3133 H3145 0.929 . S
C3134 C3130 1.531 . S
C3134 H3146 0.960 . S
C3134 H3147 0.962 . S
C3134 H3148 0.960 . S
C3135 C3132 1.511 . S
C3135 H3149 0.961 . S
C3135 H3150 0.961 . S
C3135 H3151 0.961 1_455 S
C3136 C3137 1.370 . S
C3136 C3138 1.363 . S
C3136 H3152 0.931 . S
C3137 C3136 1.370 . S
C3137 C3141 1.408 1_455 S
C3138 C3136 1.363 . S
C3138 C3139 1.370 . S
C3138 C3142 1.524 . S
C3139 C3131 1.503 . S
C3139 C3138 1.370 . S
C3139 C3140 1.403 1_455 S
C3140 C3139 1.403 1_655 S
C3140 C3141 1.404 . S
C3140 C3143 1.539 . S
C3141 C3137 1.408 1_655 S
C3141 C3140 1.404 . S
C3141 H3153 0.930 . S
C3142 C3138 1.524 . S
C3142 H3154 0.956 . S
C3142 H3155 0.961 . S
C3142 H3156 0.961 . S
C3143 C3140 1.539 . S
C3143 H3157 0.958 . S
C3143 H3158 0.961 . S
C3143 H3159 0.960 . S
H3144 C3128 0.931 . S
H3145 C3133 0.929 . S
H3146 C3134 0.960 . S
H3147 C3134 0.962 . S
H3148 C3134 0.960 . S
H3149 C3135 0.961 . S
H3150 C3135 0.961 . S
H3151 C3135 0.961 1_655 S
H3152 C3136 0.931 . S
H3153 C3141 0.930 . S
H3154 C3142 0.956 . S
H3155 C3142 0.961 . S
H3156 C3142 0.961 . S
H3157 C3143 0.958 . S
H3158 C3143 0.961 . S
H3159 C3143 0.960 . S
C3160 C3161 1.391 . S
C3160 C3162 1.394 . S
C3160 H3176 0.931 . S
C3161 C3160 1.391 . S
C3161 C3165 1.376 . S
C3162 C3160 1.394 . S
C3162 C3163 1.369 . S
C3162 C3166 1.531 . S
C3163 C3162 1.369 . S
C3163 C3164 1.410 . S
C3163 C3171 1.503 . S
C3164 C3163 1.410 . S
C3164 C3165 1.392 . S
C3164 C3167 1.511 . S
C3165 C3161 1.376 . S
C3165 C3164 1.392 . S
C3165 H3177 0.929 . S
C3166 C3162 1.531 . S
C3166 H3178 0.960 . S
C3166 H3179 0.962 . S
C3166 H3180 0.960 . S
C3167 C3164 1.511 . S
C3167 H3181 0.961 . S
C3167 H3182 0.961 . S
C3167 H3183 0.961 . S
C3168 C3169 1.370 . S
C3168 C3170 1.363 . S
C3168 H3184 0.931 . S
C3169 C3168 1.370 . S
C3169 C3173 1.408 . S
C3170 C3168 1.363 . S
C3170 C3171 1.370 . S
C3170 C3174 1.524 . S
C3171 C3163 1.503 . S
C3171 C3170 1.370 . S
C3171 C3172 1.403 . S
C3172 C3171 1.403 . S
C3172 C3173 1.404 . S
C3172 C3175 1.539 . S
C3173 C3169 1.408 . S
C3173 C3172 1.404 . S
C3173 H3185 0.930 . S
C3174 C3170 1.524 . S
C3174 H3186 0.956 . S
C3174 H3187 0.961 . S
C3174 H3188 0.961 . S
C3175 C3172 1.539 . S
C3175 H3189 0.958 . S
C3175 H3190 0.961 . S
C3175 H3191 0.960 . S
H3176 C3160 0.931 . S
H3177 C3165 0.929 . S
H3178 C3166 0.960 . S
H3179 C3166 0.962 . S
H3180 C3166 0.960 . S
H3181 C3167 0.961 . S
H3182 C3167 0.961 . S
H3183 C3167 0.961 . S
H3184 C3168 0.931 . S
H3185 C3173 0.930 . S
H3186 C3174 0.956 . S
H3187 C3174 0.961 . S
H3188 C3174 0.961 . S
H3189 C3175 0.958 . S
H3190 C3175 0.961 . S
H3191 C3175 0.960 . S
C3192 C3193 1.391 . S
C3192 C3194 1.394 . S
C3192 H3208 0.931 . S
C3193 C3192 1.391 . S
C3193 C3197 1.376 . S
C3194 C3192 1.394 . S
C3194 C3195 1.369 . S
C3194 C3198 1.531 . S
C3195 C3194 1.369 . S
C3195 C3196 1.410 . S
C3195 C3203 1.503 . S
C3196 C3195 1.410 . S
C3196 C3197 1.392 . S
C3196 C3199 1.511 . S
C3197 C3193 1.376 . S
C3197 C3196 1.392 . S
C3197 H3209 0.929 . S
C3198 C3194 1.531 . S
C3198 H3210 0.960 . S
C3198 H3211 0.962 . S
C3198 H3212 0.960 . S
C3199 C3196 1.511 . S
C3199 H3213 0.961 . S
C3199 H3214 0.961 . S
C3199 H3215 0.961 . S
C3200 C3201 1.370 . S
C3200 C3202 1.363 . S
C3200 H3216 0.931 . S
C3201 C3200 1.370 . S
C3201 C3205 1.408 . S
C3202 C3200 1.363 . S
C3202 C3203 1.370 . S
C3202 C3206 1.524 . S
C3203 C3195 1.503 . S
C3203 C3202 1.370 . S
C3203 C3204 1.403 . S
C3204 C3203 1.403 . S
C3204 C3205 1.404 . S
C3204 C3207 1.539 . S
C3205 C3201 1.408 . S
C3205 C3204 1.404 . S
C3205 H3217 0.930 . S
C3206 C3202 1.524 . S
C3206 H3218 0.956 . S
C3206 H3219 0.961 . S
C3206 H3220 0.961 . S
C3207 C3204 1.539 . S
C3207 H3221 0.958 . S
C3207 H3222 0.961 . S
C3207 H3223 0.960 . S
H3208 C3192 0.931 . S
H3209 C3197 0.929 . S
H3210 C3198 0.960 . S
H3211 C3198 0.962 . S
H3212 C3198 0.960 . S
H3213 C3199 0.961 . S
H3214 C3199 0.961 . S
H3215 C3199 0.961 . S
H3216 C3200 0.931 . S
H3217 C3205 0.930 . S
H3218 C3206 0.956 . S
H3219 C3206 0.961 . S
H3220 C3206 0.961 . S
H3221 C3207 0.958 . S
H3222 C3207 0.961 . S
H3223 C3207 0.960 . S
C3224 C3225 1.391 . S
C3224 C3226 1.394 . S
C3224 H3240 0.931 . S
C3225 C3224 1.391 . S
C3225 C3229 1.376 . S
C3226 C3224 1.394 . S
C3226 C3227 1.369 . S
C3226 C3230 1.531 . S
C3227 C3226 1.369 . S
C3227 C3228 1.410 . S
C3227 C3235 1.503 . S
C3228 C3227 1.410 . S
C3228 C3229 1.392 . S
C3228 C3231 1.511 . S
C3229 C3225 1.376 . S
C3229 C3228 1.392 . S
C3229 H3241 0.929 . S
C3230 C3226 1.531 . S
C3230 H3242 0.960 . S
C3230 H3243 0.962 . S
C3230 H3244 0.960 . S
C3231 C3228 1.511 . S
C3231 H3245 0.961 . S
C3231 H3246 0.961 . S
C3231 H3247 0.961 . S
C3232 C3233 1.370 . S
C3232 C3234 1.363 . S
C3232 H3248 0.931 . S
C3233 C3232 1.370 . S
C3233 C3237 1.408 . S
C3234 C3232 1.363 . S
C3234 C3235 1.370 . S
C3234 C3238 1.524 . S
C3235 C3227 1.503 . S
C3235 C3234 1.370 . S
C3235 C3236 1.403 . S
C3236 C3235 1.403 . S
C3236 C3237 1.404 . S
C3236 C3239 1.539 . S
C3237 C3233 1.408 . S
C3237 C3236 1.404 . S
C3237 H3249 0.930 . S
C3238 C3234 1.524 . S
C3238 H3250 0.956 . S
C3238 H3251 0.961 . S
C3238 H3252 0.961 . S
C3239 C3236 1.539 . S
C3239 H3253 0.958 . S
C3239 H3254 0.961 . S
C3239 H3255 0.960 . S
H3240 C3224 0.931 . S
H3241 C3229 0.929 . S
H3242 C3230 0.960 . S
H3243 C3230 0.962 . S
H3244 C3230 0.960 . S
H3245 C3231 0.961 . S
H3246 C3231 0.961 . S
H3247 C3231 0.961 . S
H3248 C3232 0.931 . S
H3249 C3237 0.930 . S
H3250 C3238 0.956 . S
H3251 C3238 0.961 . S
H3252 C3238 0.961 . S
H3253 C3239 0.958 . S
H3254 C3239 0.961 . S
H3255 C3239 0.960 . S
C3256 C3257 1.391 . S
C3256 C3258 1.394 . S
C3256 H3272 0.931 . S
C3257 C3256 1.391 . S
C3257 C3261 1.376 . S
C3258 C3256 1.394 . S
C3258 C3259 1.369 . S
C3258 C3262 1.531 . S
C3259 C3258 1.369 . S
C3259 C3260 1.410 . S
C3259 C3267 1.503 . S
C3260 C3259 1.410 . S
C3260 C3261 1.392 . S
C3260 C3263 1.511 . S
C3261 C3257 1.376 . S
C3261 C3260 1.392 . S
C3261 H3273 0.929 . S
C3262 C3258 1.531 . S
C3262 H3274 0.960 . S
C3262 H3275 0.962 . S
C3262 H3276 0.960 . S
C3263 C3260 1.511 . S
C3263 H3277 0.961 . S
C3263 H3278 0.961 . S
C3263 H3279 0.961 . S
C3264 C3265 1.370 . S
C3264 C3266 1.363 . S
C3264 H3280 0.931 . S
C3265 C3264 1.370 . S
C3265 C3269 1.408 . S
C3266 C3264 1.363 . S
C3266 C3267 1.370 . S
C3266 C3270 1.524 . S
C3267 C3259 1.503 . S
C3267 C3266 1.370 . S
C3267 C3268 1.403 . S
C3268 C3267 1.403 . S
C3268 C3269 1.404 . S
C3268 C3271 1.539 . S
C3269 C3265 1.408 . S
C3269 C3268 1.404 . S
C3269 H3281 0.930 . S
C3270 C3266 1.524 . S
C3270 H3282 0.956 . S
C3270 H3283 0.961 . S
C3270 H3284 0.961 . S
C3271 C3268 1.539 . S
C3271 H3285 0.958 . S
C3271 H3286 0.961 . S
C3271 H3287 0.960 . S
H3272 C3256 0.931 . S
H3273 C3261 0.929 . S
H3274 C3262 0.960 . S
H3275 C3262 0.962 . S
H3276 C3262 0.960 . S
H3277 C3263 0.961 . S
H3278 C3263 0.961 . S
H3279 C3263 0.961 . S
H3280 C3264 0.931 . S
H3281 C3269 0.930 . S
H3282 C3270 0.956 . S
H3283 C3270 0.961 . S
H3284 C3270 0.961 . S
H3285 C3271 0.958 . S
H3286 C3271 0.961 . S
H3287 C3271 0.960 . S
C3288 C3289 1.391 . S
C3288 C3290 1.394 . S
C3288 H3304 0.931 . S
C3289 C3288 1.391 . S
C3289 C3293 1.376 . S
C3290 C3288 1.394 . S
C3290 C3291 1.369 . S
C3290 C3294 1.531 . S
C3291 C3290 1.369 . S
C3291 C3292 1.410 . S
C3291 C3299 1.503 . S
C3292 C3291 1.410 . S
C3292 C3293 1.392 . S
C3292 C3295 1.511 . S
C3293 C3289 1.376 . S
C3293 C3292 1.392 . S
C3293 H3305 0.929 . S
C3294 C3290 1.531 . S
C3294 H3306 0.960 . S
C3294 H3307 0.962 . S
C3294 H3308 0.960 . S
C3295 C3292 1.511 . S
C3295 H3309 0.961 1_545 S
C3295 H3310 0.908 1_545 S
C3295 H3311 0.961 . S
C3296 C3297 1.369 . S
C3296 C3298 1.358 . S
C3296 H3312 0.937 1_545 S
C3297 C3296 1.369 . S
C3297 C3301 1.408 . S
C3298 C3296 1.358 . S
C3298 C3299 1.370 . S
C3298 C3302 1.524 1_545 S
C3299 C3291 1.503 . S
C3299 C3298 1.370 . S
C3299 C3300 1.403 . S
C3300 C3299 1.403 . S
C3300 C3301 1.404 . S
C3300 C3303 1.539 . S
C3301 C3297 1.408 . S
C3301 C3300 1.404 . S
C3301 H3313 0.930 . S
C3302 C3298 1.524 1_565 S
C3302 H3314 0.956 1_565 S
C3302 H3315 0.961 . S
C3302 H3316 0.961 . S
C3303 C3300 1.539 . S
C3303 H3317 0.958 . S
C3303 H3318 0.961 . S
C3303 H3319 0.960 . S
H3304 C3288 0.931 . S
H3305 C3293 0.929 . S
H3306 C3294 0.960 . S
H3307 C3294 0.962 . S
H3308 C3294 0.960 . S
H3309 C3295 0.961 1_565 S
H3310 C3295 0.908 1_565 S
H3311 C3295 0.961 . S
H3312 C3296 0.937 1_565 S
H3313 C3301 0.930 . S
H3314 C3302 0.956 1_545 S
H3315 C3302 0.961 . S
H3316 C3302 0.961 . S
H3317 C3303 0.958 . S
H3318 C3303 0.961 . S
H3319 C3303 0.960 . S
C3320 C3321 1.391 . S
C3320 C3322 1.394 . S
C3320 H3336 0.931 . S
C3321 C3320 1.391 . S
C3321 C3325 1.376 . S
C3322 C3320 1.394 . S
C3322 C3323 1.369 . S
C3322 C3326 1.531 . S
C3323 C3322 1.369 . S
C3323 C3324 1.410 . S
C3323 C3331 1.503 . S
C3324 C3323 1.410 . S
C3324 C3325 1.392 . S
C3324 C3327 1.511 1_655 S
C3325 C3321 1.376 . S
C3325 C3324 1.392 . S
C3325 H3337 0.929 . S
C3326 C3322 1.531 . S
C3326 H3338 0.960 . S
C3326 H3339 0.962 . S
C3326 H3340 0.960 . S
C3327 C3324 1.511 1_455 S
C3327 H3341 0.961 . S
C3327 H3342 0.961 . S
C3327 H3343 0.961 . S
C3328 C3329 1.370 . S
C3328 C3330 1.363 . S
C3328 H3344 0.931 . S
C3329 C3328 1.370 . S
C3329 C3333 1.408 . S
C3330 C3328 1.363 . S
C3330 C3331 1.370 . S
C3330 C3334 1.524 . S
C3331 C3323 1.503 . S
C3331 C3330 1.370 . S
C3331 C3332 1.403 . S
C3332 C3331 1.403 . S
C3332 C3333 1.404 . S
C3332 C3335 1.539 . S
C3333 C3329 1.408 . S
C3333 C3332 1.404 . S
C3333 H3345 0.930 . S
C3334 C3330 1.524 . S
C3334 H3346 0.956 . S
C3334 H3347 0.961 . S
C3334 H3348 0.961 . S
C3335 C3332 1.539 . S
C3335 H3349 0.958 . S
C3335 H3350 0.961 . S
C3335 H3351 0.960 . S
H3336 C3320 0.931 . S
H3337 C3325 0.929 . S
H3338 C3326 0.960 . S
H3339 C3326 0.962 . S
H3340 C3326 0.960 . S
H3341 C3327 0.961 . S
H3342 C3327 0.961 . S
H3343 C3327 0.961 . S
H3344 C3328 0.931 . S
H3345 C3333 0.930 . S
H3346 C3334 0.956 . S
H3347 C3334 0.961 . S
H3348 C3334 0.961 . S
H3349 C3335 0.958 . S
H3350 C3335 0.961 . S
H3351 C3335 0.960 . S
C3352 C3353 1.391 . S
C3352 C3354 1.394 . S
C3352 H3368 0.931 . S
C3353 C3352 1.391 . S
C3353 C3357 1.376 . S
C3354 C3352 1.394 . S
C3354 C3355 1.369 . S
C3354 C3358 1.531 . S
C3355 C3354 1.369 . S
C3355 C3356 1.410 . S
C3355 C3363 1.503 . S
C3356 C3355 1.410 . S
C3356 C3357 1.392 . S
C3356 C3359 1.511 . S
C3357 C3353 1.376 . S
C3357 C3356 1.392 . S
C3357 H3369 0.929 . S
C3358 C3354 1.531 . S
C3358 H3370 0.960 . S
C3358 H3371 0.962 . S
C3358 H3372 0.960 . S
C3359 C3356 1.511 . S
C3359 H3373 0.961 . S
C3359 H3374 0.961 . S
C3359 H3375 0.961 . S
C3360 C3361 1.370 . S
C3360 C3362 1.363 . S
C3360 H3376 0.931 . S
C3361 C3360 1.370 . S
C3361 C3365 1.408 . S
C3362 C3360 1.363 . S
C3362 C3363 1.370 . S
C3362 C3366 1.524 . S
C3363 C3355 1.503 . S
C3363 C3362 1.370 . S
C3363 C3364 1.403 . S
C3364 C3363 1.403 . S
C3364 C3365 1.404 . S
C3364 C3367 1.539 . S
C3365 C3361 1.408 . S
C3365 C3364 1.404 . S
C3365 H3377 0.930 . S
C3366 C3362 1.524 . S
C3366 H3378 0.956 . S
C3366 H3379 0.961 . S
C3366 H3380 0.961 . S
C3367 C3364 1.539 . S
C3367 H3381 0.958 . S
C3367 H3382 0.961 . S
C3367 H3383 0.960 . S
H3368 C3352 0.931 . S
H3369 C3357 0.929 . S
H3370 C3358 0.960 . S
H3371 C3358 0.962 . S
H3372 C3358 0.960 . S
H3373 C3359 0.961 . S
H3374 C3359 0.961 . S
H3375 C3359 0.961 . S
H3376 C3360 0.931 . S
H3377 C3365 0.930 . S
H3378 C3366 0.956 . S
H3379 C3366 0.961 . S
H3380 C3366 0.961 . S
H3381 C3367 0.958 . S
H3382 C3367 0.961 . S
H3383 C3367 0.960 . S
C3384 C3385 1.391 . S
C3384 C3386 1.394 . S
C3384 H3400 0.931 . S
C3385 C3384 1.391 . S
C3385 C3389 1.376 . S
C3386 C3384 1.394 . S
C3386 C3387 1.369 . S
C3386 C3390 1.531 . S
C3387 C3386 1.369 . S
C3387 C3388 1.410 . S
C3387 C3395 1.503 . S
C3388 C3387 1.410 . S
C3388 C3389 1.392 . S
C3388 C3391 1.511 . S
C3389 C3385 1.376 . S
C3389 C3388 1.392 . S
C3389 H3401 0.929 . S
C3390 C3386 1.531 . S
C3390 H3402 0.960 . S
C3390 H3403 0.962 . S
C3390 H3404 0.960 . S
C3391 C3388 1.511 . S
C3391 H3405 0.961 . S
C3391 H3406 0.961 . S
C3391 H3407 0.961 . S
C3392 C3393 1.370 . S
C3392 C3394 1.363 . S
C3392 H3408 0.931 . S
C3393 C3392 1.370 . S
C3393 C3397 1.408 . S
C3394 C3392 1.363 . S
C3394 C3395 1.370 . S
C3394 C3398 1.524 . S
C3395 C3387 1.503 . S
C3395 C3394 1.370 . S
C3395 C3396 1.403 . S
C3396 C3395 1.403 . S
C3396 C3397 1.404 . S
C3396 C3399 1.539 . S
C3397 C3393 1.408 . S
C3397 C3396 1.404 . S
C3397 H3409 0.930 . S
C3398 C3394 1.524 . S
C3398 H3410 0.956 . S
C3398 H3411 0.961 . S
C3398 H3412 0.961 . S
C3399 C3396 1.539 . S
C3399 H3413 0.958 . S
C3399 H3414 0.961 . S
C3399 H3415 0.960 . S
H3400 C3384 0.931 . S
H3401 C3389 0.929 . S
H3402 C3390 0.960 . S
H3403 C3390 0.962 . S
H3404 C3390 0.960 . S
H3405 C3391 0.961 . S
H3406 C3391 0.961 . S
H3407 C3391 0.961 . S
H3408 C3392 0.931 . S
H3409 C3397 0.930 . S
H3410 C3398 0.956 . S
H3411 C3398 0.961 . S
H3412 C3398 0.961 . S
H3413 C3399 0.958 . S
H3414 C3399 0.961 . S
H3415 C3399 0.960 . S
C3416 C3417 1.391 . S
C3416 C3418 1.394 . S
C3416 H3432 0.931 . S
C3417 C3416 1.391 . S
C3417 C3421 1.376 . S
C3418 C3416 1.394 . S
C3418 C3419 1.369 . S
C3418 C3422 1.531 . S
C3419 C3418 1.369 . S
C3419 C3420 1.410 . S
C3419 C3427 1.503 . S
C3420 C3419 1.410 . S
C3420 C3421 1.392 . S
C3420 C3423 1.511 . S
C3421 C3417 1.376 . S
C3421 C3420 1.392 . S
C3421 H3433 0.929 . S
C3422 C3418 1.531 . S
C3422 H3434 0.960 . S
C3422 H3435 0.962 . S
C3422 H3436 0.960 . S
C3423 C3420 1.511 . S
C3423 H3437 0.961 . S
C3423 H3438 0.961 . S
C3423 H3439 0.961 . S
C3424 C3425 1.370 . S
C3424 C3426 1.363 . S
C3424 H3440 0.931 . S
C3425 C3424 1.370 . S
C3425 C3429 1.408 . S
C3426 C3424 1.363 . S
C3426 C3427 1.370 . S
C3426 C3430 1.524 . S
C3427 C3419 1.503 . S
C3427 C3426 1.370 . S
C3427 C3428 1.403 . S
C3428 C3427 1.403 . S
C3428 C3429 1.404 . S
C3428 C3431 1.539 . S
C3429 C3425 1.408 . S
C3429 C3428 1.404 . S
C3429 H3441 0.930 . S
C3430 C3426 1.524 . S
C3430 H3442 0.956 . S
C3430 H3443 0.961 . S
C3430 H3444 0.961 . S
C3431 C3428 1.539 . S
C3431 H3445 0.958 . S
C3431 H3446 0.961 . S
C3431 H3447 0.960 . S
H3432 C3416 0.931 . S
H3433 C3421 0.929 . S
H3434 C3422 0.960 . S
H3435 C3422 0.962 . S
H3436 C3422 0.960 . S
H3437 C3423 0.961 . S
H3438 C3423 0.961 . S
H3439 C3423 0.961 . S
H3440 C3424 0.931 . S
H3441 C3429 0.930 . S
H3442 C3430 0.956 . S
H3443 C3430 0.961 . S
H3444 C3430 0.961 . S
H3445 C3431 0.958 . S
H3446 C3431 0.961 . S
H3447 C3431 0.960 . S
C3448 C3449 1.391 . S
C3448 C3450 1.394 . S
C3448 H3464 0.931 . S
C3449 C3448 1.391 . S
C3449 C3453 1.376 . S
C3450 C3448 1.394 . S
C3450 C3451 1.369 . S
C3450 C3454 1.531 . S
C3451 C3450 1.369 . S
C3451 C3452 1.410 . S
C3451 C3459 1.503 . S
C3452 C3451 1.410 . S
C3452 C3453 1.392 . S
C3452 C3455 1.511 . S
C3453 C3449 1.376 . S
C3453 C3452 1.392 . S
C3453 H3465 0.929 . S
C3454 C3450 1.531 . S
C3454 H3466 0.960 . S
C3454 H3467 0.962 . S
C3454 H3468 0.960 . S
C3455 C3452 1.511 . S
C3455 H3469 0.961 . S
C3455 H3470 0.961 . S
C3455 H3471 0.961 . S
C3456 C3457 1.370 . S
C3456 C3458 1.363 . S
C3456 H3472 0.931 . S
C3457 C3456 1.370 . S
C3457 C3461 1.408 . S
C3458 C3456 1.363 . S
C3458 C3459 1.370 . S
C3458 C3462 1.524 . S
C3459 C3451 1.503 . S
C3459 C3458 1.370 . S
C3459 C3460 1.403 . S
C3460 C3459 1.403 . S
C3460 C3461 1.404 . S
C3460 C3463 1.539 . S
C3461 C3457 1.408 . S
C3461 C3460 1.404 . S
C3461 H3473 0.930 . S
C3462 C3458 1.524 . S
C3462 H3474 0.956 . S
C3462 H3475 0.961 . S
C3462 H3476 0.961 . S
C3463 C3460 1.539 . S
C3463 H3477 0.958 . S
C3463 H3478 0.961 . S
C3463 H3479 0.960 . S
H3464 C3448 0.931 . S
H3465 C3453 0.929 . S
H3466 C3454 0.960 . S
H3467 C3454 0.962 . S
H3468 C3454 0.960 . S
H3469 C3455 0.961 . S
H3470 C3455 0.961 . S
H3471 C3455 0.961 . S
H3472 C3456 0.931 . S
H3473 C3461 0.930 . S
H3474 C3462 0.956 . S
H3475 C3462 0.961 . S
H3476 C3462 0.961 . S
H3477 C3463 0.958 . S
H3478 C3463 0.961 . S
H3479 C3463 0.960 . S
C3480 C3481 1.391 . S
C3480 C3482 1.394 . S
C3480 H3496 0.931 . S
C3481 C3480 1.391 . S
C3481 C3485 1.376 . S
C3482 C3480 1.394 . S
C3482 C3483 1.369 . S
C3482 C3486 1.531 . S
C3483 C3482 1.369 . S
C3483 C3484 1.410 . S
C3483 C3491 1.503 . S
C3484 C3483 1.410 . S
C3484 C3485 1.392 . S
C3484 C3487 1.511 . S
C3485 C3481 1.376 . S
C3485 C3484 1.392 . S
C3485 H3497 0.929 . S
C3486 C3482 1.531 . S
C3486 H3498 0.960 . S
C3486 H3499 0.962 . S
C3486 H3500 0.960 . S
C3487 C3484 1.511 . S
C3487 H3501 0.961 . S
C3487 H3502 0.961 . S
C3487 H3503 0.961 . S
C3488 C3489 1.370 . S
C3488 C3490 1.363 . S
C3488 H3504 0.931 . S
C3489 C3488 1.370 . S
C3489 C3493 1.408 . S
C3490 C3488 1.363 . S
C3490 C3491 1.370 . S
C3490 C3494 1.524 . S
C3491 C3483 1.503 . S
C3491 C3490 1.370 . S
C3491 C3492 1.403 . S
C3492 C3491 1.403 . S
C3492 C3493 1.404 . S
C3492 C3495 1.539 . S
C3493 C3489 1.408 . S
C3493 C3492 1.404 . S
C3493 H3505 0.930 . S
C3494 C3490 1.524 . S
C3494 H3506 0.956 . S
C3494 H3507 0.961 . S
C3494 H3508 0.961 . S
C3495 C3492 1.539 . S
C3495 H3509 0.958 . S
C3495 H3510 0.961 . S
C3495 H3511 0.960 . S
H3496 C3480 0.931 . S
H3497 C3485 0.929 . S
H3498 C3486 0.960 . S
H3499 C3486 0.962 . S
H3500 C3486 0.960 . S
H3501 C3487 0.961 . S
H3502 C3487 0.961 . S
H3503 C3487 0.961 . S
H3504 C3488 0.931 . S
H3505 C3493 0.930 . S
H3506 C3494 0.956 . S
H3507 C3494 0.961 . S
H3508 C3494 0.961 . S
H3509 C3495 0.958 . S
H3510 C3495 0.961 . S
H3511 C3495 0.960 . S
C3512 C3513 1.391 . S
C3512 C3514 1.394 . S
C3512 H3528 0.931 . S
C3513 C3512 1.391 . S
C3513 C3517 1.376 . S
C3514 C3512 1.394 . S
C3514 C3515 1.369 . S
C3514 C3518 1.531 . S
C3515 C3514 1.369 . S
C3515 C3516 1.410 . S
C3515 C3523 1.503 . S
C3516 C3515 1.410 . S
C3516 C3517 1.392 . S
C3516 C3519 1.511 . S
C3517 C3513 1.376 . S
C3517 C3516 1.392 . S
C3517 H3529 0.929 . S
C3518 C3514 1.531 . S
C3518 H3530 0.960 . S
C3518 H3531 0.962 . S
C3518 H3532 0.960 . S
C3519 C3516 1.511 . S
C3519 H3533 0.961 . S
C3519 H3534 0.961 . S
C3519 H3535 0.961 . S
C3520 C3521 1.370 . S
C3520 C3522 1.363 . S
C3520 H3536 0.931 . S
C3521 C3520 1.370 . S
C3521 C3525 1.408 . S
C3522 C3520 1.363 . S
C3522 C3523 1.370 . S
C3522 C3526 1.524 . S
C3523 C3515 1.503 . S
C3523 C3522 1.370 . S
C3523 C3524 1.403 . S
C3524 C3523 1.403 . S
C3524 C3525 1.404 . S
C3524 C3527 1.539 . S
C3525 C3521 1.408 . S
C3525 C3524 1.404 . S
C3525 H3537 0.930 . S
C3526 C3522 1.524 . S
C3526 H3538 0.956 . S
C3526 H3539 0.961 . S
C3526 H3540 0.961 . S
C3527 C3524 1.539 . S
C3527 H3541 0.958 . S
C3527 H3542 0.961 . S
C3527 H3543 0.960 . S
H3528 C3512 0.931 . S
H3529 C3517 0.929 . S
H3530 C3518 0.960 . S
H3531 C3518 0.962 . S
H3532 C3518 0.960 . S
H3533 C3519 0.961 . S
H3534 C3519 0.961 . S
H3535 C3519 0.961 . S
H3536 C3520 0.931 . S
H3537 C3525 0.930 . S
H3538 C3526 0.956 . S
H3539 C3526 0.961 . S
H3540 C3526 0.961 . S
H3541 C3527 0.958 . S
H3542 C3527 0.961 . S
H3543 C3527 0.960 . S
C3544 C3545 1.391 . S
C3544 C3546 1.394 . S
C3544 H3560 0.931 . S
C3545 C3544 1.391 . S
C3545 C3549 1.376 . S
C3546 C3544 1.394 . S
C3546 C3547 1.369 . S
C3546 C3550 1.531 . S
C3547 C3546 1.369 . S
C3547 C3548 1.410 . S
C3547 C3555 1.503 . S
C3548 C3547 1.410 . S
C3548 C3549 1.392 . S
C3548 C3551 1.511 . S
C3549 C3545 1.376 . S
C3549 C3548 1.392 . S
C3549 H3561 0.929 . S
C3550 C3546 1.531 . S
C3550 H3562 0.960 . S
C3550 H3563 0.962 . S
C3550 H3564 0.960 . S
C3551 C3548 1.511 . S
C3551 H3565 0.961 . S
C3551 H3566 0.961 . S
C3551 H3567 0.961 . S
C3552 C3553 1.370 . S
C3552 C3554 1.363 . S
C3552 H3568 0.931 . S
C3553 C3552 1.370 . S
C3553 C3557 1.408 . S
C3554 C3552 1.363 . S
C3554 C3555 1.370 . S
C3554 C3558 1.524 . S
C3555 C3547 1.503 . S
C3555 C3554 1.370 . S
C3555 C3556 1.403 . S
C3556 C3555 1.403 . S
C3556 C3557 1.404 . S
C3556 C3559 1.539 . S
C3557 C3553 1.408 . S
C3557 C3556 1.404 . S
C3557 H3569 0.930 . S
C3558 C3554 1.524 . S
C3558 H3570 0.956 . S
C3558 H3571 0.961 . S
C3558 H3572 0.961 . S
C3559 C3556 1.539 . S
C3559 H3573 0.958 . S
C3559 H3574 0.961 . S
C3559 H3575 0.960 . S
H3560 C3544 0.931 . S
H3561 C3549 0.929 . S
H3562 C3550 0.960 . S
H3563 C3550 0.962 . S
H3564 C3550 0.960 . S
H3565 C3551 0.961 . S
H3566 C3551 0.961 . S
H3567 C3551 0.961 . S
H3568 C3552 0.931 . S
H3569 C3557 0.930 . S
H3570 C3558 0.956 . S
H3571 C3558 0.961 . S
H3572 C3558 0.961 . S
H3573 C3559 0.958 . S
H3574 C3559 0.961 . S
H3575 C3559 0.960 . S
C3576 C3577 1.391 . S
C3576 C3578 1.394 . S
C3576 H3592 0.931 . S
C3577 C3576 1.391 . S
C3577 C3581 1.376 . S
C3578 C3576 1.394 . S
C3578 C3579 1.369 . S
C3578 C3582 1.531 1_655 S
C3579 C3578 1.369 . S
C3579 C3580 1.410 . S
C3579 C3587 1.503 . S
C3580 C3579 1.410 . S
C3580 C3581 1.392 . S
C3580 C3583 1.511 . S
C3581 C3577 1.376 . S
C3581 C3580 1.392 . S
C3581 H3593 0.929 . S
C3582 C3578 1.531 1_455 S
C3582 H3594 0.960 . S
C3582 H3595 0.962 1_455 S
C3582 H3596 0.960 . S
C3583 C3580 1.511 . S
C3583 H3597 0.961 . S
C3583 H3598 0.961 . S
C3583 H3599 0.961 . S
C3584 C3585 1.370 . S
C3584 C3586 1.363 . S
C3584 H3600 0.931 . S
C3585 C3584 1.370 . S
C3585 C3589 1.408 1_655 S
C3586 C3584 1.363 . S
C3586 C3587 1.370 . S
C3586 C3590 1.524 . S
C3587 C3579 1.503 . S
C3587 C3586 1.370 . S
C3587 C3588 1.403 1_655 S
C3588 C3587 1.403 1_455 S
C3588 C3589 1.404 . S
C3588 C3591 1.539 . S
C3589 C3585 1.408 1_455 S
C3589 C3588 1.404 . S
C3589 H3601 0.930 . S
C3590 C3586 1.524 . S
C3590 H3602 0.956 . S
C3590 H3603 0.961 . S
C3590 H3604 0.961 . S
C3591 C3588 1.539 . S
C3591 H3605 0.958 . S
C3591 H3606 0.961 . S
C3591 H3607 0.960 . S
H3592 C3576 0.931 . S
H3593 C3581 0.929 . S
H3594 C3582 0.960 . S
H3595 C3582 0.962 1_655 S
H3596 C3582 0.960 . S
H3597 C3583 0.961 . S
H3598 C3583 0.961 . S
H3599 C3583 0.961 . S
H3600 C3584 0.931 . S
H3601 C3589 0.930 . S
H3602 C3590 0.956 . S
H3603 C3590 0.961 . S
H3604 C3590 0.961 . S
H3605 C3591 0.958 . S
H3606 C3591 0.961 . S
H3607 C3591 0.960 . S
C3608 C3609 1.391 . S
C3608 C3610 1.394 . S
C3608 H3624 0.931 . S
C3609 C3608 1.391 . S
C3609 C3613 1.376 . S
C3610 C3608 1.394 . S
C3610 C3611 1.369 . S
C3610 C3614 1.531 . S
C3611 C3610 1.369 . S
C3611 C3612 1.410 . S
C3611 C3619 1.503 . S
C3612 C3611 1.410 . S
C3612 C3613 1.392 . S
C3612 C3615 1.511 . S
C3613 C3609 1.376 . S
C3613 C3612 1.392 . S
C3613 H3625 0.929 . S
C3614 C3610 1.531 . S
C3614 H3626 0.960 . S
C3614 H3627 0.962 . S
C3614 H3628 0.960 . S
C3615 C3612 1.511 . S
C3615 H3629 0.961 . S
C3615 H3630 0.961 . S
C3615 H3631 0.961 . S
C3616 C3617 1.370 . S
C3616 C3618 1.363 . S
C3616 H3632 0.931 . S
C3617 C3616 1.370 . S
C3617 C3621 1.408 . S
C3618 C3616 1.363 . S
C3618 C3619 1.370 . S
C3618 C3622 1.524 . S
C3619 C3611 1.503 . S
C3619 C3618 1.370 . S
C3619 C3620 1.403 . S
C3620 C3619 1.403 . S
C3620 C3621 1.404 . S
C3620 C3623 1.539 . S
C3621 C3617 1.408 . S
C3621 C3620 1.404 . S
C3621 H3633 0.930 . S
C3622 C3618 1.524 . S
C3622 H3634 0.956 . S
C3622 H3635 0.961 . S
C3622 H3636 0.961 . S
C3623 C3620 1.539 . S
C3623 H3637 0.958 . S
C3623 H3638 0.961 . S
C3623 H3639 0.960 . S
H3624 C3608 0.931 . S
H3625 C3613 0.929 . S
H3626 C3614 0.960 . S
H3627 C3614 0.962 . S
H3628 C3614 0.960 . S
H3629 C3615 0.961 . S
H3630 C3615 0.961 . S
H3631 C3615 0.961 . S
H3632 C3616 0.931 . S
H3633 C3621 0.930 . S
H3634 C3622 0.956 . S
H3635 C3622 0.961 . S
H3636 C3622 0.961 . S
H3637 C3623 0.958 . S
H3638 C3623 0.961 . S
H3639 C3623 0.960 . S
C3640 C3641 1.391 . S
C3640 C3642 1.394 . S
C3640 H3656 0.931 . S
C3641 C3640 1.391 . S
C3641 C3645 1.376 . S
C3642 C3640 1.394 . S
C3642 C3643 1.369 . S
C3642 C3646 1.531 . S
C3643 C3642 1.369 . S
C3643 C3644 1.410 . S
C3643 C3651 1.503 . S
C3644 C3643 1.410 . S
C3644 C3645 1.392 . S
C3644 C3647 1.511 . S
C3645 C3641 1.376 . S
C3645 C3644 1.392 . S
C3645 H3657 0.929 . S
C3646 C3642 1.531 . S
C3646 H3658 0.960 . S
C3646 H3659 0.962 . S
C3646 H3660 0.960 . S
C3647 C3644 1.511 . S
C3647 H3661 0.961 . S
C3647 H3662 0.961 . S
C3647 H3663 0.961 . S
C3648 C3649 1.370 1_565 S
C3648 C3650 1.363 1_565 S
C3648 H3664 0.931 . S
C3649 C3648 1.370 1_545 S
C3649 C3653 1.408 . S
C3650 C3648 1.363 1_545 S
C3650 C3651 1.370 . S
C3650 C3654 1.524 1_545 S
C3651 C3643 1.503 . S
C3651 C3650 1.370 . S
C3651 C3652 1.403 . S
C3652 C3651 1.403 . S
C3652 C3653 1.404 . S
C3652 C3655 1.539 . S
C3653 C3649 1.408 . S
C3653 C3652 1.404 . S
C3653 H3665 0.930 . S
C3654 C3650 1.524 1_565 S
C3654 H3666 0.956 . S
C3654 H3667 0.961 . S
C3654 H3668 0.961 . S
C3655 C3652 1.539 . S
C3655 H3669 0.958 . S
C3655 H3670 0.961 . S
C3655 H3671 0.960 . S
H3656 C3640 0.931 . S
H3657 C3645 0.929 . S
H3658 C3646 0.960 . S
H3659 C3646 0.962 . S
H3660 C3646 0.960 . S
H3661 C3647 0.961 . S
H3662 C3647 0.961 . S
H3663 C3647 0.961 . S
H3664 C3648 0.931 . S
H3665 C3653 0.930 . S
H3666 C3654 0.956 . S
H3667 C3654 0.961 . S
H3668 C3654 0.961 . S
H3669 C3655 0.958 . S
H3670 C3655 0.961 . S
H3671 C3655 0.960 . S
C1369 C4 1.558 . S
C1377 C857 1.577 . S
C1401 C26 1.594 . S
C1409 C901 1.540 . S
C1441 C981 1.482 . S
C1433 C32 1.540 . S
C1465 C40 1.529 . S
C1473 C1025 1.460 . S
C1497 C12 1.555 . S
C1505 C1105 1.496 . S
C1529 C18 1.550 . S
C1537 C1167 1.532 . S
C1561 C46 1.546 . S
C1569 C1087 1.554 . S
C1601 C1149 1.499 . S
C1593 C68 1.589 . S
C1633 C1043 1.530 . S
C1625 C74 1.540 . S
C1657 C82 1.515 . S
C1665 C963 1.451 . S
C1697 C839 1.507 . S
C1689 C54 1.582 . S
C1721 C60 1.531 . S
C1729 C919 1.558 . S
C1753 C88 1.596 . S
C1761 C1229 1.616 . S
C1785 C110 1.607 . S
C1793 C1273 1.565 . S
C1825 C1353 1.558 . S
C1817 C116 1.594 . S
C1849 C124 1.535 . S
C1857 C299 1.482 . S
C1881 C96 1.584 . S
C1889 C343 1.520 . S
C1913 C102 1.574 . S
C1921 C423 1.523 . S
C1945 C130 1.606 . S
C1953 C361 1.604 . S
C1977 C152 1.635 . S
C1985 C405 1.550 . S
C2017 C281 1.554 . S
C2009 C158 1.605 . S
C2049 C1335 1.488 . S
C2041 C166 1.542 . S
C2081 C1211 1.518 . S
C2073 C138 1.563 . S
C2113 C1291 1.575 . S
C2105 C144 1.600 . S
C2137 C172 1.638 . S
C2145 C485 1.581 . S
C2169 C194 1.623 . S
C2177 C547 1.548 . S
C2201 C200 1.572 . S
C2209 C591 1.590 . S
C2233 C208 1.536 . S
C2241 C653 1.510 . S
C2273 C715 1.524 . S
C2265 C180 1.590 . S
C2305 C795 1.546 . S
C2297 C186 1.581 . S
C2337 C733 1.638 . S
C2329 C214 1.615 . S
C2369 C777 1.543 . S
C2361 C236 1.608 . S
C2393 C242 1.599 . S
C2401 C671 1.571 . S
C2433 C609 1.483 . S
C2425 C250 1.531 . S
C2457 C222 1.574 . S
C2465 C467 1.529 . S
C2497 C529 1.556 . S
C2489 C228 1.537 . S
C2529 C305 1.342 . S
C2521 C5 1.235 . S
C2553 C25 1.382 . S
C2561 C349 1.321 . S
C2593 C429 1.356 . S
C2585 C33 1.179 . S
C2625 C491 1.243 . S
C2617 C39 1.295 1_556 S
C2657 C553 1.284 . S
C2649 C11 1.387 . S
C2689 C597 1.301 . S
C2681 C19 1.202 1_556 S
C2713 C47 1.140 1_556 S
C2721 C615 1.417 . S
C2745 C67 1.382 1_556 S
C2753 C473 1.307 . S
C2777 C75 1.156 . S
C2785 C535 1.343 . S
C2809 C81 1.321 . S
C2817 C367 1.254 . S
C2849 C411 1.258 . S
C2841 C53 1.344 . S
C2873 C61 1.058 . S
C2881 C287 1.314 . S
C2913 C659 1.370 . S
C2905 C89 1.131 . S
C2937 C109 1.409 . S
C2945 C721 1.338 . S
C2969 C117 1.177 . S
C2977 C801 1.342 . S
C3009 C863 1.242 . S
C3001 C123 1.287 . S
C3033 C95 1.352 . S
C3041 C907 1.278 . S
C3065 C103 1.160 . S
C3073 C987 1.219 . S
C3097 C131 1.038 . S
C3105 C969 1.261 . S
C3129 C151 1.351 . S
C3137 C845 1.272 . S
C3169 C925 1.317 . S
C3161 C159 1.178 . S
C3193 C165 1.344 . S
C3201 C739 1.297 . S
C3225 C137 1.378 1_545 S
C3233 C783 1.337 . S
C3265 C677 1.349 . S
C3257 C145 1.140 . S
C3297 C1031 1.280 . S
C3289 C173 1.187 . S
C3321 C193 1.304 . S
C3329 C1111 1.224 . S
C3353 C201 1.070 . S
C3361 C1173 1.325 . S
C3393 C1235 1.268 . S
C3385 C207 1.333 . S
C3425 C1279 1.363 . S
C3417 C179 1.419 1_565 S
C3449 C187 1.095 . S
C3457 C1359 1.342 . S
C3481 C215 1.126 . S
C3489 C1341 1.373 . S
C3513 C235 1.363 1_565 S
C3521 C1217 1.342 . S
C3553 C1297 1.337 . S
C3545 C243 1.237 . S
C3585 C1093 1.196 . S
C3577 C249 1.264 . S
C3617 C1155 1.287 . S
C3609 C221 1.356 . S
C3641 C229 1.100 . S
C3649 C1049 1.272 . S
