# Generated by pormake.
# Topology zzz, (3,6)-cn, num edge types: 1
# Building blocks:
#     Node 0, Type 0, BuildingBlock: VETTIZ_charged_linker_0, # of connection points: 3
#     Node 1, Type 0, BuildingBlock: VETTIZ_charged_linker_0, # of connection points: 3
#     Node 2, Type 0, BuildingBlock: VETTIZ_charged_linker_0, # of connection points: 3
#     Node 3, Type 0, BuildingBlock: VETTIZ_charged_linker_0, # of connection points: 3
#     Node 4, Type 0, BuildingBlock: VETTIZ_charged_linker_0, # of connection points: 3
#     Node 5, Type 0, BuildingBlock: VETTIZ_charged_linker_0, # of connection points: 3
#     Node 6, Type 0, BuildingBlock: VETTIZ_charged_linker_0, # of connection points: 3
#     Node 7, Type 0, BuildingBlock: VETTIZ_charged_linker_0, # of connection points: 3
#     Node 8, Type 1, BuildingBlock: JUFBIX_clean_sbu_0, # of connection points: 6
#     Node 9, Type 1, BuildingBlock: JUFBIX_clean_sbu_0, # of connection points: 6
#     Node 10, Type 1, BuildingBlock: JUFBIX_clean_sbu_0, # of connection points: 6
#     Node 11, Type 1, BuildingBlock: JUFBIX_clean_sbu_0, # of connection points: 6
#     Edge 12, Type (0, 1), BuildingBlock: XIVTED_clean_linker_0, # of connection points: 2
#     Edge 13, Type (0, 1), BuildingBlock: XIVTED_clean_linker_0, # of connection points: 2
#     Edge 14, Type (0, 1), BuildingBlock: XIVTED_clean_linker_0, # of connection points: 2
#     Edge 15, Type (0, 1), BuildingBlock: XIVTED_clean_linker_0, # of connection points: 2
#     Edge 16, Type (0, 1), BuildingBlock: XIVTED_clean_linker_0, # of connection points: 2
#     Edge 17, Type (0, 1), BuildingBlock: XIVTED_clean_linker_0, # of connection points: 2
#     Edge 18, Type (0, 1), BuildingBlock: XIVTED_clean_linker_0, # of connection points: 2
#     Edge 19, Type (0, 1), BuildingBlock: XIVTED_clean_linker_0, # of connection points: 2
#     Edge 20, Type (0, 1), BuildingBlock: XIVTED_clean_linker_0, # of connection points: 2
#     Edge 21, Type (0, 1), BuildingBlock: XIVTED_clean_linker_0, # of connection points: 2
#     Edge 22, Type (0, 1), BuildingBlock: XIVTED_clean_linker_0, # of connection points: 2
#     Edge 23, Type (0, 1), BuildingBlock: XIVTED_clean_linker_0, # of connection points: 2
#     Edge 24, Type (0, 1), BuildingBlock: XIVTED_clean_linker_0, # of connection points: 2
#     Edge 25, Type (0, 1), BuildingBlock: XIVTED_clean_linker_0, # of connection points: 2
#     Edge 26, Type (0, 1), BuildingBlock: XIVTED_clean_linker_0, # of connection points: 2
#     Edge 27, Type (0, 1), BuildingBlock: XIVTED_clean_linker_0, # of connection points: 2
#     Edge 28, Type (0, 1), BuildingBlock: XIVTED_clean_linker_0, # of connection points: 2
#     Edge 29, Type (0, 1), BuildingBlock: XIVTED_clean_linker_0, # of connection points: 2
#     Edge 30, Type (0, 1), BuildingBlock: XIVTED_clean_linker_0, # of connection points: 2
#     Edge 31, Type (0, 1), BuildingBlock: XIVTED_clean_linker_0, # of connection points: 2
#     Edge 32, Type (0, 1), BuildingBlock: XIVTED_clean_linker_0, # of connection points: 2
#     Edge 33, Type (0, 1), BuildingBlock: XIVTED_clean_linker_0, # of connection points: 2
#     Edge 34, Type (0, 1), BuildingBlock: XIVTED_clean_linker_0, # of connection points: 2
#     Edge 35, Type (0, 1), BuildingBlock: XIVTED_clean_linker_0, # of connection points: 2
# Relax obj value: 0.297
# Max RMSD: 0.229
# Mean RMSD: 0.191
data_MOF--net-zzz--node1-JUFBIX_clean_sbu_0--node2-VETTIZ_charged_linker_0--edge1-XIVTED_clean_linker_0
_symmetry_space_group_name_H-M    P1
_symmetry_Int_Tables_number       1
_symmetry_cell_setting            triclinic
loop_
_symmetry_equiv_pos_as_xyz
'x, y, z'
_cell_length_a     57.018111
_cell_length_b     58.56697
_cell_length_c     22.73893
_cell_angle_alpha  82.715061
_cell_angle_beta   90.194152
_cell_angle_gamma 86.495791
loop_
_atom_site_label
_atom_site_type_symbol
_atom_site_fract_x
_atom_site_fract_y
_atom_site_fract_z
_atom_type_partial_charge
C0 C 0.79802 0.55935 0.46314 0.0
C1 C 0.82015 0.56818 0.47268 0.0
C2 C 0.83081 0.58144 0.42523 0.0
C3 C 0.80187 0.5711 0.35808 0.0
C4 C 0.7887 0.56194 0.40483 0.0
C5 C 0.76484 0.55616 0.38264 0.0
H6 H 0.70493 0.52807 0.14219 0.0
C7 C 0.79117 0.56649 0.30281 0.0
C8 C 0.76868 0.55867 0.31548 0.0
H9 H 0.6738 0.5399 0.30911 0.0
H10 H 0.71228 0.54872 0.34622 0.0
H11 H 0.73464 0.57177 0.1245 0.0
H12 H 0.74875 0.50092 0.19305 0.0
H13 H 0.77644 0.50971 0.16985 0.0
H14 H 0.75279 0.51075 0.11629 0.0
H15 H 0.73589 0.54815 0.08113 0.0
H16 H 0.76178 0.5628 0.09529 0.0
C17 C 0.74646 0.57454 0.39999 0.0
C18 C 0.75947 0.53141 0.40803 0.0
C19 C 0.84834 0.54868 0.14264 0.0
C20 C 0.84621 0.53611 0.09432 0.0
C21 C 0.82356 0.53145 0.07582 0.0
C22 C 0.80366 0.53807 0.1068 0.0
C23 C 0.80636 0.54874 0.15814 0.0
C24 C 0.82838 0.5542 0.1748 0.0
C25 C 0.82825 0.56409 0.2327 0.0
C26 C 0.8023 0.56302 0.24871 0.0
C27 C 0.78981 0.55391 0.20505 0.0
C28 C 0.83618 0.58916 0.22187 0.0
C29 C 0.84441 0.54785 0.27682 0.0
C30 C 0.70629 0.53258 0.18682 0.0
C31 C 0.68651 0.53319 0.22285 0.0
C32 C 0.68892 0.53939 0.28051 0.0
C33 C 0.71109 0.54472 0.30163 0.0
C34 C 0.73069 0.5444 0.26402 0.0
C35 C 0.72781 0.53843 0.20761 0.0
C36 C 0.74986 0.5391 0.17241 0.0
C37 C 0.7662 0.54841 0.21468 0.0
C38 C 0.75537 0.55092 0.26929 0.0
C39 C 0.74544 0.55621 0.11501 0.0
C40 C 0.7574 0.51395 0.1619 0.0
H41 H 0.83051 0.59285 0.33278 0.0
H42 H 0.78876 0.55028 0.49953 0.0
H43 H 0.77386 0.51896 0.39735 0.0
H44 H 0.74295 0.52624 0.38951 0.0
H45 H 0.75773 0.52983 0.45699 0.0
H46 H 0.75351 0.59198 0.39363 0.0
H47 H 0.74159 0.5707 0.44733 0.0
H48 H 0.73043 0.57605 0.37228 0.0
H49 H 0.86532 0.55345 0.15667 0.0
H50 H 0.82113 0.52184 0.03886 0.0
H51 H 0.78701 0.53385 0.09059 0.0
H52 H 0.8396 0.5949 0.17431 0.0
H53 H 0.85271 0.59095 0.24643 0.0
H54 H 0.82247 0.60172 0.23533 0.0
H55 H 0.83801 0.53015 0.28302 0.0
H56 H 0.84562 0.55362 0.32081 0.0
H57 H 0.86271 0.54675 0.26038 0.0
H58 H 0.84734 0.58906 0.4315 0.0
C59 C 0.82153 0.58319 0.368 0.0
C60 C 0.09604 0.83236 0.05082 0.0
C61 C 0.09895 0.85571 0.05668 0.0
C62 C 0.09704 0.86276 0.11369 0.0
C63 C 0.08302 0.82577 0.15253 0.0
C64 C 0.08759 0.81785 0.09891 0.0
C65 C 0.07972 0.7938 0.09782 0.0
H66 H 0.00532 0.71288 0.19538 0.0
C67 C 0.06915 0.80877 0.1885 0.0
C68 C 0.06711 0.78996 0.15707 0.0
H69 H 0.05903 0.71078 0.06198 0.0
H70 H 0.0735 0.74588 0.08774 0.0
H71 H 0.04385 0.73062 0.29778 0.0
H72 H 0.9925 0.7706 0.17875 0.0
H73 H 0.99004 0.77692 0.25272 0.0
H74 H 0.98373 0.74873 0.23586 0.0
H75 H 0.01306 0.72561 0.30272 0.0
H76 H 0.0248 0.74915 0.33436 0.0
C77 C 0.10194 0.77721 0.09576 0.0
C78 C 0.06267 0.79411 0.04444 0.0
C79 C 0.03117 0.83341 0.37192 0.0
C80 C 0.01279 0.82575 0.40834 0.0
C81 C 1.00184 0.80574 0.39674 0.0
C82 C 0.00962 0.79342 0.3499 0.0
C83 C 0.02817 0.80153 0.31362 0.0
C84 C 0.03823 0.82147 0.32501 0.0
C85 C 0.0556 0.82964 0.27935 0.0
C86 C 0.05571 0.81063 0.24016 0.0
C87 C 0.03977 0.79389 0.25991 0.0
C88 C 0.07974 0.83021 0.31053 0.0
C89 C 0.04577 0.85335 0.24682 0.0
C90 C 0.02012 0.7202 0.17181 0.0
C91 C 0.03088 0.7093 0.12578 0.0
C92 C 0.05044 0.71891 0.09712 0.0
C93 C 0.05876 0.73937 0.11181 0.0
C94 C 0.0474 0.75066 0.15547 0.0
C95 C 0.02913 0.74073 0.1869 0.0
C96 C 0.02145 0.75456 0.2365 0.0
C97 C 0.03786 0.77444 0.22813 0.0
C98 C 0.05232 0.7722 0.17879 0.0
C99 C 0.02588 0.73923 0.29628 0.0
C100 C 0.99548 0.76315 0.22585 0.0
H101 H 0.08746 0.85454 0.20311 0.0
H102 H 0.09846 0.82602 0.00845 0.0
H103 H 0.04895 0.80847 0.04409 0.0
H104 H 0.0533 0.77819 0.0452 0.0
H105 H 0.07223 0.79654 1.00185 0.0
H106 H 0.11842 0.78554 0.10433 0.0
H107 H 0.1038 0.771 0.05172 0.0
H108 H 0.10165 0.76208 0.13048 0.0
H109 H 0.03935 0.84917 0.37818 0.0
H110 H 0.98738 0.79964 0.42393 0.0
H111 H 1.00071 0.77835 0.34297 0.0
H112 H 0.08289 0.81491 0.3446 0.0
H113 H 0.08056 0.84588 0.33315 0.0
H114 H 0.09466 0.82947 0.27975 0.0
H115 H 0.02678 0.8569 0.25545 0.0
H116 H 0.04667 0.8542 0.19797 0.0
H117 H 0.05514 0.86784 0.26107 0.0
H118 H 0.09936 0.88041 0.12069 0.0
C119 C 0.08945 0.8478 0.16166 0.0
C120 C 0.83041 0.97896 0.17176 0.0
C121 C 0.84097 0.96943 0.12315 0.0
C122 C 0.8287 0.95346 0.09528 0.0
C123 C 0.7952 0.95922 0.15662 0.0
C124 C 0.80754 0.97294 0.18893 0.0
C125 C 0.79378 0.97812 0.24348 0.0
H126 H 0.69253 0.95972 0.40248 0.0
C127 C 0.77246 0.95556 0.18347 0.0
C128 C 0.77166 0.9649 0.23725 0.0
H129 H 0.74608 1.00467 0.44024 0.0
H130 H 0.76955 0.99276 0.358 0.0
H131 H 0.68312 0.97556 0.29841 0.0
H132 H 0.72496 0.91637 0.35366 0.0
H133 H 0.70847 0.91151 0.29084 0.0
H134 H 0.6936 0.92216 0.35269 0.0
H135 H 0.67479 0.95006 0.27294 0.0
H136 H 0.69172 0.97045 0.2269 0.0
C137 C 0.78805 1.00438 0.23826 0.0
C138 C 0.80826 0.96847 0.29946 0.0
C139 C 0.7011 0.95118 0.05682 0.0
C140 C 0.67748 0.94822 0.07281 0.0
C141 C 0.67277 0.93709 0.13002 0.0
C142 C 0.69073 0.93202 0.1724 0.0
C143 C 0.71317 0.93925 0.15847 0.0
C144 C 0.71873 0.9465 0.10057 0.0
C145 C 0.74455 0.95019 0.094 0.0
C146 C 0.75228 0.94725 0.15945 0.0
C147 C 0.73318 0.94257 0.19646 0.0
C148 C 0.7481 0.97478 0.06323 0.0
C149 C 0.75555 0.93161 0.05805 0.0
C150 C 0.70967 0.96646 0.39413 0.0
C151 C 0.71776 0.98263 0.42813 0.0
C152 C 0.73971 0.99183 0.41485 0.0
C153 C 0.7531 0.98511 0.36685 0.0
C154 C 0.74392 0.96977 0.33082 0.0
C155 C 0.72229 0.9611 0.34477 0.0
C156 C 0.71276 0.94843 0.29779 0.0
C157 C 0.73277 0.94972 0.25391 0.0
C158 C 0.75135 0.96188 0.27353 0.0
C159 C 0.6895 0.96161 0.2725 0.0
C160 C 0.70961 0.92325 0.32502 0.0
H161 H 0.79841 0.93397 0.0954 0.0
H162 H 0.83986 0.99026 0.19618 0.0
H163 H 0.81465 0.95029 0.297 0.0
H164 H 0.79788 0.96839 0.3403 0.0
H165 H 0.8238 0.97871 0.30391 0.0
H166 H 0.78104 0.01104 0.19321 0.0
H167 H 0.80409 0.01352 0.24584 0.0
H168 H 0.77449 0.00913 0.26969 0.0
H169 H 0.70558 0.95814 0.01218 0.0
H170 H 0.65503 0.93376 0.14386 0.0
H171 H 0.68645 0.92373 0.21544 0.0
H172 H 0.73916 0.98792 0.08812 0.0
H173 H 0.74097 0.97718 0.0172 0.0
H174 H 0.76704 0.97809 0.06049 0.0
H175 H 0.74284 0.92675 0.02526 0.0
H176 H 0.76135 0.91565 0.08757 0.0
H177 H 0.77048 0.93805 0.03102 0.0
H178 H 0.83655 0.94516 0.05953 0.0
C179 C 0.8062 0.94786 0.11311 0.0
C180 C 0.49044 0.70737 0.37619 0.0
C181 C 0.48183 0.68617 0.40122 0.0
C182 C 0.46486 0.676 0.36986 0.0
C183 C 0.46633 0.70645 0.28815 0.0
C184 C 0.48204 0.71746 0.31951 0.0
C185 C 0.48763 0.74047 0.28533 0.0
H186 H 0.47784 0.81126 0.02038 0.0
C187 C 0.46204 0.71991 0.22959 0.0
C188 C 0.47407 0.74026 0.22714 0.0
H189 H 0.51172 0.82644 0.17975 0.0
H190 H 0.50116 0.78944 0.23158 0.0
H191 H 0.49707 0.76107 0.02684 0.0
H192 H 0.43212 0.79175 0.08293 0.0
H193 H 0.42509 0.76764 0.04895 0.0
H194 H 0.43967 0.7907 0.0067 0.0
H195 H 0.47303 0.76936 0.97616 0.0
H196 H 0.47635 0.74092 0.0176 0.0
C197 C 0.51438 0.74059 0.27569 0.0
C198 C 0.47782 0.75984 0.32024 0.0
C199 C 0.42555 0.68016 0.07033 0.0
C200 C 0.4247 0.68552 0.00841 0.0
C201 C 0.42812 0.70828 0.98308 0.0
C202 C 0.4347 0.72477 0.01856 0.0
C203 C 0.43827 0.71829 0.07982 0.0
C204 C 0.43279 0.69659 0.10495 0.0
C205 C 0.43908 0.69205 0.16972 0.0
C206 C 0.4503 0.71426 0.17876 0.0
C207 C 0.44974 0.72949 0.12615 0.0
C208 C 0.45701 0.67077 0.17881 0.0
C209 C 0.41596 0.68914 0.20505 0.0
C210 C 0.48323 0.80664 0.06632 0.0
C211 C 0.49589 0.82165 0.09564 0.0
C212 C 0.50199 0.81511 0.15603 0.0
C213 C 0.4958 0.79369 0.18603 0.0
C214 C 0.48306 0.77888 0.15559 0.0
C215 C 0.47691 0.78574 0.09676 0.0
C216 C 0.46316 0.76852 0.0705 0.0
C217 C 0.46128 0.75033 0.12339 0.0
C218 C 0.47324 0.75602 0.17347 0.0
C219 C 0.47793 0.75951 0.01991 0.0
C220 C 0.43874 0.78015 0.05071 0.0
H221 H 0.44438 0.67705 0.29259 0.0
H222 H 0.50309 0.71583 0.40015 0.0
H223 H 0.46018 0.75595 0.33821 0.0
H224 H 0.47526 0.77664 0.29231 0.0
H225 H 0.48957 0.7617 0.35821 0.0
H226 H 0.52093 0.72471 0.25731 0.0
H227 H 0.52382 0.74121 0.31824 0.0
H228 H 0.5193 0.75532 0.24398 0.0
H229 H 0.42331 0.66274 0.09101 0.0
H230 H 0.42734 0.71284 0.93539 0.0
H231 H 0.43813 0.74149 0.99634 0.0
H232 H 0.46959 0.67118 0.14143 0.0
H233 H 0.44796 0.65443 0.18096 0.0
H234 H 0.46818 0.66997 0.21868 0.0
H235 H 0.40039 0.69727 0.17901 0.0
H236 H 0.41593 0.69785 0.2456 0.0
H237 H 0.41273 0.67066 0.21748 0.0
H238 H 0.45793 0.65982 0.38829 0.0
C239 C 0.45702 0.68602 0.31405 0.0
C240 C 0.30435 0.47875 0.30969 0.0
C241 C 0.31456 0.47205 0.36667 0.0
C242 C 0.30265 0.45736 0.40881 0.0
C243 C 0.26916 0.46055 0.34368 0.0
C244 C 0.28162 0.47185 0.29851 0.0
C245 C 0.26772 0.47416 0.2405 0.0
H246 H 0.1631 0.45382 0.1098 0.0
C247 C 0.24593 0.45707 0.32233 0.0
C248 C 0.24493 0.46301 0.26083 0.0
H249 H 0.22097 0.48748 0.02231 0.0
H250 H 0.24363 0.48128 0.11512 0.0
H251 H 0.1919 0.41353 0.2064 0.0
H252 H 0.15521 0.47668 0.19243 0.0
H253 H 0.16601 0.47822 0.26462 0.0
H254 H 0.14643 0.4563 0.25021 0.0
H255 H 0.16115 0.42249 0.19863 0.0
H256 H 0.17479 0.4156 0.27078 0.0
C257 C 0.28144 0.46045 0.19676 0.0
C258 C 0.26338 0.5 0.21766 0.0
C259 C 0.1767 0.47267 0.44925 0.0
C260 C 0.15253 0.47027 0.4406 0.0
C261 C 0.14558 0.4553 0.40059 0.0
C262 C 0.16208 0.44561 0.3641 0.0
C263 C 0.18539 0.45149 0.36674 0.0
C264 C 0.1929 0.46265 0.41246 0.0
C265 C 0.21917 0.46383 0.41287 0.0
C266 C 0.22531 0.45383 0.35529 0.0
C267 C 0.20498 0.44885 0.32614 0.0
C268 C 0.22925 0.44909 0.46945 0.0
C269 C 0.22569 0.48917 0.41016 0.0
C270 C 0.18093 0.45928 0.11016 0.0
C271 C 0.19053 0.47052 0.05873 0.0
C272 C 0.21337 0.47841 0.06146 0.0
C273 C 0.2264 0.47488 0.11523 0.0
C274 C 0.21607 0.46416 0.16695 0.0
C275 C 0.19343 0.45707 0.16362 0.0
C276 C 0.18339 0.44929 0.22303 0.0
C277 C 0.20425 0.45154 0.26312 0.0
C278 C 0.22365 0.45988 0.23021 0.0
C279 C 0.17735 0.42386 0.22497 0.0
C280 C 0.16175 0.46585 0.23355 0.0
H281 H 0.27182 0.43877 0.42774 0.0
H282 H 0.31371 0.48899 0.27551 0.0
H283 H 0.25661 0.50962 0.25388 0.0
H284 H 0.25016 0.5032 0.1816 0.0
H285 H 0.27995 0.50751 0.20139 0.0
H286 H 0.28719 0.44293 0.21869 0.0
H287 H 0.29736 0.46932 0.18101 0.0
H288 H 0.27076 0.45794 0.15789 0.0
H289 H 0.18278 0.4832 0.48131 0.0
H290 H 0.1273 0.45173 0.39602 0.0
H291 H 0.15627 0.43433 0.33407 0.0
H292 H 0.21761 0.45075 0.50801 0.0
H293 H 0.24636 0.45499 0.48267 0.0
H294 H 0.23119 0.43053 0.46341 0.0
H295 H 0.21767 0.49979 0.37031 0.0
H296 H 0.245 0.49045 0.40823 0.0
H297 H 0.21953 0.49673 0.45019 0.0
H298 H 0.31065 0.45112 0.4516 0.0
C299 C 0.28007 0.4512 0.39688 0.0
C300 C 0.90456 0.2075 0.47458 0.0
C301 C 0.90142 0.18419 0.46872 0.0
C302 C 0.90325 0.17712 0.41176 0.0
C303 C 0.91781 0.2139 0.37307 0.0
C304 C 0.91328 0.22188 0.42663 0.0
C305 C 0.92162 0.24574 0.428 0.0
H306 H 0.99831 0.32475 0.33306 0.0
C307 C 0.93208 0.23063 0.33743 0.0
C308 C 0.93442 0.24937 0.36899 0.0
H309 H 0.94416 0.32813 0.46497 0.0
H310 H 0.9288 0.29354 0.43831 0.0
H311 H 0.00963 0.2669 0.34903 0.0
H312 H 0.95947 0.30841 0.22969 0.0
H313 H 0.97789 0.28939 0.19302 0.0
H314 H 0.99047 0.31244 0.22504 0.0
H315 H 0.01905 0.28861 0.29241 0.0
H316 H 0.01207 0.26069 0.27497 0.0
C317 C 0.93859 0.24508 0.48169 0.0
C318 C 0.89972 0.26275 0.42975 0.0
C319 C 0.97012 0.20537 0.15474 0.0
C320 C 0.98869 0.21275 0.11858 0.0
C321 C 0.99994 0.23256 0.13044 0.0
C322 C 0.99229 0.24495 0.17724 0.0
C323 C 0.97354 0.23713 0.21321 0.0
C324 C 0.96316 0.2174 0.20156 0.0
C325 C 0.94551 0.20953 0.24684 0.0
C326 C 0.94563 0.22852 0.28606 0.0
C327 C 0.96196 0.24494 0.26671 0.0
C328 C 0.95485 0.18568 0.27954 0.0
C329 C 0.92141 0.20939 0.21515 0.0
C330 C 0.98323 0.31781 0.35617 0.0
C331 C 0.97262 0.32893 0.40202 0.0
C332 C 0.95266 0.31984 0.42998 0.0
C333 C 0.94383 0.29967 0.4148 0.0
C334 C 0.95505 0.28815 0.37137 0.0
C335 C 0.97371 0.29761 0.34056 0.0
C336 C 0.98114 0.28373 0.2909 0.0
C337 C 0.9642 0.26429 0.29867 0.0
C338 C 0.94966 0.2668 0.34769 0.0
C339 C 0.00691 0.2745 0.30196 0.0
C340 C 0.97718 0.29925 0.23123 0.0
H341 H 0.913 0.18522 0.32242 0.0
H342 H 0.90221 0.21385 0.51697 0.0
H343 H 0.88307 0.25476 0.42082 0.0
H344 H 0.90037 0.27787 0.39514 0.0
H345 H 0.89789 0.26895 0.4738 0.0
H346 H 0.95206 0.23049 0.48217 0.0
H347 H 0.9289 0.24279 0.52411 0.0
H348 H 0.94825 0.26081 0.48124 0.0
H349 H 0.9617 0.18974 0.1484 0.0
H350 H 0.01454 0.23845 0.10349 0.0
H351 H 1.00144 0.25986 0.18437 0.0
H352 H 0.97381 0.18178 0.27121 0.0
H353 H 0.94523 0.17139 0.26516 0.0
H354 H 0.95386 0.18487 0.32837 0.0
H355 H 0.9186 0.22473 0.18108 0.0
H356 H 0.90642 0.21036 0.24563 0.0
H357 H 0.92039 0.19376 0.19244 0.0
H358 H 0.90071 0.1595 0.40481 0.0
C359 C 0.91107 0.19198 0.36385 0.0
C360 C 0.2677 0.06378 0.1199 0.0
C361 C 0.28874 0.07342 0.0981 0.0
C362 C 0.2987 0.09015 0.12834 0.0
C363 C 0.2722 0.08174 0.20853 0.0
C364 C 0.25908 0.06924 0.17502 0.0
C365 C 0.23603 0.06394 0.20611 0.0
H366 H 0.17801 0.06127 0.47232 0.0
C367 C 0.26271 0.08051 0.26777 0.0
C368 C 0.24045 0.07158 0.26722 0.0
H369 H 0.14718 0.05069 0.30508 0.0
H370 H 0.18539 0.05504 0.25743 0.0
H371 H 0.21978 0.03022 0.46431 0.0
H372 H 0.21017 0.10319 0.4286 0.0
H373 H 0.23661 0.09603 0.46978 0.0
H374 H 0.20941 0.08586 0.49965 0.0
H375 H 0.22861 0.04785 0.51783 0.0
H376 H 0.2489 0.03847 0.46373 0.0
C377 C 0.23236 0.03796 0.2103 0.0
C378 C 0.21622 0.07909 0.17138 0.0
C379 C 0.32334 0.0666 0.43201 0.0
C380 C 0.32167 0.06064 0.49366 0.0
C381 C 0.29942 0.06261 0.52022 0.0
C382 C 0.27913 0.0688 0.48543 0.0
C383 C 0.28105 0.07292 0.4235 0.0
C384 C 0.30296 0.07285 0.398 0.0
C385 C 0.30177 0.0785 0.33168 0.0
C386 C 0.27515 0.08042 0.32164 0.0
C387 C 0.26332 0.07621 0.3753 0.0
C388 C 0.31379 0.05821 0.30326 0.0
C389 C 0.31366 0.10144 0.31384 0.0
C390 C 0.17924 0.06041 0.4251 0.0
C391 C 0.15943 0.05645 0.39209 0.0
C392 C 0.16213 0.05422 0.33126 0.0
C393 C 0.18412 0.05713 0.30351 0.0
C394 C 0.20348 0.06227 0.33703 0.0
C395 C 0.20081 0.06322 0.39718 0.0
C396 C 0.22327 0.06708 0.42773 0.0
C397 C 0.23942 0.07083 0.37522 0.0
C398 C 0.228 0.06789 0.32176 0.0
C399 C 0.23058 0.04492 0.47074 0.0
C400 C 0.21977 0.08915 0.45848 0.0
H401 H 0.29755 0.10777 0.20507 0.0
H402 H 0.25878 0.05206 0.09563 0.0
H403 H 0.2216 0.09703 0.15962 0.0
H404 H 0.20003 0.08059 0.19716 0.0
H405 H 0.21204 0.07218 0.12952 0.0
H406 H 0.24794 0.02775 0.2314 0.0
H407 H 0.22976 0.03278 0.16551 0.0
H408 H 0.21689 0.03321 0.23725 0.0
H409 H 0.34007 0.06544 0.40998 0.0
H410 H 0.29762 0.05897 0.56782 0.0
H411 H 0.26266 0.06976 0.50785 0.0
H412 H 0.30521 0.04192 0.31774 0.0
H413 H 0.33269 0.05565 0.31585 0.0
H414 H 0.31308 0.06127 0.25431 0.0
H415 H 0.32599 0.1054 0.34864 0.0
H416 H 0.30044 0.11628 0.30592 0.0
H417 H 0.3246 0.1007 0.27379 0.0
H418 H 0.31408 0.09867 0.11136 0.0
C419 C 0.29017 0.09462 0.1833 0.0
C420 C 0.5121 0.32211 0.1876 0.0
C421 C 0.51991 0.34374 0.16318 0.0
C422 C 0.53629 0.35445 0.19502 0.0
C423 C 0.53571 0.32367 0.27614 0.0
C424 C 0.52064 0.31216 0.24425 0.0
C425 C 0.51585 0.28881 0.2779 0.0
H426 H 0.52682 0.2177 0.54213 0.0
C427 C 0.54021 0.31022 0.33464 0.0
C428 C 0.52902 0.28941 0.33648 0.0
H429 H 0.49496 0.20156 0.38117 0.0
H430 H 0.50422 0.23913 0.33033 0.0
H431 H 0.57207 0.23933 0.4814 0.0
H432 H 0.50552 0.26727 0.53568 0.0
H433 H 0.52524 0.28822 0.54595 0.0
H434 H 0.52944 0.2598 0.58716 0.0
H435 H 0.56382 0.2397 0.55741 0.0
H436 H 0.57765 0.26357 0.51655 0.0
C437 C 0.52667 0.26991 0.24286 0.0
C438 C 0.48913 0.28761 0.28685 0.0
C439 C 0.57446 0.35095 0.4951 0.0
C440 C 0.57517 0.34559 0.55701 0.0
C441 C 0.5721 0.32275 0.58226 0.0
C442 C 0.56617 0.30608 0.54659 0.0
C443 C 0.56286 0.31246 0.48521 0.0
C444 C 0.56784 0.33434 0.46028 0.0
C445 C 0.56175 0.33876 0.3954 0.0
C446 C 0.55136 0.31621 0.38591 0.0
C447 C 0.55211 0.30091 0.43844 0.0
C448 C 0.58491 0.3424 0.36063 0.0
C449 C 0.54321 0.35954 0.38608 0.0
C450 C 0.52161 0.22222 0.49604 0.0
C451 C 0.50989 0.20676 0.46596 0.0
C452 C 0.50398 0.21322 0.40544 0.0
C453 C 0.50942 0.23498 0.37602 0.0
C454 C 0.52122 0.25025 0.40719 0.0
C455 C 0.52721 0.24348 0.46615 0.0
C456 C 0.53997 0.26121 0.49316 0.0
C457 C 0.54145 0.27961 0.44057 0.0
C458 C 0.53013 0.27355 0.38999 0.0
C459 C 0.56465 0.25051 0.51373 0.0
C460 C 0.52447 0.26956 0.54334 0.0
H461 H 0.55644 0.35393 0.27265 0.0
H462 H 0.49993 0.31326 0.16322 0.0
H463 H 0.48182 0.3032 0.30539 0.0
H464 H 0.48468 0.27258 0.31815 0.0
H465 H 0.48 0.28675 0.24402 0.0
H466 H 0.54414 0.2746 0.22519 0.0
H467 H 0.51521 0.26762 0.20468 0.0
H468 H 0.52988 0.25316 0.27064 0.0
H469 H 0.57637 0.36844 0.4745 0.0
H470 H 0.57274 0.31821 0.62996 0.0
H471 H 0.56306 0.28926 0.56869 0.0
H472 H 0.60054 0.33446 0.38677 0.0
H473 H 0.58773 0.36102 0.34902 0.0
H474 H 0.58534 0.33394 0.31967 0.0
H475 H 0.53061 0.35884 0.42345 0.0
H476 H 0.53208 0.35991 0.34629 0.0
H477 H 0.55173 0.37618 0.38371 0.0
H478 H 0.54262 0.37096 0.17698 0.0
C479 C 0.54429 0.34454 0.25079 0.0
Co480 Co 0.00725 0.03203 0.78725 0.0
C481 C 0.97199 0.00941 0.84889 0.0
Co482 Co 0.99109 0.00702 0.73564 0.0
C483 C 0.01026 0.07114 0.85417 0.0
C484 C 0.04409 0.05653 0.83373 0.0
N485 N 0.02093 0.05391 0.8276 0.0
N486 N 0.02584 0.08447 0.87655 0.0
C487 C 0.04716 0.07517 0.86367 0.0
H488 H 0.99137 0.07381 0.85684 0.0
H489 H 0.05789 0.04581 0.81651 0.0
C490 C 0.02641 0.02962 0.67402 0.0
N491 N 0.97743 0.98513 0.69527 0.0
C492 C 0.98804 0.96784 0.66875 0.0
C493 C 0.95426 0.98259 0.68907 0.0
N494 N 0.9724 0.95458 0.6463 0.0
C495 C 0.95112 0.96397 0.65912 0.0
C496 C 0.96867 0.05055 0.71844 0.0
O497 O 0.02734 0.03941 0.72089 0.0
O498 O 0.01136 0.01466 0.67042 0.0
O499 O 0.96831 0.03049 0.70257 0.0
O500 O 0.98452 0.05473 0.75427 0.0
O501 O 0.97107 0.99956 0.80212 0.0
H502 H 0.94049 0.99336 0.70622 0.0
H503 H 0.00692 0.96509 0.66616 0.0
O504 O 0.98694 0.02447 0.8524 0.0
O505 O 0.02998 0.00864 0.82025 0.0
O506 O 0.01386 0.98426 0.7689 0.0
C507 C 0.02962 0.98851 0.80491 0.0
H508 H 0.06388 0.08166 0.87371 0.0
H509 H 0.93437 0.95756 0.64903 0.0
Co510 Co 0.49259 0.02079 0.81351 0.0
C511 C 0.50347 0.97311 0.83603 0.0
Co512 Co 0.51486 0.00655 0.74477 0.0
C513 C 0.44906 0.03733 0.86674 0.0
C514 C 0.47694 0.02796 0.93009 0.0
N515 N 0.47234 0.03086 0.87125 0.0
N516 N 0.43903 0.03801 0.92036 0.0
C517 C 0.4566 0.03228 0.96019 0.0
H518 H 0.43923 0.03976 0.82539 0.0
H519 H 0.49362 0.02147 0.95029 0.0
C520 C 0.50401 0.05423 0.72238 0.0
N521 N 0.53522 0.99606 0.68793 0.0
C522 C 0.55771 1.00163 0.6776 0.0
C523 C 0.53062 0.98228 0.64655 0.0
N524 N 0.56715 0.99201 0.63154 0.0
C525 C 0.55013 0.97992 0.6116 0.0
C526 C 0.46792 0.00719 0.71896 0.0
O527 O 0.49272 0.05136 0.77093 0.0
O528 O 0.51525 0.03698 0.70457 0.0
O529 O 0.48803 1.00198 0.69876 0.0
O530 O 0.4664 0.01503 0.76836 0.0
O531 O 0.51416 0.97581 0.78663 0.0
H532 H 0.51408 0.97457 0.64161 0.0
H533 H 0.56688 0.01307 0.7022 0.0
O534 O 0.49279 0.99049 0.85441 0.0
O535 O 0.51948 0.02602 0.85861 0.0
O536 O 0.54099 0.01144 0.79109 0.0
C537 C 0.53952 0.01984 0.83969 0.0
H538 H 0.45467 0.03036 0.00788 0.0
H539 H 0.55176 0.96998 0.57464 0.0
Co540 Co 0.51732 0.51878 0.80045 0.0
C541 C 0.49652 0.48054 0.86317 0.0
Co542 Co 0.48215 0.51187 0.76756 0.0
C543 C 0.55162 0.52394 0.89127 0.0
C544 C 0.56698 0.52514 0.80517 0.0
N545 N 0.54627 0.52353 0.83337 0.0
N546 N 0.57486 0.52541 0.90026 0.0
C547 C 0.58459 0.52613 0.8462 0.0
H548 H 0.53887 0.52213 0.92647 0.0
H549 H 0.56922 0.52491 0.75803 0.0
C550 C 0.50301 0.55006 0.70469 0.0
N551 N 0.45313 0.50716 0.73477 0.0
C552 C 0.44795 0.50545 0.67741 0.0
C553 C 0.43226 0.50661 0.7625 0.0
N554 N 0.42468 0.50417 0.66827 0.0
C555 C 0.41475 0.50492 0.7217 0.0
C556 C 0.48015 0.54296 0.84854 0.0
O557 O 0.52025 0.54454 0.74047 0.0
O558 O 0.48534 0.53768 0.70832 0.0
O559 O 0.46748 0.53218 0.81676 0.0
O560 O 0.50232 0.539 0.8491 0.0
O561 O 0.47923 0.48607 0.82757 0.0
H562 H 0.42987 0.50783 0.80919 0.0
H563 H 0.4609 0.50592 0.64262 0.0
O564 O 0.51413 0.49299 0.85954 0.0
O565 O 0.53204 0.49848 0.75124 0.0
O566 O 0.49717 0.49165 0.71896 0.0
C567 C 0.51935 0.48769 0.71949 0.0
H568 H 0.60317 0.52698 0.83718 0.0
H569 H 0.39614 0.50427 0.73059 0.0
Co570 Co 0.00602 0.53658 0.77475 0.0
C571 C 0.04512 0.50939 0.81588 0.0
Co572 Co 0.00472 0.50081 0.75159 0.0
C573 C 0.00787 0.57356 0.84975 0.0
C574 C 0.99873 0.586 0.7595 0.0
N575 N 0.00493 0.56653 0.79577 0.0
N576 N 0.00346 0.59662 0.84857 0.0
C577 C 0.99778 0.60442 0.79166 0.0
H578 H 0.01237 0.56188 0.88953 0.0
H579 H 0.99462 0.58669 0.7128 0.0
C580 C 0.96553 0.52816 0.71084 0.0
N581 N 0.00575 0.47088 0.73048 0.0
C582 C 1.00188 0.46386 0.67688 0.0
C583 C 0.01255 0.45142 0.76612 0.0
N584 N 0.00627 0.44081 0.67767 0.0
C585 C 0.01292 0.43301 0.73396 0.0
C586 C 0.98381 0.50603 0.85713 0.0
O587 O 0.97629 0.5433 0.73407 0.0
O588 O 0.97515 0.50789 0.71244 0.0
O589 O 0.98877 0.49121 0.82212 0.0
O590 O 0.99001 0.52654 0.84478 0.0
O591 O 0.03474 0.4942 0.7918 0.0
H592 H 0.01736 0.45071 0.8124 0.0
H593 H 0.99666 0.47554 0.63763 0.0
O594 O 0.03523 0.52951 0.8146 0.0
O595 O 0.02254 0.54606 0.70401 0.0
O596 O 0.02024 0.5108 0.68156 0.0
C597 C 0.02686 0.53111 0.66889 0.0
H598 H 0.99322 0.62223 0.77436 0.0
H599 H 0.01768 0.41521 0.75087 0.0
H600 H 0.13993 0.08605 0.46375 0.0
H601 H 0.03467 0.00729 0.5758 0.0
H602 H 0.12674 0.02345 0.39129 0.0
H603 H 0.05708 0.06405 0.66148 0.0
H604 H 0.06456 0.01526 0.4997 0.0
H605 H 0.10566 0.08092 0.52663 0.0
C606 C 0.12964 0.07128 0.46072 0.0
C607 C 0.1364 0.055 0.42269 0.0
C608 C 0.06281 0.02603 0.53496 0.0
C609 C 0.09697 0.04887 0.49529 0.0
C610 C 0.04571 0.02154 0.57839 0.0
C611 C 0.04337 0.03497 0.62538 0.0
C612 C 0.07758 0.04419 0.53824 0.0
C613 C 0.05825 0.05316 0.6264 0.0
C614 C 0.11006 0.06833 0.49679 0.0
C615 C 0.12216 0.0364 0.41996 0.0
N616 N 0.07466 0.05717 0.5837 0.0
N617 N 0.10323 0.0337 0.4563 0.0
H618 H 0.51806 0.16375 0.43094 0.0
H619 H 0.48395 0.09611 0.74625 0.0
H620 H 0.49075 0.19773 0.57603 0.0
H621 H 0.52212 0.06417 0.61146 0.0
H622 H 0.4825 0.13294 0.68108 0.0
H623 H 0.51501 0.12638 0.49206 0.0
C624 C 0.51103 0.16333 0.47523 0.0
C625 C 0.5048 0.1839 0.49851 0.0
C626 C 0.49119 0.11784 0.66582 0.0
C627 C 0.50154 0.14124 0.5691 0.0
C628 C 0.49206 0.09682 0.70311 0.0
C629 C 0.50331 0.07698 0.68465 0.0
C630 C 0.50147 0.11906 0.6094 0.0
C631 C 0.51338 0.07898 0.62795 0.0
C632 C 0.5095 0.14201 0.51037 0.0
C633 C 0.49602 0.1823 0.55653 0.0
N634 N 0.51221 0.09956 0.59249 0.0
N635 N 0.49476 0.16142 0.58984 0.0
H636 H 0.3207 0.51551 0.39009 0.0
H637 H 0.43838 0.47871 0.58132 0.0
H638 H 0.35685 0.4486 0.39414 0.0
H639 H 0.38351 0.52643 0.62985 0.0
H640 H 0.41553 0.47404 0.49184 0.0
H641 H 0.35132 0.52666 0.45514 0.0
C642 C 0.33567 0.50356 0.40257 0.0
C643 C 0.33645 0.48122 0.38642 0.0
C644 C 0.4087 0.48575 0.52177 0.0
C645 C 0.37112 0.49355 0.46175 0.0
C646 C 0.42171 0.48845 0.57255 0.0
C647 C 0.41263 0.50277 0.61314 0.0
C648 C 0.38675 0.49789 0.51099 0.0
C649 C 0.39091 0.51497 0.60003 0.0
C650 C 0.35292 0.50977 0.44035 0.0
C651 C 0.35584 0.46607 0.40518 0.0
N652 N 0.37871 0.51225 0.55016 0.0
N653 N 0.37232 0.47243 0.44236 0.0
H654 H 0.95091 0.37174 0.40097 0.0
H655 H 0.03235 0.4017 0.66206 0.0
H656 H 0.01465 0.3318 0.4582 0.0
H657 H 0.97656 0.44854 0.58207 0.0
H658 H 0.0275 0.37713 0.58423 0.0
H659 H 0.96162 0.40158 0.46077 0.0
C660 C 0.96754 0.36962 0.42481 0.0
C661 C 0.98204 0.3494 0.42421 0.0
C662 C 0.01642 0.39287 0.58327 0.0
C663 C 0.99405 0.38308 0.49475 0.0
C664 C 0.01907 0.40685 0.62806 0.0
C665 C 0.00465 0.42714 0.62917 0.0
C666 C 0.99902 0.39896 0.53925 0.0
C667 C 0.98807 0.43312 0.58305 0.0
C668 C 0.97357 0.38656 0.45937 0.0
C669 C 0.00316 0.34728 0.4568 0.0
N670 N 0.98552 0.41897 0.54048 0.0
N671 N 0.00836 0.36372 0.49145 0.0
H672 H 0.8771 0.94002 0.09558 0.0
H673 H 0.95673 0.03622 0.93378 0.0
H674 H 0.85831 0.01244 0.09601 0.0
H675 H 0.94924 0.96975 0.87539 0.0
H676 H 0.92746 0.02691 0.01119 0.0
H677 H 0.91124 0.94987 0.0353 0.0
C678 C 0.88038 0.95804 0.08378 0.0
C679 C 0.86453 0.97544 0.09993 0.0
C680 C 0.93241 0.01437 0.9816 0.0
C681 C 0.90379 0.98683 0.03086 0.0
C682 C 0.94913 0.01959 0.93763 0.0
C683 C 0.95537 1.00374 0.89793 0.0
C684 C 0.92232 0.99294 0.98674 0.0
C685 C 0.94487 0.98253 0.90473 0.0
C686 C 0.89983 0.96363 0.04917 0.0
C687 C 0.87001 0.99849 0.0844 0.0
N688 N 0.92898 0.97773 0.94833 0.0
N689 N 0.88908 1.00356 0.05008 0.0
H690 H 0.48987 0.8649 0.13041 0.0
H691 H 0.522 0.93072 0.81128 0.0
H692 H 0.51438 0.82979 0.98456 0.0
H693 H 0.48704 0.96391 0.94876 0.0
H694 H 0.52335 0.89403 0.8772 0.0
H695 H 0.49365 0.90195 0.06846 0.0
C696 C 0.49646 0.86499 0.08576 0.0
C697 C 0.50165 0.84421 0.06254 0.0
C698 C 0.5154 0.90938 0.89286 0.0
C699 C 0.5057 0.88652 0.99095 0.0
C700 C 0.51458 0.93032 0.85516 0.0
C701 C 0.50423 0.95045 0.87415 0.0
C702 C 0.50597 0.90857 0.95018 0.0
C703 C 0.49504 0.94886 0.9318 0.0
C704 C 0.49839 0.88614 0.05016 0.0
C705 C 0.5099 0.8454 0.00404 0.0
N706 N 0.49613 0.92837 0.96759 0.0
N707 N 0.51154 0.86613 0.97025 0.0
H708 H 0.67633 0.49361 0.18099 0.0
H709 H 0.56264 0.54789 0.99408 0.0
H710 H 0.6463 0.56141 0.20137 0.0
H711 H 0.61509 0.50048 0.93337 0.0
H712 H 0.58565 0.54738 0.08662 0.0
H713 H 0.64526 0.48948 0.10944 0.0
C714 C 0.66265 0.50731 0.17189 0.0
C715 C 0.66387 0.5279 0.19695 0.0
C716 C 0.59193 0.53695 0.05315 0.0
C717 C 0.62859 0.52353 0.11399 0.0
C718 C 0.57885 0.5372 1.00066 0.0
C719 C 0.58718 0.52437 0.95605 0.0
C720 C 0.61309 0.52328 0.06143 0.0
C721 C 0.60826 0.51083 0.96637 0.0
C722 C 0.64511 0.50506 0.13055 0.0
C723 C 0.64585 0.54522 0.18326 0.0
N724 N 0.62043 0.51059 0.01793 0.0
N725 N 0.62907 0.5428 0.1419 0.0
H726 H 0.05315 0.66661 0.13011 0.0
H727 H 0.97656 0.63549 0.86166 0.0
H728 H 0.98967 0.7057 0.06685 0.0
H729 H 0.03156 0.5891 0.94722 0.0
H730 H 0.97967 0.6601 0.94007 0.0
H731 H 0.04382 0.63642 0.06989 0.0
C732 C 0.03683 0.66843 0.10494 0.0
C733 C 0.022 0.68853 0.10397 0.0
C734 C 0.99095 0.64445 0.94214 0.0
C735 C 0.01164 0.65449 0.03286 0.0
C736 C 0.9893 0.63045 0.89702 0.0
C737 C 0.00403 0.61028 0.89732 0.0
C738 C 0.00767 0.63852 0.98791 0.0
C739 C 0.01986 0.60444 0.94513 0.0
C740 C 0.0316 0.65131 0.0701 0.0
C741 C 1.00136 0.69032 0.06955 0.0
N742 N 0.02146 0.61861 0.98801 0.0
N743 N 0.99697 0.67372 0.03468 0.0
H744 H 0.92381 0.18501 0.57512 0.0
H745 H 0.95675 0.08989 0.7661 0.0
H746 H 0.88053 0.14226 0.48397 0.0
H747 H 0.94094 0.05371 0.61826 0.0
H748 H 0.93204 0.12296 0.72153 0.0
H749 H 0.9336 0.15269 0.64886 0.0
C750 C 0.9155 0.16911 0.57155 0.0
C751 C 0.90155 0.16649 0.52205 0.0
C752 C 0.93407 0.10791 0.69844 0.0
C753 C 0.91326 0.12867 0.60736 0.0
C754 C 0.94808 0.08894 0.72407 0.0
C755 C 0.95143 0.0693 0.69489 0.0
C756 C 0.92377 0.10748 0.64244 0.0
C757 C 0.93915 0.06871 0.64162 0.0
C758 C 0.92127 0.15039 0.61417 0.0
C759 C 0.89195 0.14502 0.52017 0.0
N760 N 0.92615 0.08773 0.61651 0.0
N761 N 0.89849 0.12677 0.56129 0.0
H762 H 0.32439 0.02667 0.58923 0.0
H763 H 0.46417 0.01547 0.59854 0.0
H764 H 0.36752 0.07224 0.47801 0.0
H765 H 0.42318 1.00189 0.75689 0.0
H766 H 0.42772 0.02641 0.54155 0.0
H767 H 0.35988 0.00925 0.6417 0.0
C768 C 0.34119 0.0332 0.57605 0.0
C769 C 0.34284 0.05102 0.52887 0.0
C770 C 0.42677 0.0206 0.5886 0.0
C771 C 0.38344 0.03036 0.58709 0.0
C772 C 0.44747 0.01409 0.62089 0.0
C773 C 0.44656 0.00791 0.68236 0.0
C774 C 0.40517 0.02049 0.61803 0.0
C775 C 0.42453 0.0067 0.70949 0.0
C776 C 0.36142 0.02302 0.60559 0.0
C777 C 0.36529 0.05828 0.51312 0.0
N778 N 0.40462 0.01308 0.67715 0.0
N779 N 0.3847 0.04782 0.5419 0.0
H780 H 0.60117 0.38397 0.55137 0.0
H781 H 0.49611 0.45392 0.67743 0.0
H782 H 0.54336 0.35142 0.64277 0.0
H783 H 0.56599 0.47641 0.6997 0.0
H784 H 0.51318 0.41842 0.64583 0.0
H785 H 0.58953 0.41978 0.5929 0.0
C786 C 0.58648 0.38418 0.58145 0.0
C787 C 0.57318 0.36474 0.59365 0.0
C788 C 0.52476 0.43118 0.65745 0.0
C789 C 0.55948 0.40547 0.63902 0.0
C790 C 0.51506 0.45158 0.67478 0.0
C791 C 0.52967 0.46812 0.69141 0.0
C792 C 0.54924 0.42741 0.65564 0.0
C793 C 0.55413 0.46403 0.68734 0.0
C794 C 0.57984 0.40455 0.60478 0.0
C795 C 0.55424 0.36589 0.63259 0.0
N796 N 0.56324 0.44402 0.66957 0.0
N797 N 0.54766 0.38606 0.65286 0.0
H798 H 0.15353 0.48372 0.55259 0.0
H799 H 0.02135 0.52228 0.55595 0.0
H800 H 0.11094 0.49018 0.39308 0.0
H801 H 0.07068 0.54593 0.67518 0.0
H802 H 0.05373 0.51319 0.49108 0.0
H803 H 0.12372 0.50773 0.59695 0.0
C804 C 0.13805 0.49028 0.52666 0.0
C805 C 0.13462 0.48453 0.46928 0.0
C806 C 0.05745 0.52111 0.53034 0.0
C807 C 0.10042 0.51193 0.52001 0.0
C808 C 0.03895 0.52653 0.56691 0.0
C809 C 0.0435 0.53493 0.62047 0.0
C810 C 0.08062 0.52339 0.54883 0.0
C811 C 0.06656 0.5397 0.63372 0.0
C812 C 0.12109 0.50409 0.55196 0.0
C813 C 0.11405 0.49348 0.43812 0.0
N814 N 0.08446 0.5332 0.59894 0.0
N815 N 0.09761 0.50647 0.46415 0.0
H816 H 0.07734 0.85463 0.94902 0.0
H817 H 0.0639 0.9897 0.88968 0.0
H818 H 0.11936 0.89789 0.04205 0.0
H819 H 0.03444 0.94462 0.77652 0.0
H820 H 0.08876 0.95695 0.93752 0.0
H821 H 0.06736 0.88714 0.87519 0.0
C822 C 0.08514 0.87072 0.9534 0.0
C823 C 0.09877 0.87345 0.00341 0.0
C824 C 0.07712 0.95434 0.90156 0.0
C825 C 0.08627 0.9114 0.9193 0.0
C826 C 0.06285 0.973 0.87444 0.0
C827 C 0.0467 0.96978 0.82996 0.0
C828 C 0.07507 0.93233 0.88425 0.0
C829 C 0.04629 0.94784 0.81144 0.0
C830 C 0.07911 0.88951 0.91116 0.0
C831 C 0.108 0.89507 0.00578 0.0
N832 N 0.06001 0.92993 0.83919 0.0
N833 N 0.10108 0.91338 0.96525 0.0
H834 H 0.63265 0.93371 0.06131 0.0
H835 H 0.58476 0.02661 0.80809 0.0
H836 H 0.67708 0.98846 0.99591 0.0
H837 H 0.54145 1.00472 0.95733 0.0
H838 H 0.6197 0.01044 0.86587 0.0
H839 H 0.59925 0.95578 0.01017 0.0
C840 C 0.63551 0.95027 0.03629 0.0
C841 C 0.65785 0.95925 0.03382 0.0
C842 C 0.60258 0.00972 0.88628 0.0
C843 C 0.61967 0.98423 0.97417 0.0
C844 C 0.58275 0.01909 0.85371 0.0
C845 C 0.56035 0.01714 0.87843 0.0
C846 C 0.59974 0.99769 0.94286 0.0
C847 C 0.5585 0.00685 0.93717 0.0
C848 C 0.61639 0.96283 0.00723 0.0
C849 C 0.6604 0.98055 0.99872 0.0
N850 N 0.57794 0.99697 0.96706 0.0
N851 N 0.64154 0.99229 0.97006 0.0
H852 H 0.39847 0.64726 0.01486 0.0
H853 H 0.50335 0.57681 0.89031 0.0
H854 H 0.45611 0.6795 0.92188 0.0
H855 H 0.4335 0.55423 0.86809 0.0
H856 H 0.48622 0.61243 0.9211 0.0
H857 H 0.40996 0.61128 0.97399 0.0
C858 C 0.41306 0.64695 0.98455 0.0
C859 C 0.4264 0.66635 0.9718 0.0
C860 C 0.47466 0.59962 0.90968 0.0
C861 C 0.43992 0.62543 0.92717 0.0
C862 C 0.4844 0.57915 0.89284 0.0
C863 C 0.46981 0.56256 0.87642 0.0
C864 C 0.45018 0.60341 0.91121 0.0
C865 C 0.44534 0.56665 0.88029 0.0
C866 C 0.41963 0.62648 0.9616 0.0
C867 C 0.44521 0.66507 0.93253 0.0
N868 N 0.4362 0.58674 0.89757 0.0
N869 N 0.45172 0.64481 0.91266 0.0
H870 H 0.88915 0.52147 0.14605 0.0
H871 H 0.94572 0.48058 0.85622 0.0
H872 H 0.85212 0.5289 0.97759 0.0
H873 H 0.98326 0.52192 0.96445 0.0
H874 H 0.91189 0.48285 0.92208 0.0
H875 H 0.92443 0.50776 0.09743 0.0
C876 C 0.88832 0.52035 0.09896 0.0
C877 C 0.86755 0.52687 0.06576 0.0
C878 C 0.92786 0.49077 0.9322 0.0
C879 C 0.90753 0.50979 0.01139 0.0
C880 C 0.94717 0.48929 0.89524 0.0
C881 C 0.9671 0.50121 0.90512 0.0
C882 C 0.92889 0.50376 0.9797 0.0
C883 C 0.96807 0.51262 0.95554 0.0
C884 C 0.90839 0.51216 0.07171 0.0
C885 C 0.8675 0.52397 0.00534 0.0
N886 N 0.94905 0.51379 0.99097 0.0
N887 N 0.88722 0.51565 0.98008 0.0
H888 H 0.03301 0.19415 0.09847 0.0
H889 H 0.98529 0.11202 0.87285 0.0
H890 H 0.96159 0.19789 0.03372 0.0
H891 H 0.05526 0.10371 0.94884 0.0
H892 H 0.97753 0.14583 0.92413 0.0
H893 H 0.04309 0.16421 0.03447 0.0
C894 C 0.01961 0.18909 0.06968 0.0
C895 C 0.99643 0.19849 0.07149 0.0
C896 C 0.99463 0.13666 0.92943 0.0
C897 C 0.00764 0.16393 0.99912 0.0
C898 C 0.99903 0.11716 0.9004 0.0
C899 C 0.02097 0.10471 0.90643 0.0
C900 C 0.01223 0.14394 0.96503 0.0
C901 C 0.03816 0.11271 0.94214 0.0
C902 C 0.02528 0.17181 0.03367 0.0
C903 C 0.97966 0.19102 0.03391 0.0
N904 N 0.0334 0.13169 0.97011 0.0
N905 N 0.98553 0.17413 0.99976 0.0
H906 H 0.3062 0.0294 0.09509 0.0
H907 H 0.40608 0.06823 0.86223 0.0
H908 H 0.30545 0.09736 0.99691 0.0
H909 H 0.41558 0.01372 0.00792 0.0
H910 H 0.36464 0.07414 0.89062 0.0
H911 H 0.34094 0.018 0.03998 0.0
C912 C 0.31271 0.04161 0.06005 0.0
C913 C 0.30295 0.06435 0.05056 0.0
C914 C 0.37578 0.06074 0.91589 0.0
C915 C 0.34309 0.05168 0.98856 0.0
C916 C 0.39935 0.05737 0.8997 0.0
C917 C 0.41433 0.04074 0.93341 0.0
C918 C 0.36707 0.04702 0.96535 0.0
C919 C 0.40476 0.02705 0.98152 0.0
C920 C 0.33279 0.03523 0.02931 0.0
C921 C 0.31246 0.07964 0.00547 0.0
N922 N 0.38182 0.03051 0.99607 0.0
N923 N 0.33221 0.07315 0.97673 0.0
H924 H 0.47631 0.36463 0.13421 0.0
H925 H 0.53569 0.45715 0.91322 0.0
H926 H 0.5456 0.3536 0.06437 0.0
H927 H 0.46041 0.45344 0.90504 0.0
H928 H 0.53867 0.42019 0.9758 0.0
H929 H 0.46827 0.39681 0.05429 0.0
C930 C 0.48942 0.36833 0.10052 0.0
C931 C 0.51159 0.35637 0.10549 0.0
C932 C 0.52146 0.42735 0.96026 0.0
C933 C 0.50299 0.39363 0.01626 0.0
C934 C 0.5197 0.44865 0.92496 0.0
C935 C 0.49773 0.45856 0.90401 0.0
C936 C 0.50109 0.41584 0.97612 0.0
C937 C 0.47769 0.44645 0.92035 0.0
C938 C 0.48495 0.38685 0.05546 0.0
C939 C 0.52823 0.36228 0.06177 0.0
N940 N 0.4798 0.4258 0.95607 0.0
N941 N 0.52378 0.38073 0.01985 0.0
H942 H 0.16754 0.44053 1.00029 0.0
H943 H 0.07403 0.53915 0.85931 0.0
H944 H 0.17668 0.51297 1.00065 0.0
H945 H 0.0703 0.46748 0.83575 0.0
H946 H 0.11266 0.53012 0.90615 0.0
H947 H 0.13385 0.45014 0.9328 0.0
C948 C 0.16283 0.45848 0.98461 0.0
C949 C 0.17496 0.47599 0.00575 0.0
C950 C 0.10349 0.51637 0.89043 0.0
C951 C 0.13588 0.4872 0.93018 0.0
C952 C 0.08132 0.52149 0.86393 0.0
C953 C 0.06873 0.50401 0.84392 0.0
C954 C 0.1132 0.49355 0.89758 0.0
C955 C 0.07926 0.4815 0.85075 0.0
C956 C 0.14347 0.46398 0.94653 0.0
C957 C 0.16797 0.49897 0.98482 0.0
N958 N 0.10076 0.4769 0.87737 0.0
N959 N 0.14866 0.50392 0.94895 0.0
H960 H 0.03959 0.83967 0.49497 0.0
H961 H 0.94287 0.93564 0.57373 0.0
H962 H 0.96867 0.84524 0.42644 0.0
H963 H 0.01282 0.92677 0.64974 0.0
H964 H 0.95107 0.90147 0.5242 0.0
H965 H 0.02905 0.86958 0.55773 0.0
C966 C 0.02162 0.8469 0.49413 0.0
C967 C 0.00497 0.83992 0.4555 0.0
C968 C 0.9646 0.90693 0.55192 0.0
C969 C 0.99283 0.87473 0.52636 0.0
C970 C 0.95992 0.9265 0.58053 0.0
C971 C 0.97716 0.93435 0.61628 0.0
C972 C 0.98674 0.89497 0.5587 0.0
C973 C 0.99903 0.92175 0.62221 0.0
C974 C 0.01564 0.8641 0.5297 0.0
C975 C 0.98198 0.84995 0.45597 0.0
N976 N 0.00317 0.90281 0.5937 0.0
N977 N 0.97666 0.86704 0.49024 0.0
H978 H 0.68449 0.01708 0.40127 0.0
H979 H 0.60833 0.98923 0.69286 0.0
H980 H 0.71067 0.96709 0.54533 0.0
H981 H 0.57886 1.00035 0.51621 0.0
H982 H 0.64806 0.99151 0.65037 0.0
H983 H 0.64804 0.0228 0.45589 0.0
C984 C 0.68297 0.00813 0.44569 0.0
C985 C 0.70074 0.99193 0.46942 0.0
C986 C 0.63284 0.99365 0.62114 0.0
C987 C 0.65891 0.9979 0.53136 0.0
C988 C 0.61027 0.99241 0.64523 0.0
C989 C 0.59041 0.99446 0.60779 0.0
C990 C 0.63541 0.99769 0.55936 0.0
C991 C 0.59376 0.99847 0.54639 0.0
C992 C 0.66205 0.0111 0.47633 0.0
C993 C 0.69756 0.98009 0.5262 0.0
N994 N 0.6158 1.00008 0.5241 0.0
N995 N 0.67692 0.98319 0.55524 0.0
H996 H 0.52508 0.66455 0.43092 0.0
H997 H 0.46411 0.57377 0.65394 0.0
H998 H 0.45585 0.67691 0.49982 0.0
H999 H 0.53949 0.57649 0.66227 0.0
H1000 H 0.46168 0.61051 0.59019 0.0
H1001 H 0.53254 0.63252 0.51152 0.0
C1002 C 0.51187 0.66117 0.46449 0.0
C1003 C 0.48987 0.67345 0.45906 0.0
C1004 C 0.47879 0.60317 0.60602 0.0
C1005 C 0.4978 0.63637 0.54911 0.0
C1006 C 0.48023 0.58201 0.642 0.0
C1007 C 0.50207 0.5719 0.66333 0.0
C1008 C 0.49935 0.61431 0.58989 0.0
C1009 C 0.5223 0.58365 0.6467 0.0
C1010 C 0.51601 0.64272 0.50995 0.0
C1011 C 0.47309 0.66795 0.50271 0.0
N1012 N 0.5205 0.60415 0.61034 0.0
N1013 N 0.47721 0.64957 0.54504 0.0
H1014 H 0.83301 0.52476 0.5252 0.0
H1015 H 0.94022 0.56991 0.69788 0.0
H1016 H 0.84131 0.59633 0.54133 0.0
H1017 H 0.93622 0.49938 0.66399 0.0
H1018 H 0.901 0.57894 0.65412 0.0
H1019 H 0.86672 0.5141 0.59249 0.0
C1020 C 0.84136 0.53816 0.54478 0.0
C1021 C 0.83437 0.56145 0.52768 0.0
C1022 C 0.90864 0.56146 0.65647 0.0
C1023 C 0.87344 0.5495 0.60303 0.0
C1024 C 0.93112 0.5563 0.68127 0.0
C1025 C 0.94171 0.53389 0.68415 0.0
C1026 C 0.89653 0.5441 0.63434 0.0
C1027 C 0.92889 0.51695 0.66228 0.0
C1028 C 0.86086 0.53211 0.5824 0.0
C1029 C 0.84615 0.57816 0.55339 0.0
N1030 N 0.90706 0.52242 0.63814 0.0
N1031 N 0.86527 0.5719 0.58906 0.0
loop_
_geom_bond_atom_site_label_1
_geom_bond_atom_site_label_2
_geom_bond_distance
_geom_bond_site_symmetry_2
_ccdc_geom_bond_type
C0 C1 1.391 . S
C0 C4 1.391 . S
C0 H42 0.948 . S
C1 C0 1.391 . S
C1 C2 1.391 . S
C2 C1 1.391 . S
C2 H58 0.947 . S
C2 C59 1.392 . S
C3 C4 1.391 . S
C3 C7 1.397 . S
C3 C59 1.419 . S
C4 C0 1.391 . S
C4 C3 1.391 . S
C4 C5 1.399 . S
C5 C4 1.399 . S
C5 C8 1.396 . S
C5 C17 1.453 . S
C5 C18 1.684 . S
H6 C30 0.948 . S
C7 C3 1.397 . S
C7 C8 1.394 . S
C7 C26 1.723 . S
C8 C5 1.396 . S
C8 C7 1.394 . S
C8 C38 1.723 . S
H9 C32 0.947 . S
H10 C33 0.948 . S
H11 C39 0.982 . S
H12 C40 0.979 . S
H13 C40 0.980 . S
H14 C40 0.983 . S
H15 C39 0.979 . S
H16 C39 0.977 . S
C17 C5 1.453 . S
C17 H46 0.982 . S
C17 H47 0.979 . S
C17 H48 0.977 . S
C18 C5 1.684 . S
C18 H43 0.979 . S
C18 H44 0.980 . S
C18 H45 0.983 . S
C19 C20 1.391 1_554 S
C19 C24 1.391 . S
C19 H49 0.948 . S
C20 C19 1.391 1_556 S
C20 C21 1.391 . S
C21 C20 1.391 . S
C21 C22 1.392 . S
C21 H50 0.947 . S
C22 C21 1.392 . S
C22 C23 1.419 1_556 S
C22 H51 0.948 . S
C23 C22 1.419 1_554 S
C23 C24 1.391 . S
C23 C27 1.397 . S
C24 C19 1.391 . S
C24 C23 1.391 . S
C24 C25 1.399 . S
C25 C24 1.399 . S
C25 C26 1.396 . S
C25 C28 1.453 . S
C25 C29 1.684 . S
C26 C7 1.723 . S
C26 C25 1.396 . S
C26 C27 1.394 . S
C27 C23 1.397 . S
C27 C26 1.394 . S
C27 C37 1.723 . S
C28 C25 1.453 . S
C28 H52 0.982 . S
C28 H53 0.979 . S
C28 H54 0.977 . S
C29 C25 1.684 . S
C29 H55 0.979 . S
C29 H56 0.980 . S
C29 H57 0.983 . S
C30 H6 0.948 . S
C30 C31 1.391 . S
C30 C35 1.391 . S
C31 C30 1.391 . S
C31 C32 1.391 . S
C32 H9 0.947 . S
C32 C31 1.391 . S
C32 C33 1.392 . S
C33 H10 0.948 . S
C33 C32 1.392 . S
C33 C34 1.419 . S
C34 C33 1.419 . S
C34 C35 1.391 . S
C34 C38 1.397 . S
C35 C30 1.391 . S
C35 C34 1.391 . S
C35 C36 1.399 . S
C36 C35 1.399 . S
C36 C37 1.396 . S
C36 C39 1.453 1_554 S
C36 C40 1.684 1_554 S
C37 C27 1.723 . S
C37 C36 1.396 . S
C37 C38 1.394 . S
C38 C8 1.723 . S
C38 C34 1.397 . S
C38 C37 1.394 . S
C39 H11 0.982 . S
C39 H15 0.979 . S
C39 H16 0.977 . S
C39 C36 1.453 1_556 S
C40 H12 0.979 . S
C40 H13 0.980 . S
C40 H14 0.983 . S
C40 C36 1.684 1_556 S
H41 C59 0.948 . S
H42 C0 0.948 . S
H43 C18 0.979 . S
H44 C18 0.980 . S
H45 C18 0.983 . S
H46 C17 0.982 . S
H47 C17 0.979 . S
H48 C17 0.977 . S
H49 C19 0.948 . S
H50 C21 0.947 . S
H51 C22 0.948 . S
H52 C28 0.982 . S
H53 C28 0.979 . S
H54 C28 0.977 . S
H55 C29 0.979 . S
H56 C29 0.980 . S
H57 C29 0.983 . S
H58 C2 0.947 . S
C59 C2 1.392 . S
C59 C3 1.419 . S
C59 H41 0.948 . S
C60 C61 1.391 . S
C60 C64 1.391 . S
C60 H102 0.948 . S
C61 C60 1.391 . S
C61 C62 1.391 1_556 S
C62 C61 1.391 1_554 S
C62 H118 0.947 . S
C62 C119 1.392 . S
C63 C64 1.391 1_554 S
C63 C67 1.397 1_655 S
C63 C119 1.419 . S
C64 C60 1.391 . S
C64 C63 1.391 1_556 S
C64 C65 1.399 . S
C65 C64 1.399 . S
C65 C68 1.396 1_656 S
C65 C77 1.453 1_655 S
C65 C78 1.684 . S
H66 C90 0.948 . S
C67 C63 1.397 1_455 S
C67 C68 1.394 . S
C67 C86 1.723 . S
C68 C65 1.396 1_454 S
C68 C67 1.394 . S
C68 C98 1.723 . S
H69 C92 0.947 1_556 S
H70 C93 0.948 1_556 S
H71 C99 0.982 . S
H72 C100 0.979 . S
H73 C100 0.980 . S
H74 C100 0.983 . S
H75 C99 0.979 . S
H76 C99 0.977 . S
C77 C65 1.453 1_455 S
C77 H106 0.982 . S
C77 H107 0.979 . S
C77 H108 0.977 . S
C78 C65 1.684 . S
C78 H103 0.979 . S
C78 H104 0.980 . S
C78 H105 0.983 . S
C79 C80 1.391 . S
C79 C84 1.391 . S
C79 H109 0.948 . S
C80 C79 1.391 . S
C80 C81 1.391 . S
C81 C80 1.391 . S
C81 C82 1.392 . S
C81 H110 0.947 . S
C82 C81 1.392 . S
C82 C83 1.419 . S
C82 H111 0.948 . S
C83 C82 1.419 . S
C83 C84 1.391 . S
C83 C87 1.397 1_655 S
C84 C79 1.391 . S
C84 C83 1.391 . S
C84 C85 1.399 . S
C85 C84 1.399 . S
C85 C86 1.396 1_655 S
C85 C88 1.453 1_655 S
C85 C89 1.684 . S
C86 C67 1.723 . S
C86 C85 1.396 1_455 S
C86 C87 1.394 . S
C87 C83 1.397 1_455 S
C87 C86 1.394 . S
C87 C97 1.723 . S
C88 C85 1.453 1_455 S
C88 H112 0.982 . S
C88 H113 0.979 . S
C88 H114 0.977 . S
C89 C85 1.684 . S
C89 H115 0.979 . S
C89 H116 0.980 . S
C89 H117 0.983 . S
C90 H66 0.948 . S
C90 C91 1.391 . S
C90 C95 1.391 . S
C91 C90 1.391 . S
C91 C92 1.391 . S
C92 H69 0.947 1_554 S
C92 C91 1.391 . S
C92 C93 1.392 . S
C93 H70 0.948 1_554 S
C93 C92 1.392 . S
C93 C94 1.419 . S
C94 C93 1.419 . S
C94 C95 1.391 . S
C94 C98 1.397 1_655 S
C95 C90 1.391 . S
C95 C94 1.391 . S
C95 C96 1.399 . S
C96 C95 1.399 . S
C96 C97 1.396 1_655 S
C96 C99 1.453 1_655 S
C96 C100 1.684 . S
C97 C87 1.723 . S
C97 C96 1.396 1_455 S
C97 C98 1.394 . S
C98 C68 1.723 . S
C98 C94 1.397 1_455 S
C98 C97 1.394 . S
C99 H71 0.982 . S
C99 H75 0.979 . S
C99 H76 0.977 . S
C99 C96 1.453 1_455 S
C100 H72 0.979 . S
C100 H73 0.980 . S
C100 H74 0.983 . S
C100 C96 1.684 . S
H101 C119 0.948 . S
H102 C60 0.948 . S
H103 C78 0.979 . S
H104 C78 0.980 . S
H105 C78 0.983 . S
H106 C77 0.982 . S
H107 C77 0.979 . S
H108 C77 0.977 . S
H109 C79 0.948 . S
H110 C81 0.947 . S
H111 C82 0.948 . S
H112 C88 0.982 . S
H113 C88 0.979 . S
H114 C88 0.977 . S
H115 C89 0.979 . S
H116 C89 0.980 . S
H117 C89 0.983 . S
H118 C62 0.947 . S
C119 C62 1.392 . S
C119 C63 1.419 . S
C119 H101 0.948 . S
C120 C121 1.391 . S
C120 C124 1.391 . S
C120 H162 0.948 . S
C121 C120 1.391 . S
C121 C122 1.391 1_554 S
C122 C121 1.391 1_556 S
C122 H178 0.947 . S
C122 C179 1.393 . S
C123 C124 1.391 . S
C123 C127 1.397 . S
C123 C179 1.410 1_554 S
C124 C120 1.391 . S
C124 C123 1.391 . S
C124 C125 1.399 . S
C125 C124 1.399 . S
C125 C128 1.396 . S
C125 C137 1.453 . S
C125 C138 1.684 . S
H126 C150 0.948 . S
C127 C123 1.397 . S
C127 C128 1.394 . S
C127 C146 1.723 . S
C128 C125 1.396 . S
C128 C127 1.394 . S
C128 C158 1.723 . S
H129 C152 0.947 . S
H130 C153 0.948 . S
H131 C159 0.982 . S
H132 C160 0.979 . S
H133 C160 0.980 . S
H134 C160 0.983 . S
H135 C159 0.979 . S
H136 C159 0.977 . S
C137 C125 1.453 . S
C137 H166 0.982 . S
C137 H167 0.979 . S
C137 H168 0.977 . S
C138 C125 1.684 . S
C138 H163 0.979 . S
C138 H164 0.980 . S
C138 H165 0.983 . S
C139 C140 1.391 . S
C139 C144 1.391 . S
C139 H169 0.948 . S
C140 C139 1.391 . S
C140 C141 1.391 . S
C141 C140 1.391 . S
C141 C142 1.392 1_556 S
C141 H170 0.947 . S
C142 C141 1.392 1_554 S
C142 C143 1.419 . S
C142 H171 0.948 . S
C143 C142 1.419 . S
C143 C144 1.391 1_554 S
C143 C147 1.397 . S
C144 C139 1.391 . S
C144 C143 1.391 1_556 S
C144 C145 1.399 . S
C145 C144 1.399 . S
C145 C146 1.396 1_556 S
C145 C148 1.453 . S
C145 C149 1.684 . S
C146 C127 1.723 . S
C146 C145 1.396 1_554 S
C146 C147 1.394 . S
C147 C143 1.397 . S
C147 C146 1.394 . S
C147 C157 1.723 . S
C148 C145 1.453 . S
C148 H172 0.982 . S
C148 H173 0.979 . S
C148 H174 0.977 . S
C149 C145 1.684 . S
C149 H175 0.979 . S
C149 H176 0.980 . S
C149 H177 0.983 . S
C150 H126 0.948 . S
C150 C151 1.391 . S
C150 C155 1.391 . S
C151 C150 1.391 . S
C151 C152 1.391 . S
C152 H129 0.947 . S
C152 C151 1.391 . S
C152 C153 1.392 . S
C153 H130 0.948 . S
C153 C152 1.392 . S
C153 C154 1.419 . S
C154 C153 1.419 . S
C154 C155 1.391 . S
C154 C158 1.397 . S
C155 C150 1.391 . S
C155 C154 1.391 . S
C155 C156 1.399 . S
C156 C155 1.399 . S
C156 C157 1.396 . S
C156 C159 1.453 . S
C156 C160 1.684 . S
C157 C147 1.723 . S
C157 C156 1.396 . S
C157 C158 1.394 . S
C158 C128 1.723 . S
C158 C154 1.397 . S
C158 C157 1.394 . S
C159 H131 0.982 . S
C159 H135 0.979 . S
C159 H136 0.977 . S
C159 C156 1.453 . S
C160 H132 0.979 . S
C160 H133 0.980 . S
C160 H134 0.983 . S
C160 C156 1.684 . S
H161 C179 0.955 . S
H162 C120 0.948 . S
H163 C138 0.979 . S
H164 C138 0.980 . S
H165 C138 0.983 . S
H166 C137 0.982 . S
H167 C137 0.979 . S
H168 C137 0.977 . S
H169 C139 0.948 . S
H170 C141 0.947 . S
H171 C142 0.948 . S
H172 C148 0.982 . S
H173 C148 0.979 . S
H174 C148 0.977 . S
H175 C149 0.979 . S
H176 C149 0.980 . S
H177 C149 0.983 . S
H178 C122 0.947 . S
C179 C122 1.393 . S
C179 C123 1.410 1_556 S
C179 H161 0.955 . S
C180 C181 1.391 . S
C180 C184 1.391 . S
C180 H222 0.948 . S
C181 C180 1.391 . S
C181 C182 1.391 . S
C182 C181 1.391 . S
C182 H238 0.947 . S
C182 C239 1.392 . S
C183 C184 1.391 . S
C183 C187 1.397 . S
C183 C239 1.419 . S
C184 C180 1.391 . S
C184 C183 1.391 . S
C184 C185 1.399 . S
C185 C184 1.399 . S
C185 C188 1.396 . S
C185 C197 1.453 . S
C185 C198 1.684 . S
H186 C210 0.948 1_556 S
C187 C183 1.397 . S
C187 C188 1.394 . S
C187 C206 1.723 . S
C188 C185 1.396 . S
C188 C187 1.394 . S
C188 C218 1.723 . S
H189 C212 0.947 . S
H190 C213 0.948 . S
H191 C219 0.982 1_554 S
H192 C220 0.979 . S
H193 C220 0.980 . S
H194 C220 0.983 . S
H195 C219 0.979 . S
H196 C219 0.977 . S
C197 C185 1.453 . S
C197 H226 0.982 . S
C197 H227 0.979 . S
C197 H228 0.977 . S
C198 C185 1.684 . S
C198 H223 0.979 . S
C198 H224 0.980 . S
C198 H225 0.983 . S
C199 C200 1.391 1_554 S
C199 C204 1.391 . S
C199 H229 0.948 . S
C200 C199 1.391 1_556 S
C200 C201 1.391 . S
C201 C200 1.391 . S
C201 C202 1.392 . S
C201 H230 0.947 . S
C202 C201 1.392 . S
C202 C203 1.419 1_556 S
C202 H231 0.948 . S
C203 C202 1.419 1_554 S
C203 C204 1.391 . S
C203 C207 1.397 . S
C204 C199 1.391 . S
C204 C203 1.391 . S
C204 C205 1.399 . S
C205 C204 1.399 . S
C205 C206 1.396 . S
C205 C208 1.453 . S
C205 C209 1.684 . S
C206 C187 1.723 . S
C206 C205 1.396 . S
C206 C207 1.394 . S
C207 C203 1.397 . S
C207 C206 1.394 . S
C207 C217 1.723 . S
C208 C205 1.453 . S
C208 H232 0.982 . S
C208 H233 0.979 . S
C208 H234 0.977 . S
C209 C205 1.684 . S
C209 H235 0.979 . S
C209 H236 0.980 . S
C209 H237 0.983 . S
C210 H186 0.948 1_554 S
C210 C211 1.391 . S
C210 C215 1.391 . S
C211 C210 1.391 . S
C211 C212 1.391 . S
C212 H189 0.947 . S
C212 C211 1.391 . S
C212 C213 1.392 . S
C213 H190 0.948 . S
C213 C212 1.392 . S
C213 C214 1.419 . S
C214 C213 1.419 . S
C214 C215 1.391 . S
C214 C218 1.397 . S
C215 C210 1.391 . S
C215 C214 1.391 . S
C215 C216 1.399 . S
C216 C215 1.399 . S
C216 C217 1.396 . S
C216 C219 1.453 1_554 S
C216 C220 1.684 1_554 S
C217 C207 1.723 . S
C217 C216 1.396 . S
C217 C218 1.394 . S
C218 C188 1.723 . S
C218 C214 1.397 . S
C218 C217 1.394 . S
C219 H191 0.982 1_556 S
C219 H195 0.979 . S
C219 H196 0.977 . S
C219 C216 1.453 1_556 S
C220 H192 0.979 . S
C220 H193 0.980 . S
C220 H194 0.983 . S
C220 C216 1.684 1_556 S
H221 C239 0.948 . S
H222 C180 0.948 . S
H223 C198 0.979 . S
H224 C198 0.980 . S
H225 C198 0.983 . S
H226 C197 0.982 . S
H227 C197 0.979 . S
H228 C197 0.977 . S
H229 C199 0.948 . S
H230 C201 0.947 . S
H231 C202 0.948 . S
H232 C208 0.982 . S
H233 C208 0.979 . S
H234 C208 0.977 . S
H235 C209 0.979 . S
H236 C209 0.980 . S
H237 C209 0.983 . S
H238 C182 0.947 . S
C239 C182 1.392 . S
C239 C183 1.419 . S
C239 H221 0.948 . S
C240 C241 1.391 . S
C240 C244 1.391 . S
C240 H282 0.948 . S
C241 C240 1.391 . S
C241 C242 1.391 . S
C242 C241 1.391 . S
C242 H298 0.947 . S
C242 C299 1.392 . S
C243 C244 1.391 . S
C243 C247 1.397 . S
C243 C299 1.419 . S
C244 C240 1.391 . S
C244 C243 1.391 . S
C244 C245 1.399 . S
C245 C244 1.399 . S
C245 C248 1.396 . S
C245 C257 1.453 . S
C245 C258 1.684 . S
H246 C270 0.948 . S
C247 C243 1.397 . S
C247 C248 1.394 . S
C247 C266 1.723 . S
C248 C245 1.396 . S
C248 C247 1.394 . S
C248 C278 1.723 . S
H249 C272 0.947 . S
H250 C273 0.948 . S
H251 C279 0.982 . S
H252 C280 0.979 . S
H253 C280 0.980 . S
H254 C280 0.983 . S
H255 C279 0.979 . S
H256 C279 0.977 . S
C257 C245 1.453 . S
C257 H286 0.982 . S
C257 H287 0.979 . S
C257 H288 0.977 . S
C258 C245 1.684 . S
C258 H283 0.979 . S
C258 H284 0.980 . S
C258 H285 0.983 . S
C259 C260 1.391 . S
C259 C264 1.391 . S
C259 H289 0.948 . S
C260 C259 1.391 . S
C260 C261 1.391 . S
C261 C260 1.391 . S
C261 C262 1.392 . S
C261 H290 0.947 . S
C262 C261 1.392 . S
C262 C263 1.419 . S
C262 H291 0.948 . S
C263 C262 1.419 . S
C263 C264 1.391 . S
C263 C267 1.397 . S
C264 C259 1.391 . S
C264 C263 1.391 . S
C264 C265 1.399 . S
C265 C264 1.399 . S
C265 C266 1.396 . S
C265 C268 1.453 . S
C265 C269 1.684 . S
C266 C247 1.723 . S
C266 C265 1.396 . S
C266 C267 1.394 . S
C267 C263 1.397 . S
C267 C266 1.394 . S
C267 C277 1.723 . S
C268 C265 1.453 . S
C268 H292 0.982 . S
C268 H293 0.979 . S
C268 H294 0.977 . S
C269 C265 1.684 . S
C269 H295 0.979 . S
C269 H296 0.980 . S
C269 H297 0.983 . S
C270 H246 0.948 . S
C270 C271 1.391 . S
C270 C275 1.391 . S
C271 C270 1.391 . S
C271 C272 1.391 . S
C272 H249 0.947 . S
C272 C271 1.391 . S
C272 C273 1.392 . S
C273 H250 0.948 . S
C273 C272 1.392 . S
C273 C274 1.419 . S
C274 C273 1.419 . S
C274 C275 1.391 . S
C274 C278 1.397 . S
C275 C270 1.391 . S
C275 C274 1.391 . S
C275 C276 1.399 . S
C276 C275 1.399 . S
C276 C277 1.396 . S
C276 C279 1.453 . S
C276 C280 1.684 . S
C277 C267 1.723 . S
C277 C276 1.396 . S
C277 C278 1.394 . S
C278 C248 1.723 . S
C278 C274 1.397 . S
C278 C277 1.394 . S
C279 H251 0.982 . S
C279 H255 0.979 . S
C279 H256 0.977 . S
C279 C276 1.453 . S
C280 H252 0.979 . S
C280 H253 0.980 . S
C280 H254 0.983 . S
C280 C276 1.684 . S
H281 C299 0.948 . S
H282 C240 0.948 . S
H283 C258 0.979 . S
H284 C258 0.980 . S
H285 C258 0.983 . S
H286 C257 0.982 . S
H287 C257 0.979 . S
H288 C257 0.977 . S
H289 C259 0.948 . S
H290 C261 0.947 . S
H291 C262 0.948 . S
H292 C268 0.982 . S
H293 C268 0.979 . S
H294 C268 0.977 . S
H295 C269 0.979 . S
H296 C269 0.980 . S
H297 C269 0.983 . S
H298 C242 0.947 . S
C299 C242 1.392 . S
C299 C243 1.419 . S
C299 H281 0.948 . S
C300 C301 1.391 . S
C300 C304 1.391 . S
C300 H342 0.948 . S
C301 C300 1.391 . S
C301 C302 1.391 . S
C302 C301 1.391 . S
C302 H358 0.947 . S
C302 C359 1.392 . S
C303 C304 1.391 . S
C303 C307 1.396 1_655 S
C303 C359 1.419 . S
C304 C300 1.391 . S
C304 C303 1.391 . S
C304 C305 1.399 . S
C305 C304 1.399 . S
C305 C308 1.396 1_655 S
C305 C317 1.453 1_655 S
C305 C318 1.684 . S
H306 C330 0.948 . S
C307 C303 1.396 1_455 S
C307 C308 1.395 . S
C307 C326 1.723 . S
C308 C305 1.396 1_455 S
C308 C307 1.395 . S
C308 C338 1.723 . S
H309 C332 0.947 . S
H310 C333 0.948 . S
H311 C339 0.982 . S
H312 C340 0.979 . S
H313 C340 0.980 . S
H314 C340 0.983 . S
H315 C339 0.979 . S
H316 C339 0.977 . S
C317 C305 1.453 1_455 S
C317 H346 0.982 . S
C317 H347 0.979 . S
C317 H348 0.977 . S
C318 C305 1.684 . S
C318 H343 0.979 . S
C318 H344 0.980 . S
C318 H345 0.983 . S
C319 C320 1.391 . S
C319 C324 1.391 . S
C319 H349 0.948 . S
C320 C319 1.391 . S
C320 C321 1.391 . S
C321 C320 1.391 . S
C321 C322 1.392 . S
C321 H350 0.947 . S
C322 C321 1.392 . S
C322 C323 1.419 . S
C322 H351 0.948 . S
C323 C322 1.419 . S
C323 C324 1.391 . S
C323 C327 1.396 1_655 S
C324 C319 1.391 . S
C324 C323 1.391 . S
C324 C325 1.399 . S
C325 C324 1.399 . S
C325 C326 1.396 1_655 S
C325 C328 1.453 1_655 S
C325 C329 1.684 . S
C326 C307 1.723 . S
C326 C325 1.396 1_455 S
C326 C327 1.394 . S
C327 C323 1.396 1_455 S
C327 C326 1.394 . S
C327 C337 1.724 . S
C328 C325 1.453 1_455 S
C328 H352 0.982 . S
C328 H353 0.979 . S
C328 H354 0.977 . S
C329 C325 1.684 . S
C329 H355 0.979 . S
C329 H356 0.980 . S
C329 H357 0.983 . S
C330 H306 0.948 . S
C330 C331 1.391 . S
C330 C335 1.391 . S
C331 C330 1.391 . S
C331 C332 1.391 . S
C332 H309 0.947 . S
C332 C331 1.391 . S
C332 C333 1.392 . S
C333 H310 0.948 . S
C333 C332 1.392 . S
C333 C334 1.419 . S
C334 C333 1.419 . S
C334 C335 1.391 . S
C334 C338 1.397 1_655 S
C335 C330 1.391 . S
C335 C334 1.391 . S
C335 C336 1.399 . S
C336 C335 1.399 . S
C336 C337 1.396 1_655 S
C336 C339 1.453 1_655 S
C336 C340 1.684 . S
C337 C327 1.724 . S
C337 C336 1.396 1_455 S
C337 C338 1.395 . S
C338 C308 1.723 . S
C338 C334 1.397 1_455 S
C338 C337 1.395 . S
C339 H311 0.982 . S
C339 H315 0.979 . S
C339 H316 0.977 . S
C339 C336 1.453 1_455 S
C340 H312 0.979 . S
C340 H313 0.980 . S
C340 H314 0.983 . S
C340 C336 1.684 . S
H341 C359 0.948 . S
H342 C300 0.948 . S
H343 C318 0.979 . S
H344 C318 0.980 . S
H345 C318 0.983 . S
H346 C317 0.982 . S
H347 C317 0.979 . S
H348 C317 0.977 . S
H349 C319 0.948 . S
H350 C321 0.947 . S
H351 C322 0.948 . S
H352 C328 0.982 . S
H353 C328 0.979 . S
H354 C328 0.977 . S
H355 C329 0.979 . S
H356 C329 0.980 . S
H357 C329 0.983 . S
H358 C302 0.947 . S
C359 C302 1.392 . S
C359 C303 1.419 . S
C359 H341 0.948 . S
C360 C361 1.391 . S
C360 C364 1.391 . S
C360 H402 0.948 . S
C361 C360 1.391 . S
C361 C362 1.391 . S
C362 C361 1.391 . S
C362 H418 0.947 . S
C362 C419 1.392 . S
C363 C364 1.391 . S
C363 C367 1.397 . S
C363 C419 1.419 . S
C364 C360 1.391 . S
C364 C363 1.391 . S
C364 C365 1.399 . S
C365 C364 1.399 . S
C365 C368 1.396 . S
C365 C377 1.453 . S
C365 C378 1.684 . S
H366 C390 0.948 . S
C367 C363 1.397 . S
C367 C368 1.394 . S
C367 C386 1.723 . S
C368 C365 1.396 . S
C368 C367 1.394 . S
C368 C398 1.723 . S
H369 C392 0.947 . S
H370 C393 0.948 . S
H371 C399 0.982 . S
H372 C400 0.979 . S
H373 C400 0.980 . S
H374 C400 0.983 . S
H375 C399 0.979 . S
H376 C399 0.977 . S
C377 C365 1.453 . S
C377 H406 0.982 . S
C377 H407 0.979 . S
C377 H408 0.977 . S
C378 C365 1.684 . S
C378 H403 0.979 . S
C378 H404 0.980 . S
C378 H405 0.983 . S
C379 C380 1.391 . S
C379 C384 1.391 . S
C379 H409 0.948 . S
C380 C379 1.391 . S
C380 C381 1.391 . S
C381 C380 1.391 . S
C381 C382 1.392 . S
C381 H410 0.947 . S
C382 C381 1.392 . S
C382 C383 1.419 . S
C382 H411 0.948 . S
C383 C382 1.419 . S
C383 C384 1.391 . S
C383 C387 1.397 . S
C384 C379 1.391 . S
C384 C383 1.391 . S
C384 C385 1.399 . S
C385 C384 1.399 . S
C385 C386 1.396 . S
C385 C388 1.453 . S
C385 C389 1.684 . S
C386 C367 1.723 . S
C386 C385 1.396 . S
C386 C387 1.394 . S
C387 C383 1.397 . S
C387 C386 1.394 . S
C387 C397 1.723 . S
C388 C385 1.453 . S
C388 H412 0.982 . S
C388 H413 0.979 . S
C388 H414 0.977 . S
C389 C385 1.684 . S
C389 H415 0.979 . S
C389 H416 0.980 . S
C389 H417 0.983 . S
C390 H366 0.948 . S
C390 C391 1.391 . S
C390 C395 1.391 . S
C391 C390 1.391 . S
C391 C392 1.391 . S
C392 H369 0.947 . S
C392 C391 1.391 . S
C392 C393 1.392 . S
C393 H370 0.948 . S
C393 C392 1.392 . S
C393 C394 1.419 . S
C394 C393 1.419 . S
C394 C395 1.391 . S
C394 C398 1.397 . S
C395 C390 1.391 . S
C395 C394 1.391 . S
C395 C396 1.399 . S
C396 C395 1.399 . S
C396 C397 1.396 . S
C396 C399 1.453 . S
C396 C400 1.684 . S
C397 C387 1.723 . S
C397 C396 1.396 . S
C397 C398 1.394 . S
C398 C368 1.723 . S
C398 C394 1.397 . S
C398 C397 1.394 . S
C399 H371 0.982 . S
C399 H375 0.979 . S
C399 H376 0.977 . S
C399 C396 1.453 . S
C400 H372 0.979 . S
C400 H373 0.980 . S
C400 H374 0.983 . S
C400 C396 1.684 . S
H401 C419 0.948 . S
H402 C360 0.948 . S
H403 C378 0.979 . S
H404 C378 0.980 . S
H405 C378 0.983 . S
H406 C377 0.982 . S
H407 C377 0.979 . S
H408 C377 0.977 . S
H409 C379 0.948 . S
H410 C381 0.947 . S
H411 C382 0.948 . S
H412 C388 0.982 . S
H413 C388 0.979 . S
H414 C388 0.977 . S
H415 C389 0.979 . S
H416 C389 0.980 . S
H417 C389 0.983 . S
H418 C362 0.947 . S
C419 C362 1.392 . S
C419 C363 1.419 . S
C419 H401 0.948 . S
C420 C421 1.391 . S
C420 C424 1.391 . S
C420 H462 0.948 . S
C421 C420 1.391 . S
C421 C422 1.391 . S
C422 C421 1.391 . S
C422 H478 0.947 . S
C422 C479 1.392 . S
C423 C424 1.391 . S
C423 C427 1.397 . S
C423 C479 1.419 . S
C424 C420 1.391 . S
C424 C423 1.391 . S
C424 C425 1.399 . S
C425 C424 1.399 . S
C425 C428 1.396 . S
C425 C437 1.453 . S
C425 C438 1.684 . S
H426 C450 0.948 . S
C427 C423 1.397 . S
C427 C428 1.394 . S
C427 C446 1.723 . S
C428 C425 1.396 . S
C428 C427 1.394 . S
C428 C458 1.723 . S
H429 C452 0.947 . S
H430 C453 0.948 . S
H431 C459 0.982 . S
H432 C460 0.979 . S
H433 C460 0.980 . S
H434 C460 0.983 . S
H435 C459 0.979 . S
H436 C459 0.977 . S
C437 C425 1.453 . S
C437 H466 0.982 . S
C437 H467 0.979 . S
C437 H468 0.977 . S
C438 C425 1.684 . S
C438 H463 0.979 . S
C438 H464 0.980 . S
C438 H465 0.983 . S
C439 C440 1.391 . S
C439 C444 1.391 . S
C439 H469 0.948 . S
C440 C439 1.391 . S
C440 C441 1.391 . S
C441 C440 1.391 . S
C441 C442 1.392 . S
C441 H470 0.947 . S
C442 C441 1.392 . S
C442 C443 1.419 . S
C442 H471 0.948 . S
C443 C442 1.419 . S
C443 C444 1.391 . S
C443 C447 1.397 . S
C444 C439 1.391 . S
C444 C443 1.391 . S
C444 C445 1.399 . S
C445 C444 1.399 . S
C445 C446 1.396 . S
C445 C448 1.453 . S
C445 C449 1.684 . S
C446 C427 1.723 . S
C446 C445 1.396 . S
C446 C447 1.394 . S
C447 C443 1.397 . S
C447 C446 1.394 . S
C447 C457 1.723 . S
C448 C445 1.453 . S
C448 H472 0.982 . S
C448 H473 0.979 . S
C448 H474 0.977 . S
C449 C445 1.684 . S
C449 H475 0.979 . S
C449 H476 0.980 . S
C449 H477 0.983 . S
C450 H426 0.948 . S
C450 C451 1.391 . S
C450 C455 1.391 . S
C451 C450 1.391 . S
C451 C452 1.391 . S
C452 H429 0.947 . S
C452 C451 1.391 . S
C452 C453 1.392 . S
C453 H430 0.948 . S
C453 C452 1.392 . S
C453 C454 1.419 . S
C454 C453 1.419 . S
C454 C455 1.391 . S
C454 C458 1.397 . S
C455 C450 1.391 . S
C455 C454 1.391 . S
C455 C456 1.399 . S
C456 C455 1.399 . S
C456 C457 1.396 . S
C456 C459 1.453 . S
C456 C460 1.684 . S
C457 C447 1.723 . S
C457 C456 1.396 . S
C457 C458 1.394 . S
C458 C428 1.723 . S
C458 C454 1.397 . S
C458 C457 1.394 . S
C459 H431 0.982 . S
C459 H435 0.979 . S
C459 H436 0.977 . S
C459 C456 1.453 . S
C460 H432 0.979 . S
C460 H433 0.980 . S
C460 H434 0.983 . S
C460 C456 1.684 . S
H461 C479 0.948 . S
H462 C420 0.948 . S
H463 C438 0.979 . S
H464 C438 0.980 . S
H465 C438 0.983 . S
H466 C437 0.982 . S
H467 C437 0.979 . S
H468 C437 0.977 . S
H469 C439 0.948 . S
H470 C441 0.947 . S
H471 C442 0.948 . S
H472 C448 0.982 . S
H473 C448 0.979 . S
H474 C448 0.977 . S
H475 C449 0.979 . S
H476 C449 0.980 . S
H477 C449 0.983 . S
H478 C422 0.947 . S
C479 C422 1.392 . S
C479 C423 1.419 . S
C479 H461 0.948 . S
Co480 N485 2.057 . S
Co480 O497 2.021 . S
Co480 O500 2.062 1_455 S
Co480 O504 2.117 1_455 S
Co480 O505 2.020 1_545 S
C481 O501 1.259 1_545 S
C481 O504 1.258 . S
Co482 N491 2.057 . S
Co482 O498 2.117 1_665 S
Co482 O499 2.020 1_565 S
Co482 O501 2.021 . S
Co482 O506 2.062 1_655 S
C483 N485 1.316 . S
C483 N486 1.347 . S
C483 H488 0.931 . S
C484 N485 1.375 1_655 S
C484 C487 1.350 . S
C484 H489 0.930 . S
N485 Co480 2.057 . S
N485 C483 1.316 . S
N485 C484 1.375 1_455 S
N486 C483 1.347 . S
N486 C487 1.373 1_455 S
C487 C484 1.350 . S
C487 N486 1.373 1_655 S
C487 H508 0.931 . S
H488 C483 0.931 . S
H489 C484 0.930 . S
C490 O497 1.259 . S
C490 O498 1.258 . S
N491 Co482 2.057 . S
N491 C492 1.316 . S
N491 C493 1.375 1_655 S
C492 N491 1.316 . S
C492 N494 1.347 . S
C492 H503 0.931 . S
C493 N491 1.375 1_455 S
C493 C495 1.350 . S
C493 H502 0.930 . S
N494 C492 1.347 . S
N494 C495 1.373 1_655 S
C495 C493 1.350 . S
C495 N494 1.373 1_455 S
C495 H509 0.931 . S
C496 O499 1.256 . S
C496 O500 1.255 . S
O497 Co480 2.021 . S
O497 C490 1.259 . S
O498 Co482 2.117 1_445 S
O498 C490 1.258 . S
O499 Co482 2.020 1_545 S
O499 C496 1.256 . S
O500 Co480 2.062 1_655 S
O500 C496 1.255 . S
O501 C481 1.259 1_565 S
O501 Co482 2.021 . S
H502 C493 0.930 . S
H503 C492 0.931 . S
O504 Co480 2.117 1_655 S
O504 C481 1.258 . S
O505 Co480 2.020 1_565 S
O505 C507 1.256 . S
O506 Co482 2.062 1_455 S
O506 C507 1.255 . S
C507 O505 1.256 . S
C507 O506 1.255 . S
H508 C487 0.931 . S
H509 C495 0.931 . S
Co510 N515 2.057 . S
Co510 O527 2.021 . S
Co510 O530 2.062 . S
Co510 O534 2.117 1_545 S
Co510 O535 2.020 . S
C511 O531 1.259 . S
C511 O534 1.258 . S
Co512 N521 2.056 1_545 S
Co512 O528 2.123 . S
Co512 O529 2.020 . S
Co512 O531 2.015 1_545 S
Co512 O536 2.062 1_545 S
C513 N515 1.316 . S
C513 N516 1.347 . S
C513 H518 0.931 . S
C514 N515 1.375 . S
C514 C517 1.350 . S
C514 H519 0.930 1_545 S
N515 Co510 2.057 . S
N515 C513 1.316 . S
N515 C514 1.375 . S
N516 C513 1.347 . S
N516 C517 1.373 . S
C517 C514 1.350 . S
C517 N516 1.373 . S
C517 H538 0.931 . S
H518 C513 0.931 . S
H519 C514 0.930 1_565 S
C520 O527 1.259 . S
C520 O528 1.258 . S
N521 Co512 2.056 1_565 S
N521 C522 1.316 . S
N521 C523 1.375 1_565 S
C522 N521 1.316 . S
C522 N524 1.347 . S
C522 H533 0.931 . S
C523 N521 1.375 1_545 S
C523 C525 1.350 . S
C523 H532 0.930 . S
N524 C522 1.347 . S
N524 C525 1.373 1_565 S
C525 C523 1.350 . S
C525 N524 1.373 1_545 S
C525 H539 0.931 . S
C526 O529 1.256 . S
C526 O530 1.255 . S
O527 Co510 2.021 . S
O527 C520 1.259 . S
O528 Co512 2.123 . S
O528 C520 1.258 . S
O529 Co512 2.020 . S
O529 C526 1.256 . S
O530 Co510 2.062 . S
O530 C526 1.255 . S
O531 C511 1.259 . S
O531 Co512 2.015 1_565 S
H532 C523 0.930 . S
H533 C522 0.931 . S
O534 Co510 2.117 1_565 S
O534 C511 1.258 . S
O535 Co510 2.020 . S
O535 C537 1.256 . S
O536 Co512 2.062 1_565 S
O536 C537 1.255 1_565 S
C537 O535 1.256 . S
C537 O536 1.255 1_545 S
H538 C517 0.931 . S
H539 C525 0.931 . S
Co540 N545 2.057 . S
Co540 O557 2.021 . S
Co540 O560 2.062 . S
Co540 O564 2.117 . S
Co540 O565 2.020 . S
C541 O561 1.259 . S
C541 O564 1.258 . S
Co542 N551 2.057 . S
Co542 O558 2.117 . S
Co542 O559 2.020 . S
Co542 O561 2.021 . S
Co542 O566 2.062 . S
C543 N545 1.316 . S
C543 N546 1.347 . S
C543 H548 0.931 . S
C544 N545 1.375 . S
C544 C547 1.350 . S
C544 H549 0.930 . S
N545 Co540 2.057 . S
N545 C543 1.316 . S
N545 C544 1.375 . S
N546 C543 1.347 . S
N546 C547 1.373 . S
C547 C544 1.350 . S
C547 N546 1.373 . S
C547 H568 0.931 . S
H548 C543 0.931 . S
H549 C544 0.930 . S
C550 O557 1.259 . S
C550 O558 1.258 . S
N551 Co542 2.057 . S
N551 C552 1.316 . S
N551 C553 1.375 . S
C552 N551 1.316 . S
C552 N554 1.347 . S
C552 H563 0.931 . S
C553 N551 1.375 . S
C553 C555 1.350 . S
C553 H562 0.930 . S
N554 C552 1.347 . S
N554 C555 1.373 . S
C555 C553 1.350 . S
C555 N554 1.373 . S
C555 H569 0.931 . S
C556 O559 1.256 . S
C556 O560 1.255 . S
O557 Co540 2.021 . S
O557 C550 1.259 . S
O558 Co542 2.117 . S
O558 C550 1.258 . S
O559 Co542 2.020 . S
O559 C556 1.256 . S
O560 Co540 2.062 . S
O560 C556 1.255 . S
O561 C541 1.259 . S
O561 Co542 2.021 . S
H562 C553 0.930 . S
H563 C552 0.931 . S
O564 Co540 2.117 . S
O564 C541 1.258 . S
O565 Co540 2.020 . S
O565 C567 1.256 . S
O566 Co542 2.062 . S
O566 C567 1.255 . S
C567 O565 1.256 . S
C567 O566 1.255 . S
H568 C547 0.931 . S
H569 C555 0.931 . S
Co570 N575 2.057 . S
Co570 O587 2.021 1_455 S
Co570 O590 2.062 1_455 S
Co570 O594 2.117 . S
Co570 O595 2.020 . S
C571 O591 1.259 . S
C571 O594 1.258 . S
Co572 N581 2.057 . S
Co572 O588 2.117 . S
Co572 O589 2.020 . S
Co572 O591 2.021 1_655 S
Co572 O596 2.062 1_655 S
C573 N575 1.316 . S
C573 N576 1.347 . S
C573 H578 0.931 1_455 S
C574 N575 1.375 . S
C574 C577 1.350 . S
C574 H579 0.930 . S
N575 Co570 2.057 . S
N575 C573 1.316 . S
N575 C574 1.375 . S
N576 C573 1.347 . S
N576 C577 1.373 . S
C577 C574 1.350 . S
C577 N576 1.373 . S
C577 H598 0.931 . S
H578 C573 0.931 1_655 S
H579 C574 0.930 . S
C580 O587 1.259 . S
C580 O588 1.258 . S
N581 Co572 2.057 . S
N581 C582 1.316 . S
N581 C583 1.375 . S
C582 N581 1.316 . S
C582 N584 1.347 . S
C582 H593 0.931 1_655 S
C583 N581 1.375 . S
C583 C585 1.350 . S
C583 H592 0.930 . S
N584 C582 1.347 . S
N584 C585 1.373 . S
C585 C583 1.350 . S
C585 N584 1.373 . S
C585 H599 0.931 . S
C586 O589 1.256 . S
C586 O590 1.255 . S
O587 Co570 2.021 1_655 S
O587 C580 1.259 . S
O588 Co572 2.117 . S
O588 C580 1.258 . S
O589 Co572 2.020 . S
O589 C586 1.256 . S
O590 Co570 2.062 1_655 S
O590 C586 1.255 . S
O591 C571 1.259 . S
O591 Co572 2.021 1_455 S
H592 C583 0.930 . S
H593 C582 0.931 1_455 S
O594 Co570 2.117 . S
O594 C571 1.258 . S
O595 Co570 2.020 . S
O595 C597 1.256 . S
O596 Co572 2.062 1_455 S
O596 C597 1.255 . S
C597 O595 1.256 . S
C597 O596 1.255 . S
H598 C577 0.931 . S
H599 C585 0.931 . S
H600 C606 0.930 . S
H601 C610 0.930 1_565 S
H602 C615 0.929 . S
H603 C613 0.929 . S
H604 C608 0.929 . S
H605 C614 0.929 . S
C606 H600 0.930 . S
C606 C607 1.367 . S
C606 C614 1.378 . S
C607 C606 1.367 . S
C607 C615 1.433 . S
C608 H604 0.929 . S
C608 C610 1.378 . S
C608 C612 1.350 . S
C609 C612 1.463 . S
C609 C614 1.350 . S
C609 N617 1.427 . S
C610 H601 0.930 1_545 S
C610 C608 1.378 . S
C610 C611 1.367 . S
C611 C610 1.367 . S
C611 C613 1.433 . S
C612 C608 1.350 . S
C612 C609 1.463 . S
C612 N616 1.427 . S
C613 H603 0.929 . S
C613 C611 1.433 . S
C613 N616 1.384 . S
C614 H605 0.929 . S
C614 C606 1.378 . S
C614 C609 1.350 . S
C615 H602 0.929 . S
C615 C607 1.433 . S
C615 N617 1.384 . S
N616 C612 1.427 . S
N616 C613 1.384 . S
N617 C609 1.427 . S
N617 C615 1.384 . S
H618 C624 0.930 . S
H619 C628 0.930 . S
H620 C633 0.929 . S
H621 C631 0.929 . S
H622 C626 0.929 . S
H623 C632 0.929 . S
C624 H618 0.930 . S
C624 C625 1.367 . S
C624 C632 1.378 . S
C625 C624 1.367 . S
C625 C633 1.433 . S
C626 H622 0.929 . S
C626 C628 1.378 . S
C626 C630 1.350 . S
C627 C630 1.463 . S
C627 C632 1.350 . S
C627 N635 1.427 . S
C628 H619 0.930 . S
C628 C626 1.378 . S
C628 C629 1.367 . S
C629 C628 1.367 . S
C629 C631 1.433 . S
C630 C626 1.350 . S
C630 C627 1.463 . S
C630 N634 1.427 . S
C631 H621 0.929 . S
C631 C629 1.433 . S
C631 N634 1.384 . S
C632 H623 0.929 . S
C632 C624 1.378 . S
C632 C627 1.350 . S
C633 H620 0.929 . S
C633 C625 1.433 . S
C633 N635 1.384 . S
N634 C630 1.427 . S
N634 C631 1.384 . S
N635 C627 1.427 . S
N635 C633 1.384 . S
H636 C642 0.930 . S
H637 C646 0.930 . S
H638 C651 0.929 . S
H639 C649 0.929 . S
H640 C644 0.929 . S
H641 C650 0.929 . S
C642 H636 0.930 . S
C642 C643 1.367 . S
C642 C650 1.378 . S
C643 C642 1.367 . S
C643 C651 1.433 . S
C644 H640 0.929 . S
C644 C646 1.378 . S
C644 C648 1.350 . S
C645 C648 1.463 . S
C645 C650 1.350 . S
C645 N653 1.427 . S
C646 H637 0.930 . S
C646 C644 1.378 . S
C646 C647 1.367 . S
C647 C646 1.367 . S
C647 C649 1.433 . S
C648 C644 1.350 . S
C648 C645 1.463 . S
C648 N652 1.427 . S
C649 H639 0.929 . S
C649 C647 1.433 . S
C649 N652 1.384 . S
C650 H641 0.929 . S
C650 C642 1.378 . S
C650 C645 1.350 . S
C651 H638 0.929 . S
C651 C643 1.433 . S
C651 N653 1.384 . S
N652 C648 1.427 . S
N652 C649 1.384 . S
N653 C645 1.427 . S
N653 C651 1.384 . S
H654 C660 0.930 . S
H655 C664 0.930 . S
H656 C669 0.929 . S
H657 C667 0.929 . S
H658 C662 0.931 . S
H659 C668 0.929 . S
C660 H654 0.930 . S
C660 C661 1.367 . S
C660 C668 1.378 . S
C661 C660 1.367 . S
C661 C669 1.433 1_655 S
C662 H658 0.931 . S
C662 C664 1.378 . S
C662 C666 1.350 . S
C663 C666 1.463 . S
C663 C668 1.350 . S
C663 N671 1.423 1_655 S
C664 H655 0.930 . S
C664 C662 1.378 . S
C664 C665 1.367 . S
C665 C664 1.367 . S
C665 C667 1.433 . S
C666 C662 1.350 . S
C666 C663 1.463 . S
C666 N670 1.427 . S
C667 H657 0.929 . S
C667 C665 1.433 . S
C667 N670 1.384 . S
C668 H659 0.929 . S
C668 C660 1.378 . S
C668 C663 1.350 . S
C669 H656 0.929 . S
C669 C661 1.433 1_455 S
C669 N671 1.385 . S
N670 C666 1.427 . S
N670 C667 1.384 . S
N671 C663 1.423 1_455 S
N671 C669 1.385 . S
H672 C678 0.930 . S
H673 C682 0.930 . S
H674 C687 0.929 . S
H675 C685 0.929 . S
H676 C680 0.929 1_545 S
H677 C686 0.929 . S
C678 H672 0.930 . S
C678 C679 1.367 1_556 S
C678 C686 1.378 . S
C679 C678 1.367 1_554 S
C679 C687 1.433 . S
C680 H676 0.929 1_565 S
C680 C682 1.378 1_565 S
C680 C684 1.350 . S
C681 C684 1.463 . S
C681 C686 1.350 . S
C681 N689 1.427 . S
C682 H673 0.930 . S
C682 C680 1.378 1_545 S
C682 C683 1.367 1_545 S
C683 C682 1.367 1_565 S
C683 C685 1.433 . S
C684 C680 1.350 . S
C684 C681 1.463 . S
C684 N688 1.427 . S
C685 H675 0.929 . S
C685 C683 1.433 . S
C685 N688 1.384 . S
C686 H677 0.929 . S
C686 C678 1.378 . S
C686 C681 1.350 . S
C687 H674 0.929 . S
C687 C679 1.433 . S
C687 N689 1.384 1_554 S
N688 C684 1.427 . S
N688 C685 1.384 . S
N689 C681 1.427 . S
N689 C687 1.384 1_556 S
H690 C696 0.930 . S
H691 C700 0.930 . S
H692 C705 0.929 . S
H693 C703 0.929 . S
H694 C698 0.929 . S
H695 C704 0.929 . S
C696 H690 0.930 . S
C696 C697 1.367 . S
C696 C704 1.378 . S
C697 C696 1.367 . S
C697 C705 1.433 1_554 S
C698 H694 0.929 . S
C698 C700 1.378 . S
C698 C702 1.350 . S
C699 C702 1.463 . S
C699 C704 1.350 1_556 S
C699 N707 1.427 . S
C700 H691 0.930 . S
C700 C698 1.378 . S
C700 C701 1.367 . S
C701 C700 1.367 . S
C701 C703 1.433 . S
C702 C698 1.350 . S
C702 C699 1.463 . S
C702 N706 1.427 . S
C703 H693 0.929 . S
C703 C701 1.433 . S
C703 N706 1.384 . S
C704 H695 0.929 . S
C704 C696 1.378 . S
C704 C699 1.350 1_554 S
C705 H692 0.929 . S
C705 C697 1.433 1_556 S
C705 N707 1.384 . S
N706 C702 1.427 . S
N706 C703 1.384 . S
N707 C699 1.427 . S
N707 C705 1.384 . S
H708 C714 0.930 . S
H709 C718 0.930 . S
H710 C723 0.929 . S
H711 C721 0.929 . S
H712 C716 0.929 . S
H713 C722 0.929 . S
C714 H708 0.930 . S
C714 C715 1.367 . S
C714 C722 1.378 . S
C715 C714 1.367 . S
C715 C723 1.433 1_554 S
C716 H712 0.929 . S
C716 C718 1.378 . S
C716 C720 1.350 . S
C717 C720 1.463 . S
C717 C722 1.350 1_556 S
C717 N725 1.427 . S
C718 H709 0.930 . S
C718 C716 1.378 . S
C718 C719 1.367 . S
C719 C718 1.367 . S
C719 C721 1.433 . S
C720 C716 1.350 . S
C720 C717 1.463 . S
C720 N724 1.427 . S
C721 H711 0.929 . S
C721 C719 1.433 . S
C721 N724 1.384 . S
C722 H713 0.929 . S
C722 C714 1.378 . S
C722 C717 1.350 1_554 S
C723 H710 0.929 . S
C723 C715 1.433 1_556 S
C723 N725 1.384 . S
N724 C720 1.427 . S
N724 C721 1.384 . S
N725 C717 1.427 . S
N725 C723 1.384 . S
H726 C732 0.930 . S
H727 C736 0.930 . S
H728 C741 0.929 . S
H729 C739 0.929 . S
H730 C734 0.924 1_655 S
H731 C740 0.929 . S
C732 H726 0.930 . S
C732 C733 1.367 1_556 S
C732 C740 1.378 . S
C733 C732 1.367 1_554 S
C733 C741 1.433 1_455 S
C734 H730 0.924 1_455 S
C734 C736 1.378 . S
C734 C738 1.350 . S
C735 C738 1.463 . S
C735 C740 1.350 . S
C735 N743 1.417 1_456 S
C736 H727 0.930 . S
C736 C734 1.378 . S
C736 C737 1.367 . S
C737 C736 1.367 . S
C737 C739 1.433 . S
C738 C734 1.350 . S
C738 C735 1.463 . S
C738 N742 1.427 . S
C739 H729 0.929 . S
C739 C737 1.433 . S
C739 N742 1.384 . S
C740 H731 0.929 . S
C740 C732 1.378 . S
C740 C735 1.350 . S
C741 H728 0.929 . S
C741 C733 1.433 1_655 S
C741 N743 1.387 . S
N742 C738 1.427 . S
N742 C739 1.384 . S
N743 C735 1.417 1_654 S
N743 C741 1.387 . S
H744 C750 0.930 . S
H745 C754 0.930 . S
H746 C759 0.929 . S
H747 C757 0.921 1_455 S
H748 C752 0.929 . S
H749 C758 0.929 . S
C750 H744 0.930 . S
C750 C751 1.367 . S
C750 C758 1.378 . S
C751 C750 1.367 . S
C751 C759 1.433 1_455 S
C752 H748 0.929 . S
C752 C754 1.378 . S
C752 C756 1.350 . S
C753 C756 1.463 . S
C753 C758 1.350 1_655 S
C753 N761 1.427 . S
C754 H745 0.930 . S
C754 C752 1.378 . S
C754 C755 1.367 . S
C755 C754 1.367 . S
C755 C757 1.445 . S
C756 C752 1.350 . S
C756 C753 1.463 . S
C756 N760 1.427 1_655 S
C757 H747 0.921 1_655 S
C757 C755 1.445 . S
C757 N760 1.380 1_655 S
C758 H749 0.929 . S
C758 C750 1.378 . S
C758 C753 1.350 1_455 S
C759 H746 0.929 . S
C759 C751 1.433 1_655 S
C759 N761 1.384 . S
N760 C756 1.427 1_455 S
N760 C757 1.380 1_455 S
N761 C753 1.427 . S
N761 C759 1.384 . S
H762 C768 0.930 . S
H763 C772 0.930 . S
H764 C777 0.929 . S
H765 C775 0.929 . S
H766 C770 0.929 . S
H767 C776 0.929 . S
C768 H762 0.930 . S
C768 C769 1.367 . S
C768 C776 1.378 . S
C769 C768 1.367 . S
C769 C777 1.433 . S
C770 H766 0.929 . S
C770 C772 1.378 . S
C770 C774 1.350 . S
C771 C774 1.463 . S
C771 C776 1.350 . S
C771 N779 1.427 . S
C772 H763 0.930 . S
C772 C770 1.378 . S
C772 C773 1.367 . S
C773 C772 1.367 . S
C773 C775 1.433 . S
C774 C770 1.350 . S
C774 C771 1.463 . S
C774 N778 1.427 . S
C775 H765 0.929 . S
C775 C773 1.433 . S
C775 N778 1.384 . S
C776 H767 0.929 . S
C776 C768 1.378 . S
C776 C771 1.350 . S
C777 H764 0.929 . S
C777 C769 1.433 . S
C777 N779 1.384 . S
N778 C774 1.427 . S
N778 C775 1.384 . S
N779 C771 1.427 . S
N779 C777 1.384 . S
H780 C786 0.930 . S
H781 C790 0.930 . S
H782 C795 0.929 . S
H783 C793 0.929 . S
H784 C788 0.929 . S
H785 C794 0.929 . S
C786 H780 0.930 . S
C786 C787 1.367 . S
C786 C794 1.378 . S
C787 C786 1.367 . S
C787 C795 1.433 . S
C788 H784 0.929 . S
C788 C790 1.378 . S
C788 C792 1.350 . S
C789 C792 1.463 . S
C789 C794 1.350 . S
C789 N797 1.427 . S
C790 H781 0.930 . S
C790 C788 1.378 . S
C790 C791 1.367 . S
C791 C790 1.367 . S
C791 C793 1.433 . S
C792 C788 1.350 . S
C792 C789 1.463 . S
C792 N796 1.427 . S
C793 H783 0.929 . S
C793 C791 1.433 . S
C793 N796 1.384 . S
C794 H785 0.929 . S
C794 C786 1.378 . S
C794 C789 1.350 . S
C795 H782 0.929 . S
C795 C787 1.433 . S
C795 N797 1.384 . S
N796 C792 1.427 . S
N796 C793 1.384 . S
N797 C789 1.427 . S
N797 C795 1.384 . S
H798 C804 0.930 . S
H799 C808 0.930 . S
H800 C813 0.929 . S
H801 C811 0.929 . S
H802 C806 0.929 . S
H803 C812 0.929 . S
C804 H798 0.930 . S
C804 C805 1.367 . S
C804 C812 1.378 . S
C805 C804 1.367 . S
C805 C813 1.433 . S
C806 H802 0.929 . S
C806 C808 1.378 . S
C806 C810 1.350 . S
C807 C810 1.463 . S
C807 C812 1.350 . S
C807 N815 1.427 . S
C808 H799 0.930 . S
C808 C806 1.378 . S
C808 C809 1.367 . S
C809 C808 1.367 . S
C809 C811 1.433 . S
C810 C806 1.350 . S
C810 C807 1.463 . S
C810 N814 1.427 . S
C811 H801 0.929 . S
C811 C809 1.433 . S
C811 N814 1.384 . S
C812 H803 0.929 . S
C812 C804 1.378 . S
C812 C807 1.350 . S
C813 H800 0.929 . S
C813 C805 1.433 . S
C813 N815 1.384 . S
N814 C810 1.427 . S
N814 C811 1.384 . S
N815 C807 1.427 . S
N815 C813 1.384 . S
H816 C822 0.930 . S
H817 C826 0.930 . S
H818 C831 0.929 1_554 S
H819 C829 0.929 . S
H820 C824 0.929 . S
H821 C830 0.929 . S
C822 H816 0.930 . S
C822 C823 1.367 . S
C822 C830 1.379 . S
C823 C822 1.367 . S
C823 C831 1.433 1_655 S
C824 H820 0.929 . S
C824 C826 1.378 . S
C824 C828 1.350 . S
C825 C828 1.463 . S
C825 C830 1.349 1_455 S
C825 N833 1.427 . S
C826 H817 0.930 . S
C826 C824 1.378 . S
C826 C827 1.367 . S
C827 C826 1.367 . S
C827 C829 1.433 . S
C828 C824 1.350 . S
C828 C825 1.463 . S
C828 N832 1.427 . S
C829 H819 0.929 . S
C829 C827 1.433 . S
C829 N832 1.384 . S
C830 H821 0.929 . S
C830 C822 1.379 . S
C830 C825 1.349 1_655 S
C831 H818 0.929 1_556 S
C831 C823 1.433 1_455 S
C831 N833 1.384 . S
N832 C828 1.427 . S
N832 C829 1.384 . S
N833 C825 1.427 . S
N833 C831 1.384 . S
H834 C840 0.930 . S
H835 C844 0.930 . S
H836 C849 0.929 . S
H837 C847 0.929 . S
H838 C842 0.929 . S
H839 C848 0.929 . S
C840 H834 0.930 . S
C840 C841 1.367 . S
C840 C848 1.378 . S
C841 C840 1.367 . S
C841 C849 1.433 . S
C842 H838 0.929 . S
C842 C844 1.378 1_565 S
C842 C846 1.350 . S
C843 C846 1.463 . S
C843 C848 1.350 . S
C843 N851 1.427 . S
C844 H835 0.930 . S
C844 C842 1.378 1_545 S
C844 C845 1.367 . S
C845 C844 1.367 . S
C845 C847 1.433 1_545 S
C846 C842 1.350 . S
C846 C843 1.463 . S
C846 N850 1.427 . S
C847 H837 0.929 . S
C847 C845 1.433 1_565 S
C847 N850 1.384 . S
C848 H839 0.929 . S
C848 C840 1.378 . S
C848 C843 1.350 . S
C849 H836 0.929 . S
C849 C841 1.433 . S
C849 N851 1.384 . S
N850 C846 1.427 . S
N850 C847 1.384 . S
N851 C843 1.427 . S
N851 C849 1.384 . S
H852 C858 0.925 1_554 S
H853 C862 0.930 . S
H854 C867 0.929 . S
H855 C865 0.929 . S
H856 C860 0.929 . S
H857 C866 0.929 . S
C858 H852 0.925 1_556 S
C858 C859 1.367 . S
C858 C866 1.378 . S
C859 C858 1.367 . S
C859 C867 1.433 . S
C860 H856 0.929 . S
C860 C862 1.378 . S
C860 C864 1.350 . S
C861 C864 1.463 . S
C861 C866 1.350 . S
C861 N869 1.427 . S
C862 H853 0.930 . S
C862 C860 1.378 . S
C862 C863 1.367 . S
C863 C862 1.367 . S
C863 C865 1.433 . S
C864 C860 1.350 . S
C864 C861 1.463 . S
C864 N868 1.427 . S
C865 H855 0.929 . S
C865 C863 1.433 . S
C865 N868 1.384 . S
C866 H857 0.929 . S
C866 C858 1.378 . S
C866 C861 1.350 . S
C867 H854 0.929 . S
C867 C859 1.433 . S
C867 N869 1.384 . S
N868 C864 1.427 . S
N868 C865 1.384 . S
N869 C861 1.427 . S
N869 C867 1.384 . S
H870 C876 0.930 1_554 S
H871 C880 0.930 . S
H872 C885 0.929 . S
H873 C883 0.929 . S
H874 C878 0.929 . S
H875 C884 0.929 . S
C876 H870 0.930 1_556 S
C876 C877 1.367 . S
C876 C884 1.378 . S
C877 C876 1.367 . S
C877 C885 1.433 . S
C878 H874 0.929 . S
C878 C880 1.378 . S
C878 C882 1.350 . S
C879 C882 1.463 . S
C879 C884 1.350 . S
C879 N887 1.427 . S
C880 H871 0.930 . S
C880 C878 1.378 . S
C880 C881 1.367 . S
C881 C880 1.367 . S
C881 C883 1.433 . S
C882 C878 1.350 . S
C882 C879 1.463 . S
C882 N886 1.427 . S
C883 H873 0.929 . S
C883 C881 1.433 . S
C883 N886 1.384 . S
C884 H875 0.929 . S
C884 C876 1.378 . S
C884 C879 1.350 . S
C885 H872 0.929 . S
C885 C877 1.433 . S
C885 N887 1.384 . S
N886 C882 1.427 . S
N886 C883 1.384 . S
N887 C879 1.427 . S
N887 C885 1.384 . S
H888 C894 0.930 . S
H889 C898 0.930 . S
H890 C903 0.929 . S
H891 C901 0.929 . S
H892 C896 0.929 . S
H893 C902 0.929 . S
C894 H888 0.930 . S
C894 C895 1.367 . S
C894 C902 1.378 . S
C895 C894 1.367 . S
C895 C903 1.433 1_455 S
C896 H892 0.929 . S
C896 C898 1.378 . S
C896 C900 1.350 1_655 S
C897 C900 1.463 . S
C897 C902 1.350 . S
C897 N905 1.427 1_455 S
C898 H889 0.930 . S
C898 C896 1.378 . S
C898 C899 1.367 1_654 S
C899 C898 1.367 1_456 S
C899 C901 1.433 . S
C900 C896 1.350 1_455 S
C900 C897 1.463 . S
C900 N904 1.427 1_554 S
C901 H891 0.929 . S
C901 C899 1.433 . S
C901 N904 1.384 . S
C902 H893 0.929 . S
C902 C894 1.378 . S
C902 C897 1.350 . S
C903 H890 0.929 . S
C903 C895 1.433 1_655 S
C903 N905 1.384 . S
N904 C900 1.427 1_556 S
N904 C901 1.384 . S
N905 C897 1.427 1_655 S
N905 C903 1.384 . S
H906 C912 0.930 . S
H907 C916 0.929 1_556 S
H908 C921 0.929 . S
H909 C919 0.929 . S
H910 C914 0.929 . S
H911 C920 0.929 . S
C912 H906 0.930 . S
C912 C913 1.367 . S
C912 C920 1.378 . S
C913 C912 1.367 . S
C913 C921 1.433 . S
C914 H910 0.929 . S
C914 C916 1.380 . S
C914 C918 1.350 . S
C915 C918 1.463 . S
C915 C920 1.350 . S
C915 N923 1.427 . S
C916 H907 0.929 1_554 S
C916 C914 1.380 . S
C916 C917 1.366 1_554 S
C917 C916 1.366 1_556 S
C917 C919 1.433 1_556 S
C918 C914 1.350 . S
C918 C915 1.463 . S
C918 N922 1.427 . S
C919 H909 0.929 . S
C919 C917 1.433 1_554 S
C919 N922 1.384 . S
C920 H911 0.929 . S
C920 C912 1.378 . S
C920 C915 1.350 . S
C921 H908 0.929 . S
C921 C913 1.433 . S
C921 N923 1.384 . S
N922 C918 1.427 . S
N922 C919 1.384 . S
N923 C915 1.427 . S
N923 C921 1.384 . S
H924 C930 0.930 . S
H925 C934 0.930 . S
H926 C939 0.929 . S
H927 C937 0.929 . S
H928 C932 0.929 . S
H929 C938 0.929 1_556 S
C930 H924 0.930 . S
C930 C931 1.367 . S
C930 C938 1.378 . S
C931 C930 1.367 . S
C931 C939 1.433 . S
C932 H928 0.929 . S
C932 C934 1.378 1_554 S
C932 C936 1.350 1_554 S
C933 C936 1.463 1_554 S
C933 C938 1.350 . S
C933 N941 1.427 . S
C934 H925 0.930 . S
C934 C932 1.378 1_556 S
C934 C935 1.367 . S
C935 C934 1.367 . S
C935 C937 1.433 . S
C936 C932 1.350 1_556 S
C936 C933 1.463 1_556 S
C936 N940 1.427 . S
C937 H927 0.929 . S
C937 C935 1.433 . S
C937 N940 1.384 . S
C938 H929 0.929 1_554 S
C938 C930 1.378 . S
C938 C933 1.350 . S
C939 H926 0.929 . S
C939 C931 1.433 . S
C939 N941 1.384 . S
N940 C936 1.427 . S
N940 C937 1.384 . S
N941 C933 1.427 . S
N941 C939 1.384 . S
H942 C948 0.930 . S
H943 C952 0.930 . S
H944 C957 0.929 . S
H945 C955 0.929 . S
H946 C950 0.929 1_554 S
H947 C956 0.929 . S
C948 H942 0.930 . S
C948 C949 1.367 . S
C948 C956 1.378 . S
C949 C948 1.367 . S
C949 C957 1.433 . S
C950 H946 0.929 1_556 S
C950 C952 1.378 . S
C950 C954 1.350 . S
C951 C954 1.463 1_554 S
C951 C956 1.350 . S
C951 N959 1.427 . S
C952 H943 0.930 . S
C952 C950 1.378 . S
C952 C953 1.367 . S
C953 C952 1.367 . S
C953 C955 1.433 . S
C954 C950 1.350 . S
C954 C951 1.463 1_556 S
C954 N958 1.427 . S
C955 H945 0.929 . S
C955 C953 1.433 . S
C955 N958 1.384 . S
C956 H947 0.929 . S
C956 C948 1.378 . S
C956 C951 1.350 . S
C957 H944 0.929 . S
C957 C949 1.433 . S
C957 N959 1.384 . S
N958 C954 1.427 . S
N958 C955 1.384 . S
N959 C951 1.427 . S
N959 C957 1.384 . S
H960 C966 0.928 1_455 S
H961 C970 0.930 . S
H962 C975 0.929 . S
H963 C973 0.929 . S
H964 C968 0.929 . S
H965 C974 0.929 . S
C966 H960 0.928 1_655 S
C966 C967 1.369 . S
C966 C974 1.379 . S
C967 C966 1.369 . S
C967 C975 1.433 . S
C968 H964 0.929 . S
C968 C970 1.378 . S
C968 C972 1.350 . S
C969 C972 1.463 . S
C969 C974 1.350 . S
C969 N977 1.427 . S
C970 H961 0.930 . S
C970 C968 1.378 . S
C970 C971 1.367 . S
C971 C970 1.367 . S
C971 C973 1.433 . S
C972 C968 1.350 . S
C972 C969 1.463 . S
C972 N976 1.427 . S
C973 H963 0.929 . S
C973 C971 1.433 . S
C973 N976 1.384 . S
C974 H965 0.929 . S
C974 C966 1.379 . S
C974 C969 1.350 . S
C975 H962 0.929 . S
C975 C967 1.433 . S
C975 N977 1.384 . S
N976 C972 1.427 . S
N976 C973 1.384 . S
N977 C969 1.427 . S
N977 C975 1.384 . S
H978 C984 0.930 . S
H979 C988 0.930 . S
H980 C993 0.929 . S
H981 C991 0.929 . S
H982 C986 0.929 . S
H983 C992 0.929 . S
C984 H978 0.930 . S
C984 C985 1.367 . S
C984 C992 1.378 . S
C985 C984 1.367 . S
C985 C993 1.433 . S
C986 H982 0.929 . S
C986 C988 1.378 . S
C986 C990 1.350 . S
C987 C990 1.463 . S
C987 C992 1.350 . S
C987 N995 1.427 . S
C988 H979 0.930 . S
C988 C986 1.378 . S
C988 C989 1.367 . S
C989 C988 1.367 . S
C989 C991 1.433 . S
C990 C986 1.350 . S
C990 C987 1.463 . S
C990 N994 1.427 . S
C991 H981 0.929 . S
C991 C989 1.433 . S
C991 N994 1.384 . S
C992 H983 0.929 . S
C992 C984 1.378 . S
C992 C987 1.350 . S
C993 H980 0.929 . S
C993 C985 1.433 . S
C993 N995 1.384 . S
N994 C990 1.427 . S
N994 C991 1.384 . S
N995 C987 1.427 . S
N995 C993 1.384 . S
H996 C1002 0.930 . S
H997 C1006 0.930 . S
H998 C1011 0.929 . S
H999 C1009 0.929 . S
H1000 C1004 0.929 . S
H1001 C1010 0.929 . S
C1002 H996 0.930 . S
C1002 C1003 1.367 . S
C1002 C1010 1.378 . S
C1003 C1002 1.367 . S
C1003 C1011 1.433 . S
C1004 H1000 0.929 . S
C1004 C1006 1.378 . S
C1004 C1008 1.350 . S
C1005 C1008 1.463 . S
C1005 C1010 1.350 . S
C1005 N1013 1.427 . S
C1006 H997 0.930 . S
C1006 C1004 1.378 . S
C1006 C1007 1.367 . S
C1007 C1006 1.367 . S
C1007 C1009 1.433 . S
C1008 C1004 1.350 . S
C1008 C1005 1.463 . S
C1008 N1012 1.427 . S
C1009 H999 0.929 . S
C1009 C1007 1.433 . S
C1009 N1012 1.384 . S
C1010 H1001 0.929 . S
C1010 C1002 1.378 . S
C1010 C1005 1.350 . S
C1011 H998 0.929 . S
C1011 C1003 1.433 . S
C1011 N1013 1.384 . S
N1012 C1008 1.427 . S
N1012 C1009 1.384 . S
N1013 C1005 1.427 . S
N1013 C1011 1.384 . S
H1014 C1020 0.930 . S
H1015 C1024 0.930 . S
H1016 C1029 0.929 . S
H1017 C1027 0.929 . S
H1018 C1022 0.929 . S
H1019 C1028 0.929 . S
C1020 H1014 0.930 . S
C1020 C1021 1.367 . S
C1020 C1028 1.378 . S
C1021 C1020 1.367 . S
C1021 C1029 1.433 . S
C1022 H1018 0.929 . S
C1022 C1024 1.378 . S
C1022 C1026 1.350 . S
C1023 C1026 1.463 . S
C1023 C1028 1.350 . S
C1023 N1031 1.427 . S
C1024 H1015 0.930 . S
C1024 C1022 1.378 . S
C1024 C1025 1.367 . S
C1025 C1024 1.367 . S
C1025 C1027 1.433 . S
C1026 C1022 1.350 . S
C1026 C1023 1.463 . S
C1026 N1030 1.427 . S
C1027 H1017 0.929 . S
C1027 C1025 1.433 . S
C1027 N1030 1.384 . S
C1028 H1019 0.929 . S
C1028 C1020 1.378 . S
C1028 C1023 1.350 . S
C1029 H1016 0.929 . S
C1029 C1021 1.433 . S
C1029 N1031 1.384 . S
N1030 C1026 1.427 . S
N1030 C1027 1.384 . S
N1031 C1023 1.427 . S
N1031 C1029 1.384 . S
C607 C391 1.895 . S
C611 C490 1.867 . S
C629 C520 1.747 . S
C625 C451 1.736 . S
C647 N554 1.763 . S
C643 C241 1.606 . S
C665 N584 1.346 . S
C661 C331 1.294 . S
C683 C481 1.869 1_565 S
C679 C121 1.797 . S
C697 C211 1.753 . S
C701 C511 1.748 . S
C715 C31 1.740 . S
C719 N546 1.764 . S
C733 C91 1.310 1_455 S
C737 N576 1.349 . S
C755 C496 0.488 . S
C751 C301 0.812 1_455 S
C773 C526 0.669 . S
C769 C380 0.666 . S
C791 C567 0.555 . S
C787 C440 0.561 . S
C805 C260 0.718 . S
C809 C597 0.644 . S
C823 C61 0.762 . S
C827 C507 0.475 . S
C845 C537 0.679 . S
C841 C140 0.717 . S
C863 C556 0.538 . S
C859 C200 0.533 . S
C877 C20 0.654 . S
C881 C586 0.613 . S
C895 C320 1.714 1_455 S
C899 N486 1.696 . S
C913 C361 1.681 . S
C917 N516 1.855 . S
C935 C541 1.900 . S
C931 C421 1.687 . S
C953 C571 2.154 . S
C949 C271 2.059 . S
C967 C80 1.692 . S
C971 N494 1.704 . S
C989 N524 1.854 . S
C985 C151 1.857 . S
C1007 C550 1.901 . S
C1003 C181 1.724 . S
C1021 C1 1.871 . S
C1025 C580 2.155 . S
