# Generated by pormake.
# Topology pyr, (3,6)-cn, num edge types: 1
# Building blocks:
#     Node 0, Type 0, BuildingBlock: QEWDON_clean_linker_0, # of connection points: 3
#     Node 1, Type 0, BuildingBlock: QEWDON_clean_linker_0, # of connection points: 3
#     Node 2, Type 0, BuildingBlock: QEWDON_clean_linker_0, # of connection points: 3
#     Node 3, Type 0, BuildingBlock: QEWDON_clean_linker_0, # of connection points: 3
#     Node 4, Type 0, BuildingBlock: QEWDON_clean_linker_0, # of connection points: 3
#     Node 5, Type 0, BuildingBlock: QEWDON_clean_linker_0, # of connection points: 3
#     Node 6, Type 0, BuildingBlock: QEWDON_clean_linker_0, # of connection points: 3
#     Node 7, Type 0, BuildingBlock: QEWDON_clean_linker_0, # of connection points: 3
#     Node 8, Type 1, BuildingBlock: PAMTOO_clean_sbu_0, # of connection points: 6
#     Node 9, Type 1, BuildingBlock: PAMTOO_clean_sbu_0, # of connection points: 6
#     Node 10, Type 1, BuildingBlock: PAMTOO_clean_sbu_0, # of connection points: 6
#     Node 11, Type 1, BuildingBlock: PAMTOO_clean_sbu_0, # of connection points: 6
#     Edge 12, Type (0, 1), None
#     Edge 13, Type (0, 1), None
#     Edge 14, Type (0, 1), None
#     Edge 15, Type (0, 1), None
#     Edge 16, Type (0, 1), None
#     Edge 17, Type (0, 1), None
#     Edge 18, Type (0, 1), None
#     Edge 19, Type (0, 1), None
#     Edge 20, Type (0, 1), None
#     Edge 21, Type (0, 1), None
#     Edge 22, Type (0, 1), None
#     Edge 23, Type (0, 1), None
#     Edge 24, Type (0, 1), None
#     Edge 25, Type (0, 1), None
#     Edge 26, Type (0, 1), None
#     Edge 27, Type (0, 1), None
#     Edge 28, Type (0, 1), None
#     Edge 29, Type (0, 1), None
#     Edge 30, Type (0, 1), None
#     Edge 31, Type (0, 1), None
#     Edge 32, Type (0, 1), None
#     Edge 33, Type (0, 1), None
#     Edge 34, Type (0, 1), None
#     Edge 35, Type (0, 1), None
# Relax obj value: 0.374
# Max RMSD: 0.258
# Mean RMSD: 0.185
data_MOF--net-pyr--node1-PAMTOO_clean_sbu_0--node2-QEWDON_clean_linker_0--edge1-none
_symmetry_space_group_name_H-M    P1
_symmetry_Int_Tables_number       1
_symmetry_cell_setting            triclinic
loop_
_symmetry_equiv_pos_as_xyz
'x, y, z'
_cell_length_a     18.254558
_cell_length_b     18.672808
_cell_length_c     19.024817
_cell_angle_alpha  89.528239
_cell_angle_beta   90.958622
_cell_angle_gamma 117.53093
loop_
_atom_site_label
_atom_site_type_symbol
_atom_site_fract_x
_atom_site_fract_y
_atom_site_fract_z
_atom_type_partial_charge
H0 H 0.63868 0.44345 0.25775 0.0
C1 C 0.61722 0.43029 0.31141 0.0
C2 C 0.61815 0.36316 0.34513 0.0
C3 C 0.56882 0.46457 0.33755 0.0
H4 H 0.58094 0.28746 0.43465 0.0
C5 C 0.5848 0.34204 0.412 0.0
C6 C 0.53617 0.37519 0.43951 0.0
C7 C 0.5324 0.43951 0.40366 0.0
C8 C 0.54396 0.5149 0.29094 0.0
H9 H 0.49349 0.4642 0.42329 0.0
C10 C 0.46218 0.50432 0.29183 0.0
C11 C 0.43688 0.55001 0.24787 0.0
C12 C 0.59966 0.57067 0.24318 0.0
H13 H 0.66244 0.57951 0.23982 0.0
C14 C 0.57528 0.61677 0.19979 0.0
H15 H 0.41695 0.45844 0.32515 0.0
C16 C 0.49461 0.60666 0.20194 0.0
H17 H 0.47773 0.64376 0.1681 0.0
H18 H 0.61906 0.66029 0.16395 0.0
H19 H 0.05397 0.94433 0.9507 0.0
C20 C 0.10146 0.9284 0.93497 0.0
C21 C 0.17162 0.95143 0.97693 0.0
C22 C 0.09517 0.89267 0.8697 0.0
H23 H 0.28983 0.95327 0.988 0.0
C24 C 0.23492 0.93473 0.95518 0.0
C25 C 0.23059 0.90002 0.88904 0.0
C26 C 0.15976 0.87853 0.84608 0.0
C27 C 0.03102 0.89243 0.82265 0.0
H28 H 0.15717 0.85605 0.79328 0.0
C29 C 0.04452 0.96764 0.79623 0.0
C30 C 0.97818 0.9813 0.77577 0.0
C31 C 0.95076 0.82819 0.82387 0.0
H32 H 0.93921 0.77055 0.84644 0.0
C33 C 0.88422 0.84034 0.80095 0.0
H34 H 0.10677 1.01737 0.79718 0.0
C35 C 0.89754 0.91689 0.77855 0.0
H36 H 0.84488 0.92539 0.76328 0.0
H37 H 0.82194 0.79124 0.80307 0.0
H38 H 0.78424 0.63278 1.06885 0.0
C39 C 0.75535 0.56826 1.0783 0.0
C40 C 0.79597 0.53468 0.1217 0.0
C41 C 0.67576 0.51884 1.04928 0.0
H42 H 0.78665 0.42551 0.16807 0.0
C43 C 0.75628 0.45111 0.13443 0.0
C44 C 0.677 0.40043 1.10713 0.0
C45 C 0.63771 0.43486 1.06428 0.0
C46 C 0.62545 0.554 1.0127 0.0
H47 H 0.57585 0.3966 1.04429 0.0
C48 C 0.651 0.60418 0.95152 0.0
C49 C 0.59602 0.62852 0.91666 0.0
C50 C 0.54657 0.5326 1.03928 0.0
H51 H 0.52506 0.49519 1.08583 0.0
C52 C 0.49418 0.55868 1.00692 0.0
H53 H 0.71119 0.621 0.92965 0.0
C54 C 0.51807 0.60535 0.94614 0.0
H55 H 0.47508 0.62368 0.92218 0.0
H56 H 0.43398 0.54172 1.02877 0.0
H57 H 0.94656 0.93591 0.48144 0.0
C58 C 0.89741 0.9037 0.51825 0.0
C59 C 0.87902 0.94731 0.57065 0.0
C60 C 0.84867 0.81854 0.51213 0.0
H61 H 0.79246 0.93715 0.65128 0.0
C62 C 0.80944 0.90476 0.61375 0.0
C63 C 0.76371 0.82034 0.61112 0.0
C64 C 0.78834 0.77872 0.56373 0.0
C65 C 0.84538 0.76784 0.44876 0.0
H66 H 0.75494 0.71332 0.56269 0.0
C67 C 0.91392 0.76537 0.41531 0.0
C68 C 0.89983 0.70293 0.36507 0.0
C69 C 0.76545 0.71268 0.42509 0.0
H70 H 0.71109 0.7147 0.44493 0.0
C71 C 0.7526 0.65091 0.37915 0.0
H72 H 0.9764 0.80947 0.42896 0.0
C73 C 0.81858 0.64484 0.35025 0.0
H74 H 0.80563 0.59709 0.3125 0.0
H75 H 0.69046 0.60778 0.36597 0.0
H76 H 0.65509 0.82851 1.10346 0.0
C77 C 0.65828 0.85381 1.05144 0.0
C78 C 0.72545 0.86886 1.00738 0.0
C79 C 0.59865 0.87727 1.02944 0.0
H80 H 0.78717 0.92539 0.91116 0.0
C81 C 0.73261 0.90835 0.9427 0.0
C82 C 0.67476 0.93443 0.92279 0.0
C83 C 0.60643 0.91487 0.96438 0.0
C84 C 0.53769 0.88123 1.07679 0.0
H85 H 0.56214 0.93566 0.9489 0.0
C86 C 0.54309 0.95777 1.08736 0.0
C87 C 0.47539 0.96643 0.1103 0.0
C88 C 0.46581 0.81213 1.09588 0.0
H89 H 0.4598 0.75249 1.08654 0.0
C90 C 0.39899 0.82022 0.1228 0.0
H91 H 0.59904 1.01086 1.07223 0.0
C92 C 0.40291 0.8968 0.12857 0.0
H93 H 0.3495 0.90139 0.14706 0.0
H94 H 0.3429 0.7669 0.13675 0.0
H95 H 0.95472 0.37258 0.55094 0.0
C96 C 0.97198 0.36525 0.49824 0.0
C97 C 0.02484 0.33023 0.48838 0.0
C98 C 0.92301 0.3687 0.44272 0.0
H99 H 0.07775 0.28378 0.41173 0.0
C100 C 0.04157 0.31546 0.41968 0.0
C101 C 0.99863 0.32699 0.36213 0.0
C102 C 0.94348 0.3591 0.37425 0.0
C103 C 0.83456 0.33973 0.45871 0.0
H104 H 0.90226 0.35873 0.33235 0.0
C105 C 0.80826 0.38129 0.50517 0.0
C106 C 0.72849 0.34182 0.53391 0.0
C107 C 0.77909 0.25993 0.43914 0.0
H108 H 0.79799 0.22593 0.40443 0.0
C109 C 0.70117 0.22055 0.46859 0.0
H110 H 0.85061 0.44245 0.52101 0.0
C111 C 0.67693 0.26026 0.51728 0.0
H112 H 0.61569 0.22823 0.53917 0.0
H113 H 0.65995 0.1585 0.45458 0.0
H114 H 0.50467 0.94707 0.37815 0.0
C115 C 0.4401 0.91646 0.36238 0.0
C116 C 0.40652 0.95826 0.32114 0.0
C117 C 0.392 0.83369 0.37938 0.0
H118 H 0.29985 0.94594 0.26161 0.0
C119 C 0.32473 0.91578 0.29585 0.0
C120 C 0.27753 0.83284 0.30772 0.0
C121 C 0.31094 0.79283 0.35123 0.0
C122 C 0.43204 0.7846 0.40811 0.0
H123 H 0.2762 0.72817 0.35922 0.0
C124 C 0.43464 0.76556 0.48082 0.0
C125 C 0.46942 0.71392 0.50275 0.0
C126 C 0.46547 0.7527 0.35895 0.0
H127 H 0.46453 0.76598 0.30344 0.0
C128 C 0.49995 0.70314 0.38014 0.0
H129 H 0.40979 0.79032 0.51952 0.0
C130 C 0.50098 0.68307 0.45068 0.0
H131 H 0.5292 0.64491 0.4645 0.0
H132 H 0.52682 0.68045 0.3416 0.0
H133 H 0.28078 0.6036 0.87388 0.0
C134 C 0.24483 0.54749 0.84598 0.0
C135 C 0.27933 0.52905 0.78625 0.0
C136 C 0.166 0.49097 0.87163 0.0
H137 H 0.26141 0.43994 0.70772 0.0
C138 C 0.23465 0.45427 0.75253 0.0
C139 C 0.15657 0.39768 0.77497 0.0
C140 C 0.12204 0.41752 0.83288 0.0
C141 C 0.12886 0.50344 0.93961 0.0
H142 H 0.05992 0.37477 0.84734 0.0
C143 C 0.14453 0.5803 0.96849 0.0
C144 C 0.1004 0.58548 1.02873 0.0
C145 C 0.07279 0.43408 0.97636 0.0
H146 H 0.0629 0.3743 0.96214 0.0
C147 C 0.02554 0.43917 1.03085 0.0
H148 H 0.18869 0.63543 0.94356 0.0
C149 C 0.03632 0.51376 1.05402 0.0
H150 H 0.99371 0.51513 1.09191 0.0
H151 H 0.9789 0.38448 1.05457 0.0
Dy152 Dy 0.10935 0.18414 0.63149 0.0
Dy153 Dy 0.9404 0.18501 0.68118 0.0
C154 C 0.11195 0.31873 0.73639 0.0
O155 O 0.0701 0.11315 0.73131 0.0
O156 O 0.93174 0.07367 0.73028 0.0
O157 O 0.23412 0.21286 0.66279 0.0
O158 O 0.18463 0.15708 0.5614 0.0
O159 O 0.89707 0.07989 0.60469 0.0
O160 O 1.01266 1.0611 0.59605 0.0
O161 O 1.00137 0.28698 0.60724 0.0
O162 O 0.07319 0.23991 0.54138 0.0
O163 O 0.81832 0.17324 0.65928 0.0
O164 O 0.87727 0.21431 0.76133 0.0
C165 C 0.99422 1.06103 0.74758 0.0
O166 O 0.14393 0.30607 0.67918 0.0
O167 O 0.03978 0.26335 0.7575 0.0
C168 C 0.32826 0.23754 0.57019 0.0
C169 C 0.47162 0.32847 0.49195 0.0
C170 C 0.4412 0.36711 0.53769 0.0
C171 C 0.36966 0.322 0.57636 0.0
C172 C 0.36053 0.19872 0.52769 0.0
C173 C 0.4307 0.24339 0.48851 0.0
C174 C 0.24892 0.18769 0.60352 0.0
C175 C 0.93294 1.0355 0.58596 0.0
C176 C 0.03849 0.28727 0.54898 0.0
C177 C 0.74405 0.11337 0.76211 0.0
C178 C 0.69142 0.99276 0.86518 0.0
C179 C 0.7132 0.9778 0.79898 0.0
C180 C 0.73737 1.03705 0.74719 0.0
C181 C 0.71542 0.12602 0.82625 0.0
C182 C 0.68901 1.06586 0.87756 0.0
C183 C 0.80784 0.18279 0.72579 0.0
H184 H 0.47069 0.4323 0.54134 0.0
H185 H 0.34542 0.3531 0.60909 0.0
H186 H 0.32903 0.13354 0.52217 0.0
H187 H 0.4489 0.21046 0.45219 0.0
H188 H 0.71419 0.92148 0.78845 0.0
H189 H 0.75938 1.02648 0.69805 0.0
H190 H 0.72171 0.18498 0.83939 0.0
H191 H 0.67227 0.07868 0.92858 0.0
Dy192 Dy 0.45615 0.18051 0.18841 0.0
Dy193 Dy 0.62838 0.16199 0.212 0.0
C194 C 0.45911 1.04022 0.29127 0.0
O195 O 0.52869 0.27393 0.26427 0.0
O196 O 0.64329 0.2558 0.29381 0.0
O197 O 0.34936 0.18926 0.22636 0.0
O198 O 0.38145 0.20764 0.11575 0.0
O199 O 0.67382 0.28772 0.17279 0.0
O200 O 0.55435 0.26881 0.11587 0.0
O201 O 0.5562 0.11129 0.11373 0.0
O202 O 0.42552 1.05913 0.14635 0.0
O203 O 0.72468 0.15403 0.15328 0.0
O204 O 0.70708 0.1199 0.26343 0.0
C205 C 0.59791 0.29415 0.29878 0.0
O206 O 0.42368 0.08562 0.27309 0.0
O207 O 0.53347 1.05638 0.27077 0.0
C208 C 0.24684 0.12293 0.14042 0.0
C209 C 0.18424 1.00372 1.03784 0.0
C210 C 0.21452 0.98882 1.10127 0.0
C211 C 0.2419 1.04679 0.15383 0.0
C212 C 0.20532 0.13332 1.08188 0.0
C213 C 0.17376 0.07348 1.0305 0.0
C214 C 0.32382 0.19143 0.16211 0.0
C215 C 0.63351 0.31416 0.13093 0.0
C216 C 0.48347 1.04864 0.1172 0.0
C217 C 0.8416 0.17246 0.22186 0.0
C218 C 0.98088 0.27542 0.29879 0.0
C219 C 0.96117 0.30234 0.23542 0.0
C220 C 0.88984 0.25155 0.19807 0.0
C221 C 0.87427 0.14023 0.27288 0.0
C222 C 0.94494 0.19162 0.31082 0.0
C223 C 0.75242 0.13075 0.20798 0.0
H224 H 0.22118 0.93449 0.1085 0.0
H225 H 0.27249 1.03735 0.19943 0.0
H226 H 0.20868 0.19175 1.07062 0.0
H227 H 0.14978 0.0858 0.98195 0.0
H228 H 0.98907 0.36552 0.223 0.0
H229 H 0.86731 0.2773 0.15709 0.0
H230 H 0.83904 0.07826 0.29026 0.0
H231 H 0.96035 0.16763 0.3576 0.0
Dy232 Dy 0.53666 0.60456 0.69847 0.0
Dy233 Dy 0.52796 0.75375 0.73962 0.0
C234 C 0.6168 0.67645 0.84937 0.0
O235 O 0.40538 0.54712 0.7323 0.0
O236 O 0.39783 0.66098 0.7654 0.0
O237 O 0.61627 0.55429 0.73356 0.0
O238 O 0.50491 0.48181 0.67172 0.0
O239 O 0.47896 0.74346 0.62857 0.0
O240 O 0.50112 0.63765 0.59314 0.0
O241 O 0.658 0.80906 0.69632 0.0
O242 O 0.64481 0.6956 0.6408 0.0
O243 O 0.52649 0.86852 0.73414 0.0
O244 O 0.52733 0.81451 0.83529 0.0
C245 C 0.36481 0.58202 0.76063 0.0
O246 O 0.55772 0.66728 0.80391 0.0
O247 O 0.55736 0.66535 0.80315 0.0
C248 C 0.61742 0.45355 0.66022 0.0
C249 C 0.69692 0.3843 0.58048 0.0
C250 C 0.65374 0.34582 0.64145 0.0
C251 C 0.61434 0.38017 0.68087 0.0
C252 C 0.66224 0.49367 0.6005 0.0
C253 C 0.70212 0.45934 0.56095 0.0
C254 C 0.57194 0.48579 0.70117 0.0
C255 C 0.48065 0.69587 0.57862 0.0
C256 C 0.68651 0.77346 0.65273 0.0
C257 C 0.44292 0.87865 0.82158 0.0
C258 C 0.30338 0.89346 0.8634 0.0
C259 C 0.29369 0.82353 0.82892 0.0
C260 C 0.36292 0.81643 0.80796 0.0
C261 C 0.45272 0.94983 0.85336 0.0
C262 C 0.3836 0.95714 0.87442 0.0
C263 C 0.51564 0.86973 0.80155 0.0
H264 H 0.64919 0.28825 0.65797 0.0
H265 H 0.58022 0.34865 0.72698 0.0
H266 H 0.66488 0.5504 0.58376 0.0
H267 H 0.73388 0.48963 0.51358 0.0
H268 H 0.23276 0.77378 0.81934 0.0
H269 H 0.35356 0.76234 0.78103 0.0
H270 H 0.51364 0.99967 0.86217 0.0
H271 H 0.39298 1.01284 0.89915 0.0
Dy272 Dy 0.04655 0.75826 0.16762 0.0
Dy273 Dy 0.04816 0.61263 0.22849 0.0
C274 C 0.96377 0.70137 0.31796 0.0
O275 O 0.17411 0.81798 0.21663 0.0
O276 O 0.15065 0.71139 0.28831 0.0
O277 O 0.04861 0.87373 0.15484 0.0
O278 O 0.03917 0.80073 1.06307 0.0
O279 O 0.09244 0.67739 0.12258 0.0
O280 O 0.09257 0.67313 0.12319 0.0
O281 O 0.91886 0.54919 0.18609 0.0
O282 O 0.91495 0.66402 0.1471 0.0
O283 O 0.06907 0.51375 0.19608 0.0
O284 O 0.08716 0.54935 0.30503 0.0
C285 C 0.19691 0.7863 0.26957 0.0
O286 O 0.99889 0.76226 0.27439 0.0
O287 O 0.96583 0.6322 0.30626 0.0
C288 C 0.94794 0.85962 1.06826 0.0
C289 C 0.79644 0.85771 1.03249 0.0
C290 C 0.82711 0.81588 0.99119 0.0
C291 C 0.90174 0.81611 1.00931 0.0
C292 C 0.91663 0.90106 0.10967 0.0
C293 C 0.84127 0.89951 1.09228 0.0
C294 C 0.0262 0.8587 1.08875 0.0
C295 C 0.11166 0.66503 1.05785 0.0
C296 C 0.88011 0.58495 0.15358 0.0
C297 C 0.18636 0.51685 0.2538 0.0
C298 C 0.35045 0.53842 0.25009 0.0
C299 C 0.30842 0.53903 0.18771 0.0
C300 C 0.22751 0.52837 0.18949 0.0
C301 C 0.22787 0.51536 0.31617 0.0
C302 C 0.30909 0.52626 0.3144 0.0
C303 C 0.10192 0.50945 0.25603 0.0
H304 H 0.79394 0.78424 0.94424 0.0
H305 H 0.92361 0.78286 0.97679 0.0
H306 H 0.95054 0.93516 0.15543 0.0
H307 H 0.81974 0.93384 0.1239 0.0
H308 H 0.33777 0.547 0.13722 0.0
H309 H 0.19759 0.52972 0.14022 0.0
H310 H 0.19783 0.50674 0.36643 0.0
H311 H 0.33994 0.52645 0.36357 0.0
loop_
_geom_bond_atom_site_label_1
_geom_bond_atom_site_label_2
_geom_bond_distance
_geom_bond_site_symmetry_2
_ccdc_geom_bond_type
H0 C1 0.949 . S
C1 H0 0.949 . S
C1 C2 1.395 . S
C1 C3 1.391 . S
C2 C1 1.395 . S
C2 C5 1.390 . S
C3 C1 1.391 . S
C3 C7 1.387 . S
C3 C8 1.491 . S
H4 C5 0.950 . S
C5 C2 1.390 . S
C5 H4 0.950 . S
C5 C6 1.378 . S
C6 C5 1.378 . S
C6 C7 1.409 . S
C7 C3 1.387 . S
C7 C6 1.409 . S
C7 H9 0.951 . S
C8 C3 1.491 . S
C8 C10 1.382 . S
C8 C12 1.404 . S
H9 C7 0.951 . S
C10 C8 1.382 . S
C10 C11 1.390 . S
C10 H15 0.949 . S
C11 C10 1.390 . S
C11 C16 1.399 . S
C12 C8 1.404 . S
C12 H13 0.950 . S
C12 C14 1.375 . S
H13 C12 0.950 . S
C14 C12 1.375 . S
C14 C16 1.382 . S
C14 H18 0.950 . S
H15 C10 0.949 . S
C16 C11 1.399 . S
C16 C14 1.382 . S
C16 H17 0.952 . S
H17 C16 0.952 . S
H18 C14 0.950 . S
H19 C20 0.949 . S
C20 H19 0.949 . S
C20 C21 1.395 1_655 S
C20 C22 1.391 . S
C21 C20 1.395 1_455 S
C21 C24 1.390 . S
C22 C20 1.391 . S
C22 C26 1.387 1_655 S
C22 C27 1.491 . S
H23 C24 0.950 . S
C24 C21 1.390 . S
C24 H23 0.950 . S
C24 C25 1.378 . S
C25 C24 1.378 . S
C25 C26 1.409 . S
C26 C22 1.387 1_455 S
C26 C25 1.409 . S
C26 H28 0.951 . S
C27 C22 1.491 . S
C27 C29 1.382 . S
C27 C31 1.404 . S
H28 C26 0.951 . S
C29 C27 1.382 . S
C29 C30 1.390 . S
C29 H34 0.949 . S
C30 C29 1.390 . S
C30 C35 1.399 . S
C31 C27 1.404 . S
C31 H32 0.950 . S
C31 C33 1.375 . S
H32 C31 0.950 . S
C33 C31 1.375 . S
C33 C35 1.382 . S
C33 H37 0.950 . S
H34 C29 0.949 . S
C35 C30 1.399 . S
C35 C33 1.382 . S
C35 H36 0.952 . S
H36 C35 0.952 . S
H37 C33 0.950 . S
H38 C39 0.949 . S
C39 H38 0.949 . S
C39 C40 1.395 . S
C39 C41 1.391 . S
C40 C39 1.395 . S
C40 C43 1.390 1_556 S
C41 C39 1.391 . S
C41 C45 1.387 . S
C41 C46 1.491 . S
H42 C43 0.950 . S
C43 C40 1.390 1_554 S
C43 H42 0.950 . S
C43 C44 1.378 1_554 S
C44 C43 1.378 1_556 S
C44 C45 1.409 . S
C45 C41 1.387 . S
C45 C44 1.409 . S
C45 H47 0.951 . S
C46 C41 1.491 . S
C46 C48 1.382 . S
C46 C50 1.404 . S
H47 C45 0.951 . S
C48 C46 1.382 . S
C48 C49 1.390 . S
C48 H53 0.949 . S
C49 C48 1.390 . S
C49 C54 1.399 . S
C50 C46 1.404 . S
C50 H51 0.950 . S
C50 C52 1.375 . S
H51 C50 0.950 . S
C52 C50 1.375 . S
C52 C54 1.382 . S
C52 H56 0.950 . S
H53 C48 0.949 . S
C54 C49 1.399 . S
C54 C52 1.382 . S
C54 H55 0.952 . S
H55 C54 0.952 . S
H56 C52 0.950 . S
H57 C58 0.949 . S
C58 H57 0.949 . S
C58 C59 1.395 . S
C58 C60 1.391 . S
C59 C58 1.395 . S
C59 C62 1.390 . S
C60 C58 1.391 . S
C60 C64 1.387 . S
C60 C65 1.491 . S
H61 C62 0.950 . S
C62 C59 1.390 . S
C62 H61 0.950 . S
C62 C63 1.378 . S
C63 C62 1.378 . S
C63 C64 1.409 . S
C64 C60 1.387 . S
C64 C63 1.409 . S
C64 H66 0.951 . S
C65 C60 1.491 . S
C65 C67 1.382 . S
C65 C69 1.404 . S
H66 C64 0.951 . S
C67 C65 1.382 . S
C67 C68 1.390 . S
C67 H72 0.949 . S
C68 C67 1.390 . S
C68 C73 1.399 . S
C69 C65 1.404 . S
C69 H70 0.950 . S
C69 C71 1.375 . S
H70 C69 0.950 . S
C71 C69 1.375 . S
C71 C73 1.382 . S
C71 H75 0.950 . S
H72 C67 0.949 . S
C73 C68 1.399 . S
C73 C71 1.382 . S
C73 H74 0.952 . S
H74 C73 0.952 . S
H75 C71 0.950 . S
H76 C77 0.949 . S
C77 H76 0.949 . S
C77 C78 1.395 . S
C77 C79 1.391 . S
C78 C77 1.395 . S
C78 C81 1.390 . S
C79 C77 1.391 . S
C79 C83 1.387 . S
C79 C84 1.491 . S
H80 C81 0.950 . S
C81 C78 1.390 . S
C81 H80 0.950 . S
C81 C82 1.378 . S
C82 C81 1.378 . S
C82 C83 1.409 . S
C83 C79 1.387 . S
C83 C82 1.409 . S
C83 H85 0.951 . S
C84 C79 1.491 . S
C84 C86 1.382 . S
C84 C88 1.404 . S
H85 C83 0.951 . S
C86 C84 1.382 . S
C86 C87 1.390 . S
C86 H91 0.949 1_556 S
C87 C86 1.390 . S
C87 C92 1.399 . S
C88 C84 1.404 . S
C88 H89 0.950 . S
C88 C90 1.375 . S
H89 C88 0.950 . S
C90 C88 1.375 . S
C90 C92 1.382 . S
C90 H94 0.950 . S
H91 C86 0.949 1_554 S
C92 C87 1.399 . S
C92 C90 1.382 . S
C92 H93 0.952 . S
H93 C92 0.952 . S
H94 C90 0.950 . S
H95 C96 0.949 . S
C96 H95 0.949 . S
C96 C97 1.395 . S
C96 C98 1.391 1_455 S
C97 C96 1.395 . S
C97 C100 1.390 . S
C98 C96 1.391 1_655 S
C98 C102 1.387 . S
C98 C103 1.491 . S
H99 C100 0.950 . S
C100 C97 1.390 . S
C100 H99 0.950 . S
C100 C101 1.378 1_455 S
C101 C100 1.378 1_655 S
C101 C102 1.409 . S
C102 C98 1.387 . S
C102 C101 1.409 . S
C102 H104 0.951 . S
C103 C98 1.491 . S
C103 C105 1.382 . S
C103 C107 1.404 . S
H104 C102 0.951 . S
C105 C103 1.382 . S
C105 C106 1.390 . S
C105 H110 0.949 1_655 S
C106 C105 1.390 . S
C106 C111 1.399 . S
C107 C103 1.404 . S
C107 H108 0.950 . S
C107 C109 1.375 . S
H108 C107 0.950 . S
C109 C107 1.375 . S
C109 C111 1.382 . S
C109 H113 0.950 . S
H110 C105 0.949 1_455 S
C111 C106 1.399 . S
C111 C109 1.382 . S
C111 H112 0.952 . S
H112 C111 0.952 . S
H113 C109 0.950 . S
H114 C115 0.949 . S
C115 H114 0.949 . S
C115 C116 1.395 . S
C115 C117 1.391 . S
C116 C115 1.395 . S
C116 C119 1.390 . S
C117 C115 1.391 . S
C117 C121 1.387 . S
C117 C122 1.491 . S
H118 C119 0.950 . S
C119 C116 1.390 . S
C119 H118 0.950 . S
C119 C120 1.378 . S
C120 C119 1.378 . S
C120 C121 1.409 . S
C121 C117 1.387 . S
C121 C120 1.409 . S
C121 H123 0.951 . S
C122 C117 1.491 . S
C122 C124 1.382 . S
C122 C126 1.404 . S
H123 C121 0.951 . S
C124 C122 1.382 . S
C124 C125 1.390 . S
C124 H129 0.949 . S
C125 C124 1.390 . S
C125 C130 1.399 . S
C126 C122 1.404 . S
C126 H127 0.950 . S
C126 C128 1.375 . S
H127 C126 0.950 . S
C128 C126 1.375 . S
C128 C130 1.382 . S
C128 H132 0.950 . S
H129 C124 0.949 . S
C130 C125 1.399 . S
C130 C128 1.382 . S
C130 H131 0.952 . S
H131 C130 0.952 . S
H132 C128 0.950 . S
H133 C134 0.949 . S
C134 H133 0.949 . S
C134 C135 1.395 . S
C134 C136 1.391 . S
C135 C134 1.395 . S
C135 C138 1.390 . S
C136 C134 1.391 . S
C136 C140 1.387 . S
C136 C141 1.491 . S
H137 C138 0.950 . S
C138 C135 1.390 . S
C138 H137 0.950 . S
C138 C139 1.378 . S
C139 C138 1.378 . S
C139 C140 1.409 . S
C140 C136 1.387 . S
C140 C139 1.409 . S
C140 H142 0.951 . S
C141 C136 1.491 . S
C141 C143 1.382 . S
C141 C145 1.404 . S
H142 C140 0.951 . S
C143 C141 1.382 . S
C143 C144 1.390 . S
C143 H148 0.949 . S
C144 C143 1.390 . S
C144 C149 1.399 . S
C145 C141 1.404 . S
C145 H146 0.950 . S
C145 C147 1.375 . S
H146 C145 0.950 . S
C147 C145 1.375 . S
C147 C149 1.382 . S
C147 H151 0.950 . S
H148 C143 0.949 . S
C149 C144 1.399 . S
C149 C147 1.382 . S
C149 H150 0.952 . S
H150 C149 0.952 . S
H151 C147 0.950 . S
Dy152 O155 2.307 1_545 S
Dy152 O157 2.395 . S
Dy152 O158 2.379 . S
Dy152 O160 2.339 1_545 S
Dy152 O162 2.298 . S
Dy152 O166 2.275 . S
Dy152 C174 2.738 . S
Dy153 O156 2.298 1_545 S
Dy153 O159 2.275 1_545 S
Dy153 O161 2.307 . S
Dy153 O163 2.395 1_545 S
Dy153 O164 2.379 . S
Dy153 O167 2.339 1_655 S
Dy153 C183 2.738 1_545 S
C154 O166 1.254 . S
C154 O167 1.257 . S
O155 Dy152 2.307 1_565 S
O155 C165 1.266 . S
O156 Dy153 2.298 1_565 S
O156 C165 1.236 1_655 S
O157 Dy152 2.395 . S
O157 C174 1.255 . S
O158 Dy152 2.379 . S
O158 C174 1.249 . S
O159 Dy153 2.275 1_565 S
O159 C175 1.254 . S
O160 Dy152 2.339 1_565 S
O160 C175 1.257 1_455 S
O161 Dy153 2.307 . S
O161 C176 1.266 . S
O162 Dy152 2.298 . S
O162 C176 1.236 1_455 S
O163 Dy153 2.395 1_565 S
O163 C183 1.255 . S
O164 Dy153 2.379 . S
O164 C183 1.249 1_545 S
C165 O155 1.266 . S
C165 O156 1.236 1_455 S
O166 Dy152 2.275 . S
O166 C154 1.254 . S
O167 Dy153 2.339 1_455 S
O167 C154 1.257 . S
C168 C171 1.344 . S
C168 C172 1.328 . S
C168 C174 1.516 . S
C169 C170 1.304 . S
C169 C173 1.323 . S
C170 C169 1.304 . S
C170 C171 1.371 . S
C170 H184 0.930 . S
C171 C168 1.344 . S
C171 C170 1.371 . S
C171 H185 0.931 . S
C172 C168 1.328 . S
C172 C173 1.433 . S
C172 H186 0.931 . S
C173 C169 1.323 . S
C173 C172 1.433 . S
C173 H187 0.933 . S
C174 Dy152 2.738 . S
C174 O157 1.255 . S
C174 O158 1.249 . S
C174 C168 1.516 . S
C175 O159 1.254 . S
C175 O160 1.257 1_655 S
C176 O161 1.266 . S
C176 O162 1.236 1_655 S
C177 C180 1.344 . S
C177 C181 1.328 . S
C177 C183 1.516 . S
C178 C179 1.304 . S
C178 C182 1.323 . S
C179 C178 1.304 . S
C179 C180 1.371 . S
C179 H188 0.930 . S
C180 C177 1.344 . S
C180 C179 1.371 . S
C180 H189 0.931 . S
C181 C177 1.328 . S
C181 C182 1.433 . S
C181 H190 0.931 . S
C182 C178 1.323 . S
C182 C181 1.433 . S
C182 H191 0.933 . S
C183 Dy153 2.738 1_565 S
C183 O163 1.255 . S
C183 O164 1.249 1_565 S
C183 C177 1.516 . S
H184 C170 0.930 . S
H185 C171 0.931 . S
H186 C172 0.931 . S
H187 C173 0.933 . S
H188 C179 0.930 . S
H189 C180 0.931 . S
H190 C181 0.931 . S
H191 C182 0.933 . S
Dy192 O195 2.307 . S
Dy192 O197 2.395 1_545 S
Dy192 O198 2.379 1_544 S
Dy192 O200 2.339 . S
Dy192 O202 2.298 1_545 S
Dy192 O206 2.275 1_545 S
Dy192 C214 2.738 1_544 S
Dy193 O196 2.298 . S
Dy193 O199 2.275 . S
Dy193 O201 2.307 1_545 S
Dy193 O203 2.395 . S
Dy193 O204 2.379 . S
Dy193 O207 2.339 1_545 S
Dy193 C223 2.738 . S
C194 O206 1.254 . S
C194 O207 1.257 . S
O195 Dy192 2.307 . S
O195 C205 1.266 . S
O196 Dy193 2.298 . S
O196 C205 1.236 . S
O197 Dy192 2.395 1_565 S
O197 C214 1.255 1_554 S
O198 Dy192 2.379 1_566 S
O198 C214 1.249 . S
O199 Dy193 2.275 . S
O199 C215 1.254 . S
O200 Dy192 2.339 . S
O200 C215 1.257 . S
O201 Dy193 2.307 1_565 S
O201 C216 1.266 . S
O202 Dy192 2.298 1_565 S
O202 C216 1.236 . S
O203 Dy193 2.395 . S
O203 C223 1.255 . S
O204 Dy193 2.379 . S
O204 C223 1.249 . S
C205 O195 1.266 . S
C205 O196 1.236 . S
O206 Dy192 2.275 1_565 S
O206 C194 1.254 . S
O207 Dy193 2.339 1_565 S
O207 C194 1.257 . S
C208 C211 1.344 . S
C208 C212 1.328 . S
C208 C214 1.516 . S
C209 C210 1.304 . S
C209 C213 1.323 . S
C210 C209 1.304 . S
C210 C211 1.371 . S
C210 H224 0.930 . S
C211 C208 1.344 . S
C211 C210 1.371 . S
C211 H225 0.931 . S
C212 C208 1.328 . S
C212 C213 1.433 . S
C212 H226 0.931 . S
C213 C209 1.323 . S
C213 C212 1.433 . S
C213 H227 0.933 . S
C214 Dy192 2.738 1_566 S
C214 O197 1.255 1_556 S
C214 O198 1.249 . S
C214 C208 1.516 . S
C215 O199 1.254 . S
C215 O200 1.257 . S
C216 O201 1.266 . S
C216 O202 1.236 . S
C217 C220 1.344 . S
C217 C221 1.328 . S
C217 C223 1.516 . S
C218 C219 1.304 . S
C218 C222 1.323 . S
C219 C218 1.304 . S
C219 C220 1.371 . S
C219 H228 0.930 . S
C220 C217 1.344 . S
C220 C219 1.371 . S
C220 H229 0.931 . S
C221 C217 1.328 . S
C221 C222 1.433 . S
C221 H230 0.931 . S
C222 C218 1.323 . S
C222 C221 1.433 . S
C222 H231 0.933 . S
C223 Dy193 2.738 . S
C223 O203 1.255 . S
C223 O204 1.249 . S
C223 C217 1.516 . S
H224 C210 0.930 . S
H225 C211 0.931 . S
H226 C212 0.931 . S
H227 C213 0.933 . S
H228 C219 0.930 . S
H229 C220 0.931 . S
H230 C221 0.931 . S
H231 C222 0.933 . S
Dy232 O235 2.307 . S
Dy232 O237 2.395 . S
Dy232 O238 2.379 . S
Dy232 O240 2.339 . S
Dy232 O242 2.298 . S
Dy232 O246 2.275 . S
Dy232 C254 2.738 . S
Dy233 O236 2.298 . S
Dy233 O239 2.275 . S
Dy233 O241 2.307 . S
Dy233 O243 2.395 . S
Dy233 O244 2.379 . S
Dy233 O247 2.339 . S
Dy233 C263 2.738 . S
C234 O246 1.254 . S
C234 O247 1.257 . S
O235 Dy232 2.307 . S
O235 C245 1.266 . S
O236 Dy233 2.298 . S
O236 C245 1.236 . S
O237 Dy232 2.395 . S
O237 C254 1.255 . S
O238 Dy232 2.379 . S
O238 C254 1.249 . S
O239 Dy233 2.275 . S
O239 C255 1.254 . S
O240 Dy232 2.339 . S
O240 C255 1.257 . S
O241 Dy233 2.307 . S
O241 C256 1.266 . S
O242 Dy232 2.298 . S
O242 C256 1.236 . S
O243 Dy233 2.395 . S
O243 C263 1.255 . S
O244 Dy233 2.379 . S
O244 C263 1.249 . S
C245 O235 1.266 . S
C245 O236 1.236 . S
O246 Dy232 2.275 . S
O246 C234 1.254 . S
O247 Dy233 2.339 . S
O247 C234 1.257 . S
C248 C251 1.344 . S
C248 C252 1.328 . S
C248 C254 1.516 . S
C249 C250 1.304 . S
C249 C253 1.323 . S
C250 C249 1.304 . S
C250 C251 1.371 . S
C250 H264 0.930 . S
C251 C248 1.344 . S
C251 C250 1.371 . S
C251 H265 0.931 . S
C252 C248 1.328 . S
C252 C253 1.433 . S
C252 H266 0.931 . S
C253 C249 1.323 . S
C253 C252 1.433 . S
C253 H267 0.933 . S
C254 Dy232 2.738 . S
C254 O237 1.255 . S
C254 O238 1.249 . S
C254 C248 1.516 . S
C255 O239 1.254 . S
C255 O240 1.257 . S
C256 O241 1.266 . S
C256 O242 1.236 . S
C257 C260 1.344 . S
C257 C261 1.328 . S
C257 C263 1.516 . S
C258 C259 1.304 . S
C258 C262 1.323 . S
C259 C258 1.304 . S
C259 C260 1.371 . S
C259 H268 0.930 . S
C260 C257 1.344 . S
C260 C259 1.371 . S
C260 H269 0.931 . S
C261 C257 1.328 . S
C261 C262 1.433 . S
C261 H270 0.931 . S
C262 C258 1.323 . S
C262 C261 1.433 . S
C262 H271 0.933 . S
C263 Dy233 2.738 . S
C263 O243 1.255 . S
C263 O244 1.249 . S
C263 C257 1.516 . S
H264 C250 0.930 . S
H265 C251 0.931 . S
H266 C252 0.931 . S
H267 C253 0.933 . S
H268 C259 0.930 . S
H269 C260 0.931 . S
H270 C261 0.931 . S
H271 C262 0.933 . S
Dy272 O275 2.307 1_556 S
Dy272 O277 2.395 1_456 S
Dy272 O278 2.379 . S
Dy272 O280 2.339 . S
Dy272 O282 2.298 1_455 S
Dy272 O286 2.275 1_556 S
Dy272 C294 2.738 1_455 S
Dy273 O276 2.298 . S
Dy273 O279 2.275 1_554 S
Dy273 O281 2.307 1_455 S
Dy273 O283 2.395 . S
Dy273 O284 2.379 . S
Dy273 O287 2.339 . S
Dy273 C303 2.738 . S
C274 O286 1.254 1_655 S
C274 O287 1.257 1_655 S
O275 Dy272 2.307 1_554 S
O275 C285 1.266 . S
O276 Dy273 2.298 . S
O276 C285 1.236 . S
O277 Dy272 2.395 1_654 S
O277 C294 1.255 1_554 S
O278 Dy272 2.379 . S
O278 C294 1.249 1_455 S
O279 Dy273 2.275 1_556 S
O279 C295 1.254 . S
O280 Dy272 2.339 . S
O280 C295 1.257 . S
O281 Dy273 2.307 1_655 S
O281 C296 1.266 1_554 S
O282 Dy272 2.298 1_655 S
O282 C296 1.236 . S
O283 Dy273 2.395 . S
O283 C303 1.255 . S
O284 Dy273 2.379 . S
O284 C303 1.249 . S
C285 O275 1.266 . S
C285 O276 1.236 . S
O286 Dy272 2.275 1_554 S
O286 C274 1.254 1_455 S
O287 Dy273 2.339 . S
O287 C274 1.257 1_455 S
C288 C291 1.344 . S
C288 C292 1.328 . S
C288 C294 1.516 . S
C289 C290 1.304 . S
C289 C293 1.323 . S
C290 C289 1.304 . S
C290 C291 1.371 . S
C290 H304 0.930 . S
C291 C288 1.344 . S
C291 C290 1.371 . S
C291 H305 0.931 . S
C292 C288 1.328 . S
C292 C293 1.433 . S
C292 H306 0.931 . S
C293 C289 1.323 . S
C293 C292 1.433 . S
C293 H307 0.933 . S
C294 Dy272 2.738 1_655 S
C294 O277 1.255 1_556 S
C294 O278 1.249 1_655 S
C294 C288 1.516 . S
C295 O279 1.254 . S
C295 O280 1.257 . S
C296 O281 1.266 1_556 S
C296 O282 1.236 . S
C297 C300 1.344 . S
C297 C301 1.328 . S
C297 C303 1.516 . S
C298 C299 1.304 . S
C298 C302 1.323 . S
C299 C298 1.304 . S
C299 C300 1.371 . S
C299 H308 0.930 . S
C300 C297 1.344 . S
C300 C299 1.371 . S
C300 H309 0.931 . S
C301 C297 1.328 . S
C301 C302 1.433 . S
C301 H310 0.931 . S
C302 C298 1.323 . S
C302 C301 1.433 . S
C302 H311 0.933 . S
C303 Dy273 2.738 . S
C303 O283 1.255 . S
C303 O284 1.249 . S
C303 C297 1.516 . S
H304 C290 0.930 . S
H305 C291 0.931 . S
H306 C292 0.931 . S
H307 C293 0.933 . S
H308 C299 0.930 . S
H309 C300 0.931 . S
H310 C301 0.931 . S
H311 C302 0.933 . S
C6 C169 1.718 . S
C21 C209 1.324 . S
C234 C49 3.516 . S
C68 C274 3.204 . S
C205 C2 3.172 . S
C165 C30 3.541 1_455 S
C296 C40 2.745 . S
C256 C63 2.792 . S
C11 C298 2.211 . S
C215 C44 3.767 1_554 S
C59 C175 2.625 . S
C25 C258 3.996 . S
C178 C82 1.073 . S
C101 C218 1.684 . S
C125 C255 3.234 . S
C144 C295 3.462 . S
C87 C216 3.431 1_556 S
C176 C97 3.043 1_655 S
C285 C120 2.719 . S
C245 C135 2.729 . S
C78 C289 3.928 . S
C194 C116 2.571 . S
C154 C139 3.728 . S
C106 C249 1.858 . S
