# Generated by pormake.
# Topology zzz, (3,6)-cn, num edge types: 1
# Building blocks:
#     Node 0, Type 0, BuildingBlock: VETTIZ_charged_linker_0, # of connection points: 3
#     Node 1, Type 0, BuildingBlock: VETTIZ_charged_linker_0, # of connection points: 3
#     Node 2, Type 0, BuildingBlock: VETTIZ_charged_linker_0, # of connection points: 3
#     Node 3, Type 0, BuildingBlock: VETTIZ_charged_linker_0, # of connection points: 3
#     Node 4, Type 0, BuildingBlock: VETTIZ_charged_linker_0, # of connection points: 3
#     Node 5, Type 0, BuildingBlock: VETTIZ_charged_linker_0, # of connection points: 3
#     Node 6, Type 0, BuildingBlock: VETTIZ_charged_linker_0, # of connection points: 3
#     Node 7, Type 0, BuildingBlock: VETTIZ_charged_linker_0, # of connection points: 3
#     Node 8, Type 1, BuildingBlock: NUHQIS_clean_sbu_0, # of connection points: 6
#     Node 9, Type 1, BuildingBlock: NUHQIS_clean_sbu_0, # of connection points: 6
#     Node 10, Type 1, BuildingBlock: NUHQIS_clean_sbu_0, # of connection points: 6
#     Node 11, Type 1, BuildingBlock: NUHQIS_clean_sbu_0, # of connection points: 6
#     Edge 12, Type (0, 1), BuildingBlock: XIVTED_clean_linker_0, # of connection points: 2
#     Edge 13, Type (0, 1), BuildingBlock: XIVTED_clean_linker_0, # of connection points: 2
#     Edge 14, Type (0, 1), BuildingBlock: XIVTED_clean_linker_0, # of connection points: 2
#     Edge 15, Type (0, 1), BuildingBlock: XIVTED_clean_linker_0, # of connection points: 2
#     Edge 16, Type (0, 1), BuildingBlock: XIVTED_clean_linker_0, # of connection points: 2
#     Edge 17, Type (0, 1), BuildingBlock: XIVTED_clean_linker_0, # of connection points: 2
#     Edge 18, Type (0, 1), BuildingBlock: XIVTED_clean_linker_0, # of connection points: 2
#     Edge 19, Type (0, 1), BuildingBlock: XIVTED_clean_linker_0, # of connection points: 2
#     Edge 20, Type (0, 1), BuildingBlock: XIVTED_clean_linker_0, # of connection points: 2
#     Edge 21, Type (0, 1), BuildingBlock: XIVTED_clean_linker_0, # of connection points: 2
#     Edge 22, Type (0, 1), BuildingBlock: XIVTED_clean_linker_0, # of connection points: 2
#     Edge 23, Type (0, 1), BuildingBlock: XIVTED_clean_linker_0, # of connection points: 2
#     Edge 24, Type (0, 1), BuildingBlock: XIVTED_clean_linker_0, # of connection points: 2
#     Edge 25, Type (0, 1), BuildingBlock: XIVTED_clean_linker_0, # of connection points: 2
#     Edge 26, Type (0, 1), BuildingBlock: XIVTED_clean_linker_0, # of connection points: 2
#     Edge 27, Type (0, 1), BuildingBlock: XIVTED_clean_linker_0, # of connection points: 2
#     Edge 28, Type (0, 1), BuildingBlock: XIVTED_clean_linker_0, # of connection points: 2
#     Edge 29, Type (0, 1), BuildingBlock: XIVTED_clean_linker_0, # of connection points: 2
#     Edge 30, Type (0, 1), BuildingBlock: XIVTED_clean_linker_0, # of connection points: 2
#     Edge 31, Type (0, 1), BuildingBlock: XIVTED_clean_linker_0, # of connection points: 2
#     Edge 32, Type (0, 1), BuildingBlock: XIVTED_clean_linker_0, # of connection points: 2
#     Edge 33, Type (0, 1), BuildingBlock: XIVTED_clean_linker_0, # of connection points: 2
#     Edge 34, Type (0, 1), BuildingBlock: XIVTED_clean_linker_0, # of connection points: 2
#     Edge 35, Type (0, 1), BuildingBlock: XIVTED_clean_linker_0, # of connection points: 2
# Relax obj value: 0.428
# Max RMSD: 0.258
# Mean RMSD: 0.235
data_MOF--net-zzz--node1-NUHQIS_clean_sbu_0--node2-VETTIZ_charged_linker_0--edge1-XIVTED_clean_linker_0
_symmetry_space_group_name_H-M    P1
_symmetry_Int_Tables_number       1
_symmetry_cell_setting            triclinic
loop_
_symmetry_equiv_pos_as_xyz
'x, y, z'
_cell_length_a     59.283011
_cell_length_b     59.424543
_cell_length_c     19.127742
_cell_angle_alpha  89.919453
_cell_angle_beta   89.920375
_cell_angle_gamma 89.997178
loop_
_atom_site_label
_atom_site_type_symbol
_atom_site_fract_x
_atom_site_fract_y
_atom_site_fract_z
_atom_type_partial_charge
C0 C 0.81051 0.47616 0.38209 0.0
C1 C 0.82969 0.46484 0.40962 0.0
C2 C 0.8348 0.4432 0.38481 0.0
C3 C 0.80346 0.44457 0.30406 0.0
C4 C 0.7973 0.4654 0.32975 0.0
C5 C 0.77548 0.47341 0.29534 0.0
H6 H 0.69795 0.45451 0.03189 0.0
C7 C 0.7878 0.43812 0.24765 0.0
C8 C 0.77087 0.45466 0.24191 0.0
H9 H 0.6948 0.50833 0.18246 0.0
H10 H 0.72915 0.4941 0.23876 0.0
H11 H 0.74848 0.45744 1.00296 0.0
H12 H 0.70964 0.41563 0.14089 0.0
H13 H 0.72987 0.3981 0.10156 0.0
H14 H 0.70964 0.41261 0.04754 0.0
H15 H 0.73404 0.43287 0.97233 0.0
H16 H 0.76268 0.43162 1.00401 0.0
C17 C 0.77969 0.49626 0.25958 0.0
C18 C 0.75696 0.47444 0.35188 0.0
C19 C 0.81091 0.37336 0.09155 0.0
C20 C 0.8032 0.36602 0.02596 0.0
C21 C 0.78209 0.37369 1.00193 0.0
C22 C 0.76983 0.38976 0.04 0.0
C23 C 0.77893 0.39854 0.10228 0.0
C24 C 0.79879 0.38976 0.12799 0.0
C25 C 0.80679 0.40183 0.19222 0.0
C26 C 0.78886 0.41995 0.19963 0.0
C27 C 0.77261 0.41789 0.1472 0.0
C28 C 0.83044 0.41188 0.17582 0.0
C29 C 0.80619 0.38487 0.25408 0.0
C30 C 0.70454 0.46331 0.07708 0.0
C31 C 0.69375 0.48262 0.10221 0.0
C32 C 0.70281 0.49335 0.16195 0.0
C33 C 0.72271 0.48508 0.1945 0.0
C34 C 0.7334 0.46567 0.16777 0.0
C35 C 0.72388 0.45516 0.11029 0.0
C36 C 0.73661 0.43475 0.08769 0.0
C37 C 0.75517 0.43407 0.14162 0.0
C38 C 0.75384 0.45236 0.18871 0.0
C39 C 0.74587 0.43916 0.01281 0.0
C40 C 0.72071 0.41411 0.09409 0.0
H41 H 0.82722 0.41676 0.31632 0.0
H42 H 0.80586 0.49265 0.40125 0.0
H43 H 0.75694 0.45875 0.38369 0.0
H44 H 0.73992 0.47594 0.32939 0.0
H45 H 0.75984 0.48886 0.38769 0.0
H46 H 0.79458 0.49521 0.22428 0.0
H47 H 0.78302 0.50955 0.29906 0.0
H48 H 0.76522 0.50163 0.22741 0.0
H49 H 0.82724 0.3682 0.1112 0.0
H50 H 0.77565 0.36817 0.95182 0.0
H51 H 0.75428 0.39551 0.01757 0.0
H52 H 0.84394 0.39915 0.18352 0.0
H53 H 0.8346 0.42691 0.20691 0.0
H54 H 0.83141 0.41775 0.12062 0.0
H55 H 0.79404 0.37093 0.24457 0.0
H56 H 0.80026 0.39272 0.30332 0.0
H57 H 0.82299 0.37711 0.26291 0.0
H58 H 0.8493 0.43414 0.40482 0.0
C59 C 0.8219 0.43309 0.33296 0.0
C60 C 0.97859 0.77081 0.88346 0.0
C61 C 0.98035 0.79381 0.8677 0.0
C62 C 0.97283 0.80972 0.91719 0.0
C63 C 0.96776 0.78005 1.00219 0.0
C64 C 0.97198 0.76428 0.95091 0.0
C65 C 0.97068 0.74066 0.97866 0.0
H66 H 1.00518 0.66924 0.19873 0.0
C67 C 0.96711 0.76842 0.07027 0.0
C68 C 0.96724 0.74533 0.05687 0.0
H69 H 0.95776 0.65736 0.03034 0.0
H70 H 0.94604 0.69672 0.03661 0.0
H71 H 0.02451 0.7231 0.1724 0.0
H72 H 0.9604 0.70649 0.27125 0.0
H73 H 0.9776 0.72551 0.31874 0.0
H74 H 0.98653 0.69683 0.30847 0.0
H75 H 0.02363 0.70507 0.24817 0.0
H76 H 0.01988 0.73489 0.25729 0.0
C77 C 0.9932 0.72836 0.96416 0.0
C78 C 0.95051 0.72873 0.94321 0.0
C79 C 0.98611 0.81535 0.28254 0.0
C80 C 0.99488 0.811 0.34935 0.0
C81 C 0.99907 0.78827 0.36783 0.0
C82 C 0.99497 0.7705 0.31974 0.0
C83 C 0.98636 0.77543 0.25272 0.0
C84 C 0.98229 0.79772 0.23559 0.0
C85 C 0.97438 0.80072 0.16183 0.0
C86 C 0.97299 0.77646 0.13788 0.0
C87 C 0.97999 0.76134 0.19088 0.0
C88 C 0.99241 0.8147 0.12119 0.0
C89 C 0.95072 0.81172 0.16315 0.0
C90 C 0.993 0.6753 0.16107 0.0
C91 C 0.98358 0.6605 0.11025 0.0
C92 C 0.9662 0.66852 0.06663 0.0
C93 C 0.9602 0.69116 0.06706 0.0
C94 C 0.97229 0.70597 0.10898 0.0
C95 C 0.98614 0.69822 0.16107 0.0
C96 C 0.99055 0.71718 0.21351 0.0
C97 C 0.97973 0.73758 0.17649 0.0
C98 C 0.97068 0.73023 0.11276 0.0
C99 C 0.0161 0.72027 0.22365 0.0
C100 C 0.9782 0.71127 0.28203 0.0
H101 H 0.96138 0.81561 0.0209 0.0
H102 H 0.98363 0.75832 0.84537 0.0
H103 H 0.94723 0.73547 0.88994 0.0
H104 H 0.93478 0.73087 0.97414 0.0
H105 H 0.9539 0.71058 0.93498 0.0
H106 H 0.00754 0.73754 0.98833 0.0
H107 H 0.9964 0.72691 0.90714 0.0
H108 H 0.99306 0.71099 0.9852 0.0
H109 H 0.98238 0.83241 0.26624 0.0
H110 H 1.00599 0.78429 0.41871 0.0
H111 H 0.99907 0.75366 0.33555 0.0
H112 H 0.00695 0.8197 0.15442 0.0
H113 H 0.98529 0.83063 0.1004 0.0
H114 H 0.99999 0.80504 0.07748 0.0
H115 H 0.93997 0.80388 0.20423 0.0
H116 H 0.94154 0.80942 0.11337 0.0
H117 H 0.95193 0.83001 0.17447 0.0
H118 H 0.97372 0.82758 0.90599 0.0
C119 C 0.96634 0.80289 0.98435 0.0
C120 C 0.82224 1.00102 0.12115 0.0
C121 C 0.83809 0.01215 0.07733 0.0
C122 C 0.8341 0.03466 0.05856 0.0
C123 C 0.79905 0.03484 0.12342 0.0
C124 C 0.80291 0.01296 0.14486 0.0
C125 C 0.7843 1.00508 0.19437 0.0
H126 H 0.68804 0.0355 0.37592 0.0
C127 C 0.77796 0.04301 0.15533 0.0
C128 C 0.76928 0.02607 0.19956 0.0
H129 H 0.71807 0.96946 0.37644 0.0
H130 H 0.7477 0.98272 0.2965 0.0
H131 H 0.73383 0.06545 0.37745 0.0
H132 H 0.68681 0.04025 0.22958 0.0
H133 H 0.69884 0.06259 0.18306 0.0
H134 H 0.68387 0.06807 0.26351 0.0
H135 H 0.70556 0.07547 0.36474 0.0
H136 H 0.72906 0.08741 0.31736 0.0
C137 C 0.79486 0.99889 0.26536 0.0
C138 C 0.77179 0.98525 0.16 0.0
C139 C 0.74018 0.1127 0.05736 0.0
C140 C 0.71907 0.12246 0.07259 0.0
C141 C 0.70913 0.11794 0.13826 0.0
C142 C 0.71822 0.10166 0.18276 0.0
C143 C 0.73725 0.08948 0.16125 0.0
C144 C 0.74885 0.09609 0.1022 0.0
C145 C 0.76948 0.08181 0.09019 0.0
C146 C 0.76627 0.06365 0.146 0.0
C147 C 0.74727 0.06825 0.18673 0.0
C148 C 0.79056 0.09667 0.10422 0.0
C149 C 0.76838 0.07198 0.01524 0.0
C150 C 0.70118 0.02387 0.3601 0.0
C151 C 0.7009 1.00159 0.38373 0.0
C152 C 0.71794 0.98683 0.35932 0.0
C153 C 0.7351 0.99456 0.31308 0.0
C154 C 0.73494 0.01713 0.28982 0.0
C155 C 0.71779 0.03107 0.31323 0.0
C156 C 0.71809 0.05372 0.27953 0.0
C157 C 0.73869 0.05175 0.23327 0.0
C158 C 0.74909 0.03044 0.23927 0.0
C159 C 0.72166 0.07159 0.3375 0.0
C160 C 0.69583 0.0565 0.23699 0.0
H161 H 0.81289 0.0629 0.06387 0.0
H162 H 0.82499 0.98374 0.13698 0.0
H163 H 0.76729 0.98943 0.10506 0.0
H164 H 0.75585 0.98119 0.18698 0.0
H165 H 0.78256 0.96995 0.15938 0.0
H166 H 0.80566 0.01288 0.28453 0.0
H167 H 0.80553 0.9836 0.26056 0.0
H168 H 0.78198 0.99575 0.30589 0.0
H169 H 0.74874 0.11649 0.00873 0.0
H170 H 0.69305 0.12522 0.15269 0.0
H171 H 0.70914 0.09815 0.22996 0.0
H172 H 0.80254 0.08839 0.14064 0.0
H173 H 0.78622 0.11293 0.12974 0.0
H174 H 0.79955 0.10088 0.0549 0.0
H175 H 0.75137 0.06482 1.00487 0.0
H176 H 0.7805 0.05822 0.00627 0.0
H177 H 0.77173 0.08523 0.97552 0.0
H178 H 0.84587 0.04352 0.02493 0.0
C179 C 0.81486 0.04595 0.08121 0.0
C180 C 0.50011 0.7022 0.37957 0.0
C181 C 0.48968 0.68344 0.41248 0.0
C182 C 0.46698 0.67875 0.39766 0.0
C183 C 0.46574 0.70913 0.31353 0.0
C184 C 0.48749 0.71523 0.33101 0.0
C185 C 0.49431 0.73673 0.29275 0.0
H186 H 0.46526 0.81353 0.0374 0.0
C187 C 0.45744 0.72425 0.25814 0.0
C188 C 0.47371 0.74111 0.24605 0.0
H189 H 0.52438 0.81741 0.16842 0.0
H190 H 0.5132 0.78238 0.22658 0.0
H191 H 0.46849 0.76402 0.00579 0.0
H192 H 0.43063 0.80128 0.15719 0.0
H193 H 0.41222 0.78074 0.12391 0.0
H194 H 0.42447 0.80119 0.06535 0.0
H195 H 0.4421 0.77694 0.9843 0.0
H196 H 0.44371 0.7484 0.01638 0.0
C197 C 0.51575 0.7322 0.24943 0.0
C198 C 0.49746 0.75549 0.34744 0.0
C199 C 0.39122 0.69782 0.11329 0.0
C200 C 0.38245 0.70531 0.04896 0.0
C201 C 0.38767 0.72731 0.02645 0.0
C202 C 0.40338 0.74043 0.06295 0.0
C203 C 0.41411 0.73144 0.12239 0.0
C204 C 0.40715 0.71095 0.14843 0.0
C205 C 0.42062 0.70372 0.21109 0.0
C206 C 0.43802 0.72253 0.21511 0.0
C207 C 0.4341 0.7386 0.16312 0.0
C208 C 0.43157 0.68061 0.19425 0.0
C209 C 0.4046 0.70355 0.27547 0.0
C210 C 0.47573 0.80739 0.07969 0.0
C211 C 0.49543 0.81883 0.09913 0.0
C212 C 0.50895 0.80917 0.15241 0.0
C213 C 0.50233 0.78895 0.18662 0.0
C214 C 0.48199 0.77826 0.16751 0.0
C215 C 0.4693 0.78773 0.11437 0.0
C216 C 0.44842 0.7747 0.09827 0.0
C217 C 0.44982 0.75621 0.1522 0.0
C218 C 0.46961 0.7578 0.19301 0.0
C219 C 0.45055 0.7656 0.02232 0.0
C220 C 0.42775 0.79019 0.11121 0.0
H221 H 0.43799 0.68655 0.33948 0.0
H222 H 0.51741 0.70656 0.39149 0.0
H223 H 0.483 0.75576 0.38454 0.0
H224 H 0.4982 0.77237 0.32359 0.0
H225 H 0.51313 0.75272 0.37813 0.0
H226 H 0.51342 0.71705 0.2161 0.0
H227 H 0.53046 0.7292 0.28414 0.0
H228 H 0.51986 0.74634 0.21419 0.0
H229 H 0.38765 0.68106 0.13251 0.0
H230 H 0.38076 0.73378 0.97804 0.0
H231 H 0.40746 0.75656 0.0411 0.0
H232 H 0.43876 0.68065 0.14048 0.0
H233 H 0.41893 0.66684 0.19736 0.0
H234 H 0.44568 0.67614 0.22888 0.0
H235 H 0.38869 0.71296 0.26557 0.0
H236 H 0.41225 0.71203 0.32134 0.0
H237 H 0.39977 0.68613 0.29034 0.0
H238 H 0.45856 0.66466 0.42255 0.0
C239 C 0.45503 0.69146 0.34903 0.0
C240 C 0.32702 0.5066 0.3021 0.0
C241 C 0.34133 0.51722 0.35169 0.0
C242 C 0.33399 0.53732 0.38307 0.0
C243 C 0.29974 0.53703 0.31479 0.0
C244 C 0.30621 0.51703 0.28387 0.0
C245 C 0.28841 0.50922 0.23167 0.0
H246 H 0.1902 0.53716 0.05666 0.0
C247 C 0.2782 0.54449 0.28417 0.0
C248 C 0.27132 0.52865 0.2337 0.0
H249 H 0.2246 0.47346 0.04299 0.0
H250 H 0.25351 0.48699 0.12457 0.0
H251 H 0.189 0.53772 0.2058 0.0
H252 H 0.23416 0.57046 0.06471 0.0
H253 H 0.22756 0.59025 0.13001 0.0
H254 H 0.2052 0.57816 0.07827 0.0
H255 H 0.18311 0.56535 0.17344 0.0
H256 H 0.19814 0.56087 0.25427 0.0
C257 C 0.27805 0.48712 0.2592 0.0
C258 C 0.29931 0.50669 0.15899 0.0
C259 C 0.23768 0.61136 0.39064 0.0
C260 C 0.21623 0.6206 0.37708 0.0
C261 C 0.20608 0.61613 0.31177 0.0
C262 C 0.21556 0.60058 0.26554 0.0
C263 C 0.2352 0.589 0.28495 0.0
C264 C 0.24665 0.59538 0.3444 0.0
C265 C 0.26744 0.58135 0.35588 0.0
C266 C 0.26518 0.56409 0.29741 0.0
C267 C 0.24622 0.56864 0.25659 0.0
C268 C 0.26568 0.57024 0.4292 0.0
C269 C 0.2883 0.59685 0.34559 0.0
C270 C 0.20416 0.52618 0.07004 0.0
C271 C 0.20532 0.50445 0.04247 0.0
C272 C 0.22339 0.4904 0.06338 0.0
C273 C 0.24006 0.49824 0.11082 0.0
C274 C 0.23826 0.5201 0.13914 0.0
C275 C 0.22023 0.53339 0.11855 0.0
C276 C 0.21875 0.55495 0.15816 0.0
C277 C 0.23912 0.55303 0.2052 0.0
C278 C 0.25111 0.5328 0.19398 0.0
C279 C 0.19613 0.55495 0.19985 0.0
C280 C 0.22138 0.57461 0.10538 0.0
H281 H 0.30934 0.56244 0.39143 0.0
H282 H 0.33211 0.49103 0.27738 0.0
H283 H 0.30839 0.52238 0.1443 0.0
H284 H 0.28667 0.50346 0.1179 0.0
H285 H 0.31164 0.49261 0.15871 0.0
H286 H 0.27366 0.48871 0.31554 0.0
H287 H 0.29018 0.47297 0.25359 0.0
H288 H 0.26229 0.48265 0.23206 0.0
H289 H 0.24639 0.615 0.43902 0.0
H290 H 0.18968 0.62294 0.29867 0.0
H291 H 0.20635 0.59711 0.21864 0.0
H292 H 0.24812 0.56449 0.43952 0.0
H293 H 0.27035 0.58231 0.47103 0.0
H294 H 0.27618 0.55502 0.43486 0.0
H295 H 0.28408 0.61239 0.31575 0.0
H296 H 0.30173 0.58865 0.31434 0.0
H297 H 0.29542 0.60228 0.39653 0.0
H298 H 0.34427 0.5456 0.4222 0.0
C299 C 0.31356 0.5472 0.36494 0.0
C300 C 0.89025 0.2234 0.36346 0.0
C301 C 0.87913 0.20322 0.34619 0.0
C302 C 0.88302 0.1937 0.2797 0.0
C303 C 0.91312 0.22031 0.25873 0.0
C304 C 0.90729 0.23155 0.31913 0.0
C305 C 0.92293 0.25096 0.33342 0.0
H306 H 0.02241 0.30392 0.28071 0.0
C307 C 0.93482 0.22952 0.2335 0.0
C308 C 0.94061 0.24763 0.27629 0.0
H309 H 0.96609 0.3231 0.41153 0.0
H310 H 0.94479 0.29171 0.37009 0.0
H311 H 0.01584 0.24643 0.30845 0.0
H312 H 0.99062 0.28704 0.13601 0.0
H313 H 0.00694 0.2633 0.11 0.0
H314 H 0.02028 0.286 0.15594 0.0
H315 H 0.0349 0.26139 0.25178 0.0
H316 H 0.02227 0.23531 0.22485 0.0
C317 C 0.93305 0.24786 0.40756 0.0
C318 C 0.90933 0.27309 0.32335 0.0
C319 C 0.9762 0.18397 0.05213 0.0
C320 C 0.99832 0.18322 0.02664 0.0
C321 C 0.01381 0.19959 0.05087 0.0
C322 C 0.00699 0.21652 0.09894 0.0
C323 C 0.9846 0.21678 0.12433 0.0
C324 C 0.96989 0.20034 0.10077 0.0
C325 C 0.94746 0.20111 0.13621 0.0
C326 C 0.95058 0.221 0.18444 0.0
C327 C 0.97222 0.23072 0.17747 0.0
C328 C 0.9441 0.17855 0.17661 0.0
C329 C 0.92929 0.20606 0.07999 0.0
C330 C 1.00541 0.3012 0.2997 0.0
C331 C 0.99582 0.31599 0.34982 0.0
C332 C 0.97376 0.312 0.37335 0.0
C333 C 0.96135 0.29373 0.34896 0.0
C334 C 0.97097 0.27885 0.30055 0.0
C335 C 0.99251 0.28264 0.27538 0.0
C336 C 0.99919 0.26453 0.22281 0.0
C337 C 0.97773 0.25014 0.21906 0.0
C338 C 0.96166 0.25861 0.2667 0.0
C339 C 0.01922 0.25117 0.25314 0.0
C340 C 1.00465 0.27575 0.15216 0.0
H341 H 0.90285 0.19341 0.18792 0.0
H342 H 0.88713 0.23153 0.41317 0.0
H343 H 0.8933 0.27034 0.29439 0.0
H344 H 0.91871 0.2856 0.29148 0.0
H345 H 0.9048 0.28079 0.37436 0.0
H346 H 0.94837 0.25795 0.41656 0.0
H347 H 0.93821 0.23006 0.41594 0.0
H348 H 0.92053 0.25228 0.44856 0.0
H349 H 0.964 0.17137 0.03634 0.0
H350 H 0.03105 0.19939 0.03217 0.0
H351 H 0.01933 0.22866 0.11509 0.0
H352 H 0.9602 0.16916 0.18347 0.0
H353 H 0.9323 0.16716 0.14875 0.0
H354 H 0.93795 0.18109 0.23066 0.0
H355 H 0.93565 0.21839 0.04079 0.0
H356 H 0.91391 0.21387 0.10201 0.0
H357 H 0.92453 0.1905 0.05148 0.0
H358 H 0.87471 0.17828 0.26412 0.0
C359 C 0.89985 0.20223 0.23582 0.0
C360 C 0.30257 0.01611 0.01612 0.0
C361 C 0.31941 0.028 0.97757 0.0
C362 C 0.31856 0.05174 0.97655 0.0
C363 C 0.28998 0.05128 0.06557 0.0
C364 C 0.28717 0.02852 0.05804 0.0
C365 C 0.26599 0.02111 0.09767 0.0
H366 H 0.18835 0.05325 0.35028 0.0
C367 C 0.27572 0.05937 0.12205 0.0
C368 C 0.26007 0.04252 0.13931 0.0
H369 H 0.18389 0.99346 0.22357 0.0
H370 H 0.21969 1.00324 0.16656 0.0
H371 H 0.23518 0.04576 0.38912 0.0
H372 H 0.20624 0.08963 0.2387 0.0
H373 H 0.22708 0.10452 0.28637 0.0
H374 H 0.20412 0.09133 0.33236 0.0
H375 H 0.23234 0.07493 0.40808 0.0
H376 H 0.25798 0.0637 0.37067 0.0
C377 C 0.27147 1.00112 0.1459 0.0
C378 C 0.24776 0.01546 0.04307 0.0
C379 C 0.31543 0.10995 0.29073 0.0
C380 C 0.31098 0.11364 0.36204 0.0
C381 C 0.28837 0.11286 0.38497 0.0
C382 C 0.27138 0.10473 0.34063 0.0
C383 C 0.27729 0.09662 0.27406 0.0
C384 C 0.29868 0.10062 0.24838 0.0
C385 C 0.30261 0.08979 0.17838 0.0
C386 C 0.28034 0.07711 0.16912 0.0
C387 C 0.26601 0.08065 0.22627 0.0
C388 C 0.32304 0.07354 0.18392 0.0
C389 C 0.30647 0.10856 0.12335 0.0
C390 C 0.19463 0.04251 0.30886 0.0
C391 C 0.1828 0.02304 0.28983 0.0
C392 C 0.19241 0.00885 0.23832 0.0
C393 C 0.21293 0.01469 0.20451 0.0
C394 C 0.22402 0.03482 0.22269 0.0
C395 C 0.21495 0.04794 0.27553 0.0
C396 C 0.22978 0.06736 0.29467 0.0
C397 C 0.24767 0.06575 0.23831 0.0
C398 C 0.24473 0.04644 0.19624 0.0
C399 C 0.2393 0.06289 0.3693 0.0
C400 C 0.21613 0.08947 0.28811 0.0
H401 H 0.30271 0.0814 0.01628 0.0
H402 H 0.30164 0.99793 0.01399 0.0
H403 H 0.24634 0.0292 1.00376 0.0
H404 H 0.23089 0.01351 0.0664 0.0
H405 H 0.25209 0.99969 0.01491 0.0
H406 H 0.28566 0.00545 0.18138 0.0
H407 H 0.27641 0.98613 0.1148 0.0
H408 H 0.25683 0.99648 0.17876 0.0
H409 H 0.33244 0.11105 0.2706 0.0
H410 H 0.28421 0.11652 0.43893 0.0
H411 H 0.25463 0.10357 0.3614 0.0
H412 H 0.32023 0.06091 0.22602 0.0
H413 H 0.33885 0.0828 0.19533 0.0
H414 H 0.3263 0.06435 0.13492 0.0
H415 H 0.32029 0.10418 0.08666 0.0
H416 H 0.31181 0.12469 0.1477 0.0
H417 H 0.29084 0.11207 0.09317 0.0
H418 H 0.3303 0.06139 0.9451 0.0
C419 C 0.30353 0.06339 0.0194 0.0
C420 C 0.53073 0.29633 0.09018 0.0
C421 C 0.54034 0.31643 0.06314 0.0
C422 C 0.56151 0.32337 0.08765 0.0
C423 C 0.56316 0.29165 0.16688 0.0
C424 C 0.54269 0.28398 0.14196 0.0
C425 C 0.53636 0.2617 0.17651 0.0
H426 H 0.56207 0.18577 0.43731 0.0
C427 C 0.57114 0.27626 0.22213 0.0
C428 C 0.55572 0.25835 0.22875 0.0
H429 H 0.50842 0.17832 0.28636 0.0
H430 H 0.51901 0.2143 0.2335 0.0
H431 H 0.59868 0.19846 0.32767 0.0
H432 H 0.55648 0.23701 0.4652 0.0
H433 H 0.5827 0.25061 0.46523 0.0
H434 H 0.58076 0.22192 0.49562 0.0
H435 H 0.60356 0.20015 0.42006 0.0
H436 H 0.61573 0.2202 0.35997 0.0
C437 C 0.53626 0.24327 0.11987 0.0
C438 C 0.51343 0.26433 0.2136 0.0
C439 C 0.63806 0.30115 0.36702 0.0
C440 C 0.64712 0.29344 0.4306 0.0
C441 C 0.64035 0.27223 0.45615 0.0
C442 C 0.62363 0.25977 0.42159 0.0
C443 C 0.61337 0.26871 0.3612 0.0
C444 C 0.62112 0.28877 0.33405 0.0
C445 C 0.6075 0.29657 0.27252 0.0
C446 C 0.5899 0.27807 0.2678 0.0
C447 C 0.59345 0.26184 0.31953 0.0
C448 C 0.62328 0.29681 0.20764 0.0
C449 C 0.59687 0.31972 0.29156 0.0
C450 C 0.55268 0.19131 0.39194 0.0
C451 C 0.53467 0.17857 0.3656 0.0
C452 C 0.52249 0.18755 0.30815 0.0
C453 C 0.52877 0.20835 0.27699 0.0
C454 C 0.54753 0.2203 0.30303 0.0
C455 C 0.55903 0.2114 0.35962 0.0
C456 C 0.579 0.22512 0.3805 0.0
C457 C 0.57818 0.24367 0.3267 0.0
C458 C 0.55949 0.24144 0.2814 0.0
C459 C 0.60044 0.21033 0.3723 0.0
C460 C 0.57477 0.23409 0.45562 0.0
H461 H 0.58881 0.31782 0.15506 0.0
H462 H 0.5146 0.2904 0.07123 0.0
H463 H 0.51366 0.27924 0.24864 0.0
H464 H 0.50926 0.2496 0.24631 0.0
H465 H 0.49967 0.26668 0.17489 0.0
H466 H 0.55168 0.24446 0.08688 0.0
H467 H 0.52135 0.2451 0.08519 0.0
H468 H 0.53622 0.22617 0.14228 0.0
H469 H 0.64239 0.3176 0.34653 0.0
H470 H 0.64712 0.26585 0.50487 0.0
H471 H 0.61865 0.24415 0.44518 0.0
H472 H 0.63698 0.28411 0.21255 0.0
H473 H 0.63141 0.3135 0.2007 0.0
H474 H 0.61441 0.29215 0.15886 0.0
H475 H 0.59321 0.32083 0.34854 0.0
H476 H 0.58037 0.3227 0.26658 0.0
H477 H 0.6084 0.3338 0.27808 0.0
H478 H 0.56923 0.33861 0.06753 0.0
C479 C 0.5729 0.31119 0.13876 0.0
Tb480 Tb 0.02529 0.98793 0.73969 0.0
Eu481 Eu 0.99125 0.00872 0.62387 0.0
C482 C 0.04403 1.00437 0.59269 0.0
C483 C 0.01079 0.03946 0.74919 0.0
C484 C 0.0665 0.9484 0.80043 0.0
C485 C 0.07673 0.92225 0.70803 0.0
C486 C 0.07266 0.9442 0.7306 0.0
C487 C 0.06748 0.93082 0.84911 0.0
C488 C 0.07165 0.90885 0.82662 0.0
C489 C 0.07466 0.90421 0.75497 0.0
C490 C 0.05354 0.96879 0.81745 0.0
O491 O 0.99416 0.99408 0.79897 0.0
O492 O 0.96955 0.99246 0.70717 0.0
O493 O 1.00276 0.97529 0.58099 0.0
O494 O 0.01024 0.95871 0.6861 0.0
C495 C 0.97349 0.99199 0.77473 0.0
O496 O 0.96107 1.00453 0.56 0.0
O497 O 0.98067 0.03522 0.55235 0.0
O498 O 0.02628 0.01733 0.58497 0.0
O499 O 0.04443 0.98881 0.64151 0.0
O500 O 0.02683 0.02438 0.75921 0.0
O501 O 0.99361 0.03531 0.70773 0.0
C502 C 1.00621 0.95712 0.61856 0.0
O503 O 0.05818 0.98672 0.78072 0.0
O504 O 0.03184 0.96544 0.82192 0.0
C505 C 0.94147 0.03829 0.53898 0.0
C506 C 0.90464 0.06819 0.54395 0.0
C507 C 0.91563 0.06159 0.60587 0.0
C508 C 0.93393 0.04674 0.60338 0.0
C509 C 0.9299 0.04385 0.47773 0.0
C510 C 0.91163 0.05865 0.48009 0.0
C511 C 0.96215 0.02486 0.53452 0.0
H512 H 0.07925 0.9192 0.65274 0.0
H513 H 0.07212 0.95747 0.6919 0.0
H514 H 0.06268 0.93367 0.90306 0.0
H515 H 0.06982 0.89532 0.8642 0.0
H516 H 0.91057 0.06848 0.65587 0.0
H517 H 0.94268 0.04246 0.6513 0.0
H518 H 0.93554 0.03745 0.42764 0.0
H519 H 0.9039 0.06363 0.43121 0.0
Tb520 Tb 0.52515 0.00725 0.77909 0.0
Eu521 Eu 0.50209 0.98175 0.6464 0.0
C522 C 0.51232 0.03533 0.64115 0.0
C523 C 0.47269 1.00144 0.76997 0.0
C524 C 0.55714 0.04934 0.87644 0.0
C525 C 0.57926 0.0768 0.81176 0.0
C526 C 0.56454 0.05844 0.81265 0.0
C527 C 0.56394 0.05923 0.93923 0.0
C528 C 0.5787 0.07755 0.93847 0.0
C529 C 0.58688 0.0863 0.87475 0.0
C530 C 0.54283 0.02922 0.87725 0.0
O531 O 0.52885 0.97168 0.80699 0.0
O532 O 0.50276 0.9558 0.73296 0.0
O533 O 0.53953 0.97458 0.63674 0.0
O534 O 0.55137 1.00536 0.6986 0.0
C535 C 0.51597 0.95468 0.78813 0.0
O536 O 0.47384 0.96211 0.60604 0.0
O537 O 0.50062 0.97234 0.53605 0.0
O538 O 0.5079 0.01688 0.60634 0.0
O539 O 0.51692 0.03513 0.70846 0.0
O540 O 0.4905 0.99883 0.80993 0.0
O541 O 0.47511 1.00182 0.7019 0.0
C542 C 0.55543 0.989 0.6539 0.0
O543 O 0.52218 0.03227 0.8559 0.0
O544 O 0.55186 0.01125 0.8498 0.0
C545 C 0.46297 0.98011 0.50227 0.0
C546 C 0.43146 0.0145 0.47332 0.0
C547 C 0.42419 0.99334 0.49775 0.0
C548 C 0.4398 0.97631 0.51204 0.0
C549 C 0.46992 1.00036 0.4706 0.0
C550 C 0.45435 0.01736 0.45642 0.0
C551 C 0.47949 0.9663 0.54132 0.0
H552 H 0.58508 0.0832 0.76186 0.0
H553 H 0.55937 0.05097 0.76361 0.0
H554 H 0.55834 0.05239 0.98885 0.0
H555 H 0.58453 0.08415 0.98801 0.0
H556 H 0.40655 0.99028 0.50906 0.0
H557 H 0.43393 0.96086 0.53615 0.0
H558 H 0.48763 1.00395 0.46211 0.0
H559 H 0.4606 0.03331 0.43707 0.0
Tb560 Tb 0.50099 0.50623 0.78408 0.0
Eu561 Eu 0.53355 0.48779 0.65902 0.0
C562 C 0.48051 0.49429 0.6357 0.0
C563 C 0.51617 0.45487 0.78066 0.0
C564 C 0.45452 0.53595 0.8735 0.0
C565 C 0.42952 0.56095 0.80958 0.0
C566 C 0.44712 0.54531 0.81014 0.0
C567 C 0.44388 0.54199 0.93598 0.0
C568 C 0.42635 0.55769 0.93557 0.0
C569 C 0.41912 0.56756 0.87245 0.0
C570 C 0.47324 0.51985 0.87475 0.0
O571 O 0.53317 0.50032 0.83754 0.0
O572 O 0.55676 0.50145 0.74253 0.0
O573 O 0.52338 0.52269 0.62553 0.0
O574 O 0.51325 0.53705 0.7324 0.0
C575 C 0.55358 0.50165 0.81056 0.0
O576 O 0.56198 0.49354 0.58896 0.0
O577 O 0.54367 0.46201 0.58428 0.0
O578 O 0.49771 0.48096 0.62282 0.0
O579 O 0.48096 0.50841 0.68849 0.0
O580 O 0.49984 0.46939 0.79254 0.0
O581 O 0.53306 0.45996 0.73918 0.0
C582 C 0.51861 0.53989 0.66594 0.0
O583 O 0.47032 0.50191 0.8368 0.0
O584 O 0.49338 0.5283 0.86666 0.0
C585 C 0.58284 0.46068 0.56808 0.0
C586 C 0.6211 0.43275 0.57694 0.0
C587 C 0.61222 0.44296 0.63732 0.0
C588 C 0.5932 0.45678 0.63293 0.0
C589 C 0.5922 0.45149 0.50743 0.0
C590 C 0.61118 0.43765 0.51172 0.0
C591 C 0.56154 0.47312 0.56416 0.0
H592 H 0.42428 0.56809 0.76008 0.0
H593 H 0.45513 0.5407 0.76127 0.0
H594 H 0.44939 0.53487 0.98527 0.0
H595 H 0.41908 0.56271 0.98512 0.0
H596 H 0.61952 0.43967 0.6882 0.0
H597 H 0.58614 0.46385 0.68036 0.0
H598 H 0.58435 0.45432 0.45706 0.0
H599 H 0.61724 0.42977 0.46427 0.0
Tb600 Tb 1.0059 0.46935 0.79826 0.0
Eu601 Eu 0.0223 0.50497 0.67858 0.0
C602 C 0.01893 0.45193 0.64617 0.0
C603 C 0.05704 0.48534 0.79434 0.0
C604 C 0.97824 0.42046 0.88004 0.0
C605 C 0.9561 0.39492 0.80869 0.0
C606 C 0.97195 0.41225 0.81411 0.0
C607 C 0.96944 0.41047 0.94039 0.0
C608 C 0.95358 0.3932 0.93509 0.0
C609 C 0.9462 0.38565 0.86915 0.0
C610 C 0.99222 0.4407 0.88613 0.0
O611 O 0.99834 0.5027 0.84197 0.0
O612 O 0.02366 0.52398 0.78045 0.0
O613 O 0.98416 0.50474 0.67415 0.0
O614 O 0.97798 0.47017 0.72324 0.0
C615 C 0.0101 0.52134 0.83405 0.0
O616 O 0.01745 0.53744 0.62808 0.0
O617 O 0.04406 0.51524 0.59208 0.0
O618 O 0.01656 0.4723 0.6203 0.0
O619 O 0.01973 0.44852 0.71413 0.0
O620 O 0.03964 0.47927 0.83286 0.0
O621 O 0.05445 0.49227 0.72941 0.0
C622 C 0.97094 0.48741 0.68591 0.0
O623 O 0.01193 0.43987 0.85605 0.0
O624 O 0.98183 0.45953 0.87273 0.0
C625 C 0.05105 0.55419 0.58988 0.0
C626 C 0.08332 0.58897 0.59084 0.0
C627 C 0.07758 0.57769 0.65312 0.0
C628 C 0.06159 0.5604 0.6526 0.0
C629 C 0.05608 0.56584 0.52826 0.0
C630 C 0.07208 0.58308 0.52864 0.0
C631 C 0.03516 0.53531 0.58817 0.0
H632 H 0.95096 0.38939 0.7572 0.0
H633 H 0.97864 0.41984 0.76688 0.0
H634 H 0.97406 0.41672 0.99161 0.0
H635 H 0.94608 0.38681 0.98279 0.0
H636 H 0.08579 0.58189 0.70192 0.0
H637 H 0.05776 0.55159 0.70082 0.0
H638 H 0.04804 0.56123 0.47948 0.0
H639 H 0.07637 0.59106 0.47946 0.0
H640 H 0.16825 0.98352 0.35208 0.0
H641 H 0.05275 0.0379 0.49674 0.0
H642 H 0.14731 0.05166 0.31015 0.0
H643 H 0.08004 0.97552 0.57532 0.0
H644 H 0.08516 0.04117 0.41782 0.0
H645 H 0.13383 0.97805 0.42251 0.0
C646 C 0.15626 0.9972 0.35672 0.0
C647 C 0.16077 0.01811 0.32527 0.0
C648 C 0.08407 0.02673 0.45226 0.0
C649 C 0.12137 0.01205 0.4062 0.0
C650 C 0.06549 0.02484 0.49742 0.0
C651 C 0.06359 0.00647 0.54343 0.0
C652 C 0.10093 0.01005 0.45219 0.0
C653 C 0.08077 0.99009 0.54145 0.0
C654 C 0.13671 0.99415 0.39745 0.0
C655 C 0.14468 0.03531 0.33384 0.0
N656 N 0.09863 0.99225 0.49676 0.0
N657 N 0.12584 0.03192 0.37333 0.0
H658 H 0.4932 0.15695 0.38391 0.0
H659 H 0.53882 0.07196 0.66846 0.0
H660 H 0.56443 0.14815 0.42274 0.0
H661 H 0.48841 0.04809 0.52434 0.0
H662 H 0.54287 0.1062 0.59784 0.0
H663 H 0.48595 0.12194 0.44987 0.0
C664 C 0.50732 0.14778 0.40568 0.0
C665 C 0.52946 0.15614 0.39883 0.0
C666 C 0.53078 0.09352 0.58206 0.0
C667 C 0.52109 0.11652 0.47616 0.0
C668 C 0.52837 0.07403 0.62253 0.0
C669 C 0.51333 0.05704 0.60213 0.0
C670 C 0.51766 0.09643 0.5216 0.0
C671 C 0.50032 0.06069 0.5416 0.0
C672 C 0.50311 0.12787 0.44367 0.0
C673 C 0.54697 0.14322 0.42865 0.0
N674 N 0.50266 0.08004 0.5036 0.0
N675 N 0.54238 0.12445 0.46672 0.0
H676 H 0.35365 0.47594 0.40847 0.0
H677 H 0.45559 0.53115 0.60257 0.0
H678 H 0.3808 0.54022 0.34669 0.0
H679 H 0.46104 0.46035 0.55633 0.0
H680 H 0.42369 0.53382 0.5223 0.0
H681 H 0.38922 0.46798 0.47159 0.0
C682 C 0.3673 0.48803 0.40622 0.0
C683 C 0.36418 0.50883 0.3724 0.0
C684 C 0.43187 0.51768 0.5295 0.0
C685 C 0.40432 0.50024 0.44645 0.0
C686 C 0.45003 0.5161 0.57568 0.0
C687 C 0.4611 0.4955 0.58622 0.0
C688 C 0.42411 0.49843 0.4945 0.0
C689 C 0.45308 0.4766 0.54942 0.0
C690 C 0.38748 0.48357 0.44275 0.0
C691 C 0.38236 0.52404 0.37237 0.0
N692 N 0.43486 0.47843 0.50579 0.0
N693 N 0.40131 0.51968 0.40993 0.0
H694 H 0.99888 0.35902 0.2994 0.0
H695 H 0.02669 0.40766 0.68031 0.0
H696 H 0.01716 0.31776 0.47541 0.0
H697 H 0.01345 0.45041 0.50253 0.0
H698 H 0.02622 0.37495 0.6033 0.0
H699 H 0.00786 0.3928 0.36824 0.0
C700 C 1.00566 0.35708 0.35162 0.0
C701 C 0.00784 0.33554 0.38113 0.0
C702 C 0.02358 0.39147 0.58082 0.0
C703 C 0.01714 0.37414 0.46167 0.0
C704 C 0.02382 0.41026 0.62497 0.0
C705 C 0.02005 0.43201 0.59828 0.0
C706 C 0.01936 0.39418 0.50896 0.0
C707 C 0.01645 0.43407 0.52579 0.0
C708 C 0.01046 0.37637 0.39136 0.0
C709 C 0.01578 0.33402 0.4501 0.0
N710 N 0.01603 0.41546 0.48392 0.0
N711 N 0.01992 0.35297 0.48808 0.0
H712 H 0.84098 0.9777 0.98221 0.0
H713 H 0.92982 0.98014 0.74451 0.0
H714 H 0.88199 0.02358 0.10084 0.0
H715 H 0.97208 0.99998 0.9171 0.0
H716 H 0.89733 0.97975 0.82269 0.0
H717 H 0.87406 0.96818 0.91064 0.0
C718 C 0.85712 0.98527 0.99443 0.0
C719 C 0.85875 1.00134 0.04786 0.0
C720 C 0.91372 0.98368 0.84425 0.0
C721 C 0.89659 0.99151 0.96377 0.0
C722 C 0.93237 0.98414 0.79916 0.0
C723 C 0.95389 0.99008 0.82392 0.0
C724 C 0.91636 0.98938 0.91515 0.0
C725 C 0.95592 0.99518 0.89546 0.0
C726 C 0.87595 0.98025 0.95252 0.0
C727 C 0.88003 0.01099 0.06045 0.0
N728 N 0.93741 0.995 0.93814 0.0
N729 N 0.898 0.00607 0.01859 0.0
H730 H 0.53716 0.83576 0.05636 0.0
H731 H 0.48176 0.92406 0.79735 0.0
H732 H 0.46622 0.85207 0.05839 0.0
H733 H 0.54732 0.93875 0.88361 0.0
H734 H 0.47841 0.89217 0.87734 0.0
H735 H 0.54391 0.8692 0.98222 0.0
C736 C 0.52306 0.84638 0.04209 0.0
C737 C 0.50098 0.84061 0.06268 0.0
C738 C 0.49359 0.9023 0.87861 0.0
C739 C 0.50857 0.87844 0.97645 0.0
C740 C 0.49561 0.92046 0.83251 0.0
C741 C 0.51486 0.93422 0.83353 0.0
C742 C 0.51111 0.89738 0.92561 0.0
C743 C 0.53214 0.92867 0.88109 0.0
C744 C 0.52693 0.86538 0.99944 0.0
C745 C 0.48343 0.85518 0.04217 0.0
N746 N 0.52994 0.91059 0.92496 0.0
N747 N 0.48755 0.87304 0.99959 0.0
H748 H 0.69073 0.49273 0.96382 0.0
H749 H 0.55544 0.50017 0.95534 0.0
H750 H 0.65046 0.49051 0.15127 0.0
H751 H 0.59826 0.50412 0.77312 0.0
H752 H 0.5893 0.49899 0.02936 0.0
H753 H 0.65675 0.49985 0.89538 0.0
C754 C 0.6747 0.49411 0.99075 0.0
C755 C 0.6735 0.49105 0.0635 0.0
C756 C 0.59125 0.50028 0.97321 0.0
C757 C 0.63405 0.49878 0.98473 0.0
C758 C 0.57189 0.50096 0.93076 0.0
C759 C 0.57382 0.50222 0.85746 0.0
C760 C 0.61281 0.50082 0.94237 0.0
C761 C 0.59572 0.50313 0.82909 0.0
C762 C 0.65521 0.49807 0.95153 0.0
C763 C 0.6522 0.49296 0.09544 0.0
N764 N 0.61418 0.50233 0.87133 0.0
N765 N 0.6333 0.49646 0.05584 0.0
H766 H 0.02463 0.64783 0.0589 0.0
H767 H 0.97942 0.5259 0.94189 0.0
H768 H 0.96036 0.62089 0.1221 0.0
H769 H 0.03609 0.55949 0.84587 0.0
H770 H 0.97567 0.55747 0.02363 0.0
H771 H 0.03308 0.6122 0.99925 0.0
C772 C 0.0127 0.63408 0.06271 0.0
C773 C 0.9919 0.63724 0.0964 0.0
C774 C 0.98901 0.55786 0.98492 0.0
C775 C 1.00104 0.59662 0.02604 0.0
C776 C 0.99117 0.53981 0.9381 0.0
C777 C 0.00799 0.53999 0.8862 0.0
C778 C 1.0039 0.57626 0.98059 0.0
C779 C 0.02272 0.55858 0.88438 0.0
C780 C 0.01734 0.61386 0.02757 0.0
C781 C 0.97673 0.61905 0.09758 0.0
N782 N 0.02031 0.57589 0.93056 0.0
N783 N 0.98149 0.59966 0.06247 0.0
H784 H 0.84201 0.17512 0.3369 0.0
H785 H 0.86593 0.0731 0.46602 0.0
H786 H 0.89243 0.19843 0.48224 0.0
H787 H 0.9065 0.1071 0.62025 0.0
H788 H 0.84711 0.10834 0.43997 0.0
H789 H 0.83609 0.14207 0.40994 0.0
C790 C 0.85149 0.17354 0.38503 0.0
C791 C 0.86854 0.18907 0.40145 0.0
C792 C 0.8596 0.10823 0.48101 0.0
C793 C 0.86256 0.15078 0.48432 0.0
C794 C 0.87049 0.08794 0.49565 0.0
C795 C 0.88841 0.08727 0.54351 0.0
C796 C 0.86686 0.12809 0.51419 0.0
C797 C 0.89305 0.10679 0.58206 0.0
C798 C 0.8483 0.15443 0.42659 0.0
C799 C 0.8795 0.1867 0.46607 0.0
N800 N 0.88276 0.12647 0.56531 0.0
N801 N 0.8768 0.16758 0.50395 0.0
H802 H 0.31105 0.08946 0.48397 0.0
H803 H 0.43012 0.04921 0.37768 0.0
H804 H 0.35473 0.12975 0.35342 0.0
H805 H 0.39727 0.02482 0.56476 0.0
H806 H 0.40423 0.08106 0.37585 0.0
H807 H 0.34378 0.06978 0.52878 0.0
C808 C 0.32756 0.09494 0.46665 0.0
C809 C 0.32996 0.11066 0.41211 0.0
C810 C 0.40287 0.06889 0.41784 0.0
C811 C 0.36752 0.08732 0.46139 0.0
C812 C 0.41762 0.05059 0.41875 0.0
C813 C 0.4157 0.03398 0.47075 0.0
C814 C 0.38582 0.07049 0.46863 0.0
C815 C 0.39897 0.03674 0.52225 0.0
C816 C 0.34633 0.08335 0.49173 0.0
C817 C 0.35197 0.11701 0.39303 0.0
N818 N 0.38451 0.05444 0.51933 0.0
N819 N 0.36988 0.1047 0.41548 0.0
H820 H 0.68 0.32403 0.39388 0.0
H821 H 0.62442 0.39974 0.6766 0.0
H822 H 0.64114 0.30067 0.57048 0.0
H823 H 0.6568 0.42399 0.48881 0.0
H824 H 0.64481 0.36445 0.66509 0.0
H825 H 0.68624 0.35967 0.45431 0.0
C826 C 0.67346 0.32608 0.4464 0.0
C827 C 0.65919 0.30974 0.47587 0.0
C828 C 0.64795 0.37769 0.62733 0.0
C829 C 0.66601 0.35047 0.54476 0.0
C830 C 0.63637 0.398 0.6341 0.0
C831 C 0.63826 0.4146 0.58209 0.0
C832 C 0.66116 0.37382 0.56752 0.0
C833 C 0.65414 0.41128 0.52855 0.0
C834 C 0.67699 0.34646 0.48085 0.0
C835 C 0.6518 0.31297 0.54488 0.0
N836 N 0.66452 0.39103 0.52155 0.0
N837 N 0.6547 0.33324 0.57614 0.0
H838 H 0.21685 0.60874 0.516 0.0
H839 H 0.08758 0.62837 0.51594 0.0
H840 H 0.18285 0.65327 0.37183 0.0
H841 H 0.12368 0.58535 0.65928 0.0
H842 H 0.12287 0.64776 0.48874 0.0
H843 H 0.18533 0.61194 0.59547 0.0
C844 C 0.20317 0.61988 0.50162 0.0
C845 C 0.20215 0.62986 0.43497 0.0
C846 C 0.12297 0.63447 0.52756 0.0
C847 C 0.16526 0.63264 0.52538 0.0
C848 C 0.10283 0.62329 0.54278 0.0
C849 C 0.10278 0.6047 0.58821 0.0
C850 C 0.14321 0.62681 0.55739 0.0
C851 C 0.12288 0.59937 0.62323 0.0
C852 C 0.1849 0.62147 0.54719 0.0
C853 C 0.18388 0.64425 0.4209 0.0
N854 N 0.14235 0.61002 0.60585 0.0
N855 N 0.16577 0.64457 0.46452 0.0
H856 H 0.9709 0.82668 0.77101 0.0
H857 H 0.08951 0.86329 0.80441 0.0
H858 H 0.02205 0.77894 0.83163 0.0
H859 H 0.04673 0.89313 0.64754 0.0
H860 H 0.06846 0.8282 0.79319 0.0
H861 H 0.99912 0.84714 0.7028 0.0
C862 C 0.98791 0.82008 0.76785 0.0
C863 C 0.9943 0.80144 0.8081 0.0
C864 C 0.06417 0.84214 0.75923 0.0
C865 C 0.02679 0.82504 0.73245 0.0
C866 C 0.07622 0.86219 0.76574 0.0
C867 C 0.06931 0.88136 0.72879 0.0
C868 C 0.04473 0.84163 0.71715 0.0
C869 C 0.05227 0.8789 0.67836 0.0
C870 C 1.00405 0.83171 0.72882 0.0
C871 C 0.01649 0.79341 0.80185 0.0
N872 N 0.03996 0.85967 0.67587 0.0
N873 N 0.03215 0.8057 0.76677 0.0
H874 H 0.68706 0.15637 0.08019 0.0
H875 H 0.62424 0.0879 0.79036 0.0
H876 H 0.71772 0.11002 0.93462 0.0
H877 H 0.59184 0.12327 0.95996 0.0
H878 H 0.65848 0.10945 0.81113 0.0
H879 H 0.65384 0.15815 1.00495 0.0
C880 C 0.68718 0.14712 0.03144 0.0
C881 C 0.70476 0.13204 0.0159 0.0
C882 C 0.64371 0.11293 0.84271 0.0
C883 C 0.66692 0.13417 0.92955 0.0
C884 C 0.62404 0.10068 0.83067 0.0
C885 C 0.60532 0.10325 0.87501 0.0
C886 C 0.64478 0.12762 0.90007 0.0
C887 C 0.60617 0.12014 0.92621 0.0
C888 C 0.66818 0.14818 0.98846 0.0
C889 C 0.7044 0.1214 0.9503 0.0
N890 N 0.62576 0.13131 0.93846 0.0
N891 N 0.68547 0.12212 0.91061 0.0
H892 H 0.38973 0.70205 0.90786 0.0
H893 H 0.38088 0.57184 0.95331 0.0
H894 H 0.35403 0.66947 0.07689 0.0
H895 H 0.41965 0.60635 0.7949 0.0
H896 H 0.35979 0.60651 0.97453 0.0
H897 H 0.38764 0.66755 0.84089 0.0
C898 C 0.38066 0.68796 0.93022 0.0
C899 C 0.37293 0.68845 0.9997 0.0
C900 C 0.37253 0.60633 0.9339 0.0
C901 C 0.37141 0.64843 0.92382 0.0
C902 C 0.3847 0.58658 0.9221 0.0
C903 C 0.40258 0.58635 0.87381 0.0
C904 C 0.37842 0.62603 0.89755 0.0
C905 C 0.40623 0.60572 0.83322 0.0
C906 C 0.37973 0.66805 0.89194 0.0
C907 C 0.36117 0.66954 0.02478 0.0
N908 N 0.39461 0.62488 0.84707 0.0
N909 N 0.36145 0.65003 0.98784 0.0
H910 H 0.83329 0.33196 0.05519 0.0
H911 H 0.91112 0.38838 0.77632 0.0
H912 H 0.81084 0.37526 0.88798 0.0
H913 H 0.93496 0.34926 0.95163 0.0
H914 H 0.87407 0.37141 0.78987 0.0
H915 H 0.8686 0.32576 0.99208 0.0
C916 C 0.83546 0.33956 1.00412 0.0
C917 C 0.81945 0.35484 0.97812 0.0
C918 C 0.88752 0.36609 0.82441 0.0
C919 C 0.85985 0.34807 0.90615 0.0
C920 C 0.90883 0.37569 0.81639 0.0
C921 C 0.92606 0.37081 0.86441 0.0
C922 C 0.88329 0.35181 0.88153 0.0
C923 C 0.92193 0.35418 0.91508 0.0
C924 C 0.85566 0.33606 0.96814 0.0
C925 C 0.82284 0.36368 0.91083 0.0
N926 N 0.90081 0.3457 0.92348 0.0
N927 N 0.84295 0.3607 0.87809 0.0
H928 H 0.9766 0.172 0.90621 0.0
H929 H 0.041 0.05423 0.84994 0.0
H930 H 0.03287 0.15184 0.03399 0.0
H931 H 0.98242 0.07564 0.73389 0.0
H932 H 0.04076 0.09048 0.91201 0.0
H933 H 0.98141 0.13814 0.83575 0.0
C934 C 0.99025 0.16057 0.91876 0.0
C935 C 1.00434 0.16485 0.97626 0.0
C936 C 0.02805 0.08725 0.87271 0.0
C937 C 0.00977 0.12539 0.89593 0.0
C938 C 0.02816 0.06652 0.83713 0.0
C939 C 0.01166 0.06166 0.78642 0.0
C940 C 0.01137 0.10339 0.85749 0.0
C941 C 0.99547 0.07839 0.77248 0.0
C942 C 0.99293 0.1411 0.87865 0.0
C943 C 0.02174 0.14935 0.98986 0.0
N944 N 0.99574 0.09831 0.80767 0.0
N945 N 0.02383 0.13022 0.95053 0.0
H946 H 0.34969 0.99787 0.03274 0.0
H947 H 0.4604 0.99615 0.90791 0.0
H948 H 0.33477 0.03421 0.84339 0.0
H949 H 0.43202 0.00954 0.70454 0.0
H950 H 0.42264 0.99805 0.95854 0.0
H951 H 0.38683 0.98819 0.98491 0.0
C952 C 0.35403 1.00336 0.9804 0.0
C953 C 0.33905 0.01693 0.94225 0.0
C954 C 0.42446 1.00018 0.90268 0.0
C955 C 0.3822 0.00691 0.88795 0.0
C956 C 0.44622 0.99938 0.8737 0.0
C957 C 0.44959 1.00272 0.80165 0.0
C958 C 0.4057 1.00441 0.85949 0.0
C959 C 0.43039 0.00686 0.76031 0.0
C960 C 0.37552 0.99828 0.95356 0.0
C961 C 0.34579 0.0238 0.87489 0.0
N962 N 0.40942 0.00775 0.78982 0.0
N963 N 0.36681 0.01887 0.85027 0.0
H964 H 0.55243 0.32152 0.92708 0.0
H965 H 0.48822 0.4399 0.88665 0.0
H966 H 0.50573 0.34655 0.08081 0.0
H967 H 0.54346 0.41831 0.75586 0.0
H968 H 0.48964 0.40358 0.94784 0.0
H969 H 0.54372 0.35378 0.85203 0.0
C970 C 0.53965 0.33339 0.94376 0.0
C971 C 0.52946 0.33108 0.00969 0.0
C972 C 0.50133 0.40674 0.90541 0.0
C973 C 0.52006 0.3688 0.92524 0.0
C974 C 0.50053 0.42751 0.87027 0.0
C975 C 0.51583 0.43237 0.81597 0.0
C976 C 0.51743 0.39052 0.88594 0.0
C977 C 0.53139 0.41552 0.79749 0.0
C978 C 0.53493 0.35204 0.90141 0.0
C979 C 0.51357 0.34741 0.02973 0.0
N980 N 0.5318 0.39549 0.83233 0.0
N981 N 0.50953 0.36568 0.9881 0.0
H982 H 0.19303 0.52256 0.91703 0.0
H983 H 0.07075 0.46591 0.91806 0.0
H984 H 0.17415 0.4708 0.0635 0.0
H985 H 0.09613 0.5049 0.74457 0.0
H986 H 0.10818 0.46742 0.97211 0.0
H987 H 0.15801 0.51588 0.85227 0.0
C988 C 0.18172 0.50938 0.93454 0.0
C989 C 0.1867 0.497 0.99523 0.0
C990 C 0.10562 0.47551 0.92199 0.0
C991 C 0.14597 0.48976 0.9226 0.0
C992 C 0.08417 0.47473 0.89106 0.0
C993 C 0.0801 0.48533 0.82644 0.0
C994 C 0.12325 0.48722 0.88878 0.0
C995 C 0.09834 0.49642 0.79422 0.0
C996 C 0.16162 0.50567 0.89782 0.0
C997 C 0.17118 0.48044 0.01635 0.0
N998 N 0.11896 0.49723 0.82589 0.0
N999 N 0.15143 0.47751 0.98069 0.0
H1000 H 0.98719 0.81583 0.49259 0.0
H1001 H 0.01129 0.94858 0.47935 0.0
H1002 H 0.01421 0.85131 0.31435 0.0
H1003 H 1.00087 0.91433 0.67567 0.0
H1004 H 0.01074 0.91249 0.41947 0.0
H1005 H 0.99137 0.85049 0.56261 0.0
C1006 C 0.99422 0.83073 0.46829 0.0
C1007 C 0.99992 0.83061 0.39675 0.0
C1008 C 0.0086 0.91271 0.47569 0.0
C1009 C 1.00439 0.87047 0.47636 0.0
C1010 C 0.00881 0.93345 0.51007 0.0
C1011 C 1.00605 0.93468 0.5829 0.0
C1012 C 1.00529 0.8927 0.51371 0.0
C1013 C 1.00307 0.91428 0.61949 0.0
C1014 C 0.99647 0.85057 0.50824 0.0
C1015 C 0.00895 0.85057 0.36852 0.0
N1016 N 1.00257 0.89417 0.58453 0.0
N1017 N 0.01065 0.86953 0.40788 0.0
H1018 H 0.66997 0.96695 0.36982 0.0
H1019 H 0.59266 0.01473 0.68235 0.0
H1020 H 0.68857 0.02145 0.50627 0.0
H1021 H 0.57047 0.96115 0.54685 0.0
H1022 H 0.62907 0.01472 0.6234 0.0
H1023 H 0.63524 0.96148 0.43921 0.0
C1024 C 0.66704 0.97738 0.41533 0.0
C1025 C 0.68227 0.99467 0.43226 0.0
C1026 C 0.61635 1.00284 0.6065 0.0
C1027 C 0.64236 0.98883 0.51116 0.0
C1028 C 0.5954 1.00284 0.64033 0.0
C1029 C 0.57821 0.98797 0.6197 0.0
C1030 C 0.62045 0.98793 0.55087 0.0
C1031 C 0.58311 0.97295 0.56474 0.0
C1032 C 0.64709 0.97442 0.45451 0.0
C1033 C 0.67734 0.00794 0.49114 0.0
N1034 N 0.60367 0.9734 0.53208 0.0
N1035 N 0.6579 1.00485 0.52786 0.0
H1036 H 0.48209 0.67655 0.55153 0.0
H1037 H 0.53484 0.55289 0.53761 0.0
H1038 H 0.52194 0.65228 0.3792 0.0
H1039 H 0.50199 0.57967 0.72089 0.0
H1040 H 0.53263 0.58994 0.48269 0.0
H1041 H 0.49227 0.64291 0.61888 0.0
C1042 C 0.4937 0.6645 0.52888 0.0
C1043 C 0.50152 0.66745 0.46008 0.0
C1044 C 0.52606 0.58783 0.53514 0.0
C1045 C 0.51246 0.62822 0.53579 0.0
C1046 C 0.52725 0.56657 0.56666 0.0
C1047 C 0.5185 0.56295 0.63419 0.0
C1048 C 0.51584 0.60582 0.57076 0.0
C1049 C 0.50898 0.58154 0.6689 0.0
C1050 C 0.49927 0.64512 0.56702 0.0
C1051 C 0.51593 0.65093 0.43252 0.0
N1052 N 0.50773 0.60204 0.63665 0.0
N1053 N 0.52067 0.63193 0.46998 0.0
H1054 H 0.85738 0.50195 0.39888 0.0
H1055 H 0.93692 0.45661 0.70733 0.0
H1056 H 0.83927 0.44805 0.53871 0.0
H1057 H 0.95234 0.51655 0.58908 0.0
H1058 H 0.90023 0.45471 0.64943 0.0
H1059 H 0.8906 0.50986 0.47218 0.0
C1060 C 0.85993 0.49233 0.44637 0.0
C1061 C 0.84536 0.47446 0.46303 0.0
C1062 C 0.91154 0.4684 0.63636 0.0
C1063 C 0.88385 0.48278 0.54583 0.0
C1064 C 0.93261 0.46946 0.66944 0.0
C1065 C 0.94796 0.48674 0.65323 0.0
C1066 C 0.9056 0.48459 0.58577 0.0
C1067 C 0.94117 0.5029 0.60351 0.0
C1068 C 0.87909 0.49662 0.48773 0.0
C1069 C 0.84992 0.46211 0.5242 0.0
N1070 N 0.92066 0.50134 0.5713 0.0
N1071 N 0.86879 0.4663 0.56262 0.0
loop_
_geom_bond_atom_site_label_1
_geom_bond_atom_site_label_2
_geom_bond_distance
_geom_bond_site_symmetry_2
_ccdc_geom_bond_type
C0 C1 1.391 . S
C0 C4 1.391 . S
C0 H42 0.948 . S
C1 C0 1.391 . S
C1 C2 1.391 . S
C2 C1 1.391 . S
C2 H58 0.947 . S
C2 C59 1.392 . S
C3 C4 1.391 . S
C3 C7 1.397 . S
C3 C59 1.419 . S
C4 C0 1.391 . S
C4 C3 1.391 . S
C4 C5 1.399 . S
C5 C4 1.399 . S
C5 C8 1.396 . S
C5 C17 1.453 . S
C5 C18 1.684 . S
H6 C30 0.948 . S
C7 C3 1.397 . S
C7 C8 1.394 . S
C7 C26 1.723 . S
C8 C5 1.396 . S
C8 C7 1.394 . S
C8 C38 1.723 . S
H9 C32 0.947 . S
H10 C33 0.948 . S
H11 C39 0.982 . S
H12 C40 0.979 . S
H13 C40 0.980 . S
H14 C40 0.983 . S
H15 C39 0.979 . S
H16 C39 0.977 . S
C17 C5 1.453 . S
C17 H46 0.982 . S
C17 H47 0.979 . S
C17 H48 0.977 . S
C18 C5 1.684 . S
C18 H43 0.979 . S
C18 H44 0.980 . S
C18 H45 0.983 . S
C19 C20 1.391 . S
C19 C24 1.391 . S
C19 H49 0.948 . S
C20 C19 1.391 . S
C20 C21 1.391 . S
C21 C20 1.391 . S
C21 C22 1.392 . S
C21 H50 0.947 . S
C22 C21 1.392 . S
C22 C23 1.419 . S
C22 H51 0.948 . S
C23 C22 1.419 . S
C23 C24 1.391 . S
C23 C27 1.397 . S
C24 C19 1.391 . S
C24 C23 1.391 . S
C24 C25 1.399 . S
C25 C24 1.399 . S
C25 C26 1.396 . S
C25 C28 1.453 . S
C25 C29 1.684 . S
C26 C7 1.723 . S
C26 C25 1.396 . S
C26 C27 1.394 . S
C27 C23 1.397 . S
C27 C26 1.394 . S
C27 C37 1.723 . S
C28 C25 1.453 . S
C28 H52 0.982 . S
C28 H53 0.979 . S
C28 H54 0.977 . S
C29 C25 1.684 . S
C29 H55 0.979 . S
C29 H56 0.980 . S
C29 H57 0.983 . S
C30 H6 0.948 . S
C30 C31 1.391 . S
C30 C35 1.391 . S
C31 C30 1.391 . S
C31 C32 1.391 . S
C32 H9 0.947 . S
C32 C31 1.391 . S
C32 C33 1.392 . S
C33 H10 0.948 . S
C33 C32 1.392 . S
C33 C34 1.419 . S
C34 C33 1.419 . S
C34 C35 1.391 . S
C34 C38 1.397 . S
C35 C30 1.391 . S
C35 C34 1.391 . S
C35 C36 1.399 . S
C36 C35 1.399 . S
C36 C37 1.396 . S
C36 C39 1.453 . S
C36 C40 1.684 . S
C37 C27 1.723 . S
C37 C36 1.396 . S
C37 C38 1.394 . S
C38 C8 1.723 . S
C38 C34 1.397 . S
C38 C37 1.394 . S
C39 H11 0.982 . S
C39 H15 0.979 . S
C39 H16 0.977 . S
C39 C36 1.453 . S
C40 H12 0.979 . S
C40 H13 0.980 . S
C40 H14 0.983 . S
C40 C36 1.684 . S
H41 C59 0.948 . S
H42 C0 0.948 . S
H43 C18 0.979 . S
H44 C18 0.980 . S
H45 C18 0.983 . S
H46 C17 0.982 . S
H47 C17 0.979 . S
H48 C17 0.977 . S
H49 C19 0.948 . S
H50 C21 0.947 . S
H51 C22 0.948 . S
H52 C28 0.982 . S
H53 C28 0.979 . S
H54 C28 0.977 . S
H55 C29 0.979 . S
H56 C29 0.980 . S
H57 C29 0.983 . S
H58 C2 0.947 . S
C59 C2 1.392 . S
C59 C3 1.419 . S
C59 H41 0.948 . S
C60 C61 1.391 . S
C60 C64 1.391 . S
C60 H102 0.948 . S
C61 C60 1.391 . S
C61 C62 1.391 . S
C62 C61 1.391 . S
C62 H118 0.947 . S
C62 C119 1.392 . S
C63 C64 1.391 . S
C63 C67 1.397 1_655 S
C63 C119 1.419 . S
C64 C60 1.391 . S
C64 C63 1.391 . S
C64 C65 1.399 . S
C65 C64 1.399 . S
C65 C68 1.396 1_655 S
C65 C77 1.453 1_655 S
C65 C78 1.684 . S
H66 C90 0.948 . S
C67 C63 1.397 1_455 S
C67 C68 1.394 . S
C67 C86 1.723 . S
C68 C65 1.396 1_455 S
C68 C67 1.394 . S
C68 C98 1.723 . S
H69 C92 0.947 . S
H70 C93 0.948 . S
H71 C99 0.982 . S
H72 C100 0.979 . S
H73 C100 0.980 . S
H74 C100 0.983 . S
H75 C99 0.979 . S
H76 C99 0.977 . S
C77 C65 1.453 1_455 S
C77 H106 0.982 . S
C77 H107 0.979 . S
C77 H108 0.977 . S
C78 C65 1.684 . S
C78 H103 0.979 . S
C78 H104 0.980 . S
C78 H105 0.983 . S
C79 C80 1.391 . S
C79 C84 1.391 . S
C79 H109 0.948 . S
C80 C79 1.391 . S
C80 C81 1.391 . S
C81 C80 1.391 . S
C81 C82 1.392 . S
C81 H110 0.947 . S
C82 C81 1.392 . S
C82 C83 1.419 . S
C82 H111 0.948 . S
C83 C82 1.419 . S
C83 C84 1.391 . S
C83 C87 1.397 1_655 S
C84 C79 1.391 . S
C84 C83 1.391 . S
C84 C85 1.399 . S
C85 C84 1.399 . S
C85 C86 1.396 1_655 S
C85 C88 1.453 1_655 S
C85 C89 1.684 . S
C86 C67 1.723 . S
C86 C85 1.396 1_455 S
C86 C87 1.394 . S
C87 C83 1.397 1_455 S
C87 C86 1.394 . S
C87 C97 1.723 . S
C88 C85 1.453 1_455 S
C88 H112 0.982 . S
C88 H113 0.979 . S
C88 H114 0.977 . S
C89 C85 1.684 . S
C89 H115 0.979 . S
C89 H116 0.980 . S
C89 H117 0.983 . S
C90 H66 0.948 . S
C90 C91 1.391 . S
C90 C95 1.391 . S
C91 C90 1.391 . S
C91 C92 1.391 . S
C92 H69 0.947 . S
C92 C91 1.391 . S
C92 C93 1.392 . S
C93 H70 0.948 . S
C93 C92 1.392 . S
C93 C94 1.419 . S
C94 C93 1.419 . S
C94 C95 1.391 . S
C94 C98 1.397 1_655 S
C95 C90 1.391 . S
C95 C94 1.391 . S
C95 C96 1.399 . S
C96 C95 1.399 . S
C96 C97 1.396 1_655 S
C96 C99 1.453 1_655 S
C96 C100 1.684 . S
C97 C87 1.723 . S
C97 C96 1.396 1_455 S
C97 C98 1.394 . S
C98 C68 1.723 . S
C98 C94 1.397 1_455 S
C98 C97 1.394 . S
C99 H71 0.982 . S
C99 H75 0.979 . S
C99 H76 0.977 . S
C99 C96 1.453 1_455 S
C100 H72 0.979 . S
C100 H73 0.980 . S
C100 H74 0.983 . S
C100 C96 1.684 . S
H101 C119 0.948 . S
H102 C60 0.948 . S
H103 C78 0.979 . S
H104 C78 0.980 . S
H105 C78 0.983 . S
H106 C77 0.982 . S
H107 C77 0.979 . S
H108 C77 0.977 . S
H109 C79 0.948 . S
H110 C81 0.947 . S
H111 C82 0.948 . S
H112 C88 0.982 . S
H113 C88 0.979 . S
H114 C88 0.977 . S
H115 C89 0.979 . S
H116 C89 0.980 . S
H117 C89 0.983 . S
H118 C62 0.947 . S
C119 C62 1.392 . S
C119 C63 1.419 . S
C119 H101 0.948 . S
C120 C121 1.391 . S
C120 C124 1.391 . S
C120 H162 0.948 . S
C121 C120 1.391 . S
C121 C122 1.391 . S
C122 C121 1.391 . S
C122 H178 0.947 . S
C122 C179 1.392 . S
C123 C124 1.391 . S
C123 C127 1.397 1_565 S
C123 C179 1.419 . S
C124 C120 1.391 . S
C124 C123 1.391 . S
C124 C125 1.399 . S
C125 C124 1.399 . S
C125 C128 1.396 1_565 S
C125 C137 1.453 1_565 S
C125 C138 1.684 . S
H126 C150 0.948 . S
C127 C123 1.397 1_545 S
C127 C128 1.394 . S
C127 C146 1.723 . S
C128 C125 1.396 1_545 S
C128 C127 1.394 . S
C128 C158 1.723 . S
H129 C152 0.947 . S
H130 C153 0.948 . S
H131 C159 0.982 . S
H132 C160 0.979 . S
H133 C160 0.980 . S
H134 C160 0.983 . S
H135 C159 0.979 . S
H136 C159 0.977 . S
C137 C125 1.453 1_545 S
C137 H166 0.982 . S
C137 H167 0.979 . S
C137 H168 0.977 . S
C138 C125 1.684 . S
C138 H163 0.979 . S
C138 H164 0.980 . S
C138 H165 0.983 . S
C139 C140 1.391 . S
C139 C144 1.391 . S
C139 H169 0.948 . S
C140 C139 1.391 . S
C140 C141 1.391 . S
C141 C140 1.391 . S
C141 C142 1.392 . S
C141 H170 0.947 . S
C142 C141 1.392 . S
C142 C143 1.419 . S
C142 H171 0.948 . S
C143 C142 1.419 . S
C143 C144 1.391 . S
C143 C147 1.397 1_565 S
C144 C139 1.391 . S
C144 C143 1.391 . S
C144 C145 1.399 . S
C145 C144 1.399 . S
C145 C146 1.396 1_565 S
C145 C148 1.453 1_565 S
C145 C149 1.684 . S
C146 C127 1.723 . S
C146 C145 1.396 1_545 S
C146 C147 1.394 . S
C147 C143 1.397 1_545 S
C147 C146 1.394 . S
C147 C157 1.723 . S
C148 C145 1.453 1_545 S
C148 H172 0.982 . S
C148 H173 0.979 . S
C148 H174 0.977 . S
C149 C145 1.684 . S
C149 H175 0.979 . S
C149 H176 0.980 . S
C149 H177 0.983 . S
C150 H126 0.948 . S
C150 C151 1.391 . S
C150 C155 1.391 . S
C151 C150 1.391 . S
C151 C152 1.391 . S
C152 H129 0.947 . S
C152 C151 1.391 . S
C152 C153 1.392 . S
C153 H130 0.948 . S
C153 C152 1.392 . S
C153 C154 1.419 . S
C154 C153 1.419 . S
C154 C155 1.391 . S
C154 C158 1.397 1_565 S
C155 C150 1.391 . S
C155 C154 1.391 . S
C155 C156 1.399 . S
C156 C155 1.399 . S
C156 C157 1.396 1_565 S
C156 C159 1.453 1_565 S
C156 C160 1.684 . S
C157 C147 1.723 . S
C157 C156 1.396 1_545 S
C157 C158 1.394 . S
C158 C128 1.723 . S
C158 C154 1.397 1_545 S
C158 C157 1.394 . S
C159 H131 0.982 . S
C159 H135 0.979 . S
C159 H136 0.977 . S
C159 C156 1.453 1_545 S
C160 H132 0.979 . S
C160 H133 0.980 . S
C160 H134 0.983 . S
C160 C156 1.684 . S
H161 C179 0.948 . S
H162 C120 0.948 . S
H163 C138 0.979 . S
H164 C138 0.980 . S
H165 C138 0.983 . S
H166 C137 0.982 . S
H167 C137 0.979 . S
H168 C137 0.977 . S
H169 C139 0.948 . S
H170 C141 0.947 . S
H171 C142 0.948 . S
H172 C148 0.982 . S
H173 C148 0.979 . S
H174 C148 0.977 . S
H175 C149 0.979 . S
H176 C149 0.980 . S
H177 C149 0.983 . S
H178 C122 0.947 . S
C179 C122 1.392 . S
C179 C123 1.419 . S
C179 H161 0.948 . S
C180 C181 1.391 . S
C180 C184 1.391 . S
C180 H222 0.948 . S
C181 C180 1.391 . S
C181 C182 1.391 . S
C182 C181 1.391 . S
C182 H238 0.947 . S
C182 C239 1.392 . S
C183 C184 1.391 . S
C183 C187 1.397 . S
C183 C239 1.419 . S
C184 C180 1.391 . S
C184 C183 1.391 . S
C184 C185 1.399 . S
C185 C184 1.399 . S
C185 C188 1.396 . S
C185 C197 1.453 . S
C185 C198 1.684 . S
H186 C210 0.948 . S
C187 C183 1.397 . S
C187 C188 1.394 . S
C187 C206 1.723 . S
C188 C185 1.396 . S
C188 C187 1.394 . S
C188 C218 1.723 . S
H189 C212 0.947 . S
H190 C213 0.948 . S
H191 C219 0.982 . S
H192 C220 0.979 . S
H193 C220 0.980 . S
H194 C220 0.983 . S
H195 C219 0.979 . S
H196 C219 0.977 . S
C197 C185 1.453 . S
C197 H226 0.982 . S
C197 H227 0.979 . S
C197 H228 0.977 . S
C198 C185 1.684 . S
C198 H223 0.979 . S
C198 H224 0.980 . S
C198 H225 0.983 . S
C199 C200 1.391 . S
C199 C204 1.391 . S
C199 H229 0.948 . S
C200 C199 1.391 . S
C200 C201 1.391 . S
C201 C200 1.391 . S
C201 C202 1.392 . S
C201 H230 0.947 . S
C202 C201 1.392 . S
C202 C203 1.419 . S
C202 H231 0.948 . S
C203 C202 1.419 . S
C203 C204 1.391 . S
C203 C207 1.397 . S
C204 C199 1.391 . S
C204 C203 1.391 . S
C204 C205 1.399 . S
C205 C204 1.399 . S
C205 C206 1.396 . S
C205 C208 1.453 . S
C205 C209 1.684 . S
C206 C187 1.723 . S
C206 C205 1.396 . S
C206 C207 1.394 . S
C207 C203 1.397 . S
C207 C206 1.394 . S
C207 C217 1.723 . S
C208 C205 1.453 . S
C208 H232 0.982 . S
C208 H233 0.979 . S
C208 H234 0.977 . S
C209 C205 1.684 . S
C209 H235 0.979 . S
C209 H236 0.980 . S
C209 H237 0.983 . S
C210 H186 0.948 . S
C210 C211 1.391 . S
C210 C215 1.391 . S
C211 C210 1.391 . S
C211 C212 1.391 . S
C212 H189 0.947 . S
C212 C211 1.391 . S
C212 C213 1.392 . S
C213 H190 0.948 . S
C213 C212 1.392 . S
C213 C214 1.419 . S
C214 C213 1.419 . S
C214 C215 1.391 . S
C214 C218 1.397 . S
C215 C210 1.391 . S
C215 C214 1.391 . S
C215 C216 1.399 . S
C216 C215 1.399 . S
C216 C217 1.396 . S
C216 C219 1.453 . S
C216 C220 1.684 . S
C217 C207 1.723 . S
C217 C216 1.396 . S
C217 C218 1.394 . S
C218 C188 1.723 . S
C218 C214 1.397 . S
C218 C217 1.394 . S
C219 H191 0.982 . S
C219 H195 0.979 . S
C219 H196 0.977 . S
C219 C216 1.453 . S
C220 H192 0.979 . S
C220 H193 0.980 . S
C220 H194 0.983 . S
C220 C216 1.684 . S
H221 C239 0.948 . S
H222 C180 0.948 . S
H223 C198 0.979 . S
H224 C198 0.980 . S
H225 C198 0.983 . S
H226 C197 0.982 . S
H227 C197 0.979 . S
H228 C197 0.977 . S
H229 C199 0.948 . S
H230 C201 0.947 . S
H231 C202 0.948 . S
H232 C208 0.982 . S
H233 C208 0.979 . S
H234 C208 0.977 . S
H235 C209 0.979 . S
H236 C209 0.980 . S
H237 C209 0.983 . S
H238 C182 0.947 . S
C239 C182 1.392 . S
C239 C183 1.419 . S
C239 H221 0.948 . S
C240 C241 1.391 . S
C240 C244 1.391 . S
C240 H282 0.948 . S
C241 C240 1.391 . S
C241 C242 1.391 . S
C242 C241 1.391 . S
C242 H298 0.947 . S
C242 C299 1.392 . S
C243 C244 1.391 . S
C243 C247 1.397 . S
C243 C299 1.419 . S
C244 C240 1.391 . S
C244 C243 1.391 . S
C244 C245 1.399 1_554 S
C245 C244 1.399 1_556 S
C245 C248 1.396 1_556 S
C245 C257 1.453 . S
C245 C258 1.684 . S
H246 C270 0.948 . S
C247 C243 1.397 . S
C247 C248 1.394 . S
C247 C266 1.723 . S
C248 C245 1.396 1_554 S
C248 C247 1.394 . S
C248 C278 1.723 1_554 S
H249 C272 0.947 . S
H250 C273 0.948 . S
H251 C279 0.982 . S
H252 C280 0.979 . S
H253 C280 0.980 1_554 S
H254 C280 0.983 . S
H255 C279 0.979 . S
H256 C279 0.977 1_554 S
C257 C245 1.453 . S
C257 H286 0.982 . S
C257 H287 0.979 . S
C257 H288 0.977 . S
C258 C245 1.684 . S
C258 H283 0.979 . S
C258 H284 0.980 . S
C258 H285 0.983 . S
C259 C260 1.391 . S
C259 C264 1.391 . S
C259 H289 0.948 . S
C260 C259 1.391 . S
C260 C261 1.391 . S
C261 C260 1.391 . S
C261 C262 1.392 . S
C261 H290 0.947 . S
C262 C261 1.392 . S
C262 C263 1.419 . S
C262 H291 0.948 . S
C263 C262 1.419 . S
C263 C264 1.391 . S
C263 C267 1.397 . S
C264 C259 1.391 . S
C264 C263 1.391 . S
C264 C265 1.399 . S
C265 C264 1.399 . S
C265 C266 1.396 . S
C265 C268 1.453 . S
C265 C269 1.684 . S
C266 C247 1.723 . S
C266 C265 1.396 . S
C266 C267 1.394 . S
C267 C263 1.397 . S
C267 C266 1.394 . S
C267 C277 1.723 . S
C268 C265 1.453 . S
C268 H292 0.982 . S
C268 H293 0.979 . S
C268 H294 0.977 . S
C269 C265 1.684 . S
C269 H295 0.979 . S
C269 H296 0.980 . S
C269 H297 0.983 . S
C270 H246 0.948 . S
C270 C271 1.391 . S
C270 C275 1.391 . S
C271 C270 1.391 . S
C271 C272 1.391 . S
C272 H249 0.947 . S
C272 C271 1.391 . S
C272 C273 1.392 . S
C273 H250 0.948 . S
C273 C272 1.392 . S
C273 C274 1.419 . S
C274 C273 1.419 . S
C274 C275 1.391 . S
C274 C278 1.397 . S
C275 C270 1.391 . S
C275 C274 1.391 . S
C275 C276 1.399 . S
C276 C275 1.399 . S
C276 C277 1.396 1_556 S
C276 C279 1.453 . S
C276 C280 1.684 . S
C277 C267 1.723 . S
C277 C276 1.396 1_554 S
C277 C278 1.394 1_554 S
C278 C248 1.723 1_556 S
C278 C274 1.397 . S
C278 C277 1.394 1_556 S
C279 H251 0.982 . S
C279 H255 0.979 . S
C279 H256 0.977 1_556 S
C279 C276 1.453 . S
C280 H252 0.979 . S
C280 H253 0.980 1_556 S
C280 H254 0.983 . S
C280 C276 1.684 . S
H281 C299 0.948 . S
H282 C240 0.948 . S
H283 C258 0.979 . S
H284 C258 0.980 . S
H285 C258 0.983 . S
H286 C257 0.982 . S
H287 C257 0.979 . S
H288 C257 0.977 . S
H289 C259 0.948 . S
H290 C261 0.947 . S
H291 C262 0.948 . S
H292 C268 0.982 . S
H293 C268 0.979 . S
H294 C268 0.977 . S
H295 C269 0.979 . S
H296 C269 0.980 . S
H297 C269 0.983 . S
H298 C242 0.947 . S
C299 C242 1.392 . S
C299 C243 1.419 . S
C299 H281 0.948 . S
C300 C301 1.391 . S
C300 C304 1.391 . S
C300 H342 0.948 . S
C301 C300 1.391 . S
C301 C302 1.391 . S
C302 C301 1.391 . S
C302 H358 0.947 . S
C302 C359 1.392 . S
C303 C304 1.391 . S
C303 C307 1.396 1_655 S
C303 C359 1.419 . S
C304 C300 1.391 . S
C304 C303 1.391 . S
C304 C305 1.399 . S
C305 C304 1.399 . S
C305 C308 1.396 1_655 S
C305 C317 1.453 1_655 S
C305 C318 1.684 . S
H306 C330 0.948 . S
C307 C303 1.396 1_455 S
C307 C308 1.395 . S
C307 C326 1.723 . S
C308 C305 1.396 1_455 S
C308 C307 1.395 . S
C308 C338 1.723 . S
H309 C332 0.947 . S
H310 C333 0.948 . S
H311 C339 0.982 . S
H312 C340 0.979 . S
H313 C340 0.980 . S
H314 C340 0.983 . S
H315 C339 0.979 . S
H316 C339 0.977 . S
C317 C305 1.453 1_455 S
C317 H346 0.982 . S
C317 H347 0.979 . S
C317 H348 0.977 . S
C318 C305 1.684 . S
C318 H343 0.979 . S
C318 H344 0.980 . S
C318 H345 0.983 . S
C319 C320 1.391 . S
C319 C324 1.391 . S
C319 H349 0.948 . S
C320 C319 1.391 . S
C320 C321 1.391 . S
C321 C320 1.391 . S
C321 C322 1.392 . S
C321 H350 0.947 . S
C322 C321 1.392 . S
C322 C323 1.419 . S
C322 H351 0.948 . S
C323 C322 1.419 . S
C323 C324 1.391 . S
C323 C327 1.396 1_655 S
C324 C319 1.391 . S
C324 C323 1.391 . S
C324 C325 1.399 . S
C325 C324 1.399 . S
C325 C326 1.396 1_656 S
C325 C328 1.453 1_655 S
C325 C329 1.684 . S
C326 C307 1.723 . S
C326 C325 1.396 1_454 S
C326 C327 1.395 1_554 S
C327 C323 1.396 1_455 S
C327 C326 1.395 1_556 S
C327 C337 1.723 1_556 S
C328 C325 1.453 1_455 S
C328 H352 0.982 . S
C328 H353 0.979 . S
C328 H354 0.977 1_556 S
C329 C325 1.684 . S
C329 H355 0.979 . S
C329 H356 0.980 1_556 S
C329 H357 0.983 . S
C330 H306 0.948 . S
C330 C331 1.391 . S
C330 C335 1.391 . S
C331 C330 1.391 . S
C331 C332 1.391 . S
C332 H309 0.947 . S
C332 C331 1.391 . S
C332 C333 1.392 . S
C333 H310 0.948 . S
C333 C332 1.392 . S
C333 C334 1.419 . S
C334 C333 1.419 . S
C334 C335 1.391 . S
C334 C338 1.396 1_655 S
C335 C330 1.391 . S
C335 C334 1.391 . S
C335 C336 1.399 1_554 S
C336 C335 1.399 1_556 S
C336 C337 1.396 1_656 S
C336 C339 1.453 1_655 S
C336 C340 1.684 . S
C337 C327 1.723 1_554 S
C337 C336 1.396 1_454 S
C337 C338 1.395 . S
C338 C308 1.723 . S
C338 C334 1.396 1_455 S
C338 C337 1.395 . S
C339 H311 0.982 . S
C339 H315 0.979 . S
C339 H316 0.977 . S
C339 C336 1.453 1_455 S
C340 H312 0.979 . S
C340 H313 0.980 . S
C340 H314 0.983 . S
C340 C336 1.684 . S
H341 C359 0.948 . S
H342 C300 0.948 . S
H343 C318 0.979 . S
H344 C318 0.980 . S
H345 C318 0.983 . S
H346 C317 0.982 . S
H347 C317 0.979 . S
H348 C317 0.977 . S
H349 C319 0.948 . S
H350 C321 0.947 . S
H351 C322 0.948 . S
H352 C328 0.982 . S
H353 C328 0.979 . S
H354 C328 0.977 1_554 S
H355 C329 0.979 . S
H356 C329 0.980 1_554 S
H357 C329 0.983 . S
H358 C302 0.947 . S
C359 C302 1.392 . S
C359 C303 1.419 . S
C359 H341 0.948 . S
C360 C361 1.391 . S
C360 C364 1.391 . S
C360 H402 0.948 . S
C361 C360 1.391 . S
C361 C362 1.391 . S
C362 C361 1.391 . S
C362 H418 0.947 . S
C362 C419 1.392 . S
C363 C364 1.391 . S
C363 C367 1.397 1_545 S
C363 C419 1.419 . S
C364 C360 1.391 . S
C364 C363 1.391 . S
C364 C365 1.399 . S
C365 C364 1.399 . S
C365 C368 1.396 1_545 S
C365 C377 1.453 1_545 S
C365 C378 1.684 . S
H366 C390 0.948 . S
C367 C363 1.397 1_565 S
C367 C368 1.394 . S
C367 C386 1.723 1_556 S
C368 C365 1.396 1_565 S
C368 C367 1.394 . S
C368 C398 1.723 1_556 S
H369 C392 0.947 . S
H370 C393 0.948 1_556 S
H371 C399 0.982 . S
H372 C400 0.979 . S
H373 C400 0.980 . S
H374 C400 0.983 . S
H375 C399 0.979 . S
H376 C399 0.977 . S
C377 C365 1.453 1_565 S
C377 H406 0.982 . S
C377 H407 0.979 . S
C377 H408 0.977 . S
C378 C365 1.684 . S
C378 H403 0.979 . S
C378 H404 0.980 . S
C378 H405 0.983 . S
C379 C380 1.391 . S
C379 C384 1.391 . S
C379 H409 0.948 . S
C380 C379 1.391 . S
C380 C381 1.391 . S
C381 C380 1.391 . S
C381 C382 1.392 . S
C381 H410 0.947 . S
C382 C381 1.392 . S
C382 C383 1.419 . S
C382 H411 0.948 . S
C383 C382 1.419 . S
C383 C384 1.391 . S
C383 C387 1.397 1_545 S
C384 C379 1.391 . S
C384 C383 1.391 . S
C384 C385 1.399 . S
C385 C384 1.399 . S
C385 C386 1.396 1_545 S
C385 C388 1.453 1_545 S
C385 C389 1.684 . S
C386 C367 1.723 1_554 S
C386 C385 1.396 1_565 S
C386 C387 1.394 . S
C387 C383 1.397 1_565 S
C387 C386 1.394 . S
C387 C397 1.723 . S
C388 C385 1.453 1_565 S
C388 H412 0.982 . S
C388 H413 0.979 . S
C388 H414 0.977 . S
C389 C385 1.684 . S
C389 H415 0.979 . S
C389 H416 0.980 1_554 S
C389 H417 0.983 . S
C390 H366 0.948 . S
C390 C391 1.391 . S
C390 C395 1.391 . S
C391 C390 1.391 . S
C391 C392 1.391 . S
C392 H369 0.947 . S
C392 C391 1.391 . S
C392 C393 1.392 . S
C393 H370 0.948 1_554 S
C393 C392 1.392 . S
C393 C394 1.419 . S
C394 C393 1.419 . S
C394 C395 1.391 . S
C394 C398 1.397 1_545 S
C395 C390 1.391 . S
C395 C394 1.391 . S
C395 C396 1.399 . S
C396 C395 1.399 . S
C396 C397 1.396 1_545 S
C396 C399 1.453 1_545 S
C396 C400 1.684 . S
C397 C387 1.723 . S
C397 C396 1.396 1_565 S
C397 C398 1.394 . S
C398 C368 1.723 1_554 S
C398 C394 1.397 1_565 S
C398 C397 1.394 . S
C399 H371 0.982 . S
C399 H375 0.979 . S
C399 H376 0.977 . S
C399 C396 1.453 1_565 S
C400 H372 0.979 . S
C400 H373 0.980 . S
C400 H374 0.983 . S
C400 C396 1.684 . S
H401 C419 0.948 . S
H402 C360 0.948 . S
H403 C378 0.979 . S
H404 C378 0.980 . S
H405 C378 0.983 . S
H406 C377 0.982 . S
H407 C377 0.979 . S
H408 C377 0.977 . S
H409 C379 0.948 . S
H410 C381 0.947 . S
H411 C382 0.948 . S
H412 C388 0.982 . S
H413 C388 0.979 . S
H414 C388 0.977 . S
H415 C389 0.979 . S
H416 C389 0.980 1_556 S
H417 C389 0.983 . S
H418 C362 0.947 . S
C419 C362 1.392 . S
C419 C363 1.419 . S
C419 H401 0.948 . S
C420 C421 1.391 . S
C420 C424 1.391 . S
C420 H462 0.948 . S
C421 C420 1.391 . S
C421 C422 1.391 . S
C422 C421 1.391 . S
C422 H478 0.947 . S
C422 C479 1.392 . S
C423 C424 1.391 . S
C423 C427 1.397 . S
C423 C479 1.419 . S
C424 C420 1.391 . S
C424 C423 1.391 . S
C424 C425 1.399 . S
C425 C424 1.399 . S
C425 C428 1.396 . S
C425 C437 1.453 . S
C425 C438 1.684 . S
H426 C450 0.948 . S
C427 C423 1.397 . S
C427 C428 1.394 . S
C427 C446 1.723 1_556 S
C428 C425 1.396 . S
C428 C427 1.394 . S
C428 C458 1.723 1_556 S
H429 C452 0.946 1_556 S
H430 C453 0.948 1_556 S
H431 C459 0.982 . S
H432 C460 0.979 . S
H433 C460 0.980 . S
H434 C460 0.983 . S
H435 C459 0.979 . S
H436 C459 0.977 . S
C437 C425 1.453 . S
C437 H466 0.982 . S
C437 H467 0.979 . S
C437 H468 0.977 . S
C438 C425 1.684 . S
C438 H463 0.979 . S
C438 H464 0.980 . S
C438 H465 0.983 . S
C439 C440 1.391 . S
C439 C444 1.391 . S
C439 H469 0.948 . S
C440 C439 1.391 . S
C440 C441 1.391 . S
C441 C440 1.391 . S
C441 C442 1.392 . S
C441 H470 0.947 . S
C442 C441 1.392 . S
C442 C443 1.419 . S
C442 H471 0.948 . S
C443 C442 1.419 . S
C443 C444 1.391 . S
C443 C447 1.397 . S
C444 C439 1.391 . S
C444 C443 1.391 . S
C444 C445 1.399 . S
C445 C444 1.399 . S
C445 C446 1.396 . S
C445 C448 1.453 . S
C445 C449 1.684 . S
C446 C427 1.723 1_554 S
C446 C445 1.396 . S
C446 C447 1.394 . S
C447 C443 1.397 . S
C447 C446 1.394 . S
C447 C457 1.723 . S
C448 C445 1.453 . S
C448 H472 0.982 . S
C448 H473 0.979 . S
C448 H474 0.977 1_554 S
C449 C445 1.684 . S
C449 H475 0.979 . S
C449 H476 0.980 1_554 S
C449 H477 0.983 . S
C450 H426 0.948 . S
C450 C451 1.391 . S
C450 C455 1.391 . S
C451 C450 1.391 . S
C451 C452 1.391 . S
C452 H429 0.946 1_554 S
C452 C451 1.391 . S
C452 C453 1.392 . S
C453 H430 0.948 1_554 S
C453 C452 1.392 . S
C453 C454 1.419 . S
C454 C453 1.419 . S
C454 C455 1.391 . S
C454 C458 1.397 . S
C455 C450 1.391 . S
C455 C454 1.391 . S
C455 C456 1.399 . S
C456 C455 1.399 . S
C456 C457 1.396 . S
C456 C459 1.453 . S
C456 C460 1.684 . S
C457 C447 1.723 . S
C457 C456 1.396 . S
C457 C458 1.394 . S
C458 C428 1.723 1_554 S
C458 C454 1.397 . S
C458 C457 1.394 . S
C459 H431 0.982 . S
C459 H435 0.979 . S
C459 H436 0.977 . S
C459 C456 1.453 . S
C460 H432 0.979 . S
C460 H433 0.980 . S
C460 H434 0.983 . S
C460 C456 1.684 . S
H461 C479 0.948 . S
H462 C420 0.948 . S
H463 C438 0.979 . S
H464 C438 0.980 . S
H465 C438 0.983 . S
H466 C437 0.982 . S
H467 C437 0.979 . S
H468 C437 0.977 . S
H469 C439 0.948 . S
H470 C441 0.947 . S
H471 C442 0.948 . S
H472 C448 0.982 . S
H473 C448 0.979 . S
H474 C448 0.977 1_556 S
H475 C449 0.979 . S
H476 C449 0.980 1_556 S
H477 C449 0.983 . S
H478 C422 0.947 . S
C479 C422 1.392 . S
C479 C423 1.419 . S
C479 H461 0.948 . S
Tb480 C490 2.825 . S
Tb480 O491 2.347 1_455 S
Tb480 O494 2.366 . S
Tb480 O499 2.418 . S
Tb480 O500 2.384 1_565 S
Tb480 O503 2.479 . S
Tb480 O504 2.471 . S
Eu481 O492 2.418 . S
Eu481 O493 2.384 1_545 S
Eu481 O496 2.479 . S
Eu481 O497 2.471 . S
Eu481 O498 2.347 1_655 S
Eu481 O501 2.366 . S
Eu481 C511 2.825 . S
C482 O498 1.259 1_565 S
C482 O499 1.265 . S
C483 O500 1.255 . S
C483 O501 1.265 1_455 S
C484 C486 1.380 . S
C484 C487 1.374 . S
C484 C490 1.507 . S
C485 C486 1.384 . S
C485 C489 1.387 . S
C485 H512 0.930 . S
C486 C484 1.380 . S
C486 C485 1.384 . S
C486 H513 0.931 . S
C487 C484 1.374 . S
C487 C488 1.390 . S
C487 H514 0.930 1_455 S
C488 C487 1.390 . S
C488 C489 1.391 . S
C488 H515 0.930 1_455 S
C489 C485 1.387 . S
C489 C488 1.391 . S
C490 Tb480 2.825 . S
C490 C484 1.507 . S
C490 O503 1.238 . S
C490 O504 1.247 . S
O491 Tb480 2.347 1_655 S
O491 C495 1.259 1_565 S
O492 Eu481 2.418 . S
O492 C495 1.265 . S
O493 Eu481 2.384 1_565 S
O493 C502 1.255 . S
O494 Tb480 2.366 . S
O494 C502 1.265 1_455 S
C495 O491 1.259 1_545 S
C495 O492 1.265 . S
O496 Eu481 2.479 . S
O496 C511 1.238 . S
O497 Eu481 2.471 . S
O497 C511 1.247 . S
O498 Eu481 2.347 1_455 S
O498 C482 1.259 1_545 S
O499 Tb480 2.418 . S
O499 C482 1.265 . S
O500 Tb480 2.384 1_545 S
O500 C483 1.255 . S
O501 Eu481 2.366 . S
O501 C483 1.265 1_655 S
C502 O493 1.255 . S
C502 O494 1.265 1_655 S
O503 Tb480 2.479 . S
O503 C490 1.238 . S
O504 Tb480 2.471 . S
O504 C490 1.247 . S
C505 C508 1.380 . S
C505 C509 1.374 . S
C505 C511 1.507 . S
C506 C507 1.387 . S
C506 C510 1.391 . S
C507 C506 1.387 . S
C507 C508 1.384 . S
C507 H516 0.930 . S
C508 C505 1.380 . S
C508 C507 1.384 . S
C508 H517 0.931 . S
C509 C505 1.374 . S
C509 C510 1.390 . S
C509 H518 0.930 1_655 S
C510 C506 1.391 . S
C510 C509 1.390 . S
C510 H519 0.930 1_655 S
C511 Eu481 2.825 . S
C511 O496 1.238 . S
C511 O497 1.247 . S
C511 C505 1.507 . S
H512 C485 0.930 . S
H513 C486 0.931 . S
H514 C487 0.930 1_655 S
H515 C488 0.930 1_655 S
H516 C507 0.930 . S
H517 C508 0.931 . S
H518 C509 0.930 1_455 S
H519 C510 0.930 1_455 S
Tb520 C530 2.825 . S
Tb520 O531 2.347 1_545 S
Tb520 O534 2.366 . S
Tb520 O539 2.418 . S
Tb520 O540 2.384 . S
Tb520 O543 2.479 . S
Tb520 O544 2.471 . S
Eu521 O532 2.418 . S
Eu521 O533 2.384 . S
Eu521 O536 2.479 . S
Eu521 O537 2.471 . S
Eu521 O538 2.347 1_565 S
Eu521 O541 2.366 . S
Eu521 C551 2.825 . S
C522 O538 1.259 . S
C522 O539 1.265 . S
C523 O540 1.255 . S
C523 O541 1.265 1_545 S
C524 C526 1.380 . S
C524 C527 1.374 . S
C524 C530 1.507 . S
C525 C526 1.384 . S
C525 C529 1.387 . S
C525 H552 0.930 . S
C526 C524 1.380 . S
C526 C525 1.384 . S
C526 H553 0.931 . S
C527 C524 1.374 . S
C527 C528 1.390 . S
C527 H554 0.930 1_545 S
C528 C527 1.390 . S
C528 C529 1.391 . S
C528 H555 0.930 1_545 S
C529 C525 1.387 . S
C529 C528 1.391 . S
C530 Tb520 2.825 . S
C530 C524 1.507 . S
C530 O543 1.238 . S
C530 O544 1.247 . S
O531 Tb520 2.347 1_565 S
O531 C535 1.259 . S
O532 Eu521 2.418 . S
O532 C535 1.265 . S
O533 Eu521 2.384 . S
O533 C542 1.255 . S
O534 Tb520 2.366 . S
O534 C542 1.265 1_545 S
C535 O531 1.259 . S
C535 O532 1.265 . S
O536 Eu521 2.479 . S
O536 C551 1.238 . S
O537 Eu521 2.471 . S
O537 C551 1.247 . S
O538 Eu521 2.347 1_545 S
O538 C522 1.259 . S
O539 Tb520 2.418 . S
O539 C522 1.265 . S
O540 Tb520 2.384 . S
O540 C523 1.255 . S
O541 Eu521 2.366 . S
O541 C523 1.265 1_565 S
C542 O533 1.255 . S
C542 O534 1.265 1_565 S
O543 Tb520 2.479 . S
O543 C530 1.238 . S
O544 Tb520 2.471 . S
O544 C530 1.247 . S
C545 C548 1.380 . S
C545 C549 1.374 . S
C545 C551 1.507 . S
C546 C547 1.387 . S
C546 C550 1.391 . S
C547 C546 1.387 . S
C547 C548 1.384 . S
C547 H556 0.930 . S
C548 C545 1.380 . S
C548 C547 1.384 . S
C548 H557 0.931 . S
C549 C545 1.374 . S
C549 C550 1.390 . S
C549 H558 0.930 1_565 S
C550 C546 1.391 . S
C550 C549 1.390 . S
C550 H559 0.930 1_565 S
C551 Eu521 2.825 . S
C551 O536 1.238 . S
C551 O537 1.247 . S
C551 C545 1.507 . S
H552 C525 0.930 . S
H553 C526 0.931 . S
H554 C527 0.930 1_565 S
H555 C528 0.930 1_565 S
H556 C547 0.930 . S
H557 C548 0.931 . S
H558 C549 0.930 1_545 S
H559 C550 0.930 1_545 S
Tb560 C570 2.825 . S
Tb560 O571 2.347 . S
Tb560 O574 2.366 . S
Tb560 O579 2.418 . S
Tb560 O580 2.384 . S
Tb560 O583 2.479 . S
Tb560 O584 2.471 . S
Eu561 O572 2.418 . S
Eu561 O573 2.384 . S
Eu561 O576 2.479 . S
Eu561 O577 2.471 . S
Eu561 O578 2.347 . S
Eu561 O581 2.366 . S
Eu561 C591 2.825 . S
C562 O578 1.259 . S
C562 O579 1.265 . S
C563 O580 1.255 . S
C563 O581 1.265 . S
C564 C566 1.380 . S
C564 C567 1.374 . S
C564 C570 1.507 . S
C565 C566 1.384 . S
C565 C569 1.387 . S
C565 H592 0.930 . S
C566 C564 1.380 . S
C566 C565 1.384 . S
C566 H593 0.931 . S
C567 C564 1.374 . S
C567 C568 1.390 . S
C567 H594 0.930 . S
C568 C567 1.390 . S
C568 C569 1.391 . S
C568 H595 0.930 . S
C569 C565 1.387 . S
C569 C568 1.391 . S
C570 Tb560 2.825 . S
C570 C564 1.507 . S
C570 O583 1.238 . S
C570 O584 1.247 . S
O571 Tb560 2.347 . S
O571 C575 1.259 . S
O572 Eu561 2.418 . S
O572 C575 1.265 . S
O573 Eu561 2.384 . S
O573 C582 1.255 . S
O574 Tb560 2.366 . S
O574 C582 1.265 . S
C575 O571 1.259 . S
C575 O572 1.265 . S
O576 Eu561 2.479 . S
O576 C591 1.238 . S
O577 Eu561 2.471 . S
O577 C591 1.247 . S
O578 Eu561 2.347 . S
O578 C562 1.259 . S
O579 Tb560 2.418 . S
O579 C562 1.265 . S
O580 Tb560 2.384 . S
O580 C563 1.255 . S
O581 Eu561 2.366 . S
O581 C563 1.265 . S
C582 O573 1.255 . S
C582 O574 1.265 . S
O583 Tb560 2.479 . S
O583 C570 1.238 . S
O584 Tb560 2.471 . S
O584 C570 1.247 . S
C585 C588 1.380 . S
C585 C589 1.374 . S
C585 C591 1.507 . S
C586 C587 1.387 . S
C586 C590 1.391 . S
C587 C586 1.387 . S
C587 C588 1.384 . S
C587 H596 0.930 . S
C588 C585 1.380 . S
C588 C587 1.384 . S
C588 H597 0.931 . S
C589 C585 1.374 . S
C589 C590 1.390 . S
C589 H598 0.930 . S
C590 C586 1.391 . S
C590 C589 1.390 . S
C590 H599 0.930 . S
C591 Eu561 2.825 . S
C591 O576 1.238 . S
C591 O577 1.247 . S
C591 C585 1.507 . S
H592 C565 0.930 . S
H593 C566 0.931 . S
H594 C567 0.930 . S
H595 C568 0.930 . S
H596 C587 0.930 . S
H597 C588 0.931 . S
H598 C589 0.930 . S
H599 C590 0.930 . S
Tb600 C610 2.825 . S
Tb600 O611 2.347 . S
Tb600 O614 2.366 . S
Tb600 O619 2.418 . S
Tb600 O620 2.384 1_655 S
Tb600 O623 2.479 . S
Tb600 O624 2.471 . S
Eu601 O612 2.418 . S
Eu601 O613 2.384 1_455 S
Eu601 O616 2.479 . S
Eu601 O617 2.471 . S
Eu601 O618 2.347 . S
Eu601 O621 2.366 . S
Eu601 C631 2.825 . S
C602 O618 1.259 1_655 S
C602 O619 1.265 . S
C603 O620 1.255 . S
C603 O621 1.265 . S
C604 C606 1.380 . S
C604 C607 1.374 . S
C604 C610 1.507 . S
C605 C606 1.384 . S
C605 C609 1.387 . S
C605 H632 0.930 . S
C606 C604 1.380 . S
C606 C605 1.384 . S
C606 H633 0.931 . S
C607 C604 1.374 . S
C607 C608 1.390 . S
C607 H634 0.930 . S
C608 C607 1.390 . S
C608 C609 1.391 . S
C608 H635 0.930 . S
C609 C605 1.387 . S
C609 C608 1.391 . S
C610 Tb600 2.825 . S
C610 C604 1.507 . S
C610 O623 1.238 . S
C610 O624 1.247 . S
O611 Tb600 2.347 . S
O611 C615 1.259 1_655 S
O612 Eu601 2.418 . S
O612 C615 1.265 . S
O613 Eu601 2.384 1_655 S
O613 C622 1.255 . S
O614 Tb600 2.366 . S
O614 C622 1.265 . S
C615 O611 1.259 1_455 S
C615 O612 1.265 . S
O616 Eu601 2.479 . S
O616 C631 1.238 . S
O617 Eu601 2.471 . S
O617 C631 1.247 . S
O618 Eu601 2.347 . S
O618 C602 1.259 1_455 S
O619 Tb600 2.418 . S
O619 C602 1.265 . S
O620 Tb600 2.384 1_455 S
O620 C603 1.255 . S
O621 Eu601 2.366 . S
O621 C603 1.265 . S
C622 O613 1.255 . S
C622 O614 1.265 . S
O623 Tb600 2.479 . S
O623 C610 1.238 . S
O624 Tb600 2.471 . S
O624 C610 1.247 . S
C625 C628 1.380 . S
C625 C629 1.374 . S
C625 C631 1.507 . S
C626 C627 1.387 . S
C626 C630 1.391 . S
C627 C626 1.387 . S
C627 C628 1.384 . S
C627 H636 0.930 . S
C628 C625 1.380 . S
C628 C627 1.384 . S
C628 H637 0.931 . S
C629 C625 1.374 . S
C629 C630 1.390 . S
C629 H638 0.930 . S
C630 C626 1.391 . S
C630 C629 1.390 . S
C630 H639 0.930 . S
C631 Eu601 2.825 . S
C631 O616 1.238 . S
C631 O617 1.247 . S
C631 C625 1.507 . S
H632 C605 0.930 . S
H633 C606 0.931 . S
H634 C607 0.930 . S
H635 C608 0.930 . S
H636 C627 0.930 . S
H637 C628 0.931 . S
H638 C629 0.930 . S
H639 C630 0.930 . S
H640 C646 0.930 . S
H641 C650 0.930 . S
H642 C655 0.929 . S
H643 C653 0.929 . S
H644 C648 0.929 . S
H645 C654 0.929 . S
C646 H640 0.930 . S
C646 C647 1.374 . S
C646 C654 1.378 . S
C647 C646 1.374 . S
C647 C655 1.426 1_565 S
C648 H644 0.929 . S
C648 C650 1.378 . S
C648 C652 1.392 . S
C649 C652 1.460 1_565 S
C649 C654 1.361 . S
C649 N657 1.416 1_565 S
C650 H641 0.930 . S
C650 C648 1.378 . S
C650 C651 1.405 . S
C651 C650 1.405 . S
C651 C653 1.394 1_545 S
C652 C648 1.392 . S
C652 C649 1.460 1_545 S
C652 N656 1.385 1_545 S
C653 H643 0.929 . S
C653 C651 1.394 1_565 S
C653 N656 1.384 . S
C654 H645 0.929 . S
C654 C646 1.378 . S
C654 C649 1.361 . S
C655 H642 0.929 . S
C655 C647 1.426 1_545 S
C655 N657 1.384 . S
N656 C652 1.385 1_565 S
N656 C653 1.384 . S
N657 C649 1.416 1_545 S
N657 C655 1.384 . S
H658 C664 0.930 . S
H659 C668 0.930 . S
H660 C673 0.929 . S
H661 C671 0.929 . S
H662 C666 0.929 . S
H663 C672 0.929 . S
C664 H658 0.930 . S
C664 C665 1.367 . S
C664 C672 1.378 . S
C665 C664 1.367 . S
C665 C673 1.433 . S
C666 H662 0.929 . S
C666 C668 1.378 . S
C666 C670 1.350 . S
C667 C670 1.463 . S
C667 C672 1.350 . S
C667 N675 1.427 . S
C668 H659 0.930 . S
C668 C666 1.378 . S
C668 C669 1.367 . S
C669 C668 1.367 . S
C669 C671 1.433 . S
C670 C666 1.350 . S
C670 C667 1.463 . S
C670 N674 1.427 . S
C671 H661 0.929 . S
C671 C669 1.433 . S
C671 N674 1.384 . S
C672 H663 0.929 . S
C672 C664 1.378 . S
C672 C667 1.350 . S
C673 H660 0.929 . S
C673 C665 1.433 . S
C673 N675 1.384 . S
N674 C670 1.427 . S
N674 C671 1.384 . S
N675 C667 1.427 . S
N675 C673 1.384 . S
H676 C682 0.930 . S
H677 C686 0.930 . S
H678 C691 0.929 . S
H679 C689 0.929 . S
H680 C684 0.929 . S
H681 C690 0.929 . S
C682 H676 0.930 . S
C682 C683 1.367 . S
C682 C690 1.378 . S
C683 C682 1.367 . S
C683 C691 1.433 . S
C684 H680 0.929 . S
C684 C686 1.378 . S
C684 C688 1.350 . S
C685 C688 1.463 . S
C685 C690 1.350 . S
C685 N693 1.427 . S
C686 H677 0.930 . S
C686 C684 1.378 . S
C686 C687 1.367 . S
C687 C686 1.367 . S
C687 C689 1.433 . S
C688 C684 1.350 . S
C688 C685 1.463 . S
C688 N692 1.427 . S
C689 H679 0.929 . S
C689 C687 1.433 . S
C689 N692 1.384 . S
C690 H681 0.929 . S
C690 C682 1.378 . S
C690 C685 1.350 . S
C691 H678 0.929 . S
C691 C683 1.433 . S
C691 N693 1.384 . S
N692 C688 1.427 . S
N692 C689 1.384 . S
N693 C685 1.427 . S
N693 C691 1.384 . S
H694 C700 0.933 . S
H695 C704 0.930 . S
H696 C709 0.929 . S
H697 C707 0.928 . S
H698 C702 0.929 . S
H699 C708 0.930 . S
C700 H694 0.933 . S
C700 C701 1.366 1_655 S
C700 C708 1.378 . S
C701 C700 1.366 1_455 S
C701 C709 1.434 . S
C702 H698 0.929 . S
C702 C704 1.378 . S
C702 C706 1.352 . S
C703 C706 1.462 . S
C703 C708 1.348 1_455 S
C703 N711 1.429 . S
C704 H695 0.930 . S
C704 C702 1.378 . S
C704 C705 1.367 . S
C705 C704 1.367 . S
C705 C707 1.433 1_455 S
C706 C702 1.352 . S
C706 C703 1.462 . S
C706 N710 1.426 1_455 S
C707 H697 0.928 . S
C707 C705 1.433 1_655 S
C707 N710 1.384 . S
C708 H699 0.930 . S
C708 C700 1.378 . S
C708 C703 1.348 1_655 S
C709 H696 0.929 . S
C709 C701 1.434 . S
C709 N711 1.384 . S
N710 C706 1.426 1_655 S
N710 C707 1.384 . S
N711 C703 1.429 . S
N711 C709 1.384 . S
H712 C718 0.930 . S
H713 C722 0.930 . S
H714 C727 0.929 . S
H715 C725 0.929 . S
H716 C720 0.929 . S
H717 C726 0.929 . S
C718 H712 0.930 . S
C718 C719 1.367 1_565 S
C718 C726 1.378 . S
C719 C718 1.367 1_545 S
C719 C727 1.433 . S
C720 H716 0.929 . S
C720 C722 1.378 . S
C720 C724 1.350 1_556 S
C721 C724 1.462 . S
C721 C726 1.350 . S
C721 N729 1.427 . S
C722 H713 0.930 . S
C722 C720 1.378 . S
C722 C723 1.367 . S
C723 C722 1.367 . S
C723 C725 1.433 . S
C724 C720 1.350 1_554 S
C724 C721 1.462 . S
C724 N728 1.427 1_554 S
C725 H715 0.929 . S
C725 C723 1.433 . S
C725 N728 1.384 . S
C726 H717 0.929 . S
C726 C718 1.378 . S
C726 C721 1.350 . S
C727 H714 0.929 . S
C727 C719 1.433 . S
C727 N729 1.384 1_545 S
N728 C724 1.427 1_556 S
N728 C725 1.384 . S
N729 C721 1.427 . S
N729 C727 1.384 1_565 S
H730 C736 0.930 . S
H731 C740 0.930 . S
H732 C745 0.929 . S
H733 C743 0.929 . S
H734 C738 0.929 . S
H735 C744 0.929 . S
C736 H730 0.930 . S
C736 C737 1.367 . S
C736 C744 1.378 . S
C737 C736 1.367 . S
C737 C745 1.433 . S
C738 H734 0.929 . S
C738 C740 1.378 . S
C738 C742 1.350 1_556 S
C739 C742 1.463 . S
C739 C744 1.350 . S
C739 N747 1.427 . S
C740 H731 0.930 . S
C740 C738 1.378 . S
C740 C741 1.367 . S
C741 C740 1.367 . S
C741 C743 1.433 . S
C742 C738 1.350 1_554 S
C742 C739 1.463 . S
C742 N746 1.427 1_554 S
C743 H733 0.929 . S
C743 C741 1.433 . S
C743 N746 1.384 . S
C744 H735 0.929 . S
C744 C736 1.378 . S
C744 C739 1.350 . S
C745 H732 0.929 . S
C745 C737 1.433 . S
C745 N747 1.384 . S
N746 C742 1.427 1_556 S
N746 C743 1.384 . S
N747 C739 1.427 . S
N747 C745 1.384 . S
H748 C754 0.930 . S
H749 C758 0.930 . S
H750 C763 0.929 . S
H751 C761 0.929 . S
H752 C756 0.929 1_554 S
H753 C762 0.929 . S
C754 H748 0.930 . S
C754 C755 1.367 . S
C754 C762 1.378 . S
C755 C754 1.367 . S
C755 C763 1.433 . S
C756 H752 0.929 1_556 S
C756 C758 1.378 . S
C756 C760 1.350 1_556 S
C757 C760 1.463 . S
C757 C762 1.350 . S
C757 N765 1.427 . S
C758 H749 0.930 . S
C758 C756 1.378 . S
C758 C759 1.367 . S
C759 C758 1.367 . S
C759 C761 1.433 . S
C760 C756 1.350 1_554 S
C760 C757 1.463 . S
C760 N764 1.427 1_554 S
C761 H751 0.929 . S
C761 C759 1.433 . S
C761 N764 1.384 . S
C762 H753 0.929 . S
C762 C754 1.378 . S
C762 C757 1.350 . S
C763 H750 0.929 . S
C763 C755 1.433 . S
C763 N765 1.384 . S
N764 C760 1.427 1_556 S
N764 C761 1.384 . S
N765 C757 1.427 . S
N765 C763 1.384 . S
H766 C772 0.930 . S
H767 C776 0.930 . S
H768 C781 0.929 . S
H769 C779 0.929 . S
H770 C774 0.929 1_554 S
H771 C780 0.929 . S
C772 H766 0.930 . S
C772 C773 1.369 1_455 S
C772 C780 1.378 . S
C773 C772 1.369 1_655 S
C773 C781 1.431 . S
C774 H770 0.929 1_556 S
C774 C776 1.378 . S
C774 C778 1.350 1_556 S
C775 C778 1.463 . S
C775 C780 1.347 1_655 S
C775 N783 1.430 . S
C776 H767 0.930 . S
C776 C774 1.378 . S
C776 C777 1.367 . S
C777 C776 1.367 . S
C777 C779 1.433 1_655 S
C778 C774 1.350 1_554 S
C778 C775 1.463 . S
C778 N782 1.427 1_654 S
C779 H769 0.929 . S
C779 C777 1.433 1_455 S
C779 N782 1.384 . S
C780 H771 0.929 . S
C780 C772 1.378 . S
C780 C775 1.347 1_455 S
C781 H768 0.929 . S
C781 C773 1.431 . S
C781 N783 1.384 . S
N782 C778 1.427 1_456 S
N782 C779 1.384 . S
N783 C775 1.430 . S
N783 C781 1.384 . S
H784 C790 0.930 . S
H785 C794 0.930 . S
H786 C799 0.929 . S
H787 C797 0.929 . S
H788 C792 0.929 1_455 S
H789 C798 0.929 . S
C790 H784 0.930 . S
C790 C791 1.367 1_655 S
C790 C798 1.378 . S
C791 C790 1.367 1_455 S
C791 C799 1.433 . S
C792 H788 0.929 1_655 S
C792 C794 1.378 . S
C792 C796 1.350 . S
C793 C796 1.463 . S
C793 C798 1.350 . S
C793 N801 1.427 1_655 S
C794 H785 0.930 . S
C794 C792 1.378 . S
C794 C795 1.367 . S
C795 C794 1.367 . S
C795 C797 1.433 . S
C796 C792 1.350 . S
C796 C793 1.463 . S
C796 N800 1.427 . S
C797 H787 0.929 . S
C797 C795 1.433 . S
C797 N800 1.384 . S
C798 H789 0.929 . S
C798 C790 1.378 . S
C798 C793 1.350 . S
C799 H786 0.929 . S
C799 C791 1.433 . S
C799 N801 1.384 . S
N800 C796 1.427 . S
N800 C797 1.384 . S
N801 C793 1.427 1_455 S
N801 C799 1.384 . S
H802 C808 0.930 . S
H803 C812 0.930 . S
H804 C817 0.929 . S
H805 C815 0.929 . S
H806 C810 0.929 1_545 S
H807 C816 0.929 . S
C808 H802 0.930 . S
C808 C809 1.367 1_565 S
C808 C816 1.378 . S
C809 C808 1.367 1_545 S
C809 C817 1.433 . S
C810 H806 0.929 1_565 S
C810 C812 1.378 . S
C810 C814 1.350 . S
C811 C814 1.463 . S
C811 C816 1.350 . S
C811 N819 1.427 1_565 S
C812 H803 0.930 . S
C812 C810 1.378 . S
C812 C813 1.367 . S
C813 C812 1.367 . S
C813 C815 1.433 . S
C814 C810 1.350 . S
C814 C811 1.463 . S
C814 N818 1.427 . S
C815 H805 0.929 . S
C815 C813 1.433 . S
C815 N818 1.384 . S
C816 H807 0.929 . S
C816 C808 1.378 . S
C816 C811 1.350 . S
C817 H804 0.929 . S
C817 C809 1.433 . S
C817 N819 1.384 . S
N818 C814 1.427 . S
N818 C815 1.384 . S
N819 C811 1.427 1_545 S
N819 C817 1.384 . S
H820 C826 0.930 . S
H821 C830 0.930 . S
H822 C835 0.929 . S
H823 C833 0.929 . S
H824 C828 0.929 . S
H825 C834 0.929 . S
C826 H820 0.930 . S
C826 C827 1.367 . S
C826 C834 1.378 . S
C827 C826 1.367 . S
C827 C835 1.433 . S
C828 H824 0.929 . S
C828 C830 1.378 . S
C828 C832 1.350 . S
C829 C832 1.463 . S
C829 C834 1.350 . S
C829 N837 1.427 . S
C830 H821 0.930 . S
C830 C828 1.378 . S
C830 C831 1.367 . S
C831 C830 1.367 . S
C831 C833 1.433 . S
C832 C828 1.350 . S
C832 C829 1.463 . S
C832 N836 1.427 . S
C833 H823 0.929 . S
C833 C831 1.433 . S
C833 N836 1.384 . S
C834 H825 0.929 . S
C834 C826 1.378 . S
C834 C829 1.350 . S
C835 H822 0.929 . S
C835 C827 1.433 . S
C835 N837 1.384 . S
N836 C832 1.427 . S
N836 C833 1.384 . S
N837 C829 1.427 . S
N837 C835 1.384 . S
H838 C844 0.930 . S
H839 C848 0.930 . S
H840 C853 0.929 . S
H841 C851 0.929 . S
H842 C846 0.929 . S
H843 C852 0.929 . S
C844 H838 0.930 . S
C844 C845 1.367 . S
C844 C852 1.378 . S
C845 C844 1.367 . S
C845 C853 1.433 . S
C846 H842 0.929 . S
C846 C848 1.378 . S
C846 C850 1.350 . S
C847 C850 1.463 . S
C847 C852 1.350 . S
C847 N855 1.427 . S
C848 H839 0.930 . S
C848 C846 1.378 . S
C848 C849 1.367 . S
C849 C848 1.367 . S
C849 C851 1.433 . S
C850 C846 1.350 . S
C850 C847 1.463 . S
C850 N854 1.427 . S
C851 H841 0.929 . S
C851 C849 1.433 . S
C851 N854 1.384 . S
C852 H843 0.929 . S
C852 C844 1.378 . S
C852 C847 1.350 . S
C853 H840 0.929 . S
C853 C845 1.433 . S
C853 N855 1.384 . S
N854 C850 1.427 . S
N854 C851 1.384 . S
N855 C847 1.427 . S
N855 C853 1.384 . S
H856 C862 0.930 1_655 S
H857 C866 0.930 . S
H858 C871 0.922 1_655 S
H859 C869 0.929 . S
H860 C864 0.929 . S
H861 C870 0.929 1_556 S
C862 H856 0.930 1_455 S
C862 C863 1.367 1_455 S
C862 C870 1.378 . S
C863 C862 1.367 1_655 S
C863 C871 1.427 1_655 S
C864 H860 0.929 . S
C864 C866 1.378 . S
C864 C868 1.350 . S
C865 C868 1.463 . S
C865 C870 1.350 . S
C865 N873 1.427 . S
C866 H857 0.930 . S
C866 C864 1.378 . S
C866 C867 1.367 1_554 S
C867 C866 1.367 1_556 S
C867 C869 1.433 . S
C868 C864 1.350 . S
C868 C865 1.463 . S
C868 N872 1.427 1_554 S
C869 H859 0.929 . S
C869 C867 1.433 . S
C869 N872 1.384 . S
C870 H861 0.929 1_554 S
C870 C862 1.378 . S
C870 C865 1.350 . S
C871 H858 0.922 1_455 S
C871 C863 1.427 1_455 S
C871 N873 1.400 . S
N872 C868 1.427 1_556 S
N872 C869 1.384 . S
N873 C865 1.427 . S
N873 C871 1.400 . S
H874 C880 0.930 . S
H875 C884 0.930 . S
H876 C889 0.929 . S
H877 C887 0.929 . S
H878 C882 0.929 1_565 S
H879 C888 0.929 . S
C880 H874 0.930 . S
C880 C881 1.367 1_545 S
C880 C888 1.378 . S
C881 C880 1.367 1_565 S
C881 C889 1.433 . S
C882 H878 0.929 1_545 S
C882 C884 1.378 . S
C882 C886 1.350 1_556 S
C883 C886 1.463 . S
C883 C888 1.350 . S
C883 N891 1.427 1_545 S
C884 H875 0.930 . S
C884 C882 1.378 . S
C884 C885 1.367 . S
C885 C884 1.367 . S
C885 C887 1.433 1_556 S
C886 C882 1.350 1_554 S
C886 C883 1.463 . S
C886 N890 1.427 . S
C887 H877 0.929 . S
C887 C885 1.433 1_554 S
C887 N890 1.384 . S
C888 H879 0.929 . S
C888 C880 1.378 . S
C888 C883 1.350 . S
C889 H876 0.929 . S
C889 C881 1.433 . S
C889 N891 1.384 . S
N890 C886 1.427 . S
N890 C887 1.384 . S
N891 C883 1.427 1_565 S
N891 C889 1.384 . S
H892 C898 0.930 . S
H893 C902 0.930 . S
H894 C907 0.929 . S
H895 C905 0.929 . S
H896 C900 0.929 . S
H897 C906 0.929 1_556 S
C898 H892 0.930 . S
C898 C899 1.367 . S
C898 C906 1.378 . S
C899 C898 1.367 . S
C899 C907 1.433 . S
C900 H896 0.929 . S
C900 C902 1.378 . S
C900 C904 1.350 . S
C901 C904 1.463 . S
C901 C906 1.350 . S
C901 N909 1.427 . S
C902 H893 0.930 . S
C902 C900 1.378 . S
C902 C903 1.367 1_554 S
C903 C902 1.367 1_556 S
C903 C905 1.433 . S
C904 C900 1.350 . S
C904 C901 1.463 . S
C904 N908 1.427 1_554 S
C905 H895 0.929 . S
C905 C903 1.433 . S
C905 N908 1.384 . S
C906 H897 0.929 1_554 S
C906 C898 1.378 . S
C906 C901 1.350 . S
C907 H894 0.929 . S
C907 C899 1.433 . S
C907 N909 1.384 . S
N908 C904 1.427 1_556 S
N908 C905 1.384 . S
N909 C901 1.427 . S
N909 C907 1.384 . S
H910 C916 0.930 . S
H911 C920 0.930 . S
H912 C925 0.929 . S
H913 C923 0.929 1_554 S
H914 C918 0.929 . S
H915 C924 0.929 . S
C916 H910 0.930 . S
C916 C917 1.367 . S
C916 C924 1.378 . S
C917 C916 1.367 . S
C917 C925 1.433 . S
C918 H914 0.929 . S
C918 C920 1.378 . S
C918 C922 1.350 1_556 S
C919 C922 1.463 . S
C919 C924 1.350 . S
C919 N927 1.427 . S
C920 H911 0.930 . S
C920 C918 1.378 . S
C920 C921 1.367 . S
C921 C920 1.367 . S
C921 C923 1.433 . S
C922 C918 1.350 1_554 S
C922 C919 1.463 . S
C922 N926 1.427 . S
C923 H913 0.929 1_556 S
C923 C921 1.433 . S
C923 N926 1.384 1_556 S
C924 H915 0.929 . S
C924 C916 1.378 . S
C924 C919 1.350 . S
C925 H912 0.929 . S
C925 C917 1.433 . S
C925 N927 1.384 . S
N926 C922 1.427 . S
N926 C923 1.384 1_554 S
N927 C919 1.427 . S
N927 C925 1.384 . S
H928 C934 0.930 . S
H929 C938 0.930 . S
H930 C943 0.929 . S
H931 C941 0.929 . S
H932 C936 0.929 . S
H933 C942 0.929 . S
C934 H928 0.930 . S
C934 C935 1.367 1_655 S
C934 C942 1.378 . S
C935 C934 1.367 1_455 S
C935 C943 1.433 . S
C936 H932 0.929 . S
C936 C938 1.378 . S
C936 C940 1.350 . S
C937 C940 1.463 . S
C937 C942 1.350 1_455 S
C937 N945 1.427 . S
C938 H929 0.930 . S
C938 C936 1.378 . S
C938 C939 1.367 . S
C939 C938 1.367 . S
C939 C941 1.433 1_455 S
C940 C936 1.350 . S
C940 C937 1.463 . S
C940 N944 1.427 1_455 S
C941 H931 0.929 . S
C941 C939 1.433 1_655 S
C941 N944 1.384 . S
C942 H933 0.929 . S
C942 C934 1.378 . S
C942 C937 1.350 1_655 S
C943 H930 0.929 . S
C943 C935 1.433 . S
C943 N945 1.384 . S
N944 C940 1.427 1_655 S
N944 C941 1.384 . S
N945 C937 1.427 . S
N945 C943 1.384 . S
H946 C952 0.930 . S
H947 C956 0.930 . S
H948 C961 0.929 . S
H949 C959 0.929 . S
H950 C954 0.929 . S
H951 C960 0.929 . S
C952 H946 0.930 . S
C952 C953 1.367 1_565 S
C952 C960 1.378 . S
C953 C952 1.367 1_545 S
C953 C961 1.433 . S
C954 H950 0.929 . S
C954 C956 1.378 . S
C954 C958 1.350 . S
C955 C958 1.463 . S
C955 C960 1.350 1_545 S
C955 N963 1.427 . S
C956 H947 0.930 . S
C956 C954 1.378 . S
C956 C957 1.367 . S
C957 C956 1.367 . S
C957 C959 1.433 1_545 S
C958 C954 1.350 . S
C958 C955 1.463 . S
C958 N962 1.427 1_545 S
C959 H949 0.929 . S
C959 C957 1.433 1_565 S
C959 N962 1.384 . S
C960 H951 0.929 . S
C960 C952 1.378 . S
C960 C955 1.350 1_565 S
C961 H948 0.929 . S
C961 C953 1.433 . S
C961 N963 1.384 . S
N962 C958 1.427 1_565 S
N962 C959 1.384 . S
N963 C955 1.427 . S
N963 C961 1.384 . S
H964 C970 0.930 . S
H965 C974 0.930 . S
H966 C979 0.929 . S
H967 C977 0.929 . S
H968 C972 0.929 . S
H969 C978 0.929 . S
C970 H964 0.930 . S
C970 C971 1.367 . S
C970 C978 1.378 . S
C971 C970 1.367 . S
C971 C979 1.433 . S
C972 H968 0.929 . S
C972 C974 1.378 . S
C972 C976 1.350 . S
C973 C976 1.463 . S
C973 C978 1.350 . S
C973 N981 1.427 . S
C974 H965 0.930 . S
C974 C972 1.378 . S
C974 C975 1.367 . S
C975 C974 1.367 . S
C975 C977 1.433 . S
C976 C972 1.350 . S
C976 C973 1.463 . S
C976 N980 1.427 . S
C977 H967 0.929 . S
C977 C975 1.433 . S
C977 N980 1.384 . S
C978 H969 0.929 . S
C978 C970 1.378 . S
C978 C973 1.350 . S
C979 H966 0.929 . S
C979 C971 1.433 . S
C979 N981 1.384 . S
N980 C976 1.427 . S
N980 C977 1.384 . S
N981 C973 1.427 . S
N981 C979 1.384 . S
H982 C988 0.930 . S
H983 C992 0.930 . S
H984 C997 0.929 . S
H985 C995 0.929 . S
H986 C990 0.929 . S
H987 C996 0.929 . S
C988 H982 0.930 . S
C988 C989 1.367 . S
C988 C996 1.378 . S
C989 C988 1.367 . S
C989 C997 1.433 . S
C990 H986 0.929 . S
C990 C992 1.378 . S
C990 C994 1.350 . S
C991 C994 1.463 . S
C991 C996 1.350 . S
C991 N999 1.427 . S
C992 H983 0.930 . S
C992 C990 1.378 . S
C992 C993 1.367 . S
C993 C992 1.367 . S
C993 C995 1.433 . S
C994 C990 1.350 . S
C994 C991 1.463 . S
C994 N998 1.427 . S
C995 H985 0.929 . S
C995 C993 1.433 . S
C995 N998 1.384 . S
C996 H987 0.929 . S
C996 C988 1.378 . S
C996 C991 1.350 . S
C997 H984 0.929 . S
C997 C989 1.433 . S
C997 N999 1.384 . S
N998 C994 1.427 . S
N998 C995 1.384 . S
N999 C991 1.427 . S
N999 C997 1.384 . S
H1000 C1006 0.930 . S
H1001 C1010 0.922 1_455 S
H1002 C1015 0.929 . S
H1003 C1013 0.929 . S
H1004 C1008 0.929 1_455 S
H1005 C1014 0.929 . S
C1006 H1000 0.930 . S
C1006 C1007 1.367 . S
C1006 C1014 1.378 . S
C1007 C1006 1.367 . S
C1007 C1015 1.433 1_655 S
C1008 H1004 0.929 1_655 S
C1008 C1010 1.378 . S
C1008 C1012 1.350 . S
C1009 C1012 1.463 . S
C1009 C1014 1.350 . S
C1009 N1017 1.427 1_655 S
C1010 H1001 0.922 1_655 S
C1010 C1008 1.378 . S
C1010 C1011 1.367 . S
C1011 C1010 1.367 . S
C1011 C1013 1.433 . S
C1012 C1008 1.350 . S
C1012 C1009 1.463 . S
C1012 N1016 1.427 . S
C1013 H1003 0.929 . S
C1013 C1011 1.433 . S
C1013 N1016 1.384 . S
C1014 H1005 0.929 . S
C1014 C1006 1.378 . S
C1014 C1009 1.350 . S
C1015 H1002 0.929 . S
C1015 C1007 1.433 1_455 S
C1015 N1017 1.384 . S
N1016 C1012 1.427 . S
N1016 C1013 1.384 . S
N1017 C1009 1.427 1_455 S
N1017 C1015 1.384 . S
H1018 C1024 0.930 . S
H1019 C1028 0.926 1_545 S
H1020 C1033 0.929 . S
H1021 C1031 0.929 . S
H1022 C1026 0.945 . S
H1023 C1032 0.929 . S
C1024 H1018 0.930 . S
C1024 C1025 1.367 . S
C1024 C1032 1.378 . S
C1025 C1024 1.367 . S
C1025 C1033 1.433 1_565 S
C1026 H1022 0.945 . S
C1026 C1028 1.376 1_545 S
C1026 C1030 1.337 1_545 S
C1027 C1030 1.463 . S
C1027 C1032 1.350 . S
C1027 N1035 1.427 1_565 S
C1028 H1019 0.926 1_565 S
C1028 C1026 1.376 1_565 S
C1028 C1029 1.372 . S
C1029 C1028 1.372 . S
C1029 C1031 1.433 . S
C1030 C1026 1.337 1_565 S
C1030 C1027 1.463 . S
C1030 N1034 1.427 . S
C1031 H1021 0.929 . S
C1031 C1029 1.433 . S
C1031 N1034 1.384 . S
C1032 H1023 0.929 . S
C1032 C1024 1.378 . S
C1032 C1027 1.350 . S
C1033 H1020 0.929 . S
C1033 C1025 1.433 1_545 S
C1033 N1035 1.384 . S
N1034 C1030 1.427 . S
N1034 C1031 1.384 . S
N1035 C1027 1.427 1_545 S
N1035 C1033 1.384 . S
H1036 C1042 0.930 . S
H1037 C1046 0.930 . S
H1038 C1051 0.929 . S
H1039 C1049 0.929 . S
H1040 C1044 0.929 . S
H1041 C1050 0.929 . S
C1042 H1036 0.930 . S
C1042 C1043 1.367 . S
C1042 C1050 1.378 . S
C1043 C1042 1.367 . S
C1043 C1051 1.433 . S
C1044 H1040 0.929 . S
C1044 C1046 1.378 . S
C1044 C1048 1.350 . S
C1045 C1048 1.463 . S
C1045 C1050 1.350 . S
C1045 N1053 1.427 . S
C1046 H1037 0.930 . S
C1046 C1044 1.378 . S
C1046 C1047 1.367 . S
C1047 C1046 1.367 . S
C1047 C1049 1.433 . S
C1048 C1044 1.350 . S
C1048 C1045 1.463 . S
C1048 N1052 1.427 . S
C1049 H1039 0.929 . S
C1049 C1047 1.433 . S
C1049 N1052 1.384 . S
C1050 H1041 0.929 . S
C1050 C1042 1.378 . S
C1050 C1045 1.350 . S
C1051 H1038 0.929 . S
C1051 C1043 1.433 . S
C1051 N1053 1.384 . S
N1052 C1048 1.427 . S
N1052 C1049 1.384 . S
N1053 C1045 1.427 . S
N1053 C1051 1.384 . S
H1054 C1060 0.930 . S
H1055 C1064 0.930 . S
H1056 C1069 0.929 . S
H1057 C1067 0.929 . S
H1058 C1062 0.929 . S
H1059 C1068 0.929 . S
C1060 H1054 0.930 . S
C1060 C1061 1.367 . S
C1060 C1068 1.378 . S
C1061 C1060 1.367 . S
C1061 C1069 1.433 . S
C1062 H1058 0.929 . S
C1062 C1064 1.378 . S
C1062 C1066 1.350 . S
C1063 C1066 1.463 . S
C1063 C1068 1.350 . S
C1063 N1071 1.427 . S
C1064 H1055 0.930 . S
C1064 C1062 1.378 . S
C1064 C1065 1.367 . S
C1065 C1064 1.367 . S
C1065 C1067 1.433 . S
C1066 C1062 1.350 . S
C1066 C1063 1.463 . S
C1066 N1070 1.427 . S
C1067 H1057 0.929 . S
C1067 C1065 1.433 . S
C1067 N1070 1.384 . S
C1068 H1059 0.929 . S
C1068 C1060 1.378 . S
C1068 C1063 1.350 . S
C1069 H1056 0.929 . S
C1069 C1061 1.433 . S
C1069 N1071 1.384 . S
N1070 C1066 1.427 . S
N1070 C1067 1.384 . S
N1071 C1063 1.427 . S
N1071 C1069 1.384 . S
C647 C391 2.287 1_565 S
C651 C482 2.373 1_545 S
C669 C522 2.390 . S
C665 C451 2.298 . S
C687 C562 2.391 . S
C683 C241 2.039 . S
C705 C602 2.382 1_455 S
C701 C331 2.025 1_455 S
C723 C495 2.378 1_565 S
C719 C121 2.025 1_545 S
C737 C211 2.311 . S
C741 C535 2.393 . S
C755 C31 2.309 . S
C759 C575 2.389 . S
C773 C91 2.007 . S
C777 C615 2.380 1_655 S
C795 C506 0.355 . S
C791 C301 0.536 1_455 S
C813 C546 0.360 . S
C809 C380 0.322 . S
C831 C586 0.362 . S
C827 C440 0.321 . S
C845 C260 0.555 . S
C849 C626 0.370 . S
C863 C61 0.492 . S
C867 C489 0.370 . S
C885 C529 0.365 . S
C881 C140 0.457 . S
C903 C569 0.376 . S
C899 C200 0.413 . S
C917 C20 0.377 . S
C921 C609 0.354 . S
C935 C320 2.987 1_455 S
C939 C483 3.212 . S
C953 C361 2.568 . S
C957 C523 3.194 . S
C975 C563 3.182 . S
C971 C421 2.546 . S
C993 C603 3.207 . S
C989 C271 2.972 . S
C1007 C80 2.986 . S
C1011 C502 3.226 . S
C1029 C542 3.191 . S
C1025 C151 2.948 . S
C1047 C582 3.182 . S
C1043 C181 2.566 . S
C1061 C1 2.603 . S
C1065 C622 3.213 . S
